
* cell fair_priority_arbiter
* pin priorities[1]
* pin priorities[0]
* pin priorities[6]
* pin priorities[4]
* pin priorities[2]
* pin priorities[3]
* pin priorities[7]
* pin priorities[5]
* pin grant_idx[0]
* pin grant_idx[1]
* pin rst_n
* pin clk
* pin grant[0]
* pin valid
* pin grant[3]
* pin grant[1]
* pin grant[2]
* pin request[2]
* pin request[0]
* pin request[1]
* pin request[3]
* pin PWELL,gf180mcu_gnd
* pin NWELL
.SUBCKT fair_priority_arbiter 1 2 3 4 5 6 7 8 65 66 98 112 124 125 160 173 185
+ 190 191 192 193 194 195
* net 1 priorities[1]
* net 2 priorities[0]
* net 3 priorities[6]
* net 4 priorities[4]
* net 5 priorities[2]
* net 6 priorities[3]
* net 7 priorities[7]
* net 8 priorities[5]
* net 65 grant_idx[0]
* net 66 grant_idx[1]
* net 98 rst_n
* net 112 clk
* net 124 grant[0]
* net 125 valid
* net 160 grant[3]
* net 173 grant[1]
* net 185 grant[2]
* net 190 request[2]
* net 191 request[0]
* net 192 request[1]
* net 193 request[3]
* net 194 PWELL,gf180mcu_gnd
* net 195 NWELL
* cell instance $2 r0 *1 542.64,5.04
X$2 1 195 194 11 gf180mcu_fd_sc_mcu9t5v0__buf_3
* cell instance $6 r0 *1 534.8,5.04
X$6 194 195 2 12 gf180mcu_fd_sc_mcu9t5v0__clkbuf_3
* cell instance $11 r0 *1 548.24,5.04
X$11 194 195 3 9 gf180mcu_fd_sc_mcu9t5v0__buf_4
* cell instance $14 r0 *1 551.04,15.12
X$14 194 195 4 15 gf180mcu_fd_sc_mcu9t5v0__buf_4
* cell instance $19 m0 *1 550.48,15.12
X$19 194 195 5 14 gf180mcu_fd_sc_mcu9t5v0__buf_4
* cell instance $23 r0 *1 563.92,5.04
X$23 194 195 6 13 gf180mcu_fd_sc_mcu9t5v0__buf_4
* cell instance $27 r0 *1 556.08,5.04
X$27 194 195 7 10 gf180mcu_fd_sc_mcu9t5v0__buf_4
* cell instance $31 m0 *1 562.24,15.12
X$31 194 195 8 17 gf180mcu_fd_sc_mcu9t5v0__buf_4
* cell instance $34 r0 *1 576.24,478.8
X$34 194 50 195 56 23 9 gf180mcu_fd_sc_mcu9t5v0__aoi21_2
* cell instance $36 r0 *1 556.64,468.72
X$36 194 195 9 30 21 gf180mcu_fd_sc_mcu9t5v0__nand2_2
* cell instance $38 r0 *1 597.52,458.64
X$38 194 14 195 23 28 25 9 gf180mcu_fd_sc_mcu9t5v0__aoi22_2
* cell instance $40 r0 *1 597.52,468.72
X$40 194 25 195 35 20 9 gf180mcu_fd_sc_mcu9t5v0__aoi21_2
* cell instance $50 r0 *1 571.2,458.64
X$50 194 42 16 17 21 23 13 10 195 gf180mcu_fd_sc_mcu9t5v0__aoi222_2
* cell instance $53 m0 *1 577.36,468.72
X$53 194 43 17 13 23 25 20 10 195 gf180mcu_fd_sc_mcu9t5v0__aoi222_2
* cell instance $55 m0 *1 571.2,458.64
X$55 194 19 10 13 21 23 20 17 195 gf180mcu_fd_sc_mcu9t5v0__aoi222_2
* cell instance $58 r0 *1 557.2,458.64
X$58 194 41 10 13 20 16 21 17 195 gf180mcu_fd_sc_mcu9t5v0__aoi222_2
* cell instance $68 m0 *1 559.44,488.88
X$68 194 195 45 11 46 47 gf180mcu_fd_sc_mcu9t5v0__mux2_2
* cell instance $72 m0 *1 567.84,488.88
X$72 194 195 49 11 50 32 gf180mcu_fd_sc_mcu9t5v0__mux2_2
* cell instance $75 m0 *1 573.44,468.72
X$75 194 195 11 24 gf180mcu_fd_sc_mcu9t5v0__clkinv_2
* cell instance $84 r0 *1 556.64,478.8
X$84 194 195 44 12 46 22 gf180mcu_fd_sc_mcu9t5v0__mux2_2
* cell instance $86 m0 *1 561.68,478.8
X$86 194 195 12 33 gf180mcu_fd_sc_mcu9t5v0__inv_2
* cell instance $102 m0 *1 561.12,468.72
X$102 194 15 195 21 31 16 14 gf180mcu_fd_sc_mcu9t5v0__aoi22_2
* cell instance $105 m0 *1 600.32,468.72
X$105 194 14 195 21 26 23 15 gf180mcu_fd_sc_mcu9t5v0__aoi22_2
* cell instance $107 m0 *1 558.32,458.64
X$107 194 14 195 20 29 16 15 gf180mcu_fd_sc_mcu9t5v0__aoi22_2
* cell instance $120 m0 *1 609.28,468.72
X$120 194 27 195 40 20 15 gf180mcu_fd_sc_mcu9t5v0__aoi21_2
* cell instance $128 m0 *1 612.64,498.96
X$128 194 78 55 38 16 195 gf180mcu_fd_sc_mcu9t5v0__addh_4
* cell instance $146 r0 *1 588,458.64
X$146 194 195 18 24 25 19 gf180mcu_fd_sc_mcu9t5v0__mux2_2
* cell instance $148 r0 *1 602,478.8
X$148 194 53 54 18 52 195 gf180mcu_fd_sc_mcu9t5v0__addh_2
* cell instance $165 m0 *1 624.96,478.8
X$165 194 196 37 39 20 195 gf180mcu_fd_sc_mcu9t5v0__addh_4
* cell instance $175 r0 *1 616.56,468.72
X$175 194 21 202 37 38 195 gf180mcu_fd_sc_mcu9t5v0__addh_2
* cell instance $190 m0 *1 556.08,468.72
X$190 194 195 29 22 30 gf180mcu_fd_sc_mcu9t5v0__nand2_2
* cell instance $194 r0 *1 622.72,488.88
X$194 194 197 55 39 23 195 gf180mcu_fd_sc_mcu9t5v0__addh_4
* cell instance $211 r0 *1 589.12,468.72
X$211 194 195 34 24 27 43 gf180mcu_fd_sc_mcu9t5v0__mux2_2
* cell instance $216 r0 *1 626.08,478.8
X$216 194 25 200 55 38 195 gf180mcu_fd_sc_mcu9t5v0__addh_2
* cell instance $223 m0 *1 602.56,478.8
X$223 194 74 26 33 35 53 25 195 gf180mcu_fd_sc_mcu9t5v0__aoi221_4
* cell instance $235 m0 *1 618.8,468.72
X$235 194 27 199 37 38 195 gf180mcu_fd_sc_mcu9t5v0__addh_2
* cell instance $239 r0 *1 607.6,468.72
X$239 194 40 195 28 36 27 33 gf180mcu_fd_sc_mcu9t5v0__aoi22_2
* cell instance $256 r0 *1 567.28,478.8
X$256 194 56 195 31 82 33 50 gf180mcu_fd_sc_mcu9t5v0__aoi22_2
* cell instance $258 m0 *1 575.12,478.8
X$258 194 195 42 32 gf180mcu_fd_sc_mcu9t5v0__clkinv_2
* cell instance $272 m0 *1 600.32,498.96
X$272 195 34 194 61 51 63 gf180mcu_fd_sc_mcu9t5v0__oai21_2
* cell instance $274 r0 *1 591.92,498.96
X$274 194 70 71 34 62 195 gf180mcu_fd_sc_mcu9t5v0__addh_2
* cell instance $282 r0 *1 584.08,519.12
X$282 195 131 132 116 36 90 194 gf180mcu_fd_sc_mcu9t5v0__oai211_2
* cell instance $284 r0 *1 598.64,509.04
X$284 194 195 36 75 91 gf180mcu_fd_sc_mcu9t5v0__nand2_2
* cell instance $291 r0 *1 642.88,549.36
X$291 194 37 50 195 139 gf180mcu_fd_sc_mcu9t5v0__or2_4
* cell instance $294 r0 *1 1048.32,488.88
X$294 37 195 194 65 gf180mcu_fd_sc_mcu9t5v0__dlyb_2
* cell instance $296 m0 *1 628.88,559.44
X$296 195 78 194 37 172 50 gf180mcu_fd_sc_mcu9t5v0__oai21_2
* cell instance $299 m0 *1 645.68,559.44
X$299 194 195 37 50 148 gf180mcu_fd_sc_mcu9t5v0__nor2_4
* cell instance $302 r0 *1 664.72,519.12
X$302 194 111 37 110 129 195 gf180mcu_fd_sc_mcu9t5v0__dffrnq_4
* cell instance $306 m0 *1 639.52,509.04
X$306 194 195 37 55 gf180mcu_fd_sc_mcu9t5v0__inv_3
* cell instance $308 r0 *1 634.48,498.96
X$308 194 198 37 39 50 195 gf180mcu_fd_sc_mcu9t5v0__addh_4
* cell instance $310 m0 *1 615.44,559.44
X$310 171 50 37 78 195 194 183 gf180mcu_fd_sc_mcu9t5v0__or4_2
* cell instance $321 m0 *1 655.76,519.12
X$321 195 108 194 109 114 38 gf180mcu_fd_sc_mcu9t5v0__oai21_2
* cell instance $325 r0 *1 655.76,498.96
X$325 194 195 39 38 gf180mcu_fd_sc_mcu9t5v0__clkinv_3
* cell instance $334 r0 *1 614.32,478.8
X$334 194 46 201 55 39 195 gf180mcu_fd_sc_mcu9t5v0__addh_2
* cell instance $337 r0 *1 1065.12,488.88
X$337 39 195 194 66 gf180mcu_fd_sc_mcu9t5v0__dlyb_2
* cell instance $339 r0 *1 664.72,509.04
X$339 194 111 39 110 114 195 gf180mcu_fd_sc_mcu9t5v0__dffrnq_4
* cell instance $356 r0 *1 562.8,468.72
X$356 194 195 41 47 gf180mcu_fd_sc_mcu9t5v0__clkinv_2
* cell instance $366 r0 *1 560.56,519.12
X$366 194 44 195 116 130 101 gf180mcu_fd_sc_mcu9t5v0__aoi21_2
* cell instance $368 r0 *1 562.24,509.04
X$368 194 195 44 87 gf180mcu_fd_sc_mcu9t5v0__clkinv_2
* cell instance $373 m0 *1 552.72,498.96
X$373 194 57 58 45 59 195 gf180mcu_fd_sc_mcu9t5v0__addh_2
* cell instance $376 m0 *1 564.48,498.96
X$376 194 195 60 67 45 gf180mcu_fd_sc_mcu9t5v0__nand2_2
* cell instance $388 m0 *1 568.96,559.44
X$388 194 195 48 167 139 168 gf180mcu_fd_sc_mcu9t5v0__mux2_2
* cell instance $390 m0 *1 552.72,529.2
X$390 195 48 194 69 120 100 gf180mcu_fd_sc_mcu9t5v0__oai21_2
* cell instance $392 r0 *1 566.16,498.96
X$392 195 194 82 102 48 gf180mcu_fd_sc_mcu9t5v0__nand2_4
* cell instance $394 r0 *1 565.04,488.88
X$394 194 195 48 59 49 gf180mcu_fd_sc_mcu9t5v0__nand2_2
* cell instance $417 r0 *1 602.56,488.88
X$417 195 51 64 194 52 gf180mcu_fd_sc_mcu9t5v0__and2_2
* cell instance $425 m0 *1 612.08,488.88
X$425 194 195 97 54 53 gf180mcu_fd_sc_mcu9t5v0__nor2_2
* cell instance $432 r0 *1 655.2,519.12
X$432 195 109 129 55 122 123 194 gf180mcu_fd_sc_mcu9t5v0__oai211_2
* cell instance $449 r0 *1 542.08,509.04
X$449 194 195 57 83 gf180mcu_fd_sc_mcu9t5v0__clkinv_2
* cell instance $451 r0 *1 547.68,509.04
X$451 194 57 195 100 85 58 gf180mcu_fd_sc_mcu9t5v0__aoi21_2
* cell instance $459 r0 *1 557.2,509.04
X$459 195 58 86 194 69 gf180mcu_fd_sc_mcu9t5v0__and2_2
* cell instance $462 m0 *1 546.56,509.04
X$462 194 195 58 68 gf180mcu_fd_sc_mcu9t5v0__clkinv_2
* cell instance $468 m0 *1 573.44,498.96
X$468 195 67 194 60 62 59 gf180mcu_fd_sc_mcu9t5v0__oai21_2
* cell instance $473 r0 *1 584.08,549.36
X$473 195 154 149 153 60 170 194 gf180mcu_fd_sc_mcu9t5v0__oai211_2
* cell instance $476 r0 *1 570.64,529.2
X$476 195 119 120 194 60 gf180mcu_fd_sc_mcu9t5v0__and2_2
* cell instance $485 m0 *1 592.48,498.96
X$485 63 194 61 62 195 64 gf180mcu_fd_sc_mcu9t5v0__or3_2
* cell instance $488 m0 *1 579.04,519.12
X$488 194 61 94 89 75 70 195 gf180mcu_fd_sc_mcu9t5v0__aoi211_4
* cell instance $491 m0 *1 610.4,539.28
X$491 195 194 61 63 137 138 141 104 gf180mcu_fd_sc_mcu9t5v0__oai32_2
* cell instance $493 r0 *1 591.92,539.28
X$493 194 164 149 165 63 61 195 gf180mcu_fd_sc_mcu9t5v0__aoi211_4
* cell instance $495 r0 *1 612.08,539.28
X$495 195 194 63 136 61 104 140 138 gf180mcu_fd_sc_mcu9t5v0__oai32_2
* cell instance $512 m0 *1 600.88,519.12
X$512 194 63 103 72 134 195 gf180mcu_fd_sc_mcu9t5v0__aoi21_4
* cell instance $531 m0 *1 545.44,519.12
X$531 195 83 194 84 115 68 gf180mcu_fd_sc_mcu9t5v0__oai21_2
* cell instance $535 r0 *1 553.84,519.12
X$535 118 194 100 69 195 130 gf180mcu_fd_sc_mcu9t5v0__or3_2
* cell instance $538 r0 *1 560,529.2
X$538 194 195 69 135 gf180mcu_fd_sc_mcu9t5v0__clkinv_2
* cell instance $541 m0 *1 601.44,509.04
X$541 194 71 70 195 72 gf180mcu_fd_sc_mcu9t5v0__or2_2
* cell instance $543 r0 *1 593.04,509.04
X$543 194 195 70 90 gf180mcu_fd_sc_mcu9t5v0__clkinv_2
* cell instance $546 m0 *1 607.04,509.04
X$546 194 195 73 71 70 gf180mcu_fd_sc_mcu9t5v0__nor2_2
* cell instance $549 r0 *1 612.08,498.96
X$549 194 195 70 76 74 gf180mcu_fd_sc_mcu9t5v0__nand2_2
* cell instance $560 r0 *1 603.68,519.12
X$560 195 103 72 194 121 gf180mcu_fd_sc_mcu9t5v0__and2_2
* cell instance $563 r0 *1 604.24,509.04
X$563 195 91 194 77 92 93 73 gf180mcu_fd_sc_mcu9t5v0__oai31_2
* cell instance $566 m0 *1 613.76,509.04
X$566 195 74 75 194 79 gf180mcu_fd_sc_mcu9t5v0__and2_2
* cell instance $577 r0 *1 615.44,509.04
X$577 80 195 194 92 93 76 gf180mcu_fd_sc_mcu9t5v0__nor3_2
* cell instance $582 r0 *1 623.84,509.04
X$582 194 95 89 195 94 77 gf180mcu_fd_sc_mcu9t5v0__nand3_2
* cell instance $584 m0 *1 619.92,519.12
X$584 89 94 117 77 194 195 104 gf180mcu_fd_sc_mcu9t5v0__and4_2
* cell instance $587 r0 *1 580.16,569.52
X$587 194 195 167 181 78 182 gf180mcu_fd_sc_mcu9t5v0__mux2_2
* cell instance $589 m0 *1 626.08,589.68
X$589 181 194 78 148 195 188 gf180mcu_fd_sc_mcu9t5v0__or3_2
* cell instance $591 m0 *1 587.44,559.44
X$591 169 194 78 148 195 170 gf180mcu_fd_sc_mcu9t5v0__or3_2
* cell instance $594 r0 *1 593.6,549.36
X$594 194 165 78 195 155 154 gf180mcu_fd_sc_mcu9t5v0__nand3_2
* cell instance $598 m0 *1 589.68,569.52
X$598 194 195 168 179 78 171 gf180mcu_fd_sc_mcu9t5v0__mux2_2
* cell instance $600 r0 *1 604.24,569.52
X$600 194 195 78 153 gf180mcu_fd_sc_mcu9t5v0__clkinv_4
* cell instance $603 r0 *1 619.36,569.52
X$603 194 105 139 182 179 78 171 181 195 gf180mcu_fd_sc_mcu9t5v0__mux4_2
* cell instance $605 r0 *1 613.2,579.6
X$605 171 194 78 148 195 189 gf180mcu_fd_sc_mcu9t5v0__or3_2
* cell instance $619 m0 *1 631.12,509.04
X$619 194 79 80 195 81 gf180mcu_fd_sc_mcu9t5v0__or2_2
* cell instance $623 r0 *1 626.64,519.12
X$623 195 105 194 138 79 96 80 gf180mcu_fd_sc_mcu9t5v0__oai31_2
* cell instance $633 r0 *1 632.24,509.04
X$633 194 96 195 99 95 81 gf180mcu_fd_sc_mcu9t5v0__aoi21_2
* cell instance $639 m0 *1 553.28,519.12
X$639 84 194 195 101 87 86 gf180mcu_fd_sc_mcu9t5v0__addh_1
* cell instance $644 r0 *1 548.8,519.12
X$644 194 195 84 85 gf180mcu_fd_sc_mcu9t5v0__clkinv_2
* cell instance $650 m0 *1 562.8,519.12
X$650 194 87 89 88 102 195 gf180mcu_fd_sc_mcu9t5v0__oai21_4
* cell instance $657 m0 *1 562.8,539.28
X$657 119 195 115 135 194 88 gf180mcu_fd_sc_mcu9t5v0__and3_2
* cell instance $672 r0 *1 591.92,579.6
X$672 194 91 195 181 148 179 153 171 182 gf180mcu_fd_sc_mcu9t5v0__mux4_4
* cell instance $676 r0 *1 608.72,519.12
X$676 194 195 91 134 gf180mcu_fd_sc_mcu9t5v0__clkinv_2
* cell instance $683 m0 *1 614.32,519.12
X$683 194 195 103 93 92 gf180mcu_fd_sc_mcu9t5v0__nor2_2
* cell instance $685 m0 *1 612.64,589.68
X$685 194 92 187 189 182 195 gf180mcu_fd_sc_mcu9t5v0__aoi21_4
* cell instance $691 r0 *1 614.88,559.44
X$691 195 180 186 194 93 gf180mcu_fd_sc_mcu9t5v0__and2_2
* cell instance $699 m0 *1 560.56,529.2
X$699 194 102 94 152 118 195 gf180mcu_fd_sc_mcu9t5v0__oai21_4
* cell instance $710 m0 *1 636.72,519.12
X$710 107 194 106 97 195 96 gf180mcu_fd_sc_mcu9t5v0__or3_2
* cell instance $718 m0 *1 628.88,519.12
X$718 117 195 194 106 107 97 gf180mcu_fd_sc_mcu9t5v0__nor3_2
* cell instance $723 m0 *1 893.76,519.12
X$723 194 113 98 195 gf180mcu_fd_sc_mcu9t5v0__dlyc_2
* cell instance $731 m0 *1 610.4,549.36
X$731 194 166 164 150 99 157 195 108 gf180mcu_fd_sc_mcu9t5v0__oai32_4
* cell instance $741 r0 *1 568.4,519.12
X$741 194 195 102 101 gf180mcu_fd_sc_mcu9t5v0__clkinv_2
* cell instance $745 m0 *1 575.12,529.2
X$745 194 101 195 131 120 119 gf180mcu_fd_sc_mcu9t5v0__aoi21_2
* cell instance $766 m0 *1 624.96,539.28
X$766 194 195 166 104 138 gf180mcu_fd_sc_mcu9t5v0__nor2_2
* cell instance $774 r0 *1 645.12,519.12
X$774 194 105 133 195 109 gf180mcu_fd_sc_mcu9t5v0__or2_2
* cell instance $780 r0 *1 622.16,579.6
X$780 194 106 188 187 182 171 195 gf180mcu_fd_sc_mcu9t5v0__aoi211_4
* cell instance $784 r0 *1 636.72,519.12
X$784 194 195 133 107 106 gf180mcu_fd_sc_mcu9t5v0__nor2_2
* cell instance $794 m0 *1 627.76,569.52
X$794 195 184 194 107 179 181 183 gf180mcu_fd_sc_mcu9t5v0__oai31_2
* cell instance $800 m0 *1 662.48,529.2
X$800 109 108 122 123 194 195 128 gf180mcu_fd_sc_mcu9t5v0__and4_2
* cell instance $803 m0 *1 661.92,539.28
X$803 194 108 195 147 123 122 gf180mcu_fd_sc_mcu9t5v0__aoi21_2
* cell instance $805 r0 *1 663.6,539.28
X$805 108 195 142 143 194 146 gf180mcu_fd_sc_mcu9t5v0__and3_2
* cell instance $807 m0 *1 661.92,549.36
X$807 194 108 195 162 143 142 gf180mcu_fd_sc_mcu9t5v0__aoi21_2
* cell instance $818 m0 *1 669.76,529.2
X$818 194 111 126 110 109 195 gf180mcu_fd_sc_mcu9t5v0__dffrnq_2
* cell instance $826 m0 *1 691.04,529.2
X$826 194 111 127 110 128 195 gf180mcu_fd_sc_mcu9t5v0__dffrnq_2
* cell instance $828 m0 *1 670.88,519.12
X$828 194 145 110 195 gf180mcu_fd_sc_mcu9t5v0__clkbuf_20
* cell instance $837 r0 *1 679.84,539.28
X$837 194 111 144 158 146 195 gf180mcu_fd_sc_mcu9t5v0__dffrnq_2
* cell instance $839 r0 *1 679.84,549.36
X$839 194 111 161 158 147 195 gf180mcu_fd_sc_mcu9t5v0__dffrnq_2
* cell instance $841 m0 *1 683.76,549.36
X$841 194 111 159 158 162 195 gf180mcu_fd_sc_mcu9t5v0__dffrnq_2
* cell instance $846 m0 *1 705.6,519.12
X$846 194 195 113 111 gf180mcu_fd_sc_mcu9t5v0__clkbuf_3
* cell instance $856 m0 *1 678.72,539.28
X$856 194 112 145 195 gf180mcu_fd_sc_mcu9t5v0__clkbuf_20
* cell instance $870 m0 *1 558.88,559.44
X$870 194 178 195 176 135 115 gf180mcu_fd_sc_mcu9t5v0__aoi21_2
* cell instance $872 r0 *1 560,549.36
X$872 194 135 195 115 152 163 151 gf180mcu_fd_sc_mcu9t5v0__aoi22_2
* cell instance $886 r0 *1 565.04,559.44
X$886 194 118 195 178 153 169 139 180 177 gf180mcu_fd_sc_mcu9t5v0__mux4_4
* cell instance $892 m0 *1 577.92,579.6
X$892 194 119 195 179 153 171 139 181 182 gf180mcu_fd_sc_mcu9t5v0__mux4_4
* cell instance $898 m0 *1 578.48,539.28
X$898 194 195 119 136 120 gf180mcu_fd_sc_mcu9t5v0__nand2_2
* cell instance $913 m0 *1 603.12,539.28
X$913 194 156 195 150 132 121 gf180mcu_fd_sc_mcu9t5v0__aoi21_2
* cell instance $916 m0 *1 652.4,539.28
X$916 194 139 141 195 122 gf180mcu_fd_sc_mcu9t5v0__or2_2
* cell instance $923 r0 *1 650.16,539.28
X$923 194 195 139 123 140 gf180mcu_fd_sc_mcu9t5v0__nand2_2
* cell instance $933 m0 *1 1048.32,529.2
X$933 127 195 194 124 gf180mcu_fd_sc_mcu9t5v0__dlyb_2
* cell instance $936 m0 *1 1069.6,529.2
X$936 126 195 194 125 gf180mcu_fd_sc_mcu9t5v0__dlyb_2
* cell instance $985 r0 *1 586.88,539.28
X$985 195 168 136 194 137 gf180mcu_fd_sc_mcu9t5v0__and2_2
* cell instance $1000 m0 *1 577.36,559.44
X$1000 177 194 139 176 195 154 gf180mcu_fd_sc_mcu9t5v0__or3_2
* cell instance $1004 m0 *1 613.2,579.6
X$1004 179 194 153 139 195 187 gf180mcu_fd_sc_mcu9t5v0__or3_2
* cell instance $1011 r0 *1 568.96,549.36
X$1011 194 195 139 163 167 gf180mcu_fd_sc_mcu9t5v0__nand2_2
* cell instance $1022 m0 *1 650.72,549.36
X$1022 194 148 140 195 143 gf180mcu_fd_sc_mcu9t5v0__or2_2
* cell instance $1029 r0 *1 657.44,539.28
X$1029 194 195 148 142 141 gf180mcu_fd_sc_mcu9t5v0__nand2_2
* cell instance $1048 m0 *1 1048.32,559.44
X$1048 144 195 194 173 gf180mcu_fd_sc_mcu9t5v0__dlyb_2
* cell instance $1051 m0 *1 684.32,559.44
X$1051 194 145 158 195 gf180mcu_fd_sc_mcu9t5v0__clkbuf_20
* cell instance $1074 r0 *1 576.24,549.36
X$1074 194 195 168 151 148 gf180mcu_fd_sc_mcu9t5v0__nand2_2
* cell instance $1077 m0 *1 613.76,569.52
X$1077 182 195 153 148 194 175 gf180mcu_fd_sc_mcu9t5v0__and3_2
* cell instance $1079 r0 *1 598.64,559.44
X$1079 194 195 155 179 148 181 gf180mcu_fd_sc_mcu9t5v0__mux2_2
* cell instance $1112 r0 *1 600.88,549.36
X$1112 194 195 153 156 155 gf180mcu_fd_sc_mcu9t5v0__nand2_2
* cell instance $1140 r0 *1 623.28,549.36
X$1140 194 195 157 175 174 gf180mcu_fd_sc_mcu9t5v0__nor2_2
* cell instance $1142 m0 *1 682.08,559.44
X$1142 194 195 158 gf180mcu_fd_sc_mcu9t5v0__clkinv_1
* cell instance $1152 r0 *1 1048.32,559.44
X$1152 159 195 194 185 gf180mcu_fd_sc_mcu9t5v0__dlyb_2
* cell instance $1157 r0 *1 1048.32,549.36
X$1157 161 195 194 160 gf180mcu_fd_sc_mcu9t5v0__dlyb_2
* cell instance $1198 m0 *1 623.28,559.44
X$1198 194 195 174 169 172 gf180mcu_fd_sc_mcu9t5v0__nor2_2
* cell instance $1200 r0 *1 594.16,559.44
X$1200 194 195 171 169 gf180mcu_fd_sc_mcu9t5v0__clkinv_2
* cell instance $1221 r0 *1 580.72,1073.52
X$1221 194 195 192 171 gf180mcu_fd_sc_mcu9t5v0__buf_4
* cell instance $1229 r0 *1 621.04,559.44
X$1229 195 183 194 172 186 179 gf180mcu_fd_sc_mcu9t5v0__oai21_2
* cell instance $1235 m0 *1 619.92,569.52
X$1235 182 181 179 172 195 194 184 gf180mcu_fd_sc_mcu9t5v0__or4_2
* cell instance $1253 m0 *1 583.52,569.52
X$1253 194 195 182 177 gf180mcu_fd_sc_mcu9t5v0__clkinv_2
* cell instance $1259 r0 *1 560.56,559.44
X$1259 194 195 179 178 gf180mcu_fd_sc_mcu9t5v0__clkinv_2
* cell instance $1277 m0 *1 588,1073.52
X$1277 194 195 193 179 gf180mcu_fd_sc_mcu9t5v0__buf_4
* cell instance $1296 r0 *1 590.24,559.44
X$1296 194 195 181 180 gf180mcu_fd_sc_mcu9t5v0__clkinv_2
* cell instance $1311 r0 *1 586.88,1063.44
X$1311 194 195 190 181 gf180mcu_fd_sc_mcu9t5v0__buf_4
* cell instance $1331 r0 *1 600.32,1073.52
X$1331 194 191 182 195 gf180mcu_fd_sc_mcu9t5v0__clkbuf_8
.ENDS fair_priority_arbiter

* cell gf180mcu_fd_sc_mcu9t5v0__buf_3
* pin I
* pin NWELL,VDD
* pin PWELL,VSS,gf180mcu_gnd
* pin Z
.SUBCKT gf180mcu_fd_sc_mcu9t5v0__buf_3 1 2 3 5
* net 1 I
* net 2 NWELL,VDD
* net 3 PWELL,VSS,gf180mcu_gnd
* net 5 Z
* device instance $1 r0 *1 0.87,3.78 pmos_5p0
M$1 2 1 4 2 pmos_5p0 L=0.5U W=1.83U AS=0.8052P AD=0.74115P PS=4.54U PD=2.64U
* device instance $2 r0 *1 2.18,3.78 pmos_5p0
M$2 5 4 2 2 pmos_5p0 L=0.5U W=5.49U AS=1.87575P AD=1.9398P PS=7.54U PD=9.44U
* device instance $5 r0 *1 0.92,1.005 nmos_5p0
M$5 3 1 4 3 nmos_5p0 L=0.6U W=1.32U AS=0.5808P AD=0.4686P PS=3.52U PD=2.03U
* device instance $6 r0 *1 2.23,1.005 nmos_5p0
M$6 5 4 3 3 nmos_5p0 L=0.6U W=3.96U AS=1.155P AD=1.2672P PS=5.71U PD=7.2U
.ENDS gf180mcu_fd_sc_mcu9t5v0__buf_3

* cell gf180mcu_fd_sc_mcu9t5v0__aoi222_2
* pin PWELL,VSS,gf180mcu_gnd
* pin ZN
* pin C2
* pin B2
* pin B1
* pin A2
* pin C1
* pin A1
* pin NWELL,VDD
.SUBCKT gf180mcu_fd_sc_mcu9t5v0__aoi222_2 1 2 3 4 5 6 13 14 15
* net 1 PWELL,VSS,gf180mcu_gnd
* net 2 ZN
* net 3 C2
* net 4 B2
* net 5 B1
* net 6 A2
* net 13 C1
* net 14 A1
* net 15 NWELL,VDD
* device instance $1 r0 *1 0.905,3.78 pmos_5p0
M$1 16 13 15 15 pmos_5p0 L=0.5U W=3.66U AS=1.281P AD=1.281P PS=6.89U PD=6.89U
* device instance $2 r0 *1 1.925,3.78 pmos_5p0
M$2 15 3 16 15 pmos_5p0 L=0.5U W=3.66U AS=0.9516P AD=0.9516P PS=4.7U PD=4.7U
* device instance $5 r0 *1 5.705,3.78 pmos_5p0
M$5 16 5 17 15 pmos_5p0 L=0.5U W=3.66U AS=1.281P AD=0.965325P PS=6.89U PD=4.715U
* device instance $6 r0 *1 6.725,3.78 pmos_5p0
M$6 17 4 16 15 pmos_5p0 L=0.5U W=3.66U AS=0.9516P AD=0.9516P PS=4.7U PD=4.7U
* device instance $9 r0 *1 9.8,3.78 pmos_5p0
M$9 2 14 17 15 pmos_5p0 L=0.5U W=3.66U AS=0.965325P AD=1.281P PS=4.715U PD=6.89U
* device instance $10 r0 *1 10.82,3.78 pmos_5p0
M$10 17 6 2 15 pmos_5p0 L=0.5U W=3.66U AS=0.9516P AD=0.9516P PS=4.7U PD=4.7U
* device instance $13 r0 *1 0.955,1.005 nmos_5p0
M$13 7 13 2 1 nmos_5p0 L=0.6U W=1.32U AS=0.5808P AD=0.2112P PS=3.52U PD=1.64U
* device instance $14 r0 *1 1.875,1.005 nmos_5p0
M$14 1 3 7 1 nmos_5p0 L=0.6U W=1.32U AS=0.2112P AD=0.3432P PS=1.64U PD=1.84U
* device instance $15 r0 *1 2.995,1.005 nmos_5p0
M$15 9 3 1 1 nmos_5p0 L=0.6U W=1.32U AS=0.3432P AD=0.2112P PS=1.84U PD=1.64U
* device instance $16 r0 *1 3.915,1.005 nmos_5p0
M$16 2 13 9 1 nmos_5p0 L=0.6U W=1.32U AS=0.2112P AD=0.7524P PS=1.64U PD=2.46U
* device instance $17 r0 *1 5.655,1.005 nmos_5p0
M$17 10 5 2 1 nmos_5p0 L=0.6U W=1.32U AS=0.7524P AD=0.2772P PS=2.46U PD=1.74U
* device instance $18 r0 *1 6.675,1.005 nmos_5p0
M$18 1 4 10 1 nmos_5p0 L=0.6U W=1.32U AS=0.2772P AD=0.3432P PS=1.74U PD=1.84U
* device instance $19 r0 *1 7.795,1.005 nmos_5p0
M$19 11 4 1 1 nmos_5p0 L=0.6U W=1.32U AS=0.3432P AD=0.2112P PS=1.84U PD=1.64U
* device instance $20 r0 *1 8.715,1.005 nmos_5p0
M$20 2 5 11 1 nmos_5p0 L=0.6U W=1.32U AS=0.2112P AD=0.3531P PS=1.64U PD=1.855U
* device instance $21 r0 *1 9.85,1.005 nmos_5p0
M$21 12 14 2 1 nmos_5p0 L=0.6U W=1.32U AS=0.3531P AD=0.2112P PS=1.855U PD=1.64U
* device instance $22 r0 *1 10.77,1.005 nmos_5p0
M$22 1 6 12 1 nmos_5p0 L=0.6U W=1.32U AS=0.2112P AD=0.3432P PS=1.64U PD=1.84U
* device instance $23 r0 *1 11.89,1.005 nmos_5p0
M$23 8 6 1 1 nmos_5p0 L=0.6U W=1.32U AS=0.3432P AD=0.2112P PS=1.84U PD=1.64U
* device instance $24 r0 *1 12.81,1.005 nmos_5p0
M$24 2 14 8 1 nmos_5p0 L=0.6U W=1.32U AS=0.2112P AD=0.5808P PS=1.64U PD=3.52U
.ENDS gf180mcu_fd_sc_mcu9t5v0__aoi222_2

* cell gf180mcu_fd_sc_mcu9t5v0__addh_1
* pin CO
* pin PWELL,VSS,gf180mcu_gnd
* pin NWELL,VDD
* pin A
* pin B
* pin S
.SUBCKT gf180mcu_fd_sc_mcu9t5v0__addh_1 1 2 3 4 5 9
* net 1 CO
* net 2 PWELL,VSS,gf180mcu_gnd
* net 3 NWELL,VDD
* net 4 A
* net 5 B
* net 9 S
* device instance $1 r0 *1 5.01,3.912 pmos_5p0
M$1 11 5 3 3 pmos_5p0 L=0.5U W=0.915U AS=0.4026P AD=0.2379P PS=2.71U PD=1.435U
* device instance $2 r0 *1 6.03,3.912 pmos_5p0
M$2 8 4 11 3 pmos_5p0 L=0.5U W=0.915U AS=0.2379P AD=0.3294P PS=1.435U PD=1.635U
* device instance $3 r0 *1 7.25,3.912 pmos_5p0
M$3 8 6 3 3 pmos_5p0 L=0.5U W=0.915U AS=0.50325P AD=0.3294P PS=2.53U PD=1.635U
* device instance $4 r0 *1 8.45,3.78 pmos_5p0
M$4 9 8 3 3 pmos_5p0 L=0.5U W=1.83U AS=0.50325P AD=0.8052P PS=2.53U PD=4.54U
* device instance $5 r0 *1 2.23,3.912 pmos_5p0
M$5 6 4 3 3 pmos_5p0 L=0.5U W=0.915U AS=0.5307P AD=0.2379P PS=2.59U PD=1.435U
* device instance $6 r0 *1 3.25,3.912 pmos_5p0
M$6 3 5 6 3 pmos_5p0 L=0.5U W=0.915U AS=0.2379P AD=0.4026P PS=1.435U PD=2.71U
* device instance $7 r0 *1 0.97,3.78 pmos_5p0
M$7 3 6 1 3 pmos_5p0 L=0.5U W=1.83U AS=0.8052P AD=0.5307P PS=4.54U PD=2.59U
* device instance $8 r0 *1 4.96,1.335 nmos_5p0
M$8 8 5 7 2 nmos_5p0 L=0.6U W=0.66U AS=0.2904P AD=0.1716P PS=2.2U PD=1.18U
* device instance $9 r0 *1 6.08,1.335 nmos_5p0
M$9 7 4 8 2 nmos_5p0 L=0.6U W=0.66U AS=0.1716P AD=0.1716P PS=1.18U PD=1.18U
* device instance $10 r0 *1 7.2,1.335 nmos_5p0
M$10 7 6 2 2 nmos_5p0 L=0.6U W=0.66U AS=0.363P AD=0.1716P PS=2.02U PD=1.18U
* device instance $11 r0 *1 8.5,1.005 nmos_5p0
M$11 9 8 2 2 nmos_5p0 L=0.6U W=1.32U AS=0.363P AD=0.5808P PS=2.02U PD=3.52U
* device instance $12 r0 *1 0.92,1.005 nmos_5p0
M$12 2 6 1 2 nmos_5p0 L=0.6U W=1.32U AS=0.5808P AD=0.3828P PS=3.52U PD=2.08U
* device instance $13 r0 *1 2.28,1.335 nmos_5p0
M$13 10 4 2 2 nmos_5p0 L=0.6U W=0.66U AS=0.3828P AD=0.0792P PS=2.08U PD=0.9U
* device instance $14 r0 *1 3.12,1.335 nmos_5p0
M$14 6 5 10 2 nmos_5p0 L=0.6U W=0.66U AS=0.0792P AD=0.2904P PS=0.9U PD=2.2U
.ENDS gf180mcu_fd_sc_mcu9t5v0__addh_1

* cell gf180mcu_fd_sc_mcu9t5v0__oai21_4
* pin PWELL,VSS,gf180mcu_gnd
* pin B
* pin ZN
* pin A2
* pin A1
* pin NWELL,VDD
.SUBCKT gf180mcu_fd_sc_mcu9t5v0__oai21_4 1 2 4 5 6 7
* net 1 PWELL,VSS,gf180mcu_gnd
* net 2 B
* net 4 ZN
* net 5 A2
* net 6 A1
* net 7 NWELL,VDD
* device instance $1 r0 *1 0.97,3.78 pmos_5p0
M$1 8 5 7 7 pmos_5p0 L=0.5U W=1.83U AS=0.8052P AD=0.5673P PS=4.54U PD=2.45U
* device instance $2 r0 *1 2.09,3.78 pmos_5p0
M$2 4 6 8 7 pmos_5p0 L=0.5U W=1.83U AS=0.5673P AD=0.52155P PS=2.45U PD=2.4U
* device instance $3 r0 *1 3.16,3.78 pmos_5p0
M$3 10 6 4 7 pmos_5p0 L=0.5U W=1.83U AS=0.52155P AD=0.5673P PS=2.4U PD=2.45U
* device instance $4 r0 *1 4.28,3.78 pmos_5p0
M$4 7 5 10 7 pmos_5p0 L=0.5U W=1.83U AS=0.5673P AD=0.5673P PS=2.45U PD=2.45U
* device instance $5 r0 *1 5.4,3.78 pmos_5p0
M$5 9 5 7 7 pmos_5p0 L=0.5U W=1.83U AS=0.5673P AD=0.5673P PS=2.45U PD=2.45U
* device instance $6 r0 *1 6.52,3.78 pmos_5p0
M$6 4 6 9 7 pmos_5p0 L=0.5U W=1.83U AS=0.5673P AD=0.5673P PS=2.45U PD=2.45U
* device instance $7 r0 *1 7.64,3.78 pmos_5p0
M$7 11 6 4 7 pmos_5p0 L=0.5U W=1.83U AS=0.5673P AD=0.52155P PS=2.45U PD=2.4U
* device instance $8 r0 *1 8.71,3.78 pmos_5p0
M$8 7 5 11 7 pmos_5p0 L=0.5U W=1.83U AS=0.52155P AD=0.6292P PS=2.4U PD=2.55U
* device instance $9 r0 *1 9.93,3.872 pmos_5p0
M$9 4 2 7 7 pmos_5p0 L=0.5U W=6.58U AS=2.117925P AD=2.212525P PS=9.295U
+ PD=10.915U
* device instance $13 r0 *1 0.92,1.005 nmos_5p0
M$13 4 5 3 1 nmos_5p0 L=0.6U W=5.28U AS=1.6104P AD=1.3728P PS=9.04U PD=7.36U
* device instance $14 r0 *1 2.04,1.005 nmos_5p0
M$14 3 6 4 1 nmos_5p0 L=0.6U W=5.28U AS=1.3728P AD=1.3728P PS=7.36U PD=7.36U
* device instance $21 r0 *1 9.88,1.005 nmos_5p0
M$21 1 2 3 1 nmos_5p0 L=0.6U W=5.28U AS=1.3728P AD=1.6104P PS=7.36U PD=9.04U
.ENDS gf180mcu_fd_sc_mcu9t5v0__oai21_4

* cell gf180mcu_fd_sc_mcu9t5v0__nand2_4
* pin NWELL,VDD
* pin PWELL,VSS,gf180mcu_gnd
* pin A2
* pin ZN
* pin A1
.SUBCKT gf180mcu_fd_sc_mcu9t5v0__nand2_4 1 2 3 4 5
* net 1 NWELL,VDD
* net 2 PWELL,VSS,gf180mcu_gnd
* net 3 A2
* net 4 ZN
* net 5 A1
* device instance $1 r0 *1 0.87,3.687 pmos_5p0
M$1 4 3 1 1 pmos_5p0 L=0.5U W=6.58U AS=2.0069P AD=2.0069P PS=10.665U PD=10.665U
* device instance $2 r0 *1 1.89,3.687 pmos_5p0
M$2 1 5 4 1 pmos_5p0 L=0.5U W=6.58U AS=1.7108P AD=1.7108P PS=8.66U PD=8.66U
* device instance $9 r0 *1 1,1.005 nmos_5p0
M$9 9 3 2 2 nmos_5p0 L=0.6U W=1.32U AS=0.5808P AD=0.1584P PS=3.52U PD=1.56U
* device instance $10 r0 *1 1.84,1.005 nmos_5p0
M$10 4 5 9 2 nmos_5p0 L=0.6U W=1.32U AS=0.1584P AD=0.3729P PS=1.56U PD=1.885U
* device instance $11 r0 *1 3.005,1.005 nmos_5p0
M$11 8 5 4 2 nmos_5p0 L=0.6U W=1.32U AS=0.3729P AD=0.1584P PS=1.885U PD=1.56U
* device instance $12 r0 *1 3.845,1.005 nmos_5p0
M$12 2 3 8 2 nmos_5p0 L=0.6U W=1.32U AS=0.1584P AD=0.3663P PS=1.56U PD=1.875U
* device instance $13 r0 *1 5,1.005 nmos_5p0
M$13 7 3 2 2 nmos_5p0 L=0.6U W=1.32U AS=0.3663P AD=0.2112P PS=1.875U PD=1.64U
* device instance $14 r0 *1 5.92,1.005 nmos_5p0
M$14 4 5 7 2 nmos_5p0 L=0.6U W=1.32U AS=0.2112P AD=0.3432P PS=1.64U PD=1.84U
* device instance $15 r0 *1 7.04,1.005 nmos_5p0
M$15 6 5 4 2 nmos_5p0 L=0.6U W=1.32U AS=0.3432P AD=0.2112P PS=1.84U PD=1.64U
* device instance $16 r0 *1 7.96,1.005 nmos_5p0
M$16 2 3 6 2 nmos_5p0 L=0.6U W=1.32U AS=0.2112P AD=0.5808P PS=1.64U PD=3.52U
.ENDS gf180mcu_fd_sc_mcu9t5v0__nand2_4

* cell gf180mcu_fd_sc_mcu9t5v0__clkinv_3
* pin PWELL,VSS,gf180mcu_gnd
* pin NWELL,VDD
* pin I
* pin ZN
.SUBCKT gf180mcu_fd_sc_mcu9t5v0__clkinv_3 1 2 3 4
* net 1 PWELL,VSS,gf180mcu_gnd
* net 2 NWELL,VDD
* net 3 I
* net 4 ZN
* device instance $1 r0 *1 0.87,3.78 pmos_5p0
M$1 4 3 2 2 pmos_5p0 L=0.5U W=5.49U AS=1.9398P AD=1.9398P PS=9.44U PD=9.44U
* device instance $4 r0 *1 0.92,0.995 nmos_5p0
M$4 4 3 1 1 nmos_5p0 L=0.6U W=2.19U AS=0.7008P AD=0.7008P PS=4.84U PD=4.84U
.ENDS gf180mcu_fd_sc_mcu9t5v0__clkinv_3

* cell gf180mcu_fd_sc_mcu9t5v0__inv_3
* pin PWELL,VSS,gf180mcu_gnd
* pin NWELL,VDD
* pin I
* pin ZN
.SUBCKT gf180mcu_fd_sc_mcu9t5v0__inv_3 1 2 3 4
* net 1 PWELL,VSS,gf180mcu_gnd
* net 2 NWELL,VDD
* net 3 I
* net 4 ZN
* device instance $1 r0 *1 0.87,3.78 pmos_5p0
M$1 4 3 2 2 pmos_5p0 L=0.5U W=5.49U AS=1.9398P AD=1.9398P PS=9.44U PD=9.44U
* device instance $4 r0 *1 0.92,1.005 nmos_5p0
M$4 4 3 1 1 nmos_5p0 L=0.6U W=3.96U AS=1.2672P AD=1.2672P PS=7.2U PD=7.2U
.ENDS gf180mcu_fd_sc_mcu9t5v0__inv_3

* cell gf180mcu_fd_sc_mcu9t5v0__and4_2
* pin A1
* pin A2
* pin A3
* pin A4
* pin PWELL,VSS,gf180mcu_gnd
* pin NWELL,VDD
* pin Z
.SUBCKT gf180mcu_fd_sc_mcu9t5v0__and4_2 1 2 3 4 5 6 8
* net 1 A1
* net 2 A2
* net 3 A3
* net 4 A4
* net 5 PWELL,VSS,gf180mcu_gnd
* net 6 NWELL,VDD
* net 8 Z
* device instance $1 r0 *1 0.925,4.055 pmos_5p0
M$1 7 1 6 6 pmos_5p0 L=0.5U W=1.28U AS=0.5632P AD=0.3328P PS=3.44U PD=1.8U
* device instance $2 r0 *1 1.945,4.055 pmos_5p0
M$2 6 2 7 6 pmos_5p0 L=0.5U W=1.28U AS=0.3328P AD=0.3328P PS=1.8U PD=1.8U
* device instance $3 r0 *1 2.965,4.055 pmos_5p0
M$3 7 3 6 6 pmos_5p0 L=0.5U W=1.28U AS=0.3328P AD=0.3328P PS=1.8U PD=1.8U
* device instance $4 r0 *1 3.985,4.055 pmos_5p0
M$4 7 4 6 6 pmos_5p0 L=0.5U W=1.28U AS=0.558P AD=0.3328P PS=2.53U PD=1.8U
* device instance $5 r0 *1 5.185,3.78 pmos_5p0
M$5 8 7 6 6 pmos_5p0 L=0.5U W=3.66U AS=1.0338P AD=1.281P PS=4.88U PD=6.89U
* device instance $7 r0 *1 0.975,1.005 nmos_5p0
M$7 11 1 7 5 nmos_5p0 L=0.6U W=1.32U AS=0.5808P AD=0.2112P PS=3.52U PD=1.64U
* device instance $8 r0 *1 1.895,1.005 nmos_5p0
M$8 10 2 11 5 nmos_5p0 L=0.6U W=1.32U AS=0.2112P AD=0.2772P PS=1.64U PD=1.74U
* device instance $9 r0 *1 2.915,1.005 nmos_5p0
M$9 9 3 10 5 nmos_5p0 L=0.6U W=1.32U AS=0.2772P AD=0.2772P PS=1.74U PD=1.74U
* device instance $10 r0 *1 3.935,1.005 nmos_5p0
M$10 5 4 9 5 nmos_5p0 L=0.6U W=1.32U AS=0.2772P AD=0.3432P PS=1.74U PD=1.84U
* device instance $11 r0 *1 5.055,1.005 nmos_5p0
M$11 8 7 5 5 nmos_5p0 L=0.6U W=2.64U AS=0.6864P AD=0.924P PS=3.68U PD=5.36U
.ENDS gf180mcu_fd_sc_mcu9t5v0__and4_2

* cell gf180mcu_fd_sc_mcu9t5v0__nor3_2
* pin ZN
* pin NWELL,VDD
* pin PWELL,VSS,gf180mcu_gnd
* pin A2
* pin A1
* pin A3
.SUBCKT gf180mcu_fd_sc_mcu9t5v0__nor3_2 1 2 3 4 5 6