* CDL Netlist generated by OpenROAD

*.BUSDELIMITER [

.SUBCKT fair_priority_arbiter clk grant[0] grant[1] grant[2]
+ grant[3] grant_idx[0] grant_idx[1] priorities[0] priorities[1]
+ priorities[2] priorities[3] priorities[4] priorities[5] priorities[6]
+ priorities[7] request[0] request[1] request[2] request[3]
+ rst_n valid
X_155_ net6 _131_ _143_ net4 _076_ VDD VSS gf180mcu_fd_sc_mcu9t5v0__aoi22_2
X_156_ net8 _139_ _077_ VDD VSS gf180mcu_fd_sc_mcu9t5v0__nand2_2
X_157_ _076_ _077_ _078_ VDD VSS gf180mcu_fd_sc_mcu9t5v0__nand2_2
X_158_ _078_ net2 _137_ _079_ VDD VSS gf180mcu_fd_sc_mcu9t5v0__mux2_2
X_159_ _079_ _126_ VDD VSS gf180mcu_fd_sc_mcu9t5v0__clkinv_2
X_160_ net11 net13 _132_ _080_ VDD VSS gf180mcu_fd_sc_mcu9t5v0__mux2_2
X_161_ net10 net12 _132_ _081_ VDD VSS gf180mcu_fd_sc_mcu9t5v0__mux2_2
X_162_ _145_ net18 _082_ VDD VSS gf180mcu_fd_sc_mcu9t5v0__or2_4
X_163_ _080_ _081_ _082_ _083_ VDD VSS gf180mcu_fd_sc_mcu9t5v0__mux2_2
X_164_ net9 _135_ _139_ net7 net5 _131_ _084_ VDD VSS gf180mcu_fd_sc_mcu9t5v0__aoi222_2
X_165_ _084_ _085_ VDD VSS gf180mcu_fd_sc_mcu9t5v0__clkinv_2
X_166_ _085_ net3 _145_ _086_ VDD VSS gf180mcu_fd_sc_mcu9t5v0__mux2_2
X_167_ _083_ _086_ _122_ VDD VSS gf180mcu_fd_sc_mcu9t5v0__nand2_2
X_168_ net9 _133_ _135_ net5 _143_ net7 _087_ VDD VSS gf180mcu_fd_sc_mcu9t5v0__aoi222_2
X_169_ net3 _088_ VDD VSS gf180mcu_fd_sc_mcu9t5v0__clkinv_2
X_170_ _087_ _088_ _141_ _147_ VDD VSS gf180mcu_fd_sc_mcu9t5v0__mux2_2
X_171_ net7 _135_ _139_ net5 _143_ net9 _089_ VDD VSS gf180mcu_fd_sc_mcu9t5v0__aoi222_2
X_172_ _089_ _088_ _133_ _151_ VDD VSS gf180mcu_fd_sc_mcu9t5v0__mux2_2
X_173_ net10 net12 net13 net11 _132_ _082_ _090_ VDD VSS gf180mcu_fd_sc_mcu9t5v0__mux4_2
X_174_ net11 _145_ net18 _132_ _091_ VDD VSS gf180mcu_fd_sc_mcu9t5v0__or4_2
X_175_ _145_ net18 _132_ _092_ VDD VSS gf180mcu_fd_sc_mcu9t5v0__oai21_2
X_176_ net10 net12 net13 _092_ _093_ VDD VSS gf180mcu_fd_sc_mcu9t5v0__or4_2
X_177_ net12 net13 _091_ _093_ _094_ VDD VSS gf180mcu_fd_sc_mcu9t5v0__oai31_2
X_178_ _132_ _095_ VDD VSS gf180mcu_fd_sc_mcu9t5v0__clkinv_4
X_179_ net13 _095_ _082_ _096_ VDD VSS gf180mcu_fd_sc_mcu9t5v0__or3_2
X_180_ _145_ net18 _097_ VDD VSS gf180mcu_fd_sc_mcu9t5v0__nor2_4
X_181_ net12 _132_ _097_ _098_ VDD VSS gf180mcu_fd_sc_mcu9t5v0__or3_2
X_182_ _096_ _098_ net10 net11 _099_ VDD VSS gf180mcu_fd_sc_mcu9t5v0__aoi211_4
X_183_ _094_ _099_ _100_ VDD VSS gf180mcu_fd_sc_mcu9t5v0__nor2_2
X_184_ _090_ _100_ _004_ VDD VSS gf180mcu_fd_sc_mcu9t5v0__or2_2
X_185_ net12 _101_ VDD VSS gf180mcu_fd_sc_mcu9t5v0__clkinv_2
X_186_ net13 _092_ _091_ _102_ VDD VSS gf180mcu_fd_sc_mcu9t5v0__oai21_2
X_187_ _101_ _102_ _103_ VDD VSS gf180mcu_fd_sc_mcu9t5v0__and2_2
X_188_ net11 _132_ _097_ _104_ VDD VSS gf180mcu_fd_sc_mcu9t5v0__or3_2
X_189_ _096_ _104_ net10 _105_ VDD VSS gf180mcu_fd_sc_mcu9t5v0__aoi21_4
X_190_ _103_ _105_ _106_ VDD VSS gf180mcu_fd_sc_mcu9t5v0__nor2_2
X_191_ _150_ _149_ _107_ VDD VSS gf180mcu_fd_sc_mcu9t5v0__or2_2
X_192_ _106_ _107_ _108_ VDD VSS gf180mcu_fd_sc_mcu9t5v0__and2_2
X_193_ net2 _109_ VDD VSS gf180mcu_fd_sc_mcu9t5v0__inv_2
X_194_ net4 _131_ _139_ net6 _110_ VDD VSS gf180mcu_fd_sc_mcu9t5v0__aoi22_2
X_195_ net8 _135_ _145_ _111_ VDD VSS gf180mcu_fd_sc_mcu9t5v0__aoi21_2
X_196_ _145_ _109_ _110_ _111_ _112_ VDD VSS gf180mcu_fd_sc_mcu9t5v0__aoi22_2
X_197_ _083_ _112_ _113_ VDD VSS gf180mcu_fd_sc_mcu9t5v0__nand2_4
X_198_ _113_ _125_ VDD VSS gf180mcu_fd_sc_mcu9t5v0__clkinv_2
X_199_ net10 _114_ VDD VSS gf180mcu_fd_sc_mcu9t5v0__clkinv_2
X_200_ net13 _115_ VDD VSS gf180mcu_fd_sc_mcu9t5v0__clkinv_2
X_201_ net11 _116_ VDD VSS gf180mcu_fd_sc_mcu9t5v0__clkinv_2
X_202_ _114_ _101_ _115_ _116_ _095_ _082_ _117_ VDD VSS gf180mcu_fd_sc_mcu9t5v0__mux4_4
X_203_ _127_ _118_ VDD VSS gf180mcu_fd_sc_mcu9t5v0__clkinv_2
X_204_ _124_ _118_ _123_ _119_ VDD VSS gf180mcu_fd_sc_mcu9t5v0__aoi21_2
X_205_ _124_ _128_ _120_ VDD VSS gf180mcu_fd_sc_mcu9t5v0__and2_2
X_206_ _117_ _119_ _120_ _007_ VDD VSS gf180mcu_fd_sc_mcu9t5v0__or3_2
X_207_ _125_ _007_ _079_ _008_ VDD VSS gf180mcu_fd_sc_mcu9t5v0__aoi21_2
X_208_ net10 net12 net13 net11 _095_ _082_ _009_ VDD VSS gf180mcu_fd_sc_mcu9t5v0__mux4_4
X_209_ _119_ _120_ _083_ _010_ VDD VSS gf180mcu_fd_sc_mcu9t5v0__oai21_2
X_210_ _009_ _010_ _125_ _011_ VDD VSS gf180mcu_fd_sc_mcu9t5v0__aoi21_2
X_211_ net8 _133_ _135_ net4 _012_ VDD VSS gf180mcu_fd_sc_mcu9t5v0__aoi22_2
X_212_ net6 _143_ _141_ _013_ VDD VSS gf180mcu_fd_sc_mcu9t5v0__aoi21_2
X_213_ _109_ _141_ _012_ _013_ _014_ VDD VSS gf180mcu_fd_sc_mcu9t5v0__aoi22_2
X_214_ _149_ _015_ VDD VSS gf180mcu_fd_sc_mcu9t5v0__clkinv_2
X_215_ _008_ _011_ _014_ _015_ _016_ VDD VSS gf180mcu_fd_sc_mcu9t5v0__oai211_2
X_216_ net12 net13 _097_ _017_ VDD VSS gf180mcu_fd_sc_mcu9t5v0__mux2_2
X_217_ _095_ _017_ _018_ VDD VSS gf180mcu_fd_sc_mcu9t5v0__nand2_2
X_218_ _108_ _016_ _018_ _019_ VDD VSS gf180mcu_fd_sc_mcu9t5v0__aoi21_2
X_219_ _124_ _020_ VDD VSS gf180mcu_fd_sc_mcu9t5v0__clkinv_2
X_220_ _123_ _021_ VDD VSS gf180mcu_fd_sc_mcu9t5v0__clkinv_2
X_221_ _020_ _127_ _021_ _022_ VDD VSS gf180mcu_fd_sc_mcu9t5v0__oai21_2
X_222_ _120_ _023_ VDD VSS gf180mcu_fd_sc_mcu9t5v0__clkinv_2
X_223_ _009_ _022_ _023_ _024_ VDD VSS gf180mcu_fd_sc_mcu9t5v0__and3_2
X_224_ _113_ _024_ _126_ _025_ VDD VSS gf180mcu_fd_sc_mcu9t5v0__oai21_4
X_225_ _080_ _097_ _026_ VDD VSS gf180mcu_fd_sc_mcu9t5v0__nand2_2
X_226_ _082_ _081_ _027_ VDD VSS gf180mcu_fd_sc_mcu9t5v0__nand2_2
X_227_ _026_ _027_ _022_ _023_ _028_ VDD VSS gf180mcu_fd_sc_mcu9t5v0__aoi22_2
X_228_ _117_ _028_ _113_ _029_ VDD VSS gf180mcu_fd_sc_mcu9t5v0__oai21_4
X_229_ _154_ _153_ _030_ VDD VSS gf180mcu_fd_sc_mcu9t5v0__nor2_2
X_230_ _094_ _099_ _030_ _031_ VDD VSS gf180mcu_fd_sc_mcu9t5v0__nor3_2
X_231_ _150_ _149_ _032_ VDD VSS gf180mcu_fd_sc_mcu9t5v0__nor2_2
X_232_ net10 net11 net12 net13 _097_ _095_ _033_ VDD VSS gf180mcu_fd_sc_mcu9t5v0__mux4_4
X_233_ _103_ _105_ _032_ _033_ _034_ VDD VSS gf180mcu_fd_sc_mcu9t5v0__oai31_2
X_234_ _025_ _029_ _031_ _034_ _035_ VDD VSS gf180mcu_fd_sc_mcu9t5v0__and4_2
X_235_ _094_ _099_ _030_ _036_ VDD VSS gf180mcu_fd_sc_mcu9t5v0__or3_2
X_236_ net6 _135_ _139_ net4 _037_ VDD VSS gf180mcu_fd_sc_mcu9t5v0__aoi22_2
X_237_ net8 _143_ _133_ _038_ VDD VSS gf180mcu_fd_sc_mcu9t5v0__aoi21_2
X_238_ _109_ _133_ _037_ _038_ _153_ _039_ VDD VSS gf180mcu_fd_sc_mcu9t5v0__aoi221_4
X_239_ _014_ _033_ _040_ VDD VSS gf180mcu_fd_sc_mcu9t5v0__nand2_2
X_240_ _039_ _040_ _041_ VDD VSS gf180mcu_fd_sc_mcu9t5v0__and2_2
X_241_ _149_ _039_ _042_ VDD VSS gf180mcu_fd_sc_mcu9t5v0__nand2_2
X_242_ _103_ _105_ _042_ _043_ VDD VSS gf180mcu_fd_sc_mcu9t5v0__nor3_2
X_243_ _036_ _041_ _043_ _090_ _044_ VDD VSS gf180mcu_fd_sc_mcu9t5v0__oai31_2
X_244_ _035_ _044_ _045_ VDD VSS gf180mcu_fd_sc_mcu9t5v0__nor2_2
X_245_ _022_ _023_ _115_ _046_ VDD VSS gf180mcu_fd_sc_mcu9t5v0__aoi21_2
X_246_ _114_ _082_ _046_ _047_ VDD VSS gf180mcu_fd_sc_mcu9t5v0__or3_2
X_247_ _132_ _017_ _047_ _048_ VDD VSS gf180mcu_fd_sc_mcu9t5v0__nand3_2
X_248_ _009_ _010_ _049_ VDD VSS gf180mcu_fd_sc_mcu9t5v0__and2_2
X_249_ _116_ _132_ _097_ _050_ VDD VSS gf180mcu_fd_sc_mcu9t5v0__or3_2
X_250_ _095_ _047_ _049_ _050_ _051_ VDD VSS gf180mcu_fd_sc_mcu9t5v0__oai211_2
X_251_ _033_ _052_ VDD VSS gf180mcu_fd_sc_mcu9t5v0__clkinv_2
X_252_ _106_ _107_ _052_ _053_ VDD VSS gf180mcu_fd_sc_mcu9t5v0__aoi21_4
X_253_ _025_ _029_ _040_ _149_ _054_ VDD VSS gf180mcu_fd_sc_mcu9t5v0__aoi211_4
X_254_ _048_ _051_ _053_ _054_ _055_ VDD VSS gf180mcu_fd_sc_mcu9t5v0__aoi211_4
X_255_ net10 _095_ _097_ _056_ VDD VSS gf180mcu_fd_sc_mcu9t5v0__and3_2
X_256_ _116_ _092_ _057_ VDD VSS gf180mcu_fd_sc_mcu9t5v0__nor2_2
X_257_ _056_ _057_ _058_ VDD VSS gf180mcu_fd_sc_mcu9t5v0__nor2_2
X_258_ _041_ _043_ _059_ VDD VSS gf180mcu_fd_sc_mcu9t5v0__or2_2
X_259_ _025_ _029_ _034_ _060_ VDD VSS gf180mcu_fd_sc_mcu9t5v0__nand3_2
X_260_ _059_ _060_ _036_ _061_ VDD VSS gf180mcu_fd_sc_mcu9t5v0__aoi21_2
X_261_ _019_ _045_ _055_ _058_ _061_ _062_ VDD VSS gf180mcu_fd_sc_mcu9t5v0__oai32_4
X_262_ _009_ _010_ _063_ VDD VSS gf180mcu_fd_sc_mcu9t5v0__nand2_2
X_263_ _080_ _063_ _064_ VDD VSS gf180mcu_fd_sc_mcu9t5v0__and2_2
X_264_ _053_ _054_ _064_ _035_ _044_ _065_ VDD VSS gf180mcu_fd_sc_mcu9t5v0__oai32_2
X_265_ _082_ _065_ _066_ VDD VSS gf180mcu_fd_sc_mcu9t5v0__or2_2
X_266_ _063_ _053_ _054_ _044_ _035_ _067_ VDD VSS gf180mcu_fd_sc_mcu9t5v0__oai32_2
X_267_ _082_ _067_ _068_ VDD VSS gf180mcu_fd_sc_mcu9t5v0__nand2_2
X_268_ _004_ _062_ _066_ _068_ _000_ VDD VSS gf180mcu_fd_sc_mcu9t5v0__and4_2
X_269_ _097_ _065_ _069_ VDD VSS gf180mcu_fd_sc_mcu9t5v0__nand2_2
X_270_ _097_ _067_ _070_ VDD VSS gf180mcu_fd_sc_mcu9t5v0__or2_2
X_271_ _062_ _069_ _070_ _001_ VDD VSS gf180mcu_fd_sc_mcu9t5v0__and3_2
X_272_ _069_ _070_ _062_ _002_ VDD VSS gf180mcu_fd_sc_mcu9t5v0__aoi21_2
X_273_ _066_ _068_ _062_ _003_ VDD VSS gf180mcu_fd_sc_mcu9t5v0__aoi21_2
X_274_ net7 _131_ _143_ net5 _139_ net9 _071_ VDD VSS gf180mcu_fd_sc_mcu9t5v0__aoi222_2
X_275_ _071_ _072_ VDD VSS gf180mcu_fd_sc_mcu9t5v0__clkinv_2
X_276_ _072_ net3 _137_ _121_ VDD VSS gf180mcu_fd_sc_mcu9t5v0__mux2_2
X_277_ net18 _129_ VDD VSS gf180mcu_fd_sc_mcu9t5v0__inv_3
X_278_ net19 _130_ VDD VSS gf180mcu_fd_sc_mcu9t5v0__clkinv_3
X_279_ _049_ _121_ _073_ VDD VSS gf180mcu_fd_sc_mcu9t5v0__nand2_2
X_280_ _122_ _049_ _073_ _148_ VDD VSS gf180mcu_fd_sc_mcu9t5v0__oai21_2
X_281_ _053_ _054_ _147_ _074_ VDD VSS gf180mcu_fd_sc_mcu9t5v0__oai21_2
X_282_ _053_ _054_ _148_ _075_ VDD VSS gf180mcu_fd_sc_mcu9t5v0__or3_2
X_283_ _074_ _075_ _152_ VDD VSS gf180mcu_fd_sc_mcu9t5v0__and2_2
X_284_ _129_ _004_ _066_ _068_ _005_ VDD VSS gf180mcu_fd_sc_mcu9t5v0__oai211_2
X_285_ _130_ _004_ _062_ _006_ VDD VSS gf180mcu_fd_sc_mcu9t5v0__oai21_2
X_286_ _121_ _122_ _123_ _124_ VDD VSS gf180mcu_fd_sc_mcu9t5v0__addh_2
X_287_ _125_ _126_ _127_ _128_ VDD VSS gf180mcu_fd_sc_mcu9t5v0__addh_1
X_288_ _129_ _130_ _131_ _132_ VDD VSS gf180mcu_fd_sc_mcu9t5v0__addh_4
X_289_ _129_ _130_ _133_ _134_ VDD VSS gf180mcu_fd_sc_mcu9t5v0__addh_2
X_290_ _129_ net19 _135_ _136_ VDD VSS gf180mcu_fd_sc_mcu9t5v0__addh_4
X_291_ _129_ net19 _137_ _138_ VDD VSS gf180mcu_fd_sc_mcu9t5v0__addh_2
X_292_ net18 _130_ _139_ _140_ VDD VSS gf180mcu_fd_sc_mcu9t5v0__addh_2
X_293_ net18 _130_ _141_ _142_ VDD VSS gf180mcu_fd_sc_mcu9t5v0__addh_2
X_294_ net18 net19 _143_ _144_ VDD VSS gf180mcu_fd_sc_mcu9t5v0__addh_4
X_295_ net18 net19 _145_ _146_ VDD VSS gf180mcu_fd_sc_mcu9t5v0__addh_4
X_296_ _147_ _148_ _149_ _150_ VDD VSS gf180mcu_fd_sc_mcu9t5v0__addh_2
X_297_ _151_ _152_ _153_ _154_ VDD VSS gf180mcu_fd_sc_mcu9t5v0__addh_2
Xgrant\[0\]$_DFF_PN0_ _000_ net1 clknet_1_0__leaf_clk net14
+ VDD VSS gf180mcu_fd_sc_mcu9t5v0__dffrnq_2
Xgrant\[1\]$_DFF_PN0_ _001_ net1 clknet_1_1__leaf_clk net15
+ VDD VSS gf180mcu_fd_sc_mcu9t5v0__dffrnq_2
Xgrant\[2\]$_DFF_PN0_ _002_ net1 clknet_1_1__leaf_clk net16
+ VDD VSS gf180mcu_fd_sc_mcu9t5v0__dffrnq_2
Xgrant\[3\]$_DFF_PN0_ _003_ net1 clknet_1_1__leaf_clk net17
+ VDD VSS gf180mcu_fd_sc_mcu9t5v0__dffrnq_2
Xlast_grant_idx\[0\]$_DFFE_PN0P_ _005_ net1 clknet_1_0__leaf_clk
+ net18 VDD VSS gf180mcu_fd_sc_mcu9t5v0__dffrnq_4
Xlast_grant_idx\[1\]$_DFFE_PN0P_ _006_ net1 clknet_1_0__leaf_clk
+ net19 VDD VSS gf180mcu_fd_sc_mcu9t5v0__dffrnq_4
Xvalid$_DFF_PN0_ _004_ net1 clknet_1_0__leaf_clk net20 VDD
+ VSS gf180mcu_fd_sc_mcu9t5v0__dffrnq_2
Xhold1 net21 net1 VDD VSS gf180mcu_fd_sc_mcu9t5v0__clkbuf_3
XPHY_EDGE_ROW_0_Right_0 VDD VSS gf180mcu_fd_sc_mcu9t5v0__endcap
XPHY_EDGE_ROW_1_Right_1 VDD VSS gf180mcu_fd_sc_mcu9t5v0__endcap
XPHY_EDGE_ROW_2_Right_2 VDD VSS gf180mcu_fd_sc_mcu9t5v0__endcap
XPHY_EDGE_ROW_3_Right_3 VDD VSS gf180mcu_fd_sc_mcu9t5v0__endcap
XPHY_EDGE_ROW_4_Right_4 VDD VSS gf180mcu_fd_sc_mcu9t5v0__endcap
XPHY_EDGE_ROW_5_Right_5 VDD VSS gf180mcu_fd_sc_mcu9t5v0__endcap
XPHY_EDGE_ROW_6_Right_6 VDD VSS gf180mcu_fd_sc_mcu9t5v0__endcap
XPHY_EDGE_ROW_7_Right_7 VDD VSS gf180mcu_fd_sc_mcu9t5v0__endcap
XPHY_EDGE_ROW_8_Right_8 VDD VSS gf180mcu_fd_sc_mcu9t5v0__endcap
XPHY_EDGE_ROW_9_Right_9 VDD VSS gf180mcu_fd_sc_mcu9t5v0__endcap
XPHY_EDGE_ROW_10_Right_10 VDD VSS gf180mcu_fd_sc_mcu9t5v0__endcap
XPHY_EDGE_ROW_11_Right_11 VDD VSS gf180mcu_fd_sc_mcu9t5v0__endcap
XPHY_EDGE_ROW_12_Right_12 VDD VSS gf180mcu_fd_sc_mcu9t5v0__endcap
XPHY_EDGE_ROW_13_Right_13 VDD VSS gf180mcu_fd_sc_mcu9t5v0__endcap
XPHY_EDGE_ROW_14_Right_14 VDD VSS gf180mcu_fd_sc_mcu9t5v0__endcap
XPHY_EDGE_ROW_15_Right_15 VDD VSS gf180mcu_fd_sc_mcu9t5v0__endcap
XPHY_EDGE_ROW_16_Right_16 VDD VSS gf180mcu_fd_sc_mcu9t5v0__endcap
XPHY_EDGE_ROW_17_Right_17 VDD VSS gf180mcu_fd_sc_mcu9t5v0__endcap
XPHY_EDGE_ROW_18_Right_18 VDD VSS gf180mcu_fd_sc_mcu9t5v0__endcap
XPHY_EDGE_ROW_19_Right_19 VDD VSS gf180mcu_fd_sc_mcu9t5v0__endcap
XPHY_EDGE_ROW_20_Right_20 VDD VSS gf180mcu_fd_sc_mcu9t5v0__endcap
XPHY_EDGE_ROW_21_Right_21 VDD VSS gf180mcu_fd_sc_mcu9t5v0__endcap
XPHY_EDGE_ROW_22_Right_22 VDD VSS gf180mcu_fd_sc_mcu9t5v0__endcap
XPHY_EDGE_ROW_23_Right_23 VDD VSS gf180mcu_fd_sc_mcu9t5v0__endcap
XPHY_EDGE_ROW_24_Right_24 VDD VSS gf180mcu_fd_sc_mcu9t5v0__endcap
XPHY_EDGE_ROW_25_Right_25 VDD VSS gf180mcu_fd_sc_mcu9t5v0__endcap
XPHY_EDGE_ROW_26_Right_26 VDD VSS gf180mcu_fd_sc_mcu9t5v0__endcap
XPHY_EDGE_ROW_27_Right_27 VDD VSS gf180mcu_fd_sc_mcu9t5v0__endcap
XPHY_EDGE_ROW_28_Right_28 VDD VSS gf180mcu_fd_sc_mcu9t5v0__endcap
XPHY_EDGE_ROW_29_Right_29 VDD VSS gf180mcu_fd_sc_mcu9t5v0__endcap
XPHY_EDGE_ROW_30_Right_30 VDD VSS gf180mcu_fd_sc_mcu9t5v0__endcap
XPHY_EDGE_ROW_31_Right_31 VDD VSS gf180mcu_fd_sc_mcu9t5v0__endcap
XPHY_EDGE_ROW_32_Right_32 VDD VSS gf180mcu_fd_sc_mcu9t5v0__endcap
XPHY_EDGE_ROW_33_Right_33 VDD VSS gf180mcu_fd_sc_mcu9t5v0__endcap
XPHY_EDGE_ROW_34_Right_34 VDD VSS gf180mcu_fd_sc_mcu9t5v0__endcap
XPHY_EDGE_ROW_35_Right_35 VDD VSS gf180mcu_fd_sc_mcu9t5v0__endcap
XPHY_EDGE_ROW_36_Right_36 VDD VSS gf180mcu_fd_sc_mcu9t5v0__endcap
XPHY_EDGE_ROW_37_Right_37 VDD VSS gf180mcu_fd_sc_mcu9t5v0__endcap
XPHY_EDGE_ROW_38_Right_38 VDD VSS gf180mcu_fd_sc_mcu9t5v0__endcap
XPHY_EDGE_ROW_39_Right_39 VDD VSS gf180mcu_fd_sc_mcu9t5v0__endcap
XPHY_EDGE_ROW_40_Right_40 VDD VSS gf180mcu_fd_sc_mcu9t5v0__endcap
XPHY_EDGE_ROW_41_Right_41 VDD VSS gf180mcu_fd_sc_mcu9t5v0__endcap
XPHY_EDGE_ROW_42_Right_42 VDD VSS gf180mcu_fd_sc_mcu9t5v0__endcap
XPHY_EDGE_ROW_43_Right_43 VDD VSS gf180mcu_fd_sc_mcu9t5v0__endcap
XPHY_EDGE_ROW_44_Right_44 VDD VSS gf180mcu_fd_sc_mcu9t5v0__endcap
XPHY_EDGE_ROW_45_Right_45 VDD VSS gf180mcu_fd_sc_mcu9t5v0__endcap
XPHY_EDGE_ROW_46_Right_46 VDD VSS gf180mcu_fd_sc_mcu9t5v0__endcap
XPHY_EDGE_ROW_47_Right_47 VDD VSS gf180mcu_fd_sc_mcu9t5v0__endcap
XPHY_EDGE_ROW_48_Right_48 VDD VSS gf180mcu_fd_sc_mcu9t5v0__endcap
XPHY_EDGE_ROW_49_Right_49 VDD VSS gf180mcu_fd_sc_mcu9t5v0__endcap
XPHY_EDGE_ROW_50_Right_50 VDD VSS gf180mcu_fd_sc_mcu9t5v0__endcap
XPHY_EDGE_ROW_51_Right_51 VDD VSS gf180mcu_fd_sc_mcu9t5v0__endcap
XPHY_EDGE_ROW_52_Right_52 VDD VSS gf180mcu_fd_sc_mcu9t5v0__endcap
XPHY_EDGE_ROW_53_Right_53 VDD VSS gf180mcu_fd_sc_mcu9t5v0__endcap
XPHY_EDGE_ROW_54_Right_54 VDD VSS gf180mcu_fd_sc_mcu9t5v0__endcap
XPHY_EDGE_ROW_55_Right_55 VDD VSS gf180mcu_fd_sc_mcu9t5v0__endcap
XPHY_EDGE_ROW_56_Right_56 VDD VSS gf180mcu_fd_sc_mcu9t5v0__endcap
XPHY_EDGE_ROW_57_Right_57 VDD VSS gf180mcu_fd_sc_mcu9t5v0__endcap
XPHY_EDGE_ROW_58_Right_58 VDD VSS gf180mcu_fd_sc_mcu9t5v0__endcap
XPHY_EDGE_ROW_59_Right_59 VDD VSS gf180mcu_fd_sc_mcu9t5v0__endcap
XPHY_EDGE_ROW_60_Right_60 VDD VSS gf180mcu_fd_sc_mcu9t5v0__endcap
XPHY_EDGE_ROW_61_Right_61 VDD VSS gf180mcu_fd_sc_mcu9t5v0__endcap
XPHY_EDGE_ROW_62_Right_62 VDD VSS gf180mcu_fd_sc_mcu9t5v0__endcap
XPHY_EDGE_ROW_63_Right_63 VDD VSS gf180mcu_fd_sc_mcu9t5v0__endcap
XPHY_EDGE_ROW_64_Right_64 VDD VSS gf180mcu_fd_sc_mcu9t5v0__endcap
XPHY_EDGE_ROW_65_Right_65 VDD VSS gf180mcu_fd_sc_mcu9t5v0__endcap
XPHY_EDGE_ROW_66_Right_66 VDD VSS gf180mcu_fd_sc_mcu9t5v0__endcap
XPHY_EDGE_ROW_67_Right_67 VDD VSS gf180mcu_fd_sc_mcu9t5v0__endcap
XPHY_EDGE_ROW_68_Right_68 VDD VSS gf180mcu_fd_sc_mcu9t5v0__endcap
XPHY_EDGE_ROW_69_Right_69 VDD VSS gf180mcu_fd_sc_mcu9t5v0__endcap
XPHY_EDGE_ROW_70_Right_70 VDD VSS gf180mcu_fd_sc_mcu9t5v0__endcap
XPHY_EDGE_ROW_71_Right_71 VDD VSS gf180mcu_fd_sc_mcu9t5v0__endcap
XPHY_EDGE_ROW_72_Right_72 VDD VSS gf180mcu_fd_sc_mcu9t5v0__endcap
XPHY_EDGE_ROW_73_Right_73 VDD VSS gf180mcu_fd_sc_mcu9t5v0__endcap
XPHY_EDGE_ROW_74_Right_74 VDD VSS gf180mcu_fd_sc_mcu9t5v0__endcap
XPHY_EDGE_ROW_75_Right_75 VDD VSS gf180mcu_fd_sc_mcu9t5v0__endcap
XPHY_EDGE_ROW_76_Right_76 VDD VSS gf180mcu_fd_sc_mcu9t5v0__endcap
XPHY_EDGE_ROW_77_Right_77 VDD VSS gf180mcu_fd_sc_mcu9t5v0__endcap
XPHY_EDGE_ROW_78_Right_78 VDD VSS gf180mcu_fd_sc_mcu9t5v0__endcap
XPHY_EDGE_ROW_79_Right_79 VDD VSS gf180mcu_fd_sc_mcu9t5v0__endcap
XPHY_EDGE_ROW_80_Right_80 VDD VSS gf180mcu_fd_sc_mcu9t5v0__endcap
XPHY_EDGE_ROW_81_Right_81 VDD VSS gf180mcu_fd_sc_mcu9t5v0__endcap
XPHY_EDGE_ROW_82_Right_82 VDD VSS gf180mcu_fd_sc_mcu9t5v0__endcap
XPHY_EDGE_ROW_83_Right_83 VDD VSS gf180mcu_fd_sc_mcu9t5v0__endcap
XPHY_EDGE_ROW_84_Right_84 VDD VSS gf180mcu_fd_sc_mcu9t5v0__endcap
XPHY_EDGE_ROW_85_Right_85 VDD VSS gf180mcu_fd_sc_mcu9t5v0__endcap
XPHY_EDGE_ROW_86_Right_86 VDD VSS gf180mcu_fd_sc_mcu9t5v0__endcap
XPHY_EDGE_ROW_87_Right_87 VDD VSS gf180mcu_fd_sc_mcu9t5v0__endcap
XPHY_EDGE_ROW_88_Right_88 VDD VSS gf180mcu_fd_sc_mcu9t5v0__endcap
XPHY_EDGE_ROW_89_Right_89 VDD VSS gf180mcu_fd_sc_mcu9t5v0__endcap
XPHY_EDGE_ROW_90_Right_90 VDD VSS gf180mcu_fd_sc_mcu9t5v0__endcap
XPHY_EDGE_ROW_91_Right_91 VDD VSS gf180mcu_fd_sc_mcu9t5v0__endcap
XPHY_EDGE_ROW_92_Right_92 VDD VSS gf180mcu_fd_sc_mcu9t5v0__endcap
XPHY_EDGE_ROW_93_Right_93 VDD VSS gf180mcu_fd_sc_mcu9t5v0__endcap
XPHY_EDGE_ROW_94_Right_94 VDD VSS gf180mcu_fd_sc_mcu9t5v0__endcap
XPHY_EDGE_ROW_95_Right_95 VDD VSS gf180mcu_fd_sc_mcu9t5v0__endcap
XPHY_EDGE_ROW_96_Right_96 VDD VSS gf180mcu_fd_sc_mcu9t5v0__endcap
XPHY_EDGE_ROW_97_Right_97 VDD VSS gf180mcu_fd_sc_mcu9t5v0__endcap
XPHY_EDGE_ROW_98_Right_98 VDD VSS gf180mcu_fd_sc_mcu9t5v0__endcap
XPHY_EDGE_ROW_99_Right_99 VDD VSS gf180mcu_fd_sc_mcu9t5v0__endcap
XPHY_EDGE_ROW_100_Right_100 VDD VSS gf180mcu_fd_sc_mcu9t5v0__endcap
XPHY_EDGE_ROW_101_Right_101 VDD VSS gf180mcu_fd_sc_mcu9t5v0__endcap
XPHY_EDGE_ROW_102_Right_102 VDD VSS gf180mcu_fd_sc_mcu9t5v0__endcap
XPHY_EDGE_ROW_103_Right_103 VDD VSS gf180mcu_fd_sc_mcu9t5v0__endcap
XPHY_EDGE_ROW_104_Right_104 VDD VSS gf180mcu_fd_sc_mcu9t5v0__endcap
XPHY_EDGE_ROW_105_Right_105 VDD VSS gf180mcu_fd_sc_mcu9t5v0__endcap
XPHY_EDGE_ROW_106_Right_106 VDD VSS gf180mcu_fd_sc_mcu9t5v0__endcap
XPHY_EDGE_ROW_107_Right_107 VDD VSS gf180mcu_fd_sc_mcu9t5v0__endcap
XPHY_EDGE_ROW_108_Right_108 VDD VSS gf180mcu_fd_sc_mcu9t5v0__endcap
XPHY_EDGE_ROW_109_Right_109 VDD VSS gf180mcu_fd_sc_mcu9t5v0__endcap
XPHY_EDGE_ROW_110_Right_110 VDD VSS gf180mcu_fd_sc_mcu9t5v0__endcap
XPHY_EDGE_ROW_111_Right_111 VDD VSS gf180mcu_fd_sc_mcu9t5v0__endcap
XPHY_EDGE_ROW_112_Right_112 VDD VSS gf180mcu_fd_sc_mcu9t5v0__endcap
XPHY_EDGE_ROW_113_Right_113 VDD VSS gf180mcu_fd_sc_mcu9t5v0__endcap
XPHY_EDGE_ROW_114_Right_114 VDD VSS gf180mcu_fd_sc_mcu9t5v0__endcap
XPHY_EDGE_ROW_115_Right_115 VDD VSS gf180mcu_fd_sc_mcu9t5v0__endcap
XPHY_EDGE_ROW_116_Right_116 VDD VSS gf180mcu_fd_sc_mcu9t5v0__endcap
XPHY_EDGE_ROW_117_Right_117 VDD VSS gf180mcu_fd_sc_mcu9t5v0__endcap
XPHY_EDGE_ROW_118_Right_118 VDD VSS gf180mcu_fd_sc_mcu9t5v0__endcap
XPHY_EDGE_ROW_119_Right_119 VDD VSS gf180mcu_fd_sc_mcu9t5v0__endcap
XPHY_EDGE_ROW_120_Right_120 VDD VSS gf180mcu_fd_sc_mcu9t5v0__endcap
XPHY_EDGE_ROW_121_Right_121 VDD VSS gf180mcu_fd_sc_mcu9t5v0__endcap
XPHY_EDGE_ROW_122_Right_122 VDD VSS gf180mcu_fd_sc_mcu9t5v0__endcap
XPHY_EDGE_ROW_123_Right_123 VDD VSS gf180mcu_fd_sc_mcu9t5v0__endcap
XPHY_EDGE_ROW_124_Right_124 VDD VSS gf180mcu_fd_sc_mcu9t5v0__endcap
XPHY_EDGE_ROW_125_Right_125 VDD VSS gf180mcu_fd_sc_mcu9t5v0__endcap
XPHY_EDGE_ROW_126_Right_126 VDD VSS gf180mcu_fd_sc_mcu9t5v0__endcap
XPHY_EDGE_ROW_127_Right_127 VDD VSS gf180mcu_fd_sc_mcu9t5v0__endcap
XPHY_EDGE_ROW_128_Right_128 VDD VSS gf180mcu_fd_sc_mcu9t5v0__endcap
XPHY_EDGE_ROW_129_Right_129 VDD VSS gf180mcu_fd_sc_mcu9t5v0__endcap
XPHY_EDGE_ROW_130_Right_130 VDD VSS gf180mcu_fd_sc_mcu9t5v0__endcap
XPHY_EDGE_ROW_131_Right_131 VDD VSS gf180mcu_fd_sc_mcu9t5v0__endcap
XPHY_EDGE_ROW_132_Right_132 VDD VSS gf180mcu_fd_sc_mcu9t5v0__endcap
XPHY_EDGE_ROW_133_Right_133 VDD VSS gf180mcu_fd_sc_mcu9t5v0__endcap
XPHY_EDGE_ROW_134_Right_134 VDD VSS gf180mcu_fd_sc_mcu9t5v0__endcap
XPHY_EDGE_ROW_135_Right_135 VDD VSS gf180mcu_fd_sc_mcu9t5v0__endcap
XPHY_EDGE_ROW_136_Right_136 VDD VSS gf180mcu_fd_sc_mcu9t5v0__endcap
XPHY_EDGE_ROW_137_Right_137 VDD VSS gf180mcu_fd_sc_mcu9t5v0__endcap
XPHY_EDGE_ROW_138_Right_138 VDD VSS gf180mcu_fd_sc_mcu9t5v0__endcap
XPHY_EDGE_ROW_139_Right_139 VDD VSS gf180mcu_fd_sc_mcu9t5v0__endcap
XPHY_EDGE_ROW_140_Right_140 VDD VSS gf180mcu_fd_sc_mcu9t5v0__endcap
XPHY_EDGE_ROW_141_Right_141 VDD VSS gf180mcu_fd_sc_mcu9t5v0__endcap
XPHY_EDGE_ROW_142_Right_142 VDD VSS gf180mcu_fd_sc_mcu9t5v0__endcap
XPHY_EDGE_ROW_143_Right_143 VDD VSS gf180mcu_fd_sc_mcu9t5v0__endcap
XPHY_EDGE_ROW_144_Right_144 VDD VSS gf180mcu_fd_sc_mcu9t5v0__endcap
XPHY_EDGE_ROW_145_Right_145 VDD VSS gf180mcu_fd_sc_mcu9t5v0__endcap
XPHY_EDGE_ROW_146_Right_146 VDD VSS gf180mcu_fd_sc_mcu9t5v0__endcap
XPHY_EDGE_ROW_147_Right_147 VDD VSS gf180mcu_fd_sc_mcu9t5v0__endcap
XPHY_EDGE_ROW_148_Right_148 VDD VSS gf180mcu_fd_sc_mcu9t5v0__endcap
XPHY_EDGE_ROW_149_Right_149 VDD VSS gf180mcu_fd_sc_mcu9t5v0__endcap
XPHY_EDGE_ROW_150_Right_150 VDD VSS gf180mcu_fd_sc_mcu9t5v0__endcap
XPHY_EDGE_ROW_151_Right_151 VDD VSS gf180mcu_fd_sc_mcu9t5v0__endcap
XPHY_EDGE_ROW_152_Right_152 VDD VSS gf180mcu_fd_sc_mcu9t5v0__endcap
XPHY_EDGE_ROW_153_Right_153 VDD VSS gf180mcu_fd_sc_mcu9t5v0__endcap
XPHY_EDGE_ROW_154_Right_154 VDD VSS gf180mcu_fd_sc_mcu9t5v0__endcap
XPHY_EDGE_ROW_155_Right_155 VDD VSS gf180mcu_fd_sc_mcu9t5v0__endcap
XPHY_EDGE_ROW_156_Right_156 VDD VSS gf180mcu_fd_sc_mcu9t5v0__endcap
XPHY_EDGE_ROW_157_Right_157 VDD VSS gf180mcu_fd_sc_mcu9t5v0__endcap
XPHY_EDGE_ROW_158_Right_158 VDD VSS gf180mcu_fd_sc_mcu9t5v0__endcap
XPHY_EDGE_ROW_159_Right_159 VDD VSS gf180mcu_fd_sc_mcu9t5v0__endcap
XPHY_EDGE_ROW_160_Right_160 VDD VSS gf180mcu_fd_sc_mcu9t5v0__endcap
XPHY_EDGE_ROW_161_Right_161 VDD VSS gf180mcu_fd_sc_mcu9t5v0__endcap
XPHY_EDGE_ROW_162_Right_162 VDD VSS gf180mcu_fd_sc_mcu9t5v0__endcap
XPHY_EDGE_ROW_163_Right_163 VDD VSS gf180mcu_fd_sc_mcu9t5v0__endcap
XPHY_EDGE_ROW_164_Right_164 VDD VSS gf180mcu_fd_sc_mcu9t5v0__endcap
XPHY_EDGE_ROW_165_Right_165 VDD VSS gf180mcu_fd_sc_mcu9t5v0__endcap
XPHY_EDGE_ROW_166_Right_166 VDD VSS gf180mcu_fd_sc_mcu9t5v0__endcap
XPHY_EDGE_ROW_167_Right_167 VDD VSS gf180mcu_fd_sc_mcu9t5v0__endcap
XPHY_EDGE_ROW_168_Right_168 VDD VSS gf180mcu_fd_sc_mcu9t5v0__endcap
XPHY_EDGE_ROW_169_Right_169 VDD VSS gf180mcu_fd_sc_mcu9t5v0__endcap
XPHY_EDGE_ROW_170_Right_170 VDD VSS gf180mcu_fd_sc_mcu9t5v0__endcap
XPHY_EDGE_ROW_171_Right_171 VDD VSS gf180mcu_fd_sc_mcu9t5v0__endcap
XPHY_EDGE_ROW_172_Right_172 VDD VSS gf180mcu_fd_sc_mcu9t5v0__endcap
XPHY_EDGE_ROW_173_Right_173 VDD VSS gf180mcu_fd_sc_mcu9t5v0__endcap
XPHY_EDGE_ROW_174_Right_174 VDD VSS gf180mcu_fd_sc_mcu9t5v0__endcap
XPHY_EDGE_ROW_175_Right_175 VDD VSS gf180mcu_fd_sc_mcu9t5v0__endcap
XPHY_EDGE_ROW_176_Right_176 VDD VSS gf180mcu_fd_sc_mcu9t5v0__endcap
XPHY_EDGE_ROW_177_Right_177 VDD VSS gf180mcu_fd_sc_mcu9t5v0__endcap
XPHY_EDGE_ROW_178_Right_178 VDD VSS gf180mcu_fd_sc_mcu9t5v0__endcap
XPHY_EDGE_ROW_179_Right_179 VDD VSS gf180mcu_fd_sc_mcu9t5v0__endcap
XPHY_EDGE_ROW_180_Right_180 VDD VSS gf180mcu_fd_sc_mcu9t5v0__endcap
XPHY_EDGE_ROW_181_Right_181 VDD VSS gf180mcu_fd_sc_mcu9t5v0__endcap
XPHY_EDGE_ROW_182_Right_182 VDD VSS gf180mcu_fd_sc_mcu9t5v0__endcap
XPHY_EDGE_ROW_183_Right_183 VDD VSS gf180mcu_fd_sc_mcu9t5v0__endcap
XPHY_EDGE_ROW_184_Right_184 VDD VSS gf180mcu_fd_sc_mcu9t5v0__endcap
XPHY_EDGE_ROW_185_Right_185 VDD VSS gf180mcu_fd_sc_mcu9t5v0__endcap
XPHY_EDGE_ROW_186_Right_186 VDD VSS gf180mcu_fd_sc_mcu9t5v0__endcap
XPHY_EDGE_ROW_187_Right_187 VDD VSS gf180mcu_fd_sc_mcu9t5v0__endcap
XPHY_EDGE_ROW_188_Right_188 VDD VSS gf180mcu_fd_sc_mcu9t5v0__endcap
XPHY_EDGE_ROW_189_Right_189 VDD VSS gf180mcu_fd_sc_mcu9t5v0__endcap
XPHY_EDGE_ROW_190_Right_190 VDD VSS gf180mcu_fd_sc_mcu9t5v0__endcap
XPHY_EDGE_ROW_191_Right_191 VDD VSS gf180mcu_fd_sc_mcu9t5v0__endcap
XPHY_EDGE_ROW_192_Right_192 VDD VSS gf180mcu_fd_sc_mcu9t5v0__endcap
XPHY_EDGE_ROW_193_Right_193 VDD VSS gf180mcu_fd_sc_mcu9t5v0__endcap
XPHY_EDGE_ROW_194_Right_194 VDD VSS gf180mcu_fd_sc_mcu9t5v0__endcap
XPHY_EDGE_ROW_195_Right_195 VDD VSS gf180mcu_fd_sc_mcu9t5v0__endcap
XPHY_EDGE_ROW_196_Right_196 VDD VSS gf180mcu_fd_sc_mcu9t5v0__endcap
XPHY_EDGE_ROW_197_Right_197 VDD VSS gf180mcu_fd_sc_mcu9t5v0__endcap
XPHY_EDGE_ROW_198_Right_198 VDD VSS gf180mcu_fd_sc_mcu9t5v0__endcap
XPHY_EDGE_ROW_199_Right_199 VDD VSS gf180mcu_fd_sc_mcu9t5v0__endcap
XPHY_EDGE_ROW_200_Right_200 VDD VSS gf180mcu_fd_sc_mcu9t5v0__endcap
XPHY_EDGE_ROW_201_Right_201 VDD VSS gf180mcu_fd_sc_mcu9t5v0__endcap
XPHY_EDGE_ROW_202_Right_202 VDD VSS gf180mcu_fd_sc_mcu9t5v0__endcap
XPHY_EDGE_ROW_203_Right_203 VDD VSS gf180mcu_fd_sc_mcu9t5v0__endcap
XPHY_EDGE_ROW_204_Right_204 VDD VSS gf180mcu_fd_sc_mcu9t5v0__endcap
XPHY_EDGE_ROW_205_Right_205 VDD VSS gf180mcu_fd_sc_mcu9t5v0__endcap
XPHY_EDGE_ROW_206_Right_206 VDD VSS gf180mcu_fd_sc_mcu9t5v0__endcap
XPHY_EDGE_ROW_207_Right_207 VDD VSS gf180mcu_fd_sc_mcu9t5v0__endcap
XPHY_EDGE_ROW_208_Right_208 VDD VSS gf180mcu_fd_sc_mcu9t5v0__endcap
XPHY_EDGE_ROW_209_Right_209 VDD VSS gf180mcu_fd_sc_mcu9t5v0__endcap
XPHY_EDGE_ROW_210_Right_210 VDD VSS gf180mcu_fd_sc_mcu9t5v0__endcap
XPHY_EDGE_ROW_211_Right_211 VDD VSS gf180mcu_fd_sc_mcu9t5v0__endcap
XPHY_EDGE_ROW_212_Right_212 VDD VSS gf180mcu_fd_sc_mcu9t5v0__endcap
XPHY_EDGE_ROW_0_Left_213 VDD VSS gf180mcu_fd_sc_mcu9t5v0__endcap
XPHY_EDGE_ROW_1_Left_214 VDD VSS gf180mcu_fd_sc_mcu9t5v0__endcap
XPHY_EDGE_ROW_2_Left_215 VDD VSS gf180mcu_fd_sc_mcu9t5v0__endcap
XPHY_EDGE_ROW_3_Left_216 VDD VSS gf180mcu_fd_sc_mcu9t5v0__endcap
XPHY_EDGE_ROW_4_Left_217 VDD VSS gf180mcu_fd_sc_mcu9t5v0__endcap
XPHY_EDGE_ROW_5_Left_218 VDD VSS gf180mcu_fd_sc_mcu9t5v0__endcap
XPHY_EDGE_ROW_6_Left_219 VDD VSS gf180mcu_fd_sc_mcu9t5v0__endcap
XPHY_EDGE_ROW_7_Left_220 VDD VSS gf180mcu_fd_sc_mcu9t5v0__endcap
XPHY_EDGE_ROW_8_Left_221 VDD VSS gf180mcu_fd_sc_mcu9t5v0__endcap
XPHY_EDGE_ROW_9_Left_222 VDD VSS gf180mcu_fd_sc_mcu9t5v0__endcap
XPHY_EDGE_ROW_10_Left_223 VDD VSS gf180mcu_fd_sc_mcu9t5v0__endcap
XPHY_EDGE_ROW_11_Left_224 VDD VSS gf180mcu_fd_sc_mcu9t5v0__endcap
XPHY_EDGE_ROW_12_Left_225 VDD VSS gf180mcu_fd_sc_mcu9t5v0__endcap
XPHY_EDGE_ROW_13_Left_226 VDD VSS gf180mcu_fd_sc_mcu9t5v0__endcap
XPHY_EDGE_ROW_14_Left_227 VDD VSS gf180mcu_fd_sc_mcu9t5v0__endcap
XPHY_EDGE_ROW_15_Left_228 VDD VSS gf180mcu_fd_sc_mcu9t5v0__endcap
XPHY_EDGE_ROW_16_Left_229 VDD VSS gf180mcu_fd_sc_mcu9t5v0__endcap
XPHY_EDGE_ROW_17_Left_230 VDD VSS gf180mcu_fd_sc_mcu9t5v0__endcap
XPHY_EDGE_ROW_18_Left_231 VDD VSS gf180mcu_fd_sc_mcu9t5v0__endcap
XPHY_EDGE_ROW_19_Left_232 VDD VSS gf180mcu_fd_sc_mcu9t5v0__endcap
XPHY_EDGE_ROW_20_Left_233 VDD VSS gf180mcu_fd_sc_mcu9t5v0__endcap
XPHY_EDGE_ROW_21_Left_234 VDD VSS gf180mcu_fd_sc_mcu9t5v0__endcap
XPHY_EDGE_ROW_22_Left_235 VDD VSS gf180mcu_fd_sc_mcu9t5v0__endcap
XPHY_EDGE_ROW_23_Left_236 VDD VSS gf180mcu_fd_sc_mcu9t5v0__endcap
XPHY_EDGE_ROW_24_Left_237 VDD VSS gf180mcu_fd_sc_mcu9t5v0__endcap
XPHY_EDGE_ROW_25_Left_238 VDD VSS gf180mcu_fd_sc_mcu9t5v0__endcap
XPHY_EDGE_ROW_26_Left_239 VDD VSS gf180mcu_fd_sc_mcu9t5v0__endcap
XPHY_EDGE_ROW_27_Left_240 VDD VSS gf180mcu_fd_sc_mcu9t5v0__endcap
XPHY_EDGE_ROW_28_Left_241 VDD VSS gf180mcu_fd_sc_mcu9t5v0__endcap
XPHY_EDGE_ROW_29_Left_242 VDD VSS gf180mcu_fd_sc_mcu9t5v0__endcap
XPHY_EDGE_ROW_30_Left_243 VDD VSS gf180mcu_fd_sc_mcu9t5v0__endcap
XPHY_EDGE_ROW_31_Left_244 VDD VSS gf180mcu_fd_sc_mcu9t5v0__endcap
XPHY_EDGE_ROW_32_Left_245 VDD VSS gf180mcu_fd_sc_mcu9t5v0__endcap
XPHY_EDGE_ROW_33_Left_246 VDD VSS gf180mcu_fd_sc_mcu9t5v0__endcap
XPHY_EDGE_ROW_34_Left_247 VDD VSS gf180mcu_fd_sc_mcu9t5v0__endcap
XPHY_EDGE_ROW_35_Left_248 VDD VSS gf180mcu_fd_sc_mcu9t5v0__endcap
XPHY_EDGE_ROW_36_Left_249 VDD VSS gf180mcu_fd_sc_mcu9t5v0__endcap
XPHY_EDGE_ROW_37_Left_250 VDD VSS gf180mcu_fd_sc_mcu9t5v0__endcap
XPHY_EDGE_ROW_38_Left_251 VDD VSS gf180mcu_fd_sc_mcu9t5v0__endcap
XPHY_EDGE_ROW_39_Left_252 VDD VSS gf180mcu_fd_sc_mcu9t5v0__endcap
XPHY_EDGE_ROW_40_Left_253 VDD VSS gf180mcu_fd_sc_mcu9t5v0__endcap
XPHY_EDGE_ROW_41_Left_254 VDD VSS gf180mcu_fd_sc_mcu9t5v0__endcap
XPHY_EDGE_ROW_42_Left_255 VDD VSS gf180mcu_fd_sc_mcu9t5v0__endcap
XPHY_EDGE_ROW_43_Left_256 VDD VSS gf180mcu_fd_sc_mcu9t5v0__endcap
XPHY_EDGE_ROW_44_Left_257 VDD VSS gf180mcu_fd_sc_mcu9t5v0__endcap
XPHY_EDGE_ROW_45_Left_258 VDD VSS gf180mcu_fd_sc_mcu9t5v0__endcap
XPHY_EDGE_ROW_46_Left_259 VDD VSS gf180mcu_fd_sc_mcu9t5v0__endcap
XPHY_EDGE_ROW_47_Left_260 VDD VSS gf180mcu_fd_sc_mcu9t5v0__endcap
XPHY_EDGE_ROW_48_Left_261 VDD VSS gf180mcu_fd_sc_mcu9t5v0__endcap
XPHY_EDGE_ROW_49_Left_262 VDD VSS gf180mcu_fd_sc_mcu9t5v0__endcap
XPHY_EDGE_ROW_50_Left_263 VDD VSS gf180mcu_fd_sc_mcu9t5v0__endcap
XPHY_EDGE_ROW_51_Left_264 VDD VSS gf180mcu_fd_sc_mcu9t5v0__endcap
XPHY_EDGE_ROW_52_Left_265 VDD VSS gf180mcu_fd_sc_mcu9t5v0__endcap
XPHY_EDGE_ROW_53_Left_266 VDD VSS gf180mcu_fd_sc_mcu9t5v0__endcap
XPHY_EDGE_ROW_54_Left_267 VDD VSS gf180mcu_fd_sc_mcu9t5v0__endcap
XPHY_EDGE_ROW_55_Left_268 VDD VSS gf180mcu_fd_sc_mcu9t5v0__endcap
XPHY_EDGE_ROW_56_Left_269 VDD VSS gf180mcu_fd_sc_mcu9t5v0__endcap
XPHY_EDGE_ROW_57_Left_270 VDD VSS gf180mcu_fd_sc_mcu9t5v0__endcap
XPHY_EDGE_ROW_58_Left_271 VDD VSS gf180mcu_fd_sc_mcu9t5v0__endcap
XPHY_EDGE_ROW_59_Left_272 VDD VSS gf180mcu_fd_sc_mcu9t5v0__endcap
XPHY_EDGE_ROW_60_Left_273 VDD VSS gf180mcu_fd_sc_mcu9t5v0__endcap
XPHY_EDGE_ROW_61_Left_274 VDD VSS gf180mcu_fd_sc_mcu9t5v0__endcap
XPHY_EDGE_ROW_62_Left_275 VDD VSS gf180mcu_fd_sc_mcu9t5v0__endcap
XPHY_EDGE_ROW_63_Left_276 VDD VSS gf180mcu_fd_sc_mcu9t5v0__endcap
XPHY_EDGE_ROW_64_Left_277 VDD VSS gf180mcu_fd_sc_mcu9t5v0__endcap
XPHY_EDGE_ROW_65_Left_278 VDD VSS gf180mcu_fd_sc_mcu9t5v0__endcap
XPHY_EDGE_ROW_66_Left_279 VDD VSS gf180mcu_fd_sc_mcu9t5v0__endcap
XPHY_EDGE_ROW_67_Left_280 VDD VSS gf180mcu_fd_sc_mcu9t5v0__endcap