
* cell sync_fifo
* pin wr_data[0]
* pin almost_full
* pin wr_count[2]
* pin wr_count[3]
* pin wr_count[0]
* pin almost_empty
* pin rd_count[0]
* pin wr_count[4]
* pin wr_count[1]
* pin rd_count[3]
* pin rd_count[2]
* pin rd_count[4]
* pin rd_count[1]
* pin full
* pin wr_en
* pin empty
* pin rd_en
* pin rd_data[7]
* pin rd_data[2]
* pin rd_data[1]
* pin rst_n
* pin rd_data[6]
* pin rd_data[3]
* pin rd_data[4]
* pin rd_data[5]
* pin rd_data[0]
* pin wr_data[4]
* pin wr_data[3]
* pin clk
* pin wr_data[2]
* pin wr_data[1]
* pin wr_data[5]
* pin wr_data[7]
* pin wr_data[6]
.SUBCKT sync_fifo 1 2 3 4 5 6 7 8 9 10 11 12 13 14 15 16 17 18 19 20 21 22 87
+ 137 148 159 233 255 296 330 353 383 391 392
* net 1 wr_data[0]
* net 2 almost_full
* net 3 wr_count[2]
* net 4 wr_count[3]
* net 5 wr_count[0]
* net 6 almost_empty
* net 7 rd_count[0]
* net 8 wr_count[4]
* net 9 wr_count[1]
* net 10 rd_count[3]
* net 11 rd_count[2]
* net 12 rd_count[4]
* net 13 rd_count[1]
* net 14 full
* net 15 wr_en
* net 16 empty
* net 17 rd_en
* net 18 rd_data[7]
* net 19 rd_data[2]
* net 20 rd_data[1]
* net 21 rst_n
* net 22 rd_data[6]
* net 87 rd_data[3]
* net 137 rd_data[4]
* net 148 rd_data[5]
* net 159 rd_data[0]
* net 233 wr_data[4]
* net 255 wr_data[3]
* net 296 clk
* net 330 wr_data[2]
* net 353 wr_data[1]
* net 383 wr_data[5]
* net 391 wr_data[7]
* net 392 wr_data[6]
* cell instance $3 r0 *1 4.14,2.72
X$3 35 1 35 23 34 23 sky130_fd_sc_hd__buf_4
* cell instance $5 m0 *1 27.6,8.16
X$5 35 54 2 23 35 23 sky130_fd_sc_hd__clkbuf_1
* cell instance $9 r0 *1 27.14,8.16
X$9 35 67 3 23 35 23 sky130_fd_sc_hd__clkbuf_1
* cell instance $12 r0 *1 23.46,2.72
X$12 35 24 4 23 35 23 sky130_fd_sc_hd__clkbuf_1
* cell instance $15 m0 *1 24.84,8.16
X$15 35 52 5 23 35 23 sky130_fd_sc_hd__clkbuf_1
* cell instance $17 r0 *1 31.28,2.72
X$17 35 51 6 23 35 23 sky130_fd_sc_hd__clkbuf_1
* cell instance $21 r0 *1 32.66,2.72
X$21 35 53 7 23 35 23 sky130_fd_sc_hd__clkbuf_1
* cell instance $24 r0 *1 26.22,2.72
X$24 35 25 8 23 35 23 sky130_fd_sc_hd__clkbuf_1
* cell instance $27 r0 *1 29.9,2.72
X$27 35 77 9 23 35 23 sky130_fd_sc_hd__clkbuf_1
* cell instance $31 r0 *1 24.84,2.72
X$31 35 28 10 23 35 23 sky130_fd_sc_hd__clkbuf_1
* cell instance $35 r0 *1 34.04,2.72
X$35 35 38 11 23 35 23 sky130_fd_sc_hd__clkbuf_1
* cell instance $38 r0 *1 39.56,2.72
X$38 35 29 12 23 35 23 sky130_fd_sc_hd__clkbuf_1
* cell instance $40 r0 *1 38.18,2.72
X$40 35 26 13 23 35 23 sky130_fd_sc_hd__clkbuf_1
* cell instance $44 r0 *1 40.94,2.72
X$44 35 43 14 23 35 23 sky130_fd_sc_hd__clkbuf_1
* cell instance $46 r0 *1 43.24,2.72
X$46 23 42 15 35 35 23 sky130_fd_sc_hd__dlymetal6s2s_1
* cell instance $50 r0 *1 52.9,2.72
X$50 35 50 16 23 35 23 sky130_fd_sc_hd__clkbuf_1
* cell instance $52 r0 *1 60.72,2.72
X$52 35 17 35 27 23 23 sky130_fd_sc_hd__dlygate4sd3_1
* cell instance $56 r0 *1 82.8,2.72
X$56 35 48 18 23 35 23 sky130_fd_sc_hd__clkbuf_1
* cell instance $59 r0 *1 80.5,2.72
X$59 35 36 19 23 35 23 sky130_fd_sc_hd__clkbuf_1
* cell instance $62 m0 *1 80.5,8.16
X$62 35 62 20 23 35 23 sky130_fd_sc_hd__clkbuf_1
* cell instance $64 r0 *1 85.1,2.72
X$64 35 21 35 30 23 23 sky130_fd_sc_hd__dlygate4sd3_1
* cell instance $67 m0 *1 87.4,13.6
X$67 35 33 22 23 35 23 sky130_fd_sc_hd__clkbuf_1
* cell instance $95 r0 *1 22.08,2.72
X$95 35 28 24 23 35 23 sky130_fd_sc_hd__clkbuf_1
* cell instance $96 r0 *1 27.6,2.72
X$96 35 29 25 23 35 23 sky130_fd_sc_hd__clkbuf_1
* cell instance $99 r0 *1 35.42,2.72
X$99 35 26 68 40 105 23 35 23 sky130_fd_sc_hd__nand3b_1
* cell instance $111 r0 *1 59.34,2.72
X$111 35 27 41 23 35 23 sky130_fd_sc_hd__clkbuf_1
* cell instance $119 r0 *1 78.2,2.72
X$119 35 39 37 36 35 23 23 sky130_fd_sc_hd__and2_0
* cell instance $123 r0 *1 88.78,2.72
X$123 23 31 32 47 91 35 35 23 sky130_fd_sc_hd__dfrtp_1
* cell instance $126 r0 *1 98.44,2.72
X$126 35 32 37 33 35 23 23 sky130_fd_sc_hd__and2_0
* cell instance $141 m0 *1 12.42,8.16
X$141 23 60 61 59 58 35 35 23 sky130_fd_sc_hd__edfxtp_1
* cell instance $144 m0 *1 26.22,8.16
X$144 35 53 52 23 35 23 sky130_fd_sc_hd__clkbuf_1
* cell instance $146 m0 *1 29.44,8.16
X$146 23 54 38 28 26 29 35 35 23 sky130_fd_sc_hd__a31o_1
* cell instance $147 m0 *1 32.66,8.16
X$147 23 38 51 53 28 29 26 35 35 23 sky130_fd_sc_hd__a2111oi_0
* cell instance $148 m0 *1 35.88,8.16
X$148 35 40 35 23 53 23 sky130_fd_sc_hd__inv_1
* cell instance $150 m0 *1 37.72,8.16
X$150 23 55 66 43 82 70 35 35 23 sky130_fd_sc_hd__a211oi_4
* cell instance $152 m0 *1 45.54,8.16
X$152 35 44 56 35 71 23 23 sky130_fd_sc_hd__xor2_1
* cell instance $154 m0 *1 49.22,8.16
X$154 35 79 56 35 45 23 23 sky130_fd_sc_hd__xor2_1
* cell instance $156 m0 *1 52.9,8.16
X$156 35 65 35 23 50 23 sky130_fd_sc_hd__inv_1
* cell instance $162 m0 *1 59.34,8.16
X$162 23 31 79 46 64 35 35 23 sky130_fd_sc_hd__dfrtp_1
* cell instance $165 m0 *1 70.84,8.16
X$165 23 31 39 46 63 35 35 23 sky130_fd_sc_hd__dfrtp_1
* cell instance $167 m0 *1 81.88,8.16
X$167 35 49 37 48 35 23 23 sky130_fd_sc_hd__and2_0
* cell instance $169 m0 *1 84.64,8.16
X$169 23 31 37 47 90 35 35 23 sky130_fd_sc_hd__dfrtp_1
* cell instance $171 m0 *1 94.3,8.16
X$171 23 31 74 47 57 35 35 23 sky130_fd_sc_hd__dfrtp_1
* cell instance $176 r0 *1 4.14,8.16
X$176 23 60 88 117 75 35 35 23 sky130_fd_sc_hd__edfxtp_1
* cell instance $180 r0 *1 16.1,8.16
X$180 23 60 89 59 34 35 35 23 sky130_fd_sc_hd__edfxtp_1
* cell instance $182 r0 *1 28.98,8.16
X$182 35 38 67 23 35 23 sky130_fd_sc_hd__clkbuf_1
* cell instance $184 r0 *1 30.82,8.16
X$184 35 26 77 23 35 23 sky130_fd_sc_hd__clkbuf_1
* cell instance $187 r0 *1 33.58,8.16
X$187 35 26 68 40 103 23 35 23 sky130_fd_sc_hd__nor3b_1
* cell instance $189 r0 *1 36.8,8.16
X$189 35 81 68 35 28 23 23 sky130_fd_sc_hd__xor2_1
* cell instance $190 r0 *1 40.02,8.16
X$190 35 80 69 81 35 23 23 sky130_fd_sc_hd__nand2_1
* cell instance $191 r0 *1 41.4,8.16
X$191 35 82 70 29 23 35 23 sky130_fd_sc_hd__nor2_1
* cell instance $194 r0 *1 43.24,8.16
X$194 23 31 56 117 71 35 35 23 sky130_fd_sc_hd__dfrtp_1
* cell instance $195 r0 *1 52.44,8.16
X$195 23 31 72 46 96 35 35 23 sky130_fd_sc_hd__dfrtp_4
* cell instance $196 r0 *1 63.02,8.16
X$196 35 41 65 73 35 23 23 sky130_fd_sc_hd__nand2_1
* cell instance $197 r0 *1 64.4,8.16
X$197 23 73 85 35 35 23 sky130_fd_sc_hd__buf_6
* cell instance $198 r0 *1 68.54,8.16
X$198 35 41 65 95 94 35 23 23 sky130_fd_sc_hd__nand3_1
* cell instance $202 r0 *1 72.68,8.16
X$202 23 63 39 78 85 35 35 23 sky130_fd_sc_hd__mux2_1
* cell instance $204 r0 *1 77.74,8.16
X$204 35 93 37 62 35 23 23 sky130_fd_sc_hd__and2_0
* cell instance $205 r0 *1 80.04,8.16
X$205 23 31 49 47 92 35 35 23 sky130_fd_sc_hd__dfrtp_1
* cell instance $206 r0 *1 89.24,8.16
X$206 23 30 31 35 35 23 sky130_fd_sc_hd__buf_6
* cell instance $211 r0 *1 98.44,8.16
X$211 23 57 74 76 85 35 35 23 sky130_fd_sc_hd__mux2_1
* cell instance $212 r0 *1 102.58,8.16
X$212 35 74 37 86 35 23 23 sky130_fd_sc_hd__and2_0
* cell instance $225 m0 *1 7.82,13.6
X$225 23 101 102 59 58 35 35 23 sky130_fd_sc_hd__edfxtp_1
* cell instance $231 m0 *1 29.44,13.6
X$231 23 55 38 80 69 103 35 35 23 sky130_fd_sc_hd__nand4b_2
* cell instance $232 m0 *1 34.96,13.6
X$232 35 38 105 80 69 35 66 23 23 sky130_fd_sc_hd__a211o_1
* cell instance $233 m0 *1 38.18,13.6
X$233 35 68 97 104 98 35 23 23 sky130_fd_sc_hd__nand3_1
* cell instance $234 m0 *1 40.02,13.6
X$234 23 65 66 82 70 55 35 35 23 sky130_fd_sc_hd__a2bb2o_1
* cell instance $235 m0 *1 43.7,13.6
X$235 23 130 70 98 45 35 35 23 sky130_fd_sc_hd__and3_1
* cell instance $238 m0 *1 51.52,13.6
X$238 35 83 72 96 35 23 23 sky130_fd_sc_hd__xnor2_1
* cell instance $243 m0 *1 58.42,13.6
X$243 35 41 65 99 83 35 23 23 sky130_fd_sc_hd__nand3_1
* cell instance $244 m0 *1 60.26,13.6
X$244 35 94 79 64 35 23 23 sky130_fd_sc_hd__xnor2_1
* cell instance $245 m0 *1 63.48,13.6
X$245 23 84 99 111 109 35 35 23 sky130_fd_sc_hd__and3_1
* cell instance $246 m0 *1 65.78,13.6
X$246 23 72 95 109 108 35 35 23 sky130_fd_sc_hd__and3_1
* cell instance $248 m0 *1 69,13.6
X$248 23 31 93 46 107 35 35 23 sky130_fd_sc_hd__dfrtp_1
* cell instance $250 m0 *1 80.04,13.6
X$250 23 92 49 106 85 35 35 23 sky130_fd_sc_hd__mux2_1
* cell instance $254 m0 *1 86.02,13.6
X$254 35 85 35 23 90 23 sky130_fd_sc_hd__inv_1
* cell instance $257 m0 *1 90.16,13.6
X$257 23 91 32 269 85 35 35 23 sky130_fd_sc_hd__mux2_1
* cell instance $258 m0 *1 94.3,13.6
X$258 23 31 112 47 100 35 35 23 sky130_fd_sc_hd__dfrtp_1
* cell instance $260 m0 *1 104.42,13.6
X$260 35 86 87 23 35 23 sky130_fd_sc_hd__clkbuf_1
* cell instance $263 r0 *1 4.14,13.6
X$263 23 101 121 117 75 35 35 23 sky130_fd_sc_hd__edfxtp_1
* cell instance $267 r0 *1 16.56,13.6
X$267 23 101 122 59 34 35 35 23 sky130_fd_sc_hd__edfxtp_1
* cell instance $270 r0 *1 28.98,13.6
X$270 23 97 104 38 35 35 23 sky130_fd_sc_hd__xor2_2
* cell instance $272 r0 *1 35.42,13.6
X$272 35 113 97 110 23 35 69 23 sky130_fd_sc_hd__a21oi_1
* cell instance $273 r0 *1 37.26,13.6
X$273 23 126 110 127 114 35 35 23 sky130_fd_sc_hd__ha_1
* cell instance $277 r0 *1 43.24,13.6
X$277 35 98 45 130 35 82 23 23 sky130_fd_sc_hd__a21oi_2
* cell instance $281 r0 *1 54.74,13.6
X$281 35 109 35 23 115 23 sky130_fd_sc_hd__clkinvlp_4
* cell instance $282 r0 *1 57.5,13.6
X$282 23 128 108 131 129 35 35 23 sky130_fd_sc_hd__ha_1
* cell instance $284 r0 *1 62.56,13.6
X$284 35 116 109 125 35 23 23 sky130_fd_sc_hd__xnor2_1
* cell instance $287 r0 *1 67.16,13.6
X$287 35 85 111 123 35 23 23 sky130_fd_sc_hd__xnor2_1
* cell instance $291 r0 *1 71.76,13.6
X$291 23 107 93 124 85 35 35 23 sky130_fd_sc_hd__mux2_1
* cell instance $292 r0 *1 75.9,13.6
X$292 35 41 108 65 116 35 23 23 sky130_fd_sc_hd__nand3_1
* cell instance $296 r0 *1 88.78,13.6
X$296 23 31 119 47 120 35 35 23 sky130_fd_sc_hd__dfrtp_1
* cell instance $299 r0 *1 98.44,13.6
X$299 23 100 112 118 85 35 35 23 sky130_fd_sc_hd__mux2_1
* cell instance $311 m0 *1 1.38,19.04
X$311 23 138 133 117 58 35 35 23 sky130_fd_sc_hd__edfxtp_1
* cell instance $314 m0 *1 17.02,19.04
X$314 23 111 170 140 102 61 133 84 35 35 23 sky130_fd_sc_hd__mux4_1
* cell instance $318 m0 *1 29.44,19.04
X$318 35 134 97 126 80 23 35 23 sky130_fd_sc_hd__nand3b_1
* cell instance $319 m0 *1 32.2,19.04
X$319 23 104 142 26 127 114 35 35 23 sky130_fd_sc_hd__fa_2
* cell instance $322 m0 *1 41.86,19.04
X$322 23 97 113 115 135 35 35 23 sky130_fd_sc_hd__ha_1
* cell instance $323 m0 *1 46.46,19.04
X$323 35 154 68 113 23 35 130 23 sky130_fd_sc_hd__a21oi_1
* cell instance $326 m0 *1 50.6,19.04
X$326 35 129 35 23 84 23 sky130_fd_sc_hd__buf_4
* cell instance $327 m0 *1 53.36,19.04
X$327 35 72 35 23 146 23 sky130_fd_sc_hd__clkinvlp_4
* cell instance $330 m0 *1 57.04,19.04
X$330 23 72 109 35 145 35 23 sky130_fd_sc_hd__nand2_8
* cell instance $333 m0 *1 65.78,19.04
X$333 23 31 143 46 125 35 35 23 sky130_fd_sc_hd__dfrtp_1
* cell instance $336 m0 *1 76.36,19.04
X$336 35 131 35 23 144 23 sky130_fd_sc_hd__buf_4
* cell instance $341 m0 *1 84.64,19.04
X$341 23 31 147 47 141 35 35 23 sky130_fd_sc_hd__dfrtp_1
* cell instance $343 m0 *1 95.68,19.04
X$343 23 120 119 150 85 35 35 23 sky130_fd_sc_hd__mux2_1
* cell instance $344 m0 *1 99.82,19.04
X$344 35 119 37 136 35 23 23 sky130_fd_sc_hd__and2_0
* cell instance $345 m0 *1 102.12,19.04
X$345 35 112 37 139 35 23 23 sky130_fd_sc_hd__and2_0
* cell instance $346 m0 *1 104.42,19.04
X$346 35 139 148 23 35 23 sky130_fd_sc_hd__clkbuf_1
* cell instance $349 r0 *1 4.14,19.04
X$349 23 138 160 117 75 35 35 23 sky130_fd_sc_hd__edfxtp_1
* cell instance $355 r0 *1 17.94,19.04
X$355 23 138 151 117 34 35 35 23 sky130_fd_sc_hd__edfxtp_1
* cell instance $356 r0 *1 28.98,19.04
X$356 23 144 153 163 122 89 151 132 35 35 23 sky130_fd_sc_hd__mux4_1
* cell instance $357 r0 *1 38.64,19.04
X$357 35 132 35 23 127 23 sky130_fd_sc_hd__clkinvlp_4
* cell instance $358 r0 *1 41.4,19.04
X$358 35 134 35 23 142 23 sky130_fd_sc_hd__inv_1
* cell instance $362 r0 *1 43.24,19.04
X$362 23 68 154 146 157 35 35 23 sky130_fd_sc_hd__ha_1
* cell instance $364 r0 *1 49.68,19.04
X$364 35 129 35 23 132 23 sky130_fd_sc_hd__buf_4
* cell instance $365 r0 *1 52.44,19.04
X$365 23 31 129 46 167 35 35 23 sky130_fd_sc_hd__dfrtp_1
* cell instance $369 r0 *1 64.86,19.04
X$369 23 144 111 35 35 23 sky130_fd_sc_hd__clkbuf_8
* cell instance $374 r0 *1 70.84,19.04
X$374 23 144 164 175 166 189 165 143 35 35 23 sky130_fd_sc_hd__mux4_1
* cell instance $377 r0 *1 81.88,19.04
X$377 23 141 147 187 85 35 35 23 sky130_fd_sc_hd__mux2_1
* cell instance $378 r0 *1 86.02,19.04
X$378 23 152 161 47 75 35 35 23 sky130_fd_sc_hd__edfxtp_1
* cell instance $385 r0 *1 99.82,19.04
X$385 35 147 37 149 35 23 23 sky130_fd_sc_hd__and2_0
* cell instance $387 r0 *1 102.58,19.04
X$387 35 149 159 23 35 23 sky130_fd_sc_hd__clkbuf_1
* cell instance $389 r0 *1 104.42,19.04
X$389 35 136 137 23 35 23 sky130_fd_sc_hd__clkbuf_1
* cell instance $397 m0 *1 7.36,24.48
X$397 23 111 155 169 121 88 160 84 35 35 23 sky130_fd_sc_hd__mux4_1
* cell instance $398 m0 *1 17.02,24.48
X$398 23 168 163 117 34 35 35 23 sky130_fd_sc_hd__edfxtp_1
* cell instance $401 m0 *1 29.44,24.48
X$401 23 155 156 145 186 158 35 35 23 sky130_fd_sc_hd__o22ai_4
* cell instance $402 m0 *1 36.8,24.48
X$402 23 40 134 131 193 35 35 23 sky130_fd_sc_hd__ha_1
* cell instance $405 m0 *1 43.7,24.48
X$405 23 31 157 117 190 35 35 23 sky130_fd_sc_hd__dfrtp_4
* cell instance $411 m0 *1 59.34,24.48
X$411 23 167 84 128 73 35 35 23 sky130_fd_sc_hd__mux2_1
* cell instance $412 m0 *1 63.48,24.48
X$412 23 46 35 35 23 sky130_fd_sc_hd__bufinv_16
* cell instance $413 m0 *1 74.52,24.48
X$413 23 31 131 46 123 35 35 23 sky130_fd_sc_hd__dfrtp_1
* cell instance $418 m0 *1 86.94,24.48
X$418 23 171 174 47 75 35 35 23 sky130_fd_sc_hd__edfxtp_1
* cell instance $419 m0 *1 97.98,24.48
X$419 35 222 162 150 23 35 23 sky130_fd_sc_hd__nor2_1
* cell instance $420 m0 *1 99.36,24.48
X$420 35 183 158 76 23 35 23 sky130_fd_sc_hd__nor2_1
* cell instance $426 r0 *1 4.14,24.48
X$426 23 168 140 59 58 35 35 23 sky130_fd_sc_hd__edfxtp_1
* cell instance $433 r0 *1 22.08,24.48
X$433 23 138 188 117 176 35 35 23 sky130_fd_sc_hd__edfxtp_1
* cell instance $434 r0 *1 33.12,24.48
X$434 23 170 156 145 305 162 35 35 23 sky130_fd_sc_hd__o22ai_4
* cell instance $440 r0 *1 43.24,24.48
X$440 35 177 157 35 190 23 23 sky130_fd_sc_hd__xor2_1
* cell instance $441 r0 *1 46.46,24.48
X$441 23 146 180 127 35 35 23 sky130_fd_sc_hd__nand2_4
* cell instance $442 r0 *1 50.6,24.48
X$442 23 72 115 35 156 35 23 sky130_fd_sc_hd__nand2_8
* cell instance $445 r0 *1 59.34,24.48
X$445 23 171 175 46 34 35 35 23 sky130_fd_sc_hd__edfxtp_1
* cell instance $449 r0 *1 70.84,24.48
X$449 23 196 46 35 35 23 sky130_fd_sc_hd__clkbuf_16
* cell instance $450 r0 *1 80.04,24.48
X$450 35 143 35 23 109 23 sky130_fd_sc_hd__buf_4
* cell instance $453 r0 *1 86.94,24.48
X$453 23 185 173 47 75 35 35 23 sky130_fd_sc_hd__edfxtp_1
* cell instance $458 r0 *1 98.9,24.48
X$458 35 181 180 172 182 183 23 35 23 sky130_fd_sc_hd__o22ai_1
* cell instance $466 m0 *1 3.22,29.92
X$466 23 168 169 59 75 35 35 23 sky130_fd_sc_hd__edfxtp_1
* cell instance $471 m0 *1 24.38,29.92
X$471 23 145 200 191 156 153 35 35 23 sky130_fd_sc_hd__o22ai_2
* cell instance $474 m0 *1 33.12,29.92
X$474 23 31 178 59 201 35 35 23 sky130_fd_sc_hd__dfrtp_1
* cell instance $475 m0 *1 42.32,29.92
X$475 23 396 194 178 114 35 35 23 sky130_fd_sc_hd__ha_1
* cell instance $476 m0 *1 46.92,29.92
X$476 23 195 192 35 35 23 sky130_fd_sc_hd__buf_6
* cell instance $477 m0 *1 51.06,29.92
X$477 35 114 42 135 178 35 179 23 23 sky130_fd_sc_hd__nand4_1
* cell instance $478 m0 *1 53.36,29.92
X$478 35 43 179 177 23 35 23 sky130_fd_sc_hd__nor2_1
* cell instance $481 m0 *1 57.04,29.92
X$481 23 146 182 84 35 35 23 sky130_fd_sc_hd__nand2_4
* cell instance $485 m0 *1 69,29.92
X$485 23 185 189 47 34 35 35 23 sky130_fd_sc_hd__edfxtp_1
* cell instance $486 m0 *1 80.04,29.92
X$486 35 197 200 187 23 35 23 sky130_fd_sc_hd__nor2_1
* cell instance $490 m0 *1 84.64,29.92
X$490 23 198 199 47 75 35 35 23 sky130_fd_sc_hd__edfxtp_1
* cell instance $491 m0 *1 95.68,29.92
X$491 23 184 181 174 161 173 199 109 35 35 23 sky130_fd_sc_hd__mux4_1
* cell instance $505 r0 *1 22.08,29.92
X$505 35 59 35 23 395 23 sky130_fd_sc_hd__clkinvlp_4
* cell instance $506 r0 *1 24.84,29.92
X$506 23 117 35 35 23 sky130_fd_sc_hd__bufinv_16
* cell instance $507 r0 *1 35.88,29.92
X$507 35 192 193 201 35 23 23 sky130_fd_sc_hd__xnor2_1
* cell instance $508 r0 *1 39.1,29.92
X$508 35 178 35 23 193 23 sky130_fd_sc_hd__inv_1
* cell instance $509 r0 *1 40.48,29.92
X$509 23 23 194 202 42 35 35 sky130_fd_sc_hd__nand2_2
* cell instance $515 r0 *1 44.16,29.92
X$515 35 42 43 23 35 195 23 sky130_fd_sc_hd__nor2b_2
* cell instance $516 r0 *1 47.38,29.92
X$516 23 31 114 46 203 35 35 23 sky130_fd_sc_hd__dfrtp_4
* cell instance $519 r0 *1 59.34,29.92
X$519 23 152 166 46 34 35 35 23 sky130_fd_sc_hd__edfxtp_1
* cell instance $525 r0 *1 71.76,29.92
X$525 23 196 47 35 35 23 sky130_fd_sc_hd__clkbuf_16
* cell instance $529 r0 *1 86.94,29.92
X$529 23 198 206 47 58 35 35 23 sky130_fd_sc_hd__edfxtp_1
* cell instance $538 m0 *1 6.9,35.36
X$538 23 138 207 59 210 35 35 23 sky130_fd_sc_hd__edfxtp_1
* cell instance $539 m0 *1 17.94,35.36
X$539 23 60 214 59 176 35 35 23 sky130_fd_sc_hd__edfxtp_1
* cell instance $541 m0 *1 29.44,35.36
X$541 23 196 117 35 35 23 sky130_fd_sc_hd__clkbuf_16
* cell instance $542 m0 *1 38.64,35.36
X$542 23 204 211 193 209 35 35 23 sky130_fd_sc_hd__ha_1
* cell instance $543 m0 *1 43.24,35.36
X$543 23 31 135 117 228 35 35 23 sky130_fd_sc_hd__dfrtp_4
* cell instance $547 m0 *1 57.04,35.36
X$547 23 203 204 114 195 35 35 23 sky130_fd_sc_hd__mux2_1
* cell instance $551 m0 *1 67.16,35.36
X$551 23 198 165 215 34 35 35 23 sky130_fd_sc_hd__edfxtp_1
* cell instance $552 m0 *1 78.2,35.36
X$552 35 182 208 180 164 197 23 35 23 sky130_fd_sc_hd__o22ai_1
* cell instance $558 m0 *1 91.08,35.36
X$558 23 185 205 47 58 35 35 23 sky130_fd_sc_hd__edfxtp_1
* cell instance $562 r0 *1 3.68,35.36
X$562 23 168 213 216 210 35 35 23 sky130_fd_sc_hd__edfxtp_1
* cell instance $566 r0 *1 15.64,35.36
X$566 23 111 226 213 235 223 207 84 35 35 23 sky130_fd_sc_hd__mux4_1
* cell instance $567 r0 *1 25.3,35.36
X$567 23 196 59 35 35 23 sky130_fd_sc_hd__clkbuf_16
* cell instance $569 r0 *1 34.96,35.36
X$569 23 397 217 178 209 35 35 23 sky130_fd_sc_hd__ha_1
* cell instance $570 r0 *1 39.56,35.36
X$570 35 230 135 35 228 23 23 sky130_fd_sc_hd__xor2_1
* cell instance $573 r0 *1 43.24,35.36
X$573 23 398 218 193 114 35 35 23 sky130_fd_sc_hd__ha_1
* cell instance $576 r0 *1 50.6,35.36
X$576 23 212 171 217 195 35 35 23 sky130_fd_sc_hd__and3_4
* cell instance $578 r0 *1 55.2,35.36
X$578 23 212 152 211 195 35 35 23 sky130_fd_sc_hd__and3_4
* cell instance $581 r0 *1 60.72,35.36
X$581 23 196 215 35 35 23 sky130_fd_sc_hd__clkbuf_16
* cell instance $587 r0 *1 73.14,35.36
X$587 35 143 35 23 254 23 sky130_fd_sc_hd__buf_4
* cell instance $588 r0 *1 75.9,35.36
X$588 35 247 250 78 23 35 23 sky130_fd_sc_hd__nor2_1
* cell instance $593 r0 *1 86.94,35.36
X$593 23 171 224 219 58 35 35 23 sky130_fd_sc_hd__edfxtp_1
* cell instance $596 r0 *1 98.44,35.36
X$596 35 220 180 221 182 222 23 35 23 sky130_fd_sc_hd__o22ai_1
* cell instance $611 m0 *1 9.66,40.8
X$611 23 60 223 216 210 35 35 23 sky130_fd_sc_hd__edfxtp_1
* cell instance $614 m0 *1 22.08,40.8
X$614 23 216 35 35 23 sky130_fd_sc_hd__inv_8
* cell instance $618 m0 *1 29.44,40.8
X$618 23 111 231 248 237 214 188 84 35 35 23 sky130_fd_sc_hd__mux4_1
* cell instance $619 m0 *1 39.1,40.8
X$619 35 135 157 239 23 35 23 sky130_fd_sc_hd__nor2b_1
* cell instance $620 m0 *1 41.4,40.8
X$620 35 114 35 23 209 23 sky130_fd_sc_hd__inv_1
* cell instance $621 m0 *1 42.78,40.8
X$621 23 43 202 44 227 35 35 23 sky130_fd_sc_hd__nor3b_4
* cell instance $622 m0 *1 49.68,40.8
X$622 35 157 135 212 23 35 23 sky130_fd_sc_hd__nor2_1
* cell instance $623 m0 *1 51.06,40.8
X$623 23 212 240 218 195 35 35 23 sky130_fd_sc_hd__and3_4
* cell instance $628 m0 *1 58.88,40.8
X$628 35 215 35 23 23 sky130_fd_sc_hd__inv_6
* cell instance $629 m0 *1 62.1,40.8
X$629 23 185 238 215 210 35 35 23 sky130_fd_sc_hd__edfxtp_1
* cell instance $631 m0 *1 74.06,40.8
X$631 23 196 219 35 35 23 sky130_fd_sc_hd__clkbuf_16
* cell instance $634 m0 *1 84.64,40.8
X$634 23 152 225 219 58 35 35 23 sky130_fd_sc_hd__edfxtp_1
* cell instance $635 m0 *1 95.68,40.8
X$635 23 184 220 224 225 205 206 109 35 35 23 sky130_fd_sc_hd__mux4_1
* cell instance $637 r0 *1 1.38,40.8
X$637 23 101 235 216 210 35 35 23 sky130_fd_sc_hd__edfxtp_1
* cell instance $645 r0 *1 16.56,40.8
X$645 35 229 35 23 23 sky130_fd_sc_hd__inv_6
* cell instance $646 r0 *1 19.78,40.8
X$646 23 101 237 229 176 35 35 23 sky130_fd_sc_hd__edfxtp_1
* cell instance $647 r0 *1 30.82,40.8
X$647 23 196 216 35 35 23 sky130_fd_sc_hd__clkbuf_16
* cell instance $655 r0 *1 43.7,40.8
X$655 35 43 202 230 23 35 23 sky130_fd_sc_hd__nor2_1
* cell instance $656 r0 *1 45.08,40.8
X$656 23 43 252 157 135 202 35 35 23 sky130_fd_sc_hd__nor4_4
* cell instance $657 r0 *1 52.9,40.8
X$657 23 231 234 156 232 145 35 35 23 sky130_fd_sc_hd__o22ai_2
* cell instance $659 r0 *1 59.34,40.8
X$659 23 171 249 215 210 35 35 23 sky130_fd_sc_hd__edfxtp_1
* cell instance $664 r0 *1 70.84,40.8
X$664 23 152 236 219 210 35 35 23 sky130_fd_sc_hd__edfxtp_1
* cell instance $668 r0 *1 86.94,40.8
X$668 23 152 244 219 176 35 35 23 sky130_fd_sc_hd__edfxtp_1
* cell instance $673 r0 *1 98.44,40.8
X$673 35 266 234 118 23 35 23 sky130_fd_sc_hd__nor2_1
* cell instance $677 r0 *1 103.04,40.8
X$677 35 233 35 23 58 23 sky130_fd_sc_hd__buf_4
* cell instance $683 m0 *1 17.94,46.24
X$683 23 168 248 229 176 35 35 23 sky130_fd_sc_hd__edfxtp_1
* cell instance $687 m0 *1 32.2,46.24
X$687 23 226 250 156 259 145 35 35 23 sky130_fd_sc_hd__o22ai_2
* cell instance $689 m0 *1 37.26,46.24
X$689 23 192 168 217 239 35 35 23 sky130_fd_sc_hd__and3_4
* cell instance $690 m0 *1 41.4,46.24
X$690 23 192 101 211 239 35 35 23 sky130_fd_sc_hd__and3_4
* cell instance $691 m0 *1 45.54,46.24
X$691 35 157 135 251 23 35 23 sky130_fd_sc_hd__nor2b_1
* cell instance $692 m0 *1 47.84,46.24
X$692 23 192 198 211 251 35 35 23 sky130_fd_sc_hd__and3_4
* cell instance $696 m0 *1 57.04,46.24
X$696 23 198 241 215 210 35 35 23 sky130_fd_sc_hd__edfxtp_1
* cell instance $697 m0 *1 68.08,46.24
X$697 23 261 246 249 236 238 241 109 35 35 23 sky130_fd_sc_hd__mux4_1
* cell instance $698 m0 *1 77.74,46.24
X$698 35 219 23 35 23 sky130_fd_sc_hd__inv_4
* cell instance $699 m0 *1 80.04,46.24
X$699 35 246 180 242 182 247 23 35 23 sky130_fd_sc_hd__o22ai_1
* cell instance $702 m0 *1 84.64,46.24
X$702 23 185 243 219 176 35 35 23 sky130_fd_sc_hd__edfxtp_1
* cell instance $703 m0 *1 95.68,46.24
X$703 23 184 257 245 244 243 258 254 35 35 23 sky130_fd_sc_hd__mux4_1
* cell instance $705 r0 *1 1.38,46.24
X$705 23 138 267 216 256 35 35 23 sky130_fd_sc_hd__edfxtp_1
* cell instance $713 r0 *1 22.08,46.24
X$713 23 196 229 35 35 23 sky130_fd_sc_hd__clkbuf_16
* cell instance $716 r0 *1 35.42,46.24
X$716 23 192 138 218 239 35 35 23 sky130_fd_sc_hd__and3_4
* cell instance $717 r0 *1 39.56,46.24
X$717 35 230 239 23 60 35 23 sky130_fd_sc_hd__and2_4
* cell instance $720 r0 *1 43.24,46.24
X$720 35 157 135 227 35 23 23 sky130_fd_sc_hd__and2_1
* cell instance $722 r0 *1 47.38,46.24
X$722 35 230 251 23 260 35 23 sky130_fd_sc_hd__and2_4
* cell instance $723 r0 *1 50.6,46.24
X$723 23 198 262 215 256 35 35 23 sky130_fd_sc_hd__edfxtp_1
* cell instance $734 r0 *1 79.58,46.24
X$734 23 198 258 219 176 35 35 23 sky130_fd_sc_hd__edfxtp_1
* cell instance $738 r0 *1 93.84,46.24
X$738 23 253 75 35 35 23 sky130_fd_sc_hd__buf_6
* cell instance $742 r0 *1 100.28,46.24
X$742 35 255 35 253 23 23 sky130_fd_sc_hd__dlygate4sd3_1
* cell instance $752 m0 *1 1.38,51.68
X$752 23 101 265 229 256 35 35 23 sky130_fd_sc_hd__edfxtp_1
* cell instance $755 m0 *1 17.94,51.68
X$755 23 101 270 216 263 35 35 23 sky130_fd_sc_hd__edfxtp_1
* cell instance $760 m0 *1 37.26,51.68
X$760 23 101 273 229 271 35 35 23 sky130_fd_sc_hd__edfxtp_1
* cell instance $763 m0 *1 50.6,51.68
X$763 23 192 185 217 251 35 35 23 sky130_fd_sc_hd__and3_4
* cell instance $772 m0 *1 73.14,51.68
X$772 23 185 272 219 271 35 35 23 sky130_fd_sc_hd__edfxtp_1
* cell instance $776 m0 *1 88.78,51.68
X$776 35 277 264 269 23 35 23 sky130_fd_sc_hd__nor2_1
* cell instance $778 m0 *1 90.62,51.68
X$778 23 185 268 219 263 35 35 23 sky130_fd_sc_hd__edfxtp_1
* cell instance $779 m0 *1 101.66,51.68
X$779 35 257 180 354 182 266 23 35 23 sky130_fd_sc_hd__o22ai_1
* cell instance $783 r0 *1 4.14,51.68
X$783 23 168 275 229 256 35 35 23 sky130_fd_sc_hd__edfxtp_1
* cell instance $788 r0 *1 17.02,51.68
X$788 23 168 278 229 263 35 35 23 sky130_fd_sc_hd__edfxtp_1
* cell instance $790 r0 *1 31.74,51.68
X$790 23 168 281 229 271 35 35 23 sky130_fd_sc_hd__edfxtp_1
* cell instance $794 r0 *1 44.16,51.68
X$794 23 307 264 156 365 145 35 35 23 sky130_fd_sc_hd__o22ai_2
* cell instance $797 r0 *1 51.52,51.68
X$797 23 185 274 215 256 35 35 23 sky130_fd_sc_hd__edfxtp_1
* cell instance $800 r0 *1 66.7,51.68
X$800 35 283 180 282 182 295 23 35 23 sky130_fd_sc_hd__o22ai_1
* cell instance $807 r0 *1 73.6,51.68
X$807 23 184 279 308 294 272 280 254 35 35 23 sky130_fd_sc_hd__mux4_1
* cell instance $808 r0 *1 83.26,51.68
X$808 23 171 245 219 176 35 35 23 sky130_fd_sc_hd__edfxtp_1
* cell instance $810 r0 *1 94.76,51.68
X$810 35 301 180 276 182 277 23 35 23 sky130_fd_sc_hd__o22ai_1
* cell instance $826 m0 *1 6.9,57.12
X$826 23 111 291 275 265 302 267 84 35 35 23 sky130_fd_sc_hd__mux4_1
* cell instance $827 m0 *1 16.56,57.12
X$827 23 138 304 300 263 35 35 23 sky130_fd_sc_hd__edfxtp_1
* cell instance $831 m0 *1 29.44,57.12
X$831 23 291 284 156 375 145 35 35 23 sky130_fd_sc_hd__o22ai_2
* cell instance $833 m0 *1 35.88,57.12
X$833 23 138 309 306 271 35 35 23 sky130_fd_sc_hd__edfxtp_1
* cell instance $836 m0 *1 48.3,57.12
X$836 23 296 196 35 35 23 sky130_fd_sc_hd__clkbuf_8
* cell instance $837 m0 *1 53.36,57.12
X$837 35 297 156 298 145 293 23 35 23 sky130_fd_sc_hd__o22ai_1
* cell instance $840 m0 *1 57.04,57.12
X$840 23 261 283 316 285 274 262 109 35 35 23 sky130_fd_sc_hd__mux4_1
* cell instance $841 m0 *1 66.7,57.12
X$841 35 295 284 124 23 35 23 sky130_fd_sc_hd__nor2_1
* cell instance $842 m0 *1 68.08,57.12
X$842 23 152 294 286 271 35 35 23 sky130_fd_sc_hd__edfxtp_1
* cell instance $843 m0 *1 79.12,57.12
X$843 35 292 293 106 23 35 23 sky130_fd_sc_hd__nor2_1
* cell instance $845 m0 *1 80.96,57.12
X$845 35 279 180 290 182 292 23 35 23 sky130_fd_sc_hd__o22ai_1
* cell instance $848 m0 *1 84.64,57.12
X$848 23 152 289 303 263 35 35 23 sky130_fd_sc_hd__edfxtp_1
* cell instance $849 m0 *1 95.68,57.12
X$849 23 184 301 288 289 268 287 254 35 35 23 sky130_fd_sc_hd__mux4_1
* cell instance $851 r0 *1 1.38,57.12
X$851 23 60 302 300 256 35 35 23 sky130_fd_sc_hd__edfxtp_1
* cell instance $857 r0 *1 16.56,57.12
X$857 23 60 299 300 263 35 35 23 sky130_fd_sc_hd__edfxtp_1
* cell instance $858 r0 *1 27.6,57.12
X$858 23 111 307 278 270 299 304 84 35 35 23 sky130_fd_sc_hd__mux4_1
* cell instance $865 r0 *1 45.54,57.12
X$865 23 261 297 281 273 310 309 132 35 35 23 sky130_fd_sc_hd__mux4_1
* cell instance $868 r0 *1 57.5,57.12
X$868 23 152 285 286 256 35 35 23 sky130_fd_sc_hd__edfxtp_1
* cell instance $873 r0 *1 71.3,57.12
X$873 23 198 280 286 271 35 35 23 sky130_fd_sc_hd__edfxtp_1
* cell instance $876 r0 *1 86.94,57.12
X$876 23 198 287 303 263 35 35 23 sky130_fd_sc_hd__edfxtp_1
* cell instance $896 m0 *1 19.32,62.56
X$896 23 329 315 305 261 314 132 331 35 35 23 sky130_fd_sc_hd__mux4_2
* cell instance $903 m0 *1 35.88,62.56
X$903 23 60 310 306 271 35 35 23 sky130_fd_sc_hd__edfxtp_1
* cell instance $905 m0 *1 50.6,62.56
X$905 23 192 328 218 251 35 35 23 sky130_fd_sc_hd__and3_4
* cell instance $912 m0 *1 63.94,62.56
X$912 23 171 308 286 271 35 35 23 sky130_fd_sc_hd__edfxtp_1
* cell instance $921 m0 *1 91.54,62.56
X$921 23 171 288 303 263 35 35 23 sky130_fd_sc_hd__edfxtp_1
* cell instance $927 r0 *1 4.14,62.56
X$927 23 312 313 300 34 35 35 23 sky130_fd_sc_hd__edfxtp_1
* cell instance $932 r0 *1 17.94,62.56
X$932 23 111 191 313 318 326 319 84 35 35 23 sky130_fd_sc_hd__mux4_1
* cell instance $937 r0 *1 34.5,62.56
X$937 23 192 317 218 227 35 35 23 sky130_fd_sc_hd__and3_4
* cell instance $938 r0 *1 38.64,62.56
X$938 23 192 312 217 227 35 35 23 sky130_fd_sc_hd__and3_4
* cell instance $941 r0 *1 43.24,62.56
X$941 23 192 320 211 227 35 35 23 sky130_fd_sc_hd__and3_4
* cell instance $944 r0 *1 49.68,62.56
X$944 23 171 316 286 256 35 35 23 sky130_fd_sc_hd__edfxtp_1
* cell instance $945 r0 *1 60.72,62.56
X$945 23 111 208 311 321 337 327 109 35 35 23 sky130_fd_sc_hd__mux4_1
* cell instance $954 r0 *1 86.94,62.56
X$954 23 260 323 303 58 35 35 23 sky130_fd_sc_hd__edfxtp_1
* cell instance $968 m0 *1 1.84,68
X$968 23 317 319 300 34 35 35 23 sky130_fd_sc_hd__edfxtp_1
* cell instance $969 m0 *1 12.88,68
X$969 23 44 326 300 34 35 35 23 sky130_fd_sc_hd__edfxtp_1
* cell instance $974 m0 *1 29.44,68
X$974 23 320 318 306 34 35 35 23 sky130_fd_sc_hd__edfxtp_1
* cell instance $975 m0 *1 40.48,68
X$975 23 306 35 35 23 sky130_fd_sc_hd__inv_8
* cell instance $983 m0 *1 59.34,68
X$983 23 328 327 286 34 35 35 23 sky130_fd_sc_hd__edfxtp_1
* cell instance $985 m0 *1 72.22,68
X$985 23 240 321 303 34 35 35 23 sky130_fd_sc_hd__edfxtp_1
* cell instance $988 m0 *1 84.64,68
X$988 23 252 325 303 58 35 35 23 sky130_fd_sc_hd__edfxtp_1
* cell instance $989 m0 *1 95.68,68
X$989 23 184 221 325 324 323 322 254 35 35 23 sky130_fd_sc_hd__mux4_1
* cell instance $993 r0 *1 4.14,68
X$993 23 44 314 300 58 35 35 23 sky130_fd_sc_hd__edfxtp_1
* cell instance $999 r0 *1 20.7,68
X$999 23 320 315 306 58 35 35 23 sky130_fd_sc_hd__edfxtp_1
* cell instance $1000 r0 *1 31.74,68
X$1000 23 312 332 348 271 35 35 23 sky130_fd_sc_hd__edfxtp_1
* cell instance $1003 r0 *1 43.24,68
X$1003 23 196 306 35 35 23 sky130_fd_sc_hd__clkbuf_16
* cell instance $1004 r0 *1 52.44,68
X$1004 23 252 311 286 34 35 35 23 sky130_fd_sc_hd__edfxtp_1
* cell instance $1005 r0 *1 63.48,68
X$1005 35 286 35 23 23 sky130_fd_sc_hd__inv_6
* cell instance $1012 r0 *1 74.06,68
X$1012 35 303 23 35 23 sky130_fd_sc_hd__inv_4
* cell instance $1014 r0 *1 77.28,68
X$1014 23 328 322 303 58 35 35 23 sky130_fd_sc_hd__edfxtp_1