* CDL Netlist generated by OpenROAD

*.BUSDELIMITER [

.SUBCKT sync_fifo almost_empty almost_full clk empty full
+ rd_count[0] rd_count[1] rd_count[2] rd_count[3] rd_count[4]
+ rd_data[0] rd_data[1] rd_data[2] rd_data[3] rd_data[4] rd_data[5]
+ rd_data[6] rd_data[7] rd_en rst_n wr_count[0] wr_count[1]
+ wr_count[2] wr_count[3] wr_count[4] wr_data[0] wr_data[1]
+ wr_data[2] wr_data[3] wr_data[4] wr_data[5] wr_data[6] wr_data[7]
+ wr_en
X_158_ _141_ _146_ _138_ VSS VSS VDD VDD _038_ sky130_fd_sc_hd__nand3_1
X_159_ _141_ _145_ _140_ VSS VSS VDD VDD _039_ sky130_fd_sc_hd__a21oi_1
X_160_ wr_ptr\[4\] rd_ptr\[4\] VSS VSS VDD VDD _040_ sky130_fd_sc_hd__xor2_1
X_161_ _038_ _039_ _040_ VSS VSS VDD VDD _041_ sky130_fd_sc_hd__a21oi_2
X_162_ _038_ _039_ _040_ VSS VSS VDD VDD _042_ sky130_fd_sc_hd__and3_1
X_163_ _041_ _042_ VSS VSS VDD VDD net20 sky130_fd_sc_hd__nor2_1
X_164_ _157_ VSS VSS VDD VDD net16 sky130_fd_sc_hd__inv_1
X_165_ _156_ _143_ _146_ VSS VSS VDD VDD _043_ sky130_fd_sc_hd__nand3b_1
X_166_ _146_ _142_ _145_ VSS VSS VDD VDD _044_ sky130_fd_sc_hd__a21oi_1
X_167_ _043_ _044_ VSS VSS VDD VDD _045_ sky130_fd_sc_hd__nand2_1
X_168_ _141_ _045_ VSS VSS VDD VDD net19 sky130_fd_sc_hd__xor2_1
X_169_ _146_ _138_ VSS VSS VDD VDD net18 sky130_fd_sc_hd__xor2_2
X_170_ net17 _157_ _141_ VSS VSS VDD VDD _046_ sky130_fd_sc_hd__nand3b_1
X_171_ _043_ _044_ net18 _046_ VSS VSS VDD VDD _047_ sky130_fd_sc_hd__a211o_1
X_172_ _141_ net17 _157_ VSS VSS VDD VDD _048_ sky130_fd_sc_hd__nor3b_1
X_173_ net18 _043_ _044_ _048_ VSS VSS VDD VDD _049_ sky130_fd_sc_hd__nand4b_2
X_174_ _047_ _049_ _041_ _042_ VSS VSS VDD VDD net15 sky130_fd_sc_hd__a211oi_4
X_175_ _041_ _042_ _047_ _049_ VSS VSS VDD VDD _050_ sky130_fd_sc_hd__a2bb2o_1
X_176_ _050_ VSS VSS VDD VDD net14 sky130_fd_sc_hd__inv_1
X_177_ net2 _050_ VSS VSS VDD VDD _051_ sky130_fd_sc_hd__nand2_1
X_178_ _051_ VSS VSS VDD VDD _052_ sky130_fd_sc_hd__buf_6
X_179_ _052_ VSS VSS VDD VDD _000_ sky130_fd_sc_hd__inv_1
X_180_ wr_ptr\[3\] wr_ptr\[2\] VSS VSS VDD VDD _053_ sky130_fd_sc_hd__nor2_1
X_181_ net15 net11 VSS VSS VDD VDD _054_ sky130_fd_sc_hd__nor2b_2
X_182_ _149_ _053_ _054_ VSS VSS VDD VDD _001_ sky130_fd_sc_hd__and3_4
X_183_ _152_ _053_ _054_ VSS VSS VDD VDD _008_ sky130_fd_sc_hd__and3_4
X_184_ _150_ _053_ _054_ VSS VSS VDD VDD _009_ sky130_fd_sc_hd__and3_4
X_185_ net11 _154_ VSS VSS VDD VDD _055_ sky130_fd_sc_hd__nand2_2
X_186_ wr_ptr\[3\] wr_ptr\[2\] net15 _055_ VSS VSS VDD VDD
+ _010_ sky130_fd_sc_hd__nor4_4
X_187_ _054_ VSS VSS VDD VDD _056_ sky130_fd_sc_hd__buf_6
X_188_ wr_ptr\[3\] wr_ptr\[2\] VSS VSS VDD VDD _057_ sky130_fd_sc_hd__nor2b_1
X_189_ _149_ _056_ _057_ VSS VSS VDD VDD _011_ sky130_fd_sc_hd__and3_4
X_190_ _152_ _056_ _057_ VSS VSS VDD VDD _012_ sky130_fd_sc_hd__and3_4
X_191_ _150_ _056_ _057_ VSS VSS VDD VDD _013_ sky130_fd_sc_hd__and3_4
X_192_ net15 _055_ VSS VSS VDD VDD _058_ sky130_fd_sc_hd__nor2_1
X_193_ _058_ _057_ VSS VSS VDD VDD _014_ sky130_fd_sc_hd__and2_4
X_194_ wr_ptr\[2\] wr_ptr\[3\] VSS VSS VDD VDD _059_ sky130_fd_sc_hd__nor2b_1
X_195_ _149_ _056_ _059_ VSS VSS VDD VDD _015_ sky130_fd_sc_hd__and3_4
X_196_ _152_ _056_ _059_ VSS VSS VDD VDD _016_ sky130_fd_sc_hd__and3_4
X_197_ _150_ _056_ _059_ VSS VSS VDD VDD _002_ sky130_fd_sc_hd__and3_4
X_198_ _058_ _059_ VSS VSS VDD VDD _003_ sky130_fd_sc_hd__and2_4
X_199_ wr_ptr\[3\] wr_ptr\[2\] VSS VSS VDD VDD _060_ sky130_fd_sc_hd__and2_1
X_200_ _149_ _056_ _060_ VSS VSS VDD VDD _004_ sky130_fd_sc_hd__and3_4
X_201_ _152_ _056_ _060_ VSS VSS VDD VDD _005_ sky130_fd_sc_hd__and3_4
X_202_ _150_ _056_ _060_ VSS VSS VDD VDD _006_ sky130_fd_sc_hd__and3_4
X_203_ net15 _055_ _060_ VSS VSS VDD VDD _007_ sky130_fd_sc_hd__nor3b_4
X_204_ rd_ptr\[3\] VSS VSS VDD VDD _139_ sky130_fd_sc_hd__clkinvlp_4
X_205_ rd_ptr\[1\] VSS VSS VDD VDD _061_ sky130_fd_sc_hd__buf_4
X_206_ _061_ VSS VSS VDD VDD _136_ sky130_fd_sc_hd__clkinvlp_4
X_207_ _156_ VSS VSS VDD VDD _137_ sky130_fd_sc_hd__inv_1
X_208_ rd_ptr\[2\] VSS VSS VDD VDD _062_ sky130_fd_sc_hd__buf_4
X_209_ _062_ VSS VSS VDD VDD _144_ sky130_fd_sc_hd__clkinvlp_4
X_210_ wr_ptr\[0\] VSS VSS VDD VDD _018_ sky130_fd_sc_hd__inv_1
X_211_ wr_ptr\[1\] VSS VSS VDD VDD _148_ sky130_fd_sc_hd__inv_1
X_212_ rd_ptr\[0\] VSS VSS VDD VDD _063_ sky130_fd_sc_hd__buf_4
X_213_ mem\[0\]\[0\] mem\[1\]\[0\] mem\[4\]\[0\] mem\[5\]\[0\]
+ _063_ rd_ptr\[2\] VSS VSS VDD VDD _064_ sky130_fd_sc_hd__mux4_1
X_214_ _136_ _139_ VSS VSS VDD VDD _065_ sky130_fd_sc_hd__nand2_4
X_215_ rd_ptr\[1\] VSS VSS VDD VDD _066_ sky130_fd_sc_hd__buf_4
X_216_ _066_ _139_ VSS VSS VDD VDD _067_ sky130_fd_sc_hd__nand2_4
X_217_ _063_ VSS VSS VDD VDD _068_ sky130_fd_sc_hd__clkbuf_8
X_218_ mem\[2\]\[0\] mem\[3\]\[0\] mem\[6\]\[0\] mem\[7\]\[0\]
+ _068_ _062_ VSS VSS VDD VDD _069_ sky130_fd_sc_hd__mux4_1
X_219_ _064_ _065_ _067_ _069_ VSS VSS VDD VDD _070_ sky130_fd_sc_hd__o22ai_1
X_220_ mem\[8\]\[0\] mem\[9\]\[0\] mem\[10\]\[0\] mem\[11\]\[0\]
+ _063_ _061_ VSS VSS VDD VDD _071_ sky130_fd_sc_hd__mux4_1
X_221_ _144_ rd_ptr\[3\] VSS VSS VDD VDD _072_ sky130_fd_sc_hd__nand2_8
X_222_ _062_ rd_ptr\[3\] VSS VSS VDD VDD _073_ sky130_fd_sc_hd__nand2_8
X_223_ mem\[12\]\[0\] mem\[13\]\[0\] mem\[14\]\[0\] mem\[15\]\[0\]
+ _068_ _066_ VSS VSS VDD VDD _074_ sky130_fd_sc_hd__mux4_1
X_224_ _071_ _072_ _073_ _074_ VSS VSS VDD VDD _075_ sky130_fd_sc_hd__o22ai_2
X_225_ _070_ _075_ VSS VSS VDD VDD _076_ sky130_fd_sc_hd__nor2_1
X_226_ _076_ rd_data_reg\[0\] _052_ VSS VSS VDD VDD _020_
+ sky130_fd_sc_hd__mux2_1
X_227_ _063_ VSS VSS VDD VDD _077_ sky130_fd_sc_hd__buf_4
X_228_ rd_ptr\[2\] VSS VSS VDD VDD _078_ sky130_fd_sc_hd__buf_4
X_229_ mem\[2\]\[1\] mem\[3\]\[1\] mem\[6\]\[1\] mem\[7\]\[1\]
+ _077_ _078_ VSS VSS VDD VDD _079_ sky130_fd_sc_hd__mux4_1
X_230_ _063_ VSS VSS VDD VDD _080_ sky130_fd_sc_hd__buf_4
X_231_ mem\[0\]\[1\] mem\[1\]\[1\] mem\[4\]\[1\] mem\[5\]\[1\]
+ _080_ _062_ VSS VSS VDD VDD _081_ sky130_fd_sc_hd__mux4_1
X_232_ _067_ _079_ _081_ _065_ VSS VSS VDD VDD _082_ sky130_fd_sc_hd__o22ai_1
X_233_ mem\[12\]\[1\] mem\[13\]\[1\] mem\[14\]\[1\] mem\[15\]\[1\]
+ _080_ _061_ VSS VSS VDD VDD _083_ sky130_fd_sc_hd__mux4_1
X_234_ mem\[8\]\[1\] mem\[9\]\[1\] mem\[10\]\[1\] mem\[11\]\[1\]
+ _068_ _066_ VSS VSS VDD VDD _084_ sky130_fd_sc_hd__mux4_1
X_235_ _073_ _083_ _084_ _072_ VSS VSS VDD VDD _085_ sky130_fd_sc_hd__o22ai_2
X_236_ _082_ _085_ VSS VSS VDD VDD _086_ sky130_fd_sc_hd__nor2_1
X_237_ _086_ rd_data_reg\[1\] _052_ VSS VSS VDD VDD _021_
+ sky130_fd_sc_hd__mux2_1
X_238_ mem\[2\]\[2\] mem\[3\]\[2\] mem\[6\]\[2\] mem\[7\]\[2\]
+ _077_ _078_ VSS VSS VDD VDD _087_ sky130_fd_sc_hd__mux4_1
X_239_ mem\[0\]\[2\] mem\[1\]\[2\] mem\[4\]\[2\] mem\[5\]\[2\]
+ _080_ _062_ VSS VSS VDD VDD _088_ sky130_fd_sc_hd__mux4_1
X_240_ _067_ _087_ _088_ _065_ VSS VSS VDD VDD _089_ sky130_fd_sc_hd__o22ai_1
X_241_ mem\[12\]\[2\] mem\[13\]\[2\] mem\[14\]\[2\] mem\[15\]\[2\]
+ _080_ _061_ VSS VSS VDD VDD _090_ sky130_fd_sc_hd__mux4_1
X_242_ mem\[8\]\[2\] mem\[9\]\[2\] mem\[10\]\[2\] mem\[11\]\[2\]
+ _068_ _066_ VSS VSS VDD VDD _091_ sky130_fd_sc_hd__mux4_1
X_243_ _073_ _090_ _091_ _072_ VSS VSS VDD VDD _092_ sky130_fd_sc_hd__o22ai_2
X_244_ _089_ _092_ VSS VSS VDD VDD _093_ sky130_fd_sc_hd__nor2_1
X_245_ _093_ rd_data_reg\[2\] _052_ VSS VSS VDD VDD _022_
+ sky130_fd_sc_hd__mux2_1
X_246_ mem\[2\]\[3\] mem\[3\]\[3\] mem\[6\]\[3\] mem\[7\]\[3\]
+ _077_ _078_ VSS VSS VDD VDD _094_ sky130_fd_sc_hd__mux4_1
X_247_ mem\[0\]\[3\] mem\[1\]\[3\] mem\[4\]\[3\] mem\[5\]\[3\]
+ _077_ _062_ VSS VSS VDD VDD _095_ sky130_fd_sc_hd__mux4_1
X_248_ _067_ _094_ _095_ _065_ VSS VSS VDD VDD _096_ sky130_fd_sc_hd__o22ai_1
X_249_ mem\[12\]\[3\] mem\[13\]\[3\] mem\[14\]\[3\] mem\[15\]\[3\]
+ _080_ _061_ VSS VSS VDD VDD _097_ sky130_fd_sc_hd__mux4_4
X_250_ mem\[8\]\[3\] mem\[9\]\[3\] mem\[10\]\[3\] mem\[11\]\[3\]
+ _068_ _066_ VSS VSS VDD VDD _098_ sky130_fd_sc_hd__mux4_1
X_251_ _073_ _097_ _098_ _072_ VSS VSS VDD VDD _099_ sky130_fd_sc_hd__o22ai_4
X_252_ _096_ _099_ VSS VSS VDD VDD _100_ sky130_fd_sc_hd__nor2_1
X_253_ _100_ rd_data_reg\[3\] _052_ VSS VSS VDD VDD _023_
+ sky130_fd_sc_hd__mux2_1
X_254_ mem\[2\]\[4\] mem\[3\]\[4\] mem\[6\]\[4\] mem\[7\]\[4\]
+ _077_ _078_ VSS VSS VDD VDD _101_ sky130_fd_sc_hd__mux4_1
X_255_ mem\[0\]\[4\] mem\[1\]\[4\] mem\[4\]\[4\] mem\[5\]\[4\]
+ _077_ _062_ VSS VSS VDD VDD _102_ sky130_fd_sc_hd__mux4_1
X_256_ _067_ _101_ _102_ _065_ VSS VSS VDD VDD _103_ sky130_fd_sc_hd__o22ai_1
X_257_ mem\[12\]\[4\] mem\[13\]\[4\] mem\[14\]\[4\] mem\[15\]\[4\]
+ _080_ _061_ VSS VSS VDD VDD _104_ sky130_fd_sc_hd__mux4_2
X_258_ mem\[8\]\[4\] mem\[9\]\[4\] mem\[10\]\[4\] mem\[11\]\[4\]
+ _068_ _066_ VSS VSS VDD VDD _105_ sky130_fd_sc_hd__mux4_1
X_259_ _073_ _104_ _105_ _072_ VSS VSS VDD VDD _106_ sky130_fd_sc_hd__o22ai_4
X_260_ _103_ _106_ VSS VSS VDD VDD _107_ sky130_fd_sc_hd__nor2_1
X_261_ _107_ rd_data_reg\[4\] _052_ VSS VSS VDD VDD _024_
+ sky130_fd_sc_hd__mux2_1
X_262_ mem\[2\]\[5\] mem\[3\]\[5\] mem\[6\]\[5\] mem\[7\]\[5\]
+ _077_ _078_ VSS VSS VDD VDD _108_ sky130_fd_sc_hd__mux4_1
X_263_ mem\[0\]\[5\] mem\[1\]\[5\] mem\[4\]\[5\] mem\[5\]\[5\]
+ _077_ _078_ VSS VSS VDD VDD _109_ sky130_fd_sc_hd__mux4_1
X_264_ _067_ _108_ _109_ _065_ VSS VSS VDD VDD _110_ sky130_fd_sc_hd__o22ai_1
X_265_ mem\[12\]\[5\] mem\[13\]\[5\] mem\[14\]\[5\] mem\[15\]\[5\]
+ _080_ _061_ VSS VSS VDD VDD _111_ sky130_fd_sc_hd__mux4_2
X_266_ mem\[8\]\[5\] mem\[9\]\[5\] mem\[10\]\[5\] mem\[11\]\[5\]
+ _068_ _066_ VSS VSS VDD VDD _112_ sky130_fd_sc_hd__mux4_1
X_267_ _073_ _111_ _112_ _072_ VSS VSS VDD VDD _113_ sky130_fd_sc_hd__o22ai_2
X_268_ _110_ _113_ VSS VSS VDD VDD _114_ sky130_fd_sc_hd__nor2_1
X_269_ _114_ rd_data_reg\[5\] _052_ VSS VSS VDD VDD _025_
+ sky130_fd_sc_hd__mux2_1
X_270_ mem\[2\]\[6\] mem\[3\]\[6\] mem\[6\]\[6\] mem\[7\]\[6\]
+ _063_ _078_ VSS VSS VDD VDD _115_ sky130_fd_sc_hd__mux4_1
X_271_ mem\[0\]\[6\] mem\[1\]\[6\] mem\[4\]\[6\] mem\[5\]\[6\]
+ _077_ _078_ VSS VSS VDD VDD _116_ sky130_fd_sc_hd__mux4_1
X_272_ _067_ _115_ _116_ _065_ VSS VSS VDD VDD _117_ sky130_fd_sc_hd__o22ai_1
X_273_ mem\[12\]\[6\] mem\[13\]\[6\] mem\[14\]\[6\] mem\[15\]\[6\]
+ _080_ _061_ VSS VSS VDD VDD _118_ sky130_fd_sc_hd__mux4_1
X_274_ mem\[8\]\[6\] mem\[9\]\[6\] mem\[10\]\[6\] mem\[11\]\[6\]
+ _068_ _066_ VSS VSS VDD VDD _119_ sky130_fd_sc_hd__mux4_1
X_275_ _073_ _118_ _119_ _072_ VSS VSS VDD VDD _120_ sky130_fd_sc_hd__o22ai_2
X_276_ _117_ _120_ VSS VSS VDD VDD _121_ sky130_fd_sc_hd__nor2_1
X_277_ _121_ rd_data_reg\[6\] _052_ VSS VSS VDD VDD _026_
+ sky130_fd_sc_hd__mux2_1
X_278_ mem\[2\]\[7\] mem\[3\]\[7\] mem\[6\]\[7\] mem\[7\]\[7\]
+ _063_ _078_ VSS VSS VDD VDD _122_ sky130_fd_sc_hd__mux4_1
X_279_ mem\[0\]\[7\] mem\[1\]\[7\] mem\[4\]\[7\] mem\[5\]\[7\]
+ _077_ _078_ VSS VSS VDD VDD _123_ sky130_fd_sc_hd__mux4_1
X_280_ _067_ _122_ _123_ _065_ VSS VSS VDD VDD _124_ sky130_fd_sc_hd__o22ai_1
X_281_ mem\[12\]\[7\] mem\[13\]\[7\] mem\[14\]\[7\] mem\[15\]\[7\]
+ _080_ _061_ VSS VSS VDD VDD _125_ sky130_fd_sc_hd__mux4_1
X_282_ mem\[8\]\[7\] mem\[9\]\[7\] mem\[10\]\[7\] mem\[11\]\[7\]
+ _080_ _061_ VSS VSS VDD VDD _126_ sky130_fd_sc_hd__mux4_1
X_283_ _073_ _125_ _126_ _072_ VSS VSS VDD VDD _127_ sky130_fd_sc_hd__o22ai_1
X_284_ _124_ _127_ VSS VSS VDD VDD _128_ sky130_fd_sc_hd__nor2_1
X_285_ _128_ rd_data_reg\[7\] _052_ VSS VSS VDD VDD _027_
+ sky130_fd_sc_hd__mux2_1
X_286_ _068_ _052_ VSS VSS VDD VDD _028_ sky130_fd_sc_hd__xnor2_1
X_287_ _017_ _066_ _051_ VSS VSS VDD VDD _029_ sky130_fd_sc_hd__mux2_1
X_288_ net2 _147_ _050_ VSS VSS VDD VDD _129_ sky130_fd_sc_hd__nand3_1
X_289_ _062_ _129_ VSS VSS VDD VDD _030_ sky130_fd_sc_hd__xnor2_1
X_290_ _068_ _066_ _062_ VSS VSS VDD VDD _130_ sky130_fd_sc_hd__and3_1
X_291_ net2 _050_ _130_ VSS VSS VDD VDD _131_ sky130_fd_sc_hd__nand3_1
X_292_ rd_ptr\[3\] _131_ VSS VSS VDD VDD _031_ sky130_fd_sc_hd__xnor2_1
X_293_ _062_ rd_ptr\[3\] _147_ VSS VSS VDD VDD _132_ sky130_fd_sc_hd__and3_1
X_294_ net2 _050_ _132_ VSS VSS VDD VDD _133_ sky130_fd_sc_hd__nand3_1
X_295_ rd_ptr\[4\] _133_ VSS VSS VDD VDD _032_ sky130_fd_sc_hd__xnor2_1
X_296_ _018_ _056_ VSS VSS VDD VDD _033_ sky130_fd_sc_hd__xnor2_1
X_297_ wr_ptr\[1\] _019_ _054_ VSS VSS VDD VDD _034_ sky130_fd_sc_hd__mux2_1
X_298_ wr_ptr\[2\] _058_ VSS VSS VDD VDD _035_ sky130_fd_sc_hd__xor2_1
X_299_ net11 wr_ptr\[2\] wr_ptr\[1\] wr_ptr\[0\] VSS VSS VDD
+ VDD _134_ sky130_fd_sc_hd__nand4_1
X_300_ net15 _134_ VSS VSS VDD VDD _135_ sky130_fd_sc_hd__nor2_1
X_301_ wr_ptr\[3\] _135_ VSS VSS VDD VDD _036_ sky130_fd_sc_hd__xor2_1
X_302_ wr_ptr\[4\] _007_ VSS VSS VDD VDD _037_ sky130_fd_sc_hd__xor2_1
X_303_ net16 net17 net20 net19 net18 VSS VSS VDD VDD net12
+ sky130_fd_sc_hd__a2111oi_0
X_304_ net17 net19 net18 net20 VSS VSS VDD VDD net13 sky130_fd_sc_hd__a31o_1
X_305_ rd_data_reg\[0\] rd_valid VSS VSS VDD VDD net21 sky130_fd_sc_hd__and2_0
X_306_ rd_data_reg\[1\] rd_valid VSS VSS VDD VDD net22 sky130_fd_sc_hd__and2_0
X_307_ rd_data_reg\[2\] rd_valid VSS VSS VDD VDD net23 sky130_fd_sc_hd__and2_0
X_308_ rd_data_reg\[3\] rd_valid VSS VSS VDD VDD net24 sky130_fd_sc_hd__and2_0
X_309_ rd_data_reg\[4\] rd_valid VSS VSS VDD VDD net25 sky130_fd_sc_hd__and2_0
X_310_ rd_data_reg\[5\] rd_valid VSS VSS VDD VDD net26 sky130_fd_sc_hd__and2_0
X_311_ rd_data_reg\[6\] rd_valid VSS VSS VDD VDD net27 sky130_fd_sc_hd__and2_0
X_312_ rd_data_reg\[7\] rd_valid VSS VSS VDD VDD net28 sky130_fd_sc_hd__and2_0
X_313_ _136_ wr_ptr\[1\] _137_ VSS VSS VDD VDD _138_ net17
+ sky130_fd_sc_hd__fa_2
X_314_ _139_ wr_ptr\[3\] VSS VSS VDD VDD _140_ _141_ sky130_fd_sc_hd__ha_1
X_315_ _136_ wr_ptr\[1\] VSS VSS VDD VDD _142_ _143_ sky130_fd_sc_hd__ha_1
X_316_ _144_ wr_ptr\[2\] VSS VSS VDD VDD _145_ _146_ sky130_fd_sc_hd__ha_1
X_317_ rd_ptr\[0\] rd_ptr\[1\] VSS VSS VDD VDD _147_ _017_
+ sky130_fd_sc_hd__ha_1
X_318_ _018_ _148_ VSS VSS VDD VDD _149_ _019_ sky130_fd_sc_hd__ha_1
X_319_ _018_ wr_ptr\[1\] VSS VSS VDD VDD _150_ _151_ sky130_fd_sc_hd__ha_1
X_320_ wr_ptr\[0\] _148_ VSS VSS VDD VDD _152_ _153_ sky130_fd_sc_hd__ha_1
X_321_ wr_ptr\[0\] wr_ptr\[1\] VSS VSS VDD VDD _154_ _155_
+ sky130_fd_sc_hd__ha_1
X_322_ rd_ptr\[0\] _018_ VSS VSS VDD VDD _156_ _157_ sky130_fd_sc_hd__ha_1
X_323_ net16 VSS VSS VDD VDD net29 sky130_fd_sc_hd__clkbuf_1
X_324_ net17 VSS VSS VDD VDD net30 sky130_fd_sc_hd__clkbuf_1
X_325_ net18 VSS VSS VDD VDD net31 sky130_fd_sc_hd__clkbuf_1
X_326_ net19 VSS VSS VDD VDD net32 sky130_fd_sc_hd__clkbuf_1
X_327_ net20 VSS VSS VDD VDD net33 sky130_fd_sc_hd__clkbuf_1
Xmem\[0\]\[0\]$_DFFE_PP_ clknet_4_4_0_clk net3 _001_ VSS VSS
+ VDD VDD mem\[0\]\[0\] sky130_fd_sc_hd__edfxtp_1
Xmem\[0\]\[1\]$_DFFE_PP_ clknet_4_12_0_clk net4 _001_ VSS
+ VSS VDD VDD mem\[0\]\[1\] sky130_fd_sc_hd__edfxtp_1
Xmem\[0\]\[2\]$_DFFE_PP_ clknet_4_7_0_clk net5 _001_ VSS VSS
+ VDD VDD mem\[0\]\[2\] sky130_fd_sc_hd__edfxtp_1
Xmem\[0\]\[3\]$_DFFE_PP_ clknet_4_5_0_clk net6 _001_ VSS VSS
+ VDD VDD mem\[0\]\[3\] sky130_fd_sc_hd__edfxtp_1
Xmem\[0\]\[4\]$_DFFE_PP_ clknet_4_7_0_clk net7 _001_ VSS VSS
+ VDD VDD mem\[0\]\[4\] sky130_fd_sc_hd__edfxtp_1
Xmem\[0\]\[5\]$_DFFE_PP_ clknet_4_7_0_clk net8 _001_ VSS VSS
+ VDD VDD mem\[0\]\[5\] sky130_fd_sc_hd__edfxtp_1
Xmem\[0\]\[6\]$_DFFE_PP_ clknet_4_13_0_clk net9 _001_ VSS
+ VSS VDD VDD mem\[0\]\[6\] sky130_fd_sc_hd__edfxtp_1
Xmem\[0\]\[7\]$_DFFE_PP_ clknet_4_12_0_clk net10 _001_ VSS
+ VSS VDD VDD mem\[0\]\[7\] sky130_fd_sc_hd__edfxtp_1
Xmem\[10\]\[0\]$_DFFE_PP_ clknet_4_1_0_clk net3 _002_ VSS
+ VSS VDD VDD mem\[10\]\[0\] sky130_fd_sc_hd__edfxtp_1
Xmem\[10\]\[1\]$_DFFE_PP_ clknet_4_2_0_clk net4 _002_ VSS
+ VSS VDD VDD mem\[10\]\[1\] sky130_fd_sc_hd__edfxtp_1
Xmem\[10\]\[2\]$_DFFE_PP_ clknet_4_0_0_clk net5 _002_ VSS
+ VSS VDD VDD mem\[10\]\[2\] sky130_fd_sc_hd__edfxtp_1
Xmem\[10\]\[3\]$_DFFE_PP_ clknet_4_1_0_clk net6 _002_ VSS
+ VSS VDD VDD mem\[10\]\[3\] sky130_fd_sc_hd__edfxtp_1
Xmem\[10\]\[4\]$_DFFE_PP_ clknet_4_1_0_clk net7 _002_ VSS
+ VSS VDD VDD mem\[10\]\[4\] sky130_fd_sc_hd__edfxtp_1
Xmem\[10\]\[5\]$_DFFE_PP_ clknet_4_1_0_clk net8 _002_ VSS
+ VSS VDD VDD mem\[10\]\[5\] sky130_fd_sc_hd__edfxtp_1
Xmem\[10\]\[6\]$_DFFE_PP_ clknet_4_8_0_clk net9 _002_ VSS
+ VSS VDD VDD mem\[10\]\[6\] sky130_fd_sc_hd__edfxtp_1
Xmem\[10\]\[7\]$_DFFE_PP_ clknet_4_9_0_clk net10 _002_ VSS
+ VSS VDD VDD mem\[10\]\[7\] sky130_fd_sc_hd__edfxtp_1
Xmem\[11\]\[0\]$_DFFE_PP_ clknet_4_0_0_clk net3 _003_ VSS
+ VSS VDD VDD mem\[11\]\[0\] sky130_fd_sc_hd__edfxtp_1
Xmem\[11\]\[1\]$_DFFE_PP_ clknet_4_8_0_clk net4 _003_ VSS
+ VSS VDD VDD mem\[11\]\[1\] sky130_fd_sc_hd__edfxtp_1
Xmem\[11\]\[2\]$_DFFE_PP_ clknet_4_2_0_clk net5 _003_ VSS
+ VSS VDD VDD mem\[11\]\[2\] sky130_fd_sc_hd__edfxtp_1
Xmem\[11\]\[3\]$_DFFE_PP_ clknet_4_1_0_clk net6 _003_ VSS
+ VSS VDD VDD mem\[11\]\[3\] sky130_fd_sc_hd__edfxtp_1
Xmem\[11\]\[4\]$_DFFE_PP_ clknet_4_0_0_clk net7 _003_ VSS
+ VSS VDD VDD mem\[11\]\[4\] sky130_fd_sc_hd__edfxtp_1
Xmem\[11\]\[5\]$_DFFE_PP_ clknet_4_0_0_clk net8 _003_ VSS
+ VSS VDD VDD mem\[11\]\[5\] sky130_fd_sc_hd__edfxtp_1
Xmem\[11\]\[6\]$_DFFE_PP_ clknet_4_8_0_clk net9 _003_ VSS
+ VSS VDD VDD mem\[11\]\[6\] sky130_fd_sc_hd__edfxtp_1
Xmem\[11\]\[7\]$_DFFE_PP_ clknet_4_9_0_clk net10 _003_ VSS
+ VSS VDD VDD mem\[11\]\[7\] sky130_fd_sc_hd__edfxtp_1
Xmem\[12\]\[0\]$_DFFE_PP_ clknet_4_9_0_clk net3 _004_ VSS
+ VSS VDD VDD mem\[12\]\[0\] sky130_fd_sc_hd__edfxtp_1
Xmem\[12\]\[1\]$_DFFE_PP_ clknet_4_11_0_clk net4 _004_ VSS
+ VSS VDD VDD mem\[12\]\[1\] sky130_fd_sc_hd__edfxtp_1
Xmem\[12\]\[2\]$_DFFE_PP_ clknet_4_11_0_clk net5 _004_ VSS
+ VSS VDD VDD mem\[12\]\[2\] sky130_fd_sc_hd__edfxtp_1
Xmem\[12\]\[3\]$_DFFE_PP_ clknet_4_11_0_clk net6 _004_ VSS
+ VSS VDD VDD mem\[12\]\[3\] sky130_fd_sc_hd__edfxtp_1
Xmem\[12\]\[4\]$_DFFE_PP_ clknet_4_9_0_clk net7 _004_ VSS
+ VSS VDD VDD mem\[12\]\[4\] sky130_fd_sc_hd__edfxtp_1
Xmem\[12\]\[5\]$_DFFE_PP_ clknet_4_11_0_clk net8 _004_ VSS
+ VSS VDD VDD mem\[12\]\[5\] sky130_fd_sc_hd__edfxtp_1
Xmem\[12\]\[6\]$_DFFE_PP_ clknet_4_10_0_clk net9 _004_ VSS
+ VSS VDD VDD mem\[12\]\[6\] sky130_fd_sc_hd__edfxtp_1
Xmem\[12\]\[7\]$_DFFE_PP_ clknet_4_9_0_clk net10 _004_ VSS
+ VSS VDD VDD mem\[12\]\[7\] sky130_fd_sc_hd__edfxtp_1
Xmem\[13\]\[0\]$_DFFE_PP_ clknet_4_8_0_clk net3 _005_ VSS
+ VSS VDD VDD mem\[13\]\[0\] sky130_fd_sc_hd__edfxtp_1
Xmem\[13\]\[1\]$_DFFE_PP_ clknet_4_10_0_clk net4 _005_ VSS
+ VSS VDD VDD mem\[13\]\[1\] sky130_fd_sc_hd__edfxtp_1
Xmem\[13\]\[2\]$_DFFE_PP_ clknet_4_10_0_clk net5 _005_ VSS
+ VSS VDD VDD mem\[13\]\[2\] sky130_fd_sc_hd__edfxtp_1
Xmem\[13\]\[3\]$_DFFE_PP_ clknet_4_10_0_clk net6 _005_ VSS
+ VSS VDD VDD mem\[13\]\[3\] sky130_fd_sc_hd__edfxtp_1
Xmem\[13\]\[4\]$_DFFE_PP_ clknet_4_8_0_clk net7 _005_ VSS
+ VSS VDD VDD mem\[13\]\[4\] sky130_fd_sc_hd__edfxtp_1
Xmem\[13\]\[5\]$_DFFE_PP_ clknet_4_11_0_clk net8 _005_ VSS
+ VSS VDD VDD mem\[13\]\[5\] sky130_fd_sc_hd__edfxtp_1
Xmem\[13\]\[6\]$_DFFE_PP_ clknet_4_10_0_clk net9 _005_ VSS
+ VSS VDD VDD mem\[13\]\[6\] sky130_fd_sc_hd__edfxtp_1
Xmem\[13\]\[7\]$_DFFE_PP_ clknet_4_10_0_clk net10 _005_ VSS
+ VSS VDD VDD mem\[13\]\[7\] sky130_fd_sc_hd__edfxtp_1
Xmem\[14\]\[0\]$_DFFE_PP_ clknet_4_8_0_clk net3 _006_ VSS
+ VSS VDD VDD mem\[14\]\[0\] sky130_fd_sc_hd__edfxtp_1
Xmem\[14\]\[1\]$_DFFE_PP_ clknet_4_10_0_clk net4 _006_ VSS
+ VSS VDD VDD mem\[14\]\[1\] sky130_fd_sc_hd__edfxtp_1
Xmem\[14\]\[2\]$_DFFE_PP_ clknet_4_10_0_clk net5 _006_ VSS
+ VSS VDD VDD mem\[14\]\[2\] sky130_fd_sc_hd__edfxtp_1
Xmem\[14\]\[3\]$_DFFE_PP_ clknet_4_10_0_clk net6 _006_ VSS
+ VSS VDD VDD mem\[14\]\[3\] sky130_fd_sc_hd__edfxtp_1
Xmem\[14\]\[4\]$_DFFE_PP_ clknet_4_8_0_clk net7 _006_ VSS
+ VSS VDD VDD mem\[14\]\[4\] sky130_fd_sc_hd__edfxtp_1
Xmem\[14\]\[5\]$_DFFE_PP_ clknet_4_11_0_clk net8 _006_ VSS
+ VSS VDD VDD mem\[14\]\[5\] sky130_fd_sc_hd__edfxtp_1
Xmem\[14\]\[6\]$_DFFE_PP_ clknet_4_11_0_clk net9 _006_ VSS
+ VSS VDD VDD mem\[14\]\[6\] sky130_fd_sc_hd__edfxtp_1
Xmem\[14\]\[7\]$_DFFE_PP_ clknet_4_11_0_clk net10 _006_ VSS
+ VSS VDD VDD mem\[14\]\[7\] sky130_fd_sc_hd__edfxtp_1
Xmem\[15\]\[0\]$_DFFE_PP_ clknet_4_8_0_clk net3 _007_ VSS
+ VSS VDD VDD mem\[15\]\[0\] sky130_fd_sc_hd__edfxtp_1
Xmem\[15\]\[1\]$_DFFE_PP_ clknet_4_10_0_clk net4 _007_ VSS
+ VSS VDD VDD mem\[15\]\[1\] sky130_fd_sc_hd__edfxtp_1
Xmem\[15\]\[2\]$_DFFE_PP_ clknet_4_10_0_clk net5 _007_ VSS
+ VSS VDD VDD mem\[15\]\[2\] sky130_fd_sc_hd__edfxtp_1
Xmem\[15\]\[3\]$_DFFE_PP_ clknet_4_8_0_clk net6 _007_ VSS
+ VSS VDD VDD mem\[15\]\[3\] sky130_fd_sc_hd__edfxtp_1
Xmem\[15\]\[4\]$_DFFE_PP_ clknet_4_8_0_clk net7 _007_ VSS
+ VSS VDD VDD mem\[15\]\[4\] sky130_fd_sc_hd__edfxtp_1
Xmem\[15\]\[5\]$_DFFE_PP_ clknet_4_11_0_clk net8 _007_ VSS
+ VSS VDD VDD mem\[15\]\[5\] sky130_fd_sc_hd__edfxtp_1
Xmem\[15\]\[6\]$_DFFE_PP_ clknet_4_11_0_clk net9 _007_ VSS
+ VSS VDD VDD mem\[15\]\[6\] sky130_fd_sc_hd__edfxtp_1
Xmem\[15\]\[7\]$_DFFE_PP_ clknet_4_11_0_clk net10 _007_ VSS
+ VSS VDD VDD mem\[15\]\[7\] sky130_fd_sc_hd__edfxtp_1
Xmem\[1\]\[0\]$_DFFE_PP_ clknet_4_4_0_clk net3 _008_ VSS VSS
+ VDD VDD mem\[1\]\[0\] sky130_fd_sc_hd__edfxtp_1
Xmem\[1\]\[1\]$_DFFE_PP_ clknet_4_12_0_clk net4 _008_ VSS
+ VSS VDD VDD mem\[1\]\[1\] sky130_fd_sc_hd__edfxtp_1
Xmem\[1\]\[2\]$_DFFE_PP_ clknet_4_6_0_clk net5 _008_ VSS VSS
+ VDD VDD mem\[1\]\[2\] sky130_fd_sc_hd__edfxtp_1
Xmem\[1\]\[3\]$_DFFE_PP_ clknet_4_5_0_clk net6 _008_ VSS VSS
+ VDD VDD mem\[1\]\[3\] sky130_fd_sc_hd__edfxtp_1
Xmem\[1\]\[4\]$_DFFE_PP_ clknet_4_7_0_clk net7 _008_ VSS VSS
+ VDD VDD mem\[1\]\[4\] sky130_fd_sc_hd__edfxtp_1
Xmem\[1\]\[5\]$_DFFE_PP_ clknet_4_7_0_clk net8 _008_ VSS VSS
+ VDD VDD mem\[1\]\[5\] sky130_fd_sc_hd__edfxtp_1
Xmem\[1\]\[6\]$_DFFE_PP_ clknet_4_13_0_clk net9 _008_ VSS
+ VSS VDD VDD mem\[1\]\[6\] sky130_fd_sc_hd__edfxtp_1
Xmem\[1\]\[7\]$_DFFE_PP_ clknet_4_12_0_clk net10 _008_ VSS
+ VSS VDD VDD mem\[1\]\[7\] sky130_fd_sc_hd__edfxtp_1
Xmem\[2\]\[0\]$_DFFE_PP_ clknet_4_13_0_clk net3 _009_ VSS
+ VSS VDD VDD mem\[2\]\[0\] sky130_fd_sc_hd__edfxtp_1
Xmem\[2\]\[1\]$_DFFE_PP_ clknet_4_14_0_clk net4 _009_ VSS
+ VSS VDD VDD mem\[2\]\[1\] sky130_fd_sc_hd__edfxtp_1
Xmem\[2\]\[2\]$_DFFE_PP_ clknet_4_14_0_clk net5 _009_ VSS
+ VSS VDD VDD mem\[2\]\[2\] sky130_fd_sc_hd__edfxtp_1
Xmem\[2\]\[3\]$_DFFE_PP_ clknet_4_15_0_clk net6 _009_ VSS
+ VSS VDD VDD mem\[2\]\[3\] sky130_fd_sc_hd__edfxtp_1
Xmem\[2\]\[4\]$_DFFE_PP_ clknet_4_13_0_clk net7 _009_ VSS
+ VSS VDD VDD mem\[2\]\[4\] sky130_fd_sc_hd__edfxtp_1
Xmem\[2\]\[5\]$_DFFE_PP_ clknet_4_15_0_clk net8 _009_ VSS
+ VSS VDD VDD mem\[2\]\[5\] sky130_fd_sc_hd__edfxtp_1
Xmem\[2\]\[6\]$_DFFE_PP_ clknet_4_15_0_clk net9 _009_ VSS
+ VSS VDD VDD mem\[2\]\[6\] sky130_fd_sc_hd__edfxtp_1
Xmem\[2\]\[7\]$_DFFE_PP_ clknet_4_14_0_clk net10 _009_ VSS
+ VSS VDD VDD mem\[2\]\[7\] sky130_fd_sc_hd__edfxtp_1
Xmem\[3\]\[0\]$_DFFE_PP_ clknet_4_12_0_clk net3 _010_ VSS
+ VSS VDD VDD mem\[3\]\[0\] sky130_fd_sc_hd__edfxtp_1
Xmem\[3\]\[1\]$_DFFE_PP_ clknet_4_14_0_clk net4 _010_ VSS
+ VSS VDD VDD mem\[3\]\[1\] sky130_fd_sc_hd__edfxtp_1
Xmem\[3\]\[2\]$_DFFE_PP_ clknet_4_14_0_clk net5 _010_ VSS
+ VSS VDD VDD mem\[3\]\[2\] sky130_fd_sc_hd__edfxtp_1
Xmem\[3\]\[3\]$_DFFE_PP_ clknet_4_15_0_clk net6 _010_ VSS
+ VSS VDD VDD mem\[3\]\[3\] sky130_fd_sc_hd__edfxtp_1
Xmem\[3\]\[4\]$_DFFE_PP_ clknet_4_13_0_clk net7 _010_ VSS
+ VSS VDD VDD mem\[3\]\[4\] sky130_fd_sc_hd__edfxtp_1
Xmem\[3\]\[5\]$_DFFE_PP_ clknet_4_15_0_clk net8 _010_ VSS
+ VSS VDD VDD mem\[3\]\[5\] sky130_fd_sc_hd__edfxtp_1
Xmem\[3\]\[6\]$_DFFE_PP_ clknet_4_15_0_clk net9 _010_ VSS
+ VSS VDD VDD mem\[3\]\[6\] sky130_fd_sc_hd__edfxtp_1
Xmem\[3\]\[7\]$_DFFE_PP_ clknet_4_15_0_clk net10 _010_ VSS
+ VSS VDD VDD mem\[3\]\[7\] sky130_fd_sc_hd__edfxtp_1
Xmem\[4\]\[0\]$_DFFE_PP_ clknet_4_6_0_clk net3 _011_ VSS VSS
+ VDD VDD mem\[4\]\[0\] sky130_fd_sc_hd__edfxtp_1
Xmem\[4\]\[1\]$_DFFE_PP_ clknet_4_6_0_clk net4 _011_ VSS VSS
+ VDD VDD mem\[4\]\[1\] sky130_fd_sc_hd__edfxtp_1
Xmem\[4\]\[2\]$_DFFE_PP_ clknet_4_6_0_clk net5 _011_ VSS VSS
+ VDD VDD mem\[4\]\[2\] sky130_fd_sc_hd__edfxtp_1
Xmem\[4\]\[3\]$_DFFE_PP_ clknet_4_5_0_clk net6 _011_ VSS VSS
+ VDD VDD mem\[4\]\[3\] sky130_fd_sc_hd__edfxtp_1
Xmem\[4\]\[4\]$_DFFE_PP_ clknet_4_5_0_clk net7 _011_ VSS VSS
+ VDD VDD mem\[4\]\[4\] sky130_fd_sc_hd__edfxtp_1
Xmem\[4\]\[5\]$_DFFE_PP_ clknet_4_7_0_clk net8 _011_ VSS VSS
+ VDD VDD mem\[4\]\[5\] sky130_fd_sc_hd__edfxtp_1
Xmem\[4\]\[6\]$_DFFE_PP_ clknet_4_13_0_clk net9 _011_ VSS
+ VSS VDD VDD mem\[4\]\[6\] sky130_fd_sc_hd__edfxtp_1
Xmem\[4\]\[7\]$_DFFE_PP_ clknet_4_12_0_clk net10 _011_ VSS
+ VSS VDD VDD mem\[4\]\[7\] sky130_fd_sc_hd__edfxtp_1
Xmem\[5\]\[0\]$_DFFE_PP_ clknet_4_5_0_clk net3 _012_ VSS VSS
+ VDD VDD mem\[5\]\[0\] sky130_fd_sc_hd__edfxtp_1
Xmem\[5\]\[1\]$_DFFE_PP_ clknet_4_6_0_clk net4 _012_ VSS VSS
+ VDD VDD mem\[5\]\[1\] sky130_fd_sc_hd__edfxtp_1
Xmem\[5\]\[2\]$_DFFE_PP_ clknet_4_6_0_clk net5 _012_ VSS VSS
+ VDD VDD mem\[5\]\[2\] sky130_fd_sc_hd__edfxtp_1
Xmem\[5\]\[3\]$_DFFE_PP_ clknet_4_5_0_clk net6 _012_ VSS VSS
+ VDD VDD mem\[5\]\[3\] sky130_fd_sc_hd__edfxtp_1
Xmem\[5\]\[4\]$_DFFE_PP_ clknet_4_5_0_clk net7 _012_ VSS VSS
+ VDD VDD mem\[5\]\[4\] sky130_fd_sc_hd__edfxtp_1
Xmem\[5\]\[5\]$_DFFE_PP_ clknet_4_7_0_clk net8 _012_ VSS VSS
+ VDD VDD mem\[5\]\[5\] sky130_fd_sc_hd__edfxtp_1
Xmem\[5\]\[6\]$_DFFE_PP_ clknet_4_7_0_clk net9 _012_ VSS VSS
+ VDD VDD mem\[5\]\[6\] sky130_fd_sc_hd__edfxtp_1
Xmem\[5\]\[7\]$_DFFE_PP_ clknet_4_7_0_clk net10 _012_ VSS
+ VSS VDD VDD mem\[5\]\[7\] sky130_fd_sc_hd__edfxtp_1
Xmem\[6\]\[0\]$_DFFE_PP_ clknet_4_12_0_clk net3 _013_ VSS
+ VSS VDD VDD mem\[6\]\[0\] sky130_fd_sc_hd__edfxtp_1
Xmem\[6\]\[1\]$_DFFE_PP_ clknet_4_14_0_clk net4 _013_ VSS
+ VSS VDD VDD mem\[6\]\[1\] sky130_fd_sc_hd__edfxtp_1
Xmem\[6\]\[2\]$_DFFE_PP_ clknet_4_14_0_clk net5 _013_ VSS
+ VSS VDD VDD mem\[6\]\[2\] sky130_fd_sc_hd__edfxtp_1
Xmem\[6\]\[3\]$_DFFE_PP_ clknet_4_13_0_clk net6 _013_ VSS
+ VSS VDD VDD mem\[6\]\[3\] sky130_fd_sc_hd__edfxtp_1
Xmem\[6\]\[4\]$_DFFE_PP_ clknet_4_13_0_clk net7 _013_ VSS
+ VSS VDD VDD mem\[6\]\[4\] sky130_fd_sc_hd__edfxtp_1
Xmem\[6\]\[5\]$_DFFE_PP_ clknet_4_15_0_clk net8 _013_ VSS
+ VSS VDD VDD mem\[6\]\[5\] sky130_fd_sc_hd__edfxtp_1
Xmem\[6\]\[6\]$_DFFE_PP_ clknet_4_15_0_clk net9 _013_ VSS
+ VSS VDD VDD mem\[6\]\[6\] sky130_fd_sc_hd__edfxtp_1
Xmem\[6\]\[7\]$_DFFE_PP_ clknet_4_14_0_clk net10 _013_ VSS
+ VSS VDD VDD mem\[6\]\[7\] sky130_fd_sc_hd__edfxtp_1
Xmem\[7\]\[0\]$_DFFE_PP_ clknet_4_14_0_clk net3 _014_ VSS
+ VSS VDD VDD mem\[7\]\[0\] sky130_fd_sc_hd__edfxtp_1
Xmem\[7\]\[1\]$_DFFE_PP_ clknet_4_14_0_clk net4 _014_ VSS
+ VSS VDD VDD mem\[7\]\[1\] sky130_fd_sc_hd__edfxtp_1
Xmem\[7\]\[2\]$_DFFE_PP_ clknet_4_15_0_clk net5 _014_ VSS
+ VSS VDD VDD mem\[7\]\[2\] sky130_fd_sc_hd__edfxtp_1
Xmem\[7\]\[3\]$_DFFE_PP_ clknet_4_15_0_clk net6 _014_ VSS
+ VSS VDD VDD mem\[7\]\[3\] sky130_fd_sc_hd__edfxtp_1
Xmem\[7\]\[4\]$_DFFE_PP_ clknet_4_13_0_clk net7 _014_ VSS
+ VSS VDD VDD mem\[7\]\[4\] sky130_fd_sc_hd__edfxtp_1
Xmem\[7\]\[5\]$_DFFE_PP_ clknet_4_15_0_clk net8 _014_ VSS
+ VSS VDD VDD mem\[7\]\[5\] sky130_fd_sc_hd__edfxtp_1
Xmem\[7\]\[6\]$_DFFE_PP_ clknet_4_15_0_clk net9 _014_ VSS
+ VSS VDD VDD mem\[7\]\[6\] sky130_fd_sc_hd__edfxtp_1
Xmem\[7\]\[7\]$_DFFE_PP_ clknet_4_15_0_clk net10 _014_ VSS
+ VSS VDD VDD mem\[7\]\[7\] sky130_fd_sc_hd__edfxtp_1
Xmem\[8\]\[0\]$_DFFE_PP_ clknet_4_0_0_clk net3 _015_ VSS VSS
+ VDD VDD mem\[8\]\[0\] sky130_fd_sc_hd__edfxtp_1
Xmem\[8\]\[1\]$_DFFE_PP_ clknet_4_3_0_clk net4 _015_ VSS VSS
+ VDD VDD mem\[8\]\[1\] sky130_fd_sc_hd__edfxtp_1
Xmem\[8\]\[2\]$_DFFE_PP_ clknet_4_2_0_clk net5 _015_ VSS VSS
+ VDD VDD mem\[8\]\[2\] sky130_fd_sc_hd__edfxtp_1
Xmem\[8\]\[3\]$_DFFE_PP_ clknet_4_1_0_clk net6 _015_ VSS VSS
+ VDD VDD mem\[8\]\[3\] sky130_fd_sc_hd__edfxtp_1
Xmem\[8\]\[4\]$_DFFE_PP_ clknet_4_0_0_clk net7 _015_ VSS VSS
+ VDD VDD mem\[8\]\[4\] sky130_fd_sc_hd__edfxtp_1
Xmem\[8\]\[5\]$_DFFE_PP_ clknet_4_3_0_clk net8 _015_ VSS VSS
+ VDD VDD mem\[8\]\[5\] sky130_fd_sc_hd__edfxtp_1
Xmem\[8\]\[6\]$_DFFE_PP_ clknet_4_2_0_clk net9 _015_ VSS VSS
+ VDD VDD mem\[8\]\[6\] sky130_fd_sc_hd__edfxtp_1
Xmem\[8\]\[7\]$_DFFE_PP_ clknet_4_3_0_clk net10 _015_ VSS
+ VSS VDD VDD mem\[8\]\[7\] sky130_fd_sc_hd__edfxtp_1
Xmem\[9\]\[0\]$_DFFE_PP_ clknet_4_1_0_clk net3 _016_ VSS VSS
+ VDD VDD mem\[9\]\[0\] sky130_fd_sc_hd__edfxtp_1
Xmem\[9\]\[1\]$_DFFE_PP_ clknet_4_3_0_clk net4 _016_ VSS VSS
+ VDD VDD mem\[9\]\[1\] sky130_fd_sc_hd__edfxtp_1
Xmem\[9\]\[2\]$_DFFE_PP_ clknet_4_2_0_clk net5 _016_ VSS VSS
+ VDD VDD mem\[9\]\[2\] sky130_fd_sc_hd__edfxtp_1
Xmem\[9\]\[3\]$_DFFE_PP_ clknet_4_0_0_clk net6 _016_ VSS VSS
+ VDD VDD mem\[9\]\[3\] sky130_fd_sc_hd__edfxtp_1
Xmem\[9\]\[4\]$_DFFE_PP_ clknet_4_0_0_clk net7 _016_ VSS VSS
+ VDD VDD mem\[9\]\[4\] sky130_fd_sc_hd__edfxtp_1
Xmem\[9\]\[5\]$_DFFE_PP_ clknet_4_3_0_clk net8 _016_ VSS VSS
+ VDD VDD mem\[9\]\[5\] sky130_fd_sc_hd__edfxtp_1
Xmem\[9\]\[6\]$_DFFE_PP_ clknet_4_3_0_clk net9 _016_ VSS VSS
+ VDD VDD mem\[9\]\[6\] sky130_fd_sc_hd__edfxtp_1
Xmem\[9\]\[7\]$_DFFE_PP_ clknet_4_3_0_clk net10 _016_ VSS
+ VSS VDD VDD mem\[9\]\[7\] sky130_fd_sc_hd__edfxtp_1
Xrd_data_reg\[0\]$_DFFE_PN0P_ clknet_4_5_0_clk _020_ net1
+ VSS VSS VDD VDD rd_data_reg\[0\] sky130_fd_sc_hd__dfrtp_1
Xrd_data_reg\[1\]$_DFFE_PN0P_ clknet_4_4_0_clk _021_ net1
+ VSS VSS VDD VDD rd_data_reg\[1\] sky130_fd_sc_hd__dfrtp_1
Xrd_data_reg\[2\]$_DFFE_PN0P_ clknet_4_4_0_clk _022_ net1
+ VSS VSS VDD VDD rd_data_reg\[2\] sky130_fd_sc_hd__dfrtp_1
Xrd_data_reg\[3\]$_DFFE_PN0P_ clknet_4_5_0_clk _023_ net1
+ VSS VSS VDD VDD rd_data_reg\[3\] sky130_fd_sc_hd__dfrtp_1
Xrd_data_reg\[4\]$_DFFE_PN0P_ clknet_4_5_0_clk _024_ net1
+ VSS VSS VDD VDD rd_data_reg\[4\] sky130_fd_sc_hd__dfrtp_1
Xrd_data_reg\[5\]$_DFFE_PN0P_ clknet_4_5_0_clk _025_ net1
+ VSS VSS VDD VDD rd_data_reg\[5\] sky130_fd_sc_hd__dfrtp_1
Xrd_data_reg\[6\]$_DFFE_PN0P_ clknet_4_5_0_clk _026_ net1
+ VSS VSS VDD VDD rd_data_reg\[6\] sky130_fd_sc_hd__dfrtp_1
Xrd_data_reg\[7\]$_DFFE_PN0P_ clknet_4_5_0_clk _027_ net1
+ VSS VSS VDD VDD rd_data_reg\[7\] sky130_fd_sc_hd__dfrtp_1
Xrd_ptr\[0\]$_DFFE_PN0P_ clknet_4_4_0_clk _028_ net1 VSS VSS
+ VDD VDD rd_ptr\[0\] sky130_fd_sc_hd__dfrtp_1
Xrd_ptr\[1\]$_DFFE_PN0P_ clknet_4_4_0_clk _029_ net1 VSS VSS
+ VDD VDD rd_ptr\[1\] sky130_fd_sc_hd__dfrtp_1
Xrd_ptr\[2\]$_DFFE_PN0P_ clknet_4_4_0_clk _030_ net1 VSS VSS