
* cell parameterized_uart_tx
* pin PWELL
* pin clk
* pin NWELL
* pin rst_n
* pin data_in[2]
* pin data_in[0]
* pin data_in[1]
* pin data_in[3]
* pin data_in[4]
* pin tx
* pin data_in[6]
* pin tx_start
* pin data_in[5]
* pin data_in[7]
* pin tx_busy
.SUBCKT parameterized_uart_tx 1 2 3 27 51 52 59 73 87 93 97 116 145 155 163
* net 1 PWELL
* net 2 clk
* net 3 NWELL
* net 27 rst_n
* net 51 data_in[2]
* net 52 data_in[0]
* net 59 data_in[1]
* net 73 data_in[3]
* net 87 data_in[4]
* net 93 tx
* net 97 data_in[6]
* net 116 tx_start
* net 145 data_in[5]
* net 155 data_in[7]
* net 163 tx_busy
* cell instance $1 m0 *1 19.57,23.8
X$1 139 65 66 1 137 3 AOI21_X1
* cell instance $2 m0 *1 19.19,23.8
X$2 79 1 3 139 INV_X1
* cell instance $4 m0 *1 20.52,23.8
X$4 65 66 141 1 3 113 NAND3_X1
* cell instance $5 m0 *1 21.28,23.8
X$5 109 65 66 1 142 3 AOI21_X1
* cell instance $6 m0 *1 22.04,23.8
X$6 110 99 1 3 120 NOR2_X1
* cell instance $7 m0 *1 22.61,23.8
X$7 1 170 100 143 5 3 DFF_X1
* cell instance $9 r0 *1 19.19,23.8
X$9 110 138 140 3 1 141 HA_X1
* cell instance $10 r0 *1 21.09,23.8
X$10 142 140 108 1 128 3 AOI21_X1
* cell instance $11 r0 *1 21.85,23.8
X$11 110 1 3 109 INV_X1
* cell instance $14 r0 *1 25.46,23.8
X$14 144 57 1 3 154 NOR2_X1
* cell instance $17 m0 *1 26.22,23.8
X$17 88 113 75 108 1 3 144 AOI22_X1
* cell instance $18 m0 *1 27.93,23.8
X$18 88 1 3 114 INV_X1
* cell instance $20 m0 *1 28.5,23.8
X$20 114 113 1 3 102 OR2_X1
* cell instance $23 m0 *1 29.64,23.8
X$23 101 114 103 1 3 129 NAND3_X1
* cell instance $24 m0 *1 30.4,23.8
X$24 108 86 57 112 131 130 3 1 AOI221_X2
* cell instance $26 m0 *1 32.68,23.8
X$26 115 1 3 131 INV_X1
* cell instance $28 m0 *1 33.25,23.8
X$28 115 112 1 53 3 NAND2_X4
* cell instance $30 m0 *1 35.15,23.8
X$30 116 1 3 115 BUF_X1
* cell instance $33 r0 *1 30.21,23.8
X$33 53 57 1 3 150 NOR2_X1
* cell instance $35 r0 *1 31.16,23.8
X$35 130 1 3 134 INV_X1
* cell instance $42 m0 *1 3.8,23.8
X$42 20 121 3 1 133 AND2_X1
* cell instance $43 m0 *1 2.47,23.8
X$43 132 53 122 1 3 121 MUX2_X1
* cell instance $44 m0 *1 4.56,23.8
X$44 1 171 122 133 7 3 DFF_X1
* cell instance $60 r0 *1 12.35,23.8
X$60 1 182 126 124 7 3 DFF_X1
* cell instance $62 m0 *1 13.49,23.8
X$62 135 125 153 3 124 1 OAI21_X1
* cell instance $65 m0 *1 15.39,23.8
X$65 117 108 3 1 135 XNOR2_X1
* cell instance $68 r0 *1 15.58,23.8
X$68 126 1 3 117 BUF_X1
* cell instance $69 r0 *1 16.15,23.8
X$69 126 127 136 3 1 138 HA_X1
* cell instance $70 r0 *1 18.05,23.8
X$70 137 136 108 1 167 3 AOI21_X1
* cell instance $74 m0 *1 1.52,21
X$74 87 1 3 94 BUF_X1
* cell instance $76 m0 *1 3.61,21
X$76 94 53 98 1 3 91 MUX2_X1
* cell instance $77 m0 *1 4.94,21
X$77 9 91 3 1 90 AND2_X1
* cell instance $82 r0 *1 1.52,21
X$82 97 1 3 132 BUF_X1
* cell instance $85 r0 *1 3.8,21
X$85 1 188 98 90 7 3 DFF_X1
* cell instance $87 r0 *1 7.22,21
X$87 98 79 122 1 3 107 MUX2_X1
* cell instance $91 m0 *1 9.12,21
X$91 58 117 92 1 3 96 MUX2_X1
* cell instance $97 r0 *1 9.12,21
X$97 107 117 123 1 3 106 MUX2_X1
* cell instance $102 r0 *1 20.52,21
X$102 106 119 96 120 1 3 118 AOI22_X1
* cell instance $104 r0 *1 21.85,21
X$104 109 99 1 3 119 NOR2_X1
* cell instance $106 r0 *1 23.18,21
X$106 118 111 105 9 1 3 143 NAND4_X1
* cell instance $109 r0 *1 24.7,21
X$109 86 112 1 3 105 NOR2_X1
* cell instance $111 r0 *1 26.03,21
X$111 100 103 99 1 3 111 NAND3_X1
* cell instance $114 m0 *1 28.5,21
X$114 1 178 95 104 5 3 DFF_X1
* cell instance $116 m0 *1 31.73,21
X$116 95 1 3 86 BUF_X2
* cell instance $121 r0 *1 28.88,21
X$121 57 102 101 1 104 3 AOI21_X1
* cell instance $122 r0 *1 29.64,21
X$122 75 1 3 103 INV_X1
* cell instance $126 r0 *1 31.35,21
X$126 100 1 3 93 BUF_X1
* cell instance $137 m0 *1 2.09,26.6
X$137 145 1 3 149 BUF_X1
* cell instance $138 m0 *1 2.66,26.6
X$138 155 1 3 156 BUF_X1
* cell instance $146 r0 *1 3.04,26.6
X$146 156 53 165 1 3 162 MUX2_X1
* cell instance $147 m0 *1 3.8,26.6
X$147 149 53 151 1 3 146 MUX2_X1
* cell instance $149 m0 *1 5.13,26.6
X$149 20 146 3 1 169 AND2_X1
* cell instance $151 m0 *1 7.41,26.6
X$151 151 79 165 1 3 123 MUX2_X1
* cell instance $156 r0 *1 4.75,26.6
X$156 20 162 3 1 164 AND2_X1
* cell instance $157 r0 *1 5.51,26.6
X$157 1 186 165 164 7 3 DFF_X1
* cell instance $159 m0 *1 13.87,26.6
X$159 147 117 20 1 3 153 NAND3_X1
* cell instance $161 m0 *1 14.63,26.6
X$161 147 79 20 1 3 157 NAND3_X1
* cell instance $163 m0 *1 15.58,26.6
X$163 127 3 79 1 BUF_X4
* cell instance $166 r0 *1 14.82,26.6
X$166 125 167 157 3 166 1 OAI21_X1
* cell instance $169 r0 *1 20.14,26.6
X$169 125 128 158 3 168 1 OAI21_X1
* cell instance $171 m0 *1 20.33,26.6
X$171 147 110 20 1 3 158 NAND3_X1
* cell instance $172 m0 *1 21.28,26.6
X$172 20 88 1 3 125 NAND2_X1
* cell instance $173 m0 *1 21.85,26.6
X$173 88 112 1 3 147 NOR2_X1
* cell instance $175 m0 *1 23.94,26.6
X$175 1 99 152 154 5 3 DFF_X1
* cell instance $176 m0 *1 27.17,26.6
X$176 152 1 3 88 BUF_X2
* cell instance $180 m0 *1 30.4,26.6
X$180 150 129 159 1 3 160 MUX2_X1
* cell instance $181 m0 *1 31.73,26.6
X$181 1 180 148 134 5 3 DFF_X1
* cell instance $182 m0 *1 34.96,26.6
X$182 148 1 3 112 CLKBUF_X3
* cell instance $189 r0 *1 29.83,26.6
X$189 20 161 3 1 159 AND2_X1
* cell instance $190 r0 *1 30.59,26.6
X$190 1 187 161 160 5 3 DFF_X1
* cell instance $193 r0 *1 34.77,26.6
X$193 161 1 3 163 BUF_X1
* cell instance $202 m0 *1 3.8,15.4
X$202 9 68 3 1 60 AND2_X1
* cell instance $206 m0 *1 15.2,15.4
X$206 9 71 3 1 62 AND2_X1
* cell instance $208 m0 *1 16.72,15.4
X$208 70 16 72 3 71 1 OAI21_X1
* cell instance $209 m0 *1 17.48,15.4
X$209 29 63 70 3 1 64 HA_X1
* cell instance $212 r0 *1 1.33,15.4
X$212 59 1 3 77 BUF_X1
* cell instance $213 r0 *1 1.9,15.4
X$213 73 1 3 69 BUF_X1
* cell instance $215 r0 *1 2.85,15.4
X$215 77 53 74 1 3 68 MUX2_X1
* cell instance $219 r0 *1 4.18,15.4
X$219 1 183 74 60 7 3 DFF_X1
* cell instance $221 r0 *1 7.79,15.4
X$221 69 53 61 1 3 80 MUX2_X1
* cell instance $222 r0 *1 9.12,15.4
X$222 9 80 3 1 81 AND2_X1
* cell instance $225 r0 *1 14.44,15.4
X$225 1 62 7 63 55 3 DFF_X2
* cell instance $228 r0 *1 19,15.4
X$228 1 14 26 55 64 82 3 NOR4_X4
* cell instance $230 m0 *1 19.76,15.4
X$230 15 55 1 3 72 NAND2_X1
* cell instance $231 m0 *1 22.04,15.4
X$231 56 12 3 1 66 AND2_X1
* cell instance $232 m0 *1 20.71,15.4
X$232 14 26 55 64 3 65 1 OR4_X2
* cell instance $235 r0 *1 22.42,15.4
X$235 84 66 65 1 39 3 AOI21_X1
* cell instance $238 m0 *1 23.94,15.4
X$238 12 56 1 3 83 NAND2_X2
* cell instance $245 r0 *1 30.21,15.4
X$245 57 76 53 1 67 3 AOI21_X1
* cell instance $247 r0 *1 31.73,15.4
X$247 1 184 78 67 5 3 DFF_X1
* cell instance $257 r0 *1 1.33,12.6
X$257 52 1 3 42 BUF_X1
* cell instance $258 r0 *1 1.9,12.6
X$258 51 1 3 43 BUF_X1
* cell instance $259 r0 *1 2.47,12.6
X$259 42 53 23 1 3 44 MUX2_X1
* cell instance $264 r0 *1 3.99,12.6
X$264 43 53 46 1 3 54 MUX2_X1
* cell instance $265 m0 *1 4.18,12.6
X$265 1 177 46 47 7 3 DFF_X1
* cell instance $270 m0 *1 18.05,12.6
X$270 9 49 3 1 36 AND2_X1
* cell instance $271 m0 *1 18.81,12.6
X$271 39 29 15 1 3 49 MUX2_X1
* cell instance $272 m0 *1 20.14,12.6
X$272 29 55 26 1 3 50 NAND3_X1
* cell instance $274 r0 *1 5.32,12.6
X$274 9 54 3 1 47 AND2_X1
* cell instance $277 r0 *1 6.65,12.6
X$277 23 79 46 1 3 58 MUX2_X1
* cell instance $281 r0 *1 17.48,12.6
X$281 1 36 7 190 29 3 DFF_X2
* cell instance $283 m0 *1 21.47,12.6
X$283 14 12 1 3 37 NAND2_X1
* cell instance $285 m0 *1 22.04,12.6
X$285 37 50 1 3 38 NOR2_X1
* cell instance $288 m0 *1 24.32,12.6
X$288 1 172 56 30 5 3 DFF_X1
* cell instance $293 r0 *1 22.42,12.6
X$293 56 38 39 3 48 1 OAI21_X1
* cell instance $296 r0 *1 24.32,12.6
X$296 15 56 1 3 40 NAND2_X1
* cell instance $297 r0 *1 24.89,12.6
X$297 57 40 48 1 30 3 AOI21_X1
* cell instance $299 m0 *1 28.88,12.6
X$299 26 1 3 31 INV_X1
* cell instance $301 m0 *1 29.26,12.6
X$301 1 179 41 45 5 3 DFF_X1
* cell instance $302 m0 *1 32.49,12.6
X$302 41 3 26 1 BUF_X4
* cell instance $310 r0 *1 30.78,12.6
X$310 33 1 3 57 INV_X2
* cell instance $312 r0 *1 31.54,12.6
X$312 33 1 3 20 CLKBUF_X3
* cell instance $337 m0 *1 4.94,29.4
X$337 1 174 151 169 7 3 DFF_X1
* cell instance $343 m0 *1 12.54,29.4
X$343 1 175 127 166 7 3 DFF_X1
* cell instance $346 m0 *1 18.81,29.4
X$346 1 168 5 189 110 3 DFF_X2
* cell instance $369 m0 *1 17.67,7
X$369 1 173 10 6 7 3 DFF_X1
* cell instance $370 r0 *1 18.05,7
X$370 9 18 3 1 6 AND2_X1
* cell instance $373 r0 *1 20.52,7
X$373 10 1 3 14 BUF_X2
* cell instance $374 r0 *1 21.28,7
X$374 16 11 17 3 13 1 OAI21_X1
* cell instance $376 m0 *1 21.28,7
X$376 9 13 3 1 8 AND2_X1
* cell instance $380 m0 *1 23.37,7
X$380 4 1 3 12 CLKBUF_X2
* cell instance $396 m0 *1 8.36,18.2
X$396 74 79 61 1 3 92 MUX2_X1
* cell instance $397 m0 *1 9.69,18.2
X$397 1 176 61 81 7 3 DFF_X1
* cell instance $407 r0 *1 13.68,18.2
X$407 89 1 3 7 CLKBUF_X3
* cell instance $410 m0 *1 19.38,18.2
X$410 2 1 3 89 CLKBUF_X3
* cell instance $417 r0 *1 23.56,18.2
X$417 5 1 3 192 INV_X2
* cell instance $418 r0 *1 24.13,18.2
X$418 1 112 86 75 88 15 3 NOR4_X4
* cell instance $419 m0 *1 24.7,18.2
X$419 89 1 3 5 CLKBUF_X3
* cell instance $421 m0 *1 25.65,18.2
X$421 88 75 86 1 3 84 NOR3_X1
* cell instance $423 m0 *1 26.79,18.2
X$423 86 75 88 1 3 85 OR3_X1
* cell instance $424 m0 *1 27.74,18.2
X$424 85 83 82 3 1 16 OAI21_X2
* cell instance $426 r0 *1 27.55,18.2
X$426 82 83 1 3 108 NOR2_X2
* cell instance $428 r0 *1 28.88,18.2
X$428 82 83 86 3 101 1 OAI21_X1
* cell instance $429 m0 *1 29.64,18.2
X$429 82 83 75 3 76 1 OAI21_X1
* cell instance $436 m0 *1 33.06,18.2
X$436 78 1 3 75 BUF_X2
* cell instance $453 r0 *1 3.42,9.8
X$453 9 44 3 1 34 AND2_X1
* cell instance $454 r0 *1 4.18,9.8
X$454 1 181 23 34 7 3 DFF_X1
* cell instance $458 r0 *1 14.63,9.8
X$458 20 1 3 9 BUF_X2
* cell instance $460 m0 *1 18.62,9.8
X$460 16 21 22 3 18 1 OAI21_X1
* cell instance $463 m0 *1 19.57,9.8
X$463 15 14 1 3 22 NAND2_X1
* cell instance $465 m0 *1 20.33,9.8
X$465 14 50 1 3 21 XOR2_X1
* cell instance $466 m0 *1 21.47,9.8
X$466 15 12 1 3 17 NAND2_X1
* cell instance $471 r0 *1 19.76,9.8
X$471 29 55 191 3 1 24 HA_X1
* cell instance $475 m0 *1 22.42,9.8
X$475 12 19 1 3 11 XOR2_X1
* cell instance $479 r0 *1 22.99,9.8
X$479 24 26 14 1 3 19 NAND3_X1
* cell instance $482 r0 *1 27.17,9.8
X$482 15 1 3 35 INV_X1
* cell instance $483 r0 *1 27.55,9.8
X$483 24 16 25 1 3 28 OR3_X1
* cell instance $484 r0 *1 28.5,9.8
X$484 24 20 31 1 3 32 NAND3_X1
* cell instance $485 r0 *1 29.26,9.8
X$485 16 32 28 35 25 3 1 45 OAI221_X1
* cell instance $487 r0 *1 30.78,9.8
X$487 33 26 1 3 25 NAND2_X1
* cell instance $489 r0 *1 31.73,9.8
X$489 27 1 3 33 BUF_X1
* cell instance $517 r0 *1 20.52,4.2
X$517 1 185 4 8 5 3 DFF_X1
.ENDS parameterized_uart_tx

* cell CLKBUF_X2
* pin A
* pin PWELL,VSS
* pin NWELL,VDD
* pin Z
.SUBCKT CLKBUF_X2 1 3 4 5
* net 1 A
* net 3 PWELL,VSS
* net 4 NWELL,VDD
* net 5 Z
* device instance $1 r0 *1 0.17,0.995 PMOS_VTL
M$1 4 1 2 4 PMOS_VTL L=0.05U W=0.63U AS=0.06615P AD=0.0441P PS=1.47U PD=0.77U
* device instance $2 r0 *1 0.36,0.995 PMOS_VTL
M$2 5 2 4 4 PMOS_VTL L=0.05U W=1.26U AS=0.0882P AD=0.11025P PS=1.54U PD=2.24U
* device instance $4 r0 *1 0.17,0.1875 NMOS_VTL
M$4 3 1 2 3 NMOS_VTL L=0.05U W=0.195U AS=0.020475P AD=0.01365P PS=0.6U PD=0.335U
* device instance $5 r0 *1 0.36,0.1875 NMOS_VTL
M$5 5 2 3 3 NMOS_VTL L=0.05U W=0.39U AS=0.0273P AD=0.034125P PS=0.67U PD=0.935U
.ENDS CLKBUF_X2

* cell XOR2_X1
* pin A
* pin B
* pin PWELL,VSS
* pin NWELL,VDD
* pin Z
.SUBCKT XOR2_X1 1 3 4 5 6
* net 1 A
* net 3 B
* net 4 PWELL,VSS
* net 5 NWELL,VDD
* net 6 Z
* device instance $1 r0 *1 0.17,1.1525 PMOS_VTL
M$1 8 1 2 5 PMOS_VTL L=0.05U W=0.315U AS=0.033075P AD=0.02205P PS=0.84U
+ PD=0.455U
* device instance $2 r0 *1 0.36,1.1525 PMOS_VTL
M$2 8 3 5 5 PMOS_VTL L=0.05U W=0.315U AS=0.0338625P AD=0.02205P PS=0.775U
+ PD=0.455U
* device instance $3 r0 *1 0.555,0.995 PMOS_VTL
M$3 7 2 5 5 PMOS_VTL L=0.05U W=0.63U AS=0.0338625P AD=0.0441P PS=0.775U PD=0.77U
* device instance $4 r0 *1 0.745,0.995 PMOS_VTL
M$4 6 1 7 5 PMOS_VTL L=0.05U W=0.63U AS=0.0441P AD=0.0441P PS=0.77U PD=0.77U
* device instance $5 r0 *1 0.935,0.995 PMOS_VTL
M$5 7 3 6 5 PMOS_VTL L=0.05U W=0.63U AS=0.0441P AD=0.06615P PS=0.77U PD=1.47U
* device instance $6 r0 *1 0.17,0.195 NMOS_VTL
M$6 2 1 4 4 NMOS_VTL L=0.05U W=0.21U AS=0.02205P AD=0.0147P PS=0.63U PD=0.35U
* device instance $7 r0 *1 0.36,0.195 NMOS_VTL
M$7 4 3 2 4 NMOS_VTL L=0.05U W=0.21U AS=0.0147P AD=0.0224P PS=0.35U PD=0.56U
* device instance $8 r0 *1 0.555,0.2975 NMOS_VTL
M$8 6 2 4 4 NMOS_VTL L=0.05U W=0.415U AS=0.0224P AD=0.02905P PS=0.56U PD=0.555U
* device instance $9 r0 *1 0.745,0.2975 NMOS_VTL
M$9 9 1 6 4 NMOS_VTL L=0.05U W=0.415U AS=0.02905P AD=0.02905P PS=0.555U
+ PD=0.555U
* device instance $10 r0 *1 0.935,0.2975 NMOS_VTL
M$10 4 3 9 4 NMOS_VTL L=0.05U W=0.415U AS=0.02905P AD=0.043575P PS=0.555U
+ PD=1.04U
.ENDS XOR2_X1

* cell OR4_X2
* pin A1
* pin A2
* pin A3
* pin A4
* pin NWELL,VDD
* pin ZN
* pin PWELL,VSS
.SUBCKT OR4_X2 1 2 3 4 6 7 8
* net 1 A1
* net 2 A2
* net 3 A3
* net 4 A4
* net 6 NWELL,VDD
* net 7 ZN
* net 8 PWELL,VSS
* device instance $1 r0 *1 0.17,0.995 PMOS_VTL
M$1 11 1 5 6 PMOS_VTL L=0.05U W=0.63U AS=0.06615P AD=0.0441P PS=1.47U PD=0.77U
* device instance $2 r0 *1 0.36,0.995 PMOS_VTL
M$2 10 2 11 6 PMOS_VTL L=0.05U W=0.63U AS=0.0441P AD=0.0441P PS=0.77U PD=0.77U
* device instance $3 r0 *1 0.55,0.995 PMOS_VTL
M$3 9 3 10 6 PMOS_VTL L=0.05U W=0.63U AS=0.0441P AD=0.0441P PS=0.77U PD=0.77U
* device instance $4 r0 *1 0.74,0.995 PMOS_VTL
M$4 6 4 9 6 PMOS_VTL L=0.05U W=0.63U AS=0.0441P AD=0.0441P PS=0.77U PD=0.77U
* device instance $5 r0 *1 0.93,0.995 PMOS_VTL
M$5 7 5 6 6 PMOS_VTL L=0.05U W=1.26U AS=0.0882P AD=0.11025P PS=1.54U PD=2.24U
* device instance $7 r0 *1 0.17,0.2975 NMOS_VTL
M$7 5 1 8 8 NMOS_VTL L=0.05U W=0.415U AS=0.043575P AD=0.02905P PS=1.04U
+ PD=0.555U
* device instance $8 r0 *1 0.36,0.2975 NMOS_VTL
M$8 8 2 5 8 NMOS_VTL L=0.05U W=0.415U AS=0.02905P AD=0.02905P PS=0.555U
+ PD=0.555U
* device instance $9 r0 *1 0.55,0.2975 NMOS_VTL
M$9 5 3 8 8 NMOS_VTL L=0.05U W=0.415U AS=0.02905P AD=0.02905P PS=0.555U
+ PD=0.555U
* device instance $10 r0 *1 0.74,0.2975 NMOS_VTL
M$10 8 4 5 8 NMOS_VTL L=0.05U W=0.415U AS=0.02905P AD=0.02905P PS=0.555U
+ PD=0.555U
* device instance $11 r0 *1 0.93,0.2975 NMOS_VTL
M$11 7 5 8 8 NMOS_VTL L=0.05U W=0.83U AS=0.0581P AD=0.072625P PS=1.11U PD=1.595U
.ENDS OR4_X2

* cell NAND2_X2
* pin A2
* pin A1
* pin PWELL,VSS
* pin NWELL,VDD
* pin ZN
.SUBCKT NAND2_X2 1 2 3 4 5
* net 1 A2
* net 2 A1
* net 3 PWELL,VSS
* net 4 NWELL,VDD
* net 5 ZN
* device instance $1 r0 *1 0.195,0.995 PMOS_VTL
M$1 5 1 4 4 PMOS_VTL L=0.05U W=1.26U AS=0.11025P AD=0.11025P PS=2.24U PD=2.24U
* device instance $2 r0 *1 0.385,0.995 PMOS_VTL
M$2 4 2 5 4 PMOS_VTL L=0.05U W=1.26U AS=0.0882P AD=0.0882P PS=1.54U PD=1.54U
* device instance $5 r0 *1 0.195,0.2975 NMOS_VTL
M$5 7 1 3 3 NMOS_VTL L=0.05U W=0.415U AS=0.043575P AD=0.02905P PS=1.04U
+ PD=0.555U
* device instance $6 r0 *1 0.385,0.2975 NMOS_VTL
M$6 5 2 7 3 NMOS_VTL L=0.05U W=0.415U AS=0.02905P AD=0.02905P PS=0.555U
+ PD=0.555U
* device instance $7 r0 *1 0.575,0.2975 NMOS_VTL
M$7 6 2 5 3 NMOS_VTL L=0.05U W=0.415U AS=0.02905P AD=0.02905P PS=0.555U
+ PD=0.555U
* device instance $8 r0 *1 0.765,0.2975 NMOS_VTL
M$8 3 1 6 3 NMOS_VTL L=0.05U W=0.415U AS=0.02905P AD=0.043575P PS=0.555U
+ PD=1.04U
.ENDS NAND2_X2

* cell NOR3_X1
* pin A3
* pin A2
* pin A1
* pin PWELL,VSS
* pin NWELL,VDD
* pin ZN
.SUBCKT NOR3_X1 1 2 3 4 5 6
* net 1 A3
* net 2 A2
* net 3 A1
* net 4 PWELL,VSS
* net 5 NWELL,VDD
* net 6 ZN
* device instance $1 r0 *1 0.17,0.995 PMOS_VTL
M$1 8 1 5 5 PMOS_VTL L=0.05U W=0.63U AS=0.06615P AD=0.0441P PS=1.47U PD=0.77U
* device instance $2 r0 *1 0.36,0.995 PMOS_VTL
M$2 7 2 8 5 PMOS_VTL L=0.05U W=0.63U AS=0.0441P AD=0.0441P PS=0.77U PD=0.77U
* device instance $3 r0 *1 0.55,0.995 PMOS_VTL
M$3 6 3 7 5 PMOS_VTL L=0.05U W=0.63U AS=0.0441P AD=0.06615P PS=0.77U PD=1.47U
* device instance $4 r0 *1 0.17,0.2975 NMOS_VTL
M$4 6 1 4 4 NMOS_VTL L=0.05U W=0.415U AS=0.043575P AD=0.02905P PS=1.04U
+ PD=0.555U
* device instance $5 r0 *1 0.36,0.2975 NMOS_VTL
M$5 4 2 6 4 NMOS_VTL L=0.05U W=0.415U AS=0.02905P AD=0.02905P PS=0.555U
+ PD=0.555U
* device instance $6 r0 *1 0.55,0.2975 NMOS_VTL
M$6 6 3 4 4 NMOS_VTL L=0.05U W=0.415U AS=0.02905P AD=0.043575P PS=0.555U
+ PD=1.04U
.ENDS NOR3_X1

* cell OAI221_X1
* pin B2
* pin B1
* pin A
* pin C2
* pin C1
* pin NWELL,VDD
* pin PWELL,VSS
* pin ZN
.SUBCKT OAI221_X1 1 2 3 4 5 7 8 9
* net 1 B2
* net 2 B1
* net 3 A
* net 4 C2
* net 5 C1
* net 7 NWELL,VDD
* net 8 PWELL,VSS
* net 9 ZN
* device instance $1 r0 *1 0.17,0.995 PMOS_VTL
M$1 12 1 7 7 PMOS_VTL L=0.05U W=0.63U AS=0.06615P AD=0.0441P PS=1.47U PD=0.77U
* device instance $2 r0 *1 0.36,0.995 PMOS_VTL
M$2 9 2 12 7 PMOS_VTL L=0.05U W=0.63U AS=0.0441P AD=0.0441P PS=0.77U PD=0.77U
* device instance $3 r0 *1 0.55,0.995 PMOS_VTL
M$3 7 3 9 7 PMOS_VTL L=0.05U W=0.63U AS=0.0441P AD=0.0441P PS=0.77U PD=0.77U
* device instance $4 r0 *1 0.74,0.995 PMOS_VTL
M$4 11 4 7 7 PMOS_VTL L=0.05U W=0.63U AS=0.0441P AD=0.0441P PS=0.77U PD=0.77U
* device instance $5 r0 *1 0.93,0.995 PMOS_VTL
M$5 9 5 11 7 PMOS_VTL L=0.05U W=0.63U AS=0.0441P AD=0.06615P PS=0.77U PD=1.47U
* device instance $6 r0 *1 0.17,0.2975 NMOS_VTL
M$6 8 1 6 8 NMOS_VTL L=0.05U W=0.415U AS=0.043575P AD=0.02905P PS=1.04U
+ PD=0.555U
* device instance $7 r0 *1 0.36,0.2975 NMOS_VTL
M$7 6 2 8 8 NMOS_VTL L=0.05U W=0.415U AS=0.02905P AD=0.02905P PS=0.555U
+ PD=0.555U
* device instance $8 r0 *1 0.55,0.2975 NMOS_VTL
M$8 10 3 6 8 NMOS_VTL L=0.05U W=0.415U AS=0.02905P AD=0.02905P PS=0.555U
+ PD=0.555U
* device instance $9 r0 *1 0.74,0.2975 NMOS_VTL
M$9 9 4 10 8 NMOS_VTL L=0.05U W=0.415U AS=0.02905P AD=0.02905P PS=0.555U
+ PD=0.555U
* device instance $10 r0 *1 0.93,0.2975 NMOS_VTL
M$10 10 5 9 8 NMOS_VTL L=0.05U W=0.415U AS=0.02905P AD=0.043575P PS=0.555U
+ PD=1.04U
.ENDS OAI221_X1

* cell OAI21_X2
* pin A
* pin B2
* pin B1
* pin NWELL,VDD
* pin PWELL,VSS
* pin ZN
.SUBCKT OAI21_X2 1 2 3 5 6 7
* net 1 A
* net 2 B2
* net 3 B1
* net 5 NWELL,VDD
* net 6 PWELL,VSS
* net 7 ZN
* device instance $1 r0 *1 0.17,0.995 PMOS_VTL
M$1 7 1 5 5 PMOS_VTL L=0.05U W=1.26U AS=0.11025P AD=0.0882P PS=2.24U PD=1.54U
* device instance $3 r0 *1 0.55,0.995 PMOS_VTL
M$3 8 2 5 5 PMOS_VTL L=0.05U W=0.63U AS=0.0441P AD=0.0441P PS=0.77U PD=0.77U
* device instance $4 r0 *1 0.74,0.995 PMOS_VTL
M$4 7 3 8 5 PMOS_VTL L=0.05U W=0.63U AS=0.0441P AD=0.0441P PS=0.77U PD=0.77U
* device instance $5 r0 *1 0.93,0.995 PMOS_VTL
M$5 9 3 7 5 PMOS_VTL L=0.05U W=0.63U AS=0.0441P AD=0.0441P PS=0.77U PD=0.77U
* device instance $6 r0 *1 1.12,0.995 PMOS_VTL
M$6 5 2 9 5 PMOS_VTL L=0.05U W=0.63U AS=0.0441P AD=0.06615P PS=0.77U PD=1.47U
* device instance $7 r0 *1 0.17,0.2975 NMOS_VTL
M$7 6 1 4 6 NMOS_VTL L=0.05U W=0.83U AS=0.072625P AD=0.0581P PS=1.595U PD=1.11U
* device instance $9 r0 *1 0.55,0.2975 NMOS_VTL
M$9 7 2 4 6 NMOS_VTL L=0.05U W=0.83U AS=0.0581P AD=0.072625P PS=1.11U PD=1.595U
* device instance $10 r0 *1 0.74,0.2975 NMOS_VTL
M$10 4 3 7 6 NMOS_VTL L=0.05U W=0.83U AS=0.0581P AD=0.0581P PS=1.11U PD=1.11U
.ENDS OAI21_X2

* cell OR3_X1
* pin A1
* pin A2
* pin A3
* pin PWELL,VSS
* pin NWELL,VDD
* pin ZN
.SUBCKT OR3_X1 1 2 3 5 6 7
* net 1 A1
* net 2 A2
* net 3 A3
* net 5 PWELL,VSS
* net 6 NWELL,VDD
* net 7 ZN
* device instance $1 r0 *1 0.17,1.1525 PMOS_VTL
M$1 9 1 4 6 PMOS_VTL L=0.05U W=0.315U AS=0.033075P AD=0.02205P PS=0.84U
+ PD=0.455U
* device instance $2 r0 *1 0.36,1.1525 PMOS_VTL
M$2 8 2 9 6 PMOS_VTL L=0.05U W=0.315U AS=0.02205P AD=0.02205P PS=0.455U
+ PD=0.455U
* device instance $3 r0 *1 0.55,1.1525 PMOS_VTL
M$3 8 3 6 6 PMOS_VTL L=0.05U W=0.315U AS=0.033075P AD=0.02205P PS=0.77U
+ PD=0.455U
* device instance $4 r0 *1 0.74,0.995 PMOS_VTL
M$4 7 4 6 6 PMOS_VTL L=0.05U W=0.63U AS=0.033075P AD=0.06615P PS=0.77U PD=1.47U
* device instance $5 r0 *1 0.17,0.195 NMOS_VTL
M$5 5 1 4 5 NMOS_VTL L=0.05U W=0.21U AS=0.02205P AD=0.0147P PS=0.63U PD=0.35U
* device instance $6 r0 *1 0.36,0.195 NMOS_VTL
M$6 4 2 5 5 NMOS_VTL L=0.05U W=0.21U AS=0.0147P AD=0.0147P PS=0.35U PD=0.35U
* device instance $7 r0 *1 0.55,0.195 NMOS_VTL
M$7 5 3 4 5 NMOS_VTL L=0.05U W=0.21U AS=0.0147P AD=0.021875P PS=0.35U PD=0.555U
* device instance $8 r0 *1 0.74,0.2975 NMOS_VTL
M$8 7 4 5 5 NMOS_VTL L=0.05U W=0.415U AS=0.021875P AD=0.043575P PS=0.555U
+ PD=1.04U
.ENDS OR3_X1

* cell XNOR2_X1
* pin A
* pin B
* pin NWELL,VDD
* pin PWELL,VSS
* pin ZN
.SUBCKT XNOR2_X1 1 2 4 5 7
* net 1 A
* net 2 B
* net 4 NWELL,VDD
* net 5 PWELL,VSS
* net 7 ZN
* device instance $1 r0 *1 0.18,1.1525 PMOS_VTL
M$1 3 1 4 4 PMOS_VTL L=0.05U W=0.315U AS=0.033075P AD=0.02205P PS=0.84U
+ PD=0.455U
* device instance $2 r0 *1 0.37,1.1525 PMOS_VTL
M$2 3 2 4 4 PMOS_VTL L=0.05U W=0.315U AS=0.0338625P AD=0.02205P PS=0.775U
+ PD=0.455U
* device instance $3 r0 *1 0.565,0.995 PMOS_VTL
M$3 7 3 4 4 PMOS_VTL L=0.05U W=0.63U AS=0.0338625P AD=0.0441P PS=0.775U PD=0.77U
* device instance $4 r0 *1 0.755,0.995 PMOS_VTL
M$4 8 1 7 4 PMOS_VTL L=0.05U W=0.63U AS=0.0441P AD=0.0441P PS=0.77U PD=0.77U
* device instance $5 r0 *1 0.945,0.995 PMOS_VTL
M$5 4 2 8 4 PMOS_VTL L=0.05U W=0.63U AS=0.0441P AD=0.06615P PS=0.77U PD=1.47U
* device instance $6 r0 *1 0.18,0.195 NMOS_VTL
M$6 9 1 3 5 NMOS_VTL L=0.05U W=0.21U AS=0.02205P AD=0.0147P PS=0.63U PD=0.35U
* device instance $7 r0 *1 0.37,0.195 NMOS_VTL
M$7 5 2 9 5 NMOS_VTL L=0.05U W=0.21U AS=0.0147P AD=0.0224P PS=0.35U PD=0.56U
* device instance $8 r0 *1 0.565,0.2975 NMOS_VTL
M$8 6 3 5 5 NMOS_VTL L=0.05U W=0.415U AS=0.0224P AD=0.02905P PS=0.56U PD=0.555U
* device instance $9 r0 *1 0.755,0.2975 NMOS_VTL
M$9 7 1 6 5 NMOS_VTL L=0.05U W=0.415U AS=0.02905P AD=0.02905P PS=0.555U
+ PD=0.555U
* device instance $10 r0 *1 0.945,0.2975 NMOS_VTL
M$10 6 2 7 5 NMOS_VTL L=0.05U W=0.415U AS=0.02905P AD=0.043575P PS=0.555U
+ PD=1.04U
.ENDS XNOR2_X1

* cell BUF_X4
* pin A
* pin NWELL,VDD
* pin Z
* pin PWELL,VSS
.SUBCKT BUF_X4 1 3 4 5
* net 1 A
* net 3 NWELL,VDD
* net 4 Z
* net 5 PWELL,VSS
* device instance $1 r0 *1 0.17,0.995 PMOS_VTL
M$1 2 1 3 3 PMOS_VTL L=0.05U W=1.26U AS=0.11025P AD=0.0882P PS=2.24U PD=1.54U
* device instance $3 r0 *1 0.55,0.995 PMOS_VTL
M$3 4 2 3 3 PMOS_VTL L=0.05U W=2.52U AS=0.1764P AD=0.19845P PS=3.08U PD=3.78U
* device instance $7 r0 *1 0.17,0.2975 NMOS_VTL
M$7 2 1 5 5 NMOS_VTL L=0.05U W=0.83U AS=0.072625P AD=0.0581P PS=1.595U PD=1.11U
* device instance $9 r0 *1 0.55,0.2975 NMOS_VTL
M$9 4 2 5 5 NMOS_VTL L=0.05U W=1.66U AS=0.1162P AD=0.130725P PS=2.22U PD=2.705U
.ENDS BUF_X4

* cell AOI221_X2
* pin B1
* pin B2
* pin A
* pin C2
* pin C1
* pin ZN
* pin NWELL,VDD
* pin PWELL,VSS
.SUBCKT AOI221_X2 1 2 3 4 5 6 8 9
* net 1 B1
* net 2 B2
* net 3 A
* net 4 C2
* net 5 C1
* net 6 ZN
* net 8 NWELL,VDD
* net 9 PWELL,VSS
* device instance $1 r0 *1 0.17,0.995 PMOS_VTL
M$1 7 3 10 8 PMOS_VTL L=0.05U W=1.26U AS=0.11025P AD=0.09135P PS=2.24U PD=1.55U
* device instance $2 r0 *1 0.36,0.995 PMOS_VTL
M$2 8 1 7 8 PMOS_VTL L=0.05U W=1.26U AS=0.0882P AD=0.0882P PS=1.54U PD=1.54U
* device instance $3 r0 *1 0.55,0.995 PMOS_VTL
M$3 7 2 8 8 PMOS_VTL L=0.05U W=1.26U AS=0.0882P AD=0.0882P PS=1.54U PD=1.54U
* device instance $7 r0 *1 1.32,0.995 PMOS_VTL
M$7 6 4 10 8 PMOS_VTL L=0.05U W=1.26U AS=0.09135P AD=0.11025P PS=1.55U PD=2.24U
* device instance $8 r0 *1 1.51,0.995 PMOS_VTL
M$8 10 5 6 8 PMOS_VTL L=0.05U W=1.26U AS=0.0882P AD=0.0882P PS=1.54U PD=1.54U
* device instance $11 r0 *1 0.17,0.2975 NMOS_VTL
M$11 6 3 9 9 NMOS_VTL L=0.05U W=0.83U AS=0.072625P AD=0.060175P PS=1.595U
+ PD=1.12U
* device instance $12 r0 *1 0.36,0.2975 NMOS_VTL
M$12 14 1 6 9 NMOS_VTL L=0.05U W=0.415U AS=0.02905P AD=0.02905P PS=0.555U
+ PD=0.555U
* device instance $13 r0 *1 0.55,0.2975 NMOS_VTL
M$13 9 2 14 9 NMOS_VTL L=0.05U W=0.415U AS=0.02905P AD=0.02905P PS=0.555U
+ PD=0.555U
* device instance $14 r0 *1 0.74,0.2975 NMOS_VTL
M$14 13 2 9 9 NMOS_VTL L=0.05U W=0.415U AS=0.02905P AD=0.02905P PS=0.555U
+ PD=0.555U
* device instance $15 r0 *1 0.93,0.2975 NMOS_VTL
M$15 6 1 13 9 NMOS_VTL L=0.05U W=0.415U AS=0.02905P AD=0.02905P PS=0.555U
+ PD=0.555U
* device instance $17 r0 *1 1.32,0.2975 NMOS_VTL
M$17 12 4 9 9 NMOS_VTL L=0.05U W=0.415U AS=0.031125P AD=0.02905P PS=0.565U
+ PD=0.555U
* device instance $18 r0 *1 1.51,0.2975 NMOS_VTL
M$18 6 5 12 9 NMOS_VTL L=0.05U W=0.415U AS=0.02905P AD=0.02905P PS=0.555U
+ PD=0.555U
* device instance $19 r0 *1 1.7,0.2975 NMOS_VTL
M$19 11 5 6 9 NMOS_VTL L=0.05U W=0.415U AS=0.02905P AD=0.02905P PS=0.555U
+ PD=0.555U
* device instance $20 r0 *1 1.89,0.2975 NMOS_VTL
M$20 9 4 11 9 NMOS_VTL L=0.05U W=0.415U AS=0.02905P AD=0.043575P PS=0.555U
+ PD=1.04U
.ENDS AOI221_X2

* cell OR2_X1
* pin A1
* pin A2
* pin PWELL,VSS
* pin NWELL,VDD
* pin ZN
.SUBCKT OR2_X1 1 2 3 5 6
* net 1 A1
* net 2 A2
* net 3 PWELL,VSS
* net 5 NWELL,VDD
* net 6 ZN
* device instance $1 r0 *1 0.17,1.1525 PMOS_VTL
M$1 7 1 4 5 PMOS_VTL L=0.05U W=0.315U AS=0.033075P AD=0.02205P PS=0.84U
+ PD=0.455U
* device instance $2 r0 *1 0.36,1.1525 PMOS_VTL
M$2 7 2 5 5 PMOS_VTL L=0.05U W=0.315U AS=0.033075P AD=0.02205P PS=0.77U
+ PD=0.455U
* device instance $3 r0 *1 0.55,0.995 PMOS_VTL
M$3 6 4 5 5 PMOS_VTL L=0.05U W=0.63U AS=0.033075P AD=0.06615P PS=0.77U PD=1.47U
* device instance $4 r0 *1 0.17,0.195 NMOS_VTL
M$4 4 1 3 3 NMOS_VTL L=0.05U W=0.21U AS=0.02205P AD=0.0147P PS=0.63U PD=0.35U
* device instance $5 r0 *1 0.36,0.195 NMOS_VTL
M$5 3 2 4 3 NMOS_VTL L=0.05U W=0.21U AS=0.0147P AD=0.021875P PS=0.35U PD=0.555U
* device instance $6 r0 *1 0.55,0.2975 NMOS_VTL
M$6 6 4 3 3 NMOS_VTL L=0.05U W=0.415U AS=0.021875P AD=0.043575P PS=0.555U
+ PD=1.04U
.ENDS OR2_X1

* cell NAND2_X4
* pin A2
* pin A1
* pin PWELL,VSS
* pin ZN
* pin NWELL,VDD
.SUBCKT NAND2_X4 1 2 4 5 6
* net 1 A2
* net 2 A1
* net 4 PWELL,VSS
* net 5 ZN
* net 6 NWELL,VDD
* device instance $1 r0 *1 0.21,0.995 PMOS_VTL
M$1 5 1 6 6 PMOS_VTL L=0.05U W=2.52U AS=0.19845P AD=0.1764P PS=3.78U PD=3.08U
* device instance $5 r0 *1 0.97,0.995 PMOS_VTL
M$5 5 2 6 6 PMOS_VTL L=0.05U W=2.52U AS=0.1764P AD=0.19845P PS=3.08U PD=3.78U
* device instance $9 r0 *1 0.21,0.2975 NMOS_VTL
M$9 4 1 3 4 NMOS_VTL L=0.05U W=1.66U AS=0.130725P AD=0.1162P PS=2.705U PD=2.22U
* device instance $13 r0 *1 0.97,0.2975 NMOS_VTL
M$13 5 2 3 4 NMOS_VTL L=0.05U W=1.66U AS=0.1162P AD=0.130725P PS=2.22U PD=2.705U
.ENDS NAND2_X4

* cell NAND4_X1
* pin A4
* pin A3
* pin A2
* pin A1
* pin PWELL,VSS
* pin NWELL,VDD
* pin ZN
.SUBCKT NAND4_X1 1 2 3 4 5 6 7
* net 1 A4
* net 2 A3
* net 3 A2
* net 4 A1
* net 5 PWELL,VSS
* net 6 NWELL,VDD
* net 7 ZN
* device instance $1 r0 *1 0.17,0.995 PMOS_VTL
M$1 7 1 6 6 PMOS_VTL L=0.05U W=0.63U AS=0.06615P AD=0.0441P PS=1.47U PD=0.77U
* device instance $2 r0 *1 0.36,0.995 PMOS_VTL
M$2 6 2 7 6 PMOS_VTL L=0.05U W=0.63U AS=0.0441P AD=0.0441P PS=0.77U PD=0.77U
* device instance $3 r0 *1 0.55,0.995 PMOS_VTL
M$3 7 3 6 6 PMOS_VTL L=0.05U W=0.63U AS=0.0441P AD=0.0441P PS=0.77U PD=0.77U
* device instance $4 r0 *1 0.74,0.995 PMOS_VTL
M$4 6 4 7 6 PMOS_VTL L=0.05U W=0.63U AS=0.0441P AD=0.06615P PS=0.77U PD=1.47U
* device instance $5 r0 *1 0.17,0.2975 NMOS_VTL
M$5 10 1 5 5 NMOS_VTL L=0.05U W=0.415U AS=0.043575P AD=0.02905P PS=1.04U
+ PD=0.555U
* device instance $6 r0 *1 0.36,0.2975 NMOS_VTL
M$6 9 2 10 5 NMOS_VTL L=0.05U W=0.415U AS=0.02905P AD=0.02905P PS=0.555U
+ PD=0.555U
* device instance $7 r0 *1 0.55,0.2975 NMOS_VTL
M$7 8 3 9 5 NMOS_VTL L=0.05U W=0.415U AS=0.02905P AD=0.02905P PS=0.555U
+ PD=0.555U
* device instance $8 r0 *1 0.74,0.2975 NMOS_VTL
M$8 7 4 8 5 NMOS_VTL L=0.05U W=0.415U AS=0.02905P AD=0.043575P PS=0.555U
+ PD=1.04U
.ENDS NAND4_X1

* cell NAND2_X1
* pin A2
* pin A1
* pin PWELL,VSS
* pin NWELL,VDD
* pin ZN
.SUBCKT NAND2_X1 1 2 3 4 5
* net 1 A2
* net 2 A1
* net 3 PWELL,VSS
* net 4 NWELL,VDD
* net 5 ZN
* device instance $1 r0 *1 0.185,0.995 PMOS_VTL
M$1 5 1 4 4 PMOS_VTL L=0.05U W=0.63U AS=0.06615P AD=0.0441P PS=1.47U PD=0.77U
* device instance $2 r0 *1 0.375,0.995 PMOS_VTL
M$2 4 2 5 4 PMOS_VTL L=0.05U W=0.63U AS=0.0441P AD=0.06615P PS=0.77U PD=1.47U
* device instance $3 r0 *1 0.185,0.2975 NMOS_VTL
M$3 6 1 3 3 NMOS_VTL L=0.05U W=0.415U AS=0.043575P AD=0.02905P PS=1.04U
+ PD=0.555U
* device instance $4 r0 *1 0.375,0.2975 NMOS_VTL
M$4 5 2 6 3 NMOS_VTL L=0.05U W=0.415U AS=0.02905P AD=0.043575P PS=0.555U
+ PD=1.04U
.ENDS NAND2_X1

* cell INV_X1
* pin A
* pin PWELL,VSS
* pin NWELL,VDD
* pin ZN
.SUBCKT INV_X1 1 2 3 4
* net 1 A
* net 2 PWELL,VSS
* net 3 NWELL,VDD
* net 4 ZN
* device instance $1 r0 *1 0.17,0.995 PMOS_VTL
M$1 4 1 3 3 PMOS_VTL L=0.05U W=0.63U AS=0.06615P AD=0.06615P PS=1.47U PD=1.47U
* device instance $2 r0 *1 0.17,0.2975 NMOS_VTL
M$2 4 1 2 2 NMOS_VTL L=0.05U W=0.415U AS=0.043575P AD=0.043575P PS=1.04U
+ PD=1.04U
.ENDS INV_X1

* cell NOR2_X1
* pin A2
* pin A1
* pin PWELL,VSS
* pin NWELL,VDD
* pin ZN
.SUBCKT NOR2_X1 1 2 3 4 5
* net 1 A2
* net 2 A1
* net 3 PWELL,VSS
* net 4 NWELL,VDD
* net 5 ZN
* device instance $1 r0 *1 0.185,0.995 PMOS_VTL
M$1 6 1 4 4 PMOS_VTL L=0.05U W=0.63U AS=0.06615P AD=0.0441P PS=1.47U PD=0.77U
* device instance $2 r0 *1 0.375,0.995 PMOS_VTL
M$2 5 2 6 4 PMOS_VTL L=0.05U W=0.63U AS=0.0441P AD=0.06615P PS=0.77U PD=1.47U
* device instance $3 r0 *1 0.185,0.2975 NMOS_VTL
M$3 5 1 3 3 NMOS_VTL L=0.05U W=0.415U AS=0.043575P AD=0.02905P PS=1.04U
+ PD=0.555U
* device instance $4 r0 *1 0.375,0.2975 NMOS_VTL
M$4 3 2 5 3 NMOS_VTL L=0.05U W=0.415U AS=0.02905P AD=0.043575P PS=0.555U
+ PD=1.04U
.ENDS NOR2_X1

* cell AOI22_X1
* pin B2
* pin B1
* pin A1
* pin A2
* pin PWELL,VSS
* pin NWELL,VDD
* pin ZN
.SUBCKT AOI22_X1 1 2 3 4 5 7 8
* net 1 B2
* net 2 B1
* net 3 A1
* net 4 A2
* net 5 PWELL,VSS
* net 7 NWELL,VDD
* net 8 ZN
* device instance $1 r0 *1 0.185,0.995 PMOS_VTL
M$1 7 1 6 7 PMOS_VTL L=0.05U W=0.63U AS=0.06615P AD=0.0441P PS=1.47U PD=0.77U
* device instance $2 r0 *1 0.375,0.995 PMOS_VTL
M$2 6 2 7 7 PMOS_VTL L=0.05U W=0.63U AS=0.0441P AD=0.0441P PS=0.77U PD=0.77U
* device instance $3 r0 *1 0.565,0.995 PMOS_VTL
M$3 8 3 6 7 PMOS_VTL L=0.05U W=0.63U AS=0.0441P AD=0.0441P PS=0.77U PD=0.77U
* device instance $4 r0 *1 0.755,0.995 PMOS_VTL
M$4 6 4 8 7 PMOS_VTL L=0.05U W=0.63U AS=0.0441P AD=0.06615P PS=0.77U PD=1.47U
* device instance $5 r0 *1 0.185,0.2975 NMOS_VTL
M$5 10 1 5 5 NMOS_VTL L=0.05U W=0.415U AS=0.043575P AD=0.02905P PS=1.04U
+ PD=0.555U