* CDL Netlist generated by OpenROAD

*.BUSDELIMITER [

.SUBCKT smart_fifo almost_empty almost_full clear_errors clk
+ data_count[0] data_count[1] data_count[2] data_count[3] data_count[4]
+ empty error_count[0] error_count[10] error_count[11] error_count[12]
+ error_count[13] error_count[14] error_count[15] error_count[1]
+ error_count[2] error_count[3] error_count[4] error_count[5]
+ error_count[6] error_count[7] error_count[8] error_count[9]
+ error_detected full overflow_detected rd_data[0] rd_data[10]
+ rd_data[11] rd_data[12] rd_data[13] rd_data[14] rd_data[15]
+ rd_data[16] rd_data[17] rd_data[18] rd_data[19] rd_data[1]
+ rd_data[20] rd_data[21] rd_data[22] rd_data[23] rd_data[24]
+ rd_data[25] rd_data[26] rd_data[27] rd_data[28] rd_data[29]
+ rd_data[2] rd_data[30] rd_data[31] rd_data[3] rd_data[4] rd_data[5]
+ rd_data[6] rd_data[7] rd_data[8] rd_data[9] rd_en rd_valid
+ rst_n underflow_detected wr_data[0] wr_data[10] wr_data[11]
+ wr_data[12] wr_data[13] wr_data[14] wr_data[15] wr_data[16]
+ wr_data[17] wr_data[18] wr_data[19] wr_data[1] wr_data[20]
+ wr_data[21] wr_data[22] wr_data[23] wr_data[24] wr_data[25]
+ wr_data[26] wr_data[27] wr_data[28] wr_data[29] wr_data[2]
+ wr_data[30] wr_data[31] wr_data[3] wr_data[4] wr_data[5] wr_data[6]
+ wr_data[7] wr_data[8] wr_data[9] wr_en wr_ready VSS VDD
Xclkload3 clknet_3_3__leaf_clk _unconnected_0 VDD VSS CLKBUF_X3
X_2158_ _0025_ net39 VDD VSS INV_X1
Xclkload2 clknet_3_2__leaf_clk _unconnected_1 VDD VSS INV_X2
X_2160_ _0009_ _0007_ _0604_ VDD VSS XNOR2_X2
X_2161_ _0604_ net41 VDD VSS INV_X1
X_2162_ _0024_ _0006_ VDD VSS INV_X1
X_2163_ _0009_ _0006_ _0011_ _0605_ VDD VSS AND3_X1
X_2164_ _0008_ _0010_ _0009_ _0606_ VDD VSS AOI21_X2
X_2165_ _0606_ _0607_ VDD VSS INV_X1
X_2166_ _0013_ _0605_ _0607_ _0608_ VDD VSS OAI21_X1
X_2167_ _0013_ _0609_ VDD VSS INV_X1
X_2168_ _0009_ _0006_ _0011_ _0610_ VDD VSS NAND3_X1
X_2169_ _0609_ _0610_ _0606_ _0611_ VDD VSS NAND3_X1
X_2170_ _0608_ _0611_ _0612_ VDD VSS NAND2_X1
X_2171_ _0612_ net42 VDD VSS INV_X1
X_2172_ _0012_ _0613_ VDD VSS INV_X1
X_2173_ _0008_ _0007_ _0009_ _0614_ VDD VSS AOI21_X1
X_2174_ _0613_ _0614_ _0609_ _0615_ VDD VSS OAI21_X1
X_2175_ wr_ptr\[4\] rd_ptr\[4\] _0616_ VDD VSS XOR2_X1
X_2176_ _0615_ _0616_ _0617_ VDD VSS XOR2_X2
X_2177_ _0617_ net43 VDD VSS INV_X1
X_2178_ net40 _0618_ VDD VSS INV_X1
X_2179_ _0013_ _0618_ _0025_ _0604_ _0619_ VDD VSS NAND4_X1
X_2180_ _0619_ _0606_ _0610_ _0620_ VDD VSS AOI21_X4
X_2181_ _0609_ _0618_ _0025_ _0604_ _0621_ VDD VSS NAND4_X2
X_2182_ _0605_ _0607_ _0621_ _0622_ VDD VSS NOR3_X4
X_2183_ net43 _0620_ _0622_ net98 VDD VSS OAI21_X2
X_2184_ net98 net62 VDD VSS INV_X1
X_2185_ _0617_ _0620_ _0622_ net96 VDD VSS OAI21_X4
X_2186_ net96 net44 VDD VSS INV_X8
Xclkload1 clknet_3_1__leaf_clk _unconnected_2 VDD VSS CLKBUF_X3
Xclkload0 clknet_3_0__leaf_clk _unconnected_3 VDD VSS INV_X2
Xclkbuf_3_7__f_clk clknet_0_clk clknet_3_7__leaf_clk VDD VSS
+ CLKBUF_X3
Xclkbuf_3_6__f_clk clknet_0_clk clknet_3_6__leaf_clk VDD VSS
+ CLKBUF_X3
Xclkbuf_3_5__f_clk clknet_0_clk clknet_3_5__leaf_clk VDD VSS
+ CLKBUF_X3
Xclkbuf_3_4__f_clk clknet_0_clk clknet_3_4__leaf_clk VDD VSS
+ CLKBUF_X3
X_2193_ net2 _0629_ VDD VSS INV_X1
X_2194_ _0629_ net96 net97 VDD VSS NOR2_X1
Xclkbuf_3_3__f_clk clknet_0_clk clknet_3_3__leaf_clk VDD VSS
+ CLKBUF_X3
Xclkbuf_3_2__f_clk clknet_0_clk clknet_3_2__leaf_clk VDD VSS
+ CLKBUF_X3
Xclkbuf_3_1__f_clk clknet_0_clk clknet_3_1__leaf_clk VDD VSS
+ CLKBUF_X3
X_2198_ net36 _0633_ VDD VSS INV_X1
Xclkbuf_3_0__f_clk clknet_0_clk clknet_3_0__leaf_clk VDD VSS
+ CLKBUF_X3
X_2200_ _0633_ wr_ptr\[3\] wr_ptr\[2\] _0635_ VDD VSS NOR3_X1
X_2201_ _0019_ _0635_ _0636_ VDD VSS AND2_X1
Xclkbuf_0_clk clk clknet_0_clk VDD VSS CLKBUF_X3
Xclkbuf_leaf_76_clk clknet_3_1__leaf_clk clknet_leaf_76_clk
+ VDD VSS CLKBUF_X3
X_2204_ mem\[0\]\[0\] net4 _0636_ _0080_ VDD VSS MUX2_X1
Xclkbuf_leaf_75_clk clknet_3_0__leaf_clk clknet_leaf_75_clk
+ VDD VSS CLKBUF_X3
Xclkbuf_leaf_74_clk clknet_3_0__leaf_clk clknet_leaf_74_clk
+ VDD VSS CLKBUF_X3
X_2207_ mem\[0\]\[10\] net5 net196 _0081_ VDD VSS MUX2_X1
Xclkbuf_leaf_73_clk clknet_3_0__leaf_clk clknet_leaf_73_clk
+ VDD VSS CLKBUF_X3
Xclkbuf_leaf_72_clk clknet_3_0__leaf_clk clknet_leaf_72_clk
+ VDD VSS CLKBUF_X3
X_2210_ mem\[0\]\[11\] net6 net196 _0082_ VDD VSS MUX2_X1
Xclkbuf_leaf_71_clk clknet_3_0__leaf_clk clknet_leaf_71_clk
+ VDD VSS CLKBUF_X3
Xclkbuf_leaf_70_clk clknet_3_0__leaf_clk clknet_leaf_70_clk
+ VDD VSS CLKBUF_X3
X_2213_ mem\[0\]\[12\] net7 net196 _0083_ VDD VSS MUX2_X1
Xclkbuf_leaf_69_clk clknet_3_0__leaf_clk clknet_leaf_69_clk
+ VDD VSS CLKBUF_X3
Xclkbuf_leaf_68_clk clknet_3_0__leaf_clk clknet_leaf_68_clk
+ VDD VSS CLKBUF_X3
X_2216_ mem\[0\]\[13\] net8 net196 _0084_ VDD VSS MUX2_X1
Xclkbuf_leaf_67_clk clknet_3_0__leaf_clk clknet_leaf_67_clk
+ VDD VSS CLKBUF_X3
Xclkbuf_leaf_66_clk clknet_3_1__leaf_clk clknet_leaf_66_clk
+ VDD VSS CLKBUF_X3
X_2219_ mem\[0\]\[14\] net9 net196 _0085_ VDD VSS MUX2_X1
Xclkbuf_leaf_65_clk clknet_3_1__leaf_clk clknet_leaf_65_clk
+ VDD VSS CLKBUF_X3
Xclkbuf_leaf_64_clk clknet_3_1__leaf_clk clknet_leaf_64_clk
+ VDD VSS CLKBUF_X3
X_2222_ mem\[0\]\[15\] net10 net196 _0086_ VDD VSS MUX2_X1
Xclkbuf_leaf_63_clk clknet_3_3__leaf_clk clknet_leaf_63_clk
+ VDD VSS CLKBUF_X3
Xclkbuf_leaf_62_clk clknet_3_3__leaf_clk clknet_leaf_62_clk
+ VDD VSS CLKBUF_X3
X_2225_ mem\[0\]\[16\] net11 net196 _0087_ VDD VSS MUX2_X1
Xclkbuf_leaf_61_clk clknet_3_3__leaf_clk clknet_leaf_61_clk
+ VDD VSS CLKBUF_X3
Xclkbuf_leaf_60_clk clknet_3_2__leaf_clk clknet_leaf_60_clk
+ VDD VSS CLKBUF_X3
X_2228_ mem\[0\]\[17\] net12 _0636_ _0088_ VDD VSS MUX2_X1
Xclkbuf_leaf_59_clk clknet_3_2__leaf_clk clknet_leaf_59_clk
+ VDD VSS CLKBUF_X3
Xclkbuf_leaf_58_clk clknet_3_2__leaf_clk clknet_leaf_58_clk
+ VDD VSS CLKBUF_X3
X_2231_ mem\[0\]\[18\] net13 _0636_ _0089_ VDD VSS MUX2_X1
Xclkbuf_leaf_57_clk clknet_3_2__leaf_clk clknet_leaf_57_clk
+ VDD VSS CLKBUF_X3
Xclkbuf_leaf_56_clk clknet_3_2__leaf_clk clknet_leaf_56_clk
+ VDD VSS CLKBUF_X3
Xclkbuf_leaf_55_clk clknet_3_2__leaf_clk clknet_leaf_55_clk
+ VDD VSS CLKBUF_X3
X_2235_ mem\[0\]\[19\] net14 net197 _0090_ VDD VSS MUX2_X1
Xclkbuf_leaf_54_clk clknet_3_2__leaf_clk clknet_leaf_54_clk
+ VDD VSS CLKBUF_X3
Xclkbuf_leaf_53_clk clknet_3_2__leaf_clk clknet_leaf_53_clk
+ VDD VSS CLKBUF_X3
X_2238_ mem\[0\]\[1\] net15 _0636_ _0091_ VDD VSS MUX2_X1
Xclkbuf_leaf_52_clk clknet_3_2__leaf_clk clknet_leaf_52_clk
+ VDD VSS CLKBUF_X3
Xclkbuf_leaf_51_clk clknet_3_3__leaf_clk clknet_leaf_51_clk
+ VDD VSS CLKBUF_X3
X_2241_ mem\[0\]\[20\] net16 _0636_ _0092_ VDD VSS MUX2_X1
Xclkbuf_leaf_50_clk clknet_3_3__leaf_clk clknet_leaf_50_clk
+ VDD VSS CLKBUF_X3
Xclkbuf_leaf_49_clk clknet_3_3__leaf_clk clknet_leaf_49_clk
+ VDD VSS CLKBUF_X3
X_2244_ mem\[0\]\[21\] net17 _0636_ _0093_ VDD VSS MUX2_X1
Xclkbuf_leaf_48_clk clknet_3_3__leaf_clk clknet_leaf_48_clk
+ VDD VSS CLKBUF_X3
Xclkbuf_leaf_47_clk clknet_3_3__leaf_clk clknet_leaf_47_clk
+ VDD VSS CLKBUF_X3
X_2247_ mem\[0\]\[22\] net18 _0636_ _0094_ VDD VSS MUX2_X1
Xclkbuf_leaf_46_clk clknet_3_3__leaf_clk clknet_leaf_46_clk
+ VDD VSS CLKBUF_X3
Xclkbuf_leaf_45_clk clknet_3_3__leaf_clk clknet_leaf_45_clk
+ VDD VSS CLKBUF_X3
X_2250_ mem\[0\]\[23\] net19 _0636_ _0095_ VDD VSS MUX2_X1
Xclkbuf_leaf_44_clk clknet_3_6__leaf_clk clknet_leaf_44_clk
+ VDD VSS CLKBUF_X3
Xclkbuf_leaf_43_clk clknet_3_6__leaf_clk clknet_leaf_43_clk
+ VDD VSS CLKBUF_X3
X_2253_ mem\[0\]\[24\] net20 _0636_ _0096_ VDD VSS MUX2_X1
Xclkbuf_leaf_42_clk clknet_3_6__leaf_clk clknet_leaf_42_clk
+ VDD VSS CLKBUF_X3
Xclkbuf_leaf_41_clk clknet_3_6__leaf_clk clknet_leaf_41_clk
+ VDD VSS CLKBUF_X3
X_2256_ mem\[0\]\[25\] net21 net197 _0097_ VDD VSS MUX2_X1
Xclkbuf_leaf_40_clk clknet_3_6__leaf_clk clknet_leaf_40_clk
+ VDD VSS CLKBUF_X3
Xclkbuf_leaf_39_clk clknet_3_6__leaf_clk clknet_leaf_39_clk
+ VDD VSS CLKBUF_X3
X_2259_ mem\[0\]\[26\] net22 net197 _0098_ VDD VSS MUX2_X1
Xclkbuf_leaf_38_clk clknet_3_7__leaf_clk clknet_leaf_38_clk
+ VDD VSS CLKBUF_X3
Xclkbuf_leaf_37_clk clknet_3_7__leaf_clk clknet_leaf_37_clk
+ VDD VSS CLKBUF_X3
X_2262_ mem\[0\]\[27\] net23 net197 _0099_ VDD VSS MUX2_X1
Xclkbuf_leaf_36_clk clknet_3_7__leaf_clk clknet_leaf_36_clk
+ VDD VSS CLKBUF_X3
Xclkbuf_leaf_35_clk clknet_3_7__leaf_clk clknet_leaf_35_clk
+ VDD VSS CLKBUF_X3
Xclkbuf_leaf_34_clk clknet_3_7__leaf_clk clknet_leaf_34_clk
+ VDD VSS CLKBUF_X3
X_2266_ mem\[0\]\[28\] net24 net197 _0100_ VDD VSS MUX2_X1
Xclkbuf_leaf_33_clk clknet_3_7__leaf_clk clknet_leaf_33_clk
+ VDD VSS CLKBUF_X3
Xclkbuf_leaf_32_clk clknet_3_7__leaf_clk clknet_leaf_32_clk
+ VDD VSS CLKBUF_X3
X_2269_ mem\[0\]\[29\] net25 net197 _0101_ VDD VSS MUX2_X1
Xclkbuf_leaf_31_clk clknet_3_7__leaf_clk clknet_leaf_31_clk
+ VDD VSS CLKBUF_X3
Xclkbuf_leaf_30_clk clknet_3_7__leaf_clk clknet_leaf_30_clk
+ VDD VSS CLKBUF_X3
X_2272_ mem\[0\]\[2\] net26 net197 _0102_ VDD VSS MUX2_X1
Xclkbuf_leaf_29_clk clknet_3_6__leaf_clk clknet_leaf_29_clk
+ VDD VSS CLKBUF_X3
Xclkbuf_leaf_28_clk clknet_3_6__leaf_clk clknet_leaf_28_clk
+ VDD VSS CLKBUF_X3
X_2275_ mem\[0\]\[30\] net27 net197 _0103_ VDD VSS MUX2_X1
Xclkbuf_leaf_27_clk clknet_3_6__leaf_clk clknet_leaf_27_clk
+ VDD VSS CLKBUF_X3
Xclkbuf_leaf_26_clk clknet_3_4__leaf_clk clknet_leaf_26_clk
+ VDD VSS CLKBUF_X3
X_2278_ mem\[0\]\[31\] net28 net197 _0104_ VDD VSS MUX2_X1
Xclkbuf_leaf_25_clk clknet_3_4__leaf_clk clknet_leaf_25_clk
+ VDD VSS CLKBUF_X3
Xclkbuf_leaf_24_clk clknet_3_5__leaf_clk clknet_leaf_24_clk
+ VDD VSS CLKBUF_X3
X_2281_ mem\[0\]\[3\] net29 net197 _0105_ VDD VSS MUX2_X1
Xclkbuf_leaf_23_clk clknet_3_5__leaf_clk clknet_leaf_23_clk
+ VDD VSS CLKBUF_X3
Xclkbuf_leaf_22_clk clknet_3_5__leaf_clk clknet_leaf_22_clk
+ VDD VSS CLKBUF_X3
X_2284_ mem\[0\]\[4\] net30 net197 _0106_ VDD VSS MUX2_X1
Xclkbuf_leaf_21_clk clknet_3_5__leaf_clk clknet_leaf_21_clk
+ VDD VSS CLKBUF_X3
Xclkbuf_leaf_20_clk clknet_3_5__leaf_clk clknet_leaf_20_clk
+ VDD VSS CLKBUF_X3
X_2287_ mem\[0\]\[5\] net31 _0636_ _0107_ VDD VSS MUX2_X1
Xclkbuf_leaf_19_clk clknet_3_5__leaf_clk clknet_leaf_19_clk
+ VDD VSS CLKBUF_X3
Xclkbuf_leaf_18_clk clknet_3_5__leaf_clk clknet_leaf_18_clk
+ VDD VSS CLKBUF_X3
X_2290_ mem\[0\]\[6\] net32 _0636_ _0108_ VDD VSS MUX2_X1
Xclkbuf_leaf_17_clk clknet_3_5__leaf_clk clknet_leaf_17_clk
+ VDD VSS CLKBUF_X3
Xclkbuf_leaf_16_clk clknet_3_5__leaf_clk clknet_leaf_16_clk
+ VDD VSS CLKBUF_X3
X_2293_ mem\[0\]\[7\] net33 net196 _0109_ VDD VSS MUX2_X1
Xclkbuf_leaf_15_clk clknet_3_5__leaf_clk clknet_leaf_15_clk
+ VDD VSS CLKBUF_X3
Xclkbuf_leaf_14_clk clknet_3_4__leaf_clk clknet_leaf_14_clk
+ VDD VSS CLKBUF_X3
X_2296_ mem\[0\]\[8\] net34 _0636_ _0110_ VDD VSS MUX2_X1
Xclkbuf_leaf_13_clk clknet_3_4__leaf_clk clknet_leaf_13_clk
+ VDD VSS CLKBUF_X3
Xclkbuf_leaf_12_clk clknet_3_4__leaf_clk clknet_leaf_12_clk
+ VDD VSS CLKBUF_X3
X_2299_ mem\[0\]\[9\] net35 net196 _0111_ VDD VSS MUX2_X1
Xclkbuf_leaf_11_clk clknet_3_4__leaf_clk clknet_leaf_11_clk
+ VDD VSS CLKBUF_X3
X_2301_ wr_ptr\[3\] _0704_ VDD VSS INV_X1
X_2302_ _0633_ _0704_ wr_ptr\[2\] _0705_ VDD VSS NOR3_X1
X_2303_ _0021_ net195 _0706_ VDD VSS NAND2_X2
Xclkbuf_leaf_10_clk clknet_3_4__leaf_clk clknet_leaf_10_clk
+ VDD VSS CLKBUF_X3
X_2305_ net4 mem\[10\]\[0\] _0706_ _0112_ VDD VSS MUX2_X1
X_2306_ net5 mem\[10\]\[10\] _0706_ _0113_ VDD VSS MUX2_X1
X_2307_ net6 mem\[10\]\[11\] _0706_ _0114_ VDD VSS MUX2_X1
X_2308_ net7 mem\[10\]\[12\] _0706_ _0115_ VDD VSS MUX2_X1
X_2309_ net8 mem\[10\]\[13\] _0706_ _0116_ VDD VSS MUX2_X1
X_2310_ net9 mem\[10\]\[14\] _0706_ _0117_ VDD VSS MUX2_X1
X_2311_ net10 mem\[10\]\[15\] _0706_ _0118_ VDD VSS MUX2_X1
X_2312_ net11 mem\[10\]\[16\] _0706_ _0119_ VDD VSS MUX2_X1
X_2313_ net12 mem\[10\]\[17\] _0706_ _0120_ VDD VSS MUX2_X1
X_2314_ net13 mem\[10\]\[18\] _0706_ _0121_ VDD VSS MUX2_X1
Xclkbuf_leaf_9_clk clknet_3_4__leaf_clk clknet_leaf_9_clk
+ VDD VSS CLKBUF_X3
X_2316_ net14 mem\[10\]\[19\] _0706_ _0122_ VDD VSS MUX2_X1
X_2317_ net15 mem\[10\]\[1\] net187 _0123_ VDD VSS MUX2_X1
X_2318_ net16 mem\[10\]\[20\] net187 _0124_ VDD VSS MUX2_X1
X_2319_ net17 mem\[10\]\[21\] net187 _0125_ VDD VSS MUX2_X1
X_2320_ net18 mem\[10\]\[22\] net187 _0126_ VDD VSS MUX2_X1
X_2321_ net19 mem\[10\]\[23\] net187 _0127_ VDD VSS MUX2_X1
X_2322_ net20 mem\[10\]\[24\] net187 _0128_ VDD VSS MUX2_X1
X_2323_ net21 mem\[10\]\[25\] _0706_ _0129_ VDD VSS MUX2_X1
X_2324_ net22 mem\[10\]\[26\] net187 _0130_ VDD VSS MUX2_X1
X_2325_ net23 mem\[10\]\[27\] _0706_ _0131_ VDD VSS MUX2_X1
Xclkbuf_leaf_8_clk clknet_3_4__leaf_clk clknet_leaf_8_clk
+ VDD VSS CLKBUF_X3
X_2327_ net24 mem\[10\]\[28\] net187 _0132_ VDD VSS MUX2_X1
X_2328_ net25 mem\[10\]\[29\] net187 _0133_ VDD VSS MUX2_X1
X_2329_ net26 mem\[10\]\[2\] net187 _0134_ VDD VSS MUX2_X1
X_2330_ net27 mem\[10\]\[30\] net187 _0135_ VDD VSS MUX2_X1
X_2331_ net28 mem\[10\]\[31\] _0706_ _0136_ VDD VSS MUX2_X1
X_2332_ net29 mem\[10\]\[3\] net187 _0137_ VDD VSS MUX2_X1
X_2333_ net30 mem\[10\]\[4\] _0706_ _0138_ VDD VSS MUX2_X1
X_2334_ net31 mem\[10\]\[5\] _0706_ _0139_ VDD VSS MUX2_X1
X_2335_ net32 mem\[10\]\[6\] _0706_ _0140_ VDD VSS MUX2_X1
X_2336_ net33 mem\[10\]\[7\] _0706_ _0141_ VDD VSS MUX2_X1
X_2337_ net34 mem\[10\]\[8\] _0706_ _0142_ VDD VSS MUX2_X1
X_2338_ net35 mem\[10\]\[9\] _0706_ _0143_ VDD VSS MUX2_X1
Xclkbuf_leaf_7_clk clknet_3_4__leaf_clk clknet_leaf_7_clk
+ VDD VSS CLKBUF_X3
X_2340_ _0023_ net195 _0711_ VDD VSS NAND2_X2
Xclkbuf_leaf_6_clk clknet_3_4__leaf_clk clknet_leaf_6_clk
+ VDD VSS CLKBUF_X3
X_2342_ net4 mem\[11\]\[0\] net186 _0144_ VDD VSS MUX2_X1
X_2343_ net5 mem\[11\]\[10\] net186 _0145_ VDD VSS MUX2_X1
X_2344_ net6 mem\[11\]\[11\] net186 _0146_ VDD VSS MUX2_X1
X_2345_ net7 mem\[11\]\[12\] net186 _0147_ VDD VSS MUX2_X1
X_2346_ net8 mem\[11\]\[13\] net186 _0148_ VDD VSS MUX2_X1
X_2347_ net9 mem\[11\]\[14\] net186 _0149_ VDD VSS MUX2_X1
X_2348_ net10 mem\[11\]\[15\] net186 _0150_ VDD VSS MUX2_X1
X_2349_ net11 mem\[11\]\[16\] net186 _0151_ VDD VSS MUX2_X1
X_2350_ net12 mem\[11\]\[17\] net186 _0152_ VDD VSS MUX2_X1
X_2351_ net13 mem\[11\]\[18\] net186 _0153_ VDD VSS MUX2_X1
Xclkbuf_leaf_5_clk clknet_3_1__leaf_clk clknet_leaf_5_clk
+ VDD VSS CLKBUF_X3
X_2353_ net14 mem\[11\]\[19\] _0711_ _0154_ VDD VSS MUX2_X1
X_2354_ net15 mem\[11\]\[1\] _0711_ _0155_ VDD VSS MUX2_X1
X_2355_ net16 mem\[11\]\[20\] _0711_ _0156_ VDD VSS MUX2_X1
X_2356_ net17 mem\[11\]\[21\] _0711_ _0157_ VDD VSS MUX2_X1
X_2357_ net18 mem\[11\]\[22\] _0711_ _0158_ VDD VSS MUX2_X1
X_2358_ net19 mem\[11\]\[23\] _0711_ _0159_ VDD VSS MUX2_X1
X_2359_ net20 mem\[11\]\[24\] _0711_ _0160_ VDD VSS MUX2_X1
X_2360_ net21 mem\[11\]\[25\] _0711_ _0161_ VDD VSS MUX2_X1
X_2361_ net22 mem\[11\]\[26\] _0711_ _0162_ VDD VSS MUX2_X1
X_2362_ net23 mem\[11\]\[27\] _0711_ _0163_ VDD VSS MUX2_X1
Xclkbuf_leaf_4_clk clknet_3_1__leaf_clk clknet_leaf_4_clk
+ VDD VSS CLKBUF_X3
X_2364_ net24 mem\[11\]\[28\] _0711_ _0164_ VDD VSS MUX2_X1
X_2365_ net25 mem\[11\]\[29\] _0711_ _0165_ VDD VSS MUX2_X1
X_2366_ net26 mem\[11\]\[2\] _0711_ _0166_ VDD VSS MUX2_X1
X_2367_ net27 mem\[11\]\[30\] _0711_ _0167_ VDD VSS MUX2_X1
X_2368_ net28 mem\[11\]\[31\] _0711_ _0168_ VDD VSS MUX2_X1
X_2369_ net29 mem\[11\]\[3\] _0711_ _0169_ VDD VSS MUX2_X1
X_2370_ net30 mem\[11\]\[4\] _0711_ _0170_ VDD VSS MUX2_X1
X_2371_ net31 mem\[11\]\[5\] _0711_ _0171_ VDD VSS MUX2_X1
X_2372_ net32 mem\[11\]\[6\] _0711_ _0172_ VDD VSS MUX2_X1
X_2373_ net33 mem\[11\]\[7\] net186 _0173_ VDD VSS MUX2_X1
X_2374_ net34 mem\[11\]\[8\] _0711_ _0174_ VDD VSS MUX2_X1
X_2375_ net35 mem\[11\]\[9\] net186 _0175_ VDD VSS MUX2_X1
X_2376_ net36 wr_ptr\[2\] _0715_ VDD VSS AND2_X1
X_2377_ wr_ptr\[3\] _0715_ _0716_ VDD VSS AND2_X1
Xclkbuf_leaf_3_clk clknet_3_1__leaf_clk clknet_leaf_3_clk
+ VDD VSS CLKBUF_X3
X_2379_ _0019_ _0716_ _0718_ VDD VSS NAND2_X2
Xplace207 _0000_ net207 VDD VSS BUF_X4
X_2381_ net4 mem\[12\]\[0\] _0718_ _0176_ VDD VSS MUX2_X1
X_2382_ net5 mem\[12\]\[10\] _0718_ _0177_ VDD VSS MUX2_X1
X_2383_ net6 mem\[12\]\[11\] _0718_ _0178_ VDD VSS MUX2_X1
X_2384_ net7 mem\[12\]\[12\] _0718_ _0179_ VDD VSS MUX2_X1
X_2385_ net8 mem\[12\]\[13\] _0718_ _0180_ VDD VSS MUX2_X1
X_2386_ net9 mem\[12\]\[14\] _0718_ _0181_ VDD VSS MUX2_X1
X_2387_ net10 mem\[12\]\[15\] _0718_ _0182_ VDD VSS MUX2_X1
X_2388_ net11 mem\[12\]\[16\] _0718_ _0183_ VDD VSS MUX2_X1
X_2389_ net12 mem\[12\]\[17\] _0718_ _0184_ VDD VSS MUX2_X1
X_2390_ net13 mem\[12\]\[18\] _0718_ _0185_ VDD VSS MUX2_X1
Xplace206 _0000_ net206 VDD VSS BUF_X4
X_2392_ net14 mem\[12\]\[19\] _0718_ _0186_ VDD VSS MUX2_X1
X_2393_ net15 mem\[12\]\[1\] net185 _0187_ VDD VSS MUX2_X1
X_2394_ net16 mem\[12\]\[20\] net185 _0188_ VDD VSS MUX2_X1
X_2395_ net17 mem\[12\]\[21\] net185 _0189_ VDD VSS MUX2_X1
X_2396_ net18 mem\[12\]\[22\] net185 _0190_ VDD VSS MUX2_X1
X_2397_ net19 mem\[12\]\[23\] net185 _0191_ VDD VSS MUX2_X1
X_2398_ net20 mem\[12\]\[24\] net185 _0192_ VDD VSS MUX2_X1
X_2399_ net21 mem\[12\]\[25\] net185 _0193_ VDD VSS MUX2_X1
X_2400_ net22 mem\[12\]\[26\] net185 _0194_ VDD VSS MUX2_X1
X_2401_ net23 mem\[12\]\[27\] net185 _0195_ VDD VSS MUX2_X1
Xplace201 _0002_ net201 VDD VSS BUF_X4
X_2403_ net24 mem\[12\]\[28\] net185 _0196_ VDD VSS MUX2_X1
X_2404_ net25 mem\[12\]\[29\] net185 _0197_ VDD VSS MUX2_X1
X_2405_ net26 mem\[12\]\[2\] net185 _0198_ VDD VSS MUX2_X1
X_2406_ net27 mem\[12\]\[30\] net185 _0199_ VDD VSS MUX2_X1
X_2407_ net28 mem\[12\]\[31\] _0718_ _0200_ VDD VSS MUX2_X1
X_2408_ net29 mem\[12\]\[3\] _0718_ _0201_ VDD VSS MUX2_X1
X_2409_ net30 mem\[12\]\[4\] _0718_ _0202_ VDD VSS MUX2_X1
X_2410_ net31 mem\[12\]\[5\] _0718_ _0203_ VDD VSS MUX2_X1
X_2411_ net32 mem\[12\]\[6\] _0718_ _0204_ VDD VSS MUX2_X1
X_2412_ net33 mem\[12\]\[7\] _0718_ _0205_ VDD VSS MUX2_X1
X_2413_ net34 mem\[12\]\[8\] _0718_ _0206_ VDD VSS MUX2_X1
X_2414_ net35 mem\[12\]\[9\] _0718_ _0207_ VDD VSS MUX2_X1
Xplace198 _0880_ net198 VDD VSS BUF_X2
X_2416_ _0022_ _0716_ _0723_ VDD VSS NAND2_X2
Xplace197 _0636_ net197 VDD VSS BUF_X1
X_2418_ net4 mem\[13\]\[0\] _0723_ _0208_ VDD VSS MUX2_X1
X_2419_ net5 mem\[13\]\[10\] net184 _0209_ VDD VSS MUX2_X1
X_2420_ net6 mem\[13\]\[11\] net184 _0210_ VDD VSS MUX2_X1
X_2421_ net7 mem\[13\]\[12\] net184 _0211_ VDD VSS MUX2_X1
X_2422_ net8 mem\[13\]\[13\] net184 _0212_ VDD VSS MUX2_X1
X_2423_ net9 mem\[13\]\[14\] net184 _0213_ VDD VSS MUX2_X1
X_2424_ net10 mem\[13\]\[15\] net184 _0214_ VDD VSS MUX2_X1
X_2425_ net11 mem\[13\]\[16\] net184 _0215_ VDD VSS MUX2_X1
X_2426_ net12 mem\[13\]\[17\] _0723_ _0216_ VDD VSS MUX2_X1
X_2427_ net13 mem\[13\]\[18\] _0723_ _0217_ VDD VSS MUX2_X1
Xplace173 net96 net173 VDD VSS BUF_X2
X_2429_ net14 mem\[13\]\[19\] _0723_ _0218_ VDD VSS MUX2_X1
X_2430_ net15 mem\[13\]\[1\] _0723_ _0219_ VDD VSS MUX2_X1
X_2431_ net16 mem\[13\]\[20\] _0723_ _0220_ VDD VSS MUX2_X1
X_2432_ net17 mem\[13\]\[21\] _0723_ _0221_ VDD VSS MUX2_X1
X_2433_ net18 mem\[13\]\[22\] _0723_ _0222_ VDD VSS MUX2_X1
X_2434_ net19 mem\[13\]\[23\] _0723_ _0223_ VDD VSS MUX2_X1
X_2435_ net20 mem\[13\]\[24\] _0723_ _0224_ VDD VSS MUX2_X1
X_2436_ net21 mem\[13\]\[25\] _0723_ _0225_ VDD VSS MUX2_X1
X_2437_ net22 mem\[13\]\[26\] _0723_ _0226_ VDD VSS MUX2_X1
X_2438_ net23 mem\[13\]\[27\] _0723_ _0227_ VDD VSS MUX2_X1
Xplace172 net44 net172 VDD VSS BUF_X8
X_2440_ net24 mem\[13\]\[28\] _0723_ _0228_ VDD VSS MUX2_X1
X_2441_ net25 mem\[13\]\[29\] _0723_ _0229_ VDD VSS MUX2_X1
X_2442_ net26 mem\[13\]\[2\] _0723_ _0230_ VDD VSS MUX2_X1
X_2443_ net27 mem\[13\]\[30\] _0723_ _0231_ VDD VSS MUX2_X1
X_2444_ net28 mem\[13\]\[31\] _0723_ _0232_ VDD VSS MUX2_X1
X_2445_ net29 mem\[13\]\[3\] _0723_ _0233_ VDD VSS MUX2_X1
X_2446_ net30 mem\[13\]\[4\] _0723_ _0234_ VDD VSS MUX2_X1
X_2447_ net31 mem\[13\]\[5\] _0723_ _0235_ VDD VSS MUX2_X1
X_2448_ net32 mem\[13\]\[6\] _0723_ _0236_ VDD VSS MUX2_X1
X_2449_ net33 mem\[13\]\[7\] net184 _0237_ VDD VSS MUX2_X1
X_2450_ net34 mem\[13\]\[8\] _0723_ _0238_ VDD VSS MUX2_X1
X_2451_ net35 mem\[13\]\[9\] net184 _0239_ VDD VSS MUX2_X1
X_2452_ _0021_ _0716_ _0727_ VDD VSS NAND2_X2
Xclkbuf_leaf_0_clk clknet_3_1__leaf_clk clknet_leaf_0_clk
+ VDD VSS CLKBUF_X3
X_2454_ net4 mem\[14\]\[0\] net183 _0240_ VDD VSS MUX2_X1
X_2455_ net5 mem\[14\]\[10\] net183 _0241_ VDD VSS MUX2_X1
X_2456_ net6 mem\[14\]\[11\] net183 _0242_ VDD VSS MUX2_X1
X_2457_ net7 mem\[14\]\[12\] net183 _0243_ VDD VSS MUX2_X1
X_2458_ net8 mem\[14\]\[13\] net183 _0244_ VDD VSS MUX2_X1
X_2459_ net9 mem\[14\]\[14\] net183 _0245_ VDD VSS MUX2_X1
X_2460_ net10 mem\[14\]\[15\] net183 _0246_ VDD VSS MUX2_X1
X_2461_ net11 mem\[14\]\[16\] net183 _0247_ VDD VSS MUX2_X1
X_2462_ net12 mem\[14\]\[17\] net183 _0248_ VDD VSS MUX2_X1
X_2463_ net13 mem\[14\]\[18\] net183 _0249_ VDD VSS MUX2_X1
Xplace210 net2 net210 VDD VSS BUF_X2
X_2465_ net14 mem\[14\]\[19\] _0727_ _0250_ VDD VSS MUX2_X1
X_2466_ net15 mem\[14\]\[1\] _0727_ _0251_ VDD VSS MUX2_X1
X_2467_ net16 mem\[14\]\[20\] _0727_ _0252_ VDD VSS MUX2_X1
X_2468_ net17 mem\[14\]\[21\] _0727_ _0253_ VDD VSS MUX2_X1
X_2469_ net18 mem\[14\]\[22\] _0727_ _0254_ VDD VSS MUX2_X1
X_2470_ net19 mem\[14\]\[23\] _0727_ _0255_ VDD VSS MUX2_X1
X_2471_ net20 mem\[14\]\[24\] _0727_ _0256_ VDD VSS MUX2_X1
X_2472_ net21 mem\[14\]\[25\] _0727_ _0257_ VDD VSS MUX2_X1
X_2473_ net22 mem\[14\]\[26\] _0727_ _0258_ VDD VSS MUX2_X1
X_2474_ net23 mem\[14\]\[27\] _0727_ _0259_ VDD VSS MUX2_X1
Xplace178 _0766_ net178 VDD VSS BUF_X1
X_2476_ net24 mem\[14\]\[28\] _0727_ _0260_ VDD VSS MUX2_X1
X_2477_ net25 mem\[14\]\[29\] _0727_ _0261_ VDD VSS MUX2_X1
X_2478_ net26 mem\[14\]\[2\] _0727_ _0262_ VDD VSS MUX2_X1
X_2479_ net27 mem\[14\]\[30\] _0727_ _0263_ VDD VSS MUX2_X1
X_2480_ net28 mem\[14\]\[31\] net183 _0264_ VDD VSS MUX2_X1
X_2481_ net29 mem\[14\]\[3\] _0727_ _0265_ VDD VSS MUX2_X1
X_2482_ net30 mem\[14\]\[4\] net183 _0266_ VDD VSS MUX2_X1
X_2483_ net31 mem\[14\]\[5\] net183 _0267_ VDD VSS MUX2_X1
X_2484_ net32 mem\[14\]\[6\] net183 _0268_ VDD VSS MUX2_X1
X_2485_ net33 mem\[14\]\[7\] net183 _0269_ VDD VSS MUX2_X1
X_2486_ net34 mem\[14\]\[8\] net183 _0270_ VDD VSS MUX2_X1
X_2487_ net35 mem\[14\]\[9\] net183 _0271_ VDD VSS MUX2_X1
X_2488_ _0023_ _0716_ _0731_ VDD VSS NAND2_X2
Xplace174 net96 net174 VDD VSS BUF_X2
X_2490_ net4 mem\[15\]\[0\] net182 _0272_ VDD VSS MUX2_X1
X_2491_ net5 mem\[15\]\[10\] net182 _0273_ VDD VSS MUX2_X1
X_2492_ net6 mem\[15\]\[11\] net182 _0274_ VDD VSS MUX2_X1
X_2493_ net7 mem\[15\]\[12\] net182 _0275_ VDD VSS MUX2_X1
X_2494_ net8 mem\[15\]\[13\] net182 _0276_ VDD VSS MUX2_X1
X_2495_ net9 mem\[15\]\[14\] net182 _0277_ VDD VSS MUX2_X1
X_2496_ net10 mem\[15\]\[15\] net182 _0278_ VDD VSS MUX2_X1
X_2497_ net11 mem\[15\]\[16\] net182 _0279_ VDD VSS MUX2_X1
X_2498_ net12 mem\[15\]\[17\] net182 _0280_ VDD VSS MUX2_X1
X_2499_ net13 mem\[15\]\[18\] net182 _0281_ VDD VSS MUX2_X1
Xplace209 _0629_ net209 VDD VSS BUF_X1
X_2501_ net14 mem\[15\]\[19\] _0731_ _0282_ VDD VSS MUX2_X1
X_2502_ net15 mem\[15\]\[1\] _0731_ _0283_ VDD VSS MUX2_X1
X_2503_ net16 mem\[15\]\[20\] _0731_ _0284_ VDD VSS MUX2_X1
X_2504_ net17 mem\[15\]\[21\] _0731_ _0285_ VDD VSS MUX2_X1
X_2505_ net18 mem\[15\]\[22\] _0731_ _0286_ VDD VSS MUX2_X1
X_2506_ net19 mem\[15\]\[23\] _0731_ _0287_ VDD VSS MUX2_X1
X_2507_ net20 mem\[15\]\[24\] _0731_ _0288_ VDD VSS MUX2_X1
X_2508_ net21 mem\[15\]\[25\] _0731_ _0289_ VDD VSS MUX2_X1
X_2509_ net22 mem\[15\]\[26\] _0731_ _0290_ VDD VSS MUX2_X1
X_2510_ net23 mem\[15\]\[27\] _0731_ _0291_ VDD VSS MUX2_X1
Xplace204 _0002_ net204 VDD VSS BUF_X8
X_2512_ net24 mem\[15\]\[28\] _0731_ _0292_ VDD VSS MUX2_X1
X_2513_ net25 mem\[15\]\[29\] _0731_ _0293_ VDD VSS MUX2_X1
X_2514_ net26 mem\[15\]\[2\] _0731_ _0294_ VDD VSS MUX2_X1
X_2515_ net27 mem\[15\]\[30\] _0731_ _0295_ VDD VSS MUX2_X1
X_2516_ net28 mem\[15\]\[31\] _0731_ _0296_ VDD VSS MUX2_X1
X_2517_ net29 mem\[15\]\[3\] _0731_ _0297_ VDD VSS MUX2_X1
X_2518_ net30 mem\[15\]\[4\] _0731_ _0298_ VDD VSS MUX2_X1
X_2519_ net31 mem\[15\]\[5\] _0731_ _0299_ VDD VSS MUX2_X1
X_2520_ net32 mem\[15\]\[6\] net182 _0300_ VDD VSS MUX2_X1
X_2521_ net33 mem\[15\]\[7\] net182 _0301_ VDD VSS MUX2_X1
X_2522_ net34 mem\[15\]\[8\] _0731_ _0302_ VDD VSS MUX2_X1
X_2523_ net35 mem\[15\]\[9\] net182 _0303_ VDD VSS MUX2_X1
X_2524_ _0022_ _0635_ _0735_ VDD VSS AND2_X1
Xplace203 _0002_ net203 VDD VSS BUF_X8
Xplace192 _0745_ net192 VDD VSS BUF_X1
X_2527_ mem\[1\]\[0\] net4 net194 _0304_ VDD VSS MUX2_X1
X_2528_ mem\[1\]\[10\] net5 net194 _0305_ VDD VSS MUX2_X1
X_2529_ mem\[1\]\[11\] net6 net194 _0306_ VDD VSS MUX2_X1
X_2530_ mem\[1\]\[12\] net7 net194 _0307_ VDD VSS MUX2_X1
X_2531_ mem\[1\]\[13\] net8 net194 _0308_ VDD VSS MUX2_X1
X_2532_ mem\[1\]\[14\] net9 net194 _0309_ VDD VSS MUX2_X1
X_2533_ mem\[1\]\[15\] net10 net194 _0310_ VDD VSS MUX2_X1
X_2534_ mem\[1\]\[16\] net11 net194 _0311_ VDD VSS MUX2_X1
X_2535_ mem\[1\]\[17\] net12 net194 _0312_ VDD VSS MUX2_X1
X_2536_ mem\[1\]\[18\] net13 net194 _0313_ VDD VSS MUX2_X1
Xclkbuf_leaf_2_clk clknet_3_1__leaf_clk clknet_leaf_2_clk
+ VDD VSS CLKBUF_X3
X_2538_ mem\[1\]\[19\] net14 net194 _0314_ VDD VSS MUX2_X1
X_2539_ mem\[1\]\[1\] net15 net194 _0315_ VDD VSS MUX2_X1
X_2540_ mem\[1\]\[20\] net16 net194 _0316_ VDD VSS MUX2_X1
X_2541_ mem\[1\]\[21\] net17 net194 _0317_ VDD VSS MUX2_X1
X_2542_ mem\[1\]\[22\] net18 net194 _0318_ VDD VSS MUX2_X1
X_2543_ mem\[1\]\[23\] net19 net194 _0319_ VDD VSS MUX2_X1
X_2544_ mem\[1\]\[24\] net20 net194 _0320_ VDD VSS MUX2_X1
X_2545_ mem\[1\]\[25\] net21 net194 _0321_ VDD VSS MUX2_X1
X_2546_ mem\[1\]\[26\] net22 net194 _0322_ VDD VSS MUX2_X1
X_2547_ mem\[1\]\[27\] net23 net194 _0323_ VDD VSS MUX2_X1
Xclkbuf_leaf_1_clk clknet_3_1__leaf_clk clknet_leaf_1_clk
+ VDD VSS CLKBUF_X3
X_2549_ mem\[1\]\[28\] net24 net194 _0324_ VDD VSS MUX2_X1
X_2550_ mem\[1\]\[29\] net25 net194 _0325_ VDD VSS MUX2_X1
X_2551_ mem\[1\]\[2\] net26 net194 _0326_ VDD VSS MUX2_X1
X_2552_ mem\[1\]\[30\] net27 net194 _0327_ VDD VSS MUX2_X1
X_2553_ mem\[1\]\[31\] net28 net194 _0328_ VDD VSS MUX2_X1
X_2554_ mem\[1\]\[3\] net29 net194 _0329_ VDD VSS MUX2_X1
X_2555_ mem\[1\]\[4\] net30 net194 _0330_ VDD VSS MUX2_X1
X_2556_ mem\[1\]\[5\] net31 net194 _0331_ VDD VSS MUX2_X1
X_2557_ mem\[1\]\[6\] net32 net194 _0332_ VDD VSS MUX2_X1
X_2558_ mem\[1\]\[7\] net33 net194 _0333_ VDD VSS MUX2_X1
X_2559_ mem\[1\]\[8\] net34 net194 _0334_ VDD VSS MUX2_X1
X_2560_ mem\[1\]\[9\] net35 net194 _0335_ VDD VSS MUX2_X1
X_2561_ _0021_ _0635_ _0740_ VDD VSS AND2_X1
Xplace208 _0783_ net208 VDD VSS BUF_X2
Xplace205 _0000_ net205 VDD VSS BUF_X2
X_2564_ mem\[2\]\[0\] net4 net193 _0336_ VDD VSS MUX2_X1
X_2565_ mem\[2\]\[10\] net5 _0740_ _0337_ VDD VSS MUX2_X1
X_2566_ mem\[2\]\[11\] net6 _0740_ _0338_ VDD VSS MUX2_X1
X_2567_ mem\[2\]\[12\] net7 _0740_ _0339_ VDD VSS MUX2_X1
X_2568_ mem\[2\]\[13\] net8 net193 _0340_ VDD VSS MUX2_X1
X_2569_ mem\[2\]\[14\] net9 _0740_ _0341_ VDD VSS MUX2_X1
X_2570_ mem\[2\]\[15\] net10 _0740_ _0342_ VDD VSS MUX2_X1
X_2571_ mem\[2\]\[16\] net11 _0740_ _0343_ VDD VSS MUX2_X1
X_2572_ mem\[2\]\[17\] net12 net193 _0344_ VDD VSS MUX2_X1
X_2573_ mem\[2\]\[18\] net13 net193 _0345_ VDD VSS MUX2_X1
Xplace200 _0002_ net200 VDD VSS BUF_X2
X_2575_ mem\[2\]\[19\] net14 net193 _0346_ VDD VSS MUX2_X1
X_2576_ mem\[2\]\[1\] net15 _0740_ _0347_ VDD VSS MUX2_X1
X_2577_ mem\[2\]\[20\] net16 _0740_ _0348_ VDD VSS MUX2_X1
X_2578_ mem\[2\]\[21\] net17 _0740_ _0349_ VDD VSS MUX2_X1
X_2579_ mem\[2\]\[22\] net18 _0740_ _0350_ VDD VSS MUX2_X1
X_2580_ mem\[2\]\[23\] net19 _0740_ _0351_ VDD VSS MUX2_X1
X_2581_ mem\[2\]\[24\] net20 _0740_ _0352_ VDD VSS MUX2_X1
X_2582_ mem\[2\]\[25\] net21 net193 _0353_ VDD VSS MUX2_X1
X_2583_ mem\[2\]\[26\] net22 _0740_ _0354_ VDD VSS MUX2_X1
X_2584_ mem\[2\]\[27\] net23 net193 _0355_ VDD VSS MUX2_X1
Xplace199 last_valid_data_available net199 VDD VSS BUF_X1
X_2586_ mem\[2\]\[28\] net24 _0740_ _0356_ VDD VSS MUX2_X1
X_2587_ mem\[2\]\[29\] net25 net193 _0357_ VDD VSS MUX2_X1
X_2588_ mem\[2\]\[2\] net26 net193 _0358_ VDD VSS MUX2_X1
X_2589_ mem\[2\]\[30\] net27 net193 _0359_ VDD VSS MUX2_X1
X_2590_ mem\[2\]\[31\] net28 net193 _0360_ VDD VSS MUX2_X1
X_2591_ mem\[2\]\[3\] net29 net193 _0361_ VDD VSS MUX2_X1
X_2592_ mem\[2\]\[4\] net30 net193 _0362_ VDD VSS MUX2_X1
X_2593_ mem\[2\]\[5\] net31 net193 _0363_ VDD VSS MUX2_X1
X_2594_ mem\[2\]\[6\] net32 net193 _0364_ VDD VSS MUX2_X1
X_2595_ mem\[2\]\[7\] net33 net193 _0365_ VDD VSS MUX2_X1
X_2596_ mem\[2\]\[8\] net34 net193 _0366_ VDD VSS MUX2_X1
X_2597_ mem\[2\]\[9\] net35 net193 _0367_ VDD VSS MUX2_X1
X_2598_ _0023_ _0635_ _0745_ VDD VSS AND2_X1
Xplace196 _0636_ net196 VDD VSS BUF_X1
Xplace195 _0705_ net195 VDD VSS BUF_X1
X_2601_ mem\[3\]\[0\] net4 net191 _0368_ VDD VSS MUX2_X1
X_2602_ mem\[3\]\[10\] net5 _0745_ _0369_ VDD VSS MUX2_X1
X_2603_ mem\[3\]\[11\] net6 net191 _0370_ VDD VSS MUX2_X1
X_2604_ mem\[3\]\[12\] net7 _0745_ _0371_ VDD VSS MUX2_X1
X_2605_ mem\[3\]\[13\] net8 net191 _0372_ VDD VSS MUX2_X1
X_2606_ mem\[3\]\[14\] net9 _0745_ _0373_ VDD VSS MUX2_X1
X_2607_ mem\[3\]\[15\] net10 _0745_ _0374_ VDD VSS MUX2_X1
X_2608_ mem\[3\]\[16\] net11 _0745_ _0375_ VDD VSS MUX2_X1
X_2609_ mem\[3\]\[17\] net12 net192 _0376_ VDD VSS MUX2_X1
X_2610_ mem\[3\]\[18\] net13 net191 _0377_ VDD VSS MUX2_X1
Xplace194 _0735_ net194 VDD VSS BUF_X4
X_2612_ mem\[3\]\[19\] net14 net192 _0378_ VDD VSS MUX2_X1
X_2613_ mem\[3\]\[1\] net15 _0745_ _0379_ VDD VSS MUX2_X1
X_2614_ mem\[3\]\[20\] net16 _0745_ _0380_ VDD VSS MUX2_X1
X_2615_ mem\[3\]\[21\] net17 _0745_ _0381_ VDD VSS MUX2_X1
X_2616_ mem\[3\]\[22\] net18 _0745_ _0382_ VDD VSS MUX2_X1
X_2617_ mem\[3\]\[23\] net19 _0745_ _0383_ VDD VSS MUX2_X1
X_2618_ mem\[3\]\[24\] net20 _0745_ _0384_ VDD VSS MUX2_X1
X_2619_ mem\[3\]\[25\] net21 net192 _0385_ VDD VSS MUX2_X1
X_2620_ mem\[3\]\[26\] net22 _0745_ _0386_ VDD VSS MUX2_X1
X_2621_ mem\[3\]\[27\] net23 net192 _0387_ VDD VSS MUX2_X1
Xplace202 _0002_ net202 VDD VSS BUF_X1
X_2623_ mem\[3\]\[28\] net24 _0745_ _0388_ VDD VSS MUX2_X1
X_2624_ mem\[3\]\[29\] net25 net192 _0389_ VDD VSS MUX2_X1
X_2625_ mem\[3\]\[2\] net26 net192 _0390_ VDD VSS MUX2_X1
X_2626_ mem\[3\]\[30\] net27 net192 _0391_ VDD VSS MUX2_X1
X_2627_ mem\[3\]\[31\] net28 net192 _0392_ VDD VSS MUX2_X1
X_2628_ mem\[3\]\[3\] net29 net192 _0393_ VDD VSS MUX2_X1
X_2629_ mem\[3\]\[4\] net30 net192 _0394_ VDD VSS MUX2_X1