* CDL Netlist generated by OpenROAD

*.BUSDELIMITER [

.SUBCKT smart_fifo almost_empty almost_full clear_errors clk
+ data_count[0] data_count[1] data_count[2] data_count[3] data_count[4]
+ empty error_count[0] error_count[10] error_count[11] error_count[12]
+ error_count[13] error_count[14] error_count[15] error_count[1]
+ error_count[2] error_count[3] error_count[4] error_count[5]
+ error_count[6] error_count[7] error_count[8] error_count[9]
+ error_detected full overflow_detected rd_data[0] rd_data[10]
+ rd_data[11] rd_data[12] rd_data[13] rd_data[14] rd_data[15]
+ rd_data[16] rd_data[17] rd_data[18] rd_data[19] rd_data[1]
+ rd_data[20] rd_data[21] rd_data[22] rd_data[23] rd_data[24]
+ rd_data[25] rd_data[26] rd_data[27] rd_data[28] rd_data[29]
+ rd_data[2] rd_data[30] rd_data[31] rd_data[3] rd_data[4] rd_data[5]
+ rd_data[6] rd_data[7] rd_data[8] rd_data[9] rd_en rd_valid
+ rst_n underflow_detected wr_data[0] wr_data[10] wr_data[11]
+ wr_data[12] wr_data[13] wr_data[14] wr_data[15] wr_data[16]
+ wr_data[17] wr_data[18] wr_data[19] wr_data[1] wr_data[20]
+ wr_data[21] wr_data[22] wr_data[23] wr_data[24] wr_data[25]
+ wr_data[26] wr_data[27] wr_data[28] wr_data[29] wr_data[2]
+ wr_data[30] wr_data[31] wr_data[3] wr_data[4] wr_data[5] wr_data[6]
+ wr_data[7] wr_data[8] wr_data[9] wr_en wr_ready
X_2322_ _2321_ net4 VDD VSS INV_X1
X_2323_ _2309_ _0583_ VDD VSS BUF_X4
X_2324_ _0583_ _2301_ net6 VDD VSS XOR2_X2
X_2325_ _2308_ _2305_ _0583_ _0584_ VDD VSS AOI21_X1
X_2326_ _0583_ _2306_ _0585_ VDD VSS NAND2_X1
X_2327_ _0584_ _0585_ net64 _0586_ VDD VSS OAI21_X2
X_2328_ _2304_ _0586_ _0587_ VDD VSS XNOR2_X1
X_2329_ _0587_ net7 VDD VSS INV_X1
X_2330_ _2303_ _0588_ VDD VSS INV_X1
X_2331_ _2308_ _2301_ _0583_ _0589_ VDD VSS AOI21_X1
X_2332_ _2304_ _0590_ VDD VSS INV_X1
X_2333_ _0588_ _0589_ _0590_ _0591_ VDD VSS OAI21_X1
X_2334_ wr_ptr\[4\] rd_ptr\[4\] _0592_ VDD VSS XOR2_X2
X_2335_ _0591_ _0592_ _0593_ VDD VSS XOR2_X2
X_2336_ _0593_ _0594_ VDD VSS INV_X1
X_2337_ _0594_ _0595_ VDD VSS BUF_X4
X_2338_ _0595_ _0596_ VDD VSS BUF_X4
X_2339_ _0596_ net8 VDD VSS CLKBUF_X3
X_2340_ _0595_ _0597_ VDD VSS BUF_X4
X_2341_ net5 _0598_ VDD VSS BUF_X1
X_2342_ _2304_ net4 _0598_ net6 _0599_ VDD VSS NOR4_X1
X_2343_ _0590_ net4 _0598_ net6 _0600_ VDD VSS NOR4_X1
X_2344_ _0599_ _0600_ _0586_ _0601_ VDD VSS MUX2_X2
X_2345_ _0601_ _0602_ VDD VSS CLKBUF_X3
X_2346_ _0597_ _0602_ net63 VDD VSS NAND2_X1
X_2347_ net63 net27 VDD VSS INV_X1
X_2348_ _2304_ net6 _0598_ net4 _0603_ VDD VSS OR4_X2
X_2349_ net6 net4 _0598_ _0590_ _0604_ VDD VSS OR4_X2
X_2350_ _0603_ _0604_ _0586_ _0605_ VDD VSS MUX2_X2
X_2351_ _0594_ _0605_ net9 VDD VSS NOR2_X4
X_2352_ net9 _0606_ VDD VSS INV_X8
X_2353_ _0606_ _0607_ VDD VSS BUF_X32
X_2354_ _0607_ net61 VDD VSS BUF_X4
X_2355_ rd_en _0608_ VDD VSS CLKBUF_X3
X_2356_ _0608_ _0593_ _0601_ _0609_ VDD VSS NAND3_X2
X_2357_ _0609_ net62 VDD VSS INV_X1
X_2358_ _2320_ _2300_ VDD VSS INV_X1
X_2359_ wr_data[0] _0610_ VDD VSS CLKBUF_X2
X_2360_ _0610_ _0611_ VDD VSS BUF_X2
X_2361_ _2313_ _0612_ VDD VSS BUF_X2
X_2362_ wr_en _0613_ VDD VSS BUF_X1
X_2363_ _0613_ _0614_ VDD VSS INV_X2
X_2364_ wr_ptr\[3\] _0615_ VDD VSS BUF_X2
X_2365_ wr_ptr\[2\] _0616_ VDD VSS CLKBUF_X2
X_2366_ _0614_ _0615_ _0616_ _0617_ VDD VSS NOR3_X2
X_2367_ _0612_ _0617_ _0618_ VDD VSS AND2_X1
X_2368_ _0618_ _0619_ VDD VSS CLKBUF_X3
X_2369_ _0619_ _0620_ VDD VSS BUF_X4
X_2370_ mem\[0\]\[0\] _0611_ _0620_ _0064_ VDD VSS MUX2_X1
X_2371_ wr_data[10] _0621_ VDD VSS BUF_X1
X_2372_ _0621_ _0622_ VDD VSS CLKBUF_X2
X_2373_ mem\[0\]\[10\] _0622_ _0620_ _0065_ VDD VSS MUX2_X1
X_2374_ wr_data[11] _0623_ VDD VSS CLKBUF_X2
X_2375_ _0623_ _0624_ VDD VSS BUF_X2
X_2376_ mem\[0\]\[11\] _0624_ _0620_ _0066_ VDD VSS MUX2_X1
X_2377_ wr_data[12] _0625_ VDD VSS CLKBUF_X2
X_2378_ _0625_ _0626_ VDD VSS BUF_X2
X_2379_ mem\[0\]\[12\] _0626_ _0620_ _0067_ VDD VSS MUX2_X1
X_2380_ wr_data[13] _0627_ VDD VSS BUF_X1
X_2381_ _0627_ _0628_ VDD VSS BUF_X2
X_2382_ mem\[0\]\[13\] _0628_ _0620_ _0068_ VDD VSS MUX2_X1
X_2383_ wr_data[14] _0629_ VDD VSS CLKBUF_X2
X_2384_ _0629_ _0630_ VDD VSS BUF_X2
X_2385_ mem\[0\]\[14\] _0630_ _0620_ _0069_ VDD VSS MUX2_X1
X_2386_ wr_data[15] _0631_ VDD VSS CLKBUF_X2
X_2387_ _0631_ _0632_ VDD VSS BUF_X2
X_2388_ mem\[0\]\[15\] _0632_ _0620_ _0070_ VDD VSS MUX2_X1
X_2389_ wr_data[16] _0633_ VDD VSS CLKBUF_X2
X_2390_ _0633_ _0634_ VDD VSS CLKBUF_X2
X_2391_ mem\[0\]\[16\] _0634_ _0620_ _0071_ VDD VSS MUX2_X1
X_2392_ wr_data[17] _0635_ VDD VSS BUF_X2
X_2393_ _0635_ _0636_ VDD VSS BUF_X2
X_2394_ mem\[0\]\[17\] _0636_ _0620_ _0072_ VDD VSS MUX2_X1
X_2395_ wr_data[18] _0637_ VDD VSS BUF_X2
X_2396_ _0637_ _0638_ VDD VSS CLKBUF_X2
X_2397_ mem\[0\]\[18\] _0638_ _0620_ _0073_ VDD VSS MUX2_X1
X_2398_ wr_data[19] _0639_ VDD VSS BUF_X2
X_2399_ _0639_ _0640_ VDD VSS CLKBUF_X2
X_2400_ _0619_ _0641_ VDD VSS BUF_X4
X_2401_ mem\[0\]\[19\] _0640_ _0641_ _0074_ VDD VSS MUX2_X1
X_2402_ wr_data[1] _0642_ VDD VSS BUF_X1
X_2403_ _0642_ _0643_ VDD VSS BUF_X2
X_2404_ mem\[0\]\[1\] _0643_ _0641_ _0075_ VDD VSS MUX2_X1
X_2405_ wr_data[20] _0644_ VDD VSS BUF_X1
X_2406_ _0644_ _0645_ VDD VSS BUF_X2
X_2407_ mem\[0\]\[20\] _0645_ _0641_ _0076_ VDD VSS MUX2_X1
X_2408_ wr_data[21] _0646_ VDD VSS BUF_X1
X_2409_ _0646_ _0647_ VDD VSS BUF_X2
X_2410_ mem\[0\]\[21\] _0647_ _0641_ _0077_ VDD VSS MUX2_X1
X_2411_ wr_data[22] _0648_ VDD VSS BUF_X1
X_2412_ _0648_ _0649_ VDD VSS BUF_X2
X_2413_ mem\[0\]\[22\] _0649_ _0641_ _0078_ VDD VSS MUX2_X1
X_2414_ wr_data[23] _0650_ VDD VSS BUF_X1
X_2415_ _0650_ _0651_ VDD VSS CLKBUF_X2
X_2416_ mem\[0\]\[23\] _0651_ _0641_ _0079_ VDD VSS MUX2_X1
X_2417_ wr_data[24] _0652_ VDD VSS BUF_X1
X_2418_ _0652_ _0653_ VDD VSS BUF_X2
X_2419_ mem\[0\]\[24\] _0653_ _0641_ _0080_ VDD VSS MUX2_X1
X_2420_ wr_data[25] _0654_ VDD VSS BUF_X1
X_2421_ _0654_ _0655_ VDD VSS BUF_X2
X_2422_ mem\[0\]\[25\] _0655_ _0641_ _0081_ VDD VSS MUX2_X1
X_2423_ wr_data[26] _0656_ VDD VSS BUF_X1
X_2424_ _0656_ _0657_ VDD VSS BUF_X2
X_2425_ mem\[0\]\[26\] _0657_ _0641_ _0082_ VDD VSS MUX2_X1
X_2426_ wr_data[27] _0658_ VDD VSS CLKBUF_X2
X_2427_ _0658_ _0659_ VDD VSS BUF_X2
X_2428_ mem\[0\]\[27\] _0659_ _0641_ _0083_ VDD VSS MUX2_X1
X_2429_ wr_data[28] _0660_ VDD VSS CLKBUF_X2
X_2430_ _0660_ _0661_ VDD VSS BUF_X2
X_2431_ _0619_ _0662_ VDD VSS BUF_X4
X_2432_ mem\[0\]\[28\] _0661_ _0662_ _0084_ VDD VSS MUX2_X1
X_2433_ wr_data[29] _0663_ VDD VSS BUF_X2
X_2434_ _0663_ _0664_ VDD VSS BUF_X2
X_2435_ mem\[0\]\[29\] _0664_ _0662_ _0085_ VDD VSS MUX2_X1
X_2436_ wr_data[2] _0665_ VDD VSS CLKBUF_X2
X_2437_ _0665_ _0666_ VDD VSS BUF_X2
X_2438_ mem\[0\]\[2\] _0666_ _0662_ _0086_ VDD VSS MUX2_X1
X_2439_ wr_data[30] _0667_ VDD VSS CLKBUF_X2
X_2440_ _0667_ _0668_ VDD VSS BUF_X2
X_2441_ mem\[0\]\[30\] _0668_ _0662_ _0087_ VDD VSS MUX2_X1
X_2442_ wr_data[31] _0669_ VDD VSS CLKBUF_X2
X_2443_ _0669_ _0670_ VDD VSS BUF_X2
X_2444_ mem\[0\]\[31\] _0670_ _0662_ _0088_ VDD VSS MUX2_X1
X_2445_ wr_data[3] _0671_ VDD VSS BUF_X1
X_2446_ _0671_ _0672_ VDD VSS BUF_X2
X_2447_ mem\[0\]\[3\] _0672_ _0662_ _0089_ VDD VSS MUX2_X1
X_2448_ wr_data[4] _0673_ VDD VSS CLKBUF_X2
X_2449_ _0673_ _0674_ VDD VSS BUF_X2
X_2450_ mem\[0\]\[4\] _0674_ _0662_ _0090_ VDD VSS MUX2_X1
X_2451_ wr_data[5] _0675_ VDD VSS CLKBUF_X2
X_2452_ _0675_ _0676_ VDD VSS BUF_X2
X_2453_ mem\[0\]\[5\] _0676_ _0662_ _0091_ VDD VSS MUX2_X1
X_2454_ wr_data[6] _0677_ VDD VSS CLKBUF_X2
X_2455_ _0677_ _0678_ VDD VSS BUF_X2
X_2456_ mem\[0\]\[6\] _0678_ _0662_ _0092_ VDD VSS MUX2_X1
X_2457_ wr_data[7] _0679_ VDD VSS CLKBUF_X2
X_2458_ _0679_ _0680_ VDD VSS BUF_X2
X_2459_ mem\[0\]\[7\] _0680_ _0662_ _0093_ VDD VSS MUX2_X1
X_2460_ wr_data[8] _0681_ VDD VSS CLKBUF_X2
X_2461_ _0681_ _0682_ VDD VSS BUF_X2
X_2462_ mem\[0\]\[8\] _0682_ _0619_ _0094_ VDD VSS MUX2_X1
X_2463_ wr_data[9] _0683_ VDD VSS CLKBUF_X2
X_2464_ _0683_ _0684_ VDD VSS BUF_X2
X_2465_ mem\[0\]\[9\] _0684_ _0619_ _0095_ VDD VSS MUX2_X1
X_2466_ _2314_ _0685_ VDD VSS BUF_X1
X_2467_ _0616_ _0686_ VDD VSS INV_X1
X_2468_ _0613_ _0615_ _0686_ _0687_ VDD VSS AND3_X1
X_2469_ _0687_ _0688_ VDD VSS CLKBUF_X3
X_2470_ _0685_ _0688_ _0689_ VDD VSS NAND2_X2
X_2471_ _0689_ _0690_ VDD VSS BUF_X4
X_2472_ _0611_ mem\[10\]\[0\] _0690_ _0096_ VDD VSS MUX2_X1
X_2473_ _0622_ mem\[10\]\[10\] _0690_ _0097_ VDD VSS MUX2_X1
X_2474_ _0624_ mem\[10\]\[11\] _0690_ _0098_ VDD VSS MUX2_X1
X_2475_ _0626_ mem\[10\]\[12\] _0690_ _0099_ VDD VSS MUX2_X1
X_2476_ _0628_ mem\[10\]\[13\] _0690_ _0100_ VDD VSS MUX2_X1
X_2477_ _0630_ mem\[10\]\[14\] _0690_ _0101_ VDD VSS MUX2_X1
X_2478_ _0632_ mem\[10\]\[15\] _0690_ _0102_ VDD VSS MUX2_X1
X_2479_ _0634_ mem\[10\]\[16\] _0690_ _0103_ VDD VSS MUX2_X1
X_2480_ _0636_ mem\[10\]\[17\] _0690_ _0104_ VDD VSS MUX2_X1
X_2481_ _0638_ mem\[10\]\[18\] _0690_ _0105_ VDD VSS MUX2_X1
X_2482_ _0689_ _0691_ VDD VSS BUF_X4
X_2483_ _0640_ mem\[10\]\[19\] _0691_ _0106_ VDD VSS MUX2_X1
X_2484_ _0643_ mem\[10\]\[1\] _0691_ _0107_ VDD VSS MUX2_X1
X_2485_ _0645_ mem\[10\]\[20\] _0691_ _0108_ VDD VSS MUX2_X1
X_2486_ _0647_ mem\[10\]\[21\] _0691_ _0109_ VDD VSS MUX2_X1
X_2487_ _0649_ mem\[10\]\[22\] _0691_ _0110_ VDD VSS MUX2_X1
X_2488_ _0651_ mem\[10\]\[23\] _0691_ _0111_ VDD VSS MUX2_X1
X_2489_ _0653_ mem\[10\]\[24\] _0691_ _0112_ VDD VSS MUX2_X1
X_2490_ _0655_ mem\[10\]\[25\] _0691_ _0113_ VDD VSS MUX2_X1
X_2491_ _0657_ mem\[10\]\[26\] _0691_ _0114_ VDD VSS MUX2_X1
X_2492_ _0659_ mem\[10\]\[27\] _0691_ _0115_ VDD VSS MUX2_X1
X_2493_ _0689_ _0692_ VDD VSS CLKBUF_X3
X_2494_ _0661_ mem\[10\]\[28\] _0692_ _0116_ VDD VSS MUX2_X1
X_2495_ _0664_ mem\[10\]\[29\] _0692_ _0117_ VDD VSS MUX2_X1
X_2496_ _0666_ mem\[10\]\[2\] _0692_ _0118_ VDD VSS MUX2_X1
X_2497_ _0668_ mem\[10\]\[30\] _0692_ _0119_ VDD VSS MUX2_X1
X_2498_ _0670_ mem\[10\]\[31\] _0692_ _0120_ VDD VSS MUX2_X1
X_2499_ _0672_ mem\[10\]\[3\] _0692_ _0121_ VDD VSS MUX2_X1
X_2500_ _0674_ mem\[10\]\[4\] _0692_ _0122_ VDD VSS MUX2_X1
X_2501_ _0676_ mem\[10\]\[5\] _0692_ _0123_ VDD VSS MUX2_X1
X_2502_ _0678_ mem\[10\]\[6\] _0692_ _0124_ VDD VSS MUX2_X1
X_2503_ _0680_ mem\[10\]\[7\] _0692_ _0125_ VDD VSS MUX2_X1
X_2504_ _0682_ mem\[10\]\[8\] _0689_ _0126_ VDD VSS MUX2_X1
X_2505_ _0684_ mem\[10\]\[9\] _0689_ _0127_ VDD VSS MUX2_X1
X_2506_ _2318_ _0693_ VDD VSS BUF_X2
X_2507_ _0693_ _0688_ _0694_ VDD VSS NAND2_X2
X_2508_ _0694_ _0695_ VDD VSS BUF_X4
X_2509_ _0611_ mem\[11\]\[0\] _0695_ _0128_ VDD VSS MUX2_X1
X_2510_ _0622_ mem\[11\]\[10\] _0695_ _0129_ VDD VSS MUX2_X1
X_2511_ _0624_ mem\[11\]\[11\] _0695_ _0130_ VDD VSS MUX2_X1
X_2512_ _0626_ mem\[11\]\[12\] _0695_ _0131_ VDD VSS MUX2_X1
X_2513_ _0628_ mem\[11\]\[13\] _0695_ _0132_ VDD VSS MUX2_X1
X_2514_ _0630_ mem\[11\]\[14\] _0695_ _0133_ VDD VSS MUX2_X1
X_2515_ _0632_ mem\[11\]\[15\] _0695_ _0134_ VDD VSS MUX2_X1
X_2516_ _0634_ mem\[11\]\[16\] _0695_ _0135_ VDD VSS MUX2_X1
X_2517_ _0636_ mem\[11\]\[17\] _0695_ _0136_ VDD VSS MUX2_X1
X_2518_ _0638_ mem\[11\]\[18\] _0695_ _0137_ VDD VSS MUX2_X1
X_2519_ _0694_ _0696_ VDD VSS BUF_X4
X_2520_ _0640_ mem\[11\]\[19\] _0696_ _0138_ VDD VSS MUX2_X1
X_2521_ _0643_ mem\[11\]\[1\] _0696_ _0139_ VDD VSS MUX2_X1
X_2522_ _0645_ mem\[11\]\[20\] _0696_ _0140_ VDD VSS MUX2_X1
X_2523_ _0647_ mem\[11\]\[21\] _0696_ _0141_ VDD VSS MUX2_X1
X_2524_ _0649_ mem\[11\]\[22\] _0696_ _0142_ VDD VSS MUX2_X1
X_2525_ _0651_ mem\[11\]\[23\] _0696_ _0143_ VDD VSS MUX2_X1
X_2526_ _0653_ mem\[11\]\[24\] _0696_ _0144_ VDD VSS MUX2_X1
X_2527_ _0655_ mem\[11\]\[25\] _0696_ _0145_ VDD VSS MUX2_X1
X_2528_ _0657_ mem\[11\]\[26\] _0696_ _0146_ VDD VSS MUX2_X1
X_2529_ _0659_ mem\[11\]\[27\] _0696_ _0147_ VDD VSS MUX2_X1
X_2530_ _0694_ _0697_ VDD VSS CLKBUF_X3
X_2531_ _0661_ mem\[11\]\[28\] _0697_ _0148_ VDD VSS MUX2_X1
X_2532_ _0664_ mem\[11\]\[29\] _0697_ _0149_ VDD VSS MUX2_X1
X_2533_ _0666_ mem\[11\]\[2\] _0697_ _0150_ VDD VSS MUX2_X1
X_2534_ _0668_ mem\[11\]\[30\] _0697_ _0151_ VDD VSS MUX2_X1
X_2535_ _0670_ mem\[11\]\[31\] _0697_ _0152_ VDD VSS MUX2_X1
X_2536_ _0672_ mem\[11\]\[3\] _0697_ _0153_ VDD VSS MUX2_X1
X_2537_ _0674_ mem\[11\]\[4\] _0697_ _0154_ VDD VSS MUX2_X1
X_2538_ _0676_ mem\[11\]\[5\] _0697_ _0155_ VDD VSS MUX2_X1
X_2539_ _0678_ mem\[11\]\[6\] _0697_ _0156_ VDD VSS MUX2_X1
X_2540_ _0680_ mem\[11\]\[7\] _0697_ _0157_ VDD VSS MUX2_X1
X_2541_ _0682_ mem\[11\]\[8\] _0694_ _0158_ VDD VSS MUX2_X1
X_2542_ _0684_ mem\[11\]\[9\] _0694_ _0159_ VDD VSS MUX2_X1
X_2543_ _0613_ _0615_ _0616_ _0698_ VDD VSS AND3_X1
X_2544_ _0698_ _0699_ VDD VSS CLKBUF_X3
X_2545_ _0612_ _0699_ _0700_ VDD VSS NAND2_X4
X_2546_ _0700_ _0701_ VDD VSS BUF_X4
X_2547_ _0610_ mem\[12\]\[0\] _0701_ _0160_ VDD VSS MUX2_X1
X_2548_ _0621_ mem\[12\]\[10\] _0701_ _0161_ VDD VSS MUX2_X1
X_2549_ _0623_ mem\[12\]\[11\] _0701_ _0162_ VDD VSS MUX2_X1
X_2550_ _0625_ mem\[12\]\[12\] _0701_ _0163_ VDD VSS MUX2_X1
X_2551_ _0627_ mem\[12\]\[13\] _0701_ _0164_ VDD VSS MUX2_X1
X_2552_ _0629_ mem\[12\]\[14\] _0701_ _0165_ VDD VSS MUX2_X1
X_2553_ _0631_ mem\[12\]\[15\] _0701_ _0166_ VDD VSS MUX2_X1
X_2554_ _0633_ mem\[12\]\[16\] _0701_ _0167_ VDD VSS MUX2_X1
X_2555_ _0635_ mem\[12\]\[17\] _0701_ _0168_ VDD VSS MUX2_X1
X_2556_ _0637_ mem\[12\]\[18\] _0701_ _0169_ VDD VSS MUX2_X1
X_2557_ _0700_ _0702_ VDD VSS BUF_X4
X_2558_ _0639_ mem\[12\]\[19\] _0702_ _0170_ VDD VSS MUX2_X1
X_2559_ _0642_ mem\[12\]\[1\] _0702_ _0171_ VDD VSS MUX2_X1
X_2560_ _0644_ mem\[12\]\[20\] _0702_ _0172_ VDD VSS MUX2_X1
X_2561_ _0646_ mem\[12\]\[21\] _0702_ _0173_ VDD VSS MUX2_X1
X_2562_ _0648_ mem\[12\]\[22\] _0702_ _0174_ VDD VSS MUX2_X1
X_2563_ _0650_ mem\[12\]\[23\] _0702_ _0175_ VDD VSS MUX2_X1
X_2564_ _0652_ mem\[12\]\[24\] _0702_ _0176_ VDD VSS MUX2_X1
X_2565_ _0654_ mem\[12\]\[25\] _0702_ _0177_ VDD VSS MUX2_X1
X_2566_ _0656_ mem\[12\]\[26\] _0702_ _0178_ VDD VSS MUX2_X1
X_2567_ _0658_ mem\[12\]\[27\] _0702_ _0179_ VDD VSS MUX2_X1
X_2568_ _0700_ _0703_ VDD VSS CLKBUF_X3
X_2569_ _0660_ mem\[12\]\[28\] _0703_ _0180_ VDD VSS MUX2_X1
X_2570_ _0663_ mem\[12\]\[29\] _0703_ _0181_ VDD VSS MUX2_X1
X_2571_ _0665_ mem\[12\]\[2\] _0703_ _0182_ VDD VSS MUX2_X1
X_2572_ _0667_ mem\[12\]\[30\] _0703_ _0183_ VDD VSS MUX2_X1
X_2573_ _0669_ mem\[12\]\[31\] _0703_ _0184_ VDD VSS MUX2_X1
X_2574_ _0671_ mem\[12\]\[3\] _0703_ _0185_ VDD VSS MUX2_X1
X_2575_ _0673_ mem\[12\]\[4\] _0703_ _0186_ VDD VSS MUX2_X1
X_2576_ _0675_ mem\[12\]\[5\] _0703_ _0187_ VDD VSS MUX2_X1
X_2577_ _0677_ mem\[12\]\[6\] _0703_ _0188_ VDD VSS MUX2_X1
X_2578_ _0679_ mem\[12\]\[7\] _0703_ _0189_ VDD VSS MUX2_X1
X_2579_ _0681_ mem\[12\]\[8\] _0700_ _0190_ VDD VSS MUX2_X1
X_2580_ _0683_ mem\[12\]\[9\] _0700_ _0191_ VDD VSS MUX2_X1
X_2581_ _2316_ _0704_ VDD VSS BUF_X2
X_2582_ _0704_ _0699_ _0705_ VDD VSS NAND2_X4
X_2583_ _0705_ _0706_ VDD VSS BUF_X4
X_2584_ _0610_ mem\[13\]\[0\] _0706_ _0192_ VDD VSS MUX2_X1
X_2585_ _0621_ mem\[13\]\[10\] _0706_ _0193_ VDD VSS MUX2_X1
X_2586_ _0623_ mem\[13\]\[11\] _0706_ _0194_ VDD VSS MUX2_X1
X_2587_ _0625_ mem\[13\]\[12\] _0706_ _0195_ VDD VSS MUX2_X1
X_2588_ _0627_ mem\[13\]\[13\] _0706_ _0196_ VDD VSS MUX2_X1
X_2589_ _0629_ mem\[13\]\[14\] _0706_ _0197_ VDD VSS MUX2_X1
X_2590_ _0631_ mem\[13\]\[15\] _0706_ _0198_ VDD VSS MUX2_X1
X_2591_ _0633_ mem\[13\]\[16\] _0706_ _0199_ VDD VSS MUX2_X1
X_2592_ _0635_ mem\[13\]\[17\] _0706_ _0200_ VDD VSS MUX2_X1
X_2593_ _0637_ mem\[13\]\[18\] _0706_ _0201_ VDD VSS MUX2_X1
X_2594_ _0705_ _0707_ VDD VSS BUF_X4
X_2595_ _0639_ mem\[13\]\[19\] _0707_ _0202_ VDD VSS MUX2_X1
X_2596_ _0642_ mem\[13\]\[1\] _0707_ _0203_ VDD VSS MUX2_X1
X_2597_ _0644_ mem\[13\]\[20\] _0707_ _0204_ VDD VSS MUX2_X1
X_2598_ _0646_ mem\[13\]\[21\] _0707_ _0205_ VDD VSS MUX2_X1
X_2599_ _0648_ mem\[13\]\[22\] _0707_ _0206_ VDD VSS MUX2_X1
X_2600_ _0650_ mem\[13\]\[23\] _0707_ _0207_ VDD VSS MUX2_X1
X_2601_ _0652_ mem\[13\]\[24\] _0707_ _0208_ VDD VSS MUX2_X1
X_2602_ _0654_ mem\[13\]\[25\] _0707_ _0209_ VDD VSS MUX2_X1
X_2603_ _0656_ mem\[13\]\[26\] _0707_ _0210_ VDD VSS MUX2_X1
X_2604_ _0658_ mem\[13\]\[27\] _0707_ _0211_ VDD VSS MUX2_X1
X_2605_ _0705_ _0708_ VDD VSS CLKBUF_X3
X_2606_ _0660_ mem\[13\]\[28\] _0708_ _0212_ VDD VSS MUX2_X1
X_2607_ _0663_ mem\[13\]\[29\] _0708_ _0213_ VDD VSS MUX2_X1
X_2608_ _0665_ mem\[13\]\[2\] _0708_ _0214_ VDD VSS MUX2_X1
X_2609_ _0667_ mem\[13\]\[30\] _0708_ _0215_ VDD VSS MUX2_X1
X_2610_ _0669_ mem\[13\]\[31\] _0708_ _0216_ VDD VSS MUX2_X1
X_2611_ _0671_ mem\[13\]\[3\] _0708_ _0217_ VDD VSS MUX2_X1
X_2612_ _0673_ mem\[13\]\[4\] _0708_ _0218_ VDD VSS MUX2_X1
X_2613_ _0675_ mem\[13\]\[5\] _0708_ _0219_ VDD VSS MUX2_X1
X_2614_ _0677_ mem\[13\]\[6\] _0708_ _0220_ VDD VSS MUX2_X1
X_2615_ _0679_ mem\[13\]\[7\] _0708_ _0221_ VDD VSS MUX2_X1
X_2616_ _0681_ mem\[13\]\[8\] _0705_ _0222_ VDD VSS MUX2_X1
X_2617_ _0683_ mem\[13\]\[9\] _0705_ _0223_ VDD VSS MUX2_X1
X_2618_ _0685_ _0699_ _0709_ VDD VSS NAND2_X2
X_2619_ _0709_ _0710_ VDD VSS BUF_X4
X_2620_ _0610_ mem\[14\]\[0\] _0710_ _0224_ VDD VSS MUX2_X1
X_2621_ _0621_ mem\[14\]\[10\] _0710_ _0225_ VDD VSS MUX2_X1
X_2622_ _0623_ mem\[14\]\[11\] _0710_ _0226_ VDD VSS MUX2_X1
X_2623_ _0625_ mem\[14\]\[12\] _0710_ _0227_ VDD VSS MUX2_X1
X_2624_ _0627_ mem\[14\]\[13\] _0710_ _0228_ VDD VSS MUX2_X1
X_2625_ _0629_ mem\[14\]\[14\] _0710_ _0229_ VDD VSS MUX2_X1
X_2626_ _0631_ mem\[14\]\[15\] _0710_ _0230_ VDD VSS MUX2_X1
X_2627_ _0633_ mem\[14\]\[16\] _0710_ _0231_ VDD VSS MUX2_X1
X_2628_ _0635_ mem\[14\]\[17\] _0710_ _0232_ VDD VSS MUX2_X1
X_2629_ _0637_ mem\[14\]\[18\] _0710_ _0233_ VDD VSS MUX2_X1
X_2630_ _0709_ _0711_ VDD VSS BUF_X4
X_2631_ _0639_ mem\[14\]\[19\] _0711_ _0234_ VDD VSS MUX2_X1
X_2632_ _0642_ mem\[14\]\[1\] _0711_ _0235_ VDD VSS MUX2_X1
X_2633_ _0644_ mem\[14\]\[20\] _0711_ _0236_ VDD VSS MUX2_X1
X_2634_ _0646_ mem\[14\]\[21\] _0711_ _0237_ VDD VSS MUX2_X1
X_2635_ _0648_ mem\[14\]\[22\] _0711_ _0238_ VDD VSS MUX2_X1
X_2636_ _0650_ mem\[14\]\[23\] _0711_ _0239_ VDD VSS MUX2_X1
X_2637_ _0652_ mem\[14\]\[24\] _0711_ _0240_ VDD VSS MUX2_X1
X_2638_ _0654_ mem\[14\]\[25\] _0711_ _0241_ VDD VSS MUX2_X1
X_2639_ _0656_ mem\[14\]\[26\] _0711_ _0242_ VDD VSS MUX2_X1
X_2640_ _0658_ mem\[14\]\[27\] _0711_ _0243_ VDD VSS MUX2_X1
X_2641_ _0709_ _0712_ VDD VSS CLKBUF_X3
X_2642_ _0660_ mem\[14\]\[28\] _0712_ _0244_ VDD VSS MUX2_X1
X_2643_ _0663_ mem\[14\]\[29\] _0712_ _0245_ VDD VSS MUX2_X1
X_2644_ _0665_ mem\[14\]\[2\] _0712_ _0246_ VDD VSS MUX2_X1
X_2645_ _0667_ mem\[14\]\[30\] _0712_ _0247_ VDD VSS MUX2_X1
X_2646_ _0669_ mem\[14\]\[31\] _0712_ _0248_ VDD VSS MUX2_X1
X_2647_ _0671_ mem\[14\]\[3\] _0712_ _0249_ VDD VSS MUX2_X1
X_2648_ _0673_ mem\[14\]\[4\] _0712_ _0250_ VDD VSS MUX2_X1
X_2649_ _0675_ mem\[14\]\[5\] _0712_ _0251_ VDD VSS MUX2_X1
X_2650_ _0677_ mem\[14\]\[6\] _0712_ _0252_ VDD VSS MUX2_X1
X_2651_ _0679_ mem\[14\]\[7\] _0712_ _0253_ VDD VSS MUX2_X1
X_2652_ _0681_ mem\[14\]\[8\] _0709_ _0254_ VDD VSS MUX2_X1
X_2653_ _0683_ mem\[14\]\[9\] _0709_ _0255_ VDD VSS MUX2_X1
X_2654_ _0693_ _0699_ _0713_ VDD VSS NAND2_X4
X_2655_ _0713_ _0714_ VDD VSS BUF_X4
X_2656_ _0610_ mem\[15\]\[0\] _0714_ _0256_ VDD VSS MUX2_X1
X_2657_ _0621_ mem\[15\]\[10\] _0714_ _0257_ VDD VSS MUX2_X1
X_2658_ _0623_ mem\[15\]\[11\] _0714_ _0258_ VDD VSS MUX2_X1
X_2659_ _0625_ mem\[15\]\[12\] _0714_ _0259_ VDD VSS MUX2_X1
X_2660_ _0627_ mem\[15\]\[13\] _0714_ _0260_ VDD VSS MUX2_X1
X_2661_ _0629_ mem\[15\]\[14\] _0714_ _0261_ VDD VSS MUX2_X1
X_2662_ _0631_ mem\[15\]\[15\] _0714_ _0262_ VDD VSS MUX2_X1
X_2663_ _0633_ mem\[15\]\[16\] _0714_ _0263_ VDD VSS MUX2_X1
X_2664_ _0635_ mem\[15\]\[17\] _0714_ _0264_ VDD VSS MUX2_X1
X_2665_ _0637_ mem\[15\]\[18\] _0714_ _0265_ VDD VSS MUX2_X1
X_2666_ _0713_ _0715_ VDD VSS BUF_X4
X_2667_ _0639_ mem\[15\]\[19\] _0715_ _0266_ VDD VSS MUX2_X1
X_2668_ _0642_ mem\[15\]\[1\] _0715_ _0267_ VDD VSS MUX2_X1
X_2669_ _0644_ mem\[15\]\[20\] _0715_ _0268_ VDD VSS MUX2_X1
X_2670_ _0646_ mem\[15\]\[21\] _0715_ _0269_ VDD VSS MUX2_X1
X_2671_ _0648_ mem\[15\]\[22\] _0715_ _0270_ VDD VSS MUX2_X1
X_2672_ _0650_ mem\[15\]\[23\] _0715_ _0271_ VDD VSS MUX2_X1
X_2673_ _0652_ mem\[15\]\[24\] _0715_ _0272_ VDD VSS MUX2_X1
X_2674_ _0654_ mem\[15\]\[25\] _0715_ _0273_ VDD VSS MUX2_X1
X_2675_ _0656_ mem\[15\]\[26\] _0715_ _0274_ VDD VSS MUX2_X1
X_2676_ _0658_ mem\[15\]\[27\] _0715_ _0275_ VDD VSS MUX2_X1
X_2677_ _0713_ _0716_ VDD VSS CLKBUF_X3
X_2678_ _0660_ mem\[15\]\[28\] _0716_ _0276_ VDD VSS MUX2_X1
X_2679_ _0663_ mem\[15\]\[29\] _0716_ _0277_ VDD VSS MUX2_X1
X_2680_ _0665_ mem\[15\]\[2\] _0716_ _0278_ VDD VSS MUX2_X1
X_2681_ _0667_ mem\[15\]\[30\] _0716_ _0279_ VDD VSS MUX2_X1
X_2682_ _0669_ mem\[15\]\[31\] _0716_ _0280_ VDD VSS MUX2_X1
X_2683_ _0671_ mem\[15\]\[3\] _0716_ _0281_ VDD VSS MUX2_X1
X_2684_ _0673_ mem\[15\]\[4\] _0716_ _0282_ VDD VSS MUX2_X1
X_2685_ _0675_ mem\[15\]\[5\] _0716_ _0283_ VDD VSS MUX2_X1
X_2686_ _0677_ mem\[15\]\[6\] _0716_ _0284_ VDD VSS MUX2_X1
X_2687_ _0679_ mem\[15\]\[7\] _0716_ _0285_ VDD VSS MUX2_X1
X_2688_ _0681_ mem\[15\]\[8\] _0713_ _0286_ VDD VSS MUX2_X1
X_2689_ _0683_ mem\[15\]\[9\] _0713_ _0287_ VDD VSS MUX2_X1
X_2690_ _0704_ _0617_ _0717_ VDD VSS AND2_X1
X_2691_ _0717_ _0718_ VDD VSS BUF_X2
X_2692_ _0718_ _0719_ VDD VSS BUF_X4
X_2693_ mem\[1\]\[0\] _0611_ _0719_ _0288_ VDD VSS MUX2_X1
X_2694_ mem\[1\]\[10\] _0622_ _0719_ _0289_ VDD VSS MUX2_X1
X_2695_ mem\[1\]\[11\] _0624_ _0719_ _0290_ VDD VSS MUX2_X1
X_2696_ mem\[1\]\[12\] _0626_ _0719_ _0291_ VDD VSS MUX2_X1
X_2697_ mem\[1\]\[13\] _0628_ _0719_ _0292_ VDD VSS MUX2_X1
X_2698_ mem\[1\]\[14\] _0630_ _0719_ _0293_ VDD VSS MUX2_X1
X_2699_ mem\[1\]\[15\] _0632_ _0719_ _0294_ VDD VSS MUX2_X1
X_2700_ mem\[1\]\[16\] _0634_ _0719_ _0295_ VDD VSS MUX2_X1
X_2701_ mem\[1\]\[17\] _0636_ _0719_ _0296_ VDD VSS MUX2_X1
X_2702_ mem\[1\]\[18\] _0638_ _0719_ _0297_ VDD VSS MUX2_X1
X_2703_ _0718_ _0720_ VDD VSS BUF_X4
X_2704_ mem\[1\]\[19\] _0640_ _0720_ _0298_ VDD VSS MUX2_X1
X_2705_ mem\[1\]\[1\] _0643_ _0720_ _0299_ VDD VSS MUX2_X1
X_2706_ mem\[1\]\[20\] _0645_ _0720_ _0300_ VDD VSS MUX2_X1
X_2707_ mem\[1\]\[21\] _0647_ _0720_ _0301_ VDD VSS MUX2_X1
X_2708_ mem\[1\]\[22\] _0649_ _0720_ _0302_ VDD VSS MUX2_X1
X_2709_ mem\[1\]\[23\] _0651_ _0720_ _0303_ VDD VSS MUX2_X1
X_2710_ mem\[1\]\[24\] _0653_ _0720_ _0304_ VDD VSS MUX2_X1
X_2711_ mem\[1\]\[25\] _0655_ _0720_ _0305_ VDD VSS MUX2_X1
X_2712_ mem\[1\]\[26\] _0657_ _0720_ _0306_ VDD VSS MUX2_X1
X_2713_ mem\[1\]\[27\] _0659_ _0720_ _0307_ VDD VSS MUX2_X1
X_2714_ _0718_ _0721_ VDD VSS CLKBUF_X3
X_2715_ mem\[1\]\[28\] _0661_ _0721_ _0308_ VDD VSS MUX2_X1
X_2716_ mem\[1\]\[29\] _0664_ _0721_ _0309_ VDD VSS MUX2_X1
X_2717_ mem\[1\]\[2\] _0666_ _0721_ _0310_ VDD VSS MUX2_X1
X_2718_ mem\[1\]\[30\] _0668_ _0721_ _0311_ VDD VSS MUX2_X1
X_2719_ mem\[1\]\[31\] _0670_ _0721_ _0312_ VDD VSS MUX2_X1
X_2720_ mem\[1\]\[3\] _0672_ _0721_ _0313_ VDD VSS MUX2_X1
X_2721_ mem\[1\]\[4\] _0674_ _0721_ _0314_ VDD VSS MUX2_X1
X_2722_ mem\[1\]\[5\] _0676_ _0721_ _0315_ VDD VSS MUX2_X1
X_2723_ mem\[1\]\[6\] _0678_ _0721_ _0316_ VDD VSS MUX2_X1
X_2724_ mem\[1\]\[7\] _0680_ _0721_ _0317_ VDD VSS MUX2_X1
X_2725_ mem\[1\]\[8\] _0682_ _0718_ _0318_ VDD VSS MUX2_X1
X_2726_ mem\[1\]\[9\] _0684_ _0718_ _0319_ VDD VSS MUX2_X1
X_2727_ _0685_ _0617_ _0722_ VDD VSS AND2_X1
X_2728_ _0722_ _0723_ VDD VSS BUF_X2
X_2729_ _0723_ _0724_ VDD VSS BUF_X4
X_2730_ mem\[2\]\[0\] _0611_ _0724_ _0320_ VDD VSS MUX2_X1
X_2731_ mem\[2\]\[10\] _0622_ _0724_ _0321_ VDD VSS MUX2_X1
X_2732_ mem\[2\]\[11\] _0624_ _0724_ _0322_ VDD VSS MUX2_X1
X_2733_ mem\[2\]\[12\] _0626_ _0724_ _0323_ VDD VSS MUX2_X1
X_2734_ mem\[2\]\[13\] _0628_ _0724_ _0324_ VDD VSS MUX2_X1
X_2735_ mem\[2\]\[14\] _0630_ _0724_ _0325_ VDD VSS MUX2_X1
X_2736_ mem\[2\]\[15\] _0632_ _0724_ _0326_ VDD VSS MUX2_X1
X_2737_ mem\[2\]\[16\] _0634_ _0724_ _0327_ VDD VSS MUX2_X1
X_2738_ mem\[2\]\[17\] _0636_ _0724_ _0328_ VDD VSS MUX2_X1
X_2739_ mem\[2\]\[18\] _0638_ _0724_ _0329_ VDD VSS MUX2_X1
X_2740_ _0723_ _0725_ VDD VSS BUF_X4
X_2741_ mem\[2\]\[19\] _0640_ _0725_ _0330_ VDD VSS MUX2_X1
X_2742_ mem\[2\]\[1\] _0643_ _0725_ _0331_ VDD VSS MUX2_X1
X_2743_ mem\[2\]\[20\] _0645_ _0725_ _0332_ VDD VSS MUX2_X1
X_2744_ mem\[2\]\[21\] _0647_ _0725_ _0333_ VDD VSS MUX2_X1
X_2745_ mem\[2\]\[22\] _0649_ _0725_ _0334_ VDD VSS MUX2_X1
X_2746_ mem\[2\]\[23\] _0651_ _0725_ _0335_ VDD VSS MUX2_X1
X_2747_ mem\[2\]\[24\] _0653_ _0725_ _0336_ VDD VSS MUX2_X1
X_2748_ mem\[2\]\[25\] _0655_ _0725_ _0337_ VDD VSS MUX2_X1
X_2749_ mem\[2\]\[26\] _0657_ _0725_ _0338_ VDD VSS MUX2_X1
X_2750_ mem\[2\]\[27\] _0659_ _0725_ _0339_ VDD VSS MUX2_X1
X_2751_ _0723_ _0726_ VDD VSS BUF_X4
X_2752_ mem\[2\]\[28\] _0661_ _0726_ _0340_ VDD VSS MUX2_X1
X_2753_ mem\[2\]\[29\] _0664_ _0726_ _0341_ VDD VSS MUX2_X1
X_2754_ mem\[2\]\[2\] _0666_ _0726_ _0342_ VDD VSS MUX2_X1
X_2755_ mem\[2\]\[30\] _0668_ _0726_ _0343_ VDD VSS MUX2_X1
X_2756_ mem\[2\]\[31\] _0670_ _0726_ _0344_ VDD VSS MUX2_X1
X_2757_ mem\[2\]\[3\] _0672_ _0726_ _0345_ VDD VSS MUX2_X1
X_2758_ mem\[2\]\[4\] _0674_ _0726_ _0346_ VDD VSS MUX2_X1
X_2759_ mem\[2\]\[5\] _0676_ _0726_ _0347_ VDD VSS MUX2_X1
X_2760_ mem\[2\]\[6\] _0678_ _0726_ _0348_ VDD VSS MUX2_X1
X_2761_ mem\[2\]\[7\] _0680_ _0726_ _0349_ VDD VSS MUX2_X1
X_2762_ mem\[2\]\[8\] _0682_ _0723_ _0350_ VDD VSS MUX2_X1
X_2763_ mem\[2\]\[9\] _0684_ _0723_ _0351_ VDD VSS MUX2_X1
X_2764_ _0693_ _0617_ _0727_ VDD VSS AND2_X1
X_2765_ _0727_ _0728_ VDD VSS BUF_X2
X_2766_ _0728_ _0729_ VDD VSS BUF_X4
X_2767_ mem\[3\]\[0\] _0611_ _0729_ _0352_ VDD VSS MUX2_X1
X_2768_ mem\[3\]\[10\] _0622_ _0729_ _0353_ VDD VSS MUX2_X1
X_2769_ mem\[3\]\[11\] _0624_ _0729_ _0354_ VDD VSS MUX2_X1
X_2770_ mem\[3\]\[12\] _0626_ _0729_ _0355_ VDD VSS MUX2_X1
X_2771_ mem\[3\]\[13\] _0628_ _0729_ _0356_ VDD VSS MUX2_X1
X_2772_ mem\[3\]\[14\] _0630_ _0729_ _0357_ VDD VSS MUX2_X1
X_2773_ mem\[3\]\[15\] _0632_ _0729_ _0358_ VDD VSS MUX2_X1
X_2774_ mem\[3\]\[16\] _0634_ _0729_ _0359_ VDD VSS MUX2_X1
X_2775_ mem\[3\]\[17\] _0636_ _0729_ _0360_ VDD VSS MUX2_X1
X_2776_ mem\[3\]\[18\] _0638_ _0729_ _0361_ VDD VSS MUX2_X1
X_2777_ _0728_ _0730_ VDD VSS BUF_X4
X_2778_ mem\[3\]\[19\] _0640_ _0730_ _0362_ VDD VSS MUX2_X1
X_2779_ mem\[3\]\[1\] _0643_ _0730_ _0363_ VDD VSS MUX2_X1
X_2780_ mem\[3\]\[20\] _0645_ _0730_ _0364_ VDD VSS MUX2_X1
X_2781_ mem\[3\]\[21\] _0647_ _0730_ _0365_ VDD VSS MUX2_X1
X_2782_ mem\[3\]\[22\] _0649_ _0730_ _0366_ VDD VSS MUX2_X1
X_2783_ mem\[3\]\[23\] _0651_ _0730_ _0367_ VDD VSS MUX2_X1
X_2784_ mem\[3\]\[24\] _0653_ _0730_ _0368_ VDD VSS MUX2_X1
X_2785_ mem\[3\]\[25\] _0655_ _0730_ _0369_ VDD VSS MUX2_X1
X_2786_ mem\[3\]\[26\] _0657_ _0730_ _0370_ VDD VSS MUX2_X1
X_2787_ mem\[3\]\[27\] _0659_ _0730_ _0371_ VDD VSS MUX2_X1
X_2788_ _0728_ _0731_ VDD VSS BUF_X4
X_2789_ mem\[3\]\[28\] _0661_ _0731_ _0372_ VDD VSS MUX2_X1
X_2790_ mem\[3\]\[29\] _0664_ _0731_ _0373_ VDD VSS MUX2_X1
X_2791_ mem\[3\]\[2\] _0666_ _0731_ _0374_ VDD VSS MUX2_X1
X_2792_ mem\[3\]\[30\] _0668_ _0731_ _0375_ VDD VSS MUX2_X1
X_2793_ mem\[3\]\[31\] _0670_ _0731_ _0376_ VDD VSS MUX2_X1
X_2794_ mem\[3\]\[3\] _0672_ _0731_ _0377_ VDD VSS MUX2_X1
X_2795_ mem\[3\]\[4\] _0674_ _0731_ _0378_ VDD VSS MUX2_X1
X_2796_ mem\[3\]\[5\] _0676_ _0731_ _0379_ VDD VSS MUX2_X1
X_2797_ mem\[3\]\[6\] _0678_ _0731_ _0380_ VDD VSS MUX2_X1
X_2798_ mem\[3\]\[7\] _0680_ _0731_ _0381_ VDD VSS MUX2_X1
X_2799_ mem\[3\]\[8\] _0682_ _0728_ _0382_ VDD VSS MUX2_X1
X_2800_ mem\[3\]\[9\] _0684_ _0728_ _0383_ VDD VSS MUX2_X1
X_2801_ _0614_ _0615_ _0686_ _0732_ VDD VSS NOR3_X2
X_2802_ _0612_ _0732_ _0733_ VDD VSS AND2_X1
X_2803_ _0733_ _0734_ VDD VSS CLKBUF_X3
X_2804_ _0734_ _0735_ VDD VSS BUF_X4
X_2805_ mem\[4\]\[0\] _0611_ _0735_ _0384_ VDD VSS MUX2_X1
X_2806_ mem\[4\]\[10\] _0622_ _0735_ _0385_ VDD VSS MUX2_X1
X_2807_ mem\[4\]\[11\] _0624_ _0735_ _0386_ VDD VSS MUX2_X1
X_2808_ mem\[4\]\[12\] _0626_ _0735_ _0387_ VDD VSS MUX2_X1
X_2809_ mem\[4\]\[13\] _0628_ _0735_ _0388_ VDD VSS MUX2_X1
X_2810_ mem\[4\]\[14\] _0630_ _0735_ _0389_ VDD VSS MUX2_X1
X_2811_ mem\[4\]\[15\] _0632_ _0735_ _0390_ VDD VSS MUX2_X1
X_2812_ mem\[4\]\[16\] _0634_ _0735_ _0391_ VDD VSS MUX2_X1
X_2813_ mem\[4\]\[17\] _0636_ _0735_ _0392_ VDD VSS MUX2_X1
X_2814_ mem\[4\]\[18\] _0638_ _0735_ _0393_ VDD VSS MUX2_X1
X_2815_ _0734_ _0736_ VDD VSS BUF_X4
X_2816_ mem\[4\]\[19\] _0640_ _0736_ _0394_ VDD VSS MUX2_X1
X_2817_ mem\[4\]\[1\] _0643_ _0736_ _0395_ VDD VSS MUX2_X1
X_2818_ mem\[4\]\[20\] _0645_ _0736_ _0396_ VDD VSS MUX2_X1
X_2819_ mem\[4\]\[21\] _0647_ _0736_ _0397_ VDD VSS MUX2_X1
X_2820_ mem\[4\]\[22\] _0649_ _0736_ _0398_ VDD VSS MUX2_X1
X_2821_ mem\[4\]\[23\] _0651_ _0736_ _0399_ VDD VSS MUX2_X1
X_2822_ mem\[4\]\[24\] _0653_ _0736_ _0400_ VDD VSS MUX2_X1
X_2823_ mem\[4\]\[25\] _0655_ _0736_ _0401_ VDD VSS MUX2_X1
X_2824_ mem\[4\]\[26\] _0657_ _0736_ _0402_ VDD VSS MUX2_X1
X_2825_ mem\[4\]\[27\] _0659_ _0736_ _0403_ VDD VSS MUX2_X1
X_2826_ _0734_ _0737_ VDD VSS BUF_X4
X_2827_ mem\[4\]\[28\] _0661_ _0737_ _0404_ VDD VSS MUX2_X1
X_2828_ mem\[4\]\[29\] _0664_ _0737_ _0405_ VDD VSS MUX2_X1
X_2829_ mem\[4\]\[2\] _0666_ _0737_ _0406_ VDD VSS MUX2_X1
X_2830_ mem\[4\]\[30\] _0668_ _0737_ _0407_ VDD VSS MUX2_X1
X_2831_ mem\[4\]\[31\] _0670_ _0737_ _0408_ VDD VSS MUX2_X1
X_2832_ mem\[4\]\[3\] _0672_ _0737_ _0409_ VDD VSS MUX2_X1
X_2833_ mem\[4\]\[4\] _0674_ _0737_ _0410_ VDD VSS MUX2_X1
X_2834_ mem\[4\]\[5\] _0676_ _0737_ _0411_ VDD VSS MUX2_X1
X_2835_ mem\[4\]\[6\] _0678_ _0737_ _0412_ VDD VSS MUX2_X1
X_2836_ mem\[4\]\[7\] _0680_ _0737_ _0413_ VDD VSS MUX2_X1
X_2837_ mem\[4\]\[8\] _0682_ _0734_ _0414_ VDD VSS MUX2_X1
X_2838_ mem\[4\]\[9\] _0684_ _0734_ _0415_ VDD VSS MUX2_X1
X_2839_ _0704_ _0732_ _0738_ VDD VSS AND2_X1
X_2840_ _0738_ _0739_ VDD VSS BUF_X2
X_2841_ _0739_ _0740_ VDD VSS BUF_X4
X_2842_ mem\[5\]\[0\] _0611_ _0740_ _0416_ VDD VSS MUX2_X1
X_2843_ mem\[5\]\[10\] _0622_ _0740_ _0417_ VDD VSS MUX2_X1
X_2844_ mem\[5\]\[11\] _0624_ _0740_ _0418_ VDD VSS MUX2_X1
X_2845_ mem\[5\]\[12\] _0626_ _0740_ _0419_ VDD VSS MUX2_X1
X_2846_ mem\[5\]\[13\] _0628_ _0740_ _0420_ VDD VSS MUX2_X1
X_2847_ mem\[5\]\[14\] _0630_ _0740_ _0421_ VDD VSS MUX2_X1
X_2848_ mem\[5\]\[15\] _0632_ _0740_ _0422_ VDD VSS MUX2_X1
X_2849_ mem\[5\]\[16\] _0634_ _0740_ _0423_ VDD VSS MUX2_X1
X_2850_ mem\[5\]\[17\] _0636_ _0740_ _0424_ VDD VSS MUX2_X1
X_2851_ mem\[5\]\[18\] _0638_ _0740_ _0425_ VDD VSS MUX2_X1