* CDL Netlist generated by OpenROAD

*.BUSDELIMITER [

.SUBCKT sine_cosine_generator clk cosine_out[0] cosine_out[10]
+ cosine_out[11] cosine_out[12] cosine_out[13] cosine_out[14]
+ cosine_out[15] cosine_out[1] cosine_out[2] cosine_out[3] cosine_out[4]
+ cosine_out[5] cosine_out[6] cosine_out[7] cosine_out[8] cosine_out[9]
+ enable phase_in[0] phase_in[10] phase_in[11] phase_in[12]
+ phase_in[13] phase_in[14] phase_in[15] phase_in[1] phase_in[2]
+ phase_in[3] phase_in[4] phase_in[5] phase_in[6] phase_in[7]
+ phase_in[8] phase_in[9] rst_n sine_out[0] sine_out[10] sine_out[11]
+ sine_out[12] sine_out[13] sine_out[14] sine_out[15] sine_out[1]
+ sine_out[2] sine_out[3] sine_out[4] sine_out[5] sine_out[6]
+ sine_out[7] sine_out[8] sine_out[9] valid_out
X_241_ net6 _227_ VDD VSS gf180mcu_fd_sc_mcu9t5v0__clkinv_2
X_242_ net7 _228_ VDD VSS gf180mcu_fd_sc_mcu9t5v0__inv_2
X_243_ net19 _200_ VDD VSS gf180mcu_fd_sc_mcu9t5v0__clkinv_2
X_244_ net2 _201_ VDD VSS gf180mcu_fd_sc_mcu9t5v0__inv_3
X_245_ _201_ _202_ VDD VSS gf180mcu_fd_sc_mcu9t5v0__buf_4
X_246_ _233_ _203_ VDD VSS gf180mcu_fd_sc_mcu9t5v0__clkinv_3
X_247_ net8 _204_ VDD VSS gf180mcu_fd_sc_mcu9t5v0__buf_4
X_248_ _229_ _205_ VDD VSS gf180mcu_fd_sc_mcu9t5v0__buf_8
X_249_ _204_ _205_ _206_ VDD VSS gf180mcu_fd_sc_mcu9t5v0__nand2_2
X_250_ _203_ _206_ _207_ VDD VSS gf180mcu_fd_sc_mcu9t5v0__nand2_2
X_251_ net9 _208_ VDD VSS gf180mcu_fd_sc_mcu9t5v0__buf_4
X_252_ _208_ _209_ VDD VSS gf180mcu_fd_sc_mcu9t5v0__buf_4
X_253_ net8 _210_ VDD VSS gf180mcu_fd_sc_mcu9t5v0__buf_4
X_254_ _210_ _211_ VDD VSS gf180mcu_fd_sc_mcu9t5v0__buf_4
X_255_ _237_ _212_ VDD VSS gf180mcu_fd_sc_mcu9t5v0__buf_4
X_256_ _211_ _212_ _205_ _213_ VDD VSS gf180mcu_fd_sc_mcu9t5v0__aoi21_2
X_257_ _209_ _213_ _214_ VDD VSS gf180mcu_fd_sc_mcu9t5v0__nor2_2
X_258_ net8 _215_ VDD VSS gf180mcu_fd_sc_mcu9t5v0__clkinv_2
X_259_ _215_ _216_ VDD VSS gf180mcu_fd_sc_mcu9t5v0__buf_4
X_260_ _239_ _217_ VDD VSS gf180mcu_fd_sc_mcu9t5v0__buf_4
X_261_ _208_ _216_ _217_ _218_ VDD VSS gf180mcu_fd_sc_mcu9t5v0__and3_2
X_262_ net10 net3 net12 net13 _219_ VDD VSS gf180mcu_fd_sc_mcu9t5v0__or4_4
X_263_ net11 net14 net16 net4 _220_ VDD VSS gf180mcu_fd_sc_mcu9t5v0__or4_4
X_264_ net15 net18 net17 net5 _221_ VDD VSS gf180mcu_fd_sc_mcu9t5v0__or4_4
X_265_ _219_ _220_ _221_ _222_ VDD VSS gf180mcu_fd_sc_mcu9t5v0__nor3_4
X_266_ _222_ _223_ VDD VSS gf180mcu_fd_sc_mcu9t5v0__buf_4
X_267_ _207_ _214_ _218_ _223_ _224_ VDD VSS gf180mcu_fd_sc_mcu9t5v0__oai31_2
X_268_ _235_ _225_ VDD VSS gf180mcu_fd_sc_mcu9t5v0__clkinv_2
X_269_ _225_ net6 _211_ _226_ VDD VSS gf180mcu_fd_sc_mcu9t5v0__mux2_2
X_270_ _224_ _226_ _022_ VDD VSS gf180mcu_fd_sc_mcu9t5v0__nand2_2
X_271_ net2 _023_ VDD VSS gf180mcu_fd_sc_mcu9t5v0__buf_4
X_272_ net10 net15 net18 net17 _024_ VDD VSS gf180mcu_fd_sc_mcu9t5v0__and4_2
X_273_ net5 net4 _205_ _024_ _025_ VDD VSS gf180mcu_fd_sc_mcu9t5v0__and4_4
X_274_ _215_ _026_ VDD VSS gf180mcu_fd_sc_mcu9t5v0__buf_4
X_275_ net12 net11 net14 net13 _027_ VDD VSS gf180mcu_fd_sc_mcu9t5v0__and4_4
X_276_ net3 net16 _028_ VDD VSS gf180mcu_fd_sc_mcu9t5v0__and2_2
X_277_ _208_ _026_ _027_ _028_ _029_ VDD VSS gf180mcu_fd_sc_mcu9t5v0__and4_2
X_278_ _025_ _029_ _030_ VDD VSS gf180mcu_fd_sc_mcu9t5v0__nand2_4
X_279_ _026_ _205_ _031_ VDD VSS gf180mcu_fd_sc_mcu9t5v0__and2_2
X_280_ _237_ _032_ VDD VSS gf180mcu_fd_sc_mcu9t5v0__clkinv_2
X_281_ _208_ _215_ _032_ _033_ VDD VSS gf180mcu_fd_sc_mcu9t5v0__aoi21_2
X_282_ _217_ _031_ _033_ _222_ _034_ VDD VSS gf180mcu_fd_sc_mcu9t5v0__oai31_2
X_283_ _023_ _030_ _034_ _035_ VDD VSS gf180mcu_fd_sc_mcu9t5v0__and3_2
X_284_ _200_ _202_ _022_ _035_ _000_ VDD VSS gf180mcu_fd_sc_mcu9t5v0__aoi22_2
X_285_ _233_ _239_ _036_ VDD VSS gf180mcu_fd_sc_mcu9t5v0__or2_4
X_286_ _209_ _216_ _036_ _037_ VDD VSS gf180mcu_fd_sc_mcu9t5v0__and3_2
X_287_ _233_ _038_ VDD VSS gf180mcu_fd_sc_mcu9t5v0__buf_4
X_288_ _212_ _038_ _204_ _039_ VDD VSS gf180mcu_fd_sc_mcu9t5v0__oai21_2
X_289_ _209_ _039_ _040_ VDD VSS gf180mcu_fd_sc_mcu9t5v0__nor2_2
X_290_ _037_ _040_ _223_ _041_ VDD VSS gf180mcu_fd_sc_mcu9t5v0__oai21_2
X_291_ _205_ _033_ _036_ _222_ _042_ VDD VSS gf180mcu_fd_sc_mcu9t5v0__oai31_4
X_292_ _219_ _220_ _221_ _043_ VDD VSS gf180mcu_fd_sc_mcu9t5v0__or3_4
X_293_ _210_ _239_ _044_ VDD VSS gf180mcu_fd_sc_mcu9t5v0__and2_2
X_294_ _212_ _229_ _045_ VDD VSS gf180mcu_fd_sc_mcu9t5v0__or2_4
X_295_ _208_ _204_ _046_ VDD VSS gf180mcu_fd_sc_mcu9t5v0__nor2_2
X_296_ _209_ _044_ _045_ _046_ _047_ VDD VSS gf180mcu_fd_sc_mcu9t5v0__aoi22_2
X_297_ _043_ _047_ net2 _048_ VDD VSS gf180mcu_fd_sc_mcu9t5v0__oai21_2
X_298_ _030_ _042_ _048_ _049_ VDD VSS gf180mcu_fd_sc_mcu9t5v0__aoi21_4
X_299_ _026_ net7 _044_ _050_ VDD VSS gf180mcu_fd_sc_mcu9t5v0__aoi21_2
X_300_ _230_ _051_ VDD VSS gf180mcu_fd_sc_mcu9t5v0__clkinv_2
X_301_ net7 _051_ _210_ _052_ VDD VSS gf180mcu_fd_sc_mcu9t5v0__mux2_2
X_302_ net9 _053_ VDD VSS gf180mcu_fd_sc_mcu9t5v0__clkinv_3
X_303_ _053_ _054_ VDD VSS gf180mcu_fd_sc_mcu9t5v0__buf_4
X_304_ _050_ _052_ _054_ _055_ VDD VSS gf180mcu_fd_sc_mcu9t5v0__mux2_2
X_305_ _023_ _030_ _042_ _055_ _056_ VDD VSS gf180mcu_fd_sc_mcu9t5v0__and4_2
X_306_ net2 _057_ VDD VSS gf180mcu_fd_sc_mcu9t5v0__buf_4
X_307_ _057_ net20 _058_ VDD VSS gf180mcu_fd_sc_mcu9t5v0__nor2_2
X_308_ _041_ _049_ _056_ _058_ _001_ VDD VSS gf180mcu_fd_sc_mcu9t5v0__aoi211_2
X_309_ _023_ _030_ _042_ _059_ VDD VSS gf180mcu_fd_sc_mcu9t5v0__and3_2
X_310_ _204_ net6 _060_ VDD VSS gf180mcu_fd_sc_mcu9t5v0__xor2_2
X_311_ net6 _038_ _204_ _061_ VDD VSS gf180mcu_fd_sc_mcu9t5v0__mux2_2
X_312_ _061_ _062_ VDD VSS gf180mcu_fd_sc_mcu9t5v0__clkinv_2
X_313_ _209_ _063_ VDD VSS gf180mcu_fd_sc_mcu9t5v0__buf_4
X_314_ _060_ _062_ _063_ _064_ VDD VSS gf180mcu_fd_sc_mcu9t5v0__mux2_2
X_315_ _239_ _038_ _204_ _065_ VDD VSS gf180mcu_fd_sc_mcu9t5v0__mux2_2
X_316_ _038_ _212_ _204_ _066_ VDD VSS gf180mcu_fd_sc_mcu9t5v0__mux2_2
X_317_ _053_ _067_ VDD VSS gf180mcu_fd_sc_mcu9t5v0__clkbuf_8
X_318_ _065_ _066_ _067_ _068_ VDD VSS gf180mcu_fd_sc_mcu9t5v0__mux2_2
X_319_ _223_ _068_ _069_ VDD VSS gf180mcu_fd_sc_mcu9t5v0__nand2_2
X_320_ _053_ _210_ _212_ _070_ VDD VSS gf180mcu_fd_sc_mcu9t5v0__oai21_4
X_321_ _205_ _036_ _071_ VDD VSS gf180mcu_fd_sc_mcu9t5v0__nor2_4
X_322_ _205_ _239_ _210_ _072_ VDD VSS gf180mcu_fd_sc_mcu9t5v0__mux2_2
X_323_ _070_ _071_ _072_ _054_ _073_ VDD VSS gf180mcu_fd_sc_mcu9t5v0__aoi22_2
X_324_ net2 _223_ _073_ _074_ VDD VSS gf180mcu_fd_sc_mcu9t5v0__and3_2
X_325_ _057_ net21 _075_ VDD VSS gf180mcu_fd_sc_mcu9t5v0__nor2_2
X_326_ _059_ _064_ _069_ _074_ _075_ _002_ VDD VSS gf180mcu_fd_sc_mcu9t5v0__aoi221_2
X_327_ _026_ _036_ _076_ VDD VSS gf180mcu_fd_sc_mcu9t5v0__nand2_2
X_328_ _076_ _039_ _208_ _077_ VDD VSS gf180mcu_fd_sc_mcu9t5v0__mux2_2
X_329_ _043_ _077_ _078_ VDD VSS gf180mcu_fd_sc_mcu9t5v0__or2_2
X_330_ _231_ _079_ VDD VSS gf180mcu_fd_sc_mcu9t5v0__clkinv_2
X_331_ _204_ _079_ _080_ VDD VSS gf180mcu_fd_sc_mcu9t5v0__nand2_2
X_332_ _211_ _080_ _209_ _081_ VDD VSS gf180mcu_fd_sc_mcu9t5v0__mux2_2
X_333_ net2 _030_ _042_ _081_ _082_ VDD VSS gf180mcu_fd_sc_mcu9t5v0__and4_2
X_334_ _057_ net22 _083_ VDD VSS gf180mcu_fd_sc_mcu9t5v0__nor2_2
X_335_ _049_ _078_ _082_ _083_ _003_ VDD VSS gf180mcu_fd_sc_mcu9t5v0__aoi211_2
X_336_ _065_ _066_ _209_ _084_ VDD VSS gf180mcu_fd_sc_mcu9t5v0__mux2_2
X_337_ _223_ _084_ _085_ VDD VSS gf180mcu_fd_sc_mcu9t5v0__nand2_2
X_338_ _025_ _029_ _086_ VDD VSS gf180mcu_fd_sc_mcu9t5v0__and2_4
X_339_ _070_ _071_ _043_ _087_ VDD VSS gf180mcu_fd_sc_mcu9t5v0__aoi21_4
X_340_ _038_ net6 _210_ _088_ VDD VSS gf180mcu_fd_sc_mcu9t5v0__mux2_2
X_341_ _225_ _038_ _210_ _089_ VDD VSS gf180mcu_fd_sc_mcu9t5v0__mux2_2
X_342_ _088_ _089_ _054_ _090_ VDD VSS gf180mcu_fd_sc_mcu9t5v0__mux2_2
X_343_ _201_ _086_ _087_ _090_ _091_ VDD VSS gf180mcu_fd_sc_mcu9t5v0__nor4_4
X_344_ _057_ net23 _092_ VDD VSS gf180mcu_fd_sc_mcu9t5v0__nor2_2
X_345_ _049_ _085_ _091_ _092_ _004_ VDD VSS gf180mcu_fd_sc_mcu9t5v0__aoi211_2
X_346_ net25 _093_ VDD VSS gf180mcu_fd_sc_mcu9t5v0__clkinv_2
X_347_ _023_ _041_ _094_ VDD VSS gf180mcu_fd_sc_mcu9t5v0__and2_2
X_348_ _208_ _095_ VDD VSS gf180mcu_fd_sc_mcu9t5v0__buf_4
X_349_ _095_ _216_ _096_ VDD VSS gf180mcu_fd_sc_mcu9t5v0__nand2_2
X_350_ _063_ _080_ _096_ _097_ VDD VSS gf180mcu_fd_sc_mcu9t5v0__oai21_2
X_351_ _031_ _044_ _054_ _098_ VDD VSS gf180mcu_fd_sc_mcu9t5v0__mux2_2
X_352_ _224_ _097_ _098_ _223_ _086_ _099_ VDD VSS gf180mcu_fd_sc_mcu9t5v0__aoi221_2
X_353_ _202_ _093_ _094_ _099_ _005_ VDD VSS gf180mcu_fd_sc_mcu9t5v0__aoi22_2
X_354_ _228_ _212_ _216_ _100_ VDD VSS gf180mcu_fd_sc_mcu9t5v0__mux2_2
X_355_ _051_ _100_ _067_ _101_ VDD VSS gf180mcu_fd_sc_mcu9t5v0__mux2_2
X_356_ net8 _212_ _102_ VDD VSS gf180mcu_fd_sc_mcu9t5v0__and2_2
X_357_ _054_ _026_ _239_ _103_ VDD VSS gf180mcu_fd_sc_mcu9t5v0__and3_2
X_358_ _095_ _102_ _103_ _038_ _104_ VDD VSS gf180mcu_fd_sc_mcu9t5v0__aoi211_2
X_359_ net2 _223_ _073_ _104_ _105_ VDD VSS gf180mcu_fd_sc_mcu9t5v0__and4_2
X_360_ _057_ net26 _106_ VDD VSS gf180mcu_fd_sc_mcu9t5v0__nor2_2
X_361_ _059_ _101_ _105_ _106_ _006_ VDD VSS gf180mcu_fd_sc_mcu9t5v0__aoi211_2
X_362_ _216_ _079_ _107_ VDD VSS gf180mcu_fd_sc_mcu9t5v0__and2_2
X_363_ _079_ _205_ _026_ _108_ VDD VSS gf180mcu_fd_sc_mcu9t5v0__mux2_2
X_364_ _107_ _108_ _067_ _109_ VDD VSS gf180mcu_fd_sc_mcu9t5v0__mux2_2
X_365_ _202_ _109_ _110_ VDD VSS gf180mcu_fd_sc_mcu9t5v0__nor2_2
X_366_ _030_ _042_ _111_ VDD VSS gf180mcu_fd_sc_mcu9t5v0__and2_2
X_367_ _057_ net33 _112_ VDD VSS gf180mcu_fd_sc_mcu9t5v0__nor2_2
X_368_ _041_ _074_ _110_ _111_ _112_ _007_ VDD VSS gf180mcu_fd_sc_mcu9t5v0__aoi221_2
X_369_ _216_ _230_ _113_ VDD VSS gf180mcu_fd_sc_mcu9t5v0__and2_2
X_370_ _067_ _102_ _113_ _114_ VDD VSS gf180mcu_fd_sc_mcu9t5v0__or3_2
X_371_ _210_ _230_ _115_ VDD VSS gf180mcu_fd_sc_mcu9t5v0__nor2_2
X_372_ _210_ net7 _116_ VDD VSS gf180mcu_fd_sc_mcu9t5v0__and2_2
X_373_ _095_ _115_ _116_ _117_ VDD VSS gf180mcu_fd_sc_mcu9t5v0__or3_2
X_374_ _114_ _117_ _201_ _118_ VDD VSS gf180mcu_fd_sc_mcu9t5v0__aoi21_2
X_375_ _023_ net30 _119_ VDD VSS gf180mcu_fd_sc_mcu9t5v0__nor2_2
X_376_ _074_ _085_ _118_ _111_ _119_ _008_ VDD VSS gf180mcu_fd_sc_mcu9t5v0__aoi221_2
X_377_ _216_ net7 net6 _120_ VDD VSS gf180mcu_fd_sc_mcu9t5v0__mux2_2
X_378_ _204_ _230_ _121_ VDD VSS gf180mcu_fd_sc_mcu9t5v0__nand2_2
X_379_ _211_ _032_ _121_ _063_ _122_ VDD VSS gf180mcu_fd_sc_mcu9t5v0__oai211_2
X_380_ _063_ _120_ _122_ _123_ VDD VSS gf180mcu_fd_sc_mcu9t5v0__oai21_2
X_381_ net2 _223_ _073_ _077_ _124_ VDD VSS gf180mcu_fd_sc_mcu9t5v0__and4_2
X_382_ _057_ net32 _125_ VDD VSS gf180mcu_fd_sc_mcu9t5v0__nor2_2
X_383_ _059_ _123_ _124_ _125_ _009_ VDD VSS gf180mcu_fd_sc_mcu9t5v0__aoi211_2
X_384_ _026_ _217_ _116_ _126_ VDD VSS gf180mcu_fd_sc_mcu9t5v0__aoi21_2
X_385_ _210_ net7 net6 _127_ VDD VSS gf180mcu_fd_sc_mcu9t5v0__mux2_2
X_386_ _126_ _127_ _054_ _128_ VDD VSS gf180mcu_fd_sc_mcu9t5v0__mux2_2
X_387_ net2 _030_ _042_ _128_ _129_ VDD VSS gf180mcu_fd_sc_mcu9t5v0__and4_2
X_388_ _057_ net24 _130_ VDD VSS gf180mcu_fd_sc_mcu9t5v0__nor2_2
X_389_ _049_ _069_ _129_ _130_ _010_ VDD VSS gf180mcu_fd_sc_mcu9t5v0__aoi211_2
X_390_ _225_ net6 _026_ _131_ VDD VSS gf180mcu_fd_sc_mcu9t5v0__mux2_2
X_391_ _067_ _212_ _045_ _211_ _217_ _132_ VDD VSS gf180mcu_fd_sc_mcu9t5v0__aoi221_2
X_392_ _038_ _205_ _223_ _132_ _133_ VDD VSS gf180mcu_fd_sc_mcu9t5v0__oai211_2
X_393_ _086_ _087_ _131_ _133_ _134_ VDD VSS gf180mcu_fd_sc_mcu9t5v0__oai31_2
X_394_ _202_ net35 _135_ VDD VSS gf180mcu_fd_sc_mcu9t5v0__nand2_2
X_395_ _202_ _134_ _135_ _011_ VDD VSS gf180mcu_fd_sc_mcu9t5v0__oai21_2
X_396_ _211_ _228_ _115_ _136_ VDD VSS gf180mcu_fd_sc_mcu9t5v0__aoi21_2
X_397_ _217_ _137_ VDD VSS gf180mcu_fd_sc_mcu9t5v0__clkinv_2
X_398_ _216_ _137_ _116_ _063_ _138_ VDD VSS gf180mcu_fd_sc_mcu9t5v0__aoi211_2
X_399_ _063_ _136_ _138_ _139_ VDD VSS gf180mcu_fd_sc_mcu9t5v0__aoi21_2
X_400_ _063_ _044_ _140_ VDD VSS gf180mcu_fd_sc_mcu9t5v0__nand2_2
X_401_ _201_ _219_ _220_ _221_ _141_ VDD VSS gf180mcu_fd_sc_mcu9t5v0__or4_2
X_402_ _095_ _038_ _070_ _071_ _141_ _142_ VDD VSS gf180mcu_fd_sc_mcu9t5v0__aoi221_4
X_403_ _217_ _045_ _211_ _143_ VDD VSS gf180mcu_fd_sc_mcu9t5v0__mux2_2
X_404_ _067_ _143_ _144_ VDD VSS gf180mcu_fd_sc_mcu9t5v0__nand2_2
X_405_ _140_ _142_ _144_ _145_ VDD VSS gf180mcu_fd_sc_mcu9t5v0__and3_2
X_406_ _057_ net36 _146_ VDD VSS gf180mcu_fd_sc_mcu9t5v0__nor2_2
X_407_ _059_ _139_ _145_ _146_ _012_ VDD VSS gf180mcu_fd_sc_mcu9t5v0__aoi211_2
X_408_ net37 _147_ VDD VSS gf180mcu_fd_sc_mcu9t5v0__clkinv_2
X_409_ _217_ _102_ _095_ _148_ VDD VSS gf180mcu_fd_sc_mcu9t5v0__oai21_2
X_410_ _063_ net6 _149_ VDD VSS gf180mcu_fd_sc_mcu9t5v0__nand2_2
X_411_ _148_ _149_ _042_ _150_ VDD VSS gf180mcu_fd_sc_mcu9t5v0__mux2_2
X_412_ _067_ _207_ _086_ _201_ _151_ VDD VSS gf180mcu_fd_sc_mcu9t5v0__aoi211_2
X_413_ _202_ _147_ _150_ _151_ _013_ VDD VSS gf180mcu_fd_sc_mcu9t5v0__aoi22_2
X_414_ _032_ _206_ _152_ VDD VSS gf180mcu_fd_sc_mcu9t5v0__nand2_2
X_415_ _036_ _152_ _223_ _153_ VDD VSS gf180mcu_fd_sc_mcu9t5v0__oai21_2
X_416_ _217_ _045_ _154_ VDD VSS gf180mcu_fd_sc_mcu9t5v0__nor2_2
X_417_ _216_ _231_ _155_ VDD VSS gf180mcu_fd_sc_mcu9t5v0__nand2_2
X_418_ _043_ _154_ _155_ _156_ VDD VSS gf180mcu_fd_sc_mcu9t5v0__oai21_2
X_419_ _153_ _156_ _063_ _157_ VDD VSS gf180mcu_fd_sc_mcu9t5v0__aoi21_2
X_420_ net38 _157_ _023_ _014_ VDD VSS gf180mcu_fd_sc_mcu9t5v0__mux2_2
X_421_ _209_ _203_ _158_ VDD VSS gf180mcu_fd_sc_mcu9t5v0__nand2_2
X_422_ _095_ _131_ _158_ _159_ VDD VSS gf180mcu_fd_sc_mcu9t5v0__oai21_2
X_423_ _208_ _239_ _160_ VDD VSS gf180mcu_fd_sc_mcu9t5v0__or2_2
X_424_ _152_ _160_ _158_ _222_ _161_ VDD VSS gf180mcu_fd_sc_mcu9t5v0__oai211_2
X_425_ _086_ _087_ _159_ _161_ _162_ VDD VSS gf180mcu_fd_sc_mcu9t5v0__oai31_2
X_426_ net39 _162_ _023_ _015_ VDD VSS gf180mcu_fd_sc_mcu9t5v0__mux2_2
X_427_ _063_ _155_ _163_ VDD VSS gf180mcu_fd_sc_mcu9t5v0__nand2_2
X_428_ _211_ _045_ _036_ _164_ VDD VSS gf180mcu_fd_sc_mcu9t5v0__aoi21_2
X_429_ _054_ _043_ _164_ _165_ VDD VSS gf180mcu_fd_sc_mcu9t5v0__or3_2
X_430_ _087_ _163_ _165_ _030_ _166_ VDD VSS gf180mcu_fd_sc_mcu9t5v0__oai211_2
X_431_ net41 _166_ _023_ _016_ VDD VSS gf180mcu_fd_sc_mcu9t5v0__mux2_2
X_432_ net42 _167_ VDD VSS gf180mcu_fd_sc_mcu9t5v0__clkinv_2
X_433_ _239_ _212_ net8 _168_ VDD VSS gf180mcu_fd_sc_mcu9t5v0__mux2_2
X_434_ _054_ _168_ _169_ VDD VSS gf180mcu_fd_sc_mcu9t5v0__nor2_2
X_435_ net8 _212_ _170_ VDD VSS gf180mcu_fd_sc_mcu9t5v0__or2_2
X_436_ _026_ _205_ _160_ _170_ _208_ _171_ VDD VSS gf180mcu_fd_sc_mcu9t5v0__oai32_2
X_437_ _169_ _171_ _203_ _172_ VDD VSS gf180mcu_fd_sc_mcu9t5v0__oai21_2
X_438_ _087_ _172_ _173_ VDD VSS gf180mcu_fd_sc_mcu9t5v0__nand2_2
X_439_ net7 _230_ _204_ _174_ VDD VSS gf180mcu_fd_sc_mcu9t5v0__mux2_2
X_440_ _095_ _174_ _175_ VDD VSS gf180mcu_fd_sc_mcu9t5v0__nand2_2
X_441_ _208_ _102_ _115_ _176_ VDD VSS gf180mcu_fd_sc_mcu9t5v0__or3_2
X_442_ _025_ _029_ _175_ _176_ _177_ VDD VSS gf180mcu_fd_sc_mcu9t5v0__aoi22_2
X_443_ _042_ _177_ _202_ _178_ VDD VSS gf180mcu_fd_sc_mcu9t5v0__aoi21_2
X_444_ _202_ _167_ _173_ _178_ _017_ VDD VSS gf180mcu_fd_sc_mcu9t5v0__aoi22_2
X_445_ _054_ _121_ _170_ _179_ VDD VSS gf180mcu_fd_sc_mcu9t5v0__and3_2
X_446_ _095_ _174_ _179_ _180_ VDD VSS gf180mcu_fd_sc_mcu9t5v0__aoi21_2
X_447_ _054_ _038_ _168_ _181_ VDD VSS gf180mcu_fd_sc_mcu9t5v0__nor3_2
X_448_ _043_ _171_ _181_ _182_ VDD VSS gf180mcu_fd_sc_mcu9t5v0__or3_2
X_449_ _086_ _087_ _180_ _182_ _183_ VDD VSS gf180mcu_fd_sc_mcu9t5v0__oai31_2
X_450_ net46 _183_ _023_ _018_ VDD VSS gf180mcu_fd_sc_mcu9t5v0__mux2_2
X_451_ _209_ _168_ _184_ VDD VSS gf180mcu_fd_sc_mcu9t5v0__nand2_2
X_452_ _176_ _184_ _185_ VDD VSS gf180mcu_fd_sc_mcu9t5v0__and2_2
X_453_ _203_ _171_ _186_ VDD VSS gf180mcu_fd_sc_mcu9t5v0__and2_2
X_454_ _086_ _087_ _185_ _186_ _169_ _043_ _187_ VDD VSS gf180mcu_fd_sc_mcu9t5v0__oai33_2
X_455_ net48 _187_ _023_ _019_ VDD VSS gf180mcu_fd_sc_mcu9t5v0__mux2_2
X_456_ _231_ _206_ _067_ _188_ VDD VSS gf180mcu_fd_sc_mcu9t5v0__mux2_2
X_457_ _095_ _206_ _189_ VDD VSS gf180mcu_fd_sc_mcu9t5v0__or2_2
X_458_ _142_ _148_ _189_ _190_ VDD VSS gf180mcu_fd_sc_mcu9t5v0__and3_2
X_459_ _057_ net49 _191_ VDD VSS gf180mcu_fd_sc_mcu9t5v0__nor2_2
X_460_ _059_ _188_ _190_ _191_ _020_ VDD VSS gf180mcu_fd_sc_mcu9t5v0__aoi211_2
X_461_ _216_ _217_ _170_ _095_ _192_ VDD VSS gf180mcu_fd_sc_mcu9t5v0__oai211_2
X_462_ _026_ _228_ _193_ VDD VSS gf180mcu_fd_sc_mcu9t5v0__and2_2
X_463_ _209_ _044_ _193_ _194_ VDD VSS gf180mcu_fd_sc_mcu9t5v0__or3_2
X_464_ _030_ _042_ _192_ _194_ _195_ VDD VSS gf180mcu_fd_sc_mcu9t5v0__and4_2
X_465_ _217_ _045_ _067_ _196_ VDD VSS gf180mcu_fd_sc_mcu9t5v0__mux2_2
X_466_ _211_ _137_ _203_ _197_ VDD VSS gf180mcu_fd_sc_mcu9t5v0__oai21_2
X_467_ _211_ _196_ _197_ _067_ _042_ _198_ VDD VSS gf180mcu_fd_sc_mcu9t5v0__aoi221_2
X_468_ _202_ net40 _199_ VDD VSS gf180mcu_fd_sc_mcu9t5v0__nand2_2
X_469_ _202_ _195_ _198_ _199_ _021_ VDD VSS gf180mcu_fd_sc_mcu9t5v0__oai31_2
X_470_ _227_ _228_ _229_ _230_ VDD VSS gf180mcu_fd_sc_mcu9t5v0__addh_2
X_471_ _227_ _228_ _231_ _232_ VDD VSS gf180mcu_fd_sc_mcu9t5v0__addh_2
X_472_ _227_ net7 _233_ _234_ VDD VSS gf180mcu_fd_sc_mcu9t5v0__addh_2
X_473_ _227_ net7 _235_ _236_ VDD VSS gf180mcu_fd_sc_mcu9t5v0__addh_1
X_474_ net6 _228_ _237_ _238_ VDD VSS gf180mcu_fd_sc_mcu9t5v0__addh_1
X_475_ net6 net7 _239_ _240_ VDD VSS gf180mcu_fd_sc_mcu9t5v0__addh_4
X_476_ net33 net27 VDD VSS gf180mcu_fd_sc_mcu9t5v0__dlyb_2
X_477_ net30 net28 VDD VSS gf180mcu_fd_sc_mcu9t5v0__dlyb_2
X_478_ net30 net29 VDD VSS gf180mcu_fd_sc_mcu9t5v0__dlyb_2
X_479_ net23 net31 VDD VSS gf180mcu_fd_sc_mcu9t5v0__dlyb_2
X_480_ net24 net34 VDD VSS gf180mcu_fd_sc_mcu9t5v0__dlyb_2
X_481_ net49 net43 VDD VSS gf180mcu_fd_sc_mcu9t5v0__dlyb_2
X_482_ net46 net44 VDD VSS gf180mcu_fd_sc_mcu9t5v0__dlyb_2
X_483_ net46 net45 VDD VSS gf180mcu_fd_sc_mcu9t5v0__dlyb_2
X_484_ net39 net47 VDD VSS gf180mcu_fd_sc_mcu9t5v0__dlyb_2
X_485_ net40 net50 VDD VSS gf180mcu_fd_sc_mcu9t5v0__dlyb_2
Xcosine_out\[0\]$_DFFE_PN0P_ _000_ net1 clknet_1_0__leaf_clk
+ net19 VDD VSS gf180mcu_fd_sc_mcu9t5v0__dffrnq_2
Xcosine_out\[10\]$_DFFE_PN0P_ _001_ net1 clknet_1_1__leaf_clk
+ net20 VDD VSS gf180mcu_fd_sc_mcu9t5v0__dffrnq_2
Xcosine_out\[11\]$_DFFE_PN0P_ _002_ net1 clknet_1_1__leaf_clk
+ net21 VDD VSS gf180mcu_fd_sc_mcu9t5v0__dffrnq_2
Xcosine_out\[12\]$_DFFE_PN0P_ _003_ net1 clknet_1_1__leaf_clk
+ net22 VDD VSS gf180mcu_fd_sc_mcu9t5v0__dffrnq_2
Xcosine_out\[13\]$_DFFE_PN0P_ _004_ net1 clknet_1_1__leaf_clk
+ net23 VDD VSS gf180mcu_fd_sc_mcu9t5v0__dffrnq_2
Xcosine_out\[15\]$_DFFE_PN0P_ _005_ net1 clknet_1_1__leaf_clk
+ net25 VDD VSS gf180mcu_fd_sc_mcu9t5v0__dffrnq_2
Xcosine_out\[1\]$_DFFE_PN0P_ _006_ net1 clknet_1_1__leaf_clk
+ net26 VDD VSS gf180mcu_fd_sc_mcu9t5v0__dffrnq_2
Xcosine_out\[2\]$_DFFE_PN0P_ _007_ net1 clknet_1_1__leaf_clk
+ net33 VDD VSS gf180mcu_fd_sc_mcu9t5v0__dffrnq_2
Xcosine_out\[4\]$_DFFE_PN0P_ _008_ net1 clknet_1_1__leaf_clk
+ net30 VDD VSS gf180mcu_fd_sc_mcu9t5v0__dffrnq_4
Xcosine_out\[7\]$_DFFE_PN0P_ _009_ net1 clknet_1_1__leaf_clk
+ net32 VDD VSS gf180mcu_fd_sc_mcu9t5v0__dffrnq_2
Xcosine_out\[9\]$_DFFE_PN0P_ _010_ net1 clknet_1_1__leaf_clk
+ net24 VDD VSS gf180mcu_fd_sc_mcu9t5v0__dffrnq_2
Xsine_out\[0\]$_DFFE_PN0P_ _011_ net1 clknet_1_0__leaf_clk
+ net35 VDD VSS gf180mcu_fd_sc_mcu9t5v0__dffrnq_2
Xsine_out\[10\]$_DFFE_PN0P_ _012_ net1 clknet_1_1__leaf_clk
+ net36 VDD VSS gf180mcu_fd_sc_mcu9t5v0__dffrnq_2
Xsine_out\[11\]$_DFFE_PN0P_ _013_ net1 clknet_1_0__leaf_clk
+ net37 VDD VSS gf180mcu_fd_sc_mcu9t5v0__dffrnq_2
Xsine_out\[12\]$_DFFE_PN0P_ _014_ net1 clknet_1_0__leaf_clk
+ net38 VDD VSS gf180mcu_fd_sc_mcu9t5v0__dffrnq_2
Xsine_out\[13\]$_DFFE_PN0P_ _015_ net1 clknet_1_0__leaf_clk
+ net39 VDD VSS gf180mcu_fd_sc_mcu9t5v0__dffrnq_2
Xsine_out\[15\]$_DFFE_PN0P_ _016_ net1 clknet_1_0__leaf_clk
+ net41 VDD VSS gf180mcu_fd_sc_mcu9t5v0__dffrnq_2
Xsine_out\[1\]$_DFFE_PN0P_ _017_ net1 clknet_1_0__leaf_clk
+ net42 VDD VSS gf180mcu_fd_sc_mcu9t5v0__dffrnq_2
Xsine_out\[5\]$_DFFE_PN0P_ _018_ net1 clknet_1_0__leaf_clk
+ net46 VDD VSS gf180mcu_fd_sc_mcu9t5v0__dffrnq_2
Xsine_out\[7\]$_DFFE_PN0P_ _019_ net1 clknet_1_0__leaf_clk
+ net48 VDD VSS gf180mcu_fd_sc_mcu9t5v0__dffrnq_2
Xsine_out\[8\]$_DFFE_PN0P_ _020_ net1 clknet_1_1__leaf_clk
+ net49 VDD VSS gf180mcu_fd_sc_mcu9t5v0__dffrnq_4
Xsine_out\[9\]$_DFFE_PN0P_ _021_ net1 clknet_1_0__leaf_clk
+ net40 VDD VSS gf180mcu_fd_sc_mcu9t5v0__dffrnq_4
Xvalid_out$_DFF_PN0_ net2 net1 clknet_1_1__leaf_clk net51
+ VDD VSS gf180mcu_fd_sc_mcu9t5v0__dffrnq_2
Xhold1 net52 net1 VDD VSS gf180mcu_fd_sc_mcu9t5v0__clkbuf_12
XPHY_EDGE_ROW_0_Right_0 VDD VSS gf180mcu_fd_sc_mcu9t5v0__endcap
XPHY_EDGE_ROW_1_Right_1 VDD VSS gf180mcu_fd_sc_mcu9t5v0__endcap
XPHY_EDGE_ROW_2_Right_2 VDD VSS gf180mcu_fd_sc_mcu9t5v0__endcap
XPHY_EDGE_ROW_3_Right_3 VDD VSS gf180mcu_fd_sc_mcu9t5v0__endcap
XPHY_EDGE_ROW_4_Right_4 VDD VSS gf180mcu_fd_sc_mcu9t5v0__endcap
XPHY_EDGE_ROW_5_Right_5 VDD VSS gf180mcu_fd_sc_mcu9t5v0__endcap
XPHY_EDGE_ROW_6_Right_6 VDD VSS gf180mcu_fd_sc_mcu9t5v0__endcap
XPHY_EDGE_ROW_7_Right_7 VDD VSS gf180mcu_fd_sc_mcu9t5v0__endcap
XPHY_EDGE_ROW_8_Right_8 VDD VSS gf180mcu_fd_sc_mcu9t5v0__endcap
XPHY_EDGE_ROW_9_Right_9 VDD VSS gf180mcu_fd_sc_mcu9t5v0__endcap
XPHY_EDGE_ROW_10_Right_10 VDD VSS gf180mcu_fd_sc_mcu9t5v0__endcap
XPHY_EDGE_ROW_11_Right_11 VDD VSS gf180mcu_fd_sc_mcu9t5v0__endcap
XPHY_EDGE_ROW_12_Right_12 VDD VSS gf180mcu_fd_sc_mcu9t5v0__endcap
XPHY_EDGE_ROW_13_Right_13 VDD VSS gf180mcu_fd_sc_mcu9t5v0__endcap
XPHY_EDGE_ROW_14_Right_14 VDD VSS gf180mcu_fd_sc_mcu9t5v0__endcap
XPHY_EDGE_ROW_15_Right_15 VDD VSS gf180mcu_fd_sc_mcu9t5v0__endcap
XPHY_EDGE_ROW_16_Right_16 VDD VSS gf180mcu_fd_sc_mcu9t5v0__endcap
XPHY_EDGE_ROW_17_Right_17 VDD VSS gf180mcu_fd_sc_mcu9t5v0__endcap
XPHY_EDGE_ROW_18_Right_18 VDD VSS gf180mcu_fd_sc_mcu9t5v0__endcap
XPHY_EDGE_ROW_19_Right_19 VDD VSS gf180mcu_fd_sc_mcu9t5v0__endcap
XPHY_EDGE_ROW_20_Right_20 VDD VSS gf180mcu_fd_sc_mcu9t5v0__endcap
XPHY_EDGE_ROW_21_Right_21 VDD VSS gf180mcu_fd_sc_mcu9t5v0__endcap
XPHY_EDGE_ROW_22_Right_22 VDD VSS gf180mcu_fd_sc_mcu9t5v0__endcap
XPHY_EDGE_ROW_23_Right_23 VDD VSS gf180mcu_fd_sc_mcu9t5v0__endcap
XPHY_EDGE_ROW_24_Right_24 VDD VSS gf180mcu_fd_sc_mcu9t5v0__endcap
XPHY_EDGE_ROW_25_Right_25 VDD VSS gf180mcu_fd_sc_mcu9t5v0__endcap
XPHY_EDGE_ROW_26_Right_26 VDD VSS gf180mcu_fd_sc_mcu9t5v0__endcap
XPHY_EDGE_ROW_27_Right_27 VDD VSS gf180mcu_fd_sc_mcu9t5v0__endcap
XPHY_EDGE_ROW_28_Right_28 VDD VSS gf180mcu_fd_sc_mcu9t5v0__endcap
XPHY_EDGE_ROW_29_Right_29 VDD VSS gf180mcu_fd_sc_mcu9t5v0__endcap
XPHY_EDGE_ROW_30_Right_30 VDD VSS gf180mcu_fd_sc_mcu9t5v0__endcap
XPHY_EDGE_ROW_31_Right_31 VDD VSS gf180mcu_fd_sc_mcu9t5v0__endcap
XPHY_EDGE_ROW_32_Right_32 VDD VSS gf180mcu_fd_sc_mcu9t5v0__endcap
XPHY_EDGE_ROW_33_Right_33 VDD VSS gf180mcu_fd_sc_mcu9t5v0__endcap
XPHY_EDGE_ROW_34_Right_34 VDD VSS gf180mcu_fd_sc_mcu9t5v0__endcap
XPHY_EDGE_ROW_35_Right_35 VDD VSS gf180mcu_fd_sc_mcu9t5v0__endcap
XPHY_EDGE_ROW_36_Right_36 VDD VSS gf180mcu_fd_sc_mcu9t5v0__endcap
XPHY_EDGE_ROW_37_Right_37 VDD VSS gf180mcu_fd_sc_mcu9t5v0__endcap
XPHY_EDGE_ROW_38_Right_38 VDD VSS gf180mcu_fd_sc_mcu9t5v0__endcap
XPHY_EDGE_ROW_39_Right_39 VDD VSS gf180mcu_fd_sc_mcu9t5v0__endcap
XPHY_EDGE_ROW_40_Right_40 VDD VSS gf180mcu_fd_sc_mcu9t5v0__endcap
XPHY_EDGE_ROW_41_Right_41 VDD VSS gf180mcu_fd_sc_mcu9t5v0__endcap
XPHY_EDGE_ROW_42_Right_42 VDD VSS gf180mcu_fd_sc_mcu9t5v0__endcap
XPHY_EDGE_ROW_43_Right_43 VDD VSS gf180mcu_fd_sc_mcu9t5v0__endcap
XPHY_EDGE_ROW_44_Right_44 VDD VSS gf180mcu_fd_sc_mcu9t5v0__endcap
XPHY_EDGE_ROW_45_Right_45 VDD VSS gf180mcu_fd_sc_mcu9t5v0__endcap
XPHY_EDGE_ROW_46_Right_46 VDD VSS gf180mcu_fd_sc_mcu9t5v0__endcap
XPHY_EDGE_ROW_47_Right_47 VDD VSS gf180mcu_fd_sc_mcu9t5v0__endcap
XPHY_EDGE_ROW_48_Right_48 VDD VSS gf180mcu_fd_sc_mcu9t5v0__endcap
XPHY_EDGE_ROW_49_Right_49 VDD VSS gf180mcu_fd_sc_mcu9t5v0__endcap
XPHY_EDGE_ROW_50_Right_50 VDD VSS gf180mcu_fd_sc_mcu9t5v0__endcap
XPHY_EDGE_ROW_51_Right_51 VDD VSS gf180mcu_fd_sc_mcu9t5v0__endcap
XPHY_EDGE_ROW_52_Right_52 VDD VSS gf180mcu_fd_sc_mcu9t5v0__endcap
XPHY_EDGE_ROW_53_Right_53 VDD VSS gf180mcu_fd_sc_mcu9t5v0__endcap
XPHY_EDGE_ROW_54_Right_54 VDD VSS gf180mcu_fd_sc_mcu9t5v0__endcap
XPHY_EDGE_ROW_55_Right_55 VDD VSS gf180mcu_fd_sc_mcu9t5v0__endcap
XPHY_EDGE_ROW_56_Right_56 VDD VSS gf180mcu_fd_sc_mcu9t5v0__endcap
XPHY_EDGE_ROW_57_Right_57 VDD VSS gf180mcu_fd_sc_mcu9t5v0__endcap
XPHY_EDGE_ROW_58_Right_58 VDD VSS gf180mcu_fd_sc_mcu9t5v0__endcap
XPHY_EDGE_ROW_59_Right_59 VDD VSS gf180mcu_fd_sc_mcu9t5v0__endcap
XPHY_EDGE_ROW_60_Right_60 VDD VSS gf180mcu_fd_sc_mcu9t5v0__endcap
XPHY_EDGE_ROW_61_Right_61 VDD VSS gf180mcu_fd_sc_mcu9t5v0__endcap
XPHY_EDGE_ROW_62_Right_62 VDD VSS gf180mcu_fd_sc_mcu9t5v0__endcap
XPHY_EDGE_ROW_63_Right_63 VDD VSS gf180mcu_fd_sc_mcu9t5v0__endcap
XPHY_EDGE_ROW_64_Right_64 VDD VSS gf180mcu_fd_sc_mcu9t5v0__endcap
XPHY_EDGE_ROW_65_Right_65 VDD VSS gf180mcu_fd_sc_mcu9t5v0__endcap
XPHY_EDGE_ROW_66_Right_66 VDD VSS gf180mcu_fd_sc_mcu9t5v0__endcap
XPHY_EDGE_ROW_67_Right_67 VDD VSS gf180mcu_fd_sc_mcu9t5v0__endcap
XPHY_EDGE_ROW_68_Right_68 VDD VSS gf180mcu_fd_sc_mcu9t5v0__endcap
XPHY_EDGE_ROW_69_Right_69 VDD VSS gf180mcu_fd_sc_mcu9t5v0__endcap
XPHY_EDGE_ROW_70_Right_70 VDD VSS gf180mcu_fd_sc_mcu9t5v0__endcap
XPHY_EDGE_ROW_71_Right_71 VDD VSS gf180mcu_fd_sc_mcu9t5v0__endcap
XPHY_EDGE_ROW_72_Right_72 VDD VSS gf180mcu_fd_sc_mcu9t5v0__endcap
XPHY_EDGE_ROW_73_Right_73 VDD VSS gf180mcu_fd_sc_mcu9t5v0__endcap
XPHY_EDGE_ROW_74_Right_74 VDD VSS gf180mcu_fd_sc_mcu9t5v0__endcap
XPHY_EDGE_ROW_75_Right_75 VDD VSS gf180mcu_fd_sc_mcu9t5v0__endcap
XPHY_EDGE_ROW_76_Right_76 VDD VSS gf180mcu_fd_sc_mcu9t5v0__endcap
XPHY_EDGE_ROW_77_Right_77 VDD VSS gf180mcu_fd_sc_mcu9t5v0__endcap
XPHY_EDGE_ROW_78_Right_78 VDD VSS gf180mcu_fd_sc_mcu9t5v0__endcap
XPHY_EDGE_ROW_79_Right_79 VDD VSS gf180mcu_fd_sc_mcu9t5v0__endcap
XPHY_EDGE_ROW_80_Right_80 VDD VSS gf180mcu_fd_sc_mcu9t5v0__endcap
XPHY_EDGE_ROW_81_Right_81 VDD VSS gf180mcu_fd_sc_mcu9t5v0__endcap
XPHY_EDGE_ROW_82_Right_82 VDD VSS gf180mcu_fd_sc_mcu9t5v0__endcap
XPHY_EDGE_ROW_83_Right_83 VDD VSS gf180mcu_fd_sc_mcu9t5v0__endcap
XPHY_EDGE_ROW_84_Right_84 VDD VSS gf180mcu_fd_sc_mcu9t5v0__endcap
XPHY_EDGE_ROW_85_Right_85 VDD VSS gf180mcu_fd_sc_mcu9t5v0__endcap
XPHY_EDGE_ROW_86_Right_86 VDD VSS gf180mcu_fd_sc_mcu9t5v0__endcap
XPHY_EDGE_ROW_87_Right_87 VDD VSS gf180mcu_fd_sc_mcu9t5v0__endcap
XPHY_EDGE_ROW_88_Right_88 VDD VSS gf180mcu_fd_sc_mcu9t5v0__endcap
XPHY_EDGE_ROW_89_Right_89 VDD VSS gf180mcu_fd_sc_mcu9t5v0__endcap
XPHY_EDGE_ROW_90_Right_90 VDD VSS gf180mcu_fd_sc_mcu9t5v0__endcap
XPHY_EDGE_ROW_91_Right_91 VDD VSS gf180mcu_fd_sc_mcu9t5v0__endcap
XPHY_EDGE_ROW_92_Right_92 VDD VSS gf180mcu_fd_sc_mcu9t5v0__endcap
XPHY_EDGE_ROW_93_Right_93 VDD VSS gf180mcu_fd_sc_mcu9t5v0__endcap
XPHY_EDGE_ROW_94_Right_94 VDD VSS gf180mcu_fd_sc_mcu9t5v0__endcap
XPHY_EDGE_ROW_95_Right_95 VDD VSS gf180mcu_fd_sc_mcu9t5v0__endcap
XPHY_EDGE_ROW_96_Right_96 VDD VSS gf180mcu_fd_sc_mcu9t5v0__endcap
XPHY_EDGE_ROW_97_Right_97 VDD VSS gf180mcu_fd_sc_mcu9t5v0__endcap
XPHY_EDGE_ROW_98_Right_98 VDD VSS gf180mcu_fd_sc_mcu9t5v0__endcap
XPHY_EDGE_ROW_99_Right_99 VDD VSS gf180mcu_fd_sc_mcu9t5v0__endcap
XPHY_EDGE_ROW_100_Right_100 VDD VSS gf180mcu_fd_sc_mcu9t5v0__endcap
XPHY_EDGE_ROW_101_Right_101 VDD VSS gf180mcu_fd_sc_mcu9t5v0__endcap
XPHY_EDGE_ROW_102_Right_102 VDD VSS gf180mcu_fd_sc_mcu9t5v0__endcap
XPHY_EDGE_ROW_103_Right_103 VDD VSS gf180mcu_fd_sc_mcu9t5v0__endcap
XPHY_EDGE_ROW_104_Right_104 VDD VSS gf180mcu_fd_sc_mcu9t5v0__endcap
XPHY_EDGE_ROW_105_Right_105 VDD VSS gf180mcu_fd_sc_mcu9t5v0__endcap
XPHY_EDGE_ROW_106_Right_106 VDD VSS gf180mcu_fd_sc_mcu9t5v0__endcap
XPHY_EDGE_ROW_107_Right_107 VDD VSS gf180mcu_fd_sc_mcu9t5v0__endcap
XPHY_EDGE_ROW_108_Right_108 VDD VSS gf180mcu_fd_sc_mcu9t5v0__endcap
XPHY_EDGE_ROW_109_Right_109 VDD VSS gf180mcu_fd_sc_mcu9t5v0__endcap
XPHY_EDGE_ROW_110_Right_110 VDD VSS gf180mcu_fd_sc_mcu9t5v0__endcap
XPHY_EDGE_ROW_111_Right_111 VDD VSS gf180mcu_fd_sc_mcu9t5v0__endcap
XPHY_EDGE_ROW_112_Right_112 VDD VSS gf180mcu_fd_sc_mcu9t5v0__endcap
XPHY_EDGE_ROW_113_Right_113 VDD VSS gf180mcu_fd_sc_mcu9t5v0__endcap
XPHY_EDGE_ROW_114_Right_114 VDD VSS gf180mcu_fd_sc_mcu9t5v0__endcap
XPHY_EDGE_ROW_115_Right_115 VDD VSS gf180mcu_fd_sc_mcu9t5v0__endcap
XPHY_EDGE_ROW_116_Right_116 VDD VSS gf180mcu_fd_sc_mcu9t5v0__endcap
XPHY_EDGE_ROW_117_Right_117 VDD VSS gf180mcu_fd_sc_mcu9t5v0__endcap
XPHY_EDGE_ROW_118_Right_118 VDD VSS gf180mcu_fd_sc_mcu9t5v0__endcap
XPHY_EDGE_ROW_119_Right_119 VDD VSS gf180mcu_fd_sc_mcu9t5v0__endcap
XPHY_EDGE_ROW_120_Right_120 VDD VSS gf180mcu_fd_sc_mcu9t5v0__endcap
XPHY_EDGE_ROW_121_Right_121 VDD VSS gf180mcu_fd_sc_mcu9t5v0__endcap
XPHY_EDGE_ROW_122_Right_122 VDD VSS gf180mcu_fd_sc_mcu9t5v0__endcap
XPHY_EDGE_ROW_123_Right_123 VDD VSS gf180mcu_fd_sc_mcu9t5v0__endcap
XPHY_EDGE_ROW_124_Right_124 VDD VSS gf180mcu_fd_sc_mcu9t5v0__endcap
XPHY_EDGE_ROW_125_Right_125 VDD VSS gf180mcu_fd_sc_mcu9t5v0__endcap
XPHY_EDGE_ROW_126_Right_126 VDD VSS gf180mcu_fd_sc_mcu9t5v0__endcap
XPHY_EDGE_ROW_127_Right_127 VDD VSS gf180mcu_fd_sc_mcu9t5v0__endcap
XPHY_EDGE_ROW_128_Right_128 VDD VSS gf180mcu_fd_sc_mcu9t5v0__endcap
XPHY_EDGE_ROW_129_Right_129 VDD VSS gf180mcu_fd_sc_mcu9t5v0__endcap
XPHY_EDGE_ROW_130_Right_130 VDD VSS gf180mcu_fd_sc_mcu9t5v0__endcap
XPHY_EDGE_ROW_131_Right_131 VDD VSS gf180mcu_fd_sc_mcu9t5v0__endcap
XPHY_EDGE_ROW_132_Right_132 VDD VSS gf180mcu_fd_sc_mcu9t5v0__endcap
XPHY_EDGE_ROW_133_Right_133 VDD VSS gf180mcu_fd_sc_mcu9t5v0__endcap
XPHY_EDGE_ROW_134_Right_134 VDD VSS gf180mcu_fd_sc_mcu9t5v0__endcap
XPHY_EDGE_ROW_135_Right_135 VDD VSS gf180mcu_fd_sc_mcu9t5v0__endcap
XPHY_EDGE_ROW_136_Right_136 VDD VSS gf180mcu_fd_sc_mcu9t5v0__endcap
XPHY_EDGE_ROW_137_Right_137 VDD VSS gf180mcu_fd_sc_mcu9t5v0__endcap
XPHY_EDGE_ROW_138_Right_138 VDD VSS gf180mcu_fd_sc_mcu9t5v0__endcap
XPHY_EDGE_ROW_139_Right_139 VDD VSS gf180mcu_fd_sc_mcu9t5v0__endcap
XPHY_EDGE_ROW_140_Right_140 VDD VSS gf180mcu_fd_sc_mcu9t5v0__endcap
XPHY_EDGE_ROW_141_Right_141 VDD VSS gf180mcu_fd_sc_mcu9t5v0__endcap
XPHY_EDGE_ROW_142_Right_142 VDD VSS gf180mcu_fd_sc_mcu9t5v0__endcap
XPHY_EDGE_ROW_143_Right_143 VDD VSS gf180mcu_fd_sc_mcu9t5v0__endcap
XPHY_EDGE_ROW_144_Right_144 VDD VSS gf180mcu_fd_sc_mcu9t5v0__endcap
XPHY_EDGE_ROW_145_Right_145 VDD VSS gf180mcu_fd_sc_mcu9t5v0__endcap