
* cell sine_cosine_generator
* pin phase_in[12]
* pin phase_in[13]
* pin sine_out[10]
* pin cosine_out[1]
* pin cosine_out[7]
* pin sine_out[8]
* pin sine_out[2]
* pin phase_in[15]
* pin phase_in[8]
* pin phase_in[6]
* pin phase_in[9]
* pin phase_in[11]
* pin phase_in[3]
* pin phase_in[10]
* pin phase_in[5]
* pin phase_in[1]
* pin phase_in[4]
* pin enable
* pin phase_in[0]
* pin phase_in[2]
* pin phase_in[7]
* pin cosine_out[11]
* pin cosine_out[9]
* pin cosine_out[14]
* pin sine_out[7]
* pin phase_in[14]
* pin cosine_out[10]
* pin clk
* pin cosine_out[13]
* pin cosine_out[6]
* pin cosine_out[12]
* pin cosine_out[8]
* pin cosine_out[2]
* pin sine_out[14]
* pin cosine_out[4]
* pin cosine_out[15]
* pin cosine_out[3]
* pin cosine_out[5]
* pin sine_out[11]
* pin rst_n
* pin sine_out[9]
* pin valid_out
* pin sine_out[5]
* pin sine_out[4]
* pin sine_out[0]
* pin sine_out[1]
* pin sine_out[3]
* pin sine_out[13]
* pin sine_out[6]
* pin sine_out[15]
* pin cosine_out[0]
* pin sine_out[12]
* pin NWELL
* pin PWELL,gf180mcu_gnd
.SUBCKT sine_cosine_generator 1 2 3 4 5 6 7 17 26 27 28 29 76 77 78 79 81 93
+ 102 103 104 143 154 155 163 181 190 210 216 217 250 267 287 305 306 307 308
+ 309 320 321 324 325 331 333 334 335 337 338 339 341 342 343 344 345
* net 1 phase_in[12]
* net 2 phase_in[13]
* net 3 sine_out[10]
* net 4 cosine_out[1]
* net 5 cosine_out[7]
* net 6 sine_out[8]
* net 7 sine_out[2]
* net 17 phase_in[15]
* net 26 phase_in[8]
* net 27 phase_in[6]
* net 28 phase_in[9]
* net 29 phase_in[11]
* net 76 phase_in[3]
* net 77 phase_in[10]
* net 78 phase_in[5]
* net 79 phase_in[1]
* net 81 phase_in[4]
* net 93 enable
* net 102 phase_in[0]
* net 103 phase_in[2]
* net 104 phase_in[7]
* net 143 cosine_out[11]
* net 154 cosine_out[9]
* net 155 cosine_out[14]
* net 163 sine_out[7]
* net 181 phase_in[14]
* net 190 cosine_out[10]
* net 210 clk
* net 216 cosine_out[13]
* net 217 cosine_out[6]
* net 250 cosine_out[12]
* net 267 cosine_out[8]
* net 287 cosine_out[2]
* net 305 sine_out[14]
* net 306 cosine_out[4]
* net 307 cosine_out[15]
* net 308 cosine_out[3]
* net 309 cosine_out[5]
* net 320 sine_out[11]
* net 321 rst_n
* net 324 sine_out[9]
* net 325 valid_out
* net 331 sine_out[5]
* net 333 sine_out[4]
* net 334 sine_out[0]
* net 335 sine_out[1]
* net 337 sine_out[3]
* net 338 sine_out[13]
* net 339 sine_out[6]
* net 341 sine_out[15]
* net 342 cosine_out[0]
* net 343 sine_out[12]
* net 344 NWELL
* net 345 PWELL,gf180mcu_gnd
* cell instance $2 r0 *1 684.32,5.04
X$2 345 1 18 344 gf180mcu_fd_sc_mcu9t5v0__buf_8
* cell instance $7 r0 *1 701.68,5.04
X$7 345 2 14 344 gf180mcu_fd_sc_mcu9t5v0__clkbuf_8
* cell instance $11 r0 *1 781.76,5.04
X$11 11 344 345 3 gf180mcu_fd_sc_mcu9t5v0__dlyb_2
* cell instance $14 r0 *1 790.16,5.04
X$14 8 344 345 4 gf180mcu_fd_sc_mcu9t5v0__dlyb_2
* cell instance $18 m0 *1 806.4,15.12
X$18 12 344 345 5 gf180mcu_fd_sc_mcu9t5v0__dlyb_2
* cell instance $22 r0 *1 809.2,5.04
X$22 10 344 345 6 gf180mcu_fd_sc_mcu9t5v0__dlyb_2
* cell instance $27 r0 *1 820.96,5.04
X$27 9 344 345 7 gf180mcu_fd_sc_mcu9t5v0__dlyb_2
* cell instance $30 r0 *1 775.04,650.16
X$30 345 15 8 23 65 344 gf180mcu_fd_sc_mcu9t5v0__dffrnq_2
* cell instance $33 r0 *1 785.68,660.24
X$33 345 344 45 42 8 gf180mcu_fd_sc_mcu9t5v0__nor2_2
* cell instance $37 m0 *1 814.8,15.12
X$37 10 344 345 9 gf180mcu_fd_sc_mcu9t5v0__dlyb_2
* cell instance $42 r0 *1 800.24,670.32
X$42 345 15 10 23 96 344 gf180mcu_fd_sc_mcu9t5v0__dffrnq_4
* cell instance $45 r0 *1 794.64,670.32
X$45 345 344 95 42 10 gf180mcu_fd_sc_mcu9t5v0__nor2_2
* cell instance $50 m0 *1 770.56,660.24
X$50 345 15 11 23 64 344 gf180mcu_fd_sc_mcu9t5v0__dffrnq_2
* cell instance $53 m0 *1 783.44,670.32
X$53 345 344 69 42 11 gf180mcu_fd_sc_mcu9t5v0__nor2_2
* cell instance $56 r0 *1 794.08,650.16
X$56 345 15 12 23 66 344 gf180mcu_fd_sc_mcu9t5v0__dffrnq_2
* cell instance $58 r0 *1 801.36,660.24
X$58 345 344 44 42 12 gf180mcu_fd_sc_mcu9t5v0__nor2_2
* cell instance $62 m0 *1 698.32,650.16
X$62 13 345 344 16 14 gf180mcu_fd_sc_mcu9t5v0__addh_1
* cell instance $64 r0 *1 695.52,650.16
X$64 345 344 13 33 gf180mcu_fd_sc_mcu9t5v0__clkinv_2
* cell instance $67 m0 *1 701.68,660.24
X$67 345 19 347 16 14 344 gf180mcu_fd_sc_mcu9t5v0__addh_2
* cell instance $70 r0 *1 715.12,660.24
X$70 345 344 34 14 18 35 gf180mcu_fd_sc_mcu9t5v0__mux2_2
* cell instance $72 m0 *1 735.84,660.24
X$72 345 344 20 14 18 38 gf180mcu_fd_sc_mcu9t5v0__mux2_2
* cell instance $74 m0 *1 717.92,680.4
X$74 345 344 14 55 gf180mcu_fd_sc_mcu9t5v0__inv_2
* cell instance $76 m0 *1 735.28,680.4
X$76 345 62 344 73 14 89 gf180mcu_fd_sc_mcu9t5v0__aoi21_2
* cell instance $79 m0 *1 714.56,660.24
X$79 345 18 14 37 344 gf180mcu_fd_sc_mcu9t5v0__addh_4
* cell instance $82 m0 *1 698.32,670.32
X$82 345 344 52 53 39 14 gf180mcu_fd_sc_mcu9t5v0__mux2_2
* cell instance $84 r0 *1 730.24,670.32
X$84 344 38 14 345 61 gf180mcu_fd_sc_mcu9t5v0__and2_2
* cell instance $86 m0 *1 730.24,670.32
X$86 345 344 60 36 38 14 gf180mcu_fd_sc_mcu9t5v0__mux2_2
* cell instance $95 m0 *1 800.8,761.04
X$95 345 15 266 23 268 344 gf180mcu_fd_sc_mcu9t5v0__dffrnq_2
* cell instance $97 m0 *1 809.2,791.28
X$97 345 15 319 23 120 344 gf180mcu_fd_sc_mcu9t5v0__dffrnq_2
* cell instance $100 r0 *1 799.12,740.88
X$100 345 15 233 23 235 344 gf180mcu_fd_sc_mcu9t5v0__dffrnq_2
* cell instance $102 r0 *1 633.36,710.64
X$102 345 15 165 228 179 344 gf180mcu_fd_sc_mcu9t5v0__dffrnq_2
* cell instance $104 m0 *1 801.92,720.72
X$104 345 15 189 23 191 344 gf180mcu_fd_sc_mcu9t5v0__dffrnq_2
* cell instance $106 r0 *1 804.16,700.56
X$106 345 15 153 23 157 344 gf180mcu_fd_sc_mcu9t5v0__dffrnq_2
* cell instance $109 r0 *1 796.32,690.48
X$109 345 15 123 23 144 344 gf180mcu_fd_sc_mcu9t5v0__dffrnq_2
* cell instance $111 r0 *1 655.2,791.28
X$111 345 15 328 228 315 344 gf180mcu_fd_sc_mcu9t5v0__dffrnq_2
* cell instance $114 m0 *1 636.72,791.28
X$114 345 15 310 228 314 344 gf180mcu_fd_sc_mcu9t5v0__dffrnq_2
* cell instance $116 r0 *1 707.84,791.28
X$116 345 15 330 228 318 344 gf180mcu_fd_sc_mcu9t5v0__dffrnq_2
* cell instance $119 m0 *1 668.64,781.2
X$119 345 15 299 228 277 344 gf180mcu_fd_sc_mcu9t5v0__dffrnq_2
* cell instance $121 r0 *1 679.84,791.28
X$121 345 15 329 228 316 344 gf180mcu_fd_sc_mcu9t5v0__dffrnq_2
* cell instance $124 m0 *1 752.64,781.2
X$124 345 15 304 228 295 344 gf180mcu_fd_sc_mcu9t5v0__dffrnq_2
* cell instance $126 r0 *1 766.08,771.12
X$126 345 15 285 23 284 344 gf180mcu_fd_sc_mcu9t5v0__dffrnq_2
* cell instance $128 r0 *1 700,781.2
X$128 345 15 301 228 300 344 gf180mcu_fd_sc_mcu9t5v0__dffrnq_2
* cell instance $130 r0 *1 801.36,730.8
X$130 345 15 215 23 219 344 gf180mcu_fd_sc_mcu9t5v0__dffrnq_2
* cell instance $136 m0 *1 640.08,771.12
X$136 345 15 275 228 290 344 gf180mcu_fd_sc_mcu9t5v0__dffrnq_2
* cell instance $141 r0 *1 785.12,771.12
X$141 345 15 286 23 265 344 gf180mcu_fd_sc_mcu9t5v0__dffrnq_4
* cell instance $144 r0 *1 815.36,791.28
X$144 345 327 15 344 gf180mcu_fd_sc_mcu9t5v0__clkbuf_12
* cell instance $146 m0 *1 728,781.2
X$146 345 15 303 228 281 344 gf180mcu_fd_sc_mcu9t5v0__dffrnq_4
* cell instance $169 r0 *1 700.56,670.32
X$169 345 54 53 16 55 344 gf180mcu_fd_sc_mcu9t5v0__addh_2
* cell instance $171 m0 *1 706.16,680.4
X$171 345 92 346 16 55 344 gf180mcu_fd_sc_mcu9t5v0__addh_2
* cell instance $175 r0 *1 705.6,650.16
X$175 345 344 18 16 gf180mcu_fd_sc_mcu9t5v0__clkinv_2
* cell instance $178 m0 *1 11.76,660.24
X$178 345 344 17 24 gf180mcu_fd_sc_mcu9t5v0__buf_4
* cell instance $181 m0 *1 689.92,670.32
X$181 345 344 75 18 38 21 gf180mcu_fd_sc_mcu9t5v0__mux2_2
* cell instance $185 m0 *1 692.72,761.04
X$185 345 344 259 18 114 33 gf180mcu_fd_sc_mcu9t5v0__mux2_2
* cell instance $187 m0 *1 685.44,750.96
X$187 345 344 242 18 89 33 gf180mcu_fd_sc_mcu9t5v0__mux2_2
* cell instance $190 r0 *1 744.24,761.04
X$190 345 344 57 296 18 gf180mcu_fd_sc_mcu9t5v0__nand2_2
* cell instance $192 r0 *1 700,690.48
X$192 146 345 344 18 55 gf180mcu_fd_sc_mcu9t5v0__addh_1
* cell instance $197 m0 *1 746.48,660.24
X$197 345 344 25 21 39 18 gf180mcu_fd_sc_mcu9t5v0__mux2_2
* cell instance $200 r0 *1 746.48,660.24
X$200 39 345 18 344 46 gf180mcu_fd_sc_mcu9t5v0__xor2_2
* cell instance $216 m0 *1 693.84,710.64
X$216 345 37 19 344 170 gf180mcu_fd_sc_mcu9t5v0__or2_4
* cell instance $218 m0 *1 694.4,720.72
X$218 345 344 19 187 gf180mcu_fd_sc_mcu9t5v0__clkinv_3
* cell instance $220 m0 *1 693.84,660.24
X$220 345 344 19 21 gf180mcu_fd_sc_mcu9t5v0__buf_4
* cell instance $225 m0 *1 738.64,700.56
X$225 345 344 141 20 51 149 gf180mcu_fd_sc_mcu9t5v0__mux2_2
* cell instance $229 r0 *1 678.72,660.24
X$229 345 344 74 21 38 33 gf180mcu_fd_sc_mcu9t5v0__mux2_2
* cell instance $232 m0 *1 737.52,720.72
X$232 344 39 345 21 200 86 gf180mcu_fd_sc_mcu9t5v0__oai21_2
* cell instance $235 r0 *1 754.32,710.64
X$235 345 344 177 21 39 37 gf180mcu_fd_sc_mcu9t5v0__mux2_2
* cell instance $237 r0 *1 666.4,720.72
X$237 208 344 345 21 51 185 gf180mcu_fd_sc_mcu9t5v0__nor3_2
* cell instance $240 m0 *1 677.04,730.8
X$240 344 85 239 21 121 209 345 gf180mcu_fd_sc_mcu9t5v0__oai211_2
* cell instance $242 m0 *1 681.52,690.48
X$242 345 88 112 115 113 129 21 344 gf180mcu_fd_sc_mcu9t5v0__aoi221_4
* cell instance $247 r0 *1 745.92,710.64
X$247 345 344 176 86 39 21 gf180mcu_fd_sc_mcu9t5v0__mux2_2
* cell instance $249 m0 *1 748.16,700.56
X$249 135 115 150 160 21 344 345 gf180mcu_fd_sc_mcu9t5v0__aoi211_2
* cell instance $267 m0 *1 754.88,660.24
X$267 345 344 25 22 gf180mcu_fd_sc_mcu9t5v0__clkinv_2
* cell instance $269 r0 *1 756,660.24
X$269 345 344 40 22 57 46 gf180mcu_fd_sc_mcu9t5v0__mux2_2
* cell instance $271 m0 *1 745.36,720.72
X$271 345 201 23 344 gf180mcu_fd_sc_mcu9t5v0__clkbuf_20
* cell instance $299 r0 *1 657.44,670.32
X$299 345 344 24 49 gf180mcu_fd_sc_mcu9t5v0__clkinv_3
* cell instance $302 m0 *1 648.48,680.4
X$302 345 344 24 109 gf180mcu_fd_sc_mcu9t5v0__buf_4
* cell instance $312 r0 *1 2.24,660.24
X$312 26 344 345 31 gf180mcu_fd_sc_mcu9t5v0__dlyb_2
* cell instance $315 m0 *1 11.2,670.32
X$315 27 344 345 30 gf180mcu_fd_sc_mcu9t5v0__dlyb_2
* cell instance $318 r0 *1 10.64,660.24
X$318 28 344 345 32 gf180mcu_fd_sc_mcu9t5v0__dlyb_2
* cell instance $321 m0 *1 6.72,670.32
X$321 29 344 345 48 gf180mcu_fd_sc_mcu9t5v0__clkbuf_2
* cell instance $324 m0 *1 19.6,670.32
X$324 345 43 48 31 32 30 344 gf180mcu_fd_sc_mcu9t5v0__or4_4
* cell instance $327 r0 *1 21.28,670.32
X$327 47 30 32 31 345 344 67 gf180mcu_fd_sc_mcu9t5v0__and4_2
* cell instance $353 m0 *1 712.32,670.32
X$353 344 56 345 34 68 57 gf180mcu_fd_sc_mcu9t5v0__oai21_2
* cell instance $355 m0 *1 722.4,680.4
X$355 345 344 58 86 35 55 gf180mcu_fd_sc_mcu9t5v0__mux2_2
* cell instance $358 m0 *1 758.24,750.96
X$358 344 35 247 345 249 gf180mcu_fd_sc_mcu9t5v0__and2_2
* cell instance $360 r0 *1 742.56,740.88
X$360 345 344 115 231 35 gf180mcu_fd_sc_mcu9t5v0__nand2_2
* cell instance $362 r0 *1 709.52,730.8
X$362 345 344 199 35 gf180mcu_fd_sc_mcu9t5v0__buf_4
* cell instance $364 r0 *1 757.12,720.72
X$364 173 344 35 170 345 207 gf180mcu_fd_sc_mcu9t5v0__and3_2
* cell instance $366 m0 *1 712.32,720.72
X$366 344 140 197 35 171 115 345 gf180mcu_fd_sc_mcu9t5v0__oai211_2
* cell instance $368 m0 *1 712.32,750.96
X$368 345 344 35 261 92 gf180mcu_fd_sc_mcu9t5v0__nand2_2
* cell instance $370 m0 *1 728,730.8
X$370 109 344 35 140 345 213 gf180mcu_fd_sc_mcu9t5v0__and3_2
* cell instance $372 m0 *1 723.52,700.56
X$372 344 35 53 345 161 gf180mcu_fd_sc_mcu9t5v0__and2_2
* cell instance $374 r0 *1 732.48,680.4
X$374 138 35 61 90 57 344 345 gf180mcu_fd_sc_mcu9t5v0__aoi211_2
* cell instance $388 r0 *1 720.16,670.32
X$388 345 344 87 58 59 36 gf180mcu_fd_sc_mcu9t5v0__mux2_2
* cell instance $390 m0 *1 724.08,670.32
X$390 345 344 53 36 gf180mcu_fd_sc_mcu9t5v0__clkinv_2
* cell instance $394 r0 *1 673.12,680.4
X$394 345 344 111 37 38 85 gf180mcu_fd_sc_mcu9t5v0__mux2_2
* cell instance $397 m0 *1 659.12,720.72
X$397 345 109 37 344 194 gf180mcu_fd_sc_mcu9t5v0__or2_2
* cell instance $404 m0 *1 675.36,720.72
X$404 345 344 185 86 168 37 gf180mcu_fd_sc_mcu9t5v0__mux2_2
* cell instance $406 r0 *1 749.84,700.56
X$406 51 344 89 37 345 150 gf180mcu_fd_sc_mcu9t5v0__and3_2
* cell instance $409 m0 *1 758.24,700.56
X$409 345 344 37 140 gf180mcu_fd_sc_mcu9t5v0__buf_4
* cell instance $411 m0 *1 738.64,670.32
X$411 344 38 37 345 62 gf180mcu_fd_sc_mcu9t5v0__and2_2
* cell instance $428 m0 *1 714,690.48
X$428 345 344 136 38 53 gf180mcu_fd_sc_mcu9t5v0__nor2_2
* cell instance $434 m0 *1 677.04,700.56
X$434 345 344 168 38 gf180mcu_fd_sc_mcu9t5v0__buf_4
* cell instance $437 r0 *1 691.04,690.48
X$437 345 344 38 114 gf180mcu_fd_sc_mcu9t5v0__buf_4
* cell instance $439 m0 *1 677.04,680.4
X$439 345 86 112 38 49 344 gf180mcu_fd_sc_mcu9t5v0__oai21_4
* cell instance $459 r0 *1 755.44,740.88
X$459 345 344 39 248 247 gf180mcu_fd_sc_mcu9t5v0__nand2_2
* cell instance $461 r0 *1 704.48,700.56
X$461 345 344 39 148 53 gf180mcu_fd_sc_mcu9t5v0__nand2_2
* cell instance $463 r0 *1 742.56,730.8
X$463 345 344 39 91 85 gf180mcu_fd_sc_mcu9t5v0__nand2_2
* cell instance $465 m0 *1 704.48,720.72
X$465 345 344 168 39 gf180mcu_fd_sc_mcu9t5v0__buf_4
* cell instance $467 r0 *1 753.76,730.8
X$467 345 344 232 109 39 gf180mcu_fd_sc_mcu9t5v0__nor2_2
* cell instance $487 r0 *1 784.56,690.48
X$487 345 142 344 151 145 40 144 41 gf180mcu_fd_sc_mcu9t5v0__aoi221_2
* cell instance $491 m0 *1 775.6,710.64
X$491 166 344 172 174 345 41 gf180mcu_fd_sc_mcu9t5v0__and3_2
* cell instance $493 m0 *1 773.92,670.32
X$493 87 41 70 65 45 344 345 gf180mcu_fd_sc_mcu9t5v0__aoi211_2
* cell instance $495 r0 *1 769.44,670.32
X$495 72 41 99 64 69 344 345 gf180mcu_fd_sc_mcu9t5v0__aoi211_2
* cell instance $497 m0 *1 789.04,670.32
X$497 68 41 97 66 44 344 345 gf180mcu_fd_sc_mcu9t5v0__aoi211_2
* cell instance $499 m0 *1 779.52,680.4
X$499 100 41 98 96 95 344 345 gf180mcu_fd_sc_mcu9t5v0__aoi211_2
* cell instance $508 r0 *1 818.16,740.88
X$508 345 344 234 42 233 gf180mcu_fd_sc_mcu9t5v0__nor2_2
* cell instance $510 m0 *1 801.36,690.48
X$510 345 344 145 42 123 gf180mcu_fd_sc_mcu9t5v0__nor2_2
* cell instance $513 r0 *1 798.56,700.56
X$513 345 344 158 42 153 gf180mcu_fd_sc_mcu9t5v0__nor2_2
* cell instance $515 r0 *1 799.12,710.64
X$515 345 344 192 42 189 gf180mcu_fd_sc_mcu9t5v0__nor2_2
* cell instance $517 r0 *1 798.56,750.96
X$517 345 344 251 42 266 gf180mcu_fd_sc_mcu9t5v0__nor2_2
* cell instance $519 m0 *1 810.88,730.8
X$519 345 344 218 42 215 gf180mcu_fd_sc_mcu9t5v0__nor2_2
* cell instance $526 m0 *1 790.72,690.48
X$526 345 344 120 42 gf180mcu_fd_sc_mcu9t5v0__buf_4
* cell instance $538 r0 *1 632.24,680.4
X$538 345 43 108 84 344 127 gf180mcu_fd_sc_mcu9t5v0__or3_4
* cell instance $540 m0 *1 628.88,690.48
X$540 108 344 43 227 345 84 gf180mcu_fd_sc_mcu9t5v0__nor3_4
* cell instance $543 r0 *1 635.6,690.48
X$543 131 84 108 43 344 345 129 gf180mcu_fd_sc_mcu9t5v0__or4_2
* cell instance $560 r0 *1 5.04,680.4
X$560 345 84 83 80 130 47 344 gf180mcu_fd_sc_mcu9t5v0__or4_4
* cell instance $564 r0 *1 2.24,670.32
X$564 79 344 345 47 gf180mcu_fd_sc_mcu9t5v0__dlyb_2
* cell instance $569 r0 *1 106.96,680.4
X$569 345 85 48 106 124 67 344 gf180mcu_fd_sc_mcu9t5v0__and4_4
* cell instance $576 r0 *1 676.48,670.32
X$576 345 344 49 51 gf180mcu_fd_sc_mcu9t5v0__buf_4
* cell instance $579 r0 *1 684.32,670.32
X$579 345 49 59 344 gf180mcu_fd_sc_mcu9t5v0__clkbuf_8
* cell instance $584 m0 *1 677.04,670.32
X$584 345 344 50 74 51 75 gf180mcu_fd_sc_mcu9t5v0__mux2_2
* cell instance $586 r0 *1 677.6,710.64
X$586 345 205 167 169 50 131 344 gf180mcu_fd_sc_mcu9t5v0__nor4_4
* cell instance $590 m0 *1 669.76,720.72
X$590 345 344 184 51 185 gf180mcu_fd_sc_mcu9t5v0__nor2_2
* cell instance $592 m0 *1 686,710.64
X$592 51 344 148 171 345 180 gf180mcu_fd_sc_mcu9t5v0__and3_2
* cell instance $594 r0 *1 735.28,670.32
X$594 345 344 71 60 51 73 gf180mcu_fd_sc_mcu9t5v0__mux2_2
* cell instance $597 r0 *1 727.44,740.88
X$597 345 344 245 62 51 229 gf180mcu_fd_sc_mcu9t5v0__mux2_2
* cell instance $599 m0 *1 685.44,761.04
X$599 51 345 127 258 344 294 gf180mcu_fd_sc_mcu9t5v0__or3_2
* cell instance $602 m0 *1 672.56,690.48
X$602 345 51 344 111 119 113 112 gf180mcu_fd_sc_mcu9t5v0__aoi22_2
* cell instance $621 m0 *1 674.24,710.64
X$621 345 180 344 196 52 115 gf180mcu_fd_sc_mcu9t5v0__aoi21_2
* cell instance $623 m0 *1 665.84,690.48
X$623 345 344 115 110 52 gf180mcu_fd_sc_mcu9t5v0__nand2_2
* cell instance $644 r0 *1 700,680.4
X$644 345 54 85 344 gf180mcu_fd_sc_mcu9t5v0__buf_8
* cell instance $646 m0 *1 693.84,680.4
X$646 345 54 86 344 116 gf180mcu_fd_sc_mcu9t5v0__or2_4
* cell instance $657 m0 *1 726.32,690.48
X$657 345 136 344 126 55 114 gf180mcu_fd_sc_mcu9t5v0__aoi21_2
* cell instance $660 r0 *1 722.96,690.48
X$660 344 89 55 345 137 gf180mcu_fd_sc_mcu9t5v0__and2_2
* cell instance $667 r0 *1 709.52,700.56
X$667 344 147 56 114 148 57 345 gf180mcu_fd_sc_mcu9t5v0__oai211_2
* cell instance $674 r0 *1 747.6,740.88
X$674 344 231 345 248 256 57 gf180mcu_fd_sc_mcu9t5v0__oai21_2
* cell instance $677 r0 *1 713.44,761.04
X$677 345 57 344 260 280 262 gf180mcu_fd_sc_mcu9t5v0__aoi21_2
* cell instance $680 m0 *1 709.52,761.04
X$680 345 344 57 293 261 gf180mcu_fd_sc_mcu9t5v0__nand2_2
* cell instance $682 m0 *1 742,730.8
X$682 345 344 173 57 gf180mcu_fd_sc_mcu9t5v0__buf_4
* cell instance $684 r0 *1 758.8,670.32
X$684 345 344 57 63 62 gf180mcu_fd_sc_mcu9t5v0__nand2_2
* cell instance $687 r0 *1 742,680.4
X$687 345 90 344 72 126 57 gf180mcu_fd_sc_mcu9t5v0__aoi21_2
* cell instance $700 m0 *1 745.36,680.4
X$700 345 344 100 91 59 92 gf180mcu_fd_sc_mcu9t5v0__mux2_2
* cell instance $704 m0 *1 767.2,710.64
X$704 345 344 178 176 59 177 gf180mcu_fd_sc_mcu9t5v0__mux2_2
* cell instance $706 m0 *1 728.56,700.56
X$706 59 345 135 161 344 162 gf180mcu_fd_sc_mcu9t5v0__or3_2
* cell instance $708 r0 *1 756.56,750.96
X$708 345 344 272 255 59 249 gf180mcu_fd_sc_mcu9t5v0__mux2_2
* cell instance $710 r0 *1 728,750.96
X$710 212 59 167 297 131 344 345 gf180mcu_fd_sc_mcu9t5v0__aoi211_2
* cell instance $712 m0 *1 739.76,761.04
X$712 345 344 274 116 59 140 gf180mcu_fd_sc_mcu9t5v0__mux2_2
* cell instance $714 r0 *1 687.12,720.72
X$714 345 114 344 116 140 86 209 59 gf180mcu_fd_sc_mcu9t5v0__aoi221_2
* cell instance $717 m0 *1 728,761.04
X$717 345 59 344 226 174 274 312 114 gf180mcu_fd_sc_mcu9t5v0__aoi221_2
* cell instance $720 m0 *1 759.92,690.48
X$720 345 344 59 118 125 gf180mcu_fd_sc_mcu9t5v0__nand2_2
* cell instance $741 r0 *1 731.92,690.48
X$741 115 345 136 61 344 139 gf180mcu_fd_sc_mcu9t5v0__or3_2
* cell instance $745 r0 *1 739.76,690.48
X$745 345 61 344 149 140 89 gf180mcu_fd_sc_mcu9t5v0__aoi21_2
* cell instance $751 m0 *1 722.96,710.64
X$751 173 345 62 137 344 175 gf180mcu_fd_sc_mcu9t5v0__or3_2
* cell instance $754 m0 *1 751.52,740.88
X$754 345 232 344 116 237 62 173 gf180mcu_fd_sc_mcu9t5v0__aoi22_2
* cell instance $765 m0 *1 760.48,680.4
X$765 63 344 88 118 345 99 gf180mcu_fd_sc_mcu9t5v0__and3_2
* cell instance $786 m0 *1 767.2,690.48
X$786 120 121 119 160 345 344 70 gf180mcu_fd_sc_mcu9t5v0__and4_2
* cell instance $793 r0 *1 776.72,710.64
X$793 166 172 174 71 345 344 193 gf180mcu_fd_sc_mcu9t5v0__and4_2
* cell instance $812 m0 *1 5.6,680.4
X$812 76 344 345 80 gf180mcu_fd_sc_mcu9t5v0__dlyb_2
* cell instance $815 m0 *1 2.8,700.56
X$815 77 344 345 106 gf180mcu_fd_sc_mcu9t5v0__clkbuf_2
* cell instance $818 m0 *1 6.72,690.48
X$818 78 344 345 82 gf180mcu_fd_sc_mcu9t5v0__dlyb_2
* cell instance $824 r0 *1 19.6,680.4
X$824 345 82 80 107 94 83 344 gf180mcu_fd_sc_mcu9t5v0__and4_4
* cell instance $829 m0 *1 17.36,680.4
X$829 81 344 345 83 gf180mcu_fd_sc_mcu9t5v0__dlyb_2
* cell instance $835 m0 *1 20.16,690.48
X$835 345 108 106 105 82 107 344 gf180mcu_fd_sc_mcu9t5v0__or4_4
* cell instance $852 m0 *1 746.48,750.96
X$852 345 344 255 85 89 247 gf180mcu_fd_sc_mcu9t5v0__mux2_2
* cell instance $856 r0 *1 654.08,720.72
X$856 344 345 85 89 194 109 198 171 gf180mcu_fd_sc_mcu9t5v0__oai32_2
* cell instance $858 r0 *1 680.4,700.56
X$858 345 344 170 85 113 gf180mcu_fd_sc_mcu9t5v0__nor2_4
* cell instance $860 r0 *1 721.28,740.88
X$860 344 89 85 345 229 gf180mcu_fd_sc_mcu9t5v0__and2_2
* cell instance $866 m0 *1 683.76,740.88
X$866 345 170 227 174 223 85 344 gf180mcu_fd_sc_mcu9t5v0__oai31_4
* cell instance $869 m0 *1 734.72,730.8
X$869 345 85 344 225 86 114 gf180mcu_fd_sc_mcu9t5v0__aoi21_2
* cell instance $884 r0 *1 701.12,710.64
X$884 345 168 86 344 171 gf180mcu_fd_sc_mcu9t5v0__or2_2
* cell instance $895 m0 *1 698.88,700.56
X$895 345 344 146 86 gf180mcu_fd_sc_mcu9t5v0__buf_4
* cell instance $899 m0 *1 708.4,700.56
X$899 344 168 86 345 135 gf180mcu_fd_sc_mcu9t5v0__and2_2
* cell instance $916 m0 *1 753.76,680.4
X$916 88 344 117 101 345 98 gf180mcu_fd_sc_mcu9t5v0__and3_2
* cell instance $927 r0 *1 748.72,730.8
X$927 345 344 89 220 170 gf180mcu_fd_sc_mcu9t5v0__nand2_2
* cell instance $929 m0 *1 708.4,730.8
X$929 345 344 199 89 gf180mcu_fd_sc_mcu9t5v0__buf_4
* cell instance $934 m0 *1 649.6,690.48
X$934 109 89 94 128 345 344 132 gf180mcu_fd_sc_mcu9t5v0__and4_2
* cell instance $954 r0 *1 752.64,680.4
X$954 345 115 91 344 101 gf180mcu_fd_sc_mcu9t5v0__or2_2
* cell instance $958 m0 *1 707.28,740.88
X$958 345 344 147 244 91 gf180mcu_fd_sc_mcu9t5v0__nand2_2
* cell instance $960 r0 *1 720.16,730.8
X$960 345 344 187 212 91 gf180mcu_fd_sc_mcu9t5v0__nand2_2
* cell instance $972 m0 *1 754.88,750.96
X$972 345 344 92 247 gf180mcu_fd_sc_mcu9t5v0__clkinv_2
* cell instance $981 r0 *1 1421.84,680.4
X$981 345 93 120 344 gf180mcu_fd_sc_mcu9t5v0__clkbuf_8
* cell instance $996 m0 *1 782.32,690.48
X$996 120 121 119 122 345 344 97 gf180mcu_fd_sc_mcu9t5v0__and4_2
* cell instance $1015 r0 *1 2.24,690.48
X$1015 102 344 345 130 gf180mcu_fd_sc_mcu9t5v0__dlyb_2
* cell instance $1018 m0 *1 7.28,700.56
X$1018 103 344 345 107 gf180mcu_fd_sc_mcu9t5v0__dlyb_2
* cell instance $1021 r0 *1 10.64,690.48
X$1021 104 344 345 105 gf180mcu_fd_sc_mcu9t5v0__dlyb_2
* cell instance $1026 r0 *1 19.04,690.48
X$1026 344 130 105 345 128 gf180mcu_fd_sc_mcu9t5v0__and2_2
* cell instance $1047 r0 *1 710.64,690.48
X$1047 109 345 135 136 344 134 gf180mcu_fd_sc_mcu9t5v0__or3_2
* cell instance $1050 r0 *1 702.24,730.8
X$1050 345 147 344 223 199 109 gf180mcu_fd_sc_mcu9t5v0__aoi21_2
* cell instance $1054 m0 *1 749.84,730.8
X$1054 345 344 122 200 109 220 gf180mcu_fd_sc_mcu9t5v0__mux2_2
* cell instance $1056 r0 *1 674.8,730.8
X$1056 345 344 109 173 gf180mcu_fd_sc_mcu9t5v0__buf_4
* cell instance $1061 r0 *1 665.28,680.4
X$1061 345 344 109 115 gf180mcu_fd_sc_mcu9t5v0__buf_4
* cell instance $1077 r0 *1 662.48,690.48
X$1077 345 134 344 110 133 132 124 gf180mcu_fd_sc_mcu9t5v0__aoi22_2
* cell instance $1086 r0 *1 677.6,690.48
X$1086 345 169 112 113 127 344 gf180mcu_fd_sc_mcu9t5v0__aoi21_4
* cell instance $1094 m0 *1 751.52,690.48
X$1094 345 344 125 116 114 140 gf180mcu_fd_sc_mcu9t5v0__mux2_2
* cell instance $1097 m0 *1 727.44,720.72
X$1097 344 187 345 138 226 114 gf180mcu_fd_sc_mcu9t5v0__oai21_2
* cell instance $1099 r0 *1 686.56,750.96
X$1099 345 170 344 258 116 114 gf180mcu_fd_sc_mcu9t5v0__aoi21_2
* cell instance $1106 r0 *1 762.72,740.88
X$1106 345 344 254 248 173 114 gf180mcu_fd_sc_mcu9t5v0__mux2_2
* cell instance $1123 r0 *1 750.96,690.48
X$1123 344 115 345 135 117 140 gf180mcu_fd_sc_mcu9t5v0__oai21_2
* cell instance $1127 m0 *1 664.72,750.96
X$1127 344 238 345 242 271 115 gf180mcu_fd_sc_mcu9t5v0__oai21_2
* cell instance $1157 r0 *1 720.16,750.96
X$1157 345 344 273 140 116 gf180mcu_fd_sc_mcu9t5v0__nor2_2
* cell instance $1170 r0 *1 749.28,761.04
X$1170 345 344 282 296 174 117 gf180mcu_fd_sc_mcu9t5v0__mux2_2
* cell instance $1177 r0 *1 778.4,690.48
X$1177 120 344 121 119 345 142 gf180mcu_fd_sc_mcu9t5v0__and3_2
* cell instance $1186 m0 *1 771.12,740.88
X$1186 344 120 345 237 236 127 gf180mcu_fd_sc_mcu9t5v0__oai21_2
* cell instance $1189 m0 *1 752.64,761.04
X$1189 345 344 120 131 gf180mcu_fd_sc_mcu9t5v0__inv_3
* cell instance $1192 r0 *1 750.4,781.2
X$1192 345 344 120 166 gf180mcu_fd_sc_mcu9t5v0__buf_4
* cell instance $1194 r0 *1 775.6,740.88
X$1194 120 172 174 254 345 344 252 gf180mcu_fd_sc_mcu9t5v0__and4_2
* cell instance $1201 r0 *1 778.4,700.56
X$1201 120 172 174 141 345 344 159 gf180mcu_fd_sc_mcu9t5v0__and4_2
* cell instance $1215 r0 *1 763.84,720.72
X$1215 344 121 345 206 202 207 gf180mcu_fd_sc_mcu9t5v0__oai21_2
* cell instance $1217 r0 *1 707.84,740.88
X$1217 344 121 345 244 262 170 gf180mcu_fd_sc_mcu9t5v0__oai21_2
* cell instance $1219 r0 *1 726.88,730.8
X$1219 344 121 345 230 224 212 213 gf180mcu_fd_sc_mcu9t5v0__oai31_2
* cell instance $1223 r0 *1 771.68,720.72
X$1223 345 344 121 203 188 gf180mcu_fd_sc_mcu9t5v0__nand2_2
* cell instance $1225 m0 *1 729.68,750.96
X$1225 345 121 344 245 167 256 246 230 gf180mcu_fd_sc_mcu9t5v0__aoi221_2
* cell instance $1227 r0 *1 677.04,740.88
X$1227 345 344 227 121 gf180mcu_fd_sc_mcu9t5v0__buf_4
* cell instance $1231 m0 *1 781.76,710.64
X$1231 345 344 121 151 178 gf180mcu_fd_sc_mcu9t5v0__nand2_2
* cell instance $1250 r0 *1 776.72,730.8
X$1250 345 127 122 344 214 gf180mcu_fd_sc_mcu9t5v0__or2_2
* cell instance $1259 m0 *1 1406.72,690.48
X$1259 123 344 345 143 gf180mcu_fd_sc_mcu9t5v0__dlyb_2
* cell instance $1265 m0 *1 659.68,700.56
X$1265 344 345 132 172 124 gf180mcu_fd_sc_mcu9t5v0__nand2_4
* cell instance $1267 m0 *1 650.16,700.56
X$1267 344 132 124 167 345 gf180mcu_fd_sc_mcu9t5v0__and2_4
* cell instance $1290 m0 *1 714.56,761.04
X$1290 344 261 345 273 280 127 gf180mcu_fd_sc_mcu9t5v0__oai21_2
* cell instance $1292 m0 *1 658.56,730.8
X$1292 127 345 198 208 344 221 gf180mcu_fd_sc_mcu9t5v0__or3_2
* cell instance $1295 m0 *1 641.76,720.72
X$1295 345 127 184 182 183 169 167 344 164 gf180mcu_fd_sc_mcu9t5v0__oai33_2
* cell instance $1332 m0 *1 675.92,761.04
X$1332 345 344 131 257 gf180mcu_fd_sc_mcu9t5v0__buf_4
* cell instance $1334 r0 *1 733.04,700.56
X$1334 345 131 344 253 139 162 gf180mcu_fd_sc_mcu9t5v0__aoi21_2
* cell instance $1348 m0 *1 660.24,761.04
X$1348 345 257 344 270 133 174 gf180mcu_fd_sc_mcu9t5v0__aoi21_2
* cell instance $1352 r0 *1 663.04,710.64
X$1352 344 134 195 345 183 gf180mcu_fd_sc_mcu9t5v0__and2_2
* cell instance $1376 r0 *1 730.8,710.64
X$1376 345 344 140 138 gf180mcu_fd_sc_mcu9t5v0__clkinv_2
* cell instance $1385 r0 *1 688.8,740.88
X$1385 344 227 345 243 229 140 223 gf180mcu_fd_sc_mcu9t5v0__oai31_2
* cell instance $1416 r0 *1 785.12,750.96
X$1416 345 263 344 269 251 142 268 202 gf180mcu_fd_sc_mcu9t5v0__aoi221_2
* cell instance $1419 m0 *1 782.32,761.04
X$1419 345 263 344 253 264 203 265 142 gf180mcu_fd_sc_mcu9t5v0__aoi221_2
* cell instance $1436 r0 *1 700.56,700.56
X$1436 345 344 146 147 gf180mcu_fd_sc_mcu9t5v0__clkinv_2
* cell instance $1460 r0 *1 787.36,700.56
X$1460 151 152 159 157 158 344 345 gf180mcu_fd_sc_mcu9t5v0__aoi211_2
* cell instance $1462 m0 *1 789.04,730.8
X$1462 203 152 205 219 218 344 345 gf180mcu_fd_sc_mcu9t5v0__aoi211_2
* cell instance $1465 m0 *1 789.04,720.72
X$1465 152 202 193 191 192 344 345 gf180mcu_fd_sc_mcu9t5v0__aoi211_2
* cell instance $1467 m0 *1 778.96,740.88
X$1467 345 152 172 174 236 344 gf180mcu_fd_sc_mcu9t5v0__aoi21_4
* cell instance $1470 r0 *1 785.12,740.88
X$1470 214 152 252 235 234 344 345 gf180mcu_fd_sc_mcu9t5v0__aoi211_2
* cell instance $1474 r0 *1 1419.6,700.56
X$1474 153 344 345 156 gf180mcu_fd_sc_mcu9t5v0__dlyb_2
* cell instance $1476 m0 *1 1425.76,710.64
X$1476 153 344 345 155 gf180mcu_fd_sc_mcu9t5v0__dlyb_2
* cell instance $1482 r0 *1 1428,700.56
X$1482 156 344 345 154 gf180mcu_fd_sc_mcu9t5v0__dlyb_2
* cell instance $1515 m0 *1 19.04,710.64
X$1515 165 344 345 163 gf180mcu_fd_sc_mcu9t5v0__dlyb_2
* cell instance $1518 m0 *1 644.56,710.64
X$1518 345 344 179 164 166 165 gf180mcu_fd_sc_mcu9t5v0__mux2_2
* cell instance $1528 m0 *1 660.24,791.28
X$1528 345 344 315 292 166 328 gf180mcu_fd_sc_mcu9t5v0__mux2_2
* cell instance $1531 r0 *1 643.44,781.2
X$1531 345 344 314 222 166 310 gf180mcu_fd_sc_mcu9t5v0__mux2_2
* cell instance $1534 m0 *1 711.2,791.28
X$1534 345 344 318 260 166 330 gf180mcu_fd_sc_mcu9t5v0__mux2_2
* cell instance $1537 m0 *1 685.44,791.28
X$1537 345 344 316 317 166 329 gf180mcu_fd_sc_mcu9t5v0__mux2_2
* cell instance $1541 r0 *1 692.72,761.04
X$1541 166 344 172 243 345 278 gf180mcu_fd_sc_mcu9t5v0__and3_2
* cell instance $1543 r0 *1 782.88,761.04
X$1543 345 344 264 166 286 gf180mcu_fd_sc_mcu9t5v0__nor2_2
* cell instance $1548 r0 *1 766.08,761.04
X$1548 344 166 202 345 283 gf180mcu_fd_sc_mcu9t5v0__and2_2
* cell instance $1560 r0 *1 656.88,730.8
X$1560 344 221 345 222 169 167 196 gf180mcu_fd_sc_mcu9t5v0__oai31_2
* cell instance $1563 r0 *1 660.24,750.96
X$1563 344 240 345 292 169 167 271 gf180mcu_fd_sc_mcu9t5v0__oai31_2
* cell instance $1568 r0 *1 672,750.96
X$1568 344 239 345 241 169 167 242 gf180mcu_fd_sc_mcu9t5v0__oai31_2
* cell instance $1586 r0 *1 707.84,720.72
X$1586 345 344 168 199 gf180mcu_fd_sc_mcu9t5v0__clkinv_2
* cell instance $1590 m0 *1 3.36,720.72
X$1590 345 344 181 168 gf180mcu_fd_sc_mcu9t5v0__buf_4
* cell instance $1599 r0 *1 683.2,761.04
X$1599 344 293 317 169 294 172 345 gf180mcu_fd_sc_mcu9t5v0__oai211_2
* cell instance $1606 m0 *1 651.84,761.04
X$1606 345 344 169 291 211 gf180mcu_fd_sc_mcu9t5v0__nand2_2
* cell instance $1643 r0 *1 780.08,750.96
X$1643 344 172 174 345 263 gf180mcu_fd_sc_mcu9t5v0__and2_2
* cell instance $1648 r0 *1 721.84,710.64
X$1648 172 174 197 175 345 344 186 gf180mcu_fd_sc_mcu9t5v0__and4_2
* cell instance $1667 r0 *1 768.32,710.64
X$1667 345 344 188 176 173 177 gf180mcu_fd_sc_mcu9t5v0__mux2_2
* cell instance $1670 r0 *1 736.96,730.8
X$1670 345 344 224 173 225 gf180mcu_fd_sc_mcu9t5v0__nor2_2
* cell instance $1672 m0 *1 758.24,730.8
X$1672 345 344 206 173 200 gf180mcu_fd_sc_mcu9t5v0__nor2_2
* cell instance $1674 m0 *1 665.28,740.88
X$1674 345 344 173 238 187 gf180mcu_fd_sc_mcu9t5v0__nand2_2
* cell instance $1676 r0 *1 668.08,710.64
X$1676 345 344 173 195 185 gf180mcu_fd_sc_mcu9t5v0__nand2_2
* cell instance $1744 r0 *1 645.12,720.72
X$1744 344 187 198 345 182 gf180mcu_fd_sc_mcu9t5v0__and2_2
* cell instance $1752 m0 *1 650.72,730.8
X$1752 344 187 345 198 211 184 gf180mcu_fd_sc_mcu9t5v0__oai21_2
* cell instance $1768 r0 *1 726.32,771.12
X$1768 344 302 345 281 186 257 312 gf180mcu_fd_sc_mcu9t5v0__oai31_2
* cell instance $1788 m0 *1 1406.72,720.72
X$1788 189 344 345 190 gf180mcu_fd_sc_mcu9t5v0__dlyb_2
* cell instance $1811 r0 *1 658,740.88