
* cell parameterized_spi_master
* pin tx_data[2]
* pin tx_data[1]
* pin tx_data[0]
* pin tx_data[3]
* pin tx_valid
* pin tx_data[4]
* pin tx_data[5]
* pin tx_data[6]
* pin tx_data[7]
* pin spi_mosi
* pin PWELL
* pin NWELL
* pin tx_ready
* pin spi_cs_n
* pin clk
* pin rx_data[4]
* pin rx_valid
* pin spi_clk
* pin rx_data[0]
* pin rx_data[3]
* pin rx_data[1]
* pin rx_data[2]
* pin rx_data[5]
* pin spi_miso
* pin rst_n
* pin rx_data[6]
* pin rx_data[7]
.SUBCKT parameterized_spi_master 1 2 3 4 5 6 7 8 9 10 16 25 116 131 136 149 159
+ 164 186 201 225 246 257 258 259 260 262
* net 1 tx_data[2]
* net 2 tx_data[1]
* net 3 tx_data[0]
* net 4 tx_data[3]
* net 5 tx_valid
* net 6 tx_data[4]
* net 7 tx_data[5]
* net 8 tx_data[6]
* net 9 tx_data[7]
* net 10 spi_mosi
* net 16 PWELL
* net 25 NWELL
* net 116 tx_ready
* net 131 spi_cs_n
* net 136 clk
* net 149 rx_data[4]
* net 159 rx_valid
* net 164 spi_clk
* net 186 rx_data[0]
* net 201 rx_data[3]
* net 225 rx_data[1]
* net 246 rx_data[2]
* net 257 rx_data[5]
* net 258 spi_miso
* net 259 rst_n
* net 260 rx_data[6]
* net 262 rx_data[7]
* cell instance $2 r0 *1 24.7,1.4
X$2 1 16 25 45 BUF_X1
* cell instance $8 r0 *1 23.37,1.4
X$8 2 16 25 52 BUF_X1
* cell instance $15 r0 *1 27.36,1.4
X$15 3 16 25 12 BUF_X1
* cell instance $24 r0 *1 25.84,1.4
X$24 4 16 25 11 BUF_X1
* cell instance $26 r0 *1 32.87,1.4
X$26 5 16 25 18 CLKBUF_X2
* cell instance $32 r0 *1 29.64,1.4
X$32 6 16 25 13 BUF_X1
* cell instance $42 r0 *1 33.63,1.4
X$42 7 16 25 14 BUF_X1
* cell instance $44 m0 *1 34.58,4.2
X$44 8 16 25 23 BUF_X1
* cell instance $50 r0 *1 36.1,1.4
X$50 9 16 25 15 BUF_X1
* cell instance $56 r0 *1 36.67,1.4
X$56 17 16 25 10 BUF_X1
* cell instance $63 m0 *1 25.84,4.2
X$63 11 19 20 16 25 34 MUX2_X1
* cell instance $66 r0 *1 29.07,15.4
X$66 73 12 70 16 25 66 NAND3_X1
* cell instance $69 m0 *1 29.64,4.2
X$69 13 19 21 16 25 22 MUX2_X1
* cell instance $72 m0 *1 33.44,7
X$72 14 19 28 16 25 39 MUX2_X1
* cell instance $75 m0 *1 36.86,7
X$75 15 44 43 16 25 30 MUX2_X1
* cell instance $137 m0 *1 26.6,12.6
X$137 31 55 25 16 50 AND2_X1
* cell instance $141 r0 *1 29.26,12.6
X$141 33 57 16 25 58 NAND2_X1
* cell instance $147 r0 *1 38.57,12.6
X$147 19 16 25 44 CLKBUF_X3
* cell instance $151 r0 *1 40.09,12.6
X$151 16 284 65 63 36 25 DFF_X1
* cell instance $201 r0 *1 30.78,26.6
X$201 16 133 108 126 37 25 DFF_X1
* cell instance $205 m0 *1 33.06,26.6
X$205 120 108 74 121 16 25 90 OR4_X1
* cell instance $206 r0 *1 34.01,26.6
X$206 133 16 25 84 BUF_X2
* cell instance $207 m0 *1 34.2,26.6
X$207 124 70 109 25 16 129 OAI21_X2
* cell instance $214 m0 *1 41.04,26.6
X$214 125 127 25 16 126 AND2_X1
* cell instance $217 r0 *1 43.13,26.6
X$217 122 16 25 31 BUF_X2
* cell instance $221 m0 *1 49.78,26.6
X$221 16 276 123 113 144 25 DFF_X1
* cell instance $226 r0 *1 57,26.6
X$226 123 16 25 131 BUF_X1
* cell instance $257 m0 *1 31.35,18.2
X$257 16 265 60 69 37 25 DFF_X1
* cell instance $262 r0 *1 32.87,18.2
X$262 80 74 16 25 69 NOR2_X1
* cell instance $264 r0 *1 34.2,18.2
X$264 44 88 18 71 16 25 80 AOI22_X1
* cell instance $267 r0 *1 36.29,18.2
X$267 18 16 25 77 INV_X1
* cell instance $269 r0 *1 37.05,18.2
X$269 71 19 16 25 68 NOR2_X2
* cell instance $270 r0 *1 38,18.2
X$270 37 16 25 303 INV_X2
* cell instance $272 r0 *1 38.76,18.2
X$272 19 71 16 25 72 OR2_X1
* cell instance $274 m0 *1 38.76,18.2
X$274 70 65 72 16 25 76 MUX2_X1
* cell instance $275 m0 *1 40.85,18.2
X$275 76 74 16 25 63 NOR2_X1
* cell instance $285 r0 *1 43.13,18.2
X$285 79 16 25 36 CLKBUF_X3
* cell instance $286 r0 *1 44.08,18.2
X$286 36 16 25 INV_X4
* cell instance $318 r0 *1 36.67,63
X$318 259 16 25 236 BUF_X1
* cell instance $321 r0 *1 38.95,63
X$321 258 16 25 261 BUF_X1
* cell instance $323 r0 *1 39.9,63
X$323 249 16 25 260 BUF_X1
* cell instance $326 r0 *1 42.75,63
X$326 256 16 25 262 BUF_X1
* cell instance $330 r0 *1 49.97,63
X$330 243 16 25 257 BUF_X1
* cell instance $423 m0 *1 41.8,51.8
X$423 16 272 256 251 193 25 DFF_X1
* cell instance $426 m0 *1 48.26,51.8
X$426 16 282 243 254 144 25 DFF_X1
* cell instance $497 m0 *1 26.98,37.8
X$497 16 192 193 175 207 25 DFF_X2
* cell instance $500 m0 *1 30.78,37.8
X$500 16 213 173 211 193 25 DFF_X1
* cell instance $502 m0 *1 34.77,37.8
X$502 208 140 16 25 121 NAND2_X1
* cell instance $506 r0 *1 29.83,37.8
X$506 207 16 25 171 BUF_X1
* cell instance $508 r0 *1 33.44,37.8
X$508 175 213 212 25 16 208 HA_X1
* cell instance $509 r0 *1 35.34,37.8
X$509 212 16 25 184 BUF_X1
* cell instance $511 m0 *1 35.72,37.8
X$511 16 183 193 166 140 25 DFF_X2
* cell instance $514 m0 *1 39.71,37.8
X$514 140 202 16 25 194 OR2_X1
* cell instance $515 m0 *1 41.04,37.8
X$515 166 194 195 25 16 196 HA_X1
* cell instance $517 m0 *1 42.94,37.8
X$517 79 16 25 193 CLKBUF_X3
* cell instance $518 m0 *1 43.89,37.8
X$518 193 16 25 302 INV_X2
* cell instance $519 m0 *1 44.46,37.8
X$519 214 195 170 16 25 206 NAND3_X1
* cell instance $520 m0 *1 45.22,37.8
X$520 196 185 16 25 214 NOR2_X1
* cell instance $521 m0 *1 45.79,37.8
X$521 184 16 25 215 INV_X1
* cell instance $524 m0 *1 47.88,37.8
X$524 209 155 16 25 204 NAND2_X1
* cell instance $529 r0 *1 42.94,37.8
X$529 195 170 16 25 191 NOR2_X1
* cell instance $531 r0 *1 45.03,37.8
X$531 205 184 171 16 25 209 NOR3_X1
* cell instance $532 r0 *1 45.79,37.8
X$532 205 215 175 16 25 221 NOR3_X1
* cell instance $533 r0 *1 46.55,37.8
X$533 205 215 171 16 25 210 NOR3_X1
* cell instance $536 m0 *1 50.54,37.8
X$536 163 204 203 16 25 217 MUX2_X1
* cell instance $540 r0 *1 50.92,37.8
X$540 16 296 216 217 193 25 DFF_X1
* cell instance $541 m0 *1 52.44,37.8
X$541 122 216 25 16 203 AND2_X1
* cell instance $547 m0 *1 57.57,37.8
X$547 200 111 216 16 25 198 MUX2_X1
* cell instance $549 m0 *1 58.9,37.8
X$549 16 277 200 199 144 25 DFF_X1
* cell instance $551 m0 *1 63.65,37.8
X$551 200 16 25 201 BUF_X1
* cell instance $570 m0 *1 44.84,40.6
X$570 197 209 16 25 228 NAND2_X1
* cell instance $572 m0 *1 45.6,40.6
X$572 197 221 16 25 226 NAND2_X1
* cell instance $585 r0 *1 37.62,40.6
X$585 236 16 25 74 INV_X2
* cell instance $588 m0 *1 46.74,40.6
X$588 197 210 16 25 218 NAND2_X1
* cell instance $590 m0 *1 47.31,40.6
X$590 221 155 16 25 229 NAND2_X1
* cell instance $591 m0 *1 47.88,40.6
X$591 210 155 16 25 222 NAND2_X1
* cell instance $594 m0 *1 50.73,40.6
X$594 163 222 220 16 25 230 MUX2_X1
* cell instance $599 r0 *1 51.68,40.6
X$599 16 289 223 230 144 25 DFF_X1
* cell instance $600 m0 *1 52.63,40.6
X$600 122 223 25 16 220 AND2_X1
* cell instance $606 m0 *1 58.9,40.6
X$606 125 219 25 16 227 AND2_X1
* cell instance $614 r0 *1 57.76,40.6
X$614 224 111 223 16 25 219 MUX2_X1
* cell instance $615 r0 *1 59.09,40.6
X$615 16 285 224 227 144 25 DFF_X1
* cell instance $617 r0 *1 62.51,40.6
X$617 224 16 25 225 BUF_X1
* cell instance $648 m0 *1 39.71,46.2
X$648 122 261 25 16 163 AND2_X1
* cell instance $650 m0 *1 42.56,46.2
X$650 16 268 241 247 193 25 DFF_X1
* cell instance $654 m0 *1 47.5,46.2
X$654 16 275 233 242 144 25 DFF_X1
* cell instance $660 m0 *1 57.38,46.2
X$660 16 278 245 248 144 25 DFF_X1
* cell instance $667 m0 *1 60.99,46.2
X$667 245 16 25 246 BUF_X1
* cell instance $691 r0 *1 28.69,35
X$691 74 179 187 16 192 25 AOI21_X1
* cell instance $692 m0 *1 30.21,35
X$692 128 129 171 25 179 16 OAI21_X1
* cell instance $693 m0 *1 29.07,35
X$693 70 171 129 128 16 25 187 OR4_X1
* cell instance $695 r0 *1 29.45,35
X$695 207 173 300 25 16 154 HA_X1
* cell instance $696 r0 *1 31.35,35
X$696 74 188 172 16 211 25 AOI21_X1
* cell instance $698 m0 *1 31.35,35
X$698 128 129 173 25 172 16 OAI21_X1
* cell instance $701 m0 *1 34.77,35
X$701 128 129 140 25 181 16 OAI21_X1
* cell instance $702 m0 *1 34.01,35
X$702 173 171 120 16 25 202 NAND3_X1
* cell instance $703 m0 *1 35.53,35
X$703 174 73 184 44 16 25 188 NAND4_X1
* cell instance $707 r0 *1 36.29,35
X$707 74 165 181 16 183 25 AOI21_X1
* cell instance $709 m0 *1 36.86,35
X$709 174 73 142 44 16 25 165 NAND4_X1
* cell instance $711 m0 *1 41.61,35
X$711 184 175 167 168 16 25 182 NOR4_X1
* cell instance $712 m0 *1 42.56,35
X$712 167 168 16 25 176 NOR2_X1
* cell instance $715 m0 *1 44.08,35
X$715 189 182 142 170 16 25 161 NAND4_X1
* cell instance $717 m0 *1 45.79,35
X$717 205 184 175 16 25 169 NOR3_X1
* cell instance $722 m0 *1 57.38,35
X$722 177 111 158 16 25 180 MUX2_X1
* cell instance $723 m0 *1 58.71,35
X$723 125 180 25 16 178 AND2_X1
* cell instance $724 m0 *1 59.47,35
X$724 16 281 177 178 144 25 DFF_X1
* cell instance $729 r0 *1 39.33,35
X$729 166 202 142 25 16 185 HA_X1
* cell instance $732 r0 *1 41.8,35
X$732 176 196 185 191 16 205 25 NAND4_X2
* cell instance $733 r0 *1 43.51,35
X$733 191 196 185 16 25 190 NAND3_X1
* cell instance $734 r0 *1 44.27,35
X$734 95 190 206 16 189 25 AOI21_X1
* cell instance $736 r0 *1 45.22,35
X$736 95 142 16 25 197 NOR2_X1
* cell instance $741 r0 *1 50.16,35
X$741 79 16 25 144 CLKBUF_X3
* cell instance $744 r0 *1 58.71,35
X$744 125 198 25 16 199 AND2_X1
* cell instance $750 r0 *1 62.7,35
X$750 177 16 25 186 BUF_X1
* cell instance $774 m0 *1 38.19,43.4
X$774 236 16 25 122 BUF_X2
* cell instance $777 r0 *1 38.57,43.4
X$777 16 294 240 238 193 25 DFF_X1
* cell instance $779 m0 *1 41.61,43.4
X$779 163 226 231 16 25 238 MUX2_X1
* cell instance $783 r0 *1 42.18,43.4
X$783 122 240 25 16 231 AND2_X1
* cell instance $785 r0 *1 43.7,43.4
X$785 163 228 232 16 25 247 MUX2_X1
* cell instance $786 r0 *1 45.03,43.4
X$786 122 241 25 16 232 AND2_X1
* cell instance $789 r0 *1 46.74,43.4
X$789 163 218 239 16 25 242 MUX2_X1
* cell instance $792 r0 *1 49.78,43.4
X$792 122 233 25 16 239 AND2_X1
* cell instance $794 m0 *1 51.11,43.4
X$794 163 229 237 16 25 234 MUX2_X1
* cell instance $797 r0 *1 51.3,43.4
X$797 16 287 235 234 144 25 DFF_X1
* cell instance $799 m0 *1 52.82,43.4
X$799 122 235 25 16 237 AND2_X1
* cell instance $805 r0 *1 56.24,43.4
X$805 245 111 235 16 25 244 MUX2_X1
* cell instance $806 r0 *1 57.57,43.4
X$806 125 244 25 16 248 AND2_X1
* cell instance $824 m0 *1 29.64,29.4
X$824 128 129 132 135 74 138 16 25 137 OAI33_X1
* cell instance $825 m0 *1 30.97,29.4
X$825 134 128 129 16 25 138 NOR3_X1
* cell instance $826 m0 *1 31.73,29.4
X$826 139 44 31 135 16 25 132 NAND4_X1
* cell instance $827 m0 *1 32.68,29.4
X$827 120 139 16 25 101 XNOR2_X2
* cell instance $828 m0 *1 34.58,29.4
X$828 16 84 130 110 128 25 NOR3_X4
* cell instance $829 m0 *1 37.24,29.4
X$829 84 130 110 16 25 174 OR3_X1
* cell instance $834 m0 *1 43.7,29.4
X$834 136 16 25 79 CLKBUF_X3
* cell instance $835 m0 *1 44.65,29.4
X$835 31 16 25 125 BUF_X2
* cell instance $851 r0 *1 26.98,29.4
X$851 16 290 150 137 193 25 DFF_X1
* cell instance $852 r0 *1 30.21,29.4
X$852 150 16 25 120 CLKBUF_X2
* cell instance $853 r0 *1 30.97,29.4
X$853 139 70 16 25 134 NOR2_X1
* cell instance $857 r0 *1 33.63,29.4
X$857 120 16 25 135 INV_X1
* cell instance $860 r0 *1 37.81,29.4
X$860 166 141 299 25 16 118 HA_X1
* cell instance $861 r0 *1 39.71,29.4
X$861 130 16 25 141 INV_X1
* cell instance $864 r0 *1 41.99,29.4
X$864 94 101 142 25 155 16 NOR3_X2
* cell instance $869 r0 *1 56.05,29.4
X$869 125 145 25 16 146 AND2_X1
* cell instance $871 r0 *1 58.33,29.4
X$871 125 111 25 16 151 AND2_X1
* cell instance $877 r0 *1 60.04,29.4
X$877 16 291 148 151 144 25 DFF_X1
* cell instance $891 m0 *1 34.96,21
X$891 68 83 44 16 82 25 AOI21_X1
* cell instance $892 m0 *1 35.72,21
X$892 68 77 71 16 124 25 AOI21_X2
* cell instance $902 r0 *1 30.97,21
X$902 16 86 37 263 91 25 DFF_X2
* cell instance $903 r0 *1 34.58,21
X$903 91 16 25 89 INV_X1
* cell instance $904 r0 *1 34.96,21
X$904 82 74 89 16 25 86 NOR3_X1
* cell instance $906 r0 *1 36.48,21
X$906 85 16 25 83 INV_X1
* cell instance $907 r0 *1 36.86,21
X$907 83 91 84 16 25 87 OR3_X1
* cell instance $908 m0 *1 38.76,21
X$908 79 16 25 37 CLKBUF_X3
* cell instance $909 m0 *1 37.43,21
X$909 81 44 87 16 73 25 AOI21_X2
* cell instance $910 m0 *1 39.71,21
X$910 18 92 72 25 81 16 OAI21_X1
* cell instance $914 r0 *1 38,21
X$914 19 84 25 16 96 AND2_X1
* cell instance $916 r0 *1 39.52,21
X$916 89 85 16 25 93 NAND2_X1
* cell instance $920 r0 *1 42.18,21
X$920 96 89 85 16 25 94 NAND3_X1
* cell instance $922 m0 *1 42.56,21
X$922 78 16 25 85 BUF_X2
* cell instance $930 m0 *1 49.02,21
X$930 71 16 25 92 INV_X1
* cell instance $953 m0 *1 34.01,23.8
X$953 106 84 89 85 16 25 88 NAND4_X1
* cell instance $954 m0 *1 34.96,23.8
X$954 84 91 83 25 109 16 NOR3_X2
* cell instance $956 m0 *1 36.48,23.8
X$956 90 93 70 16 25 107 NOR3_X1
* cell instance $957 m0 *1 37.24,23.8
X$957 16 270 100 107 36 25 DFF_X1
* cell instance $958 m0 *1 40.47,23.8
X$958 99 44 93 16 98 25 AOI21_X1
* cell instance $959 m0 *1 41.23,23.8
X$959 100 71 44 16 25 99 NOR3_X1
* cell instance $960 m0 *1 41.99,23.8
X$960 96 101 89 85 16 25 95 NAND4_X1
* cell instance $962 m0 *1 49.02,23.8
X$962 16 267 105 102 36 25 DFF_X1
* cell instance $963 m0 *1 52.25,23.8
X$963 105 16 25 71 BUF_X2
* cell instance $979 r0 *1 33.44,23.8
X$979 108 16 25 97 INV_X1
* cell instance $980 r0 *1 33.82,23.8
X$980 120 121 97 25 106 16 OAI21_X1
* cell instance $982 r0 *1 34.77,23.8
X$982 109 70 110 97 124 61 16 25 OAI221_X2
* cell instance $983 r0 *1 36.86,23.8
X$983 83 91 70 118 25 110 16 OR4_X2
* cell instance $988 r0 *1 41.04,23.8
X$988 97 98 119 25 127 16 OAI21_X1
* cell instance $989 r0 *1 41.8,23.8
X$989 71 100 94 16 25 119 OR3_X1
* cell instance $990 r0 *1 42.75,23.8
X$990 100 16 25 111 CLKBUF_X3
* cell instance $993 r0 *1 44.84,23.8
X$993 18 92 122 25 112 16 OAI21_X1
* cell instance $997 r0 *1 49.59,23.8
X$997 111 112 16 25 102 OR2_X1
* cell instance $998 r0 *1 50.35,23.8
X$998 102 103 16 25 113 OR2_X1
* cell instance $999 r0 *1 51.11,23.8
X$999 92 123 25 16 103 AND2_X1
* cell instance $1002 r0 *1 52.82,23.8
X$1002 112 16 25 114 INV_X1
* cell instance $1003 r0 *1 53.2,23.8
X$1003 71 104 114 25 117 16 OAI21_X1
* cell instance $1005 r0 *1 54.15,23.8
X$1005 115 16 25 104 INV_X1
* cell instance $1006 r0 *1 54.53,23.8
X$1006 16 292 115 117 36 25 DFF_X1
* cell instance $1008 r0 *1 58.14,23.8
X$1008 115 16 25 116 BUF_X1
* cell instance $1026 m0 *1 33.25,32.2
X$1026 139 16 25 152 INV_X1
* cell instance $1027 m0 *1 33.63,32.2
X$1027 16 135 140 152 130 25 NOR3_X4
* cell instance $1037 r0 *1 5.51,32.2
X$1037 108 16 25 164 BUF_X1
* cell instance $1043 r0 *1 31.16,32.2
X$1043 154 16 25 139 CLKBUF_X2
* cell instance $1048 r0 *1 39.33,32.2
X$1048 140 130 301 25 16 168 HA_X1
* cell instance $1049 m0 *1 41.61,32.2
X$1049 166 141 170 25 16 297 HA_X1
* cell instance $1050 m0 *1 39.71,32.2
X$1050 140 141 298 25 16 167 HA_X1
* cell instance $1054 m0 *1 48.26,32.2
X$1054 31 158 25 16 156 AND2_X1
* cell instance $1055 m0 *1 49.02,32.2
X$1055 16 280 158 157 144 25 DFF_X1
* cell instance $1056 m0 *1 52.25,32.2
X$1056 122 153 25 16 143 AND2_X1
* cell instance $1059 m0 *1 54.72,32.2
X$1059 147 111 153 16 25 145 MUX2_X1
* cell instance $1063 r0 *1 47.69,32.2
X$1063 169 155 16 25 162 NAND2_X1
* cell instance $1064 r0 *1 48.26,32.2
X$1064 163 161 156 16 25 157 MUX2_X1
* cell instance $1067 r0 *1 50.54,32.2
X$1067 163 162 143 16 25 160 MUX2_X1
* cell instance $1068 r0 *1 51.87,32.2
X$1068 16 295 153 160 144 25 DFF_X1
* cell instance $1070 m0 *1 56.62,32.2
X$1070 16 269 147 146 144 25 DFF_X1
* cell instance $1073 m0 *1 62.89,32.2
X$1073 147 16 25 149 BUF_X1
* cell instance $1074 m0 *1 63.46,32.2
X$1074 148 16 25 159 BUF_X1
* cell instance $1101 r0 *1 25.65,4.2
X$1101 26 33 20 16 25 35 MUX2_X1
* cell instance $1103 r0 *1 27.36,4.2
X$1103 34 33 21 16 25 27 MUX2_X1
* cell instance $1106 r0 *1 30.4,4.2
X$1106 22 33 28 16 25 29 MUX2_X1
* cell instance $1109 r0 *1 32.3,4.2
X$1109 31 29 25 16 48 AND2_X1
* cell instance $1115 r0 *1 37.62,4.2
X$1115 30 33 17 16 25 32 MUX2_X1
* cell instance $1117 m0 *1 38.57,4.2
X$1117 16 274 17 24 36 25 DFF_X1
* cell instance $1123 r0 *1 38.95,4.2
X$1123 31 32 25 16 24 AND2_X1
* cell instance $1140 m0 *1 26.41,15.4
X$1140 16 266 57 56 37 25 DFF_X1
* cell instance $1141 m0 *1 29.64,15.4
X$1141 74 66 58 16 56 25 AOI21_X1
* cell instance $1145 m0 *1 39.71,15.4
X$1145 16 264 64 59 36 25 DFF_X1
* cell instance $1161 r0 *1 33.44,15.4
X$1161 60 16 25 70 INV_X2
* cell instance $1163 r0 *1 34.2,15.4
X$1163 60 25 19 16 BUF_X4
* cell instance $1164 r0 *1 35.53,15.4
X$1164 61 25 33 16 BUF_X4
* cell instance $1167 r0 *1 39.14,15.4
X$1167 68 64 16 25 62 NAND2_X1
* cell instance $1168 r0 *1 39.71,15.4
X$1168 74 62 75 16 59 25 AOI21_X1
* cell instance $1170 r0 *1 40.66,15.4
X$1170 93 67 44 16 25 75 NAND3_X1
* cell instance $1172 r0 *1 41.8,15.4
X$1172 65 64 67 25 16 78 HA_X1
* cell instance $1194 m0 *1 34.2,9.8
X$1194 31 54 25 16 51 AND2_X1
* cell instance $1212 r0 *1 23.56,9.8
X$1212 52 19 57 16 25 49 MUX2_X1
* cell instance $1213 r0 *1 24.89,9.8
X$1213 49 33 53 16 25 55 MUX2_X1
* cell instance $1214 r0 *1 26.22,9.8
X$1214 16 293 53 50 37 25 DFF_X1
* cell instance $1218 r0 *1 33.63,9.8
X$1218 16 286 40 51 37 25 DFF_X1
* cell instance $1242 m0 *1 23.94,7
X$1242 16 273 20 47 37 25 DFF_X1
* cell instance $1244 m0 *1 27.17,7
X$1244 31 35 25 16 47 AND2_X1
* cell instance $1247 r0 *1 24.89,7
X$1247 45 19 53 16 25 26 MUX2_X1
* cell instance $1249 r0 *1 27.74,7
X$1249 16 283 21 38 37 25 DFF_X1
* cell instance $1250 m0 *1 28.5,7
X$1250 31 27 25 16 38 AND2_X1
* cell instance $1254 m0 *1 30.21,7
X$1254 16 271 28 48 37 25 DFF_X1
* cell instance $1261 r0 *1 33.82,7
X$1261 39 33 40 16 25 54 MUX2_X1
* cell instance $1262 r0 *1 35.15,7
X$1262 23 19 40 16 25 41 MUX2_X1
* cell instance $1266 r0 *1 37.24,7
X$1266 41 33 43 16 25 46 MUX2_X1
* cell instance $1267 m0 *1 38.76,7
X$1267 16 279 43 42 36 25 DFF_X1
* cell instance $1276 r0 *1 38.57,7
X$1276 31 46 25 16 42 AND2_X1
* cell instance $1307 r0 *1 37.81,49
X$1307 16 288 249 253 193 25 DFF_X1
* cell instance $1309 m0 *1 40.47,49
X$1309 249 111 240 16 25 250 MUX2_X1
* cell instance $1311 m0 *1 43.51,49
X$1311 256 111 241 16 25 255 MUX2_X1
* cell instance $1314 m0 *1 49.4,49
X$1314 243 111 233 16 25 252 MUX2_X1
* cell instance $1319 r0 *1 41.04,49
X$1319 125 250 25 16 253 AND2_X1
* cell instance $1321 r0 *1 42.56,49
X$1321 125 255 25 16 251 AND2_X1
* cell instance $1326 r0 *1 48.83,49
X$1326 125 252 25 16 254 AND2_X1
.ENDS parameterized_spi_master

* cell BUF_X4
* pin A
* pin NWELL,VDD
* pin Z
* pin PWELL,VSS
.SUBCKT BUF_X4 1 3 4 5
* net 1 A
* net 3 NWELL,VDD
* net 4 Z
* net 5 PWELL,VSS
* device instance $1 r0 *1 0.17,0.995 PMOS_VTL
M$1 2 1 3 3 PMOS_VTL L=0.05U W=1.26U AS=0.11025P AD=0.0882P PS=2.24U PD=1.54U
* device instance $3 r0 *1 0.55,0.995 PMOS_VTL
M$3 4 2 3 3 PMOS_VTL L=0.05U W=2.52U AS=0.1764P AD=0.19845P PS=3.08U PD=3.78U
* device instance $7 r0 *1 0.17,0.2975 NMOS_VTL
M$7 2 1 5 5 NMOS_VTL L=0.05U W=0.83U AS=0.072625P AD=0.0581P PS=1.595U PD=1.11U
* device instance $9 r0 *1 0.55,0.2975 NMOS_VTL
M$9 4 2 5 5 NMOS_VTL L=0.05U W=1.66U AS=0.1162P AD=0.130725P PS=2.22U PD=2.705U
.ENDS BUF_X4

* cell INV_X4
* pin A
* pin PWELL,VSS
* pin NWELL,VDD
.SUBCKT INV_X4 1 2 3
* net 1 A
* net 2 PWELL,VSS
* net 3 NWELL,VDD
* net 4 ZN
* device instance $1 r0 *1 0.17,0.995 PMOS_VTL
M$1 4 1 3 3 PMOS_VTL L=0.05U W=2.52U AS=0.19845P AD=0.19845P PS=3.78U PD=3.78U
* device instance $5 r0 *1 0.17,0.2975 NMOS_VTL
M$5 4 1 2 2 NMOS_VTL L=0.05U W=1.66U AS=0.130725P AD=0.130725P PS=2.705U
+ PD=2.705U
.ENDS INV_X4

* cell AOI22_X1
* pin B2
* pin B1
* pin A1
* pin A2
* pin PWELL,VSS
* pin NWELL,VDD
* pin ZN
.SUBCKT AOI22_X1 1 2 3 4 5 7 8
* net 1 B2
* net 2 B1
* net 3 A1
* net 4 A2
* net 5 PWELL,VSS
* net 7 NWELL,VDD
* net 8 ZN
* device instance $1 r0 *1 0.185,0.995 PMOS_VTL
M$1 7 1 6 7 PMOS_VTL L=0.05U W=0.63U AS=0.06615P AD=0.0441P PS=1.47U PD=0.77U
* device instance $2 r0 *1 0.375,0.995 PMOS_VTL
M$2 6 2 7 7 PMOS_VTL L=0.05U W=0.63U AS=0.0441P AD=0.0441P PS=0.77U PD=0.77U
* device instance $3 r0 *1 0.565,0.995 PMOS_VTL
M$3 8 3 6 7 PMOS_VTL L=0.05U W=0.63U AS=0.0441P AD=0.0441P PS=0.77U PD=0.77U
* device instance $4 r0 *1 0.755,0.995 PMOS_VTL
M$4 6 4 8 7 PMOS_VTL L=0.05U W=0.63U AS=0.0441P AD=0.06615P PS=0.77U PD=1.47U
* device instance $5 r0 *1 0.185,0.2975 NMOS_VTL
M$5 10 1 5 5 NMOS_VTL L=0.05U W=0.415U AS=0.043575P AD=0.02905P PS=1.04U
+ PD=0.555U
* device instance $6 r0 *1 0.375,0.2975 NMOS_VTL
M$6 8 2 10 5 NMOS_VTL L=0.05U W=0.415U AS=0.02905P AD=0.02905P PS=0.555U
+ PD=0.555U
* device instance $7 r0 *1 0.565,0.2975 NMOS_VTL
M$7 9 3 8 5 NMOS_VTL L=0.05U W=0.415U AS=0.02905P AD=0.02905P PS=0.555U
+ PD=0.555U
* device instance $8 r0 *1 0.755,0.2975 NMOS_VTL
M$8 5 4 9 5 NMOS_VTL L=0.05U W=0.415U AS=0.02905P AD=0.043575P PS=0.555U
+ PD=1.04U
.ENDS AOI22_X1

* cell AOI21_X2
* pin A
* pin B2
* pin B1
* pin PWELL,VSS
* pin ZN
* pin NWELL,VDD
.SUBCKT AOI21_X2 1 2 3 4 6 7
* net 1 A
* net 2 B2
* net 3 B1
* net 4 PWELL,VSS
* net 6 ZN
* net 7 NWELL,VDD
* device instance $1 r0 *1 0.21,0.995 PMOS_VTL
M$1 7 1 5 7 PMOS_VTL L=0.05U W=1.26U AS=0.11025P AD=0.0882P PS=2.24U PD=1.54U
* device instance $3 r0 *1 0.59,0.995 PMOS_VTL
M$3 6 2 5 7 PMOS_VTL L=0.05U W=1.26U AS=0.0882P AD=0.11025P PS=1.54U PD=2.24U
* device instance $4 r0 *1 0.78,0.995 PMOS_VTL
M$4 5 3 6 7 PMOS_VTL L=0.05U W=1.26U AS=0.0882P AD=0.0882P PS=1.54U PD=1.54U
* device instance $7 r0 *1 0.21,0.2975 NMOS_VTL
M$7 6 1 4 4 NMOS_VTL L=0.05U W=0.83U AS=0.072625P AD=0.0581P PS=1.595U PD=1.11U
* device instance $9 r0 *1 0.59,0.2975 NMOS_VTL
M$9 9 2 4 4 NMOS_VTL L=0.05U W=0.415U AS=0.02905P AD=0.02905P PS=0.555U
+ PD=0.555U
* device instance $10 r0 *1 0.78,0.2975 NMOS_VTL
M$10 6 3 9 4 NMOS_VTL L=0.05U W=0.415U AS=0.02905P AD=0.02905P PS=0.555U
+ PD=0.555U
* device instance $11 r0 *1 0.97,0.2975 NMOS_VTL
M$11 8 3 6 4 NMOS_VTL L=0.05U W=0.415U AS=0.02905P AD=0.02905P PS=0.555U
+ PD=0.555U
* device instance $12 r0 *1 1.16,0.2975 NMOS_VTL
M$12 4 2 8 4 NMOS_VTL L=0.05U W=0.415U AS=0.02905P AD=0.043575P PS=0.555U
+ PD=1.04U
.ENDS AOI21_X2

* cell NOR2_X2
* pin A2
* pin A1
* pin PWELL,VSS
* pin NWELL,VDD
* pin ZN
.SUBCKT NOR2_X2 1 2 3 4 5
* net 1 A2
* net 2 A1
* net 3 PWELL,VSS
* net 4 NWELL,VDD
* net 5 ZN
* device instance $1 r0 *1 0.21,0.995 PMOS_VTL
M$1 7 1 4 4 PMOS_VTL L=0.05U W=0.63U AS=0.06615P AD=0.0441P PS=1.47U PD=0.77U
* device instance $2 r0 *1 0.4,0.995 PMOS_VTL
M$2 5 2 7 4 PMOS_VTL L=0.05U W=0.63U AS=0.0441P AD=0.0441P PS=0.77U PD=0.77U
* device instance $3 r0 *1 0.59,0.995 PMOS_VTL
M$3 6 2 5 4 PMOS_VTL L=0.05U W=0.63U AS=0.0441P AD=0.0441P PS=0.77U PD=0.77U
* device instance $4 r0 *1 0.78,0.995 PMOS_VTL
M$4 4 1 6 4 PMOS_VTL L=0.05U W=0.63U AS=0.0441P AD=0.06615P PS=0.77U PD=1.47U
* device instance $5 r0 *1 0.21,0.2975 NMOS_VTL
M$5 5 1 3 3 NMOS_VTL L=0.05U W=0.83U AS=0.072625P AD=0.072625P PS=1.595U
+ PD=1.595U
* device instance $6 r0 *1 0.4,0.2975 NMOS_VTL
M$6 3 2 5 3 NMOS_VTL L=0.05U W=0.83U AS=0.0581P AD=0.0581P PS=1.11U PD=1.11U
.ENDS NOR2_X2

* cell OAI21_X2
* pin A
* pin B2
* pin B1
* pin NWELL,VDD
* pin PWELL,VSS
* pin ZN
.SUBCKT OAI21_X2 1 2 3 5 6 7
* net 1 A
* net 2 B2
* net 3 B1
* net 5 NWELL,VDD
* net 6 PWELL,VSS
* net 7 ZN
* device instance $1 r0 *1 0.17,0.995 PMOS_VTL
M$1 7 1 5 5 PMOS_VTL L=0.05U W=1.26U AS=0.11025P AD=0.0882P PS=2.24U PD=1.54U
* device instance $3 r0 *1 0.55,0.995 PMOS_VTL
M$3 8 2 5 5 PMOS_VTL L=0.05U W=0.63U AS=0.0441P AD=0.0441P PS=0.77U PD=0.77U
* device instance $4 r0 *1 0.74,0.995 PMOS_VTL
M$4 7 3 8 5 PMOS_VTL L=0.05U W=0.63U AS=0.0441P AD=0.0441P PS=0.77U PD=0.77U
* device instance $5 r0 *1 0.93,0.995 PMOS_VTL
M$5 9 3 7 5 PMOS_VTL L=0.05U W=0.63U AS=0.0441P AD=0.0441P PS=0.77U PD=0.77U
* device instance $6 r0 *1 1.12,0.995 PMOS_VTL
M$6 5 2 9 5 PMOS_VTL L=0.05U W=0.63U AS=0.0441P AD=0.06615P PS=0.77U PD=1.47U
* device instance $7 r0 *1 0.17,0.2975 NMOS_VTL
M$7 6 1 4 6 NMOS_VTL L=0.05U W=0.83U AS=0.072625P AD=0.0581P PS=1.595U PD=1.11U
* device instance $9 r0 *1 0.55,0.2975 NMOS_VTL
M$9 7 2 4 6 NMOS_VTL L=0.05U W=0.83U AS=0.0581P AD=0.072625P PS=1.11U PD=1.595U
* device instance $10 r0 *1 0.74,0.2975 NMOS_VTL
M$10 4 3 7 6 NMOS_VTL L=0.05U W=0.83U AS=0.0581P AD=0.0581P PS=1.11U PD=1.11U
.ENDS OAI21_X2

* cell NOR3_X4
* pin PWELL,VSS
* pin A1
* pin A2
* pin A3
* pin ZN
* pin NWELL,VDD
.SUBCKT NOR3_X4 1 2 3 4 5 8
* net 1 PWELL,VSS
* net 2 A1
* net 3 A2
* net 4 A3
* net 5 ZN
* net 8 NWELL,VDD
* device instance $1 r0 *1 0.17,0.995 PMOS_VTL
M$1 5 2 7 8 PMOS_VTL L=0.05U W=2.52U AS=0.19845P AD=0.1764P PS=3.78U PD=3.08U
* device instance $5 r0 *1 0.93,0.995 PMOS_VTL
M$5 6 3 7 8 PMOS_VTL L=0.05U W=2.52U AS=0.1764P AD=0.19845P PS=3.08U PD=3.78U
* device instance $9 r0 *1 1.875,0.995 PMOS_VTL
M$9 6 4 8 8 PMOS_VTL L=0.05U W=2.52U AS=0.19845P AD=0.19845P PS=3.78U PD=3.78U
* device instance $13 r0 *1 0.17,0.2975 NMOS_VTL
M$13 5 2 1 1 NMOS_VTL L=0.05U W=1.66U AS=0.130725P AD=0.1162P PS=2.705U PD=2.22U
* device instance $17 r0 *1 0.93,0.2975 NMOS_VTL
M$17 5 3 1 1 NMOS_VTL L=0.05U W=1.66U AS=0.1162P AD=0.130725P PS=2.22U PD=2.705U
* device instance $21 r0 *1 1.875,0.2975 NMOS_VTL
M$21 5 4 1 1 NMOS_VTL L=0.05U W=1.66U AS=0.130725P AD=0.130725P PS=2.705U
+ PD=2.705U
.ENDS NOR3_X4

* cell NOR3_X2
* pin A3
* pin A2
* pin A1
* pin NWELL,VDD
* pin ZN
* pin PWELL,VSS
.SUBCKT NOR3_X2 1 2 3 4 5 6
* net 1 A3
* net 2 A2
* net 3 A1
* net 4 NWELL,VDD
* net 5 ZN
* net 6 PWELL,VSS
* device instance $1 r0 *1 0.21,0.995 PMOS_VTL
M$1 10 1 4 4 PMOS_VTL L=0.05U W=0.63U AS=0.06615P AD=0.0441P PS=1.47U PD=0.77U
* device instance $2 r0 *1 0.4,0.995 PMOS_VTL
M$2 9 2 10 4 PMOS_VTL L=0.05U W=0.63U AS=0.0441P AD=0.0441P PS=0.77U PD=0.77U
* device instance $3 r0 *1 0.59,0.995 PMOS_VTL
M$3 5 3 9 4 PMOS_VTL L=0.05U W=0.63U AS=0.0441P AD=0.0441P PS=0.77U PD=0.77U
* device instance $4 r0 *1 0.78,0.995 PMOS_VTL
M$4 8 3 5 4 PMOS_VTL L=0.05U W=0.63U AS=0.0441P AD=0.0441P PS=0.77U PD=0.77U
* device instance $5 r0 *1 0.97,0.995 PMOS_VTL
M$5 7 2 8 4 PMOS_VTL L=0.05U W=0.63U AS=0.0441P AD=0.0441P PS=0.77U PD=0.77U
* device instance $6 r0 *1 1.16,0.995 PMOS_VTL
M$6 4 1 7 4 PMOS_VTL L=0.05U W=0.63U AS=0.0441P AD=0.06615P PS=0.77U PD=1.47U
* device instance $7 r0 *1 0.21,0.2975 NMOS_VTL
M$7 5 1 6 6 NMOS_VTL L=0.05U W=0.83U AS=0.072625P AD=0.072625P PS=1.595U
+ PD=1.595U
* device instance $8 r0 *1 0.4,0.2975 NMOS_VTL
M$8 6 2 5 6 NMOS_VTL L=0.05U W=0.83U AS=0.0581P AD=0.0581P PS=1.11U PD=1.11U
* device instance $9 r0 *1 0.59,0.2975 NMOS_VTL
M$9 5 3 6 6 NMOS_VTL L=0.05U W=0.83U AS=0.0581P AD=0.0581P PS=1.11U PD=1.11U
.ENDS NOR3_X2

* cell OAI221_X2
* pin C2
* pin C1
* pin B1
* pin B2
* pin A
* pin ZN
* pin PWELL,VSS
* pin NWELL,VDD
.SUBCKT OAI221_X2 1 2 3 4 5 7 9 10
* net 1 C2
* net 2 C1
* net 3 B1
* net 4 B2
* net 5 A
* net 7 ZN
* net 9 PWELL,VSS
* net 10 NWELL,VDD
* device instance $1 r0 *1 0.21,0.995 PMOS_VTL
M$1 12 1 10 10 PMOS_VTL L=0.05U W=0.63U AS=0.06615P AD=0.0441P PS=1.47U PD=0.77U
* device instance $2 r0 *1 0.4,0.995 PMOS_VTL
M$2 7 2 12 10 PMOS_VTL L=0.05U W=0.63U AS=0.0441P AD=0.0441P PS=0.77U PD=0.77U
* device instance $3 r0 *1 0.59,0.995 PMOS_VTL
M$3 11 2 7 10 PMOS_VTL L=0.05U W=0.63U AS=0.0441P AD=0.0441P PS=0.77U PD=0.77U
* device instance $4 r0 *1 0.78,0.995 PMOS_VTL
M$4 10 1 11 10 PMOS_VTL L=0.05U W=0.63U AS=0.0441P AD=0.0441P PS=0.77U PD=0.77U
* device instance $5 r0 *1 0.97,0.995 PMOS_VTL
M$5 7 5 10 10 PMOS_VTL L=0.05U W=1.26U AS=0.0882P AD=0.11025P PS=1.54U PD=2.24U
* device instance $6 r0 *1 1.16,0.995 PMOS_VTL
M$6 14 3 7 10 PMOS_VTL L=0.05U W=0.63U AS=0.0441P AD=0.0441P PS=0.77U PD=0.77U
* device instance $7 r0 *1 1.35,0.995 PMOS_VTL
M$7 10 4 14 10 PMOS_VTL L=0.05U W=0.63U AS=0.0441P AD=0.0441P PS=0.77U PD=0.77U
* device instance $8 r0 *1 1.54,0.995 PMOS_VTL
M$8 13 4 10 10 PMOS_VTL L=0.05U W=0.63U AS=0.0441P AD=0.0441P PS=0.77U PD=0.77U
* device instance $9 r0 *1 1.73,0.995 PMOS_VTL
M$9 7 3 13 10 PMOS_VTL L=0.05U W=0.63U AS=0.0441P AD=0.0441P PS=0.77U PD=0.77U
* device instance $11 r0 *1 0.21,0.2975 NMOS_VTL
M$11 7 1 6 9 NMOS_VTL L=0.05U W=0.83U AS=0.072625P AD=0.0581P PS=1.595U PD=1.11U
* device instance $12 r0 *1 0.4,0.2975 NMOS_VTL
M$12 6 2 7 9 NMOS_VTL L=0.05U W=0.83U AS=0.0581P AD=0.0581P PS=1.11U PD=1.11U
* device instance $15 r0 *1 0.97,0.2975 NMOS_VTL
M$15 8 5 6 9 NMOS_VTL L=0.05U W=0.83U AS=0.0581P AD=0.072625P PS=1.11U PD=1.595U
* device instance $16 r0 *1 1.16,0.2975 NMOS_VTL
M$16 9 3 8 9 NMOS_VTL L=0.05U W=0.83U AS=0.0581P AD=0.0581P PS=1.11U PD=1.11U
* device instance $17 r0 *1 1.35,0.2975 NMOS_VTL
M$17 8 4 9 9 NMOS_VTL L=0.05U W=0.83U AS=0.0581P AD=0.0581P PS=1.11U PD=1.11U
.ENDS OAI221_X2

* cell OR3_X1
* pin A1
* pin A2
* pin A3
* pin PWELL,VSS
* pin NWELL,VDD
* pin ZN
.SUBCKT OR3_X1 1 2 3 5 6 7
* net 1 A1
* net 2 A2
* net 3 A3
* net 5 PWELL,VSS
* net 6 NWELL,VDD
* net 7 ZN
* device instance $1 r0 *1 0.17,1.1525 PMOS_VTL
M$1 9 1 4 6 PMOS_VTL L=0.05U W=0.315U AS=0.033075P AD=0.02205P PS=0.84U
+ PD=0.455U
* device instance $2 r0 *1 0.36,1.1525 PMOS_VTL
M$2 8 2 9 6 PMOS_VTL L=0.05U W=0.315U AS=0.02205P AD=0.02205P PS=0.455U
+ PD=0.455U
* device instance $3 r0 *1 0.55,1.1525 PMOS_VTL
M$3 8 3 6 6 PMOS_VTL L=0.05U W=0.315U AS=0.033075P AD=0.02205P PS=0.77U
+ PD=0.455U
* device instance $4 r0 *1 0.74,0.995 PMOS_VTL
M$4 7 4 6 6 PMOS_VTL L=0.05U W=0.63U AS=0.033075P AD=0.06615P PS=0.77U PD=1.47U
* device instance $5 r0 *1 0.17,0.195 NMOS_VTL
M$5 5 1 4 5 NMOS_VTL L=0.05U W=0.21U AS=0.02205P AD=0.0147P PS=0.63U PD=0.35U
* device instance $6 r0 *1 0.36,0.195 NMOS_VTL
M$6 4 2 5 5 NMOS_VTL L=0.05U W=0.21U AS=0.0147P AD=0.0147P PS=0.35U PD=0.35U
* device instance $7 r0 *1 0.55,0.195 NMOS_VTL
M$7 5 3 4 5 NMOS_VTL L=0.05U W=0.21U AS=0.0147P AD=0.021875P PS=0.35U PD=0.555U
* device instance $8 r0 *1 0.74,0.2975 NMOS_VTL
M$8 7 4 5 5 NMOS_VTL L=0.05U W=0.415U AS=0.021875P AD=0.043575P PS=0.555U
+ PD=1.04U
.ENDS OR3_X1

* cell OR4_X2
* pin A1
* pin A2
* pin A3
* pin A4
* pin NWELL,VDD
* pin ZN
* pin PWELL,VSS
.SUBCKT OR4_X2 1 2 3 4 6 7 8
* net 1 A1
* net 2 A2
* net 3 A3
* net 4 A4
* net 6 NWELL,VDD
* net 7 ZN
* net 8 PWELL,VSS
* device instance $1 r0 *1 0.17,0.995 PMOS_VTL
M$1 11 1 5 6 PMOS_VTL L=0.05U W=0.63U AS=0.06615P AD=0.0441P PS=1.47U PD=0.77U
* device instance $2 r0 *1 0.36,0.995 PMOS_VTL
M$2 10 2 11 6 PMOS_VTL L=0.05U W=0.63U AS=0.0441P AD=0.0441P PS=0.77U PD=0.77U
* device instance $3 r0 *1 0.55,0.995 PMOS_VTL
M$3 9 3 10 6 PMOS_VTL L=0.05U W=0.63U AS=0.0441P AD=0.0441P PS=0.77U PD=0.77U
* device instance $4 r0 *1 0.74,0.995 PMOS_VTL