
* cell parameterized_sync_reset_counter
* pin count[1]
* pin enable
* pin count[0]
* pin count[2]
* pin tc
* pin count[3]
* pin count[7]
* pin count[4]
* pin clk
* pin sync_rst
* pin count[6]
* pin count[5]
* pin NWELL
* pin PWELL,gf180mcu_gnd
.SUBCKT parameterized_sync_reset_counter 1 2 3 13 27 31 41 50 56 57 59 60 61 62
* net 1 count[1]
* net 2 enable
* net 3 count[0]
* net 13 count[2]
* net 27 tc
* net 31 count[3]
* net 41 count[7]
* net 50 count[4]
* net 56 clk
* net 57 sync_rst
* net 59 count[6]
* net 60 count[5]
* net 61 NWELL
* net 62 PWELL,gf180mcu_gnd
* cell instance $2 r0 *1 52.08,5.04
X$2 4 61 62 1 gf180mcu_fd_sc_mcu9t5v0__dlyb_2
* cell instance $6 r0 *1 60.48,5.04
X$6 2 61 62 18 gf180mcu_fd_sc_mcu9t5v0__buf_3
* cell instance $11 m0 *1 58.8,15.12
X$11 5 61 62 3 gf180mcu_fd_sc_mcu9t5v0__dlyb_2
* cell instance $14 m0 *1 34.16,55.44
X$14 62 4 30 14 61 gf180mcu_fd_sc_mcu9t5v0__dffq_2
* cell instance $16 r0 *1 44.8,55.44
X$16 62 4 18 5 12 33 61 gf180mcu_fd_sc_mcu9t5v0__nand4_4
* cell instance $18 r0 *1 63.28,55.44
X$18 12 5 4 18 62 61 29 gf180mcu_fd_sc_mcu9t5v0__and4_2
* cell instance $20 m0 *1 53.2,55.44
X$20 62 61 15 17 18 4 gf180mcu_fd_sc_mcu9t5v0__mux2_2
* cell instance $28 r0 *1 52.64,45.36
X$28 62 6 17 5 4 61 gf180mcu_fd_sc_mcu9t5v0__addh_2
* cell instance $30 m0 *1 61.6,55.44
X$30 62 5 11 10 61 gf180mcu_fd_sc_mcu9t5v0__dffq_2
* cell instance $32 r0 *1 77.28,45.36
X$32 62 61 5 9 7 gf180mcu_fd_sc_mcu9t5v0__nand2_2
* cell instance $45 r0 *1 82.32,45.36
X$45 5 62 7 8 61 16 gf180mcu_fd_sc_mcu9t5v0__or3_2
* cell instance $48 r0 *1 73.92,65.52
X$48 12 6 38 36 62 61 19 gf180mcu_fd_sc_mcu9t5v0__and4_2
* cell instance $51 r0 *1 53.76,65.52
X$51 37 12 6 18 62 61 28 gf180mcu_fd_sc_mcu9t5v0__and4_2
* cell instance $55 r0 *1 72.8,55.44
X$55 61 6 18 62 21 gf180mcu_fd_sc_mcu9t5v0__and2_2
* cell instance $58 r0 *1 61.04,65.52
X$58 62 34 12 61 6 18 gf180mcu_fd_sc_mcu9t5v0__nand3_2
* cell instance $61 r0 *1 73.92,45.36
X$61 62 61 18 7 gf180mcu_fd_sc_mcu9t5v0__clkinv_2
* cell instance $67 m0 *1 78.4,85.68
X$67 26 45 40 48 8 61 62 gf180mcu_fd_sc_mcu9t5v0__aoi211_2
* cell instance $69 r0 *1 74.48,75.6
X$69 42 45 39 46 8 61 62 gf180mcu_fd_sc_mcu9t5v0__aoi211_2
* cell instance $71 r0 *1 40.88,85.68
X$71 62 8 61 51 55 49 gf180mcu_fd_sc_mcu9t5v0__aoi21_2
* cell instance $74 r0 *1 26.88,55.44
X$74 62 61 8 23 gf180mcu_fd_sc_mcu9t5v0__clkinv_2
* cell instance $76 r0 *1 63.84,85.68
X$76 62 54 61 53 8 26 58 45 gf180mcu_fd_sc_mcu9t5v0__aoi221_2
* cell instance $83 r0 *1 91.28,55.44
X$83 62 61 20 8 22 gf180mcu_fd_sc_mcu9t5v0__nor2_2
* cell instance $87 r0 *1 2.8,85.68
X$87 62 61 57 8 gf180mcu_fd_sc_mcu9t5v0__clkbuf_4
* cell instance $90 m0 *1 78.4,55.44
X$90 61 16 62 19 9 10 8 gf180mcu_fd_sc_mcu9t5v0__oai22_2
* cell instance $98 m0 *1 67.76,95.76
X$98 62 44 11 58 61 gf180mcu_fd_sc_mcu9t5v0__dffq_2
* cell instance $102 r0 *1 83.44,65.52
X$102 62 61 35 11 gf180mcu_fd_sc_mcu9t5v0__clkbuf_3
* cell instance $104 m0 *1 90.72,55.44
X$104 62 12 11 20 61 gf180mcu_fd_sc_mcu9t5v0__dffq_2
* cell instance $110 r0 *1 84,85.68
X$110 62 37 11 48 61 gf180mcu_fd_sc_mcu9t5v0__dffq_2
* cell instance $112 r0 *1 80.08,55.44
X$112 61 12 21 62 22 gf180mcu_fd_sc_mcu9t5v0__xnor2_2
* cell instance $114 m0 *1 76.72,65.52
X$114 61 12 21 62 26 gf180mcu_fd_sc_mcu9t5v0__and2_2
* cell instance $132 m0 *1 113.12,55.44
X$132 12 61 62 13 gf180mcu_fd_sc_mcu9t5v0__dlyb_2
* cell instance $136 m0 *1 29.12,55.44
X$136 61 23 15 62 14 gf180mcu_fd_sc_mcu9t5v0__and2_2
* cell instance $171 r0 *1 110.88,55.44
X$171 19 61 62 27 gf180mcu_fd_sc_mcu9t5v0__dlyb_2
* cell instance $187 r0 *1 27.44,65.52
X$187 61 23 32 62 24 gf180mcu_fd_sc_mcu9t5v0__and2_2
* cell instance $189 m0 *1 26.88,65.52
X$189 62 25 30 24 61 gf180mcu_fd_sc_mcu9t5v0__dffq_2
* cell instance $192 m0 *1 53.76,95.76
X$192 62 47 37 61 44 25 gf180mcu_fd_sc_mcu9t5v0__nand3_2
* cell instance $194 m0 *1 53.2,65.52
X$194 25 62 28 61 32 gf180mcu_fd_sc_mcu9t5v0__xor2_2
* cell instance $197 r0 *1 52.64,75.6
X$197 37 44 25 43 62 61 36 gf180mcu_fd_sc_mcu9t5v0__and4_2
* cell instance $204 m0 *1 56,85.68
X$204 62 61 37 52 25 gf180mcu_fd_sc_mcu9t5v0__nand2_2
* cell instance $206 r0 *1 19.04,85.68
X$206 25 61 62 50 gf180mcu_fd_sc_mcu9t5v0__dlyb_2
* cell instance $221 m0 *1 73.36,75.6
X$221 62 38 61 39 29 36 gf180mcu_fd_sc_mcu9t5v0__aoi21_2
* cell instance $224 m0 *1 80.64,75.6
X$224 61 37 29 62 40 gf180mcu_fd_sc_mcu9t5v0__xnor2_2
* cell instance $228 r0 *1 84,75.6
X$228 62 38 30 46 61 gf180mcu_fd_sc_mcu9t5v0__dffq_2
* cell instance $230 m0 *1 37.52,75.6
X$230 62 61 35 30 gf180mcu_fd_sc_mcu9t5v0__clkbuf_3
* cell instance $233 m0 *1 36.96,95.76
X$233 62 43 30 51 61 gf180mcu_fd_sc_mcu9t5v0__dffq_2
* cell instance $244 r0 *1 110.88,65.52
X$244 37 61 62 31 gf180mcu_fd_sc_mcu9t5v0__dlyb_2
* cell instance $251 m0 *1 61.04,75.6
X$251 62 61 34 42 33 gf180mcu_fd_sc_mcu9t5v0__nand2_2
* cell instance $256 r0 *1 56,85.68
X$256 61 44 62 33 53 52 gf180mcu_fd_sc_mcu9t5v0__oai21_2
* cell instance $258 m0 *1 61.04,95.76
X$258 44 62 52 33 61 54 gf180mcu_fd_sc_mcu9t5v0__or3_2
* cell instance $264 r0 *1 49.28,85.68
X$264 43 62 47 34 61 55 gf180mcu_fd_sc_mcu9t5v0__or3_2
* cell instance $266 m0 *1 48.16,85.68
X$266 61 43 62 34 49 47 gf180mcu_fd_sc_mcu9t5v0__oai21_2
* cell instance $272 r0 *1 59.92,75.6
X$272 62 61 56 35 gf180mcu_fd_sc_mcu9t5v0__clkbuf_3
* cell instance $278 r0 *1 69.44,75.6
X$278 61 38 36 62 45 gf180mcu_fd_sc_mcu9t5v0__and2_2
* cell instance $307 m0 *1 110.88,75.6
X$307 38 61 62 41 gf180mcu_fd_sc_mcu9t5v0__dlyb_2
* cell instance $325 r0 *1 52.08,136.08
X$325 43 61 62 59 gf180mcu_fd_sc_mcu9t5v0__dlyb_2
* cell instance $333 m0 *1 54.32,136.08
X$333 44 61 62 60 gf180mcu_fd_sc_mcu9t5v0__dlyb_2
.ENDS parameterized_sync_reset_counter

* cell gf180mcu_fd_sc_mcu9t5v0__oai22_2
* pin NWELL,VDD
* pin B2
* pin PWELL,VSS,gf180mcu_gnd
* pin B1
* pin A2
* pin ZN
* pin A1
.SUBCKT gf180mcu_fd_sc_mcu9t5v0__oai22_2 1 2 3 4 5 6 7
* net 1 NWELL,VDD
* net 2 B2
* net 3 PWELL,VSS,gf180mcu_gnd
* net 4 B1
* net 5 A2
* net 6 ZN
* net 7 A1
* device instance $1 r0 *1 0.97,3.78 pmos_5p0
M$1 12 2 1 1 pmos_5p0 L=0.5U W=1.83U AS=0.8052P AD=0.4758P PS=4.54U PD=2.35U
* device instance $2 r0 *1 1.99,3.78 pmos_5p0
M$2 6 4 12 1 pmos_5p0 L=0.5U W=1.83U AS=0.4758P AD=0.61305P PS=2.35U PD=2.5U
* device instance $3 r0 *1 3.16,3.78 pmos_5p0
M$3 9 4 6 1 pmos_5p0 L=0.5U W=1.83U AS=0.61305P AD=0.52155P PS=2.5U PD=2.4U
* device instance $4 r0 *1 4.23,3.78 pmos_5p0
M$4 1 2 9 1 pmos_5p0 L=0.5U W=1.83U AS=0.52155P AD=0.6588P PS=2.4U PD=2.55U
* device instance $5 r0 *1 5.45,3.78 pmos_5p0
M$5 11 5 1 1 pmos_5p0 L=0.5U W=1.83U AS=0.6588P AD=0.52155P PS=2.55U PD=2.4U
* device instance $6 r0 *1 6.52,3.78 pmos_5p0
M$6 6 7 11 1 pmos_5p0 L=0.5U W=1.83U AS=0.52155P AD=0.5673P PS=2.4U PD=2.45U
* device instance $7 r0 *1 7.64,3.78 pmos_5p0
M$7 10 7 6 1 pmos_5p0 L=0.5U W=1.83U AS=0.5673P AD=0.52155P PS=2.45U PD=2.4U
* device instance $8 r0 *1 8.71,3.78 pmos_5p0
M$8 1 5 10 1 pmos_5p0 L=0.5U W=1.83U AS=0.52155P AD=0.8052P PS=2.4U PD=4.54U
* device instance $9 r0 *1 0.92,1.005 nmos_5p0
M$9 3 2 8 3 nmos_5p0 L=0.6U W=2.64U AS=0.924P AD=0.6864P PS=5.36U PD=3.68U
* device instance $10 r0 *1 2.04,1.005 nmos_5p0
M$10 8 4 3 3 nmos_5p0 L=0.6U W=2.64U AS=0.6864P AD=0.6864P PS=3.68U PD=3.68U
* device instance $13 r0 *1 5.4,1.005 nmos_5p0
M$13 6 5 8 3 nmos_5p0 L=0.6U W=2.64U AS=0.6864P AD=0.924P PS=3.68U PD=5.36U
* device instance $14 r0 *1 6.52,1.005 nmos_5p0
M$14 8 7 6 3 nmos_5p0 L=0.6U W=2.64U AS=0.6864P AD=0.6864P PS=3.68U PD=3.68U
.ENDS gf180mcu_fd_sc_mcu9t5v0__oai22_2

* cell gf180mcu_fd_sc_mcu9t5v0__nor2_2
* pin PWELL,VSS,gf180mcu_gnd
* pin NWELL,VDD
* pin ZN
* pin A1
* pin A2
.SUBCKT gf180mcu_fd_sc_mcu9t5v0__nor2_2 1 2 3 4 5
* net 1 PWELL,VSS,gf180mcu_gnd
* net 2 NWELL,VDD
* net 3 ZN
* net 4 A1
* net 5 A2
* device instance $1 r0 *1 0.92,3.78 pmos_5p0
M$1 7 5 2 2 pmos_5p0 L=0.5U W=1.83U AS=0.8052P AD=0.5673P PS=4.54U PD=2.45U
* device instance $2 r0 *1 2.04,3.78 pmos_5p0
M$2 3 4 7 2 pmos_5p0 L=0.5U W=1.83U AS=0.5673P AD=0.52155P PS=2.45U PD=2.4U
* device instance $3 r0 *1 3.11,3.78 pmos_5p0
M$3 6 4 3 2 pmos_5p0 L=0.5U W=1.83U AS=0.52155P AD=0.61305P PS=2.4U PD=2.5U
* device instance $4 r0 *1 4.28,3.78 pmos_5p0
M$4 2 5 6 2 pmos_5p0 L=0.5U W=1.83U AS=0.61305P AD=0.8052P PS=2.5U PD=4.54U
* device instance $5 r0 *1 0.92,1.04 nmos_5p0
M$5 3 5 1 1 nmos_5p0 L=0.6U W=1.84U AS=0.644P AD=0.644P PS=4.16U PD=4.16U
* device instance $6 r0 *1 2.04,1.04 nmos_5p0
M$6 1 4 3 1 nmos_5p0 L=0.6U W=1.84U AS=0.4784P AD=0.4784P PS=2.88U PD=2.88U
.ENDS gf180mcu_fd_sc_mcu9t5v0__nor2_2

* cell gf180mcu_fd_sc_mcu9t5v0__buf_3
* pin I
* pin NWELL,VDD
* pin PWELL,VSS,gf180mcu_gnd
* pin Z
.SUBCKT gf180mcu_fd_sc_mcu9t5v0__buf_3 1 2 3 5
* net 1 I
* net 2 NWELL,VDD
* net 3 PWELL,VSS,gf180mcu_gnd
* net 5 Z
* device instance $1 r0 *1 0.87,3.78 pmos_5p0
M$1 2 1 4 2 pmos_5p0 L=0.5U W=1.83U AS=0.8052P AD=0.74115P PS=4.54U PD=2.64U
* device instance $2 r0 *1 2.18,3.78 pmos_5p0
M$2 5 4 2 2 pmos_5p0 L=0.5U W=5.49U AS=1.87575P AD=1.9398P PS=7.54U PD=9.44U
* device instance $5 r0 *1 0.92,1.005 nmos_5p0
M$5 3 1 4 3 nmos_5p0 L=0.6U W=1.32U AS=0.5808P AD=0.4686P PS=3.52U PD=2.03U
* device instance $6 r0 *1 2.23,1.005 nmos_5p0
M$6 5 4 3 3 nmos_5p0 L=0.6U W=3.96U AS=1.155P AD=1.2672P PS=5.71U PD=7.2U
.ENDS gf180mcu_fd_sc_mcu9t5v0__buf_3

* cell gf180mcu_fd_sc_mcu9t5v0__addh_2
* pin PWELL,VSS,gf180mcu_gnd
* pin CO
* pin S
* pin A
* pin B
* pin NWELL,VDD
.SUBCKT gf180mcu_fd_sc_mcu9t5v0__addh_2 1 2 6 7 8 10
* net 1 PWELL,VSS,gf180mcu_gnd
* net 2 CO
* net 6 S
* net 7 A
* net 8 B
* net 10 NWELL,VDD
* device instance $1 r0 *1 5.99,3.78 pmos_5p0
M$1 11 8 10 10 pmos_5p0 L=0.5U W=1.83U AS=0.8052P AD=0.52155P PS=4.54U PD=2.4U
* device instance $2 r0 *1 7.06,3.78 pmos_5p0
M$2 5 7 11 10 pmos_5p0 L=0.5U W=1.83U AS=0.52155P AD=0.52155P PS=2.4U PD=2.4U
* device instance $3 r0 *1 8.13,3.78 pmos_5p0
M$3 10 3 5 10 pmos_5p0 L=0.5U W=1.83U AS=0.52155P AD=0.8784P PS=2.4U PD=2.79U
* device instance $4 r0 *1 9.59,3.78 pmos_5p0
M$4 6 5 10 10 pmos_5p0 L=0.5U W=3.66U AS=1.39995P AD=1.32675P PS=5.19U PD=6.94U
* device instance $6 r0 *1 0.94,3.78 pmos_5p0
M$6 2 3 10 10 pmos_5p0 L=0.5U W=3.66U AS=1.3725P AD=1.08885P PS=6.99U PD=4.85U
* device instance $8 r0 *1 3.13,3.78 pmos_5p0
M$8 3 7 10 10 pmos_5p0 L=0.5U W=1.83U AS=0.52155P AD=0.4758P PS=2.4U PD=2.35U
* device instance $9 r0 *1 4.15,3.78 pmos_5p0
M$9 10 8 3 10 pmos_5p0 L=0.5U W=1.83U AS=0.4758P AD=0.8052P PS=2.35U PD=4.54U
* device instance $10 r0 *1 5.94,1.005 nmos_5p0
M$10 5 8 4 1 nmos_5p0 L=0.6U W=1.32U AS=0.5808P AD=0.3432P PS=3.52U PD=1.84U
* device instance $11 r0 *1 7.06,1.005 nmos_5p0
M$11 4 7 5 1 nmos_5p0 L=0.6U W=1.32U AS=0.3432P AD=0.3432P PS=1.84U PD=1.84U
* device instance $12 r0 *1 8.18,1.005 nmos_5p0
M$12 1 3 4 1 nmos_5p0 L=0.6U W=1.32U AS=0.3432P AD=0.5016P PS=1.84U PD=2.08U
* device instance $13 r0 *1 9.54,1.005 nmos_5p0
M$13 6 5 1 1 nmos_5p0 L=0.6U W=2.64U AS=0.8448P AD=0.924P PS=3.92U PD=5.36U
* device instance $15 r0 *1 0.94,1.005 nmos_5p0
M$15 2 3 1 1 nmos_5p0 L=0.6U W=2.64U AS=0.924P AD=0.6864P PS=5.36U PD=3.68U
* device instance $17 r0 *1 3.18,1.005 nmos_5p0
M$17 9 7 1 1 nmos_5p0 L=0.6U W=1.32U AS=0.3432P AD=0.2112P PS=1.84U PD=1.64U
* device instance $18 r0 *1 4.1,1.005 nmos_5p0
M$18 3 8 9 1 nmos_5p0 L=0.6U W=1.32U AS=0.2112P AD=0.5808P PS=1.64U PD=3.52U
.ENDS gf180mcu_fd_sc_mcu9t5v0__addh_2

* cell gf180mcu_fd_sc_mcu9t5v0__nand4_4
* pin PWELL,VSS,gf180mcu_gnd
* pin A3
* pin A4
* pin A2
* pin A1
* pin ZN
* pin NWELL,VDD
.SUBCKT gf180mcu_fd_sc_mcu9t5v0__nand4_4 1 3 4 5 6 16 17
* net 1 PWELL,VSS,gf180mcu_gnd
* net 3 A3
* net 4 A4
* net 5 A2
* net 6 A1
* net 16 ZN
* net 17 NWELL,VDD
* device instance $1 r0 *1 0.87,4.055 pmos_5p0
M$1 16 3 17 17 pmos_5p0 L=0.5U W=5.12U AS=1.5616P AD=1.3312P PS=8.84U PD=7.2U
* device instance $2 r0 *1 1.89,4.055 pmos_5p0
M$2 17 4 16 17 pmos_5p0 L=0.5U W=5.12U AS=1.3312P AD=1.3312P PS=7.2U PD=7.2U
* device instance $9 r0 *1 9.03,4.055 pmos_5p0
M$9 16 5 17 17 pmos_5p0 L=0.5U W=5.12U AS=1.3312P AD=1.5616P PS=7.2U PD=8.84U
* device instance $10 r0 *1 10.05,4.055 pmos_5p0
M$10 17 6 16 17 pmos_5p0 L=0.5U W=5.12U AS=1.3312P AD=1.3312P PS=7.2U PD=7.2U
* device instance $17 r0 *1 0.92,1.005 nmos_5p0
M$17 7 3 2 1 nmos_5p0 L=0.6U W=1.32U AS=0.5808P AD=0.2112P PS=3.52U PD=1.64U
* device instance $18 r0 *1 1.84,1.005 nmos_5p0
M$18 1 4 7 1 nmos_5p0 L=0.6U W=1.32U AS=0.2112P AD=0.3432P PS=1.64U PD=1.84U
* device instance $19 r0 *1 2.96,1.005 nmos_5p0
M$19 9 4 1 1 nmos_5p0 L=0.6U W=1.32U AS=0.3432P AD=0.2112P PS=1.84U PD=1.64U
* device instance $20 r0 *1 3.88,1.005 nmos_5p0
M$20 2 3 9 1 nmos_5p0 L=0.6U W=1.32U AS=0.2112P AD=0.3432P PS=1.64U PD=1.84U
* device instance $21 r0 *1 5,1.005 nmos_5p0
M$21 8 3 2 1 nmos_5p0 L=0.6U W=1.32U AS=0.3432P AD=0.2112P PS=1.84U PD=1.64U
* device instance $22 r0 *1 5.92,1.005 nmos_5p0
M$22 1 4 8 1 nmos_5p0 L=0.6U W=1.32U AS=0.2112P AD=0.3432P PS=1.64U PD=1.84U
* device instance $23 r0 *1 7.04,1.005 nmos_5p0
M$23 12 4 1 1 nmos_5p0 L=0.6U W=1.32U AS=0.3432P AD=0.2442P PS=1.84U PD=1.69U
* device instance $24 r0 *1 8.01,1.005 nmos_5p0
M$24 11 3 12 1 nmos_5p0 L=0.6U W=1.32U AS=0.2442P AD=0.2772P PS=1.69U PD=1.74U
* device instance $25 r0 *1 9.03,1.005 nmos_5p0
M$25 14 5 11 1 nmos_5p0 L=0.6U W=1.32U AS=0.2772P AD=0.2442P PS=1.74U PD=1.69U
* device instance $26 r0 *1 10,1.005 nmos_5p0
M$26 16 6 14 1 nmos_5p0 L=0.6U W=1.32U AS=0.2442P AD=0.3432P PS=1.69U PD=1.84U
* device instance $27 r0 *1 11.12,1.005 nmos_5p0
M$27 15 6 16 1 nmos_5p0 L=0.6U W=1.32U AS=0.3432P AD=0.2112P PS=1.84U PD=1.64U
* device instance $28 r0 *1 12.04,1.005 nmos_5p0
M$28 2 5 15 1 nmos_5p0 L=0.6U W=1.32U AS=0.2112P AD=0.3432P PS=1.64U PD=1.84U
* device instance $29 r0 *1 13.16,1.005 nmos_5p0
M$29 10 5 2 1 nmos_5p0 L=0.6U W=1.32U AS=0.3432P AD=0.2112P PS=1.84U PD=1.64U
* device instance $30 r0 *1 14.08,1.005 nmos_5p0
M$30 16 6 10 1 nmos_5p0 L=0.6U W=1.32U AS=0.2112P AD=0.3432P PS=1.64U PD=1.84U
* device instance $31 r0 *1 15.2,1.005 nmos_5p0
M$31 13 6 16 1 nmos_5p0 L=0.6U W=1.32U AS=0.3432P AD=0.2112P PS=1.84U PD=1.64U
* device instance $32 r0 *1 16.12,1.005 nmos_5p0
M$32 2 5 13 1 nmos_5p0 L=0.6U W=1.32U AS=0.2112P AD=0.5808P PS=1.64U PD=3.52U
.ENDS gf180mcu_fd_sc_mcu9t5v0__nand4_4

* cell gf180mcu_fd_sc_mcu9t5v0__xor2_2
* pin A1
* pin PWELL,VSS,gf180mcu_gnd
* pin A2
* pin NWELL,VDD
* pin Z
.SUBCKT gf180mcu_fd_sc_mcu9t5v0__xor2_2 1 2 6 7 8
* net 1 A1
* net 2 PWELL,VSS,gf180mcu_gnd
* net 6 A2
* net 7 NWELL,VDD
* net 8 Z
* device instance $1 r0 *1 0.87,3.947 pmos_5p0
M$1 3 6 7 7 pmos_5p0 L=0.5U W=0.915U AS=0.4026P AD=0.2379P PS=2.71U PD=1.435U
* device instance $2 r0 *1 1.89,3.947 pmos_5p0
M$2 3 1 7 7 pmos_5p0 L=0.5U W=0.915U AS=0.526125P AD=0.2379P PS=2.58U PD=1.435U
* device instance $3 r0 *1 3.14,3.785 pmos_5p0
M$3 5 3 7 7 pmos_5p0 L=0.5U W=1.83U AS=0.526125P AD=0.61305P PS=2.58U PD=2.5U
* device instance $4 r0 *1 4.31,3.785 pmos_5p0
M$4 10 1 5 7 pmos_5p0 L=0.5U W=1.83U AS=0.61305P AD=0.4758P PS=2.5U PD=2.35U
* device instance $5 r0 *1 5.33,3.785 pmos_5p0
M$5 7 6 10 7 pmos_5p0 L=0.5U W=1.83U AS=0.4758P AD=0.8052P PS=2.35U PD=4.54U
* device instance $6 r0 *1 7.27,3.78 pmos_5p0
M$6 8 5 7 7 pmos_5p0 L=0.5U W=3.66U AS=1.281P AD=1.281P PS=6.89U PD=6.89U
* device instance $8 r0 *1 7.22,1.005 nmos_5p0
M$8 8 5 2 2 nmos_5p0 L=0.6U W=2.64U AS=0.924P AD=0.924P PS=5.36U PD=5.36U
* device instance $10 r0 *1 0.92,1.16 nmos_5p0
M$10 9 6 3 2 nmos_5p0 L=0.6U W=0.66U AS=0.2904P AD=0.1056P PS=2.2U PD=0.98U
* device instance $11 r0 *1 1.84,1.16 nmos_5p0
M$11 9 1 2 2 nmos_5p0 L=0.6U W=0.66U AS=0.363P AD=0.1056P PS=2.02U PD=0.98U
* device instance $12 r0 *1 3.14,1.005 nmos_5p0
M$12 4 3 2 2 nmos_5p0 L=0.6U W=1.32U AS=0.363P AD=0.3432P PS=2.02U PD=1.84U
* device instance $13 r0 *1 4.26,1.005 nmos_5p0
M$13 5 1 4 2 nmos_5p0 L=0.6U W=1.32U AS=0.3432P AD=0.3432P PS=1.84U PD=1.84U
* device instance $14 r0 *1 5.38,1.005 nmos_5p0
M$14 4 6 5 2 nmos_5p0 L=0.6U W=1.32U AS=0.3432P AD=0.5808P PS=1.84U PD=3.52U
.ENDS gf180mcu_fd_sc_mcu9t5v0__xor2_2

* cell gf180mcu_fd_sc_mcu9t5v0__mux2_2
* pin PWELL,VSS,gf180mcu_gnd
* pin NWELL,VDD
* pin Z
* pin I1
* pin S
* pin I0
.SUBCKT gf180mcu_fd_sc_mcu9t5v0__mux2_2 1 2 3 4 5 7
* net 1 PWELL,VSS,gf180mcu_gnd
* net 2 NWELL,VDD
* net 3 Z
* net 4 I1
* net 5 S
* net 7 I0
* device instance $1 r0 *1 0.92,3.78 pmos_5p0
M$1 3 6 2 2 pmos_5p0 L=0.5U W=3.66U AS=1.32675P AD=1.18035P PS=6.94U PD=4.95U
* device instance $3 r0 *1 3.21,3.78 pmos_5p0
M$3 12 4 2 2 pmos_5p0 L=0.5U W=1.83U AS=0.6588P AD=0.7137P PS=2.55U PD=2.61U
* device instance $4 r0 *1 4.49,3.78 pmos_5p0
M$4 6 8 12 2 pmos_5p0 L=0.5U W=1.83U AS=0.7137P AD=0.4758P PS=2.61U PD=2.35U
* device instance $5 r0 *1 5.51,3.78 pmos_5p0
M$5 11 5 6 2 pmos_5p0 L=0.5U W=1.83U AS=0.4758P AD=0.2196P PS=2.35U PD=2.07U
* device instance $6 r0 *1 6.25,3.78 pmos_5p0
M$6 2 7 11 2 pmos_5p0 L=0.5U W=1.83U AS=0.2196P AD=0.4758P PS=2.07U PD=2.35U
* device instance $7 r0 *1 7.27,3.78 pmos_5p0
M$7 8 5 2 2 pmos_5p0 L=0.5U W=1.83U AS=0.4758P AD=0.8052P PS=2.35U PD=4.54U
* device instance $8 r0 *1 0.92,1.005 nmos_5p0
M$8 3 6 1 1 nmos_5p0 L=0.6U W=2.64U AS=0.924P AD=0.6864P PS=5.36U PD=3.68U
* device instance $10 r0 *1 3.16,1.005 nmos_5p0
M$10 10 4 1 1 nmos_5p0 L=0.6U W=1.32U AS=0.3432P AD=0.1584P PS=1.84U PD=1.56U
* device instance $11 r0 *1 4,1.005 nmos_5p0
M$11 6 5 10 1 nmos_5p0 L=0.6U W=1.32U AS=0.1584P AD=0.3432P PS=1.56U PD=1.84U
* device instance $12 r0 *1 5.12,1.005 nmos_5p0
M$12 9 8 6 1 nmos_5p0 L=0.6U W=1.32U AS=0.3432P AD=0.3168P PS=1.84U PD=1.8U
* device instance $13 r0 *1 6.2,1.005 nmos_5p0
M$13 1 7 9 1 nmos_5p0 L=0.6U W=1.32U AS=0.3168P AD=0.3432P PS=1.8U PD=1.84U
* device instance $14 r0 *1 7.32,1.005 nmos_5p0
M$14 8 5 1 1 nmos_5p0 L=0.6U W=1.32U AS=0.3432P AD=0.5808P PS=1.84U PD=3.52U
.ENDS gf180mcu_fd_sc_mcu9t5v0__mux2_2

* cell gf180mcu_fd_sc_mcu9t5v0__clkinv_2
* pin PWELL,VSS,gf180mcu_gnd
* pin NWELL,VDD
* pin I
* pin ZN
.SUBCKT gf180mcu_fd_sc_mcu9t5v0__clkinv_2 1 2 3 4
* net 1 PWELL,VSS,gf180mcu_gnd
* net 2 NWELL,VDD
* net 3 I
* net 4 ZN
* device instance $1 r0 *1 0.87,3.78 pmos_5p0
M$1 4 3 2 2 pmos_5p0 L=0.5U W=3.66U AS=1.3725P AD=1.3725P PS=6.99U PD=6.99U
* device instance $3 r0 *1 0.92,1.3 nmos_5p0
M$3 4 3 1 1 nmos_5p0 L=0.6U W=1.46U AS=0.511P AD=0.511P PS=3.59U PD=3.59U
.ENDS gf180mcu_fd_sc_mcu9t5v0__clkinv_2

* cell gf180mcu_fd_sc_mcu9t5v0__clkbuf_4
* pin PWELL,VSS,gf180mcu_gnd
* pin NWELL,VDD
* pin I
* pin Z
.SUBCKT gf180mcu_fd_sc_mcu9t5v0__clkbuf_4 1 2 3 5
* net 1 PWELL,VSS,gf180mcu_gnd
* net 2 NWELL,VDD
* net 3 I
* net 5 Z
* device instance $1 r0 *1 0.87,3.78 pmos_5p0
M$1 4 3 2 2 pmos_5p0 L=0.5U W=3.66U AS=1.3725P AD=1.2993P PS=6.99U PD=5.08U
* device instance $3 r0 *1 3.29,3.78 pmos_5p0
M$3 5 4 2 2 pmos_5p0 L=0.5U W=7.32U AS=2.4339P AD=2.5071P PS=9.98U PD=11.89U
* device instance $7 r0 *1 0.92,1.23 nmos_5p0
M$7 4 3 1 1 nmos_5p0 L=0.6U W=1.46U AS=0.511P AD=0.4593P PS=3.59U PD=2.75U
* device instance $9 r0 *1 3.34,1.265 nmos_5p0
M$9 5 4 1 1 nmos_5p0 L=0.6U W=3.2U AS=0.8935P AD=0.976P PS=5.46U PD=6.44U
.ENDS gf180mcu_fd_sc_mcu9t5v0__clkbuf_4

* cell gf180mcu_fd_sc_mcu9t5v0__nand3_2
* pin PWELL,VSS,gf180mcu_gnd
* pin ZN
* pin A1
* pin NWELL,VDD
* pin A2
* pin A3
.SUBCKT gf180mcu_fd_sc_mcu9t5v0__nand3_2 1 2 3 4 5 6
* net 1 PWELL,VSS,gf180mcu_gnd
* net 2 ZN
* net 3 A1
* net 4 NWELL,VDD
* net 5 A2
* net 6 A3
* device instance $1 r0 *1 0.87,3.85 pmos_5p0
M$1 2 6 4 4 pmos_5p0 L=0.5U W=2.92U AS=1.022P AD=1.022P PS=5.78U PD=5.78U
* device instance $2 r0 *1 1.89,3.85 pmos_5p0
M$2 4 5 2 4 pmos_5p0 L=0.5U W=2.92U AS=0.7592P AD=0.7592P PS=3.96U PD=3.96U
* device instance $3 r0 *1 2.91,3.85 pmos_5p0
M$3 2 3 4 4 pmos_5p0 L=0.5U W=2.92U AS=0.7592P AD=0.7592P PS=3.96U PD=3.96U
* device instance $7 r0 *1 1.06,1 nmos_5p0
M$7 10 6 1 1 nmos_5p0 L=0.6U W=1.32U AS=0.5808P AD=0.1848P PS=3.52U PD=1.6U
* device instance $8 r0 *1 1.94,1 nmos_5p0
M$8 9 5 10 1 nmos_5p0 L=0.6U W=1.32U AS=0.1848P AD=0.2112P PS=1.6U PD=1.64U
* device instance $9 r0 *1 2.86,1 nmos_5p0
M$9 2 3 9 1 nmos_5p0 L=0.6U W=1.32U AS=0.2112P AD=0.3432P PS=1.64U PD=1.84U
* device instance $10 r0 *1 3.98,1 nmos_5p0
M$10 8 3 2 1 nmos_5p0 L=0.6U W=1.32U AS=0.3432P AD=0.2112P PS=1.84U PD=1.64U
* device instance $11 r0 *1 4.9,1 nmos_5p0
M$11 7 5 8 1 nmos_5p0 L=0.6U W=1.32U AS=0.2112P AD=0.2772P PS=1.64U PD=1.74U
* device instance $12 r0 *1 5.92,1 nmos_5p0
M$12 1 6 7 1 nmos_5p0 L=0.6U W=1.32U AS=0.2772P AD=0.5808P PS=1.74U PD=3.52U
.ENDS gf180mcu_fd_sc_mcu9t5v0__nand3_2

* cell gf180mcu_fd_sc_mcu9t5v0__oai21_2
* pin NWELL,VDD
* pin B
* pin PWELL,VSS,gf180mcu_gnd
* pin A2
* pin ZN
* pin A1
.SUBCKT gf180mcu_fd_sc_mcu9t5v0__oai21_2 1 2 3 4 5 6
* net 1 NWELL,VDD
* net 2 B
* net 3 PWELL,VSS,gf180mcu_gnd
* net 4 A2
* net 5 ZN
* net 6 A1
* device instance $1 r0 *1 0.97,3.872 pmos_5p0
M$1 5 2 1 1 pmos_5p0 L=0.5U W=3.29U AS=1.353P AD=0.8554P PS=6.72U PD=4.33U
* device instance $3 r0 *1 3.21,3.78 pmos_5p0
M$3 9 4 1 1 pmos_5p0 L=0.5U W=1.83U AS=0.6292P AD=0.52155P PS=2.55U PD=2.4U
* device instance $4 r0 *1 4.28,3.78 pmos_5p0
M$4 5 6 9 1 pmos_5p0 L=0.5U W=1.83U AS=0.52155P AD=0.5673P PS=2.4U PD=2.45U
* device instance $5 r0 *1 5.4,3.78 pmos_5p0
M$5 8 6 5 1 pmos_5p0 L=0.5U W=1.83U AS=0.5673P AD=0.52155P PS=2.45U PD=2.4U
* device instance $6 r0 *1 6.47,3.78 pmos_5p0
M$6 1 4 8 1 pmos_5p0 L=0.5U W=1.83U AS=0.52155P AD=0.8052P PS=2.4U PD=4.54U
* device instance $7 r0 *1 0.92,1.005 nmos_5p0
M$7 3 2 7 3 nmos_5p0 L=0.6U W=2.64U AS=0.924P AD=0.6864P PS=5.36U PD=3.68U
* device instance $9 r0 *1 3.16,1.005 nmos_5p0
M$9 5 4 7 3 nmos_5p0 L=0.6U W=2.64U AS=0.6864P AD=0.924P PS=3.68U PD=5.36U
* device instance $10 r0 *1 4.28,1.005 nmos_5p0
M$10 7 6 5 3 nmos_5p0 L=0.6U W=2.64U AS=0.6864P AD=0.6864P PS=3.68U PD=3.68U
.ENDS gf180mcu_fd_sc_mcu9t5v0__oai21_2

* cell gf180mcu_fd_sc_mcu9t5v0__or3_2
* pin A1
* pin PWELL,VSS,gf180mcu_gnd
* pin A2
* pin A3
* pin NWELL,VDD
* pin Z
.SUBCKT gf180mcu_fd_sc_mcu9t5v0__or3_2 2 3 4 5 6 7
* net 2 A1
* net 3 PWELL,VSS,gf180mcu_gnd
* net 4 A2
* net 5 A3
* net 6 NWELL,VDD
* net 7 Z
* device instance $1 r0 *1 0.97,3.78 pmos_5p0
M$1 9 2 1 6 pmos_5p0 L=0.5U W=1.83U AS=0.8052P AD=0.52155P PS=4.54U PD=2.4U
* device instance $2 r0 *1 2.04,3.78 pmos_5p0
M$2 8 4 9 6 pmos_5p0 L=0.5U W=1.83U AS=0.52155P AD=0.5673P PS=2.4U PD=2.45U
* device instance $3 r0 *1 3.16,3.78 pmos_5p0
M$3 6 5 8 6 pmos_5p0 L=0.5U W=1.83U AS=0.5673P AD=0.732P PS=2.45U PD=2.63U
* device instance $4 r0 *1 4.46,3.78 pmos_5p0
M$4 7 1 6 6 pmos_5p0 L=0.5U W=3.66U AS=1.25355P AD=1.32675P PS=5.03U PD=6.94U
* device instance $6 r0 *1 0.92,0.87 nmos_5p0
M$6 3 2 1 3 nmos_5p0 L=0.6U W=1.05U AS=0.462P AD=0.273P PS=2.98U PD=1.57U
* device instance $7 r0 *1 2.04,0.87 nmos_5p0
M$7 1 4 3 3 nmos_5p0 L=0.6U W=1.05U AS=0.273P AD=0.273P PS=1.57U PD=1.57U
* device instance $8 r0 *1 3.16,0.87 nmos_5p0
M$8 3 5 1 3 nmos_5p0 L=0.6U W=1.05U AS=0.273P AD=0.4215P PS=1.57U PD=2.02U
* device instance $9 r0 *1 4.46,1.005 nmos_5p0
M$9 7 1 3 3 nmos_5p0 L=0.6U W=2.64U AS=0.7647P AD=0.924P PS=3.86U PD=5.36U
.ENDS gf180mcu_fd_sc_mcu9t5v0__or3_2

* cell gf180mcu_fd_sc_mcu9t5v0__and4_2
* pin A1
* pin A2
* pin A3
* pin A4
* pin PWELL,VSS,gf180mcu_gnd
* pin NWELL,VDD
* pin Z
.SUBCKT gf180mcu_fd_sc_mcu9t5v0__and4_2 1 2 3 4 5 6 8
* net 1 A1
* net 2 A2
* net 3 A3
* net 4 A4
* net 5 PWELL,VSS,gf180mcu_gnd
* net 6 NWELL,VDD
* net 8 Z
* device instance $1 r0 *1 0.925,4.055 pmos_5p0
M$1 7 1 6 6 pmos_5p0 L=0.5U W=1.28U AS=0.5632P AD=0.3328P PS=3.44U PD=1.8U
* device instance $2 r0 *1 1.945,4.055 pmos_5p0
M$2 6 2 7 6 pmos_5p0 L=0.5U W=1.28U AS=0.3328P AD=0.3328P PS=1.8U PD=1.8U
* device instance $3 r0 *1 2.965,4.055 pmos_5p0
M$3 7 3 6 6 pmos_5p0 L=0.5U W=1.28U AS=0.3328P AD=0.3328P PS=1.8U PD=1.8U
* device instance $4 r0 *1 3.985,4.055 pmos_5p0
M$4 7 4 6 6 pmos_5p0 L=0.5U W=1.28U AS=0.558P AD=0.3328P PS=2.53U PD=1.8U
* device instance $5 r0 *1 5.185,3.78 pmos_5p0
M$5 8 7 6 6 pmos_5p0 L=0.5U W=3.66U AS=1.0338P AD=1.281P PS=4.88U PD=6.89U
* device instance $7 r0 *1 0.975,1.005 nmos_5p0
M$7 11 1 7 5 nmos_5p0 L=0.6U W=1.32U AS=0.5808P AD=0.2112P PS=3.52U PD=1.64U
* device instance $8 r0 *1 1.895,1.005 nmos_5p0
M$8 10 2 11 5 nmos_5p0 L=0.6U W=1.32U AS=0.2112P AD=0.2772P PS=1.64U PD=1.74U
* device instance $9 r0 *1 2.915,1.005 nmos_5p0
M$9 9 3 10 5 nmos_5p0 L=0.6U W=1.32U AS=0.2772P AD=0.2772P PS=1.74U PD=1.74U
* device instance $10 r0 *1 3.935,1.005 nmos_5p0
M$10 5 4 9 5 nmos_5p0 L=0.6U W=1.32U AS=0.2772P AD=0.3432P PS=1.74U PD=1.84U
* device instance $11 r0 *1 5.055,1.005 nmos_5p0
M$11 8 7 5 5 nmos_5p0 L=0.6U W=2.64U AS=0.6864P AD=0.924P PS=3.68U PD=5.36U
.ENDS gf180mcu_fd_sc_mcu9t5v0__and4_2

* cell gf180mcu_fd_sc_mcu9t5v0__aoi211_2
* pin A2
* pin A1
* pin B
* pin ZN
* pin C
* pin NWELL,VDD
* pin PWELL,VSS,gf180mcu_gnd
.SUBCKT gf180mcu_fd_sc_mcu9t5v0__aoi211_2 1 2 4 5 6 7 8
* net 1 A2
* net 2 A1
* net 4 B
* net 5 ZN
* net 6 C
* net 7 NWELL,VDD
* net 8 PWELL,VSS,gf180mcu_gnd
* device instance $1 r0 *1 0.87,3.78 pmos_5p0
M$1 5 1 3 7 pmos_5p0 L=0.5U W=3.66U AS=1.281P AD=1.3359P PS=6.89U PD=5.12U
* device instance $2 r0 *1 1.89,3.78 pmos_5p0
M$2 3 2 5 7 pmos_5p0 L=0.5U W=3.66U AS=0.9516P AD=0.9516P PS=4.7U PD=4.7U
* device instance $5 r0 *1 5.37,3.78 pmos_5p0
M$5 12 4 3 7 pmos_5p0 L=0.5U W=1.83U AS=0.8601P AD=0.2196P PS=2.77U PD=2.07U
* device instance $6 r0 *1 6.11,3.78 pmos_5p0
M$6 7 6 12 7 pmos_5p0 L=0.5U W=1.83U AS=0.2196P AD=0.549P PS=2.07U PD=2.43U
* device instance $7 r0 *1 7.21,3.78 pmos_5p0
M$7 11 6 7 7 pmos_5p0 L=0.5U W=1.83U AS=0.549P AD=0.4392P PS=2.43U PD=2.31U
* device instance $8 r0 *1 8.19,3.78 pmos_5p0
M$8 3 4 11 7 pmos_5p0 L=0.5U W=1.83U AS=0.4392P AD=0.8052P PS=2.31U PD=4.54U
* device instance $9 r0 *1 5.02,0.745 nmos_5p0
M$9 5 4 8 8 nmos_5p0 L=0.6U W=1.58U AS=0.5609P AD=0.553P PS=3.195U PD=3.77U
* device instance $10 r0 *1 6.14,0.745 nmos_5p0
M$10 8 6 5 8 nmos_5p0 L=0.6U W=1.58U AS=0.4108P AD=0.4108P PS=2.62U PD=2.62U
* device instance $13 r0 *1 0.92,0.942 nmos_5p0
M$13 10 1 8 8 nmos_5p0 L=0.6U W=1.185U AS=0.5214P AD=0.1422P PS=3.25U PD=1.425U
* device instance $14 r0 *1 1.76,0.942 nmos_5p0
M$14 5 2 10 8 nmos_5p0 L=0.6U W=1.185U AS=0.1422P AD=0.3081P PS=1.425U PD=1.705U
* device instance $15 r0 *1 2.88,0.942 nmos_5p0
M$15 9 2 5 8 nmos_5p0 L=0.6U W=1.185U AS=0.3081P AD=0.1422P PS=1.705U PD=1.425U
* device instance $16 r0 *1 3.72,0.942 nmos_5p0
M$16 8 1 9 8 nmos_5p0 L=0.6U W=1.185U AS=0.1422P AD=0.3555P PS=1.425U PD=1.885U
.ENDS gf180mcu_fd_sc_mcu9t5v0__aoi211_2

* cell gf180mcu_fd_sc_mcu9t5v0__dlyb_2
* pin I
* pin NWELL,VDD
* pin PWELL,VSS,gf180mcu_gnd
* pin Z
.SUBCKT gf180mcu_fd_sc_mcu9t5v0__dlyb_2 1 2 3 7
* net 1 I
* net 2 NWELL,VDD
* net 3 PWELL,VSS,gf180mcu_gnd
* net 7 Z
* device instance $1 r0 *1 4.34,3.365 pmos_5p0
M$1 6 4 10 2 pmos_5p0 L=0.5U W=0.36U AS=0.27P AD=0.1584P PS=1.98U PD=1.6U
* device instance $2 r0 *1 4.34,4.085 pmos_5p0
M$2 10 4 2 2 pmos_5p0 L=0.5U W=0.36U AS=0.528P AD=0.27P PS=3.13U PD=1.98U
* device instance $3 r0 *1 6.14,3.785 pmos_5p0
M$3 7 6 2 2 pmos_5p0 L=0.5U W=3.66U AS=1.14105P AD=1.41825P PS=5.63U PD=7.04U
* device instance $5 r0 *1 2.18,3.365 pmos_5p0
M$5 11 5 4 2 pmos_5p0 L=0.5U W=0.36U AS=0.1584P AD=0.27P PS=1.6U PD=1.98U
* device instance $6 r0 *1 0.87,4.085 pmos_5p0
M$6 2 1 5 2 pmos_5p0 L=0.5U W=0.36U AS=0.1584P AD=0.1458P PS=1.6U PD=1.17U
* device instance $7 r0 *1 2.18,4.085 pmos_5p0
M$7 2 5 11 2 pmos_5p0 L=0.5U W=0.36U AS=0.27P AD=0.1458P PS=1.98U PD=1.17U
* device instance $8 r0 *1 0.92,0.795 nmos_5p0
M$8 3 1 5 3 nmos_5p0 L=0.6U W=0.36U AS=0.1584P AD=0.1278P PS=1.6U PD=1.07U
* device instance $9 r0 *1 2.23,0.795 nmos_5p0
M$9 8 5 3 3 nmos_5p0 L=0.6U W=0.36U AS=0.1278P AD=0.27P PS=1.07U PD=1.98U
* device instance $10 r0 *1 2.23,1.515 nmos_5p0
M$10 4 5 8 3 nmos_5p0 L=0.6U W=0.36U AS=0.27P AD=0.1584P PS=1.98U PD=1.6U
* device instance $11 r0 *1 4.39,0.525 nmos_5p0
M$11 3 4 9 3 nmos_5p0 L=0.6U W=0.36U AS=0.27P AD=0.408P PS=1.98U PD=2.52U
* device instance $12 r0 *1 4.39,1.245 nmos_5p0
M$12 6 4 9 3 nmos_5p0 L=0.6U W=0.36U AS=0.27P AD=0.1584P PS=1.98U PD=1.6U
* device instance $13 r0 *1 6.19,1.005 nmos_5p0
M$13 7 6 3 3 nmos_5p0 L=0.6U W=2.64U AS=0.7512P AD=0.924P PS=4.36U PD=5.36U
.ENDS gf180mcu_fd_sc_mcu9t5v0__dlyb_2

* cell gf180mcu_fd_sc_mcu9t5v0__dffq_2
* pin PWELL,VSS,gf180mcu_gnd
* pin Q
* pin CLK
* pin D
* pin NWELL,VDD
.SUBCKT gf180mcu_fd_sc_mcu9t5v0__dffq_2 1 5 6 7 14
* net 1 PWELL,VSS,gf180mcu_gnd
* net 5 Q
* net 6 CLK
* net 7 D
* net 14 NWELL,VDD
* device instance $1 r0 *1 14.6,3.78 pmos_5p0
M$1 5 4 14 14 pmos_5p0 L=0.5U W=3.66U AS=1.281P AD=1.281P PS=6.89U PD=6.89U
* device instance $3 r0 *1 4.24,3.41 pmos_5p0
M$3 15 2 14 14 pmos_5p0 L=0.5U W=1U AS=0.9462P AD=0.12P PS=4.91U PD=1.24U
* device instance $4 r0 *1 4.98,3.41 pmos_5p0
M$4 8 7 15 14 pmos_5p0 L=0.5U W=1U AS=0.12P AD=0.31P PS=1.24U PD=1.62U
* device instance $5 r0 *1 6.1,3.41 pmos_5p0
M$5 16 3 8 14 pmos_5p0 L=0.5U W=1U AS=0.31P AD=0.12P PS=1.62U PD=1.24U
* device instance $6 r0 *1 6.84,3.41 pmos_5p0
M$6 14 9 16 14 pmos_5p0 L=0.5U W=1U AS=0.12P AD=0.35P PS=1.24U PD=1.7U
* device instance $7 r0 *1 8.04,3.41 pmos_5p0
M$7 9 8 14 14 pmos_5p0 L=0.5U W=1U AS=0.35P AD=0.46P PS=1.7U PD=1.92U
* device instance $8 r0 *1 9.46,3.41 pmos_5p0
M$8 10 3 9 14 pmos_5p0 L=0.5U W=1U AS=0.46P AD=0.4P PS=1.92U PD=1.8U
* device instance $9 r0 *1 10.76,3.41 pmos_5p0
M$9 17 2 10 14 pmos_5p0 L=0.5U W=1U AS=0.4P AD=0.13P PS=1.8U PD=1.26U
* device instance $10 r0 *1 11.52,3.41 pmos_5p0
M$10 17 4 14 14 pmos_5p0 L=0.5U W=1U AS=0.6017P AD=0.13P PS=2.67U PD=1.26U
* device instance $11 r0 *1 12.86,3.78 pmos_5p0
M$11 4 10 14 14 pmos_5p0 L=0.5U W=1.83U AS=0.6017P AD=0.8052P PS=2.67U PD=4.54U
* device instance $12 r0 *1 0.87,3.555 pmos_5p0
M$12 14 6 3 14 pmos_5p0 L=0.5U W=1.38U AS=0.6072P AD=0.4278P PS=3.64U PD=2U
* device instance $13 r0 *1 1.99,3.555 pmos_5p0
M$13 2 3 14 14 pmos_5p0 L=0.5U W=1.38U AS=0.4278P AD=0.6072P PS=2U PD=3.64U
* device instance $14 r0 *1 14.65,1.005 nmos_5p0
M$14 5 4 1 1 nmos_5p0 L=0.6U W=2.64U AS=0.924P AD=0.924P PS=5.36U PD=5.36U
* device instance $16 r0 *1 0.92,1.125 nmos_5p0
M$16 1 6 3 1 nmos_5p0 L=0.6U W=0.79U AS=0.3476P AD=0.2054P PS=2.46U PD=1.31U
* device instance $17 r0 *1 2.04,1.125 nmos_5p0