
* cell parameterized_serdes
* pin load
* pin enable
* pin mode
* pin serial_in
* pin parallel_out[0]
* pin parallel_out[1]
* pin tx_done
* pin rx_done
* pin parallel_in[4]
* pin parallel_in[6]
* pin clk
* pin serial_out
* pin parallel_out[2]
* pin parallel_out[3]
* pin parallel_in[3]
* pin parallel_in[2]
* pin parallel_out[4]
* pin parallel_in[0]
* pin rst_n
* pin parallel_in[5]
* pin parallel_out[6]
* pin parallel_out[5]
* pin parallel_out[7]
* pin parallel_in[7]
* pin parallel_in[1]
* pin NWELL
* pin PWELL,gf180mcu_gnd
.SUBCKT parameterized_serdes 1 2 3 47 55 56 63 65 70 85 86 89 94 112 126 132
+ 153 154 155 156 157 158 159 160 161 163 164
* net 1 load
* net 2 enable
* net 3 mode
* net 47 serial_in
* net 55 parallel_out[0]
* net 56 parallel_out[1]
* net 63 tx_done
* net 65 rx_done
* net 70 parallel_in[4]
* net 85 parallel_in[6]
* net 86 clk
* net 89 serial_out
* net 94 parallel_out[2]
* net 112 parallel_out[3]
* net 126 parallel_in[3]
* net 132 parallel_in[2]
* net 153 parallel_out[4]
* net 154 parallel_in[0]
* net 155 rst_n
* net 156 parallel_in[5]
* net 157 parallel_out[6]
* net 158 parallel_out[5]
* net 159 parallel_out[7]
* net 160 parallel_in[7]
* net 161 parallel_in[1]
* net 163 NWELL
* net 164 PWELL,gf180mcu_gnd
* cell instance $3 r0 *1 48.72,5.04
X$3 164 163 1 21 gf180mcu_fd_sc_mcu9t5v0__clkbuf_3
* cell instance $8 m0 *1 70.56,15.12
X$8 2 163 164 17 gf180mcu_fd_sc_mcu9t5v0__buf_2
* cell instance $10 r0 *1 71.12,5.04
X$10 3 163 164 4 gf180mcu_fd_sc_mcu9t5v0__clkbuf_2
* cell instance $14 m0 *1 75.04,45.36
X$14 164 163 17 60 4 gf180mcu_fd_sc_mcu9t5v0__nand2_2
* cell instance $17 m0 *1 54.88,45.36
X$17 164 39 42 30 40 4 163 gf180mcu_fd_sc_mcu9t5v0__aoi211_4
* cell instance $21 m0 *1 78.4,35.28
X$21 164 163 4 31 gf180mcu_fd_sc_mcu9t5v0__clkinv_2
* cell instance $23 m0 *1 42,15.12
X$23 163 9 6 164 5 gf180mcu_fd_sc_mcu9t5v0__and2_2
* cell instance $25 r0 *1 36.4,25.2
X$25 164 163 23 14 15 5 gf180mcu_fd_sc_mcu9t5v0__mux2_2
* cell instance $28 r0 *1 47.6,35.28
X$28 163 30 29 164 6 gf180mcu_fd_sc_mcu9t5v0__and2_2
* cell instance $31 m0 *1 44.8,35.28
X$31 164 163 6 28 gf180mcu_fd_sc_mcu9t5v0__clkinv_2
* cell instance $34 m0 *1 44.8,25.2
X$34 13 15 20 6 164 163 19 gf180mcu_fd_sc_mcu9t5v0__and4_2
* cell instance $36 m0 *1 50.96,35.28
X$36 163 7 6 164 22 gf180mcu_fd_sc_mcu9t5v0__and2_2
* cell instance $39 r0 *1 43.12,15.12
X$39 18 164 163 15 20 7 gf180mcu_fd_sc_mcu9t5v0__addh_1
* cell instance $44 m0 *1 30.24,35.28
X$44 164 35 163 8 28 9 gf180mcu_fd_sc_mcu9t5v0__aoi21_2
* cell instance $46 r0 *1 19.6,15.12
X$46 164 10 13 12 8 163 gf180mcu_fd_sc_mcu9t5v0__dffrnq_2
* cell instance $49 r0 *1 53.76,25.2
X$49 164 163 25 22 9 20 gf180mcu_fd_sc_mcu9t5v0__mux2_2
* cell instance $58 r0 *1 52.64,15.12
X$58 164 163 11 19 9 16 gf180mcu_fd_sc_mcu9t5v0__mux2_2
* cell instance $60 m0 *1 35.84,55.44
X$60 164 9 30 68 60 163 gf180mcu_fd_sc_mcu9t5v0__aoi21_4
* cell instance $62 r0 *1 44.24,45.36
X$62 163 45 9 67 164 gf180mcu_fd_sc_mcu9t5v0__and2_4
* cell instance $64 m0 *1 37.52,35.28
X$64 164 13 163 35 9 18 gf180mcu_fd_sc_mcu9t5v0__aoi21_2
* cell instance $67 r0 *1 39.2,15.12
X$67 164 163 9 14 gf180mcu_fd_sc_mcu9t5v0__clkinv_2
* cell instance $69 m0 *1 92.96,35.28
X$69 164 10 34 24 27 163 gf180mcu_fd_sc_mcu9t5v0__dffrnq_2
* cell instance $71 r0 *1 14.56,55.44
X$71 164 10 66 12 73 163 gf180mcu_fd_sc_mcu9t5v0__dffrnq_2
* cell instance $73 m0 *1 14,75.6
X$73 164 10 95 12 87 163 gf180mcu_fd_sc_mcu9t5v0__dffrnq_2
* cell instance $75 m0 *1 42.56,85.68
X$75 164 10 110 105 109 163 gf180mcu_fd_sc_mcu9t5v0__dffrnq_2
* cell instance $77 r0 *1 6.16,45.36
X$77 164 10 57 12 52 163 gf180mcu_fd_sc_mcu9t5v0__dffrnq_2
* cell instance $79 m0 *1 93.52,115.92
X$79 164 10 138 115 144 163 gf180mcu_fd_sc_mcu9t5v0__dffrnq_2
* cell instance $82 r0 *1 2.8,95.76
X$82 164 10 122 105 128 163 gf180mcu_fd_sc_mcu9t5v0__dffrnq_2
* cell instance $85 m0 *1 25.76,25.2
X$85 164 10 15 12 23 163 gf180mcu_fd_sc_mcu9t5v0__dffrnq_2
* cell instance $87 r0 *1 104.72,35.28
X$87 164 10 42 24 36 163 gf180mcu_fd_sc_mcu9t5v0__dffrnq_2
* cell instance $89 r0 *1 2.24,35.28
X$89 164 10 26 12 38 163 gf180mcu_fd_sc_mcu9t5v0__dffrnq_2
* cell instance $92 m0 *1 15.68,95.76
X$92 164 10 108 105 113 163 gf180mcu_fd_sc_mcu9t5v0__dffrnq_2
* cell instance $95 m0 *1 28.56,65.52
X$95 164 10 68 12 76 163 gf180mcu_fd_sc_mcu9t5v0__dffrnq_2
* cell instance $98 m0 *1 10.08,85.68
X$98 164 10 102 105 111 163 gf180mcu_fd_sc_mcu9t5v0__dffrnq_2
* cell instance $100 r0 *1 8.96,105.84
X$100 164 10 141 105 145 163 gf180mcu_fd_sc_mcu9t5v0__dffrnq_2
* cell instance $102 m0 *1 66.08,55.44
X$102 164 10 61 24 64 163 gf180mcu_fd_sc_mcu9t5v0__dffrnq_2
* cell instance $104 m0 *1 74.48,115.92
X$104 164 10 124 115 152 163 gf180mcu_fd_sc_mcu9t5v0__dffrnq_2
* cell instance $107 m0 *1 30.8,105.84
X$107 164 10 130 105 129 163 gf180mcu_fd_sc_mcu9t5v0__dffrnq_2
* cell instance $109 r0 *1 41.44,115.92
X$109 164 10 150 105 149 163 gf180mcu_fd_sc_mcu9t5v0__dffrnq_2
* cell instance $111 r0 *1 42.56,105.84
X$111 164 10 146 105 142 163 gf180mcu_fd_sc_mcu9t5v0__dffrnq_2
* cell instance $114 r0 *1 104.16,95.76
X$114 164 10 119 115 117 163 gf180mcu_fd_sc_mcu9t5v0__dffrnq_2
* cell instance $116 m0 *1 104.72,65.52
X$116 164 10 81 24 82 163 gf180mcu_fd_sc_mcu9t5v0__dffrnq_2
* cell instance $118 m0 *1 103.04,105.84
X$118 164 10 125 115 131 163 gf180mcu_fd_sc_mcu9t5v0__dffrnq_2
* cell instance $121 r0 *1 61.04,15.12
X$121 164 10 16 24 11 163 gf180mcu_fd_sc_mcu9t5v0__dffrnq_2
* cell instance $124 r0 *1 68.88,65.52
X$124 164 10 62 24 78 163 gf180mcu_fd_sc_mcu9t5v0__dffrnq_2
* cell instance $127 r0 *1 70.56,75.6
X$127 164 10 80 115 101 163 gf180mcu_fd_sc_mcu9t5v0__dffrnq_2
* cell instance $129 r0 *1 104.72,65.52
X$129 164 10 90 24 99 163 gf180mcu_fd_sc_mcu9t5v0__dffrnq_2
* cell instance $131 m0 *1 50.96,115.92
X$131 164 10 135 105 143 163 gf180mcu_fd_sc_mcu9t5v0__dffrnq_2
* cell instance $134 m0 *1 70,95.76
X$134 164 10 123 115 133 163 gf180mcu_fd_sc_mcu9t5v0__dffrnq_2
* cell instance $136 m0 *1 16.8,115.92
X$136 164 10 148 105 147 163 gf180mcu_fd_sc_mcu9t5v0__dffrnq_2
* cell instance $138 m0 *1 52.08,25.2
X$138 164 10 20 12 25 163 gf180mcu_fd_sc_mcu9t5v0__dffrnq_2
* cell instance $140 r0 *1 68.32,95.76
X$140 164 10 116 115 140 163 gf180mcu_fd_sc_mcu9t5v0__dffrnq_2
* cell instance $142 r0 *1 39.2,75.6
X$142 164 10 96 105 104 163 gf180mcu_fd_sc_mcu9t5v0__dffrnq_2
* cell instance $174 r0 *1 78.4,105.84
X$174 164 151 10 163 gf180mcu_fd_sc_mcu9t5v0__buf_12
* cell instance $198 r0 *1 33.6,55.44
X$198 164 163 12 gf180mcu_fd_sc_mcu9t5v0__clkinv_3
* cell instance $202 m0 *1 28,55.44
X$202 164 163 59 12 gf180mcu_fd_sc_mcu9t5v0__clkbuf_3
* cell instance $208 r0 *1 44.8,25.2
X$208 164 16 163 29 18 13 gf180mcu_fd_sc_mcu9t5v0__aoi21_2
* cell instance $225 r0 *1 75.6,35.28
X$225 163 32 48 21 17 31 164 gf180mcu_fd_sc_mcu9t5v0__oai211_2
* cell instance $232 m0 *1 81.76,35.28
X$232 163 17 31 164 33 gf180mcu_fd_sc_mcu9t5v0__and2_2
* cell instance $235 r0 *1 68.32,35.28
X$235 164 163 17 40 gf180mcu_fd_sc_mcu9t5v0__clkinv_2
* cell instance $238 r0 *1 78.96,45.36
X$238 17 31 32 49 164 163 74 gf180mcu_fd_sc_mcu9t5v0__and4_2
* cell instance $261 m0 *1 49.28,45.36
X$261 164 21 29 163 45 gf180mcu_fd_sc_mcu9t5v0__or2_2
* cell instance $268 r0 *1 86.24,45.36
X$268 51 61 21 49 34 163 164 gf180mcu_fd_sc_mcu9t5v0__aoi211_2
* cell instance $270 r0 *1 52.64,35.28
X$270 164 163 21 30 gf180mcu_fd_sc_mcu9t5v0__inv_4
* cell instance $273 m0 *1 99.12,45.36
X$273 163 21 33 164 46 gf180mcu_fd_sc_mcu9t5v0__and2_2
* cell instance $281 r0 *1 85.12,55.44
X$281 164 163 59 24 gf180mcu_fd_sc_mcu9t5v0__clkbuf_3
* cell instance $299 r0 *1 80.64,55.44
X$299 164 163 24 gf180mcu_fd_sc_mcu9t5v0__inv_3
* cell instance $307 m0 *1 6.16,35.28
X$307 26 163 164 55 gf180mcu_fd_sc_mcu9t5v0__dlyb_2
* cell instance $310 r0 *1 5.6,55.44
X$310 164 163 38 26 58 44 gf180mcu_fd_sc_mcu9t5v0__mux2_2
* cell instance $314 m0 *1 90.72,45.36
X$314 164 163 27 50 39 34 gf180mcu_fd_sc_mcu9t5v0__mux2_2
* cell instance $343 m0 *1 49.28,75.6
X$343 163 30 96 164 97 gf180mcu_fd_sc_mcu9t5v0__and2_2
* cell instance $345 m0 *1 19.6,65.52
X$345 163 30 66 164 77 gf180mcu_fd_sc_mcu9t5v0__and2_2
* cell instance $347 r0 *1 23.52,75.6
X$347 163 30 95 164 103 gf180mcu_fd_sc_mcu9t5v0__and2_2
* cell instance $349 m0 *1 38.64,95.76
X$349 163 30 130 164 121 gf180mcu_fd_sc_mcu9t5v0__and2_2
* cell instance $354 m0 *1 25.76,105.84
X$354 163 30 141 164 134 gf180mcu_fd_sc_mcu9t5v0__and2_2
* cell instance $356 m0 *1 10.64,55.44
X$356 163 30 44 164 72 gf180mcu_fd_sc_mcu9t5v0__and2_2
* cell instance $358 r0 *1 25.2,85.68
X$358 163 30 108 164 114 gf180mcu_fd_sc_mcu9t5v0__and2_2
* cell instance $364 r0 *1 76.72,55.44
X$364 164 163 42 32 gf180mcu_fd_sc_mcu9t5v0__clkinv_2
* cell instance $369 r0 *1 85.68,35.28
X$369 164 43 163 36 37 32 gf180mcu_fd_sc_mcu9t5v0__aoi21_2
* cell instance $374 r0 *1 92.96,35.28
X$374 163 33 164 41 37 34 gf180mcu_fd_sc_mcu9t5v0__oai21_2
* cell instance $389 m0 *1 101.36,55.44
X$389 164 163 34 69 gf180mcu_fd_sc_mcu9t5v0__clkinv_2
* cell instance $406 r0 *1 67.2,45.36
X$406 164 53 163 64 54 39 gf180mcu_fd_sc_mcu9t5v0__aoi21_2
* cell instance $415 m0 *1 94.08,55.44
X$415 164 61 163 53 39 51 gf180mcu_fd_sc_mcu9t5v0__aoi21_2
* cell instance $420 r0 *1 95.76,45.36
X$420 163 61 51 164 41 gf180mcu_fd_sc_mcu9t5v0__and2_2
* cell instance $423 r0 *1 116.48,45.36
X$423 42 163 164 63 gf180mcu_fd_sc_mcu9t5v0__dlyb_2
* cell instance $431 m0 *1 75.6,105.84
X$431 164 163 140 136 43 116 gf180mcu_fd_sc_mcu9t5v0__mux2_2
* cell instance $434 m0 *1 115.92,95.76
X$434 164 163 131 127 43 125 gf180mcu_fd_sc_mcu9t5v0__mux2_2
* cell instance $436 m0 *1 80.64,126
X$436 164 163 152 162 43 124 gf180mcu_fd_sc_mcu9t5v0__mux2_2
* cell instance $438 r0 *1 87.36,95.76
X$438 164 163 133 139 43 123 gf180mcu_fd_sc_mcu9t5v0__mux2_2
* cell instance $449 m0 *1 104.72,45.36
X$449 164 46 43 163 gf180mcu_fd_sc_mcu9t5v0__clkbuf_8
* cell instance $453 r0 *1 110.88,55.44
X$453 164 163 82 71 43 81 gf180mcu_fd_sc_mcu9t5v0__mux2_2
* cell instance $455 r0 *1 110.88,85.68
X$455 164 163 117 118 43 119 gf180mcu_fd_sc_mcu9t5v0__mux2_2
* cell instance $457 m0 *1 94.64,105.84
X$457 164 163 144 137 43 138 gf180mcu_fd_sc_mcu9t5v0__mux2_2
* cell instance $460 r0 *1 110.88,75.6
X$460 164 163 99 106 43 90 gf180mcu_fd_sc_mcu9t5v0__mux2_2
* cell instance $462 m0 *1 3.36,45.36
X$462 47 163 164 44 gf180mcu_fd_sc_mcu9t5v0__dlyb_2
* cell instance $471 m0 *1 49.84,55.44
X$471 164 45 60 68 163 58 gf180mcu_fd_sc_mcu9t5v0__or3_4
* cell instance $477 m0 *1 72.24,65.52
X$477 164 163 78 74 84 48 gf180mcu_fd_sc_mcu9t5v0__mux2_2
* cell instance $481 m0 *1 80.64,65.52
X$481 164 83 163 74 79 48 80 gf180mcu_fd_sc_mcu9t5v0__aoi22_2
* cell instance $484 m0 *1 86.8,55.44
X$484 61 62 80 49 164 163 50 gf180mcu_fd_sc_mcu9t5v0__and4_2
* cell instance $490 r0 *1 75.6,45.36
X$490 164 163 49 54 gf180mcu_fd_sc_mcu9t5v0__clkinv_2
* cell instance $495 m0 *1 91.28,65.52
X$495 164 51 83 62 80 163 gf180mcu_fd_sc_mcu9t5v0__addh_2
* cell instance $502 m0 *1 2.24,55.44
X$502 164 163 52 57 58 66 gf180mcu_fd_sc_mcu9t5v0__mux2_2
* cell instance $517 m0 *1 2.24,65.52
X$517 57 163 164 56 gf180mcu_fd_sc_mcu9t5v0__dlyb_2
* cell instance $525 r0 *1 21.84,115.92
X$525 164 163 147 148 58 141 gf180mcu_fd_sc_mcu9t5v0__mux2_2
* cell instance $527 m0 *1 7.28,95.76
X$527 164 163 128 122 58 108 gf180mcu_fd_sc_mcu9t5v0__mux2_2
* cell instance $529 m0 *1 42.56,115.92
X$529 164 163 142 146 58 96 gf180mcu_fd_sc_mcu9t5v0__mux2_2
* cell instance $531 m0 *1 44.8,126
X$531 164 163 149 150 58 130 gf180mcu_fd_sc_mcu9t5v0__mux2_2
* cell instance $544 m0 *1 52.08,105.84
X$544 164 163 143 135 58 110 gf180mcu_fd_sc_mcu9t5v0__mux2_2
* cell instance $546 r0 *1 12.32,75.6
X$546 164 163 111 102 58 95 gf180mcu_fd_sc_mcu9t5v0__mux2_2
* cell instance $549 r0 *1 54.88,65.52
X$549 164 163 86 59 gf180mcu_fd_sc_mcu9t5v0__clkbuf_3
* cell instance $558 r0 *1 26.32,95.76
X$558 164 163 59 105 gf180mcu_fd_sc_mcu9t5v0__clkbuf_3
* cell instance $560 m0 *1 89.04,95.76
X$560 164 163 59 115 gf180mcu_fd_sc_mcu9t5v0__clkbuf_3
* cell instance $567 r0 *1 43.12,55.44
X$567 164 67 163 76 60 75 gf180mcu_fd_sc_mcu9t5v0__aoi21_2
* cell instance $574 m0 *1 87.36,75.6
X$574 61 164 62 88 163 92 gf180mcu_fd_sc_mcu9t5v0__or3_2
* cell instance $577 r0 *1 91.84,65.52
X$577 61 164 84 91 163 93 gf180mcu_fd_sc_mcu9t5v0__or3_2
* cell instance $588 m0 *1 95.76,75.6
X$588 164 163 61 100 107 gf180mcu_fd_sc_mcu9t5v0__nand2_2
* cell instance $598 m0 *1 96.88,95.76
X$598 164 120 80 119 124 62 138 125 163 gf180mcu_fd_sc_mcu9t5v0__mux4_2
* cell instance $602 r0 *1 87.92,65.52
X$602 164 163 62 84 gf180mcu_fd_sc_mcu9t5v0__clkinv_2
* cell instance $608 m0 *1 11.2,65.52
X$608 68 163 164 65 gf180mcu_fd_sc_mcu9t5v0__dlyb_2
* cell instance $616 m0 *1 17.36,55.44
X$616 164 163 73 72 67 66 gf180mcu_fd_sc_mcu9t5v0__mux2_2
* cell instance $621 r0 *1 47.6,85.68
X$621 164 163 109 97 67 110 gf180mcu_fd_sc_mcu9t5v0__mux2_2
* cell instance $624 r0 *1 34.16,95.76
X$624 164 163 129 134 67 130 gf180mcu_fd_sc_mcu9t5v0__mux2_2
* cell instance $632 m0 *1 16.8,105.84
X$632 164 163 145 114 67 141 gf180mcu_fd_sc_mcu9t5v0__mux2_2
* cell instance $634 r0 *1 39.2,85.68
X$634 164 163 104 121 67 96 gf180mcu_fd_sc_mcu9t5v0__mux2_2
* cell instance $638 r0 *1 19.04,65.52
X$638 164 163 87 77 67 95 gf180mcu_fd_sc_mcu9t5v0__mux2_2
* cell instance $642 r0 *1 16.8,85.68
X$642 164 163 113 103 67 108 gf180mcu_fd_sc_mcu9t5v0__mux2_2
* cell instance $652 r0 *1 50.4,55.44
X$652 164 163 68 75 gf180mcu_fd_sc_mcu9t5v0__clkinv_2
* cell instance $655 m0 *1 100.8,75.6
X$655 69 100 92 93 164 163 98 gf180mcu_fd_sc_mcu9t5v0__and4_2
* cell instance $657 m0 *1 116.48,55.44
X$657 70 163 164 71 gf180mcu_fd_sc_mcu9t5v0__dlyb_2
* cell instance $688 m0 *1 81.76,75.6
X$688 164 163 79 101 gf180mcu_fd_sc_mcu9t5v0__clkinv_2
* cell instance $691 r0 *1 82.88,85.68
X$691 164 163 88 116 80 123 gf180mcu_fd_sc_mcu9t5v0__mux2_2
* cell instance $693 m0 *1 108.08,75.6
X$693 164 163 91 81 80 90 gf180mcu_fd_sc_mcu9t5v0__mux2_2
* cell instance $730 m0 *1 108.08,85.68
X$730 85 163 164 106 gf180mcu_fd_sc_mcu9t5v0__dlyb_2
* cell instance $743 m0 *1 116.48,75.6
X$743 98 163 164 89 gf180mcu_fd_sc_mcu9t5v0__dlyb_2
* cell instance $765 r0 *1 3.92,75.6
X$765 102 163 164 94 gf180mcu_fd_sc_mcu9t5v0__dlyb_2
* cell instance $841 r0 *1 102.48,75.6
X$841 164 163 120 107 gf180mcu_fd_sc_mcu9t5v0__clkinv_2
* cell instance $863 m0 *1 2.24,105.84
X$863 122 163 164 112 gf180mcu_fd_sc_mcu9t5v0__dlyb_2
* cell instance $873 r0 *1 78.4,85.68
X$873 164 163 115 gf180mcu_fd_sc_mcu9t5v0__inv_3
* cell instance $899 r0 *1 108.08,105.84
X$899 126 163 164 118 gf180mcu_fd_sc_mcu9t5v0__dlyb_2
* cell instance $937 r0 *1 116.48,105.84
X$937 132 163 164 127 gf180mcu_fd_sc_mcu9t5v0__dlyb_2
* cell instance $970 r0 *1 63.84,115.92
X$970 135 163 164 159 gf180mcu_fd_sc_mcu9t5v0__dlyb_2
* cell instance $975 r0 *1 72.24,115.92
X$975 156 163 164 136 gf180mcu_fd_sc_mcu9t5v0__dlyb_2
* cell instance $977 r0 *1 101.92,115.92
X$977 154 163 164 137 gf180mcu_fd_sc_mcu9t5v0__dlyb_2
* cell instance $988 m0 *1 89.04,126
X$988 160 163 164 139 gf180mcu_fd_sc_mcu9t5v0__dlyb_2
* cell instance $1012 m0 *1 53.76,126
X$1012 146 163 164 157 gf180mcu_fd_sc_mcu9t5v0__dlyb_2
* cell instance $1022 r0 *1 31.92,115.92
X$1022 148 163 164 153 gf180mcu_fd_sc_mcu9t5v0__dlyb_2
* cell instance $1030 m0 *1 62.16,126
X$1030 150 163 164 158 gf180mcu_fd_sc_mcu9t5v0__dlyb_2
* cell instance $1039 r0 *1 81.2,115.92
X$1039 164 151 155 163 gf180mcu_fd_sc_mcu9t5v0__dlyc_2
* cell instance $2332 m0 *1 72.24,126
X$2332 161 163 164 162 gf180mcu_fd_sc_mcu9t5v0__dlyb_2
.ENDS parameterized_serdes

* cell gf180mcu_fd_sc_mcu9t5v0__buf_2
* pin I
* pin NWELL,VDD
* pin PWELL,VSS,gf180mcu_gnd
* pin Z
.SUBCKT gf180mcu_fd_sc_mcu9t5v0__buf_2 1 2 3 5
* net 1 I
* net 2 NWELL,VDD
* net 3 PWELL,VSS,gf180mcu_gnd
* net 5 Z
* device instance $1 r0 *1 0.87,3.78 pmos_5p0
M$1 2 1 4 2 pmos_5p0 L=0.5U W=1.83U AS=0.8052P AD=0.5673P PS=4.54U PD=2.45U
* device instance $2 r0 *1 1.99,3.78 pmos_5p0
M$2 5 4 2 2 pmos_5p0 L=0.5U W=3.66U AS=1.1346P AD=1.3725P PS=4.9U PD=6.99U
* device instance $4 r0 *1 0.92,1.005 nmos_5p0
M$4 3 1 4 3 nmos_5p0 L=0.6U W=1.32U AS=0.5808P AD=0.3432P PS=3.52U PD=1.84U
* device instance $5 r0 *1 2.04,1.005 nmos_5p0
M$5 5 4 3 3 nmos_5p0 L=0.6U W=2.64U AS=0.6864P AD=0.924P PS=3.68U PD=5.36U
.ENDS gf180mcu_fd_sc_mcu9t5v0__buf_2

* cell gf180mcu_fd_sc_mcu9t5v0__clkbuf_2
* pin I
* pin NWELL,VDD
* pin PWELL,VSS,gf180mcu_gnd
* pin Z
.SUBCKT gf180mcu_fd_sc_mcu9t5v0__clkbuf_2 1 2 3 5
* net 1 I
* net 2 NWELL,VDD
* net 3 PWELL,VSS,gf180mcu_gnd
* net 5 Z
* device instance $1 r0 *1 0.87,3.78 pmos_5p0
M$1 2 1 4 2 pmos_5p0 L=0.5U W=1.83U AS=0.8052P AD=0.732P PS=4.54U PD=2.63U
* device instance $2 r0 *1 2.17,3.78 pmos_5p0
M$2 5 4 2 2 pmos_5p0 L=0.5U W=3.66U AS=1.2993P AD=1.3725P PS=5.08U PD=6.99U
* device instance $4 r0 *1 0.92,1.23 nmos_5p0
M$4 3 1 4 3 nmos_5p0 L=0.6U W=0.73U AS=0.3212P AD=0.2695P PS=2.34U PD=1.5U
* device instance $5 r0 *1 2.22,1.265 nmos_5p0
M$5 5 4 3 3 nmos_5p0 L=0.6U W=1.6U AS=0.4775P AD=0.56P PS=2.82U PD=3.8U
.ENDS gf180mcu_fd_sc_mcu9t5v0__clkbuf_2

* cell gf180mcu_fd_sc_mcu9t5v0__aoi211_2
* pin A2
* pin A1
* pin B
* pin ZN
* pin C
* pin NWELL,VDD
* pin PWELL,VSS,gf180mcu_gnd
.SUBCKT gf180mcu_fd_sc_mcu9t5v0__aoi211_2 1 2 4 5 6 7 8
* net 1 A2
* net 2 A1
* net 4 B
* net 5 ZN
* net 6 C
* net 7 NWELL,VDD
* net 8 PWELL,VSS,gf180mcu_gnd
* device instance $1 r0 *1 0.87,3.78 pmos_5p0
M$1 5 1 3 7 pmos_5p0 L=0.5U W=3.66U AS=1.281P AD=1.3359P PS=6.89U PD=5.12U
* device instance $2 r0 *1 1.89,3.78 pmos_5p0
M$2 3 2 5 7 pmos_5p0 L=0.5U W=3.66U AS=0.9516P AD=0.9516P PS=4.7U PD=4.7U
* device instance $5 r0 *1 5.37,3.78 pmos_5p0
M$5 12 4 3 7 pmos_5p0 L=0.5U W=1.83U AS=0.8601P AD=0.2196P PS=2.77U PD=2.07U
* device instance $6 r0 *1 6.11,3.78 pmos_5p0
M$6 7 6 12 7 pmos_5p0 L=0.5U W=1.83U AS=0.2196P AD=0.549P PS=2.07U PD=2.43U
* device instance $7 r0 *1 7.21,3.78 pmos_5p0
M$7 11 6 7 7 pmos_5p0 L=0.5U W=1.83U AS=0.549P AD=0.4392P PS=2.43U PD=2.31U
* device instance $8 r0 *1 8.19,3.78 pmos_5p0
M$8 3 4 11 7 pmos_5p0 L=0.5U W=1.83U AS=0.4392P AD=0.8052P PS=2.31U PD=4.54U
* device instance $9 r0 *1 5.02,0.745 nmos_5p0
M$9 5 4 8 8 nmos_5p0 L=0.6U W=1.58U AS=0.5609P AD=0.553P PS=3.195U PD=3.77U
* device instance $10 r0 *1 6.14,0.745 nmos_5p0
M$10 8 6 5 8 nmos_5p0 L=0.6U W=1.58U AS=0.4108P AD=0.4108P PS=2.62U PD=2.62U
* device instance $13 r0 *1 0.92,0.942 nmos_5p0
M$13 10 1 8 8 nmos_5p0 L=0.6U W=1.185U AS=0.5214P AD=0.1422P PS=3.25U PD=1.425U
* device instance $14 r0 *1 1.76,0.942 nmos_5p0
M$14 5 2 10 8 nmos_5p0 L=0.6U W=1.185U AS=0.1422P AD=0.3081P PS=1.425U PD=1.705U
* device instance $15 r0 *1 2.88,0.942 nmos_5p0
M$15 9 2 5 8 nmos_5p0 L=0.6U W=1.185U AS=0.3081P AD=0.1422P PS=1.705U PD=1.425U
* device instance $16 r0 *1 3.72,0.942 nmos_5p0
M$16 8 1 9 8 nmos_5p0 L=0.6U W=1.185U AS=0.1422P AD=0.3555P PS=1.425U PD=1.885U
.ENDS gf180mcu_fd_sc_mcu9t5v0__aoi211_2

* cell gf180mcu_fd_sc_mcu9t5v0__clkbuf_8
* pin PWELL,VSS,gf180mcu_gnd
* pin I
* pin Z
* pin NWELL,VDD
.SUBCKT gf180mcu_fd_sc_mcu9t5v0__clkbuf_8 1 2 4 5
* net 1 PWELL,VSS,gf180mcu_gnd
* net 2 I
* net 4 Z
* net 5 NWELL,VDD
* device instance $1 r0 *1 0.87,3.78 pmos_5p0
M$1 3 2 5 5 pmos_5p0 L=0.5U W=7.32U AS=2.5071P AD=2.4339P PS=11.89U PD=9.98U
* device instance $5 r0 *1 5.53,3.78 pmos_5p0
M$5 4 3 5 5 pmos_5p0 L=0.5U W=14.64U AS=4.7031P AD=4.7763P PS=19.78U PD=21.69U
* device instance $13 r0 *1 0.92,1.3 nmos_5p0
M$13 3 2 1 1 nmos_5p0 L=0.6U W=2.92U AS=0.9703P AD=0.7592P PS=6.34U PD=5U
* device instance $17 r0 *1 5.58,1.265 nmos_5p0
M$17 4 3 1 1 nmos_5p0 L=0.6U W=6.4U AS=1.7255P AD=1.808P PS=10.74U PD=11.72U
.ENDS gf180mcu_fd_sc_mcu9t5v0__clkbuf_8

* cell gf180mcu_fd_sc_mcu9t5v0__oai21_2
* pin NWELL,VDD
* pin B
* pin PWELL,VSS,gf180mcu_gnd
* pin A2
* pin ZN
* pin A1
.SUBCKT gf180mcu_fd_sc_mcu9t5v0__oai21_2 1 2 3 4 5 6
* net 1 NWELL,VDD
* net 2 B
* net 3 PWELL,VSS,gf180mcu_gnd
* net 4 A2
* net 5 ZN
* net 6 A1
* device instance $1 r0 *1 0.97,3.872 pmos_5p0
M$1 5 2 1 1 pmos_5p0 L=0.5U W=3.29U AS=1.353P AD=0.8554P PS=6.72U PD=4.33U
* device instance $3 r0 *1 3.21,3.78 pmos_5p0
M$3 9 4 1 1 pmos_5p0 L=0.5U W=1.83U AS=0.6292P AD=0.52155P PS=2.55U PD=2.4U
* device instance $4 r0 *1 4.28,3.78 pmos_5p0
M$4 5 6 9 1 pmos_5p0 L=0.5U W=1.83U AS=0.52155P AD=0.5673P PS=2.4U PD=2.45U
* device instance $5 r0 *1 5.4,3.78 pmos_5p0
M$5 8 6 5 1 pmos_5p0 L=0.5U W=1.83U AS=0.5673P AD=0.52155P PS=2.45U PD=2.4U
* device instance $6 r0 *1 6.47,3.78 pmos_5p0
M$6 1 4 8 1 pmos_5p0 L=0.5U W=1.83U AS=0.52155P AD=0.8052P PS=2.4U PD=4.54U
* device instance $7 r0 *1 0.92,1.005 nmos_5p0
M$7 3 2 7 3 nmos_5p0 L=0.6U W=2.64U AS=0.924P AD=0.6864P PS=5.36U PD=3.68U
* device instance $9 r0 *1 3.16,1.005 nmos_5p0
M$9 5 4 7 3 nmos_5p0 L=0.6U W=2.64U AS=0.6864P AD=0.924P PS=3.68U PD=5.36U
* device instance $10 r0 *1 4.28,1.005 nmos_5p0
M$10 7 6 5 3 nmos_5p0 L=0.6U W=2.64U AS=0.6864P AD=0.6864P PS=3.68U PD=3.68U
.ENDS gf180mcu_fd_sc_mcu9t5v0__oai21_2

* cell gf180mcu_fd_sc_mcu9t5v0__oai211_2
* pin NWELL,VDD
* pin A2
* pin ZN
* pin A1
* pin B
* pin C
* pin PWELL,VSS,gf180mcu_gnd
.SUBCKT gf180mcu_fd_sc_mcu9t5v0__oai211_2 1 2 3 4 5 6 7
* net 1 NWELL,VDD
* net 2 A2
* net 3 ZN
* net 4 A1
* net 5 B
* net 6 C
* net 7 PWELL,VSS,gf180mcu_gnd
* device instance $1 r0 *1 0.97,3.78 pmos_5p0
M$1 12 2 1 1 pmos_5p0 L=0.5U W=1.83U AS=0.8052P AD=0.52155P PS=4.54U PD=2.4U
* device instance $2 r0 *1 2.04,3.78 pmos_5p0
M$2 3 4 12 1 pmos_5p0 L=0.5U W=1.83U AS=0.52155P AD=0.5673P PS=2.4U PD=2.45U
* device instance $3 r0 *1 3.16,3.78 pmos_5p0
M$3 11 4 3 1 pmos_5p0 L=0.5U W=1.83U AS=0.5673P AD=0.52155P PS=2.45U PD=2.4U
* device instance $4 r0 *1 4.23,3.78 pmos_5p0
M$4 1 2 11 1 pmos_5p0 L=0.5U W=1.83U AS=0.52155P AD=0.585P PS=2.4U PD=2.53U
* device instance $5 r0 *1 5.43,3.965 pmos_5p0
M$5 3 5 1 1 pmos_5p0 L=0.5U W=2.92U AS=0.9646P AD=1.022P PS=4.51U PD=5.78U
* device instance $6 r0 *1 6.45,3.965 pmos_5p0
M$6 1 6 3 1 pmos_5p0 L=0.5U W=2.92U AS=0.7592P AD=0.7592P PS=3.96U PD=3.96U
* device instance $9 r0 *1 0.92,1.005 nmos_5p0
M$9 3 2 8 7 nmos_5p0 L=0.6U W=2.64U AS=0.924P AD=0.7062P PS=5.36U PD=3.71U
* device instance $10 r0 *1 2.04,1.005 nmos_5p0
M$10 8 4 3 7 nmos_5p0 L=0.6U W=2.64U AS=0.6864P AD=0.6864P PS=3.68U PD=3.68U
* device instance $13 r0 *1 5.43,1.005 nmos_5p0
M$13 9 5 8 7 nmos_5p0 L=0.6U W=1.32U AS=0.363P AD=0.2442P PS=1.87U PD=1.69U
* device instance $14 r0 *1 6.4,1.005 nmos_5p0
M$14 7 6 9 7 nmos_5p0 L=0.6U W=1.32U AS=0.2442P AD=0.3432P PS=1.69U PD=1.84U
* device instance $15 r0 *1 7.52,1.005 nmos_5p0
M$15 10 6 7 7 nmos_5p0 L=0.6U W=1.32U AS=0.3432P AD=0.2112P PS=1.84U PD=1.64U
* device instance $16 r0 *1 8.44,1.005 nmos_5p0
M$16 8 5 10 7 nmos_5p0 L=0.6U W=1.32U AS=0.2112P AD=0.5808P PS=1.64U PD=3.52U
.ENDS gf180mcu_fd_sc_mcu9t5v0__oai211_2

* cell gf180mcu_fd_sc_mcu9t5v0__addh_1
* pin CO
* pin PWELL,VSS,gf180mcu_gnd
* pin NWELL,VDD
* pin A
* pin B
* pin S
.SUBCKT gf180mcu_fd_sc_mcu9t5v0__addh_1 1 2 3 4 5 9
* net 1 CO
* net 2 PWELL,VSS,gf180mcu_gnd
* net 3 NWELL,VDD
* net 4 A
* net 5 B
* net 9 S
* device instance $1 r0 *1 5.01,3.912 pmos_5p0
M$1 11 5 3 3 pmos_5p0 L=0.5U W=0.915U AS=0.4026P AD=0.2379P PS=2.71U PD=1.435U
* device instance $2 r0 *1 6.03,3.912 pmos_5p0
M$2 8 4 11 3 pmos_5p0 L=0.5U W=0.915U AS=0.2379P AD=0.3294P PS=1.435U PD=1.635U
* device instance $3 r0 *1 7.25,3.912 pmos_5p0
M$3 8 6 3 3 pmos_5p0 L=0.5U W=0.915U AS=0.50325P AD=0.3294P PS=2.53U PD=1.635U
* device instance $4 r0 *1 8.45,3.78 pmos_5p0
M$4 9 8 3 3 pmos_5p0 L=0.5U W=1.83U AS=0.50325P AD=0.8052P PS=2.53U PD=4.54U
* device instance $5 r0 *1 2.23,3.912 pmos_5p0
M$5 6 4 3 3 pmos_5p0 L=0.5U W=0.915U AS=0.5307P AD=0.2379P PS=2.59U PD=1.435U
* device instance $6 r0 *1 3.25,3.912 pmos_5p0
M$6 3 5 6 3 pmos_5p0 L=0.5U W=0.915U AS=0.2379P AD=0.4026P PS=1.435U PD=2.71U
* device instance $7 r0 *1 0.97,3.78 pmos_5p0
M$7 3 6 1 3 pmos_5p0 L=0.5U W=1.83U AS=0.8052P AD=0.5307P PS=4.54U PD=2.59U
* device instance $8 r0 *1 4.96,1.335 nmos_5p0
M$8 8 5 7 2 nmos_5p0 L=0.6U W=0.66U AS=0.2904P AD=0.1716P PS=2.2U PD=1.18U
* device instance $9 r0 *1 6.08,1.335 nmos_5p0
M$9 7 4 8 2 nmos_5p0 L=0.6U W=0.66U AS=0.1716P AD=0.1716P PS=1.18U PD=1.18U
* device instance $10 r0 *1 7.2,1.335 nmos_5p0
M$10 7 6 2 2 nmos_5p0 L=0.6U W=0.66U AS=0.363P AD=0.1716P PS=2.02U PD=1.18U
* device instance $11 r0 *1 8.5,1.005 nmos_5p0
M$11 9 8 2 2 nmos_5p0 L=0.6U W=1.32U AS=0.363P AD=0.5808P PS=2.02U PD=3.52U
* device instance $12 r0 *1 0.92,1.005 nmos_5p0
M$12 2 6 1 2 nmos_5p0 L=0.6U W=1.32U AS=0.5808P AD=0.3828P PS=3.52U PD=2.08U
* device instance $13 r0 *1 2.28,1.335 nmos_5p0
M$13 10 4 2 2 nmos_5p0 L=0.6U W=0.66U AS=0.3828P AD=0.0792P PS=2.08U PD=0.9U
* device instance $14 r0 *1 3.12,1.335 nmos_5p0
M$14 6 5 10 2 nmos_5p0 L=0.6U W=0.66U AS=0.0792P AD=0.2904P PS=0.9U PD=2.2U
.ENDS gf180mcu_fd_sc_mcu9t5v0__addh_1

* cell gf180mcu_fd_sc_mcu9t5v0__aoi21_4
* pin PWELL,VSS,gf180mcu_gnd
* pin ZN
* pin A1
* pin A2
* pin B
* pin NWELL,VDD
.SUBCKT gf180mcu_fd_sc_mcu9t5v0__aoi21_4 1 2 3 4 5 11
* net 1 PWELL,VSS,gf180mcu_gnd
* net 2 ZN
* net 3 A1
* net 4 A2
* net 5 B
* net 11 NWELL,VDD
* device instance $1 r0 *1 1.07,3.785 pmos_5p0
M$1 2 4 10 11 pmos_5p0 L=0.5U W=7.32U AS=2.2326P AD=2.1594P PS=11.59U PD=9.68U
* device instance $2 r0 *1 2.09,3.785 pmos_5p0
M$2 10 3 2 11 pmos_5p0 L=0.5U W=7.32U AS=1.9032P AD=1.9032P PS=9.4U PD=9.4U
* device instance $9 r0 *1 9.51,3.785 pmos_5p0
M$9 11 5 10 11 pmos_5p0 L=0.5U W=7.32U AS=2.1594P AD=2.2326P PS=9.68U PD=11.59U
* device instance $13 r0 *1 1.14,1 nmos_5p0
M$13 7 4 1 1 nmos_5p0 L=0.6U W=1.32U AS=0.5808P AD=0.1584P PS=3.52U PD=1.56U
* device instance $14 r0 *1 1.98,1 nmos_5p0
M$14 2 3 7 1 nmos_5p0 L=0.6U W=1.32U AS=0.1584P AD=0.3432P PS=1.56U PD=1.84U
* device instance $15 r0 *1 3.1,1 nmos_5p0
M$15 6 3 2 1 nmos_5p0 L=0.6U W=1.32U AS=0.3432P AD=0.1584P PS=1.84U PD=1.56U
* device instance $16 r0 *1 3.94,1 nmos_5p0
M$16 1 4 6 1 nmos_5p0 L=0.6U W=1.32U AS=0.1584P AD=0.3432P PS=1.56U PD=1.84U
* device instance $17 r0 *1 5.06,1 nmos_5p0
M$17 8 4 1 1 nmos_5p0 L=0.6U W=1.32U AS=0.3432P AD=0.1584P PS=1.84U PD=1.56U
* device instance $18 r0 *1 5.9,1 nmos_5p0
M$18 2 3 8 1 nmos_5p0 L=0.6U W=1.32U AS=0.1584P AD=0.3432P PS=1.56U PD=1.84U
* device instance $19 r0 *1 7.02,1 nmos_5p0
M$19 9 3 2 1 nmos_5p0 L=0.6U W=1.32U AS=0.3432P AD=0.1584P PS=1.84U PD=1.56U
* device instance $20 r0 *1 7.86,1 nmos_5p0
M$20 1 4 9 1 nmos_5p0 L=0.6U W=1.32U AS=0.1584P AD=0.402P PS=1.56U PD=2.02U
* device instance $21 r0 *1 9.16,1.2 nmos_5p0
M$21 2 5 1 1 nmos_5p0 L=0.6U W=3.68U AS=1.1196P AD=1.1224P PS=6.34U PD=7.04U
.ENDS gf180mcu_fd_sc_mcu9t5v0__aoi21_4

* cell gf180mcu_fd_sc_mcu9t5v0__or3_4
* pin PWELL,VSS,gf180mcu_gnd
* pin A3
* pin A2
* pin A1
* pin NWELL,VDD
* pin Z
.SUBCKT gf180mcu_fd_sc_mcu9t5v0__or3_4 1 2 4 5 6 7
* net 1 PWELL,VSS,gf180mcu_gnd
* net 2 A3
* net 4 A2
* net 5 A1
* net 6 NWELL,VDD
* net 7 Z
* device instance $1 r0 *1 0.97,3.78 pmos_5p0
M$1 11 2 6 6 pmos_5p0 L=0.5U W=1.83U AS=0.8052P AD=0.52155P PS=4.54U PD=2.4U
* device instance $2 r0 *1 2.04,3.78 pmos_5p0
M$2 10 4 11 6 pmos_5p0 L=0.5U W=1.83U AS=0.52155P AD=0.5673P PS=2.4U PD=2.45U
* device instance $3 r0 *1 3.16,3.78 pmos_5p0
M$3 3 5 10 6 pmos_5p0 L=0.5U W=1.83U AS=0.5673P AD=0.5673P PS=2.45U PD=2.45U
* device instance $4 r0 *1 4.28,3.78 pmos_5p0
M$4 9 5 3 6 pmos_5p0 L=0.5U W=1.83U AS=0.5673P AD=0.5673P PS=2.45U PD=2.45U
* device instance $5 r0 *1 5.4,3.78 pmos_5p0
M$5 8 4 9 6 pmos_5p0 L=0.5U W=1.83U AS=0.5673P AD=0.52155P PS=2.45U PD=2.4U
* device instance $6 r0 *1 6.47,3.78 pmos_5p0
M$6 6 2 8 6 pmos_5p0 L=0.5U W=1.83U AS=0.52155P AD=0.8235P PS=2.4U PD=2.73U
* device instance $7 r0 *1 7.87,3.78 pmos_5p0
M$7 7 3 6 6 pmos_5p0 L=0.5U W=7.32U AS=2.4339P AD=2.4156P PS=9.98U PD=11.79U
* device instance $11 r0 *1 0.92,0.87 nmos_5p0
M$11 3 2 1 1 nmos_5p0 L=0.6U W=2.1U AS=0.735P AD=0.6945P PS=4.55U PD=3.59U
* device instance $12 r0 *1 2.04,0.87 nmos_5p0
M$12 1 4 3 1 nmos_5p0 L=0.6U W=2.1U AS=0.546P AD=0.546P PS=3.14U PD=3.14U
* device instance $13 r0 *1 3.16,0.87 nmos_5p0
M$13 3 5 1 1 nmos_5p0 L=0.6U W=2.1U AS=0.546P AD=0.546P PS=3.14U PD=3.14U
* device instance $17 r0 *1 7.82,1.005 nmos_5p0
M$17 7 3 1 1 nmos_5p0 L=0.6U W=5.28U AS=1.4511P AD=1.6104P PS=7.54U PD=9.04U
.ENDS gf180mcu_fd_sc_mcu9t5v0__or3_4

* cell gf180mcu_fd_sc_mcu9t5v0__and2_4
* pin NWELL,VDD
* pin A2
* pin A1
* pin Z
* pin PWELL,VSS,gf180mcu_gnd
.SUBCKT gf180mcu_fd_sc_mcu9t5v0__and2_4 1 2 3 5 6
* net 1 NWELL,VDD
* net 2 A2
* net 3 A1
* net 5 Z
* net 6 PWELL,VSS,gf180mcu_gnd
* device instance $1 r0 *1 0.87,3.875 pmos_5p0
M$1 4 2 1 1 pmos_5p0 L=0.5U W=3.28U AS=1.3336P AD=0.8528P PS=6.69U PD=4.32U
* device instance $2 r0 *1 1.89,3.875 pmos_5p0
M$2 1 3 4 1 pmos_5p0 L=0.5U W=3.28U AS=0.8528P AD=0.8528P PS=4.32U PD=4.32U
* device instance $5 r0 *1 5.13,3.78 pmos_5p0
M$5 5 4 1 1 pmos_5p0 L=0.5U W=7.32U AS=2.0394P AD=2.2326P PS=9.58U PD=11.59U
* device instance $9 r0 *1 0.92,1.005 nmos_5p0
M$9 8 2 6 6 nmos_5p0 L=0.6U W=1.32U AS=0.5808P AD=0.2112P PS=3.52U PD=1.64U
* device instance $10 r0 *1 1.84,1.005 nmos_5p0
M$10 4 3 8 6 nmos_5p0 L=0.6U W=1.32U AS=0.2112P AD=0.3663P PS=1.64U PD=1.875U
* device instance $11 r0 *1 2.995,1.005 nmos_5p0
M$11 7 3 4 6 nmos_5p0 L=0.6U W=1.32U AS=0.3663P AD=0.1881P PS=1.875U PD=1.605U
* device instance $12 r0 *1 3.88,1.005 nmos_5p0
M$12 6 2 7 6 nmos_5p0 L=0.6U W=1.32U AS=0.1881P AD=0.3432P PS=1.605U PD=1.84U
* device instance $13 r0 *1 5,1.005 nmos_5p0
M$13 5 4 6 6 nmos_5p0 L=0.6U W=5.28U AS=1.3728P AD=1.6104P PS=7.36U PD=9.04U
.ENDS gf180mcu_fd_sc_mcu9t5v0__and2_4

* cell gf180mcu_fd_sc_mcu9t5v0__or2_2
* pin PWELL,VSS,gf180mcu_gnd
* pin A1
* pin A2
* pin NWELL,VDD
* pin Z
.SUBCKT gf180mcu_fd_sc_mcu9t5v0__or2_2 1 2 4 5 6
* net 1 PWELL,VSS,gf180mcu_gnd
* net 2 A1
* net 4 A2
* net 5 NWELL,VDD
* net 6 Z
* device instance $1 r0 *1 0.97,3.78 pmos_5p0
M$1 7 2 3 5 pmos_5p0 L=0.5U W=1.83U AS=0.8052P AD=0.52155P PS=4.54U PD=2.4U
* device instance $2 r0 *1 2.04,3.78 pmos_5p0
M$2 5 4 7 5 pmos_5p0 L=0.5U W=1.83U AS=0.52155P AD=0.5673P PS=2.4U PD=2.45U
* device instance $3 r0 *1 3.16,3.78 pmos_5p0