
* cell smart_fifo
* pin wr_data[5]
* pin wr_data[6]
* pin wr_data[4]
* pin wr_data[7]
* pin rd_data[4]
* pin rd_data[6]
* pin rd_data[5]
* pin rd_data[30]
* pin rd_data[31]
* pin rd_data[2]
* pin wr_data[31]
* pin wr_data[3]
* pin wr_data[2]
* pin rd_data[3]
* pin wr_data[30]
* pin wr_data[28]
* pin wr_data[12]
* pin wr_data[10]
* pin wr_data[0]
* pin wr_data[11]
* pin rd_data[28]
* pin wr_data[29]
* pin wr_data[9]
* pin rd_data[29]
* pin rd_data[27]
* pin rd_data[7]
* pin rd_data[9]
* pin wr_data[8]
* pin wr_data[13]
* pin rd_data[12]
* pin rd_data[13]
* pin rd_data[0]
* pin rd_data[11]
* pin rd_data[8]
* pin rd_data[10]
* pin wr_data[26]
* pin rd_data[14]
* pin wr_data[27]
* pin empty
* pin rd_data[16]
* pin wr_en
* pin rd_data[17]
* pin rd_data[15]
* pin wr_data[14]
* pin wr_data[25]
* pin rd_data[25]
* pin rd_data[26]
* pin rd_data[24]
* pin rd_data[20]
* pin wr_data[24]
* pin wr_data[15]
* pin wr_data[17]
* pin wr_data[16]
* pin clk
* pin full
* pin error_count[9]
* pin data_count[4]
* pin wr_ready
* pin data_count[3]
* pin data_count[2]
* pin error_count[7]
* pin data_count[0]
* pin data_count[1]
* pin error_count[5]
* pin rst_n
* pin error_count[3]
* pin wr_data[18]
* pin error_count[4]
* pin error_count[6]
* pin error_count[10]
* pin error_count[2]
* pin error_count[8]
* pin error_count[11]
* pin rd_valid
* pin error_count[1]
* pin almost_empty
* pin overflow_detected
* pin rd_en
* pin underflow_detected
* pin error_count[12]
* pin error_count[0]
* pin clear_errors
* pin almost_full
* pin error_detected
* pin error_count[13]
* pin error_count[14]
* pin error_count[15]
* pin wr_data[1]
* pin wr_data[19]
* pin rd_data[1]
* pin rd_data[18]
* pin rd_data[19]
* pin rd_data[21]
* pin wr_data[21]
* pin rd_data[23]
* pin rd_data[22]
* pin wr_data[20]
* pin wr_data[23]
* pin wr_data[22]
* pin NWELL
* pin PWELL,gf180mcu_gnd
.SUBCKT smart_fifo 1 2 3 4 5 6 7 8 9 10 11 12 139 172 267 353 360 361 362 407
+ 431 472 519 548 586 587 597 625 639 732 733 734 735 736 737 781 806 906 914
+ 915 916 917 960 961 1002 1086 1087 1169 1204 1205 1258 1416 1417 1660 1798
+ 1801 1803 1804 1811 1812 1813 1814 1816 1819 1822 1823 1824 1825 1826 1827
+ 1828 1829 1830 1831 1833 1834 1835 1836 1837 1838 1839 1840 1841 1842 1843
+ 1845 1846 1847 1848 1850 1851 1852 1853 1854 1855 1856 1859 1861 1862 1871
+ 1872
* net 1 wr_data[5]
* net 2 wr_data[6]
* net 3 wr_data[4]
* net 4 wr_data[7]
* net 5 rd_data[4]
* net 6 rd_data[6]
* net 7 rd_data[5]
* net 8 rd_data[30]
* net 9 rd_data[31]
* net 10 rd_data[2]
* net 11 wr_data[31]
* net 12 wr_data[3]
* net 139 wr_data[2]
* net 172 rd_data[3]
* net 267 wr_data[30]
* net 353 wr_data[28]
* net 360 wr_data[12]
* net 361 wr_data[10]
* net 362 wr_data[0]
* net 407 wr_data[11]
* net 431 rd_data[28]
* net 472 wr_data[29]
* net 519 wr_data[9]
* net 548 rd_data[29]
* net 586 rd_data[27]
* net 587 rd_data[7]
* net 597 rd_data[9]
* net 625 wr_data[8]
* net 639 wr_data[13]
* net 732 rd_data[12]
* net 733 rd_data[13]
* net 734 rd_data[0]
* net 735 rd_data[11]
* net 736 rd_data[8]
* net 737 rd_data[10]
* net 781 wr_data[26]
* net 806 rd_data[14]
* net 906 wr_data[27]
* net 914 empty
* net 915 rd_data[16]
* net 916 wr_en
* net 917 rd_data[17]
* net 960 rd_data[15]
* net 961 wr_data[14]
* net 1002 wr_data[25]
* net 1086 rd_data[25]
* net 1087 rd_data[26]
* net 1169 rd_data[24]
* net 1204 rd_data[20]
* net 1205 wr_data[24]
* net 1258 wr_data[15]
* net 1416 wr_data[17]
* net 1417 wr_data[16]
* net 1660 clk
* net 1798 full
* net 1801 error_count[9]
* net 1803 data_count[4]
* net 1804 wr_ready
* net 1811 data_count[3]
* net 1812 data_count[2]
* net 1813 error_count[7]
* net 1814 data_count[0]
* net 1816 data_count[1]
* net 1819 error_count[5]
* net 1822 rst_n
* net 1823 error_count[3]
* net 1824 wr_data[18]
* net 1825 error_count[4]
* net 1826 error_count[6]
* net 1827 error_count[10]
* net 1828 error_count[2]
* net 1829 error_count[8]
* net 1830 error_count[11]
* net 1831 rd_valid
* net 1833 error_count[1]
* net 1834 almost_empty
* net 1835 overflow_detected
* net 1836 rd_en
* net 1837 underflow_detected
* net 1838 error_count[12]
* net 1839 error_count[0]
* net 1840 clear_errors
* net 1841 almost_full
* net 1842 error_detected
* net 1843 error_count[13]
* net 1845 error_count[14]
* net 1846 error_count[15]
* net 1847 wr_data[1]
* net 1848 wr_data[19]
* net 1850 rd_data[1]
* net 1851 rd_data[18]
* net 1852 rd_data[19]
* net 1853 rd_data[21]
* net 1854 wr_data[21]
* net 1855 rd_data[23]
* net 1856 rd_data[22]
* net 1859 wr_data[20]
* net 1861 wr_data[23]
* net 1862 wr_data[22]
* net 1871 NWELL
* net 1872 PWELL,gf180mcu_gnd
* cell instance $2 r0 *1 2107.84,15.12
X$2 1872 21 1 1871 gf180mcu_fd_sc_mcu9t5v0__dlyc_2
* cell instance $6 m0 *1 2117.36,15.12
X$6 1872 22 2 1871 gf180mcu_fd_sc_mcu9t5v0__dlyc_2
* cell instance $11 m0 *1 2136.96,15.12
X$11 1872 24 3 1871 gf180mcu_fd_sc_mcu9t5v0__dlyc_2
* cell instance $14 m0 *1 2149.28,15.12
X$14 1872 23 4 1871 gf180mcu_fd_sc_mcu9t5v0__dlyc_2
* cell instance $19 m0 *1 2184,15.12
X$19 15 1871 1872 5 gf180mcu_fd_sc_mcu9t5v0__dlyb_2
* cell instance $23 r0 *1 2185.68,5.04
X$23 16 1871 1872 6 gf180mcu_fd_sc_mcu9t5v0__dlyb_2
* cell instance $26 r0 *1 2195.2,5.04
X$26 17 1871 1872 7 gf180mcu_fd_sc_mcu9t5v0__dlyb_2
* cell instance $30 m0 *1 2215.36,15.12
X$30 19 1871 1872 8 gf180mcu_fd_sc_mcu9t5v0__dlyb_2
* cell instance $35 r0 *1 2203.6,5.04
X$35 18 1871 1872 9 gf180mcu_fd_sc_mcu9t5v0__dlyb_2
* cell instance $39 r0 *1 2232.16,5.04
X$39 20 1871 1872 10 gf180mcu_fd_sc_mcu9t5v0__dlyb_2
* cell instance $43 m0 *1 2242.24,15.12
X$43 1872 14 11 1871 gf180mcu_fd_sc_mcu9t5v0__dlyc_2
* cell instance $47 r0 *1 2294.88,5.04
X$47 1872 13 12 1871 gf180mcu_fd_sc_mcu9t5v0__dlyc_2
* cell instance $53 m0 *1 2285.36,15.12
X$53 1872 13 28 1871 gf180mcu_fd_sc_mcu9t5v0__clkbuf_12
* cell instance $57 r0 *1 2240.56,5.04
X$57 1872 14 25 1871 gf180mcu_fd_sc_mcu9t5v0__clkbuf_12
* cell instance $73 r0 *1 2181.2,1849.68
X$73 1872 1871 15 49 32 29 gf180mcu_fd_sc_mcu9t5v0__mux2_4
* cell instance $88 m0 *1 2180.08,1859.76
X$88 1872 1871 16 59 32 54 gf180mcu_fd_sc_mcu9t5v0__mux2_4
* cell instance $91 r0 *1 2193.52,1849.68
X$91 1872 1871 17 57 32 34 gf180mcu_fd_sc_mcu9t5v0__mux2_4
* cell instance $108 r0 *1 2208.08,1849.68
X$108 1872 1871 18 36 32 35 gf180mcu_fd_sc_mcu9t5v0__mux2_4
* cell instance $125 r0 *1 2223.2,1849.68
X$125 1872 1871 19 45 32 38 gf180mcu_fd_sc_mcu9t5v0__mux2_4
* cell instance $142 r0 *1 2236.08,1849.68
X$142 1872 1871 20 44 32 42 gf180mcu_fd_sc_mcu9t5v0__mux2_4
* cell instance $146 m0 *1 2096.08,15.12
X$146 1872 21 27 1871 gf180mcu_fd_sc_mcu9t5v0__clkbuf_12
* cell instance $152 r0 *1 2107.28,5.04
X$152 1872 22 150 1871 gf180mcu_fd_sc_mcu9t5v0__clkbuf_12
* cell instance $156 r0 *1 2145.36,15.12
X$156 1872 23 26 1871 gf180mcu_fd_sc_mcu9t5v0__clkbuf_12
* cell instance $160 r0 *1 2144.24,5.04
X$160 1872 24 50 1871 gf180mcu_fd_sc_mcu9t5v0__clkbuf_12
* cell instance $162 m0 *1 2225.44,1890
X$162 1872 1871 88 25 67 77 gf180mcu_fd_sc_mcu9t5v0__mux2_2
* cell instance $165 r0 *1 2214.8,1890
X$165 1872 1871 75 25 63 76 gf180mcu_fd_sc_mcu9t5v0__mux2_2
* cell instance $168 r0 *1 2214.24,1920.24
X$168 1872 1871 180 25 111 123 gf180mcu_fd_sc_mcu9t5v0__mux2_2
* cell instance $171 m0 *1 2219.28,1920.24
X$171 1872 1871 122 25 125 124 gf180mcu_fd_sc_mcu9t5v0__mux2_2
* cell instance $173 r0 *1 2205.84,1920.24
X$173 1872 1871 156 25 141 157 gf180mcu_fd_sc_mcu9t5v0__mux2_2
* cell instance $176 m0 *1 2228.24,1940.4
X$176 1872 1871 191 25 178 192 gf180mcu_fd_sc_mcu9t5v0__mux2_2
* cell instance $187 r0 *1 2223.2,1890
X$187 25 1871 1872 101 gf180mcu_fd_sc_mcu9t5v0__buf_3
* cell instance $189 r0 *1 2097.2,2051.28
X$189 1872 1871 423 26 111 425 gf180mcu_fd_sc_mcu9t5v0__mux2_2
* cell instance $191 m0 *1 2110.64,2071.44
X$191 1872 1871 555 26 67 540 gf180mcu_fd_sc_mcu9t5v0__mux2_2
* cell instance $193 m0 *1 2111.76,2081.52
X$193 1872 1871 593 26 63 578 gf180mcu_fd_sc_mcu9t5v0__mux2_2
* cell instance $195 m0 *1 2183.44,2071.44
X$195 1872 1871 543 26 141 492 gf180mcu_fd_sc_mcu9t5v0__mux2_2
* cell instance $197 m0 *1 2181.76,2061.36
X$197 1872 1871 518 26 178 493 gf180mcu_fd_sc_mcu9t5v0__mux2_2
* cell instance $200 r0 *1 2097.76,2041.2
X$200 1872 1871 424 26 125 458 gf180mcu_fd_sc_mcu9t5v0__mux2_2
* cell instance $268 m0 *1 2173.92,2061.36
X$268 1872 1871 26 461 gf180mcu_fd_sc_mcu9t5v0__clkbuf_3
* cell instance $272 r0 *1 2103.92,1900.08
X$272 1872 1871 92 27 67 93 gf180mcu_fd_sc_mcu9t5v0__mux2_2
* cell instance $274 r0 *1 2110.64,1890
X$274 1872 1871 90 27 63 62 gf180mcu_fd_sc_mcu9t5v0__mux2_2
* cell instance $277 m0 *1 2106.16,1960.56
X$277 1872 1871 233 27 178 211 gf180mcu_fd_sc_mcu9t5v0__mux2_2
* cell instance $279 m0 *1 2088.24,1950.48
X$279 1872 1871 232 27 141 181 gf180mcu_fd_sc_mcu9t5v0__mux2_2
* cell instance $282 m0 *1 2087.12,1920.24
X$282 1872 1871 179 27 111 110 gf180mcu_fd_sc_mcu9t5v0__mux2_2
* cell instance $285 r0 *1 2086,1930.32
X$285 1872 1871 145 27 125 146 gf180mcu_fd_sc_mcu9t5v0__mux2_2
* cell instance $294 r0 *1 2099.44,1890
X$294 27 1871 1872 61 gf180mcu_fd_sc_mcu9t5v0__buf_3
* cell instance $296 r0 *1 2285.36,1890
X$296 1872 1871 103 28 63 105 gf180mcu_fd_sc_mcu9t5v0__mux2_2
* cell instance $299 r0 *1 2297.12,1920.24
X$299 1872 1871 163 28 125 134 gf180mcu_fd_sc_mcu9t5v0__mux2_2
* cell instance $301 m0 *1 2275.28,1930.32
X$301 1872 1871 161 28 178 162 gf180mcu_fd_sc_mcu9t5v0__mux2_2
* cell instance $303 r0 *1 2294.88,1910.16
X$303 1872 1871 140 28 111 133 gf180mcu_fd_sc_mcu9t5v0__mux2_2
* cell instance $306 r0 *1 2294.88,1879.92
X$306 1872 1871 82 28 67 83 gf180mcu_fd_sc_mcu9t5v0__mux2_2
* cell instance $308 r0 *1 2272.48,1910.16
X$308 1872 1871 130 28 141 132 gf180mcu_fd_sc_mcu9t5v0__mux2_2
* cell instance $316 r0 *1 2288.16,1900.08
X$316 28 1871 1872 104 gf180mcu_fd_sc_mcu9t5v0__buf_3
* cell instance $318 r0 *1 2164.4,1910.16
X$318 1872 1871 29 116 115 117 gf180mcu_fd_sc_mcu9t5v0__mux2_2
* cell instance $323 r0 *1 2161.6,1849.68
X$323 1872 1871 47 30 39 29 gf180mcu_fd_sc_mcu9t5v0__mux2_2
* cell instance $326 m0 *1 2153.76,1859.76
X$326 1872 48 30 33 47 1871 gf180mcu_fd_sc_mcu9t5v0__dffrnq_2
* cell instance $332 m0 *1 2175.04,1859.76
X$332 1871 31 30 1872 49 gf180mcu_fd_sc_mcu9t5v0__and2_2
* cell instance $335 r0 *1 2367.68,2051.28
X$335 1871 31 470 1872 471 gf180mcu_fd_sc_mcu9t5v0__and2_2
* cell instance $337 r0 *1 2366.56,1930.32
X$337 1871 31 170 1872 171 gf180mcu_fd_sc_mcu9t5v0__and2_2
* cell instance $348 m0 *1 2195.2,1869.84
X$348 1871 31 56 1872 57 gf180mcu_fd_sc_mcu9t5v0__and2_2
* cell instance $350 r0 *1 2213.12,1859.76
X$350 1871 31 37 1872 36 gf180mcu_fd_sc_mcu9t5v0__and2_2
* cell instance $353 r0 *1 2179.52,1859.76
X$353 1871 31 53 1872 59 gf180mcu_fd_sc_mcu9t5v0__and2_2
* cell instance $356 r0 *1 2170,2091.6
X$356 1872 1871 608 31 gf180mcu_fd_sc_mcu9t5v0__buf_4
* cell instance $358 m0 *1 2234.96,1859.76
X$358 1871 31 40 1872 45 gf180mcu_fd_sc_mcu9t5v0__and2_2
* cell instance $360 r0 *1 2246.72,1849.68
X$360 1871 31 43 1872 44 gf180mcu_fd_sc_mcu9t5v0__and2_2
* cell instance $362 r0 *1 2359.28,2081.52
X$362 1871 31 584 1872 589 gf180mcu_fd_sc_mcu9t5v0__and2_2
* cell instance $364 m0 *1 2364.32,2101.68
X$364 1871 31 677 1872 624 gf180mcu_fd_sc_mcu9t5v0__and2_2
* cell instance $366 r0 *1 2363.76,1920.24
X$366 1872 1871 174 171 32 169 gf180mcu_fd_sc_mcu9t5v0__mux2_4
* cell instance $378 m0 *1 2364.88,2051.28
X$378 1872 1871 475 471 32 469 gf180mcu_fd_sc_mcu9t5v0__mux2_4
* cell instance $384 m0 *1 2364.32,2091.6
X$384 1872 1871 628 624 32 630 gf180mcu_fd_sc_mcu9t5v0__mux2_4
* cell instance $386 r0 *1 2364.32,2081.52
X$386 1872 1871 550 589 32 585 gf180mcu_fd_sc_mcu9t5v0__mux2_4
* cell instance $388 r0 *1 2180.64,2091.6
X$388 1872 640 32 1871 gf180mcu_fd_sc_mcu9t5v0__buf_8
* cell instance $390 r0 *1 2153.76,1859.76
X$390 1872 48 53 33 52 1871 gf180mcu_fd_sc_mcu9t5v0__dffrnq_2
* cell instance $392 r0 *1 2183.44,1879.92
X$392 1872 72 33 71 1871 gf180mcu_fd_sc_mcu9t5v0__dffq_2
* cell instance $394 r0 *1 2077.6,1920.24
X$394 1872 110 33 179 1871 gf180mcu_fd_sc_mcu9t5v0__dffq_2
* cell instance $396 r0 *1 2077.6,1950.48
X$396 1872 181 33 232 1871 gf180mcu_fd_sc_mcu9t5v0__dffq_2
* cell instance $398 m0 *1 2139.76,1920.24
X$398 1872 114 33 153 1871 gf180mcu_fd_sc_mcu9t5v0__dffq_2
* cell instance $416 m0 *1 2139.76,1940.4
X$416 1872 185 33 202 1871 gf180mcu_fd_sc_mcu9t5v0__dffq_2
* cell instance $418 r0 *1 2103.36,1930.32
X$418 1872 148 33 147 1871 gf180mcu_fd_sc_mcu9t5v0__dffq_2
* cell instance $420 m0 *1 2197.44,1859.76
X$420 1872 48 37 33 60 1871 gf180mcu_fd_sc_mcu9t5v0__dffrnq_2
* cell instance $423 r0 *1 2185.12,1859.76
X$423 1872 48 56 33 55 1871 gf180mcu_fd_sc_mcu9t5v0__dffrnq_2
* cell instance $425 m0 *1 2114,1920.24
X$425 1872 152 33 149 1871 gf180mcu_fd_sc_mcu9t5v0__dffq_2
* cell instance $427 r0 *1 2136.96,1900.08
X$427 1872 33 1886 1871 gf180mcu_fd_sc_mcu9t5v0__clkbuf_12
* cell instance $430 m0 *1 2126.32,1890
X$430 1872 64 33 91 1871 gf180mcu_fd_sc_mcu9t5v0__dffq_2
* cell instance $432 r0 *1 2119.6,1890
X$432 1872 95 33 94 1871 gf180mcu_fd_sc_mcu9t5v0__dffq_2
* cell instance $435 m0 *1 2158.24,1890
X$435 1872 69 33 51 1871 gf180mcu_fd_sc_mcu9t5v0__dffq_2
* cell instance $439 r0 *1 2152.64,1879.92
X$439 1872 68 33 65 1871 gf180mcu_fd_sc_mcu9t5v0__dffq_2
* cell instance $441 m0 *1 2136.96,1910.16
X$441 1872 108 33 1871 gf180mcu_fd_sc_mcu9t5v0__clkbuf_20
* cell instance $443 r0 *1 2140.32,1910.16
X$443 1872 97 33 96 1871 gf180mcu_fd_sc_mcu9t5v0__dffq_2
* cell instance $445 m0 *1 2177.28,1890
X$445 1872 73 33 89 1871 gf180mcu_fd_sc_mcu9t5v0__dffq_2
* cell instance $448 r0 *1 2096.08,1950.48
X$448 1872 211 33 233 1871 gf180mcu_fd_sc_mcu9t5v0__dffq_2
* cell instance $450 m0 *1 2079.84,1930.32
X$450 1872 146 33 145 1871 gf180mcu_fd_sc_mcu9t5v0__dffq_2
* cell instance $452 r0 *1 2132.48,1940.4
X$452 1872 184 33 200 1871 gf180mcu_fd_sc_mcu9t5v0__dffq_2
* cell instance $455 r0 *1 2221.52,1859.76
X$455 1872 48 40 33 46 1871 gf180mcu_fd_sc_mcu9t5v0__dffrnq_2
* cell instance $457 m0 *1 2097.76,1900.08
X$457 1872 93 33 92 1871 gf180mcu_fd_sc_mcu9t5v0__dffq_2
* cell instance $460 m0 *1 2101.12,1890
X$460 1872 62 33 90 1871 gf180mcu_fd_sc_mcu9t5v0__dffq_2
* cell instance $462 r0 *1 2114,1950.48
X$462 1872 212 33 234 1871 gf180mcu_fd_sc_mcu9t5v0__dffq_2
* cell instance $464 m0 *1 2185.68,1869.84
X$464 1872 1871 55 56 39 34 gf180mcu_fd_sc_mcu9t5v0__mux2_2
* cell instance $468 r0 *1 2131.92,1910.16
X$468 1872 1871 34 144 115 143 gf180mcu_fd_sc_mcu9t5v0__mux2_2
* cell instance $473 r0 *1 2204.16,1859.76
X$473 1872 1871 60 37 39 35 gf180mcu_fd_sc_mcu9t5v0__mux2_2
* cell instance $475 m0 *1 2209.76,1910.16
X$475 1872 1871 35 121 115 109 gf180mcu_fd_sc_mcu9t5v0__mux2_2
* cell instance $485 r0 *1 2246.16,2000.88
X$485 1872 1871 38 331 115 329 gf180mcu_fd_sc_mcu9t5v0__mux2_2
* cell instance $492 m0 *1 2226.56,1859.76
X$492 1872 1871 46 40 39 38 gf180mcu_fd_sc_mcu9t5v0__mux2_2
* cell instance $495 r0 *1 2358.16,1930.32
X$495 1872 1871 168 170 39 169 gf180mcu_fd_sc_mcu9t5v0__mux2_2
* cell instance $497 r0 *1 2358.16,2051.28
X$497 1872 1871 468 470 39 469 gf180mcu_fd_sc_mcu9t5v0__mux2_2
* cell instance $499 m0 *1 2355.92,2101.68
X$499 1872 1871 680 677 39 630 gf180mcu_fd_sc_mcu9t5v0__mux2_2
* cell instance $503 m0 *1 2354.8,2091.6
X$503 1872 1871 623 584 39 585 gf180mcu_fd_sc_mcu9t5v0__mux2_2
* cell instance $515 m0 *1 2168.88,1869.84
X$515 1872 1871 52 53 39 54 gf180mcu_fd_sc_mcu9t5v0__mux2_2
* cell instance $518 m0 *1 2158.24,2101.68
X$518 1872 775 39 1871 gf180mcu_fd_sc_mcu9t5v0__buf_8
* cell instance $520 m0 *1 2244.48,1859.76
X$520 1872 1871 41 43 39 42 gf180mcu_fd_sc_mcu9t5v0__mux2_2
* cell instance $529 r0 *1 2240.56,1859.76
X$529 1872 48 43 58 41 1871 gf180mcu_fd_sc_mcu9t5v0__dffrnq_2
* cell instance $532 r0 *1 2260.16,1950.48
X$532 1872 1871 42 230 115 228 gf180mcu_fd_sc_mcu9t5v0__mux2_2
* cell instance $561 r0 *1 7.28,2111.76
X$561 1872 48 739 694 692 1871 gf180mcu_fd_sc_mcu9t5v0__dffrnq_2
* cell instance $564 r0 *1 2232.16,2414.16
X$564 1872 48 1716 1587 1715 1871 gf180mcu_fd_sc_mcu9t5v0__dffrnq_2
* cell instance $567 r0 *1 2349.76,2212.56
X$567 1872 48 1200 993 1209 1871 gf180mcu_fd_sc_mcu9t5v0__dffrnq_2
* cell instance $569 r0 *1 37.52,2162.16
X$569 1872 48 922 694 964 1871 gf180mcu_fd_sc_mcu9t5v0__dffrnq_2
* cell instance $571 r0 *1 16.8,2182.32
X$571 1872 48 1013 694 1058 1871 gf180mcu_fd_sc_mcu9t5v0__dffrnq_2
* cell instance $573 r0 *1 2351.44,2222.64
X$573 1872 48 1246 993 1245 1871 gf180mcu_fd_sc_mcu9t5v0__dffrnq_2
* cell instance $575 m0 *1 2355.92,2061.36
X$575 1872 48 470 383 468 1871 gf180mcu_fd_sc_mcu9t5v0__dffrnq_2
* cell instance $578 r0 *1 2209.2,2414.16
X$578 1872 48 1713 1587 1720 1871 gf180mcu_fd_sc_mcu9t5v0__dffrnq_2
* cell instance $581 m0 *1 17.92,2152.08
X$581 1872 48 919 694 868 1871 gf180mcu_fd_sc_mcu9t5v0__dffrnq_2
* cell instance $584 r0 *1 13.44,2172.24
X$584 1872 48 1012 694 1044 1871 gf180mcu_fd_sc_mcu9t5v0__dffrnq_2
* cell instance $586 r0 *1 2182.88,2424.24
X$586 1872 48 1723 1587 1721 1871 gf180mcu_fd_sc_mcu9t5v0__dffrnq_2
* cell instance $588 r0 *1 49.28,2111.76
X$588 1872 48 746 694 697 1871 gf180mcu_fd_sc_mcu9t5v0__dffrnq_2
* cell instance $591 r0 *1 30.24,2111.76
X$591 1872 48 696 694 695 1871 gf180mcu_fd_sc_mcu9t5v0__dffrnq_2
* cell instance $594 r0 *1 2019.36,4158
X$594 1872 48 1747 1746 1757 1871 gf180mcu_fd_sc_mcu9t5v0__dffrnq_2
* cell instance $596 r0 *1 10.64,2142
X$596 1872 48 867 694 866 1871 gf180mcu_fd_sc_mcu9t5v0__dffrnq_2
* cell instance $598 r0 *1 2023.84,4178.16
X$598 1872 48 1765 1746 1777 1871 gf180mcu_fd_sc_mcu9t5v0__dffrnq_2
* cell instance $600 r0 *1 2351.44,2101.68
X$600 1872 48 677 383 680 1871 gf180mcu_fd_sc_mcu9t5v0__dffrnq_2
* cell instance $602 m0 *1 2116.8,2222.64
X$602 1872 48 1107 1076 1192 1871 gf180mcu_fd_sc_mcu9t5v0__dffrnq_2
* cell instance $605 r0 *1 2155.44,2404.08
X$605 1872 48 1712 1587 1719 1871 gf180mcu_fd_sc_mcu9t5v0__dffrnq_2
* cell instance $607 m0 *1 2136.4,2414.16
X$607 1872 48 1707 1587 1717 1871 gf180mcu_fd_sc_mcu9t5v0__dffrnq_2
* cell instance $610 m0 *1 2144.8,2404.08
X$610 1872 48 1708 1587 1718 1871 gf180mcu_fd_sc_mcu9t5v0__dffrnq_2
* cell instance $616 m0 *1 43.12,2142
X$616 1872 48 809 694 869 1871 gf180mcu_fd_sc_mcu9t5v0__dffrnq_2
* cell instance $618 m0 *1 2003.12,4188.24
X$618 1872 48 1787 1746 1775 1871 gf180mcu_fd_sc_mcu9t5v0__dffrnq_2
* cell instance $624 m0 *1 2352.56,1930.32
X$624 1872 48 170 136 168 1871 gf180mcu_fd_sc_mcu9t5v0__dffrnq_2
* cell instance $626 r0 *1 73.36,2121.84
X$626 1872 48 750 694 748 1871 gf180mcu_fd_sc_mcu9t5v0__dffrnq_2
* cell instance $628 r0 *1 2350.88,2091.6
X$628 1872 48 584 383 623 1871 gf180mcu_fd_sc_mcu9t5v0__dffrnq_2
* cell instance $634 m0 *1 2104.48,2202.48
X$634 1872 48 1108 1076 1175 1871 gf180mcu_fd_sc_mcu9t5v0__dffrnq_2
* cell instance $636 r0 *1 2018.8,4208.4
X$636 1872 48 1791 1746 1818 1871 gf180mcu_fd_sc_mcu9t5v0__dffrnq_2
* cell instance $639 m0 *1 2069.76,4158
X$639 1872 48 1753 1746 1758 1871 gf180mcu_fd_sc_mcu9t5v0__dffrnq_2
* cell instance $641 r0 *1 2066.96,2202.48
X$641 1872 48 1105 1076 1153 1871 gf180mcu_fd_sc_mcu9t5v0__dffrnq_2
* cell instance $643 r0 *1 2023.84,4198.32
X$643 1872 48 1788 1746 1789 1871 gf180mcu_fd_sc_mcu9t5v0__dffrnq_2
* cell instance $645 m0 *1 2103.92,4188.24
X$645 1872 48 1795 1746 1774 1871 gf180mcu_fd_sc_mcu9t5v0__dffrnq_2
* cell instance $648 m0 *1 2088.8,4178.16
X$648 1872 48 1773 1746 1782 1871 gf180mcu_fd_sc_mcu9t5v0__dffrnq_2
* cell instance $650 m0 *1 2084.88,4168.08
X$650 1872 48 1756 1746 1755 1871 gf180mcu_fd_sc_mcu9t5v0__dffrnq_2
* cell instance $652 m0 *1 2072.56,2293.2
X$652 1872 48 1460 1276 1485 1871 gf180mcu_fd_sc_mcu9t5v0__dffrnq_2
* cell instance $654 r0 *1 2095.52,2252.88
X$654 1872 48 1354 1076 1371 1871 gf180mcu_fd_sc_mcu9t5v0__dffrnq_2
* cell instance $656 r0 *1 2095.52,4208.4
X$656 1872 48 1805 1746 1866 1871 gf180mcu_fd_sc_mcu9t5v0__dffrnq_2
* cell instance $658 m0 *1 2034.48,2202.48
X$658 1872 48 1104 1076 1176 1871 gf180mcu_fd_sc_mcu9t5v0__dffrnq_2
* cell instance $660 m0 *1 2152.08,2131.92
X$660 1872 48 776 491 774 1871 gf180mcu_fd_sc_mcu9t5v0__dffrnq_2
* cell instance $662 m0 *1 1995.84,4218.48
X$662 1872 48 1800 1746 1864 1871 gf180mcu_fd_sc_mcu9t5v0__dffrnq_2
* cell instance $665 r0 *1 2036.16,4147.92
X$665 1872 48 1748 1746 1760 1871 gf180mcu_fd_sc_mcu9t5v0__dffrnq_2
* cell instance $667 m0 *1 2028.32,2222.64
X$667 1872 48 1187 1276 1253 1871 gf180mcu_fd_sc_mcu9t5v0__dffrnq_2
* cell instance $669 r0 *1 2066.4,4208.4
X$669 1872 48 1772 1746 1815 1871 gf180mcu_fd_sc_mcu9t5v0__dffrnq_2
* cell instance $671 m0 *1 1999.76,4208.4
X$671 1872 48 1767 1746 1821 1871 gf180mcu_fd_sc_mcu9t5v0__dffrnq_2
* cell instance $673 m0 *1 2355.92,2192.4
X$673 1872 48 1085 993 1091 1871 gf180mcu_fd_sc_mcu9t5v0__dffrnq_2
* cell instance $676 r0 *1 2357.6,2192.4
X$676 1872 48 1126 993 1125 1871 gf180mcu_fd_sc_mcu9t5v0__dffrnq_2
* cell instance $678 r0 *1 2045.12,4168.08
X$678 1872 48 1766 1746 1762 1871 gf180mcu_fd_sc_mcu9t5v0__dffrnq_2
* cell instance $680 r0 *1 2098.88,4198.32
X$680 1872 48 1793 1746 1794 1871 gf180mcu_fd_sc_mcu9t5v0__dffrnq_2
* cell instance $682 m0 *1 2032.24,2232.72
X$682 1872 48 1186 1276 1300 1871 gf180mcu_fd_sc_mcu9t5v0__dffrnq_2
* cell instance $684 m0 *1 78.4,2111.76
X$684 1872 48 699 694 698 1871 gf180mcu_fd_sc_mcu9t5v0__dffrnq_2
* cell instance $686 m0 *1 2061.92,4188.24
X$686 1872 48 1790 1746 1783 1871 gf180mcu_fd_sc_mcu9t5v0__dffrnq_2
* cell instance $751 m0 *1 2085.44,2212.56
X$751 1872 48 1191 1076 1190 1871 gf180mcu_fd_sc_mcu9t5v0__dffrnq_4
* cell instance $754 m0 *1 1960,4218.48
X$754 1872 1863 48 1871 gf180mcu_fd_sc_mcu9t5v0__buf_20
* cell instance $757 r0 *1 56.56,2162.16
X$757 1872 48 608 694 924 1871 gf180mcu_fd_sc_mcu9t5v0__dffrnq_4
* cell instance $759 m0 *1 2096.64,2252.88
X$759 1872 48 658 1076 1353 1871 gf180mcu_fd_sc_mcu9t5v0__dffrnq_4
* cell instance $765 m0 *1 2158.24,1879.92
X$765 1872 1871 51 50 67 69 gf180mcu_fd_sc_mcu9t5v0__mux2_2
* cell instance $770 m0 *1 2139.76,1950.48
X$770 1872 1871 200 50 141 184 gf180mcu_fd_sc_mcu9t5v0__mux2_2
* cell instance $777 r0 *1 2157.12,1890
X$777 1872 1871 65 50 63 68 gf180mcu_fd_sc_mcu9t5v0__mux2_2
* cell instance $779 m0 *1 2146.48,1900.08
X$779 1872 1871 96 50 125 97 gf180mcu_fd_sc_mcu9t5v0__mux2_2
* cell instance $781 r0 *1 2149.28,1940.4
X$781 1872 1871 202 50 178 185 gf180mcu_fd_sc_mcu9t5v0__mux2_2
* cell instance $784 r0 *1 2145.92,1920.24
X$784 1872 1871 153 50 111 114 gf180mcu_fd_sc_mcu9t5v0__mux2_2
* cell instance $793 m0 *1 2159.36,1900.08
X$793 50 1871 1872 98 gf180mcu_fd_sc_mcu9t5v0__buf_3
* cell instance $807 r0 *1 2145.92,2010.96
X$807 1872 1871 54 342 115 357 gf180mcu_fd_sc_mcu9t5v0__mux2_2
* cell instance $824 m0 *1 2287.6,1910.16
X$824 1872 133 58 140 1871 gf180mcu_fd_sc_mcu9t5v0__dffq_2
* cell instance $826 m0 *1 2262.96,1950.48
X$826 1872 195 58 219 1871 gf180mcu_fd_sc_mcu9t5v0__dffq_2
* cell instance $828 m0 *1 2238.32,1930.32
X$828 1872 254 58 1871 gf180mcu_fd_sc_mcu9t5v0__clkbuf_20
* cell instance $830 r0 *1 2218.16,1960.56
X$830 1872 251 58 249 1871 gf180mcu_fd_sc_mcu9t5v0__dffq_2
* cell instance $832 m0 *1 2202.48,1920.24
X$832 1872 123 58 180 1871 gf180mcu_fd_sc_mcu9t5v0__dffq_2
* cell instance $834 m0 *1 2217.04,1980.72
X$834 1872 250 58 248 1871 gf180mcu_fd_sc_mcu9t5v0__dffq_2
* cell instance $836 r0 *1 2172.8,1910.16
X$836 1872 120 58 118 1871 gf180mcu_fd_sc_mcu9t5v0__dffq_2
* cell instance $856 r0 *1 2267.44,1920.24
X$856 1872 162 58 161 1871 gf180mcu_fd_sc_mcu9t5v0__dffq_2
* cell instance $859 m0 *1 2264.08,1920.24
X$859 1872 132 58 130 1871 gf180mcu_fd_sc_mcu9t5v0__dffq_2
* cell instance $862 m0 *1 2293.2,1920.24
X$862 1872 134 58 163 1871 gf180mcu_fd_sc_mcu9t5v0__dffq_2
* cell instance $865 m0 *1 2308.88,1890
X$865 1872 86 58 84 1871 gf180mcu_fd_sc_mcu9t5v0__dffq_2
* cell instance $868 m0 *1 2246.72,1920.24
X$868 1872 159 58 158 1871 gf180mcu_fd_sc_mcu9t5v0__dffq_2
* cell instance $871 m0 *1 2235.52,1980.72
X$871 1872 255 58 253 1871 gf180mcu_fd_sc_mcu9t5v0__dffq_2
* cell instance $874 r0 *1 2248.4,1940.4
X$874 1872 194 58 207 1871 gf180mcu_fd_sc_mcu9t5v0__dffq_2
* cell instance $877 m0 *1 2280.32,1900.08
X$877 1872 105 58 103 1871 gf180mcu_fd_sc_mcu9t5v0__dffq_2
* cell instance $880 m0 *1 2228.8,2000.88
X$880 1872 315 58 333 1871 gf180mcu_fd_sc_mcu9t5v0__dffq_2
* cell instance $882 m0 *1 2288.72,1890
X$882 1872 83 58 82 1871 gf180mcu_fd_sc_mcu9t5v0__dffq_2
* cell instance $885 m0 *1 2165.52,1930.32
X$885 1872 155 58 154 1871 gf180mcu_fd_sc_mcu9t5v0__dffq_2
* cell instance $888 r0 *1 2241.12,1879.92
X$888 1872 81 58 79 1871 gf180mcu_fd_sc_mcu9t5v0__dffq_2
* cell instance $891 r0 *1 2213.68,1879.92
X$891 1872 77 58 88 1871 gf180mcu_fd_sc_mcu9t5v0__dffq_2
* cell instance $894 m0 *1 2208.64,1890
X$894 1872 76 58 75 1871 gf180mcu_fd_sc_mcu9t5v0__dffq_2
* cell instance $896 r0 *1 2207.52,1910.16
X$896 1872 124 58 122 1871 gf180mcu_fd_sc_mcu9t5v0__dffq_2
* cell instance $898 m0 *1 2238.32,1890
X$898 1872 80 58 78 1871 gf180mcu_fd_sc_mcu9t5v0__dffq_2
* cell instance $900 r0 *1 2324,1890
X$900 1872 107 58 87 1871 gf180mcu_fd_sc_mcu9t5v0__dffq_2
* cell instance $902 r0 *1 2239.44,1910.16
X$902 1872 128 58 129 1871 gf180mcu_fd_sc_mcu9t5v0__dffq_2
* cell instance $904 r0 *1 2184,1940.4
X$904 1872 186 58 205 1871 gf180mcu_fd_sc_mcu9t5v0__dffq_2
* cell instance $906 m0 *1 2198,1930.32
X$906 1872 157 58 156 1871 gf180mcu_fd_sc_mcu9t5v0__dffq_2
* cell instance $909 r0 *1 2187.36,1950.48
X$909 1872 187 58 231 1871 gf180mcu_fd_sc_mcu9t5v0__dffq_2
* cell instance $911 m0 *1 2198.56,1970.64
X$911 1872 247 58 245 1871 gf180mcu_fd_sc_mcu9t5v0__dffq_2
* cell instance $913 m0 *1 2229.36,1950.48
X$913 1872 218 58 217 1871 gf180mcu_fd_sc_mcu9t5v0__dffq_2
* cell instance $916 r0 *1 2223.76,1940.4
X$916 1872 192 58 191 1871 gf180mcu_fd_sc_mcu9t5v0__dffq_2
* cell instance $929 r0 *1 2084.32,1960.56
X$929 1872 1871 237 61 183 208 gf180mcu_fd_sc_mcu9t5v0__mux2_2
* cell instance $932 m0 *1 2120.16,1930.32
X$932 1872 1871 149 61 131 152 gf180mcu_fd_sc_mcu9t5v0__mux2_2
* cell instance $934 r0 *1 2108.4,1920.24
X$934 1872 1871 147 61 119 148 gf180mcu_fd_sc_mcu9t5v0__mux2_2
* cell instance $937 m0 *1 2086.56,1970.64
X$937 1872 1871 271 61 214 209 gf180mcu_fd_sc_mcu9t5v0__mux2_2
* cell instance $939 r0 *1 2143.12,1990.8
X$939 1872 1871 304 61 281 306 gf180mcu_fd_sc_mcu9t5v0__mux2_2
* cell instance $942 r0 *1 2126.32,1900.08
X$942 1872 1871 94 61 74 95 gf180mcu_fd_sc_mcu9t5v0__mux2_2
* cell instance $945 r0 *1 2171.12,1990.8
X$945 1872 1871 308 61 282 310 gf180mcu_fd_sc_mcu9t5v0__mux2_2
* cell instance $948 m0 *1 2139.2,2010.96
X$948 1872 1871 303 61 246 305 gf180mcu_fd_sc_mcu9t5v0__mux2_2
* cell instance $950 r0 *1 2136.4,1890
X$950 1872 1871 91 61 66 64 gf180mcu_fd_sc_mcu9t5v0__mux2_2
* cell instance $952 r0 *1 2173.92,2000.88
X$952 1872 1871 309 61 216 307 gf180mcu_fd_sc_mcu9t5v0__mux2_2
* cell instance $964 m0 *1 2118.48,1900.08
X$964 1872 112 85 64 62 99 93 95 1871 gf180mcu_fd_sc_mcu9t5v0__mux4_2
* cell instance $972 m0 *1 2302.72,1960.56
X$972 1872 1871 229 166 63 221 gf180mcu_fd_sc_mcu9t5v0__mux2_2
* cell instance $975 r0 *1 2282.56,2031.12
X$975 1872 1871 436 351 63 385 gf180mcu_fd_sc_mcu9t5v0__mux2_2
* cell instance $977 m0 *1 2112.88,2021.04
X$977 1872 1871 340 150 63 368 gf180mcu_fd_sc_mcu9t5v0__mux2_2
* cell instance $981 m0 *1 2294.88,1990.8
X$981 1872 1871 285 286 63 319 gf180mcu_fd_sc_mcu9t5v0__mux2_2
* cell instance $998 r0 *1 2095.52,2091.6
X$998 1872 656 63 1871 gf180mcu_fd_sc_mcu9t5v0__buf_8
* cell instance $1000 m0 *1 2301.6,2091.6
X$1000 1872 1871 618 507 63 619 gf180mcu_fd_sc_mcu9t5v0__mux2_2
* cell instance $1010 r0 *1 2247.84,1890
X$1010 1872 1871 79 101 66 81 gf180mcu_fd_sc_mcu9t5v0__mux2_2
* cell instance $1012 m0 *1 2334.08,1980.72
X$1012 1872 1871 263 224 66 265 gf180mcu_fd_sc_mcu9t5v0__mux2_2
* cell instance $1014 m0 *1 2329.6,2091.6
X$1014 1872 1871 621 509 66 622 gf180mcu_fd_sc_mcu9t5v0__mux2_2
* cell instance $1016 r0 *1 2313.92,2031.12
X$1016 1872 1871 388 386 66 389 gf180mcu_fd_sc_mcu9t5v0__mux2_2
* cell instance $1018 r0 *1 2144.8,2031.12
X$1018 1872 1871 441 301 66 373 gf180mcu_fd_sc_mcu9t5v0__mux2_2
* cell instance $1020 r0 *1 2140.32,2081.52
X$1020 1872 1871 636 461 66 607 gf180mcu_fd_sc_mcu9t5v0__mux2_2
* cell instance $1023 m0 *1 2326.24,1900.08
X$1023 1872 1871 87 104 66 107 gf180mcu_fd_sc_mcu9t5v0__mux2_2
* cell instance $1041 m0 *1 2185.68,1900.08
X$1041 1872 1871 71 98 66 72 gf180mcu_fd_sc_mcu9t5v0__mux2_2
* cell instance $1043 m0 *1 2137.52,2101.68
X$1043 1872 603 66 1871 gf180mcu_fd_sc_mcu9t5v0__buf_8
* cell instance $1045 m0 *1 2320.08,1990.8
X$1045 1872 1871 288 289 66 322 gf180mcu_fd_sc_mcu9t5v0__mux2_2
* cell instance $1053 r0 *1 2285.36,2021.04
X$1053 1872 1871 403 351 67 384 gf180mcu_fd_sc_mcu9t5v0__mux2_2
* cell instance $1067 r0 *1 2303.28,1940.4
X$1067 1872 1871 197 166 67 220 gf180mcu_fd_sc_mcu9t5v0__mux2_2
* cell instance $1069 m0 *1 2121.28,2021.04
X$1069 1872 1871 356 150 67 341 gf180mcu_fd_sc_mcu9t5v0__mux2_2
* cell instance $1074 m0 *1 2303.28,1990.8
X$1074 1872 1871 295 286 67 287 gf180mcu_fd_sc_mcu9t5v0__mux2_2
* cell instance $1076 r0 *1 2303.28,2071.44
X$1076 1872 1871 544 507 67 583 gf180mcu_fd_sc_mcu9t5v0__mux2_2
* cell instance $1078 r0 *1 2103.36,2081.52
X$1078 1872 821 67 1871 gf180mcu_fd_sc_mcu9t5v0__buf_8
* cell instance $1080 r0 *1 2171.12,1890
X$1080 1872 70 85 72 68 99 69 73 1871 gf180mcu_fd_sc_mcu9t5v0__mux4_2
* cell instance $1093 m0 *1 2171.68,1910.16
X$1093 1872 1871 117 100 113 70 gf180mcu_fd_sc_mcu9t5v0__mux2_2
* cell instance $1110 r0 *1 2190.16,1890
X$1110 1872 1871 89 98 74 73 gf180mcu_fd_sc_mcu9t5v0__mux2_2
* cell instance $1112 m0 *1 2313.92,1900.08
X$1112 1872 1871 84 104 74 86 gf180mcu_fd_sc_mcu9t5v0__mux2_2
* cell instance $1114 m0 *1 2335.76,1970.64
X$1114 1872 1871 269 224 74 264 gf180mcu_fd_sc_mcu9t5v0__mux2_2
* cell instance $1117 m0 *1 2317.28,2101.68
X$1117 1872 1871 675 509 74 620 gf180mcu_fd_sc_mcu9t5v0__mux2_2
* cell instance $1119 m0 *1 2315.6,2010.96
X$1119 1872 1871 355 289 74 321 gf180mcu_fd_sc_mcu9t5v0__mux2_2
* cell instance $1122 m0 *1 2127.44,2081.52