* CDL Netlist generated by OpenROAD

*.BUSDELIMITER [

.SUBCKT smart_fifo almost_empty almost_full clear_errors clk
+ data_count[0] data_count[1] data_count[2] data_count[3] data_count[4]
+ empty error_count[0] error_count[10] error_count[11] error_count[12]
+ error_count[13] error_count[14] error_count[15] error_count[1]
+ error_count[2] error_count[3] error_count[4] error_count[5]
+ error_count[6] error_count[7] error_count[8] error_count[9]
+ error_detected full overflow_detected rd_data[0] rd_data[10]
+ rd_data[11] rd_data[12] rd_data[13] rd_data[14] rd_data[15]
+ rd_data[16] rd_data[17] rd_data[18] rd_data[19] rd_data[1]
+ rd_data[20] rd_data[21] rd_data[22] rd_data[23] rd_data[24]
+ rd_data[25] rd_data[26] rd_data[27] rd_data[28] rd_data[29]
+ rd_data[2] rd_data[30] rd_data[31] rd_data[3] rd_data[4] rd_data[5]
+ rd_data[6] rd_data[7] rd_data[8] rd_data[9] rd_en rd_valid
+ rst_n underflow_detected wr_data[0] wr_data[10] wr_data[11]
+ wr_data[12] wr_data[13] wr_data[14] wr_data[15] wr_data[16]
+ wr_data[17] wr_data[18] wr_data[19] wr_data[1] wr_data[20]
+ wr_data[21] wr_data[22] wr_data[23] wr_data[24] wr_data[25]
+ wr_data[26] wr_data[27] wr_data[28] wr_data[29] wr_data[2]
+ wr_data[30] wr_data[31] wr_data[3] wr_data[4] wr_data[5] wr_data[6]
+ wr_data[7] wr_data[8] wr_data[9] wr_en wr_ready
X_1060_ _1059_ net39 VDD VSS gf180mcu_fd_sc_mcu9t5v0__clkinv_2
X_1061_ _1047_ _1039_ _0576_ VDD VSS gf180mcu_fd_sc_mcu9t5v0__xnor2_4
X_1062_ _0576_ net41 VDD VSS gf180mcu_fd_sc_mcu9t5v0__clkinv_2
X_1063_ _1047_ _1044_ _0577_ VDD VSS gf180mcu_fd_sc_mcu9t5v0__and2_2
X_1064_ _1058_ _1038_ VDD VSS gf180mcu_fd_sc_mcu9t5v0__clkinv_2
X_1065_ _1047_ _1043_ _0577_ _1038_ _1046_ _0578_ VDD VSS
+ gf180mcu_fd_sc_mcu9t5v0__aoi221_4
X_1066_ _1042_ _0578_ _0579_ VDD VSS gf180mcu_fd_sc_mcu9t5v0__xor2_2
X_1067_ _0579_ net42 VDD VSS gf180mcu_fd_sc_mcu9t5v0__clkinv_2
X_1068_ _1042_ _1047_ _1039_ _0580_ VDD VSS gf180mcu_fd_sc_mcu9t5v0__and3_2
X_1069_ _1042_ _1046_ _0580_ _1041_ _0581_ VDD VSS gf180mcu_fd_sc_mcu9t5v0__aoi211_2
X_1070_ wr_ptr\[4\] rd_ptr\[4\] _0581_ _0582_ VDD VSS gf180mcu_fd_sc_mcu9t5v0__xnor3_4
X_1071_ _0582_ net43 VDD VSS gf180mcu_fd_sc_mcu9t5v0__clkinv_2
X_1072_ net40 _0583_ VDD VSS gf180mcu_fd_sc_mcu9t5v0__clkinv_2
X_1073_ _1059_ _0583_ _0584_ VDD VSS gf180mcu_fd_sc_mcu9t5v0__nand2_2
X_1074_ _1042_ _0576_ _0585_ VDD VSS gf180mcu_fd_sc_mcu9t5v0__nand2_2
X_1075_ _1042_ net41 _0586_ VDD VSS gf180mcu_fd_sc_mcu9t5v0__or2_2
X_1076_ _0585_ _0586_ _0578_ _0587_ VDD VSS gf180mcu_fd_sc_mcu9t5v0__mux2_2
X_1077_ _0582_ _0584_ _0587_ net98 VDD VSS gf180mcu_fd_sc_mcu9t5v0__or3_4
X_1078_ net98 net62 VDD VSS gf180mcu_fd_sc_mcu9t5v0__clkinv_2
X_1079_ _1059_ _0583_ _0588_ VDD VSS gf180mcu_fd_sc_mcu9t5v0__and2_2
X_1080_ _1042_ _0576_ _0589_ VDD VSS gf180mcu_fd_sc_mcu9t5v0__and2_2
X_1081_ _1042_ net41 _0590_ VDD VSS gf180mcu_fd_sc_mcu9t5v0__nor2_2
X_1082_ _0589_ _0590_ _0578_ _0591_ VDD VSS gf180mcu_fd_sc_mcu9t5v0__mux2_2
X_1083_ _0582_ _0588_ _0591_ _0592_ VDD VSS gf180mcu_fd_sc_mcu9t5v0__and3_4
X_1084_ _0592_ net96 VDD VSS gf180mcu_fd_sc_mcu9t5v0__clkinv_12
X_1085_ net3 _0592_ net97 VDD VSS gf180mcu_fd_sc_mcu9t5v0__and2_2
X_1086_ net2 _0593_ VDD VSS gf180mcu_fd_sc_mcu9t5v0__clkinv_2
X_1087_ net61 _0593_ _0594_ VDD VSS gf180mcu_fd_sc_mcu9t5v0__and2_2
X_1088_ net97 _0594_ _0000_ VDD VSS gf180mcu_fd_sc_mcu9t5v0__or2_2
X_1089_ rd_ptr\[3\] _1040_ VDD VSS gf180mcu_fd_sc_mcu9t5v0__clkinv_2
X_1090_ rd_ptr\[1\] _0595_ VDD VSS gf180mcu_fd_sc_mcu9t5v0__inv_4
X_1091_ _0595_ _1037_ VDD VSS gf180mcu_fd_sc_mcu9t5v0__buf_8
X_1092_ rd_ptr\[2\] _0596_ VDD VSS gf180mcu_fd_sc_mcu9t5v0__clkinv_8
X_1093_ _0596_ _1045_ VDD VSS gf180mcu_fd_sc_mcu9t5v0__clkbuf_8
X_1094_ wr_ptr\[0\] _0001_ VDD VSS gf180mcu_fd_sc_mcu9t5v0__clkinv_2
X_1095_ wr_ptr\[1\] _1050_ VDD VSS gf180mcu_fd_sc_mcu9t5v0__clkinv_2
X_1096_ net45 net97 _0005_ VDD VSS gf180mcu_fd_sc_mcu9t5v0__xor2_2
X_1097_ net53 net54 net55 _0597_ VDD VSS gf180mcu_fd_sc_mcu9t5v0__and3_2
X_1098_ net56 net57 net58 net59 _0598_ VDD VSS gf180mcu_fd_sc_mcu9t5v0__and4_2
X_1099_ net60 _0598_ _0599_ VDD VSS gf180mcu_fd_sc_mcu9t5v0__and2_2
X_1100_ net3 _1049_ _0600_ VDD VSS gf180mcu_fd_sc_mcu9t5v0__and2_2
X_1101_ _0582_ _0588_ _0591_ _0600_ _0601_ VDD VSS gf180mcu_fd_sc_mcu9t5v0__and4_2
X_1102_ _0597_ _0599_ _0601_ _0602_ VDD VSS gf180mcu_fd_sc_mcu9t5v0__and3_2
X_1103_ net46 _0602_ _0006_ VDD VSS gf180mcu_fd_sc_mcu9t5v0__xor2_2
X_1104_ net45 net52 _0597_ _0603_ VDD VSS gf180mcu_fd_sc_mcu9t5v0__and3_2
X_1105_ net3 _0603_ _0604_ VDD VSS gf180mcu_fd_sc_mcu9t5v0__and2_2
X_1106_ net46 _0592_ _0599_ _0604_ _0605_ VDD VSS gf180mcu_fd_sc_mcu9t5v0__and4_2
X_1107_ net47 _0605_ _0007_ VDD VSS gf180mcu_fd_sc_mcu9t5v0__xor2_2
X_1108_ net60 net46 net47 _0598_ _0606_ VDD VSS gf180mcu_fd_sc_mcu9t5v0__and4_2
X_1109_ _0597_ _0601_ _0606_ _0607_ VDD VSS gf180mcu_fd_sc_mcu9t5v0__and3_2
X_1110_ net48 _0607_ _0008_ VDD VSS gf180mcu_fd_sc_mcu9t5v0__xor2_2
X_1111_ net48 _0592_ _0604_ _0606_ _0608_ VDD VSS gf180mcu_fd_sc_mcu9t5v0__and4_2
X_1112_ net49 _0608_ _0009_ VDD VSS gf180mcu_fd_sc_mcu9t5v0__xor2_2
X_1113_ net48 net49 _0606_ _0609_ VDD VSS gf180mcu_fd_sc_mcu9t5v0__and3_2
X_1114_ _0597_ _0601_ _0609_ _0610_ VDD VSS gf180mcu_fd_sc_mcu9t5v0__and3_2
X_1115_ net50 _0610_ _0010_ VDD VSS gf180mcu_fd_sc_mcu9t5v0__xor2_2
X_1116_ _0592_ _0611_ VDD VSS gf180mcu_fd_sc_mcu9t5v0__buf_20
X_1117_ net3 net50 _0603_ _0609_ _0612_ VDD VSS gf180mcu_fd_sc_mcu9t5v0__and4_2
X_1118_ _0611_ _0612_ _0613_ VDD VSS gf180mcu_fd_sc_mcu9t5v0__nand2_2
X_1119_ net51 _0613_ _0011_ VDD VSS gf180mcu_fd_sc_mcu9t5v0__xnor2_2
X_1120_ net52 _0004_ net97 _0012_ VDD VSS gf180mcu_fd_sc_mcu9t5v0__mux2_2
X_1121_ net53 _0601_ _0013_ VDD VSS gf180mcu_fd_sc_mcu9t5v0__xor2_2
X_1122_ net3 net45 net53 net52 _0614_ VDD VSS gf180mcu_fd_sc_mcu9t5v0__and4_2
X_1123_ _0611_ _0614_ _0615_ VDD VSS gf180mcu_fd_sc_mcu9t5v0__nand2_2
X_1124_ net54 _0615_ _0014_ VDD VSS gf180mcu_fd_sc_mcu9t5v0__xnor2_2
X_1125_ net53 net54 _0601_ _0616_ VDD VSS gf180mcu_fd_sc_mcu9t5v0__and3_2
X_1126_ net55 _0616_ _0015_ VDD VSS gf180mcu_fd_sc_mcu9t5v0__xor2_2
X_1127_ _0611_ _0604_ _0617_ VDD VSS gf180mcu_fd_sc_mcu9t5v0__nand2_2
X_1128_ net56 _0617_ _0016_ VDD VSS gf180mcu_fd_sc_mcu9t5v0__xnor2_2
X_1129_ net56 _0597_ _0601_ _0618_ VDD VSS gf180mcu_fd_sc_mcu9t5v0__and3_2
X_1130_ net57 _0618_ _0017_ VDD VSS gf180mcu_fd_sc_mcu9t5v0__xor2_2
X_1131_ net56 net57 _0619_ VDD VSS gf180mcu_fd_sc_mcu9t5v0__and2_2
X_1132_ net3 _0592_ _0619_ _0603_ _0620_ VDD VSS gf180mcu_fd_sc_mcu9t5v0__and4_2
X_1133_ net58 _0620_ _0018_ VDD VSS gf180mcu_fd_sc_mcu9t5v0__xor2_2
X_1134_ net58 _0597_ _0619_ _0601_ _0621_ VDD VSS gf180mcu_fd_sc_mcu9t5v0__nand4_2
X_1135_ net59 _0621_ _0019_ VDD VSS gf180mcu_fd_sc_mcu9t5v0__xnor2_2
X_1136_ _0611_ _0598_ _0604_ _0622_ VDD VSS gf180mcu_fd_sc_mcu9t5v0__and3_2
X_1137_ net60 _0622_ _0020_ VDD VSS gf180mcu_fd_sc_mcu9t5v0__xor2_2
X_1138_ rd_ptr\[0\] _0623_ VDD VSS gf180mcu_fd_sc_mcu9t5v0__clkbuf_12
X_1139_ _0623_ _0624_ VDD VSS gf180mcu_fd_sc_mcu9t5v0__buf_8
X_1140_ rd_ptr\[2\] _0625_ VDD VSS gf180mcu_fd_sc_mcu9t5v0__buf_8
X_1141_ _0625_ _0626_ VDD VSS gf180mcu_fd_sc_mcu9t5v0__clkbuf_8
X_1142_ mem\[2\]\[0\] mem\[3\]\[0\] mem\[6\]\[0\] mem\[7\]\[0\]
+ _0624_ _0626_ _0627_ VDD VSS gf180mcu_fd_sc_mcu9t5v0__mux4_2
X_1143_ _0623_ _0628_ VDD VSS gf180mcu_fd_sc_mcu9t5v0__buf_8
X_1144_ _0625_ _0629_ VDD VSS gf180mcu_fd_sc_mcu9t5v0__clkbuf_8
X_1145_ mem\[0\]\[0\] mem\[1\]\[0\] mem\[4\]\[0\] mem\[5\]\[0\]
+ _0628_ _0629_ _0630_ VDD VSS gf180mcu_fd_sc_mcu9t5v0__mux4_2
X_1146_ _0627_ _0630_ _1037_ _0631_ VDD VSS gf180mcu_fd_sc_mcu9t5v0__mux2_2
X_1147_ _0623_ _0632_ VDD VSS gf180mcu_fd_sc_mcu9t5v0__buf_8
X_1148_ rd_ptr\[1\] _0633_ VDD VSS gf180mcu_fd_sc_mcu9t5v0__clkbuf_8
X_1149_ _0633_ _0634_ VDD VSS gf180mcu_fd_sc_mcu9t5v0__buf_4
X_1150_ mem\[12\]\[0\] mem\[13\]\[0\] mem\[14\]\[0\] mem\[15\]\[0\]
+ _0632_ _0634_ _0635_ VDD VSS gf180mcu_fd_sc_mcu9t5v0__mux4_2
X_1151_ _0623_ _0636_ VDD VSS gf180mcu_fd_sc_mcu9t5v0__buf_8
X_1152_ _0633_ _0637_ VDD VSS gf180mcu_fd_sc_mcu9t5v0__clkbuf_8
X_1153_ mem\[8\]\[0\] mem\[9\]\[0\] mem\[10\]\[0\] mem\[11\]\[0\]
+ _0636_ _0637_ _0638_ VDD VSS gf180mcu_fd_sc_mcu9t5v0__mux4_2
X_1154_ _0635_ _0638_ _1045_ _0639_ VDD VSS gf180mcu_fd_sc_mcu9t5v0__mux2_2
X_1155_ rd_ptr\[3\] _0640_ VDD VSS gf180mcu_fd_sc_mcu9t5v0__buf_8
X_1156_ _0631_ _0639_ _0640_ _0641_ VDD VSS gf180mcu_fd_sc_mcu9t5v0__mux2_4
X_1157_ net43 _0584_ _0587_ net3 _0642_ VDD VSS gf180mcu_fd_sc_mcu9t5v0__oai31_4
X_1158_ net99 _0643_ VDD VSS gf180mcu_fd_sc_mcu9t5v0__buf_4
X_1159_ _0641_ last_valid_data\[0\] _0643_ _0021_ VDD VSS
+ gf180mcu_fd_sc_mcu9t5v0__mux2_2
X_1160_ mem\[2\]\[10\] mem\[3\]\[10\] mem\[6\]\[10\] mem\[7\]\[10\]
+ _0624_ _0626_ _0644_ VDD VSS gf180mcu_fd_sc_mcu9t5v0__mux4_2
X_1161_ mem\[0\]\[10\] mem\[1\]\[10\] mem\[4\]\[10\] mem\[5\]\[10\]
+ _0628_ _0629_ _0645_ VDD VSS gf180mcu_fd_sc_mcu9t5v0__mux4_2
X_1162_ _0644_ _0645_ _1037_ _0646_ VDD VSS gf180mcu_fd_sc_mcu9t5v0__mux2_2
X_1163_ mem\[12\]\[10\] mem\[13\]\[10\] mem\[14\]\[10\] mem\[15\]\[10\]
+ _0632_ _0634_ _0647_ VDD VSS gf180mcu_fd_sc_mcu9t5v0__mux4_2
X_1164_ mem\[8\]\[10\] mem\[9\]\[10\] mem\[10\]\[10\] mem\[11\]\[10\]
+ _0636_ _0637_ _0648_ VDD VSS gf180mcu_fd_sc_mcu9t5v0__mux4_2
X_1165_ _0647_ _0648_ _1045_ _0649_ VDD VSS gf180mcu_fd_sc_mcu9t5v0__mux2_2
X_1166_ _0646_ _0649_ _0640_ _0650_ VDD VSS gf180mcu_fd_sc_mcu9t5v0__mux2_4
X_1167_ _0650_ last_valid_data\[10\] _0643_ _0022_ VDD VSS
+ gf180mcu_fd_sc_mcu9t5v0__mux2_2
X_1168_ mem\[2\]\[11\] mem\[3\]\[11\] mem\[6\]\[11\] mem\[7\]\[11\]
+ _0624_ _0626_ _0651_ VDD VSS gf180mcu_fd_sc_mcu9t5v0__mux4_2
X_1169_ mem\[0\]\[11\] mem\[1\]\[11\] mem\[4\]\[11\] mem\[5\]\[11\]
+ _0628_ _0629_ _0652_ VDD VSS gf180mcu_fd_sc_mcu9t5v0__mux4_2
X_1170_ _0651_ _0652_ _1037_ _0653_ VDD VSS gf180mcu_fd_sc_mcu9t5v0__mux2_2
X_1171_ mem\[12\]\[11\] mem\[13\]\[11\] mem\[14\]\[11\] mem\[15\]\[11\]
+ _0632_ _0634_ _0654_ VDD VSS gf180mcu_fd_sc_mcu9t5v0__mux4_2
X_1172_ rd_ptr\[0\] _0655_ VDD VSS gf180mcu_fd_sc_mcu9t5v0__buf_8
X_1173_ mem\[8\]\[11\] mem\[9\]\[11\] mem\[10\]\[11\] mem\[11\]\[11\]
+ _0655_ _0637_ _0656_ VDD VSS gf180mcu_fd_sc_mcu9t5v0__mux4_2
X_1174_ _0654_ _0656_ _1045_ _0657_ VDD VSS gf180mcu_fd_sc_mcu9t5v0__mux2_2
X_1175_ _0653_ _0657_ _0640_ _0658_ VDD VSS gf180mcu_fd_sc_mcu9t5v0__mux2_4
X_1176_ _0658_ last_valid_data\[11\] _0643_ _0023_ VDD VSS
+ gf180mcu_fd_sc_mcu9t5v0__mux2_2
X_1177_ mem\[2\]\[12\] mem\[3\]\[12\] mem\[6\]\[12\] mem\[7\]\[12\]
+ _0624_ _0626_ _0659_ VDD VSS gf180mcu_fd_sc_mcu9t5v0__mux4_2
X_1178_ mem\[0\]\[12\] mem\[1\]\[12\] mem\[4\]\[12\] mem\[5\]\[12\]
+ _0628_ _0629_ _0660_ VDD VSS gf180mcu_fd_sc_mcu9t5v0__mux4_2
X_1179_ _0659_ _0660_ _1037_ _0661_ VDD VSS gf180mcu_fd_sc_mcu9t5v0__mux2_2
X_1180_ mem\[12\]\[12\] mem\[13\]\[12\] mem\[14\]\[12\] mem\[15\]\[12\]
+ _0632_ _0634_ _0662_ VDD VSS gf180mcu_fd_sc_mcu9t5v0__mux4_2
X_1181_ mem\[8\]\[12\] mem\[9\]\[12\] mem\[10\]\[12\] mem\[11\]\[12\]
+ _0655_ _0637_ _0663_ VDD VSS gf180mcu_fd_sc_mcu9t5v0__mux4_2
X_1182_ _0662_ _0663_ _1045_ _0664_ VDD VSS gf180mcu_fd_sc_mcu9t5v0__mux2_2
X_1183_ _0661_ _0664_ _0640_ _0665_ VDD VSS gf180mcu_fd_sc_mcu9t5v0__mux2_4
X_1184_ _0665_ last_valid_data\[12\] _0643_ _0024_ VDD VSS
+ gf180mcu_fd_sc_mcu9t5v0__mux2_2
X_1185_ mem\[2\]\[13\] mem\[3\]\[13\] mem\[6\]\[13\] mem\[7\]\[13\]
+ _0624_ _0626_ _0666_ VDD VSS gf180mcu_fd_sc_mcu9t5v0__mux4_2
X_1186_ mem\[0\]\[13\] mem\[1\]\[13\] mem\[4\]\[13\] mem\[5\]\[13\]
+ _0628_ _0629_ _0667_ VDD VSS gf180mcu_fd_sc_mcu9t5v0__mux4_2
X_1187_ _0666_ _0667_ _1037_ _0668_ VDD VSS gf180mcu_fd_sc_mcu9t5v0__mux2_2
X_1188_ _0623_ _0669_ VDD VSS gf180mcu_fd_sc_mcu9t5v0__buf_8
X_1189_ mem\[12\]\[13\] mem\[13\]\[13\] mem\[14\]\[13\] mem\[15\]\[13\]
+ _0669_ _0634_ _0670_ VDD VSS gf180mcu_fd_sc_mcu9t5v0__mux4_2
X_1190_ mem\[8\]\[13\] mem\[9\]\[13\] mem\[10\]\[13\] mem\[11\]\[13\]
+ _0655_ _0637_ _0671_ VDD VSS gf180mcu_fd_sc_mcu9t5v0__mux4_2
X_1191_ _0670_ _0671_ _1045_ _0672_ VDD VSS gf180mcu_fd_sc_mcu9t5v0__mux2_2
X_1192_ _0668_ _0672_ _0640_ _0673_ VDD VSS gf180mcu_fd_sc_mcu9t5v0__mux2_4
X_1193_ _0673_ last_valid_data\[13\] _0643_ _0025_ VDD VSS
+ gf180mcu_fd_sc_mcu9t5v0__mux2_2
X_1194_ mem\[2\]\[14\] mem\[3\]\[14\] mem\[6\]\[14\] mem\[7\]\[14\]
+ _0624_ _0626_ _0674_ VDD VSS gf180mcu_fd_sc_mcu9t5v0__mux4_2
X_1195_ mem\[0\]\[14\] mem\[1\]\[14\] mem\[4\]\[14\] mem\[5\]\[14\]
+ _0628_ _0629_ _0675_ VDD VSS gf180mcu_fd_sc_mcu9t5v0__mux4_2
X_1196_ _0674_ _0675_ _1037_ _0676_ VDD VSS gf180mcu_fd_sc_mcu9t5v0__mux2_2
X_1197_ mem\[12\]\[14\] mem\[13\]\[14\] mem\[14\]\[14\] mem\[15\]\[14\]
+ _0669_ _0634_ _0677_ VDD VSS gf180mcu_fd_sc_mcu9t5v0__mux4_2
X_1198_ mem\[8\]\[14\] mem\[9\]\[14\] mem\[10\]\[14\] mem\[11\]\[14\]
+ _0655_ _0637_ _0678_ VDD VSS gf180mcu_fd_sc_mcu9t5v0__mux4_2
X_1199_ _0677_ _0678_ _1045_ _0679_ VDD VSS gf180mcu_fd_sc_mcu9t5v0__mux2_2
X_1200_ _0676_ _0679_ _0640_ _0680_ VDD VSS gf180mcu_fd_sc_mcu9t5v0__mux2_4
X_1201_ _0680_ last_valid_data\[14\] _0643_ _0026_ VDD VSS
+ gf180mcu_fd_sc_mcu9t5v0__mux2_2
X_1202_ mem\[2\]\[15\] mem\[3\]\[15\] mem\[6\]\[15\] mem\[7\]\[15\]
+ _0624_ _0626_ _0681_ VDD VSS gf180mcu_fd_sc_mcu9t5v0__mux4_2
X_1203_ _0623_ _0682_ VDD VSS gf180mcu_fd_sc_mcu9t5v0__clkbuf_12
X_1204_ mem\[0\]\[15\] mem\[1\]\[15\] mem\[4\]\[15\] mem\[5\]\[15\]
+ _0682_ _0629_ _0683_ VDD VSS gf180mcu_fd_sc_mcu9t5v0__mux4_2
X_1205_ _0681_ _0683_ _1037_ _0684_ VDD VSS gf180mcu_fd_sc_mcu9t5v0__mux2_2
X_1206_ mem\[12\]\[15\] mem\[13\]\[15\] mem\[14\]\[15\] mem\[15\]\[15\]
+ _0669_ _0634_ _0685_ VDD VSS gf180mcu_fd_sc_mcu9t5v0__mux4_2
X_1207_ rd_ptr\[1\] _0686_ VDD VSS gf180mcu_fd_sc_mcu9t5v0__clkbuf_8
X_1208_ mem\[8\]\[15\] mem\[9\]\[15\] mem\[10\]\[15\] mem\[11\]\[15\]
+ _0655_ _0686_ _0687_ VDD VSS gf180mcu_fd_sc_mcu9t5v0__mux4_2
X_1209_ _0685_ _0687_ _1045_ _0688_ VDD VSS gf180mcu_fd_sc_mcu9t5v0__mux2_2
X_1210_ _0684_ _0688_ _0640_ _0689_ VDD VSS gf180mcu_fd_sc_mcu9t5v0__mux2_4
X_1211_ _0689_ last_valid_data\[15\] _0643_ _0027_ VDD VSS
+ gf180mcu_fd_sc_mcu9t5v0__mux2_2
X_1212_ mem\[2\]\[16\] mem\[3\]\[16\] mem\[6\]\[16\] mem\[7\]\[16\]
+ _0624_ _0626_ _0690_ VDD VSS gf180mcu_fd_sc_mcu9t5v0__mux4_2
X_1213_ _0625_ _0691_ VDD VSS gf180mcu_fd_sc_mcu9t5v0__clkbuf_8
X_1214_ mem\[0\]\[16\] mem\[1\]\[16\] mem\[4\]\[16\] mem\[5\]\[16\]
+ _0682_ _0691_ _0692_ VDD VSS gf180mcu_fd_sc_mcu9t5v0__mux4_2
X_1215_ _0690_ _0692_ _1037_ _0693_ VDD VSS gf180mcu_fd_sc_mcu9t5v0__mux2_2
X_1216_ mem\[12\]\[16\] mem\[13\]\[16\] mem\[14\]\[16\] mem\[15\]\[16\]
+ _0669_ _0634_ _0694_ VDD VSS gf180mcu_fd_sc_mcu9t5v0__mux4_2
X_1217_ mem\[8\]\[16\] mem\[9\]\[16\] mem\[10\]\[16\] mem\[11\]\[16\]
+ _0655_ _0686_ _0695_ VDD VSS gf180mcu_fd_sc_mcu9t5v0__mux4_2
X_1218_ _0596_ _0696_ VDD VSS gf180mcu_fd_sc_mcu9t5v0__buf_8
X_1219_ _0694_ _0695_ _0696_ _0697_ VDD VSS gf180mcu_fd_sc_mcu9t5v0__mux2_2
X_1220_ _0693_ _0697_ _0640_ _0698_ VDD VSS gf180mcu_fd_sc_mcu9t5v0__mux2_4
X_1221_ _0698_ last_valid_data\[16\] _0643_ _0028_ VDD VSS
+ gf180mcu_fd_sc_mcu9t5v0__mux2_2
X_1222_ _0623_ _0699_ VDD VSS gf180mcu_fd_sc_mcu9t5v0__buf_8
X_1223_ mem\[2\]\[17\] mem\[3\]\[17\] mem\[6\]\[17\] mem\[7\]\[17\]
+ _0699_ _0626_ _0700_ VDD VSS gf180mcu_fd_sc_mcu9t5v0__mux4_2
X_1224_ mem\[0\]\[17\] mem\[1\]\[17\] mem\[4\]\[17\] mem\[5\]\[17\]
+ _0682_ _0691_ _0701_ VDD VSS gf180mcu_fd_sc_mcu9t5v0__mux4_2
X_1225_ _0700_ _0701_ _1037_ _0702_ VDD VSS gf180mcu_fd_sc_mcu9t5v0__mux2_2
X_1226_ _0633_ _0703_ VDD VSS gf180mcu_fd_sc_mcu9t5v0__clkbuf_8
X_1227_ mem\[12\]\[17\] mem\[13\]\[17\] mem\[14\]\[17\] mem\[15\]\[17\]
+ _0669_ _0703_ _0704_ VDD VSS gf180mcu_fd_sc_mcu9t5v0__mux4_2
X_1228_ mem\[8\]\[17\] mem\[9\]\[17\] mem\[10\]\[17\] mem\[11\]\[17\]
+ _0655_ _0686_ _0705_ VDD VSS gf180mcu_fd_sc_mcu9t5v0__mux4_2
X_1229_ _0704_ _0705_ _0696_ _0706_ VDD VSS gf180mcu_fd_sc_mcu9t5v0__mux2_2
X_1230_ _0702_ _0706_ _0640_ _0707_ VDD VSS gf180mcu_fd_sc_mcu9t5v0__mux2_4
X_1231_ _0707_ last_valid_data\[17\] _0643_ _0029_ VDD VSS
+ gf180mcu_fd_sc_mcu9t5v0__mux2_2
X_1232_ _0625_ _0708_ VDD VSS gf180mcu_fd_sc_mcu9t5v0__clkbuf_8
X_1233_ mem\[2\]\[18\] mem\[3\]\[18\] mem\[6\]\[18\] mem\[7\]\[18\]
+ _0699_ _0708_ _0709_ VDD VSS gf180mcu_fd_sc_mcu9t5v0__mux4_2
X_1234_ mem\[0\]\[18\] mem\[1\]\[18\] mem\[4\]\[18\] mem\[5\]\[18\]
+ _0682_ _0691_ _0710_ VDD VSS gf180mcu_fd_sc_mcu9t5v0__mux4_2
X_1235_ _0595_ _0711_ VDD VSS gf180mcu_fd_sc_mcu9t5v0__buf_8
X_1236_ _0709_ _0710_ _0711_ _0712_ VDD VSS gf180mcu_fd_sc_mcu9t5v0__mux2_2
X_1237_ mem\[12\]\[18\] mem\[13\]\[18\] mem\[14\]\[18\] mem\[15\]\[18\]
+ _0669_ _0703_ _0713_ VDD VSS gf180mcu_fd_sc_mcu9t5v0__mux4_2
X_1238_ mem\[8\]\[18\] mem\[9\]\[18\] mem\[10\]\[18\] mem\[11\]\[18\]
+ _0655_ _0686_ _0714_ VDD VSS gf180mcu_fd_sc_mcu9t5v0__mux4_2
X_1239_ _0713_ _0714_ _0696_ _0715_ VDD VSS gf180mcu_fd_sc_mcu9t5v0__mux2_2
X_1240_ _0712_ _0715_ _0640_ _0716_ VDD VSS gf180mcu_fd_sc_mcu9t5v0__mux2_2
X_1241_ _0642_ _0717_ VDD VSS gf180mcu_fd_sc_mcu9t5v0__clkbuf_8
X_1242_ _0716_ last_valid_data\[18\] _0717_ _0030_ VDD VSS
+ gf180mcu_fd_sc_mcu9t5v0__mux2_2
X_1243_ mem\[2\]\[19\] mem\[3\]\[19\] mem\[6\]\[19\] mem\[7\]\[19\]
+ _0699_ _0708_ _0718_ VDD VSS gf180mcu_fd_sc_mcu9t5v0__mux4_2
X_1244_ mem\[0\]\[19\] mem\[1\]\[19\] mem\[4\]\[19\] mem\[5\]\[19\]
+ _0682_ _0691_ _0719_ VDD VSS gf180mcu_fd_sc_mcu9t5v0__mux4_2
X_1245_ _0718_ _0719_ _0711_ _0720_ VDD VSS gf180mcu_fd_sc_mcu9t5v0__mux2_2
X_1246_ mem\[12\]\[19\] mem\[13\]\[19\] mem\[14\]\[19\] mem\[15\]\[19\]
+ _0669_ _0703_ _0721_ VDD VSS gf180mcu_fd_sc_mcu9t5v0__mux4_2
X_1247_ mem\[8\]\[19\] mem\[9\]\[19\] mem\[10\]\[19\] mem\[11\]\[19\]
+ _0655_ _0686_ _0722_ VDD VSS gf180mcu_fd_sc_mcu9t5v0__mux4_2
X_1248_ _0721_ _0722_ _0696_ _0723_ VDD VSS gf180mcu_fd_sc_mcu9t5v0__mux2_2
X_1249_ rd_ptr\[3\] _0724_ VDD VSS gf180mcu_fd_sc_mcu9t5v0__clkbuf_8
X_1250_ _0720_ _0723_ _0724_ _0725_ VDD VSS gf180mcu_fd_sc_mcu9t5v0__mux2_2
X_1251_ _0725_ last_valid_data\[19\] _0717_ _0031_ VDD VSS
+ gf180mcu_fd_sc_mcu9t5v0__mux2_2
X_1252_ mem\[2\]\[1\] mem\[3\]\[1\] mem\[6\]\[1\] mem\[7\]\[1\]
+ _0699_ _0708_ _0726_ VDD VSS gf180mcu_fd_sc_mcu9t5v0__mux4_2
X_1253_ mem\[0\]\[1\] mem\[1\]\[1\] mem\[4\]\[1\] mem\[5\]\[1\]
+ _0682_ _0691_ _0727_ VDD VSS gf180mcu_fd_sc_mcu9t5v0__mux4_2
X_1254_ _0726_ _0727_ _0711_ _0728_ VDD VSS gf180mcu_fd_sc_mcu9t5v0__mux2_2
X_1255_ mem\[12\]\[1\] mem\[13\]\[1\] mem\[14\]\[1\] mem\[15\]\[1\]
+ _0669_ _0703_ _0729_ VDD VSS gf180mcu_fd_sc_mcu9t5v0__mux4_2
X_1256_ mem\[8\]\[1\] mem\[9\]\[1\] mem\[10\]\[1\] mem\[11\]\[1\]
+ _0655_ _0686_ _0730_ VDD VSS gf180mcu_fd_sc_mcu9t5v0__mux4_2
X_1257_ _0729_ _0730_ _0696_ _0731_ VDD VSS gf180mcu_fd_sc_mcu9t5v0__mux2_2
X_1258_ _0728_ _0731_ _0724_ _0732_ VDD VSS gf180mcu_fd_sc_mcu9t5v0__mux2_2
X_1259_ _0732_ last_valid_data\[1\] _0717_ _0032_ VDD VSS
+ gf180mcu_fd_sc_mcu9t5v0__mux2_2
X_1260_ mem\[2\]\[20\] mem\[3\]\[20\] mem\[6\]\[20\] mem\[7\]\[20\]
+ _0699_ _0708_ _0733_ VDD VSS gf180mcu_fd_sc_mcu9t5v0__mux4_2
X_1261_ mem\[0\]\[20\] mem\[1\]\[20\] mem\[4\]\[20\] mem\[5\]\[20\]
+ _0682_ _0691_ _0734_ VDD VSS gf180mcu_fd_sc_mcu9t5v0__mux4_2
X_1262_ _0733_ _0734_ _0711_ _0735_ VDD VSS gf180mcu_fd_sc_mcu9t5v0__mux2_2
X_1263_ mem\[12\]\[20\] mem\[13\]\[20\] mem\[14\]\[20\] mem\[15\]\[20\]
+ _0669_ _0703_ _0736_ VDD VSS gf180mcu_fd_sc_mcu9t5v0__mux4_2
X_1264_ rd_ptr\[0\] _0737_ VDD VSS gf180mcu_fd_sc_mcu9t5v0__buf_8
X_1265_ mem\[8\]\[20\] mem\[9\]\[20\] mem\[10\]\[20\] mem\[11\]\[20\]
+ _0737_ _0686_ _0738_ VDD VSS gf180mcu_fd_sc_mcu9t5v0__mux4_2
X_1266_ _0736_ _0738_ _0696_ _0739_ VDD VSS gf180mcu_fd_sc_mcu9t5v0__mux2_2
X_1267_ _0735_ _0739_ _0724_ _0740_ VDD VSS gf180mcu_fd_sc_mcu9t5v0__mux2_2
X_1268_ _0740_ last_valid_data\[20\] _0717_ _0033_ VDD VSS
+ gf180mcu_fd_sc_mcu9t5v0__mux2_2
X_1269_ mem\[2\]\[21\] mem\[3\]\[21\] mem\[6\]\[21\] mem\[7\]\[21\]
+ _0699_ _0708_ _0741_ VDD VSS gf180mcu_fd_sc_mcu9t5v0__mux4_2
X_1270_ mem\[0\]\[21\] mem\[1\]\[21\] mem\[4\]\[21\] mem\[5\]\[21\]
+ _0682_ _0691_ _0742_ VDD VSS gf180mcu_fd_sc_mcu9t5v0__mux4_2
X_1271_ _0741_ _0742_ _0711_ _0743_ VDD VSS gf180mcu_fd_sc_mcu9t5v0__mux2_2
X_1272_ mem\[12\]\[21\] mem\[13\]\[21\] mem\[14\]\[21\] mem\[15\]\[21\]
+ _0669_ _0703_ _0744_ VDD VSS gf180mcu_fd_sc_mcu9t5v0__mux4_2
X_1273_ mem\[8\]\[21\] mem\[9\]\[21\] mem\[10\]\[21\] mem\[11\]\[21\]
+ _0737_ _0686_ _0745_ VDD VSS gf180mcu_fd_sc_mcu9t5v0__mux4_2
X_1274_ _0744_ _0745_ _0696_ _0746_ VDD VSS gf180mcu_fd_sc_mcu9t5v0__mux2_2
X_1275_ _0743_ _0746_ _0724_ _0747_ VDD VSS gf180mcu_fd_sc_mcu9t5v0__mux2_2
X_1276_ _0747_ last_valid_data\[21\] _0717_ _0034_ VDD VSS
+ gf180mcu_fd_sc_mcu9t5v0__mux2_2
X_1277_ mem\[2\]\[22\] mem\[3\]\[22\] mem\[6\]\[22\] mem\[7\]\[22\]
+ _0699_ _0708_ _0748_ VDD VSS gf180mcu_fd_sc_mcu9t5v0__mux4_2
X_1278_ mem\[0\]\[22\] mem\[1\]\[22\] mem\[4\]\[22\] mem\[5\]\[22\]
+ _0682_ _0691_ _0749_ VDD VSS gf180mcu_fd_sc_mcu9t5v0__mux4_2
X_1279_ _0748_ _0749_ _0711_ _0750_ VDD VSS gf180mcu_fd_sc_mcu9t5v0__mux2_2
X_1280_ _0623_ _0751_ VDD VSS gf180mcu_fd_sc_mcu9t5v0__clkbuf_8
X_1281_ mem\[12\]\[22\] mem\[13\]\[22\] mem\[14\]\[22\] mem\[15\]\[22\]
+ _0751_ _0703_ _0752_ VDD VSS gf180mcu_fd_sc_mcu9t5v0__mux4_2
X_1282_ mem\[8\]\[22\] mem\[9\]\[22\] mem\[10\]\[22\] mem\[11\]\[22\]
+ _0737_ _0686_ _0753_ VDD VSS gf180mcu_fd_sc_mcu9t5v0__mux4_2
X_1283_ _0752_ _0753_ _0696_ _0754_ VDD VSS gf180mcu_fd_sc_mcu9t5v0__mux2_2
X_1284_ _0750_ _0754_ _0724_ _0755_ VDD VSS gf180mcu_fd_sc_mcu9t5v0__mux2_2
X_1285_ _0755_ last_valid_data\[22\] _0717_ _0035_ VDD VSS
+ gf180mcu_fd_sc_mcu9t5v0__mux2_2
X_1286_ mem\[2\]\[23\] mem\[3\]\[23\] mem\[6\]\[23\] mem\[7\]\[23\]
+ _0699_ _0708_ _0756_ VDD VSS gf180mcu_fd_sc_mcu9t5v0__mux4_2
X_1287_ mem\[0\]\[23\] mem\[1\]\[23\] mem\[4\]\[23\] mem\[5\]\[23\]
+ _0682_ _0691_ _0757_ VDD VSS gf180mcu_fd_sc_mcu9t5v0__mux4_2
X_1288_ _0756_ _0757_ _0711_ _0758_ VDD VSS gf180mcu_fd_sc_mcu9t5v0__mux2_2
X_1289_ mem\[12\]\[23\] mem\[13\]\[23\] mem\[14\]\[23\] mem\[15\]\[23\]
+ _0751_ _0703_ _0759_ VDD VSS gf180mcu_fd_sc_mcu9t5v0__mux4_2
X_1290_ mem\[8\]\[23\] mem\[9\]\[23\] mem\[10\]\[23\] mem\[11\]\[23\]
+ _0737_ _0686_ _0760_ VDD VSS gf180mcu_fd_sc_mcu9t5v0__mux4_2
X_1291_ _0759_ _0760_ _0696_ _0761_ VDD VSS gf180mcu_fd_sc_mcu9t5v0__mux2_2
X_1292_ _0758_ _0761_ _0724_ _0762_ VDD VSS gf180mcu_fd_sc_mcu9t5v0__mux2_2
X_1293_ _0762_ last_valid_data\[23\] _0717_ _0036_ VDD VSS
+ gf180mcu_fd_sc_mcu9t5v0__mux2_2
X_1294_ mem\[2\]\[24\] mem\[3\]\[24\] mem\[6\]\[24\] mem\[7\]\[24\]
+ _0699_ _0708_ _0763_ VDD VSS gf180mcu_fd_sc_mcu9t5v0__mux4_2
X_1295_ _0623_ _0764_ VDD VSS gf180mcu_fd_sc_mcu9t5v0__buf_8
X_1296_ mem\[0\]\[24\] mem\[1\]\[24\] mem\[4\]\[24\] mem\[5\]\[24\]
+ _0764_ _0691_ _0765_ VDD VSS gf180mcu_fd_sc_mcu9t5v0__mux4_2
X_1297_ _0763_ _0765_ _0711_ _0766_ VDD VSS gf180mcu_fd_sc_mcu9t5v0__mux2_2
X_1298_ mem\[12\]\[24\] mem\[13\]\[24\] mem\[14\]\[24\] mem\[15\]\[24\]
+ _0751_ _0703_ _0767_ VDD VSS gf180mcu_fd_sc_mcu9t5v0__mux4_2
X_1299_ rd_ptr\[1\] _0768_ VDD VSS gf180mcu_fd_sc_mcu9t5v0__buf_4
X_1300_ mem\[8\]\[24\] mem\[9\]\[24\] mem\[10\]\[24\] mem\[11\]\[24\]
+ _0737_ _0768_ _0769_ VDD VSS gf180mcu_fd_sc_mcu9t5v0__mux4_2
X_1301_ _0767_ _0769_ _0696_ _0770_ VDD VSS gf180mcu_fd_sc_mcu9t5v0__mux2_2
X_1302_ _0766_ _0770_ _0724_ _0771_ VDD VSS gf180mcu_fd_sc_mcu9t5v0__mux2_2
X_1303_ _0771_ last_valid_data\[24\] _0717_ _0037_ VDD VSS
+ gf180mcu_fd_sc_mcu9t5v0__mux2_2
X_1304_ mem\[2\]\[25\] mem\[3\]\[25\] mem\[6\]\[25\] mem\[7\]\[25\]
+ _0699_ _0708_ _0772_ VDD VSS gf180mcu_fd_sc_mcu9t5v0__mux4_2
X_1305_ rd_ptr\[2\] _0773_ VDD VSS gf180mcu_fd_sc_mcu9t5v0__clkbuf_8
X_1306_ mem\[0\]\[25\] mem\[1\]\[25\] mem\[4\]\[25\] mem\[5\]\[25\]
+ _0764_ _0773_ _0774_ VDD VSS gf180mcu_fd_sc_mcu9t5v0__mux4_2
X_1307_ _0772_ _0774_ _0711_ _0775_ VDD VSS gf180mcu_fd_sc_mcu9t5v0__mux2_2
X_1308_ mem\[12\]\[25\] mem\[13\]\[25\] mem\[14\]\[25\] mem\[15\]\[25\]
+ _0751_ _0703_ _0776_ VDD VSS gf180mcu_fd_sc_mcu9t5v0__mux4_2
X_1309_ mem\[8\]\[25\] mem\[9\]\[25\] mem\[10\]\[25\] mem\[11\]\[25\]
+ _0737_ _0768_ _0777_ VDD VSS gf180mcu_fd_sc_mcu9t5v0__mux4_2
X_1310_ _0596_ _0778_ VDD VSS gf180mcu_fd_sc_mcu9t5v0__clkbuf_8
X_1311_ _0776_ _0777_ _0778_ _0779_ VDD VSS gf180mcu_fd_sc_mcu9t5v0__mux2_2
X_1312_ _0775_ _0779_ _0724_ _0780_ VDD VSS gf180mcu_fd_sc_mcu9t5v0__mux2_2
X_1313_ _0780_ last_valid_data\[25\] _0717_ _0038_ VDD VSS
+ gf180mcu_fd_sc_mcu9t5v0__mux2_2
X_1314_ _0623_ _0781_ VDD VSS gf180mcu_fd_sc_mcu9t5v0__buf_8
X_1315_ mem\[2\]\[26\] mem\[3\]\[26\] mem\[6\]\[26\] mem\[7\]\[26\]
+ _0781_ _0708_ _0782_ VDD VSS gf180mcu_fd_sc_mcu9t5v0__mux4_2
X_1316_ mem\[0\]\[26\] mem\[1\]\[26\] mem\[4\]\[26\] mem\[5\]\[26\]
+ _0764_ _0773_ _0783_ VDD VSS gf180mcu_fd_sc_mcu9t5v0__mux4_2
X_1317_ _0782_ _0783_ _0711_ _0784_ VDD VSS gf180mcu_fd_sc_mcu9t5v0__mux2_2
X_1318_ _0633_ _0785_ VDD VSS gf180mcu_fd_sc_mcu9t5v0__buf_4
X_1319_ mem\[12\]\[26\] mem\[13\]\[26\] mem\[14\]\[26\] mem\[15\]\[26\]
+ _0751_ _0785_ _0786_ VDD VSS gf180mcu_fd_sc_mcu9t5v0__mux4_2
X_1320_ mem\[8\]\[26\] mem\[9\]\[26\] mem\[10\]\[26\] mem\[11\]\[26\]
+ _0737_ _0768_ _0787_ VDD VSS gf180mcu_fd_sc_mcu9t5v0__mux4_2
X_1321_ _0786_ _0787_ _0778_ _0788_ VDD VSS gf180mcu_fd_sc_mcu9t5v0__mux2_2
X_1322_ _0784_ _0788_ _0724_ _0789_ VDD VSS gf180mcu_fd_sc_mcu9t5v0__mux2_2
X_1323_ _0789_ last_valid_data\[26\] _0717_ _0039_ VDD VSS
+ gf180mcu_fd_sc_mcu9t5v0__mux2_2
X_1324_ _0625_ _0790_ VDD VSS gf180mcu_fd_sc_mcu9t5v0__clkbuf_8
X_1325_ mem\[2\]\[27\] mem\[3\]\[27\] mem\[6\]\[27\] mem\[7\]\[27\]
+ _0781_ _0790_ _0791_ VDD VSS gf180mcu_fd_sc_mcu9t5v0__mux4_2
X_1326_ mem\[0\]\[27\] mem\[1\]\[27\] mem\[4\]\[27\] mem\[5\]\[27\]
+ _0764_ _0773_ _0792_ VDD VSS gf180mcu_fd_sc_mcu9t5v0__mux4_2
X_1327_ _0595_ _0793_ VDD VSS gf180mcu_fd_sc_mcu9t5v0__buf_8
X_1328_ _0791_ _0792_ _0793_ _0794_ VDD VSS gf180mcu_fd_sc_mcu9t5v0__mux2_2
X_1329_ mem\[12\]\[27\] mem\[13\]\[27\] mem\[14\]\[27\] mem\[15\]\[27\]
+ _0751_ _0785_ _0795_ VDD VSS gf180mcu_fd_sc_mcu9t5v0__mux4_2
X_1330_ mem\[8\]\[27\] mem\[9\]\[27\] mem\[10\]\[27\] mem\[11\]\[27\]
+ _0737_ _0768_ _0796_ VDD VSS gf180mcu_fd_sc_mcu9t5v0__mux4_2
X_1331_ _0795_ _0796_ _0778_ _0797_ VDD VSS gf180mcu_fd_sc_mcu9t5v0__mux2_2
X_1332_ _0794_ _0797_ _0724_ _0798_ VDD VSS gf180mcu_fd_sc_mcu9t5v0__mux2_2
X_1333_ _0642_ _0799_ VDD VSS gf180mcu_fd_sc_mcu9t5v0__buf_8
X_1334_ _0798_ last_valid_data\[27\] _0799_ _0040_ VDD VSS
+ gf180mcu_fd_sc_mcu9t5v0__mux2_2
X_1335_ mem\[2\]\[28\] mem\[3\]\[28\] mem\[6\]\[28\] mem\[7\]\[28\]
+ _0781_ _0790_ _0800_ VDD VSS gf180mcu_fd_sc_mcu9t5v0__mux4_2
X_1336_ mem\[0\]\[28\] mem\[1\]\[28\] mem\[4\]\[28\] mem\[5\]\[28\]
+ _0764_ _0773_ _0801_ VDD VSS gf180mcu_fd_sc_mcu9t5v0__mux4_2
X_1337_ _0800_ _0801_ _0793_ _0802_ VDD VSS gf180mcu_fd_sc_mcu9t5v0__mux2_2
X_1338_ mem\[12\]\[28\] mem\[13\]\[28\] mem\[14\]\[28\] mem\[15\]\[28\]
+ _0751_ _0785_ _0803_ VDD VSS gf180mcu_fd_sc_mcu9t5v0__mux4_2
X_1339_ mem\[8\]\[28\] mem\[9\]\[28\] mem\[10\]\[28\] mem\[11\]\[28\]
+ _0737_ _0768_ _0804_ VDD VSS gf180mcu_fd_sc_mcu9t5v0__mux4_2
X_1340_ _0803_ _0804_ _0778_ _0805_ VDD VSS gf180mcu_fd_sc_mcu9t5v0__mux2_2
X_1341_ rd_ptr\[3\] _0806_ VDD VSS gf180mcu_fd_sc_mcu9t5v0__buf_8
X_1342_ _0802_ _0805_ _0806_ _0807_ VDD VSS gf180mcu_fd_sc_mcu9t5v0__mux2_2
X_1343_ _0807_ last_valid_data\[28\] _0799_ _0041_ VDD VSS
+ gf180mcu_fd_sc_mcu9t5v0__mux2_2
X_1344_ mem\[2\]\[29\] mem\[3\]\[29\] mem\[6\]\[29\] mem\[7\]\[29\]
+ _0781_ _0790_ _0808_ VDD VSS gf180mcu_fd_sc_mcu9t5v0__mux4_2
X_1345_ mem\[0\]\[29\] mem\[1\]\[29\] mem\[4\]\[29\] mem\[5\]\[29\]
+ _0764_ _0773_ _0809_ VDD VSS gf180mcu_fd_sc_mcu9t5v0__mux4_2
X_1346_ _0808_ _0809_ _0793_ _0810_ VDD VSS gf180mcu_fd_sc_mcu9t5v0__mux2_2
X_1347_ mem\[12\]\[29\] mem\[13\]\[29\] mem\[14\]\[29\] mem\[15\]\[29\]
+ _0751_ _0785_ _0811_ VDD VSS gf180mcu_fd_sc_mcu9t5v0__mux4_2
X_1348_ mem\[8\]\[29\] mem\[9\]\[29\] mem\[10\]\[29\] mem\[11\]\[29\]
+ _0737_ _0768_ _0812_ VDD VSS gf180mcu_fd_sc_mcu9t5v0__mux4_2
X_1349_ _0811_ _0812_ _0778_ _0813_ VDD VSS gf180mcu_fd_sc_mcu9t5v0__mux2_2
X_1350_ _0810_ _0813_ _0806_ _0814_ VDD VSS gf180mcu_fd_sc_mcu9t5v0__mux2_2
X_1351_ _0814_ last_valid_data\[29\] _0799_ _0042_ VDD VSS
+ gf180mcu_fd_sc_mcu9t5v0__mux2_2
X_1352_ mem\[2\]\[2\] mem\[3\]\[2\] mem\[6\]\[2\] mem\[7\]\[2\]
+ _0781_ _0790_ _0815_ VDD VSS gf180mcu_fd_sc_mcu9t5v0__mux4_2
X_1353_ mem\[0\]\[2\] mem\[1\]\[2\] mem\[4\]\[2\] mem\[5\]\[2\]
+ _0764_ _0773_ _0816_ VDD VSS gf180mcu_fd_sc_mcu9t5v0__mux4_2
X_1354_ _0815_ _0816_ _0793_ _0817_ VDD VSS gf180mcu_fd_sc_mcu9t5v0__mux2_2
X_1355_ mem\[12\]\[2\] mem\[13\]\[2\] mem\[14\]\[2\] mem\[15\]\[2\]
+ _0751_ _0785_ _0818_ VDD VSS gf180mcu_fd_sc_mcu9t5v0__mux4_2
X_1356_ rd_ptr\[0\] _0819_ VDD VSS gf180mcu_fd_sc_mcu9t5v0__buf_8
X_1357_ mem\[8\]\[2\] mem\[9\]\[2\] mem\[10\]\[2\] mem\[11\]\[2\]
+ _0819_ _0768_ _0820_ VDD VSS gf180mcu_fd_sc_mcu9t5v0__mux4_2
X_1358_ _0818_ _0820_ _0778_ _0821_ VDD VSS gf180mcu_fd_sc_mcu9t5v0__mux2_2
X_1359_ _0817_ _0821_ _0806_ _0822_ VDD VSS gf180mcu_fd_sc_mcu9t5v0__mux2_2
X_1360_ _0822_ last_valid_data\[2\] _0799_ _0043_ VDD VSS
+ gf180mcu_fd_sc_mcu9t5v0__mux2_2
X_1361_ mem\[2\]\[30\] mem\[3\]\[30\] mem\[6\]\[30\] mem\[7\]\[30\]
+ _0781_ _0790_ _0823_ VDD VSS gf180mcu_fd_sc_mcu9t5v0__mux4_2
X_1362_ mem\[0\]\[30\] mem\[1\]\[30\] mem\[4\]\[30\] mem\[5\]\[30\]
+ _0764_ _0773_ _0824_ VDD VSS gf180mcu_fd_sc_mcu9t5v0__mux4_2
X_1363_ _0823_ _0824_ _0793_ _0825_ VDD VSS gf180mcu_fd_sc_mcu9t5v0__mux2_2
X_1364_ mem\[12\]\[30\] mem\[13\]\[30\] mem\[14\]\[30\] mem\[15\]\[30\]
+ _0751_ _0785_ _0826_ VDD VSS gf180mcu_fd_sc_mcu9t5v0__mux4_2
X_1365_ mem\[8\]\[30\] mem\[9\]\[30\] mem\[10\]\[30\] mem\[11\]\[30\]
+ _0819_ _0768_ _0827_ VDD VSS gf180mcu_fd_sc_mcu9t5v0__mux4_2
X_1366_ _0826_ _0827_ _0778_ _0828_ VDD VSS gf180mcu_fd_sc_mcu9t5v0__mux2_2
X_1367_ _0825_ _0828_ _0806_ _0829_ VDD VSS gf180mcu_fd_sc_mcu9t5v0__mux2_2
X_1368_ _0829_ last_valid_data\[30\] _0799_ _0044_ VDD VSS
+ gf180mcu_fd_sc_mcu9t5v0__mux2_2
X_1369_ mem\[2\]\[31\] mem\[3\]\[31\] mem\[6\]\[31\] mem\[7\]\[31\]
+ _0781_ _0790_ _0830_ VDD VSS gf180mcu_fd_sc_mcu9t5v0__mux4_2
X_1370_ mem\[0\]\[31\] mem\[1\]\[31\] mem\[4\]\[31\] mem\[5\]\[31\]
+ _0764_ _0773_ _0831_ VDD VSS gf180mcu_fd_sc_mcu9t5v0__mux4_2