
* cell power_domain_controller
* pin domain_power_on[2]
* pin start_transition
* pin domain_clock_on[2]
* pin domain_status[2]
* pin domain_enable[2]
* pin transition_done
* pin domain_status[0]
* pin rst_n
* pin domain_transition[2]
* pin domain_enable[0]
* pin domain_transition[0]
* pin domain_reset_n[2]
* pin domain_power_on[0]
* pin domain_isolation_on[2]
* pin clk
* pin domain_clock_on[0]
* pin domain_reset_n[0]
* pin domain_isolate[2]
* pin domain_isolation_on[0]
* pin domain_isolate[0]
* pin domain_status[1]
* pin domain_enable[1]
* pin domain_isolate[1]
* pin domain_isolation_on[1]
* pin domain_isolate[3]
* pin domain_isolation_on[3]
* pin domain_status[3]
* pin domain_enable[3]
* pin domain_power_on[1]
* pin domain_clock_on[1]
* pin domain_clock_on[3]
* pin domain_transition[1]
* pin domain_reset_n[1]
* pin domain_reset_n[3]
* pin domain_transition[3]
* pin domain_power_on[3]
.SUBCKT power_domain_controller 1 2 25 96 97 112 117 123 125 132 133 137 140
+ 147 152 153 157 158 168 175 180 184 194 202 209 210 224 228 231 232 233 234
+ 235 236 237 238
* net 1 domain_power_on[2]
* net 2 start_transition
* net 25 domain_clock_on[2]
* net 96 domain_status[2]
* net 97 domain_enable[2]
* net 112 transition_done
* net 117 domain_status[0]
* net 123 rst_n
* net 125 domain_transition[2]
* net 132 domain_enable[0]
* net 133 domain_transition[0]
* net 137 domain_reset_n[2]
* net 140 domain_power_on[0]
* net 147 domain_isolation_on[2]
* net 152 clk
* net 153 domain_clock_on[0]
* net 157 domain_reset_n[0]
* net 158 domain_isolate[2]
* net 168 domain_isolation_on[0]
* net 175 domain_isolate[0]
* net 180 domain_status[1]
* net 184 domain_enable[1]
* net 194 domain_isolate[1]
* net 202 domain_isolation_on[1]
* net 209 domain_isolate[3]
* net 210 domain_isolation_on[3]
* net 224 domain_status[3]
* net 228 domain_enable[3]
* net 231 domain_power_on[1]
* net 232 domain_clock_on[1]
* net 233 domain_clock_on[3]
* net 234 domain_transition[1]
* net 235 domain_reset_n[1]
* net 236 domain_reset_n[3]
* net 237 domain_transition[3]
* net 238 domain_power_on[3]
* cell instance $3 r0 *1 10.58,2.72
X$3 7 4 1 3 7 3 sky130_fd_sc_hd__clkbuf_1
* cell instance $5 r0 *1 21.16,2.72
X$5 7 2 5 3 7 3 sky130_fd_sc_hd__clkbuf_1
* cell instance $43 m0 *1 4.6,8.16
X$43 3 11 4 26 43 7 7 3 sky130_fd_sc_hd__dfrtp_1
* cell instance $49 m0 *1 19.78,8.16
X$49 3 11 15 26 13 7 7 3 sky130_fd_sc_hd__dfrtp_1
* cell instance $54 m0 *1 32.66,8.16
X$54 3 11 18 6 8 7 7 3 sky130_fd_sc_hd__dfrtp_1
* cell instance $57 m0 *1 41.86,8.16
X$57 3 22 12 10 33 23 7 7 3 sky130_fd_sc_hd__o31a_1
* cell instance $59 m0 *1 46.92,8.16
X$59 3 11 10 6 21 7 7 3 sky130_fd_sc_hd__dfrtp_2
* cell instance $64 r0 *1 1.84,8.16
X$64 3 11 36 26 42 7 7 3 sky130_fd_sc_hd__dfrtp_1
* cell instance $69 r0 *1 15.64,8.16
X$69 3 11 28 26 27 7 7 3 sky130_fd_sc_hd__dfrtp_1
* cell instance $70 r0 *1 24.84,8.16
X$70 3 3 29 7 14 28 7 sky130_fd_sc_hd__nor2_2
* cell instance $72 r0 *1 28.06,8.16
X$72 7 15 30 38 3 7 3 sky130_fd_sc_hd__nor2_1
* cell instance $73 r0 *1 29.44,8.16
X$73 7 16 15 17 3 7 35 3 sky130_fd_sc_hd__a21oi_1
* cell instance $75 r0 *1 31.74,8.16
X$75 7 15 7 3 9 3 sky130_fd_sc_hd__inv_1
* cell instance $77 r0 *1 33.58,8.16
X$77 7 54 24 72 73 3 8 7 3 sky130_fd_sc_hd__a211oi_1
* cell instance $78 r0 *1 36.34,8.16
X$78 7 18 12 14 15 3 31 7 3 sky130_fd_sc_hd__nor4_1
* cell instance $81 r0 *1 40.02,8.16
X$81 7 12 15 18 10 7 3 23 3 sky130_fd_sc_hd__o31ai_1
* cell instance $85 r0 *1 43.7,8.16
X$85 7 34 16 19 3 7 33 3 sky130_fd_sc_hd__a21oi_1
* cell instance $86 r0 *1 45.54,8.16
X$86 7 40 29 22 32 7 3 21 3 sky130_fd_sc_hd__o31ai_1
* cell instance $87 r0 *1 48.3,8.16
X$87 7 10 19 20 3 7 3 sky130_fd_sc_hd__nor2_1
* cell instance $88 r0 *1 49.68,8.16
X$88 3 60 20 10 31 7 7 3 sky130_fd_sc_hd__mux2_1
* cell instance $97 m0 *1 3.22,13.6
X$97 7 36 25 3 7 3 sky130_fd_sc_hd__clkbuf_1
* cell instance $98 m0 *1 4.6,13.6
X$98 3 42 36 49 37 7 7 3 sky130_fd_sc_hd__mux2_1
* cell instance $100 m0 *1 9.66,13.6
X$100 3 43 4 49 44 7 7 3 sky130_fd_sc_hd__mux2_1
* cell instance $104 m0 *1 21.62,13.6
X$104 7 5 9 50 3 7 3 sky130_fd_sc_hd__nor2_1
* cell instance $105 m0 *1 23,13.6
X$105 7 40 46 39 70 13 7 3 3 sky130_fd_sc_hd__o211ai_1
* cell instance $106 m0 *1 25.76,13.6
X$106 3 46 50 24 35 29 38 7 7 3 sky130_fd_sc_hd__a221oi_1
* cell instance $108 m0 *1 29.44,13.6
X$108 7 38 47 52 15 40 39 3 7 3 sky130_fd_sc_hd__a32oi_1
* cell instance $109 m0 *1 32.66,13.6
X$109 7 53 17 48 7 3 3 sky130_fd_sc_hd__nand2_1
* cell instance $110 m0 *1 34.04,13.6
X$110 3 243 19 9 57 7 7 3 sky130_fd_sc_hd__ha_1
* cell instance $111 m0 *1 38.64,13.6
X$111 7 19 15 18 34 3 7 3 sky130_fd_sc_hd__nor3_1
* cell instance $112 m0 *1 40.48,13.6
X$112 3 30 12 10 19 7 7 3 sky130_fd_sc_hd__nor3b_2
* cell instance $114 m0 *1 45.54,13.6
X$114 7 10 19 45 3 7 3 sky130_fd_sc_hd__nor2b_1
* cell instance $116 m0 *1 48.3,13.6
X$116 7 10 41 19 17 3 7 3 sky130_fd_sc_hd__or3b_2
* cell instance $118 m0 *1 52.44,13.6
X$118 3 41 12 7 7 3 sky130_fd_sc_hd__buf_6
* cell instance $124 r0 *1 5.52,13.6
X$124 3 11 49 26 59 7 7 3 sky130_fd_sc_hd__dfrtp_2
* cell instance $132 r0 *1 18.86,13.6
X$132 7 5 7 3 69 3 sky130_fd_sc_hd__inv_1
* cell instance $133 r0 *1 20.24,13.6
X$133 7 51 55 83 3 7 3 sky130_fd_sc_hd__nand2b_1
* cell instance $135 r0 *1 24.38,13.6
X$135 7 28 3 24 7 3 sky130_fd_sc_hd__clkbuf_4
* cell instance $136 r0 *1 27.14,13.6
X$136 7 62 14 28 55 7 3 3 sky130_fd_sc_hd__or3_1
* cell instance $138 r0 *1 29.9,13.6
X$138 7 58 48 56 7 54 3 3 sky130_fd_sc_hd__o21ai_0
* cell instance $139 r0 *1 31.74,13.6
X$139 7 18 55 51 73 3 7 3 sky130_fd_sc_hd__nor3_1
* cell instance $141 r0 *1 34.04,13.6
X$141 3 53 65 9 57 7 7 3 sky130_fd_sc_hd__ha_1
* cell instance $142 r0 *1 38.64,13.6
X$142 7 58 57 30 56 7 3 3 sky130_fd_sc_hd__nand3_1
* cell instance $143 r0 *1 40.48,13.6
X$143 7 53 17 47 71 7 3 3 sky130_fd_sc_hd__nand3_1
* cell instance $150 r0 *1 43.7,13.6
X$150 7 58 29 10 61 3 7 3 sky130_fd_sc_hd__nand3b_1
* cell instance $152 r0 *1 46.92,13.6
X$152 3 32 40 51 61 60 7 7 3 sky130_fd_sc_hd__a2bb2oi_1
* cell instance $153 r0 *1 50.14,13.6
X$153 3 11 41 6 68 7 7 3 sky130_fd_sc_hd__dfrtp_1
* cell instance $158 m0 *1 6.44,19.04
X$158 7 80 74 37 7 3 3 sky130_fd_sc_hd__nand2_1
* cell instance $159 m0 *1 7.82,19.04
X$159 3 59 49 91 63 7 7 3 sky130_fd_sc_hd__mux2_1
* cell instance $161 m0 *1 12.42,19.04
X$161 7 92 3 26 7 3 sky130_fd_sc_hd__clkbuf_4
* cell instance $162 m0 *1 15.18,19.04
X$162 7 80 75 44 7 3 3 sky130_fd_sc_hd__nand2_1
* cell instance $165 m0 *1 18.86,19.04
X$165 3 83 63 7 7 3 sky130_fd_sc_hd__buf_6
* cell instance $167 m0 *1 23.46,19.04
X$167 7 9 104 55 70 7 3 3 sky130_fd_sc_hd__or3_1
* cell instance $168 m0 *1 25.76,19.04
X$168 7 62 29 74 7 3 3 sky130_fd_sc_hd__and2_1
* cell instance $171 m0 *1 29.44,19.04
X$171 7 76 17 16 7 52 3 3 sky130_fd_sc_hd__o21ai_0
* cell instance $172 m0 *1 31.28,19.04
X$172 7 18 7 3 57 3 sky130_fd_sc_hd__inv_1
* cell instance $173 m0 *1 32.66,19.04
X$173 7 58 78 76 17 95 7 3 3 sky130_fd_sc_hd__o211ai_1
* cell instance $175 m0 *1 35.88,19.04
X$175 7 62 3 58 7 3 sky130_fd_sc_hd__buf_2
* cell instance $177 m0 *1 38.64,19.04
X$177 7 18 77 71 64 72 7 3 3 sky130_fd_sc_hd__o211ai_1
* cell instance $178 m0 *1 41.4,19.04
X$178 7 53 30 75 7 64 3 3 sky130_fd_sc_hd__o21ai_0
* cell instance $179 m0 *1 43.24,19.04
X$179 7 12 24 78 66 3 7 3 sky130_fd_sc_hd__nor3b_1
* cell instance $180 m0 *1 46,19.04
X$180 7 65 45 66 7 90 3 3 sky130_fd_sc_hd__o21ai_0
* cell instance $182 m0 *1 48.3,19.04
X$182 7 16 76 12 67 7 3 3 sky130_fd_sc_hd__nand3_1
* cell instance $183 m0 *1 50.14,19.04
X$183 7 82 79 81 51 12 68 3 7 3 sky130_fd_sc_hd__a32oi_1
* cell instance $184 m0 *1 53.36,19.04
X$184 3 79 67 90 88 58 7 7 3 sky130_fd_sc_hd__a31o_1
* cell instance $190 r0 *1 3.68,19.04
X$190 7 89 96 3 7 3 sky130_fd_sc_hd__clkbuf_1
* cell instance $192 r0 *1 6.9,19.04
X$192 3 94 89 91 7 7 3 sky130_fd_sc_hd__xnor2_2
* cell instance $193 r0 *1 12.88,19.04
X$193 7 26 245 3 7 3 sky130_fd_sc_hd__clkbuf_1
* cell instance $201 r0 *1 17.02,19.04
X$201 3 69 84 98 51 94 93 7 7 3 sky130_fd_sc_hd__a41oi_4
* cell instance $205 r0 *1 30.36,19.04
X$205 7 24 30 99 7 3 3 sky130_fd_sc_hd__nand2_1
* cell instance $206 r0 *1 31.74,19.04
X$206 3 27 77 95 99 51 55 7 7 3 sky130_fd_sc_hd__o2111a_1
* cell instance $208 r0 *1 36.8,19.04
X$208 7 6 7 3 3 sky130_fd_sc_hd__clkinv_2
* cell instance $209 r0 *1 38.64,19.04
X$209 7 78 7 3 16 3 sky130_fd_sc_hd__inv_1
* cell instance $210 r0 *1 40.02,19.04
X$210 7 12 65 77 3 7 100 3 sky130_fd_sc_hd__a21boi_0
* cell instance $215 r0 *1 43.24,19.04
X$215 7 58 78 77 7 3 3 sky130_fd_sc_hd__nand2_1
* cell instance $218 r0 *1 47.38,19.04
X$218 7 65 29 86 3 7 3 sky130_fd_sc_hd__nor2_1
* cell instance $219 r0 *1 48.76,19.04
X$219 7 100 40 85 3 7 82 3 sky130_fd_sc_hd__a21oi_1
* cell instance $220 r0 *1 50.6,19.04
X$220 7 58 86 87 7 81 3 3 sky130_fd_sc_hd__o21ai_0
* cell instance $221 r0 *1 52.44,19.04
X$221 7 12 45 87 85 3 7 3 sky130_fd_sc_hd__nor3_1
* cell instance $222 r0 *1 54.28,19.04
X$222 7 12 45 102 88 7 3 3 sky130_fd_sc_hd__or3_1
* cell instance $227 m0 *1 1.84,24.48
X$227 3 11 89 26 105 7 7 3 sky130_fd_sc_hd__dfrtp_1
* cell instance $229 m0 *1 11.5,24.48
X$229 3 11 80 26 107 7 7 3 sky130_fd_sc_hd__dfrtp_4
* cell instance $230 m0 *1 22.08,24.48
X$230 7 94 84 98 93 7 104 3 3 sky130_fd_sc_hd__nand4_1
* cell instance $231 m0 *1 24.38,24.48
X$231 7 40 99 78 101 3 7 3 sky130_fd_sc_hd__nand3b_1
* cell instance $232 m0 *1 27.14,24.48
X$232 7 78 99 101 7 109 3 3 sky130_fd_sc_hd__o21ai_0
* cell instance $234 m0 *1 29.44,24.48
X$234 3 108 58 78 76 7 7 3 sky130_fd_sc_hd__nand3_2
* cell instance $236 m0 *1 33.58,24.48
X$236 3 62 24 75 14 7 7 3 sky130_fd_sc_hd__nor3b_4
* cell instance $237 m0 *1 40.48,24.48
X$237 7 92 3 6 7 3 sky130_fd_sc_hd__clkbuf_4
* cell instance $240 m0 *1 44.62,24.48
X$240 7 24 7 3 76 3 sky130_fd_sc_hd__clkinvlp_4
* cell instance $241 m0 *1 47.38,24.48
X$241 7 103 24 47 7 3 106 3 sky130_fd_sc_hd__o21bai_1
* cell instance $242 m0 *1 50.14,24.48
X$242 7 65 78 87 3 7 3 sky130_fd_sc_hd__nand2b_1
* cell instance $243 m0 *1 52.44,24.48
X$243 7 24 65 102 7 3 3 sky130_fd_sc_hd__nand2_1
* cell instance $251 r0 *1 2.76,24.48
X$251 7 97 91 3 7 3 sky130_fd_sc_hd__clkbuf_1
* cell instance $253 r0 *1 4.6,24.48
X$253 3 105 89 49 114 7 7 3 sky130_fd_sc_hd__mux2_1
* cell instance $254 r0 *1 8.74,24.48
X$254 7 80 111 114 7 3 3 sky130_fd_sc_hd__nand2_1
* cell instance $260 r0 *1 15.64,24.48
X$260 3 107 94 116 63 7 7 3 sky130_fd_sc_hd__mux2i_1
* cell instance $261 r0 *1 19.32,24.48
X$261 7 80 108 116 7 3 3 sky130_fd_sc_hd__nand2_1
* cell instance $263 r0 *1 24.38,24.48
X$263 3 14 111 62 76 7 7 3 sky130_fd_sc_hd__and3_1
* cell instance $264 r0 *1 26.68,24.48
X$264 3 11 14 6 109 7 7 3 sky130_fd_sc_hd__dfrtp_2
* cell instance $266 r0 *1 38.18,24.48
X$266 7 14 3 78 7 3 sky130_fd_sc_hd__buf_2
* cell instance $268 r0 *1 40.94,24.48
X$268 7 58 3 40 7 3 sky130_fd_sc_hd__buf_2
* cell instance $273 r0 *1 46,24.48
X$273 3 115 58 16 103 63 106 7 7 3 sky130_fd_sc_hd__o311a_1
* cell instance $274 r0 *1 49.68,24.48
X$274 7 78 76 156 3 7 3 sky130_fd_sc_hd__nor2_1
* cell instance $277 r0 *1 53.36,24.48
X$277 7 103 112 3 7 3 sky130_fd_sc_hd__clkbuf_1
* cell instance $280 r0 *1 56.12,24.48
X$280 7 123 7 113 3 3 sky130_fd_sc_hd__dlygate4sd3_1
* cell instance $285 m0 *1 1.38,29.92
X$285 7 110 117 3 7 3 sky130_fd_sc_hd__clkbuf_1
* cell instance $286 m0 *1 2.76,29.92
X$286 3 11 110 26 124 7 7 3 sky130_fd_sc_hd__dfrtp_1
* cell instance $287 m0 *1 11.96,29.92
X$287 3 98 110 118 7 7 3 sky130_fd_sc_hd__xnor2_2
* cell instance $294 m0 *1 33.58,29.92
X$294 7 78 62 47 3 7 3 sky130_fd_sc_hd__nor2b_1
* cell instance $295 m0 *1 35.88,29.92
X$295 7 24 14 62 121 3 7 3 sky130_fd_sc_hd__and3b_1
* cell instance $298 m0 *1 40.48,29.92
X$298 7 30 121 120 7 3 3 sky130_fd_sc_hd__and2_1
* cell instance $299 m0 *1 42.78,29.92
X$299 7 24 14 146 3 7 3 sky130_fd_sc_hd__nand2b_1
* cell instance $300 m0 *1 45.08,29.92
X$300 3 122 103 6 115 7 7 3 sky130_fd_sc_hd__dfstp_1
* cell instance $304 m0 *1 57.96,29.92
X$304 7 113 3 122 7 3 sky130_fd_sc_hd__buf_2
* cell instance $305 r0 *1 1.38,29.92
X$305 7 132 118 3 7 3 sky130_fd_sc_hd__clkbuf_1
* cell instance $306 r0 *1 2.76,29.92
X$306 7 80 125 3 7 3 sky130_fd_sc_hd__clkbuf_1
* cell instance $308 r0 *1 5.06,29.92
X$308 3 124 110 119 129 7 7 3 sky130_fd_sc_hd__mux2_1
* cell instance $310 r0 *1 9.66,29.92
X$310 7 142 111 129 7 3 3 sky130_fd_sc_hd__nand2_1
* cell instance $311 r0 *1 11.04,29.92
X$311 3 126 119 118 63 7 7 3 sky130_fd_sc_hd__mux2_1
* cell instance $314 r0 *1 15.64,29.92
X$314 3 11 119 26 126 7 7 3 sky130_fd_sc_hd__dfrtp_1
* cell instance $316 r0 *1 25.3,29.92
X$316 3 11 62 6 131 7 7 3 sky130_fd_sc_hd__dfrtp_2
* cell instance $319 r0 *1 37.26,29.92
X$319 7 120 47 131 3 7 3 sky130_fd_sc_hd__or2_0
* cell instance $320 r0 *1 39.56,29.92
X$320 7 49 80 127 3 7 3 sky130_fd_sc_hd__nor2b_1
* cell instance $326 r0 *1 47.84,29.92
X$326 7 128 127 130 3 7 3 sky130_fd_sc_hd__nor2_1
* cell instance $328 r0 *1 49.68,29.92
X$328 3 122 128 6 171 7 7 3 sky130_fd_sc_hd__dfstp_1
* cell instance $335 m0 *1 2.3,35.36
X$335 3 11 138 160 148 7 7 3 sky130_fd_sc_hd__dfrtp_1
* cell instance $339 m0 *1 17.94,35.36
X$339 7 142 108 139 7 3 3 sky130_fd_sc_hd__nand2_1
* cell instance $340 m0 *1 19.32,35.36
X$340 3 150 98 139 63 7 7 3 sky130_fd_sc_hd__mux2i_1
* cell instance $344 m0 *1 26.22,35.36
X$344 7 152 3 92 7 3 sky130_fd_sc_hd__clkbuf_4
* cell instance $349 m0 *1 38.64,35.36
X$349 7 80 49 151 7 3 3 sky130_fd_sc_hd__nand2_1
* cell instance $350 m0 *1 40.02,35.36
X$350 7 134 80 120 3 7 135 3 sky130_fd_sc_hd__a21oi_1
* cell instance $351 m0 *1 41.86,35.36
X$351 7 135 127 121 3 7 136 3 sky130_fd_sc_hd__a21oi_1
* cell instance $352 m0 *1 43.7,35.36
X$352 3 11 134 145 136 7 7 3 sky130_fd_sc_hd__dfrtp_1
* cell instance $353 m0 *1 52.9,35.36
X$353 7 130 40 149 3 7 170 3 sky130_fd_sc_hd__a21oi_1
* cell instance $354 m0 *1 54.74,35.36
X$354 7 134 137 3 7 3 sky130_fd_sc_hd__clkbuf_1
* cell instance $359 r0 *1 1.38,35.36
X$359 7 138 153 3 7 3 sky130_fd_sc_hd__clkbuf_1
* cell instance $360 r0 *1 2.76,35.36
X$360 7 142 133 3 7 3 sky130_fd_sc_hd__clkbuf_1
* cell instance $361 r0 *1 4.14,35.36
X$361 7 142 74 169 7 3 3 sky130_fd_sc_hd__nand2_1
* cell instance $362 r0 *1 5.52,35.36
X$362 7 141 140 3 7 3 sky130_fd_sc_hd__clkbuf_1
* cell instance $363 r0 *1 6.9,35.36
X$363 3 159 141 119 143 7 7 3 sky130_fd_sc_hd__mux2_1
* cell instance $365 r0 *1 11.96,35.36
X$365 7 142 75 143 7 3 3 sky130_fd_sc_hd__nand2_1
* cell instance $373 r0 *1 19.78,35.36
X$373 3 11 142 160 150 7 7 3 sky130_fd_sc_hd__dfrtp_2
* cell instance $378 r0 *1 36.34,35.36
X$378 7 142 119 165 7 3 3 sky130_fd_sc_hd__nand2_1
* cell instance $379 r0 *1 37.72,35.36
X$379 7 119 142 144 3 7 3 sky130_fd_sc_hd__nor2b_1
* cell instance $380 r0 *1 40.02,35.36
X$380 7 164 144 121 3 7 163 3 sky130_fd_sc_hd__a21oi_1
* cell instance $388 r0 *1 44.62,35.36
X$388 7 146 165 154 7 162 3 3 sky130_fd_sc_hd__o21ai_0
* cell instance $389 r0 *1 46.46,35.36
X$389 7 146 151 128 7 149 3 3 sky130_fd_sc_hd__o21ai_0
* cell instance $392 r0 *1 49.68,35.36
X$392 3 122 154 145 161 7 7 3 sky130_fd_sc_hd__dfstp_1
* cell instance $395 m0 *1 1.84,40.8
X$395 3 148 138 119 169 7 7 3 sky130_fd_sc_hd__mux2_1
* cell instance $396 m0 *1 5.98,40.8
X$396 3 11 141 160 159 7 7 3 sky130_fd_sc_hd__dfrtp_1
* cell instance $399 m0 *1 19.32,40.8
X$399 3 11 173 160 177 7 7 3 sky130_fd_sc_hd__dfrtp_2
* cell instance $403 m0 *1 34.96,40.8
X$403 3 11 155 145 163 7 7 3 sky130_fd_sc_hd__dfrtp_1
* cell instance $405 m0 *1 45.08,40.8
X$405 7 154 144 172 3 7 3 sky130_fd_sc_hd__nor2_1
* cell instance $406 m0 *1 46.46,40.8
X$406 7 172 40 162 3 7 166 3 sky130_fd_sc_hd__a21oi_1
* cell instance $408 m0 *1 48.76,40.8
X$408 7 166 178 156 154 161 3 7 3 sky130_fd_sc_hd__o22a_1
* cell instance $409 m0 *1 51.98,40.8
X$409 7 170 167 156 128 171 3 7 3 sky130_fd_sc_hd__o22a_1
* cell instance $410 m0 *1 55.2,40.8
X$410 7 155 157 3 7 3 sky130_fd_sc_hd__clkbuf_1
* cell instance $412 m0 *1 57.04,40.8
X$412 7 158 167 3 7 3 sky130_fd_sc_hd__clkbuf_1
* cell instance $413 m0 *1 58.42,40.8
X$413 7 128 147 3 7 3 sky130_fd_sc_hd__clkbuf_1
* cell instance $422 r0 *1 17.48,40.8
X$422 7 173 108 176 7 3 3 sky130_fd_sc_hd__nand2_1
* cell instance $423 r0 *1 18.86,40.8
X$423 3 177 93 176 63 7 7 3 sky130_fd_sc_hd__mux2i_1
* cell instance $426 r0 *1 24.84,40.8
X$426 7 174 108 181 7 3 3 sky130_fd_sc_hd__nand2_1
* cell instance $427 r0 *1 26.22,40.8
X$427 3 11 174 145 179 7 7 3 sky130_fd_sc_hd__dfrtp_2
* cell instance $431 r0 *1 39.1,40.8
X$431 7 155 142 120 3 7 164 3 sky130_fd_sc_hd__a21oi_1
* cell instance $438 r0 *1 51.06,40.8
X$438 7 175 178 3 7 3 sky130_fd_sc_hd__clkbuf_1
* cell instance $439 r0 *1 52.44,40.8
X$439 3 122 11 7 7 3 sky130_fd_sc_hd__buf_12
* cell instance $446 m0 *1 3.68,46.24
X$446 7 182 180 3 7 3 sky130_fd_sc_hd__clkbuf_1
* cell instance $450 m0 *1 10.12,46.24
X$450 3 93 182 185 7 7 3 sky130_fd_sc_hd__xnor2_2
* cell instance $451 m0 *1 16.1,46.24
X$451 7 92 3 160 7 3 sky130_fd_sc_hd__clkbuf_4
* cell instance $455 m0 *1 22.08,46.24
X$455 7 174 111 189 7 3 3 sky130_fd_sc_hd__nand2_1
* cell instance $457 m0 *1 25.3,46.24
X$457 3 179 84 181 63 7 7 3 sky130_fd_sc_hd__mux2i_1
* cell instance $463 m0 *1 38.18,46.24
X$463 7 145 244 3 7 3 sky130_fd_sc_hd__clkbuf_1
* cell instance $466 m0 *1 46.92,46.24
X$466 3 122 188 145 183 7 7 3 sky130_fd_sc_hd__dfstp_1
* cell instance $470 m0 *1 58.42,46.24
X$470 7 154 168 3 7 3 sky130_fd_sc_hd__clkbuf_1
* cell instance $473 r0 *1 2.76,46.24
X$473 7 184 185 3 7 3 sky130_fd_sc_hd__clkbuf_1
* cell instance $476 r0 *1 5.52,46.24
X$476 3 203 182 187 195 7 7 3 sky130_fd_sc_hd__mux2_1
* cell instance $477 r0 *1 9.66,46.24
X$477 7 173 111 195 7 3 3 sky130_fd_sc_hd__nand2_1
* cell instance $478 r0 *1 11.04,46.24
X$478 3 186 187 185 63 7 7 3 sky130_fd_sc_hd__mux2_1
* cell instance $481 r0 *1 15.64,46.24
X$481 3 11 187 160 186 7 7 3 sky130_fd_sc_hd__dfrtp_1
* cell instance $485 r0 *1 29.9,46.24
X$485 3 11 190 145 204 7 7 3 sky130_fd_sc_hd__dfrtp_1
* cell instance $486 r0 *1 39.1,46.24
X$486 7 92 3 145 7 3 sky130_fd_sc_hd__clkbuf_4
* cell instance $490 r0 *1 43.24,46.24
X$490 7 173 187 197 7 3 3 sky130_fd_sc_hd__nand2_1
* cell instance $491 r0 *1 44.62,46.24
X$491 7 146 197 188 7 191 3 3 sky130_fd_sc_hd__o21ai_0
* cell instance $492 r0 *1 46.46,46.24
X$492 7 188 206 196 3 7 3 sky130_fd_sc_hd__nor2_1
* cell instance $493 r0 *1 47.84,46.24
X$493 7 196 40 191 3 7 192 3 sky130_fd_sc_hd__a21oi_1
* cell instance $496 r0 *1 51.06,46.24
X$496 7 192 193 156 188 183 3 7 3 sky130_fd_sc_hd__o22a_1
* cell instance $499 r0 *1 56.58,46.24
X$499 7 194 193 3 7 3 sky130_fd_sc_hd__clkbuf_1
* cell instance $500 r0 *1 57.96,46.24
X$500 7 188 202 3 7 3 sky130_fd_sc_hd__clkbuf_1
* cell instance $507 m0 *1 1.84,51.68
X$507 3 11 182 160 203 7 7 3 sky130_fd_sc_hd__dfrtp_1
* cell instance $508 m0 *1 11.04,51.68
X$508 3 11 212 160 222 7 7 3 sky130_fd_sc_hd__dfrtp_1
* cell instance $510 m0 *1 20.7,51.68
X$510 3 213 214 190 189 7 7 3 sky130_fd_sc_hd__mux2_1
* cell instance $514 m0 *1 29.44,51.68
X$514 3 204 190 215 63 7 7 3 sky130_fd_sc_hd__mux2_1
* cell instance $518 m0 *1 38.64,51.68
X$518 7 187 173 206 3 7 3 sky130_fd_sc_hd__nor2b_1
* cell instance $519 m0 *1 40.94,51.68
X$519 7 198 206 121 3 7 205 3 sky130_fd_sc_hd__a21oi_1
* cell instance $520 m0 *1 42.78,51.68
X$520 7 217 173 120 3 7 198 3 sky130_fd_sc_hd__a21oi_1
* cell instance $522 m0 *1 45.08,51.68
X$522 7 174 190 199 7 3 3 sky130_fd_sc_hd__nand2_1
* cell instance $524 m0 *1 46.92,51.68
X$524 7 146 199 200 7 207 3 3 sky130_fd_sc_hd__o21ai_0
* cell instance $525 m0 *1 48.76,51.68
X$525 7 200 218 216 3 7 3 sky130_fd_sc_hd__nor2_1
* cell instance $527 m0 *1 51.06,51.68
X$527 7 216 40 207 3 7 201 3 sky130_fd_sc_hd__a21oi_1
* cell instance $529 m0 *1 53.36,51.68
X$529 7 201 208 156 200 211 3 7 3 sky130_fd_sc_hd__o22a_1
* cell instance $536 r0 *1 9.66,51.68
X$536 7 173 74 239 7 3 3 sky130_fd_sc_hd__nand2_1
* cell instance $539 r0 *1 13.8,51.68
X$539 7 173 75 223 7 3 3 sky130_fd_sc_hd__nand2_1
* cell instance $546 r0 *1 18.4,51.68
X$546 3 11 214 160 213 7 7 3 sky130_fd_sc_hd__dfrtp_1
* cell instance $547 r0 *1 27.6,51.68
X$547 3 84 214 215 7 7 3 sky130_fd_sc_hd__xnor2_2
* cell instance $548 r0 *1 33.58,51.68
X$548 3 11 217 145 205 7 7 3 sky130_fd_sc_hd__dfrtp_1
* cell instance $553 r0 *1 43.24,51.68
X$553 7 219 174 120 3 7 225 3 sky130_fd_sc_hd__a21oi_1
* cell instance $554 r0 *1 45.08,51.68
X$554 7 174 75 226 7 3 3 sky130_fd_sc_hd__nand2_1
* cell instance $555 r0 *1 46.46,51.68
X$555 7 190 174 218 3 7 3 sky130_fd_sc_hd__nor2b_1
* cell instance $557 r0 *1 49.68,51.68
X$557 3 122 200 145 211 7 7 3 sky130_fd_sc_hd__dfstp_1
* cell instance $561 m0 *1 4.14,57.12
X$561 3 11 227 160 229 7 7 3 sky130_fd_sc_hd__dfrtp_1
* cell instance $562 m0 *1 13.34,57.12
X$562 3 222 212 187 223 7 7 3 sky130_fd_sc_hd__mux2_1
* cell instance $564 m0 *1 19.32,57.12
X$564 3 11 242 160 220 7 7 3 sky130_fd_sc_hd__dfrtp_1
* cell instance $567 m0 *1 29.44,57.12
X$567 7 214 224 3 7 3 sky130_fd_sc_hd__clkbuf_1
* cell instance $570 m0 *1 34.96,57.12
X$570 3 11 219 145 221 7 7 3 sky130_fd_sc_hd__dfrtp_1
* cell instance $571 m0 *1 44.16,57.12
X$571 7 225 218 121 3 7 221 3 sky130_fd_sc_hd__a21oi_1
* cell instance $573 m0 *1 46.46,57.12
X$573 3 11 240 145 230 7 7 3 sky130_fd_sc_hd__dfrtp_1
* cell instance $576 m0 *1 57.04,57.12
X$576 7 209 208 3 7 3 sky130_fd_sc_hd__clkbuf_1
* cell instance $577 m0 *1 58.42,57.12
X$577 7 200 210 3 7 3 sky130_fd_sc_hd__clkbuf_1
* cell instance $581 r0 *1 7.82,57.12
X$581 3 229 227 187 239 7 7 3 sky130_fd_sc_hd__mux2_1
* cell instance $582 r0 *1 11.96,57.12
X$582 7 227 232 3 7 3 sky130_fd_sc_hd__clkbuf_1
* cell instance $583 r0 *1 13.34,57.12
X$583 7 212 231 3 7 3 sky130_fd_sc_hd__clkbuf_1
* cell instance $590 r0 *1 21.62,57.12
X$590 7 174 74 241 7 3 3 sky130_fd_sc_hd__nand2_1
* cell instance $591 r0 *1 23,57.12
X$591 3 220 242 190 241 7 7 3 sky130_fd_sc_hd__mux2_1
* cell instance $592 r0 *1 27.14,57.12
X$592 7 242 233 3 7 3 sky130_fd_sc_hd__clkbuf_1
* cell instance $595 r0 *1 29.44,57.12
X$595 7 228 215 3 7 3 sky130_fd_sc_hd__clkbuf_1
* cell instance $599 r0 *1 40.02,57.12
X$599 7 173 234 3 7 3 sky130_fd_sc_hd__clkbuf_1
* cell instance $600 r0 *1 41.4,57.12
X$600 7 217 235 3 7 3 sky130_fd_sc_hd__clkbuf_1
* cell instance $603 r0 *1 43.24,57.12
X$603 7 219 236 3 7 3 sky130_fd_sc_hd__clkbuf_1
* cell instance $604 r0 *1 44.62,57.12
X$604 7 174 237 3 7 3 sky130_fd_sc_hd__clkbuf_1
* cell instance $605 r0 *1 46,57.12
X$605 3 230 240 190 226 7 7 3 sky130_fd_sc_hd__mux2_1
* cell instance $608 r0 *1 54.74,57.12
X$608 7 240 238 3 7 3 sky130_fd_sc_hd__clkbuf_1
.ENDS power_domain_controller

* cell sky130_fd_sc_hd__a2bb2oi_1
* pin VGND
* pin Y
* pin B2
* pin A1_N
* pin A2_N
* pin B1
* pin VPWR
* pin VPB
* pin 
.SUBCKT sky130_fd_sc_hd__a2bb2oi_1 1 3 4 5 6 7 10 11 13
* net 1 VGND
* net 3 Y
* net 4 B2
* net 5 A1_N
* net 6 A2_N
* net 7 B1
* net 10 VPWR
* net 11 VPB
* device instance $1 r0 *1 1.91,1.985 pfet_01v8_hvt
M$1 9 2 3 11 pfet_01v8_hvt L=150000U W=1000000U AS=340000000000P
+ AD=135000000000P PS=2680000U PD=1270000U
* device instance $2 r0 *1 2.33,1.985 pfet_01v8_hvt
M$2 10 4 9 11 pfet_01v8_hvt L=150000U W=1000000U AS=135000000000P
+ AD=135000000000P PS=1270000U PD=1270000U
* device instance $3 r0 *1 2.75,1.985 pfet_01v8_hvt
M$3 9 7 10 11 pfet_01v8_hvt L=150000U W=1000000U AS=135000000000P
+ AD=260000000000P PS=1270000U PD=2520000U
* device instance $4 r0 *1 0.47,1.985 pfet_01v8_hvt
M$4 12 5 10 11 pfet_01v8_hvt L=150000U W=1000000U AS=260000000000P
+ AD=105000000000P PS=2520000U PD=1210000U
* device instance $5 r0 *1 0.83,1.985 pfet_01v8_hvt
M$5 2 6 12 11 pfet_01v8_hvt L=150000U W=1000000U AS=105000000000P
+ AD=260000000000P PS=1210000U PD=2520000U
* device instance $6 r0 *1 0.47,0.56 nfet_01v8
M$6 2 5 1 13 nfet_01v8 L=150000U W=650000U AS=169000000000P AD=87750000000P
+ PS=1820000U PD=920000U
* device instance $7 r0 *1 0.89,0.56 nfet_01v8
M$7 1 6 2 13 nfet_01v8 L=150000U W=650000U AS=87750000000P AD=282750000000P
+ PS=920000U PD=1520000U
* device instance $8 r0 *1 1.91,0.56 nfet_01v8
M$8 3 2 1 13 nfet_01v8 L=150000U W=650000U AS=282750000000P AD=87750000000P
+ PS=1520000U PD=920000U
* device instance $9 r0 *1 2.33,0.56 nfet_01v8
M$9 8 4 3 13 nfet_01v8 L=150000U W=650000U AS=87750000000P AD=87750000000P
+ PS=920000U PD=920000U
* device instance $10 r0 *1 2.75,0.56 nfet_01v8
M$10 1 7 8 13 nfet_01v8 L=150000U W=650000U AS=87750000000P AD=169000000000P
+ PS=920000U PD=1820000U
.ENDS sky130_fd_sc_hd__a2bb2oi_1

* cell sky130_fd_sc_hd__or3b_2
* pin VPB
* pin B
* pin A
* pin C_N
* pin X
* pin VGND
* pin VPWR
* pin 
.SUBCKT sky130_fd_sc_hd__or3b_2 1 2 3 5 6 8 9 10
* net 1 VPB
* net 2 B
* net 3 A
* net 5 C_N
* net 6 X
* net 8 VGND
* net 9 VPWR
* device instance $1 r0 *1 1.865,1.695 pfet_01v8_hvt
M$1 12 3 9 1 pfet_01v8_hvt L=150000U W=420000U AS=148250000000P AD=56700000000P
+ PS=1340000U PD=690000U
* device instance $2 r0 *1 2.285,1.695 pfet_01v8_hvt
M$2 11 2 12 1 pfet_01v8_hvt L=150000U W=420000U AS=56700000000P AD=56700000000P
+ PS=690000U PD=690000U
* device instance $3 r0 *1 2.705,1.695 pfet_01v8_hvt
M$3 7 4 11 1 pfet_01v8_hvt L=150000U W=420000U AS=56700000000P AD=109200000000P
+ PS=690000U PD=1360000U
* device instance $4 r0 *1 0.47,2.01 pfet_01v8_hvt
M$4 4 5 9 1 pfet_01v8_hvt L=150000U W=420000U AS=145750000000P AD=109200000000P
+ PS=1335000U PD=1360000U
* device instance $5 r0 *1 0.955,1.985 pfet_01v8_hvt
M$5 6 7 9 1 pfet_01v8_hvt L=150000U W=2000000U AS=280750000000P
+ AD=283250000000P PS=2605000U PD=2610000U
* device instance $7 r0 *1 0.47,0.445 nfet_01v8
M$7 8 5 4 10 nfet_01v8 L=150000U W=420000U AS=109200000000P AD=100250000000P
+ PS=1360000U PD=985000U
* device instance $8 r0 *1 1.865,0.475 nfet_01v8
M$8 7 3 8 10 nfet_01v8 L=150000U W=420000U AS=101875000000P AD=56700000000P
+ PS=990000U PD=690000U
* device instance $9 r0 *1 2.285,0.475 nfet_01v8
M$9 8 2 7 10 nfet_01v8 L=150000U W=420000U AS=56700000000P AD=56700000000P
+ PS=690000U PD=690000U
* device instance $10 r0 *1 2.705,0.475 nfet_01v8
M$10 7 4 8 10 nfet_01v8 L=150000U W=420000U AS=56700000000P AD=109200000000P
+ PS=690000U PD=1360000U
* device instance $11 r0 *1 0.955,0.56 nfet_01v8
M$11 6 7 8 10 nfet_01v8 L=150000U W=1300000U AS=188000000000P AD=189625000000P
+ PS=1905000U PD=1910000U
.ENDS sky130_fd_sc_hd__or3b_2

* cell sky130_fd_sc_hd__a211oi_1
* pin VPB
* pin A2
* pin A1
* pin C1
* pin B1
* pin VGND
* pin Y
* pin VPWR
* pin 
.SUBCKT sky130_fd_sc_hd__a211oi_1 1 2 3 4 5 6 7 9 10
* net 1 VPB
* net 2 A2
* net 3 A1
* net 4 C1
* net 5 B1
* net 6 VGND
* net 7 Y
* net 9 VPWR
* device instance $1 r0 *1 0.62,1.985 pfet_01v8_hvt
M$1 9 2 8 1 pfet_01v8_hvt L=150000U W=1000000U AS=265000000000P
+ AD=140000000000P PS=2530000U PD=1280000U
* device instance $2 r0 *1 1.05,1.985 pfet_01v8_hvt
M$2 8 3 9 1 pfet_01v8_hvt L=150000U W=1000000U AS=140000000000P
+ AD=140000000000P PS=1280000U PD=1280000U
* device instance $3 r0 *1 1.48,1.985 pfet_01v8_hvt
M$3 11 5 8 1 pfet_01v8_hvt L=150000U W=1000000U AS=140000000000P
+ AD=155000000000P PS=1280000U PD=1310000U
* device instance $4 r0 *1 1.94,1.985 pfet_01v8_hvt
M$4 7 4 11 1 pfet_01v8_hvt L=150000U W=1000000U AS=155000000000P
+ AD=265000000000P PS=1310000U PD=2530000U
* device instance $5 r0 *1 0.62,0.56 nfet_01v8
M$5 12 2 6 10 nfet_01v8 L=150000U W=650000U AS=266500000000P AD=91000000000P
+ PS=2120000U PD=930000U
* device instance $6 r0 *1 1.05,0.56 nfet_01v8
M$6 7 3 12 10 nfet_01v8 L=150000U W=650000U AS=91000000000P AD=91000000000P
+ PS=930000U PD=930000U
* device instance $7 r0 *1 1.48,0.56 nfet_01v8
M$7 6 5 7 10 nfet_01v8 L=150000U W=650000U AS=91000000000P AD=100750000000P
+ PS=930000U PD=960000U
* device instance $8 r0 *1 1.94,0.56 nfet_01v8
M$8 7 4 6 10 nfet_01v8 L=150000U W=650000U AS=100750000000P AD=172250000000P
+ PS=960000U PD=1830000U
.ENDS sky130_fd_sc_hd__a211oi_1

* cell sky130_fd_sc_hd__nor4_1
* pin VPB
* pin D
* pin B
* pin A
* pin C
* pin VGND
* pin Y
* pin VPWR
* pin 
.SUBCKT sky130_fd_sc_hd__nor4_1 1 2 3 4 5 6 7 8 9
* net 1 VPB
* net 2 D
* net 3 B
* net 4 A
* net 5 C
* net 6 VGND
* net 7 Y
* net 8 VPWR
* device instance $1 r0 *1 0.47,1.985 pfet_01v8_hvt
M$1 11 2 7 1 pfet_01v8_hvt L=150000U W=1000000U AS=260000000000P
+ AD=130000000000P PS=2520000U PD=1260000U
* device instance $2 r0 *1 0.88,1.985 pfet_01v8_hvt
M$2 10 5 11 1 pfet_01v8_hvt L=150000U W=1000000U AS=130000000000P
+ AD=190000000000P PS=1260000U PD=1380000U
* device instance $3 r0 *1 1.41,1.985 pfet_01v8_hvt
M$3 12 3 10 1 pfet_01v8_hvt L=150000U W=1000000U AS=190000000000P
+ AD=135000000000P PS=1380000U PD=1270000U
* device instance $4 r0 *1 1.83,1.985 pfet_01v8_hvt
M$4 8 4 12 1 pfet_01v8_hvt L=150000U W=1000000U AS=135000000000P
+ AD=260000000000P PS=1270000U PD=2520000U
* device instance $5 r0 *1 0.47,0.56 nfet_01v8
M$5 7 2 6 9 nfet_01v8 L=150000U W=650000U AS=169000000000P AD=118625000000P
+ PS=1820000U PD=1015000U
* device instance $6 r0 *1 0.985,0.56 nfet_01v8
M$6 6 5 7 9 nfet_01v8 L=150000U W=650000U AS=118625000000P AD=89375000000P
+ PS=1015000U PD=925000U
* device instance $7 r0 *1 1.41,0.56 nfet_01v8
M$7 7 3 6 9 nfet_01v8 L=150000U W=650000U AS=89375000000P AD=87750000000P
+ PS=925000U PD=920000U
* device instance $8 r0 *1 1.83,0.56 nfet_01v8
M$8 6 4 7 9 nfet_01v8 L=150000U W=650000U AS=87750000000P AD=169000000000P
+ PS=920000U PD=1820000U
.ENDS sky130_fd_sc_hd__nor4_1

* cell sky130_fd_sc_hd__o31a_1
* pin VGND
* pin X
* pin A1
* pin A2
* pin A3
* pin B1
* pin VPWR
* pin VPB
* pin 
.SUBCKT sky130_fd_sc_hd__o31a_1 1 2 5 6 7 8 9 10 13
* net 1 VGND
* net 2 X
* net 5 A1
* net 6 A2
* net 7 A3
* net 8 B1
* net 9 VPWR
* net 10 VPB
* device instance $1 r0 *1 0.65,1.985 pfet_01v8_hvt
M$1 9 4 2 10 pfet_01v8_hvt L=150000U W=1000000U AS=360000000000P
+ AD=195000000000P PS=2720000U PD=1390000U
* device instance $2 r0 *1 1.19,1.985 pfet_01v8_hvt
M$2 12 5 9 10 pfet_01v8_hvt L=150000U W=1000000U AS=195000000000P
+ AD=135000000000P PS=1390000U PD=1270000U
* device instance $3 r0 *1 1.61,1.985 pfet_01v8_hvt