
* cell parameterized_barrel_rotator
* pin data_in[15]
* pin data_in[4]
* pin data_in[6]
* pin data_in[13]
* pin data_in[14]
* pin data_in[10]
* pin data_in[18]
* pin data_in[8]
* pin data_in[12]
* pin data_in[20]
* pin data_in[19]
* pin PWELL
* pin NWELL
* pin data_in[16]
* pin data_in[21]
* pin data_in[17]
* pin data_in[11]
* pin data_in[22]
* pin data_in[9]
* pin data_in[23]
* pin data_in[7]
* pin data_in[24]
* pin data_in[5]
* pin data_in[25]
* pin data_in[26]
* pin data_in[3]
* pin data_in[27]
* pin data_in[28]
* pin data_in[1]
* pin data_in[29]
* pin data_in[30]
* pin data_out[10]
* pin data_out[26]
* pin data_out[4]
* pin data_out[3]
* pin data_out[19]
* pin data_out[2]
* pin data_out[18]
* pin data_out[20]
* pin direction
* pin data_out[21]
* pin data_out[24]
* pin data_out[5]
* pin data_out[8]
* pin data_out[16]
* pin data_out[0]
* pin rotate_amount[2]
* pin data_out[17]
* pin rotate_amount[1]
* pin rotate_amount[0]
* pin rotate_amount[4]
* pin data_in[31]
* pin data_out[31]
* pin data_out[11]
* pin data_out[27]
* pin data_out[13]
* pin rotate_amount[3]
* pin data_in[0]
* pin data_out[7]
* pin data_out[23]
* pin data_out[15]
* pin data_in[2]
* pin data_out[28]
* pin data_out[12]
* pin data_out[30]
* pin data_out[14]
* pin data_out[22]
* pin data_out[6]
* pin data_out[29]
* pin data_out[25]
* pin data_out[9]
* pin data_out[1]
.SUBCKT parameterized_barrel_rotator 1 2 3 4 5 6 7 8 9 10 11 15 34 129 130 154
+ 180 210 223 236 264 277 287 349 367 378 391 392 402 425 448 463 464 465 495
+ 496 523 524 525 548 565 566 584 602 603 619 659 668 682 684 695 697 702 704
+ 705 708 709 710 712 713 714 715 716 717 718 719 720 721 723 724 725 726
* net 1 data_in[15]
* net 2 data_in[4]
* net 3 data_in[6]
* net 4 data_in[13]
* net 5 data_in[14]
* net 6 data_in[10]
* net 7 data_in[18]
* net 8 data_in[8]
* net 9 data_in[12]
* net 10 data_in[20]
* net 11 data_in[19]
* net 15 PWELL
* net 34 NWELL
* net 129 data_in[16]
* net 130 data_in[21]
* net 154 data_in[17]
* net 180 data_in[11]
* net 210 data_in[22]
* net 223 data_in[9]
* net 236 data_in[23]
* net 264 data_in[7]
* net 277 data_in[24]
* net 287 data_in[5]
* net 349 data_in[25]
* net 367 data_in[26]
* net 378 data_in[3]
* net 391 data_in[27]
* net 392 data_in[28]
* net 402 data_in[1]
* net 425 data_in[29]
* net 448 data_in[30]
* net 463 data_out[10]
* net 464 data_out[26]
* net 465 data_out[4]
* net 495 data_out[3]
* net 496 data_out[19]
* net 523 data_out[2]
* net 524 data_out[18]
* net 525 data_out[20]
* net 548 direction
* net 565 data_out[21]
* net 566 data_out[24]
* net 584 data_out[5]
* net 602 data_out[8]
* net 603 data_out[16]
* net 619 data_out[0]
* net 659 rotate_amount[2]
* net 668 data_out[17]
* net 682 rotate_amount[1]
* net 684 rotate_amount[0]
* net 695 rotate_amount[4]
* net 697 data_in[31]
* net 702 data_out[31]
* net 704 data_out[11]
* net 705 data_out[27]
* net 708 data_out[13]
* net 709 rotate_amount[3]
* net 710 data_in[0]
* net 712 data_out[7]
* net 713 data_out[23]
* net 714 data_out[15]
* net 715 data_in[2]
* net 716 data_out[28]
* net 717 data_out[12]
* net 718 data_out[30]
* net 719 data_out[14]
* net 720 data_out[22]
* net 721 data_out[6]
* net 723 data_out[29]
* net 724 data_out[25]
* net 725 data_out[9]
* net 726 data_out[1]
* cell instance $2 r0 *1 5.51,1.4
X$2 1 15 34 37 BUF_X1
* cell instance $11 r0 *1 15.96,1.4
X$11 2 15 34 27 CLKBUF_X2
* cell instance $14 r0 *1 17.29,1.4
X$14 3 15 34 16 BUF_X1
* cell instance $23 r0 *1 19.38,1.4
X$23 4 15 34 17 BUF_X1
* cell instance $30 r0 *1 21.28,1.4
X$30 5 15 34 18 BUF_X1
* cell instance $36 r0 *1 21.85,1.4
X$36 6 15 34 19 BUF_X1
* cell instance $42 r0 *1 22.42,1.4
X$42 7 15 34 12 BUF_X1
* cell instance $47 r0 *1 24.13,1.4
X$47 8 15 34 53 BUF_X1
* cell instance $53 r0 *1 26.22,1.4
X$53 9 15 34 110 BUF_X1
* cell instance $59 r0 *1 30.97,1.4
X$59 10 15 34 26 BUF_X1
* cell instance $65 r0 *1 32.87,1.4
X$65 11 15 34 50 BUF_X1
* cell instance $74 m0 *1 21.47,4.2
X$74 12 29 18 15 34 38 MUX2_X1
* cell instance $76 r0 *1 25.84,1.4
X$76 12 15 34 20 INV_X1
* cell instance $79 m0 *1 35.15,12.6
X$79 87 148 12 15 34 173 MUX2_X1
* cell instance $81 r0 *1 37.24,9.8
X$81 127 98 12 15 34 151 MUX2_X1
* cell instance $84 r0 *1 31.54,1.4
X$84 12 25 26 15 34 86 MUX2_X1
* cell instance $87 r0 *1 37.05,7
X$87 72 34 13 15 BUF_X4
* cell instance $104 m0 *1 28.88,29.4
X$104 431 13 15 34 480 NOR2_X1
* cell instance $106 r0 *1 20.52,1.4
X$106 13 30 34 15 31 AND2_X1
* cell instance $108 r0 *1 30.02,4.2
X$108 40 33 13 23 63 34 15 AOI211_X2
* cell instance $110 r0 *1 23.37,7
X$110 60 23 13 15 81 34 AOI21_X2
* cell instance $113 m0 *1 33.25,7
X$113 13 15 34 48 CLKBUF_X3
* cell instance $116 r0 *1 34.39,7
X$116 77 23 13 15 102 34 AOI21_X2
* cell instance $119 r0 *1 35.91,9.8
X$119 43 13 149 15 34 163 MUX2_X1
* cell instance $121 r0 *1 32.87,4.2
X$121 13 34 24 15 BUF_X4
* cell instance $123 r0 *1 27.55,1.4
X$123 20 42 13 23 55 34 15 AOI211_X2
* cell instance $126 m0 *1 22.99,23.8
X$126 225 13 224 15 294 34 NAND3_X4
* cell instance $139 r0 *1 26.6,4.2
X$139 61 14 21 20 34 49 15 NOR4_X2
* cell instance $141 r0 *1 26.79,1.4
X$141 36 14 21 15 34 22 NOR3_X1
* cell instance $144 m0 *1 41.23,4.2
X$144 51 15 34 14 BUF_X1
* cell instance $147 m0 *1 29.07,4.2
X$147 33 14 21 43 34 41 15 NOR4_X2
* cell instance $150 r0 *1 25.08,18.2
X$150 15 177 14 224 225 34 AOI21_X4
* cell instance $152 r0 *1 29.83,21
X$152 15 14 217 34 BUF_X16
* cell instance $154 m0 *1 4.94,43.4
X$154 15 315 34 660 BUF_X8
* cell instance $157 m0 *1 1.9,21
X$157 15 69 34 308 BUF_X8
* cell instance $159 m0 *1 4.37,21
X$159 309 211 209 308 297 34 15 AOI211_X2
* cell instance $160 m0 *1 6.08,21
X$160 69 209 244 34 15 310 AND3_X1
* cell instance $163 m0 *1 7.98,21
X$163 15 141 265 308 209 34 AOI21_X4
* cell instance $164 m0 *1 10.45,21
X$164 254 288 34 15 244 AND2_X1
* cell instance $167 m0 *1 12.92,21
X$167 358 57 80 15 34 311 OR3_X4
* cell instance $177 r0 *1 3.04,21
X$177 241 338 315 308 350 34 15 AOI211_X2
* cell instance $180 r0 *1 5.89,21
X$180 338 15 34 265 INV_X4
* cell instance $182 r0 *1 7.03,21
X$182 265 315 308 15 34 281 NAND3_X2
* cell instance $183 r0 *1 8.36,21
X$183 15 209 34 315 BUF_X8
* cell instance $185 r0 *1 11.21,21
X$185 15 211 34 338 BUF_X8
* cell instance $186 r0 *1 13.68,21
X$186 25 200 80 340 34 342 15 NOR4_X2
* cell instance $187 r0 *1 15.39,21
X$187 339 15 34 340 INV_X1
* cell instance $188 m0 *1 15.58,21
X$188 288 113 98 93 15 34 312 NAND4_X1
* cell instance $190 m0 *1 16.53,21
X$190 360 211 209 69 354 34 15 AOI211_X2
* cell instance $192 m0 *1 18.43,21
X$192 302 188 313 15 34 356 MUX2_X1
* cell instance $194 m0 *1 19.95,21
X$194 202 242 159 34 246 15 OAI21_X1
* cell instance $195 m0 *1 20.71,21
X$195 307 269 226 15 344 34 AOI21_X2
* cell instance $196 m0 *1 22.04,21
X$196 307 15 34 304 INV_X1
* cell instance $199 m0 *1 23.37,21
X$199 119 188 263 15 34 357 MUX2_X1
* cell instance $201 m0 *1 24.89,21
X$201 145 222 361 294 34 15 337 OAI22_X2
* cell instance $203 m0 *1 26.79,21
X$203 225 70 224 15 377 34 NAND3_X4
* cell instance $205 m0 *1 29.45,21
X$205 355 248 337 316 229 345 34 15 AOI221_X2
* cell instance $207 r0 *1 15.77,21
X$207 358 93 98 15 341 34 AOI21_X1
* cell instance $208 r0 *1 16.53,21
X$208 15 361 380 342 354 341 34 OR4_X4
* cell instance $210 r0 *1 20.52,21
X$210 292 204 219 339 15 34 374 NAND4_X1
* cell instance $211 r0 *1 21.47,21
X$211 291 212 108 294 374 362 15 34 OAI221_X2
* cell instance $212 r0 *1 23.56,21
X$212 357 48 356 15 34 376 MUX2_X1
* cell instance $213 r0 *1 24.89,21
X$213 186 313 410 377 34 15 373 OAI22_X2
* cell instance $214 r0 *1 26.6,21
X$214 15 186 279 282 369 377 34 OAI22_X4
* cell instance $215 m0 *1 32.11,21
X$215 258 272 15 34 325 NAND2_X1
* cell instance $217 m0 *1 32.68,21
X$217 335 315 334 15 34 318 MUX2_X1
* cell instance $218 m0 *1 34.01,21
X$218 282 188 259 15 34 330 MUX2_X1
* cell instance $219 m0 *1 35.34,21
X$219 329 48 330 15 34 353 MUX2_X1
* cell instance $221 m0 *1 36.86,21
X$221 318 140 141 34 347 15 NOR3_X2
* cell instance $222 m0 *1 38.19,21
X$222 346 163 212 326 34 15 327 OAI22_X1
* cell instance $223 m0 *1 39.14,21
X$223 321 15 34 326 INV_X1
* cell instance $224 m0 *1 39.52,21
X$224 322 323 231 15 34 348 NAND3_X2
* cell instance $225 m0 *1 40.85,21
X$225 212 323 322 34 15 324 AND3_X1
* cell instance $227 m0 *1 42.56,21
X$227 349 15 34 296 BUF_X1
* cell instance $230 r0 *1 34.58,21
X$230 296 42 334 15 34 364 MUX2_X1
* cell instance $232 r0 *1 36.1,21
X$232 346 365 352 371 347 188 15 34 372 OAI33_X1
* cell instance $233 r0 *1 37.43,21
X$233 207 140 141 15 34 352 NOR3_X1
* cell instance $236 r0 *1 39.33,21
X$236 335 15 34 351 INV_X1
* cell instance $243 m0 *1 7.98,43.4
X$243 15 641 624 508 660 573 34 NOR4_X4
* cell instance $245 m0 *1 11.4,43.4
X$245 709 15 34 624 CLKBUF_X3
* cell instance $249 m0 *1 2.66,18.2
X$249 15 278 350 252 280 279 34 NOR4_X4
* cell instance $251 m0 *1 6.08,18.2
X$251 265 76 132 241 34 280 15 NOR4_X2
* cell instance $252 m0 *1 7.79,18.2
X$252 121 181 34 15 300 AND2_X1
* cell instance $253 m0 *1 8.55,18.2
X$253 181 113 209 69 15 34 267 NAND4_X1
* cell instance $264 r0 *1 3.61,18.2
X$264 264 15 34 288 BUF_X1
* cell instance $266 r0 *1 4.37,18.2
X$266 288 15 34 309 INV_X1
* cell instance $267 r0 *1 4.75,18.2
X$267 287 15 34 339 BUF_X1
* cell instance $269 r0 *1 5.51,18.2
X$269 69 209 265 243 34 15 289 AND4_X1
* cell instance $270 r0 *1 6.65,18.2
X$270 15 222 310 289 297 301 34 OR4_X4
* cell instance $271 r0 *1 9.12,18.2
X$271 85 200 300 34 268 15 OAI21_X1
* cell instance $272 m0 *1 10.83,18.2
X$272 256 267 257 268 15 34 302 NAND4_X1
* cell instance $273 m0 *1 9.88,18.2
X$273 85 76 266 15 34 256 OR3_X1
* cell instance $274 m0 *1 11.78,18.2
X$274 15 256 267 257 268 282 34 AND4_X4
* cell instance $275 m0 *1 14.25,18.2
X$275 61 339 28 71 245 15 34 OAI211_X2
* cell instance $276 m0 *1 15.96,18.2
X$276 292 243 15 34 291 NAND2_X1
* cell instance $277 m0 *1 16.53,18.2
X$277 261 224 225 15 34 260 NAND3_X1
* cell instance $278 m0 *1 17.29,18.2
X$278 285 200 80 15 34 227 OR3_X4
* cell instance $279 m0 *1 19.38,18.2
X$279 243 131 17 15 34 306 MUX2_X1
* cell instance $281 r0 *1 9.88,18.2
X$281 266 93 72 15 301 34 AOI21_X1
* cell instance $283 r0 *1 11.02,18.2
X$283 113 243 200 85 257 15 34 OAI211_X2
* cell instance $285 r0 *1 13.11,18.2
X$285 312 245 290 311 15 313 34 NAND4_X2
* cell instance $286 r0 *1 14.82,18.2
X$286 15 311 312 245 290 259 34 AND4_X4
* cell instance $287 r0 *1 17.29,18.2
X$287 27 25 15 285 34 NAND2_X4
* cell instance $288 r0 *1 19,18.2
X$288 242 202 241 15 34 305 NOR3_X1
* cell instance $289 r0 *1 19.76,18.2
X$289 306 304 328 314 292 331 34 15 AOI221_X2
* cell instance $290 m0 *1 21.85,18.2
X$290 242 202 181 34 269 15 OAI21_X1
* cell instance $291 m0 *1 21.09,18.2
X$291 218 305 307 15 34 182 NOR3_X1
* cell instance $293 r0 *1 21.85,18.2
X$293 269 226 15 34 314 NAND2_X1
* cell instance $294 r0 *1 22.42,18.2
X$294 203 138 332 15 34 303 OR3_X1
* cell instance $295 m0 *1 22.99,18.2
X$295 224 15 34 204 CLKBUF_X3
* cell instance $296 m0 *1 23.94,18.2
X$296 203 138 285 283 33 34 15 293 OAI221_X1
* cell instance $299 r0 *1 23.37,18.2
X$299 33 84 15 34 307 NAND2_X1
* cell instance $300 r0 *1 23.94,18.2
X$300 84 303 293 34 15 333 AND3_X2
* cell instance $301 m0 *1 26.98,18.2
X$301 279 15 34 271 BUF_X1
* cell instance $302 m0 *1 27.55,18.2
X$302 286 145 174 294 270 247 15 34 284 OAI33_X1
* cell instance $303 m0 *1 28.88,18.2
X$303 140 141 283 34 270 15 NOR3_X2
* cell instance $304 m0 *1 30.21,18.2
X$304 24 204 219 15 248 34 AOI21_X2
* cell instance $305 m0 *1 31.54,18.2
X$305 177 271 126 282 15 34 272 AOI22_X1
* cell instance $307 m0 *1 32.68,18.2
X$307 271 15 34 273 BUF_X1
* cell instance $308 m0 *1 33.25,18.2
X$308 107 229 271 126 15 34 250 AOI22_X2
* cell instance $309 m0 *1 34.96,18.2
X$309 206 34 150 15 BUF_X4
* cell instance $310 m0 *1 36.29,18.2
X$310 15 125 34 281 BUF_X8
* cell instance $313 m0 *1 39.71,18.2
X$313 141 140 234 15 34 323 OR3_X1
* cell instance $314 m0 *1 40.66,18.2
X$314 296 84 15 34 274 NAND2_X1
* cell instance $315 m0 *1 41.23,18.2
X$315 164 15 34 275 BUF_X1
* cell instance $317 m0 *1 41.99,18.2
X$317 235 72 276 15 34 234 MUX2_X1
* cell instance $319 r0 *1 27.55,18.2
X$319 263 34 336 15 BUF_X4
* cell instance $320 r0 *1 28.88,18.2
X$320 247 270 15 34 316 NOR2_X2
* cell instance $321 r0 *1 29.83,18.2
X$321 343 24 131 262 298 34 15 AOI211_X2
* cell instance $322 r0 *1 31.54,18.2
X$322 115 248 273 229 15 34 317 AOI22_X2
* cell instance $323 r0 *1 33.25,18.2
X$323 83 188 262 15 34 329 MUX2_X1
* cell instance $325 r0 *1 34.96,18.2
X$325 131 34 231 15 BUF_X4
* cell instance $326 r0 *1 36.29,18.2
X$326 318 188 207 15 34 299 MUX2_X1
* cell instance $327 r0 *1 37.62,18.2
X$327 187 295 15 34 319 NOR2_X1
* cell instance $328 r0 *1 38.19,18.2
X$328 319 299 187 327 15 34 320 AOI22_X1
* cell instance $330 r0 *1 39.52,18.2
X$330 351 51 140 141 274 322 15 34 OAI221_X2
* cell instance $332 r0 *1 41.99,18.2
X$332 276 296 209 34 15 321 MUX2_X2
* cell instance $334 m0 *1 43.89,18.2
X$334 277 15 34 276 BUF_X1
* cell instance $338 m0 *1 1.33,35
X$338 15 535 132 34 BUF_X16
* cell instance $340 m0 *1 6.08,35
X$340 155 585 254 379 308 594 15 34 OAI221_X2
* cell instance $341 m0 *1 8.17,35
X$341 45 508 15 34 585 NOR2_X2
* cell instance $349 r0 *1 5.89,35
X$349 315 308 15 34 604 NAND2_X1
* cell instance $350 r0 *1 6.46,35
X$350 15 604 605 594 559 610 34 NAND4_X4
* cell instance $351 m0 *1 10.26,35
X$351 508 379 34 15 606 AND2_X1
* cell instance $352 m0 *1 9.5,35
X$352 561 116 85 15 34 605 NAND3_X1
* cell instance $353 m0 *1 11.02,35
X$353 254 132 15 34 572 NOR2_X1
* cell instance $355 m0 *1 11.78,35
X$355 238 595 85 34 587 15 NOR3_X2
* cell instance $358 r0 *1 10.07,35
X$358 64 116 606 15 34 607 MUX2_X1
* cell instance $360 r0 *1 11.59,35
X$360 15 436 620 587 607 34 AOI21_X4
* cell instance $361 m0 *1 13.68,35
X$361 483 64 15 34 628 NOR2_X1
* cell instance $367 r0 *1 15.58,35
X$367 292 23 15 34 669 NAND2_X1
* cell instance $368 r0 *1 16.15,35
X$368 15 64 573 23 116 474 34 NAND4_X4
* cell instance $370 m0 *1 17.1,35
X$370 15 573 551 211 413 64 34 OAI211_X4
* cell instance $373 r0 *1 19.76,35
X$373 427 292 34 15 644 AND2_X1
* cell instance $375 m0 *1 20.9,35
X$375 562 554 34 15 574 AND2_X1
* cell instance $377 m0 *1 21.66,35
X$377 542 554 562 15 612 34 AOI21_X2
* cell instance $379 m0 *1 23.18,35
X$379 388 537 563 15 608 34 AOI21_X1
* cell instance $380 m0 *1 23.94,35
X$380 564 575 555 361 15 34 576 AOI22_X2
* cell instance $381 m0 *1 25.65,35
X$381 598 538 539 15 577 34 AOI21_X2
* cell instance $382 m0 *1 26.98,35
X$382 514 578 571 544 446 34 15 589 OAI221_X1
* cell instance $383 m0 *1 28.12,35
X$383 514 544 440 446 34 15 590 OAI22_X1
* cell instance $385 r0 *1 20.71,35
X$385 400 324 596 15 34 611 OR3_X1
* cell instance $386 r0 *1 21.66,35
X$386 596 324 413 34 622 15 OAI21_X1
* cell instance $388 r0 *1 22.61,35
X$388 474 542 15 34 597 NAND2_X1
* cell instance $389 r0 *1 23.18,35
X$389 597 608 600 34 623 15 OAI21_X1
* cell instance $393 r0 *1 25.27,35
X$393 576 625 544 412 646 15 34 OAI211_X2
* cell instance $394 r0 *1 26.98,35
X$394 577 542 388 428 614 34 15 AOI211_X2
* cell instance $395 r0 *1 28.69,35
X$395 428 626 599 577 15 34 625 AOI22_X2
* cell instance $396 m0 *1 29.64,35
X$396 578 579 401 580 546 398 15 34 592 OAI33_X1
* cell instance $398 m0 *1 30.97,35
X$398 546 579 401 580 600 398 15 34 593 OAI33_X1
* cell instance $401 m0 *1 34.58,35
X$401 532 388 15 34 591 NAND2_X1
* cell instance $405 r0 *1 31.35,35
X$405 592 609 15 34 649 OR2_X1
* cell instance $406 r0 *1 32.11,35
X$406 518 479 34 15 617 AND2_X1
* cell instance $409 r0 *1 33.44,35
X$409 593 413 34 15 633 AND2_X1
* cell instance $411 r0 *1 34.96,35
X$411 470 413 15 499 34 NAND2_X4
* cell instance $413 m0 *1 35.53,35
X$413 386 34 411 15 BUF_X4
* cell instance $414 r0 *1 36.67,35
X$414 255 600 583 15 34 621 MUX2_X1
* cell instance $415 m0 *1 37.24,35
X$415 581 386 586 15 34 582 MUX2_X1
* cell instance $416 m0 *1 38.57,35
X$416 15 440 582 570 474 544 568 588 34 OAI222_X2
* cell instance $417 m0 *1 41.23,35
X$417 298 417 15 34 583 NOR2_X1
* cell instance $420 r0 *1 38.38,35
X$420 581 434 255 15 34 636 MUX2_X1
* cell instance $421 r0 *1 39.71,35
X$421 581 490 325 15 34 618 MUX2_X1
* cell instance $423 r0 *1 41.23,35
X$423 325 434 583 15 34 635 MUX2_X1
* cell instance $424 m0 *1 42.75,35
X$424 549 15 34 525 BUF_X1
* cell instance $425 m0 *1 42.18,35
X$425 588 15 34 566 BUF_X1
* cell instance $426 m0 *1 43.32,35
X$426 528 15 34 496 BUF_X1
* cell instance $427 m0 *1 43.89,35
X$427 521 15 34 524 BUF_X1
* cell instance $430 r0 *1 42.75,35
X$430 601 15 34 584 BUF_X1
* cell instance $433 r0 *1 43.89,35
X$433 567 15 34 565 BUF_X1
* cell instance $435 m0 *1 11.02,12.6
X$435 15 121 56 34 BUF_X16
* cell instance $437 m0 *1 15.77,12.6
X$437 15 120 168 114 111 135 34 NOR4_X4
* cell instance $438 m0 *1 19.19,12.6
X$438 134 70 15 34 137 NOR2_X1
* cell instance $439 m0 *1 19.76,12.6
X$439 98 138 136 34 15 145 OAI21_X4
* cell instance $440 m0 *1 22.23,12.6
X$440 138 136 15 34 139 NOR2_X1
* cell instance $441 m0 *1 22.8,12.6
X$441 137 160 161 34 15 157 AND3_X1
* cell instance $442 m0 *1 23.75,12.6
X$442 138 124 40 34 161 15 OAI21_X1
* cell instance $444 m0 *1 24.7,12.6
X$444 140 141 94 15 34 174 NOR3_X1
* cell instance $445 m0 *1 25.46,12.6
X$445 97 112 70 15 34 159 NOR3_X1
* cell instance $447 m0 *1 26.98,12.6
X$447 19 56 110 15 34 162 MUX2_X1
* cell instance $448 m0 *1 28.31,12.6
X$448 140 141 110 34 178 15 OAI21_X1
* cell instance $450 m0 *1 29.26,12.6
X$450 177 82 74 126 15 34 179 AOI22_X2
* cell instance $452 m0 *1 31.73,12.6
X$452 146 145 15 34 176 NOR2_X1
* cell instance $453 m0 *1 32.3,12.6
X$453 62 106 149 15 34 146 MUX2_X1
* cell instance $454 m0 *1 33.63,12.6
X$454 146 70 175 15 34 170 MUX2_X1
* cell instance $456 m0 *1 36.48,12.6
X$456 125 150 15 148 34 NAND2_X4
* cell instance $457 m0 *1 38.19,12.6
X$457 151 125 156 15 34 169 NAND3_X1
* cell instance $458 m0 *1 38.95,12.6
X$458 152 148 166 15 34 164 MUX2_X1
* cell instance $459 m0 *1 40.28,12.6
X$459 105 140 141 15 34 165 NOR3_X1
* cell instance $461 m0 *1 41.23,12.6
X$461 151 150 125 15 167 34 AOI21_X1
* cell instance $462 m0 *1 41.99,12.6
X$462 153 28 128 15 166 34 AOI21_X1
* cell instance $477 r0 *1 8.36,12.6
X$477 15 199 76 34 BUF_X32
* cell instance $478 r0 *1 17.67,12.6
X$478 61 27 28 71 214 15 34 OAI211_X2
* cell instance $479 r0 *1 19.38,12.6
X$479 181 134 17 15 34 184 MUX2_X1
* cell instance $481 r0 *1 20.9,12.6
X$481 59 158 182 196 34 172 15 NOR4_X2
* cell instance $482 r0 *1 22.61,12.6
X$482 19 136 138 15 34 160 OR3_X1
* cell instance $483 r0 *1 23.56,12.6
X$483 136 15 34 203 BUF_X1
* cell instance $484 r0 *1 24.13,12.6
X$484 136 34 202 15 BUF_X4
* cell instance $485 r0 *1 25.46,12.6
X$485 162 139 118 15 34 183 MUX2_X1
* cell instance $486 r0 *1 26.79,12.6
X$486 139 34 188 15 BUF_X4
* cell instance $488 r0 *1 28.5,12.6
X$488 145 178 142 15 195 34 AOI21_X2
* cell instance $489 r0 *1 29.83,12.6
X$489 144 126 176 217 147 194 34 15 AOI221_X2
* cell instance $490 r0 *1 31.92,12.6
X$490 15 171 84 34 BUF_X16
* cell instance $491 r0 *1 36.67,12.6
X$491 135 187 84 34 193 15 NOR3_X2
* cell instance $492 r0 *1 38,12.6
X$492 140 141 15 34 187 NOR2_X2
* cell instance $493 r0 *1 38.95,12.6
X$493 187 152 169 34 189 15 OAI21_X1
* cell instance $495 r0 *1 40.09,12.6
X$495 167 165 15 34 190 OR2_X1
* cell instance $496 r0 *1 40.85,12.6
X$496 150 125 166 34 15 232 AND3_X1
* cell instance $501 m0 *1 11.02,37.8
X$501 627 653 95 572 620 34 15 AOI211_X2
* cell instance $502 m0 *1 10.07,37.8
X$502 641 624 155 15 34 627 OR3_X1
* cell instance $503 m0 *1 12.73,37.8
X$503 95 508 15 34 640 NAND2_X1
* cell instance $504 m0 *1 13.3,37.8
X$504 95 116 640 15 34 642 MUX2_X1
* cell instance $508 m0 *1 19.38,37.8
X$508 629 34 542 15 BUF_X4
* cell instance $509 m0 *1 20.71,37.8
X$509 331 422 574 15 34 613 MUX2_X1
* cell instance $510 m0 *1 22.04,37.8
X$510 192 400 622 15 34 645 MUX2_X1
* cell instance $511 m0 *1 23.37,37.8
X$511 575 644 222 555 15 34 630 AOI22_X1
* cell instance $513 m0 *1 24.51,37.8
X$513 613 578 630 645 544 34 15 664 OAI221_X1
* cell instance $514 m0 *1 25.65,37.8
X$514 624 610 34 15 598 XNOR2_X1
* cell instance $515 m0 *1 26.79,37.8
X$515 615 505 333 15 34 631 OR3_X2
* cell instance $516 m0 *1 27.93,37.8
X$516 440 412 614 623 34 15 658 OAI22_X1
* cell instance $517 m0 *1 28.88,37.8
X$517 632 295 434 15 34 626 NOR3_X1
* cell instance $518 m0 *1 29.64,37.8
X$518 474 108 15 34 648 NOR2_X1
* cell instance $519 m0 *1 30.21,37.8
X$519 615 15 34 657 BUF_X1
* cell instance $532 r0 *1 4.37,37.8
X$532 15 155 34 659 BUF_X8
* cell instance $535 r0 *1 9.12,37.8
X$535 624 610 15 34 557 XNOR2_X2
* cell instance $536 r0 *1 11.02,37.8
X$536 624 155 15 34 560 OR2_X1
* cell instance $537 r0 *1 11.78,37.8
X$537 610 624 34 655 15 XOR2_X2
* cell instance $539 r0 *1 13.68,37.8
X$539 627 653 628 669 595 642 15 34 643 OAI33_X1
* cell instance $540 r0 *1 15.01,37.8
X$540 624 641 15 34 595 NAND2_X1
* cell instance $541 r0 *1 15.58,37.8
X$541 697 15 34 427 CLKBUF_X2
* cell instance $544 r0 *1 18.24,37.8
X$544 643 15 34 615 BUF_X1
* cell instance $545 r0 *1 18.81,37.8
X$545 643 15 34 629 BUF_X1
* cell instance $546 r0 *1 19.38,37.8
X$546 557 34 388 15 BUF_X4
* cell instance $548 r0 *1 20.9,37.8
X$548 644 542 15 34 663 NAND2_X1
* cell instance $550 r0 *1 21.66,37.8
X$550 331 386 192 15 34 711 MUX2_X1
* cell instance $552 r0 *1 23.18,37.8
X$552 436 632 295 34 575 15 NOR3_X2
* cell instance $555 r0 *1 25.08,37.8
X$555 333 505 598 34 665 15 NOR3_X2
* cell instance $556 r0 *1 26.41,37.8
X$556 429 575 34 15 672 AND2_X1
* cell instance $558 r0 *1 27.36,37.8
X$558 673 672 648 647 34 666 15 OR4_X2
* cell instance $560 r0 *1 29.07,37.8
X$560 436 490 15 34 578 NAND2_X2
* cell instance $562 r0 *1 30.4,37.8
X$562 295 656 445 15 34 NOR2_X4
* cell instance $563 m0 *1 32.11,37.8
X$563 479 518 655 15 34 650 NAND3_X2
* cell instance $565 m0 *1 33.44,37.8
X$565 373 284 557 34 616 15 OAI21_X1
* cell instance $566 m0 *1 34.2,37.8
X$566 284 373 15 34 654 OR2_X1
* cell instance $568 r0 *1 32.11,37.8
X$568 655 15 34 656 BUF_X1
* cell instance $569 r0 *1 32.68,37.8
X$569 599 616 650 34 15 671 AND3_X2
* cell instance $572 r0 *1 34.39,37.8
X$572 432 474 542 388 543 34 15 691 OAI221_X1
* cell instance $573 m0 *1 35.53,37.8
X$573 15 598 157 193 369 683 34 NOR4_X4
* cell instance $575 m0 *1 38.95,37.8
X$575 369 193 157 15 34 634 NOR3_X1
* cell instance $576 m0 *1 39.71,37.8
X$576 474 432 15 34 652 NOR2_X1
* cell instance $578 m0 *1 40.47,37.8
X$578 445 15 34 639 INV_X1
* cell instance $580 r0 *1 35.53,37.8
X$580 655 15 34 520 BUF_X2
* cell instance $582 r0 *1 36.48,37.8
X$582 600 15 34 440 CLKBUF_X3
* cell instance $583 r0 *1 37.43,37.8
X$583 617 434 240 15 34 670 MUX2_X1
* cell instance $584 r0 *1 38.76,37.8
X$584 542 650 616 15 651 34 AOI21_X1
* cell instance $586 r0 *1 39.71,37.8
X$586 490 34 470 15 BUF_X4
* cell instance $587 r0 *1 41.04,37.8
X$587 546 15 34 544 CLKBUF_X3
* cell instance $588 m0 *1 42.18,37.8
X$588 544 635 636 440 34 15 637 OAI22_X1
* cell instance $589 m0 *1 41.23,37.8
X$589 411 618 639 621 34 15 638 OAI22_X1
* cell instance $590 m0 *1 43.13,37.8
X$590 638 15 34 602 BUF_X1
* cell instance $591 m0 *1 43.7,37.8
X$591 637 15 34 603 BUF_X1
* cell instance $595 r0 *1 42.37,37.8
X$595 499 635 636 470 34 15 667 OAI22_X1
* cell instance $598 r0 *1 43.89,37.8
X$598 667 15 34 619 BUF_X1
* cell instance $601 m0 *1 4.56,29.4
X$601 15 338 45 34 BUF_X16
* cell instance $602 m0 *1 9.5,29.4
X$602 15 254 34 338 BUF_X8
* cell instance $603 m0 *1 11.97,29.4
X$603 95 85 15 34 482 NAND2_X2
* cell instance $604 m0 *1 12.92,29.4
X$604 80 56 15 34 483 OR2_X1
* cell instance $606 m0 *1 14.44,29.4
X$606 85 29 15 34 449 OR2_X1
* cell instance $607 m0 *1 15.2,29.4
X$607 449 450 113 95 454 34 15 AOI211_X2
* cell instance $608 m0 *1 16.91,29.4
X$608 451 407 15 34 529 OR2_X1
* cell instance $609 m0 *1 17.67,29.4
X$609 408 134 427 15 34 501 MUX2_X1
* cell instance $610 m0 *1 19,29.4
X$610 51 502 451 15 477 34 AOI21_X1
* cell instance $613 m0 *1 20.71,29.4
X$613 24 453 202 242 34 15 484 OAI22_X1
* cell instance $614 m0 *1 21.66,29.4
X$614 219 204 453 34 15 486 AND3_X1
* cell instance $615 m0 *1 22.61,29.4
X$615 427 61 15 34 531 NAND2_X1
* cell instance $616 m0 *1 23.18,29.4
X$616 454 34 295 15 BUF_X4
* cell instance $617 m0 *1 24.51,29.4
X$617 15 202 242 454 488 34 NOR3_X4
* cell instance $618 m0 *1 27.17,29.4
X$618 386 457 507 15 533 34 AOI21_X1
* cell instance $622 m0 *1 2.85,29.4
X$622 448 15 34 451 BUF_X1
* cell instance $629 r0 *1 2.66,29.4
X$629 338 535 34 407 15 XOR2_X2
* cell instance $635 r0 *1 6.08,29.4
X$635 481 51 497 34 15 526 HA_X1
* cell instance $636 r0 *1 7.98,29.4
X$636 526 34 379 15 BUF_X4
* cell instance $637 r0 *1 9.31,29.4
X$637 15 64 34 467 BUF_X8
* cell instance $638 r0 *1 11.78,29.4
X$638 379 34 95 15 BUF_X4
* cell instance $641 r0 *1 13.68,29.4
X$641 483 61 482 34 15 46 OAI21_X2
* cell instance $644 r0 *1 15.58,29.4
X$644 397 56 451 15 34 509 MUX2_X1
* cell instance $645 r0 *1 16.91,29.4
X$645 397 97 529 34 530 15 OAI21_X1
* cell instance $646 r0 *1 17.67,29.4
X$646 509 64 29 21 15 34 510 NAND4_X1
* cell instance $647 r0 *1 18.62,29.4
X$647 456 511 451 15 34 485 MUX2_X1
* cell instance $648 r0 *1 19.95,29.4
X$648 511 15 34 502 BUF_X1
* cell instance $649 r0 *1 20.52,29.4
X$649 447 204 219 15 34 512 NAND3_X1
* cell instance $650 r0 *1 21.28,29.4
X$650 447 219 204 15 506 34 AOI21_X1
* cell instance $652 r0 *1 22.23,29.4
X$652 531 219 204 15 504 34 AOI21_X1
* cell instance $653 r0 *1 22.99,29.4
X$653 504 486 217 34 537 15 OAI21_X1
* cell instance $655 r0 *1 23.94,29.4
X$655 506 486 217 34 539 15 OAI21_X1
* cell instance $657 r0 *1 24.89,29.4
X$657 456 97 430 15 34 513 MUX2_X1
* cell instance $659 r0 *1 26.98,29.4
X$659 533 445 376 15 514 34 AOI21_X1
* cell instance $661 r0 *1 28.12,29.4
X$661 430 134 27 15 34 515 MUX2_X1
* cell instance $662 m0 *1 28.31,29.4
X$662 458 488 15 34 457 NAND2_X1
* cell instance $665 m0 *1 30.02,29.4
X$665 459 24 15 34 534 NOR2_X1
* cell instance $668 m0 *1 30.78,29.4
X$668 51 421 231 459 487 15 34 OAI211_X2
* cell instance $669 m0 *1 32.49,29.4
X$669 459 225 224 15 460 34 AOI21_X2
* cell instance $670 m0 *1 33.82,29.4
X$670 335 134 397 15 34 489 MUX2_X1
* cell instance $671 m0 *1 35.15,29.4
X$671 429 436 435 15 34 503 MUX2_X1
* cell instance $673 r0 *1 30.21,29.4
X$673 534 477 15 34 516 NOR2_X1
* cell instance $675 r0 *1 31.16,29.4
X$675 177 485 489 126 15 34 518 AOI22_X2
* cell instance $678 r0 *1 33.44,29.4
X$678 364 24 489 15 34 519 MUX2_X1
* cell instance $681 r0 *1 35.72,29.4
X$681 542 490 15 34 416 NOR2_X1
* cell instance $682 r0 *1 36.29,29.4
X$682 231 458 370 488 15 34 581 AOI22_X2
* cell instance $683 m0 *1 38.19,29.4
X$683 320 388 471 15 34 494 MUX2_X1
* cell instance $684 m0 *1 36.86,29.4
X$684 415 231 503 15 34 491 MUX2_X1
* cell instance $685 m0 *1 39.52,29.4
X$685 475 436 488 458 15 34 471 AOI22_X1
* cell instance $686 m0 *1 40.47,29.4
X$686 473 500 413 15 34 493 NAND3_X1
* cell instance $687 m0 *1 41.23,29.4
X$687 461 15 34 464 BUF_X1
* cell instance $689 r0 *1 38,29.4
X$689 544 444 440 492 34 15 521 OAI22_X1
* cell instance $690 r0 *1 38.95,29.4
X$690 445 491 434 390 15 34 492 AOI22_X1
* cell instance $691 r0 *1 39.9,29.4
X$691 491 445 490 363 390 498 34 15 AOI221_X2
* cell instance $692 r0 *1 41.99,29.4
X$692 470 493 499 439 34 15 527 OAI22_X1
* cell instance $694 m0 *1 42.18,29.4
X$694 499 368 470 494 34 15 462 OAI22_X1
* cell instance $695 m0 *1 43.89,29.4
X$695 462 15 34 465 BUF_X1
* cell instance $697 r0 *1 42.94,29.4
X$697 498 470 444 15 522 34 AOI21_X1
* cell instance $698 r0 *1 43.7,29.4
X$698 527 15 34 495 BUF_X1
* cell instance $703 m0 *1 1.52,15.4
X$703 180 15 34 181 CLKBUF_X2
* cell instance $713 r0 *1 3.8,15.4
X$713 223 15 34 243 CLKBUF_X2
* cell instance $715 r0 *1 5.32,15.4
X$715 197 69 209 15 278 34 AOI21_X2
* cell instance $717 m0 *1 5.7,15.4
X$717 37 211 15 34 197 NAND2_X1
* cell instance $719 r0 *1 6.65,15.4
X$719 254 76 132 198 34 252 15 NOR4_X2
* cell instance $720 m0 *1 8.36,15.4
X$720 37 15 34 198 INV_X1
* cell instance $722 m0 *1 8.74,15.4
X$722 199 34 200 15 BUF_X4
* cell instance $727 r0 *1 9.5,15.4
X$727 243 45 15 34 266 NAND2_X1
* cell instance $729 r0 *1 10.26,15.4
X$729 198 224 225 15 237 34 AOI21_X1
* cell instance $732 r0 *1 12.16,15.4
X$732 237 238 188 181 196 34 15 AOI211_X2
* cell instance $733 m0 *1 16.15,15.4
X$733 15 136 116 64 132 34 AOI21_X4
* cell instance $734 m0 *1 13.49,15.4
X$734 15 211 200 85 140 34 NOR3_X4
* cell instance $736 m0 *1 18.81,15.4
X$736 15 227 216 214 201 262 34 AND4_X4
* cell instance $737 m0 *1 21.28,15.4
X$737 97 58 70 15 34 261 NOR3_X1
* cell instance $738 m0 *1 22.04,15.4
X$738 123 204 219 15 218 34 AOI21_X1
* cell instance $739 m0 *1 22.8,15.4
X$739 171 138 203 34 15 186 OAI21_X4
* cell instance $741 m0 *1 25.46,15.4
X$741 15 217 183 221 177 184 222 126 34 AOI222_X2
* cell instance $743 m0 *1 28.31,15.4
X$743 162 242 202 15 34 220 NOR3_X1
* cell instance $745 m0 *1 29.26,15.4
X$745 143 219 204 15 185 34 AOI21_X1
* cell instance $747 m0 *1 30.21,15.4
X$747 48 220 185 15 34 215 OR3_X1
* cell instance $749 m0 *1 31.35,15.4
X$749 177 144 184 126 15 34 205 AOI22_X2
* cell instance $750 m0 *1 33.06,15.4
X$750 145 104 186 173 250 249 15 34 OAI221_X2
* cell instance $752 r0 *1 13.87,15.4
X$752 71 70 244 34 290 15 OAI21_X1
* cell instance $753 r0 *1 14.63,15.4
X$753 224 225 288 15 34 226 NAND3_X1
* cell instance $754 r0 *1 15.39,15.4
X$754 15 216 227 214 201 263 34 NAND4_X4
* cell instance $755 r0 *1 18.81,15.4
X$755 17 15 34 241 INV_X1
* cell instance $756 r0 *1 19.19,15.4
X$756 260 246 47 15 34 328 NAND3_X1
* cell instance $757 r0 *1 19.95,15.4
X$757 15 76 171 34 BUF_X16
* cell instance $758 r0 *1 24.7,15.4
X$758 136 15 34 124 BUF_X1
* cell instance $759 r0 *1 25.27,15.4
X$759 224 225 15 34 131 NAND2_X2
* cell instance $761 r0 *1 26.41,15.4
X$761 225 15 34 219 CLKBUF_X3
* cell instance $762 r0 *1 27.36,15.4
X$762 58 125 150 15 286 34 AOI21_X1
* cell instance $763 r0 *1 28.12,15.4
X$763 27 15 34 228 INV_X1