
* cell sequence_detector_fsm
* pin config_pattern[1]
* pin rst_n
* pin config_pattern[0]
* pin config_pattern[3]
* pin config_pattern[2]
* pin pattern_detected
* pin clk
* pin load_pattern
* pin serial_in
* pin enable
* pin PWELL,gf180mcu_gnd
* pin NWELL
.SUBCKT sequence_detector_fsm 1 2 3 4 38 42 51 57 69 83 85 86
* net 1 config_pattern[1]
* net 2 rst_n
* net 3 config_pattern[0]
* net 4 config_pattern[3]
* net 38 config_pattern[2]
* net 42 pattern_detected
* net 51 clk
* net 57 load_pattern
* net 69 serial_in
* net 83 enable
* net 85 PWELL,gf180mcu_gnd
* net 86 NWELL
* cell instance $3 r0 *1 308,5.04
X$3 85 86 1 7 gf180mcu_fd_sc_mcu9t5v0__clkbuf_3
* cell instance $8 r0 *1 323.68,5.04
X$8 85 86 2 8 gf180mcu_fd_sc_mcu9t5v0__buf_4
* cell instance $11 r0 *1 331.52,5.04
X$11 85 86 3 5 gf180mcu_fd_sc_mcu9t5v0__clkbuf_3
* cell instance $16 r0 *1 339.92,5.04
X$16 85 86 4 6 gf180mcu_fd_sc_mcu9t5v0__clkbuf_3
* cell instance $18 r0 *1 106.4,317.52
X$18 85 86 11 5 12 13 gf180mcu_fd_sc_mcu9t5v0__mux2_2
* cell instance $23 m0 *1 106.96,337.68
X$23 85 86 18 6 12 19 gf180mcu_fd_sc_mcu9t5v0__mux2_2
* cell instance $30 m0 *1 90.16,317.52
X$30 85 86 14 7 12 9 gf180mcu_fd_sc_mcu9t5v0__mux2_2
* cell instance $35 r0 *1 80.08,317.52
X$35 85 9 10 14 8 86 gf180mcu_fd_sc_mcu9t5v0__dffsnq_2
* cell instance $37 r0 *1 101.92,337.68
X$37 85 19 10 18 8 86 gf180mcu_fd_sc_mcu9t5v0__dffsnq_2
* cell instance $39 m0 *1 99.68,327.6
X$39 85 13 10 11 8 86 gf180mcu_fd_sc_mcu9t5v0__dffsnq_2
* cell instance $46 r0 *1 92.96,337.68
X$46 85 86 8 30 gf180mcu_fd_sc_mcu9t5v0__buf_4
* cell instance $50 m0 *1 61.04,357.84
X$50 85 52 26 86 50 49 9 gf180mcu_fd_sc_mcu9t5v0__nor4_2
* cell instance $52 m0 *1 69.44,347.76
X$52 86 9 25 85 41 gf180mcu_fd_sc_mcu9t5v0__and2_2
* cell instance $57 m0 *1 66.08,337.68
X$57 20 17 9 21 26 86 85 gf180mcu_fd_sc_mcu9t5v0__aoi211_2
* cell instance $59 r0 *1 75.6,337.68
X$59 9 86 26 36 85 27 gf180mcu_fd_sc_mcu9t5v0__and3_2
* cell instance $61 m0 *1 103.6,357.84
X$61 85 30 43 10 56 86 gf180mcu_fd_sc_mcu9t5v0__dffrnq_2
* cell instance $68 m0 *1 75.6,367.92
X$68 85 86 10 89 gf180mcu_fd_sc_mcu9t5v0__clkbuf_4
* cell instance $70 m0 *1 75.6,357.84
X$70 85 55 10 86 gf180mcu_fd_sc_mcu9t5v0__clkbuf_16
* cell instance $77 m0 *1 66.64,378
X$77 85 30 73 10 67 86 gf180mcu_fd_sc_mcu9t5v0__dffrnq_2
* cell instance $83 m0 *1 10.08,378
X$83 85 86 57 12 gf180mcu_fd_sc_mcu9t5v0__clkbuf_4
* cell instance $86 m0 *1 85.68,378
X$86 85 86 67 12 78 gf180mcu_fd_sc_mcu9t5v0__nor2_2
* cell instance $88 m0 *1 90.72,367.92
X$88 12 85 62 68 86 63 gf180mcu_fd_sc_mcu9t5v0__or3_2
* cell instance $98 r0 *1 21.84,367.92
X$98 85 86 12 34 gf180mcu_fd_sc_mcu9t5v0__clkinv_2
* cell instance $102 m0 *1 16.24,347.76
X$102 85 86 39 31 12 15 gf180mcu_fd_sc_mcu9t5v0__mux2_2
* cell instance $104 r0 *1 78.96,347.76
X$104 86 45 54 41 13 19 85 gf180mcu_fd_sc_mcu9t5v0__oai211_2
* cell instance $113 r0 *1 69.44,347.76
X$113 86 13 47 85 29 gf180mcu_fd_sc_mcu9t5v0__xnor2_2
* cell instance $116 m0 *1 83.44,367.92
X$116 13 19 41 61 85 86 68 gf180mcu_fd_sc_mcu9t5v0__and4_2
* cell instance $118 m0 *1 77.84,337.68
X$118 85 86 13 22 gf180mcu_fd_sc_mcu9t5v0__clkinv_2
* cell instance $124 r0 *1 61.04,327.6
X$124 85 15 16 86 20 gf180mcu_fd_sc_mcu9t5v0__or2_2
* cell instance $126 m0 *1 56.56,337.68
X$126 86 15 16 85 36 gf180mcu_fd_sc_mcu9t5v0__xnor2_2
* cell instance $128 r0 *1 13.44,347.76
X$128 85 30 15 23 39 86 gf180mcu_fd_sc_mcu9t5v0__dffrnq_2
* cell instance $135 m0 *1 71.12,357.84
X$135 85 86 15 25 gf180mcu_fd_sc_mcu9t5v0__clkinv_2
* cell instance $138 m0 *1 61.6,347.76
X$138 86 15 16 85 24 gf180mcu_fd_sc_mcu9t5v0__and2_2
* cell instance $143 m0 *1 46.48,347.76
X$143 85 86 35 16 48 40 gf180mcu_fd_sc_mcu9t5v0__mux2_2
* cell instance $146 r0 *1 21.28,337.68
X$146 85 30 16 23 32 86 gf180mcu_fd_sc_mcu9t5v0__dffrnq_2
* cell instance $150 m0 *1 29.68,347.76
X$150 85 86 33 26 48 16 gf180mcu_fd_sc_mcu9t5v0__mux2_2
* cell instance $155 r0 *1 64.96,337.68
X$155 85 86 22 17 24 gf180mcu_fd_sc_mcu9t5v0__nand2_2
* cell instance $163 m0 *1 80.08,347.76
X$163 86 19 40 85 28 gf180mcu_fd_sc_mcu9t5v0__xnor2_2
* cell instance $177 r0 *1 81.76,337.68
X$177 86 21 37 27 28 29 85 gf180mcu_fd_sc_mcu9t5v0__oai211_2
* cell instance $183 r0 *1 44.8,398.16
X$183 85 30 72 23 84 86 gf180mcu_fd_sc_mcu9t5v0__dffrnq_2
* cell instance $185 m0 *1 37.52,367.92
X$185 85 55 23 86 gf180mcu_fd_sc_mcu9t5v0__clkbuf_16
* cell instance $192 r0 *1 42,388.08
X$192 85 30 70 23 58 86 gf180mcu_fd_sc_mcu9t5v0__dffrnq_2
* cell instance $196 r0 *1 40.88,347.76
X$196 85 30 40 23 44 86 gf180mcu_fd_sc_mcu9t5v0__dffrnq_2
* cell instance $198 r0 *1 17.92,357.84
X$198 85 30 26 23 64 86 gf180mcu_fd_sc_mcu9t5v0__dffrnq_2
* cell instance $202 r0 *1 38.08,357.84
X$202 85 30 49 23 65 86 gf180mcu_fd_sc_mcu9t5v0__dffrnq_2
* cell instance $207 r0 *1 62.16,347.76
X$207 40 24 53 52 85 86 45 gf180mcu_fd_sc_mcu9t5v0__and4_2
* cell instance $214 m0 *1 24.64,357.84
X$214 85 86 46 47 48 26 gf180mcu_fd_sc_mcu9t5v0__mux2_2
* cell instance $252 r0 *1 5.04,347.76
X$252 38 86 85 31 gf180mcu_fd_sc_mcu9t5v0__dlyb_2
* cell instance $255 m0 *1 24.64,347.76
X$255 86 34 33 85 32 gf180mcu_fd_sc_mcu9t5v0__and2_2
* cell instance $263 m0 *1 43.68,378
X$263 86 34 76 85 58 gf180mcu_fd_sc_mcu9t5v0__and2_2
* cell instance $268 m0 *1 22.4,367.92
X$268 86 34 46 85 64 gf180mcu_fd_sc_mcu9t5v0__and2_2
* cell instance $270 m0 *1 40.88,347.76
X$270 86 34 35 85 44 gf180mcu_fd_sc_mcu9t5v0__and2_2
* cell instance $275 r0 *1 40.88,367.92
X$275 86 34 66 85 65 gf180mcu_fd_sc_mcu9t5v0__and2_2
* cell instance $278 m0 *1 44.8,398.16
X$278 86 34 80 85 84 gf180mcu_fd_sc_mcu9t5v0__and2_2
* cell instance $286 r0 *1 93.52,357.84
X$286 85 63 86 56 54 37 gf180mcu_fd_sc_mcu9t5v0__aoi21_2
* cell instance $310 r0 *1 707.84,347.76
X$310 43 86 85 42 gf180mcu_fd_sc_mcu9t5v0__dlyb_2
* cell instance $328 r0 *1 7.28,378
X$328 69 86 85 47 gf180mcu_fd_sc_mcu9t5v0__clkbuf_2
* cell instance $333 m0 *1 57.68,357.84
X$333 85 86 47 50 gf180mcu_fd_sc_mcu9t5v0__clkinv_2
* cell instance $338 m0 *1 48.72,388.08
X$338 86 48 71 85 75 gf180mcu_fd_sc_mcu9t5v0__and2_2
* cell instance $342 r0 *1 18.48,398.16
X$342 85 86 83 48 gf180mcu_fd_sc_mcu9t5v0__clkbuf_4
* cell instance $352 m0 *1 63.28,378
X$352 85 86 48 62 gf180mcu_fd_sc_mcu9t5v0__clkinv_2
* cell instance $354 m0 *1 49.84,398.16
X$354 48 85 72 86 80 gf180mcu_fd_sc_mcu9t5v0__xor2_2
* cell instance $356 r0 *1 58.8,378
X$356 48 70 72 73 85 86 77 gf180mcu_fd_sc_mcu9t5v0__and4_2
* cell instance $360 r0 *1 68.32,367.92
X$360 85 61 60 86 49 59 gf180mcu_fd_sc_mcu9t5v0__nand3_2
* cell instance $366 r0 *1 54.32,367.92
X$366 49 85 77 86 66 gf180mcu_fd_sc_mcu9t5v0__xor2_2
* cell instance $374 r0 *1 58.8,357.84
X$374 85 51 55 86 gf180mcu_fd_sc_mcu9t5v0__clkbuf_16
* cell instance $379 m0 *1 54.32,388.08
X$379 85 86 53 81 70 71 gf180mcu_fd_sc_mcu9t5v0__mux2_2
* cell instance $402 r0 *1 68.88,378
X$402 59 85 86 72 74 88 gf180mcu_fd_sc_mcu9t5v0__addh_1
* cell instance $408 r0 *1 53.76,378
X$408 85 86 70 60 gf180mcu_fd_sc_mcu9t5v0__clkinv_2
* cell instance $410 r0 *1 44.24,378
X$410 86 60 75 85 76 gf180mcu_fd_sc_mcu9t5v0__xnor2_2
* cell instance $417 r0 *1 81.2,378
X$417 85 86 78 74 62 82 gf180mcu_fd_sc_mcu9t5v0__mux2_2
* cell instance $454 m0 *1 63.28,388.08
X$454 71 85 86 72 73 87 gf180mcu_fd_sc_mcu9t5v0__addh_1
* cell instance $472 r0 *1 72.24,388.08
X$472 85 86 72 79 gf180mcu_fd_sc_mcu9t5v0__clkinv_2
* cell instance $477 m0 *1 72.8,388.08
X$477 81 85 86 79 73 82 gf180mcu_fd_sc_mcu9t5v0__addh_1
* cell instance $480 m0 *1 82.88,388.08
X$480 85 86 73 74 gf180mcu_fd_sc_mcu9t5v0__clkinv_2
.ENDS sequence_detector_fsm

* cell gf180mcu_fd_sc_mcu9t5v0__clkbuf_3
* pin PWELL,VSS,gf180mcu_gnd
* pin NWELL,VDD
* pin I
* pin Z
.SUBCKT gf180mcu_fd_sc_mcu9t5v0__clkbuf_3 1 2 3 5
* net 1 PWELL,VSS,gf180mcu_gnd
* net 2 NWELL,VDD
* net 3 I
* net 5 Z
* device instance $1 r0 *1 0.87,3.552 pmos_5p0
M$1 4 3 2 2 pmos_5p0 L=0.5U W=2.75U AS=1.03125P AD=0.97625P PS=5.625U PD=4.17U
* device instance $3 r0 *1 3.29,3.552 pmos_5p0
M$3 5 4 2 2 pmos_5p0 L=0.5U W=5.5U AS=1.82875P AD=1.88375P PS=8.16U PD=9.615U
* device instance $7 r0 *1 0.92,1.34 nmos_5p0
M$7 4 3 1 1 nmos_5p0 L=0.6U W=1.1U AS=0.385P AD=0.3455P PS=3.05U PD=2.37U
* device instance $9 r0 *1 3.34,1.365 nmos_5p0
M$9 5 4 1 1 nmos_5p0 L=0.6U W=2.4U AS=0.6705P AD=0.732P PS=4.66U PD=5.44U
.ENDS gf180mcu_fd_sc_mcu9t5v0__clkbuf_3

* cell gf180mcu_fd_sc_mcu9t5v0__dlyb_2
* pin I
* pin NWELL,VDD
* pin PWELL,VSS,gf180mcu_gnd
* pin Z
.SUBCKT gf180mcu_fd_sc_mcu9t5v0__dlyb_2 1 2 3 7
* net 1 I
* net 2 NWELL,VDD
* net 3 PWELL,VSS,gf180mcu_gnd
* net 7 Z
* device instance $1 r0 *1 4.34,3.365 pmos_5p0
M$1 6 4 10 2 pmos_5p0 L=0.5U W=0.36U AS=0.27P AD=0.1584P PS=1.98U PD=1.6U
* device instance $2 r0 *1 4.34,4.085 pmos_5p0
M$2 10 4 2 2 pmos_5p0 L=0.5U W=0.36U AS=0.528P AD=0.27P PS=3.13U PD=1.98U
* device instance $3 r0 *1 6.14,3.785 pmos_5p0
M$3 7 6 2 2 pmos_5p0 L=0.5U W=3.66U AS=1.14105P AD=1.41825P PS=5.63U PD=7.04U
* device instance $5 r0 *1 2.18,3.365 pmos_5p0
M$5 11 5 4 2 pmos_5p0 L=0.5U W=0.36U AS=0.1584P AD=0.27P PS=1.6U PD=1.98U
* device instance $6 r0 *1 0.87,4.085 pmos_5p0
M$6 2 1 5 2 pmos_5p0 L=0.5U W=0.36U AS=0.1584P AD=0.1458P PS=1.6U PD=1.17U
* device instance $7 r0 *1 2.18,4.085 pmos_5p0
M$7 2 5 11 2 pmos_5p0 L=0.5U W=0.36U AS=0.27P AD=0.1458P PS=1.98U PD=1.17U
* device instance $8 r0 *1 0.92,0.795 nmos_5p0
M$8 3 1 5 3 nmos_5p0 L=0.6U W=0.36U AS=0.1584P AD=0.1278P PS=1.6U PD=1.07U
* device instance $9 r0 *1 2.23,0.795 nmos_5p0
M$9 8 5 3 3 nmos_5p0 L=0.6U W=0.36U AS=0.1278P AD=0.27P PS=1.07U PD=1.98U
* device instance $10 r0 *1 2.23,1.515 nmos_5p0
M$10 4 5 8 3 nmos_5p0 L=0.6U W=0.36U AS=0.27P AD=0.1584P PS=1.98U PD=1.6U
* device instance $11 r0 *1 4.39,0.525 nmos_5p0
M$11 3 4 9 3 nmos_5p0 L=0.6U W=0.36U AS=0.27P AD=0.408P PS=1.98U PD=2.52U
* device instance $12 r0 *1 4.39,1.245 nmos_5p0
M$12 6 4 9 3 nmos_5p0 L=0.6U W=0.36U AS=0.27P AD=0.1584P PS=1.98U PD=1.6U
* device instance $13 r0 *1 6.19,1.005 nmos_5p0
M$13 7 6 3 3 nmos_5p0 L=0.6U W=2.64U AS=0.7512P AD=0.924P PS=4.36U PD=5.36U
.ENDS gf180mcu_fd_sc_mcu9t5v0__dlyb_2

* cell gf180mcu_fd_sc_mcu9t5v0__nor4_2
* pin PWELL,VSS,gf180mcu_gnd
* pin ZN
* pin A4
* pin NWELL,VDD
* pin A3
* pin A1
* pin A2
.SUBCKT gf180mcu_fd_sc_mcu9t5v0__nor4_2 1 2 3 4 5 6 7
* net 1 PWELL,VSS,gf180mcu_gnd
* net 2 ZN
* net 3 A4
* net 4 NWELL,VDD
* net 5 A3
* net 6 A1
* net 7 A2
* device instance $1 r0 *1 0.975,3.78 pmos_5p0
M$1 13 5 8 4 pmos_5p0 L=0.5U W=1.83U AS=0.8052P AD=0.52155P PS=4.54U PD=2.4U
* device instance $2 r0 *1 2.045,3.78 pmos_5p0
M$2 4 3 13 4 pmos_5p0 L=0.5U W=1.83U AS=0.52155P AD=0.5673P PS=2.4U PD=2.45U
* device instance $3 r0 *1 3.165,3.78 pmos_5p0
M$3 12 3 4 4 pmos_5p0 L=0.5U W=1.83U AS=0.5673P AD=0.732P PS=2.45U PD=2.63U
* device instance $4 r0 *1 4.465,3.78 pmos_5p0
M$4 11 5 12 4 pmos_5p0 L=0.5U W=1.83U AS=0.732P AD=0.77775P PS=2.63U PD=2.68U
* device instance $5 r0 *1 5.815,3.78 pmos_5p0
M$5 10 7 11 4 pmos_5p0 L=0.5U W=1.83U AS=0.77775P AD=0.52155P PS=2.68U PD=2.4U
* device instance $6 r0 *1 6.885,3.78 pmos_5p0
M$6 2 6 10 4 pmos_5p0 L=0.5U W=1.83U AS=0.52155P AD=0.61305P PS=2.4U PD=2.5U
* device instance $7 r0 *1 8.055,3.78 pmos_5p0
M$7 9 6 2 4 pmos_5p0 L=0.5U W=1.83U AS=0.61305P AD=0.4758P PS=2.5U PD=2.35U
* device instance $8 r0 *1 9.075,3.78 pmos_5p0
M$8 8 7 9 4 pmos_5p0 L=0.5U W=1.83U AS=0.4758P AD=0.8052P PS=2.35U PD=4.54U
* device instance $9 r0 *1 4.465,0.695 nmos_5p0
M$9 1 5 2 1 nmos_5p0 L=0.6U W=1.32U AS=0.52165P AD=0.40285P PS=3.565U PD=2.545U
* device instance $11 r0 *1 2.045,0.7 nmos_5p0
M$11 1 3 2 1 nmos_5p0 L=0.6U W=1.32U AS=0.40285P AD=0.3432P PS=2.545U PD=2.36U
* device instance $13 r0 *1 5.765,0.7 nmos_5p0
M$13 2 7 1 1 nmos_5p0 L=0.6U W=1.32U AS=0.40285P AD=0.462P PS=2.545U PD=3.38U
* device instance $14 r0 *1 6.885,0.7 nmos_5p0
M$14 1 6 2 1 nmos_5p0 L=0.6U W=1.32U AS=0.3432P AD=0.3432P PS=2.36U PD=2.36U
.ENDS gf180mcu_fd_sc_mcu9t5v0__nor4_2

* cell gf180mcu_fd_sc_mcu9t5v0__aoi211_2
* pin A2
* pin A1
* pin B
* pin ZN
* pin C
* pin NWELL,VDD
* pin PWELL,VSS,gf180mcu_gnd
.SUBCKT gf180mcu_fd_sc_mcu9t5v0__aoi211_2 1 2 4 5 6 7 8
* net 1 A2
* net 2 A1
* net 4 B
* net 5 ZN
* net 6 C
* net 7 NWELL,VDD
* net 8 PWELL,VSS,gf180mcu_gnd
* device instance $1 r0 *1 0.87,3.78 pmos_5p0
M$1 5 1 3 7 pmos_5p0 L=0.5U W=3.66U AS=1.281P AD=1.3359P PS=6.89U PD=5.12U
* device instance $2 r0 *1 1.89,3.78 pmos_5p0
M$2 3 2 5 7 pmos_5p0 L=0.5U W=3.66U AS=0.9516P AD=0.9516P PS=4.7U PD=4.7U
* device instance $5 r0 *1 5.37,3.78 pmos_5p0
M$5 12 4 3 7 pmos_5p0 L=0.5U W=1.83U AS=0.8601P AD=0.2196P PS=2.77U PD=2.07U
* device instance $6 r0 *1 6.11,3.78 pmos_5p0
M$6 7 6 12 7 pmos_5p0 L=0.5U W=1.83U AS=0.2196P AD=0.549P PS=2.07U PD=2.43U
* device instance $7 r0 *1 7.21,3.78 pmos_5p0
M$7 11 6 7 7 pmos_5p0 L=0.5U W=1.83U AS=0.549P AD=0.4392P PS=2.43U PD=2.31U
* device instance $8 r0 *1 8.19,3.78 pmos_5p0
M$8 3 4 11 7 pmos_5p0 L=0.5U W=1.83U AS=0.4392P AD=0.8052P PS=2.31U PD=4.54U
* device instance $9 r0 *1 5.02,0.745 nmos_5p0
M$9 5 4 8 8 nmos_5p0 L=0.6U W=1.58U AS=0.5609P AD=0.553P PS=3.195U PD=3.77U
* device instance $10 r0 *1 6.14,0.745 nmos_5p0
M$10 8 6 5 8 nmos_5p0 L=0.6U W=1.58U AS=0.4108P AD=0.4108P PS=2.62U PD=2.62U
* device instance $13 r0 *1 0.92,0.942 nmos_5p0
M$13 10 1 8 8 nmos_5p0 L=0.6U W=1.185U AS=0.5214P AD=0.1422P PS=3.25U PD=1.425U
* device instance $14 r0 *1 1.76,0.942 nmos_5p0
M$14 5 2 10 8 nmos_5p0 L=0.6U W=1.185U AS=0.1422P AD=0.3081P PS=1.425U PD=1.705U
* device instance $15 r0 *1 2.88,0.942 nmos_5p0
M$15 9 2 5 8 nmos_5p0 L=0.6U W=1.185U AS=0.3081P AD=0.1422P PS=1.705U PD=1.425U
* device instance $16 r0 *1 3.72,0.942 nmos_5p0
M$16 8 1 9 8 nmos_5p0 L=0.6U W=1.185U AS=0.1422P AD=0.3555P PS=1.425U PD=1.885U
.ENDS gf180mcu_fd_sc_mcu9t5v0__aoi211_2

* cell gf180mcu_fd_sc_mcu9t5v0__or2_2
* pin PWELL,VSS,gf180mcu_gnd
* pin A1
* pin A2
* pin NWELL,VDD
* pin Z
.SUBCKT gf180mcu_fd_sc_mcu9t5v0__or2_2 1 2 4 5 6
* net 1 PWELL,VSS,gf180mcu_gnd
* net 2 A1
* net 4 A2
* net 5 NWELL,VDD
* net 6 Z
* device instance $1 r0 *1 0.97,3.78 pmos_5p0
M$1 7 2 3 5 pmos_5p0 L=0.5U W=1.83U AS=0.8052P AD=0.52155P PS=4.54U PD=2.4U
* device instance $2 r0 *1 2.04,3.78 pmos_5p0
M$2 5 4 7 5 pmos_5p0 L=0.5U W=1.83U AS=0.52155P AD=0.5673P PS=2.4U PD=2.45U
* device instance $3 r0 *1 3.16,3.78 pmos_5p0
M$3 6 3 5 5 pmos_5p0 L=0.5U W=3.66U AS=1.08885P AD=1.32675P PS=4.85U PD=6.94U
* device instance $5 r0 *1 0.92,1.005 nmos_5p0
M$5 3 2 1 1 nmos_5p0 L=0.6U W=1.32U AS=0.5808P AD=0.3432P PS=3.52U PD=1.84U
* device instance $6 r0 *1 2.04,1.005 nmos_5p0
M$6 1 4 3 1 nmos_5p0 L=0.6U W=1.32U AS=0.3432P AD=0.3432P PS=1.84U PD=1.84U
* device instance $7 r0 *1 3.16,1.005 nmos_5p0
M$7 6 3 1 1 nmos_5p0 L=0.6U W=2.64U AS=0.6864P AD=0.924P PS=3.68U PD=5.36U
.ENDS gf180mcu_fd_sc_mcu9t5v0__or2_2

* cell gf180mcu_fd_sc_mcu9t5v0__nand2_2
* pin PWELL,VSS,gf180mcu_gnd
* pin NWELL,VDD
* pin A1
* pin ZN
* pin A2
.SUBCKT gf180mcu_fd_sc_mcu9t5v0__nand2_2 1 2 3 4 5
* net 1 PWELL,VSS,gf180mcu_gnd
* net 2 NWELL,VDD
* net 3 A1
* net 4 ZN
* net 5 A2
* device instance $1 r0 *1 0.87,3.857 pmos_5p0
M$1 4 5 2 2 pmos_5p0 L=0.5U W=3.29U AS=1.1515P AD=1.1515P PS=6.335U PD=6.335U
* device instance $2 r0 *1 1.89,3.857 pmos_5p0
M$2 2 3 4 2 pmos_5p0 L=0.5U W=3.29U AS=0.8554P AD=0.8554P PS=4.33U PD=4.33U
* device instance $5 r0 *1 0.92,1.005 nmos_5p0
M$5 7 5 1 1 nmos_5p0 L=0.6U W=1.32U AS=0.5808P AD=0.2112P PS=3.52U PD=1.64U
* device instance $6 r0 *1 1.84,1.005 nmos_5p0
M$6 4 3 7 1 nmos_5p0 L=0.6U W=1.32U AS=0.2112P AD=0.3432P PS=1.64U PD=1.84U
* device instance $7 r0 *1 2.96,1.005 nmos_5p0
M$7 6 3 4 1 nmos_5p0 L=0.6U W=1.32U AS=0.3432P AD=0.2112P PS=1.84U PD=1.64U
* device instance $8 r0 *1 3.88,1.005 nmos_5p0
M$8 1 5 6 1 nmos_5p0 L=0.6U W=1.32U AS=0.2112P AD=0.5808P PS=1.64U PD=3.52U
.ENDS gf180mcu_fd_sc_mcu9t5v0__nand2_2

* cell gf180mcu_fd_sc_mcu9t5v0__and3_2
* pin A1
* pin NWELL,VDD
* pin A2
* pin A3
* pin PWELL,VSS,gf180mcu_gnd
* pin Z
.SUBCKT gf180mcu_fd_sc_mcu9t5v0__and3_2 2 3 4 5 6 7
* net 2 A1
* net 3 NWELL,VDD
* net 4 A2
* net 5 A3
* net 6 PWELL,VSS,gf180mcu_gnd
* net 7 Z
* device instance $1 r0 *1 0.925,3.965 pmos_5p0
M$1 3 2 1 3 pmos_5p0 L=0.5U W=1.46U AS=0.6424P AD=0.3796P PS=3.8U PD=1.98U
* device instance $2 r0 *1 1.945,3.965 pmos_5p0
M$2 1 4 3 3 pmos_5p0 L=0.5U W=1.46U AS=0.3796P AD=0.3796P PS=1.98U PD=1.98U
* device instance $3 r0 *1 2.965,3.965 pmos_5p0
M$3 1 5 3 3 pmos_5p0 L=0.5U W=1.46U AS=0.585P AD=0.3796P PS=2.53U PD=1.98U
* device instance $4 r0 *1 4.165,3.78 pmos_5p0
M$4 7 1 3 3 pmos_5p0 L=0.5U W=3.66U AS=1.0608P AD=1.281P PS=4.88U PD=6.89U
* device instance $6 r0 *1 0.975,1.005 nmos_5p0
M$6 9 2 1 6 nmos_5p0 L=0.6U W=1.32U AS=0.5808P AD=0.2112P PS=3.52U PD=1.64U
* device instance $7 r0 *1 1.895,1.005 nmos_5p0
M$7 8 4 9 6 nmos_5p0 L=0.6U W=1.32U AS=0.2112P AD=0.2772P PS=1.64U PD=1.74U
* device instance $8 r0 *1 2.915,1.005 nmos_5p0
M$8 6 5 8 6 nmos_5p0 L=0.6U W=1.32U AS=0.2772P AD=0.3432P PS=1.74U PD=1.84U
* device instance $9 r0 *1 4.035,1.005 nmos_5p0
M$9 7 1 6 6 nmos_5p0 L=0.6U W=2.64U AS=0.6864P AD=0.924P PS=3.68U PD=5.36U
.ENDS gf180mcu_fd_sc_mcu9t5v0__and3_2

* cell gf180mcu_fd_sc_mcu9t5v0__buf_4
* pin PWELL,VSS,gf180mcu_gnd
* pin NWELL,VDD
* pin I
* pin Z
.SUBCKT gf180mcu_fd_sc_mcu9t5v0__buf_4 1 2 3 5
* net 1 PWELL,VSS,gf180mcu_gnd
* net 2 NWELL,VDD
* net 3 I
* net 5 Z
* device instance $1 r0 *1 0.87,3.78 pmos_5p0
M$1 4 3 2 2 pmos_5p0 L=0.5U W=3.66U AS=1.3725P AD=1.1346P PS=6.99U PD=4.9U
* device instance $3 r0 *1 3.11,3.78 pmos_5p0
M$3 5 4 2 2 pmos_5p0 L=0.5U W=7.32U AS=2.2692P AD=2.5071P PS=9.8U PD=11.89U
* device instance $7 r0 *1 0.92,1.005 nmos_5p0
M$7 4 3 1 1 nmos_5p0 L=0.6U W=2.64U AS=0.924P AD=0.6864P PS=5.36U PD=3.68U
* device instance $9 r0 *1 3.16,1.005 nmos_5p0
M$9 5 4 1 1 nmos_5p0 L=0.6U W=5.28U AS=1.3728P AD=1.6104P PS=7.36U PD=9.04U
.ENDS gf180mcu_fd_sc_mcu9t5v0__buf_4

* cell gf180mcu_fd_sc_mcu9t5v0__aoi21_2
* pin PWELL,VSS,gf180mcu_gnd
* pin B
* pin NWELL,VDD
* pin ZN
* pin A2
* pin A1
.SUBCKT gf180mcu_fd_sc_mcu9t5v0__aoi21_2 1 3 4 5 6 7
* net 1 PWELL,VSS,gf180mcu_gnd
* net 3 B
* net 4 NWELL,VDD
* net 5 ZN
* net 6 A2
* net 7 A1
* device instance $1 r0 *1 0.935,3.78 pmos_5p0
M$1 4 3 2 4 pmos_5p0 L=0.5U W=3.66U AS=1.3725P AD=1.0431P PS=6.99U PD=4.8U
* device instance $3 r0 *1 3.075,3.78 pmos_5p0
M$3 5 6 2 4 pmos_5p0 L=0.5U W=3.66U AS=0.9516P AD=1.3908P PS=4.7U PD=7.01U
* device instance $4 r0 *1 4.215,3.78 pmos_5p0
M$4 2 7 5 4 pmos_5p0 L=0.5U W=3.66U AS=1.0614P AD=0.9516P PS=4.82U PD=4.7U
* device instance $7 r0 *1 0.985,0.805 nmos_5p0
M$7 5 3 1 1 nmos_5p0 L=0.6U W=1.84U AS=0.644P AD=0.6412P PS=4.16U PD=3.46U
* device instance $9 r0 *1 3.405,1.005 nmos_5p0
M$9 9 6 1 1 nmos_5p0 L=0.6U W=1.32U AS=0.402P AD=0.1584P PS=2.02U PD=1.56U
* device instance $10 r0 *1 4.245,1.005 nmos_5p0
M$10 5 7 9 1 nmos_5p0 L=0.6U W=1.32U AS=0.1584P AD=0.3432P PS=1.56U PD=1.84U
* device instance $11 r0 *1 5.365,1.005 nmos_5p0
M$11 8 7 5 1 nmos_5p0 L=0.6U W=1.32U AS=0.3432P AD=0.1584P PS=1.84U PD=1.56U
* device instance $12 r0 *1 6.205,1.005 nmos_5p0
M$12 1 6 8 1 nmos_5p0 L=0.6U W=1.32U AS=0.1584P AD=0.5808P PS=1.56U PD=3.52U
.ENDS gf180mcu_fd_sc_mcu9t5v0__aoi21_2

* cell gf180mcu_fd_sc_mcu9t5v0__dffsnq_2
* pin PWELL,VSS,gf180mcu_gnd
* pin Q
* pin CLK
* pin D
* pin SETN
* pin NWELL,VDD
.SUBCKT gf180mcu_fd_sc_mcu9t5v0__dffsnq_2 1 5 7 8 13 17
* net 1 PWELL,VSS,gf180mcu_gnd
* net 5 Q
* net 7 CLK
* net 8 D
* net 13 SETN
* net 17 NWELL,VDD
* device instance $1 r0 *1 18.73,3.78 pmos_5p0
M$1 5 4 17 17 pmos_5p0 L=0.5U W=3.66U AS=1.281P AD=1.281P PS=6.89U PD=6.89U
* device instance $3 r0 *1 14.48,3.365 pmos_5p0
M$3 12 13 17 17 pmos_5p0 L=0.5U W=1U AS=0.44P AD=0.26P PS=2.88U PD=1.52U
* device instance $4 r0 *1 15.5,3.365 pmos_5p0
M$4 17 4 12 17 pmos_5p0 L=0.5U W=1U AS=0.26P AD=0.536P PS=1.52U PD=2.57U
* device instance $5 r0 *1 16.74,3.78 pmos_5p0
M$5 4 3 17 17 pmos_5p0 L=0.5U W=1.83U AS=0.536P AD=0.8052P PS=2.57U PD=4.54U
* device instance $6 r0 *1 0.97,3.555 pmos_5p0
M$6 17 7 6 17 pmos_5p0 L=0.5U W=1.38U AS=0.6072P AD=0.3588P PS=3.64U PD=1.9U
* device instance $7 r0 *1 1.99,3.555 pmos_5p0
M$7 2 6 17 17 pmos_5p0 L=0.5U W=1.38U AS=0.3588P AD=0.6072P PS=1.9U PD=3.64U
* device instance $8 r0 *1 11.4,3.365 pmos_5p0
M$8 3 6 11 17 pmos_5p0 L=0.5U W=1U AS=0.44P AD=0.42P PS=2.88U PD=1.84U
* device instance $9 r0 *1 12.74,3.365 pmos_5p0
M$9 12 2 3 17 pmos_5p0 L=0.5U W=1U AS=0.42P AD=0.44P PS=1.84U PD=2.88U
* device instance $10 r0 *1 3.93,3.465 pmos_5p0
M$10 9 8 17 17 pmos_5p0 L=0.5U W=1U AS=0.44P AD=0.3825P PS=2.88U PD=1.765U
* device instance $11 r0 *1 5.195,3.465 pmos_5p0
M$11 10 2 9 17 pmos_5p0 L=0.5U W=1U AS=0.3825P AD=0.26P PS=1.765U PD=1.52U
* device instance $12 r0 *1 6.215,3.465 pmos_5p0
M$12 18 6 10 17 pmos_5p0 L=0.5U W=1U AS=0.26P AD=0.1825P PS=1.52U PD=1.365U
* device instance $13 r0 *1 7.08,3.465 pmos_5p0
M$13 17 11 18 17 pmos_5p0 L=0.5U W=1U AS=0.1825P AD=0.3P PS=1.365U PD=1.6U
* device instance $14 r0 *1 8.18,3.465 pmos_5p0
M$14 11 10 17 17 pmos_5p0 L=0.5U W=1U AS=0.3P AD=0.29P PS=1.6U PD=1.58U
* device instance $15 r0 *1 9.26,3.465 pmos_5p0
M$15 17 13 11 17 pmos_5p0 L=0.5U W=1U AS=0.29P AD=0.7374P PS=1.58U PD=3.75U
* device instance $16 r0 *1 18.68,1.005 nmos_5p0
M$16 5 4 1 1 nmos_5p0 L=0.6U W=2.64U AS=0.924P AD=0.924P PS=5.36U PD=5.36U
* device instance $18 r0 *1 3.88,1.265 nmos_5p0
M$18 9 8 1 1 nmos_5p0 L=0.6U W=0.59U AS=0.2596P AD=0.1534P PS=2.06U PD=1.11U
* device instance $19 r0 *1 5,1.265 nmos_5p0
M$19 10 6 9 1 nmos_5p0 L=0.6U W=0.59U AS=0.1534P AD=0.1711P PS=1.11U PD=1.17U
* device instance $20 r0 *1 6.18,1.265 nmos_5p0
M$20 14 2 10 1 nmos_5p0 L=0.6U W=0.59U AS=0.1711P AD=0.07375P PS=1.17U PD=0.84U
* device instance $21 r0 *1 7.03,1.265 nmos_5p0
M$21 1 11 14 1 nmos_5p0 L=0.6U W=0.59U AS=0.07375P AD=0.22355P PS=0.84U
+ PD=1.435U
* device instance $22 r0 *1 8.37,1.37 nmos_5p0
M$22 15 10 1 1 nmos_5p0 L=0.6U W=0.59U AS=0.22355P AD=0.0708P PS=1.435U PD=0.83U
* device instance $23 r0 *1 9.21,1.37 nmos_5p0
M$23 11 13 15 1 nmos_5p0 L=0.6U W=0.59U AS=0.0708P AD=0.1534P PS=0.83U PD=1.11U
* device instance $24 r0 *1 10.33,1.37 nmos_5p0
M$24 3 2 11 1 nmos_5p0 L=0.6U W=0.59U AS=0.1534P AD=0.1534P PS=1.11U PD=1.11U
* device instance $25 r0 *1 11.45,1.37 nmos_5p0
M$25 12 6 3 1 nmos_5p0 L=0.6U W=0.59U AS=0.1534P AD=0.2596P PS=1.11U PD=2.06U
* device instance $26 r0 *1 0.92,1.27 nmos_5p0
M$26 1 7 6 1 nmos_5p0 L=0.6U W=0.79U AS=0.3476P AD=0.2054P PS=2.46U PD=1.31U
* device instance $27 r0 *1 2.04,1.27 nmos_5p0
M$27 2 6 1 1 nmos_5p0 L=0.6U W=0.79U AS=0.2054P AD=0.3476P PS=1.31U PD=2.46U
* device instance $28 r0 *1 14.61,1.37 nmos_5p0
M$28 16 13 12 1 nmos_5p0 L=0.6U W=0.59U AS=0.2596P AD=0.0708P PS=2.06U PD=0.83U
* device instance $29 r0 *1 15.45,1.37 nmos_5p0
M$29 16 4 1 1 nmos_5p0 L=0.6U W=0.59U AS=0.3789P AD=0.0708P PS=2.06U PD=0.83U
* device instance $30 r0 *1 16.79,1.005 nmos_5p0
M$30 4 3 1 1 nmos_5p0 L=0.6U W=1.32U AS=0.3789P AD=0.5808P PS=2.06U PD=3.52U
.ENDS gf180mcu_fd_sc_mcu9t5v0__dffsnq_2

* cell gf180mcu_fd_sc_mcu9t5v0__oai211_2
* pin NWELL,VDD
* pin A2
* pin ZN
* pin A1
* pin B
* pin C
* pin PWELL,VSS,gf180mcu_gnd
.SUBCKT gf180mcu_fd_sc_mcu9t5v0__oai211_2 1 2 3 4 5 6 7
* net 1 NWELL,VDD
* net 2 A2
* net 3 ZN
* net 4 A1
* net 5 B
* net 6 C
* net 7 PWELL,VSS,gf180mcu_gnd
* device instance $1 r0 *1 0.97,3.78 pmos_5p0
M$1 12 2 1 1 pmos_5p0 L=0.5U W=1.83U AS=0.8052P AD=0.52155P PS=4.54U PD=2.4U
* device instance $2 r0 *1 2.04,3.78 pmos_5p0
M$2 3 4 12 1 pmos_5p0 L=0.5U W=1.83U AS=0.52155P AD=0.5673P PS=2.4U PD=2.45U
* device instance $3 r0 *1 3.16,3.78 pmos_5p0
M$3 11 4 3 1 pmos_5p0 L=0.5U W=1.83U AS=0.5673P AD=0.52155P PS=2.45U PD=2.4U
* device instance $4 r0 *1 4.23,3.78 pmos_5p0
M$4 1 2 11 1 pmos_5p0 L=0.5U W=1.83U AS=0.52155P AD=0.585P PS=2.4U PD=2.53U
* device instance $5 r0 *1 5.43,3.965 pmos_5p0
M$5 3 5 1 1 pmos_5p0 L=0.5U W=2.92U AS=0.9646P AD=1.022P PS=4.51U PD=5.78U
* device instance $6 r0 *1 6.45,3.965 pmos_5p0
M$6 1 6 3 1 pmos_5p0 L=0.5U W=2.92U AS=0.7592P AD=0.7592P PS=3.96U PD=3.96U
* device instance $9 r0 *1 0.92,1.005 nmos_5p0
M$9 3 2 8 7 nmos_5p0 L=0.6U W=2.64U AS=0.924P AD=0.7062P PS=5.36U PD=3.71U
* device instance $10 r0 *1 2.04,1.005 nmos_5p0
M$10 8 4 3 7 nmos_5p0 L=0.6U W=2.64U AS=0.6864P AD=0.6864P PS=3.68U PD=3.68U
* device instance $13 r0 *1 5.43,1.005 nmos_5p0
M$13 9 5 8 7 nmos_5p0 L=0.6U W=1.32U AS=0.363P AD=0.2442P PS=1.87U PD=1.69U
* device instance $14 r0 *1 6.4,1.005 nmos_5p0
M$14 7 6 9 7 nmos_5p0 L=0.6U W=1.32U AS=0.2442P AD=0.3432P PS=1.69U PD=1.84U
* device instance $15 r0 *1 7.52,1.005 nmos_5p0
M$15 10 6 7 7 nmos_5p0 L=0.6U W=1.32U AS=0.3432P AD=0.2112P PS=1.84U PD=1.64U
* device instance $16 r0 *1 8.44,1.005 nmos_5p0
M$16 8 5 10 7 nmos_5p0 L=0.6U W=1.32U AS=0.2112P AD=0.5808P PS=1.64U PD=3.52U
.ENDS gf180mcu_fd_sc_mcu9t5v0__oai211_2

* cell gf180mcu_fd_sc_mcu9t5v0__addh_1
* pin CO
* pin PWELL,VSS,gf180mcu_gnd
* pin NWELL,VDD
* pin A
* pin B
* pin S
.SUBCKT gf180mcu_fd_sc_mcu9t5v0__addh_1 1 2 3 4 5 9
* net 1 CO
* net 2 PWELL,VSS,gf180mcu_gnd
* net 3 NWELL,VDD
* net 4 A
* net 5 B
* net 9 S
* device instance $1 r0 *1 5.01,3.912 pmos_5p0
M$1 11 5 3 3 pmos_5p0 L=0.5U W=0.915U AS=0.4026P AD=0.2379P PS=2.71U PD=1.435U
* device instance $2 r0 *1 6.03,3.912 pmos_5p0
M$2 8 4 11 3 pmos_5p0 L=0.5U W=0.915U AS=0.2379P AD=0.3294P PS=1.435U PD=1.635U
* device instance $3 r0 *1 7.25,3.912 pmos_5p0
M$3 8 6 3 3 pmos_5p0 L=0.5U W=0.915U AS=0.50325P AD=0.3294P PS=2.53U PD=1.635U
* device instance $4 r0 *1 8.45,3.78 pmos_5p0
M$4 9 8 3 3 pmos_5p0 L=0.5U W=1.83U AS=0.50325P AD=0.8052P PS=2.53U PD=4.54U
* device instance $5 r0 *1 2.23,3.912 pmos_5p0
M$5 6 4 3 3 pmos_5p0 L=0.5U W=0.915U AS=0.5307P AD=0.2379P PS=2.59U PD=1.435U
* device instance $6 r0 *1 3.25,3.912 pmos_5p0
M$6 3 5 6 3 pmos_5p0 L=0.5U W=0.915U AS=0.2379P AD=0.4026P PS=1.435U PD=2.71U
* device instance $7 r0 *1 0.97,3.78 pmos_5p0
M$7 3 6 1 3 pmos_5p0 L=0.5U W=1.83U AS=0.8052P AD=0.5307P PS=4.54U PD=2.59U
* device instance $8 r0 *1 4.96,1.335 nmos_5p0
M$8 8 5 7 2 nmos_5p0 L=0.6U W=0.66U AS=0.2904P AD=0.1716P PS=2.2U PD=1.18U
* device instance $9 r0 *1 6.08,1.335 nmos_5p0
M$9 7 4 8 2 nmos_5p0 L=0.6U W=0.66U AS=0.1716P AD=0.1716P PS=1.18U PD=1.18U
* device instance $10 r0 *1 7.2,1.335 nmos_5p0
M$10 7 6 2 2 nmos_5p0 L=0.6U W=0.66U AS=0.363P AD=0.1716P PS=2.02U PD=1.18U
* device instance $11 r0 *1 8.5,1.005 nmos_5p0
M$11 9 8 2 2 nmos_5p0 L=0.6U W=1.32U AS=0.363P AD=0.5808P PS=2.02U PD=3.52U
* device instance $12 r0 *1 0.92,1.005 nmos_5p0
M$12 2 6 1 2 nmos_5p0 L=0.6U W=1.32U AS=0.5808P AD=0.3828P PS=3.52U PD=2.08U
* device instance $13 r0 *1 2.28,1.335 nmos_5p0
M$13 10 4 2 2 nmos_5p0 L=0.6U W=0.66U AS=0.3828P AD=0.0792P PS=2.08U PD=0.9U
* device instance $14 r0 *1 3.12,1.335 nmos_5p0
M$14 6 5 10 2 nmos_5p0 L=0.6U W=0.66U AS=0.0792P AD=0.2904P PS=0.9U PD=2.2U
.ENDS gf180mcu_fd_sc_mcu9t5v0__addh_1

* cell gf180mcu_fd_sc_mcu9t5v0__mux2_2
* pin PWELL,VSS,gf180mcu_gnd
* pin NWELL,VDD
* pin Z
* pin I1
* pin S
* pin I0
.SUBCKT gf180mcu_fd_sc_mcu9t5v0__mux2_2 1 2 3 4 5 7
* net 1 PWELL,VSS,gf180mcu_gnd
* net 2 NWELL,VDD
* net 3 Z
* net 4 I1
* net 5 S
* net 7 I0
* device instance $1 r0 *1 0.92,3.78 pmos_5p0
M$1 3 6 2 2 pmos_5p0 L=0.5U W=3.66U AS=1.32675P AD=1.18035P PS=6.94U PD=4.95U
* device instance $3 r0 *1 3.21,3.78 pmos_5p0
M$3 12 4 2 2 pmos_5p0 L=0.5U W=1.83U AS=0.6588P AD=0.7137P PS=2.55U PD=2.61U
* device instance $4 r0 *1 4.49,3.78 pmos_5p0
M$4 6 8 12 2 pmos_5p0 L=0.5U W=1.83U AS=0.7137P AD=0.4758P PS=2.61U PD=2.35U
* device instance $5 r0 *1 5.51,3.78 pmos_5p0
M$5 11 5 6 2 pmos_5p0 L=0.5U W=1.83U AS=0.4758P AD=0.2196P PS=2.35U PD=2.07U
* device instance $6 r0 *1 6.25,3.78 pmos_5p0
M$6 2 7 11 2 pmos_5p0 L=0.5U W=1.83U AS=0.2196P AD=0.4758P PS=2.07U PD=2.35U
* device instance $7 r0 *1 7.27,3.78 pmos_5p0
M$7 8 5 2 2 pmos_5p0 L=0.5U W=1.83U AS=0.4758P AD=0.8052P PS=2.35U PD=4.54U
* device instance $8 r0 *1 0.92,1.005 nmos_5p0
M$8 3 6 1 1 nmos_5p0 L=0.6U W=2.64U AS=0.924P AD=0.6864P PS=5.36U PD=3.68U
* device instance $10 r0 *1 3.16,1.005 nmos_5p0
M$10 10 4 1 1 nmos_5p0 L=0.6U W=1.32U AS=0.3432P AD=0.1584P PS=1.84U PD=1.56U
* device instance $11 r0 *1 4,1.005 nmos_5p0
M$11 6 5 10 1 nmos_5p0 L=0.6U W=1.32U AS=0.1584P AD=0.3432P PS=1.56U PD=1.84U
* device instance $12 r0 *1 5.12,1.005 nmos_5p0
M$12 9 8 6 1 nmos_5p0 L=0.6U W=1.32U AS=0.3432P AD=0.3168P PS=1.84U PD=1.8U
* device instance $13 r0 *1 6.2,1.005 nmos_5p0
M$13 1 7 9 1 nmos_5p0 L=0.6U W=1.32U AS=0.3168P AD=0.3432P PS=1.8U PD=1.84U
* device instance $14 r0 *1 7.32,1.005 nmos_5p0
M$14 8 5 1 1 nmos_5p0 L=0.6U W=1.32U AS=0.3432P AD=0.5808P PS=1.84U PD=3.52U
.ENDS gf180mcu_fd_sc_mcu9t5v0__mux2_2

* cell gf180mcu_fd_sc_mcu9t5v0__clkbuf_2
* pin I
* pin NWELL,VDD
* pin PWELL,VSS,gf180mcu_gnd
* pin Z
.SUBCKT gf180mcu_fd_sc_mcu9t5v0__clkbuf_2 1 2 3 5
* net 1 I
* net 2 NWELL,VDD
* net 3 PWELL,VSS,gf180mcu_gnd
* net 5 Z
* device instance $1 r0 *1 0.87,3.78 pmos_5p0
M$1 2 1 4 2 pmos_5p0 L=0.5U W=1.83U AS=0.8052P AD=0.732P PS=4.54U PD=2.63U
* device instance $2 r0 *1 2.17,3.78 pmos_5p0
M$2 5 4 2 2 pmos_5p0 L=0.5U W=3.66U AS=1.2993P AD=1.3725P PS=5.08U PD=6.99U
* device instance $4 r0 *1 0.92,1.23 nmos_5p0
M$4 3 1 4 3 nmos_5p0 L=0.6U W=0.73U AS=0.3212P AD=0.2695P PS=2.34U PD=1.5U
* device instance $5 r0 *1 2.22,1.265 nmos_5p0
M$5 5 4 3 3 nmos_5p0 L=0.6U W=1.6U AS=0.4775P AD=0.56P PS=2.82U PD=3.8U
.ENDS gf180mcu_fd_sc_mcu9t5v0__clkbuf_2

* cell gf180mcu_fd_sc_mcu9t5v0__dffrnq_2
* pin PWELL,VSS,gf180mcu_gnd
* pin RN
* pin Q
* pin CLK
* pin D
* pin NWELL,VDD
.SUBCKT gf180mcu_fd_sc_mcu9t5v0__dffrnq_2 1 2 11 15 16 17
* net 1 PWELL,VSS,gf180mcu_gnd
* net 2 RN
* net 11 Q
* net 15 CLK
* net 16 D
* net 17 NWELL,VDD
* device instance $1 r0 *1 17.05,3.78 pmos_5p0
M$1 11 3 17 17 pmos_5p0 L=0.5U W=3.66U AS=1.281P AD=1.281P PS=6.89U PD=6.89U
* device instance $3 r0 *1 9.67,3.64 pmos_5p0
M$3 8 6 17 17 pmos_5p0 L=0.5U W=1U AS=0.44P AD=0.26P PS=2.88U PD=1.52U
* device instance $4 r0 *1 10.69,3.64 pmos_5p0
M$4 9 4 8 17 pmos_5p0 L=0.5U W=1U AS=0.26P AD=0.26P PS=1.52U PD=1.52U
* device instance $5 r0 *1 11.71,3.64 pmos_5p0
M$5 10 7 9 17 pmos_5p0 L=0.5U W=1U AS=0.26P AD=0.26P PS=1.52U PD=1.52U