
* cell sine_cosine_generator
* pin phase_in[4]
* pin phase_in[2]
* pin phase_in[3]
* pin phase_in[5]
* pin sine_out[5]
* pin sine_out[4]
* pin sine_out[3]
* pin cosine_out[10]
* pin sine_out[8]
* pin sine_out[2]
* pin PWELL
* pin NWELL
* pin clk
* pin phase_in[1]
* pin phase_in[6]
* pin phase_in[8]
* pin sine_out[7]
* pin phase_in[9]
* pin phase_in[11]
* pin phase_in[10]
* pin sine_out[1]
* pin phase_in[7]
* pin phase_in[0]
* pin phase_in[15]
* pin rst_n
* pin enable
* pin sine_out[13]
* pin sine_out[6]
* pin phase_in[14]
* pin sine_out[12]
* pin cosine_out[13]
* pin cosine_out[6]
* pin sine_out[15]
* pin phase_in[12]
* pin cosine_out[2]
* pin phase_in[13]
* pin cosine_out[15]
* pin cosine_out[8]
* pin cosine_out[5]
* pin cosine_out[3]
* pin cosine_out[4]
* pin cosine_out[0]
* pin cosine_out[1]
* pin cosine_out[11]
* pin cosine_out[7]
* pin sine_out[11]
* pin valid_out
* pin cosine_out[14]
* pin cosine_out[9]
* pin sine_out[0]
* pin sine_out[10]
* pin sine_out[14]
* pin sine_out[9]
* pin cosine_out[12]
.SUBCKT sine_cosine_generator 1 2 3 4 5 6 7 8 9 10 14 18 26 32 33 39 46 48 60
+ 61 74 83 84 105 116 117 119 136 140 146 183 196 197 203 244 259 267 268 304
+ 311 312 337 338 368 369 390 392 393 394 395 396 397 398 399
* net 1 phase_in[4]
* net 2 phase_in[2]
* net 3 phase_in[3]
* net 4 phase_in[5]
* net 5 sine_out[5]
* net 6 sine_out[4]
* net 7 sine_out[3]
* net 8 cosine_out[10]
* net 9 sine_out[8]
* net 10 sine_out[2]
* net 14 PWELL
* net 18 NWELL
* net 26 clk
* net 32 phase_in[1]
* net 33 phase_in[6]
* net 39 phase_in[8]
* net 46 sine_out[7]
* net 48 phase_in[9]
* net 60 phase_in[11]
* net 61 phase_in[10]
* net 74 sine_out[1]
* net 83 phase_in[7]
* net 84 phase_in[0]
* net 105 phase_in[15]
* net 116 rst_n
* net 117 enable
* net 119 sine_out[13]
* net 136 sine_out[6]
* net 140 phase_in[14]
* net 146 sine_out[12]
* net 183 cosine_out[13]
* net 196 cosine_out[6]
* net 197 sine_out[15]
* net 203 phase_in[12]
* net 244 cosine_out[2]
* net 259 phase_in[13]
* net 267 cosine_out[15]
* net 268 cosine_out[8]
* net 304 cosine_out[5]
* net 311 cosine_out[3]
* net 312 cosine_out[4]
* net 337 cosine_out[0]
* net 338 cosine_out[1]
* net 368 cosine_out[11]
* net 369 cosine_out[7]
* net 390 sine_out[11]
* net 392 valid_out
* net 393 cosine_out[14]
* net 394 cosine_out[9]
* net 395 sine_out[0]
* net 396 sine_out[10]
* net 397 sine_out[14]
* net 398 sine_out[9]
* net 399 cosine_out[12]
* cell instance $6 r0 *1 9.5,1.4
X$6 1 14 18 19 CLKBUF_X2
* cell instance $8 m0 *1 9.88,4.2
X$8 2 14 18 24 BUF_X2
* cell instance $14 r0 *1 10.26,1.4
X$14 3 14 18 23 CLKBUF_X2
* cell instance $20 r0 *1 11.02,1.4
X$20 4 14 18 35 CLKBUF_X2
* cell instance $26 r0 *1 24.13,1.4
X$26 11 14 18 5 BUF_X1
* cell instance $31 r0 *1 24.7,1.4
X$31 12 14 18 6 BUF_X1
* cell instance $38 r0 *1 25.84,1.4
X$38 15 14 18 7 BUF_X1
* cell instance $44 m0 *1 29.26,4.2
X$44 17 14 18 8 BUF_X1
* cell instance $50 r0 *1 33.06,1.4
X$50 13 14 18 9 BUF_X1
* cell instance $56 r0 *1 34.2,1.4
X$56 16 14 18 10 BUF_X1
* cell instance $62 r0 *1 22.42,9.8
X$62 68 51 11 52 14 18 59 AOI22_X1
* cell instance $65 r0 *1 21.66,7
X$65 14 11 27 21 18 DFF_X1
* cell instance $69 r0 *1 25.27,1.4
X$69 11 14 18 15 BUF_X1
* cell instance $72 r0 *1 23.56,1.4
X$72 11 14 18 12 BUF_X1
* cell instance $78 r0 *1 30.59,9.8
X$78 53 82 58 13 52 14 18 54 AOI221_X1
* cell instance $81 r0 *1 32.49,9.8
X$81 28 13 36 18 71 14 OAI21_X1
* cell instance $84 m0 *1 29.45,9.8
X$84 14 57 21 13 18 DFF_X2
* cell instance $86 m0 *1 30.02,12.6
X$86 124 77 70 13 52 96 18 14 AOI221_X2
* cell instance $90 r0 *1 33.63,1.4
X$90 13 14 18 16 BUF_X1
* cell instance $103 m0 *1 2.09,12.6
X$103 60 14 18 62 CLKBUF_X2
* cell instance $109 r0 *1 2.47,12.6
X$109 84 14 18 31 BUF_X2
* cell instance $115 m0 *1 3.99,12.6
X$115 61 14 18 43 BUF_X2
* cell instance $116 m0 *1 5.51,12.6
X$116 83 14 18 47 BUF_X2
* cell instance $117 m0 *1 6.27,12.6
X$117 80 43 62 14 18 118 NAND3_X2
* cell instance $123 r0 *1 6.08,12.6
X$123 14 34 118 38 106 64 18 NOR4_X4
* cell instance $124 m0 *1 8.93,12.6
X$124 75 63 14 18 79 NOR2_X1
* cell instance $128 m0 *1 17.1,12.6
X$128 64 99 14 18 65 OR2_X1
* cell instance $131 m0 *1 19.57,12.6
X$131 64 66 67 14 18 101 OR3_X1
* cell instance $132 m0 *1 20.52,12.6
X$132 88 67 100 14 18 50 OR3_X1
* cell instance $133 m0 *1 21.47,12.6
X$133 101 99 87 14 18 76 MUX2_X1
* cell instance $134 m0 *1 22.8,12.6
X$134 88 14 18 68 INV_X1
* cell instance $136 m0 *1 23.37,12.6
X$136 68 18 91 14 BUF_X4
* cell instance $137 m0 *1 24.7,12.6
X$137 69 85 14 18 123 NOR2_X1
* cell instance $138 m0 *1 25.27,12.6
X$138 69 66 14 18 92 NOR2_X1
* cell instance $142 r0 *1 9.5,12.6
X$142 31 128 120 47 14 106 18 NAND4_X2
* cell instance $147 r0 *1 18.62,12.6
X$147 99 64 110 14 18 NOR2_X4
* cell instance $149 r0 *1 21.09,12.6
X$149 102 126 14 18 87 NOR2_X1
* cell instance $150 r0 *1 21.66,12.6
X$150 86 69 89 14 18 102 NOR3_X1
* cell instance $151 r0 *1 22.42,12.6
X$151 121 86 89 85 14 18 51 NOR4_X1
* cell instance $152 r0 *1 23.37,12.6
X$152 86 89 90 18 108 14 OAI21_X1
* cell instance $154 r0 *1 24.32,12.6
X$154 108 123 103 110 92 81 18 14 AOI221_X2
* cell instance $157 r0 *1 26.98,12.6
X$157 111 90 93 18 124 14 OAI21_X1
* cell instance $159 r0 *1 27.93,12.6
X$159 125 99 14 18 70 NAND2_X1
* cell instance $161 r0 *1 28.88,12.6
X$161 85 94 93 14 104 18 AOI21_X1
* cell instance $162 r0 *1 29.64,12.6
X$162 58 95 70 104 91 127 14 18 OAI221_X2
* cell instance $165 m0 *1 41.23,12.6
X$165 98 14 18 36 CLKBUF_X3
* cell instance $168 m0 *1 43.89,12.6
X$168 73 28 76 14 72 18 AOI21_X1
* cell instance $170 m0 *1 44.84,12.6
X$170 114 55 98 18 73 14 OAI21_X1
* cell instance $177 r0 *1 33.82,12.6
X$177 98 97 14 18 88 NAND2_X1
* cell instance $180 r0 *1 37.62,12.6
X$180 97 14 18 28 CLKBUF_X3
* cell instance $182 r0 *1 38.95,12.6
X$182 97 14 18 114 CLKBUF_X3
* cell instance $186 r0 *1 42.37,12.6
X$186 14 115 122 21 18 DFF_X1
* cell instance $190 r0 *1 46.93,12.6
X$190 116 14 18 98 BUF_X2
* cell instance $191 r0 *1 47.69,12.6
X$191 117 14 18 97 BUF_X2
* cell instance $202 r0 *1 32.87,29.4
X$202 170 111 14 18 300 NAND2_X1
* cell instance $203 m0 *1 33.06,29.4
X$203 277 126 218 14 18 294 NOR3_X1
* cell instance $207 r0 *1 34.01,29.4
X$207 289 264 18 14 330 AND2_X1
* cell instance $209 r0 *1 34.77,29.4
X$209 260 243 14 18 329 NAND2_X1
* cell instance $211 m0 *1 35.15,29.4
X$211 131 170 14 18 288 NAND2_X1
* cell instance $217 r0 *1 38,29.4
X$217 306 293 301 14 305 18 AOI21_X1
* cell instance $218 m0 *1 38,29.4
X$218 232 262 14 18 301 NOR2_X1
* cell instance $222 r0 *1 40.66,29.4
X$222 114 303 36 18 306 14 OAI21_X1
* cell instance $224 r0 *1 42.94,29.4
X$224 14 303 305 302 18 DFF_X1
* cell instance $228 r0 *1 47.31,29.4
X$228 303 14 18 304 BUF_X1
* cell instance $234 m0 *1 1.33,9.8
X$234 33 14 18 42 CLKBUF_X2
* cell instance $236 m0 *1 2.09,9.8
X$236 48 14 18 40 CLKBUF_X2
* cell instance $237 m0 *1 2.85,9.8
X$237 39 14 18 41 CLKBUF_X2
* cell instance $239 m0 *1 4.37,9.8
X$239 40 42 29 41 14 34 18 NAND4_X2
* cell instance $242 m0 *1 7.03,9.8
X$242 29 35 19 42 18 14 37 AND4_X1
* cell instance $246 r0 *1 1.52,9.8
X$246 14 42 40 41 62 49 18 NOR4_X4
* cell instance $247 r0 *1 4.94,9.8
X$247 43 62 41 40 14 18 75 NAND4_X1
* cell instance $250 m0 *1 8.74,9.8
X$250 47 24 23 31 14 18 63 NAND4_X1
* cell instance $251 m0 *1 9.69,9.8
X$251 14 24 35 47 43 44 18 NOR4_X4
* cell instance $258 r0 *1 10.45,9.8
X$258 22 44 49 18 14 77 AND3_X1
* cell instance $259 r0 *1 11.4,9.8
X$259 44 22 49 14 85 18 NAND3_X4
* cell instance $263 r0 *1 18.05,9.8
X$263 14 58 18 65 BUF_X8
* cell instance $265 r0 *1 21.28,9.8
X$265 58 50 59 18 27 14 OAI21_X1
* cell instance $272 m0 *1 38.57,9.8
X$272 14 45 56 21 18 DFF_X1
* cell instance $273 m0 *1 41.8,9.8
X$273 45 14 18 46 BUF_X1
* cell instance $278 r0 *1 31.73,9.8
X$278 54 96 71 14 18 57 NOR3_X1
* cell instance $284 r0 *1 39.14,9.8
X$284 78 81 14 18 56 NOR2_X1
* cell instance $286 r0 *1 40.47,9.8
X$286 28 45 36 18 78 14 OAI21_X1
* cell instance $290 r0 *1 43.7,9.8
X$290 14 55 72 21 18 DFF_X1
* cell instance $293 r0 *1 47.88,9.8
X$293 55 14 18 74 BUF_X1
* cell instance $345 m0 *1 17.29,29.4
X$345 208 14 18 290 INV_X1
* cell instance $346 m0 *1 17.67,29.4
X$346 208 111 275 14 18 295 MUX2_X1
* cell instance $348 r0 *1 18.81,29.4
X$348 290 147 14 18 291 NAND2_X1
* cell instance $351 r0 *1 19.38,29.4
X$351 260 290 213 18 297 14 OAI21_X1
* cell instance $352 m0 *1 19.57,29.4
X$352 113 291 213 14 66 18 AOI21_X1
* cell instance $355 r0 *1 20.33,29.4
X$355 58 315 14 18 293 OR2_X1
* cell instance $358 r0 *1 21.66,29.4
X$358 171 307 224 228 14 18 319 AOI22_X1
* cell instance $359 r0 *1 22.61,29.4
X$359 218 170 261 14 307 18 AOI21_X1
* cell instance $363 m0 *1 23.94,29.4
X$363 205 147 14 18 285 NAND2_X1
* cell instance $365 r0 *1 24.51,29.4
X$365 285 228 14 18 298 NAND2_X1
* cell instance $368 m0 *1 25.27,29.4
X$368 277 171 218 14 279 18 AOI21_X1
* cell instance $373 r0 *1 26.41,29.4
X$373 277 273 308 261 212 18 14 309 OAI221_X1
* cell instance $374 m0 *1 26.6,29.4
X$374 228 113 14 18 308 NAND2_X1
* cell instance $376 m0 *1 27.36,29.4
X$376 261 218 14 18 280 NOR2_X1
* cell instance $378 m0 *1 27.93,29.4
X$378 296 280 281 14 292 18 AOI21_X1
* cell instance $379 r0 *1 27.93,29.4
X$379 309 292 139 14 18 299 NAND3_X1
* cell instance $382 r0 *1 29.07,29.4
X$382 299 262 91 58 295 18 14 314 OAI221_X1
* cell instance $397 m0 *1 21.85,46.2
X$397 375 14 18 386 BUF_X1
* cell instance $398 m0 *1 22.42,46.2
X$398 14 389 381 302 18 DFF_X1
* cell instance $407 r0 *1 21.85,46.2
X$407 375 14 18 393 BUF_X1
* cell instance $408 r0 *1 22.42,46.2
X$408 386 14 18 394 BUF_X1
* cell instance $411 r0 *1 24.7,46.2
X$411 389 14 18 395 BUF_X1
* cell instance $415 r0 *1 27.93,46.2
X$415 382 14 18 396 BUF_X1
* cell instance $417 m0 *1 29.26,46.2
X$417 388 14 18 392 BUF_X1
* cell instance $419 m0 *1 29.83,46.2
X$419 14 377 387 302 18 DFF_X1
* cell instance $420 m0 *1 33.06,46.2
X$420 377 14 18 390 BUF_X1
* cell instance $427 r0 *1 31.92,46.2
X$427 366 14 18 397 BUF_X1
* cell instance $428 r0 *1 32.49,46.2
X$428 366 14 18 391 BUF_X1
* cell instance $429 r0 *1 33.06,46.2
X$429 391 14 18 398 BUF_X1
* cell instance $434 r0 *1 36.48,46.2
X$434 379 14 18 399 BUF_X1
* cell instance $460 r0 *1 23.75,43.4
X$460 278 376 14 18 381 NAND2_X1
* cell instance $461 r0 *1 24.32,43.4
X$461 52 389 14 18 376 NAND2_X1
* cell instance $465 r0 *1 26.22,43.4
X$465 14 388 91 302 18 DFF_X1
* cell instance $469 r0 *1 30.78,43.4
X$469 127 384 14 18 387 NAND2_X1
* cell instance $470 r0 *1 31.35,43.4
X$470 52 377 14 18 384 NAND2_X1
* cell instance $472 m0 *1 34.58,43.4
X$472 52 379 14 18 385 NAND2_X1
* cell instance $502 r0 *1 21.47,37.8
X$502 364 371 370 14 18 380 NAND3_X1
* cell instance $503 r0 *1 22.23,37.8
X$503 52 375 14 18 364 NAND2_X1
* cell instance $507 r0 *1 24.89,37.8
X$507 361 362 373 18 365 14 OAI21_X1
* cell instance $508 m0 *1 25.46,37.8
X$508 165 91 14 18 362 NAND2_X1
* cell instance $513 m0 *1 28.5,37.8
X$513 164 91 14 18 374 NAND2_X1
* cell instance $516 m0 *1 36.67,37.8
X$516 357 103 14 18 356 NAND2_X1
* cell instance $517 m0 *1 37.24,37.8
X$517 14 357 360 302 18 DFF_X1
* cell instance $522 r0 *1 27.17,37.8
X$522 36 382 103 14 18 373 NAND3_X1
* cell instance $525 r0 *1 28.5,37.8
X$525 363 374 372 18 383 14 OAI21_X1
* cell instance $528 r0 *1 30.4,37.8
X$528 36 366 103 14 18 372 NAND3_X1
* cell instance $533 r0 *1 43.89,37.8
X$533 357 14 18 369 BUF_X1
* cell instance $534 r0 *1 44.46,37.8
X$534 335 14 18 368 BUF_X1
* cell instance $544 m0 *1 19.57,40.6
X$544 14 375 380 302 18 DFF_X1
* cell instance $556 m0 *1 23.94,40.6
X$556 14 382 365 302 18 DFF_X1
* cell instance $557 m0 *1 27.93,40.6
X$557 14 366 383 302 18 DFF_X1
* cell instance $564 r0 *1 33.82,40.6
X$564 14 379 367 302 18 DFF_X1
* cell instance $565 m0 *1 34.77,40.6
X$565 385 378 355 14 18 367 NAND3_X1
* cell instance $582 m0 *1 26.41,7
X$582 14 17 20 21 18 DFF_X1
* cell instance $591 r0 *1 2.66,7
X$591 32 14 18 29 CLKBUF_X2
* cell instance $595 r0 *1 5.51,7
X$595 14 29 31 23 19 22 18 NOR4_X4
* cell instance $596 r0 *1 8.93,7
X$596 35 24 23 19 14 38 18 NAND4_X2
* cell instance $604 r0 *1 27.36,7
X$604 25 28 30 14 20 18 AOI21_X1
* cell instance $606 r0 *1 28.31,7
X$606 28 17 36 18 25 14 OAI21_X1
* cell instance $622 m0 *1 14.25,32.2
X$622 147 205 221 14 18 316 MUX2_X1
* cell instance $623 m0 *1 15.58,32.2
X$623 212 14 18 260 CLKBUF_X3
* cell instance $624 m0 *1 16.53,32.2
X$624 221 212 14 18 317 NAND2_X1
* cell instance $627 m0 *1 18.81,32.2
X$627 291 276 156 14 18 318 NAND3_X1
* cell instance $628 m0 *1 19.57,32.2
X$628 328 156 297 14 315 18 AOI21_X1
* cell instance $629 m0 *1 20.33,32.2
X$629 180 317 291 14 328 18 AOI21_X1
* cell instance $632 m0 *1 23.37,32.2
X$632 212 205 18 14 345 XNOR2_X1
* cell instance $635 m0 *1 25.46,32.2
X$635 277 170 14 18 320 NAND2_X1
* cell instance $648 r0 *1 15.58,32.2
X$648 316 156 14 18 339 NOR2_X1
* cell instance $649 r0 *1 16.15,32.2
X$649 180 14 18 156 CLKBUF_X3
* cell instance $651 r0 *1 17.29,32.2
X$651 180 14 18 243 CLKBUF_X3
* cell instance $653 r0 *1 18.62,32.2
X$653 260 277 317 18 331 14 OAI21_X1
* cell instance $654 r0 *1 19.38,32.2
X$654 260 205 221 14 18 341 MUX2_X1
* cell instance $656 r0 *1 20.9,32.2
X$656 341 171 14 18 340 NAND2_X1
* cell instance $657 r0 *1 21.47,32.2
X$657 317 320 243 14 18 332 NAND3_X1
* cell instance $658 r0 *1 22.23,32.2
X$658 260 221 209 18 343 14 OAI21_X1
* cell instance $661 r0 *1 24.13,32.2
X$661 345 180 298 14 18 344 MUX2_X1
* cell instance $662 r0 *1 25.46,32.2
X$662 218 212 277 14 18 346 MUX2_X1
* cell instance $663 r0 *1 26.79,32.2
X$663 346 156 14 18 333 NAND2_X1
* cell instance $665 r0 *1 28.88,32.2
X$665 321 171 320 14 334 18 AOI21_X1
* cell instance $666 r0 *1 29.64,32.2
X$666 180 213 18 14 321 AND2_X1
* cell instance $668 m0 *1 30.21,32.2
X$668 277 170 180 14 18 214 NAND3_X1
* cell instance $670 r0 *1 30.4,32.2
X$670 243 213 214 18 348 14 OAI21_X1
* cell instance $672 r0 *1 32.68,32.2
X$672 218 273 139 277 310 18 14 350 OAI221_X1
* cell instance $673 m0 *1 33.06,32.2
X$673 321 289 14 18 310 NOR2_X1
* cell instance $676 m0 *1 34.39,32.2
X$676 300 330 329 294 18 14 322 OAI22_X1
* cell instance $677 m0 *1 35.34,32.2
X$677 250 243 14 18 352 NAND2_X1
* cell instance $680 r0 *1 33.82,32.2
X$680 265 14 18 302 CLKBUF_X3
* cell instance $681 r0 *1 34.77,32.2
X$681 352 91 110 273 14 18 355 NAND4_X1
* cell instance $684 r0 *1 37.43,32.2
X$684 14 336 354 302 18 DFF_X1
* cell instance $685 m0 *1 38,32.2
X$685 313 314 14 18 354 NAND2_X1
* cell instance $687 m0 *1 38.57,32.2
X$687 36 336 103 14 18 313 NAND3_X1
* cell instance $690 m0 *1 46.17,32.2
X$690 303 14 18 326 BUF_X1
* cell instance $691 m0 *1 46.74,32.2
X$691 326 14 18 312 BUF_X1
* cell instance $692 m0 *1 47.31,32.2
X$692 303 14 18 325 BUF_X1
* cell instance $693 m0 *1 47.88,32.2
X$693 325 14 18 311 BUF_X1
* cell instance $695 r0 *1 40.66,32.2
X$695 323 350 233 14 327 18 AOI21_X1
* cell instance $696 r0 *1 41.42,32.2
X$696 324 28 36 18 323 14 OAI21_X1
* cell instance $698 r0 *1 43.7,32.2
X$698 14 324 327 302 18 DFF_X1
* cell instance $699 r0 *1 46.93,32.2
X$699 336 14 18 338 BUF_X1
* cell instance $701 r0 *1 47.88,32.2
X$701 324 14 18 337 BUF_X1
* cell instance $708 m0 *1 16.72,35
X$708 339 243 274 14 349 18 AOI21_X1
* cell instance $711 m0 *1 18.43,35
X$711 243 331 318 18 342 14 OAI21_X1
* cell instance $724 m0 *1 21.09,35
X$724 340 332 91 110 14 18 370 NAND4_X1
* cell instance $726 m0 *1 26.6,35
X$726 243 343 333 18 347 14 OAI21_X1
* cell instance $728 m0 *1 28.88,35
X$728 334 299 28 58 349 18 14 358 OAI221_X1
* cell instance $729 m0 *1 30.02,35
X$729 58 344 28 348 299 18 14 351 OAI221_X1
* cell instance $736 r0 *1 22.23,35
X$736 319 91 139 14 18 371 NAND3_X1
* cell instance $738 r0 *1 23.37,35
X$738 342 58 14 18 361 NOR2_X1
* cell instance $741 r0 *1 27.74,35
X$741 347 58 14 18 363 NOR2_X1
* cell instance $744 r0 *1 34.77,35
X$744 322 91 139 14 18 378 NAND3_X1
* cell instance $746 r0 *1 36.29,35
X$746 181 356 358 14 360 18 AOI21_X1
* cell instance $749 r0 *1 37.62,35
X$749 181 351 359 14 353 18 AOI21_X1
* cell instance $750 r0 *1 38.38,35
X$750 335 103 14 18 359 NAND2_X1
* cell instance $751 r0 *1 38.95,35
X$751 14 335 353 302 18 DFF_X1
* cell instance $764 r0 *1 1.52,21
X$764 203 14 18 204 BUF_X1
* cell instance $771 r0 *1 10.07,21
X$771 204 206 403 18 14 217 HA_X1
* cell instance $773 r0 *1 12.35,21
X$773 217 14 18 142 CLKBUF_X3
* cell instance $777 r0 *1 14.63,21
X$777 80 192 207 18 198 14 NOR3_X2
* cell instance $780 r0 *1 16.53,21
X$780 192 14 18 129 CLKBUF_X3
* cell instance $781 m0 *1 17.1,21
X$781 147 142 18 14 178 AND2_X1
* cell instance $783 m0 *1 17.86,21
X$783 177 178 156 14 18 100 NOR3_X1
* cell instance $787 r0 *1 17.48,21
X$787 208 170 14 18 177 NOR2_X1
* cell instance $789 r0 *1 18.24,21
X$789 130 206 209 18 238 14 OAI21_X1
* cell instance $793 r0 *1 21.09,21
X$793 189 210 180 14 18 211 NAND3_X1
* cell instance $794 m0 *1 21.47,21
X$794 126 147 14 18 189 NAND2_X1
* cell instance $796 m0 *1 22.04,21
X$796 131 141 126 14 18 193 MUX2_X1
* cell instance $799 m0 *1 27.17,21
X$799 202 130 107 18 175 14 NOR3_X2
* cell instance $801 m0 *1 28.69,21
X$801 194 175 139 18 190 14 OAI21_X1
* cell instance $803 r0 *1 21.85,21
X$803 201 189 224 14 179 18 AOI21_X1
* cell instance $805 r0 *1 22.8,21
X$805 193 218 113 14 18 201 NOR3_X1
* cell instance $807 r0 *1 23.75,21
X$807 207 14 18 90 INV_X1
* cell instance $809 r0 *1 24.89,21
X$809 205 171 14 18 191 NOR2_X1
* cell instance $812 r0 *1 26.03,21
X$812 142 14 18 218 CLKBUF_X3
* cell instance $814 r0 *1 27.36,21
X$814 142 141 14 18 213 NAND2_X2
* cell instance $815 r0 *1 28.31,21
X$815 209 180 14 18 194 NOR2_X1
* cell instance $816 r0 *1 28.88,21
X$816 131 14 18 202 INV_X1
* cell instance $819 m0 *1 29.83,21
X$819 191 171 144 14 95 18 AOI21_X1
* cell instance $822 m0 *1 34.01,21
X$822 181 97 52 14 18 NOR2_X4
* cell instance $823 m0 *1 33.25,21
X$823 148 190 97 14 18 195 NAND3_X1
* cell instance $825 m0 *1 36.48,21
X$825 159 110 243 14 18 187 NAND3_X1
* cell instance $829 r0 *1 35.53,21
X$829 265 14 18 21 CLKBUF_X3
* cell instance $830 r0 *1 36.48,21
X$830 21 14 18 CLKBUF_X1
* cell instance $831 r0 *1 37.05,21
X$831 215 139 246 14 200 18 AOI21_X1
* cell instance $832 r0 *1 37.81,21
X$832 148 114 14 18 215 NAND2_X1
* cell instance $833 m0 *1 38.57,21
X$833 186 200 187 14 199 18 AOI21_X1
* cell instance $836 m0 *1 39.52,21
X$836 14 182 199 21 18 DFF_X1
* cell instance $839 m0 *1 46.36,21
X$839 182 14 18 197 BUF_X1
* cell instance $840 m0 *1 43.13,21
X$840 14 174 172 21 18 DFF_X1
* cell instance $843 m0 *1 47.88,21
X$843 185 14 18 196 BUF_X1
* cell instance $844 m0 *1 47.31,21
X$844 174 14 18 185 BUF_X1
* cell instance $859 m0 *1 9.5,23.8
X$859 204 240 400 18 14 192 HA_X1
* cell instance $862 m0 *1 12.16,23.8
X$862 204 14 18 205 BUF_X2
* cell instance $863 m0 *1 12.92,23.8
X$863 205 14 18 220 INV_X2
* cell instance $864 m0 *1 13.49,23.8
X$864 220 206 234 18 14 80 HA_X1
* cell instance $866 m0 *1 15.58,23.8
X$866 234 14 18 208 BUF_X1
* cell instance $871 r0 *1 13.11,23.8
X$871 240 14 18 221 BUF_X2
* cell instance $873 m0 *1 16.72,23.8
X$873 141 14 18 212 CLKBUF_X3
* cell instance $875 m0 *1 17.67,23.8
X$875 208 141 14 18 222 NAND2_X1
* cell instance $876 m0 *1 18.24,23.8
X$876 238 111 223 14 18 166 MUX2_X1
* cell instance $879 m0 *1 20.52,23.8
X$879 129 141 14 18 209 NAND2_X2
* cell instance $880 m0 *1 21.47,23.8
X$880 205 212 14 18 210 NAND2_X1
* cell instance $883 r0 *1 18.43,23.8
X$883 130 221 222 18 223 14 OAI21_X1
* cell instance $884 r0 *1 19.19,23.8
X$884 113 237 222 18 14 67 AND3_X1
* cell instance $885 r0 *1 20.14,23.8
X$885 221 147 14 18 237 NAND2_X1
* cell instance $888 r0 *1 21.66,23.8
X$888 210 225 14 18 236 NAND2_X1
* cell instance $889 r0 *1 22.23,23.8
X$889 228 225 111 14 18 226 NAND3_X1
* cell instance $890 m0 *1 22.61,23.8
X$890 226 211 148 14 18 219 NAND3_X1
* cell instance $894 m0 *1 25.65,23.8
X$894 129 14 18 227 INV_X1
* cell instance $900 r0 *1 25.65,23.8
X$900 212 227 228 18 247 14 OAI21_X1
* cell instance $902 m0 *1 27.36,23.8
X$902 212 90 213 18 229 14 OAI21_X1
* cell instance $904 m0 *1 28.12,23.8
X$904 212 202 209 18 216 14 OAI21_X1
* cell instance $907 r0 *1 28.12,23.8
X$907 229 156 14 18 241 NAND2_X1
* cell instance $910 m0 *1 29.26,23.8
X$910 156 213 202 14 239 18 AOI21_X1
* cell instance $915 m0 *1 31.16,23.8
X$915 214 144 14 18 230 NAND2_X1
* cell instance $916 m0 *1 33.25,23.8
X$916 216 139 111 14 18 235 NAND3_X1
* cell instance $919 r0 *1 31.16,23.8
X$919 230 239 139 18 231 14 OAI21_X1
* cell instance $922 r0 *1 32.87,23.8
X$922 195 231 236 14 233 18 AOI21_X1
* cell instance $924 m0 *1 37.62,23.8
X$924 235 148 114 14 18 232 NAND3_X1
* cell instance $937 m0 *1 2.47,18.2
X$937 140 18 141 14 BUF_X4
* cell instance $940 m0 *1 14.44,18.2
X$940 37 79 175 14 18 148 NAND3_X2
* cell instance $955 r0 *1 13.3,18.2
X$955 14 99 85 198 184 18 AOI21_X4
* cell instance $956 r0 *1 15.77,18.2
X$956 142 107 141 18 14 184 OAI21_X2
* cell instance $957 m0 *1 16.34,18.2
X$957 80 14 18 131 CLKBUF_X3
* cell instance $965 r0 *1 19.57,18.2
X$965 166 148 14 18 167 NAND2_X1
* cell instance $967 m0 *1 19.95,18.2
X$967 120 14 18 180 CLKBUF_X3
* cell instance $969 m0 *1 23.18,18.2
X$969 90 130 120 145 158 14 18 157 AOI221_X1
* cell instance $971 m0 *1 24.51,18.2
X$971 131 130 14 18 158 NOR2_X1
* cell instance $973 m0 *1 25.27,18.2
X$973 162 93 99 14 18 165 NAND3_X1
* cell instance $975 m0 *1 26.22,18.2
X$975 156 109 112 18 162 14 OAI21_X1
* cell instance $977 r0 *1 20.14,18.2
X$977 167 99 168 14 18 30 MUX2_X1
* cell instance $979 r0 *1 21.66,18.2
X$979 179 14 18 168 INV_X1
* cell instance $982 r0 *1 22.99,18.2
X$982 170 145 189 18 188 14 OAI21_X1
* cell instance $983 r0 *1 23.75,18.2
X$983 157 156 188 14 163 18 AOI21_X1
* cell instance $984 r0 *1 24.51,18.2
X$984 219 99 163 14 18 176 MUX2_X1
* cell instance $986 m0 *1 28.12,18.2
X$986 143 93 99 14 18 164 NAND3_X1
* cell instance $987 m0 *1 27.36,18.2
X$987 109 126 171 18 143 14 OAI21_X1
* cell instance $991 m0 *1 29.26,18.2
X$991 156 161 112 18 153 14 OAI21_X1
* cell instance $992 m0 *1 30.97,18.2
X$992 113 145 144 14 160 18 AOI21_X1
* cell instance $993 m0 *1 30.4,18.2
X$993 129 142 14 18 145 NOR2_X1
* cell instance $996 m0 *1 32.68,18.2
X$996 77 160 103 110 159 151 18 14 AOI221_X2
* cell instance $1002 r0 *1 30.59,18.2
X$1002 169 180 14 18 82 NAND2_X1
* cell instance $1004 r0 *1 31.92,18.2
X$1004 111 14 18 171 CLKBUF_X3
* cell instance $1007 r0 *1 35.15,18.2
X$1007 169 170 14 18 159 NAND2_X1
* cell instance $1010 r0 *1 37.62,18.2
X$1010 98 14 18 181 INV_X2
* cell instance $1012 r0 *1 38.95,18.2
X$1012 114 182 98 18 186 14 OAI21_X1
* cell instance $1016 r0 *1 43.89,18.2
X$1016 173 28 176 14 172 18 AOI21_X1
* cell instance $1018 r0 *1 45.03,18.2
X$1018 114 174 98 18 173 14 OAI21_X1
* cell instance $1020 r0 *1 47.31,18.2
X$1020 174 14 18 183 BUF_X1
* cell instance $1028 m0 *1 8.36,15.4
X$1028 105 14 18 120 CLKBUF_X3
* cell instance $1041 r0 *1 11.78,15.4
X$1041 141 14 18 128 INV_X1
* cell instance $1042 r0 *1 12.16,15.4
X$1042 128 14 18 147 CLKBUF_X3
* cell instance $1046 m0 *1 16.72,15.4
X$1046 120 14 18 107 INV_X2
* cell instance $1047 m0 *1 17.29,15.4
X$1047 107 14 18 111 CLKBUF_X3
* cell instance $1050 m0 *1 19.95,15.4
X$1050 120 14 18 113 CLKBUF_X3
* cell instance $1055 r0 *1 17.86,15.4
X$1055 141 18 130 14 BUF_X4
* cell instance $1056 r0 *1 19.19,15.4
X$1056 129 147 120 131 18 86 14 NOR4_X2
* cell instance $1057 r0 *1 20.9,15.4
X$1057 131 120 129 14 18 149 MUX2_X1
* cell instance $1058 r0 *1 22.23,15.4
X$1058 149 130 14 18 93 NAND2_X1
* cell instance $1059 r0 *1 22.8,15.4
X$1059 142 130 120 18 89 14 NOR3_X2
* cell instance $1060 r0 *1 24.13,15.4
X$1060 129 142 141 18 14 109 MUX2_X2
* cell instance $1062 m0 *1 25.08,15.4
X$1062 109 107 14 18 69 NOR2_X1
* cell instance $1064 m0 *1 26.6,15.4
X$1064 109 112 14 18 121 NOR2_X1
* cell instance $1066 m0 *1 27.36,15.4
X$1066 109 113 14 18 125 NAND2_X1
* cell instance $1070 r0 *1 26.98,15.4
X$1070 90 113 14 18 112 NAND2_X1
* cell instance $1073 r0 *1 28.12,15.4
X$1073 141 131 18 14 132 AND2_X1
* cell instance $1074 m0 *1 28.5,15.4
X$1074 126 111 14 18 94 NAND2_X1
* cell instance $1078 r0 *1 28.88,15.4
X$1078 77 14 18 139 CLKBUF_X3
* cell instance $1080 r0 *1 30.02,15.4
X$1080 132 126 14 18 144 NOR2_X1
* cell instance $1082 m0 *1 30.21,15.4
X$1082 113 132 14 18 53 OR2_X1
* cell instance $1084 m0 *1 37.24,15.4
X$1084 97 14 18 103 INV_X2
* cell instance $1088 r0 *1 30.59,15.4
X$1088 113 142 129 132 14 18 155 OR4_X1
* cell instance $1089 r0 *1 31.73,15.4
X$1089 155 112 139 14 18 154 NAND3_X1
* cell instance $1091 r0 *1 32.68,15.4
X$1091 154 110 153 14 18 137 MUX2_X1
* cell instance $1094 r0 *1 35.91,15.4
X$1094 103 171 14 18 152 NOR2_X1
* cell instance $1097 r0 *1 37.62,15.4
X$1097 138 152 151 14 18 150 NOR3_X1
* cell instance $1098 r0 *1 38.38,15.4
X$1098 14 133 150 21 18 DFF_X1
* cell instance $1099 r0 *1 41.61,15.4
X$1099 114 133 98 18 138 14 OAI21_X1
* cell instance $1101 m0 *1 42.94,15.4
X$1101 134 28 137 14 122 18 AOI21_X1
* cell instance $1103 m0 *1 43.7,15.4
X$1103 114 115 98 18 134 14 OAI21_X1
* cell instance $1107 m0 *1 46.93,15.4
X$1107 115 14 18 135 BUF_X1
* cell instance $1112 r0 *1 46.74,15.4
X$1112 133 14 18 146 BUF_X1
* cell instance $1116 m0 *1 47.88,15.4
X$1116 115 14 18 119 BUF_X1
* cell instance $1117 r0 *1 47.88,15.4
X$1117 135 14 18 136 BUF_X1
* cell instance $1124 m0 *1 11.4,26.6
X$1124 220 240 402 18 14 248 HA_X1
* cell instance $1126 m0 *1 14.06,26.6
X$1126 221 14 18 206 INV_X2
* cell instance $1137 r0 *1 5.7,26.6
X$1137 259 14 18 240 BUF_X2
* cell instance $1141 r0 *1 11.21,26.6
X$1141 220 240 404 18 14 282 HA_X1
* cell instance $1142 r0 *1 13.11,26.6
X$1142 282 14 18 207 BUF_X1
* cell instance $1145 m0 *1 16.53,26.6
X$1145 220 206 401 18 14 169 HA_X1
* cell instance $1149 r0 *1 17.1,26.6
X$1149 178 260 208 14 274 18 AOI21_X1
* cell instance $1150 r0 *1 17.86,26.6
X$1150 178 260 206 14 275 18 AOI21_X1
* cell instance $1151 r0 *1 18.62,26.6
X$1151 206 260 14 18 276 NAND2_X1
* cell instance $1152 r0 *1 19.19,26.6
X$1152 147 14 18 170 CLKBUF_X3
* cell instance $1153 r0 *1 20.14,26.6
X$1153 129 14 18 277 CLKBUF_X3
* cell instance $1156 m0 *1 21.09,26.6
X$1156 248 212 14 18 225 OR2_X1
* cell instance $1157 m0 *1 22.04,26.6
X$1157 207 14 18 126 CLKBUF_X3
* cell instance $1159 m0 *1 23.75,26.6
X$1159 285 248 170 18 14 161 OAI21_X2
* cell instance $1161 m0 *1 25.27,26.6
X$1161 126 130 14 18 228 NAND2_X2
* cell instance $1165 r0 *1 22.04,26.6
X$1165 277 111 14 18 224 NOR2_X1
* cell instance $1166 r0 *1 22.61,26.6
X$1166 207 131 14 18 261 OR2_X1
* cell instance $1168 r0 *1 23.56,26.6
X$1168 85 286 161 58 91 278 14 18 OAI221_X2
* cell instance $1169 r0 *1 25.65,26.6
X$1169 279 263 261 14 18 286 NAND3_X1
* cell instance $1171 r0 *1 26.79,26.6
X$1171 130 107 14 18 273 NAND2_X1
* cell instance $1172 m0 *1 27.55,26.6
X$1172 247 111 14 18 249 NAND2_X1
* cell instance $1174 m0 *1 28.12,26.6
X$1174 85 249 241 14 262 18 AOI21_X2
* cell instance $1175 m0 *1 29.45,26.6
X$1175 147 180 14 18 258 NAND2_X1
* cell instance $1178 m0 *1 33.25,26.6
X$1178 126 218 14 18 242 NOR2_X1
* cell instance $1181 r0 *1 27.36,26.6
X$1181 261 129 130 107 14 18 296 NOR4_X1
* cell instance $1182 r0 *1 28.31,26.6
X$1182 113 147 277 18 281 14 OAI21_X1
* cell instance $1185 r0 *1 30.02,26.6
X$1185 131 218 260 18 263 14 OAI21_X1
* cell instance $1188 r0 *1 31.73,26.6
X$1188 129 126 14 18 264 NOR2_X1
* cell instance $1190 r0 *1 32.49,26.6
X$1190 171 263 264 14 246 18 AOI21_X1
* cell instance $1191 r0 *1 33.25,26.6
X$1191 26 14 18 265 CLKBUF_X3
* cell instance $1192 r0 *1 34.2,26.6
X$1192 273 242 258 264 18 14 272 OAI22_X1
* cell instance $1193 m0 *1 35.15,26.6
X$1193 170 169 14 18 250 OR2_X1
* cell instance $1195 m0 *1 35.91,26.6
X$1195 243 250 258 18 257 14 OAI21_X1
* cell instance $1197 r0 *1 35.15,26.6
X$1197 131 218 14 18 289 NOR2_X1
* cell instance $1198 r0 *1 35.72,26.6
X$1198 169 260 171 14 18 287 NOR3_X1
* cell instance $1199 r0 *1 36.48,26.6
X$1199 243 250 288 14 271 18 AOI21_X1
* cell instance $1200 m0 *1 37.81,26.6
X$1200 257 110 14 18 256 NAND2_X1
* cell instance $1201 m0 *1 37.05,26.6
X$1201 139 272 18 14 251 AND2_X1
* cell instance $1202 m0 *1 38.38,26.6
X$1202 232 251 14 18 245 NOR2_X1
* cell instance $1203 m0 *1 38.95,26.6
X$1203 251 195 14 18 252 NOR2_X1
* cell instance $1204 m0 *1 39.52,26.6
X$1204 255 252 256 14 269 18 AOI21_X1
* cell instance $1207 r0 *1 37.62,26.6
X$1207 271 287 110 18 284 14 OAI21_X1
* cell instance $1210 r0 *1 38.95,26.6
X$1210 283 284 245 14 270 18 AOI21_X1
* cell instance $1212 r0 *1 40.47,26.6
X$1212 114 266 36 18 283 14 OAI21_X1
* cell instance $1214 m0 *1 40.66,26.6
X$1214 114 253 36 18 255 14 OAI21_X1
* cell instance $1215 m0 *1 42.94,26.6
X$1215 14 253 269 21 18 DFF_X1
* cell instance $1217 r0 *1 41.23,26.6
X$1217 14 266 270 21 18 DFF_X1
* cell instance $1220 m0 *1 46.74,26.6
X$1220 253 14 18 267 BUF_X1
* cell instance $1225 r0 *1 47.31,26.6
X$1225 266 14 18 254 BUF_X1
* cell instance $1226 m0 *1 47.88,26.6
X$1226 254 14 18 244 BUF_X1
* cell instance $1229 r0 *1 47.88,26.6
X$1229 266 14 18 268 BUF_X1
.ENDS sine_cosine_generator

* cell DFF_X2
* pin PWELL,VSS
* pin D
* pin CK
* pin Q
* pin NWELL,VDD
.SUBCKT DFF_X2 1 6 8 11 16
* net 1 PWELL,VSS
* net 6 D
* net 8 CK
* net 10 QN
* net 11 Q
* net 16 NWELL,VDD
* device instance $1 r0 *1 2.855,0.995 PMOS_VTL
M$1 10 9 16 16 PMOS_VTL L=0.05U W=1.26U AS=0.11025P AD=0.0882P PS=2.24U PD=1.54U
* device instance $3 r0 *1 3.235,0.995 PMOS_VTL
M$3 11 2 16 16 PMOS_VTL L=0.05U W=1.26U AS=0.0882P AD=0.11025P PS=1.54U PD=2.24U
* device instance $5 r0 *1 0.2,0.9275 PMOS_VTL
M$5 16 7 3 16 PMOS_VTL L=0.05U W=0.315U AS=0.033075P AD=0.014175P PS=0.84U
+ PD=0.455U
* device instance $6 r0 *1 0.39,1.04 PMOS_VTL
M$6 17 4 16 16 PMOS_VTL L=0.05U W=0.09U AS=0.014175P AD=0.0063P PS=0.455U
+ PD=0.23U
* device instance $7 r0 *1 0.58,1.04 PMOS_VTL
M$7 17 7 5 16 PMOS_VTL L=0.05U W=0.09U AS=0.01785P AD=0.0063P PS=0.56U PD=0.23U
* device instance $8 r0 *1 0.77,0.975 PMOS_VTL
M$8 18 3 5 16 PMOS_VTL L=0.05U W=0.42U AS=0.01785P AD=0.0294P PS=0.56U PD=0.56U