* CDL Netlist generated by OpenROAD

*.BUSDELIMITER [

.SUBCKT ibex_core alert_major_o alert_minor_o boot_addr_i[0]
+ boot_addr_i[10] boot_addr_i[11] boot_addr_i[12] boot_addr_i[13]
+ boot_addr_i[14] boot_addr_i[15] boot_addr_i[16] boot_addr_i[17]
+ boot_addr_i[18] boot_addr_i[19] boot_addr_i[1] boot_addr_i[20]
+ boot_addr_i[21] boot_addr_i[22] boot_addr_i[23] boot_addr_i[24]
+ boot_addr_i[25] boot_addr_i[26] boot_addr_i[27] boot_addr_i[28]
+ boot_addr_i[29] boot_addr_i[2] boot_addr_i[30] boot_addr_i[31]
+ boot_addr_i[3] boot_addr_i[4] boot_addr_i[5] boot_addr_i[6]
+ boot_addr_i[7] boot_addr_i[8] boot_addr_i[9] clk_i core_sleep_o
+ data_addr_o[0] data_addr_o[10] data_addr_o[11] data_addr_o[12]
+ data_addr_o[13] data_addr_o[14] data_addr_o[15] data_addr_o[16]
+ data_addr_o[17] data_addr_o[18] data_addr_o[19] data_addr_o[1]
+ data_addr_o[20] data_addr_o[21] data_addr_o[22] data_addr_o[23]
+ data_addr_o[24] data_addr_o[25] data_addr_o[26] data_addr_o[27]
+ data_addr_o[28] data_addr_o[29] data_addr_o[2] data_addr_o[30]
+ data_addr_o[31] data_addr_o[3] data_addr_o[4] data_addr_o[5]
+ data_addr_o[6] data_addr_o[7] data_addr_o[8] data_addr_o[9]
+ data_be_o[0] data_be_o[1] data_be_o[2] data_be_o[3] data_err_i
+ data_gnt_i data_rdata_i[0] data_rdata_i[10] data_rdata_i[11]
+ data_rdata_i[12] data_rdata_i[13] data_rdata_i[14] data_rdata_i[15]
+ data_rdata_i[16] data_rdata_i[17] data_rdata_i[18] data_rdata_i[19]
+ data_rdata_i[1] data_rdata_i[20] data_rdata_i[21] data_rdata_i[22]
+ data_rdata_i[23] data_rdata_i[24] data_rdata_i[25] data_rdata_i[26]
+ data_rdata_i[27] data_rdata_i[28] data_rdata_i[29] data_rdata_i[2]
+ data_rdata_i[30] data_rdata_i[31] data_rdata_i[3] data_rdata_i[4]
+ data_rdata_i[5] data_rdata_i[6] data_rdata_i[7] data_rdata_i[8]
+ data_rdata_i[9] data_req_o data_rvalid_i data_wdata_o[0] data_wdata_o[10]
+ data_wdata_o[11] data_wdata_o[12] data_wdata_o[13] data_wdata_o[14]
+ data_wdata_o[15] data_wdata_o[16] data_wdata_o[17] data_wdata_o[18]
+ data_wdata_o[19] data_wdata_o[1] data_wdata_o[20] data_wdata_o[21]
+ data_wdata_o[22] data_wdata_o[23] data_wdata_o[24] data_wdata_o[25]
+ data_wdata_o[26] data_wdata_o[27] data_wdata_o[28] data_wdata_o[29]
+ data_wdata_o[2] data_wdata_o[30] data_wdata_o[31] data_wdata_o[3]
+ data_wdata_o[4] data_wdata_o[5] data_wdata_o[6] data_wdata_o[7]
+ data_wdata_o[8] data_wdata_o[9] data_we_o debug_req_i fetch_enable_i
+ hart_id_i[0] hart_id_i[10] hart_id_i[11] hart_id_i[12] hart_id_i[13]
+ hart_id_i[14] hart_id_i[15] hart_id_i[16] hart_id_i[17] hart_id_i[18]
+ hart_id_i[19] hart_id_i[1] hart_id_i[20] hart_id_i[21] hart_id_i[22]
+ hart_id_i[23] hart_id_i[24] hart_id_i[25] hart_id_i[26] hart_id_i[27]
+ hart_id_i[28] hart_id_i[29] hart_id_i[2] hart_id_i[30] hart_id_i[31]
+ hart_id_i[3] hart_id_i[4] hart_id_i[5] hart_id_i[6] hart_id_i[7]
+ hart_id_i[8] hart_id_i[9] instr_addr_o[0] instr_addr_o[10]
+ instr_addr_o[11] instr_addr_o[12] instr_addr_o[13] instr_addr_o[14]
+ instr_addr_o[15] instr_addr_o[16] instr_addr_o[17] instr_addr_o[18]
+ instr_addr_o[19] instr_addr_o[1] instr_addr_o[20] instr_addr_o[21]
+ instr_addr_o[22] instr_addr_o[23] instr_addr_o[24] instr_addr_o[25]
+ instr_addr_o[26] instr_addr_o[27] instr_addr_o[28] instr_addr_o[29]
+ instr_addr_o[2] instr_addr_o[30] instr_addr_o[31] instr_addr_o[3]
+ instr_addr_o[4] instr_addr_o[5] instr_addr_o[6] instr_addr_o[7]
+ instr_addr_o[8] instr_addr_o[9] instr_err_i instr_gnt_i instr_rdata_i[0]
+ instr_rdata_i[10] instr_rdata_i[11] instr_rdata_i[12] instr_rdata_i[13]
+ instr_rdata_i[14] instr_rdata_i[15] instr_rdata_i[16] instr_rdata_i[17]
+ instr_rdata_i[18] instr_rdata_i[19] instr_rdata_i[1] instr_rdata_i[20]
+ instr_rdata_i[21] instr_rdata_i[22] instr_rdata_i[23] instr_rdata_i[24]
+ instr_rdata_i[25] instr_rdata_i[26] instr_rdata_i[27] instr_rdata_i[28]
+ instr_rdata_i[29] instr_rdata_i[2] instr_rdata_i[30] instr_rdata_i[31]
+ instr_rdata_i[3] instr_rdata_i[4] instr_rdata_i[5] instr_rdata_i[6]
+ instr_rdata_i[7] instr_rdata_i[8] instr_rdata_i[9] instr_req_o
+ instr_rvalid_i irq_external_i irq_fast_i[0] irq_fast_i[10]
+ irq_fast_i[11] irq_fast_i[12] irq_fast_i[13] irq_fast_i[14]
+ irq_fast_i[1] irq_fast_i[2] irq_fast_i[3] irq_fast_i[4] irq_fast_i[5]
+ irq_fast_i[6] irq_fast_i[7] irq_fast_i[8] irq_fast_i[9] irq_nm_i
+ irq_software_i irq_timer_i rst_ni test_en_i
X_16113_ id_stage_i.controller_i.instr_i\[5\] _10287_ VDD
+ VSS BUF_X4
X_16114_ _10287_ _10288_ VDD VSS INV_X2
X_16115_ _10288_ _10289_ VDD VSS BUF_X8
X_16116_ id_stage_i.controller_i.instr_i\[1\] _10290_ VDD
+ VSS BUF_X2
X_16117_ id_stage_i.controller_i.instr_i\[0\] _10291_ VDD
+ VSS BUF_X2
X_16118_ _10290_ _10291_ _10292_ VDD VSS NAND2_X4
X_16119_ id_stage_i.controller_i.instr_i\[3\] _10293_ VDD
+ VSS BUF_X8
Xrebuffer19 _11512_ net290 VDD VSS BUF_X1
X_16121_ id_stage_i.controller_i.instr_i\[2\] _10293_ _10295_
+ VDD VSS OR2_X4
X_16122_ _10295_ _10296_ VDD VSS BUF_X16
X_16123_ _10289_ _10292_ _10296_ _10297_ VDD VSS NOR3_X2
X_16124_ id_stage_i.controller_i.instr_i\[6\] _10298_ VDD
+ VSS BUF_X2
X_16125_ _10298_ _10299_ VDD VSS BUF_X4
X_16126_ id_stage_i.controller_i.instr_i\[4\] _10300_ VDD
+ VSS BUF_X8
X_16127_ _00172_ _10301_ VDD VSS BUF_X2
X_16128_ _10300_ _10301_ _10302_ VDD VSS NOR2_X4
X_16129_ _10299_ _10302_ _10303_ VDD VSS NOR2_X1
X_16130_ id_stage_i.controller_i.instr_valid_i _10304_ VDD
+ VSS BUF_X4
X_16131_ _10304_ _10305_ VDD VSS INV_X4
X_16132_ id_stage_i.id_fsm_q _10306_ VDD VSS BUF_X4
X_16133_ net308 _10301_ _10307_ VDD VSS OR2_X4
X_16134_ _10305_ _10306_ _10307_ _10308_ VDD VSS NOR3_X2
X_16135_ id_stage_i.controller_i.instr_i\[14\] _10309_ VDD
+ VSS BUF_X8
X_16136_ _10309_ _10310_ VDD VSS BUF_X16
X_16137_ _10290_ _10291_ _10311_ VDD VSS AND2_X1
X_16138_ _10311_ _10312_ VDD VSS BUF_X4
X_16139_ _10293_ id_stage_i.controller_i.instr_i\[2\] _10313_
+ VDD VSS NOR2_X4
X_16140_ _10300_ _10299_ _10314_ VDD VSS NOR2_X4
X_16141_ _10312_ _10313_ _10314_ _10315_ VDD VSS NAND3_X4
X_16142_ _10297_ _10303_ _10308_ _10310_ _10315_ _10316_ VDD
+ VSS OAI221_X2
X_16143_ _10316_ _10317_ VDD VSS BUF_X4
X_16144_ _16085_ _10318_ VDD VSS INV_X1
X_16145_ load_store_unit_i.ls_fsm_cs\[1\] _10319_ VDD VSS
+ BUF_X4
X_16146_ _00171_ _10320_ VDD VSS BUF_X2
X_16147_ _10319_ _10320_ _10321_ VDD VSS AND2_X1
X_16148_ load_store_unit_i.ls_fsm_cs\[2\] _10322_ VDD VSS
+ BUF_X1
X_16149_ _10322_ _10320_ _10319_ _10323_ VDD VSS MUX2_X1
X_16150_ load_store_unit_i.ls_fsm_cs\[0\] _10324_ VDD VSS
+ CLKBUF_X3
X_16151_ _10324_ _10325_ VDD VSS INV_X2
X_16152_ _10318_ _10321_ net324 _10325_ _10326_ VDD VSS AOI22_X4
X_16153_ _10293_ _10327_ VDD VSS INV_X2
X_16154_ _10298_ _10328_ VDD VSS INV_X2
X_16155_ _10290_ _10291_ id_stage_i.controller_i.instr_i\[2\]
+ _10329_ VDD VSS AND3_X1
X_16156_ _10329_ _10330_ VDD VSS BUF_X4
X_16157_ _10327_ net315 _10328_ _10330_ _10331_ VDD VSS NAND4_X4
X_16158_ _10312_ _10287_ _10313_ _10302_ _10332_ VDD VSS NAND4_X4
X_16159_ _10305_ _10306_ _10333_ VDD VSS NOR2_X4
X_16160_ _10326_ _10331_ net302 _10333_ _10334_ VDD VSS OAI211_X4
X_16161_ gen_regfile_ff.register_file_i.raddr_b_i\[1\] _10335_
+ VDD VSS BUF_X4
X_16162_ net334 _10336_ VDD VSS INV_X2
X_16163_ _10336_ _10337_ VDD VSS BUF_X4
X_16164_ id_stage_i.controller_i.instr_is_compressed_i _10338_
+ VDD VSS BUF_X4
X_16165_ _10290_ _10291_ id_stage_i.controller_i.instr_i\[2\]
+ _10339_ VDD VSS NAND3_X2
X_16166_ _10339_ _10340_ VDD VSS BUF_X4
X_16167_ _10293_ _10341_ VDD VSS CLKBUF_X3
X_16168_ _10341_ _10289_ _10314_ _10342_ VDD VSS AND3_X2
X_16169_ id_stage_i.controller_i.instr_i\[13\] _10343_ VDD
+ VSS BUF_X2
X_16170_ _10343_ _10344_ VDD VSS BUF_X4
X_16171_ id_stage_i.controller_i.instr_i\[12\] _10345_ VDD
+ VSS BUF_X2
X_16172_ _10345_ _10346_ VDD VSS INV_X4
X_16173_ _00173_ _10347_ VDD VSS BUF_X4
X_16174_ _10347_ _10348_ VDD VSS INV_X4
X_16175_ _10344_ _10346_ _10348_ _10349_ VDD VSS NOR3_X2
X_16176_ _10306_ _10350_ VDD VSS INV_X4
X_16177_ _10327_ _10304_ _10350_ _10351_ VDD VSS NAND3_X1
X_16178_ _10289_ _10307_ _10352_ VDD VSS NOR2_X2
X_16179_ _10342_ _10349_ _10351_ _10352_ _10353_ VDD VSS AOI22_X2
X_16180_ _10340_ _10353_ _10354_ VDD VSS NOR2_X1
X_16181_ _10338_ _10354_ _10355_ VDD VSS NAND2_X1
X_16182_ _10325_ _10323_ _10356_ VDD VSS AND2_X1
X_16183_ _10319_ _10320_ _10357_ VDD VSS NAND2_X1
X_16184_ _16085_ _10357_ _10358_ VDD VSS NOR2_X1
X_16185_ _10356_ _10358_ _10359_ VDD VSS OR2_X1
X_16186_ _10359_ _10360_ VDD VSS BUF_X4
X_16187_ _10360_ _10361_ VDD VSS BUF_X4
X_16188_ _10298_ _10301_ id_stage_i.controller_i.instr_i\[5\]
+ _10362_ VDD VSS MUX2_X1
X_16189_ net315 _10340_ _10362_ _10363_ VDD VSS NOR3_X1
X_16190_ id_stage_i.controller_i.instr_i\[2\] _10364_ VDD
+ VSS INV_X1
X_16191_ _10327_ _10364_ _10365_ VDD VSS NOR2_X1
X_16192_ _10341_ _10289_ _10301_ _10366_ VDD VSS NOR3_X2
X_16193_ _10312_ _10363_ _10365_ _10366_ _10367_ VDD VSS OAI211_X2
X_16194_ _10304_ _10350_ _10368_ VDD VSS NAND2_X4
X_16195_ _10368_ _10352_ _10342_ _10349_ _10369_ VDD VSS AOI22_X1
X_16196_ _10360_ _10367_ _10369_ _10370_ VDD VSS OR3_X1
X_16197_ _10370_ _10371_ VDD VSS BUF_X4
X_16198_ _10300_ _10372_ VDD VSS INV_X2
X_16199_ _10339_ _10372_ _10298_ _10293_ _10373_ VDD VSS NOR4_X4
X_16200_ _10289_ _10310_ _10315_ _10374_ VDD VSS NOR3_X4
X_16201_ _10373_ _10374_ _10375_ VDD VSS NOR2_X4
X_16202_ _10361_ _10371_ _10375_ _10376_ VDD VSS AOI21_X1
X_16203_ _10337_ _10355_ _10376_ _10377_ VDD VSS MUX2_X1
X_16204_ _10293_ _10288_ _10314_ _10378_ VDD VSS NAND3_X2
X_16205_ _10344_ _10379_ VDD VSS INV_X1
X_16206_ _10379_ _10380_ VDD VSS BUF_X4
X_16207_ _10345_ _10381_ VDD VSS BUF_X4
X_16208_ _10380_ _10381_ _10347_ _10382_ VDD VSS NAND3_X2
X_16209_ _10341_ _10305_ _10306_ _10383_ VDD VSS NOR3_X2
X_16210_ _10287_ _10302_ _10384_ VDD VSS NAND2_X2
X_16211_ _10378_ _10382_ _10383_ _10384_ _10385_ VDD VSS OAI22_X4
X_16212_ _10360_ _10330_ _10385_ _10386_ VDD VSS AOI21_X4
X_16213_ _10334_ _10371_ _10375_ _10387_ VDD VSS AOI21_X4
X_16214_ _10331_ _10332_ _10333_ _10388_ VDD VSS OAI21_X2
X_16215_ _10360_ _10388_ _10389_ VDD VSS NOR2_X4
X_16216_ net315 _10328_ _10390_ VDD VSS NAND2_X1
X_16217_ _10341_ _10390_ _10340_ _10360_ _10369_ _10367_ _10391_
+ VDD VSS OAI33_X1
X_16218_ _10389_ _10374_ net252 _10392_ VDD VSS NOR3_X4
X_16219_ _10386_ _10387_ _10392_ _10393_ VDD VSS OAI21_X2
X_16220_ gen_regfile_ff.register_file_i.waddr_a_i\[1\] _10394_
+ VDD VSS BUF_X4
X_16221_ _10394_ _10395_ VDD VSS INV_X1
X_16222_ _10317_ _10334_ _10377_ _10393_ _10395_ _10396_ VDD
+ VSS OAI221_X2
X_16223_ _10361_ _10397_ VDD VSS BUF_X4
X_16224_ _10397_ _10398_ VDD VSS BUF_X4
X_16225_ _10297_ _10303_ _10308_ _10399_ VDD VSS OAI21_X2
X_16226_ _10292_ _10296_ _10400_ VDD VSS NOR2_X1
X_16227_ _10400_ _10314_ _10401_ VDD VSS AND2_X2
X_16228_ _10309_ _10402_ VDD VSS INV_X4
X_16229_ _10399_ _10401_ _10402_ _10403_ VDD VSS AOI21_X4
X_16230_ _10335_ _10404_ VDD VSS BUF_X4
X_16231_ _10404_ _10405_ VDD VSS BUF_X8
X_16232_ _10405_ _10406_ VDD VSS BUF_X8
X_16233_ _00163_ _00165_ _10406_ _10407_ VDD VSS MUX2_X1
X_16234_ _10335_ _10408_ VDD VSS BUF_X8
X_16235_ _10408_ _10409_ VDD VSS BUF_X8
X_16236_ _10409_ _10410_ VDD VSS BUF_X4
X_16237_ _00164_ _00166_ _10410_ _10411_ VDD VSS MUX2_X1
X_16238_ gen_regfile_ff.register_file_i.raddr_b_i\[0\] _10412_
+ VDD VSS BUF_X8
X_16239_ _10412_ _10413_ VDD VSS BUF_X16
X_16240_ _10413_ _10414_ VDD VSS BUF_X4
X_16241_ _10407_ _10411_ _10414_ _10415_ VDD VSS MUX2_X1
X_16242_ _00155_ _00157_ _10410_ _10416_ VDD VSS MUX2_X1
X_16243_ _00156_ _00158_ _10410_ _10417_ VDD VSS MUX2_X1
X_16244_ _10416_ _10417_ _10414_ _10418_ VDD VSS MUX2_X1
X_16245_ gen_regfile_ff.register_file_i.raddr_b_i\[3\] _10419_
+ VDD VSS BUF_X4
X_16246_ _10419_ _10420_ VDD VSS INV_X2
X_16247_ _10420_ _10421_ VDD VSS BUF_X8
X_16248_ _10415_ _10418_ _10421_ _10422_ VDD VSS MUX2_X1
X_16249_ _00167_ _00169_ _10410_ _10423_ VDD VSS MUX2_X1
X_16250_ _00168_ _00170_ _10410_ _10424_ VDD VSS MUX2_X1
X_16251_ _10423_ _10424_ _10414_ _10425_ VDD VSS MUX2_X1
X_16252_ _00159_ _00161_ _10410_ _10426_ VDD VSS MUX2_X1
X_16253_ _00160_ _00162_ _10410_ _10427_ VDD VSS MUX2_X1
X_16254_ _10426_ _10427_ _10414_ _10428_ VDD VSS MUX2_X1
X_16255_ _10425_ _10428_ _10421_ _10429_ VDD VSS MUX2_X1
X_16256_ gen_regfile_ff.register_file_i.raddr_b_i\[2\] _10430_
+ VDD VSS BUF_X4
X_16257_ _10430_ _10431_ VDD VSS BUF_X4
X_16258_ _10431_ _10432_ VDD VSS BUF_X8
X_16259_ _10422_ _10429_ _10432_ _10433_ VDD VSS MUX2_X1
X_16260_ _10430_ _10434_ VDD VSS BUF_X4
X_16261_ _10434_ _10435_ VDD VSS INV_X4
X_16262_ _10435_ _10436_ VDD VSS BUF_X4
X_16263_ _10404_ _10437_ VDD VSS BUF_X4
X_16264_ _10437_ _10438_ VDD VSS BUF_X8
X_16265_ _10438_ _10439_ VDD VSS BUF_X4
X_16266_ _00151_ _00153_ _10439_ _10440_ VDD VSS MUX2_X1
X_16267_ _00152_ _00154_ _10439_ _10441_ VDD VSS MUX2_X1
X_16268_ _10412_ _10442_ VDD VSS BUF_X4
X_16269_ _10442_ _10443_ VDD VSS BUF_X4
X_16270_ _10443_ _10444_ VDD VSS BUF_X4
X_16271_ _10440_ _10441_ _10444_ _10445_ VDD VSS MUX2_X1
X_16272_ _00143_ _00145_ _10439_ _10446_ VDD VSS MUX2_X1
X_16273_ _00144_ _00146_ _10439_ _10447_ VDD VSS MUX2_X1
X_16274_ _10446_ _10447_ _10444_ _10448_ VDD VSS MUX2_X1
X_16275_ _10445_ _10448_ _10421_ _10449_ VDD VSS MUX2_X1
X_16276_ _10436_ _10449_ _10450_ VDD VSS NOR2_X1
X_16277_ _10419_ _10451_ VDD VSS BUF_X8
X_16278_ _10408_ _10452_ VDD VSS BUF_X4
X_16279_ _10452_ _10453_ VDD VSS BUF_X4
X_16280_ _10453_ _10454_ VDD VSS BUF_X4
X_16281_ gen_regfile_ff.register_file_i.rf_reg\[33\] _10454_
+ _10455_ VDD VSS NOR2_X1
X_16282_ net334 _10456_ VDD VSS BUF_X32
X_16283_ _10456_ _10457_ VDD VSS BUF_X32
XPHY_EDGE_ROW_2_Right_2 VDD VSS TAPCELL_X1
X_16285_ _10457_ _10459_ VDD VSS BUF_X32
X_16286_ _10455_ net364 _00142_ _10460_ VDD VSS AOI21_X1
X_16287_ _10444_ _00141_ _10461_ VDD VSS NOR2_X1
X_16288_ _10451_ _10460_ _10444_ _10461_ net364 _10462_ VDD
+ VSS AOI221_X2
X_16289_ _00147_ _00149_ net364 _10463_ VDD VSS MUX2_X1
X_16290_ _00148_ _00150_ net364 _10464_ VDD VSS MUX2_X1
X_16291_ _10413_ _10465_ VDD VSS BUF_X16
X_16292_ _10465_ _10466_ VDD VSS BUF_X16
X_16293_ _10463_ _10464_ _10466_ _10467_ VDD VSS MUX2_X1
X_16294_ _10451_ _10468_ VDD VSS BUF_X8
X_16295_ _10462_ _10467_ _10468_ _10469_ VDD VSS AOI21_X1
X_16296_ _10450_ _10469_ _10436_ _10470_ VDD VSS AOI21_X2
X_16297_ gen_regfile_ff.register_file_i.raddr_b_i\[4\] _10471_
+ VDD VSS BUF_X4
X_16298_ _10471_ _10472_ VDD VSS INV_X8
X_16299_ _10472_ _10473_ VDD VSS BUF_X4
X_16300_ _10473_ _10474_ VDD VSS BUF_X8
X_16301_ _10433_ _10470_ _10474_ _10475_ VDD VSS MUX2_X2
X_16302_ _10398_ _10403_ _10475_ _10476_ VDD VSS AOI21_X4
X_16303_ _10396_ _10476_ _15834_ VDD VSS NAND2_X4
X_16304_ _15834_ _15846_ VDD VSS INV_X2
X_16305_ _10381_ _10477_ VDD VSS CLKBUF_X3
X_16306_ _10477_ _10348_ _10478_ VDD VSS NOR2_X1
X_16307_ _10368_ _10332_ _10479_ VDD VSS NOR2_X4
X_16308_ _10312_ _10313_ _10480_ VDD VSS NAND2_X4
X_16309_ _10300_ _10288_ _10328_ _10481_ VDD VSS NAND3_X4
X_16310_ _10309_ _10345_ _10482_ VDD VSS NAND2_X2
X_16311_ _10343_ _10347_ _10483_ VDD VSS NAND2_X1
X_16312_ _10482_ _10483_ _10484_ VDD VSS NOR2_X2
X_16313_ _00176_ _10485_ VDD VSS INV_X1
X_16314_ _10343_ _10485_ _10346_ _10309_ _10486_ VDD VSS AOI211_X2
X_16315_ _10481_ _10480_ _10484_ _10486_ _10487_ VDD VSS NOR4_X4
X_16316_ _10344_ _10488_ VDD VSS BUF_X4
X_16317_ _10479_ _10487_ _10488_ _10489_ VDD VSS MUX2_X1
X_16318_ _10344_ _10346_ _10490_ VDD VSS NAND2_X1
X_16319_ _10488_ _10368_ _10332_ _10481_ _10490_ _10480_ _10491_
+ VDD VSS OAI33_X1
XPHY_EDGE_ROW_0_Right_0 VDD VSS TAPCELL_X1
X_16321_ _10310_ _10493_ VDD VSS BUF_X16
XPHY_EDGE_ROW_5_Right_5 VDD VSS TAPCELL_X1
X_16323_ _10493_ _10495_ VDD VSS BUF_X8
X_16324_ _10478_ _10489_ _10491_ _10495_ _10496_ VDD VSS AOI22_X1
X_16325_ id_stage_i.controller_i.instr_i\[30\] _10497_ VDD
+ VSS BUF_X2
X_16326_ _10497_ _10498_ VDD VSS BUF_X4
X_16327_ _10498_ _10499_ VDD VSS INV_X1
X_16328_ id_stage_i.controller_i.instr_i\[27\] _10500_ VDD
+ VSS BUF_X4
X_16329_ id_stage_i.controller_i.instr_i\[28\] _10501_ VDD
+ VSS BUF_X8
X_16330_ id_stage_i.controller_i.instr_i\[29\] _10502_ VDD
+ VSS BUF_X4
X_16331_ _00174_ _10503_ VDD VSS INV_X1
X_16332_ _10500_ _10501_ _10502_ _10503_ _10504_ VDD VSS NOR4_X2
X_16333_ _10310_ _10380_ _10381_ _10504_ _10505_ VDD VSS AND4_X1
X_16334_ _10499_ _10487_ _10505_ _10506_ VDD VSS NAND3_X1
X_16335_ id_stage_i.controller_i.instr_i\[25\] _10507_ VDD
+ VSS BUF_X2
X_16336_ _10507_ _10508_ VDD VSS INV_X4
X_16337_ id_stage_i.controller_i.instr_i\[31\] _10509_ VDD
+ VSS BUF_X4
X_16338_ _10509_ _10510_ VDD VSS INV_X2
X_16339_ _10500_ _10502_ _10501_ id_stage_i.controller_i.instr_i\[26\]
+ _10511_ VDD VSS NOR4_X4
X_16340_ _10508_ _10510_ net281 _10512_ VDD VSS NAND3_X2
X_16341_ _10300_ id_stage_i.controller_i.instr_i\[5\] _10513_
+ VDD VSS NAND2_X2
X_16342_ _10299_ _10292_ _10296_ _10513_ _10514_ VDD VSS NOR4_X4
X_16343_ _10498_ _10482_ _10515_ VDD VSS NOR2_X1
X_16344_ _10495_ _10381_ _10499_ _10516_ VDD VSS NOR3_X2
X_16345_ _10380_ _10515_ _10516_ _10517_ VDD VSS OAI21_X1
X_16346_ _10517_ _10490_ _10498_ _10518_ VDD VSS OAI21_X1
X_16347_ _10514_ _10518_ _10519_ VDD VSS NAND2_X1
X_16348_ _10519_ _10512_ _10520_ VDD VSS OR2_X2
X_16349_ _10496_ _10506_ _10520_ _15357_ VDD VSS AND3_X4
X_16350_ _15357_ _15364_ VDD VSS INV_X2
X_16351_ _10488_ _10348_ _10504_ _10521_ VDD VSS AOI21_X1
X_16352_ _10347_ _10522_ VDD VSS BUF_X4
X_16353_ _10477_ _10522_ _10488_ _10523_ VDD VSS OAI21_X1
X_16354_ _10523_ _10524_ VDD VSS INV_X1
X_16355_ net312 _10521_ _10482_ _10524_ _10495_ _10525_ VDD
+ VSS OAI221_X2
X_16356_ _10488_ _10346_ _10526_ VDD VSS NOR2_X2
X_16357_ _10490_ _10527_ VDD VSS INV_X1
X_16358_ _10495_ _10526_ _10527_ _10528_ VDD VSS OAI21_X1
X_16359_ _10382_ _10479_ _10528_ _10529_ VDD VSS NAND3_X1
X_16360_ _10327_ net315 _10340_ _10362_ _10530_ VDD VSS NOR4_X4
X_16361_ _10299_ _10292_ _10296_ _10531_ VDD VSS NOR3_X2
X_16362_ _10293_ _10288_ _10292_ _10307_ _10532_ VDD VSS NOR4_X4
X_16363_ _10373_ _10530_ _10531_ _10532_ _10533_ VDD VSS NOR4_X4
X_16364_ _10287_ _10299_ _10534_ VDD VSS NOR2_X2
X_16365_ _10341_ _10372_ _10330_ _10534_ _10535_ VDD VSS AND4_X2
X_16366_ _10380_ _10522_ _10536_ VDD VSS NAND2_X2
X_16367_ _10533_ _10535_ _10536_ _10537_ VDD VSS AOI21_X2
X_16368_ _00177_ _10538_ VDD VSS CLKBUF_X2
X_16369_ _10538_ _10539_ VDD VSS INV_X1
X_16370_ _10509_ _10497_ _10540_ VDD VSS NOR2_X2
X_16371_ _10511_ _10540_ _10541_ VDD VSS NAND2_X2
X_16372_ _10507_ _10346_ net313 _10542_ VDD VSS AOI21_X1
X_16373_ _10507_ _10509_ _10497_ _10343_ _10543_ VDD VSS AOI211_X2
X_16374_ _10543_ _10511_ _10544_ VDD VSS NAND2_X1
X_16375_ _10344_ _10497_ _10545_ VDD VSS NOR2_X1
X_16376_ _10309_ _10346_ _10545_ _10546_ VDD VSS NOR3_X1
X_16377_ _10538_ _10381_ _10402_ _10547_ VDD VSS OAI21_X1
X_16378_ _10541_ _10539_ _10542_ _10544_ _10546_ _10547_ _10548_
+ VDD VSS OAI33_X1
X_16379_ _10379_ _10381_ _10549_ VDD VSS NAND2_X2
X_16380_ _10381_ _10549_ _10402_ _10550_ VDD VSS MUX2_X1
X_16381_ _10508_ _10511_ _10540_ _10551_ VDD VSS NAND3_X1
X_16382_ _10548_ _10550_ _10551_ _10552_ VDD VSS OAI21_X1
X_16383_ _10514_ _10552_ _10553_ VDD VSS NAND2_X1
X_16384_ _10525_ _10529_ _10537_ _10553_ _15358_ VDD VSS NAND4_X4
X_16385_ _15358_ _15361_ VDD VSS INV_X4
X_16386_ _10344_ _10348_ _10554_ VDD VSS NOR2_X1
X_16387_ _10341_ _10372_ _10330_ _10534_ _10555_ VDD VSS NAND4_X4
X_16388_ net315 _10287_ _10299_ _10556_ VDD VSS NAND3_X2
X_16389_ _10292_ _10296_ _10556_ _10557_ VDD VSS OR3_X4
X_16390_ _10326_ _10554_ _10555_ _10557_ _10522_ _10558_ VDD
+ VSS OAI221_X2
X_16391_ _10327_ _10289_ _10307_ _10340_ _10559_ VDD VSS NOR4_X1
X_16392_ _10559_ _10373_ _10289_ _10560_ VDD VSS AOI21_X2
X_16393_ _10299_ _10513_ _10561_ VDD VSS NAND2_X1
X_16394_ _10532_ _10561_ _10400_ _10330_ _10342_ _10562_ VDD
+ VSS AOI221_X2
X_16395_ _10558_ _10560_ _10562_ _10563_ VDD VSS AOI21_X4
X_16396_ _10563_ _10564_ VDD VSS BUF_X2
X_16397_ _10564_ _10565_ VDD VSS BUF_X4
X_16398_ gen_regfile_ff.register_file_i.raddr_a_i\[3\] _10566_
+ VDD VSS BUF_X4
X_16399_ _10566_ _10567_ VDD VSS INV_X8
X_16400_ _10567_ _10568_ VDD VSS BUF_X4
X_16401_ _10568_ _10569_ VDD VSS BUF_X4
X_16402_ _10569_ _10570_ VDD VSS BUF_X4
X_16403_ _10570_ _10571_ VDD VSS BUF_X4
X_16404_ gen_regfile_ff.register_file_i.raddr_a_i\[4\] _10572_
+ VDD VSS BUF_X4
X_16405_ _10572_ _10573_ VDD VSS INV_X4
X_16406_ _10573_ _10574_ VDD VSS BUF_X8
X_16407_ _10574_ _10575_ VDD VSS BUF_X4
X_16408_ _10575_ _10576_ VDD VSS BUF_X4
X_16409_ gen_regfile_ff.register_file_i.raddr_a_i\[0\] _10577_
+ VDD VSS BUF_X4
X_16410_ _10577_ _10578_ VDD VSS INV_X1
X_16411_ _10578_ _10579_ VDD VSS BUF_X4
X_16412_ _10579_ _10580_ VDD VSS BUF_X8
X_16413_ _10580_ _10581_ VDD VSS BUF_X4
X_16414_ _10581_ _10582_ VDD VSS BUF_X4
X_16415_ gen_regfile_ff.register_file_i.raddr_a_i\[1\] _10583_
+ VDD VSS BUF_X8
X_16416_ _10583_ _10584_ VDD VSS BUF_X8
X_16417_ _10584_ _10585_ VDD VSS BUF_X8
Xrebuffer101 _12985_ net372 VDD VSS BUF_X4
X_16419_ _10585_ _10587_ VDD VSS BUF_X8
X_16420_ _10587_ _10588_ VDD VSS BUF_X4
X_16421_ _10588_ _10589_ VDD VSS BUF_X4
X_16422_ _00156_ _00158_ _10589_ _10590_ VDD VSS MUX2_X1
X_16423_ _10582_ _10590_ _10591_ VDD VSS NOR2_X1
X_16424_ _10577_ _10592_ VDD VSS BUF_X8
X_16425_ _10592_ _10593_ VDD VSS BUF_X4
X_16426_ _10593_ _10594_ VDD VSS BUF_X8
X_16427_ _10594_ _10595_ VDD VSS BUF_X8
X_16428_ _10595_ _10596_ VDD VSS BUF_X4
X_16429_ _10596_ _10597_ VDD VSS BUF_X4
X_16430_ _10584_ _10598_ VDD VSS BUF_X8
X_16431_ _10598_ _10599_ VDD VSS BUF_X8
X_16432_ _10599_ _10600_ VDD VSS BUF_X8
X_16433_ _10600_ _10601_ VDD VSS BUF_X8
X_16434_ _10601_ _10602_ VDD VSS BUF_X4
X_16435_ _00155_ _00157_ _10602_ _10603_ VDD VSS MUX2_X1
X_16436_ _10597_ _10603_ _10604_ VDD VSS NOR2_X1
X_16437_ _10576_ _10591_ _10604_ _10605_ VDD VSS NOR3_X1
X_16438_ gen_regfile_ff.register_file_i.raddr_a_i\[2\] _10606_
+ VDD VSS BUF_X4
X_16439_ _10606_ _10607_ VDD VSS INV_X4
X_16440_ _10607_ _10608_ VDD VSS BUF_X8
X_16441_ _10608_ _10609_ VDD VSS BUF_X8
X_16442_ _10609_ _10610_ VDD VSS BUF_X4
X_16443_ _10583_ _10611_ VDD VSS BUF_X4
X_16444_ _10611_ _10612_ VDD VSS BUF_X4
X_16445_ _10612_ _10613_ VDD VSS BUF_X8
X_16446_ _10613_ _10614_ VDD VSS BUF_X8
X_16447_ _10614_ _10615_ VDD VSS BUF_X4
X_16448_ _10615_ _10616_ VDD VSS BUF_X4
X_16449_ gen_regfile_ff.register_file_i.rf_reg\[33\] _10616_
+ _10617_ VDD VSS NOR2_X1
X_16450_ _10584_ _10618_ VDD VSS BUF_X4
X_16451_ _10618_ _10619_ VDD VSS BUF_X8
X_16452_ _10619_ _10620_ VDD VSS BUF_X4
X_16453_ _10620_ _10621_ VDD VSS BUF_X8
X_16454_ _10621_ _10622_ VDD VSS BUF_X4
X_16455_ _00142_ _10622_ _10623_ VDD VSS AND2_X1
X_16456_ _10582_ _10617_ _10623_ _10624_ VDD VSS NOR3_X1
X_16457_ _10577_ _10625_ VDD VSS BUF_X4
X_16458_ _10625_ _10626_ VDD VSS BUF_X8
X_16459_ _10626_ _10627_ VDD VSS BUF_X8
X_16460_ _10627_ _10628_ VDD VSS BUF_X4
X_16461_ _10628_ _10629_ VDD VSS BUF_X4
X_16462_ _00141_ _10629_ _10630_ VDD VSS OR2_X1
X_16463_ _10583_ _10631_ VDD VSS INV_X1
X_16464_ _10631_ _10632_ VDD VSS BUF_X4
X_16465_ _10576_ _10630_ _10632_ _10633_ VDD VSS OAI21_X1
X_16466_ _10610_ _10624_ _10633_ _10634_ VDD VSS OAI21_X1
X_16467_ _00159_ _00161_ _10588_ _10635_ VDD VSS MUX2_X1
X_16468_ _00160_ _00162_ _10588_ _10636_ VDD VSS MUX2_X1
X_16469_ _10635_ _10636_ _10629_ _10637_ VDD VSS MUX2_X1
X_16470_ _00143_ _00145_ _10588_ _10638_ VDD VSS MUX2_X1
X_16471_ _00144_ _00146_ _10588_ _10639_ VDD VSS MUX2_X1
X_16472_ _10638_ _10639_ _10629_ _10640_ VDD VSS MUX2_X1
X_16473_ _10637_ _10640_ _10576_ _10641_ VDD VSS MUX2_X1
X_16474_ _10571_ _10605_ _10634_ _10641_ _10610_ _10642_ VDD
+ VSS OAI221_X2
X_16475_ _10606_ _10567_ _10643_ VDD VSS NOR2_X4
X_16476_ _00163_ _00165_ _10588_ _10644_ VDD VSS MUX2_X1
X_16477_ _00164_ _00166_ _10621_ _10645_ VDD VSS MUX2_X1
X_16478_ _10644_ _10645_ _10629_ _10646_ VDD VSS MUX2_X1
X_16479_ _00147_ _00149_ _10621_ _10647_ VDD VSS MUX2_X1
X_16480_ _00148_ _00150_ _10621_ _10648_ VDD VSS MUX2_X1
X_16481_ _10647_ _10648_ _10629_ _10649_ VDD VSS MUX2_X1
X_16482_ _10646_ _10649_ _10576_ _10650_ VDD VSS MUX2_X1
X_16483_ _10607_ _10567_ _10651_ VDD VSS NOR2_X4
X_16484_ _00167_ _00169_ _10601_ _10652_ VDD VSS MUX2_X1
X_16485_ _00168_ _00170_ _10601_ _10653_ VDD VSS MUX2_X1
X_16486_ _10652_ _10653_ _10596_ _10654_ VDD VSS MUX2_X1
X_16487_ _00151_ _00153_ _10601_ _10655_ VDD VSS MUX2_X1
X_16488_ _00152_ _00154_ _10601_ _10656_ VDD VSS MUX2_X1
X_16489_ _10655_ _10656_ _10629_ _10657_ VDD VSS MUX2_X1
X_16490_ _10654_ _10657_ _10576_ _10658_ VDD VSS MUX2_X1
X_16491_ _10643_ _10650_ _10651_ _10658_ _10659_ VDD VSS AOI22_X4
X_16492_ _10565_ _10642_ _10659_ _10660_ VDD VSS NAND3_X2
X_16493_ _10292_ _10296_ _10556_ _10661_ VDD VSS NOR3_X4
X_16494_ _10536_ _10535_ _10661_ _10348_ _10662_ VDD VSS AOI22_X4
X_16495_ _10341_ _10287_ _10302_ _10330_ _10663_ VDD VSS NAND4_X1
X_16496_ _10663_ _10331_ _10287_ _10664_ VDD VSS OAI21_X2
X_16497_ _10299_ _10513_ _10665_ VDD VSS AND2_X1
X_16498_ _10327_ _10312_ _10666_ VDD VSS NAND2_X1
X_16499_ _10555_ _10665_ _10480_ _10384_ _10666_ _10667_ VDD
+ VSS OAI221_X2
X_16500_ _10326_ _10662_ _10664_ _10667_ _10668_ VDD VSS OAI211_X4
X_16501_ _10347_ _10555_ _10557_ _10669_ VDD VSS AOI21_X4
X_16502_ _10344_ _10381_ _10670_ VDD VSS NOR2_X4
X_16503_ _10666_ _10333_ _10384_ _10340_ _10378_ _10670_ _10671_
+ VDD VSS OAI33_X1
X_16504_ _10562_ _10669_ _10671_ _10672_ VDD VSS OR3_X4
X_16505_ _10326_ _10673_ VDD VSS BUF_X8
X_16506_ id_stage_i.controller_i.lsu_addr_last_i\[1\] _10668_
+ _10672_ _10673_ _10674_ VDD VSS AOI22_X4
X_16507_ cs_registers_i.pc_id_i\[1\] _10675_ VDD VSS CLKBUF_X2
X_16508_ _10675_ _10676_ VDD VSS INV_X1
X_16509_ _10380_ _10346_ _10677_ VDD VSS NAND2_X4
X_16510_ _10348_ _10677_ _10678_ VDD VSS NOR2_X4
X_16511_ _00183_ _10557_ _10678_ _10679_ VDD VSS OR3_X1
X_16512_ _10676_ _10679_ _10668_ _10680_ VDD VSS MUX2_X1
X_16513_ _10562_ _10669_ _10671_ _10681_ VDD VSS NOR3_X4
X_16514_ _10361_ _10681_ _10682_ VDD VSS NOR2_X4
X_16515_ _10682_ _10683_ VDD VSS BUF_X8
X_16516_ _10660_ _10674_ _10680_ _10683_ _15845_ VDD VSS AOI22_X4
X_16517_ _15845_ _15849_ VDD VSS INV_X1
X_16518_ _10430_ _10684_ VDD VSS BUF_X4
X_16519_ _10684_ _10685_ VDD VSS BUF_X4
X_16520_ _00208_ _00212_ _10685_ _10686_ VDD VSS MUX2_X1
X_16521_ _00210_ _00214_ _10685_ _10687_ VDD VSS MUX2_X1
X_16522_ _10686_ _10687_ _10454_ _10688_ VDD VSS MUX2_X1
X_16523_ _00192_ _00196_ _10685_ _10689_ VDD VSS MUX2_X1
X_16524_ _00194_ _00198_ _10685_ _10690_ VDD VSS MUX2_X1
X_16525_ _10689_ _10690_ net364 _10691_ VDD VSS MUX2_X1
X_16526_ _10688_ _10691_ _10473_ _10692_ VDD VSS MUX2_X1
X_16527_ _10466_ _10692_ _10693_ VDD VSS NOR2_X1
X_16528_ _10412_ _10694_ VDD VSS INV_X2
X_16529_ _10694_ _10695_ VDD VSS BUF_X4
X_16530_ _10695_ _10696_ VDD VSS BUF_X4
X_16531_ _10696_ _10697_ VDD VSS BUF_X4
X_16532_ _00209_ _00213_ _10431_ _10698_ VDD VSS MUX2_X1
X_16533_ _00211_ _00215_ _10685_ _10699_ VDD VSS MUX2_X1
X_16534_ _10698_ _10699_ _10454_ _10700_ VDD VSS MUX2_X1
X_16535_ _00193_ _00197_ _10685_ _10701_ VDD VSS MUX2_X1
X_16536_ _00195_ _00199_ _10685_ _10702_ VDD VSS MUX2_X1
X_16537_ _10701_ _10702_ _10454_ _10703_ VDD VSS MUX2_X1
X_16538_ _10700_ _10703_ _10473_ _10704_ VDD VSS MUX2_X1
X_16539_ _10697_ _10704_ _10705_ VDD VSS NOR2_X1
X_16540_ _10421_ _10693_ _10705_ _10706_ VDD VSS NOR3_X2
X_16541_ _10471_ _10707_ VDD VSS BUF_X4
X_16542_ _10707_ _10708_ VDD VSS BUF_X4
X_16543_ _10708_ _10709_ VDD VSS BUF_X4
X_16544_ _10452_ _10710_ VDD VSS BUF_X4
X_16545_ _00200_ _00202_ _10710_ _10711_ VDD VSS MUX2_X1
X_16546_ _00201_ _00203_ _10710_ _10712_ VDD VSS MUX2_X1
X_16547_ _10711_ _10712_ _10465_ _10713_ VDD VSS MUX2_X1
X_16548_ _10709_ _10713_ _10714_ VDD VSS NAND2_X1
X_16549_ _10695_ _10406_ _10715_ VDD VSS NAND2_X4
X_16550_ _10715_ _10716_ VDD VSS BUF_X4
X_16551_ net364 _00187_ _10717_ VDD VSS NAND2_X1
X_16552_ _10717_ gen_regfile_ff.register_file_i.rf_reg\[32\]
+ net364 _10718_ VDD VSS OAI21_X1
X_16553_ _10474_ _00186_ _10716_ _10718_ _10697_ _10719_ VDD
+ VSS OAI221_X1
X_16554_ _10436_ _10714_ _10719_ _10720_ VDD VSS AND3_X1
X_16555_ _00204_ _00206_ _10406_ _10721_ VDD VSS MUX2_X1
X_16556_ _00205_ _00207_ _10406_ _10722_ VDD VSS MUX2_X1
X_16557_ _10721_ _10722_ _10414_ _10723_ VDD VSS MUX2_X1
X_16558_ _00188_ _00190_ _10406_ _10724_ VDD VSS MUX2_X1
X_16559_ _00189_ _00191_ _10406_ _10725_ VDD VSS MUX2_X1
X_16560_ _10724_ _10725_ _10414_ _10726_ VDD VSS MUX2_X1
X_16561_ _10723_ _10726_ _10473_ _10727_ VDD VSS MUX2_X1
X_16562_ _10436_ _10727_ _10728_ VDD VSS NOR2_X1
X_16563_ _10468_ _10720_ _10728_ _10729_ VDD VSS NOR3_X2
X_16564_ _10317_ _10706_ _10729_ _10730_ VDD VSS NOR3_X4
X_16565_ _00216_ _10731_ VDD VSS INV_X1
X_16566_ _10731_ _10360_ _10371_ _10375_ _10732_ VDD VSS AOI211_X2
X_16567_ _10317_ _10389_ _10386_ _10733_ VDD VSS NAND3_X1
X_16568_ _10673_ _10374_ net250 _10734_ VDD VSS OAI21_X1
X_16569_ _10732_ _10733_ _10734_ _10697_ _10735_ VDD VSS AOI211_X2
X_16570_ _10673_ _10730_ _10735_ _10736_ VDD VSS OAI21_X4
X_16571_ _10736_ _10737_ VDD VSS INV_X1
X_16572_ _10737_ _10738_ VDD VSS BUF_X4
X_16573_ _10738_ _15841_ VDD VSS BUF_X4
X_16574_ _10736_ _10739_ VDD VSS BUF_X8
Xrebuffer9 net368 net280 VDD VSS BUF_X1
X_16576_ _10739_ _15835_ VDD VSS BUF_X4
X_16577_ _10361_ _10741_ VDD VSS BUF_X8
X_16578_ _10522_ _10670_ _10742_ VDD VSS NAND2_X2
X_16579_ _10661_ _10742_ _10743_ VDD VSS NAND2_X1
X_16580_ _10743_ _10744_ VDD VSS BUF_X4
X_16581_ _00184_ _10741_ _10681_ _10744_ _10745_ VDD VSS NOR4_X1
X_16582_ _10326_ _10672_ _10746_ VDD VSS NAND2_X2
X_16583_ _10746_ _10747_ VDD VSS BUF_X4
X_16584_ _10745_ _10747_ id_stage_i.controller_i.lsu_addr_last_i\[0\]
+ _10748_ VDD VSS AOI21_X2
X_16585_ _10572_ _10749_ VDD VSS BUF_X8
X_16586_ _10749_ _10750_ VDD VSS BUF_X8
X_16587_ _10606_ _10751_ VDD VSS BUF_X4
X_16588_ _10751_ _10752_ VDD VSS BUF_X8
X_16589_ _00188_ _00190_ _10589_ _10753_ VDD VSS MUX2_X1
X_16590_ _00189_ _00191_ _10589_ _10754_ VDD VSS MUX2_X1
X_16591_ _10753_ _10754_ _10597_ _10755_ VDD VSS MUX2_X1
X_16592_ _10752_ _10755_ _10756_ VDD VSS NAND2_X1
X_16593_ _10580_ _10601_ _10757_ VDD VSS NAND2_X4
X_16594_ _10757_ _10758_ VDD VSS BUF_X4
X_16595_ _10622_ _10759_ VDD VSS BUF_X8
X_16596_ _10759_ _00187_ _10760_ VDD VSS NAND2_X1
X_16597_ _10760_ gen_regfile_ff.register_file_i.rf_reg\[32\]