
* cell pwm_generator
* pin period[7]
* pin rst_n
* pin period[6]
* pin duty_cycle[7]
* pin clk
* pin duty_cycle[6]
* pin duty_cycle[5]
* pin duty_cycle[4]
* pin period[5]
* pin period[4]
* pin pwm_out
* pin duty_cycle[3]
* pin period[2]
* pin period[3]
* pin duty_cycle[2]
* pin duty_cycle[1]
* pin period[0]
* pin period[1]
* pin enable
* pin duty_cycle[0]
* pin NWELL
* pin PWELL,gf180mcu_gnd
.SUBCKT pwm_generator 1 2 3 4 26 27 28 63 69 80 101 115 124 125 150 178 180 182
+ 183 184 185 186
* net 1 period[7]
* net 2 rst_n
* net 3 period[6]
* net 4 duty_cycle[7]
* net 26 clk
* net 27 duty_cycle[6]
* net 28 duty_cycle[5]
* net 63 duty_cycle[4]
* net 69 period[5]
* net 80 period[4]
* net 101 pwm_out
* net 115 duty_cycle[3]
* net 124 period[2]
* net 125 period[3]
* net 150 duty_cycle[2]
* net 178 duty_cycle[1]
* net 180 period[0]
* net 182 period[1]
* net 183 enable
* net 184 duty_cycle[0]
* net 185 NWELL
* net 186 PWELL,gf180mcu_gnd
* cell instance $4 r0 *1 78.96,5.04
X$4 1 185 186 5 gf180mcu_fd_sc_mcu9t5v0__dlyb_2
* cell instance $6 m0 *1 81.76,15.12
X$6 186 185 2 6 gf180mcu_fd_sc_mcu9t5v0__buf_4
* cell instance $12 r0 *1 92.4,5.04
X$12 3 185 186 7 gf180mcu_fd_sc_mcu9t5v0__dlyb_2
* cell instance $16 r0 *1 113.12,5.04
X$16 4 185 186 8 gf180mcu_fd_sc_mcu9t5v0__dlyb_2
* cell instance $19 r0 *1 81.2,75.6
X$19 186 185 18 5 9 19 gf180mcu_fd_sc_mcu9t5v0__mux2_2
* cell instance $21 r0 *1 132.16,75.6
X$21 186 6 13 185 gf180mcu_fd_sc_mcu9t5v0__clkbuf_8
* cell instance $31 r0 *1 71.12,136.08
X$31 186 118 10 135 6 185 gf180mcu_fd_sc_mcu9t5v0__dffsnq_2
* cell instance $34 r0 *1 111.44,75.6
X$34 186 21 10 17 6 185 gf180mcu_fd_sc_mcu9t5v0__dffsnq_2
* cell instance $37 r0 *1 80.08,156.24
X$37 186 159 10 158 6 185 gf180mcu_fd_sc_mcu9t5v0__dffsnq_2
* cell instance $40 m0 *1 92.4,166.32
X$40 186 175 10 179 6 185 gf180mcu_fd_sc_mcu9t5v0__dffsnq_2
* cell instance $42 m0 *1 71.12,136.08
X$42 186 117 10 106 6 185 gf180mcu_fd_sc_mcu9t5v0__dffsnq_2
* cell instance $44 m0 *1 90.72,75.6
X$44 186 12 10 11 6 185 gf180mcu_fd_sc_mcu9t5v0__dffsnq_2
* cell instance $47 r0 *1 72.8,105.84
X$47 186 70 10 56 6 185 gf180mcu_fd_sc_mcu9t5v0__dffsnq_2
* cell instance $49 m0 *1 77.28,85.68
X$49 186 19 10 18 6 185 gf180mcu_fd_sc_mcu9t5v0__dffsnq_2
* cell instance $51 m0 *1 73.36,115.92
X$51 186 81 10 89 6 185 gf180mcu_fd_sc_mcu9t5v0__dffsnq_2
* cell instance $54 r0 *1 92.4,75.6
X$54 186 185 11 7 9 12 gf180mcu_fd_sc_mcu9t5v0__mux2_2
* cell instance $57 m0 *1 116.48,75.6
X$57 186 185 17 8 20 21 gf180mcu_fd_sc_mcu9t5v0__mux2_2
* cell instance $59 r0 *1 101.92,115.92
X$59 186 9 185 103 48 95 gf180mcu_fd_sc_mcu9t5v0__aoi21_2
* cell instance $62 r0 *1 76.72,115.92
X$62 186 185 89 94 9 81 gf180mcu_fd_sc_mcu9t5v0__mux2_2
* cell instance $65 m0 *1 106.96,85.68
X$65 186 9 20 185 gf180mcu_fd_sc_mcu9t5v0__clkbuf_8
* cell instance $72 m0 *1 110.32,136.08
X$72 185 109 78 9 186 gf180mcu_fd_sc_mcu9t5v0__and2_4
* cell instance $74 r0 *1 75.04,126
X$74 186 185 106 107 9 117 gf180mcu_fd_sc_mcu9t5v0__mux2_2
* cell instance $77 m0 *1 76.16,105.84
X$77 186 185 56 64 9 70 gf180mcu_fd_sc_mcu9t5v0__mux2_2
* cell instance $81 m0 *1 75.6,146.16
X$81 186 185 135 126 9 118 gf180mcu_fd_sc_mcu9t5v0__mux2_2
* cell instance $87 m0 *1 139.44,85.68
X$87 186 13 32 10 22 185 gf180mcu_fd_sc_mcu9t5v0__dffrnq_2
* cell instance $94 r0 *1 118.72,115.92
X$94 186 185 10 gf180mcu_fd_sc_mcu9t5v0__inv_1
* cell instance $100 r0 *1 126,166.32
X$100 186 13 148 10 168 185 gf180mcu_fd_sc_mcu9t5v0__dffrnq_2
* cell instance $116 m0 *1 118.72,126
X$116 186 104 10 185 gf180mcu_fd_sc_mcu9t5v0__clkbuf_8
* cell instance $120 m0 *1 136.64,146.16
X$120 186 13 142 10 128 185 gf180mcu_fd_sc_mcu9t5v0__dffrnq_2
* cell instance $124 m0 *1 108.64,95.76
X$124 49 186 185 41 12 50 gf180mcu_fd_sc_mcu9t5v0__addh_1
* cell instance $143 m0 *1 155.68,166.32
X$143 186 13 149 14 164 185 gf180mcu_fd_sc_mcu9t5v0__dffrnq_2
* cell instance $146 r0 *1 164.64,166.32
X$146 186 13 177 14 176 185 gf180mcu_fd_sc_mcu9t5v0__dffrnq_2
* cell instance $149 m0 *1 156.8,136.08
X$149 186 13 99 14 123 185 gf180mcu_fd_sc_mcu9t5v0__dffrnq_2
* cell instance $151 r0 *1 193.2,75.6
X$151 186 13 24 14 16 185 gf180mcu_fd_sc_mcu9t5v0__dffrnq_2
* cell instance $156 r0 *1 156.8,75.6
X$156 186 13 23 14 15 185 gf180mcu_fd_sc_mcu9t5v0__dffrnq_2
* cell instance $160 r0 *1 193.2,156.24
X$160 186 13 163 14 172 185 gf180mcu_fd_sc_mcu9t5v0__dffrnq_2
* cell instance $162 r0 *1 191.52,115.92
X$162 186 13 93 14 96 185 gf180mcu_fd_sc_mcu9t5v0__dffrnq_2
* cell instance $164 r0 *1 149.52,95.76
X$164 186 13 51 14 52 185 gf180mcu_fd_sc_mcu9t5v0__dffrnq_2
* cell instance $166 r0 *1 197.68,105.84
X$166 186 13 62 14 67 185 gf180mcu_fd_sc_mcu9t5v0__dffrnq_2
* cell instance $168 r0 *1 195.44,146.16
X$168 186 13 145 14 155 185 gf180mcu_fd_sc_mcu9t5v0__dffrnq_2
* cell instance $170 r0 *1 196.56,85.68
X$170 186 13 34 14 36 185 gf180mcu_fd_sc_mcu9t5v0__dffrnq_2
* cell instance $172 r0 *1 194.88,126
X$172 186 13 114 14 116 185 gf180mcu_fd_sc_mcu9t5v0__dffrnq_2
* cell instance $174 r0 *1 147.84,105.84
X$174 186 13 74 14 73 185 gf180mcu_fd_sc_mcu9t5v0__dffrnq_2
* cell instance $197 m0 *1 168.56,126
X$197 186 104 14 185 gf180mcu_fd_sc_mcu9t5v0__clkbuf_8
* cell instance $204 r0 *1 156.8,85.68
X$204 185 31 37 186 15 gf180mcu_fd_sc_mcu9t5v0__and2_2
* cell instance $207 m0 *1 192.08,85.68
X$207 186 185 16 25 20 24 gf180mcu_fd_sc_mcu9t5v0__mux2_2
* cell instance $219 r0 *1 104.16,85.68
X$219 186 39 40 30 19 185 gf180mcu_fd_sc_mcu9t5v0__addh_2
* cell instance $223 m0 *1 204.96,105.84
X$223 186 185 67 65 20 62 gf180mcu_fd_sc_mcu9t5v0__mux2_2
* cell instance $225 r0 *1 101.92,166.32
X$225 186 185 179 174 20 175 gf180mcu_fd_sc_mcu9t5v0__mux2_2
* cell instance $227 m0 *1 203.84,85.68
X$227 186 185 36 35 20 34 gf180mcu_fd_sc_mcu9t5v0__mux2_2
* cell instance $242 m0 *1 169.12,176.4
X$242 186 185 176 181 20 177 gf180mcu_fd_sc_mcu9t5v0__mux2_2
* cell instance $245 m0 *1 201.6,166.32
X$245 186 185 172 171 20 163 gf180mcu_fd_sc_mcu9t5v0__mux2_2
* cell instance $248 m0 *1 84,166.32
X$248 186 185 158 167 20 159 gf180mcu_fd_sc_mcu9t5v0__mux2_2
* cell instance $251 m0 *1 202.72,156.24
X$251 186 185 155 151 20 145 gf180mcu_fd_sc_mcu9t5v0__mux2_2
* cell instance $253 m0 *1 201.6,136.08
X$253 186 185 116 119 20 114 gf180mcu_fd_sc_mcu9t5v0__mux2_2
* cell instance $256 m0 *1 158.48,85.68
X$256 186 185 21 38 gf180mcu_fd_sc_mcu9t5v0__clkinv_2
* cell instance $263 r0 *1 141.12,85.68
X$263 185 31 29 186 22 gf180mcu_fd_sc_mcu9t5v0__and2_2
* cell instance $265 r0 *1 170.8,85.68
X$265 47 186 185 23 38 44 gf180mcu_fd_sc_mcu9t5v0__addh_1
* cell instance $267 m0 *1 164.08,85.68
X$267 186 185 23 30 gf180mcu_fd_sc_mcu9t5v0__clkinv_2
* cell instance $274 m0 *1 185.36,85.68
X$274 186 185 24 33 gf180mcu_fd_sc_mcu9t5v0__clkinv_2
* cell instance $282 r0 *1 228.48,75.6
X$282 27 185 186 25 gf180mcu_fd_sc_mcu9t5v0__dlyb_2
* cell instance $285 m0 *1 143.92,126
X$285 186 26 104 185 gf180mcu_fd_sc_mcu9t5v0__clkbuf_8
* cell instance $290 m0 *1 228.48,85.68
X$290 28 185 186 35 gf180mcu_fd_sc_mcu9t5v0__dlyb_2
* cell instance $293 m0 *1 136.08,95.76
X$293 185 41 79 186 29 gf180mcu_fd_sc_mcu9t5v0__xnor2_2
* cell instance $296 r0 *1 147.28,85.68
X$296 185 30 55 186 37 gf180mcu_fd_sc_mcu9t5v0__xnor2_2
* cell instance $303 m0 *1 152.88,105.84
X$303 185 31 68 186 52 gf180mcu_fd_sc_mcu9t5v0__and2_2
* cell instance $306 m0 *1 147.84,115.92
X$306 185 31 88 186 73 gf180mcu_fd_sc_mcu9t5v0__and2_2
* cell instance $309 m0 *1 138.88,126
X$309 186 185 98 31 97 gf180mcu_fd_sc_mcu9t5v0__nand2_2
* cell instance $317 r0 *1 141.12,95.76
X$317 51 185 32 58 186 55 gf180mcu_fd_sc_mcu9t5v0__and3_2
* cell instance $319 m0 *1 145.6,95.76
X$319 186 185 32 41 gf180mcu_fd_sc_mcu9t5v0__clkinv_2
* cell instance $322 r0 *1 180.32,85.68
X$322 42 186 185 32 33 45 gf180mcu_fd_sc_mcu9t5v0__addh_1
* cell instance $334 r0 *1 202.72,95.76
X$334 186 185 34 61 gf180mcu_fd_sc_mcu9t5v0__clkinv_2
* cell instance $357 r0 *1 105.84,95.76
X$357 186 39 185 48 49 40 gf180mcu_fd_sc_mcu9t5v0__aoi21_2
* cell instance $360 r0 *1 113.68,105.84
X$360 40 83 71 50 186 185 78 gf180mcu_fd_sc_mcu9t5v0__and4_2
* cell instance $362 m0 *1 105.28,105.84
X$362 185 72 95 66 40 50 186 gf180mcu_fd_sc_mcu9t5v0__oai211_2
* cell instance $374 m0 *1 176.4,95.76
X$374 186 53 185 54 47 42 43 44 gf180mcu_fd_sc_mcu9t5v0__aoi221_2
* cell instance $379 m0 *1 189.28,115.92
X$379 186 185 96 43 98 93 gf180mcu_fd_sc_mcu9t5v0__mux2_2
* cell instance $381 m0 *1 188.16,95.76
X$381 44 185 45 46 186 54 gf180mcu_fd_sc_mcu9t5v0__and3_2
* cell instance $391 r0 *1 185.36,105.84
X$391 186 185 60 46 76 gf180mcu_fd_sc_mcu9t5v0__nand2_2
* cell instance $408 r0 *1 140.56,105.84
X$408 74 185 51 85 186 79 gf180mcu_fd_sc_mcu9t5v0__and3_2
* cell instance $410 m0 *1 138.32,105.84
X$410 186 185 51 57 gf180mcu_fd_sc_mcu9t5v0__clkinv_2
* cell instance $413 m0 *1 175.28,105.84
X$413 59 186 185 51 61 75 gf180mcu_fd_sc_mcu9t5v0__addh_1
* cell instance $422 r0 *1 177.52,126
X$422 185 92 186 112 53 113 gf180mcu_fd_sc_mcu9t5v0__oai21_2
* cell instance $437 m0 *1 95.76,105.84
X$437 66 186 185 57 70 71 gf180mcu_fd_sc_mcu9t5v0__addh_1
* cell instance $440 m0 *1 141.68,105.84
X$440 185 57 58 186 68 gf180mcu_fd_sc_mcu9t5v0__xnor2_2
* cell instance $443 r0 *1 146.16,115.92
X$443 99 74 98 100 186 185 58 gf180mcu_fd_sc_mcu9t5v0__and4_2
* cell instance $450 r0 *1 174.72,115.92
X$450 75 86 59 92 102 185 186 gf180mcu_fd_sc_mcu9t5v0__aoi211_2
* cell instance $452 m0 *1 184.8,105.84
X$452 186 185 59 60 gf180mcu_fd_sc_mcu9t5v0__clkinv_2
* cell instance $466 r0 *1 190.96,105.84
X$466 186 185 62 87 gf180mcu_fd_sc_mcu9t5v0__clkinv_2
* cell instance $471 m0 *1 228.48,105.84
X$471 63 185 186 65 gf180mcu_fd_sc_mcu9t5v0__dlyb_2
* cell instance $476 m0 *1 19.6,105.84
X$476 69 185 186 64 gf180mcu_fd_sc_mcu9t5v0__dlyb_2
* cell instance $505 r0 *1 105.84,105.84
X$505 185 71 82 186 72 gf180mcu_fd_sc_mcu9t5v0__and2_2
* cell instance $514 m0 *1 134.96,115.92
X$514 186 185 74 84 gf180mcu_fd_sc_mcu9t5v0__clkinv_2
* cell instance $519 m0 *1 177.52,115.92
X$519 86 186 185 74 87 77 gf180mcu_fd_sc_mcu9t5v0__addh_1
* cell instance $530 r0 *1 175.84,105.84
X$530 185 75 186 77 76 86 gf180mcu_fd_sc_mcu9t5v0__oai21_2
* cell instance $542 r0 *1 109.2,115.92
X$542 185 78 90 186 91 gf180mcu_fd_sc_mcu9t5v0__and2_2
* cell instance $545 r0 *1 108.64,126
X$545 186 185 78 90 109 gf180mcu_fd_sc_mcu9t5v0__nand2_2
* cell instance $555 r0 *1 19.6,115.92
X$555 80 185 186 94 gf180mcu_fd_sc_mcu9t5v0__dlyb_2
* cell instance $557 m0 *1 107.52,115.92
X$557 82 186 185 84 81 83 gf180mcu_fd_sc_mcu9t5v0__addh_1
* cell instance $570 m0 *1 138.32,115.92
X$570 185 84 85 186 88 gf180mcu_fd_sc_mcu9t5v0__xnor2_2
* cell instance $576 r0 *1 144.48,136.08
X$576 141 142 99 129 186 185 85 gf180mcu_fd_sc_mcu9t5v0__and4_2
* cell instance $598 m0 *1 105.28,126
X$598 186 97 122 91 103 185 gf180mcu_fd_sc_mcu9t5v0__aoi21_4
* cell instance $608 r0 *1 219.52,115.92
X$608 93 185 186 101 gf180mcu_fd_sc_mcu9t5v0__dlyb_2
* cell instance $624 r0 *1 129.92,136.08
X$624 185 186 97 140 139 138 128 98 gf180mcu_fd_sc_mcu9t5v0__oai221_2
* cell instance $626 r0 *1 132.16,156.24
X$626 186 185 169 160 97 gf180mcu_fd_sc_mcu9t5v0__nor2_2
* cell instance $632 r0 *1 145.04,156.24
X$632 185 165 186 97 98 164 161 gf180mcu_fd_sc_mcu9t5v0__oai22_2
* cell instance $634 m0 *1 142.8,136.08
X$634 185 110 186 97 98 123 111 gf180mcu_fd_sc_mcu9t5v0__oai22_2
* cell instance $636 r0 *1 128.24,146.16
X$636 141 186 138 97 185 139 gf180mcu_fd_sc_mcu9t5v0__or3_2
* cell instance $641 m0 *1 129.36,146.16
X$641 186 140 141 185 138 98 gf180mcu_fd_sc_mcu9t5v0__nand3_2
* cell instance $643 m0 *1 140,166.32
X$643 186 185 98 160 gf180mcu_fd_sc_mcu9t5v0__clkinv_2
* cell instance $645 r0 *1 145.04,166.32
X$645 186 185 129 98 gf180mcu_fd_sc_mcu9t5v0__buf_4
* cell instance $656 r0 *1 140,156.24
X$656 186 185 166 165 98 gf180mcu_fd_sc_mcu9t5v0__nand2_2
* cell instance $658 r0 *1 137.76,126
X$658 186 185 111 105 98 gf180mcu_fd_sc_mcu9t5v0__nand2_2
* cell instance $664 m0 *1 175.84,136.08
X$664 102 186 185 99 120 132 gf180mcu_fd_sc_mcu9t5v0__addh_1
* cell instance $669 r0 *1 152.88,126
X$669 186 185 99 111 gf180mcu_fd_sc_mcu9t5v0__clkinv_2
* cell instance $677 r0 *1 142.8,126
X$677 186 185 110 105 100 111 gf180mcu_fd_sc_mcu9t5v0__mux2_2
* cell instance $679 r0 *1 146.72,146.16
X$679 148 185 142 149 186 100 gf180mcu_fd_sc_mcu9t5v0__and3_2
* cell instance $706 r0 *1 2.24,136.08
X$706 124 185 186 107 gf180mcu_fd_sc_mcu9t5v0__dlyb_2
* cell instance $710 r0 *1 106.96,146.16
X$710 147 108 143 137 186 185 109 gf180mcu_fd_sc_mcu9t5v0__and4_2
* cell instance $713 m0 *1 114.24,146.16
X$713 186 185 108 127 137 gf180mcu_fd_sc_mcu9t5v0__nand2_2
* cell instance $717 r0 *1 101.92,136.08
X$717 186 121 185 133 134 108 gf180mcu_fd_sc_mcu9t5v0__aoi21_2
* cell instance $719 m0 *1 98.56,136.08
X$719 186 121 108 111 118 185 gf180mcu_fd_sc_mcu9t5v0__addh_2
* cell instance $736 r0 *1 179.2,136.08
X$736 185 132 186 130 112 131 gf180mcu_fd_sc_mcu9t5v0__oai21_2
* cell instance $739 m0 *1 175.84,156.24
X$739 173 156 157 113 130 185 186 gf180mcu_fd_sc_mcu9t5v0__aoi211_2
* cell instance $742 m0 *1 185.36,136.08
X$742 186 185 114 120 gf180mcu_fd_sc_mcu9t5v0__clkinv_2
* cell instance $750 m0 *1 220.08,136.08
X$750 115 185 186 119 gf180mcu_fd_sc_mcu9t5v0__dlyb_2
* cell instance $757 m0 *1 104.72,146.16
X$757 134 186 185 138 117 137 gf180mcu_fd_sc_mcu9t5v0__addh_1
* cell instance $782 r0 *1 109.76,136.08
X$782 185 133 186 136 122 127 gf180mcu_fd_sc_mcu9t5v0__oai21_2
* cell instance $792 r0 *1 11.2,136.08
X$792 125 185 186 126 gf180mcu_fd_sc_mcu9t5v0__dlyb_2
* cell instance $807 m0 *1 139.44,246.96
X$807 183 185 186 129 gf180mcu_fd_sc_mcu9t5v0__dlyb_2
* cell instance $811 m0 *1 175.28,146.16
X$811 130 186 185 142 146 131 gf180mcu_fd_sc_mcu9t5v0__addh_1
* cell instance $831 m0 *1 111.44,156.24
X$831 186 154 185 136 144 147 gf180mcu_fd_sc_mcu9t5v0__aoi21_2
* cell instance $841 r0 *1 140.56,146.16
X$841 186 185 142 138 gf180mcu_fd_sc_mcu9t5v0__clkinv_2
* cell instance $859 m0 *1 141.68,156.24
X$859 141 186 185 148 149 166 gf180mcu_fd_sc_mcu9t5v0__addh_1
* cell instance $875 m0 *1 101.92,156.24
X$875 153 186 185 148 152 143 gf180mcu_fd_sc_mcu9t5v0__addh_1
* cell instance $878 r0 *1 114.24,146.16
X$878 186 185 153 144 gf180mcu_fd_sc_mcu9t5v0__clkinv_2
* cell instance $880 r0 *1 192.08,146.16
X$880 186 185 145 146 gf180mcu_fd_sc_mcu9t5v0__clkinv_2
* cell instance $896 r0 *1 105.84,156.24
X$896 154 186 185 161 175 147 gf180mcu_fd_sc_mcu9t5v0__addh_1
* cell instance $903 m0 *1 143.36,166.32
X$903 186 185 148 170 gf180mcu_fd_sc_mcu9t5v0__clkinv_2
* cell instance $908 m0 *1 185.36,156.24
X$908 157 186 185 149 162 156 gf180mcu_fd_sc_mcu9t5v0__addh_1
* cell instance $912 m0 *1 151.2,156.24
X$912 186 185 149 161 gf180mcu_fd_sc_mcu9t5v0__clkinv_2
* cell instance $921 m0 *1 220.08,156.24
X$921 150 185 186 151 gf180mcu_fd_sc_mcu9t5v0__dlyb_2
* cell instance $927 m0 *1 98.56,156.24
X$927 186 185 159 152 gf180mcu_fd_sc_mcu9t5v0__clkinv_2
* cell instance $960 m0 *1 131.6,166.32
X$960 186 185 168 169 170 160 gf180mcu_fd_sc_mcu9t5v0__mux2_2
* cell instance $972 r0 *1 189.84,156.24
X$972 186 185 163 162 gf180mcu_fd_sc_mcu9t5v0__clkinv_2
* cell instance $991 r0 *1 11.2,166.32
X$991 180 185 186 167 gf180mcu_fd_sc_mcu9t5v0__dlyb_2
* cell instance $1000 m0 *1 174.72,166.32
X$1000 186 185 170 173 177 gf180mcu_fd_sc_mcu9t5v0__nand2_2
* cell instance $1007 r0 *1 220.08,166.32
X$1007 178 185 186 171 gf180mcu_fd_sc_mcu9t5v0__dlyb_2
* cell instance $1018 m0 *1 101.92,246.96
X$1018 182 185 186 174 gf180mcu_fd_sc_mcu9t5v0__dlyb_2
* cell instance $1040 m0 *1 167.44,246.96
X$1040 184 185 186 181 gf180mcu_fd_sc_mcu9t5v0__dlyb_2
.ENDS pwm_generator

* cell gf180mcu_fd_sc_mcu9t5v0__aoi221_2
* pin PWELL,VSS,gf180mcu_gnd
* pin B2
* pin NWELL,VDD
* pin B1
* pin C
* pin A2
* pin ZN
* pin A1
.SUBCKT gf180mcu_fd_sc_mcu9t5v0__aoi221_2 1 3 4 5 6 8 9 10
* net 1 PWELL,VSS,gf180mcu_gnd
* net 3 B2
* net 4 NWELL,VDD
* net 5 B1
* net 6 C
* net 8 A2
* net 9 ZN
* net 10 A1
* device instance $1 r0 *1 0.97,3.78 pmos_5p0
M$1 2 6 7 4 pmos_5p0 L=0.5U W=3.66U AS=1.4457P AD=0.983625P PS=7.07U PD=4.735U
* device instance $2 r0 *1 1.99,3.78 pmos_5p0
M$2 4 3 2 4 pmos_5p0 L=0.5U W=3.66U AS=0.9516P AD=1.1163P PS=4.7U PD=4.88U
* device instance $3 r0 *1 3.01,3.78 pmos_5p0
M$3 2 5 4 4 pmos_5p0 L=0.5U W=3.66U AS=0.9699P AD=0.9699P PS=4.72U PD=4.72U
* device instance $7 r0 *1 7.325,3.78 pmos_5p0
M$7 9 10 7 4 pmos_5p0 L=0.5U W=3.66U AS=0.983625P AD=1.281P PS=4.735U PD=6.89U
* device instance $8 r0 *1 8.345,3.78 pmos_5p0
M$8 7 8 9 4 pmos_5p0 L=0.5U W=3.66U AS=0.9516P AD=0.9516P PS=4.7U PD=4.7U
* device instance $11 r0 *1 6.32,0.875 nmos_5p0
M$11 9 6 1 1 nmos_5p0 L=0.6U W=1.58U AS=0.711P AD=0.709025P PS=3.77U PD=4.36U
* device instance $13 r0 *1 2.22,1.072 nmos_5p0
M$13 14 3 1 1 nmos_5p0 L=0.6U W=1.185U AS=0.3555P AD=0.1422P PS=1.885U PD=1.425U
* device instance $14 r0 *1 3.06,1.072 nmos_5p0
M$14 9 5 14 1 nmos_5p0 L=0.6U W=1.185U AS=0.1422P AD=0.3081P PS=1.425U PD=1.705U
* device instance $15 r0 *1 4.18,1.072 nmos_5p0
M$15 12 5 9 1 nmos_5p0 L=0.6U W=1.185U AS=0.3081P AD=0.1422P PS=1.705U PD=1.425U
* device instance $16 r0 *1 5.02,1.072 nmos_5p0
M$16 1 3 12 1 nmos_5p0 L=0.6U W=1.185U AS=0.1422P AD=0.3555P PS=1.425U PD=1.885U
* device instance $17 r0 *1 7.635,1.072 nmos_5p0
M$17 13 10 9 1 nmos_5p0 L=0.6U W=1.185U AS=0.361425P AD=0.1422P PS=1.9U
+ PD=1.425U
* device instance $18 r0 *1 8.475,1.072 nmos_5p0
M$18 1 8 13 1 nmos_5p0 L=0.6U W=1.185U AS=0.1422P AD=0.3081P PS=1.425U PD=1.705U
* device instance $19 r0 *1 9.595,1.072 nmos_5p0
M$19 11 8 1 1 nmos_5p0 L=0.6U W=1.185U AS=0.3081P AD=0.1422P PS=1.705U PD=1.425U
* device instance $20 r0 *1 10.435,1.072 nmos_5p0
M$20 9 10 11 1 nmos_5p0 L=0.6U W=1.185U AS=0.1422P AD=0.5214P PS=1.425U PD=3.25U
.ENDS gf180mcu_fd_sc_mcu9t5v0__aoi221_2

* cell gf180mcu_fd_sc_mcu9t5v0__xnor2_2
* pin NWELL,VDD
* pin A1
* pin A2
* pin PWELL,VSS,gf180mcu_gnd
* pin ZN
.SUBCKT gf180mcu_fd_sc_mcu9t5v0__xnor2_2 1 5 6 7 8
* net 1 NWELL,VDD
* net 5 A1
* net 6 A2
* net 7 PWELL,VSS,gf180mcu_gnd
* net 8 ZN
* device instance $1 r0 *1 0.97,3.327 pmos_5p0
M$1 10 6 2 1 pmos_5p0 L=0.5U W=0.915U AS=0.4026P AD=0.260775P PS=2.71U PD=1.485U
* device instance $2 r0 *1 2.04,3.327 pmos_5p0
M$2 1 5 10 1 pmos_5p0 L=0.5U W=0.915U AS=0.260775P AD=0.571875P PS=1.485U
+ PD=2.68U
* device instance $3 r0 *1 3.39,3.785 pmos_5p0
M$3 4 2 1 1 pmos_5p0 L=0.5U W=1.83U AS=0.571875P AD=0.4758P PS=2.68U PD=2.35U
* device instance $4 r0 *1 4.41,3.785 pmos_5p0
M$4 3 5 4 1 pmos_5p0 L=0.5U W=1.83U AS=0.4758P AD=0.4758P PS=2.35U PD=2.35U
* device instance $5 r0 *1 5.43,3.785 pmos_5p0
M$5 4 6 3 1 pmos_5p0 L=0.5U W=1.83U AS=0.4758P AD=0.8052P PS=2.35U PD=4.54U
* device instance $6 r0 *1 7.17,3.78 pmos_5p0
M$6 8 3 1 1 pmos_5p0 L=0.5U W=3.66U AS=1.3725P AD=1.3725P PS=6.99U PD=6.99U
* device instance $8 r0 *1 7.22,1.005 nmos_5p0
M$8 8 3 7 7 nmos_5p0 L=0.6U W=2.64U AS=0.924P AD=0.924P PS=5.36U PD=5.36U
* device instance $10 r0 *1 0.92,0.675 nmos_5p0
M$10 2 6 7 7 nmos_5p0 L=0.6U W=0.66U AS=0.2904P AD=0.1716P PS=2.2U PD=1.18U
* device instance $11 r0 *1 2.04,0.675 nmos_5p0
M$11 7 5 2 7 nmos_5p0 L=0.6U W=0.66U AS=0.1716P AD=0.363P PS=1.18U PD=2.02U
* device instance $12 r0 *1 3.34,1.005 nmos_5p0
M$12 3 2 7 7 nmos_5p0 L=0.6U W=1.32U AS=0.363P AD=0.3432P PS=2.02U PD=1.84U
* device instance $13 r0 *1 4.46,1.005 nmos_5p0
M$13 9 5 3 7 nmos_5p0 L=0.6U W=1.32U AS=0.3432P AD=0.2112P PS=1.84U PD=1.64U
* device instance $14 r0 *1 5.38,1.005 nmos_5p0
M$14 7 6 9 7 nmos_5p0 L=0.6U W=1.32U AS=0.2112P AD=0.5808P PS=1.64U PD=3.52U
.ENDS gf180mcu_fd_sc_mcu9t5v0__xnor2_2

* cell gf180mcu_fd_sc_mcu9t5v0__inv_1
* pin PWELL,VSS,gf180mcu_gnd
* pin NWELL,VDD
* pin I
.SUBCKT gf180mcu_fd_sc_mcu9t5v0__inv_1 1 2 3
* net 1 PWELL,VSS,gf180mcu_gnd
* net 2 NWELL,VDD
* net 3 I
* net 4 ZN
* device instance $1 r0 *1 0.97,3.78 pmos_5p0
M$1 4 3 2 2 pmos_5p0 L=0.5U W=1.83U AS=0.8052P AD=0.8052P PS=4.54U PD=4.54U
* device instance $2 r0 *1 0.92,1.005 nmos_5p0
M$2 4 3 1 1 nmos_5p0 L=0.6U W=1.32U AS=0.5808P AD=0.5808P PS=3.52U PD=3.52U
.ENDS gf180mcu_fd_sc_mcu9t5v0__inv_1

* cell gf180mcu_fd_sc_mcu9t5v0__oai211_2
* pin NWELL,VDD
* pin A2
* pin ZN
* pin A1
* pin B
* pin C
* pin PWELL,VSS,gf180mcu_gnd
.SUBCKT gf180mcu_fd_sc_mcu9t5v0__oai211_2 1 2 3 4 5 6 7
* net 1 NWELL,VDD
* net 2 A2
* net 3 ZN
* net 4 A1
* net 5 B
* net 6 C
* net 7 PWELL,VSS,gf180mcu_gnd
* device instance $1 r0 *1 0.97,3.78 pmos_5p0
M$1 12 2 1 1 pmos_5p0 L=0.5U W=1.83U AS=0.8052P AD=0.52155P PS=4.54U PD=2.4U
* device instance $2 r0 *1 2.04,3.78 pmos_5p0
M$2 3 4 12 1 pmos_5p0 L=0.5U W=1.83U AS=0.52155P AD=0.5673P PS=2.4U PD=2.45U
* device instance $3 r0 *1 3.16,3.78 pmos_5p0
M$3 11 4 3 1 pmos_5p0 L=0.5U W=1.83U AS=0.5673P AD=0.52155P PS=2.45U PD=2.4U
* device instance $4 r0 *1 4.23,3.78 pmos_5p0
M$4 1 2 11 1 pmos_5p0 L=0.5U W=1.83U AS=0.52155P AD=0.585P PS=2.4U PD=2.53U
* device instance $5 r0 *1 5.43,3.965 pmos_5p0
M$5 3 5 1 1 pmos_5p0 L=0.5U W=2.92U AS=0.9646P AD=1.022P PS=4.51U PD=5.78U
* device instance $6 r0 *1 6.45,3.965 pmos_5p0
M$6 1 6 3 1 pmos_5p0 L=0.5U W=2.92U AS=0.7592P AD=0.7592P PS=3.96U PD=3.96U
* device instance $9 r0 *1 0.92,1.005 nmos_5p0
M$9 3 2 8 7 nmos_5p0 L=0.6U W=2.64U AS=0.924P AD=0.7062P PS=5.36U PD=3.71U
* device instance $10 r0 *1 2.04,1.005 nmos_5p0
M$10 8 4 3 7 nmos_5p0 L=0.6U W=2.64U AS=0.6864P AD=0.6864P PS=3.68U PD=3.68U
* device instance $13 r0 *1 5.43,1.005 nmos_5p0
M$13 9 5 8 7 nmos_5p0 L=0.6U W=1.32U AS=0.363P AD=0.2442P PS=1.87U PD=1.69U
* device instance $14 r0 *1 6.4,1.005 nmos_5p0
M$14 7 6 9 7 nmos_5p0 L=0.6U W=1.32U AS=0.2442P AD=0.3432P PS=1.69U PD=1.84U
* device instance $15 r0 *1 7.52,1.005 nmos_5p0
M$15 10 6 7 7 nmos_5p0 L=0.6U W=1.32U AS=0.3432P AD=0.2112P PS=1.84U PD=1.64U
* device instance $16 r0 *1 8.44,1.005 nmos_5p0
M$16 8 5 10 7 nmos_5p0 L=0.6U W=1.32U AS=0.2112P AD=0.5808P PS=1.64U PD=3.52U
.ENDS gf180mcu_fd_sc_mcu9t5v0__oai211_2

* cell gf180mcu_fd_sc_mcu9t5v0__and2_2
* pin NWELL,VDD
* pin A1
* pin A2
* pin PWELL,VSS,gf180mcu_gnd
* pin Z
.SUBCKT gf180mcu_fd_sc_mcu9t5v0__and2_2 2 3 4 5 6
* net 2 NWELL,VDD
* net 3 A1
* net 4 A2
* net 5 PWELL,VSS,gf180mcu_gnd
* net 6 Z
* device instance $1 r0 *1 0.885,3.685 pmos_5p0
M$1 1 3 2 2 pmos_5p0 L=0.5U W=1.64U AS=0.7216P AD=0.4264P PS=4.16U PD=2.16U
* device instance $2 r0 *1 1.905,3.685 pmos_5p0
M$2 2 4 1 2 pmos_5p0 L=0.5U W=1.64U AS=0.4264P AD=0.6486P PS=2.16U PD=2.57U
* device instance $3 r0 *1 3.145,3.78 pmos_5p0
M$3 6 1 2 2 pmos_5p0 L=0.5U W=3.66U AS=1.1244P AD=1.281P PS=4.92U PD=6.89U
* device instance $5 r0 *1 0.935,1.005 nmos_5p0
M$5 7 3 1 5 nmos_5p0 L=0.6U W=1.32U AS=0.5808P AD=0.2112P PS=3.52U PD=1.64U
* device instance $6 r0 *1 1.855,1.005 nmos_5p0
M$6 5 4 7 5 nmos_5p0 L=0.6U W=1.32U AS=0.2112P AD=0.3432P PS=1.64U PD=1.84U
* device instance $7 r0 *1 2.975,1.005 nmos_5p0
M$7 6 1 5 5 nmos_5p0 L=0.6U W=2.64U AS=0.6864P AD=0.924P PS=3.68U PD=5.36U
.ENDS gf180mcu_fd_sc_mcu9t5v0__and2_2

* cell gf180mcu_fd_sc_mcu9t5v0__addh_2
* pin PWELL,VSS,gf180mcu_gnd
* pin CO
* pin S
* pin A
* pin B
* pin NWELL,VDD
.SUBCKT gf180mcu_fd_sc_mcu9t5v0__addh_2 1 2 6 7 8 10
* net 1 PWELL,VSS,gf180mcu_gnd
* net 2 CO
* net 6 S
* net 7 A
* net 8 B
* net 10 NWELL,VDD
* device instance $1 r0 *1 5.99,3.78 pmos_5p0
M$1 11 8 10 10 pmos_5p0 L=0.5U W=1.83U AS=0.8052P AD=0.52155P PS=4.54U PD=2.4U
* device instance $2 r0 *1 7.06,3.78 pmos_5p0
M$2 5 7 11 10 pmos_5p0 L=0.5U W=1.83U AS=0.52155P AD=0.52155P PS=2.4U PD=2.4U
* device instance $3 r0 *1 8.13,3.78 pmos_5p0
M$3 10 3 5 10 pmos_5p0 L=0.5U W=1.83U AS=0.52155P AD=0.8784P PS=2.4U PD=2.79U
* device instance $4 r0 *1 9.59,3.78 pmos_5p0
M$4 6 5 10 10 pmos_5p0 L=0.5U W=3.66U AS=1.39995P AD=1.32675P PS=5.19U PD=6.94U
* device instance $6 r0 *1 0.94,3.78 pmos_5p0
M$6 2 3 10 10 pmos_5p0 L=0.5U W=3.66U AS=1.3725P AD=1.08885P PS=6.99U PD=4.85U
* device instance $8 r0 *1 3.13,3.78 pmos_5p0
M$8 3 7 10 10 pmos_5p0 L=0.5U W=1.83U AS=0.52155P AD=0.4758P PS=2.4U PD=2.35U
* device instance $9 r0 *1 4.15,3.78 pmos_5p0
M$9 10 8 3 10 pmos_5p0 L=0.5U W=1.83U AS=0.4758P AD=0.8052P PS=2.35U PD=4.54U
* device instance $10 r0 *1 5.94,1.005 nmos_5p0
M$10 5 8 4 1 nmos_5p0 L=0.6U W=1.32U AS=0.5808P AD=0.3432P PS=3.52U PD=1.84U
* device instance $11 r0 *1 7.06,1.005 nmos_5p0
M$11 4 7 5 1 nmos_5p0 L=0.6U W=1.32U AS=0.3432P AD=0.3432P PS=1.84U PD=1.84U
* device instance $12 r0 *1 8.18,1.005 nmos_5p0
M$12 1 3 4 1 nmos_5p0 L=0.6U W=1.32U AS=0.3432P AD=0.5016P PS=1.84U PD=2.08U
* device instance $13 r0 *1 9.54,1.005 nmos_5p0
M$13 6 5 1 1 nmos_5p0 L=0.6U W=2.64U AS=0.8448P AD=0.924P PS=3.92U PD=5.36U
* device instance $15 r0 *1 0.94,1.005 nmos_5p0
M$15 2 3 1 1 nmos_5p0 L=0.6U W=2.64U AS=0.924P AD=0.6864P PS=5.36U PD=3.68U
* device instance $17 r0 *1 3.18,1.005 nmos_5p0
M$17 9 7 1 1 nmos_5p0 L=0.6U W=1.32U AS=0.3432P AD=0.2112P PS=1.84U PD=1.64U
* device instance $18 r0 *1 4.1,1.005 nmos_5p0
M$18 3 8 9 1 nmos_5p0 L=0.6U W=1.32U AS=0.2112P AD=0.5808P PS=1.64U PD=3.52U
.ENDS gf180mcu_fd_sc_mcu9t5v0__addh_2

* cell gf180mcu_fd_sc_mcu9t5v0__and2_4
* pin NWELL,VDD
* pin A2
* pin A1
* pin Z
* pin PWELL,VSS,gf180mcu_gnd
.SUBCKT gf180mcu_fd_sc_mcu9t5v0__and2_4 1 2 3 5 6
* net 1 NWELL,VDD
* net 2 A2
* net 3 A1
* net 5 Z
* net 6 PWELL,VSS,gf180mcu_gnd
* device instance $1 r0 *1 0.87,3.875 pmos_5p0
M$1 4 2 1 1 pmos_5p0 L=0.5U W=3.28U AS=1.3336P AD=0.8528P PS=6.69U PD=4.32U
* device instance $2 r0 *1 1.89,3.875 pmos_5p0
M$2 1 3 4 1 pmos_5p0 L=0.5U W=3.28U AS=0.8528P AD=0.8528P PS=4.32U PD=4.32U
* device instance $5 r0 *1 5.13,3.78 pmos_5p0
M$5 5 4 1 1 pmos_5p0 L=0.5U W=7.32U AS=2.0394P AD=2.2326P PS=9.58U PD=11.59U
* device instance $9 r0 *1 0.92,1.005 nmos_5p0
M$9 8 2 6 6 nmos_5p0 L=0.6U W=1.32U AS=0.5808P AD=0.2112P PS=3.52U PD=1.64U
* device instance $10 r0 *1 1.84,1.005 nmos_5p0
M$10 4 3 8 6 nmos_5p0 L=0.6U W=1.32U AS=0.2112P AD=0.3663P PS=1.64U PD=1.875U
* device instance $11 r0 *1 2.995,1.005 nmos_5p0
M$11 7 3 4 6 nmos_5p0 L=0.6U W=1.32U AS=0.3663P AD=0.1881P PS=1.875U PD=1.605U
* device instance $12 r0 *1 3.88,1.005 nmos_5p0
M$12 6 2 7 6 nmos_5p0 L=0.6U W=1.32U AS=0.1881P AD=0.3432P PS=1.605U PD=1.84U
* device instance $13 r0 *1 5,1.005 nmos_5p0
M$13 5 4 6 6 nmos_5p0 L=0.6U W=5.28U AS=1.3728P AD=1.6104P PS=7.36U PD=9.04U
.ENDS gf180mcu_fd_sc_mcu9t5v0__and2_4

* cell gf180mcu_fd_sc_mcu9t5v0__aoi21_2
* pin PWELL,VSS,gf180mcu_gnd
* pin B
* pin NWELL,VDD
* pin ZN
* pin A2
* pin A1
.SUBCKT gf180mcu_fd_sc_mcu9t5v0__aoi21_2 1 3 4 5 6 7
* net 1 PWELL,VSS,gf180mcu_gnd
* net 3 B
* net 4 NWELL,VDD
* net 5 ZN
* net 6 A2
* net 7 A1
* device instance $1 r0 *1 0.935,3.78 pmos_5p0
M$1 4 3 2 4 pmos_5p0 L=0.5U W=3.66U AS=1.3725P AD=1.0431P PS=6.99U PD=4.8U
* device instance $3 r0 *1 3.075,3.78 pmos_5p0
M$3 5 6 2 4 pmos_5p0 L=0.5U W=3.66U AS=0.9516P AD=1.3908P PS=4.7U PD=7.01U
* device instance $4 r0 *1 4.215,3.78 pmos_5p0
M$4 2 7 5 4 pmos_5p0 L=0.5U W=3.66U AS=1.0614P AD=0.9516P PS=4.82U PD=4.7U
* device instance $7 r0 *1 0.985,0.805 nmos_5p0
M$7 5 3 1 1 nmos_5p0 L=0.6U W=1.84U AS=0.644P AD=0.6412P PS=4.16U PD=3.46U
* device instance $9 r0 *1 3.405,1.005 nmos_5p0
M$9 9 6 1 1 nmos_5p0 L=0.6U W=1.32U AS=0.402P AD=0.1584P PS=2.02U PD=1.56U
* device instance $10 r0 *1 4.245,1.005 nmos_5p0
M$10 5 7 9 1 nmos_5p0 L=0.6U W=1.32U AS=0.1584P AD=0.3432P PS=1.56U PD=1.84U
* device instance $11 r0 *1 5.365,1.005 nmos_5p0
M$11 8 7 5 1 nmos_5p0 L=0.6U W=1.32U AS=0.3432P AD=0.1584P PS=1.84U PD=1.56U
* device instance $12 r0 *1 6.205,1.005 nmos_5p0
M$12 1 6 8 1 nmos_5p0 L=0.6U W=1.32U AS=0.1584P AD=0.5808P PS=1.56U PD=3.52U
.ENDS gf180mcu_fd_sc_mcu9t5v0__aoi21_2

* cell gf180mcu_fd_sc_mcu9t5v0__aoi211_2
* pin A2
* pin A1
* pin B
* pin ZN
* pin C
* pin NWELL,VDD
* pin PWELL,VSS,gf180mcu_gnd
.SUBCKT gf180mcu_fd_sc_mcu9t5v0__aoi211_2 1 2 4 5 6 7 8
* net 1 A2
* net 2 A1
* net 4 B
* net 5 ZN
* net 6 C
* net 7 NWELL,VDD
* net 8 PWELL,VSS,gf180mcu_gnd
* device instance $1 r0 *1 0.87,3.78 pmos_5p0
M$1 5 1 3 7 pmos_5p0 L=0.5U W=3.66U AS=1.281P AD=1.3359P PS=6.89U PD=5.12U
* device instance $2 r0 *1 1.89,3.78 pmos_5p0
M$2 3 2 5 7 pmos_5p0 L=0.5U W=3.66U AS=0.9516P AD=0.9516P PS=4.7U PD=4.7U
* device instance $5 r0 *1 5.37,3.78 pmos_5p0
M$5 12 4 3 7 pmos_5p0 L=0.5U W=1.83U AS=0.8601P AD=0.2196P PS=2.77U PD=2.07U
* device instance $6 r0 *1 6.11,3.78 pmos_5p0
M$6 7 6 12 7 pmos_5p0 L=0.5U W=1.83U AS=0.2196P AD=0.549P PS=2.07U PD=2.43U
* device instance $7 r0 *1 7.21,3.78 pmos_5p0
M$7 11 6 7 7 pmos_5p0 L=0.5U W=1.83U AS=0.549P AD=0.4392P PS=2.43U PD=2.31U
* device instance $8 r0 *1 8.19,3.78 pmos_5p0
M$8 3 4 11 7 pmos_5p0 L=0.5U W=1.83U AS=0.4392P AD=0.8052P PS=2.31U PD=4.54U
* device instance $9 r0 *1 5.02,0.745 nmos_5p0
M$9 5 4 8 8 nmos_5p0 L=0.6U W=1.58U AS=0.5609P AD=0.553P PS=3.195U PD=3.77U
* device instance $10 r0 *1 6.14,0.745 nmos_5p0
M$10 8 6 5 8 nmos_5p0 L=0.6U W=1.58U AS=0.4108P AD=0.4108P PS=2.62U PD=2.62U
* device instance $13 r0 *1 0.92,0.942 nmos_5p0
M$13 10 1 8 8 nmos_5p0 L=0.6U W=1.185U AS=0.5214P AD=0.1422P PS=3.25U PD=1.425U
* device instance $14 r0 *1 1.76,0.942 nmos_5p0
M$14 5 2 10 8 nmos_5p0 L=0.6U W=1.185U AS=0.1422P AD=0.3081P PS=1.425U PD=1.705U
* device instance $15 r0 *1 2.88,0.942 nmos_5p0
M$15 9 2 5 8 nmos_5p0 L=0.6U W=1.185U AS=0.3081P AD=0.1422P PS=1.705U PD=1.425U
* device instance $16 r0 *1 3.72,0.942 nmos_5p0
M$16 8 1 9 8 nmos_5p0 L=0.6U W=1.185U AS=0.1422P AD=0.3555P PS=1.425U PD=1.885U
.ENDS gf180mcu_fd_sc_mcu9t5v0__aoi211_2

* cell gf180mcu_fd_sc_mcu9t5v0__and3_2
* pin A1
* pin NWELL,VDD
* pin A2
* pin A3
* pin PWELL,VSS,gf180mcu_gnd
* pin Z
.SUBCKT gf180mcu_fd_sc_mcu9t5v0__and3_2 2 3 4 5 6 7
* net 2 A1
* net 3 NWELL,VDD
* net 4 A2
* net 5 A3
* net 6 PWELL,VSS,gf180mcu_gnd
* net 7 Z
* device instance $1 r0 *1 0.925,3.965 pmos_5p0
M$1 3 2 1 3 pmos_5p0 L=0.5U W=1.46U AS=0.6424P AD=0.3796P PS=3.8U PD=1.98U
* device instance $2 r0 *1 1.945,3.965 pmos_5p0
M$2 1 4 3 3 pmos_5p0 L=0.5U W=1.46U AS=0.3796P AD=0.3796P PS=1.98U PD=1.98U
* device instance $3 r0 *1 2.965,3.965 pmos_5p0
M$3 1 5 3 3 pmos_5p0 L=0.5U W=1.46U AS=0.585P AD=0.3796P PS=2.53U PD=1.98U
* device instance $4 r0 *1 4.165,3.78 pmos_5p0