
* cell hamming_code
* pin corrected_code[5]
* pin data_out[2]
* pin data_in[0]
* pin data_in[1]
* pin data_in[2]
* pin encoded_out[2]
* pin data_in[3]
* pin encoded_out[5]
* pin encoded_out[6]
* pin encoded_out[4]
* pin encoded_out[1]
* pin encoded_out[0]
* pin encoded_out[3]
* pin data_out[1]
* pin corrected_code[4]
* pin corrected_code[3]
* pin received_in[5]
* pin corrected_code[6]
* pin data_out[3]
* pin received_in[3]
* pin received_in[6]
* pin corrected_code[1]
* pin received_in[1]
* pin received_in[2]
* pin data_out[0]
* pin received_in[4]
* pin corrected_code[0]
* pin received_in[0]
* pin corrected_code[2]
* pin single_bit_error
.SUBCKT hamming_code 1 2 3 4 5 6 7 8 9 10 11 12 13 54 64 66 76 87 94 98 106 125
+ 128 131 137 138 139 140 141 143
* net 1 corrected_code[5]
* net 2 data_out[2]
* net 3 data_in[0]
* net 4 data_in[1]
* net 5 data_in[2]
* net 6 encoded_out[2]
* net 7 data_in[3]
* net 8 encoded_out[5]
* net 9 encoded_out[6]
* net 10 encoded_out[4]
* net 11 encoded_out[1]
* net 12 encoded_out[0]
* net 13 encoded_out[3]
* net 54 data_out[1]
* net 64 corrected_code[4]
* net 66 corrected_code[3]
* net 76 received_in[5]
* net 87 corrected_code[6]
* net 94 data_out[3]
* net 98 received_in[3]
* net 106 received_in[6]
* net 125 corrected_code[1]
* net 128 received_in[1]
* net 131 received_in[2]
* net 137 data_out[0]
* net 138 received_in[4]
* net 139 corrected_code[0]
* net 140 received_in[0]
* net 141 corrected_code[2]
* net 143 single_bit_error
* cell instance $3 r0 *1 25.76,2.72
X$3 28 26 1 14 28 14 sky130_fd_sc_hd__clkbuf_1
* cell instance $6 r0 *1 27.14,2.72
X$6 28 15 2 14 28 14 sky130_fd_sc_hd__clkbuf_1
* cell instance $9 m0 *1 41.86,8.16
X$9 28 3 29 14 28 14 sky130_fd_sc_hd__clkbuf_1
* cell instance $12 r0 *1 41.4,2.72
X$12 28 4 19 14 28 14 sky130_fd_sc_hd__clkbuf_1
* cell instance $14 r0 *1 43.24,2.72
X$14 28 5 22 14 28 14 sky130_fd_sc_hd__clkbuf_1
* cell instance $18 r0 *1 51.52,2.72
X$18 28 20 6 14 28 14 sky130_fd_sc_hd__clkbuf_1
* cell instance $21 r0 *1 47.38,2.72
X$21 28 7 17 14 28 14 sky130_fd_sc_hd__clkbuf_1
* cell instance $24 r0 *1 44.62,2.72
X$24 28 16 8 14 28 14 sky130_fd_sc_hd__clkbuf_1
* cell instance $27 r0 *1 48.76,2.72
X$27 28 18 9 14 28 14 sky130_fd_sc_hd__clkbuf_1
* cell instance $30 r0 *1 54.74,2.72
X$30 28 21 10 14 28 14 sky130_fd_sc_hd__clkbuf_1
* cell instance $33 m0 *1 48.76,8.16
X$33 28 33 11 14 28 14 sky130_fd_sc_hd__clkbuf_1
* cell instance $36 m0 *1 53.36,8.16
X$36 28 25 12 14 28 14 sky130_fd_sc_hd__clkbuf_1
* cell instance $39 r0 *1 57.04,2.72
X$39 28 27 13 14 28 14 sky130_fd_sc_hd__clkbuf_1
* cell instance $55 r0 *1 24.38,2.72
X$55 28 26 15 14 28 14 sky130_fd_sc_hd__clkbuf_1
* cell instance $64 r0 *1 46,2.72
X$64 28 22 16 14 28 14 sky130_fd_sc_hd__clkbuf_1
* cell instance $65 r0 *1 50.14,2.72
X$65 28 17 18 14 28 14 sky130_fd_sc_hd__clkbuf_1
* cell instance $66 r0 *1 52.9,2.72
X$66 28 29 20 14 28 14 sky130_fd_sc_hd__clkbuf_1
* cell instance $70 r0 *1 58.42,2.72
X$70 28 19 21 14 28 14 sky130_fd_sc_hd__clkbuf_1
* cell instance $95 m0 *1 45.54,8.16
X$95 28 19 17 23 28 14 14 sky130_fd_sc_hd__xnor2_1
* cell instance $96 m0 *1 50.14,8.16
X$96 28 23 22 24 28 14 14 sky130_fd_sc_hd__xnor2_1
* cell instance $97 m0 *1 54.74,8.16
X$97 28 32 25 14 28 14 sky130_fd_sc_hd__clkbuf_1
* cell instance $101 m0 *1 57.5,8.16
X$101 28 24 27 14 28 14 sky130_fd_sc_hd__clkbuf_1
* cell instance $128 r0 *1 43.24,8.16
X$128 28 22 29 30 28 14 14 sky130_fd_sc_hd__xnor2_1
* cell instance $129 r0 *1 46.46,8.16
X$129 28 30 17 31 28 14 14 sky130_fd_sc_hd__xnor2_1
* cell instance $130 r0 *1 49.68,8.16
X$130 28 31 33 14 28 14 sky130_fd_sc_hd__clkbuf_1
* cell instance $131 r0 *1 51.06,8.16
X$131 28 23 29 32 28 14 14 sky130_fd_sc_hd__xnor2_1
* cell instance $276 m0 *1 11.04,29.92
X$276 28 55 45 56 28 14 14 sky130_fd_sc_hd__nand2_1
* cell instance $279 m0 *1 13.34,29.92
X$279 28 44 35 38 28 45 14 14 sky130_fd_sc_hd__o21ai_0
* cell instance $286 m0 *1 15.64,29.92
X$286 28 46 37 47 28 81 14 14 sky130_fd_sc_hd__o21ai_0
* cell instance $289 m0 *1 19.32,29.92
X$289 14 36 47 43 41 58 34 28 28 14 sky130_fd_sc_hd__o311ai_1
* cell instance $292 r0 *1 21.62,24.48
X$292 28 39 28 14 34 14 sky130_fd_sc_hd__inv_1
* cell instance $293 m0 *1 22.54,29.92
X$293 28 48 41 43 28 60 14 14 sky130_fd_sc_hd__o21a_1
* cell instance $295 r0 *1 23.46,24.48
X$295 14 42 26 34 36 40 28 28 14 sky130_fd_sc_hd__o22ai_2
* cell instance $296 m0 *1 25.3,29.92
X$296 28 43 37 59 28 40 14 14 sky130_fd_sc_hd__o21ai_0
* cell instance $297 m0 *1 27.14,29.92
X$297 28 38 35 47 28 52 14 14 sky130_fd_sc_hd__o21ai_0
* cell instance $300 m0 *1 29.44,29.92
X$300 28 46 44 37 57 28 14 14 sky130_fd_sc_hd__nand3_1
* cell instance $335 r0 *1 10.12,29.92
X$335 28 51 56 35 46 39 80 28 14 14 sky130_fd_sc_hd__o221ai_1
* cell instance $336 r0 *1 13.34,29.92
X$336 28 44 37 46 28 49 14 14 sky130_fd_sc_hd__o21ai_0
* cell instance $340 r0 *1 15.64,29.92
X$340 28 65 50 55 28 14 14 sky130_fd_sc_hd__nand2_1
* cell instance $341 r0 *1 17.02,29.92
X$341 28 51 28 14 47 14 sky130_fd_sc_hd__inv_1
* cell instance $342 r0 *1 18.4,29.92
X$342 28 50 51 46 35 28 58 14 14 sky130_fd_sc_hd__nand4_1
* cell instance $344 r0 *1 21.16,29.92
X$344 28 75 60 35 43 51 42 28 14 14 sky130_fd_sc_hd__o221ai_1
* cell instance $345 r0 *1 24.38,29.92
X$345 28 62 61 47 28 59 14 14 sky130_fd_sc_hd__o21ai_0
* cell instance $347 r0 *1 27.14,29.92
X$347 28 38 50 37 48 28 14 14 sky130_fd_sc_hd__nand3_1
* cell instance $348 r0 *1 28.98,29.92
X$348 28 52 48 43 14 28 71 14 sky130_fd_sc_hd__a21o_1
* cell instance $349 r0 *1 31.74,29.92
X$349 28 65 52 57 14 28 73 14 sky130_fd_sc_hd__a21oi_1
* cell instance $363 r0 *1 64.4,29.92
X$363 28 63 53 14 28 14 sky130_fd_sc_hd__clkbuf_1
* cell instance $364 r0 *1 65.78,29.92
X$364 28 53 54 14 28 14 sky130_fd_sc_hd__clkbuf_1
* cell instance $365 r0 *1 67.16,29.92
X$365 28 63 64 14 28 14 sky130_fd_sc_hd__clkbuf_1
* cell instance $371 m0 *1 4.6,35.36
X$371 28 76 28 14 83 14 sky130_fd_sc_hd__clkbuf_2
* cell instance $374 m0 *1 7.82,35.36
X$374 28 67 66 14 28 14 sky130_fd_sc_hd__clkbuf_1
* cell instance $377 m0 *1 11.5,35.36
X$377 28 79 80 68 28 67 14 14 sky130_fd_sc_hd__o21ai_0
* cell instance $378 m0 *1 13.34,35.36
X$378 28 39 74 77 28 68 14 14 sky130_fd_sc_hd__o21ai_0
* cell instance $379 m0 *1 15.18,35.36
X$379 28 55 49 39 81 14 28 77 14 sky130_fd_sc_hd__a31oi_1
* cell instance $380 m0 *1 17.48,35.36
X$380 28 41 65 85 14 28 74 14 sky130_fd_sc_hd__a21oi_1
* cell instance $382 m0 *1 19.78,35.36
X$382 28 61 69 51 28 75 14 14 sky130_fd_sc_hd__o21ai_0
* cell instance $384 m0 *1 22.54,35.36
X$384 28 38 50 35 69 14 28 14 sky130_fd_sc_hd__nor3_1
* cell instance $387 m0 *1 26.68,35.36
X$387 28 46 44 37 70 14 28 14 sky130_fd_sc_hd__nor3_1
* cell instance $390 m0 *1 29.44,35.36
X$390 28 82 70 43 28 78 14 14 sky130_fd_sc_hd__o21ai_0
* cell instance $392 m0 *1 31.74,35.36
X$392 28 39 71 78 44 51 28 72 14 14 sky130_fd_sc_hd__o2111ai_1
* cell instance $393 m0 *1 34.96,35.36
X$393 14 39 89 73 63 72 28 28 14 sky130_fd_sc_hd__o31ai_2
* cell instance $409 r0 *1 11.04,35.36
X$409 28 39 88 41 28 79 14 14 sky130_fd_sc_hd__o21a_1
* cell instance $417 r0 *1 16.1,35.36
X$417 28 83 28 14 65 14 sky130_fd_sc_hd__inv_1
* cell instance $418 r0 *1 17.48,35.36
X$418 28 50 37 46 28 85 14 14 sky130_fd_sc_hd__o21ai_0
* cell instance $420 r0 *1 19.78,35.36
X$420 28 83 38 44 14 28 61 14 sky130_fd_sc_hd__a21oi_1
* cell instance $424 r0 *1 26.68,35.36
X$424 28 82 62 84 14 28 14 sky130_fd_sc_hd__nor2_1
* cell instance $425 r0 *1 28.06,35.36
X$425 28 51 38 35 14 28 82 14 sky130_fd_sc_hd__a21oi_1
* cell instance $426 r0 *1 29.9,35.36
X$426 28 50 37 91 28 14 14 sky130_fd_sc_hd__nand2_1
* cell instance $428 r0 *1 32.2,35.36
X$428 28 84 43 50 51 89 14 28 14 sky130_fd_sc_hd__o22ai_1
* cell instance $450 m0 *1 11.96,40.8
X$450 28 95 14 38 28 14 sky130_fd_sc_hd__buf_2
* cell instance $451 m0 *1 13.8,40.8
X$451 28 95 14 46 28 14 sky130_fd_sc_hd__buf_2
* cell instance $453 m0 *1 16.1,40.8
X$453 28 43 46 92 14 28 88 14 sky130_fd_sc_hd__a21oi_1
* cell instance $454 m0 *1 17.94,40.8
X$454 28 83 14 43 28 14 sky130_fd_sc_hd__buf_2
* cell instance $455 m0 *1 19.78,40.8
X$455 28 93 37 92 28 14 14 sky130_fd_sc_hd__nand2_1
* cell instance $458 m0 *1 22.54,40.8
X$458 28 38 93 41 14 28 14 sky130_fd_sc_hd__nor2_1
* cell instance $459 m0 *1 23.92,40.8
X$459 28 38 90 37 62 14 28 14 sky130_fd_sc_hd__nor3_1
* cell instance $460 m0 *1 25.76,40.8
X$460 28 50 65 38 14 28 105 14 sky130_fd_sc_hd__a21oi_1
* cell instance $461 m0 *1 27.6,40.8
X$461 28 65 38 104 28 14 14 sky130_fd_sc_hd__nand2_1
* cell instance $463 m0 *1 29.44,40.8
X$463 28 91 39 65 46 14 97 28 14 sky130_fd_sc_hd__a211oi_1
* cell instance $464 m0 *1 32.2,40.8
X$464 28 35 43 103 28 14 14 sky130_fd_sc_hd__xnor2_1
* cell instance $475 m0 *1 64.4,40.8
X$475 28 96 86 14 28 14 sky130_fd_sc_hd__clkbuf_1
* cell instance $476 m0 *1 65.78,40.8
X$476 28 96 87 14 28 14 sky130_fd_sc_hd__clkbuf_1
* cell instance $477 m0 *1 67.16,40.8
X$477 28 86 94 14 28 14 sky130_fd_sc_hd__clkbuf_1
* cell instance $480 r0 *1 5.98,40.8
X$480 28 98 95 14 28 14 sky130_fd_sc_hd__clkbuf_1
* cell instance $483 r0 *1 10.12,40.8
X$483 28 99 14 39 28 14 sky130_fd_sc_hd__buf_2
* cell instance $484 r0 *1 11.96,40.8
X$484 28 95 83 28 107 14 14 sky130_fd_sc_hd__xor2_1
* cell instance $489 r0 *1 15.64,40.8
X$489 28 99 92 100 28 14 14 sky130_fd_sc_hd__nand2_1
* cell instance $490 r0 *1 17.02,40.8
X$490 28 100 46 110 43 117 28 101 14 14 sky130_fd_sc_hd__a311oi_1
* cell instance $493 r0 *1 25.76,40.8
X$493 28 105 39 111 104 109 14 28 14 sky130_fd_sc_hd__o22ai_1
* cell instance $494 r0 *1 28.06,40.8
X$494 28 50 35 111 28 14 14 sky130_fd_sc_hd__nand2_1
* cell instance $496 r0 *1 29.9,40.8
X$496 28 109 97 51 28 102 14 14 sky130_fd_sc_hd__o21ai_0
* cell instance $498 r0 *1 32.66,40.8
X$498 14 96 102 101 51 103 39 28 28 14 sky130_fd_sc_hd__o221a_1
* cell instance $516 m0 *1 1.84,46.24
X$516 28 106 28 14 99 14 sky130_fd_sc_hd__clkbuf_2
* cell instance $518 m0 *1 4.14,46.24
X$518 14 115 83 99 28 28 14 sky130_fd_sc_hd__xnor2_2
* cell instance $521 m0 *1 14.72,46.24
X$521 28 83 95 112 14 28 14 sky130_fd_sc_hd__nor2_1
* cell instance $522 m0 *1 16.1,46.24
X$522 28 44 112 113 14 28 14 sky130_fd_sc_hd__nor2_1
* cell instance $524 m0 *1 17.94,46.24
X$524 28 99 113 110 14 28 14 sky130_fd_sc_hd__nor2_1
* cell instance $525 m0 *1 19.32,46.24
X$525 28 108 107 121 14 28 14 sky130_fd_sc_hd__or2_0
* cell instance $526 m0 *1 21.62,46.24
X$526 28 107 108 44 124 28 14 14 sky130_fd_sc_hd__nand3_1
* cell instance $527 m0 *1 23.46,46.24
X$527 28 107 108 90 118 28 14 14 sky130_fd_sc_hd__nand3_1
* cell instance $530 m0 *1 26.68,46.24
X$530 28 114 14 51 28 14 sky130_fd_sc_hd__buf_2
* cell instance $549 r0 *1 6.9,46.24
X$549 28 115 116 122 28 14 14 sky130_fd_sc_hd__xnor2_1
* cell instance $551 r0 *1 11.04,46.24
X$551 28 123 116 120 28 14 14 sky130_fd_sc_hd__xnor2_1
* cell instance $555 r0 *1 15.64,46.24
X$555 14 120 117 44 112 28 28 14 sky130_fd_sc_hd__and3_1
* cell instance $556 r0 *1 17.94,46.24
X$556 28 99 114 28 108 14 14 sky130_fd_sc_hd__xor2_1
* cell instance $557 r0 *1 21.16,46.24
X$557 28 44 124 121 28 14 130 14 sky130_fd_sc_hd__o21ai_1
* cell instance $559 r0 *1 23.92,46.24
X$559 28 90 28 14 50 14 sky130_fd_sc_hd__buf_4
* cell instance $561 r0 *1 27.6,46.24
X$561 14 93 44 28 28 14 sky130_fd_sc_hd__buf_6
* cell instance $577 m0 *1 2.3,51.68
X$577 14 126 122 123 119 28 28 14 sky130_fd_sc_hd__mux2_1
* cell instance $578 m0 *1 6.44,51.68
X$578 14 116 123 37 28 28 14 sky130_fd_sc_hd__xor2_4
* cell instance $581 m0 *1 16.56,51.68
X$581 28 120 14 35 28 14 sky130_fd_sc_hd__buf_2
* cell instance $584 m0 *1 20.7,51.68
X$584 28 50 118 121 28 14 119 14 sky130_fd_sc_hd__o21ai_1
* cell instance $585 m0 *1 22.54,51.68
X$585 28 127 116 28 90 14 14 sky130_fd_sc_hd__xor2_1
* cell instance $606 r0 *1 1.38,51.68
X$606 28 126 125 14 28 14 sky130_fd_sc_hd__clkbuf_1
* cell instance $607 r0 *1 2.76,51.68
X$607 28 128 14 123 28 14 sky130_fd_sc_hd__buf_2
* cell instance $609 r0 *1 5.52,51.68
X$609 28 131 28 14 116 14 sky130_fd_sc_hd__buf_4
* cell instance $611 r0 *1 8.74,51.68
X$611 28 115 123 129 28 14 14 sky130_fd_sc_hd__xnor2_1
* cell instance $612 r0 *1 11.96,51.68
X$612 28 115 35 132 28 14 14 sky130_fd_sc_hd__xnor2_1
* cell instance $617 r0 *1 17.02,51.68
X$617 14 133 129 116 130 28 28 14 sky130_fd_sc_hd__mux2_1
* cell instance $618 r0 *1 21.16,51.68
X$618 28 132 119 134 28 14 14 sky130_fd_sc_hd__nand2_1
* cell instance $619 r0 *1 22.54,51.68
X$619 14 93 127 116 28 28 14 sky130_fd_sc_hd__xnor2_2
* cell instance $646 m0 *1 22.08,57.12
X$646 28 130 132 135 28 14 14 sky130_fd_sc_hd__nand2_1
* cell instance $684 m0 *1 22.54,62.56
X$684 28 135 127 136 28 14 14 sky130_fd_sc_hd__xnor2_1
* cell instance $741 m0 *1 19.32,68
X$741 28 142 137 14 28 14 sky130_fd_sc_hd__clkbuf_1
* cell instance $743 m0 *1 20.7,68
X$743 28 133 141 14 28 14 sky130_fd_sc_hd__clkbuf_1
* cell instance $744 r0 *1 20.7,62.56
X$744 28 133 142 14 28 14 sky130_fd_sc_hd__clkbuf_1
* cell instance $746 m0 *1 22.08,68
X$746 28 134 143 14 28 14 sky130_fd_sc_hd__clkbuf_1
* cell instance $748 m0 *1 23.92,68
X$748 28 140 28 14 127 14 sky130_fd_sc_hd__clkbuf_2
* cell instance $751 m0 *1 26.22,68
X$751 28 136 139 14 28 14 sky130_fd_sc_hd__clkbuf_1
* cell instance $752 m0 *1 27.6,68
X$752 28 138 114 14 28 14 sky130_fd_sc_hd__clkbuf_1
.ENDS hamming_code

* cell sky130_fd_sc_hd__o22ai_2
* pin VGND
* pin B1
* pin Y
* pin B2
* pin A2
* pin A1
* pin VPWR
* pin VPB
* pin 
.SUBCKT sky130_fd_sc_hd__o22ai_2 1 3 4 5 6 7 9 11 12
* net 1 VGND
* net 3 B1
* net 4 Y
* net 5 B2
* net 6 A2
* net 7 A1
* net 9 VPWR
* net 11 VPB
* device instance $1 r0 *1 2.73,1.985 pfet_01v8_hvt
M$1 4 6 10 11 pfet_01v8_hvt L=150000U W=2000000U AS=415000000000P
+ AD=270000000000P PS=3830000U PD=2540000U
* device instance $3 r0 *1 3.57,1.985 pfet_01v8_hvt
M$3 9 7 10 11 pfet_01v8_hvt L=150000U W=2000000U AS=270000000000P
+ AD=415000000000P PS=2540000U PD=3830000U
* device instance $5 r0 *1 0.49,1.985 pfet_01v8_hvt
M$5 9 3 8 11 pfet_01v8_hvt L=150000U W=2000000U AS=415000000000P
+ AD=270000000000P PS=3830000U PD=2540000U
* device instance $7 r0 *1 1.33,1.985 pfet_01v8_hvt
M$7 4 5 8 11 pfet_01v8_hvt L=150000U W=2000000U AS=270000000000P
+ AD=415000000000P PS=2540000U PD=3830000U
* device instance $9 r0 *1 0.49,0.56 nfet_01v8
M$9 4 3 2 12 nfet_01v8 L=150000U W=1300000U AS=269750000000P AD=175500000000P
+ PS=2780000U PD=1840000U
* device instance $11 r0 *1 1.33,0.56 nfet_01v8
M$11 4 5 2 12 nfet_01v8 L=150000U W=1300000U AS=175500000000P AD=357500000000P
+ PS=1840000U PD=2400000U
* device instance $13 r0 *1 2.73,0.56 nfet_01v8
M$13 1 6 2 12 nfet_01v8 L=150000U W=1300000U AS=357500000000P AD=175500000000P
+ PS=2400000U PD=1840000U
* device instance $15 r0 *1 3.57,0.56 nfet_01v8
M$15 1 7 2 12 nfet_01v8 L=150000U W=1300000U AS=175500000000P AD=256750000000P
+ PS=1840000U PD=2740000U
.ENDS sky130_fd_sc_hd__o22ai_2

* cell sky130_fd_sc_hd__o311ai_1
* pin VGND
* pin Y
* pin A1
* pin A2
* pin A3
* pin B1
* pin C1
* pin VPWR
* pin VPB
* pin 
.SUBCKT sky130_fd_sc_hd__o311ai_1 1 3 4 5 6 7 8 10 11 14
* net 1 VGND
* net 3 Y
* net 4 A1
* net 5 A2
* net 6 A3
* net 7 B1
* net 8 C1
* net 10 VPWR
* net 11 VPB
* device instance $1 r0 *1 0.615,1.985 pfet_01v8_hvt
M$1 12 4 10 11 pfet_01v8_hvt L=150000U W=1000000U AS=280000000000P
+ AD=135000000000P PS=2560000U PD=1270000U
* device instance $2 r0 *1 1.035,1.985 pfet_01v8_hvt
M$2 13 5 12 11 pfet_01v8_hvt L=150000U W=1000000U AS=135000000000P
+ AD=135000000000P PS=1270000U PD=1270000U
* device instance $3 r0 *1 1.455,1.985 pfet_01v8_hvt
M$3 3 6 13 11 pfet_01v8_hvt L=150000U W=1000000U AS=135000000000P
+ AD=225000000000P PS=1270000U PD=1450000U
* device instance $4 r0 *1 2.055,1.985 pfet_01v8_hvt
M$4 10 7 3 11 pfet_01v8_hvt L=150000U W=1000000U AS=225000000000P
+ AD=185000000000P PS=1450000U PD=1370000U
* device instance $5 r0 *1 2.575,1.985 pfet_01v8_hvt
M$5 3 8 10 11 pfet_01v8_hvt L=150000U W=1000000U AS=185000000000P
+ AD=310000000000P PS=1370000U PD=2620000U
* device instance $6 r0 *1 0.615,0.56 nfet_01v8
M$6 2 4 1 14 nfet_01v8 L=150000U W=650000U AS=182000000000P AD=87750000000P
+ PS=1860000U PD=920000U
* device instance $7 r0 *1 1.035,0.56 nfet_01v8
M$7 1 5 2 14 nfet_01v8 L=150000U W=650000U AS=87750000000P AD=87750000000P
+ PS=920000U PD=920000U
* device instance $8 r0 *1 1.455,0.56 nfet_01v8
M$8 2 6 1 14 nfet_01v8 L=150000U W=650000U AS=87750000000P AD=198250000000P
+ PS=920000U PD=1260000U
* device instance $9 r0 *1 2.215,0.56 nfet_01v8
M$9 9 7 2 14 nfet_01v8 L=150000U W=650000U AS=198250000000P AD=68250000000P
+ PS=1260000U PD=860000U
* device instance $10 r0 *1 2.575,0.56 nfet_01v8
M$10 3 8 9 14 nfet_01v8 L=150000U W=650000U AS=68250000000P AD=182000000000P
+ PS=860000U PD=1860000U
.ENDS sky130_fd_sc_hd__o311ai_1

* cell sky130_fd_sc_hd__nand4_1
* pin VPB
* pin C
* pin A
* pin B
* pin D
* pin VPWR
* pin Y
* pin VGND
* pin 
.SUBCKT sky130_fd_sc_hd__nand4_1 1 2 3 4 5 6 7 8 9
* net 1 VPB
* net 2 C
* net 3 A
* net 4 B
* net 5 D
* net 6 VPWR
* net 7 Y
* net 8 VGND
* device instance $1 r0 *1 0.47,1.985 pfet_01v8_hvt
M$1 7 5 6 1 pfet_01v8_hvt L=150000U W=1000000U AS=260000000000P
+ AD=135000000000P PS=2520000U PD=1270000U
* device instance $2 r0 *1 0.89,1.985 pfet_01v8_hvt
M$2 6 2 7 1 pfet_01v8_hvt L=150000U W=1000000U AS=135000000000P
+ AD=135000000000P PS=1270000U PD=1270000U
* device instance $3 r0 *1 1.31,1.985 pfet_01v8_hvt
M$3 7 4 6 1 pfet_01v8_hvt L=150000U W=1000000U AS=135000000000P
+ AD=165000000000P PS=1270000U PD=1330000U
* device instance $4 r0 *1 1.79,1.985 pfet_01v8_hvt
M$4 6 3 7 1 pfet_01v8_hvt L=150000U W=1000000U AS=165000000000P
+ AD=300000000000P PS=1330000U PD=2600000U
* device instance $5 r0 *1 0.47,0.56 nfet_01v8
M$5 12 5 8 9 nfet_01v8 L=150000U W=650000U AS=169000000000P AD=87750000000P
+ PS=1820000U PD=920000U
* device instance $6 r0 *1 0.89,0.56 nfet_01v8
M$6 11 2 12 9 nfet_01v8 L=150000U W=650000U AS=87750000000P AD=87750000000P
+ PS=920000U PD=920000U
* device instance $7 r0 *1 1.31,0.56 nfet_01v8
M$7 10 4 11 9 nfet_01v8 L=150000U W=650000U AS=87750000000P AD=107250000000P
+ PS=920000U PD=980000U
* device instance $8 r0 *1 1.79,0.56 nfet_01v8
M$8 7 3 10 9 nfet_01v8 L=150000U W=650000U AS=107250000000P AD=195000000000P
+ PS=980000U PD=1900000U
.ENDS sky130_fd_sc_hd__nand4_1

* cell sky130_fd_sc_hd__a21o_1
* pin VPB
* pin A1
* pin A2
* pin B1
* pin VGND
* pin VPWR
* pin X
* pin 
.SUBCKT sky130_fd_sc_hd__a21o_1 1 2 3 4 5 7 9 10
* net 1 VPB
* net 2 A1
* net 3 A2
* net 4 B1
* net 5 VGND
* net 7 VPWR
* net 9 X
* device instance $1 r0 *1 1.42,1.985 pfet_01v8_hvt
M$1 6 4 8 1 pfet_01v8_hvt L=150000U W=1000000U AS=260000000000P
+ AD=137500000000P PS=2520000U PD=1275000U
* device instance $2 r0 *1 1.845,1.985 pfet_01v8_hvt
M$2 7 2 6 1 pfet_01v8_hvt L=150000U W=1000000U AS=137500000000P
+ AD=140000000000P PS=1275000U PD=1280000U
* device instance $3 r0 *1 2.275,1.985 pfet_01v8_hvt
M$3 6 3 7 1 pfet_01v8_hvt L=150000U W=1000000U AS=140000000000P
+ AD=265000000000P PS=1280000U PD=2530000U
* device instance $4 r0 *1 0.48,1.985 pfet_01v8_hvt
M$4 7 8 9 1 pfet_01v8_hvt L=150000U W=1000000U AS=260000000000P
+ AD=260000000000P PS=2520000U PD=2520000U
* device instance $5 r0 *1 0.48,0.56 nfet_01v8
M$5 5 8 9 10 nfet_01v8 L=150000U W=650000U AS=169000000000P AD=256750000000P
+ PS=1820000U PD=1440000U
* device instance $6 r0 *1 1.42,0.56 nfet_01v8
M$6 8 4 5 10 nfet_01v8 L=150000U W=650000U AS=256750000000P AD=89375000000P
+ PS=1440000U PD=925000U
* device instance $7 r0 *1 1.845,0.56 nfet_01v8
M$7 11 2 8 10 nfet_01v8 L=150000U W=650000U AS=89375000000P AD=91000000000P
+ PS=925000U PD=930000U
* device instance $8 r0 *1 2.275,0.56 nfet_01v8
M$8 5 3 11 10 nfet_01v8 L=150000U W=650000U AS=91000000000P AD=172250000000P
+ PS=930000U PD=1830000U
.ENDS sky130_fd_sc_hd__a21o_1

* cell sky130_fd_sc_hd__o221ai_1
* pin VPB
* pin C1
* pin B1
* pin A2
* pin A1
* pin B2
* pin Y
* pin VPWR
* pin VGND
* pin 
.SUBCKT sky130_fd_sc_hd__o221ai_1 1 2 3 4 5 6 8 10 11 12
* net 1 VPB
* net 2 C1
* net 3 B1
* net 4 A2
* net 5 A1
* net 6 B2
* net 8 Y
* net 10 VPWR
* net 11 VGND
* device instance $1 r0 *1 0.49,1.985 pfet_01v8_hvt
M$1 10 2 8 1 pfet_01v8_hvt L=150000U W=1000000U AS=280000000000P
+ AD=380000000000P PS=2560000U PD=1760000U
* device instance $2 r0 *1 1.4,1.985 pfet_01v8_hvt
M$2 14 3 10 1 pfet_01v8_hvt L=150000U W=1000000U AS=380000000000P
+ AD=120000000000P PS=1760000U PD=1240000U
* device instance $3 r0 *1 1.79,1.985 pfet_01v8_hvt
M$3 8 6 14 1 pfet_01v8_hvt L=150000U W=1000000U AS=120000000000P
+ AD=225000000000P PS=1240000U PD=1450000U
* device instance $4 r0 *1 2.39,1.985 pfet_01v8_hvt
M$4 13 4 8 1 pfet_01v8_hvt L=150000U W=1000000U AS=225000000000P
+ AD=105000000000P PS=1450000U PD=1210000U
* device instance $5 r0 *1 2.75,1.985 pfet_01v8_hvt
M$5 10 5 13 1 pfet_01v8_hvt L=150000U W=1000000U AS=105000000000P
+ AD=260000000000P PS=1210000U PD=2520000U
* device instance $6 r0 *1 1.4,0.56 nfet_01v8
M$6 9 3 7 12 nfet_01v8 L=150000U W=650000U AS=165200000000P AD=87750000000P
+ PS=1820000U PD=920000U
* device instance $7 r0 *1 1.82,0.56 nfet_01v8
M$7 7 6 9 12 nfet_01v8 L=150000U W=650000U AS=87750000000P AD=117000000000P
+ PS=920000U PD=1010000U
* device instance $8 r0 *1 2.33,0.56 nfet_01v8
M$8 11 4 7 12 nfet_01v8 L=150000U W=650000U AS=117000000000P AD=87750000000P
+ PS=1010000U PD=920000U
* device instance $9 r0 *1 2.75,0.56 nfet_01v8
M$9 7 5 11 12 nfet_01v8 L=150000U W=650000U AS=87750000000P AD=169000000000P
+ PS=920000U PD=1820000U
* device instance $10 r0 *1 0.47,0.56 nfet_01v8
M$10 9 2 8 12 nfet_01v8 L=150000U W=650000U AS=169000000000P AD=165400000000P
+ PS=1820000U PD=1820000U
.ENDS sky130_fd_sc_hd__o221ai_1

* cell sky130_fd_sc_hd__or2_0
* pin VPB
* pin B
* pin A
* pin X
* pin VGND
* pin VPWR
* pin 
.SUBCKT sky130_fd_sc_hd__or2_0 1 2 3 4 6 7 8
* net 1 VPB
* net 2 B
* net 3 A
* net 4 X
* net 6 VGND
* net 7 VPWR
* device instance $1 r0 *1 0.675,1.985 pfet_01v8_hvt
M$1 9 2 5 1 pfet_01v8_hvt L=150000U W=420000U AS=109200000000P AD=44100000000P
+ PS=1360000U PD=630000U
* device instance $2 r0 *1 1.035,1.985 pfet_01v8_hvt
M$2 7 3 9 1 pfet_01v8_hvt L=150000U W=420000U AS=44100000000P AD=98950000000P
+ PS=630000U PD=975000U
* device instance $3 r0 *1 1.52,2.095 pfet_01v8_hvt
M$3 4 5 7 1 pfet_01v8_hvt L=150000U W=640000U AS=98950000000P AD=217600000000P
+ PS=975000U PD=1960000U
* device instance $4 r0 *1 0.615,0.675 nfet_01v8
M$4 5 2 6 8 nfet_01v8 L=150000U W=420000U AS=109200000000P AD=56700000000P
+ PS=1360000U PD=690000U
* device instance $5 r0 *1 1.035,0.675 nfet_01v8
M$5 6 3 5 8 nfet_01v8 L=150000U W=420000U AS=56700000000P AD=70350000000P
+ PS=690000U PD=755000U
* device instance $6 r0 *1 1.52,0.675 nfet_01v8
M$6 4 5 6 8 nfet_01v8 L=150000U W=420000U AS=70350000000P AD=109200000000P
+ PS=755000U PD=1360000U
.ENDS sky130_fd_sc_hd__or2_0

* cell sky130_fd_sc_hd__buf_6
* pin VGND
* pin A
* pin X
* pin VPWR
* pin VPB
* pin 
.SUBCKT sky130_fd_sc_hd__buf_6 1 2 4 5 6 7
* net 1 VGND
* net 2 A
* net 4 X
* net 5 VPWR
* net 6 VPB
* device instance $1 r0 *1 0.73,1.985 pfet_01v8_hvt
M$1 3 2 5 6 pfet_01v8_hvt L=150000U W=2000000U AS=395000000000P
+ AD=270000000000P PS=3790000U PD=2540000U
* device instance $3 r0 *1 1.57,1.985 pfet_01v8_hvt
M$3 4 3 5 6 pfet_01v8_hvt L=150000U W=6000000U AS=810000000000P
+ AD=935000000000P PS=7620000U PD=8870000U
* device instance $9 r0 *1 0.73,0.56 nfet_01v8
M$9 3 2 1 7 nfet_01v8 L=150000U W=1300000U AS=256750000000P AD=175500000000P
+ PS=2740000U PD=1840000U
* device instance $11 r0 *1 1.57,0.56 nfet_01v8
M$11 4 3 1 7 nfet_01v8 L=150000U W=3900000U AS=526500000000P AD=607750000000P
+ PS=5520000U PD=6420000U
.ENDS sky130_fd_sc_hd__buf_6

* cell sky130_fd_sc_hd__a211oi_1
* pin VPB
* pin A2
* pin A1
* pin C1
* pin B1
* pin VGND
* pin Y
* pin VPWR
* pin 
.SUBCKT sky130_fd_sc_hd__a211oi_1 1 2 3 4 5 6 7 9 10
* net 1 VPB
* net 2 A2
* net 3 A1
* net 4 C1
* net 5 B1
* net 6 VGND
* net 7 Y
* net 9 VPWR
* device instance $1 r0 *1 0.62,1.985 pfet_01v8_hvt
M$1 9 2 8 1 pfet_01v8_hvt L=150000U W=1000000U AS=265000000000P
+ AD=140000000000P PS=2530000U PD=1280000U
* device instance $2 r0 *1 1.05,1.985 pfet_01v8_hvt
M$2 8 3 9 1 pfet_01v8_hvt L=150000U W=1000000U AS=140000000000P
+ AD=140000000000P PS=1280000U PD=1280000U
* device instance $3 r0 *1 1.48,1.985 pfet_01v8_hvt
M$3 11 5 8 1 pfet_01v8_hvt L=150000U W=1000000U AS=140000000000P
+ AD=155000000000P PS=1280000U PD=1310000U
* device instance $4 r0 *1 1.94,1.985 pfet_01v8_hvt
M$4 7 4 11 1 pfet_01v8_hvt L=150000U W=1000000U AS=155000000000P
+ AD=265000000000P PS=1310000U PD=2530000U
* device instance $5 r0 *1 0.62,0.56 nfet_01v8
M$5 12 2 6 10 nfet_01v8 L=150000U W=650000U AS=266500000000P AD=91000000000P
+ PS=2120000U PD=930000U
* device instance $6 r0 *1 1.05,0.56 nfet_01v8
M$6 7 3 12 10 nfet_01v8 L=150000U W=650000U AS=91000000000P AD=91000000000P
+ PS=930000U PD=930000U
* device instance $7 r0 *1 1.48,0.56 nfet_01v8
M$7 6 5 7 10 nfet_01v8 L=150000U W=650000U AS=91000000000P AD=100750000000P
+ PS=930000U PD=960000U
* device instance $8 r0 *1 1.94,0.56 nfet_01v8
M$8 7 4 6 10 nfet_01v8 L=150000U W=650000U AS=100750000000P AD=172250000000P
+ PS=960000U PD=1830000U
.ENDS sky130_fd_sc_hd__a211oi_1

* cell sky130_fd_sc_hd__nand3_1
* pin VPB
* pin A
* pin B
* pin C
* pin Y
* pin VPWR
* pin VGND
* pin 
.SUBCKT sky130_fd_sc_hd__nand3_1 1 2 3 4 5 6 7 8
* net 1 VPB
* net 2 A
* net 3 B
* net 4 C
* net 5 Y
* net 6 VPWR
* net 7 VGND
* device instance $1 r0 *1 0.47,1.985 pfet_01v8_hvt
M$1 5 4 6 1 pfet_01v8_hvt L=150000U W=1000000U AS=260000000000P
+ AD=135000000000P PS=2520000U PD=1270000U
* device instance $2 r0 *1 0.89,1.985 pfet_01v8_hvt
M$2 6 3 5 1 pfet_01v8_hvt L=150000U W=1000000U AS=135000000000P
+ AD=165000000000P PS=1270000U PD=1330000U
* device instance $3 r0 *1 1.37,1.985 pfet_01v8_hvt
M$3 5 2 6 1 pfet_01v8_hvt L=150000U W=1000000U AS=165000000000P
+ AD=260000000000P PS=1330000U PD=2520000U
* device instance $4 r0 *1 0.47,0.56 nfet_01v8
M$4 10 4 7 8 nfet_01v8 L=150000U W=650000U AS=169000000000P AD=87750000000P
+ PS=1820000U PD=920000U
* device instance $5 r0 *1 0.89,0.56 nfet_01v8
M$5 9 3 10 8 nfet_01v8 L=150000U W=650000U AS=87750000000P AD=107250000000P
+ PS=920000U PD=980000U
* device instance $6 r0 *1 1.37,0.56 nfet_01v8
M$6 5 2 9 8 nfet_01v8 L=150000U W=650000U AS=107250000000P AD=169000000000P
+ PS=980000U PD=1820000U
.ENDS sky130_fd_sc_hd__nand3_1

* cell sky130_fd_sc_hd__a311oi_1
* pin VPB
* pin A3
* pin A2
* pin B1
* pin A1
* pin C1
* pin VPWR
* pin Y
* pin VGND
* pin 
.SUBCKT sky130_fd_sc_hd__a311oi_1 1 2 3 4 5 6 7 9 10 11
* net 1 VPB
* net 2 A3
* net 3 A2
* net 4 B1
* net 5 A1
* net 6 C1
* net 7 VPWR
* net 9 Y
* net 10 VGND
* device instance $1 r0 *1 0.47,1.985 pfet_01v8_hvt
M$1 8 2 7 1 pfet_01v8_hvt L=150000U W=1000000U AS=260000000000P
+ AD=137500000000P PS=2520000U PD=1275000U
* device instance $2 r0 *1 0.895,1.985 pfet_01v8_hvt
M$2 7 3 8 1 pfet_01v8_hvt L=150000U W=1000000U AS=137500000000P
+ AD=140000000000P PS=1275000U PD=1280000U
* device instance $3 r0 *1 1.325,1.985 pfet_01v8_hvt
M$3 8 5 7 1 pfet_01v8_hvt L=150000U W=1000000U AS=140000000000P
+ AD=165000000000P PS=1280000U PD=1330000U
* device instance $4 r0 *1 1.805,1.985 pfet_01v8_hvt
M$4 12 4 8 1 pfet_01v8_hvt L=150000U W=1000000U AS=165000000000P
+ AD=172500000000P PS=1330000U PD=1345000U
* device instance $5 r0 *1 2.3,1.985 pfet_01v8_hvt
M$5 9 6 12 1 pfet_01v8_hvt L=150000U W=1000000U AS=172500000000P
+ AD=260000000000P PS=1345000U PD=2520000U
* device instance $6 r0 *1 0.47,0.56 nfet_01v8
M$6 14 2 10 11 nfet_01v8 L=150000U W=650000U AS=169000000000P AD=89375000000P
+ PS=1820000U PD=925000U
* device instance $7 r0 *1 0.895,0.56 nfet_01v8
M$7 13 3 14 11 nfet_01v8 L=150000U W=650000U AS=89375000000P AD=91000000000P
+ PS=925000U PD=930000U
* device instance $8 r0 *1 1.325,0.56 nfet_01v8
M$8 9 5 13 11 nfet_01v8 L=150000U W=650000U AS=91000000000P AD=115375000000P
+ PS=930000U PD=1005000U
* device instance $9 r0 *1 1.83,0.56 nfet_01v8
M$9 10 4 9 11 nfet_01v8 L=150000U W=650000U AS=115375000000P AD=112125000000P
+ PS=1005000U PD=995000U
* device instance $10 r0 *1 2.325,0.56 nfet_01v8
M$10 9 6 10 11 nfet_01v8 L=150000U W=650000U AS=112125000000P AD=169000000000P
+ PS=995000U PD=1820000U
.ENDS sky130_fd_sc_hd__a311oi_1

* cell sky130_fd_sc_hd__and3_1
* pin VGND
* pin B
* pin X
* pin A
* pin C
* pin VPWR
* pin VPB
* pin 
.SUBCKT sky130_fd_sc_hd__and3_1 1 2 3 6 7 9 10 11
* net 1 VGND
* net 2 B
* net 3 X
* net 6 A
* net 7 C
* net 9 VPWR
* net 10 VPB
* device instance $1 r0 *1 0.47,1.71 pfet_01v8_hvt
M$1 9 6 8 10 pfet_01v8_hvt L=150000U W=420000U AS=109200000000P AD=56700000000P
+ PS=1360000U PD=690000U
* device instance $2 r0 *1 0.89,1.71 pfet_01v8_hvt
M$2 8 2 9 10 pfet_01v8_hvt L=150000U W=420000U AS=56700000000P AD=66150000000P
+ PS=690000U PD=735000U
* device instance $3 r0 *1 1.355,1.71 pfet_01v8_hvt
M$3 8 7 9 10 pfet_01v8_hvt L=150000U W=420000U AS=142225000000P AD=66150000000P
+ PS=1335000U PD=735000U
* device instance $4 r0 *1 1.83,1.985 pfet_01v8_hvt
M$4 3 8 9 10 pfet_01v8_hvt L=150000U W=1000000U AS=142225000000P
+ AD=260000000000P PS=1335000U PD=2520000U
* device instance $5 r0 *1 0.47,0.445 nfet_01v8
M$5 5 6 8 11 nfet_01v8 L=150000U W=420000U AS=109200000000P AD=44100000000P
+ PS=1360000U PD=630000U
* device instance $6 r0 *1 0.83,0.445 nfet_01v8
M$6 4 2 5 11 nfet_01v8 L=150000U W=420000U AS=44100000000P AD=44100000000P
+ PS=630000U PD=630000U
* device instance $7 r0 *1 1.19,0.445 nfet_01v8
M$7 1 7 4 11 nfet_01v8 L=150000U W=420000U AS=44100000000P AD=131650000000P
+ PS=630000U PD=1140000U
* device instance $8 r0 *1 1.83,0.56 nfet_01v8
M$8 3 8 1 11 nfet_01v8 L=150000U W=650000U AS=131650000000P AD=169000000000P
+ PS=1140000U PD=1820000U
.ENDS sky130_fd_sc_hd__and3_1

* cell sky130_fd_sc_hd__xor2_4
* pin VGND
* pin A
* pin B
* pin X
* pin VPWR
* pin VPB
* pin 
.SUBCKT sky130_fd_sc_hd__xor2_4 1 2 3 6 8 10 11
* net 1 VGND
* net 2 A
* net 3 B
* net 6 X
* net 8 VPWR
* net 10 VPB
* device instance $1 r0 *1 8.255,1.985 pfet_01v8_hvt
M$1 9 4 6 10 pfet_01v8_hvt L=150000U W=4000000U AS=677450000000P