* CDL Netlist generated by OpenROAD

*.BUSDELIMITER [

.SUBCKT memory_mapped_fifo clk ext_empty ext_full ext_rd_data[0]
+ ext_rd_data[10] ext_rd_data[11] ext_rd_data[12] ext_rd_data[13]
+ ext_rd_data[14] ext_rd_data[15] ext_rd_data[16] ext_rd_data[17]
+ ext_rd_data[18] ext_rd_data[19] ext_rd_data[1] ext_rd_data[20]
+ ext_rd_data[21] ext_rd_data[22] ext_rd_data[23] ext_rd_data[24]
+ ext_rd_data[25] ext_rd_data[26] ext_rd_data[27] ext_rd_data[28]
+ ext_rd_data[29] ext_rd_data[2] ext_rd_data[30] ext_rd_data[31]
+ ext_rd_data[3] ext_rd_data[4] ext_rd_data[5] ext_rd_data[6]
+ ext_rd_data[7] ext_rd_data[8] ext_rd_data[9] ext_rd_en ext_wr_data[0]
+ ext_wr_data[10] ext_wr_data[11] ext_wr_data[12] ext_wr_data[13]
+ ext_wr_data[14] ext_wr_data[15] ext_wr_data[16] ext_wr_data[17]
+ ext_wr_data[18] ext_wr_data[19] ext_wr_data[1] ext_wr_data[20]
+ ext_wr_data[21] ext_wr_data[22] ext_wr_data[23] ext_wr_data[24]
+ ext_wr_data[25] ext_wr_data[26] ext_wr_data[27] ext_wr_data[28]
+ ext_wr_data[29] ext_wr_data[2] ext_wr_data[30] ext_wr_data[31]
+ ext_wr_data[3] ext_wr_data[4] ext_wr_data[5] ext_wr_data[6]
+ ext_wr_data[7] ext_wr_data[8] ext_wr_data[9] ext_wr_en mem_addr[0]
+ mem_addr[1] mem_addr[2] mem_addr[3] mem_rdata[0] mem_rdata[10]
+ mem_rdata[11] mem_rdata[12] mem_rdata[13] mem_rdata[14] mem_rdata[15]
+ mem_rdata[16] mem_rdata[17] mem_rdata[18] mem_rdata[19] mem_rdata[1]
+ mem_rdata[20] mem_rdata[21] mem_rdata[22] mem_rdata[23] mem_rdata[24]
+ mem_rdata[25] mem_rdata[26] mem_rdata[27] mem_rdata[28] mem_rdata[29]
+ mem_rdata[2] mem_rdata[30] mem_rdata[31] mem_rdata[3] mem_rdata[4]
+ mem_rdata[5] mem_rdata[6] mem_rdata[7] mem_rdata[8] mem_rdata[9]
+ mem_ready mem_valid mem_wdata[0] mem_wdata[10] mem_wdata[11]
+ mem_wdata[12] mem_wdata[13] mem_wdata[14] mem_wdata[15] mem_wdata[16]
+ mem_wdata[17] mem_wdata[18] mem_wdata[19] mem_wdata[1] mem_wdata[20]
+ mem_wdata[21] mem_wdata[22] mem_wdata[23] mem_wdata[24] mem_wdata[25]
+ mem_wdata[26] mem_wdata[27] mem_wdata[28] mem_wdata[29] mem_wdata[2]
+ mem_wdata[30] mem_wdata[31] mem_wdata[3] mem_wdata[4] mem_wdata[5]
+ mem_wdata[6] mem_wdata[7] mem_wdata[8] mem_wdata[9] mem_write
+ rst_n
X_2115_ _2097_ _0596_ VDD VSS INV_X1
X_2116_ _2105_ _2094_ _0597_ VDD VSS XOR2_X2
X_2117_ _0597_ _2095_ _0596_ _0598_ VDD VSS OR3_X4
X_2118_ _0598_ _0599_ VDD VSS INV_X1
X_2119_ _2101_ _0600_ VDD VSS INV_X1
X_2120_ _2104_ _0601_ VDD VSS BUF_X4
X_2121_ _0601_ _2094_ _2105_ _0602_ VDD VSS AOI21_X1
X_2122_ _2102_ _0603_ VDD VSS INV_X1
X_2123_ _0600_ _0602_ _0603_ _0604_ VDD VSS OAI21_X1
X_2124_ wr_ptr\[4\] rd_ptr\[4\] _0605_ VDD VSS XOR2_X2
X_2125_ _0604_ _0605_ _0606_ VDD VSS XNOR2_X2
X_2126_ _2098_ _0601_ _0607_ VDD VSS OR2_X1
X_2127_ _2096_ _2093_ VDD VSS INV_X2
X_2128_ _0607_ _2093_ _2099_ _0608_ VDD VSS AOI21_X2
X_2129_ _2105_ _0601_ _0609_ VDD VSS NOR2_X1
X_2130_ _0603_ _0608_ _0609_ _0610_ VDD VSS NOR3_X2
X_2131_ _2098_ _0601_ _0611_ VDD VSS NOR2_X1
X_2132_ _2099_ _0612_ VDD VSS INV_X1
X_2133_ _0611_ _2096_ _0612_ _0613_ VDD VSS OAI21_X1
X_2134_ _2105_ _0601_ _0614_ VDD VSS OR2_X1
X_2135_ _2102_ _0613_ _0614_ _0615_ VDD VSS AOI21_X2
X_2136_ _0599_ _0606_ _0610_ _0615_ _0616_ VDD VSS OAI211_X4
X_2137_ _0616_ net72 VDD VSS INV_X8
X_2138_ _2102_ _0613_ _0614_ _0617_ VDD VSS NAND3_X1
X_2139_ _0603_ _0608_ _0609_ _0618_ VDD VSS OAI21_X1
X_2140_ _0606_ _0598_ _0617_ _0618_ net71 VDD VSS AOI211_X4
X_2141_ mem_valid _0619_ VDD VSS BUF_X16
X_2142_ net138 _0620_ VDD VSS BUF_X16
X_2143_ net2 net38 _0620_ _0621_ VDD VSS MUX2_X2
X_2144_ _0621_ _0622_ VDD VSS BUF_X2
X_2145_ net34 _0623_ VDD VSS INV_X1
X_2146_ net138 net70 _0624_ VDD VSS NAND2_X1
X_2147_ mem_addr[3] _0625_ VDD VSS CLKBUF_X3
X_2148_ net36 net35 _0626_ VDD VSS OR2_X2
X_2149_ net37 _0625_ _0626_ _0627_ VDD VSS OR3_X4
X_2150_ _0623_ _0624_ _0627_ _0628_ VDD VSS OAI21_X4
X_2151_ _0616_ _0628_ _0629_ VDD VSS NAND2_X2
X_2152_ _0629_ _0630_ VDD VSS BUF_X16
X_2153_ _0630_ _0631_ VDD VSS BUF_X32
X_2154_ rst_n _0632_ VDD VSS CLKBUF_X3
X_2155_ _0625_ _0633_ VDD VSS INV_X1
X_2156_ net37 _0633_ _0634_ VDD VSS NOR2_X2
X_2157_ net138 net70 _0634_ _0635_ VDD VSS NAND3_X1
X_2158_ net36 net35 _0636_ VDD VSS NOR2_X1
X_2159_ _0636_ net49 net38 _0637_ VDD VSS OAI21_X1
X_2160_ _0632_ _0635_ _0637_ _0638_ VDD VSS OAI21_X2
X_2161_ _0638_ _0639_ VDD VSS BUF_X4
X_2162_ _0639_ _0640_ VDD VSS BUF_X4
X_2163_ wr_ptr\[3\] wr_ptr\[2\] _0641_ VDD VSS NOR2_X2
X_2164_ _2108_ _0641_ _0642_ VDD VSS NAND2_X1
X_2165_ _0631_ _0640_ _0642_ _0643_ VDD VSS NOR3_X4
X_2166_ _0643_ _0644_ VDD VSS BUF_X8
X_2167_ mem\[0\]\[0\] _0622_ _0644_ _0044_ VDD VSS MUX2_X1
X_2168_ net3 net39 _0620_ _0645_ VDD VSS MUX2_X2
X_2169_ _0645_ _0646_ VDD VSS BUF_X2
X_2170_ mem\[0\]\[10\] _0646_ _0644_ _0045_ VDD VSS MUX2_X1
X_2171_ net4 net40 _0620_ _0647_ VDD VSS MUX2_X2
X_2172_ _0647_ _0648_ VDD VSS BUF_X2
X_2173_ mem\[0\]\[11\] _0648_ _0644_ _0046_ VDD VSS MUX2_X1
X_2174_ net5 net41 _0620_ _0649_ VDD VSS MUX2_X2
X_2175_ _0649_ _0650_ VDD VSS BUF_X2
X_2176_ mem\[0\]\[12\] _0650_ _0644_ _0047_ VDD VSS MUX2_X1
X_2177_ net6 net42 _0620_ _0651_ VDD VSS MUX2_X2
X_2178_ _0651_ _0652_ VDD VSS BUF_X2
X_2179_ mem\[0\]\[13\] _0652_ _0644_ _0048_ VDD VSS MUX2_X1
X_2180_ net7 net43 _0620_ _0653_ VDD VSS MUX2_X2
X_2181_ _0653_ _0654_ VDD VSS BUF_X2
X_2182_ mem\[0\]\[14\] _0654_ _0644_ _0049_ VDD VSS MUX2_X1
X_2183_ net8 net44 _0620_ _0655_ VDD VSS MUX2_X2
X_2184_ _0655_ _0656_ VDD VSS BUF_X2
X_2185_ mem\[0\]\[15\] _0656_ _0644_ _0050_ VDD VSS MUX2_X1
X_2186_ net9 net45 _0620_ _0657_ VDD VSS MUX2_X2
X_2187_ _0657_ _0658_ VDD VSS BUF_X2
X_2188_ mem\[0\]\[16\] _0658_ _0644_ _0051_ VDD VSS MUX2_X1
X_2189_ net10 net46 _0620_ _0659_ VDD VSS MUX2_X2
X_2190_ _0659_ _0660_ VDD VSS BUF_X2
X_2191_ mem\[0\]\[17\] _0660_ _0644_ _0052_ VDD VSS MUX2_X1
X_2192_ net11 net47 _0620_ _0661_ VDD VSS MUX2_X2
X_2193_ _0661_ _0662_ VDD VSS BUF_X2
X_2194_ mem\[0\]\[18\] _0662_ _0644_ _0053_ VDD VSS MUX2_X1
X_2195_ net138 _0663_ VDD VSS BUF_X16
X_2196_ net12 net48 _0663_ _0664_ VDD VSS MUX2_X2
X_2197_ _0664_ _0665_ VDD VSS BUF_X2
X_2198_ _0643_ _0666_ VDD VSS BUF_X8
X_2199_ mem\[0\]\[19\] _0665_ _0666_ _0054_ VDD VSS MUX2_X1
X_2200_ net13 net49 _0663_ _0667_ VDD VSS MUX2_X2
X_2201_ _0667_ _0668_ VDD VSS BUF_X2
X_2202_ mem\[0\]\[1\] _0668_ _0666_ _0055_ VDD VSS MUX2_X1
X_2203_ net14 net50 _0663_ _0669_ VDD VSS MUX2_X2
X_2204_ _0669_ _0670_ VDD VSS BUF_X2
X_2205_ mem\[0\]\[20\] _0670_ _0666_ _0056_ VDD VSS MUX2_X1
X_2206_ net15 net51 _0663_ _0671_ VDD VSS MUX2_X2
X_2207_ _0671_ _0672_ VDD VSS BUF_X2
X_2208_ mem\[0\]\[21\] _0672_ _0666_ _0057_ VDD VSS MUX2_X1
X_2209_ net16 net52 _0663_ _0673_ VDD VSS MUX2_X2
X_2210_ _0673_ _0674_ VDD VSS BUF_X2
X_2211_ mem\[0\]\[22\] _0674_ _0666_ _0058_ VDD VSS MUX2_X1
X_2212_ net17 net53 _0663_ _0675_ VDD VSS MUX2_X2
X_2213_ _0675_ _0676_ VDD VSS BUF_X2
X_2214_ mem\[0\]\[23\] _0676_ _0666_ _0059_ VDD VSS MUX2_X1
X_2215_ net18 net54 _0663_ _0677_ VDD VSS MUX2_X2
X_2216_ _0677_ _0678_ VDD VSS BUF_X2
X_2217_ mem\[0\]\[24\] _0678_ _0666_ _0060_ VDD VSS MUX2_X1
X_2218_ net19 net55 _0663_ _0679_ VDD VSS MUX2_X2
X_2219_ _0679_ _0680_ VDD VSS BUF_X2
X_2220_ mem\[0\]\[25\] _0680_ _0666_ _0061_ VDD VSS MUX2_X1
X_2221_ net20 net56 _0663_ _0681_ VDD VSS MUX2_X2
X_2222_ _0681_ _0682_ VDD VSS BUF_X2
X_2223_ mem\[0\]\[26\] _0682_ _0666_ _0062_ VDD VSS MUX2_X1
X_2224_ net21 net57 _0663_ _0683_ VDD VSS MUX2_X2
X_2225_ _0683_ _0684_ VDD VSS BUF_X2
X_2226_ mem\[0\]\[27\] _0684_ _0666_ _0063_ VDD VSS MUX2_X1
X_2227_ _0619_ _0685_ VDD VSS BUF_X4
X_2228_ net22 net58 _0685_ _0686_ VDD VSS MUX2_X2
X_2229_ _0686_ _0687_ VDD VSS BUF_X2
X_2230_ _0643_ _0688_ VDD VSS BUF_X8
X_2231_ mem\[0\]\[28\] _0687_ _0688_ _0064_ VDD VSS MUX2_X1
X_2232_ net23 net59 _0685_ _0689_ VDD VSS MUX2_X2
X_2233_ _0689_ _0690_ VDD VSS BUF_X2
X_2234_ mem\[0\]\[29\] _0690_ _0688_ _0065_ VDD VSS MUX2_X1
X_2235_ net24 net60 _0685_ _0691_ VDD VSS MUX2_X2
X_2236_ _0691_ _0692_ VDD VSS BUF_X2
X_2237_ mem\[0\]\[2\] _0692_ _0688_ _0066_ VDD VSS MUX2_X1
X_2238_ net25 net61 _0685_ _0693_ VDD VSS MUX2_X2
X_2239_ _0693_ _0694_ VDD VSS BUF_X2
X_2240_ mem\[0\]\[30\] _0694_ _0688_ _0067_ VDD VSS MUX2_X1
X_2241_ net26 net62 _0685_ _0695_ VDD VSS MUX2_X2
X_2242_ _0695_ _0696_ VDD VSS BUF_X2
X_2243_ mem\[0\]\[31\] _0696_ _0688_ _0068_ VDD VSS MUX2_X1
X_2244_ net27 net63 _0685_ _0697_ VDD VSS MUX2_X2
X_2245_ _0697_ _0698_ VDD VSS BUF_X2
X_2246_ mem\[0\]\[3\] _0698_ _0688_ _0069_ VDD VSS MUX2_X1
X_2247_ net28 net64 _0685_ _0699_ VDD VSS MUX2_X2
X_2248_ _0699_ _0700_ VDD VSS BUF_X2
X_2249_ mem\[0\]\[4\] _0700_ _0688_ _0070_ VDD VSS MUX2_X1
X_2250_ net29 net65 _0685_ _0701_ VDD VSS MUX2_X2
X_2251_ _0701_ _0702_ VDD VSS BUF_X2
X_2252_ mem\[0\]\[5\] _0702_ _0688_ _0071_ VDD VSS MUX2_X1
X_2253_ net30 net66 _0685_ _0703_ VDD VSS MUX2_X2
X_2254_ _0703_ _0704_ VDD VSS BUF_X2
X_2255_ mem\[0\]\[6\] _0704_ _0688_ _0072_ VDD VSS MUX2_X1
X_2256_ net31 net67 _0685_ _0705_ VDD VSS MUX2_X2
X_2257_ _0705_ _0706_ VDD VSS BUF_X2
X_2258_ mem\[0\]\[7\] _0706_ _0688_ _0073_ VDD VSS MUX2_X1
X_2259_ net32 net68 net138 _0707_ VDD VSS MUX2_X2
X_2260_ _0707_ _0708_ VDD VSS BUF_X2
X_2261_ mem\[0\]\[8\] _0708_ _0643_ _0074_ VDD VSS MUX2_X1
X_2262_ net33 net69 net138 _0709_ VDD VSS MUX2_X2
X_2263_ _0709_ _0710_ VDD VSS BUF_X2
X_2264_ mem\[0\]\[9\] _0710_ _0643_ _0075_ VDD VSS MUX2_X1
X_2265_ wr_ptr\[3\] _0711_ VDD VSS INV_X1
X_2266_ _0711_ wr_ptr\[2\] _0712_ VDD VSS NOR2_X2
X_2267_ _2109_ _0712_ _0713_ VDD VSS NAND2_X1
X_2268_ _0631_ _0640_ _0713_ _0714_ VDD VSS NOR3_X4
X_2269_ _0714_ _0715_ VDD VSS BUF_X8
X_2270_ mem\[10\]\[0\] _0622_ _0715_ _0076_ VDD VSS MUX2_X1
X_2271_ mem\[10\]\[10\] _0646_ _0715_ _0077_ VDD VSS MUX2_X1
X_2272_ mem\[10\]\[11\] _0648_ _0715_ _0078_ VDD VSS MUX2_X1
X_2273_ mem\[10\]\[12\] _0650_ _0715_ _0079_ VDD VSS MUX2_X1
X_2274_ mem\[10\]\[13\] _0652_ _0715_ _0080_ VDD VSS MUX2_X1
X_2275_ mem\[10\]\[14\] _0654_ _0715_ _0081_ VDD VSS MUX2_X1
X_2276_ mem\[10\]\[15\] _0656_ _0715_ _0082_ VDD VSS MUX2_X1
X_2277_ mem\[10\]\[16\] _0658_ _0715_ _0083_ VDD VSS MUX2_X1
X_2278_ mem\[10\]\[17\] _0660_ _0715_ _0084_ VDD VSS MUX2_X1
X_2279_ mem\[10\]\[18\] _0662_ _0715_ _0085_ VDD VSS MUX2_X1
X_2280_ _0714_ _0716_ VDD VSS BUF_X8
X_2281_ mem\[10\]\[19\] _0665_ _0716_ _0086_ VDD VSS MUX2_X1
X_2282_ mem\[10\]\[1\] _0668_ _0716_ _0087_ VDD VSS MUX2_X1
X_2283_ mem\[10\]\[20\] _0670_ _0716_ _0088_ VDD VSS MUX2_X1
X_2284_ mem\[10\]\[21\] _0672_ _0716_ _0089_ VDD VSS MUX2_X1
X_2285_ mem\[10\]\[22\] _0674_ _0716_ _0090_ VDD VSS MUX2_X1
X_2286_ mem\[10\]\[23\] _0676_ _0716_ _0091_ VDD VSS MUX2_X1
X_2287_ mem\[10\]\[24\] _0678_ _0716_ _0092_ VDD VSS MUX2_X1
X_2288_ mem\[10\]\[25\] _0680_ _0716_ _0093_ VDD VSS MUX2_X1
X_2289_ mem\[10\]\[26\] _0682_ _0716_ _0094_ VDD VSS MUX2_X1
X_2290_ mem\[10\]\[27\] _0684_ _0716_ _0095_ VDD VSS MUX2_X1
X_2291_ _0714_ _0717_ VDD VSS BUF_X8
X_2292_ mem\[10\]\[28\] _0687_ _0717_ _0096_ VDD VSS MUX2_X1
X_2293_ mem\[10\]\[29\] _0690_ _0717_ _0097_ VDD VSS MUX2_X1
X_2294_ mem\[10\]\[2\] _0692_ _0717_ _0098_ VDD VSS MUX2_X1
X_2295_ mem\[10\]\[30\] _0694_ _0717_ _0099_ VDD VSS MUX2_X1
X_2296_ mem\[10\]\[31\] _0696_ _0717_ _0100_ VDD VSS MUX2_X1
X_2297_ mem\[10\]\[3\] _0698_ _0717_ _0101_ VDD VSS MUX2_X1
X_2298_ mem\[10\]\[4\] _0700_ _0717_ _0102_ VDD VSS MUX2_X1
X_2299_ mem\[10\]\[5\] _0702_ _0717_ _0103_ VDD VSS MUX2_X1
X_2300_ mem\[10\]\[6\] _0704_ _0717_ _0104_ VDD VSS MUX2_X1
X_2301_ mem\[10\]\[7\] _0706_ _0717_ _0105_ VDD VSS MUX2_X1
X_2302_ mem\[10\]\[8\] _0708_ _0714_ _0106_ VDD VSS MUX2_X1
X_2303_ mem\[10\]\[9\] _0710_ _0714_ _0107_ VDD VSS MUX2_X1
X_2304_ _0639_ _0718_ VDD VSS BUF_X8
X_2305_ _2113_ _0719_ VDD VSS BUF_X2
X_2306_ _0719_ _0712_ _0720_ VDD VSS NAND2_X1
X_2307_ _0631_ _0718_ _0720_ _0721_ VDD VSS NOR3_X4
X_2308_ _0721_ _0722_ VDD VSS BUF_X8
X_2309_ mem\[11\]\[0\] _0622_ _0722_ _0108_ VDD VSS MUX2_X1
X_2310_ mem\[11\]\[10\] _0646_ _0722_ _0109_ VDD VSS MUX2_X1
X_2311_ mem\[11\]\[11\] _0648_ _0722_ _0110_ VDD VSS MUX2_X1
X_2312_ mem\[11\]\[12\] _0650_ _0722_ _0111_ VDD VSS MUX2_X1
X_2313_ mem\[11\]\[13\] _0652_ _0722_ _0112_ VDD VSS MUX2_X1
X_2314_ mem\[11\]\[14\] _0654_ _0722_ _0113_ VDD VSS MUX2_X1
X_2315_ mem\[11\]\[15\] _0656_ _0722_ _0114_ VDD VSS MUX2_X1
X_2316_ mem\[11\]\[16\] _0658_ _0722_ _0115_ VDD VSS MUX2_X1
X_2317_ mem\[11\]\[17\] _0660_ _0722_ _0116_ VDD VSS MUX2_X1
X_2318_ mem\[11\]\[18\] _0662_ _0722_ _0117_ VDD VSS MUX2_X1
X_2319_ _0721_ _0723_ VDD VSS BUF_X8
X_2320_ mem\[11\]\[19\] _0665_ _0723_ _0118_ VDD VSS MUX2_X1
X_2321_ mem\[11\]\[1\] _0668_ _0723_ _0119_ VDD VSS MUX2_X1
X_2322_ mem\[11\]\[20\] _0670_ _0723_ _0120_ VDD VSS MUX2_X1
X_2323_ mem\[11\]\[21\] _0672_ _0723_ _0121_ VDD VSS MUX2_X1
X_2324_ mem\[11\]\[22\] _0674_ _0723_ _0122_ VDD VSS MUX2_X1
X_2325_ mem\[11\]\[23\] _0676_ _0723_ _0123_ VDD VSS MUX2_X1
X_2326_ mem\[11\]\[24\] _0678_ _0723_ _0124_ VDD VSS MUX2_X1
X_2327_ mem\[11\]\[25\] _0680_ _0723_ _0125_ VDD VSS MUX2_X1
X_2328_ mem\[11\]\[26\] _0682_ _0723_ _0126_ VDD VSS MUX2_X1
X_2329_ mem\[11\]\[27\] _0684_ _0723_ _0127_ VDD VSS MUX2_X1
X_2330_ _0721_ _0724_ VDD VSS BUF_X8
X_2331_ mem\[11\]\[28\] _0687_ _0724_ _0128_ VDD VSS MUX2_X1
X_2332_ mem\[11\]\[29\] _0690_ _0724_ _0129_ VDD VSS MUX2_X1
X_2333_ mem\[11\]\[2\] _0692_ _0724_ _0130_ VDD VSS MUX2_X1
X_2334_ mem\[11\]\[30\] _0694_ _0724_ _0131_ VDD VSS MUX2_X1
X_2335_ mem\[11\]\[31\] _0696_ _0724_ _0132_ VDD VSS MUX2_X1
X_2336_ mem\[11\]\[3\] _0698_ _0724_ _0133_ VDD VSS MUX2_X1
X_2337_ mem\[11\]\[4\] _0700_ _0724_ _0134_ VDD VSS MUX2_X1
X_2338_ mem\[11\]\[5\] _0702_ _0724_ _0135_ VDD VSS MUX2_X1
X_2339_ mem\[11\]\[6\] _0704_ _0724_ _0136_ VDD VSS MUX2_X1
X_2340_ mem\[11\]\[7\] _0706_ _0724_ _0137_ VDD VSS MUX2_X1
X_2341_ mem\[11\]\[8\] _0708_ _0721_ _0138_ VDD VSS MUX2_X1
X_2342_ mem\[11\]\[9\] _0710_ _0721_ _0139_ VDD VSS MUX2_X1
X_2343_ wr_ptr\[2\] _0725_ VDD VSS INV_X1
X_2344_ _0711_ _0725_ _0726_ VDD VSS NOR2_X2
X_2345_ _2108_ _0726_ _0727_ VDD VSS NAND2_X1
X_2346_ _0631_ _0718_ _0727_ _0728_ VDD VSS NOR3_X4
X_2347_ _0728_ _0729_ VDD VSS BUF_X8
X_2348_ mem\[12\]\[0\] _0622_ _0729_ _0140_ VDD VSS MUX2_X1
X_2349_ mem\[12\]\[10\] _0646_ _0729_ _0141_ VDD VSS MUX2_X1
X_2350_ mem\[12\]\[11\] _0648_ _0729_ _0142_ VDD VSS MUX2_X1
X_2351_ mem\[12\]\[12\] _0650_ _0729_ _0143_ VDD VSS MUX2_X1
X_2352_ mem\[12\]\[13\] _0652_ _0729_ _0144_ VDD VSS MUX2_X1
X_2353_ mem\[12\]\[14\] _0654_ _0729_ _0145_ VDD VSS MUX2_X1
X_2354_ mem\[12\]\[15\] _0656_ _0729_ _0146_ VDD VSS MUX2_X1
X_2355_ mem\[12\]\[16\] _0658_ _0729_ _0147_ VDD VSS MUX2_X1
X_2356_ mem\[12\]\[17\] _0660_ _0729_ _0148_ VDD VSS MUX2_X1
X_2357_ mem\[12\]\[18\] _0662_ _0729_ _0149_ VDD VSS MUX2_X1
X_2358_ _0728_ _0730_ VDD VSS BUF_X8
X_2359_ mem\[12\]\[19\] _0665_ _0730_ _0150_ VDD VSS MUX2_X1
X_2360_ mem\[12\]\[1\] _0668_ _0730_ _0151_ VDD VSS MUX2_X1
X_2361_ mem\[12\]\[20\] _0670_ _0730_ _0152_ VDD VSS MUX2_X1
X_2362_ mem\[12\]\[21\] _0672_ _0730_ _0153_ VDD VSS MUX2_X1
X_2363_ mem\[12\]\[22\] _0674_ _0730_ _0154_ VDD VSS MUX2_X1
X_2364_ mem\[12\]\[23\] _0676_ _0730_ _0155_ VDD VSS MUX2_X1
X_2365_ mem\[12\]\[24\] _0678_ _0730_ _0156_ VDD VSS MUX2_X1
X_2366_ mem\[12\]\[25\] _0680_ _0730_ _0157_ VDD VSS MUX2_X1
X_2367_ mem\[12\]\[26\] _0682_ _0730_ _0158_ VDD VSS MUX2_X1
X_2368_ mem\[12\]\[27\] _0684_ _0730_ _0159_ VDD VSS MUX2_X1
X_2369_ _0728_ _0731_ VDD VSS BUF_X8
X_2370_ mem\[12\]\[28\] _0687_ _0731_ _0160_ VDD VSS MUX2_X1
X_2371_ mem\[12\]\[29\] _0690_ _0731_ _0161_ VDD VSS MUX2_X1
X_2372_ mem\[12\]\[2\] _0692_ _0731_ _0162_ VDD VSS MUX2_X1
X_2373_ mem\[12\]\[30\] _0694_ _0731_ _0163_ VDD VSS MUX2_X1
X_2374_ mem\[12\]\[31\] _0696_ _0731_ _0164_ VDD VSS MUX2_X1
X_2375_ mem\[12\]\[3\] _0698_ _0731_ _0165_ VDD VSS MUX2_X1
X_2376_ mem\[12\]\[4\] _0700_ _0731_ _0166_ VDD VSS MUX2_X1
X_2377_ mem\[12\]\[5\] _0702_ _0731_ _0167_ VDD VSS MUX2_X1
X_2378_ mem\[12\]\[6\] _0704_ _0731_ _0168_ VDD VSS MUX2_X1
X_2379_ mem\[12\]\[7\] _0706_ _0731_ _0169_ VDD VSS MUX2_X1
X_2380_ mem\[12\]\[8\] _0708_ _0728_ _0170_ VDD VSS MUX2_X1
X_2381_ mem\[12\]\[9\] _0710_ _0728_ _0171_ VDD VSS MUX2_X1
X_2382_ _2111_ _0726_ _0732_ VDD VSS NAND2_X1
X_2383_ _0631_ _0718_ _0732_ _0733_ VDD VSS NOR3_X4
X_2384_ _0733_ _0734_ VDD VSS BUF_X8
X_2385_ mem\[13\]\[0\] _0622_ _0734_ _0172_ VDD VSS MUX2_X1
X_2386_ mem\[13\]\[10\] _0646_ _0734_ _0173_ VDD VSS MUX2_X1
X_2387_ mem\[13\]\[11\] _0648_ _0734_ _0174_ VDD VSS MUX2_X1
X_2388_ mem\[13\]\[12\] _0650_ _0734_ _0175_ VDD VSS MUX2_X1
X_2389_ mem\[13\]\[13\] _0652_ _0734_ _0176_ VDD VSS MUX2_X1
X_2390_ mem\[13\]\[14\] _0654_ _0734_ _0177_ VDD VSS MUX2_X1
X_2391_ mem\[13\]\[15\] _0656_ _0734_ _0178_ VDD VSS MUX2_X1
X_2392_ mem\[13\]\[16\] _0658_ _0734_ _0179_ VDD VSS MUX2_X1
X_2393_ mem\[13\]\[17\] _0660_ _0734_ _0180_ VDD VSS MUX2_X1
X_2394_ mem\[13\]\[18\] _0662_ _0734_ _0181_ VDD VSS MUX2_X1
X_2395_ _0733_ _0735_ VDD VSS BUF_X8
X_2396_ mem\[13\]\[19\] _0665_ _0735_ _0182_ VDD VSS MUX2_X1
X_2397_ mem\[13\]\[1\] _0668_ _0735_ _0183_ VDD VSS MUX2_X1
X_2398_ mem\[13\]\[20\] _0670_ _0735_ _0184_ VDD VSS MUX2_X1
X_2399_ mem\[13\]\[21\] _0672_ _0735_ _0185_ VDD VSS MUX2_X1
X_2400_ mem\[13\]\[22\] _0674_ _0735_ _0186_ VDD VSS MUX2_X1
X_2401_ mem\[13\]\[23\] _0676_ _0735_ _0187_ VDD VSS MUX2_X1
X_2402_ mem\[13\]\[24\] _0678_ _0735_ _0188_ VDD VSS MUX2_X1
X_2403_ mem\[13\]\[25\] _0680_ _0735_ _0189_ VDD VSS MUX2_X1
X_2404_ mem\[13\]\[26\] _0682_ _0735_ _0190_ VDD VSS MUX2_X1
X_2405_ mem\[13\]\[27\] _0684_ _0735_ _0191_ VDD VSS MUX2_X1
X_2406_ _0733_ _0736_ VDD VSS BUF_X8
X_2407_ mem\[13\]\[28\] _0687_ _0736_ _0192_ VDD VSS MUX2_X1
X_2408_ mem\[13\]\[29\] _0690_ _0736_ _0193_ VDD VSS MUX2_X1
X_2409_ mem\[13\]\[2\] _0692_ _0736_ _0194_ VDD VSS MUX2_X1
X_2410_ mem\[13\]\[30\] _0694_ _0736_ _0195_ VDD VSS MUX2_X1
X_2411_ mem\[13\]\[31\] _0696_ _0736_ _0196_ VDD VSS MUX2_X1
X_2412_ mem\[13\]\[3\] _0698_ _0736_ _0197_ VDD VSS MUX2_X1
X_2413_ mem\[13\]\[4\] _0700_ _0736_ _0198_ VDD VSS MUX2_X1
X_2414_ mem\[13\]\[5\] _0702_ _0736_ _0199_ VDD VSS MUX2_X1
X_2415_ mem\[13\]\[6\] _0704_ _0736_ _0200_ VDD VSS MUX2_X1
X_2416_ mem\[13\]\[7\] _0706_ _0736_ _0201_ VDD VSS MUX2_X1
X_2417_ mem\[13\]\[8\] _0708_ _0733_ _0202_ VDD VSS MUX2_X1
X_2418_ mem\[13\]\[9\] _0710_ _0733_ _0203_ VDD VSS MUX2_X1
X_2419_ _2109_ _0726_ _0737_ VDD VSS NAND2_X1
X_2420_ _0631_ _0718_ _0737_ _0738_ VDD VSS NOR3_X4
X_2421_ _0738_ _0739_ VDD VSS BUF_X8
X_2422_ mem\[14\]\[0\] _0622_ _0739_ _0204_ VDD VSS MUX2_X1
X_2423_ mem\[14\]\[10\] _0646_ _0739_ _0205_ VDD VSS MUX2_X1
X_2424_ mem\[14\]\[11\] _0648_ _0739_ _0206_ VDD VSS MUX2_X1
X_2425_ mem\[14\]\[12\] _0650_ _0739_ _0207_ VDD VSS MUX2_X1
X_2426_ mem\[14\]\[13\] _0652_ _0739_ _0208_ VDD VSS MUX2_X1
X_2427_ mem\[14\]\[14\] _0654_ _0739_ _0209_ VDD VSS MUX2_X1
X_2428_ mem\[14\]\[15\] _0656_ _0739_ _0210_ VDD VSS MUX2_X1
X_2429_ mem\[14\]\[16\] _0658_ _0739_ _0211_ VDD VSS MUX2_X1
X_2430_ mem\[14\]\[17\] _0660_ _0739_ _0212_ VDD VSS MUX2_X1
X_2431_ mem\[14\]\[18\] _0662_ _0739_ _0213_ VDD VSS MUX2_X1
X_2432_ _0738_ _0740_ VDD VSS BUF_X8
X_2433_ mem\[14\]\[19\] _0665_ _0740_ _0214_ VDD VSS MUX2_X1
X_2434_ mem\[14\]\[1\] _0668_ _0740_ _0215_ VDD VSS MUX2_X1
X_2435_ mem\[14\]\[20\] _0670_ _0740_ _0216_ VDD VSS MUX2_X1
X_2436_ mem\[14\]\[21\] _0672_ _0740_ _0217_ VDD VSS MUX2_X1
X_2437_ mem\[14\]\[22\] _0674_ _0740_ _0218_ VDD VSS MUX2_X1
X_2438_ mem\[14\]\[23\] _0676_ _0740_ _0219_ VDD VSS MUX2_X1
X_2439_ mem\[14\]\[24\] _0678_ _0740_ _0220_ VDD VSS MUX2_X1
X_2440_ mem\[14\]\[25\] _0680_ _0740_ _0221_ VDD VSS MUX2_X1
X_2441_ mem\[14\]\[26\] _0682_ _0740_ _0222_ VDD VSS MUX2_X1
X_2442_ mem\[14\]\[27\] _0684_ _0740_ _0223_ VDD VSS MUX2_X1
X_2443_ _0738_ _0741_ VDD VSS BUF_X8
X_2444_ mem\[14\]\[28\] _0687_ _0741_ _0224_ VDD VSS MUX2_X1
X_2445_ mem\[14\]\[29\] _0690_ _0741_ _0225_ VDD VSS MUX2_X1
X_2446_ mem\[14\]\[2\] _0692_ _0741_ _0226_ VDD VSS MUX2_X1
X_2447_ mem\[14\]\[30\] _0694_ _0741_ _0227_ VDD VSS MUX2_X1
X_2448_ mem\[14\]\[31\] _0696_ _0741_ _0228_ VDD VSS MUX2_X1
X_2449_ mem\[14\]\[3\] _0698_ _0741_ _0229_ VDD VSS MUX2_X1
X_2450_ mem\[14\]\[4\] _0700_ _0741_ _0230_ VDD VSS MUX2_X1
X_2451_ mem\[14\]\[5\] _0702_ _0741_ _0231_ VDD VSS MUX2_X1
X_2452_ mem\[14\]\[6\] _0704_ _0741_ _0232_ VDD VSS MUX2_X1
X_2453_ mem\[14\]\[7\] _0706_ _0741_ _0233_ VDD VSS MUX2_X1
X_2454_ mem\[14\]\[8\] _0708_ _0738_ _0234_ VDD VSS MUX2_X1
X_2455_ mem\[14\]\[9\] _0710_ _0738_ _0235_ VDD VSS MUX2_X1
X_2456_ _0719_ _0726_ _0742_ VDD VSS NAND2_X1
X_2457_ _0631_ _0718_ _0742_ _0743_ VDD VSS NOR3_X4
X_2458_ _0743_ _0744_ VDD VSS BUF_X8
X_2459_ mem\[15\]\[0\] _0622_ _0744_ _0236_ VDD VSS MUX2_X1
X_2460_ mem\[15\]\[10\] _0646_ _0744_ _0237_ VDD VSS MUX2_X1
X_2461_ mem\[15\]\[11\] _0648_ _0744_ _0238_ VDD VSS MUX2_X1
X_2462_ mem\[15\]\[12\] _0650_ _0744_ _0239_ VDD VSS MUX2_X1
X_2463_ mem\[15\]\[13\] _0652_ _0744_ _0240_ VDD VSS MUX2_X1
X_2464_ mem\[15\]\[14\] _0654_ _0744_ _0241_ VDD VSS MUX2_X1
X_2465_ mem\[15\]\[15\] _0656_ _0744_ _0242_ VDD VSS MUX2_X1
X_2466_ mem\[15\]\[16\] _0658_ _0744_ _0243_ VDD VSS MUX2_X1
X_2467_ mem\[15\]\[17\] _0660_ _0744_ _0244_ VDD VSS MUX2_X1
X_2468_ mem\[15\]\[18\] _0662_ _0744_ _0245_ VDD VSS MUX2_X1
X_2469_ _0743_ _0745_ VDD VSS BUF_X8
X_2470_ mem\[15\]\[19\] _0665_ _0745_ _0246_ VDD VSS MUX2_X1
X_2471_ mem\[15\]\[1\] _0668_ _0745_ _0247_ VDD VSS MUX2_X1
X_2472_ mem\[15\]\[20\] _0670_ _0745_ _0248_ VDD VSS MUX2_X1
X_2473_ mem\[15\]\[21\] _0672_ _0745_ _0249_ VDD VSS MUX2_X1
X_2474_ mem\[15\]\[22\] _0674_ _0745_ _0250_ VDD VSS MUX2_X1
X_2475_ mem\[15\]\[23\] _0676_ _0745_ _0251_ VDD VSS MUX2_X1
X_2476_ mem\[15\]\[24\] _0678_ _0745_ _0252_ VDD VSS MUX2_X1
X_2477_ mem\[15\]\[25\] _0680_ _0745_ _0253_ VDD VSS MUX2_X1
X_2478_ mem\[15\]\[26\] _0682_ _0745_ _0254_ VDD VSS MUX2_X1
X_2479_ mem\[15\]\[27\] _0684_ _0745_ _0255_ VDD VSS MUX2_X1
X_2480_ _0743_ _0746_ VDD VSS BUF_X8
X_2481_ mem\[15\]\[28\] _0687_ _0746_ _0256_ VDD VSS MUX2_X1
X_2482_ mem\[15\]\[29\] _0690_ _0746_ _0257_ VDD VSS MUX2_X1
X_2483_ mem\[15\]\[2\] _0692_ _0746_ _0258_ VDD VSS MUX2_X1
X_2484_ mem\[15\]\[30\] _0694_ _0746_ _0259_ VDD VSS MUX2_X1
X_2485_ mem\[15\]\[31\] _0696_ _0746_ _0260_ VDD VSS MUX2_X1
X_2486_ mem\[15\]\[3\] _0698_ _0746_ _0261_ VDD VSS MUX2_X1
X_2487_ mem\[15\]\[4\] _0700_ _0746_ _0262_ VDD VSS MUX2_X1
X_2488_ mem\[15\]\[5\] _0702_ _0746_ _0263_ VDD VSS MUX2_X1
X_2489_ mem\[15\]\[6\] _0704_ _0746_ _0264_ VDD VSS MUX2_X1
X_2490_ mem\[15\]\[7\] _0706_ _0746_ _0265_ VDD VSS MUX2_X1
X_2491_ mem\[15\]\[8\] _0708_ _0743_ _0266_ VDD VSS MUX2_X1
X_2492_ mem\[15\]\[9\] _0710_ _0743_ _0267_ VDD VSS MUX2_X1
X_2493_ _2111_ _0641_ _0747_ VDD VSS NAND2_X1
X_2494_ _0631_ _0718_ _0747_ _0748_ VDD VSS NOR3_X4
X_2495_ _0748_ _0749_ VDD VSS BUF_X8
X_2496_ mem\[1\]\[0\] _0622_ _0749_ _0268_ VDD VSS MUX2_X1
X_2497_ mem\[1\]\[10\] _0646_ _0749_ _0269_ VDD VSS MUX2_X1
X_2498_ mem\[1\]\[11\] _0648_ _0749_ _0270_ VDD VSS MUX2_X1
X_2499_ mem\[1\]\[12\] _0650_ _0749_ _0271_ VDD VSS MUX2_X1
X_2500_ mem\[1\]\[13\] _0652_ _0749_ _0272_ VDD VSS MUX2_X1
X_2501_ mem\[1\]\[14\] _0654_ _0749_ _0273_ VDD VSS MUX2_X1
X_2502_ mem\[1\]\[15\] _0656_ _0749_ _0274_ VDD VSS MUX2_X1
X_2503_ mem\[1\]\[16\] _0658_ _0749_ _0275_ VDD VSS MUX2_X1
X_2504_ mem\[1\]\[17\] _0660_ _0749_ _0276_ VDD VSS MUX2_X1
X_2505_ mem\[1\]\[18\] _0662_ _0749_ _0277_ VDD VSS MUX2_X1
X_2506_ _0748_ _0750_ VDD VSS BUF_X8
X_2507_ mem\[1\]\[19\] _0665_ _0750_ _0278_ VDD VSS MUX2_X1
X_2508_ mem\[1\]\[1\] _0668_ _0750_ _0279_ VDD VSS MUX2_X1
X_2509_ mem\[1\]\[20\] _0670_ _0750_ _0280_ VDD VSS MUX2_X1
X_2510_ mem\[1\]\[21\] _0672_ _0750_ _0281_ VDD VSS MUX2_X1
X_2511_ mem\[1\]\[22\] _0674_ _0750_ _0282_ VDD VSS MUX2_X1
X_2512_ mem\[1\]\[23\] _0676_ _0750_ _0283_ VDD VSS MUX2_X1
X_2513_ mem\[1\]\[24\] _0678_ _0750_ _0284_ VDD VSS MUX2_X1
X_2514_ mem\[1\]\[25\] _0680_ _0750_ _0285_ VDD VSS MUX2_X1
X_2515_ mem\[1\]\[26\] _0682_ _0750_ _0286_ VDD VSS MUX2_X1
X_2516_ mem\[1\]\[27\] _0684_ _0750_ _0287_ VDD VSS MUX2_X1
X_2517_ _0748_ _0751_ VDD VSS BUF_X8
X_2518_ mem\[1\]\[28\] _0687_ _0751_ _0288_ VDD VSS MUX2_X1
X_2519_ mem\[1\]\[29\] _0690_ _0751_ _0289_ VDD VSS MUX2_X1
X_2520_ mem\[1\]\[2\] _0692_ _0751_ _0290_ VDD VSS MUX2_X1
X_2521_ mem\[1\]\[30\] _0694_ _0751_ _0291_ VDD VSS MUX2_X1
X_2522_ mem\[1\]\[31\] _0696_ _0751_ _0292_ VDD VSS MUX2_X1
X_2523_ mem\[1\]\[3\] _0698_ _0751_ _0293_ VDD VSS MUX2_X1
X_2524_ mem\[1\]\[4\] _0700_ _0751_ _0294_ VDD VSS MUX2_X1
X_2525_ mem\[1\]\[5\] _0702_ _0751_ _0295_ VDD VSS MUX2_X1
X_2526_ mem\[1\]\[6\] _0704_ _0751_ _0296_ VDD VSS MUX2_X1
X_2527_ mem\[1\]\[7\] _0706_ _0751_ _0297_ VDD VSS MUX2_X1
X_2528_ mem\[1\]\[8\] _0708_ _0748_ _0298_ VDD VSS MUX2_X1
X_2529_ mem\[1\]\[9\] _0710_ _0748_ _0299_ VDD VSS MUX2_X1
X_2530_ _2109_ _0641_ _0752_ VDD VSS NAND2_X1
X_2531_ _0630_ _0718_ _0752_ _0753_ VDD VSS NOR3_X4
X_2532_ _0753_ _0754_ VDD VSS BUF_X4
X_2533_ mem\[2\]\[0\] _0622_ _0754_ _0300_ VDD VSS MUX2_X1
X_2534_ mem\[2\]\[10\] _0646_ _0754_ _0301_ VDD VSS MUX2_X1
X_2535_ mem\[2\]\[11\] _0648_ _0754_ _0302_ VDD VSS MUX2_X1
X_2536_ mem\[2\]\[12\] _0650_ _0754_ _0303_ VDD VSS MUX2_X1
X_2537_ mem\[2\]\[13\] _0652_ _0754_ _0304_ VDD VSS MUX2_X1
X_2538_ mem\[2\]\[14\] _0654_ _0754_ _0305_ VDD VSS MUX2_X1
X_2539_ mem\[2\]\[15\] _0656_ _0754_ _0306_ VDD VSS MUX2_X1
X_2540_ mem\[2\]\[16\] _0658_ _0754_ _0307_ VDD VSS MUX2_X1
X_2541_ mem\[2\]\[17\] _0660_ _0754_ _0308_ VDD VSS MUX2_X1
X_2542_ mem\[2\]\[18\] _0662_ _0754_ _0309_ VDD VSS MUX2_X1
X_2543_ _0753_ _0755_ VDD VSS BUF_X4
X_2544_ mem\[2\]\[19\] _0665_ _0755_ _0310_ VDD VSS MUX2_X1
X_2545_ mem\[2\]\[1\] _0668_ _0755_ _0311_ VDD VSS MUX2_X1
X_2546_ mem\[2\]\[20\] _0670_ _0755_ _0312_ VDD VSS MUX2_X1
X_2547_ mem\[2\]\[21\] _0672_ _0755_ _0313_ VDD VSS MUX2_X1
X_2548_ mem\[2\]\[22\] _0674_ _0755_ _0314_ VDD VSS MUX2_X1
X_2549_ mem\[2\]\[23\] _0676_ _0755_ _0315_ VDD VSS MUX2_X1
X_2550_ mem\[2\]\[24\] _0678_ _0755_ _0316_ VDD VSS MUX2_X1
X_2551_ mem\[2\]\[25\] _0680_ _0755_ _0317_ VDD VSS MUX2_X1
X_2552_ mem\[2\]\[26\] _0682_ _0755_ _0318_ VDD VSS MUX2_X1
X_2553_ mem\[2\]\[27\] _0684_ _0755_ _0319_ VDD VSS MUX2_X1
X_2554_ _0753_ _0756_ VDD VSS BUF_X4
X_2555_ mem\[2\]\[28\] _0687_ _0756_ _0320_ VDD VSS MUX2_X1
X_2556_ mem\[2\]\[29\] _0690_ _0756_ _0321_ VDD VSS MUX2_X1
X_2557_ mem\[2\]\[2\] _0692_ _0756_ _0322_ VDD VSS MUX2_X1
X_2558_ mem\[2\]\[30\] _0694_ _0756_ _0323_ VDD VSS MUX2_X1
X_2559_ mem\[2\]\[31\] _0696_ _0756_ _0324_ VDD VSS MUX2_X1
X_2560_ mem\[2\]\[3\] _0698_ _0756_ _0325_ VDD VSS MUX2_X1
X_2561_ mem\[2\]\[4\] _0700_ _0756_ _0326_ VDD VSS MUX2_X1
X_2562_ mem\[2\]\[5\] _0702_ _0756_ _0327_ VDD VSS MUX2_X1
X_2563_ mem\[2\]\[6\] _0704_ _0756_ _0328_ VDD VSS MUX2_X1
X_2564_ mem\[2\]\[7\] _0706_ _0756_ _0329_ VDD VSS MUX2_X1
X_2565_ mem\[2\]\[8\] _0708_ _0753_ _0330_ VDD VSS MUX2_X1
X_2566_ mem\[2\]\[9\] _0710_ _0753_ _0331_ VDD VSS MUX2_X1
X_2567_ _0719_ _0641_ _0757_ VDD VSS NAND2_X1
X_2568_ _0630_ _0718_ _0757_ _0758_ VDD VSS NOR3_X4
X_2569_ _0758_ _0759_ VDD VSS BUF_X4
X_2570_ mem\[3\]\[0\] _0622_ _0759_ _0332_ VDD VSS MUX2_X1
X_2571_ mem\[3\]\[10\] _0646_ _0759_ _0333_ VDD VSS MUX2_X1
X_2572_ mem\[3\]\[11\] _0648_ _0759_ _0334_ VDD VSS MUX2_X1
X_2573_ mem\[3\]\[12\] _0650_ _0759_ _0335_ VDD VSS MUX2_X1
X_2574_ mem\[3\]\[13\] _0652_ _0759_ _0336_ VDD VSS MUX2_X1
X_2575_ mem\[3\]\[14\] _0654_ _0759_ _0337_ VDD VSS MUX2_X1
X_2576_ mem\[3\]\[15\] _0656_ _0759_ _0338_ VDD VSS MUX2_X1
X_2577_ mem\[3\]\[16\] _0658_ _0759_ _0339_ VDD VSS MUX2_X1
X_2578_ mem\[3\]\[17\] _0660_ _0759_ _0340_ VDD VSS MUX2_X1
X_2579_ mem\[3\]\[18\] _0662_ _0759_ _0341_ VDD VSS MUX2_X1
X_2580_ _0758_ _0760_ VDD VSS BUF_X4
X_2581_ mem\[3\]\[19\] _0665_ _0760_ _0342_ VDD VSS MUX2_X1
X_2582_ mem\[3\]\[1\] _0668_ _0760_ _0343_ VDD VSS MUX2_X1
X_2583_ mem\[3\]\[20\] _0670_ _0760_ _0344_ VDD VSS MUX2_X1
X_2584_ mem\[3\]\[21\] _0672_ _0760_ _0345_ VDD VSS MUX2_X1
X_2585_ mem\[3\]\[22\] _0674_ _0760_ _0346_ VDD VSS MUX2_X1
X_2586_ mem\[3\]\[23\] _0676_ _0760_ _0347_ VDD VSS MUX2_X1
X_2587_ mem\[3\]\[24\] _0678_ _0760_ _0348_ VDD VSS MUX2_X1
X_2588_ mem\[3\]\[25\] _0680_ _0760_ _0349_ VDD VSS MUX2_X1
X_2589_ mem\[3\]\[26\] _0682_ _0760_ _0350_ VDD VSS MUX2_X1
X_2590_ mem\[3\]\[27\] _0684_ _0760_ _0351_ VDD VSS MUX2_X1
X_2591_ _0758_ _0761_ VDD VSS BUF_X4
X_2592_ mem\[3\]\[28\] _0687_ _0761_ _0352_ VDD VSS MUX2_X1
X_2593_ mem\[3\]\[29\] _0690_ _0761_ _0353_ VDD VSS MUX2_X1
X_2594_ mem\[3\]\[2\] _0692_ _0761_ _0354_ VDD VSS MUX2_X1
X_2595_ mem\[3\]\[30\] _0694_ _0761_ _0355_ VDD VSS MUX2_X1
X_2596_ mem\[3\]\[31\] _0696_ _0761_ _0356_ VDD VSS MUX2_X1
X_2597_ mem\[3\]\[3\] _0698_ _0761_ _0357_ VDD VSS MUX2_X1
X_2598_ mem\[3\]\[4\] _0700_ _0761_ _0358_ VDD VSS MUX2_X1
X_2599_ mem\[3\]\[5\] _0702_ _0761_ _0359_ VDD VSS MUX2_X1
X_2600_ mem\[3\]\[6\] _0704_ _0761_ _0360_ VDD VSS MUX2_X1
X_2601_ mem\[3\]\[7\] _0706_ _0761_ _0361_ VDD VSS MUX2_X1
X_2602_ mem\[3\]\[8\] _0708_ _0758_ _0362_ VDD VSS MUX2_X1
X_2603_ mem\[3\]\[9\] _0710_ _0758_ _0363_ VDD VSS MUX2_X1
X_2604_ wr_ptr\[3\] _0725_ _0762_ VDD VSS NOR2_X2
X_2605_ _2108_ _0762_ _0763_ VDD VSS NAND2_X1
X_2606_ _0630_ _0718_ _0763_ _0764_ VDD VSS NOR3_X4
X_2607_ _0764_ _0765_ VDD VSS BUF_X4
X_2608_ mem\[4\]\[0\] _0621_ _0765_ _0364_ VDD VSS MUX2_X1
X_2609_ mem\[4\]\[10\] _0645_ _0765_ _0365_ VDD VSS MUX2_X1
X_2610_ mem\[4\]\[11\] _0647_ _0765_ _0366_ VDD VSS MUX2_X1
X_2611_ mem\[4\]\[12\] _0649_ _0765_ _0367_ VDD VSS MUX2_X1
X_2612_ mem\[4\]\[13\] _0651_ _0765_ _0368_ VDD VSS MUX2_X1
X_2613_ mem\[4\]\[14\] _0653_ _0765_ _0369_ VDD VSS MUX2_X1
X_2614_ mem\[4\]\[15\] _0655_ _0765_ _0370_ VDD VSS MUX2_X1
X_2615_ mem\[4\]\[16\] _0657_ _0765_ _0371_ VDD VSS MUX2_X1
X_2616_ mem\[4\]\[17\] _0659_ _0765_ _0372_ VDD VSS MUX2_X1
X_2617_ mem\[4\]\[18\] _0661_ _0765_ _0373_ VDD VSS MUX2_X1
X_2618_ _0764_ _0766_ VDD VSS BUF_X4
X_2619_ mem\[4\]\[19\] _0664_ _0766_ _0374_ VDD VSS MUX2_X1
X_2620_ mem\[4\]\[1\] _0667_ _0766_ _0375_ VDD VSS MUX2_X1
X_2621_ mem\[4\]\[20\] _0669_ _0766_ _0376_ VDD VSS MUX2_X1
X_2622_ mem\[4\]\[21\] _0671_ _0766_ _0377_ VDD VSS MUX2_X1
X_2623_ mem\[4\]\[22\] _0673_ _0766_ _0378_ VDD VSS MUX2_X1
X_2624_ mem\[4\]\[23\] _0675_ _0766_ _0379_ VDD VSS MUX2_X1