* CDL Netlist generated by OpenROAD

*.BUSDELIMITER [

.SUBCKT shift_register_left clk en load parallel_in[0] parallel_in[1]
+ parallel_in[2] parallel_in[3] parallel_in[4] parallel_in[5]
+ parallel_in[6] parallel_in[7] parallel_out[0] parallel_out[1]
+ parallel_out[2] parallel_out[3] parallel_out[4] parallel_out[5]
+ parallel_out[6] parallel_out[7] rst_n serial_in serial_out
X_16_ net13 net12 net2 _08_ VDD VSS gf180mcu_fd_sc_mcu9t5v0__mux2_2
X_17_ _08_ net4 net3 _00_ VDD VSS gf180mcu_fd_sc_mcu9t5v0__mux2_2
X_18_ net14 net13 net2 _09_ VDD VSS gf180mcu_fd_sc_mcu9t5v0__mux2_2
X_19_ _09_ net5 net3 _01_ VDD VSS gf180mcu_fd_sc_mcu9t5v0__mux2_2
X_20_ net15 net14 net2 _10_ VDD VSS gf180mcu_fd_sc_mcu9t5v0__mux2_2
X_21_ _10_ net6 net3 _02_ VDD VSS gf180mcu_fd_sc_mcu9t5v0__mux2_2
X_22_ net16 net15 net2 _11_ VDD VSS gf180mcu_fd_sc_mcu9t5v0__mux2_2
X_23_ _11_ net7 net3 _03_ VDD VSS gf180mcu_fd_sc_mcu9t5v0__mux2_2
X_24_ net17 net16 net2 _12_ VDD VSS gf180mcu_fd_sc_mcu9t5v0__mux2_2
X_25_ _12_ net8 net3 _04_ VDD VSS gf180mcu_fd_sc_mcu9t5v0__mux2_2
X_26_ net18 net17 net2 _13_ VDD VSS gf180mcu_fd_sc_mcu9t5v0__mux2_2
X_27_ _13_ net9 net3 _05_ VDD VSS gf180mcu_fd_sc_mcu9t5v0__mux2_2
X_28_ net19 net18 net2 _14_ VDD VSS gf180mcu_fd_sc_mcu9t5v0__mux2_2
X_29_ _14_ net10 net3 _06_ VDD VSS gf180mcu_fd_sc_mcu9t5v0__mux2_2
X_30_ net21 net19 net2 _15_ VDD VSS gf180mcu_fd_sc_mcu9t5v0__mux2_2
X_31_ _15_ net11 net3 _07_ VDD VSS gf180mcu_fd_sc_mcu9t5v0__mux2_2
X_32_ net21 net20 VDD VSS gf180mcu_fd_sc_mcu9t5v0__dlyb_2
Xparallel_out\[0\]$_DFFE_PN0P_ _00_ net1 clknet_1_0__leaf_clk
+ net13 VDD VSS gf180mcu_fd_sc_mcu9t5v0__dffrnq_2
Xparallel_out\[1\]$_DFFE_PN0P_ _01_ net1 clknet_1_0__leaf_clk
+ net14 VDD VSS gf180mcu_fd_sc_mcu9t5v0__dffrnq_2
Xparallel_out\[2\]$_DFFE_PN0P_ _02_ net1 clknet_1_0__leaf_clk
+ net15 VDD VSS gf180mcu_fd_sc_mcu9t5v0__dffrnq_2
Xparallel_out\[3\]$_DFFE_PN0P_ _03_ net1 clknet_1_0__leaf_clk
+ net16 VDD VSS gf180mcu_fd_sc_mcu9t5v0__dffrnq_2
Xparallel_out\[4\]$_DFFE_PN0P_ _04_ net1 clknet_1_1__leaf_clk
+ net17 VDD VSS gf180mcu_fd_sc_mcu9t5v0__dffrnq_2
Xparallel_out\[5\]$_DFFE_PN0P_ _05_ net1 clknet_1_1__leaf_clk
+ net18 VDD VSS gf180mcu_fd_sc_mcu9t5v0__dffrnq_2
Xparallel_out\[6\]$_DFFE_PN0P_ _06_ net1 clknet_1_1__leaf_clk
+ net19 VDD VSS gf180mcu_fd_sc_mcu9t5v0__dffrnq_2
Xparallel_out\[7\]$_DFFE_PN0P_ _07_ net1 clknet_1_1__leaf_clk
+ net21 VDD VSS gf180mcu_fd_sc_mcu9t5v0__dffrnq_2
Xhold1 net22 net1 VDD VSS gf180mcu_fd_sc_mcu9t5v0__buf_3
XPHY_EDGE_ROW_0_Right_0 VDD VSS gf180mcu_fd_sc_mcu9t5v0__endcap
XPHY_EDGE_ROW_1_Right_1 VDD VSS gf180mcu_fd_sc_mcu9t5v0__endcap
XPHY_EDGE_ROW_2_Right_2 VDD VSS gf180mcu_fd_sc_mcu9t5v0__endcap
XPHY_EDGE_ROW_3_Right_3 VDD VSS gf180mcu_fd_sc_mcu9t5v0__endcap
XPHY_EDGE_ROW_4_Right_4 VDD VSS gf180mcu_fd_sc_mcu9t5v0__endcap
XPHY_EDGE_ROW_5_Right_5 VDD VSS gf180mcu_fd_sc_mcu9t5v0__endcap
XPHY_EDGE_ROW_6_Right_6 VDD VSS gf180mcu_fd_sc_mcu9t5v0__endcap
XPHY_EDGE_ROW_7_Right_7 VDD VSS gf180mcu_fd_sc_mcu9t5v0__endcap
XPHY_EDGE_ROW_8_Right_8 VDD VSS gf180mcu_fd_sc_mcu9t5v0__endcap
XPHY_EDGE_ROW_9_Right_9 VDD VSS gf180mcu_fd_sc_mcu9t5v0__endcap
XPHY_EDGE_ROW_10_Right_10 VDD VSS gf180mcu_fd_sc_mcu9t5v0__endcap
XPHY_EDGE_ROW_11_Right_11 VDD VSS gf180mcu_fd_sc_mcu9t5v0__endcap
XPHY_EDGE_ROW_12_Right_12 VDD VSS gf180mcu_fd_sc_mcu9t5v0__endcap
XPHY_EDGE_ROW_13_Right_13 VDD VSS gf180mcu_fd_sc_mcu9t5v0__endcap
XPHY_EDGE_ROW_14_Right_14 VDD VSS gf180mcu_fd_sc_mcu9t5v0__endcap
XPHY_EDGE_ROW_15_Right_15 VDD VSS gf180mcu_fd_sc_mcu9t5v0__endcap
XPHY_EDGE_ROW_16_Right_16 VDD VSS gf180mcu_fd_sc_mcu9t5v0__endcap
XPHY_EDGE_ROW_17_Right_17 VDD VSS gf180mcu_fd_sc_mcu9t5v0__endcap
XPHY_EDGE_ROW_18_Right_18 VDD VSS gf180mcu_fd_sc_mcu9t5v0__endcap
XPHY_EDGE_ROW_19_Right_19 VDD VSS gf180mcu_fd_sc_mcu9t5v0__endcap
XPHY_EDGE_ROW_20_Right_20 VDD VSS gf180mcu_fd_sc_mcu9t5v0__endcap
XPHY_EDGE_ROW_21_Right_21 VDD VSS gf180mcu_fd_sc_mcu9t5v0__endcap
XPHY_EDGE_ROW_22_Right_22 VDD VSS gf180mcu_fd_sc_mcu9t5v0__endcap
XPHY_EDGE_ROW_23_Right_23 VDD VSS gf180mcu_fd_sc_mcu9t5v0__endcap
XPHY_EDGE_ROW_24_Right_24 VDD VSS gf180mcu_fd_sc_mcu9t5v0__endcap
XPHY_EDGE_ROW_25_Right_25 VDD VSS gf180mcu_fd_sc_mcu9t5v0__endcap
XPHY_EDGE_ROW_26_Right_26 VDD VSS gf180mcu_fd_sc_mcu9t5v0__endcap
XPHY_EDGE_ROW_27_Right_27 VDD VSS gf180mcu_fd_sc_mcu9t5v0__endcap
XPHY_EDGE_ROW_28_Right_28 VDD VSS gf180mcu_fd_sc_mcu9t5v0__endcap
XPHY_EDGE_ROW_29_Right_29 VDD VSS gf180mcu_fd_sc_mcu9t5v0__endcap
XPHY_EDGE_ROW_30_Right_30 VDD VSS gf180mcu_fd_sc_mcu9t5v0__endcap
XPHY_EDGE_ROW_31_Right_31 VDD VSS gf180mcu_fd_sc_mcu9t5v0__endcap
XPHY_EDGE_ROW_32_Right_32 VDD VSS gf180mcu_fd_sc_mcu9t5v0__endcap
XPHY_EDGE_ROW_33_Right_33 VDD VSS gf180mcu_fd_sc_mcu9t5v0__endcap
XPHY_EDGE_ROW_34_Right_34 VDD VSS gf180mcu_fd_sc_mcu9t5v0__endcap
XPHY_EDGE_ROW_35_Right_35 VDD VSS gf180mcu_fd_sc_mcu9t5v0__endcap
XPHY_EDGE_ROW_36_Right_36 VDD VSS gf180mcu_fd_sc_mcu9t5v0__endcap
XPHY_EDGE_ROW_37_Right_37 VDD VSS gf180mcu_fd_sc_mcu9t5v0__endcap
XPHY_EDGE_ROW_38_Right_38 VDD VSS gf180mcu_fd_sc_mcu9t5v0__endcap
XPHY_EDGE_ROW_39_Right_39 VDD VSS gf180mcu_fd_sc_mcu9t5v0__endcap
XPHY_EDGE_ROW_40_Right_40 VDD VSS gf180mcu_fd_sc_mcu9t5v0__endcap
XPHY_EDGE_ROW_41_Right_41 VDD VSS gf180mcu_fd_sc_mcu9t5v0__endcap
XPHY_EDGE_ROW_42_Right_42 VDD VSS gf180mcu_fd_sc_mcu9t5v0__endcap
XPHY_EDGE_ROW_43_Right_43 VDD VSS gf180mcu_fd_sc_mcu9t5v0__endcap
XPHY_EDGE_ROW_44_Right_44 VDD VSS gf180mcu_fd_sc_mcu9t5v0__endcap
XPHY_EDGE_ROW_45_Right_45 VDD VSS gf180mcu_fd_sc_mcu9t5v0__endcap
XPHY_EDGE_ROW_46_Right_46 VDD VSS gf180mcu_fd_sc_mcu9t5v0__endcap
XPHY_EDGE_ROW_47_Right_47 VDD VSS gf180mcu_fd_sc_mcu9t5v0__endcap
XPHY_EDGE_ROW_48_Right_48 VDD VSS gf180mcu_fd_sc_mcu9t5v0__endcap
XPHY_EDGE_ROW_49_Right_49 VDD VSS gf180mcu_fd_sc_mcu9t5v0__endcap
XPHY_EDGE_ROW_50_Right_50 VDD VSS gf180mcu_fd_sc_mcu9t5v0__endcap
XPHY_EDGE_ROW_51_Right_51 VDD VSS gf180mcu_fd_sc_mcu9t5v0__endcap
XPHY_EDGE_ROW_52_Right_52 VDD VSS gf180mcu_fd_sc_mcu9t5v0__endcap
XPHY_EDGE_ROW_53_Right_53 VDD VSS gf180mcu_fd_sc_mcu9t5v0__endcap
XPHY_EDGE_ROW_54_Right_54 VDD VSS gf180mcu_fd_sc_mcu9t5v0__endcap
XPHY_EDGE_ROW_55_Right_55 VDD VSS gf180mcu_fd_sc_mcu9t5v0__endcap
XPHY_EDGE_ROW_56_Right_56 VDD VSS gf180mcu_fd_sc_mcu9t5v0__endcap
XPHY_EDGE_ROW_57_Right_57 VDD VSS gf180mcu_fd_sc_mcu9t5v0__endcap
XPHY_EDGE_ROW_58_Right_58 VDD VSS gf180mcu_fd_sc_mcu9t5v0__endcap
XPHY_EDGE_ROW_59_Right_59 VDD VSS gf180mcu_fd_sc_mcu9t5v0__endcap
XPHY_EDGE_ROW_60_Right_60 VDD VSS gf180mcu_fd_sc_mcu9t5v0__endcap
XPHY_EDGE_ROW_61_Right_61 VDD VSS gf180mcu_fd_sc_mcu9t5v0__endcap
XPHY_EDGE_ROW_62_Right_62 VDD VSS gf180mcu_fd_sc_mcu9t5v0__endcap
XPHY_EDGE_ROW_63_Right_63 VDD VSS gf180mcu_fd_sc_mcu9t5v0__endcap
XPHY_EDGE_ROW_64_Right_64 VDD VSS gf180mcu_fd_sc_mcu9t5v0__endcap
XPHY_EDGE_ROW_65_Right_65 VDD VSS gf180mcu_fd_sc_mcu9t5v0__endcap
XPHY_EDGE_ROW_66_Right_66 VDD VSS gf180mcu_fd_sc_mcu9t5v0__endcap
XPHY_EDGE_ROW_67_Right_67 VDD VSS gf180mcu_fd_sc_mcu9t5v0__endcap
XPHY_EDGE_ROW_68_Right_68 VDD VSS gf180mcu_fd_sc_mcu9t5v0__endcap
XPHY_EDGE_ROW_69_Right_69 VDD VSS gf180mcu_fd_sc_mcu9t5v0__endcap
XPHY_EDGE_ROW_70_Right_70 VDD VSS gf180mcu_fd_sc_mcu9t5v0__endcap
XPHY_EDGE_ROW_71_Right_71 VDD VSS gf180mcu_fd_sc_mcu9t5v0__endcap
XPHY_EDGE_ROW_72_Right_72 VDD VSS gf180mcu_fd_sc_mcu9t5v0__endcap
XPHY_EDGE_ROW_73_Right_73 VDD VSS gf180mcu_fd_sc_mcu9t5v0__endcap
XPHY_EDGE_ROW_74_Right_74 VDD VSS gf180mcu_fd_sc_mcu9t5v0__endcap
XPHY_EDGE_ROW_75_Right_75 VDD VSS gf180mcu_fd_sc_mcu9t5v0__endcap
XPHY_EDGE_ROW_76_Right_76 VDD VSS gf180mcu_fd_sc_mcu9t5v0__endcap
XPHY_EDGE_ROW_77_Right_77 VDD VSS gf180mcu_fd_sc_mcu9t5v0__endcap
XPHY_EDGE_ROW_78_Right_78 VDD VSS gf180mcu_fd_sc_mcu9t5v0__endcap
XPHY_EDGE_ROW_79_Right_79 VDD VSS gf180mcu_fd_sc_mcu9t5v0__endcap
XPHY_EDGE_ROW_80_Right_80 VDD VSS gf180mcu_fd_sc_mcu9t5v0__endcap
XPHY_EDGE_ROW_81_Right_81 VDD VSS gf180mcu_fd_sc_mcu9t5v0__endcap
XPHY_EDGE_ROW_82_Right_82 VDD VSS gf180mcu_fd_sc_mcu9t5v0__endcap
XPHY_EDGE_ROW_83_Right_83 VDD VSS gf180mcu_fd_sc_mcu9t5v0__endcap
XPHY_EDGE_ROW_84_Right_84 VDD VSS gf180mcu_fd_sc_mcu9t5v0__endcap
XPHY_EDGE_ROW_85_Right_85 VDD VSS gf180mcu_fd_sc_mcu9t5v0__endcap
XPHY_EDGE_ROW_86_Right_86 VDD VSS gf180mcu_fd_sc_mcu9t5v0__endcap
XPHY_EDGE_ROW_87_Right_87 VDD VSS gf180mcu_fd_sc_mcu9t5v0__endcap
XPHY_EDGE_ROW_88_Right_88 VDD VSS gf180mcu_fd_sc_mcu9t5v0__endcap
XPHY_EDGE_ROW_89_Right_89 VDD VSS gf180mcu_fd_sc_mcu9t5v0__endcap
XPHY_EDGE_ROW_90_Right_90 VDD VSS gf180mcu_fd_sc_mcu9t5v0__endcap
XPHY_EDGE_ROW_91_Right_91 VDD VSS gf180mcu_fd_sc_mcu9t5v0__endcap
XPHY_EDGE_ROW_92_Right_92 VDD VSS gf180mcu_fd_sc_mcu9t5v0__endcap
XPHY_EDGE_ROW_93_Right_93 VDD VSS gf180mcu_fd_sc_mcu9t5v0__endcap
XPHY_EDGE_ROW_94_Right_94 VDD VSS gf180mcu_fd_sc_mcu9t5v0__endcap
XPHY_EDGE_ROW_95_Right_95 VDD VSS gf180mcu_fd_sc_mcu9t5v0__endcap
XPHY_EDGE_ROW_96_Right_96 VDD VSS gf180mcu_fd_sc_mcu9t5v0__endcap
XPHY_EDGE_ROW_97_Right_97 VDD VSS gf180mcu_fd_sc_mcu9t5v0__endcap
XPHY_EDGE_ROW_98_Right_98 VDD VSS gf180mcu_fd_sc_mcu9t5v0__endcap
XPHY_EDGE_ROW_99_Right_99 VDD VSS gf180mcu_fd_sc_mcu9t5v0__endcap
XPHY_EDGE_ROW_100_Right_100 VDD VSS gf180mcu_fd_sc_mcu9t5v0__endcap
XPHY_EDGE_ROW_101_Right_101 VDD VSS gf180mcu_fd_sc_mcu9t5v0__endcap
XPHY_EDGE_ROW_0_Left_102 VDD VSS gf180mcu_fd_sc_mcu9t5v0__endcap
XPHY_EDGE_ROW_1_Left_103 VDD VSS gf180mcu_fd_sc_mcu9t5v0__endcap
XPHY_EDGE_ROW_2_Left_104 VDD VSS gf180mcu_fd_sc_mcu9t5v0__endcap
XPHY_EDGE_ROW_3_Left_105 VDD VSS gf180mcu_fd_sc_mcu9t5v0__endcap
XPHY_EDGE_ROW_4_Left_106 VDD VSS gf180mcu_fd_sc_mcu9t5v0__endcap
XPHY_EDGE_ROW_5_Left_107 VDD VSS gf180mcu_fd_sc_mcu9t5v0__endcap
XPHY_EDGE_ROW_6_Left_108 VDD VSS gf180mcu_fd_sc_mcu9t5v0__endcap
XPHY_EDGE_ROW_7_Left_109 VDD VSS gf180mcu_fd_sc_mcu9t5v0__endcap
XPHY_EDGE_ROW_8_Left_110 VDD VSS gf180mcu_fd_sc_mcu9t5v0__endcap
XPHY_EDGE_ROW_9_Left_111 VDD VSS gf180mcu_fd_sc_mcu9t5v0__endcap
XPHY_EDGE_ROW_10_Left_112 VDD VSS gf180mcu_fd_sc_mcu9t5v0__endcap
XPHY_EDGE_ROW_11_Left_113 VDD VSS gf180mcu_fd_sc_mcu9t5v0__endcap
XPHY_EDGE_ROW_12_Left_114 VDD VSS gf180mcu_fd_sc_mcu9t5v0__endcap
XPHY_EDGE_ROW_13_Left_115 VDD VSS gf180mcu_fd_sc_mcu9t5v0__endcap
XPHY_EDGE_ROW_14_Left_116 VDD VSS gf180mcu_fd_sc_mcu9t5v0__endcap
XPHY_EDGE_ROW_15_Left_117 VDD VSS gf180mcu_fd_sc_mcu9t5v0__endcap
XPHY_EDGE_ROW_16_Left_118 VDD VSS gf180mcu_fd_sc_mcu9t5v0__endcap
XPHY_EDGE_ROW_17_Left_119 VDD VSS gf180mcu_fd_sc_mcu9t5v0__endcap
XPHY_EDGE_ROW_18_Left_120 VDD VSS gf180mcu_fd_sc_mcu9t5v0__endcap
XPHY_EDGE_ROW_19_Left_121 VDD VSS gf180mcu_fd_sc_mcu9t5v0__endcap
XPHY_EDGE_ROW_20_Left_122 VDD VSS gf180mcu_fd_sc_mcu9t5v0__endcap
XPHY_EDGE_ROW_21_Left_123 VDD VSS gf180mcu_fd_sc_mcu9t5v0__endcap
XPHY_EDGE_ROW_22_Left_124 VDD VSS gf180mcu_fd_sc_mcu9t5v0__endcap
XPHY_EDGE_ROW_23_Left_125 VDD VSS gf180mcu_fd_sc_mcu9t5v0__endcap
XPHY_EDGE_ROW_24_Left_126 VDD VSS gf180mcu_fd_sc_mcu9t5v0__endcap
XPHY_EDGE_ROW_25_Left_127 VDD VSS gf180mcu_fd_sc_mcu9t5v0__endcap
XPHY_EDGE_ROW_26_Left_128 VDD VSS gf180mcu_fd_sc_mcu9t5v0__endcap
XPHY_EDGE_ROW_27_Left_129 VDD VSS gf180mcu_fd_sc_mcu9t5v0__endcap
XPHY_EDGE_ROW_28_Left_130 VDD VSS gf180mcu_fd_sc_mcu9t5v0__endcap
XPHY_EDGE_ROW_29_Left_131 VDD VSS gf180mcu_fd_sc_mcu9t5v0__endcap
XPHY_EDGE_ROW_30_Left_132 VDD VSS gf180mcu_fd_sc_mcu9t5v0__endcap
XPHY_EDGE_ROW_31_Left_133 VDD VSS gf180mcu_fd_sc_mcu9t5v0__endcap
XPHY_EDGE_ROW_32_Left_134 VDD VSS gf180mcu_fd_sc_mcu9t5v0__endcap
XPHY_EDGE_ROW_33_Left_135 VDD VSS gf180mcu_fd_sc_mcu9t5v0__endcap
XPHY_EDGE_ROW_34_Left_136 VDD VSS gf180mcu_fd_sc_mcu9t5v0__endcap
XPHY_EDGE_ROW_35_Left_137 VDD VSS gf180mcu_fd_sc_mcu9t5v0__endcap
XPHY_EDGE_ROW_36_Left_138 VDD VSS gf180mcu_fd_sc_mcu9t5v0__endcap
XPHY_EDGE_ROW_37_Left_139 VDD VSS gf180mcu_fd_sc_mcu9t5v0__endcap
XPHY_EDGE_ROW_38_Left_140 VDD VSS gf180mcu_fd_sc_mcu9t5v0__endcap
XPHY_EDGE_ROW_39_Left_141 VDD VSS gf180mcu_fd_sc_mcu9t5v0__endcap
XPHY_EDGE_ROW_40_Left_142 VDD VSS gf180mcu_fd_sc_mcu9t5v0__endcap
XPHY_EDGE_ROW_41_Left_143 VDD VSS gf180mcu_fd_sc_mcu9t5v0__endcap
XPHY_EDGE_ROW_42_Left_144 VDD VSS gf180mcu_fd_sc_mcu9t5v0__endcap
XPHY_EDGE_ROW_43_Left_145 VDD VSS gf180mcu_fd_sc_mcu9t5v0__endcap
XPHY_EDGE_ROW_44_Left_146 VDD VSS gf180mcu_fd_sc_mcu9t5v0__endcap
XPHY_EDGE_ROW_45_Left_147 VDD VSS gf180mcu_fd_sc_mcu9t5v0__endcap
XPHY_EDGE_ROW_46_Left_148 VDD VSS gf180mcu_fd_sc_mcu9t5v0__endcap
XPHY_EDGE_ROW_47_Left_149 VDD VSS gf180mcu_fd_sc_mcu9t5v0__endcap
XPHY_EDGE_ROW_48_Left_150 VDD VSS gf180mcu_fd_sc_mcu9t5v0__endcap
XPHY_EDGE_ROW_49_Left_151 VDD VSS gf180mcu_fd_sc_mcu9t5v0__endcap
XPHY_EDGE_ROW_50_Left_152 VDD VSS gf180mcu_fd_sc_mcu9t5v0__endcap
XPHY_EDGE_ROW_51_Left_153 VDD VSS gf180mcu_fd_sc_mcu9t5v0__endcap
XPHY_EDGE_ROW_52_Left_154 VDD VSS gf180mcu_fd_sc_mcu9t5v0__endcap
XPHY_EDGE_ROW_53_Left_155 VDD VSS gf180mcu_fd_sc_mcu9t5v0__endcap
XPHY_EDGE_ROW_54_Left_156 VDD VSS gf180mcu_fd_sc_mcu9t5v0__endcap
XPHY_EDGE_ROW_55_Left_157 VDD VSS gf180mcu_fd_sc_mcu9t5v0__endcap
XPHY_EDGE_ROW_56_Left_158 VDD VSS gf180mcu_fd_sc_mcu9t5v0__endcap
XPHY_EDGE_ROW_57_Left_159 VDD VSS gf180mcu_fd_sc_mcu9t5v0__endcap
XPHY_EDGE_ROW_58_Left_160 VDD VSS gf180mcu_fd_sc_mcu9t5v0__endcap
XPHY_EDGE_ROW_59_Left_161 VDD VSS gf180mcu_fd_sc_mcu9t5v0__endcap
XPHY_EDGE_ROW_60_Left_162 VDD VSS gf180mcu_fd_sc_mcu9t5v0__endcap
XPHY_EDGE_ROW_61_Left_163 VDD VSS gf180mcu_fd_sc_mcu9t5v0__endcap
XPHY_EDGE_ROW_62_Left_164 VDD VSS gf180mcu_fd_sc_mcu9t5v0__endcap
XPHY_EDGE_ROW_63_Left_165 VDD VSS gf180mcu_fd_sc_mcu9t5v0__endcap
XPHY_EDGE_ROW_64_Left_166 VDD VSS gf180mcu_fd_sc_mcu9t5v0__endcap
XPHY_EDGE_ROW_65_Left_167 VDD VSS gf180mcu_fd_sc_mcu9t5v0__endcap
XPHY_EDGE_ROW_66_Left_168 VDD VSS gf180mcu_fd_sc_mcu9t5v0__endcap
XPHY_EDGE_ROW_67_Left_169 VDD VSS gf180mcu_fd_sc_mcu9t5v0__endcap
XPHY_EDGE_ROW_68_Left_170 VDD VSS gf180mcu_fd_sc_mcu9t5v0__endcap
XPHY_EDGE_ROW_69_Left_171 VDD VSS gf180mcu_fd_sc_mcu9t5v0__endcap
XPHY_EDGE_ROW_70_Left_172 VDD VSS gf180mcu_fd_sc_mcu9t5v0__endcap
XPHY_EDGE_ROW_71_Left_173 VDD VSS gf180mcu_fd_sc_mcu9t5v0__endcap
XPHY_EDGE_ROW_72_Left_174 VDD VSS gf180mcu_fd_sc_mcu9t5v0__endcap
XPHY_EDGE_ROW_73_Left_175 VDD VSS gf180mcu_fd_sc_mcu9t5v0__endcap
XPHY_EDGE_ROW_74_Left_176 VDD VSS gf180mcu_fd_sc_mcu9t5v0__endcap
XPHY_EDGE_ROW_75_Left_177 VDD VSS gf180mcu_fd_sc_mcu9t5v0__endcap
XPHY_EDGE_ROW_76_Left_178 VDD VSS gf180mcu_fd_sc_mcu9t5v0__endcap
XPHY_EDGE_ROW_77_Left_179 VDD VSS gf180mcu_fd_sc_mcu9t5v0__endcap
XPHY_EDGE_ROW_78_Left_180 VDD VSS gf180mcu_fd_sc_mcu9t5v0__endcap
XPHY_EDGE_ROW_79_Left_181 VDD VSS gf180mcu_fd_sc_mcu9t5v0__endcap
XPHY_EDGE_ROW_80_Left_182 VDD VSS gf180mcu_fd_sc_mcu9t5v0__endcap
XPHY_EDGE_ROW_81_Left_183 VDD VSS gf180mcu_fd_sc_mcu9t5v0__endcap
XPHY_EDGE_ROW_82_Left_184 VDD VSS gf180mcu_fd_sc_mcu9t5v0__endcap
XPHY_EDGE_ROW_83_Left_185 VDD VSS gf180mcu_fd_sc_mcu9t5v0__endcap
XPHY_EDGE_ROW_84_Left_186 VDD VSS gf180mcu_fd_sc_mcu9t5v0__endcap
XPHY_EDGE_ROW_85_Left_187 VDD VSS gf180mcu_fd_sc_mcu9t5v0__endcap
XPHY_EDGE_ROW_86_Left_188 VDD VSS gf180mcu_fd_sc_mcu9t5v0__endcap
XPHY_EDGE_ROW_87_Left_189 VDD VSS gf180mcu_fd_sc_mcu9t5v0__endcap
XPHY_EDGE_ROW_88_Left_190 VDD VSS gf180mcu_fd_sc_mcu9t5v0__endcap
XPHY_EDGE_ROW_89_Left_191 VDD VSS gf180mcu_fd_sc_mcu9t5v0__endcap
XPHY_EDGE_ROW_90_Left_192 VDD VSS gf180mcu_fd_sc_mcu9t5v0__endcap
XPHY_EDGE_ROW_91_Left_193 VDD VSS gf180mcu_fd_sc_mcu9t5v0__endcap
XPHY_EDGE_ROW_92_Left_194 VDD VSS gf180mcu_fd_sc_mcu9t5v0__endcap
XPHY_EDGE_ROW_93_Left_195 VDD VSS gf180mcu_fd_sc_mcu9t5v0__endcap
XPHY_EDGE_ROW_94_Left_196 VDD VSS gf180mcu_fd_sc_mcu9t5v0__endcap
XPHY_EDGE_ROW_95_Left_197 VDD VSS gf180mcu_fd_sc_mcu9t5v0__endcap
XPHY_EDGE_ROW_96_Left_198 VDD VSS gf180mcu_fd_sc_mcu9t5v0__endcap
XPHY_EDGE_ROW_97_Left_199 VDD VSS gf180mcu_fd_sc_mcu9t5v0__endcap
XPHY_EDGE_ROW_98_Left_200 VDD VSS gf180mcu_fd_sc_mcu9t5v0__endcap
XPHY_EDGE_ROW_99_Left_201 VDD VSS gf180mcu_fd_sc_mcu9t5v0__endcap
XPHY_EDGE_ROW_100_Left_202 VDD VSS gf180mcu_fd_sc_mcu9t5v0__endcap
XPHY_EDGE_ROW_101_Left_203 VDD VSS gf180mcu_fd_sc_mcu9t5v0__endcap
XTAP_TAPCELL_ROW_0_204 VDD VSS gf180mcu_fd_sc_mcu9t5v0__filltie
XTAP_TAPCELL_ROW_0_205 VDD VSS gf180mcu_fd_sc_mcu9t5v0__filltie
XTAP_TAPCELL_ROW_0_206 VDD VSS gf180mcu_fd_sc_mcu9t5v0__filltie
XTAP_TAPCELL_ROW_0_207 VDD VSS gf180mcu_fd_sc_mcu9t5v0__filltie
XTAP_TAPCELL_ROW_0_208 VDD VSS gf180mcu_fd_sc_mcu9t5v0__filltie
XTAP_TAPCELL_ROW_1_209 VDD VSS gf180mcu_fd_sc_mcu9t5v0__filltie
XTAP_TAPCELL_ROW_1_210 VDD VSS gf180mcu_fd_sc_mcu9t5v0__filltie
XTAP_TAPCELL_ROW_2_211 VDD VSS gf180mcu_fd_sc_mcu9t5v0__filltie
XTAP_TAPCELL_ROW_2_212 VDD VSS gf180mcu_fd_sc_mcu9t5v0__filltie
XTAP_TAPCELL_ROW_2_213 VDD VSS gf180mcu_fd_sc_mcu9t5v0__filltie
XTAP_TAPCELL_ROW_3_214 VDD VSS gf180mcu_fd_sc_mcu9t5v0__filltie
XTAP_TAPCELL_ROW_3_215 VDD VSS gf180mcu_fd_sc_mcu9t5v0__filltie
XTAP_TAPCELL_ROW_4_216 VDD VSS gf180mcu_fd_sc_mcu9t5v0__filltie
XTAP_TAPCELL_ROW_4_217 VDD VSS gf180mcu_fd_sc_mcu9t5v0__filltie
XTAP_TAPCELL_ROW_4_218 VDD VSS gf180mcu_fd_sc_mcu9t5v0__filltie
XTAP_TAPCELL_ROW_5_219 VDD VSS gf180mcu_fd_sc_mcu9t5v0__filltie
XTAP_TAPCELL_ROW_5_220 VDD VSS gf180mcu_fd_sc_mcu9t5v0__filltie
XTAP_TAPCELL_ROW_6_221 VDD VSS gf180mcu_fd_sc_mcu9t5v0__filltie
XTAP_TAPCELL_ROW_6_222 VDD VSS gf180mcu_fd_sc_mcu9t5v0__filltie
XTAP_TAPCELL_ROW_6_223 VDD VSS gf180mcu_fd_sc_mcu9t5v0__filltie
XTAP_TAPCELL_ROW_7_224 VDD VSS gf180mcu_fd_sc_mcu9t5v0__filltie
XTAP_TAPCELL_ROW_7_225 VDD VSS gf180mcu_fd_sc_mcu9t5v0__filltie
XTAP_TAPCELL_ROW_8_226 VDD VSS gf180mcu_fd_sc_mcu9t5v0__filltie
XTAP_TAPCELL_ROW_8_227 VDD VSS gf180mcu_fd_sc_mcu9t5v0__filltie
XTAP_TAPCELL_ROW_8_228 VDD VSS gf180mcu_fd_sc_mcu9t5v0__filltie
XTAP_TAPCELL_ROW_9_229 VDD VSS gf180mcu_fd_sc_mcu9t5v0__filltie
XTAP_TAPCELL_ROW_9_230 VDD VSS gf180mcu_fd_sc_mcu9t5v0__filltie
XTAP_TAPCELL_ROW_10_231 VDD VSS gf180mcu_fd_sc_mcu9t5v0__filltie
XTAP_TAPCELL_ROW_10_232 VDD VSS gf180mcu_fd_sc_mcu9t5v0__filltie
XTAP_TAPCELL_ROW_10_233 VDD VSS gf180mcu_fd_sc_mcu9t5v0__filltie
XTAP_TAPCELL_ROW_11_234 VDD VSS gf180mcu_fd_sc_mcu9t5v0__filltie
XTAP_TAPCELL_ROW_11_235 VDD VSS gf180mcu_fd_sc_mcu9t5v0__filltie
XTAP_TAPCELL_ROW_12_236 VDD VSS gf180mcu_fd_sc_mcu9t5v0__filltie
XTAP_TAPCELL_ROW_12_237 VDD VSS gf180mcu_fd_sc_mcu9t5v0__filltie
XTAP_TAPCELL_ROW_12_238 VDD VSS gf180mcu_fd_sc_mcu9t5v0__filltie
XTAP_TAPCELL_ROW_13_239 VDD VSS gf180mcu_fd_sc_mcu9t5v0__filltie
XTAP_TAPCELL_ROW_13_240 VDD VSS gf180mcu_fd_sc_mcu9t5v0__filltie
XTAP_TAPCELL_ROW_14_241 VDD VSS gf180mcu_fd_sc_mcu9t5v0__filltie
XTAP_TAPCELL_ROW_14_242 VDD VSS gf180mcu_fd_sc_mcu9t5v0__filltie
XTAP_TAPCELL_ROW_14_243 VDD VSS gf180mcu_fd_sc_mcu9t5v0__filltie
XTAP_TAPCELL_ROW_15_244 VDD VSS gf180mcu_fd_sc_mcu9t5v0__filltie
XTAP_TAPCELL_ROW_15_245 VDD VSS gf180mcu_fd_sc_mcu9t5v0__filltie
XTAP_TAPCELL_ROW_16_246 VDD VSS gf180mcu_fd_sc_mcu9t5v0__filltie
XTAP_TAPCELL_ROW_16_247 VDD VSS gf180mcu_fd_sc_mcu9t5v0__filltie
XTAP_TAPCELL_ROW_16_248 VDD VSS gf180mcu_fd_sc_mcu9t5v0__filltie
XTAP_TAPCELL_ROW_17_249 VDD VSS gf180mcu_fd_sc_mcu9t5v0__filltie
XTAP_TAPCELL_ROW_17_250 VDD VSS gf180mcu_fd_sc_mcu9t5v0__filltie
XTAP_TAPCELL_ROW_18_251 VDD VSS gf180mcu_fd_sc_mcu9t5v0__filltie
XTAP_TAPCELL_ROW_18_252 VDD VSS gf180mcu_fd_sc_mcu9t5v0__filltie
XTAP_TAPCELL_ROW_18_253 VDD VSS gf180mcu_fd_sc_mcu9t5v0__filltie
XTAP_TAPCELL_ROW_19_254 VDD VSS gf180mcu_fd_sc_mcu9t5v0__filltie
XTAP_TAPCELL_ROW_19_255 VDD VSS gf180mcu_fd_sc_mcu9t5v0__filltie
XTAP_TAPCELL_ROW_20_256 VDD VSS gf180mcu_fd_sc_mcu9t5v0__filltie
XTAP_TAPCELL_ROW_20_257 VDD VSS gf180mcu_fd_sc_mcu9t5v0__filltie
XTAP_TAPCELL_ROW_20_258 VDD VSS gf180mcu_fd_sc_mcu9t5v0__filltie
XTAP_TAPCELL_ROW_21_259 VDD VSS gf180mcu_fd_sc_mcu9t5v0__filltie
XTAP_TAPCELL_ROW_21_260 VDD VSS gf180mcu_fd_sc_mcu9t5v0__filltie
XTAP_TAPCELL_ROW_22_261 VDD VSS gf180mcu_fd_sc_mcu9t5v0__filltie
XTAP_TAPCELL_ROW_22_262 VDD VSS gf180mcu_fd_sc_mcu9t5v0__filltie
XTAP_TAPCELL_ROW_22_263 VDD VSS gf180mcu_fd_sc_mcu9t5v0__filltie
XTAP_TAPCELL_ROW_23_264 VDD VSS gf180mcu_fd_sc_mcu9t5v0__filltie
XTAP_TAPCELL_ROW_23_265 VDD VSS gf180mcu_fd_sc_mcu9t5v0__filltie
XTAP_TAPCELL_ROW_24_266 VDD VSS gf180mcu_fd_sc_mcu9t5v0__filltie
XTAP_TAPCELL_ROW_24_267 VDD VSS gf180mcu_fd_sc_mcu9t5v0__filltie
XTAP_TAPCELL_ROW_24_268 VDD VSS gf180mcu_fd_sc_mcu9t5v0__filltie
XTAP_TAPCELL_ROW_25_269 VDD VSS gf180mcu_fd_sc_mcu9t5v0__filltie
XTAP_TAPCELL_ROW_25_270 VDD VSS gf180mcu_fd_sc_mcu9t5v0__filltie
XTAP_TAPCELL_ROW_26_271 VDD VSS gf180mcu_fd_sc_mcu9t5v0__filltie
XTAP_TAPCELL_ROW_26_272 VDD VSS gf180mcu_fd_sc_mcu9t5v0__filltie
XTAP_TAPCELL_ROW_26_273 VDD VSS gf180mcu_fd_sc_mcu9t5v0__filltie
XTAP_TAPCELL_ROW_27_274 VDD VSS gf180mcu_fd_sc_mcu9t5v0__filltie
XTAP_TAPCELL_ROW_27_275 VDD VSS gf180mcu_fd_sc_mcu9t5v0__filltie
XTAP_TAPCELL_ROW_28_276 VDD VSS gf180mcu_fd_sc_mcu9t5v0__filltie
XTAP_TAPCELL_ROW_28_277 VDD VSS gf180mcu_fd_sc_mcu9t5v0__filltie
XTAP_TAPCELL_ROW_28_278 VDD VSS gf180mcu_fd_sc_mcu9t5v0__filltie
XTAP_TAPCELL_ROW_29_279 VDD VSS gf180mcu_fd_sc_mcu9t5v0__filltie
XTAP_TAPCELL_ROW_29_280 VDD VSS gf180mcu_fd_sc_mcu9t5v0__filltie
XTAP_TAPCELL_ROW_30_281 VDD VSS gf180mcu_fd_sc_mcu9t5v0__filltie
XTAP_TAPCELL_ROW_30_282 VDD VSS gf180mcu_fd_sc_mcu9t5v0__filltie
XTAP_TAPCELL_ROW_30_283 VDD VSS gf180mcu_fd_sc_mcu9t5v0__filltie
XTAP_TAPCELL_ROW_31_284 VDD VSS gf180mcu_fd_sc_mcu9t5v0__filltie
XTAP_TAPCELL_ROW_31_285 VDD VSS gf180mcu_fd_sc_mcu9t5v0__filltie
XTAP_TAPCELL_ROW_32_286 VDD VSS gf180mcu_fd_sc_mcu9t5v0__filltie
XTAP_TAPCELL_ROW_32_287 VDD VSS gf180mcu_fd_sc_mcu9t5v0__filltie
XTAP_TAPCELL_ROW_32_288 VDD VSS gf180mcu_fd_sc_mcu9t5v0__filltie
XTAP_TAPCELL_ROW_33_289 VDD VSS gf180mcu_fd_sc_mcu9t5v0__filltie
XTAP_TAPCELL_ROW_33_290 VDD VSS gf180mcu_fd_sc_mcu9t5v0__filltie
XTAP_TAPCELL_ROW_34_291 VDD VSS gf180mcu_fd_sc_mcu9t5v0__filltie
XTAP_TAPCELL_ROW_34_292 VDD VSS gf180mcu_fd_sc_mcu9t5v0__filltie
XTAP_TAPCELL_ROW_34_293 VDD VSS gf180mcu_fd_sc_mcu9t5v0__filltie
XTAP_TAPCELL_ROW_35_294 VDD VSS gf180mcu_fd_sc_mcu9t5v0__filltie
XTAP_TAPCELL_ROW_35_295 VDD VSS gf180mcu_fd_sc_mcu9t5v0__filltie
XTAP_TAPCELL_ROW_36_296 VDD VSS gf180mcu_fd_sc_mcu9t5v0__filltie
XTAP_TAPCELL_ROW_36_297 VDD VSS gf180mcu_fd_sc_mcu9t5v0__filltie
XTAP_TAPCELL_ROW_36_298 VDD VSS gf180mcu_fd_sc_mcu9t5v0__filltie
XTAP_TAPCELL_ROW_37_299 VDD VSS gf180mcu_fd_sc_mcu9t5v0__filltie
XTAP_TAPCELL_ROW_37_300 VDD VSS gf180mcu_fd_sc_mcu9t5v0__filltie
XTAP_TAPCELL_ROW_38_301 VDD VSS gf180mcu_fd_sc_mcu9t5v0__filltie
XTAP_TAPCELL_ROW_38_302 VDD VSS gf180mcu_fd_sc_mcu9t5v0__filltie
XTAP_TAPCELL_ROW_38_303 VDD VSS gf180mcu_fd_sc_mcu9t5v0__filltie
XTAP_TAPCELL_ROW_39_304 VDD VSS gf180mcu_fd_sc_mcu9t5v0__filltie
XTAP_TAPCELL_ROW_39_305 VDD VSS gf180mcu_fd_sc_mcu9t5v0__filltie
XTAP_TAPCELL_ROW_40_306 VDD VSS gf180mcu_fd_sc_mcu9t5v0__filltie
XTAP_TAPCELL_ROW_40_307 VDD VSS gf180mcu_fd_sc_mcu9t5v0__filltie
XTAP_TAPCELL_ROW_40_308 VDD VSS gf180mcu_fd_sc_mcu9t5v0__filltie
XTAP_TAPCELL_ROW_41_309 VDD VSS gf180mcu_fd_sc_mcu9t5v0__filltie
XTAP_TAPCELL_ROW_41_310 VDD VSS gf180mcu_fd_sc_mcu9t5v0__filltie
XTAP_TAPCELL_ROW_42_311 VDD VSS gf180mcu_fd_sc_mcu9t5v0__filltie
XTAP_TAPCELL_ROW_42_312 VDD VSS gf180mcu_fd_sc_mcu9t5v0__filltie
XTAP_TAPCELL_ROW_42_313 VDD VSS gf180mcu_fd_sc_mcu9t5v0__filltie
XTAP_TAPCELL_ROW_43_314 VDD VSS gf180mcu_fd_sc_mcu9t5v0__filltie
XTAP_TAPCELL_ROW_43_315 VDD VSS gf180mcu_fd_sc_mcu9t5v0__filltie
XTAP_TAPCELL_ROW_44_316 VDD VSS gf180mcu_fd_sc_mcu9t5v0__filltie
XTAP_TAPCELL_ROW_44_317 VDD VSS gf180mcu_fd_sc_mcu9t5v0__filltie
XTAP_TAPCELL_ROW_44_318 VDD VSS gf180mcu_fd_sc_mcu9t5v0__filltie
XTAP_TAPCELL_ROW_45_319 VDD VSS gf180mcu_fd_sc_mcu9t5v0__filltie
XTAP_TAPCELL_ROW_45_320 VDD VSS gf180mcu_fd_sc_mcu9t5v0__filltie
XTAP_TAPCELL_ROW_46_321 VDD VSS gf180mcu_fd_sc_mcu9t5v0__filltie
XTAP_TAPCELL_ROW_46_322 VDD VSS gf180mcu_fd_sc_mcu9t5v0__filltie
XTAP_TAPCELL_ROW_46_323 VDD VSS gf180mcu_fd_sc_mcu9t5v0__filltie
XTAP_TAPCELL_ROW_47_324 VDD VSS gf180mcu_fd_sc_mcu9t5v0__filltie
XTAP_TAPCELL_ROW_47_325 VDD VSS gf180mcu_fd_sc_mcu9t5v0__filltie
XTAP_TAPCELL_ROW_48_326 VDD VSS gf180mcu_fd_sc_mcu9t5v0__filltie
XTAP_TAPCELL_ROW_48_327 VDD VSS gf180mcu_fd_sc_mcu9t5v0__filltie
XTAP_TAPCELL_ROW_48_328 VDD VSS gf180mcu_fd_sc_mcu9t5v0__filltie
XTAP_TAPCELL_ROW_49_329 VDD VSS gf180mcu_fd_sc_mcu9t5v0__filltie
XTAP_TAPCELL_ROW_49_330 VDD VSS gf180mcu_fd_sc_mcu9t5v0__filltie
XTAP_TAPCELL_ROW_50_331 VDD VSS gf180mcu_fd_sc_mcu9t5v0__filltie
XTAP_TAPCELL_ROW_50_332 VDD VSS gf180mcu_fd_sc_mcu9t5v0__filltie
XTAP_TAPCELL_ROW_50_333 VDD VSS gf180mcu_fd_sc_mcu9t5v0__filltie
XTAP_TAPCELL_ROW_51_334 VDD VSS gf180mcu_fd_sc_mcu9t5v0__filltie
XTAP_TAPCELL_ROW_51_335 VDD VSS gf180mcu_fd_sc_mcu9t5v0__filltie
XTAP_TAPCELL_ROW_52_336 VDD VSS gf180mcu_fd_sc_mcu9t5v0__filltie
XTAP_TAPCELL_ROW_52_337 VDD VSS gf180mcu_fd_sc_mcu9t5v0__filltie
XTAP_TAPCELL_ROW_52_338 VDD VSS gf180mcu_fd_sc_mcu9t5v0__filltie
XTAP_TAPCELL_ROW_53_339 VDD VSS gf180mcu_fd_sc_mcu9t5v0__filltie
XTAP_TAPCELL_ROW_53_340 VDD VSS gf180mcu_fd_sc_mcu9t5v0__filltie
XTAP_TAPCELL_ROW_54_341 VDD VSS gf180mcu_fd_sc_mcu9t5v0__filltie
XTAP_TAPCELL_ROW_54_342 VDD VSS gf180mcu_fd_sc_mcu9t5v0__filltie
XTAP_TAPCELL_ROW_54_343 VDD VSS gf180mcu_fd_sc_mcu9t5v0__filltie
XTAP_TAPCELL_ROW_55_344 VDD VSS gf180mcu_fd_sc_mcu9t5v0__filltie
XTAP_TAPCELL_ROW_55_345 VDD VSS gf180mcu_fd_sc_mcu9t5v0__filltie
XTAP_TAPCELL_ROW_56_346 VDD VSS gf180mcu_fd_sc_mcu9t5v0__filltie
XTAP_TAPCELL_ROW_56_347 VDD VSS gf180mcu_fd_sc_mcu9t5v0__filltie
XTAP_TAPCELL_ROW_56_348 VDD VSS gf180mcu_fd_sc_mcu9t5v0__filltie
XTAP_TAPCELL_ROW_57_349 VDD VSS gf180mcu_fd_sc_mcu9t5v0__filltie
XTAP_TAPCELL_ROW_57_350 VDD VSS gf180mcu_fd_sc_mcu9t5v0__filltie
XTAP_TAPCELL_ROW_58_351 VDD VSS gf180mcu_fd_sc_mcu9t5v0__filltie
XTAP_TAPCELL_ROW_58_352 VDD VSS gf180mcu_fd_sc_mcu9t5v0__filltie
XTAP_TAPCELL_ROW_58_353 VDD VSS gf180mcu_fd_sc_mcu9t5v0__filltie
XTAP_TAPCELL_ROW_59_354 VDD VSS gf180mcu_fd_sc_mcu9t5v0__filltie
XTAP_TAPCELL_ROW_59_355 VDD VSS gf180mcu_fd_sc_mcu9t5v0__filltie
XTAP_TAPCELL_ROW_60_356 VDD VSS gf180mcu_fd_sc_mcu9t5v0__filltie
XTAP_TAPCELL_ROW_60_357 VDD VSS gf180mcu_fd_sc_mcu9t5v0__filltie
XTAP_TAPCELL_ROW_60_358 VDD VSS gf180mcu_fd_sc_mcu9t5v0__filltie
XTAP_TAPCELL_ROW_61_359 VDD VSS gf180mcu_fd_sc_mcu9t5v0__filltie
XTAP_TAPCELL_ROW_61_360 VDD VSS gf180mcu_fd_sc_mcu9t5v0__filltie
XTAP_TAPCELL_ROW_62_361 VDD VSS gf180mcu_fd_sc_mcu9t5v0__filltie
XTAP_TAPCELL_ROW_62_362 VDD VSS gf180mcu_fd_sc_mcu9t5v0__filltie
XTAP_TAPCELL_ROW_62_363 VDD VSS gf180mcu_fd_sc_mcu9t5v0__filltie
XTAP_TAPCELL_ROW_63_364 VDD VSS gf180mcu_fd_sc_mcu9t5v0__filltie
XTAP_TAPCELL_ROW_63_365 VDD VSS gf180mcu_fd_sc_mcu9t5v0__filltie
XTAP_TAPCELL_ROW_64_366 VDD VSS gf180mcu_fd_sc_mcu9t5v0__filltie
XTAP_TAPCELL_ROW_64_367 VDD VSS gf180mcu_fd_sc_mcu9t5v0__filltie
XTAP_TAPCELL_ROW_64_368 VDD VSS gf180mcu_fd_sc_mcu9t5v0__filltie
XTAP_TAPCELL_ROW_65_369 VDD VSS gf180mcu_fd_sc_mcu9t5v0__filltie
XTAP_TAPCELL_ROW_65_370 VDD VSS gf180mcu_fd_sc_mcu9t5v0__filltie
XTAP_TAPCELL_ROW_66_371 VDD VSS gf180mcu_fd_sc_mcu9t5v0__filltie
XTAP_TAPCELL_ROW_66_372 VDD VSS gf180mcu_fd_sc_mcu9t5v0__filltie
XTAP_TAPCELL_ROW_66_373 VDD VSS gf180mcu_fd_sc_mcu9t5v0__filltie
XTAP_TAPCELL_ROW_67_374 VDD VSS gf180mcu_fd_sc_mcu9t5v0__filltie
XTAP_TAPCELL_ROW_67_375 VDD VSS gf180mcu_fd_sc_mcu9t5v0__filltie
XTAP_TAPCELL_ROW_68_376 VDD VSS gf180mcu_fd_sc_mcu9t5v0__filltie
XTAP_TAPCELL_ROW_68_377 VDD VSS gf180mcu_fd_sc_mcu9t5v0__filltie
XTAP_TAPCELL_ROW_68_378 VDD VSS gf180mcu_fd_sc_mcu9t5v0__filltie
XTAP_TAPCELL_ROW_69_379 VDD VSS gf180mcu_fd_sc_mcu9t5v0__filltie
XTAP_TAPCELL_ROW_69_380 VDD VSS gf180mcu_fd_sc_mcu9t5v0__filltie
XTAP_TAPCELL_ROW_70_381 VDD VSS gf180mcu_fd_sc_mcu9t5v0__filltie
XTAP_TAPCELL_ROW_70_382 VDD VSS gf180mcu_fd_sc_mcu9t5v0__filltie
XTAP_TAPCELL_ROW_70_383 VDD VSS gf180mcu_fd_sc_mcu9t5v0__filltie
XTAP_TAPCELL_ROW_71_384 VDD VSS gf180mcu_fd_sc_mcu9t5v0__filltie
XTAP_TAPCELL_ROW_71_385 VDD VSS gf180mcu_fd_sc_mcu9t5v0__filltie
XTAP_TAPCELL_ROW_72_386 VDD VSS gf180mcu_fd_sc_mcu9t5v0__filltie
XTAP_TAPCELL_ROW_72_387 VDD VSS gf180mcu_fd_sc_mcu9t5v0__filltie
XTAP_TAPCELL_ROW_72_388 VDD VSS gf180mcu_fd_sc_mcu9t5v0__filltie
XTAP_TAPCELL_ROW_73_389 VDD VSS gf180mcu_fd_sc_mcu9t5v0__filltie
XTAP_TAPCELL_ROW_73_390 VDD VSS gf180mcu_fd_sc_mcu9t5v0__filltie
XTAP_TAPCELL_ROW_74_391 VDD VSS gf180mcu_fd_sc_mcu9t5v0__filltie
XTAP_TAPCELL_ROW_74_392 VDD VSS gf180mcu_fd_sc_mcu9t5v0__filltie
XTAP_TAPCELL_ROW_74_393 VDD VSS gf180mcu_fd_sc_mcu9t5v0__filltie
XTAP_TAPCELL_ROW_75_394 VDD VSS gf180mcu_fd_sc_mcu9t5v0__filltie
XTAP_TAPCELL_ROW_75_395 VDD VSS gf180mcu_fd_sc_mcu9t5v0__filltie
XTAP_TAPCELL_ROW_76_396 VDD VSS gf180mcu_fd_sc_mcu9t5v0__filltie
XTAP_TAPCELL_ROW_76_397 VDD VSS gf180mcu_fd_sc_mcu9t5v0__filltie
XTAP_TAPCELL_ROW_76_398 VDD VSS gf180mcu_fd_sc_mcu9t5v0__filltie
XTAP_TAPCELL_ROW_77_399 VDD VSS gf180mcu_fd_sc_mcu9t5v0__filltie
XTAP_TAPCELL_ROW_77_400 VDD VSS gf180mcu_fd_sc_mcu9t5v0__filltie
XTAP_TAPCELL_ROW_78_401 VDD VSS gf180mcu_fd_sc_mcu9t5v0__filltie
XTAP_TAPCELL_ROW_78_402 VDD VSS gf180mcu_fd_sc_mcu9t5v0__filltie
XTAP_TAPCELL_ROW_78_403 VDD VSS gf180mcu_fd_sc_mcu9t5v0__filltie
XTAP_TAPCELL_ROW_79_404 VDD VSS gf180mcu_fd_sc_mcu9t5v0__filltie
XTAP_TAPCELL_ROW_79_405 VDD VSS gf180mcu_fd_sc_mcu9t5v0__filltie
XTAP_TAPCELL_ROW_80_406 VDD VSS gf180mcu_fd_sc_mcu9t5v0__filltie
XTAP_TAPCELL_ROW_80_407 VDD VSS gf180mcu_fd_sc_mcu9t5v0__filltie
XTAP_TAPCELL_ROW_80_408 VDD VSS gf180mcu_fd_sc_mcu9t5v0__filltie
XTAP_TAPCELL_ROW_81_409 VDD VSS gf180mcu_fd_sc_mcu9t5v0__filltie
XTAP_TAPCELL_ROW_81_410 VDD VSS gf180mcu_fd_sc_mcu9t5v0__filltie
XTAP_TAPCELL_ROW_82_411 VDD VSS gf180mcu_fd_sc_mcu9t5v0__filltie
XTAP_TAPCELL_ROW_82_412 VDD VSS gf180mcu_fd_sc_mcu9t5v0__filltie
XTAP_TAPCELL_ROW_82_413 VDD VSS gf180mcu_fd_sc_mcu9t5v0__filltie
XTAP_TAPCELL_ROW_83_414 VDD VSS gf180mcu_fd_sc_mcu9t5v0__filltie
XTAP_TAPCELL_ROW_83_415 VDD VSS gf180mcu_fd_sc_mcu9t5v0__filltie
XTAP_TAPCELL_ROW_84_416 VDD VSS gf180mcu_fd_sc_mcu9t5v0__filltie
XTAP_TAPCELL_ROW_84_417 VDD VSS gf180mcu_fd_sc_mcu9t5v0__filltie
XTAP_TAPCELL_ROW_84_418 VDD VSS gf180mcu_fd_sc_mcu9t5v0__filltie
XTAP_TAPCELL_ROW_85_419 VDD VSS gf180mcu_fd_sc_mcu9t5v0__filltie
XTAP_TAPCELL_ROW_85_420 VDD VSS gf180mcu_fd_sc_mcu9t5v0__filltie