
* cell universal_shift_register
* pin clk
* pin parallel_in[0]
* pin serial_in_right
* pin parallel_out[0]
* pin parallel_in[1]
* pin parallel_out[1]
* pin parallel_in[4]
* pin parallel_in[5]
* pin parallel_out[4]
* pin PWELL
* pin NWELL
* pin parallel_out[5]
* pin parallel_out[3]
* pin parallel_in[2]
* pin parallel_in[3]
* pin rst_n
* pin parallel_out[2]
* pin parallel_in[6]
* pin parallel_out[6]
* pin parallel_out[7]
* pin load
* pin enable
* pin direction[0]
* pin parallel_in[7]
* pin direction[1]
.SUBCKT universal_shift_register 1 2 3 4 5 6 7 8 9 12 13 54 70 78 85 86 89 100
+ 112 127 153 154 155 156 157
* net 1 clk
* net 2 parallel_in[0]
* net 3 serial_in_right
* net 4 parallel_out[0]
* net 5 parallel_in[1]
* net 6 parallel_out[1]
* net 7 parallel_in[4]
* net 8 parallel_in[5]
* net 9 parallel_out[4]
* net 12 PWELL
* net 13 NWELL
* net 54 parallel_out[5]
* net 70 parallel_out[3]
* net 78 parallel_in[2]
* net 85 parallel_in[3]
* net 86 rst_n
* net 89 parallel_out[2]
* net 100 parallel_in[6]
* net 112 parallel_out[6]
* net 127 parallel_out[7]
* net 153 load
* net 154 enable
* net 155 direction[0]
* net 156 parallel_in[7]
* net 157 direction[1]
* cell instance $2 m0 *1 39.14,32.2
X$2 1 12 13 44 CLKBUF_X3
* cell instance $8 r0 *1 31.54,1.4
X$8 2 12 13 14 BUF_X1
* cell instance $15 r0 *1 32.68,1.4
X$15 3 12 13 15 BUF_X1
* cell instance $21 r0 *1 33.25,1.4
X$21 16 12 13 4 BUF_X1
* cell instance $30 r0 *1 34.2,1.4
X$30 5 12 13 11 BUF_X1
* cell instance $33 r0 *1 37.05,1.4
X$33 24 12 13 6 BUF_X1
* cell instance $38 r0 *1 41.04,1.4
X$38 7 12 13 17 BUF_X1
* cell instance $44 r0 *1 41.61,1.4
X$44 8 12 13 10 BUF_X1
* cell instance $51 r0 *1 42.18,1.4
X$51 30 12 13 9 BUF_X1
* cell instance $59 r0 *1 43.32,21
X$59 10 18 36 12 13 34 MUX2_X1
* cell instance $64 r0 *1 35.53,18.2
X$64 11 18 37 12 13 33 MUX2_X1
* cell instance $65 m0 *1 34.96,26.6
X$65 51 43 12 13 50 NAND2_X1
* cell instance $66 m0 *1 34.58,26.6
X$66 40 12 13 43 INV_X1
* cell instance $74 m0 *1 59.28,26.6
X$74 45 12 13 54 BUF_X1
* cell instance $79 m0 *1 32.87,26.6
X$79 40 51 42 12 13 49 MUX2_X1
* cell instance $80 r0 *1 32.87,26.6
X$80 66 51 40 12 13 55 MUX2_X1
* cell instance $81 r0 *1 34.2,26.6
X$81 52 12 13 42 INV_X1
* cell instance $82 r0 *1 34.58,26.6
X$82 42 51 60 12 13 64 MUX2_X1
* cell instance $83 r0 *1 35.91,26.6
X$83 51 52 12 13 57 NAND2_X1
* cell instance $84 r0 *1 36.48,26.6
X$84 12 164 53 64 25 13 DFF_X1
* cell instance $85 r0 *1 39.71,26.6
X$85 53 32 24 12 13 82 MUX2_X1
* cell instance $86 r0 *1 41.04,26.6
X$86 12 171 56 57 25 13 DFF_X1
* cell instance $88 r0 *1 44.46,26.6
X$88 56 32 45 12 13 69 MUX2_X1
* cell instance $99 m0 *1 31.54,18.2
X$99 12 162 16 31 25 13 DFF_X1
* cell instance $101 m0 *1 34.77,18.2
X$101 26 21 13 12 31 AND2_X1
* cell instance $103 m0 *1 36.29,18.2
X$103 33 22 24 12 13 27 MUX2_X1
* cell instance $104 m0 *1 37.62,18.2
X$104 26 27 13 12 23 AND2_X1
* cell instance $106 m0 *1 41.42,18.2
X$106 17 18 28 12 13 29 MUX2_X1
* cell instance $107 m0 *1 42.75,18.2
X$107 29 22 30 12 13 35 MUX2_X1
* cell instance $131 r0 *1 32.3,18.2
X$131 48 32 15 12 13 19 MUX2_X1
* cell instance $134 r0 *1 34.2,18.2
X$134 41 32 16 12 13 37 MUX2_X1
* cell instance $139 r0 *1 39.71,18.2
X$139 12 165 30 38 25 13 DFF_X1
* cell instance $140 r0 *1 42.94,18.2
X$140 26 35 13 12 38 AND2_X1
* cell instance $214 r0 *1 32.68,49
X$214 109 123 147 13 12 22 OAI21_X4
* cell instance $218 r0 *1 36.48,49
X$218 149 12 13 32 CLKBUF_X3
* cell instance $253 r0 *1 31.73,29.4
X$253 59 71 178 13 12 40 HA_X1
* cell instance $254 m0 *1 32.11,29.4
X$254 58 12 13 71 INV_X1
* cell instance $256 m0 *1 33.25,29.4
X$256 67 58 177 13 12 60 HA_X1
* cell instance $257 r0 *1 33.63,29.4
X$257 59 58 52 13 12 68 HA_X1
* cell instance $262 r0 *1 38.19,29.4
X$262 12 163 61 73 25 13 DFF_X1
* cell instance $264 r0 *1 41.42,29.4
X$264 61 32 62 12 13 28 MUX2_X1
* cell instance $267 r0 *1 44.65,29.4
X$267 65 22 62 12 13 72 MUX2_X1
* cell instance $268 r0 *1 45.98,29.4
X$268 26 72 13 12 63 AND2_X1
* cell instance $269 r0 *1 46.74,29.4
X$269 12 172 62 63 25 13 DFF_X1
* cell instance $275 r0 *1 59.28,29.4
X$275 62 12 13 70 BUF_X1
* cell instance $345 m0 *1 33.06,54.6
X$345 154 12 13 109 BUF_X2
* cell instance $347 m0 *1 33.82,54.6
X$347 153 12 13 123 BUF_X2
* cell instance $374 m0 *1 30.4,40.6
X$374 12 113 88 108 110 13 DFF_X2
* cell instance $385 r0 *1 31.35,40.6
X$385 26 117 13 12 113 AND2_X1
* cell instance $386 r0 *1 32.11,40.6
X$386 108 123 12 13 114 NOR2_X1
* cell instance $387 r0 *1 32.68,40.6
X$387 108 109 12 13 119 NOR2_X1
* cell instance $388 r0 *1 33.25,40.6
X$388 114 133 119 130 120 66 13 12 AOI221_X2
* cell instance $389 m0 *1 35.72,40.6
X$389 109 116 13 12 115 AND2_X1
* cell instance $390 m0 *1 34.39,40.6
X$390 115 133 94 12 13 99 MUX2_X1
* cell instance $395 r0 *1 35.34,40.6
X$395 110 94 116 13 12 125 HA_X1
* cell instance $397 m0 *1 42.37,40.6
X$397 107 32 111 12 13 102 MUX2_X1
* cell instance $400 m0 *1 45.22,40.6
X$400 106 22 111 12 13 103 MUX2_X1
* cell instance $401 m0 *1 46.55,40.6
X$401 12 161 111 104 88 13 DFF_X1
* cell instance $408 m0 *1 59.47,40.6
X$408 111 12 13 112 BUF_X1
* cell instance $429 m0 *1 28.12,46.2
X$429 12 134 139 141 88 13 DFF_X1
* cell instance $431 m0 *1 32.11,46.2
X$431 134 123 12 13 145 NOR2_X1
* cell instance $433 m0 *1 32.87,46.2
X$433 134 109 12 13 144 NOR2_X1
* cell instance $435 m0 *1 33.63,46.2
X$435 135 139 133 12 140 13 AOI21_X1
* cell instance $436 m0 *1 34.39,46.2
X$436 137 136 12 13 133 NAND2_X2
* cell instance $437 m0 *1 35.34,46.2
X$437 136 12 13 124 INV_X1
* cell instance $438 m0 *1 35.72,46.2
X$438 138 12 13 137 INV_X2
* cell instance $439 m0 *1 36.29,46.2
X$439 136 109 143 137 13 12 135 AND4_X1
* cell instance $475 m0 *1 31.92,43.4
X$475 123 128 118 13 117 12 OAI21_X1
* cell instance $476 m0 *1 32.68,43.4
X$476 110 105 12 13 118 NAND2_X1
* cell instance $477 m0 *1 33.25,43.4
X$477 109 12 13 105 INV_X2
* cell instance $479 m0 *1 34.01,43.4
X$479 120 110 133 12 128 13 AOI21_X1
* cell instance $480 m0 *1 34.77,43.4
X$480 110 105 124 138 13 120 12 NOR4_X2
* cell instance $481 m0 *1 36.48,43.4
X$481 130 13 18 12 BUF_X4
* cell instance $485 m0 *1 42.56,43.4
X$485 131 18 102 12 13 126 MUX2_X1
* cell instance $486 m0 *1 43.89,43.4
X$486 126 22 122 12 13 121 MUX2_X1
* cell instance $487 m0 *1 45.22,43.4
X$487 26 121 13 12 129 AND2_X1
* cell instance $489 m0 *1 46.17,43.4
X$489 12 159 122 129 88 13 DFF_X1
* cell instance $493 m0 *1 59.28,43.4
X$493 122 12 13 127 BUF_X1
* cell instance $508 r0 *1 30.97,43.4
X$508 26 142 13 12 141 AND2_X1
* cell instance $510 r0 *1 31.92,43.4
X$510 123 140 132 13 142 12 OAI21_X1
* cell instance $511 r0 *1 32.68,43.4
X$511 139 105 12 13 132 NAND2_X1
* cell instance $512 r0 *1 33.25,43.4
X$512 145 133 144 130 135 75 13 12 AOI221_X2
* cell instance $513 r0 *1 35.34,43.4
X$513 123 12 13 130 INV_X1
* cell instance $514 r0 *1 35.72,43.4
X$514 139 125 143 13 12 138 HA_X1
* cell instance $568 m0 *1 30.97,37.8
X$568 12 93 88 174 94 13 DFF_X2
* cell instance $570 m0 *1 35.34,37.8
X$570 74 75 79 12 97 13 AOI21_X1
* cell instance $587 r0 *1 31.73,37.8
X$587 12 18 99 79 94 105 13 AOI22_X4
* cell instance $588 r0 *1 34.96,37.8
X$588 105 94 75 99 18 12 13 95 AOI221_X1
* cell instance $590 r0 *1 36.29,37.8
X$590 12 170 107 97 88 13 DFF_X1
* cell instance $591 r0 *1 39.52,37.8
X$591 44 12 13 88 CLKBUF_X3
* cell instance $592 r0 *1 40.47,37.8
X$592 88 12 13 175 INV_X2
* cell instance $596 r0 *1 45.22,37.8
X$596 101 18 69 12 13 106 MUX2_X1
* cell instance $597 r0 *1 46.55,37.8
X$597 26 103 13 12 104 AND2_X1
* cell instance $607 r0 *1 59.28,37.8
X$607 100 12 13 101 BUF_X1
* cell instance $657 m0 *1 35.72,65.8
X$657 157 12 13 148 BUF_X1
* cell instance $659 m0 *1 36.48,65.8
X$659 155 12 13 151 BUF_X1
* cell instance $663 m0 *1 41.04,65.8
X$663 156 12 13 131 BUF_X1
* cell instance $738 r0 *1 35.53,21
X$738 12 166 39 50 25 13 DFF_X1
* cell instance $741 r0 *1 41.99,21
X$741 39 32 30 12 13 36 MUX2_X1
* cell instance $765 m0 *1 32.11,32.2
X$765 74 66 12 13 58 OR2_X1
* cell instance $766 m0 *1 32.87,32.2
X$766 74 79 12 13 59 OR2_X1
* cell instance $767 m0 *1 33.63,32.2
X$767 79 74 12 13 67 NOR2_X1
* cell instance $770 m0 *1 34.77,32.2
X$770 74 75 12 13 51 OR2_X2
* cell instance $771 m0 *1 35.72,32.2
X$771 68 75 80 13 73 12 OAI21_X1
* cell instance $775 r0 *1 34.77,32.2
X$775 74 75 66 12 80 13 AOI21_X1
* cell instance $779 m0 *1 43.89,32.2
X$779 81 18 82 12 13 76 MUX2_X1
* cell instance $786 r0 *1 45.41,32.2
X$786 76 22 83 12 13 77 MUX2_X1
* cell instance $787 r0 *1 46.74,32.2
X$787 26 77 13 12 84 AND2_X1
* cell instance $791 m0 *1 59.28,32.2
X$791 78 12 13 81 BUF_X1
* cell instance $882 r0 *1 32.3,15.4
X$882 14 18 19 12 13 20 MUX2_X1
* cell instance $883 r0 *1 33.63,15.4
X$883 20 22 16 12 13 21 MUX2_X1
* cell instance $886 r0 *1 37.24,15.4
X$886 12 169 24 23 25 13 DFF_X1
* cell instance $938 m0 *1 31.92,23.8
X$938 12 160 48 55 25 13 DFF_X1
* cell instance $942 m0 *1 44.46,23.8
X$942 34 22 45 12 13 46 MUX2_X1
* cell instance $943 m0 *1 45.79,23.8
X$943 26 46 13 12 47 AND2_X1
* cell instance $956 r0 *1 32.11,23.8
X$956 12 167 41 49 25 13 DFF_X1
* cell instance $960 r0 *1 39.52,23.8
X$960 44 12 13 25 CLKBUF_X3
* cell instance $964 r0 *1 45.79,23.8
X$964 12 173 45 47 25 13 DFF_X1
* cell instance $1022 m0 *1 44.08,35
X$1022 92 32 83 12 13 91 MUX2_X1
* cell instance $1023 m0 *1 45.41,35
X$1023 90 18 91 12 13 65 MUX2_X1
* cell instance $1024 m0 *1 46.74,35
X$1024 12 158 83 84 88 13 DFF_X1
* cell instance $1028 m0 *1 59.85,35
X$1028 83 12 13 89 BUF_X1
* cell instance $1034 r0 *1 4.75,35
X$1034 86 12 13 87 BUF_X1
* cell instance $1040 r0 *1 31.16,35
X$1040 87 12 13 26 BUF_X2
* cell instance $1041 r0 *1 31.92,35
X$1041 87 12 13 74 INV_X2
* cell instance $1044 r0 *1 33.06,35
X$1044 79 74 12 13 93 NOR2_X1
* cell instance $1048 r0 *1 34.96,35
X$1048 66 75 13 12 98 AND2_X1
* cell instance $1049 r0 *1 35.72,35
X$1049 95 98 74 12 13 96 NOR3_X1
* cell instance $1053 r0 *1 37.81,35
X$1053 12 168 92 96 88 13 DFF_X1
* cell instance $1059 m0 *1 62.32,35
X$1059 85 12 13 90 BUF_X1
* cell instance $1081 m0 *1 34.2,51.8
X$1081 146 12 13 147 INV_X1
* cell instance $1095 r0 *1 34.96,51.8
X$1095 152 148 146 13 12 149 HA_X1
* cell instance $1096 m0 *1 35.91,51.8
X$1096 148 12 13 150 INV_X1
* cell instance $1098 m0 *1 36.29,51.8
X$1098 151 150 176 13 12 136 HA_X1
* cell instance $1106 r0 *1 36.86,51.8
X$1106 151 12 13 152 INV_X1
.ENDS universal_shift_register

* cell OR2_X2
* pin A1
* pin A2
* pin PWELL,VSS
* pin NWELL,VDD
* pin ZN
.SUBCKT OR2_X2 1 2 3 5 6
* net 1 A1
* net 2 A2
* net 3 PWELL,VSS
* net 5 NWELL,VDD
* net 6 ZN
* device instance $1 r0 *1 0.17,0.995 PMOS_VTL
M$1 7 1 4 5 PMOS_VTL L=0.05U W=0.63U AS=0.06615P AD=0.0441P PS=1.47U PD=0.77U
* device instance $2 r0 *1 0.36,0.995 PMOS_VTL
M$2 5 2 7 5 PMOS_VTL L=0.05U W=0.63U AS=0.0441P AD=0.0441P PS=0.77U PD=0.77U
* device instance $3 r0 *1 0.55,0.995 PMOS_VTL
M$3 6 4 5 5 PMOS_VTL L=0.05U W=1.26U AS=0.0882P AD=0.11025P PS=1.54U PD=2.24U
* device instance $5 r0 *1 0.17,0.2975 NMOS_VTL
M$5 4 1 3 3 NMOS_VTL L=0.05U W=0.415U AS=0.043575P AD=0.02905P PS=1.04U
+ PD=0.555U
* device instance $6 r0 *1 0.36,0.2975 NMOS_VTL
M$6 3 2 4 3 NMOS_VTL L=0.05U W=0.415U AS=0.02905P AD=0.02905P PS=0.555U
+ PD=0.555U
* device instance $7 r0 *1 0.55,0.2975 NMOS_VTL
M$7 6 4 3 3 NMOS_VTL L=0.05U W=0.83U AS=0.0581P AD=0.072625P PS=1.11U PD=1.595U
.ENDS OR2_X2

* cell OR2_X1
* pin A1
* pin A2
* pin PWELL,VSS
* pin NWELL,VDD
* pin ZN
.SUBCKT OR2_X1 1 2 3 5 6
* net 1 A1
* net 2 A2
* net 3 PWELL,VSS
* net 5 NWELL,VDD
* net 6 ZN
* device instance $1 r0 *1 0.17,1.1525 PMOS_VTL
M$1 7 1 4 5 PMOS_VTL L=0.05U W=0.315U AS=0.033075P AD=0.02205P PS=0.84U
+ PD=0.455U
* device instance $2 r0 *1 0.36,1.1525 PMOS_VTL
M$2 7 2 5 5 PMOS_VTL L=0.05U W=0.315U AS=0.033075P AD=0.02205P PS=0.77U
+ PD=0.455U
* device instance $3 r0 *1 0.55,0.995 PMOS_VTL
M$3 6 4 5 5 PMOS_VTL L=0.05U W=0.63U AS=0.033075P AD=0.06615P PS=0.77U PD=1.47U
* device instance $4 r0 *1 0.17,0.195 NMOS_VTL
M$4 4 1 3 3 NMOS_VTL L=0.05U W=0.21U AS=0.02205P AD=0.0147P PS=0.63U PD=0.35U
* device instance $5 r0 *1 0.36,0.195 NMOS_VTL
M$5 3 2 4 3 NMOS_VTL L=0.05U W=0.21U AS=0.0147P AD=0.021875P PS=0.35U PD=0.555U
* device instance $6 r0 *1 0.55,0.2975 NMOS_VTL
M$6 6 4 3 3 NMOS_VTL L=0.05U W=0.415U AS=0.021875P AD=0.043575P PS=0.555U
+ PD=1.04U
.ENDS OR2_X1

* cell NAND2_X1
* pin A2
* pin A1
* pin PWELL,VSS
* pin NWELL,VDD
* pin ZN
.SUBCKT NAND2_X1 1 2 3 4 5
* net 1 A2
* net 2 A1
* net 3 PWELL,VSS
* net 4 NWELL,VDD
* net 5 ZN
* device instance $1 r0 *1 0.185,0.995 PMOS_VTL
M$1 5 1 4 4 PMOS_VTL L=0.05U W=0.63U AS=0.06615P AD=0.0441P PS=1.47U PD=0.77U
* device instance $2 r0 *1 0.375,0.995 PMOS_VTL
M$2 4 2 5 4 PMOS_VTL L=0.05U W=0.63U AS=0.0441P AD=0.06615P PS=0.77U PD=1.47U
* device instance $3 r0 *1 0.185,0.2975 NMOS_VTL
M$3 6 1 3 3 NMOS_VTL L=0.05U W=0.415U AS=0.043575P AD=0.02905P PS=1.04U
+ PD=0.555U
* device instance $4 r0 *1 0.375,0.2975 NMOS_VTL
M$4 5 2 6 3 NMOS_VTL L=0.05U W=0.415U AS=0.02905P AD=0.043575P PS=0.555U
+ PD=1.04U
.ENDS NAND2_X1

* cell OAI21_X1
* pin B2
* pin B1
* pin A
* pin NWELL,VDD
* pin ZN
* pin PWELL,VSS
.SUBCKT OAI21_X1 1 2 3 5 6 7
* net 1 B2
* net 2 B1
* net 3 A
* net 5 NWELL,VDD
* net 6 ZN
* net 7 PWELL,VSS
* device instance $1 r0 *1 0.195,0.995 PMOS_VTL
M$1 8 1 5 5 PMOS_VTL L=0.05U W=0.63U AS=0.06615P AD=0.0441P PS=1.47U PD=0.77U
* device instance $2 r0 *1 0.385,0.995 PMOS_VTL
M$2 6 2 8 5 PMOS_VTL L=0.05U W=0.63U AS=0.0441P AD=0.0441P PS=0.77U PD=0.77U
* device instance $3 r0 *1 0.575,0.995 PMOS_VTL
M$3 5 3 6 5 PMOS_VTL L=0.05U W=0.63U AS=0.0441P AD=0.06615P PS=0.77U PD=1.47U
* device instance $4 r0 *1 0.195,0.2975 NMOS_VTL
M$4 6 1 4 7 NMOS_VTL L=0.05U W=0.415U AS=0.043575P AD=0.02905P PS=1.04U
+ PD=0.555U
* device instance $5 r0 *1 0.385,0.2975 NMOS_VTL
M$5 4 2 6 7 NMOS_VTL L=0.05U W=0.415U AS=0.02905P AD=0.02905P PS=0.555U
+ PD=0.555U
* device instance $6 r0 *1 0.575,0.2975 NMOS_VTL
M$6 7 3 4 7 NMOS_VTL L=0.05U W=0.415U AS=0.02905P AD=0.043575P PS=0.555U
+ PD=1.04U
.ENDS OAI21_X1

* cell NOR3_X1
* pin A3
* pin A2
* pin A1
* pin PWELL,VSS
* pin NWELL,VDD
* pin ZN
.SUBCKT NOR3_X1 1 2 3 4 5 6
* net 1 A3
* net 2 A2
* net 3 A1
* net 4 PWELL,VSS
* net 5 NWELL,VDD
* net 6 ZN
* device instance $1 r0 *1 0.17,0.995 PMOS_VTL
M$1 8 1 5 5 PMOS_VTL L=0.05U W=0.63U AS=0.06615P AD=0.0441P PS=1.47U PD=0.77U
* device instance $2 r0 *1 0.36,0.995 PMOS_VTL
M$2 7 2 8 5 PMOS_VTL L=0.05U W=0.63U AS=0.0441P AD=0.0441P PS=0.77U PD=0.77U
* device instance $3 r0 *1 0.55,0.995 PMOS_VTL
M$3 6 3 7 5 PMOS_VTL L=0.05U W=0.63U AS=0.0441P AD=0.06615P PS=0.77U PD=1.47U
* device instance $4 r0 *1 0.17,0.2975 NMOS_VTL
M$4 6 1 4 4 NMOS_VTL L=0.05U W=0.415U AS=0.043575P AD=0.02905P PS=1.04U
+ PD=0.555U
* device instance $5 r0 *1 0.36,0.2975 NMOS_VTL
M$5 4 2 6 4 NMOS_VTL L=0.05U W=0.415U AS=0.02905P AD=0.02905P PS=0.555U
+ PD=0.555U
* device instance $6 r0 *1 0.55,0.2975 NMOS_VTL
M$6 6 3 4 4 NMOS_VTL L=0.05U W=0.415U AS=0.02905P AD=0.043575P PS=0.555U
+ PD=1.04U
.ENDS NOR3_X1

* cell AOI221_X1
* pin B2
* pin B1
* pin A
* pin C2
* pin C1
* pin PWELL,VSS
* pin NWELL,VDD
* pin ZN
.SUBCKT AOI221_X1 1 2 3 4 5 6 8 9
* net 1 B2
* net 2 B1
* net 3 A
* net 4 C2
* net 5 C1
* net 6 PWELL,VSS
* net 8 NWELL,VDD
* net 9 ZN
* device instance $1 r0 *1 0.17,0.995 PMOS_VTL
M$1 8 1 7 8 PMOS_VTL L=0.05U W=0.63U AS=0.06615P AD=0.0441P PS=1.47U PD=0.77U
* device instance $2 r0 *1 0.36,0.995 PMOS_VTL
M$2 7 2 8 8 PMOS_VTL L=0.05U W=0.63U AS=0.0441P AD=0.0441P PS=0.77U PD=0.77U
* device instance $3 r0 *1 0.55,0.995 PMOS_VTL
M$3 10 3 7 8 PMOS_VTL L=0.05U W=0.63U AS=0.0441P AD=0.0441P PS=0.77U PD=0.77U
* device instance $4 r0 *1 0.74,0.995 PMOS_VTL
M$4 9 4 10 8 PMOS_VTL L=0.05U W=0.63U AS=0.0441P AD=0.0441P PS=0.77U PD=0.77U
* device instance $5 r0 *1 0.93,0.995 PMOS_VTL
M$5 10 5 9 8 PMOS_VTL L=0.05U W=0.63U AS=0.0441P AD=0.06615P PS=0.77U PD=1.47U
* device instance $6 r0 *1 0.17,0.2975 NMOS_VTL
M$6 12 1 6 6 NMOS_VTL L=0.05U W=0.415U AS=0.043575P AD=0.02905P PS=1.04U
+ PD=0.555U
* device instance $7 r0 *1 0.36,0.2975 NMOS_VTL
M$7 9 2 12 6 NMOS_VTL L=0.05U W=0.415U AS=0.02905P AD=0.02905P PS=0.555U
+ PD=0.555U
* device instance $8 r0 *1 0.55,0.2975 NMOS_VTL
M$8 6 3 9 6 NMOS_VTL L=0.05U W=0.415U AS=0.02905P AD=0.02905P PS=0.555U
+ PD=0.555U
* device instance $9 r0 *1 0.74,0.2975 NMOS_VTL
M$9 11 4 6 6 NMOS_VTL L=0.05U W=0.415U AS=0.02905P AD=0.02905P PS=0.555U
+ PD=0.555U
* device instance $10 r0 *1 0.93,0.2975 NMOS_VTL
M$10 9 5 11 6 NMOS_VTL L=0.05U W=0.415U AS=0.02905P AD=0.043575P PS=0.555U
+ PD=1.04U
.ENDS AOI221_X1

* cell AND4_X1
* pin A1
* pin A2
* pin A3
* pin A4
* pin NWELL,VDD
* pin PWELL,VSS
* pin ZN
.SUBCKT AND4_X1 1 2 3 4 6 7 8
* net 1 A1
* net 2 A2
* net 3 A3
* net 4 A4
* net 6 NWELL,VDD
* net 7 PWELL,VSS
* net 8 ZN
* device instance $1 r0 *1 0.17,1.1525 PMOS_VTL
M$1 5 1 6 6 PMOS_VTL L=0.05U W=0.315U AS=0.033075P AD=0.02205P PS=0.84U
+ PD=0.455U
* device instance $2 r0 *1 0.36,1.1525 PMOS_VTL
M$2 6 2 5 6 PMOS_VTL L=0.05U W=0.315U AS=0.02205P AD=0.02205P PS=0.455U
+ PD=0.455U
* device instance $3 r0 *1 0.55,1.1525 PMOS_VTL
M$3 5 3 6 6 PMOS_VTL L=0.05U W=0.315U AS=0.02205P AD=0.02205P PS=0.455U
+ PD=0.455U
* device instance $4 r0 *1 0.74,1.1525 PMOS_VTL
M$4 5 4 6 6 PMOS_VTL L=0.05U W=0.315U AS=0.033075P AD=0.02205P PS=0.77U
+ PD=0.455U
* device instance $5 r0 *1 0.93,0.995 PMOS_VTL
M$5 8 5 6 6 PMOS_VTL L=0.05U W=0.63U AS=0.033075P AD=0.06615P PS=0.77U PD=1.47U
* device instance $6 r0 *1 0.17,0.195 NMOS_VTL
M$6 10 1 5 7 NMOS_VTL L=0.05U W=0.21U AS=0.02205P AD=0.0147P PS=0.63U PD=0.35U
* device instance $7 r0 *1 0.36,0.195 NMOS_VTL
M$7 11 2 10 7 NMOS_VTL L=0.05U W=0.21U AS=0.0147P AD=0.0147P PS=0.35U PD=0.35U
* device instance $8 r0 *1 0.55,0.195 NMOS_VTL
M$8 9 3 11 7 NMOS_VTL L=0.05U W=0.21U AS=0.0147P AD=0.0147P PS=0.35U PD=0.35U
* device instance $9 r0 *1 0.74,0.195 NMOS_VTL
M$9 7 4 9 7 NMOS_VTL L=0.05U W=0.21U AS=0.0147P AD=0.021875P PS=0.35U PD=0.555U
* device instance $10 r0 *1 0.93,0.2975 NMOS_VTL
M$10 8 5 7 7 NMOS_VTL L=0.05U W=0.415U AS=0.021875P AD=0.043575P PS=0.555U
+ PD=1.04U
.ENDS AND4_X1

* cell NOR4_X2
* pin A3
* pin A2
* pin A1
* pin A4
* pin NWELL,VDD
* pin ZN
* pin PWELL,VSS
.SUBCKT NOR4_X2 1 2 3 4 5 6 7
* net 1 A3
* net 2 A2
* net 3 A1
* net 4 A4
* net 5 NWELL,VDD
* net 6 ZN
* net 7 PWELL,VSS
* device instance $1 r0 *1 0.21,0.995 PMOS_VTL
M$1 12 4 5 5 PMOS_VTL L=0.05U W=0.63U AS=0.06615P AD=0.0441P PS=1.47U PD=0.77U
* device instance $2 r0 *1 0.4,0.995 PMOS_VTL
M$2 11 1 12 5 PMOS_VTL L=0.05U W=0.63U AS=0.0441P AD=0.0441P PS=0.77U PD=0.77U
* device instance $3 r0 *1 0.59,0.995 PMOS_VTL
M$3 10 2 11 5 PMOS_VTL L=0.05U W=0.63U AS=0.0441P AD=0.0441P PS=0.77U PD=0.77U
* device instance $4 r0 *1 0.78,0.995 PMOS_VTL
M$4 6 3 10 5 PMOS_VTL L=0.05U W=0.63U AS=0.0441P AD=0.0441P PS=0.77U PD=0.77U
* device instance $5 r0 *1 0.97,0.995 PMOS_VTL
M$5 9 3 6 5 PMOS_VTL L=0.05U W=0.63U AS=0.0441P AD=0.0441P PS=0.77U PD=0.77U
* device instance $6 r0 *1 1.16,0.995 PMOS_VTL
M$6 13 2 9 5 PMOS_VTL L=0.05U W=0.63U AS=0.0441P AD=0.0441P PS=0.77U PD=0.77U
* device instance $7 r0 *1 1.35,0.995 PMOS_VTL
M$7 8 1 13 5 PMOS_VTL L=0.05U W=0.63U AS=0.0441P AD=0.0441P PS=0.77U PD=0.77U
* device instance $8 r0 *1 1.54,0.995 PMOS_VTL
M$8 5 4 8 5 PMOS_VTL L=0.05U W=0.63U AS=0.0441P AD=0.06615P PS=0.77U PD=1.47U
* device instance $9 r0 *1 0.21,0.2975 NMOS_VTL
M$9 6 4 7 7 NMOS_VTL L=0.05U W=0.83U AS=0.072625P AD=0.072625P PS=1.595U
+ PD=1.595U
* device instance $10 r0 *1 0.4,0.2975 NMOS_VTL
M$10 7 1 6 7 NMOS_VTL L=0.05U W=0.83U AS=0.0581P AD=0.0581P PS=1.11U PD=1.11U
* device instance $11 r0 *1 0.59,0.2975 NMOS_VTL
M$11 6 2 7 7 NMOS_VTL L=0.05U W=0.83U AS=0.0581P AD=0.0581P PS=1.11U PD=1.11U
* device instance $12 r0 *1 0.78,0.2975 NMOS_VTL
M$12 7 3 6 7 NMOS_VTL L=0.05U W=0.83U AS=0.0581P AD=0.0581P PS=1.11U PD=1.11U
.ENDS NOR4_X2

* cell BUF_X4
* pin A
* pin NWELL,VDD
* pin Z
* pin PWELL,VSS
.SUBCKT BUF_X4 1 3 4 5
* net 1 A
* net 3 NWELL,VDD
* net 4 Z
* net 5 PWELL,VSS
* device instance $1 r0 *1 0.17,0.995 PMOS_VTL
M$1 2 1 3 3 PMOS_VTL L=0.05U W=1.26U AS=0.11025P AD=0.0882P PS=2.24U PD=1.54U
* device instance $3 r0 *1 0.55,0.995 PMOS_VTL
M$3 4 2 3 3 PMOS_VTL L=0.05U W=2.52U AS=0.1764P AD=0.19845P PS=3.08U PD=3.78U
* device instance $7 r0 *1 0.17,0.2975 NMOS_VTL
M$7 2 1 5 5 NMOS_VTL L=0.05U W=0.83U AS=0.072625P AD=0.0581P PS=1.595U PD=1.11U
* device instance $9 r0 *1 0.55,0.2975 NMOS_VTL
M$9 4 2 5 5 NMOS_VTL L=0.05U W=1.66U AS=0.1162P AD=0.130725P PS=2.22U PD=2.705U
.ENDS BUF_X4

* cell NAND2_X2
* pin A2
* pin A1
* pin PWELL,VSS
* pin NWELL,VDD
* pin ZN
.SUBCKT NAND2_X2 1 2 3 4 5
* net 1 A2
* net 2 A1
* net 3 PWELL,VSS
* net 4 NWELL,VDD
* net 5 ZN
* device instance $1 r0 *1 0.195,0.995 PMOS_VTL
M$1 5 1 4 4 PMOS_VTL L=0.05U W=1.26U AS=0.11025P AD=0.11025P PS=2.24U PD=2.24U
* device instance $2 r0 *1 0.385,0.995 PMOS_VTL
M$2 4 2 5 4 PMOS_VTL L=0.05U W=1.26U AS=0.0882P AD=0.0882P PS=1.54U PD=1.54U
* device instance $5 r0 *1 0.195,0.2975 NMOS_VTL
M$5 7 1 3 3 NMOS_VTL L=0.05U W=0.415U AS=0.043575P AD=0.02905P PS=1.04U
+ PD=0.555U
* device instance $6 r0 *1 0.385,0.2975 NMOS_VTL
M$6 5 2 7 3 NMOS_VTL L=0.05U W=0.415U AS=0.02905P AD=0.02905P PS=0.555U
+ PD=0.555U
* device instance $7 r0 *1 0.575,0.2975 NMOS_VTL
M$7 6 2 5 3 NMOS_VTL L=0.05U W=0.415U AS=0.02905P AD=0.02905P PS=0.555U
+ PD=0.555U
* device instance $8 r0 *1 0.765,0.2975 NMOS_VTL
M$8 3 1 6 3 NMOS_VTL L=0.05U W=0.415U AS=0.02905P AD=0.043575P PS=0.555U
+ PD=1.04U
.ENDS NAND2_X2

* cell INV_X2
* pin A
* pin PWELL,VSS
* pin NWELL,VDD
* pin ZN
.SUBCKT INV_X2 1 2 3 4
* net 1 A
* net 2 PWELL,VSS
* net 3 NWELL,VDD
* net 4 ZN
* device instance $1 r0 *1 0.185,0.995 PMOS_VTL
M$1 4 1 3 3 PMOS_VTL L=0.05U W=1.26U AS=0.11025P AD=0.11025P PS=2.24U PD=2.24U
* device instance $3 r0 *1 0.185,0.2975 NMOS_VTL
M$3 4 1 2 2 NMOS_VTL L=0.05U W=0.83U AS=0.072625P AD=0.072625P PS=1.595U
+ PD=1.595U
.ENDS INV_X2

* cell INV_X1
* pin A
* pin PWELL,VSS
* pin NWELL,VDD
* pin ZN
.SUBCKT INV_X1 1 2 3 4
* net 1 A
* net 2 PWELL,VSS
* net 3 NWELL,VDD
* net 4 ZN
* device instance $1 r0 *1 0.17,0.995 PMOS_VTL
M$1 4 1 3 3 PMOS_VTL L=0.05U W=0.63U AS=0.06615P AD=0.06615P PS=1.47U PD=1.47U
* device instance $2 r0 *1 0.17,0.2975 NMOS_VTL
M$2 4 1 2 2 NMOS_VTL L=0.05U W=0.415U AS=0.043575P AD=0.043575P PS=1.04U
+ PD=1.04U
.ENDS INV_X1

* cell CLKBUF_X3
* pin A
* pin PWELL,VSS
* pin NWELL,VDD
* pin Z
.SUBCKT CLKBUF_X3 1 3 4 5
* net 1 A
* net 3 PWELL,VSS
* net 4 NWELL,VDD
* net 5 Z
* device instance $1 r0 *1 0.17,0.995 PMOS_VTL
M$1 4 1 2 4 PMOS_VTL L=0.05U W=0.63U AS=0.06615P AD=0.0441P PS=1.47U PD=0.77U
* device instance $2 r0 *1 0.36,0.995 PMOS_VTL
M$2 5 2 4 4 PMOS_VTL L=0.05U W=1.89U AS=0.1323P AD=0.15435P PS=2.31U PD=3.01U
* device instance $5 r0 *1 0.17,0.1875 NMOS_VTL
M$5 3 1 2 3 NMOS_VTL L=0.05U W=0.195U AS=0.020475P AD=0.01365P PS=0.6U PD=0.335U
* device instance $6 r0 *1 0.36,0.1875 NMOS_VTL
M$6 5 2 3 3 NMOS_VTL L=0.05U W=0.585U AS=0.04095P AD=0.047775P PS=1.005U
+ PD=1.27U
.ENDS CLKBUF_X3

* cell DFF_X2
* pin PWELL,VSS
* pin D
* pin CK
* pin QN
* pin Q
* pin NWELL,VDD
.SUBCKT DFF_X2 1 6 8 10 11 16
* net 1 PWELL,VSS
* net 6 D
* net 8 CK
* net 10 QN
* net 11 Q
* net 16 NWELL,VDD
* device instance $1 r0 *1 2.855,0.995 PMOS_VTL
M$1 10 9 16 16 PMOS_VTL L=0.05U W=1.26U AS=0.11025P AD=0.0882P PS=2.24U PD=1.54U
* device instance $3 r0 *1 3.235,0.995 PMOS_VTL
M$3 11 2 16 16 PMOS_VTL L=0.05U W=1.26U AS=0.0882P AD=0.11025P PS=1.54U PD=2.24U
* device instance $5 r0 *1 0.2,0.9275 PMOS_VTL
M$5 16 7 3 16 PMOS_VTL L=0.05U W=0.315U AS=0.033075P AD=0.014175P PS=0.84U
+ PD=0.455U
* device instance $6 r0 *1 0.39,1.04 PMOS_VTL
M$6 17 4 16 16 PMOS_VTL L=0.05U W=0.09U AS=0.014175P AD=0.0063P PS=0.455U
+ PD=0.23U
* device instance $7 r0 *1 0.58,1.04 PMOS_VTL
M$7 17 7 5 16 PMOS_VTL L=0.05U W=0.09U AS=0.01785P AD=0.0063P PS=0.56U PD=0.23U
* device instance $8 r0 *1 0.77,0.975 PMOS_VTL
M$8 18 3 5 16 PMOS_VTL L=0.05U W=0.42U AS=0.01785P AD=0.0294P PS=0.56U PD=0.56U
* device instance $9 r0 *1 0.96,0.975 PMOS_VTL
M$9 16 6 18 16 PMOS_VTL L=0.05U W=0.42U AS=0.0294P AD=0.025725P PS=0.56U
+ PD=0.56U
* device instance $10 r0 *1 1.15,1.0275 PMOS_VTL
M$10 4 5 16 16 PMOS_VTL L=0.05U W=0.315U AS=0.025725P AD=0.0567P PS=0.56U
+ PD=0.99U
* device instance $11 r0 *1 2.135,0.915 PMOS_VTL
M$11 20 3 9 16 PMOS_VTL L=0.05U W=0.09U AS=0.014175P AD=0.0063P PS=0.455U
+ PD=0.23U
* device instance $12 r0 *1 2.325,0.915 PMOS_VTL
M$12 20 2 16 16 PMOS_VTL L=0.05U W=0.09U AS=0.0252P AD=0.0063P PS=0.77U PD=0.23U
* device instance $13 r0 *1 1.565,1.0275 PMOS_VTL
M$13 16 8 7 16 PMOS_VTL L=0.05U W=0.315U AS=0.033075P AD=0.02205P PS=0.84U
+ PD=0.455U
* device instance $14 r0 *1 1.755,1.0275 PMOS_VTL
M$14 19 5 16 16 PMOS_VTL L=0.05U W=0.315U AS=0.02205P AD=0.02205P PS=0.455U
+ PD=0.455U
* device instance $15 r0 *1 1.945,1.0275 PMOS_VTL
M$15 9 7 19 16 PMOS_VTL L=0.05U W=0.315U AS=0.02205P AD=0.014175P PS=0.455U
+ PD=0.455U
* device instance $16 r0 *1 2.515,0.995 PMOS_VTL
M$16 2 9 16 16 PMOS_VTL L=0.05U W=0.63U AS=0.0252P AD=0.06615P PS=0.77U PD=1.47U
* device instance $17 r0 *1 2.855,0.2975 NMOS_VTL
M$17 10 9 1 1 NMOS_VTL L=0.05U W=0.83U AS=0.072625P AD=0.0581P PS=1.595U
+ PD=1.11U
* device instance $19 r0 *1 3.235,0.2975 NMOS_VTL
M$19 11 2 1 1 NMOS_VTL L=0.05U W=0.83U AS=0.0581P AD=0.072625P PS=1.11U
+ PD=1.595U
* device instance $21 r0 *1 0.39,0.31 NMOS_VTL
M$21 12 4 1 1 NMOS_VTL L=0.05U W=0.09U AS=0.0105P AD=0.0063P PS=0.35U PD=0.23U
* device instance $22 r0 *1 0.58,0.31 NMOS_VTL
M$22 12 3 5 1 NMOS_VTL L=0.05U W=0.09U AS=0.012775P AD=0.0063P PS=0.415U
+ PD=0.23U
* device instance $23 r0 *1 1.15,0.25 NMOS_VTL
M$23 4 5 1 1 NMOS_VTL L=0.05U W=0.21U AS=0.016975P AD=0.02205P PS=0.415U
+ PD=0.63U
* device instance $24 r0 *1 0.77,0.2825 NMOS_VTL
M$24 13 7 5 1 NMOS_VTL L=0.05U W=0.275U AS=0.012775P AD=0.01925P PS=0.415U
+ PD=0.415U
* device instance $25 r0 *1 0.96,0.2825 NMOS_VTL
M$25 1 6 13 1 NMOS_VTL L=0.05U W=0.275U AS=0.01925P AD=0.016975P PS=0.415U
+ PD=0.415U
* device instance $26 r0 *1 0.2,0.37 NMOS_VTL
M$26 1 7 3 1 NMOS_VTL L=0.05U W=0.21U AS=0.02205P AD=0.0105P PS=0.63U PD=0.35U
* device instance $27 r0 *1 1.565,0.35 NMOS_VTL
M$27 1 8 7 1 NMOS_VTL L=0.05U W=0.21U AS=0.02205P AD=0.0147P PS=0.63U PD=0.35U
* device instance $28 r0 *1 1.755,0.35 NMOS_VTL
M$28 14 5 1 1 NMOS_VTL L=0.05U W=0.21U AS=0.0147P AD=0.0147P PS=0.35U PD=0.35U
* device instance $29 r0 *1 1.945,0.35 NMOS_VTL
M$29 9 3 14 1 NMOS_VTL L=0.05U W=0.21U AS=0.0147P AD=0.0105P PS=0.35U PD=0.35U
* device instance $30 r0 *1 2.135,0.41 NMOS_VTL
M$30 15 7 9 1 NMOS_VTL L=0.05U W=0.09U AS=0.0105P AD=0.0063P PS=0.35U PD=0.23U
* device instance $31 r0 *1 2.325,0.41 NMOS_VTL
M$31 15 2 1 1 NMOS_VTL L=0.05U W=0.09U AS=0.017675P AD=0.0063P PS=0.555U
+ PD=0.23U
* device instance $32 r0 *1 2.515,0.2975 NMOS_VTL
M$32 2 9 1 1 NMOS_VTL L=0.05U W=0.415U AS=0.017675P AD=0.043575P PS=0.555U
+ PD=1.04U
.ENDS DFF_X2

* cell BUF_X1
* pin A
* pin PWELL,VSS
* pin NWELL,VDD
* pin Z
.SUBCKT BUF_X1 1 3 4 5
* net 1 A
* net 3 PWELL,VSS
* net 4 NWELL,VDD
* net 5 Z
* device instance $1 r0 *1 0.17,1.1525 PMOS_VTL
M$1 2 1 4 4 PMOS_VTL L=0.05U W=0.315U AS=0.033075P AD=0.033075P PS=0.77U
+ PD=0.84U
* device instance $2 r0 *1 0.36,0.995 PMOS_VTL
M$2 5 2 4 4 PMOS_VTL L=0.05U W=0.63U AS=0.033075P AD=0.06615P PS=0.77U PD=1.47U
* device instance $3 r0 *1 0.17,0.195 NMOS_VTL
M$3 3 1 2 3 NMOS_VTL L=0.05U W=0.21U AS=0.02205P AD=0.021875P PS=0.63U PD=0.555U
* device instance $4 r0 *1 0.36,0.2975 NMOS_VTL
M$4 5 2 3 3 NMOS_VTL L=0.05U W=0.415U AS=0.021875P AD=0.043575P PS=0.555U
+ PD=1.04U
.ENDS BUF_X1

* cell DFF_X1
* pin PWELL,VSS
* pin QN
* pin Q
* pin D
* pin CK
* pin NWELL,VDD
.SUBCKT DFF_X1 1 8 9 14 15 16
* net 1 PWELL,VSS
* net 8 QN
* net 9 Q
* net 14 D
* net 15 CK
* net 16 NWELL,VDD
* device instance $1 r0 *1 2.85,0.995 PMOS_VTL
M$1 16 6 8 16 PMOS_VTL L=0.05U W=0.63U AS=0.06615P AD=0.0441P PS=1.47U PD=0.77U
* device instance $2 r0 *1 3.04,0.995 PMOS_VTL
M$2 9 7 16 16 PMOS_VTL L=0.05U W=0.63U AS=0.0441P AD=0.06615P PS=0.77U PD=1.47U
* device instance $3 r0 *1 0.185,0.9425 PMOS_VTL
M$3 16 5 2 16 PMOS_VTL L=0.05U W=0.315U AS=0.033075P AD=0.014175P PS=0.84U
+ PD=0.455U
* device instance $4 r0 *1 0.375,1.055 PMOS_VTL
M$4 17 3 16 16 PMOS_VTL L=0.05U W=0.09U AS=0.014175P AD=0.0063P PS=0.455U
+ PD=0.23U
* device instance $5 r0 *1 0.565,1.055 PMOS_VTL
M$5 17 5 4 16 PMOS_VTL L=0.05U W=0.09U AS=0.018075P AD=0.0063P PS=0.565U
+ PD=0.23U
* device instance $6 r0 *1 0.76,0.975 PMOS_VTL
M$6 18 2 4 16 PMOS_VTL L=0.05U W=0.42U AS=0.018075P AD=0.0294P PS=0.565U
+ PD=0.56U
* device instance $7 r0 *1 0.95,0.975 PMOS_VTL
M$7 16 14 18 16 PMOS_VTL L=0.05U W=0.42U AS=0.0294P AD=0.025725P PS=0.56U
+ PD=0.56U
* device instance $8 r0 *1 1.14,1.0275 PMOS_VTL
M$8 3 4 16 16 PMOS_VTL L=0.05U W=0.315U AS=0.025725P AD=0.0567P PS=0.56U
+ PD=0.99U
* device instance $9 r0 *1 1.555,1.0275 PMOS_VTL
M$9 16 15 5 16 PMOS_VTL L=0.05U W=0.315U AS=0.033075P AD=0.02205P PS=0.84U
+ PD=0.455U
* device instance $10 r0 *1 1.745,1.0275 PMOS_VTL
M$10 19 4 16 16 PMOS_VTL L=0.05U W=0.315U AS=0.02205P AD=0.02205P PS=0.455U
+ PD=0.455U
* device instance $11 r0 *1 1.935,1.0275 PMOS_VTL
M$11 6 5 19 16 PMOS_VTL L=0.05U W=0.315U AS=0.02205P AD=0.014175P PS=0.455U
+ PD=0.455U
* device instance $12 r0 *1 2.125,1.14 PMOS_VTL
M$12 20 2 6 16 PMOS_VTL L=0.05U W=0.09U AS=0.014175P AD=0.006525P PS=0.455U
+ PD=0.235U
* device instance $13 r0 *1 2.32,1.14 PMOS_VTL
M$13 20 7 16 16 PMOS_VTL L=0.05U W=0.09U AS=0.014175P AD=0.006525P PS=0.455U
+ PD=0.235U
* device instance $14 r0 *1 2.51,1.0275 PMOS_VTL
M$14 7 6 16 16 PMOS_VTL L=0.05U W=0.315U AS=0.014175P AD=0.033075P PS=0.455U
+ PD=0.84U
* device instance $15 r0 *1 2.85,0.2975 NMOS_VTL
M$15 1 6 8 1 NMOS_VTL L=0.05U W=0.415U AS=0.043575P AD=0.02905P PS=1.04U
+ PD=0.555U
* device instance $16 r0 *1 3.04,0.2975 NMOS_VTL
M$16 9 7 1 1 NMOS_VTL L=0.05U W=0.415U AS=0.02905P AD=0.043575P PS=0.555U
+ PD=1.04U
* device instance $17 r0 *1 2.125,0.345 NMOS_VTL
M$17 12 5 6 1 NMOS_VTL L=0.05U W=0.09U AS=0.0105P AD=0.006525P PS=0.35U
+ PD=0.235U
* device instance $18 r0 *1 2.32,0.345 NMOS_VTL