
* cell pipelined_fifo
* pin VSS,rd_data[0],rd_data[10],rd_data[11],rd_data[12],rd_data[13],rd_data[14],rd_data[15],rd_data[16],rd_data[17],rd_data[18],rd_data[19],rd_data[1],rd_data[20],rd_data[21],rd_data[22],rd_data[23],rd_data[24],rd_data[25],rd_data[26],rd_data[27],rd_data[28],rd_data[29],rd_data[2],rd_data[30],rd_data[31],rd_data[3],rd_data[4],rd_data[5],rd_data[6],rd_data[7],rd_data[8],rd_data[9]
* pin VDD
* pin rst_n
* pin rd_en
* pin data_count[0]
* pin empty
* pin clk
* pin data_count[1]
* pin full
* pin data_count[4]
* pin wr_en
* pin data_count[2]
* pin data_count[3]
* pin almost_empty
* pin almost_full
.SUBCKT pipelined_fifo 1 2 20 23 64 77 98 104 148 150 151 153 154 155 157
* net 1 VSS,rd_data[0],rd_data[10],rd_data[11],rd_data[12],rd_data[13],rd_data[14],rd_data[15],rd_data[16],rd_data[17],rd_data[18],rd_data[19],rd_data[1],rd_data[20],rd_data[21],rd_data[22],rd_data[23],rd_data[24],rd_data[25],rd_data[26],rd_data[27],rd_data[28],rd_data[29],rd_data[2],rd_data[30],rd_data[31],rd_data[3],rd_data[4],rd_data[5],rd_data[6],rd_data[7],rd_data[8],rd_data[9]
* net 2 VDD
* net 20 rst_n
* net 23 rd_en
* net 64 data_count[0]
* net 77 empty
* net 98 clk
* net 104 data_count[1]
* net 148 full
* net 150 data_count[4]
* net 151 wr_en
* net 153 data_count[2]
* net 154 data_count[3]
* net 155 almost_empty
* net 157 almost_full
* cell instance $203 m0 *1 1.38,19.04
X$203 1 7 3 12 5 2 2 1 sky130_fd_sc_hd__dfrtp_1
* cell instance $210 r0 *1 10.12,13.6
X$210 2 3 2 1 4 1 sky130_fd_sc_hd__inv_1
* cell instance $212 m0 *1 11.04,19.04
X$212 2 21 4 5 2 1 1 sky130_fd_sc_hd__xnor2_1
* cell instance $220 m0 *1 16.1,19.04
X$220 2 6 8 9 2 1 1 sky130_fd_sc_hd__xnor2_1
* cell instance $223 m0 *1 19.78,19.04
X$223 1 7 8 12 9 2 2 1 sky130_fd_sc_hd__dfrtp_1
* cell instance $230 m0 *1 31.74,19.04
X$230 2 6 2 1 16 1 sky130_fd_sc_hd__inv_1
* cell instance $231 m0 *1 33.12,19.04
X$231 1 7 15 11 16 2 2 1 sky130_fd_sc_hd__dfrtp_1
* cell instance $242 m0 *1 44.16,19.04
X$242 2 14 13 10 2 1 1 sky130_fd_sc_hd__xnor2_1
* cell instance $244 m0 *1 47.38,19.04
X$244 1 7 13 11 10 2 2 1 sky130_fd_sc_hd__dfrtp_1
* cell instance $253 r0 *1 1.38,19.04
X$253 2 23 1 2 18 1 sky130_fd_sc_hd__clkdlybuf4s50_1
* cell instance $256 r0 *1 7.36,19.04
X$256 1 18 6 17 2 2 1 sky130_fd_sc_hd__nand2b_4
* cell instance $257 r0 *1 12.42,19.04
X$257 2 28 17 18 21 1 2 1 sky130_fd_sc_hd__nor3b_1
* cell instance $263 r0 *1 18.4,19.04
X$263 1 6 26 19 22 2 2 1 sky130_fd_sc_hd__mux2_4
* cell instance $264 r0 *1 23.92,19.04
X$264 1 7 19 11 22 2 2 1 sky130_fd_sc_hd__dfrtp_1
* cell instance $272 r0 *1 43.24,19.04
X$272 2 15 2 1 30 1 sky130_fd_sc_hd__inv_1
* cell instance $273 r0 *1 44.62,19.04
X$273 1 14 35 30 29 2 2 1 sky130_fd_sc_hd__ha_1
* cell instance $277 r0 *1 55.66,19.04
X$277 2 25 2 1 7 1 sky130_fd_sc_hd__buf_4
* cell instance $278 r0 *1 58.42,19.04
X$278 2 20 1 2 25 1 sky130_fd_sc_hd__clkdlybuf4s50_1
* cell instance $283 m0 *1 5.98,24.48
X$283 1 7 34 12 37 2 2 1 sky130_fd_sc_hd__dfrtp_1
* cell instance $285 m0 *1 16.1,24.48
X$285 2 8 34 19 28 2 1 1 sky130_fd_sc_hd__nand3_1
* cell instance $286 m0 *1 17.94,24.48
X$286 1 26 40 8 19 2 2 1 sky130_fd_sc_hd__ha_1
* cell instance $289 m0 *1 24.84,24.48
X$289 2 24 2 1 32 1 sky130_fd_sc_hd__inv_1
* cell instance $294 m0 *1 30.36,24.48
X$294 1 7 31 11 32 2 2 1 sky130_fd_sc_hd__dfrtp_1
* cell instance $295 m0 *1 39.56,24.48
X$295 1 7 29 11 31 2 2 1 sky130_fd_sc_hd__dfrtp_1
* cell instance $297 m0 *1 50.6,24.48
X$297 2 14 39 27 2 38 1 1 sky130_fd_sc_hd__o21ai_0
* cell instance $298 m0 *1 52.44,24.48
X$298 2 36 14 27 2 1 1 sky130_fd_sc_hd__nand2_1
* cell instance $308 r0 *1 7.36,24.48
X$308 2 43 45 37 2 1 1 sky130_fd_sc_hd__xnor2_1
* cell instance $309 r0 *1 10.58,24.48
X$309 2 17 33 43 1 2 1 sky130_fd_sc_hd__nor2_1
* cell instance $310 r0 *1 11.96,24.48
X$310 2 18 40 33 2 1 1 sky130_fd_sc_hd__nand2_1
* cell instance $314 r0 *1 15.64,24.48
X$314 2 34 2 1 45 1 sky130_fd_sc_hd__inv_1
* cell instance $318 r0 *1 26.22,24.48
X$318 2 19 2 1 46 1 sky130_fd_sc_hd__inv_1
* cell instance $327 r0 *1 46.92,24.48
X$327 2 44 35 2 39 1 1 sky130_fd_sc_hd__xor2_1
* cell instance $328 r0 *1 50.14,24.48
X$328 1 7 36 11 38 2 2 1 sky130_fd_sc_hd__dfrtp_1
* cell instance $334 m0 *1 9.2,29.92
X$334 2 33 4 45 17 1 41 2 1 sky130_fd_sc_hd__nor4_1
* cell instance $335 m0 *1 11.5,29.92
X$335 2 41 52 2 54 1 1 sky130_fd_sc_hd__xor2_1
* cell instance $340 m0 *1 20.24,29.92
X$340 2 55 60 42 57 1 2 1 sky130_fd_sc_hd__and3b_1
* cell instance $341 m0 *1 23.46,29.92
X$341 1 47 42 8 56 2 2 1 sky130_fd_sc_hd__ha_1
* cell instance $344 m0 *1 29.44,29.92
X$344 2 42 2 1 53 1 sky130_fd_sc_hd__inv_1
* cell instance $353 m0 *1 46.92,29.92
X$353 2 13 2 1 51 1 sky130_fd_sc_hd__inv_1
* cell instance $356 m0 *1 49.68,29.92
X$356 2 59 50 2 49 1 1 sky130_fd_sc_hd__xor2_1
* cell instance $361 m0 *1 58.42,29.92
X$361 2 48 1 2 64 1 sky130_fd_sc_hd__clkdlybuf4s50_1
* cell instance $363 r0 *1 2.3,29.92
X$363 1 7 52 12 54 2 2 1 sky130_fd_sc_hd__dfrtp_1
* cell instance $364 r0 *1 11.5,29.92
X$364 2 52 140 65 2 1 1 sky130_fd_sc_hd__xnor2_1
* cell instance $370 r0 *1 18.4,29.92
X$370 1 55 70 45 66 2 2 1 sky130_fd_sc_hd__ha_1
* cell instance $371 r0 *1 23,29.92
X$371 1 60 68 46 58 2 2 1 sky130_fd_sc_hd__ha_1
* cell instance $372 r0 *1 27.6,29.92
X$372 1 62 67 46 53 58 2 2 1 sky130_fd_sc_hd__fa_1
* cell instance $379 r0 *1 45.08,29.92
X$379 1 44 63 51 83 2 2 1 sky130_fd_sc_hd__ha_1
* cell instance $381 r0 *1 50.6,29.92
X$381 2 14 73 59 1 2 1 sky130_fd_sc_hd__nor2_1
* cell instance $382 r0 *1 51.98,29.92
X$382 1 7 50 11 49 2 2 1 sky130_fd_sc_hd__dfrtp_1
* cell instance $391 m0 *1 9.2,35.36
X$391 1 61 69 4 114 2 2 1 sky130_fd_sc_hd__ha_1
* cell instance $392 m0 *1 13.8,35.36
X$392 1 12 158 2 2 1 sky130_fd_sc_hd__clkbuf_8
* cell instance $393 m0 *1 18.86,35.36
X$393 2 69 61 70 1 2 74 1 sky130_fd_sc_hd__a21oi_1
* cell instance $394 m0 *1 20.7,35.36
X$394 2 55 61 62 78 2 1 1 sky130_fd_sc_hd__nand3_1
* cell instance $395 m0 *1 22.54,35.36
X$395 2 70 55 68 2 1 79 1 sky130_fd_sc_hd__a21o_2
* cell instance $396 m0 *1 25.76,35.36
X$396 2 62 55 76 2 1 1 sky130_fd_sc_hd__xnor2_1
* cell instance $402 m0 *1 36.34,35.36
X$402 2 47 2 1 75 1 sky130_fd_sc_hd__inv_1
* cell instance $403 m0 *1 37.72,35.36
X$403 1 71 11 2 2 1 sky130_fd_sc_hd__clkbuf_8
* cell instance $404 m0 *1 42.78,35.36
X$404 1 48 80 13 75 2 2 1 sky130_fd_sc_hd__ha_1
* cell instance $406 m0 *1 48.3,35.36
X$406 1 159 72 13 36 2 2 1 sky130_fd_sc_hd__ha_1
* cell instance $407 m0 *1 52.9,35.36
X$407 1 73 63 72 35 2 2 1 sky130_fd_sc_hd__mux2i_1
* cell instance $415 r0 *1 4.6,35.36
X$415 2 17 1 2 77 1 sky130_fd_sc_hd__clkdlybuf4s50_1
* cell instance $418 r0 *1 10.58,35.36
X$418 2 24 85 95 2 1 1 sky130_fd_sc_hd__xnor2_1
* cell instance $423 r0 *1 15.64,35.36
X$423 1 71 12 2 2 1 sky130_fd_sc_hd__clkbuf_8
* cell instance $424 r0 *1 20.7,35.36
X$424 1 74 89 78 65 2 2 1 sky130_fd_sc_hd__and3_1
* cell instance $425 r0 *1 23,35.36
X$425 1 91 79 57 61 2 2 1 sky130_fd_sc_hd__or3_4
* cell instance $426 r0 *1 27.14,35.36
X$426 1 98 71 2 2 1 sky130_fd_sc_hd__clkbuf_8
* cell instance $428 r0 *1 35.88,35.36
X$428 2 67 47 92 1 2 1 sky130_fd_sc_hd__nor2b_1
* cell instance $429 r0 *1 38.18,35.36
X$429 1 160 87 13 83 2 2 1 sky130_fd_sc_hd__ha_1
* cell instance $432 r0 *1 43.24,35.36
X$432 1 86 84 36 67 2 2 1 sky130_fd_sc_hd__ha_1
* cell instance $433 r0 *1 47.84,35.36
X$433 2 36 2 1 83 1 sky130_fd_sc_hd__inv_1
* cell instance $435 r0 *1 50.14,35.36
X$435 2 13 50 36 35 2 97 1 1 sky130_fd_sc_hd__nand4_1
* cell instance $447 m0 *1 9.2,40.8
X$447 1 7 85 12 95 2 2 1 sky130_fd_sc_hd__dfrtp_1
* cell instance $449 m0 *1 18.86,40.8
X$449 1 102 17 89 81 90 91 2 2 1 sky130_fd_sc_hd__a2111oi_4
* cell instance $455 m0 *1 36.34,40.8
X$455 2 99 63 76 92 2 81 1 1 sky130_fd_sc_hd__nand4_1
* cell instance $456 m0 *1 38.64,40.8
X$456 2 99 82 92 76 87 88 2 1 1 sky130_fd_sc_hd__o221ai_1
* cell instance $458 m0 *1 42.32,40.8
X$458 2 86 80 84 1 2 100 1 sky130_fd_sc_hd__a21o_1
* cell instance $461 m0 *1 47.84,40.8
X$461 2 36 13 82 1 2 1 sky130_fd_sc_hd__nor2_1
* cell instance $462 m0 *1 49.22,40.8
X$462 2 50 35 108 1 2 1 sky130_fd_sc_hd__nor2_1
* cell instance $464 m0 *1 51.06,40.8
X$464 2 14 97 93 1 2 136 1 sky130_fd_sc_hd__a21oi_1
* cell instance $465 m0 *1 52.9,40.8
X$465 2 96 35 50 63 1 2 105 1 sky130_fd_sc_hd__or4b_2
* cell instance $472 r0 *1 5.98,40.8
X$472 1 7 58 12 113 2 2 1 sky130_fd_sc_hd__dfrtp_1
* cell instance $479 r0 *1 17.02,40.8
X$479 2 65 78 74 1 2 102 1 sky130_fd_sc_hd__a21oi_1
* cell instance $481 r0 *1 20.7,40.8
X$481 2 102 89 103 1 2 1 sky130_fd_sc_hd__nor2_1
* cell instance $483 r0 *1 22.54,40.8
X$483 2 85 2 1 56 1 sky130_fd_sc_hd__inv_1
* cell instance $484 r0 *1 23.92,40.8
X$484 2 57 79 61 2 90 1 1 sky130_fd_sc_hd__o21ai_0
* cell instance $487 r0 *1 27.14,40.8
X$487 2 90 91 109 2 1 1 sky130_fd_sc_hd__nand2_1
* cell instance $492 r0 *1 40.02,40.8
X$492 2 96 50 107 99 1 2 1 sky130_fd_sc_hd__nor3_1
* cell instance $500 r0 *1 44.62,40.8
X$500 2 80 2 1 101 1 sky130_fd_sc_hd__inv_1
* cell instance $502 r0 *1 49.68,40.8
X$502 2 82 108 93 2 1 1 sky130_fd_sc_hd__nand2_1
* cell instance $505 r0 *1 52.44,40.8
X$505 2 14 94 105 1 2 106 1 sky130_fd_sc_hd__a21oi_1
* cell instance $506 r0 *1 54.28,40.8
X$506 2 35 96 50 72 2 94 1 1 sky130_fd_sc_hd__nand4_1
* cell instance $511 m0 *1 6.9,46.24
X$511 1 113 124 58 24 2 2 1 sky130_fd_sc_hd__mux2_2
* cell instance $513 m0 *1 11.96,46.24
X$513 1 124 130 85 58 2 2 1 sky130_fd_sc_hd__ha_1
* cell instance $517 m0 *1 19.78,46.24
X$517 2 66 58 85 127 2 1 1 sky130_fd_sc_hd__nand3_1
* cell instance $519 m0 *1 22.54,46.24
X$519 2 110 116 103 24 1 2 1 sky130_fd_sc_hd__nand3b_1
* cell instance $520 m0 *1 25.3,46.24
X$520 2 91 90 111 2 1 110 1 sky130_fd_sc_hd__and3b_2
* cell instance $522 m0 *1 29.44,46.24
X$522 2 76 109 103 2 128 1 1 sky130_fd_sc_hd__o21ai_0
* cell instance $525 m0 *1 33.58,46.24
X$525 2 67 112 111 2 1 1 sky130_fd_sc_hd__nand2_1
* cell instance $528 m0 *1 36.34,46.24
X$528 2 76 2 1 112 1 sky130_fd_sc_hd__inv_1
* cell instance $531 m0 *1 39.1,46.24
X$531 1 126 119 50 112 2 2 1 sky130_fd_sc_hd__ha_1
* cell instance $533 m0 *1 44.16,46.24
X$533 2 67 2 1 125 1 sky130_fd_sc_hd__inv_1
* cell instance $534 m0 *1 45.54,46.24
X$534 1 121 123 125 101 83 2 2 1 sky130_fd_sc_hd__fa_1
* cell instance $535 m0 *1 52.9,46.24
X$535 2 123 2 1 122 1 sky130_fd_sc_hd__inv_1
* cell instance $539 m0 *1 57.04,46.24
X$539 2 122 1 2 104 1 sky130_fd_sc_hd__clkdlybuf4s50_1
* cell instance $546 r0 *1 8.28,46.24
X$546 2 115 114 2 134 1 1 sky130_fd_sc_hd__xor2_1
* cell instance $553 r0 *1 17.48,46.24
X$553 1 115 116 103 127 110 2 2 1 sky130_fd_sc_hd__and4bb_2
* cell instance $557 r0 *1 28.52,46.24
X$557 2 109 111 103 2 147 1 1 sky130_fd_sc_hd__o21ai_0
* cell instance $560 r0 *1 33.12,46.24
X$560 2 103 109 117 2 1 1 sky130_fd_sc_hd__nand2_1
* cell instance $562 r0 *1 34.96,46.24
X$562 2 117 88 152 1 2 1 sky130_fd_sc_hd__nor2_1
* cell instance $565 r0 *1 37.72,46.24
X$565 2 109 2 1 132 1 sky130_fd_sc_hd__inv_1
* cell instance $566 r0 *1 39.1,46.24
X$566 2 118 131 133 1 2 138 1 sky130_fd_sc_hd__a21oi_1
* cell instance $567 r0 *1 40.94,46.24
X$567 2 119 126 100 1 2 139 1 sky130_fd_sc_hd__a21oi_1
* cell instance $572 r0 *1 43.24,46.24
X$572 2 126 120 119 1 2 133 1 sky130_fd_sc_hd__a21o_1
* cell instance $573 r0 *1 46,46.24
X$573 2 121 2 1 120 1 sky130_fd_sc_hd__inv_1
* cell instance $576 r0 *1 48.76,46.24
X$576 2 106 107 2 137 1 1 sky130_fd_sc_hd__xor2_1
* cell instance $577 r0 *1 51.98,46.24
X$577 2 136 96 2 135 1 1 sky130_fd_sc_hd__xor2_1
* cell instance $583 m0 *1 2.3,51.68
X$583 1 7 140 12 129 2 2 1 sky130_fd_sc_hd__dfrtp_1
* cell instance $584 m0 *1 11.5,51.68
X$584 2 141 140 2 129 1 1 sky130_fd_sc_hd__xor2_1
* cell instance $586 m0 *1 15.18,51.68
X$586 2 130 66 114 142 2 1 1 sky130_fd_sc_hd__nand3_1
* cell instance $587 m0 *1 17.02,51.68
X$587 1 141 116 103 142 110 2 2 1 sky130_fd_sc_hd__and4bb_2
* cell instance $588 m0 *1 21.62,51.68
X$588 2 110 103 130 116 2 146 1 1 sky130_fd_sc_hd__nand4b_1
* cell instance $594 m0 *1 34.96,51.68
X$594 2 138 107 144 2 1 1 sky130_fd_sc_hd__xnor2_1
* cell instance $595 m0 *1 38.18,51.68
X$595 1 131 118 96 132 2 2 1 sky130_fd_sc_hd__ha_1
* cell instance $597 m0 *1 43.7,51.68
X$597 2 121 126 143 2 1 1 sky130_fd_sc_hd__xnor2_1
* cell instance $599 m0 *1 47.38,51.68
X$599 1 7 107 11 137 2 2 1 sky130_fd_sc_hd__dfrtp_1
* cell instance $608 r0 *1 5.98,51.68
X$608 1 7 114 12 134 2 2 1 sky130_fd_sc_hd__dfrtp_1
* cell instance $613 r0 *1 18.4,51.68
X$613 1 7 66 11 145 2 2 1 sky130_fd_sc_hd__dfrtp_1
* cell instance $615 r0 *1 29.44,51.68
X$615 2 147 1 2 148 1 sky130_fd_sc_hd__clkdlybuf4s50_1
* cell instance $617 r0 *1 34.96,51.68
X$617 2 144 103 156 2 1 1 sky130_fd_sc_hd__xnor2_1
* cell instance $619 r0 *1 38.64,51.68
X$619 2 139 131 149 2 1 1 sky130_fd_sc_hd__xnor2_1
* cell instance $627 r0 *1 51.98,51.68
X$627 1 7 96 11 135 2 2 1 sky130_fd_sc_hd__dfrtp_1
* cell instance $645 m0 *1 17.48,57.12
X$645 2 146 66 145 2 1 1 sky130_fd_sc_hd__xnor2_1
* cell instance $646 m0 *1 20.7,57.12
X$646 2 151 1 2 116 1 sky130_fd_sc_hd__clkdlybuf4s50_1
* cell instance $653 m0 *1 37.72,57.12
X$653 2 156 1 2 150 1 sky130_fd_sc_hd__clkdlybuf4s50_1
* cell instance $679 r0 *1 29.9,57.12
X$679 2 128 1 2 157 1 sky130_fd_sc_hd__clkdlybuf4s50_1
* cell instance $681 r0 *1 35.42,57.12
X$681 2 152 1 2 155 1 sky130_fd_sc_hd__clkdlybuf4s50_1
* cell instance $682 r0 *1 39.1,57.12
X$682 2 149 1 2 154 1 sky130_fd_sc_hd__clkdlybuf4s50_1
* cell instance $686 r0 *1 43.7,57.12
X$686 2 143 1 2 153 1 sky130_fd_sc_hd__clkdlybuf4s50_1
.ENDS pipelined_fifo

* cell sky130_fd_sc_hd__buf_4
* pin VPB
* pin A
* pin VPWR
* pin VGND
* pin X
* pin 
.SUBCKT sky130_fd_sc_hd__buf_4 1 3 4 5 6 7
* net 1 VPB
* net 3 A
* net 4 VPWR
* net 5 VGND
* net 6 X
* device instance $1 r0 *1 0.47,1.985 pfet_01v8_hvt
M$1 4 3 2 1 pfet_01v8_hvt L=150000U W=1000000U AS=260000000000P
+ AD=135000000000P PS=2520000U PD=1270000U
* device instance $2 r0 *1 0.89,1.985 pfet_01v8_hvt
M$2 6 2 4 1 pfet_01v8_hvt L=150000U W=4000000U AS=540000000000P
+ AD=665000000000P PS=5080000U PD=6330000U
* device instance $6 r0 *1 0.47,0.56 nfet_01v8
M$6 5 3 2 7 nfet_01v8 L=150000U W=650000U AS=169000000000P AD=87750000000P
+ PS=1820000U PD=920000U
* device instance $7 r0 *1 0.89,0.56 nfet_01v8
M$7 6 2 5 7 nfet_01v8 L=150000U W=2600000U AS=351000000000P AD=432250000000P
+ PS=3680000U PD=4580000U
.ENDS sky130_fd_sc_hd__buf_4

* cell sky130_fd_sc_hd__nor4_1
* pin VPB
* pin D
* pin B
* pin A
* pin C
* pin VGND
* pin Y
* pin VPWR
* pin 
.SUBCKT sky130_fd_sc_hd__nor4_1 1 2 3 4 5 6 7 8 9
* net 1 VPB
* net 2 D
* net 3 B
* net 4 A
* net 5 C
* net 6 VGND
* net 7 Y
* net 8 VPWR
* device instance $1 r0 *1 0.47,1.985 pfet_01v8_hvt
M$1 11 2 7 1 pfet_01v8_hvt L=150000U W=1000000U AS=260000000000P
+ AD=130000000000P PS=2520000U PD=1260000U
* device instance $2 r0 *1 0.88,1.985 pfet_01v8_hvt
M$2 10 5 11 1 pfet_01v8_hvt L=150000U W=1000000U AS=130000000000P
+ AD=190000000000P PS=1260000U PD=1380000U
* device instance $3 r0 *1 1.41,1.985 pfet_01v8_hvt
M$3 12 3 10 1 pfet_01v8_hvt L=150000U W=1000000U AS=190000000000P
+ AD=135000000000P PS=1380000U PD=1270000U
* device instance $4 r0 *1 1.83,1.985 pfet_01v8_hvt
M$4 8 4 12 1 pfet_01v8_hvt L=150000U W=1000000U AS=135000000000P
+ AD=260000000000P PS=1270000U PD=2520000U
* device instance $5 r0 *1 0.47,0.56 nfet_01v8
M$5 7 2 6 9 nfet_01v8 L=150000U W=650000U AS=169000000000P AD=118625000000P
+ PS=1820000U PD=1015000U
* device instance $6 r0 *1 0.985,0.56 nfet_01v8
M$6 6 5 7 9 nfet_01v8 L=150000U W=650000U AS=118625000000P AD=89375000000P
+ PS=1015000U PD=925000U
* device instance $7 r0 *1 1.41,0.56 nfet_01v8
M$7 7 3 6 9 nfet_01v8 L=150000U W=650000U AS=89375000000P AD=87750000000P
+ PS=925000U PD=920000U
* device instance $8 r0 *1 1.83,0.56 nfet_01v8
M$8 6 4 7 9 nfet_01v8 L=150000U W=650000U AS=87750000000P AD=169000000000P
+ PS=920000U PD=1820000U
.ENDS sky130_fd_sc_hd__nor4_1

* cell sky130_fd_sc_hd__nor3b_1
* pin VPB
* pin B
* pin A
* pin C_N
* pin Y
* pin VGND
* pin VPWR
* pin 
.SUBCKT sky130_fd_sc_hd__nor3b_1 1 2 3 4 5 6 7 9
* net 1 VPB
* net 2 B
* net 3 A
* net 4 C_N
* net 5 Y
* net 6 VGND
* net 7 VPWR
* device instance $1 r0 *1 2.055,1.86 pfet_01v8_hvt
M$1 8 4 7 1 pfet_01v8_hvt L=150000U W=420000U AS=145750000000P AD=109200000000P
+ PS=1335000U PD=1360000U
* device instance $2 r0 *1 0.73,1.985 pfet_01v8_hvt
M$2 11 8 5 1 pfet_01v8_hvt L=150000U W=1000000U AS=320000000000P
+ AD=135000000000P PS=2640000U PD=1270000U
* device instance $3 r0 *1 1.15,1.985 pfet_01v8_hvt
M$3 10 2 11 1 pfet_01v8_hvt L=150000U W=1000000U AS=135000000000P
+ AD=135000000000P PS=1270000U PD=1270000U
* device instance $4 r0 *1 1.57,1.985 pfet_01v8_hvt
M$4 7 3 10 1 pfet_01v8_hvt L=150000U W=1000000U AS=135000000000P
+ AD=145750000000P PS=1270000U PD=1335000U
* device instance $5 r0 *1 0.73,0.56 nfet_01v8
M$5 6 8 5 9 nfet_01v8 L=150000U W=650000U AS=221000000000P AD=87750000000P
+ PS=1980000U PD=920000U
* device instance $6 r0 *1 1.15,0.56 nfet_01v8
M$6 5 2 6 9 nfet_01v8 L=150000U W=650000U AS=87750000000P AD=87750000000P
+ PS=920000U PD=920000U
* device instance $7 r0 *1 1.57,0.56 nfet_01v8
M$7 6 3 5 9 nfet_01v8 L=150000U W=650000U AS=87750000000P AD=100250000000P
+ PS=920000U PD=985000U
* device instance $8 r0 *1 2.055,0.675 nfet_01v8
M$8 8 4 6 9 nfet_01v8 L=150000U W=420000U AS=100250000000P AD=109200000000P
+ PS=985000U PD=1360000U
.ENDS sky130_fd_sc_hd__nor3b_1

* cell sky130_fd_sc_hd__nand2b_4
* pin VGND
* pin B
* pin Y
* pin A_N
* pin VPWR
* pin VPB
* pin 
.SUBCKT sky130_fd_sc_hd__nand2b_4 1 2 5 6 7 8 9
* net 1 VGND
* net 2 B
* net 5 Y
* net 6 A_N
* net 7 VPWR
* net 8 VPB
* device instance $1 r0 *1 1.41,1.985 pfet_01v8_hvt
M$1 5 3 7 8 pfet_01v8_hvt L=150000U W=4000000U AS=665000000000P
+ AD=547500000000P PS=6330000U PD=5095000U
* device instance $5 r0 *1 3.105,1.985 pfet_01v8_hvt
M$5 5 2 7 8 pfet_01v8_hvt L=150000U W=4000000U AS=547500000000P
+ AD=795000000000P PS=5095000U PD=6590000U
* device instance $9 r0 *1 0.47,1.985 pfet_01v8_hvt
M$9 7 6 3 8 pfet_01v8_hvt L=150000U W=1000000U AS=260000000000P
+ AD=260000000000P PS=2520000U PD=2520000U
* device instance $10 r0 *1 1.41,0.56 nfet_01v8
M$10 5 3 4 9 nfet_01v8 L=150000U W=2600000U AS=432250000000P AD=355875000000P
+ PS=4580000U PD=3695000U
* device instance $14 r0 *1 3.105,0.56 nfet_01v8
M$14 1 2 4 9 nfet_01v8 L=150000U W=2600000U AS=355875000000P AD=516750000000P
+ PS=3695000U PD=4840000U
* device instance $18 r0 *1 0.47,0.56 nfet_01v8
M$18 1 6 3 9 nfet_01v8 L=150000U W=650000U AS=169000000000P AD=169000000000P
+ PS=1820000U PD=1820000U
.ENDS sky130_fd_sc_hd__nand2b_4

* cell sky130_fd_sc_hd__mux2_4
* pin VGND
* pin S
* pin A0
* pin A1
* pin X
* pin VPWR
* pin VPB
* pin 
.SUBCKT sky130_fd_sc_hd__mux2_4 1 3 4 6 7 10 11 14
* net 1 VGND
* net 3 S
* net 4 A0
* net 6 A1
* net 7 X
* net 10 VPWR
* net 11 VPB
* device instance $1 r0 *1 3.37,1.985 pfet_01v8_hvt
M$1 10 3 13 11 pfet_01v8_hvt L=150000U W=1000000U AS=260000000000P
+ AD=135000000000P PS=2520000U PD=1270000U
* device instance $2 r0 *1 3.79,1.985 pfet_01v8_hvt
M$2 7 5 10 11 pfet_01v8_hvt L=150000U W=4000000U AS=540000000000P
+ AD=665000000000P PS=5080000U PD=6330000U
* device instance $6 r0 *1 1.905,1.985 pfet_01v8_hvt
M$6 5 4 13 11 pfet_01v8_hvt L=150000U W=1000000U AS=260000000000P
+ AD=160000000000P PS=2520000U PD=1320000U
* device instance $7 r0 *1 2.375,1.985 pfet_01v8_hvt
M$7 12 6 5 11 pfet_01v8_hvt L=150000U W=1000000U AS=160000000000P
+ AD=300000000000P PS=1320000U PD=2600000U
* device instance $8 r0 *1 0.47,1.985 pfet_01v8_hvt
M$8 10 3 2 11 pfet_01v8_hvt L=150000U W=1000000U AS=260000000000P
+ AD=162500000000P PS=2520000U PD=1325000U
* device instance $9 r0 *1 0.945,1.985 pfet_01v8_hvt
M$9 12 2 10 11 pfet_01v8_hvt L=150000U W=1000000U AS=162500000000P
+ AD=280000000000P PS=1325000U PD=2560000U
* device instance $10 r0 *1 0.47,0.56 nfet_01v8
M$10 1 3 2 14 nfet_01v8 L=150000U W=650000U AS=169000000000P AD=108875000000P
+ PS=1820000U PD=985000U
* device instance $11 r0 *1 0.955,0.56 nfet_01v8
M$11 8 2 1 14 nfet_01v8 L=150000U W=650000U AS=108875000000P AD=260000000000P
+ PS=985000U PD=1450000U
* device instance $12 r0 *1 1.905,0.56 nfet_01v8
M$12 5 4 8 14 nfet_01v8 L=150000U W=650000U AS=260000000000P AD=104000000000P
+ PS=1450000U PD=970000U
* device instance $13 r0 *1 2.375,0.56 nfet_01v8
M$13 9 6 5 14 nfet_01v8 L=150000U W=650000U AS=104000000000P AD=274625000000P
+ PS=970000U PD=1495000U
* device instance $14 r0 *1 3.37,0.56 nfet_01v8
M$14 1 3 9 14 nfet_01v8 L=150000U W=650000U AS=274625000000P AD=87750000000P
+ PS=1495000U PD=920000U
* device instance $15 r0 *1 3.79,0.56 nfet_01v8
M$15 7 5 1 14 nfet_01v8 L=150000U W=2600000U AS=351000000000P AD=432250000000P
+ PS=3680000U PD=4580000U
.ENDS sky130_fd_sc_hd__mux2_4

* cell sky130_fd_sc_hd__and3b_1
* pin VPB
* pin C
* pin B
* pin A_N
* pin X
* pin VGND
* pin VPWR
* pin 
.SUBCKT sky130_fd_sc_hd__and3b_1 1 2 3 5 7 8 9 10
* net 1 VPB
* net 2 C
* net 3 B
* net 5 A_N
* net 7 X
* net 8 VGND
* net 9 VPWR
* device instance $1 r0 *1 2.275,1.695 pfet_01v8_hvt
M$1 9 2 6 1 pfet_01v8_hvt L=150000U W=420000U AS=74375000000P AD=142225000000P
+ PS=815000U PD=1335000U
* device instance $2 r0 *1 1.38,1.765 pfet_01v8_hvt
M$2 9 4 6 1 pfet_01v8_hvt L=150000U W=420000U AS=108500000000P AD=56700000000P
+ PS=1360000U PD=690000U
* device instance $3 r0 *1 1.8,1.765 pfet_01v8_hvt
M$3 9 3 6 1 pfet_01v8_hvt L=150000U W=420000U AS=74375000000P AD=56700000000P
+ PS=815000U PD=690000U
* device instance $4 r0 *1 2.75,1.985 pfet_01v8_hvt
M$4 7 6 9 1 pfet_01v8_hvt L=150000U W=1000000U AS=142225000000P
+ AD=260000000000P PS=1335000U PD=2520000U
* device instance $5 r0 *1 0.47,2.275 pfet_01v8_hvt
M$5 4 5 9 1 pfet_01v8_hvt L=150000U W=420000U AS=109200000000P AD=108700000000P
+ PS=1360000U PD=1360000U
* device instance $6 r0 *1 1.405,0.475 nfet_01v8
M$6 12 4 6 10 nfet_01v8 L=150000U W=420000U AS=107825000000P AD=44100000000P
+ PS=1360000U PD=630000U
* device instance $7 r0 *1 1.765,0.475 nfet_01v8
M$7 11 3 12 10 nfet_01v8 L=150000U W=420000U AS=44100000000P AD=53550000000P
+ PS=630000U PD=675000U
* device instance $8 r0 *1 2.17,0.475 nfet_01v8
M$8 11 2 8 10 nfet_01v8 L=150000U W=420000U AS=122275000000P AD=53550000000P
+ PS=1080000U PD=675000U
* device instance $9 r0 *1 2.75,0.56 nfet_01v8
M$9 7 6 8 10 nfet_01v8 L=150000U W=650000U AS=122275000000P AD=169000000000P
+ PS=1080000U PD=1820000U
* device instance $10 r0 *1 0.47,0.675 nfet_01v8
M$10 4 5 8 10 nfet_01v8 L=150000U W=420000U AS=109200000000P AD=107850000000P
+ PS=1360000U PD=1360000U
.ENDS sky130_fd_sc_hd__and3b_1

* cell sky130_fd_sc_hd__a21o_2
* pin VPB
* pin B1
* pin A1
* pin A2
* pin VPWR
* pin VGND
* pin X
* pin 
.SUBCKT sky130_fd_sc_hd__a21o_2 1 3 4 5 7 8 9 10
* net 1 VPB
* net 3 B1
* net 4 A1
* net 5 A2
* net 7 VPWR
* net 8 VGND
* net 9 X
* device instance $1 r0 *1 1.855,1.985 pfet_01v8_hvt
M$1 6 3 2 1 pfet_01v8_hvt L=150000U W=1000000U AS=265000000000P
+ AD=140000000000P PS=2530000U PD=1280000U
* device instance $2 r0 *1 2.285,1.985 pfet_01v8_hvt
M$2 7 4 6 1 pfet_01v8_hvt L=150000U W=1000000U AS=140000000000P
+ AD=157500000000P PS=1280000U PD=1315000U
* device instance $3 r0 *1 2.75,1.985 pfet_01v8_hvt
M$3 6 5 7 1 pfet_01v8_hvt L=150000U W=1000000U AS=157500000000P
+ AD=260000000000P PS=1315000U PD=2520000U
* device instance $4 r0 *1 0.475,1.985 pfet_01v8_hvt
M$4 9 2 7 1 pfet_01v8_hvt L=150000U W=2000000U AS=405000000000P
+ AD=405000000000P PS=3810000U PD=3810000U
* device instance $6 r0 *1 0.645,0.56 nfet_01v8
M$6 9 2 8 10 nfet_01v8 L=150000U W=1300000U AS=263250000000P AD=201500000000P
+ PS=2760000U PD=1920000U
* device instance $8 r0 *1 1.565,0.56 nfet_01v8
M$8 2 3 8 10 nfet_01v8 L=150000U W=650000U AS=110500000000P AD=162500000000P
+ PS=990000U PD=1150000U
* device instance $9 r0 *1 2.215,0.56 nfet_01v8
M$9 11 4 2 10 nfet_01v8 L=150000U W=650000U AS=162500000000P AD=123500000000P
+ PS=1150000U PD=1030000U
* device instance $10 r0 *1 2.745,0.56 nfet_01v8
M$10 8 5 11 10 nfet_01v8 L=150000U W=650000U AS=123500000000P AD=172250000000P
+ PS=1030000U PD=1830000U
.ENDS sky130_fd_sc_hd__a21o_2

* cell sky130_fd_sc_hd__a2111oi_4
* pin VGND
* pin D1
* pin Y
* pin C1
* pin B1
* pin A1
* pin A2
* pin VPWR
* pin VPB
* pin 
.SUBCKT sky130_fd_sc_hd__a2111oi_4 1 2 3 4 5 7 8 12 13 14
* net 1 VGND
* net 2 D1
* net 3 Y
* net 4 C1
* net 5 B1
* net 7 A1
* net 8 A2
* net 12 VPWR
* net 13 VPB
* device instance $1 r0 *1 4.44,1.985 pfet_01v8_hvt
M$1 11 5 9 13 pfet_01v8_hvt L=150000U W=4000000U AS=680000000000P
+ AD=565000000000P PS=6360000U PD=5130000U
* device instance $5 r0 *1 6.17,1.985 pfet_01v8_hvt
M$5 12 7 9 13 pfet_01v8_hvt L=150000U W=4000000U AS=575000000000P
+ AD=630000000000P PS=5150000U PD=5260000U
* device instance $9 r0 *1 8.03,1.985 pfet_01v8_hvt
M$9 12 8 9 13 pfet_01v8_hvt L=150000U W=4000000U AS=665000000000P
+ AD=730000000000P PS=5330000U PD=6460000U
* device instance $13 r0 *1 0.48,1.985 pfet_01v8_hvt
M$13 3 2 10 13 pfet_01v8_hvt L=150000U W=4000000U AS=685000000000P
+ AD=560000000000P PS=6370000U PD=5120000U
* device instance $17 r0 *1 2.2,1.985 pfet_01v8_hvt
M$17 11 4 10 13 pfet_01v8_hvt L=150000U W=4000000U AS=560000000000P
+ AD=680000000000P PS=5120000U PD=6360000U
* device instance $21 r0 *1 6.38,0.56 nfet_01v8
M$21 3 7 6 14 nfet_01v8 L=150000U W=2600000U AS=455000000000P AD=394875000000P
+ PS=4650000U PD=3815000U
* device instance $25 r0 *1 8.195,0.56 nfet_01v8
M$25 1 8 6 14 nfet_01v8 L=150000U W=2600000U AS=394875000000P AD=445250000000P
+ PS=3815000U PD=4620000U
* device instance $29 r0 *1 0.49,0.56 nfet_01v8
M$29 3 2 1 14 nfet_01v8 L=150000U W=2600000U AS=451750000000P AD=386750000000P
+ PS=4640000U PD=3790000U
* device instance $33 r0 *1 2.28,0.56 nfet_01v8
M$33 3 4 1 14 nfet_01v8 L=150000U W=2600000U AS=390000000000P AD=399750000000P
+ PS=3800000U PD=3830000U
* device instance $37 r0 *1 4.11,0.56 nfet_01v8
M$37 3 5 1 14 nfet_01v8 L=150000U W=2600000U AS=399750000000P AD=455000000000P
+ PS=3830000U PD=4650000U
.ENDS sky130_fd_sc_hd__a2111oi_4

* cell sky130_fd_sc_hd__and3_1
* pin VGND
* pin B
* pin X
* pin A
* pin C
* pin VPWR
* pin VPB
* pin 
.SUBCKT sky130_fd_sc_hd__and3_1 1 2 3 6 7 9 10 11
* net 1 VGND
* net 2 B
* net 3 X
* net 6 A
* net 7 C
* net 9 VPWR
* net 10 VPB
* device instance $1 r0 *1 0.47,1.71 pfet_01v8_hvt
M$1 9 6 8 10 pfet_01v8_hvt L=150000U W=420000U AS=109200000000P AD=56700000000P
+ PS=1360000U PD=690000U
* device instance $2 r0 *1 0.89,1.71 pfet_01v8_hvt
M$2 8 2 9 10 pfet_01v8_hvt L=150000U W=420000U AS=56700000000P AD=66150000000P
+ PS=690000U PD=735000U
* device instance $3 r0 *1 1.355,1.71 pfet_01v8_hvt
M$3 8 7 9 10 pfet_01v8_hvt L=150000U W=420000U AS=142225000000P AD=66150000000P
+ PS=1335000U PD=735000U
* device instance $4 r0 *1 1.83,1.985 pfet_01v8_hvt
M$4 3 8 9 10 pfet_01v8_hvt L=150000U W=1000000U AS=142225000000P
+ AD=260000000000P PS=1335000U PD=2520000U
* device instance $5 r0 *1 0.47,0.445 nfet_01v8
M$5 5 6 8 11 nfet_01v8 L=150000U W=420000U AS=109200000000P AD=44100000000P
+ PS=1360000U PD=630000U
* device instance $6 r0 *1 0.83,0.445 nfet_01v8
M$6 4 2 5 11 nfet_01v8 L=150000U W=420000U AS=44100000000P AD=44100000000P
+ PS=630000U PD=630000U
* device instance $7 r0 *1 1.19,0.445 nfet_01v8
M$7 1 7 4 11 nfet_01v8 L=150000U W=420000U AS=44100000000P AD=131650000000P
+ PS=630000U PD=1140000U
* device instance $8 r0 *1 1.83,0.56 nfet_01v8
M$8 3 8 1 11 nfet_01v8 L=150000U W=650000U AS=131650000000P AD=169000000000P
+ PS=1140000U PD=1820000U
.ENDS sky130_fd_sc_hd__and3_1

* cell sky130_fd_sc_hd__or3_4
* pin VGND
* pin X
* pin C
* pin B
* pin A
* pin VPWR
* pin VPB
* pin 
.SUBCKT sky130_fd_sc_hd__or3_4 1 3 4 5 6 7 8 11
* net 1 VGND
* net 3 X
* net 4 C
* net 5 B
* net 6 A
* net 7 VPWR
* net 8 VPB
* device instance $1 r0 *1 0.47,1.985 pfet_01v8_hvt
M$1 10 4 2 8 pfet_01v8_hvt L=150000U W=1000000U AS=260000000000P
+ AD=135000000000P PS=2520000U PD=1270000U
* device instance $2 r0 *1 0.89,1.985 pfet_01v8_hvt
M$2 9 5 10 8 pfet_01v8_hvt L=150000U W=1000000U AS=135000000000P
+ AD=135000000000P PS=1270000U PD=1270000U
* device instance $3 r0 *1 1.31,1.985 pfet_01v8_hvt
M$3 7 6 9 8 pfet_01v8_hvt L=150000U W=1000000U AS=135000000000P
+ AD=400000000000P PS=1270000U PD=1800000U
* device instance $4 r0 *1 2.26,1.985 pfet_01v8_hvt
M$4 3 2 7 8 pfet_01v8_hvt L=150000U W=4000000U AS=805000000000P
+ AD=765000000000P PS=5610000U PD=6530000U
* device instance $8 r0 *1 0.47,0.56 nfet_01v8
M$8 1 4 2 11 nfet_01v8 L=150000U W=650000U AS=169000000000P AD=87750000000P
+ PS=1820000U PD=920000U
* device instance $9 r0 *1 0.89,0.56 nfet_01v8
M$9 2 5 1 11 nfet_01v8 L=150000U W=650000U AS=87750000000P AD=87750000000P
+ PS=920000U PD=920000U
* device instance $10 r0 *1 1.31,0.56 nfet_01v8
M$10 1 6 2 11 nfet_01v8 L=150000U W=650000U AS=87750000000P AD=260000000000P
+ PS=920000U PD=1450000U
* device instance $11 r0 *1 2.26,0.56 nfet_01v8
M$11 3 2 1 11 nfet_01v8 L=150000U W=2600000U AS=523250000000P AD=468000000000P
+ PS=4210000U PD=4690000U
.ENDS sky130_fd_sc_hd__or3_4

* cell sky130_fd_sc_hd__and4bb_2
* pin VGND
* pin X
* pin C
* pin D
* pin B_N
* pin A_N
* pin VPWR
* pin VPB
* pin 
.SUBCKT sky130_fd_sc_hd__and4bb_2 1 3 5 6 7 11 13 14 15
* net 1 VGND
* net 3 X
* net 5 C
* net 6 D
* net 7 B_N
* net 11 A_N
* net 13 VPWR
* net 14 VPB
* device instance $1 r0 *1 0.47,2.275 pfet_01v8_hvt
M$1 2 11 13 14 pfet_01v8_hvt L=150000U W=420000U AS=140750000000P
+ AD=109200000000P PS=1325000U PD=1360000U
* device instance $2 r0 *1 0.945,1.985 pfet_01v8_hvt
M$2 3 4 13 14 pfet_01v8_hvt L=150000U W=2000000U AS=275750000000P
+ AD=465750000000P PS=2595000U PD=2975000U
* device instance $4 r0 *1 2.22,2.275 pfet_01v8_hvt
M$4 4 2 13 14 pfet_01v8_hvt L=150000U W=420000U AS=330750000000P
+ AD=67200000000P PS=1705000U PD=740000U
* device instance $5 r0 *1 2.69,2.275 pfet_01v8_hvt
M$5 13 12 4 14 pfet_01v8_hvt L=150000U W=420000U AS=67200000000P
+ AD=58800000000P PS=740000U PD=700000U
* device instance $6 r0 *1 3.12,2.275 pfet_01v8_hvt
M$6 4 5 13 14 pfet_01v8_hvt L=150000U W=420000U AS=58800000000P AD=56700000000P
+ PS=700000U PD=690000U