
* cell configurable_param_fifo
* pin wr_data[7]
* pin wr_data[0]
* pin wr_data[5]
* pin rst_n
* pin almost_empty
* pin almost_full
* pin wr_en
* pin full
* pin empty
* pin rd_en
* pin clk
* pin rd_data[0]
* pin rd_data[2]
* pin rd_data[6]
* pin rd_data[5]
* pin rd_data[3]
* pin rd_data[1]
* pin wr_data[4]
* pin wr_data[6]
* pin wr_data[3]
* pin wr_data[2]
* pin rd_data[7]
* pin rd_data[4]
* pin wr_data[1]
.SUBCKT configurable_param_fifo 1 2 68 134 143 157 173 174 188 199 203 239 240
+ 265 284 285 297 311 334 398 403 417 418 419
* net 1 wr_data[7]
* net 2 wr_data[0]
* net 68 wr_data[5]
* net 134 rst_n
* net 143 almost_empty
* net 157 almost_full
* net 173 wr_en
* net 174 full
* net 188 empty
* net 199 rd_en
* net 203 clk
* net 239 rd_data[0]
* net 240 rd_data[2]
* net 265 rd_data[6]
* net 284 rd_data[5]
* net 285 rd_data[3]
* net 297 rd_data[1]
* net 311 wr_data[4]
* net 334 wr_data[6]
* net 398 wr_data[3]
* net 403 wr_data[2]
* net 417 rd_data[7]
* net 418 rd_data[4]
* net 419 wr_data[1]
* cell instance $3 r0 *1 11.5,2.72
X$3 16 1 16 4 20 4 sky130_fd_sc_hd__buf_4
* cell instance $6 m0 *1 29.9,8.16
X$6 16 2 4 9 16 4 sky130_fd_sc_hd__clkbuf_4
* cell instance $18 r0 *1 86.94,2.72
X$18 4 3 7 8 5 16 16 4 sky130_fd_sc_hd__edfxtp_1
* cell instance $20 m0 *1 73.14,8.16
X$20 4 3 24 8 20 16 16 4 sky130_fd_sc_hd__edfxtp_1
* cell instance $23 m0 *1 86.94,24.48
X$23 4 3 80 8 60 16 16 4 sky130_fd_sc_hd__edfxtp_1
* cell instance $26 r0 *1 44.62,35.36
X$26 4 128 3 109 16 16 4 sky130_fd_sc_hd__nor2_4
* cell instance $28 r0 *1 43.24,2.72
X$28 4 3 12 27 9 16 16 4 sky130_fd_sc_hd__edfxtp_1
* cell instance $30 r0 *1 70.84,19.04
X$30 4 3 62 8 51 16 16 4 sky130_fd_sc_hd__edfxtp_1
* cell instance $33 r0 *1 70.84,35.36
X$33 4 3 114 86 93 16 16 4 sky130_fd_sc_hd__edfxtp_1
* cell instance $36 m0 *1 57.04,24.48
X$36 4 3 84 21 57 16 16 4 sky130_fd_sc_hd__edfxtp_1
* cell instance $38 m0 *1 57.04,35.36
X$38 4 3 108 86 95 16 16 4 sky130_fd_sc_hd__edfxtp_1
* cell instance $68 r0 *1 29.44,2.72
X$68 4 6 11 27 9 16 16 4 sky130_fd_sc_hd__edfxtp_1
* cell instance $86 r0 *1 74.06,2.72
X$86 4 17 8 16 16 4 sky130_fd_sc_hd__clkbuf_16
* cell instance $97 m0 *1 6.9,8.16
X$97 4 25 26 29 20 16 16 4 sky130_fd_sc_hd__edfxtp_1
* cell instance $106 m0 *1 33.58,8.16
X$106 4 25 28 27 9 16 16 4 sky130_fd_sc_hd__edfxtp_1
* cell instance $109 m0 *1 44.62,8.16
X$109 4 19 18 28 45 13 11 10 16 16 4 sky130_fd_sc_hd__mux4_1
* cell instance $113 m0 *1 57.04,8.16
X$113 4 23 14 21 9 16 16 4 sky130_fd_sc_hd__edfxtp_1
* cell instance $121 m0 *1 85.56,8.16
X$121 4 23 15 8 5 16 16 4 sky130_fd_sc_hd__edfxtp_1
* cell instance $129 r0 *1 4.14,8.16
X$129 4 6 40 29 20 16 16 4 sky130_fd_sc_hd__edfxtp_1
* cell instance $136 r0 *1 18.4,8.16
X$136 4 32 42 29 20 16 16 4 sky130_fd_sc_hd__edfxtp_1
* cell instance $139 r0 *1 31.74,8.16
X$139 4 33 13 27 9 16 16 4 sky130_fd_sc_hd__edfxtp_1
* cell instance $144 r0 *1 43.24,8.16
X$144 4 30 46 27 9 16 16 4 sky130_fd_sc_hd__edfxtp_1
* cell instance $146 r0 *1 54.74,8.16
X$146 4 31 36 21 9 16 16 4 sky130_fd_sc_hd__edfxtp_1
* cell instance $147 r0 *1 65.78,8.16
X$147 4 18 22 44 43 41 16 16 4 sky130_fd_sc_hd__a22oi_2
* cell instance $152 r0 *1 70.84,8.16
X$152 4 23 37 21 20 16 16 4 sky130_fd_sc_hd__edfxtp_1
* cell instance $153 r0 *1 81.88,8.16
X$153 4 31 38 8 20 16 16 4 sky130_fd_sc_hd__edfxtp_1
* cell instance $166 m0 *1 6.44,13.6
X$166 4 33 34 29 20 16 16 4 sky130_fd_sc_hd__edfxtp_1
* cell instance $167 m0 *1 17.48,13.6
X$167 4 19 35 26 42 34 40 49 16 16 4 sky130_fd_sc_hd__mux4_1
* cell instance $172 m0 *1 36.8,13.6
X$172 4 32 45 27 9 16 16 4 sky130_fd_sc_hd__edfxtp_1
* cell instance $179 m0 *1 57.5,13.6
X$179 4 19 43 46 14 36 12 10 16 16 4 sky130_fd_sc_hd__mux4_1
* cell instance $180 m0 *1 67.16,13.6
X$180 4 30 50 21 20 16 16 4 sky130_fd_sc_hd__edfxtp_1
* cell instance $181 m0 *1 78.2,13.6
X$181 4 22 35 39 41 48 16 16 4 sky130_fd_sc_hd__a22oi_2
* cell instance $187 m0 *1 88.78,13.6
X$187 4 31 47 8 5 16 16 4 sky130_fd_sc_hd__edfxtp_1
* cell instance $201 r0 *1 18.86,13.6
X$201 4 17 29 16 16 4 sky130_fd_sc_hd__clkbuf_16
* cell instance $202 r0 *1 28.06,13.6
X$202 4 6 54 29 5 16 16 4 sky130_fd_sc_hd__edfxtp_1
* cell instance $212 r0 *1 60.72,13.6
X$212 4 17 21 16 16 4 sky130_fd_sc_hd__clkbuf_16
* cell instance $218 r0 *1 74.98,13.6
X$218 4 52 48 50 37 38 24 10 16 16 4 sky130_fd_sc_hd__mux4_1
* cell instance $219 r0 *1 84.64,13.6
X$219 4 30 53 8 5 16 16 4 sky130_fd_sc_hd__edfxtp_1
* cell instance $224 r0 *1 98.44,13.6
X$224 4 52 19 16 16 4 sky130_fd_sc_hd__buf_8
* cell instance $230 m0 *1 13.34,19.04
X$230 4 6 64 29 57 16 16 4 sky130_fd_sc_hd__edfxtp_1
* cell instance $233 m0 *1 24.38,19.04
X$233 16 29 16 4 426 4 sky130_fd_sc_hd__clkinvlp_4
* cell instance $238 m0 *1 33.58,19.04
X$238 4 32 55 27 5 16 16 4 sky130_fd_sc_hd__edfxtp_1
* cell instance $241 m0 *1 44.62,19.04
X$241 4 17 27 16 16 4 sky130_fd_sc_hd__clkbuf_16
* cell instance $248 m0 *1 60.26,19.04
X$248 16 21 4 423 16 4 sky130_fd_sc_hd__clkinv_4
* cell instance $249 m0 *1 63.48,19.04
X$249 4 30 56 21 51 16 16 4 sky130_fd_sc_hd__edfxtp_1
* cell instance $252 m0 *1 74.52,19.04
X$252 4 52 61 56 63 82 62 10 16 16 4 sky130_fd_sc_hd__mux4_1
* cell instance $256 m0 *1 86.94,19.04
X$256 4 23 59 8 60 16 16 4 sky130_fd_sc_hd__edfxtp_1
* cell instance $264 r0 *1 4.14,19.04
X$264 4 25 72 29 57 16 16 4 sky130_fd_sc_hd__edfxtp_1
* cell instance $271 r0 *1 17.02,19.04
X$271 4 32 73 71 57 16 16 4 sky130_fd_sc_hd__edfxtp_1
* cell instance $273 r0 *1 31.74,19.04
X$273 4 25 75 27 5 16 16 4 sky130_fd_sc_hd__edfxtp_1
* cell instance $278 r0 *1 43.24,19.04
X$278 4 19 74 75 55 76 54 49 16 16 4 sky130_fd_sc_hd__mux4_1
* cell instance $281 r0 *1 54.28,19.04
X$281 4 31 77 21 57 16 16 4 sky130_fd_sc_hd__edfxtp_1
* cell instance $282 r0 *1 65.32,19.04
X$282 4 22 66 248 41 58 16 16 4 sky130_fd_sc_hd__a22oi_2
* cell instance $288 r0 *1 81.88,19.04
X$288 4 8 16 16 4 sky130_fd_sc_hd__bufinv_16
* cell instance $297 r0 *1 102.12,19.04
X$297 16 68 16 69 4 4 sky130_fd_sc_hd__dlygate4sd3_1
* cell instance $302 m0 *1 8.28,24.48
X$302 4 33 65 29 57 16 16 4 sky130_fd_sc_hd__edfxtp_1
* cell instance $303 m0 *1 19.32,24.48
X$303 4 19 66 72 73 65 64 49 16 16 4 sky130_fd_sc_hd__mux4_1
* cell instance $306 m0 *1 33.12,24.48
X$306 4 33 76 27 5 16 16 4 sky130_fd_sc_hd__edfxtp_1
* cell instance $309 m0 *1 45.54,24.48
X$309 4 30 78 27 57 16 16 4 sky130_fd_sc_hd__edfxtp_1
* cell instance $311 m0 *1 68.08,24.48
X$311 4 23 63 67 51 16 16 4 sky130_fd_sc_hd__edfxtp_1
* cell instance $313 m0 *1 79.58,24.48
X$313 4 22 74 70 41 81 16 16 4 sky130_fd_sc_hd__a22oi_2
* cell instance $318 m0 *1 101.66,24.48
X$318 4 69 5 16 16 4 sky130_fd_sc_hd__buf_6
* cell instance $321 r0 *1 4.14,24.48
X$321 4 6 89 79 51 16 16 4 sky130_fd_sc_hd__edfxtp_1
* cell instance $324 r0 *1 15.64,24.48
X$324 4 25 91 79 51 16 16 4 sky130_fd_sc_hd__edfxtp_1
* cell instance $328 r0 *1 35.88,24.48
X$328 16 27 16 4 4 sky130_fd_sc_hd__clkinv_2
* cell instance $336 r0 *1 47.38,24.48
X$336 4 23 83 86 57 16 16 4 sky130_fd_sc_hd__edfxtp_1
* cell instance $337 r0 *1 58.42,24.48
X$337 4 19 58 78 83 77 84 10 16 16 4 sky130_fd_sc_hd__mux4_1
* cell instance $343 r0 *1 71.3,24.48
X$343 4 31 82 67 51 16 16 4 sky130_fd_sc_hd__edfxtp_1
* cell instance $347 r0 *1 85.56,24.48
X$347 4 31 88 67 60 16 16 4 sky130_fd_sc_hd__edfxtp_1
* cell instance $365 m0 *1 9.66,29.92
X$365 4 33 90 79 51 16 16 4 sky130_fd_sc_hd__edfxtp_1
* cell instance $366 m0 *1 20.7,29.92
X$366 4 89 99 85 19 90 49 91 16 16 4 sky130_fd_sc_hd__mux4_2
* cell instance $370 m0 *1 31.74,29.92
X$370 4 25 94 71 60 16 16 4 sky130_fd_sc_hd__edfxtp_1
* cell instance $371 m0 *1 42.78,29.92
X$371 4 17 71 16 16 4 sky130_fd_sc_hd__clkbuf_16
* cell instance $376 m0 *1 60.72,29.92
X$376 4 17 86 16 16 4 sky130_fd_sc_hd__clkbuf_16
* cell instance $378 m0 *1 71.76,29.92
X$378 4 30 92 67 93 16 16 4 sky130_fd_sc_hd__edfxtp_1
* cell instance $386 m0 *1 91.54,29.92
X$386 4 19 87 98 59 88 80 10 16 16 4 sky130_fd_sc_hd__mux4_1
* cell instance $397 r0 *1 17.48,29.92
X$397 16 79 16 4 4 sky130_fd_sc_hd__clkinv_2
* cell instance $398 r0 *1 19.32,29.92
X$398 4 32 99 79 51 16 16 4 sky130_fd_sc_hd__edfxtp_1
* cell instance $401 r0 *1 31.74,29.92
X$401 4 71 16 16 4 sky130_fd_sc_hd__bufinv_16
* cell instance $407 r0 *1 51.06,29.92
X$407 4 23 104 86 95 16 16 4 sky130_fd_sc_hd__edfxtp_1
* cell instance $413 r0 *1 70.84,29.92
X$413 4 31 101 86 93 16 16 4 sky130_fd_sc_hd__edfxtp_1
* cell instance $414 r0 *1 81.88,29.92
X$414 4 22 85 100 41 61 16 16 4 sky130_fd_sc_hd__a22oi_2
* cell instance $416 r0 *1 86.94,29.92
X$416 4 30 98 67 60 16 16 4 sky130_fd_sc_hd__edfxtp_1
* cell instance $421 r0 *1 103.04,29.92
X$421 16 122 157 4 16 4 sky130_fd_sc_hd__clkbuf_1
* cell instance $422 r0 *1 104.42,29.92
X$422 16 97 143 4 16 4 sky130_fd_sc_hd__clkbuf_1
* cell instance $435 m0 *1 8.28,35.36
X$435 4 25 106 79 95 16 16 4 sky130_fd_sc_hd__edfxtp_1
* cell instance $437 m0 *1 19.78,35.36
X$437 4 17 79 16 16 4 sky130_fd_sc_hd__clkbuf_16
* cell instance $442 m0 *1 34.5,35.36
X$442 4 33 107 71 60 16 16 4 sky130_fd_sc_hd__edfxtp_1
* cell instance $443 m0 *1 45.54,35.36
X$443 4 30 103 71 95 16 16 4 sky130_fd_sc_hd__edfxtp_1
* cell instance $445 m0 *1 68.08,35.36
X$445 4 86 16 16 4 sky130_fd_sc_hd__bufinv_16
* cell instance $447 m0 *1 79.58,35.36
X$447 4 22 113 102 41 87 16 16 4 sky130_fd_sc_hd__a22oi_2
* cell instance $449 m0 *1 84.64,35.36
X$449 4 17 67 16 16 4 sky130_fd_sc_hd__clkbuf_16
* cell instance $451 m0 *1 94.76,35.36
X$451 4 105 97 67 96 16 16 4 sky130_fd_sc_hd__dfstp_1
* cell instance $452 m0 *1 104.42,35.36
X$452 16 135 105 4 16 4 sky130_fd_sc_hd__clkbuf_1
* cell instance $460 r0 *1 15.64,35.36
X$460 4 6 112 79 95 16 16 4 sky130_fd_sc_hd__edfxtp_1
* cell instance $463 r0 *1 30.82,35.36
X$463 4 32 117 71 60 16 16 4 sky130_fd_sc_hd__edfxtp_1
* cell instance $469 r0 *1 48.76,35.36
X$469 4 31 110 86 95 16 16 4 sky130_fd_sc_hd__edfxtp_1
* cell instance $471 r0 *1 60.26,35.36
X$471 4 19 116 103 104 110 108 10 16 16 4 sky130_fd_sc_hd__mux4_1
* cell instance $475 r0 *1 81.88,35.36
X$475 4 23 111 67 93 16 16 4 sky130_fd_sc_hd__edfxtp_1
* cell instance $482 r0 *1 99.36,35.36
X$482 4 105 156 16 16 4 sky130_fd_sc_hd__buf_8
* cell instance $494 m0 *1 5.98,40.8
X$494 4 33 118 79 95 16 16 4 sky130_fd_sc_hd__edfxtp_1
* cell instance $497 m0 *1 19.32,40.8
X$497 4 119 124 106 136 118 112 49 16 16 4 sky130_fd_sc_hd__mux4_1
* cell instance $499 m0 *1 29.44,40.8
X$499 4 6 115 71 60 16 16 4 sky130_fd_sc_hd__edfxtp_1
* cell instance $500 m0 *1 40.48,40.8
X$500 4 119 113 94 117 107 115 49 16 16 4 sky130_fd_sc_hd__mux4_1
* cell instance $502 m0 *1 50.6,40.8
X$502 4 129 23 120 109 16 16 4 sky130_fd_sc_hd__nor3_4
* cell instance $504 m0 *1 57.04,40.8
X$504 4 129 30 120 121 16 16 4 sky130_fd_sc_hd__nor3_4
* cell instance $507 m0 *1 67.16,40.8
X$507 4 22 124 139 41 116 16 16 4 sky130_fd_sc_hd__a22oi_2
* cell instance $508 m0 *1 71.76,40.8
X$508 16 67 16 4 424 4 sky130_fd_sc_hd__clkinvlp_4
* cell instance $509 m0 *1 74.52,40.8
X$509 4 19 155 92 111 101 114 10 16 16 4 sky130_fd_sc_hd__mux4_1
* cell instance $514 m0 *1 93.84,40.8
X$514 16 137 138 122 4 16 123 4 sky130_fd_sc_hd__a21oi_1
* cell instance $515 m0 *1 95.68,40.8
X$515 4 52 81 53 15 47 7 10 16 16 4 sky130_fd_sc_hd__mux4_1
* cell instance $519 r0 *1 4.14,40.8
X$519 4 25 158 79 93 16 16 4 sky130_fd_sc_hd__edfxtp_1
* cell instance $523 r0 *1 16.56,40.8
X$523 4 32 136 71 95 16 16 4 sky130_fd_sc_hd__edfxtp_1
* cell instance $526 r0 *1 28.98,40.8
X$526 4 128 33 125 16 16 4 sky130_fd_sc_hd__nor2_4
* cell instance $528 r0 *1 33.58,40.8
X$528 4 129 25 120 125 16 16 4 sky130_fd_sc_hd__nor3_4
* cell instance $530 r0 *1 41.4,40.8
X$530 16 127 126 164 16 4 4 sky130_fd_sc_hd__nand2_1
* cell instance $533 r0 *1 43.24,40.8
X$533 16 130 16 4 146 4 sky130_fd_sc_hd__inv_1
* cell instance $536 r0 *1 46.92,40.8
X$536 4 128 31 121 16 16 4 sky130_fd_sc_hd__nor2_4
* cell instance $540 r0 *1 54.28,40.8
X$540 4 126 109 191 16 16 4 sky130_fd_sc_hd__nand2_4
* cell instance $542 r0 *1 62.1,40.8
X$542 16 151 120 130 126 16 140 4 4 sky130_fd_sc_hd__nand4_1
* cell instance $543 r0 *1 64.4,40.8
X$543 16 140 129 163 16 4 4 sky130_fd_sc_hd__xnor2_1
* cell instance $551 r0 *1 74.06,40.8
X$551 4 52 119 16 16 4 sky130_fd_sc_hd__buf_6
* cell instance $555 r0 *1 81.42,40.8
X$555 16 141 148 132 16 4 4 sky130_fd_sc_hd__xnor2_1
* cell instance $556 r0 *1 84.64,40.8
X$556 4 141 137 212 147 130 16 16 4 sky130_fd_sc_hd__fa_1
* cell instance $558 r0 *1 92.46,40.8
X$558 16 138 137 142 176 16 4 4 sky130_fd_sc_hd__nand3_1
* cell instance $559 r0 *1 94.3,40.8
X$559 16 97 16 4 142 4 sky130_fd_sc_hd__inv_1
* cell instance $560 r0 *1 95.68,40.8
X$560 16 144 131 133 4 16 4 sky130_fd_sc_hd__nor2b_1
* cell instance $563 r0 *1 98.44,40.8
X$563 16 132 145 123 133 16 4 159 4 sky130_fd_sc_hd__o31ai_1
* cell instance $565 r0 *1 102.12,40.8
X$565 16 134 16 135 4 4 sky130_fd_sc_hd__dlygate4sd3_1
* cell instance $579 m0 *1 13.8,46.24
X$579 4 33 175 79 93 16 16 4 sky130_fd_sc_hd__edfxtp_1
* cell instance $580 m0 *1 24.84,46.24
X$580 4 128 6 149 16 16 4 sky130_fd_sc_hd__nor2_4
* cell instance $584 m0 *1 30.82,46.24
X$584 4 120 128 129 16 16 4 sky130_fd_sc_hd__nand2b_4
* cell instance $585 m0 *1 35.88,46.24
X$585 4 129 32 120 149 16 16 4 sky130_fd_sc_hd__nor3_4
* cell instance $586 m0 *1 41.86,46.24
X$586 16 126 166 150 16 4 4 sky130_fd_sc_hd__xnor2_1
* cell instance $587 m0 *1 45.08,46.24
X$587 4 156 151 71 150 16 16 4 sky130_fd_sc_hd__dfrtp_1
* cell instance $591 m0 *1 57.04,46.24
X$591 4 429 179 151 130 16 16 4 sky130_fd_sc_hd__ha_1
* cell instance $595 m0 *1 64.86,46.24
X$595 4 156 152 86 163 16 16 4 sky130_fd_sc_hd__dfrtp_1
* cell instance $596 m0 *1 74.06,46.24
X$596 16 153 16 4 126 4 sky130_fd_sc_hd__buf_4
* cell instance $598 m0 *1 77.74,46.24
X$598 4 169 154 210 152 16 16 4 sky130_fd_sc_hd__ha_1
* cell instance $599 m0 *1 82.34,46.24
X$599 16 154 169 178 4 16 162 4 sky130_fd_sc_hd__a21oi_1
* cell instance $603 m0 *1 89.24,46.24
X$603 16 161 169 16 145 4 4 sky130_fd_sc_hd__xor2_1
* cell instance $604 m0 *1 92.46,46.24
X$604 4 96 176 145 160 132 131 16 16 4 sky130_fd_sc_hd__a41o_1
* cell instance $605 m0 *1 96.14,46.24
X$605 4 156 122 67 159 16 16 4 sky130_fd_sc_hd__dfrtp_1
* cell instance $609 r0 *1 4.14,46.24
X$609 4 6 181 79 93 16 16 4 sky130_fd_sc_hd__edfxtp_1
* cell instance $613 r0 *1 19.32,46.24
X$613 4 119 167 158 189 175 181 49 16 16 4 sky130_fd_sc_hd__mux4_1
* cell instance $616 r0 *1 31.74,46.24
X$616 4 126 125 165 16 16 4 sky130_fd_sc_hd__nand2_4
* cell instance $617 r0 *1 35.88,46.24
X$617 4 430 165 166 130 16 16 4 sky130_fd_sc_hd__ha_1
* cell instance $619 r0 *1 40.94,46.24
X$619 16 146 126 164 16 177 4 4 sky130_fd_sc_hd__o21ai_0
* cell instance $622 r0 *1 43.24,46.24
X$622 4 156 130 71 177 16 16 4 sky130_fd_sc_hd__dfrtp_2
* cell instance $623 r0 *1 52.9,46.24
X$623 16 121 120 168 16 4 4 sky130_fd_sc_hd__xnor2_1
* cell instance $624 r0 *1 56.12,46.24
X$624 4 156 183 86 168 16 16 4 sky130_fd_sc_hd__dfrtp_1
* cell instance $625 r0 *1 65.32,46.24
X$625 4 183 120 16 16 4 sky130_fd_sc_hd__buf_6
* cell instance $629 r0 *1 70.84,46.24
X$629 4 152 129 16 16 4 sky130_fd_sc_hd__clkbuf_8
* cell instance $632 r0 *1 77.28,46.24
X$632 16 22 167 41 155 16 325 4 4 sky130_fd_sc_hd__a22oi_1
* cell instance $633 r0 *1 80.04,46.24
X$633 16 205 4 41 16 4 sky130_fd_sc_hd__clkbuf_4
* cell instance $634 r0 *1 82.8,46.24
X$634 16 148 141 192 4 16 178 4 sky130_fd_sc_hd__a21o_1
* cell instance $635 r0 *1 85.56,46.24
X$635 4 170 184 212 130 16 16 4 sky130_fd_sc_hd__ha_1
* cell instance $636 r0 *1 90.16,46.24
X$636 16 148 171 169 170 16 187 4 4 sky130_fd_sc_hd__nand4_1
* cell instance $638 r0 *1 92.92,46.24
X$638 16 171 16 4 138 4 sky130_fd_sc_hd__inv_1
* cell instance $640 r0 *1 94.76,46.24
X$640 16 162 190 131 16 4 4 sky130_fd_sc_hd__xnor2_1
* cell instance $643 r0 *1 98.44,46.24
X$643 16 190 187 144 4 16 4 sky130_fd_sc_hd__and2b_1
* cell instance $645 r0 *1 101.66,46.24
X$645 16 144 172 153 4 16 4 sky130_fd_sc_hd__nor2b_1
* cell instance $646 r0 *1 103.96,46.24
X$646 16 173 172 4 16 4 sky130_fd_sc_hd__clkbuf_1
* cell instance $661 m0 *1 17.94,51.68
X$661 4 32 189 180 93 16 16 4 sky130_fd_sc_hd__edfxtp_1
* cell instance $666 m0 *1 32.66,51.68
X$666 4 126 149 182 16 16 4 sky130_fd_sc_hd__nand2_4
* cell instance $669 m0 *1 39.56,51.68
X$669 4 127 182 166 146 16 16 4 sky130_fd_sc_hd__ha_1
* cell instance $670 m0 *1 44.16,51.68
X$670 4 194 202 121 16 16 4 sky130_fd_sc_hd__nor2_4
* cell instance $673 m0 *1 49.68,51.68
X$673 4 428 191 151 146 16 16 4 sky130_fd_sc_hd__ha_1
* cell instance $677 m0 *1 57.04,51.68
X$677 4 126 121 179 16 16 4 sky130_fd_sc_hd__nand2_4
* cell instance $678 m0 *1 61.18,51.68
X$678 16 151 16 4 166 4 sky130_fd_sc_hd__clkinvlp_4
* cell instance $680 m0 *1 65.78,51.68
X$680 4 156 195 86 206 16 16 4 sky130_fd_sc_hd__dfrtp_1
* cell instance $683 m0 *1 79.58,51.68
X$683 4 148 192 204 183 16 16 4 sky130_fd_sc_hd__ha_1
* cell instance $685 m0 *1 84.64,51.68
X$685 16 147 170 184 4 16 185 4 sky130_fd_sc_hd__a21o_1
* cell instance $686 m0 *1 87.4,51.68
X$686 16 192 148 185 4 16 161 4 sky130_fd_sc_hd__a21oi_1
* cell instance $687 m0 *1 89.24,51.68
X$687 16 186 16 4 147 4 sky130_fd_sc_hd__inv_1
* cell instance $688 m0 *1 90.62,51.68
X$688 4 171 186 200 166 16 16 4 sky130_fd_sc_hd__ha_1
* cell instance $689 m0 *1 95.22,51.68
X$689 16 190 187 160 4 16 4 sky130_fd_sc_hd__nor2_1
* cell instance $690 m0 *1 96.6,51.68
X$690 16 197 195 16 190 4 4 sky130_fd_sc_hd__xor2_1
* cell instance $694 m0 *1 103.04,51.68
X$694 16 144 174 4 16 4 sky130_fd_sc_hd__clkbuf_1
* cell instance $695 m0 *1 104.42,51.68
X$695 16 160 188 4 16 4 sky130_fd_sc_hd__clkbuf_1
* cell instance $698 r0 *1 4.14,51.68
X$698 4 193 216 207 51 16 16 4 sky130_fd_sc_hd__edfxtp_1
* cell instance $706 r0 *1 23.92,51.68
X$706 4 193 217 207 5 16 16 4 sky130_fd_sc_hd__edfxtp_1
* cell instance $708 r0 *1 35.42,51.68
X$708 4 4 120 208 129 16 16 sky130_fd_sc_hd__nand2_2
* cell instance $709 r0 *1 37.72,51.68
X$709 4 129 194 120 16 16 4 sky130_fd_sc_hd__nand2b_4
* cell instance $716 r0 *1 44.62,51.68
X$716 4 194 201 109 16 16 4 sky130_fd_sc_hd__nor2_4
* cell instance $718 r0 *1 49.68,51.68
X$718 4 203 17 16 16 4 sky130_fd_sc_hd__clkbuf_8
* cell instance $719 r0 *1 54.74,51.68
X$719 4 208 222 109 16 16 4 sky130_fd_sc_hd__nor2_4
* cell instance $721 r0 *1 59.8,51.68
X$721 4 126 179 120 129 16 223 16 4 sky130_fd_sc_hd__nand4_2
* cell instance $722 r0 *1 64.4,51.68
X$722 16 223 195 206 16 4 4 sky130_fd_sc_hd__xnor2_1
* cell instance $732 r0 *1 78.66,51.68
X$732 16 211 196 205 4 16 4 sky130_fd_sc_hd__nor2b_1
* cell instance $733 r0 *1 80.96,51.68
X$733 4 211 22 196 16 16 4 sky130_fd_sc_hd__nor2_4
* cell instance $735 r0 *1 88.78,51.68
X$735 4 156 197 219 215 16 16 4 sky130_fd_sc_hd__dfrtp_1
* cell instance $740 r0 *1 98.44,51.68
X$740 16 226 197 215 16 4 4 sky130_fd_sc_hd__xnor2_1
* cell instance $741 r0 *1 101.66,51.68
X$741 16 160 198 214 4 16 4 sky130_fd_sc_hd__nor2b_1
* cell instance $743 r0 *1 104.42,51.68
X$743 16 199 198 4 16 4 sky130_fd_sc_hd__clkbuf_1
* cell instance $747 m0 *1 7.36,57.12
X$747 4 224 227 207 51 16 16 4 sky130_fd_sc_hd__edfxtp_1
* cell instance $751 m0 *1 24.84,57.12
X$751 4 208 224 149 16 16 4 sky130_fd_sc_hd__nor2_4
* cell instance $753 m0 *1 29.44,57.12
X$753 4 119 231 217 16 233 16 4 sky130_fd_sc_hd__mux2i_2
* cell instance $756 m0 *1 38.64,57.12
X$756 4 194 235 149 16 16 4 sky130_fd_sc_hd__nor2_4
* cell instance $758 m0 *1 43.24,57.12
X$758 4 235 220 180 9 16 16 4 sky130_fd_sc_hd__edfxtp_1
* cell instance $765 m0 *1 63.48,57.12
X$765 16 223 4 234 16 4 sky130_fd_sc_hd__clkinv_4
* cell instance $769 m0 *1 72.68,57.12
X$769 16 209 49 230 16 4 4 sky130_fd_sc_hd__xnor2_1
* cell instance $771 m0 *1 77.74,57.12
X$771 16 196 221 210 229 16 4 4 sky130_fd_sc_hd__or3_1
* cell instance $772 m0 *1 80.04,57.12
X$772 16 211 4 16 210 4 sky130_fd_sc_hd__inv_2
* cell instance $773 m0 *1 81.42,57.12
X$773 16 221 4 16 204 4 sky130_fd_sc_hd__inv_2
* cell instance $777 m0 *1 84.64,57.12
X$777 16 221 16 4 49 4 sky130_fd_sc_hd__buf_4
* cell instance $778 m0 *1 87.4,57.12
X$778 16 212 251 218 16 228 4 4 sky130_fd_sc_hd__o21ai_0
* cell instance $781 m0 *1 90.62,57.12
X$781 4 256 225 200 213 16 16 4 sky130_fd_sc_hd__ha_1
* cell instance $782 m0 *1 95.22,57.12
X$782 16 225 214 209 16 4 4 sky130_fd_sc_hd__nand2_1
* cell instance $783 m0 *1 96.6,57.12
X$783 4 213 52 16 16 4 sky130_fd_sc_hd__buf_6
* cell instance $789 r0 *1 4.14,57.12
X$789 4 193 241 207 57 16 16 4 sky130_fd_sc_hd__edfxtp_1
* cell instance $794 r0 *1 15.64,57.12
X$794 4 119 227 216 16 358 16 4 sky130_fd_sc_hd__mux2i_2
* cell instance $797 r0 *1 23.46,57.12
X$797 4 224 231 207 5 16 16 4 sky130_fd_sc_hd__edfxtp_1
* cell instance $800 r0 *1 37.26,57.12
X$800 4 194 247 125 16 16 4 sky130_fd_sc_hd__nor2_4
* cell instance $807 r0 *1 43.24,57.12
X$807 4 201 244 180 9 16 16 4 sky130_fd_sc_hd__edfxtp_1
* cell instance $810 r0 *1 56.58,57.12
X$810 4 222 246 236 9 16 16 4 sky130_fd_sc_hd__edfxtp_1
* cell instance $811 r0 *1 67.62,57.12
X$811 16 119 16 4 232 4 sky130_fd_sc_hd__buf_4
* cell instance $817 r0 *1 71.76,57.12
X$817 4 156 221 236 230 16 16 4 sky130_fd_sc_hd__dfrtp_1
* cell instance $818 r0 *1 80.96,57.12
X$818 16 196 204 210 237 16 4 4 sky130_fd_sc_hd__or3_1
* cell instance $820 r0 *1 85.1,57.12
X$820 4 156 213 219 228 16 16 4 sky130_fd_sc_hd__dfrtp_1
* cell instance $822 r0 *1 94.76,57.12
X$822 16 225 49 211 214 16 226 4 4 sky130_fd_sc_hd__nand4_1
* cell instance $831 m0 *1 2.3,62.56
X$831 4 224 253 207 57 16 16 4 sky130_fd_sc_hd__edfxtp_1
* cell instance $832 m0 *1 13.34,62.56
X$832 4 254 253 241 119 16 16 4 sky130_fd_sc_hd__mux2i_1
* cell instance $834 m0 *1 17.48,62.56
X$834 4 119 255 16 16 4 sky130_fd_sc_hd__buf_6
* cell instance $841 m0 *1 32.66,62.56
X$841 4 208 193 125 16 16 4 sky130_fd_sc_hd__nor2_4
* cell instance $845 m0 *1 41.86,62.56
X$845 4 247 242 180 9 16 16 4 sky130_fd_sc_hd__edfxtp_1
* cell instance $846 m0 *1 52.9,62.56
X$846 4 257 220 242 232 16 16 4 sky130_fd_sc_hd__mux2i_1
* cell instance $848 m0 *1 57.04,62.56
X$848 4 234 245 236 9 16 16 4 sky130_fd_sc_hd__edfxtp_1
* cell instance $849 m0 *1 68.08,62.56
X$849 4 258 246 245 255 16 16 4 sky130_fd_sc_hd__mux2i_1
* cell instance $850 m0 *1 71.76,62.56
X$850 4 119 250 16 16 4 sky130_fd_sc_hd__buf_6
* cell instance $852 m0 *1 77.74,62.56
X$852 4 211 204 196 16 243 16 4 sky130_fd_sc_hd__nand3_4
* cell instance $854 m0 *1 84.64,62.56
X$854 16 221 16 4 10 4 sky130_fd_sc_hd__buf_4
* cell instance $856 m0 *1 87.86,62.56
X$856 16 232 16 4 212 4 sky130_fd_sc_hd__inv_1
* cell instance $857 m0 *1 89.24,62.56
X$857 16 256 238 218 16 4 4 sky130_fd_sc_hd__nand2_1
* cell instance $860 m0 *1 93.38,62.56
X$860 16 214 16 4 238 4 sky130_fd_sc_hd__buf_4
* cell instance $861 m0 *1 96.14,62.56
X$861 16 214 4 251 16 4 sky130_fd_sc_hd__buf_2
* cell instance $862 m0 *1 97.98,62.56
X$862 16 49 196 232 214 16 266 4 4 sky130_fd_sc_hd__nand4_1
* cell instance $865 m0 *1 102.58,62.56
X$865 16 298 240 4 16 4 sky130_fd_sc_hd__clkbuf_1
* cell instance $876 r0 *1 15.64,62.56
X$876 4 224 270 207 20 16 16 4 sky130_fd_sc_hd__edfxtp_1
* cell instance $879 r0 *1 29.44,62.56
X$879 4 224 271 180 9 16 16 4 sky130_fd_sc_hd__edfxtp_1
* cell instance $886 r0 *1 43.24,62.56
X$886 4 202 274 180 9 16 16 4 sky130_fd_sc_hd__edfxtp_1
* cell instance $887 r0 *1 54.28,62.56
X$887 4 275 244 274 232 16 16 4 sky130_fd_sc_hd__mux2i_1
* cell instance $890 r0 *1 65.32,62.56
X$890 16 249 257 258 262 276 4 16 4 sky130_fd_sc_hd__o22ai_1
* cell instance $897 r0 *1 70.84,62.56
X$897 16 237 4 259 16 4 sky130_fd_sc_hd__clkbuf_4
* cell instance $899 r0 *1 74.52,62.56
X$899 16 263 238 273 4 16 4 sky130_fd_sc_hd__nor2_1
* cell instance $901 r0 *1 76.82,62.56
X$901 16 229 4 249 16 4 sky130_fd_sc_hd__buf_2
* cell instance $902 r0 *1 78.66,62.56
X$902 4 211 10 196 16 262 16 4 sky130_fd_sc_hd__nand3_4
* cell instance $903 r0 *1 85.1,62.56
X$903 16 238 196 16 269 4 4 sky130_fd_sc_hd__xor2_1
* cell instance $907 r0 *1 91.54,62.56
X$907 4 200 196 16 16 4 sky130_fd_sc_hd__buf_6
* cell instance $908 r0 *1 95.68,62.56
X$908 16 263 268 252 16 4 4 sky130_fd_sc_hd__and2_0
* cell instance $913 r0 *1 98.44,62.56
X$913 16 266 211 267 16 4 4 sky130_fd_sc_hd__xnor2_1
* cell instance $914 r0 *1 101.66,62.56
X$914 16 264 16 4 211 4 sky130_fd_sc_hd__buf_4
* cell instance $915 r0 *1 104.42,62.56
X$915 16 252 239 4 16 4 sky130_fd_sc_hd__clkbuf_1
* cell instance $918 m0 *1 5.52,68
X$918 4 224 286 207 95 16 16 4 sky130_fd_sc_hd__edfxtp_1
* cell instance $920 m0 *1 17.48,68
X$920 4 193 288 207 20 16 16 4 sky130_fd_sc_hd__edfxtp_1
* cell instance $923 m0 *1 29.44,68
X$923 4 193 272 180 9 16 16 4 sky130_fd_sc_hd__edfxtp_1
* cell instance $924 m0 *1 40.48,68
X$924 4 260 271 272 250 16 16 4 sky130_fd_sc_hd__mux2i_1
* cell instance $929 m0 *1 52.9,68
X$929 16 243 275 260 259 278 4 16 4 sky130_fd_sc_hd__o22ai_1
* cell instance $935 m0 *1 61.64,68
X$935 16 291 290 289 4 16 4 sky130_fd_sc_hd__nor2_1
* cell instance $936 m0 *1 63.02,68
X$936 16 276 278 282 4 16 4 sky130_fd_sc_hd__nor2_1
* cell instance $938 m0 *1 65.32,68
X$938 16 282 44 251 273 4 16 261 4 sky130_fd_sc_hd__a31oi_1
* cell instance $939 m0 *1 67.62,68
X$939 4 156 263 236 261 16 16 4 sky130_fd_sc_hd__dfrtp_1
* cell instance $943 m0 *1 84.64,68
X$943 4 156 200 219 269 16 16 4 sky130_fd_sc_hd__dfrtp_1
* cell instance $945 m0 *1 94.76,68
X$945 16 287 265 4 16 4 sky130_fd_sc_hd__clkbuf_1
* cell instance $946 m0 *1 96.14,68
X$946 4 156 264 219 267 16 16 4 sky130_fd_sc_hd__dfrtp_1
* cell instance $950 r0 *1 4.14,68
X$950 4 193 300 207 95 16 16 4 sky130_fd_sc_hd__edfxtp_1
* cell instance $956 r0 *1 16.1,68
X$956 4 302 286 300 255 16 16 4 sky130_fd_sc_hd__mux2i_1
* cell instance $957 r0 *1 19.78,68
X$957 4 17 207 16 16 4 sky130_fd_sc_hd__clkbuf_16
* cell instance $958 r0 *1 28.98,68
X$958 4 277 270 288 119 16 16 4 sky130_fd_sc_hd__mux2i_1
* cell instance $960 r0 *1 33.58,68
X$960 4 17 180 16 16 4 sky130_fd_sc_hd__clkbuf_16
* cell instance $965 r0 *1 43.24,68
X$965 16 180 16 4 4 sky130_fd_sc_hd__clkinv_1
* cell instance $969 r0 *1 52.44,68
X$969 4 222 279 236 57 16 16 4 sky130_fd_sc_hd__edfxtp_1
* cell instance $970 r0 *1 63.48,68
X$970 4 280 279 281 232 16 16 4 sky130_fd_sc_hd__mux2i_1
* cell instance $971 r0 *1 67.16,68
X$971 16 280 262 306 249 290 4 16 4 sky130_fd_sc_hd__o22ai_1
* cell instance $977 r0 *1 70.84,68
X$977 4 156 293 236 303 16 16 4 sky130_fd_sc_hd__dfrtp_1
* cell instance $978 r0 *1 80.04,68
X$978 16 293 238 304 4 16 4 sky130_fd_sc_hd__nor2_1
* cell instance $982 r0 *1 86.48,68
X$982 16 294 238 319 4 16 4 sky130_fd_sc_hd__nor2_1
* cell instance $985 r0 *1 93.38,68
X$985 16 293 268 298 16 4 4 sky130_fd_sc_hd__and2_0
* cell instance $986 r0 *1 95.68,68
X$986 16 295 268 301 16 4 4 sky130_fd_sc_hd__and2_0
* cell instance $992 r0 *1 100.28,68
X$992 16 301 285 4 16 4 sky130_fd_sc_hd__clkbuf_1
* cell instance $995 r0 *1 104.42,68
X$995 16 283 284 4 16 4 sky130_fd_sc_hd__clkbuf_1
* cell instance $996 m0 *1 1.38,73.44
X$996 16 311 16 312 4 4 sky130_fd_sc_hd__dlygate4sd3_1
* cell instance $998 m0 *1 5.98,73.44
X$998 4 224 307 207 93 16 16 4 sky130_fd_sc_hd__edfxtp_1
* cell instance $1001 m0 *1 18.4,73.44
X$1001 16 207 16 4 4 sky130_fd_sc_hd__clkinv_1
* cell instance $1002 m0 *1 19.78,73.44
X$1002 4 313 291 243 254 259 16 16 4 sky130_fd_sc_hd__o22ai_2
* cell instance $1006 m0 *1 29.44,73.44
X$1006 4 224 316 180 60 16 16 4 sky130_fd_sc_hd__edfxtp_1
* cell instance $1008 m0 *1 41.4,73.44
X$1008 4 235 318 180 57 16 16 4 sky130_fd_sc_hd__edfxtp_1
* cell instance $1009 m0 *1 52.44,73.44
X$1009 4 306 318 320 250 16 16 4 sky130_fd_sc_hd__mux2i_1
* cell instance $1013 m0 *1 57.96,73.44
X$1013 16 236 4 422 16 4 sky130_fd_sc_hd__clkinv_4
* cell instance $1014 m0 *1 61.18,73.44
X$1014 4 17 236 16 16 4 sky130_fd_sc_hd__clkbuf_16
* cell instance $1016 m0 *1 70.84,73.44
X$1016 4 156 292 219 305 16 16 4 sky130_fd_sc_hd__dfrtp_1
* cell instance $1017 m0 *1 80.04,73.44
X$1017 16 321 139 251 304 4 16 303 4 sky130_fd_sc_hd__a31oi_1
* cell instance $1018 m0 *1 82.34,73.44
X$1018 16 292 238 309 4 16 4 sky130_fd_sc_hd__nor2_1
* cell instance $1021 m0 *1 84.64,73.44
X$1021 16 357 100 251 319 4 16 317 4 sky130_fd_sc_hd__a31oi_1
* cell instance $1022 m0 *1 86.94,73.44
X$1022 16 295 238 315 4 16 4 sky130_fd_sc_hd__nor2_1
* cell instance $1024 m0 *1 88.78,73.44
X$1024 16 294 268 287 16 4 4 sky130_fd_sc_hd__and2_0
* cell instance $1025 m0 *1 91.08,73.44
X$1025 4 156 299 219 314 16 16 4 sky130_fd_sc_hd__dfrtp_1
* cell instance $1026 m0 *1 100.28,73.44
X$1026 16 299 268 283 16 4 4 sky130_fd_sc_hd__and2_0
* cell instance $1028 m0 *1 104.42,73.44
X$1028 16 296 297 4 16 4 sky130_fd_sc_hd__clkbuf_1
* cell instance $1031 r0 *1 4.14,73.44
X$1031 4 193 327 335 93 16 16 4 sky130_fd_sc_hd__edfxtp_1
* cell instance $1036 r0 *1 15.64,73.44
X$1036 4 329 307 327 255 16 16 4 sky130_fd_sc_hd__mux2i_1
* cell instance $1040 r0 *1 22.54,73.44
X$1040 4 392 308 243 302 259 16 16 4 sky130_fd_sc_hd__o22ai_2
* cell instance $1041 r0 *1 27.14,73.44
X$1041 4 193 330 180 60 16 16 4 sky130_fd_sc_hd__edfxtp_1
* cell instance $1042 r0 *1 38.18,73.44
X$1042 4 331 316 330 255 16 16 4 sky130_fd_sc_hd__mux2i_1
* cell instance $1048 r0 *1 43.24,73.44
X$1048 4 247 320 180 57 16 16 4 sky130_fd_sc_hd__edfxtp_1
* cell instance $1050 r0 *1 56.12,73.44
X$1050 4 234 281 236 57 16 16 4 sky130_fd_sc_hd__edfxtp_1
* cell instance $1051 r0 *1 67.16,73.44
X$1051 16 289 248 251 309 4 16 305 4 sky130_fd_sc_hd__a31oi_1
* cell instance $1057 r0 *1 70.84,73.44
X$1057 16 308 323 321 4 16 4 sky130_fd_sc_hd__nor2_1
* cell instance $1059 r0 *1 72.68,73.44
X$1059 4 219 16 16 4 sky130_fd_sc_hd__bufinv_16
* cell instance $1060 r0 *1 83.72,73.44
X$1060 4 156 294 219 317 16 16 4 sky130_fd_sc_hd__dfrtp_1
* cell instance $1061 r0 *1 92.92,73.44
X$1061 16 354 70 251 310 4 16 314 4 sky130_fd_sc_hd__a31oi_1
* cell instance $1062 r0 *1 95.22,73.44
X$1062 16 299 238 310 4 16 4 sky130_fd_sc_hd__nor2_1
* cell instance $1070 r0 *1 100.28,73.44
X$1070 16 341 268 296 16 4 4 sky130_fd_sc_hd__and2_0
* cell instance $1074 m0 *1 1.38,78.88
X$1074 4 342 51 16 16 4 sky130_fd_sc_hd__clkbuf_8