
* cell simple_spi_master
* pin rx_data[1]
* pin rx_data[7]
* pin rx_data[3]
* pin rx_data[4]
* pin rx_data[2]
* pin spi_clk
* pin spi_miso
* pin rx_data[0]
* pin clk
* pin tx_valid
* pin rx_data[6]
* pin tx_ready
* pin rst_n
* pin spi_cs_n
* pin tx_data[6]
* pin tx_data[7]
* pin tx_data[1]
* pin tx_data[2]
* pin tx_data[3]
* pin tx_data[5]
* pin tx_data[0]
* pin tx_data[4]
* pin rx_data[5]
* pin rx_valid
* pin spi_mosi
.SUBCKT simple_spi_master 1 2 3 33 65 75 92 101 107 114 117 126 133 134 182 184
+ 186 187 190 192 193 194 195 196 197
* net 1 rx_data[1]
* net 2 rx_data[7]
* net 3 rx_data[3]
* net 33 rx_data[4]
* net 65 rx_data[2]
* net 75 spi_clk
* net 92 spi_miso
* net 101 rx_data[0]
* net 107 clk
* net 114 tx_valid
* net 117 rx_data[6]
* net 126 tx_ready
* net 133 rst_n
* net 134 spi_cs_n
* net 182 tx_data[6]
* net 184 tx_data[7]
* net 186 tx_data[1]
* net 187 tx_data[2]
* net 190 tx_data[3]
* net 192 tx_data[5]
* net 193 tx_data[0]
* net 194 tx_data[4]
* net 195 rx_data[5]
* net 196 rx_valid
* net 197 spi_mosi
* cell instance $3 m0 *1 11.04,8.16
X$3 7 8 1 4 7 4 sky130_fd_sc_hd__clkbuf_1
* cell instance $6 r0 *1 23.46,2.72
X$6 7 6 2 4 7 4 sky130_fd_sc_hd__clkbuf_1
* cell instance $9 r0 *1 37.26,2.72
X$9 7 5 3 4 7 4 sky130_fd_sc_hd__clkbuf_1
* cell instance $44 m0 *1 1.84,8.16
X$44 4 9 8 10 11 7 7 4 sky130_fd_sc_hd__dfrtp_1
* cell instance $49 m0 *1 17.02,8.16
X$49 4 9 6 10 13 7 7 4 sky130_fd_sc_hd__dfrtp_1
* cell instance $54 m0 *1 29.9,8.16
X$54 4 9 5 27 15 7 7 4 sky130_fd_sc_hd__dfrtp_1
* cell instance $70 r0 *1 9.66,8.16
X$70 4 11 8 12 16 7 7 4 sky130_fd_sc_hd__mux2_1
* cell instance $77 r0 *1 17.48,8.16
X$77 4 13 6 14 16 7 7 4 sky130_fd_sc_hd__mux2_1
* cell instance $78 r0 *1 21.62,8.16
X$78 4 9 17 10 18 7 7 4 sky130_fd_sc_hd__dfrtp_1
* cell instance $79 r0 *1 30.82,8.16
X$79 4 15 5 17 16 7 7 4 sky130_fd_sc_hd__mux2_1
* cell instance $100 m0 *1 19.32,13.6
X$100 4 9 14 10 23 7 7 4 sky130_fd_sc_hd__dfrtp_1
* cell instance $129 r0 *1 22.08,13.6
X$129 7 24 25 26 7 23 4 4 sky130_fd_sc_hd__o21ai_0
* cell instance $130 r0 *1 23.92,13.6
X$130 7 20 24 19 14 7 4 26 4 sky130_fd_sc_hd__o31ai_1
* cell instance $131 r0 *1 26.68,13.6
X$131 7 31 25 21 7 18 4 4 sky130_fd_sc_hd__o21ai_0
* cell instance $132 r0 *1 28.52,13.6
X$132 7 20 31 19 17 7 4 21 4 sky130_fd_sc_hd__o31ai_1
* cell instance $135 r0 *1 35.42,13.6
X$135 7 22 4 20 7 4 sky130_fd_sc_hd__buf_2
* cell instance $148 m0 *1 1.38,19.04
X$148 4 9 30 10 28 7 7 4 sky130_fd_sc_hd__dfrtp_1
* cell instance $149 m0 *1 10.58,19.04
X$149 4 9 12 10 32 7 7 4 sky130_fd_sc_hd__dfrtp_1
* cell instance $151 m0 *1 23.46,19.04
X$151 7 19 36 25 4 7 4 sky130_fd_sc_hd__or2_0
* cell instance $158 m0 *1 30.82,19.04
X$158 4 9 22 27 45 7 7 4 sky130_fd_sc_hd__dfrtp_1
* cell instance $159 m0 *1 40.02,19.04
X$159 4 9 35 27 29 7 7 4 sky130_fd_sc_hd__dfrtp_2
* cell instance $170 r0 *1 4.14,19.04
X$170 7 30 33 4 7 4 sky130_fd_sc_hd__clkbuf_1
* cell instance $171 r0 *1 5.52,19.04
X$171 4 28 30 37 16 7 7 4 sky130_fd_sc_hd__mux2_1
* cell instance $176 r0 *1 15.64,19.04
X$176 4 10 204 7 7 4 sky130_fd_sc_hd__clkbuf_8
* cell instance $177 r0 *1 20.7,19.04
X$177 7 12 39 44 36 7 32 4 4 sky130_fd_sc_hd__o2bb2ai_1
* cell instance $180 r0 *1 31.28,19.04
X$180 7 20 34 41 7 45 4 4 sky130_fd_sc_hd__o21ai_0
* cell instance $182 r0 *1 33.58,19.04
X$182 7 20 40 41 7 4 4 sky130_fd_sc_hd__nand2_1
* cell instance $185 r0 *1 36.34,19.04
X$185 4 35 38 24 7 7 4 sky130_fd_sc_hd__xor2_2
* cell instance $189 r0 *1 43.24,19.04
X$189 7 34 31 43 7 29 4 4 sky130_fd_sc_hd__o21ai_0
* cell instance $202 m0 *1 2.76,24.48
X$202 4 9 37 10 46 7 7 4 sky130_fd_sc_hd__dfrtp_1
* cell instance $204 m0 *1 13.8,24.48
X$204 4 49 10 7 7 4 sky130_fd_sc_hd__clkbuf_8
* cell instance $207 m0 *1 21.16,24.48
X$207 7 53 24 47 44 7 4 4 sky130_fd_sc_hd__nand3_1
* cell instance $208 m0 *1 23,24.48
X$208 7 52 19 51 4 7 4 sky130_fd_sc_hd__nor2_1
* cell instance $209 m0 *1 24.38,24.48
X$209 7 42 34 47 4 7 4 sky130_fd_sc_hd__nor2_1
* cell instance $210 m0 *1 25.76,24.48
X$210 7 53 42 34 19 7 4 4 sky130_fd_sc_hd__or3_1
* cell instance $213 m0 *1 29.44,24.48
X$213 4 9 48 27 50 7 7 4 sky130_fd_sc_hd__dfrtp_1
* cell instance $214 m0 *1 38.64,24.48
X$214 4 31 38 35 7 7 4 sky130_fd_sc_hd__xnor2_2
* cell instance $215 m0 *1 44.62,24.48
X$215 7 35 40 43 7 4 4 sky130_fd_sc_hd__nand2_1
* cell instance $226 r0 *1 2.3,24.48
X$226 4 9 58 10 62 7 7 4 sky130_fd_sc_hd__dfrtp_1
* cell instance $232 r0 *1 15.64,24.48
X$232 4 46 55 37 51 7 7 4 sky130_fd_sc_hd__mux2_1
* cell instance $234 r0 *1 20.7,24.48
X$234 7 76 53 24 47 7 39 4 4 sky130_fd_sc_hd__nand4_1
* cell instance $235 r0 *1 23,24.48
X$235 7 24 57 56 52 7 4 4 sky130_fd_sc_hd__nand3_1
* cell instance $239 r0 *1 31.28,24.48
X$239 7 53 54 48 40 4 50 7 4 sky130_fd_sc_hd__a22o_1
* cell instance $240 r0 *1 34.5,24.48
X$240 7 35 20 48 63 7 4 4 sky130_fd_sc_hd__nand3_1
* cell instance $241 r0 *1 36.34,24.48
X$241 4 53 38 22 48 7 7 4 sky130_fd_sc_hd__ha_1
* cell instance $247 r0 *1 43.24,24.48
X$247 4 49 27 7 7 4 sky130_fd_sc_hd__clkbuf_8
* cell instance $256 m0 *1 2.76,29.92
X$256 7 58 65 4 7 4 sky130_fd_sc_hd__clkbuf_1
* cell instance $257 m0 *1 4.14,29.92
X$257 4 62 58 66 16 7 7 4 sky130_fd_sc_hd__mux2_1
* cell instance $258 m0 *1 8.28,29.92
X$258 4 9 66 10 59 7 7 4 sky130_fd_sc_hd__dfrtp_1
* cell instance $259 m0 *1 17.48,29.92
X$259 4 59 55 66 69 7 7 4 sky130_fd_sc_hd__mux2_1
* cell instance $260 m0 *1 21.62,29.92
X$260 7 52 34 42 53 4 69 7 4 sky130_fd_sc_hd__nor4b_1
* cell instance $262 m0 *1 25.3,29.92
X$262 7 42 54 31 53 7 84 4 4 sky130_fd_sc_hd__nand4b_1
* cell instance $265 m0 *1 29.44,29.92
X$265 7 72 67 64 73 56 4 7 4 sky130_fd_sc_hd__nor4bb_1
* cell instance $266 m0 *1 33.12,29.92
X$266 4 64 67 60 78 7 7 4 sky130_fd_sc_hd__ha_1
* cell instance $269 m0 *1 40.48,29.92
X$269 7 27 7 4 198 4 sky130_fd_sc_hd__clkinvlp_4
* cell instance $270 m0 *1 43.24,29.92
X$270 7 60 35 38 71 7 4 4 sky130_fd_sc_hd__nand3_1
* cell instance $272 m0 *1 46,29.92
X$272 7 85 34 70 4 7 4 sky130_fd_sc_hd__nor2_1
* cell instance $273 m0 *1 47.38,29.92
X$273 4 9 61 27 70 7 7 4 sky130_fd_sc_hd__dfrtp_1
* cell instance $275 m0 *1 57.04,29.92
X$275 4 61 68 7 7 4 sky130_fd_sc_hd__buf_6
* cell instance $288 r0 *1 22.08,29.92
X$288 7 77 20 76 4 7 4 sky130_fd_sc_hd__nor2_1
* cell instance $290 r0 *1 23.92,29.92
X$290 4 42 72 60 63 7 7 4 sky130_fd_sc_hd__ha_1
* cell instance $292 r0 *1 28.98,29.92
X$292 7 67 72 53 64 4 86 7 4 sky130_fd_sc_hd__nor4b_1
* cell instance $295 r0 *1 33.58,29.92
X$295 7 60 63 78 4 7 4 sky130_fd_sc_hd__nand2b_1
* cell instance $298 r0 *1 38.18,29.92
X$298 4 201 85 60 71 7 7 4 sky130_fd_sc_hd__ha_1
* cell instance $302 r0 *1 43.7,29.92
X$302 4 54 68 77 74 81 7 7 4 sky130_fd_sc_hd__nor4b_2
* cell instance $306 r0 *1 52.44,29.92
X$306 7 68 77 74 7 90 4 4 sky130_fd_sc_hd__o21ai_0
* cell instance $308 r0 *1 54.74,29.92
X$308 4 9 74 27 83 7 7 4 sky130_fd_sc_hd__dfrtp_2
* cell instance $314 m0 *1 1.38,35.36
X$314 4 55 92 7 7 4 sky130_fd_sc_hd__dlymetal6s2s_1
* cell instance $319 m0 *1 20.7,35.36
X$319 7 56 95 36 7 4 4 sky130_fd_sc_hd__nand2_1
* cell instance $320 m0 *1 22.08,35.36
X$320 7 57 56 106 7 4 4 sky130_fd_sc_hd__nand2_1
* cell instance $321 m0 *1 23.46,35.36
X$321 7 42 54 79 7 4 4 sky130_fd_sc_hd__nand2_1
* cell instance $322 m0 *1 24.84,35.36
X$322 7 77 7 4 60 4 sky130_fd_sc_hd__clkinvlp_4
* cell instance $323 m0 *1 27.6,35.36
X$323 7 79 88 91 4 7 4 sky130_fd_sc_hd__nor2_1
* cell instance $325 m0 *1 29.44,35.36
X$325 7 80 93 20 57 4 7 4 sky130_fd_sc_hd__nor3b_1
* cell instance $326 m0 *1 32.2,35.36
X$326 4 73 203 60 71 7 7 4 sky130_fd_sc_hd__ha_1
* cell instance $327 m0 *1 36.8,35.36
X$327 4 200 80 87 71 7 7 4 sky130_fd_sc_hd__ha_1
* cell instance $330 m0 *1 44.16,35.36
X$330 7 68 74 87 81 4 7 34 4 sky130_fd_sc_hd__or4b_2
* cell instance $333 m0 *1 50.14,35.36
X$333 7 77 74 85 82 7 4 104 4 sky130_fd_sc_hd__o31ai_1
* cell instance $335 m0 *1 53.36,35.36
X$335 7 82 90 89 4 7 83 4 sky130_fd_sc_hd__a21boi_0
* cell instance $338 m0 *1 57.04,35.36
X$338 7 81 7 4 82 4 sky130_fd_sc_hd__clkbuf_2
* cell instance $342 m0 *1 63.94,35.36
X$342 7 74 75 4 7 4 sky130_fd_sc_hd__clkbuf_1
* cell instance $345 r0 *1 4.14,35.36
X$345 4 9 103 109 102 7 7 4 sky130_fd_sc_hd__dfrtp_1
* cell instance $354 r0 *1 22.08,35.36
X$354 7 106 84 116 4 7 4 sky130_fd_sc_hd__nor2_1
* cell instance $356 r0 *1 23.92,35.36
X$356 7 80 93 20 55 4 95 7 4 sky130_fd_sc_hd__nor4b_1
* cell instance $358 r0 *1 27.6,35.36
X$358 7 79 94 108 7 4 4 sky130_fd_sc_hd__nand2_1
* cell instance $359 r0 *1 28.98,35.36
X$359 4 107 49 7 7 4 sky130_fd_sc_hd__clkbuf_8
* cell instance $361 r0 *1 34.5,35.36
X$361 4 202 93 87 98 7 7 4 sky130_fd_sc_hd__ha_1
* cell instance $362 r0 *1 39.1,35.36
X$362 7 77 40 94 7 4 4 sky130_fd_sc_hd__nand2_1
* cell instance $363 r0 *1 40.48,35.36
X$363 7 71 7 4 98 4 sky130_fd_sc_hd__inv_1
* cell instance $369 r0 *1 43.24,35.36
X$369 7 87 4 77 7 4 sky130_fd_sc_hd__buf_2
* cell instance $371 r0 *1 46,35.36
X$371 7 77 74 82 105 7 4 4 sky130_fd_sc_hd__or3b_1
* cell instance $374 r0 *1 50.6,35.36
X$374 7 68 112 104 4 7 99 4 sky130_fd_sc_hd__a21oi_1
* cell instance $375 r0 *1 52.44,35.36
X$375 4 9 81 111 99 7 7 4 sky130_fd_sc_hd__dfrtp_1
* cell instance $378 r0 *1 63.94,35.36
X$378 7 100 134 4 7 4 sky130_fd_sc_hd__clkbuf_1
* cell instance $381 m0 *1 4.14,40.8
X$381 7 122 101 4 7 4 sky130_fd_sc_hd__clkbuf_1
* cell instance $382 m0 *1 5.52,40.8
X$382 4 102 55 103 91 7 7 4 sky130_fd_sc_hd__mux2_1
* cell instance $383 m0 *1 9.66,40.8
X$383 4 9 119 109 96 7 7 4 sky130_fd_sc_hd__dfrtp_1
* cell instance $385 m0 *1 19.32,40.8
X$385 4 96 55 119 116 7 7 4 sky130_fd_sc_hd__mux2_1
* cell instance $386 m0 *1 23.46,40.8
X$386 7 36 84 97 7 120 4 4 sky130_fd_sc_hd__o21ai_0
* cell instance $388 m0 *1 25.76,40.8
X$388 7 77 20 84 110 7 4 97 4 sky130_fd_sc_hd__o31ai_1
* cell instance $391 m0 *1 29.44,40.8
X$391 7 57 73 31 86 7 88 4 4 sky130_fd_sc_hd__nand4_1
* cell instance $393 m0 *1 32.2,40.8
X$393 4 9 87 111 108 7 7 4 sky130_fd_sc_hd__dfrtp_1
* cell instance $395 m0 *1 42.32,40.8
X$395 4 199 121 60 98 7 7 4 sky130_fd_sc_hd__ha_1
* cell instance $396 m0 *1 46.92,40.8
X$396 7 112 105 68 4 7 40 4 sky130_fd_sc_hd__a21o_1
* cell instance $397 m0 *1 49.68,40.8
X$397 7 77 82 74 130 4 7 4 sky130_fd_sc_hd__nand3b_1
* cell instance $399 m0 *1 54.28,40.8
X$399 7 68 77 74 89 7 4 4 sky130_fd_sc_hd__or3_1
* cell instance $401 m0 *1 57.04,40.8
X$401 7 113 81 112 4 7 4 sky130_fd_sc_hd__nand2b_1
* cell instance $404 m0 *1 61.64,40.8
X$404 7 114 113 4 7 4 sky130_fd_sc_hd__clkbuf_1
* cell instance $405 m0 *1 63.02,40.8
X$405 7 115 126 4 7 4 sky130_fd_sc_hd__clkbuf_1
* cell instance $408 r0 *1 2.3,40.8
X$408 4 9 122 109 127 7 7 4 sky130_fd_sc_hd__dfrtp_1
* cell instance $409 r0 *1 11.5,40.8
X$409 7 131 117 4 7 4 sky130_fd_sc_hd__clkbuf_1
* cell instance $420 r0 *1 22.54,40.8
X$420 4 9 110 109 120 7 7 4 sky130_fd_sc_hd__dfrtp_1
* cell instance $431 r0 *1 46.46,40.8
X$431 7 82 74 121 151 7 4 4 sky130_fd_sc_hd__nand3_1
* cell instance $432 r0 *1 48.3,40.8
X$432 4 152 68 130 112 7 7 4 sky130_fd_sc_hd__a21oi_4
* cell instance $434 r0 *1 54.74,40.8
X$434 7 82 68 118 4 7 4 sky130_fd_sc_hd__nor2_1
* cell instance $435 r0 *1 56.12,40.8
X$435 7 124 113 118 4 7 129 4 sky130_fd_sc_hd__a21oi_1
* cell instance $436 r0 *1 57.96,40.8
X$436 7 115 118 139 4 7 4 sky130_fd_sc_hd__nor2_1
* cell instance $437 r0 *1 59.34,40.8
X$437 7 100 82 124 4 7 4 sky130_fd_sc_hd__nor2b_1
* cell instance $438 r0 *1 61.64,40.8
X$438 7 133 7 125 4 4 sky130_fd_sc_hd__dlygate4sd3_1
* cell instance $442 m0 *1 4.6,46.24
X$442 4 127 122 103 16 7 7 4 sky130_fd_sc_hd__mux2_1
* cell instance $445 m0 *1 11.5,46.24
X$445 4 135 131 119 16 7 7 4 sky130_fd_sc_hd__mux2_1
* cell instance $452 m0 *1 29.44,46.24
X$452 4 136 137 110 16 7 7 4 sky130_fd_sc_hd__mux2_1
* cell instance $457 m0 *1 40.48,46.24
X$457 7 123 4 16 7 4 sky130_fd_sc_hd__clkbuf_4
* cell instance $459 m0 *1 44.16,46.24
X$459 7 68 82 4 7 123 4 sky130_fd_sc_hd__or2b_1
* cell instance $466 m0 *1 57.5,46.24
X$466 7 139 113 118 4 7 128 4 sky130_fd_sc_hd__a21oi_1
* cell instance $469 m0 *1 60.72,46.24
X$469 4 138 125 7 7 4 sky130_fd_sc_hd__dlymetal6s2s_1
* cell instance $472 r0 *1 5.98,46.24
X$472 4 9 131 109 135 7 7 4 sky130_fd_sc_hd__dfrtp_1
* cell instance $475 r0 *1 15.64,46.24
X$475 4 49 109 7 7 4 sky130_fd_sc_hd__clkbuf_8
* cell instance $478 r0 *1 23.46,46.24
X$478 4 9 137 109 136 7 7 4 sky130_fd_sc_hd__dfrtp_1
* cell instance $483 r0 *1 39.56,46.24
X$483 7 16 132 141 7 4 4 sky130_fd_sc_hd__nand2_1
* cell instance $484 r0 *1 40.94,46.24
X$484 7 111 7 4 4 sky130_fd_sc_hd__clkinv_2
* cell instance $488 r0 *1 44.16,46.24
X$488 4 49 111 7 7 4 sky130_fd_sc_hd__clkbuf_8
* cell instance $489 r0 *1 49.22,46.24
X$489 7 82 68 140 4 7 4 sky130_fd_sc_hd__and2b_1
* cell instance $492 r0 *1 54.28,46.24
X$492 4 138 115 111 128 7 7 4 sky130_fd_sc_hd__dfstp_1
* cell instance $509 m0 *1 37.72,51.68
X$509 4 9 142 111 141 7 7 4 sky130_fd_sc_hd__dfrtp_1
* cell instance $512 m0 *1 46.92,51.68
X$512 7 140 4 143 7 4 sky130_fd_sc_hd__clkbuf_4
* cell instance $519 m0 *1 57.96,51.68
X$519 4 138 9 7 7 4 sky130_fd_sc_hd__buf_12
* cell instance $522 r0 *1 5.98,51.68
X$522 4 9 146 109 145 7 7 4 sky130_fd_sc_hd__dfrtp_1
* cell instance $539 r0 *1 43.7,51.68
X$539 7 82 142 132 7 4 4 sky130_fd_sc_hd__nand2_1
* cell instance $544 r0 *1 54.74,51.68
X$544 4 138 100 111 129 7 7 4 sky130_fd_sc_hd__dfstp_1
* cell instance $549 m0 *1 12.42,57.12
X$549 7 185 148 155 4 7 158 4 sky130_fd_sc_hd__a21oi_1
* cell instance $550 m0 *1 14.26,57.12
X$550 7 160 148 153 7 147 4 4 sky130_fd_sc_hd__o21ai_0
* cell instance $553 m0 *1 19.78,57.12
X$553 4 9 154 109 161 7 7 4 sky130_fd_sc_hd__dfrtp_1
* cell instance $555 m0 *1 29.44,57.12
X$555 4 165 189 154 143 7 7 4 sky130_fd_sc_hd__mux2i_1
* cell instance $557 m0 *1 34.96,57.12
X$557 4 149 164 163 143 7 7 4 sky130_fd_sc_hd__mux2i_1
* cell instance $560 m0 *1 40.94,57.12
X$560 4 156 162 150 143 7 7 4 sky130_fd_sc_hd__mux2i_1
* cell instance $562 m0 *1 44.62,57.12
X$562 4 159 191 174 143 7 7 4 sky130_fd_sc_hd__mux2i_1
* cell instance $563 m0 *1 48.3,57.12
X$563 7 157 152 151 4 7 144 4 sky130_fd_sc_hd__a21oi_1
* cell instance $574 r0 *1 4.6,57.12
X$574 4 9 172 109 158 7 7 4 sky130_fd_sc_hd__dfrtp_1
* cell instance $575 r0 *1 13.8,57.12
X$575 7 146 148 168 4 7 4 sky130_fd_sc_hd__nor2_1
* cell instance $578 r0 *1 15.64,57.12
X$578 4 155 169 166 143 7 7 4 sky130_fd_sc_hd__mux2i_1
* cell instance $580 r0 *1 20.24,57.12
X$580 7 143 188 152 153 4 7 4 sky130_fd_sc_hd__nand3b_1
* cell instance $582 r0 *1 23.92,57.12
X$582 4 9 163 109 180 7 7 4 sky130_fd_sc_hd__dfrtp_1
* cell instance $583 r0 *1 33.12,57.12
X$583 4 9 150 111 170 7 7 4 sky130_fd_sc_hd__dfrtp_1
* cell instance $587 r0 *1 43.24,57.12
X$587 7 159 151 148 144 4 7 167 4 sky130_fd_sc_hd__a31oi_1
* cell instance $589 r0 *1 46,57.12
X$589 4 9 157 111 167 7 7 4 sky130_fd_sc_hd__dfrtp_1
* cell instance $600 m0 *1 2.76,62.56
X$600 4 9 166 109 147 7 7 4 sky130_fd_sc_hd__dfrtp_1
* cell instance $601 m0 *1 11.96,62.56
X$601 7 168 148 171 4 7 145 4 sky130_fd_sc_hd__a21oi_1
* cell instance $603 m0 *1 14.72,62.56
X$603 4 171 176 172 143 7 7 4 sky130_fd_sc_hd__mux2i_1
* cell instance $605 m0 *1 19.32,62.56
X$605 7 178 148 173 4 7 161 4 sky130_fd_sc_hd__a21oi_1
* cell instance $606 m0 *1 21.16,62.56
X$606 4 173 177 146 143 7 7 4 sky130_fd_sc_hd__mux2i_1
* cell instance $607 m0 *1 24.84,62.56
X$607 7 154 152 178 4 7 4 sky130_fd_sc_hd__nor2_1
* cell instance $611 m0 *1 29.44,62.56
X$611 7 181 148 165 4 7 180 4 sky130_fd_sc_hd__a21oi_1
* cell instance $612 m0 *1 31.28,62.56
X$612 7 163 152 181 4 7 4 sky130_fd_sc_hd__nor2_1
* cell instance $615 m0 *1 35.42,62.56
X$615 7 183 148 149 4 7 170 4 sky130_fd_sc_hd__a21oi_1
* cell instance $616 m0 *1 37.26,62.56
X$616 7 150 152 183 4 7 4 sky130_fd_sc_hd__nor2_1
* cell instance $617 m0 *1 38.64,62.56
X$617 7 152 4 148 7 4 sky130_fd_sc_hd__buf_2
* cell instance $619 m0 *1 40.94,62.56
X$619 7 182 162 4 7 4 sky130_fd_sc_hd__clkbuf_1
* cell instance $620 m0 *1 42.32,62.56
X$620 7 179 148 156 4 7 175 4 sky130_fd_sc_hd__a21oi_1
* cell instance $622 m0 *1 44.62,62.56
X$622 7 174 152 179 4 7 4 sky130_fd_sc_hd__nor2_1
* cell instance $625 m0 *1 47.38,62.56
X$625 4 9 174 111 175 7 7 4 sky130_fd_sc_hd__dfrtp_1
* cell instance $633 r0 *1 12.42,62.56
X$633 7 172 148 185 4 7 4 sky130_fd_sc_hd__nor2_1
* cell instance $634 r0 *1 13.8,62.56
X$634 7 166 7 4 160 4 sky130_fd_sc_hd__inv_1
* cell instance $640 r0 *1 16.1,62.56
X$640 7 186 169 4 7 4 sky130_fd_sc_hd__clkbuf_1
* cell instance $642 r0 *1 17.94,62.56
X$642 7 187 176 4 7 4 sky130_fd_sc_hd__clkbuf_1
* cell instance $644 r0 *1 21.16,62.56
X$644 7 193 188 4 7 4 sky130_fd_sc_hd__clkbuf_1
* cell instance $646 r0 *1 23.46,62.56
X$646 7 190 177 4 7 4 sky130_fd_sc_hd__clkbuf_1
* cell instance $650 r0 *1 29.44,62.56
X$650 7 194 189 4 7 4 sky130_fd_sc_hd__clkbuf_1
* cell instance $652 r0 *1 31.28,62.56
X$652 7 137 195 4 7 4 sky130_fd_sc_hd__clkbuf_1
* cell instance $655 r0 *1 34.96,62.56
X$655 7 192 164 4 7 4 sky130_fd_sc_hd__clkbuf_1
* cell instance $663 r0 *1 43.24,62.56
X$663 7 142 196 4 7 4 sky130_fd_sc_hd__clkbuf_1
* cell instance $664 r0 *1 44.62,62.56
X$664 7 184 191 4 7 4 sky130_fd_sc_hd__clkbuf_1
* cell instance $666 r0 *1 49.68,62.56
X$666 7 157 197 4 7 4 sky130_fd_sc_hd__clkbuf_1
.ENDS simple_spi_master

* cell sky130_fd_sc_hd__xor2_2
* pin VGND
* pin A
* pin B
* pin X
* pin VPWR
* pin VPB
* pin 
.SUBCKT sky130_fd_sc_hd__xor2_2 1 3 4 6 8 10 11
* net 1 VGND
* net 3 A
* net 4 B
* net 6 X
* net 8 VPWR
* net 10 VPB
* device instance $1 r0 *1 4.94,1.985 pfet_01v8_hvt
M$1 6 2 9 10 pfet_01v8_hvt L=150000U W=2000000U AS=395000000000P
+ AD=415000000000P PS=3790000U PD=3830000U
* device instance $3 r0 *1 2.685,1.985 pfet_01v8_hvt
M$3 8 3 9 10 pfet_01v8_hvt L=150000U W=2000000U AS=395000000000P
+ AD=270000000000P PS=3790000U PD=2540000U
* device instance $5 r0 *1 3.525,1.985 pfet_01v8_hvt
M$5 8 4 9 10 pfet_01v8_hvt L=150000U W=2000000U AS=297500000000P
+ AD=422500000000P PS=2595000U PD=3845000U
* device instance $7 r0 *1 0.485,1.985 pfet_01v8_hvt
M$7 8 3 7 10 pfet_01v8_hvt L=150000U W=2000000U AS=410000000000P
+ AD=270000000000P PS=3820000U PD=2540000U
* device instance $9 r0 *1 1.325,1.985 pfet_01v8_hvt
M$9 2 4 7 10 pfet_01v8_hvt L=150000U W=2000000U AS=270000000000P
+ AD=395000000000P PS=2540000U PD=3790000U
* device instance $11 r0 *1 4.94,0.56 nfet_01v8
M$11 6 2 1 11 nfet_01v8 L=150000U W=1300000U AS=256750000000P AD=256750000000P
+ PS=2740000U PD=2740000U
* device instance $13 r0 *1 2.685,0.56 nfet_01v8
M$13 1 3 5 11 nfet_01v8 L=150000U W=1300000U AS=256750000000P AD=175500000000P
+ PS=2740000U PD=1840000U
* device instance $15 r0 *1 3.525,0.56 nfet_01v8
M$15 6 4 5 11 nfet_01v8 L=150000U W=1300000U AS=193375000000P AD=274625000000P
+ PS=1895000U PD=2795000U
* device instance $17 r0 *1 0.485,0.56 nfet_01v8
M$17 2 3 1 11 nfet_01v8 L=150000U W=1300000U AS=266500000000P AD=175500000000P
+ PS=2770000U PD=1840000U
* device instance $19 r0 *1 1.325,0.56 nfet_01v8
M$19 2 4 1 11 nfet_01v8 L=150000U W=1300000U AS=175500000000P AD=256750000000P
+ PS=1840000U PD=2740000U
.ENDS sky130_fd_sc_hd__xor2_2

* cell sky130_fd_sc_hd__xnor2_2
* pin VGND
* pin Y
* pin B
* pin A
* pin VPB
* pin VPWR
* pin 
.SUBCKT sky130_fd_sc_hd__xnor2_2 1 5 6 7 8 9 11
* net 1 VGND
* net 5 Y
* net 6 B
* net 7 A
* net 8 VPB
* net 9 VPWR
* device instance $1 r0 *1 4.96,1.985 pfet_01v8_hvt
M$1 5 3 9 8 pfet_01v8_hvt L=150000U W=2000000U AS=395000000000P
+ AD=415000000000P PS=3790000U PD=3830000U
* device instance $3 r0 *1 2.725,1.985 pfet_01v8_hvt
M$3 9 7 10 8 pfet_01v8_hvt L=150000U W=2000000U AS=415000000000P
+ AD=270000000000P PS=3830000U PD=2540000U
* device instance $5 r0 *1 3.565,1.985 pfet_01v8_hvt
M$5 5 6 10 8 pfet_01v8_hvt L=150000U W=2000000U AS=287500000000P
+ AD=412500000000P PS=2575000U PD=3825000U
* device instance $7 r0 *1 0.485,1.985 pfet_01v8_hvt
M$7 9 6 3 8 pfet_01v8_hvt L=150000U W=2000000U AS=410000000000P
+ AD=270000000000P PS=3820000U PD=2540000U
* device instance $9 r0 *1 1.325,1.985 pfet_01v8_hvt
M$9 9 7 3 8 pfet_01v8_hvt L=150000U W=2000000U AS=270000000000P
+ AD=415000000000P PS=2540000U PD=3830000U
* device instance $11 r0 *1 4.96,0.56 nfet_01v8
M$11 4 3 5 11 nfet_01v8 L=150000U W=1300000U AS=256750000000P AD=256750000000P
+ PS=2740000U PD=2740000U
* device instance $13 r0 *1 2.725,0.56 nfet_01v8
M$13 4 7 1 11 nfet_01v8 L=150000U W=1300000U AS=269750000000P AD=175500000000P
+ PS=2780000U PD=1840000U
* device instance $15 r0 *1 3.565,0.56 nfet_01v8
M$15 4 6 1 11 nfet_01v8 L=150000U W=1300000U AS=186875000000P AD=268125000000P
+ PS=1875000U PD=2775000U
* device instance $17 r0 *1 0.485,0.56 nfet_01v8
M$17 3 6 2 11 nfet_01v8 L=150000U W=1300000U AS=266500000000P AD=175500000000P
+ PS=2770000U PD=1840000U
* device instance $19 r0 *1 1.325,0.56 nfet_01v8
M$19 1 7 2 11 nfet_01v8 L=150000U W=1300000U AS=175500000000P AD=269750000000P
+ PS=1840000U PD=2780000U
.ENDS sky130_fd_sc_hd__xnor2_2

* cell sky130_fd_sc_hd__nor4b_2
* pin VGND
* pin Y
* pin A
* pin B
* pin C
* pin D_N
* pin VPWR
* pin VPB
* pin 
.SUBCKT sky130_fd_sc_hd__nor4b_2 1 2 4 5 6 7 11 12 13
* net 1 VGND
* net 2 Y
* net 4 A
* net 5 B
* net 6 C
* net 7 D_N
* net 11 VPWR
* net 12 VPB
* device instance $1 r0 *1 4.905,2.275 pfet_01v8_hvt
M$1 11 7 3 12 pfet_01v8_hvt L=150000U W=420000U AS=109200000000P
+ AD=109200000000P PS=1360000U PD=1360000U
* device instance $2 r0 *1 2.705,1.985 pfet_01v8_hvt
M$2 9 6 10 12 pfet_01v8_hvt L=150000U W=2000000U AS=395000000000P
+ AD=270000000000P PS=3790000U PD=2540000U
* device instance $4 r0 *1 3.545,1.985 pfet_01v8_hvt
M$4 2 3 10 12 pfet_01v8_hvt L=150000U W=2000000U AS=270000000000P
+ AD=395000000000P PS=2540000U PD=3790000U
* device instance $6 r0 *1 0.47,1.985 pfet_01v8_hvt
M$6 11 4 8 12 pfet_01v8_hvt L=150000U W=2000000U AS=395000000000P
+ AD=270000000000P PS=3790000U PD=2540000U
* device instance $8 r0 *1 1.31,1.985 pfet_01v8_hvt
M$8 9 5 8 12 pfet_01v8_hvt L=150000U W=2000000U AS=270000000000P
+ AD=395000000000P PS=2540000U PD=3790000U
* device instance $10 r0 *1 4.905,0.675 nfet_01v8
M$10 1 7 3 13 nfet_01v8 L=150000U W=420000U AS=109200000000P AD=109200000000P
+ PS=1360000U PD=1360000U
* device instance $11 r0 *1 2.705,0.56 nfet_01v8
M$11 2 6 1 13 nfet_01v8 L=150000U W=1300000U AS=256750000000P AD=175500000000P
+ PS=2740000U PD=1840000U
* device instance $13 r0 *1 3.545,0.56 nfet_01v8
M$13 2 3 1 13 nfet_01v8 L=150000U W=1300000U AS=175500000000P AD=256750000000P
+ PS=1840000U PD=2740000U
* device instance $15 r0 *1 0.47,0.56 nfet_01v8
M$15 2 4 1 13 nfet_01v8 L=150000U W=1300000U AS=256750000000P AD=175500000000P
+ PS=2740000U PD=1840000U
* device instance $17 r0 *1 1.31,0.56 nfet_01v8
M$17 2 5 1 13 nfet_01v8 L=150000U W=1300000U AS=175500000000P AD=256750000000P
+ PS=1840000U PD=2740000U
.ENDS sky130_fd_sc_hd__nor4b_2

* cell sky130_fd_sc_hd__buf_6
* pin VGND
* pin A
* pin X
* pin VPWR
* pin VPB
* pin 
.SUBCKT sky130_fd_sc_hd__buf_6 1 2 4 5 6 7
* net 1 VGND
* net 2 A
* net 4 X
* net 5 VPWR
* net 6 VPB
* device instance $1 r0 *1 0.73,1.985 pfet_01v8_hvt
M$1 3 2 5 6 pfet_01v8_hvt L=150000U W=2000000U AS=395000000000P
+ AD=270000000000P PS=3790000U PD=2540000U
* device instance $3 r0 *1 1.57,1.985 pfet_01v8_hvt
M$3 4 3 5 6 pfet_01v8_hvt L=150000U W=6000000U AS=810000000000P
+ AD=935000000000P PS=7620000U PD=8870000U
* device instance $9 r0 *1 0.73,0.56 nfet_01v8
M$9 3 2 1 7 nfet_01v8 L=150000U W=1300000U AS=256750000000P AD=175500000000P
+ PS=2740000U PD=1840000U
* device instance $11 r0 *1 1.57,0.56 nfet_01v8
M$11 4 3 1 7 nfet_01v8 L=150000U W=3900000U AS=526500000000P AD=607750000000P
+ PS=5520000U PD=6420000U
.ENDS sky130_fd_sc_hd__buf_6

* cell sky130_fd_sc_hd__dfrtp_2
* pin VGND
* pin RESET_B
* pin Q
* pin CLK
* pin D
* pin VPWR
* pin VPB
* pin 
.SUBCKT sky130_fd_sc_hd__dfrtp_2 1 6 9 14 15 17 18 21
* net 1 VGND
* net 6 RESET_B
* net 9 Q
* net 14 CLK
* net 15 D
* net 17 VPWR
* net 18 VPB
* device instance $1 r0 *1 8.73,1.985 pfet_01v8_hvt
M$1 9 8 17 18 pfet_01v8_hvt L=150000U W=2000000U AS=436200000000P
+ AD=395000000000P PS=3930000U PD=3790000U
* device instance $3 r0 *1 5.35,2.065 pfet_01v8_hvt
M$3 16 5 17 18 pfet_01v8_hvt L=150000U W=840000U AS=218400000000P
+ AD=129150000000P PS=2200000U PD=1185000U
* device instance $4 r0 *1 5.845,2.275 pfet_01v8_hvt
M$4 7 2 16 18 pfet_01v8_hvt L=150000U W=420000U AS=129150000000P
+ AD=58800000000P PS=1185000U PD=700000U
* device instance $5 r0 *1 6.275,2.275 pfet_01v8_hvt
M$5 20 3 7 18 pfet_01v8_hvt L=150000U W=420000U AS=58800000000P AD=56700000000P
+ PS=700000U PD=690000U
* device instance $6 r0 *1 6.695,2.275 pfet_01v8_hvt
M$6 17 8 20 18 pfet_01v8_hvt L=150000U W=420000U AS=56700000000P
+ AD=81900000000P PS=690000U PD=810000U
* device instance $7 r0 *1 7.235,2.275 pfet_01v8_hvt
M$7 8 6 17 18 pfet_01v8_hvt L=150000U W=420000U AS=81900000000P AD=56700000000P
+ PS=810000U PD=690000U
* device instance $8 r0 *1 7.655,2.275 pfet_01v8_hvt
M$8 17 7 8 18 pfet_01v8_hvt L=150000U W=420000U AS=56700000000P
+ AD=113400000000P PS=690000U PD=1380000U
* device instance $9 r0 *1 2.225,2.275 pfet_01v8_hvt
M$9 4 15 17 18 pfet_01v8_hvt L=150000U W=420000U AS=109200000000P
+ AD=65100000000P PS=1360000U PD=730000U
* device instance $10 r0 *1 2.685,2.275 pfet_01v8_hvt
M$10 5 3 4 18 pfet_01v8_hvt L=150000U W=420000U AS=65100000000P AD=72450000000P
+ PS=730000U PD=765000U
* device instance $11 r0 *1 3.18,2.275 pfet_01v8_hvt
M$11 19 2 5 18 pfet_01v8_hvt L=150000U W=420000U AS=72450000000P
+ AD=115500000000P PS=765000U PD=970000U
* device instance $12 r0 *1 3.88,2.275 pfet_01v8_hvt
M$12 17 16 19 18 pfet_01v8_hvt L=150000U W=420000U AS=115500000000P
+ AD=70350000000P PS=970000U PD=755000U
* device instance $13 r0 *1 4.365,2.275 pfet_01v8_hvt
M$13 19 6 17 18 pfet_01v8_hvt L=150000U W=420000U AS=70350000000P
+ AD=109200000000P PS=755000U PD=1360000U
* device instance $14 r0 *1 0.47,2.135 pfet_01v8_hvt
M$14 17 14 2 18 pfet_01v8_hvt L=150000U W=640000U AS=166400000000P
+ AD=86400000000P PS=1800000U PD=910000U
* device instance $15 r0 *1 0.89,2.135 pfet_01v8_hvt
M$15 3 2 17 18 pfet_01v8_hvt L=150000U W=640000U AS=86400000000P
+ AD=166400000000P PS=910000U PD=1800000U
* device instance $16 r0 *1 8.73,0.56 nfet_01v8
M$16 9 8 1 21 nfet_01v8 L=150000U W=1300000U AS=296450000000P AD=256750000000P
+ PS=2940000U PD=2740000U
* device instance $18 r0 *1 0.47,0.445 nfet_01v8
M$18 1 14 2 21 nfet_01v8 L=150000U W=420000U AS=109200000000P AD=56700000000P
+ PS=1360000U PD=690000U
* device instance $19 r0 *1 0.89,0.445 nfet_01v8
M$19 3 2 1 21 nfet_01v8 L=150000U W=420000U AS=56700000000P AD=109200000000P
+ PS=690000U PD=1360000U
* device instance $20 r0 *1 2.64,0.415 nfet_01v8
M$20 5 2 4 21 nfet_01v8 L=150000U W=360000U AS=66000000000P AD=59400000000P
+ PS=745000U PD=690000U
* device instance $21 r0 *1 3.12,0.415 nfet_01v8
M$21 11 3 5 21 nfet_01v8 L=150000U W=360000U AS=59400000000P AD=140100000000P
+ PS=690000U PD=1100000U
* device instance $22 r0 *1 5.465,0.415 nfet_01v8
M$22 7 3 16 21 nfet_01v8 L=150000U W=360000U AS=99900000000P AD=71100000000P
+ PS=985000U PD=755000U
* device instance $23 r0 *1 6.01,0.415 nfet_01v8
M$23 12 2 7 21 nfet_01v8 L=150000U W=360000U AS=71100000000P AD=66900000000P
+ PS=755000U PD=750000U
* device instance $24 r0 *1 2.165,0.445 nfet_01v8
M$24 4 15 1 21 nfet_01v8 L=150000U W=420000U AS=220500000000P AD=66000000000P
+ PS=1890000U PD=745000U
* device instance $25 r0 *1 3.95,0.445 nfet_01v8
M$25 13 16 11 21 nfet_01v8 L=150000U W=420000U AS=140100000000P AD=44100000000P
+ PS=1100000U PD=630000U
* device instance $26 r0 *1 4.31,0.445 nfet_01v8
M$26 1 6 13 21 nfet_01v8 L=150000U W=420000U AS=44100000000P AD=134600000000P
+ PS=630000U PD=1150000U
* device instance $27 r0 *1 6.49,0.445 nfet_01v8
M$27 1 8 12 21 nfet_01v8 L=150000U W=420000U AS=66900000000P AD=124950000000P
+ PS=750000U PD=1015000U
* device instance $28 r0 *1 7.235,0.445 nfet_01v8
M$28 10 6 1 21 nfet_01v8 L=150000U W=420000U AS=124950000000P AD=64050000000P
+ PS=1015000U PD=725000U
* device instance $29 r0 *1 7.69,0.445 nfet_01v8
M$29 8 7 10 21 nfet_01v8 L=150000U W=420000U AS=64050000000P AD=109200000000P
+ PS=725000U PD=1360000U
* device instance $30 r0 *1 4.97,0.555 nfet_01v8
M$30 16 5 1 21 nfet_01v8 L=150000U W=640000U AS=134600000000P AD=99900000000P
+ PS=1150000U PD=985000U
.ENDS sky130_fd_sc_hd__dfrtp_2

* cell sky130_fd_sc_hd__nand4b_1
* pin VPB
* pin A_N
* pin B
* pin C
* pin D
* pin VPWR
* pin Y
* pin VGND
* pin 
.SUBCKT sky130_fd_sc_hd__nand4b_1 1 2 3 4 6 7 8 9 10
* net 1 VPB
* net 2 A_N
* net 3 B
* net 4 C
* net 6 D
* net 7 VPWR
* net 8 Y
* net 9 VGND
* device instance $1 r0 *1 0.6,1.695 pfet_01v8_hvt
M$1 7 2 5 1 pfet_01v8_hvt L=150000U W=420000U AS=109200000000P AD=145750000000P
+ PS=1360000U PD=1335000U
* device instance $2 r0 *1 1.085,1.985 pfet_01v8_hvt
M$2 8 6 7 1 pfet_01v8_hvt L=150000U W=1000000U AS=145750000000P
+ AD=135000000000P PS=1335000U PD=1270000U
* device instance $3 r0 *1 1.505,1.985 pfet_01v8_hvt
M$3 7 4 8 1 pfet_01v8_hvt L=150000U W=1000000U AS=135000000000P
+ AD=192500000000P PS=1270000U PD=1385000U
* device instance $4 r0 *1 2.04,1.985 pfet_01v8_hvt
M$4 8 3 7 1 pfet_01v8_hvt L=150000U W=1000000U AS=192500000000P
+ AD=195000000000P PS=1385000U PD=1390000U
* device instance $5 r0 *1 2.58,1.985 pfet_01v8_hvt
M$5 7 5 8 1 pfet_01v8_hvt L=150000U W=1000000U AS=195000000000P
+ AD=280000000000P PS=1390000U PD=2560000U
* device instance $6 r0 *1 0.545,0.675 nfet_01v8
M$6 5 2 9 10 nfet_01v8 L=150000U W=420000U AS=118125000000P AD=111300000000P
+ PS=1040000U PD=1370000U
* device instance $7 r0 *1 1.085,0.56 nfet_01v8
M$7 11 6 9 10 nfet_01v8 L=150000U W=650000U AS=118125000000P AD=87750000000P
+ PS=1040000U PD=920000U
* device instance $8 r0 *1 1.505,0.56 nfet_01v8
M$8 13 4 11 10 nfet_01v8 L=150000U W=650000U AS=87750000000P AD=125125000000P
+ PS=920000U PD=1035000U
* device instance $9 r0 *1 2.04,0.56 nfet_01v8
M$9 12 3 13 10 nfet_01v8 L=150000U W=650000U AS=125125000000P AD=126750000000P
+ PS=1035000U PD=1040000U
* device instance $10 r0 *1 2.58,0.56 nfet_01v8