
* cell true_random_generator
* pin random_data[12]
* pin random_data[19]
* pin enable
* pin random_data[10]
* pin random_data[13]
* pin random_data[11]
* pin clk
* pin random_data[15]
* pin random_data[20]
* pin random_data[14]
* pin random_data[21]
* pin random_data[23]
* pin random_data[17]
* pin random_data[22]
* pin random_data[18]
* pin random_data[16]
* pin entropy_low
* pin read_next
* pin random_data[1]
* pin random_data[0]
* pin random_data[8]
* pin test_failed
* pin random_data[24]
* pin random_data[9]
* pin random_data[7]
* pin random_data[3]
* pin random_data[25]
* pin random_data[2]
* pin random_data[31]
* pin random_data[27]
* pin random_data[29]
* pin random_data[26]
* pin random_data[4]
* pin random_data[30]
* pin random_data[5]
* pin random_data[28]
* pin random_data[6]
* pin data_valid
* pin rst_n
* pin NWELL
* pin PWELL,gf180mcu_gnd
.SUBCKT true_random_generator 250 251 262 279 280 281 289 314 337 338 339 361
+ 362 363 364 365 397 398 452 453 454 455 483 484 514 551 552 584 585 586 587
+ 588 616 617 618 619 620 672 673 674 675
* net 250 random_data[12]
* net 251 random_data[19]
* net 262 enable
* net 279 random_data[10]
* net 280 random_data[13]
* net 281 random_data[11]
* net 289 clk
* net 314 random_data[15]
* net 337 random_data[20]
* net 338 random_data[14]
* net 339 random_data[21]
* net 361 random_data[23]
* net 362 random_data[17]
* net 363 random_data[22]
* net 364 random_data[18]
* net 365 random_data[16]
* net 397 entropy_low
* net 398 read_next
* net 452 random_data[1]
* net 453 random_data[0]
* net 454 random_data[8]
* net 455 test_failed
* net 483 random_data[24]
* net 484 random_data[9]
* net 514 random_data[7]
* net 551 random_data[3]
* net 552 random_data[25]
* net 584 random_data[2]
* net 585 random_data[31]
* net 586 random_data[27]
* net 587 random_data[29]
* net 588 random_data[26]
* net 616 random_data[4]
* net 617 random_data[30]
* net 618 random_data[5]
* net 619 random_data[28]
* net 620 random_data[6]
* net 672 data_valid
* net 673 rst_n
* net 674 NWELL
* net 675 PWELL,gf180mcu_gnd
* cell instance $11 m0 *1 2116.24,1023.12
X$11 674 1 49 675 25 gf180mcu_fd_sc_mcu9t5v0__and2_2
* cell instance $13 r0 *1 2214.24,1043.28
X$13 674 1 76 675 77 gf180mcu_fd_sc_mcu9t5v0__and2_2
* cell instance $15 m0 *1 2170.56,992.88
X$15 674 1 2 675 3 gf180mcu_fd_sc_mcu9t5v0__and2_2
* cell instance $17 r0 *1 2209.76,1033.2
X$17 674 1 65 675 64 gf180mcu_fd_sc_mcu9t5v0__and2_2
* cell instance $19 r0 *1 2119.04,1073.52
X$19 675 674 124 1 gf180mcu_fd_sc_mcu9t5v0__clkbuf_4
* cell instance $21 m0 *1 2167.76,1063.44
X$21 674 1 90 675 109 gf180mcu_fd_sc_mcu9t5v0__and2_2
* cell instance $24 m0 *1 2116.24,1063.44
X$24 674 1 103 675 123 gf180mcu_fd_sc_mcu9t5v0__and2_2
* cell instance $27 r0 *1 2208.64,992.88
X$27 674 1 16 675 17 gf180mcu_fd_sc_mcu9t5v0__and2_2
* cell instance $29 r0 *1 2212.56,1002.96
X$29 674 1 18 675 19 gf180mcu_fd_sc_mcu9t5v0__and2_2
* cell instance $32 m0 *1 2195.76,1013.04
X$32 674 1 45 675 13 gf180mcu_fd_sc_mcu9t5v0__and2_2
* cell instance $34 r0 *1 2161.04,1002.96
X$34 674 1 24 675 6 gf180mcu_fd_sc_mcu9t5v0__and2_2
* cell instance $36 m0 *1 2171.68,1013.04
X$36 675 674 2 34 8 12 gf180mcu_fd_sc_mcu9t5v0__mux2_2
* cell instance $40 m0 *1 2168.88,1002.96
X$40 675 12 5 3 674 gf180mcu_fd_sc_mcu9t5v0__dffq_2
* cell instance $42 r0 *1 2152.64,1002.96
X$42 675 10 33 674 4 gf180mcu_fd_sc_mcu9t5v0__or2_2
* cell instance $44 m0 *1 2152.08,1002.96
X$44 675 7 5 4 674 gf180mcu_fd_sc_mcu9t5v0__dffq_2
* cell instance $59 r0 *1 2228.8,1053.36
X$59 675 92 5 91 674 gf180mcu_fd_sc_mcu9t5v0__dffq_2
* cell instance $61 r0 *1 2214.8,1033.2
X$61 675 60 5 64 674 gf180mcu_fd_sc_mcu9t5v0__dffq_2
* cell instance $64 m0 *1 2177.28,1063.44
X$64 675 110 5 116 674 gf180mcu_fd_sc_mcu9t5v0__dffq_2
* cell instance $66 r0 *1 2164.96,1063.44
X$66 675 97 5 109 674 gf180mcu_fd_sc_mcu9t5v0__dffq_2
* cell instance $68 r0 *1 2222.08,1002.96
X$68 675 22 5 21 674 gf180mcu_fd_sc_mcu9t5v0__dffq_2
* cell instance $70 r0 *1 2186.24,992.88
X$70 675 14 5 23 674 gf180mcu_fd_sc_mcu9t5v0__dffq_2
* cell instance $72 m0 *1 2206.96,1002.96
X$72 675 39 5 17 674 gf180mcu_fd_sc_mcu9t5v0__dffq_2
* cell instance $74 r0 *1 2205.84,1013.04
X$74 675 38 5 19 674 gf180mcu_fd_sc_mcu9t5v0__dffq_2
* cell instance $76 r0 *1 2187.36,1002.96
X$76 675 15 5 13 674 gf180mcu_fd_sc_mcu9t5v0__dffq_2
* cell instance $82 r0 *1 2162.16,992.88
X$82 675 9 5 6 674 gf180mcu_fd_sc_mcu9t5v0__dffq_2
* cell instance $84 m0 *1 2151.52,1043.28
X$84 675 52 5 55 674 gf180mcu_fd_sc_mcu9t5v0__dffq_2
* cell instance $87 r0 *1 2177.84,1033.2
X$87 675 58 5 66 674 gf180mcu_fd_sc_mcu9t5v0__dffq_2
* cell instance $89 m0 *1 2212.56,1083.6
X$89 675 136 5 674 gf180mcu_fd_sc_mcu9t5v0__clkbuf_20
* cell instance $94 r0 *1 2170.56,1002.96
X$94 675 674 24 7 8 9 gf180mcu_fd_sc_mcu9t5v0__mux2_2
* cell instance $97 r0 *1 2171.12,1013.04
X$97 34 675 7 674 36 gf180mcu_fd_sc_mcu9t5v0__xor2_2
* cell instance $99 m0 *1 2161.04,1013.04
X$99 675 674 33 46 35 7 gf180mcu_fd_sc_mcu9t5v0__mux2_2
* cell instance $117 m0 *1 2142,1073.52
X$117 675 674 121 108 8 89 gf180mcu_fd_sc_mcu9t5v0__mux2_2
* cell instance $120 r0 *1 2129.12,1174.32
X$120 675 674 380 436 8 381 gf180mcu_fd_sc_mcu9t5v0__mux2_2
* cell instance $122 r0 *1 2032.8,1174.32
X$122 8 674 124 423 675 396 gf180mcu_fd_sc_mcu9t5v0__and3_2
* cell instance $124 r0 *1 2158.24,1073.52
X$124 675 674 132 134 8 133 gf180mcu_fd_sc_mcu9t5v0__mux2_2
* cell instance $126 m0 *1 2222.08,1013.04
X$126 675 674 18 22 8 38 gf180mcu_fd_sc_mcu9t5v0__mux2_2
* cell instance $128 m0 *1 2170.56,1073.52
X$128 675 674 90 110 8 97 gf180mcu_fd_sc_mcu9t5v0__mux2_2
* cell instance $130 r0 *1 2047.36,1164.24
X$130 675 84 8 674 gf180mcu_fd_sc_mcu9t5v0__clkbuf_8
* cell instance $134 m0 *1 2219.28,1033.2
X$134 675 674 65 38 8 60 gf180mcu_fd_sc_mcu9t5v0__mux2_2
* cell instance $136 r0 *1 2030.56,1164.24
X$136 675 674 8 372 124 gf180mcu_fd_sc_mcu9t5v0__nand2_2
* cell instance $143 r0 *1 2186.24,1013.04
X$143 674 12 9 675 37 gf180mcu_fd_sc_mcu9t5v0__xnor2_2
* cell instance $145 m0 *1 2185.68,1013.04
X$145 675 674 11 9 35 14 gf180mcu_fd_sc_mcu9t5v0__mux2_2
* cell instance $156 r0 *1 2180.64,992.88
X$156 675 10 11 674 23 gf180mcu_fd_sc_mcu9t5v0__or2_2
* cell instance $158 m0 *1 2230.48,1053.36
X$158 675 10 95 674 91 gf180mcu_fd_sc_mcu9t5v0__or2_2
* cell instance $160 r0 *1 2245.6,1053.36
X$160 675 10 93 674 94 gf180mcu_fd_sc_mcu9t5v0__or2_2
* cell instance $162 r0 *1 2155.44,1033.2
X$162 675 10 54 674 55 gf180mcu_fd_sc_mcu9t5v0__or2_2
* cell instance $165 m0 *1 2172.24,1043.28
X$165 675 10 57 674 66 gf180mcu_fd_sc_mcu9t5v0__or2_2
* cell instance $168 m0 *1 2241.68,1033.2
X$168 675 10 62 674 63 gf180mcu_fd_sc_mcu9t5v0__or2_2
* cell instance $170 r0 *1 2192.4,1053.36
X$170 675 674 75 10 gf180mcu_fd_sc_mcu9t5v0__clkbuf_4
* cell instance $174 r0 *1 2222.64,1013.04
X$174 675 10 20 674 21 gf180mcu_fd_sc_mcu9t5v0__or2_2
* cell instance $177 r0 *1 2181.76,1063.44
X$177 675 10 117 674 116 gf180mcu_fd_sc_mcu9t5v0__or2_2
* cell instance $179 r0 *1 2239.44,1013.04
X$179 675 10 44 674 43 gf180mcu_fd_sc_mcu9t5v0__or2_2
* cell instance $190 r0 *1 2204.16,1002.96
X$190 675 674 45 12 31 15 gf180mcu_fd_sc_mcu9t5v0__mux2_2
* cell instance $204 m0 *1 2201.92,1013.04
X$204 674 15 14 675 59 gf180mcu_fd_sc_mcu9t5v0__xnor2_2
* cell instance $206 m0 *1 2225.44,1002.96
X$206 675 674 20 14 35 22 gf180mcu_fd_sc_mcu9t5v0__mux2_2
* cell instance $215 m0 *1 2212.56,1013.04
X$215 675 674 16 15 31 39 gf180mcu_fd_sc_mcu9t5v0__mux2_2
* cell instance $238 r0 *1 2229.92,1013.04
X$238 39 675 22 674 41 gf180mcu_fd_sc_mcu9t5v0__xor2_2
* cell instance $252 r0 *1 2112.88,1013.04
X$252 675 29 26 25 674 gf180mcu_fd_sc_mcu9t5v0__dffq_2
* cell instance $263 r0 *1 2097.2,1033.2
X$263 675 67 26 50 674 gf180mcu_fd_sc_mcu9t5v0__dffq_2
* cell instance $265 m0 *1 2123.52,1073.52
X$265 675 89 26 106 674 gf180mcu_fd_sc_mcu9t5v0__dffq_2
* cell instance $267 m0 *1 2125.2,1083.6
X$267 675 133 26 131 674 gf180mcu_fd_sc_mcu9t5v0__dffq_2
* cell instance $269 r0 *1 2107.28,1063.44
X$269 675 85 26 123 674 gf180mcu_fd_sc_mcu9t5v0__dffq_2
* cell instance $272 m0 *1 2103.36,1093.68
X$272 675 128 26 155 674 gf180mcu_fd_sc_mcu9t5v0__dffq_2
* cell instance $275 m0 *1 2098.32,1053.36
X$275 675 74 26 101 674 gf180mcu_fd_sc_mcu9t5v0__dffq_2
* cell instance $277 r0 *1 2099.44,1103.76
X$277 675 674 26 684 gf180mcu_fd_sc_mcu9t5v0__clkbuf_4
* cell instance $279 r0 *1 2107.28,1103.76
X$279 675 136 26 674 gf180mcu_fd_sc_mcu9t5v0__clkbuf_20
* cell instance $281 m0 *1 2125.2,1063.44
X$281 675 108 26 87 674 gf180mcu_fd_sc_mcu9t5v0__dffq_2
* cell instance $284 m0 *1 2144.24,1013.04
X$284 675 34 26 32 674 gf180mcu_fd_sc_mcu9t5v0__dffq_2
* cell instance $288 r0 *1 2129.68,1013.04
X$288 675 30 26 48 674 gf180mcu_fd_sc_mcu9t5v0__dffq_2
* cell instance $291 r0 *1 2135.84,1033.2
X$291 675 53 26 51 674 gf180mcu_fd_sc_mcu9t5v0__dffq_2
* cell instance $294 m0 *1 2132.48,1053.36
X$294 675 71 26 88 674 gf180mcu_fd_sc_mcu9t5v0__dffq_2
* cell instance $306 r0 *1 2130.24,1053.36
X$306 675 27 99 674 88 gf180mcu_fd_sc_mcu9t5v0__or2_2
* cell instance $308 m0 *1 2136.4,1043.28
X$308 675 27 70 674 51 gf180mcu_fd_sc_mcu9t5v0__or2_2
* cell instance $310 m0 *1 2133.6,1013.04
X$310 675 27 28 674 48 gf180mcu_fd_sc_mcu9t5v0__or2_2
* cell instance $312 m0 *1 2146.48,1023.12
X$312 675 27 47 674 32 gf180mcu_fd_sc_mcu9t5v0__or2_2
* cell instance $314 r0 *1 2172.24,1184.4
X$314 675 27 382 674 408 gf180mcu_fd_sc_mcu9t5v0__or2_2
* cell instance $316 m0 *1 2174.48,1204.56
X$316 675 27 489 674 490 gf180mcu_fd_sc_mcu9t5v0__or2_2
* cell instance $319 m0 *1 2180.64,1214.64
X$319 675 27 519 674 511 gf180mcu_fd_sc_mcu9t5v0__or2_2
* cell instance $321 r0 *1 2181.76,1224.72
X$321 675 27 557 674 558 gf180mcu_fd_sc_mcu9t5v0__or2_2
* cell instance $323 r0 *1 2112.88,1174.32
X$323 675 27 377 674 392 gf180mcu_fd_sc_mcu9t5v0__or2_2
* cell instance $326 r0 *1 2126.88,1073.52
X$326 675 27 122 674 87 gf180mcu_fd_sc_mcu9t5v0__or2_2
* cell instance $329 r0 *1 2180.64,1073.52
X$329 675 674 75 27 gf180mcu_fd_sc_mcu9t5v0__buf_4
* cell instance $333 r0 *1 2138.64,1023.12
X$333 675 674 28 53 31 30 gf180mcu_fd_sc_mcu9t5v0__mux2_2
* cell instance $342 m0 *1 2145.92,1063.44
X$342 89 675 29 674 119 gf180mcu_fd_sc_mcu9t5v0__xor2_2
* cell instance $344 m0 *1 2138.08,1023.12
X$344 675 674 49 52 31 29 gf180mcu_fd_sc_mcu9t5v0__mux2_2
* cell instance $346 r0 *1 2146.48,1013.04
X$346 29 675 30 674 46 gf180mcu_fd_sc_mcu9t5v0__xor2_2
* cell instance $348 m0 *1 2116.8,1043.28
X$348 67 675 29 674 86 gf180mcu_fd_sc_mcu9t5v0__xor2_2
* cell instance $351 r0 *1 2145.92,1043.28
X$351 674 67 30 675 72 gf180mcu_fd_sc_mcu9t5v0__xnor2_2
* cell instance $363 r0 *1 2135.84,1053.36
X$363 675 674 99 89 31 71 gf180mcu_fd_sc_mcu9t5v0__mux2_2
* cell instance $366 r0 *1 2222.64,1073.52
X$366 675 674 143 137 31 134 gf180mcu_fd_sc_mcu9t5v0__mux2_2
* cell instance $368 r0 *1 2205.84,1063.44
X$368 675 84 31 674 gf180mcu_fd_sc_mcu9t5v0__clkbuf_8
* cell instance $371 m0 *1 2217.04,1043.28
X$371 675 674 76 78 31 80 gf180mcu_fd_sc_mcu9t5v0__mux2_2
* cell instance $373 r0 *1 2137.52,1043.28
X$373 675 674 70 71 31 53 gf180mcu_fd_sc_mcu9t5v0__mux2_2
* cell instance $376 r0 *1 2138.08,1063.44
X$376 675 674 122 107 31 108 gf180mcu_fd_sc_mcu9t5v0__mux2_2
* cell instance $379 m0 *1 2152.08,1023.12
X$379 675 674 47 67 31 34 gf180mcu_fd_sc_mcu9t5v0__mux2_2
* cell instance $407 m0 *1 2233.28,1043.28
X$407 675 674 62 60 35 79 gf180mcu_fd_sc_mcu9t5v0__mux2_2
* cell instance $409 r0 *1 2242.24,1063.44
X$409 675 674 93 92 35 112 gf180mcu_fd_sc_mcu9t5v0__mux2_2
* cell instance $411 r0 *1 2155.44,1043.28
X$411 675 674 54 73 35 52 gf180mcu_fd_sc_mcu9t5v0__mux2_2
* cell instance $414 m0 *1 2231.04,1013.04
X$414 675 674 44 39 35 40 gf180mcu_fd_sc_mcu9t5v0__mux2_2
* cell instance $418 r0 *1 2189.6,1063.44
X$418 675 674 117 112 35 110 gf180mcu_fd_sc_mcu9t5v0__mux2_2
* cell instance $420 m0 *1 2236.08,1053.36
X$420 675 674 95 79 35 92 gf180mcu_fd_sc_mcu9t5v0__mux2_2
* cell instance $423 r0 *1 2169.44,1033.2
X$423 675 674 57 56 35 58 gf180mcu_fd_sc_mcu9t5v0__mux2_2
* cell instance $425 r0 *1 2169.44,1053.36
X$425 675 84 35 674 gf180mcu_fd_sc_mcu9t5v0__clkbuf_8
* cell instance $429 m0 *1 2178.4,1154.16
X$429 675 36 298 304 322 674 gf180mcu_fd_sc_mcu9t5v0__xnor3_2
* cell instance $431 m0 *1 2178.4,1164.24
X$431 675 36 352 332 384 674 gf180mcu_fd_sc_mcu9t5v0__xnor3_2
* cell instance $437 m0 *1 2195.2,1174.32
X$437 674 37 391 675 389 gf180mcu_fd_sc_mcu9t5v0__xnor2_2
* cell instance $439 m0 *1 2195.2,1144.08
X$439 675 269 243 272 37 674 gf180mcu_fd_sc_mcu9t5v0__xnor3_2
* cell instance $448 m0 *1 2232.16,1033.2
X$448 40 675 38 674 61 gf180mcu_fd_sc_mcu9t5v0__xor2_2
* cell instance $462 m0 *1 2239.44,1013.04
X$462 675 40 42 43 674 gf180mcu_fd_sc_mcu9t5v0__dffq_2
* cell instance $467 r0 *1 2163.84,1043.28
X$467 74 675 40 674 56 gf180mcu_fd_sc_mcu9t5v0__xor2_2
* cell instance $470 r0 *1 2223.2,1093.68
X$470 675 158 220 201 41 674 gf180mcu_fd_sc_mcu9t5v0__xnor3_2
* cell instance $474 m0 *1 2228.24,1265.04
X$474 675 41 657 665 610 674 gf180mcu_fd_sc_mcu9t5v0__xnor3_2
* cell instance $481 r0 *1 2235.52,1033.2
X$481 675 79 42 63 674 gf180mcu_fd_sc_mcu9t5v0__dffq_2
* cell instance $483 m0 *1 2270.24,1083.6
X$483 675 166 42 141 674 gf180mcu_fd_sc_mcu9t5v0__dffq_2
* cell instance $485 r0 *1 2270.24,1073.52
X$485 675 140 42 142 674 gf180mcu_fd_sc_mcu9t5v0__dffq_2
* cell instance $488 m0 *1 2257.36,1083.6
X$488 675 674 42 gf180mcu_fd_sc_mcu9t5v0__clkinv_8
* cell instance $490 r0 *1 2257.36,1083.6
X$490 675 136 42 674 gf180mcu_fd_sc_mcu9t5v0__clkbuf_20
* cell instance $493 r0 *1 2233.28,1073.52
X$493 675 134 42 115 674 gf180mcu_fd_sc_mcu9t5v0__dffq_2
* cell instance $496 m0 *1 2241.12,1063.44
X$496 675 112 42 94 674 gf180mcu_fd_sc_mcu9t5v0__dffq_2
* cell instance $525 m0 *1 2102.8,1043.28
X$525 675 674 83 50 68 gf180mcu_fd_sc_mcu9t5v0__nand2_2
* cell instance $533 m0 *1 2158.24,1073.52
X$533 108 675 52 674 118 gf180mcu_fd_sc_mcu9t5v0__xor2_2
* cell instance $541 r0 *1 2146.48,1063.44
X$541 674 85 53 675 120 gf180mcu_fd_sc_mcu9t5v0__xnor2_2
* cell instance $561 m0 *1 2195.76,1053.36
X$561 675 674 81 58 84 78 gf180mcu_fd_sc_mcu9t5v0__mux2_2
* cell instance $563 r0 *1 2228.8,1043.28
X$563 674 58 60 675 222 gf180mcu_fd_sc_mcu9t5v0__xnor2_2
* cell instance $570 m0 *1 2210.88,1214.64
X$570 675 353 515 59 471 674 gf180mcu_fd_sc_mcu9t5v0__xor3_2
* cell instance $572 m0 *1 2198.56,1103.76
X$572 675 157 188 202 59 674 gf180mcu_fd_sc_mcu9t5v0__xnor3_2
* cell instance $588 r0 *1 2228.8,1254.96
X$588 675 61 643 646 640 674 gf180mcu_fd_sc_mcu9t5v0__xnor3_2
* cell instance $590 r0 *1 2233.28,1103.76
X$590 675 172 218 203 61 674 gf180mcu_fd_sc_mcu9t5v0__xnor3_2
* cell instance $620 r0 *1 2110.64,1043.28
X$620 674 67 104 675 68 gf180mcu_fd_sc_mcu9t5v0__xnor2_2
* cell instance $622 m0 *1 2154.32,1053.36
X$622 67 675 97 674 73 gf180mcu_fd_sc_mcu9t5v0__xor2_2
* cell instance $628 m0 *1 2120.16,1053.36
X$628 674 84 86 675 69 gf180mcu_fd_sc_mcu9t5v0__and2_2
* cell instance $630 r0 *1 2120.16,1043.28
X$630 674 74 69 675 100 gf180mcu_fd_sc_mcu9t5v0__xnor2_2
* cell instance $639 r0 *1 2151.52,1053.36
X$639 674 74 71 675 98 gf180mcu_fd_sc_mcu9t5v0__xnor2_2
* cell instance $645 r0 *1 2152.64,1144.08
X$645 675 297 299 320 72 674 gf180mcu_fd_sc_mcu9t5v0__xnor3_2
* cell instance $647 m0 *1 2153.76,1204.56
X$647 675 72 469 475 470 674 gf180mcu_fd_sc_mcu9t5v0__xnor3_2
* cell instance $659 r0 *1 2111.2,1053.36
X$659 675 674 84 102 74 gf180mcu_fd_sc_mcu9t5v0__nand2_2
* cell instance $672 r0 *1 2191.84,1043.28
X$672 675 75 81 674 82 gf180mcu_fd_sc_mcu9t5v0__or2_2
* cell instance $674 m0 *1 2205.84,1083.6
X$674 675 75 111 674 135 gf180mcu_fd_sc_mcu9t5v0__or2_2
* cell instance $678 r0 *1 2208.08,1194.48
X$678 675 674 75 184 gf180mcu_fd_sc_mcu9t5v0__clkbuf_4
* cell instance $680 m0 *1 2196.88,1194.48
X$680 675 674 430 75 gf180mcu_fd_sc_mcu9t5v0__clkinv_4
* cell instance $683 r0 *1 2191.28,1194.48
X$683 75 674 675 439 gf180mcu_fd_sc_mcu9t5v0__buf_3
* cell instance $685 r0 *1 2197.44,1093.68
X$685 75 674 675 214 gf180mcu_fd_sc_mcu9t5v0__buf_3
* cell instance $693 m0 *1 2204.72,1053.36
X$693 675 80 96 77 674 gf180mcu_fd_sc_mcu9t5v0__dffq_2
* cell instance $700 r0 *1 2197.44,1043.28
X$700 675 78 96 82 674 gf180mcu_fd_sc_mcu9t5v0__dffq_2
* cell instance $703 r0 *1 2219.28,1043.28
X$703 674 78 79 675 219 gf180mcu_fd_sc_mcu9t5v0__xnor2_2
* cell instance $718 m0 *1 2206.4,1073.52
X$718 675 674 111 80 84 137 gf180mcu_fd_sc_mcu9t5v0__mux2_2
* cell instance $722 r0 *1 2220.4,1063.44
X$722 674 80 92 675 113 gf180mcu_fd_sc_mcu9t5v0__xnor2_2
* cell instance $742 m0 *1 2056.32,1144.08
X$742 674 83 290 675 323 gf180mcu_fd_sc_mcu9t5v0__and2_2
* cell instance $745 r0 *1 2057.44,1083.6
X$745 674 83 173 675 148 gf180mcu_fd_sc_mcu9t5v0__and2_2
* cell instance $747 r0 *1 2108.96,1113.84
X$747 674 83 235 675 179 gf180mcu_fd_sc_mcu9t5v0__and2_2
* cell instance $749 m0 *1 2080.96,1093.68
X$749 674 83 145 675 127 gf180mcu_fd_sc_mcu9t5v0__and2_2
* cell instance $752 r0 *1 2102.8,1083.6
X$752 674 83 154 675 155 gf180mcu_fd_sc_mcu9t5v0__and2_2
* cell instance $755 m0 *1 2053.52,1083.6
X$755 675 674 124 83 gf180mcu_fd_sc_mcu9t5v0__buf_4
* cell instance $757 m0 *1 2069.2,1083.6
X$757 674 83 125 675 146 gf180mcu_fd_sc_mcu9t5v0__and2_2
* cell instance $759 r0 *1 2058.56,1214.64
X$759 674 466 83 521 675 gf180mcu_fd_sc_mcu9t5v0__and2_4
* cell instance $761 r0 *1 2116.24,1053.36
X$761 675 674 83 101 100 gf180mcu_fd_sc_mcu9t5v0__nand2_2
* cell instance $764 m0 *1 2136.4,1204.56
X$764 675 674 83 468 437 gf180mcu_fd_sc_mcu9t5v0__nand2_2
* cell instance $776 m0 *1 2044.56,1184.4
X$776 402 674 401 84 675 422 gf180mcu_fd_sc_mcu9t5v0__and3_2
* cell instance $785 m0 *1 2011.52,1144.08
X$785 675 262 84 674 gf180mcu_fd_sc_mcu9t5v0__clkbuf_8
* cell instance $789 m0 *1 2115.12,1053.36
X$789 674 84 85 675 104 gf180mcu_fd_sc_mcu9t5v0__and2_2
* cell instance $796 m0 *1 2106.72,1063.44
X$796 674 85 102 675 103 gf180mcu_fd_sc_mcu9t5v0__xnor2_2
* cell instance $800 r0 *1 2132.48,1073.52
X$800 85 675 133 674 107 gf180mcu_fd_sc_mcu9t5v0__xor2_2
* cell instance $847 r0 *1 2208.64,1083.6
X$847 675 136 96 674 gf180mcu_fd_sc_mcu9t5v0__clkbuf_20
* cell instance $850 r0 *1 2204.16,1073.52
X$850 675 137 96 135 674 gf180mcu_fd_sc_mcu9t5v0__dffq_2
* cell instance $852 m0 *1 2177.28,1134
X$852 675 243 96 288 674 gf180mcu_fd_sc_mcu9t5v0__dffq_2
* cell instance $854 r0 *1 2204.16,1083.6
X$854 675 674 96 gf180mcu_fd_sc_mcu9t5v0__inv_3
* cell instance $857 r0 *1 2170.56,1113.84
X$857 675 213 96 212 674 gf180mcu_fd_sc_mcu9t5v0__dffq_2
* cell instance $860 r0 *1 2160.48,1103.76
X$860 675 187 96 205 674 gf180mcu_fd_sc_mcu9t5v0__dffq_2
* cell instance $862 r0 *1 2195.76,1103.76
X$862 675 188 96 189 674 gf180mcu_fd_sc_mcu9t5v0__dffq_2
* cell instance $864 r0 *1 2215.36,1123.92
X$864 675 221 96 244 674 gf180mcu_fd_sc_mcu9t5v0__dffq_2
* cell instance $866 m0 *1 2214.24,1103.76
X$866 675 218 96 190 674 gf180mcu_fd_sc_mcu9t5v0__dffq_2
* cell instance $868 r0 *1 2215.92,1134
X$868 675 245 96 270 674 gf180mcu_fd_sc_mcu9t5v0__dffq_2
* cell instance $871 m0 *1 2170,1083.6
X$871 674 133 97 675 144 gf180mcu_fd_sc_mcu9t5v0__xnor2_2
* cell instance $882 m0 *1 2160.48,1113.84
X$882 675 150 183 192 98 674 gf180mcu_fd_sc_mcu9t5v0__xnor3_2
* cell instance $884 m0 *1 2168.32,1244.88
X$884 675 608 613 98 609 674 gf180mcu_fd_sc_mcu9t5v0__xor3_2
* cell instance $917 r0 *1 2125.2,1063.44
X$917 674 105 121 675 106 gf180mcu_fd_sc_mcu9t5v0__and2_2
* cell instance $919 r0 *1 2043.44,1194.48
X$919 674 105 462 675 461 gf180mcu_fd_sc_mcu9t5v0__and2_2
* cell instance $921 m0 *1 2089.36,1244.88
X$921 674 105 631 675 632 gf180mcu_fd_sc_mcu9t5v0__and2_2
* cell instance $923 r0 *1 2127.44,1083.6
X$923 674 105 132 675 131 gf180mcu_fd_sc_mcu9t5v0__and2_2
* cell instance $925 r0 *1 2122.96,1154.16
X$925 674 105 347 675 327 gf180mcu_fd_sc_mcu9t5v0__and2_2
* cell instance $927 m0 *1 2117.36,1134
X$927 674 105 267 675 266 gf180mcu_fd_sc_mcu9t5v0__and2_2
* cell instance $929 r0 *1 2042.32,1113.84
X$929 675 674 124 105 gf180mcu_fd_sc_mcu9t5v0__buf_4
* cell instance $932 m0 *1 2080.96,1224.72
X$932 674 105 560 675 509 gf180mcu_fd_sc_mcu9t5v0__and2_2
* cell instance $934 r0 *1 2073.68,1224.72
X$934 674 105 595 675 569 gf180mcu_fd_sc_mcu9t5v0__and2_2
* cell instance $936 m0 *1 2042.32,1224.72
X$936 674 105 564 675 508 gf180mcu_fd_sc_mcu9t5v0__and2_2
* cell instance $938 m0 *1 2124.08,1194.48
X$938 674 105 380 675 407 gf180mcu_fd_sc_mcu9t5v0__and2_2
* cell instance $958 r0 *1 2188.48,1073.52
X$958 674 134 110 675 160 gf180mcu_fd_sc_mcu9t5v0__xnor2_2
* cell instance $969 m0 *1 2220.4,1073.52
X$969 674 137 112 675 114 gf180mcu_fd_sc_mcu9t5v0__xnor2_2
* cell instance $983 r0 *1 2206.4,1204.56
X$983 675 113 472 518 470 674 gf180mcu_fd_sc_mcu9t5v0__xnor3_2
* cell instance $986 r0 *1 2221.52,1144.08
X$986 675 297 301 318 113 674 gf180mcu_fd_sc_mcu9t5v0__xnor3_2
* cell instance $992 m0 *1 2218.16,1184.4
X$992 675 438 419 322 114 674 gf180mcu_fd_sc_mcu9t5v0__xor3_2
* cell instance $994 r0 *1 2226.56,1174.32
X$994 675 355 416 384 114 674 gf180mcu_fd_sc_mcu9t5v0__xor3_2
* cell instance $997 m0 *1 2235.52,1073.52
X$997 674 138 143 675 115 gf180mcu_fd_sc_mcu9t5v0__and2_2
* cell instance $1009 r0 *1 2178.96,1244.88
X$1009 675 118 639 592 610 674 gf180mcu_fd_sc_mcu9t5v0__xnor3_2
* cell instance $1011 r0 *1 2179.52,1093.68
X$1011 675 118 187 162 158 674 gf180mcu_fd_sc_mcu9t5v0__xnor3_2
* cell instance $1019 m0 *1 2177.28,1103.76
X$1019 675 119 186 159 172 674 gf180mcu_fd_sc_mcu9t5v0__xnor3_2
* cell instance $1022 m0 *1 2168.32,1254.96
X$1022 675 119 638 644 640 674 gf180mcu_fd_sc_mcu9t5v0__xnor3_2
* cell instance $1027 r0 *1 2153.2,1123.92
X$1027 675 230 210 257 120 674 gf180mcu_fd_sc_mcu9t5v0__xnor3_2
* cell instance $1029 r0 *1 2161.6,1224.72
X$1029 675 533 539 120 536 674 gf180mcu_fd_sc_mcu9t5v0__xor3_2
* cell instance $1057 r0 *1 2060.24,1154.16
X$1057 124 674 675 151 gf180mcu_fd_sc_mcu9t5v0__buf_3
* cell instance $1062 m0 *1 2256.8,1184.4
X$1062 124 674 675 167 gf180mcu_fd_sc_mcu9t5v0__buf_3
* cell instance $1065 m0 *1 2247.28,1083.6
X$1065 675 674 124 138 gf180mcu_fd_sc_mcu9t5v0__clkbuf_3
* cell instance $1068 r0 *1 2252.88,1184.4
X$1068 674 124 418 675 442 gf180mcu_fd_sc_mcu9t5v0__and2_2
* cell instance $1072 m0 *1 2097.2,1194.48
X$1072 675 674 124 465 gf180mcu_fd_sc_mcu9t5v0__clkbuf_3
* cell instance $1074 m0 *1 2052.96,1194.48
X$1074 675 674 430 124 gf180mcu_fd_sc_mcu9t5v0__buf_4
* cell instance $1077 m0 *1 2072,1093.68
X$1077 675 674 125 129 130 126 gf180mcu_fd_sc_mcu9t5v0__mux2_2
* cell instance $1082 r0 *1 2071.44,1093.68
X$1082 675 674 173 126 130 177 gf180mcu_fd_sc_mcu9t5v0__mux2_2
* cell instance $1085 r0 *1 2062.48,1083.6
X$1085 675 126 147 146 674 gf180mcu_fd_sc_mcu9t5v0__dffq_2
* cell instance $1088 m0 *1 2074.24,1103.76
X$1088 126 675 206 674 150 gf180mcu_fd_sc_mcu9t5v0__xor2_2
* cell instance $1090 m0 *1 2079.28,1083.6
X$1090 675 129 147 127 674 gf180mcu_fd_sc_mcu9t5v0__dffq_2
* cell instance $1096 r0 *1 2086,1083.6
X$1096 675 674 145 128 130 129 gf180mcu_fd_sc_mcu9t5v0__mux2_2
* cell instance $1098 r0 *1 2098.32,1093.68
X$1098 674 128 153 675 158 gf180mcu_fd_sc_mcu9t5v0__xnor2_2
* cell instance $1103 r0 *1 2107.84,1093.68
X$1103 675 674 154 156 130 128 gf180mcu_fd_sc_mcu9t5v0__mux2_2
* cell instance $1112 r0 *1 2079.84,1093.68
X$1112 674 129 149 675 172 gf180mcu_fd_sc_mcu9t5v0__xnor2_2
* cell instance $1125 r0 *1 2137.52,1194.48
X$1125 675 674 437 421 130 469 gf180mcu_fd_sc_mcu9t5v0__mux2_2
* cell instance $1128 r0 *1 2069.2,1134
X$1128 675 674 290 177 130 263 gf180mcu_fd_sc_mcu9t5v0__mux2_2
* cell instance $1133 m0 *1 2102.24,1123.92
X$1133 675 674 234 240 130 208 gf180mcu_fd_sc_mcu9t5v0__mux2_2
* cell instance $1137 r0 *1 2096.64,1134
X$1137 675 674 291 265 130 240 gf180mcu_fd_sc_mcu9t5v0__mux2_2
* cell instance $1139 r0 *1 2080.4,1144.08
X$1139 675 674 264 263 130 265 gf180mcu_fd_sc_mcu9t5v0__mux2_2
* cell instance $1141 m0 *1 2119.04,1123.92
X$1141 675 674 235 241 130 156 gf180mcu_fd_sc_mcu9t5v0__mux2_2
* cell instance $1143 r0 *1 2069.2,1174.32
X$1143 675 379 130 674 gf180mcu_fd_sc_mcu9t5v0__clkbuf_8
* cell instance $1182 r0 *1 2148.16,1134
X$1182 675 289 136 674 gf180mcu_fd_sc_mcu9t5v0__clkbuf_20
* cell instance $1185 m0 *1 2072.56,1134
X$1185 675 136 238 674 gf180mcu_fd_sc_mcu9t5v0__clkbuf_20
* cell instance $1189 m0 *1 2073.68,1113.84
X$1189 675 136 147 674 gf180mcu_fd_sc_mcu9t5v0__clkbuf_20
* cell instance $1195 m0 *1 2266.32,1093.68
X$1195 675 136 164 674 gf180mcu_fd_sc_mcu9t5v0__clkbuf_20
* cell instance $1197 r0 *1 2114.56,1113.84
X$1197 675 136 180 674 gf180mcu_fd_sc_mcu9t5v0__clkbuf_20
* cell instance $1201 r0 *1 2258.48,1204.56
X$1201 675 136 476 674 gf180mcu_fd_sc_mcu9t5v0__clkbuf_20
* cell instance $1203 r0 *1 2259.04,1194.48
X$1203 675 136 305 674 gf180mcu_fd_sc_mcu9t5v0__clkbuf_20
* cell instance $1205 m0 *1 2219.28,1194.48
X$1205 675 136 328 674 gf180mcu_fd_sc_mcu9t5v0__clkbuf_20
* cell instance $1208 r0 *1 2030.56,1204.56
X$1208 675 136 374 674 gf180mcu_fd_sc_mcu9t5v0__clkbuf_20
* cell instance $1211 m0 *1 2221.52,1204.56
X$1211 675 136 488 674 gf180mcu_fd_sc_mcu9t5v0__clkbuf_20
* cell instance $1213 m0 *1 2055.76,1204.56
X$1213 675 136 348 674 gf180mcu_fd_sc_mcu9t5v0__clkbuf_20
* cell instance $1217 r0 *1 2095.52,1214.64
X$1217 675 136 528 674 gf180mcu_fd_sc_mcu9t5v0__clkbuf_20
* cell instance $1219 m0 *1 2096.08,1214.64
X$1219 675 136 405 674 gf180mcu_fd_sc_mcu9t5v0__clkbuf_20
* cell instance $1245 r0 *1 2255.12,1093.68
X$1245 674 138 161 675 170 gf180mcu_fd_sc_mcu9t5v0__and2_2
* cell instance $1249 r0 *1 2252.32,1123.92
X$1249 674 138 246 675 256 gf180mcu_fd_sc_mcu9t5v0__and2_2
* cell instance $1251 m0 *1 2276.96,1123.92
X$1251 674 138 225 675 254 gf180mcu_fd_sc_mcu9t5v0__and2_2
* cell instance $1253 m0 *1 2259.6,1164.24
X$1253 674 138 368 675 356 gf180mcu_fd_sc_mcu9t5v0__and2_2
* cell instance $1256 m0 *1 2252.88,1093.68
X$1256 674 138 171 675 142 gf180mcu_fd_sc_mcu9t5v0__and2_2
* cell instance $1258 r0 *1 2252.32,1083.6
X$1258 674 138 139 675 141 gf180mcu_fd_sc_mcu9t5v0__and2_2
* cell instance $1260 m0 *1 2251.76,1154.16
X$1260 674 138 302 675 343 gf180mcu_fd_sc_mcu9t5v0__and2_2
* cell instance $1263 m0 *1 2245.04,1154.16
X$1263 674 138 344 675 303 gf180mcu_fd_sc_mcu9t5v0__and2_2
* cell instance $1266 m0 *1 2260.72,1144.08
X$1266 674 138 271 675 319 gf180mcu_fd_sc_mcu9t5v0__and2_2
* cell instance $1269 m0 *1 2257.92,1093.68
X$1269 675 674 139 162 163 166 gf180mcu_fd_sc_mcu9t5v0__mux2_2
* cell instance $1277 r0 *1 2260.16,1093.68
X$1277 675 674 171 159 163 140 gf180mcu_fd_sc_mcu9t5v0__mux2_2
* cell instance $1280 r0 *1 2285.92,1123.92
X$1280 248 247 166 140 674 675 285 gf180mcu_fd_sc_mcu9t5v0__or4_2
* cell instance $1282 r0 *1 2296,1123.92
X$1282 248 247 166 140 675 674 334 gf180mcu_fd_sc_mcu9t5v0__and4_2
* cell instance $1284 m0 *1 2309.44,1123.92
X$1284 674 140 249 675 253 gf180mcu_fd_sc_mcu9t5v0__and2_2
* cell instance $1305 r0 *1 2187.36,1113.84
X$1305 675 157 213 226 144 674 gf180mcu_fd_sc_mcu9t5v0__xnor3_2
* cell instance $1309 m0 *1 2195.2,1214.64
X$1309 675 440 512 144 471 674 gf180mcu_fd_sc_mcu9t5v0__xor3_2
* cell instance $1327 m0 *1 2086.56,1093.68
X$1327 675 153 147 152 674 gf180mcu_fd_sc_mcu9t5v0__dffq_2
* cell instance $1330 r0 *1 2047.36,1103.76
X$1330 675 206 147 174 674 gf180mcu_fd_sc_mcu9t5v0__dffq_2
* cell instance $1332 r0 *1 2073.12,1103.76
X$1332 675 147 682 674 gf180mcu_fd_sc_mcu9t5v0__clkbuf_12
* cell instance $1334 m0 *1 2056.88,1103.76
X$1334 675 149 147 175 674 gf180mcu_fd_sc_mcu9t5v0__dffq_2
* cell instance $1337 m0 *1 2055.2,1093.68
X$1337 675 177 147 148 674 gf180mcu_fd_sc_mcu9t5v0__dffq_2
* cell instance $1341 m0 *1 2106.16,1103.76
X$1341 675 156 147 179 674 gf180mcu_fd_sc_mcu9t5v0__dffq_2
* cell instance $1344 m0 *1 2089.36,1103.76
X$1344 675 208 147 178 674 gf180mcu_fd_sc_mcu9t5v0__dffq_2
* cell instance $1350 m0 *1 2065.28,1113.84
X$1350 675 674 231 149 207 206 gf180mcu_fd_sc_mcu9t5v0__mux2_2
* cell instance $1352 r0 *1 2064.72,1103.76
X$1352 675 674 176 153 207 149 gf180mcu_fd_sc_mcu9t5v0__mux2_2
* cell instance $1364 m0 *1 2231.04,1113.84
X$1364 675 150 221 227 222 674 gf180mcu_fd_sc_mcu9t5v0__xnor3_2
* cell instance $1373 r0 *1 2056.88,1144.08
X$1373 674 151 324 675 292 gf180mcu_fd_sc_mcu9t5v0__and2_2
* cell instance $1375 m0 *1 2084.32,1103.76
X$1375 674 151 233 675 152 gf180mcu_fd_sc_mcu9t5v0__and2_2
* cell instance $1379 r0 *1 2072,1154.16
X$1379 674 151 346 675 326 gf180mcu_fd_sc_mcu9t5v0__and2_2
* cell instance $1381 r0 *1 2062.48,1113.84
X$1381 674 151 176 675 175 gf180mcu_fd_sc_mcu9t5v0__and2_2
* cell instance $1384 r0 *1 2050.72,1123.92
X$1384 674 151 261 675 236 gf180mcu_fd_sc_mcu9t5v0__and2_2
* cell instance $1386 m0 *1 2079.28,1144.08
X$1386 674 151 264 675 325 gf180mcu_fd_sc_mcu9t5v0__and2_2
* cell instance $1389 r0 *1 2085.44,1134
X$1389 674 151 291 675 239 gf180mcu_fd_sc_mcu9t5v0__and2_2
* cell instance $1391 r0 *1 2095.52,1113.84
X$1391 674 151 234 675 178 gf180mcu_fd_sc_mcu9t5v0__and2_2
* cell instance $1394 m0 *1 2054.08,1113.84
X$1394 674 151 231 675 174 gf180mcu_fd_sc_mcu9t5v0__and2_2
* cell instance $1396 m0 *1 2087.12,1174.32
X$1396 674 151 394 675 393 gf180mcu_fd_sc_mcu9t5v0__and2_2
* cell instance $1412 r0 *1 2080.96,1113.84
X$1412 675 674 233 208 207 153 gf180mcu_fd_sc_mcu9t5v0__mux2_2
* cell instance $1426 m0 *1 2122.96,1103.76
X$1426 156 675 208 674 157 gf180mcu_fd_sc_mcu9t5v0__xor2_2
* cell instance $1448 r0 *1 2186.8,1174.32
X$1448 675 269 383 390 160 674 gf180mcu_fd_sc_mcu9t5v0__xnor3_2
* cell instance $1450 r0 *1 2193.52,1184.4
X$1450 674 160 409 675 417 gf180mcu_fd_sc_mcu9t5v0__xnor2_2
* cell instance $1453 m0 *1 2260.16,1103.76
X$1453 675 674 161 192 163 165 gf180mcu_fd_sc_mcu9t5v0__mux2_2
* cell instance $1471 r0 *1 2279.2,1113.84
X$1471 675 674 225 226 163 247 gf180mcu_fd_sc_mcu9t5v0__mux2_2
* cell instance $1474 m0 *1 2275.28,1103.76
X$1474 675 674 200 202 163 168 gf180mcu_fd_sc_mcu9t5v0__mux2_2
* cell instance $1476 r0 *1 2262.96,1134
X$1476 675 674 271 272 163 273 gf180mcu_fd_sc_mcu9t5v0__mux2_2
* cell instance $1480 m0 *1 2251.76,1144.08