* CDL Netlist generated by OpenROAD

*.BUSDELIMITER [

.SUBCKT true_random_generator clk data_valid enable entropy_low
+ random_data[0] random_data[10] random_data[11] random_data[12]
+ random_data[13] random_data[14] random_data[15] random_data[16]
+ random_data[17] random_data[18] random_data[19] random_data[1]
+ random_data[20] random_data[21] random_data[22] random_data[23]
+ random_data[24] random_data[25] random_data[26] random_data[27]
+ random_data[28] random_data[29] random_data[2] random_data[30]
+ random_data[31] random_data[3] random_data[4] random_data[5]
+ random_data[6] random_data[7] random_data[8] random_data[9]
+ read_next rst_n test_failed
X_440_ state\[0\] _141_ VDD VSS gf180mcu_fd_sc_mcu9t5v0__clkinv_2
X_441_ _141_ state\[1\] _142_ VDD VSS gf180mcu_fd_sc_mcu9t5v0__and2_2
X_442_ _142_ _143_ VDD VSS gf180mcu_fd_sc_mcu9t5v0__buf_4
X_443_ _143_ _144_ VDD VSS gf180mcu_fd_sc_mcu9t5v0__clkbuf_3
X_444_ mixed_output\[1\] _144_ net16 VDD VSS gf180mcu_fd_sc_mcu9t5v0__and2_2
X_445_ mixed_output\[0\] _144_ net5 VDD VSS gf180mcu_fd_sc_mcu9t5v0__and2_2
X_446_ mixed_output\[3\] _144_ net30 VDD VSS gf180mcu_fd_sc_mcu9t5v0__and2_2
X_447_ mixed_output\[2\] _144_ net27 VDD VSS gf180mcu_fd_sc_mcu9t5v0__and2_2
X_448_ mixed_output\[5\] _144_ net32 VDD VSS gf180mcu_fd_sc_mcu9t5v0__and2_2
X_449_ mixed_output\[4\] _144_ net31 VDD VSS gf180mcu_fd_sc_mcu9t5v0__and2_2
X_450_ mixed_output\[7\] _144_ net34 VDD VSS gf180mcu_fd_sc_mcu9t5v0__and2_2
X_451_ mixed_output\[6\] _144_ net33 VDD VSS gf180mcu_fd_sc_mcu9t5v0__and2_2
X_452_ mixed_output\[9\] _144_ net36 VDD VSS gf180mcu_fd_sc_mcu9t5v0__and2_2
X_453_ _143_ _145_ VDD VSS gf180mcu_fd_sc_mcu9t5v0__clkbuf_3
X_454_ mixed_output\[8\] _145_ net35 VDD VSS gf180mcu_fd_sc_mcu9t5v0__and2_2
X_455_ mixed_output\[11\] _145_ net7 VDD VSS gf180mcu_fd_sc_mcu9t5v0__and2_2
X_456_ mixed_output\[10\] _145_ net6 VDD VSS gf180mcu_fd_sc_mcu9t5v0__and2_2
X_457_ mixed_output\[13\] _145_ net9 VDD VSS gf180mcu_fd_sc_mcu9t5v0__and2_2
X_458_ mixed_output\[12\] _145_ net8 VDD VSS gf180mcu_fd_sc_mcu9t5v0__and2_2
X_459_ mixed_output\[15\] _145_ net11 VDD VSS gf180mcu_fd_sc_mcu9t5v0__and2_2
X_460_ mixed_output\[14\] _145_ net10 VDD VSS gf180mcu_fd_sc_mcu9t5v0__and2_2
X_461_ mixed_output\[17\] _145_ net13 VDD VSS gf180mcu_fd_sc_mcu9t5v0__and2_2
X_462_ mixed_output\[16\] _145_ net12 VDD VSS gf180mcu_fd_sc_mcu9t5v0__and2_2
X_463_ mixed_output\[19\] _145_ net15 VDD VSS gf180mcu_fd_sc_mcu9t5v0__and2_2
X_464_ _143_ _146_ VDD VSS gf180mcu_fd_sc_mcu9t5v0__clkbuf_3
X_465_ mixed_output\[18\] _146_ net14 VDD VSS gf180mcu_fd_sc_mcu9t5v0__and2_2
X_466_ mixed_output\[21\] _146_ net18 VDD VSS gf180mcu_fd_sc_mcu9t5v0__and2_2
X_467_ mixed_output\[20\] _146_ net17 VDD VSS gf180mcu_fd_sc_mcu9t5v0__and2_2
X_468_ mixed_output\[23\] _146_ net20 VDD VSS gf180mcu_fd_sc_mcu9t5v0__and2_2
X_469_ mixed_output\[22\] _146_ net19 VDD VSS gf180mcu_fd_sc_mcu9t5v0__and2_2
X_470_ mixed_output\[25\] _146_ net22 VDD VSS gf180mcu_fd_sc_mcu9t5v0__and2_2
X_471_ mixed_output\[24\] _146_ net21 VDD VSS gf180mcu_fd_sc_mcu9t5v0__and2_2
X_472_ mixed_output\[27\] _146_ net24 VDD VSS gf180mcu_fd_sc_mcu9t5v0__and2_2
X_473_ mixed_output\[26\] _146_ net23 VDD VSS gf180mcu_fd_sc_mcu9t5v0__and2_2
X_474_ mixed_output\[29\] _146_ net26 VDD VSS gf180mcu_fd_sc_mcu9t5v0__and2_2
X_475_ mixed_output\[28\] _143_ net25 VDD VSS gf180mcu_fd_sc_mcu9t5v0__and2_2
X_476_ mixed_output\[31\] _143_ net29 VDD VSS gf180mcu_fd_sc_mcu9t5v0__and2_2
X_477_ mixed_output\[30\] _143_ net28 VDD VSS gf180mcu_fd_sc_mcu9t5v0__and2_2
X_478_ net2 _147_ VDD VSS gf180mcu_fd_sc_mcu9t5v0__clkinv_4
X_479_ _147_ _000_ VDD VSS gf180mcu_fd_sc_mcu9t5v0__clkbuf_4
X_480_ health_counter\[0\] _434_ VDD VSS gf180mcu_fd_sc_mcu9t5v0__clkinv_2
X_481_ health_counter\[1\] _435_ VDD VSS gf180mcu_fd_sc_mcu9t5v0__clkinv_2
X_482_ gen_ring_osc.init_osc gen_ring_osc.inv_chain\[1\] gen_ring_osc.inv_chain\[1\]
+ VDD VSS gf180mcu_fd_sc_mcu9t5v0__or2_2
X_483_ net2 _148_ VDD VSS gf180mcu_fd_sc_mcu9t5v0__buf_4
X_484_ _148_ _149_ VDD VSS gf180mcu_fd_sc_mcu9t5v0__buf_4
X_485_ _149_ _143_ _001_ VDD VSS gf180mcu_fd_sc_mcu9t5v0__and2_4
X_486_ state\[1\] _150_ VDD VSS gf180mcu_fd_sc_mcu9t5v0__inv_4
X_487_ enable _151_ VDD VSS gf180mcu_fd_sc_mcu9t5v0__clkbuf_8
X_488_ state\[0\] _150_ _151_ _152_ VDD VSS gf180mcu_fd_sc_mcu9t5v0__and3_2
X_489_ _152_ _153_ VDD VSS gf180mcu_fd_sc_mcu9t5v0__buf_8
X_490_ _153_ _154_ VDD VSS gf180mcu_fd_sc_mcu9t5v0__clkbuf_8
X_491_ entropy_pool2\[0\] entropy_pool2\[1\] _154_ _155_ VDD
+ VSS gf180mcu_fd_sc_mcu9t5v0__mux2_2
X_492_ _000_ _155_ _002_ VDD VSS gf180mcu_fd_sc_mcu9t5v0__or2_2
X_493_ entropy_pool2\[10\] entropy_pool2\[11\] _154_ _156_
+ VDD VSS gf180mcu_fd_sc_mcu9t5v0__mux2_2
X_494_ _000_ _156_ _003_ VDD VSS gf180mcu_fd_sc_mcu9t5v0__or2_2
X_495_ entropy_pool2\[11\] entropy_pool2\[12\] _154_ _157_
+ VDD VSS gf180mcu_fd_sc_mcu9t5v0__mux2_2
X_496_ _000_ _157_ _004_ VDD VSS gf180mcu_fd_sc_mcu9t5v0__or2_2
X_497_ entropy_pool2\[12\] entropy_pool2\[13\] _154_ _158_
+ VDD VSS gf180mcu_fd_sc_mcu9t5v0__mux2_2
X_498_ _000_ _158_ _005_ VDD VSS gf180mcu_fd_sc_mcu9t5v0__or2_2
X_499_ entropy_pool2\[13\] entropy_pool2\[14\] _154_ _159_
+ VDD VSS gf180mcu_fd_sc_mcu9t5v0__mux2_2
X_500_ _000_ _159_ _006_ VDD VSS gf180mcu_fd_sc_mcu9t5v0__or2_2
X_501_ entropy_pool2\[14\] entropy_pool2\[15\] _154_ _160_
+ VDD VSS gf180mcu_fd_sc_mcu9t5v0__mux2_2
X_502_ _000_ _160_ _007_ VDD VSS gf180mcu_fd_sc_mcu9t5v0__or2_2
X_503_ entropy_pool2\[15\] entropy_pool2\[16\] _154_ _161_
+ VDD VSS gf180mcu_fd_sc_mcu9t5v0__mux2_2
X_504_ _000_ _161_ _008_ VDD VSS gf180mcu_fd_sc_mcu9t5v0__or2_2
X_505_ _147_ _162_ VDD VSS gf180mcu_fd_sc_mcu9t5v0__buf_3
X_506_ entropy_pool2\[16\] entropy_pool2\[17\] _154_ _163_
+ VDD VSS gf180mcu_fd_sc_mcu9t5v0__mux2_2
X_507_ _162_ _163_ _009_ VDD VSS gf180mcu_fd_sc_mcu9t5v0__or2_2
X_508_ _153_ _164_ VDD VSS gf180mcu_fd_sc_mcu9t5v0__clkbuf_8
X_509_ entropy_pool2\[17\] entropy_pool2\[18\] _164_ _165_
+ VDD VSS gf180mcu_fd_sc_mcu9t5v0__mux2_2
X_510_ _162_ _165_ _010_ VDD VSS gf180mcu_fd_sc_mcu9t5v0__or2_2
X_511_ entropy_pool2\[18\] entropy_pool2\[19\] _164_ _166_
+ VDD VSS gf180mcu_fd_sc_mcu9t5v0__mux2_2
X_512_ _162_ _166_ _011_ VDD VSS gf180mcu_fd_sc_mcu9t5v0__or2_2
X_513_ entropy_pool2\[19\] entropy_pool2\[20\] _164_ _167_
+ VDD VSS gf180mcu_fd_sc_mcu9t5v0__mux2_2
X_514_ _162_ _167_ _012_ VDD VSS gf180mcu_fd_sc_mcu9t5v0__or2_2
X_515_ entropy_pool2\[1\] entropy_pool2\[2\] _164_ _168_ VDD
+ VSS gf180mcu_fd_sc_mcu9t5v0__mux2_2
X_516_ _162_ _168_ _013_ VDD VSS gf180mcu_fd_sc_mcu9t5v0__or2_2
X_517_ entropy_pool2\[20\] entropy_pool2\[21\] _164_ _169_
+ VDD VSS gf180mcu_fd_sc_mcu9t5v0__mux2_2
X_518_ _162_ _169_ _014_ VDD VSS gf180mcu_fd_sc_mcu9t5v0__or2_2
X_519_ entropy_pool2\[21\] entropy_pool2\[22\] _164_ _170_
+ VDD VSS gf180mcu_fd_sc_mcu9t5v0__mux2_2
X_520_ _162_ _170_ _015_ VDD VSS gf180mcu_fd_sc_mcu9t5v0__or2_2
X_521_ entropy_pool2\[22\] entropy_pool2\[23\] _164_ _171_
+ VDD VSS gf180mcu_fd_sc_mcu9t5v0__mux2_2
X_522_ _162_ _171_ _016_ VDD VSS gf180mcu_fd_sc_mcu9t5v0__or2_2
X_523_ entropy_pool2\[23\] entropy_pool2\[24\] _164_ _172_
+ VDD VSS gf180mcu_fd_sc_mcu9t5v0__mux2_2
X_524_ _162_ _172_ _017_ VDD VSS gf180mcu_fd_sc_mcu9t5v0__or2_2
X_525_ entropy_pool2\[24\] entropy_pool2\[25\] _164_ _173_
+ VDD VSS gf180mcu_fd_sc_mcu9t5v0__mux2_2
X_526_ _162_ _173_ _018_ VDD VSS gf180mcu_fd_sc_mcu9t5v0__or2_2
X_527_ _147_ _174_ VDD VSS gf180mcu_fd_sc_mcu9t5v0__buf_3
X_528_ entropy_pool2\[25\] entropy_pool2\[26\] _164_ _175_
+ VDD VSS gf180mcu_fd_sc_mcu9t5v0__mux2_2
X_529_ _174_ _175_ _019_ VDD VSS gf180mcu_fd_sc_mcu9t5v0__or2_2
X_530_ _153_ _176_ VDD VSS gf180mcu_fd_sc_mcu9t5v0__clkbuf_8
X_531_ entropy_pool2\[26\] entropy_pool2\[27\] _176_ _177_
+ VDD VSS gf180mcu_fd_sc_mcu9t5v0__mux2_2
X_532_ _174_ _177_ _020_ VDD VSS gf180mcu_fd_sc_mcu9t5v0__or2_2
X_533_ entropy_pool2\[27\] entropy_pool2\[28\] _176_ _178_
+ VDD VSS gf180mcu_fd_sc_mcu9t5v0__mux2_2
X_534_ _174_ _178_ _021_ VDD VSS gf180mcu_fd_sc_mcu9t5v0__or2_2
X_535_ entropy_pool2\[28\] entropy_pool2\[29\] _176_ _179_
+ VDD VSS gf180mcu_fd_sc_mcu9t5v0__mux2_2
X_536_ _174_ _179_ _022_ VDD VSS gf180mcu_fd_sc_mcu9t5v0__or2_2
X_537_ entropy_pool2\[29\] entropy_pool2\[30\] _176_ _180_
+ VDD VSS gf180mcu_fd_sc_mcu9t5v0__mux2_2
X_538_ _174_ _180_ _023_ VDD VSS gf180mcu_fd_sc_mcu9t5v0__or2_2
X_539_ entropy_pool2\[2\] entropy_pool2\[3\] _176_ _181_ VDD
+ VSS gf180mcu_fd_sc_mcu9t5v0__mux2_2
X_540_ _174_ _181_ _024_ VDD VSS gf180mcu_fd_sc_mcu9t5v0__or2_2
X_541_ entropy_pool2\[30\] entropy_pool2\[31\] _176_ _182_
+ VDD VSS gf180mcu_fd_sc_mcu9t5v0__mux2_2
X_542_ _174_ _182_ _025_ VDD VSS gf180mcu_fd_sc_mcu9t5v0__or2_2
X_543_ entropy_pool2\[31\] _183_ VDD VSS gf180mcu_fd_sc_mcu9t5v0__clkinv_2
X_544_ entropy_pool2\[0\] gen_ring_osc.toggle_sampling _184_
+ VDD VSS gf180mcu_fd_sc_mcu9t5v0__xnor2_2
X_545_ _153_ _185_ VDD VSS gf180mcu_fd_sc_mcu9t5v0__clkbuf_8
X_546_ _183_ _184_ _185_ _186_ VDD VSS gf180mcu_fd_sc_mcu9t5v0__mux2_2
X_547_ _149_ _186_ _026_ VDD VSS gf180mcu_fd_sc_mcu9t5v0__nand2_2
X_548_ entropy_pool2\[3\] entropy_pool2\[4\] _176_ _187_ VDD
+ VSS gf180mcu_fd_sc_mcu9t5v0__mux2_2
X_549_ _174_ _187_ _027_ VDD VSS gf180mcu_fd_sc_mcu9t5v0__or2_2
X_550_ entropy_pool2\[4\] entropy_pool2\[5\] _176_ _188_ VDD
+ VSS gf180mcu_fd_sc_mcu9t5v0__mux2_2
X_551_ _174_ _188_ _028_ VDD VSS gf180mcu_fd_sc_mcu9t5v0__or2_2
X_552_ entropy_pool2\[5\] entropy_pool2\[6\] _176_ _189_ VDD
+ VSS gf180mcu_fd_sc_mcu9t5v0__mux2_2
X_553_ _174_ _189_ _029_ VDD VSS gf180mcu_fd_sc_mcu9t5v0__or2_2
X_554_ _147_ _190_ VDD VSS gf180mcu_fd_sc_mcu9t5v0__buf_4
X_555_ entropy_pool2\[6\] entropy_pool2\[7\] _176_ _191_ VDD
+ VSS gf180mcu_fd_sc_mcu9t5v0__mux2_2
X_556_ _190_ _191_ _030_ VDD VSS gf180mcu_fd_sc_mcu9t5v0__or2_2
X_557_ entropy_pool2\[7\] entropy_pool2\[8\] _153_ _192_ VDD
+ VSS gf180mcu_fd_sc_mcu9t5v0__mux2_2
X_558_ _190_ _192_ _031_ VDD VSS gf180mcu_fd_sc_mcu9t5v0__or2_2
X_559_ entropy_pool2\[8\] entropy_pool2\[9\] _153_ _193_ VDD
+ VSS gf180mcu_fd_sc_mcu9t5v0__mux2_2
X_560_ _190_ _193_ _032_ VDD VSS gf180mcu_fd_sc_mcu9t5v0__or2_2
X_561_ entropy_pool2\[9\] entropy_pool2\[10\] _153_ _194_
+ VDD VSS gf180mcu_fd_sc_mcu9t5v0__mux2_2
X_562_ _190_ _194_ _033_ VDD VSS gf180mcu_fd_sc_mcu9t5v0__or2_2
X_563_ entropy_pool\[31\] gen_ring_osc.toggle_sampling _195_
+ VDD VSS gf180mcu_fd_sc_mcu9t5v0__xor2_2
X_564_ entropy_pool\[0\] _195_ _153_ _196_ VDD VSS gf180mcu_fd_sc_mcu9t5v0__mux2_2
X_565_ _190_ _196_ _034_ VDD VSS gf180mcu_fd_sc_mcu9t5v0__or2_2
X_566_ entropy_pool\[10\] entropy_pool\[9\] _185_ _197_ VDD
+ VSS gf180mcu_fd_sc_mcu9t5v0__mux2_2
X_567_ _149_ _197_ _035_ VDD VSS gf180mcu_fd_sc_mcu9t5v0__and2_2
X_568_ entropy_pool\[11\] entropy_pool\[10\] _185_ _198_ VDD
+ VSS gf180mcu_fd_sc_mcu9t5v0__mux2_2
X_569_ _149_ _198_ _036_ VDD VSS gf180mcu_fd_sc_mcu9t5v0__and2_2
X_570_ entropy_pool\[12\] entropy_pool\[11\] _185_ _199_ VDD
+ VSS gf180mcu_fd_sc_mcu9t5v0__mux2_2
X_571_ _149_ _199_ _037_ VDD VSS gf180mcu_fd_sc_mcu9t5v0__and2_2
X_572_ entropy_pool\[13\] entropy_pool\[12\] _185_ _200_ VDD
+ VSS gf180mcu_fd_sc_mcu9t5v0__mux2_2
X_573_ _149_ _200_ _038_ VDD VSS gf180mcu_fd_sc_mcu9t5v0__and2_2
X_574_ entropy_pool\[14\] entropy_pool\[13\] _185_ _201_ VDD
+ VSS gf180mcu_fd_sc_mcu9t5v0__mux2_2
X_575_ _149_ _201_ _039_ VDD VSS gf180mcu_fd_sc_mcu9t5v0__and2_2
X_576_ entropy_pool\[15\] entropy_pool\[14\] _185_ _202_ VDD
+ VSS gf180mcu_fd_sc_mcu9t5v0__mux2_2
X_577_ _149_ _202_ _040_ VDD VSS gf180mcu_fd_sc_mcu9t5v0__and2_2
X_578_ _148_ _203_ VDD VSS gf180mcu_fd_sc_mcu9t5v0__buf_3
X_579_ entropy_pool\[16\] entropy_pool\[15\] _185_ _204_ VDD
+ VSS gf180mcu_fd_sc_mcu9t5v0__mux2_2
X_580_ _203_ _204_ _041_ VDD VSS gf180mcu_fd_sc_mcu9t5v0__and2_2
X_581_ entropy_pool\[17\] entropy_pool\[16\] _185_ _205_ VDD
+ VSS gf180mcu_fd_sc_mcu9t5v0__mux2_2
X_582_ _203_ _205_ _042_ VDD VSS gf180mcu_fd_sc_mcu9t5v0__and2_2
X_583_ entropy_pool\[18\] entropy_pool\[17\] _185_ _206_ VDD
+ VSS gf180mcu_fd_sc_mcu9t5v0__mux2_2
X_584_ _203_ _206_ _043_ VDD VSS gf180mcu_fd_sc_mcu9t5v0__and2_2
X_585_ _153_ _207_ VDD VSS gf180mcu_fd_sc_mcu9t5v0__clkbuf_8
X_586_ entropy_pool\[19\] entropy_pool\[18\] _207_ _208_ VDD
+ VSS gf180mcu_fd_sc_mcu9t5v0__mux2_2
X_587_ _203_ _208_ _044_ VDD VSS gf180mcu_fd_sc_mcu9t5v0__and2_2
X_588_ entropy_pool\[1\] entropy_pool\[0\] _207_ _209_ VDD
+ VSS gf180mcu_fd_sc_mcu9t5v0__mux2_2
X_589_ _203_ _209_ _045_ VDD VSS gf180mcu_fd_sc_mcu9t5v0__and2_2
X_590_ entropy_pool\[20\] entropy_pool\[19\] _207_ _210_ VDD
+ VSS gf180mcu_fd_sc_mcu9t5v0__mux2_2
X_591_ _203_ _210_ _046_ VDD VSS gf180mcu_fd_sc_mcu9t5v0__and2_2
X_592_ entropy_pool\[21\] entropy_pool\[20\] _207_ _211_ VDD
+ VSS gf180mcu_fd_sc_mcu9t5v0__mux2_2
X_593_ _203_ _211_ _047_ VDD VSS gf180mcu_fd_sc_mcu9t5v0__and2_2
X_594_ entropy_pool\[22\] entropy_pool\[21\] _207_ _212_ VDD
+ VSS gf180mcu_fd_sc_mcu9t5v0__mux2_2
X_595_ _203_ _212_ _048_ VDD VSS gf180mcu_fd_sc_mcu9t5v0__and2_2
X_596_ entropy_pool\[23\] entropy_pool\[22\] _207_ _213_ VDD
+ VSS gf180mcu_fd_sc_mcu9t5v0__mux2_2
X_597_ _203_ _213_ _049_ VDD VSS gf180mcu_fd_sc_mcu9t5v0__and2_2
X_598_ entropy_pool\[24\] entropy_pool\[23\] _207_ _214_ VDD
+ VSS gf180mcu_fd_sc_mcu9t5v0__mux2_2
X_599_ _203_ _214_ _050_ VDD VSS gf180mcu_fd_sc_mcu9t5v0__and2_2
X_600_ _148_ _215_ VDD VSS gf180mcu_fd_sc_mcu9t5v0__clkbuf_3
X_601_ entropy_pool\[25\] entropy_pool\[24\] _207_ _216_ VDD
+ VSS gf180mcu_fd_sc_mcu9t5v0__mux2_2
X_602_ _215_ _216_ _051_ VDD VSS gf180mcu_fd_sc_mcu9t5v0__and2_2
X_603_ entropy_pool\[26\] entropy_pool\[25\] _207_ _217_ VDD
+ VSS gf180mcu_fd_sc_mcu9t5v0__mux2_2
X_604_ _215_ _217_ _052_ VDD VSS gf180mcu_fd_sc_mcu9t5v0__and2_2
X_605_ entropy_pool\[27\] entropy_pool\[26\] _207_ _218_ VDD
+ VSS gf180mcu_fd_sc_mcu9t5v0__mux2_2
X_606_ _215_ _218_ _053_ VDD VSS gf180mcu_fd_sc_mcu9t5v0__and2_2
X_607_ _153_ _219_ VDD VSS gf180mcu_fd_sc_mcu9t5v0__clkbuf_8
X_608_ entropy_pool\[28\] entropy_pool\[27\] _219_ _220_ VDD
+ VSS gf180mcu_fd_sc_mcu9t5v0__mux2_2
X_609_ _215_ _220_ _054_ VDD VSS gf180mcu_fd_sc_mcu9t5v0__and2_2
X_610_ entropy_pool\[29\] entropy_pool\[28\] _219_ _221_ VDD
+ VSS gf180mcu_fd_sc_mcu9t5v0__mux2_2
X_611_ _215_ _221_ _055_ VDD VSS gf180mcu_fd_sc_mcu9t5v0__and2_2
X_612_ entropy_pool\[2\] entropy_pool\[1\] _219_ _222_ VDD
+ VSS gf180mcu_fd_sc_mcu9t5v0__mux2_2
X_613_ _215_ _222_ _056_ VDD VSS gf180mcu_fd_sc_mcu9t5v0__and2_2
X_614_ entropy_pool\[30\] entropy_pool\[29\] _219_ _223_ VDD
+ VSS gf180mcu_fd_sc_mcu9t5v0__mux2_2
X_615_ _215_ _223_ _057_ VDD VSS gf180mcu_fd_sc_mcu9t5v0__and2_2
X_616_ entropy_pool\[31\] entropy_pool\[30\] _219_ _224_ VDD
+ VSS gf180mcu_fd_sc_mcu9t5v0__mux2_2
X_617_ _215_ _224_ _058_ VDD VSS gf180mcu_fd_sc_mcu9t5v0__and2_2
X_618_ entropy_pool\[3\] entropy_pool\[2\] _219_ _225_ VDD
+ VSS gf180mcu_fd_sc_mcu9t5v0__mux2_2
X_619_ _215_ _225_ _059_ VDD VSS gf180mcu_fd_sc_mcu9t5v0__and2_2
X_620_ entropy_pool\[4\] entropy_pool\[3\] _219_ _226_ VDD
+ VSS gf180mcu_fd_sc_mcu9t5v0__mux2_2
X_621_ _215_ _226_ _060_ VDD VSS gf180mcu_fd_sc_mcu9t5v0__and2_2
X_622_ _148_ _227_ VDD VSS gf180mcu_fd_sc_mcu9t5v0__buf_4
X_623_ entropy_pool\[5\] entropy_pool\[4\] _219_ _228_ VDD
+ VSS gf180mcu_fd_sc_mcu9t5v0__mux2_2
X_624_ _227_ _228_ _061_ VDD VSS gf180mcu_fd_sc_mcu9t5v0__and2_2
X_625_ entropy_pool\[6\] entropy_pool\[5\] _219_ _229_ VDD
+ VSS gf180mcu_fd_sc_mcu9t5v0__mux2_2
X_626_ _227_ _229_ _062_ VDD VSS gf180mcu_fd_sc_mcu9t5v0__and2_2
X_627_ entropy_pool\[7\] entropy_pool\[6\] _219_ _230_ VDD
+ VSS gf180mcu_fd_sc_mcu9t5v0__mux2_2
X_628_ _227_ _230_ _063_ VDD VSS gf180mcu_fd_sc_mcu9t5v0__and2_2
X_629_ entropy_pool\[8\] entropy_pool\[7\] _154_ _231_ VDD
+ VSS gf180mcu_fd_sc_mcu9t5v0__mux2_2
X_630_ _227_ _231_ _064_ VDD VSS gf180mcu_fd_sc_mcu9t5v0__and2_2
X_631_ entropy_pool\[9\] entropy_pool\[8\] _154_ _232_ VDD
+ VSS gf180mcu_fd_sc_mcu9t5v0__mux2_2
X_632_ _227_ _232_ _065_ VDD VSS gf180mcu_fd_sc_mcu9t5v0__and2_2
X_633_ _151_ _233_ VDD VSS gf180mcu_fd_sc_mcu9t5v0__clkbuf_8
X_634_ gen_ring_osc.toggle_sampling gen_ring_osc.inv_chain\[1\]
+ _233_ _234_ VDD VSS gf180mcu_fd_sc_mcu9t5v0__mux2_2
X_635_ _227_ _234_ _066_ VDD VSS gf180mcu_fd_sc_mcu9t5v0__and2_2
X_636_ state\[0\] _150_ _235_ VDD VSS gf180mcu_fd_sc_mcu9t5v0__and2_2
X_637_ state\[1\] _235_ _434_ _236_ VDD VSS gf180mcu_fd_sc_mcu9t5v0__mux2_2
X_638_ _227_ _236_ _067_ VDD VSS gf180mcu_fd_sc_mcu9t5v0__and2_2
X_639_ state\[0\] _437_ _237_ VDD VSS gf180mcu_fd_sc_mcu9t5v0__and2_2
X_640_ health_counter\[1\] _237_ _150_ _238_ VDD VSS gf180mcu_fd_sc_mcu9t5v0__mux2_2
X_641_ _227_ _238_ _068_ VDD VSS gf180mcu_fd_sc_mcu9t5v0__and2_2
X_642_ state\[0\] state\[1\] net2 _239_ VDD VSS gf180mcu_fd_sc_mcu9t5v0__oai21_4
X_643_ _239_ _240_ VDD VSS gf180mcu_fd_sc_mcu9t5v0__clkinv_2
X_644_ _150_ _438_ _241_ VDD VSS gf180mcu_fd_sc_mcu9t5v0__nand2_2
X_645_ health_counter\[2\] _241_ _242_ VDD VSS gf180mcu_fd_sc_mcu9t5v0__xnor2_2
X_646_ _240_ _242_ _069_ VDD VSS gf180mcu_fd_sc_mcu9t5v0__and2_2
X_647_ _150_ health_counter\[2\] health_counter\[0\] health_counter\[1\]
+ _243_ VDD VSS gf180mcu_fd_sc_mcu9t5v0__and4_2
X_648_ health_counter\[3\] _243_ _244_ VDD VSS gf180mcu_fd_sc_mcu9t5v0__xor2_2
X_649_ _240_ _244_ _070_ VDD VSS gf180mcu_fd_sc_mcu9t5v0__and2_2
X_650_ _150_ health_counter\[3\] health_counter\[2\] _438_
+ _245_ VDD VSS gf180mcu_fd_sc_mcu9t5v0__and4_2
X_651_ health_counter\[4\] _245_ _246_ VDD VSS gf180mcu_fd_sc_mcu9t5v0__xor2_2
X_652_ _240_ _246_ _071_ VDD VSS gf180mcu_fd_sc_mcu9t5v0__and2_2
X_653_ health_counter\[0\] health_counter\[1\] _247_ VDD VSS
+ gf180mcu_fd_sc_mcu9t5v0__nand2_2
X_654_ _150_ health_counter\[4\] health_counter\[3\] health_counter\[2\]
+ _248_ VDD VSS gf180mcu_fd_sc_mcu9t5v0__nand4_4
X_655_ _247_ _248_ health_counter\[5\] _249_ VDD VSS gf180mcu_fd_sc_mcu9t5v0__oai21_2
X_656_ health_counter\[5\] _247_ _248_ _250_ VDD VSS gf180mcu_fd_sc_mcu9t5v0__or3_2
X_657_ _249_ _250_ _239_ _072_ VDD VSS gf180mcu_fd_sc_mcu9t5v0__aoi21_2
X_658_ health_counter\[5\] _438_ _251_ VDD VSS gf180mcu_fd_sc_mcu9t5v0__nand2_2
X_659_ _248_ _251_ health_counter\[6\] _252_ VDD VSS gf180mcu_fd_sc_mcu9t5v0__oai21_2
X_660_ health_counter\[6\] _248_ _251_ _253_ VDD VSS gf180mcu_fd_sc_mcu9t5v0__or3_2
X_661_ _252_ _253_ _239_ _073_ VDD VSS gf180mcu_fd_sc_mcu9t5v0__aoi21_2
X_662_ health_counter\[7\] _239_ _254_ VDD VSS gf180mcu_fd_sc_mcu9t5v0__nor2_2
X_663_ health_counter\[7\] _240_ _255_ VDD VSS gf180mcu_fd_sc_mcu9t5v0__and2_2
X_664_ health_counter\[6\] health_counter\[5\] _256_ VDD VSS
+ gf180mcu_fd_sc_mcu9t5v0__nand2_2
X_665_ _247_ _248_ _256_ _257_ VDD VSS gf180mcu_fd_sc_mcu9t5v0__or3_2
X_666_ _254_ _255_ _257_ _074_ VDD VSS gf180mcu_fd_sc_mcu9t5v0__mux2_2
X_667_ _151_ _258_ VDD VSS gf180mcu_fd_sc_mcu9t5v0__clkbuf_8
X_668_ lfsr_reg\[0\] lfsr_reg\[31\] _258_ _259_ VDD VSS gf180mcu_fd_sc_mcu9t5v0__mux2_2
X_669_ _190_ _259_ _075_ VDD VSS gf180mcu_fd_sc_mcu9t5v0__or2_2
X_670_ lfsr_reg\[10\] lfsr_reg\[9\] _233_ _260_ VDD VSS gf180mcu_fd_sc_mcu9t5v0__mux2_2
X_671_ _227_ _260_ _076_ VDD VSS gf180mcu_fd_sc_mcu9t5v0__and2_2
X_672_ lfsr_reg\[30\] lfsr_reg\[10\] _261_ VDD VSS gf180mcu_fd_sc_mcu9t5v0__xor2_2
X_673_ lfsr_reg\[11\] _261_ _258_ _262_ VDD VSS gf180mcu_fd_sc_mcu9t5v0__mux2_2
X_674_ _190_ _262_ _077_ VDD VSS gf180mcu_fd_sc_mcu9t5v0__or2_2
X_675_ lfsr_reg\[12\] lfsr_reg\[11\] _233_ _263_ VDD VSS gf180mcu_fd_sc_mcu9t5v0__mux2_2
X_676_ _227_ _263_ _078_ VDD VSS gf180mcu_fd_sc_mcu9t5v0__and2_2
X_677_ lfsr_reg\[13\] lfsr_reg\[12\] _258_ _264_ VDD VSS gf180mcu_fd_sc_mcu9t5v0__mux2_2
X_678_ _190_ _264_ _079_ VDD VSS gf180mcu_fd_sc_mcu9t5v0__or2_2
X_679_ lfsr_reg\[14\] lfsr_reg\[13\] _258_ _265_ VDD VSS gf180mcu_fd_sc_mcu9t5v0__mux2_2
X_680_ _190_ _265_ _080_ VDD VSS gf180mcu_fd_sc_mcu9t5v0__or2_2
X_681_ lfsr_reg\[15\] lfsr_reg\[14\] _258_ _266_ VDD VSS gf180mcu_fd_sc_mcu9t5v0__mux2_2
X_682_ _190_ _266_ _081_ VDD VSS gf180mcu_fd_sc_mcu9t5v0__or2_2
X_683_ _147_ _267_ VDD VSS gf180mcu_fd_sc_mcu9t5v0__clkbuf_4
X_684_ lfsr_reg\[28\] lfsr_reg\[15\] _268_ VDD VSS gf180mcu_fd_sc_mcu9t5v0__xor2_2
X_685_ _151_ _269_ VDD VSS gf180mcu_fd_sc_mcu9t5v0__clkbuf_8
X_686_ lfsr_reg\[16\] _268_ _269_ _270_ VDD VSS gf180mcu_fd_sc_mcu9t5v0__mux2_2
X_687_ _267_ _270_ _082_ VDD VSS gf180mcu_fd_sc_mcu9t5v0__or2_2
X_688_ _148_ _271_ VDD VSS gf180mcu_fd_sc_mcu9t5v0__clkbuf_4
X_689_ lfsr_reg\[17\] lfsr_reg\[16\] _233_ _272_ VDD VSS gf180mcu_fd_sc_mcu9t5v0__mux2_2
X_690_ _271_ _272_ _083_ VDD VSS gf180mcu_fd_sc_mcu9t5v0__and2_2
X_691_ lfsr_reg\[18\] lfsr_reg\[17\] _269_ _273_ VDD VSS gf180mcu_fd_sc_mcu9t5v0__mux2_2
X_692_ _267_ _273_ _084_ VDD VSS gf180mcu_fd_sc_mcu9t5v0__or2_2
X_693_ lfsr_reg\[19\] lfsr_reg\[18\] _269_ _274_ VDD VSS gf180mcu_fd_sc_mcu9t5v0__mux2_2
X_694_ _267_ _274_ _085_ VDD VSS gf180mcu_fd_sc_mcu9t5v0__or2_2
X_695_ lfsr_reg\[1\] lfsr_reg\[0\] _233_ _275_ VDD VSS gf180mcu_fd_sc_mcu9t5v0__mux2_2
X_696_ _271_ _275_ _086_ VDD VSS gf180mcu_fd_sc_mcu9t5v0__and2_2
X_697_ lfsr_reg\[20\] lfsr_reg\[19\] _233_ _276_ VDD VSS gf180mcu_fd_sc_mcu9t5v0__mux2_2
X_698_ _271_ _276_ _087_ VDD VSS gf180mcu_fd_sc_mcu9t5v0__and2_2
X_699_ lfsr_reg\[21\] lfsr_reg\[20\] _233_ _277_ VDD VSS gf180mcu_fd_sc_mcu9t5v0__mux2_2
X_700_ _271_ _277_ _088_ VDD VSS gf180mcu_fd_sc_mcu9t5v0__and2_2
X_701_ lfsr_reg\[22\] lfsr_reg\[21\] _269_ _278_ VDD VSS gf180mcu_fd_sc_mcu9t5v0__mux2_2
X_702_ _267_ _278_ _089_ VDD VSS gf180mcu_fd_sc_mcu9t5v0__or2_2
X_703_ lfsr_reg\[23\] lfsr_reg\[22\] _269_ _279_ VDD VSS gf180mcu_fd_sc_mcu9t5v0__mux2_2
X_704_ _267_ _279_ _090_ VDD VSS gf180mcu_fd_sc_mcu9t5v0__or2_2
X_705_ lfsr_reg\[24\] lfsr_reg\[23\] _269_ _280_ VDD VSS gf180mcu_fd_sc_mcu9t5v0__mux2_2
X_706_ _267_ _280_ _091_ VDD VSS gf180mcu_fd_sc_mcu9t5v0__or2_2
X_707_ lfsr_reg\[25\] lfsr_reg\[24\] _269_ _281_ VDD VSS gf180mcu_fd_sc_mcu9t5v0__mux2_2
X_708_ _267_ _281_ _092_ VDD VSS gf180mcu_fd_sc_mcu9t5v0__or2_2
X_709_ lfsr_reg\[26\] lfsr_reg\[25\] _233_ _282_ VDD VSS gf180mcu_fd_sc_mcu9t5v0__mux2_2
X_710_ _271_ _282_ _093_ VDD VSS gf180mcu_fd_sc_mcu9t5v0__and2_2
X_711_ lfsr_reg\[31\] lfsr_reg\[26\] _283_ VDD VSS gf180mcu_fd_sc_mcu9t5v0__xor2_2
X_712_ lfsr_reg\[27\] _283_ _269_ _284_ VDD VSS gf180mcu_fd_sc_mcu9t5v0__mux2_2
X_713_ _267_ _284_ _094_ VDD VSS gf180mcu_fd_sc_mcu9t5v0__or2_2
X_714_ lfsr_reg\[28\] lfsr_reg\[27\] _258_ _285_ VDD VSS gf180mcu_fd_sc_mcu9t5v0__mux2_2
X_715_ _271_ _285_ _095_ VDD VSS gf180mcu_fd_sc_mcu9t5v0__and2_2
X_716_ lfsr_reg\[31\] lfsr_reg\[28\] _286_ VDD VSS gf180mcu_fd_sc_mcu9t5v0__xor2_2
X_717_ _151_ _286_ _287_ VDD VSS gf180mcu_fd_sc_mcu9t5v0__and2_2
X_718_ lfsr_reg\[29\] _287_ _288_ VDD VSS gf180mcu_fd_sc_mcu9t5v0__xnor2_2
X_719_ _149_ _288_ _096_ VDD VSS gf180mcu_fd_sc_mcu9t5v0__nand2_2
X_720_ lfsr_reg\[2\] lfsr_reg\[1\] _258_ _289_ VDD VSS gf180mcu_fd_sc_mcu9t5v0__mux2_2
X_721_ _271_ _289_ _097_ VDD VSS gf180mcu_fd_sc_mcu9t5v0__and2_2
X_722_ _151_ lfsr_reg\[29\] _290_ VDD VSS gf180mcu_fd_sc_mcu9t5v0__nand2_2
X_723_ lfsr_reg\[30\] _290_ _291_ VDD VSS gf180mcu_fd_sc_mcu9t5v0__xnor2_2
X_724_ _271_ _291_ _098_ VDD VSS gf180mcu_fd_sc_mcu9t5v0__and2_2
X_725_ _151_ lfsr_reg\[30\] _292_ VDD VSS gf180mcu_fd_sc_mcu9t5v0__and2_2
X_726_ lfsr_reg\[31\] _292_ _293_ VDD VSS gf180mcu_fd_sc_mcu9t5v0__xnor2_2
X_727_ _149_ _293_ _099_ VDD VSS gf180mcu_fd_sc_mcu9t5v0__nand2_2
X_728_ lfsr_reg\[3\] lfsr_reg\[2\] _258_ _294_ VDD VSS gf180mcu_fd_sc_mcu9t5v0__mux2_2
X_729_ _271_ _294_ _100_ VDD VSS gf180mcu_fd_sc_mcu9t5v0__and2_2
X_730_ lfsr_reg\[4\] lfsr_reg\[3\] _269_ _295_ VDD VSS gf180mcu_fd_sc_mcu9t5v0__mux2_2
X_731_ _267_ _295_ _101_ VDD VSS gf180mcu_fd_sc_mcu9t5v0__or2_2
X_732_ lfsr_reg\[29\] lfsr_reg\[4\] _296_ VDD VSS gf180mcu_fd_sc_mcu9t5v0__xor2_2
X_733_ lfsr_reg\[5\] _296_ _269_ _297_ VDD VSS gf180mcu_fd_sc_mcu9t5v0__mux2_2
X_734_ _267_ _297_ _102_ VDD VSS gf180mcu_fd_sc_mcu9t5v0__or2_2
X_735_ lfsr_reg\[6\] lfsr_reg\[5\] _151_ _298_ VDD VSS gf180mcu_fd_sc_mcu9t5v0__mux2_2
X_736_ _147_ _298_ _103_ VDD VSS gf180mcu_fd_sc_mcu9t5v0__or2_2
X_737_ lfsr_reg\[7\] lfsr_reg\[6\] _258_ _299_ VDD VSS gf180mcu_fd_sc_mcu9t5v0__mux2_2
X_738_ _271_ _299_ _104_ VDD VSS gf180mcu_fd_sc_mcu9t5v0__and2_2
X_739_ lfsr_reg\[8\] lfsr_reg\[7\] _151_ _300_ VDD VSS gf180mcu_fd_sc_mcu9t5v0__mux2_2
X_740_ _147_ _300_ _105_ VDD VSS gf180mcu_fd_sc_mcu9t5v0__or2_2
X_741_ _148_ _301_ VDD VSS gf180mcu_fd_sc_mcu9t5v0__clkbuf_3
X_742_ lfsr_reg\[9\] lfsr_reg\[8\] _258_ _302_ VDD VSS gf180mcu_fd_sc_mcu9t5v0__mux2_2
X_743_ _301_ _302_ _106_ VDD VSS gf180mcu_fd_sc_mcu9t5v0__and2_2
X_744_ lfsr_reg\[0\] lfsr_reg\[16\] _303_ VDD VSS gf180mcu_fd_sc_mcu9t5v0__xor2_2
X_745_ entropy_pool\[0\] entropy_pool\[24\] _304_ VDD VSS
+ gf180mcu_fd_sc_mcu9t5v0__xnor2_2
X_746_ entropy_pool2\[0\] _303_ _304_ _305_ VDD VSS gf180mcu_fd_sc_mcu9t5v0__xnor3_2
X_747_ _142_ _306_ VDD VSS gf180mcu_fd_sc_mcu9t5v0__buf_4
X_748_ mixed_output\[0\] _305_ _306_ _307_ VDD VSS gf180mcu_fd_sc_mcu9t5v0__mux2_2
X_749_ _301_ _307_ _107_ VDD VSS gf180mcu_fd_sc_mcu9t5v0__and2_2
X_750_ entropy_pool\[10\] entropy_pool\[18\] _308_ VDD VSS
+ gf180mcu_fd_sc_mcu9t5v0__xor2_2
X_751_ lfsr_reg\[10\] lfsr_reg\[26\] _309_ VDD VSS gf180mcu_fd_sc_mcu9t5v0__xnor2_2
X_752_ entropy_pool2\[10\] _308_ _309_ _310_ VDD VSS gf180mcu_fd_sc_mcu9t5v0__xnor3_2
X_753_ mixed_output\[10\] _310_ _306_ _311_ VDD VSS gf180mcu_fd_sc_mcu9t5v0__mux2_2
X_754_ _301_ _311_ _108_ VDD VSS gf180mcu_fd_sc_mcu9t5v0__and2_2
X_755_ lfsr_reg\[11\] lfsr_reg\[27\] _312_ VDD VSS gf180mcu_fd_sc_mcu9t5v0__xor2_2
X_756_ entropy_pool\[11\] entropy_pool\[19\] _313_ VDD VSS
+ gf180mcu_fd_sc_mcu9t5v0__xnor2_2
X_757_ entropy_pool2\[11\] _312_ _313_ _314_ VDD VSS gf180mcu_fd_sc_mcu9t5v0__xnor3_2
X_758_ mixed_output\[11\] _314_ _306_ _315_ VDD VSS gf180mcu_fd_sc_mcu9t5v0__mux2_2
X_759_ _301_ _315_ _109_ VDD VSS gf180mcu_fd_sc_mcu9t5v0__and2_2
X_760_ lfsr_reg\[12\] lfsr_reg\[28\] _316_ VDD VSS gf180mcu_fd_sc_mcu9t5v0__xor2_2
X_761_ entropy_pool\[12\] entropy_pool\[20\] _317_ VDD VSS
+ gf180mcu_fd_sc_mcu9t5v0__xnor2_2
X_762_ entropy_pool2\[12\] _316_ _317_ _318_ VDD VSS gf180mcu_fd_sc_mcu9t5v0__xnor3_2
X_763_ mixed_output\[12\] _318_ _306_ _319_ VDD VSS gf180mcu_fd_sc_mcu9t5v0__mux2_2
X_764_ _301_ _319_ _110_ VDD VSS gf180mcu_fd_sc_mcu9t5v0__and2_2
X_765_ entropy_pool\[13\] entropy_pool\[21\] _320_ VDD VSS
+ gf180mcu_fd_sc_mcu9t5v0__xor2_2
X_766_ lfsr_reg\[29\] lfsr_reg\[13\] _321_ VDD VSS gf180mcu_fd_sc_mcu9t5v0__xnor2_2
X_767_ entropy_pool2\[13\] _320_ _321_ _322_ VDD VSS gf180mcu_fd_sc_mcu9t5v0__xnor3_2
X_768_ mixed_output\[13\] _322_ _306_ _323_ VDD VSS gf180mcu_fd_sc_mcu9t5v0__mux2_2
X_769_ _301_ _323_ _111_ VDD VSS gf180mcu_fd_sc_mcu9t5v0__and2_2
X_770_ entropy_pool\[14\] entropy_pool\[22\] _324_ VDD VSS
+ gf180mcu_fd_sc_mcu9t5v0__xor2_2
X_771_ lfsr_reg\[30\] lfsr_reg\[14\] _325_ VDD VSS gf180mcu_fd_sc_mcu9t5v0__xnor2_2
X_772_ entropy_pool2\[14\] _324_ _325_ _326_ VDD VSS gf180mcu_fd_sc_mcu9t5v0__xnor3_2
X_773_ mixed_output\[14\] _326_ _306_ _327_ VDD VSS gf180mcu_fd_sc_mcu9t5v0__mux2_2
X_774_ _301_ _327_ _112_ VDD VSS gf180mcu_fd_sc_mcu9t5v0__and2_2
X_775_ entropy_pool\[15\] entropy_pool\[23\] _328_ VDD VSS
+ gf180mcu_fd_sc_mcu9t5v0__xor2_2
X_776_ lfsr_reg\[31\] lfsr_reg\[15\] _329_ VDD VSS gf180mcu_fd_sc_mcu9t5v0__xnor2_2
X_777_ entropy_pool2\[15\] _328_ _329_ _330_ VDD VSS gf180mcu_fd_sc_mcu9t5v0__xnor3_2
X_778_ mixed_output\[15\] _330_ _306_ _331_ VDD VSS gf180mcu_fd_sc_mcu9t5v0__mux2_2
X_779_ _301_ _331_ _113_ VDD VSS gf180mcu_fd_sc_mcu9t5v0__and2_2
X_780_ entropy_pool\[8\] entropy_pool\[16\] _332_ VDD VSS
+ gf180mcu_fd_sc_mcu9t5v0__xnor2_2
X_781_ entropy_pool2\[16\] _303_ _332_ _333_ VDD VSS gf180mcu_fd_sc_mcu9t5v0__xnor3_2
X_782_ mixed_output\[16\] _333_ _306_ _334_ VDD VSS gf180mcu_fd_sc_mcu9t5v0__mux2_2
X_783_ _301_ _334_ _114_ VDD VSS gf180mcu_fd_sc_mcu9t5v0__and2_2
X_784_ entropy_pool\[9\] entropy_pool\[17\] _335_ VDD VSS
+ gf180mcu_fd_sc_mcu9t5v0__xor2_2
X_785_ lfsr_reg\[1\] lfsr_reg\[17\] _336_ VDD VSS gf180mcu_fd_sc_mcu9t5v0__xnor2_2
X_786_ entropy_pool2\[17\] _335_ _336_ _337_ VDD VSS gf180mcu_fd_sc_mcu9t5v0__xnor3_2
X_787_ mixed_output\[17\] _337_ _306_ _338_ VDD VSS gf180mcu_fd_sc_mcu9t5v0__mux2_2
X_788_ _301_ _338_ _115_ VDD VSS gf180mcu_fd_sc_mcu9t5v0__and2_2
X_789_ _148_ _339_ VDD VSS gf180mcu_fd_sc_mcu9t5v0__buf_3
X_790_ lfsr_reg\[2\] lfsr_reg\[18\] _340_ VDD VSS gf180mcu_fd_sc_mcu9t5v0__xnor2_2
X_791_ entropy_pool2\[18\] _308_ _340_ _341_ VDD VSS gf180mcu_fd_sc_mcu9t5v0__xnor3_2
X_792_ mixed_output\[18\] _341_ _306_ _342_ VDD VSS gf180mcu_fd_sc_mcu9t5v0__mux2_2
X_793_ _339_ _342_ _116_ VDD VSS gf180mcu_fd_sc_mcu9t5v0__and2_2
X_794_ lfsr_reg\[3\] lfsr_reg\[19\] _343_ VDD VSS gf180mcu_fd_sc_mcu9t5v0__xor2_2
X_795_ entropy_pool2\[19\] _313_ _343_ _344_ VDD VSS gf180mcu_fd_sc_mcu9t5v0__xnor3_2
X_796_ _142_ _345_ VDD VSS gf180mcu_fd_sc_mcu9t5v0__buf_4
X_797_ mixed_output\[19\] _344_ _345_ _346_ VDD VSS gf180mcu_fd_sc_mcu9t5v0__mux2_2
X_798_ _339_ _346_ _117_ VDD VSS gf180mcu_fd_sc_mcu9t5v0__and2_2
X_799_ entropy_pool2\[1\] entropy_pool\[1\] entropy_pool\[25\]
+ _347_ VDD VSS gf180mcu_fd_sc_mcu9t5v0__xor3_2
X_800_ _336_ _347_ _348_ VDD VSS gf180mcu_fd_sc_mcu9t5v0__xnor2_2
X_801_ mixed_output\[1\] _348_ _345_ _349_ VDD VSS gf180mcu_fd_sc_mcu9t5v0__mux2_2
X_802_ _339_ _349_ _118_ VDD VSS gf180mcu_fd_sc_mcu9t5v0__and2_2
X_803_ lfsr_reg\[4\] lfsr_reg\[20\] _350_ VDD VSS gf180mcu_fd_sc_mcu9t5v0__xor2_2
X_804_ entropy_pool2\[20\] _317_ _350_ _351_ VDD VSS gf180mcu_fd_sc_mcu9t5v0__xnor3_2
X_805_ mixed_output\[20\] _351_ _345_ _352_ VDD VSS gf180mcu_fd_sc_mcu9t5v0__mux2_2
X_806_ _339_ _352_ _119_ VDD VSS gf180mcu_fd_sc_mcu9t5v0__and2_2
X_807_ lfsr_reg\[5\] lfsr_reg\[21\] _353_ VDD VSS gf180mcu_fd_sc_mcu9t5v0__xnor2_2
X_808_ entropy_pool2\[21\] _320_ _353_ _354_ VDD VSS gf180mcu_fd_sc_mcu9t5v0__xnor3_2
X_809_ mixed_output\[21\] _354_ _345_ _355_ VDD VSS gf180mcu_fd_sc_mcu9t5v0__mux2_2
X_810_ _339_ _355_ _120_ VDD VSS gf180mcu_fd_sc_mcu9t5v0__and2_2
X_811_ lfsr_reg\[6\] lfsr_reg\[22\] _356_ VDD VSS gf180mcu_fd_sc_mcu9t5v0__xnor2_2
X_812_ entropy_pool2\[22\] _324_ _356_ _357_ VDD VSS gf180mcu_fd_sc_mcu9t5v0__xnor3_2
X_813_ mixed_output\[22\] _357_ _345_ _358_ VDD VSS gf180mcu_fd_sc_mcu9t5v0__mux2_2
X_814_ _339_ _358_ _121_ VDD VSS gf180mcu_fd_sc_mcu9t5v0__and2_2