
* cell sync_fifo
* pin wr_data[4]
* pin wr_data[5]
* pin wr_data[7]
* pin rd_data[7]
* pin rd_data[4]
* pin rd_data[6]
* pin PWELL
* pin NWELL
* pin wr_data[6]
* pin wr_data[3]
* pin rd_data[5]
* pin clk
* pin rd_data[3]
* pin rd_data[1]
* pin rd_data[2]
* pin rd_data[0]
* pin wr_data[2]
* pin wr_data[0]
* pin wr_data[1]
* pin empty
* pin rd_en
* pin rd_count[4]
* pin wr_count[4]
* pin almost_empty
* pin wr_count[3]
* pin rd_count[3]
* pin rd_count[1]
* pin almost_full
* pin wr_count[1]
* pin rd_count[2]
* pin wr_count[2]
* pin wr_count[0]
* pin rd_count[0]
* pin wr_en
* pin full
* pin rst_n
.SUBCKT sync_fifo 1 2 3 4 5 6 8 9 33 228 271 328 354 371 372 388 432 515 546
+ 555 556 557 558 575 577 591 612 613 614 615 637 638 639 642 649 650
* net 1 wr_data[4]
* net 2 wr_data[5]
* net 3 wr_data[7]
* net 4 rd_data[7]
* net 5 rd_data[4]
* net 6 rd_data[6]
* net 8 PWELL
* net 9 NWELL
* net 33 wr_data[6]
* net 228 wr_data[3]
* net 271 rd_data[5]
* net 328 clk
* net 354 rd_data[3]
* net 371 rd_data[1]
* net 372 rd_data[2]
* net 388 rd_data[0]
* net 432 wr_data[2]
* net 515 wr_data[0]
* net 546 wr_data[1]
* net 555 empty
* net 556 rd_en
* net 557 rd_count[4]
* net 558 wr_count[4]
* net 575 almost_empty
* net 577 wr_count[3]
* net 591 rd_count[3]
* net 612 rd_count[1]
* net 613 almost_full
* net 614 wr_count[1]
* net 615 rd_count[2]
* net 637 wr_count[2]
* net 638 wr_count[0]
* net 639 rd_count[0]
* net 642 wr_en
* net 649 full
* net 650 rst_n
* cell instance $6 m0 *1 319.2,217
X$6 1 8 9 32 BUF_X2
* cell instance $11 r0 *1 328.89,214.2
X$11 2 8 9 13 BUF_X2
* cell instance $18 r0 *1 318.44,214.2
X$18 3 8 9 14 BUF_X2
* cell instance $20 r0 *1 275.69,1.4
X$20 11 8 9 4 BUF_X1
* cell instance $29 r0 *1 275.12,1.4
X$29 7 8 9 5 BUF_X1
* cell instance $32 m0 *1 286.14,4.2
X$32 10 8 9 6 BUF_X1
* cell instance $41 m0 *1 360.43,217
X$41 17 20 9 7 8 AND2_X4
* cell instance $365 m0 *1 247.76,502.6
X$365 643 8 9 649 BUF_X1
* cell instance $572 r0 *1 320.53,236.6
X$572 8 754 140 164 12 9 DFF_X1
* cell instance $577 m0 *1 334.02,236.6
X$577 142 8 9 12 CLKBUF_X3
* cell instance $578 m0 *1 334.97,236.6
X$578 12 8 9 797 INV_X2
* cell instance $583 m0 *1 340.48,236.6
X$583 142 8 9 25 CLKBUF_X3
* cell instance $584 m0 *1 341.43,236.6
X$584 25 8 9 798 INV_X2
* cell instance $590 r0 *1 347.7,236.6
X$590 35 8 9 85 BUF_X2
* cell instance $605 r0 *1 372.4,236.6
X$605 147 88 96 8 9 148 MUX2_X1
* cell instance $606 r0 *1 373.73,236.6
X$606 8 771 147 148 38 9 DFF_X1
* cell instance $804 r0 *1 328.51,281.4
X$804 8 794 518 529 435 9 DFF_X1
* cell instance $808 r0 *1 332.69,281.4
X$808 499 8 9 469 BUF_X2
* cell instance $810 r0 *1 334.97,281.4
X$810 8 779 521 520 435 9 DFF_X1
* cell instance $815 r0 *1 339.53,281.4
X$815 523 369 530 8 9 516 MUX2_X1
* cell instance $818 r0 *1 341.81,281.4
X$818 8 525 503 524 502 77 9 NAND4_X4
* cell instance $820 r0 *1 345.23,281.4
X$820 8 525 503 524 537 73 9 NAND4_X4
* cell instance $827 r0 *1 361.19,281.4
X$827 8 88 9 526 BUF_X8
* cell instance $833 r0 *1 368.03,281.4
X$833 539 359 540 8 9 507 MUX2_X1
* cell instance $840 m0 *1 374.87,281.4
X$840 508 8 9 369 CLKBUF_X3
* cell instance $845 r0 *1 380,281.4
X$845 453 510 8 9 511 NOR2_X1
* cell instance $846 m0 *1 380.38,281.4
X$846 511 513 512 8 9 527 MUX2_X1
* cell instance $847 r0 *1 380.57,281.4
X$847 510 464 9 8 512 AND2_X1
* cell instance $848 r0 *1 381.33,281.4
X$848 8 748 510 527 447 9 DFF_X1
* cell instance $1041 m0 *1 315.78,250.6
X$1041 228 8 9 263 CLKBUF_X2
* cell instance $1050 m0 *1 335.35,250.6
X$1050 174 9 166 8 BUF_X4
* cell instance $1051 m0 *1 336.68,250.6
X$1051 174 9 59 8 BUF_X4
* cell instance $1070 r0 *1 372.02,250.6
X$1070 273 118 267 8 9 274 MUX2_X1
* cell instance $1072 r0 *1 373.35,250.6
X$1072 8 785 270 269 184 9 DFF_X1
* cell instance $1074 m0 *1 373.54,250.6
X$1074 8 692 273 274 184 9 DFF_X1
* cell instance $6921 m0 *1 323.76,267.4
X$6921 8 662 382 403 356 9 DFF_X1
* cell instance $6925 m0 *1 340.1,267.4
X$6925 8 677 420 394 349 9 DFF_X1
* cell instance $6928 r0 *1 324.33,267.4
X$6928 333 170 406 8 9 433 MUX2_X1
* cell instance $6931 r0 *1 327.37,267.4
X$6931 407 108 408 8 9 417 MUX2_X1
* cell instance $6932 r0 *1 328.7,267.4
X$6932 8 795 408 417 356 9 DFF_X1
* cell instance $6935 r0 *1 333.64,267.4
X$6935 427 166 408 8 9 419 MUX2_X1
* cell instance $6937 r0 *1 335.35,267.4
X$6937 386 214 409 8 9 418 MUX2_X1
* cell instance $6939 r0 *1 336.87,267.4
X$6939 8 793 409 418 356 9 DFF_X1
* cell instance $6941 r0 *1 340.48,267.4
X$6941 407 196 420 8 9 394 MUX2_X1
* cell instance $6944 r0 *1 342.38,267.4
X$6944 409 298 420 8 9 422 MUX2_X1
* cell instance $6945 r0 *1 343.71,267.4
X$6945 422 111 8 9 425 NOR2_X1
* cell instance $6946 m0 *1 345.04,267.4
X$6946 8 716 405 395 349 9 DFF_X1
* cell instance $6947 m0 *1 343.71,267.4
X$6947 386 187 405 8 9 395 MUX2_X1
* cell instance $6950 r0 *1 345.04,267.4
X$6950 437 423 141 425 439 154 8 9 421 OAI33_X1
* cell instance $6953 r0 *1 346.94,267.4
X$6953 405 298 410 8 9 411 MUX2_X1
* cell instance $6956 m0 *1 348.65,267.4
X$6956 383 223 8 154 9 OR2_X4
* cell instance $6960 r0 *1 350.17,267.4
X$6960 407 132 396 8 9 426 MUX2_X1
* cell instance $6961 r0 *1 351.5,267.4
X$6961 8 787 396 426 349 9 DFF_X1
* cell instance $6963 m0 *1 354.54,267.4
X$6963 8 710 397 393 281 9 DFF_X1
* cell instance $6965 m0 *1 361,267.4
X$6965 404 384 392 8 9 399 MUX2_X1
* cell instance $6971 r0 *1 361.19,267.4
X$6971 424 398 399 8 9 400 MUX2_X1
* cell instance $6972 r0 *1 362.52,267.4
X$6972 421 383 400 8 402 9 AOI21_X1
* cell instance $6974 m0 *1 364.42,267.4
X$6974 142 8 9 281 CLKBUF_X3
* cell instance $6976 m0 *1 365.37,267.4
X$6976 281 8 9 799 INV_X2
* cell instance $6979 m0 *1 369.74,267.4
X$6979 385 359 387 8 9 404 MUX2_X1
* cell instance $6980 m0 *1 371.07,267.4
X$6980 142 8 9 318 CLKBUF_X3
* cell instance $6981 m0 *1 372.02,267.4
X$6981 318 8 9 800 INV_X2
* cell instance $6984 m0 *1 380.19,267.4
X$6984 339 401 8 9 415 NOR2_X1
* cell instance $7010 r0 *1 364.8,267.4
X$7010 430 133 386 8 9 431 MUX2_X1
* cell instance $7012 r0 *1 366.51,267.4
X$7012 412 118 386 8 9 413 MUX2_X1
* cell instance $7018 r0 *1 378.29,267.4
X$7018 339 402 9 8 416 AND2_X1
* cell instance $7021 r0 *1 380.19,267.4
X$7021 416 415 453 8 9 414 NOR3_X1
* cell instance $7022 r0 *1 380.95,267.4
X$7022 8 722 401 414 318 9 DFF_X1
* cell instance $7189 m0 *1 323.95,261.8
X$7189 8 683 344 341 356 9 DFF_X1
* cell instance $7191 m0 *1 327.18,261.8
X$7191 344 166 332 8 9 345 MUX2_X1
* cell instance $7193 m0 *1 331.55,261.8
X$7193 301 77 357 8 9 358 MUX2_X1
* cell instance $7195 m0 *1 333.64,261.8
X$7195 333 108 360 8 9 379 MUX2_X1
* cell instance $7197 m0 *1 335.16,261.8
X$7197 357 59 360 8 9 362 MUX2_X1
* cell instance $7202 r0 *1 329.08,261.8
X$7202 345 130 377 8 9 346 MUX2_X1
* cell instance $7204 r0 *1 330.79,261.8
X$7204 8 768 357 358 356 9 DFF_X1
* cell instance $7205 r0 *1 334.02,261.8
X$7205 8 774 360 379 356 9 DFF_X1
* cell instance $7208 m0 *1 337.63,261.8
X$7208 362 111 364 8 9 347 MUX2_X1
* cell instance $7211 r0 *1 338.01,261.8
X$7211 154 346 347 141 9 8 350 OAI22_X2
* cell instance $7214 m0 *1 344.85,261.8
X$7214 8 718 366 334 349 9 DFF_X1
* cell instance $7215 m0 *1 341.62,261.8
X$7215 8 672 348 365 349 9 DFF_X1
* cell instance $7218 m0 *1 349.03,261.8
X$7218 8 682 336 335 349 9 DFF_X1
* cell instance $7225 r0 *1 342.57,261.8
X$7225 348 298 366 8 9 364 MUX2_X1
* cell instance $7228 r0 *1 348.46,261.8
X$7228 333 54 367 8 9 380 MUX2_X1
* cell instance $7229 r0 *1 349.79,261.8
X$7229 8 735 367 380 349 9 DFF_X1
* cell instance $7232 r0 *1 356.44,261.8
X$7232 367 223 351 8 9 363 MUX2_X1
* cell instance $7233 r0 *1 357.77,261.8
X$7233 8 742 351 361 281 9 DFF_X1
* cell instance $7235 m0 *1 357.96,261.8
X$7235 301 64 351 8 9 361 MUX2_X1
* cell instance $7238 m0 *1 364.61,261.8
X$7238 352 133 301 8 9 368 MUX2_X1
* cell instance $7239 m0 *1 365.94,261.8
X$7239 353 118 301 8 9 342 MUX2_X1
* cell instance $7244 r0 *1 361.57,261.8
X$7244 381 350 8 9 378 NOR2_X1
* cell instance $7247 r0 *1 365.37,261.8
X$7247 8 737 352 368 281 9 DFF_X1
* cell instance $7249 m0 *1 368.41,261.8
X$7249 352 81 353 8 9 315 MUX2_X1
* cell instance $7270 r0 *1 371.64,261.8
X$7270 369 9 130 8 BUF_X4
* cell instance $7272 r0 *1 373.16,261.8
X$7272 359 9 223 8 BUF_X4
* cell instance $7276 r0 *1 378.67,261.8
X$7276 37 376 9 8 370 AND2_X1
* cell instance $7304 m0 *1 496.09,261.8
X$7304 355 8 9 354 BUF_X1
* cell instance $7308 r0 *1 499.51,261.8
X$7308 374 8 9 372 BUF_X1
* cell instance $7460 m0 *1 342.38,259
X$7460 174 9 298 8 BUF_X4
* cell instance $7481 r0 *1 321.86,259
X$7481 333 196 332 8 9 340 MUX2_X1
* cell instance $7483 r0 *1 323.38,259
X$7483 8 769 332 340 356 9 DFF_X1
* cell instance $7484 r0 *1 326.61,259
X$7484 301 214 344 8 9 341 MUX2_X1
* cell instance $7492 r0 *1 342,259
X$7492 301 73 348 8 9 365 MUX2_X1
* cell instance $7496 r0 *1 344.66,259
X$7496 333 22 366 8 9 334 MUX2_X1
* cell instance $7500 r0 *1 348.46,259
X$7500 333 132 336 8 9 335 MUX2_X1
* cell instance $7504 r0 *1 352.26,259
X$7504 8 738 310 329 349 9 DFF_X1
* cell instance $7506 m0 *1 354.73,259
X$7506 301 114 310 8 9 329 MUX2_X1
* cell instance $7509 r0 *1 355.49,259
X$7509 336 223 310 8 9 311 MUX2_X1
* cell instance $7510 r0 *1 356.82,259
X$7510 311 111 363 8 9 343 MUX2_X1
* cell instance $7516 r0 *1 361.19,259
X$7516 330 137 343 146 9 8 381 OAI22_X1
* cell instance $7520 r0 *1 364.8,259
X$7520 359 9 86 8 BUF_X4
* cell instance $7521 r0 *1 366.13,259
X$7521 8 749 353 342 281 9 DFF_X1
* cell instance $7523 m0 *1 368.6,259
X$7523 314 83 315 8 9 330 MUX2_X1
* cell instance $7526 r0 *1 369.36,259
X$7526 83 9 111 8 BUF_X4
* cell instance $7527 r0 *1 370.69,259
X$7527 8 760 316 326 318 9 DFF_X1
* cell instance $7528 m0 *1 373.92,259
X$7528 8 699 322 321 318 9 DFF_X1
* cell instance $7529 m0 *1 372.59,259
X$7529 316 49 267 8 9 326 MUX2_X1
* cell instance $7532 m0 *1 379.43,259
X$7532 319 339 304 8 9 317 MUX2_X1
* cell instance $7533 m0 *1 380.76,259
X$7533 37 317 9 8 320 AND2_X1
* cell instance $7534 m0 *1 381.52,259
X$7534 8 663 319 320 318 9 DFF_X1
* cell instance $7555 r0 *1 380.38,259
X$7555 37 339 9 8 338 AND2_X1
* cell instance $7556 r0 *1 381.14,259
X$7556 8 744 337 338 318 9 DFF_X1
* cell instance $7557 r0 *1 384.37,259
X$7557 337 8 9 17 CLKBUF_X3
* cell instance $7558 r0 *1 385.32,259
X$7558 319 17 9 8 355 AND2_X1
* cell instance $7715 m0 *1 329.65,264.6
X$7715 333 8 9 301 BUF_X2
* cell instance $7742 r0 *1 325.85,264.6
X$7742 301 187 382 8 9 403 MUX2_X1
* cell instance $7743 r0 *1 327.18,264.6
X$7743 382 166 406 8 9 377 MUX2_X1
* cell instance $7748 r0 *1 337.06,264.6
X$7748 142 8 9 356 CLKBUF_X3
* cell instance $7749 r0 *1 338.01,264.6
X$7749 356 8 9 652 INV_X4
* cell instance $7757 r0 *1 344.09,264.6
X$7757 142 8 9 349 CLKBUF_X3
* cell instance $7758 r0 *1 345.04,264.6
X$7758 349 8 9 807 INV_X2
* cell instance $7763 r0 *1 355.3,264.6
X$7763 386 114 397 8 9 393 MUX2_X1
* cell instance $7765 r0 *1 357.39,264.6
X$7765 396 81 397 8 9 392 MUX2_X1
* cell instance $7768 r0 *1 360.62,264.6
X$7768 83 8 9 398 INV_X1
* cell instance $7770 r0 *1 361.19,264.6
X$7770 383 384 8 9 146 NAND2_X2
* cell instance $7772 m0 *1 362.14,264.6
X$7772 383 298 8 9 137 NAND2_X2
* cell instance $7774 m0 *1 366.13,264.6
X$7774 359 9 81 8 BUF_X4
* cell instance $7781 r0 *1 367.84,264.6
X$7781 298 8 9 384 INV_X2
* cell instance $7782 r0 *1 368.41,264.6
X$7782 8 750 385 391 318 9 DFF_X1
* cell instance $7783 m0 *1 368.79,264.6
X$7783 369 9 83 8 BUF_X4
* cell instance $7787 m0 *1 377.72,264.6
X$7787 375 339 378 8 9 376 MUX2_X1
* cell instance $7788 m0 *1 379.05,264.6
X$7788 8 665 375 370 318 9 DFF_X1
* cell instance $7789 m0 *1 382.28,264.6
X$7789 375 17 9 8 374 AND2_X1
* cell instance $7815 r0 *1 371.64,264.6
X$7815 385 49 386 8 9 391 MUX2_X1
* cell instance $7816 r0 *1 372.97,264.6
X$7816 387 88 386 8 9 390 MUX2_X1
* cell instance $7818 r0 *1 374.49,264.6
X$7818 8 739 387 390 318 9 DFF_X1
* cell instance $7824 r0 *1 383.61,264.6
X$7824 401 17 9 8 389 AND2_X1
* cell instance $7826 r0 *1 384.75,264.6
X$7826 450 17 9 8 373 AND2_X1
* cell instance $7853 r0 *1 498.37,264.6
X$7853 389 8 9 388 BUF_X1
* cell instance $7856 r0 *1 501.22,264.6
X$7856 373 8 9 371 BUF_X1
* cell instance $7963 m0 *1 324.14,256.2
X$7963 8 681 275 294 157 9 DFF_X1
* cell instance $7964 m0 *1 327.37,256.2
X$7964 267 187 295 8 9 323 MUX2_X1
* cell instance $7965 m0 *1 328.7,256.2
X$7965 295 166 275 8 9 296 MUX2_X1
* cell instance $7986 r0 *1 327.37,256.2
X$7986 8 784 295 323 157 9 DFF_X1
* cell instance $7988 m0 *1 334.02,256.2
X$7988 8 720 297 324 157 9 DFF_X1
* cell instance $7989 m0 *1 332.69,256.2
X$7989 267 77 297 8 9 324 MUX2_X1
* cell instance $7990 m0 *1 337.25,256.2
X$7990 297 59 289 8 9 309 MUX2_X1
* cell instance $7993 m0 *1 339.15,256.2
X$7993 309 111 327 8 9 308 MUX2_X1
* cell instance $7995 m0 *1 340.48,256.2
X$7995 154 290 308 141 9 8 300 OAI22_X2
* cell instance $7996 m0 *1 342.19,256.2
X$7996 267 73 299 8 9 307 MUX2_X1
* cell instance $7997 m0 *1 343.52,256.2
X$7997 299 298 265 8 9 327 MUX2_X1
* cell instance $8003 m0 *1 352.26,256.2
X$8003 328 8 9 142 CLKBUF_X3
* cell instance $8007 m0 *1 360.05,256.2
X$8007 267 64 286 8 9 306 MUX2_X1
* cell instance $8012 m0 *1 362.71,256.2
X$8012 312 300 8 9 304 NOR2_X1
* cell instance $8013 m0 *1 361.76,256.2
X$8013 146 331 137 325 9 8 312 OAI22_X1
* cell instance $8016 m0 *1 365.37,256.2
X$8016 313 88 301 8 9 305 MUX2_X1
* cell instance $8018 m0 *1 366.7,256.2
X$8018 302 49 301 8 9 285 MUX2_X1
* cell instance $8019 m0 *1 368.03,256.2
X$8019 302 81 313 8 9 314 MUX2_X1
* cell instance $8027 r0 *1 372.78,256.2
X$8027 322 88 267 8 9 321 MUX2_X1
* cell instance $8029 m0 *1 373.54,256.2
X$8029 316 86 322 8 9 303 MUX2_X1
* cell instance $8227 m0 *1 319.01,270.2
X$8227 432 8 9 333 CLKBUF_X2
* cell instance $8230 m0 *1 323.57,270.2
X$8230 8 673 406 433 435 9 DFF_X1
* cell instance $8252 m0 *1 331.17,270.2
X$8252 8 703 427 434 435 9 DFF_X1
* cell instance $8254 m0 *1 334.4,270.2
X$8254 386 77 427 8 9 434 MUX2_X1
* cell instance $8258 m0 *1 339.72,270.2
X$8258 419 111 8 9 423 NOR2_X1
* cell instance $8261 m0 *1 344.85,270.2
X$8261 428 398 8 9 437 NOR2_X1
* cell instance $8262 m0 *1 345.42,270.2
X$8262 407 170 410 8 9 438 MUX2_X1
* cell instance $8265 m0 *1 347.7,270.2
X$8265 411 398 8 9 439 NOR2_X1
* cell instance $8274 r0 *1 340.1,270.2
X$8274 407 8 9 386 BUF_X2
* cell instance $8277 r0 *1 344.66,270.2
X$8277 8 791 410 438 441 9 DFF_X1
* cell instance $8278 r0 *1 347.89,270.2
X$8278 429 223 8 141 9 NAND2_X4
* cell instance $8281 r0 *1 350.17,270.2
X$8281 383 8 9 429 INV_X2
* cell instance $8284 r0 *1 353.02,270.2
X$8284 8 758 444 436 442 9 DFF_X1
* cell instance $8285 r0 *1 356.25,270.2
X$8285 386 64 444 8 9 436 MUX2_X1
* cell instance $8289 r0 *1 359.67,270.2
X$8289 458 298 459 8 9 424 MUX2_X1
* cell instance $8292 m0 *1 367.08,270.2
X$8292 8 684 412 413 318 9 DFF_X1
* cell instance $8293 m0 *1 363.85,270.2
X$8293 8 685 430 431 281 9 DFF_X1
* cell instance $8316 r0 *1 365.18,270.2
X$8316 430 359 412 8 9 459 MUX2_X1
* cell instance $8321 r0 *1 373.92,270.2
X$8321 339 298 223 111 8 9 446 NAND4_X1
* cell instance $8498 r0 *1 325.28,278.6
X$8498 515 8 9 407 BUF_X2
* cell instance $8500 m0 *1 330.79,278.6
X$8500 499 108 487 8 9 497 MUX2_X1
* cell instance $8501 m0 *1 327.56,278.6
X$8501 8 670 487 497 435 9 DFF_X1
* cell instance $8505 m0 *1 347.32,278.6
X$8505 499 132 488 8 9 501 MUX2_X1
* cell instance $8507 m0 *1 349.41,278.6
X$8507 8 717 489 504 441 9 DFF_X1
* cell instance $8511 m0 *1 355.11,278.6
X$8511 469 114 490 8 9 505 MUX2_X1
* cell instance $8512 m0 *1 356.44,278.6
X$8512 488 359 490 8 9 491 MUX2_X1
* cell instance $8513 m0 *1 357.77,278.6
X$8513 489 359 493 8 9 492 MUX2_X1
* cell instance $8514 m0 *1 359.1,278.6
X$8514 469 64 493 8 9 517 MUX2_X1
* cell instance $8527 r0 *1 349.22,278.6
X$8527 499 54 489 8 9 504 MUX2_X1
* cell instance $8530 r0 *1 354.35,278.6
X$8530 8 756 490 505 442 9 DFF_X1
* cell instance $8532 r0 *1 357.77,278.6
X$8532 8 755 493 517 442 9 DFF_X1
* cell instance $8535 m0 *1 366.32,278.6
X$8535 495 88 469 8 9 500 MUX2_X1
* cell instance $8537 m0 *1 367.65,278.6
X$8537 474 359 495 8 9 506 MUX2_X1
* cell instance $8542 r0 *1 367.65,278.6
X$8542 506 369 507 8 9 494 MUX2_X1
* cell instance $8545 m0 *1 371.83,278.6
X$8545 8 475 447 462 508 9 DFF_X2
* cell instance $8549 r0 *1 373.73,278.6
X$8549 509 9 359 8 BUF_X4
* cell instance $8550 r0 *1 375.06,278.6
X$8550 508 509 498 9 8 463 HA_X1
* cell instance $8551 m0 *1 376.01,278.6
X$8551 223 27 498 8 9 496 MUX2_X1
* cell instance $8554 m0 *1 378.86,278.6
X$8554 37 496 9 8 514 AND2_X1
* cell instance $8574 r0 *1 376.96,278.6
X$8574 8 541 509 514 447 9 DFF_X1
* cell instance $8578 r0 *1 385.13,278.6
X$8578 562 9 27 8 BUF_X4
* cell instance $8724 m0 *1 328.89,275.8
X$8724 8 706 468 479 435 9 DFF_X1
* cell instance $8745 r0 *1 328.51,275.8
X$8745 469 77 468 8 9 479 MUX2_X1
* cell instance $8746 r0 *1 329.84,275.8
X$8746 468 174 487 8 9 481 MUX2_X1
* cell instance $8748 r0 *1 331.55,275.8
X$8748 469 73 470 8 9 480 MUX2_X1
* cell instance $8749 r0 *1 332.88,275.8
X$8749 8 777 470 480 435 9 DFF_X1
* cell instance $8750 r0 *1 336.11,275.8
X$8750 499 22 472 8 9 471 MUX2_X1
* cell instance $8752 m0 *1 337.06,275.8
X$8752 8 695 472 471 441 9 DFF_X1
* cell instance $8753 r0 *1 337.44,275.8
X$8753 470 174 472 8 9 473 MUX2_X1
* cell instance $8754 r0 *1 338.77,275.8
X$8754 481 369 473 8 9 486 MUX2_X1
* cell instance $8757 r0 *1 340.48,275.8
X$8757 407 22 484 8 9 485 MUX2_X1
* cell instance $8759 m0 *1 340.67,275.8
X$8759 8 696 440 466 441 9 DFF_X1
* cell instance $8765 r0 *1 341.81,275.8
X$8765 8 782 484 485 441 9 DFF_X1
* cell instance $8769 r0 *1 346.37,275.8
X$8769 516 223 486 8 9 460 MUX2_X1
* cell instance $8772 r0 *1 348.65,275.8
X$8772 8 767 488 501 441 9 DFF_X1
* cell instance $8775 r0 *1 358.34,275.8
X$8775 491 369 492 8 9 482 MUX2_X1
* cell instance $8781 r0 *1 361.95,275.8
X$8781 442 8 9 804 INV_X2
* cell instance $8782 r0 *1 362.52,275.8
X$8782 142 8 9 442 CLKBUF_X3
* cell instance $8783 r0 *1 363.47,275.8
X$8783 8 766 474 483 442 9 DFF_X1
* cell instance $8784 m0 *1 364.99,275.8
X$8784 474 49 469 8 9 483 MUX2_X1
* cell instance $8787 r0 *1 366.7,275.8
X$8787 8 765 495 500 447 9 DFF_X1
* cell instance $8789 m0 *1 366.7,275.8
X$8789 494 384 482 8 9 467 MUX2_X1
* cell instance $8793 r0 *1 370.12,275.8
X$8793 142 8 9 447 CLKBUF_X3
* cell instance $8794 r0 *1 371.07,275.8
X$8794 447 8 9 805 INV_X2
* cell instance $8796 m0 *1 372.4,275.8
X$8796 111 27 462 8 9 461 MUX2_X1
* cell instance $8799 m0 *1 374.49,275.8
X$8799 339 464 463 384 8 9 465 NAND4_X1
* cell instance $8800 m0 *1 375.44,275.8
X$8800 464 298 8 9 477 NAND2_X1
* cell instance $8803 r0 *1 372.78,275.8
X$8803 37 461 9 8 475 AND2_X1
* cell instance $8806 r0 *1 374.68,275.8
X$8806 463 339 9 8 478 AND2_X1
* cell instance $8807 r0 *1 375.44,275.8
X$8807 478 477 465 9 476 8 OAI21_X1
* cell instance $8809 m0 *1 376.58,275.8
X$8809 339 463 383 298 8 9 513 NAND4_X1
* cell instance $8813 m0 *1 378.1,275.8
X$8813 8 339 9 27 BUF_X8
* cell instance $8814 m0 *1 380.57,275.8
X$8814 464 8 9 37 BUF_X2
* cell instance $8993 m0 *1 343.33,273
X$8993 441 8 9 651 INV_X4
* cell instance $8996 m0 *1 350.55,273
X$8996 407 54 443 8 9 457 MUX2_X1
* cell instance $8997 m0 *1 351.88,273
X$8997 8 659 443 457 442 9 DFF_X1
* cell instance $9016 r0 *1 336.3,273
X$9016 142 8 9 435 CLKBUF_X3
* cell instance $9017 r0 *1 337.25,273
X$9017 435 8 9 806 INV_X2
* cell instance $9021 r0 *1 341.43,273
X$9021 386 73 440 8 9 466 MUX2_X1
* cell instance $9024 r0 *1 343.33,273
X$9024 440 174 484 8 9 428 MUX2_X1
* cell instance $9025 r0 *1 344.66,273
X$9025 142 8 9 441 CLKBUF_X3
* cell instance $9028 m0 *1 355.68,273
X$9028 443 359 444 8 9 458 MUX2_X1
* cell instance $9033 m0 *1 367.65,273
X$9033 467 429 460 8 9 448 MUX2_X1
* cell instance $9034 m0 *1 368.98,273
X$9034 453 429 8 9 456 NOR2_X1
* cell instance $9042 m0 *1 373.16,273
X$9042 453 383 8 9 445 NOR2_X1
* cell instance $9044 m0 *1 373.73,273
X$9044 445 446 456 8 9 455 MUX2_X1
* cell instance $9047 m0 *1 378.67,273
X$9047 454 8 9 383 CLKBUF_X3
* cell instance $9048 m0 *1 375.44,273
X$9048 8 449 454 455 447 9 DFF_X1
* cell instance $9049 m0 *1 379.62,273
X$9049 450 339 448 8 9 452 MUX2_X1
* cell instance $9050 m0 *1 380.95,273
X$9050 37 452 9 8 451 AND2_X1
* cell instance $9051 m0 *1 381.71,273
X$9051 8 705 450 451 447 9 DFF_X1
* cell instance $13816 m0 *1 340.48,298.2
X$13816 525 8 9 643 INV_X4
* cell instance $14014 m0 *1 364.42,295.4
X$14014 8 646 442 604 603 9 DFF_X2
* cell instance $14044 r0 *1 348.46,295.4
X$14044 642 8 9 601 BUF_X1
* cell instance $14057 m0 *1 382.09,295.4
X$14057 632 8 9 621 INV_X1
* cell instance $14716 m0 *1 344.47,287
X$14716 8 534 503 533 536 196 9 NAND4_X4
* cell instance $14722 m0 *1 363.28,287
X$14722 627 8 9 535 CLKBUF_X3
* cell instance $14752 r0 *1 363.47,287
X$14752 565 9 118 8 BUF_X4
* cell instance $14757 r0 *1 383.23,287
X$14757 542 563 9 552 8 XOR2_X2
* cell instance $14761 r0 *1 389.69,287
X$14761 552 8 9 553 INV_X4
* cell instance $14789 m0 *1 500.27,287
X$14789 553 8 9 578 BUF_X1
* cell instance $14790 m0 *1 500.84,287
X$14790 553 8 9 557 BUF_X1
* cell instance $14799 r0 *1 496.85,287
X$14799 556 8 9 560 BUF_X2
* cell instance $14802 r0 *1 501.03,287
X$14802 554 8 9 559 BUF_X1
* cell instance $14915 m0 *1 345.61,292.6
X$14915 8 534 525 9 BUF_X16
* cell instance $14916 m0 *1 350.36,292.6
X$14916 602 600 8 9 594 NOR2_X1
* cell instance $14918 m0 *1 351.69,292.6
X$14918 601 602 9 8 625 AND2_X1
* cell instance $14919 m0 *1 352.45,292.6
X$14919 625 9 538 8 BUF_X4
* cell instance $14941 r0 *1 350.36,292.6
X$14941 601 8 9 600 INV_X1
* cell instance $14945 r0 *1 352.07,292.6
X$14945 641 8 9 453 INV_X2
* cell instance $14948 r0 *1 353.78,292.6
X$14948 641 8 9 464 BUF_X2
* cell instance $14949 m0 *1 354.35,292.6
X$14949 453 602 8 9 617 NOR2_X1
* cell instance $14952 m0 *1 355.11,292.6
X$14952 602 464 9 8 618 AND2_X1
* cell instance $14955 r0 *1 354.54,292.6
X$14955 617 640 618 8 9 648 MUX2_X1
* cell instance $14956 r0 *1 355.87,292.6
X$14956 626 525 601 8 9 640 NAND3_X1
* cell instance $14957 r0 *1 356.63,292.6
X$14957 525 601 8 9 629 NAND2_X1
* cell instance $14959 r0 *1 357.39,292.6
X$14959 8 648 442 657 602 9 DFF_X2
* cell instance $14960 m0 *1 360.24,292.6
X$14960 619 603 653 9 8 628 HA_X1
* cell instance $14961 m0 *1 359.29,292.6
X$14961 533 603 619 9 8 626 AND3_X1
* cell instance $14962 m0 *1 362.14,292.6
X$14962 628 8 9 537 CLKBUF_X3
* cell instance $14968 r0 *1 364.42,292.6
X$14968 603 464 9 8 647 AND2_X1
* cell instance $14969 m0 *1 366.89,292.6
X$14969 569 604 645 9 8 630 HA_X1
* cell instance $14970 m0 *1 364.99,292.6
X$14970 619 604 654 9 8 627 HA_X1
* cell instance $14973 m0 *1 371.07,292.6
X$14973 569 464 9 8 620 AND2_X1
* cell instance $14977 m0 *1 378.86,292.6
X$14977 570 633 8 9 605 NOR2_X1
* cell instance $14978 m0 *1 379.43,292.6
X$14978 605 634 632 9 8 635 OAI21_X2
* cell instance $14979 m0 *1 380.76,292.6
X$14979 633 570 8 9 616 OR2_X1
* cell instance $14980 m0 *1 381.52,292.6
X$14980 8 587 584 599 635 9 AOI21_X4
* cell instance $14982 m0 *1 384.75,292.6
X$14982 622 572 9 607 8 XOR2_X2
* cell instance $14987 r0 *1 365.37,292.6
X$14987 631 629 647 8 9 646 MUX2_X1
* cell instance $14989 r0 *1 366.89,292.6
X$14989 645 464 9 8 631 AND2_X1
* cell instance $14991 r0 *1 367.84,292.6
X$14991 8 644 447 569 619 9 DFF_X2
* cell instance $14993 r0 *1 371.64,292.6
X$14993 620 629 636 8 9 644 MUX2_X1
* cell instance $14994 r0 *1 372.97,292.6
X$14994 619 464 9 8 636 AND2_X1
* cell instance $15000 r0 *1 379.62,292.6
X$15000 606 8 9 634 INV_X1
* cell instance $15001 r0 *1 380,292.6
X$15001 541 603 606 9 8 633 HA_X1
* cell instance $15002 r0 *1 381.9,292.6
X$15002 8 603 622 590 621 541 9 FA_X1
* cell instance $15003 r0 *1 384.94,292.6
X$15003 622 572 584 8 9 581 NAND3_X1
* cell instance $15005 m0 *1 391.21,292.6
X$15005 607 590 608 8 623 9 AOI21_X1
* cell instance $15006 m0 *1 389.12,292.6
X$15006 607 608 590 8 9 574 OR3_X4
* cell instance $15007 m0 *1 391.97,292.6
X$15007 552 589 623 9 8 592 AND3_X2
* cell instance $15008 m0 *1 393.11,292.6
X$15008 607 590 8 9 609 NAND2_X1
* cell instance $15031 m0 *1 501.79,292.6
X$15031 607 8 9 615 BUF_X1
* cell instance $15032 m0 *1 502.36,292.6
X$15032 608 8 9 624 BUF_X1
* cell instance $15033 m0 *1 502.93,292.6
X$15033 611 8 9 614 BUF_X1
* cell instance $15056 r0 *1 500.65,292.6
X$15056 608 8 9 639 BUF_X1
* cell instance $15059 r0 *1 501.79,292.6
X$15059 610 8 9 637 BUF_X1
* cell instance $15060 r0 *1 502.36,292.6
X$15060 590 8 9 612 BUF_X1
* cell instance $15061 r0 *1 502.93,292.6
X$15061 624 8 9 638 BUF_X1
* cell instance $15215 m0 *1 342.76,289.8
X$15215 8 525 503 524 536 214 9 NAND4_X4
* cell instance $15217 m0 *1 349.41,289.8
X$15217 533 8 9 524 INV_X8
* cell instance $15222 r0 *1 348.46,289.8
X$15222 8 503 9 594 BUF_X8
* cell instance $15225 r0 *1 351.88,289.8
X$15225 525 537 601 8 9 595 NAND3_X1
* cell instance $15226 m0 *1 352.45,289.8
X$15226 453 533 8 9 566 NOR2_X1
* cell instance $15228 m0 *1 353.02,289.8
X$15228 453 524 8 9 567 NOR2_X1
* cell instance $15231 m0 *1 360.43,289.8
X$15231 568 9 533 8 BUF_X4
* cell instance $15232 m0 *1 361.76,289.8
X$15232 568 537 583 538 9 8 565 AND4_X1
* cell instance $15235 r0 *1 352.64,289.8
X$15235 566 595 567 8 9 596 MUX2_X1
* cell instance $15237 r0 *1 354.73,289.8
X$15237 8 596 442 656 568 9 DFF_X2
* cell instance $15243 r0 *1 361.38,289.8
X$15243 8 534 9 583 BUF_X8
* cell instance $15246 r0 *1 365.56,289.8
X$15246 630 8 9 536 CLKBUF_X3
* cell instance $15247 m0 *1 366.51,289.8
X$15247 569 603 655 9 8 582 HA_X1
* cell instance $15249 m0 *1 368.41,289.8
X$15249 582 8 9 502 CLKBUF_X3
* cell instance $15257 m0 *1 375.06,289.8
X$15257 508 569 597 9 8 632 HA_X1
* cell instance $15260 r0 *1 376.39,289.8
X$15260 597 8 9 608 INV_X2
* cell instance $15263 m0 *1 378.1,289.8
X$15263 564 568 572 9 8 570 HA_X1
* cell instance $15265 m0 *1 380.95,289.8
X$15265 571 581 8 9 563 NAND2_X1
* cell instance $15266 m0 *1 381.52,289.8
X$15266 572 570 8 9 599 OR2_X1
* cell instance $15270 m0 *1 384.75,289.8
X$15270 579 552 580 587 561 562 8 9 OAI221_X2
* cell instance $15271 m0 *1 386.84,289.8
X$15271 585 586 560 9 580 8 OAI21_X1
* cell instance $15272 m0 *1 387.6,289.8
X$15272 560 8 9 579 INV_X1
* cell instance $15274 m0 *1 388.74,289.8
X$15274 574 560 8 9 561 NAND2_X1
* cell instance $15275 m0 *1 389.31,289.8
X$15275 574 8 9 573 INV_X4
* cell instance $15278 m0 *1 394.82,289.8
X$15278 8 553 554 574 576 9 NOR3_X4
* cell instance $15301 r0 *1 378.86,289.8
X$15301 449 602 584 9 8 598 HA_X1
* cell instance $15302 r0 *1 380.76,289.8
X$15302 598 584 570 8 571 9 AOI21_X1
* cell instance $15305 r0 *1 382.09,289.8
X$15305 616 606 621 8 586 9 AOI21_X2
* cell instance $15308 r0 *1 383.99,289.8
X$15308 599 584 8 9 585 NAND2_X1
* cell instance $15311 r0 *1 386.27,289.8
X$15311 585 586 8 9 588 NOR2_X2
* cell instance $15313 r0 *1 387.98,289.8
X$15313 8 553 573 588 583 587 9 OAI211_X4
* cell instance $15314 r0 *1 391.21,289.8
X$15314 588 587 8 9 589 OR2_X1
* cell instance $15317 r0 *1 392.54,289.8
X$15317 552 609 589 9 8 593 OAI21_X2
* cell instance $15321 r0 *1 395.2,289.8
X$15321 589 8 9 554 INV_X2
* cell instance $15341 r0 *1 500.08,289.8
X$15341 593 8 9 613 BUF_X1
* cell instance $15343 m0 *1 500.65,289.8
X$15343 578 8 9 558 BUF_X1
* cell instance $15345 r0 *1 500.65,289.8
X$15345 592 8 9 575 BUF_X1
* cell instance $15346 r0 *1 501.22,289.8
X$15346 554 8 9 591 BUF_X1
* cell instance $15347 r0 *1 501.79,289.8
X$15347 607 8 9 610 BUF_X1
* cell instance $15348 m0 *1 502.93,289.8
X$15348 576 8 9 555 BUF_X1
* cell instance $15349 m0 *1 502.36,289.8
X$15349 559 8 9 577 BUF_X1
* cell instance $15351 r0 *1 502.36,289.8
X$15351 590 8 9 611 BUF_X1
* cell instance $15486 m0 *1 328.13,284.2
X$15486 469 187 547 8 9 531 MUX2_X1
* cell instance $15489 m0 *1 330.41,284.2
X$15489 499 170 518 8 9 529 MUX2_X1
* cell instance $15490 m0 *1 331.74,284.2
X$15490 547 174 518 8 9 530 MUX2_X1
* cell instance $15492 m0 *1 334.59,284.2
X$15492 469 214 519 8 9 532 MUX2_X1
* cell instance $15495 m0 *1 336.87,284.2
X$15495 499 196 521 8 9 520 MUX2_X1
* cell instance $15496 m0 *1 338.2,284.2
X$15496 519 522 521 8 9 523 MUX2_X1
* cell instance $15513 r0 *1 320.72,284.2
X$15513 546 8 9 499 CLKBUF_X2
* cell instance $15516 r0 *1 328.32,284.2
X$15516 8 775 547 531 435 9 DFF_X1
* cell instance $15521 r0 *1 334.4,284.2
X$15521 8 772 519 532 435 9 DFF_X1
* cell instance $15523 m0 *1 340.1,284.2
X$15523 522 9 174 8 BUF_X4
* cell instance $15528 m0 *1 342.57,284.2
X$15528 8 525 503 524 535 187 9 NAND4_X4
* cell instance $15530 r0 *1 344.47,284.2
X$15530 8 534 503 533 502 108 9 NAND4_X4
* cell instance $15531 m0 *1 346.56,284.2
X$15531 8 534 503 533 537 22 9 NAND4_X4
* cell instance $15535 r0 *1 347.89,284.2
X$15535 8 534 503 533 535 170 9 NAND4_X4
* cell instance $15536 m0 *1 354.54,284.2
X$15536 8 525 538 524 502 114 9 NAND4_X4
* cell instance $15537 m0 *1 351.12,284.2
X$15537 8 534 538 524 535 54 9 NAND4_X4
* cell instance $15541 m0 *1 360.43,284.2
X$15541 533 502 534 538 9 8 526 AND4_X1
* cell instance $15542 m0 *1 361.57,284.2
X$15542 533 536 534 538 9 8 550 AND4_X1
* cell instance $15543 m0 *1 362.71,284.2
X$15543 8 49 9 550 BUF_X8
* cell instance $15544 m0 *1 365.18,284.2
X$15544 8 719 539 528 442 9 DFF_X1
* cell instance $15545 m0 *1 368.41,284.2
X$15545 539 133 469 8 9 528 MUX2_X1
* cell instance $15549 r0 *1 351.31,284.2
X$15549 8 534 538 524 536 132 9 NAND4_X4
* cell instance $15550 r0 *1 354.73,284.2
X$15550 8 525 538 524 537 64 9 NAND4_X4
* cell instance $15557 r0 *1 361.57,284.2
X$15557 533 535 534 538 9 8 551 AND4_X1
* cell instance $15559 r0 *1 362.9,284.2
X$15559 8 133 9 551 BUF_X8
* cell instance $15561 r0 *1 365.56,284.2
X$15561 8 783 540 549 442 9 DFF_X1
* cell instance $15562 r0 *1 368.79,284.2
X$15562 540 118 469 8 9 549 MUX2_X1
* cell instance $15564 m0 *1 374.11,284.2
X$15564 8 476 447 564 522 9 DFF_X2
* cell instance $15593 r0 *1 377.15,284.2
X$15593 545 118 548 8 9 544 MUX2_X1
* cell instance $15594 r0 *1 378.48,284.2