* CDL Netlist generated by OpenROAD

*.BUSDELIMITER [

.SUBCKT sync_fifo almost_empty almost_full clk empty full
+ rd_count[0] rd_count[1] rd_count[2] rd_count[3] rd_count[4]
+ rd_data[0] rd_data[1] rd_data[2] rd_data[3] rd_data[4] rd_data[5]
+ rd_data[6] rd_data[7] rd_en rst_n wr_count[0] wr_count[1]
+ wr_count[2] wr_count[3] wr_count[4] wr_data[0] wr_data[1]
+ wr_data[2] wr_data[3] wr_data[4] wr_data[5] wr_data[6] wr_data[7]
+ wr_en
X_0570_ _0553_ _0558_ _0550_ _0151_ VDD VSS NAND3_X1
X_0571_ _0552_ _0557_ _0553_ _0152_ VDD VSS AOI21_X1
X_0572_ _0151_ _0152_ _0153_ VDD VSS NAND2_X1
X_0573_ wr_ptr\[4\] rd_ptr\[4\] _0154_ VDD VSS XOR2_X2
X_0574_ _0153_ _0154_ _0155_ VDD VSS XOR2_X2
X_0575_ _0155_ net11 VDD VSS INV_X4
X_0576_ _0569_ net7 VDD VSS INV_X2
X_0577_ _0558_ _0550_ net9 VDD VSS XOR2_X2
X_0578_ _0554_ _0557_ _0156_ VDD VSS OR2_X1
X_0579_ _0568_ _0549_ VDD VSS INV_X1
X_0580_ _0156_ _0549_ _0555_ _0157_ VDD VSS AOI21_X2
X_0581_ _0558_ _0557_ _0158_ VDD VSS OR2_X1
X_0582_ _0553_ _0158_ _0159_ VDD VSS NAND2_X1
X_0583_ _0157_ _0159_ _0160_ VDD VSS NOR2_X2
X_0584_ _0554_ _0557_ _0161_ VDD VSS NOR2_X1
X_0585_ _0555_ _0162_ VDD VSS INV_X1
X_0586_ _0161_ _0568_ _0162_ _0163_ VDD VSS OAI21_X2
X_0587_ _0553_ _0163_ _0158_ _0164_ VDD VSS AOI21_X4
X_0588_ _0160_ _0164_ _0165_ VDD VSS OR2_X1
X_0589_ _0165_ net10 VDD VSS INV_X2
X_0590_ net8 net7 net9 _0166_ VDD VSS OR3_X4
X_0591_ _0166_ _0167_ VDD VSS INV_X4
X_0592_ net11 _0167_ _0164_ _0160_ _0168_ VDD VSS OAI211_X4
X_0593_ _0168_ _0169_ VDD VSS BUF_X8
X_0594_ _0169_ _0170_ VDD VSS BUF_X16
X_0595_ _0170_ net6 VDD VSS INV_X4
X_0596_ net11 net10 _0166_ net5 VDD VSS NOR3_X4
X_0597_ wr_data[0] _0171_ VDD VSS BUF_X2
X_0598_ _0171_ _0172_ VDD VSS BUF_X2
X_0599_ wr_ptr\[2\] _0173_ VDD VSS BUF_X4
X_0600_ _0173_ _0174_ VDD VSS INV_X8
X_0601_ _0561_ _0175_ VDD VSS CLKBUF_X3
X_0602_ wr_en _0176_ VDD VSS BUF_X1
X_0603_ _0176_ _0177_ VDD VSS INV_X1
X_0604_ _0177_ wr_ptr\[3\] _0178_ VDD VSS NOR2_X1
X_0605_ _0178_ _0179_ VDD VSS BUF_X8
X_0606_ _0174_ _0175_ _0170_ _0179_ _0180_ VDD VSS NAND4_X4
X_0607_ _0172_ mem\[0\]\[0\] _0180_ _0004_ VDD VSS MUX2_X1
X_0608_ wr_data[1] _0181_ VDD VSS CLKBUF_X2
X_0609_ _0181_ _0182_ VDD VSS BUF_X2
X_0610_ _0182_ mem\[0\]\[1\] _0180_ _0005_ VDD VSS MUX2_X1
X_0611_ wr_data[2] _0183_ VDD VSS CLKBUF_X2
X_0612_ _0183_ _0184_ VDD VSS BUF_X2
X_0613_ _0184_ mem\[0\]\[2\] _0180_ _0006_ VDD VSS MUX2_X1
X_0614_ wr_data[3] _0185_ VDD VSS CLKBUF_X2
X_0615_ _0185_ _0186_ VDD VSS BUF_X2
X_0616_ _0186_ mem\[0\]\[3\] _0180_ _0007_ VDD VSS MUX2_X1
X_0617_ wr_data[4] _0187_ VDD VSS BUF_X2
X_0618_ _0187_ _0188_ VDD VSS BUF_X2
X_0619_ _0188_ mem\[0\]\[4\] _0180_ _0008_ VDD VSS MUX2_X1
X_0620_ wr_data[5] _0189_ VDD VSS BUF_X2
X_0621_ _0189_ _0190_ VDD VSS BUF_X2
X_0622_ _0190_ mem\[0\]\[5\] _0180_ _0009_ VDD VSS MUX2_X1
X_0623_ wr_data[6] _0191_ VDD VSS BUF_X2
X_0624_ _0191_ _0192_ VDD VSS BUF_X2
X_0625_ _0192_ mem\[0\]\[6\] _0180_ _0010_ VDD VSS MUX2_X1
X_0626_ wr_data[7] _0193_ VDD VSS BUF_X2
X_0627_ _0193_ _0194_ VDD VSS BUF_X2
X_0628_ _0194_ mem\[0\]\[7\] _0180_ _0011_ VDD VSS MUX2_X1
X_0629_ _0562_ _0195_ VDD VSS CLKBUF_X3
X_0630_ _0176_ wr_ptr\[3\] _0196_ VDD VSS AND2_X1
X_0631_ _0196_ _0197_ VDD VSS BUF_X4
X_0632_ _0174_ _0195_ _0170_ _0197_ _0198_ VDD VSS NAND4_X4
X_0633_ _0172_ mem\[10\]\[0\] _0198_ _0012_ VDD VSS MUX2_X1
X_0634_ _0182_ mem\[10\]\[1\] _0198_ _0013_ VDD VSS MUX2_X1
X_0635_ _0184_ mem\[10\]\[2\] _0198_ _0014_ VDD VSS MUX2_X1
X_0636_ _0186_ mem\[10\]\[3\] _0198_ _0015_ VDD VSS MUX2_X1
X_0637_ _0188_ mem\[10\]\[4\] _0198_ _0016_ VDD VSS MUX2_X1
X_0638_ _0190_ mem\[10\]\[5\] _0198_ _0017_ VDD VSS MUX2_X1
X_0639_ _0192_ mem\[10\]\[6\] _0198_ _0018_ VDD VSS MUX2_X1
X_0640_ _0194_ mem\[10\]\[7\] _0198_ _0019_ VDD VSS MUX2_X1
X_0641_ _0566_ _0199_ VDD VSS CLKBUF_X3
X_0642_ _0174_ _0199_ _0170_ _0197_ _0200_ VDD VSS NAND4_X4
X_0643_ _0172_ mem\[11\]\[0\] _0200_ _0020_ VDD VSS MUX2_X1
X_0644_ _0182_ mem\[11\]\[1\] _0200_ _0021_ VDD VSS MUX2_X1
X_0645_ _0184_ mem\[11\]\[2\] _0200_ _0022_ VDD VSS MUX2_X1
X_0646_ _0186_ mem\[11\]\[3\] _0200_ _0023_ VDD VSS MUX2_X1
X_0647_ _0188_ mem\[11\]\[4\] _0200_ _0024_ VDD VSS MUX2_X1
X_0648_ _0190_ mem\[11\]\[5\] _0200_ _0025_ VDD VSS MUX2_X1
X_0649_ _0192_ mem\[11\]\[6\] _0200_ _0026_ VDD VSS MUX2_X1
X_0650_ _0194_ mem\[11\]\[7\] _0200_ _0027_ VDD VSS MUX2_X1
X_0651_ _0173_ _0175_ _0169_ _0197_ _0201_ VDD VSS AND4_X1
X_0652_ _0201_ _0202_ VDD VSS BUF_X8
X_0653_ mem\[12\]\[0\] _0172_ _0202_ _0028_ VDD VSS MUX2_X1
X_0654_ mem\[12\]\[1\] _0182_ _0202_ _0029_ VDD VSS MUX2_X1
X_0655_ mem\[12\]\[2\] _0184_ _0202_ _0030_ VDD VSS MUX2_X1
X_0656_ mem\[12\]\[3\] _0186_ _0202_ _0031_ VDD VSS MUX2_X1
X_0657_ mem\[12\]\[4\] _0188_ _0202_ _0032_ VDD VSS MUX2_X1
X_0658_ mem\[12\]\[5\] _0190_ _0202_ _0033_ VDD VSS MUX2_X1
X_0659_ mem\[12\]\[6\] _0192_ _0202_ _0034_ VDD VSS MUX2_X1
X_0660_ mem\[12\]\[7\] _0194_ _0202_ _0035_ VDD VSS MUX2_X1
X_0661_ _0564_ _0203_ VDD VSS CLKBUF_X3
X_0662_ _0173_ _0203_ _0169_ _0197_ _0204_ VDD VSS AND4_X1
X_0663_ _0204_ _0205_ VDD VSS BUF_X8
X_0664_ mem\[13\]\[0\] _0172_ _0205_ _0036_ VDD VSS MUX2_X1
X_0665_ mem\[13\]\[1\] _0182_ _0205_ _0037_ VDD VSS MUX2_X1
X_0666_ mem\[13\]\[2\] _0184_ _0205_ _0038_ VDD VSS MUX2_X1
X_0667_ mem\[13\]\[3\] _0186_ _0205_ _0039_ VDD VSS MUX2_X1
X_0668_ mem\[13\]\[4\] _0188_ _0205_ _0040_ VDD VSS MUX2_X1
X_0669_ mem\[13\]\[5\] _0190_ _0205_ _0041_ VDD VSS MUX2_X1
X_0670_ mem\[13\]\[6\] _0192_ _0205_ _0042_ VDD VSS MUX2_X1
X_0671_ mem\[13\]\[7\] _0194_ _0205_ _0043_ VDD VSS MUX2_X1
X_0672_ _0173_ _0195_ _0169_ _0197_ _0206_ VDD VSS AND4_X1
X_0673_ _0206_ _0207_ VDD VSS BUF_X8
X_0674_ mem\[14\]\[0\] _0172_ _0207_ _0044_ VDD VSS MUX2_X1
X_0675_ mem\[14\]\[1\] _0182_ _0207_ _0045_ VDD VSS MUX2_X1
X_0676_ mem\[14\]\[2\] _0184_ _0207_ _0046_ VDD VSS MUX2_X1
X_0677_ mem\[14\]\[3\] _0186_ _0207_ _0047_ VDD VSS MUX2_X1
X_0678_ mem\[14\]\[4\] _0188_ _0207_ _0048_ VDD VSS MUX2_X1
X_0679_ mem\[14\]\[5\] _0190_ _0207_ _0049_ VDD VSS MUX2_X1
X_0680_ mem\[14\]\[6\] _0192_ _0207_ _0050_ VDD VSS MUX2_X1
X_0681_ mem\[14\]\[7\] _0194_ _0207_ _0051_ VDD VSS MUX2_X1
X_0682_ wr_ptr\[2\] _0199_ _0168_ _0197_ _0208_ VDD VSS AND4_X1
X_0683_ _0208_ _0209_ VDD VSS BUF_X4
X_0684_ mem\[15\]\[0\] _0172_ _0209_ _0052_ VDD VSS MUX2_X1
X_0685_ mem\[15\]\[1\] _0182_ _0209_ _0053_ VDD VSS MUX2_X1
X_0686_ mem\[15\]\[2\] _0184_ _0209_ _0054_ VDD VSS MUX2_X1
X_0687_ mem\[15\]\[3\] _0186_ _0209_ _0055_ VDD VSS MUX2_X1
X_0688_ mem\[15\]\[4\] _0188_ _0209_ _0056_ VDD VSS MUX2_X1
X_0689_ mem\[15\]\[5\] _0190_ _0209_ _0057_ VDD VSS MUX2_X1
X_0690_ mem\[15\]\[6\] _0192_ _0209_ _0058_ VDD VSS MUX2_X1
X_0691_ mem\[15\]\[7\] _0194_ _0209_ _0059_ VDD VSS MUX2_X1
X_0692_ _0174_ _0203_ _0170_ _0179_ _0210_ VDD VSS NAND4_X4
X_0693_ _0172_ mem\[1\]\[0\] _0210_ _0060_ VDD VSS MUX2_X1
X_0694_ _0182_ mem\[1\]\[1\] _0210_ _0061_ VDD VSS MUX2_X1
X_0695_ _0184_ mem\[1\]\[2\] _0210_ _0062_ VDD VSS MUX2_X1
X_0696_ _0186_ mem\[1\]\[3\] _0210_ _0063_ VDD VSS MUX2_X1
X_0697_ _0188_ mem\[1\]\[4\] _0210_ _0064_ VDD VSS MUX2_X1
X_0698_ _0190_ mem\[1\]\[5\] _0210_ _0065_ VDD VSS MUX2_X1
X_0699_ _0192_ mem\[1\]\[6\] _0210_ _0066_ VDD VSS MUX2_X1
X_0700_ _0194_ mem\[1\]\[7\] _0210_ _0067_ VDD VSS MUX2_X1
X_0701_ _0174_ _0195_ _0170_ _0179_ _0211_ VDD VSS NAND4_X4
X_0702_ _0172_ mem\[2\]\[0\] _0211_ _0068_ VDD VSS MUX2_X1
X_0703_ _0182_ mem\[2\]\[1\] _0211_ _0069_ VDD VSS MUX2_X1
X_0704_ _0184_ mem\[2\]\[2\] _0211_ _0070_ VDD VSS MUX2_X1
X_0705_ _0186_ mem\[2\]\[3\] _0211_ _0071_ VDD VSS MUX2_X1
X_0706_ _0188_ mem\[2\]\[4\] _0211_ _0072_ VDD VSS MUX2_X1
X_0707_ _0190_ mem\[2\]\[5\] _0211_ _0073_ VDD VSS MUX2_X1
X_0708_ _0192_ mem\[2\]\[6\] _0211_ _0074_ VDD VSS MUX2_X1
X_0709_ _0194_ mem\[2\]\[7\] _0211_ _0075_ VDD VSS MUX2_X1
X_0710_ _0174_ _0199_ _0170_ _0179_ _0212_ VDD VSS NAND4_X4
X_0711_ _0172_ mem\[3\]\[0\] _0212_ _0076_ VDD VSS MUX2_X1
X_0712_ _0182_ mem\[3\]\[1\] _0212_ _0077_ VDD VSS MUX2_X1
X_0713_ _0184_ mem\[3\]\[2\] _0212_ _0078_ VDD VSS MUX2_X1
X_0714_ _0186_ mem\[3\]\[3\] _0212_ _0079_ VDD VSS MUX2_X1
X_0715_ _0188_ mem\[3\]\[4\] _0212_ _0080_ VDD VSS MUX2_X1
X_0716_ _0190_ mem\[3\]\[5\] _0212_ _0081_ VDD VSS MUX2_X1
X_0717_ _0192_ mem\[3\]\[6\] _0212_ _0082_ VDD VSS MUX2_X1
X_0718_ _0194_ mem\[3\]\[7\] _0212_ _0083_ VDD VSS MUX2_X1
X_0719_ _0173_ _0175_ _0169_ _0179_ _0213_ VDD VSS NAND4_X4
X_0720_ _0171_ mem\[4\]\[0\] _0213_ _0084_ VDD VSS MUX2_X1
X_0721_ _0181_ mem\[4\]\[1\] _0213_ _0085_ VDD VSS MUX2_X1
X_0722_ _0183_ mem\[4\]\[2\] _0213_ _0086_ VDD VSS MUX2_X1
X_0723_ _0185_ mem\[4\]\[3\] _0213_ _0087_ VDD VSS MUX2_X1
X_0724_ _0187_ mem\[4\]\[4\] _0213_ _0088_ VDD VSS MUX2_X1
X_0725_ _0189_ mem\[4\]\[5\] _0213_ _0089_ VDD VSS MUX2_X1
X_0726_ _0191_ mem\[4\]\[6\] _0213_ _0090_ VDD VSS MUX2_X1
X_0727_ _0193_ mem\[4\]\[7\] _0213_ _0091_ VDD VSS MUX2_X1
X_0728_ _0173_ _0203_ _0169_ _0179_ _0214_ VDD VSS NAND4_X4
X_0729_ _0171_ mem\[5\]\[0\] _0214_ _0092_ VDD VSS MUX2_X1
X_0730_ _0181_ mem\[5\]\[1\] _0214_ _0093_ VDD VSS MUX2_X1
X_0731_ _0183_ mem\[5\]\[2\] _0214_ _0094_ VDD VSS MUX2_X1
X_0732_ _0185_ mem\[5\]\[3\] _0214_ _0095_ VDD VSS MUX2_X1
X_0733_ _0187_ mem\[5\]\[4\] _0214_ _0096_ VDD VSS MUX2_X1
X_0734_ _0189_ mem\[5\]\[5\] _0214_ _0097_ VDD VSS MUX2_X1
X_0735_ _0191_ mem\[5\]\[6\] _0214_ _0098_ VDD VSS MUX2_X1
X_0736_ _0193_ mem\[5\]\[7\] _0214_ _0099_ VDD VSS MUX2_X1
X_0737_ _0173_ _0195_ _0169_ _0179_ _0215_ VDD VSS NAND4_X4
X_0738_ _0171_ mem\[6\]\[0\] _0215_ _0100_ VDD VSS MUX2_X1
X_0739_ _0181_ mem\[6\]\[1\] _0215_ _0101_ VDD VSS MUX2_X1
X_0740_ _0183_ mem\[6\]\[2\] _0215_ _0102_ VDD VSS MUX2_X1
X_0741_ _0185_ mem\[6\]\[3\] _0215_ _0103_ VDD VSS MUX2_X1
X_0742_ _0187_ mem\[6\]\[4\] _0215_ _0104_ VDD VSS MUX2_X1
X_0743_ _0189_ mem\[6\]\[5\] _0215_ _0105_ VDD VSS MUX2_X1
X_0744_ _0191_ mem\[6\]\[6\] _0215_ _0106_ VDD VSS MUX2_X1
X_0745_ _0193_ mem\[6\]\[7\] _0215_ _0107_ VDD VSS MUX2_X1
X_0746_ _0173_ _0199_ _0169_ _0179_ _0216_ VDD VSS NAND4_X4
X_0747_ _0171_ mem\[7\]\[0\] _0216_ _0108_ VDD VSS MUX2_X1
X_0748_ _0181_ mem\[7\]\[1\] _0216_ _0109_ VDD VSS MUX2_X1
X_0749_ _0183_ mem\[7\]\[2\] _0216_ _0110_ VDD VSS MUX2_X1
X_0750_ _0185_ mem\[7\]\[3\] _0216_ _0111_ VDD VSS MUX2_X1
X_0751_ _0187_ mem\[7\]\[4\] _0216_ _0112_ VDD VSS MUX2_X1
X_0752_ _0189_ mem\[7\]\[5\] _0216_ _0113_ VDD VSS MUX2_X1
X_0753_ _0191_ mem\[7\]\[6\] _0216_ _0114_ VDD VSS MUX2_X1
X_0754_ _0193_ mem\[7\]\[7\] _0216_ _0115_ VDD VSS MUX2_X1
X_0755_ _0174_ _0175_ _0169_ _0197_ _0217_ VDD VSS NAND4_X4
X_0756_ _0171_ mem\[8\]\[0\] _0217_ _0116_ VDD VSS MUX2_X1
X_0757_ _0181_ mem\[8\]\[1\] _0217_ _0117_ VDD VSS MUX2_X1
X_0758_ _0183_ mem\[8\]\[2\] _0217_ _0118_ VDD VSS MUX2_X1
X_0759_ _0185_ mem\[8\]\[3\] _0217_ _0119_ VDD VSS MUX2_X1
X_0760_ _0187_ mem\[8\]\[4\] _0217_ _0120_ VDD VSS MUX2_X1
X_0761_ _0189_ mem\[8\]\[5\] _0217_ _0121_ VDD VSS MUX2_X1
X_0762_ _0191_ mem\[8\]\[6\] _0217_ _0122_ VDD VSS MUX2_X1
X_0763_ _0193_ mem\[8\]\[7\] _0217_ _0123_ VDD VSS MUX2_X1
X_0764_ _0174_ _0203_ _0169_ _0197_ _0218_ VDD VSS NAND4_X4
X_0765_ _0171_ mem\[9\]\[0\] _0218_ _0124_ VDD VSS MUX2_X1
X_0766_ _0181_ mem\[9\]\[1\] _0218_ _0125_ VDD VSS MUX2_X1
X_0767_ _0183_ mem\[9\]\[2\] _0218_ _0126_ VDD VSS MUX2_X1
X_0768_ _0185_ mem\[9\]\[3\] _0218_ _0127_ VDD VSS MUX2_X1
X_0769_ _0187_ mem\[9\]\[4\] _0218_ _0128_ VDD VSS MUX2_X1
X_0770_ _0189_ mem\[9\]\[5\] _0218_ _0129_ VDD VSS MUX2_X1
X_0771_ _0191_ mem\[9\]\[6\] _0218_ _0130_ VDD VSS MUX2_X1
X_0772_ _0193_ mem\[9\]\[7\] _0218_ _0131_ VDD VSS MUX2_X1
X_0773_ net2 _0219_ VDD VSS INV_X2
X_0774_ net1 _0166_ _0220_ VDD VSS NAND2_X1
X_0775_ net1 _0157_ _0159_ _0221_ VDD VSS OAI21_X1
X_0776_ net1 _0222_ VDD VSS INV_X1
X_0777_ _0220_ _0221_ _0164_ _0155_ _0222_ _0223_ VDD VSS
+ OAI221_X2
X_0778_ _0223_ _0224_ VDD VSS BUF_X4
X_0779_ _0224_ _0225_ VDD VSS BUF_X8
X_0780_ rd_data_reg\[0\] _0225_ _0226_ VDD VSS NOR2_X1
X_0781_ rd_ptr\[0\] _0227_ VDD VSS CLKBUF_X3
X_0782_ _0227_ _0228_ VDD VSS BUF_X4
X_0783_ _0228_ _0229_ VDD VSS BUF_X4
X_0784_ rd_ptr\[2\] _0230_ VDD VSS BUF_X4
X_0785_ _0230_ _0231_ VDD VSS BUF_X4
X_0786_ mem\[0\]\[0\] mem\[4\]\[0\] _0231_ _0232_ VDD VSS
+ MUX2_X1
X_0787_ _0229_ _0232_ _0233_ VDD VSS NOR2_X1
X_0788_ _0228_ _0234_ VDD VSS INV_X1
X_0789_ mem\[1\]\[0\] mem\[5\]\[0\] _0231_ _0235_ VDD VSS
+ MUX2_X1
X_0790_ _0234_ _0235_ _0236_ VDD VSS NOR2_X1
X_0791_ rd_ptr\[1\] _0237_ VDD VSS BUF_X4
X_0792_ _0237_ _0238_ VDD VSS BUF_X4
X_0793_ rd_ptr\[3\] _0239_ VDD VSS CLKBUF_X3
X_0794_ _0238_ _0239_ _0240_ VDD VSS OR2_X4
X_0795_ _0239_ _0241_ VDD VSS INV_X2
X_0796_ _0238_ _0241_ _0242_ VDD VSS NAND2_X4
X_0797_ _0230_ _0243_ VDD VSS BUF_X4
X_0798_ mem\[2\]\[0\] mem\[6\]\[0\] _0243_ _0244_ VDD VSS
+ MUX2_X1
X_0799_ _0229_ _0244_ _0245_ VDD VSS NOR2_X1
X_0800_ mem\[3\]\[0\] mem\[7\]\[0\] _0230_ _0246_ VDD VSS
+ MUX2_X1
X_0801_ _0234_ _0246_ _0247_ VDD VSS NOR2_X1
X_0802_ _0233_ _0236_ _0240_ _0242_ _0245_ _0247_ _0248_ VDD
+ VSS OAI33_X1
X_0803_ mem\[9\]\[0\] mem\[11\]\[0\] _0237_ _0249_ VDD VSS
+ MUX2_X1
X_0804_ mem\[13\]\[0\] mem\[15\]\[0\] _0237_ _0250_ VDD VSS
+ MUX2_X1
X_0805_ _0249_ _0250_ _0231_ _0251_ VDD VSS MUX2_X1
X_0806_ mem\[12\]\[0\] mem\[14\]\[0\] _0237_ _0252_ VDD VSS
+ MUX2_X1
X_0807_ _0237_ _0253_ VDD VSS BUF_X4
X_0808_ mem\[8\]\[0\] mem\[10\]\[0\] _0253_ _0254_ VDD VSS
+ MUX2_X1
X_0809_ _0231_ _0255_ VDD VSS INV_X2
X_0810_ _0252_ _0254_ _0255_ _0256_ VDD VSS MUX2_X1
X_0811_ _0251_ _0256_ _0234_ _0257_ VDD VSS MUX2_X1
X_0812_ _0248_ _0257_ _0239_ _0258_ VDD VSS AOI21_X1
X_0813_ _0225_ _0258_ _0259_ VDD VSS AND2_X1
X_0814_ _0219_ _0226_ _0259_ _0132_ VDD VSS NOR3_X1
X_0815_ net2 _0260_ VDD VSS BUF_X2
X_0816_ _0260_ _0261_ VDD VSS BUF_X2
X_0817_ mem\[12\]\[1\] mem\[14\]\[1\] _0237_ _0262_ VDD VSS
+ MUX2_X1
X_0818_ mem\[13\]\[1\] mem\[15\]\[1\] _0237_ _0263_ VDD VSS
+ MUX2_X1
X_0819_ _0262_ _0263_ _0227_ _0264_ VDD VSS MUX2_X1
X_0820_ mem\[8\]\[1\] mem\[10\]\[1\] _0237_ _0265_ VDD VSS
+ MUX2_X1
X_0821_ mem\[9\]\[1\] mem\[11\]\[1\] _0237_ _0266_ VDD VSS
+ MUX2_X1
X_0822_ _0265_ _0266_ _0227_ _0267_ VDD VSS MUX2_X1
X_0823_ _0264_ _0267_ _0255_ _0268_ VDD VSS MUX2_X1
X_0824_ mem\[0\]\[1\] mem\[4\]\[1\] rd_ptr\[2\] _0269_ VDD
+ VSS MUX2_X1
X_0825_ mem\[1\]\[1\] mem\[5\]\[1\] _0230_ _0270_ VDD VSS
+ MUX2_X1
X_0826_ _0269_ _0270_ _0227_ _0271_ VDD VSS MUX2_X1
X_0827_ mem\[2\]\[1\] mem\[6\]\[1\] _0230_ _0272_ VDD VSS
+ MUX2_X1
X_0828_ mem\[3\]\[1\] mem\[7\]\[1\] _0230_ _0273_ VDD VSS
+ MUX2_X1
X_0829_ _0272_ _0273_ _0227_ _0274_ VDD VSS MUX2_X1
X_0830_ _0271_ _0274_ _0238_ _0275_ VDD VSS MUX2_X1
X_0831_ _0268_ _0275_ _0241_ _0276_ VDD VSS MUX2_X1
X_0832_ rd_data_reg\[1\] _0276_ _0225_ _0277_ VDD VSS MUX2_X1
X_0833_ _0261_ _0277_ _0133_ VDD VSS AND2_X1
X_0834_ _0230_ _0278_ VDD VSS BUF_X4
X_0835_ mem\[2\]\[2\] mem\[6\]\[2\] _0278_ _0279_ VDD VSS
+ MUX2_X1
X_0836_ mem\[3\]\[2\] mem\[7\]\[2\] _0231_ _0280_ VDD VSS
+ MUX2_X1
X_0837_ _0279_ _0280_ _0229_ _0281_ VDD VSS MUX2_X1
X_0838_ mem\[0\]\[2\] mem\[4\]\[2\] _0243_ _0282_ VDD VSS
+ MUX2_X1
X_0839_ mem\[1\]\[2\] mem\[5\]\[2\] _0243_ _0283_ VDD VSS
+ MUX2_X1
X_0840_ _0227_ _0284_ VDD VSS BUF_X4
X_0841_ _0282_ _0283_ _0284_ _0285_ VDD VSS MUX2_X1
X_0842_ _0242_ _0281_ _0285_ _0240_ _0286_ VDD VSS OAI22_X2
X_0843_ mem\[8\]\[2\] mem\[10\]\[2\] _0238_ _0287_ VDD VSS
+ MUX2_X1
X_0844_ mem\[9\]\[2\] mem\[11\]\[2\] _0238_ _0288_ VDD VSS
+ MUX2_X1
X_0845_ _0287_ _0288_ _0229_ _0289_ VDD VSS MUX2_X1
X_0846_ _0255_ _0239_ _0290_ VDD VSS NAND2_X2
X_0847_ _0231_ _0239_ _0291_ VDD VSS NAND2_X2
X_0848_ mem\[12\]\[2\] mem\[14\]\[2\] _0253_ _0292_ VDD VSS
+ MUX2_X1
X_0849_ mem\[13\]\[2\] mem\[15\]\[2\] _0253_ _0293_ VDD VSS
+ MUX2_X1
X_0850_ _0292_ _0293_ _0228_ _0294_ VDD VSS MUX2_X1
X_0851_ _0289_ _0290_ _0291_ _0294_ _0295_ VDD VSS OAI22_X1
X_0852_ _0286_ _0295_ _0296_ VDD VSS NOR2_X1
X_0853_ rd_data_reg\[2\] _0296_ _0225_ _0297_ VDD VSS MUX2_X1
X_0854_ _0261_ _0297_ _0134_ VDD VSS AND2_X1
X_0855_ mem\[2\]\[3\] mem\[6\]\[3\] _0278_ _0298_ VDD VSS
+ MUX2_X1
X_0856_ mem\[3\]\[3\] mem\[7\]\[3\] _0231_ _0299_ VDD VSS
+ MUX2_X1
X_0857_ _0298_ _0299_ _0229_ _0300_ VDD VSS MUX2_X1
X_0858_ mem\[0\]\[3\] mem\[4\]\[3\] _0243_ _0301_ VDD VSS
+ MUX2_X1
X_0859_ mem\[1\]\[3\] mem\[5\]\[3\] _0243_ _0302_ VDD VSS
+ MUX2_X1
X_0860_ _0301_ _0302_ _0284_ _0303_ VDD VSS MUX2_X1
X_0861_ _0242_ _0300_ _0303_ _0240_ _0304_ VDD VSS OAI22_X2
X_0862_ _0237_ _0305_ VDD VSS BUF_X4
X_0863_ mem\[12\]\[3\] mem\[14\]\[3\] _0305_ _0306_ VDD VSS
+ MUX2_X1
X_0864_ mem\[13\]\[3\] mem\[15\]\[3\] _0238_ _0307_ VDD VSS
+ MUX2_X1
X_0865_ _0306_ _0307_ _0284_ _0308_ VDD VSS MUX2_X1
X_0866_ mem\[8\]\[3\] mem\[10\]\[3\] _0253_ _0309_ VDD VSS
+ MUX2_X1
X_0867_ mem\[9\]\[3\] mem\[11\]\[3\] _0305_ _0310_ VDD VSS
+ MUX2_X1
X_0868_ _0309_ _0310_ _0228_ _0311_ VDD VSS MUX2_X1
X_0869_ _0291_ _0308_ _0311_ _0290_ _0312_ VDD VSS OAI22_X1
X_0870_ _0304_ _0312_ _0313_ VDD VSS NOR2_X1
X_0871_ rd_data_reg\[3\] _0313_ _0225_ _0314_ VDD VSS MUX2_X1
X_0872_ _0261_ _0314_ _0135_ VDD VSS AND2_X1
X_0873_ mem\[2\]\[4\] mem\[6\]\[4\] _0278_ _0315_ VDD VSS
+ MUX2_X1
X_0874_ mem\[3\]\[4\] mem\[7\]\[4\] _0278_ _0316_ VDD VSS
+ MUX2_X1
X_0875_ _0315_ _0316_ _0229_ _0317_ VDD VSS MUX2_X1
X_0876_ mem\[0\]\[4\] mem\[4\]\[4\] _0243_ _0318_ VDD VSS
+ MUX2_X1
X_0877_ mem\[1\]\[4\] mem\[5\]\[4\] _0243_ _0319_ VDD VSS
+ MUX2_X1
X_0878_ _0318_ _0319_ _0284_ _0320_ VDD VSS MUX2_X1
X_0879_ _0242_ _0317_ _0320_ _0240_ _0321_ VDD VSS OAI22_X2
X_0880_ mem\[12\]\[4\] mem\[14\]\[4\] _0305_ _0322_ VDD VSS
+ MUX2_X1
X_0881_ mem\[13\]\[4\] mem\[15\]\[4\] _0238_ _0323_ VDD VSS
+ MUX2_X1
X_0882_ _0322_ _0323_ _0284_ _0324_ VDD VSS MUX2_X1
X_0883_ mem\[8\]\[4\] mem\[10\]\[4\] _0253_ _0325_ VDD VSS
+ MUX2_X1
X_0884_ mem\[9\]\[4\] mem\[11\]\[4\] _0305_ _0326_ VDD VSS
+ MUX2_X1
X_0885_ _0325_ _0326_ _0228_ _0327_ VDD VSS MUX2_X1
X_0886_ _0291_ _0324_ _0327_ _0290_ _0328_ VDD VSS OAI22_X1
X_0887_ _0321_ _0328_ _0329_ VDD VSS NOR2_X1
X_0888_ rd_data_reg\[4\] _0329_ _0224_ _0330_ VDD VSS MUX2_X1
X_0889_ _0261_ _0330_ _0136_ VDD VSS AND2_X1
X_0890_ mem\[2\]\[5\] mem\[6\]\[5\] _0278_ _0331_ VDD VSS
+ MUX2_X1
X_0891_ mem\[3\]\[5\] mem\[7\]\[5\] _0278_ _0332_ VDD VSS
+ MUX2_X1
X_0892_ _0331_ _0332_ _0229_ _0333_ VDD VSS MUX2_X1
X_0893_ mem\[0\]\[5\] mem\[4\]\[5\] _0230_ _0334_ VDD VSS
+ MUX2_X1
X_0894_ mem\[1\]\[5\] mem\[5\]\[5\] _0243_ _0335_ VDD VSS
+ MUX2_X1
X_0895_ _0334_ _0335_ _0284_ _0336_ VDD VSS MUX2_X1
X_0896_ _0242_ _0333_ _0336_ _0240_ _0337_ VDD VSS OAI22_X1
X_0897_ mem\[12\]\[5\] mem\[14\]\[5\] _0305_ _0338_ VDD VSS
+ MUX2_X1
X_0898_ mem\[13\]\[5\] mem\[15\]\[5\] _0238_ _0339_ VDD VSS
+ MUX2_X1
X_0899_ _0338_ _0339_ _0284_ _0340_ VDD VSS MUX2_X1
X_0900_ mem\[8\]\[5\] mem\[10\]\[5\] _0253_ _0341_ VDD VSS
+ MUX2_X1
X_0901_ mem\[9\]\[5\] mem\[11\]\[5\] _0305_ _0342_ VDD VSS
+ MUX2_X1
X_0902_ _0341_ _0342_ _0228_ _0343_ VDD VSS MUX2_X1
X_0903_ _0291_ _0340_ _0343_ _0290_ _0344_ VDD VSS OAI22_X1
X_0904_ _0337_ _0344_ _0345_ VDD VSS NOR2_X1
X_0905_ rd_data_reg\[5\] _0345_ _0224_ _0346_ VDD VSS MUX2_X1
X_0906_ _0261_ _0346_ _0137_ VDD VSS AND2_X1
X_0907_ mem\[2\]\[6\] mem\[6\]\[6\] _0278_ _0347_ VDD VSS
+ MUX2_X1
X_0908_ mem\[3\]\[6\] mem\[7\]\[6\] _0278_ _0348_ VDD VSS
+ MUX2_X1
X_0909_ _0347_ _0348_ _0229_ _0349_ VDD VSS MUX2_X1
X_0910_ mem\[0\]\[6\] mem\[4\]\[6\] _0230_ _0350_ VDD VSS
+ MUX2_X1
X_0911_ mem\[1\]\[6\] mem\[5\]\[6\] _0243_ _0351_ VDD VSS
+ MUX2_X1
X_0912_ _0350_ _0351_ _0284_ _0352_ VDD VSS MUX2_X1
X_0913_ _0242_ _0349_ _0352_ _0240_ _0353_ VDD VSS OAI22_X2
X_0914_ mem\[12\]\[6\] mem\[14\]\[6\] _0305_ _0354_ VDD VSS
+ MUX2_X1
X_0915_ mem\[13\]\[6\] mem\[15\]\[6\] _0305_ _0355_ VDD VSS
+ MUX2_X1
X_0916_ _0354_ _0355_ _0228_ _0356_ VDD VSS MUX2_X1
X_0917_ mem\[8\]\[6\] mem\[10\]\[6\] _0253_ _0357_ VDD VSS
+ MUX2_X1
X_0918_ mem\[9\]\[6\] mem\[11\]\[6\] _0253_ _0358_ VDD VSS
+ MUX2_X1
X_0919_ _0357_ _0358_ _0228_ _0359_ VDD VSS MUX2_X1
X_0920_ _0291_ _0356_ _0359_ _0290_ _0360_ VDD VSS OAI22_X1
X_0921_ _0353_ _0360_ _0361_ VDD VSS NOR2_X1
X_0922_ rd_data_reg\[6\] _0361_ _0224_ _0362_ VDD VSS MUX2_X1
X_0923_ _0261_ _0362_ _0138_ VDD VSS AND2_X1
X_0924_ mem\[2\]\[7\] mem\[6\]\[7\] _0278_ _0363_ VDD VSS
+ MUX2_X1
X_0925_ mem\[3\]\[7\] mem\[7\]\[7\] _0278_ _0364_ VDD VSS
+ MUX2_X1
X_0926_ _0363_ _0364_ _0284_ _0365_ VDD VSS MUX2_X1
X_0927_ mem\[0\]\[7\] mem\[4\]\[7\] _0230_ _0366_ VDD VSS
+ MUX2_X1
X_0928_ mem\[1\]\[7\] mem\[5\]\[7\] _0243_ _0367_ VDD VSS
+ MUX2_X1
X_0929_ _0366_ _0367_ _0284_ _0368_ VDD VSS MUX2_X1
X_0930_ _0242_ _0365_ _0368_ _0240_ _0369_ VDD VSS OAI22_X2
X_0931_ mem\[12\]\[7\] mem\[14\]\[7\] _0305_ _0370_ VDD VSS
+ MUX2_X1
X_0932_ mem\[13\]\[7\] mem\[15\]\[7\] _0305_ _0371_ VDD VSS
+ MUX2_X1
X_0933_ _0370_ _0371_ _0228_ _0372_ VDD VSS MUX2_X1
X_0934_ mem\[8\]\[7\] mem\[10\]\[7\] _0253_ _0373_ VDD VSS
+ MUX2_X1
X_0935_ mem\[9\]\[7\] mem\[11\]\[7\] _0253_ _0374_ VDD VSS
+ MUX2_X1
X_0936_ _0373_ _0374_ _0228_ _0375_ VDD VSS MUX2_X1
X_0937_ _0291_ _0372_ _0375_ _0290_ _0376_ VDD VSS OAI22_X1
X_0938_ _0369_ _0376_ _0377_ VDD VSS NOR2_X1
X_0939_ rd_data_reg\[7\] _0377_ _0224_ _0378_ VDD VSS MUX2_X1
X_0940_ _0261_ _0378_ _0139_ VDD VSS AND2_X1
X_0941_ _0229_ _0000_ _0224_ _0379_ VDD VSS MUX2_X1
X_0942_ _0261_ _0379_ _0140_ VDD VSS AND2_X1
X_0943_ _0238_ _0001_ _0224_ _0380_ VDD VSS MUX2_X1
X_0944_ _0261_ _0380_ _0141_ VDD VSS AND2_X1
X_0945_ _0255_ _0559_ _0260_ _0225_ _0381_ VDD VSS NAND4_X1
X_0946_ _0231_ _0260_ _0382_ VDD VSS NAND2_X1
X_0947_ _0559_ _0225_ _0383_ VDD VSS AND2_X1
X_0948_ _0381_ _0382_ _0383_ _0142_ VDD VSS OAI21_X1
X_0949_ _0239_ _0219_ _0384_ VDD VSS NOR2_X1
X_0950_ _0241_ _0219_ _0385_ VDD VSS NOR2_X1
X_0951_ _0229_ _0238_ _0231_ _0225_ _0386_ VDD VSS NAND4_X1
X_0952_ _0384_ _0385_ _0386_ _0143_ VDD VSS MUX2_X1
X_0953_ rd_ptr\[4\] _0219_ _0387_ VDD VSS NOR2_X1
X_0954_ rd_ptr\[4\] _0260_ _0388_ VDD VSS AND2_X1
X_0955_ _0231_ _0239_ _0559_ _0225_ _0389_ VDD VSS NAND4_X1
X_0956_ _0387_ _0388_ _0389_ _0144_ VDD VSS MUX2_X1
X_0957_ _0261_ _0225_ _0145_ VDD VSS AND2_X1
X_0958_ _0002_ _0260_ _0390_ VDD VSS AND2_X1
X_0959_ wr_ptr\[0\] _0260_ _0391_ VDD VSS AND2_X1
X_0960_ _0176_ _0170_ _0392_ VDD VSS NAND2_X1
X_0961_ _0390_ _0391_ _0392_ _0146_ VDD VSS MUX2_X1
X_0962_ _0003_ _0260_ _0393_ VDD VSS AND2_X1
X_0963_ wr_ptr\[1\] _0260_ _0394_ VDD VSS AND2_X1
X_0964_ _0393_ _0394_ _0392_ _0147_ VDD VSS MUX2_X1
X_0965_ _0173_ _0219_ _0395_ VDD VSS NOR2_X1
X_0966_ _0174_ _0219_ _0396_ VDD VSS NOR2_X1
X_0967_ _0176_ _0199_ _0170_ _0397_ VDD VSS NAND3_X1
X_0968_ _0395_ _0396_ _0397_ _0148_ VDD VSS MUX2_X1
X_0969_ wr_ptr\[3\] _0219_ _0398_ VDD VSS NOR2_X1
X_0970_ wr_ptr\[3\] _0260_ _0399_ VDD VSS AND2_X1
X_0971_ _0173_ wr_ptr\[1\] wr_ptr\[0\] _0400_ VDD VSS AND3_X1
X_0972_ _0176_ _0170_ _0400_ _0401_ VDD VSS NAND3_X1
X_0973_ _0398_ _0399_ _0401_ _0149_ VDD VSS MUX2_X1
X_0974_ wr_ptr\[4\] _0260_ _0402_ VDD VSS AND2_X1
X_0975_ wr_ptr\[4\] _0219_ _0403_ VDD VSS NOR2_X1
X_0976_ _0402_ _0403_ _0209_ _0150_ VDD VSS MUX2_X1
X_0977_ net9 net7 net8 _0404_ VDD VSS AOI21_X1
X_0978_ _0155_ _0165_ _0404_ net3 VDD VSS AND3_X2
X_0979_ net8 net9 _0405_ VDD VSS NAND2_X1
X_0980_ _0155_ _0165_ _0405_ net4 VDD VSS OAI21_X2
X_0981_ rd_valid _0406_ VDD VSS CLKBUF_X3
X_0982_ rd_data_reg\[0\] _0406_ net12 VDD VSS AND2_X1
X_0983_ rd_data_reg\[1\] _0406_ net13 VDD VSS AND2_X1
X_0984_ rd_data_reg\[2\] _0406_ net14 VDD VSS AND2_X1
X_0985_ rd_data_reg\[3\] _0406_ net15 VDD VSS AND2_X1
X_0986_ rd_data_reg\[4\] _0406_ net16 VDD VSS AND2_X4
X_0987_ rd_data_reg\[5\] _0406_ net17 VDD VSS AND2_X1
X_0988_ rd_data_reg\[6\] _0406_ net18 VDD VSS AND2_X4
X_0989_ rd_data_reg\[7\] _0406_ net19 VDD VSS AND2_X4
X_0990_ _0548_ wr_ptr\[1\] _0549_ _0550_ net8 VDD VSS FA_X1
X_0991_ _0551_ wr_ptr\[3\] _0552_ _0553_ VDD VSS HA_X1
X_0992_ _0548_ wr_ptr\[1\] _0554_ _0555_ VDD VSS HA_X1
X_0993_ _0556_ wr_ptr\[2\] _0557_ _0558_ VDD VSS HA_X1
X_0994_ rd_ptr\[0\] rd_ptr\[1\] _0559_ _0001_ VDD VSS HA_X1
X_0995_ _0002_ _0560_ _0561_ _0003_ VDD VSS HA_X1
X_0996_ _0002_ wr_ptr\[1\] _0562_ _0563_ VDD VSS HA_X1
X_0997_ wr_ptr\[0\] _0560_ _0564_ _0565_ VDD VSS HA_X1
X_0998_ wr_ptr\[0\] wr_ptr\[1\] _0566_ _0567_ VDD VSS HA_X1
X_0999_ rd_ptr\[0\] _0002_ _0568_ _0569_ VDD VSS HA_X1
X_1000_ net7 net20 VDD VSS BUF_X1
X_1001_ net8 net21 VDD VSS BUF_X1
X_1002_ net9 net22 VDD VSS BUF_X1
X_1003_ net10 net23 VDD VSS BUF_X1
X_1004_ net11 net24 VDD VSS BUF_X1
Xmem\[0\]\[0\]$_DFFE_PP_ _0004_ clknet_4_8_0_clk mem\[0\]\[0\]
+ _0547_ VDD VSS DFF_X1
Xmem\[0\]\[1\]$_DFFE_PP_ _0005_ clknet_4_10_0_clk mem\[0\]\[1\]
+ _0546_ VDD VSS DFF_X1
Xmem\[0\]\[2\]$_DFFE_PP_ _0006_ clknet_4_8_0_clk mem\[0\]\[2\]
+ _0545_ VDD VSS DFF_X1
Xmem\[0\]\[3\]$_DFFE_PP_ _0007_ clknet_4_2_0_clk mem\[0\]\[3\]
+ _0544_ VDD VSS DFF_X1
Xmem\[0\]\[4\]$_DFFE_PP_ _0008_ clknet_4_2_0_clk mem\[0\]\[4\]
+ _0543_ VDD VSS DFF_X1
Xmem\[0\]\[5\]$_DFFE_PP_ _0009_ clknet_4_3_0_clk mem\[0\]\[5\]
+ _0542_ VDD VSS DFF_X1
Xmem\[0\]\[6\]$_DFFE_PP_ _0010_ clknet_4_3_0_clk mem\[0\]\[6\]
+ _0541_ VDD VSS DFF_X1
Xmem\[0\]\[7\]$_DFFE_PP_ _0011_ clknet_4_2_0_clk mem\[0\]\[7\]
+ _0540_ VDD VSS DFF_X1
Xmem\[10\]\[0\]$_DFFE_PP_ _0012_ clknet_4_12_0_clk mem\[10\]\[0\]
+ _0539_ VDD VSS DFF_X1
Xmem\[10\]\[1\]$_DFFE_PP_ _0013_ clknet_4_14_0_clk mem\[10\]\[1\]
+ _0538_ VDD VSS DFF_X1
Xmem\[10\]\[2\]$_DFFE_PP_ _0014_ clknet_4_9_0_clk mem\[10\]\[2\]
+ _0537_ VDD VSS DFF_X1
Xmem\[10\]\[3\]$_DFFE_PP_ _0015_ clknet_4_12_0_clk mem\[10\]\[3\]
+ _0536_ VDD VSS DFF_X1
Xmem\[10\]\[4\]$_DFFE_PP_ _0016_ clknet_4_6_0_clk mem\[10\]\[4\]
+ _0535_ VDD VSS DFF_X1
Xmem\[10\]\[5\]$_DFFE_PP_ _0017_ clknet_4_6_0_clk mem\[10\]\[5\]
+ _0534_ VDD VSS DFF_X1
Xmem\[10\]\[6\]$_DFFE_PP_ _0018_ clknet_4_4_0_clk mem\[10\]\[6\]
+ _0533_ VDD VSS DFF_X1
Xmem\[10\]\[7\]$_DFFE_PP_ _0019_ clknet_4_4_0_clk mem\[10\]\[7\]
+ _0532_ VDD VSS DFF_X1
Xmem\[11\]\[0\]$_DFFE_PP_ _0020_ clknet_4_14_0_clk mem\[11\]\[0\]
+ _0531_ VDD VSS DFF_X1
Xmem\[11\]\[1\]$_DFFE_PP_ _0021_ clknet_4_14_0_clk mem\[11\]\[1\]
+ _0530_ VDD VSS DFF_X1
Xmem\[11\]\[2\]$_DFFE_PP_ _0022_ clknet_4_12_0_clk mem\[11\]\[2\]
+ _0529_ VDD VSS DFF_X1
Xmem\[11\]\[3\]$_DFFE_PP_ _0023_ clknet_4_12_0_clk mem\[11\]\[3\]
+ _0528_ VDD VSS DFF_X1
Xmem\[11\]\[4\]$_DFFE_PP_ _0024_ clknet_4_6_0_clk mem\[11\]\[4\]
+ _0527_ VDD VSS DFF_X1
Xmem\[11\]\[5\]$_DFFE_PP_ _0025_ clknet_4_7_0_clk mem\[11\]\[5\]
+ _0526_ VDD VSS DFF_X1
Xmem\[11\]\[6\]$_DFFE_PP_ _0026_ clknet_4_5_0_clk mem\[11\]\[6\]
+ _0525_ VDD VSS DFF_X1
Xmem\[11\]\[7\]$_DFFE_PP_ _0027_ clknet_4_4_0_clk mem\[11\]\[7\]
+ _0524_ VDD VSS DFF_X1
Xmem\[12\]\[0\]$_DFFE_PP_ _0028_ clknet_4_13_0_clk mem\[12\]\[0\]
+ _0523_ VDD VSS DFF_X1
Xmem\[12\]\[1\]$_DFFE_PP_ _0029_ clknet_4_14_0_clk mem\[12\]\[1\]
+ _0522_ VDD VSS DFF_X1
Xmem\[12\]\[2\]$_DFFE_PP_ _0030_ clknet_4_12_0_clk mem\[12\]\[2\]
+ _0521_ VDD VSS DFF_X1
Xmem\[12\]\[3\]$_DFFE_PP_ _0031_ clknet_4_13_0_clk mem\[12\]\[3\]
+ _0520_ VDD VSS DFF_X1
Xmem\[12\]\[4\]$_DFFE_PP_ _0032_ clknet_4_7_0_clk mem\[12\]\[4\]
+ _0519_ VDD VSS DFF_X1
Xmem\[12\]\[5\]$_DFFE_PP_ _0033_ clknet_4_7_0_clk mem\[12\]\[5\]
+ _0518_ VDD VSS DFF_X1
Xmem\[12\]\[6\]$_DFFE_PP_ _0034_ clknet_4_5_0_clk mem\[12\]\[6\]
+ _0517_ VDD VSS DFF_X1
Xmem\[12\]\[7\]$_DFFE_PP_ _0035_ clknet_4_5_0_clk mem\[12\]\[7\]
+ _0516_ VDD VSS DFF_X1
Xmem\[13\]\[0\]$_DFFE_PP_ _0036_ clknet_4_12_0_clk mem\[13\]\[0\]
+ _0515_ VDD VSS DFF_X1
Xmem\[13\]\[1\]$_DFFE_PP_ _0037_ clknet_4_14_0_clk mem\[13\]\[1\]
+ _0514_ VDD VSS DFF_X1
Xmem\[13\]\[2\]$_DFFE_PP_ _0038_ clknet_4_12_0_clk mem\[13\]\[2\]
+ _0513_ VDD VSS DFF_X1
Xmem\[13\]\[3\]$_DFFE_PP_ _0039_ clknet_4_7_0_clk mem\[13\]\[3\]
+ _0512_ VDD VSS DFF_X1
Xmem\[13\]\[4\]$_DFFE_PP_ _0040_ clknet_4_7_0_clk mem\[13\]\[4\]
+ _0511_ VDD VSS DFF_X1
Xmem\[13\]\[5\]$_DFFE_PP_ _0041_ clknet_4_7_0_clk mem\[13\]\[5\]
+ _0510_ VDD VSS DFF_X1
Xmem\[13\]\[6\]$_DFFE_PP_ _0042_ clknet_4_5_0_clk mem\[13\]\[6\]
+ _0509_ VDD VSS DFF_X1
Xmem\[13\]\[7\]$_DFFE_PP_ _0043_ clknet_4_5_0_clk mem\[13\]\[7\]
+ _0508_ VDD VSS DFF_X1
Xmem\[14\]\[0\]$_DFFE_PP_ _0044_ clknet_4_13_0_clk mem\[14\]\[0\]
+ _0507_ VDD VSS DFF_X1
Xmem\[14\]\[1\]$_DFFE_PP_ _0045_ clknet_4_15_0_clk mem\[14\]\[1\]
+ _0506_ VDD VSS DFF_X1
Xmem\[14\]\[2\]$_DFFE_PP_ _0046_ clknet_4_7_0_clk mem\[14\]\[2\]
+ _0505_ VDD VSS DFF_X1
Xmem\[14\]\[3\]$_DFFE_PP_ _0047_ clknet_4_13_0_clk mem\[14\]\[3\]
+ _0504_ VDD VSS DFF_X1
Xmem\[14\]\[4\]$_DFFE_PP_ _0048_ clknet_4_7_0_clk mem\[14\]\[4\]
+ _0503_ VDD VSS DFF_X1
Xmem\[14\]\[5\]$_DFFE_PP_ _0049_ clknet_4_5_0_clk mem\[14\]\[5\]
+ _0502_ VDD VSS DFF_X1
Xmem\[14\]\[6\]$_DFFE_PP_ _0050_ clknet_4_5_0_clk mem\[14\]\[6\]
+ _0501_ VDD VSS DFF_X1
Xmem\[14\]\[7\]$_DFFE_PP_ _0051_ clknet_4_5_0_clk mem\[14\]\[7\]
+ _0500_ VDD VSS DFF_X1
Xmem\[15\]\[0\]$_DFFE_PP_ _0052_ clknet_4_13_0_clk mem\[15\]\[0\]
+ _0499_ VDD VSS DFF_X1
Xmem\[15\]\[1\]$_DFFE_PP_ _0053_ clknet_4_14_0_clk mem\[15\]\[1\]
+ _0498_ VDD VSS DFF_X1
Xmem\[15\]\[2\]$_DFFE_PP_ _0054_ clknet_4_12_0_clk mem\[15\]\[2\]
+ _0497_ VDD VSS DFF_X1
Xmem\[15\]\[3\]$_DFFE_PP_ _0055_ clknet_4_7_0_clk mem\[15\]\[3\]
+ _0496_ VDD VSS DFF_X1
Xmem\[15\]\[4\]$_DFFE_PP_ _0056_ clknet_4_7_0_clk mem\[15\]\[4\]
+ _0495_ VDD VSS DFF_X1
Xmem\[15\]\[5\]$_DFFE_PP_ _0057_ clknet_4_7_0_clk mem\[15\]\[5\]
+ _0494_ VDD VSS DFF_X1
Xmem\[15\]\[6\]$_DFFE_PP_ _0058_ clknet_4_5_0_clk mem\[15\]\[6\]
+ _0493_ VDD VSS DFF_X1
Xmem\[15\]\[7\]$_DFFE_PP_ _0059_ clknet_4_5_0_clk mem\[15\]\[7\]
+ _0492_ VDD VSS DFF_X1
Xmem\[1\]\[0\]$_DFFE_PP_ _0060_ clknet_4_9_0_clk mem\[1\]\[0\]
+ _0491_ VDD VSS DFF_X1
Xmem\[1\]\[1\]$_DFFE_PP_ _0061_ clknet_4_10_0_clk mem\[1\]\[1\]
+ _0490_ VDD VSS DFF_X1
Xmem\[1\]\[2\]$_DFFE_PP_ _0062_ clknet_4_8_0_clk mem\[1\]\[2\]
+ _0489_ VDD VSS DFF_X1
Xmem\[1\]\[3\]$_DFFE_PP_ _0063_ clknet_4_2_0_clk mem\[1\]\[3\]
+ _0488_ VDD VSS DFF_X1
Xmem\[1\]\[4\]$_DFFE_PP_ _0064_ clknet_4_2_0_clk mem\[1\]\[4\]
+ _0487_ VDD VSS DFF_X1
Xmem\[1\]\[5\]$_DFFE_PP_ _0065_ clknet_4_3_0_clk mem\[1\]\[5\]
+ _0486_ VDD VSS DFF_X1
Xmem\[1\]\[6\]$_DFFE_PP_ _0066_ clknet_4_3_0_clk mem\[1\]\[6\]
+ _0485_ VDD VSS DFF_X1
Xmem\[1\]\[7\]$_DFFE_PP_ _0067_ clknet_4_2_0_clk mem\[1\]\[7\]
+ _0484_ VDD VSS DFF_X1
Xmem\[2\]\[0\]$_DFFE_PP_ _0068_ clknet_4_10_0_clk mem\[2\]\[0\]