
* cell final_spi_master
* pin spi_cs_n
* pin tx_data[0]
* pin tx_valid
* pin tx_data[1]
* pin tx_data[2]
* pin rst_n
* pin tx_data[3]
* pin tx_data[4]
* pin tx_data[6]
* pin tx_data[5]
* pin PWELL
* pin NWELL
* pin tx_data[7]
* pin tx_ready
* pin spi_clk
* pin spi_mosi
* pin rx_data[6]
* pin rx_data[3]
* pin clk
* pin rx_data[2]
* pin rx_data[5]
* pin rx_data[1]
* pin rx_valid
* pin rx_data[0]
* pin spi_miso
* pin rx_data[4]
* pin rx_data[7]
.SUBCKT final_spi_master 1 2 3 4 5 6 7 8 9 10 20 31 72 80 81 103 112 127 130
+ 169 201 224 234 239 240 241 242
* net 1 spi_cs_n
* net 2 tx_data[0]
* net 3 tx_valid
* net 4 tx_data[1]
* net 5 tx_data[2]
* net 6 rst_n
* net 7 tx_data[3]
* net 8 tx_data[4]
* net 9 tx_data[6]
* net 10 tx_data[5]
* net 20 PWELL
* net 31 NWELL
* net 72 tx_data[7]
* net 80 tx_ready
* net 81 spi_clk
* net 103 spi_mosi
* net 112 rx_data[6]
* net 127 rx_data[3]
* net 130 clk
* net 169 rx_data[2]
* net 201 rx_data[5]
* net 224 rx_data[1]
* net 234 rx_valid
* net 239 rx_data[0]
* net 240 spi_miso
* net 241 rx_data[4]
* net 242 rx_data[7]
* cell instance $2 r0 *1 9.69,1.4
X$2 54 20 31 1 BUF_X1
* cell instance $12 r0 *1 13.49,1.4
X$12 2 20 31 21 BUF_X1
* cell instance $18 r0 *1 14.06,1.4
X$18 3 20 31 35 BUF_X1
* cell instance $20 r0 *1 14.63,1.4
X$20 4 20 31 11 BUF_X1
* cell instance $26 r0 *1 18.62,1.4
X$26 5 20 31 15 BUF_X1
* cell instance $32 r0 *1 20.9,1.4
X$32 6 20 31 17 BUF_X2
* cell instance $42 r0 *1 21.85,1.4
X$42 7 20 31 23 BUF_X1
* cell instance $44 r0 *1 24.7,1.4
X$44 8 20 31 18 BUF_X1
* cell instance $51 r0 *1 27.17,1.4
X$51 9 20 31 29 BUF_X1
* cell instance $59 r0 *1 26.6,1.4
X$59 10 20 31 32 BUF_X1
* cell instance $63 r0 *1 15.77,1.4
X$63 11 14 36 20 31 13 MUX2_X1
* cell instance $65 m0 *1 20.33,4.2
X$65 45 12 44 20 31 47 MUX2_X1
* cell instance $68 m0 *1 29.26,12.6
X$68 85 12 87 20 31 101 MUX2_X1
* cell instance $70 m0 *1 15.58,9.8
X$70 78 33 67 20 12 31 NAND3_X4
* cell instance $79 m0 *1 26.41,4.2
X$79 27 12 28 20 31 30 MUX2_X1
* cell instance $81 r0 *1 23.37,1.4
X$81 24 12 19 20 31 25 MUX2_X1
* cell instance $83 r0 *1 17.1,1.4
X$83 13 12 16 20 31 22 MUX2_X1
* cell instance $85 r0 *1 16.72,4.2
X$85 12 36 20 31 57 NAND2_X1
* cell instance $87 m0 *1 27.36,9.8
X$87 63 12 73 20 31 76 MUX2_X1
* cell instance $90 m0 *1 26.41,7
X$90 41 12 38 20 31 53 MUX2_X1
* cell instance $94 r0 *1 25.27,1.4
X$94 18 14 19 20 31 27 MUX2_X1
* cell instance $96 r0 *1 27.17,7
X$96 29 14 38 20 31 63 MUX2_X1
* cell instance $99 r0 *1 23.37,9.8
X$99 62 20 31 14 CLKBUF_X3
* cell instance $102 m0 *1 22.23,4.2
X$102 23 14 44 20 31 24 MUX2_X1
* cell instance $114 r0 *1 19.38,1.4
X$114 15 14 16 20 31 45 MUX2_X1
* cell instance $117 r0 *1 18.43,9.8
X$117 69 93 14 31 60 20 OAI21_X1
* cell instance $119 m0 *1 25.08,4.2
X$119 32 14 28 20 31 41 MUX2_X1
* cell instance $122 r0 *1 13.87,9.8
X$122 69 14 91 20 31 89 MUX2_X1
* cell instance $126 r0 *1 29.64,9.8
X$126 90 14 73 20 31 85 MUX2_X1
* cell instance $128 m0 *1 14.06,9.8
X$128 59 14 20 31 78 NAND2_X1
* cell instance $137 m0 *1 16.72,4.2
X$137 20 254 16 43 42 31 DFF_X1
* cell instance $139 r0 *1 21.85,9.8
X$139 17 50 62 31 20 94 OAI21_X2
* cell instance $141 r0 *1 21.85,23.8
X$141 17 136 31 20 197 AND2_X1
* cell instance $143 r0 *1 21.09,23.8
X$143 136 17 20 31 196 NAND2_X1
* cell instance $145 m0 *1 22.42,9.8
X$145 17 20 31 26 BUF_X2
* cell instance $147 m0 *1 22.42,7
X$147 17 20 31 51 INV_X4
* cell instance $153 r0 *1 23.75,4.2
X$153 20 270 19 37 39 31 DFF_X1
* cell instance $158 m0 *1 26.98,21
X$158 166 123 183 31 173 20 OAI21_X1
* cell instance $163 r0 *1 26.98,21
X$163 194 99 191 20 31 183 NAND3_X1
* cell instance $165 r0 *1 28.5,21
X$165 20 266 191 173 117 31 DFF_X1
* cell instance $166 m0 *1 32.49,21
X$166 110 182 31 20 168 AND2_X1
* cell instance $167 m0 *1 31.16,21
X$167 167 100 155 20 31 182 MUX2_X1
* cell instance $172 r0 *1 31.73,21
X$172 71 20 31 117 CLKBUF_X3
* cell instance $173 r0 *1 32.68,21
X$173 110 192 31 20 208 AND2_X1
* cell instance $177 m0 *1 11.78,23.8
X$177 20 178 161 186 213 31 DFF_X1
* cell instance $182 m0 *1 19,23.8
X$182 187 20 31 203 INV_X1
* cell instance $184 m0 *1 19.57,23.8
X$184 202 136 160 20 31 195 NAND3_X1
* cell instance $185 m0 *1 20.33,23.8
X$185 99 195 187 20 31 206 NAND3_X1
* cell instance $186 m0 *1 21.09,23.8
X$186 202 188 180 20 31 205 NAND3_X1
* cell instance $189 m0 *1 23.56,23.8
X$189 94 136 20 31 214 NOR2_X1
* cell instance $190 m0 *1 24.13,23.8
X$190 136 150 185 31 20 209 AND3_X1
* cell instance $192 m0 *1 25.27,23.8
X$192 199 20 31 198 INV_X1
* cell instance $193 m0 *1 25.65,23.8
X$193 94 198 209 152 153 166 20 31 210 OAI33_X1
* cell instance $195 m0 *1 27.17,23.8
X$195 20 253 199 210 117 31 DFF_X1
* cell instance $197 m0 *1 31.16,23.8
X$197 207 100 191 20 31 192 MUX2_X1
* cell instance $198 m0 *1 32.49,23.8
X$198 20 249 207 208 117 31 DFF_X1
* cell instance $215 r0 *1 19,23.8
X$215 203 134 205 20 31 204 MUX2_X1
* cell instance $216 r0 *1 20.33,23.8
X$216 204 196 206 31 217 20 OAI21_X1
* cell instance $219 r0 *1 22.99,23.8
X$219 197 180 20 31 211 NAND2_X1
* cell instance $222 r0 *1 24.13,23.8
X$222 196 153 190 20 31 212 OR3_X1
* cell instance $225 r0 *1 31.35,23.8
X$225 218 100 199 20 31 200 MUX2_X1
* cell instance $226 r0 *1 32.68,23.8
X$226 110 200 31 20 216 AND2_X1
* cell instance $229 r0 *1 35.15,23.8
X$229 207 20 31 201 BUF_X1
* cell instance $239 r0 *1 27.93,1.4
X$239 26 30 31 20 40 AND2_X1
* cell instance $245 m0 *1 22.42,35
X$245 237 20 31 241 BUF_X1
* cell instance $247 m0 *1 26.22,35
X$247 238 20 31 242 BUF_X1
* cell instance $252 m0 *1 15.58,35
X$252 231 20 31 239 BUF_X1
* cell instance $256 m0 *1 19.95,35
X$256 240 20 31 180 BUF_X1
* cell instance $259 m0 *1 1.9,12.6
X$259 82 20 31 81 BUF_X1
* cell instance $272 m0 *1 10.45,12.6
X$272 20 91 82 88 42 31 DFF_X1
* cell instance $273 m0 *1 13.68,12.6
X$273 82 31 69 20 BUF_X4
* cell instance $274 m0 *1 15.01,12.6
X$274 42 20 31 247 INV_X1
* cell instance $275 m0 *1 15.39,12.6
X$275 52 58 20 31 95 NAND2_X1
* cell instance $277 r0 *1 13.49,12.6
X$277 100 51 20 31 48 NOR2_X1
* cell instance $280 r0 *1 15.01,12.6
X$280 20 96 42 70 98 31 DFF_X2
* cell instance $281 m0 *1 16.91,12.6
X$281 84 95 122 83 20 31 104 AOI22_X1
* cell instance $282 m0 *1 16.34,12.6
X$282 104 51 20 31 96 NOR2_X1
* cell instance $284 m0 *1 18.81,12.6
X$284 93 20 31 97 INV_X1
* cell instance $285 m0 *1 18.24,12.6
X$285 58 69 20 31 83 NOR2_X1
* cell instance $286 m0 *1 19.19,12.6
X$286 26 97 83 31 20 105 AND3_X1
* cell instance $288 r0 *1 18.62,12.6
X$288 98 97 244 31 20 135 HA_X1
* cell instance $290 m0 *1 20.52,12.6
X$290 51 52 58 20 99 31 AOI21_X2
* cell instance $291 r0 *1 20.52,12.6
X$291 20 272 106 105 39 31 DFF_X1
* cell instance $293 m0 *1 22.42,12.6
X$293 58 69 84 31 107 20 NOR3_X2
* cell instance $298 m0 *1 30.59,12.6
X$298 20 257 87 86 39 31 DFF_X1
* cell instance $300 m0 *1 34.58,12.6
X$300 87 20 31 103 BUF_X1
* cell instance $302 r0 *1 23.75,12.6
X$302 106 20 31 100 CLKBUF_X3
* cell instance $308 r0 *1 30.59,12.6
X$308 110 101 31 20 86 AND2_X1
* cell instance $311 r0 *1 32.49,12.6
X$311 20 279 102 113 39 31 DFF_X1
* cell instance $316 m0 *1 16.15,26.6
X$316 20 258 187 217 213 31 DFF_X1
* cell instance $318 m0 *1 20.33,26.6
X$318 223 20 31 221 INV_X1
* cell instance $319 m0 *1 20.71,26.6
X$319 213 20 31 246 INV_X1
* cell instance $320 m0 *1 21.09,26.6
X$320 71 20 31 213 CLKBUF_X3
* cell instance $322 m0 *1 22.23,26.6
X$322 221 222 189 211 31 20 226 OAI22_X1
* cell instance $323 m0 *1 23.18,26.6
X$323 214 197 189 20 222 31 AOI21_X1
* cell instance $324 m0 *1 23.94,26.6
X$324 214 197 190 20 219 31 AOI21_X1
* cell instance $325 m0 *1 24.7,26.6
X$325 220 219 212 31 215 20 OAI21_X1
* cell instance $326 m0 *1 25.46,26.6
X$326 225 20 31 220 INV_X1
* cell instance $344 r0 *1 17.1,26.6
X$344 231 100 187 20 31 227 MUX2_X1
* cell instance $345 r0 *1 18.43,26.6
X$345 110 227 31 20 229 AND2_X1
* cell instance $348 r0 *1 20.14,26.6
X$348 20 264 223 226 213 31 DFF_X1
* cell instance $351 r0 *1 24.32,26.6
X$351 20 276 225 215 213 31 DFF_X1
* cell instance $353 m0 *1 32.49,26.6
X$353 20 250 218 216 117 31 DFF_X1
* cell instance $357 r0 *1 35.15,26.6
X$357 218 20 31 224 BUF_X1
* cell instance $379 r0 *1 13.49,4.2
X$379 20 261 36 34 42 31 DFF_X1
* cell instance $383 r0 *1 18.05,4.2
X$383 26 22 31 20 43 AND2_X1
* cell instance $385 r0 *1 19.19,4.2
X$385 26 47 31 20 46 AND2_X1
* cell instance $386 r0 *1 19.95,4.2
X$386 20 265 44 46 39 31 DFF_X1
* cell instance $393 m0 *1 23.75,4.2
X$393 26 25 31 20 37 AND2_X1
* cell instance $397 m0 *1 27.74,4.2
X$397 20 248 28 40 39 31 DFF_X1
* cell instance $419 r0 *1 3.04,9.8
X$419 68 20 31 80 BUF_X1
* cell instance $422 r0 *1 7.41,9.8
X$422 20 268 68 74 42 31 DFF_X1
* cell instance $423 m0 *1 9.5,9.8
X$423 75 33 20 31 74 NAND2_X1
* cell instance $425 m0 *1 10.07,9.8
X$425 54 50 20 31 64 NAND2_X1
* cell instance $427 m0 *1 10.83,9.8
X$427 51 68 50 20 75 31 AOI21_X1
* cell instance $431 m0 *1 14.63,9.8
X$431 71 20 31 42 CLKBUF_X3
* cell instance $435 r0 *1 12.92,9.8
X$435 50 48 89 31 20 88 AND3_X1
* cell instance $436 r0 *1 15.2,9.8
X$436 91 92 69 31 59 20 OAI21_X1
* cell instance $437 r0 *1 15.96,9.8
X$437 70 93 245 31 20 92 HA_X1
* cell instance $440 m0 *1 19.19,9.8
X$440 20 256 62 79 39 31 DFF_X1
* cell instance $441 m0 *1 18.43,9.8
X$441 51 60 61 20 79 31 AOI21_X1
* cell instance $442 m0 *1 23.18,9.8
X$442 62 20 31 58 INV_X2
* cell instance $452 r0 *1 25.65,9.8
X$452 26 76 31 20 77 AND2_X1
* cell instance $453 m0 *1 25.65,9.8
X$453 71 20 31 39 CLKBUF_X3
* cell instance $454 m0 *1 26.6,9.8
X$454 39 20 31 CLKBUF_X1
* cell instance $460 r0 *1 26.41,9.8
X$460 20 275 73 77 39 31 DFF_X1
* cell instance $461 r0 *1 30.97,9.8
X$461 72 20 31 90 BUF_X1
* cell instance $471 m0 *1 12.16,18.2
X$471 139 31 121 20 BUF_X4
* cell instance $472 m0 *1 13.49,18.2
X$472 121 133 20 31 120 XNOR2_X2
* cell instance $473 m0 *1 15.39,18.2
X$473 133 121 31 145 20 XOR2_X2
* cell instance $474 m0 *1 17.1,18.2
X$474 143 20 31 122 CLKBUF_X2
* cell instance $476 m0 *1 18.05,18.2
X$476 122 148 144 20 31 146 NAND3_X1
* cell instance $477 m0 *1 18.81,18.2
X$477 146 145 115 135 20 31 134 NOR4_X1
* cell instance $478 m0 *1 19.76,18.2
X$478 20 135 115 157 158 151 31 NOR4_X4
* cell instance $479 m0 *1 23.18,18.2
X$479 120 122 20 31 150 NOR2_X1
* cell instance $480 m0 *1 23.75,18.2
X$480 151 137 94 107 132 20 31 OAI211_X2
* cell instance $481 m0 *1 25.46,18.2
X$481 132 120 122 20 31 175 NOR3_X1
* cell instance $482 m0 *1 26.22,18.2
X$482 153 51 20 31 142 NOR2_X1
* cell instance $483 m0 *1 26.79,18.2
X$483 137 26 20 31 138 NAND2_X1
* cell instance $485 m0 *1 27.55,18.2
X$485 141 154 142 20 31 116 MUX2_X1
* cell instance $486 m0 *1 28.88,18.2
X$486 124 99 31 20 141 AND2_X1
* cell instance $488 m0 *1 31.16,18.2
X$488 125 100 124 20 31 140 MUX2_X1
* cell instance $489 m0 *1 32.49,18.2
X$489 110 140 31 20 126 AND2_X1
* cell instance $501 r0 *1 10.64,18.2
X$501 170 51 20 31 171 NOR2_X1
* cell instance $505 r0 *1 12.54,18.2
X$505 95 159 20 31 147 NAND2_X1
* cell instance $506 r0 *1 13.11,18.2
X$506 147 136 148 20 31 170 MUX2_X1
* cell instance $509 r0 *1 15.58,18.2
X$509 160 159 121 20 31 172 NAND3_X1
* cell instance $510 r0 *1 16.34,18.2
X$510 70 172 143 31 20 165 HA_X1
* cell instance $511 r0 *1 18.24,18.2
X$511 149 144 20 31 184 NAND2_X1
* cell instance $512 r0 *1 18.81,18.2
X$512 144 149 20 31 158 OR2_X2
* cell instance $513 r0 *1 19.76,18.2
X$513 165 164 20 31 157 NAND2_X2
* cell instance $515 r0 *1 23.75,18.2
X$515 145 122 20 31 179 NOR2_X1
* cell instance $516 r0 *1 24.32,18.2
X$516 150 107 20 31 152 NAND2_X1
* cell instance $517 r0 *1 24.89,18.2
X$517 152 163 160 20 31 154 NOR3_X1
* cell instance $518 r0 *1 25.65,18.2
X$518 94 174 175 152 153 138 20 31 156 OAI33_X1
* cell instance $520 r0 *1 27.17,18.2
X$520 155 20 31 174 INV_X1
* cell instance $522 r0 *1 27.93,18.2
X$522 20 263 155 156 117 31 DFF_X1
* cell instance $524 r0 *1 31.92,18.2
X$524 20 271 167 168 117 31 DFF_X1
* cell instance $525 r0 *1 35.15,18.2
X$525 167 20 31 169 BUF_X1
* cell instance $544 m0 *1 35.15,32.2
X$544 233 20 31 234 BUF_X1
* cell instance $556 m0 *1 15.96,29.4
X$556 20 255 231 229 213 31 DFF_X1
* cell instance $558 m0 *1 20.71,29.4
X$558 110 230 31 20 235 AND2_X1
* cell instance $560 m0 *1 22.23,29.4
X$560 237 100 223 20 31 230 MUX2_X1
* cell instance $564 m0 *1 26.03,29.4
X$564 238 100 225 20 31 228 MUX2_X1
* cell instance $573 r0 *1 19.95,29.4
X$573 20 274 237 235 213 31 DFF_X1
* cell instance $574 r0 *1 23.18,29.4
X$574 20 277 238 236 213 31 DFF_X1
* cell instance $575 r0 *1 26.41,29.4
X$575 110 228 31 20 236 AND2_X1
* cell instance $578 m0 *1 31.73,29.4
X$578 110 100 31 20 232 AND2_X1
* cell instance $584 r0 *1 32.49,29.4
X$584 20 278 233 232 117 31 DFF_X1
* cell instance $605 m0 *1 9.31,21
X$605 20 251 159 171 213 31 DFF_X1
* cell instance $609 r0 *1 12.92,21
X$609 193 51 20 31 186 NOR2_X1
* cell instance $610 m0 *1 13.49,21
X$610 161 159 163 31 20 133 HA_X1
* cell instance $611 m0 *1 12.92,21
X$611 95 160 20 31 176 NAND2_X1
* cell instance $614 r0 *1 13.49,21
X$614 176 136 160 20 31 193 MUX2_X1
* cell instance $615 r0 *1 14.82,21
X$615 161 20 31 160 BUF_X2
* cell instance $617 m0 *1 17.29,21
X$617 70 162 149 31 20 164 HA_X1
* cell instance $618 m0 *1 16.53,21
X$618 84 172 20 31 162 OR2_X1
* cell instance $622 r0 *1 19.19,21
X$622 158 157 184 177 31 20 202 OAI22_X2
* cell instance $623 m0 *1 19.95,21
X$623 164 165 20 31 177 OR2_X1
* cell instance $624 m0 *1 19.57,21
X$624 163 20 31 148 INV_X1
* cell instance $627 m0 *1 21.66,21
X$627 178 148 20 31 137 NOR2_X1
* cell instance $631 r0 *1 21.47,21
X$631 178 20 31 188 INV_X1
* cell instance $634 r0 *1 22.42,21
X$634 151 150 188 148 20 31 189 NAND4_X1
* cell instance $635 m0 *1 22.8,21
X$635 148 160 84 20 31 185 NOR3_X1
* cell instance $639 r0 *1 23.75,21
X$639 151 180 20 31 153 NAND2_X1
* cell instance $640 m0 *1 24.89,21
X$640 163 181 26 20 31 166 NAND3_X1
* cell instance $641 m0 *1 23.94,21
X$641 179 151 136 180 20 31 123 NAND4_X1
* cell instance $644 r0 *1 24.32,21
X$644 179 148 181 20 31 190 NAND3_X1
* cell instance $645 r0 *1 25.08,21
X$645 160 20 31 181 INV_X1
* cell instance $647 r0 *1 25.65,21
X$647 179 185 136 20 31 194 NAND3_X1
* cell instance $663 r0 *1 7.6,7
X$663 20 269 54 56 42 31 DFF_X1
* cell instance $665 m0 *1 10.26,7
X$665 64 48 33 20 31 56 NAND3_X1
* cell instance $667 m0 *1 11.21,7
X$667 48 33 20 31 65 NAND2_X1
* cell instance $670 m0 *1 14.06,7
X$670 21 52 58 35 20 31 49 NAND4_X1
* cell instance $671 m0 *1 15.01,7
X$671 51 49 57 20 34 31 AOI21_X1
* cell instance $674 r0 *1 10.83,7
X$674 20 260 66 65 42 31 DFF_X1
* cell instance $676 r0 *1 14.25,7
X$676 66 20 31 52 BUF_X2
* cell instance $677 r0 *1 15.01,7
X$677 35 50 20 31 33 OR2_X2
* cell instance $680 r0 *1 16.53,7
X$680 50 58 20 31 67 NAND2_X1
* cell instance $682 r0 *1 17.86,7
X$682 52 35 20 31 61 NAND2_X1
* cell instance $684 r0 *1 19.95,7
X$684 52 20 31 50 INV_X4
* cell instance $688 m0 *1 24.89,7
X$688 26 53 31 20 55 AND2_X1
* cell instance $693 r0 *1 23.94,7
X$693 20 262 38 55 39 31 DFF_X1
* cell instance $708 r0 *1 9.12,15.4
X$708 20 267 139 128 42 31 DFF_X1
* cell instance $710 r0 *1 13.11,15.4
X$710 129 51 20 31 128 NOR2_X1
* cell instance $711 r0 *1 13.68,15.4
X$711 114 136 120 20 31 129 MUX2_X1
* cell instance $713 m0 *1 13.87,15.4
X$713 95 121 20 31 114 NAND2_X1
* cell instance $715 r0 *1 15.01,15.4
X$715 121 118 133 20 93 31 NAND3_X4
* cell instance $716 m0 *1 16.53,15.4
X$716 84 20 31 118 INV_X1
* cell instance $721 r0 *1 17.86,15.4
X$721 70 93 144 31 20 280 HA_X1
* cell instance $722 m0 *1 18.81,15.4
X$722 98 93 243 31 20 115 HA_X1
* cell instance $723 m0 *1 18.05,15.4
X$723 98 20 31 84 CLKBUF_X2
* cell instance $727 m0 *1 25.46,15.4
X$727 26 20 31 110 BUF_X2
* cell instance $728 m0 *1 26.22,15.4
X$728 20 252 109 108 117 31 DFF_X1
* cell instance $729 m0 *1 29.45,15.4
X$729 99 109 20 31 119 NAND2_X1
* cell instance $734 r0 *1 21.66,15.4
X$734 130 20 31 71 CLKBUF_X3
* cell instance $736 r0 *1 22.99,15.4
X$736 107 20 31 136 BUF_X2
* cell instance $739 r0 *1 24.89,15.4
X$739 132 145 122 20 31 131 NOR3_X1
* cell instance $741 r0 *1 26.41,15.4
X$741 119 131 138 123 31 20 108 OAI22_X1
* cell instance $743 r0 *1 28.12,15.4
X$743 20 259 124 116 117 31 DFF_X1
* cell instance $744 m0 *1 31.35,15.4
X$744 102 100 109 20 31 111 MUX2_X1
* cell instance $746 m0 *1 32.68,15.4
X$746 110 111 31 20 113 AND2_X1
* cell instance $749 m0 *1 35.15,15.4
X$749 102 20 31 112 BUF_X1
* cell instance $753 r0 *1 31.92,15.4
X$753 20 273 125 126 117 31 DFF_X1
* cell instance $754 r0 *1 35.15,15.4
X$754 125 20 31 127 BUF_X1
.ENDS final_spi_master

* cell INV_X4
* pin A
* pin PWELL,VSS
* pin NWELL,VDD
* pin ZN
.SUBCKT INV_X4 1 2 3 4
* net 1 A
* net 2 PWELL,VSS
* net 3 NWELL,VDD
* net 4 ZN
* device instance $1 r0 *1 0.17,0.995 PMOS_VTL
M$1 4 1 3 3 PMOS_VTL L=0.05U W=2.52U AS=0.19845P AD=0.19845P PS=3.78U PD=3.78U
* device instance $5 r0 *1 0.17,0.2975 NMOS_VTL
M$5 4 1 2 2 NMOS_VTL L=0.05U W=1.66U AS=0.130725P AD=0.130725P PS=2.705U
+ PD=2.705U
.ENDS INV_X4

* cell NOR3_X2
* pin A3
* pin A2
* pin A1
* pin NWELL,VDD
* pin ZN
* pin PWELL,VSS
.SUBCKT NOR3_X2 1 2 3 4 5 6
* net 1 A3
* net 2 A2
* net 3 A1
* net 4 NWELL,VDD
* net 5 ZN
* net 6 PWELL,VSS
* device instance $1 r0 *1 0.21,0.995 PMOS_VTL
M$1 10 1 4 4 PMOS_VTL L=0.05U W=0.63U AS=0.06615P AD=0.0441P PS=1.47U PD=0.77U
* device instance $2 r0 *1 0.4,0.995 PMOS_VTL
M$2 9 2 10 4 PMOS_VTL L=0.05U W=0.63U AS=0.0441P AD=0.0441P PS=0.77U PD=0.77U
* device instance $3 r0 *1 0.59,0.995 PMOS_VTL
M$3 5 3 9 4 PMOS_VTL L=0.05U W=0.63U AS=0.0441P AD=0.0441P PS=0.77U PD=0.77U
* device instance $4 r0 *1 0.78,0.995 PMOS_VTL
M$4 8 3 5 4 PMOS_VTL L=0.05U W=0.63U AS=0.0441P AD=0.0441P PS=0.77U PD=0.77U
* device instance $5 r0 *1 0.97,0.995 PMOS_VTL
M$5 7 2 8 4 PMOS_VTL L=0.05U W=0.63U AS=0.0441P AD=0.0441P PS=0.77U PD=0.77U
* device instance $6 r0 *1 1.16,0.995 PMOS_VTL
M$6 4 1 7 4 PMOS_VTL L=0.05U W=0.63U AS=0.0441P AD=0.06615P PS=0.77U PD=1.47U
* device instance $7 r0 *1 0.21,0.2975 NMOS_VTL
M$7 5 1 6 6 NMOS_VTL L=0.05U W=0.83U AS=0.072625P AD=0.072625P PS=1.595U
+ PD=1.595U
* device instance $8 r0 *1 0.4,0.2975 NMOS_VTL
M$8 6 2 5 6 NMOS_VTL L=0.05U W=0.83U AS=0.0581P AD=0.0581P PS=1.11U PD=1.11U
* device instance $9 r0 *1 0.59,0.2975 NMOS_VTL
M$9 5 3 6 6 NMOS_VTL L=0.05U W=0.83U AS=0.0581P AD=0.0581P PS=1.11U PD=1.11U
.ENDS NOR3_X2

* cell AOI21_X2
* pin A
* pin B2
* pin B1
* pin PWELL,VSS
* pin ZN
* pin NWELL,VDD
.SUBCKT AOI21_X2 1 2 3 4 6 7
* net 1 A
* net 2 B2
* net 3 B1
* net 4 PWELL,VSS
* net 6 ZN
* net 7 NWELL,VDD
* device instance $1 r0 *1 0.21,0.995 PMOS_VTL
M$1 7 1 5 7 PMOS_VTL L=0.05U W=1.26U AS=0.11025P AD=0.0882P PS=2.24U PD=1.54U
* device instance $3 r0 *1 0.59,0.995 PMOS_VTL
M$3 6 2 5 7 PMOS_VTL L=0.05U W=1.26U AS=0.0882P AD=0.11025P PS=1.54U PD=2.24U
* device instance $4 r0 *1 0.78,0.995 PMOS_VTL
M$4 5 3 6 7 PMOS_VTL L=0.05U W=1.26U AS=0.0882P AD=0.0882P PS=1.54U PD=1.54U
* device instance $7 r0 *1 0.21,0.2975 NMOS_VTL
M$7 6 1 4 4 NMOS_VTL L=0.05U W=0.83U AS=0.072625P AD=0.0581P PS=1.595U PD=1.11U
* device instance $9 r0 *1 0.59,0.2975 NMOS_VTL
M$9 9 2 4 4 NMOS_VTL L=0.05U W=0.415U AS=0.02905P AD=0.02905P PS=0.555U
+ PD=0.555U
* device instance $10 r0 *1 0.78,0.2975 NMOS_VTL
M$10 6 3 9 4 NMOS_VTL L=0.05U W=0.415U AS=0.02905P AD=0.02905P PS=0.555U
+ PD=0.555U
* device instance $11 r0 *1 0.97,0.2975 NMOS_VTL
M$11 8 3 6 4 NMOS_VTL L=0.05U W=0.415U AS=0.02905P AD=0.02905P PS=0.555U
+ PD=0.555U
* device instance $12 r0 *1 1.16,0.2975 NMOS_VTL
M$12 4 2 8 4 NMOS_VTL L=0.05U W=0.415U AS=0.02905P AD=0.043575P PS=0.555U
+ PD=1.04U
.ENDS AOI21_X2

* cell CLKBUF_X1
* pin A
* pin PWELL,VSS
* pin NWELL,VDD
.SUBCKT CLKBUF_X1 1 3 4
* net 1 A
* net 3 PWELL,VSS
* net 4 NWELL,VDD
* net 5 Z
* device instance $1 r0 *1 0.19,1.1525 PMOS_VTL
M$1 2 1 4 4 PMOS_VTL L=0.05U W=0.315U AS=0.033075P AD=0.033075P PS=0.77U
+ PD=0.84U
* device instance $2 r0 *1 0.38,0.995 PMOS_VTL
M$2 5 2 4 4 PMOS_VTL L=0.05U W=0.63U AS=0.033075P AD=0.06615P PS=0.77U PD=1.47U
* device instance $3 r0 *1 0.19,0.2075 NMOS_VTL
M$3 3 1 2 3 NMOS_VTL L=0.05U W=0.095U AS=0.009975P AD=0.01015P PS=0.4U PD=0.335U
* device instance $4 r0 *1 0.38,0.2575 NMOS_VTL
M$4 5 2 3 3 NMOS_VTL L=0.05U W=0.195U AS=0.01015P AD=0.020475P PS=0.335U PD=0.6U
.ENDS CLKBUF_X1

* cell OAI21_X2
* pin A
* pin B2
* pin B1
* pin NWELL,VDD
* pin PWELL,VSS
* pin ZN
.SUBCKT OAI21_X2 1 2 3 5 6 7
* net 1 A
* net 2 B2
* net 3 B1
* net 5 NWELL,VDD
* net 6 PWELL,VSS
* net 7 ZN
* device instance $1 r0 *1 0.17,0.995 PMOS_VTL
M$1 7 1 5 5 PMOS_VTL L=0.05U W=1.26U AS=0.11025P AD=0.0882P PS=2.24U PD=1.54U
* device instance $3 r0 *1 0.55,0.995 PMOS_VTL
M$3 8 2 5 5 PMOS_VTL L=0.05U W=0.63U AS=0.0441P AD=0.0441P PS=0.77U PD=0.77U
* device instance $4 r0 *1 0.74,0.995 PMOS_VTL
M$4 7 3 8 5 PMOS_VTL L=0.05U W=0.63U AS=0.0441P AD=0.0441P PS=0.77U PD=0.77U
* device instance $5 r0 *1 0.93,0.995 PMOS_VTL
M$5 9 3 7 5 PMOS_VTL L=0.05U W=0.63U AS=0.0441P AD=0.0441P PS=0.77U PD=0.77U
* device instance $6 r0 *1 1.12,0.995 PMOS_VTL
M$6 5 2 9 5 PMOS_VTL L=0.05U W=0.63U AS=0.0441P AD=0.06615P PS=0.77U PD=1.47U
* device instance $7 r0 *1 0.17,0.2975 NMOS_VTL
M$7 6 1 4 6 NMOS_VTL L=0.05U W=0.83U AS=0.072625P AD=0.0581P PS=1.595U PD=1.11U
* device instance $9 r0 *1 0.55,0.2975 NMOS_VTL
M$9 7 2 4 6 NMOS_VTL L=0.05U W=0.83U AS=0.0581P AD=0.072625P PS=1.11U PD=1.595U
* device instance $10 r0 *1 0.74,0.2975 NMOS_VTL
M$10 4 3 7 6 NMOS_VTL L=0.05U W=0.83U AS=0.0581P AD=0.0581P PS=1.11U PD=1.11U
.ENDS OAI21_X2

* cell INV_X2
* pin A
* pin PWELL,VSS
* pin NWELL,VDD
* pin ZN
.SUBCKT INV_X2 1 2 3 4
* net 1 A
* net 2 PWELL,VSS
* net 3 NWELL,VDD
* net 4 ZN
* device instance $1 r0 *1 0.185,0.995 PMOS_VTL
M$1 4 1 3 3 PMOS_VTL L=0.05U W=1.26U AS=0.11025P AD=0.11025P PS=2.24U PD=2.24U
* device instance $3 r0 *1 0.185,0.2975 NMOS_VTL
M$3 4 1 2 2 NMOS_VTL L=0.05U W=0.83U AS=0.072625P AD=0.072625P PS=1.595U
+ PD=1.595U
.ENDS INV_X2

* cell AOI22_X1
* pin B2
* pin B1
* pin A1
* pin A2
* pin PWELL,VSS
* pin NWELL,VDD
* pin ZN
.SUBCKT AOI22_X1 1 2 3 4 5 7 8
* net 1 B2
* net 2 B1
* net 3 A1
* net 4 A2
* net 5 PWELL,VSS
* net 7 NWELL,VDD
* net 8 ZN
* device instance $1 r0 *1 0.185,0.995 PMOS_VTL
M$1 7 1 6 7 PMOS_VTL L=0.05U W=0.63U AS=0.06615P AD=0.0441P PS=1.47U PD=0.77U
* device instance $2 r0 *1 0.375,0.995 PMOS_VTL
M$2 6 2 7 7 PMOS_VTL L=0.05U W=0.63U AS=0.0441P AD=0.0441P PS=0.77U PD=0.77U
* device instance $3 r0 *1 0.565,0.995 PMOS_VTL
M$3 8 3 6 7 PMOS_VTL L=0.05U W=0.63U AS=0.0441P AD=0.0441P PS=0.77U PD=0.77U
* device instance $4 r0 *1 0.755,0.995 PMOS_VTL
M$4 6 4 8 7 PMOS_VTL L=0.05U W=0.63U AS=0.0441P AD=0.06615P PS=0.77U PD=1.47U
* device instance $5 r0 *1 0.185,0.2975 NMOS_VTL
M$5 10 1 5 5 NMOS_VTL L=0.05U W=0.415U AS=0.043575P AD=0.02905P PS=1.04U
+ PD=0.555U
* device instance $6 r0 *1 0.375,0.2975 NMOS_VTL
M$6 8 2 10 5 NMOS_VTL L=0.05U W=0.415U AS=0.02905P AD=0.02905P PS=0.555U
+ PD=0.555U
* device instance $7 r0 *1 0.565,0.2975 NMOS_VTL
M$7 9 3 8 5 NMOS_VTL L=0.05U W=0.415U AS=0.02905P AD=0.02905P PS=0.555U
+ PD=0.555U
* device instance $8 r0 *1 0.755,0.2975 NMOS_VTL
M$8 5 4 9 5 NMOS_VTL L=0.05U W=0.415U AS=0.02905P AD=0.043575P PS=0.555U
+ PD=1.04U
.ENDS AOI22_X1

* cell NAND3_X4
* pin A2
* pin A1
* pin A3
* pin PWELL,VSS
* pin ZN
* pin NWELL,VDD
.SUBCKT NAND3_X4 1 2 3 4 5 6
* net 1 A2
* net 2 A1
* net 3 A3
* net 4 PWELL,VSS
* net 5 ZN
* net 6 NWELL,VDD
* device instance $1 r0 *1 0.21,0.995 PMOS_VTL
M$1 5 3 6 6 PMOS_VTL L=0.05U W=2.52U AS=0.19845P AD=0.19845P PS=3.78U PD=3.78U
* device instance $2 r0 *1 0.4,0.995 PMOS_VTL
M$2 6 1 5 6 PMOS_VTL L=0.05U W=2.52U AS=0.1764P AD=0.1764P PS=3.08U PD=3.08U
* device instance $3 r0 *1 0.59,0.995 PMOS_VTL
M$3 5 2 6 6 PMOS_VTL L=0.05U W=2.52U AS=0.1764P AD=0.1764P PS=3.08U PD=3.08U
* device instance $13 r0 *1 0.21,0.2975 NMOS_VTL
M$13 13 3 4 4 NMOS_VTL L=0.05U W=0.415U AS=0.043575P AD=0.02905P PS=1.04U
+ PD=0.555U
* device instance $14 r0 *1 0.4,0.2975 NMOS_VTL
M$14 12 1 13 4 NMOS_VTL L=0.05U W=0.415U AS=0.02905P AD=0.02905P PS=0.555U
+ PD=0.555U
* device instance $15 r0 *1 0.59,0.2975 NMOS_VTL
M$15 5 2 12 4 NMOS_VTL L=0.05U W=0.415U AS=0.02905P AD=0.02905P PS=0.555U
+ PD=0.555U
* device instance $16 r0 *1 0.78,0.2975 NMOS_VTL
M$16 10 2 5 4 NMOS_VTL L=0.05U W=0.415U AS=0.02905P AD=0.02905P PS=0.555U
+ PD=0.555U
* device instance $17 r0 *1 0.97,0.2975 NMOS_VTL
M$17 8 1 10 4 NMOS_VTL L=0.05U W=0.415U AS=0.02905P AD=0.02905P PS=0.555U
+ PD=0.555U
* device instance $18 r0 *1 1.16,0.2975 NMOS_VTL
M$18 4 3 8 4 NMOS_VTL L=0.05U W=0.415U AS=0.02905P AD=0.02905P PS=0.555U
+ PD=0.555U
* device instance $19 r0 *1 1.35,0.2975 NMOS_VTL
M$19 9 3 4 4 NMOS_VTL L=0.05U W=0.415U AS=0.02905P AD=0.02905P PS=0.555U
+ PD=0.555U
* device instance $20 r0 *1 1.54,0.2975 NMOS_VTL
M$20 7 1 9 4 NMOS_VTL L=0.05U W=0.415U AS=0.02905P AD=0.02905P PS=0.555U
+ PD=0.555U
* device instance $21 r0 *1 1.73,0.2975 NMOS_VTL
M$21 5 2 7 4 NMOS_VTL L=0.05U W=0.415U AS=0.02905P AD=0.02905P PS=0.555U
+ PD=0.555U
* device instance $22 r0 *1 1.92,0.2975 NMOS_VTL
M$22 14 2 5 4 NMOS_VTL L=0.05U W=0.415U AS=0.02905P AD=0.02905P PS=0.555U
+ PD=0.555U
* device instance $23 r0 *1 2.11,0.2975 NMOS_VTL
M$23 11 1 14 4 NMOS_VTL L=0.05U W=0.415U AS=0.02905P AD=0.02905P PS=0.555U
+ PD=0.555U
* device instance $24 r0 *1 2.3,0.2975 NMOS_VTL
M$24 4 3 11 4 NMOS_VTL L=0.05U W=0.415U AS=0.02905P AD=0.043575P PS=0.555U
+ PD=1.04U
.ENDS NAND3_X4

* cell BUF_X2
* pin A
* pin PWELL,VSS
* pin NWELL,VDD
* pin Z
.SUBCKT BUF_X2 1 3 4 5
* net 1 A
* net 3 PWELL,VSS
* net 4 NWELL,VDD
* net 5 Z
* device instance $1 r0 *1 0.21,0.995 PMOS_VTL
M$1 4 1 2 4 PMOS_VTL L=0.05U W=0.63U AS=0.06615P AD=0.0441P PS=1.47U PD=0.77U
* device instance $2 r0 *1 0.4,0.995 PMOS_VTL
M$2 5 2 4 4 PMOS_VTL L=0.05U W=1.26U AS=0.0882P AD=0.11025P PS=1.54U PD=2.24U
* device instance $4 r0 *1 0.21,0.2975 NMOS_VTL
M$4 3 1 2 3 NMOS_VTL L=0.05U W=0.415U AS=0.043575P AD=0.02905P PS=1.04U
+ PD=0.555U
* device instance $5 r0 *1 0.4,0.2975 NMOS_VTL
M$5 5 2 3 3 NMOS_VTL L=0.05U W=0.83U AS=0.0581P AD=0.072625P PS=1.11U PD=1.595U
.ENDS BUF_X2

* cell AND3_X1
* pin A1
* pin A2
* pin A3
* pin NWELL,VDD
* pin PWELL,VSS
* pin ZN
.SUBCKT AND3_X1 1 2 3 5 6 7
* net 1 A1
* net 2 A2
* net 3 A3
* net 5 NWELL,VDD
* net 6 PWELL,VSS
* net 7 ZN
* device instance $1 r0 *1 0.17,1.1525 PMOS_VTL
M$1 5 1 4 5 PMOS_VTL L=0.05U W=0.315U AS=0.033075P AD=0.02205P PS=0.84U
+ PD=0.455U
* device instance $2 r0 *1 0.36,1.1525 PMOS_VTL
M$2 4 2 5 5 PMOS_VTL L=0.05U W=0.315U AS=0.02205P AD=0.02205P PS=0.455U
+ PD=0.455U
* device instance $3 r0 *1 0.55,1.1525 PMOS_VTL
M$3 4 3 5 5 PMOS_VTL L=0.05U W=0.315U AS=0.033075P AD=0.02205P PS=0.77U
+ PD=0.455U
* device instance $4 r0 *1 0.74,0.995 PMOS_VTL
M$4 7 4 5 5 PMOS_VTL L=0.05U W=0.63U AS=0.033075P AD=0.06615P PS=0.77U PD=1.47U
* device instance $5 r0 *1 0.17,0.195 NMOS_VTL
M$5 8 1 4 6 NMOS_VTL L=0.05U W=0.21U AS=0.02205P AD=0.0147P PS=0.63U PD=0.35U
* device instance $6 r0 *1 0.36,0.195 NMOS_VTL
M$6 9 2 8 6 NMOS_VTL L=0.05U W=0.21U AS=0.0147P AD=0.0147P PS=0.35U PD=0.35U
* device instance $7 r0 *1 0.55,0.195 NMOS_VTL
M$7 6 3 9 6 NMOS_VTL L=0.05U W=0.21U AS=0.0147P AD=0.021875P PS=0.35U PD=0.555U
* device instance $8 r0 *1 0.74,0.2975 NMOS_VTL
M$8 7 4 6 6 NMOS_VTL L=0.05U W=0.415U AS=0.021875P AD=0.043575P PS=0.555U
+ PD=1.04U
.ENDS AND3_X1

* cell OR3_X1
* pin A1
* pin A2
* pin A3
* pin PWELL,VSS
* pin NWELL,VDD
* pin ZN
.SUBCKT OR3_X1 1 2 3 5 6 7
* net 1 A1
* net 2 A2
* net 3 A3
* net 5 PWELL,VSS
* net 6 NWELL,VDD
* net 7 ZN
* device instance $1 r0 *1 0.17,1.1525 PMOS_VTL
M$1 9 1 4 6 PMOS_VTL L=0.05U W=0.315U AS=0.033075P AD=0.02205P PS=0.84U
+ PD=0.455U
* device instance $2 r0 *1 0.36,1.1525 PMOS_VTL
M$2 8 2 9 6 PMOS_VTL L=0.05U W=0.315U AS=0.02205P AD=0.02205P PS=0.455U
+ PD=0.455U
* device instance $3 r0 *1 0.55,1.1525 PMOS_VTL
M$3 8 3 6 6 PMOS_VTL L=0.05U W=0.315U AS=0.033075P AD=0.02205P PS=0.77U
+ PD=0.455U
* device instance $4 r0 *1 0.74,0.995 PMOS_VTL
M$4 7 4 6 6 PMOS_VTL L=0.05U W=0.63U AS=0.033075P AD=0.06615P PS=0.77U PD=1.47U
* device instance $5 r0 *1 0.17,0.195 NMOS_VTL
M$5 5 1 4 5 NMOS_VTL L=0.05U W=0.21U AS=0.02205P AD=0.0147P PS=0.63U PD=0.35U
* device instance $6 r0 *1 0.36,0.195 NMOS_VTL
M$6 4 2 5 5 NMOS_VTL L=0.05U W=0.21U AS=0.0147P AD=0.0147P PS=0.35U PD=0.35U
* device instance $7 r0 *1 0.55,0.195 NMOS_VTL
M$7 5 3 4 5 NMOS_VTL L=0.05U W=0.21U AS=0.0147P AD=0.021875P PS=0.35U PD=0.555U
* device instance $8 r0 *1 0.74,0.2975 NMOS_VTL
M$8 7 4 5 5 NMOS_VTL L=0.05U W=0.415U AS=0.021875P AD=0.043575P PS=0.555U
+ PD=1.04U
.ENDS OR3_X1

* cell NAND4_X1
* pin A4
* pin A3
* pin A2
* pin A1
* pin PWELL,VSS
* pin NWELL,VDD
* pin ZN
.SUBCKT NAND4_X1 1 2 3 4 5 6 7
* net 1 A4
* net 2 A3
* net 3 A2
* net 4 A1
* net 5 PWELL,VSS
* net 6 NWELL,VDD
* net 7 ZN
* device instance $1 r0 *1 0.17,0.995 PMOS_VTL
M$1 7 1 6 6 PMOS_VTL L=0.05U W=0.63U AS=0.06615P AD=0.0441P PS=1.47U PD=0.77U
* device instance $2 r0 *1 0.36,0.995 PMOS_VTL
M$2 6 2 7 6 PMOS_VTL L=0.05U W=0.63U AS=0.0441P AD=0.0441P PS=0.77U PD=0.77U
* device instance $3 r0 *1 0.55,0.995 PMOS_VTL
M$3 7 3 6 6 PMOS_VTL L=0.05U W=0.63U AS=0.0441P AD=0.0441P PS=0.77U PD=0.77U
* device instance $4 r0 *1 0.74,0.995 PMOS_VTL
M$4 6 4 7 6 PMOS_VTL L=0.05U W=0.63U AS=0.0441P AD=0.06615P PS=0.77U PD=1.47U
* device instance $5 r0 *1 0.17,0.2975 NMOS_VTL
M$5 10 1 5 5 NMOS_VTL L=0.05U W=0.415U AS=0.043575P AD=0.02905P PS=1.04U
+ PD=0.555U
* device instance $6 r0 *1 0.36,0.2975 NMOS_VTL
M$6 9 2 10 5 NMOS_VTL L=0.05U W=0.415U AS=0.02905P AD=0.02905P PS=0.555U
+ PD=0.555U
* device instance $7 r0 *1 0.55,0.2975 NMOS_VTL
M$7 8 3 9 5 NMOS_VTL L=0.05U W=0.415U AS=0.02905P AD=0.02905P PS=0.555U
+ PD=0.555U
* device instance $8 r0 *1 0.74,0.2975 NMOS_VTL
M$8 7 4 8 5 NMOS_VTL L=0.05U W=0.415U AS=0.02905P AD=0.043575P PS=0.555U
+ PD=1.04U
.ENDS NAND4_X1

* cell OAI22_X2
* pin B2
* pin B1
* pin A2
* pin A1
* pin NWELL,VDD
* pin PWELL,VSS
* pin ZN
.SUBCKT OAI22_X2 1 2 3 4 6 7 8
* net 1 B2
* net 2 B1
* net 3 A2
* net 4 A1
* net 6 NWELL,VDD
* net 7 PWELL,VSS
* net 8 ZN
* device instance $1 r0 *1 0.17,0.995 PMOS_VTL