
* cell spi_master
* pin rx_data[6]
* pin spi_miso
* pin rx_data[0]
* pin rx_data[2]
* pin rx_data[5]
* pin rx_data[1]
* pin rx_data[4]
* pin clk
* pin rx_data[3]
* pin rx_data[7]
* pin rx_valid
* pin spi_clk
* pin spi_mosi
* pin tx_data[7]
* pin tx_data[6]
* pin tx_ready
* pin tx_data[3]
* pin tx_data[5]
* pin spi_cs_n
* pin tx_valid
* pin rst_n
* pin tx_data[0]
* pin tx_data[1]
* pin tx_data[2]
* pin tx_data[4]
* pin NWELL
* pin PWELL,gf180mcu_gnd
.SUBCKT spi_master 1 2 3 4 48 83 98 123 140 141 144 147 157 161 169 200 202 204
+ 206 207 208 209 210 211 212 213 214
* net 1 rx_data[6]
* net 2 spi_miso
* net 3 rx_data[0]
* net 4 rx_data[2]
* net 48 rx_data[5]
* net 83 rx_data[1]
* net 98 rx_data[4]
* net 123 clk
* net 140 rx_data[3]
* net 141 rx_data[7]
* net 144 rx_valid
* net 147 spi_clk
* net 157 spi_mosi
* net 161 tx_data[7]
* net 169 tx_data[6]
* net 200 tx_ready
* net 202 tx_data[3]
* net 204 tx_data[5]
* net 206 spi_cs_n
* net 207 tx_valid
* net 208 rst_n
* net 209 tx_data[0]
* net 210 tx_data[1]
* net 211 tx_data[2]
* net 212 tx_data[4]
* net 213 NWELL
* net 214 PWELL,gf180mcu_gnd
* cell instance $3 r0 *1 56.56,5.04
X$3 5 213 214 1 gf180mcu_fd_sc_mcu9t5v0__dlyb_2
* cell instance $8 r0 *1 90.16,5.04
X$8 2 213 214 11 gf180mcu_fd_sc_mcu9t5v0__dlyb_2
* cell instance $11 r0 *1 81.76,5.04
X$11 6 213 214 3 gf180mcu_fd_sc_mcu9t5v0__dlyb_2
* cell instance $15 r0 *1 108.64,5.04
X$15 8 213 214 4 gf180mcu_fd_sc_mcu9t5v0__dlyb_2
* cell instance $19 m0 *1 38.64,15.12
X$19 214 15 5 10 9 213 gf180mcu_fd_sc_mcu9t5v0__dffrnq_2
* cell instance $21 r0 *1 54.32,15.12
X$21 214 213 9 5 14 20 gf180mcu_fd_sc_mcu9t5v0__mux2_2
* cell instance $27 m0 *1 77.84,15.12
X$27 214 15 6 7 18 213 gf180mcu_fd_sc_mcu9t5v0__dffrnq_2
* cell instance $29 m0 *1 83.44,25.2
X$29 214 213 18 6 14 17 gf180mcu_fd_sc_mcu9t5v0__mux2_2
* cell instance $31 m0 *1 85.68,55.44
X$31 214 213 7 gf180mcu_fd_sc_mcu9t5v0__clkinv_3
* cell instance $33 r0 *1 121.52,65.52
X$33 214 15 91 7 90 213 gf180mcu_fd_sc_mcu9t5v0__dffrnq_2
* cell instance $35 r0 *1 121.52,45.36
X$35 214 15 70 7 61 213 gf180mcu_fd_sc_mcu9t5v0__dffrnq_2
* cell instance $37 m0 *1 104.72,75.6
X$37 214 15 97 7 96 213 gf180mcu_fd_sc_mcu9t5v0__dffrnq_2
* cell instance $41 r0 *1 110.32,35.28
X$41 214 15 46 7 42 213 gf180mcu_fd_sc_mcu9t5v0__dffrnq_2
* cell instance $43 m0 *1 121.52,35.28
X$43 214 15 35 7 51 213 gf180mcu_fd_sc_mcu9t5v0__dffrnq_2
* cell instance $46 m0 *1 104.72,15.12
X$46 214 15 8 7 13 213 gf180mcu_fd_sc_mcu9t5v0__dffrnq_2
* cell instance $49 m0 *1 99.68,25.2
X$49 214 15 12 7 23 213 gf180mcu_fd_sc_mcu9t5v0__dffrnq_2
* cell instance $61 m0 *1 90.16,55.44
X$61 214 213 64 7 gf180mcu_fd_sc_mcu9t5v0__clkbuf_3
* cell instance $67 r0 *1 106.96,15.12
X$67 214 213 13 8 14 12 gf180mcu_fd_sc_mcu9t5v0__mux2_2
* cell instance $74 r0 *1 11.76,55.44
X$74 214 15 77 10 84 213 gf180mcu_fd_sc_mcu9t5v0__dffrnq_2
* cell instance $77 m0 *1 9.52,65.52
X$77 214 15 81 10 86 213 gf180mcu_fd_sc_mcu9t5v0__dffrnq_2
* cell instance $79 r0 *1 105.84,55.44
X$79 214 15 74 10 69 213 gf180mcu_fd_sc_mcu9t5v0__dffrnq_2
* cell instance $81 r0 *1 72.8,15.12
X$81 214 15 17 10 16 213 gf180mcu_fd_sc_mcu9t5v0__dffrnq_2
* cell instance $84 r0 *1 59.36,45.36
X$84 214 213 64 10 gf180mcu_fd_sc_mcu9t5v0__clkbuf_3
* cell instance $89 m0 *1 59.92,25.2
X$89 214 15 20 10 19 213 gf180mcu_fd_sc_mcu9t5v0__dffrnq_2
* cell instance $97 m0 *1 59.92,55.44
X$97 214 213 10 215 gf180mcu_fd_sc_mcu9t5v0__inv_4
* cell instance $100 r0 *1 92.96,25.2
X$100 214 213 11 29 24 gf180mcu_fd_sc_mcu9t5v0__nand2_2
* cell instance $103 r0 *1 109.2,25.2
X$103 214 213 12 22 25 gf180mcu_fd_sc_mcu9t5v0__nand2_2
* cell instance $107 m0 *1 98,35.28
X$107 213 31 26 30 12 24 214 gf180mcu_fd_sc_mcu9t5v0__oai211_2
* cell instance $114 m0 *1 125.44,65.52
X$114 214 213 90 91 14 97 gf180mcu_fd_sc_mcu9t5v0__mux2_2
* cell instance $125 m0 *1 126,45.36
X$125 214 213 51 35 14 46 gf180mcu_fd_sc_mcu9t5v0__mux2_2
* cell instance $127 m0 *1 124.32,75.6
X$127 214 213 117 116 14 121 gf180mcu_fd_sc_mcu9t5v0__mux2_2
* cell instance $131 m0 *1 120.96,55.44
X$131 214 213 61 70 14 74 gf180mcu_fd_sc_mcu9t5v0__mux2_2
* cell instance $133 m0 *1 121.52,85.68
X$133 214 213 129 139 14 128 gf180mcu_fd_sc_mcu9t5v0__mux2_2
* cell instance $135 m0 *1 56,85.68
X$135 213 214 125 14 120 gf180mcu_fd_sc_mcu9t5v0__nand2_4
* cell instance $138 r0 *1 16.24,85.68
X$138 214 15 75 133 142 213 gf180mcu_fd_sc_mcu9t5v0__dffrnq_2
* cell instance $140 r0 *1 24.64,105.84
X$140 214 15 102 133 154 213 gf180mcu_fd_sc_mcu9t5v0__dffrnq_4
* cell instance $142 r0 *1 35.28,126
X$142 214 183 15 213 gf180mcu_fd_sc_mcu9t5v0__buf_12
* cell instance $144 r0 *1 69.44,95.76
X$144 214 15 120 138 152 213 gf180mcu_fd_sc_mcu9t5v0__dffrnq_4
* cell instance $179 r0 *1 67.76,115.92
X$179 214 15 173 133 172 213 gf180mcu_fd_sc_mcu9t5v0__dffrnq_2
* cell instance $182 m0 *1 59.92,126
X$182 214 15 195 133 179 213 gf180mcu_fd_sc_mcu9t5v0__dffrnq_2
* cell instance $185 m0 *1 4.48,115.92
X$185 214 15 148 133 159 213 gf180mcu_fd_sc_mcu9t5v0__dffrnq_2
* cell instance $191 r0 *1 101.92,126
X$191 214 15 189 138 196 213 gf180mcu_fd_sc_mcu9t5v0__dffrnq_2
* cell instance $199 m0 *1 11.76,105.84
X$199 214 15 124 133 160 213 gf180mcu_fd_sc_mcu9t5v0__dffrnq_2
* cell instance $202 m0 *1 117.04,126
X$202 214 15 182 138 181 213 gf180mcu_fd_sc_mcu9t5v0__dffrnq_2
* cell instance $205 m0 *1 115.92,115.92
X$205 214 15 168 138 167 213 gf180mcu_fd_sc_mcu9t5v0__dffrnq_2
* cell instance $207 r0 *1 120.96,105.84
X$207 214 15 156 138 162 213 gf180mcu_fd_sc_mcu9t5v0__dffrnq_2
* cell instance $209 m0 *1 42,95.76
X$209 214 15 82 133 136 213 gf180mcu_fd_sc_mcu9t5v0__dffrnq_2
* cell instance $211 m0 *1 98,126
X$211 214 15 166 138 174 213 gf180mcu_fd_sc_mcu9t5v0__dffrnq_2
* cell instance $218 r0 *1 101.92,85.68
X$218 214 15 121 138 143 213 gf180mcu_fd_sc_mcu9t5v0__dffrnq_2
* cell instance $221 r0 *1 121.52,85.68
X$221 214 15 139 138 129 213 gf180mcu_fd_sc_mcu9t5v0__dffrnq_2
* cell instance $223 r0 *1 115.36,75.6
X$223 214 15 116 138 117 213 gf180mcu_fd_sc_mcu9t5v0__dffrnq_2
* cell instance $226 m0 *1 99.68,85.68
X$226 214 15 128 138 127 213 gf180mcu_fd_sc_mcu9t5v0__dffrnq_2
* cell instance $229 m0 *1 78.96,126
X$229 214 15 180 138 193 213 gf180mcu_fd_sc_mcu9t5v0__dffrnq_2
* cell instance $233 r0 *1 73.36,25.2
X$233 213 34 214 29 37 16 21 gf180mcu_fd_sc_mcu9t5v0__oai22_2
* cell instance $237 m0 *1 80.08,25.2
X$237 214 213 17 21 gf180mcu_fd_sc_mcu9t5v0__clkinv_2
* cell instance $246 m0 *1 59.36,35.28
X$246 214 19 27 213 36 43 gf180mcu_fd_sc_mcu9t5v0__nand3_2
* cell instance $248 r0 *1 61.04,25.2
X$248 214 213 20 27 25 gf180mcu_fd_sc_mcu9t5v0__nand2_2
* cell instance $250 r0 *1 66.08,25.2
X$250 213 20 24 214 28 gf180mcu_fd_sc_mcu9t5v0__and2_2
* cell instance $262 r0 *1 101.92,25.2
X$262 214 23 22 213 26 32 gf180mcu_fd_sc_mcu9t5v0__nand3_2
* cell instance $269 m0 *1 67.2,95.76
X$269 213 119 24 214 152 gf180mcu_fd_sc_mcu9t5v0__and2_2
* cell instance $271 m0 *1 76.72,35.28
X$271 214 25 213 37 24 34 gf180mcu_fd_sc_mcu9t5v0__aoi21_2
* cell instance $280 r0 *1 59.92,85.68
X$280 134 213 102 92 214 24 gf180mcu_fd_sc_mcu9t5v0__and3_2
* cell instance $284 m0 *1 99.12,45.36
X$284 213 56 47 30 46 24 214 gf180mcu_fd_sc_mcu9t5v0__oai211_2
* cell instance $286 m0 *1 99.12,55.44
X$286 213 68 72 30 74 24 214 gf180mcu_fd_sc_mcu9t5v0__oai211_2
* cell instance $288 m0 *1 108.64,55.44
X$288 214 213 74 60 25 gf180mcu_fd_sc_mcu9t5v0__nand2_2
* cell instance $293 r0 *1 105.28,35.28
X$293 214 213 46 57 25 gf180mcu_fd_sc_mcu9t5v0__nand2_2
* cell instance $304 r0 *1 88.48,65.52
X$304 89 214 25 31 213 112 gf180mcu_fd_sc_mcu9t5v0__or3_2
* cell instance $307 m0 *1 61.04,95.76
X$307 214 120 145 213 25 gf180mcu_fd_sc_mcu9t5v0__or2_2
* cell instance $316 m0 *1 66.64,35.28
X$316 213 28 214 36 41 33 30 gf180mcu_fd_sc_mcu9t5v0__oai31_2
* cell instance $323 m0 *1 91.28,65.52
X$323 89 214 29 80 213 95 gf180mcu_fd_sc_mcu9t5v0__or3_2
* cell instance $326 r0 *1 94.08,45.36
X$326 29 214 30 68 213 62 gf180mcu_fd_sc_mcu9t5v0__or3_2
* cell instance $328 m0 *1 91.28,35.28
X$328 29 214 30 31 213 32 gf180mcu_fd_sc_mcu9t5v0__or3_2
* cell instance $330 m0 *1 92.4,45.36
X$330 29 214 30 56 213 59 gf180mcu_fd_sc_mcu9t5v0__or3_2
* cell instance $332 r0 *1 68.88,35.28
X$332 33 41 29 30 213 214 43 gf180mcu_fd_sc_mcu9t5v0__or4_2
* cell instance $334 m0 *1 66.08,55.44
X$334 214 30 45 50 89 55 213 gf180mcu_fd_sc_mcu9t5v0__oai211_4
* cell instance $354 r0 *1 101.92,65.52
X$354 213 100 214 95 96 31 gf180mcu_fd_sc_mcu9t5v0__oai21_2
* cell instance $357 m0 *1 66.64,65.52
X$357 88 33 78 79 213 214 31 gf180mcu_fd_sc_mcu9t5v0__or4_2
* cell instance $364 m0 *1 74.48,65.52
X$364 214 213 33 101 gf180mcu_fd_sc_mcu9t5v0__clkinv_2
* cell instance $366 r0 *1 58.8,55.44
X$366 33 213 114 66 214 67 gf180mcu_fd_sc_mcu9t5v0__and3_2
* cell instance $370 r0 *1 46.48,35.28
X$370 214 213 33 44 38 gf180mcu_fd_sc_mcu9t5v0__nand2_2
* cell instance $380 m0 *1 54.32,55.44
X$380 214 213 40 33 38 gf180mcu_fd_sc_mcu9t5v0__nor2_2
* cell instance $384 r0 *1 49.28,65.52
X$384 214 106 33 65 93 213 gf180mcu_fd_sc_mcu9t5v0__addh_2
* cell instance $386 r0 *1 64.96,55.44
X$386 77 33 78 79 213 214 68 gf180mcu_fd_sc_mcu9t5v0__or4_2
* cell instance $396 r0 *1 67.2,45.36
X$396 213 45 34 50 71 67 214 gf180mcu_fd_sc_mcu9t5v0__oai211_2
* cell instance $403 r0 *1 134.4,35.28
X$403 35 213 214 48 gf180mcu_fd_sc_mcu9t5v0__dlyb_2
* cell instance $415 r0 *1 44.8,45.36
X$415 54 214 213 65 76 38 gf180mcu_fd_sc_mcu9t5v0__addh_1
* cell instance $419 m0 *1 43.68,45.36
X$419 214 45 54 44 58 39 213 gf180mcu_fd_sc_mcu9t5v0__nor4_4
* cell instance $421 r0 *1 43.12,35.28
X$421 214 213 63 39 gf180mcu_fd_sc_mcu9t5v0__clkinv_2
* cell instance $423 r0 *1 51.52,35.28
X$423 39 54 40 49 214 213 50 gf180mcu_fd_sc_mcu9t5v0__and4_2
* cell instance $430 m0 *1 59.36,65.52
X$430 214 41 77 213 78 94 gf180mcu_fd_sc_mcu9t5v0__nand3_2
* cell instance $438 m0 *1 108.64,45.36
X$438 214 42 57 213 47 59 gf180mcu_fd_sc_mcu9t5v0__nand3_2
* cell instance $456 r0 *1 72.8,55.44
X$456 213 55 214 45 80 50 gf180mcu_fd_sc_mcu9t5v0__oai21_2
* cell instance $474 m0 *1 33.04,45.36
X$474 213 52 53 214 49 gf180mcu_fd_sc_mcu9t5v0__and2_2
* cell instance $488 m0 *1 38.08,45.36
X$488 214 52 53 213 58 gf180mcu_fd_sc_mcu9t5v0__or2_2
* cell instance $490 r0 *1 35.28,45.36
X$490 52 214 213 65 85 63 gf180mcu_fd_sc_mcu9t5v0__addh_1
* cell instance $495 m0 *1 36.4,55.44
X$495 214 53 66 65 73 213 gf180mcu_fd_sc_mcu9t5v0__addh_2
* cell instance $511 m0 *1 64.96,45.36
X$511 214 213 66 55 gf180mcu_fd_sc_mcu9t5v0__clkinv_2
* cell instance $513 r0 *1 67.2,65.52
X$513 214 78 94 101 88 56 213 gf180mcu_fd_sc_mcu9t5v0__nand4_4
* cell instance $525 r0 *1 92.96,85.68
X$525 213 137 214 56 143 95 gf180mcu_fd_sc_mcu9t5v0__oai21_2
* cell instance $527 r0 *1 84,75.6
X$527 120 214 126 56 213 122 gf180mcu_fd_sc_mcu9t5v0__or3_2
* cell instance $544 r0 *1 104.16,45.36
X$544 214 69 60 213 72 62 gf180mcu_fd_sc_mcu9t5v0__nand3_2
* cell instance $554 r0 *1 66.64,75.6
X$554 214 213 123 64 gf180mcu_fd_sc_mcu9t5v0__clkbuf_3
* cell instance $557 m0 *1 87.92,105.84
X$557 214 213 64 138 gf180mcu_fd_sc_mcu9t5v0__clkbuf_3
* cell instance $564 m0 *1 52.64,105.84
X$564 214 213 64 133 gf180mcu_fd_sc_mcu9t5v0__clkbuf_3
* cell instance $570 r0 *1 51.52,75.6
X$570 214 213 82 65 gf180mcu_fd_sc_mcu9t5v0__clkinv_4
* cell instance $583 r0 *1 40.32,85.68
X$583 213 125 214 135 153 136 65 gf180mcu_fd_sc_mcu9t5v0__oai22_2
* cell instance $585 r0 *1 41.44,65.52
X$585 214 93 81 213 65 87 gf180mcu_fd_sc_mcu9t5v0__nand3_2
* cell instance $588 r0 *1 38.08,55.44
X$588 214 85 81 213 65 87 gf180mcu_fd_sc_mcu9t5v0__nand3_2
* cell instance $591 m0 *1 38.64,85.68
X$591 214 113 213 66 135 82 124 gf180mcu_fd_sc_mcu9t5v0__aoi22_2
* cell instance $613 m0 *1 82.32,85.68
X$613 120 214 68 126 213 132 gf180mcu_fd_sc_mcu9t5v0__or3_2
* cell instance $615 r0 *1 101.92,75.6
X$615 213 131 214 95 127 68 gf180mcu_fd_sc_mcu9t5v0__oai21_2
* cell instance $625 r0 *1 134.4,55.44
X$625 70 213 214 83 gf180mcu_fd_sc_mcu9t5v0__dlyb_2
* cell instance $631 r0 *1 61.04,65.52
X$631 77 213 78 94 214 71 gf180mcu_fd_sc_mcu9t5v0__and3_2
* cell instance $637 r0 *1 30.8,55.44
X$637 214 73 81 213 75 77 gf180mcu_fd_sc_mcu9t5v0__nand3_2
* cell instance $643 r0 *1 45.36,55.44
X$643 214 82 73 213 76 gf180mcu_fd_sc_mcu9t5v0__or2_2
* cell instance $654 r0 *1 29.12,75.6
X$654 214 113 213 89 130 75 124 gf180mcu_fd_sc_mcu9t5v0__aoi22_2
* cell instance $656 r0 *1 24.08,75.6
X$656 214 213 75 118 104 gf180mcu_fd_sc_mcu9t5v0__nand2_2
* cell instance $662 m0 *1 31.92,65.52
X$662 214 87 89 77 75 213 gf180mcu_fd_sc_mcu9t5v0__addh_2
* cell instance $667 m0 *1 23.52,75.6
X$667 214 77 213 104 105 111 102 gf180mcu_fd_sc_mcu9t5v0__aoi22_2
* cell instance $672 m0 *1 54.32,65.52
X$672 214 213 77 88 gf180mcu_fd_sc_mcu9t5v0__clkinv_2
* cell instance $692 m0 *1 43.68,65.52
X$692 213 81 87 214 78 gf180mcu_fd_sc_mcu9t5v0__xnor2_2
* cell instance $698 m0 *1 66.08,75.6
X$698 214 108 107 213 79 gf180mcu_fd_sc_mcu9t5v0__or2_2
* cell instance $704 r0 *1 90.72,75.6
X$704 213 122 137 80 115 121 214 gf180mcu_fd_sc_mcu9t5v0__oai211_2
* cell instance $710 m0 *1 95.2,75.6
X$710 213 112 100 80 115 97 214 gf180mcu_fd_sc_mcu9t5v0__oai211_2
* cell instance $713 m0 *1 90.16,85.68
X$713 213 132 131 80 115 128 214 gf180mcu_fd_sc_mcu9t5v0__oai211_2
* cell instance $716 r0 *1 16.24,75.6
X$716 214 213 103 120 81 gf180mcu_fd_sc_mcu9t5v0__nor2_2
* cell instance $718 m0 *1 13.44,75.6
X$718 214 102 213 110 109 104 81 gf180mcu_fd_sc_mcu9t5v0__aoi22_2
* cell instance $725 r0 *1 16.24,65.52
X$725 214 213 110 103 99 81 gf180mcu_fd_sc_mcu9t5v0__mux2_2
* cell instance $733 r0 *1 57.12,75.6
X$733 108 214 213 82 119 217 gf180mcu_fd_sc_mcu9t5v0__addh_1
* cell instance $736 m0 *1 50.4,75.6
X$736 107 214 213 82 93 216 gf180mcu_fd_sc_mcu9t5v0__addh_1
* cell instance $748 r0 *1 24.64,65.52
X$748 214 213 105 84 gf180mcu_fd_sc_mcu9t5v0__clkinv_2
* cell instance $755 m0 *1 10.08,75.6
X$755 214 213 109 86 gf180mcu_fd_sc_mcu9t5v0__clkinv_2
* cell instance $764 r0 *1 31.36,65.52
X$764 213 92 87 214 99 gf180mcu_fd_sc_mcu9t5v0__and2_2
* cell instance $774 m0 *1 33.04,75.6
X$774 214 213 111 113 88 124 gf180mcu_fd_sc_mcu9t5v0__mux2_2
* cell instance $779 r0 *1 74.48,75.6
X$779 214 213 89 114 gf180mcu_fd_sc_mcu9t5v0__clkinv_2
* cell instance $800 m0 *1 134.4,65.52
X$800 91 213 214 98 gf180mcu_fd_sc_mcu9t5v0__dlyb_2
* cell instance $802 m0 *1 64.96,85.68
X$802 214 125 213 126 114 92 gf180mcu_fd_sc_mcu9t5v0__aoi21_2
* cell instance $804 r0 *1 35.28,85.68
X$804 213 134 92 214 113 gf180mcu_fd_sc_mcu9t5v0__and2_2
* cell instance $806 m0 *1 47.6,85.68
X$806 214 213 124 92 gf180mcu_fd_sc_mcu9t5v0__clkinv_2
* cell instance $814 m0 *1 30.24,95.76
X$814 102 213 92 119 214 146 gf180mcu_fd_sc_mcu9t5v0__and3_2
* cell instance $818 m0 *1 44.8,75.6
X$818 214 213 93 119 gf180mcu_fd_sc_mcu9t5v0__clkinv_2
* cell instance $824 m0 *1 59.92,75.6
X$824 214 213 94 108 107 gf180mcu_fd_sc_mcu9t5v0__nor2_2
* cell instance $861 r0 *1 50.4,85.68
X$861 213 102 124 214 145 gf180mcu_fd_sc_mcu9t5v0__and2_2
* cell instance $864 m0 *1 59.36,115.92
X$864 213 102 134 192 214 gf180mcu_fd_sc_mcu9t5v0__and2_4
* cell instance $878 r0 *1 30.24,95.76
X$878 214 134 104 150 102 213 gf180mcu_fd_sc_mcu9t5v0__oai21_4
* cell instance $881 m0 *1 3.36,105.84
X$881 214 213 159 148 102 120 gf180mcu_fd_sc_mcu9t5v0__mux2_2
* cell instance $883 r0 *1 10.64,105.84
X$883 213 102 149 214 160 gf180mcu_fd_sc_mcu9t5v0__and2_2
* cell instance $885 m0 *1 53.76,115.92
X$885 214 213 102 125 gf180mcu_fd_sc_mcu9t5v0__inv_4
* cell instance $895 r0 *1 24.64,95.76
X$895 214 213 154 104 146 gf180mcu_fd_sc_mcu9t5v0__nor2_2
* cell instance $900 r0 *1 53.76,95.76
X$900 214 145 213 106 158 150 125 gf180mcu_fd_sc_mcu9t5v0__aoi22_2
* cell instance $944 r0 *1 58.24,126
X$944 213 115 214 178 163 179 194 gf180mcu_fd_sc_mcu9t5v0__oai22_2
* cell instance $951 r0 *1 50.96,105.84
X$951 213 214 125 115 134 gf180mcu_fd_sc_mcu9t5v0__nand2_4
* cell instance $957 r0 *1 43.12,115.92
X$957 214 213 177 171 115 151 gf180mcu_fd_sc_mcu9t5v0__mux2_2
* cell instance $962 m0 *1 134.4,85.68
X$962 116 213 214 141 gf180mcu_fd_sc_mcu9t5v0__dlyb_2
* cell instance $971 m0 *1 27.44,85.68
X$971 213 118 214 130 142 125 gf180mcu_fd_sc_mcu9t5v0__oai21_2
* cell instance $983 r0 *1 5.04,95.76
X$983 213 120 124 214 149 gf180mcu_fd_sc_mcu9t5v0__xnor2_2
* cell instance $985 m0 *1 37.52,95.76
X$985 214 213 120 134 gf180mcu_fd_sc_mcu9t5v0__inv_3
* cell instance $987 r0 *1 44.8,95.76
X$987 214 120 213 153 151 125 gf180mcu_fd_sc_mcu9t5v0__aoi21_2
* cell instance $990 m0 *1 62.16,105.84
X$990 214 213 158 120 163 gf180mcu_fd_sc_mcu9t5v0__nor2_4
* cell instance $1037 m0 *1 10.64,95.76
X$1037 124 213 214 147 gf180mcu_fd_sc_mcu9t5v0__dlyb_2
* cell instance $1060 r0 *1 34.72,115.92
X$1060 214 213 170 165 125 185 gf180mcu_fd_sc_mcu9t5v0__mux2_2
* cell instance $1091 m0 *1 44.8,105.84
X$1091 214 213 133 gf180mcu_fd_sc_mcu9t5v0__clkbuf_4
* cell instance $1093 m0 *1 26.88,136.08
X$1093 214 185 133 170 183 213 gf180mcu_fd_sc_mcu9t5v0__dffsnq_2
* cell instance $1096 m0 *1 29.68,126
X$1096 214 171 133 177 183 213 gf180mcu_fd_sc_mcu9t5v0__dffsnq_2
* cell instance $1118 m0 *1 33.6,115.92
X$1118 214 213 134 165 150 gf180mcu_fd_sc_mcu9t5v0__nand2_2
* cell instance $1164 m0 *1 134.4,95.76
X$1164 139 213 214 140 gf180mcu_fd_sc_mcu9t5v0__dlyb_2
* cell instance $1179 m0 *1 2.24,95.76
X$1179 148 213 214 144 gf180mcu_fd_sc_mcu9t5v0__dlyb_2
* cell instance $1201 m0 *1 54.88,126
X$1201 214 213 150 178 184 gf180mcu_fd_sc_mcu9t5v0__nand2_2
* cell instance $1203 m0 *1 47.04,115.92
X$1203 214 213 150 151 gf180mcu_fd_sc_mcu9t5v0__clkinv_2
* cell instance $1212 m0 *1 56,136.08
X$1212 207 213 214 150 gf180mcu_fd_sc_mcu9t5v0__buf_3
* cell instance $1223 r0 *1 130.48,115.92
X$1223 214 213 155 168 192 164 gf180mcu_fd_sc_mcu9t5v0__mux2_2
* cell instance $1225 m0 *1 125.44,105.84
X$1225 214 213 162 155 163 156 gf180mcu_fd_sc_mcu9t5v0__mux2_2
* cell instance $1232 r0 *1 134.4,95.76
X$1232 156 213 214 157 gf180mcu_fd_sc_mcu9t5v0__dlyb_2
* cell instance $1245 m0 *1 134.4,105.84
X$1245 161 213 214 164 gf180mcu_fd_sc_mcu9t5v0__dlyb_2
* cell instance $1259 r0 *1 80.64,126
X$1259 214 213 193 187 163 180 gf180mcu_fd_sc_mcu9t5v0__mux2_2
* cell instance $1261 r0 *1 71.12,126
X$1261 214 213 172 186 163 173 gf180mcu_fd_sc_mcu9t5v0__mux2_2
* cell instance $1264 r0 *1 120.96,126
X$1264 214 213 181 190 163 182 gf180mcu_fd_sc_mcu9t5v0__mux2_2
* cell instance $1266 m0 *1 111.44,136.08
X$1266 214 213 196 203 163 189 gf180mcu_fd_sc_mcu9t5v0__mux2_2
* cell instance $1269 r0 *1 122.08,115.92
X$1269 214 213 167 176 163 168 gf180mcu_fd_sc_mcu9t5v0__mux2_2
* cell instance $1271 r0 *1 101.92,115.92
X$1271 214 213 174 175 163 166 gf180mcu_fd_sc_mcu9t5v0__mux2_2
* cell instance $1278 m0 *1 103.04,136.08
X$1278 214 213 203 166 192 198 gf180mcu_fd_sc_mcu9t5v0__mux2_2
* cell instance $1291 m0 *1 134.4,136.08
X$1291 169 213 214 191 gf180mcu_fd_sc_mcu9t5v0__dlyb_2
* cell instance $1299 m0 *1 47.6,136.08
X$1299 171 213 214 200 gf180mcu_fd_sc_mcu9t5v0__dlyb_2
* cell instance $1307 m0 *1 82.88,136.08
X$1307 214 213 187 173 192 201 gf180mcu_fd_sc_mcu9t5v0__mux2_2
* cell instance $1312 r0 *1 91.84,126
X$1312 214 213 175 180 192 188 gf180mcu_fd_sc_mcu9t5v0__mux2_2
* cell instance $1317 r0 *1 129.36,126
X$1317 214 213 176 182 192 191 gf180mcu_fd_sc_mcu9t5v0__mux2_2
* cell instance $1342 r0 *1 32.48,136.08
X$1342 205 213 214 183 gf180mcu_fd_sc_mcu9t5v0__buf_2
* cell instance $1353 r0 *1 57.68,136.08
X$1353 209 213 214 184 gf180mcu_fd_sc_mcu9t5v0__dlyb_2
* cell instance $1359 r0 *1 36.96,136.08
X$1359 185 213 214 206 gf180mcu_fd_sc_mcu9t5v0__dlyb_2
* cell instance $1362 m0 *1 72.8,136.08
X$1362 214 213 186 195 192 197 gf180mcu_fd_sc_mcu9t5v0__mux2_2
* cell instance $1367 m0 *1 92.96,136.08
X$1367 202 213 214 188 gf180mcu_fd_sc_mcu9t5v0__dlyb_2
* cell instance $1371 m0 *1 119.84,136.08
X$1371 214 213 190 189 192 199 gf180mcu_fd_sc_mcu9t5v0__mux2_2
* cell instance $1397 m0 *1 64.96,136.08
X$1397 214 213 195 194 gf180mcu_fd_sc_mcu9t5v0__clkinv_2
* cell instance $1409 r0 *1 76.72,136.08
X$1409 210 213 214 197 gf180mcu_fd_sc_mcu9t5v0__dlyb_2
* cell instance $1413 r0 *1 101.92,136.08
X$1413 212 213 214 198 gf180mcu_fd_sc_mcu9t5v0__dlyb_2
* cell instance $1416 r0 *1 118.72,136.08
X$1416 204 213 214 199 gf180mcu_fd_sc_mcu9t5v0__dlyb_2
* cell instance $1424 r0 *1 85.68,136.08
X$1424 211 213 214 201 gf180mcu_fd_sc_mcu9t5v0__dlyb_2
* cell instance $1438 r0 *1 45.36,136.08
X$1438 214 205 208 213 gf180mcu_fd_sc_mcu9t5v0__dlyc_2
.ENDS spi_master

* cell gf180mcu_fd_sc_mcu9t5v0__clkinv_3
* pin PWELL,VSS,gf180mcu_gnd
* pin NWELL,VDD
* pin I
.SUBCKT gf180mcu_fd_sc_mcu9t5v0__clkinv_3 1 2 3
* net 1 PWELL,VSS,gf180mcu_gnd
* net 2 NWELL,VDD
* net 3 I
* net 4 ZN
* device instance $1 r0 *1 0.87,3.78 pmos_5p0
M$1 4 3 2 2 pmos_5p0 L=0.5U W=5.49U AS=1.9398P AD=1.9398P PS=9.44U PD=9.44U
* device instance $4 r0 *1 0.92,0.995 nmos_5p0
M$4 4 3 1 1 nmos_5p0 L=0.6U W=2.19U AS=0.7008P AD=0.7008P PS=4.84U PD=4.84U
.ENDS gf180mcu_fd_sc_mcu9t5v0__clkinv_3

* cell gf180mcu_fd_sc_mcu9t5v0__nor4_4
* pin PWELL,VSS,gf180mcu_gnd
* pin ZN
* pin A2
* pin A3
* pin A4
* pin A1
* pin NWELL,VDD
.SUBCKT gf180mcu_fd_sc_mcu9t5v0__nor4_4 1 2 3 4 5 6 8
* net 1 PWELL,VSS,gf180mcu_gnd
* net 2 ZN
* net 3 A2
* net 4 A3
* net 5 A4
* net 6 A1
* net 8 NWELL,VDD
* device instance $1 r0 *1 1.285,3.78 pmos_5p0
M$1 9 4 7 8 pmos_5p0 L=0.5U W=1.83U AS=0.8052P AD=0.52155P PS=4.54U PD=2.4U
* device instance $2 r0 *1 2.355,3.78 pmos_5p0
M$2 8 5 9 8 pmos_5p0 L=0.5U W=1.83U AS=0.52155P AD=0.5673P PS=2.4U PD=2.45U
* device instance $3 r0 *1 3.475,3.78 pmos_5p0
M$3 10 5 8 8 pmos_5p0 L=0.5U W=1.83U AS=0.5673P AD=0.732P PS=2.45U PD=2.63U
* device instance $4 r0 *1 4.775,3.78 pmos_5p0
M$4 7 4 10 8 pmos_5p0 L=0.5U W=1.83U AS=0.732P AD=0.732P PS=2.63U PD=2.63U
* device instance $5 r0 *1 6.075,3.78 pmos_5p0
M$5 11 4 7 8 pmos_5p0 L=0.5U W=1.83U AS=0.732P AD=0.5673P PS=2.63U PD=2.45U
* device instance $6 r0 *1 7.195,3.78 pmos_5p0
M$6 8 5 11 8 pmos_5p0 L=0.5U W=1.83U AS=0.5673P AD=0.5673P PS=2.45U PD=2.45U
* device instance $7 r0 *1 8.315,3.78 pmos_5p0
M$7 14 5 8 8 pmos_5p0 L=0.5U W=1.83U AS=0.5673P AD=0.732P PS=2.45U PD=2.63U
* device instance $8 r0 *1 9.615,3.78 pmos_5p0
M$8 13 4 14 8 pmos_5p0 L=0.5U W=1.83U AS=0.732P AD=0.732P PS=2.63U PD=2.63U
* device instance $9 r0 *1 10.915,3.78 pmos_5p0
M$9 12 3 13 8 pmos_5p0 L=0.5U W=1.83U AS=0.732P AD=0.732P PS=2.63U PD=2.63U
* device instance $10 r0 *1 12.215,3.78 pmos_5p0
M$10 2 6 12 8 pmos_5p0 L=0.5U W=1.83U AS=0.732P AD=0.732P PS=2.63U PD=2.63U
* device instance $11 r0 *1 13.515,3.78 pmos_5p0
M$11 15 6 2 8 pmos_5p0 L=0.5U W=1.83U AS=0.732P AD=0.732P PS=2.63U PD=2.63U
* device instance $12 r0 *1 14.815,3.78 pmos_5p0
M$12 7 3 15 8 pmos_5p0 L=0.5U W=1.83U AS=0.732P AD=0.732P PS=2.63U PD=2.63U
* device instance $13 r0 *1 16.115,3.78 pmos_5p0
M$13 16 3 7 8 pmos_5p0 L=0.5U W=1.83U AS=0.732P AD=0.732P PS=2.63U PD=2.63U
* device instance $14 r0 *1 17.415,3.78 pmos_5p0
M$14 2 6 16 8 pmos_5p0 L=0.5U W=1.83U AS=0.732P AD=0.732P PS=2.63U PD=2.63U
* device instance $15 r0 *1 18.715,3.78 pmos_5p0
M$15 17 6 2 8 pmos_5p0 L=0.5U W=1.83U AS=0.732P AD=0.68625P PS=2.63U PD=2.58U
* device instance $16 r0 *1 19.965,3.78 pmos_5p0
M$16 7 3 17 8 pmos_5p0 L=0.5U W=1.83U AS=0.68625P AD=0.8052P PS=2.58U PD=4.54U
* device instance $17 r0 *1 4.775,0.695 nmos_5p0
M$17 1 4 2 1 nmos_5p0 L=0.6U W=2.64U AS=0.98415P AD=0.8057P PS=6.295U PD=5.09U
* device instance $19 r0 *1 12.215,0.695 nmos_5p0
M$19 1 6 2 1 nmos_5p0 L=0.6U W=2.64U AS=0.925P AD=0.925P PS=5.46U PD=5.46U
* device instance $20 r0 *1 14.815,0.695 nmos_5p0
M$20 1 3 2 1 nmos_5p0 L=0.6U W=2.64U AS=0.925P AD=0.98415P PS=5.46U PD=6.295U
* device instance $24 r0 *1 2.355,0.7 nmos_5p0
M$24 1 5 2 1 nmos_5p0 L=0.6U W=2.64U AS=0.8057P AD=0.6864P PS=5.09U PD=4.72U
.ENDS gf180mcu_fd_sc_mcu9t5v0__nor4_4

* cell gf180mcu_fd_sc_mcu9t5v0__nand3_2
* pin PWELL,VSS,gf180mcu_gnd
* pin ZN
* pin A1
* pin NWELL,VDD
* pin A2
* pin A3
.SUBCKT gf180mcu_fd_sc_mcu9t5v0__nand3_2 1 2 3 4 5 6
* net 1 PWELL,VSS,gf180mcu_gnd
* net 2 ZN
* net 3 A1
* net 4 NWELL,VDD
* net 5 A2
* net 6 A3
* device instance $1 r0 *1 0.87,3.85 pmos_5p0
M$1 2 6 4 4 pmos_5p0 L=0.5U W=2.92U AS=1.022P AD=1.022P PS=5.78U PD=5.78U
* device instance $2 r0 *1 1.89,3.85 pmos_5p0
M$2 4 5 2 4 pmos_5p0 L=0.5U W=2.92U AS=0.7592P AD=0.7592P PS=3.96U PD=3.96U
* device instance $3 r0 *1 2.91,3.85 pmos_5p0
M$3 2 3 4 4 pmos_5p0 L=0.5U W=2.92U AS=0.7592P AD=0.7592P PS=3.96U PD=3.96U
* device instance $7 r0 *1 1.06,1 nmos_5p0
M$7 10 6 1 1 nmos_5p0 L=0.6U W=1.32U AS=0.5808P AD=0.1848P PS=3.52U PD=1.6U
* device instance $8 r0 *1 1.94,1 nmos_5p0
M$8 9 5 10 1 nmos_5p0 L=0.6U W=1.32U AS=0.1848P AD=0.2112P PS=1.6U PD=1.64U
* device instance $9 r0 *1 2.86,1 nmos_5p0
M$9 2 3 9 1 nmos_5p0 L=0.6U W=1.32U AS=0.2112P AD=0.3432P PS=1.64U PD=1.84U
* device instance $10 r0 *1 3.98,1 nmos_5p0
M$10 8 3 2 1 nmos_5p0 L=0.6U W=1.32U AS=0.3432P AD=0.2112P PS=1.84U PD=1.64U
* device instance $11 r0 *1 4.9,1 nmos_5p0
M$11 7 5 8 1 nmos_5p0 L=0.6U W=1.32U AS=0.2112P AD=0.2772P PS=1.64U PD=1.74U
* device instance $12 r0 *1 5.92,1 nmos_5p0
M$12 1 6 7 1 nmos_5p0 L=0.6U W=1.32U AS=0.2772P AD=0.5808P PS=1.74U PD=3.52U
.ENDS gf180mcu_fd_sc_mcu9t5v0__nand3_2

* cell gf180mcu_fd_sc_mcu9t5v0__addh_2
* pin PWELL,VSS,gf180mcu_gnd
* pin CO
* pin S
* pin A
* pin B
* pin NWELL,VDD
.SUBCKT gf180mcu_fd_sc_mcu9t5v0__addh_2 1 2 6 7 8 10
* net 1 PWELL,VSS,gf180mcu_gnd
* net 2 CO
* net 6 S
* net 7 A
* net 8 B
* net 10 NWELL,VDD
* device instance $1 r0 *1 5.99,3.78 pmos_5p0
M$1 11 8 10 10 pmos_5p0 L=0.5U W=1.83U AS=0.8052P AD=0.52155P PS=4.54U PD=2.4U
* device instance $2 r0 *1 7.06,3.78 pmos_5p0
M$2 5 7 11 10 pmos_5p0 L=0.5U W=1.83U AS=0.52155P AD=0.52155P PS=2.4U PD=2.4U
* device instance $3 r0 *1 8.13,3.78 pmos_5p0
M$3 10 3 5 10 pmos_5p0 L=0.5U W=1.83U AS=0.52155P AD=0.8784P PS=2.4U PD=2.79U
* device instance $4 r0 *1 9.59,3.78 pmos_5p0
M$4 6 5 10 10 pmos_5p0 L=0.5U W=3.66U AS=1.39995P AD=1.32675P PS=5.19U PD=6.94U
* device instance $6 r0 *1 0.94,3.78 pmos_5p0
M$6 2 3 10 10 pmos_5p0 L=0.5U W=3.66U AS=1.3725P AD=1.08885P PS=6.99U PD=4.85U
* device instance $8 r0 *1 3.13,3.78 pmos_5p0
M$8 3 7 10 10 pmos_5p0 L=0.5U W=1.83U AS=0.52155P AD=0.4758P PS=2.4U PD=2.35U
* device instance $9 r0 *1 4.15,3.78 pmos_5p0
M$9 10 8 3 10 pmos_5p0 L=0.5U W=1.83U AS=0.4758P AD=0.8052P PS=2.35U PD=4.54U
* device instance $10 r0 *1 5.94,1.005 nmos_5p0
M$10 5 8 4 1 nmos_5p0 L=0.6U W=1.32U AS=0.5808P AD=0.3432P PS=3.52U PD=1.84U
* device instance $11 r0 *1 7.06,1.005 nmos_5p0
M$11 4 7 5 1 nmos_5p0 L=0.6U W=1.32U AS=0.3432P AD=0.3432P PS=1.84U PD=1.84U
* device instance $12 r0 *1 8.18,1.005 nmos_5p0
M$12 1 3 4 1 nmos_5p0 L=0.6U W=1.32U AS=0.3432P AD=0.5016P PS=1.84U PD=2.08U
* device instance $13 r0 *1 9.54,1.005 nmos_5p0
M$13 6 5 1 1 nmos_5p0 L=0.6U W=2.64U AS=0.8448P AD=0.924P PS=3.92U PD=5.36U
* device instance $15 r0 *1 0.94,1.005 nmos_5p0
M$15 2 3 1 1 nmos_5p0 L=0.6U W=2.64U AS=0.924P AD=0.6864P PS=5.36U PD=3.68U
* device instance $17 r0 *1 3.18,1.005 nmos_5p0
M$17 9 7 1 1 nmos_5p0 L=0.6U W=1.32U AS=0.3432P AD=0.2112P PS=1.84U PD=1.64U
* device instance $18 r0 *1 4.1,1.005 nmos_5p0
M$18 3 8 9 1 nmos_5p0 L=0.6U W=1.32U AS=0.2112P AD=0.5808P PS=1.64U PD=3.52U
.ENDS gf180mcu_fd_sc_mcu9t5v0__addh_2

* cell gf180mcu_fd_sc_mcu9t5v0__and4_2
* pin A1
* pin A2
* pin A3
* pin A4
* pin PWELL,VSS,gf180mcu_gnd
* pin NWELL,VDD
* pin Z
.SUBCKT gf180mcu_fd_sc_mcu9t5v0__and4_2 1 2 3 4 5 6 8
* net 1 A1
* net 2 A2
* net 3 A3
* net 4 A4
* net 5 PWELL,VSS,gf180mcu_gnd
* net 6 NWELL,VDD
* net 8 Z
* device instance $1 r0 *1 0.925,4.055 pmos_5p0
M$1 7 1 6 6 pmos_5p0 L=0.5U W=1.28U AS=0.5632P AD=0.3328P PS=3.44U PD=1.8U
* device instance $2 r0 *1 1.945,4.055 pmos_5p0
M$2 6 2 7 6 pmos_5p0 L=0.5U W=1.28U AS=0.3328P AD=0.3328P PS=1.8U PD=1.8U
* device instance $3 r0 *1 2.965,4.055 pmos_5p0
M$3 7 3 6 6 pmos_5p0 L=0.5U W=1.28U AS=0.3328P AD=0.3328P PS=1.8U PD=1.8U
* device instance $4 r0 *1 3.985,4.055 pmos_5p0
M$4 7 4 6 6 pmos_5p0 L=0.5U W=1.28U AS=0.558P AD=0.3328P PS=2.53U PD=1.8U
* device instance $5 r0 *1 5.185,3.78 pmos_5p0
M$5 8 7 6 6 pmos_5p0 L=0.5U W=3.66U AS=1.0338P AD=1.281P PS=4.88U PD=6.89U
* device instance $7 r0 *1 0.975,1.005 nmos_5p0
M$7 11 1 7 5 nmos_5p0 L=0.6U W=1.32U AS=0.5808P AD=0.2112P PS=3.52U PD=1.64U
* device instance $8 r0 *1 1.895,1.005 nmos_5p0
M$8 10 2 11 5 nmos_5p0 L=0.6U W=1.32U AS=0.2112P AD=0.2772P PS=1.64U PD=1.74U
* device instance $9 r0 *1 2.915,1.005 nmos_5p0
M$9 9 3 10 5 nmos_5p0 L=0.6U W=1.32U AS=0.2772P AD=0.2772P PS=1.74U PD=1.74U
* device instance $10 r0 *1 3.935,1.005 nmos_5p0
M$10 5 4 9 5 nmos_5p0 L=0.6U W=1.32U AS=0.2772P AD=0.3432P PS=1.74U PD=1.84U
* device instance $11 r0 *1 5.055,1.005 nmos_5p0
M$11 8 7 5 5 nmos_5p0 L=0.6U W=2.64U AS=0.6864P AD=0.924P PS=3.68U PD=5.36U
.ENDS gf180mcu_fd_sc_mcu9t5v0__and4_2

* cell gf180mcu_fd_sc_mcu9t5v0__clkinv_4
* pin PWELL,VSS,gf180mcu_gnd
* pin NWELL,VDD
* pin I
* pin ZN
.SUBCKT gf180mcu_fd_sc_mcu9t5v0__clkinv_4 1 2 3 4
* net 1 PWELL,VSS,gf180mcu_gnd
* net 2 NWELL,VDD
* net 3 I
* net 4 ZN
* device instance $1 r0 *1 0.87,3.78 pmos_5p0
M$1 4 3 2 2 pmos_5p0 L=0.5U W=7.32U AS=2.5071P AD=2.5071P PS=11.89U PD=11.89U
* device instance $5 r0 *1 0.92,1.3 nmos_5p0
M$5 4 3 1 1 nmos_5p0 L=0.6U W=2.92U AS=0.8906P AD=0.8906P PS=6.09U PD=6.09U
.ENDS gf180mcu_fd_sc_mcu9t5v0__clkinv_4

* cell gf180mcu_fd_sc_mcu9t5v0__inv_3
* pin PWELL,VSS,gf180mcu_gnd
* pin NWELL,VDD
* pin I
* pin ZN
.SUBCKT gf180mcu_fd_sc_mcu9t5v0__inv_3 1 2 3 4
* net 1 PWELL,VSS,gf180mcu_gnd
* net 2 NWELL,VDD
* net 3 I
* net 4 ZN
* device instance $1 r0 *1 0.87,3.78 pmos_5p0
M$1 4 3 2 2 pmos_5p0 L=0.5U W=5.49U AS=1.9398P AD=1.9398P PS=9.44U PD=9.44U
* device instance $4 r0 *1 0.92,1.005 nmos_5p0
M$4 4 3 1 1 nmos_5p0 L=0.6U W=3.96U AS=1.2672P AD=1.2672P PS=7.2U PD=7.2U
.ENDS gf180mcu_fd_sc_mcu9t5v0__inv_3

* cell gf180mcu_fd_sc_mcu9t5v0__clkbuf_4
* pin PWELL,VSS,gf180mcu_gnd
* pin NWELL,VDD
* pin I
.SUBCKT gf180mcu_fd_sc_mcu9t5v0__clkbuf_4 1 2 3
* net 1 PWELL,VSS,gf180mcu_gnd
* net 2 NWELL,VDD
* net 3 I
* net 5 Z