* CDL Netlist generated by OpenROAD

*.BUSDELIMITER [

.SUBCKT dual_clock_fifo almost_empty almost_full empty fifo_count[0]
+ fifo_count[1] fifo_count[2] fifo_count[3] fifo_count[4] full
+ rd_clk rd_data[0] rd_data[1] rd_data[2] rd_data[3] rd_data[4]
+ rd_data[5] rd_data[6] rd_data[7] rd_en rd_rst_n wr_clk wr_data[0]
+ wr_data[1] wr_data[2] wr_data[3] wr_data[4] wr_data[5] wr_data[6]
+ wr_data[7] wr_en wr_rst_n
X_379_ wr_ptr_gray\[1\] rd_ptr_gray_wr_sync2\[1\] _157_ VDD
+ VSS gf180mcu_fd_sc_mcu9t5v0__xor2_2
X_380_ wr_ptr_gray\[2\] rd_ptr_gray_wr_sync2\[2\] _158_ VDD
+ VSS gf180mcu_fd_sc_mcu9t5v0__xor2_2
X_381_ wr_ptr_gray\[3\] rd_ptr_gray_wr_sync2\[3\] _159_ VDD
+ VSS gf180mcu_fd_sc_mcu9t5v0__xor2_2
X_382_ wr_ptr_bin\[4\] rd_ptr_bin_wr_sync\[4\] _160_ VDD VSS
+ gf180mcu_fd_sc_mcu9t5v0__xor2_2
X_383_ wr_ptr_gray\[0\] rd_ptr_gray_wr_sync2\[0\] _161_ VDD
+ VSS gf180mcu_fd_sc_mcu9t5v0__xnor2_2
X_384_ _160_ _161_ _162_ VDD VSS gf180mcu_fd_sc_mcu9t5v0__nand2_2
X_385_ _157_ _158_ _159_ _162_ _163_ VDD VSS gf180mcu_fd_sc_mcu9t5v0__or4_2
X_386_ _163_ _164_ VDD VSS gf180mcu_fd_sc_mcu9t5v0__clkbuf_8
X_387_ _164_ net23 VDD VSS gf180mcu_fd_sc_mcu9t5v0__clkinv_8
X_388_ wr_ptr_bin_rd_sync\[4\] rd_ptr_bin\[4\] _165_ VDD VSS
+ gf180mcu_fd_sc_mcu9t5v0__xnor2_2
X_389_ _165_ _166_ VDD VSS gf180mcu_fd_sc_mcu9t5v0__clkinv_2
X_390_ wr_ptr_gray_rd_sync2\[3\] rd_ptr_gray\[3\] _167_ VDD
+ VSS gf180mcu_fd_sc_mcu9t5v0__xor2_2
X_391_ wr_ptr_gray_rd_sync2\[0\] rd_ptr_gray\[0\] _168_ VDD
+ VSS gf180mcu_fd_sc_mcu9t5v0__xor2_2
X_392_ wr_ptr_gray_rd_sync2\[1\] rd_ptr_gray\[1\] _169_ VDD
+ VSS gf180mcu_fd_sc_mcu9t5v0__xor2_2
X_393_ wr_ptr_gray_rd_sync2\[2\] rd_ptr_gray\[2\] _170_ VDD
+ VSS gf180mcu_fd_sc_mcu9t5v0__xor2_2
X_394_ _167_ _168_ _169_ _170_ _171_ VDD VSS gf180mcu_fd_sc_mcu9t5v0__or4_2
X_395_ _166_ _171_ _172_ VDD VSS gf180mcu_fd_sc_mcu9t5v0__or2_4
X_396_ _172_ net17 VDD VSS gf180mcu_fd_sc_mcu9t5v0__clkinv_2
X_397_ wr_ptr_gray_rd_sync2\[3\] wr_ptr_bin_rd_sync\[4\] _346_
+ VDD VSS gf180mcu_fd_sc_mcu9t5v0__xor2_2
X_398_ wr_ptr_gray_rd_sync2\[2\] _346_ _350_ VDD VSS gf180mcu_fd_sc_mcu9t5v0__xor2_2
X_399_ wr_ptr_gray_rd_sync2\[1\] _350_ _343_ VDD VSS gf180mcu_fd_sc_mcu9t5v0__xnor2_2
X_400_ _352_ _173_ VDD VSS gf180mcu_fd_sc_mcu9t5v0__clkinv_2
X_401_ _342_ _174_ VDD VSS gf180mcu_fd_sc_mcu9t5v0__clkinv_2
X_402_ _356_ _174_ _355_ _175_ VDD VSS gf180mcu_fd_sc_mcu9t5v0__aoi21_2
X_403_ _351_ _176_ VDD VSS gf180mcu_fd_sc_mcu9t5v0__clkinv_2
X_404_ _173_ _175_ _176_ _177_ VDD VSS gf180mcu_fd_sc_mcu9t5v0__oai21_2
X_405_ _348_ _177_ net21 VDD VSS gf180mcu_fd_sc_mcu9t5v0__xor2_4
X_406_ _378_ net18 VDD VSS gf180mcu_fd_sc_mcu9t5v0__inv_4
X_407_ _344_ _173_ _176_ _178_ VDD VSS gf180mcu_fd_sc_mcu9t5v0__oai21_2
X_408_ _348_ _178_ _347_ _179_ VDD VSS gf180mcu_fd_sc_mcu9t5v0__aoi21_2
X_409_ _165_ _179_ net22 VDD VSS gf180mcu_fd_sc_mcu9t5v0__xnor2_4
X_410_ rd_ptr_bin_wr_sync\[4\] rd_ptr_gray_wr_sync2\[3\] _357_
+ VDD VSS gf180mcu_fd_sc_mcu9t5v0__xnor2_2
X_411_ rd_ptr_gray_wr_sync2\[2\] _357_ _360_ VDD VSS gf180mcu_fd_sc_mcu9t5v0__xor2_2
X_412_ rd_ptr_gray_wr_sync2\[1\] _360_ _339_ VDD VSS gf180mcu_fd_sc_mcu9t5v0__xor2_2
X_413_ rd_ptr_bin\[2\] _180_ VDD VSS gf180mcu_fd_sc_mcu9t5v0__clkbuf_8
X_414_ _180_ _349_ VDD VSS gf180mcu_fd_sc_mcu9t5v0__clkinv_3
X_415_ rd_ptr_bin\[3\] _345_ VDD VSS gf180mcu_fd_sc_mcu9t5v0__clkinv_8
X_416_ rd_ptr_bin\[1\] _181_ VDD VSS gf180mcu_fd_sc_mcu9t5v0__clkbuf_8
X_417_ _181_ _353_ VDD VSS gf180mcu_fd_sc_mcu9t5v0__clkinv_2
X_418_ _366_ _338_ VDD VSS gf180mcu_fd_sc_mcu9t5v0__clkinv_2
X_419_ wr_ptr_bin\[0\] _000_ VDD VSS gf180mcu_fd_sc_mcu9t5v0__clkinv_2
X_420_ _343_ _354_ VDD VSS gf180mcu_fd_sc_mcu9t5v0__clkinv_2
X_421_ rd_ptr_gray_wr_sync2\[0\] _339_ _365_ VDD VSS gf180mcu_fd_sc_mcu9t5v0__xnor2_2
X_422_ wr_ptr_bin\[1\] _369_ VDD VSS gf180mcu_fd_sc_mcu9t5v0__clkinv_2
X_423_ wr_ptr_gray_rd_sync2\[0\] _343_ _377_ VDD VSS gf180mcu_fd_sc_mcu9t5v0__xor2_2
X_424_ net5 _182_ VDD VSS gf180mcu_fd_sc_mcu9t5v0__buf_3
X_425_ wr_ptr_bin\[3\] _183_ VDD VSS gf180mcu_fd_sc_mcu9t5v0__clkinv_2
X_426_ net13 _183_ _184_ VDD VSS gf180mcu_fd_sc_mcu9t5v0__and2_2
X_427_ wr_ptr_bin\[2\] _185_ VDD VSS gf180mcu_fd_sc_mcu9t5v0__clkinv_3
X_428_ _185_ _370_ _186_ VDD VSS gf180mcu_fd_sc_mcu9t5v0__and2_2
X_429_ _164_ _184_ _186_ _187_ VDD VSS gf180mcu_fd_sc_mcu9t5v0__and3_4
X_430_ mem\[0\]\[0\] _182_ _187_ _003_ VDD VSS gf180mcu_fd_sc_mcu9t5v0__mux2_2
X_431_ net6 _188_ VDD VSS gf180mcu_fd_sc_mcu9t5v0__clkbuf_3
X_432_ mem\[0\]\[1\] _188_ _187_ _004_ VDD VSS gf180mcu_fd_sc_mcu9t5v0__mux2_2
X_433_ net7 _189_ VDD VSS gf180mcu_fd_sc_mcu9t5v0__clkbuf_3
X_434_ mem\[0\]\[2\] _189_ _187_ _005_ VDD VSS gf180mcu_fd_sc_mcu9t5v0__mux2_2
X_435_ net8 _190_ VDD VSS gf180mcu_fd_sc_mcu9t5v0__clkbuf_4
X_436_ mem\[0\]\[3\] _190_ _187_ _006_ VDD VSS gf180mcu_fd_sc_mcu9t5v0__mux2_2
X_437_ net9 _191_ VDD VSS gf180mcu_fd_sc_mcu9t5v0__clkbuf_4
X_438_ mem\[0\]\[4\] _191_ _187_ _007_ VDD VSS gf180mcu_fd_sc_mcu9t5v0__mux2_2
X_439_ net10 _192_ VDD VSS gf180mcu_fd_sc_mcu9t5v0__buf_3
X_440_ mem\[0\]\[5\] _192_ _187_ _008_ VDD VSS gf180mcu_fd_sc_mcu9t5v0__mux2_2
X_441_ net11 _193_ VDD VSS gf180mcu_fd_sc_mcu9t5v0__buf_3
X_442_ mem\[0\]\[6\] _193_ _187_ _009_ VDD VSS gf180mcu_fd_sc_mcu9t5v0__mux2_2
X_443_ net12 _194_ VDD VSS gf180mcu_fd_sc_mcu9t5v0__buf_3
X_444_ mem\[0\]\[7\] _194_ _187_ _010_ VDD VSS gf180mcu_fd_sc_mcu9t5v0__mux2_2
X_445_ net13 wr_ptr_bin\[3\] _195_ VDD VSS gf180mcu_fd_sc_mcu9t5v0__and2_2
X_446_ _195_ _196_ VDD VSS gf180mcu_fd_sc_mcu9t5v0__buf_4
X_447_ _185_ _371_ _197_ VDD VSS gf180mcu_fd_sc_mcu9t5v0__and2_2
X_448_ _164_ _196_ _197_ _198_ VDD VSS gf180mcu_fd_sc_mcu9t5v0__and3_4
X_449_ mem\[10\]\[0\] _182_ _198_ _011_ VDD VSS gf180mcu_fd_sc_mcu9t5v0__mux2_2
X_450_ mem\[10\]\[1\] _188_ _198_ _012_ VDD VSS gf180mcu_fd_sc_mcu9t5v0__mux2_2
X_451_ mem\[10\]\[2\] _189_ _198_ _013_ VDD VSS gf180mcu_fd_sc_mcu9t5v0__mux2_2
X_452_ mem\[10\]\[3\] _190_ _198_ _014_ VDD VSS gf180mcu_fd_sc_mcu9t5v0__mux2_2
X_453_ mem\[10\]\[4\] _191_ _198_ _015_ VDD VSS gf180mcu_fd_sc_mcu9t5v0__mux2_2
X_454_ mem\[10\]\[5\] _192_ _198_ _016_ VDD VSS gf180mcu_fd_sc_mcu9t5v0__mux2_2
X_455_ mem\[10\]\[6\] _193_ _198_ _017_ VDD VSS gf180mcu_fd_sc_mcu9t5v0__mux2_2
X_456_ mem\[10\]\[7\] _194_ _198_ _018_ VDD VSS gf180mcu_fd_sc_mcu9t5v0__mux2_2
X_457_ _185_ _375_ _199_ VDD VSS gf180mcu_fd_sc_mcu9t5v0__and2_2
X_458_ _164_ _196_ _199_ _200_ VDD VSS gf180mcu_fd_sc_mcu9t5v0__and3_4
X_459_ mem\[11\]\[0\] _182_ _200_ _019_ VDD VSS gf180mcu_fd_sc_mcu9t5v0__mux2_2
X_460_ mem\[11\]\[1\] _188_ _200_ _020_ VDD VSS gf180mcu_fd_sc_mcu9t5v0__mux2_2
X_461_ mem\[11\]\[2\] _189_ _200_ _021_ VDD VSS gf180mcu_fd_sc_mcu9t5v0__mux2_2
X_462_ mem\[11\]\[3\] _190_ _200_ _022_ VDD VSS gf180mcu_fd_sc_mcu9t5v0__mux2_2
X_463_ mem\[11\]\[4\] _191_ _200_ _023_ VDD VSS gf180mcu_fd_sc_mcu9t5v0__mux2_2
X_464_ mem\[11\]\[5\] _192_ _200_ _024_ VDD VSS gf180mcu_fd_sc_mcu9t5v0__mux2_2
X_465_ mem\[11\]\[6\] _193_ _200_ _025_ VDD VSS gf180mcu_fd_sc_mcu9t5v0__mux2_2
X_466_ mem\[11\]\[7\] _194_ _200_ _026_ VDD VSS gf180mcu_fd_sc_mcu9t5v0__mux2_2
X_467_ wr_ptr_bin\[2\] _201_ VDD VSS gf180mcu_fd_sc_mcu9t5v0__buf_4
X_468_ _201_ _370_ _164_ _196_ _202_ VDD VSS gf180mcu_fd_sc_mcu9t5v0__nand4_4
X_469_ _182_ mem\[12\]\[0\] _202_ _027_ VDD VSS gf180mcu_fd_sc_mcu9t5v0__mux2_2
X_470_ _188_ mem\[12\]\[1\] _202_ _028_ VDD VSS gf180mcu_fd_sc_mcu9t5v0__mux2_2
X_471_ _189_ mem\[12\]\[2\] _202_ _029_ VDD VSS gf180mcu_fd_sc_mcu9t5v0__mux2_2
X_472_ _190_ mem\[12\]\[3\] _202_ _030_ VDD VSS gf180mcu_fd_sc_mcu9t5v0__mux2_2
X_473_ _191_ mem\[12\]\[4\] _202_ _031_ VDD VSS gf180mcu_fd_sc_mcu9t5v0__mux2_2
X_474_ _192_ mem\[12\]\[5\] _202_ _032_ VDD VSS gf180mcu_fd_sc_mcu9t5v0__mux2_2
X_475_ _193_ mem\[12\]\[6\] _202_ _033_ VDD VSS gf180mcu_fd_sc_mcu9t5v0__mux2_2
X_476_ _194_ mem\[12\]\[7\] _202_ _034_ VDD VSS gf180mcu_fd_sc_mcu9t5v0__mux2_2
X_477_ _201_ _373_ _164_ _196_ _203_ VDD VSS gf180mcu_fd_sc_mcu9t5v0__nand4_4
X_478_ _182_ mem\[13\]\[0\] _203_ _035_ VDD VSS gf180mcu_fd_sc_mcu9t5v0__mux2_2
X_479_ _188_ mem\[13\]\[1\] _203_ _036_ VDD VSS gf180mcu_fd_sc_mcu9t5v0__mux2_2
X_480_ _189_ mem\[13\]\[2\] _203_ _037_ VDD VSS gf180mcu_fd_sc_mcu9t5v0__mux2_2
X_481_ _190_ mem\[13\]\[3\] _203_ _038_ VDD VSS gf180mcu_fd_sc_mcu9t5v0__mux2_2
X_482_ _191_ mem\[13\]\[4\] _203_ _039_ VDD VSS gf180mcu_fd_sc_mcu9t5v0__mux2_2
X_483_ _192_ mem\[13\]\[5\] _203_ _040_ VDD VSS gf180mcu_fd_sc_mcu9t5v0__mux2_2
X_484_ _193_ mem\[13\]\[6\] _203_ _041_ VDD VSS gf180mcu_fd_sc_mcu9t5v0__mux2_2
X_485_ _194_ mem\[13\]\[7\] _203_ _042_ VDD VSS gf180mcu_fd_sc_mcu9t5v0__mux2_2
X_486_ _201_ _371_ _164_ _196_ _204_ VDD VSS gf180mcu_fd_sc_mcu9t5v0__nand4_4
X_487_ _182_ mem\[14\]\[0\] _204_ _043_ VDD VSS gf180mcu_fd_sc_mcu9t5v0__mux2_2
X_488_ _188_ mem\[14\]\[1\] _204_ _044_ VDD VSS gf180mcu_fd_sc_mcu9t5v0__mux2_2
X_489_ _189_ mem\[14\]\[2\] _204_ _045_ VDD VSS gf180mcu_fd_sc_mcu9t5v0__mux2_2
X_490_ _190_ mem\[14\]\[3\] _204_ _046_ VDD VSS gf180mcu_fd_sc_mcu9t5v0__mux2_2
X_491_ _191_ mem\[14\]\[4\] _204_ _047_ VDD VSS gf180mcu_fd_sc_mcu9t5v0__mux2_2
X_492_ _192_ mem\[14\]\[5\] _204_ _048_ VDD VSS gf180mcu_fd_sc_mcu9t5v0__mux2_2
X_493_ _193_ mem\[14\]\[6\] _204_ _049_ VDD VSS gf180mcu_fd_sc_mcu9t5v0__mux2_2
X_494_ _194_ mem\[14\]\[7\] _204_ _050_ VDD VSS gf180mcu_fd_sc_mcu9t5v0__mux2_2
X_495_ _163_ _205_ VDD VSS gf180mcu_fd_sc_mcu9t5v0__clkbuf_8
X_496_ _201_ _375_ _205_ _196_ _206_ VDD VSS gf180mcu_fd_sc_mcu9t5v0__nand4_4
X_497_ _182_ mem\[15\]\[0\] _206_ _051_ VDD VSS gf180mcu_fd_sc_mcu9t5v0__mux2_2
X_498_ _188_ mem\[15\]\[1\] _206_ _052_ VDD VSS gf180mcu_fd_sc_mcu9t5v0__mux2_2
X_499_ _189_ mem\[15\]\[2\] _206_ _053_ VDD VSS gf180mcu_fd_sc_mcu9t5v0__mux2_2
X_500_ _190_ mem\[15\]\[3\] _206_ _054_ VDD VSS gf180mcu_fd_sc_mcu9t5v0__mux2_2
X_501_ _191_ mem\[15\]\[4\] _206_ _055_ VDD VSS gf180mcu_fd_sc_mcu9t5v0__mux2_2
X_502_ _192_ mem\[15\]\[5\] _206_ _056_ VDD VSS gf180mcu_fd_sc_mcu9t5v0__mux2_2
X_503_ _193_ mem\[15\]\[6\] _206_ _057_ VDD VSS gf180mcu_fd_sc_mcu9t5v0__mux2_2
X_504_ _194_ mem\[15\]\[7\] _206_ _058_ VDD VSS gf180mcu_fd_sc_mcu9t5v0__mux2_2
X_505_ _185_ _373_ _207_ VDD VSS gf180mcu_fd_sc_mcu9t5v0__and2_2
X_506_ _164_ _184_ _207_ _208_ VDD VSS gf180mcu_fd_sc_mcu9t5v0__and3_4
X_507_ mem\[1\]\[0\] _182_ _208_ _059_ VDD VSS gf180mcu_fd_sc_mcu9t5v0__mux2_2
X_508_ mem\[1\]\[1\] _188_ _208_ _060_ VDD VSS gf180mcu_fd_sc_mcu9t5v0__mux2_2
X_509_ mem\[1\]\[2\] _189_ _208_ _061_ VDD VSS gf180mcu_fd_sc_mcu9t5v0__mux2_2
X_510_ mem\[1\]\[3\] _190_ _208_ _062_ VDD VSS gf180mcu_fd_sc_mcu9t5v0__mux2_2
X_511_ mem\[1\]\[4\] _191_ _208_ _063_ VDD VSS gf180mcu_fd_sc_mcu9t5v0__mux2_2
X_512_ mem\[1\]\[5\] _192_ _208_ _064_ VDD VSS gf180mcu_fd_sc_mcu9t5v0__mux2_2
X_513_ mem\[1\]\[6\] _193_ _208_ _065_ VDD VSS gf180mcu_fd_sc_mcu9t5v0__mux2_2
X_514_ mem\[1\]\[7\] _194_ _208_ _066_ VDD VSS gf180mcu_fd_sc_mcu9t5v0__mux2_2
X_515_ _164_ _184_ _197_ _209_ VDD VSS gf180mcu_fd_sc_mcu9t5v0__and3_4
X_516_ mem\[2\]\[0\] _182_ _209_ _067_ VDD VSS gf180mcu_fd_sc_mcu9t5v0__mux2_2
X_517_ mem\[2\]\[1\] _188_ _209_ _068_ VDD VSS gf180mcu_fd_sc_mcu9t5v0__mux2_2
X_518_ mem\[2\]\[2\] _189_ _209_ _069_ VDD VSS gf180mcu_fd_sc_mcu9t5v0__mux2_2
X_519_ mem\[2\]\[3\] _190_ _209_ _070_ VDD VSS gf180mcu_fd_sc_mcu9t5v0__mux2_2
X_520_ mem\[2\]\[4\] _191_ _209_ _071_ VDD VSS gf180mcu_fd_sc_mcu9t5v0__mux2_2
X_521_ mem\[2\]\[5\] _192_ _209_ _072_ VDD VSS gf180mcu_fd_sc_mcu9t5v0__mux2_2
X_522_ mem\[2\]\[6\] _193_ _209_ _073_ VDD VSS gf180mcu_fd_sc_mcu9t5v0__mux2_2
X_523_ mem\[2\]\[7\] _194_ _209_ _074_ VDD VSS gf180mcu_fd_sc_mcu9t5v0__mux2_2
X_524_ _164_ _184_ _199_ _210_ VDD VSS gf180mcu_fd_sc_mcu9t5v0__and3_4
X_525_ mem\[3\]\[0\] _182_ _210_ _075_ VDD VSS gf180mcu_fd_sc_mcu9t5v0__mux2_2
X_526_ mem\[3\]\[1\] _188_ _210_ _076_ VDD VSS gf180mcu_fd_sc_mcu9t5v0__mux2_2
X_527_ mem\[3\]\[2\] _189_ _210_ _077_ VDD VSS gf180mcu_fd_sc_mcu9t5v0__mux2_2
X_528_ mem\[3\]\[3\] _190_ _210_ _078_ VDD VSS gf180mcu_fd_sc_mcu9t5v0__mux2_2
X_529_ mem\[3\]\[4\] _191_ _210_ _079_ VDD VSS gf180mcu_fd_sc_mcu9t5v0__mux2_2
X_530_ mem\[3\]\[5\] _192_ _210_ _080_ VDD VSS gf180mcu_fd_sc_mcu9t5v0__mux2_2
X_531_ mem\[3\]\[6\] _193_ _210_ _081_ VDD VSS gf180mcu_fd_sc_mcu9t5v0__mux2_2
X_532_ mem\[3\]\[7\] _194_ _210_ _082_ VDD VSS gf180mcu_fd_sc_mcu9t5v0__mux2_2
X_533_ _201_ _370_ _205_ _184_ _211_ VDD VSS gf180mcu_fd_sc_mcu9t5v0__and4_2
X_534_ _211_ _212_ VDD VSS gf180mcu_fd_sc_mcu9t5v0__clkbuf_8
X_535_ mem\[4\]\[0\] net5 _212_ _083_ VDD VSS gf180mcu_fd_sc_mcu9t5v0__mux2_2
X_536_ mem\[4\]\[1\] net6 _212_ _084_ VDD VSS gf180mcu_fd_sc_mcu9t5v0__mux2_2
X_537_ mem\[4\]\[2\] net7 _212_ _085_ VDD VSS gf180mcu_fd_sc_mcu9t5v0__mux2_2
X_538_ mem\[4\]\[3\] net8 _212_ _086_ VDD VSS gf180mcu_fd_sc_mcu9t5v0__mux2_2
X_539_ mem\[4\]\[4\] net9 _212_ _087_ VDD VSS gf180mcu_fd_sc_mcu9t5v0__mux2_2
X_540_ mem\[4\]\[5\] net10 _212_ _088_ VDD VSS gf180mcu_fd_sc_mcu9t5v0__mux2_2
X_541_ mem\[4\]\[6\] net11 _212_ _089_ VDD VSS gf180mcu_fd_sc_mcu9t5v0__mux2_2
X_542_ mem\[4\]\[7\] net12 _212_ _090_ VDD VSS gf180mcu_fd_sc_mcu9t5v0__mux2_2
X_543_ _201_ _373_ _205_ _184_ _213_ VDD VSS gf180mcu_fd_sc_mcu9t5v0__and4_2
X_544_ _213_ _214_ VDD VSS gf180mcu_fd_sc_mcu9t5v0__clkbuf_8
X_545_ mem\[5\]\[0\] net5 _214_ _091_ VDD VSS gf180mcu_fd_sc_mcu9t5v0__mux2_2
X_546_ mem\[5\]\[1\] net6 _214_ _092_ VDD VSS gf180mcu_fd_sc_mcu9t5v0__mux2_2
X_547_ mem\[5\]\[2\] net7 _214_ _093_ VDD VSS gf180mcu_fd_sc_mcu9t5v0__mux2_2
X_548_ mem\[5\]\[3\] net8 _214_ _094_ VDD VSS gf180mcu_fd_sc_mcu9t5v0__mux2_2
X_549_ mem\[5\]\[4\] net9 _214_ _095_ VDD VSS gf180mcu_fd_sc_mcu9t5v0__mux2_2
X_550_ mem\[5\]\[5\] net10 _214_ _096_ VDD VSS gf180mcu_fd_sc_mcu9t5v0__mux2_2
X_551_ mem\[5\]\[6\] net11 _214_ _097_ VDD VSS gf180mcu_fd_sc_mcu9t5v0__mux2_2
X_552_ mem\[5\]\[7\] net12 _214_ _098_ VDD VSS gf180mcu_fd_sc_mcu9t5v0__mux2_2
X_553_ _201_ _371_ _205_ _184_ _215_ VDD VSS gf180mcu_fd_sc_mcu9t5v0__and4_2
X_554_ _215_ _216_ VDD VSS gf180mcu_fd_sc_mcu9t5v0__clkbuf_8
X_555_ mem\[6\]\[0\] net5 _216_ _099_ VDD VSS gf180mcu_fd_sc_mcu9t5v0__mux2_2
X_556_ mem\[6\]\[1\] net6 _216_ _100_ VDD VSS gf180mcu_fd_sc_mcu9t5v0__mux2_2
X_557_ mem\[6\]\[2\] net7 _216_ _101_ VDD VSS gf180mcu_fd_sc_mcu9t5v0__mux2_2
X_558_ mem\[6\]\[3\] net8 _216_ _102_ VDD VSS gf180mcu_fd_sc_mcu9t5v0__mux2_2
X_559_ mem\[6\]\[4\] net9 _216_ _103_ VDD VSS gf180mcu_fd_sc_mcu9t5v0__mux2_2
X_560_ mem\[6\]\[5\] net10 _216_ _104_ VDD VSS gf180mcu_fd_sc_mcu9t5v0__mux2_2
X_561_ mem\[6\]\[6\] net11 _216_ _105_ VDD VSS gf180mcu_fd_sc_mcu9t5v0__mux2_2
X_562_ mem\[6\]\[7\] net12 _216_ _106_ VDD VSS gf180mcu_fd_sc_mcu9t5v0__mux2_2
X_563_ _201_ _375_ _205_ _184_ _217_ VDD VSS gf180mcu_fd_sc_mcu9t5v0__and4_2
X_564_ _217_ _218_ VDD VSS gf180mcu_fd_sc_mcu9t5v0__clkbuf_8
X_565_ mem\[7\]\[0\] net5 _218_ _107_ VDD VSS gf180mcu_fd_sc_mcu9t5v0__mux2_2
X_566_ mem\[7\]\[1\] net6 _218_ _108_ VDD VSS gf180mcu_fd_sc_mcu9t5v0__mux2_2
X_567_ mem\[7\]\[2\] net7 _218_ _109_ VDD VSS gf180mcu_fd_sc_mcu9t5v0__mux2_2
X_568_ mem\[7\]\[3\] net8 _218_ _110_ VDD VSS gf180mcu_fd_sc_mcu9t5v0__mux2_2
X_569_ mem\[7\]\[4\] net9 _218_ _111_ VDD VSS gf180mcu_fd_sc_mcu9t5v0__mux2_2
X_570_ mem\[7\]\[5\] net10 _218_ _112_ VDD VSS gf180mcu_fd_sc_mcu9t5v0__mux2_2
X_571_ mem\[7\]\[6\] net11 _218_ _113_ VDD VSS gf180mcu_fd_sc_mcu9t5v0__mux2_2
X_572_ mem\[7\]\[7\] net12 _218_ _114_ VDD VSS gf180mcu_fd_sc_mcu9t5v0__mux2_2
X_573_ _205_ _186_ _196_ _219_ VDD VSS gf180mcu_fd_sc_mcu9t5v0__and3_4
X_574_ mem\[8\]\[0\] net5 _219_ _115_ VDD VSS gf180mcu_fd_sc_mcu9t5v0__mux2_2
X_575_ mem\[8\]\[1\] net6 _219_ _116_ VDD VSS gf180mcu_fd_sc_mcu9t5v0__mux2_2
X_576_ mem\[8\]\[2\] net7 _219_ _117_ VDD VSS gf180mcu_fd_sc_mcu9t5v0__mux2_2
X_577_ mem\[8\]\[3\] net8 _219_ _118_ VDD VSS gf180mcu_fd_sc_mcu9t5v0__mux2_2
X_578_ mem\[8\]\[4\] net9 _219_ _119_ VDD VSS gf180mcu_fd_sc_mcu9t5v0__mux2_2
X_579_ mem\[8\]\[5\] net10 _219_ _120_ VDD VSS gf180mcu_fd_sc_mcu9t5v0__mux2_2
X_580_ mem\[8\]\[6\] net11 _219_ _121_ VDD VSS gf180mcu_fd_sc_mcu9t5v0__mux2_2
X_581_ mem\[8\]\[7\] net12 _219_ _122_ VDD VSS gf180mcu_fd_sc_mcu9t5v0__mux2_2
X_582_ _205_ _196_ _207_ _220_ VDD VSS gf180mcu_fd_sc_mcu9t5v0__and3_4
X_583_ mem\[9\]\[0\] net5 _220_ _123_ VDD VSS gf180mcu_fd_sc_mcu9t5v0__mux2_2
X_584_ mem\[9\]\[1\] net6 _220_ _124_ VDD VSS gf180mcu_fd_sc_mcu9t5v0__mux2_2
X_585_ mem\[9\]\[2\] net7 _220_ _125_ VDD VSS gf180mcu_fd_sc_mcu9t5v0__mux2_2
X_586_ mem\[9\]\[3\] net8 _220_ _126_ VDD VSS gf180mcu_fd_sc_mcu9t5v0__mux2_2
X_587_ mem\[9\]\[4\] net9 _220_ _127_ VDD VSS gf180mcu_fd_sc_mcu9t5v0__mux2_2
X_588_ mem\[9\]\[5\] net10 _220_ _128_ VDD VSS gf180mcu_fd_sc_mcu9t5v0__mux2_2
X_589_ mem\[9\]\[6\] net11 _220_ _129_ VDD VSS gf180mcu_fd_sc_mcu9t5v0__mux2_2
X_590_ mem\[9\]\[7\] net12 _220_ _130_ VDD VSS gf180mcu_fd_sc_mcu9t5v0__mux2_2
X_591_ rd_ptr_bin\[0\] _221_ VDD VSS gf180mcu_fd_sc_mcu9t5v0__clkbuf_8
X_592_ rd_ptr_bin\[2\] _222_ VDD VSS gf180mcu_fd_sc_mcu9t5v0__buf_4
X_593_ mem\[10\]\[0\] mem\[11\]\[0\] mem\[14\]\[0\] mem\[15\]\[0\]
+ _221_ _222_ _223_ VDD VSS gf180mcu_fd_sc_mcu9t5v0__mux4_2
X_594_ rd_ptr_bin\[2\] _224_ VDD VSS gf180mcu_fd_sc_mcu9t5v0__clkbuf_8
X_595_ mem\[2\]\[0\] mem\[3\]\[0\] mem\[6\]\[0\] mem\[7\]\[0\]
+ _221_ _224_ _225_ VDD VSS gf180mcu_fd_sc_mcu9t5v0__mux4_2
X_596_ _223_ _225_ _345_ _226_ VDD VSS gf180mcu_fd_sc_mcu9t5v0__mux2_2
X_597_ mem\[8\]\[0\] mem\[9\]\[0\] mem\[12\]\[0\] mem\[13\]\[0\]
+ _221_ _224_ _227_ VDD VSS gf180mcu_fd_sc_mcu9t5v0__mux4_2
X_598_ mem\[0\]\[0\] mem\[1\]\[0\] mem\[4\]\[0\] mem\[5\]\[0\]
+ rd_ptr_bin\[0\] _224_ _228_ VDD VSS gf180mcu_fd_sc_mcu9t5v0__mux4_2
X_599_ _227_ _228_ _345_ _229_ VDD VSS gf180mcu_fd_sc_mcu9t5v0__mux2_2
X_600_ _226_ _229_ _353_ _230_ VDD VSS gf180mcu_fd_sc_mcu9t5v0__mux2_2
X_601_ _166_ _171_ net2 _231_ VDD VSS gf180mcu_fd_sc_mcu9t5v0__oai21_4
X_602_ _231_ _232_ VDD VSS gf180mcu_fd_sc_mcu9t5v0__clkbuf_8
X_603_ _230_ net24 _232_ _131_ VDD VSS gf180mcu_fd_sc_mcu9t5v0__mux2_2
X_604_ mem\[8\]\[1\] mem\[10\]\[1\] mem\[12\]\[1\] mem\[14\]\[1\]
+ _181_ _222_ _233_ VDD VSS gf180mcu_fd_sc_mcu9t5v0__mux4_2
X_605_ rd_ptr_bin\[1\] _234_ VDD VSS gf180mcu_fd_sc_mcu9t5v0__buf_8
X_606_ mem\[9\]\[1\] mem\[11\]\[1\] mem\[13\]\[1\] mem\[15\]\[1\]
+ _234_ _224_ _235_ VDD VSS gf180mcu_fd_sc_mcu9t5v0__mux4_2
X_607_ _221_ _236_ VDD VSS gf180mcu_fd_sc_mcu9t5v0__buf_4
X_608_ _233_ _235_ _236_ _237_ VDD VSS gf180mcu_fd_sc_mcu9t5v0__mux2_2
X_609_ rd_ptr_bin\[2\] _238_ VDD VSS gf180mcu_fd_sc_mcu9t5v0__clkbuf_8
X_610_ mem\[0\]\[1\] mem\[4\]\[1\] _238_ _239_ VDD VSS gf180mcu_fd_sc_mcu9t5v0__mux2_2
X_611_ mem\[2\]\[1\] mem\[6\]\[1\] _238_ _240_ VDD VSS gf180mcu_fd_sc_mcu9t5v0__mux2_2
X_612_ mem\[1\]\[1\] mem\[5\]\[1\] _180_ _241_ VDD VSS gf180mcu_fd_sc_mcu9t5v0__mux2_2
X_613_ rd_ptr_bin\[2\] _242_ VDD VSS gf180mcu_fd_sc_mcu9t5v0__clkbuf_8
X_614_ mem\[3\]\[1\] mem\[7\]\[1\] _242_ _243_ VDD VSS gf180mcu_fd_sc_mcu9t5v0__mux2_2
X_615_ _239_ _240_ _241_ _243_ _181_ _236_ _244_ VDD VSS gf180mcu_fd_sc_mcu9t5v0__mux4_2
X_616_ _237_ _244_ _345_ _245_ VDD VSS gf180mcu_fd_sc_mcu9t5v0__mux2_2
X_617_ _245_ net25 _232_ _132_ VDD VSS gf180mcu_fd_sc_mcu9t5v0__mux2_2
X_618_ mem\[8\]\[2\] mem\[10\]\[2\] mem\[12\]\[2\] mem\[14\]\[2\]
+ _234_ _222_ _246_ VDD VSS gf180mcu_fd_sc_mcu9t5v0__mux4_2
X_619_ mem\[9\]\[2\] mem\[11\]\[2\] mem\[13\]\[2\] mem\[15\]\[2\]
+ _234_ _224_ _247_ VDD VSS gf180mcu_fd_sc_mcu9t5v0__mux4_2
X_620_ _246_ _247_ _221_ _248_ VDD VSS gf180mcu_fd_sc_mcu9t5v0__mux2_2
X_621_ mem\[0\]\[2\] mem\[4\]\[2\] _238_ _249_ VDD VSS gf180mcu_fd_sc_mcu9t5v0__mux2_2
X_622_ mem\[2\]\[2\] mem\[6\]\[2\] _238_ _250_ VDD VSS gf180mcu_fd_sc_mcu9t5v0__mux2_2
X_623_ mem\[1\]\[2\] mem\[5\]\[2\] _180_ _251_ VDD VSS gf180mcu_fd_sc_mcu9t5v0__mux2_2
X_624_ mem\[3\]\[2\] mem\[7\]\[2\] _242_ _252_ VDD VSS gf180mcu_fd_sc_mcu9t5v0__mux2_2
X_625_ _249_ _250_ _251_ _252_ _181_ _236_ _253_ VDD VSS gf180mcu_fd_sc_mcu9t5v0__mux4_2
X_626_ _248_ _253_ _345_ _254_ VDD VSS gf180mcu_fd_sc_mcu9t5v0__mux2_2
X_627_ _254_ net26 _232_ _133_ VDD VSS gf180mcu_fd_sc_mcu9t5v0__mux2_2
X_628_ mem\[0\]\[3\] mem\[2\]\[3\] mem\[4\]\[3\] mem\[6\]\[3\]
+ _234_ _222_ _255_ VDD VSS gf180mcu_fd_sc_mcu9t5v0__mux4_2
X_629_ mem\[1\]\[3\] mem\[3\]\[3\] mem\[5\]\[3\] mem\[7\]\[3\]
+ _234_ _224_ _256_ VDD VSS gf180mcu_fd_sc_mcu9t5v0__mux4_2
X_630_ _255_ _256_ _221_ _257_ VDD VSS gf180mcu_fd_sc_mcu9t5v0__mux2_2
X_631_ mem\[8\]\[3\] mem\[12\]\[3\] _242_ _258_ VDD VSS gf180mcu_fd_sc_mcu9t5v0__mux2_2
X_632_ mem\[10\]\[3\] mem\[14\]\[3\] _238_ _259_ VDD VSS gf180mcu_fd_sc_mcu9t5v0__mux2_2
X_633_ mem\[9\]\[3\] mem\[13\]\[3\] _180_ _260_ VDD VSS gf180mcu_fd_sc_mcu9t5v0__mux2_2
X_634_ mem\[11\]\[3\] mem\[15\]\[3\] _242_ _261_ VDD VSS gf180mcu_fd_sc_mcu9t5v0__mux2_2
X_635_ _258_ _259_ _260_ _261_ _181_ _236_ _262_ VDD VSS gf180mcu_fd_sc_mcu9t5v0__mux4_2
X_636_ _257_ _262_ rd_ptr_bin\[3\] _263_ VDD VSS gf180mcu_fd_sc_mcu9t5v0__mux2_2
X_637_ _263_ net27 _232_ _134_ VDD VSS gf180mcu_fd_sc_mcu9t5v0__mux2_2
X_638_ mem\[0\]\[4\] mem\[2\]\[4\] mem\[4\]\[4\] mem\[6\]\[4\]
+ _234_ _222_ _264_ VDD VSS gf180mcu_fd_sc_mcu9t5v0__mux4_2
X_639_ mem\[1\]\[4\] mem\[3\]\[4\] mem\[5\]\[4\] mem\[7\]\[4\]
+ _234_ _224_ _265_ VDD VSS gf180mcu_fd_sc_mcu9t5v0__mux4_2
X_640_ _264_ _265_ _221_ _266_ VDD VSS gf180mcu_fd_sc_mcu9t5v0__mux2_2
X_641_ mem\[8\]\[4\] mem\[12\]\[4\] _242_ _267_ VDD VSS gf180mcu_fd_sc_mcu9t5v0__mux2_2
X_642_ mem\[10\]\[4\] mem\[14\]\[4\] _238_ _268_ VDD VSS gf180mcu_fd_sc_mcu9t5v0__mux2_2
X_643_ mem\[9\]\[4\] mem\[13\]\[4\] _180_ _269_ VDD VSS gf180mcu_fd_sc_mcu9t5v0__mux2_2
X_644_ mem\[11\]\[4\] mem\[15\]\[4\] _242_ _270_ VDD VSS gf180mcu_fd_sc_mcu9t5v0__mux2_2
X_645_ _267_ _268_ _269_ _270_ _181_ _236_ _271_ VDD VSS gf180mcu_fd_sc_mcu9t5v0__mux4_2
X_646_ _266_ _271_ rd_ptr_bin\[3\] _272_ VDD VSS gf180mcu_fd_sc_mcu9t5v0__mux2_2
X_647_ _272_ net28 _232_ _135_ VDD VSS gf180mcu_fd_sc_mcu9t5v0__mux2_2
X_648_ mem\[0\]\[5\] mem\[2\]\[5\] mem\[4\]\[5\] mem\[6\]\[5\]
+ _234_ _222_ _273_ VDD VSS gf180mcu_fd_sc_mcu9t5v0__mux4_2
X_649_ mem\[1\]\[5\] mem\[3\]\[5\] mem\[5\]\[5\] mem\[7\]\[5\]
+ rd_ptr_bin\[1\] _224_ _274_ VDD VSS gf180mcu_fd_sc_mcu9t5v0__mux4_2
X_650_ _273_ _274_ _221_ _275_ VDD VSS gf180mcu_fd_sc_mcu9t5v0__mux2_2
X_651_ mem\[8\]\[5\] mem\[12\]\[5\] _242_ _276_ VDD VSS gf180mcu_fd_sc_mcu9t5v0__mux2_2
X_652_ mem\[10\]\[5\] mem\[14\]\[5\] _238_ _277_ VDD VSS gf180mcu_fd_sc_mcu9t5v0__mux2_2
X_653_ mem\[9\]\[5\] mem\[13\]\[5\] _180_ _278_ VDD VSS gf180mcu_fd_sc_mcu9t5v0__mux2_2
X_654_ mem\[11\]\[5\] mem\[15\]\[5\] _242_ _279_ VDD VSS gf180mcu_fd_sc_mcu9t5v0__mux2_2
X_655_ _276_ _277_ _278_ _279_ _181_ _236_ _280_ VDD VSS gf180mcu_fd_sc_mcu9t5v0__mux4_2
X_656_ _275_ _280_ rd_ptr_bin\[3\] _281_ VDD VSS gf180mcu_fd_sc_mcu9t5v0__mux2_2
X_657_ _281_ net29 _232_ _136_ VDD VSS gf180mcu_fd_sc_mcu9t5v0__mux2_2
X_658_ mem\[0\]\[6\] mem\[2\]\[6\] mem\[4\]\[6\] mem\[6\]\[6\]
+ _234_ _222_ _282_ VDD VSS gf180mcu_fd_sc_mcu9t5v0__mux4_2
X_659_ mem\[1\]\[6\] mem\[3\]\[6\] mem\[5\]\[6\] mem\[7\]\[6\]
+ rd_ptr_bin\[1\] _224_ _283_ VDD VSS gf180mcu_fd_sc_mcu9t5v0__mux4_2
X_660_ _282_ _283_ _221_ _284_ VDD VSS gf180mcu_fd_sc_mcu9t5v0__mux2_2
X_661_ mem\[8\]\[6\] mem\[12\]\[6\] _242_ _285_ VDD VSS gf180mcu_fd_sc_mcu9t5v0__mux2_2
X_662_ mem\[10\]\[6\] mem\[14\]\[6\] _238_ _286_ VDD VSS gf180mcu_fd_sc_mcu9t5v0__mux2_2
X_663_ mem\[9\]\[6\] mem\[13\]\[6\] _180_ _287_ VDD VSS gf180mcu_fd_sc_mcu9t5v0__mux2_2
X_664_ mem\[11\]\[6\] mem\[15\]\[6\] _180_ _288_ VDD VSS gf180mcu_fd_sc_mcu9t5v0__mux2_2
X_665_ _285_ _286_ _287_ _288_ _181_ _236_ _289_ VDD VSS gf180mcu_fd_sc_mcu9t5v0__mux4_2
X_666_ _284_ _289_ rd_ptr_bin\[3\] _290_ VDD VSS gf180mcu_fd_sc_mcu9t5v0__mux2_2
X_667_ _290_ net30 _232_ _137_ VDD VSS gf180mcu_fd_sc_mcu9t5v0__mux2_2
X_668_ mem\[0\]\[7\] mem\[2\]\[7\] mem\[4\]\[7\] mem\[6\]\[7\]
+ _234_ _222_ _291_ VDD VSS gf180mcu_fd_sc_mcu9t5v0__mux4_2
X_669_ mem\[1\]\[7\] mem\[3\]\[7\] mem\[5\]\[7\] mem\[7\]\[7\]
+ rd_ptr_bin\[1\] _224_ _292_ VDD VSS gf180mcu_fd_sc_mcu9t5v0__mux4_2
X_670_ _291_ _292_ _221_ _293_ VDD VSS gf180mcu_fd_sc_mcu9t5v0__mux2_2
X_671_ mem\[8\]\[7\] mem\[12\]\[7\] _242_ _294_ VDD VSS gf180mcu_fd_sc_mcu9t5v0__mux2_2
X_672_ mem\[10\]\[7\] mem\[14\]\[7\] _238_ _295_ VDD VSS gf180mcu_fd_sc_mcu9t5v0__mux2_2
X_673_ mem\[9\]\[7\] mem\[13\]\[7\] _180_ _296_ VDD VSS gf180mcu_fd_sc_mcu9t5v0__mux2_2
X_674_ mem\[11\]\[7\] mem\[15\]\[7\] _180_ _297_ VDD VSS gf180mcu_fd_sc_mcu9t5v0__mux2_2
X_675_ _294_ _295_ _296_ _297_ _181_ _236_ _298_ VDD VSS gf180mcu_fd_sc_mcu9t5v0__mux4_2
X_676_ _293_ _298_ rd_ptr_bin\[3\] _299_ VDD VSS gf180mcu_fd_sc_mcu9t5v0__mux2_2
X_677_ _299_ net31 _232_ _138_ VDD VSS gf180mcu_fd_sc_mcu9t5v0__mux2_2
X_678_ _236_ _231_ _139_ VDD VSS gf180mcu_fd_sc_mcu9t5v0__xnor2_2
X_679_ _002_ _181_ _232_ _140_ VDD VSS gf180mcu_fd_sc_mcu9t5v0__mux2_2
X_680_ _368_ _300_ VDD VSS gf180mcu_fd_sc_mcu9t5v0__clkinv_2
X_681_ _300_ _231_ _301_ VDD VSS gf180mcu_fd_sc_mcu9t5v0__or2_2
X_682_ _222_ _301_ _141_ VDD VSS gf180mcu_fd_sc_mcu9t5v0__xnor2_2
X_683_ rd_ptr_bin\[0\] rd_ptr_bin\[1\] _302_ VDD VSS gf180mcu_fd_sc_mcu9t5v0__nand2_2
X_684_ _349_ _231_ _302_ _303_ VDD VSS gf180mcu_fd_sc_mcu9t5v0__or3_2
X_685_ rd_ptr_bin\[3\] _303_ _142_ VDD VSS gf180mcu_fd_sc_mcu9t5v0__xnor2_2
X_686_ _236_ _002_ _304_ VDD VSS gf180mcu_fd_sc_mcu9t5v0__xnor2_2
X_687_ _304_ rd_ptr_gray\[0\] _232_ _143_ VDD VSS gf180mcu_fd_sc_mcu9t5v0__mux2_2
X_688_ _238_ _368_ _002_ _305_ VDD VSS gf180mcu_fd_sc_mcu9t5v0__xor3_2
X_689_ _305_ rd_ptr_gray\[1\] _231_ _144_ VDD VSS gf180mcu_fd_sc_mcu9t5v0__mux2_2
X_690_ _222_ _302_ _306_ VDD VSS gf180mcu_fd_sc_mcu9t5v0__and2_2
X_691_ _345_ _368_ _306_ _307_ VDD VSS gf180mcu_fd_sc_mcu9t5v0__xnor3_2
X_692_ _307_ rd_ptr_gray\[2\] _231_ _145_ VDD VSS gf180mcu_fd_sc_mcu9t5v0__mux2_2
X_693_ _349_ _300_ rd_ptr_bin\[3\] _308_ VDD VSS gf180mcu_fd_sc_mcu9t5v0__oai21_2
X_694_ _349_ _345_ _368_ _302_ _309_ VDD VSS gf180mcu_fd_sc_mcu9t5v0__nor4_2
X_695_ _349_ _345_ _302_ _308_ _309_ _310_ VDD VSS gf180mcu_fd_sc_mcu9t5v0__aoi221_2
X_696_ rd_ptr_bin\[4\] _310_ _311_ VDD VSS gf180mcu_fd_sc_mcu9t5v0__xor2_2
X_697_ _311_ rd_ptr_gray\[3\] _231_ _146_ VDD VSS gf180mcu_fd_sc_mcu9t5v0__mux2_2
X_698_ _349_ _345_ _300_ _231_ _312_ VDD VSS gf180mcu_fd_sc_mcu9t5v0__or4_2
X_699_ rd_ptr_bin\[4\] _312_ _147_ VDD VSS gf180mcu_fd_sc_mcu9t5v0__xnor2_2
X_700_ net13 _205_ _313_ VDD VSS gf180mcu_fd_sc_mcu9t5v0__nand2_4
X_701_ wr_ptr_bin\[0\] _313_ _148_ VDD VSS gf180mcu_fd_sc_mcu9t5v0__xnor2_2
X_702_ _001_ wr_ptr_bin\[1\] _313_ _149_ VDD VSS gf180mcu_fd_sc_mcu9t5v0__mux2_2
X_703_ net13 _375_ _205_ _314_ VDD VSS gf180mcu_fd_sc_mcu9t5v0__and3_2
X_704_ _185_ _314_ _150_ VDD VSS gf180mcu_fd_sc_mcu9t5v0__xnor2_2
X_705_ _201_ wr_ptr_bin\[1\] wr_ptr_bin\[0\] _315_ VDD VSS
+ gf180mcu_fd_sc_mcu9t5v0__and3_2
X_706_ net13 _205_ _315_ _316_ VDD VSS gf180mcu_fd_sc_mcu9t5v0__and3_2
X_707_ _183_ _316_ _151_ VDD VSS gf180mcu_fd_sc_mcu9t5v0__xnor2_2
X_708_ wr_ptr_bin\[0\] _001_ _317_ VDD VSS gf180mcu_fd_sc_mcu9t5v0__xnor2_2
X_709_ _317_ wr_ptr_gray\[0\] _313_ _152_ VDD VSS gf180mcu_fd_sc_mcu9t5v0__mux2_2
X_710_ _201_ _375_ _001_ _318_ VDD VSS gf180mcu_fd_sc_mcu9t5v0__xor3_2
X_711_ _318_ wr_ptr_gray\[1\] _313_ _153_ VDD VSS gf180mcu_fd_sc_mcu9t5v0__mux2_2
X_712_ wr_ptr_bin\[1\] wr_ptr_bin\[0\] _185_ _319_ VDD VSS
+ gf180mcu_fd_sc_mcu9t5v0__aoi21_2
X_713_ _183_ _375_ _319_ _320_ VDD VSS gf180mcu_fd_sc_mcu9t5v0__xnor3_2
X_714_ _320_ wr_ptr_gray\[2\] _313_ _154_ VDD VSS gf180mcu_fd_sc_mcu9t5v0__mux2_2
X_715_ _375_ _321_ VDD VSS gf180mcu_fd_sc_mcu9t5v0__clkinv_2
X_716_ _185_ _321_ wr_ptr_bin\[3\] _322_ VDD VSS gf180mcu_fd_sc_mcu9t5v0__oai21_2
X_717_ wr_ptr_bin\[3\] _321_ _323_ VDD VSS gf180mcu_fd_sc_mcu9t5v0__and2_2
X_718_ _322_ _323_ _315_ _324_ VDD VSS gf180mcu_fd_sc_mcu9t5v0__mux2_2
X_719_ wr_ptr_bin\[4\] _324_ _325_ VDD VSS gf180mcu_fd_sc_mcu9t5v0__xnor2_2
X_720_ _325_ wr_ptr_gray\[3\] _313_ _155_ VDD VSS gf180mcu_fd_sc_mcu9t5v0__mux2_2
X_721_ wr_ptr_bin\[4\] _206_ _156_ VDD VSS gf180mcu_fd_sc_mcu9t5v0__xnor2_2
X_722_ _344_ _352_ net20 VDD VSS gf180mcu_fd_sc_mcu9t5v0__xnor2_4
X_723_ net19 net18 _326_ VDD VSS gf180mcu_fd_sc_mcu9t5v0__or2_2
X_724_ net20 _326_ _327_ VDD VSS gf180mcu_fd_sc_mcu9t5v0__and2_2
X_725_ net21 net22 _327_ _172_ net15 VDD VSS gf180mcu_fd_sc_mcu9t5v0__oai31_2
X_726_ _362_ _340_ _328_ VDD VSS gf180mcu_fd_sc_mcu9t5v0__xor2_2
X_727_ _364_ _329_ VDD VSS gf180mcu_fd_sc_mcu9t5v0__clkinv_2
X_728_ _363_ _330_ VDD VSS gf180mcu_fd_sc_mcu9t5v0__clkinv_2
X_729_ _366_ _329_ _330_ _331_ VDD VSS gf180mcu_fd_sc_mcu9t5v0__oai21_2
X_730_ _362_ _331_ _361_ _332_ VDD VSS gf180mcu_fd_sc_mcu9t5v0__aoi21_2
X_731_ _359_ _332_ _333_ VDD VSS gf180mcu_fd_sc_mcu9t5v0__xnor2_2
X_732_ _362_ _340_ _334_ VDD VSS gf180mcu_fd_sc_mcu9t5v0__and2_2
X_733_ _361_ _334_ _335_ VDD VSS gf180mcu_fd_sc_mcu9t5v0__or2_2
X_734_ _359_ _335_ _358_ _336_ VDD VSS gf180mcu_fd_sc_mcu9t5v0__aoi21_2
X_735_ _160_ _336_ _337_ VDD VSS gf180mcu_fd_sc_mcu9t5v0__xor2_2
X_736_ net23 _328_ _333_ _337_ net16 VDD VSS gf180mcu_fd_sc_mcu9t5v0__or4_4
X_737_ wr_ptr_bin\[1\] _338_ _339_ _340_ _341_ VDD VSS gf180mcu_fd_sc_mcu9t5v0__addf_1
X_738_ rd_ptr_bin\[1\] _342_ _343_ _344_ net19 VDD VSS gf180mcu_fd_sc_mcu9t5v0__addf_4
X_739_ _345_ _346_ _347_ _348_ VDD VSS gf180mcu_fd_sc_mcu9t5v0__addh_1
X_740_ _349_ _350_ _351_ _352_ VDD VSS gf180mcu_fd_sc_mcu9t5v0__addh_1
X_741_ _353_ _354_ _355_ _356_ VDD VSS gf180mcu_fd_sc_mcu9t5v0__addh_1
X_742_ wr_ptr_bin\[3\] _357_ _358_ _359_ VDD VSS gf180mcu_fd_sc_mcu9t5v0__addh_1
X_743_ wr_ptr_bin\[2\] _360_ _361_ _362_ VDD VSS gf180mcu_fd_sc_mcu9t5v0__addh_2
X_744_ wr_ptr_bin\[1\] _339_ _363_ _364_ VDD VSS gf180mcu_fd_sc_mcu9t5v0__addh_1
X_745_ _000_ _365_ _366_ _367_ VDD VSS gf180mcu_fd_sc_mcu9t5v0__addh_1
X_746_ rd_ptr_bin\[0\] rd_ptr_bin\[1\] _368_ _002_ VDD VSS
+ gf180mcu_fd_sc_mcu9t5v0__addh_2
X_747_ _000_ _369_ _370_ _001_ VDD VSS gf180mcu_fd_sc_mcu9t5v0__addh_2
X_748_ _000_ wr_ptr_bin\[1\] _371_ _372_ VDD VSS gf180mcu_fd_sc_mcu9t5v0__addh_2
X_749_ wr_ptr_bin\[0\] _369_ _373_ _374_ VDD VSS gf180mcu_fd_sc_mcu9t5v0__addh_2
X_750_ wr_ptr_bin\[0\] wr_ptr_bin\[1\] _375_ _376_ VDD VSS
+ gf180mcu_fd_sc_mcu9t5v0__addh_2
X_751_ rd_ptr_bin\[0\] _377_ _342_ _378_ VDD VSS gf180mcu_fd_sc_mcu9t5v0__addh_2