
* cell dual_clock_fifo
* pin wr_clk
* pin wr_rst_n
* pin full
* pin almost_full
* pin wr_en
* pin wr_data[0]
* pin almost_empty
* pin fifo_count[3]
* pin fifo_count[4]
* pin rd_en
* pin empty
* pin fifo_count[2]
* pin fifo_count[1]
* pin fifo_count[0]
* pin rd_data[0]
* pin wr_data[5]
* pin rd_rst_n
* pin rd_data[6]
* pin rd_data[5]
* pin wr_data[6]
* pin wr_data[1]
* pin wr_data[7]
* pin rd_clk
* pin rd_data[3]
* pin rd_data[4]
* pin rd_data[2]
* pin rd_data[1]
* pin wr_data[3]
* pin wr_data[2]
* pin wr_data[4]
* pin rd_data[7]
* pin PWELL,gf180mcu_gnd
* pin NWELL
.SUBCKT dual_clock_fifo 1 2 3 4 5 6 119 139 140 141 142 171 195 196 227 238 317
+ 318 319 337 385 408 455 595 596 597 598 599 600 601 602 603 604
* net 1 wr_clk
* net 2 wr_rst_n
* net 3 full
* net 4 almost_full
* net 5 wr_en
* net 6 wr_data[0]
* net 119 almost_empty
* net 139 fifo_count[3]
* net 140 fifo_count[4]
* net 141 rd_en
* net 142 empty
* net 171 fifo_count[2]
* net 195 fifo_count[1]
* net 196 fifo_count[0]
* net 227 rd_data[0]
* net 238 wr_data[5]
* net 317 rd_rst_n
* net 318 rd_data[6]
* net 319 rd_data[5]
* net 337 wr_data[6]
* net 385 wr_data[1]
* net 408 wr_data[7]
* net 455 rd_clk
* net 595 rd_data[3]
* net 596 rd_data[4]
* net 597 rd_data[2]
* net 598 rd_data[1]
* net 599 wr_data[3]
* net 600 wr_data[2]
* net 601 wr_data[4]
* net 602 rd_data[7]
* net 603 PWELL,gf180mcu_gnd
* net 604 NWELL
* cell instance $3 r0 *1 1120.56,5.04
X$3 603 1 9 604 gf180mcu_fd_sc_mcu9t5v0__buf_20
* cell instance $8 m0 *1 1121.68,15.12
X$8 603 2 16 604 gf180mcu_fd_sc_mcu9t5v0__buf_12
* cell instance $11 r0 *1 1179.92,15.12
X$11 8 604 603 3 gf180mcu_fd_sc_mcu9t5v0__dlyb_2
* cell instance $15 r0 *1 1184.96,5.04
X$15 7 604 603 4 gf180mcu_fd_sc_mcu9t5v0__dlyb_2
* cell instance $20 m0 *1 1223.04,15.12
X$20 603 5 56 604 gf180mcu_fd_sc_mcu9t5v0__clkbuf_8
* cell instance $24 m0 *1 1237.6,15.12
X$24 603 6 91 604 gf180mcu_fd_sc_mcu9t5v0__clkbuf_8
* cell instance $29 m0 *1 1172.64,1053.36
X$29 603 7 14 12 31 8 604 gf180mcu_fd_sc_mcu9t5v0__or4_4
* cell instance $42 r0 *1 1182.72,1053.36
X$42 603 604 33 8 gf180mcu_fd_sc_mcu9t5v0__clkinv_8
* cell instance $44 m0 *1 1144.64,1144.08
X$44 603 182 9 157 604 gf180mcu_fd_sc_mcu9t5v0__dffq_2
* cell instance $46 r0 *1 1134,1164.24
X$46 603 235 9 247 604 gf180mcu_fd_sc_mcu9t5v0__dffq_2
* cell instance $48 r0 *1 1103.76,1265.04
X$48 603 440 9 416 604 gf180mcu_fd_sc_mcu9t5v0__dffq_2
* cell instance $50 r0 *1 1205.12,1063.44
X$50 603 16 34 9 37 604 gf180mcu_fd_sc_mcu9t5v0__dffrnq_2
* cell instance $52 r0 *1 1121.12,1295.28
X$52 603 458 9 456 604 gf180mcu_fd_sc_mcu9t5v0__dffq_2
* cell instance $54 m0 *1 1296.4,1355.76
X$54 603 563 9 576 604 gf180mcu_fd_sc_mcu9t5v0__dffq_2
* cell instance $56 r0 *1 1303.12,1194.48
X$56 603 290 9 310 604 gf180mcu_fd_sc_mcu9t5v0__dffq_2
* cell instance $204 m0 *1 1199.52,1325.52
X$204 603 483 9 505 604 gf180mcu_fd_sc_mcu9t5v0__dffq_2
* cell instance $206 r0 *1 1126.16,1174.32
X$206 603 206 9 234 604 gf180mcu_fd_sc_mcu9t5v0__dffq_2
* cell instance $208 m0 *1 1217.44,1224.72
X$208 603 356 9 355 604 gf180mcu_fd_sc_mcu9t5v0__dffq_2
* cell instance $211 m0 *1 1260.56,1254.96
X$211 603 384 9 399 604 gf180mcu_fd_sc_mcu9t5v0__dffq_2
* cell instance $214 r0 *1 1153.04,1295.28
X$214 603 476 9 474 604 gf180mcu_fd_sc_mcu9t5v0__dffq_2
* cell instance $216 r0 *1 1254.4,1254.96
X$216 603 430 9 429 604 gf180mcu_fd_sc_mcu9t5v0__dffq_2
* cell instance $218 m0 *1 1122.24,1214.64
X$218 603 323 9 322 604 gf180mcu_fd_sc_mcu9t5v0__dffq_2
* cell instance $220 m0 *1 1113.84,1154.16
X$220 603 204 9 194 604 gf180mcu_fd_sc_mcu9t5v0__dffq_2
* cell instance $222 m0 *1 1148.56,1295.28
X$222 603 460 9 459 604 gf180mcu_fd_sc_mcu9t5v0__dffq_2
* cell instance $225 r0 *1 1279.04,1224.72
X$225 603 360 9 332 604 gf180mcu_fd_sc_mcu9t5v0__dffq_2
* cell instance $227 r0 *1 1258.88,1285.2
X$227 603 487 9 464 604 gf180mcu_fd_sc_mcu9t5v0__dffq_2
* cell instance $230 m0 *1 1090.88,1103.76
X$230 603 16 43 9 84 604 gf180mcu_fd_sc_mcu9t5v0__dffrnq_2
* cell instance $232 m0 *1 1291.36,1154.16
X$232 603 191 9 222 604 gf180mcu_fd_sc_mcu9t5v0__dffq_2
* cell instance $235 m0 *1 1235.36,1154.16
X$235 603 189 9 215 604 gf180mcu_fd_sc_mcu9t5v0__dffq_2
* cell instance $238 m0 *1 1112.72,1275.12
X$238 603 442 9 441 604 gf180mcu_fd_sc_mcu9t5v0__dffq_2
* cell instance $240 m0 *1 1286.88,1164.24
X$240 603 220 9 221 604 gf180mcu_fd_sc_mcu9t5v0__dffq_2
* cell instance $242 m0 *1 1180.48,1184.4
X$242 603 281 9 280 604 gf180mcu_fd_sc_mcu9t5v0__dffq_2
* cell instance $244 m0 *1 1279.6,1355.76
X$244 603 575 9 574 604 gf180mcu_fd_sc_mcu9t5v0__dffq_2
* cell instance $246 m0 *1 1256.08,1295.28
X$246 603 486 9 463 604 gf180mcu_fd_sc_mcu9t5v0__dffq_2
* cell instance $249 r0 *1 1275.68,1285.2
X$249 603 466 9 465 604 gf180mcu_fd_sc_mcu9t5v0__dffq_2
* cell instance $252 m0 *1 1180.48,1345.68
X$252 603 553 9 551 604 gf180mcu_fd_sc_mcu9t5v0__dffq_2
* cell instance $254 r0 *1 1221.36,1265.04
X$254 603 426 9 424 604 gf180mcu_fd_sc_mcu9t5v0__dffq_2
* cell instance $257 m0 *1 1090.32,1083.6
X$257 603 16 42 9 58 604 gf180mcu_fd_sc_mcu9t5v0__dffrnq_2
* cell instance $259 m0 *1 1216.88,1275.12
X$259 603 425 9 449 604 gf180mcu_fd_sc_mcu9t5v0__dffq_2
* cell instance $261 m0 *1 1219.68,1365.84
X$261 603 555 9 588 604 gf180mcu_fd_sc_mcu9t5v0__dffq_2
* cell instance $263 r0 *1 1193.92,1184.4
X$263 603 283 9 259 604 gf180mcu_fd_sc_mcu9t5v0__dffq_2
* cell instance $266 r0 *1 1139.04,1113.84
X$266 603 16 107 9 108 604 gf180mcu_fd_sc_mcu9t5v0__dffrnq_2
* cell instance $268 r0 *1 1273.44,1254.96
X$268 603 402 9 400 604 gf180mcu_fd_sc_mcu9t5v0__dffq_2
* cell instance $271 r0 *1 1111.04,1103.76
X$271 603 16 85 9 95 604 gf180mcu_fd_sc_mcu9t5v0__dffrnq_2
* cell instance $273 m0 *1 1272.88,1184.4
X$273 603 261 9 260 604 gf180mcu_fd_sc_mcu9t5v0__dffq_2
* cell instance $276 r0 *1 1190.56,1254.96
X$276 603 448 9 421 604 gf180mcu_fd_sc_mcu9t5v0__dffq_2
* cell instance $278 r0 *1 1163.12,1315.44
X$278 603 502 9 501 604 gf180mcu_fd_sc_mcu9t5v0__dffq_2
* cell instance $280 m0 *1 1164.8,1325.52
X$280 603 531 9 530 604 gf180mcu_fd_sc_mcu9t5v0__dffq_2
* cell instance $282 r0 *1 1244.32,1315.44
X$282 603 513 9 523 604 gf180mcu_fd_sc_mcu9t5v0__dffq_2
* cell instance $284 r0 *1 1153.6,1224.72
X$284 603 348 9 372 604 gf180mcu_fd_sc_mcu9t5v0__dffq_2
* cell instance $286 r0 *1 1134.56,1214.64
X$286 603 324 9 339 604 gf180mcu_fd_sc_mcu9t5v0__dffq_2
* cell instance $288 m0 *1 1238.72,1325.52
X$288 603 512 9 511 604 gf180mcu_fd_sc_mcu9t5v0__dffq_2
* cell instance $290 r0 *1 1164.24,1154.16
X$290 603 212 9 211 604 gf180mcu_fd_sc_mcu9t5v0__dffq_2
* cell instance $292 m0 *1 1156.4,1194.48
X$292 603 278 9 256 604 gf180mcu_fd_sc_mcu9t5v0__dffq_2
* cell instance $295 r0 *1 1156.4,1184.4
X$295 603 258 9 267 604 gf180mcu_fd_sc_mcu9t5v0__dffq_2
* cell instance $297 r0 *1 1249.36,1184.4
X$297 603 286 9 296 604 gf180mcu_fd_sc_mcu9t5v0__dffq_2
* cell instance $299 r0 *1 1116.64,1154.16
X$299 603 203 9 202 604 gf180mcu_fd_sc_mcu9t5v0__dffq_2
* cell instance $302 m0 *1 1180.48,1365.84
X$302 603 570 9 584 604 gf180mcu_fd_sc_mcu9t5v0__dffq_2
* cell instance $304 m0 *1 1198.4,1365.84
X$304 603 571 9 585 604 gf180mcu_fd_sc_mcu9t5v0__dffq_2
* cell instance $306 m0 *1 1277.92,1194.48
X$306 603 289 9 266 604 gf180mcu_fd_sc_mcu9t5v0__dffq_2
* cell instance $309 m0 *1 1244.32,1194.48
X$309 603 285 9 311 604 gf180mcu_fd_sc_mcu9t5v0__dffq_2
* cell instance $311 r0 *1 1235.92,1275.12
X$311 603 427 9 450 604 gf180mcu_fd_sc_mcu9t5v0__dffq_2
* cell instance $313 r0 *1 1220.8,1345.68
X$313 603 533 9 565 604 gf180mcu_fd_sc_mcu9t5v0__dffq_2
* cell instance $315 r0 *1 1156.96,1103.76
X$315 603 16 63 9 87 604 gf180mcu_fd_sc_mcu9t5v0__dffrnq_2
* cell instance $317 m0 *1 1168.72,1113.84
X$317 603 16 72 9 110 604 gf180mcu_fd_sc_mcu9t5v0__dffrnq_2
* cell instance $319 r0 *1 1220.24,1214.64
X$319 603 380 9 340 604 gf180mcu_fd_sc_mcu9t5v0__dffq_2
* cell instance $321 m0 *1 1332.24,1234.8
X$321 603 366 9 387 604 gf180mcu_fd_sc_mcu9t5v0__dffq_2
* cell instance $323 r0 *1 1154.16,1355.76
X$323 603 568 9 580 604 gf180mcu_fd_sc_mcu9t5v0__dffq_2
* cell instance $325 m0 *1 1252.72,1224.72
X$325 603 358 9 357 604 gf180mcu_fd_sc_mcu9t5v0__dffq_2
* cell instance $328 m0 *1 1149.68,1204.56
X$328 603 304 9 316 604 gf180mcu_fd_sc_mcu9t5v0__dffq_2
* cell instance $330 r0 *1 1231.44,1234.8
X$330 603 382 9 390 604 gf180mcu_fd_sc_mcu9t5v0__dffq_2
* cell instance $332 m0 *1 1258.32,1214.64
X$332 603 330 9 329 604 gf180mcu_fd_sc_mcu9t5v0__dffq_2
* cell instance $334 m0 *1 1234.8,1234.8
X$334 603 383 9 381 604 gf180mcu_fd_sc_mcu9t5v0__dffq_2
* cell instance $336 m0 *1 1123.36,1305.36
X$336 603 472 9 494 604 gf180mcu_fd_sc_mcu9t5v0__dffq_2
* cell instance $339 r0 *1 1215.76,1073.52
X$339 603 16 26 9 55 604 gf180mcu_fd_sc_mcu9t5v0__dffrnq_2
* cell instance $342 m0 *1 1143.52,1355.76
X$342 603 550 9 548 604 gf180mcu_fd_sc_mcu9t5v0__dffq_2
* cell instance $345 m0 *1 1219.68,1204.56
X$345 603 282 9 312 604 gf180mcu_fd_sc_mcu9t5v0__dffq_2
* cell instance $347 m0 *1 1210.72,1194.48
X$347 603 309 9 284 604 gf180mcu_fd_sc_mcu9t5v0__dffq_2
* cell instance $349 m0 *1 1228.64,1355.76
X$349 603 556 9 572 604 gf180mcu_fd_sc_mcu9t5v0__dffq_2
* cell instance $351 m0 *1 1198.4,1265.04
X$351 603 423 9 422 604 gf180mcu_fd_sc_mcu9t5v0__dffq_2
* cell instance $353 m0 *1 1172.08,1275.12
X$353 603 420 9 419 604 gf180mcu_fd_sc_mcu9t5v0__dffq_2
* cell instance $355 r0 *1 1303.68,1254.96
X$355 603 405 9 404 604 gf180mcu_fd_sc_mcu9t5v0__dffq_2
* cell instance $358 r0 *1 1301.44,1265.04
X$358 603 434 9 433 604 gf180mcu_fd_sc_mcu9t5v0__dffq_2
* cell instance $360 m0 *1 1257.76,1154.16
X$360 603 192 9 219 604 gf180mcu_fd_sc_mcu9t5v0__dffq_2
* cell instance $363 m0 *1 1099.84,1123.92
X$363 603 16 105 9 104 604 gf180mcu_fd_sc_mcu9t5v0__dffrnq_2
* cell instance $366 m0 *1 1118.88,1355.76
X$366 603 546 9 578 604 gf180mcu_fd_sc_mcu9t5v0__dffq_2
* cell instance $369 m0 *1 1198.4,1224.72
X$369 603 354 9 352 604 gf180mcu_fd_sc_mcu9t5v0__dffq_2
* cell instance $371 r0 *1 1165.92,1144.08
X$371 603 186 9 185 604 gf180mcu_fd_sc_mcu9t5v0__dffq_2
* cell instance $373 r0 *1 1177.68,1234.8
X$373 603 351 9 376 604 gf180mcu_fd_sc_mcu9t5v0__dffq_2
* cell instance $375 r0 *1 1145.76,1144.08
X$375 603 209 9 158 604 gf180mcu_fd_sc_mcu9t5v0__dffq_2
* cell instance $377 m0 *1 1125.6,1123.92
X$377 603 16 86 9 106 604 gf180mcu_fd_sc_mcu9t5v0__dffrnq_2
* cell instance $380 r0 *1 1321.6,1254.96
X$380 603 407 9 406 604 gf180mcu_fd_sc_mcu9t5v0__dffq_2
* cell instance $383 m0 *1 1203.44,1355.76
X$383 603 554 9 579 604 gf180mcu_fd_sc_mcu9t5v0__dffq_2
* cell instance $385 r0 *1 1253.84,1164.24
X$385 603 218 9 237 604 gf180mcu_fd_sc_mcu9t5v0__dffq_2
* cell instance $387 m0 *1 1115.52,1113.84
X$387 603 16 77 9 105 604 gf180mcu_fd_sc_mcu9t5v0__dffrnq_2
* cell instance $389 m0 *1 1249.36,1365.84
X$389 603 557 9 573 604 gf180mcu_fd_sc_mcu9t5v0__dffq_2
* cell instance $391 r0 *1 1298.08,1335.6
X$391 603 564 9 562 604 gf180mcu_fd_sc_mcu9t5v0__dffq_2
* cell instance $393 m0 *1 1283.52,1295.28
X$393 603 467 9 468 604 gf180mcu_fd_sc_mcu9t5v0__dffq_2
* cell instance $395 m0 *1 1137.36,1254.96
X$395 603 375 9 393 604 gf180mcu_fd_sc_mcu9t5v0__dffq_2
* cell instance $398 r0 *1 1104.32,1093.68
X$398 603 16 67 9 76 604 gf180mcu_fd_sc_mcu9t5v0__dffrnq_2
* cell instance $400 m0 *1 1286.32,1254.96
X$400 603 432 9 403 604 gf180mcu_fd_sc_mcu9t5v0__dffq_2
* cell instance $402 m0 *1 1150.8,1234.8
X$402 603 327 9 325 604 gf180mcu_fd_sc_mcu9t5v0__dffq_2
* cell instance $404 r0 *1 1080.8,1224.72
X$404 603 369 9 341 604 gf180mcu_fd_sc_mcu9t5v0__dffq_2
* cell instance $407 m0 *1 1198.4,1204.56
X$407 603 308 9 315 604 gf180mcu_fd_sc_mcu9t5v0__dffq_2
* cell instance $409 m0 *1 1260.56,1335.6
X$409 603 560 9 558 604 gf180mcu_fd_sc_mcu9t5v0__dffq_2
* cell instance $411 r0 *1 1272.32,1144.08
X$411 603 190 9 166 604 gf180mcu_fd_sc_mcu9t5v0__dffq_2
* cell instance $413 r0 *1 1253.28,1355.76
X$413 603 559 9 577 604 gf180mcu_fd_sc_mcu9t5v0__dffq_2
* cell instance $415 m0 *1 1274.56,1154.16
X$415 603 168 9 167 604 gf180mcu_fd_sc_mcu9t5v0__dffq_2
* cell instance $418 r0 *1 1151.36,1254.96
X$418 603 394 9 412 604 gf180mcu_fd_sc_mcu9t5v0__dffq_2
* cell instance $421 m0 *1 1098.72,1073.52
X$421 603 16 17 9 59 604 gf180mcu_fd_sc_mcu9t5v0__dffrnq_2
* cell instance $423 r0 *1 1171.52,1265.04
X$423 603 437 9 414 604 gf180mcu_fd_sc_mcu9t5v0__dffq_2
* cell instance $425 r0 *1 1099.28,1063.44
X$425 603 16 18 9 38 604 gf180mcu_fd_sc_mcu9t5v0__dffrnq_2
* cell instance $427 r0 *1 1264.48,1325.52
X$427 603 535 9 538 604 gf180mcu_fd_sc_mcu9t5v0__dffq_2
* cell instance $430 m0 *1 1086.96,1234.8
X$430 603 373 9 342 604 gf180mcu_fd_sc_mcu9t5v0__dffq_2
* cell instance $432 r0 *1 1154.72,1265.04
X$432 603 447 9 446 604 gf180mcu_fd_sc_mcu9t5v0__dffq_2
* cell instance $434 r0 *1 1298.08,1315.44
X$434 603 517 9 520 604 gf180mcu_fd_sc_mcu9t5v0__dffq_2
* cell instance $436 m0 *1 1294.16,1325.52
X$436 603 518 9 537 604 gf180mcu_fd_sc_mcu9t5v0__dffq_2
* cell instance $439 r0 *1 1269.52,1365.84
X$439 603 561 9 586 604 gf180mcu_fd_sc_mcu9t5v0__dffq_2
* cell instance $442 m0 *1 1307.04,1234.8
X$442 603 363 9 336 604 gf180mcu_fd_sc_mcu9t5v0__dffq_2
* cell instance $444 m0 *1 1086.96,1265.04
X$444 603 391 9 439 604 gf180mcu_fd_sc_mcu9t5v0__dffq_2
* cell instance $447 m0 *1 1079.12,1275.12
X$447 603 415 9 438 604 gf180mcu_fd_sc_mcu9t5v0__dffq_2
* cell instance $449 r0 *1 1303.68,1295.28
X$449 603 491 9 488 604 gf180mcu_fd_sc_mcu9t5v0__dffq_2
* cell instance $451 m0 *1 1284.08,1214.64
X$451 603 359 9 335 604 gf180mcu_fd_sc_mcu9t5v0__dffq_2
* cell instance $453 m0 *1 1092.56,1325.52
X$453 603 498 9 519 604 gf180mcu_fd_sc_mcu9t5v0__dffq_2
* cell instance $456 m0 *1 1102.08,1335.6
X$456 603 524 9 539 604 gf180mcu_fd_sc_mcu9t5v0__dffq_2
* cell instance $458 m0 *1 1140.72,1365.84
X$458 603 567 9 566 604 gf180mcu_fd_sc_mcu9t5v0__dffq_2
* cell instance $460 m0 *1 1110.48,1234.8
X$460 603 374 9 386 604 gf180mcu_fd_sc_mcu9t5v0__dffq_2
* cell instance $462 r0 *1 1098.72,1295.28
X$462 603 470 9 469 604 gf180mcu_fd_sc_mcu9t5v0__dffq_2
* cell instance $464 r0 *1 1190,1214.64
X$464 603 353 9 328 604 gf180mcu_fd_sc_mcu9t5v0__dffq_2
* cell instance $467 r0 *1 1116.08,1325.52
X$467 603 525 9 541 604 gf180mcu_fd_sc_mcu9t5v0__dffq_2
* cell instance $470 m0 *1 1226.96,1305.36
X$470 603 485 9 484 604 gf180mcu_fd_sc_mcu9t5v0__dffq_2
* cell instance $472 r0 *1 1226.4,1295.28
X$472 603 462 9 461 604 gf180mcu_fd_sc_mcu9t5v0__dffq_2
* cell instance $474 m0 *1 1177.68,1355.76
X$474 603 552 9 569 604 gf180mcu_fd_sc_mcu9t5v0__dffq_2
* cell instance $476 r0 *1 1318.24,1265.04
X$476 603 451 9 452 604 gf180mcu_fd_sc_mcu9t5v0__dffq_2
* cell instance $478 r0 *1 1078.56,1073.52
X$478 603 16 59 9 101 604 gf180mcu_fd_sc_mcu9t5v0__dffrnq_2
* cell instance $481 r0 *1 1078.56,1063.44
X$481 603 16 38 9 15 604 gf180mcu_fd_sc_mcu9t5v0__dffrnq_2
* cell instance $483 m0 *1 1180.48,1305.36
X$483 603 479 9 477 604 gf180mcu_fd_sc_mcu9t5v0__dffq_2
* cell instance $485 m0 *1 1071.28,1083.6
X$485 603 16 58 9 41 604 gf180mcu_fd_sc_mcu9t5v0__dffrnq_2
* cell instance $487 r0 *1 1185.52,1295.28
X$487 603 480 9 496 604 gf180mcu_fd_sc_mcu9t5v0__dffq_2
* cell instance $489 m0 *1 1317.68,1224.72
X$489 603 365 9 364 604 gf180mcu_fd_sc_mcu9t5v0__dffq_2
* cell instance $492 r0 *1 1099.84,1224.72
X$492 603 344 9 343 604 gf180mcu_fd_sc_mcu9t5v0__dffq_2
* cell instance $495 r0 *1 1172.64,1224.72
X$495 603 350 9 349 604 gf180mcu_fd_sc_mcu9t5v0__dffq_2
* cell instance $497 r0 *1 1239.28,1265.04
X$497 603 428 9 453 604 gf180mcu_fd_sc_mcu9t5v0__dffq_2
* cell instance $499 m0 *1 1100.96,1305.36
X$499 603 471 9 493 604 gf180mcu_fd_sc_mcu9t5v0__dffq_2
* cell instance $502 r0 *1 1108.24,1123.92
X$502 603 16 106 9 126 604 gf180mcu_fd_sc_mcu9t5v0__dffrnq_2
* cell instance $504 r0 *1 1239.84,1144.08
X$504 603 164 9 163 604 gf180mcu_fd_sc_mcu9t5v0__dffq_2
* cell instance $506 r0 *1 1316.56,1174.32
X$506 603 265 9 264 604 gf180mcu_fd_sc_mcu9t5v0__dffq_2
* cell instance $508 r0 *1 1127.28,1335.6
X$508 603 547 9 545 604 gf180mcu_fd_sc_mcu9t5v0__dffq_2
* cell instance $511 m0 *1 1198.96,1305.36
X$511 603 482 9 481 604 gf180mcu_fd_sc_mcu9t5v0__dffq_2
* cell instance $513 m0 *1 1118.32,1083.6
X$513 603 16 19 9 60 604 gf180mcu_fd_sc_mcu9t5v0__dffrnq_2
* cell instance $515 r0 *1 1299.76,1174.32
X$515 603 263 9 262 604 gf180mcu_fd_sc_mcu9t5v0__dffq_2
* cell instance $517 m0 *1 1305.92,1295.28
X$517 603 492 9 489 604 gf180mcu_fd_sc_mcu9t5v0__dffq_2
* cell instance $519 m0 *1 1299.2,1224.72
X$519 603 362 9 361 604 gf180mcu_fd_sc_mcu9t5v0__dffq_2
* cell instance $522 r0 *1 1120,1254.96
X$522 603 392 9 410 604 gf180mcu_fd_sc_mcu9t5v0__dffq_2
* cell instance $524 m0 *1 1315.44,1194.48
X$524 603 292 9 293 604 gf180mcu_fd_sc_mcu9t5v0__dffq_2
* cell instance $528 r0 *1 1119.44,1073.52
X$528 43 603 42 604 10 gf180mcu_fd_sc_mcu9t5v0__xor2_2
* cell instance $532 r0 *1 1139.6,1073.52
X$532 603 604 10 45 46 gf180mcu_fd_sc_mcu9t5v0__nand2_2
* cell instance $535 r0 *1 1159.76,1053.36
X$535 10 603 13 604 14 gf180mcu_fd_sc_mcu9t5v0__xor2_2
* cell instance $537 r0 *1 1169.28,1053.36
X$537 604 27 11 603 12 gf180mcu_fd_sc_mcu9t5v0__xnor2_2
* cell instance $539 r0 *1 1170.4,1063.44
X$539 603 24 604 11 30 28 gf180mcu_fd_sc_mcu9t5v0__aoi21_2
* cell instance $544 m0 *1 1158.08,1053.36
X$544 603 40 604 13 25 27 gf180mcu_fd_sc_mcu9t5v0__aoi21_2
* cell instance $550 r0 *1 1069.6,1154.16
X$550 603 80 15 81 201 604 gf180mcu_fd_sc_mcu9t5v0__dffrnq_2
* cell instance $552 m0 *1 1072.96,1154.16
X$552 603 604 201 15 175 179 gf180mcu_fd_sc_mcu9t5v0__mux2_2
* cell instance $559 m0 *1 1071.28,1123.92
X$559 83 603 15 604 102 gf180mcu_fd_sc_mcu9t5v0__xor2_2
* cell instance $608 r0 *1 1118.32,1063.44
X$608 604 42 17 603 20 gf180mcu_fd_sc_mcu9t5v0__xnor2_2
* cell instance $613 m0 *1 1117.76,1073.52
X$613 67 603 17 604 39 gf180mcu_fd_sc_mcu9t5v0__xor2_2
* cell instance $619 r0 *1 1135.12,1063.44
X$619 18 603 20 604 22 gf180mcu_fd_sc_mcu9t5v0__xor2_2
* cell instance $621 m0 *1 1128.4,1073.52
X$621 19 603 18 604 21 gf180mcu_fd_sc_mcu9t5v0__xor2_2
* cell instance $625 r0 *1 1127.84,1083.6
X$625 603 604 60 19 69 61 gf180mcu_fd_sc_mcu9t5v0__mux2_2
* cell instance $630 m0 *1 1070.72,1103.76
X$630 603 80 96 81 19 604 gf180mcu_fd_sc_mcu9t5v0__dffrnq_2
* cell instance $638 m0 *1 1158.08,1063.44
X$638 40 603 604 34 20 27 gf180mcu_fd_sc_mcu9t5v0__addh_1
* cell instance $641 m0 *1 1137.92,1073.52
X$641 44 21 39 45 604 603 32 gf180mcu_fd_sc_mcu9t5v0__or4_2
* cell instance $645 r0 *1 1158.64,1063.44
X$645 603 24 28 26 22 604 gf180mcu_fd_sc_mcu9t5v0__addh_2
* cell instance $649 m0 *1 1148.56,1093.68
X$649 77 603 22 604 64 gf180mcu_fd_sc_mcu9t5v0__xor2_2
* cell instance $651 m0 *1 1153.04,1063.44
X$651 604 28 29 603 23 gf180mcu_fd_sc_mcu9t5v0__and2_2
* cell instance $653 m0 *1 1162,1073.52
X$653 603 24 23 604 25 gf180mcu_fd_sc_mcu9t5v0__or2_2
* cell instance $672 m0 *1 1217.44,1093.68
X$672 603 604 26 89 gf180mcu_fd_sc_mcu9t5v0__buf_4
* cell instance $675 r0 *1 1204.56,1073.52
X$675 603 604 26 54 gf180mcu_fd_sc_mcu9t5v0__clkinv_3
* cell instance $689 m0 *1 1167.6,1063.44
X$689 28 603 29 604 31 gf180mcu_fd_sc_mcu9t5v0__xor2_2
* cell instance $697 m0 *1 1157.52,1083.6
X$697 603 63 29 65 64 604 gf180mcu_fd_sc_mcu9t5v0__addf_1
* cell instance $700 r0 *1 1170.96,1083.6
X$700 604 78 603 49 30 70 gf180mcu_fd_sc_mcu9t5v0__oai21_2
* cell instance $707 r0 *1 1182.16,1073.52
X$707 603 32 50 604 gf180mcu_fd_sc_mcu9t5v0__clkbuf_8
* cell instance $709 m0 *1 1182.72,1073.52
X$709 603 32 33 604 gf180mcu_fd_sc_mcu9t5v0__clkbuf_8
* cell instance $719 r0 *1 1210.16,1154.16
X$719 160 74 33 603 604 214 gf180mcu_fd_sc_mcu9t5v0__and3_4
* cell instance $721 m0 *1 1218.56,1164.24
X$721 127 74 33 603 604 223 gf180mcu_fd_sc_mcu9t5v0__and3_4
* cell instance $723 m0 *1 1224.16,1154.16
X$723 162 74 33 603 604 188 gf180mcu_fd_sc_mcu9t5v0__and3_4
* cell instance $725 r0 *1 1225.28,1154.16
X$725 161 74 33 603 604 216 gf180mcu_fd_sc_mcu9t5v0__and3_4
* cell instance $728 r0 *1 1188.88,1134
X$728 603 33 111 112 89 159 604 gf180mcu_fd_sc_mcu9t5v0__nand4_4
* cell instance $730 r0 *1 1184.96,1154.16
X$730 603 33 111 114 89 208 604 gf180mcu_fd_sc_mcu9t5v0__nand4_4
* cell instance $732 r0 *1 1200.08,1164.24
X$732 127 111 33 603 604 255 gf180mcu_fd_sc_mcu9t5v0__and3_4
* cell instance $734 m0 *1 1207.36,1164.24
X$734 160 111 33 603 604 207 gf180mcu_fd_sc_mcu9t5v0__and3_4
* cell instance $736 r0 *1 1188.88,1144.08
X$736 603 33 111 113 89 205 604 gf180mcu_fd_sc_mcu9t5v0__nand4_4
* cell instance $738 r0 *1 1220.8,1083.6
X$738 604 56 34 603 75 gf180mcu_fd_sc_mcu9t5v0__and2_2
* cell instance $742 r0 *1 1196.72,1073.52
X$742 604 34 603 53 66 54 gf180mcu_fd_sc_mcu9t5v0__oai21_2
* cell instance $747 m0 *1 1201.2,1073.52
X$747 603 604 34 35 gf180mcu_fd_sc_mcu9t5v0__clkinv_2
* cell instance $750 m0 *1 1199.52,1083.6
X$750 604 34 53 603 62 gf180mcu_fd_sc_mcu9t5v0__and2_2
* cell instance $756 m0 *1 1212.4,1093.68
X$756 604 56 35 603 74 gf180mcu_fd_sc_mcu9t5v0__and2_2
* cell instance $758 m0 *1 1204.56,1073.52
X$758 604 35 36 603 37 gf180mcu_fd_sc_mcu9t5v0__xnor2_2
* cell instance $760 r0 *1 1197.28,1083.6
X$760 603 71 35 61 73 604 gf180mcu_fd_sc_mcu9t5v0__xnor3_2
* cell instance $764 m0 *1 1204.56,1083.6
X$764 56 604 50 52 603 36 gf180mcu_fd_sc_mcu9t5v0__and3_2
* cell instance $781 m0 *1 1036,1123.92
X$781 604 97 41 603 123 gf180mcu_fd_sc_mcu9t5v0__xnor2_2
* cell instance $783 m0 *1 1035.44,1194.48
X$783 603 80 41 81 272 604 gf180mcu_fd_sc_mcu9t5v0__dffrnq_2
* cell instance $792 r0 *1 1058.96,1164.24
X$792 41 603 242 604 178 gf180mcu_fd_sc_mcu9t5v0__xor2_2
* cell instance $794 r0 *1 1029.84,1184.4
X$794 604 41 295 603 272 gf180mcu_fd_sc_mcu9t5v0__xnor2_2
* cell instance $801 r0 *1 1117.76,1083.6
X$801 604 43 51 603 68 gf180mcu_fd_sc_mcu9t5v0__xnor2_2
* cell instance $806 r0 *1 1088.08,1103.76
X$806 604 43 94 603 84 gf180mcu_fd_sc_mcu9t5v0__xnor2_2
* cell instance $809 r0 *1 1015.28,1103.76
X$809 603 80 79 81 43 604 gf180mcu_fd_sc_mcu9t5v0__dffrnq_2
* cell instance $813 m0 *1 1131.2,1103.76
X$813 85 603 77 604 44 gf180mcu_fd_sc_mcu9t5v0__xor2_2
* cell instance $818 m0 *1 1136.8,1113.84
X$818 604 107 86 603 46 gf180mcu_fd_sc_mcu9t5v0__xnor2_2
* cell instance $821 r0 *1 1161.44,1083.6
X$821 47 603 604 63 64 48 gf180mcu_fd_sc_mcu9t5v0__addh_1
* cell instance $823 r0 *1 1163.68,1073.52
X$823 603 604 47 78 gf180mcu_fd_sc_mcu9t5v0__clkinv_2
* cell instance $826 r0 *1 1170.4,1073.52
X$826 603 604 48 49 gf180mcu_fd_sc_mcu9t5v0__clkinv_2
* cell instance $830 m0 *1 1210.16,1123.92
X$830 89 112 50 74 603 604 116 gf180mcu_fd_sc_mcu9t5v0__and4_2
* cell instance $832 m0 *1 1218.56,1113.84
X$832 89 71 50 74 603 604 115 gf180mcu_fd_sc_mcu9t5v0__and4_2
* cell instance $844 r0 *1 1187.2,1113.84
X$844 603 50 111 71 89 94 604 gf180mcu_fd_sc_mcu9t5v0__nand4_4
* cell instance $846 r0 *1 1211.84,1123.92
X$846 89 113 50 74 603 604 130 gf180mcu_fd_sc_mcu9t5v0__and4_2
* cell instance $848 r0 *1 1219.68,1123.92
X$848 89 114 50 74 603 604 131 gf180mcu_fd_sc_mcu9t5v0__and4_2
* cell instance $850 m0 *1 1212.96,1154.16
X$850 111 161 50 603 604 187 gf180mcu_fd_sc_mcu9t5v0__and3_4
* cell instance $852 r0 *1 1216.32,1144.08
X$852 162 111 50 603 604 213 gf180mcu_fd_sc_mcu9t5v0__and3_4
* cell instance $854 r0 *1 1214.64,1083.6
X$854 56 604 71 50 603 57 gf180mcu_fd_sc_mcu9t5v0__and3_2
* cell instance $856 r0 *1 1188.32,1083.6
X$856 604 603 50 69 56 gf180mcu_fd_sc_mcu9t5v0__nand2_4
* cell instance $861 m0 *1 1188.88,1083.6
X$861 603 604 51 62 52 66 gf180mcu_fd_sc_mcu9t5v0__mux2_2
* cell instance $867 m0 *1 1191.12,1093.68
X$867 89 604 63 72 603 52 gf180mcu_fd_sc_mcu9t5v0__and3_2
* cell instance $873 m0 *1 1198.4,1093.68
X$873 603 604 71 53 gf180mcu_fd_sc_mcu9t5v0__clkinv_2
* cell instance $876 m0 *1 1214.64,1083.6
X$876 604 54 57 603 55 gf180mcu_fd_sc_mcu9t5v0__xnor2_2
* cell instance $890 m0 *1 1207.36,1144.08
X$890 604 54 113 603 160 gf180mcu_fd_sc_mcu9t5v0__and2_2
* cell instance $892 m0 *1 1213.52,1134
X$892 604 54 71 603 127 gf180mcu_fd_sc_mcu9t5v0__and2_2
* cell instance $894 m0 *1 1217.44,1144.08
X$894 604 54 114 603 162 gf180mcu_fd_sc_mcu9t5v0__and2_2
* cell instance $897 m0 *1 1212.4,1144.08
X$897 604 54 112 603 161 gf180mcu_fd_sc_mcu9t5v0__and2_2
* cell instance $901 m0 *1 1201.76,1093.68
X$901 603 54 604 73 72 63 gf180mcu_fd_sc_mcu9t5v0__aoi21_2
* cell instance $945 m0 *1 1198.96,1113.84
X$945 603 113 605 88 63 604 gf180mcu_fd_sc_mcu9t5v0__addh_2
* cell instance $947 r0 *1 1158.08,1113.84
X$947 603 604 87 63 69 109 gf180mcu_fd_sc_mcu9t5v0__mux2_2
* cell instance $949 r0 *1 1200.08,1093.68
X$949 603 71 607 72 63 604 gf180mcu_fd_sc_mcu9t5v0__addh_2
* cell instance $959 r0 *1 1205.12,1103.76
X$959 603 604 63 90 gf180mcu_fd_sc_mcu9t5v0__clkinv_2
* cell instance $968 m0 *1 1154.16,1103.76
X$968 604 86 64 603 93 gf180mcu_fd_sc_mcu9t5v0__xnor2_2
* cell instance $977 m0 *1 1174.32,1083.6
X$977 603 604 70 65 gf180mcu_fd_sc_mcu9t5v0__clkinv_2
* cell instance $983 m0 *1 1116.64,1093.68
X$983 603 604 76 67 69 68 gf180mcu_fd_sc_mcu9t5v0__mux2_2
* cell instance $988 m0 *1 1051.68,1103.76
X$988 603 80 82 81 67 604 gf180mcu_fd_sc_mcu9t5v0__dffrnq_2
* cell instance $993 r0 *1 1132.88,1103.76
X$993 603 604 95 85 69 92 gf180mcu_fd_sc_mcu9t5v0__mux2_2
* cell instance $995 m0 *1 1146.32,1113.84
X$995 603 604 108 107 69 118 gf180mcu_fd_sc_mcu9t5v0__mux2_2
* cell instance $999 r0 *1 1166.48,1113.84
X$999 604 72 69 603 110 gf180mcu_fd_sc_mcu9t5v0__xnor2_2
* cell instance $1012 m0 *1 1176.56,1103.76
X$1012 70 603 604 88 93 608 gf180mcu_fd_sc_mcu9t5v0__addh_1
* cell instance $1024 r0 *1 1189.44,1103.76
X$1024 603 89 92 71 109 604 gf180mcu_fd_sc_mcu9t5v0__xor3_2
* cell instance $1041 m0 *1 1159.2,1113.84
X$1041 604 72 109 603 118 gf180mcu_fd_sc_mcu9t5v0__xnor2_2
* cell instance $1044 r0 *1 1204.56,1113.84
X$1044 603 114 606 72 90 604 gf180mcu_fd_sc_mcu9t5v0__addh_2
* cell instance $1046 r0 *1 1182.72,1103.76
X$1046 603 604 72 88 gf180mcu_fd_sc_mcu9t5v0__clkinv_2
* cell instance $1075 r0 *1 1223.04,1103.76
X$1075 603 604 75 111 gf180mcu_fd_sc_mcu9t5v0__buf_4
* cell instance $1091 m0 *1 1024.24,1113.84
X$1091 603 80 97 81 79 604 gf180mcu_fd_sc_mcu9t5v0__dffrnq_2
* cell instance $1093 m0 *1 1089.76,1204.56
X$1093 603 80 301 81 313 604 gf180mcu_fd_sc_mcu9t5v0__dffrnq_2
* cell instance $1096 m0 *1 1086.4,1113.84
X$1096 603 80 117 81 85 604 gf180mcu_fd_sc_mcu9t5v0__dffrnq_2
* cell instance $1099 r0 *1 1062.32,1103.76
X$1099 603 80 83 81 96 604 gf180mcu_fd_sc_mcu9t5v0__dffrnq_2
* cell instance $1101 m0 *1 1065.68,1113.84
X$1101 603 80 100 81 82 604 gf180mcu_fd_sc_mcu9t5v0__dffrnq_2
* cell instance $1103 r0 *1 1075.2,1113.84
X$1103 603 80 103 81 117 604 gf180mcu_fd_sc_mcu9t5v0__dffrnq_2
* cell instance $1107 r0 *1 1069.04,1123.92
X$1107 603 80 125 81 134 604 gf180mcu_fd_sc_mcu9t5v0__dffrnq_2
* cell instance $1109 m0 *1 1080.8,1123.92
X$1109 603 80 134 81 107 604 gf180mcu_fd_sc_mcu9t5v0__dffrnq_2
* cell instance $1115 m0 *1 1085.28,1144.08
X$1115 603 80 104 81 170 604 gf180mcu_fd_sc_mcu9t5v0__dffrnq_2
* cell instance $1119 r0 *1 1055.6,1144.08
X$1119 603 80 101 81 155 604 gf180mcu_fd_sc_mcu9t5v0__dffrnq_2
* cell instance $1121 m0 *1 1089.2,1164.24
X$1121 603 80 126 81 243 604 gf180mcu_fd_sc_mcu9t5v0__dffrnq_2
* cell instance $1142 m0 *1 1056.72,1204.56
X$1142 603 80 273 81 299 604 gf180mcu_fd_sc_mcu9t5v0__dffrnq_4
* cell instance $1145 m0 *1 14.56,1214.64
X$1145 603 317 80 604 gf180mcu_fd_sc_mcu9t5v0__buf_12
* cell instance $1148 r0 *1 1098.72,1194.48
X$1148 603 80 224 81 275 604 gf180mcu_fd_sc_mcu9t5v0__dffrnq_4
* cell instance $1150 r0 *1 1098.72,1184.4
X$1150 603 80 177 81 276 604 gf180mcu_fd_sc_mcu9t5v0__dffrnq_4
* cell instance $1152 m0 *1 1165.36,1386
X$1152 603 593 81 592 604 gf180mcu_fd_sc_mcu9t5v0__dffq_4
* cell instance $1154 m0 *1 1136.8,1386
X$1154 603 582 81 587 604 gf180mcu_fd_sc_mcu9t5v0__dffq_4
* cell instance $1156 r0 *1 1020.88,1204.56
X$1156 603 320 81 297 604 gf180mcu_fd_sc_mcu9t5v0__dffq_4
* cell instance $1158 m0 *1 1023.68,1224.72
X$1158 603 321 81 368 604 gf180mcu_fd_sc_mcu9t5v0__dffq_4
* cell instance $1160 m0 *1 1134,1396.08
X$1160 603 581 81 589 604 gf180mcu_fd_sc_mcu9t5v0__dffq_4
* cell instance $1206 r0 *1 1022,1164.24
X$1206 603 229 81 240 604 gf180mcu_fd_sc_mcu9t5v0__dffq_4
* cell instance $1210 m0 *1 2.24,1295.28
X$1210 603 455 81 604 gf180mcu_fd_sc_mcu9t5v0__buf_12
* cell instance $1217 r0 *1 1167.6,1386
X$1217 603 594 81 583 604 gf180mcu_fd_sc_mcu9t5v0__dffq_4
* cell instance $1219 m0 *1 1157.52,1396.08
X$1219 603 590 81 591 604 gf180mcu_fd_sc_mcu9t5v0__dffq_4
* cell instance $1227 m0 *1 1045.52,1123.92
X$1227 83 603 98 604 99 gf180mcu_fd_sc_mcu9t5v0__xor2_2
* cell instance $1251 m0 *1 1198.4,1123.92
X$1251 603 112 109 88 90 604 gf180mcu_fd_sc_mcu9t5v0__addh_2
* cell instance $1278 m0 *1 1240.4,1164.24
X$1278 603 604 215 91 217 189 gf180mcu_fd_sc_mcu9t5v0__mux2_2
* cell instance $1281 m0 *1 1178.24,1154.16
X$1281 603 604 185 91 187 186 gf180mcu_fd_sc_mcu9t5v0__mux2_2
* cell instance $1283 m0 *1 1170.96,1164.24
X$1283 603 604 211 91 213 212 gf180mcu_fd_sc_mcu9t5v0__mux2_2
* cell instance $1286 r0 *1 1276.8,1134
X$1286 603 604 167 91 128 168 gf180mcu_fd_sc_mcu9t5v0__mux2_2
* cell instance $1288 m0 *1 1276.24,1144.08
X$1288 603 604 166 91 165 190 gf180mcu_fd_sc_mcu9t5v0__mux2_2
* cell instance $1290 m0 *1 1245.44,1144.08
X$1290 603 604 163 91 129 164 gf180mcu_fd_sc_mcu9t5v0__mux2_2
* cell instance $1301 m0 *1 1252.16,1154.16
X$1301 91 604 603 181 gf180mcu_fd_sc_mcu9t5v0__buf_3
* cell instance $1311 m0 *1 1182.72,1234.8
X$1311 603 604 376 351 94 377 gf180mcu_fd_sc_mcu9t5v0__mux2_2
* cell instance $1313 r0 *1 1159.76,1194.48
X$1313 603 604 316 304 94 257 gf180mcu_fd_sc_mcu9t5v0__mux2_2
* cell instance $1316 m0 *1 1130.64,1154.16
X$1316 603 604 194 204 94 181 gf180mcu_fd_sc_mcu9t5v0__mux2_2
* cell instance $1318 m0 *1 1087.52,1224.72
X$1318 603 604 341 369 94 334 gf180mcu_fd_sc_mcu9t5v0__mux2_2
* cell instance $1320 r0 *1 1089.2,1265.04
X$1320 603 604 438 415 94 401 gf180mcu_fd_sc_mcu9t5v0__mux2_2
* cell instance $1323 m0 *1 1124.48,1325.52
X$1323 603 604 541 525 94 457 gf180mcu_fd_sc_mcu9t5v0__mux2_2
* cell instance $1325 r0 *1 1100.4,1315.44