
* cell hamming_code
* pin encoded_out[0]
* pin encoded_out[2]
* pin data_in[0]
* pin data_in[1]
* pin data_in[2]
* pin data_in[3]
* pin encoded_out[6]
* pin encoded_out[4]
* pin encoded_out[5]
* pin encoded_out[3]
* pin encoded_out[1]
* pin single_bit_error
* pin corrected_code[1]
* pin corrected_code[2]
* pin data_out[0]
* pin corrected_code[0]
* pin received_in[1]
* pin received_in[0]
* pin received_in[2]
* pin PWELL
* pin NWELL
* pin received_in[4]
* pin received_in[6]
* pin data_out[1]
* pin corrected_code[4]
* pin received_in[5]
* pin corrected_code[5]
* pin data_out[2]
* pin received_in[3]
* pin corrected_code[6]
* pin data_out[3]
* pin corrected_code[3]
.SUBCKT hamming_code 1 2 3 4 5 6 7 8 9 10 11 12 13 14 15 16 17 18 19 27 35 64
+ 76 93 94 96 116 122 131 132 141 142
* net 1 encoded_out[0]
* net 2 encoded_out[2]
* net 3 data_in[0]
* net 4 data_in[1]
* net 5 data_in[2]
* net 6 data_in[3]
* net 7 encoded_out[6]
* net 8 encoded_out[4]
* net 9 encoded_out[5]
* net 10 encoded_out[3]
* net 11 encoded_out[1]
* net 12 single_bit_error
* net 13 corrected_code[1]
* net 14 corrected_code[2]
* net 15 data_out[0]
* net 16 corrected_code[0]
* net 17 received_in[1]
* net 18 received_in[0]
* net 19 received_in[2]
* net 27 PWELL
* net 35 NWELL
* net 64 received_in[4]
* net 76 received_in[6]
* net 93 data_out[1]
* net 94 corrected_code[4]
* net 96 received_in[5]
* net 116 corrected_code[5]
* net 122 data_out[2]
* net 131 received_in[3]
* net 132 corrected_code[6]
* net 141 data_out[3]
* net 142 corrected_code[3]
* cell instance $2 r0 *1 7.98,1.4
X$2 26 27 35 1 BUF_X1
* cell instance $8 m0 *1 9.31,4.2
X$8 45 27 35 2 BUF_X1
* cell instance $15 r0 *1 9.12,1.4
X$15 3 27 35 31 BUF_X1
* cell instance $20 r0 *1 10.26,1.4
X$20 4 27 35 21 BUF_X1
* cell instance $27 r0 *1 9.69,1.4
X$27 5 27 35 33 BUF_X1
* cell instance $32 r0 *1 11.4,1.4
X$32 6 27 35 32 BUF_X1
* cell instance $38 r0 *1 10.83,1.4
X$38 37 27 35 7 BUF_X1
* cell instance $44 r0 *1 12.54,1.4
X$44 28 27 35 8 BUF_X1
* cell instance $50 r0 *1 13.49,1.4
X$50 22 27 35 9 BUF_X1
* cell instance $56 r0 *1 15.2,1.4
X$56 29 27 35 10 BUF_X1
* cell instance $62 r0 *1 14.06,1.4
X$62 41 27 35 11 BUF_X1
* cell instance $68 r0 *1 16.72,1.4
X$68 24 27 35 12 BUF_X1
* cell instance $74 r0 *1 17.48,1.4
X$74 52 27 35 13 BUF_X1
* cell instance $80 r0 *1 20.33,1.4
X$80 25 27 35 14 BUF_X1
* cell instance $86 r0 *1 20.9,1.4
X$86 30 27 35 15 BUF_X1
* cell instance $92 r0 *1 21.47,1.4
X$92 38 27 35 16 BUF_X1
* cell instance $99 m0 *1 22.04,4.2
X$99 17 27 35 47 CLKBUF_X2
* cell instance $108 r0 *1 22.42,1.4
X$108 18 27 35 36 BUF_X2
* cell instance $110 r0 *1 23.18,1.4
X$110 19 35 44 27 BUF_X4
* cell instance $116 m0 *1 7.6,4.2
X$116 31 39 35 27 20 XNOR2_X1
* cell instance $118 r0 *1 8.55,1.4
X$118 20 27 35 26 BUF_X1
* cell instance $120 m0 *1 11.02,4.2
X$120 32 21 27 35 39 XNOR2_X2
* cell instance $123 r0 *1 11.97,1.4
X$123 21 27 35 28 BUF_X1
* cell instance $125 m0 *1 12.92,4.2
X$125 33 27 35 22 BUF_X1
* cell instance $128 m0 *1 13.49,4.2
X$128 33 39 35 27 23 XNOR2_X1
* cell instance $130 r0 *1 14.63,1.4
X$130 23 27 35 29 BUF_X1
* cell instance $133 r0 *1 16.72,4.2
X$133 49 42 27 35 24 NAND2_X1
* cell instance $135 m0 *1 19,4.2
X$135 44 43 34 27 35 25 MUX2_X1
* cell instance $137 r0 *1 19.76,1.4
X$137 25 27 35 30 BUF_X1
* cell instance $151 r0 *1 1.9,15.4
X$151 76 27 35 68 BUF_X1
* cell instance $157 m0 *1 7.03,15.4
X$157 64 27 35 65 BUF_X1
* cell instance $159 m0 *1 11.4,15.4
X$159 65 68 35 27 56 XNOR2_X1
* cell instance $160 m0 *1 12.54,15.4
X$160 65 27 35 69 CLKBUF_X3
* cell instance $161 m0 *1 13.49,15.4
X$161 70 63 35 27 57 XNOR2_X1
* cell instance $164 m0 *1 16.34,15.4
X$164 72 70 27 35 50 XNOR2_X2
* cell instance $171 r0 *1 13.68,15.4
X$171 68 35 72 27 BUF_X4
* cell instance $175 r0 *1 18.62,15.4
X$175 70 27 35 77 CLKBUF_X3
* cell instance $176 m0 *1 19.95,15.4
X$176 58 59 72 35 73 27 OAI21_X1
* cell instance $177 m0 *1 19.38,15.4
X$177 63 27 35 66 INV_X2
* cell instance $178 m0 *1 20.71,15.4
X$178 54 59 27 35 71 NOR2_X2
* cell instance $183 r0 *1 20.52,15.4
X$183 73 74 77 27 35 81 NAND3_X1
* cell instance $187 r0 *1 22.61,15.4
X$187 54 61 74 27 35 82 NOR3_X1
* cell instance $189 r0 *1 23.56,15.4
X$189 82 83 77 35 90 27 OAI21_X1
* cell instance $191 m0 *1 23.56,15.4
X$191 69 55 63 27 83 35 AOI21_X1
* cell instance $194 r0 *1 24.51,15.4
X$194 83 66 71 27 89 35 AOI21_X1
* cell instance $197 m0 *1 25.65,15.4
X$197 55 62 66 27 35 67 NOR3_X1
* cell instance $201 r0 *1 25.46,15.4
X$201 69 54 66 27 75 35 AOI21_X1
* cell instance $203 r0 *1 26.41,15.4
X$203 67 75 77 35 84 27 OAI21_X1
* cell instance $215 m0 *1 14.63,23.8
X$215 99 55 35 27 124 XNOR2_X1
* cell instance $216 m0 *1 16.53,23.8
X$216 62 99 63 27 117 35 AOI21_X1
* cell instance $218 m0 *1 18.05,23.8
X$218 55 62 63 99 27 35 135 NAND4_X1
* cell instance $219 m0 *1 19,23.8
X$219 88 101 27 35 112 NOR2_X1
* cell instance $221 m0 *1 19.76,23.8
X$221 66 55 62 27 134 35 AOI21_X1
* cell instance $223 m0 *1 20.71,23.8
X$223 88 66 27 35 108 NOR2_X1
* cell instance $224 m0 *1 21.28,23.8
X$224 108 113 72 27 35 118 NOR3_X1
* cell instance $226 m0 *1 22.23,23.8
X$226 54 74 120 35 114 27 OAI21_X1
* cell instance $241 r0 *1 14.25,23.8
X$241 124 101 106 133 69 123 35 27 AOI221_X2
* cell instance $243 r0 *1 16.72,23.8
X$243 72 117 112 136 135 133 27 35 OAI221_X2
* cell instance $245 r0 *1 19,23.8
X$245 66 77 27 35 136 NAND2_X1
* cell instance $247 r0 *1 19.95,23.8
X$247 113 134 101 27 35 126 NOR3_X1
* cell instance $250 r0 *1 21.28,23.8
X$250 120 125 118 137 126 114 27 35 119 OAI33_X1
* cell instance $252 m0 *1 25.08,23.8
X$252 69 27 35 120 INV_X1
* cell instance $254 m0 *1 25.46,23.8
X$254 55 62 74 27 35 127 NAND3_X1
* cell instance $257 r0 *1 25.84,23.8
X$257 120 127 128 27 138 35 AOI21_X1
* cell instance $260 m0 *1 26.6,23.8
X$260 88 74 27 35 129 NAND2_X1
* cell instance $261 m0 *1 27.36,23.8
X$261 55 77 72 35 115 27 OAI21_X1
* cell instance $264 m0 *1 34.96,23.8
X$264 121 27 35 116 BUF_X1
* cell instance $266 r0 *1 26.79,23.8
X$266 69 128 129 27 139 35 AOI21_X1
* cell instance $268 r0 *1 27.93,23.8
X$268 115 139 110 72 109 138 27 35 121 OAI33_X1
* cell instance $273 r0 *1 34.39,23.8
X$273 121 27 35 140 BUF_X1
* cell instance $276 r0 *1 35.53,23.8
X$276 140 27 35 122 BUF_X1
* cell instance $311 r0 *1 13.11,32.2
X$311 123 27 35 130 BUF_X1
* cell instance $313 r0 *1 13.68,32.2
X$313 123 27 35 132 BUF_X1
* cell instance $363 r0 *1 13.49,26.6
X$363 131 27 35 63 CLKBUF_X3
* cell instance $369 m0 *1 20.71,26.6
X$369 63 27 35 74 CLKBUF_X3
* cell instance $390 r0 *1 15.58,9.8
X$390 60 61 53 27 35 49 MUX2_X1
* cell instance $392 m0 *1 17.1,9.8
X$392 55 50 35 27 42 XNOR2_X1
* cell instance $397 m0 *1 20.71,9.8
X$397 47 44 35 54 27 XOR2_X2
* cell instance $403 r0 *1 18.81,9.8
X$403 44 47 27 35 58 XNOR2_X2
* cell instance $404 r0 *1 20.71,9.8
X$404 36 44 35 59 27 XOR2_X2
* cell instance $405 r0 *1 22.42,9.8
X$405 44 36 27 35 61 XNOR2_X2
* cell instance $424 m0 *1 18.24,7
X$424 44 50 35 27 51 XNOR2_X1
* cell instance $425 m0 *1 16.91,7
X$425 47 49 51 27 35 52 MUX2_X1
* cell instance $444 m0 *1 13.49,35
X$444 130 27 35 141 BUF_X1
* cell instance $447 m0 *1 21.66,35
X$447 119 27 35 142 BUF_X1
* cell instance $471 r0 *1 16.72,18.2
X$471 63 70 27 35 91 NOR2_X1
* cell instance $473 m0 *1 20.14,18.2
X$473 58 62 63 35 78 27 OAI21_X1
* cell instance $474 m0 *1 19.19,18.2
X$474 58 61 27 35 88 NOR2_X2
* cell instance $478 m0 *1 23.37,18.2
X$478 69 61 90 35 87 27 OAI21_X1
* cell instance $481 m0 *1 25.84,18.2
X$481 77 89 84 62 69 35 27 80 OAI221_X1
* cell instance $482 m0 *1 26.98,18.2
X$482 75 74 88 27 85 35 AOI21_X1
* cell instance $483 m0 *1 27.74,18.2
X$483 85 77 72 35 79 27 OAI21_X1
* cell instance $487 r0 *1 22.23,18.2
X$487 54 62 74 35 92 27 OAI21_X1
* cell instance $490 m0 *1 29.07,18.2
X$490 79 87 72 80 35 27 86 OAI22_X1
* cell instance $493 m0 *1 34.58,18.2
X$493 86 27 35 95 BUF_X1
* cell instance $494 m0 *1 35.15,18.2
X$494 86 27 35 94 BUF_X1
* cell instance $501 r0 *1 34.96,18.2
X$501 95 27 35 93 BUF_X1
* cell instance $509 m0 *1 7.6,21
X$509 96 27 35 70 BUF_X2
* cell instance $520 r0 *1 15.01,21
X$520 70 27 35 99 INV_X2
* cell instance $522 m0 *1 15.77,21
X$522 72 27 35 101 INV_X1
* cell instance $523 m0 *1 16.15,21
X$523 61 91 27 35 97 OR2_X1
* cell instance $524 m0 *1 16.91,21
X$524 101 97 71 91 27 35 98 AOI22_X1
* cell instance $528 m0 *1 18.24,21
X$528 69 98 81 27 106 35 AOI21_X1
* cell instance $529 m0 *1 20.52,21
X$529 100 99 78 27 102 35 AOI21_X1
* cell instance $530 m0 *1 21.28,21
X$530 61 63 27 35 100 NOR2_X1
* cell instance $531 m0 *1 21.85,21
X$531 100 99 92 27 103 35 AOI21_X1
* cell instance $536 r0 *1 19.76,21
X$536 61 77 27 35 113 NOR2_X1
* cell instance $538 r0 *1 20.52,21
X$538 101 102 74 55 35 27 125 OAI22_X1
* cell instance $540 r0 *1 21.66,21
X$540 103 72 27 35 137 NOR2_X1
* cell instance $544 r0 *1 23.56,21
X$544 61 74 99 35 128 27 OAI21_X1
* cell instance $546 m0 *1 23.75,21
X$546 77 61 63 27 105 35 AOI21_X1
* cell instance $549 m0 *1 25.65,21
X$549 55 62 74 27 35 107 NOR3_X1
* cell instance $550 m0 *1 24.89,21
X$550 105 66 71 27 104 35 AOI21_X1
* cell instance $552 m0 *1 26.6,21
X$552 107 105 69 35 111 27 OAI21_X1
* cell instance $557 r0 *1 24.89,21
X$557 69 104 77 54 35 27 109 OAI22_X1
* cell instance $560 r0 *1 26.79,21
X$560 111 27 35 110 INV_X1
* cell instance $579 r0 *1 13.87,12.6
X$579 56 57 27 35 60 NOR2_X1
* cell instance $580 r0 *1 14.44,12.6
X$580 57 56 35 27 53 AND2_X1
* cell instance $583 m0 *1 16.15,12.6
X$583 60 62 53 27 35 43 MUX2_X1
* cell instance $590 r0 *1 19.57,12.6
X$590 58 35 55 27 BUF_X4
* cell instance $591 r0 *1 20.9,12.6
X$591 59 35 62 27 BUF_X4
* cell instance $603 m0 *1 8.74,4.2
X$603 31 27 35 45 BUF_X1
* cell instance $609 r0 *1 9.69,4.2
X$609 31 33 35 27 40 XNOR2_X1
* cell instance $610 m0 *1 10.45,4.2
X$610 32 27 35 37 BUF_X1
* cell instance $616 r0 *1 11.02,4.2
X$616 32 40 35 27 46 XNOR2_X1
* cell instance $618 r0 *1 12.54,4.2
X$618 46 27 35 41 BUF_X1
* cell instance $623 r0 *1 18.05,4.2
X$623 42 43 27 35 48 NAND2_X1
* cell instance $624 r0 *1 18.62,4.2
X$624 47 50 35 27 34 XNOR2_X1
* cell instance $628 m0 *1 20.9,4.2
X$628 36 48 35 27 38 XNOR2_X1
.ENDS hamming_code

* cell CLKBUF_X2
* pin A
* pin PWELL,VSS
* pin NWELL,VDD
* pin Z
.SUBCKT CLKBUF_X2 1 3 4 5
* net 1 A
* net 3 PWELL,VSS
* net 4 NWELL,VDD
* net 5 Z
* device instance $1 r0 *1 0.17,0.995 PMOS_VTL
M$1 4 1 2 4 PMOS_VTL L=0.05U W=0.63U AS=0.06615P AD=0.0441P PS=1.47U PD=0.77U
* device instance $2 r0 *1 0.36,0.995 PMOS_VTL
M$2 5 2 4 4 PMOS_VTL L=0.05U W=1.26U AS=0.0882P AD=0.11025P PS=1.54U PD=2.24U
* device instance $4 r0 *1 0.17,0.1875 NMOS_VTL
M$4 3 1 2 3 NMOS_VTL L=0.05U W=0.195U AS=0.020475P AD=0.01365P PS=0.6U PD=0.335U
* device instance $5 r0 *1 0.36,0.1875 NMOS_VTL
M$5 5 2 3 3 NMOS_VTL L=0.05U W=0.39U AS=0.0273P AD=0.034125P PS=0.67U PD=0.935U
.ENDS CLKBUF_X2

* cell XOR2_X2
* pin B
* pin A
* pin NWELL,VDD
* pin Z
* pin PWELL,VSS
.SUBCKT XOR2_X2 1 2 4 5 7
* net 1 B
* net 2 A
* net 4 NWELL,VDD
* net 5 Z
* net 7 PWELL,VSS
* device instance $1 r0 *1 0.2,0.995 PMOS_VTL
M$1 8 2 3 4 PMOS_VTL L=0.05U W=0.63U AS=0.06615P AD=0.0441P PS=1.47U PD=0.77U
* device instance $2 r0 *1 0.39,0.995 PMOS_VTL
M$2 4 1 8 4 PMOS_VTL L=0.05U W=0.63U AS=0.0441P AD=0.0441P PS=0.77U PD=0.77U
* device instance $3 r0 *1 0.58,0.995 PMOS_VTL
M$3 6 3 4 4 PMOS_VTL L=0.05U W=1.26U AS=0.0882P AD=0.11025P PS=1.54U PD=2.24U
* device instance $4 r0 *1 0.77,0.995 PMOS_VTL
M$4 5 2 6 4 PMOS_VTL L=0.05U W=1.26U AS=0.0882P AD=0.0882P PS=1.54U PD=1.54U
* device instance $5 r0 *1 0.96,0.995 PMOS_VTL
M$5 6 1 5 4 PMOS_VTL L=0.05U W=1.26U AS=0.0882P AD=0.0882P PS=1.54U PD=1.54U
* device instance $9 r0 *1 0.2,0.2975 NMOS_VTL
M$9 3 2 7 7 NMOS_VTL L=0.05U W=0.415U AS=0.043575P AD=0.02905P PS=1.04U
+ PD=0.555U
* device instance $10 r0 *1 0.39,0.2975 NMOS_VTL
M$10 7 1 3 7 NMOS_VTL L=0.05U W=0.415U AS=0.02905P AD=0.02905P PS=0.555U
+ PD=0.555U
* device instance $11 r0 *1 0.58,0.2975 NMOS_VTL
M$11 5 3 7 7 NMOS_VTL L=0.05U W=0.83U AS=0.0581P AD=0.072625P PS=1.11U PD=1.595U
* device instance $12 r0 *1 0.77,0.2975 NMOS_VTL
M$12 10 2 5 7 NMOS_VTL L=0.05U W=0.415U AS=0.02905P AD=0.02905P PS=0.555U
+ PD=0.555U
* device instance $13 r0 *1 0.96,0.2975 NMOS_VTL
M$13 7 1 10 7 NMOS_VTL L=0.05U W=0.415U AS=0.02905P AD=0.02905P PS=0.555U
+ PD=0.555U
* device instance $14 r0 *1 1.15,0.2975 NMOS_VTL
M$14 9 1 7 7 NMOS_VTL L=0.05U W=0.415U AS=0.02905P AD=0.02905P PS=0.555U
+ PD=0.555U
* device instance $15 r0 *1 1.34,0.2975 NMOS_VTL
M$15 5 2 9 7 NMOS_VTL L=0.05U W=0.415U AS=0.02905P AD=0.02905P PS=0.555U
+ PD=0.555U
.ENDS XOR2_X2

* cell BUF_X4
* pin A
* pin NWELL,VDD
* pin Z
* pin PWELL,VSS
.SUBCKT BUF_X4 1 3 4 5
* net 1 A
* net 3 NWELL,VDD
* net 4 Z
* net 5 PWELL,VSS
* device instance $1 r0 *1 0.17,0.995 PMOS_VTL
M$1 2 1 3 3 PMOS_VTL L=0.05U W=1.26U AS=0.11025P AD=0.0882P PS=2.24U PD=1.54U
* device instance $3 r0 *1 0.55,0.995 PMOS_VTL
M$3 4 2 3 3 PMOS_VTL L=0.05U W=2.52U AS=0.1764P AD=0.19845P PS=3.08U PD=3.78U
* device instance $7 r0 *1 0.17,0.2975 NMOS_VTL
M$7 2 1 5 5 NMOS_VTL L=0.05U W=0.83U AS=0.072625P AD=0.0581P PS=1.595U PD=1.11U
* device instance $9 r0 *1 0.55,0.2975 NMOS_VTL
M$9 4 2 5 5 NMOS_VTL L=0.05U W=1.66U AS=0.1162P AD=0.130725P PS=2.22U PD=2.705U
.ENDS BUF_X4

* cell AND2_X1
* pin A1
* pin A2
* pin NWELL,VDD
* pin PWELL,VSS
* pin ZN
.SUBCKT AND2_X1 1 2 4 5 6
* net 1 A1
* net 2 A2
* net 4 NWELL,VDD
* net 5 PWELL,VSS
* net 6 ZN
* device instance $1 r0 *1 0.17,1.1525 PMOS_VTL
M$1 3 1 4 4 PMOS_VTL L=0.05U W=0.315U AS=0.033075P AD=0.02205P PS=0.84U
+ PD=0.455U
* device instance $2 r0 *1 0.36,1.1525 PMOS_VTL
M$2 3 2 4 4 PMOS_VTL L=0.05U W=0.315U AS=0.033075P AD=0.02205P PS=0.77U
+ PD=0.455U
* device instance $3 r0 *1 0.55,0.995 PMOS_VTL
M$3 6 3 4 4 PMOS_VTL L=0.05U W=0.63U AS=0.033075P AD=0.06615P PS=0.77U PD=1.47U
* device instance $4 r0 *1 0.17,0.195 NMOS_VTL
M$4 7 1 3 5 NMOS_VTL L=0.05U W=0.21U AS=0.02205P AD=0.0147P PS=0.63U PD=0.35U
* device instance $5 r0 *1 0.36,0.195 NMOS_VTL
M$5 5 2 7 5 NMOS_VTL L=0.05U W=0.21U AS=0.0147P AD=0.021875P PS=0.35U PD=0.555U
* device instance $6 r0 *1 0.55,0.2975 NMOS_VTL
M$6 6 3 5 5 NMOS_VTL L=0.05U W=0.415U AS=0.021875P AD=0.043575P PS=0.555U
+ PD=1.04U
.ENDS AND2_X1

* cell MUX2_X1
* pin A
* pin S
* pin B
* pin PWELL,VSS
* pin NWELL,VDD
* pin Z
.SUBCKT MUX2_X1 1 2 3 5 6 8
* net 1 A
* net 2 S
* net 3 B
* net 5 PWELL,VSS
* net 6 NWELL,VDD
* net 8 Z
* device instance $1 r0 *1 0.17,1.1525 PMOS_VTL
M$1 6 2 4 6 PMOS_VTL L=0.05U W=0.315U AS=0.033075P AD=0.02205P PS=0.84U
+ PD=0.455U
* device instance $2 r0 *1 0.36,1.1525 PMOS_VTL
M$2 9 1 6 6 PMOS_VTL L=0.05U W=0.315U AS=0.02205P AD=0.02205P PS=0.455U
+ PD=0.455U
* device instance $3 r0 *1 0.55,1.1525 PMOS_VTL
M$3 7 2 9 6 PMOS_VTL L=0.05U W=0.315U AS=0.02205P AD=0.02205P PS=0.455U
+ PD=0.455U
* device instance $4 r0 *1 0.74,1.1525 PMOS_VTL
M$4 10 4 7 6 PMOS_VTL L=0.05U W=0.315U AS=0.02205P AD=0.02205P PS=0.455U
+ PD=0.455U
* device instance $5 r0 *1 0.93,1.1525 PMOS_VTL
M$5 10 3 6 6 PMOS_VTL L=0.05U W=0.315U AS=0.033075P AD=0.02205P PS=0.77U
+ PD=0.455U
* device instance $6 r0 *1 1.12,0.995 PMOS_VTL
M$6 8 7 6 6 PMOS_VTL L=0.05U W=0.63U AS=0.033075P AD=0.06615P PS=0.77U PD=1.47U
* device instance $7 r0 *1 0.17,0.195 NMOS_VTL
M$7 5 2 4 5 NMOS_VTL L=0.05U W=0.21U AS=0.02205P AD=0.0147P PS=0.63U PD=0.35U
* device instance $8 r0 *1 0.36,0.195 NMOS_VTL
M$8 12 1 5 5 NMOS_VTL L=0.05U W=0.21U AS=0.0147P AD=0.0147P PS=0.35U PD=0.35U
* device instance $9 r0 *1 0.55,0.195 NMOS_VTL
M$9 7 4 12 5 NMOS_VTL L=0.05U W=0.21U AS=0.0147P AD=0.0147P PS=0.35U PD=0.35U
* device instance $10 r0 *1 0.74,0.195 NMOS_VTL
M$10 11 2 7 5 NMOS_VTL L=0.05U W=0.21U AS=0.0147P AD=0.0147P PS=0.35U PD=0.35U
* device instance $11 r0 *1 0.93,0.195 NMOS_VTL
M$11 5 3 11 5 NMOS_VTL L=0.05U W=0.21U AS=0.0147P AD=0.021875P PS=0.35U
+ PD=0.555U
* device instance $12 r0 *1 1.12,0.2975 NMOS_VTL
M$12 8 7 5 5 NMOS_VTL L=0.05U W=0.415U AS=0.021875P AD=0.043575P PS=0.555U
+ PD=1.04U
.ENDS MUX2_X1

* cell BUF_X2
* pin A
* pin PWELL,VSS
* pin NWELL,VDD
* pin Z
.SUBCKT BUF_X2 1 3 4 5
* net 1 A
* net 3 PWELL,VSS
* net 4 NWELL,VDD
* net 5 Z
* device instance $1 r0 *1 0.21,0.995 PMOS_VTL
M$1 4 1 2 4 PMOS_VTL L=0.05U W=0.63U AS=0.06615P AD=0.0441P PS=1.47U PD=0.77U
* device instance $2 r0 *1 0.4,0.995 PMOS_VTL
M$2 5 2 4 4 PMOS_VTL L=0.05U W=1.26U AS=0.0882P AD=0.11025P PS=1.54U PD=2.24U
* device instance $4 r0 *1 0.21,0.2975 NMOS_VTL
M$4 3 1 2 3 NMOS_VTL L=0.05U W=0.415U AS=0.043575P AD=0.02905P PS=1.04U
+ PD=0.555U
* device instance $5 r0 *1 0.4,0.2975 NMOS_VTL
M$5 5 2 3 3 NMOS_VTL L=0.05U W=0.83U AS=0.0581P AD=0.072625P PS=1.11U PD=1.595U
.ENDS BUF_X2

* cell AOI221_X2
* pin B1
* pin B2
* pin A
* pin C2
* pin C1
* pin ZN
* pin NWELL,VDD
* pin PWELL,VSS
.SUBCKT AOI221_X2 1 2 3 4 5 6 8 9
* net 1 B1
* net 2 B2
* net 3 A
* net 4 C2
* net 5 C1
* net 6 ZN
* net 8 NWELL,VDD
* net 9 PWELL,VSS
* device instance $1 r0 *1 0.17,0.995 PMOS_VTL
M$1 7 3 10 8 PMOS_VTL L=0.05U W=1.26U AS=0.11025P AD=0.09135P PS=2.24U PD=1.55U
* device instance $2 r0 *1 0.36,0.995 PMOS_VTL
M$2 8 1 7 8 PMOS_VTL L=0.05U W=1.26U AS=0.0882P AD=0.0882P PS=1.54U PD=1.54U
* device instance $3 r0 *1 0.55,0.995 PMOS_VTL
M$3 7 2 8 8 PMOS_VTL L=0.05U W=1.26U AS=0.0882P AD=0.0882P PS=1.54U PD=1.54U
* device instance $7 r0 *1 1.32,0.995 PMOS_VTL
M$7 6 4 10 8 PMOS_VTL L=0.05U W=1.26U AS=0.09135P AD=0.11025P PS=1.55U PD=2.24U
* device instance $8 r0 *1 1.51,0.995 PMOS_VTL
M$8 10 5 6 8 PMOS_VTL L=0.05U W=1.26U AS=0.0882P AD=0.0882P PS=1.54U PD=1.54U
* device instance $11 r0 *1 0.17,0.2975 NMOS_VTL
M$11 6 3 9 9 NMOS_VTL L=0.05U W=0.83U AS=0.072625P AD=0.060175P PS=1.595U
+ PD=1.12U
* device instance $12 r0 *1 0.36,0.2975 NMOS_VTL
M$12 14 1 6 9 NMOS_VTL L=0.05U W=0.415U AS=0.02905P AD=0.02905P PS=0.555U
+ PD=0.555U
* device instance $13 r0 *1 0.55,0.2975 NMOS_VTL
M$13 9 2 14 9 NMOS_VTL L=0.05U W=0.415U AS=0.02905P AD=0.02905P PS=0.555U
+ PD=0.555U
* device instance $14 r0 *1 0.74,0.2975 NMOS_VTL
M$14 13 2 9 9 NMOS_VTL L=0.05U W=0.415U AS=0.02905P AD=0.02905P PS=0.555U
+ PD=0.555U
* device instance $15 r0 *1 0.93,0.2975 NMOS_VTL
M$15 6 1 13 9 NMOS_VTL L=0.05U W=0.415U AS=0.02905P AD=0.02905P PS=0.555U
+ PD=0.555U
* device instance $17 r0 *1 1.32,0.2975 NMOS_VTL
M$17 12 4 9 9 NMOS_VTL L=0.05U W=0.415U AS=0.031125P AD=0.02905P PS=0.565U
+ PD=0.555U
* device instance $18 r0 *1 1.51,0.2975 NMOS_VTL
M$18 6 5 12 9 NMOS_VTL L=0.05U W=0.415U AS=0.02905P AD=0.02905P PS=0.555U
+ PD=0.555U
* device instance $19 r0 *1 1.7,0.2975 NMOS_VTL
M$19 11 5 6 9 NMOS_VTL L=0.05U W=0.415U AS=0.02905P AD=0.02905P PS=0.555U
+ PD=0.555U
* device instance $20 r0 *1 1.89,0.2975 NMOS_VTL
M$20 9 4 11 9 NMOS_VTL L=0.05U W=0.415U AS=0.02905P AD=0.043575P PS=0.555U
+ PD=1.04U
.ENDS AOI221_X2

* cell AOI22_X1
* pin B2
* pin B1
* pin A1
* pin A2
* pin PWELL,VSS
* pin NWELL,VDD
* pin ZN
.SUBCKT AOI22_X1 1 2 3 4 5 7 8
* net 1 B2
* net 2 B1
* net 3 A1
* net 4 A2
* net 5 PWELL,VSS
* net 7 NWELL,VDD
* net 8 ZN
* device instance $1 r0 *1 0.185,0.995 PMOS_VTL
M$1 7 1 6 7 PMOS_VTL L=0.05U W=0.63U AS=0.06615P AD=0.0441P PS=1.47U PD=0.77U
* device instance $2 r0 *1 0.375,0.995 PMOS_VTL
M$2 6 2 7 7 PMOS_VTL L=0.05U W=0.63U AS=0.0441P AD=0.0441P PS=0.77U PD=0.77U
* device instance $3 r0 *1 0.565,0.995 PMOS_VTL
M$3 8 3 6 7 PMOS_VTL L=0.05U W=0.63U AS=0.0441P AD=0.0441P PS=0.77U PD=0.77U
* device instance $4 r0 *1 0.755,0.995 PMOS_VTL
M$4 6 4 8 7 PMOS_VTL L=0.05U W=0.63U AS=0.0441P AD=0.06615P PS=0.77U PD=1.47U
* device instance $5 r0 *1 0.185,0.2975 NMOS_VTL
M$5 10 1 5 5 NMOS_VTL L=0.05U W=0.415U AS=0.043575P AD=0.02905P PS=1.04U
+ PD=0.555U
* device instance $6 r0 *1 0.375,0.2975 NMOS_VTL
M$6 8 2 10 5 NMOS_VTL L=0.05U W=0.415U AS=0.02905P AD=0.02905P PS=0.555U
+ PD=0.555U
* device instance $7 r0 *1 0.565,0.2975 NMOS_VTL
M$7 9 3 8 5 NMOS_VTL L=0.05U W=0.415U AS=0.02905P AD=0.02905P PS=0.555U
+ PD=0.555U
* device instance $8 r0 *1 0.755,0.2975 NMOS_VTL
M$8 5 4 9 5 NMOS_VTL L=0.05U W=0.415U AS=0.02905P AD=0.043575P PS=0.555U
+ PD=1.04U
.ENDS AOI22_X1

* cell OR2_X1
* pin A1
* pin A2
* pin PWELL,VSS
* pin NWELL,VDD
* pin ZN
.SUBCKT OR2_X1 1 2 3 5 6
* net 1 A1
* net 2 A2
* net 3 PWELL,VSS
* net 5 NWELL,VDD
* net 6 ZN
* device instance $1 r0 *1 0.17,1.1525 PMOS_VTL
M$1 7 1 4 5 PMOS_VTL L=0.05U W=0.315U AS=0.033075P AD=0.02205P PS=0.84U
+ PD=0.455U
* device instance $2 r0 *1 0.36,1.1525 PMOS_VTL
M$2 7 2 5 5 PMOS_VTL L=0.05U W=0.315U AS=0.033075P AD=0.02205P PS=0.77U
+ PD=0.455U
* device instance $3 r0 *1 0.55,0.995 PMOS_VTL
M$3 6 4 5 5 PMOS_VTL L=0.05U W=0.63U AS=0.033075P AD=0.06615P PS=0.77U PD=1.47U
* device instance $4 r0 *1 0.17,0.195 NMOS_VTL
M$4 4 1 3 3 NMOS_VTL L=0.05U W=0.21U AS=0.02205P AD=0.0147P PS=0.63U PD=0.35U
* device instance $5 r0 *1 0.36,0.195 NMOS_VTL
M$5 3 2 4 3 NMOS_VTL L=0.05U W=0.21U AS=0.0147P AD=0.021875P PS=0.35U PD=0.555U
* device instance $6 r0 *1 0.55,0.2975 NMOS_VTL
M$6 6 4 3 3 NMOS_VTL L=0.05U W=0.415U AS=0.021875P AD=0.043575P PS=0.555U
+ PD=1.04U
.ENDS OR2_X1

* cell INV_X2
* pin A
* pin PWELL,VSS
* pin NWELL,VDD
* pin ZN
.SUBCKT INV_X2 1 2 3 4
* net 1 A
* net 2 PWELL,VSS
* net 3 NWELL,VDD
* net 4 ZN
* device instance $1 r0 *1 0.185,0.995 PMOS_VTL
M$1 4 1 3 3 PMOS_VTL L=0.05U W=1.26U AS=0.11025P AD=0.11025P PS=2.24U PD=2.24U
* device instance $3 r0 *1 0.185,0.2975 NMOS_VTL
M$3 4 1 2 2 NMOS_VTL L=0.05U W=0.83U AS=0.072625P AD=0.072625P PS=1.595U
+ PD=1.595U
.ENDS INV_X2

* cell NAND3_X1
* pin A3
* pin A2
* pin A1
* pin PWELL,VSS
* pin NWELL,VDD
* pin ZN
.SUBCKT NAND3_X1 1 2 3 4 5 6
* net 1 A3
* net 2 A2
* net 3 A1
* net 4 PWELL,VSS
* net 5 NWELL,VDD
* net 6 ZN
* device instance $1 r0 *1 0.17,0.995 PMOS_VTL
M$1 6 1 5 5 PMOS_VTL L=0.05U W=0.63U AS=0.06615P AD=0.0441P PS=1.47U PD=0.77U
* device instance $2 r0 *1 0.36,0.995 PMOS_VTL
M$2 5 2 6 5 PMOS_VTL L=0.05U W=0.63U AS=0.0441P AD=0.0441P PS=0.77U PD=0.77U
* device instance $3 r0 *1 0.55,0.995 PMOS_VTL
M$3 6 3 5 5 PMOS_VTL L=0.05U W=0.63U AS=0.0441P AD=0.06615P PS=0.77U PD=1.47U
* device instance $4 r0 *1 0.17,0.2975 NMOS_VTL
M$4 8 1 4 4 NMOS_VTL L=0.05U W=0.415U AS=0.043575P AD=0.02905P PS=1.04U
+ PD=0.555U
* device instance $5 r0 *1 0.36,0.2975 NMOS_VTL
M$5 7 2 8 4 NMOS_VTL L=0.05U W=0.415U AS=0.02905P AD=0.02905P PS=0.555U
+ PD=0.555U
* device instance $6 r0 *1 0.55,0.2975 NMOS_VTL
M$6 6 3 7 4 NMOS_VTL L=0.05U W=0.415U AS=0.02905P AD=0.043575P PS=0.555U
+ PD=1.04U
.ENDS NAND3_X1

* cell OAI33_X1
* pin B3
* pin B2
* pin B1
* pin A1
* pin A2
* pin A3
* pin PWELL,VSS
* pin NWELL,VDD
* pin ZN
.SUBCKT OAI33_X1 1 2 3 4 5 6 7 8 10
* net 1 B3
* net 2 B2
* net 3 B1
* net 4 A1
* net 5 A2
* net 6 A3
* net 7 PWELL,VSS
* net 8 NWELL,VDD
* net 10 ZN
* device instance $1 r0 *1 0.185,0.995 PMOS_VTL
M$1 14 1 8 8 PMOS_VTL L=0.05U W=0.63U AS=0.06615P AD=0.0441P PS=1.47U PD=0.77U
* device instance $2 r0 *1 0.375,0.995 PMOS_VTL
M$2 13 2 14 8 PMOS_VTL L=0.05U W=0.63U AS=0.0441P AD=0.0441P PS=0.77U PD=0.77U
* device instance $3 r0 *1 0.565,0.995 PMOS_VTL
M$3 10 3 13 8 PMOS_VTL L=0.05U W=0.63U AS=0.0441P AD=0.0441P PS=0.77U PD=0.77U
* device instance $4 r0 *1 0.755,0.995 PMOS_VTL
M$4 12 4 10 8 PMOS_VTL L=0.05U W=0.63U AS=0.0441P AD=0.0441P PS=0.77U PD=0.77U
* device instance $5 r0 *1 0.945,0.995 PMOS_VTL
M$5 11 5 12 8 PMOS_VTL L=0.05U W=0.63U AS=0.0441P AD=0.0441P PS=0.77U PD=0.77U
* device instance $6 r0 *1 1.135,0.995 PMOS_VTL
M$6 8 6 11 8 PMOS_VTL L=0.05U W=0.63U AS=0.0441P AD=0.06615P PS=0.77U PD=1.47U
* device instance $7 r0 *1 0.185,0.2975 NMOS_VTL
M$7 9 1 7 7 NMOS_VTL L=0.05U W=0.415U AS=0.043575P AD=0.02905P PS=1.04U
+ PD=0.555U
* device instance $8 r0 *1 0.375,0.2975 NMOS_VTL
M$8 7 2 9 7 NMOS_VTL L=0.05U W=0.415U AS=0.02905P AD=0.02905P PS=0.555U
+ PD=0.555U
* device instance $9 r0 *1 0.565,0.2975 NMOS_VTL
M$9 9 3 7 7 NMOS_VTL L=0.05U W=0.415U AS=0.02905P AD=0.02905P PS=0.555U
+ PD=0.555U
* device instance $10 r0 *1 0.755,0.2975 NMOS_VTL
M$10 10 4 9 7 NMOS_VTL L=0.05U W=0.415U AS=0.02905P AD=0.02905P PS=0.555U
+ PD=0.555U
* device instance $11 r0 *1 0.945,0.2975 NMOS_VTL
M$11 9 5 10 7 NMOS_VTL L=0.05U W=0.415U AS=0.02905P AD=0.02905P PS=0.555U
+ PD=0.555U
* device instance $12 r0 *1 1.135,0.2975 NMOS_VTL
M$12 10 6 9 7 NMOS_VTL L=0.05U W=0.415U AS=0.02905P AD=0.043575P PS=0.555U
+ PD=1.04U
.ENDS OAI33_X1

* cell NOR3_X1
* pin A3
* pin A2
* pin A1
* pin PWELL,VSS
* pin NWELL,VDD
* pin ZN
.SUBCKT NOR3_X1 1 2 3 4 5 6
* net 1 A3
* net 2 A2
* net 3 A1
* net 4 PWELL,VSS
* net 5 NWELL,VDD
* net 6 ZN
* device instance $1 r0 *1 0.17,0.995 PMOS_VTL
M$1 8 1 5 5 PMOS_VTL L=0.05U W=0.63U AS=0.06615P AD=0.0441P PS=1.47U PD=0.77U
* device instance $2 r0 *1 0.36,0.995 PMOS_VTL
M$2 7 2 8 5 PMOS_VTL L=0.05U W=0.63U AS=0.0441P AD=0.0441P PS=0.77U PD=0.77U
* device instance $3 r0 *1 0.55,0.995 PMOS_VTL
M$3 6 3 7 5 PMOS_VTL L=0.05U W=0.63U AS=0.0441P AD=0.06615P PS=0.77U PD=1.47U
* device instance $4 r0 *1 0.17,0.2975 NMOS_VTL
M$4 6 1 4 4 NMOS_VTL L=0.05U W=0.415U AS=0.043575P AD=0.02905P PS=1.04U
+ PD=0.555U
* device instance $5 r0 *1 0.36,0.2975 NMOS_VTL
M$5 4 2 6 4 NMOS_VTL L=0.05U W=0.415U AS=0.02905P AD=0.02905P PS=0.555U
+ PD=0.555U
* device instance $6 r0 *1 0.55,0.2975 NMOS_VTL
M$6 6 3 4 4 NMOS_VTL L=0.05U W=0.415U AS=0.02905P AD=0.043575P PS=0.555U
+ PD=1.04U
.ENDS NOR3_X1

* cell INV_X1
* pin A
* pin PWELL,VSS
* pin NWELL,VDD
* pin ZN
.SUBCKT INV_X1 1 2 3 4
* net 1 A
* net 2 PWELL,VSS
* net 3 NWELL,VDD
* net 4 ZN
* device instance $1 r0 *1 0.17,0.995 PMOS_VTL
M$1 4 1 3 3 PMOS_VTL L=0.05U W=0.63U AS=0.06615P AD=0.06615P PS=1.47U PD=1.47U
* device instance $2 r0 *1 0.17,0.2975 NMOS_VTL
M$2 4 1 2 2 NMOS_VTL L=0.05U W=0.415U AS=0.043575P AD=0.043575P PS=1.04U
+ PD=1.04U
.ENDS INV_X1

* cell BUF_X1
* pin A
* pin PWELL,VSS
* pin NWELL,VDD
* pin Z
.SUBCKT BUF_X1 1 3 4 5
* net 1 A
* net 3 PWELL,VSS
* net 4 NWELL,VDD
* net 5 Z
* device instance $1 r0 *1 0.17,1.1525 PMOS_VTL
M$1 2 1 4 4 PMOS_VTL L=0.05U W=0.315U AS=0.033075P AD=0.033075P PS=0.77U
+ PD=0.84U
* device instance $2 r0 *1 0.36,0.995 PMOS_VTL
M$2 5 2 4 4 PMOS_VTL L=0.05U W=0.63U AS=0.033075P AD=0.06615P PS=0.77U PD=1.47U
* device instance $3 r0 *1 0.17,0.195 NMOS_VTL
M$3 3 1 2 3 NMOS_VTL L=0.05U W=0.21U AS=0.02205P AD=0.021875P PS=0.63U PD=0.555U
* device instance $4 r0 *1 0.36,0.2975 NMOS_VTL
M$4 5 2 3 3 NMOS_VTL L=0.05U W=0.415U AS=0.021875P AD=0.043575P PS=0.555U
+ PD=1.04U
.ENDS BUF_X1

* cell OAI221_X2
* pin C2
* pin C1
* pin B1
* pin B2
* pin A
* pin ZN
* pin PWELL,VSS
* pin NWELL,VDD
.SUBCKT OAI221_X2 1 2 3 4 5 7 9 10
* net 1 C2
* net 2 C1
* net 3 B1
* net 4 B2
* net 5 A
* net 7 ZN
* net 9 PWELL,VSS
* net 10 NWELL,VDD
* device instance $1 r0 *1 0.21,0.995 PMOS_VTL
M$1 12 1 10 10 PMOS_VTL L=0.05U W=0.63U AS=0.06615P AD=0.0441P PS=1.47U PD=0.77U
* device instance $2 r0 *1 0.4,0.995 PMOS_VTL
M$2 7 2 12 10 PMOS_VTL L=0.05U W=0.63U AS=0.0441P AD=0.0441P PS=0.77U PD=0.77U
* device instance $3 r0 *1 0.59,0.995 PMOS_VTL
M$3 11 2 7 10 PMOS_VTL L=0.05U W=0.63U AS=0.0441P AD=0.0441P PS=0.77U PD=0.77U
* device instance $4 r0 *1 0.78,0.995 PMOS_VTL
M$4 10 1 11 10 PMOS_VTL L=0.05U W=0.63U AS=0.0441P AD=0.0441P PS=0.77U PD=0.77U
* device instance $5 r0 *1 0.97,0.995 PMOS_VTL
M$5 7 5 10 10 PMOS_VTL L=0.05U W=1.26U AS=0.0882P AD=0.11025P PS=1.54U PD=2.24U
* device instance $6 r0 *1 1.16,0.995 PMOS_VTL
M$6 14 3 7 10 PMOS_VTL L=0.05U W=0.63U AS=0.0441P AD=0.0441P PS=0.77U PD=0.77U
* device instance $7 r0 *1 1.35,0.995 PMOS_VTL
M$7 10 4 14 10 PMOS_VTL L=0.05U W=0.63U AS=0.0441P AD=0.0441P PS=0.77U PD=0.77U
* device instance $8 r0 *1 1.54,0.995 PMOS_VTL
M$8 13 4 10 10 PMOS_VTL L=0.05U W=0.63U AS=0.0441P AD=0.0441P PS=0.77U PD=0.77U
* device instance $9 r0 *1 1.73,0.995 PMOS_VTL
M$9 7 3 13 10 PMOS_VTL L=0.05U W=0.63U AS=0.0441P AD=0.0441P PS=0.77U PD=0.77U
* device instance $11 r0 *1 0.21,0.2975 NMOS_VTL
M$11 7 1 6 9 NMOS_VTL L=0.05U W=0.83U AS=0.072625P AD=0.0581P PS=1.595U PD=1.11U
* device instance $12 r0 *1 0.4,0.2975 NMOS_VTL
M$12 6 2 7 9 NMOS_VTL L=0.05U W=0.83U AS=0.0581P AD=0.0581P PS=1.11U PD=1.11U
* device instance $15 r0 *1 0.97,0.2975 NMOS_VTL
M$15 8 5 6 9 NMOS_VTL L=0.05U W=0.83U AS=0.0581P AD=0.072625P PS=1.11U PD=1.595U
* device instance $16 r0 *1 1.16,0.2975 NMOS_VTL
M$16 9 3 8 9 NMOS_VTL L=0.05U W=0.83U AS=0.0581P AD=0.0581P PS=1.11U PD=1.11U
* device instance $17 r0 *1 1.35,0.2975 NMOS_VTL
M$17 8 4 9 9 NMOS_VTL L=0.05U W=0.83U AS=0.0581P AD=0.0581P PS=1.11U PD=1.11U
.ENDS OAI221_X2

* cell NAND4_X1
* pin A4
* pin A3
* pin A2
* pin A1
* pin PWELL,VSS
* pin NWELL,VDD
* pin ZN
.SUBCKT NAND4_X1 1 2 3 4 5 6 7
* net 1 A4
* net 2 A3
* net 3 A2
* net 4 A1
* net 5 PWELL,VSS
* net 6 NWELL,VDD
* net 7 ZN
* device instance $1 r0 *1 0.17,0.995 PMOS_VTL
M$1 7 1 6 6 PMOS_VTL L=0.05U W=0.63U AS=0.06615P AD=0.0441P PS=1.47U PD=0.77U
* device instance $2 r0 *1 0.36,0.995 PMOS_VTL
M$2 6 2 7 6 PMOS_VTL L=0.05U W=0.63U AS=0.0441P AD=0.0441P PS=0.77U PD=0.77U
* device instance $3 r0 *1 0.55,0.995 PMOS_VTL
M$3 7 3 6 6 PMOS_VTL L=0.05U W=0.63U AS=0.0441P AD=0.0441P PS=0.77U PD=0.77U
* device instance $4 r0 *1 0.74,0.995 PMOS_VTL
M$4 6 4 7 6 PMOS_VTL L=0.05U W=0.63U AS=0.0441P AD=0.06615P PS=0.77U PD=1.47U
* device instance $5 r0 *1 0.17,0.2975 NMOS_VTL
M$5 10 1 5 5 NMOS_VTL L=0.05U W=0.415U AS=0.043575P AD=0.02905P PS=1.04U
+ PD=0.555U
* device instance $6 r0 *1 0.36,0.2975 NMOS_VTL
M$6 9 2 10 5 NMOS_VTL L=0.05U W=0.415U AS=0.02905P AD=0.02905P PS=0.555U
+ PD=0.555U
* device instance $7 r0 *1 0.55,0.2975 NMOS_VTL
M$7 8 3 9 5 NMOS_VTL L=0.05U W=0.415U AS=0.02905P AD=0.02905P PS=0.555U
+ PD=0.555U
* device instance $8 r0 *1 0.74,0.2975 NMOS_VTL
M$8 7 4 8 5 NMOS_VTL L=0.05U W=0.415U AS=0.02905P AD=0.043575P PS=0.555U
+ PD=1.04U
.ENDS NAND4_X1

* cell OAI221_X1
* pin B2
* pin B1
* pin A
* pin C2
* pin C1
* pin NWELL,VDD
* pin PWELL,VSS
* pin ZN
.SUBCKT OAI221_X1 1 2 3 4 5 7 8 9
* net 1 B2
* net 2 B1
* net 3 A
* net 4 C2
* net 5 C1
* net 7 NWELL,VDD
* net 8 PWELL,VSS
* net 9 ZN
* device instance $1 r0 *1 0.17,0.995 PMOS_VTL
M$1 12 1 7 7 PMOS_VTL L=0.05U W=0.63U AS=0.06615P AD=0.0441P PS=1.47U PD=0.77U
* device instance $2 r0 *1 0.36,0.995 PMOS_VTL