
* cell final_spi_master
* pin tx_data[1]
* pin tx_data[2]
* pin tx_data[3]
* pin rx_data[7]
* pin tx_data[4]
* pin tx_data[5]
* pin tx_data[6]
* pin tx_data[7]
* pin spi_mosi
* pin rst_n
* pin tx_data[0]
* pin spi_cs_n
* pin tx_ready
* pin tx_valid
* pin rx_valid
* pin rx_data[1]
* pin rx_data[5]
* pin clk
* pin spi_clk
* pin rx_data[6]
* pin rx_data[2]
* pin spi_miso
* pin rx_data[4]
* pin rx_data[0]
* pin rx_data[3]
.SUBCKT final_spi_master 1 2 3 4 5 6 7 8 40 58 60 74 75 83 86 89 98 134 153 157
+ 158 175 209 215 216
* net 1 tx_data[1]
* net 2 tx_data[2]
* net 3 tx_data[3]
* net 4 rx_data[7]
* net 5 tx_data[4]
* net 6 tx_data[5]
* net 7 tx_data[6]
* net 8 tx_data[7]
* net 40 spi_mosi
* net 58 rst_n
* net 60 tx_data[0]
* net 74 spi_cs_n
* net 75 tx_ready
* net 83 tx_valid
* net 86 rx_valid
* net 89 rx_data[1]
* net 98 rx_data[5]
* net 134 clk
* net 153 spi_clk
* net 157 rx_data[6]
* net 158 rx_data[2]
* net 175 spi_miso
* net 209 rx_data[4]
* net 215 rx_data[0]
* net 216 rx_data[3]
* cell instance $2 r0 *1 21.16,2.72
X$2 15 1 49 9 15 9 sky130_fd_sc_hd__clkbuf_1
* cell instance $5 r0 *1 24.84,2.72
X$5 15 2 23 9 15 9 sky130_fd_sc_hd__clkbuf_1
* cell instance $8 r0 *1 30.36,2.72
X$8 15 3 11 9 15 9 sky130_fd_sc_hd__clkbuf_1
* cell instance $11 m0 *1 34.96,8.16
X$11 15 64 4 9 15 9 sky130_fd_sc_hd__clkbuf_1
* cell instance $15 r0 *1 39.1,2.72
X$15 15 5 45 9 15 9 sky130_fd_sc_hd__clkbuf_1
* cell instance $18 r0 *1 43.7,2.72
X$18 15 6 12 9 15 9 sky130_fd_sc_hd__clkbuf_1
* cell instance $21 r0 *1 48.3,2.72
X$21 15 7 10 9 15 9 sky130_fd_sc_hd__clkbuf_1
* cell instance $23 r0 *1 49.68,2.72
X$23 15 8 56 9 15 9 sky130_fd_sc_hd__clkbuf_1
* cell instance $69 m0 *1 15.64,8.16
X$69 9 27 22 16 20 15 15 9 sky130_fd_sc_hd__dfrtp_1
* cell instance $70 m0 *1 24.84,8.16
X$70 9 33 23 22 17 15 15 9 sky130_fd_sc_hd__mux2i_1
* cell instance $74 m0 *1 31.28,8.16
X$74 9 34 11 24 17 15 15 9 sky130_fd_sc_hd__mux2i_1
* cell instance $75 m0 *1 36.34,8.16
X$75 9 27 21 13 53 15 15 9 sky130_fd_sc_hd__dfrtp_1
* cell instance $78 m0 *1 45.54,8.16
X$78 15 14 26 38 9 15 35 9 sky130_fd_sc_hd__a21oi_1
* cell instance $80 m0 *1 47.84,8.16
X$80 15 19 18 14 9 15 9 sky130_fd_sc_hd__nor2_1
* cell instance $82 m0 *1 49.68,8.16
X$82 9 39 10 19 17 15 15 9 sky130_fd_sc_hd__mux2i_1
* cell instance $83 m0 *1 53.36,8.16
X$83 15 28 18 55 9 15 9 sky130_fd_sc_hd__nor2_1
* cell instance $86 m0 *1 57.04,8.16
X$86 9 27 29 13 31 15 15 9 sky130_fd_sc_hd__dfrtp_1
* cell instance $93 r0 *1 11.96,8.16
X$93 15 25 26 41 15 42 9 9 sky130_fd_sc_hd__o21ai_0
* cell instance $94 r0 *1 13.8,8.16
X$94 15 36 15 9 25 9 sky130_fd_sc_hd__inv_1
* cell instance $99 r0 *1 17.48,8.16
X$99 15 30 26 48 9 15 20 9 sky130_fd_sc_hd__a21oi_1
* cell instance $100 r0 *1 19.32,8.16
X$100 15 22 26 30 9 15 9 sky130_fd_sc_hd__nor2_1
* cell instance $101 r0 *1 20.7,8.16
X$101 9 27 24 16 32 15 15 9 sky130_fd_sc_hd__dfrtp_1
* cell instance $102 r0 *1 29.9,8.16
X$102 9 27 37 16 50 15 15 9 sky130_fd_sc_hd__dfrtp_1
* cell instance $103 r0 *1 39.1,8.16
X$103 9 46 45 37 17 15 15 9 sky130_fd_sc_hd__mux2i_1
* cell instance $108 r0 *1 43.7,8.16
X$108 9 27 19 13 35 15 15 9 sky130_fd_sc_hd__dfrtp_1
* cell instance $109 r0 *1 52.9,8.16
X$109 9 27 28 13 44 15 15 9 sky130_fd_sc_hd__dfrtp_1
* cell instance $110 r0 *1 62.1,8.16
X$110 15 29 26 43 9 15 9 sky130_fd_sc_hd__nor2_1
* cell instance $112 r0 *1 65.32,8.16
X$112 15 29 40 9 15 9 sky130_fd_sc_hd__clkbuf_1
* cell instance $120 m0 *1 11.96,13.6
X$120 9 27 36 16 42 15 15 9 sky130_fd_sc_hd__dfrtp_1
* cell instance $121 m0 *1 21.16,13.6
X$121 9 48 49 36 17 15 15 9 sky130_fd_sc_hd__mux2i_1
* cell instance $122 m0 *1 24.84,13.6
X$122 15 51 26 33 9 15 32 9 sky130_fd_sc_hd__a21oi_1
* cell instance $124 m0 *1 27.6,13.6
X$124 15 24 18 51 9 15 9 sky130_fd_sc_hd__nor2_1
* cell instance $128 m0 *1 30.82,13.6
X$128 15 52 26 34 9 15 50 9 sky130_fd_sc_hd__a21oi_1
* cell instance $130 m0 *1 36.34,13.6
X$130 15 37 18 52 9 15 9 sky130_fd_sc_hd__nor2_1
* cell instance $131 m0 *1 37.72,13.6
X$131 15 54 26 46 9 15 53 9 sky130_fd_sc_hd__a21oi_1
* cell instance $132 m0 *1 39.56,13.6
X$132 15 21 18 54 9 15 9 sky130_fd_sc_hd__nor2_1
* cell instance $134 m0 *1 41.86,13.6
X$134 15 18 9 26 15 9 sky130_fd_sc_hd__buf_2
* cell instance $135 m0 *1 43.7,13.6
X$135 9 38 12 21 17 15 15 9 sky130_fd_sc_hd__mux2i_1
* cell instance $138 m0 *1 49.68,13.6
X$138 9 47 56 28 17 15 15 9 sky130_fd_sc_hd__mux2i_1
* cell instance $139 m0 *1 53.36,13.6
X$139 15 55 26 39 9 15 44 9 sky130_fd_sc_hd__a21oi_1
* cell instance $144 m0 *1 58.88,13.6
X$144 15 43 26 47 9 15 31 9 sky130_fd_sc_hd__a21oi_1
* cell instance $150 m0 *1 2.3,19.04
X$150 9 61 63 16 62 15 15 9 sky130_fd_sc_hd__dfstp_1
* cell instance $153 r0 *1 4.6,13.6
X$153 15 60 57 9 15 9 sky130_fd_sc_hd__clkbuf_1
* cell instance $154 r0 *1 5.98,13.6
X$154 9 61 27 15 15 9 sky130_fd_sc_hd__buf_12
* cell instance $155 m0 *1 11.96,19.04
X$155 15 66 57 65 41 15 9 9 sky130_fd_sc_hd__nand3_1
* cell instance $165 m0 *1 19.32,19.04
X$165 15 16 221 9 15 9 sky130_fd_sc_hd__clkbuf_1
* cell instance $166 m0 *1 20.7,19.04
X$166 9 59 16 15 15 9 sky130_fd_sc_hd__clkbuf_8
* cell instance $168 r0 *1 24.84,13.6
X$168 15 73 9 17 15 9 sky130_fd_sc_hd__clkbuf_4
* cell instance $174 m0 *1 29.44,19.04
X$174 9 27 64 16 72 15 15 9 sky130_fd_sc_hd__dfrtp_1
* cell instance $204 r0 *1 2.3,19.04
X$204 9 61 80 16 79 15 15 9 sky130_fd_sc_hd__dfstp_1
* cell instance $205 r0 *1 11.96,19.04
X$205 15 66 71 81 15 62 9 9 sky130_fd_sc_hd__o21ai_0
* cell instance $206 r0 *1 13.8,19.04
X$206 15 63 71 81 15 9 9 sky130_fd_sc_hd__nand2_1
* cell instance $210 r0 *1 17.48,19.04
X$210 15 68 67 88 9 15 9 sky130_fd_sc_hd__or2_0
* cell instance $212 r0 *1 23.46,19.04
X$212 15 67 68 73 9 15 9 sky130_fd_sc_hd__nor2b_1
* cell instance $213 r0 *1 25.76,19.04
X$213 15 67 68 76 9 15 9 sky130_fd_sc_hd__nand2b_1
* cell instance $216 r0 *1 32.2,19.04
X$216 9 72 64 70 76 15 15 9 sky130_fd_sc_hd__mux2_1
* cell instance $226 r0 *1 54.74,19.04
X$226 15 69 15 9 78 9 sky130_fd_sc_hd__inv_1
* cell instance $227 r0 *1 56.12,19.04
X$227 9 27 77 13 78 15 15 9 sky130_fd_sc_hd__dfrtp_1
* cell instance $234 m0 *1 1.38,24.48
X$234 9 61 84 15 15 9 sky130_fd_sc_hd__dlymetal6s2s_1
* cell instance $237 m0 *1 7.36,24.48
X$237 15 63 75 9 15 9 sky130_fd_sc_hd__clkbuf_1
* cell instance $239 m0 *1 9.2,24.48
X$239 15 90 66 65 9 15 79 9 sky130_fd_sc_hd__a21oi_1
* cell instance $243 m0 *1 14.26,24.48
X$243 15 66 68 85 9 15 9 sky130_fd_sc_hd__nand2b_1
* cell instance $246 m0 *1 18.86,24.48
X$246 15 88 15 9 71 9 sky130_fd_sc_hd__clkbuf_2
* cell instance $247 m0 *1 20.7,24.48
X$247 15 67 85 99 9 15 82 9 sky130_fd_sc_hd__a21oi_1
* cell instance $249 m0 *1 23,24.48
X$249 15 85 67 87 15 18 9 9 sky130_fd_sc_hd__a21oi_2
* cell instance $256 m0 *1 35.42,24.48
X$256 15 76 9 69 15 9 sky130_fd_sc_hd__clkbuf_4
* cell instance $260 m0 *1 44.16,24.48
X$260 9 27 108 13 113 15 15 9 sky130_fd_sc_hd__dfrtp_1
* cell instance $265 m0 *1 57.04,24.48
X$265 9 27 91 13 93 15 15 9 sky130_fd_sc_hd__dfrtp_1
* cell instance $267 r0 *1 1.38,24.48
X$267 15 58 15 84 9 9 sky130_fd_sc_hd__dlygate4sd3_1
* cell instance $269 r0 *1 5.98,24.48
X$269 15 83 66 9 15 9 sky130_fd_sc_hd__clkbuf_1
* cell instance $271 r0 *1 8.28,24.48
X$271 15 80 68 90 9 15 9 sky130_fd_sc_hd__nor2b_1
* cell instance $272 r0 *1 10.58,24.48
X$272 15 67 68 65 9 15 9 sky130_fd_sc_hd__nor2_1
* cell instance $280 r0 *1 15.64,24.48
X$280 9 27 125 16 82 15 15 9 sky130_fd_sc_hd__dfrtp_1
* cell instance $282 r0 *1 28.52,24.48
X$282 9 27 70 16 100 15 15 9 sky130_fd_sc_hd__dfrtp_1
* cell instance $291 r0 *1 43.7,24.48
X$291 9 27 107 13 101 15 15 9 sky130_fd_sc_hd__dfrtp_1
* cell instance $292 r0 *1 52.9,24.48
X$292 15 13 222 9 15 9 sky130_fd_sc_hd__clkbuf_1
* cell instance $295 r0 *1 55.66,24.48
X$295 9 27 97 13 92 15 15 9 sky130_fd_sc_hd__dfrtp_1
* cell instance $297 r0 *1 65.32,24.48
X$297 15 77 86 9 15 9 sky130_fd_sc_hd__clkbuf_1
* cell instance $301 m0 *1 4.6,29.92
X$301 15 80 74 9 15 9 sky130_fd_sc_hd__clkbuf_1
* cell instance $303 m0 *1 6.9,29.92
X$303 9 27 116 115 112 15 15 9 sky130_fd_sc_hd__dfrtp_4
* cell instance $306 m0 *1 22.08,29.92
X$306 15 102 117 68 15 99 9 9 sky130_fd_sc_hd__o21ai_0
* cell instance $307 m0 *1 23.92,29.92
X$307 15 68 102 114 87 15 9 9 sky130_fd_sc_hd__nand3_1
* cell instance $315 m0 *1 32.66,29.92
X$315 9 100 71 70 104 103 94 15 15 9 sky130_fd_sc_hd__a32o_1
* cell instance $316 m0 *1 36.34,29.92
X$316 15 105 104 103 15 9 9 sky130_fd_sc_hd__nand2_1
* cell instance $319 m0 *1 40.48,29.92
X$319 9 101 94 106 95 96 15 15 9 sky130_fd_sc_hd__a31o_1
* cell instance $320 m0 *1 43.7,29.92
X$320 15 106 105 95 109 9 15 96 9 sky130_fd_sc_hd__a31oi_1
* cell instance $322 m0 *1 46.92,29.92
X$322 9 59 13 15 15 9 sky130_fd_sc_hd__clkbuf_8
* cell instance $324 m0 *1 52.44,29.92
X$324 9 92 97 108 69 15 15 9 sky130_fd_sc_hd__mux2_1
* cell instance $327 m0 *1 57.96,29.92
X$327 9 93 91 107 69 15 15 9 sky130_fd_sc_hd__mux2_1
* cell instance $329 m0 *1 63.94,29.92
X$329 15 97 98 9 15 9 sky130_fd_sc_hd__clkbuf_1
* cell instance $330 m0 *1 65.32,29.92
X$330 15 91 89 9 15 9 sky130_fd_sc_hd__clkbuf_1
* cell instance $333 r0 *1 8.74,29.92
X$333 15 65 122 112 9 15 9 sky130_fd_sc_hd__nor2_1
* cell instance $337 r0 *1 13.34,29.92
X$337 15 67 102 123 9 15 9 sky130_fd_sc_hd__nor2_1
* cell instance $342 r0 *1 19.32,29.92
X$342 15 124 67 137 9 15 9 sky130_fd_sc_hd__nand2b_1
* cell instance $343 r0 *1 21.62,29.92
X$343 15 125 9 68 15 9 sky130_fd_sc_hd__buf_2
* cell instance $344 r0 *1 23.46,29.92
X$344 9 219 114 118 117 15 15 9 sky130_fd_sc_hd__ha_1
* cell instance $347 r0 *1 29.44,29.92
X$347 15 126 15 9 110 9 sky130_fd_sc_hd__clkbuf_2
* cell instance $348 r0 *1 31.28,29.92
X$348 15 116 15 9 118 9 sky130_fd_sc_hd__clkinvlp_4
* cell instance $350 r0 *1 34.96,29.92
X$350 15 95 110 119 104 9 15 9 sky130_fd_sc_hd__nor3_1
* cell instance $358 r0 *1 44.62,29.92
X$358 9 113 111 94 95 120 15 15 9 sky130_fd_sc_hd__a31o_1
* cell instance $359 r0 *1 47.84,29.92
X$359 15 111 105 95 121 9 15 120 9 sky130_fd_sc_hd__a31oi_1
* cell instance $360 r0 *1 50.14,29.92
X$360 15 107 71 109 15 9 9 sky130_fd_sc_hd__nand2_1
* cell instance $361 r0 *1 51.52,29.92
X$361 15 108 71 121 15 9 9 sky130_fd_sc_hd__nand2_1
* cell instance $373 m0 *1 2.76,35.36
X$373 9 27 102 115 128 15 15 9 sky130_fd_sc_hd__dfrtp_4
* cell instance $374 m0 *1 13.34,35.36
X$374 15 116 110 123 9 15 122 9 sky130_fd_sc_hd__a21oi_1
* cell instance $375 m0 *1 15.18,35.36
X$375 9 59 115 15 15 9 sky130_fd_sc_hd__clkbuf_8
* cell instance $376 m0 *1 20.24,35.36
X$376 15 102 116 125 15 124 9 9 sky130_fd_sc_hd__o21ai_0
* cell instance $377 m0 *1 22.08,35.36
X$377 9 105 135 67 116 68 102 15 15 9 sky130_fd_sc_hd__a2111oi_2
* cell instance $378 m0 *1 27.6,35.36
X$378 15 117 15 9 133 9 sky130_fd_sc_hd__inv_1
* cell instance $381 m0 *1 30.36,35.36
X$381 9 134 59 15 15 9 sky130_fd_sc_hd__clkbuf_8
* cell instance $382 m0 *1 35.42,35.36
X$382 9 140 220 118 117 15 15 9 sky130_fd_sc_hd__ha_1
* cell instance $384 m0 *1 43.7,35.36
X$384 15 110 119 111 9 15 9 sky130_fd_sc_hd__nor2_1
* cell instance $397 r0 *1 7.36,35.36
X$397 15 68 145 123 15 128 9 9 sky130_fd_sc_hd__o21a_1
* cell instance $398 r0 *1 10.12,35.36
X$398 15 67 102 145 15 9 9 sky130_fd_sc_hd__and2_0
* cell instance $400 r0 *1 13.34,35.36
X$400 15 136 9 67 15 9 sky130_fd_sc_hd__buf_2
* cell instance $403 r0 *1 15.64,35.36
X$403 9 115 15 15 9 sky130_fd_sc_hd__bufinv_16
* cell instance $405 r0 *1 27.14,35.36
X$405 9 218 127 116 117 15 15 9 sky130_fd_sc_hd__ha_1
* cell instance $406 r0 *1 31.74,35.36
X$406 15 135 151 127 139 9 15 9 sky130_fd_sc_hd__nor3_1
* cell instance $407 r0 *1 33.58,35.36
X$407 9 154 163 118 150 15 15 9 sky130_fd_sc_hd__ha_1
* cell instance $412 r0 *1 43.24,35.36
X$412 15 110 132 106 9 15 9 sky130_fd_sc_hd__nor2_1
* cell instance $414 r0 *1 45.54,35.36
X$414 15 131 169 130 111 15 149 9 9 sky130_fd_sc_hd__nand4_1
* cell instance $415 r0 *1 47.84,35.36
X$415 15 148 143 147 15 129 9 9 sky130_fd_sc_hd__o21ai_0
* cell instance $416 r0 *1 49.68,35.36
X$416 9 27 170 156 129 15 15 9 sky130_fd_sc_hd__dfrtp_1
* cell instance $417 r0 *1 58.88,35.36
X$417 9 159 144 146 69 15 15 9 sky130_fd_sc_hd__mux2_1
* cell instance $423 m0 *1 1.38,40.8
X$423 15 102 153 9 15 9 sky130_fd_sc_hd__clkbuf_1
* cell instance $426 m0 *1 10.12,40.8
X$426 9 130 136 102 116 125 15 15 9 sky130_fd_sc_hd__nor4b_4
* cell instance $427 m0 *1 18.86,40.8
X$427 15 137 15 9 138 9 sky130_fd_sc_hd__clkbuf_2
* cell instance $428 m0 *1 20.7,40.8
X$428 15 136 116 102 125 9 15 160 9 sky130_fd_sc_hd__or4b_2
* cell instance $429 m0 *1 24.38,40.8
X$429 9 217 151 116 133 15 15 9 sky130_fd_sc_hd__ha_1
* cell instance $431 m0 *1 29.44,40.8
X$431 9 126 141 118 152 15 15 9 sky130_fd_sc_hd__ha_1
* cell instance $432 m0 *1 34.04,40.8
X$432 15 140 154 141 163 162 9 15 9 sky130_fd_sc_hd__nor4bb_1
* cell instance $433 m0 *1 37.72,40.8
X$433 9 163 141 164 154 140 15 15 9 sky130_fd_sc_hd__and4bb_1
* cell instance $435 m0 *1 43.24,40.8
X$435 15 168 138 110 132 9 148 15 9 sky130_fd_sc_hd__nor4_1
* cell instance $436 m0 *1 45.54,40.8
X$436 15 161 155 149 15 142 9 9 sky130_fd_sc_hd__o21ai_0
* cell instance $437 m0 *1 47.38,40.8
X$437 9 27 146 156 142 15 15 9 sky130_fd_sc_hd__dfrtp_1
* cell instance $439 m0 *1 57.04,40.8
X$439 9 27 144 156 159 15 15 9 sky130_fd_sc_hd__dfrtp_1
* cell instance $442 r0 *1 3.22,40.8
X$442 9 27 136 115 177 15 15 9 sky130_fd_sc_hd__dfrtp_1
* cell instance $451 r0 *1 22.54,40.8
X$451 15 165 160 177 9 15 9 sky130_fd_sc_hd__nor2_1
* cell instance $454 r0 *1 25.3,40.8
X$454 15 166 173 165 15 9 9 sky130_fd_sc_hd__nand2_1
* cell instance $455 r0 *1 26.68,40.8
X$455 9 117 118 166 173 15 15 9 sky130_fd_sc_hd__nand3_2
* cell instance $456 r0 *1 30.36,40.8
X$456 15 127 151 135 178 9 15 9 sky130_fd_sc_hd__nor3b_1
* cell instance $457 r0 *1 33.12,40.8
X$457 15 118 152 150 9 15 9 sky130_fd_sc_hd__nand2b_1
* cell instance $459 r0 *1 35.88,40.8
X$459 15 140 110 95 183 9 15 9 sky130_fd_sc_hd__and3b_1
* cell instance $461 r0 *1 40.02,40.8
X$461 15 164 139 167 15 9 9 sky130_fd_sc_hd__nand2_1
* cell instance $462 r0 *1 41.4,40.8
X$462 15 171 167 94 9 15 9 sky130_fd_sc_hd__nor2_1
* cell instance $465 r0 *1 43.24,40.8
X$465 15 168 138 110 119 9 161 15 9 sky130_fd_sc_hd__nor4_1
* cell instance $466 r0 *1 45.54,40.8
X$466 9 178 131 95 164 15 15 9 sky130_fd_sc_hd__and3_1
* cell instance $467 r0 *1 47.84,40.8
X$467 15 106 169 130 131 15 147 9 9 sky130_fd_sc_hd__nand4_1
* cell instance $468 r0 *1 50.14,40.8
X$468 15 170 71 143 15 9 9 sky130_fd_sc_hd__nand2_1
* cell instance $469 r0 *1 51.52,40.8
X$469 15 146 71 155 15 9 9 sky130_fd_sc_hd__nand2_1
* cell instance $471 r0 *1 54.74,40.8
X$471 15 175 169 9 15 9 sky130_fd_sc_hd__clkbuf_1
* cell instance $472 r0 *1 56.12,40.8
X$472 9 27 174 156 176 15 15 9 sky130_fd_sc_hd__dfrtp_1
* cell instance $473 r0 *1 65.32,40.8
X$473 15 144 157 9 15 9 sky130_fd_sc_hd__clkbuf_1
* cell instance $481 m0 *1 12.42,46.24
X$481 9 27 135 115 172 15 15 9 sky130_fd_sc_hd__dfrtp_2
* cell instance $482 m0 *1 22.08,46.24
X$482 15 135 160 181 15 172 9 9 sky130_fd_sc_hd__o21ai_0
* cell instance $483 m0 *1 23.92,46.24
X$483 15 135 138 181 15 9 9 sky130_fd_sc_hd__nand2_1
* cell instance $487 m0 *1 29.9,46.24
X$487 15 173 166 132 15 9 9 sky130_fd_sc_hd__xnor2_1
* cell instance $488 m0 *1 33.12,46.24
X$488 15 116 135 186 9 15 9 sky130_fd_sc_hd__nor2_1
* cell instance $489 m0 *1 34.5,46.24
X$489 15 95 110 180 9 15 9 sky130_fd_sc_hd__nor2_1
* cell instance $491 m0 *1 37.72,46.24
X$491 15 178 183 132 162 164 15 195 9 9 sky130_fd_sc_hd__o2111ai_1
* cell instance $492 m0 *1 40.94,46.24
X$492 15 164 119 178 180 15 182 9 9 sky130_fd_sc_hd__nand4_1
* cell instance $493 m0 *1 43.24,46.24
X$493 15 95 178 164 168 15 9 9 sky130_fd_sc_hd__nand3_1
* cell instance $495 m0 *1 45.54,46.24
X$495 9 59 156 15 15 9 sky130_fd_sc_hd__clkbuf_8
* cell instance $502 m0 *1 58.42,46.24
X$502 9 176 174 170 69 15 15 9 sky130_fd_sc_hd__mux2_1
* cell instance $505 m0 *1 65.32,46.24
X$505 15 174 158 9 15 9 sky130_fd_sc_hd__clkbuf_1
* cell instance $516 r0 *1 19.32,46.24
X$516 15 185 9 95 15 9 sky130_fd_sc_hd__buf_2
* cell instance $517 r0 *1 21.16,46.24
X$517 9 185 179 135 184 15 15 9 sky130_fd_sc_hd__ha_1
* cell instance $518 r0 *1 25.76,46.24
X$518 15 179 15 9 173 9 sky130_fd_sc_hd__clkbuf_2
* cell instance $519 r0 *1 27.6,46.24
X$519 15 173 160 192 9 15 9 sky130_fd_sc_hd__nor2_1
* cell instance $521 r0 *1 29.44,46.24
X$521 15 166 184 135 152 15 9 9 sky130_fd_sc_hd__nand3_1
* cell instance $523 r0 *1 33.12,46.24
X$523 15 180 186 119 160 9 15 193 9 sky130_fd_sc_hd__a31oi_1
* cell instance $524 r0 *1 35.42,46.24
X$524 9 187 180 94 119 188 15 15 9 sky130_fd_sc_hd__a31o_1
* cell instance $533 r0 *1 44.62,46.24
X$533 15 138 130 182 9 15 191 9 sky130_fd_sc_hd__a21oi_1
* cell instance $534 r0 *1 46.46,46.24
X$534 15 169 130 171 15 9 9 sky130_fd_sc_hd__nand2_1
* cell instance $547 m0 *1 20.24,51.68
X$547 15 95 130 184 138 9 200 15 9 sky130_fd_sc_hd__a22o_1
* cell instance $550 m0 *1 25.76,51.68
X$550 15 173 130 202 15 9 9 sky130_fd_sc_hd__nand2_1
* cell instance $551 m0 *1 27.14,51.68
X$551 15 138 192 166 15 207 9 9 sky130_fd_sc_hd__o21ai_0
* cell instance $553 m0 *1 29.44,51.68
X$553 9 166 173 119 15 15 9 sky130_fd_sc_hd__xor2_2
* cell instance $554 m0 *1 35.42,51.68
X$554 15 194 193 138 15 188 9 9 sky130_fd_sc_hd__o21a_1
* cell instance $557 m0 *1 39.56,51.68
X$557 15 138 130 195 9 15 198 9 sky130_fd_sc_hd__a21oi_1
* cell instance $558 m0 *1 41.4,51.68
X$558 15 198 197 171 195 189 9 15 9 sky130_fd_sc_hd__o22ai_1
* cell instance $561 m0 *1 45.08,51.68
X$561 15 191 190 182 171 199 9 15 9 sky130_fd_sc_hd__o22ai_1
* cell instance $565 m0 *1 53.36,51.68
X$565 15 196 15 9 190 9 sky130_fd_sc_hd__inv_1
* cell instance $568 m0 *1 57.04,51.68
X$568 15 190 69 205 15 201 9 9 sky130_fd_sc_hd__o21ai_0
* cell instance $581 r0 *1 17.02,51.68
X$581 9 27 184 115 200 15 15 9 sky130_fd_sc_hd__dfrtp_1
* cell instance $582 r0 *1 26.22,51.68
X$582 15 166 202 207 15 206 9 9 sky130_fd_sc_hd__o21ai_0
* cell instance $583 r0 *1 28.06,51.68
X$583 15 203 9 166 15 9 sky130_fd_sc_hd__buf_2
* cell instance $592 r0 *1 45.54,51.68
X$592 9 27 196 156 199 15 15 9 sky130_fd_sc_hd__dfrtp_1
* cell instance $595 r0 *1 56.12,51.68
X$595 9 27 204 156 201 15 15 9 sky130_fd_sc_hd__dfrtp_1
* cell instance $605 m0 *1 19.78,57.12
X$605 9 27 203 115 206 15 15 9 sky130_fd_sc_hd__dfrtp_1
* cell instance $609 m0 *1 31.74,57.12
X$609 9 27 194 156 187 15 15 9 sky130_fd_sc_hd__dfrtp_1
* cell instance $610 m0 *1 40.94,57.12
X$610 9 27 208 156 189 15 15 9 sky130_fd_sc_hd__dfrtp_1
* cell instance $613 m0 *1 50.14,57.12
X$613 15 208 15 9 197 9 sky130_fd_sc_hd__inv_1
* cell instance $621 m0 *1 60.26,57.12
X$621 15 204 69 205 15 9 9 sky130_fd_sc_hd__nand2_1
* cell instance $625 m0 *1 64.86,57.12
X$625 15 204 209 9 15 9 sky130_fd_sc_hd__clkbuf_1
* cell instance $639 r0 *1 31.28,57.12
X$639 9 27 211 156 212 15 15 9 sky130_fd_sc_hd__dfrtp_1
* cell instance $646 r0 *1 44.62,57.12
X$646 15 197 69 214 15 210 9 9 sky130_fd_sc_hd__o21ai_0
* cell instance $647 r0 *1 46.46,57.12
X$647 9 27 213 156 210 15 15 9 sky130_fd_sc_hd__dfrtp_1
* cell instance $664 m0 *1 34.96,62.56
X$664 9 212 211 194 69 15 15 9 sky130_fd_sc_hd__mux2_1
* cell instance $672 m0 *1 49.68,62.56
X$672 15 213 69 214 15 9 9 sky130_fd_sc_hd__nand2_1
* cell instance $675 m0 *1 55.2,62.56
X$675 15 213 215 9 15 9 sky130_fd_sc_hd__clkbuf_1
* cell instance $698 r0 *1 36.34,62.56
X$698 15 211 216 9 15 9 sky130_fd_sc_hd__clkbuf_1
.ENDS final_spi_master

* cell sky130_fd_sc_hd__clkbuf_4
* pin VPB
* pin A
* pin VGND
* pin X
* pin VPWR
* pin 
.SUBCKT sky130_fd_sc_hd__clkbuf_4 1 3 4 5 6 7
* net 1 VPB
* net 3 A
* net 4 VGND
* net 5 X
* net 6 VPWR
* device instance $1 r0 *1 0.475,1.985 pfet_01v8_hvt
M$1 6 3 2 1 pfet_01v8_hvt L=150000U W=1000000U AS=265000000000P
+ AD=165000000000P PS=2530000U PD=1330000U
* device instance $2 r0 *1 0.955,1.985 pfet_01v8_hvt
M$2 5 2 6 1 pfet_01v8_hvt L=150000U W=4000000U AS=585000000000P
+ AD=720000000000P PS=5170000U PD=6440000U
* device instance $6 r0 *1 0.475,0.445 nfet_01v8
M$6 4 3 2 7 nfet_01v8 L=150000U W=420000U AS=111300000000P AD=70350000000P
+ PS=1370000U PD=755000U
* device instance $7 r0 *1 0.96,0.445 nfet_01v8
M$7 5 2 4 7 nfet_01v8 L=150000U W=1680000U AS=246750000000P AD=298200000000P
+ PS=2855000U PD=3520000U
.ENDS sky130_fd_sc_hd__clkbuf_4

* cell sky130_fd_sc_hd__buf_12
* pin VGND
* pin A
* pin X
* pin VPWR
* pin VPB
* pin 
.SUBCKT sky130_fd_sc_hd__buf_12 1 2 4 5 6 7
* net 1 VGND
* net 2 A
* net 4 X
* net 5 VPWR
* net 6 VPB
* device instance $1 r0 *1 0.47,1.985 pfet_01v8_hvt
M$1 3 2 5 6 pfet_01v8_hvt L=150000U W=4000000U AS=665000000000P
+ AD=540000000000P PS=6330000U PD=5080000U
* device instance $5 r0 *1 2.15,1.985 pfet_01v8_hvt
M$5 4 3 5 6 pfet_01v8_hvt L=150000U W=12000000U AS=1.62e+12P AD=1.865e+12P
+ PS=15240000U PD=16730000U
* device instance $17 r0 *1 0.47,0.56 nfet_01v8
M$17 3 2 1 7 nfet_01v8 L=150000U W=2600000U AS=432250000000P AD=351000000000P
+ PS=4580000U PD=3680000U
* device instance $21 r0 *1 2.15,0.56 nfet_01v8
M$21 4 3 1 7 nfet_01v8 L=150000U W=7800000U AS=1.053e+12P AD=1.21225e+12P
+ PS=11040000U PD=12180000U
.ENDS sky130_fd_sc_hd__buf_12

* cell sky130_fd_sc_hd__dlymetal6s2s_1
* pin VGND
* pin X
* pin A
* pin VPWR
* pin VPB
* pin 
.SUBCKT sky130_fd_sc_hd__dlymetal6s2s_1 1 3 8 9 10 11
* net 1 VGND
* net 3 X
* net 8 A
* net 9 VPWR
* net 10 VPB
* device instance $1 r0 *1 3.655,2.275 pfet_01v8_hvt
M$1 6 5 9 10 pfet_01v8_hvt L=150000U W=420000U AS=140750000000P
+ AD=109200000000P PS=1325000U PD=1360000U
* device instance $2 r0 *1 4.13,1.985 pfet_01v8_hvt
M$2 7 6 9 10 pfet_01v8_hvt L=150000U W=1000000U AS=140750000000P
+ AD=260000000000P PS=1325000U PD=2520000U
* device instance $3 r0 *1 2.24,2.275 pfet_01v8_hvt
M$3 4 3 9 10 pfet_01v8_hvt L=150000U W=420000U AS=140750000000P
+ AD=109200000000P PS=1325000U PD=1360000U
* device instance $4 r0 *1 2.715,1.985 pfet_01v8_hvt
M$4 5 4 9 10 pfet_01v8_hvt L=150000U W=1000000U AS=140750000000P
+ AD=260000000000P PS=1325000U PD=2520000U
* device instance $5 r0 *1 0.645,2.275 pfet_01v8_hvt
M$5 2 8 9 10 pfet_01v8_hvt L=150000U W=420000U AS=140750000000P
+ AD=109200000000P PS=1325000U PD=1360000U
* device instance $6 r0 *1 1.12,1.985 pfet_01v8_hvt
M$6 3 2 9 10 pfet_01v8_hvt L=150000U W=1000000U AS=140750000000P
+ AD=260000000000P PS=1325000U PD=2520000U
* device instance $7 r0 *1 3.655,0.445 nfet_01v8
M$7 1 5 6 11 nfet_01v8 L=150000U W=420000U AS=109200000000P AD=97000000000P
+ PS=1360000U PD=975000U
* device instance $8 r0 *1 4.13,0.56 nfet_01v8
M$8 7 6 1 11 nfet_01v8 L=150000U W=650000U AS=97000000000P AD=169000000000P
+ PS=975000U PD=1820000U
* device instance $9 r0 *1 0.645,0.445 nfet_01v8
M$9 1 8 2 11 nfet_01v8 L=150000U W=420000U AS=109200000000P AD=97000000000P
+ PS=1360000U PD=975000U
* device instance $10 r0 *1 1.12,0.56 nfet_01v8
M$10 3 2 1 11 nfet_01v8 L=150000U W=650000U AS=97000000000P AD=169000000000P
+ PS=975000U PD=1820000U
* device instance $11 r0 *1 2.24,0.445 nfet_01v8
M$11 1 3 4 11 nfet_01v8 L=150000U W=420000U AS=109200000000P AD=97000000000P
+ PS=1360000U PD=975000U
* device instance $12 r0 *1 2.715,0.56 nfet_01v8
M$12 5 4 1 11 nfet_01v8 L=150000U W=650000U AS=97000000000P AD=169000000000P
+ PS=975000U PD=1820000U
.ENDS sky130_fd_sc_hd__dlymetal6s2s_1

* cell sky130_fd_sc_hd__dlygate4sd3_1
* pin VPB
* pin A
* pin VPWR
* pin X
* pin VGND
* pin 
.SUBCKT sky130_fd_sc_hd__dlygate4sd3_1 1 3 5 7 8 9
* net 1 VPB
* net 3 A
* net 5 VPWR
* net 7 X
* net 8 VGND
* device instance $1 r0 *1 2.465,2.275 pfet_01v8_hvt
M$1 6 2 5 1 pfet_01v8_hvt L=500000U W=420000U AS=140750000000P AD=109200000000P
+ PS=1325000U PD=1360000U
* device instance $2 r0 *1 3.115,1.985 pfet_01v8_hvt
M$2 7 6 5 1 pfet_01v8_hvt L=150000U W=1000000U AS=140750000000P
+ AD=260000000000P PS=1325000U PD=2520000U
* device instance $3 r0 *1 0.58,2.275 pfet_01v8_hvt
M$3 5 3 4 1 pfet_01v8_hvt L=150000U W=420000U AS=109200000000P AD=56700000000P
+ PS=1360000U PD=690000U
* device instance $4 r0 *1 1.175,2.275 pfet_01v8_hvt
M$4 2 4 5 1 pfet_01v8_hvt L=500000U W=420000U AS=56700000000P AD=109200000000P
+ PS=690000U PD=1360000U
* device instance $5 r0 *1 2.465,0.445 nfet_01v8
M$5 8 2 6 9 nfet_01v8 L=500000U W=420000U AS=109200000000P AD=97000000000P
+ PS=1360000U PD=975000U
* device instance $6 r0 *1 3.115,0.56 nfet_01v8
M$6 7 6 8 9 nfet_01v8 L=150000U W=650000U AS=97000000000P AD=169000000000P
+ PS=975000U PD=1820000U
* device instance $7 r0 *1 0.58,0.445 nfet_01v8
M$7 8 3 4 9 nfet_01v8 L=150000U W=420000U AS=109200000000P AD=56700000000P
+ PS=1360000U PD=690000U
* device instance $8 r0 *1 1.175,0.445 nfet_01v8
M$8 2 4 8 9 nfet_01v8 L=500000U W=420000U AS=56700000000P AD=109200000000P
+ PS=690000U PD=1360000U
.ENDS sky130_fd_sc_hd__dlygate4sd3_1

* cell sky130_fd_sc_hd__a21oi_2
* pin VPB
* pin A1
* pin B1
* pin A2
* pin VPWR
* pin Y
* pin VGND
* pin 
.SUBCKT sky130_fd_sc_hd__a21oi_2 1 2 3 4 5 7 8 9
* net 1 VPB
* net 2 A1
* net 3 B1
* net 4 A2
* net 5 VPWR
* net 7 Y
* net 8 VGND
* device instance $1 r0 *1 0.49,1.985 pfet_01v8_hvt
M$1 5 4 6 1 pfet_01v8_hvt L=150000U W=2000000U AS=415000000000P
+ AD=275000000000P PS=3830000U PD=2550000U
* device instance $2 r0 *1 0.92,1.985 pfet_01v8_hvt
M$2 6 2 5 1 pfet_01v8_hvt L=150000U W=2000000U AS=280000000000P
+ AD=275000000000P PS=2560000U PD=2550000U
* device instance $5 r0 *1 2.19,1.985 pfet_01v8_hvt
M$5 7 3 6 1 pfet_01v8_hvt L=150000U W=2000000U AS=270000000000P
+ AD=495000000000P PS=2540000U PD=3990000U
* device instance $7 r0 *1 0.495,0.56 nfet_01v8
M$7 10 4 8 9 nfet_01v8 L=150000U W=650000U AS=185250000000P AD=89375000000P
+ PS=1870000U PD=925000U
* device instance $8 r0 *1 0.92,0.56 nfet_01v8
M$8 7 2 10 9 nfet_01v8 L=150000U W=650000U AS=89375000000P AD=91000000000P
+ PS=925000U PD=930000U
* device instance $9 r0 *1 1.35,0.56 nfet_01v8
M$9 11 2 7 9 nfet_01v8 L=150000U W=650000U AS=91000000000P AD=68250000000P
+ PS=930000U PD=860000U
* device instance $10 r0 *1 1.71,0.56 nfet_01v8
M$10 8 4 11 9 nfet_01v8 L=150000U W=650000U AS=68250000000P AD=107250000000P
+ PS=860000U PD=980000U
* device instance $11 r0 *1 2.19,0.56 nfet_01v8
M$11 7 3 8 9 nfet_01v8 L=150000U W=1300000U AS=195000000000P AD=347750000000P
+ PS=1900000U PD=3020000U
.ENDS sky130_fd_sc_hd__a21oi_2

* cell sky130_fd_sc_hd__nor2b_1
* pin VPB
* pin A
* pin B_N
* pin Y
* pin VGND
* pin VPWR
* pin 
.SUBCKT sky130_fd_sc_hd__nor2b_1 1 2 3 4 6 7 8
* net 1 VPB
* net 2 A
* net 3 B_N
* net 4 Y
* net 6 VGND
* net 7 VPWR
* device instance $1 r0 *1 0.71,1.695 pfet_01v8_hvt
M$1 7 3 5 1 pfet_01v8_hvt L=150000U W=420000U AS=109200000000P AD=157300000000P
+ PS=1360000U PD=1390000U
* device instance $2 r0 *1 1.25,1.985 pfet_01v8_hvt
M$2 9 2 7 1 pfet_01v8_hvt L=150000U W=1000000U AS=157300000000P
+ AD=105000000000P PS=1390000U PD=1210000U
* device instance $3 r0 *1 1.61,1.985 pfet_01v8_hvt
M$3 4 5 9 1 pfet_01v8_hvt L=150000U W=1000000U AS=105000000000P
+ AD=260000000000P PS=1210000U PD=2520000U
* device instance $4 r0 *1 0.705,0.445 nfet_01v8
M$4 6 3 5 8 nfet_01v8 L=150000U W=420000U AS=109200000000P AD=100250000000P
+ PS=1360000U PD=985000U
* device instance $5 r0 *1 1.19,0.56 nfet_01v8
M$5 4 2 6 8 nfet_01v8 L=150000U W=650000U AS=100250000000P AD=87750000000P
+ PS=985000U PD=920000U
* device instance $6 r0 *1 1.61,0.56 nfet_01v8
M$6 6 5 4 8 nfet_01v8 L=150000U W=650000U AS=87750000000P AD=169000000000P
+ PS=920000U PD=1820000U
.ENDS sky130_fd_sc_hd__nor2b_1

* cell sky130_fd_sc_hd__dfstp_1
* pin VGND
* pin SET_B
* pin Q
* pin CLK
* pin D
* pin VPB
* pin VPWR
* pin 
.SUBCKT sky130_fd_sc_hd__dfstp_1 1 6 11 17 18 19 20 24
* net 1 VGND
* net 6 SET_B
* net 11 Q
* net 17 CLK
* net 18 D
* net 19 VPB
* net 20 VPWR
* device instance $1 r0 *1 6.925,2.275 pfet_01v8_hvt
M$1 8 6 20 19 pfet_01v8_hvt L=150000U W=420000U AS=122850000000P
+ AD=109200000000P PS=1170000U PD=1360000U
* device instance $2 r0 *1 7.405,2.065 pfet_01v8_hvt
M$2 9 8 20 19 pfet_01v8_hvt L=150000U W=840000U AS=122850000000P
+ AD=218400000000P PS=1170000U PD=2200000U
* device instance $3 r0 *1 0.47,2.135 pfet_01v8_hvt
M$3 20 17 2 19 pfet_01v8_hvt L=150000U W=640000U AS=166400000000P
+ AD=86400000000P PS=1800000U PD=910000U
* device instance $4 r0 *1 0.89,2.135 pfet_01v8_hvt
M$4 3 2 20 19 pfet_01v8_hvt L=150000U W=640000U AS=86400000000P
+ AD=166400000000P PS=910000U PD=1800000U
* device instance $5 r0 *1 1.83,2.065 pfet_01v8_hvt
M$5 4 18 20 19 pfet_01v8_hvt L=150000U W=840000U AS=218400000000P
+ AD=124950000000P PS=2200000U PD=1175000U
* device instance $6 r0 *1 2.315,2.275 pfet_01v8_hvt
M$6 5 3 4 19 pfet_01v8_hvt L=150000U W=420000U AS=124950000000P AD=56700000000P
+ PS=1175000U PD=690000U
* device instance $7 r0 *1 2.735,2.275 pfet_01v8_hvt
M$7 21 2 5 19 pfet_01v8_hvt L=150000U W=420000U AS=56700000000P AD=94500000000P
+ PS=690000U PD=870000U
* device instance $8 r0 *1 3.335,2.275 pfet_01v8_hvt
M$8 20 7 21 19 pfet_01v8_hvt L=150000U W=420000U AS=94500000000P
+ AD=79800000000P PS=870000U PD=800000U
* device instance $9 r0 *1 3.865,2.275 pfet_01v8_hvt
M$9 7 6 20 19 pfet_01v8_hvt L=150000U W=420000U AS=79800000000P AD=56700000000P
+ PS=800000U PD=690000U
* device instance $10 r0 *1 4.285,2.275 pfet_01v8_hvt
M$10 20 5 7 19 pfet_01v8_hvt L=150000U W=420000U AS=56700000000P
+ AD=56700000000P PS=690000U PD=690000U
* device instance $11 r0 *1 4.705,2.275 pfet_01v8_hvt
M$11 22 5 20 19 pfet_01v8_hvt L=150000U W=420000U AS=56700000000P
+ AD=48300000000P PS=690000U PD=650000U
* device instance $12 r0 *1 5.085,2.275 pfet_01v8_hvt
M$12 8 2 22 19 pfet_01v8_hvt L=150000U W=420000U AS=48300000000P
+ AD=81900000000P PS=650000U PD=810000U
* device instance $13 r0 *1 5.625,2.275 pfet_01v8_hvt
M$13 23 3 8 19 pfet_01v8_hvt L=150000U W=420000U AS=81900000000P
+ AD=44100000000P PS=810000U PD=630000U
* device instance $14 r0 *1 5.985,2.275 pfet_01v8_hvt
M$14 20 9 23 19 pfet_01v8_hvt L=150000U W=420000U AS=44100000000P
+ AD=109200000000P PS=630000U PD=1360000U
* device instance $15 r0 *1 8.345,2.165 pfet_01v8_hvt
M$15 10 8 20 19 pfet_01v8_hvt L=150000U W=640000U AS=149000000000P
+ AD=166400000000P PS=1325000U PD=1800000U