
* cell parameterized_cam
* pin write_addr[0]
* pin write_addr[1]
* pin rst_n
* pin write_enable
* pin write_addr[2]
* pin write_addr[3]
* pin PWELL
* pin NWELL
* pin compare_data[1]
* pin compare_data[2]
* pin match_addr[1]
* pin valid
* pin match_addr[0]
* pin clk
* pin match
* pin compare_data[6]
* pin compare_data[5]
* pin compare_data[4]
* pin compare_data[3]
* pin compare_data[7]
* pin compare_data[0]
* pin compare_enable
* pin match_addr[2]
* pin match_addr[3]
* pin write_data[7]
* pin write_data[1]
* pin write_data[3]
* pin write_data[4]
* pin write_data[5]
* pin write_data[0]
* pin write_data[2]
* pin write_data[6]
.SUBCKT parameterized_cam 1 2 3 4 5 6 10 16 62 67 510 526 528 541 559 582 815
+ 856 866 960 961 962 963 964 965 966 967 968 969 970 971 973
* net 1 write_addr[0]
* net 2 write_addr[1]
* net 3 rst_n
* net 4 write_enable
* net 5 write_addr[2]
* net 6 write_addr[3]
* net 10 PWELL
* net 16 NWELL
* net 62 compare_data[1]
* net 67 compare_data[2]
* net 510 match_addr[1]
* net 526 valid
* net 528 match_addr[0]
* net 541 clk
* net 559 match
* net 582 compare_data[6]
* net 815 compare_data[5]
* net 856 compare_data[4]
* net 866 compare_data[3]
* net 960 compare_data[7]
* net 961 compare_data[0]
* net 962 compare_enable
* net 963 match_addr[2]
* net 964 match_addr[3]
* net 965 write_data[7]
* net 966 write_data[1]
* net 967 write_data[3]
* net 968 write_data[4]
* net 969 write_data[5]
* net 970 write_data[0]
* net 971 write_data[2]
* net 973 write_data[6]
* cell instance $6 m0 *1 26.22,4.2
X$6 1 10 16 243 CLKBUF_X3
* cell instance $12 r0 *1 26.98,1.4
X$12 2 10 16 233 CLKBUF_X3
* cell instance $18 m0 *1 31.35,4.2
X$18 3 16 23 10 BUF_X4
* cell instance $23 r0 *1 31.73,1.4
X$23 4 16 14 10 BUF_X4
* cell instance $29 r0 *1 34.39,1.4
X$29 10 15 16 5 BUF_X8
* cell instance $36 r0 *1 34.96,4.2
X$36 6 16 100 10 BUF_X4
* cell instance $38 r0 *1 19.38,1.4
X$38 8 9 10 16 7 NAND2_X1
* cell instance $40 m0 *1 17.86,7
X$40 17 7 63 16 20 10 OAI21_X1
* cell instance $43 r0 *1 16.34,4.2
X$43 10 8 20 34 16 DFF_X1
* cell instance $45 r0 *1 19.38,7
X$45 8 54 16 120 10 XOR2_X2
* cell instance $55 m0 *1 31.54,9.8
X$55 134 9 10 16 127 NAND2_X1
* cell instance $57 r0 *1 29.07,4.2
X$57 56 9 10 16 32 NAND2_X1
* cell instance $60 m0 *1 31.35,7
X$60 46 9 10 16 88 NAND2_X1
* cell instance $62 m0 *1 25.08,9.8
X$62 121 9 10 16 114 NAND2_X1
* cell instance $64 m0 *1 24.89,12.6
X$64 184 10 16 9 CLKBUF_X3
* cell instance $66 r0 *1 21.66,9.8
X$66 132 9 10 16 181 NAND2_X1
* cell instance $69 m0 *1 19.57,12.6
X$69 179 9 10 16 154 NAND2_X1
* cell instance $71 r0 *1 21.28,1.4
X$71 13 9 10 16 12 NAND2_X1
* cell instance $74 m0 *1 25.46,7
X$74 55 9 10 16 65 NAND2_X1
* cell instance $78 m0 *1 20.14,4.2
X$78 21 9 10 16 11 NAND2_X1
* cell instance $79 m0 *1 19.38,4.2
X$79 17 11 44 16 30 10 OAI21_X1
* cell instance $80 m0 *1 16.15,4.2
X$80 10 21 30 34 16 DFF_X1
* cell instance $81 m0 *1 20.71,4.2
X$81 17 12 92 16 31 10 OAI21_X1
* cell instance $84 r0 *1 19.57,4.2
X$84 10 13 31 34 16 DFF_X1
* cell instance $85 m0 *1 22.42,4.2
X$85 10 55 39 34 16 DFF_X1
* cell instance $86 m0 *1 21.85,4.2
X$86 17 29 10 16 33 NAND2_X1
* cell instance $89 r0 *1 22.99,4.2
X$89 17 65 33 16 39 10 OAI21_X1
* cell instance $91 r0 *1 24.13,4.2
X$91 10 52 47 16 BUF_X16
* cell instance $95 m0 *1 28.12,4.2
X$95 10 46 18 22 16 DFF_X1
* cell instance $98 m0 *1 34.96,4.2
X$98 10 26 41 22 16 DFF_X1
* cell instance $102 r0 *1 29.64,4.2
X$102 45 32 89 16 66 10 OAI21_X1
* cell instance $103 r0 *1 30.4,4.2
X$103 10 42 43 22 16 DFF_X1
* cell instance $104 r0 *1 33.63,4.2
X$104 45 24 51 16 43 10 OAI21_X1
* cell instance $105 r0 *1 34.39,4.2
X$105 42 35 10 16 24 NAND2_X1
* cell instance $106 r0 *1 36.29,4.2
X$106 45 40 25 16 41 10 OAI21_X1
* cell instance $107 r0 *1 37.05,4.2
X$107 45 29 10 16 25 NAND2_X1
* cell instance $108 r0 *1 37.62,4.2
X$108 26 35 10 16 40 NAND2_X1
* cell instance $111 m0 *1 39.33,4.2
X$111 10 28 27 19 16 DFF_X1
* cell instance $117 r0 *1 40.66,4.2
X$117 36 38 37 16 27 10 OAI21_X1
* cell instance $118 r0 *1 41.42,4.2
X$118 28 59 10 16 38 NAND2_X1
* cell instance $119 r0 *1 41.99,4.2
X$119 36 29 10 16 37 NAND2_X1
* cell instance $124 m0 *1 1.9,40.6
X$124 10 731 729 569 16 DFF_X1
* cell instance $126 m0 *1 5.13,40.6
X$126 731 242 10 16 716 NAND2_X1
* cell instance $127 m0 *1 5.7,40.6
X$127 614 130 10 16 711 NAND2_X1
* cell instance $138 r0 *1 4.37,40.6
X$138 568 716 744 16 729 10 OAI21_X1
* cell instance $140 r0 *1 5.32,40.6
X$140 614 64 10 16 744 NAND2_X1
* cell instance $141 r0 *1 5.89,40.6
X$141 614 53 10 16 746 NAND2_X1
* cell instance $142 r0 *1 6.46,40.6
X$142 569 10 16 CLKBUF_X1
* cell instance $143 r0 *1 7.03,40.6
X$143 614 87 10 16 774 NAND2_X1
* cell instance $144 r0 *1 7.6,40.6
X$144 235 10 16 569 CLKBUF_X3
* cell instance $146 r0 *1 8.74,40.6
X$146 10 717 713 569 16 DFF_X1
* cell instance $147 m0 *1 11.21,40.6
X$147 635 87 10 16 733 NAND2_X1
* cell instance $148 m0 *1 10.45,40.6
X$148 570 734 733 16 713 10 OAI21_X1
* cell instance $150 r0 *1 11.97,40.6
X$150 570 766 765 16 747 10 OAI21_X1
* cell instance $152 m0 *1 12.16,40.6
X$152 717 253 10 16 734 NAND2_X1
* cell instance $154 m0 *1 14.44,40.6
X$154 10 718 735 539 16 DFF_X1
* cell instance $155 m0 *1 17.67,40.6
X$155 718 253 10 16 737 NAND2_X1
* cell instance $158 r0 *1 13.11,40.6
X$158 174 717 10 16 767 XOR2_X1
* cell instance $160 r0 *1 14.63,40.6
X$160 767 749 736 10 16 623 NOR3_X1
* cell instance $162 r0 *1 15.58,40.6
X$162 635 130 10 16 750 NAND2_X1
* cell instance $163 r0 *1 16.15,40.6
X$163 570 737 750 16 735 10 OAI21_X1
* cell instance $165 r0 *1 17.29,40.6
X$165 156 718 10 16 736 XOR2_X1
* cell instance $168 m0 *1 18.62,40.6
X$168 10 739 689 539 16 DFF_X1
* cell instance $171 r0 *1 19.76,40.6
X$171 73 751 16 10 738 XNOR2_X1
* cell instance $172 r0 *1 20.9,40.6
X$172 50 739 16 10 719 XNOR2_X1
* cell instance $174 m0 *1 22.99,40.6
X$174 739 184 10 16 715 NAND2_X1
* cell instance $175 m0 *1 22.23,40.6
X$175 738 719 720 10 16 640 NAND3_X1
* cell instance $177 r0 *1 22.23,40.6
X$177 235 10 16 539 CLKBUF_X3
* cell instance $179 r0 *1 23.37,40.6
X$179 10 755 721 539 16 DFF_X1
* cell instance $180 m0 *1 24.51,40.6
X$180 673 741 742 16 721 10 OAI21_X1
* cell instance $181 m0 *1 23.94,40.6
X$181 674 727 10 16 706 NAND2_X1
* cell instance $182 m0 *1 25.27,40.6
X$182 674 686 10 16 742 NAND2_X1
* cell instance $184 m0 *1 26.6,40.6
X$184 755 184 10 16 741 NAND2_X1
* cell instance $188 r0 *1 26.6,40.6
X$188 54 755 16 10 776 XNOR2_X1
* cell instance $190 r0 *1 29.26,40.6
X$190 10 770 722 608 16 DFF_X1
* cell instance $191 m0 *1 30.02,40.6
X$191 707 517 576 10 722 16 AOI21_X1
* cell instance $194 m0 *1 30.97,40.6
X$194 770 517 184 16 707 10 OAI21_X1
* cell instance $198 m0 *1 33.06,40.6
X$198 723 129 16 666 10 XOR2_X2
* cell instance $200 m0 *1 34.77,40.6
X$200 708 16 64 10 BUF_X4
* cell instance $202 m0 *1 36.29,40.6
X$202 616 743 724 16 714 10 OAI21_X1
* cell instance $204 m0 *1 37.24,40.6
X$204 647 727 10 16 724 NAND2_X1
* cell instance $207 r0 *1 33.25,40.6
X$207 10 723 714 608 16 DFF_X1
* cell instance $208 r0 *1 36.48,40.6
X$208 723 653 10 16 743 NAND2_X1
* cell instance $210 r0 *1 38.57,40.6
X$210 245 10 16 653 CLKBUF_X3
* cell instance $212 m0 *1 38.95,40.6
X$212 10 709 740 608 16 DFF_X1
* cell instance $213 m0 *1 42.37,40.6
X$213 536 709 16 10 712 XNOR2_X1
* cell instance $215 m0 *1 43.7,40.6
X$215 710 653 10 16 703 NAND2_X1
* cell instance $216 m0 *1 44.27,40.6
X$216 198 710 16 10 726 XNOR2_X1
* cell instance $220 r0 *1 40.09,40.6
X$220 676 648 10 16 702 NAND2_X1
* cell instance $222 r0 *1 42.18,40.6
X$222 649 692 10 16 771 NAND2_X1
* cell instance $226 r0 *1 44.08,40.6
X$226 725 393 10 16 756 NAND2_X1
* cell instance $228 r0 *1 44.84,40.6
X$228 725 726 712 757 10 16 769 NAND4_X1
* cell instance $230 m0 *1 45.79,40.6
X$230 692 16 87 10 BUF_X4
* cell instance $232 r0 *1 45.98,40.6
X$232 47 759 16 10 725 XNOR2_X1
* cell instance $234 m0 *1 47.69,40.6
X$234 727 16 130 10 BUF_X4
* cell instance $239 r0 *1 48.07,40.6
X$239 759 653 10 16 791 NAND2_X1
* cell instance $240 r0 *1 48.64,40.6
X$240 54 764 16 10 757 XNOR2_X1
* cell instance $241 r0 *1 49.78,40.6
X$241 10 764 728 788 16 DFF_X1
* cell instance $242 m0 *1 50.92,40.6
X$242 647 686 10 16 678 NAND2_X1
* cell instance $243 m0 *1 50.16,40.6
X$243 676 732 730 16 728 10 OAI21_X1
* cell instance $244 m0 *1 51.49,40.6
X$244 649 686 10 16 730 NAND2_X1
* cell instance $245 m0 *1 52.06,40.6
X$245 764 653 10 16 732 NAND2_X1
* cell instance $249 m0 *1 53.01,40.6
X$249 649 10 16 676 BUF_X2
* cell instance $251 r0 *1 53.2,40.6
X$251 649 691 10 16 761 NAND2_X1
* cell instance $254 m0 *1 1.9,26.6
X$254 10 396 414 321 16 DFF_X1
* cell instance $256 m0 *1 5.13,26.6
X$256 426 435 436 16 438 10 OAI21_X1
* cell instance $257 m0 *1 5.89,26.6
X$257 389 64 10 16 436 NAND2_X1
* cell instance $258 m0 *1 6.46,26.6
X$258 396 97 16 447 10 XOR2_X2
* cell instance $259 m0 *1 8.17,26.6
X$259 405 209 16 448 10 XOR2_X2
* cell instance $262 r0 *1 1.9,26.6
X$262 10 404 425 321 16 DFF_X1
* cell instance $268 r0 *1 6.27,26.6
X$268 448 447 459 493 16 453 10 NOR4_X2
* cell instance $270 r0 *1 8.17,26.6
X$270 389 10 16 426 BUF_X2
* cell instance $272 r0 *1 9.31,26.6
X$272 426 483 450 16 449 10 OAI21_X1
* cell instance $273 r0 *1 10.07,26.6
X$273 389 87 10 16 450 NAND2_X1
* cell instance $274 m0 *1 10.45,26.6
X$274 426 443 462 16 427 10 OAI21_X1
* cell instance $276 m0 *1 11.21,26.6
X$276 10 419 406 321 16 DFF_X1
* cell instance $278 m0 *1 14.63,26.6
X$278 451 444 473 16 455 10 NOR3_X2
* cell instance $280 r0 *1 10.64,26.6
X$280 389 130 10 16 462 NAND2_X1
* cell instance $284 r0 *1 13.68,26.6
X$284 484 174 16 451 10 XOR2_X2
* cell instance $286 r0 *1 16.15,26.6
X$286 426 465 452 16 474 10 OAI21_X1
* cell instance $288 m0 *1 16.34,26.6
X$288 426 107 10 16 452 NAND2_X1
* cell instance $291 m0 *1 22.23,26.6
X$291 10 424 446 261 16 DFF_X1
* cell instance $296 r0 *1 18.24,26.6
X$296 454 253 10 16 465 NAND2_X1
* cell instance $298 r0 *1 19,26.6
X$298 124 454 16 10 466 XNOR2_X1
* cell instance $299 r0 *1 20.14,26.6
X$299 455 466 424 453 10 487 16 NAND4_X2
* cell instance $302 m0 *1 26.03,26.6
X$302 10 428 409 261 16 DFF_X1
* cell instance $308 r0 *1 27.55,26.6
X$308 245 10 16 184 CLKBUF_X3
* cell instance $311 r0 *1 29.45,26.6
X$311 10 472 470 351 16 DFF_X1
* cell instance $312 m0 *1 30.59,26.6
X$312 445 10 16 341 CLKBUF_X3
* cell instance $314 m0 *1 31.54,26.6
X$314 429 445 10 16 470 NOR2_X1
* cell instance $315 m0 *1 32.11,26.6
X$315 472 399 342 10 429 16 AOI21_X1
* cell instance $316 m0 *1 32.87,26.6
X$316 10 430 456 351 16 DFF_X1
* cell instance $317 m0 *1 36.1,26.6
X$317 440 341 10 16 441 NOR2_X1
* cell instance $320 m0 *1 38.95,26.6
X$320 10 464 437 351 16 DFF_X1
* cell instance $321 m0 *1 42.18,26.6
X$321 431 29 10 16 432 NAND2_X1
* cell instance $322 m0 *1 42.75,26.6
X$322 431 457 432 16 437 10 OAI21_X1
* cell instance $324 m0 *1 46.55,26.6
X$324 431 434 413 16 433 10 OAI21_X1
* cell instance $325 m0 *1 47.31,26.6
X$325 460 288 10 16 434 NAND2_X1
* cell instance $332 r0 *1 33.25,26.6
X$332 471 445 10 16 456 NOR2_X1
* cell instance $333 r0 *1 33.82,26.6
X$333 430 399 282 10 471 16 AOI21_X1
* cell instance $335 r0 *1 34.96,26.6
X$335 442 341 10 16 469 NOR2_X1
* cell instance $336 r0 *1 35.53,26.6
X$336 10 439 469 351 16 DFF_X1
* cell instance $340 r0 *1 40.85,26.6
X$340 47 464 16 10 490 XNOR2_X1
* cell instance $342 r0 *1 42.37,26.6
X$342 464 288 10 16 457 NAND2_X1
* cell instance $343 r0 *1 42.94,26.6
X$343 431 107 10 16 463 NAND2_X1
* cell instance $344 r0 *1 43.51,26.6
X$344 431 461 463 16 488 10 OAI21_X1
* cell instance $346 r0 *1 44.46,26.6
X$346 478 288 10 16 461 NAND2_X1
* cell instance $349 r0 *1 45.6,26.6
X$349 10 460 433 268 16 DFF_X1
* cell instance $350 r0 *1 48.83,26.6
X$350 412 10 16 431 BUF_X2
* cell instance $351 r0 *1 49.59,26.6
X$351 412 53 10 16 458 NAND2_X1
* cell instance $353 r0 *1 50.92,26.6
X$353 10 479 481 268 16 DFF_X1
* cell instance $364 m0 *1 31.35,54.6
X$364 962 10 16 517 CLKBUF_X2
* cell instance $366 m0 *1 35.15,54.6
X$366 966 10 16 611 CLKBUF_X3
* cell instance $368 m0 *1 36.29,54.6
X$368 969 10 16 686 BUF_X2
* cell instance $370 m0 *1 40.09,54.6
X$370 704 708 10 16 972 NAND2_X1
* cell instance $371 m0 *1 40.66,54.6
X$371 880 977 972 16 954 10 OAI21_X1
* cell instance $373 m0 *1 42.94,54.6
X$373 880 978 955 16 956 10 OAI21_X1
* cell instance $376 r0 *1 31.35,54.6
X$376 770 10 16 963 BUF_X1
* cell instance $380 r0 *1 33.25,54.6
X$380 519 10 16 964 BUF_X1
* cell instance $382 r0 *1 34.2,54.6
X$382 965 10 16 692 CLKBUF_X3
* cell instance $383 r0 *1 35.15,54.6
X$383 967 10 16 708 BUF_X2
* cell instance $384 r0 *1 35.91,54.6
X$384 968 10 16 691 CLKBUF_X3
* cell instance $385 r0 *1 36.86,54.6
X$385 970 10 16 648 BUF_X2
* cell instance $389 r0 *1 39.71,54.6
X$389 971 10 16 650 BUF_X2
* cell instance $391 m0 *1 44.27,54.6
X$391 973 10 16 727 CLKBUF_X3
* cell instance $393 m0 *1 45.22,54.6
X$393 10 832 957 788 16 DFF_X1
* cell instance $394 m0 *1 48.45,54.6
X$394 10 862 979 788 16 DFF_X1
* cell instance $406 m0 *1 2.47,12.6
X$406 10 148 163 68 16 DFF_X1
* cell instance $407 m0 *1 5.89,12.6
X$407 148 95 10 16 164 NAND2_X1
* cell instance $408 m0 *1 6.46,12.6
X$408 93 164 200 16 163 10 OAI21_X1
* cell instance $409 m0 *1 7.22,12.6
X$409 98 53 10 16 221 NAND2_X1
* cell instance $411 r0 *1 2.47,12.6
X$411 10 218 199 68 16 DFF_X1
* cell instance $416 r0 *1 5.89,12.6
X$416 218 95 10 16 219 NAND2_X1
* cell instance $418 r0 *1 6.84,12.6
X$418 93 219 221 16 199 10 OAI21_X1
* cell instance $420 r0 *1 7.98,12.6
X$420 207 220 149 188 10 16 202 NOR4_X1
* cell instance $421 m0 *1 8.36,12.6
X$421 98 150 10 16 200 NAND2_X1
* cell instance $424 m0 *1 9.12,12.6
X$424 98 10 16 93 BUF_X2
* cell instance $426 m0 *1 10.64,12.6
X$426 93 171 189 16 204 10 OAI21_X1
* cell instance $428 m0 *1 12.16,12.6
X$428 208 95 10 16 171 NAND2_X1
* cell instance $432 r0 *1 9.5,12.6
X$432 10 208 204 68 16 DFF_X1
* cell instance $433 r0 *1 12.73,12.6
X$433 205 210 223 10 16 225 NOR3_X1
* cell instance $435 m0 *1 13.11,12.6
X$435 174 71 10 16 205 XOR2_X1
* cell instance $437 r0 *1 13.87,12.6
X$437 184 10 16 95 CLKBUF_X3
* cell instance $438 m0 *1 17.86,12.6
X$438 179 140 16 153 10 XOR2_X2
* cell instance $439 m0 *1 14.63,12.6
X$439 10 177 175 34 16 DFF_X1
* cell instance $440 m0 *1 20.14,12.6
X$440 10 132 155 34 16 DFF_X1
* cell instance $442 m0 *1 23.56,12.6
X$442 124 132 16 10 192 XNOR2_X1
* cell instance $444 m0 *1 25.84,12.6
X$444 10 198 16 97 BUF_X8
* cell instance $446 m0 *1 29.83,12.6
X$446 10 100 15 206 75 16 NOR3_X4
* cell instance $447 m0 *1 32.49,12.6
X$447 45 187 186 16 157 10 OAI21_X1
* cell instance $450 r0 *1 15.2,12.6
X$450 226 151 225 202 16 10 227 AND4_X2
* cell instance $452 r0 *1 16.91,12.6
X$452 177 253 10 16 152 NAND2_X1
* cell instance $453 r0 *1 17.48,12.6
X$453 34 10 16 CLKBUF_X1
* cell instance $454 r0 *1 18.05,12.6
X$454 177 50 16 229 10 XOR2_X2
* cell instance $455 r0 *1 19.76,12.6
X$455 229 153 120 16 190 10 NOR3_X2
* cell instance $458 r0 *1 22.99,12.6
X$458 190 192 191 74 10 231 16 NAND4_X2
* cell instance $459 r0 *1 24.7,12.6
X$459 191 192 190 74 16 10 232 AND4_X1
* cell instance $462 r0 *1 26.79,12.6
X$462 10 156 16 129 BUF_X8
* cell instance $466 r0 *1 31.35,12.6
X$466 10 158 157 22 16 DFF_X1
* cell instance $467 m0 *1 34.2,12.6
X$467 158 35 10 16 187 NAND2_X1
* cell instance $468 m0 *1 33.63,12.6
X$468 75 150 10 16 135 NAND2_X1
* cell instance $472 r0 *1 34.58,12.6
X$472 235 10 16 22 CLKBUF_X3
* cell instance $473 r0 *1 35.53,12.6
X$473 158 198 16 10 237 XNOR2_X1
* cell instance $474 r0 *1 36.67,12.6
X$474 10 100 15 193 122 16 NOR3_X4
* cell instance $476 m0 *1 39.14,12.6
X$476 159 115 194 10 16 203 OR3_X1
* cell instance $479 m0 *1 41.04,12.6
X$479 10 161 176 19 16 DFF_X1
* cell instance $480 m0 *1 44.27,12.6
X$480 161 59 10 16 160 NAND2_X1
* cell instance $483 m0 *1 46.55,12.6
X$483 198 197 16 10 167 XNOR2_X1
* cell instance $485 r0 *1 39.33,12.6
X$485 194 115 159 214 196 213 10 16 212 OAI33_X1
* cell instance $486 r0 *1 40.66,12.6
X$486 138 246 10 16 213 NAND2_X1
* cell instance $488 r0 *1 41.42,12.6
X$488 213 196 214 10 16 195 NOR3_X1
* cell instance $490 r0 *1 42.37,12.6
X$490 122 150 10 16 201 NAND2_X1
* cell instance $492 r0 *1 43.7,12.6
X$492 10 197 230 19 16 DFF_X1
* cell instance $493 r0 *1 46.93,12.6
X$493 197 59 10 16 215 NAND2_X1
* cell instance $495 m0 *1 48.83,12.6
X$495 54 142 16 10 165 XNOR2_X1
* cell instance $496 m0 *1 48.07,12.6
X$496 165 162 167 10 16 214 NAND3_X1
* cell instance $497 m0 *1 49.97,12.6
X$497 156 217 16 10 162 XNOR2_X1
* cell instance $503 r0 *1 48.45,12.6
X$503 10 217 224 19 16 DFF_X1
* cell instance $522 m0 *1 4.94,46.2
X$522 816 242 10 16 800 NAND2_X1
* cell instance $523 m0 *1 1.71,46.2
X$523 10 816 773 817 16 DFF_X1
* cell instance $527 r0 *1 1.9,46.2
X$527 815 16 240 10 BUF_X4
* cell instance $533 m0 *1 6.65,46.2
X$533 10 801 830 817 16 DFF_X1
* cell instance $536 m0 *1 11.21,46.2
X$536 817 10 16 983 INV_X2
* cell instance $537 m0 *1 10.26,46.2
X$537 235 10 16 817 CLKBUF_X3
* cell instance $542 m0 *1 17.29,46.2
X$542 10 803 834 820 16 DFF_X1
* cell instance $543 m0 *1 20.52,46.2
X$543 673 842 835 16 849 10 OAI21_X1
* cell instance $546 r0 *1 10.45,46.2
X$546 10 248 140 16 BUF_X16
* cell instance $550 r0 *1 17.67,46.2
X$550 10 752 849 820 16 DFF_X1
* cell instance $551 r0 *1 20.9,46.2
X$551 752 793 10 16 842 NAND2_X1
* cell instance $554 m0 *1 23.18,46.2
X$554 673 611 10 16 835 NAND2_X1
* cell instance $555 m0 *1 22.42,46.2
X$555 673 818 836 16 834 10 OAI21_X1
* cell instance $556 m0 *1 23.75,46.2
X$556 797 793 10 16 819 NAND2_X1
* cell instance $557 m0 *1 24.32,46.2
X$557 10 753 838 820 16 DFF_X1
* cell instance $558 m0 *1 27.55,46.2
X$558 753 793 10 16 839 NAND2_X1
* cell instance $562 r0 *1 22.8,46.2
X$562 47 858 16 10 665 XNOR2_X1
* cell instance $563 r0 *1 23.94,46.2
X$563 235 10 16 820 CLKBUF_X3
* cell instance $567 r0 *1 27.55,46.2
X$567 245 10 16 793 CLKBUF_X3
* cell instance $569 r0 *1 31.54,46.2
X$569 10 844 843 859 16 DFF_X1
* cell instance $570 m0 *1 31.73,46.2
X$570 840 855 822 472 10 16 821 NAND4_X1
* cell instance $572 m0 *1 32.68,46.2
X$572 472 822 840 16 10 841 AND3_X1
* cell instance $574 m0 *1 33.82,46.2
X$574 124 844 16 10 822 XNOR2_X1
* cell instance $576 r0 *1 34.77,46.2
X$576 10 824 863 859 16 DFF_X1
* cell instance $578 m0 *1 35.34,46.2
X$578 385 692 10 16 896 NAND2_X1
* cell instance $579 m0 *1 36.1,46.2
X$579 824 854 10 16 823 NAND2_X1
* cell instance $581 m0 *1 38.76,46.2
X$581 10 826 806 859 16 DFF_X1
* cell instance $582 m0 *1 37.05,46.2
X$582 824 50 16 825 10 XOR2_X2
* cell instance $584 m0 *1 42.18,46.2
X$584 826 854 10 16 837 NAND2_X1
* cell instance $586 m0 *1 42.94,46.2
X$586 73 877 16 10 853 XNOR2_X1
* cell instance $588 m0 *1 44.27,46.2
X$588 833 845 827 16 780 10 NOR3_X2
* cell instance $591 r0 *1 38,46.2
X$591 825 876 890 16 855 10 NOR3_X2
* cell instance $592 r0 *1 39.33,46.2
X$592 245 10 16 854 BUF_X2
* cell instance $595 r0 *1 41.99,46.2
X$595 124 917 16 10 807 XNOR2_X1
* cell instance $597 r0 *1 43.89,46.2
X$597 853 852 807 10 16 808 NAND3_X1
* cell instance $598 r0 *1 44.65,46.2
X$598 853 852 847 10 16 845 NAND3_X1
* cell instance $599 r0 *1 45.41,46.2
X$599 846 848 850 847 10 16 851 NAND4_X1
* cell instance $600 r0 *1 46.36,46.2
X$600 846 848 850 828 10 16 833 NAND4_X1
* cell instance $602 m0 *1 46.74,46.2
X$602 50 832 16 10 828 XNOR2_X1
* cell instance $605 r0 *1 47.31,46.2
X$605 140 862 16 10 848 XNOR2_X1
* cell instance $607 r0 *1 48.83,46.2
X$607 54 879 16 10 847 XNOR2_X1
* cell instance $610 m0 *1 52.06,46.2
X$610 10 829 831 788 16 DFF_X1
* cell instance $628 m0 *1 2.09,35
X$628 10 567 600 569 16 DFF_X1
* cell instance $629 m0 *1 5.32,35
X$629 603 388 10 16 625 NAND2_X1
* cell instance $630 m0 *1 5.89,35
X$630 52 567 10 16 613 XOR2_X1
* cell instance $631 m0 *1 7.03,35
X$631 97 603 10 16 593 XOR2_X1
* cell instance $633 m0 *1 8.36,35
X$633 568 605 594 16 604 10 OAI21_X1
* cell instance $634 m0 *1 9.12,35
X$634 568 107 10 16 594 NAND2_X1
* cell instance $639 r0 *1 2.85,35
X$639 10 603 656 569 16 DFF_X1
* cell instance $643 r0 *1 6.08,35
X$643 614 112 10 16 626 NAND2_X1
* cell instance $645 r0 *1 7.03,35
X$645 613 627 593 628 10 16 587 NOR4_X1
* cell instance $648 r0 *1 10.26,35
X$648 570 107 10 16 659 NAND2_X1
* cell instance $650 r0 *1 11.02,35
X$650 10 633 631 569 16 DFF_X1
* cell instance $651 m0 *1 14.82,35
X$651 97 596 10 16 634 XOR2_X1
* cell instance $652 m0 *1 11.59,35
X$652 10 596 607 569 16 DFF_X1
* cell instance $655 m0 *1 16.91,35
X$655 10 572 597 539 16 DFF_X1
* cell instance $659 r0 *1 14.44,35
X$659 536 633 10 16 636 XOR2_X1
* cell instance $661 r0 *1 15.77,35
X$661 615 634 636 663 10 16 610 NOR4_X1
* cell instance $663 r0 *1 16.91,35
X$663 570 624 662 16 688 10 OAI21_X1
* cell instance $665 r0 *1 17.86,35
X$665 664 253 10 16 624 NAND2_X1
* cell instance $667 r0 *1 18.62,35
X$667 73 664 10 16 663 XOR2_X1
* cell instance $670 m0 *1 21.28,35
X$670 407 609 623 610 16 10 575 AND4_X1
* cell instance $673 m0 *1 33.06,35
X$673 599 52 16 598 10 XOR2_X2
* cell instance $677 r0 *1 23.56,35
X$677 665 428 10 16 638 NAND2_X1
* cell instance $679 r0 *1 24.32,35
X$679 622 641 640 10 16 533 NOR3_X1
* cell instance $682 r0 *1 26.98,35
X$682 669 423 10 16 622 NAND2_X1
* cell instance $686 r0 *1 31.73,35
X$686 667 97 16 668 10 XOR2_X2
* cell instance $688 r0 *1 33.63,35
X$688 668 598 643 666 16 579 10 NOR4_X2
* cell instance $690 r0 *1 35.53,35
X$690 667 498 10 16 644 NAND2_X1
* cell instance $691 m0 *1 36.48,35
X$691 10 599 661 608 16 DFF_X1
* cell instance $692 m0 *1 35.91,35
X$692 599 498 10 16 617 NAND2_X1
* cell instance $693 m0 *1 39.71,35
X$693 611 16 29 10 BUF_X4
* cell instance $696 r0 *1 36.1,35
X$696 616 617 646 16 661 10 OAI21_X1
* cell instance $697 r0 *1 36.86,35
X$697 616 611 10 16 646 NAND2_X1
* cell instance $698 r0 *1 37.43,35
X$698 648 16 107 10 BUF_X4
* cell instance $699 r0 *1 38.76,35
X$699 10 618 660 608 16 DFF_X1
* cell instance $700 r0 *1 41.99,35
X$700 618 498 10 16 621 NAND2_X1
* cell instance $702 r0 *1 42.75,35
X$702 616 621 619 16 660 10 OAI21_X1
* cell instance $704 m0 *1 42.94,35
X$704 10 557 606 477 16 DFF_X1
* cell instance $706 m0 *1 47.12,35
X$706 652 50 16 602 10 XOR2_X2
* cell instance $707 m0 *1 48.83,35
X$707 602 620 601 16 580 10 NOR3_X2
* cell instance $710 r0 *1 43.51,35
X$710 616 648 10 16 619 NAND2_X1
* cell instance $713 r0 *1 44.65,35
X$713 10 652 658 477 16 DFF_X1
* cell instance $715 r0 *1 48.07,35
X$715 655 140 16 620 10 XOR2_X2
* cell instance $717 r0 *1 50.16,35
X$717 654 54 16 601 10 XOR2_X2
* cell instance $718 r0 *1 51.87,35
X$718 10 654 657 477 16 DFF_X1
* cell instance $727 m0 *1 2.28,49
X$727 10 248 16 856 BUF_X8
* cell instance $729 m0 *1 4.94,49
X$729 866 16 209 10 BUF_X4
* cell instance $743 r0 *1 7.22,49
X$743 10 883 910 817 16 DFF_X1
* cell instance $744 r0 *1 10.45,49
X$744 209 883 16 10 897 XNOR2_X1
* cell instance $745 r0 *1 11.59,49
X$745 140 898 16 10 928 XNOR2_X1
* cell instance $746 m0 *1 12.16,49
X$746 883 793 10 16 885 NAND2_X1
* cell instance $750 m0 *1 15.96,49
X$750 240 867 16 10 886 XNOR2_X1
* cell instance $751 m0 *1 17.1,49
X$751 10 54 16 240 BUF_X8
* cell instance $753 r0 *1 12.73,49
X$753 899 885 912 16 910 10 OAI21_X1
* cell instance $754 r0 *1 13.49,49
X$754 10 867 914 817 16 DFF_X1
* cell instance $755 r0 *1 16.72,49
X$755 867 793 10 16 900 NAND2_X1
* cell instance $757 r0 *1 18.05,49
X$757 10 869 915 820 16 DFF_X1
* cell instance $758 m0 *1 21.09,49
X$758 886 887 857 10 16 639 NAND3_X1
* cell instance $759 m0 *1 19.95,49
X$759 156 868 16 10 887 XNOR2_X1
* cell instance $760 m0 *1 21.85,49
X$760 198 869 16 10 857 XNOR2_X1
* cell instance $762 m0 *1 26.03,49
X$762 209 871 10 16 865 XOR2_X1
* cell instance $763 m0 *1 27.17,49
X$763 248 872 10 16 864 XOR2_X1
* cell instance $764 m0 *1 28.31,49
X$764 198 873 10 16 892 XOR2_X1
* cell instance $765 m0 *1 29.45,49
X$765 864 865 891 892 10 16 840 NOR4_X1
* cell instance $767 m0 *1 30.59,49
X$767 47 874 10 16 891 XOR2_X1
* cell instance $770 r0 *1 21.28,49
X$770 868 793 10 16 901 NAND2_X1
* cell instance $772 r0 *1 22.04,49
X$772 869 870 10 16 902 NAND2_X1
* cell instance $776 r0 *1 26.79,49
X$776 871 854 10 16 920 NAND2_X1
* cell instance $777 r0 *1 27.36,49
X$777 875 920 903 16 919 10 OAI21_X1
* cell instance $778 r0 *1 28.12,49
X$778 872 854 10 16 950 NAND2_X1
* cell instance $779 r0 *1 28.69,49
X$779 385 708 10 16 903 NAND2_X1
* cell instance $782 r0 *1 31.54,49
X$782 874 854 10 16 904 NAND2_X1
* cell instance $784 m0 *1 33.63,49
X$784 875 648 10 16 894 NAND2_X1
* cell instance $785 m0 *1 32.87,49
X$785 875 895 894 16 843 10 OAI21_X1
* cell instance $786 m0 *1 34.2,49
X$786 844 854 10 16 895 NAND2_X1
* cell instance $789 m0 *1 35.91,49
X$789 918 156 16 890 10 XOR2_X2
* cell instance $790 m0 *1 35.15,49
X$790 875 823 896 16 863 10 OAI21_X1
* cell instance $791 m0 *1 37.62,49
X$791 860 54 16 876 10 XOR2_X2
* cell instance $792 m0 *1 39.33,49
X$792 235 10 16 859 CLKBUF_X3
* cell instance $793 m0 *1 40.28,49
X$793 245 10 16 870 CLKBUF_X3
* cell instance $794 m0 *1 41.23,49
X$794 859 10 16 CLKBUF_X1
* cell instance $798 r0 *1 35.91,49
X$798 918 854 10 16 893 NAND2_X1
* cell instance $799 r0 *1 36.48,49
X$799 10 860 921 859 16 DFF_X1
* cell instance $800 r0 *1 39.71,49
X$800 880 888 889 16 946 10 OAI21_X1
* cell instance $801 r0 *1 40.47,49
X$801 880 648 10 16 889 NAND2_X1
* cell instance $804 r0 *1 41.61,49
X$804 917 854 10 16 888 NAND2_X1
* cell instance $806 r0 *1 42.94,49
X$806 10 878 916 859 16 DFF_X1
* cell instance $807 m0 *1 45.6,49
X$807 47 878 16 10 850 XNOR2_X1
* cell instance $808 m0 *1 44.46,49
X$808 198 861 16 10 846 XNOR2_X1
* cell instance $811 m0 *1 47.69,49
X$811 156 881 16 10 852 XNOR2_X1
* cell instance $813 m0 *1 50.35,49
X$813 10 881 882 788 16 DFF_X1
* cell instance $817 r0 *1 46.17,49
X$817 878 870 10 16 906 NAND2_X1
* cell instance $820 r0 *1 48.64,49
X$820 881 870 10 16 884 NAND2_X1
* cell instance $821 r0 *1 49.21,49
X$821 880 884 911 16 882 10 OAI21_X1
* cell instance $822 r0 *1 49.97,49
X$822 10 879 908 788 16 DFF_X1
* cell instance $830 m0 *1 2.28,21
X$830 10 333 365 321 16 DFF_X1
* cell instance $831 m0 *1 5.51,21
X$831 255 322 323 16 365 10 OAI21_X1
* cell instance $832 m0 *1 6.27,21
X$832 209 333 10 16 366 XOR2_X1
* cell instance $833 m0 *1 7.41,21
X$833 324 366 316 10 16 325 NOR3_X1
* cell instance $842 r0 *1 8.93,21
X$842 10 335 368 321 16 DFF_X1
* cell instance $843 m0 *1 9.5,21
X$843 255 29 10 16 369 NAND2_X1
* cell instance $845 m0 *1 10.07,21
X$845 255 370 369 16 302 10 OAI21_X1
* cell instance $848 m0 *1 11.21,21
X$848 303 242 10 16 370 NAND2_X1
* cell instance $849 m0 *1 11.97,21
X$849 255 334 304 16 368 10 OAI21_X1
* cell instance $851 m0 *1 12.92,21
X$851 248 335 10 16 326 XOR2_X1
* cell instance $853 m0 *1 14.25,21
X$853 255 373 306 16 372 10 OAI21_X1
* cell instance $855 m0 *1 15.2,21
X$855 336 242 10 16 373 NAND2_X1
* cell instance $857 m0 *1 16.53,21
X$857 124 336 16 10 337 XNOR2_X1
* cell instance $861 r0 *1 12.54,21
X$861 335 242 10 16 334 NAND2_X1
* cell instance $864 r0 *1 13.68,21
X$864 10 336 372 261 16 DFF_X1
* cell instance $865 r0 *1 16.91,21
X$865 340 337 325 299 16 10 489 AND4_X2
* cell instance $867 m0 *1 22.04,21
X$867 327 341 10 16 301 NOR2_X1
* cell instance $868 m0 *1 18.81,21
X$868 10 340 338 261 16 DFF_X1
* cell instance $869 m0 *1 22.61,21
X$869 191 392 342 10 327 16 AOI21_X1
* cell instance $872 r0 *1 19.76,21
X$872 374 341 10 16 338 NOR2_X1
* cell instance $874 r0 *1 20.71,21
X$874 340 339 342 10 374 16 AOI21_X1
* cell instance $877 r0 *1 23.37,21
X$877 375 341 10 16 343 NOR2_X1
* cell instance $879 r0 *1 24.7,21
X$879 344 339 284 10 375 16 AOI21_X1
* cell instance $880 m0 *1 25.46,21
X$880 262 233 988 16 10 342 HA_X1
* cell instance $882 m0 *1 27.36,21
X$882 15 100 10 328 16 NAND2_X4
* cell instance $883 m0 *1 29.07,21
X$883 329 308 10 16 310 XNOR2_X2
* cell instance $884 m0 *1 30.97,21
X$884 309 378 346 10 16 265 NOR3_X1
* cell instance $889 r0 *1 28.12,21
X$889 15 10 16 307 INV_X1
* cell instance $890 r0 *1 28.5,21
X$890 311 346 10 16 345 NOR2_X1
* cell instance $891 r0 *1 29.07,21
X$891 376 346 10 16 392 NOR2_X1
* cell instance $892 r0 *1 29.64,21
X$892 286 307 329 10 16 378 NAND3_X1
* cell instance $893 r0 *1 30.4,21
X$893 347 346 10 16 339 NOR2_X1
* cell instance $894 r0 *1 30.97,21
X$894 263 14 10 16 347 NAND2_X1
* cell instance $895 r0 *1 31.54,21
X$895 347 310 10 16 399 NOR2_X1
* cell instance $897 m0 *1 32.3,21
X$897 100 10 16 329 INV_X2
* cell instance $900 r0 *1 32.3,21
X$900 376 310 10 16 383 NOR2_X1
* cell instance $902 r0 *1 33.06,21
X$902 380 341 10 16 348 NOR2_X1
* cell instance $903 m0 *1 34.96,21
X$903 330 264 385 10 16 NOR2_X4
* cell instance $904 m0 *1 33.25,21
X$904 15 329 10 330 16 NAND2_X4
* cell instance $905 m0 *1 36.67,21
X$905 235 10 16 351 CLKBUF_X3
* cell instance $906 m0 *1 37.62,21
X$906 351 10 16 CLKBUF_X1
* cell instance $909 r0 *1 33.82,21
X$909 393 399 284 10 380 16 AOI21_X1
* cell instance $911 r0 *1 34.96,21
X$911 352 383 342 10 349 16 AOI21_X1
* cell instance $912 r0 *1 35.72,21
X$912 349 341 10 16 350 NOR2_X1
* cell instance $913 r0 *1 36.29,21
X$913 10 352 350 351 16 DFF_X1
* cell instance $914 m0 *1 38.76,21
X$914 10 354 386 351 16 DFF_X1
* cell instance $916 m0 *1 41.99,21
X$916 291 355 312 16 386 10 OAI21_X1
* cell instance $917 m0 *1 42.75,21
X$917 354 288 10 16 355 NAND2_X1
* cell instance $918 m0 *1 43.32,21
X$918 247 64 10 16 384 NAND2_X1
* cell instance $919 m0 *1 43.89,21
X$919 291 381 384 16 382 10 OAI21_X1
* cell instance $921 m0 *1 44.84,21
X$921 73 356 10 16 377 XOR2_X1
* cell instance $922 m0 *1 45.98,21
X$922 377 357 379 313 10 16 358 NOR4_X1
* cell instance $923 m0 *1 46.93,21
X$923 291 360 331 16 359 10 OAI21_X1
* cell instance $924 m0 *1 47.69,21
X$924 247 112 10 16 331 NAND2_X1
* cell instance $927 r0 *1 40.28,21
X$927 352 398 16 10 353 AND2_X1
* cell instance $928 r0 *1 41.04,21
X$928 47 354 16 10 398 XNOR2_X1
* cell instance $929 r0 *1 42.18,21
X$929 10 356 382 268 16 DFF_X1
* cell instance $931 r0 *1 45.6,21
X$931 356 288 10 16 381 NAND2_X1