* CDL Netlist generated by OpenROAD

*.BUSDELIMITER [

.SUBCKT parameterized_cam clk compare_data[0] compare_data[1]
+ compare_data[2] compare_data[3] compare_data[4] compare_data[5]
+ compare_data[6] compare_data[7] compare_enable match match_addr[0]
+ match_addr[1] match_addr[2] match_addr[3] rst_n valid write_addr[0]
+ write_addr[1] write_addr[2] write_addr[3] write_data[0] write_data[1]
+ write_data[2] write_data[3] write_data[4] write_data[5] write_data[6]
+ write_data[7] write_enable
X_0932_ net1 _0920_ VDD VSS INV_X1
X_0933_ net2 _0921_ VDD VSS INV_X1
X_0934_ write_data[0] _0231_ VDD VSS BUF_X2
X_0935_ _0231_ _0232_ VDD VSS BUF_X4
X_0936_ write_addr[3] _0233_ VDD VSS BUF_X4
X_0937_ write_addr[2] _0234_ VDD VSS BUF_X8
X_0938_ write_enable _0235_ VDD VSS BUF_X4
X_0939_ rst_n _0236_ VDD VSS BUF_X4
X_0940_ _0235_ _0236_ _0922_ _0237_ VDD VSS NAND3_X4
X_0941_ _0233_ _0234_ _0237_ _0238_ VDD VSS NOR3_X4
X_0942_ _0238_ _0239_ VDD VSS BUF_X2
X_0943_ _0232_ _0239_ _0240_ VDD VSS NAND2_X1
X_0944_ _0236_ _0241_ VDD VSS CLKBUF_X3
X_0945_ _0241_ _0242_ VDD VSS CLKBUF_X3
X_0946_ _0242_ _0243_ VDD VSS CLKBUF_X3
X_0947_ _0243_ cam_memory\[0\]\[0\] _0244_ VDD VSS NAND2_X1
X_0948_ _0240_ _0244_ _0239_ _0000_ VDD VSS OAI21_X1
X_0949_ write_data[1] _0245_ VDD VSS CLKBUF_X3
X_0950_ _0245_ _0246_ VDD VSS BUF_X4
X_0951_ _0246_ _0239_ _0247_ VDD VSS NAND2_X1
X_0952_ _0243_ cam_memory\[0\]\[1\] _0248_ VDD VSS NAND2_X1
X_0953_ _0247_ _0248_ _0239_ _0001_ VDD VSS OAI21_X1
X_0954_ write_data[2] _0249_ VDD VSS BUF_X2
X_0955_ _0249_ _0250_ VDD VSS BUF_X4
X_0956_ _0250_ _0238_ _0251_ VDD VSS NAND2_X1
X_0957_ _0243_ cam_memory\[0\]\[2\] _0252_ VDD VSS NAND2_X1
X_0958_ _0251_ _0252_ _0239_ _0002_ VDD VSS OAI21_X1
X_0959_ write_data[3] _0253_ VDD VSS BUF_X2
X_0960_ _0253_ _0254_ VDD VSS BUF_X4
X_0961_ _0254_ _0238_ _0255_ VDD VSS NAND2_X1
X_0962_ _0243_ cam_memory\[0\]\[3\] _0256_ VDD VSS NAND2_X1
X_0963_ _0255_ _0256_ _0239_ _0003_ VDD VSS OAI21_X1
X_0964_ write_data[4] _0257_ VDD VSS CLKBUF_X3
X_0965_ _0257_ _0258_ VDD VSS BUF_X4
X_0966_ _0258_ _0238_ _0259_ VDD VSS NAND2_X1
X_0967_ _0243_ cam_memory\[0\]\[4\] _0260_ VDD VSS NAND2_X1
X_0968_ _0259_ _0260_ _0239_ _0004_ VDD VSS OAI21_X1
X_0969_ write_data[5] _0261_ VDD VSS BUF_X2
X_0970_ _0261_ _0262_ VDD VSS BUF_X4
X_0971_ _0262_ _0238_ _0263_ VDD VSS NAND2_X1
X_0972_ _0242_ _0264_ VDD VSS CLKBUF_X3
X_0973_ _0264_ cam_memory\[0\]\[5\] _0265_ VDD VSS NAND2_X1
X_0974_ _0263_ _0265_ _0239_ _0005_ VDD VSS OAI21_X1
X_0975_ write_data[6] _0266_ VDD VSS CLKBUF_X3
X_0976_ _0266_ _0267_ VDD VSS BUF_X4
X_0977_ _0267_ _0238_ _0268_ VDD VSS NAND2_X1
X_0978_ _0264_ cam_memory\[0\]\[6\] _0269_ VDD VSS NAND2_X1
X_0979_ _0268_ _0269_ _0239_ _0006_ VDD VSS OAI21_X1
X_0980_ write_data[7] _0270_ VDD VSS CLKBUF_X3
X_0981_ _0270_ _0271_ VDD VSS BUF_X4
X_0982_ _0271_ _0238_ _0272_ VDD VSS NAND2_X1
X_0983_ _0264_ cam_memory\[0\]\[7\] _0273_ VDD VSS NAND2_X1
X_0984_ _0272_ _0273_ _0239_ _0007_ VDD VSS OAI21_X1
X_0985_ _0234_ _0274_ VDD VSS INV_X1
X_0986_ _0233_ _0274_ _0275_ VDD VSS NAND2_X2
X_0987_ _0926_ _0235_ _0236_ _0276_ VDD VSS NAND3_X4
X_0988_ _0275_ _0276_ _0277_ VDD VSS NOR2_X2
X_0989_ _0277_ _0278_ VDD VSS BUF_X2
X_0990_ _0232_ _0278_ _0279_ VDD VSS NAND2_X1
X_0991_ _0264_ cam_memory\[10\]\[0\] _0280_ VDD VSS NAND2_X1
X_0992_ _0279_ _0280_ _0278_ _0008_ VDD VSS OAI21_X1
X_0993_ _0246_ _0278_ _0281_ VDD VSS NAND2_X1
X_0994_ _0264_ cam_memory\[10\]\[1\] _0282_ VDD VSS NAND2_X1
X_0995_ _0281_ _0282_ _0278_ _0009_ VDD VSS OAI21_X1
X_0996_ _0250_ _0277_ _0283_ VDD VSS NAND2_X1
X_0997_ _0264_ cam_memory\[10\]\[2\] _0284_ VDD VSS NAND2_X1
X_0998_ _0283_ _0284_ _0278_ _0010_ VDD VSS OAI21_X1
X_0999_ _0254_ _0277_ _0285_ VDD VSS NAND2_X1
X_1000_ _0264_ cam_memory\[10\]\[3\] _0286_ VDD VSS NAND2_X1
X_1001_ _0285_ _0286_ _0278_ _0011_ VDD VSS OAI21_X1
X_1002_ _0258_ _0277_ _0287_ VDD VSS NAND2_X1
X_1003_ _0264_ cam_memory\[10\]\[4\] _0288_ VDD VSS NAND2_X1
X_1004_ _0287_ _0288_ _0278_ _0012_ VDD VSS OAI21_X1
X_1005_ _0262_ _0277_ _0289_ VDD VSS NAND2_X1
X_1006_ _0264_ cam_memory\[10\]\[5\] _0290_ VDD VSS NAND2_X1
X_1007_ _0289_ _0290_ _0278_ _0013_ VDD VSS OAI21_X1
X_1008_ _0267_ _0277_ _0291_ VDD VSS NAND2_X1
X_1009_ _0264_ cam_memory\[10\]\[6\] _0292_ VDD VSS NAND2_X1
X_1010_ _0291_ _0292_ _0278_ _0014_ VDD VSS OAI21_X1
X_1011_ _0271_ _0277_ _0293_ VDD VSS NAND2_X1
X_1012_ _0242_ _0294_ VDD VSS CLKBUF_X3
X_1013_ _0294_ cam_memory\[10\]\[7\] _0295_ VDD VSS NAND2_X1
X_1014_ _0293_ _0295_ _0278_ _0015_ VDD VSS OAI21_X1
X_1015_ _0930_ _0296_ VDD VSS BUF_X2
X_1016_ _0235_ _0236_ _0296_ _0297_ VDD VSS NAND3_X4
X_1017_ _0275_ _0297_ _0298_ VDD VSS NOR2_X2
X_1018_ _0298_ _0299_ VDD VSS BUF_X2
X_1019_ _0232_ _0299_ _0300_ VDD VSS NAND2_X1
X_1020_ _0294_ cam_memory\[11\]\[0\] _0301_ VDD VSS NAND2_X1
X_1021_ _0300_ _0301_ _0299_ _0016_ VDD VSS OAI21_X1
X_1022_ _0246_ _0299_ _0302_ VDD VSS NAND2_X1
X_1023_ _0294_ cam_memory\[11\]\[1\] _0303_ VDD VSS NAND2_X1
X_1024_ _0302_ _0303_ _0299_ _0017_ VDD VSS OAI21_X1
X_1025_ _0250_ _0298_ _0304_ VDD VSS NAND2_X1
X_1026_ _0294_ cam_memory\[11\]\[2\] _0305_ VDD VSS NAND2_X1
X_1027_ _0304_ _0305_ _0299_ _0018_ VDD VSS OAI21_X1
X_1028_ _0254_ _0298_ _0306_ VDD VSS NAND2_X1
X_1029_ _0294_ cam_memory\[11\]\[3\] _0307_ VDD VSS NAND2_X1
X_1030_ _0306_ _0307_ _0299_ _0019_ VDD VSS OAI21_X1
X_1031_ _0258_ _0298_ _0308_ VDD VSS NAND2_X1
X_1032_ _0294_ cam_memory\[11\]\[4\] _0309_ VDD VSS NAND2_X1
X_1033_ _0308_ _0309_ _0299_ _0020_ VDD VSS OAI21_X1
X_1034_ _0262_ _0298_ _0310_ VDD VSS NAND2_X1
X_1035_ _0294_ cam_memory\[11\]\[5\] _0311_ VDD VSS NAND2_X1
X_1036_ _0310_ _0311_ _0299_ _0021_ VDD VSS OAI21_X1
X_1037_ _0267_ _0298_ _0312_ VDD VSS NAND2_X1
X_1038_ _0294_ cam_memory\[11\]\[6\] _0313_ VDD VSS NAND2_X1
X_1039_ _0312_ _0313_ _0299_ _0022_ VDD VSS OAI21_X1
X_1040_ _0271_ _0298_ _0314_ VDD VSS NAND2_X1
X_1041_ _0294_ cam_memory\[11\]\[7\] _0315_ VDD VSS NAND2_X1
X_1042_ _0314_ _0315_ _0299_ _0023_ VDD VSS OAI21_X1
X_1043_ _0233_ _0234_ _0316_ VDD VSS NAND2_X4
X_1044_ _0237_ _0316_ _0317_ VDD VSS NOR2_X2
X_1045_ _0317_ _0318_ VDD VSS BUF_X2
X_1046_ _0232_ _0318_ _0319_ VDD VSS NAND2_X1
X_1047_ _0294_ cam_memory\[12\]\[0\] _0320_ VDD VSS NAND2_X1
X_1048_ _0319_ _0320_ _0318_ _0024_ VDD VSS OAI21_X1
X_1049_ _0246_ _0318_ _0321_ VDD VSS NAND2_X1
X_1050_ _0242_ _0322_ VDD VSS CLKBUF_X3
X_1051_ _0322_ cam_memory\[12\]\[1\] _0323_ VDD VSS NAND2_X1
X_1052_ _0321_ _0323_ _0318_ _0025_ VDD VSS OAI21_X1
X_1053_ _0250_ _0317_ _0324_ VDD VSS NAND2_X1
X_1054_ _0322_ cam_memory\[12\]\[2\] _0325_ VDD VSS NAND2_X1
X_1055_ _0324_ _0325_ _0318_ _0026_ VDD VSS OAI21_X1
X_1056_ _0254_ _0317_ _0326_ VDD VSS NAND2_X1
X_1057_ _0322_ cam_memory\[12\]\[3\] _0327_ VDD VSS NAND2_X1
X_1058_ _0326_ _0327_ _0318_ _0027_ VDD VSS OAI21_X1
X_1059_ _0258_ _0317_ _0328_ VDD VSS NAND2_X1
X_1060_ _0322_ cam_memory\[12\]\[4\] _0329_ VDD VSS NAND2_X1
X_1061_ _0328_ _0329_ _0318_ _0028_ VDD VSS OAI21_X1
X_1062_ _0262_ _0317_ _0330_ VDD VSS NAND2_X1
X_1063_ _0322_ cam_memory\[12\]\[5\] _0331_ VDD VSS NAND2_X1
X_1064_ _0330_ _0331_ _0318_ _0029_ VDD VSS OAI21_X1
X_1065_ _0267_ _0317_ _0332_ VDD VSS NAND2_X1
X_1066_ _0322_ cam_memory\[12\]\[6\] _0333_ VDD VSS NAND2_X1
X_1067_ _0332_ _0333_ _0318_ _0030_ VDD VSS OAI21_X1
X_1068_ _0271_ _0317_ _0334_ VDD VSS NAND2_X1
X_1069_ _0322_ cam_memory\[12\]\[7\] _0335_ VDD VSS NAND2_X1
X_1070_ _0334_ _0335_ _0318_ _0031_ VDD VSS OAI21_X1
X_1071_ _0928_ _0336_ VDD VSS BUF_X2
X_1072_ _0235_ _0236_ _0336_ _0337_ VDD VSS NAND3_X4
X_1073_ _0316_ _0337_ _0338_ VDD VSS NOR2_X4
X_1074_ _0338_ _0339_ VDD VSS BUF_X2
X_1075_ _0232_ _0339_ _0340_ VDD VSS NAND2_X1
X_1076_ _0322_ cam_memory\[13\]\[0\] _0341_ VDD VSS NAND2_X1
X_1077_ _0340_ _0341_ _0339_ _0032_ VDD VSS OAI21_X1
X_1078_ _0246_ _0339_ _0342_ VDD VSS NAND2_X1
X_1079_ _0322_ cam_memory\[13\]\[1\] _0343_ VDD VSS NAND2_X1
X_1080_ _0342_ _0343_ _0339_ _0033_ VDD VSS OAI21_X1
X_1081_ _0250_ _0338_ _0344_ VDD VSS NAND2_X1
X_1082_ _0322_ cam_memory\[13\]\[2\] _0345_ VDD VSS NAND2_X1
X_1083_ _0344_ _0345_ _0339_ _0034_ VDD VSS OAI21_X1
X_1084_ _0254_ _0338_ _0346_ VDD VSS NAND2_X1
X_1085_ _0242_ _0347_ VDD VSS CLKBUF_X3
X_1086_ _0347_ cam_memory\[13\]\[3\] _0348_ VDD VSS NAND2_X1
X_1087_ _0346_ _0348_ _0339_ _0035_ VDD VSS OAI21_X1
X_1088_ _0258_ _0338_ _0349_ VDD VSS NAND2_X1
X_1089_ _0347_ cam_memory\[13\]\[4\] _0350_ VDD VSS NAND2_X1
X_1090_ _0349_ _0350_ _0339_ _0036_ VDD VSS OAI21_X1
X_1091_ _0262_ _0338_ _0351_ VDD VSS NAND2_X1
X_1092_ _0347_ cam_memory\[13\]\[5\] _0352_ VDD VSS NAND2_X1
X_1093_ _0351_ _0352_ _0339_ _0037_ VDD VSS OAI21_X1
X_1094_ _0267_ _0338_ _0353_ VDD VSS NAND2_X1
X_1095_ _0347_ cam_memory\[13\]\[6\] _0354_ VDD VSS NAND2_X1
X_1096_ _0353_ _0354_ _0339_ _0038_ VDD VSS OAI21_X1
X_1097_ _0271_ _0338_ _0355_ VDD VSS NAND2_X1
X_1098_ _0347_ cam_memory\[13\]\[7\] _0356_ VDD VSS NAND2_X1
X_1099_ _0355_ _0356_ _0339_ _0039_ VDD VSS OAI21_X1
X_1100_ _0276_ _0316_ _0357_ VDD VSS NOR2_X2
X_1101_ _0357_ _0358_ VDD VSS BUF_X2
X_1102_ _0232_ _0358_ _0359_ VDD VSS NAND2_X1
X_1103_ _0347_ cam_memory\[14\]\[0\] _0360_ VDD VSS NAND2_X1
X_1104_ _0359_ _0360_ _0358_ _0040_ VDD VSS OAI21_X1
X_1105_ _0246_ _0358_ _0361_ VDD VSS NAND2_X1
X_1106_ _0347_ cam_memory\[14\]\[1\] _0362_ VDD VSS NAND2_X1
X_1107_ _0361_ _0362_ _0358_ _0041_ VDD VSS OAI21_X1
X_1108_ _0250_ _0357_ _0363_ VDD VSS NAND2_X1
X_1109_ _0347_ cam_memory\[14\]\[2\] _0364_ VDD VSS NAND2_X1
X_1110_ _0363_ _0364_ _0358_ _0042_ VDD VSS OAI21_X1
X_1111_ _0254_ _0357_ _0365_ VDD VSS NAND2_X1
X_1112_ _0347_ cam_memory\[14\]\[3\] _0366_ VDD VSS NAND2_X1
X_1113_ _0365_ _0366_ _0358_ _0043_ VDD VSS OAI21_X1
X_1114_ _0258_ _0357_ _0367_ VDD VSS NAND2_X1
X_1115_ _0347_ cam_memory\[14\]\[4\] _0368_ VDD VSS NAND2_X1
X_1116_ _0367_ _0368_ _0358_ _0044_ VDD VSS OAI21_X1
X_1117_ _0262_ _0357_ _0369_ VDD VSS NAND2_X1
X_1118_ _0242_ _0370_ VDD VSS CLKBUF_X3
X_1119_ _0370_ cam_memory\[14\]\[5\] _0371_ VDD VSS NAND2_X1
X_1120_ _0369_ _0371_ _0358_ _0045_ VDD VSS OAI21_X1
X_1121_ _0267_ _0357_ _0372_ VDD VSS NAND2_X1
X_1122_ _0370_ cam_memory\[14\]\[6\] _0373_ VDD VSS NAND2_X1
X_1123_ _0372_ _0373_ _0358_ _0046_ VDD VSS OAI21_X1
X_1124_ _0271_ _0357_ _0374_ VDD VSS NAND2_X1
X_1125_ _0370_ cam_memory\[14\]\[7\] _0375_ VDD VSS NAND2_X1
X_1126_ _0374_ _0375_ _0358_ _0047_ VDD VSS OAI21_X1
X_1127_ _0297_ _0316_ _0376_ VDD VSS NOR2_X4
X_1128_ _0376_ _0377_ VDD VSS BUF_X2
X_1129_ _0232_ _0377_ _0378_ VDD VSS NAND2_X1
X_1130_ _0370_ cam_memory\[15\]\[0\] _0379_ VDD VSS NAND2_X1
X_1131_ _0378_ _0379_ _0377_ _0048_ VDD VSS OAI21_X1
X_1132_ _0246_ _0377_ _0380_ VDD VSS NAND2_X1
X_1133_ _0370_ cam_memory\[15\]\[1\] _0381_ VDD VSS NAND2_X1
X_1134_ _0380_ _0381_ _0377_ _0049_ VDD VSS OAI21_X1
X_1135_ _0250_ _0376_ _0382_ VDD VSS NAND2_X1
X_1136_ _0370_ cam_memory\[15\]\[2\] _0383_ VDD VSS NAND2_X1
X_1137_ _0382_ _0383_ _0377_ _0050_ VDD VSS OAI21_X1
X_1138_ _0254_ _0376_ _0384_ VDD VSS NAND2_X1
X_1139_ _0370_ cam_memory\[15\]\[3\] _0385_ VDD VSS NAND2_X1
X_1140_ _0384_ _0385_ _0377_ _0051_ VDD VSS OAI21_X1
X_1141_ _0258_ _0376_ _0386_ VDD VSS NAND2_X1
X_1142_ _0370_ cam_memory\[15\]\[4\] _0387_ VDD VSS NAND2_X1
X_1143_ _0386_ _0387_ _0377_ _0052_ VDD VSS OAI21_X1
X_1144_ _0262_ _0376_ _0388_ VDD VSS NAND2_X1
X_1145_ _0370_ cam_memory\[15\]\[5\] _0389_ VDD VSS NAND2_X1
X_1146_ _0388_ _0389_ _0377_ _0053_ VDD VSS OAI21_X1
X_1147_ _0267_ _0376_ _0390_ VDD VSS NAND2_X1
X_1148_ _0370_ cam_memory\[15\]\[6\] _0391_ VDD VSS NAND2_X1
X_1149_ _0390_ _0391_ _0377_ _0054_ VDD VSS OAI21_X1
X_1150_ _0271_ _0376_ _0392_ VDD VSS NAND2_X1
X_1151_ _0241_ _0393_ VDD VSS CLKBUF_X3
X_1152_ _0393_ cam_memory\[15\]\[7\] _0394_ VDD VSS NAND2_X1
X_1153_ _0392_ _0394_ _0377_ _0055_ VDD VSS OAI21_X1
X_1154_ _0233_ _0234_ _0337_ _0395_ VDD VSS NOR3_X4
X_1155_ _0395_ _0396_ VDD VSS BUF_X2
X_1156_ _0232_ _0396_ _0397_ VDD VSS NAND2_X1
X_1157_ _0393_ cam_memory\[1\]\[0\] _0398_ VDD VSS NAND2_X1
X_1158_ _0397_ _0398_ _0396_ _0056_ VDD VSS OAI21_X1
X_1159_ _0246_ _0396_ _0399_ VDD VSS NAND2_X1
X_1160_ _0393_ cam_memory\[1\]\[1\] _0400_ VDD VSS NAND2_X1
X_1161_ _0399_ _0400_ _0396_ _0057_ VDD VSS OAI21_X1
X_1162_ _0250_ _0395_ _0401_ VDD VSS NAND2_X1
X_1163_ _0393_ cam_memory\[1\]\[2\] _0402_ VDD VSS NAND2_X1
X_1164_ _0401_ _0402_ _0396_ _0058_ VDD VSS OAI21_X1
X_1165_ _0254_ _0395_ _0403_ VDD VSS NAND2_X1
X_1166_ _0393_ cam_memory\[1\]\[3\] _0404_ VDD VSS NAND2_X1
X_1167_ _0403_ _0404_ _0396_ _0059_ VDD VSS OAI21_X1
X_1168_ _0258_ _0395_ _0405_ VDD VSS NAND2_X1
X_1169_ _0393_ cam_memory\[1\]\[4\] _0406_ VDD VSS NAND2_X1
X_1170_ _0405_ _0406_ _0396_ _0060_ VDD VSS OAI21_X1
X_1171_ _0262_ _0395_ _0407_ VDD VSS NAND2_X1
X_1172_ _0393_ cam_memory\[1\]\[5\] _0408_ VDD VSS NAND2_X1
X_1173_ _0407_ _0408_ _0396_ _0061_ VDD VSS OAI21_X1
X_1174_ _0267_ _0395_ _0409_ VDD VSS NAND2_X1
X_1175_ _0393_ cam_memory\[1\]\[6\] _0410_ VDD VSS NAND2_X1
X_1176_ _0409_ _0410_ _0396_ _0062_ VDD VSS OAI21_X1
X_1177_ _0271_ _0395_ _0411_ VDD VSS NAND2_X1
X_1178_ _0393_ cam_memory\[1\]\[7\] _0412_ VDD VSS NAND2_X1
X_1179_ _0411_ _0412_ _0396_ _0063_ VDD VSS OAI21_X1
X_1180_ _0233_ _0234_ _0276_ _0413_ VDD VSS NOR3_X4
X_1181_ _0413_ _0414_ VDD VSS BUF_X2
X_1182_ _0232_ _0414_ _0415_ VDD VSS NAND2_X1
X_1183_ _0393_ cam_memory\[2\]\[0\] _0416_ VDD VSS NAND2_X1
X_1184_ _0415_ _0416_ _0414_ _0064_ VDD VSS OAI21_X1
X_1185_ _0246_ _0414_ _0417_ VDD VSS NAND2_X1
X_1186_ _0241_ _0418_ VDD VSS CLKBUF_X3
X_1187_ _0418_ cam_memory\[2\]\[1\] _0419_ VDD VSS NAND2_X1
X_1188_ _0417_ _0419_ _0414_ _0065_ VDD VSS OAI21_X1
X_1189_ _0250_ _0413_ _0420_ VDD VSS NAND2_X1
X_1190_ _0418_ cam_memory\[2\]\[2\] _0421_ VDD VSS NAND2_X1
X_1191_ _0420_ _0421_ _0414_ _0066_ VDD VSS OAI21_X1
X_1192_ _0254_ _0413_ _0422_ VDD VSS NAND2_X1
X_1193_ _0418_ cam_memory\[2\]\[3\] _0423_ VDD VSS NAND2_X1
X_1194_ _0422_ _0423_ _0414_ _0067_ VDD VSS OAI21_X1
X_1195_ _0258_ _0413_ _0424_ VDD VSS NAND2_X1
X_1196_ _0418_ cam_memory\[2\]\[4\] _0425_ VDD VSS NAND2_X1
X_1197_ _0424_ _0425_ _0414_ _0068_ VDD VSS OAI21_X1
X_1198_ _0262_ _0413_ _0426_ VDD VSS NAND2_X1
X_1199_ _0418_ cam_memory\[2\]\[5\] _0427_ VDD VSS NAND2_X1
X_1200_ _0426_ _0427_ _0414_ _0069_ VDD VSS OAI21_X1
X_1201_ _0267_ _0413_ _0428_ VDD VSS NAND2_X1
X_1202_ _0418_ cam_memory\[2\]\[6\] _0429_ VDD VSS NAND2_X1
X_1203_ _0428_ _0429_ _0414_ _0070_ VDD VSS OAI21_X1
X_1204_ _0271_ _0413_ _0430_ VDD VSS NAND2_X1
X_1205_ _0418_ cam_memory\[2\]\[7\] _0431_ VDD VSS NAND2_X1
X_1206_ _0430_ _0431_ _0414_ _0071_ VDD VSS OAI21_X1
X_1207_ _0233_ _0234_ _0297_ _0432_ VDD VSS NOR3_X4
X_1208_ _0432_ _0433_ VDD VSS BUF_X2
X_1209_ _0232_ _0433_ _0434_ VDD VSS NAND2_X1
X_1210_ _0418_ cam_memory\[3\]\[0\] _0435_ VDD VSS NAND2_X1
X_1211_ _0434_ _0435_ _0433_ _0072_ VDD VSS OAI21_X1
X_1212_ _0246_ _0433_ _0436_ VDD VSS NAND2_X1
X_1213_ _0418_ cam_memory\[3\]\[1\] _0437_ VDD VSS NAND2_X1
X_1214_ _0436_ _0437_ _0433_ _0073_ VDD VSS OAI21_X1
X_1215_ _0250_ _0432_ _0438_ VDD VSS NAND2_X1
X_1216_ _0418_ cam_memory\[3\]\[2\] _0439_ VDD VSS NAND2_X1
X_1217_ _0438_ _0439_ _0433_ _0074_ VDD VSS OAI21_X1
X_1218_ _0254_ _0432_ _0440_ VDD VSS NAND2_X1
X_1219_ _0241_ _0441_ VDD VSS CLKBUF_X3
X_1220_ _0441_ cam_memory\[3\]\[3\] _0442_ VDD VSS NAND2_X1
X_1221_ _0440_ _0442_ _0433_ _0075_ VDD VSS OAI21_X1
X_1222_ _0258_ _0432_ _0443_ VDD VSS NAND2_X1
X_1223_ _0441_ cam_memory\[3\]\[4\] _0444_ VDD VSS NAND2_X1
X_1224_ _0443_ _0444_ _0433_ _0076_ VDD VSS OAI21_X1
X_1225_ _0262_ _0432_ _0445_ VDD VSS NAND2_X1
X_1226_ _0441_ cam_memory\[3\]\[5\] _0446_ VDD VSS NAND2_X1
X_1227_ _0445_ _0446_ _0433_ _0077_ VDD VSS OAI21_X1
X_1228_ _0267_ _0432_ _0447_ VDD VSS NAND2_X1
X_1229_ _0441_ cam_memory\[3\]\[6\] _0448_ VDD VSS NAND2_X1
X_1230_ _0447_ _0448_ _0433_ _0078_ VDD VSS OAI21_X1
X_1231_ _0271_ _0432_ _0449_ VDD VSS NAND2_X1
X_1232_ _0441_ cam_memory\[3\]\[7\] _0450_ VDD VSS NAND2_X1
X_1233_ _0449_ _0450_ _0433_ _0079_ VDD VSS OAI21_X1
X_1234_ _0233_ _0451_ VDD VSS INV_X2
X_1235_ _0451_ _0234_ _0452_ VDD VSS NAND2_X4
X_1236_ _0237_ _0452_ _0453_ VDD VSS NOR2_X4
X_1237_ _0453_ _0454_ VDD VSS BUF_X2
X_1238_ _0231_ _0454_ _0455_ VDD VSS NAND2_X1
X_1239_ _0441_ cam_memory\[4\]\[0\] _0456_ VDD VSS NAND2_X1
X_1240_ _0455_ _0456_ _0454_ _0080_ VDD VSS OAI21_X1
X_1241_ _0245_ _0454_ _0457_ VDD VSS NAND2_X1
X_1242_ _0441_ cam_memory\[4\]\[1\] _0458_ VDD VSS NAND2_X1
X_1243_ _0457_ _0458_ _0454_ _0081_ VDD VSS OAI21_X1
X_1244_ _0249_ _0453_ _0459_ VDD VSS NAND2_X1
X_1245_ _0441_ cam_memory\[4\]\[2\] _0460_ VDD VSS NAND2_X1
X_1246_ _0459_ _0460_ _0454_ _0082_ VDD VSS OAI21_X1
X_1247_ _0253_ _0453_ _0461_ VDD VSS NAND2_X1
X_1248_ _0441_ cam_memory\[4\]\[3\] _0462_ VDD VSS NAND2_X1
X_1249_ _0461_ _0462_ _0454_ _0083_ VDD VSS OAI21_X1
X_1250_ _0257_ _0453_ _0463_ VDD VSS NAND2_X1
X_1251_ _0441_ cam_memory\[4\]\[4\] _0464_ VDD VSS NAND2_X1
X_1252_ _0463_ _0464_ _0454_ _0084_ VDD VSS OAI21_X1
X_1253_ _0261_ _0453_ _0465_ VDD VSS NAND2_X1
X_1254_ _0241_ _0466_ VDD VSS CLKBUF_X3
X_1255_ _0466_ cam_memory\[4\]\[5\] _0467_ VDD VSS NAND2_X1
X_1256_ _0465_ _0467_ _0454_ _0085_ VDD VSS OAI21_X1
X_1257_ _0266_ _0453_ _0468_ VDD VSS NAND2_X1
X_1258_ _0466_ cam_memory\[4\]\[6\] _0469_ VDD VSS NAND2_X1
X_1259_ _0468_ _0469_ _0454_ _0086_ VDD VSS OAI21_X1
X_1260_ _0270_ _0453_ _0470_ VDD VSS NAND2_X1
X_1261_ _0466_ cam_memory\[4\]\[7\] _0471_ VDD VSS NAND2_X1
X_1262_ _0470_ _0471_ _0454_ _0087_ VDD VSS OAI21_X1
X_1263_ _0337_ _0452_ _0472_ VDD VSS NOR2_X4
X_1264_ _0472_ _0473_ VDD VSS BUF_X2
X_1265_ _0231_ _0473_ _0474_ VDD VSS NAND2_X1
X_1266_ _0466_ cam_memory\[5\]\[0\] _0475_ VDD VSS NAND2_X1
X_1267_ _0474_ _0475_ _0473_ _0088_ VDD VSS OAI21_X1
X_1268_ _0245_ _0473_ _0476_ VDD VSS NAND2_X1
X_1269_ _0466_ cam_memory\[5\]\[1\] _0477_ VDD VSS NAND2_X1
X_1270_ _0476_ _0477_ _0473_ _0089_ VDD VSS OAI21_X1
X_1271_ _0249_ _0472_ _0478_ VDD VSS NAND2_X1
X_1272_ _0466_ cam_memory\[5\]\[2\] _0479_ VDD VSS NAND2_X1
X_1273_ _0478_ _0479_ _0473_ _0090_ VDD VSS OAI21_X1
X_1274_ _0253_ _0472_ _0480_ VDD VSS NAND2_X1
X_1275_ _0466_ cam_memory\[5\]\[3\] _0481_ VDD VSS NAND2_X1
X_1276_ _0480_ _0481_ _0473_ _0091_ VDD VSS OAI21_X1
X_1277_ _0257_ _0472_ _0482_ VDD VSS NAND2_X1
X_1278_ _0466_ cam_memory\[5\]\[4\] _0483_ VDD VSS NAND2_X1
X_1279_ _0482_ _0483_ _0473_ _0092_ VDD VSS OAI21_X1
X_1280_ _0261_ _0472_ _0484_ VDD VSS NAND2_X1
X_1281_ _0466_ cam_memory\[5\]\[5\] _0485_ VDD VSS NAND2_X1
X_1282_ _0484_ _0485_ _0473_ _0093_ VDD VSS OAI21_X1
X_1283_ _0266_ _0472_ _0486_ VDD VSS NAND2_X1
X_1284_ _0466_ cam_memory\[5\]\[6\] _0487_ VDD VSS NAND2_X1
X_1285_ _0486_ _0487_ _0473_ _0094_ VDD VSS OAI21_X1
X_1286_ _0270_ _0472_ _0488_ VDD VSS NAND2_X1
X_1287_ _0241_ _0489_ VDD VSS BUF_X2
X_1288_ _0489_ cam_memory\[5\]\[7\] _0490_ VDD VSS NAND2_X1
X_1289_ _0488_ _0490_ _0473_ _0095_ VDD VSS OAI21_X1
X_1290_ _0276_ _0452_ _0491_ VDD VSS NOR2_X4
X_1291_ _0491_ _0492_ VDD VSS BUF_X2
X_1292_ _0231_ _0492_ _0493_ VDD VSS NAND2_X1
X_1293_ _0489_ cam_memory\[6\]\[0\] _0494_ VDD VSS NAND2_X1
X_1294_ _0493_ _0494_ _0492_ _0096_ VDD VSS OAI21_X1
X_1295_ _0245_ _0492_ _0495_ VDD VSS NAND2_X1
X_1296_ _0489_ cam_memory\[6\]\[1\] _0496_ VDD VSS NAND2_X1
X_1297_ _0495_ _0496_ _0492_ _0097_ VDD VSS OAI21_X1
X_1298_ _0249_ _0491_ _0497_ VDD VSS NAND2_X1
X_1299_ _0489_ cam_memory\[6\]\[2\] _0498_ VDD VSS NAND2_X1
X_1300_ _0497_ _0498_ _0492_ _0098_ VDD VSS OAI21_X1
X_1301_ _0253_ _0491_ _0499_ VDD VSS NAND2_X1
X_1302_ _0489_ cam_memory\[6\]\[3\] _0500_ VDD VSS NAND2_X1
X_1303_ _0499_ _0500_ _0492_ _0099_ VDD VSS OAI21_X1
X_1304_ _0257_ _0491_ _0501_ VDD VSS NAND2_X1
X_1305_ _0489_ cam_memory\[6\]\[4\] _0502_ VDD VSS NAND2_X1
X_1306_ _0501_ _0502_ _0492_ _0100_ VDD VSS OAI21_X1
X_1307_ _0261_ _0491_ _0503_ VDD VSS NAND2_X1
X_1308_ _0489_ cam_memory\[6\]\[5\] _0504_ VDD VSS NAND2_X1
X_1309_ _0503_ _0504_ _0492_ _0101_ VDD VSS OAI21_X1
X_1310_ _0266_ _0491_ _0505_ VDD VSS NAND2_X1
X_1311_ _0489_ cam_memory\[6\]\[6\] _0506_ VDD VSS NAND2_X1
X_1312_ _0505_ _0506_ _0492_ _0102_ VDD VSS OAI21_X1
X_1313_ _0270_ _0491_ _0507_ VDD VSS NAND2_X1
X_1314_ _0489_ cam_memory\[6\]\[7\] _0508_ VDD VSS NAND2_X1
X_1315_ _0507_ _0508_ _0492_ _0103_ VDD VSS OAI21_X1
X_1316_ _0297_ _0452_ _0509_ VDD VSS NOR2_X4
X_1317_ _0509_ _0510_ VDD VSS BUF_X2
X_1318_ _0231_ _0510_ _0511_ VDD VSS NAND2_X1
X_1319_ _0489_ cam_memory\[7\]\[0\] _0512_ VDD VSS NAND2_X1
X_1320_ _0511_ _0512_ _0510_ _0104_ VDD VSS OAI21_X1
X_1321_ _0245_ _0510_ _0513_ VDD VSS NAND2_X1
X_1322_ _0241_ _0514_ VDD VSS CLKBUF_X3
X_1323_ _0514_ cam_memory\[7\]\[1\] _0515_ VDD VSS NAND2_X1
X_1324_ _0513_ _0515_ _0510_ _0105_ VDD VSS OAI21_X1
X_1325_ _0249_ _0509_ _0516_ VDD VSS NAND2_X1
X_1326_ _0514_ cam_memory\[7\]\[2\] _0517_ VDD VSS NAND2_X1
X_1327_ _0516_ _0517_ _0510_ _0106_ VDD VSS OAI21_X1
X_1328_ _0253_ _0509_ _0518_ VDD VSS NAND2_X1
X_1329_ _0514_ cam_memory\[7\]\[3\] _0519_ VDD VSS NAND2_X1
X_1330_ _0518_ _0519_ _0510_ _0107_ VDD VSS OAI21_X1
X_1331_ _0257_ _0509_ _0520_ VDD VSS NAND2_X1
X_1332_ _0514_ cam_memory\[7\]\[4\] _0521_ VDD VSS NAND2_X1
X_1333_ _0520_ _0521_ _0510_ _0108_ VDD VSS OAI21_X1
X_1334_ _0261_ _0509_ _0522_ VDD VSS NAND2_X1
X_1335_ _0514_ cam_memory\[7\]\[5\] _0523_ VDD VSS NAND2_X1
X_1336_ _0522_ _0523_ _0510_ _0109_ VDD VSS OAI21_X1
X_1337_ _0266_ _0509_ _0524_ VDD VSS NAND2_X1
X_1338_ _0514_ cam_memory\[7\]\[6\] _0525_ VDD VSS NAND2_X1
X_1339_ _0524_ _0525_ _0510_ _0110_ VDD VSS OAI21_X1
X_1340_ _0270_ _0509_ _0526_ VDD VSS NAND2_X1
X_1341_ _0514_ cam_memory\[7\]\[7\] _0527_ VDD VSS NAND2_X1
X_1342_ _0526_ _0527_ _0510_ _0111_ VDD VSS OAI21_X1
X_1343_ _0237_ _0275_ _0528_ VDD VSS NOR2_X2
X_1344_ _0528_ _0529_ VDD VSS BUF_X2
X_1345_ _0231_ _0529_ _0530_ VDD VSS NAND2_X1
X_1346_ _0514_ cam_memory\[8\]\[0\] _0531_ VDD VSS NAND2_X1
X_1347_ _0530_ _0531_ _0529_ _0112_ VDD VSS OAI21_X1
X_1348_ _0245_ _0529_ _0532_ VDD VSS NAND2_X1
X_1349_ _0514_ cam_memory\[8\]\[1\] _0533_ VDD VSS NAND2_X1
X_1350_ _0532_ _0533_ _0529_ _0113_ VDD VSS OAI21_X1
X_1351_ _0249_ _0528_ _0534_ VDD VSS NAND2_X1
X_1352_ _0514_ cam_memory\[8\]\[2\] _0535_ VDD VSS NAND2_X1
X_1353_ _0534_ _0535_ _0529_ _0114_ VDD VSS OAI21_X1
X_1354_ _0253_ _0528_ _0536_ VDD VSS NAND2_X1
X_1355_ _0241_ _0537_ VDD VSS CLKBUF_X3
X_1356_ _0537_ cam_memory\[8\]\[3\] _0538_ VDD VSS NAND2_X1
X_1357_ _0536_ _0538_ _0529_ _0115_ VDD VSS OAI21_X1
X_1358_ _0257_ _0528_ _0539_ VDD VSS NAND2_X1
X_1359_ _0537_ cam_memory\[8\]\[4\] _0540_ VDD VSS NAND2_X1
X_1360_ _0539_ _0540_ _0529_ _0116_ VDD VSS OAI21_X1
X_1361_ _0261_ _0528_ _0541_ VDD VSS NAND2_X1
X_1362_ _0537_ cam_memory\[8\]\[5\] _0542_ VDD VSS NAND2_X1
X_1363_ _0541_ _0542_ _0529_ _0117_ VDD VSS OAI21_X1
X_1364_ _0266_ _0528_ _0543_ VDD VSS NAND2_X1
X_1365_ _0537_ cam_memory\[8\]\[6\] _0544_ VDD VSS NAND2_X1
X_1366_ _0543_ _0544_ _0529_ _0118_ VDD VSS OAI21_X1
X_1367_ _0270_ _0528_ _0545_ VDD VSS NAND2_X1
X_1368_ _0537_ cam_memory\[8\]\[7\] _0546_ VDD VSS NAND2_X1
X_1369_ _0545_ _0546_ _0529_ _0119_ VDD VSS OAI21_X1
X_1370_ _0275_ _0337_ _0547_ VDD VSS NOR2_X2
X_1371_ _0547_ _0548_ VDD VSS BUF_X2
X_1372_ _0231_ _0548_ _0549_ VDD VSS NAND2_X1
X_1373_ _0537_ cam_memory\[9\]\[0\] _0550_ VDD VSS NAND2_X1
X_1374_ _0549_ _0550_ _0548_ _0120_ VDD VSS OAI21_X1
X_1375_ _0245_ _0548_ _0551_ VDD VSS NAND2_X1
X_1376_ _0537_ cam_memory\[9\]\[1\] _0552_ VDD VSS NAND2_X1
X_1377_ _0551_ _0552_ _0548_ _0121_ VDD VSS OAI21_X1
X_1378_ _0249_ _0547_ _0553_ VDD VSS NAND2_X1
X_1379_ _0537_ cam_memory\[9\]\[2\] _0554_ VDD VSS NAND2_X1
X_1380_ _0553_ _0554_ _0548_ _0122_ VDD VSS OAI21_X1
X_1381_ _0253_ _0547_ _0555_ VDD VSS NAND2_X1
X_1382_ _0537_ cam_memory\[9\]\[3\] _0556_ VDD VSS NAND2_X1
X_1383_ _0555_ _0556_ _0548_ _0123_ VDD VSS OAI21_X1
X_1384_ _0257_ _0547_ _0557_ VDD VSS NAND2_X1
X_1385_ _0537_ cam_memory\[9\]\[4\] _0558_ VDD VSS NAND2_X1
X_1386_ _0557_ _0558_ _0548_ _0124_ VDD VSS OAI21_X1
X_1387_ _0261_ _0547_ _0559_ VDD VSS NAND2_X1
X_1388_ _0242_ cam_memory\[9\]\[5\] _0560_ VDD VSS NAND2_X1
X_1389_ _0559_ _0560_ _0548_ _0125_ VDD VSS OAI21_X1
X_1390_ _0266_ _0547_ _0561_ VDD VSS NAND2_X1
X_1391_ _0242_ cam_memory\[9\]\[6\] _0562_ VDD VSS NAND2_X1
X_1392_ _0561_ _0562_ _0548_ _0126_ VDD VSS OAI21_X1
X_1393_ _0270_ _0547_ _0563_ VDD VSS NAND2_X1
X_1394_ _0242_ cam_memory\[9\]\[7\] _0564_ VDD VSS NAND2_X1
X_1395_ _0563_ _0564_ _0548_ _0127_ VDD VSS OAI21_X1
X_1396_ compare_enable _0565_ VDD VSS CLKBUF_X2
X_1397_ _0241_ _0565_ _0133_ VDD VSS AND2_X1
X_1398_ compare_data[0] _0566_ VDD VSS BUF_X4
X_1399_ _0566_ _0567_ VDD VSS BUF_X4
X_1400_ _0567_ cam_memory\[14\]\[0\] _0568_ VDD VSS XNOR2_X1
X_1401_ compare_data[6] _0569_ VDD VSS BUF_X4
X_1402_ _0569_ cam_memory\[14\]\[6\] _0570_ VDD VSS XOR2_X1
X_1403_ compare_data[3] _0571_ VDD VSS BUF_X4
X_1404_ _0571_ cam_memory\[14\]\[3\] _0572_ VDD VSS XOR2_X1
X_1405_ compare_data[7] _0573_ VDD VSS BUF_X4
X_1406_ _0573_ cam_memory\[14\]\[7\] _0574_ VDD VSS XOR2_X1
X_1407_ _0570_ _0572_ _0574_ _0575_ VDD VSS NOR3_X1
X_1408_ compare_data[2] _0576_ VDD VSS BUF_X4
X_1409_ _0576_ _0577_ VDD VSS BUF_X8
X_1410_ _0577_ cam_memory\[14\]\[2\] _0578_ VDD VSS XOR2_X1
X_1411_ compare_data[1] _0579_ VDD VSS BUF_X8
X_1412_ _0579_ cam_memory\[14\]\[1\] _0580_ VDD VSS XOR2_X1
X_1413_ compare_data[4] _0581_ VDD VSS BUF_X8
X_1414_ _0581_ cam_memory\[14\]\[4\] _0582_ VDD VSS XOR2_X1
X_1415_ compare_data[5] _0583_ VDD VSS BUF_X4
X_1416_ _0583_ cam_memory\[14\]\[5\] _0584_ VDD VSS XOR2_X1
X_1417_ _0578_ _0580_ _0582_ _0584_ _0585_ VDD VSS NOR4_X1
X_1418_ valid_bits\[14\] _0568_ _0575_ _0585_ _0586_ VDD VSS
+ AND4_X2
X_1419_ _0567_ cam_memory\[15\]\[0\] _0587_ VDD VSS XNOR2_X1
X_1420_ _0569_ cam_memory\[15\]\[6\] _0588_ VDD VSS XOR2_X1
X_1421_ _0571_ cam_memory\[15\]\[3\] _0589_ VDD VSS XOR2_X1
X_1422_ _0573_ cam_memory\[15\]\[7\] _0590_ VDD VSS XOR2_X1
X_1423_ _0588_ _0589_ _0590_ _0591_ VDD VSS NOR3_X1
X_1424_ _0576_ cam_memory\[15\]\[2\] _0592_ VDD VSS XOR2_X1
X_1425_ _0579_ cam_memory\[15\]\[1\] _0593_ VDD VSS XOR2_X1
X_1426_ _0581_ cam_memory\[15\]\[4\] _0594_ VDD VSS XOR2_X1
X_1427_ _0583_ cam_memory\[15\]\[5\] _0595_ VDD VSS XOR2_X1
X_1428_ _0592_ _0593_ _0594_ _0595_ _0596_ VDD VSS NOR4_X1
X_1429_ valid_bits\[15\] _0587_ _0591_ _0596_ _0597_ VDD VSS
+ AND4_X2
X_1430_ _0567_ cam_memory\[12\]\[0\] _0598_ VDD VSS XNOR2_X1
X_1431_ _0569_ cam_memory\[12\]\[6\] _0599_ VDD VSS XOR2_X2
X_1432_ _0583_ cam_memory\[12\]\[5\] _0600_ VDD VSS XOR2_X2
X_1433_ _0573_ cam_memory\[12\]\[7\] _0601_ VDD VSS XOR2_X2
X_1434_ _0599_ _0600_ _0601_ _0602_ VDD VSS NOR3_X2
X_1435_ _0581_ cam_memory\[12\]\[4\] _0603_ VDD VSS XOR2_X2
X_1436_ _0576_ cam_memory\[12\]\[2\] _0604_ VDD VSS XOR2_X2
X_1437_ _0571_ cam_memory\[12\]\[3\] _0605_ VDD VSS XOR2_X2
X_1438_ _0579_ cam_memory\[12\]\[1\] _0606_ VDD VSS XOR2_X2
X_1439_ _0603_ _0604_ _0605_ _0606_ _0607_ VDD VSS NOR4_X2
X_1440_ valid_bits\[12\] _0598_ _0602_ _0607_ _0608_ VDD VSS
+ AND4_X1
X_1441_ _0566_ cam_memory\[13\]\[0\] _0609_ VDD VSS XNOR2_X1
X_1442_ _0569_ cam_memory\[13\]\[6\] _0610_ VDD VSS XOR2_X1
X_1443_ _0583_ cam_memory\[13\]\[5\] _0611_ VDD VSS XOR2_X1
X_1444_ _0573_ cam_memory\[13\]\[7\] _0612_ VDD VSS XOR2_X1
X_1445_ _0610_ _0611_ _0612_ _0613_ VDD VSS NOR3_X1
X_1446_ _0581_ cam_memory\[13\]\[4\] _0614_ VDD VSS XOR2_X1
X_1447_ _0576_ cam_memory\[13\]\[2\] _0615_ VDD VSS XOR2_X1
X_1448_ _0571_ cam_memory\[13\]\[3\] _0616_ VDD VSS XOR2_X1
X_1449_ _0579_ cam_memory\[13\]\[1\] _0617_ VDD VSS XOR2_X1
X_1450_ _0614_ _0615_ _0616_ _0617_ _0618_ VDD VSS NOR4_X1
X_1451_ valid_bits\[13\] _0609_ _0613_ _0618_ _0619_ VDD VSS
+ AND4_X1
X_1452_ _0586_ _0597_ _0608_ _0619_ _0620_ VDD VSS NOR4_X2
X_1453_ _0567_ cam_memory\[10\]\[0\] _0621_ VDD VSS XNOR2_X1
X_1454_ _0583_ _0622_ VDD VSS BUF_X8
X_1455_ _0622_ cam_memory\[10\]\[5\] _0623_ VDD VSS XOR2_X2
X_1456_ _0581_ _0624_ VDD VSS BUF_X16
X_1457_ _0624_ cam_memory\[10\]\[4\] _0625_ VDD VSS XOR2_X2
X_1458_ _0573_ _0626_ VDD VSS BUF_X8
X_1459_ _0626_ cam_memory\[10\]\[7\] _0627_ VDD VSS XOR2_X2
X_1460_ _0623_ _0625_ _0627_ _0628_ VDD VSS NOR3_X2
X_1461_ _0571_ _0629_ VDD VSS BUF_X16
X_1462_ _0629_ cam_memory\[10\]\[3\] _0630_ VDD VSS XOR2_X2
X_1463_ _0579_ cam_memory\[10\]\[1\] _0631_ VDD VSS XOR2_X2
X_1464_ _0576_ cam_memory\[10\]\[2\] _0632_ VDD VSS XOR2_X2
X_1465_ _0569_ cam_memory\[10\]\[6\] _0633_ VDD VSS XOR2_X2
X_1466_ _0630_ _0631_ _0632_ _0633_ _0634_ VDD VSS NOR4_X2
X_1467_ valid_bits\[10\] _0621_ _0628_ _0634_ _0635_ VDD VSS
+ AND4_X1
X_1468_ _0579_ _0636_ VDD VSS BUF_X16
X_1469_ _0636_ cam_memory\[11\]\[1\] _0637_ VDD VSS XNOR2_X1
X_1470_ _0569_ _0638_ VDD VSS BUF_X8
X_1471_ _0638_ cam_memory\[11\]\[6\] _0639_ VDD VSS XOR2_X1
X_1472_ _0583_ cam_memory\[11\]\[5\] _0640_ VDD VSS XOR2_X1
X_1473_ _0573_ cam_memory\[11\]\[7\] _0641_ VDD VSS XOR2_X1
X_1474_ _0639_ _0640_ _0641_ _0642_ VDD VSS NOR3_X1
X_1475_ _0629_ cam_memory\[11\]\[3\] _0643_ VDD VSS XOR2_X1
X_1476_ _0566_ cam_memory\[11\]\[0\] _0644_ VDD VSS XOR2_X1
X_1477_ _0576_ cam_memory\[11\]\[2\] _0645_ VDD VSS XOR2_X1
X_1478_ _0581_ cam_memory\[11\]\[4\] _0646_ VDD VSS XOR2_X1
X_1479_ _0643_ _0644_ _0645_ _0646_ _0647_ VDD VSS NOR4_X1
X_1480_ valid_bits\[11\] _0637_ _0642_ _0647_ _0648_ VDD VSS
+ AND4_X1
X_1481_ _0636_ cam_memory\[9\]\[1\] _0649_ VDD VSS XNOR2_X1
X_1482_ _0626_ cam_memory\[9\]\[7\] _0650_ VDD VSS XNOR2_X1
X_1483_ _0629_ cam_memory\[9\]\[3\] _0651_ VDD VSS XNOR2_X1
X_1484_ _0649_ _0650_ _0651_ _0652_ VDD VSS NAND3_X1
X_1485_ _0622_ cam_memory\[9\]\[5\] _0653_ VDD VSS XNOR2_X1
X_1486_ _0577_ cam_memory\[9\]\[2\] _0654_ VDD VSS XNOR2_X1
X_1487_ _0566_ cam_memory\[9\]\[0\] _0655_ VDD VSS XNOR2_X1
X_1488_ _0624_ cam_memory\[9\]\[4\] _0656_ VDD VSS XNOR2_X1
X_1489_ _0653_ _0654_ _0655_ _0656_ _0657_ VDD VSS NAND4_X1
X_1490_ _0638_ cam_memory\[9\]\[6\] _0658_ VDD VSS XNOR2_X1
X_1491_ valid_bits\[9\] _0658_ _0659_ VDD VSS NAND2_X1
X_1492_ _0577_ cam_memory\[8\]\[2\] _0660_ VDD VSS XNOR2_X1
X_1493_ _0638_ cam_memory\[8\]\[6\] _0661_ VDD VSS XNOR2_X1
X_1494_ _0583_ cam_memory\[8\]\[5\] _0662_ VDD VSS XNOR2_X1
X_1495_ _0660_ _0661_ _0662_ _0663_ VDD VSS NAND3_X1
X_1496_ _0573_ cam_memory\[8\]\[7\] _0664_ VDD VSS XNOR2_X1