
* cell elastic_buffer
* pin wr_data[0]
* pin wr_en
* pin wr_rst_n
* pin wr_count[0]
* pin wr_count[1]
* pin wr_count[2]
* pin wr_count[3]
* pin wr_almost_full
* pin wr_full
* pin wr_data[7]
* pin wr_data[3]
* pin rd_rst_n
* pin rd_clk
* pin rd_data[7]
* pin rd_data[3]
* pin rd_en
* pin rd_empty
* pin wr_clk
* pin rd_data[0]
* pin rd_data[1]
* pin rd_count[3]
* pin rd_count[0]
* pin rd_count[1]
* pin rd_almost_empty
* pin rd_count[2]
* pin wr_data[1]
* pin rd_data[5]
* pin rd_data[2]
* pin rd_data[6]
* pin wr_data[6]
* pin rd_data[4]
* pin wr_data[4]
* pin wr_data[5]
* pin wr_data[2]
* pin PWELL,gf180mcu_gnd
* pin NWELL
.SUBCKT elastic_buffer 1 2 3 4 5 11 15 16 29 72 90 126 127 130 131 165 166 174
+ 188 215 241 268 269 270 271 272 354 355 356 357 358 359 360 361 362 363
* net 1 wr_data[0]
* net 2 wr_en
* net 3 wr_rst_n
* net 4 wr_count[0]
* net 5 wr_count[1]
* net 11 wr_count[2]
* net 15 wr_count[3]
* net 16 wr_almost_full
* net 29 wr_full
* net 72 wr_data[7]
* net 90 wr_data[3]
* net 126 rd_rst_n
* net 127 rd_clk
* net 130 rd_data[7]
* net 131 rd_data[3]
* net 165 rd_en
* net 166 rd_empty
* net 174 wr_clk
* net 188 rd_data[0]
* net 215 rd_data[1]
* net 241 rd_count[3]
* net 268 rd_count[0]
* net 269 rd_count[1]
* net 270 rd_almost_empty
* net 271 rd_count[2]
* net 272 wr_data[1]
* net 354 rd_data[5]
* net 355 rd_data[2]
* net 356 rd_data[6]
* net 357 wr_data[6]
* net 358 rd_data[4]
* net 359 wr_data[4]
* net 360 wr_data[5]
* net 361 wr_data[2]
* net 362 PWELL,gf180mcu_gnd
* net 363 NWELL
* cell instance $3 r0 *1 916.72,5.04
X$3 362 1 9 363 gf180mcu_fd_sc_mcu9t5v0__clkbuf_8
* cell instance $8 m0 *1 927.92,15.12
X$8 362 2 10 363 gf180mcu_fd_sc_mcu9t5v0__clkbuf_8
* cell instance $11 r0 *1 944.72,5.04
X$11 362 3 8 363 gf180mcu_fd_sc_mcu9t5v0__clkbuf_12
* cell instance $15 r0 *1 1001.84,5.04
X$15 7 363 362 4 gf180mcu_fd_sc_mcu9t5v0__dlyb_2
* cell instance $19 r0 *1 1018.64,5.04
X$19 6 363 362 5 gf180mcu_fd_sc_mcu9t5v0__dlyb_2
* cell instance $23 r0 *1 1029.84,821.52
X$23 362 363 40 6 gf180mcu_fd_sc_mcu9t5v0__inv_4
* cell instance $28 r0 *1 1069.6,811.44
X$28 363 13 6 18 362 gf180mcu_fd_sc_mcu9t5v0__and2_4
* cell instance $32 r0 *1 1020.88,831.6
X$32 362 363 24 7 gf180mcu_fd_sc_mcu9t5v0__inv_4
* cell instance $36 r0 *1 986.16,902.16
X$36 362 8 67 41 145 363 gf180mcu_fd_sc_mcu9t5v0__dffrnq_2
* cell instance $38 r0 *1 1043.28,912.24
X$38 362 8 102 41 184 363 gf180mcu_fd_sc_mcu9t5v0__dffrnq_2
* cell instance $40 m0 *1 1008,902.16
X$40 362 8 99 41 120 363 gf180mcu_fd_sc_mcu9t5v0__dffrnq_2
* cell instance $43 r0 *1 1024.8,871.92
X$43 362 8 84 41 63 363 gf180mcu_fd_sc_mcu9t5v0__dffrnq_2
* cell instance $45 r0 *1 1023.68,861.84
X$45 362 8 66 41 71 363 gf180mcu_fd_sc_mcu9t5v0__dffrnq_2
* cell instance $47 r0 *1 1044.4,861.84
X$47 362 8 46 41 102 363 gf180mcu_fd_sc_mcu9t5v0__dffrnq_2
* cell instance $49 r0 *1 1039.92,882
X$49 362 8 85 41 101 363 gf180mcu_fd_sc_mcu9t5v0__dffrnq_2
* cell instance $51 r0 *1 1011.92,882
X$51 362 8 100 41 83 363 gf180mcu_fd_sc_mcu9t5v0__dffrnq_2
* cell instance $53 m0 *1 1022,892.08
X$53 362 8 65 41 99 363 gf180mcu_fd_sc_mcu9t5v0__dffrnq_2
* cell instance $56 m0 *1 1002.96,851.76
X$56 362 8 23 41 21 363 gf180mcu_fd_sc_mcu9t5v0__dffrnq_2
* cell instance $59 m0 *1 1027.04,902.16
X$59 362 8 101 41 159 363 gf180mcu_fd_sc_mcu9t5v0__dffrnq_2
* cell instance $61 m0 *1 1047.76,892.08
X$61 362 8 87 41 144 363 gf180mcu_fd_sc_mcu9t5v0__dffrnq_2
* cell instance $63 m0 *1 978.88,851.76
X$63 362 8 43 41 34 363 gf180mcu_fd_sc_mcu9t5v0__dffrnq_2
* cell instance $69 m0 *1 972.72,861.84
X$69 362 8 47 41 60 363 gf180mcu_fd_sc_mcu9t5v0__dffrnq_2
* cell instance $71 m0 *1 1042.72,912.24
X$71 362 8 144 41 143 363 gf180mcu_fd_sc_mcu9t5v0__dffrnq_2
* cell instance $90 r0 *1 941.92,882
X$90 362 363 97 9 54 98 gf180mcu_fd_sc_mcu9t5v0__mux2_2
* cell instance $93 m0 *1 934.08,902.16
X$93 362 363 117 9 116 118 gf180mcu_fd_sc_mcu9t5v0__mux2_2
* cell instance $95 r0 *1 929.6,902.16
X$95 362 363 140 9 51 141 gf180mcu_fd_sc_mcu9t5v0__mux2_2
* cell instance $97 r0 *1 965.44,932.4
X$97 362 363 205 9 153 206 gf180mcu_fd_sc_mcu9t5v0__mux2_2
* cell instance $99 m0 *1 931.84,942.48
X$99 362 363 199 9 150 201 gf180mcu_fd_sc_mcu9t5v0__mux2_2
* cell instance $101 m0 *1 955.36,942.48
X$101 362 363 203 9 139 193 gf180mcu_fd_sc_mcu9t5v0__mux2_2
* cell instance $104 m0 *1 940.24,942.48
X$104 362 363 200 9 151 202 gf180mcu_fd_sc_mcu9t5v0__mux2_2
* cell instance $107 m0 *1 958.72,912.24
X$107 362 363 119 9 55 142 gf180mcu_fd_sc_mcu9t5v0__mux2_2
* cell instance $123 r0 *1 977.76,871.92
X$123 47 10 23 43 362 363 61 gf180mcu_fd_sc_mcu9t5v0__and4_2
* cell instance $126 r0 *1 956.48,871.92
X$126 56 10 47 362 363 54 gf180mcu_fd_sc_mcu9t5v0__and3_4
* cell instance $129 m0 *1 955.92,882
X$129 80 10 47 362 363 51 gf180mcu_fd_sc_mcu9t5v0__and3_4
* cell instance $131 r0 *1 961.52,861.84
X$131 363 57 10 362 58 gf180mcu_fd_sc_mcu9t5v0__and2_2
* cell instance $133 r0 *1 979.44,851.76
X$133 363 10 59 362 42 gf180mcu_fd_sc_mcu9t5v0__and2_2
* cell instance $136 r0 *1 990.08,871.92
X$136 363 47 10 362 82 gf180mcu_fd_sc_mcu9t5v0__and2_2
* cell instance $139 m0 *1 1808.8,811.44
X$139 13 363 362 11 gf180mcu_fd_sc_mcu9t5v0__dlyb_2
* cell instance $142 r0 *1 1055.6,831.6
X$142 362 35 363 31 32 12 gf180mcu_fd_sc_mcu9t5v0__aoi21_2
* cell instance $144 r0 *1 1055.6,841.68
X$144 35 362 363 47 28 12 gf180mcu_fd_sc_mcu9t5v0__addh_1
* cell instance $146 m0 *1 1057.28,831.6
X$146 362 13 19 12 363 gf180mcu_fd_sc_mcu9t5v0__xnor2_4
* cell instance $154 m0 *1 1796.48,811.44
X$154 14 363 362 15 gf180mcu_fd_sc_mcu9t5v0__dlyb_2
* cell instance $156 r0 *1 1064,831.6
X$156 362 14 31 68 363 gf180mcu_fd_sc_mcu9t5v0__xnor2_4
* cell instance $158 r0 *1 1788.64,811.44
X$158 362 14 18 363 17 gf180mcu_fd_sc_mcu9t5v0__or2_2
* cell instance $165 r0 *1 1811.6,811.44
X$165 17 363 362 16 gf180mcu_fd_sc_mcu9t5v0__dlyb_2
* cell instance $179 r0 *1 1029.84,831.6
X$179 362 22 40 27 33 19 363 gf180mcu_fd_sc_mcu9t5v0__addf_2
* cell instance $181 r0 *1 1004.08,871.92
X$181 363 47 362 20 62 22 gf180mcu_fd_sc_mcu9t5v0__oai21_2
* cell instance $184 m0 *1 1014.72,841.68
X$184 362 27 24 36 20 363 gf180mcu_fd_sc_mcu9t5v0__addh_2
* cell instance $191 m0 *1 980,882
X$191 23 363 20 59 362 80 gf180mcu_fd_sc_mcu9t5v0__and3_2
* cell instance $194 r0 *1 976.08,882
X$194 22 20 59 58 362 363 129 gf180mcu_fd_sc_mcu9t5v0__and4_2
* cell instance $196 m0 *1 990.64,882
X$196 22 20 59 82 362 363 106 gf180mcu_fd_sc_mcu9t5v0__and4_2
* cell instance $199 r0 *1 990.08,851.76
X$199 362 363 43 20 gf180mcu_fd_sc_mcu9t5v0__clkinv_3
* cell instance $201 r0 *1 978.32,841.68
X$201 363 20 42 362 34 gf180mcu_fd_sc_mcu9t5v0__xnor2_2
* cell instance $204 r0 *1 1005.76,851.76
X$204 362 363 21 45 42 23 gf180mcu_fd_sc_mcu9t5v0__mux2_2
* cell instance $208 r0 *1 1008.56,841.68
X$208 362 363 23 22 gf180mcu_fd_sc_mcu9t5v0__inv_2
* cell instance $218 r0 *1 971.6,871.92
X$218 22 363 43 59 362 56 gf180mcu_fd_sc_mcu9t5v0__and3_2
* cell instance $235 m0 *1 972.72,882
X$235 23 43 59 58 362 363 107 gf180mcu_fd_sc_mcu9t5v0__and4_2
* cell instance $237 m0 *1 999.04,861.84
X$237 44 362 363 43 23 45 gf180mcu_fd_sc_mcu9t5v0__addh_1
* cell instance $241 m0 *1 1026.48,841.68
X$241 38 362 363 23 25 26 gf180mcu_fd_sc_mcu9t5v0__addh_1
* cell instance $245 m0 *1 1030.4,851.76
X$245 363 65 25 362 36 gf180mcu_fd_sc_mcu9t5v0__xnor2_2
* cell instance $247 r0 *1 1058.4,851.76
X$247 46 362 28 363 25 gf180mcu_fd_sc_mcu9t5v0__xor2_2
* cell instance $252 m0 *1 1047.2,841.68
X$252 362 363 25 33 gf180mcu_fd_sc_mcu9t5v0__clkinv_2
* cell instance $256 m0 *1 1036,841.68
X$256 362 363 26 37 gf180mcu_fd_sc_mcu9t5v0__clkinv_2
* cell instance $258 m0 *1 1039.36,841.68
X$258 363 39 362 27 32 37 gf180mcu_fd_sc_mcu9t5v0__oai21_2
* cell instance $265 m0 *1 1057.28,882
X$265 363 87 85 362 28 gf180mcu_fd_sc_mcu9t5v0__xnor2_2
* cell instance $272 m0 *1 1811.6,841.68
X$272 30 363 362 29 gf180mcu_fd_sc_mcu9t5v0__dlyb_2
* cell instance $278 m0 *1 1083.6,851.76
X$278 362 363 59 30 gf180mcu_fd_sc_mcu9t5v0__inv_3
* cell instance $307 r0 *1 1026.48,831.6
X$307 362 363 38 39 gf180mcu_fd_sc_mcu9t5v0__clkinv_2
* cell instance $315 m0 *1 891.52,972.72
X$315 362 279 41 298 363 gf180mcu_fd_sc_mcu9t5v0__dffq_2
* cell instance $317 m0 *1 828.24,982.8
X$317 362 292 41 290 363 gf180mcu_fd_sc_mcu9t5v0__dffq_2
* cell instance $319 r0 *1 815.36,902.16
X$319 362 109 41 128 363 gf180mcu_fd_sc_mcu9t5v0__dffq_2
* cell instance $322 r0 *1 955.36,962.64
X$322 362 277 41 285 363 gf180mcu_fd_sc_mcu9t5v0__dffq_2
* cell instance $324 m0 *1 966,942.48
X$324 362 206 41 205 363 gf180mcu_fd_sc_mcu9t5v0__dffq_2
* cell instance $395 r0 *1 859.6,952.56
X$395 362 222 41 275 363 gf180mcu_fd_sc_mcu9t5v0__dffq_2
* cell instance $397 m0 *1 876.96,932.4
X$397 362 178 41 177 363 gf180mcu_fd_sc_mcu9t5v0__dffq_2
* cell instance $399 r0 *1 860.72,932.4
X$399 362 197 41 219 363 gf180mcu_fd_sc_mcu9t5v0__dffq_2
* cell instance $403 m0 *1 860.72,902.16
X$403 362 115 41 114 363 gf180mcu_fd_sc_mcu9t5v0__dffq_2
* cell instance $410 m0 *1 878.64,952.56
X$410 362 224 41 223 363 gf180mcu_fd_sc_mcu9t5v0__dffq_2
* cell instance $415 r0 *1 824.88,882
X$415 362 91 41 105 363 gf180mcu_fd_sc_mcu9t5v0__dffq_2
* cell instance $417 m0 *1 956.48,962.64
X$417 362 262 41 261 363 gf180mcu_fd_sc_mcu9t5v0__dffq_2
* cell instance $419 m0 *1 845.04,962.64
X$419 362 255 41 253 363 gf180mcu_fd_sc_mcu9t5v0__dffq_2
* cell instance $422 m0 *1 815.92,912.24
X$422 362 133 41 146 363 gf180mcu_fd_sc_mcu9t5v0__dffq_2
* cell instance $424 r0 *1 818.16,952.56
X$424 362 252 41 246 363 gf180mcu_fd_sc_mcu9t5v0__dffq_2
* cell instance $426 m0 *1 822.64,882
X$426 362 52 41 73 363 gf180mcu_fd_sc_mcu9t5v0__dffq_2
* cell instance $429 m0 *1 841.12,882
X$429 362 53 41 89 363 gf180mcu_fd_sc_mcu9t5v0__dffq_2
* cell instance $432 r0 *1 926.24,932.4
X$432 362 201 41 199 363 gf180mcu_fd_sc_mcu9t5v0__dffq_2
* cell instance $434 m0 *1 930.16,932.4
X$434 362 202 41 200 363 gf180mcu_fd_sc_mcu9t5v0__dffq_2
* cell instance $437 m0 *1 914.48,962.64
X$437 362 259 41 276 363 gf180mcu_fd_sc_mcu9t5v0__dffq_2
* cell instance $439 m0 *1 931.28,962.64
X$439 362 284 41 260 363 gf180mcu_fd_sc_mcu9t5v0__dffq_2
* cell instance $441 m0 *1 920.08,1023.12
X$441 362 332 41 343 363 gf180mcu_fd_sc_mcu9t5v0__dffq_2
* cell instance $443 m0 *1 895.44,952.56
X$443 362 248 41 225 363 gf180mcu_fd_sc_mcu9t5v0__dffq_2
* cell instance $446 m0 *1 936.32,892.08
X$446 362 98 41 97 363 gf180mcu_fd_sc_mcu9t5v0__dffq_2
* cell instance $448 r0 *1 928.48,892.08
X$448 362 118 41 117 363 gf180mcu_fd_sc_mcu9t5v0__dffq_2
* cell instance $451 m0 *1 949.76,932.4
X$451 362 193 41 203 363 gf180mcu_fd_sc_mcu9t5v0__dffq_2
* cell instance $454 r0 *1 842.8,1013.04
X$454 362 340 41 323 363 gf180mcu_fd_sc_mcu9t5v0__dffq_2
* cell instance $457 m0 *1 878.08,882
X$457 362 77 41 76 363 gf180mcu_fd_sc_mcu9t5v0__dffq_2
* cell instance $460 r0 *1 824.32,962.64
X$460 362 278 41 289 363 gf180mcu_fd_sc_mcu9t5v0__dffq_2
* cell instance $463 m0 *1 857.92,882
X$463 362 75 41 74 363 gf180mcu_fd_sc_mcu9t5v0__dffq_2
* cell instance $466 r0 *1 907.2,882
X$466 362 96 41 108 363 gf180mcu_fd_sc_mcu9t5v0__dffq_2
* cell instance $468 r0 *1 902.72,871.92
X$468 362 79 41 78 363 gf180mcu_fd_sc_mcu9t5v0__dffq_2
* cell instance $470 m0 *1 935.2,992.88
X$470 362 312 41 311 363 gf180mcu_fd_sc_mcu9t5v0__dffq_2
* cell instance $472 m0 *1 842.8,932.4
X$472 362 196 41 195 363 gf180mcu_fd_sc_mcu9t5v0__dffq_2
* cell instance $475 r0 *1 818.16,932.4
X$475 362 194 41 218 363 gf180mcu_fd_sc_mcu9t5v0__dffq_2
* cell instance $477 m0 *1 818.16,932.4
X$477 362 176 41 190 363 gf180mcu_fd_sc_mcu9t5v0__dffq_2
* cell instance $480 r0 *1 939.68,1013.04
X$480 362 334 41 344 363 gf180mcu_fd_sc_mcu9t5v0__dffq_2
* cell instance $482 r0 *1 899.36,1013.04
X$482 362 330 41 342 363 gf180mcu_fd_sc_mcu9t5v0__dffq_2
* cell instance $484 m0 *1 883.68,1023.12
X$484 362 329 41 341 363 gf180mcu_fd_sc_mcu9t5v0__dffq_2
* cell instance $486 m0 *1 922.88,912.24
X$486 362 141 41 140 363 gf180mcu_fd_sc_mcu9t5v0__dffq_2
* cell instance $490 r0 *1 837.2,902.16
X$490 362 111 41 110 363 gf180mcu_fd_sc_mcu9t5v0__dffq_2
* cell instance $494 r0 *1 856.8,1002.96
X$494 362 327 41 326 363 gf180mcu_fd_sc_mcu9t5v0__dffq_2
* cell instance $496 r0 *1 881.44,882
X$496 362 95 41 94 363 gf180mcu_fd_sc_mcu9t5v0__dffq_2
* cell instance $498 r0 *1 819.84,982.8
X$498 362 291 41 305 363 gf180mcu_fd_sc_mcu9t5v0__dffq_2
* cell instance $501 m0 *1 888.16,942.48
X$501 362 179 41 198 363 gf180mcu_fd_sc_mcu9t5v0__dffq_2
* cell instance $503 r0 *1 972.16,952.56
X$503 362 263 41 227 363 gf180mcu_fd_sc_mcu9t5v0__dffq_2
* cell instance $505 r0 *1 864.08,982.8
X$505 362 297 41 296 363 gf180mcu_fd_sc_mcu9t5v0__dffq_2
* cell instance $510 r0 *1 987.28,982.8
X$510 362 318 41 317 363 gf180mcu_fd_sc_mcu9t5v0__dffq_2
* cell instance $513 m0 *1 967.68,1002.96
X$513 362 316 41 335 363 gf180mcu_fd_sc_mcu9t5v0__dffq_2
* cell instance $515 r0 *1 907.2,922.32
X$515 362 181 41 180 363 gf180mcu_fd_sc_mcu9t5v0__dffq_2
* cell instance $517 m0 *1 958.72,992.88
X$517 362 314 41 313 363 gf180mcu_fd_sc_mcu9t5v0__dffq_2
* cell instance $519 m0 *1 915.6,1002.96
X$519 362 310 41 309 363 gf180mcu_fd_sc_mcu9t5v0__dffq_2
* cell instance $521 r0 *1 2.24,922.32
X$521 362 174 41 363 gf180mcu_fd_sc_mcu9t5v0__buf_20
* cell instance $524 m0 *1 875.28,982.8
X$524 362 256 41 304 363 gf180mcu_fd_sc_mcu9t5v0__dffq_2
* cell instance $527 r0 *1 910.56,972.72
X$527 362 281 41 299 363 gf180mcu_fd_sc_mcu9t5v0__dffq_2
* cell instance $530 r0 *1 905.52,912.24
X$530 362 154 41 138 363 gf180mcu_fd_sc_mcu9t5v0__dffq_2
* cell instance $534 r0 *1 875.84,1002.96
X$534 362 328 41 337 363 gf180mcu_fd_sc_mcu9t5v0__dffq_2
* cell instance $536 r0 *1 952.56,902.16
X$536 362 142 41 119 363 gf180mcu_fd_sc_mcu9t5v0__dffq_2
* cell instance $540 r0 *1 845.04,982.8
X$540 362 306 41 319 363 gf180mcu_fd_sc_mcu9t5v0__dffq_2
* cell instance $543 r0 *1 990.64,962.64
X$543 362 287 41 264 363 gf180mcu_fd_sc_mcu9t5v0__dffq_2
* cell instance $545 m0 *1 897.68,992.88
X$545 362 308 41 307 363 gf180mcu_fd_sc_mcu9t5v0__dffq_2
* cell instance $547 r0 *1 959.84,982.8
X$547 362 315 41 300 363 gf180mcu_fd_sc_mcu9t5v0__dffq_2
* cell instance $551 r0 *1 929.6,972.72
X$551 362 283 41 282 363 gf180mcu_fd_sc_mcu9t5v0__dffq_2
* cell instance $554 r0 *1 823.2,1013.04
X$554 362 322 41 320 363 gf180mcu_fd_sc_mcu9t5v0__dffq_2
* cell instance $559 m0 *1 821.52,1013.04
X$559 362 321 41 336 363 gf180mcu_fd_sc_mcu9t5v0__dffq_2
* cell instance $561 m0 *1 1024.8,871.92
X$561 362 363 63 64 42 84 gf180mcu_fd_sc_mcu9t5v0__mux2_2
* cell instance $563 m0 *1 1025.92,861.84
X$563 362 363 71 48 42 66 gf180mcu_fd_sc_mcu9t5v0__mux2_2
* cell instance $570 m0 *1 1015.28,882
X$570 362 363 83 88 42 100 gf180mcu_fd_sc_mcu9t5v0__mux2_2
* cell instance $578 m0 *1 991.76,861.84
X$578 363 44 42 362 49 gf180mcu_fd_sc_mcu9t5v0__and2_2
* cell instance $592 m0 *1 1008.56,861.84
X$592 363 43 45 362 48 gf180mcu_fd_sc_mcu9t5v0__xnor2_2
* cell instance $599 r0 *1 1001.84,861.84
X$599 362 47 64 44 45 363 gf180mcu_fd_sc_mcu9t5v0__xor3_2
* cell instance $601 m0 *1 999.6,882
X$601 362 44 67 88 62 363 gf180mcu_fd_sc_mcu9t5v0__xnor3_2
* cell instance $611 r0 *1 1063.44,861.84
X$611 46 362 84 363 69 gf180mcu_fd_sc_mcu9t5v0__xor2_2
* cell instance $626 m0 *1 956.48,861.84
X$626 362 363 47 57 gf180mcu_fd_sc_mcu9t5v0__clkinv_2
* cell instance $634 r0 *1 968.8,861.84
X$634 363 57 49 362 60 gf180mcu_fd_sc_mcu9t5v0__xnor2_2
* cell instance $639 r0 *1 823.76,912.24
X$639 362 363 146 50 151 133 gf180mcu_fd_sc_mcu9t5v0__mux2_2
* cell instance $641 r0 *1 852.32,871.92
X$641 362 363 89 50 54 53 gf180mcu_fd_sc_mcu9t5v0__mux2_2
* cell instance $644 r0 *1 862.96,871.92
X$644 362 363 74 50 55 75 gf180mcu_fd_sc_mcu9t5v0__mux2_2
* cell instance $647 m0 *1 845.6,902.16
X$647 362 363 110 50 139 111 gf180mcu_fd_sc_mcu9t5v0__mux2_2
* cell instance $649 r0 *1 865.2,902.16
X$649 362 363 114 50 153 115 gf180mcu_fd_sc_mcu9t5v0__mux2_2
* cell instance $651 m0 *1 831.04,892.08
X$651 362 363 105 50 116 91 gf180mcu_fd_sc_mcu9t5v0__mux2_2
* cell instance $653 r0 *1 828.8,871.92
X$653 362 363 73 50 51 52 gf180mcu_fd_sc_mcu9t5v0__mux2_2
* cell instance $656 m0 *1 823.2,902.16
X$656 362 363 128 50 150 109 gf180mcu_fd_sc_mcu9t5v0__mux2_2
* cell instance $666 m0 *1 16.8,882
X$666 362 72 50 363 gf180mcu_fd_sc_mcu9t5v0__clkbuf_8
* cell instance $668 m0 *1 878.64,892.08
X$668 362 363 76 86 51 77 gf180mcu_fd_sc_mcu9t5v0__mux2_2
* cell instance $670 m0 *1 960.4,972.72
X$670 362 363 285 226 51 277 gf180mcu_fd_sc_mcu9t5v0__mux2_2
* cell instance $672 r0 *1 882,972.72
X$672 362 363 304 258 51 256 gf180mcu_fd_sc_mcu9t5v0__mux2_2
* cell instance $674 m0 *1 826.56,952.56
X$674 362 363 246 221 51 252 gf180mcu_fd_sc_mcu9t5v0__mux2_2
* cell instance $677 r0 *1 826,922.32
X$677 362 363 190 175 51 176 gf180mcu_fd_sc_mcu9t5v0__mux2_2
* cell instance $679 m0 *1 916.16,972.72
X$679 362 363 299 280 51 281 gf180mcu_fd_sc_mcu9t5v0__mux2_2
* cell instance $693 m0 *1 843.36,892.08
X$693 362 135 93 75 52 92 91 53 363 gf180mcu_fd_sc_mcu9t5v0__mux4_2
* cell instance $704 r0 *1 960.96,952.56
X$704 362 363 261 226 54 262 gf180mcu_fd_sc_mcu9t5v0__mux2_2
* cell instance $708 m0 *1 850.08,942.48
X$708 362 363 195 175 54 196 gf180mcu_fd_sc_mcu9t5v0__mux2_2
* cell instance $710 r0 *1 899.36,972.72
X$710 362 363 298 258 54 279 gf180mcu_fd_sc_mcu9t5v0__mux2_2
* cell instance $712 r0 *1 851.2,952.56
X$712 362 363 253 221 54 255 gf180mcu_fd_sc_mcu9t5v0__mux2_2
* cell instance $714 m0 *1 904.96,882
X$714 362 363 78 86 54 79 gf180mcu_fd_sc_mcu9t5v0__mux2_2
* cell instance $723 m0 *1 934.64,972.72
X$723 362 363 282 280 54 283 gf180mcu_fd_sc_mcu9t5v0__mux2_2
* cell instance $729 r0 *1 900.48,952.56
X$729 362 363 225 258 55 248 gf180mcu_fd_sc_mcu9t5v0__mux2_2
* cell instance $731 r0 *1 994,952.56
X$731 362 363 264 226 55 287 gf180mcu_fd_sc_mcu9t5v0__mux2_2
* cell instance $733 m0 *1 864.08,932.4
X$733 362 363 219 175 55 197 gf180mcu_fd_sc_mcu9t5v0__mux2_2
* cell instance $735 m0 *1 862.96,952.56
X$735 362 363 275 221 55 222 gf180mcu_fd_sc_mcu9t5v0__mux2_2
* cell instance $737 r0 *1 936.32,952.56
X$737 362 363 260 280 55 284 gf180mcu_fd_sc_mcu9t5v0__mux2_2
* cell instance $739 m0 *1 915.04,892.08
X$739 362 363 108 86 55 96 gf180mcu_fd_sc_mcu9t5v0__mux2_2
* cell instance $755 r0 *1 999.6,882
X$755 362 363 106 55 gf180mcu_fd_sc_mcu9t5v0__buf_4
* cell instance $762 r0 *1 966.56,882
X$762 363 56 58 139 362 gf180mcu_fd_sc_mcu9t5v0__and2_4
* cell instance $775 m0 *1 961.52,892.08
X$775 363 80 58 150 362 gf180mcu_fd_sc_mcu9t5v0__and2_4
* cell instance $781 m0 *1 1064.56,871.92
X$781 362 59 69 103 70 68 363 gf180mcu_fd_sc_mcu9t5v0__or4_4
* cell instance $798 r0 *1 985.04,871.92
X$798 363 59 61 362 81 gf180mcu_fd_sc_mcu9t5v0__and2_2
* cell instance $818 m0 *1 1053.92,871.92
X$818 65 362 66 363 70 gf180mcu_fd_sc_mcu9t5v0__xor2_2
* cell instance $828 m0 *1 1074.64,892.08
X$828 362 122 104 121 66 363 gf180mcu_fd_sc_mcu9t5v0__dffrnq_2
* cell instance $832 r0 *1 1058.4,871.92
X$832 363 85 67 362 68 gf180mcu_fd_sc_mcu9t5v0__xnor2_2
* cell instance $838 m0 *1 1057.28,922.32
X$838 362 122 161 121 67 363 gf180mcu_fd_sc_mcu9t5v0__dffrnq_2
* cell instance $840 m0 *1 985.04,912.24
X$840 67 362 116 363 145 gf180mcu_fd_sc_mcu9t5v0__xor2_2
* cell instance $869 m0 *1 896,892.08
X$869 362 136 93 96 77 92 95 79 363 gf180mcu_fd_sc_mcu9t5v0__mux4_2
* cell instance $890 r0 *1 985.04,882
X$890 362 81 116 363 gf180mcu_fd_sc_mcu9t5v0__clkbuf_8
* cell instance $903 r0 *1 1071.84,892.08
X$903 362 122 123 121 84 363 gf180mcu_fd_sc_mcu9t5v0__dffrnq_2
* cell instance $912 m0 *1 910,912.24
X$912 362 363 138 86 139 154 gf180mcu_fd_sc_mcu9t5v0__mux2_2
* cell instance $917 m0 *1 887.04,892.08
X$917 362 363 94 86 116 95 gf180mcu_fd_sc_mcu9t5v0__mux2_2
* cell instance $920 r0 *1 911.68,932.4
X$920 362 363 180 86 153 181 gf180mcu_fd_sc_mcu9t5v0__mux2_2
* cell instance $923 r0 *1 889.84,932.4
X$923 362 363 198 86 151 179 gf180mcu_fd_sc_mcu9t5v0__mux2_2
* cell instance $926 r0 *1 882.56,922.32
X$926 362 363 177 86 150 178 gf180mcu_fd_sc_mcu9t5v0__mux2_2
* cell instance $939 m0 *1 2.24,882
X$939 362 90 86 363 gf180mcu_fd_sc_mcu9t5v0__clkbuf_8
* cell instance $944 r0 *1 1061.2,882
X$944 87 362 100 363 103 gf180mcu_fd_sc_mcu9t5v0__xor2_2
* cell instance $963 m0 *1 939.68,912.24
X$963 362 172 93 142 141 92 118 98 363 gf180mcu_fd_sc_mcu9t5v0__mux4_2
* cell instance $965 r0 *1 841.68,932.4
X$965 362 254 93 197 176 92 194 196 363 gf180mcu_fd_sc_mcu9t5v0__mux4_2
* cell instance $979 m0 *1 999.04,952.56
X$979 362 229 92 363 gf180mcu_fd_sc_mcu9t5v0__clkbuf_8
* cell instance $982 r0 *1 844.48,962.64
X$982 362 294 93 222 252 92 278 255 363 gf180mcu_fd_sc_mcu9t5v0__mux4_2
* cell instance $985 r0 *1 925.12,962.64
X$985 362 331 93 284 281 92 259 283 363 gf180mcu_fd_sc_mcu9t5v0__mux4_2
* cell instance $988 m0 *1 837.76,912.24
X$988 362 147 93 115 109 92 133 111 363 gf180mcu_fd_sc_mcu9t5v0__mux4_2
* cell instance $990 m0 *1 888.16,962.64
X$990 362 257 93 248 256 92 224 279 363 gf180mcu_fd_sc_mcu9t5v0__mux4_2
* cell instance $994 m0 *1 978.88,962.64
X$994 362 286 93 287 277 92 263 262 363 gf180mcu_fd_sc_mcu9t5v0__mux4_2
* cell instance $996 m0 *1 1015.28,942.48
X$996 362 363 92 217 93 gf180mcu_fd_sc_mcu9t5v0__nand2_2
* cell instance $1022 r0 *1 1010.8,932.4
X$1022 362 363 208 93 gf180mcu_fd_sc_mcu9t5v0__buf_4
* cell instance $1054 m0 *1 1062.32,912.24
X$1054 362 122 170 121 100 363 gf180mcu_fd_sc_mcu9t5v0__dffrnq_2
* cell instance $1069 r0 *1 1098.72,892.08
X$1069 362 122 125 121 104 363 gf180mcu_fd_sc_mcu9t5v0__dffrnq_2
* cell instance $1082 r0 *1 971.6,902.16
X$1082 362 107 151 363 gf180mcu_fd_sc_mcu9t5v0__clkbuf_8
* cell instance $1098 r0 *1 856.24,902.16
X$1098 362 363 112 134 152 113 gf180mcu_fd_sc_mcu9t5v0__mux2_2
* cell instance $1100 m0 *1 856.8,912.24
X$1100 362 122 113 121 112 363 gf180mcu_fd_sc_mcu9t5v0__dffrnq_4
* cell instance $1102 r0 *1 18.48,902.16
X$1102 113 363 362 130 gf180mcu_fd_sc_mcu9t5v0__dlyb_2
* cell instance $1118 r0 *1 882.56,952.56
X$1118 362 363 223 258 116 224 gf180mcu_fd_sc_mcu9t5v0__mux2_2
* cell instance $1121 m0 *1 835.52,962.64
X$1121 362 363 289 221 116 278 gf180mcu_fd_sc_mcu9t5v0__mux2_2
* cell instance $1123 m0 *1 979.44,952.56
X$1123 362 363 227 226 116 263 gf180mcu_fd_sc_mcu9t5v0__mux2_2
* cell instance $1126 m0 *1 826.56,942.48
X$1126 362 363 218 175 116 194 gf180mcu_fd_sc_mcu9t5v0__mux2_2
* cell instance $1137 r0 *1 917.84,952.56
X$1137 362 363 276 280 116 259 gf180mcu_fd_sc_mcu9t5v0__mux2_2
* cell instance $1155 r0 *1 1000.72,912.24
X$1155 362 122 120 121 156 363 gf180mcu_fd_sc_mcu9t5v0__dffrnq_2
* cell instance $1157 m0 *1 1103.2,922.32
X$1157 363 125 120 362 163 gf180mcu_fd_sc_mcu9t5v0__xnor2_2
* cell instance $1162 m0 *1 1004.64,922.32
X$1162 362 363 156 157 152 120 gf180mcu_fd_sc_mcu9t5v0__mux2_2
* cell instance $1198 m0 *1 1006.88,982.8
X$1198 362 122 239 121 302 363 gf180mcu_fd_sc_mcu9t5v0__dffrnq_4
* cell instance $1201 m0 *1 1050.56,932.4
X$1201 362 122 143 121 189 363 gf180mcu_fd_sc_mcu9t5v0__dffrnq_2
* cell instance $1203 r0 *1 1020.32,962.64
X$1203 362 122 231 121 288 363 gf180mcu_fd_sc_mcu9t5v0__dffrnq_2
* cell instance $1207 r0 *1 905.52,1033.2
X$1207 362 122 352 121 351 363 gf180mcu_fd_sc_mcu9t5v0__dffrnq_4
* cell instance $1210 m0 *1 1089.76,902.16
X$1210 362 122 124 121 123 363 gf180mcu_fd_sc_mcu9t5v0__dffrnq_2
* cell instance $1212 r0 *1 851.76,1043.28
X$1212 362 122 347 121 348 363 gf180mcu_fd_sc_mcu9t5v0__dffrnq_4
* cell instance $1214 m0 *1 1071.84,932.4
X$1214 362 122 185 121 161 363 gf180mcu_fd_sc_mcu9t5v0__dffrnq_2
* cell instance $1216 m0 *1 1046.64,942.48
X$1216 362 122 184 121 249 363 gf180mcu_fd_sc_mcu9t5v0__dffrnq_2
* cell instance $1218 r0 *1 1029.84,922.32
X$1218 362 122 159 121 160 363 gf180mcu_fd_sc_mcu9t5v0__dffrnq_2
* cell instance $1221 m0 *1 855.12,1043.28
X$1221 362 122 339 121 353 363 gf180mcu_fd_sc_mcu9t5v0__dffrnq_4
* cell instance $1225 r0 *1 872.48,1033.2
X$1225 362 122 350 121 349 363 gf180mcu_fd_sc_mcu9t5v0__dffrnq_4
* cell instance $1228 r0 *1 1076.88,912.24
X$1228 362 122 162 121 170 363 gf180mcu_fd_sc_mcu9t5v0__dffrnq_2
* cell instance $1231 r0 *1 991.76,932.4
X$1231 362 122 208 121 220 363 gf180mcu_fd_sc_mcu9t5v0__dffrnq_2
* cell instance $1233 r0 *1 1042.16,952.56
X$1233 362 122 229 121 250 363 gf180mcu_fd_sc_mcu9t5v0__dffrnq_2
* cell instance $1235 r0 *1 1777.44,892.08
X$1235 362 127 121 363 gf180mcu_fd_sc_mcu9t5v0__clkbuf_12
* cell instance $1237 r0 *1 876.96,912.24
X$1237 362 122 132 121 148 363 gf180mcu_fd_sc_mcu9t5v0__dffrnq_4
* cell instance $1240 r0 *1 974.96,922.32
X$1240 362 122 171 121 192 363 gf180mcu_fd_sc_mcu9t5v0__dffrnq_4
* cell instance $1295 m0 *1 1774.08,902.16
X$1295 362 126 122 363 gf180mcu_fd_sc_mcu9t5v0__buf_12
* cell instance $1306 r0 *1 1099.84,922.32
X$1306 363 124 184 362 187 gf180mcu_fd_sc_mcu9t5v0__xnor2_2
* cell instance $1308 r0 *1 1102.08,932.4
X$1308 124 362 186 363 211 gf180mcu_fd_sc_mcu9t5v0__xor2_2
* cell instance $1312 r0 *1 1112.16,932.4
X$1312 363 125 211 362 214 gf180mcu_fd_sc_mcu9t5v0__xnor2_2
* cell instance $1325 r0 *1 980,892.08
X$1325 362 363 129 153 gf180mcu_fd_sc_mcu9t5v0__buf_4
* cell instance $1330 m0 *1 10.64,912.24
X$1330 132 363 362 131 gf180mcu_fd_sc_mcu9t5v0__dlyb_2
* cell instance $1337 m0 *1 888.16,912.24
X$1337 362 363 148 149 152 132 gf180mcu_fd_sc_mcu9t5v0__mux2_2
* cell instance $1344 r0 *1 848.4,912.24
X$1344 362 363 134 135 137 147 gf180mcu_fd_sc_mcu9t5v0__mux2_2
* cell instance $1352 m0 *1 899.36,912.24
X$1352 362 363 149 136 137 191 gf180mcu_fd_sc_mcu9t5v0__mux2_2
* cell instance $1354 m0 *1 946.4,922.32
X$1354 362 363 173 172 137 155 gf180mcu_fd_sc_mcu9t5v0__mux2_2
* cell instance $1358 r0 *1 982.24,972.72
X$1358 362 363 303 286 137 301 gf180mcu_fd_sc_mcu9t5v0__mux2_2
* cell instance $1360 m0 *1 930.72,1013.04
X$1360 362 363 345 331 137 333 gf180mcu_fd_sc_mcu9t5v0__mux2_2
* cell instance $1363 m0 *1 887.6,1013.04
X$1363 362 363 346 257 137 338 gf180mcu_fd_sc_mcu9t5v0__mux2_2
* cell instance $1381 r0 *1 848.96,972.72
X$1381 362 363 293 254 137 295 gf180mcu_fd_sc_mcu9t5v0__mux2_2
* cell instance $1383 m0 *1 849.52,1002.96
X$1383 362 363 324 294 137 325 gf180mcu_fd_sc_mcu9t5v0__mux2_2
* cell instance $1386 r0 *1 1034.32,952.56
X$1386 362 363 137 265 gf180mcu_fd_sc_mcu9t5v0__clkinv_2
* cell instance $1388 m0 *1 1022,932.4
X$1388 182 204 137 183 362 363 158 gf180mcu_fd_sc_mcu9t5v0__and4_2
* cell instance $1390 m0 *1 1026.48,962.64
X$1390 362 231 137 363 gf180mcu_fd_sc_mcu9t5v0__clkbuf_8
* cell instance $1395 m0 *1 851.2,992.88
X$1395 362 363 319 175 139 306 gf180mcu_fd_sc_mcu9t5v0__mux2_2
* cell instance $1399 r0 *1 848.4,1002.96
X$1399 362 363 323 221 139 340 gf180mcu_fd_sc_mcu9t5v0__mux2_2
* cell instance $1402 r0 *1 971.6,992.88
X$1402 362 363 335 226 139 316 gf180mcu_fd_sc_mcu9t5v0__mux2_2
* cell instance $1404 m0 *1 903.28,1013.04
X$1404 362 363 342 258 139 330 gf180mcu_fd_sc_mcu9t5v0__mux2_2
* cell instance $1416 m0 *1 943.04,1013.04
X$1416 362 363 344 280 139 334 gf180mcu_fd_sc_mcu9t5v0__mux2_2
* cell instance $1433 m0 *1 1092.56,922.32
X$1433 363 162 143 362 169 gf180mcu_fd_sc_mcu9t5v0__xnor2_2
* cell instance $1440 m0 *1 1042.16,932.4
X$1440 362 363 189 210 183 143 gf180mcu_fd_sc_mcu9t5v0__mux2_2
* cell instance $1466 m0 *1 827.12,992.88
X$1466 362 363 305 175 150 291 gf180mcu_fd_sc_mcu9t5v0__mux2_2
* cell instance $1468 r0 *1 921.2,992.88
X$1468 362 363 309 280 150 310 gf180mcu_fd_sc_mcu9t5v0__mux2_2
* cell instance $1473 m0 *1 882,1002.96
X$1473 362 363 337 258 150 328 gf180mcu_fd_sc_mcu9t5v0__mux2_2
* cell instance $1475 r0 *1 961.52,992.88
X$1475 362 363 313 226 150 314 gf180mcu_fd_sc_mcu9t5v0__mux2_2
* cell instance $1487 r0 *1 828.24,1002.96
X$1487 362 363 336 221 150 321 gf180mcu_fd_sc_mcu9t5v0__mux2_2
* cell instance $1492 r0 *1 836.64,982.8
X$1492 362 363 290 175 151 292 gf180mcu_fd_sc_mcu9t5v0__mux2_2
* cell instance $1494 m0 *1 966,982.8
X$1494 362 363 300 226 151 315 gf180mcu_fd_sc_mcu9t5v0__mux2_2
* cell instance $1496 m0 *1 829.36,1002.96
X$1496 362 363 320 221 151 322 gf180mcu_fd_sc_mcu9t5v0__mux2_2
* cell instance $1501 r0 *1 889.28,1013.04
X$1501 362 363 341 258 151 329 gf180mcu_fd_sc_mcu9t5v0__mux2_2
* cell instance $1516 r0 *1 926.24,1013.04
X$1516 362 363 343 280 151 332 gf180mcu_fd_sc_mcu9t5v0__mux2_2
* cell instance $1519 r0 *1 1013.04,922.32
X$1519 362 183 152 363 gf180mcu_fd_sc_mcu9t5v0__clkbuf_8
* cell instance $1523 r0 *1 854,1033.2
X$1523 362 363 353 324 152 339 gf180mcu_fd_sc_mcu9t5v0__mux2_2
* cell instance $1525 m0 *1 855.12,1033.2
X$1525 362 363 348 293 152 347 gf180mcu_fd_sc_mcu9t5v0__mux2_2
* cell instance $1530 m0 *1 879.76,1033.2
X$1530 362 363 349 346 152 350 gf180mcu_fd_sc_mcu9t5v0__mux2_2
* cell instance $1533 m0 *1 913.36,1033.2
X$1533 362 363 351 345 152 352 gf180mcu_fd_sc_mcu9t5v0__mux2_2
* cell instance $1536 m0 *1 999.04,942.48
X$1536 362 363 220 207 152 204 gf180mcu_fd_sc_mcu9t5v0__mux2_2
* cell instance $1538 m0 *1 977.2,922.32
X$1538 362 363 192 173 152 171 gf180mcu_fd_sc_mcu9t5v0__mux2_2
* cell instance $1548 r0 *1 1008.56,972.72
X$1548 362 363 302 303 152 239 gf180mcu_fd_sc_mcu9t5v0__mux2_2
* cell instance $1550 m0 *1 861.84,1002.96
X$1550 362 363 326 221 153 327 gf180mcu_fd_sc_mcu9t5v0__mux2_2
* cell instance $1552 r0 *1 939.68,992.88
X$1552 362 363 311 280 153 312 gf180mcu_fd_sc_mcu9t5v0__mux2_2
* cell instance $1555 r0 *1 989.52,992.88
X$1555 362 363 317 226 153 318 gf180mcu_fd_sc_mcu9t5v0__mux2_2
* cell instance $1557 m0 *1 864.64,982.8
X$1557 362 363 296 175 153 297 gf180mcu_fd_sc_mcu9t5v0__mux2_2
* cell instance $1559 r0 *1 902.16,992.88
X$1559 362 363 307 258 153 308 gf180mcu_fd_sc_mcu9t5v0__mux2_2
* cell instance $1576 m0 *1 898.8,932.4
X$1576 362 191 204 181 178 182 179 154 363 gf180mcu_fd_sc_mcu9t5v0__mux4_2
* cell instance $1583 r0 *1 946.4,932.4
X$1583 362 155 204 206 201 182 202 193 363 gf180mcu_fd_sc_mcu9t5v0__mux4_2
* cell instance $1588 m0 *1 1000.16,932.4
X$1588 363 182 207 362 157 gf180mcu_fd_sc_mcu9t5v0__xnor2_2
* cell instance $1592 m0 *1 1025.92,922.32
X$1592 159 362 158 363 160 gf180mcu_fd_sc_mcu9t5v0__xor2_2
* cell instance $1595 r0 *1 1088.08,932.4