* CDL Netlist generated by OpenROAD

*.BUSDELIMITER [

.SUBCKT elastic_buffer rd_almost_empty rd_clk rd_count[0]
+ rd_count[1] rd_count[2] rd_count[3] rd_data[0] rd_data[1]
+ rd_data[2] rd_data[3] rd_data[4] rd_data[5] rd_data[6] rd_data[7]
+ rd_empty rd_en rd_rst_n wr_almost_full wr_clk wr_count[0]
+ wr_count[1] wr_count[2] wr_count[3] wr_data[0] wr_data[1]
+ wr_data[2] wr_data[3] wr_data[4] wr_data[5] wr_data[6] wr_data[7]
+ wr_en wr_full wr_rst_n
X_199_ _183_ _173_ net18 VDD VSS gf180mcu_fd_sc_mcu9t5v0__xor2_4
X_200_ wr_ptr_bin_sync\[3\] rd_ptr_bin\[3\] _089_ VDD VSS
+ gf180mcu_fd_sc_mcu9t5v0__xnor2_2
X_201_ _185_ _090_ VDD VSS gf180mcu_fd_sc_mcu9t5v0__clkinv_2
X_202_ _184_ _091_ VDD VSS gf180mcu_fd_sc_mcu9t5v0__clkinv_2
X_203_ _195_ _090_ _091_ _092_ VDD VSS gf180mcu_fd_sc_mcu9t5v0__oai21_2
X_204_ _183_ _092_ _182_ _093_ VDD VSS gf180mcu_fd_sc_mcu9t5v0__aoi21_2
X_205_ _089_ _093_ net19 VDD VSS gf180mcu_fd_sc_mcu9t5v0__xnor2_4
X_206_ _196_ net16 VDD VSS gf180mcu_fd_sc_mcu9t5v0__inv_3
X_207_ rd_ptr_gray_sync2\[2\] rd_ptr_bin_sync\[3\] _189_ VDD
+ VSS gf180mcu_fd_sc_mcu9t5v0__xnor2_2
X_208_ rd_ptr_gray_sync2\[1\] _189_ _186_ VDD VSS gf180mcu_fd_sc_mcu9t5v0__xor2_2
X_209_ _198_ net30 VDD VSS gf180mcu_fd_sc_mcu9t5v0__inv_4
X_210_ _191_ _178_ net32 VDD VSS gf180mcu_fd_sc_mcu9t5v0__xnor2_4
X_211_ rd_ptr_bin_sync\[3\] wr_ptr_bin\[3\] _094_ VDD VSS
+ gf180mcu_fd_sc_mcu9t5v0__xnor2_2
X_212_ _188_ _095_ VDD VSS gf180mcu_fd_sc_mcu9t5v0__clkinv_2
X_213_ _187_ _096_ VDD VSS gf180mcu_fd_sc_mcu9t5v0__clkinv_2
X_214_ _095_ _176_ _096_ _097_ VDD VSS gf180mcu_fd_sc_mcu9t5v0__oai21_2
X_215_ _191_ _097_ _190_ _098_ VDD VSS gf180mcu_fd_sc_mcu9t5v0__aoi21_2
X_216_ _094_ _098_ net33 VDD VSS gf180mcu_fd_sc_mcu9t5v0__xnor2_4
X_217_ wr_ptr_gray_sync2\[0\] rd_ptr_gray\[0\] _099_ VDD VSS
+ gf180mcu_fd_sc_mcu9t5v0__xnor2_2
X_218_ wr_ptr_gray_sync2\[2\] rd_ptr_gray\[2\] _100_ VDD VSS
+ gf180mcu_fd_sc_mcu9t5v0__xnor2_2
X_219_ wr_ptr_gray_sync2\[1\] rd_ptr_gray\[1\] _101_ VDD VSS
+ gf180mcu_fd_sc_mcu9t5v0__xnor2_2
X_220_ _089_ _099_ _100_ _101_ net28 VDD VSS gf180mcu_fd_sc_mcu9t5v0__and4_4
X_221_ rd_ptr_gray_sync2\[0\] wr_ptr_gray\[0\] _102_ VDD VSS
+ gf180mcu_fd_sc_mcu9t5v0__xor2_2
X_222_ rd_ptr_gray_sync2\[2\] wr_ptr_gray\[2\] _103_ VDD VSS
+ gf180mcu_fd_sc_mcu9t5v0__xor2_2
X_223_ rd_ptr_gray_sync2\[1\] wr_ptr_gray\[1\] _104_ VDD VSS
+ gf180mcu_fd_sc_mcu9t5v0__xor2_2
X_224_ _094_ _102_ _103_ _104_ _105_ VDD VSS gf180mcu_fd_sc_mcu9t5v0__or4_4
X_225_ _105_ net34 VDD VSS gf180mcu_fd_sc_mcu9t5v0__inv_3
X_226_ wr_ptr_bin\[0\] _001_ VDD VSS gf180mcu_fd_sc_mcu9t5v0__clkinv_3
X_227_ rd_ptr_bin\[2\] _106_ VDD VSS gf180mcu_fd_sc_mcu9t5v0__clkbuf_8
X_228_ _106_ _180_ VDD VSS gf180mcu_fd_sc_mcu9t5v0__clkinv_2
X_229_ wr_ptr_bin\[1\] _175_ VDD VSS gf180mcu_fd_sc_mcu9t5v0__inv_2
X_230_ _186_ _177_ VDD VSS gf180mcu_fd_sc_mcu9t5v0__clkinv_2
X_231_ wr_ptr_gray_sync2\[2\] wr_ptr_bin_sync\[3\] _181_ VDD
+ VSS gf180mcu_fd_sc_mcu9t5v0__xor2_2
X_232_ wr_ptr_gray_sync2\[1\] _181_ _171_ VDD VSS gf180mcu_fd_sc_mcu9t5v0__xor2_2
X_233_ rd_ptr_gray_sync2\[0\] _186_ _197_ VDD VSS gf180mcu_fd_sc_mcu9t5v0__xnor2_2
X_234_ rd_ptr_bin\[1\] _107_ VDD VSS gf180mcu_fd_sc_mcu9t5v0__buf_4
X_235_ _107_ _172_ VDD VSS gf180mcu_fd_sc_mcu9t5v0__clkinv_2
X_236_ _195_ _170_ VDD VSS gf180mcu_fd_sc_mcu9t5v0__clkinv_2
X_237_ wr_ptr_gray_sync2\[0\] _171_ _194_ VDD VSS gf180mcu_fd_sc_mcu9t5v0__xnor2_2
X_238_ wr_ptr_bin\[2\] _108_ VDD VSS gf180mcu_fd_sc_mcu9t5v0__clkinv_2
X_239_ _108_ net13 _109_ VDD VSS gf180mcu_fd_sc_mcu9t5v0__and2_2
X_240_ _175_ _001_ _105_ _109_ _110_ VDD VSS gf180mcu_fd_sc_mcu9t5v0__and4_2
X_241_ _110_ _111_ VDD VSS gf180mcu_fd_sc_mcu9t5v0__buf_4
X_242_ mem\[0\]\[0\] net5 _111_ _003_ VDD VSS gf180mcu_fd_sc_mcu9t5v0__mux2_2
X_243_ mem\[0\]\[1\] net6 _111_ _004_ VDD VSS gf180mcu_fd_sc_mcu9t5v0__mux2_2
X_244_ mem\[0\]\[2\] net7 _111_ _005_ VDD VSS gf180mcu_fd_sc_mcu9t5v0__mux2_2
X_245_ mem\[0\]\[3\] net8 _111_ _006_ VDD VSS gf180mcu_fd_sc_mcu9t5v0__mux2_2
X_246_ mem\[0\]\[4\] net9 _111_ _007_ VDD VSS gf180mcu_fd_sc_mcu9t5v0__mux2_2
X_247_ mem\[0\]\[5\] net10 _111_ _008_ VDD VSS gf180mcu_fd_sc_mcu9t5v0__mux2_2
X_248_ mem\[0\]\[6\] net11 _111_ _009_ VDD VSS gf180mcu_fd_sc_mcu9t5v0__mux2_2
X_249_ mem\[0\]\[7\] net12 _111_ _010_ VDD VSS gf180mcu_fd_sc_mcu9t5v0__mux2_2
X_250_ _175_ wr_ptr_bin\[0\] _105_ _112_ VDD VSS gf180mcu_fd_sc_mcu9t5v0__and3_2
X_251_ _109_ _112_ _113_ VDD VSS gf180mcu_fd_sc_mcu9t5v0__and2_4
X_252_ mem\[1\]\[0\] net5 _113_ _011_ VDD VSS gf180mcu_fd_sc_mcu9t5v0__mux2_2
X_253_ mem\[1\]\[1\] net6 _113_ _012_ VDD VSS gf180mcu_fd_sc_mcu9t5v0__mux2_2
X_254_ mem\[1\]\[2\] net7 _113_ _013_ VDD VSS gf180mcu_fd_sc_mcu9t5v0__mux2_2
X_255_ mem\[1\]\[3\] net8 _113_ _014_ VDD VSS gf180mcu_fd_sc_mcu9t5v0__mux2_2
X_256_ mem\[1\]\[4\] net9 _113_ _015_ VDD VSS gf180mcu_fd_sc_mcu9t5v0__mux2_2
X_257_ mem\[1\]\[5\] net10 _113_ _016_ VDD VSS gf180mcu_fd_sc_mcu9t5v0__mux2_2
X_258_ mem\[1\]\[6\] net11 _113_ _017_ VDD VSS gf180mcu_fd_sc_mcu9t5v0__mux2_2
X_259_ mem\[1\]\[7\] net12 _113_ _018_ VDD VSS gf180mcu_fd_sc_mcu9t5v0__mux2_2
X_260_ wr_ptr_bin\[1\] _001_ _105_ _114_ VDD VSS gf180mcu_fd_sc_mcu9t5v0__and3_2
X_261_ _109_ _114_ _115_ VDD VSS gf180mcu_fd_sc_mcu9t5v0__and2_4
X_262_ mem\[2\]\[0\] net5 _115_ _019_ VDD VSS gf180mcu_fd_sc_mcu9t5v0__mux2_2
X_263_ mem\[2\]\[1\] net6 _115_ _020_ VDD VSS gf180mcu_fd_sc_mcu9t5v0__mux2_2
X_264_ mem\[2\]\[2\] net7 _115_ _021_ VDD VSS gf180mcu_fd_sc_mcu9t5v0__mux2_2
X_265_ mem\[2\]\[3\] net8 _115_ _022_ VDD VSS gf180mcu_fd_sc_mcu9t5v0__mux2_2
X_266_ mem\[2\]\[4\] net9 _115_ _023_ VDD VSS gf180mcu_fd_sc_mcu9t5v0__mux2_2
X_267_ mem\[2\]\[5\] net10 _115_ _024_ VDD VSS gf180mcu_fd_sc_mcu9t5v0__mux2_2
X_268_ mem\[2\]\[6\] net11 _115_ _025_ VDD VSS gf180mcu_fd_sc_mcu9t5v0__mux2_2
X_269_ mem\[2\]\[7\] net12 _115_ _026_ VDD VSS gf180mcu_fd_sc_mcu9t5v0__mux2_2
X_270_ wr_ptr_bin\[1\] wr_ptr_bin\[0\] _105_ _109_ _116_ VDD
+ VSS gf180mcu_fd_sc_mcu9t5v0__and4_2
X_271_ _116_ _117_ VDD VSS gf180mcu_fd_sc_mcu9t5v0__clkbuf_8
X_272_ mem\[3\]\[0\] net5 _117_ _027_ VDD VSS gf180mcu_fd_sc_mcu9t5v0__mux2_2
X_273_ mem\[3\]\[1\] net6 _117_ _028_ VDD VSS gf180mcu_fd_sc_mcu9t5v0__mux2_2
X_274_ mem\[3\]\[2\] net7 _117_ _029_ VDD VSS gf180mcu_fd_sc_mcu9t5v0__mux2_2
X_275_ mem\[3\]\[3\] net8 _117_ _030_ VDD VSS gf180mcu_fd_sc_mcu9t5v0__mux2_2
X_276_ mem\[3\]\[4\] net9 _117_ _031_ VDD VSS gf180mcu_fd_sc_mcu9t5v0__mux2_2
X_277_ mem\[3\]\[5\] net10 _117_ _032_ VDD VSS gf180mcu_fd_sc_mcu9t5v0__mux2_2
X_278_ mem\[3\]\[6\] net11 _117_ _033_ VDD VSS gf180mcu_fd_sc_mcu9t5v0__mux2_2
X_279_ mem\[3\]\[7\] net12 _117_ _034_ VDD VSS gf180mcu_fd_sc_mcu9t5v0__mux2_2
X_280_ wr_ptr_bin\[2\] net13 _118_ VDD VSS gf180mcu_fd_sc_mcu9t5v0__and2_2
X_281_ _175_ _001_ _105_ _118_ _119_ VDD VSS gf180mcu_fd_sc_mcu9t5v0__and4_2
X_282_ _119_ _120_ VDD VSS gf180mcu_fd_sc_mcu9t5v0__buf_4
X_283_ mem\[4\]\[0\] net5 _120_ _035_ VDD VSS gf180mcu_fd_sc_mcu9t5v0__mux2_2
X_284_ mem\[4\]\[1\] net6 _120_ _036_ VDD VSS gf180mcu_fd_sc_mcu9t5v0__mux2_2
X_285_ mem\[4\]\[2\] net7 _120_ _037_ VDD VSS gf180mcu_fd_sc_mcu9t5v0__mux2_2
X_286_ mem\[4\]\[3\] net8 _120_ _038_ VDD VSS gf180mcu_fd_sc_mcu9t5v0__mux2_2
X_287_ mem\[4\]\[4\] net9 _120_ _039_ VDD VSS gf180mcu_fd_sc_mcu9t5v0__mux2_2
X_288_ mem\[4\]\[5\] net10 _120_ _040_ VDD VSS gf180mcu_fd_sc_mcu9t5v0__mux2_2
X_289_ mem\[4\]\[6\] net11 _120_ _041_ VDD VSS gf180mcu_fd_sc_mcu9t5v0__mux2_2
X_290_ mem\[4\]\[7\] net12 _120_ _042_ VDD VSS gf180mcu_fd_sc_mcu9t5v0__mux2_2
X_291_ wr_ptr_bin\[2\] net13 _112_ _121_ VDD VSS gf180mcu_fd_sc_mcu9t5v0__and3_4
X_292_ mem\[5\]\[0\] net5 _121_ _043_ VDD VSS gf180mcu_fd_sc_mcu9t5v0__mux2_2
X_293_ mem\[5\]\[1\] net6 _121_ _044_ VDD VSS gf180mcu_fd_sc_mcu9t5v0__mux2_2
X_294_ mem\[5\]\[2\] net7 _121_ _045_ VDD VSS gf180mcu_fd_sc_mcu9t5v0__mux2_2
X_295_ mem\[5\]\[3\] net8 _121_ _046_ VDD VSS gf180mcu_fd_sc_mcu9t5v0__mux2_2
X_296_ mem\[5\]\[4\] net9 _121_ _047_ VDD VSS gf180mcu_fd_sc_mcu9t5v0__mux2_2
X_297_ mem\[5\]\[5\] net10 _121_ _048_ VDD VSS gf180mcu_fd_sc_mcu9t5v0__mux2_2
X_298_ mem\[5\]\[6\] net11 _121_ _049_ VDD VSS gf180mcu_fd_sc_mcu9t5v0__mux2_2
X_299_ mem\[5\]\[7\] net12 _121_ _050_ VDD VSS gf180mcu_fd_sc_mcu9t5v0__mux2_2
X_300_ wr_ptr_bin\[2\] net13 _114_ _122_ VDD VSS gf180mcu_fd_sc_mcu9t5v0__and3_4
X_301_ mem\[6\]\[0\] net5 _122_ _051_ VDD VSS gf180mcu_fd_sc_mcu9t5v0__mux2_2
X_302_ mem\[6\]\[1\] net6 _122_ _052_ VDD VSS gf180mcu_fd_sc_mcu9t5v0__mux2_2
X_303_ mem\[6\]\[2\] net7 _122_ _053_ VDD VSS gf180mcu_fd_sc_mcu9t5v0__mux2_2
X_304_ mem\[6\]\[3\] net8 _122_ _054_ VDD VSS gf180mcu_fd_sc_mcu9t5v0__mux2_2
X_305_ mem\[6\]\[4\] net9 _122_ _055_ VDD VSS gf180mcu_fd_sc_mcu9t5v0__mux2_2
X_306_ mem\[6\]\[5\] net10 _122_ _056_ VDD VSS gf180mcu_fd_sc_mcu9t5v0__mux2_2
X_307_ mem\[6\]\[6\] net11 _122_ _057_ VDD VSS gf180mcu_fd_sc_mcu9t5v0__mux2_2
X_308_ mem\[6\]\[7\] net12 _122_ _058_ VDD VSS gf180mcu_fd_sc_mcu9t5v0__mux2_2
X_309_ wr_ptr_bin\[2\] net13 wr_ptr_bin\[1\] wr_ptr_bin\[0\]
+ _123_ VDD VSS gf180mcu_fd_sc_mcu9t5v0__and4_2
X_310_ _105_ _123_ _124_ VDD VSS gf180mcu_fd_sc_mcu9t5v0__and2_2
X_311_ _124_ _125_ VDD VSS gf180mcu_fd_sc_mcu9t5v0__clkbuf_8
X_312_ mem\[7\]\[0\] net5 _125_ _059_ VDD VSS gf180mcu_fd_sc_mcu9t5v0__mux2_2
X_313_ mem\[7\]\[1\] net6 _125_ _060_ VDD VSS gf180mcu_fd_sc_mcu9t5v0__mux2_2
X_314_ mem\[7\]\[2\] net7 _125_ _061_ VDD VSS gf180mcu_fd_sc_mcu9t5v0__mux2_2
X_315_ mem\[7\]\[3\] net8 _125_ _062_ VDD VSS gf180mcu_fd_sc_mcu9t5v0__mux2_2
X_316_ mem\[7\]\[4\] net9 _125_ _063_ VDD VSS gf180mcu_fd_sc_mcu9t5v0__mux2_2
X_317_ mem\[7\]\[5\] net10 _125_ _064_ VDD VSS gf180mcu_fd_sc_mcu9t5v0__mux2_2
X_318_ mem\[7\]\[6\] net11 _125_ _065_ VDD VSS gf180mcu_fd_sc_mcu9t5v0__mux2_2
X_319_ mem\[7\]\[7\] net12 _125_ _066_ VDD VSS gf180mcu_fd_sc_mcu9t5v0__mux2_2
X_320_ rd_ptr_bin\[0\] _126_ VDD VSS gf180mcu_fd_sc_mcu9t5v0__clkbuf_8
X_321_ mem\[0\]\[0\] mem\[1\]\[0\] mem\[2\]\[0\] mem\[3\]\[0\]
+ _126_ _107_ _127_ VDD VSS gf180mcu_fd_sc_mcu9t5v0__mux4_2
X_322_ rd_ptr_bin\[0\] _128_ VDD VSS gf180mcu_fd_sc_mcu9t5v0__clkbuf_8
X_323_ rd_ptr_bin\[1\] _129_ VDD VSS gf180mcu_fd_sc_mcu9t5v0__buf_4
X_324_ mem\[4\]\[0\] mem\[5\]\[0\] mem\[6\]\[0\] mem\[7\]\[0\]
+ _128_ _129_ _130_ VDD VSS gf180mcu_fd_sc_mcu9t5v0__mux4_2
X_325_ _127_ _130_ _106_ _131_ VDD VSS gf180mcu_fd_sc_mcu9t5v0__mux2_2
X_326_ net2 _132_ VDD VSS gf180mcu_fd_sc_mcu9t5v0__inv_4
X_327_ _132_ net28 _133_ VDD VSS gf180mcu_fd_sc_mcu9t5v0__nor2_4
X_328_ _133_ _134_ VDD VSS gf180mcu_fd_sc_mcu9t5v0__clkbuf_8
X_329_ net20 _131_ _134_ _067_ VDD VSS gf180mcu_fd_sc_mcu9t5v0__mux2_2
X_330_ mem\[0\]\[1\] mem\[1\]\[1\] mem\[2\]\[1\] mem\[3\]\[1\]
+ _126_ _107_ _135_ VDD VSS gf180mcu_fd_sc_mcu9t5v0__mux4_2
X_331_ mem\[4\]\[1\] mem\[5\]\[1\] mem\[6\]\[1\] mem\[7\]\[1\]
+ _128_ _129_ _136_ VDD VSS gf180mcu_fd_sc_mcu9t5v0__mux4_2
X_332_ _135_ _136_ _106_ _137_ VDD VSS gf180mcu_fd_sc_mcu9t5v0__mux2_2
X_333_ net21 _137_ _134_ _068_ VDD VSS gf180mcu_fd_sc_mcu9t5v0__mux2_2
X_334_ mem\[0\]\[2\] mem\[1\]\[2\] mem\[2\]\[2\] mem\[3\]\[2\]
+ _126_ _107_ _138_ VDD VSS gf180mcu_fd_sc_mcu9t5v0__mux4_2
X_335_ mem\[4\]\[2\] mem\[5\]\[2\] mem\[6\]\[2\] mem\[7\]\[2\]
+ _128_ _129_ _139_ VDD VSS gf180mcu_fd_sc_mcu9t5v0__mux4_2
X_336_ _138_ _139_ _106_ _140_ VDD VSS gf180mcu_fd_sc_mcu9t5v0__mux2_2
X_337_ net22 _140_ _134_ _069_ VDD VSS gf180mcu_fd_sc_mcu9t5v0__mux2_2
X_338_ mem\[0\]\[3\] mem\[1\]\[3\] mem\[2\]\[3\] mem\[3\]\[3\]
+ _126_ _107_ _141_ VDD VSS gf180mcu_fd_sc_mcu9t5v0__mux4_2
X_339_ mem\[4\]\[3\] mem\[5\]\[3\] mem\[6\]\[3\] mem\[7\]\[3\]
+ _128_ _129_ _142_ VDD VSS gf180mcu_fd_sc_mcu9t5v0__mux4_2
X_340_ _141_ _142_ _106_ _143_ VDD VSS gf180mcu_fd_sc_mcu9t5v0__mux2_2
X_341_ net23 _143_ _134_ _070_ VDD VSS gf180mcu_fd_sc_mcu9t5v0__mux2_2
X_342_ mem\[0\]\[4\] mem\[1\]\[4\] mem\[2\]\[4\] mem\[3\]\[4\]
+ _126_ _107_ _144_ VDD VSS gf180mcu_fd_sc_mcu9t5v0__mux4_2
X_343_ mem\[4\]\[4\] mem\[5\]\[4\] mem\[6\]\[4\] mem\[7\]\[4\]
+ _128_ _129_ _145_ VDD VSS gf180mcu_fd_sc_mcu9t5v0__mux4_2
X_344_ _144_ _145_ _106_ _146_ VDD VSS gf180mcu_fd_sc_mcu9t5v0__mux2_2
X_345_ net24 _146_ _134_ _071_ VDD VSS gf180mcu_fd_sc_mcu9t5v0__mux2_2
X_346_ mem\[0\]\[5\] mem\[1\]\[5\] mem\[2\]\[5\] mem\[3\]\[5\]
+ _126_ _107_ _147_ VDD VSS gf180mcu_fd_sc_mcu9t5v0__mux4_2
X_347_ mem\[4\]\[5\] mem\[5\]\[5\] mem\[6\]\[5\] mem\[7\]\[5\]
+ _128_ _129_ _148_ VDD VSS gf180mcu_fd_sc_mcu9t5v0__mux4_2
X_348_ _147_ _148_ _106_ _149_ VDD VSS gf180mcu_fd_sc_mcu9t5v0__mux2_2
X_349_ net25 _149_ _134_ _072_ VDD VSS gf180mcu_fd_sc_mcu9t5v0__mux2_2
X_350_ mem\[0\]\[6\] mem\[1\]\[6\] mem\[2\]\[6\] mem\[3\]\[6\]
+ _126_ _107_ _150_ VDD VSS gf180mcu_fd_sc_mcu9t5v0__mux4_2
X_351_ mem\[4\]\[6\] mem\[5\]\[6\] mem\[6\]\[6\] mem\[7\]\[6\]
+ _128_ _129_ _151_ VDD VSS gf180mcu_fd_sc_mcu9t5v0__mux4_2
X_352_ _150_ _151_ _106_ _152_ VDD VSS gf180mcu_fd_sc_mcu9t5v0__mux2_2
X_353_ net26 _152_ _134_ _073_ VDD VSS gf180mcu_fd_sc_mcu9t5v0__mux2_2
X_354_ mem\[0\]\[7\] mem\[1\]\[7\] mem\[2\]\[7\] mem\[3\]\[7\]
+ _128_ _129_ _153_ VDD VSS gf180mcu_fd_sc_mcu9t5v0__mux4_2
X_355_ mem\[4\]\[7\] mem\[5\]\[7\] mem\[6\]\[7\] mem\[7\]\[7\]
+ _128_ _129_ _154_ VDD VSS gf180mcu_fd_sc_mcu9t5v0__mux4_2
X_356_ _153_ _154_ _106_ _155_ VDD VSS gf180mcu_fd_sc_mcu9t5v0__mux2_2
X_357_ net27 _155_ _134_ _074_ VDD VSS gf180mcu_fd_sc_mcu9t5v0__mux2_2
X_358_ _126_ _133_ _075_ VDD VSS gf180mcu_fd_sc_mcu9t5v0__xor2_2
X_359_ _107_ _000_ _134_ _076_ VDD VSS gf180mcu_fd_sc_mcu9t5v0__mux2_2
X_360_ _192_ _133_ _156_ VDD VSS gf180mcu_fd_sc_mcu9t5v0__and2_2
X_361_ _180_ _156_ _077_ VDD VSS gf180mcu_fd_sc_mcu9t5v0__xnor2_2
X_362_ _126_ _000_ _157_ VDD VSS gf180mcu_fd_sc_mcu9t5v0__xnor2_2
X_363_ rd_ptr_gray\[0\] _157_ _134_ _078_ VDD VSS gf180mcu_fd_sc_mcu9t5v0__mux2_2
X_364_ rd_ptr_bin\[2\] _192_ _000_ _158_ VDD VSS gf180mcu_fd_sc_mcu9t5v0__xor3_2
X_365_ rd_ptr_gray\[1\] _158_ _133_ _079_ VDD VSS gf180mcu_fd_sc_mcu9t5v0__mux2_2
X_366_ _128_ _129_ _159_ VDD VSS gf180mcu_fd_sc_mcu9t5v0__nand2_2
X_367_ rd_ptr_bin\[2\] _159_ _160_ VDD VSS gf180mcu_fd_sc_mcu9t5v0__nand2_2
X_368_ _192_ rd_ptr_bin\[3\] _160_ _161_ VDD VSS gf180mcu_fd_sc_mcu9t5v0__xnor3_2
X_369_ rd_ptr_gray\[2\] _161_ _133_ _080_ VDD VSS gf180mcu_fd_sc_mcu9t5v0__mux2_2
X_370_ _126_ _107_ _106_ _133_ _162_ VDD VSS gf180mcu_fd_sc_mcu9t5v0__and4_2
X_371_ rd_ptr_bin\[3\] _162_ _081_ VDD VSS gf180mcu_fd_sc_mcu9t5v0__xor2_2
X_372_ net13 _105_ _163_ VDD VSS gf180mcu_fd_sc_mcu9t5v0__and2_2
X_373_ _001_ _163_ _082_ VDD VSS gf180mcu_fd_sc_mcu9t5v0__xnor2_2
X_374_ wr_ptr_bin\[1\] _002_ _163_ _083_ VDD VSS gf180mcu_fd_sc_mcu9t5v0__mux2_2
X_375_ _193_ _163_ _164_ VDD VSS gf180mcu_fd_sc_mcu9t5v0__and2_2
X_376_ _108_ _164_ _084_ VDD VSS gf180mcu_fd_sc_mcu9t5v0__xnor2_2
X_377_ wr_ptr_bin\[0\] _002_ _165_ VDD VSS gf180mcu_fd_sc_mcu9t5v0__xnor2_2
X_378_ wr_ptr_gray\[0\] _165_ _163_ _085_ VDD VSS gf180mcu_fd_sc_mcu9t5v0__mux2_2
X_379_ wr_ptr_bin\[2\] _193_ _002_ _166_ VDD VSS gf180mcu_fd_sc_mcu9t5v0__xor3_2
X_380_ wr_ptr_gray\[1\] _166_ _163_ _086_ VDD VSS gf180mcu_fd_sc_mcu9t5v0__mux2_2
X_381_ _175_ _001_ wr_ptr_bin\[2\] _167_ VDD VSS gf180mcu_fd_sc_mcu9t5v0__oai21_2
X_382_ wr_ptr_bin\[3\] _193_ _167_ _168_ VDD VSS gf180mcu_fd_sc_mcu9t5v0__xnor3_2
X_383_ wr_ptr_gray\[2\] _168_ _163_ _087_ VDD VSS gf180mcu_fd_sc_mcu9t5v0__mux2_2
X_384_ wr_ptr_bin\[3\] _125_ _088_ VDD VSS gf180mcu_fd_sc_mcu9t5v0__xor2_2
X_385_ _174_ net17 VDD VSS gf180mcu_fd_sc_mcu9t5v0__inv_3
X_386_ net17 net16 net18 net19 net15 VDD VSS gf180mcu_fd_sc_mcu9t5v0__aoi211_2
X_387_ _179_ net31 VDD VSS gf180mcu_fd_sc_mcu9t5v0__inv_4
X_388_ net31 net32 _169_ VDD VSS gf180mcu_fd_sc_mcu9t5v0__and2_4
X_389_ net33 _169_ net29 VDD VSS gf180mcu_fd_sc_mcu9t5v0__or2_2
X_390_ _170_ _171_ _172_ _173_ _174_ VDD VSS gf180mcu_fd_sc_mcu9t5v0__addf_1
X_391_ _175_ _176_ _177_ _178_ _179_ VDD VSS gf180mcu_fd_sc_mcu9t5v0__addf_2
X_392_ _180_ _181_ _182_ _183_ VDD VSS gf180mcu_fd_sc_mcu9t5v0__addh_1
X_393_ _171_ _172_ _184_ _185_ VDD VSS gf180mcu_fd_sc_mcu9t5v0__addh_1
X_394_ wr_ptr_bin\[1\] _186_ _187_ _188_ VDD VSS gf180mcu_fd_sc_mcu9t5v0__addh_1
X_395_ wr_ptr_bin\[2\] _189_ _190_ _191_ VDD VSS gf180mcu_fd_sc_mcu9t5v0__addh_1
X_396_ rd_ptr_bin\[0\] rd_ptr_bin\[1\] _192_ _000_ VDD VSS
+ gf180mcu_fd_sc_mcu9t5v0__addh_2
X_397_ wr_ptr_bin\[0\] wr_ptr_bin\[1\] _193_ _002_ VDD VSS
+ gf180mcu_fd_sc_mcu9t5v0__addh_1
X_398_ rd_ptr_bin\[0\] _194_ _195_ _196_ VDD VSS gf180mcu_fd_sc_mcu9t5v0__addh_1
X_399_ _197_ _001_ _176_ _198_ VDD VSS gf180mcu_fd_sc_mcu9t5v0__addh_2
Xmem\[0\]\[0\]$_DFFE_PP_ _003_ net4 mem\[0\]\[0\] VDD VSS
+ gf180mcu_fd_sc_mcu9t5v0__dffq_2
Xmem\[0\]\[1\]$_DFFE_PP_ _004_ net4 mem\[0\]\[1\] VDD VSS
+ gf180mcu_fd_sc_mcu9t5v0__dffq_2
Xmem\[0\]\[2\]$_DFFE_PP_ _005_ net4 mem\[0\]\[2\] VDD VSS
+ gf180mcu_fd_sc_mcu9t5v0__dffq_2
Xmem\[0\]\[3\]$_DFFE_PP_ _006_ net4 mem\[0\]\[3\] VDD VSS
+ gf180mcu_fd_sc_mcu9t5v0__dffq_2
Xmem\[0\]\[4\]$_DFFE_PP_ _007_ net4 mem\[0\]\[4\] VDD VSS
+ gf180mcu_fd_sc_mcu9t5v0__dffq_2
Xmem\[0\]\[5\]$_DFFE_PP_ _008_ net4 mem\[0\]\[5\] VDD VSS
+ gf180mcu_fd_sc_mcu9t5v0__dffq_2
Xmem\[0\]\[6\]$_DFFE_PP_ _009_ net4 mem\[0\]\[6\] VDD VSS
+ gf180mcu_fd_sc_mcu9t5v0__dffq_2
Xmem\[0\]\[7\]$_DFFE_PP_ _010_ net4 mem\[0\]\[7\] VDD VSS
+ gf180mcu_fd_sc_mcu9t5v0__dffq_2
Xmem\[1\]\[0\]$_DFFE_PP_ _011_ net4 mem\[1\]\[0\] VDD VSS
+ gf180mcu_fd_sc_mcu9t5v0__dffq_2
Xmem\[1\]\[1\]$_DFFE_PP_ _012_ net4 mem\[1\]\[1\] VDD VSS
+ gf180mcu_fd_sc_mcu9t5v0__dffq_2
Xmem\[1\]\[2\]$_DFFE_PP_ _013_ net4 mem\[1\]\[2\] VDD VSS
+ gf180mcu_fd_sc_mcu9t5v0__dffq_2
Xmem\[1\]\[3\]$_DFFE_PP_ _014_ net4 mem\[1\]\[3\] VDD VSS
+ gf180mcu_fd_sc_mcu9t5v0__dffq_2
Xmem\[1\]\[4\]$_DFFE_PP_ _015_ net4 mem\[1\]\[4\] VDD VSS
+ gf180mcu_fd_sc_mcu9t5v0__dffq_2
Xmem\[1\]\[5\]$_DFFE_PP_ _016_ net4 mem\[1\]\[5\] VDD VSS
+ gf180mcu_fd_sc_mcu9t5v0__dffq_2
Xmem\[1\]\[6\]$_DFFE_PP_ _017_ net4 mem\[1\]\[6\] VDD VSS
+ gf180mcu_fd_sc_mcu9t5v0__dffq_2
Xmem\[1\]\[7\]$_DFFE_PP_ _018_ net4 mem\[1\]\[7\] VDD VSS
+ gf180mcu_fd_sc_mcu9t5v0__dffq_2
Xmem\[2\]\[0\]$_DFFE_PP_ _019_ net4 mem\[2\]\[0\] VDD VSS
+ gf180mcu_fd_sc_mcu9t5v0__dffq_2
Xmem\[2\]\[1\]$_DFFE_PP_ _020_ net4 mem\[2\]\[1\] VDD VSS
+ gf180mcu_fd_sc_mcu9t5v0__dffq_2
Xmem\[2\]\[2\]$_DFFE_PP_ _021_ net4 mem\[2\]\[2\] VDD VSS
+ gf180mcu_fd_sc_mcu9t5v0__dffq_2
Xmem\[2\]\[3\]$_DFFE_PP_ _022_ net4 mem\[2\]\[3\] VDD VSS
+ gf180mcu_fd_sc_mcu9t5v0__dffq_2
Xmem\[2\]\[4\]$_DFFE_PP_ _023_ net4 mem\[2\]\[4\] VDD VSS
+ gf180mcu_fd_sc_mcu9t5v0__dffq_2
Xmem\[2\]\[5\]$_DFFE_PP_ _024_ net4 mem\[2\]\[5\] VDD VSS
+ gf180mcu_fd_sc_mcu9t5v0__dffq_2
Xmem\[2\]\[6\]$_DFFE_PP_ _025_ net4 mem\[2\]\[6\] VDD VSS
+ gf180mcu_fd_sc_mcu9t5v0__dffq_2
Xmem\[2\]\[7\]$_DFFE_PP_ _026_ net4 mem\[2\]\[7\] VDD VSS
+ gf180mcu_fd_sc_mcu9t5v0__dffq_2
Xmem\[3\]\[0\]$_DFFE_PP_ _027_ net4 mem\[3\]\[0\] VDD VSS
+ gf180mcu_fd_sc_mcu9t5v0__dffq_2
Xmem\[3\]\[1\]$_DFFE_PP_ _028_ net4 mem\[3\]\[1\] VDD VSS
+ gf180mcu_fd_sc_mcu9t5v0__dffq_2
Xmem\[3\]\[2\]$_DFFE_PP_ _029_ net4 mem\[3\]\[2\] VDD VSS
+ gf180mcu_fd_sc_mcu9t5v0__dffq_2
Xmem\[3\]\[3\]$_DFFE_PP_ _030_ net4 mem\[3\]\[3\] VDD VSS
+ gf180mcu_fd_sc_mcu9t5v0__dffq_2
Xmem\[3\]\[4\]$_DFFE_PP_ _031_ net4 mem\[3\]\[4\] VDD VSS
+ gf180mcu_fd_sc_mcu9t5v0__dffq_2
Xmem\[3\]\[5\]$_DFFE_PP_ _032_ net4 mem\[3\]\[5\] VDD VSS
+ gf180mcu_fd_sc_mcu9t5v0__dffq_2
Xmem\[3\]\[6\]$_DFFE_PP_ _033_ net4 mem\[3\]\[6\] VDD VSS
+ gf180mcu_fd_sc_mcu9t5v0__dffq_2
Xmem\[3\]\[7\]$_DFFE_PP_ _034_ net4 mem\[3\]\[7\] VDD VSS
+ gf180mcu_fd_sc_mcu9t5v0__dffq_2
Xmem\[4\]\[0\]$_DFFE_PP_ _035_ net4 mem\[4\]\[0\] VDD VSS
+ gf180mcu_fd_sc_mcu9t5v0__dffq_2
Xmem\[4\]\[1\]$_DFFE_PP_ _036_ net4 mem\[4\]\[1\] VDD VSS
+ gf180mcu_fd_sc_mcu9t5v0__dffq_2
Xmem\[4\]\[2\]$_DFFE_PP_ _037_ net4 mem\[4\]\[2\] VDD VSS
+ gf180mcu_fd_sc_mcu9t5v0__dffq_2
Xmem\[4\]\[3\]$_DFFE_PP_ _038_ net4 mem\[4\]\[3\] VDD VSS
+ gf180mcu_fd_sc_mcu9t5v0__dffq_2
Xmem\[4\]\[4\]$_DFFE_PP_ _039_ net4 mem\[4\]\[4\] VDD VSS
+ gf180mcu_fd_sc_mcu9t5v0__dffq_2
Xmem\[4\]\[5\]$_DFFE_PP_ _040_ net4 mem\[4\]\[5\] VDD VSS
+ gf180mcu_fd_sc_mcu9t5v0__dffq_2
Xmem\[4\]\[6\]$_DFFE_PP_ _041_ net4 mem\[4\]\[6\] VDD VSS
+ gf180mcu_fd_sc_mcu9t5v0__dffq_2
Xmem\[4\]\[7\]$_DFFE_PP_ _042_ net4 mem\[4\]\[7\] VDD VSS
+ gf180mcu_fd_sc_mcu9t5v0__dffq_2
Xmem\[5\]\[0\]$_DFFE_PP_ _043_ net4 mem\[5\]\[0\] VDD VSS
+ gf180mcu_fd_sc_mcu9t5v0__dffq_2
Xmem\[5\]\[1\]$_DFFE_PP_ _044_ net4 mem\[5\]\[1\] VDD VSS
+ gf180mcu_fd_sc_mcu9t5v0__dffq_2
Xmem\[5\]\[2\]$_DFFE_PP_ _045_ net4 mem\[5\]\[2\] VDD VSS
+ gf180mcu_fd_sc_mcu9t5v0__dffq_2
Xmem\[5\]\[3\]$_DFFE_PP_ _046_ net4 mem\[5\]\[3\] VDD VSS
+ gf180mcu_fd_sc_mcu9t5v0__dffq_2
Xmem\[5\]\[4\]$_DFFE_PP_ _047_ net4 mem\[5\]\[4\] VDD VSS
+ gf180mcu_fd_sc_mcu9t5v0__dffq_2
Xmem\[5\]\[5\]$_DFFE_PP_ _048_ net4 mem\[5\]\[5\] VDD VSS
+ gf180mcu_fd_sc_mcu9t5v0__dffq_2
Xmem\[5\]\[6\]$_DFFE_PP_ _049_ net4 mem\[5\]\[6\] VDD VSS
+ gf180mcu_fd_sc_mcu9t5v0__dffq_2
Xmem\[5\]\[7\]$_DFFE_PP_ _050_ net4 mem\[5\]\[7\] VDD VSS
+ gf180mcu_fd_sc_mcu9t5v0__dffq_2
Xmem\[6\]\[0\]$_DFFE_PP_ _051_ net4 mem\[6\]\[0\] VDD VSS
+ gf180mcu_fd_sc_mcu9t5v0__dffq_2
Xmem\[6\]\[1\]$_DFFE_PP_ _052_ net4 mem\[6\]\[1\] VDD VSS
+ gf180mcu_fd_sc_mcu9t5v0__dffq_2
Xmem\[6\]\[2\]$_DFFE_PP_ _053_ net4 mem\[6\]\[2\] VDD VSS
+ gf180mcu_fd_sc_mcu9t5v0__dffq_2
Xmem\[6\]\[3\]$_DFFE_PP_ _054_ net4 mem\[6\]\[3\] VDD VSS
+ gf180mcu_fd_sc_mcu9t5v0__dffq_2
Xmem\[6\]\[4\]$_DFFE_PP_ _055_ net4 mem\[6\]\[4\] VDD VSS
+ gf180mcu_fd_sc_mcu9t5v0__dffq_2
Xmem\[6\]\[5\]$_DFFE_PP_ _056_ net4 mem\[6\]\[5\] VDD VSS
+ gf180mcu_fd_sc_mcu9t5v0__dffq_2
Xmem\[6\]\[6\]$_DFFE_PP_ _057_ net4 mem\[6\]\[6\] VDD VSS
+ gf180mcu_fd_sc_mcu9t5v0__dffq_2
Xmem\[6\]\[7\]$_DFFE_PP_ _058_ net4 mem\[6\]\[7\] VDD VSS
+ gf180mcu_fd_sc_mcu9t5v0__dffq_2
Xmem\[7\]\[0\]$_DFFE_PP_ _059_ net4 mem\[7\]\[0\] VDD VSS
+ gf180mcu_fd_sc_mcu9t5v0__dffq_2
Xmem\[7\]\[1\]$_DFFE_PP_ _060_ net4 mem\[7\]\[1\] VDD VSS
+ gf180mcu_fd_sc_mcu9t5v0__dffq_2
Xmem\[7\]\[2\]$_DFFE_PP_ _061_ net4 mem\[7\]\[2\] VDD VSS
+ gf180mcu_fd_sc_mcu9t5v0__dffq_2
Xmem\[7\]\[3\]$_DFFE_PP_ _062_ net4 mem\[7\]\[3\] VDD VSS
+ gf180mcu_fd_sc_mcu9t5v0__dffq_2
Xmem\[7\]\[4\]$_DFFE_PP_ _063_ net4 mem\[7\]\[4\] VDD VSS
+ gf180mcu_fd_sc_mcu9t5v0__dffq_2
Xmem\[7\]\[5\]$_DFFE_PP_ _064_ net4 mem\[7\]\[5\] VDD VSS
+ gf180mcu_fd_sc_mcu9t5v0__dffq_2
Xmem\[7\]\[6\]$_DFFE_PP_ _065_ net4 mem\[7\]\[6\] VDD VSS
+ gf180mcu_fd_sc_mcu9t5v0__dffq_2
Xmem\[7\]\[7\]$_DFFE_PP_ _066_ net4 mem\[7\]\[7\] VDD VSS
+ gf180mcu_fd_sc_mcu9t5v0__dffq_2
Xrd_data_reg\[0\]$_DFFE_PN0P_ _067_ net3 net1 net20 VDD VSS
+ gf180mcu_fd_sc_mcu9t5v0__dffrnq_4
Xrd_data_reg\[1\]$_DFFE_PN0P_ _068_ net3 net1 net21 VDD VSS
+ gf180mcu_fd_sc_mcu9t5v0__dffrnq_4
Xrd_data_reg\[2\]$_DFFE_PN0P_ _069_ net3 net1 net22 VDD VSS
+ gf180mcu_fd_sc_mcu9t5v0__dffrnq_4
Xrd_data_reg\[3\]$_DFFE_PN0P_ _070_ net3 net1 net23 VDD VSS
+ gf180mcu_fd_sc_mcu9t5v0__dffrnq_4
Xrd_data_reg\[4\]$_DFFE_PN0P_ _071_ net3 net1 net24 VDD VSS
+ gf180mcu_fd_sc_mcu9t5v0__dffrnq_4
Xrd_data_reg\[5\]$_DFFE_PN0P_ _072_ net3 net1 net25 VDD VSS
+ gf180mcu_fd_sc_mcu9t5v0__dffrnq_4
Xrd_data_reg\[6\]$_DFFE_PN0P_ _073_ net3 net1 net26 VDD VSS
+ gf180mcu_fd_sc_mcu9t5v0__dffrnq_4
Xrd_data_reg\[7\]$_DFFE_PN0P_ _074_ net3 net1 net27 VDD VSS
+ gf180mcu_fd_sc_mcu9t5v0__dffrnq_4
Xrd_ptr_bin\[0\]$_DFFE_PN0P_ _075_ net3 net1 rd_ptr_bin\[0\]
+ VDD VSS gf180mcu_fd_sc_mcu9t5v0__dffrnq_2
Xrd_ptr_bin\[1\]$_DFFE_PN0P_ _076_ net3 net1 rd_ptr_bin\[1\]
+ VDD VSS gf180mcu_fd_sc_mcu9t5v0__dffrnq_2
Xrd_ptr_bin\[2\]$_DFFE_PN0P_ _077_ net3 net1 rd_ptr_bin\[2\]
+ VDD VSS gf180mcu_fd_sc_mcu9t5v0__dffrnq_2
Xrd_ptr_gray\[0\]$_DFFE_PN0P_ _078_ net3 net1 rd_ptr_gray\[0\]
+ VDD VSS gf180mcu_fd_sc_mcu9t5v0__dffrnq_2
Xrd_ptr_gray\[1\]$_DFFE_PN0P_ _079_ net3 net1 rd_ptr_gray\[1\]
+ VDD VSS gf180mcu_fd_sc_mcu9t5v0__dffrnq_2
Xrd_ptr_gray\[2\]$_DFFE_PN0P_ _080_ net3 net1 rd_ptr_gray\[2\]
+ VDD VSS gf180mcu_fd_sc_mcu9t5v0__dffrnq_2
Xrd_ptr_gray\[3\]$_DFFE_PN0P_ _081_ net3 net1 rd_ptr_bin\[3\]
+ VDD VSS gf180mcu_fd_sc_mcu9t5v0__dffrnq_2
Xrd_ptr_gray_sync1\[0\]$_DFF_PN0_ rd_ptr_gray\[0\] net14 net4
+ rd_ptr_gray_sync1\[0\] VDD VSS gf180mcu_fd_sc_mcu9t5v0__dffrnq_2
Xrd_ptr_gray_sync1\[1\]$_DFF_PN0_ rd_ptr_gray\[1\] net14 net4
+ rd_ptr_gray_sync1\[1\] VDD VSS gf180mcu_fd_sc_mcu9t5v0__dffrnq_2
Xrd_ptr_gray_sync1\[2\]$_DFF_PN0_ rd_ptr_gray\[2\] net14 net4
+ rd_ptr_gray_sync1\[2\] VDD VSS gf180mcu_fd_sc_mcu9t5v0__dffrnq_2
Xrd_ptr_gray_sync1\[3\]$_DFF_PN0_ rd_ptr_bin\[3\] net14 net4
+ rd_ptr_gray_sync1\[3\] VDD VSS gf180mcu_fd_sc_mcu9t5v0__dffrnq_2
Xrd_ptr_gray_sync2\[0\]$_DFF_PN0_ rd_ptr_gray_sync1\[0\] net14
+ net4 rd_ptr_gray_sync2\[0\] VDD VSS gf180mcu_fd_sc_mcu9t5v0__dffrnq_2
Xrd_ptr_gray_sync2\[1\]$_DFF_PN0_ rd_ptr_gray_sync1\[1\] net14
+ net4 rd_ptr_gray_sync2\[1\] VDD VSS gf180mcu_fd_sc_mcu9t5v0__dffrnq_2
Xrd_ptr_gray_sync2\[2\]$_DFF_PN0_ rd_ptr_gray_sync1\[2\] net14
+ net4 rd_ptr_gray_sync2\[2\] VDD VSS gf180mcu_fd_sc_mcu9t5v0__dffrnq_2
Xrd_ptr_gray_sync2\[3\]$_DFF_PN0_ rd_ptr_gray_sync1\[3\] net14
+ net4 rd_ptr_bin_sync\[3\] VDD VSS gf180mcu_fd_sc_mcu9t5v0__dffrnq_2
Xwr_ptr_bin\[0\]$_DFFE_PN0P_ _082_ net14 net4 wr_ptr_bin\[0\]
+ VDD VSS gf180mcu_fd_sc_mcu9t5v0__dffrnq_2
Xwr_ptr_bin\[1\]$_DFFE_PN0P_ _083_ net14 net4 wr_ptr_bin\[1\]
+ VDD VSS gf180mcu_fd_sc_mcu9t5v0__dffrnq_2
Xwr_ptr_bin\[2\]$_DFFE_PN0P_ _084_ net14 net4 wr_ptr_bin\[2\]
+ VDD VSS gf180mcu_fd_sc_mcu9t5v0__dffrnq_2
Xwr_ptr_gray\[0\]$_DFFE_PN0P_ _085_ net14 net4 wr_ptr_gray\[0\]
+ VDD VSS gf180mcu_fd_sc_mcu9t5v0__dffrnq_2
Xwr_ptr_gray\[1\]$_DFFE_PN0P_ _086_ net14 net4 wr_ptr_gray\[1\]
+ VDD VSS gf180mcu_fd_sc_mcu9t5v0__dffrnq_2
Xwr_ptr_gray\[2\]$_DFFE_PN0P_ _087_ net14 net4 wr_ptr_gray\[2\]
+ VDD VSS gf180mcu_fd_sc_mcu9t5v0__dffrnq_2
Xwr_ptr_gray\[3\]$_DFFE_PN0P_ _088_ net14 net4 wr_ptr_bin\[3\]
+ VDD VSS gf180mcu_fd_sc_mcu9t5v0__dffrnq_2
Xwr_ptr_gray_sync1\[0\]$_DFF_PN0_ wr_ptr_gray\[0\] net3 net1
+ wr_ptr_gray_sync1\[0\] VDD VSS gf180mcu_fd_sc_mcu9t5v0__dffrnq_2
Xwr_ptr_gray_sync1\[1\]$_DFF_PN0_ wr_ptr_gray\[1\] net3 net1
+ wr_ptr_gray_sync1\[1\] VDD VSS gf180mcu_fd_sc_mcu9t5v0__dffrnq_2
Xwr_ptr_gray_sync1\[2\]$_DFF_PN0_ wr_ptr_gray\[2\] net3 net1
+ wr_ptr_gray_sync1\[2\] VDD VSS gf180mcu_fd_sc_mcu9t5v0__dffrnq_2
Xwr_ptr_gray_sync1\[3\]$_DFF_PN0_ wr_ptr_bin\[3\] net3 net1
+ wr_ptr_gray_sync1\[3\] VDD VSS gf180mcu_fd_sc_mcu9t5v0__dffrnq_2
Xwr_ptr_gray_sync2\[0\]$_DFF_PN0_ wr_ptr_gray_sync1\[0\] net3
+ net1 wr_ptr_gray_sync2\[0\] VDD VSS gf180mcu_fd_sc_mcu9t5v0__dffrnq_2
Xwr_ptr_gray_sync2\[1\]$_DFF_PN0_ wr_ptr_gray_sync1\[1\] net3
+ net1 wr_ptr_gray_sync2\[1\] VDD VSS gf180mcu_fd_sc_mcu9t5v0__dffrnq_2
Xwr_ptr_gray_sync2\[2\]$_DFF_PN0_ wr_ptr_gray_sync1\[2\] net3
+ net1 wr_ptr_gray_sync2\[2\] VDD VSS gf180mcu_fd_sc_mcu9t5v0__dffrnq_2
Xwr_ptr_gray_sync2\[3\]$_DFF_PN0_ wr_ptr_gray_sync1\[3\] net3
+ net1 wr_ptr_bin_sync\[3\] VDD VSS gf180mcu_fd_sc_mcu9t5v0__dffrnq_2
XPHY_EDGE_ROW_0_Right_0 VDD VSS gf180mcu_fd_sc_mcu9t5v0__endcap
XPHY_EDGE_ROW_1_Right_1 VDD VSS gf180mcu_fd_sc_mcu9t5v0__endcap
XPHY_EDGE_ROW_2_Right_2 VDD VSS gf180mcu_fd_sc_mcu9t5v0__endcap
XPHY_EDGE_ROW_3_Right_3 VDD VSS gf180mcu_fd_sc_mcu9t5v0__endcap
XPHY_EDGE_ROW_4_Right_4 VDD VSS gf180mcu_fd_sc_mcu9t5v0__endcap
XPHY_EDGE_ROW_5_Right_5 VDD VSS gf180mcu_fd_sc_mcu9t5v0__endcap
XPHY_EDGE_ROW_6_Right_6 VDD VSS gf180mcu_fd_sc_mcu9t5v0__endcap
XPHY_EDGE_ROW_7_Right_7 VDD VSS gf180mcu_fd_sc_mcu9t5v0__endcap
XPHY_EDGE_ROW_8_Right_8 VDD VSS gf180mcu_fd_sc_mcu9t5v0__endcap
XPHY_EDGE_ROW_9_Right_9 VDD VSS gf180mcu_fd_sc_mcu9t5v0__endcap
XPHY_EDGE_ROW_10_Right_10 VDD VSS gf180mcu_fd_sc_mcu9t5v0__endcap
XPHY_EDGE_ROW_11_Right_11 VDD VSS gf180mcu_fd_sc_mcu9t5v0__endcap
XPHY_EDGE_ROW_12_Right_12 VDD VSS gf180mcu_fd_sc_mcu9t5v0__endcap
XPHY_EDGE_ROW_13_Right_13 VDD VSS gf180mcu_fd_sc_mcu9t5v0__endcap
XPHY_EDGE_ROW_14_Right_14 VDD VSS gf180mcu_fd_sc_mcu9t5v0__endcap
XPHY_EDGE_ROW_15_Right_15 VDD VSS gf180mcu_fd_sc_mcu9t5v0__endcap
XPHY_EDGE_ROW_16_Right_16 VDD VSS gf180mcu_fd_sc_mcu9t5v0__endcap
XPHY_EDGE_ROW_17_Right_17 VDD VSS gf180mcu_fd_sc_mcu9t5v0__endcap
XPHY_EDGE_ROW_18_Right_18 VDD VSS gf180mcu_fd_sc_mcu9t5v0__endcap
XPHY_EDGE_ROW_19_Right_19 VDD VSS gf180mcu_fd_sc_mcu9t5v0__endcap
XPHY_EDGE_ROW_20_Right_20 VDD VSS gf180mcu_fd_sc_mcu9t5v0__endcap
XPHY_EDGE_ROW_21_Right_21 VDD VSS gf180mcu_fd_sc_mcu9t5v0__endcap
XPHY_EDGE_ROW_22_Right_22 VDD VSS gf180mcu_fd_sc_mcu9t5v0__endcap
XPHY_EDGE_ROW_23_Right_23 VDD VSS gf180mcu_fd_sc_mcu9t5v0__endcap
XPHY_EDGE_ROW_24_Right_24 VDD VSS gf180mcu_fd_sc_mcu9t5v0__endcap
XPHY_EDGE_ROW_25_Right_25 VDD VSS gf180mcu_fd_sc_mcu9t5v0__endcap
XPHY_EDGE_ROW_26_Right_26 VDD VSS gf180mcu_fd_sc_mcu9t5v0__endcap
XPHY_EDGE_ROW_27_Right_27 VDD VSS gf180mcu_fd_sc_mcu9t5v0__endcap
XPHY_EDGE_ROW_28_Right_28 VDD VSS gf180mcu_fd_sc_mcu9t5v0__endcap
XPHY_EDGE_ROW_29_Right_29 VDD VSS gf180mcu_fd_sc_mcu9t5v0__endcap
XPHY_EDGE_ROW_30_Right_30 VDD VSS gf180mcu_fd_sc_mcu9t5v0__endcap
XPHY_EDGE_ROW_31_Right_31 VDD VSS gf180mcu_fd_sc_mcu9t5v0__endcap
XPHY_EDGE_ROW_32_Right_32 VDD VSS gf180mcu_fd_sc_mcu9t5v0__endcap
XPHY_EDGE_ROW_33_Right_33 VDD VSS gf180mcu_fd_sc_mcu9t5v0__endcap
XPHY_EDGE_ROW_34_Right_34 VDD VSS gf180mcu_fd_sc_mcu9t5v0__endcap
XPHY_EDGE_ROW_35_Right_35 VDD VSS gf180mcu_fd_sc_mcu9t5v0__endcap
XPHY_EDGE_ROW_36_Right_36 VDD VSS gf180mcu_fd_sc_mcu9t5v0__endcap
XPHY_EDGE_ROW_37_Right_37 VDD VSS gf180mcu_fd_sc_mcu9t5v0__endcap
XPHY_EDGE_ROW_38_Right_38 VDD VSS gf180mcu_fd_sc_mcu9t5v0__endcap
XPHY_EDGE_ROW_39_Right_39 VDD VSS gf180mcu_fd_sc_mcu9t5v0__endcap
XPHY_EDGE_ROW_40_Right_40 VDD VSS gf180mcu_fd_sc_mcu9t5v0__endcap
XPHY_EDGE_ROW_41_Right_41 VDD VSS gf180mcu_fd_sc_mcu9t5v0__endcap
XPHY_EDGE_ROW_42_Right_42 VDD VSS gf180mcu_fd_sc_mcu9t5v0__endcap
XPHY_EDGE_ROW_43_Right_43 VDD VSS gf180mcu_fd_sc_mcu9t5v0__endcap
XPHY_EDGE_ROW_44_Right_44 VDD VSS gf180mcu_fd_sc_mcu9t5v0__endcap
XPHY_EDGE_ROW_45_Right_45 VDD VSS gf180mcu_fd_sc_mcu9t5v0__endcap
XPHY_EDGE_ROW_46_Right_46 VDD VSS gf180mcu_fd_sc_mcu9t5v0__endcap
XPHY_EDGE_ROW_47_Right_47 VDD VSS gf180mcu_fd_sc_mcu9t5v0__endcap
XPHY_EDGE_ROW_48_Right_48 VDD VSS gf180mcu_fd_sc_mcu9t5v0__endcap
XPHY_EDGE_ROW_49_Right_49 VDD VSS gf180mcu_fd_sc_mcu9t5v0__endcap
XPHY_EDGE_ROW_50_Right_50 VDD VSS gf180mcu_fd_sc_mcu9t5v0__endcap