
* cell parameterized_crc_generator
* pin crc_out[3]
* pin crc_out[1]
* pin data_in[1]
* pin data_in[0]
* pin rst_n
* pin crc_out[0]
* pin crc_out[2]
* pin data_in[2]
* pin data_in[3]
* pin crc_init
* pin data_valid
* pin crc_out[6]
* pin crc_out[4]
* pin clk
* pin crc_out[7]
* pin data_in[7]
* pin data_in[5]
* pin data_in[6]
* pin data_in[4]
* pin crc_out[5]
.SUBCKT parameterized_crc_generator 1 2 3 4 12 19 21 26 50 67 68 77 78 83 86 94
+ 95 98 99 100
* net 1 crc_out[3]
* net 2 crc_out[1]
* net 3 data_in[1]
* net 4 data_in[0]
* net 12 rst_n
* net 19 crc_out[0]
* net 21 crc_out[2]
* net 26 data_in[2]
* net 50 data_in[3]
* net 67 crc_init
* net 68 data_valid
* net 77 crc_out[6]
* net 78 crc_out[4]
* net 83 clk
* net 86 crc_out[7]
* net 94 data_in[7]
* net 95 data_in[5]
* net 98 data_in[6]
* net 99 data_in[4]
* net 100 crc_out[5]
* cell instance $3 m0 *1 29.44,8.16
X$3 7 20 1 5 7 5 sky130_fd_sc_hd__clkbuf_1
* cell instance $6 r0 *1 34.5,2.72
X$6 7 9 2 5 7 5 sky130_fd_sc_hd__clkbuf_1
* cell instance $9 r0 *1 36.34,2.72
X$9 7 3 30 5 7 5 sky130_fd_sc_hd__clkbuf_1
* cell instance $12 r0 *1 44.62,2.72
X$12 7 4 6 5 7 5 sky130_fd_sc_hd__clkbuf_1
* cell instance $261 m0 *1 62.1,24.48
X$261 5 8 10 7 7 5 sky130_fd_sc_hd__buf_6
* cell instance $286 r0 *1 27.14,24.48
X$286 5 10 9 13 15 7 7 5 sky130_fd_sc_hd__dfrtp_1
* cell instance $299 r0 *1 58.42,24.48
X$299 5 10 11 17 14 7 7 5 sky130_fd_sc_hd__dfrtp_1
* cell instance $305 r0 *1 69,24.48
X$305 7 11 19 5 7 5 sky130_fd_sc_hd__clkbuf_1
* cell instance $307 r0 *1 70.84,24.48
X$307 7 12 7 8 5 5 sky130_fd_sc_hd__dlygate4sd3_1
* cell instance $313 m0 *1 19.78,29.92
X$313 5 10 20 13 22 7 7 5 sky130_fd_sc_hd__dfrtp_1
* cell instance $315 m0 *1 29.44,29.92
X$315 5 27 16 28 24 7 7 5 sky130_fd_sc_hd__mux2_1
* cell instance $316 m0 *1 33.58,29.92
X$316 7 53 40 24 5 7 5 sky130_fd_sc_hd__nor2_1
* cell instance $317 m0 *1 34.96,29.92
X$317 7 23 15 16 5 7 5 sky130_fd_sc_hd__nor2_1
* cell instance $320 m0 *1 43.7,29.92
X$320 7 6 14 31 7 5 5 sky130_fd_sc_hd__xnor2_1
* cell instance $327 m0 *1 58.88,29.92
X$327 5 10 18 17 32 7 7 5 sky130_fd_sc_hd__dfrtp_1
* cell instance $329 m0 *1 68.54,29.92
X$329 7 18 21 5 7 5 sky130_fd_sc_hd__clkbuf_1
* cell instance $342 r0 *1 26.68,29.92
X$342 5 10 15 13 27 7 7 5 sky130_fd_sc_hd__dfrtp_1
* cell instance $343 r0 *1 35.88,29.92
X$343 7 30 15 36 7 5 5 sky130_fd_sc_hd__xnor2_1
* cell instance $348 r0 *1 44.16,29.92
X$348 7 31 35 34 7 5 5 sky130_fd_sc_hd__xnor2_1
* cell instance $349 r0 *1 47.38,29.92
X$349 5 10 32 17 29 7 7 5 sky130_fd_sc_hd__dfrtp_1
* cell instance $350 r0 *1 56.58,29.92
X$350 5 33 32 25 7 7 5 sky130_fd_sc_hd__xor2_2
* cell instance $352 r0 *1 63.02,29.92
X$352 7 26 33 5 7 5 sky130_fd_sc_hd__clkbuf_1
* cell instance $366 m0 *1 19.78,35.36
X$366 5 10 22 13 45 7 7 5 sky130_fd_sc_hd__dfrtp_1
* cell instance $369 m0 *1 29.9,35.36
X$369 7 23 15 28 5 7 5 sky130_fd_sc_hd__nor2b_1
* cell instance $370 m0 *1 32.2,35.36
X$370 7 39 48 43 5 7 51 5 sky130_fd_sc_hd__a21oi_1
* cell instance $371 m0 *1 34.04,35.36
X$371 5 40 31 35 30 7 7 5 sky130_fd_sc_hd__xnor3_1
* cell instance $374 m0 *1 42.32,35.36
X$374 7 36 25 7 42 5 5 sky130_fd_sc_hd__xor2_1
* cell instance $375 m0 *1 45.54,35.36
X$375 7 47 34 37 7 5 5 sky130_fd_sc_hd__xnor2_1
* cell instance $377 m0 *1 49.68,35.36
X$377 7 37 38 23 41 5 46 7 5 sky130_fd_sc_hd__a211oi_1
* cell instance $378 m0 *1 52.44,35.36
X$378 7 38 14 41 5 7 5 sky130_fd_sc_hd__nor2_1
* cell instance $382 m0 *1 57.04,35.36
X$382 5 10 14 17 46 7 7 5 sky130_fd_sc_hd__dfrtp_1
* cell instance $398 r0 *1 18.4,35.36
X$398 7 22 23 39 5 7 5 sky130_fd_sc_hd__nand2b_1
* cell instance $399 r0 *1 20.7,35.36
X$399 5 45 57 43 38 51 7 7 5 sky130_fd_sc_hd__a31o_1
* cell instance $400 r0 *1 23.92,35.36
X$400 7 22 52 49 7 5 5 sky130_fd_sc_hd__xnor2_1
* cell instance $401 r0 *1 27.14,35.36
X$401 5 13 101 7 7 5 sky130_fd_sc_hd__clkbuf_8
* cell instance $402 r0 *1 32.2,35.36
X$402 5 43 58 36 25 7 7 5 sky130_fd_sc_hd__xnor3_1
* cell instance $410 r0 *1 44.62,35.36
X$410 7 54 59 47 7 5 5 sky130_fd_sc_hd__xnor2_1
* cell instance $411 r0 *1 47.84,35.36
X$411 7 42 34 44 7 5 5 sky130_fd_sc_hd__xnor2_1
* cell instance $412 r0 *1 51.06,35.36
X$412 7 44 38 23 56 5 29 7 5 sky130_fd_sc_hd__a211oi_1
* cell instance $413 r0 *1 53.82,35.36
X$413 7 38 32 56 5 7 5 sky130_fd_sc_hd__nor2_1
* cell instance $428 m0 *1 5.98,40.8
X$428 7 50 52 5 7 5 sky130_fd_sc_hd__clkbuf_1
* cell instance $434 m0 *1 21.16,40.8
X$434 7 23 22 57 5 7 5 sky130_fd_sc_hd__nor2_1
* cell instance $435 m0 *1 22.54,40.8
X$435 7 48 7 5 53 5 sky130_fd_sc_hd__inv_1
* cell instance $436 m0 *1 23.92,40.8
X$436 5 61 13 7 7 5 sky130_fd_sc_hd__clkbuf_8
* cell instance $438 m0 *1 29.44,40.8
X$438 7 48 5 38 7 5 sky130_fd_sc_hd__buf_2
* cell instance $440 m0 *1 31.74,40.8
X$440 5 58 52 54 59 7 7 5 sky130_fd_sc_hd__xor3_1
* cell instance $441 m0 *1 40.48,40.8
X$441 5 83 61 7 7 5 sky130_fd_sc_hd__clkbuf_8
* cell instance $442 m0 *1 45.54,40.8
X$442 7 63 25 55 7 5 5 sky130_fd_sc_hd__xnor2_1
* cell instance $443 m0 *1 48.76,40.8
X$443 7 55 38 23 60 5 62 7 5 sky130_fd_sc_hd__a211oi_1
* cell instance $444 m0 *1 51.52,40.8
X$444 5 61 17 7 7 5 sky130_fd_sc_hd__clkbuf_8
* cell instance $452 r0 *1 1.38,40.8
X$452 7 67 64 5 7 5 sky130_fd_sc_hd__clkbuf_1
* cell instance $454 r0 *1 6.44,40.8
X$454 5 48 68 7 7 5 sky130_fd_sc_hd__dlymetal6s2s_1
* cell instance $462 r0 *1 21.62,40.8
X$462 7 64 5 23 7 5 sky130_fd_sc_hd__buf_2
* cell instance $464 r0 *1 23.92,40.8
X$464 5 10 54 13 73 7 7 5 sky130_fd_sc_hd__dfrtp_2
* cell instance $466 r0 *1 34.5,40.8
X$466 7 74 76 66 7 5 5 sky130_fd_sc_hd__xnor2_1
* cell instance $468 r0 *1 38.64,40.8
X$468 7 49 65 63 7 5 5 sky130_fd_sc_hd__xnor2_1
* cell instance $472 r0 *1 43.24,40.8
X$472 7 89 38 23 90 5 75 7 5 sky130_fd_sc_hd__a211oi_1
* cell instance $474 r0 *1 46.46,40.8
X$474 7 38 71 60 5 7 5 sky130_fd_sc_hd__nor2_1
* cell instance $475 r0 *1 47.84,40.8
X$475 5 10 71 17 62 7 7 5 sky130_fd_sc_hd__dfrtp_1
* cell instance $478 r0 *1 58.42,40.8
X$478 5 10 80 17 71 7 7 5 sky130_fd_sc_hd__dfrtp_1
* cell instance $496 m0 *1 21.62,46.24
X$496 7 23 54 72 5 7 5 sky130_fd_sc_hd__nor2_1
* cell instance $497 m0 *1 23,46.24
X$497 7 54 64 79 5 7 5 sky130_fd_sc_hd__nand2b_1
* cell instance $499 m0 *1 25.76,46.24
X$499 5 73 72 69 38 70 7 7 5 sky130_fd_sc_hd__a31o_1
* cell instance $501 m0 *1 29.44,46.24
X$501 7 79 48 69 5 7 70 5 sky130_fd_sc_hd__a21oi_1
* cell instance $504 m0 *1 33.58,46.24
X$504 5 69 66 35 59 7 7 5 sky130_fd_sc_hd__xor3_1
* cell instance $507 m0 *1 44.62,46.24
X$507 5 10 82 17 75 7 7 5 sky130_fd_sc_hd__dfrtp_2
* cell instance $513 m0 *1 58.42,46.24
X$513 5 10 81 17 54 7 7 5 sky130_fd_sc_hd__dfrtp_1
* cell instance $516 m0 *1 70.38,46.24
X$516 7 80 78 5 7 5 sky130_fd_sc_hd__clkbuf_1
* cell instance $530 r0 *1 24.38,46.24
X$530 5 10 74 13 87 7 7 5 sky130_fd_sc_hd__dfrtp_1
* cell instance $531 r0 *1 33.58,46.24
X$531 5 88 49 65 76 7 7 5 sky130_fd_sc_hd__xor3_1
* cell instance $536 r0 *1 43.7,46.24
X$536 5 82 97 35 7 7 5 sky130_fd_sc_hd__xnor2_4
* cell instance $537 r0 *1 53.82,46.24
X$537 5 10 85 17 82 7 7 5 sky130_fd_sc_hd__dfrtp_1
* cell instance $541 r0 *1 66.24,46.24
X$541 7 85 77 5 7 5 sky130_fd_sc_hd__clkbuf_1
* cell instance $547 r0 *1 71.76,46.24
X$547 7 81 86 5 7 5 sky130_fd_sc_hd__clkbuf_1
* cell instance $559 m0 *1 25.3,51.68
X$559 7 23 91 84 5 7 87 5 sky130_fd_sc_hd__a21oi_1
* cell instance $562 m0 *1 29.44,51.68
X$562 7 53 88 74 7 91 5 5 sky130_fd_sc_hd__o21ai_0
* cell instance $563 m0 *1 31.28,51.68
X$563 7 53 74 88 84 7 5 5 sky130_fd_sc_hd__or3_1
* cell instance $568 m0 *1 40.48,51.68
X$568 7 66 35 7 93 5 5 sky130_fd_sc_hd__xor2_1
* cell instance $571 m0 *1 43.7,51.68
X$571 7 93 65 89 7 5 5 sky130_fd_sc_hd__xnor2_1
* cell instance $573 m0 *1 47.38,51.68
X$573 7 38 82 90 5 7 5 sky130_fd_sc_hd__nor2_1
* cell instance $598 r0 *1 29.44,51.68
X$598 5 10 92 13 74 7 7 5 sky130_fd_sc_hd__dfrtp_1
* cell instance $603 r0 *1 43.24,51.68
X$603 5 96 71 65 7 7 5 sky130_fd_sc_hd__xor2_2
* cell instance $764 r0 *1 38.18,68
X$764 5 59 94 7 7 5 sky130_fd_sc_hd__dlymetal6s2s_1
* cell instance $813 m0 *1 32.66,73.44
X$813 7 92 100 5 7 5 sky130_fd_sc_hd__clkbuf_1
* cell instance $816 m0 *1 35.42,73.44
X$816 7 95 76 5 7 5 sky130_fd_sc_hd__clkbuf_1
* cell instance $824 m0 *1 43.7,73.44
X$824 7 99 96 5 7 5 sky130_fd_sc_hd__clkbuf_1
* cell instance $825 m0 *1 45.08,73.44
X$825 7 98 7 5 97 5 sky130_fd_sc_hd__clkbuf_2
.ENDS parameterized_crc_generator

* cell sky130_fd_sc_hd__dlygate4sd3_1
* pin VPB
* pin A
* pin VPWR
* pin X
* pin VGND
* pin 
.SUBCKT sky130_fd_sc_hd__dlygate4sd3_1 1 3 5 7 8 9
* net 1 VPB
* net 3 A
* net 5 VPWR
* net 7 X
* net 8 VGND
* device instance $1 r0 *1 2.465,2.275 pfet_01v8_hvt
M$1 6 2 5 1 pfet_01v8_hvt L=500000U W=420000U AS=140750000000P AD=109200000000P
+ PS=1325000U PD=1360000U
* device instance $2 r0 *1 3.115,1.985 pfet_01v8_hvt
M$2 7 6 5 1 pfet_01v8_hvt L=150000U W=1000000U AS=140750000000P
+ AD=260000000000P PS=1325000U PD=2520000U
* device instance $3 r0 *1 0.58,2.275 pfet_01v8_hvt
M$3 5 3 4 1 pfet_01v8_hvt L=150000U W=420000U AS=109200000000P AD=56700000000P
+ PS=1360000U PD=690000U
* device instance $4 r0 *1 1.175,2.275 pfet_01v8_hvt
M$4 2 4 5 1 pfet_01v8_hvt L=500000U W=420000U AS=56700000000P AD=109200000000P
+ PS=690000U PD=1360000U
* device instance $5 r0 *1 2.465,0.445 nfet_01v8
M$5 8 2 6 9 nfet_01v8 L=500000U W=420000U AS=109200000000P AD=97000000000P
+ PS=1360000U PD=975000U
* device instance $6 r0 *1 3.115,0.56 nfet_01v8
M$6 7 6 8 9 nfet_01v8 L=150000U W=650000U AS=97000000000P AD=169000000000P
+ PS=975000U PD=1820000U
* device instance $7 r0 *1 0.58,0.445 nfet_01v8
M$7 8 3 4 9 nfet_01v8 L=150000U W=420000U AS=109200000000P AD=56700000000P
+ PS=1360000U PD=690000U
* device instance $8 r0 *1 1.175,0.445 nfet_01v8
M$8 2 4 8 9 nfet_01v8 L=500000U W=420000U AS=56700000000P AD=109200000000P
+ PS=690000U PD=1360000U
.ENDS sky130_fd_sc_hd__dlygate4sd3_1

* cell sky130_fd_sc_hd__buf_6
* pin VGND
* pin A
* pin X
* pin VPWR
* pin VPB
* pin 
.SUBCKT sky130_fd_sc_hd__buf_6 1 2 4 5 6 7
* net 1 VGND
* net 2 A
* net 4 X
* net 5 VPWR
* net 6 VPB
* device instance $1 r0 *1 0.73,1.985 pfet_01v8_hvt
M$1 3 2 5 6 pfet_01v8_hvt L=150000U W=2000000U AS=395000000000P
+ AD=270000000000P PS=3790000U PD=2540000U
* device instance $3 r0 *1 1.57,1.985 pfet_01v8_hvt
M$3 4 3 5 6 pfet_01v8_hvt L=150000U W=6000000U AS=810000000000P
+ AD=935000000000P PS=7620000U PD=8870000U
* device instance $9 r0 *1 0.73,0.56 nfet_01v8
M$9 3 2 1 7 nfet_01v8 L=150000U W=1300000U AS=256750000000P AD=175500000000P
+ PS=2740000U PD=1840000U
* device instance $11 r0 *1 1.57,0.56 nfet_01v8
M$11 4 3 1 7 nfet_01v8 L=150000U W=3900000U AS=526500000000P AD=607750000000P
+ PS=5520000U PD=6420000U
.ENDS sky130_fd_sc_hd__buf_6

* cell sky130_fd_sc_hd__mux2_1
* pin VGND
* pin X
* pin A1
* pin A0
* pin S
* pin VPWR
* pin VPB
* pin 
.SUBCKT sky130_fd_sc_hd__mux2_1 1 2 3 5 9 10 11 14
* net 1 VGND
* net 2 X
* net 3 A1
* net 5 A0
* net 9 S
* net 10 VPWR
* net 11 VPB
* device instance $1 r0 *1 1.015,2.08 pfet_01v8_hvt
M$1 12 9 10 11 pfet_01v8_hvt L=150000U W=420000U AS=158350000000P
+ AD=76650000000P PS=1395000U PD=785000U
* device instance $2 r0 *1 1.53,2.08 pfet_01v8_hvt
M$2 4 5 12 11 pfet_01v8_hvt L=150000U W=420000U AS=76650000000P
+ AD=193200000000P PS=785000U PD=1340000U
* device instance $3 r0 *1 2.6,2.08 pfet_01v8_hvt
M$3 13 3 4 11 pfet_01v8_hvt L=150000U W=420000U AS=193200000000P
+ AD=44100000000P PS=1340000U PD=630000U
* device instance $4 r0 *1 2.96,2.08 pfet_01v8_hvt
M$4 10 6 13 11 pfet_01v8_hvt L=150000U W=420000U AS=44100000000P
+ AD=69300000000P PS=630000U PD=750000U
* device instance $5 r0 *1 3.44,2.08 pfet_01v8_hvt
M$5 6 9 10 11 pfet_01v8_hvt L=150000U W=420000U AS=69300000000P
+ AD=117600000000P PS=750000U PD=1400000U
* device instance $6 r0 *1 0.47,1.985 pfet_01v8_hvt
M$6 10 4 2 11 pfet_01v8_hvt L=150000U W=1000000U AS=260000000000P
+ AD=158350000000P PS=2520000U PD=1395000U
* device instance $7 r0 *1 1.015,0.445 nfet_01v8
M$7 7 9 1 14 nfet_01v8 L=150000U W=420000U AS=112850000000P AD=69300000000P
+ PS=1045000U PD=750000U
* device instance $8 r0 *1 1.495,0.445 nfet_01v8
M$8 4 3 7 14 nfet_01v8 L=150000U W=420000U AS=69300000000P AD=99750000000P
+ PS=750000U PD=895000U
* device instance $9 r0 *1 2.12,0.445 nfet_01v8
M$9 8 5 4 14 nfet_01v8 L=150000U W=420000U AS=99750000000P AD=69300000000P
+ PS=895000U PD=750000U
* device instance $10 r0 *1 2.6,0.445 nfet_01v8
M$10 1 6 8 14 nfet_01v8 L=150000U W=420000U AS=69300000000P AD=144900000000P
+ PS=750000U PD=1110000U
* device instance $11 r0 *1 3.44,0.445 nfet_01v8
M$11 6 9 1 14 nfet_01v8 L=150000U W=420000U AS=144900000000P AD=109200000000P
+ PS=1110000U PD=1360000U
* device instance $12 r0 *1 0.47,0.56 nfet_01v8
M$12 1 4 2 14 nfet_01v8 L=150000U W=650000U AS=169000000000P AD=112850000000P
+ PS=1820000U PD=1045000U
.ENDS sky130_fd_sc_hd__mux2_1

* cell sky130_fd_sc_hd__nor2b_1
* pin VPB
* pin A
* pin B_N
* pin Y
* pin VGND
* pin VPWR
* pin 
.SUBCKT sky130_fd_sc_hd__nor2b_1 1 2 3 4 6 7 8
* net 1 VPB
* net 2 A
* net 3 B_N
* net 4 Y
* net 6 VGND
* net 7 VPWR
* device instance $1 r0 *1 0.71,1.695 pfet_01v8_hvt
M$1 7 3 5 1 pfet_01v8_hvt L=150000U W=420000U AS=109200000000P AD=157300000000P
+ PS=1360000U PD=1390000U
* device instance $2 r0 *1 1.25,1.985 pfet_01v8_hvt
M$2 9 2 7 1 pfet_01v8_hvt L=150000U W=1000000U AS=157300000000P
+ AD=105000000000P PS=1390000U PD=1210000U
* device instance $3 r0 *1 1.61,1.985 pfet_01v8_hvt
M$3 4 5 9 1 pfet_01v8_hvt L=150000U W=1000000U AS=105000000000P
+ AD=260000000000P PS=1210000U PD=2520000U
* device instance $4 r0 *1 0.705,0.445 nfet_01v8
M$4 6 3 5 8 nfet_01v8 L=150000U W=420000U AS=109200000000P AD=100250000000P
+ PS=1360000U PD=985000U
* device instance $5 r0 *1 1.19,0.56 nfet_01v8
M$5 4 2 6 8 nfet_01v8 L=150000U W=650000U AS=100250000000P AD=87750000000P
+ PS=985000U PD=920000U
* device instance $6 r0 *1 1.61,0.56 nfet_01v8
M$6 6 5 4 8 nfet_01v8 L=150000U W=650000U AS=87750000000P AD=169000000000P
+ PS=920000U PD=1820000U
.ENDS sky130_fd_sc_hd__nor2b_1

* cell sky130_fd_sc_hd__or3_1
* pin VPB
* pin A
* pin B
* pin C
* pin X
* pin VPWR
* pin VGND
* pin 
.SUBCKT sky130_fd_sc_hd__or3_1 1 2 3 4 5 6 7 9
* net 1 VPB
* net 2 A
* net 3 B
* net 4 C
* net 5 X
* net 6 VPWR
* net 7 VGND
* device instance $1 r0 *1 0.48,1.695 pfet_01v8_hvt
M$1 11 4 8 1 pfet_01v8_hvt L=150000U W=420000U AS=109200000000P AD=44100000000P
+ PS=1360000U PD=630000U
* device instance $2 r0 *1 0.84,1.695 pfet_01v8_hvt
M$2 10 3 11 1 pfet_01v8_hvt L=150000U W=420000U AS=44100000000P AD=69300000000P
+ PS=630000U PD=750000U
* device instance $3 r0 *1 1.32,1.695 pfet_01v8_hvt
M$3 6 2 10 1 pfet_01v8_hvt L=150000U W=420000U AS=69300000000P AD=148250000000P
+ PS=750000U PD=1340000U
* device instance $4 r0 *1 1.81,1.985 pfet_01v8_hvt
M$4 5 8 6 1 pfet_01v8_hvt L=150000U W=1000000U AS=148250000000P
+ AD=280000000000P PS=1340000U PD=2560000U
* device instance $5 r0 *1 0.48,0.475 nfet_01v8
M$5 7 4 8 9 nfet_01v8 L=150000U W=420000U AS=109200000000P AD=56700000000P
+ PS=1360000U PD=690000U
* device instance $6 r0 *1 0.9,0.475 nfet_01v8
M$6 8 3 7 9 nfet_01v8 L=150000U W=420000U AS=56700000000P AD=56700000000P
+ PS=690000U PD=690000U
* device instance $7 r0 *1 1.32,0.475 nfet_01v8
M$7 8 2 7 9 nfet_01v8 L=150000U W=420000U AS=101875000000P AD=56700000000P
+ PS=990000U PD=690000U
* device instance $8 r0 *1 1.81,0.56 nfet_01v8
M$8 5 8 7 9 nfet_01v8 L=150000U W=650000U AS=101875000000P AD=182000000000P
+ PS=990000U PD=1860000U
.ENDS sky130_fd_sc_hd__or3_1

* cell sky130_fd_sc_hd__o21ai_0
* pin VPB
* pin A1
* pin A2
* pin B1
* pin VPWR
* pin Y
* pin VGND
* pin 
.SUBCKT sky130_fd_sc_hd__o21ai_0 1 2 3 4 5 6 8 9
* net 1 VPB
* net 2 A1
* net 3 A2
* net 4 B1
* net 5 VPWR
* net 6 Y
* net 8 VGND
* device instance $1 r0 *1 0.525,2.165 pfet_01v8_hvt
M$1 10 2 5 1 pfet_01v8_hvt L=150000U W=640000U AS=169600000000P AD=76800000000P
+ PS=1810000U PD=880000U
* device instance $2 r0 *1 0.915,2.165 pfet_01v8_hvt
M$2 6 3 10 1 pfet_01v8_hvt L=150000U W=640000U AS=76800000000P AD=89600000000P
+ PS=880000U PD=920000U
* device instance $3 r0 *1 1.345,2.165 pfet_01v8_hvt
M$3 5 4 6 1 pfet_01v8_hvt L=150000U W=640000U AS=89600000000P AD=182400000000P
+ PS=920000U PD=1850000U
* device instance $4 r0 *1 0.5,0.445 nfet_01v8
M$4 8 2 7 9 nfet_01v8 L=150000U W=420000U AS=111300000000P AD=58800000000P
+ PS=1370000U PD=700000U
* device instance $5 r0 *1 0.93,0.445 nfet_01v8
M$5 7 3 8 9 nfet_01v8 L=150000U W=420000U AS=58800000000P AD=58800000000P
+ PS=700000U PD=700000U
* device instance $6 r0 *1 1.36,0.445 nfet_01v8
M$6 6 4 7 9 nfet_01v8 L=150000U W=420000U AS=58800000000P AD=111300000000P
+ PS=700000U PD=1370000U
.ENDS sky130_fd_sc_hd__o21ai_0

* cell sky130_fd_sc_hd__a21oi_1
* pin VPB
* pin B1
* pin A1
* pin A2
* pin VGND
* pin VPWR
* pin Y
* pin 
.SUBCKT sky130_fd_sc_hd__a21oi_1 1 2 3 4 5 7 8 9
* net 1 VPB
* net 2 B1
* net 3 A1
* net 4 A2
* net 5 VGND
* net 7 VPWR
* net 8 Y
* device instance $1 r0 *1 0.49,1.985 pfet_01v8_hvt
M$1 6 2 8 1 pfet_01v8_hvt L=150000U W=1000000U AS=265000000000P
+ AD=140000000000P PS=2530000U PD=1280000U
* device instance $2 r0 *1 0.92,1.985 pfet_01v8_hvt
M$2 7 3 6 1 pfet_01v8_hvt L=150000U W=1000000U AS=140000000000P
+ AD=147500000000P PS=1280000U PD=1295000U
* device instance $3 r0 *1 1.365,1.985 pfet_01v8_hvt
M$3 6 4 7 1 pfet_01v8_hvt L=150000U W=1000000U AS=147500000000P
+ AD=265000000000P PS=1295000U PD=2530000U
* device instance $4 r0 *1 0.49,0.56 nfet_01v8
M$4 8 2 5 9 nfet_01v8 L=150000U W=650000U AS=172250000000P AD=91000000000P
+ PS=1830000U PD=930000U
* device instance $5 r0 *1 0.92,0.56 nfet_01v8
M$5 10 3 8 9 nfet_01v8 L=150000U W=650000U AS=91000000000P AD=95875000000P
+ PS=930000U PD=945000U
* device instance $6 r0 *1 1.365,0.56 nfet_01v8
M$6 5 4 10 9 nfet_01v8 L=150000U W=650000U AS=95875000000P AD=172250000000P
+ PS=945000U PD=1830000U
.ENDS sky130_fd_sc_hd__a21oi_1

* cell sky130_fd_sc_hd__dfrtp_2
* pin VGND
* pin RESET_B
* pin Q
* pin CLK
* pin D
* pin VPWR
* pin VPB
* pin 
.SUBCKT sky130_fd_sc_hd__dfrtp_2 1 6 9 14 15 17 18 21
* net 1 VGND
* net 6 RESET_B
* net 9 Q
* net 14 CLK
* net 15 D
* net 17 VPWR
* net 18 VPB
* device instance $1 r0 *1 8.73,1.985 pfet_01v8_hvt
M$1 9 8 17 18 pfet_01v8_hvt L=150000U W=2000000U AS=436200000000P
+ AD=395000000000P PS=3930000U PD=3790000U
* device instance $3 r0 *1 5.35,2.065 pfet_01v8_hvt
M$3 16 5 17 18 pfet_01v8_hvt L=150000U W=840000U AS=218400000000P
+ AD=129150000000P PS=2200000U PD=1185000U
* device instance $4 r0 *1 5.845,2.275 pfet_01v8_hvt
M$4 7 2 16 18 pfet_01v8_hvt L=150000U W=420000U AS=129150000000P
+ AD=58800000000P PS=1185000U PD=700000U
* device instance $5 r0 *1 6.275,2.275 pfet_01v8_hvt
M$5 20 3 7 18 pfet_01v8_hvt L=150000U W=420000U AS=58800000000P AD=56700000000P
+ PS=700000U PD=690000U
* device instance $6 r0 *1 6.695,2.275 pfet_01v8_hvt
M$6 17 8 20 18 pfet_01v8_hvt L=150000U W=420000U AS=56700000000P
+ AD=81900000000P PS=690000U PD=810000U
* device instance $7 r0 *1 7.235,2.275 pfet_01v8_hvt
M$7 8 6 17 18 pfet_01v8_hvt L=150000U W=420000U AS=81900000000P AD=56700000000P
+ PS=810000U PD=690000U
* device instance $8 r0 *1 7.655,2.275 pfet_01v8_hvt
M$8 17 7 8 18 pfet_01v8_hvt L=150000U W=420000U AS=56700000000P
+ AD=113400000000P PS=690000U PD=1380000U
* device instance $9 r0 *1 2.225,2.275 pfet_01v8_hvt
M$9 4 15 17 18 pfet_01v8_hvt L=150000U W=420000U AS=109200000000P
+ AD=65100000000P PS=1360000U PD=730000U
* device instance $10 r0 *1 2.685,2.275 pfet_01v8_hvt
M$10 5 3 4 18 pfet_01v8_hvt L=150000U W=420000U AS=65100000000P AD=72450000000P
+ PS=730000U PD=765000U
* device instance $11 r0 *1 3.18,2.275 pfet_01v8_hvt
M$11 19 2 5 18 pfet_01v8_hvt L=150000U W=420000U AS=72450000000P
+ AD=115500000000P PS=765000U PD=970000U
* device instance $12 r0 *1 3.88,2.275 pfet_01v8_hvt
M$12 17 16 19 18 pfet_01v8_hvt L=150000U W=420000U AS=115500000000P
+ AD=70350000000P PS=970000U PD=755000U
* device instance $13 r0 *1 4.365,2.275 pfet_01v8_hvt
M$13 19 6 17 18 pfet_01v8_hvt L=150000U W=420000U AS=70350000000P
+ AD=109200000000P PS=755000U PD=1360000U
* device instance $14 r0 *1 0.47,2.135 pfet_01v8_hvt
M$14 17 14 2 18 pfet_01v8_hvt L=150000U W=640000U AS=166400000000P
+ AD=86400000000P PS=1800000U PD=910000U
* device instance $15 r0 *1 0.89,2.135 pfet_01v8_hvt
M$15 3 2 17 18 pfet_01v8_hvt L=150000U W=640000U AS=86400000000P
+ AD=166400000000P PS=910000U PD=1800000U
* device instance $16 r0 *1 8.73,0.56 nfet_01v8
M$16 9 8 1 21 nfet_01v8 L=150000U W=1300000U AS=296450000000P AD=256750000000P
+ PS=2940000U PD=2740000U
* device instance $18 r0 *1 0.47,0.445 nfet_01v8
M$18 1 14 2 21 nfet_01v8 L=150000U W=420000U AS=109200000000P AD=56700000000P
+ PS=1360000U PD=690000U
* device instance $19 r0 *1 0.89,0.445 nfet_01v8
M$19 3 2 1 21 nfet_01v8 L=150000U W=420000U AS=56700000000P AD=109200000000P
+ PS=690000U PD=1360000U
* device instance $20 r0 *1 2.64,0.415 nfet_01v8
M$20 5 2 4 21 nfet_01v8 L=150000U W=360000U AS=66000000000P AD=59400000000P
+ PS=745000U PD=690000U
* device instance $21 r0 *1 3.12,0.415 nfet_01v8
M$21 11 3 5 21 nfet_01v8 L=150000U W=360000U AS=59400000000P AD=140100000000P
+ PS=690000U PD=1100000U
* device instance $22 r0 *1 5.465,0.415 nfet_01v8
M$22 7 3 16 21 nfet_01v8 L=150000U W=360000U AS=99900000000P AD=71100000000P
+ PS=985000U PD=755000U
* device instance $23 r0 *1 6.01,0.415 nfet_01v8
M$23 12 2 7 21 nfet_01v8 L=150000U W=360000U AS=71100000000P AD=66900000000P
+ PS=755000U PD=750000U
* device instance $24 r0 *1 2.165,0.445 nfet_01v8
M$24 4 15 1 21 nfet_01v8 L=150000U W=420000U AS=220500000000P AD=66000000000P
+ PS=1890000U PD=745000U
* device instance $25 r0 *1 3.95,0.445 nfet_01v8
M$25 13 16 11 21 nfet_01v8 L=150000U W=420000U AS=140100000000P AD=44100000000P
+ PS=1100000U PD=630000U
* device instance $26 r0 *1 4.31,0.445 nfet_01v8
M$26 1 6 13 21 nfet_01v8 L=150000U W=420000U AS=44100000000P AD=134600000000P
+ PS=630000U PD=1150000U
* device instance $27 r0 *1 6.49,0.445 nfet_01v8
M$27 1 8 12 21 nfet_01v8 L=150000U W=420000U AS=66900000000P AD=124950000000P
+ PS=750000U PD=1015000U
* device instance $28 r0 *1 7.235,0.445 nfet_01v8
M$28 10 6 1 21 nfet_01v8 L=150000U W=420000U AS=124950000000P AD=64050000000P
+ PS=1015000U PD=725000U
* device instance $29 r0 *1 7.69,0.445 nfet_01v8
M$29 8 7 10 21 nfet_01v8 L=150000U W=420000U AS=64050000000P AD=109200000000P
+ PS=725000U PD=1360000U
* device instance $30 r0 *1 4.97,0.555 nfet_01v8
M$30 16 5 1 21 nfet_01v8 L=150000U W=640000U AS=134600000000P AD=99900000000P
+ PS=1150000U PD=985000U
.ENDS sky130_fd_sc_hd__dfrtp_2

* cell sky130_fd_sc_hd__xnor2_4
* pin VGND
* pin B
* pin A
* pin Y
* pin VPWR
* pin VPB
* pin 
.SUBCKT sky130_fd_sc_hd__xnor2_4 1 2 3 7 8 10 11
* net 1 VGND
* net 2 B
* net 3 A
* net 7 Y
* net 8 VPWR
* net 10 VPB
* device instance $1 r0 *1 4.435,1.985 pfet_01v8_hvt
M$1 8 3 9 10 pfet_01v8_hvt L=150000U W=4000000U AS=665000000000P
+ AD=540000000000P PS=6330000U PD=5080000U
* device instance $5 r0 *1 6.115,1.985 pfet_01v8_hvt
M$5 7 2 9 10 pfet_01v8_hvt L=150000U W=4000000U AS=540000000000P
+ AD=665000000000P PS=5080000U PD=6330000U
* device instance $9 r0 *1 8.335,1.985 pfet_01v8_hvt
M$9 8 5 7 10 pfet_01v8_hvt L=150000U W=4000000U AS=685000000000P
+ AD=685000000000P PS=6370000U PD=6370000U
* device instance $13 r0 *1 0.545,1.985 pfet_01v8_hvt
M$13 8 2 5 10 pfet_01v8_hvt L=150000U W=4000000U AS=685000000000P
+ AD=540000000000P PS=6370000U PD=5080000U
* device instance $17 r0 *1 2.225,1.985 pfet_01v8_hvt
M$17 8 3 5 10 pfet_01v8_hvt L=150000U W=4000000U AS=540000000000P
+ AD=665000000000P PS=5080000U PD=6330000U
* device instance $21 r0 *1 8.335,0.56 nfet_01v8
M$21 7 5 6 11 nfet_01v8 L=150000U W=2600000U AS=432250000000P AD=445250000000P
+ PS=4580000U PD=4620000U
* device instance $25 r0 *1 4.435,0.56 nfet_01v8
M$25 6 3 1 11 nfet_01v8 L=150000U W=2600000U AS=432250000000P AD=351000000000P
+ PS=4580000U PD=3680000U
* device instance $29 r0 *1 6.115,0.56 nfet_01v8
M$29 6 2 1 11 nfet_01v8 L=150000U W=2600000U AS=351000000000P AD=432250000000P
+ PS=3680000U PD=4580000U
* device instance $33 r0 *1 0.545,0.56 nfet_01v8
M$33 5 2 4 11 nfet_01v8 L=150000U W=2600000U AS=445250000000P AD=351000000000P
+ PS=4620000U PD=3680000U
* device instance $37 r0 *1 2.225,0.56 nfet_01v8
M$37 1 3 4 11 nfet_01v8 L=150000U W=2600000U AS=351000000000P AD=432250000000P
+ PS=3680000U PD=4580000U
.ENDS sky130_fd_sc_hd__xnor2_4

* cell sky130_fd_sc_hd__xor2_1
* pin VPB
* pin B
* pin A
* pin VPWR
* pin X
* pin VGND
* pin 
.SUBCKT sky130_fd_sc_hd__xor2_1 1 2 3 6 7 8 9
* net 1 VPB
* net 2 B
* net 3 A
* net 6 VPWR
* net 7 X
* net 8 VGND
* device instance $1 r0 *1 2.71,1.985 pfet_01v8_hvt
M$1 7 4 5 1 pfet_01v8_hvt L=150000U W=1000000U AS=260000000000P
+ AD=300000000000P PS=2520000U PD=2600000U
* device instance $2 r0 *1 0.51,1.985 pfet_01v8_hvt
M$2 10 2 4 1 pfet_01v8_hvt L=150000U W=1000000U AS=260000000000P
+ AD=135000000000P PS=2520000U PD=1270000U
* device instance $3 r0 *1 0.93,1.985 pfet_01v8_hvt
M$3 6 3 10 1 pfet_01v8_hvt L=150000U W=1000000U AS=135000000000P
+ AD=135000000000P PS=1270000U PD=1270000U
* device instance $4 r0 *1 1.35,1.985 pfet_01v8_hvt
M$4 5 3 6 1 pfet_01v8_hvt L=150000U W=1000000U AS=135000000000P
+ AD=135000000000P PS=1270000U PD=1270000U
* device instance $5 r0 *1 1.77,1.985 pfet_01v8_hvt
M$5 6 2 5 1 pfet_01v8_hvt L=150000U W=1000000U AS=135000000000P
+ AD=260000000000P PS=1270000U PD=2520000U
* device instance $6 r0 *1 0.51,0.56 nfet_01v8
M$6 4 2 8 9 nfet_01v8 L=150000U W=650000U AS=169000000000P AD=87750000000P
+ PS=1820000U PD=920000U
* device instance $7 r0 *1 0.93,0.56 nfet_01v8
M$7 8 3 4 9 nfet_01v8 L=150000U W=650000U AS=87750000000P AD=87750000000P
+ PS=920000U PD=920000U
* device instance $8 r0 *1 1.35,0.56 nfet_01v8
M$8 11 3 8 9 nfet_01v8 L=150000U W=650000U AS=87750000000P AD=87750000000P
+ PS=920000U PD=920000U
* device instance $9 r0 *1 1.77,0.56 nfet_01v8
M$9 7 2 11 9 nfet_01v8 L=150000U W=650000U AS=87750000000P AD=250250000000P
+ PS=920000U PD=1420000U
* device instance $10 r0 *1 2.69,0.56 nfet_01v8
M$10 8 4 7 9 nfet_01v8 L=150000U W=650000U AS=250250000000P AD=208000000000P
+ PS=1420000U PD=1940000U
.ENDS sky130_fd_sc_hd__xor2_1

* cell sky130_fd_sc_hd__xor2_2
* pin VGND
* pin A
* pin B
* pin X
* pin VPWR
* pin VPB
* pin 
.SUBCKT sky130_fd_sc_hd__xor2_2 1 3 4 6 8 10 11
* net 1 VGND
* net 3 A
* net 4 B
* net 6 X
* net 8 VPWR
* net 10 VPB
* device instance $1 r0 *1 4.94,1.985 pfet_01v8_hvt
M$1 6 2 9 10 pfet_01v8_hvt L=150000U W=2000000U AS=395000000000P
+ AD=415000000000P PS=3790000U PD=3830000U
* device instance $3 r0 *1 2.685,1.985 pfet_01v8_hvt
M$3 8 3 9 10 pfet_01v8_hvt L=150000U W=2000000U AS=395000000000P
+ AD=270000000000P PS=3790000U PD=2540000U
* device instance $5 r0 *1 3.525,1.985 pfet_01v8_hvt
M$5 8 4 9 10 pfet_01v8_hvt L=150000U W=2000000U AS=297500000000P
+ AD=422500000000P PS=2595000U PD=3845000U
* device instance $7 r0 *1 0.485,1.985 pfet_01v8_hvt
M$7 8 3 7 10 pfet_01v8_hvt L=150000U W=2000000U AS=410000000000P
+ AD=270000000000P PS=3820000U PD=2540000U
* device instance $9 r0 *1 1.325,1.985 pfet_01v8_hvt
M$9 2 4 7 10 pfet_01v8_hvt L=150000U W=2000000U AS=270000000000P
+ AD=395000000000P PS=2540000U PD=3790000U
* device instance $11 r0 *1 4.94,0.56 nfet_01v8
M$11 6 2 1 11 nfet_01v8 L=150000U W=1300000U AS=256750000000P AD=256750000000P
+ PS=2740000U PD=2740000U
* device instance $13 r0 *1 2.685,0.56 nfet_01v8
M$13 1 3 5 11 nfet_01v8 L=150000U W=1300000U AS=256750000000P AD=175500000000P
+ PS=2740000U PD=1840000U
* device instance $15 r0 *1 3.525,0.56 nfet_01v8
M$15 6 4 5 11 nfet_01v8 L=150000U W=1300000U AS=193375000000P AD=274625000000P
+ PS=1895000U PD=2795000U
* device instance $17 r0 *1 0.485,0.56 nfet_01v8
M$17 2 3 1 11 nfet_01v8 L=150000U W=1300000U AS=266500000000P AD=175500000000P
+ PS=2770000U PD=1840000U
* device instance $19 r0 *1 1.325,0.56 nfet_01v8
M$19 2 4 1 11 nfet_01v8 L=150000U W=1300000U AS=175500000000P AD=256750000000P
+ PS=1840000U PD=2740000U
.ENDS sky130_fd_sc_hd__xor2_2

* cell sky130_fd_sc_hd__clkbuf_2
* pin VPB
* pin A
* pin VPWR
* pin VGND
* pin X
* pin 
.SUBCKT sky130_fd_sc_hd__clkbuf_2 1 2 3 4 6 7
* net 1 VPB
* net 2 A
* net 3 VPWR
* net 4 VGND
* net 6 X
* device instance $1 r0 *1 0.475,1.985 pfet_01v8_hvt
M$1 3 2 5 1 pfet_01v8_hvt L=150000U W=1000000U AS=265000000000P
+ AD=162500000000P PS=2530000U PD=1325000U
* device instance $2 r0 *1 0.95,1.985 pfet_01v8_hvt
M$2 6 5 3 1 pfet_01v8_hvt L=150000U W=2000000U AS=297500000000P
+ AD=395000000000P PS=2595000U PD=3790000U
* device instance $4 r0 *1 0.475,0.445 nfet_01v8
M$4 4 2 5 7 nfet_01v8 L=150000U W=420000U AS=111300000000P AD=68250000000P
+ PS=1370000U PD=745000U
* device instance $5 r0 *1 0.95,0.445 nfet_01v8
M$5 6 5 4 7 nfet_01v8 L=150000U W=840000U AS=124950000000P AD=165900000000P
+ PS=1435000U PD=2050000U
.ENDS sky130_fd_sc_hd__clkbuf_2

* cell sky130_fd_sc_hd__dlymetal6s2s_1
* pin VGND
* pin X
* pin A
* pin VPWR
* pin VPB
* pin 
.SUBCKT sky130_fd_sc_hd__dlymetal6s2s_1 1 3 8 9 10 11
* net 1 VGND
* net 3 X
* net 8 A
* net 9 VPWR
* net 10 VPB
* device instance $1 r0 *1 3.655,2.275 pfet_01v8_hvt
M$1 6 5 9 10 pfet_01v8_hvt L=150000U W=420000U AS=140750000000P
+ AD=109200000000P PS=1325000U PD=1360000U
* device instance $2 r0 *1 4.13,1.985 pfet_01v8_hvt
M$2 7 6 9 10 pfet_01v8_hvt L=150000U W=1000000U AS=140750000000P
+ AD=260000000000P PS=1325000U PD=2520000U
* device instance $3 r0 *1 2.24,2.275 pfet_01v8_hvt
M$3 4 3 9 10 pfet_01v8_hvt L=150000U W=420000U AS=140750000000P
+ AD=109200000000P PS=1325000U PD=1360000U
* device instance $4 r0 *1 2.715,1.985 pfet_01v8_hvt
M$4 5 4 9 10 pfet_01v8_hvt L=150000U W=1000000U AS=140750000000P
+ AD=260000000000P PS=1325000U PD=2520000U
* device instance $5 r0 *1 0.645,2.275 pfet_01v8_hvt
M$5 2 8 9 10 pfet_01v8_hvt L=150000U W=420000U AS=140750000000P
+ AD=109200000000P PS=1325000U PD=1360000U
* device instance $6 r0 *1 1.12,1.985 pfet_01v8_hvt
M$6 3 2 9 10 pfet_01v8_hvt L=150000U W=1000000U AS=140750000000P
+ AD=260000000000P PS=1325000U PD=2520000U
* device instance $7 r0 *1 3.655,0.445 nfet_01v8