
* cell parameterized_loadable_counter
* pin data_in[4]
* pin count[4]
* pin count[3]
* pin data_in[3]
* pin data_in[5]
* pin data_in[2]
* pin count[5]
* pin load
* pin count[6]
* pin clk
* pin count[2]
* pin data_in[6]
* pin data_in[1]
* pin enable
* pin data_in[7]
* pin count[0]
* pin count[7]
* pin rst_n
* pin count[1]
* pin data_in[0]
* pin NWELL
* pin PWELL,gf180mcu_gnd
.SUBCKT parameterized_loadable_counter 1 2 3 4 9 15 18 28 35 54 55 59 60 61 63
+ 66 67 74 76 77 78 79
* net 1 data_in[4]
* net 2 count[4]
* net 3 count[3]
* net 4 data_in[3]
* net 9 data_in[5]
* net 15 data_in[2]
* net 18 count[5]
* net 28 load
* net 35 count[6]
* net 54 clk
* net 55 count[2]
* net 59 data_in[6]
* net 60 data_in[1]
* net 61 enable
* net 63 data_in[7]
* net 66 count[0]
* net 67 count[7]
* net 74 rst_n
* net 76 count[1]
* net 77 data_in[0]
* net 78 NWELL
* net 79 PWELL,gf180mcu_gnd
* cell instance $4 r0 *1 61.04,5.04
X$4 1 78 79 7 gf180mcu_fd_sc_mcu9t5v0__dlyb_2
* cell instance $8 m0 *1 57.68,15.12
X$8 6 78 79 2 gf180mcu_fd_sc_mcu9t5v0__dlyb_2
* cell instance $11 r0 *1 50.4,5.04
X$11 5 78 79 3 gf180mcu_fd_sc_mcu9t5v0__dlyb_2
* cell instance $16 r0 *1 81.2,5.04
X$16 4 78 79 8 gf180mcu_fd_sc_mcu9t5v0__dlyb_2
* cell instance $18 r0 *1 101.92,65.52
X$18 5 6 24 40 79 78 49 gf180mcu_fd_sc_mcu9t5v0__and4_2
* cell instance $20 m0 *1 68.88,55.44
X$20 5 79 16 78 21 gf180mcu_fd_sc_mcu9t5v0__xor2_2
* cell instance $23 r0 *1 49.84,65.52
X$23 37 46 32 5 79 78 36 gf180mcu_fd_sc_mcu9t5v0__and4_2
* cell instance $30 r0 *1 76.16,55.44
X$30 79 27 5 25 30 78 gf180mcu_fd_sc_mcu9t5v0__dffrnq_2
* cell instance $33 m0 *1 104.16,65.52
X$33 79 34 5 78 6 24 gf180mcu_fd_sc_mcu9t5v0__nand3_2
* cell instance $35 m0 *1 104.72,55.44
X$35 78 5 6 79 17 gf180mcu_fd_sc_mcu9t5v0__and2_2
* cell instance $38 r0 *1 58.8,55.44
X$38 6 79 36 78 23 gf180mcu_fd_sc_mcu9t5v0__xor2_2
* cell instance $48 r0 *1 57.12,65.52
X$48 79 27 6 38 33 78 gf180mcu_fd_sc_mcu9t5v0__dffrnq_2
* cell instance $53 m0 *1 63.28,65.52
X$53 79 78 33 23 13 7 gf180mcu_fd_sc_mcu9t5v0__mux2_2
* cell instance $56 m0 *1 78.4,55.44
X$56 79 78 30 21 13 8 gf180mcu_fd_sc_mcu9t5v0__mux2_2
* cell instance $59 r0 *1 125.44,45.36
X$59 9 78 79 10 gf180mcu_fd_sc_mcu9t5v0__dlyb_2
* cell instance $62 m0 *1 128.24,55.44
X$62 78 14 10 79 19 gf180mcu_fd_sc_mcu9t5v0__and2_2
* cell instance $64 m0 *1 117.6,55.44
X$64 19 79 20 11 78 26 gf180mcu_fd_sc_mcu9t5v0__or3_2
* cell instance $67 m0 *1 109.76,55.44
X$67 13 12 16 17 79 78 11 gf180mcu_fd_sc_mcu9t5v0__and4_2
* cell instance $70 r0 *1 109.2,55.44
X$70 17 16 14 20 12 78 79 gf180mcu_fd_sc_mcu9t5v0__aoi211_2
* cell instance $76 r0 *1 105.84,55.44
X$76 79 78 24 12 gf180mcu_fd_sc_mcu9t5v0__clkinv_2
* cell instance $78 m0 *1 107.52,75.6
X$78 78 34 44 39 13 40 79 gf180mcu_fd_sc_mcu9t5v0__oai211_2
* cell instance $81 r0 *1 113.68,75.6
X$81 13 48 16 49 79 78 52 gf180mcu_fd_sc_mcu9t5v0__and4_2
* cell instance $90 r0 *1 36.96,55.44
X$90 79 78 22 31 13 29 gf180mcu_fd_sc_mcu9t5v0__mux2_2
* cell instance $94 m0 *1 43.12,95.76
X$94 79 78 73 70 13 65 gf180mcu_fd_sc_mcu9t5v0__mux2_2
* cell instance $96 r0 *1 111.44,85.68
X$96 79 78 14 13 gf180mcu_fd_sc_mcu9t5v0__inv_4
* cell instance $98 m0 *1 33.04,95.76
X$98 79 78 69 62 13 72 gf180mcu_fd_sc_mcu9t5v0__mux2_2
* cell instance $102 m0 *1 133.28,55.44
X$102 28 78 79 14 gf180mcu_fd_sc_mcu9t5v0__buf_3
* cell instance $107 r0 *1 128.24,75.6
X$107 79 78 14 41 53 gf180mcu_fd_sc_mcu9t5v0__nand2_2
* cell instance $109 m0 *1 113.68,85.68
X$109 49 16 14 57 48 78 79 gf180mcu_fd_sc_mcu9t5v0__aoi211_2
* cell instance $119 r0 *1 128.8,85.68
X$119 78 14 68 79 64 gf180mcu_fd_sc_mcu9t5v0__and2_2
* cell instance $121 r0 *1 109.2,65.52
X$121 14 40 39 34 78 79 45 gf180mcu_fd_sc_mcu9t5v0__or4_2
* cell instance $126 r0 *1 11.2,55.44
X$126 15 78 79 29 gf180mcu_fd_sc_mcu9t5v0__dlyb_2
* cell instance $140 m0 *1 61.04,85.68
X$140 37 50 32 51 79 78 16 gf180mcu_fd_sc_mcu9t5v0__and4_2
* cell instance $149 m0 *1 133.84,65.52
X$149 24 78 79 18 gf180mcu_fd_sc_mcu9t5v0__dlyb_2
* cell instance $161 m0 *1 35.28,65.52
X$161 79 27 32 38 22 78 gf180mcu_fd_sc_mcu9t5v0__dffrnq_2
* cell instance $172 r0 *1 120.96,55.44
X$172 79 27 24 25 26 78 gf180mcu_fd_sc_mcu9t5v0__dffrnq_2
* cell instance $176 m0 *1 119.84,75.6
X$176 79 27 40 25 42 78 gf180mcu_fd_sc_mcu9t5v0__dffrnq_2
* cell instance $180 m0 *1 114.24,95.76
X$180 79 27 58 25 71 78 gf180mcu_fd_sc_mcu9t5v0__dffrnq_2
* cell instance $186 m0 *1 99.12,75.6
X$186 79 78 47 25 gf180mcu_fd_sc_mcu9t5v0__clkbuf_3
* cell instance $203 r0 *1 42,95.76
X$203 79 27 51 38 73 78 gf180mcu_fd_sc_mcu9t5v0__dffrnq_2
* cell instance $206 r0 *1 35.84,85.68
X$206 79 27 50 38 69 78 gf180mcu_fd_sc_mcu9t5v0__dffrnq_2
* cell instance $212 r0 *1 68.32,105.84
X$212 79 78 75 27 gf180mcu_fd_sc_mcu9t5v0__clkbuf_4
* cell instance $225 r0 *1 40.32,65.52
X$225 78 32 43 79 31 gf180mcu_fd_sc_mcu9t5v0__xnor2_2
* cell instance $233 m0 *1 51.52,75.6
X$233 79 39 37 78 46 32 gf180mcu_fd_sc_mcu9t5v0__nand3_2
* cell instance $241 m0 *1 26.88,85.68
X$241 32 78 79 55 gf180mcu_fd_sc_mcu9t5v0__dlyb_2
* cell instance $252 r0 *1 133.84,65.52
X$252 40 78 79 35 gf180mcu_fd_sc_mcu9t5v0__dlyb_2
* cell instance $258 m0 *1 46.48,75.6
X$258 79 78 37 43 46 gf180mcu_fd_sc_mcu9t5v0__nand2_2
* cell instance $262 r0 *1 26.32,85.68
X$262 37 79 50 78 62 gf180mcu_fd_sc_mcu9t5v0__xor2_2
* cell instance $265 r0 *1 2.24,85.68
X$265 61 78 79 37 gf180mcu_fd_sc_mcu9t5v0__buf_2
* cell instance $274 r0 *1 54.88,85.68
X$274 79 78 70 56 37 51 gf180mcu_fd_sc_mcu9t5v0__mux2_2
* cell instance $280 r0 *1 54.88,75.6
X$280 79 78 47 38 gf180mcu_fd_sc_mcu9t5v0__clkbuf_3
* cell instance $307 r0 *1 117.04,65.52
X$307 79 42 41 78 44 45 gf180mcu_fd_sc_mcu9t5v0__nand3_2
* cell instance $327 m0 *1 49.28,85.68
X$327 79 46 56 50 51 78 gf180mcu_fd_sc_mcu9t5v0__addh_2
* cell instance $331 r0 *1 79.52,75.6
X$331 79 78 54 47 gf180mcu_fd_sc_mcu9t5v0__clkbuf_3
* cell instance $339 m0 *1 129.36,85.68
X$339 79 78 58 48 gf180mcu_fd_sc_mcu9t5v0__clkinv_2
* cell instance $359 m0 *1 19.6,95.76
X$359 50 78 79 66 gf180mcu_fd_sc_mcu9t5v0__dlyb_2
* cell instance $364 m0 *1 52.08,136.08
X$364 51 78 79 76 gf180mcu_fd_sc_mcu9t5v0__dlyb_2
* cell instance $370 r0 *1 120.4,85.68
X$370 57 79 52 64 78 71 gf180mcu_fd_sc_mcu9t5v0__or3_2
* cell instance $375 m0 *1 132.72,85.68
X$375 59 78 79 53 gf180mcu_fd_sc_mcu9t5v0__dlyb_2
* cell instance $390 r0 *1 133.84,95.76
X$390 58 78 79 67 gf180mcu_fd_sc_mcu9t5v0__dlyb_2
* cell instance $397 r0 *1 10.64,85.68
X$397 60 78 79 65 gf180mcu_fd_sc_mcu9t5v0__dlyb_2
* cell instance $404 m0 *1 133.28,95.76
X$404 63 78 79 68 gf180mcu_fd_sc_mcu9t5v0__dlyb_2
* cell instance $434 r0 *1 33.6,136.08
X$434 77 78 79 72 gf180mcu_fd_sc_mcu9t5v0__dlyb_2
* cell instance $441 r0 *1 70,126
X$441 79 75 74 78 gf180mcu_fd_sc_mcu9t5v0__dlyc_2
.ENDS parameterized_loadable_counter

* cell gf180mcu_fd_sc_mcu9t5v0__buf_3
* pin I
* pin NWELL,VDD
* pin PWELL,VSS,gf180mcu_gnd
* pin Z
.SUBCKT gf180mcu_fd_sc_mcu9t5v0__buf_3 1 2 3 5
* net 1 I
* net 2 NWELL,VDD
* net 3 PWELL,VSS,gf180mcu_gnd
* net 5 Z
* device instance $1 r0 *1 0.87,3.78 pmos_5p0
M$1 2 1 4 2 pmos_5p0 L=0.5U W=1.83U AS=0.8052P AD=0.74115P PS=4.54U PD=2.64U
* device instance $2 r0 *1 2.18,3.78 pmos_5p0
M$2 5 4 2 2 pmos_5p0 L=0.5U W=5.49U AS=1.87575P AD=1.9398P PS=7.54U PD=9.44U
* device instance $5 r0 *1 0.92,1.005 nmos_5p0
M$5 3 1 4 3 nmos_5p0 L=0.6U W=1.32U AS=0.5808P AD=0.4686P PS=3.52U PD=2.03U
* device instance $6 r0 *1 2.23,1.005 nmos_5p0
M$6 5 4 3 3 nmos_5p0 L=0.6U W=3.96U AS=1.155P AD=1.2672P PS=5.71U PD=7.2U
.ENDS gf180mcu_fd_sc_mcu9t5v0__buf_3

* cell gf180mcu_fd_sc_mcu9t5v0__or4_2
* pin A1
* pin A2
* pin A3
* pin A4
* pin NWELL,VDD
* pin PWELL,VSS,gf180mcu_gnd
* pin Z
.SUBCKT gf180mcu_fd_sc_mcu9t5v0__or4_2 1 3 4 5 6 7 8
* net 1 A1
* net 3 A2
* net 4 A3
* net 5 A4
* net 6 NWELL,VDD
* net 7 PWELL,VSS,gf180mcu_gnd
* net 8 Z
* device instance $1 r0 *1 0.97,3.78 pmos_5p0
M$1 11 1 2 6 pmos_5p0 L=0.5U W=1.83U AS=0.8052P AD=0.52155P PS=4.54U PD=2.4U
* device instance $2 r0 *1 2.04,3.78 pmos_5p0
M$2 10 3 11 6 pmos_5p0 L=0.5U W=1.83U AS=0.52155P AD=0.5673P PS=2.4U PD=2.45U
* device instance $3 r0 *1 3.16,3.78 pmos_5p0
M$3 9 4 10 6 pmos_5p0 L=0.5U W=1.83U AS=0.5673P AD=0.5673P PS=2.45U PD=2.45U
* device instance $4 r0 *1 4.28,3.78 pmos_5p0
M$4 6 5 9 6 pmos_5p0 L=0.5U W=1.83U AS=0.5673P AD=0.732P PS=2.45U PD=2.63U
* device instance $5 r0 *1 5.58,3.78 pmos_5p0
M$5 8 2 6 6 pmos_5p0 L=0.5U W=3.66U AS=1.25355P AD=1.32675P PS=5.03U PD=6.94U
* device instance $7 r0 *1 0.92,0.74 nmos_5p0
M$7 2 1 7 7 nmos_5p0 L=0.6U W=0.79U AS=0.3476P AD=0.2054P PS=2.46U PD=1.31U
* device instance $8 r0 *1 2.04,0.74 nmos_5p0
M$8 7 3 2 7 nmos_5p0 L=0.6U W=0.79U AS=0.2054P AD=0.2054P PS=1.31U PD=1.31U
* device instance $9 r0 *1 3.16,0.74 nmos_5p0
M$9 2 4 7 7 nmos_5p0 L=0.6U W=0.79U AS=0.2054P AD=0.2054P PS=1.31U PD=1.31U
* device instance $10 r0 *1 4.28,0.74 nmos_5p0
M$10 7 5 2 7 nmos_5p0 L=0.6U W=0.79U AS=0.2054P AD=0.3825P PS=1.31U PD=2.02U
* device instance $11 r0 *1 5.58,1.005 nmos_5p0
M$11 8 2 7 7 nmos_5p0 L=0.6U W=2.64U AS=0.7257P AD=0.924P PS=3.86U PD=5.36U
.ENDS gf180mcu_fd_sc_mcu9t5v0__or4_2

* cell gf180mcu_fd_sc_mcu9t5v0__xnor2_2
* pin NWELL,VDD
* pin A1
* pin A2
* pin PWELL,VSS,gf180mcu_gnd
* pin ZN
.SUBCKT gf180mcu_fd_sc_mcu9t5v0__xnor2_2 1 5 6 7 8
* net 1 NWELL,VDD
* net 5 A1
* net 6 A2
* net 7 PWELL,VSS,gf180mcu_gnd
* net 8 ZN
* device instance $1 r0 *1 0.97,3.327 pmos_5p0
M$1 9 6 2 1 pmos_5p0 L=0.5U W=0.915U AS=0.4026P AD=0.260775P PS=2.71U PD=1.485U
* device instance $2 r0 *1 2.04,3.327 pmos_5p0
M$2 1 5 9 1 pmos_5p0 L=0.5U W=0.915U AS=0.260775P AD=0.571875P PS=1.485U
+ PD=2.68U
* device instance $3 r0 *1 3.39,3.785 pmos_5p0
M$3 4 2 1 1 pmos_5p0 L=0.5U W=1.83U AS=0.571875P AD=0.4758P PS=2.68U PD=2.35U
* device instance $4 r0 *1 4.41,3.785 pmos_5p0
M$4 3 5 4 1 pmos_5p0 L=0.5U W=1.83U AS=0.4758P AD=0.4758P PS=2.35U PD=2.35U
* device instance $5 r0 *1 5.43,3.785 pmos_5p0
M$5 4 6 3 1 pmos_5p0 L=0.5U W=1.83U AS=0.4758P AD=0.8052P PS=2.35U PD=4.54U
* device instance $6 r0 *1 7.17,3.78 pmos_5p0
M$6 8 3 1 1 pmos_5p0 L=0.5U W=3.66U AS=1.3725P AD=1.3725P PS=6.99U PD=6.99U
* device instance $8 r0 *1 7.22,1.005 nmos_5p0
M$8 8 3 7 7 nmos_5p0 L=0.6U W=2.64U AS=0.924P AD=0.924P PS=5.36U PD=5.36U
* device instance $10 r0 *1 0.92,0.675 nmos_5p0
M$10 2 6 7 7 nmos_5p0 L=0.6U W=0.66U AS=0.2904P AD=0.1716P PS=2.2U PD=1.18U
* device instance $11 r0 *1 2.04,0.675 nmos_5p0
M$11 7 5 2 7 nmos_5p0 L=0.6U W=0.66U AS=0.1716P AD=0.363P PS=1.18U PD=2.02U
* device instance $12 r0 *1 3.34,1.005 nmos_5p0
M$12 3 2 7 7 nmos_5p0 L=0.6U W=1.32U AS=0.363P AD=0.3432P PS=2.02U PD=1.84U
* device instance $13 r0 *1 4.46,1.005 nmos_5p0
M$13 10 5 3 7 nmos_5p0 L=0.6U W=1.32U AS=0.3432P AD=0.2112P PS=1.84U PD=1.64U
* device instance $14 r0 *1 5.38,1.005 nmos_5p0
M$14 7 6 10 7 nmos_5p0 L=0.6U W=1.32U AS=0.2112P AD=0.5808P PS=1.64U PD=3.52U
.ENDS gf180mcu_fd_sc_mcu9t5v0__xnor2_2

* cell gf180mcu_fd_sc_mcu9t5v0__buf_2
* pin I
* pin NWELL,VDD
* pin PWELL,VSS,gf180mcu_gnd
* pin Z
.SUBCKT gf180mcu_fd_sc_mcu9t5v0__buf_2 1 2 3 5
* net 1 I
* net 2 NWELL,VDD
* net 3 PWELL,VSS,gf180mcu_gnd
* net 5 Z
* device instance $1 r0 *1 0.87,3.78 pmos_5p0
M$1 2 1 4 2 pmos_5p0 L=0.5U W=1.83U AS=0.8052P AD=0.5673P PS=4.54U PD=2.45U
* device instance $2 r0 *1 1.99,3.78 pmos_5p0
M$2 5 4 2 2 pmos_5p0 L=0.5U W=3.66U AS=1.1346P AD=1.3725P PS=4.9U PD=6.99U
* device instance $4 r0 *1 0.92,1.005 nmos_5p0
M$4 3 1 4 3 nmos_5p0 L=0.6U W=1.32U AS=0.5808P AD=0.3432P PS=3.52U PD=1.84U
* device instance $5 r0 *1 2.04,1.005 nmos_5p0
M$5 5 4 3 3 nmos_5p0 L=0.6U W=2.64U AS=0.6864P AD=0.924P PS=3.68U PD=5.36U
.ENDS gf180mcu_fd_sc_mcu9t5v0__buf_2

* cell gf180mcu_fd_sc_mcu9t5v0__addh_2
* pin PWELL,VSS,gf180mcu_gnd
* pin CO
* pin S
* pin A
* pin B
* pin NWELL,VDD
.SUBCKT gf180mcu_fd_sc_mcu9t5v0__addh_2 1 2 6 7 8 10
* net 1 PWELL,VSS,gf180mcu_gnd
* net 2 CO
* net 6 S
* net 7 A
* net 8 B
* net 10 NWELL,VDD
* device instance $1 r0 *1 5.99,3.78 pmos_5p0
M$1 11 8 10 10 pmos_5p0 L=0.5U W=1.83U AS=0.8052P AD=0.52155P PS=4.54U PD=2.4U
* device instance $2 r0 *1 7.06,3.78 pmos_5p0
M$2 5 7 11 10 pmos_5p0 L=0.5U W=1.83U AS=0.52155P AD=0.52155P PS=2.4U PD=2.4U
* device instance $3 r0 *1 8.13,3.78 pmos_5p0
M$3 10 3 5 10 pmos_5p0 L=0.5U W=1.83U AS=0.52155P AD=0.8784P PS=2.4U PD=2.79U
* device instance $4 r0 *1 9.59,3.78 pmos_5p0
M$4 6 5 10 10 pmos_5p0 L=0.5U W=3.66U AS=1.39995P AD=1.32675P PS=5.19U PD=6.94U
* device instance $6 r0 *1 0.94,3.78 pmos_5p0
M$6 2 3 10 10 pmos_5p0 L=0.5U W=3.66U AS=1.3725P AD=1.08885P PS=6.99U PD=4.85U
* device instance $8 r0 *1 3.13,3.78 pmos_5p0
M$8 3 7 10 10 pmos_5p0 L=0.5U W=1.83U AS=0.52155P AD=0.4758P PS=2.4U PD=2.35U
* device instance $9 r0 *1 4.15,3.78 pmos_5p0
M$9 10 8 3 10 pmos_5p0 L=0.5U W=1.83U AS=0.4758P AD=0.8052P PS=2.35U PD=4.54U
* device instance $10 r0 *1 5.94,1.005 nmos_5p0
M$10 5 8 4 1 nmos_5p0 L=0.6U W=1.32U AS=0.5808P AD=0.3432P PS=3.52U PD=1.84U
* device instance $11 r0 *1 7.06,1.005 nmos_5p0
M$11 4 7 5 1 nmos_5p0 L=0.6U W=1.32U AS=0.3432P AD=0.3432P PS=1.84U PD=1.84U
* device instance $12 r0 *1 8.18,1.005 nmos_5p0
M$12 1 3 4 1 nmos_5p0 L=0.6U W=1.32U AS=0.3432P AD=0.5016P PS=1.84U PD=2.08U
* device instance $13 r0 *1 9.54,1.005 nmos_5p0
M$13 6 5 1 1 nmos_5p0 L=0.6U W=2.64U AS=0.8448P AD=0.924P PS=3.92U PD=5.36U
* device instance $15 r0 *1 0.94,1.005 nmos_5p0
M$15 2 3 1 1 nmos_5p0 L=0.6U W=2.64U AS=0.924P AD=0.6864P PS=5.36U PD=3.68U
* device instance $17 r0 *1 3.18,1.005 nmos_5p0
M$17 9 7 1 1 nmos_5p0 L=0.6U W=1.32U AS=0.3432P AD=0.2112P PS=1.84U PD=1.64U
* device instance $18 r0 *1 4.1,1.005 nmos_5p0
M$18 3 8 9 1 nmos_5p0 L=0.6U W=1.32U AS=0.2112P AD=0.5808P PS=1.64U PD=3.52U
.ENDS gf180mcu_fd_sc_mcu9t5v0__addh_2

* cell gf180mcu_fd_sc_mcu9t5v0__mux2_2
* pin PWELL,VSS,gf180mcu_gnd
* pin NWELL,VDD
* pin Z
* pin I1
* pin S
* pin I0
.SUBCKT gf180mcu_fd_sc_mcu9t5v0__mux2_2 1 2 3 4 5 7
* net 1 PWELL,VSS,gf180mcu_gnd
* net 2 NWELL,VDD
* net 3 Z
* net 4 I1
* net 5 S
* net 7 I0
* device instance $1 r0 *1 0.92,3.78 pmos_5p0
M$1 3 6 2 2 pmos_5p0 L=0.5U W=3.66U AS=1.32675P AD=1.18035P PS=6.94U PD=4.95U
* device instance $3 r0 *1 3.21,3.78 pmos_5p0
M$3 10 4 2 2 pmos_5p0 L=0.5U W=1.83U AS=0.6588P AD=0.7137P PS=2.55U PD=2.61U
* device instance $4 r0 *1 4.49,3.78 pmos_5p0
M$4 6 8 10 2 pmos_5p0 L=0.5U W=1.83U AS=0.7137P AD=0.4758P PS=2.61U PD=2.35U
* device instance $5 r0 *1 5.51,3.78 pmos_5p0
M$5 9 5 6 2 pmos_5p0 L=0.5U W=1.83U AS=0.4758P AD=0.2196P PS=2.35U PD=2.07U
* device instance $6 r0 *1 6.25,3.78 pmos_5p0
M$6 2 7 9 2 pmos_5p0 L=0.5U W=1.83U AS=0.2196P AD=0.4758P PS=2.07U PD=2.35U
* device instance $7 r0 *1 7.27,3.78 pmos_5p0
M$7 8 5 2 2 pmos_5p0 L=0.5U W=1.83U AS=0.4758P AD=0.8052P PS=2.35U PD=4.54U
* device instance $8 r0 *1 0.92,1.005 nmos_5p0
M$8 3 6 1 1 nmos_5p0 L=0.6U W=2.64U AS=0.924P AD=0.6864P PS=5.36U PD=3.68U
* device instance $10 r0 *1 3.16,1.005 nmos_5p0
M$10 12 4 1 1 nmos_5p0 L=0.6U W=1.32U AS=0.3432P AD=0.1584P PS=1.84U PD=1.56U
* device instance $11 r0 *1 4,1.005 nmos_5p0
M$11 6 5 12 1 nmos_5p0 L=0.6U W=1.32U AS=0.1584P AD=0.3432P PS=1.56U PD=1.84U
* device instance $12 r0 *1 5.12,1.005 nmos_5p0
M$12 11 8 6 1 nmos_5p0 L=0.6U W=1.32U AS=0.3432P AD=0.3168P PS=1.84U PD=1.8U
* device instance $13 r0 *1 6.2,1.005 nmos_5p0
M$13 1 7 11 1 nmos_5p0 L=0.6U W=1.32U AS=0.3168P AD=0.3432P PS=1.8U PD=1.84U
* device instance $14 r0 *1 7.32,1.005 nmos_5p0
M$14 8 5 1 1 nmos_5p0 L=0.6U W=1.32U AS=0.3432P AD=0.5808P PS=1.84U PD=3.52U
.ENDS gf180mcu_fd_sc_mcu9t5v0__mux2_2

* cell gf180mcu_fd_sc_mcu9t5v0__dlyb_2
* pin I
* pin NWELL,VDD
* pin PWELL,VSS,gf180mcu_gnd
* pin Z
.SUBCKT gf180mcu_fd_sc_mcu9t5v0__dlyb_2 1 2 3 7
* net 1 I
* net 2 NWELL,VDD
* net 3 PWELL,VSS,gf180mcu_gnd
* net 7 Z
* device instance $1 r0 *1 4.34,3.365 pmos_5p0
M$1 6 4 8 2 pmos_5p0 L=0.5U W=0.36U AS=0.27P AD=0.1584P PS=1.98U PD=1.6U
* device instance $2 r0 *1 4.34,4.085 pmos_5p0
M$2 8 4 2 2 pmos_5p0 L=0.5U W=0.36U AS=0.528P AD=0.27P PS=3.13U PD=1.98U
* device instance $3 r0 *1 6.14,3.785 pmos_5p0
M$3 7 6 2 2 pmos_5p0 L=0.5U W=3.66U AS=1.14105P AD=1.41825P PS=5.63U PD=7.04U
* device instance $5 r0 *1 2.18,3.365 pmos_5p0
M$5 9 5 4 2 pmos_5p0 L=0.5U W=0.36U AS=0.1584P AD=0.27P PS=1.6U PD=1.98U
* device instance $6 r0 *1 0.87,4.085 pmos_5p0
M$6 2 1 5 2 pmos_5p0 L=0.5U W=0.36U AS=0.1584P AD=0.1458P PS=1.6U PD=1.17U
* device instance $7 r0 *1 2.18,4.085 pmos_5p0
M$7 2 5 9 2 pmos_5p0 L=0.5U W=0.36U AS=0.27P AD=0.1458P PS=1.98U PD=1.17U
* device instance $8 r0 *1 0.92,0.795 nmos_5p0
M$8 3 1 5 3 nmos_5p0 L=0.6U W=0.36U AS=0.1584P AD=0.1278P PS=1.6U PD=1.07U
* device instance $9 r0 *1 2.23,0.795 nmos_5p0
M$9 10 5 3 3 nmos_5p0 L=0.6U W=0.36U AS=0.1278P AD=0.27P PS=1.07U PD=1.98U
* device instance $10 r0 *1 2.23,1.515 nmos_5p0
M$10 4 5 10 3 nmos_5p0 L=0.6U W=0.36U AS=0.27P AD=0.1584P PS=1.98U PD=1.6U
* device instance $11 r0 *1 4.39,0.525 nmos_5p0
M$11 3 4 11 3 nmos_5p0 L=0.6U W=0.36U AS=0.27P AD=0.408P PS=1.98U PD=2.52U
* device instance $12 r0 *1 4.39,1.245 nmos_5p0
M$12 6 4 11 3 nmos_5p0 L=0.6U W=0.36U AS=0.27P AD=0.1584P PS=1.98U PD=1.6U
* device instance $13 r0 *1 6.19,1.005 nmos_5p0
M$13 7 6 3 3 nmos_5p0 L=0.6U W=2.64U AS=0.7512P AD=0.924P PS=4.36U PD=5.36U
.ENDS gf180mcu_fd_sc_mcu9t5v0__dlyb_2

* cell gf180mcu_fd_sc_mcu9t5v0__or3_2
* pin A1
* pin PWELL,VSS,gf180mcu_gnd
* pin A2
* pin A3
* pin NWELL,VDD
* pin Z
.SUBCKT gf180mcu_fd_sc_mcu9t5v0__or3_2 2 3 4 5 6 7
* net 2 A1
* net 3 PWELL,VSS,gf180mcu_gnd
* net 4 A2
* net 5 A3
* net 6 NWELL,VDD
* net 7 Z
* device instance $1 r0 *1 0.97,3.78 pmos_5p0
M$1 9 2 1 6 pmos_5p0 L=0.5U W=1.83U AS=0.8052P AD=0.52155P PS=4.54U PD=2.4U
* device instance $2 r0 *1 2.04,3.78 pmos_5p0
M$2 8 4 9 6 pmos_5p0 L=0.5U W=1.83U AS=0.52155P AD=0.5673P PS=2.4U PD=2.45U
* device instance $3 r0 *1 3.16,3.78 pmos_5p0
M$3 6 5 8 6 pmos_5p0 L=0.5U W=1.83U AS=0.5673P AD=0.732P PS=2.45U PD=2.63U
* device instance $4 r0 *1 4.46,3.78 pmos_5p0
M$4 7 1 6 6 pmos_5p0 L=0.5U W=3.66U AS=1.25355P AD=1.32675P PS=5.03U PD=6.94U
* device instance $6 r0 *1 0.92,0.87 nmos_5p0
M$6 3 2 1 3 nmos_5p0 L=0.6U W=1.05U AS=0.462P AD=0.273P PS=2.98U PD=1.57U
* device instance $7 r0 *1 2.04,0.87 nmos_5p0
M$7 1 4 3 3 nmos_5p0 L=0.6U W=1.05U AS=0.273P AD=0.273P PS=1.57U PD=1.57U
* device instance $8 r0 *1 3.16,0.87 nmos_5p0
M$8 3 5 1 3 nmos_5p0 L=0.6U W=1.05U AS=0.273P AD=0.4215P PS=1.57U PD=2.02U
* device instance $9 r0 *1 4.46,1.005 nmos_5p0
M$9 7 1 3 3 nmos_5p0 L=0.6U W=2.64U AS=0.7647P AD=0.924P PS=3.86U PD=5.36U
.ENDS gf180mcu_fd_sc_mcu9t5v0__or3_2

* cell gf180mcu_fd_sc_mcu9t5v0__aoi211_2
* pin A2
* pin A1
* pin B
* pin ZN
* pin C
* pin NWELL,VDD
* pin PWELL,VSS,gf180mcu_gnd
.SUBCKT gf180mcu_fd_sc_mcu9t5v0__aoi211_2 1 2 4 5 6 7 8
* net 1 A2
* net 2 A1
* net 4 B
* net 5 ZN
* net 6 C
* net 7 NWELL,VDD
* net 8 PWELL,VSS,gf180mcu_gnd
* device instance $1 r0 *1 0.87,3.78 pmos_5p0
M$1 5 1 3 7 pmos_5p0 L=0.5U W=3.66U AS=1.281P AD=1.3359P PS=6.89U PD=5.12U
* device instance $2 r0 *1 1.89,3.78 pmos_5p0
M$2 3 2 5 7 pmos_5p0 L=0.5U W=3.66U AS=0.9516P AD=0.9516P PS=4.7U PD=4.7U
* device instance $5 r0 *1 5.37,3.78 pmos_5p0
M$5 10 4 3 7 pmos_5p0 L=0.5U W=1.83U AS=0.8601P AD=0.2196P PS=2.77U PD=2.07U
* device instance $6 r0 *1 6.11,3.78 pmos_5p0
M$6 7 6 10 7 pmos_5p0 L=0.5U W=1.83U AS=0.2196P AD=0.549P PS=2.07U PD=2.43U
* device instance $7 r0 *1 7.21,3.78 pmos_5p0
M$7 9 6 7 7 pmos_5p0 L=0.5U W=1.83U AS=0.549P AD=0.4392P PS=2.43U PD=2.31U
* device instance $8 r0 *1 8.19,3.78 pmos_5p0
M$8 3 4 9 7 pmos_5p0 L=0.5U W=1.83U AS=0.4392P AD=0.8052P PS=2.31U PD=4.54U
* device instance $9 r0 *1 5.02,0.745 nmos_5p0
M$9 5 4 8 8 nmos_5p0 L=0.6U W=1.58U AS=0.5609P AD=0.553P PS=3.195U PD=3.77U
* device instance $10 r0 *1 6.14,0.745 nmos_5p0
M$10 8 6 5 8 nmos_5p0 L=0.6U W=1.58U AS=0.4108P AD=0.4108P PS=2.62U PD=2.62U
* device instance $13 r0 *1 0.92,0.942 nmos_5p0
M$13 12 1 8 8 nmos_5p0 L=0.6U W=1.185U AS=0.5214P AD=0.1422P PS=3.25U PD=1.425U
* device instance $14 r0 *1 1.76,0.942 nmos_5p0
M$14 5 2 12 8 nmos_5p0 L=0.6U W=1.185U AS=0.1422P AD=0.3081P PS=1.425U PD=1.705U
* device instance $15 r0 *1 2.88,0.942 nmos_5p0
M$15 11 2 5 8 nmos_5p0 L=0.6U W=1.185U AS=0.3081P AD=0.1422P PS=1.705U PD=1.425U
* device instance $16 r0 *1 3.72,0.942 nmos_5p0
M$16 8 1 11 8 nmos_5p0 L=0.6U W=1.185U AS=0.1422P AD=0.3555P PS=1.425U PD=1.885U
.ENDS gf180mcu_fd_sc_mcu9t5v0__aoi211_2

* cell gf180mcu_fd_sc_mcu9t5v0__clkinv_2
* pin PWELL,VSS,gf180mcu_gnd
* pin NWELL,VDD
* pin I
* pin ZN
.SUBCKT gf180mcu_fd_sc_mcu9t5v0__clkinv_2 1 2 3 4
* net 1 PWELL,VSS,gf180mcu_gnd
* net 2 NWELL,VDD
* net 3 I
* net 4 ZN
* device instance $1 r0 *1 0.87,3.78 pmos_5p0
M$1 4 3 2 2 pmos_5p0 L=0.5U W=3.66U AS=1.3725P AD=1.3725P PS=6.99U PD=6.99U
* device instance $3 r0 *1 0.92,1.3 nmos_5p0
M$3 4 3 1 1 nmos_5p0 L=0.6U W=1.46U AS=0.511P AD=0.511P PS=3.59U PD=3.59U
.ENDS gf180mcu_fd_sc_mcu9t5v0__clkinv_2

* cell gf180mcu_fd_sc_mcu9t5v0__and2_2
* pin NWELL,VDD
* pin A1
* pin A2
* pin PWELL,VSS,gf180mcu_gnd
* pin Z
.SUBCKT gf180mcu_fd_sc_mcu9t5v0__and2_2 2 3 4 5 6
* net 2 NWELL,VDD
* net 3 A1
* net 4 A2
* net 5 PWELL,VSS,gf180mcu_gnd
* net 6 Z
* device instance $1 r0 *1 0.885,3.685 pmos_5p0
M$1 1 3 2 2 pmos_5p0 L=0.5U W=1.64U AS=0.7216P AD=0.4264P PS=4.16U PD=2.16U
* device instance $2 r0 *1 1.905,3.685 pmos_5p0
M$2 2 4 1 2 pmos_5p0 L=0.5U W=1.64U AS=0.4264P AD=0.6486P PS=2.16U PD=2.57U
* device instance $3 r0 *1 3.145,3.78 pmos_5p0
M$3 6 1 2 2 pmos_5p0 L=0.5U W=3.66U AS=1.1244P AD=1.281P PS=4.92U PD=6.89U
* device instance $5 r0 *1 0.935,1.005 nmos_5p0
M$5 7 3 1 5 nmos_5p0 L=0.6U W=1.32U AS=0.5808P AD=0.2112P PS=3.52U PD=1.64U
* device instance $6 r0 *1 1.855,1.005 nmos_5p0
M$6 5 4 7 5 nmos_5p0 L=0.6U W=1.32U AS=0.2112P AD=0.3432P PS=1.64U PD=1.84U
* device instance $7 r0 *1 2.975,1.005 nmos_5p0
M$7 6 1 5 5 nmos_5p0 L=0.6U W=2.64U AS=0.6864P AD=0.924P PS=3.68U PD=5.36U
.ENDS gf180mcu_fd_sc_mcu9t5v0__and2_2

* cell gf180mcu_fd_sc_mcu9t5v0__and4_2
* pin A1
* pin A2
* pin A3
* pin A4
* pin PWELL,VSS,gf180mcu_gnd
* pin NWELL,VDD
* pin Z
.SUBCKT gf180mcu_fd_sc_mcu9t5v0__and4_2 1 2 3 4 5 6 8
* net 1 A1
* net 2 A2
* net 3 A3
* net 4 A4
* net 5 PWELL,VSS,gf180mcu_gnd
* net 6 NWELL,VDD
* net 8 Z
* device instance $1 r0 *1 0.925,4.055 pmos_5p0
M$1 7 1 6 6 pmos_5p0 L=0.5U W=1.28U AS=0.5632P AD=0.3328P PS=3.44U PD=1.8U
* device instance $2 r0 *1 1.945,4.055 pmos_5p0
M$2 6 2 7 6 pmos_5p0 L=0.5U W=1.28U AS=0.3328P AD=0.3328P PS=1.8U PD=1.8U
* device instance $3 r0 *1 2.965,4.055 pmos_5p0
M$3 7 3 6 6 pmos_5p0 L=0.5U W=1.28U AS=0.3328P AD=0.3328P PS=1.8U PD=1.8U
* device instance $4 r0 *1 3.985,4.055 pmos_5p0
M$4 7 4 6 6 pmos_5p0 L=0.5U W=1.28U AS=0.558P AD=0.3328P PS=2.53U PD=1.8U
* device instance $5 r0 *1 5.185,3.78 pmos_5p0
M$5 8 7 6 6 pmos_5p0 L=0.5U W=3.66U AS=1.0338P AD=1.281P PS=4.88U PD=6.89U
* device instance $7 r0 *1 0.975,1.005 nmos_5p0
M$7 11 1 7 5 nmos_5p0 L=0.6U W=1.32U AS=0.5808P AD=0.2112P PS=3.52U PD=1.64U
* device instance $8 r0 *1 1.895,1.005 nmos_5p0
M$8 10 2 11 5 nmos_5p0 L=0.6U W=1.32U AS=0.2112P AD=0.2772P PS=1.64U PD=1.74U
* device instance $9 r0 *1 2.915,1.005 nmos_5p0
M$9 9 3 10 5 nmos_5p0 L=0.6U W=1.32U AS=0.2772P AD=0.2772P PS=1.74U PD=1.74U
* device instance $10 r0 *1 3.935,1.005 nmos_5p0
M$10 5 4 9 5 nmos_5p0 L=0.6U W=1.32U AS=0.2772P AD=0.3432P PS=1.74U PD=1.84U
* device instance $11 r0 *1 5.055,1.005 nmos_5p0
M$11 8 7 5 5 nmos_5p0 L=0.6U W=2.64U AS=0.6864P AD=0.924P PS=3.68U PD=5.36U
.ENDS gf180mcu_fd_sc_mcu9t5v0__and4_2

* cell gf180mcu_fd_sc_mcu9t5v0__inv_4
* pin PWELL,VSS,gf180mcu_gnd
* pin NWELL,VDD
* pin I
* pin ZN
.SUBCKT gf180mcu_fd_sc_mcu9t5v0__inv_4 1 2 3 4
* net 1 PWELL,VSS,gf180mcu_gnd
* net 2 NWELL,VDD
* net 3 I
* net 4 ZN
* device instance $1 r0 *1 0.87,3.78 pmos_5p0
M$1 4 3 2 2 pmos_5p0 L=0.5U W=7.32U AS=2.5071P AD=2.5071P PS=11.89U PD=11.89U
* device instance $5 r0 *1 0.92,1.005 nmos_5p0
M$5 4 3 1 1 nmos_5p0 L=0.6U W=5.28U AS=1.6104P AD=1.6104P PS=9.04U PD=9.04U
.ENDS gf180mcu_fd_sc_mcu9t5v0__inv_4

* cell gf180mcu_fd_sc_mcu9t5v0__dlyc_2
* pin PWELL,VSS,gf180mcu_gnd
* pin Z
* pin I
* pin NWELL,VDD
.SUBCKT gf180mcu_fd_sc_mcu9t5v0__dlyc_2 1 7 11 13
* net 1 PWELL,VSS,gf180mcu_gnd
* net 7 Z
* net 11 I
* net 13 NWELL,VDD
* device instance $1 r0 *1 8.34,3.365 pmos_5p0
M$1 6 5 17 13 pmos_5p0 L=0.5U W=0.36U AS=0.27P AD=0.1584P PS=1.98U PD=1.6U
* device instance $2 r0 *1 8.34,4.085 pmos_5p0
M$2 17 5 13 13 pmos_5p0 L=0.5U W=0.36U AS=0.528P AD=0.27P PS=3.13U PD=1.98U
* device instance $3 r0 *1 10.14,3.785 pmos_5p0
M$3 7 6 13 13 pmos_5p0 L=0.5U W=3.66U AS=1.14105P AD=1.41825P PS=5.63U PD=7.04U
* device instance $5 r0 *1 4.34,3.365 pmos_5p0
M$5 4 3 14 13 pmos_5p0 L=0.5U W=0.36U AS=0.27P AD=0.1584P PS=1.98U PD=1.6U
* device instance $6 r0 *1 6.18,3.365 pmos_5p0
M$6 16 4 5 13 pmos_5p0 L=0.5U W=0.36U AS=0.1584P AD=0.27P PS=1.6U PD=1.98U
* device instance $7 r0 *1 4.34,4.085 pmos_5p0
M$7 13 3 14 13 pmos_5p0 L=0.5U W=0.36U AS=0.27P AD=0.2412P PS=1.98U PD=1.7U
* device instance $8 r0 *1 6.18,4.085 pmos_5p0
M$8 13 4 16 13 pmos_5p0 L=0.5U W=0.36U AS=0.27P AD=0.2412P PS=1.98U PD=1.7U
* device instance $9 r0 *1 2.18,3.365 pmos_5p0
M$9 15 2 3 13 pmos_5p0 L=0.5U W=0.36U AS=0.1584P AD=0.27P PS=1.6U PD=1.98U
* device instance $10 r0 *1 0.87,4.085 pmos_5p0
M$10 13 11 2 13 pmos_5p0 L=0.5U W=0.36U AS=0.1584P AD=0.1458P PS=1.6U PD=1.17U
* device instance $11 r0 *1 2.18,4.085 pmos_5p0
M$11 13 2 15 13 pmos_5p0 L=0.5U W=0.36U AS=0.27P AD=0.1458P PS=1.98U PD=1.17U
* device instance $12 r0 *1 0.92,0.795 nmos_5p0
M$12 1 11 2 1 nmos_5p0 L=0.6U W=0.36U AS=0.1584P AD=0.1278P PS=1.6U PD=1.07U
* device instance $13 r0 *1 2.23,0.795 nmos_5p0
M$13 12 2 1 1 nmos_5p0 L=0.6U W=0.36U AS=0.1278P AD=0.27P PS=1.07U PD=1.98U
* device instance $14 r0 *1 2.23,1.515 nmos_5p0
M$14 3 2 12 1 nmos_5p0 L=0.6U W=0.36U AS=0.27P AD=0.1584P PS=1.98U PD=1.6U
* device instance $15 r0 *1 4.39,0.52 nmos_5p0
M$15 1 3 8 1 nmos_5p0 L=0.6U W=0.36U AS=0.27P AD=0.2232P PS=1.98U PD=1.6U
* device instance $16 r0 *1 6.23,0.52 nmos_5p0
M$16 10 4 1 1 nmos_5p0 L=0.6U W=0.36U AS=0.2232P AD=0.27P PS=1.6U PD=1.98U
* device instance $17 r0 *1 4.39,1.24 nmos_5p0
M$17 4 3 8 1 nmos_5p0 L=0.6U W=0.36U AS=0.27P AD=0.1584P PS=1.98U PD=1.6U
* device instance $18 r0 *1 6.23,1.24 nmos_5p0
M$18 5 4 10 1 nmos_5p0 L=0.6U W=0.36U AS=0.27P AD=0.1584P PS=1.98U PD=1.6U
* device instance $19 r0 *1 8.39,0.525 nmos_5p0
M$19 1 5 9 1 nmos_5p0 L=0.6U W=0.36U AS=0.27P AD=0.408P PS=1.98U PD=2.52U
* device instance $20 r0 *1 8.39,1.245 nmos_5p0
M$20 6 5 9 1 nmos_5p0 L=0.6U W=0.36U AS=0.27P AD=0.1584P PS=1.98U PD=1.6U
* device instance $21 r0 *1 10.19,1.005 nmos_5p0
M$21 7 6 1 1 nmos_5p0 L=0.6U W=2.64U AS=0.7512P AD=0.924P PS=4.36U PD=5.36U
.ENDS gf180mcu_fd_sc_mcu9t5v0__dlyc_2

* cell gf180mcu_fd_sc_mcu9t5v0__clkbuf_4
* pin PWELL,VSS,gf180mcu_gnd
* pin NWELL,VDD
* pin I
* pin Z
.SUBCKT gf180mcu_fd_sc_mcu9t5v0__clkbuf_4 1 2 3 5
* net 1 PWELL,VSS,gf180mcu_gnd
* net 2 NWELL,VDD
* net 3 I
* net 5 Z
* device instance $1 r0 *1 0.87,3.78 pmos_5p0
M$1 4 3 2 2 pmos_5p0 L=0.5U W=3.66U AS=1.3725P AD=1.2993P PS=6.99U PD=5.08U
* device instance $3 r0 *1 3.29,3.78 pmos_5p0
M$3 5 4 2 2 pmos_5p0 L=0.5U W=7.32U AS=2.4339P AD=2.5071P PS=9.98U PD=11.89U
* device instance $7 r0 *1 0.92,1.23 nmos_5p0
M$7 4 3 1 1 nmos_5p0 L=0.6U W=1.46U AS=0.511P AD=0.4593P PS=3.59U PD=2.75U
* device instance $9 r0 *1 3.34,1.265 nmos_5p0
M$9 5 4 1 1 nmos_5p0 L=0.6U W=3.2U AS=0.8935P AD=0.976P PS=5.46U PD=6.44U
.ENDS gf180mcu_fd_sc_mcu9t5v0__clkbuf_4

* cell gf180mcu_fd_sc_mcu9t5v0__dffrnq_2
* pin PWELL,VSS,gf180mcu_gnd
* pin RN
* pin Q
* pin CLK
* pin D
* pin NWELL,VDD
.SUBCKT gf180mcu_fd_sc_mcu9t5v0__dffrnq_2 1 2 11 15 16 17
* net 1 PWELL,VSS,gf180mcu_gnd
* net 2 RN
* net 11 Q
* net 15 CLK
* net 16 D
* net 17 NWELL,VDD
* device instance $1 r0 *1 17.05,3.78 pmos_5p0
M$1 11 3 17 17 pmos_5p0 L=0.5U W=3.66U AS=1.281P AD=1.281P PS=6.89U PD=6.89U
* device instance $3 r0 *1 9.67,3.64 pmos_5p0
M$3 8 6 17 17 pmos_5p0 L=0.5U W=1U AS=0.44P AD=0.26P PS=2.88U PD=1.52U
* device instance $4 r0 *1 10.69,3.64 pmos_5p0
M$4 9 4 8 17 pmos_5p0 L=0.5U W=1U AS=0.26P AD=0.26P PS=1.52U PD=1.52U
* device instance $5 r0 *1 11.71,3.64 pmos_5p0
M$5 10 7 9 17 pmos_5p0 L=0.5U W=1U AS=0.26P AD=0.26P PS=1.52U PD=1.52U
* device instance $6 r0 *1 12.73,3.64 pmos_5p0
M$6 10 3 17 17 pmos_5p0 L=0.5U W=1U AS=0.5471P AD=0.26P PS=2.57U PD=1.52U
* device instance $7 r0 *1 13.97,3.78 pmos_5p0
M$7 3 2 17 17 pmos_5p0 L=0.5U W=1.83U AS=0.5471P AD=0.4758P PS=2.57U PD=2.35U
* device instance $8 r0 *1 14.99,3.78 pmos_5p0
M$8 17 9 3 17 pmos_5p0 L=0.5U W=1.83U AS=0.4758P AD=0.8052P PS=2.35U PD=4.54U
* device instance $9 r0 *1 3.85,3.465 pmos_5p0
M$9 5 16 17 17 pmos_5p0 L=0.5U W=1U AS=0.44P AD=0.26P PS=2.88U PD=1.52U
* device instance $10 r0 *1 4.87,3.465 pmos_5p0
M$10 6 7 5 17 pmos_5p0 L=0.5U W=1U AS=0.26P AD=0.26P PS=1.52U PD=1.52U
* device instance $11 r0 *1 5.89,3.465 pmos_5p0
M$11 18 4 6 17 pmos_5p0 L=0.5U W=1U AS=0.26P AD=0.26P PS=1.52U PD=1.52U
* device instance $12 r0 *1 6.91,3.465 pmos_5p0
M$12 17 8 18 17 pmos_5p0 L=0.5U W=1U AS=0.26P AD=0.26P PS=1.52U PD=1.52U
* device instance $13 r0 *1 7.93,3.465 pmos_5p0
M$13 18 2 17 17 pmos_5p0 L=0.5U W=1U AS=0.26P AD=0.44P PS=1.52U PD=2.88U
* device instance $14 r0 *1 0.97,3.555 pmos_5p0
M$14 17 15 4 17 pmos_5p0 L=0.5U W=1.38U AS=0.6072P AD=0.3588P PS=3.64U PD=1.9U
* device instance $15 r0 *1 1.99,3.555 pmos_5p0
M$15 7 4 17 17 pmos_5p0 L=0.5U W=1.38U AS=0.3588P AD=0.6072P PS=1.9U PD=3.64U
* device instance $16 r0 *1 0.92,1.245 nmos_5p0
M$16 1 15 4 1 nmos_5p0 L=0.6U W=0.79U AS=0.3476P AD=0.2054P PS=2.46U PD=1.31U
* device instance $17 r0 *1 2.04,1.245 nmos_5p0
M$17 7 4 1 1 nmos_5p0 L=0.6U W=0.79U AS=0.2054P AD=0.3476P PS=1.31U PD=2.46U
* device instance $18 r0 *1 17,1.04 nmos_5p0
M$18 11 3 1 1 nmos_5p0 L=0.6U W=2.5U AS=0.875P AD=0.875P PS=5.15U PD=5.15U
* device instance $20 r0 *1 3.88,1.195 nmos_5p0
M$20 5 16 1 1 nmos_5p0 L=0.6U W=0.7U AS=0.308P AD=0.182P PS=2.28U PD=1.22U
* device instance $21 r0 *1 5,1.195 nmos_5p0
M$21 6 4 5 1 nmos_5p0 L=0.6U W=0.7U AS=0.182P AD=0.182P PS=1.22U PD=1.22U
* device instance $22 r0 *1 6.12,1.195 nmos_5p0