* CDL Netlist generated by OpenROAD

*.BUSDELIMITER [

.SUBCKT parameterized_freq_divider clk_in clk_out divide_value[0]
+ divide_value[10] divide_value[11] divide_value[12] divide_value[13]
+ divide_value[14] divide_value[15] divide_value[1] divide_value[2]
+ divide_value[3] divide_value[4] divide_value[5] divide_value[6]
+ divide_value[7] divide_value[8] divide_value[9] duty_cycle[0]
+ duty_cycle[1] duty_cycle[2] duty_cycle[3] duty_cycle[4] duty_cycle[5]
+ duty_cycle[6] enable rst_n
X_2403_ divide_value[14] VSS VSS VDD VDD _1572_ sky130_fd_sc_hd__clkbuf_4
X_2404_ divide_value[12] VSS VSS VDD VDD _1573_ sky130_fd_sc_hd__clkbuf_4
X_2405_ net4 net3 net5 _1573_ VSS VSS VDD VDD _1574_ sky130_fd_sc_hd__or4_1
X_2406_ _1572_ _1574_ VSS VSS VDD VDD _1575_ sky130_fd_sc_hd__nor2_1
X_2407_ divide_value[15] VSS VSS VDD VDD _1576_ sky130_fd_sc_hd__clkbuf_4
X_2408_ net11 net10 _1576_ net9 VSS VSS VDD VDD _1577_ sky130_fd_sc_hd__nor4_1
X_2409_ _1575_ _1577_ VSS VSS VDD VDD _1578_ sky130_fd_sc_hd__nand2_1
X_2410_ divide_value[5] VSS VSS VDD VDD _1579_ sky130_fd_sc_hd__clkbuf_4
X_2411_ divide_value[6] VSS VSS VDD VDD _1580_ sky130_fd_sc_hd__clkbuf_4
X_2412_ divide_value[3] VSS VSS VDD VDD _1581_ sky130_fd_sc_hd__clkbuf_4
X_2413_ _1581_ net7 VSS VSS VDD VDD _1582_ sky130_fd_sc_hd__or2_0
X_2414_ _1579_ net8 _1580_ _1582_ VSS VSS VDD VDD _1583_ sky130_fd_sc_hd__or4_1
X_2415_ _2194_ _2196_ _1578_ _1583_ VSS VSS VDD VDD _1584_
+ sky130_fd_sc_hd__or4_1
X_2416_ net16 net15 net14 VSS VSS VDD VDD _1585_ sky130_fd_sc_hd__nor3_1
X_2417_ net18 net13 net12 VSS VSS VDD VDD _1586_ sky130_fd_sc_hd__nor3_1
X_2418_ _2358_ _2362_ _2366_ _2370_ VSS VSS VDD VDD _1587_
+ sky130_fd_sc_hd__nand4_1
X_2419_ _2374_ _2378_ _2382_ _2386_ VSS VSS VDD VDD _1588_
+ sky130_fd_sc_hd__nand4_1
X_2420_ _1587_ _1588_ VSS VSS VDD VDD _1589_ sky130_fd_sc_hd__nor2_1
X_2421_ _2390_ _2394_ _2398_ VSS VSS VDD VDD _1590_ sky130_fd_sc_hd__nand3_1
X_2422_ _2186_ _2179_ _2183_ _2402_ VSS VSS VDD VDD _1591_
+ sky130_fd_sc_hd__nand4_1
X_2423_ _1590_ _1591_ VSS VSS VDD VDD _1592_ sky130_fd_sc_hd__nor2_1
X_2424_ _2185_ _2183_ VSS VSS VDD VDD _1593_ sky130_fd_sc_hd__nor2b_1
X_2425_ _2182_ _1593_ _2179_ VSS VSS VDD VDD _1594_ sky130_fd_sc_hd__o21a_1
X_2426_ _2178_ _1594_ _2175_ VSS VSS VDD VDD _1595_ sky130_fd_sc_hd__o21ai_0
X_2427_ _2174_ _1595_ VSS VSS VDD VDD _1596_ sky130_fd_sc_hd__nand2b_1
X_2428_ _2402_ _1596_ _2401_ VSS VSS VDD VDD _1597_ sky130_fd_sc_hd__a21oi_1
X_2429_ _2394_ _2397_ _2393_ VSS VSS VDD VDD _1598_ sky130_fd_sc_hd__a21o_1
X_2430_ _2390_ _1598_ _2389_ VSS VSS VDD VDD _1599_ sky130_fd_sc_hd__a21oi_1
X_2431_ _1590_ _1597_ _1599_ VSS VSS VDD VDD _1600_ sky130_fd_sc_hd__o21ai_0
X_2432_ _2385_ _2382_ _2381_ VSS VSS VDD VDD _1601_ sky130_fd_sc_hd__a21o_1
X_2433_ _2378_ _1601_ _2377_ VSS VSS VDD VDD _1602_ sky130_fd_sc_hd__a21o_1
X_2434_ _2374_ _1602_ _2373_ VSS VSS VDD VDD _1603_ sky130_fd_sc_hd__a21oi_1
X_2435_ _2369_ _2366_ _2365_ VSS VSS VDD VDD _1604_ sky130_fd_sc_hd__a21o_1
X_2436_ _2362_ _1604_ _2361_ VSS VSS VDD VDD _1605_ sky130_fd_sc_hd__a21o_1
X_2437_ _2358_ _1605_ _2357_ VSS VSS VDD VDD _1606_ sky130_fd_sc_hd__a21oi_1
X_2438_ _1587_ _1603_ _1606_ VSS VSS VDD VDD _1607_ sky130_fd_sc_hd__o21ai_0
X_2439_ _1589_ _1600_ _1607_ VSS VSS VDD VDD _1608_ sky130_fd_sc_hd__a21oi_1
X_2440_ _2175_ _1589_ _1592_ _1608_ VSS VSS VDD VDD _1609_
+ sky130_fd_sc_hd__a31o_1
X_2441_ _1585_ _1586_ _1609_ VSS VSS VDD VDD _1610_ sky130_fd_sc_hd__a21oi_1
X_2442_ net18 VSS VSS VDD VDD _1611_ sky130_fd_sc_hd__inv_1
X_2443_ _1611_ _1585_ _1609_ VSS VSS VDD VDD _1612_ sky130_fd_sc_hd__o21ai_0
X_2444_ net17 _1610_ _1612_ VSS VSS VDD VDD _1613_ sky130_fd_sc_hd__o21ai_2
X_2445_ counter\[7\] counter\[6\] counter\[5\] _2242_ VSS
+ VSS VDD VDD _1614_ sky130_fd_sc_hd__nor4_1
X_2446_ counter\[4\] counter\[3\] counter\[2\] counter\[1\]
+ VSS VSS VDD VDD _1615_ sky130_fd_sc_hd__nor4_1
X_2447_ counter\[15\] counter\[14\] counter\[13\] counter\[8\]
+ VSS VSS VDD VDD _1616_ sky130_fd_sc_hd__nor4_1
X_2448_ counter\[12\] counter\[11\] counter\[10\] counter\[9\]
+ VSS VSS VDD VDD _1617_ sky130_fd_sc_hd__nor4_1
X_2449_ _1614_ _1615_ _1616_ _1617_ VSS VSS VDD VDD _1618_
+ sky130_fd_sc_hd__and4_1
X_2450_ _1584_ _1618_ net19 VSS VSS VDD VDD _1619_ sky130_fd_sc_hd__o21ai_0
X_2451_ _1584_ _1613_ _1619_ VSS VSS VDD VDD _0000_ sky130_fd_sc_hd__a21oi_1
X_2452_ net7 VSS VSS VDD VDD _1620_ sky130_fd_sc_hd__clkbuf_4
X_2453_ net6 VSS VSS VDD VDD _1621_ sky130_fd_sc_hd__clkbuf_4
X_2454_ net2 VSS VSS VDD VDD _1622_ sky130_fd_sc_hd__buf_2
X_2455_ _1620_ _1621_ _1622_ VSS VSS VDD VDD _1623_ sky130_fd_sc_hd__nor3_1
X_2456_ _1581_ _1623_ VSS VSS VDD VDD _2200_ sky130_fd_sc_hd__xnor2_1
X_2457_ _1620_ _2192_ VSS VSS VDD VDD _2203_ sky130_fd_sc_hd__xnor2_1
X_2458_ net9 VSS VSS VDD VDD _1624_ sky130_fd_sc_hd__buf_2
X_2459_ _1621_ _1622_ _1583_ VSS VSS VDD VDD _1625_ sky130_fd_sc_hd__or3_1
X_2460_ _1624_ _1625_ VSS VSS VDD VDD _2206_ sky130_fd_sc_hd__xor2_1
X_2461_ net8 VSS VSS VDD VDD _1626_ sky130_fd_sc_hd__buf_2
X_2462_ _1581_ _1620_ VSS VSS VDD VDD _1627_ sky130_fd_sc_hd__nor2_1
X_2463_ _2192_ _1627_ VSS VSS VDD VDD _1628_ sky130_fd_sc_hd__nand2_1
X_2464_ _1579_ _1626_ _1628_ VSS VSS VDD VDD _1629_ sky130_fd_sc_hd__or3_1
X_2465_ _1580_ _1629_ VSS VSS VDD VDD _2209_ sky130_fd_sc_hd__xor2_1
X_2466_ _1626_ _1621_ _1622_ _1582_ VSS VSS VDD VDD _1630_
+ sky130_fd_sc_hd__nor4_1
X_2467_ _1579_ _1630_ VSS VSS VDD VDD _2212_ sky130_fd_sc_hd__xnor2_1
X_2468_ _1626_ _1628_ VSS VSS VDD VDD _2215_ sky130_fd_sc_hd__xor2_1
X_2469_ net11 VSS VSS VDD VDD _1631_ sky130_fd_sc_hd__clkbuf_4
X_2470_ net10 VSS VSS VDD VDD _1632_ sky130_fd_sc_hd__clkbuf_4
X_2471_ _1632_ net9 _1625_ VSS VSS VDD VDD _1633_ sky130_fd_sc_hd__nor3_1
X_2472_ _1631_ _1633_ VSS VSS VDD VDD _1634_ sky130_fd_sc_hd__nand2b_1
X_2473_ _1572_ _1574_ _1634_ VSS VSS VDD VDD _1635_ sky130_fd_sc_hd__nor3_1
X_2474_ _1576_ _1635_ VSS VSS VDD VDD _2218_ sky130_fd_sc_hd__xnor2_1
X_2475_ _1580_ _1629_ VSS VSS VDD VDD _1636_ sky130_fd_sc_hd__or2_1
X_2476_ _1631_ _1632_ _1624_ _1636_ VSS VSS VDD VDD _1637_
+ sky130_fd_sc_hd__nor4_2
X_2477_ _1574_ _1637_ VSS VSS VDD VDD _1638_ sky130_fd_sc_hd__nand2b_1
X_2478_ _1572_ _1638_ VSS VSS VDD VDD _2221_ sky130_fd_sc_hd__xor2_1
X_2479_ net4 VSS VSS VDD VDD _1639_ sky130_fd_sc_hd__clkbuf_4
X_2480_ _1639_ net3 _1573_ _1634_ VSS VSS VDD VDD _1640_ sky130_fd_sc_hd__nor4_1
X_2481_ net5 _1640_ VSS VSS VDD VDD _2224_ sky130_fd_sc_hd__xnor2_1
X_2482_ net3 VSS VSS VDD VDD _1641_ sky130_fd_sc_hd__clkbuf_4
X_2483_ _1639_ _1641_ VSS VSS VDD VDD _1642_ sky130_fd_sc_hd__nor2_1
X_2484_ _1642_ _1637_ VSS VSS VDD VDD _1643_ sky130_fd_sc_hd__nand2_1
X_2485_ _1573_ _1643_ VSS VSS VDD VDD _2227_ sky130_fd_sc_hd__xor2_1
X_2486_ _1641_ _1634_ VSS VSS VDD VDD _1644_ sky130_fd_sc_hd__nor2_1
X_2487_ _1639_ _1644_ VSS VSS VDD VDD _2230_ sky130_fd_sc_hd__xnor2_1
X_2488_ _1641_ _1637_ VSS VSS VDD VDD _2233_ sky130_fd_sc_hd__xnor2_1
X_2489_ counter\[9\] VSS VSS VDD VDD _2379_ sky130_fd_sc_hd__inv_1
X_2490_ _1631_ _1633_ VSS VSS VDD VDD _2236_ sky130_fd_sc_hd__xnor2_1
X_2491_ _1624_ _1636_ VSS VSS VDD VDD _1645_ sky130_fd_sc_hd__nor2_1
X_2492_ _1632_ _1645_ VSS VSS VDD VDD _2239_ sky130_fd_sc_hd__xnor2_1
X_2493_ _2190_ _2189_ VSS VSS VDD VDD _1646_ sky130_fd_sc_hd__nand2b_1
X_2494_ _2199_ _1646_ _2198_ VSS VSS VDD VDD _1647_ sky130_fd_sc_hd__a21o_1
X_2495_ _2205_ _1647_ _2204_ VSS VSS VDD VDD _1648_ sky130_fd_sc_hd__a21o_1
X_2496_ _2202_ _1648_ _2201_ VSS VSS VDD VDD _1649_ sky130_fd_sc_hd__a21oi_1
X_2497_ _1649_ _2217_ VSS VSS VDD VDD _1650_ sky130_fd_sc_hd__nor2b_1
X_2498_ _2216_ _1650_ _2214_ VSS VSS VDD VDD _1651_ sky130_fd_sc_hd__o21ai_0
X_2499_ _2213_ _1651_ VSS VSS VDD VDD _1652_ sky130_fd_sc_hd__nand2b_1
X_2500_ _2211_ _1652_ _2210_ VSS VSS VDD VDD _1653_ sky130_fd_sc_hd__a21oi_1
X_2501_ _1653_ _2208_ VSS VSS VDD VDD _1654_ sky130_fd_sc_hd__nor2b_1
X_2502_ _2207_ _1654_ _2241_ VSS VSS VDD VDD _1655_ sky130_fd_sc_hd__o21ai_0
X_2503_ _2240_ _1655_ VSS VSS VDD VDD _1656_ sky130_fd_sc_hd__nand2b_1
X_2504_ _2238_ _1656_ _2237_ VSS VSS VDD VDD _1657_ sky130_fd_sc_hd__a21oi_1
X_2505_ _1657_ _2235_ VSS VSS VDD VDD _1658_ sky130_fd_sc_hd__nor2b_1
X_2506_ _2234_ _1658_ _2232_ VSS VSS VDD VDD _1659_ sky130_fd_sc_hd__o21ai_0
X_2507_ _2231_ _1659_ VSS VSS VDD VDD _1660_ sky130_fd_sc_hd__nand2b_1
X_2508_ _2229_ _1660_ _2228_ VSS VSS VDD VDD _1661_ sky130_fd_sc_hd__a21oi_1
X_2509_ _1661_ _2226_ VSS VSS VDD VDD _1662_ sky130_fd_sc_hd__nor2b_1
X_2510_ _2225_ _1662_ _2223_ VSS VSS VDD VDD _1663_ sky130_fd_sc_hd__o21ai_0
X_2511_ _2222_ _1663_ VSS VSS VDD VDD _1664_ sky130_fd_sc_hd__nand2b_1
X_2512_ _2220_ _1664_ _2219_ VSS VSS VDD VDD _1665_ sky130_fd_sc_hd__a21oi_1
X_2513_ _1578_ _1636_ _1584_ VSS VSS VDD VDD _1666_ sky130_fd_sc_hd__o21ai_1
X_2514_ _1665_ _1666_ _1619_ VSS VSS VDD VDD _1667_ sky130_fd_sc_hd__o21bai_4
X_2515_ _1667_ VSS VSS VDD VDD _1668_ sky130_fd_sc_hd__buf_2
X_2516_ counter\[0\] _1668_ VSS VSS VDD VDD _0001_ sky130_fd_sc_hd__nor2_1
X_2517_ _2243_ _1668_ VSS VSS VDD VDD _0008_ sky130_fd_sc_hd__nor2_1
X_2518_ counter\[2\] VSS VSS VDD VDD _2176_ sky130_fd_sc_hd__inv_1
X_2519_ counter\[2\] _2244_ VSS VSS VDD VDD _1669_ sky130_fd_sc_hd__xnor2_1
X_2520_ _1668_ _1669_ VSS VSS VDD VDD _0009_ sky130_fd_sc_hd__nor2_1
X_2521_ counter\[3\] VSS VSS VDD VDD _2172_ sky130_fd_sc_hd__inv_1
X_2522_ counter\[2\] counter\[1\] counter\[0\] VSS VSS VDD
+ VDD _1670_ sky130_fd_sc_hd__nand3_1
X_2523_ _2172_ _1670_ VSS VSS VDD VDD _1671_ sky130_fd_sc_hd__xnor2_1
X_2524_ _1668_ _1671_ VSS VSS VDD VDD _0010_ sky130_fd_sc_hd__nor2_1
X_2525_ counter\[4\] VSS VSS VDD VDD _2399_ sky130_fd_sc_hd__inv_1
X_2526_ counter\[3\] counter\[2\] _2244_ VSS VSS VDD VDD _1672_
+ sky130_fd_sc_hd__nand3_1
X_2527_ _2399_ _1672_ VSS VSS VDD VDD _1673_ sky130_fd_sc_hd__xnor2_1
X_2528_ _1668_ _1673_ VSS VSS VDD VDD _0011_ sky130_fd_sc_hd__nor2_1
X_2529_ counter\[5\] VSS VSS VDD VDD _2395_ sky130_fd_sc_hd__inv_1
X_2530_ _2399_ _2172_ _2176_ VSS VSS VDD VDD _1674_ sky130_fd_sc_hd__nor3_1
X_2531_ counter\[1\] counter\[0\] _1674_ VSS VSS VDD VDD _1675_
+ sky130_fd_sc_hd__nand3_1
X_2532_ _2395_ _1675_ VSS VSS VDD VDD _1676_ sky130_fd_sc_hd__xnor2_1
X_2533_ _1668_ _1676_ VSS VSS VDD VDD _0012_ sky130_fd_sc_hd__nor2_1
X_2534_ counter\[6\] VSS VSS VDD VDD _2391_ sky130_fd_sc_hd__inv_1
X_2535_ counter\[5\] _2244_ _1674_ VSS VSS VDD VDD _1677_
+ sky130_fd_sc_hd__and3_1
X_2536_ counter\[6\] _1677_ VSS VSS VDD VDD _1678_ sky130_fd_sc_hd__xnor2_1
X_2537_ _1668_ _1678_ VSS VSS VDD VDD _0013_ sky130_fd_sc_hd__nor2_1
X_2538_ counter\[7\] VSS VSS VDD VDD _2387_ sky130_fd_sc_hd__inv_1
X_2539_ _2391_ _2395_ _1675_ VSS VSS VDD VDD _1679_ sky130_fd_sc_hd__or3_2
X_2540_ _2387_ _1679_ VSS VSS VDD VDD _1680_ sky130_fd_sc_hd__xnor2_1
X_2541_ _1668_ _1680_ VSS VSS VDD VDD _0014_ sky130_fd_sc_hd__nor2_1
X_2542_ counter\[8\] VSS VSS VDD VDD _2383_ sky130_fd_sc_hd__inv_1
X_2543_ counter\[7\] counter\[6\] _1677_ VSS VSS VDD VDD _1681_
+ sky130_fd_sc_hd__nand3_1
X_2544_ _2383_ _1681_ VSS VSS VDD VDD _1682_ sky130_fd_sc_hd__xnor2_1
X_2545_ _1668_ _1682_ VSS VSS VDD VDD _0015_ sky130_fd_sc_hd__nor2_1
X_2546_ counter\[8\] counter\[7\] VSS VSS VDD VDD _1683_ sky130_fd_sc_hd__nand2_1
X_2547_ _1679_ _1683_ VSS VSS VDD VDD _1684_ sky130_fd_sc_hd__nor2_1
X_2548_ counter\[9\] _1684_ VSS VSS VDD VDD _1685_ sky130_fd_sc_hd__xnor2_1
X_2549_ _1668_ _1685_ VSS VSS VDD VDD _0016_ sky130_fd_sc_hd__nor2_1
X_2550_ counter\[10\] VSS VSS VDD VDD _2375_ sky130_fd_sc_hd__inv_1
X_2551_ counter\[8\] counter\[7\] counter\[6\] _1677_ VSS
+ VSS VDD VDD _1686_ sky130_fd_sc_hd__nand4_2
X_2552_ _2379_ _1686_ counter\[10\] VSS VSS VDD VDD _1687_
+ sky130_fd_sc_hd__o21ai_0
X_2553_ counter\[10\] _2379_ _1686_ VSS VSS VDD VDD _1688_
+ sky130_fd_sc_hd__or3_1
X_2554_ _1687_ _1688_ _1667_ VSS VSS VDD VDD _0002_ sky130_fd_sc_hd__a21oi_1
X_2555_ counter\[11\] VSS VSS VDD VDD _2371_ sky130_fd_sc_hd__inv_1
X_2556_ counter\[10\] counter\[9\] _1684_ VSS VSS VDD VDD
+ _1689_ sky130_fd_sc_hd__nand3_1
X_2557_ _2371_ _1689_ VSS VSS VDD VDD _1690_ sky130_fd_sc_hd__xnor2_1
X_2558_ _1667_ _1690_ VSS VSS VDD VDD _0003_ sky130_fd_sc_hd__nor2_1
X_2559_ counter\[12\] VSS VSS VDD VDD _2367_ sky130_fd_sc_hd__inv_1
X_2560_ counter\[11\] counter\[10\] counter\[9\] VSS VSS VDD
+ VDD _1691_ sky130_fd_sc_hd__nand3_1
X_2561_ _1686_ _1691_ VSS VSS VDD VDD _1692_ sky130_fd_sc_hd__nor2_1
X_2562_ counter\[12\] _1692_ VSS VSS VDD VDD _1693_ sky130_fd_sc_hd__xnor2_1
X_2563_ _1667_ _1693_ VSS VSS VDD VDD _0004_ sky130_fd_sc_hd__nor2_1
X_2564_ counter\[13\] VSS VSS VDD VDD _2363_ sky130_fd_sc_hd__inv_1
X_2565_ _2367_ _1679_ _1683_ _1691_ VSS VSS VDD VDD _1694_
+ sky130_fd_sc_hd__nor4_1
X_2566_ counter\[13\] _1694_ VSS VSS VDD VDD _1695_ sky130_fd_sc_hd__xnor2_1
X_2567_ _1667_ _1695_ VSS VSS VDD VDD _0005_ sky130_fd_sc_hd__nor2_1
X_2568_ counter\[14\] VSS VSS VDD VDD _2359_ sky130_fd_sc_hd__inv_1
X_2569_ _2363_ _2367_ _1686_ _1691_ VSS VSS VDD VDD _1696_
+ sky130_fd_sc_hd__nor4_1
X_2570_ counter\[14\] _1696_ VSS VSS VDD VDD _1697_ sky130_fd_sc_hd__xnor2_1
X_2571_ _1667_ _1697_ VSS VSS VDD VDD _0006_ sky130_fd_sc_hd__nor2_1
X_2572_ counter\[15\] VSS VSS VDD VDD _2355_ sky130_fd_sc_hd__inv_1
X_2573_ counter\[14\] counter\[13\] _1694_ VSS VSS VDD VDD
+ _1698_ sky130_fd_sc_hd__nand3_1
X_2574_ _2355_ _1698_ VSS VSS VDD VDD _1699_ sky130_fd_sc_hd__xnor2_1
X_2575_ _1667_ _1699_ VSS VSS VDD VDD _0007_ sky130_fd_sc_hd__nor2_1
X_2576_ net12 VSS VSS VDD VDD _1700_ sky130_fd_sc_hd__buf_2
X_2577_ _1700_ _1621_ VSS VSS VDD VDD _2246_ sky130_fd_sc_hd__and2_0
X_2578_ net13 VSS VSS VDD VDD _1701_ sky130_fd_sc_hd__clkbuf_4
X_2579_ _1701_ _1622_ VSS VSS VDD VDD _2247_ sky130_fd_sc_hd__and2_0
X_2580_ net18 VSS VSS VDD VDD _1702_ sky130_fd_sc_hd__clkbuf_4
X_2581_ _1702_ _1631_ VSS VSS VDD VDD _1918_ sky130_fd_sc_hd__and2_0
X_2582_ _1700_ _1572_ VSS VSS VDD VDD _1896_ sky130_fd_sc_hd__nand2_1
X_2583_ _1700_ _1576_ VSS VSS VDD VDD _1879_ sky130_fd_sc_hd__and2_0
X_2584_ net16 VSS VSS VDD VDD _1703_ sky130_fd_sc_hd__buf_2
X_2585_ _1703_ _1639_ VSS VSS VDD VDD _1880_ sky130_fd_sc_hd__and2_0
X_2586_ net17 VSS VSS VDD VDD _1704_ sky130_fd_sc_hd__buf_2
X_2587_ _1704_ _1641_ VSS VSS VDD VDD _1881_ sky130_fd_sc_hd__and2_0
X_2588_ _1701_ _1572_ VSS VSS VDD VDD _1884_ sky130_fd_sc_hd__and2_0
X_2589_ net14 VSS VSS VDD VDD _1705_ sky130_fd_sc_hd__buf_2
X_2590_ _1705_ _1573_ VSS VSS VDD VDD _1893_ sky130_fd_sc_hd__and2_0
X_2591_ _1701_ net5 VSS VSS VDD VDD _1894_ sky130_fd_sc_hd__and2_0
X_2592_ _1705_ _1639_ VSS VSS VDD VDD _1910_ sky130_fd_sc_hd__and2_0
X_2593_ _1701_ _1573_ VSS VSS VDD VDD _1911_ sky130_fd_sc_hd__and2_0
X_2594_ _1705_ _1641_ VSS VSS VDD VDD _1929_ sky130_fd_sc_hd__and2_0
X_2595_ _1701_ _1639_ VSS VSS VDD VDD _1930_ sky130_fd_sc_hd__and2_0
X_2596_ _1700_ net5 VSS VSS VDD VDD _1913_ sky130_fd_sc_hd__and2_0
X_2597_ _1703_ _1631_ VSS VSS VDD VDD _1914_ sky130_fd_sc_hd__and2_0
X_2598_ _1704_ _1632_ VSS VSS VDD VDD _1915_ sky130_fd_sc_hd__and2_0
X_2599_ _1705_ _1631_ VSS VSS VDD VDD _1949_ sky130_fd_sc_hd__and2_0
X_2600_ _1701_ _1641_ VSS VSS VDD VDD _1950_ sky130_fd_sc_hd__and2_0
X_2601_ _1700_ _1573_ VSS VSS VDD VDD _1932_ sky130_fd_sc_hd__and2_0
X_2602_ _1703_ _1632_ VSS VSS VDD VDD _1933_ sky130_fd_sc_hd__and2_0
X_2603_ _1704_ _1624_ VSS VSS VDD VDD _1934_ sky130_fd_sc_hd__and2_0
X_2604_ _1705_ _1632_ VSS VSS VDD VDD _1969_ sky130_fd_sc_hd__and2_0
X_2605_ _1701_ _1631_ VSS VSS VDD VDD _1970_ sky130_fd_sc_hd__and2_0
X_2606_ _1700_ _1639_ VSS VSS VDD VDD _1952_ sky130_fd_sc_hd__and2_0
X_2607_ _1703_ _1624_ VSS VSS VDD VDD _1953_ sky130_fd_sc_hd__and2_0
X_2608_ _1704_ _1580_ VSS VSS VDD VDD _1954_ sky130_fd_sc_hd__and2_0
X_2609_ _1705_ _1624_ VSS VSS VDD VDD _1989_ sky130_fd_sc_hd__and2_0
X_2610_ _1701_ _1632_ VSS VSS VDD VDD _1990_ sky130_fd_sc_hd__and2_0
X_2611_ _1700_ _1641_ VSS VSS VDD VDD _1972_ sky130_fd_sc_hd__and2_0
X_2612_ _1703_ _1580_ VSS VSS VDD VDD _1973_ sky130_fd_sc_hd__and2_0
X_2613_ _1704_ _1579_ VSS VSS VDD VDD _1974_ sky130_fd_sc_hd__and2_0
X_2614_ _1702_ _1580_ VSS VSS VDD VDD _1979_ sky130_fd_sc_hd__and2_0
X_2615_ _1705_ _1580_ VSS VSS VDD VDD _2009_ sky130_fd_sc_hd__and2_0
X_2616_ _1701_ _1624_ VSS VSS VDD VDD _2010_ sky130_fd_sc_hd__and2_0
X_2617_ _1700_ _1631_ VSS VSS VDD VDD _1992_ sky130_fd_sc_hd__and2_0
X_2618_ _1703_ _1579_ VSS VSS VDD VDD _1993_ sky130_fd_sc_hd__and2_0
X_2619_ _1704_ _1626_ VSS VSS VDD VDD _1994_ sky130_fd_sc_hd__and2_0
X_2620_ _1705_ _1579_ VSS VSS VDD VDD _2029_ sky130_fd_sc_hd__and2_0
X_2621_ net13 _1580_ VSS VSS VDD VDD _2030_ sky130_fd_sc_hd__and2_0
X_2622_ _1700_ _1632_ VSS VSS VDD VDD _2012_ sky130_fd_sc_hd__and2_0
X_2623_ _1703_ _1626_ VSS VSS VDD VDD _2013_ sky130_fd_sc_hd__and2_0
X_2624_ _1704_ _1581_ VSS VSS VDD VDD _2014_ sky130_fd_sc_hd__and2_0
X_2625_ net18 _1626_ VSS VSS VDD VDD _2019_ sky130_fd_sc_hd__and2_0
X_2626_ _1705_ _1626_ VSS VSS VDD VDD _2049_ sky130_fd_sc_hd__and2_0
X_2627_ net13 _1579_ VSS VSS VDD VDD _2050_ sky130_fd_sc_hd__and2_0
X_2628_ net12 _1624_ VSS VSS VDD VDD _2032_ sky130_fd_sc_hd__and2_0
X_2629_ _1703_ _1581_ VSS VSS VDD VDD _2033_ sky130_fd_sc_hd__and2_0
X_2630_ _1704_ _1620_ VSS VSS VDD VDD _2034_ sky130_fd_sc_hd__and2_0
X_2631_ net18 _1581_ VSS VSS VDD VDD _2039_ sky130_fd_sc_hd__and2_0
X_2632_ net14 _1581_ VSS VSS VDD VDD _2069_ sky130_fd_sc_hd__and2_0
X_2633_ net13 _1626_ VSS VSS VDD VDD _2070_ sky130_fd_sc_hd__and2_0
X_2634_ net12 _1580_ VSS VSS VDD VDD _2052_ sky130_fd_sc_hd__and2_0
X_2635_ _1703_ _1620_ VSS VSS VDD VDD _2053_ sky130_fd_sc_hd__and2_0
X_2636_ _1704_ _1621_ VSS VSS VDD VDD _2054_ sky130_fd_sc_hd__and2_0
X_2637_ net14 _1620_ VSS VSS VDD VDD _2089_ sky130_fd_sc_hd__and2_0
X_2638_ net13 _1581_ VSS VSS VDD VDD _2090_ sky130_fd_sc_hd__and2_0
X_2639_ net12 _1579_ VSS VSS VDD VDD _2072_ sky130_fd_sc_hd__and2_0
X_2640_ net16 _1621_ VSS VSS VDD VDD _2073_ sky130_fd_sc_hd__and2_0
X_2641_ net17 _1622_ VSS VSS VDD VDD _2074_ sky130_fd_sc_hd__and2_0
X_2642_ _1621_ VSS VSS VDD VDD _2191_ sky130_fd_sc_hd__inv_1
X_2643_ _1611_ _2191_ VSS VSS VDD VDD _2079_ sky130_fd_sc_hd__nor2_1
X_2644_ net15 VSS VSS VDD VDD _1706_ sky130_fd_sc_hd__clkbuf_4
X_2645_ _1706_ _1622_ VSS VSS VDD VDD _2102_ sky130_fd_sc_hd__nand2_1
X_2646_ net12 _1626_ VSS VSS VDD VDD _2277_ sky130_fd_sc_hd__and2_0
X_2647_ net16 _1622_ VSS VSS VDD VDD _2278_ sky130_fd_sc_hd__and2_0
X_2648_ net13 _1621_ VSS VSS VDD VDD _2289_ sky130_fd_sc_hd__and2_0
X_2649_ net14 _1622_ VSS VSS VDD VDD _2290_ sky130_fd_sc_hd__and2_0
X_2650_ net12 _1620_ VSS VSS VDD VDD _2298_ sky130_fd_sc_hd__and2_0
X_2651_ net18 _1576_ VSS VSS VDD VDD _2319_ sky130_fd_sc_hd__and2_0
X_2652_ net17 _1572_ VSS VSS VDD VDD _2325_ sky130_fd_sc_hd__and2_0
X_2653_ net16 _1576_ VSS VSS VDD VDD _2326_ sky130_fd_sc_hd__and2_0
X_2654_ net17 _1576_ VSS VSS VDD VDD _2324_ sky130_fd_sc_hd__and2_0
X_2655_ _1706_ _1576_ VSS VSS VDD VDD _2124_ sky130_fd_sc_hd__nand2_1
X_2656_ _1706_ _1572_ VSS VSS VDD VDD _2331_ sky130_fd_sc_hd__and2_0
X_2657_ net14 _1576_ VSS VSS VDD VDD _2332_ sky130_fd_sc_hd__and2_0
X_2658_ net16 _1572_ VSS VSS VDD VDD _2327_ sky130_fd_sc_hd__and2_0
X_2659_ net17 net5 VSS VSS VDD VDD _2328_ sky130_fd_sc_hd__and2_0
X_2660_ net18 _1572_ VSS VSS VDD VDD _2117_ sky130_fd_sc_hd__and2_0
X_2661_ net14 _1572_ VSS VSS VDD VDD _2145_ sky130_fd_sc_hd__and2_0
X_2662_ net13 _1576_ VSS VSS VDD VDD _2146_ sky130_fd_sc_hd__and2_0
X_2663_ net16 net5 VSS VSS VDD VDD _2333_ sky130_fd_sc_hd__and2_0
X_2664_ net17 _1573_ VSS VSS VDD VDD _2334_ sky130_fd_sc_hd__and2_0
X_2665_ net18 net5 VSS VSS VDD VDD _2132_ sky130_fd_sc_hd__and2_0
X_2666_ net16 _1573_ VSS VSS VDD VDD _2338_ sky130_fd_sc_hd__and2_0
X_2667_ net17 _1639_ VSS VSS VDD VDD _2339_ sky130_fd_sc_hd__and2_0
X_2668_ _2138_ VSS VSS VDD VDD _2148_ sky130_fd_sc_hd__inv_1
X_2669_ _1703_ _1641_ VSS VSS VDD VDD _1897_ sky130_fd_sc_hd__nand2_1
X_2670_ _1705_ _1621_ VSS VSS VDD VDD _2103_ sky130_fd_sc_hd__nand2_1
X_2671_ _2281_ VSS VSS VDD VDD _2106_ sky130_fd_sc_hd__inv_1
X_2672_ _2293_ VSS VSS VDD VDD _2111_ sky130_fd_sc_hd__inv_1
X_2673_ _2129_ VSS VSS VDD VDD _2125_ sky130_fd_sc_hd__inv_1
X_2674_ _1704_ _1631_ VSS VSS VDD VDD _1898_ sky130_fd_sc_hd__nand2_1
X_2675_ _1702_ _1632_ VSS VSS VDD VDD _1938_ sky130_fd_sc_hd__nand2_1
X_2676_ _1702_ _1624_ VSS VSS VDD VDD _1958_ sky130_fd_sc_hd__nand2_1
X_2677_ _1702_ _1579_ VSS VSS VDD VDD _1998_ sky130_fd_sc_hd__nand2_1
X_2678_ _1702_ _1620_ VSS VSS VDD VDD _2058_ sky130_fd_sc_hd__nand2_1
X_2679_ _1702_ _1622_ VSS VSS VDD VDD _2093_ sky130_fd_sc_hd__nand2_1
X_2680_ _2279_ VSS VSS VDD VDD _2097_ sky130_fd_sc_hd__inv_1
X_2681_ _2280_ VSS VSS VDD VDD _2100_ sky130_fd_sc_hd__inv_1
X_2682_ _1701_ _1620_ VSS VSS VDD VDD _2104_ sky130_fd_sc_hd__nand2_1
X_2683_ _1700_ _1581_ VSS VSS VDD VDD _2107_ sky130_fd_sc_hd__nand2_1
X_2684_ _2309_ VSS VSS VDD VDD _2112_ sky130_fd_sc_hd__inv_1
X_2685_ _2335_ VSS VSS VDD VDD _2136_ sky130_fd_sc_hd__inv_1
X_2686_ _1702_ _1573_ VSS VSS VDD VDD _2150_ sky130_fd_sc_hd__nand2_1
X_2687_ _1702_ _1639_ VSS VSS VDD VDD _2163_ sky130_fd_sc_hd__nand2_1
X_2688_ _1702_ _1641_ VSS VSS VDD VDD _2169_ sky130_fd_sc_hd__nand2_1
X_2689_ _1895_ VSS VSS VDD VDD _1905_ sky130_fd_sc_hd__inv_1
X_2690_ _1900_ VSS VSS VDD VDD _1907_ sky130_fd_sc_hd__inv_1
X_2691_ _1908_ VSS VSS VDD VDD _1922_ sky130_fd_sc_hd__inv_1
X_2692_ _1912_ VSS VSS VDD VDD _1925_ sky130_fd_sc_hd__inv_1
X_2693_ _1927_ VSS VSS VDD VDD _1941_ sky130_fd_sc_hd__inv_1
X_2694_ _1931_ VSS VSS VDD VDD _1945_ sky130_fd_sc_hd__inv_1
X_2695_ _1947_ VSS VSS VDD VDD _1961_ sky130_fd_sc_hd__inv_1
X_2696_ _1951_ VSS VSS VDD VDD _1965_ sky130_fd_sc_hd__inv_1
X_2697_ _1964_ VSS VSS VDD VDD _1977_ sky130_fd_sc_hd__inv_1
X_2698_ _1967_ VSS VSS VDD VDD _1982_ sky130_fd_sc_hd__inv_1
X_2699_ _1971_ VSS VSS VDD VDD _1985_ sky130_fd_sc_hd__inv_1
X_2700_ _1981_ VSS VSS VDD VDD _2260_ sky130_fd_sc_hd__inv_1
X_2701_ _1987_ VSS VSS VDD VDD _2001_ sky130_fd_sc_hd__inv_1
X_2702_ _1991_ VSS VSS VDD VDD _2005_ sky130_fd_sc_hd__inv_1
X_2703_ _2004_ VSS VSS VDD VDD _2017_ sky130_fd_sc_hd__inv_1
X_2704_ _2007_ VSS VSS VDD VDD _2022_ sky130_fd_sc_hd__inv_1
X_2705_ _2011_ VSS VSS VDD VDD _2025_ sky130_fd_sc_hd__inv_1
X_2706_ _2021_ VSS VSS VDD VDD _2267_ sky130_fd_sc_hd__inv_1
X_2707_ _2024_ VSS VSS VDD VDD _2037_ sky130_fd_sc_hd__inv_1
X_2708_ _2027_ VSS VSS VDD VDD _2042_ sky130_fd_sc_hd__inv_1
X_2709_ _2031_ VSS VSS VDD VDD _2045_ sky130_fd_sc_hd__inv_1
X_2710_ _2041_ VSS VSS VDD VDD _2270_ sky130_fd_sc_hd__inv_1
X_2711_ _2047_ VSS VSS VDD VDD _2061_ sky130_fd_sc_hd__inv_1
X_2712_ _2051_ VSS VSS VDD VDD _2065_ sky130_fd_sc_hd__inv_1
X_2713_ _2064_ VSS VSS VDD VDD _2077_ sky130_fd_sc_hd__inv_1
X_2714_ _2067_ VSS VSS VDD VDD _2082_ sky130_fd_sc_hd__inv_1
X_2715_ _2071_ VSS VSS VDD VDD _2085_ sky130_fd_sc_hd__inv_1
X_2716_ _2081_ VSS VSS VDD VDD _2305_ sky130_fd_sc_hd__inv_1
X_2717_ _2143_ VSS VSS VDD VDD _2153_ sky130_fd_sc_hd__inv_1
X_2718_ _1887_ VSS VSS VDD VDD _2158_ sky130_fd_sc_hd__inv_1
X_2719_ _1899_ VSS VSS VDD VDD _1901_ sky130_fd_sc_hd__inv_1
X_2720_ _1903_ VSS VSS VDD VDD _2168_ sky130_fd_sc_hd__inv_1
X_2721_ _1943_ VSS VSS VDD VDD _1937_ sky130_fd_sc_hd__inv_1
X_2722_ _1963_ VSS VSS VDD VDD _1957_ sky130_fd_sc_hd__inv_1
X_2723_ _2003_ VSS VSS VDD VDD _1997_ sky130_fd_sc_hd__inv_1
X_2724_ _2063_ VSS VSS VDD VDD _2057_ sky130_fd_sc_hd__inv_1
X_2725_ _2142_ VSS VSS VDD VDD _2135_ sky130_fd_sc_hd__inv_1
X_2726_ _2156_ VSS VSS VDD VDD _2149_ sky130_fd_sc_hd__inv_1
X_2727_ _2166_ VSS VSS VDD VDD _2162_ sky130_fd_sc_hd__inv_1
X_2728_ counter\[0\] VSS VSS VDD VDD _2187_ sky130_fd_sc_hd__inv_1
X_2729_ _1622_ VSS VSS VDD VDD _2188_ sky130_fd_sc_hd__inv_1
X_2730_ _1706_ _1573_ VSS VSS VDD VDD _1885_ sky130_fd_sc_hd__and2_0
X_2731_ _1706_ _1639_ VSS VSS VDD VDD _1892_ sky130_fd_sc_hd__and2_0
X_2732_ _1706_ _1641_ VSS VSS VDD VDD _1909_ sky130_fd_sc_hd__and2_0
X_2733_ _1706_ _1631_ VSS VSS VDD VDD _1928_ sky130_fd_sc_hd__and2_0
X_2734_ _1706_ _1632_ VSS VSS VDD VDD _1948_ sky130_fd_sc_hd__and2_0
X_2735_ _1706_ _1624_ VSS VSS VDD VDD _1968_ sky130_fd_sc_hd__and2_0
X_2736_ _1706_ _1580_ VSS VSS VDD VDD _1988_ sky130_fd_sc_hd__and2_0
X_2737_ _1940_ VSS VSS VDD VDD _2253_ sky130_fd_sc_hd__inv_1
X_2738_ _1960_ VSS VSS VDD VDD _2257_ sky130_fd_sc_hd__inv_1
X_2739_ net15 _1579_ VSS VSS VDD VDD _2008_ sky130_fd_sc_hd__and2_0
X_2740_ net15 _1626_ VSS VSS VDD VDD _2028_ sky130_fd_sc_hd__and2_0
X_2741_ _2000_ VSS VSS VDD VDD _2264_ sky130_fd_sc_hd__inv_1
X_2742_ net15 _1581_ VSS VSS VDD VDD _2048_ sky130_fd_sc_hd__and2_0
X_2743_ net15 _1620_ VSS VSS VDD VDD _2068_ sky130_fd_sc_hd__and2_0
X_2744_ net15 _1621_ VSS VSS VDD VDD _2088_ sky130_fd_sc_hd__and2_0
X_2745_ _2060_ VSS VSS VDD VDD _2274_ sky130_fd_sc_hd__inv_1
X_2746_ _2098_ VSS VSS VDD VDD _2282_ sky130_fd_sc_hd__inv_1
X_2747_ _2101_ VSS VSS VDD VDD _2286_ sky130_fd_sc_hd__inv_1
X_2748_ _2109_ VSS VSS VDD VDD _2295_ sky130_fd_sc_hd__inv_1
X_2749_ _2095_ VSS VSS VDD VDD _2300_ sky130_fd_sc_hd__inv_1
X_2750_ net15 net5 VSS VSS VDD VDD _2144_ sky130_fd_sc_hd__and2_0
X_2751_ _2152_ VSS VSS VDD VDD _2344_ sky130_fd_sc_hd__inv_1
X_2752_ _2165_ VSS VSS VDD VDD _2348_ sky130_fd_sc_hd__inv_1
X_2753_ _2171_ VSS VSS VDD VDD _2352_ sky130_fd_sc_hd__inv_1
X_2754_ _2313_ VSS VSS VDD VDD _1707_ sky130_fd_sc_hd__clkbuf_4
X_2755_ _2249_ _1707_ _2314_ VSS VSS VDD VDD _1708_ sky130_fd_sc_hd__nand3_4
X_2756_ _2311_ VSS VSS VDD VDD _1709_ sky130_fd_sc_hd__buf_4
X_2757_ _2114_ VSS VSS VDD VDD _1710_ sky130_fd_sc_hd__buf_2
X_2758_ _1709_ _1710_ VSS VSS VDD VDD _1711_ sky130_fd_sc_hd__nor2b_2
X_2759_ _2302_ _2113_ VSS VSS VDD VDD _1712_ sky130_fd_sc_hd__xor2_4
X_2760_ _1708_ _1711_ _1712_ VSS VSS VDD VDD _1713_ sky130_fd_sc_hd__a21oi_4
X_2761_ _1712_ _1708_ _1711_ VSS VSS VDD VDD _1714_ sky130_fd_sc_hd__and3_1
X_2762_ _1713_ _1714_ VSS VSS VDD VDD _1715_ sky130_fd_sc_hd__or2_1
X_2763_ _2317_ _2315_ VSS VSS VDD VDD _1716_ sky130_fd_sc_hd__nand2b_1
X_2764_ _1709_ _1708_ VSS VSS VDD VDD _1717_ sky130_fd_sc_hd__xor2_4
X_2765_ _1716_ _1717_ VSS VSS VDD VDD _1718_ sky130_fd_sc_hd__nor2_1
X_2766_ _1715_ _1718_ VSS VSS VDD VDD _1719_ sky130_fd_sc_hd__nand2_2
X_2767_ _2317_ _2315_ VSS VSS VDD VDD _1720_ sky130_fd_sc_hd__nor2b_1
X_2768_ _1720_ VSS VSS VDD VDD _1721_ sky130_fd_sc_hd__buf_4
X_2769_ _1709_ _1708_ VSS VSS VDD VDD _1722_ sky130_fd_sc_hd__xnor2_4
X_2770_ _1721_ _1722_ VSS VSS VDD VDD _1723_ sky130_fd_sc_hd__nand2_4
X_2771_ _2347_ VSS VSS VDD VDD _1724_ sky130_fd_sc_hd__clkbuf_4
X_2772_ _2259_ VSS VSS VDD VDD _1725_ sky130_fd_sc_hd__buf_2
X_2773_ _2263_ _1725_ VSS VSS VDD VDD _1726_ sky130_fd_sc_hd__nand2_1
X_2774_ _2266_ _2268_ _2265_ VSS VSS VDD VDD _1727_ sky130_fd_sc_hd__a21oi_1
X_2775_ _1725_ _2262_ _2258_ VSS VSS VDD VDD _1728_ sky130_fd_sc_hd__a21oi_1
X_2776_ _1726_ _1727_ _1728_ VSS VSS VDD VDD _1729_ sky130_fd_sc_hd__o21ai_2
X_2777_ _2351_ VSS VSS VDD VDD _1730_ sky130_fd_sc_hd__buf_2
X_2778_ _1730_ _2354_ VSS VSS VDD VDD _1731_ sky130_fd_sc_hd__nand2_1
X_2779_ _2256_ VSS VSS VDD VDD _1732_ sky130_fd_sc_hd__buf_2
X_2780_ _1732_ _2252_ VSS VSS VDD VDD _1733_ sky130_fd_sc_hd__nand2_1
X_2781_ _1731_ _1733_ VSS VSS VDD VDD _1734_ sky130_fd_sc_hd__nor2_1
X_2782_ _2252_ _2255_ _2251_ VSS VSS VDD VDD _1735_ sky130_fd_sc_hd__a21oi_1
X_2783_ _1730_ _2353_ _2350_ VSS VSS VDD VDD _1736_ sky130_fd_sc_hd__a21oi_1
X_2784_ _1731_ _1735_ _1736_ VSS VSS VDD VDD _1737_ sky130_fd_sc_hd__o21ai_1
X_2785_ _1729_ _1734_ _1737_ VSS VSS VDD VDD _1738_ sky130_fd_sc_hd__a21o_1
X_2786_ _2113_ _2302_ VSS VSS VDD VDD _1739_ sky130_fd_sc_hd__nand2b_2
X_2787_ _2301_ _2307_ VSS VSS VDD VDD _1740_ sky130_fd_sc_hd__nor2_2
X_2788_ _2308_ VSS VSS VDD VDD _1741_ sky130_fd_sc_hd__buf_4
X_2789_ _2276_ VSS VSS VDD VDD _1742_ sky130_fd_sc_hd__buf_4
X_2790_ _2273_ VSS VSS VDD VDD _1743_ sky130_fd_sc_hd__buf_2
X_2791_ _1741_ _2307_ _1742_ _1743_ VSS VSS VDD VDD _1744_
+ sky130_fd_sc_hd__o211a_1
X_2792_ _1739_ _1740_ _1744_ VSS VSS VDD VDD _1745_ sky130_fd_sc_hd__a21boi_2
X_2793_ _1743_ _2275_ _2272_ VSS VSS VDD VDD _1746_ sky130_fd_sc_hd__a21o_1
X_2794_ _2269_ VSS VSS VDD VDD _1747_ sky130_fd_sc_hd__clkbuf_4
X_2795_ _2263_ _1747_ _1725_ _2266_ VSS VSS VDD VDD _1748_
+ sky130_fd_sc_hd__nand4_1
X_2796_ _1748_ _1731_ _1733_ VSS VSS VDD VDD _1749_ sky130_fd_sc_hd__nor3_1
X_2797_ _1745_ _1746_ _1749_ VSS VSS VDD VDD _1750_ sky130_fd_sc_hd__o21ai_2
X_2798_ _1738_ _1750_ VSS VSS VDD VDD _1751_ sky130_fd_sc_hd__nand2b_2
X_2799_ _1724_ _1751_ VSS VSS VDD VDD _1752_ sky130_fd_sc_hd__xor2_4
X_2800_ _2354_ _2251_ _2353_ VSS VSS VDD VDD _1753_ sky130_fd_sc_hd__a21oi_2
X_2801_ _1732_ _2258_ _2255_ VSS VSS VDD VDD _1754_ sky130_fd_sc_hd__a21oi_1
X_2802_ _1753_ _1754_ VSS VSS VDD VDD _1755_ sky130_fd_sc_hd__nand2_2
X_2803_ _1742_ _2307_ _2275_ VSS VSS VDD VDD _1756_ sky130_fd_sc_hd__a21o_1
X_2804_ _2301_ _1741_ _1742_ _1756_ VSS VSS VDD VDD _1757_
+ sky130_fd_sc_hd__a31oi_4
X_2805_ _2309_ _2304_ _2303_ VSS VSS VDD VDD _1758_ sky130_fd_sc_hd__a21o_1
X_2806_ _2302_ _1741_ _1742_ _1758_ VSS VSS VDD VDD _1759_
+ sky130_fd_sc_hd__nand4_4
X_2807_ _1747_ _1743_ VSS VSS VDD VDD _1760_ sky130_fd_sc_hd__nand2_2
X_2808_ _2263_ _2266_ VSS VSS VDD VDD _1761_ sky130_fd_sc_hd__nand2_2
X_2809_ _1757_ _1759_ _1760_ _1761_ VSS VSS VDD VDD _1762_
+ sky130_fd_sc_hd__a211oi_4
X_2810_ _1747_ _2272_ _2268_ VSS VSS VDD VDD _1763_ sky130_fd_sc_hd__a21oi_4
X_2811_ _2263_ _2265_ _2262_ VSS VSS VDD VDD _1764_ sky130_fd_sc_hd__a21oi_2
X_2812_ _1761_ _1763_ _1764_ VSS VSS VDD VDD _1765_ sky130_fd_sc_hd__o21ai_4
X_2813_ _2353_ VSS VSS VDD VDD _1766_ sky130_fd_sc_hd__inv_1
X_2814_ _2252_ _2251_ _2354_ VSS VSS VDD VDD _1767_ sky130_fd_sc_hd__o21ai_1
X_2815_ _1766_ _1767_ VSS VSS VDD VDD _1768_ sky130_fd_sc_hd__nand2_1
X_2816_ _1732_ _1725_ _1730_ VSS VSS VDD VDD _1769_ sky130_fd_sc_hd__nand3_1
X_2817_ _1766_ _1767_ _1769_ VSS VSS VDD VDD _1770_ sky130_fd_sc_hd__a21oi_1
X_2818_ _1730_ _1768_ _1755_ _1765_ _1770_ VSS VSS VDD VDD
+ _1771_ sky130_fd_sc_hd__a32oi_4
X_2819_ _1730_ _1755_ _1762_ _1765_ _1771_ VSS VSS VDD VDD
+ _1772_ sky130_fd_sc_hd__o41ai_4
X_2820_ _1732_ _1725_ _1730_ _1755_ VSS VSS VDD VDD _1773_
+ sky130_fd_sc_hd__a211oi_1