
* cell parameterized_freq_divider
* pin divide_value[13]
* pin duty_cycle[0]
* pin duty_cycle[4]
* pin duty_cycle[5]
* pin divide_value[2]
* pin duty_cycle[6]
* pin divide_value[4]
* pin divide_value[0]
* pin divide_value[1]
* pin divide_value[14]
* pin divide_value[7]
* pin divide_value[15]
* pin divide_value[12]
* pin divide_value[8]
* pin divide_value[9]
* pin divide_value[11]
* pin divide_value[10]
* pin clk_in
* pin rst_n
* pin enable
* pin clk_out
* pin divide_value[5]
* pin divide_value[3]
* pin divide_value[6]
* pin duty_cycle[3]
* pin duty_cycle[1]
* pin duty_cycle[2]
.SUBCKT parameterized_freq_divider 1 2 3 4 5 6 7 8 9 10 11 12 13 14 15 16 17 18
+ 19 20 21 1261 1404 1412 2463 2464 2465
* net 1 divide_value[13]
* net 2 duty_cycle[0]
* net 3 duty_cycle[4]
* net 4 duty_cycle[5]
* net 5 divide_value[2]
* net 6 duty_cycle[6]
* net 7 divide_value[4]
* net 8 divide_value[0]
* net 9 divide_value[1]
* net 10 divide_value[14]
* net 11 divide_value[7]
* net 12 divide_value[15]
* net 13 divide_value[12]
* net 14 divide_value[8]
* net 15 divide_value[9]
* net 16 divide_value[11]
* net 17 divide_value[10]
* net 18 clk_in
* net 19 rst_n
* net 20 enable
* net 21 clk_out
* net 1261 divide_value[5]
* net 1404 divide_value[3]
* net 1412 divide_value[6]
* net 2463 duty_cycle[3]
* net 2464 duty_cycle[1]
* net 2465 duty_cycle[2]
* cell instance $3 r0 *1 781.54,2.72
X$3 48 1 29 27 48 29 sky130_fd_sc_hd__clkbuf_4
* cell instance $6 r0 *1 785.22,2.72
X$6 48 2 29 37 48 29 sky130_fd_sc_hd__clkbuf_4
* cell instance $8 r0 *1 794.42,2.72
X$8 48 3 29 22 48 29 sky130_fd_sc_hd__clkbuf_4
* cell instance $12 r0 *1 791.66,2.72
X$12 48 4 29 24 48 29 sky130_fd_sc_hd__clkbuf_4
* cell instance $15 r0 *1 797.18,2.72
X$15 29 35 5 48 48 29 sky130_fd_sc_hd__dlymetal6s2s_1
* cell instance $18 m0 *1 799.02,8.16
X$18 48 6 29 63 48 29 sky130_fd_sc_hd__buf_2
* cell instance $21 r0 *1 802.24,2.72
X$21 48 7 34 29 48 29 sky130_fd_sc_hd__clkbuf_1
* cell instance $24 r0 *1 807.3,2.72
X$24 48 8 29 32 48 29 sky130_fd_sc_hd__buf_2
* cell instance $27 r0 *1 809.14,2.72
X$27 29 31 9 48 48 29 sky130_fd_sc_hd__dlymetal6s2s_1
* cell instance $30 r0 *1 822.94,2.72
X$30 48 10 29 26 48 29 sky130_fd_sc_hd__clkbuf_4
* cell instance $33 m0 *1 820.64,8.16
X$33 48 11 70 29 48 29 sky130_fd_sc_hd__clkbuf_1
* cell instance $36 r0 *1 820.18,2.72
X$36 48 12 29 39 48 29 sky130_fd_sc_hd__clkbuf_4
* cell instance $39 m0 *1 824.78,8.16
X$39 48 13 29 40 48 29 sky130_fd_sc_hd__clkbuf_4
* cell instance $42 m0 *1 823.4,8.16
X$42 48 14 44 29 48 29 sky130_fd_sc_hd__clkbuf_1
* cell instance $45 m0 *1 822.02,8.16
X$45 48 15 71 29 48 29 sky130_fd_sc_hd__clkbuf_1
* cell instance $48 r0 *1 827.08,2.72
X$48 48 16 45 29 48 29 sky130_fd_sc_hd__clkbuf_1
* cell instance $50 m0 *1 829.84,8.16
X$50 48 17 72 29 48 29 sky130_fd_sc_hd__clkbuf_1
* cell instance $54 r0 *1 836.74,2.72
X$54 48 18 48 29 46 29 sky130_fd_sc_hd__buf_4
* cell instance $57 r0 *1 845.02,2.72
X$57 29 19 47 48 48 29 sky130_fd_sc_hd__buf_6
* cell instance $60 r0 *1 843.64,2.72
X$60 48 20 370 29 48 29 sky130_fd_sc_hd__clkbuf_1
* cell instance $63 r0 *1 849.16,2.72
X$63 48 30 21 29 48 29 sky130_fd_sc_hd__clkbuf_1
* cell instance $78 r0 *1 802.24,84.32
X$78 48 22 462 968 48 29 29 sky130_fd_sc_hd__and2_0
* cell instance $80 r0 *1 754.4,13.6
X$80 48 22 39 137 48 29 29 sky130_fd_sc_hd__and2_0
* cell instance $82 m0 *1 750.72,8.16
X$82 48 22 26 50 48 29 29 sky130_fd_sc_hd__and2_0
* cell instance $84 m0 *1 766.82,8.16
X$84 48 22 40 57 48 29 29 sky130_fd_sc_hd__and2_0
* cell instance $87 r0 *1 763.6,2.72
X$87 48 22 27 134 48 29 29 sky130_fd_sc_hd__and2_0
* cell instance $89 m0 *1 795.34,78.88
X$89 48 22 206 23 791 29 48 29 sky130_fd_sc_hd__nor3_1
* cell instance $91 m0 *1 790.28,89.76
X$91 48 22 440 1000 48 29 29 sky130_fd_sc_hd__and2_0
* cell instance $97 m0 *1 802.24,29.92
X$97 48 22 29 129 48 29 sky130_fd_sc_hd__buf_2
* cell instance $115 r0 *1 811.9,78.88
X$115 48 23 576 880 48 29 29 sky130_fd_sc_hd__and2_0
* cell instance $117 m0 *1 795.8,106.08
X$117 48 23 462 1356 48 29 29 sky130_fd_sc_hd__and2_0
* cell instance $121 r0 *1 2.3,845.92
X$121 29 2465 23 48 48 29 sky130_fd_sc_hd__buf_16
* cell instance $124 m0 *1 810.52,106.08
X$124 48 23 608 1243 48 29 29 sky130_fd_sc_hd__and2_0
* cell instance $126 m0 *1 756.24,19.04
X$126 48 23 26 141 48 29 29 sky130_fd_sc_hd__and2_0
* cell instance $128 m0 *1 761.76,8.16
X$128 48 23 39 86 48 29 29 sky130_fd_sc_hd__and2_0
* cell instance $132 r0 *1 813.28,13.6
X$132 48 23 29 68 48 29 sky130_fd_sc_hd__buf_2
* cell instance $134 m0 *1 778.32,8.16
X$134 48 23 27 91 48 29 29 sky130_fd_sc_hd__and2_0
* cell instance $151 m0 *1 747.5,19.04
X$151 48 24 26 150 48 29 29 sky130_fd_sc_hd__and2_0
* cell instance $153 m0 *1 748.42,8.16
X$153 48 24 27 81 48 29 29 sky130_fd_sc_hd__and2_0
* cell instance $155 m0 *1 764.52,8.16
X$155 48 24 40 56 48 29 29 sky130_fd_sc_hd__and2_0
* cell instance $157 m0 *1 751.64,24.48
X$157 48 24 39 176 48 29 29 sky130_fd_sc_hd__and2_0
* cell instance $159 m0 *1 792.58,78.88
X$159 48 24 462 844 48 29 29 sky130_fd_sc_hd__and2_0
* cell instance $161 r0 *1 794.42,73.44
X$161 48 24 781 806 29 352 48 29 sky130_fd_sc_hd__o21ai_2
* cell instance $163 r0 *1 790.28,29.92
X$163 48 24 29 77 48 29 sky130_fd_sc_hd__buf_2
* cell instance $167 m0 *1 776.02,8.16
X$167 48 24 28 41 48 29 29 sky130_fd_sc_hd__and2_0
* cell instance $172 r0 *1 754.86,2.72
X$172 48 25 48 29 36 29 sky130_fd_sc_hd__inv_1
* cell instance $174 r0 *1 760.84,8.16
X$174 29 53 25 38 86 48 48 29 sky130_fd_sc_hd__ha_1
* cell instance $191 r0 *1 761.3,2.72
X$191 48 33 26 38 48 29 29 sky130_fd_sc_hd__and2_0
* cell instance $193 r0 *1 750.72,24.48
X$193 48 63 26 221 48 29 29 sky130_fd_sc_hd__and2_0
* cell instance $196 m0 *1 822.02,19.04
X$196 48 26 84 145 29 48 29 sky130_fd_sc_hd__nor2_1
* cell instance $199 m0 *1 822.48,24.48
X$199 48 26 84 146 191 29 48 29 sky130_fd_sc_hd__nor3_1
* cell instance $201 m0 *1 824.32,24.48
X$201 48 180 26 48 182 29 29 sky130_fd_sc_hd__xor2_1
* cell instance $203 m0 *1 793.5,13.6
X$203 48 101 26 99 48 29 29 sky130_fd_sc_hd__nand2_1
* cell instance $207 r0 *1 783.38,8.16
X$207 48 102 26 42 48 29 29 sky130_fd_sc_hd__and2_0
* cell instance $224 r0 *1 758.08,19.04
X$224 48 206 27 156 48 29 29 sky130_fd_sc_hd__and2_0
* cell instance $227 m0 *1 750.72,19.04
X$227 48 63 27 152 48 29 29 sky130_fd_sc_hd__and2_0
* cell instance $231 r0 *1 823.4,8.16
X$231 48 45 72 27 40 84 48 29 29 sky130_fd_sc_hd__or4_1
* cell instance $233 r0 *1 822.48,19.04
X$233 48 175 27 174 48 29 29 sky130_fd_sc_hd__xnor2_1
* cell instance $235 r0 *1 804.08,13.6
X$235 48 102 27 65 48 29 29 sky130_fd_sc_hd__and2_0
* cell instance $237 m0 *1 793.96,19.04
X$237 48 101 27 128 48 29 29 sky130_fd_sc_hd__and2_0
* cell instance $248 m0 *1 799.48,29.92
X$248 48 101 28 244 48 29 29 sky130_fd_sc_hd__and2_0
* cell instance $250 r0 *1 826.16,8.16
X$250 48 45 29 28 48 29 sky130_fd_sc_hd__clkbuf_4
* cell instance $253 m0 *1 823.4,19.04
X$253 48 146 72 28 40 29 175 48 29 sky130_fd_sc_hd__nor4_1
* cell instance $256 r0 *1 804.08,2.72
X$256 48 33 28 64 48 29 29 sky130_fd_sc_hd__and2_0
* cell instance $258 m0 *1 811.9,8.16
X$258 48 68 28 87 48 29 29 sky130_fd_sc_hd__and2_0
* cell instance $261 r0 *1 776.94,19.04
X$261 48 143 28 142 48 29 29 sky130_fd_sc_hd__nand2_1
* cell instance $264 r0 *1 783.84,13.6
X$264 48 129 28 116 48 29 29 sky130_fd_sc_hd__and2_0
* cell instance $268 r0 *1 810.06,13.6
X$268 48 102 28 120 48 29 29 sky130_fd_sc_hd__and2_0
* cell instance $270 m0 *1 826.16,29.92
X$270 48 255 28 254 48 29 29 sky130_fd_sc_hd__xnor2_1
* cell instance $272 m0 *1 821.56,29.92
X$272 48 28 67 212 29 48 29 sky130_fd_sc_hd__nor2_1
* cell instance $5368 m0 *1 753.02,8.16
X$5368 48 33 39 51 48 29 29 sky130_fd_sc_hd__nand2_1
* cell instance $5369 m0 *1 754.4,8.16
X$5369 29 107 54 53 52 154 48 48 29 sky130_fd_sc_hd__fa_1
* cell instance $5372 m0 *1 769.58,8.16
X$5372 29 133 58 57 41 48 48 29 sky130_fd_sc_hd__ha_1
* cell instance $5381 m0 *1 783.84,8.16
X$5381 29 59 61 93 43 60 48 48 29 sky130_fd_sc_hd__fa_1
* cell instance $5382 m0 *1 791.2,8.16
X$5382 29 117 119 99 62 166 48 48 29 sky130_fd_sc_hd__fa_1
* cell instance $5388 m0 *1 802.24,8.16
X$5388 29 43 66 64 65 89 48 48 29 sky130_fd_sc_hd__fa_1
* cell instance $5389 m0 *1 809.6,8.16
X$5389 48 33 67 69 48 29 29 sky130_fd_sc_hd__and2_0
* cell instance $5400 m0 *1 839.04,8.16
X$5400 29 47 30 46 375 48 48 29 sky130_fd_sc_hd__dfrtp_1
* cell instance $6396 r0 *1 745.2,8.16
X$6396 48 49 48 29 83 29 sky130_fd_sc_hd__inv_1
* cell instance $6398 r0 *1 746.58,8.16
X$6398 29 49 82 50 81 48 48 29 sky130_fd_sc_hd__ha_1
* cell instance $6404 m0 *1 750.72,13.6
X$6404 48 105 48 29 104 29 sky130_fd_sc_hd__inv_1
* cell instance $6405 r0 *1 751.18,8.16
X$6405 29 105 106 51 83 36 48 48 29 sky130_fd_sc_hd__fa_1
* cell instance $6407 m0 *1 753.02,13.6
X$6407 48 107 48 29 108 29 sky130_fd_sc_hd__inv_1
* cell instance $6408 m0 *1 754.4,13.6
X$6408 29 153 136 106 85 108 48 48 29 sky130_fd_sc_hd__fa_1
* cell instance $6409 r0 *1 758.54,8.16
X$6409 48 73 48 29 85 29 sky130_fd_sc_hd__inv_1
* cell instance $6413 m0 *1 763.6,13.6
X$6413 48 54 48 29 55 29 sky130_fd_sc_hd__inv_1
* cell instance $6416 m0 *1 765.9,13.6
X$6416 29 109 132 110 112 74 48 48 29 sky130_fd_sc_hd__fa_1
* cell instance $6417 r0 *1 766.36,8.16
X$6417 29 157 160 55 58 111 48 48 29 sky130_fd_sc_hd__fa_1
* cell instance $6426 m0 *1 775.56,13.6
X$6426 48 113 48 29 74 29 sky130_fd_sc_hd__inv_1
* cell instance $6427 r0 *1 776.02,8.16
X$6427 29 113 60 42 91 90 48 48 29 sky130_fd_sc_hd__fa_1
* cell instance $6429 m0 *1 777.4,13.6
X$6429 48 33 40 90 48 29 29 sky130_fd_sc_hd__and2_0
* cell instance $6431 m0 *1 780.62,13.6
X$6431 29 115 93 96 76 116 48 48 29 sky130_fd_sc_hd__fa_1
* cell instance $6432 r0 *1 785.68,8.16
X$6432 48 101 39 96 48 29 29 sky130_fd_sc_hd__and2_0
* cell instance $6433 m0 *1 787.98,13.6
X$6433 48 77 67 76 48 29 29 sky130_fd_sc_hd__and2_0
* cell instance $6435 r0 *1 788.44,8.16
X$6435 29 75 97 100 98 61 48 48 29 sky130_fd_sc_hd__fa_1
* cell instance $6437 m0 *1 791.2,13.6
X$6437 48 117 48 29 100 29 sky130_fd_sc_hd__inv_1
* cell instance $6443 r0 *1 797.18,8.16
X$6443 29 98 92 94 95 78 48 48 29 sky130_fd_sc_hd__fa_1
* cell instance $6445 m0 *1 798.1,13.6
X$6445 48 119 48 29 95 29 sky130_fd_sc_hd__inv_1
* cell instance $6447 m0 *1 800.4,13.6
X$6447 48 66 48 29 94 29 sky130_fd_sc_hd__inv_1
* cell instance $6453 m0 *1 804.08,13.6
X$6453 48 68 40 89 48 29 29 sky130_fd_sc_hd__and2_0
* cell instance $6455 r0 *1 805,8.16
X$6455 29 78 88 69 79 87 48 48 29 sky130_fd_sc_hd__fa_1
* cell instance $6456 m0 *1 806.38,13.6
X$6456 48 88 48 29 121 29 sky130_fd_sc_hd__inv_1
* cell instance $6458 m0 *1 808.22,13.6
X$6458 29 123 118 122 120 80 48 48 29 sky130_fd_sc_hd__fa_1
* cell instance $6459 r0 *1 812.36,8.16
X$6459 48 102 40 79 48 29 29 sky130_fd_sc_hd__and2_0
* cell instance $6462 m0 *1 815.58,13.6
X$6462 48 68 67 80 48 29 29 sky130_fd_sc_hd__and2_0
* cell instance $6465 m0 *1 818.34,13.6
X$6465 48 70 44 71 39 29 114 48 29 sky130_fd_sc_hd__nor4_1
* cell instance $6467 m0 *1 820.64,13.6
X$6467 48 71 29 103 48 29 sky130_fd_sc_hd__clkbuf_4
* cell instance $7827 r0 *1 742.44,13.6
X$7827 29 140 138 139 82 104 48 48 29 sky130_fd_sc_hd__fa_1
* cell instance $7836 r0 *1 749.8,13.6
X$7836 29 139 177 150 137 48 48 29 sky130_fd_sc_hd__ha_1
* cell instance $7838 m0 *1 753.94,19.04
X$7838 48 153 48 29 151 29 sky130_fd_sc_hd__inv_1
* cell instance $7841 m0 *1 758.54,19.04
X$7841 29 154 110 156 198 141 48 48 29 sky130_fd_sc_hd__fa_1
* cell instance $7844 r0 *1 761.3,13.6
X$7844 48 136 48 29 135 29 sky130_fd_sc_hd__inv_1
* cell instance $7846 r0 *1 763.14,13.6
X$7846 29 52 73 134 56 48 48 29 sky130_fd_sc_hd__ha_1
* cell instance $7847 m0 *1 765.9,19.04
X$7847 48 157 48 29 158 29 sky130_fd_sc_hd__inv_1
* cell instance $7849 r0 *1 767.74,13.6
X$7849 48 109 48 29 111 29 sky130_fd_sc_hd__inv_1
* cell instance $7851 r0 *1 770.04,13.6
X$7851 48 133 48 29 112 29 sky130_fd_sc_hd__inv_1
* cell instance $7854 m0 *1 772.8,19.04
X$7854 48 161 48 29 159 29 sky130_fd_sc_hd__inv_1
* cell instance $7862 r0 *1 776.48,13.6
X$7862 29 161 131 132 115 59 48 48 29 sky130_fd_sc_hd__fa_1
* cell instance $7867 r0 *1 786.6,13.6
X$7867 48 75 48 29 130 29 sky130_fd_sc_hd__inv_1
* cell instance $7872 r0 *1 789.82,13.6
X$7872 48 37 29 101 48 29 sky130_fd_sc_hd__buf_2
* cell instance $7876 m0 *1 792.58,19.04
X$7876 48 129 67 166 48 29 29 sky130_fd_sc_hd__nand2_1
* cell instance $7877 r0 *1 793.5,13.6
X$7877 48 77 103 62 48 29 29 sky130_fd_sc_hd__nand2_1
* cell instance $7879 r0 *1 795.34,13.6
X$7879 29 165 126 128 127 168 48 48 29 sky130_fd_sc_hd__fa_1
* cell instance $7880 m0 *1 796.26,19.04
X$7880 48 77 125 127 48 29 29 sky130_fd_sc_hd__and2_0
* cell instance $7881 m0 *1 798.56,19.04
X$7881 48 129 103 168 48 29 29 sky130_fd_sc_hd__and2_0
* cell instance $7888 r0 *1 802.7,13.6
X$7888 48 92 48 29 124 29 sky130_fd_sc_hd__inv_1
* cell instance $7890 r0 *1 806.38,13.6
X$7890 48 33 103 122 48 29 29 sky130_fd_sc_hd__and2_0
* cell instance $7893 m0 *1 809.6,19.04
X$7893 48 118 48 29 170 29 sky130_fd_sc_hd__inv_1
* cell instance $7902 r0 *1 820.18,13.6
X$7902 48 44 29 125 48 29 sky130_fd_sc_hd__clkbuf_4
* cell instance $7904 m0 *1 820.64,19.04
X$7904 48 145 114 147 48 29 29 sky130_fd_sc_hd__nand2_1
* cell instance $7906 r0 *1 823.86,13.6
X$7906 48 72 29 67 48 29 sky130_fd_sc_hd__clkbuf_4
* cell instance $9267 m0 *1 747.04,24.48
X$9267 29 194 196 177 176 48 48 29 sky130_fd_sc_hd__ha_1
* cell instance $9273 r0 *1 749.34,19.04
X$9273 29 218 224 138 152 151 48 48 29 sky130_fd_sc_hd__fa_1
* cell instance $9279 m0 *1 760.38,24.48
X$9279 48 178 39 198 48 29 29 sky130_fd_sc_hd__and2_0
* cell instance $9282 r0 *1 761.3,19.04
X$9282 29 155 225 135 199 158 48 48 29 sky130_fd_sc_hd__fa_1
* cell instance $9286 m0 *1 765.9,24.48
X$9286 48 143 40 199 48 29 29 sky130_fd_sc_hd__nand2_1
* cell instance $9289 m0 *1 769.12,24.48
X$9289 48 201 48 29 200 29 sky130_fd_sc_hd__inv_1
* cell instance $9290 r0 *1 769.58,19.04
X$9290 29 201 162 160 142 159 48 48 29 sky130_fd_sc_hd__fa_1
* cell instance $9298 m0 *1 776.94,24.48
X$9298 29 231 233 131 163 130 48 48 29 sky130_fd_sc_hd__fa_1
* cell instance $9300 r0 *1 780.16,19.04
X$9300 48 143 67 163 48 29 29 sky130_fd_sc_hd__nand2_1
* cell instance $9303 m0 *1 784.76,24.48
X$9303 29 275 204 235 164 97 48 48 29 sky130_fd_sc_hd__fa_1
* cell instance $9309 r0 *1 790.74,19.04
X$9309 29 164 167 124 165 144 48 48 29 sky130_fd_sc_hd__fa_1
* cell instance $9311 m0 *1 793.04,24.48
X$9311 29 238 197 240 203 242 48 48 29 sky130_fd_sc_hd__fa_1
* cell instance $9313 r0 *1 799.02,19.04
X$9313 29 144 169 121 126 123 48 48 29 sky130_fd_sc_hd__fa_1
* cell instance $9314 m0 *1 800.4,24.48
X$9314 48 169 48 29 202 29 sky130_fd_sc_hd__inv_1
* cell instance $9319 m0 *1 802.24,24.48
X$9319 29 179 195 170 197 248 48 48 29 sky130_fd_sc_hd__fa_1
* cell instance $9322 r0 *1 808.68,19.04
X$9322 48 33 125 246 48 29 29 sky130_fd_sc_hd__and2_0
* cell instance $9323 m0 *1 809.6,24.48
X$9323 48 68 103 193 48 29 29 sky130_fd_sc_hd__and2_0
* cell instance $9326 m0 *1 812.36,24.48
X$9326 48 102 67 249 48 29 29 sky130_fd_sc_hd__and2_0
* cell instance $9331 m0 *1 818.34,24.48
X$9331 48 192 84 180 29 48 29 sky130_fd_sc_hd__nand2b_1
* cell instance $9337 m0 *1 827.54,24.48
X$9337 48 189 188 181 29 48 190 29 sky130_fd_sc_hd__a21oi_1
* cell instance $9338 r0 *1 828,19.04
X$9338 48 190 148 149 29 48 29 sky130_fd_sc_hd__nor2b_1
* cell instance $9343 m0 *1 829.84,24.48
X$9343 48 186 40 48 187 29 29 sky130_fd_sc_hd__xor2_1
* cell instance $9344 r0 *1 830.3,19.04
X$9344 29 148 173 172 174 48 48 29 sky130_fd_sc_hd__ha_1
* cell instance $9346 m0 *1 833.98,24.48
X$9346 29 185 184 183 182 48 48 29 sky130_fd_sc_hd__ha_1
* cell instance $9347 r0 *1 834.9,19.04
X$9347 48 173 149 185 48 171 29 29 sky130_fd_sc_hd__o21ai_0
* cell instance $10694 r0 *1 741.98,24.48
X$10694 29 213 214 194 221 140 48 48 29 sky130_fd_sc_hd__fa_1
* cell instance $10695 m0 *1 741.98,29.92
X$10695 29 270 215 220 196 48 48 29 sky130_fd_sc_hd__ha_1
* cell instance $10697 m0 *1 747.04,29.92
X$10697 29 216 261 214 218 48 48 29 sky130_fd_sc_hd__ha_1
* cell instance $10701 r0 *1 749.34,24.48
X$10701 48 217 48 29 219 29 sky130_fd_sc_hd__inv_1
* cell instance $10703 m0 *1 752.1,29.92
X$10703 29 222 223 205 224 48 48 29 sky130_fd_sc_hd__ha_2
* cell instance $10706 r0 *1 754.4,24.48
X$10706 48 63 39 220 48 29 29 sky130_fd_sc_hd__and2_0
* cell instance $10711 m0 *1 759,29.92
X$10711 48 206 29 33 48 29 sky130_fd_sc_hd__clkbuf_4
* cell instance $10712 r0 *1 759,24.48
X$10712 48 155 48 29 205 29 sky130_fd_sc_hd__inv_1
* cell instance $10719 m0 *1 764.98,29.92
X$10719 29 279 207 226 200 48 48 29 sky130_fd_sc_hd__ha_1
* cell instance $10721 r0 *1 766.82,24.48
X$10721 48 225 48 29 226 29 sky130_fd_sc_hd__inv_1
* cell instance $10723 m0 *1 769.58,29.92
X$10723 29 280 227 229 228 48 48 29 sky130_fd_sc_hd__ha_1
* cell instance $10725 r0 *1 772.34,24.48
X$10725 48 162 48 29 229 29 sky130_fd_sc_hd__inv_1
* cell instance $10726 r0 *1 773.72,24.48
X$10726 48 231 48 29 228 29 sky130_fd_sc_hd__inv_1
* cell instance $10734 r0 *1 776.94,24.48
X$10734 48 63 29 143 48 29 sky130_fd_sc_hd__clkbuf_4
* cell instance $10735 m0 *1 777.4,29.92
X$10735 48 208 48 29 232 29 sky130_fd_sc_hd__inv_1
* cell instance $10737 m0 *1 779.24,29.92
X$10737 48 209 48 29 230 29 sky130_fd_sc_hd__inv_1
* cell instance $10739 m0 *1 780.62,29.92
X$10739 29 208 209 167 237 236 48 48 29 sky130_fd_sc_hd__fa_1
* cell instance $10741 r0 *1 782.46,24.48
X$10741 48 233 48 29 234 29 sky130_fd_sc_hd__inv_1
* cell instance $10743 r0 *1 784.76,24.48
X$10743 48 143 103 235 48 29 29 sky130_fd_sc_hd__and2_0
* cell instance $10745 m0 *1 787.98,29.92
X$10745 48 210 48 29 236 29 sky130_fd_sc_hd__inv_1
* cell instance $10748 r0 *1 788.9,24.48
X$10748 29 210 239 202 238 179 48 48 29 sky130_fd_sc_hd__fa_1
* cell instance $10749 m0 *1 789.36,29.92
X$10749 48 143 125 237 48 29 29 sky130_fd_sc_hd__nand2_1
* cell instance $10752 m0 *1 793.04,29.92
X$10752 48 101 40 240 48 29 29 sky130_fd_sc_hd__and2_0
* cell instance $10753 m0 *1 795.34,29.92
X$10753 48 129 125 242 48 29 29 sky130_fd_sc_hd__and2_0
* cell instance $10755 r0 *1 797.18,24.48
X$10755 29 241 290 211 243 245 48 48 29 sky130_fd_sc_hd__fa_1
* cell instance $10763 m0 *1 805,29.92
X$10763 48 178 29 102 48 29 sky130_fd_sc_hd__clkbuf_4
* cell instance $10764 r0 *1 806.38,24.48
X$10764 48 195 48 29 211 29 sky130_fd_sc_hd__inv_1
* cell instance $10765 r0 *1 807.76,24.48
X$10765 29 248 252 246 249 193 48 48 29 sky130_fd_sc_hd__fa_1
* cell instance $10768 m0 *1 812.36,29.92
X$10768 48 252 48 29 250 29 sky130_fd_sc_hd__inv_1
* cell instance $10776 r0 *1 821.56,24.48
X$10776 48 191 39 257 48 29 29 sky130_fd_sc_hd__xnor2_1
* cell instance $10777 m0 *1 822.94,29.92
X$10777 48 67 146 255 29 48 29 sky130_fd_sc_hd__nor2_1
* cell instance $10779 r0 *1 824.78,24.48
X$10779 29 258 251 256 257 48 48 29 sky130_fd_sc_hd__ha_1
* cell instance $10780 m0 *1 824.78,29.92
X$10780 48 212 192 186 48 29 29 sky130_fd_sc_hd__nand2_1
* cell instance $10784 r0 *1 829.38,24.48
X$10784 29 188 189 350 187 48 48 29 sky130_fd_sc_hd__ha_1
* cell instance $10786 m0 *1 829.84,29.92
X$10786 48 251 258 247 29 48 253 29 sky130_fd_sc_hd__a21oi_1
* cell instance $10791 r0 *1 836.28,24.48
X$10791 48 171 184 247 29 48 29 sky130_fd_sc_hd__nand2b_1
* cell instance $12138 r0 *1 742.44,29.92
X$12138 29 259 217 270 213 48 48 29 sky130_fd_sc_hd__ha_1
* cell instance $12142 m0 *1 747.04,35.36
X$12142 48 283 282 297 48 29 29 sky130_fd_sc_hd__nand2_1
* cell instance $12143 r0 *1 747.04,29.92
X$12143 48 216 29 260 48 29 sky130_fd_sc_hd__buf_2
* cell instance $12147 m0 *1 748.42,35.36
X$12147 48 217 261 299 29 48 29 sky130_fd_sc_hd__nor2_1
* cell instance $12148 r0 *1 748.88,29.92
X$12148 48 260 259 261 48 29 355 29 sky130_fd_sc_hd__o21ai_1
* cell instance $12149 m0 *1 749.8,35.36
X$12149 48 222 207 223 29 48 298 29 sky130_fd_sc_hd__a21o_1
* cell instance $12151 r0 *1 751.18,29.92
X$12151 48 260 223 261 29 48 262 29 sky130_fd_sc_hd__a21o_1
* cell instance $12152 m0 *1 752.56,35.36
X$12152 48 222 223 207 48 283 29 29 sky130_fd_sc_hd__a21oi_2
* cell instance $12154 r0 *1 755.78,29.92
X$12154 48 259 262 272 48 29 29 sky130_fd_sc_hd__nand2_1
* cell instance $12155 m0 *1 755.78,35.36
X$12155 48 260 222 284 48 29 29 sky130_fd_sc_hd__nand2_1
* cell instance $12158 r0 *1 757.62,29.92
X$12158 48 259 262 273 29 48 29 sky130_fd_sc_hd__nor2_1
* cell instance $12159 m0 *1 758.08,35.36
X$12159 48 284 285 273 48 341 29 29 sky130_fd_sc_hd__o21ai_0
* cell instance $12161 m0 *1 759.92,35.36
X$12161 48 284 285 301 29 48 29 sky130_fd_sc_hd__nor2_1
* cell instance $12166 m0 *1 761.76,35.36
X$12166 48 264 263 273 300 48 29 29 sky130_fd_sc_hd__nand3_1
* cell instance $12168 r0 *1 762.22,29.92
X$12168 48 264 263 276 48 29 29 sky130_fd_sc_hd__nand2_1
* cell instance $12169 m0 *1 763.6,35.36
X$12169 48 263 302 287 48 285 29 29 sky130_fd_sc_hd__o21a_1
* cell instance $12170 r0 *1 763.6,29.92
X$12170 48 279 29 277 48 29 sky130_fd_sc_hd__clkbuf_4
* cell instance $12171 m0 *1 766.36,35.36
X$12171 48 287 263 302 48 29 342 29 sky130_fd_sc_hd__o21ai_1
* cell instance $12172 r0 *1 766.36,29.92
X$12172 48 277 207 227 48 263 29 29 sky130_fd_sc_hd__a21oi_2
* cell instance $12173 m0 *1 768.2,35.36
X$12173 48 227 265 274 29 48 288 29 sky130_fd_sc_hd__a21oi_1
* cell instance $12176 r0 *1 770.5,29.92
X$12176 48 280 29 265 48 29 sky130_fd_sc_hd__buf_2
* cell instance $12177 m0 *1 770.5,35.36
X$12177 48 281 289 274 287 29 48 29 sky130_fd_sc_hd__nor3_1
* cell instance $12186 r0 *1 774.64,29.92
X$12186 29 281 289 232 204 48 48 29 sky130_fd_sc_hd__ha_2
* cell instance $12189 m0 *1 779.7,35.36
X$12189 48 290 48 29 303 29 sky130_fd_sc_hd__inv_1
* cell instance $12190 r0 *1 780.16,29.92
X$12190 29 278 274 275 234 48 48 29 sky130_fd_sc_hd__ha_2
* cell instance $12192 m0 *1 782.92,35.36
X$12192 29 327 291 239 304 305 48 48 29 sky130_fd_sc_hd__fa_1
* cell instance $12197 m0 *1 790.28,35.36
X$12197 48 143 271 304 48 29 29 sky130_fd_sc_hd__nand2_1
* cell instance $12201 r0 *1 793.5,29.92
X$12201 48 77 271 203 48 29 29 sky130_fd_sc_hd__and2_0
* cell instance $12203 r0 *1 795.8,29.92
X$12203 48 129 271 269 48 29 29 sky130_fd_sc_hd__and2_0
* cell instance $12204 m0 *1 796.26,35.36
X$12204 48 241 48 29 305 29 sky130_fd_sc_hd__inv_1
* cell instance $12206 r0 *1 798.1,29.92
X$12206 29 243 268 244 306 269 48 48 29 sky130_fd_sc_hd__fa_1
* cell instance $12207 m0 *1 799.48,35.36
X$12207 48 77 319 306 48 29 29 sky130_fd_sc_hd__and2_0
* cell instance $12215 r0 *1 805.46,29.92
X$12215 29 245 379 250 268 307 48 48 29 sky130_fd_sc_hd__fa_1
* cell instance $12216 m0 *1 805.46,35.36
X$12216 48 33 271 308 48 29 29 sky130_fd_sc_hd__and2_0
* cell instance $12217 m0 *1 807.76,35.36
X$12217 29 307 292 308 267 309 48 48 29 sky130_fd_sc_hd__fa_1
* cell instance $12218 r0 *1 812.82,29.92
X$12218 48 102 103 267 48 29 29 sky130_fd_sc_hd__and2_0
* cell instance $12224 r0 *1 817.42,29.92
X$12224 48 70 29 271 48 29 sky130_fd_sc_hd__buf_2
* cell instance $12226 r0 *1 819.26,29.92
X$12226 48 125 70 452 266 29 48 29 sky130_fd_sc_hd__nor3_1
* cell instance $12228 m0 *1 821.1,35.36
X$12228 48 266 103 312 48 29 29 sky130_fd_sc_hd__xnor2_1
* cell instance $12230 r0 *1 821.56,29.92
X$12230 48 266 103 146 29 48 29 sky130_fd_sc_hd__nand2b_1
* cell instance $12234 m0 *1 827.08,35.36
X$12234 48 294 293 181 29 48 29 sky130_fd_sc_hd__nand2b_1
* cell instance $12240 m0 *1 829.84,35.36
X$12240 29 295 293 311 254 48 48 29 sky130_fd_sc_hd__ha_1
* cell instance $12243 r0 *1 833.52,29.92
X$12243 29 47 183 46 381 48 48 29 sky130_fd_sc_hd__dfrtp_2
* cell instance $12245 m0 *1 835.36,35.36
X$12245 29 47 172 46 310 48 48 29 sky130_fd_sc_hd__dfrtp_2
* cell instance $13587 m0 *1 743.36,40.8
X$13587 48 260 297 353 29 48 29 sky130_fd_sc_hd__nor2_1
* cell instance $13589 m0 *1 744.74,40.8
X$13589 48 215 354 339 48 29 356 29 sky130_fd_sc_hd__o21ai_1
* cell instance $13590 r0 *1 745.2,35.36
X$13590 48 299 48 29 313 29 sky130_fd_sc_hd__inv_1
* cell instance $13593 m0 *1 747.04,40.8
X$13593 29 219 355 283 339 299 282 48 48 29 sky130_fd_sc_hd__a32oi_4
* cell instance $13597 r0 *1 747.5,35.36
X$13597 48 215 313 298 314 29 48 29 sky130_fd_sc_hd__nor3_1
* cell instance $13599 r0 *1 750.26,35.36
X$13599 48 222 277 282 48 29 29 sky130_fd_sc_hd__nand2_1
* cell instance $13601 r0 *1 752.1,35.36
X$13601 48 277 338 337 336 29 48 29 sky130_fd_sc_hd__nor3_1
* cell instance $13603 r0 *1 754.4,35.36
X$13603 48 474 436 335 48 29 29 sky130_fd_sc_hd__nand2_1
* cell instance $13604 r0 *1 755.78,35.36
X$13604 29 29 315 357 340 48 48 sky130_fd_sc_hd__nand2_2
* cell instance $13605 m0 *1 757.16,40.8
X$13605 29 342 358 333 286 276 48 48 29 sky130_fd_sc_hd__o31ai_4
* cell instance $13607 r0 *1 758.54,35.36
X$13607 48 316 288 317 48 29 334 29 sky130_fd_sc_hd__o21ai_1
* cell instance $13609 r0 *1 760.84,35.36
X$13609 29 315 333 286 276 301 259 48 48 29 sky130_fd_sc_hd__o311ai_2
* cell instance $13610 m0 *1 764.98,40.8
X$13610 48 332 29 348 48 29 sky130_fd_sc_hd__buf_2
* cell instance $13611 r0 *1 766.82,35.36
X$13611 48 278 274 277 265 302 48 29 29 sky130_fd_sc_hd__o211ai_1
* cell instance $13612 m0 *1 766.82,40.8
X$13612 48 265 278 316 48 29 29 sky130_fd_sc_hd__nand2_1
* cell instance $13613 m0 *1 768.2,40.8
X$13613 48 345 29 360 48 29 sky130_fd_sc_hd__buf_2
* cell instance $13614 r0 *1 769.58,35.36
X$13614 48 278 274 289 48 264 29 29 sky130_fd_sc_hd__a21oi_2
* cell instance $13615 m0 *1 770.04,40.8
X$13615 48 289 281 318 29 48 317 29 sky130_fd_sc_hd__a21oi_1
* cell instance $13616 m0 *1 771.88,40.8
X$13616 48 347 330 331 29 48 343 29 sky130_fd_sc_hd__a21oi_1
* cell instance $13618 r0 *1 773.26,35.36
X$13618 48 281 278 289 48 29 331 29 sky130_fd_sc_hd__o21ai_1
* cell instance $13624 m0 *1 774.64,40.8
X$13624 48 330 331 346 48 29 29 sky130_fd_sc_hd__nand2_1
* cell instance $13626 r0 *1 775.56,35.36
X$13626 48 274 48 29 330 29 sky130_fd_sc_hd__inv_1
* cell instance $13627 m0 *1 776.02,40.8
X$13627 29 362 468 303 364 363 48 48 29 sky130_fd_sc_hd__fa_1
* cell instance $13628 r0 *1 776.94,35.36
X$13628 29 332 318 230 329 48 48 29 sky130_fd_sc_hd__ha_1
* cell instance $13629 r0 *1 781.54,35.36
X$13629 48 327 48 29 329 29 sky130_fd_sc_hd__inv_1
* cell instance $13633 r0 *1 784.3,35.36
X$13633 48 291 48 29 328 29 sky130_fd_sc_hd__inv_1
* cell instance $13634 m0 *1 784.3,40.8
X$13634 29 411 369 326 365 367 48 48 29 sky130_fd_sc_hd__fa_1
* cell instance $13635 r0 *1 785.68,35.36
X$13635 48 101 67 326 48 29 29 sky130_fd_sc_hd__and2_0
* cell instance $13638 r0 *1 788.9,35.36
X$13638 48 129 319 367 48 29 29 sky130_fd_sc_hd__and2_0
* cell instance $13640 m0 *1 791.66,40.8
X$13640 29 366 371 325 369 372 48 48 29 sky130_fd_sc_hd__fa_1
* cell instance $13651 r0 *1 802.7,35.36
X$13651 48 292 48 29 325 29 sky130_fd_sc_hd__inv_1
* cell instance $13652 r0 *1 804.08,35.36
X$13652 48 102 125 324 48 29 29 sky130_fd_sc_hd__and2_0
* cell instance $13653 m0 *1 804.08,40.8
X$13653 48 33 319 376 48 29 29 sky130_fd_sc_hd__and2_0
* cell instance $13655 m0 *1 806.38,40.8
X$13655 48 68 271 377 48 29 29 sky130_fd_sc_hd__and2_0
* cell instance $13657 r0 *1 808.68,35.36
X$13657 48 68 125 309 48 29 29 sky130_fd_sc_hd__and2_0
* cell instance $13661 m0 *1 810.98,40.8
X$13661 48 379 48 29 380 29 sky130_fd_sc_hd__inv_1
* cell instance $13668 r0 *1 818.34,35.36
X$13668 29 192 103 125 271 323 48 48 29 sky130_fd_sc_hd__nor4_2
* cell instance $13671 m0 *1 821.1,40.8
X$13671 29 384 387 390 322 48 48 29 sky130_fd_sc_hd__ha_1
* cell instance $13672 r0 *1 822.94,35.36
X$13672 48 192 67 322 48 29 29 sky130_fd_sc_hd__xnor2_1
* cell instance $13673 m0 *1 825.7,40.8
X$13673 48 388 384 386 29 48 29 sky130_fd_sc_hd__nor2b_1
* cell instance $13675 r0 *1 826.62,35.36
X$13675 48 387 386 295 48 294 29 29 sky130_fd_sc_hd__o21ai_0
* cell instance $13677 r0 *1 828.46,35.36
X$13677 29 320 296 389 253 48 48 29 sky130_fd_sc_hd__o21bai_4
* cell instance $13685 m0 *1 831.22,40.8
X$13685 48 385 172 378 48 29 29 sky130_fd_sc_hd__xnor2_1
* cell instance $13686 m0 *1 834.44,40.8
X$13686 48 296 382 381 29 48 29 sky130_fd_sc_hd__nor2_1
* cell instance $13687 r0 *1 835.36,35.36
X$13687 48 296 378 310 29 48 29 sky130_fd_sc_hd__nor2_1
* cell instance $13691 m0 *1 837.2,40.8
X$13691 48 320 351 352 29 48 375 29 sky130_fd_sc_hd__a21oi_1
* cell instance $13692 r0 *1 838.58,35.36
X$13692 48 296 374 321 29 48 29 sky130_fd_sc_hd__nor2_1
* cell instance $13696 m0 *1 840.42,40.8
X$13696 48 351 373 370 48 320 29 29 sky130_fd_sc_hd__o21ai_0
* cell instance $13701 r0 *1 843.64,35.36
X$13701 29 47 350 46 321 48 48 29 sky130_fd_sc_hd__dfrtp_1
* cell instance $15034 m0 *1 732.78,46.24
X$15034 29 391 428 426 392 48 48 29 sky130_fd_sc_hd__and3_1
* cell instance $15040 m0 *1 740.6,46.24
X$15040 48 392 401 414 48 29 431 29 sky130_fd_sc_hd__o21ai_1
* cell instance $15042 m0 *1 742.44,46.24
X$15042 29 391 260 298 395 393 394 48 48 29 sky130_fd_sc_hd__o311a_2
* cell instance $15043 r0 *1 742.9,40.8
X$15043 48 353 260 298 29 48 394 29 sky130_fd_sc_hd__a21oi_1
* cell instance $15044 r0 *1 744.74,40.8
X$15044 29 313 354 215 298 334 339 48 48 29 sky130_fd_sc_hd__o311ai_0
* cell instance $15046 m0 *1 747.04,46.24
X$15046 29 277 393 222 260 337 338 48 48 29 sky130_fd_sc_hd__o2111ai_2
* cell instance $15050 r0 *1 747.96,40.8
X$15050 29 339 457 335 215 403 356 48 48 29 sky130_fd_sc_hd__a311oi_4
* cell instance $15051 m0 *1 752.56,46.24
X$15051 29 358 222 404 48 48 29 sky130_fd_sc_hd__xnor2_4
* cell instance $15052 r0 *1 757.62,40.8
X$15052 48 340 315 48 407 29 29 sky130_fd_sc_hd__and2_2
* cell instance $15054 r0 *1 760.84,40.8
X$15054 29 340 333 286 300 272 341 48 48 29 sky130_fd_sc_hd__o311a_1
* cell instance $15055 m0 *1 762.68,46.24
X$15055 48 316 397 416 29 48 29 sky130_fd_sc_hd__nor2_1
* cell instance $15056 m0 *1 764.06,46.24
X$15056 29 343 477 346 486 265 417 48 48 29 sky130_fd_sc_hd__a32oi_4
* cell instance $15058 r0 *1 765.44,40.8
X$15058 48 398 344 359 343 48 396 29 29 sky130_fd_sc_hd__a211o_1
* cell instance $15059 r0 *1 768.66,40.8
X$15059 48 265 346 344 29 48 29 sky130_fd_sc_hd__nor2_1