
* cell jtag_controller
* pin tms
* pin dr_in[4]
* pin dr_out[4]
* pin dr_in[5]
* pin dr_in[6]
* pin dr_out[6]
* pin dr_out[5]
* pin dr_out[7]
* pin dr_in[7]
* pin trst_n
* pin dr_out[8]
* pin dr_in[8]
* pin instruction[1]
* pin dr_out[9]
* pin instruction[2]
* pin dr_in[9]
* pin dr_out[10]
* pin tdo
* pin dr_in[10]
* pin dr_shift_en
* pin dr_out[11]
* pin instruction[0]
* pin tdi
* pin instruction[4]
* pin dr_in[3]
* pin dr_in[11]
* pin dr_out[0]
* pin dr_in[31]
* pin dr_out[3]
* pin instruction[3]
* pin dr_out[31]
* pin dr_in[2]
* pin dr_out[12]
* pin dr_in[12]
* pin dr_in[30]
* pin dr_in[0]
* pin dr_in[26]
* pin dr_out[13]
* pin dr_in[13]
* pin dr_out[30]
* pin dr_out[14]
* pin dr_out[27]
* pin dr_in[25]
* pin dr_in[29]
* pin dr_out[1]
* pin dr_out[15]
* pin dr_in[14]
* pin dr_in[27]
* pin dr_out[29]
* pin dr_in[28]
* pin dr_in[15]
* pin dr_in[16]
* pin dr_out[16]
* pin dr_in[23]
* pin dr_out[17]
* pin dr_in[22]
* pin dr_out[20]
* pin tck
* pin dr_in[19]
* pin dr_in[18]
* pin dr_out[26]
* pin dr_out[21]
* pin dr_out[28]
* pin dr_out[23]
* pin dr_out[25]
* pin dr_in[24]
* pin dr_in[21]
* pin dr_out[22]
* pin update_dr
* pin dr_out[24]
* pin dr_in[20]
* pin dr_out[2]
* pin dr_in[1]
* pin dr_out[19]
* pin dr_out[18]
* pin dr_in[17]
* pin NWELL
* pin PWELL,gf180mcu_gnd
.SUBCKT jtag_controller 1 2 3 4 5 6 7 8 9 28 35 60 69 77 79 94 96 103 123 124
+ 126 137 138 139 150 154 166 167 170 174 175 178 179 189 190 194 196 200 201
+ 204 215 217 218 219 226 238 239 256 257 258 263 272 274 303 309 313 317 331
+ 339 340 341 342 343 344 345 346 347 348 349 350 351 352 353 354 355 356 357
+ 358
* net 1 tms
* net 2 dr_in[4]
* net 3 dr_out[4]
* net 4 dr_in[5]
* net 5 dr_in[6]
* net 6 dr_out[6]
* net 7 dr_out[5]
* net 8 dr_out[7]
* net 9 dr_in[7]
* net 28 trst_n
* net 35 dr_out[8]
* net 60 dr_in[8]
* net 69 instruction[1]
* net 77 dr_out[9]
* net 79 instruction[2]
* net 94 dr_in[9]
* net 96 dr_out[10]
* net 103 tdo
* net 123 dr_in[10]
* net 124 dr_shift_en
* net 126 dr_out[11]
* net 137 instruction[0]
* net 138 tdi
* net 139 instruction[4]
* net 150 dr_in[3]
* net 154 dr_in[11]
* net 166 dr_out[0]
* net 167 dr_in[31]
* net 170 dr_out[3]
* net 174 instruction[3]
* net 175 dr_out[31]
* net 178 dr_in[2]
* net 179 dr_out[12]
* net 189 dr_in[12]
* net 190 dr_in[30]
* net 194 dr_in[0]
* net 196 dr_in[26]
* net 200 dr_out[13]
* net 201 dr_in[13]
* net 204 dr_out[30]
* net 215 dr_out[14]
* net 217 dr_out[27]
* net 218 dr_in[25]
* net 219 dr_in[29]
* net 226 dr_out[1]
* net 238 dr_out[15]
* net 239 dr_in[14]
* net 256 dr_in[27]
* net 257 dr_out[29]
* net 258 dr_in[28]
* net 263 dr_in[15]
* net 272 dr_in[16]
* net 274 dr_out[16]
* net 303 dr_in[23]
* net 309 dr_out[17]
* net 313 dr_in[22]
* net 317 dr_out[20]
* net 331 tck
* net 339 dr_in[19]
* net 340 dr_in[18]
* net 341 dr_out[26]
* net 342 dr_out[21]
* net 343 dr_out[28]
* net 344 dr_out[23]
* net 345 dr_out[25]
* net 346 dr_in[24]
* net 347 dr_in[21]
* net 348 dr_out[22]
* net 349 update_dr
* net 350 dr_out[24]
* net 351 dr_in[20]
* net 352 dr_out[2]
* net 353 dr_in[1]
* net 354 dr_out[19]
* net 355 dr_out[18]
* net 356 dr_in[17]
* net 357 NWELL
* net 358 PWELL,gf180mcu_gnd
* cell instance $3 r0 *1 37.52,5.04
X$3 358 357 1 47 gf180mcu_fd_sc_mcu9t5v0__buf_4
* cell instance $6 r0 *1 81.76,5.04
X$6 2 357 358 19 gf180mcu_fd_sc_mcu9t5v0__dlyb_2
* cell instance $10 r0 *1 102.48,5.04
X$10 10 357 358 3 gf180mcu_fd_sc_mcu9t5v0__dlyb_2
* cell instance $15 r0 *1 111.44,5.04
X$15 4 357 358 20 gf180mcu_fd_sc_mcu9t5v0__dlyb_2
* cell instance $19 r0 *1 128.24,5.04
X$19 5 357 358 18 gf180mcu_fd_sc_mcu9t5v0__dlyb_2
* cell instance $23 r0 *1 119.84,5.04
X$23 15 357 358 6 gf180mcu_fd_sc_mcu9t5v0__dlyb_2
* cell instance $26 r0 *1 137.76,5.04
X$26 16 357 358 7 gf180mcu_fd_sc_mcu9t5v0__dlyb_2
* cell instance $30 r0 *1 146.16,5.04
X$30 17 357 358 8 gf180mcu_fd_sc_mcu9t5v0__dlyb_2
* cell instance $34 m0 *1 140,25.2
X$34 9 357 358 50 gf180mcu_fd_sc_mcu9t5v0__dlyb_2
* cell instance $40 m0 *1 81.76,15.12
X$40 358 22 10 12 13 357 gf180mcu_fd_sc_mcu9t5v0__dffnrnq_2
* cell instance $42 r0 *1 90.16,5.04
X$42 358 357 13 14 11 10 gf180mcu_fd_sc_mcu9t5v0__mux2_2
* cell instance $46 r0 *1 173.04,55.44
X$46 358 357 101 93 11 95 gf180mcu_fd_sc_mcu9t5v0__mux2_2
* cell instance $48 m0 *1 172.48,45.36
X$48 358 357 78 65 11 76 gf180mcu_fd_sc_mcu9t5v0__mux2_2
* cell instance $50 m0 *1 168.56,35.28
X$50 358 357 36 43 11 34 gf180mcu_fd_sc_mcu9t5v0__mux2_2
* cell instance $53 r0 *1 138.88,15.12
X$53 358 357 23 27 11 17 gf180mcu_fd_sc_mcu9t5v0__mux2_2
* cell instance $56 m0 *1 134.4,95.76
X$56 358 357 173 169 11 164 gf180mcu_fd_sc_mcu9t5v0__mux2_2
* cell instance $58 r0 *1 28,95.76
X$58 358 357 184 185 11 186 gf180mcu_fd_sc_mcu9t5v0__mux2_2
* cell instance $61 r0 *1 125.44,15.12
X$61 358 357 29 26 11 16 gf180mcu_fd_sc_mcu9t5v0__mux2_2
* cell instance $64 r0 *1 107.52,15.12
X$64 358 357 21 25 11 15 gf180mcu_fd_sc_mcu9t5v0__mux2_2
* cell instance $67 r0 *1 110.32,85.68
X$67 358 357 162 168 11 163 gf180mcu_fd_sc_mcu9t5v0__mux2_2
* cell instance $71 m0 *1 85.12,85.68
X$71 358 130 11 357 gf180mcu_fd_sc_mcu9t5v0__clkbuf_8
* cell instance $85 m0 *1 39.76,95.76
X$85 358 146 12 159 22 357 gf180mcu_fd_sc_mcu9t5v0__dffnsnq_2
* cell instance $87 m0 *1 56.56,126
X$87 358 22 213 12 235 357 gf180mcu_fd_sc_mcu9t5v0__dffrnq_2
* cell instance $89 m0 *1 78.96,75.6
X$89 358 22 107 12 128 357 gf180mcu_fd_sc_mcu9t5v0__dffrnq_2
* cell instance $91 m0 *1 146.16,126
X$91 358 22 225 12 234 357 gf180mcu_fd_sc_mcu9t5v0__dffrnq_2
* cell instance $93 r0 *1 30.8,136.08
X$93 358 22 222 12 261 357 gf180mcu_fd_sc_mcu9t5v0__dffrnq_2
* cell instance $95 r0 *1 2.24,176.4
X$95 358 12 331 357 gf180mcu_fd_sc_mcu9t5v0__buf_16
* cell instance $97 r0 *1 145.04,95.76
X$97 358 22 165 12 181 357 gf180mcu_fd_sc_mcu9t5v0__dffrnq_2
* cell instance $99 m0 *1 146.72,115.92
X$99 358 22 188 12 203 357 gf180mcu_fd_sc_mcu9t5v0__dffrnq_2
* cell instance $101 m0 *1 156.24,176.4
X$101 358 22 294 12 326 357 gf180mcu_fd_sc_mcu9t5v0__dffrnq_2
* cell instance $103 m0 *1 85.12,166.32
X$103 358 22 305 12 310 357 gf180mcu_fd_sc_mcu9t5v0__dffrnq_2
* cell instance $105 r0 *1 120.4,146.16
X$105 358 22 271 12 287 357 gf180mcu_fd_sc_mcu9t5v0__dffnrnq_2
* cell instance $107 m0 *1 88.48,156.24
X$107 358 22 285 12 279 357 gf180mcu_fd_sc_mcu9t5v0__dffnrnq_2
* cell instance $110 m0 *1 75.04,55.44
X$110 358 22 92 12 83 357 gf180mcu_fd_sc_mcu9t5v0__dffrnq_2
* cell instance $112 m0 *1 59.92,35.28
X$112 358 22 40 12 39 357 gf180mcu_fd_sc_mcu9t5v0__dffrnq_2
* cell instance $115 m0 *1 126,35.28
X$115 358 22 27 12 41 357 gf180mcu_fd_sc_mcu9t5v0__dffrnq_2
* cell instance $118 r0 *1 110.32,136.08
X$118 358 22 254 12 253 357 gf180mcu_fd_sc_mcu9t5v0__dffnrnq_2
* cell instance $122 r0 *1 68.88,176.4
X$122 358 22 334 12 333 357 gf180mcu_fd_sc_mcu9t5v0__dffnrnq_2
* cell instance $124 m0 *1 110.32,126
X$124 358 22 224 12 223 357 gf180mcu_fd_sc_mcu9t5v0__dffrnq_2
* cell instance $126 m0 *1 92.4,176.4
X$126 358 22 325 12 329 357 gf180mcu_fd_sc_mcu9t5v0__dffnrnq_2
* cell instance $129 m0 *1 170.24,95.76
X$129 358 22 171 12 172 357 gf180mcu_fd_sc_mcu9t5v0__dffnrnq_2
* cell instance $131 r0 *1 170.24,75.6
X$131 358 22 125 12 134 357 gf180mcu_fd_sc_mcu9t5v0__dffnrnq_2
* cell instance $133 r0 *1 48.16,146.16
X$133 358 22 276 12 268 357 gf180mcu_fd_sc_mcu9t5v0__dffnrnq_2
* cell instance $136 r0 *1 170.24,166.32
X$136 358 22 308 12 319 357 gf180mcu_fd_sc_mcu9t5v0__dffnrnq_2
* cell instance $139 r0 *1 136.64,156.24
X$139 358 22 293 12 292 357 gf180mcu_fd_sc_mcu9t5v0__dffrnq_2
* cell instance $141 m0 *1 69.44,156.24
X$141 358 22 270 12 277 357 gf180mcu_fd_sc_mcu9t5v0__dffrnq_2
* cell instance $143 m0 *1 56,176.4
X$143 358 22 324 12 323 357 gf180mcu_fd_sc_mcu9t5v0__dffrnq_2
* cell instance $145 m0 *1 75.6,25.2
X$145 358 22 14 12 24 357 gf180mcu_fd_sc_mcu9t5v0__dffrnq_2
* cell instance $147 m0 *1 40.32,85.68
X$147 358 142 12 141 22 357 gf180mcu_fd_sc_mcu9t5v0__dffsnq_2
* cell instance $149 r0 *1 30.24,115.92
X$149 358 22 221 12 227 357 gf180mcu_fd_sc_mcu9t5v0__dffnrnq_2
* cell instance $151 r0 *1 138.88,176.4
X$151 358 22 337 12 318 357 gf180mcu_fd_sc_mcu9t5v0__dffnrnq_2
* cell instance $153 m0 *1 9.52,95.76
X$153 358 22 176 12 158 357 gf180mcu_fd_sc_mcu9t5v0__dffnrnq_2
* cell instance $156 r0 *1 170.24,146.16
X$156 358 22 284 12 273 357 gf180mcu_fd_sc_mcu9t5v0__dffnrnq_2
* cell instance $158 m0 *1 2.24,85.68
X$158 358 22 133 12 145 357 gf180mcu_fd_sc_mcu9t5v0__dffnrnq_2
* cell instance $160 r0 *1 6.72,105.84
X$160 358 22 185 12 197 357 gf180mcu_fd_sc_mcu9t5v0__dffrnq_2
* cell instance $162 m0 *1 101.36,15.12
X$162 358 22 15 12 21 357 gf180mcu_fd_sc_mcu9t5v0__dffnrnq_2
* cell instance $165 m0 *1 136.64,176.4
X$165 358 22 316 12 328 357 gf180mcu_fd_sc_mcu9t5v0__dffnrnq_2
* cell instance $167 m0 *1 147.84,35.28
X$167 358 22 43 12 42 357 gf180mcu_fd_sc_mcu9t5v0__dffrnq_2
* cell instance $170 m0 *1 27.44,75.6
X$170 358 22 129 12 118 357 gf180mcu_fd_sc_mcu9t5v0__dffrnq_2
* cell instance $172 r0 *1 170.24,45.36
X$172 358 22 76 12 78 357 gf180mcu_fd_sc_mcu9t5v0__dffnrnq_2
* cell instance $174 r0 *1 54.88,136.08
X$174 358 22 262 12 248 357 gf180mcu_fd_sc_mcu9t5v0__dffrnq_2
* cell instance $176 r0 *1 72.24,126
X$176 358 22 236 12 231 357 gf180mcu_fd_sc_mcu9t5v0__dffnrnq_2
* cell instance $178 m0 *1 2.24,55.44
X$178 358 22 90 12 86 357 gf180mcu_fd_sc_mcu9t5v0__dffnrnq_2
* cell instance $180 r0 *1 14,55.44
X$180 358 22 70 12 99 357 gf180mcu_fd_sc_mcu9t5v0__dffrnq_2
* cell instance $183 m0 *1 25.2,105.84
X$183 358 22 186 12 184 357 gf180mcu_fd_sc_mcu9t5v0__dffnrnq_2
* cell instance $186 r0 *1 151.2,146.16
X$186 358 22 283 12 281 357 gf180mcu_fd_sc_mcu9t5v0__dffrnq_2
* cell instance $189 r0 *1 2.8,65.52
X$189 358 22 104 12 114 357 gf180mcu_fd_sc_mcu9t5v0__dffrnq_2
* cell instance $191 m0 *1 126.56,15.12
X$191 358 22 17 12 23 357 gf180mcu_fd_sc_mcu9t5v0__dffnrnq_2
* cell instance $194 m0 *1 120.4,25.2
X$194 358 22 16 12 29 357 gf180mcu_fd_sc_mcu9t5v0__dffnrnq_2
* cell instance $197 m0 *1 81.76,95.76
X$197 358 22 168 12 160 357 gf180mcu_fd_sc_mcu9t5v0__dffrnq_2
* cell instance $200 m0 *1 95.76,35.28
X$200 358 22 25 12 45 357 gf180mcu_fd_sc_mcu9t5v0__dffrnq_2
* cell instance $203 r0 *1 11.2,115.92
X$203 358 22 220 12 212 357 gf180mcu_fd_sc_mcu9t5v0__dffrnq_2
* cell instance $206 r0 *1 16.8,146.16
X$206 358 22 266 12 265 357 gf180mcu_fd_sc_mcu9t5v0__dffnrnq_2
* cell instance $208 m0 *1 5.04,166.32
X$208 358 22 300 12 299 357 gf180mcu_fd_sc_mcu9t5v0__dffrnq_2
* cell instance $211 m0 *1 2.24,146.16
X$211 358 22 260 12 259 357 gf180mcu_fd_sc_mcu9t5v0__dffrnq_2
* cell instance $214 r0 *1 110.88,35.28
X$214 358 22 26 12 58 357 gf180mcu_fd_sc_mcu9t5v0__dffrnq_2
* cell instance $216 m0 *1 108.08,156.24
X$216 358 22 291 12 280 357 gf180mcu_fd_sc_mcu9t5v0__dffrnq_2
* cell instance $219 r0 *1 40.88,176.4
X$219 358 22 322 12 332 357 gf180mcu_fd_sc_mcu9t5v0__dffnrnq_2
* cell instance $222 r0 *1 27.44,166.32
X$222 358 22 302 12 301 357 gf180mcu_fd_sc_mcu9t5v0__dffnrnq_2
* cell instance $225 m0 *1 38.64,35.28
X$225 358 22 31 12 44 357 gf180mcu_fd_sc_mcu9t5v0__dffrnq_4
* cell instance $228 m0 *1 12.32,126
X$228 358 22 229 12 233 357 gf180mcu_fd_sc_mcu9t5v0__dffnrnq_2
* cell instance $230 r0 *1 45.36,156.24
X$230 358 22 290 12 295 357 gf180mcu_fd_sc_mcu9t5v0__dffrnq_2
* cell instance $232 r0 *1 160.72,25.2
X$232 358 22 34 12 36 357 gf180mcu_fd_sc_mcu9t5v0__dffnrnq_2
* cell instance $235 m0 *1 21.28,45.36
X$235 358 22 53 12 63 357 gf180mcu_fd_sc_mcu9t5v0__dffrnq_2
* cell instance $237 m0 *1 8.4,35.28
X$237 358 22 46 12 52 357 gf180mcu_fd_sc_mcu9t5v0__dffnrnq_2
* cell instance $239 m0 *1 112,176.4
X$239 358 22 315 12 330 357 gf180mcu_fd_sc_mcu9t5v0__dffrnq_2
* cell instance $242 r0 *1 129.92,115.92
X$242 358 22 214 12 228 357 gf180mcu_fd_sc_mcu9t5v0__dffnrnq_2
* cell instance $245 m0 *1 141.68,85.68
X$245 358 22 132 12 156 357 gf180mcu_fd_sc_mcu9t5v0__dffrnq_2
* cell instance $247 r0 *1 129.36,85.68
X$247 358 22 164 12 173 357 gf180mcu_fd_sc_mcu9t5v0__dffnrnq_2
* cell instance $249 r0 *1 144.48,75.6
X$249 358 22 102 12 148 357 gf180mcu_fd_sc_mcu9t5v0__dffnrnq_2
* cell instance $252 m0 *1 170.24,136.08
X$252 358 22 252 12 251 357 gf180mcu_fd_sc_mcu9t5v0__dffnrnq_2
* cell instance $254 m0 *1 98.56,115.92
X$254 358 22 206 12 198 357 gf180mcu_fd_sc_mcu9t5v0__dffrnq_2
* cell instance $256 m0 *1 151.2,65.52
X$256 358 22 93 12 115 357 gf180mcu_fd_sc_mcu9t5v0__dffrnq_2
* cell instance $258 m0 *1 150.64,55.44
X$258 358 22 65 12 84 357 gf180mcu_fd_sc_mcu9t5v0__dffrnq_2
* cell instance $260 r0 *1 170.24,105.84
X$260 358 22 193 12 192 357 gf180mcu_fd_sc_mcu9t5v0__dffnrnq_2
* cell instance $262 r0 *1 127.12,105.84
X$262 358 22 169 12 199 357 gf180mcu_fd_sc_mcu9t5v0__dffrnq_2
* cell instance $264 m0 *1 170.24,65.52
X$264 358 22 95 12 101 357 gf180mcu_fd_sc_mcu9t5v0__dffnrnq_2
* cell instance $266 m0 *1 107.52,95.76
X$266 358 22 163 12 162 357 gf180mcu_fd_sc_mcu9t5v0__dffnrnq_2
* cell instance $269 r0 *1 170.24,126
X$269 358 22 232 12 241 357 gf180mcu_fd_sc_mcu9t5v0__dffnrnq_2
* cell instance $271 r0 *1 145.6,136.08
X$271 358 22 249 12 255 357 gf180mcu_fd_sc_mcu9t5v0__dffrnq_2
* cell instance $337 r0 *1 90.72,85.68
X$337 358 357 161 14 57 168 gf180mcu_fd_sc_mcu9t5v0__mux2_2
* cell instance $341 m0 *1 87.36,35.28
X$341 358 357 30 26 57 14 gf180mcu_fd_sc_mcu9t5v0__mux2_2
* cell instance $356 r0 *1 128.24,25.2
X$356 358 357 38 18 33 27 gf180mcu_fd_sc_mcu9t5v0__mux2_2
* cell instance $361 r0 *1 79.52,25.2
X$361 358 357 24 19 37 30 gf180mcu_fd_sc_mcu9t5v0__mux2_2
* cell instance $366 r0 *1 111.44,25.2
X$366 358 357 32 20 33 25 gf180mcu_fd_sc_mcu9t5v0__mux2_2
* cell instance $424 m0 *1 155.12,25.2
X$424 358 28 22 357 gf180mcu_fd_sc_mcu9t5v0__buf_20
* cell instance $551 m0 *1 114.8,35.28
X$551 358 357 45 38 49 25 gf180mcu_fd_sc_mcu9t5v0__mux2_2
* cell instance $561 m0 *1 110.88,45.36
X$561 358 357 58 32 49 26 gf180mcu_fd_sc_mcu9t5v0__mux2_2
* cell instance $570 r0 *1 129.92,35.28
X$570 358 357 41 61 49 27 gf180mcu_fd_sc_mcu9t5v0__mux2_2
* cell instance $582 r0 *1 70,55.44
X$582 358 64 357 100 47 31 gf180mcu_fd_sc_mcu9t5v0__aoi21_2
* cell instance $584 r0 *1 52.08,65.52
X$584 358 31 107 48 62 40 357 gf180mcu_fd_sc_mcu9t5v0__and4_4
* cell instance $586 m0 *1 59.36,55.44
X$586 358 357 81 31 40 gf180mcu_fd_sc_mcu9t5v0__nor2_2
* cell instance $588 r0 *1 66.64,35.28
X$588 357 55 56 48 47 31 358 gf180mcu_fd_sc_mcu9t5v0__oai211_2
* cell instance $591 r0 *1 44.8,45.36
X$591 357 64 358 80 31 72 73 gf180mcu_fd_sc_mcu9t5v0__oai22_2
* cell instance $593 m0 *1 52.64,65.52
X$593 357 31 55 358 108 gf180mcu_fd_sc_mcu9t5v0__and2_2
* cell instance $595 r0 *1 62.16,55.44
X$595 358 357 136 64 31 gf180mcu_fd_sc_mcu9t5v0__nor2_2
* cell instance $598 m0 *1 58.8,45.36
X$598 358 357 31 71 gf180mcu_fd_sc_mcu9t5v0__clkinv_3
* cell instance $600 m0 *1 63.28,45.36
X$600 358 47 357 68 31 48 gf180mcu_fd_sc_mcu9t5v0__aoi21_2
* cell instance $610 r0 *1 80.08,156.24
X$610 358 357 297 304 33 270 gf180mcu_fd_sc_mcu9t5v0__mux2_2
* cell instance $612 r0 *1 56.56,126
X$612 358 357 243 244 33 213 gf180mcu_fd_sc_mcu9t5v0__mux2_2
* cell instance $617 m0 *1 14.56,115.92
X$617 358 357 205 208 33 185 gf180mcu_fd_sc_mcu9t5v0__mux2_2
* cell instance $619 m0 *1 10.64,136.08
X$619 358 357 247 237 33 220 gf180mcu_fd_sc_mcu9t5v0__mux2_2
* cell instance $622 r0 *1 10.64,95.76
X$622 358 357 182 157 33 149 gf180mcu_fd_sc_mcu9t5v0__mux2_2
* cell instance $625 r0 *1 105.84,95.76
X$625 358 357 187 180 33 168 gf180mcu_fd_sc_mcu9t5v0__mux2_2
* cell instance $630 m0 *1 120.96,55.44
X$630 358 66 33 357 gf180mcu_fd_sc_mcu9t5v0__clkbuf_8
* cell instance $633 m0 *1 10.64,156.24
X$633 358 357 288 264 33 260 gf180mcu_fd_sc_mcu9t5v0__mux2_2
* cell instance $635 r0 *1 27.44,156.24
X$635 358 357 267 289 33 300 gf180mcu_fd_sc_mcu9t5v0__mux2_2
* cell instance $647 r0 *1 180.32,25.2
X$647 34 357 358 35 gf180mcu_fd_sc_mcu9t5v0__dlyb_2
* cell instance $660 m0 *1 162.96,146.16
X$660 358 357 250 275 37 283 gf180mcu_fd_sc_mcu9t5v0__mux2_2
* cell instance $663 r0 *1 158.48,176.4
X$663 358 357 327 336 37 293 gf180mcu_fd_sc_mcu9t5v0__mux2_2
* cell instance $666 m0 *1 116.48,166.32
X$666 358 357 306 307 37 315 gf180mcu_fd_sc_mcu9t5v0__mux2_2
* cell instance $668 m0 *1 78.96,176.4
X$668 358 357 321 338 37 324 gf180mcu_fd_sc_mcu9t5v0__mux2_2
* cell instance $670 r0 *1 64.96,166.32
X$670 358 357 312 320 37 290 gf180mcu_fd_sc_mcu9t5v0__mux2_2
* cell instance $673 r0 *1 111.44,176.4
X$673 358 357 314 335 37 305 gf180mcu_fd_sc_mcu9t5v0__mux2_2
* cell instance $677 m0 *1 160.72,105.84
X$677 358 357 177 195 37 188 gf180mcu_fd_sc_mcu9t5v0__mux2_2
* cell instance $679 r0 *1 138.88,55.44
X$679 358 66 37 357 gf180mcu_fd_sc_mcu9t5v0__clkbuf_8
* cell instance $681 r0 *1 71.68,105.84
X$681 358 37 131 357 gf180mcu_fd_sc_mcu9t5v0__clkbuf_8
* cell instance $683 r0 *1 161.28,126
X$683 358 357 242 240 37 249 gf180mcu_fd_sc_mcu9t5v0__mux2_2
* cell instance $701 r0 *1 54.88,45.36
X$701 358 89 357 88 39 81 73 gf180mcu_fd_sc_mcu9t5v0__aoi22_2
* cell instance $704 r0 *1 78.4,65.52
X$704 71 357 40 119 358 57 gf180mcu_fd_sc_mcu9t5v0__and3_2
* cell instance $708 m0 *1 57.68,65.52
X$708 40 358 47 357 135 gf180mcu_fd_sc_mcu9t5v0__xor2_2
* cell instance $710 m0 *1 66.08,55.44
X$710 358 40 357 82 91 64 gf180mcu_fd_sc_mcu9t5v0__aoi21_2
* cell instance $712 r0 *1 57.68,35.28
X$712 358 357 40 55 gf180mcu_fd_sc_mcu9t5v0__inv_3
* cell instance $714 m0 *1 70.56,45.36
X$714 357 56 358 75 40 64 68 gf180mcu_fd_sc_mcu9t5v0__oai31_2
* cell instance $724 r0 *1 151.2,35.28
X$724 358 357 42 59 49 43 gf180mcu_fd_sc_mcu9t5v0__mux2_2
* cell instance $731 r0 *1 142.8,35.28
X$731 358 357 61 50 66 43 gf180mcu_fd_sc_mcu9t5v0__mux2_2
* cell instance $738 m0 *1 40.32,45.36
X$738 358 71 357 54 62 72 44 55 gf180mcu_fd_sc_mcu9t5v0__aoi221_2
* cell instance $747 r0 *1 10.64,35.28
X$747 46 357 358 69 gf180mcu_fd_sc_mcu9t5v0__dlyb_2
* cell instance $751 r0 *1 19.04,35.28
X$751 358 357 52 53 62 46 gf180mcu_fd_sc_mcu9t5v0__mux2_2
* cell instance $754 m0 *1 73.92,65.52
X$754 64 357 55 47 358 110 gf180mcu_fd_sc_mcu9t5v0__and3_2
* cell instance $757 r0 *1 67.2,45.36
X$757 357 73 358 82 47 74 55 gf180mcu_fd_sc_mcu9t5v0__oai22_2
* cell instance $759 r0 *1 38.64,45.36
X$759 48 357 71 47 358 67 gf180mcu_fd_sc_mcu9t5v0__and3_2
* cell instance $762 r0 *1 44.24,35.28
X$762 357 47 358 55 54 48 gf180mcu_fd_sc_mcu9t5v0__oai21_2
* cell instance $764 m0 *1 46.48,55.44
X$764 357 47 88 71 98 64 358 gf180mcu_fd_sc_mcu9t5v0__oai211_2
* cell instance $767 r0 *1 56.56,55.44
X$767 358 357 47 91 gf180mcu_fd_sc_mcu9t5v0__clkinv_2
* cell instance $780 r0 *1 38.08,65.52
X$780 358 357 48 73 gf180mcu_fd_sc_mcu9t5v0__inv_3
* cell instance $784 m0 *1 80.08,65.52
X$784 48 358 100 110 357 116 gf180mcu_fd_sc_mcu9t5v0__or3_2
* cell instance $789 r0 *1 63.84,75.6
X$789 64 48 142 108 358 357 147 gf180mcu_fd_sc_mcu9t5v0__and4_2
* cell instance $792 m0 *1 41.44,55.44
X$792 357 48 91 358 80 gf180mcu_fd_sc_mcu9t5v0__and2_2
* cell instance $794 m0 *1 30.24,85.68
X$794 357 48 149 358 140 gf180mcu_fd_sc_mcu9t5v0__and2_2
* cell instance $796 r0 *1 80.64,55.44
X$796 358 357 92 48 gf180mcu_fd_sc_mcu9t5v0__buf_4
* cell instance $810 r0 *1 152.32,45.36
X$810 358 357 84 85 49 65 gf180mcu_fd_sc_mcu9t5v0__mux2_2
* cell instance $816 m0 *1 95.76,55.44
X$816 358 66 57 357 49 gf180mcu_fd_sc_mcu9t5v0__or2_4
* cell instance $820 r0 *1 134.4,65.52
X$820 358 49 111 357 gf180mcu_fd_sc_mcu9t5v0__clkbuf_8
* cell instance $823 m0 *1 100.8,105.84
X$823 358 49 183 357 gf180mcu_fd_sc_mcu9t5v0__clkbuf_8
* cell instance $832 r0 *1 170.8,35.28
X$832 60 357 358 51 gf180mcu_fd_sc_mcu9t5v0__dlyb_2
* cell instance $835 m0 *1 156.24,45.36
X$835 358 357 59 51 66 65 gf180mcu_fd_sc_mcu9t5v0__mux2_2
* cell instance $842 m0 *1 40.88,65.52
X$842 358 73 53 357 106 gf180mcu_fd_sc_mcu9t5v0__or2_2
* cell instance $846 m0 *1 23.52,55.44
X$846 358 357 63 87 105 53 gf180mcu_fd_sc_mcu9t5v0__mux2_2
* cell instance $854 r0 *1 48.72,55.44
X$854 73 358 55 91 357 98 gf180mcu_fd_sc_mcu9t5v0__or3_2
* cell instance $859 m0 *1 52.08,45.36
X$859 64 358 55 67 357 89 gf180mcu_fd_sc_mcu9t5v0__or3_2
* cell instance $865 m0 *1 67.2,65.52
X$865 71 358 55 91 357 109 gf180mcu_fd_sc_mcu9t5v0__or3_2
* cell instance $883 r0 *1 67.2,115.92
X$883 358 357 216 222 57 213 gf180mcu_fd_sc_mcu9t5v0__mux2_2
* cell instance $887 m0 *1 82.88,115.92
X$887 358 357 57 122 gf180mcu_fd_sc_mcu9t5v0__buf_4
* cell instance $904 r0 *1 44.8,85.68
X$904 358 357 159 142 62 146 gf180mcu_fd_sc_mcu9t5v0__mux2_2
* cell instance $906 r0 *1 7.84,45.36
X$906 358 357 86 70 62 90 gf180mcu_fd_sc_mcu9t5v0__mux2_2
* cell instance $908 r0 *1 10.64,75.6
X$908 358 357 145 129 62 133 gf180mcu_fd_sc_mcu9t5v0__mux2_2
* cell instance $910 r0 *1 14.56,85.68
X$910 358 357 158 104 62 176 gf180mcu_fd_sc_mcu9t5v0__mux2_2
* cell instance $929 m0 *1 52.64,75.6
X$929 358 357 107 64 gf180mcu_fd_sc_mcu9t5v0__clkbuf_4
* cell instance $940 r0 *1 47.04,65.52
X$940 357 64 108 358 105 gf180mcu_fd_sc_mcu9t5v0__and2_2
* cell instance $964 r0 *1 157.36,55.44
X$964 358 357 85 97 66 93 gf180mcu_fd_sc_mcu9t5v0__mux2_2
* cell instance $969 r0 *1 89.6,55.44
X$969 81 92 107 358 357 66 gf180mcu_fd_sc_mcu9t5v0__and3_4
* cell instance $987 r0 *1 20.72,45.36
X$987 358 73 70 357 87 gf180mcu_fd_sc_mcu9t5v0__or2_2
* cell instance $990 m0 *1 17.36,65.52
X$990 358 357 99 113 105 70 gf180mcu_fd_sc_mcu9t5v0__mux2_2
* cell instance $1003 r0 *1 77.28,45.36
X$1003 358 75 357 83 74 71 gf180mcu_fd_sc_mcu9t5v0__aoi21_2
* cell instance $1017 m0 *1 21.84,75.6
X$1017 358 73 129 357 117 gf180mcu_fd_sc_mcu9t5v0__or2_2
* cell instance $1025 m0 *1 25.76,65.52
X$1025 358 73 104 357 113 gf180mcu_fd_sc_mcu9t5v0__or2_2
* cell instance $1029 r0 *1 68.88,65.52
X$1029 357 127 128 73 116 109 358 gf180mcu_fd_sc_mcu9t5v0__oai211_2
* cell instance $1049 m0 *1 181.44,45.36
X$1049 76 357 358 77 gf180mcu_fd_sc_mcu9t5v0__dlyb_2
* cell instance $1060 r0 *1 2.24,55.44
X$1060 90 357 358 79 gf180mcu_fd_sc_mcu9t5v0__dlyb_2
* cell instance $1102 m0 *1 64.4,75.6
X$1102 358 135 357 136 127 108 91 gf180mcu_fd_sc_mcu9t5v0__aoi22_2
* cell instance $1113 r0 *1 85.12,65.52
X$1113 358 357 119 107 92 gf180mcu_fd_sc_mcu9t5v0__nor2_2
* cell instance $1124 r0 *1 165.76,65.52
X$1124 358 357 93 112 gf180mcu_fd_sc_mcu9t5v0__clkinv_2
* cell instance $1127 m0 *1 173.04,55.44
X$1127 94 357 358 97 gf180mcu_fd_sc_mcu9t5v0__dlyb_2
* cell instance $1131 m0 *1 181.44,55.44
X$1131 95 357 358 96 gf180mcu_fd_sc_mcu9t5v0__dlyb_2
* cell instance $1153 r0 *1 181.44,55.44
X$1153 102 357 358 103 gf180mcu_fd_sc_mcu9t5v0__dlyb_2
* cell instance $1164 r0 *1 21.84,65.52
X$1164 358 357 114 117 105 104 gf180mcu_fd_sc_mcu9t5v0__mux2_2
* cell instance $1169 r0 *1 42.56,75.6
X$1169 358 357 141 106 105 142 gf180mcu_fd_sc_mcu9t5v0__mux2_2
* cell instance $1173 r0 *1 28.56,75.6
X$1173 358 357 118 140 105 129 gf180mcu_fd_sc_mcu9t5v0__mux2_2
* cell instance $1192 r0 *1 75.6,75.6
X$1192 357 108 119 130 358 gf180mcu_fd_sc_mcu9t5v0__and2_4
* cell instance $1206 r0 *1 114.8,156.24
X$1206 358 357 280 306 111 291 gf180mcu_fd_sc_mcu9t5v0__mux2_2
* cell instance $1208 m0 *1 135.52,156.24
X$1208 357 298 358 111 292 286 gf180mcu_fd_sc_mcu9t5v0__oai21_2
* cell instance $1210 m0 *1 160.72,85.68
X$1210 357 152 358 111 156 144 gf180mcu_fd_sc_mcu9t5v0__oai21_2
* cell instance $1212 m0 *1 153.44,95.76
X$1212 358 357 181 177 111 165 gf180mcu_fd_sc_mcu9t5v0__mux2_2
* cell instance $1215 r0 *1 152.88,126
X$1215 358 357 234 242 111 225 gf180mcu_fd_sc_mcu9t5v0__mux2_2
* cell instance $1217 m0 *1 127.12,115.92
X$1217 357 211 358 111 199 191 gf180mcu_fd_sc_mcu9t5v0__oai21_2
* cell instance $1220 r0 *1 157.92,65.52
X$1220 357 121 358 111 115 112 gf180mcu_fd_sc_mcu9t5v0__oai21_2
* cell instance $1223 r0 *1 113.68,166.32
X$1223 358 357 330 314 111 315 gf180mcu_fd_sc_mcu9t5v0__mux2_2
* cell instance $1225 r0 *1 156.8,166.32
X$1225 358 357 326 327 111 294 gf180mcu_fd_sc_mcu9t5v0__mux2_2
* cell instance $1227 m0 *1 155.12,136.08
X$1227 358 357 255 250 111 249 gf180mcu_fd_sc_mcu9t5v0__mux2_2
* cell instance $1268 r0 *1 169.12,65.52
X$1268 123 357 358 120 gf180mcu_fd_sc_mcu9t5v0__dlyb_2
* cell instance $1271 m0 *1 157.36,75.6
X$1271 358 120 357 131 121 122 132 gf180mcu_fd_sc_mcu9t5v0__aoi22_2
* cell instance $1278 r0 *1 125.44,126
X$1278 358 357 245 206 122 224 gf180mcu_fd_sc_mcu9t5v0__mux2_2
* cell instance $1280 m0 *1 166.88,75.6
X$1280 122 357 358 124 gf180mcu_fd_sc_mcu9t5v0__dlyb_2
* cell instance $1282 r0 *1 80.64,146.16
X$1282 358 357 269 262 122 270 gf180mcu_fd_sc_mcu9t5v0__mux2_2
* cell instance $1284 r0 *1 156.24,85.68
X$1284 358 155 357 131 152 122 165 gf180mcu_fd_sc_mcu9t5v0__aoi22_2
* cell instance $1286 r0 *1 159.6,115.92
X$1286 358 357 207 225 122 188 gf180mcu_fd_sc_mcu9t5v0__mux2_2
* cell instance $1288 r0 *1 124.88,156.24
X$1288 358 311 357 131 298 122 291 gf180mcu_fd_sc_mcu9t5v0__aoi22_2
* cell instance $1291 m0 *1 162.96,156.24
X$1291 358 357 282 294 122 283 gf180mcu_fd_sc_mcu9t5v0__mux2_2
* cell instance $1294 m0 *1 134.96,115.92
X$1294 358 209 357 131 211 122 224 gf180mcu_fd_sc_mcu9t5v0__aoi22_2
* cell instance $1296 r0 *1 126,75.6
X$1296 357 169 122 358 143 gf180mcu_fd_sc_mcu9t5v0__and2_2
* cell instance $1311 r0 *1 181.44,65.52
X$1311 125 357 358 126 gf180mcu_fd_sc_mcu9t5v0__dlyb_2
* cell instance $1313 m0 *1 175.28,75.6
X$1313 358 357 134 132 153 125 gf180mcu_fd_sc_mcu9t5v0__mux2_2
* cell instance $1335 m0 *1 70,186.48
X$1335 358 357 333 324 130 334 gf180mcu_fd_sc_mcu9t5v0__mux2_2
* cell instance $1337 r0 *1 101.92,166.32
X$1337 358 357 329 305 130 325 gf180mcu_fd_sc_mcu9t5v0__mux2_2
* cell instance $1340 r0 *1 123.2,166.32
X$1340 358 357 328 315 130 316 gf180mcu_fd_sc_mcu9t5v0__mux2_2
* cell instance $1346 r0 *1 92.96,126
X$1346 358 357 130 230 gf180mcu_fd_sc_mcu9t5v0__buf_4
* cell instance $1348 m0 *1 127.12,85.68
X$1348 358 130 153 357 gf180mcu_fd_sc_mcu9t5v0__clkbuf_8
* cell instance $1356 m0 *1 154.56,156.24
X$1356 358 357 281 296 131 282 gf180mcu_fd_sc_mcu9t5v0__mux2_2
* cell instance $1358 r0 *1 113.12,126
X$1358 358 357 223 246 131 245 gf180mcu_fd_sc_mcu9t5v0__mux2_2
* cell instance $1360 r0 *1 82.32,85.68
X$1360 358 357 160 151 131 161 gf180mcu_fd_sc_mcu9t5v0__mux2_2
* cell instance $1362 r0 *1 152.88,105.84
X$1362 358 357 203 202 131 207 gf180mcu_fd_sc_mcu9t5v0__mux2_2
* cell instance $1364 r0 *1 58.8,115.92
X$1364 358 357 235 210 131 216 gf180mcu_fd_sc_mcu9t5v0__mux2_2
* cell instance $1366 r0 *1 72.24,146.16
X$1366 358 357 277 278 131 269 gf180mcu_fd_sc_mcu9t5v0__mux2_2
* cell instance $1389 r0 *1 164.08,75.6
X$1389 358 357 132 144 gf180mcu_fd_sc_mcu9t5v0__clkinv_2
* cell instance $1395 m0 *1 10.64,75.6
X$1395 133 357 358 139 gf180mcu_fd_sc_mcu9t5v0__dlyb_2
* cell instance $1411 r0 *1 19.04,75.6
X$1411 146 357 358 137 gf180mcu_fd_sc_mcu9t5v0__dlyb_2
* cell instance $1414 r0 *1 2.24,75.6
X$1414 138 357 358 149 gf180mcu_fd_sc_mcu9t5v0__dlyb_2
* cell instance $1431 r0 *1 131.04,75.6
X$1431 358 143 147 357 148 gf180mcu_fd_sc_mcu9t5v0__or2_2
* cell instance $1460 m0 *1 21.84,85.68
X$1460 150 357 358 151 gf180mcu_fd_sc_mcu9t5v0__dlyb_2
* cell instance $1469 m0 *1 171.92,156.24
X$1469 358 357 273 283 153 284 gf180mcu_fd_sc_mcu9t5v0__mux2_2
* cell instance $1471 m0 *1 173.6,105.84
X$1471 358 357 192 188 153 193 gf180mcu_fd_sc_mcu9t5v0__mux2_2
* cell instance $1473 r0 *1 142.24,166.32
X$1473 358 357 318 293 153 337 gf180mcu_fd_sc_mcu9t5v0__mux2_2
* cell instance $1475 m0 *1 127.12,156.24
X$1475 358 357 287 291 153 271 gf180mcu_fd_sc_mcu9t5v0__mux2_2
* cell instance $1477 m0 *1 161.84,95.76
X$1477 358 357 172 165 153 171 gf180mcu_fd_sc_mcu9t5v0__mux2_2
* cell instance $1479 r0 *1 173.04,136.08
X$1479 358 357 251 249 153 252 gf180mcu_fd_sc_mcu9t5v0__mux2_2
* cell instance $1481 m0 *1 171.92,126
X$1481 358 357 241 225 153 232 gf180mcu_fd_sc_mcu9t5v0__mux2_2
* cell instance $1484 r0 *1 173.6,176.4
X$1484 358 357 319 294 153 308 gf180mcu_fd_sc_mcu9t5v0__mux2_2
* cell instance $1486 m0 *1 135.52,126
X$1486 358 357 228 224 153 214 gf180mcu_fd_sc_mcu9t5v0__mux2_2
* cell instance $1498 m0 *1 181.44,85.68
X$1498 154 357 358 155 gf180mcu_fd_sc_mcu9t5v0__dlyb_2
* cell instance $1510 r0 *1 2.24,85.68
X$1510 167 357 358 157 gf180mcu_fd_sc_mcu9t5v0__dlyb_2
* cell instance $1522 r0 *1 165.2,85.68
X$1522 163 357 358 170 gf180mcu_fd_sc_mcu9t5v0__dlyb_2
* cell instance $1529 r0 *1 173.6,85.68
X$1529 164 357 358 166 gf180mcu_fd_sc_mcu9t5v0__dlyb_2
* cell instance $1560 m0 *1 128.24,105.84
X$1560 358 357 169 191 gf180mcu_fd_sc_mcu9t5v0__clkinv_2
* cell instance $1567 r0 *1 181.44,95.76
X$1567 171 357 358 179 gf180mcu_fd_sc_mcu9t5v0__dlyb_2
* cell instance $1583 r0 *1 2.24,95.76
X$1583 176 357 358 174 gf180mcu_fd_sc_mcu9t5v0__dlyb_2
* cell instance $1586 r0 *1 19.6,95.76
X$1586 186 357 358 175 gf180mcu_fd_sc_mcu9t5v0__dlyb_2
* cell instance $1599 r0 *1 164.64,95.76
X$1599 178 357 358 180 gf180mcu_fd_sc_mcu9t5v0__dlyb_2
* cell instance $1612 m0 *1 7.84,105.84
X$1612 358 357 197 182 183 185 gf180mcu_fd_sc_mcu9t5v0__mux2_2
* cell instance $1615 r0 *1 101.92,105.84
X$1615 358 357 198 187 183 206 gf180mcu_fd_sc_mcu9t5v0__mux2_2
* cell instance $1617 m0 *1 57.68,136.08
X$1617 358 357 248 243 183 262 gf180mcu_fd_sc_mcu9t5v0__mux2_2
* cell instance $1620 r0 *1 64.4,156.24
X$1620 358 357 295 297 183 290 gf180mcu_fd_sc_mcu9t5v0__mux2_2
* cell instance $1622 m0 *1 31.92,146.16
X$1622 358 357 261 267 183 222 gf180mcu_fd_sc_mcu9t5v0__mux2_2
* cell instance $1625 r0 *1 6.16,146.16
X$1625 358 357 259 247 183 260 gf180mcu_fd_sc_mcu9t5v0__mux2_2
* cell instance $1628 r0 *1 90.16,166.32
X$1628 358 357 310 321 183 305 gf180mcu_fd_sc_mcu9t5v0__mux2_2
* cell instance $1631 r0 *1 60.48,176.4
X$1631 358 357 323 312 183 324 gf180mcu_fd_sc_mcu9t5v0__mux2_2
* cell instance $1633 r0 *1 10.64,156.24
X$1633 358 357 299 288 183 300 gf180mcu_fd_sc_mcu9t5v0__mux2_2
* cell instance $1635 r0 *1 10.64,126
X$1635 358 357 212 205 183 220 gf180mcu_fd_sc_mcu9t5v0__mux2_2
* cell instance $1672 r0 *1 161.84,105.84
X$1672 189 357 358 195 gf180mcu_fd_sc_mcu9t5v0__dlyb_2
* cell instance $1675 r0 *1 2.24,115.92
X$1675 190 357 358 208 gf180mcu_fd_sc_mcu9t5v0__dlyb_2
* cell instance $1682 m0 *1 181.44,115.92
X$1682 193 357 358 200 gf180mcu_fd_sc_mcu9t5v0__dlyb_2