
* cell parameterized_freq_divider
* pin duty_cycle[2]
* pin divide_value[12]
* pin divide_value[11]
* pin divide_value[10]
* pin divide_value[9]
* pin duty_cycle[3]
* pin divide_value[2]
* pin divide_value[3]
* pin divide_value[5]
* pin divide_value[7]
* pin duty_cycle[1]
* pin divide_value[6]
* pin divide_value[4]
* pin divide_value[8]
* pin divide_value[0]
* pin divide_value[13]
* pin duty_cycle[0]
* pin divide_value[1]
* pin enable
* pin clk_in
* pin rst_n
* pin PWELL
* pin NWELL
* pin divide_value[14]
* pin duty_cycle[4]
* pin duty_cycle[5]
* pin divide_value[15]
* pin duty_cycle[6]
* pin clk_out
.SUBCKT parameterized_freq_divider 1 2 3 4 5 6 7 8 9 10 11 12 13 14 15 16 17 18
+ 19 20 21 25 44 2885 2886 2887 2888 2889 2890
* net 1 duty_cycle[2]
* net 2 divide_value[12]
* net 3 divide_value[11]
* net 4 divide_value[10]
* net 5 divide_value[9]
* net 6 duty_cycle[3]
* net 7 divide_value[2]
* net 8 divide_value[3]
* net 9 divide_value[5]
* net 10 divide_value[7]
* net 11 duty_cycle[1]
* net 12 divide_value[6]
* net 13 divide_value[4]
* net 14 divide_value[8]
* net 15 divide_value[0]
* net 16 divide_value[13]
* net 17 duty_cycle[0]
* net 18 divide_value[1]
* net 19 enable
* net 20 clk_in
* net 21 rst_n
* net 25 PWELL
* net 44 NWELL
* net 2885 divide_value[14]
* net 2886 duty_cycle[4]
* net 2887 duty_cycle[5]
* net 2888 divide_value[15]
* net 2889 duty_cycle[6]
* net 2890 clk_out
* cell instance $2 r0 *1 356.06,1.4
X$2 1 25 44 22 BUF_X2
* cell instance $8 r0 *1 358.34,1.4
X$8 2 25 44 34 BUF_X2
* cell instance $14 r0 *1 361.57,1.4
X$14 3 25 44 26 CLKBUF_X3
* cell instance $20 r0 *1 367.84,1.4
X$20 4 25 44 32 CLKBUF_X3
* cell instance $26 r0 *1 370.12,1.4
X$26 5 25 44 23 CLKBUF_X3
* cell instance $32 r0 *1 377.34,1.4
X$32 6 25 44 38 BUF_X2
* cell instance $38 m0 *1 400.33,4.2
X$38 7 25 44 186 CLKBUF_X3
* cell instance $44 r0 *1 400.9,1.4
X$44 8 25 44 24 CLKBUF_X3
* cell instance $50 m0 *1 401.47,4.2
X$50 9 25 44 48 CLKBUF_X3
* cell instance $57 r0 *1 399.57,1.4
X$57 10 44 39 25 BUF_X4
* cell instance $63 r0 *1 398.81,1.4
X$63 11 25 44 42 BUF_X2
* cell instance $68 r0 *1 402.8,1.4
X$68 12 25 44 40 CLKBUF_X3
* cell instance $74 r0 *1 403.94,1.4
X$74 13 25 44 90 BUF_X1
* cell instance $80 r0 *1 404.7,1.4
X$80 14 25 44 49 BUF_X1
* cell instance $86 r0 *1 408.31,1.4
X$86 15 25 44 201 BUF_X2
* cell instance $93 r0 *1 405.27,1.4
X$93 16 25 44 31 BUF_X1
* cell instance $99 r0 *1 406.22,1.4
X$99 17 25 44 27 CLKBUF_X3
* cell instance $105 r0 *1 409.07,1.4
X$105 18 25 44 28 BUF_X2
* cell instance $110 r0 *1 413.82,1.4
X$110 19 25 44 29 BUF_X1
* cell instance $120 r0 *1 421.23,1.4
X$120 20 44 30 25 BUF_X4
* cell instance $122 r0 *1 423.51,1.4
X$122 25 43 44 21 BUF_X8
* cell instance $135 m0 *1 383.99,12.6
X$135 22 24 44 25 222 AND2_X1
* cell instance $137 m0 *1 383.61,4.2
X$137 22 25 44 35 BUF_X2
* cell instance $141 r0 *1 336.49,9.8
X$141 22 60 44 25 183 AND2_X1
* cell instance $145 r0 *1 392.16,21
X$145 22 301 44 25 535 AND2_X1
* cell instance $148 m0 *1 334.4,21
X$148 22 189 44 25 381 AND2_X1
* cell instance $150 r0 *1 334.78,15.4
X$150 22 158 44 25 293 AND2_X1
* cell instance $153 r0 *1 386.65,21
X$153 467 38 22 25 44 443 OR3_X1
* cell instance $155 r0 *1 389.5,21
X$155 22 186 44 25 442 AND2_X1
* cell instance $178 m0 *1 351.69,4.2
X$178 36 23 44 25 99 AND2_X1
* cell instance $180 m0 *1 388.36,4.2
X$180 49 23 25 44 50 NOR2_X1
* cell instance $182 m0 *1 387.98,12.6
X$182 23 254 44 25 250 XNOR2_X1
* cell instance $184 m0 *1 385.7,7
X$184 32 23 41 176 25 44 151 OR4_X1
* cell instance $187 r0 *1 348.65,9.8
X$187 23 123 25 44 199 NAND2_X1
* cell instance $189 m0 *1 348.46,21
X$189 323 23 44 25 407 AND2_X1
* cell instance $192 r0 *1 364.8,7
X$192 33 23 44 25 178 AND2_X1
* cell instance $194 m0 *1 352.45,15.4
X$194 167 23 44 25 214 AND2_X1
* cell instance $196 m0 *1 369.93,21
X$196 213 23 44 25 368 AND2_X1
* cell instance $199 m0 *1 364.99,4.2
X$199 35 23 44 25 64 AND2_X1
* cell instance $217 m0 *1 401.47,26.6
X$217 24 534 44 25 500 XNOR2_X1
* cell instance $220 m0 *1 392.16,26.6
X$220 24 213 25 44 618 NAND2_X1
* cell instance $223 r0 *1 381.33,4.2
X$223 38 24 44 25 121 AND2_X1
* cell instance $225 m0 *1 398.62,18.2
X$225 24 186 25 44 265 OR2_X1
* cell instance $227 m0 *1 375.25,26.6
X$227 513 24 44 25 533 AND2_X1
* cell instance $230 r0 *1 378.67,9.8
X$230 167 24 44 25 182 AND2_X1
* cell instance $233 m0 *1 374.49,9.8
X$233 123 24 44 25 180 AND2_X1
* cell instance $235 r0 *1 388.55,21
X$235 42 24 44 25 466 AND2_X1
* cell instance $236 m0 *1 381.52,107.8
X$236 2791 2347 2346 44 2810 25 NOR3_X2
* cell instance $238 m0 *1 382.85,107.8
X$238 2346 2347 2791 25 44 2808 OR3_X2
* cell instance $241 m0 *1 387.79,107.8
X$241 2751 2776 25 44 2562 OR2_X1
* cell instance $244 m0 *1 390.83,107.8
X$244 2562 2593 25 44 2812 NAND2_X1
* cell instance $246 m0 *1 391.59,107.8
X$246 2751 2593 25 44 2813 OR2_X1
* cell instance $249 r0 *1 381.33,107.8
X$249 764 2294 2808 44 2806 25 OAI21_X1
* cell instance $251 r0 *1 382.47,107.8
X$251 25 2593 2810 1884 2811 44 AOI21_X4
* cell instance $254 r0 *1 385.51,107.8
X$254 25 2808 2776 764 2793 2294 44 OAI211_X4
* cell instance $258 r0 *1 391.21,107.8
X$258 2812 2813 2792 44 25 2779 OAI21_X2
* cell instance $259 r0 *1 392.54,107.8
X$259 2793 44 2307 25 BUF_X4
* cell instance $260 m0 *1 395.2,107.8
X$260 25 2814 2815 2582 2752 2785 44 AOI22_X4
* cell instance $261 m0 *1 393.49,107.8
X$261 2422 2015 2307 2592 25 2785 44 NAND4_X2
* cell instance $264 m0 *1 399.38,107.8
X$264 757 2331 25 44 2773 NAND2_X2
* cell instance $270 r0 *1 395.2,107.8
X$270 2685 2369 2423 44 25 2815 OAI21_X2
* cell instance $271 r0 *1 396.53,107.8
X$271 2793 25 44 2348 INV_X4
* cell instance $274 r0 *1 398.05,107.8
X$274 2348 2331 2754 25 44 NOR2_X4
* cell instance $275 r0 *1 399.76,107.8
X$275 2754 2832 25 44 2753 NAND2_X1
* cell instance $277 r0 *1 400.71,107.8
X$277 2307 2685 25 44 2816 NAND2_X2
* cell instance $278 m0 *1 402.04,107.8
X$278 25 2794 2816 2773 2771 2689 44 OAI22_X4
* cell instance $279 m0 *1 401.47,107.8
X$279 2816 2755 25 44 2729 NOR2_X1
* cell instance $280 m0 *1 405.27,107.8
X$280 2794 2685 25 44 2795 NOR2_X1
* cell instance $282 r0 *1 401.66,107.8
X$282 2422 2755 25 44 2794 XNOR2_X2
* cell instance $283 r0 *1 403.56,107.8
X$283 2773 2689 25 44 2821 NOR2_X2
* cell instance $284 r0 *1 404.51,107.8
X$284 25 2796 2795 2756 2850 2685 44 AOI22_X4
* cell instance $286 m0 *1 406.22,107.8
X$286 2779 2797 25 2486 44 NAND2_X4
* cell instance $287 m0 *1 408.12,107.8
X$287 2797 2779 44 25 2780 AND2_X1
* cell instance $289 m0 *1 409.07,107.8
X$289 2809 2779 25 44 2629 OR2_X1
* cell instance $293 m0 *1 412.3,107.8
X$293 2780 44 2018 25 BUF_X4
* cell instance $296 m0 *1 415.34,107.8
X$296 2758 2757 1951 2771 1364 2019 25 44 OAI221_X2
* cell instance $301 r0 *1 408.31,107.8
X$301 2527 2529 2809 2836 25 2628 44 NAND4_X2
* cell instance $302 r0 *1 410.02,107.8
X$302 2413 2654 25 44 2828 NOR2_X1
* cell instance $305 m0 *1 419.52,107.8
X$305 2761 2000 2021 25 44 2759 NOR3_X1
* cell instance $308 m0 *1 420.47,107.8
X$308 25 2762 2000 2021 1999 44 AOI21_X4
* cell instance $310 m0 *1 423.13,107.8
X$310 2047 2073 25 44 2801 NOR2_X1
* cell instance $312 m0 *1 423.89,107.8
X$312 2782 2801 2734 44 25 2800 OAI21_X2
* cell instance $316 r0 *1 420.85,107.8
X$316 639 2796 2807 44 2799 25 OAI21_X1
* cell instance $317 r0 *1 421.61,107.8
X$317 639 2796 2807 25 44 2798 OR3_X1
* cell instance $318 r0 *1 422.56,107.8
X$318 2798 2799 1364 25 44 2734 NAND3_X2
* cell instance $321 r0 *1 424.46,107.8
X$321 2799 2798 44 25 2563 AND2_X2
* cell instance $324 m0 *1 425.6,107.8
X$324 2800 2019 2763 44 25 2567 OAI21_X4
* cell instance $491 m0 *1 391.02,105
X$491 1625 2591 2623 44 25 2676 OAI21_X2
* cell instance $497 r0 *1 391.02,105
X$497 757 2751 25 44 2777 NOR2_X1
* cell instance $498 r0 *1 391.59,105
X$498 2777 2593 2792 44 25 2228 OAI21_X4
* cell instance $501 r0 *1 395.2,105
X$501 2307 2692 2676 44 25 2814 AND3_X1
* cell instance $503 r0 *1 396.53,105
X$503 2692 2331 2307 25 2752 44 AOI21_X2
* cell instance $505 m0 *1 397.29,105
X$505 2676 2692 1885 25 44 2650 NAND3_X2
* cell instance $511 m0 *1 399.19,105
X$511 2773 2753 2688 2689 2599 2693 44 25 AOI221_X2
* cell instance $515 m0 *1 403.56,105
X$515 2691 2690 1885 44 2748 25 NOR3_X2
* cell instance $516 m0 *1 404.89,105
X$516 2691 2690 25 44 2730 NOR2_X1
* cell instance $517 m0 *1 405.46,105
X$517 2730 2756 1885 44 25 2732 MUX2_X2
* cell instance $520 m0 *1 409.45,105
X$520 25 2757 2486 2086 1952 44 AOI21_X4
* cell instance $523 m0 *1 413.63,105
X$523 2134 2731 2379 2732 2733 2772 44 25 AOI221_X2
* cell instance $524 m0 *1 415.72,105
X$524 25 2732 2733 2153 2731 2134 44 AOI22_X4
* cell instance $527 r0 *1 399,105
X$527 25 2692 2754 2689 2755 2656 44 NAND4_X4
* cell instance $528 r0 *1 402.42,105
X$528 2755 2422 25 44 2778 NOR2_X1
* cell instance $529 r0 *1 402.99,105
X$529 2778 2273 2652 44 25 2784 OAI21_X2
* cell instance $530 r0 *1 404.32,105
X$530 2652 2273 25 44 2796 NOR2_X2
* cell instance $531 r0 *1 405.27,105
X$531 25 2758 2748 1885 2756 44 AOI21_X4
* cell instance $535 r0 *1 411.73,105
X$535 2653 2529 2780 44 2698 25 NOR3_X2
* cell instance $537 r0 *1 413.44,105
X$537 2018 2413 2068 44 25 2733 OAI21_X2
* cell instance $539 r0 *1 414.96,105
X$539 25 2758 2757 2771 2074 1951 44 OAI22_X4
* cell instance $541 r0 *1 418.38,105
X$541 2772 44 2000 25 BUF_X4
* cell instance $543 r0 *1 419.9,105
X$543 2759 2760 25 44 2770 NOR2_X1
* cell instance $545 m0 *1 420.09,105
X$545 2770 2532 25 44 2735 NOR2_X1
* cell instance $546 m0 *1 423.7,105
X$546 2074 2428 2762 44 2747 25 OAI21_X1
* cell instance $547 m0 *1 424.46,105
X$547 2747 2761 44 2736 25 XOR2_X2
* cell instance $550 r0 *1 420.47,105
X$550 2021 2699 25 44 2781 NOR2_X1
* cell instance $552 r0 *1 421.23,105
X$552 2760 2759 2781 25 44 2701 OR3_X1
* cell instance $553 r0 *1 422.18,105
X$553 25 2782 2762 2761 2734 2745 44 NAND4_X4
* cell instance $554 r0 *1 425.6,105
X$554 2761 2762 2763 25 44 2764 OR3_X2
* cell instance $556 m0 *1 430.16,105
X$556 2745 2764 44 25 2661 AND2_X2
* cell instance $557 m0 *1 428.07,105
X$557 1948 1949 2043 2764 2745 2710 44 25 AOI221_X2
* cell instance $563 r0 *1 429.21,105
X$563 2764 2745 25 2658 44 NAND2_X4
* cell instance $567 r0 *1 435.1,105
X$567 2704 2658 2735 25 44 2766 OR3_X1
* cell instance $568 m0 *1 435.86,105
X$568 2704 44 2539 25 BUF_X4
* cell instance $569 m0 *1 435.29,105
X$569 2043 2658 25 44 2703 NAND2_X1
* cell instance $572 m0 *1 438.14,105
X$572 25 2539 2740 2661 2538 2606 44 OAI211_X4
* cell instance $574 m0 *1 442.89,105
X$574 2631 2567 2737 44 25 2765 AND3_X1
* cell instance $575 m0 *1 443.84,105
X$575 2736 2539 25 44 2737 NOR2_X1
* cell instance $576 m0 *1 444.41,105
X$576 2567 2631 25 44 2738 NAND2_X1
* cell instance $579 r0 *1 436.43,105
X$579 2735 2704 2658 44 25 1562 OAI21_X2
* cell instance $580 r0 *1 437.76,105
X$580 2766 1562 25 44 2239 NAND2_X2
* cell instance $585 r0 *1 444.41,105
X$585 2239 2765 2736 2738 2202 44 25 AOI211_X2
* cell instance $587 m0 *1 445.36,105
X$587 2737 2738 2736 25 44 2319 MUX2_X1
* cell instance $746 m0 *1 419.33,40.6
X$746 921 922 923 25 44 935 NOR3_X1
* cell instance $747 m0 *1 418.76,40.6
X$747 881 940 25 44 880 NOR2_X1
* cell instance $749 m0 *1 420.28,40.6
X$749 935 923 921 25 917 44 AOI21_X2
* cell instance $750 m0 *1 421.61,40.6
X$750 924 919 917 25 848 44 AOI21_X1
* cell instance $751 m0 *1 422.37,40.6
X$751 969 924 917 930 44 25 814 AND4_X1
* cell instance $752 m0 *1 423.51,40.6
X$752 927 882 44 25 926 XNOR2_X1
* cell instance $753 m0 *1 424.65,40.6
X$753 992 25 44 927 INV_X1
* cell instance $754 m0 *1 425.03,40.6
X$754 927 880 25 44 884 NOR2_X1
* cell instance $755 m0 *1 425.6,40.6
X$755 883 884 929 25 44 930 MUX2_X1
* cell instance $812 m0 *1 388.93,40.6
X$812 781 874 948 44 25 949 HA_X1
* cell instance $815 m0 *1 393.3,40.6
X$815 950 887 1257 44 25 913 HA_X1
* cell instance $819 m0 *1 407.55,40.6
X$819 944 879 916 25 44 841 NAND3_X1
* cell instance $820 m0 *1 408.31,40.6
X$820 879 916 842 25 44 813 NAND3_X1
* cell instance $822 m0 *1 409.26,40.6
X$822 944 879 916 842 25 44 943 NAND4_X1
* cell instance $825 m0 *1 411.16,40.6
X$825 924 917 943 44 25 844 AND3_X1
* cell instance $826 m0 *1 412.11,40.6
X$826 917 25 44 817 INV_X1
* cell instance $831 r0 *1 389.12,40.6
X$831 948 913 949 863 25 44 789 AOI211_X4
* cell instance $835 r0 *1 401.85,40.6
X$835 915 971 44 25 945 XNOR2_X1
* cell instance $838 r0 *1 403.94,40.6
X$838 967 878 915 25 44 983 OR3_X1
* cell instance $839 r0 *1 404.89,40.6
X$839 878 44 981 25 BUF_X4
* cell instance $841 r0 *1 406.6,40.6
X$841 944 947 945 25 812 44 AOI21_X2
* cell instance $844 r0 *1 414.2,40.6
X$844 968 918 25 44 842 OR2_X1
* cell instance $845 r0 *1 414.96,40.6
X$845 918 968 25 44 919 NOR2_X1
* cell instance $846 m0 *1 417.62,40.6
X$846 940 939 25 44 921 OR2_X1
* cell instance $847 m0 *1 415.15,40.6
X$847 922 940 881 44 25 878 OAI21_X4
* cell instance $851 r0 *1 416.48,40.6
X$851 920 967 25 44 939 NOR2_X1
* cell instance $855 r0 *1 418.38,40.6
X$855 939 989 25 44 881 OR2_X1
* cell instance $859 r0 *1 423.13,40.6
X$859 925 880 926 25 44 924 MUX2_X1
* cell instance $862 r0 *1 426.17,40.6
X$862 928 883 25 44 929 NAND2_X1
* cell instance $976 m0 *1 332.31,23.8
X$976 431 25 44 430 INV_X1
* cell instance $981 m0 *1 335.16,23.8
X$981 432 25 44 486 INV_X1
* cell instance $984 m0 *1 337.82,23.8
X$984 467 34 44 25 433 AND2_X1
* cell instance $987 m0 *1 346.18,23.8
X$987 434 25 44 435 INV_X1
* cell instance $992 r0 *1 332.31,23.8
X$992 467 60 44 25 504 AND2_X1
* cell instance $997 r0 *1 338.2,23.8
X$997 25 485 523 525 487 486 44 FA_X1
* cell instance $1000 r0 *1 341.43,23.8
X$1000 26 323 25 44 524 NAND2_X1
* cell instance $1002 r0 *1 343.52,23.8
X$1002 468 25 44 506 INV_X1
* cell instance $1005 r0 *1 345.8,23.8
X$1005 435 469 526 44 25 541 HA_X1
* cell instance $1007 m0 *1 350.93,23.8
X$1007 450 408 470 44 25 436 HA_X1
* cell instance $1012 m0 *1 356.82,23.8
X$1012 452 25 44 489 INV_X1
* cell instance $1013 m0 *1 357.2,23.8
X$1013 25 392 490 530 454 437 44 FA_X1
* cell instance $1016 m0 *1 363.47,23.8
X$1016 48 323 25 44 492 NAND2_X1
* cell instance $1023 r0 *1 352.26,23.8
X$1023 470 44 528 25 BUF_X4
* cell instance $1025 r0 *1 356.63,23.8
X$1025 489 490 564 44 25 510 HA_X1
* cell instance $1033 r0 *1 362.52,23.8
X$1033 25 493 471 512 492 472 44 FA_X1
* cell instance $1036 r0 *1 368.79,23.8
X$1036 494 25 44 544 INV_X1
* cell instance $1040 r0 *1 373.35,23.8
X$1040 473 25 44 532 INV_X1
* cell instance $1041 r0 *1 373.73,23.8
X$1041 25 474 568 514 459 220 44 FA_X1
* cell instance $1042 m0 *1 376.01,23.8
X$1042 186 323 25 44 459 NAND2_X1
* cell instance $1047 m0 *1 380.57,23.8
X$1047 25 440 438 463 462 439 44 FA_X1
* cell instance $1048 m0 *1 383.61,23.8
X$1048 25 464 496 441 463 318 44 FA_X1
* cell instance $1050 m0 *1 387.41,23.8
X$1050 25 442 464 515 466 465 44 FA_X1
* cell instance $1059 r0 *1 379.62,23.8
X$1059 25 496 475 476 438 411 44 FA_X1
* cell instance $1060 r0 *1 382.66,23.8
X$1060 467 291 44 25 440 AND2_X1
* cell instance $1064 r0 *1 392.92,23.8
X$1064 42 291 44 25 516 AND2_X1
* cell instance $1068 m0 *1 399.19,23.8
X$1068 47 415 44 25 458 XNOR2_X1
* cell instance $1071 r0 *1 400.71,23.8
X$1071 501 25 44 499 INV_X1
* cell instance $1072 m0 *1 400.9,23.8
X$1072 457 456 416 44 413 25 OAI21_X1
* cell instance $1076 m0 *1 404.89,23.8
X$1076 424 444 451 44 455 25 OAI21_X1
* cell instance $1081 r0 *1 401.09,23.8
X$1081 480 458 501 44 25 457 HA_X1
* cell instance $1082 r0 *1 402.99,23.8
X$1082 499 455 498 25 456 44 AOI21_X1
* cell instance $1083 r0 *1 403.75,23.8
X$1083 478 500 451 44 25 497 HA_X1
* cell instance $1084 r0 *1 405.65,23.8
X$1084 497 25 44 498 INV_X1
* cell instance $1088 r0 *1 410.97,23.8
X$1088 196 57 160 159 25 44 477 NOR4_X1
* cell instance $1090 m0 *1 411.35,23.8
X$1090 229 168 132 54 25 44 495 NOR4_X1
* cell instance $1093 m0 *1 417.05,23.8
X$1093 335 376 44 25 303 AND2_X1
* cell instance $1095 m0 *1 420.85,23.8
X$1095 396 445 44 25 302 AND2_X1
* cell instance $1096 m0 *1 421.61,23.8
X$1096 445 336 25 44 447 NAND2_X1
* cell instance $1100 m0 *1 426.93,23.8
X$1100 446 447 44 25 448 XNOR2_X1
* cell instance $1112 r0 *1 411.92,23.8
X$1112 495 477 491 488 25 44 419 NAND4_X1
* cell instance $1114 r0 *1 415.91,23.8
X$1114 478 25 44 479 BUF_X1
* cell instance $1115 r0 *1 416.48,23.8
X$1115 376 481 479 480 25 44 491 NOR4_X1
* cell instance $1119 r0 *1 419.52,23.8
X$1119 397 25 44 481 BUF_X1
* cell instance $1122 r0 *1 420.66,23.8
X$1122 418 480 479 481 44 25 445 AND4_X1
* cell instance $1124 r0 *1 421.99,23.8
X$1124 336 481 479 25 44 484 NAND3_X1
* cell instance $1126 r0 *1 422.94,23.8
X$1126 482 484 44 25 517 XNOR2_X1
* cell instance $1127 r0 *1 424.08,23.8
X$1127 25 30 483 43 446 396 44 DFFR_X2
* cell instance $1129 r0 *1 428.45,23.8
X$1129 448 195 25 44 483 NOR2_X1
* cell instance $2007 m0 *1 359.67,99.4
X$2007 2553 2573 25 44 2621 NOR2_X1
* cell instance $2010 m0 *1 360.43,99.4
X$2010 2573 2553 25 44 2487 OR2_X1
* cell instance $2013 m0 *1 362.9,99.4
X$2013 2680 2414 2584 44 25 2576 AND3_X1
* cell instance $2017 r0 *1 359.67,99.4
X$2017 2621 2462 44 25 2640 AND2_X1
* cell instance $2022 r0 *1 361.95,99.4
X$2022 2458 25 44 2641 BUF_X2
* cell instance $2023 r0 *1 362.71,99.4
X$2023 2621 2414 25 44 2668 XNOR2_X2
* cell instance $2025 r0 *1 364.99,99.4
X$2025 2641 2487 1842 25 44 2705 NAND3_X1
* cell instance $2028 r0 *1 366.89,99.4
X$2028 2517 1581 25 44 2642 NAND2_X1
* cell instance $2029 m0 *1 367.46,99.4
X$2029 1512 2401 2146 25 2622 44 AOI21_X2
* cell instance $2032 r0 *1 367.46,99.4
X$2032 2517 763 25 44 2643 NAND2_X1
* cell instance $2033 r0 *1 368.03,99.4
X$2033 2622 763 25 44 2644 NOR2_X1
* cell instance $2036 m0 *1 369.17,99.4
X$2036 2146 2585 25 44 2495 XNOR2_X2
* cell instance $2040 m0 *1 390.07,99.4
X$2040 2331 2591 2623 44 25 2597 OAI21_X2
* cell instance $2042 m0 *1 392.16,99.4
X$2042 2549 2649 1625 25 44 2594 NAND3_X2
* cell instance $2044 m0 *1 396.53,99.4
X$2044 2592 2015 2676 2348 25 44 2625 AOI211_X4
* cell instance $2046 m0 *1 399.38,99.4
X$2046 2597 2307 25 44 2598 NOR2_X1
* cell instance $2052 r0 *1 377.15,99.4
X$2052 2588 2343 25 44 2645 NOR2_X2
* cell instance $2056 r0 *1 380.57,99.4
X$2056 2589 2415 25 44 2671 NAND2_X1
* cell instance $2060 r0 *1 384.75,99.4
X$2060 2064 2063 2671 44 2646 25 OAI21_X1
* cell instance $2063 r0 *1 386.08,99.4
X$2063 2017 2065 2586 25 44 2647 NAND3_X1
* cell instance $2067 r0 *1 390.83,99.4
X$2067 2591 2623 2422 25 44 NOR2_X4
* cell instance $2073 r0 *1 398.43,99.4
X$2073 2650 2624 2721 2678 1765 2151 25 44 OAI221_X2
* cell instance $2076 r0 *1 401.66,99.4
X$2076 2349 2381 2595 44 25 2677 AND3_X2
* cell instance $2077 r0 *1 402.8,99.4
X$2077 2595 2381 2349 25 44 2652 NAND3_X2
* cell instance $2081 r0 *1 406.22,99.4
X$2081 25 2627 2626 2675 2486 1765 44 AOI22_X4
* cell instance $2083 m0 *1 406.41,99.4
X$2083 2639 2529 25 44 2600 NAND2_X2
* cell instance $2088 r0 *1 410.78,99.4
X$2088 2639 44 2527 25 BUF_X4
* cell instance $2089 m0 *1 410.97,99.4
X$2089 25 2228 2067 2628 2629 2620 44 NAND4_X4
* cell instance $2092 m0 *1 414.58,99.4
X$2092 2629 2628 2530 25 44 2638 NAND3_X1
* cell instance $2094 r0 *1 412.11,99.4
X$2094 25 2602 2626 2655 2656 44 AOI21_X4
* cell instance $2096 m0 *1 418.19,99.4
X$2096 2603 2530 25 2073 44 NAND2_X4
* cell instance $2097 m0 *1 415.72,99.4
X$2097 25 2603 2620 2602 2601 44 AOI21_X4
* cell instance $2098 m0 *1 419.9,99.4
X$2098 2638 25 44 2604 INV_X1
* cell instance $2103 m0 *1 428.83,99.4
X$2103 1948 1949 25 44 2432 NAND2_X2
* cell instance $2105 r0 *1 417.62,99.4
X$2105 2530 2603 44 25 2672 AND2_X1
* cell instance $2106 r0 *1 418.38,99.4
X$2106 2672 44 2021 25 BUF_X4
* cell instance $2108 r0 *1 419.9,99.4
X$2108 2630 25 44 729 INV_X4
* cell instance $2109 r0 *1 420.85,99.4
X$2109 2630 44 1932 25 BUF_X4
* cell instance $2113 r0 *1 424.65,99.4
X$2113 1932 2734 25 44 2564 OR2_X1
* cell instance $2116 r0 *1 427.12,99.4
X$2116 2379 1932 25 44 2433 XNOR2_X2
* cell instance $2119 r0 *1 429.59,99.4
X$2119 2702 2669 25 44 2277 NAND2_X1
* cell instance $2121 m0 *1 430.16,99.4
X$2121 2563 2433 2503 44 25 2632 AND3_X1
* cell instance $2122 m0 *1 431.11,99.4
X$2122 25 2632 2215 1892 2432 2633 44 AND4_X4
* cell instance $2126 m0 *1 436.05,99.4
X$2126 25 2353 2631 2043 2633 2637 44 NOR4_X4
* cell instance $2128 m0 *1 440.99,99.4
X$2128 25 1893 44 2538 BUF_X8
* cell instance $2130 r0 *1 430.35,99.4
X$2130 2661 2657 2317 44 2669 25 OAI21_X1
* cell instance $2131 r0 *1 431.11,99.4
X$2131 2632 2215 1892 2432 25 44 2657 NAND4_X1
* cell instance $2135 r0 *1 433.39,99.4
X$2135 25 2606 2633 2539 2658 2044 44 NAND4_X4
* cell instance $2137 r0 *1 437.57,99.4
X$2137 2658 2633 2631 44 25 2518 OAI21_X2
* cell instance $2139 r0 *1 439.28,99.4
X$2139 2606 2661 25 44 2170 NOR2_X2
* cell instance $2140 r0 *1 440.23,99.4
X$2140 2660 2567 25 44 2608 NOR2_X1
* cell instance $2142 r0 *1 441.18,99.4
X$2142 2660 2634 2667 25 44 2664 MUX2_X1
* cell instance $2143 r0 *1 442.51,99.4
X$2143 2539 2635 25 44 2667 OR2_X1
* cell instance $2144 r0 *1 443.27,99.4
X$2144 2635 2661 25 44 2662 NOR2_X1
* cell instance $2145 m0 *1 444.03,99.4
X$2145 2635 2567 25 44 2570 NAND2_X1
* cell instance $2196 r0 *1 443.84,99.4
X$2196 2634 2662 2633 2631 2636 25 44 OAI211_X2
* cell instance $2197 r0 *1 445.55,99.4
X$2197 2663 2664 2636 25 44 2512 NAND3_X1
* cell instance $2199 r0 *1 446.69,99.4
X$2199 2636 2664 2663 44 25 2474 AND3_X1
* cell instance $2382 m0 *1 369.74,51.8
X$2382 1209 1020 1208 25 1269 44 NAND3_X4
* cell instance $2383 r0 *1 369.74,51.8
X$2383 1248 1209 1020 1208 25 1357 44 NAND4_X2
* cell instance $2386 r0 *1 372.4,51.8
X$2386 1292 1061 1358 44 1301 25 NOR3_X2
* cell instance $2387 m0 *1 373.92,51.8
X$2387 978 870 1253 1211 1250 25 44 OAI211_X2
* cell instance $2388 m0 *1 372.59,51.8
X$2388 1250 1251 1210 44 25 1270 OAI21_X2
* cell instance $2392 r0 *1 374.49,51.8
X$2392 1253 1211 25 44 1311 NOR2_X2
* cell instance $2393 r0 *1 375.44,51.8
X$2393 25 1211 1152 1271 1112 44 NOR3_X4
* cell instance $2395 m0 *1 377.53,51.8
X$2395 1153 1064 1154 25 44 1248 OR3_X2
* cell instance $2396 m0 *1 378.86,51.8
X$2396 25 1153 1064 1154 1241 44 NOR3_X4
* cell instance $2401 m0 *1 386.08,51.8
X$2401 1158 1212 25 44 1272 XNOR2_X2
* cell instance $2402 m0 *1 384.18,51.8
X$2402 1255 1155 25 44 1425 XNOR2_X2
* cell instance $2406 r0 *1 384.18,51.8
X$2406 25 1361 1273 1301 1295 44 AOI21_X4
* cell instance $2411 m0 *1 390.64,51.8
X$2411 1274 1065 44 25 1114 AND2_X1
* cell instance $2412 r0 *1 390.64,51.8
X$2412 1065 1274 25 44 1273 NAND2_X1
* cell instance $2414 r0 *1 391.59,51.8
X$2414 1273 1213 25 44 1316 NAND2_X1
* cell instance $2415 m0 *1 392.35,51.8
X$2415 1159 1213 1214 25 44 1215 NAND3_X2
* cell instance $2416 m0 *1 391.78,51.8
X$2416 1213 1214 25 44 1157 NAND2_X1
* cell instance $2419 m0 *1 394.44,51.8
X$2419 1213 1159 25 44 1275 XNOR2_X2
* cell instance $2420 m0 *1 394.06,51.8
X$2420 1257 25 44 1213 INV_X1
* cell instance $2425 r0 *1 399,51.8
X$2425 1358 25 44 1317 INV_X2
* cell instance $2427 m0 *1 399,51.8
X$2427 1275 25 44 967 CLKBUF_X3
* cell instance $2429 m0 *1 400.9,51.8
X$2429 981 967 25 44 1276 NOR2_X1
* cell instance $2430 m0 *1 401.47,51.8
X$2430 915 1277 1216 44 1259 25 OAI21_X1
* cell instance $2432 m0 *1 402.42,51.8
X$2432 1217 915 982 25 44 1216 NAND3_X1
* cell instance $2433 m0 *1 403.18,51.8
X$2433 751 1100 25 44 1217 NOR2_X1
* cell instance $2436 r0 *1 401.09,51.8
X$2436 1276 1386 1217 25 1277 44 AOI21_X1
* cell instance $2437 r0 *1 401.85,51.8
X$2437 1217 1276 915 1274 1317 44 25 1069 OAI221_X1
* cell instance $2439 r0 *1 403.37,51.8
X$2439 987 1025 44 25 1279 XNOR2_X1
* cell instance $2440 m0 *1 404.32,51.8
X$2440 1279 751 1100 44 1278 25 NOR3_X2
* cell instance $2445 r0 *1 404.7,51.8
X$2445 1025 981 967 44 1318 25 NOR3_X2
* cell instance $2447 m0 *1 407.74,51.8
X$2447 1366 1025 981 25 44 1219 NOR3_X1
* cell instance $2448 m0 *1 406.79,51.8
X$2448 982 981 1218 25 44 1262 OR3_X1
* cell instance $2451 m0 *1 409.45,51.8
X$2451 1220 1222 1254 25 44 NOR2_X4
* cell instance $2454 m0 *1 412.11,51.8
X$2454 1222 633 25 44 1074 XNOR2_X2
* cell instance $2455 m0 *1 414.01,51.8
X$2455 1300 1162 1299 25 44 1369 MUX2_X1
* cell instance $2456 m0 *1 415.34,51.8
X$2456 1221 1281 1220 25 44 1298 NOR3_X1
* cell instance $2460 r0 *1 409.26,51.8
X$2460 1280 1386 25 44 1366 NOR2_X1
* cell instance $2461 r0 *1 409.83,51.8
X$2461 1280 982 25 44 987 NAND2_X2
* cell instance $2465 r0 *1 413.25,51.8
X$2465 1320 1319 1258 25 44 1075 MUX2_X1
* cell instance $2466 r0 *1 414.58,51.8
X$2466 1074 1321 25 44 1299 NOR2_X1
* cell instance $2469 r0 *1 415.72,51.8
X$2469 1368 1319 1369 25 920 44 AOI21_X2
* cell instance $2470 r0 *1 417.05,51.8
X$2470 1281 1163 1389 44 1362 25 OAI21_X1
* cell instance $2472 m0 *1 419.71,51.8
X$2472 1256 633 1297 25 1221 44 AOI21_X2
* cell instance $2476 m0 *1 421.99,51.8
X$2476 1282 25 44 1297 INV_X1
* cell instance $2479 r0 *1 421.23,51.8
X$2479 1191 25 44 1281 INV_X2
* cell instance $2480 r0 *1 421.8,51.8
X$2480 25 1323 1282 1283 1365 1284 44 OAI22_X4
* cell instance $2481 m0 *1 422.94,51.8
X$2481 1223 1222 25 44 1283 NAND2_X2
* cell instance $2483 m0 *1 423.89,51.8
X$2483 1283 1284 25 44 1256 NOR2_X1
* cell instance $2486 m0 *1 424.84,51.8
X$2486 25 1165 1294 1222 1164 44 AOI21_X4
* cell instance $2488 r0 *1 425.22,51.8
X$2488 1362 1354 44 883 25 XOR2_X2
* cell instance $2490 m0 *1 427.88,51.8
X$2490 1286 25 44 1294 INV_X1
* cell instance $2495 m0 *1 440.61,51.8
X$2495 1228 1227 1229 25 1287 44 AOI21_X2
* cell instance $2499 r0 *1 427.69,51.8
X$2499 1325 25 44 1328 INV_X1
* cell instance $2500 r0 *1 428.07,51.8
X$2500 1285 1328 1119 1286 25 44 1224 AOI22_X1
* cell instance $2501 r0 *1 429.02,51.8
X$2501 1122 1293 1325 25 1284 44 AOI21_X2
* cell instance $2502 r0 *1 430.35,51.8
X$2502 1285 1325 25 44 1356 NOR2_X1
* cell instance $2503 r0 *1 430.92,51.8
X$2503 1286 1119 25 44 1331 NAND2_X1
* cell instance $2507 r0 *1 433.58,51.8
X$2507 1348 1173 44 1293 25 XOR2_X2
* cell instance $2510 r0 *1 439.09,51.8
X$2510 1227 1032 1082 44 25 1345 OAI21_X2
* cell instance $2512 r0 *1 440.61,51.8
X$2512 1229 1227 25 44 1334 NAND2_X1
* cell instance $2513 r0 *1 441.18,51.8
X$2513 1342 1444 1172 25 1337 44 AOI21_X1
* cell instance $2515 m0 *1 444.79,51.8
X$2515 1230 999 725 25 44 1288 NAND3_X1
* cell instance $2517 m0 *1 445.55,51.8
X$2517 25 1032 1228 1290 1128 44 AOI21_X4
* cell instance $2520 m0 *1 454.29,51.8
X$2520 1130 1230 1179 1231 25 44 1232 NAND4_X1
* cell instance $2523 m0 *1 456.19,51.8
X$2523 1230 1130 44 25 1131 XNOR2_X1
* cell instance $2574 r0 *1 444.98,51.8
X$2574 1288 1289 25 44 1342 NAND2_X1
* cell instance $2575 r0 *1 445.55,51.8
X$2575 1288 1289 1089 25 44 1445 NAND3_X1
* cell instance $2578 r0 *1 446.88,51.8
X$2578 725 1174 1340 25 44 1289 OR3_X1
* cell instance $2583 r0 *1 453.34,51.8
X$2583 1179 725 25 44 1338 NOR2_X1
* cell instance $2771 m0 *1 448.21,63
X$2771 1716 1573 25 44 1574 XNOR2_X2
* cell instance $2775 m0 *1 451.82,63
X$2775 1566 1621 25 44 1485 XNOR2_X2
* cell instance $2777 r0 *1 448.02,63
X$2777 1617 1659 1672 25 44 1085 OR3_X2
* cell instance $2780 r0 *1 449.73,63
X$2780 1657 1617 1666 25 1671 44 AOI21_X1
* cell instance $2783 r0 *1 452.39,63
X$2783 1894 1482 1529 25 1621 44 AOI21_X2
* cell instance $2786 m0 *1 454.1,63
X$2786 1563 680 1569 25 44 1666 MUX2_X1
* cell instance $2787 m0 *1 456.19,63
X$2787 1620 1567 1564 1568 1531 1563 44 25 AOI221_X2
* cell instance $2788 m0 *1 458.28,63
X$2788 1565 1527 1618 25 44 1567 NAND3_X1
* cell instance $2791 m0 *1 459.99,63
X$2791 1566 1487 25 44 1619 OR2_X1
* cell instance $2798 r0 *1 456.95,63
X$2798 1717 1395 1333 1490 44 1564 25 NOR4_X2
* cell instance $2799 r0 *1 458.66,63
X$2799 1660 1333 25 44 1530 NOR2_X1
* cell instance $2800 r0 *1 459.23,63
X$2800 1664 25 44 1617 CLKBUF_X3
* cell instance $2802 r0 *1 460.56,63
X$2802 1663 1662 1530 1439 1661 1619 25 44 1664 OAI33_X1
* cell instance $6782 r0 *1 631.75,211.4
X$6782 25 2891 44 598 BUF_X8
* cell instance $19571 m0 *1 809.59,376.6
X$19571 2891 25 44 2890 BUF_X1
* cell instance $29992 m0 *1 363.85,105
X$29992 2144 2358 44 25 2739 AND2_X1
* cell instance $29994 m0 *1 364.8,105
X$29994 25 1842 2739 2802 2666 2144 44 AOI22_X4
* cell instance $30025 r0 *1 368.41,105
X$30025 2666 2726 25 44 2774 OR2_X1
* cell instance $30028 r0 *1 372.4,105
X$30028 2728 1625 25 44 2775 NOR2_X1
* cell instance $30032 r0 *1 375.44,105
X$30032 2749 2728 2725 44 2788 25 OAI21_X1
* cell instance $30035 m0 *1 376.77,105
X$30035 2750 2727 2302 2670 25 2742 44 NAND4_X2
* cell instance $30037 r0 *1 376.96,105
X$30037 2302 2727 2750 2670 44 25 2776 AND4_X2
* cell instance $30038 r0 *1 378.29,105
X$30038 2750 2727 25 44 2751 NAND2_X1
* cell instance $30041 r0 *1 379.81,105
X$30041 2749 2728 2767 44 2783 25 OAI21_X1
* cell instance $30042 m0 *1 380.57,105
X$30042 2728 2586 1884 25 2746 44 AOI21_X1
* cell instance $30049 r0 *1 381.14,105
X$30049 2767 2302 25 44 2768 NAND2_X1
* cell instance $30051 r0 *1 382.47,105
X$30051 2783 2064 2768 44 25 2769 OAI21_X2
* cell instance $30054 m0 *1 386.27,105
X$30054 2586 2714 25 44 2688 XNOR2_X2
* cell instance $30058 r0 *1 387.03,105
X$30058 2715 2769 2591 2623 25 44 2831 NOR4_X1
* cell instance $30060 r0 *1 388.36,105
X$30060 1625 44 2685 25 BUF_X4
* cell instance $30194 m0 *1 366.13,107.8
X$30194 2679 2725 44 25 2803 AND2_X1
* cell instance $30195 m0 *1 366.89,107.8
X$30195 25 2749 2803 2824 2802 2774 44 AOI22_X4
* cell instance $30197 m0 *1 373.16,107.8
X$30197 2725 2586 2775 25 2787 44 AOI21_X1
* cell instance $30226 r0 *1 369.36,107.8
X$30226 2666 764 25 44 2786 NOR2_X1
* cell instance $30227 r0 *1 369.93,107.8
X$30227 2786 2679 2804 2666 2144 2789 44 25 AOI221_X2
* cell instance $30230 r0 *1 372.59,107.8
X$30230 1884 2679 25 44 2804 NOR2_X1
* cell instance $30232 r0 *1 373.35,107.8
X$30232 2725 2679 25 44 2817 NOR2_X1
* cell instance $30234 m0 *1 374.49,107.8
X$30234 2767 2680 25 44 2826 NAND2_X1
* cell instance $30236 m0 *1 375.06,107.8
X$30236 2787 2680 25 44 2791 NAND2_X1
* cell instance $30243 r0 *1 375.25,107.8
X$30243 2787 1884 2818 25 44 2805 MUX2_X1