* CDL Netlist generated by OpenROAD

*.BUSDELIMITER [

.SUBCKT parameterized_freq_divider clk_in clk_out divide_value[0]
+ divide_value[10] divide_value[11] divide_value[12] divide_value[13]
+ divide_value[14] divide_value[15] divide_value[1] divide_value[2]
+ divide_value[3] divide_value[4] divide_value[5] divide_value[6]
+ divide_value[7] divide_value[8] divide_value[9] duty_cycle[0]
+ duty_cycle[1] duty_cycle[2] duty_cycle[3] duty_cycle[4] duty_cycle[5]
+ duty_cycle[6] enable rst_n
X_2834_ _2786_ _1792_ VDD VSS BUF_X2
X_2835_ _2790_ _1793_ VDD VSS BUF_X2
X_2836_ _2789_ _2793_ _1793_ _1794_ VDD VSS AOI21_X1
X_2837_ _1794_ _1795_ VDD VSS INV_X1
X_2838_ _2699_ _1796_ VDD VSS BUF_X4
X_2839_ _2698_ _2701_ _1796_ _1797_ VDD VSS AOI21_X4
X_2840_ _2797_ _1798_ VDD VSS CLKBUF_X3
X_2841_ _2796_ _2694_ _1798_ _1799_ VDD VSS AOI21_X2
X_2842_ _2702_ _1800_ VDD VSS BUF_X4
X_2843_ _1796_ _1800_ _1801_ VDD VSS NAND2_X1
X_2844_ _2706_ _1802_ VDD VSS CLKBUF_X3
X_2845_ _2705_ _2708_ _1802_ _1803_ VDD VSS AOI21_X4
X_2846_ _1797_ _1799_ _1801_ _1803_ _1804_ VDD VSS OAI211_X2
X_2847_ _2794_ _1805_ VDD VSS BUF_X4
X_2848_ _1793_ _1805_ _1806_ VDD VSS NAND2_X1
X_2849_ _2695_ _1807_ VDD VSS BUF_X4
X_2850_ _1798_ _2694_ _1807_ _1808_ VDD VSS OAI21_X2
X_2851_ _2796_ _1809_ VDD VSS INV_X1
X_2852_ _1806_ _1808_ _1809_ _1810_ VDD VSS AOI21_X1
X_2853_ _2715_ _1811_ VDD VSS BUF_X4
X_2854_ _2712_ _1812_ VDD VSS CLKBUF_X3
X_2855_ _2711_ _1811_ _1812_ _1813_ VDD VSS AOI21_X4
X_2856_ _2718_ _1814_ VDD VSS BUF_X2
X_2857_ _2750_ _1815_ VDD VSS BUF_X2
X_2858_ _2719_ _1816_ VDD VSS BUF_X4
X_2859_ _1814_ _1815_ _1816_ _1817_ VDD VSS AOI21_X4
X_2860_ _2744_ _1818_ VDD VSS BUF_X4
X_2861_ _1818_ _2746_ _2747_ _2752_ _1819_ VDD VSS AOI211_X4
X_2862_ _2751_ _1820_ VDD VSS CLKBUF_X3
X_2863_ _2745_ _1821_ VDD VSS BUF_X4
X_2864_ _1820_ _1816_ _1821_ _1818_ _1822_ VDD VSS OAI211_X4
X_2865_ _1813_ _1817_ _1819_ _1822_ _1823_ VDD VSS OAI211_X2
X_2866_ _1796_ _1802_ _1807_ _1800_ _1824_ VDD VSS NAND4_X2
X_2867_ _2709_ _1825_ VDD VSS BUF_X4
X_2868_ _1825_ _1793_ _1805_ _1798_ _1826_ VDD VSS NAND4_X1
X_2869_ _2711_ _1827_ VDD VSS INV_X1
X_2870_ _2716_ _1828_ VDD VSS CLKBUF_X3
X_2871_ _1812_ _1828_ _1811_ _1829_ VDD VSS OAI21_X2
X_2872_ _1824_ _1826_ _1827_ _1829_ _1830_ VDD VSS AOI211_X2
X_2873_ _1795_ _1804_ _1810_ _1823_ _1830_ _1831_ VDD VSS
+ AOI221_X4
X_2874_ _1792_ _1831_ _1832_ VDD VSS XNOR2_X2
X_2875_ _2694_ _2698_ _1807_ _1833_ VDD VSS AOI21_X2
X_2876_ _2701_ _2705_ _1800_ _1834_ VDD VSS AOI21_X4
X_2877_ _1796_ _1807_ _1835_ VDD VSS NAND2_X2
X_2878_ _1833_ _1834_ _1835_ _1836_ VDD VSS OAI21_X4
X_2879_ _1796_ _1802_ _1807_ _1800_ _1837_ VDD VSS AND4_X2
X_2880_ _2708_ _2711_ _1825_ _1838_ VDD VSS AOI21_X4
X_2881_ _1812_ _1825_ _1839_ VDD VSS NAND2_X1
X_2882_ _1811_ _1814_ _1828_ _1840_ VDD VSS AOI21_X2
X_2883_ _1838_ _1839_ _1840_ _1841_ VDD VSS OAI21_X4
X_2884_ _1837_ _1841_ _1842_ VDD VSS AND2_X1
X_2885_ _1818_ _1815_ _1843_ VDD VSS NOR2_X1
X_2886_ _1821_ _1844_ VDD VSS INV_X2
X_2887_ _1843_ _2561_ _1844_ _1845_ VDD VSS OAI21_X4
X_2888_ _1812_ _1828_ _1825_ _1846_ VDD VSS AND3_X2
X_2889_ _1816_ _1847_ VDD VSS INV_X1
X_2890_ _1820_ _1815_ _1848_ VDD VSS NOR2_X2
X_2891_ _1847_ _1848_ _1849_ VDD VSS NOR2_X4
X_2892_ _1845_ _1846_ _1849_ _1850_ VDD VSS AND3_X4
X_2893_ _1836_ _1842_ _1837_ _1850_ _1851_ VDD VSS AOI211_X2
X_2894_ _1798_ _1851_ _1852_ VDD VSS XOR2_X2
X_2895_ _1801_ _1803_ _1853_ VDD VSS OR2_X1
X_2896_ _1813_ _1854_ VDD VSS INV_X1
X_2897_ _1796_ _1800_ _1855_ VDD VSS AND2_X1
X_2898_ _1802_ _1825_ _1854_ _1855_ _1856_ VDD VSS NAND4_X1
X_2899_ _1817_ _1822_ _1819_ _1857_ VDD VSS OAI21_X4
X_2900_ _1802_ _1846_ _1858_ VDD VSS AND2_X2
X_2901_ _1857_ _1855_ _1858_ _1859_ VDD VSS NAND3_X1
X_2902_ _1853_ _1797_ _1856_ _1859_ _1860_ VDD VSS AND4_X2
X_2903_ _1807_ _1860_ _1861_ VDD VSS XOR2_X2
X_2904_ _1802_ _1825_ _1862_ VDD VSS NAND2_X1
X_2905_ _1803_ _1862_ _1813_ _1863_ VDD VSS OAI21_X4
X_2906_ _1863_ _1858_ _1857_ _1864_ VDD VSS AOI21_X4
X_2907_ _1800_ _1864_ _1865_ VDD VSS XNOR2_X2
X_2908_ _1857_ _1846_ _1866_ VDD VSS AND2_X1
X_2909_ _1827_ _1829_ _1867_ VDD VSS AND2_X1
X_2910_ _1867_ _1854_ _1825_ _1868_ VDD VSS MUX2_X2
X_2911_ _1825_ _1854_ _1857_ _1869_ VDD VSS NOR3_X4
X_2912_ _1866_ _1868_ _1869_ _1870_ VDD VSS NOR3_X4
X_2913_ _1802_ _1841_ _1871_ VDD VSS AND2_X1
X_2914_ _1818_ _1815_ _1872_ VDD VSS OR2_X1
X_2915_ _2561_ _1873_ VDD VSS INV_X1
X_2916_ _1872_ _1873_ _1821_ _1874_ VDD VSS AOI21_X4
X_2917_ _1820_ _1815_ _1875_ VDD VSS OR2_X2
X_2918_ _1816_ _1875_ _1876_ VDD VSS NAND2_X2
X_2919_ _1874_ _1876_ _1877_ VDD VSS NOR2_X2
X_2920_ _1802_ _1878_ VDD VSS INV_X1
X_2921_ _1839_ _1840_ _1879_ VDD VSS OR2_X1
X_2922_ _1878_ _1838_ _1879_ _1880_ VDD VSS AND3_X1
X_2923_ _1845_ _1846_ _1849_ _1881_ VDD VSS NAND3_X4
X_2924_ _1871_ _1858_ _1877_ _1880_ _1881_ _1882_ VDD VSS
+ AOI221_X2
X_2925_ _1865_ _1870_ _1882_ _1883_ VDD VSS NAND3_X4
X_2926_ _1812_ _1828_ _1884_ VDD VSS OR2_X1
X_2927_ _1811_ _1884_ _1885_ VDD VSS NOR2_X1
X_2928_ _1812_ _1811_ _1814_ _1886_ VDD VSS NOR3_X2
X_2929_ _1845_ _1849_ _1887_ VDD VSS NAND2_X2
X_2930_ _1829_ _1888_ VDD VSS INV_X1
X_2931_ _1811_ _1814_ _1889_ VDD VSS NOR2_X1
X_2932_ _1889_ _1876_ _1874_ _1890_ VDD VSS OAI21_X1
X_2933_ _1885_ _1886_ _1887_ _1888_ _1890_ _1891_ VDD VSS
+ AOI221_X2
X_2934_ _1891_ _1892_ VDD VSS BUF_X4
X_2935_ _1828_ _1857_ _1893_ VDD VSS XNOR2_X2
X_2936_ _1818_ _1894_ VDD VSS INV_X1
X_2937_ _1819_ _1894_ _1844_ _1895_ VDD VSS AOI21_X4
X_2938_ _1820_ _1895_ _1896_ VDD VSS XNOR2_X2
X_2939_ _1816_ _1845_ _1875_ _1897_ VDD VSS AOI21_X4
X_2940_ _1821_ _2561_ _1898_ VDD VSS XNOR2_X2
X_2941_ _2754_ _1899_ VDD VSS INV_X1
X_2942_ _2562_ _1899_ _1900_ VDD VSS NAND2_X1
X_2943_ _2760_ _1901_ VDD VSS CLKBUF_X3
X_2944_ _2756_ _1902_ VDD VSS CLKBUF_X3
X_2945_ _1901_ _1902_ _1903_ VDD VSS AND2_X1
X_2946_ _1898_ _1900_ _1903_ _1876_ _1874_ _1904_ VDD VSS
+ OAI221_X2
X_2947_ _1893_ _1896_ _1897_ _1904_ _1905_ VDD VSS NOR4_X4
X_2948_ _1892_ _1905_ _1906_ VDD VSS NAND2_X4
X_2949_ _1852_ _1861_ _1883_ _1906_ _1907_ VDD VSS NOR4_X4
X_2950_ _1802_ _1841_ _1908_ VDD VSS NAND2_X2
X_2951_ _1845_ _1849_ _1858_ _1909_ VDD VSS NAND3_X2
X_2952_ _1796_ _1910_ VDD VSS INV_X1
X_2953_ _1910_ _2701_ _2705_ _1911_ VDD VSS NOR3_X1
X_2954_ _1908_ _1909_ _1911_ _1912_ VDD VSS AND3_X1
X_2955_ _1910_ _1800_ _1913_ VDD VSS NAND2_X1
X_2956_ _1913_ _1909_ _1908_ _1914_ VDD VSS AOI21_X2
X_2957_ _1910_ _1800_ _2701_ _1915_ VDD VSS OR3_X1
X_2958_ _1915_ _1834_ _1796_ _1916_ VDD VSS OAI21_X2
X_2959_ _1912_ _1914_ _1916_ _1917_ VDD VSS NOR3_X4
X_2960_ _1796_ _1800_ _1805_ _1918_ VDD VSS NAND3_X1
X_2961_ _1918_ _1808_ _1809_ _1919_ VDD VSS AOI21_X2
X_2962_ _1797_ _1799_ _1920_ VDD VSS NAND2_X1
X_2963_ _1805_ _1920_ _1863_ _1921_ VDD VSS NOR3_X1
X_2964_ _1857_ _1858_ _1922_ VDD VSS NAND2_X1
X_2965_ _1919_ _1921_ _1922_ _1923_ VDD VSS MUX2_X2
X_2966_ _1797_ _1799_ _1808_ _1809_ _1924_ VDD VSS AOI22_X1
X_2967_ _1863_ _1919_ _1924_ _1805_ _1925_ VDD VSS AOI22_X2
X_2968_ _1805_ _1855_ _1926_ VDD VSS OR2_X1
X_2969_ _1809_ _1808_ _1927_ VDD VSS NAND2_X1
X_2970_ _1925_ _1926_ _1920_ _1927_ _1805_ _1928_ VDD VSS
+ OAI221_X2
X_2971_ _1923_ _1928_ _1929_ VDD VSS OR2_X4
X_2972_ _1805_ _1798_ _1930_ VDD VSS AND2_X1
X_2973_ _1793_ _1837_ _1930_ _1931_ VDD VSS NAND3_X2
X_2974_ _1838_ _1879_ _1932_ VDD VSS AND2_X2
X_2975_ _1931_ _1881_ _1932_ _1933_ VDD VSS AOI21_X4
X_2976_ _1793_ _1934_ VDD VSS INV_X1
X_2977_ _2793_ _2796_ _1805_ _1935_ VDD VSS AOI21_X4
X_2978_ _1934_ _1935_ _1936_ VDD VSS NAND2_X1
X_2979_ _1841_ _1850_ _1836_ _1936_ _1937_ VDD VSS NOR4_X4
X_2980_ _1934_ _1824_ _1935_ _1938_ VDD VSS NAND3_X1
X_2981_ _1793_ _1930_ _1939_ VDD VSS NAND2_X1
X_2982_ _1938_ _1939_ _1836_ _1940_ VDD VSS MUX2_X1
X_2983_ _1934_ _1935_ _1941_ VDD VSS OR2_X1
X_2984_ _1805_ _1798_ _1942_ VDD VSS NAND2_X1
X_2985_ _1934_ _1942_ _1935_ _1943_ VDD VSS NAND3_X1
X_2986_ _1940_ _1941_ _1943_ _1944_ VDD VSS NAND3_X2
X_2987_ _1933_ _1937_ _1944_ _1945_ VDD VSS OR3_X4
X_2988_ _1917_ _1929_ _1945_ _1946_ VDD VSS NOR3_X4
X_2989_ _1832_ _1907_ _1946_ _1947_ VDD VSS AOI21_X2
X_2990_ _2773_ _1948_ VDD VSS BUF_X2
X_2991_ _2779_ _1949_ VDD VSS CLKBUF_X2
X_2992_ _1792_ _2785_ _1950_ VDD VSS OR2_X1
X_2993_ _2780_ _1951_ VDD VSS BUF_X2
X_2994_ _1949_ _1950_ _1951_ _1952_ VDD VSS AOI21_X1
X_2995_ _1949_ _2785_ _1951_ _1953_ VDD VSS AOI21_X1
X_2996_ _1952_ _1953_ _1831_ _1954_ VDD VSS MUX2_X2
X_2997_ _1948_ _1954_ _1955_ VDD VSS XOR2_X2
X_2998_ _2764_ _1956_ VDD VSS INV_X1
X_2999_ _2772_ _1957_ VDD VSS INV_X1
X_3000_ _1948_ _1951_ _1949_ _1958_ VDD VSS OAI21_X1
X_3001_ _1956_ _1957_ _1958_ _1959_ VDD VSS AOI21_X1
X_3002_ _2764_ _2772_ _1960_ VDD VSS NOR2_X1
X_3003_ _1951_ _1961_ VDD VSS INV_X1
X_3004_ _2785_ _2789_ _1792_ _1962_ VDD VSS AOI21_X2
X_3005_ _1961_ _1962_ _1963_ VDD VSS NOR2_X2
X_3006_ _1948_ _1949_ _1963_ _1964_ VDD VSS OAI21_X1
X_3007_ _1959_ _1960_ _1964_ _1965_ VDD VSS AOI21_X2
X_3008_ _1837_ _1930_ _1966_ VDD VSS NAND2_X1
X_3009_ _1792_ _1793_ _1967_ VDD VSS NAND2_X2
X_3010_ _2764_ _1958_ _1968_ VDD VSS OR2_X1
X_3011_ _1966_ _1967_ _1968_ _1969_ VDD VSS OR3_X1
X_3012_ _1969_ _1881_ _1932_ _1970_ VDD VSS AOI21_X2
X_3013_ _1967_ _1935_ _1942_ _1971_ VDD VSS AOI21_X1
X_3014_ _1935_ _1833_ _1972_ VDD VSS NAND2_X1
X_3015_ _1835_ _1834_ _1973_ VDD VSS NOR2_X1
X_3016_ _1971_ _1972_ _1973_ _1974_ VDD VSS OAI21_X2
X_3017_ _1974_ _1968_ _1975_ VDD VSS NOR2_X2
X_3018_ _1965_ _1970_ _1975_ _1976_ VDD VSS NOR3_X4
X_3019_ _1966_ _1967_ _1977_ VDD VSS NOR2_X1
X_3020_ _1977_ _1850_ _1841_ _1978_ VDD VSS OAI21_X4
X_3021_ _1962_ _1974_ _1979_ VDD VSS AND2_X2
X_3022_ _1956_ _2772_ _1949_ _1980_ VDD VSS NOR3_X2
X_3023_ _1978_ _1979_ _1980_ _1981_ VDD VSS NAND3_X4
X_3024_ _1955_ _1976_ _1981_ _1982_ VDD VSS AOI21_X4
X_3025_ _1966_ _1967_ _1881_ _1932_ _1983_ VDD VSS AOI211_X2
X_3026_ _1962_ _1974_ _1984_ VDD VSS NAND2_X1
X_3027_ _1951_ _1983_ _1984_ _1985_ VDD VSS NOR3_X4
X_3028_ _1792_ _1831_ _1986_ VDD VSS XOR2_X2
X_3029_ _1963_ _1945_ _1985_ _1986_ _1987_ VDD VSS NOR4_X4
X_3030_ _1987_ _1988_ VDD VSS BUF_X4
X_3031_ _1798_ _1851_ _1989_ VDD VSS XNOR2_X2
X_3032_ _1807_ _1860_ _1990_ VDD VSS XNOR2_X2
X_3033_ _1800_ _1864_ _1991_ VDD VSS XOR2_X2
X_3034_ _1866_ _1868_ _1869_ _1992_ VDD VSS OR3_X4
X_3035_ _1878_ _1838_ _1879_ _1993_ VDD VSS NAND3_X2
X_3036_ _1908_ _1909_ _1993_ _1850_ _1994_ VDD VSS OAI211_X4
X_3037_ _1991_ _1992_ _1994_ _1995_ VDD VSS NOR3_X4
X_3038_ _1886_ _1876_ _1874_ _1996_ VDD VSS OAI21_X1
X_3039_ _1811_ _1814_ _1997_ VDD VSS OR2_X1
X_3040_ _1997_ _1849_ _1845_ _1998_ VDD VSS AOI21_X1
X_3041_ _1996_ _1884_ _1811_ _1829_ _1998_ _1999_ VDD VSS
+ OAI221_X2
X_3042_ _1820_ _1895_ _2000_ VDD VSS XOR2_X2
X_3043_ _1847_ _1874_ _1848_ _2001_ VDD VSS OAI21_X2
X_3044_ _2692_ _1902_ _2757_ _2002_ VDD VSS NAND3_X4
X_3045_ _2562_ _1899_ _2002_ _2003_ VDD VSS NAND3_X2
X_3046_ _1898_ _2003_ _2004_ VDD VSS AND2_X2
X_3047_ _1887_ _2000_ _2001_ _2004_ _2005_ VDD VSS NAND4_X4
X_3048_ _1999_ _1893_ _2005_ _2006_ VDD VSS NOR3_X4
X_3049_ _1989_ _1990_ _1995_ _2006_ _2007_ VDD VSS NAND4_X2
X_3050_ _2007_ _2008_ VDD VSS BUF_X4
X_3051_ _1982_ _1988_ _2008_ _2009_ VDD VSS NAND3_X2
X_3052_ _1893_ _1896_ _1897_ _1904_ _2010_ VDD VSS OR4_X2
X_3053_ _1999_ _2010_ _2011_ VDD VSS NOR2_X2
X_3054_ _1989_ _1990_ _1995_ _2011_ _2012_ VDD VSS NAND4_X4
X_3055_ _1912_ _1914_ _1916_ _2013_ VDD VSS OR3_X1
X_3056_ _2013_ _2014_ VDD VSS BUF_X4
X_3057_ _1923_ _1928_ _2015_ VDD VSS NOR2_X4
X_3058_ _1933_ _1937_ _1944_ _2016_ VDD VSS NOR3_X4
X_3059_ _2014_ _2015_ _2016_ _2017_ VDD VSS NAND3_X4
X_3060_ _1986_ _2012_ _2017_ _2018_ VDD VSS NOR3_X2
X_3061_ _1947_ _2009_ _2018_ _2019_ VDD VSS AOI21_X4
X_3062_ _2014_ _2015_ _2020_ VDD VSS NAND2_X4
X_3063_ _2016_ _2008_ _2020_ _2021_ VDD VSS OAI21_X4
X_3064_ _1917_ _1929_ _2022_ VDD VSS NOR2_X4
X_3065_ _1828_ _1857_ _2023_ VDD VSS XOR2_X2
X_3066_ _1887_ _2000_ _2001_ _2004_ _2024_ VDD VSS AND4_X2
X_3067_ _1892_ _2023_ _2024_ _2025_ VDD VSS NAND3_X4
X_3068_ _1852_ _1861_ _1883_ _2025_ _2026_ VDD VSS NOR4_X4
X_3069_ _2022_ _1945_ _2026_ _2027_ VDD VSS NAND3_X4
X_3070_ _2021_ _2027_ _2028_ VDD VSS AND2_X2
X_3071_ _2014_ _1990_ _1995_ _2006_ _2029_ VDD VSS NAND4_X4
X_3072_ _1989_ _2029_ _2030_ VDD VSS XNOR2_X2
X_3073_ _2014_ _1995_ _2011_ _2031_ VDD VSS NAND3_X2
X_3074_ _1990_ _2031_ _2032_ VDD VSS XNOR2_X2
X_3075_ _1870_ _1882_ _1892_ _1905_ _2033_ VDD VSS NAND4_X4
X_3076_ _2014_ _1865_ _2034_ VDD VSS NOR2_X2
X_3077_ _1893_ _2005_ _2035_ VDD VSS NOR2_X2
X_3078_ _2035_ _2025_ _1917_ _2036_ VDD VSS MUX2_X1
X_3079_ _1991_ _2033_ _2037_ VDD VSS NOR2_X1
X_3080_ _2033_ _2034_ _2036_ _2037_ _2038_ VDD VSS AOI22_X4
X_3081_ _1877_ _1897_ _2039_ VDD VSS NOR2_X2
X_3082_ _2000_ _2004_ _2040_ VDD VSS NAND2_X2
X_3083_ _2039_ _2040_ _2041_ VDD VSS XNOR2_X2
X_3084_ _2758_ _2042_ VDD VSS INV_X2
X_3085_ _1901_ _2042_ _2043_ VDD VSS OR2_X1
X_3086_ _2043_ _2044_ VDD VSS BUF_X4
X_3087_ _1899_ _2002_ _2045_ VDD VSS XNOR2_X2
X_3088_ _2044_ _2045_ _2046_ VDD VSS NOR2_X2
X_3089_ _1898_ _2003_ _2047_ VDD VSS XNOR2_X2
X_3090_ _2046_ _2047_ _2048_ VDD VSS NAND2_X4
X_3091_ _1898_ _1900_ _1903_ _2049_ VDD VSS OAI21_X1
X_3092_ _2049_ _2000_ _2050_ VDD VSS XNOR2_X2
X_3093_ _1901_ _1902_ _2051_ VDD VSS NAND2_X1
X_3094_ _1899_ _2051_ _2052_ VDD VSS NAND2_X1
X_3095_ _2562_ _2052_ _2053_ VDD VSS XNOR2_X2
X_3096_ _1901_ _1902_ _2054_ VDD VSS NOR2_X4
X_3097_ _2053_ _2054_ _1903_ _2055_ VDD VSS OAI21_X2
X_3098_ _2041_ _2048_ _2050_ _2055_ _2056_ VDD VSS NOR4_X4
X_3099_ _1992_ _1994_ _1999_ _2010_ _2057_ VDD VSS OAI211_X2
X_3100_ _1994_ _2024_ _2058_ VDD VSS XNOR2_X1
X_3101_ _1870_ _1892_ _1905_ _2059_ VDD VSS NAND3_X1
X_3102_ _2057_ _2058_ _2059_ _2060_ VDD VSS OAI21_X2
X_3103_ _1896_ _1897_ _1904_ _2061_ VDD VSS NOR3_X4
X_3104_ _1999_ _2023_ _2061_ _2005_ _2062_ VDD VSS NAND4_X1
X_3105_ _1999_ _1893_ _2063_ VDD VSS NAND2_X1
X_3106_ _2062_ _2063_ _2061_ _1906_ _2005_ _2064_ VDD VSS
+ OAI221_X2
X_3107_ _2056_ _2060_ _2064_ _2065_ VDD VSS NAND3_X2
X_3108_ _2030_ _2032_ _2038_ _2065_ _2066_ VDD VSS NOR4_X4
X_3109_ _1852_ _1861_ _1883_ _1906_ _2067_ VDD VSS NOR4_X4
X_3110_ _2014_ _2067_ _2068_ VDD VSS NAND2_X2
X_3111_ _1929_ _2068_ _2069_ VDD VSS XNOR2_X2
X_3112_ _2028_ _2066_ _2069_ _2070_ VDD VSS AOI21_X4
X_3113_ _1961_ _1978_ _1979_ _2071_ VDD VSS AOI21_X4
X_3114_ _1945_ _1986_ _2071_ _1985_ _2072_ VDD VSS OAI211_X2
X_3115_ _2072_ _2026_ _2022_ _2073_ VDD VSS AOI21_X2
X_3116_ _1933_ _1937_ _1944_ _1832_ _2074_ VDD VSS NOR4_X1
X_3117_ _2074_ _2071_ _1985_ _2075_ VDD VSS OAI21_X1
X_3118_ _2020_ _2007_ _2067_ _2075_ _2076_ VDD VSS NOR4_X2
X_3119_ _2073_ _2076_ _2077_ VDD VSS NOR2_X1
X_3120_ _2008_ _2017_ _2078_ VDD VSS NOR2_X2
X_3121_ _1985_ _1986_ _2071_ _2079_ VDD VSS NOR3_X1
X_3122_ _2067_ _2079_ _2080_ VDD VSS AND2_X1
X_3123_ _1982_ _1987_ _2081_ VDD VSS NAND2_X2
X_3124_ _2078_ _2080_ _2081_ _2082_ VDD VSS NAND3_X2
X_3125_ _1852_ _1861_ _1883_ _2083_ VDD VSS NOR3_X2
X_3126_ _1906_ _2025_ _2084_ VDD VSS NAND2_X1
X_3127_ _2022_ _1988_ _2083_ _2084_ _2085_ VDD VSS NAND4_X4
X_3128_ _1982_ _2085_ _2086_ VDD VSS AND2_X2
X_3129_ _2022_ _1988_ _2087_ VDD VSS NAND2_X2
X_3130_ _1965_ _1970_ _1975_ _2088_ VDD VSS OR3_X2
X_3131_ _1978_ _1979_ _1980_ _2089_ VDD VSS AND3_X1
X_3132_ _2088_ _2089_ _2090_ VDD VSS NOR2_X4
X_3133_ _1955_ _2006_ _2091_ VDD VSS NOR2_X1
X_3134_ _2090_ _2091_ _2012_ _2092_ VDD VSS OR3_X1
X_3135_ _1948_ _1954_ _2093_ VDD VSS XNOR2_X2
X_3136_ _1896_ _1897_ _1904_ _2094_ VDD VSS OR3_X2
X_3137_ _1892_ _2023_ _2094_ _2024_ _2095_ VDD VSS NAND4_X2
X_3138_ _1852_ _1861_ _1883_ _2095_ _2096_ VDD VSS NOR4_X2
X_3139_ _2093_ _2090_ _2096_ _2097_ VDD VSS NAND3_X2
X_3140_ _2087_ _2092_ _2097_ _2098_ VDD VSS AOI21_X4
X_3141_ _2077_ _2082_ _2086_ _2098_ _2099_ VDD VSS OAI211_X4
X_3142_ _2099_ _2100_ VDD VSS BUF_X4
X_3143_ _2019_ _2070_ _2100_ _2101_ VDD VSS OAI21_X2
X_3144_ _2073_ _2076_ _2102_ VDD VSS OR2_X2
X_3145_ _2078_ _2080_ _2081_ _2103_ VDD VSS AND3_X2
X_3146_ _1982_ _2085_ _2104_ VDD VSS NAND2_X2
X_3147_ _2022_ _1988_ _2105_ VDD VSS AND2_X1
X_3148_ _2090_ _2091_ _2012_ _2106_ VDD VSS NOR3_X1
X_3149_ _2093_ _2090_ _2096_ _2107_ VDD VSS AND3_X1
X_3150_ _2105_ _2106_ _2107_ _2108_ VDD VSS OAI21_X2
X_3151_ _2102_ _2103_ _2104_ _2108_ _2109_ VDD VSS AOI211_X2
X_3152_ _2109_ _2110_ VDD VSS BUF_X4
X_3153_ _2110_ _2111_ VDD VSS BUF_X4
X_3154_ _1986_ _2012_ _2017_ _2112_ VDD VSS OAI21_X2
X_3155_ _1982_ _1988_ _2008_ _2113_ VDD VSS AND3_X2
X_3156_ _1832_ _2067_ _1946_ _2114_ VDD VSS NAND3_X2
X_3157_ _2112_ _2113_ _2114_ _2115_ VDD VSS OAI21_X4
X_3158_ _2021_ _2027_ _2116_ VDD VSS NAND2_X4
X_3159_ _1852_ _2029_ _2117_ VDD VSS XNOR2_X2
X_3160_ _1861_ _2031_ _2118_ VDD VSS XNOR2_X2
X_3161_ _1917_ _1991_ _2033_ _2119_ VDD VSS NAND3_X1
X_3162_ _2023_ _2024_ _2120_ VDD VSS NAND2_X1
X_3163_ _2120_ _2006_ _1917_ _2121_ VDD VSS MUX2_X1
X_3164_ _1991_ _2033_ _2122_ VDD VSS OR2_X1
X_3165_ _2119_ _2121_ _2122_ _2123_ VDD VSS OAI21_X2
X_3166_ _2056_ _2060_ _2064_ _2124_ VDD VSS AND3_X1
X_3167_ _2117_ _2118_ _2123_ _2124_ _2125_ VDD VSS NAND4_X2
X_3168_ _2015_ _2068_ _2126_ VDD VSS XNOR2_X2
X_3169_ _2116_ _2125_ _2126_ _2127_ VDD VSS OAI21_X2
X_3170_ _2111_ _2115_ _2127_ _2128_ VDD VSS NAND3_X2
X_3171_ _2101_ _2128_ _2129_ VDD VSS NAND2_X2
X_3172_ _1961_ _1978_ _1979_ _2130_ VDD VSS NAND3_X1
X_3173_ _1951_ _1983_ _1984_ _2131_ VDD VSS OAI21_X1
X_3174_ _2130_ _2131_ _2132_ VDD VSS NAND2_X1
X_3175_ _2026_ _2132_ _1982_ _1907_ _2133_ VDD VSS AOI211_X2
X_3176_ _1917_ _1929_ _1945_ _1986_ _2134_ VDD VSS NOR4_X1
X_3177_ _1832_ _2071_ _1985_ _2135_ VDD VSS OAI21_X1
X_3178_ _1985_ _2071_ _2134_ _2135_ _2017_ _2008_ _2136_ VDD
+ VSS OAI33_X1
X_3179_ _2133_ _2136_ _2137_ VDD VSS NOR2_X2
X_3180_ _2137_ _2115_ _2138_ VDD VSS NAND2_X2
X_3181_ _2069_ _2116_ _2066_ _2139_ VDD VSS NAND3_X4
X_3182_ _2099_ _2138_ _2139_ _2140_ VDD VSS NOR3_X4
X_3183_ _1832_ _2131_ _2130_ _2141_ VDD VSS AOI21_X2
X_3184_ _2141_ _2079_ _1907_ _2142_ VDD VSS MUX2_X1
X_3185_ _2073_ _2142_ _2078_ _2143_ VDD VSS AOI21_X2
X_3186_ _2143_ _1981_ _1976_ _2093_ _1988_ _2144_ VDD VSS
+ AOI221_X2
X_3187_ _2012_ _2008_ _1955_ _2145_ VDD VSS OAI21_X1
X_3188_ _2090_ _2022_ _2145_ _2072_ _2093_ _2146_ VDD VSS
+ AOI221_X2
X_3189_ _2093_ _2090_ _1988_ _2147_ VDD VSS NOR3_X1
X_3190_ _2022_ _2026_ _2148_ VDD VSS NAND2_X1
X_3191_ _2093_ _2090_ _1988_ _2149_ VDD VSS NAND3_X1
X_3192_ _2148_ _2149_ _2150_ VDD VSS OR2_X1
X_3193_ _2150_ _2143_ _2012_ _2151_ VDD VSS AOI21_X1
X_3194_ _2144_ _2146_ _2147_ _2151_ _2152_ VDD VSS OR4_X4
X_3195_ _2140_ _2152_ _2153_ VDD VSS OR2_X2
X_3196_ _2093_ _1976_ _1981_ _2154_ VDD VSS NAND3_X1
X_3197_ _2061_ _2154_ _2008_ _2155_ VDD VSS OR3_X1
X_3198_ _1989_ _1990_ _1995_ _2156_ VDD VSS NAND3_X1
X_3199_ _2093_ _2090_ _2156_ _1906_ _2157_ VDD VSS OR4_X2
X_3200_ _2087_ _2155_ _2157_ _2158_ VDD VSS AOI21_X4
X_3201_ _2133_ _2136_ _2159_ VDD VSS OR2_X4
X_3202_ _2028_ _2158_ _2086_ _2159_ _2019_ _2160_ VDD VSS
+ OAI221_X2
X_3203_ _2020_ _2008_ _2012_ _2081_ _2161_ VDD VSS NOR4_X4
X_3204_ _1995_ _2006_ _2162_ VDD VSS NAND2_X1
X_3205_ _1989_ _1990_ _2094_ _2163_ VDD VSS NAND3_X1
X_3206_ _1955_ _2088_ _2089_ _2164_ VDD VSS OAI21_X1
X_3207_ _2154_ _2162_ _2163_ _2164_ _2156_ _1906_ _2165_ VDD
+ VSS OAI33_X1
X_3208_ _1982_ _2085_ _2165_ _2105_ _2166_ VDD VSS AOI22_X4
X_3209_ _2161_ _2166_ _2116_ _2167_ VDD VSS AOI21_X4
X_3210_ _2030_ _2168_ VDD VSS BUF_X4
X_3211_ _2168_ _2032_ _2169_ VDD VSS NOR2_X1
X_3212_ _2168_ _2118_ _2170_ VDD VSS NOR2_X1
X_3213_ _2056_ _2060_ _2064_ _2171_ VDD VSS NAND3_X2
X_3214_ _2038_ _2171_ _2021_ _2027_ _2172_ VDD VSS AOI211_X2
X_3215_ _2169_ _2170_ _2172_ _2173_ VDD VSS MUX2_X2
X_3216_ _2160_ _2167_ _2173_ _2174_ VDD VSS AND3_X1
X_3217_ _2166_ _2115_ _2137_ _2175_ VDD VSS AOI21_X2
X_3218_ _1982_ _1988_ _1907_ _2176_ VDD VSS NAND3_X2
X_3219_ _2078_ _2176_ _2177_ VDD VSS AND2_X1
X_3220_ _2016_ _2026_ _2022_ _2178_ VDD VSS AOI21_X1
X_3221_ _2069_ _2177_ _2178_ _2179_ VDD VSS OAI21_X2
X_3222_ _2069_ _2066_ _2180_ VDD VSS XNOR2_X2
X_3223_ _2028_ _2166_ _2181_ VDD VSS OR2_X2
X_3224_ _2175_ _2179_ _2180_ _2181_ _2182_ VDD VSS OAI22_X4
X_3225_ _2101_ _2128_ _2174_ _2182_ _2183_ VDD VSS OAI211_X2
X_3226_ _2110_ _2138_ _2070_ _2184_ VDD VSS OAI21_X4
X_3227_ _2148_ _2176_ _2185_ VDD VSS NOR2_X2
X_3228_ _2159_ _2185_ _2186_ VDD VSS NOR2_X2
X_3229_ _2022_ _1988_ _2067_ _2187_ VDD VSS NAND3_X2
X_3230_ _1955_ _2187_ _2188_ VDD VSS XNOR2_X1
X_3231_ _2016_ _1832_ _2189_ VDD VSS NOR2_X1
X_3232_ _2189_ _2008_ _2020_ _2190_ VDD VSS OAI21_X1
X_3233_ _1986_ _1907_ _2191_ VDD VSS XNOR2_X1
X_3234_ _2026_ _1946_ _2192_ VDD VSS NAND2_X1
X_3235_ _2190_ _2191_ _2192_ _2193_ VDD VSS OAI21_X1
X_3236_ _2159_ _2193_ _2194_ VDD VSS AND2_X1
X_3237_ _2104_ _2108_ _2195_ VDD VSS NAND2_X4
X_3238_ _2186_ _2188_ _2194_ _2195_ _2196_ VDD VSS AOI211_X2
X_3239_ _2184_ _2196_ _2197_ VDD VSS AND2_X1
X_3240_ _2153_ _2183_ _2197_ _2198_ VDD VSS AOI21_X4
X_3241_ _2050_ _2199_ VDD VSS INV_X1
X_3242_ _2048_ _2200_ VDD VSS BUF_X4
X_3243_ _2200_ _2055_ _2201_ VDD VSS OR2_X1
X_3244_ _2199_ _2201_ _2099_ _2202_ VDD VSS OAI21_X2
X_3245_ _2200_ _2055_ _2203_ VDD VSS NOR2_X1
X_3246_ _2111_ _2050_ _2203_ _2204_ VDD VSS NAND3_X2
X_3247_ _2758_ _2020_ _2012_ _2205_ VDD VSS NOR3_X2
X_3248_ _2051_ _2113_ _2205_ _2206_ VDD VSS AOI21_X4
X_3249_ _2053_ _2206_ _2054_ _2044_ _2099_ _2207_ VDD VSS
+ OAI221_X2
X_3250_ _1901_ _2042_ _2208_ VDD VSS NOR2_X4
X_3251_ _1902_ _2110_ _2208_ _2053_ _2209_ VDD VSS NAND4_X2
X_3252_ _2202_ _2204_ _2207_ _2209_ _2210_ VDD VSS AOI22_X4
X_3253_ _2039_ _2040_ _2211_ VDD VSS XOR2_X2
X_3254_ _2754_ _2002_ _2212_ VDD VSS XNOR2_X2
X_3255_ _2208_ _2212_ _2213_ VDD VSS NAND2_X4
X_3256_ _1898_ _2003_ _2214_ VDD VSS XOR2_X2
X_3257_ _2213_ _2214_ _2215_ VDD VSS NOR2_X4
X_3258_ _2211_ _2215_ _2216_ VDD VSS NAND2_X4
X_3259_ _2216_ _2050_ _2055_ _2217_ VDD VSS OR3_X2
X_3260_ _1992_ _1906_ _2218_ VDD VSS NOR2_X1
X_3261_ _1870_ _1892_ _2010_ _2219_ VDD VSS NOR3_X2
X_3262_ _2100_ _2217_ _2218_ _2219_ _2220_ VDD VSS OAI22_X2
X_3263_ _1992_ _1893_ _2221_ VDD VSS NAND2_X1
X_3264_ _2094_ _2111_ _2056_ _2222_ VDD VSS AOI21_X2
X_3265_ _2220_ _2221_ _2222_ _2223_ VDD VSS OAI21_X4
X_3266_ _2160_ _2167_ _2224_ VDD VSS NAND2_X4
X_3267_ _2159_ _2193_ _2225_ VDD VSS NAND2_X1
X_3268_ _2086_ _2098_ _2226_ VDD VSS NOR2_X2
X_3269_ _2159_ _2185_ _2225_ _2226_ _2227_ VDD VSS OAI22_X4
X_3270_ _2093_ _2187_ _2228_ VDD VSS XNOR2_X2
X_3271_ _2099_ _2115_ _2228_ _2229_ VDD VSS NAND3_X4
X_3272_ _2069_ _2224_ _2227_ _2229_ _2230_ VDD VSS NOR4_X4
X_3273_ _1870_ _2006_ _2231_ VDD VSS NAND2_X2
X_3274_ _1994_ _2231_ _2232_ VDD VSS XNOR2_X2
X_3275_ _2759_ _2233_ VDD VSS INV_X1
X_3276_ _2233_ _2692_ _2234_ VDD VSS NAND2_X1
X_3277_ duty_cycle[0] _2235_ VDD VSS CLKBUF_X3
X_3278_ _2234_ net2 _2235_ _2236_ VDD VSS AOI21_X4
X_3279_ _2212_ _2236_ _2237_ VDD VSS NAND2_X2
X_3280_ _2214_ _2237_ _2238_ VDD VSS NOR2_X4
X_3281_ _1999_ _2035_ _2239_ VDD VSS XNOR2_X2
X_3282_ _2041_ _2239_ _2240_ VDD VSS NOR2_X4
X_3283_ _2232_ _2238_ _2240_ _2241_ VDD VSS AND3_X2
X_3284_ _2117_ _2123_ _2241_ _2242_ VDD VSS NAND3_X1
X_3285_ _2102_ _2103_ _2243_ VDD VSS NOR2_X4
X_3286_ _2038_ _2171_ _2244_ VDD VSS NOR2_X2
X_3287_ _2195_ _2243_ _2032_ _2244_ _2245_ VDD VSS NAND4_X4
X_3288_ _2038_ _2065_ _2246_ VDD VSS NOR2_X1
X_3289_ _2246_ _2247_ VDD VSS INV_X1
X_3290_ _2118_ _2247_ _2100_ _2248_ VDD VSS OAI21_X2
X_3291_ _2242_ _2245_ _2248_ _2249_ VDD VSS AOI21_X2
X_3292_ _2210_ _2223_ _2230_ _2249_ _2250_ VDD VSS NAND4_X4
X_3293_ _2050_ _2203_ _2110_ _2251_ VDD VSS AOI21_X2
X_3294_ _2099_ _2199_ _2201_ _2252_ VDD VSS NOR3_X2
X_3295_ _2053_ _2206_ _2054_ _2253_ VDD VSS OAI21_X2
X_3296_ _2253_ _2208_ _2110_ _2254_ VDD VSS AOI21_X2
X_3297_ _1902_ _2110_ _2208_ _2053_ _2255_ VDD VSS AND4_X1
X_3298_ _2251_ _2252_ _2254_ _2255_ _2256_ VDD VSS OAI22_X4
X_3299_ _1870_ _2011_ _2257_ VDD VSS NAND2_X1
X_3300_ _2257_ _2056_ _2110_ _2258_ VDD VSS AOI21_X1
X_3301_ _1870_ _2023_ _2259_ VDD VSS NOR2_X1
X_3302_ _2061_ _2099_ _2217_ _2260_ VDD VSS OAI21_X1
X_3303_ _2110_ _2056_ _2261_ VDD VSS NAND2_X1
X_3304_ _2258_ _2259_ _2260_ _2219_ _2261_ _2262_ VDD VSS
+ AOI221_X2
X_3305_ _1883_ _2025_ _2263_ VDD VSS NOR2_X2
X_3306_ _1917_ _2263_ _2264_ VDD VSS XNOR2_X2
X_3307_ _2216_ _2239_ _2265_ VDD VSS NOR2_X4
X_3308_ _2232_ _2265_ _2266_ VDD VSS NAND2_X4
X_3309_ _2264_ _2266_ _2267_ VDD VSS NOR2_X2
X_3310_ _1991_ _2033_ _2268_ VDD VSS XNOR2_X2
X_3311_ _2268_ _2269_ VDD VSS INV_X2
X_3312_ _2269_ _2124_ _2110_ _2270_ VDD VSS AOI21_X4
X_3313_ _2171_ _2271_ VDD VSS INV_X1
X_3314_ _2195_ _2243_ _2271_ _2269_ _2272_ VDD VSS AND4_X2
X_3315_ _2267_ _2270_ _2272_ _2273_ VDD VSS OAI21_X4
X_3316_ _2256_ net14 _2273_ _2274_ VDD VSS NOR3_X4
X_3317_ _2160_ _2167_ _2173_ _2275_ VDD VSS NAND3_X2
X_3318_ _2275_ _2227_ _2229_ _2276_ VDD VSS NOR3_X4
X_3319_ _2126_ _2276_ _2277_ VDD VSS NAND2_X2
X_3320_ _2198_ _2250_ _2274_ _2277_ _2278_ VDD VSS OAI211_X4
X_3321_ _2278_ _2279_ VDD VSS BUF_X4
X_3322_ _2159_ _2019_ _2158_ _2086_ _2280_ VDD VSS OAI22_X4
X_3323_ _2078_ _2176_ _2281_ VDD VSS NAND2_X1
X_3324_ _1945_ _2148_ _2282_ VDD VSS NAND2_X1
X_3325_ _2126_ _2281_ _2282_ _2283_ VDD VSS AOI21_X2
X_3326_ _2126_ _2066_ _2284_ VDD VSS XNOR2_X2
X_3327_ _2028_ _2166_ _2285_ VDD VSS NOR2_X1
X_3328_ _2280_ _2283_ _2284_ _2285_ _2286_ VDD VSS AOI22_X4
X_3329_ _2014_ _2263_ _2287_ VDD VSS XNOR2_X2
X_3330_ _1882_ _2231_ _2288_ VDD VSS XNOR2_X2
X_3331_ _2041_ _2048_ _2289_ VDD VSS NOR2_X4
X_3332_ _1892_ _2035_ _2290_ VDD VSS XNOR2_X2
X_3333_ _2289_ _2290_ _2291_ VDD VSS NAND2_X4
X_3334_ _2288_ _2291_ _2292_ VDD VSS NOR2_X4
X_3335_ _2287_ _2292_ _2293_ VDD VSS NAND2_X2
X_3336_ _2268_ _2065_ _2100_ _2294_ VDD VSS OAI21_X2
X_3337_ _2195_ _2243_ _2271_ _2269_ _2295_ VDD VSS NAND4_X4
X_3338_ _2293_ _2294_ _2295_ _2296_ VDD VSS AOI21_X4
X_3339_ _2174_ _2210_ _2223_ _2296_ _2297_ VDD VSS NAND4_X2
X_3340_ _2286_ _2297_ _2298_ VDD VSS NAND2_X1
X_3341_ _2129_ _2279_ _2298_ _2299_ VDD VSS AND3_X1
X_3342_ _2129_ _2279_ _2298_ _2300_ VDD VSS AOI21_X2
X_3343_ _2299_ _2300_ _2301_ VDD VSS NOR2_X1
X_3344_ _2117_ _2118_ _2302_ VDD VSS NAND2_X4
X_3345_ _2169_ _2244_ _2303_ VDD VSS AND2_X1
X_3346_ _2195_ _2243_ _2069_ _2303_ _2304_ VDD VSS AND4_X1
X_3347_ _2069_ _2066_ _2110_ _2305_ VDD VSS AOI21_X2
X_3348_ _2267_ _2270_ _2272_ _2304_ _2305_ _2306_ VDD VSS
+ OAI221_X2
X_3349_ _2302_ _2256_ net14 _2306_ _2307_ VDD VSS NOR4_X4
X_3350_ _2305_ _2304_ _2308_ VDD VSS NOR2_X1
X_3351_ _2308_ _2276_ _2309_ VDD VSS NOR2_X2
X_3352_ _2256_ net14 _2306_ _2310_ VDD VSS NOR3_X2
X_3353_ _2198_ _2307_ _2309_ _2310_ _2311_ VDD VSS OAI22_X4
X_3354_ _2160_ _2167_ _2312_ VDD VSS AND2_X1
X_3355_ _2312_ _2305_ _2304_ _2313_ VDD VSS NOR3_X2
X_3356_ _2140_ _2152_ _2184_ _2196_ _2314_ VDD VSS AOI211_X2
X_3357_ _2197_ _2313_ _2314_ _2312_ _2315_ VDD VSS AOI22_X1
X_3358_ _2126_ _2125_ _2099_ _2316_ VDD VSS OAI21_X2
X_3359_ _2195_ _2243_ _2069_ _2303_ _2317_ VDD VSS NAND4_X4
X_3360_ _2224_ _2316_ _2317_ _2318_ VDD VSS AOI21_X1
X_3361_ _2140_ _2152_ _2224_ _2319_ VDD VSS NOR3_X1
X_3362_ _2115_ _2127_ _2109_ _2320_ VDD VSS AOI21_X4
X_3363_ _2099_ _2019_ _2070_ _2321_ VDD VSS NOR3_X4
X_3364_ _2320_ _2321_ _2275_ _2286_ _2322_ VDD VSS AOI211_X2
X_3365_ _2318_ _2319_ _2322_ _2153_ _2313_ _0028_ VDD VSS
+ AOI221_X2
X_3366_ _2315_ _0028_ _0029_ VDD VSS NAND2_X1
X_3367_ _2316_ _2317_ _0030_ VDD VSS NAND2_X2
X_3368_ _2302_ _2256_ net14 _2273_ _0031_ VDD VSS NOR4_X4
X_3369_ _0030_ _2198_ _0031_ _0032_ VDD VSS OR3_X2
X_3370_ _2117_ _2311_ _0029_ _0032_ _0033_ VDD VSS NAND4_X4
X_3371_ _2184_ _2228_ _0034_ VDD VSS NAND2_X4
X_3372_ _2320_ _2321_ _0035_ VDD VSS NOR2_X4
X_3373_ _2227_ _2182_ _0035_ _0036_ VDD VSS AOI21_X4
X_3374_ _2210_ _0037_ VDD VSS BUF_X4
X_3375_ _2302_ _2320_ _2321_ _2224_ _0038_ VDD VSS NOR4_X4
X_3376_ _0037_ _2223_ _2296_ _0038_ _0039_ VDD VSS NAND4_X4
X_3377_ _0034_ _0036_ _0039_ _0040_ VDD VSS AOI21_X4
X_3378_ _0034_ _0041_ VDD VSS INV_X1
X_3379_ _2186_ _2194_ _2195_ _0042_ VDD VSS AOI21_X4
X_3380_ _0042_ _2286_ _2129_ _0043_ VDD VSS OAI21_X2
X_3381_ _2210_ _2223_ _2296_ _0038_ _0044_ VDD VSS AND4_X2
X_3382_ _0041_ _0043_ _0044_ _0045_ VDD VSS NOR3_X4
X_3383_ _2198_ _2250_ _0046_ VDD VSS NAND2_X2
X_3384_ _0040_ _0045_ _0046_ _0047_ VDD VSS AOI21_X4
X_3385_ _2140_ _2152_ _0048_ VDD VSS NOR2_X2
X_3386_ _2184_ _2196_ _0049_ VDD VSS NAND2_X2
X_3387_ _0048_ _2322_ _0049_ _0050_ VDD VSS OAI21_X4
X_3388_ _2293_ _2294_ _2295_ _2317_ _2316_ _0051_ VDD VSS
+ AOI221_X2
X_3389_ _2169_ _0037_ _2223_ _0051_ _0052_ VDD VSS NAND4_X2
X_3390_ _2308_ _2276_ _0053_ VDD VSS OR2_X1
X_3391_ _0037_ _2223_ _0051_ _0054_ VDD VSS NAND3_X2
X_3392_ _0050_ _0052_ _0053_ _0054_ _0055_ VDD VSS AOI22_X4
X_3393_ _2315_ _0028_ _0056_ VDD VSS AND2_X1
X_3394_ _0056_ _0057_ VDD VSS BUF_X4
X_3395_ _0030_ _2198_ _0031_ _0058_ VDD VSS NOR3_X4
X_3396_ _2168_ _0055_ _0057_ _0058_ _0059_ VDD VSS NOR4_X4
X_3397_ _2182_ _0042_ _0060_ VDD VSS NAND2_X1
X_3398_ _2275_ _2182_ _0042_ _0061_ VDD VSS NOR3_X1
X_3399_ _0037_ _2223_ _2296_ _0061_ _0062_ VDD VSS NAND4_X1
X_3400_ _2129_ _0060_ _0062_ _0063_ VDD VSS AOI21_X1
X_3401_ _0040_ _0045_ _0046_ _0063_ _2278_ _0064_ VDD VSS
+ AOI221_X2
X_3402_ _2129_ _0042_ _0065_ VDD VSS NAND2_X1
X_3403_ _0035_ _0042_ _0066_ VDD VSS NOR2_X1
X_3404_ _2286_ _2297_ _0066_ _0067_ VDD VSS NAND3_X1
X_3405_ _0065_ _0067_ _2279_ _0068_ VDD VSS MUX2_X1
X_3406_ _0047_ _0059_ _0064_ _0068_ _0069_ VDD VSS AOI22_X4
X_3407_ _0069_ _0070_ VDD VSS BUF_X4
X_3408_ _2207_ _2209_ _0071_ VDD VSS NAND2_X1
X_3409_ _1906_ _2111_ _2056_ _0072_ VDD VSS AOI21_X4
X_3410_ _1870_ _0072_ _0073_ VDD VSS XNOR2_X2
X_3411_ _0071_ _0073_ _0074_ VDD VSS NAND2_X1
X_3412_ _2053_ _0075_ VDD VSS INV_X1
X_3413_ _1902_ _2099_ _2213_ _0076_ VDD VSS OR3_X2
X_3414_ _0075_ _0076_ _0077_ VDD VSS XNOR2_X2
X_3415_ _2054_ _2206_ _0078_ VDD VSS NOR2_X4
X_3416_ _2100_ _2208_ _0079_ VDD VSS NAND2_X2
X_3417_ _0078_ _0079_ _0080_ VDD VSS XNOR2_X1
X_3418_ _0077_ _0080_ _0081_ VDD VSS NOR2_X2
X_3419_ _1992_ _0072_ _0082_ VDD VSS XNOR2_X2
X_3420_ _1893_ _2061_ _0083_ VDD VSS XNOR2_X2
X_3421_ _2111_ _2056_ _0083_ _0084_ VDD VSS NAND3_X2
X_3422_ _0083_ _0085_ VDD VSS INV_X1
X_3423_ _0085_ _2217_ _2100_ _0086_ VDD VSS OAI21_X2