* CDL Netlist generated by OpenROAD

*.BUSDELIMITER [

.SUBCKT wishbone_master clk read_addr[0] read_addr[10] read_addr[11]
+ read_addr[12] read_addr[13] read_addr[14] read_addr[15] read_addr[16]
+ read_addr[17] read_addr[18] read_addr[19] read_addr[1] read_addr[20]
+ read_addr[21] read_addr[22] read_addr[23] read_addr[24] read_addr[25]
+ read_addr[26] read_addr[27] read_addr[28] read_addr[29] read_addr[2]
+ read_addr[30] read_addr[31] read_addr[3] read_addr[4] read_addr[5]
+ read_addr[6] read_addr[7] read_addr[8] read_addr[9] read_data[0]
+ read_data[10] read_data[11] read_data[12] read_data[13] read_data[14]
+ read_data[15] read_data[16] read_data[17] read_data[18] read_data[19]
+ read_data[1] read_data[20] read_data[21] read_data[22] read_data[23]
+ read_data[24] read_data[25] read_data[26] read_data[27] read_data[28]
+ read_data[29] read_data[2] read_data[30] read_data[31] read_data[3]
+ read_data[4] read_data[5] read_data[6] read_data[7] read_data[8]
+ read_data[9] read_done read_err read_req read_sel[0] read_sel[1]
+ read_sel[2] read_sel[3] rst_n wb_ack_i wb_adr_o[0] wb_adr_o[10]
+ wb_adr_o[11] wb_adr_o[12] wb_adr_o[13] wb_adr_o[14] wb_adr_o[15]
+ wb_adr_o[16] wb_adr_o[17] wb_adr_o[18] wb_adr_o[19] wb_adr_o[1]
+ wb_adr_o[20] wb_adr_o[21] wb_adr_o[22] wb_adr_o[23] wb_adr_o[24]
+ wb_adr_o[25] wb_adr_o[26] wb_adr_o[27] wb_adr_o[28] wb_adr_o[29]
+ wb_adr_o[2] wb_adr_o[30] wb_adr_o[31] wb_adr_o[3] wb_adr_o[4]
+ wb_adr_o[5] wb_adr_o[6] wb_adr_o[7] wb_adr_o[8] wb_adr_o[9]
+ wb_cyc_o wb_dat_i[0] wb_dat_i[10] wb_dat_i[11] wb_dat_i[12]
+ wb_dat_i[13] wb_dat_i[14] wb_dat_i[15] wb_dat_i[16] wb_dat_i[17]
+ wb_dat_i[18] wb_dat_i[19] wb_dat_i[1] wb_dat_i[20] wb_dat_i[21]
+ wb_dat_i[22] wb_dat_i[23] wb_dat_i[24] wb_dat_i[25] wb_dat_i[26]
+ wb_dat_i[27] wb_dat_i[28] wb_dat_i[29] wb_dat_i[2] wb_dat_i[30]
+ wb_dat_i[31] wb_dat_i[3] wb_dat_i[4] wb_dat_i[5] wb_dat_i[6]
+ wb_dat_i[7] wb_dat_i[8] wb_dat_i[9] wb_dat_o[0] wb_dat_o[10]
+ wb_dat_o[11] wb_dat_o[12] wb_dat_o[13] wb_dat_o[14] wb_dat_o[15]
+ wb_dat_o[16] wb_dat_o[17] wb_dat_o[18] wb_dat_o[19] wb_dat_o[1]
+ wb_dat_o[20] wb_dat_o[21] wb_dat_o[22] wb_dat_o[23] wb_dat_o[24]
+ wb_dat_o[25] wb_dat_o[26] wb_dat_o[27] wb_dat_o[28] wb_dat_o[29]
+ wb_dat_o[2] wb_dat_o[30] wb_dat_o[31] wb_dat_o[3] wb_dat_o[4]
+ wb_dat_o[5] wb_dat_o[6] wb_dat_o[7] wb_dat_o[8] wb_dat_o[9]
+ wb_err_i wb_rty_i wb_sel_o[0] wb_sel_o[1] wb_sel_o[2] wb_sel_o[3]
+ wb_stb_o wb_tgd_i wb_tgd_o wb_we_o write_addr[0] write_addr[10]
+ write_addr[11] write_addr[12] write_addr[13] write_addr[14]
+ write_addr[15] write_addr[16] write_addr[17] write_addr[18]
+ write_addr[19] write_addr[1] write_addr[20] write_addr[21]
+ write_addr[22] write_addr[23] write_addr[24] write_addr[25]
+ write_addr[26] write_addr[27] write_addr[28] write_addr[29]
+ write_addr[2] write_addr[30] write_addr[31] write_addr[3]
+ write_addr[4] write_addr[5] write_addr[6] write_addr[7] write_addr[8]
+ write_addr[9] write_data[0] write_data[10] write_data[11]
+ write_data[12] write_data[13] write_data[14] write_data[15]
+ write_data[16] write_data[17] write_data[18] write_data[19]
+ write_data[1] write_data[20] write_data[21] write_data[22]
+ write_data[23] write_data[24] write_data[25] write_data[26]
+ write_data[27] write_data[28] write_data[29] write_data[2]
+ write_data[30] write_data[31] write_data[3] write_data[4]
+ write_data[5] write_data[6] write_data[7] write_data[8] write_data[9]
+ write_done write_err write_req write_sel[0] write_sel[1] write_sel[2]
+ write_sel[3]
X_243_ _226_ _111_ VDD VSS gf180mcu_fd_sc_mcu9t5v0__clkinv_3
X_244_ net39 net72 net73 _111_ _112_ VDD VSS gf180mcu_fd_sc_mcu9t5v0__or4_2
X_245_ _225_ _113_ VDD VSS gf180mcu_fd_sc_mcu9t5v0__clkbuf_8
X_246_ retry_count\[3\] _114_ VDD VSS gf180mcu_fd_sc_mcu9t5v0__clkinv_2
X_247_ _114_ _233_ _115_ VDD VSS gf180mcu_fd_sc_mcu9t5v0__and2_2
X_248_ _113_ _115_ _116_ VDD VSS gf180mcu_fd_sc_mcu9t5v0__nor2_2
X_249_ net138 _117_ VDD VSS gf180mcu_fd_sc_mcu9t5v0__clkbuf_16
X_250_ _117_ _118_ VDD VSS gf180mcu_fd_sc_mcu9t5v0__inv_2
X_251_ _113_ _118_ _119_ VDD VSS gf180mcu_fd_sc_mcu9t5v0__nand2_2
X_252_ net34 _119_ _120_ VDD VSS gf180mcu_fd_sc_mcu9t5v0__nor2_2
X_253_ _112_ _116_ _120_ _242_ VDD VSS gf180mcu_fd_sc_mcu9t5v0__aoi21_2
X_254_ state\[0\] _223_ VDD VSS gf180mcu_fd_sc_mcu9t5v0__inv_2
X_255_ retry_count\[0\] _235_ VDD VSS gf180mcu_fd_sc_mcu9t5v0__clkinv_2
X_256_ state\[1\] _224_ VDD VSS gf180mcu_fd_sc_mcu9t5v0__clkinv_2
X_257_ retry_count\[1\] _236_ VDD VSS gf180mcu_fd_sc_mcu9t5v0__clkinv_2
X_258_ net39 _227_ _121_ VDD VSS gf180mcu_fd_sc_mcu9t5v0__and2_4
X_259_ _121_ _122_ VDD VSS gf180mcu_fd_sc_mcu9t5v0__buf_8
X_260_ net143 net40 _122_ _000_ VDD VSS gf180mcu_fd_sc_mcu9t5v0__mux2_2
X_261_ net144 net41 _122_ _001_ VDD VSS gf180mcu_fd_sc_mcu9t5v0__mux2_2
X_262_ net145 net42 _122_ _002_ VDD VSS gf180mcu_fd_sc_mcu9t5v0__mux2_2
X_263_ net146 net43 _122_ _003_ VDD VSS gf180mcu_fd_sc_mcu9t5v0__mux2_2
X_264_ net147 net44 _122_ _004_ VDD VSS gf180mcu_fd_sc_mcu9t5v0__mux2_2
X_265_ net148 net45 _122_ _005_ VDD VSS gf180mcu_fd_sc_mcu9t5v0__mux2_2
X_266_ net149 net46 _122_ _006_ VDD VSS gf180mcu_fd_sc_mcu9t5v0__mux2_2
X_267_ net150 net47 _122_ _007_ VDD VSS gf180mcu_fd_sc_mcu9t5v0__mux2_2
X_268_ net151 net48 _122_ _008_ VDD VSS gf180mcu_fd_sc_mcu9t5v0__mux2_2
X_269_ _121_ _123_ VDD VSS gf180mcu_fd_sc_mcu9t5v0__buf_4
X_270_ net152 net49 _123_ _009_ VDD VSS gf180mcu_fd_sc_mcu9t5v0__mux2_2
X_271_ net153 net50 _123_ _010_ VDD VSS gf180mcu_fd_sc_mcu9t5v0__mux2_2
X_272_ net154 net51 _123_ _011_ VDD VSS gf180mcu_fd_sc_mcu9t5v0__mux2_2
X_273_ net155 net52 _123_ _012_ VDD VSS gf180mcu_fd_sc_mcu9t5v0__mux2_2
X_274_ net156 net53 _123_ _013_ VDD VSS gf180mcu_fd_sc_mcu9t5v0__mux2_2
X_275_ net157 net54 _123_ _014_ VDD VSS gf180mcu_fd_sc_mcu9t5v0__mux2_2
X_276_ net158 net55 _123_ _015_ VDD VSS gf180mcu_fd_sc_mcu9t5v0__mux2_2
X_277_ net159 net56 _123_ _016_ VDD VSS gf180mcu_fd_sc_mcu9t5v0__mux2_2
X_278_ net160 net57 _123_ _017_ VDD VSS gf180mcu_fd_sc_mcu9t5v0__mux2_2
X_279_ net161 net58 _123_ _018_ VDD VSS gf180mcu_fd_sc_mcu9t5v0__mux2_2
X_280_ _121_ _124_ VDD VSS gf180mcu_fd_sc_mcu9t5v0__buf_4
X_281_ net162 net59 _124_ _019_ VDD VSS gf180mcu_fd_sc_mcu9t5v0__mux2_2
X_282_ net163 net60 _124_ _020_ VDD VSS gf180mcu_fd_sc_mcu9t5v0__mux2_2
X_283_ net164 net61 _124_ _021_ VDD VSS gf180mcu_fd_sc_mcu9t5v0__mux2_2
X_284_ net165 net62 _124_ _022_ VDD VSS gf180mcu_fd_sc_mcu9t5v0__mux2_2
X_285_ net166 net63 _124_ _023_ VDD VSS gf180mcu_fd_sc_mcu9t5v0__mux2_2
X_286_ net167 net64 _124_ _024_ VDD VSS gf180mcu_fd_sc_mcu9t5v0__mux2_2
X_287_ net168 net65 _124_ _025_ VDD VSS gf180mcu_fd_sc_mcu9t5v0__mux2_2
X_288_ net169 net66 _124_ _026_ VDD VSS gf180mcu_fd_sc_mcu9t5v0__mux2_2
X_289_ net170 net67 _124_ _027_ VDD VSS gf180mcu_fd_sc_mcu9t5v0__mux2_2
X_290_ net171 net68 _124_ _028_ VDD VSS gf180mcu_fd_sc_mcu9t5v0__mux2_2
X_291_ net172 net69 _121_ _029_ VDD VSS gf180mcu_fd_sc_mcu9t5v0__mux2_2
X_292_ net173 net70 _121_ _030_ VDD VSS gf180mcu_fd_sc_mcu9t5v0__mux2_2
X_293_ net174 net71 _121_ _031_ VDD VSS gf180mcu_fd_sc_mcu9t5v0__mux2_2
X_294_ _227_ _125_ VDD VSS gf180mcu_fd_sc_mcu9t5v0__clkinv_2
X_295_ net175 _126_ VDD VSS gf180mcu_fd_sc_mcu9t5v0__clkinv_2
X_296_ _118_ net34 _127_ VDD VSS gf180mcu_fd_sc_mcu9t5v0__nand2_2
X_297_ _125_ _126_ _127_ _128_ VDD VSS gf180mcu_fd_sc_mcu9t5v0__mux2_2
X_298_ net175 _122_ _129_ VDD VSS gf180mcu_fd_sc_mcu9t5v0__nor2_2
X_299_ _113_ _128_ _129_ _032_ VDD VSS gf180mcu_fd_sc_mcu9t5v0__aoi21_2
X_300_ _113_ _130_ VDD VSS gf180mcu_fd_sc_mcu9t5v0__clkinv_2
X_301_ _118_ net34 _130_ _131_ VDD VSS gf180mcu_fd_sc_mcu9t5v0__aoi21_2
X_302_ net176 _132_ VDD VSS gf180mcu_fd_sc_mcu9t5v0__clkinv_2
X_303_ _226_ _132_ _133_ VDD VSS gf180mcu_fd_sc_mcu9t5v0__nand2_2
X_304_ _233_ _226_ _131_ _133_ _134_ VDD VSS gf180mcu_fd_sc_mcu9t5v0__oai31_2
X_305_ net247 _135_ VDD VSS gf180mcu_fd_sc_mcu9t5v0__clkinv_2
X_306_ _233_ _136_ VDD VSS gf180mcu_fd_sc_mcu9t5v0__clkinv_2
X_307_ retry_count\[3\] _135_ _136_ _137_ VDD VSS gf180mcu_fd_sc_mcu9t5v0__aoi21_2
X_308_ net39 _138_ VDD VSS gf180mcu_fd_sc_mcu9t5v0__clkinv_2
X_309_ _138_ net72 _125_ _139_ VDD VSS gf180mcu_fd_sc_mcu9t5v0__aoi21_2
X_310_ _131_ _137_ _139_ _140_ VDD VSS gf180mcu_fd_sc_mcu9t5v0__or3_2
X_311_ _125_ _134_ _140_ _132_ _033_ VDD VSS gf180mcu_fd_sc_mcu9t5v0__aoi22_2
X_312_ net39 net72 _141_ VDD VSS gf180mcu_fd_sc_mcu9t5v0__nor2_4
X_313_ net73 _141_ _111_ _142_ VDD VSS gf180mcu_fd_sc_mcu9t5v0__aoi21_2
X_314_ _233_ _142_ _143_ VDD VSS gf180mcu_fd_sc_mcu9t5v0__or2_2
X_315_ _136_ net73 _226_ _141_ _144_ VDD VSS gf180mcu_fd_sc_mcu9t5v0__and4_2
X_316_ _143_ _144_ _235_ _034_ VDD VSS gf180mcu_fd_sc_mcu9t5v0__mux2_2
X_317_ _238_ _144_ _145_ VDD VSS gf180mcu_fd_sc_mcu9t5v0__nand2_2
X_318_ _233_ _142_ retry_count\[1\] _146_ VDD VSS gf180mcu_fd_sc_mcu9t5v0__oai21_2
X_319_ _145_ _146_ _035_ VDD VSS gf180mcu_fd_sc_mcu9t5v0__nand2_2
X_320_ retry_count\[2\] _233_ _147_ VDD VSS gf180mcu_fd_sc_mcu9t5v0__and2_2
X_321_ retry_count\[2\] _148_ VDD VSS gf180mcu_fd_sc_mcu9t5v0__clkinv_2
X_322_ net73 _141_ _149_ VDD VSS gf180mcu_fd_sc_mcu9t5v0__and2_2
X_323_ _136_ _226_ _150_ VDD VSS gf180mcu_fd_sc_mcu9t5v0__and2_2
X_324_ _148_ _239_ _149_ _150_ _151_ VDD VSS gf180mcu_fd_sc_mcu9t5v0__and4_2
X_325_ _239_ _149_ _148_ _111_ _152_ VDD VSS gf180mcu_fd_sc_mcu9t5v0__aoi211_2
X_326_ _147_ _151_ _152_ _036_ VDD VSS gf180mcu_fd_sc_mcu9t5v0__or3_2
X_327_ retry_count\[3\] _233_ _153_ VDD VSS gf180mcu_fd_sc_mcu9t5v0__and2_2
X_328_ retry_count\[2\] retry_count\[0\] retry_count\[1\]
+ _154_ VDD VSS gf180mcu_fd_sc_mcu9t5v0__and3_2
X_329_ _114_ _149_ _150_ _154_ _155_ VDD VSS gf180mcu_fd_sc_mcu9t5v0__and4_2
X_330_ _149_ _154_ _114_ _111_ _156_ VDD VSS gf180mcu_fd_sc_mcu9t5v0__aoi211_2
X_331_ _153_ _155_ _156_ _037_ VDD VSS gf180mcu_fd_sc_mcu9t5v0__or3_2
X_332_ _226_ _141_ _115_ net247 _113_ _157_ VDD VSS gf180mcu_fd_sc_mcu9t5v0__aoi221_2
X_333_ _119_ _112_ _158_ VDD VSS gf180mcu_fd_sc_mcu9t5v0__nand2_2
X_334_ _130_ _117_ net34 _159_ VDD VSS gf180mcu_fd_sc_mcu9t5v0__or3_2
X_335_ _159_ _112_ _160_ VDD VSS gf180mcu_fd_sc_mcu9t5v0__and2_2
X_336_ _157_ _158_ _160_ _223_ _038_ VDD VSS gf180mcu_fd_sc_mcu9t5v0__oai22_2
X_337_ _226_ _141_ _113_ _161_ VDD VSS gf180mcu_fd_sc_mcu9t5v0__aoi21_2
X_338_ retry_count\[3\] _136_ net247 _162_ VDD VSS gf180mcu_fd_sc_mcu9t5v0__or3_2
X_339_ _113_ net138 _163_ VDD VSS gf180mcu_fd_sc_mcu9t5v0__and2_2
X_340_ _163_ _164_ VDD VSS gf180mcu_fd_sc_mcu9t5v0__buf_12
X_341_ _161_ _162_ _164_ _165_ VDD VSS gf180mcu_fd_sc_mcu9t5v0__aoi21_2
X_342_ state\[1\] _165_ _160_ _039_ VDD VSS gf180mcu_fd_sc_mcu9t5v0__mux2_2
X_343_ _117_ _166_ VDD VSS gf180mcu_fd_sc_mcu9t5v0__buf_12
X_344_ net2 net74 _166_ _167_ VDD VSS gf180mcu_fd_sc_mcu9t5v0__mux2_2
X_345_ net138 net34 _113_ _168_ VDD VSS gf180mcu_fd_sc_mcu9t5v0__oai21_4
X_346_ _168_ _169_ VDD VSS gf180mcu_fd_sc_mcu9t5v0__buf_12
X_347_ _167_ net177 _169_ _040_ VDD VSS gf180mcu_fd_sc_mcu9t5v0__mux2_2
X_348_ net3 net75 _166_ _170_ VDD VSS gf180mcu_fd_sc_mcu9t5v0__mux2_2
X_349_ _170_ net178 _169_ _041_ VDD VSS gf180mcu_fd_sc_mcu9t5v0__mux2_2
X_350_ net4 net76 _166_ _171_ VDD VSS gf180mcu_fd_sc_mcu9t5v0__mux2_2
X_351_ _171_ net179 _169_ _042_ VDD VSS gf180mcu_fd_sc_mcu9t5v0__mux2_2
X_352_ net5 net77 _166_ _172_ VDD VSS gf180mcu_fd_sc_mcu9t5v0__mux2_2
X_353_ _172_ net180 _169_ _043_ VDD VSS gf180mcu_fd_sc_mcu9t5v0__mux2_2
X_354_ net6 net78 _166_ _173_ VDD VSS gf180mcu_fd_sc_mcu9t5v0__mux2_2
X_355_ _173_ net181 _169_ _044_ VDD VSS gf180mcu_fd_sc_mcu9t5v0__mux2_2
X_356_ net7 net79 _166_ _174_ VDD VSS gf180mcu_fd_sc_mcu9t5v0__mux2_2
X_357_ _174_ net182 _169_ _045_ VDD VSS gf180mcu_fd_sc_mcu9t5v0__mux2_2
X_358_ net8 net80 _166_ _175_ VDD VSS gf180mcu_fd_sc_mcu9t5v0__mux2_2
X_359_ _175_ net183 _169_ _046_ VDD VSS gf180mcu_fd_sc_mcu9t5v0__mux2_2
X_360_ net9 net81 _166_ _176_ VDD VSS gf180mcu_fd_sc_mcu9t5v0__mux2_2
X_361_ _176_ net184 _169_ _047_ VDD VSS gf180mcu_fd_sc_mcu9t5v0__mux2_2
X_362_ net10 net82 _166_ _177_ VDD VSS gf180mcu_fd_sc_mcu9t5v0__mux2_2
X_363_ _177_ net185 _169_ _048_ VDD VSS gf180mcu_fd_sc_mcu9t5v0__mux2_2
X_364_ net11 net83 _166_ _178_ VDD VSS gf180mcu_fd_sc_mcu9t5v0__mux2_2
X_365_ _178_ net186 _169_ _049_ VDD VSS gf180mcu_fd_sc_mcu9t5v0__mux2_2
X_366_ _117_ _179_ VDD VSS gf180mcu_fd_sc_mcu9t5v0__clkbuf_8
X_367_ net12 net84 _179_ _180_ VDD VSS gf180mcu_fd_sc_mcu9t5v0__mux2_2
X_368_ _168_ _181_ VDD VSS gf180mcu_fd_sc_mcu9t5v0__clkbuf_8
X_369_ _180_ net187 _181_ _050_ VDD VSS gf180mcu_fd_sc_mcu9t5v0__mux2_2
X_370_ net13 net85 _179_ _182_ VDD VSS gf180mcu_fd_sc_mcu9t5v0__mux2_2
X_371_ _182_ net188 _181_ _051_ VDD VSS gf180mcu_fd_sc_mcu9t5v0__mux2_2
X_372_ net14 net86 _179_ _183_ VDD VSS gf180mcu_fd_sc_mcu9t5v0__mux2_2
X_373_ _183_ net189 _181_ _052_ VDD VSS gf180mcu_fd_sc_mcu9t5v0__mux2_2
X_374_ net15 net87 _179_ _184_ VDD VSS gf180mcu_fd_sc_mcu9t5v0__mux2_2
X_375_ _184_ net190 _181_ _053_ VDD VSS gf180mcu_fd_sc_mcu9t5v0__mux2_2
X_376_ net16 net88 _179_ _185_ VDD VSS gf180mcu_fd_sc_mcu9t5v0__mux2_2
X_377_ _185_ net191 _181_ _054_ VDD VSS gf180mcu_fd_sc_mcu9t5v0__mux2_2
X_378_ net17 net89 _179_ _186_ VDD VSS gf180mcu_fd_sc_mcu9t5v0__mux2_2
X_379_ _186_ net192 _181_ _055_ VDD VSS gf180mcu_fd_sc_mcu9t5v0__mux2_2
X_380_ net18 net90 _179_ _187_ VDD VSS gf180mcu_fd_sc_mcu9t5v0__mux2_2
X_381_ _187_ net193 _181_ _056_ VDD VSS gf180mcu_fd_sc_mcu9t5v0__mux2_2
X_382_ net19 net91 _179_ _188_ VDD VSS gf180mcu_fd_sc_mcu9t5v0__mux2_2
X_383_ _188_ net194 _181_ _057_ VDD VSS gf180mcu_fd_sc_mcu9t5v0__mux2_2
X_384_ net20 net92 _179_ _189_ VDD VSS gf180mcu_fd_sc_mcu9t5v0__mux2_2
X_385_ _189_ net195 _181_ _058_ VDD VSS gf180mcu_fd_sc_mcu9t5v0__mux2_2
X_386_ net21 net93 _179_ _190_ VDD VSS gf180mcu_fd_sc_mcu9t5v0__mux2_2
X_387_ _190_ net196 _181_ _059_ VDD VSS gf180mcu_fd_sc_mcu9t5v0__mux2_2
X_388_ net138 _191_ VDD VSS gf180mcu_fd_sc_mcu9t5v0__buf_4
X_389_ net22 net94 _191_ _192_ VDD VSS gf180mcu_fd_sc_mcu9t5v0__mux2_2
X_390_ _168_ _193_ VDD VSS gf180mcu_fd_sc_mcu9t5v0__buf_8
X_391_ _192_ net197 _193_ _060_ VDD VSS gf180mcu_fd_sc_mcu9t5v0__mux2_2
X_392_ net23 net95 _191_ _194_ VDD VSS gf180mcu_fd_sc_mcu9t5v0__mux2_2
X_393_ _194_ net198 _193_ _061_ VDD VSS gf180mcu_fd_sc_mcu9t5v0__mux2_2
X_394_ net24 net96 _191_ _195_ VDD VSS gf180mcu_fd_sc_mcu9t5v0__mux2_2
X_395_ _195_ net199 _193_ _062_ VDD VSS gf180mcu_fd_sc_mcu9t5v0__mux2_2
X_396_ net25 net97 _191_ _196_ VDD VSS gf180mcu_fd_sc_mcu9t5v0__mux2_2
X_397_ _196_ net200 _193_ _063_ VDD VSS gf180mcu_fd_sc_mcu9t5v0__mux2_2
X_398_ net26 net98 _191_ _197_ VDD VSS gf180mcu_fd_sc_mcu9t5v0__mux2_2
X_399_ _197_ net201 _193_ _064_ VDD VSS gf180mcu_fd_sc_mcu9t5v0__mux2_2
X_400_ net27 net99 _191_ _198_ VDD VSS gf180mcu_fd_sc_mcu9t5v0__mux2_2
X_401_ _198_ net202 _193_ _065_ VDD VSS gf180mcu_fd_sc_mcu9t5v0__mux2_2
X_402_ net28 net100 _191_ _199_ VDD VSS gf180mcu_fd_sc_mcu9t5v0__mux2_2
X_403_ _199_ net203 _193_ _066_ VDD VSS gf180mcu_fd_sc_mcu9t5v0__mux2_2
X_404_ net29 net101 _191_ _200_ VDD VSS gf180mcu_fd_sc_mcu9t5v0__mux2_2
X_405_ _200_ net204 _193_ _067_ VDD VSS gf180mcu_fd_sc_mcu9t5v0__mux2_2
X_406_ net30 net102 _191_ _201_ VDD VSS gf180mcu_fd_sc_mcu9t5v0__mux2_2
X_407_ _201_ net205 _193_ _068_ VDD VSS gf180mcu_fd_sc_mcu9t5v0__mux2_2
X_408_ net31 net103 _191_ _202_ VDD VSS gf180mcu_fd_sc_mcu9t5v0__mux2_2
X_409_ _202_ net206 _193_ _069_ VDD VSS gf180mcu_fd_sc_mcu9t5v0__mux2_2
X_410_ net32 net104 _117_ _203_ VDD VSS gf180mcu_fd_sc_mcu9t5v0__mux2_2
X_411_ _203_ net207 _168_ _070_ VDD VSS gf180mcu_fd_sc_mcu9t5v0__mux2_2
X_412_ net33 net105 _117_ _204_ VDD VSS gf180mcu_fd_sc_mcu9t5v0__mux2_2
X_413_ _204_ net208 _168_ _071_ VDD VSS gf180mcu_fd_sc_mcu9t5v0__mux2_2
X_414_ _164_ _205_ VDD VSS gf180mcu_fd_sc_mcu9t5v0__clkbuf_12
X_415_ net210 net106 _205_ _072_ VDD VSS gf180mcu_fd_sc_mcu9t5v0__mux2_2
X_416_ net211 net107 _205_ _073_ VDD VSS gf180mcu_fd_sc_mcu9t5v0__mux2_2
X_417_ net212 net108 _205_ _074_ VDD VSS gf180mcu_fd_sc_mcu9t5v0__mux2_2
X_418_ net213 net109 _205_ _075_ VDD VSS gf180mcu_fd_sc_mcu9t5v0__mux2_2
X_419_ net214 net110 _205_ _076_ VDD VSS gf180mcu_fd_sc_mcu9t5v0__mux2_2
X_420_ net215 net111 _205_ _077_ VDD VSS gf180mcu_fd_sc_mcu9t5v0__mux2_2
X_421_ net216 net112 _205_ _078_ VDD VSS gf180mcu_fd_sc_mcu9t5v0__mux2_2
X_422_ net217 net113 _205_ _079_ VDD VSS gf180mcu_fd_sc_mcu9t5v0__mux2_2
X_423_ _164_ _206_ VDD VSS gf180mcu_fd_sc_mcu9t5v0__clkbuf_8
X_424_ net218 net114 _206_ _080_ VDD VSS gf180mcu_fd_sc_mcu9t5v0__mux2_2
X_425_ net219 net115 _206_ _081_ VDD VSS gf180mcu_fd_sc_mcu9t5v0__mux2_2
X_426_ net220 net116 _206_ _082_ VDD VSS gf180mcu_fd_sc_mcu9t5v0__mux2_2
X_427_ net221 net117 _206_ _083_ VDD VSS gf180mcu_fd_sc_mcu9t5v0__mux2_2
X_428_ net222 net118 _206_ _084_ VDD VSS gf180mcu_fd_sc_mcu9t5v0__mux2_2
X_429_ net223 net119 _206_ _085_ VDD VSS gf180mcu_fd_sc_mcu9t5v0__mux2_2
X_430_ net224 net120 _206_ _086_ VDD VSS gf180mcu_fd_sc_mcu9t5v0__mux2_2
X_431_ net225 net121 _206_ _087_ VDD VSS gf180mcu_fd_sc_mcu9t5v0__mux2_2
X_432_ net226 net122 _206_ _088_ VDD VSS gf180mcu_fd_sc_mcu9t5v0__mux2_2
X_433_ net227 net123 _206_ _089_ VDD VSS gf180mcu_fd_sc_mcu9t5v0__mux2_2
X_434_ _164_ _207_ VDD VSS gf180mcu_fd_sc_mcu9t5v0__buf_12
X_435_ net228 net124 _207_ _090_ VDD VSS gf180mcu_fd_sc_mcu9t5v0__mux2_2
X_436_ net229 net125 _207_ _091_ VDD VSS gf180mcu_fd_sc_mcu9t5v0__mux2_2
X_437_ net230 net126 _207_ _092_ VDD VSS gf180mcu_fd_sc_mcu9t5v0__mux2_2
X_438_ net231 net127 _207_ _093_ VDD VSS gf180mcu_fd_sc_mcu9t5v0__mux2_2
X_439_ net232 net128 _207_ _094_ VDD VSS gf180mcu_fd_sc_mcu9t5v0__mux2_2
X_440_ net233 net129 _207_ _095_ VDD VSS gf180mcu_fd_sc_mcu9t5v0__mux2_2
X_441_ net234 net130 _207_ _096_ VDD VSS gf180mcu_fd_sc_mcu9t5v0__mux2_2
X_442_ net235 net131 _207_ _097_ VDD VSS gf180mcu_fd_sc_mcu9t5v0__mux2_2
X_443_ net236 net132 _207_ _098_ VDD VSS gf180mcu_fd_sc_mcu9t5v0__mux2_2
X_444_ net237 net133 _207_ _099_ VDD VSS gf180mcu_fd_sc_mcu9t5v0__mux2_2
X_445_ net238 net134 _164_ _100_ VDD VSS gf180mcu_fd_sc_mcu9t5v0__mux2_2
X_446_ net239 net135 _164_ _101_ VDD VSS gf180mcu_fd_sc_mcu9t5v0__mux2_2
X_447_ net240 net136 _164_ _102_ VDD VSS gf180mcu_fd_sc_mcu9t5v0__mux2_2
X_448_ net241 net137 _164_ _103_ VDD VSS gf180mcu_fd_sc_mcu9t5v0__mux2_2
X_449_ net35 net139 _117_ _208_ VDD VSS gf180mcu_fd_sc_mcu9t5v0__mux2_2
X_450_ _208_ net242 _168_ _104_ VDD VSS gf180mcu_fd_sc_mcu9t5v0__mux2_2
X_451_ net36 net140 _117_ _209_ VDD VSS gf180mcu_fd_sc_mcu9t5v0__mux2_2
X_452_ _209_ net243 _168_ _105_ VDD VSS gf180mcu_fd_sc_mcu9t5v0__mux2_2
X_453_ net37 net141 _117_ _210_ VDD VSS gf180mcu_fd_sc_mcu9t5v0__mux2_2
X_454_ _210_ net244 _168_ _106_ VDD VSS gf180mcu_fd_sc_mcu9t5v0__mux2_2
X_455_ net38 net142 _117_ _211_ VDD VSS gf180mcu_fd_sc_mcu9t5v0__mux2_2
X_456_ _211_ net245 _168_ _107_ VDD VSS gf180mcu_fd_sc_mcu9t5v0__mux2_2
X_457_ _113_ net34 _135_ _212_ VDD VSS gf180mcu_fd_sc_mcu9t5v0__aoi21_2
X_458_ _205_ _212_ _108_ VDD VSS gf180mcu_fd_sc_mcu9t5v0__or2_2
X_459_ net39 _119_ net248 _213_ VDD VSS gf180mcu_fd_sc_mcu9t5v0__aoi21_2
X_460_ _205_ _214_ VDD VSS gf180mcu_fd_sc_mcu9t5v0__clkinv_2
X_461_ net248 _214_ _231_ _215_ VDD VSS gf180mcu_fd_sc_mcu9t5v0__aoi21_2
X_462_ _213_ _215_ _109_ VDD VSS gf180mcu_fd_sc_mcu9t5v0__nor2_2
X_463_ net249 _216_ VDD VSS gf180mcu_fd_sc_mcu9t5v0__clkinv_2
X_464_ retry_count\[3\] net247 _217_ VDD VSS gf180mcu_fd_sc_mcu9t5v0__and2_2
X_465_ net72 _218_ VDD VSS gf180mcu_fd_sc_mcu9t5v0__clkinv_2
X_466_ net39 _218_ _231_ _219_ VDD VSS gf180mcu_fd_sc_mcu9t5v0__oai21_2
X_467_ _113_ _118_ _229_ _220_ VDD VSS gf180mcu_fd_sc_mcu9t5v0__aoi21_2
X_468_ _136_ _217_ _219_ _220_ _221_ VDD VSS gf180mcu_fd_sc_mcu9t5v0__oai211_2
X_469_ _231_ _233_ _222_ VDD VSS gf180mcu_fd_sc_mcu9t5v0__nor2_2
X_470_ _216_ _221_ _222_ _220_ _110_ VDD VSS gf180mcu_fd_sc_mcu9t5v0__aoi22_2
X_471_ _223_ _224_ _225_ _226_ VDD VSS gf180mcu_fd_sc_mcu9t5v0__addh_4
X_472_ _223_ state\[1\] _227_ _228_ VDD VSS gf180mcu_fd_sc_mcu9t5v0__addh_1
X_473_ _223_ state\[1\] _229_ _230_ VDD VSS gf180mcu_fd_sc_mcu9t5v0__addh_1
X_474_ state\[0\] _224_ _231_ _232_ VDD VSS gf180mcu_fd_sc_mcu9t5v0__addh_2
X_475_ state\[0\] state\[1\] _233_ _234_ VDD VSS gf180mcu_fd_sc_mcu9t5v0__addh_4
X_476_ _235_ _236_ _237_ _238_ VDD VSS gf180mcu_fd_sc_mcu9t5v0__addh_1
X_477_ retry_count\[0\] retry_count\[1\] _239_ _240_ VDD VSS
+ gf180mcu_fd_sc_mcu9t5v0__addh_1
Xclkbuf_0_clk clk clknet_0_clk VDD VSS gf180mcu_fd_sc_mcu9t5v0__clkbuf_20
X_479_ net209 net246 VDD VSS gf180mcu_fd_sc_mcu9t5v0__clkbuf_2
X_480_ net250 wb_tgd_o VDD VSS gf180mcu_fd_sc_mcu9t5v0__dlya_4
Xread_data\[0\]$_DFFE_PN0P_ _000_ net1 clknet_3_5_0_clk net143
+ VDD VSS gf180mcu_fd_sc_mcu9t5v0__dffrnq_2
Xread_data\[10\]$_DFFE_PN0P_ _001_ net1 clknet_3_4_0_clk net144
+ VDD VSS gf180mcu_fd_sc_mcu9t5v0__dffrnq_2
Xread_data\[11\]$_DFFE_PN0P_ _002_ net1 clknet_3_4_0_clk net145
+ VDD VSS gf180mcu_fd_sc_mcu9t5v0__dffrnq_2
Xread_data\[12\]$_DFFE_PN0P_ _003_ net1 clknet_3_5_0_clk net146
+ VDD VSS gf180mcu_fd_sc_mcu9t5v0__dffrnq_2
Xread_data\[13\]$_DFFE_PN0P_ _004_ net1 clknet_3_5_0_clk net147
+ VDD VSS gf180mcu_fd_sc_mcu9t5v0__dffrnq_2
Xread_data\[14\]$_DFFE_PN0P_ _005_ net1 clknet_3_5_0_clk net148
+ VDD VSS gf180mcu_fd_sc_mcu9t5v0__dffrnq_2
Xread_data\[15\]$_DFFE_PN0P_ _006_ net1 clknet_3_5_0_clk net149
+ VDD VSS gf180mcu_fd_sc_mcu9t5v0__dffrnq_2
Xread_data\[16\]$_DFFE_PN0P_ _007_ net1 clknet_3_4_0_clk net150
+ VDD VSS gf180mcu_fd_sc_mcu9t5v0__dffrnq_2
Xread_data\[17\]$_DFFE_PN0P_ _008_ net1 clknet_3_4_0_clk net151
+ VDD VSS gf180mcu_fd_sc_mcu9t5v0__dffrnq_2
Xread_data\[18\]$_DFFE_PN0P_ _009_ net1 clknet_3_5_0_clk net152
+ VDD VSS gf180mcu_fd_sc_mcu9t5v0__dffrnq_2
Xread_data\[19\]$_DFFE_PN0P_ _010_ net1 clknet_3_5_0_clk net153
+ VDD VSS gf180mcu_fd_sc_mcu9t5v0__dffrnq_2
Xread_data\[1\]$_DFFE_PN0P_ _011_ net1 clknet_3_4_0_clk net154
+ VDD VSS gf180mcu_fd_sc_mcu9t5v0__dffrnq_2
Xread_data\[20\]$_DFFE_PN0P_ _012_ net1 clknet_3_4_0_clk net155
+ VDD VSS gf180mcu_fd_sc_mcu9t5v0__dffrnq_2
Xread_data\[21\]$_DFFE_PN0P_ _013_ net1 clknet_3_4_0_clk net156
+ VDD VSS gf180mcu_fd_sc_mcu9t5v0__dffrnq_2
Xread_data\[22\]$_DFFE_PN0P_ _014_ net1 clknet_3_5_0_clk net157
+ VDD VSS gf180mcu_fd_sc_mcu9t5v0__dffrnq_2
Xread_data\[23\]$_DFFE_PN0P_ _015_ net1 clknet_3_5_0_clk net158
+ VDD VSS gf180mcu_fd_sc_mcu9t5v0__dffrnq_2
Xread_data\[24\]$_DFFE_PN0P_ _016_ net1 clknet_3_5_0_clk net159
+ VDD VSS gf180mcu_fd_sc_mcu9t5v0__dffrnq_2
Xread_data\[25\]$_DFFE_PN0P_ _017_ net1 clknet_3_5_0_clk net160
+ VDD VSS gf180mcu_fd_sc_mcu9t5v0__dffrnq_2
Xread_data\[26\]$_DFFE_PN0P_ _018_ net1 clknet_3_5_0_clk net161
+ VDD VSS gf180mcu_fd_sc_mcu9t5v0__dffrnq_2
Xread_data\[27\]$_DFFE_PN0P_ _019_ net1 clknet_3_4_0_clk net162
+ VDD VSS gf180mcu_fd_sc_mcu9t5v0__dffrnq_2
Xread_data\[28\]$_DFFE_PN0P_ _020_ net1 clknet_3_0_0_clk net163
+ VDD VSS gf180mcu_fd_sc_mcu9t5v0__dffrnq_2
Xread_data\[29\]$_DFFE_PN0P_ _021_ net1 clknet_3_5_0_clk net164
+ VDD VSS gf180mcu_fd_sc_mcu9t5v0__dffrnq_2
Xread_data\[2\]$_DFFE_PN0P_ _022_ net1 clknet_3_5_0_clk net165
+ VDD VSS gf180mcu_fd_sc_mcu9t5v0__dffrnq_2
Xread_data\[30\]$_DFFE_PN0P_ _023_ net1 clknet_3_5_0_clk net166
+ VDD VSS gf180mcu_fd_sc_mcu9t5v0__dffrnq_2
Xread_data\[31\]$_DFFE_PN0P_ _024_ net1 clknet_3_5_0_clk net167
+ VDD VSS gf180mcu_fd_sc_mcu9t5v0__dffrnq_2
Xread_data\[3\]$_DFFE_PN0P_ _025_ net1 clknet_3_4_0_clk net168
+ VDD VSS gf180mcu_fd_sc_mcu9t5v0__dffrnq_2
Xread_data\[4\]$_DFFE_PN0P_ _026_ net1 clknet_3_5_0_clk net169
+ VDD VSS gf180mcu_fd_sc_mcu9t5v0__dffrnq_2
Xread_data\[5\]$_DFFE_PN0P_ _027_ net1 clknet_3_5_0_clk net170
+ VDD VSS gf180mcu_fd_sc_mcu9t5v0__dffrnq_2
Xread_data\[6\]$_DFFE_PN0P_ _028_ net1 clknet_3_5_0_clk net171
+ VDD VSS gf180mcu_fd_sc_mcu9t5v0__dffrnq_2
Xread_data\[7\]$_DFFE_PN0P_ _029_ net1 clknet_3_4_0_clk net172
+ VDD VSS gf180mcu_fd_sc_mcu9t5v0__dffrnq_2
Xread_data\[8\]$_DFFE_PN0P_ _030_ net1 clknet_3_5_0_clk net173
+ VDD VSS gf180mcu_fd_sc_mcu9t5v0__dffrnq_2
Xread_data\[9\]$_DFFE_PN0P_ _031_ net1 clknet_3_5_0_clk net174
+ VDD VSS gf180mcu_fd_sc_mcu9t5v0__dffrnq_2
Xread_done$_DFFE_PN0P_ _032_ net1 clknet_3_0_0_clk net175
+ VDD VSS gf180mcu_fd_sc_mcu9t5v0__dffrnq_4
Xread_err$_DFFE_PN0P_ _033_ net1 clknet_3_0_0_clk net176 VDD
+ VSS gf180mcu_fd_sc_mcu9t5v0__dffrnq_4
Xretry_count\[0\]$_DFFE_PN0P_ _034_ net1 clknet_3_0_0_clk
+ retry_count\[0\] VDD VSS gf180mcu_fd_sc_mcu9t5v0__dffrnq_2
Xretry_count\[1\]$_DFFE_PN0P_ _035_ net1 clknet_3_0_0_clk
+ retry_count\[1\] VDD VSS gf180mcu_fd_sc_mcu9t5v0__dffrnq_2
Xretry_count\[2\]$_DFFE_PN0P_ _036_ net1 clknet_3_0_0_clk
+ retry_count\[2\] VDD VSS gf180mcu_fd_sc_mcu9t5v0__dffrnq_2
Xretry_count\[3\]$_DFFE_PN0P_ _037_ net1 clknet_3_0_0_clk
+ retry_count\[3\] VDD VSS gf180mcu_fd_sc_mcu9t5v0__dffrnq_2
Xstate\[0\]$_DFFE_PN0P_ _038_ net1 clknet_3_0_0_clk state\[0\]
+ VDD VSS gf180mcu_fd_sc_mcu9t5v0__dffrnq_2
Xstate\[1\]$_DFFE_PN0P_ _039_ net1 clknet_3_0_0_clk state\[1\]
+ VDD VSS gf180mcu_fd_sc_mcu9t5v0__dffrnq_2
Xwb_adr_o\[0\]$_DFFE_PN0P_ _040_ net1 clknet_3_2_0_clk net177
+ VDD VSS gf180mcu_fd_sc_mcu9t5v0__dffrnq_2
Xwb_adr_o\[10\]$_DFFE_PN0P_ _041_ net1 clknet_3_3_0_clk net178
+ VDD VSS gf180mcu_fd_sc_mcu9t5v0__dffrnq_2
Xwb_adr_o\[11\]$_DFFE_PN0P_ _042_ net1 clknet_3_6_0_clk net179
+ VDD VSS gf180mcu_fd_sc_mcu9t5v0__dffrnq_2
Xwb_adr_o\[12\]$_DFFE_PN0P_ _043_ net1 clknet_3_6_0_clk net180
+ VDD VSS gf180mcu_fd_sc_mcu9t5v0__dffrnq_2
Xwb_adr_o\[13\]$_DFFE_PN0P_ _044_ net1 clknet_3_2_0_clk net181
+ VDD VSS gf180mcu_fd_sc_mcu9t5v0__dffrnq_2
Xwb_adr_o\[14\]$_DFFE_PN0P_ _045_ net1 clknet_3_2_0_clk net182
+ VDD VSS gf180mcu_fd_sc_mcu9t5v0__dffrnq_2
Xwb_adr_o\[15\]$_DFFE_PN0P_ _046_ net1 clknet_3_7_0_clk net183
+ VDD VSS gf180mcu_fd_sc_mcu9t5v0__dffrnq_2
Xwb_adr_o\[16\]$_DFFE_PN0P_ _047_ net1 clknet_3_2_0_clk net184
+ VDD VSS gf180mcu_fd_sc_mcu9t5v0__dffrnq_2
Xwb_adr_o\[17\]$_DFFE_PN0P_ _048_ net1 clknet_3_2_0_clk net185
+ VDD VSS gf180mcu_fd_sc_mcu9t5v0__dffrnq_2
Xwb_adr_o\[18\]$_DFFE_PN0P_ _049_ net1 clknet_3_2_0_clk net186
+ VDD VSS gf180mcu_fd_sc_mcu9t5v0__dffrnq_2
Xwb_adr_o\[19\]$_DFFE_PN0P_ _050_ net1 clknet_3_6_0_clk net187
+ VDD VSS gf180mcu_fd_sc_mcu9t5v0__dffrnq_2
Xwb_adr_o\[1\]$_DFFE_PN0P_ _051_ net1 clknet_3_6_0_clk net188
+ VDD VSS gf180mcu_fd_sc_mcu9t5v0__dffrnq_2
Xwb_adr_o\[20\]$_DFFE_PN0P_ _052_ net1 clknet_3_6_0_clk net189
+ VDD VSS gf180mcu_fd_sc_mcu9t5v0__dffrnq_2
Xwb_adr_o\[21\]$_DFFE_PN0P_ _053_ net1 clknet_3_6_0_clk net190
+ VDD VSS gf180mcu_fd_sc_mcu9t5v0__dffrnq_2
Xwb_adr_o\[22\]$_DFFE_PN0P_ _054_ net1 clknet_3_7_0_clk net191
+ VDD VSS gf180mcu_fd_sc_mcu9t5v0__dffrnq_2
Xwb_adr_o\[23\]$_DFFE_PN0P_ _055_ net1 clknet_3_7_0_clk net192
+ VDD VSS gf180mcu_fd_sc_mcu9t5v0__dffrnq_2
Xwb_adr_o\[24\]$_DFFE_PN0P_ _056_ net1 clknet_3_7_0_clk net193
+ VDD VSS gf180mcu_fd_sc_mcu9t5v0__dffrnq_2
Xwb_adr_o\[25\]$_DFFE_PN0P_ _057_ net1 clknet_3_7_0_clk net194
+ VDD VSS gf180mcu_fd_sc_mcu9t5v0__dffrnq_2
Xwb_adr_o\[26\]$_DFFE_PN0P_ _058_ net1 clknet_3_6_0_clk net195
+ VDD VSS gf180mcu_fd_sc_mcu9t5v0__dffrnq_2
Xwb_adr_o\[27\]$_DFFE_PN0P_ _059_ net1 clknet_3_7_0_clk net196
+ VDD VSS gf180mcu_fd_sc_mcu9t5v0__dffrnq_2
Xwb_adr_o\[28\]$_DFFE_PN0P_ _060_ net1 clknet_3_1_0_clk net197
+ VDD VSS gf180mcu_fd_sc_mcu9t5v0__dffrnq_2
Xwb_adr_o\[29\]$_DFFE_PN0P_ _061_ net1 clknet_3_1_0_clk net198
+ VDD VSS gf180mcu_fd_sc_mcu9t5v0__dffrnq_2
Xwb_adr_o\[2\]$_DFFE_PN0P_ _062_ net1 clknet_3_1_0_clk net199
+ VDD VSS gf180mcu_fd_sc_mcu9t5v0__dffrnq_2
Xwb_adr_o\[30\]$_DFFE_PN0P_ _063_ net1 clknet_3_1_0_clk net200
+ VDD VSS gf180mcu_fd_sc_mcu9t5v0__dffrnq_2
Xwb_adr_o\[31\]$_DFFE_PN0P_ _064_ net1 clknet_3_1_0_clk net201
+ VDD VSS gf180mcu_fd_sc_mcu9t5v0__dffrnq_2
Xwb_adr_o\[3\]$_DFFE_PN0P_ _065_ net1 clknet_3_1_0_clk net202
+ VDD VSS gf180mcu_fd_sc_mcu9t5v0__dffrnq_2
Xwb_adr_o\[4\]$_DFFE_PN0P_ _066_ net1 clknet_3_1_0_clk net203
+ VDD VSS gf180mcu_fd_sc_mcu9t5v0__dffrnq_2
Xwb_adr_o\[5\]$_DFFE_PN0P_ _067_ net1 clknet_3_1_0_clk net204
+ VDD VSS gf180mcu_fd_sc_mcu9t5v0__dffrnq_2
Xwb_adr_o\[6\]$_DFFE_PN0P_ _068_ net1 clknet_3_1_0_clk net205
+ VDD VSS gf180mcu_fd_sc_mcu9t5v0__dffrnq_2
Xwb_adr_o\[7\]$_DFFE_PN0P_ _069_ net1 clknet_3_1_0_clk net206
+ VDD VSS gf180mcu_fd_sc_mcu9t5v0__dffrnq_2
Xwb_adr_o\[8\]$_DFFE_PN0P_ _070_ net1 clknet_3_3_0_clk net207
+ VDD VSS gf180mcu_fd_sc_mcu9t5v0__dffrnq_2
Xwb_adr_o\[9\]$_DFFE_PN0P_ _071_ net1 clknet_3_3_0_clk net208
+ VDD VSS gf180mcu_fd_sc_mcu9t5v0__dffrnq_2
Xwb_cyc_o$_DFF_PN0_ _242_ net1 clknet_3_0_0_clk net209 VDD
+ VSS gf180mcu_fd_sc_mcu9t5v0__dffrnq_4
Xwb_dat_o\[0\]$_DFFE_PN0P_ _072_ net1 clknet_3_3_0_clk net210
+ VDD VSS gf180mcu_fd_sc_mcu9t5v0__dffrnq_2
Xwb_dat_o\[10\]$_DFFE_PN0P_ _073_ net1 clknet_3_3_0_clk net211
+ VDD VSS gf180mcu_fd_sc_mcu9t5v0__dffrnq_2
Xwb_dat_o\[11\]$_DFFE_PN0P_ _074_ net1 clknet_3_3_0_clk net212
+ VDD VSS gf180mcu_fd_sc_mcu9t5v0__dffrnq_2
Xwb_dat_o\[12\]$_DFFE_PN0P_ _075_ net1 clknet_3_2_0_clk net213
+ VDD VSS gf180mcu_fd_sc_mcu9t5v0__dffrnq_2
Xwb_dat_o\[13\]$_DFFE_PN0P_ _076_ net1 clknet_3_3_0_clk net214
+ VDD VSS gf180mcu_fd_sc_mcu9t5v0__dffrnq_2
Xwb_dat_o\[14\]$_DFFE_PN0P_ _077_ net1 clknet_3_3_0_clk net215
+ VDD VSS gf180mcu_fd_sc_mcu9t5v0__dffrnq_2
Xwb_dat_o\[15\]$_DFFE_PN0P_ _078_ net1 clknet_3_3_0_clk net216
+ VDD VSS gf180mcu_fd_sc_mcu9t5v0__dffrnq_2
Xwb_dat_o\[16\]$_DFFE_PN0P_ _079_ net1 clknet_3_3_0_clk net217
+ VDD VSS gf180mcu_fd_sc_mcu9t5v0__dffrnq_2
Xwb_dat_o\[17\]$_DFFE_PN0P_ _080_ net1 clknet_3_6_0_clk net218
+ VDD VSS gf180mcu_fd_sc_mcu9t5v0__dffrnq_2
Xwb_dat_o\[18\]$_DFFE_PN0P_ _081_ net1 clknet_3_6_0_clk net219
+ VDD VSS gf180mcu_fd_sc_mcu9t5v0__dffrnq_2
Xwb_dat_o\[19\]$_DFFE_PN0P_ _082_ net1 clknet_3_6_0_clk net220
+ VDD VSS gf180mcu_fd_sc_mcu9t5v0__dffrnq_2
Xwb_dat_o\[1\]$_DFFE_PN0P_ _083_ net1 clknet_3_7_0_clk net221
+ VDD VSS gf180mcu_fd_sc_mcu9t5v0__dffrnq_2
Xwb_dat_o\[20\]$_DFFE_PN0P_ _084_ net1 clknet_3_7_0_clk net222
+ VDD VSS gf180mcu_fd_sc_mcu9t5v0__dffrnq_2
Xwb_dat_o\[21\]$_DFFE_PN0P_ _085_ net1 clknet_3_7_0_clk net223
+ VDD VSS gf180mcu_fd_sc_mcu9t5v0__dffrnq_2
Xwb_dat_o\[22\]$_DFFE_PN0P_ _086_ net1 clknet_3_7_0_clk net224
+ VDD VSS gf180mcu_fd_sc_mcu9t5v0__dffrnq_2
Xwb_dat_o\[23\]$_DFFE_PN0P_ _087_ net1 clknet_3_7_0_clk net225
+ VDD VSS gf180mcu_fd_sc_mcu9t5v0__dffrnq_2
Xwb_dat_o\[24\]$_DFFE_PN0P_ _088_ net1 clknet_3_6_0_clk net226