
* cell parameterized_i2c_master
* pin VSS,scl,sda
* pin start
* pin stop
* pin ack_error
* pin busy
* pin scl_internal_debug
* pin phase[1]
* pin phase[0]
* pin VDD
* pin rst_n
* pin state[3]
* pin state[1]
* pin state[0]
* pin write
* pin state[2]
* pin done
* pin read
* pin data_in[0]
* pin clk
* pin sda_internal_debug
* pin data_in[6]
* pin data_out[7]
* pin shift_reg_debug[7]
* pin bit_counter_debug[2]
* pin shift_reg_debug[5]
* pin data_out[5]
* pin bit_counter_debug[0]
* pin addr[4]
* pin data_out[1]
* pin bit_counter_debug[1]
* pin data_in[5]
* pin addr[0]
* pin shift_reg_debug[2]
* pin addr[5]
* pin addr[2]
* pin data_in[3]
* pin data_in[4]
* pin addr[1]
* pin data_in[2]
* pin shift_reg_debug[0]
* pin data_in[1]
* pin shift_reg_debug[3]
* pin addr[3]
* pin data_in[7]
* pin addr[6]
* pin data_out[3]
* pin data_out[0]
* pin data_out[4]
* pin shift_reg_debug[1]
* pin shift_reg_debug[4]
* pin data_out[2]
* pin shift_reg_debug[6]
* pin data_out[6]
.SUBCKT parameterized_i2c_master 1 2 3 4 5 6 7 8 19 26 62 79 112 145 158 169
+ 180 181 195 203 217 244 245 248 270 277 294 302 305 308 313 328 329 331 337
+ 339 340 341 342 343 344 345 347 348 349 350 351 352 353 354 355 356 357
* net 1 VSS,scl,sda
* net 2 start
* net 3 stop
* net 4 ack_error
* net 5 busy
* net 6 scl_internal_debug
* net 7 phase[1]
* net 8 phase[0]
* net 19 VDD
* net 26 rst_n
* net 62 state[3]
* net 79 state[1]
* net 112 state[0]
* net 145 write
* net 158 state[2]
* net 169 done
* net 180 read
* net 181 data_in[0]
* net 195 clk
* net 203 sda_internal_debug
* net 217 data_in[6]
* net 244 data_out[7]
* net 245 shift_reg_debug[7]
* net 248 bit_counter_debug[2]
* net 270 shift_reg_debug[5]
* net 277 data_out[5]
* net 294 bit_counter_debug[0]
* net 302 addr[4]
* net 305 data_out[1]
* net 308 bit_counter_debug[1]
* net 313 data_in[5]
* net 328 addr[0]
* net 329 shift_reg_debug[2]
* net 331 addr[5]
* net 337 addr[2]
* net 339 data_in[3]
* net 340 data_in[4]
* net 341 addr[1]
* net 342 data_in[2]
* net 343 shift_reg_debug[0]
* net 344 data_in[1]
* net 345 shift_reg_debug[3]
* net 347 addr[3]
* net 348 data_in[7]
* net 349 addr[6]
* net 350 data_out[3]
* net 351 data_out[0]
* net 352 data_out[4]
* net 353 shift_reg_debug[1]
* net 354 shift_reg_debug[4]
* net 355 data_out[2]
* net 356 shift_reg_debug[6]
* net 357 data_out[6]
* cell instance $20 r0 *1 15.64,2.72
X$20 1 10 12 11 9 19 19 1 sky130_fd_sc_hd__dfrtp_1
* cell instance $22 r0 *1 25.3,2.72
X$22 19 12 1 19 5 1 sky130_fd_sc_hd__clkdlybuf4s50_1
* cell instance $24 r0 *1 29.44,2.72
X$24 19 2 1 19 17 1 sky130_fd_sc_hd__clkdlybuf4s50_1
* cell instance $26 r0 *1 34.04,2.72
X$26 19 16 1 19 6 1 sky130_fd_sc_hd__clkdlybuf4s50_1
* cell instance $29 r0 *1 39.1,2.72
X$29 19 3 1 19 14 1 sky130_fd_sc_hd__clkdlybuf4s50_1
* cell instance $34 r0 *1 45.54,2.72
X$34 19 15 1 19 4 1 sky130_fd_sc_hd__clkdlybuf4s50_1
* cell instance $40 r0 *1 61.18,2.72
X$40 1 10 13 31 20 19 19 1 sky130_fd_sc_hd__dfrtp_1
* cell instance $43 r0 *1 70.84,2.72
X$43 19 13 19 1 24 1 sky130_fd_sc_hd__buf_4
* cell instance $60 m0 *1 11.5,8.16
X$60 1 10 44 11 32 19 19 1 sky130_fd_sc_hd__dfstp_2
* cell instance $67 m0 *1 31.74,8.16
X$67 19 34 86 21 19 1 1 sky130_fd_sc_hd__nand2_1
* cell instance $70 m0 *1 35.42,8.16
X$70 1 10 18 11 22 19 19 1 sky130_fd_sc_hd__dfrtp_1
* cell instance $72 m0 *1 45.54,8.16
X$72 19 29 1 19 7 1 sky130_fd_sc_hd__clkdlybuf4s50_1
* cell instance $73 m0 *1 49.22,8.16
X$73 19 18 1 19 8 1 sky130_fd_sc_hd__clkdlybuf4s50_1
* cell instance $78 m0 *1 61.18,8.16
X$78 1 20 27 24 40 19 19 1 sky130_fd_sc_hd__mux2_2
* cell instance $83 m0 *1 77.28,8.16
X$83 19 25 19 1 10 1 sky130_fd_sc_hd__buf_4
* cell instance $84 m0 *1 80.04,8.16
X$84 19 33 1 25 19 1 sky130_fd_sc_hd__buf_2
* cell instance $91 r0 *1 13.8,8.16
X$91 19 28 42 32 19 1 1 sky130_fd_sc_hd__nand2_1
* cell instance $98 r0 *1 22.54,8.16
X$98 19 12 28 23 1 19 9 1 sky130_fd_sc_hd__a21o_1
* cell instance $99 r0 *1 25.3,8.16
X$99 1 10 16 11 21 19 19 1 sky130_fd_sc_hd__dfstp_2
* cell instance $100 r0 *1 34.96,8.16
X$100 19 16 28 34 19 1 1 sky130_fd_sc_hd__nand2_1
* cell instance $108 r0 *1 47.84,8.16
X$108 1 36 15 35 28 24 30 19 19 1 sky130_fd_sc_hd__o41a_1
* cell instance $109 r0 *1 51.98,8.16
X$109 1 10 15 31 36 19 19 1 sky130_fd_sc_hd__dfrtp_1
* cell instance $110 r0 *1 61.18,8.16
X$110 1 10 30 31 45 19 19 1 sky130_fd_sc_hd__dfrtp_1
* cell instance $116 r0 *1 79.12,8.16
X$116 19 26 19 33 1 1 sky130_fd_sc_hd__dlygate4sd3_1
* cell instance $121 m0 *1 12.88,13.6
X$121 19 37 44 42 19 1 1 sky130_fd_sc_hd__xnor2_1
* cell instance $137 m0 *1 45.54,13.6
X$137 1 358 39 18 29 19 19 1 sky130_fd_sc_hd__ha_1
* cell instance $138 m0 *1 50.14,13.6
X$138 19 39 19 1 38 1 sky130_fd_sc_hd__buf_4
* cell instance $144 m0 *1 60.26,13.6
X$144 1 45 46 30 40 19 19 1 sky130_fd_sc_hd__mux2_2
* cell instance $148 m0 *1 67.62,13.6
X$148 1 10 41 31 43 19 19 1 sky130_fd_sc_hd__dfrtp_1
* cell instance $151 m0 *1 76.82,13.6
X$151 19 41 19 1 49 1 sky130_fd_sc_hd__buf_4
* cell instance $162 r0 *1 15.64,13.6
X$162 1 10 52 11 64 19 19 1 sky130_fd_sc_hd__dfstp_2
* cell instance $168 r0 *1 35.88,13.6
X$168 19 47 38 54 1 19 1 sky130_fd_sc_hd__nand2b_1
* cell instance $169 r0 *1 38.18,13.6
X$169 19 54 24 28 53 1 23 19 1 sky130_fd_sc_hd__a211oi_1
* cell instance $178 r0 *1 59.8,13.6
X$178 19 49 19 1 48 1 sky130_fd_sc_hd__inv_1
* cell instance $179 r0 *1 61.18,13.6
X$179 19 48 50 51 19 43 1 1 sky130_fd_sc_hd__o21ai_0
* cell instance $186 r0 *1 75.44,13.6
X$186 19 24 1 19 62 1 sky130_fd_sc_hd__clkdlybuf4s50_1
* cell instance $191 m0 *1 4.6,19.04
X$191 1 10 63 11 80 19 19 1 sky130_fd_sc_hd__dfrtp_1
* cell instance $192 m0 *1 13.8,19.04
X$192 19 52 63 65 37 1 19 1 sky130_fd_sc_hd__nor3_1
* cell instance $195 m0 *1 15.64,19.04
X$195 19 66 52 19 64 1 1 sky130_fd_sc_hd__xor2_1
* cell instance $203 m0 *1 34.04,19.04
X$203 1 359 68 55 29 19 19 1 sky130_fd_sc_hd__ha_1
* cell instance $205 m0 *1 39.1,19.04
X$205 19 18 19 1 55 1 sky130_fd_sc_hd__inv_1
* cell instance $211 m0 *1 48.76,19.04
X$211 19 17 56 48 57 1 19 35 1 sky130_fd_sc_hd__a31oi_1
* cell instance $212 m0 *1 51.06,19.04
X$212 1 58 57 49 68 19 19 1 sky130_fd_sc_hd__and3_1
* cell instance $214 m0 *1 53.82,19.04
X$214 19 38 49 68 1 19 91 1 sky130_fd_sc_hd__a21boi_0
* cell instance $217 m0 *1 57.96,19.04
X$217 19 30 58 38 88 1 19 1 sky130_fd_sc_hd__nor3_1
* cell instance $218 m0 *1 59.8,19.04
X$218 19 50 48 69 59 19 51 1 1 sky130_fd_sc_hd__nand4_1
* cell instance $219 m0 *1 62.1,19.04
X$219 19 49 50 59 19 1 40 1 sky130_fd_sc_hd__o21ai_1
* cell instance $220 m0 *1 63.94,19.04
X$220 19 167 40 75 56 60 1 19 1 sky130_fd_sc_hd__o22ai_1
* cell instance $223 m0 *1 68.54,19.04
X$223 19 58 19 1 56 1 sky130_fd_sc_hd__inv_1
* cell instance $226 m0 *1 69.92,19.04
X$226 1 10 61 31 60 19 19 1 sky130_fd_sc_hd__dfrtp_1
* cell instance $227 m0 *1 79.12,19.04
X$227 19 61 19 1 58 1 sky130_fd_sc_hd__buf_4
* cell instance $230 r0 *1 3.22,19.04
X$230 1 10 65 11 73 19 19 1 sky130_fd_sc_hd__dfrtp_1
* cell instance $231 r0 *1 12.42,19.04
X$231 19 65 19 1 81 1 sky130_fd_sc_hd__inv_1
* cell instance $232 r0 *1 13.8,19.04
X$232 19 63 19 1 82 1 sky130_fd_sc_hd__inv_1
* cell instance $236 r0 *1 15.64,19.04
X$236 19 52 44 83 1 19 1 sky130_fd_sc_hd__nor2_1
* cell instance $238 r0 *1 17.94,19.04
X$238 1 84 66 44 93 52 19 19 1 sky130_fd_sc_hd__or4b_4
* cell instance $239 r0 *1 23,19.04
X$239 19 67 76 85 19 74 1 1 sky130_fd_sc_hd__o21ai_0
* cell instance $240 r0 *1 24.84,19.04
X$240 1 10 29 11 74 19 19 1 sky130_fd_sc_hd__dfrtp_1
* cell instance $242 r0 *1 34.96,19.04
X$242 19 30 49 58 47 1 19 1 sky130_fd_sc_hd__nor3_1
* cell instance $243 r0 *1 36.8,19.04
X$243 19 29 19 1 67 1 sky130_fd_sc_hd__inv_1
* cell instance $244 r0 *1 38.18,19.04
X$244 1 362 90 18 67 19 19 1 sky130_fd_sc_hd__ha_1
* cell instance $249 r0 *1 43.7,19.04
X$249 1 28 50 53 92 69 89 19 19 1 sky130_fd_sc_hd__a2111oi_4
* cell instance $250 r0 *1 53.82,19.04
X$250 1 38 89 48 91 58 72 19 19 1 sky130_fd_sc_hd__o32ai_1
* cell instance $252 r0 *1 60.72,19.04
X$252 19 69 88 70 1 19 1 sky130_fd_sc_hd__nor2_1
* cell instance $253 r0 *1 62.1,19.04
X$253 1 50 70 49 71 87 75 19 19 1 sky130_fd_sc_hd__o221a_2
* cell instance $260 r0 *1 71.76,19.04
X$260 19 30 19 1 72 1 sky130_fd_sc_hd__inv_1
* cell instance $272 m0 *1 10.12,24.48
X$272 19 65 76 73 1 19 1 sky130_fd_sc_hd__nor2_1
* cell instance $274 m0 *1 11.96,24.48
X$274 19 99 76 80 1 19 1 sky130_fd_sc_hd__nor2_1
* cell instance $275 m0 *1 13.34,24.48
X$275 1 99 66 81 82 19 19 1 sky130_fd_sc_hd__ha_1
* cell instance $279 m0 *1 23.92,24.48
X$279 19 77 76 85 19 1 1 sky130_fd_sc_hd__nand2_1
* cell instance $283 m0 *1 29.9,24.48
X$283 1 24 86 76 77 47 101 19 19 1 sky130_fd_sc_hd__o311ai_0
* cell instance $284 m0 *1 33.12,24.48
X$284 1 77 95 55 67 19 19 1 sky130_fd_sc_hd__ha_1
* cell instance $285 m0 *1 37.72,24.48
X$285 19 55 76 78 19 22 1 1 sky130_fd_sc_hd__o21ai_0
* cell instance $287 m0 *1 40.02,24.48
X$287 19 95 68 76 19 78 1 1 sky130_fd_sc_hd__o21ai_0
* cell instance $295 m0 *1 61.64,24.48
X$295 19 30 69 71 19 1 1 sky130_fd_sc_hd__nand2_1
* cell instance $301 m0 *1 73.6,24.48
X$301 19 30 1 19 79 1 sky130_fd_sc_hd__clkdlybuf4s50_1
* cell instance $302 m0 *1 77.28,24.48
X$302 19 49 1 19 112 1 sky130_fd_sc_hd__clkdlybuf4s50_1
* cell instance $309 r0 *1 11.96,24.48
X$309 19 65 93 63 83 1 94 19 1 sky130_fd_sc_hd__nor4b_1
* cell instance $314 r0 *1 17.02,24.48
X$314 19 66 83 103 19 1 1 sky130_fd_sc_hd__nand2_1
* cell instance $316 r0 *1 19.32,24.48
X$316 19 93 103 113 19 1 1 sky130_fd_sc_hd__nand2_1
* cell instance $319 r0 *1 22.08,24.48
X$319 19 132 84 105 19 104 1 1 sky130_fd_sc_hd__o21ai_0
* cell instance $322 r0 *1 26.22,24.48
X$322 19 107 84 28 1 19 1 sky130_fd_sc_hd__nand2b_1
* cell instance $325 r0 *1 32.66,24.48
X$325 19 94 17 107 106 19 151 1 1 sky130_fd_sc_hd__nand4_1
* cell instance $326 r0 *1 34.96,24.48
X$326 19 24 95 47 101 19 1 1 sky130_fd_sc_hd__nand3_1
* cell instance $327 r0 *1 36.8,24.48
X$327 19 58 49 30 24 1 106 19 1 sky130_fd_sc_hd__nor4_1
* cell instance $328 r0 *1 39.1,24.48
X$328 19 17 19 1 118 1 sky130_fd_sc_hd__inv_1
* cell instance $329 r0 *1 40.48,24.48
X$329 19 118 106 53 19 1 1 sky130_fd_sc_hd__and2_1
* cell instance $333 r0 *1 44.16,24.48
X$333 19 90 95 110 121 1 19 1 sky130_fd_sc_hd__nor3_1
* cell instance $335 r0 *1 47.84,24.48
X$335 19 110 123 27 19 1 1 sky130_fd_sc_hd__nand2_1
* cell instance $338 r0 *1 51.98,24.48
X$338 19 30 108 69 19 96 1 1 sky130_fd_sc_hd__o21ai_0
* cell instance $340 r0 *1 57.5,24.48
X$340 19 119 96 120 19 46 1 1 sky130_fd_sc_hd__o21ai_0
* cell instance $341 r0 *1 59.34,24.48
X$341 19 14 49 38 1 19 97 1 sky130_fd_sc_hd__a21oi_1
* cell instance $344 r0 *1 62.56,24.48
X$344 19 87 38 49 97 1 19 116 1 sky130_fd_sc_hd__a31oi_1
* cell instance $347 r0 *1 66.24,24.48
X$347 1 111 98 100 115 19 19 1 sky130_fd_sc_hd__mux2_2
* cell instance $351 r0 *1 71.76,24.48
X$351 1 10 98 31 111 19 19 1 sky130_fd_sc_hd__dfstp_2
* cell instance $364 m0 *1 8.28,29.92
X$364 1 10 93 11 102 19 19 1 sky130_fd_sc_hd__dfstp_2
* cell instance $365 m0 *1 17.94,29.92
X$365 19 28 104 160 19 1 1 sky130_fd_sc_hd__nand2_1
* cell instance $366 m0 *1 19.32,29.92
X$366 19 84 113 102 19 1 1 sky130_fd_sc_hd__nand2_1
* cell instance $367 m0 *1 20.7,29.92
X$367 1 154 11 19 19 1 sky130_fd_sc_hd__clkbuf_8
* cell instance $369 m0 *1 26.22,29.92
X$369 19 132 105 107 1 19 1 sky130_fd_sc_hd__nor2_1
* cell instance $374 m0 *1 30.36,29.92
X$374 19 58 122 77 69 129 19 1 1 sky130_fd_sc_hd__o211ai_1
* cell instance $375 m0 *1 33.12,29.92
X$375 19 107 94 129 109 19 1 1 sky130_fd_sc_hd__nand3_1
* cell instance $378 m0 *1 39.1,29.92
X$378 19 130 108 118 106 19 141 1 1 sky130_fd_sc_hd__a22oi_1
* cell instance $379 m0 *1 41.86,29.92
X$379 1 130 68 38 30 19 19 1 sky130_fd_sc_hd__mux2i_1
* cell instance $380 m0 *1 45.54,29.92
X$380 19 121 92 109 115 1 19 1 sky130_fd_sc_hd__nor3_1
* cell instance $381 m0 *1 47.38,29.92
X$381 19 124 38 110 1 19 1 sky130_fd_sc_hd__nand2b_1
* cell instance $384 m0 *1 51.06,29.92
X$384 19 58 49 108 1 19 1 sky130_fd_sc_hd__nor2b_1
* cell instance $391 m0 *1 58.42,29.92
X$391 19 38 125 124 120 19 1 1 sky130_fd_sc_hd__nand3_1
* cell instance $392 m0 *1 60.26,29.92
X$392 19 125 14 87 1 19 1 sky130_fd_sc_hd__nand2b_1
* cell instance $395 m0 *1 63.94,29.92
X$395 19 128 116 71 58 117 1 19 1 sky130_fd_sc_hd__o22ai_1
* cell instance $396 m0 *1 66.24,29.92
X$396 19 38 68 24 19 126 1 1 sky130_fd_sc_hd__o21ai_0
* cell instance $397 m0 *1 68.08,29.92
X$397 19 49 114 126 72 127 19 1 1 sky130_fd_sc_hd__o211ai_1
* cell instance $407 r0 *1 13.8,29.92
X$407 19 28 131 148 19 1 1 sky130_fd_sc_hd__nand2_1
* cell instance $410 r0 *1 15.64,29.92
X$410 19 94 132 131 19 1 1 sky130_fd_sc_hd__xnor2_1
* cell instance $411 r0 *1 18.86,29.92
X$411 1 132 76 105 84 19 19 1 sky130_fd_sc_hd__nor3_4
* cell instance $414 r0 *1 27.14,29.92
X$414 19 84 132 24 105 1 133 19 1 sky130_fd_sc_hd__nor4_1
* cell instance $415 r0 *1 29.44,29.92
X$415 19 49 30 122 1 19 1 sky130_fd_sc_hd__nor2b_1
* cell instance $419 r0 *1 34.96,29.92
X$419 1 1 76 140 38 19 19 sky130_fd_sc_hd__nand2_2
* cell instance $425 r0 *1 43.7,29.92
X$425 19 134 133 141 143 19 150 1 1 sky130_fd_sc_hd__nand4_1
* cell instance $427 r0 *1 47.84,29.92
X$427 19 38 15 124 134 19 1 1 sky130_fd_sc_hd__nand3_1
* cell instance $428 r0 *1 49.68,29.92
X$428 19 30 49 58 24 124 1 19 1 sky130_fd_sc_hd__nor4bb_1
* cell instance $429 r0 *1 53.36,29.92
X$429 19 14 125 135 1 19 1 sky130_fd_sc_hd__nor2b_1
* cell instance $430 r0 *1 55.66,29.92
X$430 19 30 49 144 19 1 1 sky130_fd_sc_hd__nand2_1
* cell instance $431 r0 *1 57.04,29.92
X$431 19 144 58 135 1 19 119 1 sky130_fd_sc_hd__a21oi_1
* cell instance $434 r0 *1 61.18,29.92
X$434 19 58 68 142 1 19 1 sky130_fd_sc_hd__nor2b_1
* cell instance $435 r0 *1 63.48,29.92
X$435 19 24 38 142 157 19 1 138 1 sky130_fd_sc_hd__o31ai_1
* cell instance $436 r0 *1 66.24,29.92
X$436 19 136 117 139 137 100 19 1 1 sky130_fd_sc_hd__o211ai_1
* cell instance $441 r0 *1 70.84,29.92
X$441 19 127 49 138 1 19 136 1 sky130_fd_sc_hd__a21oi_1
* cell instance $444 r0 *1 77.28,29.92
X$444 19 58 1 19 158 1 sky130_fd_sc_hd__clkdlybuf4s50_1
* cell instance $456 m0 *1 8.28,35.36
X$456 1 10 132 11 148 19 19 1 sky130_fd_sc_hd__dfstp_2
* cell instance $457 m0 *1 17.94,35.36
X$457 1 10 105 11 160 19 19 1 sky130_fd_sc_hd__dfstp_2
* cell instance $464 m0 *1 35.88,35.36
X$464 19 24 47 146 19 1 1 sky130_fd_sc_hd__nand2_1
* cell instance $465 m0 *1 37.26,35.36
X$465 19 140 146 147 1 19 1 sky130_fd_sc_hd__nor2_1
* cell instance $468 m0 *1 41.4,35.36
X$468 19 58 49 24 30 152 1 19 1 sky130_fd_sc_hd__nor4bb_1
* cell instance $469 m0 *1 45.08,35.36
X$469 19 38 153 152 143 19 1 1 sky130_fd_sc_hd__nand3_1
* cell instance $471 m0 *1 47.38,35.36
X$471 19 155 153 152 1 19 123 1 sky130_fd_sc_hd__a21oi_1
* cell instance $472 m0 *1 49.22,35.36
X$472 19 49 24 68 19 1 149 1 sky130_fd_sc_hd__o21bai_1
* cell instance $473 m0 *1 51.98,35.36
X$473 19 144 156 135 155 1 19 1 sky130_fd_sc_hd__nor3_1
* cell instance $474 m0 *1 53.82,35.36
X$474 19 31 19 1 1 sky130_fd_sc_hd__clkinvlp_4
* cell instance $476 m0 *1 57.04,35.36
X$476 1 154 31 19 19 1 sky130_fd_sc_hd__clkbuf_8
* cell instance $478 m0 *1 63.02,35.36
X$478 19 24 58 157 1 19 1 sky130_fd_sc_hd__nand2b_1
* cell instance $480 m0 *1 65.78,35.36
X$480 19 161 98 58 38 114 19 1 1 sky130_fd_sc_hd__o211ai_1
* cell instance $484 m0 *1 73.6,35.36
X$484 1 10 159 31 147 19 19 1 sky130_fd_sc_hd__dfrtp_1
* cell instance $487 r0 *1 3.68,35.36
X$487 19 145 1 19 166 1 sky130_fd_sc_hd__clkdlybuf4s50_1
* cell instance $488 r0 *1 7.36,35.36
X$488 1 170 166 162 151 19 19 1 sky130_fd_sc_hd__mux2_2
* cell instance $497 r0 *1 28.98,35.36
X$497 19 58 163 49 19 173 1 1 sky130_fd_sc_hd__o21ai_0
* cell instance $498 r0 *1 30.82,35.36
X$498 19 49 30 164 1 19 1 sky130_fd_sc_hd__nand2b_1
* cell instance $501 r0 *1 38.64,35.36
X$501 19 24 19 1 69 1 sky130_fd_sc_hd__clkinv_1
* cell instance $507 r0 *1 43.7,35.36
X$507 19 162 14 153 1 19 1 sky130_fd_sc_hd__nand2b_1
* cell instance $509 r0 *1 46.92,35.36
X$509 19 49 38 168 19 128 1 1 sky130_fd_sc_hd__o21ai_0
* cell instance $511 r0 *1 49.22,35.36
X$511 19 24 38 178 1 19 1 sky130_fd_sc_hd__nor2_1
* cell instance $512 r0 *1 50.6,35.36
X$512 19 149 72 178 164 177 1 19 1 sky130_fd_sc_hd__o22ai_1
* cell instance $514 r0 *1 53.36,35.36
X$514 19 156 153 164 165 1 19 1 sky130_fd_sc_hd__nor3_1
* cell instance $517 r0 *1 56.58,35.36
X$517 19 165 38 124 1 19 167 1 sky130_fd_sc_hd__a21oi_1
* cell instance $521 r0 *1 63.48,35.36
X$521 19 157 38 156 161 175 1 19 1 sky130_fd_sc_hd__o22ai_1
* cell instance $523 r0 *1 66.24,35.36
X$523 19 161 98 38 19 174 1 1 sky130_fd_sc_hd__o21ai_0
* cell instance $531 r0 *1 79.12,35.36
X$531 19 159 1 19 169 1 sky130_fd_sc_hd__clkdlybuf4s50_1
* cell instance $541 m0 *1 4.6,40.8
X$541 1 10 162 11 170 19 19 1 sky130_fd_sc_hd__dfrtp_1
* cell instance $542 m0 *1 13.8,40.8
X$542 19 181 1 19 163 1 sky130_fd_sc_hd__clkdlybuf4s50_1
* cell instance $546 m0 *1 26.68,40.8
X$546 19 58 125 172 1 19 1 sky130_fd_sc_hd__nor2b_1
* cell instance $548 m0 *1 29.44,40.8
X$548 19 185 168 173 1 19 171 1 sky130_fd_sc_hd__a21oi_1
* cell instance $549 m0 *1 31.28,40.8
X$549 1 24 185 58 172 164 163 19 19 1 sky130_fd_sc_hd__a2111oi_0
* cell instance $551 m0 *1 35.42,40.8
X$551 19 24 30 168 1 19 1 sky130_fd_sc_hd__nor2b_1
* cell instance $553 m0 *1 38.18,40.8
X$553 1 195 154 19 19 1 sky130_fd_sc_hd__clkbuf_8
* cell instance $555 m0 *1 44.16,40.8
X$555 19 58 30 182 19 1 1 sky130_fd_sc_hd__xnor2_1
* cell instance $556 m0 *1 47.38,40.8
X$556 19 48 24 182 179 1 19 1 sky130_fd_sc_hd__nor3_1
* cell instance $559 m0 *1 51.52,40.8
X$559 19 69 48 56 1 19 176 1 sky130_fd_sc_hd__a21oi_1
* cell instance $560 m0 *1 53.36,40.8
X$560 1 183 137 187 176 193 165 19 19 1 sky130_fd_sc_hd__a2111oi_0
* cell instance $565 m0 *1 63.02,40.8
X$565 19 72 175 24 206 59 19 1 1 sky130_fd_sc_hd__o2bb2a_1
* cell instance $568 m0 *1 68.08,40.8
X$568 19 186 174 30 184 1 19 183 1 sky130_fd_sc_hd__a31oi_1
* cell instance $569 m0 *1 70.38,40.8
X$569 19 49 24 58 184 19 1 1 sky130_fd_sc_hd__or3_1
* cell instance $577 r0 *1 9.2,40.8
X$577 19 180 1 19 188 1 sky130_fd_sc_hd__clkdlybuf4s50_1
* cell instance $582 r0 *1 15.64,40.8
X$582 1 202 188 125 151 19 19 1 sky130_fd_sc_hd__mux2_2
* cell instance $586 r0 *1 26.22,40.8
X$586 19 188 196 171 19 191 1 1 sky130_fd_sc_hd__o21ai_0
* cell instance $587 r0 *1 28.06,40.8
X$587 19 58 49 30 189 1 19 196 1 sky130_fd_sc_hd__a31oi_1
* cell instance $588 r0 *1 30.36,40.8
X$588 19 30 49 69 19 189 1 1 sky130_fd_sc_hd__o21ai_0
* cell instance $589 r0 *1 32.2,40.8
X$589 19 69 58 122 227 19 1 1 sky130_fd_sc_hd__nand3_1
* cell instance $596 r0 *1 43.24,40.8
X$596 19 58 30 24 49 190 1 19 1 sky130_fd_sc_hd__nor4bb_1
* cell instance $597 r0 *1 46.92,40.8
X$597 1 92 15 38 190 124 198 19 19 1 sky130_fd_sc_hd__a32o_1
* cell instance $598 r0 *1 50.6,40.8
X$598 19 15 125 124 38 19 194 1 1 sky130_fd_sc_hd__nand4b_1
* cell instance $599 r0 *1 53.82,40.8
X$599 19 124 38 192 1 19 193 1 sky130_fd_sc_hd__a21boi_0
* cell instance $601 r0 *1 57.5,40.8
X$601 19 125 201 192 1 19 1 sky130_fd_sc_hd__nor2_1
* cell instance $604 r0 *1 60.26,40.8
X$604 19 58 24 156 1 19 1 sky130_fd_sc_hd__nand2b_1
* cell instance $607 r0 *1 63.94,40.8
X$607 19 156 49 30 38 1 205 19 1 sky130_fd_sc_hd__nor4_1
* cell instance $609 r0 *1 67.16,40.8
X$609 19 201 38 186 1 19 1 sky130_fd_sc_hd__nand2b_1
* cell instance $616 r0 *1 79.12,40.8
X$616 19 98 1 19 203 1 sky130_fd_sc_hd__clkdlybuf4s50_1
* cell instance $627 m0 *1 12.88,46.24
X$627 1 10 125 218 202 19 19 1 sky130_fd_sc_hd__dfrtp_1
* cell instance $630 m0 *1 27.6,46.24
X$630 19 49 58 211 19 1 1 sky130_fd_sc_hd__nand2_1
* cell instance $632 m0 *1 29.44,46.24
X$632 19 211 30 197 19 1 1 sky130_fd_sc_hd__xnor2_1
* cell instance $633 m0 *1 32.66,46.24
X$633 19 69 197 212 19 1 1 sky130_fd_sc_hd__nand2_1
* cell instance $635 m0 *1 37.72,46.24
X$635 19 58 24 49 30 1 207 19 1 sky130_fd_sc_hd__nor4b_1
* cell instance $636 m0 *1 40.94,46.24
X$636 19 207 19 1 208 1 sky130_fd_sc_hd__buf_4
* cell instance $640 m0 *1 46.92,46.24
X$640 19 208 198 213 1 19 1 sky130_fd_sc_hd__nand2b_1
* cell instance $641 m0 *1 49.22,46.24
X$641 19 56 177 213 194 231 19 1 1 sky130_fd_sc_hd__o211ai_1
* cell instance $643 m0 *1 52.9,46.24
X$643 1 210 38 209 150 199 155 19 19 1 sky130_fd_sc_hd__a221o_1
* cell instance $645 m0 *1 57.04,46.24
X$645 19 56 38 49 19 210 1 1 sky130_fd_sc_hd__o21ai_0
* cell instance $647 m0 *1 59.34,46.24
X$647 19 24 198 200 199 1 19 1 sky130_fd_sc_hd__nor3_1
* cell instance $650 m0 *1 62.56,46.24
X$650 19 161 38 198 1 19 1 sky130_fd_sc_hd__nor2b_1
* cell instance $651 m0 *1 64.86,46.24
X$651 1 206 204 56 38 198 19 19 1 sky130_fd_sc_hd__a2bb2oi_1
* cell instance $653 m0 *1 68.54,46.24
X$653 19 58 30 204 1 19 1 sky130_fd_sc_hd__nor2b_1
* cell instance $654 m0 *1 70.84,46.24
X$654 19 49 24 200 264 1 19 1 sky130_fd_sc_hd__nor3_1
* cell instance $655 m0 *1 72.68,46.24
X$655 19 30 58 200 1 19 1 sky130_fd_sc_hd__nor2_1
* cell instance $656 m0 *1 74.06,46.24
X$656 19 58 72 49 216 19 219 1 1 sky130_fd_sc_hd__nand4_1
* cell instance $662 r0 *1 4.14,46.24
X$662 1 10 225 218 229 19 19 1 sky130_fd_sc_hd__dfrtp_1
* cell instance $673 r0 *1 28.06,46.24
X$673 19 214 191 239 19 220 1 1 sky130_fd_sc_hd__o21ai_0
* cell instance $674 r0 *1 29.9,46.24
X$674 1 10 226 224 220 19 19 1 sky130_fd_sc_hd__dfrtp_1
* cell instance $682 r0 *1 44.62,46.24
X$682 19 190 19 1 222 1 sky130_fd_sc_hd__buf_4
* cell instance $690 r0 *1 68.54,46.24
X$690 19 24 223 219 1 19 230 1 sky130_fd_sc_hd__a21oi_1
* cell instance $696 r0 *1 71.76,46.24
X$696 19 204 215 223 19 1 1 sky130_fd_sc_hd__nand2_1
* cell instance $697 r0 *1 73.14,46.24
X$697 1 215 221 216 49 19 19 1 sky130_fd_sc_hd__mux2_2
* cell instance $699 r0 *1 77.74,46.24
X$699 19 217 1 19 216 1 sky130_fd_sc_hd__clkdlybuf4s50_1
* cell instance $704 m0 *1 5.52,51.68
X$704 1 229 225 201 228 19 19 1 sky130_fd_sc_hd__mux2_2
* cell instance $708 m0 *1 18.86,51.68
X$708 19 218 1 19 1 sky130_fd_sc_hd__clkbuf_1
* cell instance $709 m0 *1 20.24,51.68
X$709 1 154 218 19 19 1 sky130_fd_sc_hd__clkbuf_8
* cell instance $713 m0 *1 29.9,51.68
X$713 19 150 231 232 226 19 1 239 1 sky130_fd_sc_hd__o31ai_1
* cell instance $715 m0 *1 33.58,51.68
X$715 19 227 233 243 1 19 232 1 sky130_fd_sc_hd__a21oi_1
* cell instance $717 m0 *1 35.88,51.68
X$717 1 228 241 140 227 233 19 19 1 sky130_fd_sc_hd__nor4b_4
* cell instance $719 m0 *1 46.46,51.68
X$719 19 150 231 214 19 1 1 sky130_fd_sc_hd__or2_2
* cell instance $726 m0 *1 58.42,51.68
X$726 19 238 19 1 237 1 sky130_fd_sc_hd__inv_1
* cell instance $727 m0 *1 59.8,51.68
X$727 1 236 161 237 235 19 19 1 sky130_fd_sc_hd__ha_1
* cell instance $728 m0 *1 64.4,51.68
X$728 19 234 298 242 205 19 139 1 1 sky130_fd_sc_hd__nand4_1
* cell instance $738 r0 *1 7.36,51.68
X$738 19 225 1 19 244 1 sky130_fd_sc_hd__clkdlybuf4s50_1
* cell instance $744 r0 *1 16.1,51.68
X$744 1 10 221 218 250 19 19 1 sky130_fd_sc_hd__dfrtp_1
* cell instance $749 r0 *1 32.2,51.68
X$749 19 150 231 266 240 19 1 254 1 sky130_fd_sc_hd__o31ai_1
* cell instance $750 r0 *1 34.96,51.68
X$750 19 241 247 236 243 1 19 1 sky130_fd_sc_hd__nor3_1
* cell instance $757 r0 *1 43.7,51.68
X$757 19 241 233 246 1 19 1 sky130_fd_sc_hd__nor2_1
* cell instance $758 r0 *1 45.08,51.68
X$758 19 246 236 247 227 1 19 258 1 sky130_fd_sc_hd__a31oi_1
* cell instance $760 r0 *1 49.22,51.68
X$760 19 150 231 257 255 19 1 256 1 sky130_fd_sc_hd__o31ai_1
* cell instance $762 r0 *1 53.82,51.68
X$762 1 224 19 19 1 sky130_fd_sc_hd__bufinv_16
* cell instance $763 r0 *1 64.86,51.68
X$763 19 252 237 253 242 19 1 1 sky130_fd_sc_hd__nand3_1
* cell instance $764 r0 *1 66.7,51.68
X$764 19 241 238 267 234 19 1 1 sky130_fd_sc_hd__nand3_1
* cell instance $770 r0 *1 73.14,51.68
X$770 1 249 251 241 209 19 19 1 sky130_fd_sc_hd__mux2_2
* cell instance $771 r0 *1 77.28,51.68
X$771 19 238 1 19 248 1 sky130_fd_sc_hd__clkdlybuf4s50_1
* cell instance $780 m0 *1 2.3,57.12
X$780 19 221 1 19 270 1 sky130_fd_sc_hd__clkdlybuf4s50_1
* cell instance $781 m0 *1 5.98,57.12
X$781 19 201 1 19 245 1 sky130_fd_sc_hd__clkdlybuf4s50_1
* cell instance $784 m0 *1 15.18,57.12
X$784 1 250 221 276 271 19 19 1 sky130_fd_sc_hd__mux2_2
* cell instance $786 m0 *1 19.78,57.12
X$786 1 10 240 218 259 19 19 1 sky130_fd_sc_hd__dfrtp_1
* cell instance $788 m0 *1 29.44,57.12
X$788 19 150 231 271 1 19 1 sky130_fd_sc_hd__nor2_1
* cell instance $789 m0 *1 30.82,57.12
X$789 19 214 260 254 19 259 1 1 sky130_fd_sc_hd__o21ai_0
* cell instance $792 m0 *1 34.04,57.12
X$792 19 227 236 261 1 19 266 1 sky130_fd_sc_hd__a21oi_1
* cell instance $794 m0 *1 36.34,57.12
X$794 19 241 247 233 261 1 19 1 sky130_fd_sc_hd__nor3_1
* cell instance $798 m0 *1 41.4,57.12
X$798 19 236 19 1 262 1 sky130_fd_sc_hd__inv_1
* cell instance $799 m0 *1 42.78,57.12
X$799 19 262 268 273 19 1 1 sky130_fd_sc_hd__nand2_1
* cell instance $800 m0 *1 44.16,57.12
X$800 19 246 262 247 227 1 19 257 1 sky130_fd_sc_hd__a31oi_1
* cell instance $801 m0 *1 46.46,57.12
X$801 19 150 231 258 263 19 1 274 1 sky130_fd_sc_hd__o31ai_1
* cell instance $804 m0 *1 51.52,57.12
X$804 1 154 224 19 19 1 sky130_fd_sc_hd__clkbuf_8
* cell instance $807 m0 *1 57.96,57.12
X$807 1 247 235 252 269 19 19 1 sky130_fd_sc_hd__ha_1
* cell instance $809 m0 *1 64.4,57.12
X$809 19 241 19 1 252 1 sky130_fd_sc_hd__inv_1
* cell instance $810 m0 *1 65.78,57.12
X$810 1 267 221 201 265 19 19 1 sky130_fd_sc_hd__mux2i_1
* cell instance $813 m0 *1 70.84,57.12
X$813 19 241 264 251 19 1 1 sky130_fd_sc_hd__nand2_1
* cell instance $814 m0 *1 72.22,57.12
X$814 1 10 241 224 249 19 19 1 sky130_fd_sc_hd__dfstp_2
* cell instance $817 r0 *1 3.22,57.12
X$817 1 284 285 221 228 19 19 1 sky130_fd_sc_hd__mux2_2
* cell instance $818 r0 *1 7.36,57.12
X$818 19 285 1 19 277 1 sky130_fd_sc_hd__clkdlybuf4s50_1
* cell instance $823 r0 *1 15.64,57.12
X$823 1 10 201 218 288 19 19 1 sky130_fd_sc_hd__dfrtp_1
* cell instance $824 r0 *1 24.84,57.12
X$824 1 288 201 275 271 19 19 1 sky130_fd_sc_hd__mux2_2
* cell instance $826 r0 *1 32.66,57.12
X$826 1 212 290 276 278 289 179 19 19 1 sky130_fd_sc_hd__a221o_1
* cell instance $828 r0 *1 36.8,57.12
X$828 1 278 222 221 208 279 240 19 19 1 sky130_fd_sc_hd__a32o_1
* cell instance $830 r0 *1 40.94,57.12
X$830 19 262 272 279 19 1 1 sky130_fd_sc_hd__nand2_1
* cell instance $835 r0 *1 43.7,57.12
X$835 1 280 222 201 208 273 255 19 19 1 sky130_fd_sc_hd__a32o_1
* cell instance $836 r0 *1 47.38,57.12
X$836 19 230 281 212 1 19 282 1 sky130_fd_sc_hd__a21oi_1
* cell instance $837 r0 *1 49.22,57.12
X$837 19 214 282 256 19 291 1 1 sky130_fd_sc_hd__o21ai_0
* cell instance $839 r0 *1 51.98,57.12
X$839 1 361 272 241 269 19 19 1 sky130_fd_sc_hd__ha_1
* cell instance $841 r0 *1 57.04,57.12
X$841 19 265 238 233 1 19 1 sky130_fd_sc_hd__nor2_1
* cell instance $842 r0 *1 58.42,57.12
X$842 19 265 19 1 269 1 sky130_fd_sc_hd__inv_1
* cell instance $843 r0 *1 59.8,57.12
X$843 1 253 226 263 265 19 19 1 sky130_fd_sc_hd__mux2i_1
* cell instance $850 r0 *1 70.84,57.12
X$850 19 247 264 287 19 1 1 sky130_fd_sc_hd__nand2_1
* cell instance $863 m0 *1 3.22,62.56
X$863 1 10 285 218 284 19 19 1 sky130_fd_sc_hd__dfrtp_1
* cell instance $871 m0 *1 33.12,62.56
X$871 19 313 1 19 290 1 sky130_fd_sc_hd__clkdlybuf4s50_1
* cell instance $874 m0 *1 39.1,62.56
X$874 19 236 272 296 19 1 1 sky130_fd_sc_hd__nand2_1
* cell instance $877 m0 *1 43.24,62.56
X$877 19 236 268 292 19 1 1 sky130_fd_sc_hd__nand2_1
* cell instance $878 m0 *1 44.62,62.56
X$878 1 212 187 275 280 293 179 19 19 1 sky130_fd_sc_hd__a221o_1
* cell instance $880 m0 *1 50.14,62.56
X$880 1 360 268 241 265 19 19 1 sky130_fd_sc_hd__ha_1
* cell instance $884 m0 *1 58.88,62.56
X$884 1 297 240 255 265 19 19 1 sky130_fd_sc_hd__mux2i_1
* cell instance $887 m0 *1 65.32,62.56
X$887 19 303 301 297 283 19 298 1 1 sky130_fd_sc_hd__a22oi_1
* cell instance $888 m0 *1 68.08,62.56
X$888 19 241 238 283 1 19 1 sky130_fd_sc_hd__nor2b_1
* cell instance $890 m0 *1 71.3,62.56
X$890 19 236 264 295 19 1 1 sky130_fd_sc_hd__nand2_1
* cell instance $891 m0 *1 72.68,62.56
X$891 1 286 295 238 209 19 19 1 sky130_fd_sc_hd__mux2_2
* cell instance $897 r0 *1 5.98,62.56
X$897 1 10 300 218 309 19 19 1 sky130_fd_sc_hd__dfrtp_1
* cell instance $905 r0 *1 30.82,62.56
X$905 19 302 1 19 289 1 sky130_fd_sc_hd__clkdlybuf4s50_1
* cell instance $908 r0 *1 36.8,62.56
X$908 1 304 222 299 208 296 226 19 19 1 sky130_fd_sc_hd__a32o_1
* cell instance $913 r0 *1 43.24,62.56
X$913 1 311 222 300 208 292 263 19 19 1 sky130_fd_sc_hd__a32o_1
* cell instance $914 r0 *1 46.92,62.56
X$914 19 214 315 274 19 310 1 1 sky130_fd_sc_hd__o21ai_0
* cell instance $916 r0 *1 50.6,62.56
X$916 1 301 299 300 265 19 19 1 sky130_fd_sc_hd__mux2i_1
* cell instance $921 r0 *1 63.94,62.56
X$921 19 238 241 303 1 19 1 sky130_fd_sc_hd__nor2b_1
* cell instance $927 r0 *1 71.76,62.56
X$927 1 326 287 265 209 19 19 1 sky130_fd_sc_hd__mux2_2
* cell instance $931 r0 *1 79.12,62.56
X$931 19 241 1 19 294 1 sky130_fd_sc_hd__clkdlybuf4s50_1
* cell instance $941 m0 *1 4.6,68
X$941 19 312 1 19 305 1 sky130_fd_sc_hd__clkdlybuf4s50_1
* cell instance $942 m0 *1 8.28,68
X$942 1 314 312 299 228 19 19 1 sky130_fd_sc_hd__mux2_2
* cell instance $946 m0 *1 18.4,68
X$946 1 309 300 306 271 19 19 1 sky130_fd_sc_hd__mux2_2
* cell instance $949 m0 *1 24.84,68
X$949 1 319 299 316 271 19 19 1 sky130_fd_sc_hd__mux2_2
* cell instance $953 m0 *1 33.58,68
X$953 1 212 330 306 311 307 179 19 19 1 sky130_fd_sc_hd__a221o_1
* cell instance $958 m0 *1 47.38,68
X$958 1 10 255 224 291 19 19 1 sky130_fd_sc_hd__dfrtp_1
* cell instance $966 m0 *1 73.14,68
X$966 1 10 238 224 286 19 19 1 sky130_fd_sc_hd__dfstp_2
* cell instance $968 r0 *1 3.22,68
X$968 1 10 312 218 314 19 19 1 sky130_fd_sc_hd__dfrtp_1
* cell instance $976 r0 *1 23.46,68
X$976 1 10 299 218 319 19 19 1 sky130_fd_sc_hd__dfrtp_1
* cell instance $977 r0 *1 32.66,68
X$977 1 212 346 316 304 317 179 19 19 1 sky130_fd_sc_hd__a221o_1
* cell instance $978 r0 *1 36.34,68
X$978 1 260 212 321 318 179 300 208 19 19 1 sky130_fd_sc_hd__a222oi_1
* cell instance $985 r0 *1 44.62,68
X$985 1 315 212 322 323 179 299 208 19 19 1 sky130_fd_sc_hd__a222oi_1