
* cell fir_filter
* pin clk
* pin data_in[0]
* pin data_out[0]
* pin data_out[1]
* pin data_out[7]
* pin data_out[3]
* pin data_out[4]
* pin data_out[5]
* pin data_out[6]
* pin data_out[2]
* pin data_in[1]
* pin data_in[2]
* pin data_in[3]
* pin data_in[4]
* pin data_out[9]
* pin data_out[13]
* pin data_out[15]
* pin data_out[11]
* pin data_out[17]
* pin data_valid
* pin data_out_valid
* pin data_out[18]
* pin data_out[12]
* pin data_out[16]
* pin data_out[8]
* pin data_out[14]
* pin data_out[10]
* pin data_in[5]
* pin data_in[7]
* pin rst_n
* pin data_in[6]
* pin NWELL
* pin PWELL,gf180mcu_gnd
.SUBCKT fir_filter 1 2 3 4 5 6 7 8 9 10 40 71 110 154 165 186 187 188 202 203
+ 218 269 270 271 272 273 281 283 284 285 286 287 288
* net 1 clk
* net 2 data_in[0]
* net 3 data_out[0]
* net 4 data_out[1]
* net 5 data_out[7]
* net 6 data_out[3]
* net 7 data_out[4]
* net 8 data_out[5]
* net 9 data_out[6]
* net 10 data_out[2]
* net 40 data_in[1]
* net 71 data_in[2]
* net 110 data_in[3]
* net 154 data_in[4]
* net 165 data_out[9]
* net 186 data_out[13]
* net 187 data_out[15]
* net 188 data_out[11]
* net 202 data_out[17]
* net 203 data_valid
* net 218 data_out_valid
* net 269 data_out[18]
* net 270 data_out[12]
* net 271 data_out[16]
* net 272 data_out[8]
* net 273 data_out[14]
* net 281 data_out[10]
* net 283 data_in[5]
* net 284 data_in[7]
* net 285 rst_n
* net 286 data_in[6]
* net 287 NWELL
* net 288 PWELL,gf180mcu_gnd
* cell instance $3 r0 *1 1048.32,700.56
X$3 288 1 117 287 gf180mcu_fd_sc_mcu9t5v0__clkbuf_20
* cell instance $7 r0 *1 701.68,5.04
X$7 2 287 288 20 gf180mcu_fd_sc_mcu9t5v0__buf_3
* cell instance $11 m0 *1 736.96,15.12
X$11 11 287 288 3 gf180mcu_fd_sc_mcu9t5v0__dlyb_2
* cell instance $15 r0 *1 744.8,5.04
X$15 12 287 288 4 gf180mcu_fd_sc_mcu9t5v0__dlyb_2
* cell instance $19 m0 *1 775.6,15.12
X$19 17 287 288 5 gf180mcu_fd_sc_mcu9t5v0__dlyb_2
* cell instance $23 r0 *1 758.8,5.04
X$23 13 287 288 6 gf180mcu_fd_sc_mcu9t5v0__dlyb_2
* cell instance $27 m0 *1 762.72,15.12
X$27 14 287 288 7 gf180mcu_fd_sc_mcu9t5v0__dlyb_2
* cell instance $31 r0 *1 767.2,5.04
X$31 15 287 288 8 gf180mcu_fd_sc_mcu9t5v0__dlyb_2
* cell instance $35 r0 *1 775.6,5.04
X$35 16 287 288 9 gf180mcu_fd_sc_mcu9t5v0__dlyb_2
* cell instance $39 m0 *1 784,15.12
X$39 18 287 288 10 gf180mcu_fd_sc_mcu9t5v0__dlyb_2
* cell instance $42 m0 *1 734.72,609.84
X$42 288 287 22 23 33 11 gf180mcu_fd_sc_mcu9t5v0__mux2_2
* cell instance $44 r0 *1 728.56,609.84
X$44 288 21 11 19 22 287 gf180mcu_fd_sc_mcu9t5v0__dffrnq_2
* cell instance $53 m0 *1 731.36,619.92
X$53 288 21 12 19 24 287 gf180mcu_fd_sc_mcu9t5v0__dffrnq_2
* cell instance $62 r0 *1 737.52,619.92
X$62 288 287 24 32 33 12 gf180mcu_fd_sc_mcu9t5v0__mux2_2
* cell instance $64 m0 *1 755.44,630
X$64 288 287 39 34 33 13 gf180mcu_fd_sc_mcu9t5v0__mux2_2
* cell instance $67 r0 *1 750.96,619.92
X$67 288 21 13 19 39 287 gf180mcu_fd_sc_mcu9t5v0__dffrnq_2
* cell instance $71 m0 *1 755.44,619.92
X$71 288 21 14 19 25 287 gf180mcu_fd_sc_mcu9t5v0__dffrnq_2
* cell instance $76 r0 *1 758.24,630
X$76 288 287 25 35 33 14 gf180mcu_fd_sc_mcu9t5v0__mux2_2
* cell instance $78 r0 *1 759.92,609.84
X$78 288 21 15 19 26 287 gf180mcu_fd_sc_mcu9t5v0__dffrnq_2
* cell instance $88 m0 *1 764.4,640.08
X$88 288 287 26 48 33 15 gf180mcu_fd_sc_mcu9t5v0__mux2_2
* cell instance $90 m0 *1 763.84,630
X$90 288 21 16 19 36 287 gf180mcu_fd_sc_mcu9t5v0__dffrnq_2
* cell instance $94 r0 *1 768.32,630
X$94 288 287 36 47 33 16 gf180mcu_fd_sc_mcu9t5v0__mux2_2
* cell instance $97 r0 *1 768.32,700.56
X$97 288 21 17 142 118 287 gf180mcu_fd_sc_mcu9t5v0__dffrnq_2
* cell instance $102 m0 *1 776.72,710.64
X$102 287 80 17 288 128 gf180mcu_fd_sc_mcu9t5v0__and2_2
* cell instance $104 r0 *1 771.12,650.16
X$104 288 21 18 19 65 287 gf180mcu_fd_sc_mcu9t5v0__dffrnq_2
* cell instance $107 m0 *1 769.44,660.24
X$107 288 287 65 18 80 63 gf180mcu_fd_sc_mcu9t5v0__mux2_2
* cell instance $116 m0 *1 823.2,680.4
X$116 288 117 19 287 gf180mcu_fd_sc_mcu9t5v0__clkbuf_20
* cell instance $145 r0 *1 702.8,640.08
X$145 288 21 44 19 51 287 gf180mcu_fd_sc_mcu9t5v0__dffrnq_2
* cell instance $151 r0 *1 713.44,630
X$151 288 21 31 19 30 287 gf180mcu_fd_sc_mcu9t5v0__dffrnq_2
* cell instance $153 m0 *1 700.56,619.92
X$153 288 21 27 19 38 287 gf180mcu_fd_sc_mcu9t5v0__dffrnq_2
* cell instance $155 m0 *1 698.32,630
X$155 288 21 29 19 37 287 gf180mcu_fd_sc_mcu9t5v0__dffrnq_2
* cell instance $159 r0 *1 660.24,670.32
X$159 288 21 73 19 72 287 gf180mcu_fd_sc_mcu9t5v0__dffrnq_2
* cell instance $161 r0 *1 669.2,650.16
X$161 288 21 54 19 53 287 gf180mcu_fd_sc_mcu9t5v0__dffrnq_2
* cell instance $164 r0 *1 663.04,640.08
X$164 288 21 43 19 42 287 gf180mcu_fd_sc_mcu9t5v0__dffrnq_2
* cell instance $166 m0 *1 683.76,660.24
X$166 288 21 55 19 64 287 gf180mcu_fd_sc_mcu9t5v0__dffrnq_2
* cell instance $168 r0 *1 677.04,680.4
X$168 288 21 86 19 85 287 gf180mcu_fd_sc_mcu9t5v0__dffrnq_2
* cell instance $171 r0 *1 700,680.4
X$171 288 21 90 19 88 287 gf180mcu_fd_sc_mcu9t5v0__dffrnq_2
* cell instance $174 m0 *1 692.72,650.16
X$174 288 21 57 19 50 287 gf180mcu_fd_sc_mcu9t5v0__dffrnq_2
* cell instance $176 r0 *1 706.16,670.32
X$176 288 21 91 19 89 287 gf180mcu_fd_sc_mcu9t5v0__dffrnq_2
* cell instance $179 r0 *1 702.24,619.92
X$179 288 287 38 20 28 27 gf180mcu_fd_sc_mcu9t5v0__mux2_2
* cell instance $184 r0 *1 804.16,720.72
X$184 288 21 147 142 150 287 gf180mcu_fd_sc_mcu9t5v0__dffrnq_2
* cell instance $189 m0 *1 1414.56,781.2
X$189 288 21 267 163 275 287 gf180mcu_fd_sc_mcu9t5v0__dffrnq_2
* cell instance $192 r0 *1 1433.6,781.2
X$192 288 21 268 163 252 287 gf180mcu_fd_sc_mcu9t5v0__dffrnq_2
* cell instance $194 m0 *1 1433.6,791.28
X$194 288 21 255 163 251 287 gf180mcu_fd_sc_mcu9t5v0__dffrnq_2
* cell instance $200 m0 *1 1433.6,781.2
X$200 288 21 253 163 257 287 gf180mcu_fd_sc_mcu9t5v0__dffrnq_2
* cell instance $204 m0 *1 1426.32,730.8
X$204 288 21 149 163 167 287 gf180mcu_fd_sc_mcu9t5v0__dffrnq_2
* cell instance $208 m0 *1 704.48,781.2
X$208 288 21 244 142 277 287 gf180mcu_fd_sc_mcu9t5v0__dffrnq_2
* cell instance $211 m0 *1 709.52,791.28
X$211 288 21 262 142 278 287 gf180mcu_fd_sc_mcu9t5v0__dffrnq_2
* cell instance $213 m0 *1 661.36,730.8
X$213 288 21 156 111 155 287 gf180mcu_fd_sc_mcu9t5v0__dffrnq_2
* cell instance $215 r0 *1 678.72,730.8
X$215 288 21 137 111 157 287 gf180mcu_fd_sc_mcu9t5v0__dffrnq_2
* cell instance $217 m0 *1 692.72,740.88
X$217 288 21 173 111 189 287 gf180mcu_fd_sc_mcu9t5v0__dffrnq_2
* cell instance $219 m0 *1 722.4,771.12
X$219 288 21 210 142 242 287 gf180mcu_fd_sc_mcu9t5v0__dffrnq_2
* cell instance $221 m0 *1 683.2,761.04
X$221 288 21 209 111 220 287 gf180mcu_fd_sc_mcu9t5v0__dffrnq_2
* cell instance $223 m0 *1 687.68,750.96
X$223 288 21 191 111 204 287 gf180mcu_fd_sc_mcu9t5v0__dffrnq_2
* cell instance $226 r0 *1 710.08,720.72
X$226 288 21 138 111 152 287 gf180mcu_fd_sc_mcu9t5v0__dffrnq_2
* cell instance $228 r0 *1 715.12,710.64
X$228 288 21 124 111 134 287 gf180mcu_fd_sc_mcu9t5v0__dffrnq_2
* cell instance $230 r0 *1 676.48,710.64
X$230 288 21 114 111 132 287 gf180mcu_fd_sc_mcu9t5v0__dffrnq_2
* cell instance $233 m0 *1 686,700.56
X$233 288 21 99 111 98 287 gf180mcu_fd_sc_mcu9t5v0__dffrnq_2
* cell instance $235 m0 *1 673.12,710.64
X$235 288 21 123 111 112 287 gf180mcu_fd_sc_mcu9t5v0__dffrnq_2
* cell instance $240 r0 *1 726.88,750.96
X$240 288 21 211 142 222 287 gf180mcu_fd_sc_mcu9t5v0__dffrnq_2
* cell instance $242 m0 *1 742.56,781.2
X$242 288 21 245 142 279 287 gf180mcu_fd_sc_mcu9t5v0__dffrnq_2
* cell instance $245 m0 *1 665.28,781.2
X$245 288 21 227 142 276 287 gf180mcu_fd_sc_mcu9t5v0__dffrnq_2
* cell instance $249 m0 *1 667.52,771.12
X$249 288 21 208 111 226 287 gf180mcu_fd_sc_mcu9t5v0__dffrnq_2
* cell instance $253 m0 *1 660.24,700.56
X$253 288 21 113 111 97 287 gf180mcu_fd_sc_mcu9t5v0__dffrnq_2
* cell instance $256 m0 *1 703.36,771.12
X$256 288 21 229 142 228 287 gf180mcu_fd_sc_mcu9t5v0__dffrnq_2
* cell instance $258 r0 *1 731.92,791.28
X$258 288 21 264 142 263 287 gf180mcu_fd_sc_mcu9t5v0__dffrnq_2
* cell instance $261 m0 *1 806.4,781.2
X$261 288 21 250 142 249 287 gf180mcu_fd_sc_mcu9t5v0__dffrnq_2
* cell instance $264 m0 *1 804.16,791.28
X$264 288 21 266 142 265 287 gf180mcu_fd_sc_mcu9t5v0__dffrnq_2
* cell instance $266 m0 *1 1410.64,740.88
X$266 288 21 162 163 182 287 gf180mcu_fd_sc_mcu9t5v0__dffrnq_2
* cell instance $274 r0 *1 1425.76,750.96
X$274 288 21 219 163 198 287 gf180mcu_fd_sc_mcu9t5v0__dffrnq_2
* cell instance $276 r0 *1 1429.68,740.88
X$276 288 21 201 163 184 287 gf180mcu_fd_sc_mcu9t5v0__dffrnq_2
* cell instance $278 r0 *1 1429.68,730.8
X$278 288 21 185 163 164 287 gf180mcu_fd_sc_mcu9t5v0__dffrnq_2
* cell instance $320 r0 *1 641.2,1436.4
X$320 288 282 21 287 gf180mcu_fd_sc_mcu9t5v0__buf_20
* cell instance $324 m0 *1 724.64,630
X$324 46 288 287 27 31 23 gf180mcu_fd_sc_mcu9t5v0__addh_1
* cell instance $335 r0 *1 705.04,630
X$335 288 287 37 27 28 29 gf180mcu_fd_sc_mcu9t5v0__mux2_2
* cell instance $343 r0 *1 703.36,781.2
X$343 288 287 277 243 28 244 gf180mcu_fd_sc_mcu9t5v0__mux2_2
* cell instance $346 r0 *1 662.48,690.48
X$346 288 287 97 107 28 113 gf180mcu_fd_sc_mcu9t5v0__mux2_2
* cell instance $348 m0 *1 662.48,650.16
X$348 288 287 42 41 28 43 gf180mcu_fd_sc_mcu9t5v0__mux2_2
* cell instance $350 r0 *1 666.96,781.2
X$350 288 287 276 261 28 227 gf180mcu_fd_sc_mcu9t5v0__mux2_2
* cell instance $353 m0 *1 675.36,660.24
X$353 288 287 53 43 28 54 gf180mcu_fd_sc_mcu9t5v0__mux2_2
* cell instance $356 m0 *1 662.48,670.32
X$356 288 287 72 81 28 73 gf180mcu_fd_sc_mcu9t5v0__mux2_2
* cell instance $363 r0 *1 666.4,771.12
X$363 288 287 226 225 28 208 gf180mcu_fd_sc_mcu9t5v0__mux2_2
* cell instance $366 m0 *1 723.52,781.2
X$366 288 151 28 287 gf180mcu_fd_sc_mcu9t5v0__clkbuf_8
* cell instance $369 r0 *1 664.16,720.72
X$369 288 287 155 148 28 156 gf180mcu_fd_sc_mcu9t5v0__mux2_2
* cell instance $371 m0 *1 711.76,650.16
X$371 288 43 52 66 29 44 287 gf180mcu_fd_sc_mcu9t5v0__addf_1
* cell instance $374 m0 *1 708.96,640.08
X$374 288 287 51 29 56 44 gf180mcu_fd_sc_mcu9t5v0__mux2_2
* cell instance $380 m0 *1 717.92,640.08
X$380 288 287 30 44 58 31 gf180mcu_fd_sc_mcu9t5v0__mux2_2
* cell instance $389 r0 *1 730.24,640.08
X$389 288 49 32 45 46 287 gf180mcu_fd_sc_mcu9t5v0__addh_2
* cell instance $392 m0 *1 734.16,761.04
X$392 288 287 222 210 33 211 gf180mcu_fd_sc_mcu9t5v0__mux2_2
* cell instance $395 r0 *1 805.28,740.88
X$395 288 198 33 287 gf180mcu_fd_sc_mcu9t5v0__clkbuf_8
* cell instance $398 m0 *1 747.6,791.28
X$398 288 287 279 264 33 245 gf180mcu_fd_sc_mcu9t5v0__mux2_2
* cell instance $400 r0 *1 804.16,781.2
X$400 288 287 265 280 33 266 gf180mcu_fd_sc_mcu9t5v0__mux2_2
* cell instance $412 r0 *1 805.84,771.12
X$412 288 287 249 258 33 250 gf180mcu_fd_sc_mcu9t5v0__mux2_2
* cell instance $418 r0 *1 752.08,660.24
X$418 287 77 78 288 34 gf180mcu_fd_sc_mcu9t5v0__xnor2_2
* cell instance $421 r0 *1 762.16,660.24
X$421 102 288 82 287 35 gf180mcu_fd_sc_mcu9t5v0__xor2_2
* cell instance $439 m0 *1 11.76,650.16
X$439 40 287 288 41 gf180mcu_fd_sc_mcu9t5v0__buf_3
* cell instance $463 r0 *1 716.8,650.16
X$463 59 288 287 57 52 45 gf180mcu_fd_sc_mcu9t5v0__addh_1
* cell instance $472 m0 *1 764.96,710.64
X$472 126 288 135 287 47 gf180mcu_fd_sc_mcu9t5v0__xor2_2
* cell instance $477 r0 *1 746.48,680.4
X$477 287 104 109 288 48 gf180mcu_fd_sc_mcu9t5v0__xnor2_2
* cell instance $485 r0 *1 744.24,650.16
X$485 288 60 287 67 49 61 gf180mcu_fd_sc_mcu9t5v0__aoi21_2
* cell instance $487 m0 *1 739.76,670.32
X$487 288 92 49 61 60 75 287 gf180mcu_fd_sc_mcu9t5v0__aoi211_4
* cell instance $489 r0 *1 748.72,660.24
X$489 288 287 49 62 gf180mcu_fd_sc_mcu9t5v0__clkinv_2
* cell instance $491 r0 *1 700,650.16
X$491 288 287 50 55 58 57 gf180mcu_fd_sc_mcu9t5v0__mux2_2
* cell instance $508 r0 *1 688.24,650.16
X$508 288 287 64 54 56 55 gf180mcu_fd_sc_mcu9t5v0__mux2_2
* cell instance $515 m0 *1 684.88,670.32
X$515 288 73 83 54 55 87 287 gf180mcu_fd_sc_mcu9t5v0__addf_2
* cell instance $525 m0 *1 702.24,680.4
X$525 288 287 88 86 56 90 gf180mcu_fd_sc_mcu9t5v0__mux2_2
* cell instance $528 r0 *1 719.04,781.2
X$528 288 287 278 244 56 262 gf180mcu_fd_sc_mcu9t5v0__mux2_2
* cell instance $530 m0 *1 682.64,680.4
X$530 288 287 85 73 56 86 gf180mcu_fd_sc_mcu9t5v0__mux2_2
* cell instance $533 r0 *1 689.36,750.96
X$533 288 287 220 208 56 209 gf180mcu_fd_sc_mcu9t5v0__mux2_2
* cell instance $536 m0 *1 684.32,730.8
X$536 288 287 157 156 56 137 gf180mcu_fd_sc_mcu9t5v0__mux2_2
* cell instance $538 r0 *1 675.92,700.56
X$538 288 287 112 113 56 123 gf180mcu_fd_sc_mcu9t5v0__mux2_2
* cell instance $550 r0 *1 707.28,761.04
X$550 288 287 228 227 56 229 gf180mcu_fd_sc_mcu9t5v0__mux2_2
* cell instance $552 r0 *1 712.32,771.12
X$552 288 151 56 287 gf180mcu_fd_sc_mcu9t5v0__clkbuf_8
* cell instance $556 r0 *1 684.32,700.56
X$556 288 287 132 123 56 114 gf180mcu_fd_sc_mcu9t5v0__mux2_2
* cell instance $565 m0 *1 729.12,730.8
X$565 288 151 58 287 gf180mcu_fd_sc_mcu9t5v0__clkbuf_8
* cell instance $568 r0 *1 727.44,761.04
X$568 288 287 242 229 58 210 gf180mcu_fd_sc_mcu9t5v0__mux2_2
* cell instance $570 m0 *1 711.76,680.4
X$570 288 287 89 90 58 91 gf180mcu_fd_sc_mcu9t5v0__mux2_2
* cell instance $574 r0 *1 700,740.88
X$574 288 287 189 191 58 173 gf180mcu_fd_sc_mcu9t5v0__mux2_2
* cell instance $576 r0 *1 700,750.96
X$576 288 287 204 209 58 191 gf180mcu_fd_sc_mcu9t5v0__mux2_2
* cell instance $578 m0 *1 722.96,720.72
X$578 288 287 134 138 58 124 gf180mcu_fd_sc_mcu9t5v0__mux2_2
* cell instance $581 m0 *1 714.56,720.72
X$581 288 287 152 137 58 138 gf180mcu_fd_sc_mcu9t5v0__mux2_2
* cell instance $584 r0 *1 690.48,690.48
X$584 288 287 98 114 58 99 gf180mcu_fd_sc_mcu9t5v0__mux2_2
* cell instance $593 m0 *1 731.36,791.28
X$593 288 287 263 262 58 264 gf180mcu_fd_sc_mcu9t5v0__mux2_2
* cell instance $596 r0 *1 736.96,660.24
X$596 288 60 61 74 59 287 gf180mcu_fd_sc_mcu9t5v0__addh_2
* cell instance $602 m0 *1 738.08,660.24
X$602 288 287 59 69 gf180mcu_fd_sc_mcu9t5v0__clkinv_2
* cell instance $617 m0 *1 741.44,660.24
X$617 288 70 68 69 62 78 287 gf180mcu_fd_sc_mcu9t5v0__addf_2
* cell instance $622 m0 *1 765.52,660.24
X$622 288 287 68 63 gf180mcu_fd_sc_mcu9t5v0__clkinv_2
* cell instance $635 m0 *1 720.16,670.32
X$635 288 91 74 83 66 84 287 gf180mcu_fd_sc_mcu9t5v0__addf_2
* cell instance $637 m0 *1 759.92,670.32
X$637 287 76 288 67 82 79 gf180mcu_fd_sc_mcu9t5v0__oai21_2
* cell instance $650 r0 *1 733.6,660.24
X$650 288 287 74 70 gf180mcu_fd_sc_mcu9t5v0__clkinv_2
* cell instance $656 m0 *1 8.4,670.32
X$656 71 287 288 81 gf180mcu_fd_sc_mcu9t5v0__buf_3
* cell instance $674 m0 *1 744.8,680.4
X$674 288 75 77 96 84 287 gf180mcu_fd_sc_mcu9t5v0__addh_2
* cell instance $681 r0 *1 748.16,670.32
X$681 288 287 75 76 gf180mcu_fd_sc_mcu9t5v0__clkinv_2
* cell instance $683 m0 *1 751.52,690.48
X$683 288 125 75 77 104 102 287 gf180mcu_fd_sc_mcu9t5v0__oai211_4
* cell instance $686 r0 *1 756,680.4
X$686 288 75 287 94 93 77 gf180mcu_fd_sc_mcu9t5v0__aoi21_2
* cell instance $689 r0 *1 751.52,670.32
X$689 287 76 288 78 95 79 gf180mcu_fd_sc_mcu9t5v0__oai21_2
* cell instance $702 r0 *1 759.36,670.32
X$702 288 287 77 79 gf180mcu_fd_sc_mcu9t5v0__clkinv_2
* cell instance $709 m0 *1 758.24,680.4
X$709 288 287 78 93 gf180mcu_fd_sc_mcu9t5v0__clkinv_2
* cell instance $716 r0 *1 768.32,720.72
X$716 139 288 153 80 287 141 gf180mcu_fd_sc_mcu9t5v0__or3_2
* cell instance $728 m0 *1 1429.68,740.88
X$728 288 181 287 169 184 166 80 gf180mcu_fd_sc_mcu9t5v0__aoi22_2
* cell instance $730 r0 *1 1410.64,730.8
X$730 288 181 287 169 182 168 80 gf180mcu_fd_sc_mcu9t5v0__aoi22_2
* cell instance $732 m0 *1 1425.76,750.96
X$732 288 181 287 169 164 200 80 gf180mcu_fd_sc_mcu9t5v0__aoi22_2
* cell instance $735 r0 *1 799.12,720.72
X$735 287 80 147 288 146 gf180mcu_fd_sc_mcu9t5v0__and2_2
* cell instance $738 r0 *1 1420.72,740.88
X$738 288 181 287 169 167 183 80 gf180mcu_fd_sc_mcu9t5v0__aoi22_2
* cell instance $740 r0 *1 830.48,740.88
X$740 288 287 198 80 gf180mcu_fd_sc_mcu9t5v0__clkinv_8
* cell instance $764 m0 *1 702.24,690.48
X$764 288 113 100 121 86 90 287 gf180mcu_fd_sc_mcu9t5v0__addf_1
* cell instance $769 r0 *1 701.68,690.48
X$769 288 99 96 101 100 87 287 gf180mcu_fd_sc_mcu9t5v0__addf_1
* cell instance $791 m0 *1 757.12,710.64
X$791 287 106 288 125 135 92 gf180mcu_fd_sc_mcu9t5v0__oai21_2
* cell instance $795 r0 *1 757.68,710.64
X$795 288 215 125 92 133 106 287 gf180mcu_fd_sc_mcu9t5v0__oai211_4
* cell instance $800 r0 *1 771.12,690.48
X$800 287 106 288 94 127 108 gf180mcu_fd_sc_mcu9t5v0__oai21_2
* cell instance $807 m0 *1 750.4,700.56
X$807 288 140 105 104 95 116 103 287 gf180mcu_fd_sc_mcu9t5v0__aoi221_4
* cell instance $809 m0 *1 744.24,690.48
X$809 288 103 287 109 95 102 gf180mcu_fd_sc_mcu9t5v0__aoi21_2
* cell instance $829 r0 *1 730.24,690.48
X$829 288 103 102 119 101 287 gf180mcu_fd_sc_mcu9t5v0__addh_2
* cell instance $842 r0 *1 744.8,690.48
X$842 287 102 104 288 105 gf180mcu_fd_sc_mcu9t5v0__and2_2
* cell instance $844 r0 *1 763.28,690.48
X$844 288 287 102 108 104 gf180mcu_fd_sc_mcu9t5v0__nand2_2
* cell instance $852 r0 *1 749.84,690.48
X$852 288 106 104 103 116 287 gf180mcu_fd_sc_mcu9t5v0__aoi21_4
* cell instance $864 m0 *1 729.12,700.56
X$864 288 104 120 122 116 287 gf180mcu_fd_sc_mcu9t5v0__addh_4
* cell instance $882 r0 *1 2.24,690.48
X$882 110 287 288 107 gf180mcu_fd_sc_mcu9t5v0__buf_3
* cell instance $907 m0 *1 820.4,700.56
X$907 288 117 111 287 gf180mcu_fd_sc_mcu9t5v0__clkbuf_20
* cell instance $913 r0 *1 820.4,690.48
X$913 288 111 287 gf180mcu_fd_sc_mcu9t5v0__clkbuf_12
* cell instance $935 m0 *1 687.12,720.72
X$935 288 156 115 136 123 114 287 gf180mcu_fd_sc_mcu9t5v0__addf_1
* cell instance $942 m0 *1 712.32,700.56
X$942 288 124 119 122 115 121 287 gf180mcu_fd_sc_mcu9t5v0__addf_1
* cell instance $957 r0 *1 1055.04,861.84
X$957 288 117 163 287 gf180mcu_fd_sc_mcu9t5v0__clkbuf_20
* cell instance $959 r0 *1 978.88,851.76
X$959 288 117 142 287 gf180mcu_fd_sc_mcu9t5v0__clkbuf_20
* cell instance $965 r0 *1 777.84,710.64
X$965 128 129 130 131 287 288 118 gf180mcu_fd_sc_mcu9t5v0__or4_2
* cell instance $974 m0 *1 710.08,730.8
X$974 288 173 120 172 136 158 287 gf180mcu_fd_sc_mcu9t5v0__addf_2
* cell instance $1006 m0 *1 770,740.88
X$1006 287 176 288 153 177 126 gf180mcu_fd_sc_mcu9t5v0__oai21_2
* cell instance $1009 r0 *1 742.56,730.8
X$1009 288 153 126 174 158 287 gf180mcu_fd_sc_mcu9t5v0__addh_2
* cell instance $1011 m0 *1 777.84,740.88
X$1011 288 178 126 287 176 193 gf180mcu_fd_sc_mcu9t5v0__nand3_2
* cell instance $1020 r0 *1 775.04,720.72
X$1020 288 141 287 129 127 126 gf180mcu_fd_sc_mcu9t5v0__aoi21_2
* cell instance $1022 m0 *1 780.08,730.8
X$1022 127 126 159 170 179 287 288 gf180mcu_fd_sc_mcu9t5v0__aoi211_2
* cell instance $1025 m0 *1 789.6,730.8
X$1025 126 287 127 160 288 161 gf180mcu_fd_sc_mcu9t5v0__and3_2
* cell instance $1027 m0 *1 770,720.72
X$1027 126 139 151 127 288 287 130 gf180mcu_fd_sc_mcu9t5v0__and4_2
* cell instance $1048 m0 *1 770.56,730.8
X$1048 139 287 153 151 288 131 gf180mcu_fd_sc_mcu9t5v0__and3_2
* cell instance $1059 r0 *1 772.24,740.88
X$1059 287 194 288 133 179 196 gf180mcu_fd_sc_mcu9t5v0__oai21_2
* cell instance $1064 m0 *1 762.72,740.88
X$1064 288 175 287 133 153 176 gf180mcu_fd_sc_mcu9t5v0__aoi21_2
* cell instance $1078 r0 *1 713.44,730.8
X$1078 288 208 172 190 137 138 287 gf180mcu_fd_sc_mcu9t5v0__addf_1
* cell instance $1095 r0 *1 768.32,730.8
X$1095 288 287 176 139 gf180mcu_fd_sc_mcu9t5v0__clkinv_2
* cell instance $1099 r0 *1 771.68,730.8
X$1099 288 171 181 178 140 287 gf180mcu_fd_sc_mcu9t5v0__oai21_4
* cell instance $1124 m0 *1 976.64,861.84
X$1124 288 142 287 gf180mcu_fd_sc_mcu9t5v0__clkbuf_12
* cell instance $1136 m0 *1 792.96,720.72
X$1136 288 143 144 287 145 gf180mcu_fd_sc_mcu9t5v0__or2_2
* cell instance $1140 m0 *1 785.68,740.88
X$1140 193 176 179 143 159 287 288 gf180mcu_fd_sc_mcu9t5v0__aoi211_2
* cell instance $1143 r0 *1 792.4,740.88
X$1143 197 287 198 179 288 144 gf180mcu_fd_sc_mcu9t5v0__and3_2
* cell instance $1146 r0 *1 791.84,730.8
X$1146 146 161 170 145 287 288 150 gf180mcu_fd_sc_mcu9t5v0__or4_2
* cell instance $1154 m0 *1 1450.96,730.8
X$1154 147 287 288 165 gf180mcu_fd_sc_mcu9t5v0__dlyb_2
* cell instance $1161 r0 *1 11.76,720.72
X$1161 154 287 288 148 gf180mcu_fd_sc_mcu9t5v0__buf_3
* cell instance $1165 m0 *1 1450.96,740.88
X$1165 149 287 288 188 gf180mcu_fd_sc_mcu9t5v0__dlyb_2
* cell instance $1170 r0 *1 1428,720.72
X$1170 288 287 149 183 gf180mcu_fd_sc_mcu9t5v0__clkinv_2
* cell instance $1178 r0 *1 1428,781.2
X$1178 288 151 267 287 274 gf180mcu_fd_sc_mcu9t5v0__or2_2
* cell instance $1180 r0 *1 1452.64,781.2
X$1180 288 151 268 287 256 gf180mcu_fd_sc_mcu9t5v0__or2_2
* cell instance $1182 r0 *1 1443.68,771.12
X$1182 288 151 253 287 254 gf180mcu_fd_sc_mcu9t5v0__or2_2
* cell instance $1184 m0 *1 1430.8,771.12
X$1184 288 151 255 287 237 gf180mcu_fd_sc_mcu9t5v0__or2_2
* cell instance $1201 r0 *1 799.12,771.12
X$1201 288 287 151 221 259 gf180mcu_fd_sc_mcu9t5v0__nand2_2
* cell instance $1209 m0 *1 823.2,750.96
X$1209 288 198 151 287 gf180mcu_fd_sc_mcu9t5v0__buf_8
* cell instance $1248 r0 *1 798.56,740.88
X$1248 288 287 199 159 198 gf180mcu_fd_sc_mcu9t5v0__nand2_2
* cell instance $1256 r0 *1 785.12,740.88
X$1256 176 193 197 198 288 287 160 gf180mcu_fd_sc_mcu9t5v0__and4_2
* cell instance $1261 m0 *1 1442.56,740.88
X$1261 162 287 288 187 gf180mcu_fd_sc_mcu9t5v0__dlyb_2
* cell instance $1266 m0 *1 1422.96,730.8
X$1266 288 287 162 168 gf180mcu_fd_sc_mcu9t5v0__clkinv_2
* cell instance $1285 m0 *1 1055.04,861.84
X$1285 288 163 287 gf180mcu_fd_sc_mcu9t5v0__inv_8
* cell instance $1299 m0 *1 1445.36,730.8
X$1299 288 287 201 166 gf180mcu_fd_sc_mcu9t5v0__clkinv_2
* cell instance $1315 r0 *1 795.76,750.96
X$1315 288 169 197 223 221 287 gf180mcu_fd_sc_mcu9t5v0__aoi21_4
* cell instance $1329 r0 *1 786.24,730.8
X$1329 288 287 171 180 179 gf180mcu_fd_sc_mcu9t5v0__nor2_2
* cell instance $1343 r0 *1 735.28,740.88
X$1343 288 211 174 192 205 190 287 gf180mcu_fd_sc_mcu9t5v0__addf_1
* cell instance $1348 r0 *1 752.08,740.88
X$1348 288 175 176 206 192 287 gf180mcu_fd_sc_mcu9t5v0__addh_2
* cell instance $1354 r0 *1 765.52,740.88
X$1354 288 287 175 195 gf180mcu_fd_sc_mcu9t5v0__clkinv_2
* cell instance $1373 m0 *1 772.8,750.96
X$1373 288 287 195 207 177 gf180mcu_fd_sc_mcu9t5v0__nand2_2
* cell instance $1377 m0 *1 777.84,750.96
X$1377 288 216 177 195 196 197 287 gf180mcu_fd_sc_mcu9t5v0__aoi211_4
* cell instance $1391 m0 *1 787.36,771.12
X$1391 235 288 234 236 287 180 gf180mcu_fd_sc_mcu9t5v0__or3_2
* cell instance $1395 m0 *1 795.2,761.04
X$1395 288 287 180 223 gf180mcu_fd_sc_mcu9t5v0__clkinv_2
* cell instance $1398 m0 *1 785.68,761.04
X$1398 216 215 217 239 180 287 288 gf180mcu_fd_sc_mcu9t5v0__aoi211_2
* cell instance $1418 r0 *1 1450.4,730.8
X$1418 185 287 288 186 gf180mcu_fd_sc_mcu9t5v0__dlyb_2
* cell instance $1422 m0 *1 1434.72,750.96
X$1422 288 287 185 200 gf180mcu_fd_sc_mcu9t5v0__clkinv_2
* cell instance $1440 m0 *1 702.24,761.04
X$1440 288 227 205 240 209 191 287 gf180mcu_fd_sc_mcu9t5v0__addf_1
* cell instance $1450 m0 *1 762.16,761.04
X$1450 288 214 193 213 212 287 gf180mcu_fd_sc_mcu9t5v0__addh_2
* cell instance $1455 r0 *1 780.08,740.88
X$1455 288 287 193 196 gf180mcu_fd_sc_mcu9t5v0__clkinv_2
* cell instance $1461 r0 *1 771.12,750.96
X$1461 288 287 214 194 gf180mcu_fd_sc_mcu9t5v0__clkinv_2
* cell instance $1474 r0 *1 786.24,750.96
X$1474 287 196 224 288 258 gf180mcu_fd_sc_mcu9t5v0__xnor2_2
* cell instance $1478 m0 *1 781.76,761.04
X$1478 288 287 199 197 gf180mcu_fd_sc_mcu9t5v0__inv_2
* cell instance $1495 m0 *1 1444.8,750.96
X$1495 288 203 198 287 gf180mcu_fd_sc_mcu9t5v0__clkbuf_8
* cell instance $1506 m0 *1 775.6,771.12
X$1506 288 234 199 232 233 287 gf180mcu_fd_sc_mcu9t5v0__addh_2
* cell instance $1514 m0 *1 776.72,761.04
X$1514 287 199 214 288 217 gf180mcu_fd_sc_mcu9t5v0__and2_2
* cell instance $1520 r0 *1 1450.96,750.96
X$1520 201 287 288 202 gf180mcu_fd_sc_mcu9t5v0__dlyb_2
* cell instance $1535 r0 *1 748.16,761.04
X$1535 288 245 206 212 241 240 287 gf180mcu_fd_sc_mcu9t5v0__addf_1
* cell instance $1543 r0 *1 781.2,750.96
X$1543 287 215 207 288 224 gf180mcu_fd_sc_mcu9t5v0__and2_2
* cell instance $1563 m0 *1 742,771.12
X$1563 288 244 241 230 229 210 287 gf180mcu_fd_sc_mcu9t5v0__addf_1
* cell instance $1579 m0 *1 758.8,771.12
X$1579 288 245 213 233 231 230 287 gf180mcu_fd_sc_mcu9t5v0__addf_1
* cell instance $1591 r0 *1 784.56,761.04
X$1591 216 215 217 248 234 287 288 gf180mcu_fd_sc_mcu9t5v0__aoi211_2
* cell instance $1608 m0 *1 1442.56,761.04
X$1608 219 287 288 218 gf180mcu_fd_sc_mcu9t5v0__dlyb_2
* cell instance $1617 r0 *1 798.56,761.04
X$1617 288 239 221 287 238 gf180mcu_fd_sc_mcu9t5v0__or2_4
* cell instance $1636 m0 *1 658,1456.56
X$1636 283 287 288 225 gf180mcu_fd_sc_mcu9t5v0__buf_3
* cell instance $1666 r0 *1 736.96,781.2
X$1666 288 244 231 262 264 260 287 gf180mcu_fd_sc_mcu9t5v0__addf_2
* cell instance $1670 r0 *1 757.68,771.12
X$1670 288 245 232 231 260 246 287 gf180mcu_fd_sc_mcu9t5v0__addf_2
* cell instance $1675 r0 *1 776.72,771.12
X$1675 236 288 287 232 246 247 gf180mcu_fd_sc_mcu9t5v0__addh_1
* cell instance $1686 r0 *1 787.36,771.12
X$1686 288 287 247 235 gf180mcu_fd_sc_mcu9t5v0__clkinv_2
* cell instance $1691 r0 *1 792.4,771.12
X$1691 288 287 235 259 236 gf180mcu_fd_sc_mcu9t5v0__nand2_2
* cell instance $1700 r0 *1 1433.6,771.12
X$1700 287 238 237 288 251 gf180mcu_fd_sc_mcu9t5v0__and2_2
* cell instance $1702 m0 *1 1417.92,791.28
X$1702 287 238 274 288 275 gf180mcu_fd_sc_mcu9t5v0__and2_2
* cell instance $1708 r0 *1 1438.64,771.12
X$1708 287 238 256 288 252 gf180mcu_fd_sc_mcu9t5v0__and2_2
* cell instance $1711 r0 *1 1428.56,771.12
X$1711 287 238 254 288 257 gf180mcu_fd_sc_mcu9t5v0__and2_2
* cell instance $1736 m0 *1 687.12,1456.56
X$1736 284 287 288 243 gf180mcu_fd_sc_mcu9t5v0__buf_3
* cell instance $1764 m0 *1 789.04,781.2
X$1764 287 247 248 288 280 gf180mcu_fd_sc_mcu9t5v0__xnor2_2
* cell instance $1770 r0 *1 1434.16,791.28
X$1770 250 287 288 272 gf180mcu_fd_sc_mcu9t5v0__dlyb_2
* cell instance $1783 r0 *1 1450.96,801.36
X$1783 253 287 288 271 gf180mcu_fd_sc_mcu9t5v0__dlyb_2
* cell instance $1793 m0 *1 1450.96,801.36
X$1793 255 287 288 270 gf180mcu_fd_sc_mcu9t5v0__dlyb_2
* cell instance $1819 m0 *1 663.6,1456.56
X$1819 286 287 288 261 gf180mcu_fd_sc_mcu9t5v0__buf_3
* cell instance $1841 r0 *1 1439.2,801.36
X$1841 266 287 288 281 gf180mcu_fd_sc_mcu9t5v0__dlyb_2
* cell instance $1849 m0 *1 1434.16,801.36
X$1849 267 287 288 273 gf180mcu_fd_sc_mcu9t5v0__dlyb_2
* cell instance $1853 r0 *1 1450.96,791.28
X$1853 268 287 288 269 gf180mcu_fd_sc_mcu9t5v0__dlyb_2
* cell instance $92904 m0 *1 643.44,1456.56
X$92904 288 282 285 287 gf180mcu_fd_sc_mcu9t5v0__dlyc_2
.ENDS fir_filter

* cell gf180mcu_fd_sc_mcu9t5v0__xor2_2
* pin A1
* pin PWELL,VSS,gf180mcu_gnd
* pin A2
* pin NWELL,VDD
* pin Z
.SUBCKT gf180mcu_fd_sc_mcu9t5v0__xor2_2 1 2 6 7 8
* net 1 A1
* net 2 PWELL,VSS,gf180mcu_gnd
* net 6 A2
* net 7 NWELL,VDD
* net 8 Z
* device instance $1 r0 *1 0.87,3.947 pmos_5p0
M$1 3 6 7 7 pmos_5p0 L=0.5U W=0.915U AS=0.4026P AD=0.2379P PS=2.71U PD=1.435U
* device instance $2 r0 *1 1.89,3.947 pmos_5p0
M$2 3 1 7 7 pmos_5p0 L=0.5U W=0.915U AS=0.526125P AD=0.2379P PS=2.58U PD=1.435U
* device instance $3 r0 *1 3.14,3.785 pmos_5p0
M$3 5 3 7 7 pmos_5p0 L=0.5U W=1.83U AS=0.526125P AD=0.61305P PS=2.58U PD=2.5U
* device instance $4 r0 *1 4.31,3.785 pmos_5p0
M$4 10 1 5 7 pmos_5p0 L=0.5U W=1.83U AS=0.61305P AD=0.4758P PS=2.5U PD=2.35U
* device instance $5 r0 *1 5.33,3.785 pmos_5p0
M$5 7 6 10 7 pmos_5p0 L=0.5U W=1.83U AS=0.4758P AD=0.8052P PS=2.35U PD=4.54U
* device instance $6 r0 *1 7.27,3.78 pmos_5p0
M$6 8 5 7 7 pmos_5p0 L=0.5U W=3.66U AS=1.281P AD=1.281P PS=6.89U PD=6.89U
* device instance $8 r0 *1 7.22,1.005 nmos_5p0
M$8 8 5 2 2 nmos_5p0 L=0.6U W=2.64U AS=0.924P AD=0.924P PS=5.36U PD=5.36U
* device instance $10 r0 *1 0.92,1.16 nmos_5p0
M$10 9 6 3 2 nmos_5p0 L=0.6U W=0.66U AS=0.2904P AD=0.1056P PS=2.2U PD=0.98U
* device instance $11 r0 *1 1.84,1.16 nmos_5p0
M$11 9 1 2 2 nmos_5p0 L=0.6U W=0.66U AS=0.363P AD=0.1056P PS=2.02U PD=0.98U
* device instance $12 r0 *1 3.14,1.005 nmos_5p0
M$12 4 3 2 2 nmos_5p0 L=0.6U W=1.32U AS=0.363P AD=0.3432P PS=2.02U PD=1.84U
* device instance $13 r0 *1 4.26,1.005 nmos_5p0
M$13 5 1 4 2 nmos_5p0 L=0.6U W=1.32U AS=0.3432P AD=0.3432P PS=1.84U PD=1.84U
* device instance $14 r0 *1 5.38,1.005 nmos_5p0
M$14 4 6 5 2 nmos_5p0 L=0.6U W=1.32U AS=0.3432P AD=0.5808P PS=1.84U PD=3.52U
.ENDS gf180mcu_fd_sc_mcu9t5v0__xor2_2

* cell gf180mcu_fd_sc_mcu9t5v0__aoi221_4
* pin PWELL,VSS,gf180mcu_gnd
* pin ZN
* pin B1
* pin A1
* pin B2
* pin C
* pin A2
* pin NWELL,VDD
.SUBCKT gf180mcu_fd_sc_mcu9t5v0__aoi221_4 1 2 3 4 13 14 15 16
* net 1 PWELL,VSS,gf180mcu_gnd
* net 2 ZN
* net 3 B1
* net 4 A1
* net 13 B2
* net 14 C
* net 15 A2
* net 16 NWELL,VDD
* device instance $1 r0 *1 9.8,3.78 pmos_5p0
M$1 17 14 18 16 pmos_5p0 L=0.5U W=7.32U AS=2.27835P AD=2.20515P PS=11.64U
+ PD=9.73U
* device instance $5 r0 *1 14.21,3.78 pmos_5p0
M$5 2 4 18 16 pmos_5p0 L=0.5U W=7.32U AS=2.1594P AD=2.2326P PS=9.68U PD=11.59U
* device instance $6 r0 *1 15.23,3.78 pmos_5p0
M$6 18 15 2 16 pmos_5p0 L=0.5U W=7.32U AS=1.9032P AD=1.9032P PS=9.4U PD=9.4U
* device instance $13 r0 *1 0.92,3.78 pmos_5p0
M$13 17 3 16 16 pmos_5p0 L=0.5U W=7.32U AS=2.2326P AD=2.2326P PS=11.59U
+ PD=11.59U
* device instance $14 r0 *1 1.94,3.78 pmos_5p0
M$14 16 13 17 16 pmos_5p0 L=0.5U W=7.32U AS=1.9032P AD=1.9032P PS=9.4U PD=9.4U
* device instance $21 r0 *1 9.6,0.74 nmos_5p0
M$21 1 14 2 1 nmos_5p0 L=0.6U W=3.16U AS=1.04675P AD=0.9717P PS=6.005U PD=5.815U
* device instance $25 r0 *1 0.92,0.937 nmos_5p0
M$25 5 3 2 1 nmos_5p0 L=0.6U W=1.185U AS=0.5214P AD=0.219225P PS=3.25U PD=1.555U
* device instance $26 r0 *1 1.89,0.937 nmos_5p0
M$26 1 13 5 1 nmos_5p0 L=0.6U W=1.185U AS=0.219225P AD=0.3081P PS=1.555U
+ PD=1.705U
* device instance $27 r0 *1 3.01,0.937 nmos_5p0
M$27 7 13 1 1 nmos_5p0 L=0.6U W=1.185U AS=0.3081P AD=0.1896P PS=1.705U PD=1.505U
* device instance $28 r0 *1 3.93,0.937 nmos_5p0
M$28 2 3 7 1 nmos_5p0 L=0.6U W=1.185U AS=0.1896P AD=0.3081P PS=1.505U PD=1.705U
* device instance $29 r0 *1 5.05,0.937 nmos_5p0
M$29 9 3 2 1 nmos_5p0 L=0.6U W=1.185U AS=0.3081P AD=0.1896P PS=1.705U PD=1.505U
* device instance $30 r0 *1 5.97,0.937 nmos_5p0