* CDL Netlist generated by OpenROAD

*.BUSDELIMITER [

.SUBCKT fir_filter clk data_in[0] data_in[1] data_in[2] data_in[3]
+ data_in[4] data_in[5] data_in[6] data_in[7] data_out[0] data_out[10]
+ data_out[11] data_out[12] data_out[13] data_out[14] data_out[15]
+ data_out[16] data_out[17] data_out[18] data_out[1] data_out[2]
+ data_out[3] data_out[4] data_out[5] data_out[6] data_out[7]
+ data_out[8] data_out[9] data_out_valid data_valid rst_n
X_185_ _130_ _158_ VDD VSS gf180mcu_fd_sc_mcu9t5v0__clkinv_2
X_186_ _163_ _159_ VDD VSS gf180mcu_fd_sc_mcu9t5v0__clkinv_2
X_187_ _184_ _160_ VDD VSS gf180mcu_fd_sc_mcu9t5v0__clkinv_2
X_188_ net10 _051_ VDD VSS gf180mcu_fd_sc_mcu9t5v0__buf_8
X_189_ _051_ _052_ VDD VSS gf180mcu_fd_sc_mcu9t5v0__clkbuf_8
X_190_ delay_line\[0\]\[0\] net2 _052_ _000_ VDD VSS gf180mcu_fd_sc_mcu9t5v0__mux2_2
X_191_ delay_line\[0\]\[1\] net3 _052_ _001_ VDD VSS gf180mcu_fd_sc_mcu9t5v0__mux2_2
X_192_ delay_line\[0\]\[2\] net4 _052_ _002_ VDD VSS gf180mcu_fd_sc_mcu9t5v0__mux2_2
X_193_ delay_line\[0\]\[3\] net5 _052_ _003_ VDD VSS gf180mcu_fd_sc_mcu9t5v0__mux2_2
X_194_ delay_line\[0\]\[4\] net6 _052_ _004_ VDD VSS gf180mcu_fd_sc_mcu9t5v0__mux2_2
X_195_ delay_line\[0\]\[5\] net7 _052_ _005_ VDD VSS gf180mcu_fd_sc_mcu9t5v0__mux2_2
X_196_ delay_line\[0\]\[6\] net8 _052_ _006_ VDD VSS gf180mcu_fd_sc_mcu9t5v0__mux2_2
X_197_ delay_line\[0\]\[7\] net9 _052_ _007_ VDD VSS gf180mcu_fd_sc_mcu9t5v0__mux2_2
X_198_ delay_line\[1\]\[0\] delay_line\[0\]\[0\] _052_ _008_
+ VDD VSS gf180mcu_fd_sc_mcu9t5v0__mux2_2
X_199_ delay_line\[1\]\[1\] delay_line\[0\]\[1\] _052_ _009_
+ VDD VSS gf180mcu_fd_sc_mcu9t5v0__mux2_2
X_200_ _051_ _053_ VDD VSS gf180mcu_fd_sc_mcu9t5v0__clkbuf_8
X_201_ delay_line\[1\]\[2\] delay_line\[0\]\[2\] _053_ _010_
+ VDD VSS gf180mcu_fd_sc_mcu9t5v0__mux2_2
X_202_ delay_line\[1\]\[3\] delay_line\[0\]\[3\] _053_ _011_
+ VDD VSS gf180mcu_fd_sc_mcu9t5v0__mux2_2
X_203_ delay_line\[1\]\[4\] delay_line\[0\]\[4\] _053_ _012_
+ VDD VSS gf180mcu_fd_sc_mcu9t5v0__mux2_2
X_204_ delay_line\[1\]\[5\] delay_line\[0\]\[5\] _053_ _013_
+ VDD VSS gf180mcu_fd_sc_mcu9t5v0__mux2_2
X_205_ delay_line\[1\]\[6\] delay_line\[0\]\[6\] _053_ _014_
+ VDD VSS gf180mcu_fd_sc_mcu9t5v0__mux2_2
X_206_ delay_line\[1\]\[7\] delay_line\[0\]\[7\] _053_ _015_
+ VDD VSS gf180mcu_fd_sc_mcu9t5v0__mux2_2
X_207_ delay_line\[2\]\[0\] delay_line\[1\]\[0\] _053_ _016_
+ VDD VSS gf180mcu_fd_sc_mcu9t5v0__mux2_2
X_208_ delay_line\[2\]\[1\] delay_line\[1\]\[1\] _053_ _017_
+ VDD VSS gf180mcu_fd_sc_mcu9t5v0__mux2_2
X_209_ delay_line\[2\]\[2\] delay_line\[1\]\[2\] _053_ _018_
+ VDD VSS gf180mcu_fd_sc_mcu9t5v0__mux2_2
X_210_ delay_line\[2\]\[3\] delay_line\[1\]\[3\] _053_ _019_
+ VDD VSS gf180mcu_fd_sc_mcu9t5v0__mux2_2
X_211_ _051_ _054_ VDD VSS gf180mcu_fd_sc_mcu9t5v0__clkbuf_8
X_212_ delay_line\[2\]\[4\] delay_line\[1\]\[4\] _054_ _020_
+ VDD VSS gf180mcu_fd_sc_mcu9t5v0__mux2_2
X_213_ delay_line\[2\]\[5\] delay_line\[1\]\[5\] _054_ _021_
+ VDD VSS gf180mcu_fd_sc_mcu9t5v0__mux2_2
X_214_ delay_line\[2\]\[6\] delay_line\[1\]\[6\] _054_ _022_
+ VDD VSS gf180mcu_fd_sc_mcu9t5v0__mux2_2
X_215_ delay_line\[2\]\[7\] delay_line\[1\]\[7\] _054_ _023_
+ VDD VSS gf180mcu_fd_sc_mcu9t5v0__mux2_2
X_216_ delay_line\[3\]\[0\] delay_line\[2\]\[0\] _054_ _024_
+ VDD VSS gf180mcu_fd_sc_mcu9t5v0__mux2_2
X_217_ delay_line\[3\]\[1\] delay_line\[2\]\[1\] _054_ _025_
+ VDD VSS gf180mcu_fd_sc_mcu9t5v0__mux2_2
X_218_ delay_line\[3\]\[2\] delay_line\[2\]\[2\] _054_ _026_
+ VDD VSS gf180mcu_fd_sc_mcu9t5v0__mux2_2
X_219_ delay_line\[3\]\[3\] delay_line\[2\]\[3\] _054_ _027_
+ VDD VSS gf180mcu_fd_sc_mcu9t5v0__mux2_2
X_220_ delay_line\[3\]\[4\] delay_line\[2\]\[4\] _054_ _028_
+ VDD VSS gf180mcu_fd_sc_mcu9t5v0__mux2_2
X_221_ delay_line\[3\]\[5\] delay_line\[2\]\[5\] _054_ _029_
+ VDD VSS gf180mcu_fd_sc_mcu9t5v0__mux2_2
X_222_ net10 _055_ VDD VSS gf180mcu_fd_sc_mcu9t5v0__clkbuf_8
X_223_ delay_line\[3\]\[6\] delay_line\[2\]\[6\] _055_ _030_
+ VDD VSS gf180mcu_fd_sc_mcu9t5v0__mux2_2
X_224_ delay_line\[3\]\[7\] delay_line\[2\]\[7\] _055_ _031_
+ VDD VSS gf180mcu_fd_sc_mcu9t5v0__mux2_2
X_225_ net11 mac_result\[0\] _055_ _032_ VDD VSS gf180mcu_fd_sc_mcu9t5v0__mux2_2
X_226_ _165_ _184_ _164_ _167_ _056_ VDD VSS gf180mcu_fd_sc_mcu9t5v0__aoi211_4
X_227_ _168_ _167_ _172_ _170_ _057_ VDD VSS gf180mcu_fd_sc_mcu9t5v0__oai211_4
X_228_ _176_ _173_ _175_ _058_ VDD VSS gf180mcu_fd_sc_mcu9t5v0__aoi21_2
X_229_ _172_ _169_ _171_ _059_ VDD VSS gf180mcu_fd_sc_mcu9t5v0__aoi21_4
X_230_ _056_ _057_ _058_ _059_ _060_ VDD VSS gf180mcu_fd_sc_mcu9t5v0__oai211_4
X_231_ _175_ _061_ VDD VSS gf180mcu_fd_sc_mcu9t5v0__clkinv_2
X_232_ _174_ _173_ _176_ _062_ VDD VSS gf180mcu_fd_sc_mcu9t5v0__oai21_2
X_233_ _178_ _063_ VDD VSS gf180mcu_fd_sc_mcu9t5v0__clkinv_2
X_234_ _180_ _064_ VDD VSS gf180mcu_fd_sc_mcu9t5v0__inv_2
X_235_ _061_ _062_ _063_ _064_ _065_ VDD VSS gf180mcu_fd_sc_mcu9t5v0__aoi211_4
X_236_ _180_ _177_ _066_ VDD VSS gf180mcu_fd_sc_mcu9t5v0__and2_2
X_237_ _060_ _065_ _066_ _179_ _067_ VDD VSS gf180mcu_fd_sc_mcu9t5v0__aoi211_2
X_238_ _182_ _067_ _068_ VDD VSS gf180mcu_fd_sc_mcu9t5v0__xnor2_2
X_239_ net12 _068_ _055_ _033_ VDD VSS gf180mcu_fd_sc_mcu9t5v0__mux2_2
X_240_ net10 _069_ VDD VSS gf180mcu_fd_sc_mcu9t5v0__clkinv_8
X_241_ net13 _070_ VDD VSS gf180mcu_fd_sc_mcu9t5v0__clkinv_2
X_242_ _182_ _071_ VDD VSS gf180mcu_fd_sc_mcu9t5v0__clkinv_2
X_243_ _071_ _179_ _181_ _072_ VDD VSS gf180mcu_fd_sc_mcu9t5v0__or3_2
X_244_ _072_ _073_ VDD VSS gf180mcu_fd_sc_mcu9t5v0__clkinv_2
X_245_ _071_ _181_ _074_ VDD VSS gf180mcu_fd_sc_mcu9t5v0__nand2_2
X_246_ _051_ _074_ _075_ VDD VSS gf180mcu_fd_sc_mcu9t5v0__nand2_2
X_247_ _064_ _073_ _075_ _076_ VDD VSS gf180mcu_fd_sc_mcu9t5v0__aoi21_4
X_248_ _170_ _172_ _077_ VDD VSS gf180mcu_fd_sc_mcu9t5v0__and2_2
X_249_ _168_ _078_ VDD VSS gf180mcu_fd_sc_mcu9t5v0__clkinv_2
X_250_ _167_ _079_ VDD VSS gf180mcu_fd_sc_mcu9t5v0__clkinv_2
X_251_ _078_ _161_ _079_ _080_ VDD VSS gf180mcu_fd_sc_mcu9t5v0__oai21_2
X_252_ _172_ _169_ _077_ _080_ _171_ _081_ VDD VSS gf180mcu_fd_sc_mcu9t5v0__aoi221_4
X_253_ _174_ _176_ _178_ _082_ VDD VSS gf180mcu_fd_sc_mcu9t5v0__nand3_2
X_254_ _177_ _083_ VDD VSS gf180mcu_fd_sc_mcu9t5v0__clkinv_2
X_255_ _063_ _058_ _083_ _084_ VDD VSS gf180mcu_fd_sc_mcu9t5v0__oai21_2
X_256_ _072_ _084_ _085_ VDD VSS gf180mcu_fd_sc_mcu9t5v0__nor2_2
X_257_ _081_ _082_ _085_ _086_ VDD VSS gf180mcu_fd_sc_mcu9t5v0__oai21_4
X_258_ _069_ _070_ _076_ _086_ _034_ VDD VSS gf180mcu_fd_sc_mcu9t5v0__aoi22_2
X_259_ _060_ _065_ _066_ _072_ _087_ VDD VSS gf180mcu_fd_sc_mcu9t5v0__aoi211_2
X_260_ _075_ _087_ _088_ VDD VSS gf180mcu_fd_sc_mcu9t5v0__or2_4
X_261_ _051_ net14 _089_ VDD VSS gf180mcu_fd_sc_mcu9t5v0__or2_2
X_262_ _088_ _089_ _035_ VDD VSS gf180mcu_fd_sc_mcu9t5v0__and2_2
X_263_ net15 _090_ VDD VSS gf180mcu_fd_sc_mcu9t5v0__clkinv_2
X_264_ _069_ _090_ _076_ _086_ _036_ VDD VSS gf180mcu_fd_sc_mcu9t5v0__aoi22_2
X_265_ _051_ net16 _091_ VDD VSS gf180mcu_fd_sc_mcu9t5v0__or2_2
X_266_ _088_ _091_ _037_ VDD VSS gf180mcu_fd_sc_mcu9t5v0__and2_2
X_267_ net17 _092_ VDD VSS gf180mcu_fd_sc_mcu9t5v0__clkinv_2
X_268_ _069_ _092_ _076_ _086_ _038_ VDD VSS gf180mcu_fd_sc_mcu9t5v0__aoi22_2
X_269_ _051_ net18 _093_ VDD VSS gf180mcu_fd_sc_mcu9t5v0__or2_2
X_270_ _088_ _093_ _039_ VDD VSS gf180mcu_fd_sc_mcu9t5v0__and2_2
X_271_ net19 _094_ VDD VSS gf180mcu_fd_sc_mcu9t5v0__clkinv_2
X_272_ _069_ _094_ _076_ _086_ _040_ VDD VSS gf180mcu_fd_sc_mcu9t5v0__aoi22_2
X_273_ _051_ net20 _095_ VDD VSS gf180mcu_fd_sc_mcu9t5v0__or2_2
X_274_ _088_ _095_ _041_ VDD VSS gf180mcu_fd_sc_mcu9t5v0__and2_2
X_275_ net21 mac_result\[1\] _055_ _042_ VDD VSS gf180mcu_fd_sc_mcu9t5v0__mux2_2
X_276_ _162_ _096_ VDD VSS gf180mcu_fd_sc_mcu9t5v0__clkinv_2
X_277_ _096_ net22 _069_ _043_ VDD VSS gf180mcu_fd_sc_mcu9t5v0__mux2_2
X_278_ _168_ _161_ _097_ VDD VSS gf180mcu_fd_sc_mcu9t5v0__xnor2_2
X_279_ net23 _097_ _055_ _044_ VDD VSS gf180mcu_fd_sc_mcu9t5v0__mux2_2
X_280_ _165_ _184_ _164_ _098_ VDD VSS gf180mcu_fd_sc_mcu9t5v0__aoi21_2
X_281_ _078_ _098_ _079_ _099_ VDD VSS gf180mcu_fd_sc_mcu9t5v0__oai21_2
X_282_ _170_ _099_ _100_ VDD VSS gf180mcu_fd_sc_mcu9t5v0__xor2_2
X_283_ net24 _100_ _055_ _045_ VDD VSS gf180mcu_fd_sc_mcu9t5v0__mux2_2
X_284_ _170_ _080_ _169_ _101_ VDD VSS gf180mcu_fd_sc_mcu9t5v0__aoi21_2
X_285_ _172_ _101_ _102_ VDD VSS gf180mcu_fd_sc_mcu9t5v0__xnor2_2
X_286_ net25 _102_ _055_ _046_ VDD VSS gf180mcu_fd_sc_mcu9t5v0__mux2_2
X_287_ _056_ _057_ _059_ _103_ VDD VSS gf180mcu_fd_sc_mcu9t5v0__oai21_2
X_288_ _174_ _103_ _104_ VDD VSS gf180mcu_fd_sc_mcu9t5v0__xor2_2
X_289_ net26 _104_ _055_ _047_ VDD VSS gf180mcu_fd_sc_mcu9t5v0__mux2_2
X_290_ _069_ net27 _105_ VDD VSS gf180mcu_fd_sc_mcu9t5v0__and2_2
X_291_ _170_ _172_ _106_ VDD VSS gf180mcu_fd_sc_mcu9t5v0__nand2_2
X_292_ _161_ _107_ VDD VSS gf180mcu_fd_sc_mcu9t5v0__clkinv_2
X_293_ _168_ _107_ _167_ _108_ VDD VSS gf180mcu_fd_sc_mcu9t5v0__aoi21_2
X_294_ _106_ _108_ _059_ _109_ VDD VSS gf180mcu_fd_sc_mcu9t5v0__oai21_2
X_295_ _176_ _110_ VDD VSS gf180mcu_fd_sc_mcu9t5v0__clkinv_2
X_296_ _110_ _173_ _069_ _111_ VDD VSS gf180mcu_fd_sc_mcu9t5v0__or3_2
X_297_ _174_ _109_ _111_ _112_ VDD VSS gf180mcu_fd_sc_mcu9t5v0__aoi21_2
X_298_ _174_ _110_ _051_ _109_ _113_ VDD VSS gf180mcu_fd_sc_mcu9t5v0__and4_2
X_299_ _110_ _173_ _051_ _114_ VDD VSS gf180mcu_fd_sc_mcu9t5v0__and3_2
X_300_ _105_ _112_ _113_ _114_ _048_ VDD VSS gf180mcu_fd_sc_mcu9t5v0__or4_2
X_301_ _061_ _062_ _115_ VDD VSS gf180mcu_fd_sc_mcu9t5v0__nand2_2
X_302_ _060_ _115_ _116_ VDD VSS gf180mcu_fd_sc_mcu9t5v0__and2_2
X_303_ _063_ _116_ _117_ VDD VSS gf180mcu_fd_sc_mcu9t5v0__xnor2_2
X_304_ net28 _117_ _055_ _049_ VDD VSS gf180mcu_fd_sc_mcu9t5v0__mux2_2
X_305_ _069_ net29 _118_ VDD VSS gf180mcu_fd_sc_mcu9t5v0__and2_2
X_306_ _176_ _178_ _064_ net10 _119_ VDD VSS gf180mcu_fd_sc_mcu9t5v0__and4_2
X_307_ _174_ _109_ _119_ _120_ VDD VSS gf180mcu_fd_sc_mcu9t5v0__and3_2
X_308_ _180_ net10 _121_ VDD VSS gf180mcu_fd_sc_mcu9t5v0__nand2_2
X_309_ _174_ _109_ _121_ _084_ _122_ VDD VSS gf180mcu_fd_sc_mcu9t5v0__aoi211_2
X_310_ _176_ _178_ _084_ _121_ _123_ VDD VSS gf180mcu_fd_sc_mcu9t5v0__aoi211_2
X_311_ _064_ net10 _084_ _124_ VDD VSS gf180mcu_fd_sc_mcu9t5v0__and3_2
X_312_ _123_ _124_ _125_ VDD VSS gf180mcu_fd_sc_mcu9t5v0__or2_2
X_313_ _118_ _120_ _122_ _125_ _050_ VDD VSS gf180mcu_fd_sc_mcu9t5v0__or4_2
X_314_ delay_line\[0\]\[2\] delay_line\[1\]\[1\] delay_line\[2\]\[1\]
+ _126_ _127_ VDD VSS gf180mcu_fd_sc_mcu9t5v0__addf_2
X_315_ delay_line\[3\]\[2\] _127_ _128_ _129_ _130_ VDD VSS
+ gf180mcu_fd_sc_mcu9t5v0__addf_2
X_316_ delay_line\[0\]\[1\] delay_line\[1\]\[0\] delay_line\[2\]\[0\]
+ _128_ _131_ VDD VSS gf180mcu_fd_sc_mcu9t5v0__addf_1
X_317_ delay_line\[0\]\[3\] delay_line\[1\]\[2\] delay_line\[2\]\[2\]
+ _132_ _133_ VDD VSS gf180mcu_fd_sc_mcu9t5v0__addf_1
X_318_ delay_line\[3\]\[3\] _133_ _126_ _134_ _135_ VDD VSS
+ gf180mcu_fd_sc_mcu9t5v0__addf_1
X_319_ delay_line\[0\]\[4\] delay_line\[1\]\[3\] delay_line\[2\]\[3\]
+ _136_ _137_ VDD VSS gf180mcu_fd_sc_mcu9t5v0__addf_1
X_320_ delay_line\[3\]\[4\] _137_ _132_ _138_ _139_ VDD VSS
+ gf180mcu_fd_sc_mcu9t5v0__addf_1
X_321_ delay_line\[0\]\[5\] delay_line\[1\]\[4\] delay_line\[2\]\[4\]
+ _140_ _141_ VDD VSS gf180mcu_fd_sc_mcu9t5v0__addf_1
X_322_ delay_line\[3\]\[5\] _141_ _136_ _142_ _143_ VDD VSS
+ gf180mcu_fd_sc_mcu9t5v0__addf_2
X_323_ delay_line\[0\]\[6\] delay_line\[1\]\[5\] delay_line\[2\]\[5\]
+ _144_ _145_ VDD VSS gf180mcu_fd_sc_mcu9t5v0__addf_1
X_324_ delay_line\[3\]\[6\] _145_ _140_ _146_ _147_ VDD VSS
+ gf180mcu_fd_sc_mcu9t5v0__addf_1
X_325_ delay_line\[0\]\[7\] delay_line\[1\]\[6\] delay_line\[2\]\[6\]
+ _148_ _149_ VDD VSS gf180mcu_fd_sc_mcu9t5v0__addf_1
X_326_ delay_line\[3\]\[7\] _149_ _144_ _150_ _151_ VDD VSS
+ gf180mcu_fd_sc_mcu9t5v0__addf_1
X_327_ delay_line\[0\]\[7\] delay_line\[1\]\[7\] delay_line\[2\]\[7\]
+ _152_ _153_ VDD VSS gf180mcu_fd_sc_mcu9t5v0__addf_2
X_328_ delay_line\[3\]\[7\] _153_ _148_ _154_ _155_ VDD VSS
+ gf180mcu_fd_sc_mcu9t5v0__addf_1
X_329_ delay_line\[3\]\[7\] _153_ _152_ _156_ _157_ VDD VSS
+ gf180mcu_fd_sc_mcu9t5v0__addf_2
X_330_ _158_ _159_ _160_ _161_ _162_ VDD VSS gf180mcu_fd_sc_mcu9t5v0__addf_2
X_331_ _130_ _163_ _164_ _165_ VDD VSS gf180mcu_fd_sc_mcu9t5v0__addh_2
X_332_ delay_line\[3\]\[1\] _131_ _163_ _166_ VDD VSS gf180mcu_fd_sc_mcu9t5v0__addh_1
X_333_ _135_ _129_ _167_ _168_ VDD VSS gf180mcu_fd_sc_mcu9t5v0__addh_2
X_334_ _139_ _134_ _169_ _170_ VDD VSS gf180mcu_fd_sc_mcu9t5v0__addh_2
X_335_ _143_ _138_ _171_ _172_ VDD VSS gf180mcu_fd_sc_mcu9t5v0__addh_4
X_336_ _147_ _142_ _173_ _174_ VDD VSS gf180mcu_fd_sc_mcu9t5v0__addh_2
X_337_ _151_ _146_ _175_ _176_ VDD VSS gf180mcu_fd_sc_mcu9t5v0__addh_2
X_338_ _155_ _150_ _177_ _178_ VDD VSS gf180mcu_fd_sc_mcu9t5v0__addh_2
X_339_ _157_ _154_ _179_ _180_ VDD VSS gf180mcu_fd_sc_mcu9t5v0__addh_2
X_340_ _157_ _156_ _181_ _182_ VDD VSS gf180mcu_fd_sc_mcu9t5v0__addh_1
X_341_ delay_line\[0\]\[0\] delay_line\[3\]\[0\] _183_ mac_result\[0\]
+ VDD VSS gf180mcu_fd_sc_mcu9t5v0__addh_1
X_342_ _166_ _183_ _184_ mac_result\[1\] VDD VSS gf180mcu_fd_sc_mcu9t5v0__addh_2
Xdata_out_valid$_DFF_PN0_ net10 net1 clknet_2_2__leaf_clk
+ net30 VDD VSS gf180mcu_fd_sc_mcu9t5v0__dffrnq_2
Xdelay_line\[0\]\[0\]$_DFFE_PN0P_ _000_ net1 clknet_2_0__leaf_clk
+ delay_line\[0\]\[0\] VDD VSS gf180mcu_fd_sc_mcu9t5v0__dffrnq_2
Xdelay_line\[0\]\[1\]$_DFFE_PN0P_ _001_ net1 clknet_2_0__leaf_clk
+ delay_line\[0\]\[1\] VDD VSS gf180mcu_fd_sc_mcu9t5v0__dffrnq_2
Xdelay_line\[0\]\[2\]$_DFFE_PN0P_ _002_ net1 clknet_2_0__leaf_clk
+ delay_line\[0\]\[2\] VDD VSS gf180mcu_fd_sc_mcu9t5v0__dffrnq_2
Xdelay_line\[0\]\[3\]$_DFFE_PN0P_ _003_ net1 clknet_2_1__leaf_clk
+ delay_line\[0\]\[3\] VDD VSS gf180mcu_fd_sc_mcu9t5v0__dffrnq_2
Xdelay_line\[0\]\[4\]$_DFFE_PN0P_ _004_ net1 clknet_2_1__leaf_clk
+ delay_line\[0\]\[4\] VDD VSS gf180mcu_fd_sc_mcu9t5v0__dffrnq_2
Xdelay_line\[0\]\[5\]$_DFFE_PN0P_ _005_ net1 clknet_2_1__leaf_clk
+ delay_line\[0\]\[5\] VDD VSS gf180mcu_fd_sc_mcu9t5v0__dffrnq_2
Xdelay_line\[0\]\[6\]$_DFFE_PN0P_ _006_ net1 clknet_2_3__leaf_clk
+ delay_line\[0\]\[6\] VDD VSS gf180mcu_fd_sc_mcu9t5v0__dffrnq_2
Xdelay_line\[0\]\[7\]$_DFFE_PN0P_ _007_ net1 clknet_2_3__leaf_clk
+ delay_line\[0\]\[7\] VDD VSS gf180mcu_fd_sc_mcu9t5v0__dffrnq_2
Xdelay_line\[1\]\[0\]$_DFFE_PN0P_ _008_ net1 clknet_2_0__leaf_clk
+ delay_line\[1\]\[0\] VDD VSS gf180mcu_fd_sc_mcu9t5v0__dffrnq_2
Xdelay_line\[1\]\[1\]$_DFFE_PN0P_ _009_ net1 clknet_2_0__leaf_clk
+ delay_line\[1\]\[1\] VDD VSS gf180mcu_fd_sc_mcu9t5v0__dffrnq_2
Xdelay_line\[1\]\[2\]$_DFFE_PN0P_ _010_ net1 clknet_2_0__leaf_clk
+ delay_line\[1\]\[2\] VDD VSS gf180mcu_fd_sc_mcu9t5v0__dffrnq_2
Xdelay_line\[1\]\[3\]$_DFFE_PN0P_ _011_ net1 clknet_2_1__leaf_clk
+ delay_line\[1\]\[3\] VDD VSS gf180mcu_fd_sc_mcu9t5v0__dffrnq_2
Xdelay_line\[1\]\[4\]$_DFFE_PN0P_ _012_ net1 clknet_2_1__leaf_clk
+ delay_line\[1\]\[4\] VDD VSS gf180mcu_fd_sc_mcu9t5v0__dffrnq_2
Xdelay_line\[1\]\[5\]$_DFFE_PN0P_ _013_ net1 clknet_2_1__leaf_clk
+ delay_line\[1\]\[5\] VDD VSS gf180mcu_fd_sc_mcu9t5v0__dffrnq_2
Xdelay_line\[1\]\[6\]$_DFFE_PN0P_ _014_ net1 clknet_2_3__leaf_clk
+ delay_line\[1\]\[6\] VDD VSS gf180mcu_fd_sc_mcu9t5v0__dffrnq_2
Xdelay_line\[1\]\[7\]$_DFFE_PN0P_ _015_ net1 clknet_2_3__leaf_clk
+ delay_line\[1\]\[7\] VDD VSS gf180mcu_fd_sc_mcu9t5v0__dffrnq_2
Xdelay_line\[2\]\[0\]$_DFFE_PN0P_ _016_ net1 clknet_2_0__leaf_clk
+ delay_line\[2\]\[0\] VDD VSS gf180mcu_fd_sc_mcu9t5v0__dffrnq_2
Xdelay_line\[2\]\[1\]$_DFFE_PN0P_ _017_ net1 clknet_2_0__leaf_clk
+ delay_line\[2\]\[1\] VDD VSS gf180mcu_fd_sc_mcu9t5v0__dffrnq_2
Xdelay_line\[2\]\[2\]$_DFFE_PN0P_ _018_ net1 clknet_2_0__leaf_clk
+ delay_line\[2\]\[2\] VDD VSS gf180mcu_fd_sc_mcu9t5v0__dffrnq_2
Xdelay_line\[2\]\[3\]$_DFFE_PN0P_ _019_ net1 clknet_2_1__leaf_clk
+ delay_line\[2\]\[3\] VDD VSS gf180mcu_fd_sc_mcu9t5v0__dffrnq_2
Xdelay_line\[2\]\[4\]$_DFFE_PN0P_ _020_ net1 clknet_2_1__leaf_clk
+ delay_line\[2\]\[4\] VDD VSS gf180mcu_fd_sc_mcu9t5v0__dffrnq_2
Xdelay_line\[2\]\[5\]$_DFFE_PN0P_ _021_ net1 clknet_2_1__leaf_clk
+ delay_line\[2\]\[5\] VDD VSS gf180mcu_fd_sc_mcu9t5v0__dffrnq_2
Xdelay_line\[2\]\[6\]$_DFFE_PN0P_ _022_ net1 clknet_2_3__leaf_clk
+ delay_line\[2\]\[6\] VDD VSS gf180mcu_fd_sc_mcu9t5v0__dffrnq_2
Xdelay_line\[2\]\[7\]$_DFFE_PN0P_ _023_ net1 clknet_2_3__leaf_clk
+ delay_line\[2\]\[7\] VDD VSS gf180mcu_fd_sc_mcu9t5v0__dffrnq_2
Xdelay_line\[3\]\[0\]$_DFFE_PN0P_ _024_ net1 clknet_2_0__leaf_clk
+ delay_line\[3\]\[0\] VDD VSS gf180mcu_fd_sc_mcu9t5v0__dffrnq_2
Xdelay_line\[3\]\[1\]$_DFFE_PN0P_ _025_ net1 clknet_2_0__leaf_clk
+ delay_line\[3\]\[1\] VDD VSS gf180mcu_fd_sc_mcu9t5v0__dffrnq_2
Xdelay_line\[3\]\[2\]$_DFFE_PN0P_ _026_ net1 clknet_2_0__leaf_clk
+ delay_line\[3\]\[2\] VDD VSS gf180mcu_fd_sc_mcu9t5v0__dffrnq_2
Xdelay_line\[3\]\[3\]$_DFFE_PN0P_ _027_ net1 clknet_2_1__leaf_clk
+ delay_line\[3\]\[3\] VDD VSS gf180mcu_fd_sc_mcu9t5v0__dffrnq_2
Xdelay_line\[3\]\[4\]$_DFFE_PN0P_ _028_ net1 clknet_2_1__leaf_clk
+ delay_line\[3\]\[4\] VDD VSS gf180mcu_fd_sc_mcu9t5v0__dffrnq_2
Xdelay_line\[3\]\[5\]$_DFFE_PN0P_ _029_ net1 clknet_2_1__leaf_clk
+ delay_line\[3\]\[5\] VDD VSS gf180mcu_fd_sc_mcu9t5v0__dffrnq_2
Xdelay_line\[3\]\[6\]$_DFFE_PN0P_ _030_ net1 clknet_2_3__leaf_clk
+ delay_line\[3\]\[6\] VDD VSS gf180mcu_fd_sc_mcu9t5v0__dffrnq_2
Xdelay_line\[3\]\[7\]$_DFFE_PN0P_ _031_ net1 clknet_2_3__leaf_clk
+ delay_line\[3\]\[7\] VDD VSS gf180mcu_fd_sc_mcu9t5v0__dffrnq_2
Xresult\[0\]$_DFFE_PN0P_ _032_ net1 clknet_2_0__leaf_clk net11
+ VDD VSS gf180mcu_fd_sc_mcu9t5v0__dffrnq_2
Xresult\[10\]$_DFFE_PN0P_ _033_ net1 clknet_2_3__leaf_clk
+ net12 VDD VSS gf180mcu_fd_sc_mcu9t5v0__dffrnq_2
Xresult\[11\]$_DFFE_PN0P_ _034_ net1 clknet_2_2__leaf_clk
+ net13 VDD VSS gf180mcu_fd_sc_mcu9t5v0__dffrnq_2
Xresult\[12\]$_DFFE_PN0P_ _035_ net1 clknet_2_2__leaf_clk
+ net14 VDD VSS gf180mcu_fd_sc_mcu9t5v0__dffrnq_2
Xresult\[13\]$_DFFE_PN0P_ _036_ net1 clknet_2_2__leaf_clk
+ net15 VDD VSS gf180mcu_fd_sc_mcu9t5v0__dffrnq_2
Xresult\[14\]$_DFFE_PN0P_ _037_ net1 clknet_2_2__leaf_clk
+ net16 VDD VSS gf180mcu_fd_sc_mcu9t5v0__dffrnq_2
Xresult\[15\]$_DFFE_PN0P_ _038_ net1 clknet_2_2__leaf_clk
+ net17 VDD VSS gf180mcu_fd_sc_mcu9t5v0__dffrnq_2
Xresult\[16\]$_DFFE_PN0P_ _039_ net1 clknet_2_2__leaf_clk
+ net18 VDD VSS gf180mcu_fd_sc_mcu9t5v0__dffrnq_2
Xresult\[17\]$_DFFE_PN0P_ _040_ net1 clknet_2_2__leaf_clk
+ net19 VDD VSS gf180mcu_fd_sc_mcu9t5v0__dffrnq_2
Xresult\[18\]$_DFFE_PN0P_ _041_ net1 clknet_2_2__leaf_clk
+ net20 VDD VSS gf180mcu_fd_sc_mcu9t5v0__dffrnq_2
Xresult\[1\]$_DFFE_PN0P_ _042_ net1 clknet_2_0__leaf_clk net21
+ VDD VSS gf180mcu_fd_sc_mcu9t5v0__dffrnq_2
Xresult\[2\]$_DFFE_PN0P_ _043_ net1 clknet_2_0__leaf_clk net22
+ VDD VSS gf180mcu_fd_sc_mcu9t5v0__dffrnq_2
Xresult\[3\]$_DFFE_PN0P_ _044_ net1 clknet_2_0__leaf_clk net23
+ VDD VSS gf180mcu_fd_sc_mcu9t5v0__dffrnq_2
Xresult\[4\]$_DFFE_PN0P_ _045_ net1 clknet_2_0__leaf_clk net24
+ VDD VSS gf180mcu_fd_sc_mcu9t5v0__dffrnq_2
Xresult\[5\]$_DFFE_PN0P_ _046_ net1 clknet_2_0__leaf_clk net25
+ VDD VSS gf180mcu_fd_sc_mcu9t5v0__dffrnq_2
Xresult\[6\]$_DFFE_PN0P_ _047_ net1 clknet_2_0__leaf_clk net26
+ VDD VSS gf180mcu_fd_sc_mcu9t5v0__dffrnq_2
Xresult\[7\]$_DFFE_PN0P_ _048_ net1 clknet_2_3__leaf_clk net27
+ VDD VSS gf180mcu_fd_sc_mcu9t5v0__dffrnq_2
Xresult\[8\]$_DFFE_PN0P_ _049_ net1 clknet_2_3__leaf_clk net28
+ VDD VSS gf180mcu_fd_sc_mcu9t5v0__dffrnq_2
Xresult\[9\]$_DFFE_PN0P_ _050_ net1 clknet_2_3__leaf_clk net29
+ VDD VSS gf180mcu_fd_sc_mcu9t5v0__dffrnq_2
Xhold1 net31 net1 VDD VSS gf180mcu_fd_sc_mcu9t5v0__buf_20
XPHY_EDGE_ROW_0_Right_0 VDD VSS gf180mcu_fd_sc_mcu9t5v0__endcap
XPHY_EDGE_ROW_1_Right_1 VDD VSS gf180mcu_fd_sc_mcu9t5v0__endcap
XPHY_EDGE_ROW_2_Right_2 VDD VSS gf180mcu_fd_sc_mcu9t5v0__endcap
XPHY_EDGE_ROW_3_Right_3 VDD VSS gf180mcu_fd_sc_mcu9t5v0__endcap
XPHY_EDGE_ROW_4_Right_4 VDD VSS gf180mcu_fd_sc_mcu9t5v0__endcap
XPHY_EDGE_ROW_5_Right_5 VDD VSS gf180mcu_fd_sc_mcu9t5v0__endcap
XPHY_EDGE_ROW_6_Right_6 VDD VSS gf180mcu_fd_sc_mcu9t5v0__endcap
XPHY_EDGE_ROW_7_Right_7 VDD VSS gf180mcu_fd_sc_mcu9t5v0__endcap
XPHY_EDGE_ROW_8_Right_8 VDD VSS gf180mcu_fd_sc_mcu9t5v0__endcap
XPHY_EDGE_ROW_9_Right_9 VDD VSS gf180mcu_fd_sc_mcu9t5v0__endcap
XPHY_EDGE_ROW_10_Right_10 VDD VSS gf180mcu_fd_sc_mcu9t5v0__endcap
XPHY_EDGE_ROW_11_Right_11 VDD VSS gf180mcu_fd_sc_mcu9t5v0__endcap
XPHY_EDGE_ROW_12_Right_12 VDD VSS gf180mcu_fd_sc_mcu9t5v0__endcap
XPHY_EDGE_ROW_13_Right_13 VDD VSS gf180mcu_fd_sc_mcu9t5v0__endcap
XPHY_EDGE_ROW_14_Right_14 VDD VSS gf180mcu_fd_sc_mcu9t5v0__endcap
XPHY_EDGE_ROW_15_Right_15 VDD VSS gf180mcu_fd_sc_mcu9t5v0__endcap
XPHY_EDGE_ROW_16_Right_16 VDD VSS gf180mcu_fd_sc_mcu9t5v0__endcap
XPHY_EDGE_ROW_17_Right_17 VDD VSS gf180mcu_fd_sc_mcu9t5v0__endcap
XPHY_EDGE_ROW_18_Right_18 VDD VSS gf180mcu_fd_sc_mcu9t5v0__endcap
XPHY_EDGE_ROW_19_Right_19 VDD VSS gf180mcu_fd_sc_mcu9t5v0__endcap
XPHY_EDGE_ROW_20_Right_20 VDD VSS gf180mcu_fd_sc_mcu9t5v0__endcap
XPHY_EDGE_ROW_21_Right_21 VDD VSS gf180mcu_fd_sc_mcu9t5v0__endcap
XPHY_EDGE_ROW_22_Right_22 VDD VSS gf180mcu_fd_sc_mcu9t5v0__endcap
XPHY_EDGE_ROW_23_Right_23 VDD VSS gf180mcu_fd_sc_mcu9t5v0__endcap
XPHY_EDGE_ROW_24_Right_24 VDD VSS gf180mcu_fd_sc_mcu9t5v0__endcap
XPHY_EDGE_ROW_25_Right_25 VDD VSS gf180mcu_fd_sc_mcu9t5v0__endcap
XPHY_EDGE_ROW_26_Right_26 VDD VSS gf180mcu_fd_sc_mcu9t5v0__endcap
XPHY_EDGE_ROW_27_Right_27 VDD VSS gf180mcu_fd_sc_mcu9t5v0__endcap
XPHY_EDGE_ROW_28_Right_28 VDD VSS gf180mcu_fd_sc_mcu9t5v0__endcap
XPHY_EDGE_ROW_29_Right_29 VDD VSS gf180mcu_fd_sc_mcu9t5v0__endcap
XPHY_EDGE_ROW_30_Right_30 VDD VSS gf180mcu_fd_sc_mcu9t5v0__endcap
XPHY_EDGE_ROW_31_Right_31 VDD VSS gf180mcu_fd_sc_mcu9t5v0__endcap
XPHY_EDGE_ROW_32_Right_32 VDD VSS gf180mcu_fd_sc_mcu9t5v0__endcap
XPHY_EDGE_ROW_33_Right_33 VDD VSS gf180mcu_fd_sc_mcu9t5v0__endcap
XPHY_EDGE_ROW_34_Right_34 VDD VSS gf180mcu_fd_sc_mcu9t5v0__endcap
XPHY_EDGE_ROW_35_Right_35 VDD VSS gf180mcu_fd_sc_mcu9t5v0__endcap
XPHY_EDGE_ROW_36_Right_36 VDD VSS gf180mcu_fd_sc_mcu9t5v0__endcap
XPHY_EDGE_ROW_37_Right_37 VDD VSS gf180mcu_fd_sc_mcu9t5v0__endcap
XPHY_EDGE_ROW_38_Right_38 VDD VSS gf180mcu_fd_sc_mcu9t5v0__endcap
XPHY_EDGE_ROW_39_Right_39 VDD VSS gf180mcu_fd_sc_mcu9t5v0__endcap
XPHY_EDGE_ROW_40_Right_40 VDD VSS gf180mcu_fd_sc_mcu9t5v0__endcap
XPHY_EDGE_ROW_41_Right_41 VDD VSS gf180mcu_fd_sc_mcu9t5v0__endcap
XPHY_EDGE_ROW_42_Right_42 VDD VSS gf180mcu_fd_sc_mcu9t5v0__endcap
XPHY_EDGE_ROW_43_Right_43 VDD VSS gf180mcu_fd_sc_mcu9t5v0__endcap
XPHY_EDGE_ROW_44_Right_44 VDD VSS gf180mcu_fd_sc_mcu9t5v0__endcap
XPHY_EDGE_ROW_45_Right_45 VDD VSS gf180mcu_fd_sc_mcu9t5v0__endcap
XPHY_EDGE_ROW_46_Right_46 VDD VSS gf180mcu_fd_sc_mcu9t5v0__endcap
XPHY_EDGE_ROW_47_Right_47 VDD VSS gf180mcu_fd_sc_mcu9t5v0__endcap
XPHY_EDGE_ROW_48_Right_48 VDD VSS gf180mcu_fd_sc_mcu9t5v0__endcap
XPHY_EDGE_ROW_49_Right_49 VDD VSS gf180mcu_fd_sc_mcu9t5v0__endcap
XPHY_EDGE_ROW_50_Right_50 VDD VSS gf180mcu_fd_sc_mcu9t5v0__endcap
XPHY_EDGE_ROW_51_Right_51 VDD VSS gf180mcu_fd_sc_mcu9t5v0__endcap
XPHY_EDGE_ROW_52_Right_52 VDD VSS gf180mcu_fd_sc_mcu9t5v0__endcap
XPHY_EDGE_ROW_53_Right_53 VDD VSS gf180mcu_fd_sc_mcu9t5v0__endcap
XPHY_EDGE_ROW_54_Right_54 VDD VSS gf180mcu_fd_sc_mcu9t5v0__endcap
XPHY_EDGE_ROW_55_Right_55 VDD VSS gf180mcu_fd_sc_mcu9t5v0__endcap
XPHY_EDGE_ROW_56_Right_56 VDD VSS gf180mcu_fd_sc_mcu9t5v0__endcap
XPHY_EDGE_ROW_57_Right_57 VDD VSS gf180mcu_fd_sc_mcu9t5v0__endcap
XPHY_EDGE_ROW_58_Right_58 VDD VSS gf180mcu_fd_sc_mcu9t5v0__endcap
XPHY_EDGE_ROW_59_Right_59 VDD VSS gf180mcu_fd_sc_mcu9t5v0__endcap
XPHY_EDGE_ROW_60_Right_60 VDD VSS gf180mcu_fd_sc_mcu9t5v0__endcap
XPHY_EDGE_ROW_61_Right_61 VDD VSS gf180mcu_fd_sc_mcu9t5v0__endcap
XPHY_EDGE_ROW_62_Right_62 VDD VSS gf180mcu_fd_sc_mcu9t5v0__endcap
XPHY_EDGE_ROW_63_Right_63 VDD VSS gf180mcu_fd_sc_mcu9t5v0__endcap
XPHY_EDGE_ROW_64_Right_64 VDD VSS gf180mcu_fd_sc_mcu9t5v0__endcap
XPHY_EDGE_ROW_65_Right_65 VDD VSS gf180mcu_fd_sc_mcu9t5v0__endcap
XPHY_EDGE_ROW_66_Right_66 VDD VSS gf180mcu_fd_sc_mcu9t5v0__endcap
XPHY_EDGE_ROW_67_Right_67 VDD VSS gf180mcu_fd_sc_mcu9t5v0__endcap
XPHY_EDGE_ROW_68_Right_68 VDD VSS gf180mcu_fd_sc_mcu9t5v0__endcap
XPHY_EDGE_ROW_69_Right_69 VDD VSS gf180mcu_fd_sc_mcu9t5v0__endcap
XPHY_EDGE_ROW_70_Right_70 VDD VSS gf180mcu_fd_sc_mcu9t5v0__endcap
XPHY_EDGE_ROW_71_Right_71 VDD VSS gf180mcu_fd_sc_mcu9t5v0__endcap
XPHY_EDGE_ROW_72_Right_72 VDD VSS gf180mcu_fd_sc_mcu9t5v0__endcap
XPHY_EDGE_ROW_73_Right_73 VDD VSS gf180mcu_fd_sc_mcu9t5v0__endcap
XPHY_EDGE_ROW_74_Right_74 VDD VSS gf180mcu_fd_sc_mcu9t5v0__endcap
XPHY_EDGE_ROW_75_Right_75 VDD VSS gf180mcu_fd_sc_mcu9t5v0__endcap
XPHY_EDGE_ROW_76_Right_76 VDD VSS gf180mcu_fd_sc_mcu9t5v0__endcap
XPHY_EDGE_ROW_77_Right_77 VDD VSS gf180mcu_fd_sc_mcu9t5v0__endcap
XPHY_EDGE_ROW_78_Right_78 VDD VSS gf180mcu_fd_sc_mcu9t5v0__endcap
XPHY_EDGE_ROW_79_Right_79 VDD VSS gf180mcu_fd_sc_mcu9t5v0__endcap
XPHY_EDGE_ROW_80_Right_80 VDD VSS gf180mcu_fd_sc_mcu9t5v0__endcap
XPHY_EDGE_ROW_81_Right_81 VDD VSS gf180mcu_fd_sc_mcu9t5v0__endcap
XPHY_EDGE_ROW_82_Right_82 VDD VSS gf180mcu_fd_sc_mcu9t5v0__endcap
XPHY_EDGE_ROW_83_Right_83 VDD VSS gf180mcu_fd_sc_mcu9t5v0__endcap
XPHY_EDGE_ROW_84_Right_84 VDD VSS gf180mcu_fd_sc_mcu9t5v0__endcap
XPHY_EDGE_ROW_85_Right_85 VDD VSS gf180mcu_fd_sc_mcu9t5v0__endcap
XPHY_EDGE_ROW_86_Right_86 VDD VSS gf180mcu_fd_sc_mcu9t5v0__endcap
XPHY_EDGE_ROW_87_Right_87 VDD VSS gf180mcu_fd_sc_mcu9t5v0__endcap
XPHY_EDGE_ROW_88_Right_88 VDD VSS gf180mcu_fd_sc_mcu9t5v0__endcap
XPHY_EDGE_ROW_89_Right_89 VDD VSS gf180mcu_fd_sc_mcu9t5v0__endcap
XPHY_EDGE_ROW_90_Right_90 VDD VSS gf180mcu_fd_sc_mcu9t5v0__endcap
XPHY_EDGE_ROW_91_Right_91 VDD VSS gf180mcu_fd_sc_mcu9t5v0__endcap
XPHY_EDGE_ROW_92_Right_92 VDD VSS gf180mcu_fd_sc_mcu9t5v0__endcap
XPHY_EDGE_ROW_93_Right_93 VDD VSS gf180mcu_fd_sc_mcu9t5v0__endcap
XPHY_EDGE_ROW_94_Right_94 VDD VSS gf180mcu_fd_sc_mcu9t5v0__endcap
XPHY_EDGE_ROW_95_Right_95 VDD VSS gf180mcu_fd_sc_mcu9t5v0__endcap
XPHY_EDGE_ROW_96_Right_96 VDD VSS gf180mcu_fd_sc_mcu9t5v0__endcap
XPHY_EDGE_ROW_97_Right_97 VDD VSS gf180mcu_fd_sc_mcu9t5v0__endcap
XPHY_EDGE_ROW_98_Right_98 VDD VSS gf180mcu_fd_sc_mcu9t5v0__endcap
XPHY_EDGE_ROW_99_Right_99 VDD VSS gf180mcu_fd_sc_mcu9t5v0__endcap
XPHY_EDGE_ROW_100_Right_100 VDD VSS gf180mcu_fd_sc_mcu9t5v0__endcap
XPHY_EDGE_ROW_101_Right_101 VDD VSS gf180mcu_fd_sc_mcu9t5v0__endcap
XPHY_EDGE_ROW_102_Right_102 VDD VSS gf180mcu_fd_sc_mcu9t5v0__endcap
XPHY_EDGE_ROW_103_Right_103 VDD VSS gf180mcu_fd_sc_mcu9t5v0__endcap
XPHY_EDGE_ROW_104_Right_104 VDD VSS gf180mcu_fd_sc_mcu9t5v0__endcap
XPHY_EDGE_ROW_105_Right_105 VDD VSS gf180mcu_fd_sc_mcu9t5v0__endcap
XPHY_EDGE_ROW_106_Right_106 VDD VSS gf180mcu_fd_sc_mcu9t5v0__endcap
XPHY_EDGE_ROW_107_Right_107 VDD VSS gf180mcu_fd_sc_mcu9t5v0__endcap
XPHY_EDGE_ROW_108_Right_108 VDD VSS gf180mcu_fd_sc_mcu9t5v0__endcap
XPHY_EDGE_ROW_109_Right_109 VDD VSS gf180mcu_fd_sc_mcu9t5v0__endcap
XPHY_EDGE_ROW_110_Right_110 VDD VSS gf180mcu_fd_sc_mcu9t5v0__endcap
XPHY_EDGE_ROW_111_Right_111 VDD VSS gf180mcu_fd_sc_mcu9t5v0__endcap
XPHY_EDGE_ROW_112_Right_112 VDD VSS gf180mcu_fd_sc_mcu9t5v0__endcap
XPHY_EDGE_ROW_113_Right_113 VDD VSS gf180mcu_fd_sc_mcu9t5v0__endcap
XPHY_EDGE_ROW_114_Right_114 VDD VSS gf180mcu_fd_sc_mcu9t5v0__endcap
XPHY_EDGE_ROW_115_Right_115 VDD VSS gf180mcu_fd_sc_mcu9t5v0__endcap
XPHY_EDGE_ROW_116_Right_116 VDD VSS gf180mcu_fd_sc_mcu9t5v0__endcap
XPHY_EDGE_ROW_117_Right_117 VDD VSS gf180mcu_fd_sc_mcu9t5v0__endcap
XPHY_EDGE_ROW_118_Right_118 VDD VSS gf180mcu_fd_sc_mcu9t5v0__endcap
XPHY_EDGE_ROW_119_Right_119 VDD VSS gf180mcu_fd_sc_mcu9t5v0__endcap
XPHY_EDGE_ROW_120_Right_120 VDD VSS gf180mcu_fd_sc_mcu9t5v0__endcap
XPHY_EDGE_ROW_121_Right_121 VDD VSS gf180mcu_fd_sc_mcu9t5v0__endcap
XPHY_EDGE_ROW_122_Right_122 VDD VSS gf180mcu_fd_sc_mcu9t5v0__endcap
XPHY_EDGE_ROW_123_Right_123 VDD VSS gf180mcu_fd_sc_mcu9t5v0__endcap
XPHY_EDGE_ROW_124_Right_124 VDD VSS gf180mcu_fd_sc_mcu9t5v0__endcap
XPHY_EDGE_ROW_125_Right_125 VDD VSS gf180mcu_fd_sc_mcu9t5v0__endcap
XPHY_EDGE_ROW_126_Right_126 VDD VSS gf180mcu_fd_sc_mcu9t5v0__endcap
XPHY_EDGE_ROW_127_Right_127 VDD VSS gf180mcu_fd_sc_mcu9t5v0__endcap
XPHY_EDGE_ROW_128_Right_128 VDD VSS gf180mcu_fd_sc_mcu9t5v0__endcap
XPHY_EDGE_ROW_129_Right_129 VDD VSS gf180mcu_fd_sc_mcu9t5v0__endcap
XPHY_EDGE_ROW_130_Right_130 VDD VSS gf180mcu_fd_sc_mcu9t5v0__endcap
XPHY_EDGE_ROW_131_Right_131 VDD VSS gf180mcu_fd_sc_mcu9t5v0__endcap
XPHY_EDGE_ROW_132_Right_132 VDD VSS gf180mcu_fd_sc_mcu9t5v0__endcap
XPHY_EDGE_ROW_133_Right_133 VDD VSS gf180mcu_fd_sc_mcu9t5v0__endcap
XPHY_EDGE_ROW_134_Right_134 VDD VSS gf180mcu_fd_sc_mcu9t5v0__endcap
XPHY_EDGE_ROW_135_Right_135 VDD VSS gf180mcu_fd_sc_mcu9t5v0__endcap
XPHY_EDGE_ROW_136_Right_136 VDD VSS gf180mcu_fd_sc_mcu9t5v0__endcap
XPHY_EDGE_ROW_137_Right_137 VDD VSS gf180mcu_fd_sc_mcu9t5v0__endcap
XPHY_EDGE_ROW_138_Right_138 VDD VSS gf180mcu_fd_sc_mcu9t5v0__endcap
XPHY_EDGE_ROW_139_Right_139 VDD VSS gf180mcu_fd_sc_mcu9t5v0__endcap
XPHY_EDGE_ROW_140_Right_140 VDD VSS gf180mcu_fd_sc_mcu9t5v0__endcap
XPHY_EDGE_ROW_141_Right_141 VDD VSS gf180mcu_fd_sc_mcu9t5v0__endcap
XPHY_EDGE_ROW_142_Right_142 VDD VSS gf180mcu_fd_sc_mcu9t5v0__endcap
XPHY_EDGE_ROW_143_Right_143 VDD VSS gf180mcu_fd_sc_mcu9t5v0__endcap
XPHY_EDGE_ROW_144_Right_144 VDD VSS gf180mcu_fd_sc_mcu9t5v0__endcap
XPHY_EDGE_ROW_145_Right_145 VDD VSS gf180mcu_fd_sc_mcu9t5v0__endcap
XPHY_EDGE_ROW_146_Right_146 VDD VSS gf180mcu_fd_sc_mcu9t5v0__endcap
XPHY_EDGE_ROW_147_Right_147 VDD VSS gf180mcu_fd_sc_mcu9t5v0__endcap
XPHY_EDGE_ROW_148_Right_148 VDD VSS gf180mcu_fd_sc_mcu9t5v0__endcap
XPHY_EDGE_ROW_149_Right_149 VDD VSS gf180mcu_fd_sc_mcu9t5v0__endcap
XPHY_EDGE_ROW_150_Right_150 VDD VSS gf180mcu_fd_sc_mcu9t5v0__endcap
XPHY_EDGE_ROW_151_Right_151 VDD VSS gf180mcu_fd_sc_mcu9t5v0__endcap
XPHY_EDGE_ROW_152_Right_152 VDD VSS gf180mcu_fd_sc_mcu9t5v0__endcap
XPHY_EDGE_ROW_153_Right_153 VDD VSS gf180mcu_fd_sc_mcu9t5v0__endcap
XPHY_EDGE_ROW_154_Right_154 VDD VSS gf180mcu_fd_sc_mcu9t5v0__endcap
XPHY_EDGE_ROW_155_Right_155 VDD VSS gf180mcu_fd_sc_mcu9t5v0__endcap
XPHY_EDGE_ROW_156_Right_156 VDD VSS gf180mcu_fd_sc_mcu9t5v0__endcap
XPHY_EDGE_ROW_157_Right_157 VDD VSS gf180mcu_fd_sc_mcu9t5v0__endcap
XPHY_EDGE_ROW_158_Right_158 VDD VSS gf180mcu_fd_sc_mcu9t5v0__endcap