
* cell simple_spi
* pin dat_i[5]
* pin dat_i[2]
* pin dat_i[6]
* pin dat_i[7]
* pin dat_o[5]
* pin adr_i[0]
* pin dat_o[4]
* pin dat_o[3]
* pin dat_o[2]
* pin adr_i[1]
* pin inta_o
* pin dat_o[7]
* pin PWELL
* pin NWELL
* pin clk_i
* pin mosi_o
* pin dat_i[4]
* pin dat_i[3]
* pin dat_o[6]
* pin miso_i
* pin ack_o
* pin dat_i[1]
* pin dat_i[0]
* pin we_i
* pin stb_i
* pin dat_o[1]
* pin rst_i
* pin sck_o
* pin cyc_i
* pin dat_o[0]
.SUBCKT simple_spi 1 2 3 4 5 6 7 8 9 10 11 12 16 24 75 88 213 270 279 382 437
+ 493 501 673 682 684 685 686 687 688
* net 1 dat_i[5]
* net 2 dat_i[2]
* net 3 dat_i[6]
* net 4 dat_i[7]
* net 5 dat_o[5]
* net 6 adr_i[0]
* net 7 dat_o[4]
* net 8 dat_o[3]
* net 9 dat_o[2]
* net 10 adr_i[1]
* net 11 inta_o
* net 12 dat_o[7]
* net 16 PWELL
* net 24 NWELL
* net 75 clk_i
* net 88 mosi_o
* net 213 dat_i[4]
* net 270 dat_i[3]
* net 279 dat_o[6]
* net 382 miso_i
* net 437 ack_o
* net 493 dat_i[1]
* net 501 dat_i[0]
* net 673 we_i
* net 682 stb_i
* net 684 dat_o[1]
* net 685 rst_i
* net 686 sck_o
* net 687 cyc_i
* net 688 dat_o[0]
* cell instance $2 r0 *1 16.91,5.6
X$2 1 16 24 28 BUF_X1
* cell instance $8 r0 *1 24.13,5.6
X$8 2 16 24 21 BUF_X1
* cell instance $14 r0 *1 30.59,5.6
X$14 3 16 24 26 CLKBUF_X2
* cell instance $20 r0 *1 33.44,5.6
X$20 4 16 24 22 CLKBUF_X2
* cell instance $26 r0 *1 37.62,5.6
X$26 30 16 24 5 BUF_X1
* cell instance $32 r0 *1 38,8.4
X$32 6 24 44 16 BUF_X4
* cell instance $38 r0 *1 38.38,5.6
X$38 25 16 24 7 BUF_X1
* cell instance $44 m0 *1 38.57,8.4
X$44 49 16 24 8 BUF_X1
* cell instance $50 r0 *1 39.14,5.6
X$50 17 16 24 9 BUF_X1
* cell instance $56 m0 *1 40.28,8.4
X$56 10 16 24 31 CLKBUF_X3
* cell instance $62 m0 *1 42.56,8.4
X$62 32 16 24 11 BUF_X1
* cell instance $68 r0 *1 44.27,5.6
X$68 23 16 24 12 BUF_X1
* cell instance $74 r0 *1 20.33,5.6
X$74 16 800 13 27 18 24 DFF_X1
* cell instance $76 m0 *1 22.23,8.4
X$76 21 20 13 16 24 27 MUX2_X1
* cell instance $78 m0 *1 24.89,11.2
X$78 36 56 13 16 24 42 MUX2_X1
* cell instance $82 r0 *1 34.01,14
X$82 101 44 113 16 24 14 MUX2_X1
* cell instance $84 r0 *1 34.39,5.6
X$84 16 788 17 14 15 24 DFF_X1
* cell instance $86 r0 *1 40.28,8.4
X$86 16 754 32 48 15 24 DFF_X1
* cell instance $88 r0 *1 28.69,8.4
X$88 16 15 808 52 53 43 24 DFFR_X1
* cell instance $90 m0 *1 28.69,8.4
X$90 16 15 806 29 37 43 24 DFFR_X1
* cell instance $92 r0 *1 41.04,5.6
X$92 16 759 23 35 15 24 DFF_X1
* cell instance $95 m0 *1 34.96,14
X$95 15 16 24 691 INV_X2
* cell instance $97 m0 *1 35.53,14
X$97 84 16 24 15 CLKBUF_X3
* cell instance $99 m0 *1 34.01,11.2
X$99 16 739 49 67 15 24 DFF_X1
* cell instance $102 r0 *1 34.01,8.4
X$102 16 773 30 51 15 24 DFF_X1
* cell instance $106 m0 *1 35.34,8.4
X$106 16 724 25 50 15 24 DFF_X1
* cell instance $108 r0 *1 38,11.2
X$108 16 15 815 64 60 43 24 DFFR_X1
* cell instance $114 m0 *1 18.05,53.2
X$114 605 625 16 24 639 NOR2_X1
* cell instance $117 m0 *1 18.81,53.2
X$117 512 502 16 24 648 NAND2_X1
* cell instance $119 m0 *1 19.57,53.2
X$119 625 640 16 24 626 XOR2_X1
* cell instance $122 r0 *1 18.05,53.2
X$122 639 651 569 16 24 647 NAND3_X1
* cell instance $123 r0 *1 18.81,53.2
X$123 652 16 24 655 INV_X1
* cell instance $124 r0 *1 19.19,53.2
X$124 573 627 647 16 24 660 MUX2_X1
* cell instance $125 r0 *1 20.52,53.2
X$125 651 599 16 24 640 NAND2_X1
* cell instance $126 r0 *1 21.09,53.2
X$126 657 649 16 24 651 NOR2_X1
* cell instance $127 m0 *1 22.04,53.2
X$127 592 616 512 16 642 24 AOI21_X1
* cell instance $128 m0 *1 21.09,53.2
X$128 627 518 16 24 641 NOR2_X2
* cell instance $132 r0 *1 22.04,53.2
X$132 657 605 600 16 24 656 OR3_X1
* cell instance $135 m0 *1 24.13,53.2
X$135 84 16 24 570 CLKBUF_X3
* cell instance $137 m0 *1 25.08,53.2
X$137 570 16 24 INV_X4
* cell instance $138 m0 *1 26.03,53.2
X$138 592 601 628 16 24 643 NOR3_X1
* cell instance $141 m0 *1 28.5,53.2
X$141 619 603 16 24 638 NAND2_X1
* cell instance $145 r0 *1 24.32,53.2
X$145 627 24 628 16 BUF_X4
* cell instance $147 r0 *1 26.03,53.2
X$147 592 512 16 24 644 NAND2_X1
* cell instance $148 r0 *1 26.6,53.2
X$148 603 599 16 24 645 NAND2_X1
* cell instance $149 r0 *1 27.17,53.2
X$149 645 575 658 16 24 654 NOR3_X1
* cell instance $150 r0 *1 27.93,53.2
X$150 605 650 653 600 24 619 16 NOR4_X2
* cell instance $151 r0 *1 29.64,53.2
X$151 650 653 16 24 595 NOR2_X1
* cell instance $152 m0 *1 30.78,53.2
X$152 608 16 24 INV_X4
* cell instance $153 m0 *1 30.21,53.2
X$153 628 620 16 24 646 NAND2_X1
* cell instance $154 m0 *1 31.73,53.2
X$154 629 646 606 620 636 24 16 633 OAI221_X1
* cell instance $155 m0 *1 32.87,53.2
X$155 84 16 24 608 CLKBUF_X3
* cell instance $165 r0 *1 37.05,53.2
X$165 546 16 24 630 CLKBUF_X1
* cell instance $172 m0 *1 5.89,16.8
X$172 69 124 108 16 24 92 MUX2_X1
* cell instance $176 m0 *1 8.17,16.8
X$176 16 712 118 117 93 24 DFF_X1
* cell instance $187 r0 *1 7.98,16.8
X$187 69 81 118 16 24 117 MUX2_X1
* cell instance $190 r0 *1 9.88,16.8
X$190 108 97 118 16 24 135 MUX2_X1
* cell instance $192 m0 *1 13.11,16.8
X$192 84 16 24 93 CLKBUF_X3
* cell instance $193 m0 *1 11.78,16.8
X$193 69 20 94 16 24 110 MUX2_X1
* cell instance $194 m0 *1 14.06,16.8
X$194 28 124 121 16 24 95 MUX2_X1
* cell instance $195 m0 *1 15.39,16.8
X$195 16 715 122 136 93 24 DFF_X1
* cell instance $197 m0 *1 18.81,16.8
X$197 16 736 96 114 18 24 DFF_X1
* cell instance $198 m0 *1 22.04,16.8
X$198 16 713 145 98 18 24 DFF_X1
* cell instance $199 m0 *1 25.27,16.8
X$199 115 120 42 16 24 177 MUX2_X1
* cell instance $205 r0 *1 14.06,16.8
X$205 135 120 119 16 24 154 MUX2_X1
* cell instance $206 r0 *1 15.39,16.8
X$206 93 16 24 695 INV_X2
* cell instance $207 r0 *1 15.96,16.8
X$207 28 81 122 16 24 136 MUX2_X1
* cell instance $208 r0 *1 17.29,16.8
X$208 121 97 122 16 24 123 MUX2_X1
* cell instance $209 r0 *1 18.62,16.8
X$209 123 120 125 16 24 208 MUX2_X1
* cell instance $213 r0 *1 21.28,16.8
X$213 18 16 24 689 CLKBUF_X1
* cell instance $214 r0 *1 21.85,16.8
X$214 22 81 145 16 24 98 MUX2_X1
* cell instance $215 r0 *1 23.18,16.8
X$215 16 797 143 144 18 24 DFF_X1
* cell instance $217 m0 *1 28.69,16.8
X$217 16 82 805 100 99 43 24 DFFR_X1
* cell instance $221 m0 *1 33.44,16.8
X$221 100 47 138 16 24 101 MUX2_X1
* cell instance $223 m0 *1 34.96,16.8
X$223 16 139 82 699 90 24 DFF_X2
* cell instance $227 m0 *1 41.04,16.8
X$227 47 141 24 16 102 AND2_X1
* cell instance $229 m0 *1 44.84,16.8
X$229 103 128 86 16 24 112 MUX2_X1
* cell instance $230 m0 *1 46.17,16.8
X$230 16 726 127 142 85 24 DFF_X1
* cell instance $231 m0 *1 49.4,16.8
X$231 16 731 130 137 76 24 DFF_X1
* cell instance $233 m0 *1 52.82,16.8
X$233 129 106 107 16 24 109 MUX2_X1
* cell instance $235 r0 *1 32.49,16.8
X$235 16 764 146 157 82 24 DFF_X1
* cell instance $236 r0 *1 35.72,16.8
X$236 16 802 140 156 82 24 DFF_X1
* cell instance $237 r0 *1 38.95,16.8
X$237 140 16 24 129 BUF_X1
* cell instance $241 r0 *1 44.84,16.8
X$241 16 784 147 155 85 24 DFF_X1
* cell instance $242 r0 *1 48.07,16.8
X$242 147 104 127 16 24 153 MUX2_X1
* cell instance $243 r0 *1 49.4,16.8
X$243 105 170 153 16 24 138 MUX2_X1
* cell instance $245 r0 *1 51.11,16.8
X$245 129 128 130 16 24 137 MUX2_X1
* cell instance $246 r0 *1 52.44,16.8
X$246 130 104 107 16 24 150 MUX2_X1
* cell instance $249 m0 *1 54.53,16.8
X$249 90 128 132 16 24 134 MUX2_X1
* cell instance $250 m0 *1 56.05,16.8
X$250 132 104 89 16 24 133 MUX2_X1
* cell instance $252 m0 *1 57.57,16.8
X$252 16 738 132 134 76 24 DFF_X1
* cell instance $255 r0 *1 56.05,16.8
X$255 133 131 148 16 24 63 MUX2_X1
* cell instance $259 m0 *1 8.17,33.6
X$259 355 81 356 16 24 383 MUX2_X1
* cell instance $261 m0 *1 9.5,33.6
X$261 16 743 384 370 191 24 DFF_X1
* cell instance $262 m0 *1 12.73,33.6
X$262 355 19 384 16 24 370 MUX2_X1
* cell instance $264 m0 *1 17.1,33.6
X$264 386 405 309 24 16 407 HA_X1
* cell instance $265 m0 *1 19,33.6
X$265 386 372 705 24 16 388 HA_X1
* cell instance $266 m0 *1 20.9,33.6
X$266 341 388 16 81 24 NAND2_X4
* cell instance $267 m0 *1 22.61,33.6
X$267 341 407 16 124 24 NAND2_X4
* cell instance $268 m0 *1 24.32,33.6
X$268 341 389 16 20 24 NAND2_X4
* cell instance $269 m0 *1 26.03,33.6
X$269 329 390 16 24 397 NOR2_X1
* cell instance $270 m0 *1 26.6,33.6
X$270 342 408 359 360 16 398 24 NAND4_X2
* cell instance $272 m0 *1 29.07,33.6
X$272 290 400 305 16 401 24 AOI21_X1
* cell instance $273 m0 *1 29.83,33.6
X$273 408 16 24 305 INV_X1
* cell instance $275 m0 *1 30.4,33.6
X$275 193 16 24 402 INV_X1
* cell instance $276 m0 *1 30.78,33.6
X$276 402 211 392 16 24 403 MUX2_X1
* cell instance $291 r0 *1 15.58,33.6
X$291 16 191 421 43 405 372 24 DFFR_X2
* cell instance $292 r0 *1 19.76,33.6
X$292 358 405 710 24 16 410 HA_X1
* cell instance $293 r0 *1 21.66,33.6
X$293 341 410 16 19 24 NAND2_X4
* cell instance $297 r0 *1 26.98,33.6
X$297 398 411 16 24 399 NAND2_X1
* cell instance $298 r0 *1 27.55,33.6
X$298 399 431 16 24 412 NOR2_X1
* cell instance $299 r0 *1 28.12,33.6
X$299 401 398 16 24 413 NAND2_X1
* cell instance $301 r0 *1 28.88,33.6
X$301 411 424 289 16 24 400 NAND3_X1
* cell instance $303 r0 *1 29.83,33.6
X$303 441 16 24 424 INV_X1
* cell instance $306 r0 *1 31.35,33.6
X$306 433 403 339 414 24 16 426 OAI22_X1
* cell instance $309 m0 *1 33.25,33.6
X$309 75 16 24 84 CLKBUF_X3
* cell instance $312 m0 *1 38.95,33.6
X$312 373 16 24 396 INV_X1
* cell instance $313 m0 *1 39.33,33.6
X$313 406 72 404 24 46 16 OAI21_X1
* cell instance $314 m0 *1 40.09,33.6
X$314 317 353 396 16 394 24 AOI21_X1
* cell instance $315 m0 *1 40.85,33.6
X$315 16 395 376 374 294 24 DFF_X1
* cell instance $316 m0 *1 44.08,33.6
X$316 377 395 373 16 24 378 OR3_X1
* cell instance $318 m0 *1 45.22,33.6
X$318 294 16 24 INV_X4
* cell instance $319 m0 *1 46.17,33.6
X$319 363 16 24 377 INV_X1
* cell instance $324 r0 *1 37.24,33.6
X$324 446 31 404 16 24 335 NOR3_X1
* cell instance $326 r0 *1 38.19,33.6
X$326 84 16 24 292 CLKBUF_X3
* cell instance $327 r0 *1 39.14,33.6
X$327 292 16 24 INV_X4
* cell instance $328 r0 *1 40.09,33.6
X$328 16 795 375 409 294 24 DFF_X1
* cell instance $329 r0 *1 43.32,33.6
X$329 376 375 16 24 373 NOR2_X1
* cell instance $331 r0 *1 44.08,33.6
X$331 84 16 24 294 CLKBUF_X3
* cell instance $332 r0 *1 45.03,33.6
X$332 417 363 24 16 415 XNOR2_X1
* cell instance $333 r0 *1 46.17,33.6
X$333 16 294 456 43 416 417 24 DFFR_X2
* cell instance $334 m0 *1 50.16,33.6
X$334 423 363 16 106 24 NAND2_X4
* cell instance $338 r0 *1 50.35,33.6
X$338 417 425 709 24 16 418 HA_X1
* cell instance $341 r0 *1 52.82,33.6
X$341 16 786 436 422 296 24 DFF_X1
* cell instance $342 m0 *1 57,33.6
X$342 16 740 385 381 296 24 DFF_X1
* cell instance $343 m0 *1 53.77,33.6
X$343 16 730 387 380 296 24 DFF_X1
* cell instance $344 m0 *1 60.23,33.6
X$344 382 16 24 293 BUF_X1
* cell instance $346 r0 *1 56.05,33.6
X$346 16 782 420 419 296 24 DFF_X1
* cell instance $349 m0 *1 11.97,30.8
X$349 338 56 356 16 24 324 MUX2_X1
* cell instance $351 m0 *1 13.3,30.8
X$351 384 56 357 16 24 307 MUX2_X1
* cell instance $354 m0 *1 18.43,30.8
X$354 286 339 16 24 325 NOR2_X1
* cell instance $355 m0 *1 19,30.8
X$355 308 309 24 16 351 XNOR2_X1
* cell instance $357 m0 *1 20.9,30.8
X$357 340 339 16 24 310 NOR2_X1
* cell instance $358 m0 *1 21.47,30.8
X$358 216 16 24 693 INV_X2
* cell instance $360 m0 *1 22.8,30.8
X$360 288 358 16 24 342 XNOR2_X2
* cell instance $362 m0 *1 25.46,30.8
X$362 351 342 16 24 311 NOR2_X1
* cell instance $363 m0 *1 26.03,30.8
X$363 311 341 312 369 16 24 329 AOI22_X1
* cell instance $364 m0 *1 26.98,30.8
X$364 353 66 26 16 24 313 MUX2_X1
* cell instance $371 m0 *1 10.07,30.8
X$371 355 124 338 16 24 322 MUX2_X1
* cell instance $379 r0 *1 7.22,30.8
X$379 16 778 356 383 191 24 DFF_X1
* cell instance $382 r0 *1 11.02,30.8
X$382 16 772 357 367 191 24 DFF_X1
* cell instance $383 r0 *1 14.25,30.8
X$383 355 20 357 16 24 367 MUX2_X1
* cell instance $386 r0 *1 19,30.8
X$386 339 358 16 24 371 NOR2_X1
* cell instance $388 r0 *1 19.76,30.8
X$388 343 309 24 16 438 AND2_X1
* cell instance $389 r0 *1 20.52,30.8
X$389 372 97 16 24 360 XNOR2_X2
* cell instance $391 r0 *1 22.8,30.8
X$391 358 372 711 24 16 389 HA_X1
* cell instance $392 r0 *1 24.7,30.8
X$392 16 359 369 397 216 24 DFF_X1
* cell instance $393 r0 *1 27.93,30.8
X$393 359 342 360 24 16 159 AND3_X1
* cell instance $394 r0 *1 28.88,30.8
X$394 360 342 16 24 361 NAND2_X1
* cell instance $397 m0 *1 29.45,30.8
X$397 343 16 24 290 INV_X1
* cell instance $398 m0 *1 30.02,30.8
X$398 290 16 24 339 CLKBUF_X3
* cell instance $400 m0 *1 31.16,30.8
X$400 314 16 24 343 BUF_X1
* cell instance $401 m0 *1 31.73,30.8
X$401 341 194 16 24 333 NAND2_X1
* cell instance $402 m0 *1 32.3,30.8
X$402 16 742 316 315 292 24 DFF_X1
* cell instance $403 m0 *1 35.53,30.8
X$403 317 57 26 16 24 362 MUX2_X1
* cell instance $404 m0 *1 36.86,30.8
X$404 343 16 24 165 BUF_X2
* cell instance $405 m0 *1 37.62,30.8
X$405 316 47 317 16 24 354 MUX2_X1
* cell instance $408 r0 *1 29.64,30.8
X$408 361 359 16 24 194 NOR2_X1
* cell instance $411 r0 *1 34.77,30.8
X$411 343 16 24 353 CLKBUF_X3
* cell instance $412 r0 *1 35.72,30.8
X$412 16 292 816 317 362 43 24 DFFR_X1
* cell instance $414 r0 *1 39.71,30.8
X$414 318 353 16 24 368 NAND2_X1
* cell instance $415 m0 *1 40.28,30.8
X$415 343 31 346 16 24 344 MUX2_X1
* cell instance $417 m0 *1 41.61,30.8
X$417 344 44 354 16 24 321 MUX2_X1
* cell instance $420 m0 *1 44.65,30.8
X$420 170 330 24 16 345 AND2_X1
* cell instance $422 m0 *1 45.6,30.8
X$422 320 319 345 16 331 24 AOI21_X1
* cell instance $423 m0 *1 46.36,30.8
X$423 339 331 330 319 24 16 352 OAI22_X1
* cell instance $426 r0 *1 40.47,30.8
X$426 373 363 16 24 318 NAND2_X1
* cell instance $428 r0 *1 41.23,30.8
X$428 394 165 393 16 374 24 AOI21_X1
* cell instance $429 r0 *1 41.99,30.8
X$429 368 73 16 24 366 NAND2_X1
* cell instance $431 r0 *1 42.75,30.8
X$431 375 165 16 24 364 NAND2_X1
* cell instance $432 r0 *1 43.32,30.8
X$432 364 365 366 24 409 16 OAI21_X1
* cell instance $433 r0 *1 44.08,30.8
X$433 363 376 378 24 393 16 OAI21_X1
* cell instance $436 r0 *1 45.98,30.8
X$436 170 339 16 24 391 NOR2_X1
* cell instance $437 r0 *1 46.55,30.8
X$437 170 319 391 16 24 295 MUX2_X1
* cell instance $438 m0 *1 47.88,30.8
X$438 16 294 379 350 352 43 24 DFFR_X1
* cell instance $440 m0 *1 51.68,30.8
X$440 350 16 24 104 CLKBUF_X3
* cell instance $443 m0 *1 54.34,30.8
X$443 347 104 297 16 24 348 MUX2_X1
* cell instance $444 m0 *1 53.01,30.8
X$444 237 128 347 16 24 326 MUX2_X1
* cell instance $445 m0 *1 55.67,30.8
X$445 348 131 349 16 24 346 MUX2_X1
* cell instance $450 r0 *1 54.34,30.8
X$450 197 106 387 16 24 380 MUX2_X1
* cell instance $453 r0 *1 56.81,30.8
X$453 197 179 385 16 24 381 MUX2_X1
* cell instance $481 m0 *1 5.51,22.4
X$481 213 16 24 69 BUF_X1
* cell instance $490 m0 *1 8.55,22.4
X$490 187 81 221 16 24 214 MUX2_X1
* cell instance $491 m0 *1 7.22,22.4
X$491 187 124 188 16 24 201 MUX2_X1
* cell instance $495 r0 *1 8.17,22.4
X$495 16 774 221 214 191 24 DFF_X1
* cell instance $496 m0 *1 10.45,22.4
X$496 188 97 221 16 24 222 MUX2_X1
* cell instance $499 m0 *1 11.97,22.4
X$499 187 20 192 16 24 189 MUX2_X1
* cell instance $500 m0 *1 13.3,22.4
X$500 16 722 215 190 191 24 DFF_X1
* cell instance $501 m0 *1 16.53,22.4
X$501 222 120 244 16 24 224 MUX2_X1
* cell instance $503 m0 *1 18.05,22.4
X$503 224 16 24 204 INV_X1
* cell instance $504 m0 *1 18.43,22.4
X$504 26 81 225 16 24 205 MUX2_X1
* cell instance $505 m0 *1 19.76,22.4
X$505 217 97 225 16 24 228 MUX2_X1
* cell instance $506 m0 *1 21.09,22.4
X$506 16 727 226 218 216 24 DFF_X1
* cell instance $511 r0 *1 13.11,22.4
X$511 187 19 215 16 24 190 MUX2_X1
* cell instance $513 r0 *1 14.63,22.4
X$513 215 56 192 16 24 244 MUX2_X1
* cell instance $515 r0 *1 16.15,22.4
X$515 16 790 225 205 216 24 DFF_X1
* cell instance $517 r0 *1 19.57,22.4
X$517 26 124 217 16 24 245 MUX2_X1
* cell instance $519 r0 *1 21.28,22.4
X$519 26 19 226 16 24 218 MUX2_X1
* cell instance $521 r0 *1 22.8,22.4
X$521 226 56 240 16 24 247 MUX2_X1
* cell instance $522 r0 *1 24.13,22.4
X$522 228 120 247 16 24 249 MUX2_X1
* cell instance $524 r0 *1 25.84,22.4
X$524 193 66 187 16 24 229 MUX2_X1
* cell instance $526 m0 *1 26.22,22.4
X$526 230 57 187 16 24 209 MUX2_X1
* cell instance $527 m0 *1 30.59,22.4
X$527 230 72 194 16 24 233 MUX2_X1
* cell instance $529 r0 *1 27.17,22.4
X$529 16 216 809 193 229 43 24 DFFR_X1
* cell instance $531 r0 *1 31.35,22.4
X$531 249 16 24 250 INV_X1
* cell instance $534 m0 *1 32.3,22.4
X$534 195 44 233 16 24 67 MUX2_X1
* cell instance $538 r0 *1 33.06,22.4
X$538 234 163 16 24 232 NAND2_X1
* cell instance $540 r0 *1 34.39,22.4
X$540 251 16 24 234 CLKBUF_X2
* cell instance $542 m0 *1 36.48,22.4
X$542 161 175 238 196 166 24 16 239 OAI221_X1
* cell instance $543 m0 *1 35.53,22.4
X$543 129 167 168 16 24 186 OR3_X1
* cell instance $544 m0 *1 37.62,22.4
X$544 197 163 16 24 238 NAND2_X1
* cell instance $546 m0 *1 44.27,22.4
X$546 16 716 219 198 85 24 DFF_X1
* cell instance $550 r0 *1 36.48,22.4
X$550 237 163 16 24 212 NAND2_X1
* cell instance $552 r0 *1 37.43,22.4
X$552 165 239 236 24 16 248 AND3_X1
* cell instance $553 r0 *1 38.38,22.4
X$553 241 167 168 16 24 236 OR3_X1
* cell instance $554 r0 *1 39.33,22.4
X$554 16 751 235 248 85 24 DFF_X1
* cell instance $556 r0 *1 42.75,22.4
X$556 235 16 24 241 BUF_X1
* cell instance $558 r0 *1 43.7,22.4
X$558 241 128 231 16 24 246 MUX2_X1
* cell instance $559 r0 *1 45.03,22.4
X$559 241 106 219 16 24 198 MUX2_X1
* cell instance $560 r0 *1 46.36,22.4
X$560 231 258 219 16 24 227 MUX2_X1
* cell instance $562 m0 *1 48.07,22.4
X$562 227 170 199 16 24 141 MUX2_X1
* cell instance $565 m0 *1 49.59,22.4
X$565 129 179 223 16 24 203 MUX2_X1
* cell instance $569 r0 *1 48.83,22.4
X$569 16 789 242 243 76 24 DFF_X1
* cell instance $571 m0 *1 52.25,22.4
X$571 200 104 223 16 24 202 MUX2_X1
* cell instance $573 m0 *1 53.58,22.4
X$573 129 173 200 16 24 220 MUX2_X1
* cell instance $578 r0 *1 53.58,22.4
X$578 16 761 200 220 76 24 DFF_X1
* cell instance $587 m0 *1 5.51,42
X$587 493 16 24 271 BUF_X1
* cell instance $596 m0 *1 7.22,42
X$596 501 16 24 355 BUF_X1
* cell instance $598 m0 *1 14.63,42
X$598 502 66 271 16 24 519 MUX2_X1
* cell instance $603 r0 *1 15.39,42
X$603 16 427 814 532 519 43 24 DFFR_X1
* cell instance $604 m0 *1 16.53,42
X$604 518 57 271 16 24 477 MUX2_X1
* cell instance $608 m0 *1 20.33,42
X$608 497 16 24 518 BUF_X2
* cell instance $609 m0 *1 19,42
X$609 512 57 355 16 24 531 MUX2_X1
* cell instance $611 r0 *1 19.19,42
X$611 16 427 813 538 531 43 24 DFFR_X1
* cell instance $613 m0 *1 21.47,42
X$613 532 16 24 502 BUF_X2
* cell instance $615 m0 *1 26.79,42
X$615 534 536 461 500 24 16 432 OAI22_X2
* cell instance $617 m0 *1 28.69,42
X$617 16 514 483 515 520 24 DFF_X1
* cell instance $619 m0 *1 32.11,42
X$619 503 161 484 16 515 24 AOI21_X1
* cell instance $620 m0 *1 32.87,42
X$620 517 514 537 24 16 523 HA_X1
* cell instance $622 r0 *1 22.99,42
X$622 84 16 24 427 CLKBUF_X3
* cell instance $626 r0 *1 26.03,42
X$626 539 542 461 540 16 24 534 NAND4_X1
* cell instance $627 r0 *1 26.98,42
X$627 520 16 24 INV_X4
* cell instance $628 r0 *1 27.93,42
X$628 16 552 544 563 520 24 DFF_X1
* cell instance $630 r0 *1 31.35,42
X$630 541 536 521 16 24 545 NOR3_X1
* cell instance $632 r0 *1 32.3,42
X$632 522 483 353 24 503 16 OAI21_X1
* cell instance $633 r0 *1 33.06,42
X$633 552 523 521 24 16 441 HA_X1
* cell instance $635 m0 *1 35.34,42
X$635 522 524 353 24 494 16 OAI21_X1
* cell instance $637 m0 *1 36.1,42
X$637 546 353 16 24 390 NAND2_X1
* cell instance $638 m0 *1 36.67,42
X$638 479 47 505 16 24 526 MUX2_X1
* cell instance $639 m0 *1 38,42
X$639 518 31 404 504 499 16 24 535 AOI221_X1
* cell instance $640 m0 *1 39.14,42
X$640 516 72 502 16 555 24 AOI21_X1
* cell instance $641 m0 *1 39.9,42
X$641 504 495 47 512 16 24 554 AOI22_X1
* cell instance $642 m0 *1 40.85,42
X$642 499 16 24 495 INV_X1
* cell instance $643 m0 *1 41.23,42
X$643 47 530 24 16 516 AND2_X1
* cell instance $646 m0 *1 44.27,42
X$646 256 128 506 16 24 551 MUX2_X1
* cell instance $648 m0 *1 45.79,42
X$648 506 258 507 16 24 508 MUX2_X1
* cell instance $649 m0 *1 47.12,42
X$649 508 170 498 16 24 505 MUX2_X1
* cell instance $651 m0 *1 49.21,42
X$651 256 179 533 16 24 527 MUX2_X1
* cell instance $653 r0 *1 35.34,42
X$653 524 429 24 16 525 XNOR2_X1
* cell instance $654 r0 *1 36.48,42
X$654 494 161 525 16 553 24 AOI21_X1
* cell instance $656 r0 *1 38,42
X$656 526 404 16 24 556 NAND2_X1
* cell instance $659 r0 *1 39.14,42
X$659 535 404 555 16 596 24 AOI21_X1
* cell instance $660 r0 *1 39.9,42
X$660 404 554 556 24 560 16 OAI21_X1
* cell instance $663 r0 *1 42.94,42
X$663 16 756 506 551 294 24 DFF_X1
* cell instance $664 r0 *1 46.17,42
X$664 16 776 489 509 468 24 DFF_X1
* cell instance $665 r0 *1 49.4,42
X$665 16 794 533 527 468 24 DFF_X1
* cell instance $666 m0 *1 51.11,42
X$666 234 128 513 16 24 488 MUX2_X1
* cell instance $668 m0 *1 52.44,42
X$668 234 106 511 16 24 486 MUX2_X1
* cell instance $669 m0 *1 53.77,42
X$669 513 258 511 16 24 528 MUX2_X1
* cell instance $673 r0 *1 54.53,42
X$673 528 170 548 16 24 530 MUX2_X1
* cell instance $674 m0 *1 55.67,42
X$674 496 258 510 16 24 548 MUX2_X1
* cell instance $676 m0 *1 57,42
X$676 16 744 510 529 468 24 DFF_X1
* cell instance $678 r0 *1 55.86,42
X$678 234 179 510 16 24 529 MUX2_X1
* cell instance $725 m0 *1 7.98,28
X$725 16 737 272 299 191 24 DFF_X1
* cell instance $727 m0 *1 12.16,28
X$727 16 719 274 273 191 24 DFF_X1
* cell instance $728 m0 *1 15.39,28
X$728 271 20 274 16 24 273 MUX2_X1
* cell instance $733 r0 *1 9.31,28
X$733 16 758 338 322 191 24 DFF_X1
* cell instance $734 r0 *1 12.54,28
X$734 191 16 24 690 CLKBUF_X1
* cell instance $735 r0 *1 13.11,28
X$735 84 16 24 191 CLKBUF_X3
* cell instance $736 r0 *1 14.06,28
X$736 324 120 307 16 24 323 MUX2_X1
* cell instance $737 r0 *1 15.39,28
X$737 323 16 24 306 INV_X1
* cell instance $739 r0 *1 16.15,28
X$739 16 191 308 327 325 43 24 DFFR_X1
* cell instance $741 m0 *1 18.05,28
X$741 56 302 16 24 286 XOR2_X1
* cell instance $744 m0 *1 20.14,28
X$744 16 216 807 288 310 43 24 DFFR_X1
* cell instance $747 m0 *1 25.65,28
X$747 16 745 287 303 216 24 DFF_X1
* cell instance $748 m0 *1 28.88,28
X$748 159 305 332 16 24 303 NOR3_X1
* cell instance $750 m0 *1 30.4,28
X$750 305 289 16 24 168 NOR2_X2
* cell instance $751 m0 *1 31.35,28
X$751 289 16 24 163 BUF_X2
* cell instance $753 m0 *1 32.87,28
X$753 168 16 24 196 BUF_X2
* cell instance $755 r0 *1 19.95,28
X$755 327 16 24 97 CLKBUF_X3
* cell instance $757 r0 *1 21.09,28
X$757 120 287 24 16 340 XNOR2_X1
* cell instance $758 r0 *1 22.23,28
X$758 84 16 24 216 CLKBUF_X3
* cell instance $759 r0 *1 23.18,28
X$759 287 120 16 24 302 NAND2_X1
* cell instance $760 r0 *1 23.75,28
X$760 288 16 24 120 CLKBUF_X3
* cell instance $764 r0 *1 26.03,28
X$764 287 16 24 312 INV_X1
* cell instance $766 r0 *1 27.17,28
X$766 16 216 313 43 332 314 24 DFFR_X2
* cell instance $767 r0 *1 31.35,28
X$767 289 16 24 161 CLKBUF_X3
* cell instance $769 r0 *1 32.68,28
X$769 335 26 290 336 333 16 24 315 AOI221_X1
* cell instance $770 r0 *1 33.82,28
X$770 316 16 24 336 INV_X1
* cell instance $771 m0 *1 34.2,28
X$771 167 24 166 16 BUF_X4
* cell instance $773 m0 *1 35.53,28
X$773 161 306 304 196 166 24 16 275 OAI221_X1
* cell instance $776 m0 *1 37.62,28
X$776 293 163 16 24 304 NAND2_X1
* cell instance $780 r0 *1 35.72,28
X$780 16 762 337 291 292 24 DFF_X1
* cell instance $781 r0 *1 38.95,28
X$781 337 16 24 256 BUF_X1
* cell instance $782 m0 *1 39.52,28
X$782 78 16 24 334 INV_X1
* cell instance $784 m0 *1 39.9,28
X$784 16 741 78 276 292 24 DFF_X1
* cell instance $788 m0 *1 51.49,28
X$788 237 106 297 16 24 301 MUX2_X1
* cell instance $789 m0 *1 52.82,28
X$789 16 732 297 301 76 24 DFF_X1
* cell instance $790 m0 *1 56.05,28
X$790 237 179 298 16 24 278 MUX2_X1
* cell instance $794 r0 *1 39.52,28
X$794 318 334 339 22 335 16 24 276 AOI221_X1
* cell instance $799 r0 *1 45.79,28
X$799 330 170 16 24 320 NOR2_X1
* cell instance $800 r0 *1 46.36,28
X$800 258 16 24 330 INV_X1
* cell instance $802 r0 *1 46.93,28
X$802 16 294 810 328 295 43 24 DFFR_X1
* cell instance $803 r0 *1 50.73,28
X$803 328 16 24 131 BUF_X2
* cell instance $805 r0 *1 52.25,28
X$805 16 769 347 326 296 24 DFF_X1
* cell instance $807 r0 *1 55.86,28
X$807 277 104 298 16 24 349 MUX2_X1
* cell instance $808 r0 *1 57.19,28
X$808 16 760 300 321 296 24 DFF_X1
* cell instance $809 m0 *1 60.23,28
X$809 300 16 24 279 BUF_X1
* cell instance $815 m0 *1 5.7,25.2
X$815 16 723 252 261 191 24 DFF_X1
* cell instance $816 m0 *1 11.97,25.2
X$816 16 718 254 253 191 24 DFF_X1
* cell instance $821 r0 *1 5.89,25.2
X$821 270 16 24 187 BUF_X1
* cell instance $827 r0 *1 7.41,25.2
X$827 271 124 252 16 24 261 MUX2_X1
* cell instance $830 r0 *1 9.31,25.2
X$830 271 81 272 16 24 299 MUX2_X1
* cell instance $831 r0 *1 10.64,25.2
X$831 252 97 272 16 24 262 MUX2_X1
* cell instance $833 r0 *1 12.35,25.2
X$833 271 19 254 16 24 253 MUX2_X1
* cell instance $836 r0 *1 14.25,25.2
X$836 254 56 274 16 24 255 MUX2_X1
* cell instance $837 r0 *1 15.58,25.2
X$837 262 120 255 16 24 284 MUX2_X1
* cell instance $839 m0 *1 18.05,25.2
X$839 16 735 217 245 216 24 DFF_X1
* cell instance $841 m0 *1 21.28,25.2
X$841 16 747 240 263 216 24 DFF_X1
* cell instance $842 m0 *1 24.51,25.2
X$842 26 20 240 16 24 263 MUX2_X1
* cell instance $846 r0 *1 23.18,25.2
X$846 284 16 24 264 INV_X1
* cell instance $850 r0 *1 31.35,25.2
X$850 16 765 251 269 82 24 DFF_X1
* cell instance $851 m0 *1 33.44,25.2
X$851 256 163 16 24 267 NAND2_X1
* cell instance $852 m0 *1 32.3,25.2
X$852 161 264 267 196 166 24 16 266 OAI221_X1
* cell instance $854 m0 *1 34.2,25.2
X$854 234 166 196 16 24 285 OR3_X1
* cell instance $856 m0 *1 35.34,25.2
X$856 256 166 196 16 24 257 OR3_X1
* cell instance $857 m0 *1 36.29,25.2
X$857 163 250 268 196 166 24 16 265 OAI221_X1
* cell instance $858 m0 *1 37.43,25.2
X$858 241 163 16 24 268 NAND2_X1
* cell instance $862 r0 *1 34.58,25.2
X$862 165 266 285 24 16 269 AND3_X1
* cell instance $864 r0 *1 35.91,25.2
X$864 165 275 257 24 16 291 AND3_X1
* cell instance $865 r0 *1 36.86,25.2
X$865 237 167 168 16 24 283 OR3_X1
* cell instance $866 r0 *1 37.81,25.2
X$866 165 265 283 24 16 282 AND3_X1
* cell instance $868 r0 *1 38.95,25.2
X$868 16 777 281 282 85 24 DFF_X1
* cell instance $869 r0 *1 42.18,25.2
X$869 281 16 24 237 BUF_X1
* cell instance $871 m0 *1 43.13,25.2
X$871 16 725 231 246 85 24 DFF_X1
* cell instance $877 r0 *1 47.5,25.2
X$877 241 173 259 16 24 280 MUX2_X1
* cell instance $878 m0 *1 48.83,25.2
X$878 241 179 242 16 24 243 MUX2_X1
* cell instance $879 m0 *1 47.5,25.2
X$879 259 258 242 16 24 199 MUX2_X1
* cell instance $882 m0 *1 53.96,25.2
X$882 104 16 24 258 CLKBUF_X3
* cell instance $884 r0 *1 48.83,25.2
X$884 16 787 259 280 76 24 DFF_X1
* cell instance $886 r0 *1 53.58,25.2
X$886 16 771 277 260 76 24 DFF_X1
* cell instance $888 m0 *1 55.29,25.2
X$888 237 173 277 16 24 260 MUX2_X1
* cell instance $892 r0 *1 57,25.2
X$892 16 755 298 278 76 24 DFF_X1
* cell instance $927 m0 *1 18.24,58.8
X$927 16 669 570 697 649 24 DFF_X2
* cell instance $932 m0 *1 24.32,58.8
X$932 16 717 680 678 570 24 DFF_X1
* cell instance $933 m0 *1 27.55,58.8
X$933 680 16 24 657 BUF_X2
* cell instance $937 m0 *1 30.02,58.8
X$937 16 721 653 672 608 24 DFF_X1
* cell instance $941 r0 *1 32.49,58.8
X$941 445 16 24 686 BUF_X1
* cell instance $944 r0 *1 33.82,58.8
X$944 685 16 24 674 CLKBUF_X1
* cell instance $946 r0 *1 34.77,58.8
X$946 673 16 24 567 CLKBUF_X2
* cell instance $947 m0 *1 34.77,58.8
X$947 674 16 24 546 BUF_X1
* cell instance $950 r0 *1 35.72,58.8
X$950 687 16 24 561 CLKBUF_X2
* cell instance $951 m0 *1 35.72,58.8
X$951 682 16 24 559 CLKBUF_X2
* cell instance $957 r0 *1 40.85,58.8
X$957 683 16 24 688 BUF_X1
* cell instance $958 r0 *1 41.42,58.8
X$958 659 16 24 684 BUF_X1
* cell instance $987 m0 *1 21.66,44.8
X$987 427 16 24 692 INV_X2
* cell instance $988 m0 *1 22.99,44.8
X$988 538 16 24 566 BUF_X1
* cell instance $994 r0 *1 22.99,44.8
X$994 16 801 558 557 427 24 DFF_X1
* cell instance $996 m0 *1 26.41,44.8
X$996 539 542 540 16 24 541 NAND3_X2
* cell instance $997 m0 *1 27.74,44.8
X$997 540 542 539 24 16 481 AND3_X2
* cell instance $998 m0 *1 28.88,44.8
X$998 84 16 24 520 CLKBUF_X3
* cell instance $999 m0 *1 29.83,44.8
X$999 541 536 16 24 429 NOR2_X2
* cell instance $1001 r0 *1 26.22,44.8
X$1001 543 536 541 24 16 562 OAI21_X2
* cell instance $1002 r0 *1 27.55,44.8
X$1002 558 16 24 540 INV_X1
* cell instance $1005 r0 *1 30.21,44.8
X$1005 522 544 353 24 564 16 OAI21_X1
* cell instance $1007 m0 *1 31.92,44.8
X$1007 564 161 550 16 563 24 AOI21_X1
* cell instance $1008 m0 *1 31.16,44.8
X$1008 545 544 465 16 550 24 AOI21_X1
* cell instance $1010 m0 *1 32.87,44.8
X$1010 16 517 524 553 520 24 DFF_X1
* cell instance $1014 r0 *1 31.54,44.8
X$1014 541 536 537 16 24 490 NOR3_X1
* cell instance $1018 r0 *1 34.96,44.8
X$1018 561 559 567 16 446 24 NAND3_X4
* cell instance $1020 m0 *1 38.19,44.8
X$1020 16 520 491 469 547 43 24 DFFR_X1
* cell instance $1024 r0 *1 38.19,44.8
X$1024 559 561 491 24 16 547 AND3_X1
* cell instance $1026 r0 *1 39.33,44.8
X$1026 16 752 683 560 520 24 DFF_X1
* cell instance $1028 m0 *1 46.74,44.8
X$1028 16 734 507 549 468 24 DFF_X1
* cell instance $1029 m0 *1 45.41,44.8
X$1029 256 106 507 16 24 549 MUX2_X1
* cell instance $1042 m0 *1 15.96,36.4
X$1042 16 427 451 43 386 358 24 DFFR_X2
* cell instance $1043 m0 *1 20.14,36.4
X$1043 438 428 372 16 24 421 MUX2_X1
* cell instance $1046 m0 *1 23.75,36.4
X$1046 341 332 16 24 428 NOR2_X1
* cell instance $1047 m0 *1 24.32,36.4
X$1047 430 453 339 16 24 442 NOR3_X1
* cell instance $1049 m0 *1 25.27,36.4
X$1049 411 398 429 16 453 24 AOI21_X1
* cell instance $1051 m0 *1 26.22,36.4
X$1051 461 411 707 24 16 440 HA_X1
* cell instance $1053 m0 *1 28.31,36.4
X$1053 440 16 24 289 CLKBUF_X3
* cell instance $1054 m0 *1 29.26,36.4
X$1054 434 441 193 16 24 455 MUX2_X1
* cell instance $1055 m0 *1 30.59,36.4
X$1055 444 432 457 16 24 414 MUX2_X1
* cell instance $1056 m0 *1 31.92,36.4
X$1056 434 16 24 392 INV_X1
* cell instance $1057 m0 *1 32.3,36.4
X$1057 445 16 24 444 INV_X1
* cell instance $1058 m0 *1 32.68,36.4
X$1058 16 434 445 426 292 24 DFF_X1
* cell instance $1059 m0 *1 35.91,36.4
X$1059 16 44 31 446 66 24 NOR3_X4
* cell instance $1062 m0 *1 42.37,36.4
X$1062 376 377 16 24 365 NOR2_X1