
* cell dual_port_ram
* pin data_b[6]
* pin data_b[5]
* pin data_b[7]
* pin addr_a[0]
* pin addr_a[1]
* pin we_a
* pin q_a[7]
* pin q_b[7]
* pin q_b[6]
* pin addr_b[1]
* pin addr_b[0]
* pin q_a[5]
* pin q_b[5]
* pin data_b[3]
* pin q_a[6]
* pin q_b[3]
* pin data_b[4]
* pin data_b[1]
* pin addr_b[2]
* pin addr_a[2]
* pin addr_b[3]
* pin we_b
* pin clk
* pin addr_a[3]
* pin data_a[6]
* pin q_a[3]
* pin data_a[5]
* pin data_a[7]
* pin data_a[3]
* pin q_b[4]
* pin data_a[4]
* pin q_a[4]
* pin data_a[2]
* pin q_b[1]
* pin data_a[0]
* pin q_b[0]
* pin q_b[2]
* pin data_a[1]
* pin data_b[2]
* pin q_a[1]
* pin data_b[0]
* pin q_a[2]
* pin q_a[0]
.SUBCKT dual_port_ram 1 2 3 4 5 6 7 8 9 10 11 103 104 158 183 203 213 266 311
+ 322 323 324 331 345 346 372 406 407 442 445 457 481 501 526 547 561 562 563
+ 565 566 567 569 571
* net 1 data_b[6]
* net 2 data_b[5]
* net 3 data_b[7]
* net 4 addr_a[0]
* net 5 addr_a[1]
* net 6 we_a
* net 7 q_a[7]
* net 8 q_b[7]
* net 9 q_b[6]
* net 10 addr_b[1]
* net 11 addr_b[0]
* net 103 q_a[5]
* net 104 q_b[5]
* net 158 data_b[3]
* net 183 q_a[6]
* net 203 q_b[3]
* net 213 data_b[4]
* net 266 data_b[1]
* net 311 addr_b[2]
* net 322 addr_a[2]
* net 323 addr_b[3]
* net 324 we_b
* net 331 clk
* net 345 addr_a[3]
* net 346 data_a[6]
* net 372 q_a[3]
* net 406 data_a[5]
* net 407 data_a[7]
* net 442 data_a[3]
* net 445 q_b[4]
* net 457 data_a[4]
* net 481 q_a[4]
* net 501 data_a[2]
* net 526 q_b[1]
* net 547 data_a[0]
* net 561 q_b[0]
* net 562 q_b[2]
* net 563 data_a[1]
* net 565 data_b[2]
* net 566 q_a[1]
* net 567 data_b[0]
* net 569 q_a[2]
* net 571 q_a[0]
* cell instance $3 r0 *1 51.06,2.72
X$3 35 1 14 26 35 14 sky130_fd_sc_hd__buf_2
* cell instance $6 m0 *1 53.36,8.16
X$6 35 2 14 43 35 14 sky130_fd_sc_hd__buf_2
* cell instance $9 r0 *1 52.9,2.72
X$9 35 3 14 18 35 14 sky130_fd_sc_hd__buf_2
* cell instance $12 r0 *1 57.04,2.72
X$12 35 4 35 14 27 14 sky130_fd_sc_hd__buf_4
* cell instance $14 r0 *1 59.8,2.72
X$14 35 5 28 14 35 14 sky130_fd_sc_hd__clkbuf_1
* cell instance $17 r0 *1 61.18,2.72
X$17 35 6 14 25 35 14 sky130_fd_sc_hd__clkbuf_4
* cell instance $21 r0 *1 86.48,2.72
X$21 35 17 7 14 35 14 sky130_fd_sc_hd__clkbuf_1
* cell instance $24 r0 *1 84.64,2.72
X$24 35 12 8 14 35 14 sky130_fd_sc_hd__clkbuf_1
* cell instance $27 r0 *1 91.54,2.72
X$27 35 37 9 14 35 14 sky130_fd_sc_hd__clkbuf_1
* cell instance $29 r0 *1 94.76,2.72
X$29 35 10 35 14 22 14 sky130_fd_sc_hd__buf_4
* cell instance $32 r0 *1 103.04,2.72
X$32 35 11 35 14 21 14 sky130_fd_sc_hd__buf_4
* cell instance $35 r0 *1 76.82,2.72
X$35 14 12 23 13 35 35 14 sky130_fd_sc_hd__dfxtp_1
* cell instance $41 m0 *1 84.64,19.04
X$41 35 154 100 13 35 14 14 sky130_fd_sc_hd__nand2_1
* cell instance $73 r0 *1 31.74,2.72
X$73 14 16 24 29 15 35 35 14 sky130_fd_sc_hd__edfxtp_1
* cell instance $81 r0 *1 63.94,2.72
X$81 14 73 18 19 20 35 35 14 sky130_fd_sc_hd__mux2_1
* cell instance $120 m0 *1 15.64,8.16
X$120 14 42 38 29 49 35 35 14 sky130_fd_sc_hd__edfxtp_1
* cell instance $128 m0 *1 38.18,8.16
X$128 14 61 26 50 30 35 35 14 sky130_fd_sc_hd__mux2_1
* cell instance $129 m0 *1 42.32,8.16
X$129 14 16 41 29 51 35 35 14 sky130_fd_sc_hd__edfxtp_1
* cell instance $133 m0 *1 57.04,8.16
X$133 14 83 18 19 31 35 35 14 sky130_fd_sc_hd__mux2_1
* cell instance $135 m0 *1 63.02,8.16
X$135 14 32 40 23 45 35 35 14 sky130_fd_sc_hd__edfxtp_1
* cell instance $138 m0 *1 75.44,8.16
X$138 14 52 26 50 39 35 35 14 sky130_fd_sc_hd__mux2_1
* cell instance $142 m0 *1 84.64,8.16
X$142 14 37 34 33 35 35 14 sky130_fd_sc_hd__dfxtp_1
* cell instance $145 m0 *1 96.6,8.16
X$145 14 46 36 34 48 35 35 14 sky130_fd_sc_hd__edfxtp_1
* cell instance $162 r0 *1 17.02,8.16
X$162 14 42 60 57 58 35 35 14 sky130_fd_sc_hd__edfxtp_1
* cell instance $163 r0 *1 28.06,8.16
X$163 14 16 53 29 61 35 35 14 sky130_fd_sc_hd__edfxtp_1
* cell instance $169 r0 *1 45.54,8.16
X$169 14 51 43 47 30 35 35 14 sky130_fd_sc_hd__mux2_1
* cell instance $172 r0 *1 53.82,8.16
X$172 14 44 65 29 63 35 35 14 sky130_fd_sc_hd__edfxtp_1
* cell instance $173 r0 *1 64.86,8.16
X$173 14 45 18 19 39 35 35 14 sky130_fd_sc_hd__mux2_1
* cell instance $179 r0 *1 71.76,8.16
X$179 14 46 64 23 55 35 35 14 sky130_fd_sc_hd__edfxtp_1
* cell instance $180 r0 *1 82.8,8.16
X$180 14 17 34 62 35 35 14 sky130_fd_sc_hd__dfxtp_1
* cell instance $182 r0 *1 91.08,8.16
X$182 14 67 43 47 31 35 35 14 sky130_fd_sc_hd__mux2_1
* cell instance $187 r0 *1 98.44,8.16
X$187 14 48 43 47 20 35 35 14 sky130_fd_sc_hd__mux2_1
* cell instance $189 r0 *1 103.04,8.16
X$189 14 32 56 34 59 35 35 14 sky130_fd_sc_hd__edfxtp_1
* cell instance $207 m0 *1 17.02,13.6
X$207 14 58 19 69 66 35 35 14 sky130_fd_sc_hd__mux2_1
* cell instance $208 m0 *1 21.16,13.6
X$208 14 49 50 54 66 35 35 14 sky130_fd_sc_hd__mux2_1
* cell instance $211 m0 *1 29.44,13.6
X$211 14 77 72 60 24 71 70 95 35 35 14 sky130_fd_sc_hd__mux4_1
* cell instance $214 m0 *1 40.48,13.6
X$214 14 15 18 19 30 35 35 14 sky130_fd_sc_hd__mux2_1
* cell instance $215 m0 *1 44.62,13.6
X$215 35 26 14 54 35 14 sky130_fd_sc_hd__clkbuf_4
* cell instance $222 m0 *1 58.42,13.6
X$222 14 63 26 50 31 35 35 14 sky130_fd_sc_hd__mux2_1
* cell instance $223 m0 *1 62.56,13.6
X$223 14 46 74 23 73 35 35 14 sky130_fd_sc_hd__edfxtp_1
* cell instance $224 m0 *1 73.6,13.6
X$224 14 55 26 50 20 35 35 14 sky130_fd_sc_hd__mux2_1
* cell instance $232 m0 *1 90.62,13.6
X$232 14 44 68 34 67 35 35 14 sky130_fd_sc_hd__edfxtp_1
* cell instance $235 m0 *1 103.04,13.6
X$235 14 59 43 47 39 35 35 14 sky130_fd_sc_hd__mux2_1
* cell instance $244 r0 *1 2.3,13.6
X$244 14 80 71 57 79 35 35 14 sky130_fd_sc_hd__edfxtp_1
* cell instance $250 r0 *1 16.1,13.6
X$250 14 86 81 38 53 75 76 99 35 35 14 sky130_fd_sc_hd__mux4_1
* cell instance $251 r0 *1 25.76,13.6
X$251 14 77 96 38 53 75 76 95 35 35 14 sky130_fd_sc_hd__mux4_1
* cell instance $257 r0 *1 43.24,13.6
X$257 14 42 97 29 84 35 35 14 sky130_fd_sc_hd__edfxtp_1
* cell instance $261 r0 *1 59.34,13.6
X$261 14 44 78 23 83 35 35 14 sky130_fd_sc_hd__edfxtp_1
* cell instance $265 r0 *1 70.84,13.6
X$265 14 21 90 74 40 125 78 22 35 35 14 sky130_fd_sc_hd__mux4_1
* cell instance $268 r0 *1 85.1,13.6
X$268 35 296 82 33 35 14 14 sky130_fd_sc_hd__nand2_1
* cell instance $277 r0 *1 102.12,13.6
X$277 14 21 92 36 56 91 68 22 35 35 14 sky130_fd_sc_hd__mux4_1
* cell instance $288 m0 *1 4.6,19.04
X$288 14 79 85 69 98 35 35 14 sky130_fd_sc_hd__mux2_1
* cell instance $290 m0 *1 10.58,19.04
X$290 14 106 76 57 105 35 35 14 sky130_fd_sc_hd__edfxtp_1
* cell instance $292 m0 *1 22.54,19.04
X$292 35 57 14 35 14 sky130_fd_sc_hd__clkinv_4
* cell instance $299 m0 *1 30.82,19.04
X$299 14 86 87 60 24 71 70 99 35 35 14 sky130_fd_sc_hd__mux4_1
* cell instance $301 m0 *1 42.32,19.04
X$301 14 84 47 110 66 35 35 14 sky130_fd_sc_hd__mux2_1
* cell instance $304 m0 *1 50.6,19.04
X$304 35 18 14 69 35 14 sky130_fd_sc_hd__clkbuf_4
* cell instance $313 m0 *1 67.16,19.04
X$313 14 32 111 23 52 35 35 14 sky130_fd_sc_hd__edfxtp_1
* cell instance $314 m0 *1 78.2,19.04
X$314 35 23 35 14 14 sky130_fd_sc_hd__clkinvlp_4
* cell instance $315 m0 *1 80.96,19.04
X$315 35 88 87 89 90 35 100 14 14 sky130_fd_sc_hd__a22oi_1
* cell instance $319 m0 *1 86.94,19.04
X$319 35 88 81 89 109 35 82 14 14 sky130_fd_sc_hd__a22oi_1
* cell instance $321 m0 *1 90.16,19.04
X$321 14 107 91 34 108 35 35 14 sky130_fd_sc_hd__edfxtp_1
* cell instance $323 m0 *1 102.12,19.04
X$323 14 93 143 36 56 91 68 153 35 35 14 sky130_fd_sc_hd__mux4_1
* cell instance $325 m0 *1 112.24,19.04
X$325 14 102 34 101 35 35 14 sky130_fd_sc_hd__dfxtp_1
* cell instance $326 m0 *1 119.6,19.04
X$326 35 102 104 14 35 14 sky130_fd_sc_hd__clkbuf_1
* cell instance $328 r0 *1 2.3,19.04
X$328 14 80 75 57 118 35 35 14 sky130_fd_sc_hd__edfxtp_1
* cell instance $332 r0 *1 15.64,19.04
X$332 14 106 70 57 120 35 35 14 sky130_fd_sc_hd__edfxtp_1
* cell instance $333 r0 *1 26.68,19.04
X$333 14 106 114 57 112 35 35 14 sky130_fd_sc_hd__edfxtp_1
* cell instance $334 r0 *1 37.72,19.04
X$334 14 112 126 110 113 35 35 14 sky130_fd_sc_hd__mux2_1
* cell instance $338 r0 *1 43.24,19.04
X$338 35 115 35 14 95 14 sky130_fd_sc_hd__buf_4
* cell instance $340 r0 *1 46.46,19.04
X$340 14 77 94 97 41 127 114 95 35 35 14 sky130_fd_sc_hd__mux4_1
* cell instance $341 r0 *1 56.12,19.04
X$341 14 107 125 23 123 35 35 14 sky130_fd_sc_hd__edfxtp_1
* cell instance $347 r0 *1 70.84,19.04
X$347 14 27 122 74 40 125 78 115 35 35 14 sky130_fd_sc_hd__mux4_1
* cell instance $348 r0 *1 80.5,19.04
X$348 14 21 109 64 111 124 65 22 35 35 14 sky130_fd_sc_hd__mux4_1
* cell instance $349 r0 *1 90.16,19.04
X$349 14 108 47 110 138 35 35 14 sky130_fd_sc_hd__mux2_1
* cell instance $350 r0 *1 94.3,19.04
X$350 35 34 35 14 14 sky130_fd_sc_hd__clkinv_2
* cell instance $352 r0 *1 96.14,19.04
X$352 35 116 137 62 35 14 14 sky130_fd_sc_hd__nand2_1
* cell instance $360 r0 *1 109.02,19.04
X$360 35 88 121 89 92 35 117 14 14 sky130_fd_sc_hd__a22oi_1
* cell instance $362 r0 *1 112.24,19.04
X$362 35 119 117 101 35 14 14 sky130_fd_sc_hd__nand2_1
* cell instance $366 r0 *1 119.6,19.04
X$366 35 135 103 14 35 14 sky130_fd_sc_hd__clkbuf_1
* cell instance $378 m0 *1 4.6,24.48
X$378 14 118 139 54 98 35 35 14 sky130_fd_sc_hd__mux2_1
* cell instance $381 m0 *1 11.5,24.48
X$381 14 105 139 54 113 35 35 14 sky130_fd_sc_hd__mux2_1
* cell instance $382 m0 *1 15.64,24.48
X$382 14 120 85 69 113 35 35 14 sky130_fd_sc_hd__mux2_1
* cell instance $383 m0 *1 19.78,24.48
X$383 14 141 57 35 35 14 sky130_fd_sc_hd__clkbuf_16
* cell instance $385 m0 *1 29.44,24.48
X$385 35 29 14 35 14 sky130_fd_sc_hd__clkinv_4
* cell instance $386 m0 *1 32.66,24.48
X$386 14 140 126 110 98 35 35 14 sky130_fd_sc_hd__mux2_1
* cell instance $387 m0 *1 36.8,24.48
X$387 14 80 127 29 140 35 35 14 sky130_fd_sc_hd__edfxtp_1
* cell instance $388 m0 *1 47.84,24.48
X$388 14 21 86 35 35 14 sky130_fd_sc_hd__clkbuf_8
* cell instance $390 m0 *1 53.82,24.48
X$390 35 22 35 14 99 14 sky130_fd_sc_hd__buf_4
* cell instance $392 m0 *1 57.04,24.48
X$392 14 123 19 69 138 35 35 14 sky130_fd_sc_hd__mux2_1
* cell instance $394 m0 *1 61.64,24.48
X$394 14 107 124 23 148 35 35 14 sky130_fd_sc_hd__edfxtp_1
* cell instance $396 m0 *1 74.52,24.48
X$396 14 27 129 64 111 124 65 115 35 35 14 sky130_fd_sc_hd__mux4_1
* cell instance $398 m0 *1 84.64,24.48
X$398 35 130 96 131 129 35 128 14 14 sky130_fd_sc_hd__a22oi_1
* cell instance $399 m0 *1 87.4,24.48
X$399 35 130 72 131 122 35 137 14 14 sky130_fd_sc_hd__a22oi_1
* cell instance $400 m0 *1 90.16,24.48
X$400 14 141 34 35 35 14 sky130_fd_sc_hd__clkbuf_16
* cell instance $403 m0 *1 102.12,24.48
X$403 14 185 133 132 20 35 35 14 sky130_fd_sc_hd__mux2_1
* cell instance $404 m0 *1 106.26,24.48
X$404 35 130 94 131 143 35 136 14 14 sky130_fd_sc_hd__a22oi_1
* cell instance $405 m0 *1 109.02,24.48
X$405 35 147 136 144 35 14 14 sky130_fd_sc_hd__nand2_1
* cell instance $410 m0 *1 113.16,24.48
X$410 14 135 34 144 35 35 14 sky130_fd_sc_hd__dfxtp_1
* cell instance $422 r0 *1 16.1,24.48
X$422 35 139 14 50 35 14 sky130_fd_sc_hd__clkbuf_4
* cell instance $423 r0 *1 18.86,24.48
X$423 35 85 14 19 35 14 sky130_fd_sc_hd__clkbuf_4
* cell instance $425 r0 *1 22.54,24.48
X$425 14 16 151 57 146 35 35 14 sky130_fd_sc_hd__edfxtp_1
* cell instance $426 r0 *1 33.58,24.48
X$426 14 141 29 35 35 14 sky130_fd_sc_hd__clkbuf_16
* cell instance $432 r0 *1 44.16,24.48
X$432 35 126 14 47 35 14 sky130_fd_sc_hd__clkbuf_4
* cell instance $433 r0 *1 46.92,24.48
X$433 14 86 121 97 41 127 114 99 35 35 14 sky130_fd_sc_hd__mux4_1
* cell instance $437 r0 *1 64.86,24.48
X$437 14 148 50 54 138 35 35 14 sky130_fd_sc_hd__mux2_1
* cell instance $447 r0 *1 76.82,24.48
X$447 14 141 23 35 35 14 sky130_fd_sc_hd__clkbuf_16
* cell instance $449 r0 *1 86.94,24.48
X$449 14 107 142 34 149 35 35 14 sky130_fd_sc_hd__edfxtp_1
* cell instance $455 r0 *1 100.28,24.48
X$455 14 21 159 156 134 142 157 22 35 35 14 sky130_fd_sc_hd__mux4_1
* cell instance $456 r0 *1 109.94,24.48
X$456 14 32 134 34 145 35 35 14 sky130_fd_sc_hd__edfxtp_1
* cell instance $462 m0 *1 16.56,29.92
X$462 14 166 132 169 66 35 35 14 sky130_fd_sc_hd__mux2_1
* cell instance $463 m0 *1 20.7,29.92
X$463 14 167 151 170 77 160 95 150 35 35 14 sky130_fd_sc_hd__mux4_2
* cell instance $465 m0 *1 29.44,29.92
X$465 14 167 151 155 86 160 99 150 35 35 14 sky130_fd_sc_hd__mux4_2
* cell instance $466 m0 *1 37.72,29.92
X$466 14 220 174 152 98 35 35 14 sky130_fd_sc_hd__mux2_1
* cell instance $477 m0 *1 67.62,29.92
X$477 14 27 77 35 35 14 sky130_fd_sc_hd__buf_6
* cell instance $480 m0 *1 77.28,29.92
X$480 35 27 35 14 93 14 sky130_fd_sc_hd__buf_4
* cell instance $481 m0 *1 80.04,29.92
X$481 35 115 35 14 153 14 sky130_fd_sc_hd__buf_4
* cell instance $486 m0 *1 85.1,29.92
X$486 14 149 132 169 138 35 35 14 sky130_fd_sc_hd__mux2_1
* cell instance $487 m0 *1 89.24,29.92
X$487 14 44 157 161 162 35 35 14 sky130_fd_sc_hd__edfxtp_1
* cell instance $488 m0 *1 100.28,29.92
X$488 14 93 165 156 134 142 157 153 35 35 14 sky130_fd_sc_hd__mux4_1
* cell instance $491 m0 *1 112.24,29.92
X$491 14 145 133 132 39 35 35 14 sky130_fd_sc_hd__mux2_1
* cell instance $493 m0 *1 118.22,29.92
X$493 35 158 14 133 35 14 sky130_fd_sc_hd__clkbuf_4
* cell instance $496 r0 *1 4.14,29.92
X$496 14 80 160 175 164 35 35 14 sky130_fd_sc_hd__edfxtp_1
* cell instance $499 r0 *1 15.64,29.92
X$499 14 42 150 175 166 35 35 14 sky130_fd_sc_hd__edfxtp_1
* cell instance $500 r0 *1 26.68,29.92
X$500 14 168 172 171 77 176 95 184 35 35 14 sky130_fd_sc_hd__mux4_4
* cell instance $501 r0 *1 35.88,29.92
X$501 14 205 174 152 113 35 35 14 sky130_fd_sc_hd__mux2_1
* cell instance $506 r0 *1 43.24,29.92
X$506 14 42 188 177 186 35 35 14 sky130_fd_sc_hd__edfxtp_1
* cell instance $507 r0 *1 54.28,29.92
X$507 14 209 173 163 30 35 35 14 sky130_fd_sc_hd__mux2_1
* cell instance $511 r0 *1 61.64,29.92
X$511 14 190 163 152 138 35 35 14 sky130_fd_sc_hd__mux2_1
* cell instance $516 r0 *1 70.84,29.92
X$516 14 46 178 195 191 35 35 14 sky130_fd_sc_hd__edfxtp_1
* cell instance $521 r0 *1 91.54,29.92
X$521 14 162 133 132 31 35 35 14 sky130_fd_sc_hd__mux2_1
* cell instance $528 r0 *1 100.74,29.92
X$528 14 46 156 161 185 35 35 14 sky130_fd_sc_hd__edfxtp_1
* cell instance $529 r0 *1 111.78,29.92
X$529 35 88 155 89 159 35 200 14 14 sky130_fd_sc_hd__a22oi_1
* cell instance $544 m0 *1 6.44,35.36
X$544 14 164 192 169 98 35 35 14 sky130_fd_sc_hd__mux2_1
* cell instance $547 m0 *1 12.88,35.36
X$547 14 106 167 175 193 35 35 14 sky130_fd_sc_hd__edfxtp_1
* cell instance $549 m0 *1 24.84,35.36
X$549 14 146 133 132 30 35 35 14 sky130_fd_sc_hd__mux2_1
* cell instance $554 m0 *1 34.5,35.36
X$554 14 106 187 177 205 35 35 14 sky130_fd_sc_hd__edfxtp_1
* cell instance $555 m0 *1 45.54,35.36
X$555 14 16 189 177 209 35 35 14 sky130_fd_sc_hd__edfxtp_1
* cell instance $559 m0 *1 62.56,35.36
X$559 14 107 179 195 190 35 35 14 sky130_fd_sc_hd__edfxtp_1
* cell instance $561 m0 *1 74.52,35.36
X$561 14 93 222 178 211 179 196 153 35 35 14 sky130_fd_sc_hd__mux4_1
* cell instance $563 m0 *1 84.64,35.36
X$563 35 197 128 180 35 14 14 sky130_fd_sc_hd__nand2_1
* cell instance $565 m0 *1 89.7,35.36
X$565 14 44 206 161 208 35 35 14 sky130_fd_sc_hd__edfxtp_1
* cell instance $567 m0 *1 101.2,35.36
X$567 14 207 199 198 20 35 35 14 sky130_fd_sc_hd__mux2_1
* cell instance $569 m0 *1 106.26,35.36
X$569 14 130 170 181 131 165 35 35 14 sky130_fd_sc_hd__a22oi_2
* cell instance $572 m0 *1 112.24,35.36
X$572 14 182 161 180 35 35 14 sky130_fd_sc_hd__dfxtp_1
* cell instance $573 m0 *1 119.6,35.36
X$573 35 182 183 14 35 14 sky130_fd_sc_hd__clkbuf_1
* cell instance $577 r0 *1 10.58,35.36
X$577 14 193 192 169 113 35 35 14 sky130_fd_sc_hd__mux2_1
* cell instance $584 r0 *1 17.02,35.36
X$584 35 192 14 132 35 14 sky130_fd_sc_hd__clkbuf_4
* cell instance $585 r0 *1 19.78,35.36
X$585 14 141 175 35 35 14 sky130_fd_sc_hd__clkbuf_16
* cell instance $588 r0 *1 33.12,35.36
X$588 14 141 177 35 35 14 sky130_fd_sc_hd__clkbuf_16
* cell instance $593 r0 *1 43.24,35.36
X$593 14 186 163 152 66 35 35 14 sky130_fd_sc_hd__mux2_1
* cell instance $595 r0 *1 49.22,35.36
X$595 14 77 223 188 189 194 187 95 35 35 14 sky130_fd_sc_hd__mux4_1
* cell instance $597 r0 *1 59.34,35.36
X$597 14 44 196 195 210 35 35 14 sky130_fd_sc_hd__edfxtp_1
* cell instance $603 r0 *1 73.14,35.36
X$603 14 191 173 163 20 35 35 14 sky130_fd_sc_hd__mux2_1
* cell instance $605 r0 *1 79.12,35.36
X$605 14 21 219 178 211 179 196 22 35 35 14 sky130_fd_sc_hd__mux4_1
* cell instance $608 r0 *1 92.92,35.36
X$608 35 161 574 14 35 14 sky130_fd_sc_hd__clkbuf_1
* cell instance $614 r0 *1 99.36,35.36
X$614 14 46 217 161 207 35 35 14 sky130_fd_sc_hd__edfxtp_1
* cell instance $615 r0 *1 110.4,35.36
X$615 35 201 200 204 35 14 14 sky130_fd_sc_hd__nand2_1
* cell instance $617 r0 *1 112.24,35.36
X$617 14 202 161 204 35 35 14 sky130_fd_sc_hd__dfxtp_1
* cell instance $618 r0 *1 119.6,35.36
X$618 35 202 203 14 35 14 sky130_fd_sc_hd__clkbuf_1
* cell instance $627 m0 *1 13.34,40.8
X$627 14 42 184 175 214 35 35 14 sky130_fd_sc_hd__edfxtp_1
* cell instance $629 m0 *1 24.84,40.8
X$629 14 216 199 198 30 35 35 14 sky130_fd_sc_hd__mux2_1
* cell instance $634 m0 *1 34.5,40.8
X$634 14 80 194 177 220 35 35 14 sky130_fd_sc_hd__edfxtp_1
* cell instance $637 m0 *1 46.92,40.8
X$637 14 86 212 188 189 194 187 99 35 35 14 sky130_fd_sc_hd__mux4_1
* cell instance $640 m0 *1 58.88,40.8
X$640 35 28 35 14 115 14 sky130_fd_sc_hd__buf_4
* cell instance $642 m0 *1 62.56,40.8
X$642 14 210 173 163 31 35 35 14 sky130_fd_sc_hd__mux2_1
* cell instance $644 m0 *1 68.54,40.8
X$644 14 32 211 195 224 35 35 14 sky130_fd_sc_hd__edfxtp_1
* cell instance $645 m0 *1 79.58,40.8
X$645 14 130 223 229 131 222 35 35 14 sky130_fd_sc_hd__a22oi_2
* cell instance $647 m0 *1 84.64,40.8
X$647 35 195 35 14 14 sky130_fd_sc_hd__clkinvlp_4
* cell instance $650 m0 *1 88.78,40.8
X$650 14 107 218 161 221 35 35 14 sky130_fd_sc_hd__edfxtp_1
* cell instance $651 m0 *1 99.82,40.8
X$651 14 141 161 35 35 14 sky130_fd_sc_hd__clkbuf_16
* cell instance $655 m0 *1 112.24,40.8
X$655 14 215 199 198 39 35 35 14 sky130_fd_sc_hd__mux2_1
* cell instance $657 m0 *1 118.22,40.8
X$657 35 213 14 199 35 14 sky130_fd_sc_hd__clkbuf_4
* cell instance $660 r0 *1 4.14,40.8
X$660 14 80 176 175 228 35 35 14 sky130_fd_sc_hd__edfxtp_1
* cell instance $663 r0 *1 15.64,40.8
X$663 14 214 198 225 66 35 35 14 sky130_fd_sc_hd__mux2_1
* cell instance $664 r0 *1 19.78,40.8
X$664 35 175 35 14 14 sky130_fd_sc_hd__clkinv_2
* cell instance $666 r0 *1 22.08,40.8
X$666 14 16 172 175 216 35 35 14 sky130_fd_sc_hd__edfxtp_1
* cell instance $667 r0 *1 33.12,40.8
X$667 14 177 573 35 35 14 sky130_fd_sc_hd__clkbuf_16
* cell instance $674 r0 *1 46.46,40.8
X$674 35 231 230 232 14 35 14 sky130_fd_sc_hd__nand2b_1
* cell instance $676 r0 *1 49.22,40.8
X$676 35 232 35 14 30 14 sky130_fd_sc_hd__buf_4
* cell instance $679 r0 *1 57.5,40.8
X$679 35 28 226 248 14 35 14 sky130_fd_sc_hd__nand2b_1
* cell instance $687 r0 *1 70.84,40.8
X$687 14 224 173 163 39 35 35 14 sky130_fd_sc_hd__mux2_1
* cell instance $690 r0 *1 79.12,40.8
X$690 14 141 195 35 35 14 sky130_fd_sc_hd__clkbuf_16
* cell instance $691 r0 *1 88.32,40.8
X$691 14 88 212 247 89 219 35 35 14 sky130_fd_sc_hd__a22oi_2
* cell instance $692 r0 *1 92.92,40.8
X$692 14 208 199 198 31 35 35 14 sky130_fd_sc_hd__mux2_1
* cell instance $697 r0 *1 100.28,40.8
X$697 14 21 243 217 239 218 206 22 35 35 14 sky130_fd_sc_hd__mux4_1
* cell instance $698 r0 *1 109.94,40.8
X$698 14 32 239 161 215 35 35 14 sky130_fd_sc_hd__edfxtp_1
* cell instance $710 m0 *1 6.44,46.24
X$710 14 106 168 175 242 35 35 14 sky130_fd_sc_hd__edfxtp_1
* cell instance $713 m0 *1 19.78,46.24
X$713 14 168 172 233 86 176 99 184 35 35 14 sky130_fd_sc_hd__mux4_4
* cell instance $719 m0 *1 36.34,46.24
X$719 14 42 246 177 244 35 35 14 sky130_fd_sc_hd__edfxtp_1
* cell instance $720 m0 *1 47.38,46.24
X$720 14 226 245 115 231 35 35 14 sky130_fd_sc_hd__and3_1
* cell instance $722 m0 *1 50.14,46.24
X$722 14 259 238 227 30 35 35 14 sky130_fd_sc_hd__mux2_1
* cell instance $723 m0 *1 54.28,46.24
X$723 35 231 234 235 14 35 14 sky130_fd_sc_hd__nand2b_1
* cell instance $727 m0 *1 58.42,46.24
X$727 35 248 35 14 234 14 sky130_fd_sc_hd__buf_4
* cell instance $728 m0 *1 61.18,46.24
X$728 35 235 35 14 31 14 sky130_fd_sc_hd__buf_4
* cell instance $731 m0 *1 65.32,46.24
X$731 14 237 39 236 32 35 35 14 sky130_fd_sc_hd__o21ai_4
* cell instance $733 m0 *1 72.22,46.24
X$733 14 250 249 251 39 35 35 14 sky130_fd_sc_hd__mux2_1
* cell instance $739 m0 *1 88.32,46.24
X$739 14 221 198 225 138 35 35 14 sky130_fd_sc_hd__mux2_1
* cell instance $744 m0 *1 102.12,46.24
X$744 14 93 240 217 239 218 206 153 35 35 14 sky130_fd_sc_hd__mux4_1
* cell instance $746 m0 *1 112.24,46.24
X$746 14 130 171 241 131 240 35 35 14 sky130_fd_sc_hd__a22oi_2
* cell instance $751 r0 *1 3.68,46.24
X$751 14 228 252 225 98 35 35 14 sky130_fd_sc_hd__mux2_1
* cell instance $755 r0 *1 11.04,46.24
X$755 14 242 252 225 113 35 35 14 sky130_fd_sc_hd__mux2_1
* cell instance $760 r0 *1 17.94,46.24
X$760 35 252 14 198 35 14 sky130_fd_sc_hd__clkbuf_4
* cell instance $767 r0 *1 38.18,46.24
X$767 14 244 227 258 66 35 35 14 sky130_fd_sc_hd__mux2_1
* cell instance $771 r0 *1 43.24,46.24
X$771 35 245 14 113 35 14 sky130_fd_sc_hd__clkbuf_4
* cell instance $772 r0 *1 46,46.24
X$772 14 16 279 177 259 35 35 14 sky130_fd_sc_hd__edfxtp_1
* cell instance $773 r0 *1 57.04,46.24
X$773 14 253 138 234 35 35 14 sky130_fd_sc_hd__nor2_4
* cell instance $774 r0 *1 61.18,46.24
X$774 14 261 251 260 138 35 35 14 sky130_fd_sc_hd__mux2_1
* cell instance $776 r0 *1 65.78,46.24
X$776 35 254 253 316 14 35 14 sky130_fd_sc_hd__nand2b_1
* cell instance $781 r0 *1 70.84,46.24
X$781 14 32 262 195 250 35 35 14 sky130_fd_sc_hd__edfxtp_1
* cell instance $782 r0 *1 81.88,46.24
X$782 14 44 276 195 255 35 35 14 sky130_fd_sc_hd__edfxtp_1
* cell instance $783 r0 *1 92.92,46.24
X$783 14 302 238 227 31 35 35 14 sky130_fd_sc_hd__mux2_1
* cell instance $791 r0 *1 105.34,46.24
X$791 14 88 233 256 89 243 35 35 14 sky130_fd_sc_hd__a22oi_2
* cell instance $792 r0 *1 109.94,46.24
X$792 14 32 268 161 257 35 35 14 sky130_fd_sc_hd__edfxtp_1
* cell instance $802 m0 *1 2.3,51.68
X$802 14 80 269 175 267 35 35 14 sky130_fd_sc_hd__edfxtp_1
* cell instance $803 m0 *1 13.34,51.68
X$803 14 42 271 175 263 35 35 14 sky130_fd_sc_hd__edfxtp_1
* cell instance $804 m0 *1 24.38,51.68
X$804 14 263 251 260 66 35 35 14 sky130_fd_sc_hd__mux2_1
* cell instance $807 m0 *1 29.44,51.68
X$807 14 272 249 251 30 35 35 14 sky130_fd_sc_hd__mux2_1
* cell instance $808 m0 *1 33.58,51.68
X$808 14 274 275 258 113 35 35 14 sky130_fd_sc_hd__mux2_1
* cell instance $809 m0 *1 37.72,51.68
X$809 14 253 66 230 35 35 14 sky130_fd_sc_hd__nor2_4
* cell instance $810 m0 *1 41.86,51.68
X$810 14 307 264 230 253 42 35 35 14 sky130_fd_sc_hd__o22ai_4
* cell instance $812 m0 *1 49.68,51.68
X$812 14 236 30 264 16 35 35 14 sky130_fd_sc_hd__o21ai_4
* cell instance $815 m0 *1 57.04,51.68
X$815 14 265 31 237 44 35 35 14 sky130_fd_sc_hd__o21ai_4
* cell instance $817 m0 *1 63.94,51.68
X$817 14 107 278 195 261 35 35 14 sky130_fd_sc_hd__edfxtp_1
* cell instance $818 m0 *1 74.98,51.68
X$818 14 255 249 251 31 35 35 14 sky130_fd_sc_hd__mux2_1
* cell instance $825 m0 *1 86.02,51.68
X$825 35 304 14 130 35 14 sky130_fd_sc_hd__clkbuf_4
* cell instance $827 m0 *1 90.62,51.68
X$827 14 107 270 161 277 35 35 14 sky130_fd_sc_hd__edfxtp_1
* cell instance $828 m0 *1 101.66,51.68
X$828 14 273 238 227 20 35 35 14 sky130_fd_sc_hd__mux2_1
* cell instance $833 m0 *1 112.24,51.68
X$833 14 257 238 227 39 35 35 14 sky130_fd_sc_hd__mux2_1
* cell instance $835 m0 *1 118.22,51.68
X$835 35 266 14 238 35 14 sky130_fd_sc_hd__clkbuf_4
* cell instance $838 r0 *1 5.98,51.68
X$838 14 267 280 260 98 35 35 14 sky130_fd_sc_hd__mux2_1
* cell instance $839 r0 *1 10.12,51.68
X$839 14 298 280 260 113 35 35 14 sky130_fd_sc_hd__mux2_1
* cell instance $845 r0 *1 19.78,51.68
X$845 14 16 291 177 272 35 35 14 sky130_fd_sc_hd__edfxtp_1
* cell instance $847 r0 *1 31.28,51.68
X$847 14 106 288 177 274 35 35 14 sky130_fd_sc_hd__edfxtp_1
* cell instance $852 r0 *1 43.7,51.68
X$852 35 226 115 334 14 35 14 sky130_fd_sc_hd__nand2b_1
* cell instance $854 r0 *1 46.46,51.68
X$854 14 288 279 299 86 281 99 246 35 35 14 sky130_fd_sc_hd__mux4_2
* cell instance $856 r0 *1 55.2,51.68
X$856 14 237 289 234 253 107 35 35 14 sky130_fd_sc_hd__o22ai_4
* cell instance $857 r0 *1 62.56,51.68
X$857 14 254 231 35 39 35 14 sky130_fd_sc_hd__nand2_8
* cell instance $861 r0 *1 70.84,51.68
X$861 14 282 249 251 20 35 35 14 sky130_fd_sc_hd__mux2_1
* cell instance $863 r0 *1 75.44,51.68
X$863 14 46 283 195 282 35 35 14 sky130_fd_sc_hd__edfxtp_1
* cell instance $864 r0 *1 86.48,51.68
X$864 14 284 295 283 262 278 276 287 35 35 14 sky130_fd_sc_hd__mux4_1
* cell instance $869 r0 *1 99.36,51.68
X$869 14 46 285 161 273 35 35 14 sky130_fd_sc_hd__edfxtp_1
* cell instance $870 r0 *1 110.4,51.68
X$870 14 284 297 285 268 270 286 287 35 35 14 sky130_fd_sc_hd__mux4_1
* cell instance $883 m0 *1 6.44,57.12
X$883 14 106 312 175 298 35 35 14 sky130_fd_sc_hd__edfxtp_1
* cell instance $887 m0 *1 20.7,57.12
X$887 14 312 291 303 301 269 290 271 35 35 14 sky130_fd_sc_hd__mux4_2
* cell instance $891 m0 *1 34.04,57.12
X$891 14 292 98 253 35 35 14 sky130_fd_sc_hd__nor2_4
* cell instance $892 m0 *1 38.18,57.12
X$892 14 113 106 265 264 35 35 14 sky130_fd_sc_hd__o21bai_4
* cell instance $895 m0 *1 46.46,57.12
X$895 14 288 279 300 301 281 290 246 35 35 14 sky130_fd_sc_hd__mux4_2
* cell instance $898 m0 *1 57.04,57.12
X$898 14 27 294 253 25 35 35 14 sky130_fd_sc_hd__nand3b_4
* cell instance $899 m0 *1 64.4,57.12
X$899 14 27 294 231 25 35 35 14 sky130_fd_sc_hd__nor3b_4
* cell instance $900 m0 *1 71.3,57.12
X$900 14 237 20 307 46 35 35 14 sky130_fd_sc_hd__o21ai_4
* cell instance $901 m0 *1 77.28,57.12
X$901 35 254 306 318 14 35 14 sky130_fd_sc_hd__nand2b_1
* cell instance $902 m0 *1 79.58,57.12
X$902 14 88 293 305 295 89 35 35 14 sky130_fd_sc_hd__a22oi_2
* cell instance $904 m0 *1 84.64,57.12
X$904 35 294 226 304 14 35 14 sky130_fd_sc_hd__nor2b_1
* cell instance $905 m0 *1 86.94,57.12
X$905 14 130 303 310 317 131 35 35 14 sky130_fd_sc_hd__a22oi_2
* cell instance $906 m0 *1 91.54,57.12
X$906 14 44 286 161 302 35 35 14 sky130_fd_sc_hd__edfxtp_1
* cell instance $907 m0 *1 102.58,57.12
X$907 35 22 14 287 35 14 sky130_fd_sc_hd__clkbuf_4
* cell instance $909 m0 *1 105.8,57.12
X$909 14 130 300 313 131 314 35 35 14 sky130_fd_sc_hd__a22oi_2
* cell instance $913 m0 *1 112.24,57.12
X$913 14 88 299 513 89 297 35 35 14 sky130_fd_sc_hd__a22oi_2
* cell instance $916 m0 *1 118.22,57.12
X$916 35 311 14 308 35 14 sky130_fd_sc_hd__clkbuf_4
* cell instance $928 r0 *1 20.24,57.12
X$928 14 312 291 293 86 269 99 271 35 35 14 sky130_fd_sc_hd__mux4_2
* cell instance $932 r0 *1 31.74,57.12
X$932 14 80 281 177 315 35 35 14 sky130_fd_sc_hd__edfxtp_1
* cell instance $937 r0 *1 43.24,57.12
X$937 14 253 292 289 264 80 35 35 14 sky130_fd_sc_hd__o22ai_4
* cell instance $939 r0 *1 51.06,57.12
X$939 14 21 347 35 35 14 sky130_fd_sc_hd__buf_6
* cell instance $941 r0 *1 57.04,57.12
X$941 14 294 27 320 25 35 35 14 sky130_fd_sc_hd__nand3b_4
* cell instance $942 r0 *1 64.4,57.12
X$942 14 14 254 35 115 226 35 sky130_fd_sc_hd__nor2_2
* cell instance $944 r0 *1 67.62,57.12
X$944 35 316 35 14 20 14 sky130_fd_sc_hd__buf_4
* cell instance $949 r0 *1 70.84,57.12
X$949 14 328 237 309 308 35 35 14 sky130_fd_sc_hd__or3b_4
* cell instance $951 r0 *1 75.44,57.12
X$951 14 294 131 226 35 35 14 sky130_fd_sc_hd__nor2_4
* cell instance $952 r0 *1 79.58,57.12
X$952 14 77 317 283 262 278 276 95 35 35 14 sky130_fd_sc_hd__mux4_1
* cell instance $954 r0 *1 90.16,57.12
X$954 14 277 227 258 138 35 35 14 sky130_fd_sc_hd__mux2_1
* cell instance $961 r0 *1 98.9,57.12
X$961 35 21 35 14 284 14 sky130_fd_sc_hd__buf_4
* cell instance $963 r0 *1 102.58,57.12
X$963 14 93 314 285 268 270 286 153 35 35 14 sky130_fd_sc_hd__mux4_1
* cell instance $965 r0 *1 112.7,57.12
X$965 14 308 89 309 35 35 14 sky130_fd_sc_hd__nor2_4
* cell instance $967 r0 *1 117.76,57.12
X$967 35 322 35 14 294 14 sky130_fd_sc_hd__buf_4
* cell instance $971 m0 *1 8.74,62.56
X$971 14 337 139 54 384 35 35 14 sky130_fd_sc_hd__mux2_1
* cell instance $974 m0 *1 14.26,62.56
X$974 35 324 14 328 35 14 sky130_fd_sc_hd__clkbuf_4
* cell instance $976 m0 *1 17.94,62.56
X$976 14 327 319 326 325 35 35 14 sky130_fd_sc_hd__edfxtp_1
* cell instance $979 m0 *1 33.12,62.56
X$979 14 315 275 258 98 35 35 14 sky130_fd_sc_hd__mux2_1
* cell instance $980 m0 *1 37.26,62.56
X$980 14 320 344 292 35 35 14 sky130_fd_sc_hd__nor2_4
* cell instance $981 m0 *1 41.4,62.56
X$981 14 226 115 35 292 35 14 sky130_fd_sc_hd__nand2_8
* cell instance $982 m0 *1 48.76,62.56
X$982 14 328 308 264 309 35 35 14 sky130_fd_sc_hd__nand3b_4
* cell instance $986 m0 *1 57.96,62.56
X$986 14 331 141 35 35 14 sky130_fd_sc_hd__clkbuf_16
* cell instance $987 m0 *1 67.16,62.56
X$987 14 294 27 25 35 306 35 14 sky130_fd_sc_hd__nand3_4
* cell instance $988 m0 *1 73.6,62.56
X$988 14 27 301 35 35 14 sky130_fd_sc_hd__buf_6
* cell instance $989 m0 *1 77.74,62.56
X$989 35 318 35 14 321 14 sky130_fd_sc_hd__buf_4
* cell instance $992 m0 *1 81.88,62.56
X$992 35 226 294 330 14 35 14 sky130_fd_sc_hd__nor2b_1
* cell instance $994 m0 *1 84.64,62.56
X$994 35 226 294 341 35 14 14 sky130_fd_sc_hd__and2_0
* cell instance $1001 m0 *1 104.42,62.56
X$1001 35 308 309 329 14 35 14 sky130_fd_sc_hd__nor2b_1
* cell instance $1002 m0 *1 106.72,62.56
X$1002 35 329 14 88 35 14 sky130_fd_sc_hd__clkbuf_4
* cell instance $1007 m0 *1 112.7,62.56
X$1007 35 309 308 338 35 14 14 sky130_fd_sc_hd__and2_0
* cell instance $1009 m0 *1 115.46,62.56
X$1009 35 309 308 336 14 35 14 sky130_fd_sc_hd__nor2b_1
* cell instance $1011 m0 *1 118.22,62.56
X$1011 35 323 14 309 35 14 sky130_fd_sc_hd__clkbuf_4
* cell instance $1012 r0 *1 1.38,62.56
X$1012 35 345 35 14 226 14 sky130_fd_sc_hd__buf_4
* cell instance $1013 r0 *1 4.14,62.56
X$1013 14 339 332 326 337 35 35 14 sky130_fd_sc_hd__edfxtp_1
* cell instance $1019 r0 *1 19.32,62.56
X$1019 14 325 139 54 359 35 35 14 sky130_fd_sc_hd__mux2_1
* cell instance $1023 r0 *1 26.68,62.56
X$1023 14 340 342 343 86 332 333 319 35 35 14 sky130_fd_sc_hd__mux4_2
* cell instance $1024 r0 *1 34.96,62.56