
* cell parameterized_deserializer
* pin enable
* pin sync_detected
* pin load
* pin rx_busy
* pin rst_n
* pin PWELL
* pin NWELL
* pin clk
* pin parallel_out[7]
* pin parallel_out[6]
* pin rx_done
* pin parallel_out[5]
* pin parallel_out[4]
* pin parallel_out[3]
* pin parallel_out[2]
* pin parallel_out[0]
* pin parallel_out[1]
* pin serial_in
.SUBCKT parameterized_deserializer 1 2 3 4 5 7 10 39 60 67 81 95 112 124 142
+ 143 144 148
* net 1 enable
* net 2 sync_detected
* net 3 load
* net 4 rx_busy
* net 5 rst_n
* net 7 PWELL
* net 10 NWELL
* net 39 clk
* net 60 parallel_out[7]
* net 67 parallel_out[6]
* net 81 rx_done
* net 95 parallel_out[5]
* net 112 parallel_out[4]
* net 124 parallel_out[3]
* net 142 parallel_out[2]
* net 143 parallel_out[0]
* net 144 parallel_out[1]
* net 148 serial_in
* cell instance $3 m0 *1 14.25,4.2
X$3 1 10 9 7 BUF_X4
* cell instance $7 m0 *1 15.96,4.2
X$7 17 7 10 2 BUF_X1
* cell instance $14 r0 *1 18.05,1.4
X$14 3 7 10 23 BUF_X1
* cell instance $20 r0 *1 24.7,1.4
X$20 14 7 10 4 BUF_X1
* cell instance $30 r0 *1 24.13,1.4
X$30 5 7 10 6 BUF_X1
* cell instance $33 m0 *1 24.32,4.2
X$33 6 7 10 18 INV_X2
* cell instance $35 m0 *1 23.56,4.2
X$35 6 7 10 21 BUF_X2
* cell instance $36 m0 *1 15.58,18.2
X$36 80 76 79 7 10 86 OR3_X1
* cell instance $38 m0 *1 16.53,18.2
X$38 79 93 80 10 84 7 OAI21_X1
* cell instance $43 m0 *1 28.12,18.2
X$43 7 158 90 98 19 10 DFF_X1
* cell instance $58 r0 *1 18.81,18.2
X$58 7 166 82 100 88 10 DFF_X1
* cell instance $60 r0 *1 23.56,18.2
X$60 39 7 10 92 CLKBUF_X3
* cell instance $61 r0 *1 24.51,18.2
X$61 7 93 10 76 BUF_X8
* cell instance $62 r0 *1 26.98,18.2
X$62 90 93 89 72 7 10 101 AOI22_X1
* cell instance $63 r0 *1 27.93,18.2
X$63 101 49 7 10 98 NOR2_X1
* cell instance $67 r0 *1 29.83,18.2
X$67 89 42 91 7 10 96 MUX2_X1
* cell instance $68 r0 *1 31.16,18.2
X$68 7 164 91 97 88 10 DFF_X1
* cell instance $71 r0 *1 35.34,18.2
X$71 91 7 10 95 BUF_X1
* cell instance $76 m0 *1 12.92,23.8
X$76 7 161 103 102 88 10 DFF_X1
* cell instance $77 m0 *1 12.35,23.8
X$77 114 49 7 10 102 NOR2_X1
* cell instance $79 m0 *1 16.34,23.8
X$79 103 93 115 72 7 10 114 AOI22_X1
* cell instance $83 m0 *1 29.64,23.8
X$83 105 42 111 7 10 117 MUX2_X1
* cell instance $84 m0 *1 30.97,23.8
X$84 7 160 111 116 88 10 DFF_X1
* cell instance $85 m0 *1 34.2,23.8
X$85 111 7 10 112 BUF_X1
* cell instance $104 r0 *1 26.98,23.8
X$104 118 49 7 10 121 NOR2_X1
* cell instance $105 r0 *1 27.55,23.8
X$105 105 93 113 72 7 10 118 AOI22_X1
* cell instance $109 r0 *1 30.59,23.8
X$109 21 117 10 7 116 AND2_X1
* cell instance $114 m0 *1 19.76,35
X$114 140 7 10 144 BUF_X1
* cell instance $120 m0 *1 18.62,35
X$120 139 7 10 143 BUF_X1
* cell instance $149 m0 *1 11.4,7
X$149 7 31 41 45 19 10 DFF_X1
* cell instance $150 m0 *1 14.63,7
X$150 31 29 30 10 7 37 HA_X1
* cell instance $161 r0 *1 12.35,7
X$161 41 11 150 10 7 46 HA_X1
* cell instance $162 r0 *1 14.25,7
X$162 36 8 41 7 51 10 AOI21_X1
* cell instance $163 r0 *1 15.01,7
X$163 47 41 8 7 10 36 NOR3_X1
* cell instance $164 r0 *1 15.77,7
X$164 9 7 10 8 INV_X1
* cell instance $165 r0 *1 16.15,7
X$165 47 7 10 32 INV_X1
* cell instance $169 m0 *1 20.14,7
X$169 23 8 26 10 34 7 OAI21_X1
* cell instance $171 m0 *1 21.09,7
X$171 18 34 25 7 20 10 AOI21_X1
* cell instance $173 r0 *1 21.09,7
X$173 24 7 10 44 INV_X1
* cell instance $174 r0 *1 21.47,7
X$174 44 42 9 23 7 10 48 AOI22_X1
* cell instance $175 m0 *1 22.23,7
X$175 26 24 23 7 10 15 MUX2_X1
* cell instance $176 m0 *1 23.56,7
X$176 9 26 7 42 10 NAND2_X4
* cell instance $178 m0 *1 31.35,7
X$178 7 155 43 13 19 10 DFF_X1
* cell instance $181 r0 *1 22.42,7
X$181 18 48 7 10 40 OR2_X1
* cell instance $186 r0 *1 31.92,7
X$186 50 42 43 7 10 38 MUX2_X1
* cell instance $208 m0 *1 24.13,26.6
X$208 92 7 10 88 CLKBUF_X3
* cell instance $210 m0 *1 26.6,26.6
X$210 7 153 105 121 88 10 DFF_X1
* cell instance $221 r0 *1 18.05,26.6
X$221 7 168 125 119 88 10 DFF_X1
* cell instance $224 r0 *1 22.99,26.6
X$224 123 49 7 10 120 NOR2_X1
* cell instance $244 r0 *1 12.92,15.4
X$244 7 172 80 83 19 10 DFF_X1
* cell instance $246 r0 *1 16.34,15.4
X$246 87 86 84 7 83 10 AOI21_X1
* cell instance $249 m0 *1 17.86,15.4
X$249 7 72 10 71 BUF_X8
* cell instance $250 m0 *1 20.33,15.4
X$250 7 76 72 64 55 10 AOI21_X4
* cell instance $251 m0 *1 22.8,15.4
X$251 21 57 73 10 7 87 OAI21_X2
* cell instance $255 m0 *1 28.12,15.4
X$255 50 76 90 72 7 10 78 AOI22_X1
* cell instance $260 m0 *1 31.16,15.4
X$260 21 77 10 7 59 AND2_X1
* cell instance $262 m0 *1 31.92,15.4
X$262 90 42 66 7 10 77 MUX2_X1
* cell instance $268 r0 *1 34.01,15.4
X$268 74 7 10 81 BUF_X1
* cell instance $279 m0 *1 15.77,32.2
X$279 7 159 139 137 88 10 DFF_X1
* cell instance $288 r0 *1 16.53,32.2
X$288 148 7 10 138 BUF_X1
* cell instance $289 r0 *1 17.1,32.2
X$289 7 169 140 145 88 10 DFF_X1
* cell instance $290 m0 *1 19.57,32.2
X$290 21 134 10 7 137 AND2_X1
* cell instance $292 m0 *1 20.33,32.2
X$292 21 146 10 7 145 AND2_X1
* cell instance $297 m0 *1 25.46,32.2
X$297 126 42 147 7 10 135 MUX2_X1
* cell instance $299 m0 *1 26.79,32.2
X$299 7 162 147 136 88 10 DFF_X1
* cell instance $305 r0 *1 28.69,32.2
X$305 147 7 10 142 BUF_X1
* cell instance $308 m0 *1 32.68,32.2
X$308 7 154 128 141 88 10 DFF_X1
* cell instance $316 m0 *1 13.68,4.2
X$316 11 8 7 10 16 NAND2_X1
* cell instance $317 m0 *1 15.58,4.2
X$317 17 7 10 LOGIC0_X1
* cell instance $321 m0 *1 24.89,4.2
X$321 15 9 7 10 12 NAND2_X1
* cell instance $333 r0 *1 11.21,4.2
X$333 7 29 11 28 19 10 DFF_X1
* cell instance $334 r0 *1 14.44,4.2
X$334 18 22 16 7 28 10 AOI21_X1
* cell instance $335 r0 *1 15.2,4.2
X$335 32 30 9 7 10 22 NAND3_X1
* cell instance $338 r0 *1 18.24,4.2
X$338 7 165 24 40 19 10 DFF_X1
* cell instance $339 r0 *1 21.47,4.2
X$339 7 20 19 35 26 10 DFF_X2
* cell instance $340 r0 *1 25.08,4.2
X$340 35 12 14 7 10 27 MUX2_X1
* cell instance $341 r0 *1 26.41,4.2
X$341 21 27 10 7 33 AND2_X1
* cell instance $343 r0 *1 27.93,4.2
X$343 7 173 14 33 19 10 DFF_X1
* cell instance $346 r0 *1 32.3,4.2
X$346 21 38 10 7 13 AND2_X1
* cell instance $355 m0 *1 14.44,21
X$355 108 87 7 10 107 NOR2_X1
* cell instance $356 m0 *1 15.01,21
X$356 104 76 7 10 108 XOR2_X1
* cell instance $357 m0 *1 16.15,21
X$357 103 104 82 7 10 79 NAND3_X1
* cell instance $359 m0 *1 17.67,21
X$359 85 7 10 94 INV_X1
* cell instance $361 m0 *1 18.81,21
X$361 93 94 82 10 99 7 OAI21_X1
* cell instance $362 m0 *1 19.57,21
X$362 82 94 76 7 10 109 OR3_X1
* cell instance $363 m0 *1 20.52,21
X$363 87 109 99 7 100 10 AOI21_X1
* cell instance $376 r0 *1 12.16,21
X$376 7 170 104 107 88 10 DFF_X1
* cell instance $378 r0 *1 15.77,21
X$378 104 103 115 10 7 85 HA_X1
* cell instance $383 m0 *1 26.98,21
X$383 7 152 89 110 88 10 DFF_X1
* cell instance $386 r0 *1 27.36,21
X$386 89 93 105 72 7 10 106 AOI22_X1
* cell instance $387 r0 *1 28.31,21
X$387 106 49 7 10 110 NOR2_X1
* cell instance $390 m0 *1 31.35,21
X$390 21 96 10 7 97 AND2_X1
* cell instance $407 r0 *1 11.4,12.6
X$407 7 63 53 68 19 10 DFF_X1
* cell instance $408 m0 *1 13.87,12.6
X$408 53 8 7 10 69 NAND2_X1
* cell instance $409 m0 *1 13.11,12.6
X$409 18 69 52 7 68 10 AOI21_X1
* cell instance $413 m0 *1 16.91,12.6
X$413 8 80 70 7 10 54 OR3_X1
* cell instance $415 m0 *1 20.9,12.6
X$415 64 54 7 10 25 OR2_X1
* cell instance $416 m0 *1 21.66,12.6
X$416 23 55 73 54 7 10 56 AOI22_X1
* cell instance $417 m0 *1 22.61,12.6
X$417 56 49 7 10 75 NOR2_X1
* cell instance $421 r0 *1 16.53,12.6
X$421 37 85 82 63 7 10 70 NAND4_X1
* cell instance $422 r0 *1 17.48,12.6
X$422 9 73 63 37 10 7 71 AND4_X1
* cell instance $425 r0 *1 20.9,12.6
X$425 73 7 10 64 INV_X1
* cell instance $427 r0 *1 22.04,12.6
X$427 7 163 73 75 19 10 DFF_X1
* cell instance $428 m0 *1 23.75,12.6
X$428 19 7 10 149 INV_X1
* cell instance $434 r0 *1 25.27,12.6
X$434 92 7 10 19 CLKBUF_X3
* cell instance $438 r0 *1 29.83,12.6
X$438 57 74 7 10 58 NAND2_X1
* cell instance $440 m0 *1 29.83,12.6
X$440 18 58 42 7 65 10 AOI21_X1
* cell instance $441 m0 *1 31.35,12.6
X$441 7 151 66 59 19 10 DFF_X1
* cell instance $443 m0 *1 35.34,12.6
X$443 66 7 10 67 BUF_X1
* cell instance $446 r0 *1 30.59,12.6
X$446 7 174 74 65 19 10 DFF_X1
* cell instance $469 r0 *1 15.58,29.4
X$469 7 171 131 130 88 10 DFF_X1
* cell instance $470 m0 *1 16.34,29.4
X$470 127 49 7 10 130 NOR2_X1
* cell instance $472 m0 *1 16.91,29.4
X$472 131 93 138 72 7 10 127 AOI22_X1
* cell instance $474 m0 *1 18.62,29.4
X$474 125 93 131 72 7 10 122 AOI22_X1
* cell instance $475 m0 *1 19.57,29.4
X$475 122 49 7 10 119 NOR2_X1
* cell instance $478 r0 *1 18.81,29.4
X$478 131 42 139 7 10 134 MUX2_X1
* cell instance $479 r0 *1 20.14,29.4
X$479 125 42 140 7 10 146 MUX2_X1
* cell instance $481 m0 *1 22.99,29.4
X$481 7 157 126 120 88 10 DFF_X1
* cell instance $482 m0 *1 22.04,29.4
X$482 126 93 125 72 7 10 123 AOI22_X1
* cell instance $488 r0 *1 26.6,29.4
X$488 21 135 10 7 136 AND2_X1
* cell instance $489 m0 *1 28.31,29.4
X$489 132 49 7 10 129 NOR2_X1
* cell instance $490 m0 *1 27.36,29.4
X$490 113 93 126 72 7 10 132 AOI22_X1
* cell instance $491 m0 *1 28.88,29.4
X$491 7 156 113 129 88 10 DFF_X1
* cell instance $492 m0 *1 32.11,29.4
X$492 113 42 128 7 10 133 MUX2_X1
* cell instance $499 r0 *1 32.87,29.4
X$499 21 133 10 7 141 AND2_X1
* cell instance $503 m0 *1 35.34,29.4
X$503 128 7 10 124 BUF_X1
* cell instance $515 m0 *1 12.92,9.8
X$515 53 46 61 10 7 47 HA_X1
* cell instance $516 m0 *1 12.35,9.8
X$516 51 49 7 10 45 NOR2_X1
* cell instance $522 r0 *1 13.11,9.8
X$522 61 9 7 10 52 NAND2_X1
* cell instance $526 r0 *1 20.9,9.8
X$526 9 24 10 7 55 AND2_X1
* cell instance $529 r0 *1 23.56,9.8
X$529 24 9 7 10 57 NAND2_X1
* cell instance $532 m0 *1 25.08,9.8
X$532 18 7 10 49 CLKBUF_X3
* cell instance $537 r0 *1 28.69,9.8
X$537 78 18 7 10 62 NOR2_X1
* cell instance $538 r0 *1 29.26,9.8
X$538 7 167 50 62 19 10 DFF_X1
* cell instance $541 r0 *1 34.39,9.8
X$541 43 7 10 60 BUF_X1
.ENDS parameterized_deserializer

* cell DFF_X2
* pin PWELL,VSS
* pin D
* pin CK
* pin QN
* pin Q
* pin NWELL,VDD
.SUBCKT DFF_X2 1 6 8 10 11 16
* net 1 PWELL,VSS
* net 6 D
* net 8 CK
* net 10 QN
* net 11 Q
* net 16 NWELL,VDD
* device instance $1 r0 *1 2.855,0.995 PMOS_VTL
M$1 10 9 16 16 PMOS_VTL L=0.05U W=1.26U AS=0.11025P AD=0.0882P PS=2.24U PD=1.54U
* device instance $3 r0 *1 3.235,0.995 PMOS_VTL
M$3 11 2 16 16 PMOS_VTL L=0.05U W=1.26U AS=0.0882P AD=0.11025P PS=1.54U PD=2.24U
* device instance $5 r0 *1 0.2,0.9275 PMOS_VTL
M$5 16 7 3 16 PMOS_VTL L=0.05U W=0.315U AS=0.033075P AD=0.014175P PS=0.84U
+ PD=0.455U
* device instance $6 r0 *1 0.39,1.04 PMOS_VTL
M$6 17 4 16 16 PMOS_VTL L=0.05U W=0.09U AS=0.014175P AD=0.0063P PS=0.455U
+ PD=0.23U
* device instance $7 r0 *1 0.58,1.04 PMOS_VTL
M$7 17 7 5 16 PMOS_VTL L=0.05U W=0.09U AS=0.01785P AD=0.0063P PS=0.56U PD=0.23U
* device instance $8 r0 *1 0.77,0.975 PMOS_VTL
M$8 18 3 5 16 PMOS_VTL L=0.05U W=0.42U AS=0.01785P AD=0.0294P PS=0.56U PD=0.56U
* device instance $9 r0 *1 0.96,0.975 PMOS_VTL
M$9 16 6 18 16 PMOS_VTL L=0.05U W=0.42U AS=0.0294P AD=0.025725P PS=0.56U
+ PD=0.56U
* device instance $10 r0 *1 1.15,1.0275 PMOS_VTL
M$10 4 5 16 16 PMOS_VTL L=0.05U W=0.315U AS=0.025725P AD=0.0567P PS=0.56U
+ PD=0.99U
* device instance $11 r0 *1 2.135,0.915 PMOS_VTL
M$11 20 3 9 16 PMOS_VTL L=0.05U W=0.09U AS=0.014175P AD=0.0063P PS=0.455U
+ PD=0.23U
* device instance $12 r0 *1 2.325,0.915 PMOS_VTL
M$12 20 2 16 16 PMOS_VTL L=0.05U W=0.09U AS=0.0252P AD=0.0063P PS=0.77U PD=0.23U
* device instance $13 r0 *1 1.565,1.0275 PMOS_VTL
M$13 16 8 7 16 PMOS_VTL L=0.05U W=0.315U AS=0.033075P AD=0.02205P PS=0.84U
+ PD=0.455U
* device instance $14 r0 *1 1.755,1.0275 PMOS_VTL
M$14 19 5 16 16 PMOS_VTL L=0.05U W=0.315U AS=0.02205P AD=0.02205P PS=0.455U
+ PD=0.455U
* device instance $15 r0 *1 1.945,1.0275 PMOS_VTL
M$15 9 7 19 16 PMOS_VTL L=0.05U W=0.315U AS=0.02205P AD=0.014175P PS=0.455U
+ PD=0.455U
* device instance $16 r0 *1 2.515,0.995 PMOS_VTL
M$16 2 9 16 16 PMOS_VTL L=0.05U W=0.63U AS=0.0252P AD=0.06615P PS=0.77U PD=1.47U
* device instance $17 r0 *1 2.855,0.2975 NMOS_VTL
M$17 10 9 1 1 NMOS_VTL L=0.05U W=0.83U AS=0.072625P AD=0.0581P PS=1.595U
+ PD=1.11U
* device instance $19 r0 *1 3.235,0.2975 NMOS_VTL
M$19 11 2 1 1 NMOS_VTL L=0.05U W=0.83U AS=0.0581P AD=0.072625P PS=1.11U
+ PD=1.595U
* device instance $21 r0 *1 0.39,0.31 NMOS_VTL
M$21 12 4 1 1 NMOS_VTL L=0.05U W=0.09U AS=0.0105P AD=0.0063P PS=0.35U PD=0.23U
* device instance $22 r0 *1 0.58,0.31 NMOS_VTL
M$22 12 3 5 1 NMOS_VTL L=0.05U W=0.09U AS=0.012775P AD=0.0063P PS=0.415U
+ PD=0.23U
* device instance $23 r0 *1 1.15,0.25 NMOS_VTL
M$23 4 5 1 1 NMOS_VTL L=0.05U W=0.21U AS=0.016975P AD=0.02205P PS=0.415U
+ PD=0.63U
* device instance $24 r0 *1 0.77,0.2825 NMOS_VTL
M$24 13 7 5 1 NMOS_VTL L=0.05U W=0.275U AS=0.012775P AD=0.01925P PS=0.415U
+ PD=0.415U
* device instance $25 r0 *1 0.96,0.2825 NMOS_VTL
M$25 1 6 13 1 NMOS_VTL L=0.05U W=0.275U AS=0.01925P AD=0.016975P PS=0.415U
+ PD=0.415U
* device instance $26 r0 *1 0.2,0.37 NMOS_VTL
M$26 1 7 3 1 NMOS_VTL L=0.05U W=0.21U AS=0.02205P AD=0.0105P PS=0.63U PD=0.35U
* device instance $27 r0 *1 1.565,0.35 NMOS_VTL
M$27 1 8 7 1 NMOS_VTL L=0.05U W=0.21U AS=0.02205P AD=0.0147P PS=0.63U PD=0.35U
* device instance $28 r0 *1 1.755,0.35 NMOS_VTL
M$28 14 5 1 1 NMOS_VTL L=0.05U W=0.21U AS=0.0147P AD=0.0147P PS=0.35U PD=0.35U
* device instance $29 r0 *1 1.945,0.35 NMOS_VTL
M$29 9 3 14 1 NMOS_VTL L=0.05U W=0.21U AS=0.0147P AD=0.0105P PS=0.35U PD=0.35U
* device instance $30 r0 *1 2.135,0.41 NMOS_VTL
M$30 15 7 9 1 NMOS_VTL L=0.05U W=0.09U AS=0.0105P AD=0.0063P PS=0.35U PD=0.23U
* device instance $31 r0 *1 2.325,0.41 NMOS_VTL
M$31 15 2 1 1 NMOS_VTL L=0.05U W=0.09U AS=0.017675P AD=0.0063P PS=0.555U
+ PD=0.23U
* device instance $32 r0 *1 2.515,0.2975 NMOS_VTL
M$32 2 9 1 1 NMOS_VTL L=0.05U W=0.415U AS=0.017675P AD=0.043575P PS=0.555U
+ PD=1.04U
.ENDS DFF_X2

* cell NAND2_X4
* pin A2
* pin A1
* pin PWELL,VSS
* pin ZN
* pin NWELL,VDD
.SUBCKT NAND2_X4 1 2 4 5 6
* net 1 A2
* net 2 A1
* net 4 PWELL,VSS
* net 5 ZN
* net 6 NWELL,VDD
* device instance $1 r0 *1 0.21,0.995 PMOS_VTL
M$1 5 1 6 6 PMOS_VTL L=0.05U W=2.52U AS=0.19845P AD=0.1764P PS=3.78U PD=3.08U
* device instance $5 r0 *1 0.97,0.995 PMOS_VTL
M$5 5 2 6 6 PMOS_VTL L=0.05U W=2.52U AS=0.1764P AD=0.19845P PS=3.08U PD=3.78U
* device instance $9 r0 *1 0.21,0.2975 NMOS_VTL
M$9 4 1 3 4 NMOS_VTL L=0.05U W=1.66U AS=0.130725P AD=0.1162P PS=2.705U PD=2.22U
* device instance $13 r0 *1 0.97,0.2975 NMOS_VTL
M$13 5 2 3 4 NMOS_VTL L=0.05U W=1.66U AS=0.1162P AD=0.130725P PS=2.22U PD=2.705U
.ENDS NAND2_X4

* cell INV_X2
* pin A
* pin PWELL,VSS
* pin NWELL,VDD
* pin ZN
.SUBCKT INV_X2 1 2 3 4
* net 1 A
* net 2 PWELL,VSS
* net 3 NWELL,VDD
* net 4 ZN
* device instance $1 r0 *1 0.185,0.995 PMOS_VTL
M$1 4 1 3 3 PMOS_VTL L=0.05U W=1.26U AS=0.11025P AD=0.11025P PS=2.24U PD=2.24U
* device instance $3 r0 *1 0.185,0.2975 NMOS_VTL
M$3 4 1 2 2 NMOS_VTL L=0.05U W=0.83U AS=0.072625P AD=0.072625P PS=1.595U
+ PD=1.595U
.ENDS INV_X2

* cell BUF_X2
* pin A
* pin PWELL,VSS
* pin NWELL,VDD
* pin Z
.SUBCKT BUF_X2 1 3 4 5
* net 1 A
* net 3 PWELL,VSS
* net 4 NWELL,VDD
* net 5 Z
* device instance $1 r0 *1 0.21,0.995 PMOS_VTL
M$1 4 1 2 4 PMOS_VTL L=0.05U W=0.63U AS=0.06615P AD=0.0441P PS=1.47U PD=0.77U
* device instance $2 r0 *1 0.4,0.995 PMOS_VTL
M$2 5 2 4 4 PMOS_VTL L=0.05U W=1.26U AS=0.0882P AD=0.11025P PS=1.54U PD=2.24U
* device instance $4 r0 *1 0.21,0.2975 NMOS_VTL
M$4 3 1 2 3 NMOS_VTL L=0.05U W=0.415U AS=0.043575P AD=0.02905P PS=1.04U
+ PD=0.555U
* device instance $5 r0 *1 0.4,0.2975 NMOS_VTL
M$5 5 2 3 3 NMOS_VTL L=0.05U W=0.83U AS=0.0581P AD=0.072625P PS=1.11U PD=1.595U
.ENDS BUF_X2

* cell OR2_X1
* pin A1
* pin A2
* pin PWELL,VSS
* pin NWELL,VDD
* pin ZN
.SUBCKT OR2_X1 1 2 3 5 6
* net 1 A1
* net 2 A2
* net 3 PWELL,VSS
* net 5 NWELL,VDD
* net 6 ZN
* device instance $1 r0 *1 0.17,1.1525 PMOS_VTL
M$1 7 1 4 5 PMOS_VTL L=0.05U W=0.315U AS=0.033075P AD=0.02205P PS=0.84U
+ PD=0.455U
* device instance $2 r0 *1 0.36,1.1525 PMOS_VTL
M$2 7 2 5 5 PMOS_VTL L=0.05U W=0.315U AS=0.033075P AD=0.02205P PS=0.77U
+ PD=0.455U
* device instance $3 r0 *1 0.55,0.995 PMOS_VTL
M$3 6 4 5 5 PMOS_VTL L=0.05U W=0.63U AS=0.033075P AD=0.06615P PS=0.77U PD=1.47U
* device instance $4 r0 *1 0.17,0.195 NMOS_VTL
M$4 4 1 3 3 NMOS_VTL L=0.05U W=0.21U AS=0.02205P AD=0.0147P PS=0.63U PD=0.35U
* device instance $5 r0 *1 0.36,0.195 NMOS_VTL
M$5 3 2 4 3 NMOS_VTL L=0.05U W=0.21U AS=0.0147P AD=0.021875P PS=0.35U PD=0.555U
* device instance $6 r0 *1 0.55,0.2975 NMOS_VTL
M$6 6 4 3 3 NMOS_VTL L=0.05U W=0.415U AS=0.021875P AD=0.043575P PS=0.555U
+ PD=1.04U
.ENDS OR2_X1

* cell AOI21_X4
* pin PWELL,VSS
* pin ZN
* pin A
* pin B2
* pin B1
* pin NWELL,VDD
.SUBCKT AOI21_X4 1 2 3 4 5 11
* net 1 PWELL,VSS
* net 2 ZN
* net 3 A
* net 4 B2
* net 5 B1
* net 11 NWELL,VDD
* device instance $1 r0 *1 0.185,0.995 PMOS_VTL
M$1 11 3 10 11 PMOS_VTL L=0.05U W=2.52U AS=0.19845P AD=0.1764P PS=3.78U PD=3.08U
* device instance $5 r0 *1 0.945,0.995 PMOS_VTL
M$5 2 4 10 11 PMOS_VTL L=0.05U W=2.52U AS=0.1764P AD=0.19845P PS=3.08U PD=3.78U
* device instance $6 r0 *1 1.135,0.995 PMOS_VTL
M$6 10 5 2 11 PMOS_VTL L=0.05U W=2.52U AS=0.1764P AD=0.1764P PS=3.08U PD=3.08U
* device instance $13 r0 *1 0.185,0.2975 NMOS_VTL
M$13 2 3 1 1 NMOS_VTL L=0.05U W=1.66U AS=0.130725P AD=0.1162P PS=2.705U PD=2.22U
* device instance $17 r0 *1 0.945,0.2975 NMOS_VTL
M$17 8 4 1 1 NMOS_VTL L=0.05U W=0.415U AS=0.02905P AD=0.02905P PS=0.555U
+ PD=0.555U
* device instance $18 r0 *1 1.135,0.2975 NMOS_VTL
M$18 2 5 8 1 NMOS_VTL L=0.05U W=0.415U AS=0.02905P AD=0.02905P PS=0.555U
+ PD=0.555U
* device instance $19 r0 *1 1.325,0.2975 NMOS_VTL
M$19 9 5 2 1 NMOS_VTL L=0.05U W=0.415U AS=0.02905P AD=0.02905P PS=0.555U
+ PD=0.555U
* device instance $20 r0 *1 1.515,0.2975 NMOS_VTL
M$20 1 4 9 1 NMOS_VTL L=0.05U W=0.415U AS=0.02905P AD=0.02905P PS=0.555U
+ PD=0.555U
* device instance $21 r0 *1 1.705,0.2975 NMOS_VTL
M$21 6 4 1 1 NMOS_VTL L=0.05U W=0.415U AS=0.02905P AD=0.02905P PS=0.555U
+ PD=0.555U
* device instance $22 r0 *1 1.895,0.2975 NMOS_VTL
M$22 2 5 6 1 NMOS_VTL L=0.05U W=0.415U AS=0.02905P AD=0.02905P PS=0.555U
+ PD=0.555U
* device instance $23 r0 *1 2.085,0.2975 NMOS_VTL
M$23 7 5 2 1 NMOS_VTL L=0.05U W=0.415U AS=0.02905P AD=0.02905P PS=0.555U
+ PD=0.555U
* device instance $24 r0 *1 2.275,0.2975 NMOS_VTL
M$24 1 4 7 1 NMOS_VTL L=0.05U W=0.415U AS=0.02905P AD=0.043575P PS=0.555U
+ PD=1.04U
.ENDS AOI21_X4

* cell OAI21_X2
* pin A
* pin B2
* pin B1
* pin NWELL,VDD
* pin PWELL,VSS
* pin ZN
.SUBCKT OAI21_X2 1 2 3 5 6 7
* net 1 A
* net 2 B2
* net 3 B1
* net 5 NWELL,VDD
* net 6 PWELL,VSS
* net 7 ZN
* device instance $1 r0 *1 0.17,0.995 PMOS_VTL
M$1 7 1 5 5 PMOS_VTL L=0.05U W=1.26U AS=0.11025P AD=0.0882P PS=2.24U PD=1.54U
* device instance $3 r0 *1 0.55,0.995 PMOS_VTL
M$3 8 2 5 5 PMOS_VTL L=0.05U W=0.63U AS=0.0441P AD=0.0441P PS=0.77U PD=0.77U
* device instance $4 r0 *1 0.74,0.995 PMOS_VTL
M$4 7 3 8 5 PMOS_VTL L=0.05U W=0.63U AS=0.0441P AD=0.0441P PS=0.77U PD=0.77U
* device instance $5 r0 *1 0.93,0.995 PMOS_VTL
M$5 9 3 7 5 PMOS_VTL L=0.05U W=0.63U AS=0.0441P AD=0.0441P PS=0.77U PD=0.77U
* device instance $6 r0 *1 1.12,0.995 PMOS_VTL
M$6 5 2 9 5 PMOS_VTL L=0.05U W=0.63U AS=0.0441P AD=0.06615P PS=0.77U PD=1.47U
* device instance $7 r0 *1 0.17,0.2975 NMOS_VTL
M$7 6 1 4 6 NMOS_VTL L=0.05U W=0.83U AS=0.072625P AD=0.0581P PS=1.595U PD=1.11U
* device instance $9 r0 *1 0.55,0.2975 NMOS_VTL
M$9 7 2 4 6 NMOS_VTL L=0.05U W=0.83U AS=0.0581P AD=0.072625P PS=1.11U PD=1.595U
* device instance $10 r0 *1 0.74,0.2975 NMOS_VTL
M$10 4 3 7 6 NMOS_VTL L=0.05U W=0.83U AS=0.0581P AD=0.0581P PS=1.11U PD=1.11U
.ENDS OAI21_X2

* cell LOGIC0_X1
* pin Z
* pin PWELL,VSS
* pin NWELL,VDD
.SUBCKT LOGIC0_X1 1 3 4
* net 1 Z
* net 3 PWELL,VSS
* net 4 NWELL,VDD
* device instance $1 r0 *1 0.185,1.19 PMOS_VTL
M$1 4 2 2 4 PMOS_VTL L=0.05U W=0.09U AS=0.00945P AD=0.00945P PS=0.39U PD=0.39U
* device instance $2 r0 *1 0.185,0.21 NMOS_VTL
M$2 3 2 1 3 NMOS_VTL L=0.05U W=0.09U AS=0.00945P AD=0.00945P PS=0.39U PD=0.39U
.ENDS LOGIC0_X1

* cell NAND4_X1
* pin A4
* pin A3
* pin A2
* pin A1
* pin PWELL,VSS
* pin NWELL,VDD
* pin ZN
.SUBCKT NAND4_X1 1 2 3 4 5 6 7
* net 1 A4
* net 2 A3
* net 3 A2
* net 4 A1
* net 5 PWELL,VSS
* net 6 NWELL,VDD
* net 7 ZN
* device instance $1 r0 *1 0.17,0.995 PMOS_VTL
M$1 7 1 6 6 PMOS_VTL L=0.05U W=0.63U AS=0.06615P AD=0.0441P PS=1.47U PD=0.77U
* device instance $2 r0 *1 0.36,0.995 PMOS_VTL
M$2 6 2 7 6 PMOS_VTL L=0.05U W=0.63U AS=0.0441P AD=0.0441P PS=0.77U PD=0.77U
* device instance $3 r0 *1 0.55,0.995 PMOS_VTL
M$3 7 3 6 6 PMOS_VTL L=0.05U W=0.63U AS=0.0441P AD=0.0441P PS=0.77U PD=0.77U
* device instance $4 r0 *1 0.74,0.995 PMOS_VTL
M$4 6 4 7 6 PMOS_VTL L=0.05U W=0.63U AS=0.0441P AD=0.06615P PS=0.77U PD=1.47U
* device instance $5 r0 *1 0.17,0.2975 NMOS_VTL
M$5 10 1 5 5 NMOS_VTL L=0.05U W=0.415U AS=0.043575P AD=0.02905P PS=1.04U
+ PD=0.555U
* device instance $6 r0 *1 0.36,0.2975 NMOS_VTL
M$6 9 2 10 5 NMOS_VTL L=0.05U W=0.415U AS=0.02905P AD=0.02905P PS=0.555U
+ PD=0.555U
* device instance $7 r0 *1 0.55,0.2975 NMOS_VTL
M$7 8 3 9 5 NMOS_VTL L=0.05U W=0.415U AS=0.02905P AD=0.02905P PS=0.555U
+ PD=0.555U
* device instance $8 r0 *1 0.74,0.2975 NMOS_VTL
M$8 7 4 8 5 NMOS_VTL L=0.05U W=0.415U AS=0.02905P AD=0.043575P PS=0.555U
+ PD=1.04U
.ENDS NAND4_X1

* cell BUF_X4
* pin A
* pin NWELL,VDD
* pin Z
* pin PWELL,VSS
.SUBCKT BUF_X4 1 3 4 5
* net 1 A
* net 3 NWELL,VDD
* net 4 Z
* net 5 PWELL,VSS
* device instance $1 r0 *1 0.17,0.995 PMOS_VTL
M$1 2 1 3 3 PMOS_VTL L=0.05U W=1.26U AS=0.11025P AD=0.0882P PS=2.24U PD=1.54U
* device instance $3 r0 *1 0.55,0.995 PMOS_VTL
M$3 4 2 3 3 PMOS_VTL L=0.05U W=2.52U AS=0.1764P AD=0.19845P PS=3.08U PD=3.78U
* device instance $7 r0 *1 0.17,0.2975 NMOS_VTL
M$7 2 1 5 5 NMOS_VTL L=0.05U W=0.83U AS=0.072625P AD=0.0581P PS=1.595U PD=1.11U
* device instance $9 r0 *1 0.55,0.2975 NMOS_VTL
M$9 4 2 5 5 NMOS_VTL L=0.05U W=1.66U AS=0.1162P AD=0.130725P PS=2.22U PD=2.705U
.ENDS BUF_X4

* cell NAND2_X1
* pin A2
* pin A1
* pin PWELL,VSS
* pin NWELL,VDD
* pin ZN
.SUBCKT NAND2_X1 1 2 3 4 5
* net 1 A2
* net 2 A1
* net 3 PWELL,VSS
* net 4 NWELL,VDD
* net 5 ZN
* device instance $1 r0 *1 0.185,0.995 PMOS_VTL
M$1 5 1 4 4 PMOS_VTL L=0.05U W=0.63U AS=0.06615P AD=0.0441P PS=1.47U PD=0.77U
* device instance $2 r0 *1 0.375,0.995 PMOS_VTL
M$2 4 2 5 4 PMOS_VTL L=0.05U W=0.63U AS=0.0441P AD=0.06615P PS=0.77U PD=1.47U
* device instance $3 r0 *1 0.185,0.2975 NMOS_VTL
M$3 6 1 3 3 NMOS_VTL L=0.05U W=0.415U AS=0.043575P AD=0.02905P PS=1.04U
+ PD=0.555U
* device instance $4 r0 *1 0.375,0.2975 NMOS_VTL
M$4 5 2 6 3 NMOS_VTL L=0.05U W=0.415U AS=0.02905P AD=0.043575P PS=0.555U
+ PD=1.04U
.ENDS NAND2_X1

* cell NOR3_X1
* pin A3
* pin A2
* pin A1
* pin PWELL,VSS
* pin NWELL,VDD
* pin ZN
.SUBCKT NOR3_X1 1 2 3 4 5 6
* net 1 A3
* net 2 A2
* net 3 A1
* net 4 PWELL,VSS
* net 5 NWELL,VDD
* net 6 ZN
* device instance $1 r0 *1 0.17,0.995 PMOS_VTL
M$1 8 1 5 5 PMOS_VTL L=0.05U W=0.63U AS=0.06615P AD=0.0441P PS=1.47U PD=0.77U
* device instance $2 r0 *1 0.36,0.995 PMOS_VTL
M$2 7 2 8 5 PMOS_VTL L=0.05U W=0.63U AS=0.0441P AD=0.0441P PS=0.77U PD=0.77U
* device instance $3 r0 *1 0.55,0.995 PMOS_VTL
M$3 6 3 7 5 PMOS_VTL L=0.05U W=0.63U AS=0.0441P AD=0.06615P PS=0.77U PD=1.47U
* device instance $4 r0 *1 0.17,0.2975 NMOS_VTL
M$4 6 1 4 4 NMOS_VTL L=0.05U W=0.415U AS=0.043575P AD=0.02905P PS=1.04U
+ PD=0.555U
* device instance $5 r0 *1 0.36,0.2975 NMOS_VTL
M$5 4 2 6 4 NMOS_VTL L=0.05U W=0.415U AS=0.02905P AD=0.02905P PS=0.555U
+ PD=0.555U
* device instance $6 r0 *1 0.55,0.2975 NMOS_VTL
M$6 6 3 4 4 NMOS_VTL L=0.05U W=0.415U AS=0.02905P AD=0.043575P PS=0.555U
+ PD=1.04U
.ENDS NOR3_X1

* cell HA_X1
* pin A
* pin B
* pin S
* pin NWELL,VDD
* pin PWELL,VSS
* pin CO
.SUBCKT HA_X1 1 2 4 5 6 9
* net 1 A
* net 2 B
* net 4 S
* net 5 NWELL,VDD
* net 6 PWELL,VSS
* net 9 CO
* device instance $1 r0 *1 0.785,1.0275 PMOS_VTL
M$1 10 2 5 5 PMOS_VTL L=0.05U W=0.315U AS=0.0338625P AD=0.02205P PS=0.775U
+ PD=0.455U
* device instance $2 r0 *1 0.975,1.0275 PMOS_VTL
M$2 7 1 10 5 PMOS_VTL L=0.05U W=0.315U AS=0.02205P AD=0.033075P PS=0.455U
+ PD=0.84U
* device instance $3 r0 *1 0.21,0.995 PMOS_VTL
M$3 4 2 3 5 PMOS_VTL L=0.05U W=0.63U AS=0.06615P AD=0.0441P PS=1.47U PD=0.77U
* device instance $4 r0 *1 0.4,0.995 PMOS_VTL
M$4 3 1 4 5 PMOS_VTL L=0.05U W=0.63U AS=0.0441P AD=0.0441P PS=0.77U PD=0.77U
* device instance $5 r0 *1 0.59,0.995 PMOS_VTL
M$5 5 7 3 5 PMOS_VTL L=0.05U W=0.63U AS=0.0441P AD=0.0338625P PS=0.77U PD=0.775U
* device instance $6 r0 *1 1.345,1.0275 PMOS_VTL
M$6 8 1 5 5 PMOS_VTL L=0.05U W=0.315U AS=0.033075P AD=0.02205P PS=0.84U
+ PD=0.455U
* device instance $7 r0 *1 1.535,1.0275 PMOS_VTL
M$7 8 2 5 5 PMOS_VTL L=0.05U W=0.315U AS=0.033075P AD=0.02205P PS=0.77U
+ PD=0.455U
* device instance $8 r0 *1 1.725,0.995 PMOS_VTL
M$8 9 8 5 5 PMOS_VTL L=0.05U W=0.63U AS=0.033075P AD=0.06615P PS=0.77U PD=1.47U
* device instance $9 r0 *1 1.345,0.195 NMOS_VTL
M$9 12 1 8 6 NMOS_VTL L=0.05U W=0.21U AS=0.02205P AD=0.0147P PS=0.63U PD=0.35U
* device instance $10 r0 *1 1.535,0.195 NMOS_VTL
M$10 6 2 12 6 NMOS_VTL L=0.05U W=0.21U AS=0.0147P AD=0.021875P PS=0.35U
+ PD=0.555U
* device instance $11 r0 *1 1.725,0.2975 NMOS_VTL
M$11 9 8 6 6 NMOS_VTL L=0.05U W=0.415U AS=0.021875P AD=0.043575P PS=0.555U
+ PD=1.04U
* device instance $12 r0 *1 0.785,0.195 NMOS_VTL
M$12 7 2 6 6 NMOS_VTL L=0.05U W=0.21U AS=0.0224P AD=0.0147P PS=0.56U PD=0.35U
* device instance $13 r0 *1 0.975,0.195 NMOS_VTL
M$13 6 1 7 6 NMOS_VTL L=0.05U W=0.21U AS=0.0147P AD=0.02205P PS=0.35U PD=0.63U
* device instance $14 r0 *1 0.21,0.2975 NMOS_VTL
M$14 11 2 6 6 NMOS_VTL L=0.05U W=0.415U AS=0.043575P AD=0.02905P PS=1.04U
+ PD=0.555U
* device instance $15 r0 *1 0.4,0.2975 NMOS_VTL
M$15 4 1 11 6 NMOS_VTL L=0.05U W=0.415U AS=0.02905P AD=0.02905P PS=0.555U
+ PD=0.555U
* device instance $16 r0 *1 0.59,0.2975 NMOS_VTL
M$16 6 7 4 6 NMOS_VTL L=0.05U W=0.415U AS=0.02905P AD=0.0224P PS=0.555U PD=0.56U
.ENDS HA_X1

* cell XOR2_X1
* pin A
* pin B
* pin PWELL,VSS
* pin NWELL,VDD
* pin Z
.SUBCKT XOR2_X1 1 3 4 5 6
* net 1 A
* net 3 B
* net 4 PWELL,VSS
* net 5 NWELL,VDD
* net 6 Z
* device instance $1 r0 *1 0.17,1.1525 PMOS_VTL
M$1 8 1 2 5 PMOS_VTL L=0.05U W=0.315U AS=0.033075P AD=0.02205P PS=0.84U
+ PD=0.455U
* device instance $2 r0 *1 0.36,1.1525 PMOS_VTL
M$2 8 3 5 5 PMOS_VTL L=0.05U W=0.315U AS=0.0338625P AD=0.02205P PS=0.775U
+ PD=0.455U
* device instance $3 r0 *1 0.555,0.995 PMOS_VTL
M$3 7 2 5 5 PMOS_VTL L=0.05U W=0.63U AS=0.0338625P AD=0.0441P PS=0.775U PD=0.77U
* device instance $4 r0 *1 0.745,0.995 PMOS_VTL
M$4 6 1 7 5 PMOS_VTL L=0.05U W=0.63U AS=0.0441P AD=0.0441P PS=0.77U PD=0.77U
* device instance $5 r0 *1 0.935,0.995 PMOS_VTL
M$5 7 3 6 5 PMOS_VTL L=0.05U W=0.63U AS=0.0441P AD=0.06615P PS=0.77U PD=1.47U
* device instance $6 r0 *1 0.17,0.195 NMOS_VTL
M$6 2 1 4 4 NMOS_VTL L=0.05U W=0.21U AS=0.02205P AD=0.0147P PS=0.63U PD=0.35U
* device instance $7 r0 *1 0.36,0.195 NMOS_VTL
M$7 4 3 2 4 NMOS_VTL L=0.05U W=0.21U AS=0.0147P AD=0.0224P PS=0.35U PD=0.56U
* device instance $8 r0 *1 0.555,0.2975 NMOS_VTL
M$8 6 2 4 4 NMOS_VTL L=0.05U W=0.415U AS=0.0224P AD=0.02905P PS=0.56U PD=0.555U
* device instance $9 r0 *1 0.745,0.2975 NMOS_VTL
M$9 9 1 6 4 NMOS_VTL L=0.05U W=0.415U AS=0.02905P AD=0.02905P PS=0.555U
+ PD=0.555U
* device instance $10 r0 *1 0.935,0.2975 NMOS_VTL
M$10 4 3 9 4 NMOS_VTL L=0.05U W=0.415U AS=0.02905P AD=0.043575P PS=0.555U
+ PD=1.04U
.ENDS XOR2_X1

* cell NAND3_X1
* pin A3
* pin A2
* pin A1
* pin PWELL,VSS
* pin NWELL,VDD
* pin ZN
.SUBCKT NAND3_X1 1 2 3 4 5 6
* net 1 A3
* net 2 A2
* net 3 A1
* net 4 PWELL,VSS
* net 5 NWELL,VDD
* net 6 ZN
* device instance $1 r0 *1 0.17,0.995 PMOS_VTL
M$1 6 1 5 5 PMOS_VTL L=0.05U W=0.63U AS=0.06615P AD=0.0441P PS=1.47U PD=0.77U
* device instance $2 r0 *1 0.36,0.995 PMOS_VTL
M$2 5 2 6 5 PMOS_VTL L=0.05U W=0.63U AS=0.0441P AD=0.0441P PS=0.77U PD=0.77U
* device instance $3 r0 *1 0.55,0.995 PMOS_VTL
M$3 6 3 5 5 PMOS_VTL L=0.05U W=0.63U AS=0.0441P AD=0.06615P PS=0.77U PD=1.47U
* device instance $4 r0 *1 0.17,0.2975 NMOS_VTL
M$4 8 1 4 4 NMOS_VTL L=0.05U W=0.415U AS=0.043575P AD=0.02905P PS=1.04U
+ PD=0.555U
* device instance $5 r0 *1 0.36,0.2975 NMOS_VTL
M$5 7 2 8 4 NMOS_VTL L=0.05U W=0.415U AS=0.02905P AD=0.02905P PS=0.555U
+ PD=0.555U
* device instance $6 r0 *1 0.55,0.2975 NMOS_VTL
M$6 6 3 7 4 NMOS_VTL L=0.05U W=0.415U AS=0.02905P AD=0.043575P PS=0.555U
+ PD=1.04U
.ENDS NAND3_X1

* cell INV_X1
* pin A
* pin PWELL,VSS
* pin NWELL,VDD
* pin ZN
.SUBCKT INV_X1 1 2 3 4
* net 1 A
* net 2 PWELL,VSS
* net 3 NWELL,VDD
* net 4 ZN
* device instance $1 r0 *1 0.17,0.995 PMOS_VTL
M$1 4 1 3 3 PMOS_VTL L=0.05U W=0.63U AS=0.06615P AD=0.06615P PS=1.47U PD=1.47U
* device instance $2 r0 *1 0.17,0.2975 NMOS_VTL
M$2 4 1 2 2 NMOS_VTL L=0.05U W=0.415U AS=0.043575P AD=0.043575P PS=1.04U
+ PD=1.04U
.ENDS INV_X1

* cell AOI21_X1
* pin A
* pin B2
* pin B1
* pin PWELL,VSS
* pin ZN
* pin NWELL,VDD
.SUBCKT AOI21_X1 1 2 3 4 6 7
* net 1 A
* net 2 B2
* net 3 B1
* net 4 PWELL,VSS
* net 6 ZN
* net 7 NWELL,VDD
* device instance $1 r0 *1 0.21,0.995 PMOS_VTL
M$1 6 2 5 7 PMOS_VTL L=0.05U W=0.63U AS=0.06615P AD=0.0441P PS=1.47U PD=0.77U
* device instance $2 r0 *1 0.4,0.995 PMOS_VTL
M$2 5 3 6 7 PMOS_VTL L=0.05U W=0.63U AS=0.0441P AD=0.0441P PS=0.77U PD=0.77U
* device instance $3 r0 *1 0.59,0.995 PMOS_VTL
M$3 7 1 5 7 PMOS_VTL L=0.05U W=0.63U AS=0.0441P AD=0.06615P PS=0.77U PD=1.47U
* device instance $4 r0 *1 0.21,0.2975 NMOS_VTL
M$4 8 2 4 4 NMOS_VTL L=0.05U W=0.415U AS=0.043575P AD=0.02905P PS=1.04U
+ PD=0.555U
* device instance $5 r0 *1 0.4,0.2975 NMOS_VTL
M$5 6 3 8 4 NMOS_VTL L=0.05U W=0.415U AS=0.02905P AD=0.02905P PS=0.555U
+ PD=0.555U
* device instance $6 r0 *1 0.59,0.2975 NMOS_VTL
M$6 4 1 6 4 NMOS_VTL L=0.05U W=0.415U AS=0.02905P AD=0.043575P PS=0.555U
+ PD=1.04U
.ENDS AOI21_X1

* cell AND2_X1
* pin A1
* pin A2
* pin NWELL,VDD
* pin PWELL,VSS
* pin ZN
.SUBCKT AND2_X1 1 2 4 5 6
* net 1 A1
* net 2 A2
* net 4 NWELL,VDD
* net 5 PWELL,VSS
* net 6 ZN
* device instance $1 r0 *1 0.17,1.1525 PMOS_VTL
M$1 3 1 4 4 PMOS_VTL L=0.05U W=0.315U AS=0.033075P AD=0.02205P PS=0.84U
+ PD=0.455U
* device instance $2 r0 *1 0.36,1.1525 PMOS_VTL
M$2 3 2 4 4 PMOS_VTL L=0.05U W=0.315U AS=0.033075P AD=0.02205P PS=0.77U