* CDL Netlist generated by OpenROAD

*.BUSDELIMITER [

.SUBCKT pipelined_fifo almost_empty almost_full clk data_count[0]
+ data_count[1] data_count[2] data_count[3] data_count[4] empty
+ full rd_data[0] rd_data[10] rd_data[11] rd_data[12] rd_data[13]
+ rd_data[14] rd_data[15] rd_data[16] rd_data[17] rd_data[18]
+ rd_data[19] rd_data[1] rd_data[20] rd_data[21] rd_data[22]
+ rd_data[23] rd_data[24] rd_data[25] rd_data[26] rd_data[27]
+ rd_data[28] rd_data[29] rd_data[2] rd_data[30] rd_data[31]
+ rd_data[3] rd_data[4] rd_data[5] rd_data[6] rd_data[7] rd_data[8]
+ rd_data[9] rd_en rst_n wr_data[0] wr_data[10] wr_data[11]
+ wr_data[12] wr_data[13] wr_data[14] wr_data[15] wr_data[16]
+ wr_data[17] wr_data[18] wr_data[19] wr_data[1] wr_data[20]
+ wr_data[21] wr_data[22] wr_data[23] wr_data[24] wr_data[25]
+ wr_data[26] wr_data[27] wr_data[28] wr_data[29] wr_data[2]
+ wr_data[30] wr_data[31] wr_data[3] wr_data[4] wr_data[5] wr_data[6]
+ wr_data[7] wr_data[8] wr_data[9] wr_en
X_126_ _088_ _090_ VDD VSS gf180mcu_fd_sc_mcu9t5v0__clkinv_2
X_127_ _120_ _123_ _087_ _073_ VDD VSS gf180mcu_fd_sc_mcu9t5v0__nand3_2
X_128_ _123_ _119_ _122_ _074_ VDD VSS gf180mcu_fd_sc_mcu9t5v0__aoi21_2
X_129_ wr_ptr\[4\] rd_ptr\[4\] _075_ VDD VSS gf180mcu_fd_sc_mcu9t5v0__xnor2_2
X_130_ _073_ _074_ _075_ _076_ VDD VSS gf180mcu_fd_sc_mcu9t5v0__aoi21_4
X_131_ _073_ _074_ _075_ _077_ VDD VSS gf180mcu_fd_sc_mcu9t5v0__and3_2
X_132_ pipeline_count\[1\] pipeline_count\[3\] pipeline_count\[2\]
+ pipeline_count\[4\] _078_ VDD VSS gf180mcu_fd_sc_mcu9t5v0__or4_2
X_133_ _076_ _077_ _078_ _079_ VDD VSS gf180mcu_fd_sc_mcu9t5v0__nor3_4
X_134_ _120_ _117_ _080_ VDD VSS gf180mcu_fd_sc_mcu9t5v0__nand2_2
X_135_ _120_ _116_ _119_ _081_ VDD VSS gf180mcu_fd_sc_mcu9t5v0__aoi21_2
X_136_ _114_ _080_ _081_ _020_ VDD VSS gf180mcu_fd_sc_mcu9t5v0__oai21_2
X_137_ _123_ _020_ _021_ VDD VSS gf180mcu_fd_sc_mcu9t5v0__xnor2_2
X_138_ _120_ _087_ _100_ VDD VSS gf180mcu_fd_sc_mcu9t5v0__xor2_4
X_139_ _115_ _090_ _022_ VDD VSS gf180mcu_fd_sc_mcu9t5v0__nand2_2
X_140_ pipeline_count\[0\] _100_ _022_ _023_ VDD VSS gf180mcu_fd_sc_mcu9t5v0__nor3_4
X_141_ _079_ _021_ _023_ net11 VDD VSS gf180mcu_fd_sc_mcu9t5v0__and3_2
X_142_ _076_ _077_ _078_ _024_ VDD VSS gf180mcu_fd_sc_mcu9t5v0__or3_2
X_143_ _021_ _103_ VDD VSS gf180mcu_fd_sc_mcu9t5v0__clkinv_3
X_144_ pipeline_count\[0\] _100_ _022_ _025_ VDD VSS gf180mcu_fd_sc_mcu9t5v0__or3_2
X_145_ _024_ _103_ _025_ net2 _026_ VDD VSS gf180mcu_fd_sc_mcu9t5v0__oai31_4
X_146_ _026_ _000_ VDD VSS gf180mcu_fd_sc_mcu9t5v0__clkinv_2
X_147_ _076_ _077_ _027_ VDD VSS gf180mcu_fd_sc_mcu9t5v0__nor2_4
X_148_ _088_ _123_ _100_ _028_ VDD VSS gf180mcu_fd_sc_mcu9t5v0__nand3_2
X_149_ _123_ _029_ VDD VSS gf180mcu_fd_sc_mcu9t5v0__clkinv_2
X_150_ _088_ _029_ _100_ _030_ VDD VSS gf180mcu_fd_sc_mcu9t5v0__nand3_2
X_151_ _028_ _030_ _020_ _031_ VDD VSS gf180mcu_fd_sc_mcu9t5v0__mux2_2
X_152_ _027_ _031_ net12 VDD VSS gf180mcu_fd_sc_mcu9t5v0__nand2_4
X_153_ net3 _027_ _031_ _001_ VDD VSS gf180mcu_fd_sc_mcu9t5v0__and3_2
X_154_ pipeline_count\[1\] _089_ VDD VSS gf180mcu_fd_sc_mcu9t5v0__clkinv_2
X_155_ _094_ _091_ VDD VSS gf180mcu_fd_sc_mcu9t5v0__clkinv_2
X_156_ _093_ net7 VDD VSS gf180mcu_fd_sc_mcu9t5v0__clkinv_2
X_157_ rd_en_pipe _095_ VDD VSS gf180mcu_fd_sc_mcu9t5v0__clkinv_2
X_158_ rd_ptr\[1\] _085_ VDD VSS gf180mcu_fd_sc_mcu9t5v0__clkinv_2
X_159_ _114_ _086_ VDD VSS gf180mcu_fd_sc_mcu9t5v0__clkinv_2
X_160_ rd_ptr\[2\] _118_ VDD VSS gf180mcu_fd_sc_mcu9t5v0__clkinv_2
X_161_ rd_ptr\[3\] _121_ VDD VSS gf180mcu_fd_sc_mcu9t5v0__clkinv_2
X_162_ _096_ _082_ VDD VSS gf180mcu_fd_sc_mcu9t5v0__inv_2
X_163_ wr_ptr\[0\] _003_ VDD VSS gf180mcu_fd_sc_mcu9t5v0__clkinv_2
X_164_ _115_ _124_ VDD VSS gf180mcu_fd_sc_mcu9t5v0__clkinv_2
X_165_ rd_ptr\[0\] _026_ _010_ VDD VSS gf180mcu_fd_sc_mcu9t5v0__xnor2_2
X_166_ _002_ rd_ptr\[1\] _026_ _011_ VDD VSS gf180mcu_fd_sc_mcu9t5v0__mux2_2
X_167_ net2 _107_ _032_ VDD VSS gf180mcu_fd_sc_mcu9t5v0__and2_2
X_168_ _024_ _103_ _025_ _032_ _033_ VDD VSS gf180mcu_fd_sc_mcu9t5v0__oai31_2
X_169_ rd_ptr\[2\] _033_ _012_ VDD VSS gf180mcu_fd_sc_mcu9t5v0__xnor2_2
X_170_ net2 _034_ VDD VSS gf180mcu_fd_sc_mcu9t5v0__clkinv_2
X_171_ rd_ptr\[2\] rd_ptr\[1\] rd_ptr\[0\] _035_ VDD VSS gf180mcu_fd_sc_mcu9t5v0__nand3_2
X_172_ _034_ rd_ptr\[3\] _035_ _036_ VDD VSS gf180mcu_fd_sc_mcu9t5v0__or3_2
X_173_ _079_ _021_ _036_ _037_ VDD VSS gf180mcu_fd_sc_mcu9t5v0__aoi21_2
X_174_ rd_ptr\[3\] _079_ _021_ _023_ _038_ VDD VSS gf180mcu_fd_sc_mcu9t5v0__and4_2
X_175_ _034_ _035_ rd_ptr\[3\] _039_ VDD VSS gf180mcu_fd_sc_mcu9t5v0__oai21_2
X_176_ _023_ _036_ _039_ _040_ VDD VSS gf180mcu_fd_sc_mcu9t5v0__oai21_2
X_177_ _037_ _038_ _040_ _013_ VDD VSS gf180mcu_fd_sc_mcu9t5v0__or3_2
X_178_ net2 _107_ _041_ VDD VSS gf180mcu_fd_sc_mcu9t5v0__nand2_2
X_179_ rd_ptr\[2\] rd_ptr\[3\] _042_ VDD VSS gf180mcu_fd_sc_mcu9t5v0__nand2_2
X_180_ rd_ptr\[4\] _041_ _042_ _043_ VDD VSS gf180mcu_fd_sc_mcu9t5v0__or3_2
X_181_ _079_ _021_ _043_ _044_ VDD VSS gf180mcu_fd_sc_mcu9t5v0__aoi21_2
X_182_ rd_ptr\[4\] _079_ _021_ _023_ _045_ VDD VSS gf180mcu_fd_sc_mcu9t5v0__and4_2
X_183_ _041_ _042_ rd_ptr\[4\] _046_ VDD VSS gf180mcu_fd_sc_mcu9t5v0__oai21_2
X_184_ _023_ _043_ _046_ _047_ VDD VSS gf180mcu_fd_sc_mcu9t5v0__oai21_2
X_185_ _044_ _045_ _047_ _014_ VDD VSS gf180mcu_fd_sc_mcu9t5v0__or3_2
X_186_ _003_ _001_ _015_ VDD VSS gf180mcu_fd_sc_mcu9t5v0__xnor2_2
X_187_ wr_ptr\[1\] _004_ _001_ _016_ VDD VSS gf180mcu_fd_sc_mcu9t5v0__mux2_2
X_188_ net3 _106_ _027_ _031_ _048_ VDD VSS gf180mcu_fd_sc_mcu9t5v0__and4_2
X_189_ wr_ptr\[2\] _048_ _017_ VDD VSS gf180mcu_fd_sc_mcu9t5v0__xor2_2
X_190_ net3 wr_ptr\[2\] wr_ptr\[1\] wr_ptr\[0\] _049_ VDD
+ VSS gf180mcu_fd_sc_mcu9t5v0__and4_2
X_191_ _027_ _031_ _049_ _050_ VDD VSS gf180mcu_fd_sc_mcu9t5v0__and3_2
X_192_ wr_ptr\[3\] _050_ _018_ VDD VSS gf180mcu_fd_sc_mcu9t5v0__xor2_2
X_193_ net3 _106_ wr_ptr\[2\] wr_ptr\[3\] _051_ VDD VSS gf180mcu_fd_sc_mcu9t5v0__and4_2
X_194_ _027_ _031_ _051_ _052_ VDD VSS gf180mcu_fd_sc_mcu9t5v0__and3_2
X_195_ wr_ptr\[4\] _052_ _019_ VDD VSS gf180mcu_fd_sc_mcu9t5v0__xor2_2
X_196_ pipeline_count\[0\] _097_ _005_ VDD VSS gf180mcu_fd_sc_mcu9t5v0__xnor2_2
X_197_ _084_ _053_ VDD VSS gf180mcu_fd_sc_mcu9t5v0__clkinv_2
X_198_ _053_ pipeline_count\[1\] _097_ _006_ VDD VSS gf180mcu_fd_sc_mcu9t5v0__mux2_2
X_199_ _083_ _111_ _054_ VDD VSS gf180mcu_fd_sc_mcu9t5v0__xor2_2
X_200_ _054_ pipeline_count\[2\] _097_ _007_ VDD VSS gf180mcu_fd_sc_mcu9t5v0__mux2_2
X_201_ pipeline_count\[0\] _109_ _055_ VDD VSS gf180mcu_fd_sc_mcu9t5v0__and2_2
X_202_ _108_ _055_ _056_ VDD VSS gf180mcu_fd_sc_mcu9t5v0__or2_2
X_203_ _111_ _056_ _110_ _057_ VDD VSS gf180mcu_fd_sc_mcu9t5v0__aoi21_2
X_204_ _113_ _057_ _058_ VDD VSS gf180mcu_fd_sc_mcu9t5v0__xnor2_2
X_205_ _058_ pipeline_count\[3\] _097_ _008_ VDD VSS gf180mcu_fd_sc_mcu9t5v0__mux2_2
X_206_ _113_ _059_ VDD VSS gf180mcu_fd_sc_mcu9t5v0__clkinv_2
X_207_ _083_ _111_ _110_ _060_ VDD VSS gf180mcu_fd_sc_mcu9t5v0__aoi21_2
X_208_ _112_ _061_ VDD VSS gf180mcu_fd_sc_mcu9t5v0__clkinv_2
X_209_ _059_ _060_ _061_ _062_ VDD VSS gf180mcu_fd_sc_mcu9t5v0__oai21_2
X_210_ _082_ _062_ _063_ VDD VSS gf180mcu_fd_sc_mcu9t5v0__xnor2_2
X_211_ _097_ _063_ _064_ VDD VSS gf180mcu_fd_sc_mcu9t5v0__or2_2
X_212_ pipeline_count\[4\] _064_ _009_ VDD VSS gf180mcu_fd_sc_mcu9t5v0__xnor2_2
X_213_ _100_ _022_ _024_ _103_ net4 VDD VSS gf180mcu_fd_sc_mcu9t5v0__aoi211_2
X_214_ _103_ _100_ _065_ VDD VSS gf180mcu_fd_sc_mcu9t5v0__nand2_2
X_215_ _027_ _065_ net5 VDD VSS gf180mcu_fd_sc_mcu9t5v0__nand2_2
X_216_ _102_ _092_ net8 VDD VSS gf180mcu_fd_sc_mcu9t5v0__xnor2_4
X_217_ _099_ _094_ _066_ VDD VSS gf180mcu_fd_sc_mcu9t5v0__and2_2
X_218_ _098_ _066_ _067_ VDD VSS gf180mcu_fd_sc_mcu9t5v0__or2_2
X_219_ _102_ _067_ _101_ _068_ VDD VSS gf180mcu_fd_sc_mcu9t5v0__aoi21_2
X_220_ _105_ _068_ net9 VDD VSS gf180mcu_fd_sc_mcu9t5v0__xnor2_2
X_221_ _092_ _069_ VDD VSS gf180mcu_fd_sc_mcu9t5v0__clkinv_2
X_222_ _102_ _069_ _070_ VDD VSS gf180mcu_fd_sc_mcu9t5v0__and2_2
X_223_ _101_ _070_ _071_ VDD VSS gf180mcu_fd_sc_mcu9t5v0__or2_2
X_224_ _105_ _071_ _104_ _072_ VDD VSS gf180mcu_fd_sc_mcu9t5v0__aoi21_2
X_225_ pipeline_count\[4\] _027_ _072_ net10 VDD VSS gf180mcu_fd_sc_mcu9t5v0__xor3_2
X_226_ pipeline_count\[0\] pipeline_count\[1\] _082_ _083_
+ _084_ VDD VSS gf180mcu_fd_sc_mcu9t5v0__addf_2
X_227_ _085_ wr_ptr\[1\] _086_ _087_ _088_ VDD VSS gf180mcu_fd_sc_mcu9t5v0__addf_2
X_228_ _089_ _090_ _091_ _092_ _093_ VDD VSS gf180mcu_fd_sc_mcu9t5v0__addf_1
X_229_ _095_ wr_en_pipe\[1\] _096_ _097_ VDD VSS gf180mcu_fd_sc_mcu9t5v0__addh_2
X_230_ pipeline_count\[1\] _088_ _098_ _099_ VDD VSS gf180mcu_fd_sc_mcu9t5v0__addh_1
X_231_ pipeline_count\[2\] _100_ _101_ _102_ VDD VSS gf180mcu_fd_sc_mcu9t5v0__addh_2
X_232_ pipeline_count\[3\] _103_ _104_ _105_ VDD VSS gf180mcu_fd_sc_mcu9t5v0__addh_1
X_233_ wr_ptr\[0\] wr_ptr\[1\] _106_ _004_ VDD VSS gf180mcu_fd_sc_mcu9t5v0__addh_1
X_234_ rd_ptr\[0\] rd_ptr\[1\] _107_ _002_ VDD VSS gf180mcu_fd_sc_mcu9t5v0__addh_1
X_235_ pipeline_count\[1\] _082_ _108_ _109_ VDD VSS gf180mcu_fd_sc_mcu9t5v0__addh_1
X_236_ pipeline_count\[2\] _082_ _110_ _111_ VDD VSS gf180mcu_fd_sc_mcu9t5v0__addh_2
X_237_ pipeline_count\[3\] _082_ _112_ _113_ VDD VSS gf180mcu_fd_sc_mcu9t5v0__addh_1
X_238_ rd_ptr\[0\] _003_ _114_ _115_ VDD VSS gf180mcu_fd_sc_mcu9t5v0__addh_2
X_239_ _085_ wr_ptr\[1\] _116_ _117_ VDD VSS gf180mcu_fd_sc_mcu9t5v0__addh_1
X_240_ _118_ wr_ptr\[2\] _119_ _120_ VDD VSS gf180mcu_fd_sc_mcu9t5v0__addh_2
X_241_ _121_ wr_ptr\[3\] _122_ _123_ VDD VSS gf180mcu_fd_sc_mcu9t5v0__addh_2
X_242_ pipeline_count\[0\] _124_ _094_ net6 VDD VSS gf180mcu_fd_sc_mcu9t5v0__addh_4
Xclkbuf_0_clk clk clknet_0_clk VDD VSS gf180mcu_fd_sc_mcu9t5v0__clkbuf_20
X_244_ net13 rd_data[0] VDD VSS gf180mcu_fd_sc_mcu9t5v0__dlya_4
X_245_ net14 rd_data[1] VDD VSS gf180mcu_fd_sc_mcu9t5v0__dlya_4
X_246_ net15 rd_data[2] VDD VSS gf180mcu_fd_sc_mcu9t5v0__dlya_4
X_247_ net16 rd_data[3] VDD VSS gf180mcu_fd_sc_mcu9t5v0__dlya_4
X_248_ net17 rd_data[4] VDD VSS gf180mcu_fd_sc_mcu9t5v0__dlya_4
X_249_ net18 rd_data[5] VDD VSS gf180mcu_fd_sc_mcu9t5v0__dlya_4
X_250_ net19 rd_data[6] VDD VSS gf180mcu_fd_sc_mcu9t5v0__dlya_4
X_251_ net20 rd_data[7] VDD VSS gf180mcu_fd_sc_mcu9t5v0__dlya_4
X_252_ net21 rd_data[8] VDD VSS gf180mcu_fd_sc_mcu9t5v0__dlya_4
X_253_ net22 rd_data[9] VDD VSS gf180mcu_fd_sc_mcu9t5v0__dlya_4
X_254_ net23 rd_data[10] VDD VSS gf180mcu_fd_sc_mcu9t5v0__dlya_4
X_255_ net24 rd_data[11] VDD VSS gf180mcu_fd_sc_mcu9t5v0__dlya_4
X_256_ net25 rd_data[12] VDD VSS gf180mcu_fd_sc_mcu9t5v0__dlya_4
X_257_ net26 rd_data[13] VDD VSS gf180mcu_fd_sc_mcu9t5v0__dlya_4
X_258_ net27 rd_data[14] VDD VSS gf180mcu_fd_sc_mcu9t5v0__dlya_4
X_259_ net28 rd_data[15] VDD VSS gf180mcu_fd_sc_mcu9t5v0__dlya_4
X_260_ net29 rd_data[16] VDD VSS gf180mcu_fd_sc_mcu9t5v0__dlya_4
X_261_ net30 rd_data[17] VDD VSS gf180mcu_fd_sc_mcu9t5v0__dlya_4
X_262_ net31 rd_data[18] VDD VSS gf180mcu_fd_sc_mcu9t5v0__dlya_4
X_263_ net32 rd_data[19] VDD VSS gf180mcu_fd_sc_mcu9t5v0__dlya_4
X_264_ net33 rd_data[20] VDD VSS gf180mcu_fd_sc_mcu9t5v0__dlya_4
X_265_ net34 rd_data[21] VDD VSS gf180mcu_fd_sc_mcu9t5v0__dlya_4
X_266_ net35 rd_data[22] VDD VSS gf180mcu_fd_sc_mcu9t5v0__dlya_4
X_267_ net36 rd_data[23] VDD VSS gf180mcu_fd_sc_mcu9t5v0__dlya_4
X_268_ net37 rd_data[24] VDD VSS gf180mcu_fd_sc_mcu9t5v0__dlya_4
X_269_ net38 rd_data[25] VDD VSS gf180mcu_fd_sc_mcu9t5v0__dlya_4
X_270_ net39 rd_data[26] VDD VSS gf180mcu_fd_sc_mcu9t5v0__dlya_4
X_271_ net40 rd_data[27] VDD VSS gf180mcu_fd_sc_mcu9t5v0__dlya_4
X_272_ net41 rd_data[28] VDD VSS gf180mcu_fd_sc_mcu9t5v0__dlya_4
X_273_ net42 rd_data[29] VDD VSS gf180mcu_fd_sc_mcu9t5v0__dlya_4
X_274_ net43 rd_data[30] VDD VSS gf180mcu_fd_sc_mcu9t5v0__dlya_4
X_275_ net44 rd_data[31] VDD VSS gf180mcu_fd_sc_mcu9t5v0__dlya_4
Xpipeline_count\[0\]$_DFFE_PN0P_ _005_ net1 clknet_1_1__leaf_clk
+ pipeline_count\[0\] VDD VSS gf180mcu_fd_sc_mcu9t5v0__dffrnq_4
Xpipeline_count\[1\]$_DFFE_PN0P_ _006_ net1 clknet_1_1__leaf_clk
+ pipeline_count\[1\] VDD VSS gf180mcu_fd_sc_mcu9t5v0__dffrnq_2
Xpipeline_count\[2\]$_DFFE_PN0P_ _007_ net1 clknet_1_1__leaf_clk
+ pipeline_count\[2\] VDD VSS gf180mcu_fd_sc_mcu9t5v0__dffrnq_2
Xpipeline_count\[3\]$_DFFE_PN0P_ _008_ net1 clknet_1_1__leaf_clk
+ pipeline_count\[3\] VDD VSS gf180mcu_fd_sc_mcu9t5v0__dffrnq_2
Xpipeline_count\[4\]$_DFFE_PN0P_ _009_ net1 clknet_1_0__leaf_clk
+ pipeline_count\[4\] VDD VSS gf180mcu_fd_sc_mcu9t5v0__dffrnq_2
Xrd_en_pipe$_DFF_PN0_ _000_ net1 clknet_1_1__leaf_clk rd_en_pipe
+ VDD VSS gf180mcu_fd_sc_mcu9t5v0__dffrnq_2
Xrd_ptr\[0\]$_DFFE_PN0P_ _010_ net1 clknet_1_0__leaf_clk rd_ptr\[0\]
+ VDD VSS gf180mcu_fd_sc_mcu9t5v0__dffrnq_2
Xrd_ptr\[1\]$_DFFE_PN0P_ _011_ net1 clknet_1_1__leaf_clk rd_ptr\[1\]
+ VDD VSS gf180mcu_fd_sc_mcu9t5v0__dffrnq_2
Xrd_ptr\[2\]$_DFFE_PN0P_ _012_ net1 clknet_1_0__leaf_clk rd_ptr\[2\]
+ VDD VSS gf180mcu_fd_sc_mcu9t5v0__dffrnq_2
Xrd_ptr\[3\]$_DFFE_PN0P_ _013_ net1 clknet_1_0__leaf_clk rd_ptr\[3\]
+ VDD VSS gf180mcu_fd_sc_mcu9t5v0__dffrnq_2
Xrd_ptr\[4\]$_DFFE_PN0P_ _014_ net1 clknet_1_0__leaf_clk rd_ptr\[4\]
+ VDD VSS gf180mcu_fd_sc_mcu9t5v0__dffrnq_2
Xwr_en_pipe\[0\]$_DFF_PN0_ _001_ net1 clknet_1_1__leaf_clk
+ wr_en_pipe\[0\] VDD VSS gf180mcu_fd_sc_mcu9t5v0__dffrnq_2
Xwr_en_pipe\[1\]$_DFF_PN0_ wr_en_pipe\[0\] net1 clknet_1_1__leaf_clk
+ wr_en_pipe\[1\] VDD VSS gf180mcu_fd_sc_mcu9t5v0__dffrnq_2
Xwr_ptr\[0\]$_DFFE_PN0P_ _015_ net1 clknet_1_1__leaf_clk wr_ptr\[0\]
+ VDD VSS gf180mcu_fd_sc_mcu9t5v0__dffrnq_2
Xwr_ptr\[1\]$_DFFE_PN0P_ _016_ net1 clknet_1_0__leaf_clk wr_ptr\[1\]
+ VDD VSS gf180mcu_fd_sc_mcu9t5v0__dffrnq_2
Xwr_ptr\[2\]$_DFFE_PN0P_ _017_ net1 clknet_1_1__leaf_clk wr_ptr\[2\]
+ VDD VSS gf180mcu_fd_sc_mcu9t5v0__dffrnq_2
Xwr_ptr\[3\]$_DFFE_PN0P_ _018_ net1 clknet_1_0__leaf_clk wr_ptr\[3\]
+ VDD VSS gf180mcu_fd_sc_mcu9t5v0__dffrnq_2
Xwr_ptr\[4\]$_DFFE_PN0P_ _019_ net1 clknet_1_0__leaf_clk wr_ptr\[4\]
+ VDD VSS gf180mcu_fd_sc_mcu9t5v0__dffrnq_2
Xhold1 net45 net1 VDD VSS gf180mcu_fd_sc_mcu9t5v0__buf_8
XPHY_EDGE_ROW_0_Right_0 VDD VSS gf180mcu_fd_sc_mcu9t5v0__endcap
XPHY_EDGE_ROW_1_Right_1 VDD VSS gf180mcu_fd_sc_mcu9t5v0__endcap
XPHY_EDGE_ROW_2_Right_2 VDD VSS gf180mcu_fd_sc_mcu9t5v0__endcap
XPHY_EDGE_ROW_3_Right_3 VDD VSS gf180mcu_fd_sc_mcu9t5v0__endcap
XPHY_EDGE_ROW_4_Right_4 VDD VSS gf180mcu_fd_sc_mcu9t5v0__endcap
XPHY_EDGE_ROW_5_Right_5 VDD VSS gf180mcu_fd_sc_mcu9t5v0__endcap
XPHY_EDGE_ROW_6_Right_6 VDD VSS gf180mcu_fd_sc_mcu9t5v0__endcap
XPHY_EDGE_ROW_7_Right_7 VDD VSS gf180mcu_fd_sc_mcu9t5v0__endcap
XPHY_EDGE_ROW_8_Right_8 VDD VSS gf180mcu_fd_sc_mcu9t5v0__endcap
XPHY_EDGE_ROW_9_Right_9 VDD VSS gf180mcu_fd_sc_mcu9t5v0__endcap
XPHY_EDGE_ROW_10_Right_10 VDD VSS gf180mcu_fd_sc_mcu9t5v0__endcap
XPHY_EDGE_ROW_11_Right_11 VDD VSS gf180mcu_fd_sc_mcu9t5v0__endcap
XPHY_EDGE_ROW_12_Right_12 VDD VSS gf180mcu_fd_sc_mcu9t5v0__endcap
XPHY_EDGE_ROW_13_Right_13 VDD VSS gf180mcu_fd_sc_mcu9t5v0__endcap
XPHY_EDGE_ROW_14_Right_14 VDD VSS gf180mcu_fd_sc_mcu9t5v0__endcap
XPHY_EDGE_ROW_15_Right_15 VDD VSS gf180mcu_fd_sc_mcu9t5v0__endcap
XPHY_EDGE_ROW_16_Right_16 VDD VSS gf180mcu_fd_sc_mcu9t5v0__endcap
XPHY_EDGE_ROW_17_Right_17 VDD VSS gf180mcu_fd_sc_mcu9t5v0__endcap
XPHY_EDGE_ROW_18_Right_18 VDD VSS gf180mcu_fd_sc_mcu9t5v0__endcap
XPHY_EDGE_ROW_19_Right_19 VDD VSS gf180mcu_fd_sc_mcu9t5v0__endcap
XPHY_EDGE_ROW_20_Right_20 VDD VSS gf180mcu_fd_sc_mcu9t5v0__endcap
XPHY_EDGE_ROW_21_Right_21 VDD VSS gf180mcu_fd_sc_mcu9t5v0__endcap
XPHY_EDGE_ROW_22_Right_22 VDD VSS gf180mcu_fd_sc_mcu9t5v0__endcap
XPHY_EDGE_ROW_23_Right_23 VDD VSS gf180mcu_fd_sc_mcu9t5v0__endcap
XPHY_EDGE_ROW_24_Right_24 VDD VSS gf180mcu_fd_sc_mcu9t5v0__endcap
XPHY_EDGE_ROW_25_Right_25 VDD VSS gf180mcu_fd_sc_mcu9t5v0__endcap
XPHY_EDGE_ROW_26_Right_26 VDD VSS gf180mcu_fd_sc_mcu9t5v0__endcap
XPHY_EDGE_ROW_27_Right_27 VDD VSS gf180mcu_fd_sc_mcu9t5v0__endcap
XPHY_EDGE_ROW_28_Right_28 VDD VSS gf180mcu_fd_sc_mcu9t5v0__endcap
XPHY_EDGE_ROW_29_Right_29 VDD VSS gf180mcu_fd_sc_mcu9t5v0__endcap
XPHY_EDGE_ROW_30_Right_30 VDD VSS gf180mcu_fd_sc_mcu9t5v0__endcap
XPHY_EDGE_ROW_31_Right_31 VDD VSS gf180mcu_fd_sc_mcu9t5v0__endcap
XPHY_EDGE_ROW_32_Right_32 VDD VSS gf180mcu_fd_sc_mcu9t5v0__endcap
XPHY_EDGE_ROW_33_Right_33 VDD VSS gf180mcu_fd_sc_mcu9t5v0__endcap
XPHY_EDGE_ROW_34_Right_34 VDD VSS gf180mcu_fd_sc_mcu9t5v0__endcap
XPHY_EDGE_ROW_35_Right_35 VDD VSS gf180mcu_fd_sc_mcu9t5v0__endcap
XPHY_EDGE_ROW_36_Right_36 VDD VSS gf180mcu_fd_sc_mcu9t5v0__endcap
XPHY_EDGE_ROW_37_Right_37 VDD VSS gf180mcu_fd_sc_mcu9t5v0__endcap
XPHY_EDGE_ROW_38_Right_38 VDD VSS gf180mcu_fd_sc_mcu9t5v0__endcap
XPHY_EDGE_ROW_39_Right_39 VDD VSS gf180mcu_fd_sc_mcu9t5v0__endcap
XPHY_EDGE_ROW_40_Right_40 VDD VSS gf180mcu_fd_sc_mcu9t5v0__endcap
XPHY_EDGE_ROW_41_Right_41 VDD VSS gf180mcu_fd_sc_mcu9t5v0__endcap
XPHY_EDGE_ROW_42_Right_42 VDD VSS gf180mcu_fd_sc_mcu9t5v0__endcap
XPHY_EDGE_ROW_43_Right_43 VDD VSS gf180mcu_fd_sc_mcu9t5v0__endcap
XPHY_EDGE_ROW_44_Right_44 VDD VSS gf180mcu_fd_sc_mcu9t5v0__endcap
XPHY_EDGE_ROW_45_Right_45 VDD VSS gf180mcu_fd_sc_mcu9t5v0__endcap
XPHY_EDGE_ROW_46_Right_46 VDD VSS gf180mcu_fd_sc_mcu9t5v0__endcap
XPHY_EDGE_ROW_47_Right_47 VDD VSS gf180mcu_fd_sc_mcu9t5v0__endcap
XPHY_EDGE_ROW_48_Right_48 VDD VSS gf180mcu_fd_sc_mcu9t5v0__endcap
XPHY_EDGE_ROW_49_Right_49 VDD VSS gf180mcu_fd_sc_mcu9t5v0__endcap
XPHY_EDGE_ROW_50_Right_50 VDD VSS gf180mcu_fd_sc_mcu9t5v0__endcap
XPHY_EDGE_ROW_51_Right_51 VDD VSS gf180mcu_fd_sc_mcu9t5v0__endcap
XPHY_EDGE_ROW_52_Right_52 VDD VSS gf180mcu_fd_sc_mcu9t5v0__endcap
XPHY_EDGE_ROW_53_Right_53 VDD VSS gf180mcu_fd_sc_mcu9t5v0__endcap
XPHY_EDGE_ROW_54_Right_54 VDD VSS gf180mcu_fd_sc_mcu9t5v0__endcap
XPHY_EDGE_ROW_55_Right_55 VDD VSS gf180mcu_fd_sc_mcu9t5v0__endcap
XPHY_EDGE_ROW_56_Right_56 VDD VSS gf180mcu_fd_sc_mcu9t5v0__endcap
XPHY_EDGE_ROW_57_Right_57 VDD VSS gf180mcu_fd_sc_mcu9t5v0__endcap
XPHY_EDGE_ROW_58_Right_58 VDD VSS gf180mcu_fd_sc_mcu9t5v0__endcap
XPHY_EDGE_ROW_59_Right_59 VDD VSS gf180mcu_fd_sc_mcu9t5v0__endcap
XPHY_EDGE_ROW_60_Right_60 VDD VSS gf180mcu_fd_sc_mcu9t5v0__endcap
XPHY_EDGE_ROW_61_Right_61 VDD VSS gf180mcu_fd_sc_mcu9t5v0__endcap
XPHY_EDGE_ROW_62_Right_62 VDD VSS gf180mcu_fd_sc_mcu9t5v0__endcap
XPHY_EDGE_ROW_63_Right_63 VDD VSS gf180mcu_fd_sc_mcu9t5v0__endcap
XPHY_EDGE_ROW_64_Right_64 VDD VSS gf180mcu_fd_sc_mcu9t5v0__endcap
XPHY_EDGE_ROW_65_Right_65 VDD VSS gf180mcu_fd_sc_mcu9t5v0__endcap
XPHY_EDGE_ROW_66_Right_66 VDD VSS gf180mcu_fd_sc_mcu9t5v0__endcap
XPHY_EDGE_ROW_67_Right_67 VDD VSS gf180mcu_fd_sc_mcu9t5v0__endcap
XPHY_EDGE_ROW_68_Right_68 VDD VSS gf180mcu_fd_sc_mcu9t5v0__endcap
XPHY_EDGE_ROW_69_Right_69 VDD VSS gf180mcu_fd_sc_mcu9t5v0__endcap
XPHY_EDGE_ROW_70_Right_70 VDD VSS gf180mcu_fd_sc_mcu9t5v0__endcap
XPHY_EDGE_ROW_71_Right_71 VDD VSS gf180mcu_fd_sc_mcu9t5v0__endcap
XPHY_EDGE_ROW_72_Right_72 VDD VSS gf180mcu_fd_sc_mcu9t5v0__endcap
XPHY_EDGE_ROW_73_Right_73 VDD VSS gf180mcu_fd_sc_mcu9t5v0__endcap
XPHY_EDGE_ROW_74_Right_74 VDD VSS gf180mcu_fd_sc_mcu9t5v0__endcap
XPHY_EDGE_ROW_75_Right_75 VDD VSS gf180mcu_fd_sc_mcu9t5v0__endcap
XPHY_EDGE_ROW_76_Right_76 VDD VSS gf180mcu_fd_sc_mcu9t5v0__endcap
XPHY_EDGE_ROW_77_Right_77 VDD VSS gf180mcu_fd_sc_mcu9t5v0__endcap
XPHY_EDGE_ROW_78_Right_78 VDD VSS gf180mcu_fd_sc_mcu9t5v0__endcap
XPHY_EDGE_ROW_79_Right_79 VDD VSS gf180mcu_fd_sc_mcu9t5v0__endcap
XPHY_EDGE_ROW_80_Right_80 VDD VSS gf180mcu_fd_sc_mcu9t5v0__endcap
XPHY_EDGE_ROW_81_Right_81 VDD VSS gf180mcu_fd_sc_mcu9t5v0__endcap
XPHY_EDGE_ROW_82_Right_82 VDD VSS gf180mcu_fd_sc_mcu9t5v0__endcap
XPHY_EDGE_ROW_83_Right_83 VDD VSS gf180mcu_fd_sc_mcu9t5v0__endcap
XPHY_EDGE_ROW_84_Right_84 VDD VSS gf180mcu_fd_sc_mcu9t5v0__endcap
XPHY_EDGE_ROW_85_Right_85 VDD VSS gf180mcu_fd_sc_mcu9t5v0__endcap
XPHY_EDGE_ROW_86_Right_86 VDD VSS gf180mcu_fd_sc_mcu9t5v0__endcap
XPHY_EDGE_ROW_87_Right_87 VDD VSS gf180mcu_fd_sc_mcu9t5v0__endcap
XPHY_EDGE_ROW_88_Right_88 VDD VSS gf180mcu_fd_sc_mcu9t5v0__endcap
XPHY_EDGE_ROW_89_Right_89 VDD VSS gf180mcu_fd_sc_mcu9t5v0__endcap
XPHY_EDGE_ROW_90_Right_90 VDD VSS gf180mcu_fd_sc_mcu9t5v0__endcap
XPHY_EDGE_ROW_91_Right_91 VDD VSS gf180mcu_fd_sc_mcu9t5v0__endcap
XPHY_EDGE_ROW_92_Right_92 VDD VSS gf180mcu_fd_sc_mcu9t5v0__endcap
XPHY_EDGE_ROW_93_Right_93 VDD VSS gf180mcu_fd_sc_mcu9t5v0__endcap
XPHY_EDGE_ROW_94_Right_94 VDD VSS gf180mcu_fd_sc_mcu9t5v0__endcap
XPHY_EDGE_ROW_95_Right_95 VDD VSS gf180mcu_fd_sc_mcu9t5v0__endcap
XPHY_EDGE_ROW_96_Right_96 VDD VSS gf180mcu_fd_sc_mcu9t5v0__endcap
XPHY_EDGE_ROW_97_Right_97 VDD VSS gf180mcu_fd_sc_mcu9t5v0__endcap
XPHY_EDGE_ROW_98_Right_98 VDD VSS gf180mcu_fd_sc_mcu9t5v0__endcap
XPHY_EDGE_ROW_99_Right_99 VDD VSS gf180mcu_fd_sc_mcu9t5v0__endcap
XPHY_EDGE_ROW_100_Right_100 VDD VSS gf180mcu_fd_sc_mcu9t5v0__endcap
XPHY_EDGE_ROW_101_Right_101 VDD VSS gf180mcu_fd_sc_mcu9t5v0__endcap
XPHY_EDGE_ROW_102_Right_102 VDD VSS gf180mcu_fd_sc_mcu9t5v0__endcap
XPHY_EDGE_ROW_103_Right_103 VDD VSS gf180mcu_fd_sc_mcu9t5v0__endcap
XPHY_EDGE_ROW_104_Right_104 VDD VSS gf180mcu_fd_sc_mcu9t5v0__endcap
XPHY_EDGE_ROW_105_Right_105 VDD VSS gf180mcu_fd_sc_mcu9t5v0__endcap
XPHY_EDGE_ROW_106_Right_106 VDD VSS gf180mcu_fd_sc_mcu9t5v0__endcap
XPHY_EDGE_ROW_107_Right_107 VDD VSS gf180mcu_fd_sc_mcu9t5v0__endcap
XPHY_EDGE_ROW_108_Right_108 VDD VSS gf180mcu_fd_sc_mcu9t5v0__endcap
XPHY_EDGE_ROW_109_Right_109 VDD VSS gf180mcu_fd_sc_mcu9t5v0__endcap
XPHY_EDGE_ROW_110_Right_110 VDD VSS gf180mcu_fd_sc_mcu9t5v0__endcap
XPHY_EDGE_ROW_111_Right_111 VDD VSS gf180mcu_fd_sc_mcu9t5v0__endcap
XPHY_EDGE_ROW_112_Right_112 VDD VSS gf180mcu_fd_sc_mcu9t5v0__endcap
XPHY_EDGE_ROW_113_Right_113 VDD VSS gf180mcu_fd_sc_mcu9t5v0__endcap
XPHY_EDGE_ROW_114_Right_114 VDD VSS gf180mcu_fd_sc_mcu9t5v0__endcap
XPHY_EDGE_ROW_115_Right_115 VDD VSS gf180mcu_fd_sc_mcu9t5v0__endcap
XPHY_EDGE_ROW_116_Right_116 VDD VSS gf180mcu_fd_sc_mcu9t5v0__endcap
XPHY_EDGE_ROW_117_Right_117 VDD VSS gf180mcu_fd_sc_mcu9t5v0__endcap
XPHY_EDGE_ROW_118_Right_118 VDD VSS gf180mcu_fd_sc_mcu9t5v0__endcap
XPHY_EDGE_ROW_119_Right_119 VDD VSS gf180mcu_fd_sc_mcu9t5v0__endcap
XPHY_EDGE_ROW_120_Right_120 VDD VSS gf180mcu_fd_sc_mcu9t5v0__endcap
XPHY_EDGE_ROW_121_Right_121 VDD VSS gf180mcu_fd_sc_mcu9t5v0__endcap
XPHY_EDGE_ROW_122_Right_122 VDD VSS gf180mcu_fd_sc_mcu9t5v0__endcap
XPHY_EDGE_ROW_123_Right_123 VDD VSS gf180mcu_fd_sc_mcu9t5v0__endcap
XPHY_EDGE_ROW_124_Right_124 VDD VSS gf180mcu_fd_sc_mcu9t5v0__endcap
XPHY_EDGE_ROW_125_Right_125 VDD VSS gf180mcu_fd_sc_mcu9t5v0__endcap
XPHY_EDGE_ROW_126_Right_126 VDD VSS gf180mcu_fd_sc_mcu9t5v0__endcap
XPHY_EDGE_ROW_127_Right_127 VDD VSS gf180mcu_fd_sc_mcu9t5v0__endcap
XPHY_EDGE_ROW_128_Right_128 VDD VSS gf180mcu_fd_sc_mcu9t5v0__endcap
XPHY_EDGE_ROW_129_Right_129 VDD VSS gf180mcu_fd_sc_mcu9t5v0__endcap
XPHY_EDGE_ROW_130_Right_130 VDD VSS gf180mcu_fd_sc_mcu9t5v0__endcap
XPHY_EDGE_ROW_131_Right_131 VDD VSS gf180mcu_fd_sc_mcu9t5v0__endcap
XPHY_EDGE_ROW_132_Right_132 VDD VSS gf180mcu_fd_sc_mcu9t5v0__endcap
XPHY_EDGE_ROW_133_Right_133 VDD VSS gf180mcu_fd_sc_mcu9t5v0__endcap
XPHY_EDGE_ROW_134_Right_134 VDD VSS gf180mcu_fd_sc_mcu9t5v0__endcap
XPHY_EDGE_ROW_135_Right_135 VDD VSS gf180mcu_fd_sc_mcu9t5v0__endcap
XPHY_EDGE_ROW_136_Right_136 VDD VSS gf180mcu_fd_sc_mcu9t5v0__endcap
XPHY_EDGE_ROW_137_Right_137 VDD VSS gf180mcu_fd_sc_mcu9t5v0__endcap
XPHY_EDGE_ROW_138_Right_138 VDD VSS gf180mcu_fd_sc_mcu9t5v0__endcap
XPHY_EDGE_ROW_139_Right_139 VDD VSS gf180mcu_fd_sc_mcu9t5v0__endcap
XPHY_EDGE_ROW_140_Right_140 VDD VSS gf180mcu_fd_sc_mcu9t5v0__endcap
XPHY_EDGE_ROW_141_Right_141 VDD VSS gf180mcu_fd_sc_mcu9t5v0__endcap
XPHY_EDGE_ROW_142_Right_142 VDD VSS gf180mcu_fd_sc_mcu9t5v0__endcap
XPHY_EDGE_ROW_143_Right_143 VDD VSS gf180mcu_fd_sc_mcu9t5v0__endcap
XPHY_EDGE_ROW_144_Right_144 VDD VSS gf180mcu_fd_sc_mcu9t5v0__endcap
XPHY_EDGE_ROW_145_Right_145 VDD VSS gf180mcu_fd_sc_mcu9t5v0__endcap
XPHY_EDGE_ROW_146_Right_146 VDD VSS gf180mcu_fd_sc_mcu9t5v0__endcap
XPHY_EDGE_ROW_147_Right_147 VDD VSS gf180mcu_fd_sc_mcu9t5v0__endcap
XPHY_EDGE_ROW_148_Right_148 VDD VSS gf180mcu_fd_sc_mcu9t5v0__endcap
XPHY_EDGE_ROW_149_Right_149 VDD VSS gf180mcu_fd_sc_mcu9t5v0__endcap
XPHY_EDGE_ROW_150_Right_150 VDD VSS gf180mcu_fd_sc_mcu9t5v0__endcap
XPHY_EDGE_ROW_151_Right_151 VDD VSS gf180mcu_fd_sc_mcu9t5v0__endcap
XPHY_EDGE_ROW_152_Right_152 VDD VSS gf180mcu_fd_sc_mcu9t5v0__endcap
XPHY_EDGE_ROW_153_Right_153 VDD VSS gf180mcu_fd_sc_mcu9t5v0__endcap
XPHY_EDGE_ROW_154_Right_154 VDD VSS gf180mcu_fd_sc_mcu9t5v0__endcap
XPHY_EDGE_ROW_155_Right_155 VDD VSS gf180mcu_fd_sc_mcu9t5v0__endcap
XPHY_EDGE_ROW_156_Right_156 VDD VSS gf180mcu_fd_sc_mcu9t5v0__endcap
XPHY_EDGE_ROW_157_Right_157 VDD VSS gf180mcu_fd_sc_mcu9t5v0__endcap
XPHY_EDGE_ROW_158_Right_158 VDD VSS gf180mcu_fd_sc_mcu9t5v0__endcap
XPHY_EDGE_ROW_159_Right_159 VDD VSS gf180mcu_fd_sc_mcu9t5v0__endcap
XPHY_EDGE_ROW_160_Right_160 VDD VSS gf180mcu_fd_sc_mcu9t5v0__endcap
XPHY_EDGE_ROW_161_Right_161 VDD VSS gf180mcu_fd_sc_mcu9t5v0__endcap
XPHY_EDGE_ROW_162_Right_162 VDD VSS gf180mcu_fd_sc_mcu9t5v0__endcap
XPHY_EDGE_ROW_163_Right_163 VDD VSS gf180mcu_fd_sc_mcu9t5v0__endcap
XPHY_EDGE_ROW_164_Right_164 VDD VSS gf180mcu_fd_sc_mcu9t5v0__endcap
XPHY_EDGE_ROW_165_Right_165 VDD VSS gf180mcu_fd_sc_mcu9t5v0__endcap
XPHY_EDGE_ROW_166_Right_166 VDD VSS gf180mcu_fd_sc_mcu9t5v0__endcap
XPHY_EDGE_ROW_167_Right_167 VDD VSS gf180mcu_fd_sc_mcu9t5v0__endcap
XPHY_EDGE_ROW_168_Right_168 VDD VSS gf180mcu_fd_sc_mcu9t5v0__endcap
XPHY_EDGE_ROW_169_Right_169 VDD VSS gf180mcu_fd_sc_mcu9t5v0__endcap
XPHY_EDGE_ROW_170_Right_170 VDD VSS gf180mcu_fd_sc_mcu9t5v0__endcap
XPHY_EDGE_ROW_171_Right_171 VDD VSS gf180mcu_fd_sc_mcu9t5v0__endcap
XPHY_EDGE_ROW_172_Right_172 VDD VSS gf180mcu_fd_sc_mcu9t5v0__endcap
XPHY_EDGE_ROW_173_Right_173 VDD VSS gf180mcu_fd_sc_mcu9t5v0__endcap
XPHY_EDGE_ROW_174_Right_174 VDD VSS gf180mcu_fd_sc_mcu9t5v0__endcap
XPHY_EDGE_ROW_175_Right_175 VDD VSS gf180mcu_fd_sc_mcu9t5v0__endcap
XPHY_EDGE_ROW_176_Right_176 VDD VSS gf180mcu_fd_sc_mcu9t5v0__endcap
XPHY_EDGE_ROW_177_Right_177 VDD VSS gf180mcu_fd_sc_mcu9t5v0__endcap
XPHY_EDGE_ROW_178_Right_178 VDD VSS gf180mcu_fd_sc_mcu9t5v0__endcap
XPHY_EDGE_ROW_179_Right_179 VDD VSS gf180mcu_fd_sc_mcu9t5v0__endcap
XPHY_EDGE_ROW_180_Right_180 VDD VSS gf180mcu_fd_sc_mcu9t5v0__endcap
XPHY_EDGE_ROW_181_Right_181 VDD VSS gf180mcu_fd_sc_mcu9t5v0__endcap
XPHY_EDGE_ROW_182_Right_182 VDD VSS gf180mcu_fd_sc_mcu9t5v0__endcap
XPHY_EDGE_ROW_183_Right_183 VDD VSS gf180mcu_fd_sc_mcu9t5v0__endcap
XPHY_EDGE_ROW_184_Right_184 VDD VSS gf180mcu_fd_sc_mcu9t5v0__endcap
XPHY_EDGE_ROW_185_Right_185 VDD VSS gf180mcu_fd_sc_mcu9t5v0__endcap
XPHY_EDGE_ROW_186_Right_186 VDD VSS gf180mcu_fd_sc_mcu9t5v0__endcap
XPHY_EDGE_ROW_187_Right_187 VDD VSS gf180mcu_fd_sc_mcu9t5v0__endcap
XPHY_EDGE_ROW_188_Right_188 VDD VSS gf180mcu_fd_sc_mcu9t5v0__endcap
XPHY_EDGE_ROW_189_Right_189 VDD VSS gf180mcu_fd_sc_mcu9t5v0__endcap
XPHY_EDGE_ROW_190_Right_190 VDD VSS gf180mcu_fd_sc_mcu9t5v0__endcap
XPHY_EDGE_ROW_191_Right_191 VDD VSS gf180mcu_fd_sc_mcu9t5v0__endcap
XPHY_EDGE_ROW_192_Right_192 VDD VSS gf180mcu_fd_sc_mcu9t5v0__endcap
XPHY_EDGE_ROW_193_Right_193 VDD VSS gf180mcu_fd_sc_mcu9t5v0__endcap
XPHY_EDGE_ROW_194_Right_194 VDD VSS gf180mcu_fd_sc_mcu9t5v0__endcap
XPHY_EDGE_ROW_195_Right_195 VDD VSS gf180mcu_fd_sc_mcu9t5v0__endcap
XPHY_EDGE_ROW_196_Right_196 VDD VSS gf180mcu_fd_sc_mcu9t5v0__endcap
XPHY_EDGE_ROW_197_Right_197 VDD VSS gf180mcu_fd_sc_mcu9t5v0__endcap
XPHY_EDGE_ROW_198_Right_198 VDD VSS gf180mcu_fd_sc_mcu9t5v0__endcap
XPHY_EDGE_ROW_199_Right_199 VDD VSS gf180mcu_fd_sc_mcu9t5v0__endcap
XPHY_EDGE_ROW_200_Right_200 VDD VSS gf180mcu_fd_sc_mcu9t5v0__endcap
XPHY_EDGE_ROW_201_Right_201 VDD VSS gf180mcu_fd_sc_mcu9t5v0__endcap
XPHY_EDGE_ROW_202_Right_202 VDD VSS gf180mcu_fd_sc_mcu9t5v0__endcap
XPHY_EDGE_ROW_203_Right_203 VDD VSS gf180mcu_fd_sc_mcu9t5v0__endcap
XPHY_EDGE_ROW_204_Right_204 VDD VSS gf180mcu_fd_sc_mcu9t5v0__endcap
XPHY_EDGE_ROW_205_Right_205 VDD VSS gf180mcu_fd_sc_mcu9t5v0__endcap
XPHY_EDGE_ROW_206_Right_206 VDD VSS gf180mcu_fd_sc_mcu9t5v0__endcap
XPHY_EDGE_ROW_207_Right_207 VDD VSS gf180mcu_fd_sc_mcu9t5v0__endcap
XPHY_EDGE_ROW_208_Right_208 VDD VSS gf180mcu_fd_sc_mcu9t5v0__endcap
XPHY_EDGE_ROW_209_Right_209 VDD VSS gf180mcu_fd_sc_mcu9t5v0__endcap
XPHY_EDGE_ROW_210_Right_210 VDD VSS gf180mcu_fd_sc_mcu9t5v0__endcap
XPHY_EDGE_ROW_211_Right_211 VDD VSS gf180mcu_fd_sc_mcu9t5v0__endcap
XPHY_EDGE_ROW_212_Right_212 VDD VSS gf180mcu_fd_sc_mcu9t5v0__endcap
XPHY_EDGE_ROW_213_Right_213 VDD VSS gf180mcu_fd_sc_mcu9t5v0__endcap
XPHY_EDGE_ROW_214_Right_214 VDD VSS gf180mcu_fd_sc_mcu9t5v0__endcap
XPHY_EDGE_ROW_215_Right_215 VDD VSS gf180mcu_fd_sc_mcu9t5v0__endcap
XPHY_EDGE_ROW_216_Right_216 VDD VSS gf180mcu_fd_sc_mcu9t5v0__endcap
XPHY_EDGE_ROW_217_Right_217 VDD VSS gf180mcu_fd_sc_mcu9t5v0__endcap
XPHY_EDGE_ROW_218_Right_218 VDD VSS gf180mcu_fd_sc_mcu9t5v0__endcap
XPHY_EDGE_ROW_219_Right_219 VDD VSS gf180mcu_fd_sc_mcu9t5v0__endcap
XPHY_EDGE_ROW_220_Right_220 VDD VSS gf180mcu_fd_sc_mcu9t5v0__endcap
XPHY_EDGE_ROW_221_Right_221 VDD VSS gf180mcu_fd_sc_mcu9t5v0__endcap
XPHY_EDGE_ROW_222_Right_222 VDD VSS gf180mcu_fd_sc_mcu9t5v0__endcap
XPHY_EDGE_ROW_223_Right_223 VDD VSS gf180mcu_fd_sc_mcu9t5v0__endcap
XPHY_EDGE_ROW_224_Right_224 VDD VSS gf180mcu_fd_sc_mcu9t5v0__endcap
XPHY_EDGE_ROW_225_Right_225 VDD VSS gf180mcu_fd_sc_mcu9t5v0__endcap
XPHY_EDGE_ROW_226_Right_226 VDD VSS gf180mcu_fd_sc_mcu9t5v0__endcap
XPHY_EDGE_ROW_227_Right_227 VDD VSS gf180mcu_fd_sc_mcu9t5v0__endcap
XPHY_EDGE_ROW_228_Right_228 VDD VSS gf180mcu_fd_sc_mcu9t5v0__endcap
XPHY_EDGE_ROW_229_Right_229 VDD VSS gf180mcu_fd_sc_mcu9t5v0__endcap
XPHY_EDGE_ROW_230_Right_230 VDD VSS gf180mcu_fd_sc_mcu9t5v0__endcap
XPHY_EDGE_ROW_231_Right_231 VDD VSS gf180mcu_fd_sc_mcu9t5v0__endcap
XPHY_EDGE_ROW_232_Right_232 VDD VSS gf180mcu_fd_sc_mcu9t5v0__endcap
XPHY_EDGE_ROW_233_Right_233 VDD VSS gf180mcu_fd_sc_mcu9t5v0__endcap
XPHY_EDGE_ROW_0_Left_234 VDD VSS gf180mcu_fd_sc_mcu9t5v0__endcap
XPHY_EDGE_ROW_1_Left_235 VDD VSS gf180mcu_fd_sc_mcu9t5v0__endcap
XPHY_EDGE_ROW_2_Left_236 VDD VSS gf180mcu_fd_sc_mcu9t5v0__endcap
XPHY_EDGE_ROW_3_Left_237 VDD VSS gf180mcu_fd_sc_mcu9t5v0__endcap
XPHY_EDGE_ROW_4_Left_238 VDD VSS gf180mcu_fd_sc_mcu9t5v0__endcap
XPHY_EDGE_ROW_5_Left_239 VDD VSS gf180mcu_fd_sc_mcu9t5v0__endcap