
* cell pipelined_fifo
* pin empty
* pin almost_full
* pin rd_en
* pin almost_empty
* pin data_count[4]
* pin data_count[1]
* pin data_count[3]
* pin clk
* pin rst_n
* pin full
* pin wr_en
* pin data_count[2]
* pin data_count[0]
* pin rd_data[20]
* pin rd_data[29]
* pin rd_data[17]
* pin rd_data[30]
* pin rd_data[18]
* pin rd_data[2]
* pin rd_data[13]
* pin rd_data[24]
* pin rd_data[27]
* pin rd_data[1]
* pin rd_data[11]
* pin rd_data[9]
* pin rd_data[4]
* pin rd_data[25]
* pin rd_data[0]
* pin rd_data[12]
* pin rd_data[6]
* pin rd_data[15]
* pin rd_data[3]
* pin rd_data[28]
* pin rd_data[23]
* pin rd_data[14]
* pin rd_data[21]
* pin rd_data[8]
* pin rd_data[26]
* pin rd_data[5]
* pin rd_data[16]
* pin rd_data[31]
* pin rd_data[7]
* pin rd_data[19]
* pin rd_data[22]
* pin rd_data[10]
* pin NWELL
* pin PWELL,gf180mcu_gnd
.SUBCKT pipelined_fifo 1 2 3 4 5 6 7 133 168 169 170 171 172 181 186 188 190
+ 192 195 197 202 203 204 206 207 208 210 211 218 219 220 221 222 223 224 225
+ 226 227 230 231 232 233 234 235 236 237 238
* net 1 empty
* net 2 almost_full
* net 3 rd_en
* net 4 almost_empty
* net 5 data_count[4]
* net 6 data_count[1]
* net 7 data_count[3]
* net 133 clk
* net 168 rst_n
* net 169 full
* net 170 wr_en
* net 171 data_count[2]
* net 172 data_count[0]
* net 181 rd_data[20]
* net 186 rd_data[29]
* net 188 rd_data[17]
* net 190 rd_data[30]
* net 192 rd_data[18]
* net 195 rd_data[2]
* net 197 rd_data[13]
* net 202 rd_data[24]
* net 203 rd_data[27]
* net 204 rd_data[1]
* net 206 rd_data[11]
* net 207 rd_data[9]
* net 208 rd_data[4]
* net 210 rd_data[25]
* net 211 rd_data[0]
* net 218 rd_data[12]
* net 219 rd_data[6]
* net 220 rd_data[15]
* net 221 rd_data[3]
* net 222 rd_data[28]
* net 223 rd_data[23]
* net 224 rd_data[14]
* net 225 rd_data[21]
* net 226 rd_data[8]
* net 227 rd_data[26]
* net 230 rd_data[5]
* net 231 rd_data[16]
* net 232 rd_data[31]
* net 233 rd_data[7]
* net 234 rd_data[19]
* net 235 rd_data[22]
* net 236 rd_data[10]
* net 237 NWELL
* net 238 PWELL,gf180mcu_gnd
* cell instance $3 r0 *1 539.28,5.04
X$3 21 237 238 1 gf180mcu_fd_sc_mcu9t5v0__dlyb_2
* cell instance $7 r0 *1 551.04,5.04
X$7 8 237 238 2 gf180mcu_fd_sc_mcu9t5v0__dlyb_2
* cell instance $11 r0 *1 559.44,5.04
X$11 3 237 238 20 gf180mcu_fd_sc_mcu9t5v0__buf_2
* cell instance $16 m0 *1 559.44,15.12
X$16 24 237 238 4 gf180mcu_fd_sc_mcu9t5v0__dlyb_2
* cell instance $19 r0 *1 565.04,5.04
X$19 9 237 238 5 gf180mcu_fd_sc_mcu9t5v0__dlyb_2
* cell instance $23 r0 *1 582.4,5.04
X$23 10 237 238 6 gf180mcu_fd_sc_mcu9t5v0__dlyb_2
* cell instance $27 r0 *1 590.8,5.04
X$27 28 237 238 7 gf180mcu_fd_sc_mcu9t5v0__dlyb_2
* cell instance $31 r0 *1 551.04,15.12
X$31 238 237 23 8 29 gf180mcu_fd_sc_mcu9t5v0__nand2_2
* cell instance $35 r0 *1 561.12,15.12
X$35 238 25 9 23 26 237 gf180mcu_fd_sc_mcu9t5v0__xor3_2
* cell instance $41 r0 *1 579.04,5.04
X$41 238 237 67 10 gf180mcu_fd_sc_mcu9t5v0__clkinv_2
* cell instance $43 m0 *1 510.16,15.12
X$43 238 11 237 47 15 13 gf180mcu_fd_sc_mcu9t5v0__aoi21_2
* cell instance $45 r0 *1 504,25.2
X$45 45 238 31 46 237 11 gf180mcu_fd_sc_mcu9t5v0__or3_2
* cell instance $47 r0 *1 501.76,15.12
X$47 237 40 238 11 30 14 gf180mcu_fd_sc_mcu9t5v0__oai21_2
* cell instance $49 r0 *1 527.52,15.12
X$49 17 238 12 19 237 18 gf180mcu_fd_sc_mcu9t5v0__or3_2
* cell instance $52 m0 *1 492.24,45.36
X$52 238 237 12 60 gf180mcu_fd_sc_mcu9t5v0__clkinv_2
* cell instance $54 r0 *1 509.6,15.12
X$54 12 13 15 14 238 237 32 gf180mcu_fd_sc_mcu9t5v0__and4_2
* cell instance $56 r0 *1 505.68,35.28
X$56 238 237 62 46 12 gf180mcu_fd_sc_mcu9t5v0__nand2_2
* cell instance $64 r0 *1 480.48,25.2
X$64 238 44 12 43 57 237 gf180mcu_fd_sc_mcu9t5v0__dffrnq_2
* cell instance $67 m0 *1 518,15.12
X$67 237 12 238 19 16 17 gf180mcu_fd_sc_mcu9t5v0__oai21_2
* cell instance $69 m0 *1 534.24,15.12
X$69 13 237 15 14 238 21 gf180mcu_fd_sc_mcu9t5v0__and3_2
* cell instance $74 m0 *1 510.72,35.28
X$74 45 13 15 14 238 237 59 gf180mcu_fd_sc_mcu9t5v0__and4_2
* cell instance $82 m0 *1 523.04,25.2
X$82 238 18 237 42 15 13 gf180mcu_fd_sc_mcu9t5v0__aoi21_2
* cell instance $84 r0 *1 527.52,35.28
X$84 48 237 50 13 238 49 gf180mcu_fd_sc_mcu9t5v0__nor3_4
* cell instance $95 r0 *1 518,15.12
X$95 237 16 238 18 41 14 gf180mcu_fd_sc_mcu9t5v0__oai21_2
* cell instance $99 m0 *1 557.76,35.28
X$99 35 237 36 14 238 64 gf180mcu_fd_sc_mcu9t5v0__nor3_4
* cell instance $105 r0 *1 539.28,15.12
X$105 238 237 15 22 gf180mcu_fd_sc_mcu9t5v0__clkinv_3
* cell instance $112 m0 *1 509.04,55.44
X$112 237 75 78 238 15 gf180mcu_fd_sc_mcu9t5v0__xnor2_2
* cell instance $121 m0 *1 530.88,15.12
X$121 238 237 20 17 gf180mcu_fd_sc_mcu9t5v0__clkinv_2
* cell instance $130 r0 *1 530.32,65.52
X$130 238 19 62 237 96 109 gf180mcu_fd_sc_mcu9t5v0__nand3_2
* cell instance $136 m0 *1 532.56,25.2
X$136 238 237 20 31 33 gf180mcu_fd_sc_mcu9t5v0__nand2_2
* cell instance $138 r0 *1 544.32,25.2
X$138 238 51 20 98 22 34 237 gf180mcu_fd_sc_mcu9t5v0__oai31_4
* cell instance $140 m0 *1 539.84,25.2
X$140 237 20 33 238 39 gf180mcu_fd_sc_mcu9t5v0__and2_2
* cell instance $151 m0 *1 545.44,25.2
X$151 237 39 238 38 22 34 51 gf180mcu_fd_sc_mcu9t5v0__oai31_2
* cell instance $154 m0 *1 571.76,25.2
X$154 27 238 237 65 22 37 gf180mcu_fd_sc_mcu9t5v0__addh_1
* cell instance $159 r0 *1 546,15.12
X$159 238 237 22 29 35 gf180mcu_fd_sc_mcu9t5v0__nand2_2
* cell instance $164 m0 *1 558.32,25.2
X$164 36 35 34 24 22 237 238 gf180mcu_fd_sc_mcu9t5v0__aoi211_2
* cell instance $167 m0 *1 528.64,45.36
X$167 238 237 48 49 23 gf180mcu_fd_sc_mcu9t5v0__nor2_4
* cell instance $170 r0 *1 477.68,65.52
X$170 23 237 102 127 238 101 gf180mcu_fd_sc_mcu9t5v0__and3_2
* cell instance $174 m0 *1 473.2,105.84
X$174 237 238 102 152 23 gf180mcu_fd_sc_mcu9t5v0__nand2_4
* cell instance $176 r0 *1 477.12,95.76
X$176 135 144 23 102 238 237 114 gf180mcu_fd_sc_mcu9t5v0__and4_2
* cell instance $180 m0 *1 496.72,95.76
X$180 135 237 23 102 238 138 gf180mcu_fd_sc_mcu9t5v0__and3_2
* cell instance $191 r0 *1 491.68,85.68
X$191 23 237 102 137 238 130 gf180mcu_fd_sc_mcu9t5v0__and3_2
* cell instance $195 m0 *1 569.52,45.36
X$195 68 65 66 25 237 238 50 gf180mcu_fd_sc_mcu9t5v0__or4_2
* cell instance $197 r0 *1 563.92,65.52
X$197 237 25 112 238 100 gf180mcu_fd_sc_mcu9t5v0__xnor2_2
* cell instance $205 m0 *1 557.76,65.52
X$205 238 44 25 43 100 237 gf180mcu_fd_sc_mcu9t5v0__dffrnq_2
* cell instance $208 m0 *1 572.32,15.12
X$208 238 27 237 26 53 37 gf180mcu_fd_sc_mcu9t5v0__aoi21_2
* cell instance $213 m0 *1 582.4,25.2
X$213 237 37 56 238 28 gf180mcu_fd_sc_mcu9t5v0__xnor2_2
* cell instance $219 r0 *1 510.72,25.2
X$219 47 238 59 30 237 58 gf180mcu_fd_sc_mcu9t5v0__or3_2
* cell instance $225 m0 *1 504,25.2
X$225 237 45 238 46 40 31 gf180mcu_fd_sc_mcu9t5v0__oai21_2
* cell instance $231 m0 *1 514.08,25.2
X$231 42 238 32 41 237 57 gf180mcu_fd_sc_mcu9t5v0__or3_2
* cell instance $237 r0 *1 539.28,65.52
X$237 33 238 237 109 96 97 gf180mcu_fd_sc_mcu9t5v0__addh_1
* cell instance $247 m0 *1 531.44,35.28
X$247 49 238 48 50 237 34 gf180mcu_fd_sc_mcu9t5v0__or3_2
* cell instance $249 m0 *1 518.56,55.44
X$249 238 88 79 237 75 35 gf180mcu_fd_sc_mcu9t5v0__nand3_2
* cell instance $261 m0 *1 501.76,55.44
X$261 238 76 79 237 77 35 gf180mcu_fd_sc_mcu9t5v0__nand3_2
* cell instance $265 r0 *1 524.72,55.44
X$265 238 35 94 93 237 gf180mcu_fd_sc_mcu9t5v0__xor2_4
* cell instance $267 r0 *1 558.88,35.28
X$267 64 238 35 36 237 51 gf180mcu_fd_sc_mcu9t5v0__or3_2
* cell instance $269 r0 *1 575.12,35.28
X$269 238 52 54 66 35 237 gf180mcu_fd_sc_mcu9t5v0__addh_2
* cell instance $273 m0 *1 568.96,55.44
X$273 238 237 90 36 82 gf180mcu_fd_sc_mcu9t5v0__nand2_2
* cell instance $287 r0 *1 544.32,35.28
X$287 237 62 38 238 63 gf180mcu_fd_sc_mcu9t5v0__xnor2_2
* cell instance $305 m0 *1 508.48,65.52
X$305 238 103 43 237 gf180mcu_fd_sc_mcu9t5v0__clkbuf_20
* cell instance $310 m0 *1 530.88,85.68
X$310 238 44 109 43 134 237 gf180mcu_fd_sc_mcu9t5v0__dffrnq_2
* cell instance $312 m0 *1 543.2,45.36
X$312 238 44 62 43 63 237 gf180mcu_fd_sc_mcu9t5v0__dffrnq_2
* cell instance $314 m0 *1 491.12,35.28
X$314 238 44 45 43 58 237 gf180mcu_fd_sc_mcu9t5v0__dffrnq_2
* cell instance $317 m0 *1 500.64,65.52
X$317 238 237 43 gf180mcu_fd_sc_mcu9t5v0__clkbuf_4
* cell instance $321 m0 *1 475.44,75.6
X$321 238 44 91 43 128 237 gf180mcu_fd_sc_mcu9t5v0__dffrnq_2
* cell instance $325 m0 *1 488.88,105.84
X$325 238 44 106 43 145 237 gf180mcu_fd_sc_mcu9t5v0__dffrnq_2
* cell instance $335 r0 *1 475.44,45.36
X$335 238 44 73 43 74 237 gf180mcu_fd_sc_mcu9t5v0__dffrnq_2
* cell instance $337 r0 *1 464.8,136.08
X$337 238 167 44 237 gf180mcu_fd_sc_mcu9t5v0__buf_8
* cell instance $358 m0 *1 556.08,105.84
X$358 238 44 66 110 148 237 gf180mcu_fd_sc_mcu9t5v0__dffrnq_2
* cell instance $363 m0 *1 470.4,95.76
X$363 238 44 115 110 143 237 gf180mcu_fd_sc_mcu9t5v0__dffrnq_2
* cell instance $366 r0 *1 560.56,115.92
X$366 238 44 68 110 157 237 gf180mcu_fd_sc_mcu9t5v0__dffrnq_2
* cell instance $369 m0 *1 507.92,105.84
X$369 238 44 136 110 154 237 gf180mcu_fd_sc_mcu9t5v0__dffrnq_2
* cell instance $374 r0 *1 514.08,105.84
X$374 238 44 155 110 138 237 gf180mcu_fd_sc_mcu9t5v0__dffrnq_2
* cell instance $377 r0 *1 533.12,105.84
X$377 238 44 156 110 155 237 gf180mcu_fd_sc_mcu9t5v0__dffrnq_2
* cell instance $380 r0 *1 533.68,95.76
X$380 238 44 146 110 139 237 gf180mcu_fd_sc_mcu9t5v0__dffrnq_2
* cell instance $382 m0 *1 557.76,126
X$382 238 44 64 110 166 237 gf180mcu_fd_sc_mcu9t5v0__dffrnq_4
* cell instance $384 m0 *1 558.88,75.6
X$384 238 44 65 110 111 237 gf180mcu_fd_sc_mcu9t5v0__dffrnq_2
* cell instance $391 m0 *1 536.48,75.6
X$391 238 44 96 110 95 237 gf180mcu_fd_sc_mcu9t5v0__dffrnq_2
* cell instance $395 m0 *1 503.44,45.36
X$395 237 73 45 238 61 gf180mcu_fd_sc_mcu9t5v0__xnor2_2
* cell instance $409 m0 *1 522.48,45.36
X$409 80 237 81 61 238 48 gf180mcu_fd_sc_mcu9t5v0__and3_2
* cell instance $417 r0 *1 515.76,45.36
X$417 238 49 80 81 61 237 gf180mcu_fd_sc_mcu9t5v0__aoi21_4
* cell instance $435 m0 *1 581.84,35.28
X$435 238 52 237 56 70 54 gf180mcu_fd_sc_mcu9t5v0__aoi21_2
* cell instance $440 m0 *1 576.24,35.28
X$440 238 52 55 237 53 gf180mcu_fd_sc_mcu9t5v0__or2_2
* cell instance $445 m0 *1 587.44,45.36
X$445 238 71 85 54 237 gf180mcu_fd_sc_mcu9t5v0__xnor2_4
* cell instance $449 m0 *1 590.24,35.28
X$449 237 54 72 238 55 gf180mcu_fd_sc_mcu9t5v0__and2_2
* cell instance $471 r0 *1 487.76,55.44
X$471 238 86 75 60 91 237 gf180mcu_fd_sc_mcu9t5v0__addh_2
* cell instance $481 r0 *1 496.16,65.52
X$481 238 237 62 104 gf180mcu_fd_sc_mcu9t5v0__clkinv_2
* cell instance $495 m0 *1 593.6,115.92
X$495 237 64 161 238 163 gf180mcu_fd_sc_mcu9t5v0__and2_2
* cell instance $499 r0 *1 557.76,126
X$499 237 64 120 238 166 gf180mcu_fd_sc_mcu9t5v0__xnor2_2
* cell instance $501 m0 *1 577.92,75.6
X$501 238 160 64 113 83 237 gf180mcu_fd_sc_mcu9t5v0__addh_4
* cell instance $511 m0 *1 574.56,115.92
X$511 238 64 158 68 121 141 237 gf180mcu_fd_sc_mcu9t5v0__addf_2
* cell instance $515 m0 *1 577.92,85.68
X$515 131 238 237 65 121 123 gf180mcu_fd_sc_mcu9t5v0__addh_1
* cell instance $521 m0 *1 569.52,85.68
X$521 238 237 111 65 120 142 gf180mcu_fd_sc_mcu9t5v0__mux2_2
* cell instance $534 r0 *1 569.52,95.76
X$534 238 237 148 66 120 150 gf180mcu_fd_sc_mcu9t5v0__mux2_2
* cell instance $536 r0 *1 581.84,95.76
X$536 238 140 149 66 121 237 gf180mcu_fd_sc_mcu9t5v0__addh_2
* cell instance $540 r0 *1 579.6,45.36
X$540 238 69 67 85 82 84 237 gf180mcu_fd_sc_mcu9t5v0__addf_1
* cell instance $543 r0 *1 585.76,105.84
X$543 162 238 237 68 121 161 gf180mcu_fd_sc_mcu9t5v0__addh_1
* cell instance $545 m0 *1 579.6,45.36
X$545 238 237 68 69 gf180mcu_fd_sc_mcu9t5v0__clkinv_2
* cell instance $547 r0 *1 577.36,55.44
X$547 89 238 237 68 79 99 gf180mcu_fd_sc_mcu9t5v0__addh_1
* cell instance $558 r0 *1 567.28,126
X$558 238 237 157 68 120 159 gf180mcu_fd_sc_mcu9t5v0__mux2_2
* cell instance $565 m0 *1 580.16,55.44
X$565 238 89 87 237 70 gf180mcu_fd_sc_mcu9t5v0__or2_2
* cell instance $569 r0 *1 1156.4,579.6
X$569 71 237 238 171 gf180mcu_fd_sc_mcu9t5v0__dlyb_2
* cell instance $575 r0 *1 596.4,45.36
X$575 238 237 85 72 gf180mcu_fd_sc_mcu9t5v0__clkinv_2
* cell instance $577 m0 *1 474.88,55.44
X$577 73 238 101 237 74 gf180mcu_fd_sc_mcu9t5v0__xor2_2
* cell instance $587 m0 *1 494.48,55.44
X$587 238 86 237 81 92 75 gf180mcu_fd_sc_mcu9t5v0__aoi21_2
* cell instance $590 r0 *1 505.68,45.36
X$590 238 237 75 77 gf180mcu_fd_sc_mcu9t5v0__clkinv_2
* cell instance $599 r0 *1 517.44,55.44
X$599 238 80 93 237 75 94 gf180mcu_fd_sc_mcu9t5v0__nand3_2
* cell instance $604 r0 *1 507.36,55.44
X$604 238 237 102 76 78 88 gf180mcu_fd_sc_mcu9t5v0__mux2_2
* cell instance $609 r0 *1 505.12,75.6
X$609 237 116 238 132 78 117 gf180mcu_fd_sc_mcu9t5v0__oai21_2
* cell instance $615 m0 *1 576.24,55.44
X$615 238 237 79 82 gf180mcu_fd_sc_mcu9t5v0__clkinv_2
* cell instance $621 r0 *1 510.72,65.52
X$621 238 107 79 106 108 94 237 gf180mcu_fd_sc_mcu9t5v0__addf_2
* cell instance $644 m0 *1 585.76,55.44
X$644 238 237 83 84 gf180mcu_fd_sc_mcu9t5v0__clkinv_2
* cell instance $647 r0 *1 586.88,55.44
X$647 237 99 83 238 87 gf180mcu_fd_sc_mcu9t5v0__and2_2
* cell instance $674 r0 *1 574,65.52
X$674 238 237 90 113 gf180mcu_fd_sc_mcu9t5v0__clkinv_2
* cell instance $681 m0 *1 523.04,75.6
X$681 238 117 90 109 119 237 gf180mcu_fd_sc_mcu9t5v0__addh_2
* cell instance $684 r0 *1 484.4,85.68
X$684 135 144 115 91 238 237 127 gf180mcu_fd_sc_mcu9t5v0__and4_2
* cell instance $686 r0 *1 485.52,75.6
X$686 91 238 130 237 128 gf180mcu_fd_sc_mcu9t5v0__xor2_2
* cell instance $694 r0 *1 501.76,65.52
X$694 238 92 237 116 105 93 gf180mcu_fd_sc_mcu9t5v0__aoi21_2
* cell instance $696 m0 *1 494.48,75.6
X$696 238 92 93 104 115 237 gf180mcu_fd_sc_mcu9t5v0__addh_2
* cell instance $700 m0 *1 514.64,85.68
X$700 238 237 93 132 118 gf180mcu_fd_sc_mcu9t5v0__nand2_2
* cell instance $717 m0 *1 543.2,65.52
X$717 238 237 95 96 98 97 gf180mcu_fd_sc_mcu9t5v0__mux2_2
* cell instance $719 m0 *1 519.68,75.6
X$719 238 237 96 107 gf180mcu_fd_sc_mcu9t5v0__clkinv_2
* cell instance $732 r0 *1 535.92,85.68
X$732 238 237 98 139 gf180mcu_fd_sc_mcu9t5v0__clkinv_2
* cell instance $738 r0 *1 526.4,85.68
X$738 237 109 98 238 134 gf180mcu_fd_sc_mcu9t5v0__xnor2_2
* cell instance $767 r0 *1 516.88,75.6
X$767 238 133 103 237 gf180mcu_fd_sc_mcu9t5v0__clkbuf_20
* cell instance $770 m0 *1 528.08,95.76
X$770 238 103 110 237 gf180mcu_fd_sc_mcu9t5v0__clkbuf_20
* cell instance $778 m0 *1 507.92,75.6
X$778 105 238 237 107 106 118 gf180mcu_fd_sc_mcu9t5v0__addh_1
* cell instance $783 r0 *1 500.64,95.76
X$783 238 237 145 153 138 106 gf180mcu_fd_sc_mcu9t5v0__mux2_2
* cell instance $786 r0 *1 490,95.76
X$786 144 238 237 136 106 153 gf180mcu_fd_sc_mcu9t5v0__addh_1
* cell instance $788 m0 *1 489.44,95.76
X$788 135 115 106 136 238 237 137 gf180mcu_fd_sc_mcu9t5v0__and4_2
* cell instance $801 r0 *1 513.52,75.6
X$801 238 237 117 108 gf180mcu_fd_sc_mcu9t5v0__clkinv_2
* cell instance $841 r0 *1 565.6,75.6
X$841 238 120 129 237 112 gf180mcu_fd_sc_mcu9t5v0__or2_2
* cell instance $848 r0 *1 474.88,85.68
X$848 115 238 114 237 143 gf180mcu_fd_sc_mcu9t5v0__xor2_2
* cell instance $872 r0 *1 513.52,95.76
X$872 237 119 138 238 154 gf180mcu_fd_sc_mcu9t5v0__xnor2_2
* cell instance $878 m0 *1 515.2,95.76
X$878 238 237 136 119 gf180mcu_fd_sc_mcu9t5v0__clkinv_2
* cell instance $886 r0 *1 552.16,105.84
X$886 238 165 120 147 156 237 gf180mcu_fd_sc_mcu9t5v0__addh_2
* cell instance $893 r0 *1 577.92,75.6
X$893 237 121 126 238 129 gf180mcu_fd_sc_mcu9t5v0__xnor2_2
* cell instance $899 r0 *1 578.48,105.84
X$899 238 237 165 121 gf180mcu_fd_sc_mcu9t5v0__inv_2
* cell instance $902 r0 *1 584.08,85.68
X$902 237 122 238 124 126 125 gf180mcu_fd_sc_mcu9t5v0__oai21_2
* cell instance $904 r0 *1 580.72,85.68
X$904 238 237 131 122 gf180mcu_fd_sc_mcu9t5v0__clkinv_2
* cell instance $906 m0 *1 587.44,85.68
X$906 238 237 123 125 gf180mcu_fd_sc_mcu9t5v0__clkinv_2
* cell instance $908 m0 *1 580.16,95.76
X$908 237 123 151 238 142 gf180mcu_fd_sc_mcu9t5v0__xnor2_2
* cell instance $911 m0 *1 589.68,95.76
X$911 238 140 237 124 149 141 gf180mcu_fd_sc_mcu9t5v0__aoi21_2
* cell instance $950 r0 *1 5.04,569.52
X$950 238 237 170 135 gf180mcu_fd_sc_mcu9t5v0__buf_4
* cell instance $981 m0 *1 586.32,105.84
X$981 238 140 237 151 164 149 gf180mcu_fd_sc_mcu9t5v0__aoi21_2
* cell instance $988 r0 *1 593.6,95.76
X$988 141 238 149 237 150 gf180mcu_fd_sc_mcu9t5v0__xor2_2
* cell instance $1011 m0 *1 552.72,105.84
X$1011 238 237 146 147 gf180mcu_fd_sc_mcu9t5v0__clkinv_2
* cell instance $1038 m0 *1 18.48,569.52
X$1038 152 237 238 169 gf180mcu_fd_sc_mcu9t5v0__dlyb_2
* cell instance $1058 m0 *1 571.2,115.92
X$1058 238 237 158 159 gf180mcu_fd_sc_mcu9t5v0__clkinv_2
* cell instance $1065 r0 *1 1156.4,569.52
X$1065 160 237 238 172 gf180mcu_fd_sc_mcu9t5v0__dlyb_2
* cell instance $1070 r0 *1 595.28,105.84
X$1070 238 162 163 237 164 gf180mcu_fd_sc_mcu9t5v0__or2_2
* cell instance $1089 r0 *1 233.52,378
X$1089 238 167 168 237 gf180mcu_fd_sc_mcu9t5v0__dlyc_2
* cell instance $1109 r0 *1 682.64,1144.08
X$1109 173 235 237 238 gf180mcu_fd_sc_mcu9t5v0__dlya_4
* cell instance $1111 r0 *1 680.4,1144.08
X$1111 238 237 173 gf180mcu_fd_sc_mcu9t5v0__tiel
* cell instance $1113 r0 *1 628.32,1164.24
X$1113 238 237 174 gf180mcu_fd_sc_mcu9t5v0__tiel
* cell instance $1115 r0 *1 630.56,1164.24
X$1115 174 208 237 238 gf180mcu_fd_sc_mcu9t5v0__dlya_4
* cell instance $1117 r0 *1 641.76,1174.32
X$1117 175 221 237 238 gf180mcu_fd_sc_mcu9t5v0__dlya_4
* cell instance $1119 r0 *1 640.08,1164.24
X$1119 238 237 175 gf180mcu_fd_sc_mcu9t5v0__tiel
* cell instance $1121 m0 *1 642.88,1164.24
X$1121 238 237 176 gf180mcu_fd_sc_mcu9t5v0__tiel
* cell instance $1123 r0 *1 644,1164.24
X$1123 176 210 237 238 gf180mcu_fd_sc_mcu9t5v0__dlya_4
* cell instance $1125 m0 *1 650.16,1164.24
X$1125 238 237 177 gf180mcu_fd_sc_mcu9t5v0__tiel
* cell instance $1127 m0 *1 652.4,1164.24
X$1127 177 181 237 238 gf180mcu_fd_sc_mcu9t5v0__dlya_4
* cell instance $1129 r0 *1 654.64,1154.16
X$1129 178 207 237 238 gf180mcu_fd_sc_mcu9t5v0__dlya_4
* cell instance $1131 r0 *1 652.4,1154.16
X$1131 238 237 178 gf180mcu_fd_sc_mcu9t5v0__tiel
* cell instance $1133 m0 *1 653.52,1154.16
X$1133 238 237 179 gf180mcu_fd_sc_mcu9t5v0__tiel
* cell instance $1135 m0 *1 655.76,1154.16
X$1135 179 206 237 238 gf180mcu_fd_sc_mcu9t5v0__dlya_4
* cell instance $1137 r0 *1 656.32,1164.24
X$1137 238 237 180 gf180mcu_fd_sc_mcu9t5v0__tiel
* cell instance $1139 r0 *1 659.12,1164.24
X$1139 180 195 237 238 gf180mcu_fd_sc_mcu9t5v0__dlya_4
* cell instance $1144 r0 *1 671.44,1164.24
X$1144 182 197 237 238 gf180mcu_fd_sc_mcu9t5v0__dlya_4
* cell instance $1146 r0 *1 669.2,1164.24
X$1146 238 237 182 gf180mcu_fd_sc_mcu9t5v0__tiel
* cell instance $1148 m0 *1 675.92,1164.24
X$1148 183 204 237 238 gf180mcu_fd_sc_mcu9t5v0__dlya_4
* cell instance $1150 m0 *1 674.8,1174.32
X$1150 238 237 183 gf180mcu_fd_sc_mcu9t5v0__tiel
* cell instance $1152 r0 *1 678.72,1154.16
X$1152 238 237 184 gf180mcu_fd_sc_mcu9t5v0__tiel
* cell instance $1154 r0 *1 680.96,1154.16
X$1154 184 186 237 238 gf180mcu_fd_sc_mcu9t5v0__dlya_4
* cell instance $1156 m0 *1 682.08,1154.16
X$1156 185 190 237 238 gf180mcu_fd_sc_mcu9t5v0__dlya_4
* cell instance $1158 m0 *1 679.84,1154.16
X$1158 238 237 185 gf180mcu_fd_sc_mcu9t5v0__tiel
* cell instance $1163 r0 *1 688.24,1174.32
X$1163 238 237 187 gf180mcu_fd_sc_mcu9t5v0__tiel
* cell instance $1165 m0 *1 688.8,1164.24
X$1165 187 188 237 238 gf180mcu_fd_sc_mcu9t5v0__dlya_4
* cell instance $1170 r0 *1 700,1164.24
X$1170 189 202 237 238 gf180mcu_fd_sc_mcu9t5v0__dlya_4
* cell instance $1172 r0 *1 696.64,1164.24
X$1172 238 237 189 gf180mcu_fd_sc_mcu9t5v0__tiel
* cell instance $1179 r0 *1 626.08,1164.24
X$1179 238 237 191 gf180mcu_fd_sc_mcu9t5v0__tiel
* cell instance $1181 m0 *1 631.12,1164.24
X$1181 191 192 237 238 gf180mcu_fd_sc_mcu9t5v0__dlya_4
* cell instance $1188 m0 *1 623.28,1174.32
X$1188 238 237 193 gf180mcu_fd_sc_mcu9t5v0__tiel
* cell instance $1190 m0 *1 624.96,1184.4
X$1190 193 233 237 238 gf180mcu_fd_sc_mcu9t5v0__dlya_4
* cell instance $1192 m0 *1 658.56,1174.32
X$1192 194 223 237 238 gf180mcu_fd_sc_mcu9t5v0__dlya_4
* cell instance $1194 m0 *1 656.32,1174.32
X$1194 238 237 194 gf180mcu_fd_sc_mcu9t5v0__tiel
* cell instance $1199 m0 *1 670.32,1184.4
X$1199 196 225 237 238 gf180mcu_fd_sc_mcu9t5v0__dlya_4
* cell instance $1201 m0 *1 670.88,1174.32
X$1201 238 237 196 gf180mcu_fd_sc_mcu9t5v0__tiel
* cell instance $1206 r0 *1 680.96,1164.24
X$1206 198 227 237 238 gf180mcu_fd_sc_mcu9t5v0__dlya_4
* cell instance $1208 r0 *1 683.76,1174.32
X$1208 238 237 198 gf180mcu_fd_sc_mcu9t5v0__tiel
* cell instance $1210 r0 *1 700,1174.32
X$1210 238 237 199 gf180mcu_fd_sc_mcu9t5v0__tiel
* cell instance $1212 m0 *1 702.8,1174.32
X$1212 199 236 237 238 gf180mcu_fd_sc_mcu9t5v0__dlya_4
* cell instance $1214 m0 *1 700.56,1174.32
X$1214 238 237 200 gf180mcu_fd_sc_mcu9t5v0__tiel
* cell instance $1216 m0 *1 700,1184.4
X$1216 200 231 237 238 gf180mcu_fd_sc_mcu9t5v0__dlya_4
* cell instance $1218 m0 *1 713.44,1174.32
X$1218 238 237 201 gf180mcu_fd_sc_mcu9t5v0__tiel
* cell instance $1220 r0 *1 711.76,1174.32
X$1220 201 232 237 238 gf180mcu_fd_sc_mcu9t5v0__dlya_4
* cell instance $1226 m0 *1 679.84,1174.32
X$1226 205 203 237 238 gf180mcu_fd_sc_mcu9t5v0__dlya_4
* cell instance $1233 m0 *1 677.6,1174.32
X$1233 238 237 205 gf180mcu_fd_sc_mcu9t5v0__tiel
* cell instance $1247 m0 *1 634.48,1174.32
X$1247 238 237 209 gf180mcu_fd_sc_mcu9t5v0__tiel
* cell instance $1249 m0 *1 639.52,1174.32
X$1249 209 211 237 238 gf180mcu_fd_sc_mcu9t5v0__dlya_4
* cell instance $1258 r0 *1 628.32,1174.32
X$1258 238 237 212 gf180mcu_fd_sc_mcu9t5v0__tiel
* cell instance $1260 r0 *1 630.56,1174.32
X$1260 212 234 237 238 gf180mcu_fd_sc_mcu9t5v0__dlya_4
* cell instance $1262 m0 *1 637.28,1174.32
X$1262 238 237 213 gf180mcu_fd_sc_mcu9t5v0__tiel
* cell instance $1264 m0 *1 640.64,1184.4
X$1264 213 220 237 238 gf180mcu_fd_sc_mcu9t5v0__dlya_4
* cell instance $1266 r0 *1 651.28,1174.32
X$1266 214 222 237 238 gf180mcu_fd_sc_mcu9t5v0__dlya_4
* cell instance $1268 m0 *1 650.16,1184.4
X$1268 238 237 214 gf180mcu_fd_sc_mcu9t5v0__tiel
* cell instance $1270 m0 *1 656.88,1184.4
X$1270 215 224 237 238 gf180mcu_fd_sc_mcu9t5v0__dlya_4
* cell instance $1272 m0 *1 654.64,1184.4
X$1272 238 237 215 gf180mcu_fd_sc_mcu9t5v0__tiel
* cell instance $1274 r0 *1 673.12,1174.32
X$1274 216 226 237 238 gf180mcu_fd_sc_mcu9t5v0__dlya_4
* cell instance $1276 r0 *1 670.88,1174.32
X$1276 238 237 216 gf180mcu_fd_sc_mcu9t5v0__tiel
* cell instance $1278 m0 *1 687.12,1184.4
X$1278 217 218 237 238 gf180mcu_fd_sc_mcu9t5v0__dlya_4
* cell instance $1280 m0 *1 684.88,1184.4
X$1280 238 237 217 gf180mcu_fd_sc_mcu9t5v0__tiel
* cell instance $1287 m0 *1 691.04,1174.32
X$1287 228 219 237 238 gf180mcu_fd_sc_mcu9t5v0__dlya_4
* cell instance $191087 r0 *1 690.48,1174.32
X$191087 238 237 228 gf180mcu_fd_sc_mcu9t5v0__tiel
* cell instance $199306 r0 *1 702.24,1174.32
X$199306 229 230 237 238 gf180mcu_fd_sc_mcu9t5v0__dlya_4
* cell instance $199309 r0 *1 696.64,1174.32
X$199309 238 237 229 gf180mcu_fd_sc_mcu9t5v0__tiel
.ENDS pipelined_fifo

* cell gf180mcu_fd_sc_mcu9t5v0__xor3_2
* pin PWELL,VSS,gf180mcu_gnd
* pin A1
* pin Z
* pin A2
* pin A3
* pin NWELL,VDD
.SUBCKT gf180mcu_fd_sc_mcu9t5v0__xor3_2 1 5 8 11 12 14
* net 1 PWELL,VSS,gf180mcu_gnd
* net 5 A1
* net 8 Z
* net 11 A2
* net 12 A3
* net 14 NWELL,VDD
* device instance $1 r0 *1 7.17,3.342 pmos_5p0
M$1 6 4 14 14 pmos_5p0 L=0.5U W=0.915U AS=0.4026P AD=0.2379P PS=2.71U PD=1.435U
* device instance $2 r0 *1 8.19,3.342 pmos_5p0
M$2 6 12 14 14 pmos_5p0 L=0.5U W=0.915U AS=0.544125P AD=0.2379P PS=2.58U
+ PD=1.435U
* device instance $3 r0 *1 9.44,3.785 pmos_5p0
M$3 7 6 14 14 pmos_5p0 L=0.5U W=1.83U AS=0.544125P AD=0.61305P PS=2.58U PD=2.5U
* device instance $4 r0 *1 10.61,3.785 pmos_5p0
M$4 16 12 7 14 pmos_5p0 L=0.5U W=1.83U AS=0.61305P AD=0.4758P PS=2.5U PD=2.35U
* device instance $5 r0 *1 11.63,3.785 pmos_5p0
M$5 14 4 16 14 pmos_5p0 L=0.5U W=1.83U AS=0.4758P AD=0.8052P PS=2.35U PD=4.54U
* device instance $6 r0 *1 13.47,3.78 pmos_5p0
M$6 14 7 8 14 pmos_5p0 L=0.5U W=3.66U AS=1.3725P AD=1.3725P PS=6.99U PD=6.99U
* device instance $8 r0 *1 0.97,3.747 pmos_5p0
M$8 15 11 3 14 pmos_5p0 L=0.5U W=0.495U AS=0.2178P AD=0.141075P PS=1.87U
+ PD=1.065U
* device instance $9 r0 *1 2.04,3.747 pmos_5p0
M$9 15 5 14 14 pmos_5p0 L=0.5U W=0.495U AS=0.282P AD=0.141075P PS=1.715U
+ PD=1.065U
* device instance $10 r0 *1 3.34,3.537 pmos_5p0
M$10 13 3 14 14 pmos_5p0 L=0.5U W=0.915U AS=0.282P AD=0.260775P PS=1.715U
+ PD=1.485U
* device instance $11 r0 *1 4.41,3.537 pmos_5p0
M$11 4 5 13 14 pmos_5p0 L=0.5U W=0.915U AS=0.260775P AD=0.2379P PS=1.485U
+ PD=1.435U
* device instance $12 r0 *1 5.43,3.537 pmos_5p0
M$12 13 11 4 14 pmos_5p0 L=0.5U W=0.915U AS=0.2379P AD=0.4026P PS=1.435U
+ PD=2.71U
* device instance $13 r0 *1 13.52,1.005 nmos_5p0
M$13 1 7 8 1 nmos_5p0 L=0.6U W=2.64U AS=0.924P AD=0.924P PS=5.36U PD=5.36U
* device instance $15 r0 *1 0.92,1.015 nmos_5p0
M$15 3 11 1 1 nmos_5p0 L=0.6U W=0.36U AS=0.1584P AD=0.0936P PS=1.6U PD=0.88U
* device instance $16 r0 *1 2.04,1.015 nmos_5p0
M$16 1 5 3 1 nmos_5p0 L=0.6U W=0.36U AS=0.0936P AD=0.186P PS=0.88U PD=1.36U
* device instance $17 r0 *1 3.34,1.165 nmos_5p0
M$17 4 3 1 1 nmos_5p0 L=0.6U W=0.66U AS=0.186P AD=0.1716P PS=1.36U PD=1.18U
* device instance $18 r0 *1 4.46,1.165 nmos_5p0
M$18 9 5 4 1 nmos_5p0 L=0.6U W=0.66U AS=0.1716P AD=0.1056P PS=1.18U PD=0.98U
* device instance $19 r0 *1 5.38,1.165 nmos_5p0
M$19 1 11 9 1 nmos_5p0 L=0.6U W=0.66U AS=0.1056P AD=0.2904P PS=0.98U PD=2.2U
* device instance $20 r0 *1 7.22,1.165 nmos_5p0
M$20 10 4 6 1 nmos_5p0 L=0.6U W=0.66U AS=0.2904P AD=0.1056P PS=2.2U PD=0.98U
* device instance $21 r0 *1 8.14,1.165 nmos_5p0
M$21 10 12 1 1 nmos_5p0 L=0.6U W=0.66U AS=0.363P AD=0.1056P PS=2.02U PD=0.98U
* device instance $22 r0 *1 9.44,1.005 nmos_5p0
M$22 2 6 1 1 nmos_5p0 L=0.6U W=1.32U AS=0.363P AD=0.3432P PS=2.02U PD=1.84U
* device instance $23 r0 *1 10.56,1.005 nmos_5p0
M$23 7 12 2 1 nmos_5p0 L=0.6U W=1.32U AS=0.3432P AD=0.3432P PS=1.84U PD=1.84U
* device instance $24 r0 *1 11.68,1.005 nmos_5p0
M$24 2 4 7 1 nmos_5p0 L=0.6U W=1.32U AS=0.3432P AD=0.5808P PS=1.84U PD=3.52U
.ENDS gf180mcu_fd_sc_mcu9t5v0__xor3_2

* cell gf180mcu_fd_sc_mcu9t5v0__aoi211_2
* pin A2
* pin A1
* pin B
* pin ZN
* pin C
* pin NWELL,VDD
* pin PWELL,VSS,gf180mcu_gnd
.SUBCKT gf180mcu_fd_sc_mcu9t5v0__aoi211_2 1 2 4 5 6 7 8
* net 1 A2
* net 2 A1
* net 4 B
* net 5 ZN
* net 6 C
* net 7 NWELL,VDD
* net 8 PWELL,VSS,gf180mcu_gnd
* device instance $1 r0 *1 0.87,3.78 pmos_5p0
M$1 5 1 3 7 pmos_5p0 L=0.5U W=3.66U AS=1.281P AD=1.3359P PS=6.89U PD=5.12U
* device instance $2 r0 *1 1.89,3.78 pmos_5p0
M$2 3 2 5 7 pmos_5p0 L=0.5U W=3.66U AS=0.9516P AD=0.9516P PS=4.7U PD=4.7U
* device instance $5 r0 *1 5.37,3.78 pmos_5p0
M$5 10 4 3 7 pmos_5p0 L=0.5U W=1.83U AS=0.8601P AD=0.2196P PS=2.77U PD=2.07U
* device instance $6 r0 *1 6.11,3.78 pmos_5p0
M$6 7 6 10 7 pmos_5p0 L=0.5U W=1.83U AS=0.2196P AD=0.549P PS=2.07U PD=2.43U
* device instance $7 r0 *1 7.21,3.78 pmos_5p0
M$7 9 6 7 7 pmos_5p0 L=0.5U W=1.83U AS=0.549P AD=0.4392P PS=2.43U PD=2.31U
* device instance $8 r0 *1 8.19,3.78 pmos_5p0
M$8 3 4 9 7 pmos_5p0 L=0.5U W=1.83U AS=0.4392P AD=0.8052P PS=2.31U PD=4.54U
* device instance $9 r0 *1 5.02,0.745 nmos_5p0
M$9 5 4 8 8 nmos_5p0 L=0.6U W=1.58U AS=0.5609P AD=0.553P PS=3.195U PD=3.77U
* device instance $10 r0 *1 6.14,0.745 nmos_5p0
M$10 8 6 5 8 nmos_5p0 L=0.6U W=1.58U AS=0.4108P AD=0.4108P PS=2.62U PD=2.62U
* device instance $13 r0 *1 0.92,0.942 nmos_5p0
M$13 12 1 8 8 nmos_5p0 L=0.6U W=1.185U AS=0.5214P AD=0.1422P PS=3.25U PD=1.425U
* device instance $14 r0 *1 1.76,0.942 nmos_5p0
M$14 5 2 12 8 nmos_5p0 L=0.6U W=1.185U AS=0.1422P AD=0.3081P PS=1.425U PD=1.705U
* device instance $15 r0 *1 2.88,0.942 nmos_5p0
M$15 11 2 5 8 nmos_5p0 L=0.6U W=1.185U AS=0.3081P AD=0.1422P PS=1.705U PD=1.425U
* device instance $16 r0 *1 3.72,0.942 nmos_5p0
M$16 8 1 11 8 nmos_5p0 L=0.6U W=1.185U AS=0.1422P AD=0.3555P PS=1.425U PD=1.885U
.ENDS gf180mcu_fd_sc_mcu9t5v0__aoi211_2

* cell gf180mcu_fd_sc_mcu9t5v0__buf_2
* pin I
* pin NWELL,VDD
* pin PWELL,VSS,gf180mcu_gnd
* pin Z
.SUBCKT gf180mcu_fd_sc_mcu9t5v0__buf_2 1 2 3 5
* net 1 I
* net 2 NWELL,VDD
* net 3 PWELL,VSS,gf180mcu_gnd
* net 5 Z
* device instance $1 r0 *1 0.87,3.78 pmos_5p0
M$1 2 1 4 2 pmos_5p0 L=0.5U W=1.83U AS=0.8052P AD=0.5673P PS=4.54U PD=2.45U
* device instance $2 r0 *1 1.99,3.78 pmos_5p0
M$2 5 4 2 2 pmos_5p0 L=0.5U W=3.66U AS=1.1346P AD=1.3725P PS=4.9U PD=6.99U
* device instance $4 r0 *1 0.92,1.005 nmos_5p0
M$4 3 1 4 3 nmos_5p0 L=0.6U W=1.32U AS=0.5808P AD=0.3432P PS=3.52U PD=1.84U
* device instance $5 r0 *1 2.04,1.005 nmos_5p0
M$5 5 4 3 3 nmos_5p0 L=0.6U W=2.64U AS=0.6864P AD=0.924P PS=3.68U PD=5.36U
.ENDS gf180mcu_fd_sc_mcu9t5v0__buf_2

* cell gf180mcu_fd_sc_mcu9t5v0__nor3_4
* pin A2
* pin NWELL,VDD
* pin A3
* pin ZN
* pin PWELL,VSS,gf180mcu_gnd
* pin A1
.SUBCKT gf180mcu_fd_sc_mcu9t5v0__nor3_4 1 2 3 4 5 6
* net 1 A2
* net 2 NWELL,VDD
* net 3 A3
* net 4 ZN
* net 5 PWELL,VSS,gf180mcu_gnd
* net 6 A1
* device instance $1 r0 *1 0.87,3.78 pmos_5p0
M$1 12 1 7 2 pmos_5p0 L=0.5U W=1.83U AS=0.8052P AD=0.5673P PS=4.54U PD=2.45U
* device instance $2 r0 *1 1.99,3.78 pmos_5p0
M$2 2 3 12 2 pmos_5p0 L=0.5U W=1.83U AS=0.5673P AD=0.5673P PS=2.45U PD=2.45U
* device instance $3 r0 *1 3.11,3.78 pmos_5p0
M$3 11 3 2 2 pmos_5p0 L=0.5U W=1.83U AS=0.5673P AD=0.5673P PS=2.45U PD=2.45U
* device instance $4 r0 *1 4.23,3.78 pmos_5p0
M$4 7 1 11 2 pmos_5p0 L=0.5U W=1.83U AS=0.5673P AD=0.5673P PS=2.45U PD=2.45U
* device instance $5 r0 *1 5.35,3.78 pmos_5p0
M$5 9 1 7 2 pmos_5p0 L=0.5U W=1.83U AS=0.5673P AD=0.5673P PS=2.45U PD=2.45U
* device instance $6 r0 *1 6.47,3.78 pmos_5p0
M$6 2 3 9 2 pmos_5p0 L=0.5U W=1.83U AS=0.5673P AD=0.5673P PS=2.45U PD=2.45U
* device instance $7 r0 *1 7.59,3.78 pmos_5p0
M$7 8 3 2 2 pmos_5p0 L=0.5U W=1.83U AS=0.5673P AD=0.5673P PS=2.45U PD=2.45U
* device instance $8 r0 *1 8.71,3.78 pmos_5p0
M$8 10 1 8 2 pmos_5p0 L=0.5U W=1.83U AS=0.5673P AD=0.5673P PS=2.45U PD=2.45U
* device instance $9 r0 *1 9.83,3.78 pmos_5p0
M$9 4 6 10 2 pmos_5p0 L=0.5U W=1.83U AS=0.5673P AD=0.5673P PS=2.45U PD=2.45U
* device instance $10 r0 *1 10.95,3.78 pmos_5p0