
* cell configurable_comparator
* pin a[3]
* pin a[0]
* pin b[3]
* pin b[1]
* pin b[5]
* pin b[2]
* pin a[1]
* pin b[4]
* pin a[5]
* pin b[0]
* pin a[4]
* pin b[8]
* pin a[2]
* pin a[15]
* pin b[9]
* pin a[6]
* pin a[9]
* pin b[15]
* pin a[8]
* pin a[7]
* pin b[7]
* pin signed_mode
* pin b[6]
* pin a[12]
* pin a[10]
* pin a[11]
* pin b[12]
* pin b[11]
* pin op_sel[0]
* pin b[10]
* pin result
* pin a[13]
* pin b[14]
* pin op_sel[1]
* pin op_sel[2]
* pin b[13]
* pin a[14]
.SUBCKT configurable_comparator 3 8 12 19 26 30 31 32 33 40 45 48 49 55 63 70
+ 75 81 85 87 88 94 102 103 110 111 115 122 126 128 130 133 144 145 146 153 156
* net 3 a[3]
* net 8 a[0]
* net 12 b[3]
* net 19 b[1]
* net 26 b[5]
* net 30 b[2]
* net 31 a[1]
* net 32 b[4]
* net 33 a[5]
* net 40 b[0]
* net 45 a[4]
* net 48 b[8]
* net 49 a[2]
* net 55 a[15]
* net 63 b[9]
* net 70 a[6]
* net 75 a[9]
* net 81 b[15]
* net 85 a[8]
* net 87 a[7]
* net 88 b[7]
* net 94 signed_mode
* net 102 b[6]
* net 103 a[12]
* net 110 a[10]
* net 111 a[11]
* net 115 b[12]
* net 122 b[11]
* net 126 op_sel[0]
* net 128 b[10]
* net 130 result
* net 133 a[13]
* net 144 b[14]
* net 145 op_sel[1]
* net 146 op_sel[2]
* net 153 b[13]
* net 156 a[14]
* cell instance $6507 m0 *1 293.02,138.72
X$6507 1 5 4 10 9 2 2 1 sky130_fd_sc_hd__ha_2
* cell instance $6510 r0 *1 296.7,133.28
X$6510 2 3 9 1 2 1 sky130_fd_sc_hd__clkbuf_1
* cell instance $6516 m0 *1 303.6,138.72
X$6516 2 8 13 1 2 1 sky130_fd_sc_hd__clkbuf_1
* cell instance $6521 m0 *1 1.38,144.16
X$6521 2 26 17 1 2 1 sky130_fd_sc_hd__clkbuf_1
* cell instance $6522 m0 *1 2.76,144.16
X$6522 2 17 2 1 20 1 sky130_fd_sc_hd__inv_1
* cell instance $6761 m0 *1 287.96,144.16
X$6761 1 18 44 24 5 2 25 2 1 sky130_fd_sc_hd__o211ai_4
* cell instance $6766 r0 *1 292.56,138.72
X$6766 1 11 4 16 5 2 2 1 sky130_fd_sc_hd__a21oi_4
* cell instance $6767 m0 *1 295.78,144.16
X$6767 1 24 16 22 36 2 2 1 sky130_fd_sc_hd__ha_1
* cell instance $6768 r0 *1 298.54,138.72
X$6768 2 6 2 1 10 1 sky130_fd_sc_hd__inv_1
* cell instance $6770 m0 *1 300.38,144.16
X$6770 1 23 18 21 15 2 2 1 sky130_fd_sc_hd__ha_1
* cell instance $6772 r0 *1 301.3,138.72
X$6772 2 12 6 1 2 1 sky130_fd_sc_hd__clkbuf_1
* cell instance $6773 r0 *1 302.68,138.72
X$6773 2 13 2 1 14 1 sky130_fd_sc_hd__inv_1
* cell instance $6775 r0 *1 304.52,138.72
X$6775 2 31 21 1 2 1 sky130_fd_sc_hd__clkbuf_1
* cell instance $6778 r0 *1 305.9,138.72
X$6778 2 7 2 1 15 1 sky130_fd_sc_hd__inv_1
* cell instance $6779 r0 *1 307.28,138.72
X$6779 2 19 7 1 2 1 sky130_fd_sc_hd__clkbuf_1
* cell instance $6781 r0 *1 1.38,144.16
X$6781 2 32 27 1 2 1 sky130_fd_sc_hd__clkbuf_1
* cell instance $6782 r0 *1 2.76,144.16
X$6782 1 46 51 28 20 2 2 1 sky130_fd_sc_hd__ha_1
* cell instance $6783 r0 *1 7.36,144.16
X$6783 2 33 28 1 2 1 sky130_fd_sc_hd__clkbuf_1
* cell instance $6922 r0 *1 292.1,144.16
X$6922 1 24 5 23 29 2 60 2 1 sky130_fd_sc_hd__nand4_4
* cell instance $6923 r0 *1 299.92,144.16
X$6923 1 29 42 14 35 2 2 1 sky130_fd_sc_hd__ha_1
* cell instance $6924 r0 *1 304.52,144.16
X$6924 2 34 2 1 36 1 sky130_fd_sc_hd__inv_1
* cell instance $6925 r0 *1 305.9,144.16
X$6925 2 40 35 1 2 1 sky130_fd_sc_hd__clkbuf_1
* cell instance $6927 r0 *1 307.74,144.16
X$6927 2 48 39 1 2 1 sky130_fd_sc_hd__clkbuf_1
* cell instance $6928 m0 *1 1.38,149.6
X$6928 2 45 37 1 2 1 sky130_fd_sc_hd__clkbuf_1
* cell instance $6929 m0 *1 2.76,149.6
X$6929 2 27 2 1 41 1 sky130_fd_sc_hd__inv_1
* cell instance $6931 m0 *1 5.06,149.6
X$6931 1 65 38 37 41 2 2 1 sky130_fd_sc_hd__ha_1
* cell instance $6932 m0 *1 9.66,149.6
X$6932 2 51 46 38 1 2 52 1 sky130_fd_sc_hd__a21oi_1
* cell instance $6937 m0 *1 18.4,149.6
X$6937 1 53 25 59 54 43 11 2 2 1 sky130_fd_sc_hd__a2111o_1
* cell instance $7038 m0 *1 298.08,149.6
X$7038 2 42 23 44 1 2 1 sky130_fd_sc_hd__nor2b_1
* cell instance $7040 m0 *1 300.84,149.6
X$7040 2 49 22 1 2 1 sky130_fd_sc_hd__clkbuf_1
* cell instance $7043 m0 *1 303.6,149.6
X$7043 2 39 2 1 50 1 sky130_fd_sc_hd__inv_1
* cell instance $7045 m0 *1 305.44,149.6
X$7045 2 30 34 1 2 1 sky130_fd_sc_hd__clkbuf_1
* cell instance $7048 r0 *1 1.38,149.6
X$7048 2 55 56 1 2 1 sky130_fd_sc_hd__clkbuf_1
* cell instance $7049 r0 *1 2.76,149.6
X$7049 2 70 76 1 2 1 sky130_fd_sc_hd__clkbuf_1
* cell instance $7051 r0 *1 4.6,149.6
X$7051 2 46 47 57 65 2 59 1 1 sky130_fd_sc_hd__nand4_1
* cell instance $7053 r0 *1 7.36,149.6
X$7053 2 47 57 66 2 1 1 sky130_fd_sc_hd__nand2_1
* cell instance $7054 r0 *1 8.74,149.6
X$7054 2 97 47 67 1 2 58 1 sky130_fd_sc_hd__a21oi_1
* cell instance $7056 r0 *1 11.04,149.6
X$7056 2 66 52 58 2 68 1 1 sky130_fd_sc_hd__o21ai_0
* cell instance $7064 r0 *1 17.48,149.6
X$7064 1 69 43 54 59 60 2 2 1 sky130_fd_sc_hd__nor4_2
* cell instance $7196 r0 *1 299.46,149.6
X$7196 2 63 61 1 2 1 sky130_fd_sc_hd__clkbuf_1
* cell instance $7197 r0 *1 300.84,149.6
X$7197 2 61 2 1 64 1 sky130_fd_sc_hd__inv_1
* cell instance $7199 r0 *1 302.68,149.6
X$7199 1 80 78 62 64 2 2 1 sky130_fd_sc_hd__ha_1
* cell instance $7201 r0 *1 307.74,149.6
X$7201 2 75 62 1 2 1 sky130_fd_sc_hd__clkbuf_1
* cell instance $7202 m0 *1 1.38,155.04
X$7202 2 102 71 1 2 1 sky130_fd_sc_hd__clkbuf_1
* cell instance $7203 m0 *1 2.76,155.04
X$7203 2 71 2 1 77 1 sky130_fd_sc_hd__inv_1
* cell instance $7205 m0 *1 5.06,155.04
X$7205 1 57 67 76 77 2 2 1 sky130_fd_sc_hd__ha_1
* cell instance $7206 m0 *1 9.66,155.04
X$7206 1 72 82 56 98 2 2 1 sky130_fd_sc_hd__ha_1
* cell instance $7207 m0 *1 14.26,155.04
X$7207 1 86 68 72 82 83 84 2 2 1 sky130_fd_sc_hd__a221oi_1
* cell instance $7209 m0 *1 18.4,155.04
X$7209 2 43 54 83 1 2 1 sky130_fd_sc_hd__nor2_1
* cell instance $7311 m0 *1 300.38,155.04
X$7311 1 99 74 73 50 2 2 1 sky130_fd_sc_hd__ha_1
* cell instance $7313 m0 *1 305.44,155.04
X$7313 2 78 80 74 1 2 79 1 sky130_fd_sc_hd__a21oi_1
* cell instance $7314 m0 *1 307.28,155.04
X$7314 2 85 73 1 2 1 sky130_fd_sc_hd__clkbuf_1
* cell instance $7316 r0 *1 1.38,155.04
X$7316 2 95 2 1 96 1 sky130_fd_sc_hd__inv_1
* cell instance $7318 r0 *1 3.22,155.04
X$7318 2 87 89 1 2 1 sky130_fd_sc_hd__clkbuf_1
* cell instance $7320 r0 *1 5.06,155.04
X$7320 1 47 97 89 96 2 2 1 sky130_fd_sc_hd__ha_1
* cell instance $7322 r0 *1 10.12,155.04
X$7322 2 81 90 1 2 1 sky130_fd_sc_hd__clkbuf_1
* cell instance $7323 r0 *1 11.5,155.04
X$7323 2 90 2 1 98 1 sky130_fd_sc_hd__inv_1
* cell instance $7331 r0 *1 16.56,155.04
X$7331 2 100 106 53 86 1 2 120 1 sky130_fd_sc_hd__and4_1
* cell instance $7333 r0 *1 21.62,155.04
X$7333 2 91 72 100 1 2 1 sky130_fd_sc_hd__nand2b_1
* cell instance $7463 r0 *1 293.94,155.04
X$7463 2 94 2 1 91 1 sky130_fd_sc_hd__buf_4
* cell instance $7465 r0 *1 298.54,155.04
X$7465 2 93 92 101 2 1 1 sky130_fd_sc_hd__nand2_1
* cell instance $7466 r0 *1 299.92,155.04
X$7466 1 99 93 92 80 2 54 2 1 sky130_fd_sc_hd__nand4_4
* cell instance $7470 m0 *1 2.3,160.48
X$7470 1 104 124 123 112 2 2 1 sky130_fd_sc_hd__ha_1
* cell instance $7471 m0 *1 6.9,160.48
X$7471 1 104 113 105 72 2 43 2 1 sky130_fd_sc_hd__nand4_2
* cell instance $7474 m0 *1 16.1,160.48
X$7474 2 106 53 86 100 1 2 107 1 sky130_fd_sc_hd__a31oi_1
* cell instance $7476 m0 *1 20.24,160.48
X$7476 2 108 43 106 1 2 1 sky130_fd_sc_hd__nand2b_1
* cell instance $7578 m0 *1 299,160.48
X$7578 1 101 140 79 108 2 2 1 sky130_fd_sc_hd__o21ai_4
* cell instance $7581 m0 *1 306.36,160.48
X$7581 2 109 2 1 114 1 sky130_fd_sc_hd__inv_1
* cell instance $7582 m0 *1 307.74,160.48
X$7582 2 122 109 1 2 1 sky130_fd_sc_hd__clkbuf_1
* cell instance $7583 r0 *1 1.38,160.48
X$7583 2 88 95 1 2 1 sky130_fd_sc_hd__clkbuf_1
* cell instance $7584 r0 *1 2.76,160.48
X$7584 2 115 138 1 2 1 sky130_fd_sc_hd__clkbuf_1
* cell instance $7585 r0 *1 4.14,160.48
X$7585 2 103 123 1 2 1 sky130_fd_sc_hd__clkbuf_1
* cell instance $7587 r0 *1 6.44,160.48
X$7587 2 105 113 124 116 2 1 1 sky130_fd_sc_hd__nand3_1
* cell instance $7588 r0 *1 8.28,160.48
X$7588 2 116 151 84 2 1 1 sky130_fd_sc_hd__nand2_1
* cell instance $7590 r0 *1 10.12,160.48
X$7590 2 125 130 1 2 1 sky130_fd_sc_hd__clkbuf_1
* cell instance $7591 r0 *1 11.5,160.48
X$7591 1 125 117 131 127 132 136 2 2 1 sky130_fd_sc_hd__a2111oi_1
* cell instance $7596 r0 *1 15.64,160.48
X$7596 2 117 118 119 2 1 1 sky130_fd_sc_hd__nand2_1
* cell instance $7597 r0 *1 17.02,160.48
X$7597 2 107 120 119 127 1 2 1 sky130_fd_sc_hd__nor3_1
* cell instance $7731 r0 *1 302.22,160.48
X$7731 2 110 142 1 2 1 sky130_fd_sc_hd__clkbuf_1
* cell instance $7733 r0 *1 304.52,160.48
X$7733 1 93 129 121 114 2 2 1 sky130_fd_sc_hd__ha_1
* cell instance $7736 m0 *1 2.76,165.92
X$7736 2 138 2 1 112 1 sky130_fd_sc_hd__inv_1
* cell instance $7737 m0 *1 4.14,165.92
X$7737 2 126 135 1 2 1 sky130_fd_sc_hd__clkbuf_1
* cell instance $7738 m0 *1 5.52,165.92
X$7738 1 113 152 139 134 2 2 1 sky130_fd_sc_hd__ha_1
* cell instance $7740 m0 *1 10.58,165.92
X$7740 2 69 135 2 141 1 1 sky130_fd_sc_hd__xor2_1
* cell instance $7741 m0 *1 13.8,165.92
X$7741 2 135 69 118 2 1 1 sky130_fd_sc_hd__nand2_1
* cell instance $7742 m0 *1 15.18,165.92
X$7742 1 132 69 107 120 118 136 2 2 1 sky130_fd_sc_hd__o311a_1
* cell instance $7845 m0 *1 300.38,165.92
X$7845 1 92 137 142 143 2 2 1 sky130_fd_sc_hd__ha_1
* cell instance $7847 m0 *1 305.44,165.92
X$7847 2 129 93 137 1 2 140 1 sky130_fd_sc_hd__a21oi_1
* cell instance $7849 m0 *1 307.74,165.92
X$7849 2 111 121 1 2 1 sky130_fd_sc_hd__clkbuf_1
* cell instance $7850 r0 *1 1.38,165.92
X$7850 2 133 139 1 2 1 sky130_fd_sc_hd__clkbuf_1
* cell instance $7852 r0 *1 3.22,165.92
X$7852 1 105 147 149 150 2 2 1 sky130_fd_sc_hd__ha_1
* cell instance $7854 r0 *1 8.28,165.92
X$7854 2 147 105 152 1 2 151 1 sky130_fd_sc_hd__a21oi_1
* cell instance $7857 r0 *1 11.5,165.92
X$7857 2 136 117 141 131 1 2 1 sky130_fd_sc_hd__nor3_1
* cell instance $7998 r0 *1 304.98,165.92
X$7998 2 148 2 1 143 1 sky130_fd_sc_hd__inv_1
* cell instance $7999 r0 *1 306.36,165.92
X$7999 2 128 148 1 2 1 sky130_fd_sc_hd__clkbuf_1
* cell instance $8002 m0 *1 1.38,171.36
X$8002 2 144 154 1 2 1 sky130_fd_sc_hd__clkbuf_1
* cell instance $8003 m0 *1 2.76,171.36
X$8003 2 153 155 1 2 1 sky130_fd_sc_hd__clkbuf_1
* cell instance $8004 m0 *1 4.14,171.36
X$8004 2 155 2 1 134 1 sky130_fd_sc_hd__inv_1
* cell instance $8005 m0 *1 5.52,171.36
X$8005 2 154 2 1 150 1 sky130_fd_sc_hd__inv_1
* cell instance $8006 m0 *1 6.9,171.36
X$8006 2 146 136 1 2 1 sky130_fd_sc_hd__clkbuf_1
* cell instance $8009 m0 *1 9.66,171.36
X$8009 2 145 117 1 2 1 sky130_fd_sc_hd__clkbuf_1
* cell instance $8123 r0 *1 4.6,171.36
X$8123 2 156 149 1 2 1 sky130_fd_sc_hd__clkbuf_1
.ENDS configurable_comparator

* cell sky130_fd_sc_hd__a21oi_4
* pin VGND
* pin Y
* pin B1
* pin A2
* pin A1
* pin VPWR
* pin VPB
* pin 
.SUBCKT sky130_fd_sc_hd__a21oi_4 1 2 4 5 6 7 8 10
* net 1 VGND
* net 2 Y
* net 4 B1
* net 5 A2
* net 6 A1
* net 7 VPWR
* net 8 VPB
* device instance $1 r0 *1 0.475,1.985 pfet_01v8_hvt
M$1 2 4 9 8 pfet_01v8_hvt L=150000U W=4000000U AS=680000000000P
+ AD=575000000000P PS=6360000U PD=5150000U
* device instance $5 r0 *1 2.225,1.985 pfet_01v8_hvt
M$5 7 5 9 8 pfet_01v8_hvt L=150000U W=4000000U AS=575000000000P
+ AD=690000000000P PS=5150000U PD=6380000U
* device instance $6 r0 *1 2.665,1.985 pfet_01v8_hvt
M$6 9 6 7 8 pfet_01v8_hvt L=150000U W=4000000U AS=565000000000P
+ AD=560000000000P PS=5130000U PD=5120000U
* device instance $13 r0 *1 0.475,0.56 nfet_01v8
M$13 2 4 1 10 nfet_01v8 L=150000U W=2600000U AS=445250000000P AD=377000000000P
+ PS=4620000U PD=3760000U
* device instance $17 r0 *1 2.235,0.56 nfet_01v8
M$17 3 5 1 10 nfet_01v8 L=150000U W=2600000U AS=377000000000P AD=445250000000P
+ PS=3760000U PD=4620000U
* device instance $18 r0 *1 2.665,0.56 nfet_01v8
M$18 2 6 3 10 nfet_01v8 L=150000U W=2600000U AS=364000000000P AD=364000000000P
+ PS=3720000U PD=3720000U
.ENDS sky130_fd_sc_hd__a21oi_4

* cell sky130_fd_sc_hd__nor2b_1
* pin VPB
* pin A
* pin B_N
* pin Y
* pin VGND
* pin VPWR
* pin 
.SUBCKT sky130_fd_sc_hd__nor2b_1 1 2 3 4 6 7 8
* net 1 VPB
* net 2 A
* net 3 B_N
* net 4 Y
* net 6 VGND
* net 7 VPWR
* device instance $1 r0 *1 0.71,1.695 pfet_01v8_hvt
M$1 7 3 5 1 pfet_01v8_hvt L=150000U W=420000U AS=109200000000P AD=157300000000P
+ PS=1360000U PD=1390000U
* device instance $2 r0 *1 1.25,1.985 pfet_01v8_hvt
M$2 9 2 7 1 pfet_01v8_hvt L=150000U W=1000000U AS=157300000000P
+ AD=105000000000P PS=1390000U PD=1210000U
* device instance $3 r0 *1 1.61,1.985 pfet_01v8_hvt
M$3 4 5 9 1 pfet_01v8_hvt L=150000U W=1000000U AS=105000000000P
+ AD=260000000000P PS=1210000U PD=2520000U
* device instance $4 r0 *1 0.705,0.445 nfet_01v8
M$4 6 3 5 8 nfet_01v8 L=150000U W=420000U AS=109200000000P AD=100250000000P
+ PS=1360000U PD=985000U
* device instance $5 r0 *1 1.19,0.56 nfet_01v8
M$5 4 2 6 8 nfet_01v8 L=150000U W=650000U AS=100250000000P AD=87750000000P
+ PS=985000U PD=920000U
* device instance $6 r0 *1 1.61,0.56 nfet_01v8
M$6 6 5 4 8 nfet_01v8 L=150000U W=650000U AS=87750000000P AD=169000000000P
+ PS=920000U PD=1820000U
.ENDS sky130_fd_sc_hd__nor2b_1

* cell sky130_fd_sc_hd__ha_2
* pin VGND
* pin SUM
* pin COUT
* pin B
* pin A
* pin VPWR
* pin VPB
* pin 
.SUBCKT sky130_fd_sc_hd__ha_2 1 2 6 7 8 10 11 13
* net 1 VGND
* net 2 SUM
* net 6 COUT
* net 7 B
* net 8 A
* net 10 VPWR
* net 11 VPB
* device instance $1 r0 *1 0.47,1.985 pfet_01v8_hvt
M$1 2 3 10 11 pfet_01v8_hvt L=150000U W=2000000U AS=415000000000P
+ AD=446600000000P PS=3830000U PD=3075000U
* device instance $3 r0 *1 1.845,2.165 pfet_01v8_hvt
M$3 3 5 10 11 pfet_01v8_hvt L=150000U W=640000U AS=291600000000P
+ AD=86400000000P PS=1765000U PD=910000U
* device instance $4 r0 *1 2.265,2.165 pfet_01v8_hvt
M$4 12 7 3 11 pfet_01v8_hvt L=150000U W=640000U AS=86400000000P
+ AD=128000000000P PS=910000U PD=1040000U
* device instance $5 r0 *1 2.815,2.165 pfet_01v8_hvt
M$5 10 8 12 11 pfet_01v8_hvt L=150000U W=640000U AS=128000000000P
+ AD=227200000000P PS=1040000U PD=1350000U
* device instance $6 r0 *1 3.675,2.165 pfet_01v8_hvt
M$6 5 7 10 11 pfet_01v8_hvt L=150000U W=640000U AS=227200000000P
+ AD=92800000000P PS=1350000U PD=930000U
* device instance $7 r0 *1 4.115,2.165 pfet_01v8_hvt
M$7 5 8 10 11 pfet_01v8_hvt L=150000U W=640000U AS=149000000000P
+ AD=92800000000P PS=1325000U PD=930000U
* device instance $8 r0 *1 4.59,1.985 pfet_01v8_hvt
M$8 6 5 10 11 pfet_01v8_hvt L=150000U W=2000000U AS=304000000000P
+ AD=415000000000P PS=2635000U PD=3830000U
* device instance $10 r0 *1 3.755,0.445 nfet_01v8
M$10 9 7 5 13 nfet_01v8 L=150000U W=420000U AS=109200000000P AD=44100000000P
+ PS=1360000U PD=630000U
* device instance $11 r0 *1 4.115,0.445 nfet_01v8
M$11 1 8 9 13 nfet_01v8 L=150000U W=420000U AS=44100000000P AD=97000000000P
+ PS=630000U PD=975000U
* device instance $12 r0 *1 4.59,0.56 nfet_01v8
M$12 6 5 1 13 nfet_01v8 L=150000U W=1300000U AS=197750000000P AD=269750000000P
+ PS=1935000U PD=2780000U
* device instance $14 r0 *1 0.47,0.56 nfet_01v8
M$14 2 3 1 13 nfet_01v8 L=150000U W=1300000U AS=269750000000P AD=269750000000P
+ PS=2780000U PD=2780000U
* device instance $16 r0 *1 1.87,0.445 nfet_01v8
M$16 4 5 3 13 nfet_01v8 L=150000U W=420000U AS=109200000000P AD=56700000000P
+ PS=1360000U PD=690000U
* device instance $17 r0 *1 2.29,0.445 nfet_01v8
M$17 1 7 4 13 nfet_01v8 L=150000U W=420000U AS=56700000000P AD=56700000000P
+ PS=690000U PD=690000U
* device instance $18 r0 *1 2.71,0.445 nfet_01v8
M$18 4 8 1 13 nfet_01v8 L=150000U W=420000U AS=56700000000P AD=109200000000P
+ PS=690000U PD=1360000U
.ENDS sky130_fd_sc_hd__ha_2

* cell sky130_fd_sc_hd__o211ai_4
* pin VGND
* pin A1
* pin A2
* pin C1
* pin B1
* pin VPWR
* pin Y
* pin VPB
* pin 
.SUBCKT sky130_fd_sc_hd__o211ai_4 1 2 3 4 6 10 11 12 14
* net 1 VGND
* net 2 A1
* net 3 A2
* net 4 C1
* net 6 B1
* net 10 VPWR
* net 11 Y
* net 12 VPB
* device instance $1 r0 *1 0.475,1.985 pfet_01v8_hvt
M$1 13 2 10 12 pfet_01v8_hvt L=150000U W=4000000U AS=685000000000P
+ AD=580000000000P PS=6370000U PD=5160000U
* device instance $4 r0 *1 1.765,1.985 pfet_01v8_hvt
M$4 11 3 13 12 pfet_01v8_hvt L=150000U W=4000000U AS=560000000000P
+ AD=560000000000P PS=5120000U PD=5120000U
* device instance $9 r0 *1 3.955,1.985 pfet_01v8_hvt
M$9 11 6 10 12 pfet_01v8_hvt L=150000U W=4000000U AS=575000000000P AD=1.09e+12P
+ PS=5150000U PD=7180000U
* device instance $12 r0 *1 5.235,1.985 pfet_01v8_hvt
M$12 10 4 11 12 pfet_01v8_hvt L=150000U W=4000000U AS=540000000000P
+ AD=540000000000P PS=5080000U PD=5080000U
* device instance $17 r0 *1 0.475,0.56 nfet_01v8
M$17 1 2 5 14 nfet_01v8 L=150000U W=2600000U AS=448500000000P AD=373750000000P
+ PS=4630000U PD=3750000U
* device instance $20 r0 *1 1.765,0.56 nfet_01v8
M$20 5 3 1 14 nfet_01v8 L=150000U W=2600000U AS=364000000000P AD=367250000000P
+ PS=3720000U PD=3730000U
* device instance $25 r0 *1 3.955,0.56 nfet_01v8
M$25 7 6 5 14 nfet_01v8 L=150000U W=1300000U AS=191750000000P AD=182000000000P
+ PS=1890000U PD=1860000U
* device instance $27 r0 *1 4.815,0.56 nfet_01v8
M$27 9 6 5 14 nfet_01v8 L=150000U W=650000U AS=91000000000P AD=87750000000P
+ PS=930000U PD=920000U
* device instance $28 r0 *1 5.235,0.56 nfet_01v8
M$28 11 4 9 14 nfet_01v8 L=150000U W=650000U AS=87750000000P AD=87750000000P
+ PS=920000U PD=920000U
* device instance $29 r0 *1 5.655,0.56 nfet_01v8
M$29 7 4 11 14 nfet_01v8 L=150000U W=1300000U AS=175500000000P AD=175500000000P
+ PS=1840000U PD=1840000U
* device instance $31 r0 *1 6.495,0.56 nfet_01v8
M$31 8 4 11 14 nfet_01v8 L=150000U W=650000U AS=87750000000P AD=104000000000P
+ PS=920000U PD=970000U
* device instance $32 r0 *1 6.965,0.56 nfet_01v8
M$32 5 6 8 14 nfet_01v8 L=150000U W=650000U AS=104000000000P AD=256750000000P
+ PS=970000U PD=2090000U
.ENDS sky130_fd_sc_hd__o211ai_4

* cell sky130_fd_sc_hd__o21ai_0
* pin VPB
* pin A1
* pin A2
* pin B1
* pin VPWR
* pin Y
* pin VGND
* pin 
.SUBCKT sky130_fd_sc_hd__o21ai_0 1 2 3 4 5 6 8 9
* net 1 VPB
* net 2 A1
* net 3 A2
* net 4 B1
* net 5 VPWR
* net 6 Y
* net 8 VGND
* device instance $1 r0 *1 0.525,2.165 pfet_01v8_hvt
M$1 10 2 5 1 pfet_01v8_hvt L=150000U W=640000U AS=169600000000P AD=76800000000P
+ PS=1810000U PD=880000U
* device instance $2 r0 *1 0.915,2.165 pfet_01v8_hvt
M$2 6 3 10 1 pfet_01v8_hvt L=150000U W=640000U AS=76800000000P AD=89600000000P
+ PS=880000U PD=920000U
* device instance $3 r0 *1 1.345,2.165 pfet_01v8_hvt
M$3 5 4 6 1 pfet_01v8_hvt L=150000U W=640000U AS=89600000000P AD=182400000000P
+ PS=920000U PD=1850000U
* device instance $4 r0 *1 0.5,0.445 nfet_01v8
M$4 8 2 7 9 nfet_01v8 L=150000U W=420000U AS=111300000000P AD=58800000000P
+ PS=1370000U PD=700000U
* device instance $5 r0 *1 0.93,0.445 nfet_01v8
M$5 7 3 8 9 nfet_01v8 L=150000U W=420000U AS=58800000000P AD=58800000000P
+ PS=700000U PD=700000U
* device instance $6 r0 *1 1.36,0.445 nfet_01v8
M$6 6 4 7 9 nfet_01v8 L=150000U W=420000U AS=58800000000P AD=111300000000P
+ PS=700000U PD=1370000U
.ENDS sky130_fd_sc_hd__o21ai_0

* cell sky130_fd_sc_hd__nand4_1
* pin VPB
* pin C
* pin A
* pin B
* pin D
* pin VPWR
* pin Y
* pin VGND
* pin 
.SUBCKT sky130_fd_sc_hd__nand4_1 1 2 3 4 5 6 7 8 9
* net 1 VPB
* net 2 C
* net 3 A
* net 4 B
* net 5 D
* net 6 VPWR
* net 7 Y
* net 8 VGND
* device instance $1 r0 *1 0.47,1.985 pfet_01v8_hvt
M$1 7 5 6 1 pfet_01v8_hvt L=150000U W=1000000U AS=260000000000P
+ AD=135000000000P PS=2520000U PD=1270000U
* device instance $2 r0 *1 0.89,1.985 pfet_01v8_hvt
M$2 6 2 7 1 pfet_01v8_hvt L=150000U W=1000000U AS=135000000000P
+ AD=135000000000P PS=1270000U PD=1270000U
* device instance $3 r0 *1 1.31,1.985 pfet_01v8_hvt
M$3 7 4 6 1 pfet_01v8_hvt L=150000U W=1000000U AS=135000000000P
+ AD=165000000000P PS=1270000U PD=1330000U
* device instance $4 r0 *1 1.79,1.985 pfet_01v8_hvt
M$4 6 3 7 1 pfet_01v8_hvt L=150000U W=1000000U AS=165000000000P
+ AD=300000000000P PS=1330000U PD=2600000U
* device instance $5 r0 *1 0.47,0.56 nfet_01v8
M$5 12 5 8 9 nfet_01v8 L=150000U W=650000U AS=169000000000P AD=87750000000P
+ PS=1820000U PD=920000U
* device instance $6 r0 *1 0.89,0.56 nfet_01v8
M$6 11 2 12 9 nfet_01v8 L=150000U W=650000U AS=87750000000P AD=87750000000P
+ PS=920000U PD=920000U
* device instance $7 r0 *1 1.31,0.56 nfet_01v8
M$7 10 4 11 9 nfet_01v8 L=150000U W=650000U AS=87750000000P AD=107250000000P
+ PS=920000U PD=980000U
* device instance $8 r0 *1 1.79,0.56 nfet_01v8
M$8 7 3 10 9 nfet_01v8 L=150000U W=650000U AS=107250000000P AD=195000000000P
+ PS=980000U PD=1900000U
.ENDS sky130_fd_sc_hd__nand4_1

* cell sky130_fd_sc_hd__a2111o_1
* pin VGND
* pin X
* pin A1
* pin D1
* pin C1
* pin B1
* pin A2
* pin VPB
* pin VPWR
* pin 
.SUBCKT sky130_fd_sc_hd__a2111o_1 1 2 4 5 6 7 8 11 12 15
* net 1 VGND
* net 2 X
* net 4 A1
* net 5 D1
* net 6 C1
* net 7 B1
* net 8 A2
* net 11 VPB
* net 12 VPWR
* device instance $1 r0 *1 1.595,1.985 pfet_01v8_hvt
M$1 13 5 3 11 pfet_01v8_hvt L=150000U W=1000000U AS=385000000000P
+ AD=125000000000P PS=2770000U PD=1250000U
* device instance $2 r0 *1 1.995,1.985 pfet_01v8_hvt
M$2 14 6 13 11 pfet_01v8_hvt L=150000U W=1000000U AS=125000000000P
+ AD=180000000000P PS=1250000U PD=1360000U
* device instance $3 r0 *1 2.505,1.985 pfet_01v8_hvt
M$3 10 7 14 11 pfet_01v8_hvt L=150000U W=1000000U AS=180000000000P
+ AD=280000000000P PS=1360000U PD=1560000U
* device instance $4 r0 *1 3.215,1.985 pfet_01v8_hvt
M$4 12 4 10 11 pfet_01v8_hvt L=150000U W=1000000U AS=280000000000P
+ AD=135000000000P PS=1560000U PD=1270000U
* device instance $5 r0 *1 3.635,1.985 pfet_01v8_hvt
M$5 10 8 12 11 pfet_01v8_hvt L=150000U W=1000000U AS=135000000000P
+ AD=290000000000P PS=1270000U PD=2580000U
* device instance $6 r0 *1 0.5,1.985 pfet_01v8_hvt
M$6 12 3 2 11 pfet_01v8_hvt L=150000U W=1000000U AS=290000000000P
+ AD=265000000000P PS=2580000U PD=2530000U
* device instance $7 r0 *1 0.54,0.56 nfet_01v8
M$7 1 3 2 15 nfet_01v8 L=150000U W=650000U AS=214500000000P AD=274625000000P
+ PS=1960000U PD=1495000U
* device instance $8 r0 *1 1.535,0.56 nfet_01v8
M$8 3 5 1 15 nfet_01v8 L=150000U W=650000U AS=274625000000P AD=100750000000P
+ PS=1495000U PD=960000U
* device instance $9 r0 *1 1.995,0.56 nfet_01v8
M$9 1 6 3 15 nfet_01v8 L=150000U W=650000U AS=100750000000P AD=117000000000P
+ PS=960000U PD=1010000U
* device instance $10 r0 *1 2.505,0.56 nfet_01v8
M$10 3 7 1 15 nfet_01v8 L=150000U W=650000U AS=117000000000P AD=185250000000P
+ PS=1010000U PD=1220000U
* device instance $11 r0 *1 3.225,0.56 nfet_01v8
M$11 9 4 3 15 nfet_01v8 L=150000U W=650000U AS=185250000000P AD=82875000000P
+ PS=1220000U PD=905000U
* device instance $12 r0 *1 3.63,0.56 nfet_01v8
M$12 1 8 9 15 nfet_01v8 L=150000U W=650000U AS=82875000000P AD=188500000000P
+ PS=905000U PD=1880000U
.ENDS sky130_fd_sc_hd__a2111o_1

* cell sky130_fd_sc_hd__nor4_2
* pin VGND
* pin Y
* pin A
* pin B
* pin C
* pin D
* pin VPWR
* pin VPB
* pin 
.SUBCKT sky130_fd_sc_hd__nor4_2 1 2 3 4 5 6 8 11 12
* net 1 VGND
* net 2 Y
* net 3 A
* net 4 B
* net 5 C
* net 6 D
* net 8 VPWR
* net 11 VPB
* device instance $1 r0 *1 2.73,1.985 pfet_01v8_hvt
M$1 9 5 10 11 pfet_01v8_hvt L=150000U W=2000000U AS=415000000000P
+ AD=270000000000P PS=3830000U PD=2540000U
* device instance $3 r0 *1 3.57,1.985 pfet_01v8_hvt
M$3 2 6 10 11 pfet_01v8_hvt L=150000U W=2000000U AS=270000000000P
+ AD=395000000000P PS=2540000U PD=3790000U
* device instance $5 r0 *1 0.49,1.985 pfet_01v8_hvt
M$5 8 3 7 11 pfet_01v8_hvt L=150000U W=2000000U AS=415000000000P
+ AD=270000000000P PS=3830000U PD=2540000U
* device instance $7 r0 *1 1.33,1.985 pfet_01v8_hvt
M$7 9 4 7 11 pfet_01v8_hvt L=150000U W=2000000U AS=270000000000P
+ AD=415000000000P PS=2540000U PD=3830000U
* device instance $9 r0 *1 2.73,0.56 nfet_01v8
M$9 2 5 1 12 nfet_01v8 L=150000U W=1300000U AS=269750000000P AD=175500000000P
+ PS=2780000U PD=1840000U
* device instance $11 r0 *1 3.57,0.56 nfet_01v8
M$11 2 6 1 12 nfet_01v8 L=150000U W=1300000U AS=175500000000P AD=256750000000P
+ PS=1840000U PD=2740000U
* device instance $13 r0 *1 0.49,0.56 nfet_01v8
M$13 2 3 1 12 nfet_01v8 L=150000U W=1300000U AS=269750000000P AD=175500000000P
+ PS=2780000U PD=1840000U
* device instance $15 r0 *1 1.33,0.56 nfet_01v8
M$15 2 4 1 12 nfet_01v8 L=150000U W=1300000U AS=175500000000P AD=269750000000P
+ PS=1840000U PD=2780000U
.ENDS sky130_fd_sc_hd__nor4_2

* cell sky130_fd_sc_hd__a2111oi_1
* pin VGND
* pin Y
* pin A2
* pin D1
* pin C1
* pin B1
* pin A1
* pin VPWR
* pin VPB
* pin 
.SUBCKT sky130_fd_sc_hd__a2111oi_1 1 2 3 4 5 6 7 10 11 14
* net 1 VGND
* net 2 Y
* net 3 A2
* net 4 D1
* net 5 C1
* net 6 B1
* net 7 A1
* net 10 VPWR
* net 11 VPB
* device instance $1 r0 *1 1.01,1.985 pfet_01v8_hvt
M$1 12 4 2 11 pfet_01v8_hvt L=150000U W=1000000U AS=755000000000P
+ AD=172500000000P PS=3510000U PD=1345000U
* device instance $2 r0 *1 1.505,1.985 pfet_01v8_hvt
M$2 13 5 12 11 pfet_01v8_hvt L=150000U W=1000000U AS=172500000000P
+ AD=185000000000P PS=1345000U PD=1370000U
* device instance $3 r0 *1 2.025,1.985 pfet_01v8_hvt
M$3 9 6 13 11 pfet_01v8_hvt L=150000U W=1000000U AS=185000000000P
+ AD=290000000000P PS=1370000U PD=1580000U
* device instance $4 r0 *1 2.755,1.985 pfet_01v8_hvt
M$4 10 7 9 11 pfet_01v8_hvt L=150000U W=1000000U AS=290000000000P
+ AD=137500000000P PS=1580000U PD=1275000U
* device instance $5 r0 *1 3.18,1.985 pfet_01v8_hvt
M$5 9 3 10 11 pfet_01v8_hvt L=150000U W=1000000U AS=137500000000P
+ AD=290000000000P PS=1275000U PD=2580000U
* device instance $6 r0 *1 0.97,0.56 nfet_01v8
M$6 2 4 1 14 nfet_01v8 L=150000U W=650000U AS=481000000000P AD=125125000000P
+ PS=2780000U PD=1035000U
* device instance $7 r0 *1 1.505,0.56 nfet_01v8
M$7 1 5 2 14 nfet_01v8 L=150000U W=650000U AS=125125000000P AD=120250000000P
+ PS=1035000U PD=1020000U
* device instance $8 r0 *1 2.025,0.56 nfet_01v8
M$8 2 6 1 14 nfet_01v8 L=150000U W=650000U AS=120250000000P AD=191750000000P
+ PS=1020000U PD=1240000U
* device instance $9 r0 *1 2.765,0.56 nfet_01v8
M$9 8 7 2 14 nfet_01v8 L=150000U W=650000U AS=191750000000P AD=84500000000P
+ PS=1240000U PD=910000U
* device instance $10 r0 *1 3.175,0.56 nfet_01v8
M$10 1 3 8 14 nfet_01v8 L=150000U W=650000U AS=84500000000P AD=191750000000P
+ PS=910000U PD=1890000U
.ENDS sky130_fd_sc_hd__a2111oi_1

* cell sky130_fd_sc_hd__xor2_1
* pin VPB
* pin B
* pin A
* pin VPWR
* pin X
* pin VGND
* pin 
.SUBCKT sky130_fd_sc_hd__xor2_1 1 2 3 6 7 8 9
* net 1 VPB
* net 2 B
* net 3 A
* net 6 VPWR
* net 7 X
* net 8 VGND
* device instance $1 r0 *1 2.71,1.985 pfet_01v8_hvt
M$1 7 4 5 1 pfet_01v8_hvt L=150000U W=1000000U AS=260000000000P
+ AD=300000000000P PS=2520000U PD=2600000U
* device instance $2 r0 *1 0.51,1.985 pfet_01v8_hvt
M$2 10 2 4 1 pfet_01v8_hvt L=150000U W=1000000U AS=260000000000P
+ AD=135000000000P PS=2520000U PD=1270000U
* device instance $3 r0 *1 0.93,1.985 pfet_01v8_hvt
M$3 6 3 10 1 pfet_01v8_hvt L=150000U W=1000000U AS=135000000000P
+ AD=135000000000P PS=1270000U PD=1270000U
* device instance $4 r0 *1 1.35,1.985 pfet_01v8_hvt
M$4 5 3 6 1 pfet_01v8_hvt L=150000U W=1000000U AS=135000000000P
+ AD=135000000000P PS=1270000U PD=1270000U
* device instance $5 r0 *1 1.77,1.985 pfet_01v8_hvt
M$5 6 2 5 1 pfet_01v8_hvt L=150000U W=1000000U AS=135000000000P
+ AD=260000000000P PS=1270000U PD=2520000U
* device instance $6 r0 *1 0.51,0.56 nfet_01v8
M$6 4 2 8 9 nfet_01v8 L=150000U W=650000U AS=169000000000P AD=87750000000P
+ PS=1820000U PD=920000U
* device instance $7 r0 *1 0.93,0.56 nfet_01v8
M$7 8 3 4 9 nfet_01v8 L=150000U W=650000U AS=87750000000P AD=87750000000P
+ PS=920000U PD=920000U
* device instance $8 r0 *1 1.35,0.56 nfet_01v8
M$8 11 3 8 9 nfet_01v8 L=150000U W=650000U AS=87750000000P AD=87750000000P
+ PS=920000U PD=920000U
* device instance $9 r0 *1 1.77,0.56 nfet_01v8
M$9 7 2 11 9 nfet_01v8 L=150000U W=650000U AS=87750000000P AD=250250000000P
+ PS=920000U PD=1420000U
* device instance $10 r0 *1 2.69,0.56 nfet_01v8
M$10 8 4 7 9 nfet_01v8 L=150000U W=650000U AS=250250000000P AD=208000000000P
+ PS=1420000U PD=1940000U
.ENDS sky130_fd_sc_hd__xor2_1

* cell sky130_fd_sc_hd__nor3_1
* pin VPB
* pin A
* pin B
* pin C
* pin Y
* pin VGND
* pin VPWR
* pin 
.SUBCKT sky130_fd_sc_hd__nor3_1 1 2 3 4 5 6 7 8
* net 1 VPB
* net 2 A
* net 3 B
* net 4 C
* net 5 Y
* net 6 VGND
* net 7 VPWR
* device instance $1 r0 *1 0.47,1.985 pfet_01v8_hvt
M$1 10 4 5 1 pfet_01v8_hvt L=150000U W=1000000U AS=260000000000P
+ AD=135000000000P PS=2520000U PD=1270000U
* device instance $2 r0 *1 0.89,1.985 pfet_01v8_hvt
M$2 9 3 10 1 pfet_01v8_hvt L=150000U W=1000000U AS=135000000000P
+ AD=135000000000P PS=1270000U PD=1270000U
* device instance $3 r0 *1 1.31,1.985 pfet_01v8_hvt
M$3 7 2 9 1 pfet_01v8_hvt L=150000U W=1000000U AS=135000000000P
+ AD=260000000000P PS=1270000U PD=2520000U
* device instance $4 r0 *1 0.47,0.56 nfet_01v8
M$4 6 4 5 8 nfet_01v8 L=150000U W=650000U AS=169000000000P AD=87750000000P
+ PS=1820000U PD=920000U
* device instance $5 r0 *1 0.89,0.56 nfet_01v8
M$5 5 3 6 8 nfet_01v8 L=150000U W=650000U AS=87750000000P AD=87750000000P
+ PS=920000U PD=920000U
* device instance $6 r0 *1 1.31,0.56 nfet_01v8
M$6 6 2 5 8 nfet_01v8 L=150000U W=650000U AS=87750000000P AD=169000000000P
+ PS=920000U PD=1820000U
.ENDS sky130_fd_sc_hd__nor3_1

* cell sky130_fd_sc_hd__o311a_1
* pin VGND
* pin X
* pin A1
* pin A2
* pin A3
* pin B1
* pin C1
* pin VPWR
* pin VPB
* pin 
.SUBCKT sky130_fd_sc_hd__o311a_1 1 2 5 6 7 8 9 11 12 15
* net 1 VGND
* net 2 X
* net 5 A1
* net 6 A2
* net 7 A3
* net 8 B1
* net 9 C1
* net 11 VPWR
* net 12 VPB
* device instance $1 r0 *1 0.48,1.985 pfet_01v8_hvt
M$1 11 4 2 12 pfet_01v8_hvt L=150000U W=1000000U AS=260000000000P
+ AD=312500000000P PS=2520000U PD=1625000U
* device instance $2 r0 *1 1.255,1.985 pfet_01v8_hvt
M$2 14 5 11 12 pfet_01v8_hvt L=150000U W=1000000U AS=312500000000P
+ AD=180000000000P PS=1625000U PD=1360000U
* device instance $3 r0 *1 1.765,1.985 pfet_01v8_hvt
M$3 13 6 14 12 pfet_01v8_hvt L=150000U W=1000000U AS=180000000000P
+ AD=210000000000P PS=1360000U PD=1420000U
* device instance $4 r0 *1 2.335,1.985 pfet_01v8_hvt
M$4 4 7 13 12 pfet_01v8_hvt L=150000U W=1000000U AS=210000000000P
+ AD=137500000000P PS=1420000U PD=1275000U
* device instance $5 r0 *1 2.76,1.985 pfet_01v8_hvt
M$5 11 8 4 12 pfet_01v8_hvt L=150000U W=1000000U AS=137500000000P
+ AD=150000000000P PS=1275000U PD=1300000U
* device instance $6 r0 *1 3.21,1.985 pfet_01v8_hvt
M$6 4 9 11 12 pfet_01v8_hvt L=150000U W=1000000U AS=150000000000P
+ AD=260000000000P PS=1300000U PD=2520000U
* device instance $7 r0 *1 0.48,0.56 nfet_01v8