
* cell configurable_sync_fifo
* pin clk
* pin rst_n
* pin rd_en
* pin fill_level[4]
* pin wr_en
* pin data_in[3]
* pin data_in[7]
* pin full
* pin empty
* pin almost_full
* pin fill_level[2]
* pin fill_level[3]
* pin almost_empty
* pin fill_level[0]
* pin fill_level[1]
* pin data_out[3]
* pin data_out[7]
* pin data_out[6]
* pin data_out[4]
* pin data_in[6]
* pin data_in[4]
* pin data_out[2]
* pin data_out[5]
* pin data_out[1]
* pin data_out[0]
* pin data_in[2]
* pin data_in[5]
* pin data_in[0]
* pin data_in[1]
* pin NWELL
* pin PWELL,gf180mcu_gnd
.SUBCKT configurable_sync_fifo 1 2 3 4 5 6 7 8 9 10 11 12 13 14 15 16 17 620
+ 621 622 623 624 625 626 627 628 629 630 631 632 633
* net 1 clk
* net 2 rst_n
* net 3 rd_en
* net 4 fill_level[4]
* net 5 wr_en
* net 6 data_in[3]
* net 7 data_in[7]
* net 8 full
* net 9 empty
* net 10 almost_full
* net 11 fill_level[2]
* net 12 fill_level[3]
* net 13 almost_empty
* net 14 fill_level[0]
* net 15 fill_level[1]
* net 16 data_out[3]
* net 17 data_out[7]
* net 620 data_out[6]
* net 621 data_out[4]
* net 622 data_in[6]
* net 623 data_in[4]
* net 624 data_out[2]
* net 625 data_out[5]
* net 626 data_out[1]
* net 627 data_out[0]
* net 628 data_in[2]
* net 629 data_in[5]
* net 630 data_in[0]
* net 631 data_in[1]
* net 632 NWELL
* net 633 PWELL,gf180mcu_gnd
* cell instance $2 r0 *1 1181.6,196.56
X$2 633 1 109 632 gf180mcu_fd_sc_mcu9t5v0__clkbuf_20
* cell instance $6 r0 *1 1142.96,5.04
X$6 633 23 2 632 gf180mcu_fd_sc_mcu9t5v0__dlyc_2
* cell instance $10 r0 *1 1155.28,5.04
X$10 3 632 633 22 gf180mcu_fd_sc_mcu9t5v0__dlyb_2
* cell instance $15 r0 *1 1163.68,5.04
X$15 18 632 633 4 gf180mcu_fd_sc_mcu9t5v0__dlyb_2
* cell instance $19 m0 *1 1165.36,15.12
X$19 5 632 633 43 gf180mcu_fd_sc_mcu9t5v0__dlyb_2
* cell instance $23 m0 *1 1211.84,15.12
X$23 633 632 6 39 gf180mcu_fd_sc_mcu9t5v0__clkbuf_3
* cell instance $26 m0 *1 1168.16,25.2
X$26 633 632 7 44 gf180mcu_fd_sc_mcu9t5v0__clkbuf_3
* cell instance $31 r0 *1 1172.08,5.04
X$31 21 632 633 8 gf180mcu_fd_sc_mcu9t5v0__dlyb_2
* cell instance $34 m0 *1 1173.76,15.12
X$34 30 632 633 9 gf180mcu_fd_sc_mcu9t5v0__dlyb_2
* cell instance $38 r0 *1 1180.48,5.04
X$38 33 632 633 10 gf180mcu_fd_sc_mcu9t5v0__dlyb_2
* cell instance $43 r0 *1 1206.8,5.04
X$43 31 632 633 11 gf180mcu_fd_sc_mcu9t5v0__dlyb_2
* cell instance $46 r0 *1 1198.4,5.04
X$46 19 632 633 12 gf180mcu_fd_sc_mcu9t5v0__dlyb_2
* cell instance $51 r0 *1 1188.88,5.04
X$51 34 632 633 13 gf180mcu_fd_sc_mcu9t5v0__dlyb_2
* cell instance $55 m0 *1 1198.4,15.12
X$55 35 632 633 14 gf180mcu_fd_sc_mcu9t5v0__dlyb_2
* cell instance $59 r0 *1 1206.24,15.12
X$59 36 632 633 15 gf180mcu_fd_sc_mcu9t5v0__dlyb_2
* cell instance $62 r0 *1 1245.44,5.04
X$62 20 632 633 16 gf180mcu_fd_sc_mcu9t5v0__dlyb_2
* cell instance $67 r0 *1 1228.64,5.04
X$67 40 632 633 17 gf180mcu_fd_sc_mcu9t5v0__dlyb_2
* cell instance $70 m0 *1 1144.08,25.2
X$70 633 29 18 25 61 632 gf180mcu_fd_sc_mcu9t5v0__dffrnq_2
* cell instance $73 m0 *1 1160.32,15.12
X$73 632 18 26 633 21 gf180mcu_fd_sc_mcu9t5v0__and2_2
* cell instance $75 r0 *1 1155.28,15.12
X$75 633 632 18 27 gf180mcu_fd_sc_mcu9t5v0__inv_2
* cell instance $77 r0 *1 1158.08,25.2
X$77 633 85 18 26 46 632 gf180mcu_fd_sc_mcu9t5v0__aoi21_4
* cell instance $79 m0 *1 1183.84,15.12
X$79 54 31 18 34 19 632 633 gf180mcu_fd_sc_mcu9t5v0__aoi211_2
* cell instance $81 r0 *1 1137.92,25.2
X$81 633 60 26 18 70 46 632 gf180mcu_fd_sc_mcu9t5v0__aoi211_4
* cell instance $91 m0 *1 1185.52,65.52
X$91 633 73 47 19 50 632 gf180mcu_fd_sc_mcu9t5v0__addh_2
* cell instance $94 r0 *1 1174.88,15.12
X$94 633 26 35 19 31 36 632 gf180mcu_fd_sc_mcu9t5v0__nor4_4
* cell instance $96 m0 *1 1176.56,55.44
X$96 633 29 19 58 90 632 gf180mcu_fd_sc_mcu9t5v0__dffrnq_2
* cell instance $101 m0 *1 1177.12,65.52
X$101 633 632 90 48 41 19 gf180mcu_fd_sc_mcu9t5v0__mux2_2
* cell instance $104 m0 *1 1176,25.2
X$104 633 632 19 32 31 gf180mcu_fd_sc_mcu9t5v0__nand2_2
* cell instance $113 m0 *1 1240.4,115.92
X$113 633 29 20 115 141 632 gf180mcu_fd_sc_mcu9t5v0__dffrnq_2
* cell instance $115 m0 *1 1251.6,126
X$115 632 164 633 148 165 20 gf180mcu_fd_sc_mcu9t5v0__oai21_2
* cell instance $125 m0 *1 1155.28,15.12
X$125 633 632 22 28 gf180mcu_fd_sc_mcu9t5v0__clkinv_2
* cell instance $130 r0 *1 1138.48,5.04
X$130 23 632 633 24 gf180mcu_fd_sc_mcu9t5v0__buf_2
* cell instance $133 r0 *1 1128.96,65.52
X$133 633 70 24 80 146 85 632 gf180mcu_fd_sc_mcu9t5v0__and4_4
* cell instance $136 r0 *1 1122.8,65.52
X$136 24 632 80 60 633 81 gf180mcu_fd_sc_mcu9t5v0__and3_2
* cell instance $139 r0 *1 1117.76,65.52
X$139 632 24 79 633 78 gf180mcu_fd_sc_mcu9t5v0__and2_2
* cell instance $143 r0 *1 1116.64,25.2
X$143 633 24 29 632 gf180mcu_fd_sc_mcu9t5v0__clkbuf_12
* cell instance $148 r0 *1 1114.4,85.68
X$148 633 29 105 25 91 632 gf180mcu_fd_sc_mcu9t5v0__dffrnq_2
* cell instance $150 r0 *1 1145.76,85.68
X$150 633 29 93 25 104 632 gf180mcu_fd_sc_mcu9t5v0__dffrnq_2
* cell instance $152 r0 *1 1114.4,55.44
X$152 633 29 80 25 76 632 gf180mcu_fd_sc_mcu9t5v0__dffrnq_2
* cell instance $154 r0 *1 1131.76,45.36
X$154 633 29 70 25 69 632 gf180mcu_fd_sc_mcu9t5v0__dffrnq_2
* cell instance $156 m0 *1 1158.08,95.76
X$156 633 109 25 632 gf180mcu_fd_sc_mcu9t5v0__clkbuf_20
* cell instance $159 r0 *1 1158.08,95.76
X$159 633 25 632 gf180mcu_fd_sc_mcu9t5v0__clkbuf_16
* cell instance $161 r0 *1 1164.8,85.68
X$161 633 110 25 108 632 gf180mcu_fd_sc_mcu9t5v0__dffq_2
* cell instance $173 r0 *1 1168.16,15.12
X$173 632 27 26 633 30 gf180mcu_fd_sc_mcu9t5v0__and2_2
* cell instance $177 r0 *1 1138.48,15.12
X$177 633 96 27 26 28 632 gf180mcu_fd_sc_mcu9t5v0__aoi21_4
* cell instance $187 m0 *1 1143.52,45.36
X$187 632 27 62 633 61 gf180mcu_fd_sc_mcu9t5v0__xnor2_2
* cell instance $189 m0 *1 1175.44,35.28
X$189 633 632 27 33 32 gf180mcu_fd_sc_mcu9t5v0__nand2_2
* cell instance $198 m0 *1 1200.08,65.52
X$198 633 29 35 58 87 632 gf180mcu_fd_sc_mcu9t5v0__dffrnq_2
* cell instance $202 m0 *1 1204.56,115.92
X$202 633 29 40 58 157 632 gf180mcu_fd_sc_mcu9t5v0__dffrnq_2
* cell instance $204 m0 *1 1204,25.2
X$204 633 29 36 58 42 632 gf180mcu_fd_sc_mcu9t5v0__dffrnq_2
* cell instance $207 r0 *1 1190.56,25.2
X$207 633 29 31 58 57 632 gf180mcu_fd_sc_mcu9t5v0__dffrnq_2
* cell instance $211 r0 *1 1267.28,277.2
X$211 633 29 487 358 467 632 gf180mcu_fd_sc_mcu9t5v0__dffrnq_4
* cell instance $215 r0 *1 1121.68,166.32
X$215 633 29 212 172 248 632 gf180mcu_fd_sc_mcu9t5v0__dffrnq_2
* cell instance $218 r0 *1 1156.96,176.4
X$218 633 29 213 125 247 632 gf180mcu_fd_sc_mcu9t5v0__dffrnq_2
* cell instance $222 m0 *1 1163.68,156.24
X$222 633 29 190 125 203 632 gf180mcu_fd_sc_mcu9t5v0__dffrnq_2
* cell instance $226 m0 *1 1128.4,317.52
X$226 633 29 557 479 526 632 gf180mcu_fd_sc_mcu9t5v0__dffrnq_4
* cell instance $228 r0 *1 1178.8,236.88
X$228 633 29 375 353 384 632 gf180mcu_fd_sc_mcu9t5v0__dffrnq_4
* cell instance $231 r0 *1 1148.56,317.52
X$231 633 29 558 529 570 632 gf180mcu_fd_sc_mcu9t5v0__dffrnq_4
* cell instance $233 r0 *1 1139.04,156.24
X$233 633 29 204 172 228 632 gf180mcu_fd_sc_mcu9t5v0__dffrnq_4
* cell instance $236 r0 *1 1267.28,317.52
X$236 633 29 542 521 541 632 gf180mcu_fd_sc_mcu9t5v0__dffrnq_4
* cell instance $240 m0 *1 1261.68,327.6
X$240 633 29 565 521 564 632 gf180mcu_fd_sc_mcu9t5v0__dffrnq_4
* cell instance $279 r0 *1 1197.84,35.28
X$279 645 633 632 31 50 59 gf180mcu_fd_sc_mcu9t5v0__addh_1
* cell instance $282 r0 *1 1189.44,35.28
X$282 633 632 57 66 41 31 gf180mcu_fd_sc_mcu9t5v0__mux2_2
* cell instance $287 r0 *1 1171.52,25.2
X$287 49 633 632 31 50 51 gf180mcu_fd_sc_mcu9t5v0__addh_1
* cell instance $304 m0 *1 1188.88,25.2
X$304 35 632 56 59 633 37 gf180mcu_fd_sc_mcu9t5v0__and3_2
* cell instance $308 r0 *1 1193.92,55.44
X$308 632 35 86 633 87 gf180mcu_fd_sc_mcu9t5v0__xnor2_2
* cell instance $311 m0 *1 1186.64,45.36
X$311 633 632 35 55 gf180mcu_fd_sc_mcu9t5v0__clkinv_2
* cell instance $328 m0 *1 1184.4,35.28
X$328 633 632 36 53 gf180mcu_fd_sc_mcu9t5v0__clkinv_2
* cell instance $330 r0 *1 1181.04,25.2
X$330 72 633 632 36 50 56 gf180mcu_fd_sc_mcu9t5v0__addh_1
* cell instance $333 r0 *1 1196.72,15.12
X$333 633 632 42 38 41 36 gf180mcu_fd_sc_mcu9t5v0__mux2_2
* cell instance $339 r0 *1 1184.4,55.44
X$339 72 51 49 89 37 632 633 gf180mcu_fd_sc_mcu9t5v0__aoi211_2
* cell instance $344 r0 *1 1186.08,45.36
X$344 633 632 74 38 gf180mcu_fd_sc_mcu9t5v0__clkinv_2
* cell instance $351 r0 *1 1227.52,85.68
X$351 633 632 103 39 112 100 gf180mcu_fd_sc_mcu9t5v0__mux2_2
* cell instance $354 m0 *1 1258.88,176.4
X$354 633 632 278 39 178 271 gf180mcu_fd_sc_mcu9t5v0__mux2_2
* cell instance $357 r0 *1 1218,85.68
X$357 633 632 113 39 128 114 gf180mcu_fd_sc_mcu9t5v0__mux2_2
* cell instance $360 m0 *1 1223.04,156.24
X$360 633 632 205 39 187 219 gf180mcu_fd_sc_mcu9t5v0__mux2_2
* cell instance $362 r0 *1 1216.32,176.4
X$362 633 632 282 39 186 264 gf180mcu_fd_sc_mcu9t5v0__mux2_2
* cell instance $364 r0 *1 1235.92,85.68
X$364 633 632 117 39 124 118 gf180mcu_fd_sc_mcu9t5v0__mux2_2
* cell instance $368 r0 *1 1244.32,126
X$368 39 632 633 135 gf180mcu_fd_sc_mcu9t5v0__buf_3
* cell instance $375 r0 *1 1205.68,126
X$375 632 170 633 148 171 40 gf180mcu_fd_sc_mcu9t5v0__oai21_2
* cell instance $386 r0 *1 1193.36,45.36
X$386 633 632 86 41 gf180mcu_fd_sc_mcu9t5v0__clkinv_3
* cell instance $388 r0 *1 1170.96,55.44
X$388 632 50 41 633 45 gf180mcu_fd_sc_mcu9t5v0__and2_2
* cell instance $390 r0 *1 1188.88,65.52
X$390 632 71 41 633 88 gf180mcu_fd_sc_mcu9t5v0__and2_2
* cell instance $403 r0 *1 1163.12,15.12
X$403 633 632 43 46 gf180mcu_fd_sc_mcu9t5v0__clkinv_2
* cell instance $406 m0 *1 1182.72,156.24
X$406 633 632 206 44 186 191 gf180mcu_fd_sc_mcu9t5v0__mux2_2
* cell instance $408 m0 *1 1199.52,156.24
X$408 633 632 192 44 187 215 gf180mcu_fd_sc_mcu9t5v0__mux2_2
* cell instance $410 r0 *1 1262.8,136.08
X$410 633 632 180 44 178 179 gf180mcu_fd_sc_mcu9t5v0__mux2_2
* cell instance $412 m0 *1 1174.32,105.84
X$412 633 632 108 44 128 110 gf180mcu_fd_sc_mcu9t5v0__mux2_2
* cell instance $414 m0 *1 1198.4,95.76
X$414 633 632 98 44 112 111 gf180mcu_fd_sc_mcu9t5v0__mux2_2
* cell instance $416 m0 *1 1201.76,105.84
X$416 633 632 99 44 124 132 gf180mcu_fd_sc_mcu9t5v0__mux2_2
* cell instance $420 m0 *1 1186.64,126
X$420 44 632 633 150 gf180mcu_fd_sc_mcu9t5v0__buf_3
* cell instance $433 r0 *1 1158.64,35.28
X$433 633 632 62 45 63 88 gf180mcu_fd_sc_mcu9t5v0__mux2_2
* cell instance $443 m0 *1 1164.24,35.28
X$443 632 47 89 633 48 gf180mcu_fd_sc_mcu9t5v0__xnor2_2
* cell instance $446 r0 *1 1197.84,45.36
X$446 633 73 632 63 65 47 gf180mcu_fd_sc_mcu9t5v0__aoi21_2
* cell instance $457 r0 *1 1182.72,45.36
X$457 633 632 49 67 gf180mcu_fd_sc_mcu9t5v0__clkinv_2
* cell instance $468 r0 *1 1179.36,45.36
X$468 633 632 71 50 gf180mcu_fd_sc_mcu9t5v0__clkinv_2
* cell instance $481 r0 *1 1174.88,35.28
X$481 632 51 52 633 66 gf180mcu_fd_sc_mcu9t5v0__xnor2_2
* cell instance $486 m0 *1 1187.76,35.28
X$486 632 67 633 64 65 52 gf180mcu_fd_sc_mcu9t5v0__oai21_2
* cell instance $488 m0 *1 1167.6,45.36
X$488 633 55 74 53 71 52 632 gf180mcu_fd_sc_mcu9t5v0__addf_2
* cell instance $494 r0 *1 1184.4,35.28
X$494 633 632 53 54 55 gf180mcu_fd_sc_mcu9t5v0__nand2_2
* cell instance $513 r0 *1 1183.28,85.68
X$513 633 109 58 632 gf180mcu_fd_sc_mcu9t5v0__clkbuf_20
* cell instance $518 m0 *1 1198.4,85.68
X$518 633 132 58 99 632 gf180mcu_fd_sc_mcu9t5v0__dffq_2
* cell instance $525 r0 *1 1186.08,95.76
X$525 633 58 649 632 gf180mcu_fd_sc_mcu9t5v0__clkbuf_12
* cell instance $527 m0 *1 1213.52,95.76
X$527 633 114 58 113 632 gf180mcu_fd_sc_mcu9t5v0__dffq_2
* cell instance $530 m0 *1 1180.48,85.68
X$530 633 111 58 98 632 gf180mcu_fd_sc_mcu9t5v0__dffq_2
* cell instance $542 r0 *1 1205.12,55.44
X$542 633 632 59 64 gf180mcu_fd_sc_mcu9t5v0__clkinv_2
* cell instance $548 m0 *1 1118.88,75.6
X$548 632 60 78 633 92 gf180mcu_fd_sc_mcu9t5v0__and2_2
* cell instance $552 m0 *1 1124.48,65.52
X$552 80 632 60 84 633 68 gf180mcu_fd_sc_mcu9t5v0__and3_2
* cell instance $585 m0 *1 1132.88,55.44
X$585 633 77 68 632 69 gf180mcu_fd_sc_mcu9t5v0__or2_2
* cell instance $594 m0 *1 1126.72,75.6
X$594 70 632 85 78 633 102 gf180mcu_fd_sc_mcu9t5v0__and3_2
* cell instance $597 m0 *1 1132.88,75.6
X$597 80 632 70 82 633 94 gf180mcu_fd_sc_mcu9t5v0__and3_2
* cell instance $600 r0 *1 1133.44,55.44
X$600 632 70 83 633 77 gf180mcu_fd_sc_mcu9t5v0__and2_2
* cell instance $610 r0 *1 1177.12,65.52
X$610 633 71 86 85 97 632 gf180mcu_fd_sc_mcu9t5v0__addh_2
* cell instance $630 r0 *1 1142.4,65.52
X$630 632 82 85 633 75 gf180mcu_fd_sc_mcu9t5v0__and2_2
* cell instance $632 m0 *1 1118.88,55.44
X$632 632 79 75 633 76 gf180mcu_fd_sc_mcu9t5v0__xnor2_2
* cell instance $649 m0 *1 1121.12,65.52
X$649 633 632 80 79 gf180mcu_fd_sc_mcu9t5v0__clkinv_2
* cell instance $656 m0 *1 1130.64,65.52
X$656 632 84 83 82 85 80 633 gf180mcu_fd_sc_mcu9t5v0__oai211_2
* cell instance $667 m0 *1 1130.08,105.84
X$667 632 81 82 124 633 gf180mcu_fd_sc_mcu9t5v0__and2_4
* cell instance $669 m0 *1 1130.08,115.92
X$669 632 81 106 128 633 gf180mcu_fd_sc_mcu9t5v0__and2_4
* cell instance $671 m0 *1 1122.8,126
X$671 632 81 120 187 633 gf180mcu_fd_sc_mcu9t5v0__and2_4
* cell instance $673 r0 *1 1120.56,115.92
X$673 632 81 121 112 633 gf180mcu_fd_sc_mcu9t5v0__and2_4
* cell instance $677 m0 *1 1127.84,95.76
X$677 633 635 93 105 82 632 gf180mcu_fd_sc_mcu9t5v0__addh_4
* cell instance $680 m0 *1 1132.32,126
X$680 632 633 146 147 82 gf180mcu_fd_sc_mcu9t5v0__nand2_4
* cell instance $685 r0 *1 1130.08,115.92
X$685 632 92 82 155 633 gf180mcu_fd_sc_mcu9t5v0__and2_4
* cell instance $690 r0 *1 1124.48,126
X$690 632 102 82 252 633 gf180mcu_fd_sc_mcu9t5v0__and2_4
* cell instance $700 r0 *1 1128.96,75.6
X$700 632 93 105 633 84 gf180mcu_fd_sc_mcu9t5v0__and2_2
* cell instance $708 m0 *1 1118.32,85.68
X$708 633 632 91 101 85 105 gf180mcu_fd_sc_mcu9t5v0__mux2_2
* cell instance $714 m0 *1 1136.24,85.68
X$714 633 632 104 95 85 93 gf180mcu_fd_sc_mcu9t5v0__mux2_2
* cell instance $749 r0 *1 1120.56,136.08
X$749 632 92 121 234 633 gf180mcu_fd_sc_mcu9t5v0__and2_4
* cell instance $752 r0 *1 1130.08,136.08
X$752 632 92 106 173 633 gf180mcu_fd_sc_mcu9t5v0__and2_4
* cell instance $755 m0 *1 1130.08,136.08
X$755 632 92 120 169 633 gf180mcu_fd_sc_mcu9t5v0__and2_4
* cell instance $758 r0 *1 1136.8,75.6
X$758 633 632 95 93 94 gf180mcu_fd_sc_mcu9t5v0__nor2_2
* cell instance $762 r0 *1 1125.04,95.76
X$762 633 632 93 122 gf180mcu_fd_sc_mcu9t5v0__clkinv_2
* cell instance $765 r0 *1 1132.88,95.76
X$765 633 106 641 93 107 632 gf180mcu_fd_sc_mcu9t5v0__addh_2
* cell instance $781 r0 *1 1150.8,146.16
X$781 632 189 202 127 96 136 633 gf180mcu_fd_sc_mcu9t5v0__oai211_2
* cell instance $783 m0 *1 1154.72,146.16
X$783 632 127 96 633 183 gf180mcu_fd_sc_mcu9t5v0__and2_2
* cell instance $786 m0 *1 1154.16,166.32
X$786 632 96 174 633 241 gf180mcu_fd_sc_mcu9t5v0__and2_2
* cell instance $788 r0 *1 1143.52,146.16
X$788 136 632 96 189 633 188 gf180mcu_fd_sc_mcu9t5v0__and3_2
* cell instance $790 m0 *1 1150.8,85.68
X$790 633 632 96 97 gf180mcu_fd_sc_mcu9t5v0__clkinv_8
* cell instance $793 m0 *1 1155.28,126
X$793 633 96 148 632 gf180mcu_fd_sc_mcu9t5v0__clkbuf_8
* cell instance $800 m0 *1 1181.04,136.08
X$800 149 633 97 174 632 170 gf180mcu_fd_sc_mcu9t5v0__or3_2
* cell instance $803 r0 *1 1269.52,297.36
X$803 545 632 633 97 513 163 gf180mcu_fd_sc_mcu9t5v0__nor3_2
* cell instance $805 r0 *1 1260,126
X$805 162 633 97 163 632 164 gf180mcu_fd_sc_mcu9t5v0__or3_2
* cell instance $807 m0 *1 1265.04,317.52
X$807 633 632 565 566 97 gf180mcu_fd_sc_mcu9t5v0__nand2_2
* cell instance $809 m0 *1 1139.6,327.6
X$809 633 632 557 501 97 gf180mcu_fd_sc_mcu9t5v0__nand2_2
* cell instance $812 m0 *1 1270.64,287.28
X$812 442 633 97 163 632 488 gf180mcu_fd_sc_mcu9t5v0__or3_2
* cell instance $814 m0 *1 1153.04,327.6
X$814 633 632 558 571 97 gf180mcu_fd_sc_mcu9t5v0__nand2_2
* cell instance $818 r0 *1 1173.76,236.88
X$818 633 632 375 368 97 gf180mcu_fd_sc_mcu9t5v0__nand2_2
* cell instance $820 r0 *1 1256.08,216.72
X$820 263 339 343 489 97 632 633 gf180mcu_fd_sc_mcu9t5v0__aoi211_2
* cell instance $847 m0 *1 1219.12,85.68
X$847 633 100 115 103 632 gf180mcu_fd_sc_mcu9t5v0__dffq_2
* cell instance $849 r0 *1 1226.96,95.76
X$849 633 116 114 119 100 118 129 127 632 gf180mcu_fd_sc_mcu9t5v0__aoi222_2
* cell instance $852 m0 *1 1114.96,105.84
X$852 633 120 101 122 107 632 gf180mcu_fd_sc_mcu9t5v0__addh_2
* cell instance $858 m0 *1 1120.56,115.92
X$858 632 102 121 123 633 gf180mcu_fd_sc_mcu9t5v0__and2_4
* cell instance $861 m0 *1 1121.68,146.16
X$861 632 102 120 186 633 gf180mcu_fd_sc_mcu9t5v0__and2_4
* cell instance $864 m0 *1 1131.76,146.16
X$864 632 102 106 178 633 gf180mcu_fd_sc_mcu9t5v0__and2_4
* cell instance $878 r0 *1 1120.56,105.84
X$878 633 121 642 122 105 632 gf180mcu_fd_sc_mcu9t5v0__addh_2
* cell instance $881 r0 *1 1129.52,95.76
X$881 633 632 105 107 gf180mcu_fd_sc_mcu9t5v0__clkinv_2
* cell instance $887 r0 *1 1131.2,146.16
X$887 632 633 146 195 106 gf180mcu_fd_sc_mcu9t5v0__nand2_4
* cell instance $902 r0 *1 1117.76,297.36
X$902 633 109 479 632 gf180mcu_fd_sc_mcu9t5v0__clkbuf_20
* cell instance $904 m0 *1 1094.24,297.36
X$904 633 109 473 632 gf180mcu_fd_sc_mcu9t5v0__clkbuf_20
* cell instance $910 m0 *1 1214.64,317.52
X$910 633 109 521 632 gf180mcu_fd_sc_mcu9t5v0__clkbuf_20
* cell instance $913 m0 *1 1224.16,176.4
X$913 633 109 214 632 gf180mcu_fd_sc_mcu9t5v0__clkbuf_20
* cell instance $915 r0 *1 1249.36,166.32
X$915 633 109 268 632 gf180mcu_fd_sc_mcu9t5v0__clkbuf_20
* cell instance $918 m0 *1 1096.48,257.04
X$918 633 109 299 632 gf180mcu_fd_sc_mcu9t5v0__clkbuf_20
* cell instance $922 r0 *1 1121.68,257.04
X$922 633 109 305 632 gf180mcu_fd_sc_mcu9t5v0__clkbuf_20
* cell instance $926 r0 *1 1222.48,277.2
X$926 633 109 358 632 gf180mcu_fd_sc_mcu9t5v0__clkbuf_20
* cell instance $928 m0 *1 1146.32,136.08
X$928 633 109 172 632 gf180mcu_fd_sc_mcu9t5v0__clkbuf_20
* cell instance $931 r0 *1 1169.28,126
X$931 633 109 125 632 gf180mcu_fd_sc_mcu9t5v0__clkbuf_20
* cell instance $934 r0 *1 1189.44,317.52
X$934 633 109 529 632 gf180mcu_fd_sc_mcu9t5v0__clkbuf_20
* cell instance $936 m0 *1 1252.16,136.08
X$936 633 109 160 632 gf180mcu_fd_sc_mcu9t5v0__clkbuf_20
* cell instance $939 r0 *1 1228.08,136.08
X$939 633 109 115 632 gf180mcu_fd_sc_mcu9t5v0__clkbuf_20
* cell instance $942 m0 *1 1198.4,287.28
X$942 633 109 353 632 gf180mcu_fd_sc_mcu9t5v0__clkbuf_20
* cell instance $962 m0 *1 1183.28,105.84
X$962 633 152 110 119 111 132 129 127 632 gf180mcu_fd_sc_mcu9t5v0__aoi222_2
* cell instance $971 r0 *1 1206.24,357.84
X$971 633 632 616 575 112 608 gf180mcu_fd_sc_mcu9t5v0__mux2_2
* cell instance $973 r0 *1 1089.2,347.76
X$973 633 632 586 552 112 587 gf180mcu_fd_sc_mcu9t5v0__mux2_2
* cell instance $975 r0 *1 1089.2,357.84
X$975 633 632 598 408 112 599 gf180mcu_fd_sc_mcu9t5v0__mux2_2
* cell instance $977 m0 *1 1082.48,206.64
X$977 633 632 317 302 112 303 gf180mcu_fd_sc_mcu9t5v0__mux2_2
* cell instance $981 m0 *1 1167.6,367.92
X$981 633 632 619 579 112 532 gf180mcu_fd_sc_mcu9t5v0__mux2_2
* cell instance $985 m0 *1 1228.08,367.92
X$985 633 632 614 313 112 611 gf180mcu_fd_sc_mcu9t5v0__mux2_2
* cell instance $1007 m0 *1 1206.8,146.16
X$1007 633 176 115 175 632 gf180mcu_fd_sc_mcu9t5v0__dffq_2
* cell instance $1009 r0 *1 1229.76,146.16
X$1009 633 193 115 177 632 gf180mcu_fd_sc_mcu9t5v0__dffq_2
* cell instance $1012 m0 *1 1230.32,95.76
X$1012 633 118 115 117 632 gf180mcu_fd_sc_mcu9t5v0__dffq_2
* cell instance $1014 r0 *1 1219.68,115.92
X$1014 633 158 115 133 632 gf180mcu_fd_sc_mcu9t5v0__dffq_2
* cell instance $1016 m0 *1 1228.08,136.08
X$1016 633 632 115 638 gf180mcu_fd_sc_mcu9t5v0__clkinv_8
* cell instance $1018 m0 *1 1222.48,126
X$1018 633 159 115 144 632 gf180mcu_fd_sc_mcu9t5v0__dffq_2
* cell instance $1033 r0 *1 1229.2,105.84
X$1033 633 142 136 140 134 143 116 137 632 gf180mcu_fd_sc_mcu9t5v0__mux4_2
* cell instance $1044 m0 *1 1192.24,115.92
X$1044 633 632 130 131 119 gf180mcu_fd_sc_mcu9t5v0__nand2_2
* cell instance $1049 m0 *1 1279.04,257.04
X$1049 633 426 632 119 425 216 424 gf180mcu_fd_sc_mcu9t5v0__aoi22_2
* cell instance $1051 r0 *1 1284.08,186.48
X$1051 633 274 632 119 246 216 244 gf180mcu_fd_sc_mcu9t5v0__aoi22_2
* cell instance $1053 m0 *1 1182.72,246.96
X$1053 633 285 119 632 gf180mcu_fd_sc_mcu9t5v0__clkbuf_8
* cell instance $1056 r0 *1 1246.56,246.96
X$1056 633 377 632 491 119 400 gf180mcu_fd_sc_mcu9t5v0__aoi21_2
* cell instance $1059 m0 *1 1232,257.04
X$1059 352 632 376 119 633 420 gf180mcu_fd_sc_mcu9t5v0__and3_2
* cell instance $1061 m0 *1 1259.44,115.92
X$1061 633 632 139 140 119 gf180mcu_fd_sc_mcu9t5v0__nand2_2
* cell instance $1064 r0 *1 1286.32,156.24
X$1064 633 198 632 119 224 216 199 gf180mcu_fd_sc_mcu9t5v0__aoi22_2
* cell instance $1066 r0 *1 1271.2,236.88
X$1066 633 360 632 119 380 216 378 gf180mcu_fd_sc_mcu9t5v0__aoi22_2
* cell instance $1079 m0 *1 1112.72,146.16
X$1079 632 633 146 184 120 gf180mcu_fd_sc_mcu9t5v0__nand2_4
* cell instance $1095 r0 *1 1116.08,146.16
X$1095 632 633 146 185 121 gf180mcu_fd_sc_mcu9t5v0__nand2_4
* cell instance $1102 m0 *1 1178.24,115.92
X$1102 633 632 145 150 123 130 gf180mcu_fd_sc_mcu9t5v0__mux2_2
* cell instance $1104 m0 *1 1199.52,337.68
X$1104 633 632 578 401 123 561 gf180mcu_fd_sc_mcu9t5v0__mux2_2
* cell instance $1107 m0 *1 1076.32,236.88
X$1107 633 632 363 350 123 351 gf180mcu_fd_sc_mcu9t5v0__mux2_2
* cell instance $1109 m0 *1 1208.48,246.96
X$1109 633 632 396 309 123 376 gf180mcu_fd_sc_mcu9t5v0__mux2_2
* cell instance $1111 r0 *1 1254.96,105.84
X$1111 633 632 138 135 123 139 gf180mcu_fd_sc_mcu9t5v0__mux2_2
* cell instance $1113 r0 *1 1083.6,317.52
X$1113 633 632 553 413 123 525 gf180mcu_fd_sc_mcu9t5v0__mux2_2
* cell instance $1115 r0 *1 1253.84,317.52
X$1115 633 632 562 342 123 563 gf180mcu_fd_sc_mcu9t5v0__mux2_2
* cell instance $1120 m0 *1 1078,186.48
X$1120 633 632 251 231 123 254 gf180mcu_fd_sc_mcu9t5v0__mux2_2
* cell instance $1130 m0 *1 1227.52,347.76
X$1130 633 632 592 579 124 593 gf180mcu_fd_sc_mcu9t5v0__mux2_2
* cell instance $1133 r0 *1 1173.2,347.76
X$1133 633 632 591 575 124 576 gf180mcu_fd_sc_mcu9t5v0__mux2_2
* cell instance $1136 r0 *1 1238.72,357.84
X$1136 633 632 612 313 124 613 gf180mcu_fd_sc_mcu9t5v0__mux2_2
* cell instance $1138 m0 *1 1103.2,277.2
X$1138 633 632 453 408 124 435 gf180mcu_fd_sc_mcu9t5v0__mux2_2
* cell instance $1140 r0 *1 1139.6,226.8
X$1140 633 632 364 302 124 326 gf180mcu_fd_sc_mcu9t5v0__mux2_2
* cell instance $1142 m0 *1 1100.4,327.6
X$1142 633 632 584 552 124 554 gf180mcu_fd_sc_mcu9t5v0__mux2_2
* cell instance $1163 r0 *1 1179.92,186.48
X$1163 633 259 125 280 632 gf180mcu_fd_sc_mcu9t5v0__dffq_2
* cell instance $1168 m0 *1 1169.28,146.16
X$1168 633 632 125 637 gf180mcu_fd_sc_mcu9t5v0__clkinv_8
* cell instance $1171 r0 *1 1176.56,146.16
X$1171 633 191 125 206 632 gf180mcu_fd_sc_mcu9t5v0__dffq_2
* cell instance $1173 r0 *1 1188.88,136.08
X$1173 633 156 125 154 632 gf180mcu_fd_sc_mcu9t5v0__dffq_2
* cell instance $1176 m0 *1 1161.44,115.92
X$1176 633 130 125 145 632 gf180mcu_fd_sc_mcu9t5v0__dffq_2
* cell instance $1178 r0 *1 1160.32,136.08
X$1178 633 149 125 168 632 gf180mcu_fd_sc_mcu9t5v0__dffq_2
* cell instance $1186 r0 *1 1173.2,115.92
X$1186 633 632 167 126 147 150 gf180mcu_fd_sc_mcu9t5v0__mux2_2
* cell instance $1188 r0 *1 1178.24,105.84
X$1188 633 632 127 151 126 gf180mcu_fd_sc_mcu9t5v0__nand2_2
* cell instance $1190 r0 *1 1156.4,115.92
X$1190 633 126 172 167 632 gf180mcu_fd_sc_mcu9t5v0__dffq_2
* cell instance $1196 r0 *1 1158.64,226.8
X$1196 633 233 127 632 gf180mcu_fd_sc_mcu9t5v0__clkbuf_8
* cell instance $1199 r0 *1 1176,176.4
X$1199 633 213 632 279 258 127 gf180mcu_fd_sc_mcu9t5v0__aoi21_2
* cell instance $1206 m0 *1 1238.72,277.2
X$1206 633 127 632 468 466 445 352 gf180mcu_fd_sc_mcu9t5v0__aoi22_2
* cell instance $1209 r0 *1 1200.64,115.92
X$1209 633 632 127 153 156 gf180mcu_fd_sc_mcu9t5v0__nand2_2
* cell instance $1211 r0 *1 1229.76,126
X$1211 633 632 127 134 159 gf180mcu_fd_sc_mcu9t5v0__nand2_2
* cell instance $1213 r0 *1 1236.48,115.92
X$1213 633 632 127 137 158 gf180mcu_fd_sc_mcu9t5v0__nand2_2
* cell instance $1227 m0 *1 1215.2,357.84
X$1227 633 632 609 313 128 610 gf180mcu_fd_sc_mcu9t5v0__mux2_2
* cell instance $1230 m0 *1 1198.4,367.92
X$1230 633 632 618 575 128 607 gf180mcu_fd_sc_mcu9t5v0__mux2_2
* cell instance $1234 m0 *1 1083.6,337.68
X$1234 633 632 594 552 128 573 gf180mcu_fd_sc_mcu9t5v0__mux2_2
* cell instance $1236 m0 *1 1070.72,216.72
X$1236 633 632 300 302 128 301 gf180mcu_fd_sc_mcu9t5v0__mux2_2
* cell instance $1238 r0 *1 1069.04,307.44
X$1238 633 632 522 408 128 523 gf180mcu_fd_sc_mcu9t5v0__mux2_2
* cell instance $1242 m0 *1 1142.4,367.92
X$1242 633 632 603 579 128 604 gf180mcu_fd_sc_mcu9t5v0__mux2_2
* cell instance $1261 m0 *1 1233.12,287.28
X$1261 633 240 632 484 129 441 gf180mcu_fd_sc_mcu9t5v0__aoi21_2
* cell instance $1263 r0 *1 1258.88,267.12
X$1263 633 402 632 129 447 216 422 gf180mcu_fd_sc_mcu9t5v0__aoi22_2
* cell instance $1265 m0 *1 1238.72,216.72
X$1265 210 632 310 129 633 347 gf180mcu_fd_sc_mcu9t5v0__and3_2
* cell instance $1267 m0 *1 1210.72,156.24
X$1267 210 632 176 129 633 207 gf180mcu_fd_sc_mcu9t5v0__and3_2
* cell instance $1269 m0 *1 1258.32,216.72
X$1269 314 632 129 258 633 343 gf180mcu_fd_sc_mcu9t5v0__and3_2
* cell instance $1271 r0 *1 1242.08,156.24
X$1271 210 632 193 129 633 201 gf180mcu_fd_sc_mcu9t5v0__and3_2
* cell instance $1273 m0 *1 1163.68,216.72
X$1273 633 632 129 330 gf180mcu_fd_sc_mcu9t5v0__clkinv_2
* cell instance $1276 r0 *1 1240.4,216.72
X$1276 632 352 129 633 269 gf180mcu_fd_sc_mcu9t5v0__and2_2
* cell instance $1280 m0 *1 1159.76,246.96
X$1280 633 632 235 129 gf180mcu_fd_sc_mcu9t5v0__buf_4
* cell instance $1300 r0 *1 1181.6,115.92
X$1300 633 166 136 131 151 143 152 153 632 gf180mcu_fd_sc_mcu9t5v0__mux4_2
* cell instance $1309 m0 *1 1223.6,115.92
X$1309 633 632 133 135 155 158 gf180mcu_fd_sc_mcu9t5v0__mux2_2
* cell instance $1315 m0 *1 1237.04,166.32
X$1315 633 632 221 135 234 267 gf180mcu_fd_sc_mcu9t5v0__mux2_2
* cell instance $1318 m0 *1 1232.56,146.16
X$1318 633 632 177 135 173 193 gf180mcu_fd_sc_mcu9t5v0__mux2_2
* cell instance $1320 r0 *1 1271.76,136.08
X$1320 633 632 161 135 169 162 gf180mcu_fd_sc_mcu9t5v0__mux2_2
* cell instance $1324 m0 *1 1223.04,186.48
X$1324 633 632 265 135 252 266 gf180mcu_fd_sc_mcu9t5v0__mux2_2
* cell instance $1326 m0 *1 1290.24,176.4
X$1326 633 632 245 244 184 135 gf180mcu_fd_sc_mcu9t5v0__mux2_2
* cell instance $1328 m0 *1 1275.68,186.48
X$1328 633 632 275 273 195 135 gf180mcu_fd_sc_mcu9t5v0__mux2_2
* cell instance $1330 m0 *1 1281.84,176.4
X$1330 633 632 243 274 185 135 gf180mcu_fd_sc_mcu9t5v0__mux2_2
* cell instance $1332 m0 *1 1232,115.92
X$1332 633 632 144 159 147 135 gf180mcu_fd_sc_mcu9t5v0__mux2_2
* cell instance $1352 m0 *1 1229.2,297.36
X$1352 136 633 143 509 632 516 gf180mcu_fd_sc_mcu9t5v0__or3_2
* cell instance $1354 m0 *1 1229.76,226.8
X$1354 136 633 143 362 632 361 gf180mcu_fd_sc_mcu9t5v0__or3_2
* cell instance $1356 m0 *1 1130.64,277.2
X$1356 136 633 433 430 632 459 gf180mcu_fd_sc_mcu9t5v0__or3_2
* cell instance $1360 r0 *1 1123.92,277.2
X$1360 136 633 471 457 632 458 gf180mcu_fd_sc_mcu9t5v0__or3_2
* cell instance $1362 m0 *1 1187.2,307.44
X$1362 632 506 518 136 548 163 633 gf180mcu_fd_sc_mcu9t5v0__oai211_2
* cell instance $1368 r0 *1 1229.76,257.04
X$1368 632 432 633 419 420 136 429 gf180mcu_fd_sc_mcu9t5v0__oai31_2
* cell instance $1370 m0 *1 1182.16,257.04
X$1370 633 632 240 136 gf180mcu_fd_sc_mcu9t5v0__buf_4
* cell instance $1394 m0 *1 1249.36,105.84
X$1394 633 139 160 138 632 gf180mcu_fd_sc_mcu9t5v0__dffq_2
* cell instance $1406 m0 *1 1243.2,126
X$1406 633 165 632 141 181 142 gf180mcu_fd_sc_mcu9t5v0__aoi21_2
* cell instance $1416 m0 *1 1229.2,166.32
X$1416 632 143 633 201 220 227 gf180mcu_fd_sc_mcu9t5v0__oai21_2
* cell instance $1418 r0 *1 1206.24,156.24
X$1418 632 143 633 207 229 217 gf180mcu_fd_sc_mcu9t5v0__oai21_2
* cell instance $1421 m0 *1 1229.76,216.72
X$1421 632 143 633 347 344 336 gf180mcu_fd_sc_mcu9t5v0__oai21_2
* cell instance $1423 m0 *1 1121.68,307.44
X$1423 633 366 632 568 478 546 143 gf180mcu_fd_sc_mcu9t5v0__aoi22_2
* cell instance $1425 r0 *1 1121.68,287.28
X$1425 633 366 632 469 494 495 143 gf180mcu_fd_sc_mcu9t5v0__aoi22_2
* cell instance $1427 m0 *1 1145.76,156.24
X$1427 633 632 228 188 143 202 gf180mcu_fd_sc_mcu9t5v0__mux2_2
* cell instance $1431 m0 *1 1120,196.56
X$1431 633 287 143 632 gf180mcu_fd_sc_mcu9t5v0__clkbuf_8
* cell instance $1472 m0 *1 1173.76,327.6
X$1472 633 632 574 559 147 401 gf180mcu_fd_sc_mcu9t5v0__mux2_2
* cell instance $1474 r0 *1 1221.36,327.6
X$1474 633 632 583 580 147 342 gf180mcu_fd_sc_mcu9t5v0__mux2_2
* cell instance $1477 m0 *1 1149.68,226.8
X$1477 633 632 346 327 147 231 gf180mcu_fd_sc_mcu9t5v0__mux2_2
* cell instance $1479 r0 *1 1116.64,317.52
X$1479 633 632 555 556 147 413 gf180mcu_fd_sc_mcu9t5v0__mux2_2
* cell instance $1482 m0 *1 1218,246.96
X$1482 633 632 406 397 147 309 gf180mcu_fd_sc_mcu9t5v0__mux2_2
* cell instance $1484 m0 *1 1114.4,287.28
X$1484 633 632 454 456 147 350 gf180mcu_fd_sc_mcu9t5v0__mux2_2
* cell instance $1503 m0 *1 1277.36,287.28
X$1503 632 488 633 148 443 487 gf180mcu_fd_sc_mcu9t5v0__oai21_2
* cell instance $1505 r0 *1 1153.6,307.44
X$1505 632 148 633 163 530 531 gf180mcu_fd_sc_mcu9t5v0__oai21_2
* cell instance $1507 m0 *1 1140.72,297.36
X$1507 632 148 633 163 520 528 gf180mcu_fd_sc_mcu9t5v0__oai21_2
* cell instance $1510 r0 *1 1178.24,226.8
X$1510 632 148 633 163 365 332 gf180mcu_fd_sc_mcu9t5v0__oai21_2
* cell instance $1512 m0 *1 1165.92,176.4
X$1512 633 632 247 279 148 213 gf180mcu_fd_sc_mcu9t5v0__mux2_2
* cell instance $1515 r0 *1 1146.88,166.32
X$1515 633 632 248 237 148 212 gf180mcu_fd_sc_mcu9t5v0__mux2_2
* cell instance $1517 r0 *1 1269.52,307.44
X$1517 633 632 544 542 148 gf180mcu_fd_sc_mcu9t5v0__nor2_2
* cell instance $1521 m0 *1 1249.92,307.44
X$1521 632 633 512 518 148 540 539 163 gf180mcu_fd_sc_mcu9t5v0__oai221_2
* cell instance $1538 m0 *1 1169.84,126
X$1538 633 632 168 150 169 149 gf180mcu_fd_sc_mcu9t5v0__mux2_2
* cell instance $1544 m0 *1 1198.4,126
X$1544 633 632 154 150 155 156 gf180mcu_fd_sc_mcu9t5v0__mux2_2
* cell instance $1546 r0 *1 1214.08,136.08
X$1546 633 632 175 150 173 176 gf180mcu_fd_sc_mcu9t5v0__mux2_2
* cell instance $1552 m0 *1 1179.92,186.48