* CDL Netlist generated by OpenROAD

*.BUSDELIMITER [

.SUBCKT configurable_sync_fifo almost_empty almost_full clk
+ data_in[0] data_in[1] data_in[2] data_in[3] data_in[4] data_in[5]
+ data_in[6] data_in[7] data_out[0] data_out[1] data_out[2]
+ data_out[3] data_out[4] data_out[5] data_out[6] data_out[7]
+ empty fill_level[0] fill_level[1] fill_level[2] fill_level[3]
+ fill_level[4] full rd_en rst_n wr_en
X_426_ net25 net24 net27 net26 _150_ VDD VSS gf180mcu_fd_sc_mcu9t5v0__nor4_4
X_427_ net28 _150_ net29 VDD VSS gf180mcu_fd_sc_mcu9t5v0__and2_2
X_428_ net12 _151_ VDD VSS gf180mcu_fd_sc_mcu9t5v0__clkinv_2
X_429_ net28 _150_ _151_ _394_ VDD VSS gf180mcu_fd_sc_mcu9t5v0__aoi21_4
X_430_ net28 _152_ VDD VSS gf180mcu_fd_sc_mcu9t5v0__inv_2
X_431_ _152_ _150_ net23 VDD VSS gf180mcu_fd_sc_mcu9t5v0__and2_2
X_432_ net24 _000_ VDD VSS gf180mcu_fd_sc_mcu9t5v0__clkinv_2
X_433_ net25 _390_ VDD VSS gf180mcu_fd_sc_mcu9t5v0__clkinv_2
X_434_ wr_ptr\[0\] _397_ VDD VSS gf180mcu_fd_sc_mcu9t5v0__clkinv_2
X_435_ rd_ptr\[0\] _407_ VDD VSS gf180mcu_fd_sc_mcu9t5v0__clkinv_2
X_436_ net10 _153_ VDD VSS gf180mcu_fd_sc_mcu9t5v0__clkinv_2
X_437_ _152_ _150_ _153_ _154_ VDD VSS gf180mcu_fd_sc_mcu9t5v0__aoi21_4
X_438_ _154_ _395_ VDD VSS gf180mcu_fd_sc_mcu9t5v0__clkinv_8
X_439_ wr_ptr\[1\] _398_ VDD VSS gf180mcu_fd_sc_mcu9t5v0__clkinv_2
X_440_ rd_ptr\[1\] _408_ VDD VSS gf180mcu_fd_sc_mcu9t5v0__clkinv_2
X_441_ _391_ _417_ VDD VSS gf180mcu_fd_sc_mcu9t5v0__clkinv_2
X_442_ rd_ptr\[2\] _155_ VDD VSS gf180mcu_fd_sc_mcu9t5v0__buf_4
X_443_ _415_ _156_ VDD VSS gf180mcu_fd_sc_mcu9t5v0__clkbuf_8
X_444_ _156_ _157_ VDD VSS gf180mcu_fd_sc_mcu9t5v0__clkbuf_8
X_445_ _155_ _157_ _158_ VDD VSS gf180mcu_fd_sc_mcu9t5v0__and2_2
X_446_ rd_ptr\[3\] _159_ VDD VSS gf180mcu_fd_sc_mcu9t5v0__buf_4
X_447_ memory\[7\]\[0\] memory\[15\]\[0\] _159_ _160_ VDD
+ VSS gf180mcu_fd_sc_mcu9t5v0__mux2_2
X_448_ _155_ _161_ VDD VSS gf180mcu_fd_sc_mcu9t5v0__buf_4
X_449_ _409_ _162_ VDD VSS gf180mcu_fd_sc_mcu9t5v0__clkbuf_8
X_450_ memory\[4\]\[0\] memory\[12\]\[0\] rd_ptr\[3\] _163_
+ VDD VSS gf180mcu_fd_sc_mcu9t5v0__mux2_2
X_451_ _161_ _162_ _163_ _164_ VDD VSS gf180mcu_fd_sc_mcu9t5v0__and3_2
X_452_ rd_ptr\[3\] _165_ VDD VSS gf180mcu_fd_sc_mcu9t5v0__clkinv_8
X_453_ _409_ _166_ VDD VSS gf180mcu_fd_sc_mcu9t5v0__clkbuf_8
X_454_ _413_ _167_ VDD VSS gf180mcu_fd_sc_mcu9t5v0__clkbuf_8
X_455_ memory\[8\]\[0\] _166_ _167_ memory\[9\]\[0\] _168_
+ VDD VSS gf180mcu_fd_sc_mcu9t5v0__aoi22_2
X_456_ _161_ _165_ _168_ _169_ VDD VSS gf180mcu_fd_sc_mcu9t5v0__nor3_2
X_457_ _158_ _160_ _164_ _169_ _170_ VDD VSS gf180mcu_fd_sc_mcu9t5v0__aoi211_2
X_458_ _413_ _171_ VDD VSS gf180mcu_fd_sc_mcu9t5v0__buf_4
X_459_ _171_ _172_ VDD VSS gf180mcu_fd_sc_mcu9t5v0__clkinv_2
X_460_ _155_ rd_ptr\[3\] _173_ VDD VSS gf180mcu_fd_sc_mcu9t5v0__and2_2
X_461_ rd_ptr\[2\] rd_ptr\[3\] _174_ VDD VSS gf180mcu_fd_sc_mcu9t5v0__nor2_2
X_462_ memory\[13\]\[0\] _173_ _174_ memory\[1\]\[0\] _175_
+ VDD VSS gf180mcu_fd_sc_mcu9t5v0__aoi22_2
X_463_ _172_ _175_ _176_ VDD VSS gf180mcu_fd_sc_mcu9t5v0__or2_2
X_464_ _409_ _177_ VDD VSS gf180mcu_fd_sc_mcu9t5v0__clkinv_2
X_465_ _156_ _411_ _413_ _178_ VDD VSS gf180mcu_fd_sc_mcu9t5v0__nor3_2
X_466_ _177_ _174_ _178_ _179_ VDD VSS gf180mcu_fd_sc_mcu9t5v0__oai21_2
X_467_ _179_ _180_ VDD VSS gf180mcu_fd_sc_mcu9t5v0__buf_4
X_468_ _411_ _181_ VDD VSS gf180mcu_fd_sc_mcu9t5v0__clkbuf_8
X_469_ _156_ memory\[11\]\[0\] memory\[10\]\[0\] _181_ _182_
+ VDD VSS gf180mcu_fd_sc_mcu9t5v0__aoi22_2
X_470_ _156_ memory\[3\]\[0\] memory\[2\]\[0\] _181_ _183_
+ VDD VSS gf180mcu_fd_sc_mcu9t5v0__aoi22_2
X_471_ _182_ _183_ _165_ _184_ VDD VSS gf180mcu_fd_sc_mcu9t5v0__mux2_2
X_472_ memory\[6\]\[0\] _181_ _413_ memory\[5\]\[0\] _185_
+ VDD VSS gf180mcu_fd_sc_mcu9t5v0__aoi22_2
X_473_ memory\[14\]\[0\] _181_ _186_ VDD VSS gf180mcu_fd_sc_mcu9t5v0__nand2_2
X_474_ _185_ _186_ rd_ptr\[3\] _187_ VDD VSS gf180mcu_fd_sc_mcu9t5v0__mux2_2
X_475_ _184_ _187_ _161_ _188_ VDD VSS gf180mcu_fd_sc_mcu9t5v0__mux2_2
X_476_ _170_ _176_ _180_ _188_ _189_ VDD VSS gf180mcu_fd_sc_mcu9t5v0__and4_2
X_477_ _154_ _190_ VDD VSS gf180mcu_fd_sc_mcu9t5v0__clkbuf_8
X_478_ memory\[0\]\[0\] _180_ _190_ _191_ VDD VSS gf180mcu_fd_sc_mcu9t5v0__oai21_2
X_479_ net15 _395_ _192_ VDD VSS gf180mcu_fd_sc_mcu9t5v0__nand2_2
X_480_ _189_ _191_ _192_ _006_ VDD VSS gf180mcu_fd_sc_mcu9t5v0__oai21_2
X_481_ _181_ _193_ VDD VSS gf180mcu_fd_sc_mcu9t5v0__clkbuf_8
X_482_ memory\[12\]\[1\] _162_ _193_ memory\[14\]\[1\] _194_
+ VDD VSS gf180mcu_fd_sc_mcu9t5v0__aoi22_2
X_483_ _194_ _195_ VDD VSS gf180mcu_fd_sc_mcu9t5v0__clkinv_2
X_484_ rd_ptr\[3\] _196_ VDD VSS gf180mcu_fd_sc_mcu9t5v0__buf_4
X_485_ memory\[7\]\[1\] memory\[15\]\[1\] _196_ _197_ VDD
+ VSS gf180mcu_fd_sc_mcu9t5v0__mux2_2
X_486_ _156_ _198_ VDD VSS gf180mcu_fd_sc_mcu9t5v0__clkbuf_8
X_487_ _159_ _195_ _197_ _198_ _199_ VDD VSS gf180mcu_fd_sc_mcu9t5v0__aoi22_2
X_488_ _411_ _200_ VDD VSS gf180mcu_fd_sc_mcu9t5v0__clkbuf_8
X_489_ memory\[10\]\[1\] _200_ _167_ memory\[9\]\[1\] _201_
+ VDD VSS gf180mcu_fd_sc_mcu9t5v0__aoi22_2
X_490_ _157_ memory\[3\]\[1\] _202_ VDD VSS gf180mcu_fd_sc_mcu9t5v0__nand2_2
X_491_ _201_ _202_ _165_ _203_ VDD VSS gf180mcu_fd_sc_mcu9t5v0__mux2_2
X_492_ rd_ptr\[2\] _204_ VDD VSS gf180mcu_fd_sc_mcu9t5v0__clkinv_8
X_493_ _199_ _203_ _204_ _205_ VDD VSS gf180mcu_fd_sc_mcu9t5v0__mux2_2
X_494_ memory\[1\]\[1\] _171_ _155_ _206_ VDD VSS gf180mcu_fd_sc_mcu9t5v0__aoi21_2
X_495_ memory\[4\]\[1\] _166_ _413_ memory\[5\]\[1\] _207_
+ VDD VSS gf180mcu_fd_sc_mcu9t5v0__aoi22_2
X_496_ memory\[6\]\[1\] _181_ _208_ VDD VSS gf180mcu_fd_sc_mcu9t5v0__nand2_2
X_497_ _155_ _207_ _208_ _209_ VDD VSS gf180mcu_fd_sc_mcu9t5v0__and3_2
X_498_ _159_ _206_ _209_ _210_ VDD VSS gf180mcu_fd_sc_mcu9t5v0__or3_2
X_499_ _155_ _211_ VDD VSS gf180mcu_fd_sc_mcu9t5v0__buf_4
X_500_ _165_ _212_ VDD VSS gf180mcu_fd_sc_mcu9t5v0__clkbuf_8
X_501_ _157_ memory\[11\]\[1\] memory\[8\]\[1\] _166_ _213_
+ VDD VSS gf180mcu_fd_sc_mcu9t5v0__aoi22_2
X_502_ _211_ _212_ _213_ _214_ VDD VSS gf180mcu_fd_sc_mcu9t5v0__or3_2
X_503_ _200_ _174_ _215_ VDD VSS gf180mcu_fd_sc_mcu9t5v0__and2_2
X_504_ memory\[13\]\[1\] _171_ _173_ _216_ VDD VSS gf180mcu_fd_sc_mcu9t5v0__and3_2
X_505_ memory\[2\]\[1\] _215_ _216_ _395_ _217_ VDD VSS gf180mcu_fd_sc_mcu9t5v0__aoi211_2
X_506_ _180_ _210_ _214_ _217_ _218_ VDD VSS gf180mcu_fd_sc_mcu9t5v0__and4_2
X_507_ memory\[0\]\[1\] _395_ _180_ _219_ VDD VSS gf180mcu_fd_sc_mcu9t5v0__nor3_2
X_508_ net16 _190_ _220_ VDD VSS gf180mcu_fd_sc_mcu9t5v0__nor2_2
X_509_ _205_ _218_ _219_ _220_ _007_ VDD VSS gf180mcu_fd_sc_mcu9t5v0__aoi211_2
X_510_ _161_ memory\[4\]\[2\] _162_ _221_ VDD VSS gf180mcu_fd_sc_mcu9t5v0__and3_2
X_511_ _204_ memory\[1\]\[2\] _171_ _222_ VDD VSS gf180mcu_fd_sc_mcu9t5v0__and3_2
X_512_ _221_ _222_ _212_ _223_ VDD VSS gf180mcu_fd_sc_mcu9t5v0__oai21_2
X_513_ memory\[9\]\[2\] memory\[13\]\[2\] _155_ _224_ VDD
+ VSS gf180mcu_fd_sc_mcu9t5v0__mux2_2
X_514_ _159_ _171_ _225_ VDD VSS gf180mcu_fd_sc_mcu9t5v0__and2_2
X_515_ memory\[2\]\[2\] _215_ _224_ _225_ _226_ VDD VSS gf180mcu_fd_sc_mcu9t5v0__aoi22_2
X_516_ _157_ memory\[11\]\[2\] memory\[8\]\[2\] _162_ _227_
+ VDD VSS gf180mcu_fd_sc_mcu9t5v0__aoi22_2
X_517_ _211_ _212_ _227_ _228_ VDD VSS gf180mcu_fd_sc_mcu9t5v0__or3_2
X_518_ _161_ _159_ _229_ VDD VSS gf180mcu_fd_sc_mcu9t5v0__nand2_2
X_519_ memory\[12\]\[2\] _162_ _193_ memory\[14\]\[2\] _230_
+ VDD VSS gf180mcu_fd_sc_mcu9t5v0__aoi22_2
X_520_ _229_ _230_ _231_ VDD VSS gf180mcu_fd_sc_mcu9t5v0__or2_2
X_521_ _223_ _226_ _228_ _231_ _232_ VDD VSS gf180mcu_fd_sc_mcu9t5v0__and4_2
X_522_ _159_ memory\[10\]\[2\] _193_ _233_ VDD VSS gf180mcu_fd_sc_mcu9t5v0__and3_2
X_523_ _165_ _157_ memory\[3\]\[2\] _234_ VDD VSS gf180mcu_fd_sc_mcu9t5v0__and3_2
X_524_ _157_ memory\[7\]\[2\] memory\[6\]\[2\] _200_ _167_
+ memory\[5\]\[2\] _235_ VDD VSS gf180mcu_fd_sc_mcu9t5v0__aoi222_4
X_525_ _159_ _157_ memory\[15\]\[2\] _236_ VDD VSS gf180mcu_fd_sc_mcu9t5v0__nand3_2
X_526_ _159_ _235_ _236_ _161_ _237_ VDD VSS gf180mcu_fd_sc_mcu9t5v0__oai211_2
X_527_ _211_ _233_ _234_ _237_ _238_ VDD VSS gf180mcu_fd_sc_mcu9t5v0__oai31_2
X_528_ _154_ _179_ _239_ VDD VSS gf180mcu_fd_sc_mcu9t5v0__and2_2
X_529_ _238_ _239_ _240_ VDD VSS gf180mcu_fd_sc_mcu9t5v0__and2_2
X_530_ memory\[0\]\[2\] _395_ _180_ _241_ VDD VSS gf180mcu_fd_sc_mcu9t5v0__or3_2
X_531_ net17 _190_ _241_ _242_ VDD VSS gf180mcu_fd_sc_mcu9t5v0__oai21_2
X_532_ _232_ _240_ _242_ _008_ VDD VSS gf180mcu_fd_sc_mcu9t5v0__aoi21_2
X_533_ memory\[10\]\[3\] _193_ _243_ VDD VSS gf180mcu_fd_sc_mcu9t5v0__nand2_2
X_534_ _198_ memory\[3\]\[3\] _244_ VDD VSS gf180mcu_fd_sc_mcu9t5v0__nand2_2
X_535_ _198_ memory\[15\]\[3\] _245_ VDD VSS gf180mcu_fd_sc_mcu9t5v0__nand2_2
X_536_ _198_ memory\[7\]\[3\] memory\[6\]\[3\] _193_ _171_
+ memory\[5\]\[3\] _246_ VDD VSS gf180mcu_fd_sc_mcu9t5v0__aoi222_2
X_537_ _243_ _244_ _245_ _246_ _212_ _211_ _247_ VDD VSS gf180mcu_fd_sc_mcu9t5v0__mux4_2
X_538_ _157_ memory\[11\]\[3\] memory\[8\]\[3\] _166_ _248_
+ VDD VSS gf180mcu_fd_sc_mcu9t5v0__aoi22_2
X_539_ _161_ _165_ _248_ _249_ VDD VSS gf180mcu_fd_sc_mcu9t5v0__nor3_2
X_540_ memory\[2\]\[3\] _215_ _249_ _250_ VDD VSS gf180mcu_fd_sc_mcu9t5v0__aoi21_2
X_541_ _161_ memory\[4\]\[3\] _162_ _251_ VDD VSS gf180mcu_fd_sc_mcu9t5v0__and3_2
X_542_ _204_ memory\[1\]\[3\] _171_ _252_ VDD VSS gf180mcu_fd_sc_mcu9t5v0__and3_2
X_543_ _251_ _252_ _212_ _253_ VDD VSS gf180mcu_fd_sc_mcu9t5v0__oai21_2
X_544_ memory\[9\]\[3\] memory\[13\]\[3\] _155_ _254_ VDD
+ VSS gf180mcu_fd_sc_mcu9t5v0__mux2_2
X_545_ memory\[12\]\[3\] _162_ _193_ memory\[14\]\[3\] _255_
+ VDD VSS gf180mcu_fd_sc_mcu9t5v0__aoi22_2
X_546_ _255_ _256_ VDD VSS gf180mcu_fd_sc_mcu9t5v0__clkinv_2
X_547_ _225_ _254_ _256_ _173_ _257_ VDD VSS gf180mcu_fd_sc_mcu9t5v0__aoi22_2
X_548_ _239_ _250_ _253_ _257_ _258_ VDD VSS gf180mcu_fd_sc_mcu9t5v0__and4_2
X_549_ memory\[0\]\[3\] _395_ _180_ _259_ VDD VSS gf180mcu_fd_sc_mcu9t5v0__or3_2
X_550_ net18 _190_ _259_ _260_ VDD VSS gf180mcu_fd_sc_mcu9t5v0__oai21_2
X_551_ _247_ _258_ _260_ _009_ VDD VSS gf180mcu_fd_sc_mcu9t5v0__aoi21_2
X_552_ net19 _395_ _261_ VDD VSS gf180mcu_fd_sc_mcu9t5v0__nand2_2
X_553_ memory\[0\]\[4\] _180_ _190_ _262_ VDD VSS gf180mcu_fd_sc_mcu9t5v0__oai21_2
X_554_ memory\[5\]\[4\] _413_ _263_ VDD VSS gf180mcu_fd_sc_mcu9t5v0__and2_2
X_555_ _156_ memory\[3\]\[4\] _264_ VDD VSS gf180mcu_fd_sc_mcu9t5v0__and2_2
X_556_ _263_ _264_ _204_ _265_ VDD VSS gf180mcu_fd_sc_mcu9t5v0__mux2_2
X_557_ memory\[7\]\[4\] memory\[15\]\[4\] _196_ _266_ VDD
+ VSS gf180mcu_fd_sc_mcu9t5v0__mux2_2
X_558_ _212_ _265_ _266_ _158_ _267_ VDD VSS gf180mcu_fd_sc_mcu9t5v0__aoi22_2
X_559_ memory\[2\]\[4\] _200_ _167_ memory\[1\]\[4\] _159_
+ _268_ VDD VSS gf180mcu_fd_sc_mcu9t5v0__aoi221_2
X_560_ _156_ memory\[11\]\[4\] memory\[8\]\[4\] _409_ _269_
+ VDD VSS gf180mcu_fd_sc_mcu9t5v0__aoi22_2
X_561_ memory\[10\]\[4\] _181_ _413_ memory\[9\]\[4\] _270_
+ VDD VSS gf180mcu_fd_sc_mcu9t5v0__aoi22_2
X_562_ _196_ _269_ _270_ _271_ VDD VSS gf180mcu_fd_sc_mcu9t5v0__and3_2
X_563_ _211_ _268_ _271_ _272_ VDD VSS gf180mcu_fd_sc_mcu9t5v0__or3_2
X_564_ memory\[4\]\[4\] _166_ _200_ memory\[6\]\[4\] _196_
+ _273_ VDD VSS gf180mcu_fd_sc_mcu9t5v0__aoi221_2
X_565_ memory\[12\]\[4\] _166_ _181_ memory\[14\]\[4\] _274_
+ VDD VSS gf180mcu_fd_sc_mcu9t5v0__aoi22_2
X_566_ memory\[13\]\[4\] _167_ _275_ VDD VSS gf180mcu_fd_sc_mcu9t5v0__nand2_2
X_567_ _196_ _274_ _275_ _276_ VDD VSS gf180mcu_fd_sc_mcu9t5v0__and3_2
X_568_ _204_ _273_ _276_ _277_ VDD VSS gf180mcu_fd_sc_mcu9t5v0__or3_2
X_569_ _239_ _267_ _272_ _277_ _278_ VDD VSS gf180mcu_fd_sc_mcu9t5v0__and4_2
X_570_ _261_ _262_ _278_ _010_ VDD VSS gf180mcu_fd_sc_mcu9t5v0__aoi21_2
X_571_ memory\[12\]\[5\] _162_ _171_ memory\[13\]\[5\] _279_
+ VDD VSS gf180mcu_fd_sc_mcu9t5v0__aoi22_2
X_572_ memory\[14\]\[5\] _193_ _229_ _280_ VDD VSS gf180mcu_fd_sc_mcu9t5v0__aoi21_2
X_573_ _156_ memory\[11\]\[5\] memory\[8\]\[5\] _166_ _281_
+ VDD VSS gf180mcu_fd_sc_mcu9t5v0__aoi22_2
X_574_ memory\[1\]\[5\] _167_ _282_ VDD VSS gf180mcu_fd_sc_mcu9t5v0__nand2_2
X_575_ _281_ _282_ _165_ _283_ VDD VSS gf180mcu_fd_sc_mcu9t5v0__mux2_2
X_576_ memory\[6\]\[5\] _200_ _167_ memory\[5\]\[5\] _284_
+ VDD VSS gf180mcu_fd_sc_mcu9t5v0__aoi22_2
X_577_ memory\[4\]\[5\] _166_ _285_ VDD VSS gf180mcu_fd_sc_mcu9t5v0__nand2_2
X_578_ _155_ _165_ _284_ _285_ _286_ VDD VSS gf180mcu_fd_sc_mcu9t5v0__and4_2
X_579_ _279_ _280_ _283_ _204_ _286_ _287_ VDD VSS gf180mcu_fd_sc_mcu9t5v0__aoi221_2
X_580_ memory\[10\]\[5\] _200_ _167_ memory\[9\]\[5\] _288_
+ VDD VSS gf180mcu_fd_sc_mcu9t5v0__aoi22_2
X_581_ _157_ memory\[3\]\[5\] memory\[2\]\[5\] _200_ _289_
+ VDD VSS gf180mcu_fd_sc_mcu9t5v0__aoi22_2
X_582_ _288_ _289_ _165_ _290_ VDD VSS gf180mcu_fd_sc_mcu9t5v0__mux2_2
X_583_ memory\[7\]\[5\] memory\[15\]\[5\] _196_ _291_ VDD
+ VSS gf180mcu_fd_sc_mcu9t5v0__mux2_2
X_584_ _158_ _291_ _292_ VDD VSS gf180mcu_fd_sc_mcu9t5v0__nand2_2
X_585_ _211_ _290_ _292_ _180_ _293_ VDD VSS gf180mcu_fd_sc_mcu9t5v0__oai211_2
X_586_ memory\[0\]\[5\] _180_ _287_ _293_ _190_ _294_ VDD
+ VSS gf180mcu_fd_sc_mcu9t5v0__oai221_2
X_587_ net20 _395_ _295_ VDD VSS gf180mcu_fd_sc_mcu9t5v0__nand2_2
X_588_ _294_ _295_ _011_ VDD VSS gf180mcu_fd_sc_mcu9t5v0__nand2_2
X_589_ net21 _395_ _296_ VDD VSS gf180mcu_fd_sc_mcu9t5v0__nand2_2
X_590_ memory\[0\]\[6\] _180_ _190_ _297_ VDD VSS gf180mcu_fd_sc_mcu9t5v0__oai21_2
X_591_ memory\[5\]\[6\] _413_ _298_ VDD VSS gf180mcu_fd_sc_mcu9t5v0__and2_2
X_592_ _156_ memory\[3\]\[6\] _299_ VDD VSS gf180mcu_fd_sc_mcu9t5v0__and2_2
X_593_ _298_ _299_ _204_ _300_ VDD VSS gf180mcu_fd_sc_mcu9t5v0__mux2_2
X_594_ memory\[7\]\[6\] memory\[15\]\[6\] _196_ _301_ VDD
+ VSS gf180mcu_fd_sc_mcu9t5v0__mux2_2
X_595_ _212_ _300_ _301_ _158_ _302_ VDD VSS gf180mcu_fd_sc_mcu9t5v0__aoi22_2
X_596_ memory\[2\]\[6\] _200_ _167_ memory\[1\]\[6\] _159_
+ _303_ VDD VSS gf180mcu_fd_sc_mcu9t5v0__aoi221_2
X_597_ _156_ memory\[11\]\[6\] memory\[8\]\[6\] _409_ _304_
+ VDD VSS gf180mcu_fd_sc_mcu9t5v0__aoi22_2
X_598_ memory\[10\]\[6\] _181_ _413_ memory\[9\]\[6\] _305_
+ VDD VSS gf180mcu_fd_sc_mcu9t5v0__aoi22_2
X_599_ _196_ _304_ _305_ _306_ VDD VSS gf180mcu_fd_sc_mcu9t5v0__and3_2
X_600_ _211_ _303_ _306_ _307_ VDD VSS gf180mcu_fd_sc_mcu9t5v0__or3_2
X_601_ memory\[4\]\[6\] _166_ _200_ memory\[6\]\[6\] _196_
+ _308_ VDD VSS gf180mcu_fd_sc_mcu9t5v0__aoi221_2
X_602_ memory\[12\]\[6\] _409_ _181_ memory\[14\]\[6\] _309_
+ VDD VSS gf180mcu_fd_sc_mcu9t5v0__aoi22_2
X_603_ memory\[13\]\[6\] _167_ _310_ VDD VSS gf180mcu_fd_sc_mcu9t5v0__nand2_2
X_604_ _196_ _309_ _310_ _311_ VDD VSS gf180mcu_fd_sc_mcu9t5v0__and3_2
X_605_ _204_ _308_ _311_ _312_ VDD VSS gf180mcu_fd_sc_mcu9t5v0__or3_2
X_606_ _239_ _302_ _307_ _312_ _313_ VDD VSS gf180mcu_fd_sc_mcu9t5v0__and4_2
X_607_ _296_ _297_ _313_ _012_ VDD VSS gf180mcu_fd_sc_mcu9t5v0__aoi21_2
X_608_ memory\[10\]\[7\] _193_ _314_ VDD VSS gf180mcu_fd_sc_mcu9t5v0__nand2_2
X_609_ _198_ memory\[3\]\[7\] _315_ VDD VSS gf180mcu_fd_sc_mcu9t5v0__nand2_2
X_610_ _198_ memory\[15\]\[7\] _316_ VDD VSS gf180mcu_fd_sc_mcu9t5v0__nand2_2
X_611_ _198_ memory\[7\]\[7\] memory\[6\]\[7\] _193_ _171_
+ memory\[5\]\[7\] _317_ VDD VSS gf180mcu_fd_sc_mcu9t5v0__aoi222_2
X_612_ _314_ _315_ _316_ _317_ _212_ _211_ _318_ VDD VSS gf180mcu_fd_sc_mcu9t5v0__mux4_2
X_613_ _157_ memory\[11\]\[7\] memory\[8\]\[7\] _166_ _319_
+ VDD VSS gf180mcu_fd_sc_mcu9t5v0__aoi22_2
X_614_ _161_ _165_ _319_ _320_ VDD VSS gf180mcu_fd_sc_mcu9t5v0__nor3_2
X_615_ memory\[2\]\[7\] _215_ _320_ _321_ VDD VSS gf180mcu_fd_sc_mcu9t5v0__aoi21_2
X_616_ _161_ memory\[4\]\[7\] _162_ _322_ VDD VSS gf180mcu_fd_sc_mcu9t5v0__and3_2
X_617_ _204_ memory\[1\]\[7\] _171_ _323_ VDD VSS gf180mcu_fd_sc_mcu9t5v0__and3_2
X_618_ _322_ _323_ _212_ _324_ VDD VSS gf180mcu_fd_sc_mcu9t5v0__oai21_2
X_619_ memory\[9\]\[7\] memory\[13\]\[7\] _155_ _325_ VDD
+ VSS gf180mcu_fd_sc_mcu9t5v0__mux2_2
X_620_ memory\[12\]\[7\] _162_ _193_ memory\[14\]\[7\] _326_
+ VDD VSS gf180mcu_fd_sc_mcu9t5v0__aoi22_2
X_621_ _326_ _327_ VDD VSS gf180mcu_fd_sc_mcu9t5v0__clkinv_2
X_622_ _225_ _325_ _327_ _173_ _328_ VDD VSS gf180mcu_fd_sc_mcu9t5v0__aoi22_2
X_623_ _239_ _321_ _324_ _328_ _329_ VDD VSS gf180mcu_fd_sc_mcu9t5v0__and4_2
X_624_ memory\[0\]\[7\] _395_ _179_ _330_ VDD VSS gf180mcu_fd_sc_mcu9t5v0__or3_2
X_625_ net22 _190_ _330_ _331_ VDD VSS gf180mcu_fd_sc_mcu9t5v0__oai21_2
X_626_ _318_ _329_ _331_ _013_ VDD VSS gf180mcu_fd_sc_mcu9t5v0__aoi21_2
X_627_ net2 _332_ VDD VSS gf180mcu_fd_sc_mcu9t5v0__buf_3
X_628_ net28 _150_ wr_ptr\[3\] _151_ _333_ VDD VSS gf180mcu_fd_sc_mcu9t5v0__aoi211_4
X_629_ wr_ptr\[2\] _334_ VDD VSS gf180mcu_fd_sc_mcu9t5v0__clkinv_2
X_630_ net11 _334_ _335_ VDD VSS gf180mcu_fd_sc_mcu9t5v0__and2_2
X_631_ _333_ _335_ _336_ VDD VSS gf180mcu_fd_sc_mcu9t5v0__and2_2
X_632_ _399_ _336_ _337_ VDD VSS gf180mcu_fd_sc_mcu9t5v0__and2_4
X_633_ memory\[0\]\[0\] _332_ _337_ _014_ VDD VSS gf180mcu_fd_sc_mcu9t5v0__mux2_2
X_634_ net3 _338_ VDD VSS gf180mcu_fd_sc_mcu9t5v0__clkbuf_4
X_635_ memory\[0\]\[1\] _338_ _337_ _015_ VDD VSS gf180mcu_fd_sc_mcu9t5v0__mux2_2
X_636_ net4 _339_ VDD VSS gf180mcu_fd_sc_mcu9t5v0__buf_3
X_637_ memory\[0\]\[2\] _339_ _337_ _016_ VDD VSS gf180mcu_fd_sc_mcu9t5v0__mux2_2
X_638_ net5 _340_ VDD VSS gf180mcu_fd_sc_mcu9t5v0__buf_3
X_639_ memory\[0\]\[3\] _340_ _337_ _017_ VDD VSS gf180mcu_fd_sc_mcu9t5v0__mux2_2
X_640_ net6 _341_ VDD VSS gf180mcu_fd_sc_mcu9t5v0__buf_3
X_641_ memory\[0\]\[4\] _341_ _337_ _018_ VDD VSS gf180mcu_fd_sc_mcu9t5v0__mux2_2
X_642_ net7 _342_ VDD VSS gf180mcu_fd_sc_mcu9t5v0__buf_3
X_643_ memory\[0\]\[5\] _342_ _337_ _019_ VDD VSS gf180mcu_fd_sc_mcu9t5v0__mux2_2
X_644_ net8 _343_ VDD VSS gf180mcu_fd_sc_mcu9t5v0__buf_3
X_645_ memory\[0\]\[6\] _343_ _337_ _020_ VDD VSS gf180mcu_fd_sc_mcu9t5v0__mux2_2
X_646_ net9 _344_ VDD VSS gf180mcu_fd_sc_mcu9t5v0__buf_3
X_647_ memory\[0\]\[7\] _344_ _337_ _021_ VDD VSS gf180mcu_fd_sc_mcu9t5v0__mux2_2
X_648_ wr_ptr\[3\] _394_ _335_ _345_ VDD VSS gf180mcu_fd_sc_mcu9t5v0__and3_2
X_649_ _401_ _345_ _346_ VDD VSS gf180mcu_fd_sc_mcu9t5v0__and2_4
X_650_ memory\[10\]\[0\] _332_ _346_ _022_ VDD VSS gf180mcu_fd_sc_mcu9t5v0__mux2_2
X_651_ memory\[10\]\[1\] _338_ _346_ _023_ VDD VSS gf180mcu_fd_sc_mcu9t5v0__mux2_2
X_652_ memory\[10\]\[2\] _339_ _346_ _024_ VDD VSS gf180mcu_fd_sc_mcu9t5v0__mux2_2
X_653_ memory\[10\]\[3\] _340_ _346_ _025_ VDD VSS gf180mcu_fd_sc_mcu9t5v0__mux2_2
X_654_ memory\[10\]\[4\] _341_ _346_ _026_ VDD VSS gf180mcu_fd_sc_mcu9t5v0__mux2_2
X_655_ memory\[10\]\[5\] _342_ _346_ _027_ VDD VSS gf180mcu_fd_sc_mcu9t5v0__mux2_2
X_656_ memory\[10\]\[6\] _343_ _346_ _028_ VDD VSS gf180mcu_fd_sc_mcu9t5v0__mux2_2
X_657_ memory\[10\]\[7\] _344_ _346_ _029_ VDD VSS gf180mcu_fd_sc_mcu9t5v0__mux2_2
X_658_ _405_ _345_ _347_ VDD VSS gf180mcu_fd_sc_mcu9t5v0__and2_4
X_659_ memory\[11\]\[0\] _332_ _347_ _030_ VDD VSS gf180mcu_fd_sc_mcu9t5v0__mux2_2
X_660_ memory\[11\]\[1\] _338_ _347_ _031_ VDD VSS gf180mcu_fd_sc_mcu9t5v0__mux2_2
X_661_ memory\[11\]\[2\] _339_ _347_ _032_ VDD VSS gf180mcu_fd_sc_mcu9t5v0__mux2_2
X_662_ memory\[11\]\[3\] _340_ _347_ _033_ VDD VSS gf180mcu_fd_sc_mcu9t5v0__mux2_2
X_663_ memory\[11\]\[4\] _341_ _347_ _034_ VDD VSS gf180mcu_fd_sc_mcu9t5v0__mux2_2
X_664_ memory\[11\]\[5\] _342_ _347_ _035_ VDD VSS gf180mcu_fd_sc_mcu9t5v0__mux2_2
X_665_ memory\[11\]\[6\] _343_ _347_ _036_ VDD VSS gf180mcu_fd_sc_mcu9t5v0__mux2_2
X_666_ memory\[11\]\[7\] _344_ _347_ _037_ VDD VSS gf180mcu_fd_sc_mcu9t5v0__mux2_2
X_667_ net11 wr_ptr\[2\] wr_ptr\[3\] _394_ _348_ VDD VSS gf180mcu_fd_sc_mcu9t5v0__and4_4
X_668_ _399_ _348_ _349_ VDD VSS gf180mcu_fd_sc_mcu9t5v0__nand2_4
X_669_ _332_ memory\[12\]\[0\] _349_ _038_ VDD VSS gf180mcu_fd_sc_mcu9t5v0__mux2_2
X_670_ _338_ memory\[12\]\[1\] _349_ _039_ VDD VSS gf180mcu_fd_sc_mcu9t5v0__mux2_2
X_671_ _339_ memory\[12\]\[2\] _349_ _040_ VDD VSS gf180mcu_fd_sc_mcu9t5v0__mux2_2
X_672_ _340_ memory\[12\]\[3\] _349_ _041_ VDD VSS gf180mcu_fd_sc_mcu9t5v0__mux2_2
X_673_ _341_ memory\[12\]\[4\] _349_ _042_ VDD VSS gf180mcu_fd_sc_mcu9t5v0__mux2_2
X_674_ _342_ memory\[12\]\[5\] _349_ _043_ VDD VSS gf180mcu_fd_sc_mcu9t5v0__mux2_2
X_675_ _343_ memory\[12\]\[6\] _349_ _044_ VDD VSS gf180mcu_fd_sc_mcu9t5v0__mux2_2
X_676_ _344_ memory\[12\]\[7\] _349_ _045_ VDD VSS gf180mcu_fd_sc_mcu9t5v0__mux2_2
X_677_ _403_ _348_ _350_ VDD VSS gf180mcu_fd_sc_mcu9t5v0__nand2_4
X_678_ _332_ memory\[13\]\[0\] _350_ _046_ VDD VSS gf180mcu_fd_sc_mcu9t5v0__mux2_2
X_679_ _338_ memory\[13\]\[1\] _350_ _047_ VDD VSS gf180mcu_fd_sc_mcu9t5v0__mux2_2
X_680_ _339_ memory\[13\]\[2\] _350_ _048_ VDD VSS gf180mcu_fd_sc_mcu9t5v0__mux2_2
X_681_ _340_ memory\[13\]\[3\] _350_ _049_ VDD VSS gf180mcu_fd_sc_mcu9t5v0__mux2_2
X_682_ _341_ memory\[13\]\[4\] _350_ _050_ VDD VSS gf180mcu_fd_sc_mcu9t5v0__mux2_2
X_683_ _342_ memory\[13\]\[5\] _350_ _051_ VDD VSS gf180mcu_fd_sc_mcu9t5v0__mux2_2
X_684_ _343_ memory\[13\]\[6\] _350_ _052_ VDD VSS gf180mcu_fd_sc_mcu9t5v0__mux2_2
X_685_ _344_ memory\[13\]\[7\] _350_ _053_ VDD VSS gf180mcu_fd_sc_mcu9t5v0__mux2_2
X_686_ _401_ _348_ _351_ VDD VSS gf180mcu_fd_sc_mcu9t5v0__nand2_4
X_687_ _332_ memory\[14\]\[0\] _351_ _054_ VDD VSS gf180mcu_fd_sc_mcu9t5v0__mux2_2
X_688_ _338_ memory\[14\]\[1\] _351_ _055_ VDD VSS gf180mcu_fd_sc_mcu9t5v0__mux2_2
X_689_ _339_ memory\[14\]\[2\] _351_ _056_ VDD VSS gf180mcu_fd_sc_mcu9t5v0__mux2_2
X_690_ _340_ memory\[14\]\[3\] _351_ _057_ VDD VSS gf180mcu_fd_sc_mcu9t5v0__mux2_2
X_691_ _341_ memory\[14\]\[4\] _351_ _058_ VDD VSS gf180mcu_fd_sc_mcu9t5v0__mux2_2
X_692_ _342_ memory\[14\]\[5\] _351_ _059_ VDD VSS gf180mcu_fd_sc_mcu9t5v0__mux2_2
X_693_ _343_ memory\[14\]\[6\] _351_ _060_ VDD VSS gf180mcu_fd_sc_mcu9t5v0__mux2_2
X_694_ _344_ memory\[14\]\[7\] _351_ _061_ VDD VSS gf180mcu_fd_sc_mcu9t5v0__mux2_2
X_695_ _405_ _348_ _352_ VDD VSS gf180mcu_fd_sc_mcu9t5v0__nand2_4
X_696_ _332_ memory\[15\]\[0\] _352_ _062_ VDD VSS gf180mcu_fd_sc_mcu9t5v0__mux2_2
X_697_ _338_ memory\[15\]\[1\] _352_ _063_ VDD VSS gf180mcu_fd_sc_mcu9t5v0__mux2_2
X_698_ _339_ memory\[15\]\[2\] _352_ _064_ VDD VSS gf180mcu_fd_sc_mcu9t5v0__mux2_2
X_699_ _340_ memory\[15\]\[3\] _352_ _065_ VDD VSS gf180mcu_fd_sc_mcu9t5v0__mux2_2
X_700_ _341_ memory\[15\]\[4\] _352_ _066_ VDD VSS gf180mcu_fd_sc_mcu9t5v0__mux2_2
X_701_ _342_ memory\[15\]\[5\] _352_ _067_ VDD VSS gf180mcu_fd_sc_mcu9t5v0__mux2_2
X_702_ _343_ memory\[15\]\[6\] _352_ _068_ VDD VSS gf180mcu_fd_sc_mcu9t5v0__mux2_2
X_703_ _344_ memory\[15\]\[7\] _352_ _069_ VDD VSS gf180mcu_fd_sc_mcu9t5v0__mux2_2
X_704_ _403_ _336_ _353_ VDD VSS gf180mcu_fd_sc_mcu9t5v0__and2_4
X_705_ memory\[1\]\[0\] _332_ _353_ _070_ VDD VSS gf180mcu_fd_sc_mcu9t5v0__mux2_2
X_706_ memory\[1\]\[1\] _338_ _353_ _071_ VDD VSS gf180mcu_fd_sc_mcu9t5v0__mux2_2
X_707_ memory\[1\]\[2\] _339_ _353_ _072_ VDD VSS gf180mcu_fd_sc_mcu9t5v0__mux2_2
X_708_ memory\[1\]\[3\] _340_ _353_ _073_ VDD VSS gf180mcu_fd_sc_mcu9t5v0__mux2_2
X_709_ memory\[1\]\[4\] _341_ _353_ _074_ VDD VSS gf180mcu_fd_sc_mcu9t5v0__mux2_2
X_710_ memory\[1\]\[5\] _342_ _353_ _075_ VDD VSS gf180mcu_fd_sc_mcu9t5v0__mux2_2
X_711_ memory\[1\]\[6\] _343_ _353_ _076_ VDD VSS gf180mcu_fd_sc_mcu9t5v0__mux2_2
X_712_ memory\[1\]\[7\] _344_ _353_ _077_ VDD VSS gf180mcu_fd_sc_mcu9t5v0__mux2_2
X_713_ _401_ _336_ _354_ VDD VSS gf180mcu_fd_sc_mcu9t5v0__and2_4
X_714_ memory\[2\]\[0\] _332_ _354_ _078_ VDD VSS gf180mcu_fd_sc_mcu9t5v0__mux2_2
X_715_ memory\[2\]\[1\] _338_ _354_ _079_ VDD VSS gf180mcu_fd_sc_mcu9t5v0__mux2_2
X_716_ memory\[2\]\[2\] _339_ _354_ _080_ VDD VSS gf180mcu_fd_sc_mcu9t5v0__mux2_2
X_717_ memory\[2\]\[3\] _340_ _354_ _081_ VDD VSS gf180mcu_fd_sc_mcu9t5v0__mux2_2
X_718_ memory\[2\]\[4\] _341_ _354_ _082_ VDD VSS gf180mcu_fd_sc_mcu9t5v0__mux2_2
X_719_ memory\[2\]\[5\] _342_ _354_ _083_ VDD VSS gf180mcu_fd_sc_mcu9t5v0__mux2_2
X_720_ memory\[2\]\[6\] _343_ _354_ _084_ VDD VSS gf180mcu_fd_sc_mcu9t5v0__mux2_2
X_721_ memory\[2\]\[7\] _344_ _354_ _085_ VDD VSS gf180mcu_fd_sc_mcu9t5v0__mux2_2
X_722_ _405_ _336_ _355_ VDD VSS gf180mcu_fd_sc_mcu9t5v0__and2_4
X_723_ memory\[3\]\[0\] _332_ _355_ _086_ VDD VSS gf180mcu_fd_sc_mcu9t5v0__mux2_2
X_724_ memory\[3\]\[1\] _338_ _355_ _087_ VDD VSS gf180mcu_fd_sc_mcu9t5v0__mux2_2
X_725_ memory\[3\]\[2\] _339_ _355_ _088_ VDD VSS gf180mcu_fd_sc_mcu9t5v0__mux2_2
X_726_ memory\[3\]\[3\] _340_ _355_ _089_ VDD VSS gf180mcu_fd_sc_mcu9t5v0__mux2_2
X_727_ memory\[3\]\[4\] _341_ _355_ _090_ VDD VSS gf180mcu_fd_sc_mcu9t5v0__mux2_2
X_728_ memory\[3\]\[5\] _342_ _355_ _091_ VDD VSS gf180mcu_fd_sc_mcu9t5v0__mux2_2
X_729_ memory\[3\]\[6\] _343_ _355_ _092_ VDD VSS gf180mcu_fd_sc_mcu9t5v0__mux2_2
X_730_ memory\[3\]\[7\] _344_ _355_ _093_ VDD VSS gf180mcu_fd_sc_mcu9t5v0__mux2_2
X_731_ net11 wr_ptr\[2\] _333_ _356_ VDD VSS gf180mcu_fd_sc_mcu9t5v0__and3_2
X_732_ _399_ _356_ _357_ VDD VSS gf180mcu_fd_sc_mcu9t5v0__and2_4
X_733_ memory\[4\]\[0\] net2 _357_ _094_ VDD VSS gf180mcu_fd_sc_mcu9t5v0__mux2_2
X_734_ memory\[4\]\[1\] net3 _357_ _095_ VDD VSS gf180mcu_fd_sc_mcu9t5v0__mux2_2
X_735_ memory\[4\]\[2\] net4 _357_ _096_ VDD VSS gf180mcu_fd_sc_mcu9t5v0__mux2_2
X_736_ memory\[4\]\[3\] net5 _357_ _097_ VDD VSS gf180mcu_fd_sc_mcu9t5v0__mux2_2
X_737_ memory\[4\]\[4\] net6 _357_ _098_ VDD VSS gf180mcu_fd_sc_mcu9t5v0__mux2_2
X_738_ memory\[4\]\[5\] net7 _357_ _099_ VDD VSS gf180mcu_fd_sc_mcu9t5v0__mux2_2
X_739_ memory\[4\]\[6\] net8 _357_ _100_ VDD VSS gf180mcu_fd_sc_mcu9t5v0__mux2_2
X_740_ memory\[4\]\[7\] net9 _357_ _101_ VDD VSS gf180mcu_fd_sc_mcu9t5v0__mux2_2
X_741_ _403_ _356_ _358_ VDD VSS gf180mcu_fd_sc_mcu9t5v0__and2_4
X_742_ memory\[5\]\[0\] net2 _358_ _102_ VDD VSS gf180mcu_fd_sc_mcu9t5v0__mux2_2
X_743_ memory\[5\]\[1\] net3 _358_ _103_ VDD VSS gf180mcu_fd_sc_mcu9t5v0__mux2_2
X_744_ memory\[5\]\[2\] net4 _358_ _104_ VDD VSS gf180mcu_fd_sc_mcu9t5v0__mux2_2
X_745_ memory\[5\]\[3\] net5 _358_ _105_ VDD VSS gf180mcu_fd_sc_mcu9t5v0__mux2_2
X_746_ memory\[5\]\[4\] net6 _358_ _106_ VDD VSS gf180mcu_fd_sc_mcu9t5v0__mux2_2
X_747_ memory\[5\]\[5\] net7 _358_ _107_ VDD VSS gf180mcu_fd_sc_mcu9t5v0__mux2_2
X_748_ memory\[5\]\[6\] net8 _358_ _108_ VDD VSS gf180mcu_fd_sc_mcu9t5v0__mux2_2
X_749_ memory\[5\]\[7\] net9 _358_ _109_ VDD VSS gf180mcu_fd_sc_mcu9t5v0__mux2_2
X_750_ _401_ _356_ _359_ VDD VSS gf180mcu_fd_sc_mcu9t5v0__and2_4
X_751_ memory\[6\]\[0\] net2 _359_ _110_ VDD VSS gf180mcu_fd_sc_mcu9t5v0__mux2_2
X_752_ memory\[6\]\[1\] net3 _359_ _111_ VDD VSS gf180mcu_fd_sc_mcu9t5v0__mux2_2
X_753_ memory\[6\]\[2\] net4 _359_ _112_ VDD VSS gf180mcu_fd_sc_mcu9t5v0__mux2_2
X_754_ memory\[6\]\[3\] net5 _359_ _113_ VDD VSS gf180mcu_fd_sc_mcu9t5v0__mux2_2
X_755_ memory\[6\]\[4\] net6 _359_ _114_ VDD VSS gf180mcu_fd_sc_mcu9t5v0__mux2_2
X_756_ memory\[6\]\[5\] net7 _359_ _115_ VDD VSS gf180mcu_fd_sc_mcu9t5v0__mux2_2
X_757_ memory\[6\]\[6\] net8 _359_ _116_ VDD VSS gf180mcu_fd_sc_mcu9t5v0__mux2_2
X_758_ memory\[6\]\[7\] net9 _359_ _117_ VDD VSS gf180mcu_fd_sc_mcu9t5v0__mux2_2
X_759_ _405_ _356_ _360_ VDD VSS gf180mcu_fd_sc_mcu9t5v0__and2_4
X_760_ memory\[7\]\[0\] net2 _360_ _118_ VDD VSS gf180mcu_fd_sc_mcu9t5v0__mux2_2
X_761_ memory\[7\]\[1\] net3 _360_ _119_ VDD VSS gf180mcu_fd_sc_mcu9t5v0__mux2_2
X_762_ memory\[7\]\[2\] net4 _360_ _120_ VDD VSS gf180mcu_fd_sc_mcu9t5v0__mux2_2
X_763_ memory\[7\]\[3\] net5 _360_ _121_ VDD VSS gf180mcu_fd_sc_mcu9t5v0__mux2_2
X_764_ memory\[7\]\[4\] net6 _360_ _122_ VDD VSS gf180mcu_fd_sc_mcu9t5v0__mux2_2
X_765_ memory\[7\]\[5\] net7 _360_ _123_ VDD VSS gf180mcu_fd_sc_mcu9t5v0__mux2_2
X_766_ memory\[7\]\[6\] net8 _360_ _124_ VDD VSS gf180mcu_fd_sc_mcu9t5v0__mux2_2
X_767_ memory\[7\]\[7\] net9 _360_ _125_ VDD VSS gf180mcu_fd_sc_mcu9t5v0__mux2_2
X_768_ _399_ _345_ _361_ VDD VSS gf180mcu_fd_sc_mcu9t5v0__and2_4
X_769_ memory\[8\]\[0\] net2 _361_ _126_ VDD VSS gf180mcu_fd_sc_mcu9t5v0__mux2_2
X_770_ memory\[8\]\[1\] net3 _361_ _127_ VDD VSS gf180mcu_fd_sc_mcu9t5v0__mux2_2
X_771_ memory\[8\]\[2\] net4 _361_ _128_ VDD VSS gf180mcu_fd_sc_mcu9t5v0__mux2_2
X_772_ memory\[8\]\[3\] net5 _361_ _129_ VDD VSS gf180mcu_fd_sc_mcu9t5v0__mux2_2
X_773_ memory\[8\]\[4\] net6 _361_ _130_ VDD VSS gf180mcu_fd_sc_mcu9t5v0__mux2_2
X_774_ memory\[8\]\[5\] net7 _361_ _131_ VDD VSS gf180mcu_fd_sc_mcu9t5v0__mux2_2
X_775_ memory\[8\]\[6\] net8 _361_ _132_ VDD VSS gf180mcu_fd_sc_mcu9t5v0__mux2_2
X_776_ memory\[8\]\[7\] net9 _361_ _133_ VDD VSS gf180mcu_fd_sc_mcu9t5v0__mux2_2
X_777_ _403_ _345_ _362_ VDD VSS gf180mcu_fd_sc_mcu9t5v0__and2_4
X_778_ memory\[9\]\[0\] net2 _362_ _134_ VDD VSS gf180mcu_fd_sc_mcu9t5v0__mux2_2
X_779_ memory\[9\]\[1\] net3 _362_ _135_ VDD VSS gf180mcu_fd_sc_mcu9t5v0__mux2_2
X_780_ memory\[9\]\[2\] net4 _362_ _136_ VDD VSS gf180mcu_fd_sc_mcu9t5v0__mux2_2
X_781_ memory\[9\]\[3\] net5 _362_ _137_ VDD VSS gf180mcu_fd_sc_mcu9t5v0__mux2_2
X_782_ memory\[9\]\[4\] net6 _362_ _138_ VDD VSS gf180mcu_fd_sc_mcu9t5v0__mux2_2
X_783_ memory\[9\]\[5\] net7 _362_ _139_ VDD VSS gf180mcu_fd_sc_mcu9t5v0__mux2_2
X_784_ memory\[9\]\[6\] net8 _362_ _140_ VDD VSS gf180mcu_fd_sc_mcu9t5v0__mux2_2
X_785_ memory\[9\]\[7\] net9 _362_ _141_ VDD VSS gf180mcu_fd_sc_mcu9t5v0__mux2_2
X_786_ _198_ _173_ rd_ptr\[0\] _363_ VDD VSS gf180mcu_fd_sc_mcu9t5v0__aoi21_2
X_787_ rd_ptr\[0\] _363_ _190_ _142_ VDD VSS gf180mcu_fd_sc_mcu9t5v0__mux2_2
X_788_ rd_ptr\[1\] _410_ _190_ _143_ VDD VSS gf180mcu_fd_sc_mcu9t5v0__mux2_2
X_789_ _198_ _154_ _364_ VDD VSS gf180mcu_fd_sc_mcu9t5v0__and2_2
X_790_ _204_ _364_ _144_ VDD VSS gf180mcu_fd_sc_mcu9t5v0__xnor2_2
X_791_ rd_ptr\[0\] rd_ptr\[1\] _365_ VDD VSS gf180mcu_fd_sc_mcu9t5v0__and2_2
X_792_ _198_ _365_ _154_ _211_ _366_ VDD VSS gf180mcu_fd_sc_mcu9t5v0__oai211_2
X_793_ _211_ _154_ _365_ _367_ VDD VSS gf180mcu_fd_sc_mcu9t5v0__and3_2
X_794_ _366_ _367_ _212_ _145_ VDD VSS gf180mcu_fd_sc_mcu9t5v0__mux2_2
X_795_ wr_ptr\[2\] wr_ptr\[3\] _405_ _368_ VDD VSS gf180mcu_fd_sc_mcu9t5v0__and3_2
X_796_ wr_ptr\[0\] _368_ _369_ VDD VSS gf180mcu_fd_sc_mcu9t5v0__nor2_2
X_797_ wr_ptr\[0\] _369_ _394_ _146_ VDD VSS gf180mcu_fd_sc_mcu9t5v0__mux2_2
X_798_ wr_ptr\[1\] _400_ _394_ _147_ VDD VSS gf180mcu_fd_sc_mcu9t5v0__mux2_2
X_799_ _405_ _394_ _370_ VDD VSS gf180mcu_fd_sc_mcu9t5v0__and2_2
X_800_ _334_ _370_ _148_ VDD VSS gf180mcu_fd_sc_mcu9t5v0__xnor2_2
X_801_ wr_ptr\[0\] wr_ptr\[1\] _371_ VDD VSS gf180mcu_fd_sc_mcu9t5v0__and2_2