
* cell booth_multiplier
* pin clk
* pin product[15]
* pin rst
* pin product[14]
* pin start
* pin done
* pin product[13]
* pin product[10]
* pin product[7]
* pin product[12]
* pin product[8]
* pin product[9]
* pin product[6]
* pin product[11]
* pin product[5]
* pin product[1]
* pin product[4]
* pin multiplier[6]
* pin product[3]
* pin product[0]
* pin product[2]
* pin multiplier[5]
* pin multiplier[7]
* pin multiplier[4]
* pin multiplier[3]
* pin multiplicand[6]
* pin multiplicand[5]
* pin multiplicand[7]
* pin multiplicand[4]
* pin multiplier[1]
* pin multiplicand[0]
* pin multiplier[0]
* pin multiplicand[2]
* pin multiplier[2]
* pin multiplicand[3]
* pin multiplicand[1]
.SUBCKT booth_multiplier 1 2 3 4 5 25 106 113 133 144 171 186 187 199 237 286
+ 287 321 343 360 362 376 377 394 395 407 425 432 434 441 467 468 471 472 473
+ 474
* net 1 clk
* net 2 product[15]
* net 3 rst
* net 4 product[14]
* net 5 start
* net 25 done
* net 106 product[13]
* net 113 product[10]
* net 133 product[7]
* net 144 product[12]
* net 171 product[8]
* net 186 product[9]
* net 187 product[6]
* net 199 product[11]
* net 237 product[5]
* net 286 product[1]
* net 287 product[4]
* net 321 multiplier[6]
* net 343 product[3]
* net 360 product[0]
* net 362 product[2]
* net 376 multiplier[5]
* net 377 multiplier[7]
* net 394 multiplier[4]
* net 395 multiplier[3]
* net 407 multiplicand[6]
* net 425 multiplicand[5]
* net 432 multiplicand[7]
* net 434 multiplicand[4]
* net 441 multiplier[1]
* net 467 multiplicand[0]
* net 468 multiplier[0]
* net 471 multiplicand[2]
* net 472 multiplier[2]
* net 473 multiplicand[3]
* net 474 multiplicand[1]
* cell instance $6 r0 *1 51.52,35.36
X$6 7 1 157 27 27 7 sky130_fd_sc_hd__clkbuf_8
* cell instance $10 r0 *1 44.62,2.72
X$10 27 21 2 7 27 7 sky130_fd_sc_hd__clkbuf_1
* cell instance $13 r0 *1 52.9,2.72
X$13 27 3 27 19 7 7 sky130_fd_sc_hd__dlygate4sd3_1
* cell instance $16 r0 *1 51.52,2.72
X$16 27 20 4 7 27 7 sky130_fd_sc_hd__clkbuf_1
* cell instance $19 r0 *1 50.14,2.72
X$19 27 5 9 7 27 7 sky130_fd_sc_hd__clkbuf_1
* cell instance $21 r0 *1 38.64,2.72
X$21 27 67 55 12 6 7 27 42 7 sky130_fd_sc_hd__a31oi_1
* cell instance $23 r0 *1 41.4,2.72
X$23 27 21 12 6 7 27 7 sky130_fd_sc_hd__nor2_1
* cell instance $35 r0 *1 6.9,2.72
X$35 27 26 48 27 8 7 7 sky130_fd_sc_hd__xor2_1
* cell instance $41 r0 *1 15.64,2.72
X$41 27 15 8 17 27 7 7 sky130_fd_sc_hd__xnor2_1
* cell instance $44 r0 *1 24.38,2.72
X$44 7 32 476 18 52 27 27 7 sky130_fd_sc_hd__ha_1
* cell instance $58 r0 *1 57.5,2.72
X$58 7 41 19 27 27 7 sky130_fd_sc_hd__dlymetal6s2s_1
* cell instance $60 r0 *1 62.56,2.72
X$60 27 9 27 7 29 7 sky130_fd_sc_hd__inv_1
* cell instance $61 r0 *1 63.94,2.72
X$61 27 16 10 11 13 27 7 7 sky130_fd_sc_hd__nand3_1
* cell instance $63 r0 *1 66.24,2.72
X$63 27 16 14 13 27 28 7 7 sky130_fd_sc_hd__o21ai_0
* cell instance $71 r0 *1 74.06,2.72
X$71 27 10 25 7 27 7 sky130_fd_sc_hd__clkbuf_1
* cell instance $81 m0 *1 7.36,8.16
X$81 7 26 475 50 38 27 27 7 sky130_fd_sc_hd__ha_1
* cell instance $83 m0 *1 12.88,8.16
X$83 27 35 34 15 27 7 7 sky130_fd_sc_hd__xnor2_1
* cell instance $84 m0 *1 16.1,8.16
X$84 7 34 62 37 30 44 27 27 7 sky130_fd_sc_hd__fa_1
* cell instance $86 m0 *1 24.38,8.16
X$86 27 32 36 22 27 7 7 sky130_fd_sc_hd__xnor2_1
* cell instance $87 m0 *1 27.6,8.16
X$87 27 37 27 7 18 7 sky130_fd_sc_hd__inv_1
* cell instance $89 m0 *1 29.44,8.16
X$89 27 22 17 33 27 7 7 sky130_fd_sc_hd__xnor2_1
* cell instance $91 m0 *1 36.34,8.16
X$91 7 31 21 23 42 27 27 7 sky130_fd_sc_hd__dfrtp_1
* cell instance $92 m0 *1 45.54,8.16
X$92 7 31 20 23 43 27 27 7 sky130_fd_sc_hd__dfrtp_1
* cell instance $95 m0 *1 57.04,8.16
X$95 27 41 31 27 7 7 sky130_fd_sc_hd__inv_6
* cell instance $96 m0 *1 60.26,8.16
X$96 27 24 27 7 40 7 sky130_fd_sc_hd__inv_1
* cell instance $97 m0 *1 61.64,8.16
X$97 7 11 14 29 24 27 27 7 sky130_fd_sc_hd__ha_1
* cell instance $98 m0 *1 66.24,8.16
X$98 7 31 47 23 39 27 27 7 sky130_fd_sc_hd__dfrtp_1
* cell instance $101 r0 *1 5.52,8.16
X$101 27 49 27 7 58 7 sky130_fd_sc_hd__inv_1
* cell instance $102 r0 *1 6.9,8.16
X$102 7 48 51 50 78 38 27 27 7 sky130_fd_sc_hd__fa_1
* cell instance $106 r0 *1 15.64,8.16
X$106 27 51 27 7 30 7 sky130_fd_sc_hd__inv_1
* cell instance $107 r0 *1 17.02,8.16
X$107 7 35 45 64 62 58 27 27 7 sky130_fd_sc_hd__fa_1
* cell instance $109 r0 *1 24.84,8.16
X$109 27 44 27 7 52 7 sky130_fd_sc_hd__inv_1
* cell instance $110 r0 *1 26.22,8.16
X$110 27 53 27 7 66 7 sky130_fd_sc_hd__inv_1
* cell instance $112 r0 *1 28.06,8.16
X$112 27 45 27 7 54 7 sky130_fd_sc_hd__inv_1
* cell instance $113 r0 *1 29.44,8.16
X$113 7 56 82 54 66 27 27 7 sky130_fd_sc_hd__ha_1
* cell instance $117 r0 *1 37.26,8.16
X$117 7 55 59 69 70 33 27 27 7 sky130_fd_sc_hd__a31o_1
* cell instance $124 r0 *1 46,8.16
X$124 27 56 27 7 71 7 sky130_fd_sc_hd__inv_1
* cell instance $126 r0 *1 48.3,8.16
X$126 27 100 60 68 46 43 7 27 7 sky130_fd_sc_hd__o22ai_1
* cell instance $127 r0 *1 50.6,8.16
X$127 27 20 12 46 7 27 7 sky130_fd_sc_hd__nor2_1
* cell instance $128 r0 *1 51.98,8.16
X$128 7 31 24 23 9 27 27 7 sky130_fd_sc_hd__dfrtp_1
* cell instance $129 r0 *1 61.18,8.16
X$129 7 477 65 9 40 27 27 7 sky130_fd_sc_hd__ha_1
* cell instance $130 r0 *1 65.78,8.16
X$130 27 16 10 60 27 39 7 7 sky130_fd_sc_hd__o21ai_0
* cell instance $132 r0 *1 68.08,8.16
X$132 27 47 27 7 16 7 sky130_fd_sc_hd__inv_1
* cell instance $145 m0 *1 3.22,13.6
X$145 7 49 79 50 61 161 27 27 7 sky130_fd_sc_hd__fa_1
* cell instance $146 m0 *1 10.58,13.6
X$146 7 38 36 57 77 27 27 7 sky130_fd_sc_hd__ha_1
* cell instance $148 m0 *1 15.64,13.6
X$148 27 79 27 7 63 7 sky130_fd_sc_hd__inv_1
* cell instance $151 m0 *1 19.32,13.6
X$151 7 64 98 37 63 44 27 27 7 sky130_fd_sc_hd__fa_1
* cell instance $157 m0 *1 32.2,13.6
X$157 27 80 27 7 81 7 sky130_fd_sc_hd__inv_1
* cell instance $160 m0 *1 34.96,13.6
X$160 27 82 56 83 7 27 59 7 sky130_fd_sc_hd__a21oi_1
* cell instance $162 m0 *1 37.26,13.6
X$162 27 69 33 70 59 27 67 7 7 sky130_fd_sc_hd__nand4_1
* cell instance $165 m0 *1 41.86,13.6
X$165 27 56 73 75 7 27 7 sky130_fd_sc_hd__nor2_1
* cell instance $166 m0 *1 43.24,13.6
X$166 27 56 73 74 27 7 7 sky130_fd_sc_hd__nand2_1
* cell instance $167 m0 *1 44.62,13.6
X$167 7 84 74 56 85 27 27 7 sky130_fd_sc_hd__mux2i_1
* cell instance $168 m0 *1 48.3,13.6
X$168 27 76 84 68 7 27 7 sky130_fd_sc_hd__nor2_1
* cell instance $176 m0 *1 61.18,13.6
X$176 7 7 65 76 16 27 27 sky130_fd_sc_hd__nand2_2
* cell instance $177 m0 *1 63.48,13.6
X$177 27 47 65 95 7 27 7 sky130_fd_sc_hd__nor2b_1
* cell instance $179 m0 *1 66.24,13.6
X$179 7 31 10 23 28 27 27 7 sky130_fd_sc_hd__dfrtp_1
* cell instance $183 r0 *1 6.44,13.6
X$183 7 61 78 57 160 27 27 7 sky130_fd_sc_hd__ha_1
* cell instance $193 r0 *1 23.92,13.6
X$193 7 53 80 98 96 97 27 27 7 sky130_fd_sc_hd__fa_1
* cell instance $195 r0 *1 31.74,13.6
X$195 7 72 83 121 81 27 27 7 sky130_fd_sc_hd__ha_1
* cell instance $196 r0 *1 36.34,13.6
X$196 27 72 56 108 69 27 7 7 sky130_fd_sc_hd__nand3_1
* cell instance $198 r0 *1 39.1,13.6
X$198 27 83 72 99 7 27 86 7 sky130_fd_sc_hd__a21oi_1
* cell instance $204 r0 *1 43.24,13.6
X$204 27 101 86 109 27 7 85 7 sky130_fd_sc_hd__o21ai_1
* cell instance $207 r0 *1 46.46,13.6
X$207 27 71 85 102 7 27 7 sky130_fd_sc_hd__nor2_1
* cell instance $208 r0 *1 47.84,13.6
X$208 7 100 75 102 87 27 27 7 sky130_fd_sc_hd__mux2i_1
* cell instance $210 r0 *1 51.98,13.6
X$210 27 87 88 27 94 7 7 sky130_fd_sc_hd__xor2_1
* cell instance $213 r0 *1 56.58,13.6
X$213 27 76 7 60 27 7 sky130_fd_sc_hd__clkbuf_4
* cell instance $215 r0 *1 63.02,13.6
X$215 27 95 7 12 27 7 sky130_fd_sc_hd__clkbuf_4
* cell instance $216 r0 *1 65.78,13.6
X$216 27 93 94 91 27 92 7 7 sky130_fd_sc_hd__o21ai_0
* cell instance $218 r0 *1 68.54,13.6
X$218 27 89 93 91 27 7 7 sky130_fd_sc_hd__nand2_1
* cell instance $225 r0 *1 71.3,13.6
X$225 27 90 106 7 27 7 sky130_fd_sc_hd__clkbuf_1
* cell instance $231 m0 *1 7.36,19.04
X$231 27 114 27 7 96 7 sky130_fd_sc_hd__inv_1
* cell instance $234 m0 *1 10.12,19.04
X$234 7 50 107 136 115 164 27 27 7 sky130_fd_sc_hd__fa_2
* cell instance $244 m0 *1 35.88,19.04
X$244 27 103 127 99 7 27 108 7 sky130_fd_sc_hd__a21o_1
* cell instance $245 m0 *1 38.64,19.04
X$245 27 72 110 103 56 27 117 7 7 sky130_fd_sc_hd__nand4_1
* cell instance $246 m0 *1 40.94,19.04
X$246 27 103 88 110 72 27 73 7 7 sky130_fd_sc_hd__nand4_1
* cell instance $247 m0 *1 43.24,19.04
X$247 27 103 72 109 27 7 7 sky130_fd_sc_hd__nand2_1
* cell instance $248 m0 *1 44.62,19.04
X$248 27 99 123 104 7 27 7 sky130_fd_sc_hd__nor2_1
* cell instance $249 m0 *1 46,19.04
X$249 27 72 76 122 104 27 105 7 7 sky130_fd_sc_hd__a211o_1
* cell instance $250 m0 *1 49.22,19.04
X$250 27 122 72 12 104 27 111 7 7 sky130_fd_sc_hd__nand4_1
* cell instance $252 m0 *1 52.44,19.04
X$252 27 105 111 116 112 27 7 7 sky130_fd_sc_hd__nand3_1
* cell instance $254 m0 *1 55.2,19.04
X$254 27 90 93 116 27 7 7 sky130_fd_sc_hd__nand2_1
* cell instance $256 m0 *1 57.04,19.04
X$256 7 31 90 23 112 27 27 7 sky130_fd_sc_hd__dfrtp_1
* cell instance $257 m0 *1 66.24,19.04
X$257 7 31 89 23 92 27 27 7 sky130_fd_sc_hd__dfrtp_1
* cell instance $262 r0 *1 10.12,19.04
X$262 27 135 27 7 125 7 sky130_fd_sc_hd__inv_1
* cell instance $268 r0 *1 20.24,19.04
X$268 27 136 27 7 138 7 sky130_fd_sc_hd__inv_1
* cell instance $269 r0 *1 21.62,19.04
X$269 7 97 126 37 125 176 27 27 7 sky130_fd_sc_hd__fa_1
* cell instance $272 r0 *1 30.36,19.04
X$272 27 141 27 7 121 7 sky130_fd_sc_hd__inv_1
* cell instance $277 r0 *1 38.64,19.04
X$277 27 117 142 129 7 27 7 sky130_fd_sc_hd__nor2_1
* cell instance $278 r0 *1 40.02,19.04
X$278 27 118 128 119 129 27 7 70 7 sky130_fd_sc_hd__o31ai_1
* cell instance $281 r0 *1 43.24,19.04
X$281 27 101 103 123 7 27 7 sky130_fd_sc_hd__nor2b_1
* cell instance $282 r0 *1 45.54,19.04
X$282 27 103 110 88 119 118 27 122 7 7 sky130_fd_sc_hd__o2111ai_1
* cell instance $286 r0 *1 56.58,19.04
X$286 27 76 27 7 93 7 sky130_fd_sc_hd__clkbuf_2
* cell instance $291 r0 *1 65.32,19.04
X$291 27 93 139 137 27 120 7 7 sky130_fd_sc_hd__o21ai_0
* cell instance $293 r0 *1 67.62,19.04
X$293 27 132 93 137 27 7 7 sky130_fd_sc_hd__nand2_1
* cell instance $299 r0 *1 72.68,19.04
X$299 27 89 113 7 27 7 sky130_fd_sc_hd__clkbuf_1
* cell instance $300 r0 *1 74.06,19.04
X$300 27 132 133 7 27 7 sky130_fd_sc_hd__clkbuf_1
* cell instance $308 m0 *1 2.3,24.48
X$308 7 114 135 124 134 159 27 27 7 sky130_fd_sc_hd__fa_1
* cell instance $309 m0 *1 9.66,24.48
X$309 7 124 146 115 107 162 27 27 7 sky130_fd_sc_hd__fa_1
* cell instance $311 m0 *1 17.48,24.48
X$311 7 44 184 138 37 190 27 27 7 sky130_fd_sc_hd__fa_4
* cell instance $317 m0 *1 31.74,24.48
X$317 7 148 99 167 140 27 27 7 sky130_fd_sc_hd__ha_1
* cell instance $318 m0 *1 36.34,24.48
X$318 27 148 27 7 103 7 sky130_fd_sc_hd__clkbuf_2
* cell instance $320 m0 *1 39.1,24.48
X$320 27 88 128 142 7 27 7 sky130_fd_sc_hd__nor2_1
* cell instance $323 m0 *1 41.86,24.48
X$323 27 127 110 128 7 27 101 7 sky130_fd_sc_hd__a21oi_1
* cell instance $325 m0 *1 44.16,24.48
X$325 27 88 110 118 150 27 7 7 sky130_fd_sc_hd__nand3_1
* cell instance $326 m0 *1 46,24.48
X$326 27 181 103 27 130 7 7 sky130_fd_sc_hd__xor2_1
* cell instance $327 m0 *1 49.22,24.48
X$327 27 118 149 143 7 27 87 7 sky130_fd_sc_hd__a21oi_1
* cell instance $329 m0 *1 54.74,24.48
X$329 27 93 130 131 27 147 7 7 sky130_fd_sc_hd__o21ai_0
* cell instance $331 m0 *1 57.04,24.48
X$331 7 31 145 23 147 27 27 7 sky130_fd_sc_hd__dfrtp_1
* cell instance $332 m0 *1 66.24,24.48
X$332 7 31 158 23 163 27 27 7 sky130_fd_sc_hd__dfrtp_1
* cell instance $334 r0 *1 1.84,24.48
X$334 27 194 151 172 7 27 7 sky130_fd_sc_hd__nor2_1
* cell instance $336 r0 *1 3.68,24.48
X$336 7 159 161 173 172 27 27 7 sky130_fd_sc_hd__ha_1
* cell instance $338 r0 *1 8.74,24.48
X$338 27 152 151 160 7 27 7 sky130_fd_sc_hd__nor2_1
* cell instance $340 r0 *1 11.04,24.48
X$340 27 152 153 162 27 7 7 sky130_fd_sc_hd__and2_0
* cell instance $341 r0 *1 13.34,24.48
X$341 27 154 151 77 7 27 7 sky130_fd_sc_hd__nor2_1
* cell instance $345 r0 *1 15.64,24.48
X$345 27 153 154 164 27 7 7 sky130_fd_sc_hd__and2_0
* cell instance $346 r0 *1 17.94,24.48
X$346 27 146 27 7 177 7 sky130_fd_sc_hd__inv_1
* cell instance $350 r0 *1 22.54,24.48
X$350 27 165 27 7 140 7 sky130_fd_sc_hd__inv_1
* cell instance $352 r0 *1 24.84,24.48
X$352 7 141 166 126 196 205 27 27 7 sky130_fd_sc_hd__fa_1
* cell instance $354 r0 *1 32.66,24.48
X$354 27 166 27 7 167 7 sky130_fd_sc_hd__inv_1
* cell instance $362 r0 *1 43.7,24.48
X$362 27 101 150 155 27 7 7 sky130_fd_sc_hd__nand2_1
* cell instance $363 r0 *1 45.08,24.48
X$363 7 88 156 149 110 27 27 7 sky130_fd_sc_hd__and3_1
* cell instance $364 r0 *1 47.38,24.48
X$364 27 155 143 156 7 27 181 7 sky130_fd_sc_hd__a21oi_1
* cell instance $366 r0 *1 50.14,24.48
X$366 7 31 191 23 178 27 27 7 sky130_fd_sc_hd__dfrtp_1
* cell instance $367 r0 *1 59.34,24.48
X$367 7 157 23 27 27 7 sky130_fd_sc_hd__clkbuf_8
* cell instance $369 r0 *1 64.86,24.48
X$369 27 93 175 174 27 163 7 7 sky130_fd_sc_hd__o21ai_0
* cell instance $370 r0 *1 66.7,24.48
X$370 27 158 93 174 27 7 7 sky130_fd_sc_hd__nand2_1
* cell instance $376 r0 *1 72.68,24.48
X$376 27 145 144 7 27 7 sky130_fd_sc_hd__clkbuf_1
* cell instance $377 r0 *1 74.06,24.48
X$377 27 158 171 7 27 7 sky130_fd_sc_hd__clkbuf_1
* cell instance $385 m0 *1 2.3,29.92
X$385 7 182 134 188 200 27 27 7 sky130_fd_sc_hd__ha_1
* cell instance $386 m0 *1 6.9,29.92
X$386 27 152 168 173 27 7 7 sky130_fd_sc_hd__and2_0
* cell instance $388 m0 *1 9.66,29.92
X$388 27 168 154 57 27 7 7 sky130_fd_sc_hd__and2_0
* cell instance $389 m0 *1 11.96,29.92
X$389 27 189 154 107 27 7 7 sky130_fd_sc_hd__and2_0
* cell instance $392 m0 *1 16.56,29.92
X$392 7 176 203 184 177 190 27 27 7 sky130_fd_sc_hd__fa_1
* cell instance $400 m0 *1 32.66,29.92
X$400 7 192 127 193 179 27 27 7 sky130_fd_sc_hd__ha_1
* cell instance $401 m0 *1 37.26,29.92
X$401 27 192 27 7 110 7 sky130_fd_sc_hd__clkbuf_2
* cell instance $404 m0 *1 40.48,29.92
X$404 27 110 180 128 27 185 7 7 sky130_fd_sc_hd__o21a_1
* cell instance $405 m0 *1 43.24,29.92
X$405 27 110 128 180 169 7 27 7 sky130_fd_sc_hd__nor3_1
* cell instance $407 m0 *1 45.54,29.92
X$407 27 88 119 118 27 180 7 7 sky130_fd_sc_hd__o21a_1
* cell instance $408 m0 *1 48.3,29.92
X$408 27 76 169 185 170 27 7 178 7 sky130_fd_sc_hd__o31ai_1
* cell instance $410 m0 *1 51.52,29.92
X$410 27 191 60 170 27 7 7 sky130_fd_sc_hd__nand2_1
* cell instance $415 m0 *1 59.34,29.92
X$415 27 145 93 131 27 7 7 sky130_fd_sc_hd__nand2_1
* cell instance $419 m0 *1 65.78,29.92
X$419 7 31 132 23 120 27 27 7 sky130_fd_sc_hd__dfrtp_1
* cell instance $423 r0 *1 2.76,29.92
X$423 27 194 168 200 27 7 7 sky130_fd_sc_hd__and2_0
* cell instance $424 r0 *1 5.06,29.92
X$424 7 183 195 201 182 216 27 27 7 sky130_fd_sc_hd__fa_1
* cell instance $427 r0 *1 13.8,29.92
X$427 27 183 27 7 196 7 sky130_fd_sc_hd__inv_1
* cell instance $434 r0 *1 17.02,29.92
X$434 27 195 27 7 202 7 sky130_fd_sc_hd__inv_1
* cell instance $435 r0 *1 18.4,29.92
X$435 7 205 230 202 203 227 27 27 7 sky130_fd_sc_hd__fa_1
* cell instance $438 r0 *1 33.12,29.92
X$438 27 206 27 7 193 7 sky130_fd_sc_hd__inv_1
* cell instance $439 r0 *1 34.5,29.92
X$439 7 88 128 207 219 27 27 7 sky130_fd_sc_hd__ha_2
* cell instance $449 r0 *1 54.28,29.92
X$449 27 198 76 209 7 27 208 7 sky130_fd_sc_hd__a21o_1
* cell instance $450 r0 *1 57.04,29.92
X$450 7 31 198 23 208 27 27 7 sky130_fd_sc_hd__dfrtp_1
* cell instance $451 r0 *1 66.24,29.92
X$451 27 197 93 204 27 7 7 sky130_fd_sc_hd__nand2_1
* cell instance $452 r0 *1 67.62,29.92
X$452 27 198 186 7 27 7 sky130_fd_sc_hd__clkbuf_1
* cell instance $456 r0 *1 69,29.92
X$456 27 191 199 7 27 7 sky130_fd_sc_hd__clkbuf_1
* cell instance $461 r0 *1 74.06,29.92
X$461 27 197 187 7 27 7 sky130_fd_sc_hd__clkbuf_1
* cell instance $465 m0 *1 4.6,35.36
X$465 27 222 151 188 7 27 7 sky130_fd_sc_hd__nor2_1
* cell instance $468 m0 *1 8.28,35.36
X$468 27 194 153 217 27 7 7 sky130_fd_sc_hd__and2_0
* cell instance $469 m0 *1 10.58,35.36
X$469 7 216 225 115 217 224 27 27 7 sky130_fd_sc_hd__fa_1
* cell instance $471 m0 *1 19.78,35.36
X$471 27 225 27 7 228 7 sky130_fd_sc_hd__inv_1
* cell instance $473 m0 *1 21.62,35.36
X$473 7 165 206 230 218 229 27 27 7 sky130_fd_sc_hd__fa_1
* cell instance $477 m0 *1 32.2,35.36
X$477 27 232 27 7 179 7 sky130_fd_sc_hd__inv_1
* cell instance $478 m0 *1 33.58,35.36
X$478 27 210 27 7 219 7 sky130_fd_sc_hd__inv_1
* cell instance $483 m0 *1 44.62,35.36
X$483 27 149 212 211 27 220 7 7 sky130_fd_sc_hd__o21a_1
* cell instance $484 m0 *1 47.38,35.36
X$484 27 149 212 213 7 27 7 sky130_fd_sc_hd__nor2_1
* cell instance $485 m0 *1 48.76,35.36
X$485 27 213 231 76 119 7 209 27 7 sky130_fd_sc_hd__a211oi_1
* cell instance $486 m0 *1 51.52,35.36
X$486 27 214 211 27 175 7 7 sky130_fd_sc_hd__xor2_1
* cell instance $487 m0 *1 54.74,35.36
X$487 27 226 221 223 7 27 214 7 sky130_fd_sc_hd__a21oi_1
* cell instance $491 m0 *1 64.4,35.36
X$491 27 248 60 204 27 215 7 7 sky130_fd_sc_hd__o21ai_0
* cell instance $492 m0 *1 66.24,35.36
X$492 7 31 197 247 215 27 27 7 sky130_fd_sc_hd__dfrtp_1
* cell instance $495 r0 *1 2.76,35.36
X$495 27 222 168 244 27 7 7 sky130_fd_sc_hd__and2_0
* cell instance $498 r0 *1 9.66,35.36
X$498 27 189 152 224 27 7 7 sky130_fd_sc_hd__and2_0
* cell instance $499 r0 *1 11.96,35.36
X$499 27 284 154 27 115 7 7 sky130_fd_sc_hd__and2_2
* cell instance $505 r0 *1 15.64,35.36
X$505 27 238 27 7 218 7 sky130_fd_sc_hd__inv_1
* cell instance $506 r0 *1 17.02,35.36
X$506 7 227 251 184 190 228 27 27 7 sky130_fd_sc_hd__fa_1
* cell instance $511 r0 *1 31.28,35.36
X$511 27 239 27 7 207 7 sky130_fd_sc_hd__inv_1
* cell instance $512 r0 *1 32.66,35.36
X$512 7 149 118 274 254 27 27 7 sky130_fd_sc_hd__ha_1
* cell instance $520 r0 *1 45.08,35.36
X$520 27 226 233 211 27 231 7 7 sky130_fd_sc_hd__o21ai_0
* cell instance $521 r0 *1 46.92,35.36
X$521 7 119 226 212 233 220 27 27 7 sky130_fd_sc_hd__o31a_1
* cell instance $524 r0 *1 56.58,35.36
X$524 27 234 221 233 7 27 7 sky130_fd_sc_hd__nor2b_1
* cell instance $526 r0 *1 59.34,35.36
X$526 27 234 221 27 139 7 7 sky130_fd_sc_hd__xor2_1
* cell instance $529 r0 *1 67.16,35.36
X$529 27 243 235 246 27 7 7 sky130_fd_sc_hd__nand2_1
* cell instance $535 r0 *1 70.84,35.36
X$535 27 236 60 235 27 7 7 sky130_fd_sc_hd__nand2_1
* cell instance $537 r0 *1 74.06,35.36
X$537 27 236 237 7 27 7 sky130_fd_sc_hd__clkbuf_1
* cell instance $538 m0 *1 1.38,40.8
X$538 7 260 201 244 245 27 27 7 sky130_fd_sc_hd__ha_1
* cell instance $543 m0 *1 20.7,40.8
X$543 7 229 263 251 252 268 27 27 7 sky130_fd_sc_hd__fa_1
* cell instance $549 m0 *1 38.64,40.8
X$549 7 211 212 256 255 27 27 7 sky130_fd_sc_hd__ha_1
* cell instance $552 m0 *1 47.38,40.8
X$552 27 212 253 240 27 7 143 7 sky130_fd_sc_hd__o21bai_1
* cell instance $553 m0 *1 50.14,40.8
X$553 27 221 226 211 27 240 7 7 sky130_fd_sc_hd__o21ai_0
* cell instance $554 m0 *1 51.98,40.8
X$554 7 257 259 242 241 27 27 7 sky130_fd_sc_hd__ha_1
* cell instance $557 m0 *1 57.5,40.8
X$557 27 241 27 7 250 7 sky130_fd_sc_hd__inv_1
* cell instance $558 m0 *1 58.88,40.8
X$558 7 234 248 261 249 250 27 27 7 sky130_fd_sc_hd__fa_1
* cell instance $559 m0 *1 66.24,40.8
X$559 7 31 236 247 246 27 27 7 sky130_fd_sc_hd__dfrtp_1
* cell instance $562 r0 *1 3.68,40.8
X$562 7 238 262 260 272 347 27 27 7 sky130_fd_sc_hd__fa_1
* cell instance $565 r0 *1 13.34,40.8
X$565 27 262 27 7 252 7 sky130_fd_sc_hd__inv_1
* cell instance $572 r0 *1 22.08,40.8
X$572 7 232 210 285 263 269 27 27 7 sky130_fd_sc_hd__fa_1
* cell instance $574 r0 *1 29.9,40.8
X$574 27 264 27 7 254 7 sky130_fd_sc_hd__inv_1
* cell instance $575 r0 *1 31.28,40.8
X$575 7 274 255 305 270 275 27 27 7 sky130_fd_sc_hd__fa_1
* cell instance $577 r0 *1 39.56,40.8
X$577 27 265 27 7 256 7 sky130_fd_sc_hd__inv_1
* cell instance $583 r0 *1 45.54,40.8
X$583 27 266 27 7 267 7 sky130_fd_sc_hd__inv_1
* cell instance $584 r0 *1 46.92,40.8
X$584 7 221 226 267 277 27 27 7 sky130_fd_sc_hd__ha_1
* cell instance $585 r0 *1 51.52,40.8
X$585 27 258 257 226 259 7 253 27 7 sky130_fd_sc_hd__a211oi_1
* cell instance $586 r0 *1 54.28,40.8
X$586 27 257 258 259 7 27 223 7 sky130_fd_sc_hd__a21o_1
* cell instance $588 r0 *1 57.96,40.8
X$588 7 157 247 27 27 7 sky130_fd_sc_hd__clkbuf_8
* cell instance $589 r0 *1 63.02,40.8
X$589 27 242 27 7 261 7 sky130_fd_sc_hd__inv_1
* cell instance $590 r0 *1 64.4,40.8
X$590 27 258 27 7 249 7 sky130_fd_sc_hd__inv_1
* cell instance $593 r0 *1 68.08,40.8
X$593 27 271 60 273 27 7 7 sky130_fd_sc_hd__nand2_1
* cell instance $608 m0 *1 4.6,46.24
X$608 27 279 27 7 272 7 sky130_fd_sc_hd__inv_1
* cell instance $609 m0 *1 5.98,46.24
X$609 27 222 153 290 27 7 7 sky130_fd_sc_hd__nand2_1
* cell instance $612 m0 *1 11.5,46.24
X$612 7 268 283 281 436 190 27 27 7 sky130_fd_sc_hd__fa_1
* cell instance $614 m0 *1 19.32,46.24
X$614 7 239 264 309 318 296 27 27 7 sky130_fd_sc_hd__fa_1
* cell instance $620 m0 *1 34.04,46.24
X$620 27 282 27 7 275 7 sky130_fd_sc_hd__inv_1
* cell instance $623 m0 *1 38.18,46.24
X$623 7 265 266 307 276 304 27 27 7 sky130_fd_sc_hd__fa_1
* cell instance $625 m0 *1 46,46.24
X$625 7 241 277 298 301 27 27 7 sky130_fd_sc_hd__ha_1
* cell instance $631 m0 *1 57.96,46.24
X$631 27 247 27 7 7 sky130_fd_sc_hd__clkinvlp_4
* cell instance $633 m0 *1 61.18,46.24
X$633 27 294 12 243 27 7 7 sky130_fd_sc_hd__nand2_1
* cell instance $636 m0 *1 64.86,46.24
X$636 27 311 273 280 27 7 7 sky130_fd_sc_hd__nand2_1
* cell instance $637 m0 *1 66.24,46.24
X$637 7 31 271 247 280 27 27 7 sky130_fd_sc_hd__dfrtp_1
* cell instance $640 r0 *1 3.68,46.24
X$640 7 279 281 290 289 291 27 27 7 sky130_fd_sc_hd__fa_1
* cell instance $641 r0 *1 11.04,46.24
X$641 27 284 152 291 27 7 7 sky130_fd_sc_hd__nand2_1
* cell instance $642 r0 *1 12.42,46.24
X$642 27 278 27 7 269 7 sky130_fd_sc_hd__inv_1
* cell instance $650 r0 *1 21.62,46.24
X$650 7 296 302 338 297 299 27 27 7 sky130_fd_sc_hd__fa_1
* cell instance $653 r0 *1 31.28,46.24
X$653 27 302 27 7 305 7 sky130_fd_sc_hd__inv_1
* cell instance $658 r0 *1 39.56,46.24
X$658 27 308 27 7 307 7 sky130_fd_sc_hd__inv_1
* cell instance $659 r0 *1 40.94,46.24
X$659 27 306 27 7 304 7 sky130_fd_sc_hd__inv_1
* cell instance $666 r0 *1 46.46,46.24
X$666 27 303 27 7 301 7 sky130_fd_sc_hd__inv_1
* cell instance $667 r0 *1 47.84,46.24
X$667 27 300 27 7 298 7 sky130_fd_sc_hd__inv_1
* cell instance $671 r0 *1 58.42,46.24
X$671 7 294 258 293 295 27 27 7 sky130_fd_sc_hd__ha_1
* cell instance $673 r0 *1 64.86,46.24
X$673 27 288 60 292 27 7 7 sky130_fd_sc_hd__nand2_1
* cell instance $681 r0 *1 74.06,46.24
X$681 27 271 287 7 27 7 sky130_fd_sc_hd__clkbuf_1
* cell instance $684 m0 *1 4.14,51.68
X$684 27 310 151 245 7 27 7 sky130_fd_sc_hd__nor2_1
* cell instance $686 m0 *1 5.98,51.68
X$686 27 189 194 289 27 7 7 sky130_fd_sc_hd__nand2_1
* cell instance $690 m0 *1 13.34,51.68
X$690 7 285 318 283 315 401 27 27 7 sky130_fd_sc_hd__fa_1
* cell instance $694 m0 *1 21.16,51.68
X$694 27 316 27 7 317 7 sky130_fd_sc_hd__inv_1
* cell instance $700 m0 *1 29.9,51.68
X$700 27 320 27 7 319 7 sky130_fd_sc_hd__inv_1
* cell instance $701 m0 *1 31.28,51.68
X$701 7 282 276 406 319 405 27 27 7 sky130_fd_sc_hd__fa_1
* cell instance $702 m0 *1 38.64,51.68
X$702 7 308 303 393 402 336 27 27 7 sky130_fd_sc_hd__fa_1
* cell instance $706 m0 *1 47.84,51.68
X$706 7 300 314 331 387 371 27 27 7 sky130_fd_sc_hd__fa_1
* cell instance $707 m0 *1 55.2,51.68
X$707 27 314 27 7 313 7 sky130_fd_sc_hd__inv_1
* cell instance $709 m0 *1 57.04,51.68
X$709 7 295 242 330 313 27 27 7 sky130_fd_sc_hd__ha_1
* cell instance $711 m0 *1 63.48,51.68
X$711 27 324 12 311 27 7 7 sky130_fd_sc_hd__nand2_1
* cell instance $712 m0 *1 64.86,51.68
X$712 27 344 292 312 27 7 7 sky130_fd_sc_hd__nand2_1
* cell instance $713 m0 *1 66.24,51.68
X$713 7 31 288 247 312 27 27 7 sky130_fd_sc_hd__dfrtp_1
* cell instance $718 r0 *1 2.76,51.68
X$718 7 278 329 363 325 334 27 27 7 sky130_fd_sc_hd__fa_1
* cell instance $721 r0 *1 12.42,51.68
X$721 27 329 27 7 315 7 sky130_fd_sc_hd__inv_1
* cell instance $728 r0 *1 15.64,51.68
X$728 27 332 27 7 335 7 sky130_fd_sc_hd__inv_1
* cell instance $729 r0 *1 17.02,51.68
X$729 7 309 338 317 335 403 27 27 7 sky130_fd_sc_hd__fa_1
* cell instance $730 r0 *1 24.38,51.68
X$730 27 322 151 354 7 27 7 sky130_fd_sc_hd__nor2_1
* cell instance $732 r0 *1 29.44,51.68
X$732 7 320 270 370 353 27 27 7 sky130_fd_sc_hd__ha_1
* cell instance $734 r0 *1 34.96,51.68
X$734 27 322 168 337 27 7 7 sky130_fd_sc_hd__and2_0
* cell instance $735 r0 *1 37.26,51.68
X$735 7 336 306 337 350 27 27 7 sky130_fd_sc_hd__ha_1
* cell instance $743 r0 *1 44.62,51.68
X$743 27 322 189 348 27 7 7 sky130_fd_sc_hd__and2_0
* cell instance $746 r0 *1 51.06,51.68
X$746 27 333 27 7 331 7 sky130_fd_sc_hd__inv_1
* cell instance $749 r0 *1 54.74,51.68
X$749 27 328 27 7 327 7 sky130_fd_sc_hd__inv_1
* cell instance $750 r0 *1 56.12,51.68
X$750 7 345 330 326 327 27 27 7 sky130_fd_sc_hd__ha_1
* cell instance $753 r0 *1 63.48,51.68
X$753 7 324 293 323 345 27 27 7 sky130_fd_sc_hd__ha_1
* cell instance $763 r0 *1 74.06,51.68
X$763 27 288 286 7 27 7 sky130_fd_sc_hd__clkbuf_1
* cell instance $765 m0 *1 1.84,57.12
X$765 27 321 27 7 168 7 sky130_fd_sc_hd__clkbuf_2
* cell instance $767 m0 *1 4.14,57.12
X$767 27 310 168 346 27 7 7 sky130_fd_sc_hd__and2_0
* cell instance $768 m0 *1 6.44,57.12
X$768 7 325 347 364 346 27 27 7 sky130_fd_sc_hd__ha_1
* cell instance $770 m0 *1 11.5,57.12
X$770 27 355 168 352 27 7 7 sky130_fd_sc_hd__and2_0
* cell instance $772 m0 *1 14.72,57.12
X$772 7 332 334 352 351 27 27 7 sky130_fd_sc_hd__ha_1
* cell instance $773 m0 *1 19.32,57.12
X$773 27 339 151 351 7 27 7 sky130_fd_sc_hd__nor2_1
* cell instance $775 m0 *1 21.62,57.12
X$775 7 316 353 369 366 354 27 27 7 sky130_fd_sc_hd__fa_1
* cell instance $777 m0 *1 29.44,57.12
X$777 27 355 153 369 27 7 7 sky130_fd_sc_hd__and2_0
* cell instance $779 m0 *1 32.66,57.12
X$779 27 339 153 392 27 7 7 sky130_fd_sc_hd__and2_0
* cell instance $781 m0 *1 35.88,57.12
X$781 27 322 153 356 27 7 7 sky130_fd_sc_hd__nand2_1
* cell instance $782 m0 *1 37.26,57.12
X$782 27 340 27 7 350 7 sky130_fd_sc_hd__inv_1
* cell instance $783 m0 *1 38.64,57.12
X$783 7 340 374 356 349 375 27 27 7 sky130_fd_sc_hd__fa_1
* cell instance $784 m0 *1 46,57.12
X$784 27 373 27 7 372 7 sky130_fd_sc_hd__inv_1
* cell instance $785 m0 *1 47.38,57.12
X$785 7 373 333 348 341 27 27 7 sky130_fd_sc_hd__ha_1
* cell instance $786 m0 *1 51.98,57.12
X$786 27 339 284 341 27 7 7 sky130_fd_sc_hd__and2_0
* cell instance $790 m0 *1 57.04,57.12
X$790 27 368 27 7 326 7 sky130_fd_sc_hd__inv_1
* cell instance $791 m0 *1 58.42,57.12
X$791 27 342 385 367 27 7 7 sky130_fd_sc_hd__nand2_1
* cell instance $794 m0 *1 62.56,57.12
X$794 27 357 60 342 27 7 7 sky130_fd_sc_hd__nand2_1
* cell instance $795 m0 *1 63.94,57.12
X$795 27 452 12 344 27 7 7 sky130_fd_sc_hd__nand2_1
* cell instance $796 m0 *1 65.32,57.12
X$796 7 31 359 247 365 27 27 7 sky130_fd_sc_hd__dfrtp_1
* cell instance $798 r0 *1 1.38,57.12
X$798 27 377 378 7 27 7 sky130_fd_sc_hd__clkbuf_1
* cell instance $799 r0 *1 2.76,57.12
X$799 27 378 7 27 151 7 sky130_fd_sc_hd__inv_2
* cell instance $800 r0 *1 4.14,57.12
X$800 27 380 27 7 363 7 sky130_fd_sc_hd__inv_1
* cell instance $803 r0 *1 9.66,57.12
X$803 27 355 151 364 7 27 7 sky130_fd_sc_hd__nor2_1
* cell instance $810 r0 *1 15.64,57.12
X$810 27 384 154 383 27 7 7 sky130_fd_sc_hd__nand2_1
* cell instance $815 r0 *1 23.92,57.12
X$815 27 339 168 366 27 7 7 sky130_fd_sc_hd__and2_0
* cell instance $818 r0 *1 28.52,57.12
X$818 27 355 189 389 27 7 7 sky130_fd_sc_hd__and2_0
* cell instance $819 r0 *1 30.82,57.12
X$819 7 370 390 392 391 389 27 27 7 sky130_fd_sc_hd__fa_1
* cell instance $821 r0 *1 40.02,57.12
X$821 27 355 284 349 27 7 7 sky130_fd_sc_hd__nand2_1
* cell instance $822 r0 *1 41.4,57.12
X$822 27 339 189 375 27 7 7 sky130_fd_sc_hd__nand2_1
* cell instance $829 r0 *1 47.38,57.12
X$829 7 371 328 372 386 420 27 27 7 sky130_fd_sc_hd__fa_1
* cell instance $831 r0 *1 55.66,57.12
X$831 7 31 357 247 367 27 27 7 sky130_fd_sc_hd__dfrtp_1
* cell instance $833 r0 *1 66.7,57.12
X$833 27 399 358 365 27 7 7 sky130_fd_sc_hd__nand2_1
* cell instance $838 r0 *1 69,57.12
X$838 27 359 60 358 27 7 7 sky130_fd_sc_hd__nand2_1
* cell instance $840 r0 *1 70.84,57.12
X$840 27 361 60 381 27 7 7 sky130_fd_sc_hd__nand2_1
* cell instance $842 r0 *1 72.68,57.12
X$842 27 359 343 7 27 7 sky130_fd_sc_hd__clkbuf_1
* cell instance $843 r0 *1 74.06,57.12
X$843 27 361 362 7 27 7 sky130_fd_sc_hd__clkbuf_1
* cell instance $844 m0 *1 1.38,62.56
X$844 27 376 7 153 27 7 sky130_fd_sc_hd__buf_2
* cell instance $846 m0 *1 4.14,62.56
X$846 27 310 153 410 27 7 7 sky130_fd_sc_hd__nand2_1
* cell instance $847 m0 *1 5.52,62.56
X$847 7 401 297 398 382 448 27 27 7 sky130_fd_sc_hd__fa_1
* cell instance $848 m0 *1 12.88,62.56
X$848 7 382 379 151 383 400 27 27 7 sky130_fd_sc_hd__fa_1
* cell instance $849 m0 *1 20.24,62.56
X$849 27 310 189 417 27 7 7 sky130_fd_sc_hd__nand2_1
* cell instance $850 m0 *1 21.62,62.56
X$850 7 299 405 379 404 454 27 27 7 sky130_fd_sc_hd__fa_1
* cell instance $854 m0 *1 32.2,62.56
X$854 27 310 284 391 27 7 7 sky130_fd_sc_hd__and2_0
* cell instance $858 m0 *1 42.32,62.56
X$858 7 393 387 374 388 421 27 27 7 sky130_fd_sc_hd__fa_1
* cell instance $864 m0 *1 57.04,62.56
X$864 27 384 322 12 385 27 7 7 sky130_fd_sc_hd__nand3_1
* cell instance $868 m0 *1 64.86,62.56
X$868 27 357 360 7 27 7 sky130_fd_sc_hd__clkbuf_1
* cell instance $869 m0 *1 66.24,62.56
X$869 7 31 361 247 397 27 27 7 sky130_fd_sc_hd__dfrtp_1
* cell instance $870 r0 *1 1.38,62.56
X$870 7 380 398 410 412 411 27 27 7 sky130_fd_sc_hd__fa_1
* cell instance $871 r0 *1 8.74,62.56
X$871 27 284 194 412 27 7 7 sky130_fd_sc_hd__nand2_1
* cell instance $872 r0 *1 10.12,62.56
X$872 27 395 7 284 27 7 sky130_fd_sc_hd__buf_2
* cell instance $878 r0 *1 15.64,62.56
X$878 27 408 152 400 27 7 7 sky130_fd_sc_hd__nand2_1
* cell instance $879 r0 *1 17.02,62.56
X$879 27 439 7 27 190 7 sky130_fd_sc_hd__inv_2
* cell instance $880 r0 *1 18.4,62.56
X$880 27 284 222 396 27 7 7 sky130_fd_sc_hd__nand2_1
* cell instance $881 r0 *1 19.78,62.56
X$881 7 403 404 396 419 417 27 27 7 sky130_fd_sc_hd__fa_1
* cell instance $885 r0 *1 33.12,62.56
X$885 7 406 424 390 422 470 27 27 7 sky130_fd_sc_hd__fa_1
* cell instance $886 r0 *1 40.48,62.56