
* cell skid_buffer
* pin m_data[5]
* pin s_data[5]
* pin s_data[3]
* pin PWELL
* pin NWELL
* pin m_ready
* pin m_valid
* pin s_valid
* pin s_ready
* pin m_data[3]
* pin s_data[7]
* pin m_data[7]
* pin s_data[6]
* pin m_data[6]
* pin clk
* pin s_data[0]
* pin rst_n
* pin s_data[1]
* pin m_data[0]
* pin s_data[2]
* pin s_data[4]
* pin m_data[1]
* pin m_data[4]
* pin m_data[2]
.SUBCKT skid_buffer 1 2 3 4 5 8 16 17 22 40 59 62 68 69 81 97 104 107 114 121
+ 122 123 124 125
* net 1 m_data[5]
* net 2 s_data[5]
* net 3 s_data[3]
* net 4 PWELL
* net 5 NWELL
* net 8 m_ready
* net 16 m_valid
* net 17 s_valid
* net 22 s_ready
* net 40 m_data[3]
* net 59 s_data[7]
* net 62 m_data[7]
* net 68 s_data[6]
* net 69 m_data[6]
* net 81 clk
* net 97 s_data[0]
* net 104 rst_n
* net 107 s_data[1]
* net 114 m_data[0]
* net 121 s_data[2]
* net 122 s_data[4]
* net 123 m_data[1]
* net 124 m_data[4]
* net 125 m_data[2]
* cell instance $3 r0 *1 87.97,1.4
X$3 6 4 5 1 BUF_X1
* cell instance $12 r0 *1 88.54,1.4
X$12 2 4 5 18 CLKBUF_X2
* cell instance $15 m0 *1 91.58,4.2
X$15 3 4 5 7 CLKBUF_X2
* cell instance $71 m0 *1 5.32,96.6
X$71 68 4 5 70 CLKBUF_X2
* cell instance $109 m0 *1 87.21,96.6
X$109 71 48 70 4 5 73 MUX2_X1
* cell instance $113 m0 *1 92.15,96.6
X$113 26 70 19 4 78 5 AOI21_X1
* cell instance $115 m0 *1 92.91,96.6
X$115 78 76 20 77 37 4 5 75 AOI221_X1
* cell instance $116 m0 *1 94.05,96.6
X$116 71 29 27 28 4 5 76 NAND4_X1
* cell instance $139 r0 *1 98.04,96.6
X$139 81 4 5 82 CLKBUF_X3
* cell instance $167 m0 *1 7.98,105
X$167 107 4 5 106 CLKBUF_X2
* cell instance $188 r0 *1 2.09,105
X$188 119 4 5 114 BUF_X1
* cell instance $204 m0 *1 83.6,105
X$204 104 4 5 50 BUF_X2
* cell instance $208 r0 *1 86.45,105
X$208 4 113 85 119 5 DFF_X2
* cell instance $209 m0 *1 88.54,105
X$209 98 37 119 4 5 105 MUX2_X1
* cell instance $210 m0 *1 87.78,105
X$210 50 105 5 4 113 AND2_X1
* cell instance $216 m0 *1 92.53,105
X$216 37 106 19 4 108 5 AOI21_X1
* cell instance $220 r0 *1 93.29,105
X$220 108 101 20 115 37 4 5 112 AOI221_X1
* cell instance $223 r0 *1 96.71,105
X$223 4 131 102 109 85 5 DFF_X1
* cell instance $224 m0 *1 97.66,105
X$224 50 111 5 4 109 AND2_X1
* cell instance $227 m0 *1 99.94,105
X$227 102 48 103 4 5 111 MUX2_X1
* cell instance $228 m0 *1 101.27,105
X$228 37 103 19 4 110 5 AOI21_X1
* cell instance $246 r0 *1 102.22,105
X$246 110 99 20 117 37 4 5 120 AOI221_X1
* cell instance $281 m0 *1 99.75,186.2
X$281 122 4 5 90 CLKBUF_X2
* cell instance $284 m0 *1 101.08,186.2
X$284 121 4 5 103 BUF_X1
* cell instance $288 m0 *1 103.93,186.2
X$288 100 4 5 124 BUF_X1
* cell instance $290 m0 *1 105.07,186.2
X$290 118 4 5 125 BUF_X1
* cell instance $2726 r0 *1 86.07,99.4
X$2726 4 128 91 89 85 5 DFF_X1
* cell instance $2727 m0 *1 87.78,99.4
X$2727 50 84 5 4 89 AND2_X1
* cell instance $2734 r0 *1 91.2,99.4
X$2734 4 129 86 96 85 5 DFF_X1
* cell instance $2737 r0 *1 96.33,99.4
X$2737 4 130 80 79 85 5 DFF_X1
* cell instance $2738 m0 *1 96.71,99.4
X$2738 50 83 5 4 79 AND2_X1
* cell instance $2743 m0 *1 99.37,99.4
X$2743 4 37 5 26 BUF_X8
* cell instance $2759 r0 *1 99.56,99.4
X$2759 80 48 90 4 5 83 MUX2_X1
* cell instance $2760 r0 *1 100.89,99.4
X$2760 80 29 27 28 4 5 88 NAND4_X1
* cell instance $2761 r0 *1 101.84,99.4
X$2761 26 90 19 4 87 5 AOI21_X1
* cell instance $2805 m0 *1 94.05,107.8
X$2805 116 4 5 115 INV_X1
* cell instance $2810 m0 *1 102.98,107.8
X$2810 118 4 5 117 INV_X1
* cell instance $2847 r0 *1 91.58,107.8
X$2847 4 112 85 116 5 DFF_X2
* cell instance $2850 r0 *1 101.65,107.8
X$2850 4 120 85 118 5 DFF_X2
* cell instance $2900 m0 *1 87.21,102.2
X$2900 91 48 92 4 5 84 MUX2_X1
* cell instance $2908 r0 *1 2.66,102.2
X$2908 97 4 5 92 BUF_X1
* cell instance $2926 r0 *1 87.78,102.2
X$2926 91 19 92 4 5 98 MUX2_X1
* cell instance $2928 m0 *1 92.53,102.2
X$2928 50 93 5 4 96 AND2_X1
* cell instance $2929 m0 *1 91.2,102.2
X$2929 86 48 106 4 5 93 MUX2_X1
* cell instance $2931 m0 *1 94.05,102.2
X$2931 86 29 27 28 4 5 101 NAND4_X1
* cell instance $2938 r0 *1 96.14,102.2
X$2938 82 4 5 85 CLKBUF_X3
* cell instance $2939 r0 *1 97.09,102.2
X$2939 85 4 5 134 INV_X1
* cell instance $2943 r0 *1 100.13,102.2
X$2943 4 94 85 100 5 DFF_X2
* cell instance $2944 m0 *1 100.89,102.2
X$2944 102 29 27 28 4 5 99 NAND4_X1
* cell instance $2948 m0 *1 102.22,102.2
X$2948 87 88 20 95 37 4 5 94 AOI221_X1
* cell instance $2965 r0 *1 103.74,102.2
X$2965 100 4 5 95 INV_X1
* cell instance $3462 r0 *1 87.78,85.4
X$3462 25 48 18 4 5 41 MUX2_X1
* cell instance $3465 r0 *1 90.25,85.4
X$3465 4 34 36 6 5 DFF_X2
* cell instance $3467 m0 *1 91.39,85.4
X$3467 26 18 19 4 33 5 AOI21_X1
* cell instance $3468 m0 *1 92.34,85.4
X$3468 33 44 20 35 37 4 5 34 AOI221_X1
* cell instance $3469 m0 *1 93.48,85.4
X$3469 6 4 5 35 INV_X1
* cell instance $3474 r0 *1 94.24,85.4
X$3474 25 29 27 28 4 5 44 NAND4_X1
* cell instance $3476 m0 *1 103.55,85.4
X$3476 11 4 5 28 CLKBUF_X3
* cell instance $3477 m0 *1 101.08,85.4
X$3477 9 11 29 4 19 5 NAND3_X4
* cell instance $3478 m0 *1 104.5,85.4
X$3478 20 43 24 4 31 5 AOI21_X1
* cell instance $3479 m0 *1 105.26,85.4
X$3479 9 4 5 27 CLKBUF_X3
* cell instance $3480 m0 *1 106.21,85.4
X$3480 21 28 4 5 30 NAND2_X1
* cell instance $3485 r0 *1 105.26,85.4
X$3485 13 28 27 4 32 5 AOI21_X1
* cell instance $3487 r0 *1 106.21,85.4
X$3487 30 29 27 5 43 4 OAI21_X1
* cell instance $3490 m0 *1 107.16,85.4
X$3490 4 31 36 15 5 DFF_X2
* cell instance $3492 m0 *1 111.15,85.4
X$3492 32 4 5 23 INV_X1
* cell instance $3506 m0 *1 183.16,85.4
X$3506 23 4 5 22 BUF_X1
* cell instance $3579 m0 *1 100.7,82.6
X$3579 10 11 12 5 4 26 OAI21_X4
* cell instance $3580 m0 *1 103.17,82.6
X$3580 9 4 5 12 INV_X2
* cell instance $3583 m0 *1 104.69,82.6
X$3583 9 13 14 4 5 10 MUX2_X1
* cell instance $3597 m0 *1 179.74,82.6
X$3597 17 4 5 14 CLKBUF_X2
* cell instance $3601 r0 *1 102.03,82.6
X$3601 4 11 12 24 48 5 NOR3_X4
* cell instance $3603 r0 *1 105.07,82.6
X$3603 13 14 4 5 24 NAND2_X1
* cell instance $3606 r0 *1 106.21,82.6
X$3606 14 4 5 21 INV_X1
* cell instance $3608 r0 *1 107.35,82.6
X$3608 15 5 9 4 BUF_X4
* cell instance $3627 r0 *1 185.25,82.6
X$3627 15 4 5 16 BUF_X1
* cell instance $3658 r0 *1 3.8,93.8
X$3658 60 4 5 69 BUF_X1
* cell instance $3675 r0 *1 85.88,93.8
X$3675 4 133 71 57 36 5 DFF_X1
* cell instance $3677 m0 *1 86.83,93.8
X$3677 50 73 5 4 57 AND2_X1
* cell instance $3681 m0 *1 97.66,93.8
X$3681 50 67 5 4 66 AND2_X1
* cell instance $3684 m0 *1 100.13,93.8
X$3684 74 48 61 4 5 67 MUX2_X1
* cell instance $3689 r0 *1 90.44,93.8
X$3689 4 75 36 60 5 DFF_X2
* cell instance $3690 r0 *1 94.05,93.8
X$3690 60 4 5 77 INV_X1
* cell instance $3693 r0 *1 96.14,93.8
X$3693 50 4 5 20 INV_X2
* cell instance $3694 r0 *1 96.71,93.8
X$3694 4 132 74 66 36 5 DFF_X1
* cell instance $3697 r0 *1 100.89,93.8
X$3697 74 29 27 28 4 5 72 NAND4_X1
* cell instance $3700 m0 *1 101.84,93.8
X$3700 26 61 19 4 65 5 AOI21_X1
* cell instance $3701 m0 *1 102.79,93.8
X$3701 65 72 20 63 37 4 5 64 AOI221_X1
* cell instance $3704 m0 *1 105.26,93.8
X$3704 58 4 5 63 INV_X1
* cell instance $3708 m0 *1 106.97,93.8
X$3708 4 64 36 58 5 DFF_X2
* cell instance $3738 m0 *1 179.55,93.8
X$3738 59 4 5 61 CLKBUF_X2
* cell instance $3742 m0 *1 182.59,93.8
X$3742 58 4 5 62 BUF_X1
* cell instance $3876 m0 *1 86.45,88.2
X$3876 50 41 5 4 42 AND2_X1
* cell instance $3877 m0 *1 87.21,88.2
X$3877 4 127 25 42 36 5 DFF_X1
* cell instance $3916 r0 *1 90.44,88.2
X$3916 50 51 5 4 45 AND2_X1
* cell instance $3917 r0 *1 91.2,88.2
X$3917 46 48 7 4 5 51 MUX2_X1
* cell instance $3920 r0 *1 93.67,88.2
X$3920 26 7 19 4 54 5 AOI21_X1
* cell instance $3922 r0 *1 94.62,88.2
X$3922 46 29 27 28 4 5 38 NAND4_X1
* cell instance $3924 r0 *1 95.76,88.2
X$3924 54 38 20 55 37 4 5 56 AOI221_X1
* cell instance $3925 r0 *1 96.9,88.2
X$3925 4 56 36 39 5 DFF_X2
* cell instance $3926 r0 *1 100.51,88.2
X$3926 39 4 5 55 INV_X1
* cell instance $3930 r0 *1 102.98,88.2
X$3930 4 13 49 52 36 5 DFF_X1
* cell instance $3931 r0 *1 106.21,88.2
X$3931 49 5 29 4 BUF_X4
* cell instance $3952 r0 *1 184.87,88.2
X$3952 39 4 5 40 BUF_X1
* cell instance $3986 m0 *1 90.44,91
X$3986 4 126 46 45 36 5 DFF_X1
* cell instance $4015 r0 *1 97.28,91
X$4015 82 4 5 36 CLKBUF_X3
* cell instance $4017 m0 *1 102.22,91
X$4017 48 29 47 4 53 5 AOI21_X1
* cell instance $4018 m0 *1 101.65,91
X$4018 27 28 4 5 47 NAND2_X1
* cell instance $4021 m0 *1 103.36,91
X$4021 53 20 4 5 52 NOR2_X1
* cell instance $4463 r0 *1 103.36,79.8
X$4463 8 4 5 11 CLKBUF_X3
* cell instance $4946 m0 *1 94.81,186.2
X$4946 116 4 5 123 BUF_X1
.ENDS skid_buffer

* cell OAI21_X1
* pin B2
* pin B1
* pin A
* pin NWELL,VDD
* pin ZN
* pin PWELL,VSS
.SUBCKT OAI21_X1 1 2 3 5 6 7
* net 1 B2
* net 2 B1
* net 3 A
* net 5 NWELL,VDD
* net 6 ZN
* net 7 PWELL,VSS
* device instance $1 r0 *1 0.195,0.995 PMOS_VTL
M$1 8 1 5 5 PMOS_VTL L=0.05U W=0.63U AS=0.06615P AD=0.0441P PS=1.47U PD=0.77U
* device instance $2 r0 *1 0.385,0.995 PMOS_VTL
M$2 6 2 8 5 PMOS_VTL L=0.05U W=0.63U AS=0.0441P AD=0.0441P PS=0.77U PD=0.77U
* device instance $3 r0 *1 0.575,0.995 PMOS_VTL
M$3 5 3 6 5 PMOS_VTL L=0.05U W=0.63U AS=0.0441P AD=0.06615P PS=0.77U PD=1.47U
* device instance $4 r0 *1 0.195,0.2975 NMOS_VTL
M$4 6 1 4 7 NMOS_VTL L=0.05U W=0.415U AS=0.043575P AD=0.02905P PS=1.04U
+ PD=0.555U
* device instance $5 r0 *1 0.385,0.2975 NMOS_VTL
M$5 4 2 6 7 NMOS_VTL L=0.05U W=0.415U AS=0.02905P AD=0.02905P PS=0.555U
+ PD=0.555U
* device instance $6 r0 *1 0.575,0.2975 NMOS_VTL
M$6 7 3 4 7 NMOS_VTL L=0.05U W=0.415U AS=0.02905P AD=0.043575P PS=0.555U
+ PD=1.04U
.ENDS OAI21_X1

* cell NOR2_X1
* pin A2
* pin A1
* pin PWELL,VSS
* pin NWELL,VDD
* pin ZN
.SUBCKT NOR2_X1 1 2 3 4 5
* net 1 A2
* net 2 A1
* net 3 PWELL,VSS
* net 4 NWELL,VDD
* net 5 ZN
* device instance $1 r0 *1 0.185,0.995 PMOS_VTL
M$1 6 1 4 4 PMOS_VTL L=0.05U W=0.63U AS=0.06615P AD=0.0441P PS=1.47U PD=0.77U
* device instance $2 r0 *1 0.375,0.995 PMOS_VTL
M$2 5 2 6 4 PMOS_VTL L=0.05U W=0.63U AS=0.0441P AD=0.06615P PS=0.77U PD=1.47U
* device instance $3 r0 *1 0.185,0.2975 NMOS_VTL
M$3 5 1 3 3 NMOS_VTL L=0.05U W=0.415U AS=0.043575P AD=0.02905P PS=1.04U
+ PD=0.555U
* device instance $4 r0 *1 0.375,0.2975 NMOS_VTL
M$4 3 2 5 3 NMOS_VTL L=0.05U W=0.415U AS=0.02905P AD=0.043575P PS=0.555U
+ PD=1.04U
.ENDS NOR2_X1

* cell NOR3_X4
* pin PWELL,VSS
* pin A1
* pin A2
* pin A3
* pin ZN
* pin NWELL,VDD
.SUBCKT NOR3_X4 1 2 3 4 5 8
* net 1 PWELL,VSS
* net 2 A1
* net 3 A2
* net 4 A3
* net 5 ZN
* net 8 NWELL,VDD
* device instance $1 r0 *1 0.17,0.995 PMOS_VTL
M$1 5 2 7 8 PMOS_VTL L=0.05U W=2.52U AS=0.19845P AD=0.1764P PS=3.78U PD=3.08U
* device instance $5 r0 *1 0.93,0.995 PMOS_VTL
M$5 6 3 7 8 PMOS_VTL L=0.05U W=2.52U AS=0.1764P AD=0.19845P PS=3.08U PD=3.78U
* device instance $9 r0 *1 1.875,0.995 PMOS_VTL
M$9 6 4 8 8 PMOS_VTL L=0.05U W=2.52U AS=0.19845P AD=0.19845P PS=3.78U PD=3.78U
* device instance $13 r0 *1 0.17,0.2975 NMOS_VTL
M$13 5 2 1 1 NMOS_VTL L=0.05U W=1.66U AS=0.130725P AD=0.1162P PS=2.705U PD=2.22U
* device instance $17 r0 *1 0.93,0.2975 NMOS_VTL
M$17 5 3 1 1 NMOS_VTL L=0.05U W=1.66U AS=0.1162P AD=0.130725P PS=2.22U PD=2.705U
* device instance $21 r0 *1 1.875,0.2975 NMOS_VTL
M$21 5 4 1 1 NMOS_VTL L=0.05U W=1.66U AS=0.130725P AD=0.130725P PS=2.705U
+ PD=2.705U
.ENDS NOR3_X4

* cell NAND2_X1
* pin A2
* pin A1
* pin PWELL,VSS
* pin NWELL,VDD
* pin ZN
.SUBCKT NAND2_X1 1 2 3 4 5
* net 1 A2
* net 2 A1
* net 3 PWELL,VSS
* net 4 NWELL,VDD
* net 5 ZN
* device instance $1 r0 *1 0.185,0.995 PMOS_VTL
M$1 5 1 4 4 PMOS_VTL L=0.05U W=0.63U AS=0.06615P AD=0.0441P PS=1.47U PD=0.77U
* device instance $2 r0 *1 0.375,0.995 PMOS_VTL
M$2 4 2 5 4 PMOS_VTL L=0.05U W=0.63U AS=0.0441P AD=0.06615P PS=0.77U PD=1.47U
* device instance $3 r0 *1 0.185,0.2975 NMOS_VTL
M$3 6 1 3 3 NMOS_VTL L=0.05U W=0.415U AS=0.043575P AD=0.02905P PS=1.04U
+ PD=0.555U
* device instance $4 r0 *1 0.375,0.2975 NMOS_VTL
M$4 5 2 6 3 NMOS_VTL L=0.05U W=0.415U AS=0.02905P AD=0.043575P PS=0.555U
+ PD=1.04U
.ENDS NAND2_X1

* cell OAI21_X4
* pin A
* pin B2
* pin B1
* pin NWELL,VDD
* pin PWELL,VSS
* pin ZN
.SUBCKT OAI21_X4 1 2 3 5 6 7
* net 1 A
* net 2 B2
* net 3 B1
* net 5 NWELL,VDD
* net 6 PWELL,VSS
* net 7 ZN
* device instance $1 r0 *1 0.17,0.995 PMOS_VTL
M$1 7 1 5 5 PMOS_VTL L=0.05U W=2.52U AS=0.19845P AD=0.1764P PS=3.78U PD=3.08U
* device instance $5 r0 *1 0.93,0.995 PMOS_VTL
M$5 11 2 5 5 PMOS_VTL L=0.05U W=0.63U AS=0.0441P AD=0.0441P PS=0.77U PD=0.77U
* device instance $6 r0 *1 1.12,0.995 PMOS_VTL
M$6 7 3 11 5 PMOS_VTL L=0.05U W=0.63U AS=0.0441P AD=0.0441P PS=0.77U PD=0.77U
* device instance $7 r0 *1 1.31,0.995 PMOS_VTL
M$7 10 3 7 5 PMOS_VTL L=0.05U W=0.63U AS=0.0441P AD=0.0441P PS=0.77U PD=0.77U
* device instance $8 r0 *1 1.5,0.995 PMOS_VTL
M$8 5 2 10 5 PMOS_VTL L=0.05U W=0.63U AS=0.0441P AD=0.0441P PS=0.77U PD=0.77U
* device instance $9 r0 *1 1.69,0.995 PMOS_VTL
M$9 9 2 5 5 PMOS_VTL L=0.05U W=0.63U AS=0.0441P AD=0.0441P PS=0.77U PD=0.77U
* device instance $10 r0 *1 1.88,0.995 PMOS_VTL
M$10 7 3 9 5 PMOS_VTL L=0.05U W=0.63U AS=0.0441P AD=0.0441P PS=0.77U PD=0.77U
* device instance $11 r0 *1 2.07,0.995 PMOS_VTL
M$11 8 3 7 5 PMOS_VTL L=0.05U W=0.63U AS=0.0441P AD=0.0441P PS=0.77U PD=0.77U
* device instance $12 r0 *1 2.26,0.995 PMOS_VTL
M$12 5 2 8 5 PMOS_VTL L=0.05U W=0.63U AS=0.0441P AD=0.06615P PS=0.77U PD=1.47U
* device instance $13 r0 *1 0.17,0.2975 NMOS_VTL
M$13 6 1 4 6 NMOS_VTL L=0.05U W=1.66U AS=0.130725P AD=0.1162P PS=2.705U PD=2.22U
* device instance $17 r0 *1 0.93,0.2975 NMOS_VTL
M$17 7 2 4 6 NMOS_VTL L=0.05U W=1.66U AS=0.1162P AD=0.130725P PS=2.22U PD=2.705U
* device instance $18 r0 *1 1.12,0.2975 NMOS_VTL
M$18 4 3 7 6 NMOS_VTL L=0.05U W=1.66U AS=0.1162P AD=0.1162P PS=2.22U PD=2.22U
.ENDS OAI21_X4

* cell NAND3_X4
* pin A2
* pin A1
* pin A3
* pin PWELL,VSS
* pin ZN
* pin NWELL,VDD
.SUBCKT NAND3_X4 1 2 3 4 5 6
* net 1 A2
* net 2 A1
* net 3 A3
* net 4 PWELL,VSS
* net 5 ZN
* net 6 NWELL,VDD
* device instance $1 r0 *1 0.21,0.995 PMOS_VTL
M$1 5 3 6 6 PMOS_VTL L=0.05U W=2.52U AS=0.19845P AD=0.19845P PS=3.78U PD=3.78U
* device instance $2 r0 *1 0.4,0.995 PMOS_VTL
M$2 6 1 5 6 PMOS_VTL L=0.05U W=2.52U AS=0.1764P AD=0.1764P PS=3.08U PD=3.08U
* device instance $3 r0 *1 0.59,0.995 PMOS_VTL
M$3 5 2 6 6 PMOS_VTL L=0.05U W=2.52U AS=0.1764P AD=0.1764P PS=3.08U PD=3.08U
* device instance $13 r0 *1 0.21,0.2975 NMOS_VTL
M$13 13 3 4 4 NMOS_VTL L=0.05U W=0.415U AS=0.043575P AD=0.02905P PS=1.04U
+ PD=0.555U
* device instance $14 r0 *1 0.4,0.2975 NMOS_VTL
M$14 12 1 13 4 NMOS_VTL L=0.05U W=0.415U AS=0.02905P AD=0.02905P PS=0.555U
+ PD=0.555U
* device instance $15 r0 *1 0.59,0.2975 NMOS_VTL
M$15 5 2 12 4 NMOS_VTL L=0.05U W=0.415U AS=0.02905P AD=0.02905P PS=0.555U
+ PD=0.555U
* device instance $16 r0 *1 0.78,0.2975 NMOS_VTL
M$16 10 2 5 4 NMOS_VTL L=0.05U W=0.415U AS=0.02905P AD=0.02905P PS=0.555U
+ PD=0.555U
* device instance $17 r0 *1 0.97,0.2975 NMOS_VTL
M$17 8 1 10 4 NMOS_VTL L=0.05U W=0.415U AS=0.02905P AD=0.02905P PS=0.555U
+ PD=0.555U
* device instance $18 r0 *1 1.16,0.2975 NMOS_VTL
M$18 4 3 8 4 NMOS_VTL L=0.05U W=0.415U AS=0.02905P AD=0.02905P PS=0.555U
+ PD=0.555U
* device instance $19 r0 *1 1.35,0.2975 NMOS_VTL
M$19 9 3 4 4 NMOS_VTL L=0.05U W=0.415U AS=0.02905P AD=0.02905P PS=0.555U
+ PD=0.555U
* device instance $20 r0 *1 1.54,0.2975 NMOS_VTL
M$20 7 1 9 4 NMOS_VTL L=0.05U W=0.415U AS=0.02905P AD=0.02905P PS=0.555U
+ PD=0.555U
* device instance $21 r0 *1 1.73,0.2975 NMOS_VTL
M$21 5 2 7 4 NMOS_VTL L=0.05U W=0.415U AS=0.02905P AD=0.02905P PS=0.555U
+ PD=0.555U
* device instance $22 r0 *1 1.92,0.2975 NMOS_VTL
M$22 14 2 5 4 NMOS_VTL L=0.05U W=0.415U AS=0.02905P AD=0.02905P PS=0.555U
+ PD=0.555U
* device instance $23 r0 *1 2.11,0.2975 NMOS_VTL
M$23 11 1 14 4 NMOS_VTL L=0.05U W=0.415U AS=0.02905P AD=0.02905P PS=0.555U
+ PD=0.555U
* device instance $24 r0 *1 2.3,0.2975 NMOS_VTL
M$24 4 3 11 4 NMOS_VTL L=0.05U W=0.415U AS=0.02905P AD=0.043575P PS=0.555U
+ PD=1.04U
.ENDS NAND3_X4

* cell BUF_X4
* pin A
* pin NWELL,VDD
* pin Z
* pin PWELL,VSS
.SUBCKT BUF_X4 1 3 4 5
* net 1 A
* net 3 NWELL,VDD
* net 4 Z
* net 5 PWELL,VSS
* device instance $1 r0 *1 0.17,0.995 PMOS_VTL
M$1 2 1 3 3 PMOS_VTL L=0.05U W=1.26U AS=0.11025P AD=0.0882P PS=2.24U PD=1.54U
* device instance $3 r0 *1 0.55,0.995 PMOS_VTL
M$3 4 2 3 3 PMOS_VTL L=0.05U W=2.52U AS=0.1764P AD=0.19845P PS=3.08U PD=3.78U
* device instance $7 r0 *1 0.17,0.2975 NMOS_VTL
M$7 2 1 5 5 NMOS_VTL L=0.05U W=0.83U AS=0.072625P AD=0.0581P PS=1.595U PD=1.11U
* device instance $9 r0 *1 0.55,0.2975 NMOS_VTL
M$9 4 2 5 5 NMOS_VTL L=0.05U W=1.66U AS=0.1162P AD=0.130725P PS=2.22U PD=2.705U
.ENDS BUF_X4

* cell BUF_X2
* pin A
* pin PWELL,VSS
* pin NWELL,VDD
* pin Z
.SUBCKT BUF_X2 1 3 4 5
* net 1 A
* net 3 PWELL,VSS
* net 4 NWELL,VDD
* net 5 Z
* device instance $1 r0 *1 0.21,0.995 PMOS_VTL
M$1 4 1 2 4 PMOS_VTL L=0.05U W=0.63U AS=0.06615P AD=0.0441P PS=1.47U PD=0.77U
* device instance $2 r0 *1 0.4,0.995 PMOS_VTL
M$2 5 2 4 4 PMOS_VTL L=0.05U W=1.26U AS=0.0882P AD=0.11025P PS=1.54U PD=2.24U
* device instance $4 r0 *1 0.21,0.2975 NMOS_VTL
M$4 3 1 2 3 NMOS_VTL L=0.05U W=0.415U AS=0.043575P AD=0.02905P PS=1.04U
+ PD=0.555U
* device instance $5 r0 *1 0.4,0.2975 NMOS_VTL
M$5 5 2 3 3 NMOS_VTL L=0.05U W=0.83U AS=0.0581P AD=0.072625P PS=1.11U PD=1.595U
.ENDS BUF_X2

* cell BUF_X8
* pin PWELL,VSS
* pin Z
* pin NWELL,VDD
* pin A
.SUBCKT BUF_X8 1 3 4 5
* net 1 PWELL,VSS
* net 3 Z
* net 4 NWELL,VDD
* net 5 A
* device instance $1 r0 *1 0.17,0.995 PMOS_VTL
M$1 2 5 4 4 PMOS_VTL L=0.05U W=2.52U AS=0.19845P AD=0.1764P PS=3.78U PD=3.08U
* device instance $5 r0 *1 0.93,0.995 PMOS_VTL
M$5 3 2 4 4 PMOS_VTL L=0.05U W=5.04U AS=0.3528P AD=0.37485P PS=6.16U PD=6.86U
* device instance $13 r0 *1 0.17,0.2975 NMOS_VTL
M$13 2 5 1 1 NMOS_VTL L=0.05U W=1.66U AS=0.130725P AD=0.1162P PS=2.705U PD=2.22U
* device instance $17 r0 *1 0.93,0.2975 NMOS_VTL
M$17 3 2 1 1 NMOS_VTL L=0.05U W=3.32U AS=0.2324P AD=0.246925P PS=4.44U PD=4.925U
.ENDS BUF_X8

* cell CLKBUF_X3
* pin A
* pin PWELL,VSS
* pin NWELL,VDD
* pin Z
.SUBCKT CLKBUF_X3 1 3 4 5
* net 1 A
* net 3 PWELL,VSS
* net 4 NWELL,VDD
* net 5 Z
* device instance $1 r0 *1 0.17,0.995 PMOS_VTL
M$1 4 1 2 4 PMOS_VTL L=0.05U W=0.63U AS=0.06615P AD=0.0441P PS=1.47U PD=0.77U
* device instance $2 r0 *1 0.36,0.995 PMOS_VTL
M$2 5 2 4 4 PMOS_VTL L=0.05U W=1.89U AS=0.1323P AD=0.15435P PS=2.31U PD=3.01U
* device instance $5 r0 *1 0.17,0.1875 NMOS_VTL
M$5 3 1 2 3 NMOS_VTL L=0.05U W=0.195U AS=0.020475P AD=0.01365P PS=0.6U PD=0.335U
* device instance $6 r0 *1 0.36,0.1875 NMOS_VTL
M$6 5 2 3 3 NMOS_VTL L=0.05U W=0.585U AS=0.04095P AD=0.047775P PS=1.005U
+ PD=1.27U
.ENDS CLKBUF_X3

* cell DFF_X1
* pin PWELL,VSS
* pin QN
* pin Q
* pin D
* pin CK
* pin NWELL,VDD
.SUBCKT DFF_X1 1 8 9 14 15 16
* net 1 PWELL,VSS
* net 8 QN
* net 9 Q
* net 14 D
* net 15 CK
* net 16 NWELL,VDD
* device instance $1 r0 *1 2.85,0.995 PMOS_VTL
M$1 16 6 8 16 PMOS_VTL L=0.05U W=0.63U AS=0.06615P AD=0.0441P PS=1.47U PD=0.77U
* device instance $2 r0 *1 3.04,0.995 PMOS_VTL
M$2 9 7 16 16 PMOS_VTL L=0.05U W=0.63U AS=0.0441P AD=0.06615P PS=0.77U PD=1.47U
* device instance $3 r0 *1 0.185,0.9425 PMOS_VTL
M$3 16 5 2 16 PMOS_VTL L=0.05U W=0.315U AS=0.033075P AD=0.014175P PS=0.84U
+ PD=0.455U
* device instance $4 r0 *1 0.375,1.055 PMOS_VTL
M$4 17 3 16 16 PMOS_VTL L=0.05U W=0.09U AS=0.014175P AD=0.0063P PS=0.455U
+ PD=0.23U
* device instance $5 r0 *1 0.565,1.055 PMOS_VTL
M$5 17 5 4 16 PMOS_VTL L=0.05U W=0.09U AS=0.018075P AD=0.0063P PS=0.565U
+ PD=0.23U
* device instance $6 r0 *1 0.76,0.975 PMOS_VTL
M$6 18 2 4 16 PMOS_VTL L=0.05U W=0.42U AS=0.018075P AD=0.0294P PS=0.565U
+ PD=0.56U
* device instance $7 r0 *1 0.95,0.975 PMOS_VTL
M$7 16 14 18 16 PMOS_VTL L=0.05U W=0.42U AS=0.0294P AD=0.025725P PS=0.56U
+ PD=0.56U
* device instance $8 r0 *1 1.14,1.0275 PMOS_VTL
M$8 3 4 16 16 PMOS_VTL L=0.05U W=0.315U AS=0.025725P AD=0.0567P PS=0.56U
+ PD=0.99U
* device instance $9 r0 *1 1.555,1.0275 PMOS_VTL
M$9 16 15 5 16 PMOS_VTL L=0.05U W=0.315U AS=0.033075P AD=0.02205P PS=0.84U
+ PD=0.455U
* device instance $10 r0 *1 1.745,1.0275 PMOS_VTL
M$10 19 4 16 16 PMOS_VTL L=0.05U W=0.315U AS=0.02205P AD=0.02205P PS=0.455U
+ PD=0.455U
* device instance $11 r0 *1 1.935,1.0275 PMOS_VTL
M$11 6 5 19 16 PMOS_VTL L=0.05U W=0.315U AS=0.02205P AD=0.014175P PS=0.455U
+ PD=0.455U
* device instance $12 r0 *1 2.125,1.14 PMOS_VTL
M$12 20 2 6 16 PMOS_VTL L=0.05U W=0.09U AS=0.014175P AD=0.006525P PS=0.455U
+ PD=0.235U
* device instance $13 r0 *1 2.32,1.14 PMOS_VTL
M$13 20 7 16 16 PMOS_VTL L=0.05U W=0.09U AS=0.014175P AD=0.006525P PS=0.455U
+ PD=0.235U
* device instance $14 r0 *1 2.51,1.0275 PMOS_VTL
M$14 7 6 16 16 PMOS_VTL L=0.05U W=0.315U AS=0.014175P AD=0.033075P PS=0.455U
+ PD=0.84U
* device instance $15 r0 *1 2.85,0.2975 NMOS_VTL
M$15 1 6 8 1 NMOS_VTL L=0.05U W=0.415U AS=0.043575P AD=0.02905P PS=1.04U
+ PD=0.555U
* device instance $16 r0 *1 3.04,0.2975 NMOS_VTL
M$16 9 7 1 1 NMOS_VTL L=0.05U W=0.415U AS=0.02905P AD=0.043575P PS=0.555U
+ PD=1.04U
* device instance $17 r0 *1 2.125,0.345 NMOS_VTL
M$17 12 5 6 1 NMOS_VTL L=0.05U W=0.09U AS=0.0105P AD=0.006525P PS=0.35U
+ PD=0.235U
* device instance $18 r0 *1 2.32,0.345 NMOS_VTL
M$18 12 7 1 1 NMOS_VTL L=0.05U W=0.09U AS=0.0105P AD=0.006525P PS=0.35U
+ PD=0.235U
* device instance $19 r0 *1 1.555,0.36 NMOS_VTL
M$19 1 15 5 1 NMOS_VTL L=0.05U W=0.21U AS=0.02205P AD=0.0147P PS=0.63U PD=0.35U
* device instance $20 r0 *1 1.745,0.36 NMOS_VTL
M$20 13 4 1 1 NMOS_VTL L=0.05U W=0.21U AS=0.0147P AD=0.0147P PS=0.35U PD=0.35U
* device instance $21 r0 *1 1.935,0.36 NMOS_VTL
M$21 6 2 13 1 NMOS_VTL L=0.05U W=0.21U AS=0.0147P AD=0.0105P PS=0.35U PD=0.35U
* device instance $22 r0 *1 2.51,0.36 NMOS_VTL
M$22 7 6 1 1 NMOS_VTL L=0.05U W=0.21U AS=0.0105P AD=0.02205P PS=0.35U PD=0.63U
* device instance $23 r0 *1 0.185,0.285 NMOS_VTL
M$23 1 5 2 1 NMOS_VTL L=0.05U W=0.21U AS=0.02205P AD=0.0105P PS=0.63U PD=0.35U
* device instance $24 r0 *1 0.375,0.345 NMOS_VTL
M$24 10 3 1 1 NMOS_VTL L=0.05U W=0.09U AS=0.0105P AD=0.0063P PS=0.35U PD=0.23U
* device instance $25 r0 *1 0.565,0.345 NMOS_VTL
M$25 10 2 4 1 NMOS_VTL L=0.05U W=0.09U AS=0.013P AD=0.0063P PS=0.42U PD=0.23U
* device instance $26 r0 *1 1.14,0.285 NMOS_VTL
M$26 3 4 1 1 NMOS_VTL L=0.05U W=0.21U AS=0.016975P AD=0.02205P PS=0.415U
+ PD=0.63U
* device instance $27 r0 *1 0.76,0.3175 NMOS_VTL
M$27 11 5 4 1 NMOS_VTL L=0.05U W=0.275U AS=0.013P AD=0.01925P PS=0.42U PD=0.415U
* device instance $28 r0 *1 0.95,0.3175 NMOS_VTL
M$28 1 14 11 1 NMOS_VTL L=0.05U W=0.275U AS=0.01925P AD=0.016975P PS=0.415U
+ PD=0.415U
.ENDS DFF_X1

* cell CLKBUF_X2
* pin A
* pin PWELL,VSS
* pin NWELL,VDD
* pin Z
.SUBCKT CLKBUF_X2 1 3 4 5
* net 1 A
* net 3 PWELL,VSS
* net 4 NWELL,VDD
* net 5 Z
* device instance $1 r0 *1 0.17,0.995 PMOS_VTL
M$1 4 1 2 4 PMOS_VTL L=0.05U W=0.63U AS=0.06615P AD=0.0441P PS=1.47U PD=0.77U
* device instance $2 r0 *1 0.36,0.995 PMOS_VTL
M$2 5 2 4 4 PMOS_VTL L=0.05U W=1.26U AS=0.0882P AD=0.11025P PS=1.54U PD=2.24U
* device instance $4 r0 *1 0.17,0.1875 NMOS_VTL
M$4 3 1 2 3 NMOS_VTL L=0.05U W=0.195U AS=0.020475P AD=0.01365P PS=0.6U PD=0.335U
* device instance $5 r0 *1 0.36,0.1875 NMOS_VTL
M$5 5 2 3 3 NMOS_VTL L=0.05U W=0.39U AS=0.0273P AD=0.034125P PS=0.67U PD=0.935U
.ENDS CLKBUF_X2

* cell BUF_X1
* pin A
* pin PWELL,VSS
* pin NWELL,VDD
* pin Z
.SUBCKT BUF_X1 1 3 4 5
* net 1 A
* net 3 PWELL,VSS
* net 4 NWELL,VDD
* net 5 Z
* device instance $1 r0 *1 0.17,1.1525 PMOS_VTL
M$1 2 1 4 4 PMOS_VTL L=0.05U W=0.315U AS=0.033075P AD=0.033075P PS=0.77U
+ PD=0.84U
* device instance $2 r0 *1 0.36,0.995 PMOS_VTL
M$2 5 2 4 4 PMOS_VTL L=0.05U W=0.63U AS=0.033075P AD=0.06615P PS=0.77U PD=1.47U
* device instance $3 r0 *1 0.17,0.195 NMOS_VTL
M$3 3 1 2 3 NMOS_VTL L=0.05U W=0.21U AS=0.02205P AD=0.021875P PS=0.63U PD=0.555U
* device instance $4 r0 *1 0.36,0.2975 NMOS_VTL
M$4 5 2 3 3 NMOS_VTL L=0.05U W=0.415U AS=0.021875P AD=0.043575P PS=0.555U
+ PD=1.04U
.ENDS BUF_X1

* cell DFF_X2
* pin PWELL,VSS
* pin D
* pin CK
* pin Q
* pin NWELL,VDD
.SUBCKT DFF_X2 1 6 8 11 16
* net 1 PWELL,VSS
* net 6 D
* net 8 CK
* net 10 QN
* net 11 Q
* net 16 NWELL,VDD
* device instance $1 r0 *1 2.855,0.995 PMOS_VTL
M$1 10 9 16 16 PMOS_VTL L=0.05U W=1.26U AS=0.11025P AD=0.0882P PS=2.24U PD=1.54U
* device instance $3 r0 *1 3.235,0.995 PMOS_VTL
M$3 11 2 16 16 PMOS_VTL L=0.05U W=1.26U AS=0.0882P AD=0.11025P PS=1.54U PD=2.24U
* device instance $5 r0 *1 0.2,0.9275 PMOS_VTL
M$5 16 7 3 16 PMOS_VTL L=0.05U W=0.315U AS=0.033075P AD=0.014175P PS=0.84U
+ PD=0.455U
* device instance $6 r0 *1 0.39,1.04 PMOS_VTL
M$6 17 4 16 16 PMOS_VTL L=0.05U W=0.09U AS=0.014175P AD=0.0063P PS=0.455U
+ PD=0.23U
* device instance $7 r0 *1 0.58,1.04 PMOS_VTL
M$7 17 7 5 16 PMOS_VTL L=0.05U W=0.09U AS=0.01785P AD=0.0063P PS=0.56U PD=0.23U
* device instance $8 r0 *1 0.77,0.975 PMOS_VTL
M$8 18 3 5 16 PMOS_VTL L=0.05U W=0.42U AS=0.01785P AD=0.0294P PS=0.56U PD=0.56U
* device instance $9 r0 *1 0.96,0.975 PMOS_VTL
M$9 16 6 18 16 PMOS_VTL L=0.05U W=0.42U AS=0.0294P AD=0.025725P PS=0.56U
+ PD=0.56U
* device instance $10 r0 *1 1.15,1.0275 PMOS_VTL
M$10 4 5 16 16 PMOS_VTL L=0.05U W=0.315U AS=0.025725P AD=0.0567P PS=0.56U
+ PD=0.99U
* device instance $11 r0 *1 2.135,0.915 PMOS_VTL
M$11 20 3 9 16 PMOS_VTL L=0.05U W=0.09U AS=0.014175P AD=0.0063P PS=0.455U
+ PD=0.23U
* device instance $12 r0 *1 2.325,0.915 PMOS_VTL
M$12 20 2 16 16 PMOS_VTL L=0.05U W=0.09U AS=0.0252P AD=0.0063P PS=0.77U PD=0.23U
* device instance $13 r0 *1 1.565,1.0275 PMOS_VTL
M$13 16 8 7 16 PMOS_VTL L=0.05U W=0.315U AS=0.033075P AD=0.02205P PS=0.84U
+ PD=0.455U
* device instance $14 r0 *1 1.755,1.0275 PMOS_VTL
M$14 19 5 16 16 PMOS_VTL L=0.05U W=0.315U AS=0.02205P AD=0.02205P PS=0.455U
+ PD=0.455U
* device instance $15 r0 *1 1.945,1.0275 PMOS_VTL
M$15 9 7 19 16 PMOS_VTL L=0.05U W=0.315U AS=0.02205P AD=0.014175P PS=0.455U
+ PD=0.455U
* device instance $16 r0 *1 2.515,0.995 PMOS_VTL
M$16 2 9 16 16 PMOS_VTL L=0.05U W=0.63U AS=0.0252P AD=0.06615P PS=0.77U PD=1.47U
* device instance $17 r0 *1 2.855,0.2975 NMOS_VTL
M$17 10 9 1 1 NMOS_VTL L=0.05U W=0.83U AS=0.072625P AD=0.0581P PS=1.595U
+ PD=1.11U
* device instance $19 r0 *1 3.235,0.2975 NMOS_VTL
M$19 11 2 1 1 NMOS_VTL L=0.05U W=0.83U AS=0.0581P AD=0.072625P PS=1.11U
+ PD=1.595U
* device instance $21 r0 *1 0.39,0.31 NMOS_VTL
M$21 12 4 1 1 NMOS_VTL L=0.05U W=0.09U AS=0.0105P AD=0.0063P PS=0.35U PD=0.23U
* device instance $22 r0 *1 0.58,0.31 NMOS_VTL
M$22 12 3 5 1 NMOS_VTL L=0.05U W=0.09U AS=0.012775P AD=0.0063P PS=0.415U
+ PD=0.23U
* device instance $23 r0 *1 1.15,0.25 NMOS_VTL
M$23 4 5 1 1 NMOS_VTL L=0.05U W=0.21U AS=0.016975P AD=0.02205P PS=0.415U
+ PD=0.63U
* device instance $24 r0 *1 0.77,0.2825 NMOS_VTL
M$24 13 7 5 1 NMOS_VTL L=0.05U W=0.275U AS=0.012775P AD=0.01925P PS=0.415U
+ PD=0.415U
* device instance $25 r0 *1 0.96,0.2825 NMOS_VTL
M$25 1 6 13 1 NMOS_VTL L=0.05U W=0.275U AS=0.01925P AD=0.016975P PS=0.415U
+ PD=0.415U
* device instance $26 r0 *1 0.2,0.37 NMOS_VTL
M$26 1 7 3 1 NMOS_VTL L=0.05U W=0.21U AS=0.02205P AD=0.0105P PS=0.63U PD=0.35U
* device instance $27 r0 *1 1.565,0.35 NMOS_VTL
M$27 1 8 7 1 NMOS_VTL L=0.05U W=0.21U AS=0.02205P AD=0.0147P PS=0.63U PD=0.35U
* device instance $28 r0 *1 1.755,0.35 NMOS_VTL
M$28 14 5 1 1 NMOS_VTL L=0.05U W=0.21U AS=0.0147P AD=0.0147P PS=0.35U PD=0.35U
* device instance $29 r0 *1 1.945,0.35 NMOS_VTL
M$29 9 3 14 1 NMOS_VTL L=0.05U W=0.21U AS=0.0147P AD=0.0105P PS=0.35U PD=0.35U
* device instance $30 r0 *1 2.135,0.41 NMOS_VTL
M$30 15 7 9 1 NMOS_VTL L=0.05U W=0.09U AS=0.0105P AD=0.0063P PS=0.35U PD=0.23U
* device instance $31 r0 *1 2.325,0.41 NMOS_VTL
M$31 15 2 1 1 NMOS_VTL L=0.05U W=0.09U AS=0.017675P AD=0.0063P PS=0.555U
+ PD=0.23U
* device instance $32 r0 *1 2.515,0.2975 NMOS_VTL
M$32 2 9 1 1 NMOS_VTL L=0.05U W=0.415U AS=0.017675P AD=0.043575P PS=0.555U
+ PD=1.04U
.ENDS DFF_X2

* cell AOI221_X1
* pin B2
* pin B1
* pin A
* pin C2
* pin C1
* pin PWELL,VSS
* pin NWELL,VDD
* pin ZN
.SUBCKT AOI221_X1 1 2 3 4 5 6 8 9
* net 1 B2
* net 2 B1
* net 3 A
* net 4 C2
* net 5 C1
* net 6 PWELL,VSS
* net 8 NWELL,VDD
* net 9 ZN
* device instance $1 r0 *1 0.17,0.995 PMOS_VTL
M$1 8 1 7 8 PMOS_VTL L=0.05U W=0.63U AS=0.06615P AD=0.0441P PS=1.47U PD=0.77U
* device instance $2 r0 *1 0.36,0.995 PMOS_VTL
M$2 7 2 8 8 PMOS_VTL L=0.05U W=0.63U AS=0.0441P AD=0.0441P PS=0.77U PD=0.77U
* device instance $3 r0 *1 0.55,0.995 PMOS_VTL
M$3 10 3 7 8 PMOS_VTL L=0.05U W=0.63U AS=0.0441P AD=0.0441P PS=0.77U PD=0.77U
* device instance $4 r0 *1 0.74,0.995 PMOS_VTL
M$4 9 4 10 8 PMOS_VTL L=0.05U W=0.63U AS=0.0441P AD=0.0441P PS=0.77U PD=0.77U
* device instance $5 r0 *1 0.93,0.995 PMOS_VTL
M$5 10 5 9 8 PMOS_VTL L=0.05U W=0.63U AS=0.0441P AD=0.06615P PS=0.77U PD=1.47U
* device instance $6 r0 *1 0.17,0.2975 NMOS_VTL
M$6 12 1 6 6 NMOS_VTL L=0.05U W=0.415U AS=0.043575P AD=0.02905P PS=1.04U
+ PD=0.555U
* device instance $7 r0 *1 0.36,0.2975 NMOS_VTL
M$7 9 2 12 6 NMOS_VTL L=0.05U W=0.415U AS=0.02905P AD=0.02905P PS=0.555U
+ PD=0.555U
* device instance $8 r0 *1 0.55,0.2975 NMOS_VTL
M$8 6 3 9 6 NMOS_VTL L=0.05U W=0.415U AS=0.02905P AD=0.02905P PS=0.555U
+ PD=0.555U
* device instance $9 r0 *1 0.74,0.2975 NMOS_VTL
M$9 11 4 6 6 NMOS_VTL L=0.05U W=0.415U AS=0.02905P AD=0.02905P PS=0.555U
+ PD=0.555U
* device instance $10 r0 *1 0.93,0.2975 NMOS_VTL
M$10 9 5 11 6 NMOS_VTL L=0.05U W=0.415U AS=0.02905P AD=0.043575P PS=0.555U
+ PD=1.04U
.ENDS AOI221_X1

* cell NAND4_X1
* pin A4
* pin A3
* pin A2
* pin A1
* pin PWELL,VSS
* pin NWELL,VDD
* pin ZN
.SUBCKT NAND4_X1 1 2 3 4 5 6 7
* net 1 A4
* net 2 A3
* net 3 A2
* net 4 A1
* net 5 PWELL,VSS
* net 6 NWELL,VDD
* net 7 ZN
* device instance $1 r0 *1 0.17,0.995 PMOS_VTL
M$1 7 1 6 6 PMOS_VTL L=0.05U W=0.63U AS=0.06615P AD=0.0441P PS=1.47U PD=0.77U
* device instance $2 r0 *1 0.36,0.995 PMOS_VTL
M$2 6 2 7 6 PMOS_VTL L=0.05U W=0.63U AS=0.0441P AD=0.0441P PS=0.77U PD=0.77U
* device instance $3 r0 *1 0.55,0.995 PMOS_VTL
M$3 7 3 6 6 PMOS_VTL L=0.05U W=0.63U AS=0.0441P AD=0.0441P PS=0.77U PD=0.77U
* device instance $4 r0 *1 0.74,0.995 PMOS_VTL
M$4 6 4 7 6 PMOS_VTL L=0.05U W=0.63U AS=0.0441P AD=0.06615P PS=0.77U PD=1.47U
* device instance $5 r0 *1 0.17,0.2975 NMOS_VTL
M$5 10 1 5 5 NMOS_VTL L=0.05U W=0.415U AS=0.043575P AD=0.02905P PS=1.04U
+ PD=0.555U
* device instance $6 r0 *1 0.36,0.2975 NMOS_VTL