* CDL Netlist generated by OpenROAD

*.BUSDELIMITER [

.SUBCKT showahead_fifo almost_empty almost_full clk data_count[0]
+ data_count[1] data_count[2] data_count[3] data_count[4] empty
+ full peek_en rd_data[0] rd_data[1] rd_data[2] rd_data[3] rd_data[4]
+ rd_data[5] rd_data[6] rd_data[7] rd_en rst_n valid wr_data[0]
+ wr_data[1] wr_data[2] wr_data[3] wr_data[4] wr_data[5] wr_data[6]
+ wr_data[7] wr_en
X_295_ _294_ net14 VDD VSS gf180mcu_fd_sc_mcu9t5v0__clkinv_2
X_296_ _280_ _141_ VDD VSS gf180mcu_fd_sc_mcu9t5v0__clkinv_2
X_297_ _279_ _282_ _142_ VDD VSS gf180mcu_fd_sc_mcu9t5v0__nor2_2
X_298_ _141_ _293_ _142_ _143_ VDD VSS gf180mcu_fd_sc_mcu9t5v0__oai21_2
X_299_ _283_ _282_ _144_ VDD VSS gf180mcu_fd_sc_mcu9t5v0__or2_2
X_300_ _278_ _143_ _144_ _145_ VDD VSS gf180mcu_fd_sc_mcu9t5v0__and3_2
X_301_ _143_ _144_ _278_ _146_ VDD VSS gf180mcu_fd_sc_mcu9t5v0__aoi21_4
X_302_ _145_ _146_ _147_ VDD VSS gf180mcu_fd_sc_mcu9t5v0__or2_4
X_303_ _147_ net17 VDD VSS gf180mcu_fd_sc_mcu9t5v0__clkinv_2
X_304_ _283_ _275_ _148_ VDD VSS gf180mcu_fd_sc_mcu9t5v0__xnor2_4
X_305_ _148_ net16 VDD VSS gf180mcu_fd_sc_mcu9t5v0__clkinv_2
X_306_ _278_ _283_ _275_ _149_ VDD VSS gf180mcu_fd_sc_mcu9t5v0__nand3_2
X_307_ _278_ _282_ _277_ _150_ VDD VSS gf180mcu_fd_sc_mcu9t5v0__aoi21_2
X_308_ wr_ptr\[4\] rd_ptr\[4\] _151_ VDD VSS gf180mcu_fd_sc_mcu9t5v0__xnor2_2
X_309_ _149_ _150_ _151_ _152_ VDD VSS gf180mcu_fd_sc_mcu9t5v0__aoi21_4
X_310_ _149_ _150_ _151_ _153_ VDD VSS gf180mcu_fd_sc_mcu9t5v0__and3_2
X_311_ _152_ _153_ _154_ VDD VSS gf180mcu_fd_sc_mcu9t5v0__nor2_4
X_312_ _154_ net18 VDD VSS gf180mcu_fd_sc_mcu9t5v0__clkinv_2
X_313_ net15 _155_ VDD VSS gf180mcu_fd_sc_mcu9t5v0__clkinv_2
X_314_ _294_ _155_ _148_ _156_ VDD VSS gf180mcu_fd_sc_mcu9t5v0__and3_2
X_315_ _145_ _146_ _152_ _153_ _156_ _157_ VDD VSS gf180mcu_fd_sc_mcu9t5v0__oai221_4
X_316_ _157_ _158_ VDD VSS gf180mcu_fd_sc_mcu9t5v0__buf_4
X_317_ _158_ net20 VDD VSS gf180mcu_fd_sc_mcu9t5v0__inv_4
X_318_ _145_ _146_ _154_ _156_ _159_ VDD VSS gf180mcu_fd_sc_mcu9t5v0__oai211_4
X_319_ _159_ net29 VDD VSS gf180mcu_fd_sc_mcu9t5v0__buf_8
X_320_ net29 net19 VDD VSS gf180mcu_fd_sc_mcu9t5v0__clkinv_2
X_321_ rd_ptr\[3\] _276_ VDD VSS gf180mcu_fd_sc_mcu9t5v0__clkinv_4
X_322_ rd_ptr\[1\] _273_ VDD VSS gf180mcu_fd_sc_mcu9t5v0__clkinv_8
X_323_ _293_ _274_ VDD VSS gf180mcu_fd_sc_mcu9t5v0__clkinv_2
X_324_ rd_ptr\[2\] _281_ VDD VSS gf180mcu_fd_sc_mcu9t5v0__clkinv_8
X_325_ wr_ptr\[0\] _000_ VDD VSS gf180mcu_fd_sc_mcu9t5v0__inv_2
X_326_ wr_ptr\[1\] _285_ VDD VSS gf180mcu_fd_sc_mcu9t5v0__clkinv_2
X_327_ net3 _160_ VDD VSS gf180mcu_fd_sc_mcu9t5v0__clkbuf_3
X_328_ wr_ptr\[3\] _161_ VDD VSS gf180mcu_fd_sc_mcu9t5v0__clkinv_2
X_329_ net11 _161_ _162_ VDD VSS gf180mcu_fd_sc_mcu9t5v0__and2_2
X_330_ wr_ptr\[2\] _163_ VDD VSS gf180mcu_fd_sc_mcu9t5v0__clkinv_2
X_331_ _163_ _286_ _164_ VDD VSS gf180mcu_fd_sc_mcu9t5v0__and2_2
X_332_ _158_ _162_ _164_ _165_ VDD VSS gf180mcu_fd_sc_mcu9t5v0__and3_4
X_333_ mem\[0\]\[0\] _160_ _165_ _003_ VDD VSS gf180mcu_fd_sc_mcu9t5v0__mux2_2
X_334_ net4 _166_ VDD VSS gf180mcu_fd_sc_mcu9t5v0__buf_3
X_335_ mem\[0\]\[1\] _166_ _165_ _004_ VDD VSS gf180mcu_fd_sc_mcu9t5v0__mux2_2
X_336_ net5 _167_ VDD VSS gf180mcu_fd_sc_mcu9t5v0__clkbuf_3
X_337_ mem\[0\]\[2\] _167_ _165_ _005_ VDD VSS gf180mcu_fd_sc_mcu9t5v0__mux2_2
X_338_ net6 _168_ VDD VSS gf180mcu_fd_sc_mcu9t5v0__buf_3
X_339_ mem\[0\]\[3\] _168_ _165_ _006_ VDD VSS gf180mcu_fd_sc_mcu9t5v0__mux2_2
X_340_ net7 _169_ VDD VSS gf180mcu_fd_sc_mcu9t5v0__clkbuf_3
X_341_ mem\[0\]\[4\] _169_ _165_ _007_ VDD VSS gf180mcu_fd_sc_mcu9t5v0__mux2_2
X_342_ net8 _170_ VDD VSS gf180mcu_fd_sc_mcu9t5v0__clkbuf_3
X_343_ mem\[0\]\[5\] _170_ _165_ _008_ VDD VSS gf180mcu_fd_sc_mcu9t5v0__mux2_2
X_344_ net9 _171_ VDD VSS gf180mcu_fd_sc_mcu9t5v0__clkbuf_3
X_345_ mem\[0\]\[6\] _171_ _165_ _009_ VDD VSS gf180mcu_fd_sc_mcu9t5v0__mux2_2
X_346_ net10 _172_ VDD VSS gf180mcu_fd_sc_mcu9t5v0__clkbuf_3
X_347_ mem\[0\]\[7\] _172_ _165_ _010_ VDD VSS gf180mcu_fd_sc_mcu9t5v0__mux2_2
X_348_ net11 wr_ptr\[3\] _173_ VDD VSS gf180mcu_fd_sc_mcu9t5v0__and2_2
X_349_ _163_ _287_ _174_ VDD VSS gf180mcu_fd_sc_mcu9t5v0__and2_2
X_350_ _158_ _173_ _174_ _175_ VDD VSS gf180mcu_fd_sc_mcu9t5v0__and3_4
X_351_ mem\[10\]\[0\] _160_ _175_ _011_ VDD VSS gf180mcu_fd_sc_mcu9t5v0__mux2_2
X_352_ mem\[10\]\[1\] _166_ _175_ _012_ VDD VSS gf180mcu_fd_sc_mcu9t5v0__mux2_2
X_353_ mem\[10\]\[2\] _167_ _175_ _013_ VDD VSS gf180mcu_fd_sc_mcu9t5v0__mux2_2
X_354_ mem\[10\]\[3\] _168_ _175_ _014_ VDD VSS gf180mcu_fd_sc_mcu9t5v0__mux2_2
X_355_ mem\[10\]\[4\] _169_ _175_ _015_ VDD VSS gf180mcu_fd_sc_mcu9t5v0__mux2_2
X_356_ mem\[10\]\[5\] _170_ _175_ _016_ VDD VSS gf180mcu_fd_sc_mcu9t5v0__mux2_2
X_357_ mem\[10\]\[6\] _171_ _175_ _017_ VDD VSS gf180mcu_fd_sc_mcu9t5v0__mux2_2
X_358_ mem\[10\]\[7\] _172_ _175_ _018_ VDD VSS gf180mcu_fd_sc_mcu9t5v0__mux2_2
X_359_ _163_ _291_ _176_ VDD VSS gf180mcu_fd_sc_mcu9t5v0__and2_2
X_360_ _158_ _173_ _176_ _177_ VDD VSS gf180mcu_fd_sc_mcu9t5v0__and3_4
X_361_ mem\[11\]\[0\] _160_ _177_ _019_ VDD VSS gf180mcu_fd_sc_mcu9t5v0__mux2_2
X_362_ mem\[11\]\[1\] _166_ _177_ _020_ VDD VSS gf180mcu_fd_sc_mcu9t5v0__mux2_2
X_363_ mem\[11\]\[2\] _167_ _177_ _021_ VDD VSS gf180mcu_fd_sc_mcu9t5v0__mux2_2
X_364_ mem\[11\]\[3\] _168_ _177_ _022_ VDD VSS gf180mcu_fd_sc_mcu9t5v0__mux2_2
X_365_ mem\[11\]\[4\] _169_ _177_ _023_ VDD VSS gf180mcu_fd_sc_mcu9t5v0__mux2_2
X_366_ mem\[11\]\[5\] _170_ _177_ _024_ VDD VSS gf180mcu_fd_sc_mcu9t5v0__mux2_2
X_367_ mem\[11\]\[6\] _171_ _177_ _025_ VDD VSS gf180mcu_fd_sc_mcu9t5v0__mux2_2
X_368_ mem\[11\]\[7\] _172_ _177_ _026_ VDD VSS gf180mcu_fd_sc_mcu9t5v0__mux2_2
X_369_ _157_ _178_ VDD VSS gf180mcu_fd_sc_mcu9t5v0__clkbuf_8
X_370_ wr_ptr\[2\] _286_ _178_ _173_ _179_ VDD VSS gf180mcu_fd_sc_mcu9t5v0__and4_2
X_371_ _179_ _180_ VDD VSS gf180mcu_fd_sc_mcu9t5v0__clkbuf_8
X_372_ mem\[12\]\[0\] _160_ _180_ _027_ VDD VSS gf180mcu_fd_sc_mcu9t5v0__mux2_2
X_373_ mem\[12\]\[1\] _166_ _180_ _028_ VDD VSS gf180mcu_fd_sc_mcu9t5v0__mux2_2
X_374_ mem\[12\]\[2\] _167_ _180_ _029_ VDD VSS gf180mcu_fd_sc_mcu9t5v0__mux2_2
X_375_ mem\[12\]\[3\] _168_ _180_ _030_ VDD VSS gf180mcu_fd_sc_mcu9t5v0__mux2_2
X_376_ mem\[12\]\[4\] _169_ _180_ _031_ VDD VSS gf180mcu_fd_sc_mcu9t5v0__mux2_2
X_377_ mem\[12\]\[5\] _170_ _180_ _032_ VDD VSS gf180mcu_fd_sc_mcu9t5v0__mux2_2
X_378_ mem\[12\]\[6\] _171_ _180_ _033_ VDD VSS gf180mcu_fd_sc_mcu9t5v0__mux2_2
X_379_ mem\[12\]\[7\] _172_ _180_ _034_ VDD VSS gf180mcu_fd_sc_mcu9t5v0__mux2_2
X_380_ wr_ptr\[2\] _289_ _178_ _173_ _181_ VDD VSS gf180mcu_fd_sc_mcu9t5v0__and4_2
X_381_ _181_ _182_ VDD VSS gf180mcu_fd_sc_mcu9t5v0__clkbuf_8
X_382_ mem\[13\]\[0\] _160_ _182_ _035_ VDD VSS gf180mcu_fd_sc_mcu9t5v0__mux2_2
X_383_ mem\[13\]\[1\] _166_ _182_ _036_ VDD VSS gf180mcu_fd_sc_mcu9t5v0__mux2_2
X_384_ mem\[13\]\[2\] _167_ _182_ _037_ VDD VSS gf180mcu_fd_sc_mcu9t5v0__mux2_2
X_385_ mem\[13\]\[3\] _168_ _182_ _038_ VDD VSS gf180mcu_fd_sc_mcu9t5v0__mux2_2
X_386_ mem\[13\]\[4\] _169_ _182_ _039_ VDD VSS gf180mcu_fd_sc_mcu9t5v0__mux2_2
X_387_ mem\[13\]\[5\] _170_ _182_ _040_ VDD VSS gf180mcu_fd_sc_mcu9t5v0__mux2_2
X_388_ mem\[13\]\[6\] _171_ _182_ _041_ VDD VSS gf180mcu_fd_sc_mcu9t5v0__mux2_2
X_389_ mem\[13\]\[7\] _172_ _182_ _042_ VDD VSS gf180mcu_fd_sc_mcu9t5v0__mux2_2
X_390_ wr_ptr\[2\] _287_ _178_ _173_ _183_ VDD VSS gf180mcu_fd_sc_mcu9t5v0__and4_2
X_391_ _183_ _184_ VDD VSS gf180mcu_fd_sc_mcu9t5v0__clkbuf_8
X_392_ mem\[14\]\[0\] _160_ _184_ _043_ VDD VSS gf180mcu_fd_sc_mcu9t5v0__mux2_2
X_393_ mem\[14\]\[1\] _166_ _184_ _044_ VDD VSS gf180mcu_fd_sc_mcu9t5v0__mux2_2
X_394_ mem\[14\]\[2\] _167_ _184_ _045_ VDD VSS gf180mcu_fd_sc_mcu9t5v0__mux2_2
X_395_ mem\[14\]\[3\] _168_ _184_ _046_ VDD VSS gf180mcu_fd_sc_mcu9t5v0__mux2_2
X_396_ mem\[14\]\[4\] _169_ _184_ _047_ VDD VSS gf180mcu_fd_sc_mcu9t5v0__mux2_2
X_397_ mem\[14\]\[5\] _170_ _184_ _048_ VDD VSS gf180mcu_fd_sc_mcu9t5v0__mux2_2
X_398_ mem\[14\]\[6\] _171_ _184_ _049_ VDD VSS gf180mcu_fd_sc_mcu9t5v0__mux2_2
X_399_ mem\[14\]\[7\] _172_ _184_ _050_ VDD VSS gf180mcu_fd_sc_mcu9t5v0__mux2_2
X_400_ wr_ptr\[2\] _291_ _178_ _173_ _185_ VDD VSS gf180mcu_fd_sc_mcu9t5v0__and4_2
X_401_ _185_ _186_ VDD VSS gf180mcu_fd_sc_mcu9t5v0__clkbuf_8
X_402_ mem\[15\]\[0\] _160_ _186_ _051_ VDD VSS gf180mcu_fd_sc_mcu9t5v0__mux2_2
X_403_ mem\[15\]\[1\] _166_ _186_ _052_ VDD VSS gf180mcu_fd_sc_mcu9t5v0__mux2_2
X_404_ mem\[15\]\[2\] _167_ _186_ _053_ VDD VSS gf180mcu_fd_sc_mcu9t5v0__mux2_2
X_405_ mem\[15\]\[3\] _168_ _186_ _054_ VDD VSS gf180mcu_fd_sc_mcu9t5v0__mux2_2
X_406_ mem\[15\]\[4\] _169_ _186_ _055_ VDD VSS gf180mcu_fd_sc_mcu9t5v0__mux2_2
X_407_ mem\[15\]\[5\] _170_ _186_ _056_ VDD VSS gf180mcu_fd_sc_mcu9t5v0__mux2_2
X_408_ mem\[15\]\[6\] _171_ _186_ _057_ VDD VSS gf180mcu_fd_sc_mcu9t5v0__mux2_2
X_409_ mem\[15\]\[7\] _172_ _186_ _058_ VDD VSS gf180mcu_fd_sc_mcu9t5v0__mux2_2
X_410_ _163_ _289_ _187_ VDD VSS gf180mcu_fd_sc_mcu9t5v0__and2_2
X_411_ _158_ _162_ _187_ _188_ VDD VSS gf180mcu_fd_sc_mcu9t5v0__and3_4
X_412_ mem\[1\]\[0\] _160_ _188_ _059_ VDD VSS gf180mcu_fd_sc_mcu9t5v0__mux2_2
X_413_ mem\[1\]\[1\] _166_ _188_ _060_ VDD VSS gf180mcu_fd_sc_mcu9t5v0__mux2_2
X_414_ mem\[1\]\[2\] _167_ _188_ _061_ VDD VSS gf180mcu_fd_sc_mcu9t5v0__mux2_2
X_415_ mem\[1\]\[3\] _168_ _188_ _062_ VDD VSS gf180mcu_fd_sc_mcu9t5v0__mux2_2
X_416_ mem\[1\]\[4\] _169_ _188_ _063_ VDD VSS gf180mcu_fd_sc_mcu9t5v0__mux2_2
X_417_ mem\[1\]\[5\] _170_ _188_ _064_ VDD VSS gf180mcu_fd_sc_mcu9t5v0__mux2_2
X_418_ mem\[1\]\[6\] _171_ _188_ _065_ VDD VSS gf180mcu_fd_sc_mcu9t5v0__mux2_2
X_419_ mem\[1\]\[7\] _172_ _188_ _066_ VDD VSS gf180mcu_fd_sc_mcu9t5v0__mux2_2
X_420_ _158_ _162_ _174_ _189_ VDD VSS gf180mcu_fd_sc_mcu9t5v0__and3_4
X_421_ mem\[2\]\[0\] _160_ _189_ _067_ VDD VSS gf180mcu_fd_sc_mcu9t5v0__mux2_2
X_422_ mem\[2\]\[1\] _166_ _189_ _068_ VDD VSS gf180mcu_fd_sc_mcu9t5v0__mux2_2
X_423_ mem\[2\]\[2\] _167_ _189_ _069_ VDD VSS gf180mcu_fd_sc_mcu9t5v0__mux2_2
X_424_ mem\[2\]\[3\] _168_ _189_ _070_ VDD VSS gf180mcu_fd_sc_mcu9t5v0__mux2_2
X_425_ mem\[2\]\[4\] _169_ _189_ _071_ VDD VSS gf180mcu_fd_sc_mcu9t5v0__mux2_2
X_426_ mem\[2\]\[5\] _170_ _189_ _072_ VDD VSS gf180mcu_fd_sc_mcu9t5v0__mux2_2
X_427_ mem\[2\]\[6\] _171_ _189_ _073_ VDD VSS gf180mcu_fd_sc_mcu9t5v0__mux2_2
X_428_ mem\[2\]\[7\] _172_ _189_ _074_ VDD VSS gf180mcu_fd_sc_mcu9t5v0__mux2_2
X_429_ _158_ _162_ _176_ _190_ VDD VSS gf180mcu_fd_sc_mcu9t5v0__and3_4
X_430_ mem\[3\]\[0\] _160_ _190_ _075_ VDD VSS gf180mcu_fd_sc_mcu9t5v0__mux2_2
X_431_ mem\[3\]\[1\] _166_ _190_ _076_ VDD VSS gf180mcu_fd_sc_mcu9t5v0__mux2_2
X_432_ mem\[3\]\[2\] _167_ _190_ _077_ VDD VSS gf180mcu_fd_sc_mcu9t5v0__mux2_2
X_433_ mem\[3\]\[3\] _168_ _190_ _078_ VDD VSS gf180mcu_fd_sc_mcu9t5v0__mux2_2
X_434_ mem\[3\]\[4\] _169_ _190_ _079_ VDD VSS gf180mcu_fd_sc_mcu9t5v0__mux2_2
X_435_ mem\[3\]\[5\] _170_ _190_ _080_ VDD VSS gf180mcu_fd_sc_mcu9t5v0__mux2_2
X_436_ mem\[3\]\[6\] _171_ _190_ _081_ VDD VSS gf180mcu_fd_sc_mcu9t5v0__mux2_2
X_437_ mem\[3\]\[7\] _172_ _190_ _082_ VDD VSS gf180mcu_fd_sc_mcu9t5v0__mux2_2
X_438_ wr_ptr\[2\] _286_ _178_ _162_ _191_ VDD VSS gf180mcu_fd_sc_mcu9t5v0__and4_2
X_439_ _191_ _192_ VDD VSS gf180mcu_fd_sc_mcu9t5v0__clkbuf_8
X_440_ mem\[4\]\[0\] net3 _192_ _083_ VDD VSS gf180mcu_fd_sc_mcu9t5v0__mux2_2
X_441_ mem\[4\]\[1\] net4 _192_ _084_ VDD VSS gf180mcu_fd_sc_mcu9t5v0__mux2_2
X_442_ mem\[4\]\[2\] net5 _192_ _085_ VDD VSS gf180mcu_fd_sc_mcu9t5v0__mux2_2
X_443_ mem\[4\]\[3\] net6 _192_ _086_ VDD VSS gf180mcu_fd_sc_mcu9t5v0__mux2_2
X_444_ mem\[4\]\[4\] net7 _192_ _087_ VDD VSS gf180mcu_fd_sc_mcu9t5v0__mux2_2
X_445_ mem\[4\]\[5\] net8 _192_ _088_ VDD VSS gf180mcu_fd_sc_mcu9t5v0__mux2_2
X_446_ mem\[4\]\[6\] net9 _192_ _089_ VDD VSS gf180mcu_fd_sc_mcu9t5v0__mux2_2
X_447_ mem\[4\]\[7\] net10 _192_ _090_ VDD VSS gf180mcu_fd_sc_mcu9t5v0__mux2_2
X_448_ wr_ptr\[2\] _289_ _178_ _162_ _193_ VDD VSS gf180mcu_fd_sc_mcu9t5v0__and4_2
X_449_ _193_ _194_ VDD VSS gf180mcu_fd_sc_mcu9t5v0__clkbuf_8
X_450_ mem\[5\]\[0\] net3 _194_ _091_ VDD VSS gf180mcu_fd_sc_mcu9t5v0__mux2_2
X_451_ mem\[5\]\[1\] net4 _194_ _092_ VDD VSS gf180mcu_fd_sc_mcu9t5v0__mux2_2
X_452_ mem\[5\]\[2\] net5 _194_ _093_ VDD VSS gf180mcu_fd_sc_mcu9t5v0__mux2_2
X_453_ mem\[5\]\[3\] net6 _194_ _094_ VDD VSS gf180mcu_fd_sc_mcu9t5v0__mux2_2
X_454_ mem\[5\]\[4\] net7 _194_ _095_ VDD VSS gf180mcu_fd_sc_mcu9t5v0__mux2_2
X_455_ mem\[5\]\[5\] net8 _194_ _096_ VDD VSS gf180mcu_fd_sc_mcu9t5v0__mux2_2
X_456_ mem\[5\]\[6\] net9 _194_ _097_ VDD VSS gf180mcu_fd_sc_mcu9t5v0__mux2_2
X_457_ mem\[5\]\[7\] net10 _194_ _098_ VDD VSS gf180mcu_fd_sc_mcu9t5v0__mux2_2
X_458_ wr_ptr\[2\] _287_ _178_ _162_ _195_ VDD VSS gf180mcu_fd_sc_mcu9t5v0__and4_2
X_459_ _195_ _196_ VDD VSS gf180mcu_fd_sc_mcu9t5v0__clkbuf_8
X_460_ mem\[6\]\[0\] net3 _196_ _099_ VDD VSS gf180mcu_fd_sc_mcu9t5v0__mux2_2
X_461_ mem\[6\]\[1\] net4 _196_ _100_ VDD VSS gf180mcu_fd_sc_mcu9t5v0__mux2_2
X_462_ mem\[6\]\[2\] net5 _196_ _101_ VDD VSS gf180mcu_fd_sc_mcu9t5v0__mux2_2
X_463_ mem\[6\]\[3\] net6 _196_ _102_ VDD VSS gf180mcu_fd_sc_mcu9t5v0__mux2_2
X_464_ mem\[6\]\[4\] net7 _196_ _103_ VDD VSS gf180mcu_fd_sc_mcu9t5v0__mux2_2
X_465_ mem\[6\]\[5\] net8 _196_ _104_ VDD VSS gf180mcu_fd_sc_mcu9t5v0__mux2_2
X_466_ mem\[6\]\[6\] net9 _196_ _105_ VDD VSS gf180mcu_fd_sc_mcu9t5v0__mux2_2
X_467_ mem\[6\]\[7\] net10 _196_ _106_ VDD VSS gf180mcu_fd_sc_mcu9t5v0__mux2_2
X_468_ wr_ptr\[2\] _291_ _178_ _162_ _197_ VDD VSS gf180mcu_fd_sc_mcu9t5v0__and4_2
X_469_ _197_ _198_ VDD VSS gf180mcu_fd_sc_mcu9t5v0__clkbuf_8
X_470_ mem\[7\]\[0\] net3 _198_ _107_ VDD VSS gf180mcu_fd_sc_mcu9t5v0__mux2_2
X_471_ mem\[7\]\[1\] net4 _198_ _108_ VDD VSS gf180mcu_fd_sc_mcu9t5v0__mux2_2
X_472_ mem\[7\]\[2\] net5 _198_ _109_ VDD VSS gf180mcu_fd_sc_mcu9t5v0__mux2_2
X_473_ mem\[7\]\[3\] net6 _198_ _110_ VDD VSS gf180mcu_fd_sc_mcu9t5v0__mux2_2
X_474_ mem\[7\]\[4\] net7 _198_ _111_ VDD VSS gf180mcu_fd_sc_mcu9t5v0__mux2_2
X_475_ mem\[7\]\[5\] net8 _198_ _112_ VDD VSS gf180mcu_fd_sc_mcu9t5v0__mux2_2
X_476_ mem\[7\]\[6\] net9 _198_ _113_ VDD VSS gf180mcu_fd_sc_mcu9t5v0__mux2_2
X_477_ mem\[7\]\[7\] net10 _198_ _114_ VDD VSS gf180mcu_fd_sc_mcu9t5v0__mux2_2
X_478_ _158_ _164_ _173_ _199_ VDD VSS gf180mcu_fd_sc_mcu9t5v0__and3_4
X_479_ mem\[8\]\[0\] net3 _199_ _115_ VDD VSS gf180mcu_fd_sc_mcu9t5v0__mux2_2
X_480_ mem\[8\]\[1\] net4 _199_ _116_ VDD VSS gf180mcu_fd_sc_mcu9t5v0__mux2_2
X_481_ mem\[8\]\[2\] net5 _199_ _117_ VDD VSS gf180mcu_fd_sc_mcu9t5v0__mux2_2
X_482_ mem\[8\]\[3\] net6 _199_ _118_ VDD VSS gf180mcu_fd_sc_mcu9t5v0__mux2_2
X_483_ mem\[8\]\[4\] net7 _199_ _119_ VDD VSS gf180mcu_fd_sc_mcu9t5v0__mux2_2
X_484_ mem\[8\]\[5\] net8 _199_ _120_ VDD VSS gf180mcu_fd_sc_mcu9t5v0__mux2_2
X_485_ mem\[8\]\[6\] net9 _199_ _121_ VDD VSS gf180mcu_fd_sc_mcu9t5v0__mux2_2
X_486_ mem\[8\]\[7\] net10 _199_ _122_ VDD VSS gf180mcu_fd_sc_mcu9t5v0__mux2_2
X_487_ _158_ _173_ _187_ _200_ VDD VSS gf180mcu_fd_sc_mcu9t5v0__and3_4
X_488_ mem\[9\]\[0\] net3 _200_ _123_ VDD VSS gf180mcu_fd_sc_mcu9t5v0__mux2_2
X_489_ mem\[9\]\[1\] net4 _200_ _124_ VDD VSS gf180mcu_fd_sc_mcu9t5v0__mux2_2
X_490_ mem\[9\]\[2\] net5 _200_ _125_ VDD VSS gf180mcu_fd_sc_mcu9t5v0__mux2_2
X_491_ mem\[9\]\[3\] net6 _200_ _126_ VDD VSS gf180mcu_fd_sc_mcu9t5v0__mux2_2
X_492_ mem\[9\]\[4\] net7 _200_ _127_ VDD VSS gf180mcu_fd_sc_mcu9t5v0__mux2_2
X_493_ mem\[9\]\[5\] net8 _200_ _128_ VDD VSS gf180mcu_fd_sc_mcu9t5v0__mux2_2
X_494_ mem\[9\]\[6\] net9 _200_ _129_ VDD VSS gf180mcu_fd_sc_mcu9t5v0__mux2_2
X_495_ mem\[9\]\[7\] net10 _200_ _130_ VDD VSS gf180mcu_fd_sc_mcu9t5v0__mux2_2
X_496_ rd_ptr\[0\] _201_ VDD VSS gf180mcu_fd_sc_mcu9t5v0__clkbuf_8
X_497_ _201_ _202_ VDD VSS gf180mcu_fd_sc_mcu9t5v0__buf_8
X_498_ net2 _159_ _203_ VDD VSS gf180mcu_fd_sc_mcu9t5v0__nand2_2
X_499_ _202_ _203_ _131_ VDD VSS gf180mcu_fd_sc_mcu9t5v0__xnor2_2
X_500_ rd_ptr\[1\] _204_ VDD VSS gf180mcu_fd_sc_mcu9t5v0__clkbuf_8
X_501_ _002_ _204_ _203_ _132_ VDD VSS gf180mcu_fd_sc_mcu9t5v0__mux2_2
X_502_ net2 _284_ _159_ _205_ VDD VSS gf180mcu_fd_sc_mcu9t5v0__and3_2
X_503_ _281_ _205_ _133_ VDD VSS gf180mcu_fd_sc_mcu9t5v0__xnor2_2
X_504_ rd_ptr\[2\] _206_ VDD VSS gf180mcu_fd_sc_mcu9t5v0__clkbuf_8
X_505_ net2 _206_ _207_ VDD VSS gf180mcu_fd_sc_mcu9t5v0__and2_2
X_506_ _202_ _204_ _159_ _207_ _208_ VDD VSS gf180mcu_fd_sc_mcu9t5v0__and4_2
X_507_ _276_ _208_ _134_ VDD VSS gf180mcu_fd_sc_mcu9t5v0__xnor2_2
X_508_ rd_ptr\[3\] _284_ _159_ _207_ _209_ VDD VSS gf180mcu_fd_sc_mcu9t5v0__and4_2
X_509_ rd_ptr\[4\] _209_ _135_ VDD VSS gf180mcu_fd_sc_mcu9t5v0__xor2_2
X_510_ net11 _158_ _210_ VDD VSS gf180mcu_fd_sc_mcu9t5v0__and2_2
X_511_ _000_ _210_ _136_ VDD VSS gf180mcu_fd_sc_mcu9t5v0__xnor2_2
X_512_ wr_ptr\[1\] _001_ _210_ _137_ VDD VSS gf180mcu_fd_sc_mcu9t5v0__mux2_2
X_513_ net11 _291_ _178_ _211_ VDD VSS gf180mcu_fd_sc_mcu9t5v0__and3_2
X_514_ _163_ _211_ _138_ VDD VSS gf180mcu_fd_sc_mcu9t5v0__xnor2_2
X_515_ wr_ptr\[2\] wr_ptr\[0\] _212_ VDD VSS gf180mcu_fd_sc_mcu9t5v0__and2_2
X_516_ net11 wr_ptr\[1\] _178_ _212_ _213_ VDD VSS gf180mcu_fd_sc_mcu9t5v0__and4_2
X_517_ _161_ _213_ _139_ VDD VSS gf180mcu_fd_sc_mcu9t5v0__xnor2_2
X_518_ wr_ptr\[4\] _186_ _140_ VDD VSS gf180mcu_fd_sc_mcu9t5v0__xor2_2
X_519_ _294_ net15 _214_ VDD VSS gf180mcu_fd_sc_mcu9t5v0__xnor2_2
X_520_ _147_ _148_ _154_ _214_ net12 VDD VSS gf180mcu_fd_sc_mcu9t5v0__and4_2
X_521_ _155_ _147_ _148_ _154_ net13 VDD VSS gf180mcu_fd_sc_mcu9t5v0__oai31_4
X_522_ mem\[4\]\[0\] mem\[5\]\[0\] mem\[6\]\[0\] mem\[7\]\[0\]
+ _202_ _204_ _215_ VDD VSS gf180mcu_fd_sc_mcu9t5v0__mux4_2
X_523_ _201_ _216_ VDD VSS gf180mcu_fd_sc_mcu9t5v0__buf_8
X_524_ mem\[0\]\[0\] mem\[1\]\[0\] mem\[2\]\[0\] mem\[3\]\[0\]
+ _216_ rd_ptr\[1\] _217_ VDD VSS gf180mcu_fd_sc_mcu9t5v0__mux4_2
X_525_ _215_ _217_ _281_ _218_ VDD VSS gf180mcu_fd_sc_mcu9t5v0__mux2_2
X_526_ mem\[10\]\[0\] mem\[11\]\[0\] mem\[14\]\[0\] mem\[15\]\[0\]
+ _216_ _206_ _219_ VDD VSS gf180mcu_fd_sc_mcu9t5v0__mux4_2
X_527_ _201_ _220_ VDD VSS gf180mcu_fd_sc_mcu9t5v0__buf_8
X_528_ mem\[8\]\[0\] mem\[9\]\[0\] mem\[12\]\[0\] mem\[13\]\[0\]
+ _220_ _206_ _221_ VDD VSS gf180mcu_fd_sc_mcu9t5v0__mux4_2
X_529_ _219_ _221_ _273_ _222_ VDD VSS gf180mcu_fd_sc_mcu9t5v0__mux2_2
X_530_ _218_ _222_ rd_ptr\[3\] _223_ VDD VSS gf180mcu_fd_sc_mcu9t5v0__mux2_4
X_531_ net29 _223_ net21 VDD VSS gf180mcu_fd_sc_mcu9t5v0__and2_2
X_532_ mem\[4\]\[1\] mem\[5\]\[1\] mem\[6\]\[1\] mem\[7\]\[1\]
+ _202_ _204_ _224_ VDD VSS gf180mcu_fd_sc_mcu9t5v0__mux4_2
X_533_ mem\[0\]\[1\] mem\[1\]\[1\] mem\[2\]\[1\] mem\[3\]\[1\]
+ _216_ rd_ptr\[1\] _225_ VDD VSS gf180mcu_fd_sc_mcu9t5v0__mux4_2
X_534_ _224_ _225_ _281_ _226_ VDD VSS gf180mcu_fd_sc_mcu9t5v0__mux2_2
X_535_ mem\[10\]\[1\] mem\[11\]\[1\] mem\[14\]\[1\] mem\[15\]\[1\]
+ _216_ _206_ _227_ VDD VSS gf180mcu_fd_sc_mcu9t5v0__mux4_2
X_536_ mem\[8\]\[1\] mem\[9\]\[1\] mem\[12\]\[1\] mem\[13\]\[1\]
+ _220_ rd_ptr\[2\] _228_ VDD VSS gf180mcu_fd_sc_mcu9t5v0__mux4_2
X_537_ _227_ _228_ _273_ _229_ VDD VSS gf180mcu_fd_sc_mcu9t5v0__mux2_2
X_538_ _226_ _229_ rd_ptr\[3\] _230_ VDD VSS gf180mcu_fd_sc_mcu9t5v0__mux2_4
X_539_ net29 _230_ net22 VDD VSS gf180mcu_fd_sc_mcu9t5v0__and2_2
X_540_ mem\[12\]\[2\] mem\[13\]\[2\] mem\[14\]\[2\] mem\[15\]\[2\]
+ _202_ _204_ _231_ VDD VSS gf180mcu_fd_sc_mcu9t5v0__mux4_2
X_541_ mem\[8\]\[2\] mem\[9\]\[2\] mem\[10\]\[2\] mem\[11\]\[2\]
+ _216_ rd_ptr\[1\] _232_ VDD VSS gf180mcu_fd_sc_mcu9t5v0__mux4_2
X_542_ _231_ _232_ _281_ _233_ VDD VSS gf180mcu_fd_sc_mcu9t5v0__mux2_2
X_543_ mem\[2\]\[2\] mem\[3\]\[2\] mem\[6\]\[2\] mem\[7\]\[2\]
+ _220_ _206_ _234_ VDD VSS gf180mcu_fd_sc_mcu9t5v0__mux4_2
X_544_ mem\[0\]\[2\] mem\[1\]\[2\] mem\[4\]\[2\] mem\[5\]\[2\]
+ _220_ rd_ptr\[2\] _235_ VDD VSS gf180mcu_fd_sc_mcu9t5v0__mux4_2
X_545_ _234_ _235_ _273_ _236_ VDD VSS gf180mcu_fd_sc_mcu9t5v0__mux2_2
X_546_ _233_ _236_ _276_ _237_ VDD VSS gf180mcu_fd_sc_mcu9t5v0__mux2_4
X_547_ net29 _237_ net23 VDD VSS gf180mcu_fd_sc_mcu9t5v0__and2_2
X_548_ mem\[4\]\[3\] mem\[5\]\[3\] mem\[6\]\[3\] mem\[7\]\[3\]
+ _202_ _204_ _238_ VDD VSS gf180mcu_fd_sc_mcu9t5v0__mux4_2
X_549_ mem\[0\]\[3\] mem\[1\]\[3\] mem\[2\]\[3\] mem\[3\]\[3\]
+ _216_ rd_ptr\[1\] _239_ VDD VSS gf180mcu_fd_sc_mcu9t5v0__mux4_2
X_550_ _238_ _239_ _281_ _240_ VDD VSS gf180mcu_fd_sc_mcu9t5v0__mux2_2
X_551_ mem\[10\]\[3\] mem\[11\]\[3\] mem\[14\]\[3\] mem\[15\]\[3\]
+ _220_ _206_ _241_ VDD VSS gf180mcu_fd_sc_mcu9t5v0__mux4_2
X_552_ mem\[8\]\[3\] mem\[9\]\[3\] mem\[12\]\[3\] mem\[13\]\[3\]
+ _220_ rd_ptr\[2\] _242_ VDD VSS gf180mcu_fd_sc_mcu9t5v0__mux4_2
X_553_ _241_ _242_ _273_ _243_ VDD VSS gf180mcu_fd_sc_mcu9t5v0__mux2_2
X_554_ _240_ _243_ rd_ptr\[3\] _244_ VDD VSS gf180mcu_fd_sc_mcu9t5v0__mux2_4
X_555_ net29 _244_ net24 VDD VSS gf180mcu_fd_sc_mcu9t5v0__and2_2
X_556_ mem\[4\]\[4\] mem\[5\]\[4\] mem\[6\]\[4\] mem\[7\]\[4\]
+ _202_ _204_ _245_ VDD VSS gf180mcu_fd_sc_mcu9t5v0__mux4_2
X_557_ mem\[0\]\[4\] mem\[1\]\[4\] mem\[2\]\[4\] mem\[3\]\[4\]
+ _216_ rd_ptr\[1\] _246_ VDD VSS gf180mcu_fd_sc_mcu9t5v0__mux4_2
X_558_ _245_ _246_ _281_ _247_ VDD VSS gf180mcu_fd_sc_mcu9t5v0__mux2_2
X_559_ mem\[10\]\[4\] mem\[11\]\[4\] mem\[14\]\[4\] mem\[15\]\[4\]
+ _220_ _206_ _248_ VDD VSS gf180mcu_fd_sc_mcu9t5v0__mux4_2
X_560_ mem\[8\]\[4\] mem\[9\]\[4\] mem\[12\]\[4\] mem\[13\]\[4\]
+ _201_ rd_ptr\[2\] _249_ VDD VSS gf180mcu_fd_sc_mcu9t5v0__mux4_2
X_561_ _248_ _249_ _273_ _250_ VDD VSS gf180mcu_fd_sc_mcu9t5v0__mux2_2
X_562_ _247_ _250_ rd_ptr\[3\] _251_ VDD VSS gf180mcu_fd_sc_mcu9t5v0__mux2_2
X_563_ net29 _251_ net25 VDD VSS gf180mcu_fd_sc_mcu9t5v0__and2_4
X_564_ mem\[12\]\[5\] mem\[13\]\[5\] mem\[14\]\[5\] mem\[15\]\[5\]
+ _202_ _204_ _252_ VDD VSS gf180mcu_fd_sc_mcu9t5v0__mux4_2
X_565_ mem\[8\]\[5\] mem\[9\]\[5\] mem\[10\]\[5\] mem\[11\]\[5\]
+ _216_ rd_ptr\[1\] _253_ VDD VSS gf180mcu_fd_sc_mcu9t5v0__mux4_2
X_566_ _252_ _253_ _281_ _254_ VDD VSS gf180mcu_fd_sc_mcu9t5v0__mux2_2
X_567_ mem\[2\]\[5\] mem\[3\]\[5\] mem\[6\]\[5\] mem\[7\]\[5\]
+ _220_ _206_ _255_ VDD VSS gf180mcu_fd_sc_mcu9t5v0__mux4_2
X_568_ mem\[0\]\[5\] mem\[1\]\[5\] mem\[4\]\[5\] mem\[5\]\[5\]
+ _201_ rd_ptr\[2\] _256_ VDD VSS gf180mcu_fd_sc_mcu9t5v0__mux4_2
X_569_ _255_ _256_ _273_ _257_ VDD VSS gf180mcu_fd_sc_mcu9t5v0__mux2_2
X_570_ _254_ _257_ _276_ _258_ VDD VSS gf180mcu_fd_sc_mcu9t5v0__mux2_4
X_571_ net29 _258_ net26 VDD VSS gf180mcu_fd_sc_mcu9t5v0__and2_2
X_572_ mem\[4\]\[6\] mem\[5\]\[6\] mem\[6\]\[6\] mem\[7\]\[6\]
+ _202_ _204_ _259_ VDD VSS gf180mcu_fd_sc_mcu9t5v0__mux4_2
X_573_ mem\[0\]\[6\] mem\[1\]\[6\] mem\[2\]\[6\] mem\[3\]\[6\]
+ _216_ rd_ptr\[1\] _260_ VDD VSS gf180mcu_fd_sc_mcu9t5v0__mux4_2
X_574_ _259_ _260_ _281_ _261_ VDD VSS gf180mcu_fd_sc_mcu9t5v0__mux2_2
X_575_ mem\[10\]\[6\] mem\[11\]\[6\] mem\[14\]\[6\] mem\[15\]\[6\]
+ _220_ _206_ _262_ VDD VSS gf180mcu_fd_sc_mcu9t5v0__mux4_2
X_576_ mem\[8\]\[6\] mem\[9\]\[6\] mem\[12\]\[6\] mem\[13\]\[6\]
+ _201_ rd_ptr\[2\] _263_ VDD VSS gf180mcu_fd_sc_mcu9t5v0__mux4_2
X_577_ _262_ _263_ _273_ _264_ VDD VSS gf180mcu_fd_sc_mcu9t5v0__mux2_2
X_578_ _261_ _264_ rd_ptr\[3\] _265_ VDD VSS gf180mcu_fd_sc_mcu9t5v0__mux2_4
X_579_ net29 _265_ net27 VDD VSS gf180mcu_fd_sc_mcu9t5v0__and2_2
X_580_ mem\[4\]\[7\] mem\[5\]\[7\] mem\[6\]\[7\] mem\[7\]\[7\]
+ _202_ _204_ _266_ VDD VSS gf180mcu_fd_sc_mcu9t5v0__mux4_2
X_581_ mem\[0\]\[7\] mem\[1\]\[7\] mem\[2\]\[7\] mem\[3\]\[7\]
+ _216_ rd_ptr\[1\] _267_ VDD VSS gf180mcu_fd_sc_mcu9t5v0__mux4_2
X_582_ _266_ _267_ _281_ _268_ VDD VSS gf180mcu_fd_sc_mcu9t5v0__mux2_2
X_583_ mem\[10\]\[7\] mem\[11\]\[7\] mem\[14\]\[7\] mem\[15\]\[7\]
+ _220_ _206_ _269_ VDD VSS gf180mcu_fd_sc_mcu9t5v0__mux4_2
X_584_ mem\[8\]\[7\] mem\[9\]\[7\] mem\[12\]\[7\] mem\[13\]\[7\]
+ _201_ rd_ptr\[2\] _270_ VDD VSS gf180mcu_fd_sc_mcu9t5v0__mux4_2
X_585_ _269_ _270_ _273_ _271_ VDD VSS gf180mcu_fd_sc_mcu9t5v0__mux2_2
X_586_ _268_ _271_ rd_ptr\[3\] _272_ VDD VSS gf180mcu_fd_sc_mcu9t5v0__mux2_2
X_587_ net29 _272_ net28 VDD VSS gf180mcu_fd_sc_mcu9t5v0__and2_4
X_588_ _273_ wr_ptr\[1\] _274_ _275_ net15 VDD VSS gf180mcu_fd_sc_mcu9t5v0__addf_4
X_589_ _276_ wr_ptr\[3\] _277_ _278_ VDD VSS gf180mcu_fd_sc_mcu9t5v0__addh_2
X_590_ _273_ wr_ptr\[1\] _279_ _280_ VDD VSS gf180mcu_fd_sc_mcu9t5v0__addh_1
X_591_ _281_ wr_ptr\[2\] _282_ _283_ VDD VSS gf180mcu_fd_sc_mcu9t5v0__addh_2
X_592_ rd_ptr\[0\] rd_ptr\[1\] _284_ _002_ VDD VSS gf180mcu_fd_sc_mcu9t5v0__addh_1
X_593_ _000_ _285_ _286_ _001_ VDD VSS gf180mcu_fd_sc_mcu9t5v0__addh_1
X_594_ _000_ wr_ptr\[1\] _287_ _288_ VDD VSS gf180mcu_fd_sc_mcu9t5v0__addh_1
X_595_ wr_ptr\[0\] _285_ _289_ _290_ VDD VSS gf180mcu_fd_sc_mcu9t5v0__addh_1
X_596_ wr_ptr\[0\] wr_ptr\[1\] _291_ _292_ VDD VSS gf180mcu_fd_sc_mcu9t5v0__addh_2
X_597_ rd_ptr\[0\] _000_ _293_ _294_ VDD VSS gf180mcu_fd_sc_mcu9t5v0__addh_4
Xmem\[0\]\[0\]$_DFFE_PP_ _003_ clknet_4_11_0_clk mem\[0\]\[0\]
+ VDD VSS gf180mcu_fd_sc_mcu9t5v0__dffq_2
Xmem\[0\]\[1\]$_DFFE_PP_ _004_ clknet_4_15_0_clk mem\[0\]\[1\]
+ VDD VSS gf180mcu_fd_sc_mcu9t5v0__dffq_2
Xmem\[0\]\[2\]$_DFFE_PP_ _005_ clknet_4_10_0_clk mem\[0\]\[2\]
+ VDD VSS gf180mcu_fd_sc_mcu9t5v0__dffq_2
Xmem\[0\]\[3\]$_DFFE_PP_ _006_ clknet_4_13_0_clk mem\[0\]\[3\]
+ VDD VSS gf180mcu_fd_sc_mcu9t5v0__dffq_2
Xmem\[0\]\[4\]$_DFFE_PP_ _007_ clknet_4_5_0_clk mem\[0\]\[4\]
+ VDD VSS gf180mcu_fd_sc_mcu9t5v0__dffq_2
Xmem\[0\]\[5\]$_DFFE_PP_ _008_ clknet_4_1_0_clk mem\[0\]\[5\]
+ VDD VSS gf180mcu_fd_sc_mcu9t5v0__dffq_2
Xmem\[0\]\[6\]$_DFFE_PP_ _009_ clknet_4_13_0_clk mem\[0\]\[6\]
+ VDD VSS gf180mcu_fd_sc_mcu9t5v0__dffq_2
Xmem\[0\]\[7\]$_DFFE_PP_ _010_ clknet_4_7_0_clk mem\[0\]\[7\]
+ VDD VSS gf180mcu_fd_sc_mcu9t5v0__dffq_2
Xmem\[10\]\[0\]$_DFFE_PP_ _011_ clknet_4_9_0_clk mem\[10\]\[0\]
+ VDD VSS gf180mcu_fd_sc_mcu9t5v0__dffq_2
Xmem\[10\]\[1\]$_DFFE_PP_ _012_ clknet_4_12_0_clk mem\[10\]\[1\]
+ VDD VSS gf180mcu_fd_sc_mcu9t5v0__dffq_2
Xmem\[10\]\[2\]$_DFFE_PP_ _013_ clknet_4_8_0_clk mem\[10\]\[2\]
+ VDD VSS gf180mcu_fd_sc_mcu9t5v0__dffq_2
Xmem\[10\]\[3\]$_DFFE_PP_ _014_ clknet_4_12_0_clk mem\[10\]\[3\]
+ VDD VSS gf180mcu_fd_sc_mcu9t5v0__dffq_2
Xmem\[10\]\[4\]$_DFFE_PP_ _015_ clknet_4_4_0_clk mem\[10\]\[4\]
+ VDD VSS gf180mcu_fd_sc_mcu9t5v0__dffq_2
Xmem\[10\]\[5\]$_DFFE_PP_ _016_ clknet_4_2_0_clk mem\[10\]\[5\]
+ VDD VSS gf180mcu_fd_sc_mcu9t5v0__dffq_2
Xmem\[10\]\[6\]$_DFFE_PP_ _017_ clknet_4_3_0_clk mem\[10\]\[6\]
+ VDD VSS gf180mcu_fd_sc_mcu9t5v0__dffq_2
Xmem\[10\]\[7\]$_DFFE_PP_ _018_ clknet_4_3_0_clk mem\[10\]\[7\]
+ VDD VSS gf180mcu_fd_sc_mcu9t5v0__dffq_2
Xmem\[11\]\[0\]$_DFFE_PP_ _019_ clknet_4_9_0_clk mem\[11\]\[0\]
+ VDD VSS gf180mcu_fd_sc_mcu9t5v0__dffq_2
Xmem\[11\]\[1\]$_DFFE_PP_ _020_ clknet_4_12_0_clk mem\[11\]\[1\]
+ VDD VSS gf180mcu_fd_sc_mcu9t5v0__dffq_2
Xmem\[11\]\[2\]$_DFFE_PP_ _021_ clknet_4_8_0_clk mem\[11\]\[2\]
+ VDD VSS gf180mcu_fd_sc_mcu9t5v0__dffq_2
Xmem\[11\]\[3\]$_DFFE_PP_ _022_ clknet_4_12_0_clk mem\[11\]\[3\]
+ VDD VSS gf180mcu_fd_sc_mcu9t5v0__dffq_2
Xmem\[11\]\[4\]$_DFFE_PP_ _023_ clknet_4_4_0_clk mem\[11\]\[4\]
+ VDD VSS gf180mcu_fd_sc_mcu9t5v0__dffq_2
Xmem\[11\]\[5\]$_DFFE_PP_ _024_ clknet_4_2_0_clk mem\[11\]\[5\]
+ VDD VSS gf180mcu_fd_sc_mcu9t5v0__dffq_2
Xmem\[11\]\[6\]$_DFFE_PP_ _025_ clknet_4_9_0_clk mem\[11\]\[6\]
+ VDD VSS gf180mcu_fd_sc_mcu9t5v0__dffq_2
Xmem\[11\]\[7\]$_DFFE_PP_ _026_ clknet_4_3_0_clk mem\[11\]\[7\]
+ VDD VSS gf180mcu_fd_sc_mcu9t5v0__dffq_2
Xmem\[12\]\[0\]$_DFFE_PP_ _027_ clknet_4_10_0_clk mem\[12\]\[0\]
+ VDD VSS gf180mcu_fd_sc_mcu9t5v0__dffq_2
Xmem\[12\]\[1\]$_DFFE_PP_ _028_ clknet_4_11_0_clk mem\[12\]\[1\]
+ VDD VSS gf180mcu_fd_sc_mcu9t5v0__dffq_2
Xmem\[12\]\[2\]$_DFFE_PP_ _029_ clknet_4_8_0_clk mem\[12\]\[2\]
+ VDD VSS gf180mcu_fd_sc_mcu9t5v0__dffq_2
Xmem\[12\]\[3\]$_DFFE_PP_ _030_ clknet_4_14_0_clk mem\[12\]\[3\]
+ VDD VSS gf180mcu_fd_sc_mcu9t5v0__dffq_2
Xmem\[12\]\[4\]$_DFFE_PP_ _031_ clknet_4_4_0_clk mem\[12\]\[4\]
+ VDD VSS gf180mcu_fd_sc_mcu9t5v0__dffq_2
Xmem\[12\]\[5\]$_DFFE_PP_ _032_ clknet_4_3_0_clk mem\[12\]\[5\]
+ VDD VSS gf180mcu_fd_sc_mcu9t5v0__dffq_2
Xmem\[12\]\[6\]$_DFFE_PP_ _033_ clknet_4_6_0_clk mem\[12\]\[6\]
+ VDD VSS gf180mcu_fd_sc_mcu9t5v0__dffq_2
Xmem\[12\]\[7\]$_DFFE_PP_ _034_ clknet_4_6_0_clk mem\[12\]\[7\]
+ VDD VSS gf180mcu_fd_sc_mcu9t5v0__dffq_2
Xmem\[13\]\[0\]$_DFFE_PP_ _035_ clknet_4_10_0_clk mem\[13\]\[0\]
+ VDD VSS gf180mcu_fd_sc_mcu9t5v0__dffq_2
Xmem\[13\]\[1\]$_DFFE_PP_ _036_ clknet_4_11_0_clk mem\[13\]\[1\]
+ VDD VSS gf180mcu_fd_sc_mcu9t5v0__dffq_2
Xmem\[13\]\[2\]$_DFFE_PP_ _037_ clknet_4_9_0_clk mem\[13\]\[2\]
+ VDD VSS gf180mcu_fd_sc_mcu9t5v0__dffq_2
Xmem\[13\]\[3\]$_DFFE_PP_ _038_ clknet_4_14_0_clk mem\[13\]\[3\]
+ VDD VSS gf180mcu_fd_sc_mcu9t5v0__dffq_2
Xmem\[13\]\[4\]$_DFFE_PP_ _039_ clknet_4_4_0_clk mem\[13\]\[4\]
+ VDD VSS gf180mcu_fd_sc_mcu9t5v0__dffq_2
Xmem\[13\]\[5\]$_DFFE_PP_ _040_ clknet_4_3_0_clk mem\[13\]\[5\]
+ VDD VSS gf180mcu_fd_sc_mcu9t5v0__dffq_2
Xmem\[13\]\[6\]$_DFFE_PP_ _041_ clknet_4_6_0_clk mem\[13\]\[6\]
+ VDD VSS gf180mcu_fd_sc_mcu9t5v0__dffq_2
Xmem\[13\]\[7\]$_DFFE_PP_ _042_ clknet_4_6_0_clk mem\[13\]\[7\]
+ VDD VSS gf180mcu_fd_sc_mcu9t5v0__dffq_2
Xmem\[14\]\[0\]$_DFFE_PP_ _043_ clknet_4_8_0_clk mem\[14\]\[0\]
+ VDD VSS gf180mcu_fd_sc_mcu9t5v0__dffq_2
Xmem\[14\]\[1\]$_DFFE_PP_ _044_ clknet_4_12_0_clk mem\[14\]\[1\]
+ VDD VSS gf180mcu_fd_sc_mcu9t5v0__dffq_2
Xmem\[14\]\[2\]$_DFFE_PP_ _045_ clknet_4_8_0_clk mem\[14\]\[2\]
+ VDD VSS gf180mcu_fd_sc_mcu9t5v0__dffq_2
Xmem\[14\]\[3\]$_DFFE_PP_ _046_ clknet_4_12_0_clk mem\[14\]\[3\]
+ VDD VSS gf180mcu_fd_sc_mcu9t5v0__dffq_2
Xmem\[14\]\[4\]$_DFFE_PP_ _047_ clknet_4_1_0_clk mem\[14\]\[4\]
+ VDD VSS gf180mcu_fd_sc_mcu9t5v0__dffq_2
Xmem\[14\]\[5\]$_DFFE_PP_ _048_ clknet_4_2_0_clk mem\[14\]\[5\]
+ VDD VSS gf180mcu_fd_sc_mcu9t5v0__dffq_2
Xmem\[14\]\[6\]$_DFFE_PP_ _049_ clknet_4_9_0_clk mem\[14\]\[6\]
+ VDD VSS gf180mcu_fd_sc_mcu9t5v0__dffq_2
Xmem\[14\]\[7\]$_DFFE_PP_ _050_ clknet_4_3_0_clk mem\[14\]\[7\]
+ VDD VSS gf180mcu_fd_sc_mcu9t5v0__dffq_2
Xmem\[15\]\[0\]$_DFFE_PP_ _051_ clknet_4_8_0_clk mem\[15\]\[0\]
+ VDD VSS gf180mcu_fd_sc_mcu9t5v0__dffq_2
Xmem\[15\]\[1\]$_DFFE_PP_ _052_ clknet_4_12_0_clk mem\[15\]\[1\]
+ VDD VSS gf180mcu_fd_sc_mcu9t5v0__dffq_2
Xmem\[15\]\[2\]$_DFFE_PP_ _053_ clknet_4_8_0_clk mem\[15\]\[2\]
+ VDD VSS gf180mcu_fd_sc_mcu9t5v0__dffq_2
Xmem\[15\]\[3\]$_DFFE_PP_ _054_ clknet_4_12_0_clk mem\[15\]\[3\]