
* cell showahead_fifo
* pin rst_n
* pin wr_en
* pin wr_data[5]
* pin full
* pin data_count[4]
* pin data_count[1]
* pin data_count[3]
* pin almost_full
* pin data_count[2]
* pin almost_empty
* pin data_count[0]
* pin rd_en
* pin wr_data[4]
* pin rd_data[4]
* pin wr_data[7]
* pin rd_data[7]
* pin wr_data[6]
* pin clk
* pin wr_data[2]
* pin rd_data[2]
* pin rd_data[5]
* pin rd_data[6]
* pin empty
* pin valid
* pin wr_data[3]
* pin wr_data[1]
* pin rd_data[0]
* pin rd_data[1]
* pin wr_data[0]
* pin rd_data[3]
* pin NWELL
* pin PWELL,gf180mcu_gnd
.SUBCKT showahead_fifo 1 2 3 4 5 6 7 8 9 10 11 83 84 118 164 165 215 288 496
+ 497 498 499 500 501 502 503 504 505 506 507 508 509
* net 1 rst_n
* net 2 wr_en
* net 3 wr_data[5]
* net 4 full
* net 5 data_count[4]
* net 6 data_count[1]
* net 7 data_count[3]
* net 8 almost_full
* net 9 data_count[2]
* net 10 almost_empty
* net 11 data_count[0]
* net 83 rd_en
* net 84 wr_data[4]
* net 118 rd_data[4]
* net 164 wr_data[7]
* net 165 rd_data[7]
* net 215 wr_data[6]
* net 288 clk
* net 496 wr_data[2]
* net 497 rd_data[2]
* net 498 rd_data[5]
* net 499 rd_data[6]
* net 500 empty
* net 501 valid
* net 502 wr_data[3]
* net 503 wr_data[1]
* net 504 rd_data[0]
* net 505 rd_data[1]
* net 506 wr_data[0]
* net 507 rd_data[3]
* net 508 NWELL
* net 509 PWELL,gf180mcu_gnd
* cell instance $7 r0 *1 1018.08,488.88
X$7 509 26 1 508 gf180mcu_fd_sc_mcu9t5v0__dlyc_2
* cell instance $11 r0 *1 1036.56,5.04
X$11 509 2 15 508 gf180mcu_fd_sc_mcu9t5v0__clkbuf_8
* cell instance $15 r0 *1 1056.72,5.04
X$15 509 3 190 508 gf180mcu_fd_sc_mcu9t5v0__clkbuf_8
* cell instance $19 m0 *1 1060.08,15.12
X$19 16 508 509 4 gf180mcu_fd_sc_mcu9t5v0__dlyb_2
* cell instance $23 r0 *1 1117.2,5.04
X$23 17 508 509 5 gf180mcu_fd_sc_mcu9t5v0__dlyb_2
* cell instance $27 m0 *1 1120,15.12
X$27 20 508 509 6 gf180mcu_fd_sc_mcu9t5v0__dlyb_2
* cell instance $31 r0 *1 1134,5.04
X$31 13 508 509 7 gf180mcu_fd_sc_mcu9t5v0__dlyb_2
* cell instance $35 m0 *1 1140.16,15.12
X$35 25 508 509 8 gf180mcu_fd_sc_mcu9t5v0__dlyb_2
* cell instance $39 r0 *1 1125.6,5.04
X$39 12 508 509 9 gf180mcu_fd_sc_mcu9t5v0__dlyb_2
* cell instance $43 r0 *1 1142.4,5.04
X$43 14 508 509 10 gf180mcu_fd_sc_mcu9t5v0__dlyb_2
* cell instance $47 r0 *1 1122.8,15.12
X$47 18 508 509 11 gf180mcu_fd_sc_mcu9t5v0__dlyb_2
* cell instance $51 m0 *1 1128.4,15.12
X$51 509 508 19 12 gf180mcu_fd_sc_mcu9t5v0__clkinv_2
* cell instance $54 m0 *1 1134,15.12
X$54 509 508 22 13 gf180mcu_fd_sc_mcu9t5v0__clkinv_2
* cell instance $57 r0 *1 1135.68,15.12
X$57 22 19 23 24 509 508 14 gf180mcu_fd_sc_mcu9t5v0__and4_2
* cell instance $59 m0 *1 1064.56,1013.04
X$59 15 508 71 58 509 72 gf180mcu_fd_sc_mcu9t5v0__and3_2
* cell instance $68 r0 *1 1060.64,992.88
X$68 508 15 28 509 49 gf180mcu_fd_sc_mcu9t5v0__and2_2
* cell instance $72 m0 *1 1090.32,992.88
X$72 15 50 58 52 509 508 70 gf180mcu_fd_sc_mcu9t5v0__and4_2
* cell instance $74 r0 *1 1092.56,992.88
X$74 508 15 53 509 55 gf180mcu_fd_sc_mcu9t5v0__and2_2
* cell instance $77 r0 *1 1098.72,992.88
X$77 508 15 54 509 56 gf180mcu_fd_sc_mcu9t5v0__and2_2
* cell instance $80 r0 *1 1059.52,952.56
X$80 509 508 28 16 gf180mcu_fd_sc_mcu9t5v0__inv_4
* cell instance $83 r0 *1 1116.64,15.12
X$83 509 508 23 17 gf180mcu_fd_sc_mcu9t5v0__clkinv_2
* cell instance $87 m0 *1 1122.24,25.2
X$87 509 508 21 18 gf180mcu_fd_sc_mcu9t5v0__clkinv_2
* cell instance $89 r0 *1 1135.12,972.72
X$89 509 19 42 39 508 gf180mcu_fd_sc_mcu9t5v0__xnor2_4
* cell instance $107 r0 *1 1131.76,942.48
X$107 21 508 27 19 509 31 gf180mcu_fd_sc_mcu9t5v0__and3_2
* cell instance $109 r0 *1 1128.96,932.4
X$109 509 19 23 25 22 27 508 gf180mcu_fd_sc_mcu9t5v0__oai31_4
* cell instance $115 m0 *1 1129.52,25.2
X$115 508 21 20 509 24 gf180mcu_fd_sc_mcu9t5v0__xnor2_2
* cell instance $118 m0 *1 1128.96,942.48
X$118 509 508 20 27 gf180mcu_fd_sc_mcu9t5v0__clkinv_2
* cell instance $120 r0 *1 1130.08,982.8
X$120 509 61 20 50 67 42 508 gf180mcu_fd_sc_mcu9t5v0__addf_4
* cell instance $123 r0 *1 1112.72,992.88
X$123 509 21 106 69 59 508 gf180mcu_fd_sc_mcu9t5v0__addh_4
* cell instance $129 r0 *1 1137.92,942.48
X$129 509 32 33 508 22 gf180mcu_fd_sc_mcu9t5v0__or2_4
* cell instance $137 m0 *1 1134.56,952.56
X$137 509 108 32 33 23 31 508 gf180mcu_fd_sc_mcu9t5v0__oai211_4
* cell instance $146 r0 *1 1123.36,952.56
X$146 509 508 36 30 23 gf180mcu_fd_sc_mcu9t5v0__nor2_4
* cell instance $156 r0 *1 1020.32,972.72
X$156 509 508 26 47 gf180mcu_fd_sc_mcu9t5v0__buf_4
* cell instance $174 m0 *1 1092,1053.36
X$174 151 55 28 509 508 170 gf180mcu_fd_sc_mcu9t5v0__and3_4
* cell instance $177 r0 *1 1100.96,1053.36
X$177 151 56 28 509 508 173 gf180mcu_fd_sc_mcu9t5v0__and3_4
* cell instance $179 m0 *1 1105.44,1053.36
X$179 146 55 28 509 508 175 gf180mcu_fd_sc_mcu9t5v0__and3_4
* cell instance $182 m0 *1 1101.52,1063.44
X$182 56 146 28 509 508 181 gf180mcu_fd_sc_mcu9t5v0__and3_4
* cell instance $184 m0 *1 1103.76,962.64
X$184 509 508 29 28 gf180mcu_fd_sc_mcu9t5v0__buf_4
* cell instance $186 r0 *1 1067.92,1053.36
X$186 149 56 28 509 508 253 gf180mcu_fd_sc_mcu9t5v0__and3_4
* cell instance $188 r0 *1 1078,1043.28
X$188 150 55 28 509 508 169 gf180mcu_fd_sc_mcu9t5v0__and3_4
* cell instance $190 m0 *1 1074.64,1053.36
X$190 150 56 28 509 508 192 gf180mcu_fd_sc_mcu9t5v0__and3_4
* cell instance $193 m0 *1 1063.44,1053.36
X$193 149 55 28 509 508 168 gf180mcu_fd_sc_mcu9t5v0__and3_4
* cell instance $196 m0 *1 1122.24,962.64
X$196 509 31 29 30 36 32 33 508 gf180mcu_fd_sc_mcu9t5v0__oai221_4
* cell instance $201 m0 *1 1101.52,972.72
X$201 509 29 58 508 gf180mcu_fd_sc_mcu9t5v0__clkbuf_8
* cell instance $205 m0 *1 1122.8,972.72
X$205 509 30 35 37 40 508 gf180mcu_fd_sc_mcu9t5v0__aoi21_4
* cell instance $216 m0 *1 1132.88,982.8
X$216 509 32 41 43 34 508 gf180mcu_fd_sc_mcu9t5v0__aoi21_4
* cell instance $218 m0 *1 1138.48,972.72
X$218 34 508 41 43 509 33 gf180mcu_fd_sc_mcu9t5v0__and3_2
* cell instance $225 r0 *1 1120.56,972.72
X$225 509 45 508 37 38 34 gf180mcu_fd_sc_mcu9t5v0__aoi21_2
* cell instance $228 r0 *1 1127.84,972.72
X$228 509 35 34 508 39 42 gf180mcu_fd_sc_mcu9t5v0__nand3_2
* cell instance $231 m0 *1 1113.28,982.8
X$231 509 45 34 44 54 508 gf180mcu_fd_sc_mcu9t5v0__addh_2
* cell instance $240 r0 *1 1125.6,962.64
X$240 35 508 37 40 509 36 gf180mcu_fd_sc_mcu9t5v0__and3_2
* cell instance $252 m0 *1 1127.28,982.8
X$252 509 39 38 508 43 gf180mcu_fd_sc_mcu9t5v0__or2_2
* cell instance $255 m0 *1 1122.24,1002.96
X$255 509 38 39 75 74 508 gf180mcu_fd_sc_mcu9t5v0__addh_2
* cell instance $261 m0 *1 1131.2,992.88
X$261 509 508 60 62 38 gf180mcu_fd_sc_mcu9t5v0__nor2_2
* cell instance $273 r0 *1 1158.08,992.88
X$273 508 64 63 509 40 gf180mcu_fd_sc_mcu9t5v0__xnor2_2
* cell instance $282 r0 *1 1134,992.88
X$282 508 60 509 59 41 65 gf180mcu_fd_sc_mcu9t5v0__oai21_2
* cell instance $296 r0 *1 1115.52,1113.84
X$296 509 508 370 251 44 286 gf180mcu_fd_sc_mcu9t5v0__mux2_4
* cell instance $299 r0 *1 1105.44,1174.32
X$299 509 508 357 391 44 360 gf180mcu_fd_sc_mcu9t5v0__mux2_4
* cell instance $310 m0 *1 1158.64,1053.36
X$310 508 44 171 509 132 gf180mcu_fd_sc_mcu9t5v0__xnor2_2
* cell instance $313 r0 *1 1154.16,1144.08
X$313 509 508 133 44 gf180mcu_fd_sc_mcu9t5v0__clkinv_4
* cell instance $324 r0 *1 1066.24,1013.04
X$324 509 47 74 46 88 508 gf180mcu_fd_sc_mcu9t5v0__dffrnq_2
* cell instance $326 m0 *1 1066.8,992.88
X$326 509 47 51 46 48 508 gf180mcu_fd_sc_mcu9t5v0__dffrnq_2
* cell instance $328 r0 *1 1055.6,982.8
X$328 509 47 50 46 68 508 gf180mcu_fd_sc_mcu9t5v0__dffrnq_2
* cell instance $331 m0 *1 1129.52,1033.2
X$331 509 47 106 46 107 508 gf180mcu_fd_sc_mcu9t5v0__dffrnq_2
* cell instance $333 m0 *1 1123.92,1053.36
X$333 509 152 46 508 gf180mcu_fd_sc_mcu9t5v0__clkbuf_20
* cell instance $336 r0 *1 1123.92,1043.28
X$336 509 508 46 516 gf180mcu_fd_sc_mcu9t5v0__inv_4
* cell instance $338 r0 *1 1128.96,1073.52
X$338 509 198 46 199 508 gf180mcu_fd_sc_mcu9t5v0__dffq_2
* cell instance $340 r0 *1 1098.72,982.8
X$340 509 47 54 46 57 508 gf180mcu_fd_sc_mcu9t5v0__dffrnq_2
* cell instance $347 m0 *1 1159.76,1013.04
X$347 509 47 64 77 78 508 gf180mcu_fd_sc_mcu9t5v0__dffrnq_2
* cell instance $349 m0 *1 1151.36,1002.96
X$349 509 47 63 77 87 508 gf180mcu_fd_sc_mcu9t5v0__dffrnq_2
* cell instance $368 r0 *1 1142.96,1053.36
X$368 509 47 153 77 172 508 gf180mcu_fd_sc_mcu9t5v0__dffrnq_4
* cell instance $370 m0 *1 1163.68,1043.28
X$370 509 47 133 77 132 508 gf180mcu_fd_sc_mcu9t5v0__dffrnq_4
* cell instance $373 r0 *1 1169.28,1023.12
X$373 509 47 110 77 123 508 gf180mcu_fd_sc_mcu9t5v0__dffrnq_4
* cell instance $375 r0 *1 1065.68,992.88
X$375 508 69 49 509 48 gf180mcu_fd_sc_mcu9t5v0__xnor2_2
* cell instance $380 m0 *1 1064.56,1002.96
X$380 509 508 68 85 49 50 gf180mcu_fd_sc_mcu9t5v0__mux2_2
* cell instance $385 r0 *1 1083.04,1002.96
X$385 509 71 512 51 50 508 gf180mcu_fd_sc_mcu9t5v0__addh_2
* cell instance $393 m0 *1 1075.76,1002.96
X$393 89 509 508 69 50 510 gf180mcu_fd_sc_mcu9t5v0__addh_1
* cell instance $398 r0 *1 1144.08,992.88
X$398 62 509 508 61 50 66 gf180mcu_fd_sc_mcu9t5v0__addh_1
* cell instance $401 m0 *1 1104.88,1002.96
X$401 509 508 50 73 gf180mcu_fd_sc_mcu9t5v0__clkinv_2
* cell instance $411 r0 *1 1088.64,992.88
X$411 509 508 51 69 gf180mcu_fd_sc_mcu9t5v0__inv_2
* cell instance $413 m0 *1 1090.32,1002.96
X$413 508 74 51 509 52 gf180mcu_fd_sc_mcu9t5v0__and2_2
* cell instance $415 r0 *1 1098.72,1002.96
X$415 86 509 508 51 73 511 gf180mcu_fd_sc_mcu9t5v0__addh_1
* cell instance $420 r0 *1 1094.24,982.8
X$420 509 508 54 53 gf180mcu_fd_sc_mcu9t5v0__clkinv_2
* cell instance $425 m0 *1 1097.6,992.88
X$425 508 53 70 509 57 gf180mcu_fd_sc_mcu9t5v0__xnor2_2
* cell instance $434 m0 *1 1100.4,1033.2
X$434 74 86 58 55 509 508 105 gf180mcu_fd_sc_mcu9t5v0__and4_2
* cell instance $446 m0 *1 1069.04,1023.12
X$446 74 89 58 55 509 508 102 gf180mcu_fd_sc_mcu9t5v0__and4_2
* cell instance $448 r0 *1 1100.96,1033.2
X$448 74 90 58 55 509 508 147 gf180mcu_fd_sc_mcu9t5v0__and4_2
* cell instance $453 m0 *1 1064,1033.2
X$453 74 71 58 55 509 508 144 gf180mcu_fd_sc_mcu9t5v0__and4_2
* cell instance $469 m0 *1 1075.76,1043.28
X$469 74 89 58 56 509 508 186 gf180mcu_fd_sc_mcu9t5v0__and4_2
* cell instance $473 r0 *1 1101.52,1013.04
X$473 74 86 58 56 509 508 99 gf180mcu_fd_sc_mcu9t5v0__and4_2
* cell instance $475 m0 *1 1098.72,1023.12
X$475 74 90 58 56 509 508 100 gf180mcu_fd_sc_mcu9t5v0__and4_2
* cell instance $477 m0 *1 1089.76,1023.12
X$477 74 71 58 56 509 508 101 gf180mcu_fd_sc_mcu9t5v0__and4_2
* cell instance $511 m0 *1 1121.68,992.88
X$511 509 508 59 67 gf180mcu_fd_sc_mcu9t5v0__clkinv_2
* cell instance $515 m0 *1 1141.28,1224.72
X$515 509 508 410 428 61 396 gf180mcu_fd_sc_mcu9t5v0__mux2_2
* cell instance $517 m0 *1 1201.76,1214.64
X$517 509 508 414 415 61 344 gf180mcu_fd_sc_mcu9t5v0__mux2_2
* cell instance $520 r0 *1 1200.08,1204.56
X$520 509 508 412 413 61 378 gf180mcu_fd_sc_mcu9t5v0__mux2_2
* cell instance $523 m0 *1 1204,1033.2
X$523 509 508 115 122 61 145 gf180mcu_fd_sc_mcu9t5v0__mux2_2
* cell instance $525 m0 *1 1125.04,1093.68
X$525 509 508 251 197 61 238 gf180mcu_fd_sc_mcu9t5v0__mux2_2
* cell instance $527 r0 *1 1109.36,1194.48
X$527 509 508 391 392 61 389 gf180mcu_fd_sc_mcu9t5v0__mux2_2
* cell instance $542 m0 *1 1210.72,1134
X$542 509 508 314 297 61 313 gf180mcu_fd_sc_mcu9t5v0__mux2_2
* cell instance $544 m0 *1 1206.8,1083.6
X$544 509 508 208 231 61 240 gf180mcu_fd_sc_mcu9t5v0__mux2_2
* cell instance $550 r0 *1 1131.2,1184.4
X$550 509 508 153 61 gf180mcu_fd_sc_mcu9t5v0__clkinv_8
* cell instance $556 r0 *1 1154.16,1002.96
X$556 63 509 124 508 87 gf180mcu_fd_sc_mcu9t5v0__xor2_2
* cell instance $562 r0 *1 1158.64,1013.04
X$562 64 509 92 508 78 gf180mcu_fd_sc_mcu9t5v0__xor2_2
* cell instance $571 m0 *1 1148.56,992.88
X$571 509 508 66 65 gf180mcu_fd_sc_mcu9t5v0__clkinv_2
* cell instance $594 m0 *1 1095.36,1002.96
X$594 90 509 508 69 73 85 gf180mcu_fd_sc_mcu9t5v0__addh_1
* cell instance $607 r0 *1 1066.8,1043.28
X$607 508 103 71 509 149 gf180mcu_fd_sc_mcu9t5v0__and2_2
* cell instance $610 m0 *1 1059.52,1023.12
X$610 508 103 72 509 88 gf180mcu_fd_sc_mcu9t5v0__xnor2_2
* cell instance $637 m0 *1 1076.88,1033.2
X$637 509 508 74 103 gf180mcu_fd_sc_mcu9t5v0__clkinv_2
* cell instance $645 m0 *1 1248.24,1134
X$645 509 508 310 301 75 308 gf180mcu_fd_sc_mcu9t5v0__mux2_2
* cell instance $647 m0 *1 1246.56,1043.28
X$647 509 508 142 134 75 135 gf180mcu_fd_sc_mcu9t5v0__mux2_2
* cell instance $649 r0 *1 1250.48,1073.52
X$649 509 508 217 209 75 216 gf180mcu_fd_sc_mcu9t5v0__mux2_2
* cell instance $651 m0 *1 1112.72,1174.32
X$651 509 508 360 366 75 367 gf180mcu_fd_sc_mcu9t5v0__mux2_2
* cell instance $653 r0 *1 1232,1204.56
X$653 509 508 422 383 75 401 gf180mcu_fd_sc_mcu9t5v0__mux2_2
* cell instance $656 m0 *1 1252.72,1224.72
X$656 509 508 444 436 75 443 gf180mcu_fd_sc_mcu9t5v0__mux2_2
* cell instance $667 r0 *1 1126.16,1113.84
X$667 509 508 286 284 75 266 gf180mcu_fd_sc_mcu9t5v0__mux2_2
* cell instance $669 m0 *1 1164.8,1033.2
X$669 508 75 109 509 123 gf180mcu_fd_sc_mcu9t5v0__xnor2_2
* cell instance $672 m0 *1 1177.12,1033.2
X$672 509 508 110 75 gf180mcu_fd_sc_mcu9t5v0__clkinv_8
* cell instance $676 r0 *1 1152.48,1214.64
X$676 509 508 445 411 75 429 gf180mcu_fd_sc_mcu9t5v0__mux2_2
* cell instance $682 r0 *1 1179.92,1224.72
X$682 509 508 458 323 76 430 gf180mcu_fd_sc_mcu9t5v0__mux2_2
* cell instance $684 m0 *1 1198.4,1083.6
X$684 509 508 206 204 76 230 gf180mcu_fd_sc_mcu9t5v0__mux2_2
* cell instance $686 m0 *1 1132.88,1244.88
X$686 509 508 477 336 76 461 gf180mcu_fd_sc_mcu9t5v0__mux2_2
* cell instance $688 m0 *1 1198.4,1244.88
X$688 509 508 479 361 76 455 gf180mcu_fd_sc_mcu9t5v0__mux2_2
* cell instance $690 r0 *1 1131.2,1144.08
X$690 509 508 321 290 76 319 gf180mcu_fd_sc_mcu9t5v0__mux2_2
* cell instance $692 r0 *1 1142.4,1093.68
X$692 509 508 243 202 76 244 gf180mcu_fd_sc_mcu9t5v0__mux2_2
* cell instance $695 m0 *1 1198.4,1013.04
X$695 509 508 79 80 76 81 gf180mcu_fd_sc_mcu9t5v0__mux2_2
* cell instance $697 r0 *1 1120.56,1013.04
X$697 509 99 76 508 gf180mcu_fd_sc_mcu9t5v0__clkbuf_8
* cell instance $720 m0 *1 1199.52,1144.08
X$720 509 508 316 274 76 287 gf180mcu_fd_sc_mcu9t5v0__mux2_2
* cell instance $722 r0 *1 1149.12,1043.28
X$722 509 152 77 508 gf180mcu_fd_sc_mcu9t5v0__clkbuf_20
* cell instance $728 r0 *1 1177.68,1053.36
X$728 509 178 77 176 508 gf180mcu_fd_sc_mcu9t5v0__dffq_2
* cell instance $730 m0 *1 1178.24,1053.36
X$730 509 177 77 154 508 gf180mcu_fd_sc_mcu9t5v0__dffq_2
* cell instance $732 m0 *1 1147.44,1063.44
X$732 509 508 77 gf180mcu_fd_sc_mcu9t5v0__inv_3
* cell instance $747 m0 *1 1132.88,1073.52
X$747 509 200 77 201 508 gf180mcu_fd_sc_mcu9t5v0__dffq_2
* cell instance $752 r0 *1 1193.92,1013.04
X$752 509 81 93 79 508 gf180mcu_fd_sc_mcu9t5v0__dffq_2
* cell instance $755 m0 *1 1206.24,1053.36
X$755 509 508 155 80 192 179 gf180mcu_fd_sc_mcu9t5v0__mux2_2
* cell instance $757 m0 *1 1214.64,1053.36
X$757 509 508 156 80 253 157 gf180mcu_fd_sc_mcu9t5v0__mux2_2
* cell instance $759 r0 *1 1183.84,1063.44
X$759 509 508 154 80 92 177 gf180mcu_fd_sc_mcu9t5v0__mux2_2
* cell instance $761 m0 *1 1184.4,1063.44
X$761 509 508 176 80 187 178 gf180mcu_fd_sc_mcu9t5v0__mux2_2
* cell instance $763 r0 *1 1195.6,1023.12
X$763 509 508 94 80 91 112 gf180mcu_fd_sc_mcu9t5v0__mux2_2
* cell instance $766 r0 *1 1252.72,1043.28
X$766 509 508 160 80 175 161 gf180mcu_fd_sc_mcu9t5v0__mux2_2
* cell instance $769 r0 *1 1229.2,1063.44
X$769 509 508 180 80 169 167 gf180mcu_fd_sc_mcu9t5v0__mux2_2
* cell instance $772 r0 *1 1237.6,1063.44
X$772 509 508 182 80 168 158 gf180mcu_fd_sc_mcu9t5v0__mux2_2
* cell instance $776 r0 *1 1261.12,1043.28
X$776 509 508 162 80 170 163 gf180mcu_fd_sc_mcu9t5v0__mux2_2
* cell instance $789 m0 *1 1247.68,1033.2
X$789 509 508 114 80 gf180mcu_fd_sc_mcu9t5v0__clkbuf_3
* cell instance $791 r0 *1 1204,1023.12
X$791 509 122 110 96 112 113 81 97 508 gf180mcu_fd_sc_mcu9t5v0__mux4_2
* cell instance $798 r0 *1 1156.4,1033.2
X$798 82 508 129 108 509 109 gf180mcu_fd_sc_mcu9t5v0__and3_2
* cell instance $800 r0 *1 1144.64,1033.2
X$800 508 82 127 509 131 gf180mcu_fd_sc_mcu9t5v0__and2_2
* cell instance $803 r0 *1 1149.68,1033.2
X$803 509 508 82 126 108 gf180mcu_fd_sc_mcu9t5v0__nand2_2
* cell instance $806 r0 *1 2148.16,1002.96
X$806 509 83 82 508 gf180mcu_fd_sc_mcu9t5v0__clkbuf_8
* cell instance $812 m0 *1 2148.16,1013.04
X$812 509 84 114 508 gf180mcu_fd_sc_mcu9t5v0__clkbuf_8
* cell instance $822 r0 *1 1098.72,1043.28
X$822 508 103 86 509 151 gf180mcu_fd_sc_mcu9t5v0__and2_2
* cell instance $831 r0 *1 1072.96,1043.28
X$831 508 103 89 509 150 gf180mcu_fd_sc_mcu9t5v0__and2_2
* cell instance $842 m0 *1 1098.16,1043.28
X$842 508 103 90 509 146 gf180mcu_fd_sc_mcu9t5v0__and2_2
* cell instance $847 m0 *1 1188.88,1083.6
X$847 509 508 205 204 91 229 gf180mcu_fd_sc_mcu9t5v0__mux2_2
* cell instance $849 r0 *1 1124.48,1244.88
X$849 509 508 476 336 91 457 gf180mcu_fd_sc_mcu9t5v0__mux2_2
* cell instance $851 m0 *1 1121.12,1023.12
X$851 509 100 91 508 gf180mcu_fd_sc_mcu9t5v0__clkbuf_8
* cell instance $853 m0 *1 1188.88,1224.72
X$853 509 508 446 323 91 431 gf180mcu_fd_sc_mcu9t5v0__mux2_2
* cell instance $855 r0 *1 1187.76,1234.8
X$855 509 508 464 361 91 453 gf180mcu_fd_sc_mcu9t5v0__mux2_2
* cell instance $857 m0 *1 1188.88,1123.92
X$857 509 508 275 274 91 276 gf180mcu_fd_sc_mcu9t5v0__mux2_2
* cell instance $859 r0 *1 1123.92,1134
X$859 509 508 289 290 91 320 gf180mcu_fd_sc_mcu9t5v0__mux2_2
* cell instance $861 m0 *1 1142.4,1103.76
X$861 509 508 256 202 91 257 gf180mcu_fd_sc_mcu9t5v0__mux2_2
* cell instance $876 m0 *1 1150.8,1134
X$876 509 508 311 274 92 292 gf180mcu_fd_sc_mcu9t5v0__mux2_2
* cell instance $878 r0 *1 1183.84,1174.32
X$878 509 508 368 361 92 376 gf180mcu_fd_sc_mcu9t5v0__mux2_2
* cell instance $880 m0 *1 1183.84,1164.24
X$880 509 508 342 323 92 343 gf180mcu_fd_sc_mcu9t5v0__mux2_2
* cell instance $883 r0 *1 1110.48,1154.16
X$883 509 508 352 290 92 331 gf180mcu_fd_sc_mcu9t5v0__mux2_2
* cell instance $885 r0 *1 1127.84,1103.76
X$885 509 508 265 202 92 255 gf180mcu_fd_sc_mcu9t5v0__mux2_2
* cell instance $887 m0 *1 1137.92,1164.24
X$887 509 508 334 336 92 337 gf180mcu_fd_sc_mcu9t5v0__mux2_2
* cell instance $901 r0 *1 1160.88,1083.6
X$901 509 508 224 204 92 226 gf180mcu_fd_sc_mcu9t5v0__mux2_2
* cell instance $903 m0 *1 1106,1023.12
X$903 509 101 92 508 gf180mcu_fd_sc_mcu9t5v0__clkbuf_8
* cell instance $905 m0 *1 1216.32,1023.12
X$905 509 96 93 98 508 gf180mcu_fd_sc_mcu9t5v0__dffq_2
* cell instance $915 r0 *1 1217.44,1013.04
X$915 509 97 93 95 508 gf180mcu_fd_sc_mcu9t5v0__dffq_2
* cell instance $918 m0 *1 1198.4,1023.12
X$918 509 112 93 94 508 gf180mcu_fd_sc_mcu9t5v0__dffq_2
* cell instance $921 r0 *1 1223.04,1053.36
X$921 509 167 93 180 508 gf180mcu_fd_sc_mcu9t5v0__dffq_2
* cell instance $923 m0 *1 1224.72,1053.36
X$923 509 158 93 182 508 gf180mcu_fd_sc_mcu9t5v0__dffq_2
* cell instance $925 r0 *1 1207.36,1043.28
X$925 509 157 93 156 508 gf180mcu_fd_sc_mcu9t5v0__dffq_2
* cell instance $927 m0 *1 1202.88,1063.44
X$927 509 179 93 155 508 gf180mcu_fd_sc_mcu9t5v0__dffq_2
* cell instance $929 m0 *1 1220.8,1063.44
X$929 509 508 93 gf180mcu_fd_sc_mcu9t5v0__inv_3
* cell instance $931 m0 *1 1225.28,1063.44
X$931 509 152 93 508 gf180mcu_fd_sc_mcu9t5v0__clkbuf_20
* cell instance $938 m0 *1 1223.04,1033.2
X$938 509 508 95 114 173 97 gf180mcu_fd_sc_mcu9t5v0__mux2_2
* cell instance $945 r0 *1 1223.04,1023.12
X$945 509 508 98 114 181 96 gf180mcu_fd_sc_mcu9t5v0__mux2_2
* cell instance $972 r0 *1 1065.68,1023.12
X$972 509 102 104 508 gf180mcu_fd_sc_mcu9t5v0__clkbuf_8
* cell instance $987 r0 *1 1271.76,1063.44
X$987 509 508 183 185 104 184 gf180mcu_fd_sc_mcu9t5v0__mux2_2
* cell instance $989 r0 *1 1231.44,1254.96
X$989 509 508 483 467 104 470 gf180mcu_fd_sc_mcu9t5v0__mux2_2
* cell instance $992 r0 *1 1271.2,1123.92
X$992 509 508 280 279 104 282 gf180mcu_fd_sc_mcu9t5v0__mux2_2
* cell instance $994 m0 *1 1062.32,1093.68
X$994 509 508 237 190 104 219 gf180mcu_fd_sc_mcu9t5v0__mux2_2
* cell instance $1004 m0 *1 1265.04,1224.72
X$1004 509 508 437 418 104 438 gf180mcu_fd_sc_mcu9t5v0__mux2_2
* cell instance $1006 r0 *1 1144.64,1254.96
X$1006 509 508 486 452 104 481 gf180mcu_fd_sc_mcu9t5v0__mux2_2
* cell instance $1009 m0 *1 1068.48,1214.64
X$1009 509 508 423 358 104 407 gf180mcu_fd_sc_mcu9t5v0__mux2_2
* cell instance $1011 m0 *1 1270.08,1043.28
X$1011 509 508 136 114 104 137 gf180mcu_fd_sc_mcu9t5v0__mux2_2
* cell instance $1015 r0 *1 1106,1043.28
X$1015 509 105 194 508 gf180mcu_fd_sc_mcu9t5v0__clkbuf_8
* cell instance $1021 r0 *1 1120,1023.12
X$1021 509 106 113 508 gf180mcu_fd_sc_mcu9t5v0__clkbuf_8
* cell instance $1024 m0 *1 1145.76,1043.28
X$1024 129 509 508 106 153 148 gf180mcu_fd_sc_mcu9t5v0__addh_1
* cell instance $1027 m0 *1 1136.24,1043.28
X$1027 508 111 126 509 107 gf180mcu_fd_sc_mcu9t5v0__xnor2_2
* cell instance $1032 m0 *1 1155.28,1043.28
X$1032 111 130 108 131 509 508 171 gf180mcu_fd_sc_mcu9t5v0__and4_2
* cell instance $1042 m0 *1 1153.6,1033.2
X$1042 133 129 108 131 509 508 124 gf180mcu_fd_sc_mcu9t5v0__and4_2
* cell instance $1045 r0 *1 1162.56,1033.2
X$1045 509 108 121 508 gf180mcu_fd_sc_mcu9t5v0__buf_8
* cell instance $1059 m0 *1 1204,1093.68
X$1059 509 231 110 232 229 113 230 245 508 gf180mcu_fd_sc_mcu9t5v0__mux4_2
* cell instance $1062 m0 *1 1205.12,1123.92
X$1062 509 297 110 260 276 113 287 277 508 gf180mcu_fd_sc_mcu9t5v0__mux4_2
* cell instance $1064 r0 *1 1196.72,1234.8
X$1064 509 413 110 468 453 174 455 466 508 gf180mcu_fd_sc_mcu9t5v0__mux4_2
* cell instance $1066 m0 *1 1198.4,1224.72
X$1066 509 415 110 434 431 174 430 432 508 gf180mcu_fd_sc_mcu9t5v0__mux4_2
* cell instance $1072 m0 *1 1151.92,1063.44
X$1072 509 110 127 508 gf180mcu_fd_sc_mcu9t5v0__clkbuf_8
* cell instance $1075 m0 *1 1118.88,1083.6
X$1075 509 197 110 200 195 113 196 198 508 gf180mcu_fd_sc_mcu9t5v0__mux4_2
* cell instance $1077 r0 *1 1107.12,1214.64
X$1077 509 392 110 409 460 174 448 408 508 gf180mcu_fd_sc_mcu9t5v0__mux4_2
* cell instance $1079 r0 *1 1154.72,1254.96
X$1079 509 429 130 463 481 111 462 482 508 gf180mcu_fd_sc_mcu9t5v0__mux4_2
* cell instance $1081 m0 *1 1279.6,1043.28
X$1081 509 135 130 139 137 111 117 138 508 gf180mcu_fd_sc_mcu9t5v0__mux4_2
* cell instance $1097 r0 *1 1277.92,1073.52
X$1097 509 216 130 214 184 111 211 212 508 gf180mcu_fd_sc_mcu9t5v0__mux4_2
* cell instance $1099 m0 *1 1130.08,1113.84
X$1099 509 266 130 257 254 111 255 244 508 gf180mcu_fd_sc_mcu9t5v0__mux4_2
* cell instance $1101 m0 *1 1243.2,1254.96
X$1101 509 401 130 473 470 111 471 485 508 gf180mcu_fd_sc_mcu9t5v0__mux4_2
* cell instance $1104 m0 *1 1273.44,1224.72
X$1104 509 443 130 442 438 111 439 440 508 gf180mcu_fd_sc_mcu9t5v0__mux4_2
* cell instance $1110 r0 *1 1126.72,1063.44
X$1110 509 113 111 508 gf180mcu_fd_sc_mcu9t5v0__buf_8
* cell instance $1112 r0 *1 1112.16,1144.08
X$1112 509 367 130 320 318 111 331 319 508 gf180mcu_fd_sc_mcu9t5v0__mux4_2
* cell instance $1114 m0 *1 1279.6,1134
X$1114 509 308 130 306 282 111 283 305 508 gf180mcu_fd_sc_mcu9t5v0__mux4_2
* cell instance $1131 m0 *1 1149.68,1073.52
X$1131 509 113 159 508 gf180mcu_fd_sc_mcu9t5v0__buf_8
* cell instance $1135 r0 *1 1141.28,1063.44
X$1135 509 113 174 508 gf180mcu_fd_sc_mcu9t5v0__buf_8
* cell instance $1138 m0 *1 1301.44,1043.28
X$1138 509 508 140 114 128 139 gf180mcu_fd_sc_mcu9t5v0__mux2_2
* cell instance $1140 m0 *1 1289.12,1033.2
X$1140 509 508 120 114 194 138 gf180mcu_fd_sc_mcu9t5v0__mux2_2
* cell instance $1145 r0 *1 1281.28,1033.2
X$1145 509 508 141 114 125 117 gf180mcu_fd_sc_mcu9t5v0__mux2_2
* cell instance $1160 r0 *1 1230.88,1033.2
X$1160 509 508 143 115 133 142 gf180mcu_fd_sc_mcu9t5v0__mux2_2
* cell instance $1164 m0 *1 1268.96,1063.44
X$1164 509 184 116 183 508 gf180mcu_fd_sc_mcu9t5v0__dffq_2
* cell instance $1166 r0 *1 1264.48,1033.2
X$1166 509 137 116 136 508 gf180mcu_fd_sc_mcu9t5v0__dffq_2
* cell instance $1172 r0 *1 1298.08,1033.2
X$1172 509 139 116 140 508 gf180mcu_fd_sc_mcu9t5v0__dffq_2
* cell instance $1174 m0 *1 1293.6,1073.52
X$1174 509 214 116 213 508 gf180mcu_fd_sc_mcu9t5v0__dffq_2
* cell instance $1176 m0 *1 1260,1063.44
X$1176 509 508 116 gf180mcu_fd_sc_mcu9t5v0__clkinv_3
* cell instance $1178 m0 *1 1272.32,1073.52
X$1178 509 211 116 210 508 gf180mcu_fd_sc_mcu9t5v0__dffq_2
* cell instance $1180 r0 *1 1280.16,1043.28
X$1180 509 138 116 120 508 gf180mcu_fd_sc_mcu9t5v0__dffq_2
* cell instance $1182 r0 *1 1249.36,1053.36
X$1182 509 152 116 508 gf180mcu_fd_sc_mcu9t5v0__clkbuf_20
* cell instance $1189 r0 *1 1249.36,1063.44
X$1189 509 161 116 160 508 gf180mcu_fd_sc_mcu9t5v0__dffq_2
* cell instance $1191 m0 *1 1268.96,1033.2
X$1191 509 117 116 141 508 gf180mcu_fd_sc_mcu9t5v0__dffq_2
* cell instance $1193 m0 *1 1260.56,1053.36
X$1193 509 163 116 162 508 gf180mcu_fd_sc_mcu9t5v0__dffq_2
* cell instance $1201 r0 *1 2164.4,1023.12
X$1201 119 508 509 118 gf180mcu_fd_sc_mcu9t5v0__dlyb_2
* cell instance $1207 r0 *1 1239.28,1033.2
X$1207 508 143 121 119 509 gf180mcu_fd_sc_mcu9t5v0__and2_4
* cell instance $1215 m0 *1 1114.4,2172.24
X$1215 121 508 509 501 gf180mcu_fd_sc_mcu9t5v0__dlyb_2
* cell instance $1217 r0 *1 1177.12,2162.16
X$1217 508 121 454 509 492 gf180mcu_fd_sc_mcu9t5v0__and2_2
* cell instance $1223 r0 *1 1139.6,2162.16
X$1223 508 121 424 509 495 gf180mcu_fd_sc_mcu9t5v0__and2_2
* cell instance $1236 m0 *1 1239.28,1073.52
X$1236 508 207 121 166 509 gf180mcu_fd_sc_mcu9t5v0__and2_4
* cell instance $1239 m0 *1 1111.04,2162.16
X$1239 508 121 370 509 490 gf180mcu_fd_sc_mcu9t5v0__and2_2
* cell instance $1243 r0 *1 1114.4,2162.16
X$1243 509 508 121 494 gf180mcu_fd_sc_mcu9t5v0__clkinv_2
* cell instance $1245 m0 *1 1106,2162.16
X$1245 508 121 357 509 489 gf180mcu_fd_sc_mcu9t5v0__and2_2
* cell instance $1248 r0 *1 1129.52,2162.16
X$1248 508 121 427 509 491 gf180mcu_fd_sc_mcu9t5v0__and2_2
* cell instance $1250 m0 *1 1131.2,2162.16
X$1250 508 121 315 509 493 gf180mcu_fd_sc_mcu9t5v0__and2_2
* cell instance $1263 m0 *1 1073.52,1224.72
X$1263 509 508 425 358 125 426 gf180mcu_fd_sc_mcu9t5v0__mux2_2
* cell instance $1265 m0 *1 1148,1254.96
X$1265 509 508 480 452 125 462 gf180mcu_fd_sc_mcu9t5v0__mux2_2
* cell instance $1267 r0 *1 1276.8,1234.8
X$1267 509 508 474 418 125 439 gf180mcu_fd_sc_mcu9t5v0__mux2_2
* cell instance $1269 r0 *1 1064,1073.52
X$1269 509 508 189 190 125 191 gf180mcu_fd_sc_mcu9t5v0__mux2_2
* cell instance $1272 r0 *1 1236.48,1244.88
X$1272 509 508 469 467 125 471 gf180mcu_fd_sc_mcu9t5v0__mux2_2
* cell instance $1274 m0 *1 1276.8,1083.6
X$1274 509 508 210 185 125 211 gf180mcu_fd_sc_mcu9t5v0__mux2_2
* cell instance $1290 m0 *1 1282.96,1123.92
X$1290 509 508 281 279 125 283 gf180mcu_fd_sc_mcu9t5v0__mux2_2
* cell instance $1292 r0 *1 1067.36,1033.2
X$1292 509 144 125 508 gf180mcu_fd_sc_mcu9t5v0__clkbuf_8
* cell instance $1299 r0 *1 1140.72,1043.28
X$1299 509 508 172 130 126 148 gf180mcu_fd_sc_mcu9t5v0__mux2_2
* cell instance $1315 m0 *1 1160.32,1134
X$1315 509 313 127 296 293 174 292 295 508 gf180mcu_fd_sc_mcu9t5v0__mux4_2
* cell instance $1317 r0 *1 1197.28,1154.16
X$1317 509 344 127 346 324 159 343 345 508 gf180mcu_fd_sc_mcu9t5v0__mux4_2
* cell instance $1319 r0 *1 1196.72,1184.4
X$1319 509 378 127 381 377 174 376 379 508 gf180mcu_fd_sc_mcu9t5v0__mux4_2
* cell instance $1321 m0 *1 1135.12,1234.8
X$1321 509 428 127 451 457 174 461 450 508 gf180mcu_fd_sc_mcu9t5v0__mux4_2
* cell instance $1323 m0 *1 1077.44,1214.64
X$1323 509 389 127 388 407 174 426 386 508 gf180mcu_fd_sc_mcu9t5v0__mux4_2
* cell instance $1326 r0 *1 1195.6,1053.36
X$1326 509 145 127 179 178 174 177 157 508 gf180mcu_fd_sc_mcu9t5v0__mux4_2
* cell instance $1331 r0 *1 1169.28,1083.6
X$1331 509 240 127 241 225 174 226 227 508 gf180mcu_fd_sc_mcu9t5v0__mux4_2
* cell instance $1334 r0 *1 1075.2,1083.6
X$1334 509 238 127 222 219 174 191 220 508 gf180mcu_fd_sc_mcu9t5v0__mux4_2
* cell instance $1336 r0 *1 1144.08,1164.24
X$1336 509 396 127 341 335 159 337 339 508 gf180mcu_fd_sc_mcu9t5v0__mux4_2
* cell instance $1339 m0 *1 1298.64,1134
X$1339 509 508 307 279 128 306 gf180mcu_fd_sc_mcu9t5v0__mux2_2
* cell instance $1341 r0 *1 1100.96,1244.88
X$1341 509 508 475 358 128 460 gf180mcu_fd_sc_mcu9t5v0__mux2_2
* cell instance $1343 m0 *1 1167.04,1254.96
X$1343 509 508 488 452 128 463 gf180mcu_fd_sc_mcu9t5v0__mux2_2
* cell instance $1347 m0 *1 1109.92,1093.68
X$1347 509 508 223 190 128 195 gf180mcu_fd_sc_mcu9t5v0__mux2_2
* cell instance $1350 r0 *1 1298.08,1063.44
X$1350 509 508 213 185 128 214 gf180mcu_fd_sc_mcu9t5v0__mux2_2
* cell instance $1352 m0 *1 1292.48,1224.72
X$1352 509 508 441 418 128 442 gf180mcu_fd_sc_mcu9t5v0__mux2_2
* cell instance $1361 m0 *1 1103.2,1043.28
X$1361 509 147 128 508 gf180mcu_fd_sc_mcu9t5v0__clkbuf_8
* cell instance $1363 m0 *1 1262.24,1254.96
X$1363 509 508 472 467 128 473 gf180mcu_fd_sc_mcu9t5v0__mux2_2
* cell instance $1374 m0 *1 1122.8,1063.44
X$1374 509 153 130 508 gf180mcu_fd_sc_mcu9t5v0__clkbuf_8
* cell instance $1407 r0 *1 1198.96,1214.64
X$1407 509 508 454 414 133 444 gf180mcu_fd_sc_mcu9t5v0__mux2_4
* cell instance $1409 m0 *1 1186.64,1214.64
X$1409 509 508 424 412 133 422 gf180mcu_fd_sc_mcu9t5v0__mux2_4
* cell instance $1413 m0 *1 1200.08,1134
X$1413 509 508 315 314 133 310 gf180mcu_fd_sc_mcu9t5v0__mux2_4
* cell instance $1415 r0 *1 1141.28,1214.64
X$1415 509 508 427 410 133 445 gf180mcu_fd_sc_mcu9t5v0__mux2_4
* cell instance $1427 r0 *1 1235.92,1073.52
X$1427 509 508 207 208 133 217 gf180mcu_fd_sc_mcu9t5v0__mux2_2
* cell instance $1433 m0 *1 1241.52,1053.36
X$1433 509 134 153 161 167 159 158 163 508 gf180mcu_fd_sc_mcu9t5v0__mux4_2
* cell instance $1503 r0 *1 1177.12,1123.92
X$1503 509 288 152 508 gf180mcu_fd_sc_mcu9t5v0__clkbuf_20
* cell instance $1521 r0 *1 1219.12,1093.68
X$1521 509 152 228 508 gf180mcu_fd_sc_mcu9t5v0__clkbuf_20
* cell instance $1525 m0 *1 1234.24,1214.64
X$1525 509 152 419 508 gf180mcu_fd_sc_mcu9t5v0__clkbuf_20
* cell instance $1530 m0 *1 1235.36,1174.32
X$1530 509 152 302 508 gf180mcu_fd_sc_mcu9t5v0__clkbuf_20
* cell instance $1532 r0 *1 1215.2,1214.64
X$1532 509 152 416 508 gf180mcu_fd_sc_mcu9t5v0__clkbuf_20
* cell instance $1536 r0 *1 1210.16,1174.32
X$1536 509 152 325 508 gf180mcu_fd_sc_mcu9t5v0__clkbuf_20
* cell instance $1540 m0 *1 1137.92,1083.6
X$1540 509 152 203 508 gf180mcu_fd_sc_mcu9t5v0__clkbuf_20