
* cell credit_based_fifo
* pin data_in[5]
* pin data_in[1]
* pin data_in[2]
* pin data_out[7]
* pin data_out[5]
* pin data_out[1]
* pin data_out[2]
* pin PWELL
* pin NWELL
* pin clk
* pin data_in[7]
* pin data_in[4]
* pin data_out[4]
* pin data_out[6]
* pin data_in[6]
* pin data_in[3]
* pin data_in[0]
* pin data_out[3]
* pin credits_available[3]
* pin credits_available[4]
* pin credits_available[0]
* pin credits_available[2]
* pin credits_available[1]
* pin credit_return
* pin rst_n
* pin full
* pin valid_in
* pin ready_out
* pin fifo_level[0]
* pin fifo_level[2]
* pin fifo_level[3]
* pin fifo_level[4]
* pin data_out[0]
* pin empty
* pin fifo_level[1]
* pin ready_in
* pin valid_out
.SUBCKT credit_based_fifo 1 2 3 4 5 6 7 10 18 26 204 205 229 285 297 370 407
+ 440 513 514 535 583 607 663 664 665 666 667 670 671 673 675 679 680 682 683
+ 684
* net 1 data_in[5]
* net 2 data_in[1]
* net 3 data_in[2]
* net 4 data_out[7]
* net 5 data_out[5]
* net 6 data_out[1]
* net 7 data_out[2]
* net 10 PWELL
* net 18 NWELL
* net 26 clk
* net 204 data_in[7]
* net 205 data_in[4]
* net 229 data_out[4]
* net 285 data_out[6]
* net 297 data_in[6]
* net 370 data_in[3]
* net 407 data_in[0]
* net 440 data_out[3]
* net 513 credits_available[3]
* net 514 credits_available[4]
* net 535 credits_available[0]
* net 583 credits_available[2]
* net 607 credits_available[1]
* net 663 credit_return
* net 664 rst_n
* net 665 full
* net 666 valid_in
* net 667 ready_out
* net 670 fifo_level[0]
* net 671 fifo_level[2]
* net 673 fifo_level[3]
* net 675 fifo_level[4]
* net 679 data_out[0]
* net 680 empty
* net 682 fifo_level[1]
* net 683 ready_in
* net 684 valid_out
* cell instance $5 r0 *1 15.96,1.4
X$5 1 10 18 11 BUF_X1
* cell instance $8 r0 *1 16.53,1.4
X$8 2 10 18 60 CLKBUF_X2
* cell instance $14 r0 *1 17.29,1.4
X$14 3 10 18 20 CLKBUF_X2
* cell instance $20 r0 *1 34.77,1.4
X$20 9 10 18 4 BUF_X1
* cell instance $26 r0 *1 36.1,1.4
X$26 8 10 18 5 BUF_X1
* cell instance $32 m0 *1 38.19,4.2
X$32 40 10 18 6 BUF_X1
* cell instance $38 r0 *1 38.38,1.4
X$38 24 10 18 7 BUF_X1
* cell instance $44 r0 *1 38.95,1.4
X$44 10 763 8 61 17 18 DFF_X1
* cell instance $49 m0 *1 39.52,12.6
X$49 10 84 105 70 156 85 8 86 18 AOI222_X2
* cell instance $54 m0 *1 33.25,23.8
X$54 10 84 280 282 281 85 9 86 18 AOI222_X2
* cell instance $56 r0 *1 34.2,21
X$56 10 814 9 248 173 18 DFF_X1
* cell instance $61 m0 *1 13.68,21
X$61 223 80 239 10 18 240 MUX2_X1
* cell instance $65 m0 *1 17.29,21
X$65 243 28 241 10 18 242 MUX2_X1
* cell instance $67 m0 *1 20.14,21
X$67 224 13 123 10 18 235 MUX2_X1
* cell instance $68 m0 *1 21.47,21
X$68 243 16 224 10 18 225 MUX2_X1
* cell instance $75 m0 *1 11.78,21
X$75 239 76 206 10 18 257 MUX2_X1
* cell instance $78 r0 *1 11.59,21
X$78 10 758 239 257 207 18 DFF_X1
* cell instance $81 r0 *1 15.77,21
X$81 240 95 254 10 18 259 MUX2_X1
* cell instance $82 r0 *1 17.1,21
X$82 10 782 243 242 187 18 DFF_X1
* cell instance $83 r0 *1 20.33,21
X$83 241 10 18 123 BUF_X2
* cell instance $85 r0 *1 21.85,21
X$85 247 118 206 10 18 272 MUX2_X1
* cell instance $86 r0 *1 23.18,21
X$86 263 28 206 10 18 291 MUX2_X1
* cell instance $87 r0 *1 24.51,21
X$87 206 10 18 277 BUF_X2
* cell instance $90 r0 *1 28.5,21
X$90 10 817 266 265 173 18 DFF_X1
* cell instance $93 r0 *1 32.3,21
X$93 296 95 271 10 18 294 MUX2_X1
* cell instance $98 m0 *1 40.85,21
X$98 10 736 230 227 142 18 DFF_X1
* cell instance $101 m0 *1 44.84,21
X$101 10 727 251 250 142 18 DFF_X1
* cell instance $102 m0 *1 48.07,21
X$102 10 695 244 245 142 18 DFF_X1
* cell instance $103 m0 *1 51.3,21
X$103 244 220 123 10 18 245 MUX2_X1
* cell instance $107 r0 *1 41.23,21
X$107 270 138 255 10 18 249 MUX2_X1
* cell instance $109 r0 *1 43.32,21
X$109 251 236 123 10 18 250 MUX2_X1
* cell instance $111 r0 *1 45.03,21
X$111 258 171 123 10 18 267 MUX2_X1
* cell instance $114 r0 *1 46.93,21
X$114 251 195 258 10 18 256 MUX2_X1
* cell instance $117 r0 *1 48.83,21
X$117 256 183 253 10 18 255 MUX2_X1
* cell instance $119 r0 *1 50.54,21
X$119 244 191 268 10 18 253 MUX2_X1
* cell instance $122 m0 *1 1.33,51.8
X$122 559 516 632 10 18 631 MUX2_X1
* cell instance $124 m0 *1 2.66,51.8
X$124 540 10 18 607 BUF_X1
* cell instance $126 m0 *1 3.42,51.8
X$126 525 631 18 10 639 AND2_X1
* cell instance $135 r0 *1 3.42,51.8
X$135 10 662 373 840 540 18 DFF_X2
* cell instance $136 m0 *1 8.17,51.8
X$136 632 10 18 609 INV_X1
* cell instance $137 m0 *1 4.56,51.8
X$137 10 639 373 632 559 18 DFF_X2
* cell instance $142 r0 *1 7.03,51.8
X$142 525 608 18 10 662 AND2_X1
* cell instance $147 r0 *1 10.64,51.8
X$147 663 10 18 610 BUF_X1
* cell instance $149 m0 *1 14.44,51.8
X$149 594 563 18 10 633 AND2_X1
* cell instance $151 m0 *1 15.2,51.8
X$151 633 611 654 10 18 640 MUX2_X1
* cell instance $152 m0 *1 16.53,51.8
X$152 10 640 395 581 563 18 DFF_X2
* cell instance $153 m0 *1 20.14,51.8
X$153 482 10 18 634 INV_X1
* cell instance $154 m0 *1 20.52,51.8
X$154 525 566 18 10 645 AND2_X1
* cell instance $155 m0 *1 21.28,51.8
X$155 566 547 10 18 589 NOR2_X1
* cell instance $156 m0 *1 21.85,51.8
X$156 641 18 455 10 BUF_X4
* cell instance $158 m0 *1 23.37,51.8
X$158 641 18 482 10 BUF_X4
* cell instance $159 m0 *1 24.7,51.8
X$159 637 10 18 566 BUF_X1
* cell instance $160 m0 *1 25.27,51.8
X$160 594 10 18 525 BUF_X2
* cell instance $166 r0 *1 16.72,51.8
X$166 525 587 18 10 654 AND2_X1
* cell instance $167 r0 *1 17.48,51.8
X$167 482 471 18 10 657 AND2_X1
* cell instance $168 r0 *1 18.24,51.8
X$168 644 634 10 18 611 NOR2_X2
* cell instance $169 r0 *1 19.19,51.8
X$169 471 519 10 18 644 NAND2_X1
* cell instance $170 r0 *1 19.76,51.8
X$170 612 644 634 10 18 668 NOR3_X1
* cell instance $172 r0 *1 20.71,51.8
X$172 645 668 589 10 18 669 MUX2_X1
* cell instance $174 r0 *1 22.23,51.8
X$174 10 762 637 669 395 18 DFF_X1
* cell instance $176 m0 *1 28.12,51.8
X$176 628 10 18 646 INV_X1
* cell instance $178 m0 *1 28.5,51.8
X$178 590 563 591 18 10 643 HA_X1
* cell instance $179 m0 *1 30.4,51.8
X$179 615 571 18 10 647 XNOR2_X1
* cell instance $180 m0 *1 31.54,51.8
X$180 630 614 18 10 635 AND2_X1
* cell instance $181 m0 *1 32.3,51.8
X$181 592 643 571 10 614 18 AOI21_X1
* cell instance $183 m0 *1 33.82,51.8
X$183 615 10 18 642 INV_X1
* cell instance $184 m0 *1 34.2,51.8
X$184 638 642 571 10 636 18 AOI21_X1
* cell instance $186 m0 *1 35.15,51.8
X$186 593 637 626 18 10 625 HA_X1
* cell instance $190 r0 *1 29.26,51.8
X$190 647 613 646 659 10 18 658 NAND4_X1
* cell instance $191 r0 *1 30.21,51.8
X$191 599 10 18 659 INV_X1
* cell instance $192 r0 *1 30.59,51.8
X$192 599 646 613 647 18 10 656 AND4_X1
* cell instance $193 r0 *1 31.73,51.8
X$193 656 635 672 655 674 641 18 10 AOI221_X2
* cell instance $194 r0 *1 33.82,51.8
X$194 649 636 648 18 674 10 OAI21_X1
* cell instance $195 r0 *1 34.58,51.8
X$195 648 636 649 10 18 655 OR3_X1
* cell instance $196 r0 *1 35.53,51.8
X$196 625 599 10 18 649 NOR2_X1
* cell instance $197 r0 *1 36.1,51.8
X$197 649 636 648 10 18 677 NOR3_X1
* cell instance $198 r0 *1 36.86,51.8
X$198 650 677 10 18 678 NOR2_X1
* cell instance $201 m0 *1 38.19,51.8
X$201 617 624 18 10 676 AND2_X1
* cell instance $202 m0 *1 39.14,51.8
X$202 10 624 617 500 661 651 18 AOI22_X4
* cell instance $203 m0 *1 42.37,51.8
X$203 595 597 10 18 617 XNOR2_X2
* cell instance $205 m0 *1 44.46,51.8
X$205 597 595 18 648 10 XOR2_X2
* cell instance $212 r0 *1 39.52,51.8
X$212 547 652 676 10 653 18 AOI21_X1
* cell instance $213 r0 *1 40.28,51.8
X$213 10 653 428 843 651 18 DFF_X2
* cell instance $218 m0 *1 1.9,9.8
X$218 10 721 97 125 63 18 DFF_X1
* cell instance $220 m0 *1 5.13,9.8
X$220 10 713 77 89 63 18 DFF_X1
* cell instance $222 m0 *1 8.55,9.8
X$222 48 76 20 10 18 72 MUX2_X1
* cell instance $224 m0 *1 10.07,9.8
X$224 10 716 79 78 63 18 DFF_X1
* cell instance $231 r0 *1 2.85,9.8
X$231 10 819 98 106 63 18 DFF_X1
* cell instance $235 r0 *1 6.08,9.8
X$235 98 76 60 10 18 106 MUX2_X1
* cell instance $236 r0 *1 7.41,9.8
X$236 77 91 20 10 18 89 MUX2_X1
* cell instance $237 r0 *1 8.74,9.8
X$237 77 132 48 10 18 115 MUX2_X1
* cell instance $240 r0 *1 11.78,9.8
X$240 79 91 11 10 18 78 MUX2_X1
* cell instance $241 r0 *1 13.11,9.8
X$241 79 80 99 10 18 116 MUX2_X1
* cell instance $242 r0 *1 14.44,9.8
X$242 99 76 11 10 18 64 MUX2_X1
* cell instance $243 m0 *1 14.63,9.8
X$243 10 742 99 64 19 18 DFF_X1
* cell instance $249 m0 *1 18.43,9.8
X$249 11 10 18 50 BUF_X2
* cell instance $254 r0 *1 18.24,9.8
X$254 184 80 117 10 18 109 MUX2_X1
* cell instance $255 r0 *1 19.57,9.8
X$255 75 67 109 10 18 108 MUX2_X1
* cell instance $258 r0 *1 21.85,9.8
X$258 10 813 81 110 19 18 DFF_X1
* cell instance $259 m0 *1 22.04,9.8
X$259 34 95 120 10 18 73 MUX2_X1
* cell instance $261 m0 *1 23.37,9.8
X$261 10 702 96 130 19 18 DFF_X1
* cell instance $264 r0 *1 25.08,9.8
X$264 81 80 96 10 18 112 MUX2_X1
* cell instance $266 r0 *1 26.6,9.8
X$266 113 95 112 10 18 114 MUX2_X1
* cell instance $268 m0 *1 28.69,9.8
X$268 10 718 101 82 22 18 DFF_X1
* cell instance $270 m0 *1 31.92,9.8
X$270 65 67 94 10 18 83 MUX2_X1
* cell instance $273 r0 *1 28.88,9.8
X$273 101 100 15 10 18 82 MUX2_X1
* cell instance $276 r0 *1 31.16,9.8
X$276 101 66 121 10 18 65 MUX2_X1
* cell instance $278 r0 *1 32.68,9.8
X$278 83 103 114 10 18 102 MUX2_X1
* cell instance $279 m0 *1 34.96,9.8
X$279 10 748 68 122 22 18 DFF_X1
* cell instance $280 m0 *1 33.63,9.8
X$280 74 67 93 10 18 129 MUX2_X1
* cell instance $283 m0 *1 40.47,9.8
X$283 10 737 87 92 17 18 DFF_X1
* cell instance $284 m0 *1 43.7,9.8
X$284 87 66 55 10 18 88 MUX2_X1
* cell instance $285 m0 *1 45.03,9.8
X$285 88 67 71 10 18 90 MUX2_X1
* cell instance $292 r0 *1 34.2,9.8
X$292 10 84 102 69 154 85 40 86 18 AOI222_X2
* cell instance $294 r0 *1 37.05,9.8
X$294 10 84 127 111 104 85 24 86 18 AOI222_X2
* cell instance $296 r0 *1 39.9,9.8
X$296 90 103 108 10 18 105 MUX2_X1
* cell instance $299 r0 *1 41.8,9.8
X$299 87 100 50 10 18 92 MUX2_X1
* cell instance $302 r0 *1 44.27,9.8
X$302 107 10 18 17 CLKBUF_X3
* cell instance $305 r0 *1 47.12,9.8
X$305 10 829 141 124 17 18 DFF_X1
* cell instance $309 m0 *1 7.79,40.6
X$309 10 728 460 451 373 18 DFF_X1
* cell instance $315 m0 *1 16.53,40.6
X$315 455 471 469 467 18 10 461 AND4_X1
* cell instance $319 m0 *1 21.66,40.6
X$319 455 471 472 473 18 10 456 AND4_X1
* cell instance $320 m0 *1 22.8,40.6
X$320 455 471 469 473 18 10 446 AND4_X1
* cell instance $322 m0 *1 24.7,40.6
X$322 10 220 18 479 BUF_X8
* cell instance $325 m0 *1 34.01,40.6
X$325 10 710 448 478 411 18 DFF_X1
* cell instance $327 m0 *1 43.32,40.6
X$327 477 100 375 10 18 462 MUX2_X1
* cell instance $331 m0 *1 1.71,40.6
X$331 10 750 450 449 373 18 DFF_X1
* cell instance $344 r0 *1 14.44,40.6
X$344 455 468 472 467 18 10 475 AND4_X1
* cell instance $345 r0 *1 15.58,40.6
X$345 455 468 470 481 18 10 452 AND4_X1
* cell instance $346 r0 *1 16.72,40.6
X$346 455 468 469 470 18 10 453 AND4_X1
* cell instance $347 r0 *1 17.86,40.6
X$347 482 471 470 472 18 10 454 AND4_X1
* cell instance $348 r0 *1 19,40.6
X$348 482 470 484 18 10 423 AND3_X1
* cell instance $351 r0 *1 21.85,40.6
X$351 455 471 473 481 18 10 479 AND4_X1
* cell instance $352 r0 *1 22.99,40.6
X$352 455 471 483 481 18 10 494 AND4_X1
* cell instance $354 r0 *1 24.32,40.6
X$354 482 484 473 18 10 493 AND3_X1
* cell instance $355 r0 *1 25.27,40.6
X$355 493 18 181 10 BUF_X4
* cell instance $358 r0 *1 28.88,40.6
X$358 10 38 18 494 BUF_X8
* cell instance $359 r0 *1 31.35,40.6
X$359 485 10 18 319 CLKBUF_X3
* cell instance $361 r0 *1 33.06,40.6
X$361 489 138 424 10 18 496 MUX2_X1
* cell instance $362 r0 *1 34.39,40.6
X$362 10 457 85 495 84 496 501 86 18 AOI222_X2
* cell instance $365 r0 *1 37.62,40.6
X$365 86 486 84 10 18 NOR2_X4
* cell instance $368 r0 *1 41.04,40.6
X$368 487 52 375 10 18 491 MUX2_X1
* cell instance $370 r0 *1 42.75,40.6
X$370 10 793 477 462 428 18 DFF_X1
* cell instance $372 m0 *1 49.78,40.6
X$372 458 191 474 10 18 439 MUX2_X1
* cell instance $373 m0 *1 46.55,40.6
X$373 10 726 458 476 428 18 DFF_X1
* cell instance $378 r0 *1 47.88,40.6
X$378 458 220 366 10 18 476 MUX2_X1
* cell instance $381 r0 *1 49.78,40.6
X$381 474 181 366 10 18 488 MUX2_X1
* cell instance $383 r0 *1 51.49,40.6
X$383 10 775 474 488 428 18 DFF_X1
* cell instance $386 m0 *1 29.07,23.8
X$386 10 731 295 279 173 18 DFF_X1
* cell instance $387 m0 *1 27.74,23.8
X$387 266 171 277 10 18 265 MUX2_X1
* cell instance $393 m0 *1 45.22,23.8
X$393 10 701 258 267 142 18 DFF_X1
* cell instance $394 m0 *1 48.45,23.8
X$394 10 747 268 287 142 18 DFF_X1
* cell instance $395 m0 *1 51.68,23.8
X$395 268 181 123 10 18 287 MUX2_X1
* cell instance $398 m0 *1 21.09,23.8
X$398 10 704 263 291 187 18 DFF_X1
* cell instance $402 m0 *1 26.03,23.8
X$402 263 16 278 10 18 264 MUX2_X1
* cell instance $404 r0 *1 20.9,23.8
X$404 10 784 247 272 187 18 DFF_X1
* cell instance $405 r0 *1 24.13,23.8
X$405 10 779 278 306 187 18 DFF_X1
* cell instance $409 r0 *1 30.02,23.8
X$409 295 236 277 10 18 279 MUX2_X1
* cell instance $410 r0 *1 31.35,23.8
X$410 295 195 266 10 18 296 MUX2_X1
* cell instance $411 r0 *1 32.68,23.8
X$411 259 138 294 10 18 281 MUX2_X1
* cell instance $414 r0 *1 34.58,23.8
X$414 282 10 18 248 INV_X1
* cell instance $415 r0 *1 34.96,23.8
X$415 292 181 277 10 18 293 MUX2_X1
* cell instance $416 r0 *1 36.29,23.8
X$416 10 826 292 293 173 18 DFF_X1
* cell instance $419 r0 *1 41.42,23.8
X$419 307 10 18 290 INV_X1
* cell instance $420 r0 *1 41.8,23.8
X$420 10 803 284 290 283 18 DFF_X1
* cell instance $423 r0 *1 52.63,23.8
X$423 284 10 18 285 BUF_X1
* cell instance $429 m0 *1 33.25,54.6
X$429 660 10 18 673 BUF_X1
* cell instance $431 m0 *1 37.05,54.6
X$431 678 10 18 675 BUF_X1
* cell instance $432 m0 *1 37.62,54.6
X$432 501 10 18 679 BUF_X1
* cell instance $437 m0 *1 5.89,37.8
X$437 10 711 435 441 373 18 DFF_X1
* cell instance $438 m0 *1 9.12,37.8
X$438 435 91 408 10 18 441 MUX2_X1
* cell instance $439 m0 *1 10.45,37.8
X$439 373 10 18 CLKBUF_X1
* cell instance $445 r0 *1 1.71,37.8
X$445 450 131 408 10 18 449 MUX2_X1
* cell instance $449 r0 *1 3.04,37.8
X$449 10 830 434 459 373 18 DFF_X1
* cell instance $450 r0 *1 6.27,37.8
X$450 434 159 408 10 18 459 MUX2_X1
* cell instance $451 r0 *1 7.6,37.8
X$451 460 76 408 10 18 451 MUX2_X1
* cell instance $453 r0 *1 9.12,37.8
X$453 450 346 434 10 18 444 MUX2_X1
* cell instance $454 r0 *1 10.45,37.8
X$454 435 346 460 10 18 436 MUX2_X1
* cell instance $455 r0 *1 11.78,37.8
X$455 436 319 444 10 18 466 MUX2_X1
* cell instance $457 r0 *1 13.87,37.8
X$457 10 76 18 475 BUF_X8
* cell instance $458 m0 *1 15.39,37.8
X$458 10 91 18 461 BUF_X8
* cell instance $462 m0 *1 19.57,37.8
X$462 423 18 135 10 BUF_X4
* cell instance $463 m0 *1 20.9,37.8
X$463 107 10 18 395 CLKBUF_X3
* cell instance $464 m0 *1 21.85,37.8
X$464 395 10 18 INV_X4
* cell instance $467 r0 *1 16.34,37.8
X$467 490 18 159 10 BUF_X4
* cell instance $471 r0 *1 19,37.8
X$471 454 18 13 10 BUF_X4
* cell instance $476 r0 *1 23.18,37.8
X$476 10 171 18 456 BUF_X8
* cell instance $478 m0 *1 23.94,37.8
X$478 408 10 18 375 BUF_X2
* cell instance $479 m0 *1 27.74,37.8
X$479 10 236 18 446 BUF_X8
* cell instance $486 r0 *1 33.63,37.8
X$486 466 103 465 10 18 457 MUX2_X1
* cell instance $487 m0 *1 34.96,37.8
X$487 433 236 375 10 18 432 MUX2_X1
* cell instance $488 m0 *1 34.39,37.8
X$488 411 10 18 687 INV_X2
* cell instance $489 m0 *1 36.29,37.8
X$489 433 346 431 10 18 437 MUX2_X1
* cell instance $490 m0 *1 37.62,37.8
X$490 431 171 375 10 18 425 MUX2_X1
* cell instance $491 m0 *1 38.95,37.8
X$491 107 10 18 411 CLKBUF_X3
* cell instance $493 m0 *1 40.66,37.8
X$493 382 138 442 10 18 447 MUX2_X1
* cell instance $494 m0 *1 41.99,37.8
X$494 10 84 412 426 447 85 429 86 18 AOI222_X2
* cell instance $495 m0 *1 44.65,37.8
X$495 428 10 18 CLKBUF_X1
* cell instance $496 m0 *1 45.22,37.8
X$496 427 236 366 10 18 445 MUX2_X1
* cell instance $497 m0 *1 46.55,37.8
X$497 10 723 427 445 428 18 DFF_X1
* cell instance $498 m0 *1 49.78,37.8
X$498 427 195 413 10 18 443 MUX2_X1
* cell instance $499 m0 *1 51.11,37.8
X$499 10 698 429 430 428 18 DFF_X1
* cell instance $500 m0 *1 54.34,37.8
X$500 429 10 18 440 BUF_X1
* cell instance $502 r0 *1 34.96,37.8
X$502 448 220 375 10 18 478 MUX2_X1
* cell instance $503 r0 *1 36.29,37.8
X$503 437 319 464 10 18 465 MUX2_X1
* cell instance $504 r0 *1 37.62,37.8
X$504 448 346 438 10 18 464 MUX2_X1
* cell instance $505 r0 *1 38.95,37.8
X$505 438 181 375 10 18 463 MUX2_X1
* cell instance $506 r0 *1 40.28,37.8
X$506 10 770 438 463 428 18 DFF_X1
* cell instance $509 r0 *1 45.79,37.8
X$509 107 10 18 428 CLKBUF_X3
* cell instance $512 r0 *1 49.97,37.8
X$512 443 183 439 10 18 442 MUX2_X1
* cell instance $517 m0 *1 1.33,35
X$517 407 10 18 408 CLKBUF_X2
* cell instance $526 m0 *1 5.32,35
X$526 391 131 390 10 18 400 MUX2_X1
* cell instance $527 m0 *1 3.99,35
X$527 371 159 390 10 18 389 MUX2_X1
* cell instance $531 m0 *1 9.12,35
X$531 314 10 18 691 INV_X2
* cell instance $532 m0 *1 7.79,35
X$532 403 91 390 10 18 372 MUX2_X1
* cell instance $533 m0 *1 9.69,35
X$533 392 76 390 10 18 416 MUX2_X1
* cell instance $536 m0 *1 11.97,35
X$536 10 715 393 417 395 18 DFF_X1
* cell instance $537 m0 *1 15.2,35
X$537 393 118 390 10 18 417 MUX2_X1
* cell instance $538 m0 *1 16.53,35
X$538 394 28 390 10 18 384 MUX2_X1
* cell instance $540 m0 *1 18.05,35
X$540 394 16 396 10 18 405 MUX2_X1
* cell instance $541 m0 *1 19.38,35
X$541 396 13 366 10 18 404 MUX2_X1
* cell instance $544 r0 *1 8.17,35
X$544 107 10 18 373 CLKBUF_X3
* cell instance $545 r0 *1 9.12,35
X$545 107 10 18 314 CLKBUF_X3
* cell instance $546 r0 *1 10.07,35
X$546 10 831 392 416 373 18 DFF_X1
* cell instance $549 r0 *1 15.58,35
X$549 10 118 18 452 BUF_X8
* cell instance $550 r0 *1 18.05,35
X$550 10 28 18 453 BUF_X8
* cell instance $551 r0 *1 20.52,35
X$551 409 118 408 10 18 418 MUX2_X1
* cell instance $552 r0 *1 21.85,35
X$552 10 816 409 418 395 18 DFF_X1
* cell instance $553 m0 *1 22.42,35
X$553 397 28 408 10 18 406 MUX2_X1
* cell instance $554 m0 *1 21.85,35
X$554 333 10 18 690 INV_X2
* cell instance $555 m0 *1 23.75,35
X$555 107 10 18 333 CLKBUF_X3
* cell instance $556 m0 *1 24.7,35
X$556 410 13 375 10 18 420 MUX2_X1
* cell instance $557 m0 *1 26.03,35
X$557 10 707 410 420 333 18 DFF_X1
* cell instance $558 m0 *1 29.26,35
X$558 397 191 410 10 18 421 MUX2_X1
* cell instance $562 m0 *1 35.91,35
X$562 346 18 195 10 BUF_X4
* cell instance $565 m0 *1 41.04,35
X$565 402 103 387 10 18 412 MUX2_X1
* cell instance $569 r0 *1 28.12,35
X$569 409 191 398 10 18 422 MUX2_X1
* cell instance $571 r0 *1 30.21,35
X$571 421 183 422 10 18 424 MUX2_X1
* cell instance $574 r0 *1 32.68,35
X$574 376 18 346 10 BUF_X4
* cell instance $575 r0 *1 34.01,35
X$575 10 766 433 432 411 18 DFF_X1
* cell instance $576 r0 *1 37.24,35
X$576 10 765 431 425 411 18 DFF_X1
* cell instance $579 r0 *1 41.04,35
X$579 10 769 399 419 411 18 DFF_X1
* cell instance $581 m0 *1 43.51,35
X$581 399 100 366 10 18 419 MUX2_X1
* cell instance $582 m0 *1 45.03,35
X$582 10 725 377 415 428 18 DFF_X1
* cell instance $583 m0 *1 48.26,35
X$583 107 10 18 283 CLKBUF_X3
* cell instance $584 m0 *1 49.21,35
X$584 283 10 18 689 INV_X2
* cell instance $589 r0 *1 44.65,35
X$589 426 10 18 430 INV_X1
* cell instance $592 r0 *1 45.98,35
X$592 413 171 366 10 18 414 MUX2_X1
* cell instance $593 r0 *1 47.31,35
X$593 10 795 413 414 283 18 DFF_X1
* cell instance $597 m0 *1 1.33,26.6
X$597 297 10 18 316 BUF_X1
* cell instance $611 r0 *1 3.8,26.6
X$611 10 789 353 313 314 18 DFF_X1
* cell instance $614 r0 *1 8.17,26.6
X$614 10 788 315 321 314 18 DFF_X1
* cell instance $615 r0 *1 11.4,26.6
X$615 315 76 316 10 18 321 MUX2_X1
* cell instance $616 r0 *1 12.73,26.6
X$616 10 780 304 324 314 18 DFF_X1
* cell instance $617 r0 *1 15.96,26.6
X$617 304 28 316 10 18 324 MUX2_X1
* cell instance $620 m0 *1 18.43,26.6
X$620 304 16 275 10 18 305 MUX2_X1
* cell instance $625 r0 *1 18.24,26.6
X$625 317 80 326 10 18 329 MUX2_X1
* cell instance $626 r0 *1 19.57,26.6
X$626 326 135 276 10 18 332 MUX2_X1
* cell instance $627 r0 *1 20.9,26.6
X$627 305 67 329 10 18 327 MUX2_X1
* cell instance $629 r0 *1 22.99,26.6
X$629 10 783 298 330 333 18 DFF_X1
* cell instance $630 m0 *1 26.03,26.6
X$630 247 16 298 10 18 308 MUX2_X1
* cell instance $631 m0 *1 24.7,26.6
X$631 278 13 277 10 18 306 MUX2_X1
* cell instance $632 m0 *1 27.36,26.6
X$632 264 67 308 10 18 309 MUX2_X1
* cell instance $635 r0 *1 26.22,26.6
X$635 298 135 277 10 18 330 MUX2_X1
* cell instance $638 r0 *1 29.26,26.6
X$638 318 346 340 10 18 331 MUX2_X1
* cell instance $640 r0 *1 31.35,26.6
X$640 331 319 362 10 18 311 MUX2_X1
* cell instance $641 m0 *1 32.3,26.6
X$641 311 103 309 10 18 280 MUX2_X1
* cell instance $644 m0 *1 35.15,26.6
X$644 299 195 292 10 18 271 MUX2_X1
* cell instance $645 m0 *1 36.48,26.6
X$645 299 220 277 10 18 312 MUX2_X1
* cell instance $646 m0 *1 37.81,26.6
X$646 10 720 299 312 300 18 DFF_X1
* cell instance $650 r0 *1 37.24,26.6
X$650 339 100 276 10 18 328 MUX2_X1
* cell instance $652 r0 *1 39.33,26.6
X$652 338 103 327 10 18 310 MUX2_X1
* cell instance $654 r0 *1 41.42,26.6
X$654 10 791 323 322 283 18 DFF_X1
* cell instance $656 m0 *1 41.42,26.6
X$656 10 84 310 307 336 85 284 86 18 AOI222_X2
* cell instance $658 m0 *1 50.92,26.6
X$658 302 181 276 10 18 301 MUX2_X1
* cell instance $663 r0 *1 44.84,26.6
X$663 323 38 276 10 18 322 MUX2_X1
* cell instance $664 r0 *1 46.17,26.6
X$664 303 236 276 10 18 320 MUX2_X1
* cell instance $666 r0 *1 47.88,26.6
X$666 10 809 303 320 283 18 DFF_X1
* cell instance $667 r0 *1 51.11,26.6
X$667 10 794 302 301 283 18 DFF_X1
* cell instance $672 m0 *1 1.33,49
X$672 559 10 18 535 BUF_X1
* cell instance $674 m0 *1 1.9,49
X$674 584 516 560 10 18 585 MUX2_X1
* cell instance $675 m0 *1 3.23,49
X$675 584 538 561 18 10 539 HA_X1
* cell instance $677 m0 *1 5.89,49
X$677 10 497 584 540 609 542 18 NOR4_X4
* cell instance $678 m0 *1 9.31,49
X$678 602 10 18 562 INV_X1
* cell instance $681 r0 *1 1.33,49
X$681 584 10 18 583 BUF_X1
* cell instance $682 r0 *1 1.9,49
X$682 525 585 18 10 619 AND2_X1
* cell instance $683 r0 *1 2.66,49
X$683 10 619 373 842 584 18 DFF_X2
* cell instance $687 r0 *1 6.27,49
X$687 540 516 601 10 18 608 MUX2_X1
* cell instance $691 m0 *1 10.26,49
X$691 611 603 579 18 10 538 HA_X1
* cell instance $694 m0 *1 15.2,49
X$694 586 563 834 18 10 544 HA_X1
* cell instance $695 m0 *1 17.1,49
X$695 564 581 587 18 10 520 HA_X1
* cell instance $696 m0 *1 19,49
X$696 586 581 835 18 10 565 HA_X1
* cell instance $697 m0 *1 20.9,49
X$697 484 482 10 18 606 NAND2_X1
* cell instance $699 m0 *1 21.66,49
X$699 582 606 567 10 18 580 MUX2_X1
* cell instance $701 m0 *1 23.18,49
X$701 594 546 18 10 567 AND2_X1
* cell instance $703 r0 *1 10.07,49
X$703 610 10 18 603 INV_X1
* cell instance $704 r0 *1 10.45,49
X$704 622 610 837 18 10 602 HA_X1
* cell instance $705 r0 *1 12.35,49
X$705 611 10 18 622 INV_X1
* cell instance $706 r0 *1 12.73,49
X$706 10 605 373 564 586 18 DFF_X2
* cell instance $707 r0 *1 16.34,49
X$707 623 611 588 10 18 605 MUX2_X1
* cell instance $708 r0 *1 17.67,49
X$708 594 586 18 10 623 AND2_X1
* cell instance $710 r0 *1 19.19,49
X$710 586 563 546 10 18 612 NAND3_X1
* cell instance $713 r0 *1 21.09,49
X$713 546 589 18 10 467 AND2_X1
* cell instance $716 r0 *1 23.56,49
X$716 10 767 569 580 395 18 DFF_X1
* cell instance $718 m0 *1 24.32,49
X$718 546 566 482 484 18 10 598 AND4_X1
* cell instance $719 m0 *1 26.22,49
X$719 569 10 18 546 BUF_X1
* cell instance $720 m0 *1 26.79,49
X$720 10 568 411 590 548 18 DFF_X2
* cell instance $724 r0 *1 27.74,49
X$724 10 581 615 613 570 548 18 FA_X1
* cell instance $726 m0 *1 30.78,49
X$726 570 10 18 629 INV_X1
* cell instance $727 m0 *1 31.92,49
X$727 604 18 571 10 BUF_X4
* cell instance $728 m0 *1 33.25,49
X$728 575 569 604 18 10 592 HA_X1
* cell instance $732 r0 *1 30.78,49
X$732 571 629 591 10 18 630 NAND3_X1
* cell instance $733 r0 *1 31.54,49
X$733 591 599 628 571 18 10 624 AND4_X1
* cell instance $735 r0 *1 33.06,49
X$735 571 10 18 627 INV_X1
* cell instance $736 r0 *1 33.44,49
X$736 615 627 616 18 600 10 OAI21_X1
* cell instance $737 r0 *1 34.2,49
X$737 592 10 18 616 INV_X1
* cell instance $739 r0 *1 34.96,49
X$739 625 592 10 18 638 OR2_X1
* cell instance $740 r0 *1 35.72,49
X$740 626 10 18 599 CLKBUF_X2
* cell instance $741 r0 *1 36.48,49
X$741 617 625 599 600 650 18 10 AOI211_X2
* cell instance $744 m0 *1 29.83,54.6
X$744 646 10 18 670 BUF_X1
* cell instance $745 m0 *1 29.26,54.6
X$745 613 10 18 682 BUF_X1
* cell instance $746 m0 *1 30.4,54.6
X$746 647 10 18 671 BUF_X1
* cell instance $747 m0 *1 30.97,54.6
X$747 658 630 614 10 672 18 AOI21_X1
* cell instance $748 m0 *1 31.73,54.6
X$748 599 635 18 10 660 XNOR2_X1
* cell instance $750 m0 *1 38.76,54.6
X$750 676 10 18 680 BUF_X1
* cell instance $753 m0 *1 40.09,54.6
X$753 683 10 18 681 BUF_X1
* cell instance $754 m0 *1 40.66,54.6
X$754 681 10 18 661 INV_X1
* cell instance $756 m0 *1 41.23,54.6
X$756 661 651 10 18 652 NAND2_X1
* cell instance $760 m0 *1 1.52,46.2
X$760 515 10 18 550 INV_X1
* cell instance $761 m0 *1 1.9,46.2
X$761 540 538 536 18 10 537 HA_X1
* cell instance $762 m0 *1 3.8,46.2
X$762 539 561 550 10 527 18 AOI21_X1
* cell instance $763 m0 *1 4.56,46.2
X$763 517 527 18 10 498 XNOR2_X1
* cell instance $764 m0 *1 5.7,46.2
X$764 552 10 18 553 INV_X1
* cell instance $765 m0 *1 6.08,46.2
X$765 530 517 553 10 529 18 AOI21_X1
* cell instance $769 r0 *1 1.52,46.2
X$769 537 559 536 10 515 18 AOI21_X1
* cell instance $771 r0 *1 2.47,46.2
X$771 551 561 10 18 560 XOR2_X1
* cell instance $776 r0 *1 3.99,46.2
X$776 539 551 561 10 552 18 AOI21_X1
* cell instance $778 r0 *1 4.94,46.2
X$778 10 540 551 601 538 559 18 FA_X1
* cell instance $780 m0 *1 7.22,46.2
X$780 538 529 18 10 541 XNOR2_X1
* cell instance $782 m0 *1 8.74,46.2
X$782 518 516 541 18 10 555 AND3_X1
* cell instance $783 m0 *1 9.69,46.2
X$783 555 557 525 18 531 10 OAI21_X1
* cell instance $784 m0 *1 10.45,46.2
X$784 518 541 516 10 557 18 AOI21_X1
* cell instance $786 r0 *1 8.74,46.2
X$786 562 559 542 10 558 18 AOI21_X1
* cell instance $787 r0 *1 9.5,46.2
X$787 542 578 579 518 558 516 18 10 AOI221_X2
* cell instance $789 m0 *1 11.59,46.2
X$789 518 10 18 543 INV_X1
* cell instance $792 r0 *1 11.59,46.2
X$792 543 538 18 10 578 AND2_X1
* cell instance $793 r0 *1 12.35,46.2
X$793 542 543 10 18 468 NAND2_X1
* cell instance $796 m0 *1 16.34,46.2
X$796 468 10 18 471 BUF_X2
* cell instance $799 m0 *1 17.29,46.2
X$799 519 544 468 18 10 484 AND3_X1
* cell instance $801 m0 *1 18.43,46.2
X$801 519 520 18 10 469 AND2_X1
* cell instance $802 m0 *1 19.19,46.2
X$802 519 545 18 10 472 AND2_X1
* cell instance $806 m0 *1 29.26,46.2
X$806 191 500 556 10 18 577 MUX2_X1
* cell instance $807 m0 *1 30.59,46.2
X$807 485 548 556 18 10 524 HA_X1
* cell instance $808 m0 *1 32.49,46.2
X$808 548 10 18 376 CLKBUF_X2
* cell instance $809 m0 *1 33.25,46.2
X$809 10 593 533 554 411 18 DFF_X1
* cell instance $811 r0 *1 16.72,46.2
X$811 525 564 18 10 588 AND2_X1
* cell instance $812 r0 *1 17.48,46.2
X$812 564 563 836 18 10 545 HA_X1
* cell instance $814 r0 *1 19.57,46.2
X$814 519 565 18 10 481 AND2_X1
* cell instance $815 r0 *1 20.33,46.2
X$815 566 582 18 10 470 AND2_X1
* cell instance $817 r0 *1 21.47,46.2
X$817 546 547 10 18 582 NOR2_X1
* cell instance $820 r0 *1 22.61,46.2
X$820 566 567 18 10 473 AND2_X1
* cell instance $822 r0 *1 23.75,46.2
X$822 566 546 547 10 18 483 NOR3_X1
* cell instance $826 r0 *1 26.98,46.2
X$826 525 577 18 10 568 AND2_X1
* cell instance $828 r0 *1 27.93,46.2
X$828 485 564 628 18 10 570 HA_X1
* cell instance $832 r0 *1 36.48,46.2
X$832 500 594 10 86 18 NAND2_X4
* cell instance $834 m0 *1 36.86,46.2
X$834 521 547 10 18 554 NOR2_X1
* cell instance $836 r0 *1 38.19,46.2
X$836 10 575 549 576 411 18 DFF_X1
* cell instance $837 m0 *1 38.76,46.2
X$837 522 547 10 18 576 NOR2_X1
* cell instance $839 m0 *1 39.33,46.2
X$839 500 524 10 18 523 NAND2_X1
* cell instance $840 m0 *1 39.9,46.2
X$840 500 524 138 486 10 18 574 NAND4_X1
* cell instance $842 m0 *1 41.04,46.2
X$842 549 10 18 486 BUF_X2
* cell instance $848 r0 *1 41.42,46.2
X$848 597 574 10 18 573 XOR2_X1
* cell instance $849 r0 *1 42.56,46.2
X$849 573 547 10 18 572 NOR2_X1
* cell instance $858 m0 *1 1.52,23.8
X$858 10 717 260 269 207 18 DFF_X1
* cell instance $866 m0 *1 5.13,23.8
X$866 260 131 241 10 18 269 MUX2_X1
* cell instance $867 m0 *1 6.65,23.8
X$867 260 132 246 10 18 288 MUX2_X1
* cell instance $868 m0 *1 7.98,23.8
X$868 286 91 241 10 18 261 MUX2_X1
* cell instance $872 m0 *1 11.78,23.8
X$872 286 80 262 10 18 274 MUX2_X1
* cell instance $873 m0 *1 10.45,23.8
X$873 262 76 241 10 18 273 MUX2_X1
* cell instance $874 m0 *1 13.11,23.8
X$874 274 95 288 10 18 270 MUX2_X1
* cell instance $878 r0 *1 10.64,23.8
X$878 10 805 262 273 207 18 DFF_X1
* cell instance $882 r0 *1 15.2,23.8
X$882 10 785 275 289 187 18 DFF_X1
* cell instance $883 r0 *1 18.43,23.8
X$883 275 13 276 10 18 289 MUX2_X1
* cell instance $893 r0 *1 1.9,12.6
X$893 10 811 157 143 63 18 DFF_X1
* cell instance $897 m0 *1 5.32,12.6
X$897 97 132 98 10 18 145 MUX2_X1
* cell instance $898 m0 *1 3.99,12.6
X$898 97 91 60 10 18 125 MUX2_X1
* cell instance $904 r0 *1 7.41,12.6
X$904 146 131 20 10 18 182 MUX2_X1
* cell instance $905 r0 *1 8.74,12.6
X$905 146 132 158 10 18 133 MUX2_X1
* cell instance $906 m0 *1 9.5,12.6
X$906 115 95 133 10 18 128 MUX2_X1
* cell instance $910 r0 *1 10.07,12.6
X$910 145 95 165 10 18 153 MUX2_X1
* cell instance $912 r0 *1 11.59,12.6
X$912 10 778 134 168 63 18 DFF_X1
* cell instance $913 m0 *1 15.58,12.6
X$913 10 755 117 149 19 18 DFF_X1
* cell instance $914 m0 *1 14.25,12.6
X$914 116 95 166 10 18 126 MUX2_X1
* cell instance $915 m0 *1 18.81,12.6
X$915 117 135 50 10 18 149 MUX2_X1
* cell instance $919 r0 *1 16.53,12.6
X$919 184 118 11 10 18 161 MUX2_X1
* cell instance $921 r0 *1 18.24,12.6
X$921 10 825 119 150 19 18 DFF_X1
* cell instance $922 m0 *1 20.71,12.6
X$922 119 118 20 10 18 150 MUX2_X1
* cell instance $924 m0 *1 22.04,12.6
X$924 81 118 60 10 18 110 MUX2_X1
* cell instance $927 r0 *1 21.47,12.6
X$927 119 80 136 10 18 120 MUX2_X1
* cell instance $928 r0 *1 22.8,12.6
X$928 136 135 51 10 18 151 MUX2_X1
* cell instance $929 r0 *1 24.13,12.6
X$929 10 812 136 151 19 18 DFF_X1
* cell instance $930 m0 *1 25.46,12.6
X$930 96 135 15 10 18 130 MUX2_X1