
* cell spi_master
* pin clk
* pin spi_cs_n
* pin tx_ready
* pin rx_valid
* pin spi_clk
* pin tx_data[0]
* pin tx_data[1]
* pin tx_valid
* pin tx_data[2]
* pin tx_data[6]
* pin tx_data[5]
* pin tx_data[3]
* pin tx_data[4]
* pin NWELL
* pin PWELL
* pin tx_data[7]
* pin spi_mosi
* pin rx_data[7]
* pin rst_n
* pin rx_data[4]
* pin spi_miso
* pin rx_data[1]
* pin rx_data[3]
* pin rx_data[0]
* pin rx_data[6]
* pin rx_data[2]
* pin rx_data[5]
.SUBCKT spi_master 1 2 3 4 5 6 7 8 9 10 11 12 13 20 21 91 107 136 154 178 180
+ 217 251 265 267 271 272
* net 1 clk
* net 2 spi_cs_n
* net 3 tx_ready
* net 4 rx_valid
* net 5 spi_clk
* net 6 tx_data[0]
* net 7 tx_data[1]
* net 8 tx_valid
* net 9 tx_data[2]
* net 10 tx_data[6]
* net 11 tx_data[5]
* net 12 tx_data[3]
* net 13 tx_data[4]
* net 20 NWELL
* net 21 PWELL
* net 91 tx_data[7]
* net 107 spi_mosi
* net 136 rx_data[7]
* net 154 rst_n
* net 178 rx_data[4]
* net 180 spi_miso
* net 217 rx_data[1]
* net 251 rx_data[3]
* net 265 rx_data[0]
* net 267 rx_data[6]
* net 271 rx_data[2]
* net 272 rx_data[5]
* cell instance $3 r0 *1 22.42,21
X$3 1 21 20 115 CLKBUF_X3
* cell instance $8 r0 *1 7.98,1.4
X$8 24 21 20 2 BUF_X1
* cell instance $13 m0 *1 8.74,4.2
X$13 26 21 20 3 BUF_X1
* cell instance $20 r0 *1 16.34,1.4
X$20 37 21 20 4 BUF_X1
* cell instance $26 m0 *1 17.48,4.2
X$26 71 21 20 5 BUF_X1
* cell instance $36 r0 *1 19.57,1.4
X$36 6 21 20 15 BUF_X1
* cell instance $41 r0 *1 21.47,1.4
X$41 7 21 20 16 BUF_X1
* cell instance $44 r0 *1 22.42,1.4
X$44 8 21 20 28 CLKBUF_X2
* cell instance $54 r0 *1 26.41,1.4
X$54 9 21 20 43 BUF_X1
* cell instance $56 r0 *1 28.88,1.4
X$56 10 21 20 22 BUF_X1
* cell instance $62 r0 *1 32.11,1.4
X$62 11 21 20 31 BUF_X1
* cell instance $68 r0 *1 32.68,1.4
X$68 12 21 20 41 BUF_X1
* cell instance $78 r0 *1 33.63,1.4
X$78 13 21 20 19 BUF_X1
* cell instance $91 r0 *1 6.08,15.4
X$91 21 121 14 122 119 20 DFF_X2
* cell instance $94 m0 *1 13.87,4.2
X$94 21 277 37 38 14 20 DFF_X1
* cell instance $97 r0 *1 4.37,18.2
X$97 21 295 130 137 14 20 DFF_X1
* cell instance $99 m0 *1 8.17,12.6
X$99 21 278 92 96 14 20 DFF_X1
* cell instance $101 r0 *1 18.62,12.6
X$101 14 21 20 309 INV_X1
* cell instance $103 r0 *1 17.86,4.2
X$103 21 292 17 60 14 20 DFF_X1
* cell instance $106 r0 *1 17.67,12.6
X$106 115 21 20 14 CLKBUF_X3
* cell instance $109 r0 *1 4.75,4.2
X$109 21 294 24 35 14 20 DFF_X1
* cell instance $112 m0 *1 9.31,4.2
X$112 21 279 26 34 14 20 DFF_X1
* cell instance $115 m0 *1 14.06,9.8
X$115 21 84 14 76 71 20 DFF_X2
* cell instance $118 m0 *1 7.41,9.8
X$118 21 283 70 65 14 20 DFF_X1
* cell instance $121 r0 *1 19.57,7
X$121 15 86 67 28 21 20 61 NAND4_X1
* cell instance $124 m0 *1 20.9,4.2
X$124 16 23 17 21 20 45 MUX2_X1
* cell instance $126 r0 *1 21.28,4.2
X$126 46 49 17 20 62 21 OAI21_X1
* cell instance $139 r0 *1 29.07,12.6
X$139 115 21 20 18 CLKBUF_X3
* cell instance $142 r0 *1 29.45,7
X$142 21 304 72 69 18 20 DFF_X1
* cell instance $144 r0 *1 26.03,18.2
X$144 21 301 125 135 18 20 DFF_X1
* cell instance $146 m0 *1 36.48,4.2
X$146 21 274 50 33 18 20 DFF_X1
* cell instance $149 m0 *1 25.65,18.2
X$149 21 281 126 123 18 20 DFF_X1
* cell instance $151 r0 *1 24.51,12.6
X$151 21 299 109 105 18 20 DFF_X1
* cell instance $153 m0 *1 29.26,4.2
X$153 21 285 39 44 18 20 DFF_X1
* cell instance $156 m0 *1 23.37,4.2
X$156 21 290 29 42 18 20 DFF_X1
* cell instance $159 m0 *1 37.24,9.8
X$159 21 275 73 83 18 20 DFF_X1
* cell instance $161 m0 *1 34.39,15.4
X$161 21 288 106 114 18 20 DFF_X1
* cell instance $163 r0 *1 30.78,12.6
X$163 21 293 94 100 18 20 DFF_X1
* cell instance $165 m0 *1 34.96,18.2
X$165 21 289 128 129 18 20 DFF_X1
* cell instance $168 r0 *1 33.82,4.2
X$168 19 23 50 21 20 68 MUX2_X1
* cell instance $169 r0 *1 7.98,26.6
X$169 122 187 218 20 21 219 HA_X1
* cell instance $172 r0 *1 10.07,26.6
X$172 218 21 20 161 BUF_X2
* cell instance $174 r0 *1 11.02,26.6
X$174 21 192 211 210 219 163 20 NAND4_X4
* cell instance $175 r0 *1 14.44,26.6
X$175 162 21 20 210 INV_X1
* cell instance $177 r0 *1 15.01,26.6
X$177 195 147 210 173 20 212 21 NOR4_X2
* cell instance $187 m0 *1 8.55,29.4
X$187 122 191 208 20 21 206 HA_X1
* cell instance $188 m0 *1 10.45,29.4
X$188 207 208 21 20 211 NOR2_X2
* cell instance $189 m0 *1 11.4,29.4
X$189 162 208 20 21 209 AND2_X1
* cell instance $191 m0 *1 12.54,29.4
X$191 210 219 192 211 20 21 213 AND4_X2
* cell instance $195 m0 *1 15.2,29.4
X$195 212 171 213 197 246 21 20 OAI211_X2
* cell instance $198 m0 *1 17.48,29.4
X$198 150 205 213 197 237 21 20 OAI211_X2
* cell instance $200 r0 *1 18.62,26.6
X$200 161 21 20 195 INV_X1
* cell instance $201 m0 *1 19.19,29.4
X$201 220 197 213 20 21 214 OAI21_X2
* cell instance $203 r0 *1 19.38,26.6
X$203 150 196 213 197 170 21 20 OAI211_X2
* cell instance $206 r0 *1 21.47,26.6
X$206 175 150 195 147 21 20 229 NAND4_X1
* cell instance $207 r0 *1 22.61,26.6
X$207 176 173 195 147 21 20 198 NAND4_X1
* cell instance $208 r0 *1 23.56,26.6
X$208 142 99 198 21 223 20 AOI21_X1
* cell instance $209 r0 *1 24.32,26.6
X$209 195 147 21 20 200 NAND2_X1
* cell instance $210 r0 *1 24.89,26.6
X$210 200 189 214 54 221 223 21 20 222 OAI33_X1
* cell instance $211 r0 *1 26.22,26.6
X$211 21 296 201 222 203 20 DFF_X1
* cell instance $212 r0 *1 29.45,26.6
X$212 201 21 20 221 INV_X1
* cell instance $215 r0 *1 34.39,26.6
X$215 204 55 201 21 20 216 MUX2_X1
* cell instance $216 r0 *1 35.72,26.6
X$216 21 303 204 202 203 20 DFF_X1
* cell instance $218 r0 *1 39.14,26.6
X$218 204 21 20 217 BUF_X1
* cell instance $223 m0 *1 27.55,29.4
X$223 174 173 21 20 225 NAND2_X1
* cell instance $225 m0 *1 28.88,29.4
X$225 115 21 20 203 CLKBUF_X3
* cell instance $226 m0 *1 29.83,29.4
X$226 203 21 20 308 INV_X1
* cell instance $235 r0 *1 9.5,29.4
X$235 122 148 207 20 21 224 HA_X1
* cell instance $237 r0 *1 11.4,29.4
X$237 206 224 20 21 192 AND2_X1
* cell instance $240 r0 *1 16.72,29.4
X$240 150 21 20 232 INV_X1
* cell instance $243 r0 *1 20.9,29.4
X$243 115 21 20 172 CLKBUF_X3
* cell instance $244 r0 *1 21.85,29.4
X$244 172 21 20 310 INV_X2
* cell instance $248 r0 *1 27.17,29.4
X$248 199 200 173 21 20 231 NOR3_X1
* cell instance $258 m0 *1 11.21,32.2
X$258 219 224 21 20 235 NOR2_X1
* cell instance $259 m0 *1 11.78,32.2
X$259 206 21 20 228 INV_X1
* cell instance $260 m0 *1 12.16,32.2
X$260 235 209 228 207 21 20 233 NAND4_X1
* cell instance $261 m0 *1 13.11,32.2
X$261 207 228 209 235 20 21 197 AND4_X2
* cell instance $264 m0 *1 15.58,32.2
X$264 232 194 163 233 252 20 21 AOI211_X2
* cell instance $267 m0 *1 21.85,32.2
X$267 229 173 163 142 21 20 236 NOR4_X1
* cell instance $269 m0 *1 22.99,32.2
X$269 229 189 163 142 21 20 238 NOR4_X1
* cell instance $274 m0 *1 26.79,32.2
X$274 141 21 20 234 INV_X1
* cell instance $276 m0 *1 27.36,32.2
X$276 244 234 231 173 200 214 21 20 239 OAI33_X1
* cell instance $277 r0 *1 28.31,29.4
X$277 199 225 21 20 215 NOR2_X1
* cell instance $278 r0 *1 28.88,29.4
X$278 227 215 214 225 20 21 226 OAI22_X1
* cell instance $283 m0 *1 28.69,32.2
X$283 141 230 21 20 227 NAND2_X1
* cell instance $285 m0 *1 29.45,32.2
X$285 250 21 20 244 INV_X1
* cell instance $290 m0 *1 31.35,32.2
X$290 21 280 230 226 203 20 DFF_X1
* cell instance $293 m0 *1 35.72,32.2
X$293 140 240 20 21 241 AND2_X1
* cell instance $300 r0 *1 15.39,23.8
X$300 155 119 21 20 176 NOR2_X1
* cell instance $304 r0 *1 16.91,23.8
X$304 147 21 20 190 INV_X1
* cell instance $305 r0 *1 17.29,23.8
X$305 158 161 190 182 20 205 21 NOR4_X2
* cell instance $306 r0 *1 19,23.8
X$306 161 147 21 20 174 NOR2_X2
* cell instance $312 m0 *1 15.2,26.6
X$312 155 162 21 20 188 NOR2_X1
* cell instance $313 m0 *1 15.77,26.6
X$313 189 161 190 162 21 20 194 NAND4_X1
* cell instance $315 m0 *1 18.24,26.6
X$315 151 157 150 188 20 21 220 AND4_X1
* cell instance $316 m0 *1 19.38,26.6
X$316 151 189 188 174 20 21 196 AND4_X1
* cell instance $318 m0 *1 23.56,26.6
X$318 176 99 21 20 199 NAND2_X1
* cell instance $326 m0 *1 35.53,26.6
X$326 140 216 20 21 202 AND2_X1
* cell instance $329 r0 *1 40.28,23.8
X$329 177 21 20 178 BUF_X1
* cell instance $333 r0 *1 7.98,4.2
X$333 24 27 21 20 25 NAND2_X1
* cell instance $334 r0 *1 8.55,4.2
X$334 25 58 64 21 20 35 NAND3_X1
* cell instance $336 r0 *1 10.07,4.2
X$336 57 64 21 20 34 NAND2_X1
* cell instance $337 r0 *1 10.64,4.2
X$337 54 27 26 21 57 20 AOI21_X1
* cell instance $348 m0 *1 10.83,7
X$348 54 55 21 20 58 NOR2_X1
* cell instance $350 r0 *1 16.15,4.2
X$350 55 37 27 21 59 20 AOI21_X1
* cell instance $351 r0 *1 15.58,4.2
X$351 59 30 21 20 38 NOR2_X1
* cell instance $359 m0 *1 19.57,7
X$359 54 61 62 21 60 20 AOI21_X1
* cell instance $361 m0 *1 20.71,7
X$361 54 21 20 30 CLKBUF_X3
* cell instance $364 r0 *1 22.42,4.2
X$364 45 46 49 21 20 53 NOR3_X1
* cell instance $366 r0 *1 23.56,4.2
X$366 53 63 30 21 20 42 NOR3_X1
* cell instance $368 r0 *1 25.65,4.2
X$368 29 56 48 21 63 20 AOI21_X1
* cell instance $374 r0 *1 29.83,4.2
X$374 52 51 30 21 20 44 NOR3_X1
* cell instance $375 r0 *1 29.07,4.2
X$375 47 46 49 21 20 52 NOR3_X1
* cell instance $377 r0 *1 31.35,4.2
X$377 39 56 48 21 51 20 AOI21_X1
* cell instance $385 r0 *1 35.72,4.2
X$385 50 56 48 21 32 20 AOI21_X1
* cell instance $399 r0 *1 6.65,21
X$399 160 21 20 155 BUF_X1
* cell instance $401 r0 *1 7.41,21
X$401 21 156 160 159 172 20 DFF_X1
* cell instance $403 r0 *1 12.16,21
X$403 104 124 21 20 189 XNOR2_X2
* cell instance $410 m0 *1 6.08,23.8
X$410 160 130 179 20 21 181 HA_X1
* cell instance $411 m0 *1 7.98,23.8
X$411 155 130 104 21 20 187 NAND3_X1
* cell instance $413 m0 *1 8.93,23.8
X$413 181 20 124 21 BUF_X4
* cell instance $417 m0 *1 12.92,23.8
X$417 124 104 20 173 21 XOR2_X2
* cell instance $422 r0 *1 15.96,21
X$422 156 149 153 158 20 171 21 NOR4_X2
* cell instance $426 r0 *1 26.41,21
X$426 165 138 21 20 186 NOR2_X1
* cell instance $432 m0 *1 15.96,23.8
X$432 156 162 21 20 175 NOR2_X1
* cell instance $433 m0 *1 16.53,23.8
X$433 162 156 21 20 182 OR2_X1
* cell instance $437 m0 *1 21.47,23.8
X$437 174 175 150 173 21 20 164 NAND4_X1
* cell instance $440 m0 *1 23.37,23.8
X$440 174 176 189 113 21 20 169 NAND4_X1
* cell instance $443 m0 *1 25.46,23.8
X$443 163 164 21 20 184 OR2_X1
* cell instance $444 m0 *1 26.22,23.8
X$444 163 164 186 20 185 21 OAI21_X1
* cell instance $445 m0 *1 26.98,23.8
X$445 158 184 185 165 113 20 21 183 OAI221_X1
* cell instance $448 m0 *1 28.69,23.8
X$448 21 282 166 183 203 20 DFF_X1
* cell instance $450 m0 *1 32.3,23.8
X$450 166 140 21 20 165 NAND2_X1
* cell instance $452 m0 *1 33.63,23.8
X$452 177 55 166 21 20 167 MUX2_X1
* cell instance $453 m0 *1 34.96,23.8
X$453 140 167 20 21 168 AND2_X1
* cell instance $455 m0 *1 37.24,23.8
X$455 21 276 177 168 203 20 DFF_X1
* cell instance $465 r0 *1 6.08,23.8
X$465 179 21 20 147 BUF_X2
* cell instance $472 r0 *1 7.98,23.8
X$472 180 21 20 151 CLKBUF_X2
* cell instance $475 m0 *1 8.36,26.6
X$475 119 187 21 20 191 OR2_X1
* cell instance $480 m0 *1 14.25,26.6
X$480 99 155 21 20 193 NAND2_X1
* cell instance $484 r0 *1 7.6,18.2
X$484 145 21 20 140 BUF_X2
* cell instance $485 r0 *1 8.36,18.2
X$485 147 144 130 103 21 20 143 AOI22_X1
* cell instance $493 m0 *1 5.51,21
X$493 154 21 20 145 CLKBUF_X2
* cell instance $496 m0 *1 6.84,21
X$496 144 155 103 21 20 146 MUX2_X1
* cell instance $497 m0 *1 8.17,21
X$497 140 146 20 21 159 AND2_X1
* cell instance $498 m0 *1 8.93,21
X$498 161 144 119 103 21 20 152 AOI22_X1
* cell instance $501 m0 *1 11.59,21
X$501 124 131 104 21 20 148 NAND3_X1
* cell instance $503 r0 *1 11.97,18.2
X$503 119 21 20 131 INV_X1
* cell instance $504 r0 *1 12.54,18.2
X$504 138 66 67 21 144 20 AOI21_X2
* cell instance $507 r0 *1 14.44,18.2
X$507 119 132 307 20 21 153 HA_X1
* cell instance $511 r0 *1 18.05,18.2
X$511 89 88 21 20 138 NAND2_X1
* cell instance $514 m0 *1 16.15,21
X$514 149 153 150 21 20 NOR2_X4
* cell instance $516 m0 *1 18.05,21
X$516 145 88 89 20 21 157 AND3_X1
* cell instance $517 m0 *1 19,21
X$517 21 89 151 145 88 158 20 NAND4_X4
* cell instance $518 r0 *1 19.19,18.2
X$518 145 21 20 133 INV_X1
* cell instance $522 r0 *1 20.14,18.2
X$522 21 141 133 67 86 20 AOI21_X4
* cell instance $523 r0 *1 22.61,18.2
X$523 99 67 86 21 142 20 AOI21_X2
* cell instance $524 r0 *1 23.94,18.2
X$524 169 125 21 20 134 NAND2_X1
* cell instance $525 r0 *1 24.51,18.2
X$525 170 134 54 138 139 21 20 135 AOI221_X1
* cell instance $550 m0 *1 8.17,18.2
X$550 143 30 21 20 137 NOR2_X1
* cell instance $553 m0 *1 9.31,18.2
X$553 152 30 21 20 121 NOR2_X1
* cell instance $556 r0 *1 11.78,15.4
X$556 124 21 20 110 INV_X1
* cell instance $560 r0 *1 15.39,15.4
X$560 112 21 20 162 CLKBUF_X2
* cell instance $564 m0 *1 11.78,18.2
X$564 131 104 124 21 120 20 NAND3_X4
* cell instance $566 m0 *1 14.63,18.2
X$566 120 21 20 132 INV_X1
* cell instance $568 m0 *1 15.2,18.2
X$568 119 120 306 20 21 149 HA_X1
* cell instance $571 r0 *1 19,15.4
X$571 120 86 71 54 21 20 123 NOR4_X1
* cell instance $577 m0 *1 19.38,18.2
X$577 133 21 20 54 CLKBUF_X3
* cell instance $581 m0 *1 24.32,18.2
X$581 27 23 125 20 139 21 OAI21_X1
* cell instance $584 r0 *1 28.88,15.4
X$584 88 21 20 23 CLKBUF_X3
* cell instance $593 m0 *1 30.97,18.2
X$593 126 20 55 21 BUF_X4
* cell instance $596 m0 *1 32.87,18.2
X$596 128 126 125 21 20 127 MUX2_X1
* cell instance $597 m0 *1 34.2,18.2
X$597 140 127 20 21 129 AND2_X1
* cell instance $599 m0 *1 38.57,18.2
X$599 128 21 20 136 BUF_X1
* cell instance $640 m0 *1 26.6,4.2
X$640 43 23 29 21 20 47 MUX2_X1
* cell instance $652 m0 *1 32.87,4.2
X$652 41 23 39 21 20 40 MUX2_X1
* cell instance $657 m0 *1 34.77,4.2
X$657 40 46 49 21 20 36 NOR3_X1
* cell instance $659 m0 *1 35.72,4.2
X$659 36 32 30 21 20 33 NOR3_X1
* cell instance $673 m0 *1 10.07,37.8
X$673 140 262 20 21 261 AND2_X1
* cell instance $675 m0 *1 11.59,37.8
X$675 266 55 248 21 20 262 MUX2_X1
* cell instance $678 m0 *1 14.44,37.8
X$678 21 284 248 245 172 20 DFF_X1
* cell instance $687 r0 *1 30.02,35
X$687 260 55 250 21 20 258 MUX2_X1
* cell instance $689 m0 *1 30.97,37.8
X$689 140 258 20 21 273 AND2_X1
* cell instance $704 r0 *1 9.12,37.8
X$704 21 298 266 261 172 20 DFF_X1
* cell instance $708 r0 *1 17.1,37.8
X$708 21 305 268 264 172 20 DFF_X1
* cell instance $710 r0 *1 20.52,37.8
X$710 268 55 249 21 20 269 MUX2_X1
* cell instance $711 r0 *1 21.85,37.8
X$711 140 269 20 21 264 AND2_X1
* cell instance $713 r0 *1 23.37,37.8
X$713 21 291 270 263 172 20 DFF_X1
* cell instance $721 m0 *1 11.78,40.6
X$721 266 21 20 265 BUF_X1
* cell instance $724 m0 *1 18.81,40.6
X$724 268 21 20 267 BUF_X1
* cell instance $727 m0 *1 26.98,40.6
X$727 270 21 20 271 BUF_X1
* cell instance $728 r0 *1 28.31,37.8
X$728 140 259 20 21 263 AND2_X1
* cell instance $729 r0 *1 26.98,37.8
X$729 270 55 257 21 20 259 MUX2_X1
* cell instance $734 r0 *1 30.21,37.8
X$734 21 300 260 273 203 20 DFF_X1
* cell instance $742 m0 *1 32.49,40.6
X$742 260 21 20 272 BUF_X1
* cell instance $753 r0 *1 15.01,32.2
X$753 193 141 248 21 20 253 NAND3_X1
* cell instance $759 m0 *1 15.01,35
X$759 253 246 252 247 245 21 20 OAI211_X2
* cell instance $760 r0 *1 16.34,32.2
X$760 157 248 21 20 247 NAND2_X1
* cell instance $764 r0 *1 20.71,32.2
X$764 141 249 21 20 243 NAND2_X1
* cell instance $765 r0 *1 21.28,32.2
X$765 236 243 173 237 20 21 254 OAI22_X1
* cell instance $769 m0 *1 19.76,35
X$769 21 286 249 254 172 20 DFF_X1
* cell instance $772 r0 *1 23.37,32.2
X$772 189 237 256 238 20 21 255 OAI22_X1
* cell instance $775 m0 *1 24.7,35
X$775 21 287 257 255 203 20 DFF_X1
* cell instance $777 r0 *1 26.22,32.2
X$777 141 257 21 20 256 NAND2_X1
* cell instance $778 r0 *1 26.98,32.2
X$778 21 297 250 239 203 20 DFF_X1
* cell instance $787 r0 *1 34.58,32.2
X$787 242 55 230 21 20 240 MUX2_X1
* cell instance $789 r0 *1 35.91,32.2
X$789 21 302 242 241 203 20 DFF_X1
* cell instance $791 r0 *1 39.9,32.2
X$791 242 21 20 251 BUF_X1
* cell instance $797 r0 *1 11.4,7
X$797 67 66 21 20 64 NAND2_X1
* cell instance $799 r0 *1 20.52,7
X$799 66 86 27 20 21 46 MUX2_X2
* cell instance $800 r0 *1 22.23,7
X$800 23 28 67 20 21 56 MUX2_X2
* cell instance $805 r0 *1 32.68,7
X$805 31 23 73 21 20 75 MUX2_X1
* cell instance $808 r0 *1 34.96,7
X$808 68 46 49 21 20 74 NOR3_X1
* cell instance $815 r0 *1 8.93,7
X$815 58 64 21 20 65 NAND2_X1
* cell instance $821 m0 *1 10.83,9.8
X$821 70 21 20 27 INV_X2
* cell instance $822 m0 *1 11.4,9.8
X$822 70 20 67 21 BUF_X4
* cell instance $829 m0 *1 20.33,9.8
X$829 28 21 20 66 INV_X1
* cell instance $834 m0 *1 29.45,9.8
X$834 22 88 72 21 20 78 MUX2_X1
* cell instance $835 m0 *1 30.78,9.8
X$835 72 56 48 21 87 20 AOI21_X1
* cell instance $839 m0 *1 31.54,9.8
X$839 80 87 30 21 20 69 NOR3_X1
* cell instance $840 m0 *1 32.3,9.8
X$840 75 46 49 21 20 80 NOR3_X1
* cell instance $843 m0 *1 35.34,9.8
X$843 73 56 48 21 82 20 AOI21_X1
* cell instance $844 m0 *1 36.1,9.8
X$844 74 82 30 21 20 83 NOR3_X1
* cell instance $855 r0 *1 15.77,9.8
X$855 85 54 67 55 21 20 84 NOR4_X1
* cell instance $856 r0 *1 16.72,9.8
X$856 76 21 20 89 BUF_X2
* cell instance $859 r0 *1 18.43,9.8
X$859 99 71 86 21 85 20 AOI21_X1
* cell instance $863 r0 *1 23.94,9.8
X$863 77 21 20 49 BUF_X2
* cell instance $871 m0 *1 11.4,12.6
X$871 92 20 104 21 BUF_X4
* cell instance $875 m0 *1 20.52,12.6
X$875 88 89 20 21 99 AND2_X2
* cell instance $877 m0 *1 22.99,12.6
X$877 88 21 20 86 INV_X2
* cell instance $878 m0 *1 23.56,12.6
X$878 88 90 20 21 77 AND2_X1
* cell instance $881 m0 *1 25.27,12.6
X$881 90 23 21 20 48 NAND2_X2
* cell instance $885 r0 *1 30.4,9.8
X$885 78 46 49 21 20 79 NOR3_X1
* cell instance $888 m0 *1 30.78,12.6
X$888 79 95 30 21 20 100 NOR3_X1
* cell instance $894 m0 *1 32.49,12.6
X$894 94 56 48 21 95 20 AOI21_X1
* cell instance $897 m0 *1 34.39,12.6
X$897 102 23 94 21 20 93 MUX2_X1
* cell instance $898 r0 *1 35.53,9.8
X$898 93 46 49 21 20 81 NOR3_X1
* cell instance $903 m0 *1 35.72,12.6
X$903 106 56 48 21 101 20 AOI21_X1
* cell instance $905 m0 *1 36.67,12.6
X$905 91 21 20 102 BUF_X1
* cell instance $914 r0 *1 9.12,12.6
X$914 103 104 21 20 97 NAND2_X1
* cell instance $915 r0 *1 9.69,12.6
X$915 54 97 108 21 96 20 AOI21_X1
* cell instance $917 r0 *1 11.21,12.6
X$917 66 67 110 104 21 20 98 AOI211_X4
* cell instance $918 r0 *1 13.3,12.6
X$918 111 98 99 20 108 21 OAI21_X1
* cell instance $927 m0 *1 12.54,15.4
X$927 104 110 20 21 111 AND2_X1
* cell instance $930 m0 *1 15.01,15.4
X$930 122 120 112 20 21 116 HA_X1
* cell instance $934 r0 *1 20.52,12.6
X$934 113 28 27 20 21 103 OAI21_X2
* cell instance $936 m0 *1 18.43,15.4
X$936 116 89 71 20 90 21 OAI21_X1
* cell instance $937 m0 *1 19.19,15.4
X$937 71 120 23 20 118 21 OAI21_X1
* cell instance $938 m0 *1 19.95,15.4
X$938 67 88 89 21 20 113 MUX2_X1
* cell instance $941 r0 *1 22.42,12.6
X$941 67 28 21 20 117 NAND2_X1
* cell instance $944 r0 *1 27.74,12.6
X$944 109 20 88 21 BUF_X4
* cell instance $948 r0 *1 35.72,12.6
X$948 81 101 30 21 20 114 NOR3_X1
* cell instance $951 r0 *1 37.43,12.6
X$951 106 21 20 107 BUF_X1
* cell instance $956 m0 *1 22.61,15.4
X$956 54 118 117 21 105 20 AOI21_X1
.ENDS spi_master

* cell AOI221_X1
* pin B2
* pin B1
* pin A
* pin C2
* pin C1
* pin PWELL,VSS
* pin NWELL,VDD
* pin ZN
.SUBCKT AOI221_X1 1 2 3 4 5 6 8 9
* net 1 B2
* net 2 B1
* net 3 A
* net 4 C2
* net 5 C1
* net 6 PWELL,VSS
* net 8 NWELL,VDD
* net 9 ZN
* device instance $1 r0 *1 0.17,0.995 PMOS_VTL
M$1 8 1 7 8 PMOS_VTL L=0.05U W=0.63U AS=0.06615P AD=0.0441P PS=1.47U PD=0.77U
* device instance $2 r0 *1 0.36,0.995 PMOS_VTL
M$2 7 2 8 8 PMOS_VTL L=0.05U W=0.63U AS=0.0441P AD=0.0441P PS=0.77U PD=0.77U
* device instance $3 r0 *1 0.55,0.995 PMOS_VTL
M$3 10 3 7 8 PMOS_VTL L=0.05U W=0.63U AS=0.0441P AD=0.0441P PS=0.77U PD=0.77U
* device instance $4 r0 *1 0.74,0.995 PMOS_VTL
M$4 9 4 10 8 PMOS_VTL L=0.05U W=0.63U AS=0.0441P AD=0.0441P PS=0.77U PD=0.77U
* device instance $5 r0 *1 0.93,0.995 PMOS_VTL
M$5 10 5 9 8 PMOS_VTL L=0.05U W=0.63U AS=0.0441P AD=0.06615P PS=0.77U PD=1.47U
* device instance $6 r0 *1 0.17,0.2975 NMOS_VTL
M$6 12 1 6 6 NMOS_VTL L=0.05U W=0.415U AS=0.043575P AD=0.02905P PS=1.04U
+ PD=0.555U
* device instance $7 r0 *1 0.36,0.2975 NMOS_VTL
M$7 9 2 12 6 NMOS_VTL L=0.05U W=0.415U AS=0.02905P AD=0.02905P PS=0.555U
+ PD=0.555U
* device instance $8 r0 *1 0.55,0.2975 NMOS_VTL
M$8 6 3 9 6 NMOS_VTL L=0.05U W=0.415U AS=0.02905P AD=0.02905P PS=0.555U
+ PD=0.555U
* device instance $9 r0 *1 0.74,0.2975 NMOS_VTL
M$9 11 4 6 6 NMOS_VTL L=0.05U W=0.415U AS=0.02905P AD=0.02905P PS=0.555U
+ PD=0.555U
* device instance $10 r0 *1 0.93,0.2975 NMOS_VTL
M$10 9 5 11 6 NMOS_VTL L=0.05U W=0.415U AS=0.02905P AD=0.043575P PS=0.555U
+ PD=1.04U
.ENDS AOI221_X1

* cell NAND2_X2
* pin A2
* pin A1
* pin PWELL,VSS
* pin NWELL,VDD
* pin ZN
.SUBCKT NAND2_X2 1 2 3 4 5
* net 1 A2
* net 2 A1
* net 3 PWELL,VSS
* net 4 NWELL,VDD
* net 5 ZN
* device instance $1 r0 *1 0.195,0.995 PMOS_VTL
M$1 5 1 4 4 PMOS_VTL L=0.05U W=1.26U AS=0.11025P AD=0.11025P PS=2.24U PD=2.24U
* device instance $2 r0 *1 0.385,0.995 PMOS_VTL
M$2 4 2 5 4 PMOS_VTL L=0.05U W=1.26U AS=0.0882P AD=0.0882P PS=1.54U PD=1.54U
* device instance $5 r0 *1 0.195,0.2975 NMOS_VTL
M$5 7 1 3 3 NMOS_VTL L=0.05U W=0.415U AS=0.043575P AD=0.02905P PS=1.04U
+ PD=0.555U
* device instance $6 r0 *1 0.385,0.2975 NMOS_VTL
M$6 5 2 7 3 NMOS_VTL L=0.05U W=0.415U AS=0.02905P AD=0.02905P PS=0.555U
+ PD=0.555U
* device instance $7 r0 *1 0.575,0.2975 NMOS_VTL
M$7 6 2 5 3 NMOS_VTL L=0.05U W=0.415U AS=0.02905P AD=0.02905P PS=0.555U
+ PD=0.555U
* device instance $8 r0 *1 0.765,0.2975 NMOS_VTL
M$8 3 1 6 3 NMOS_VTL L=0.05U W=0.415U AS=0.02905P AD=0.043575P PS=0.555U
+ PD=1.04U
.ENDS NAND2_X2

* cell DFF_X2
* pin PWELL,VSS
* pin D
* pin CK
* pin QN
* pin Q
* pin NWELL,VDD
.SUBCKT DFF_X2 1 6 8 10 11 16
* net 1 PWELL,VSS
* net 6 D
* net 8 CK
* net 10 QN
* net 11 Q
* net 16 NWELL,VDD
* device instance $1 r0 *1 2.855,0.995 PMOS_VTL
M$1 10 9 16 16 PMOS_VTL L=0.05U W=1.26U AS=0.11025P AD=0.0882P PS=2.24U PD=1.54U
* device instance $3 r0 *1 3.235,0.995 PMOS_VTL
M$3 11 2 16 16 PMOS_VTL L=0.05U W=1.26U AS=0.0882P AD=0.11025P PS=1.54U PD=2.24U
* device instance $5 r0 *1 0.2,0.9275 PMOS_VTL
M$5 16 7 3 16 PMOS_VTL L=0.05U W=0.315U AS=0.033075P AD=0.014175P PS=0.84U
+ PD=0.455U
* device instance $6 r0 *1 0.39,1.04 PMOS_VTL
M$6 17 4 16 16 PMOS_VTL L=0.05U W=0.09U AS=0.014175P AD=0.0063P PS=0.455U
+ PD=0.23U
* device instance $7 r0 *1 0.58,1.04 PMOS_VTL
M$7 17 7 5 16 PMOS_VTL L=0.05U W=0.09U AS=0.01785P AD=0.0063P PS=0.56U PD=0.23U
* device instance $8 r0 *1 0.77,0.975 PMOS_VTL
M$8 18 3 5 16 PMOS_VTL L=0.05U W=0.42U AS=0.01785P AD=0.0294P PS=0.56U PD=0.56U
* device instance $9 r0 *1 0.96,0.975 PMOS_VTL
M$9 16 6 18 16 PMOS_VTL L=0.05U W=0.42U AS=0.0294P AD=0.025725P PS=0.56U
+ PD=0.56U
* device instance $10 r0 *1 1.15,1.0275 PMOS_VTL
M$10 4 5 16 16 PMOS_VTL L=0.05U W=0.315U AS=0.025725P AD=0.0567P PS=0.56U
+ PD=0.99U
* device instance $11 r0 *1 2.135,0.915 PMOS_VTL
M$11 20 3 9 16 PMOS_VTL L=0.05U W=0.09U AS=0.014175P AD=0.0063P PS=0.455U
+ PD=0.23U
* device instance $12 r0 *1 2.325,0.915 PMOS_VTL
M$12 20 2 16 16 PMOS_VTL L=0.05U W=0.09U AS=0.0252P AD=0.0063P PS=0.77U PD=0.23U
* device instance $13 r0 *1 1.565,1.0275 PMOS_VTL
M$13 16 8 7 16 PMOS_VTL L=0.05U W=0.315U AS=0.033075P AD=0.02205P PS=0.84U
+ PD=0.455U
* device instance $14 r0 *1 1.755,1.0275 PMOS_VTL
M$14 19 5 16 16 PMOS_VTL L=0.05U W=0.315U AS=0.02205P AD=0.02205P PS=0.455U
+ PD=0.455U
* device instance $15 r0 *1 1.945,1.0275 PMOS_VTL
M$15 9 7 19 16 PMOS_VTL L=0.05U W=0.315U AS=0.02205P AD=0.014175P PS=0.455U
+ PD=0.455U
* device instance $16 r0 *1 2.515,0.995 PMOS_VTL
M$16 2 9 16 16 PMOS_VTL L=0.05U W=0.63U AS=0.0252P AD=0.06615P PS=0.77U PD=1.47U
* device instance $17 r0 *1 2.855,0.2975 NMOS_VTL
M$17 10 9 1 1 NMOS_VTL L=0.05U W=0.83U AS=0.072625P AD=0.0581P PS=1.595U
+ PD=1.11U
* device instance $19 r0 *1 3.235,0.2975 NMOS_VTL
M$19 11 2 1 1 NMOS_VTL L=0.05U W=0.83U AS=0.0581P AD=0.072625P PS=1.11U
+ PD=1.595U
* device instance $21 r0 *1 0.39,0.31 NMOS_VTL
M$21 12 4 1 1 NMOS_VTL L=0.05U W=0.09U AS=0.0105P AD=0.0063P PS=0.35U PD=0.23U
* device instance $22 r0 *1 0.58,0.31 NMOS_VTL
M$22 12 3 5 1 NMOS_VTL L=0.05U W=0.09U AS=0.012775P AD=0.0063P PS=0.415U
+ PD=0.23U
* device instance $23 r0 *1 1.15,0.25 NMOS_VTL
M$23 4 5 1 1 NMOS_VTL L=0.05U W=0.21U AS=0.016975P AD=0.02205P PS=0.415U
+ PD=0.63U
* device instance $24 r0 *1 0.77,0.2825 NMOS_VTL
M$24 13 7 5 1 NMOS_VTL L=0.05U W=0.275U AS=0.012775P AD=0.01925P PS=0.415U
+ PD=0.415U
* device instance $25 r0 *1 0.96,0.2825 NMOS_VTL
M$25 1 6 13 1 NMOS_VTL L=0.05U W=0.275U AS=0.01925P AD=0.016975P PS=0.415U
+ PD=0.415U
* device instance $26 r0 *1 0.2,0.37 NMOS_VTL
M$26 1 7 3 1 NMOS_VTL L=0.05U W=0.21U AS=0.02205P AD=0.0105P PS=0.63U PD=0.35U
* device instance $27 r0 *1 1.565,0.35 NMOS_VTL
M$27 1 8 7 1 NMOS_VTL L=0.05U W=0.21U AS=0.02205P AD=0.0147P PS=0.63U PD=0.35U
* device instance $28 r0 *1 1.755,0.35 NMOS_VTL
M$28 14 5 1 1 NMOS_VTL L=0.05U W=0.21U AS=0.0147P AD=0.0147P PS=0.35U PD=0.35U
* device instance $29 r0 *1 1.945,0.35 NMOS_VTL
M$29 9 3 14 1 NMOS_VTL L=0.05U W=0.21U AS=0.0147P AD=0.0105P PS=0.35U PD=0.35U
* device instance $30 r0 *1 2.135,0.41 NMOS_VTL
M$30 15 7 9 1 NMOS_VTL L=0.05U W=0.09U AS=0.0105P AD=0.0063P PS=0.35U PD=0.23U
* device instance $31 r0 *1 2.325,0.41 NMOS_VTL
M$31 15 2 1 1 NMOS_VTL L=0.05U W=0.09U AS=0.017675P AD=0.0063P PS=0.555U
+ PD=0.23U
* device instance $32 r0 *1 2.515,0.2975 NMOS_VTL
M$32 2 9 1 1 NMOS_VTL L=0.05U W=0.415U AS=0.017675P AD=0.043575P PS=0.555U
+ PD=1.04U
.ENDS DFF_X2

* cell NAND3_X4
* pin A2
* pin A1
* pin A3
* pin PWELL,VSS
* pin ZN
* pin NWELL,VDD
.SUBCKT NAND3_X4 1 2 3 4 5 6
* net 1 A2
* net 2 A1
* net 3 A3
* net 4 PWELL,VSS
* net 5 ZN
* net 6 NWELL,VDD
* device instance $1 r0 *1 0.21,0.995 PMOS_VTL
M$1 5 3 6 6 PMOS_VTL L=0.05U W=2.52U AS=0.19845P AD=0.19845P PS=3.78U PD=3.78U
* device instance $2 r0 *1 0.4,0.995 PMOS_VTL
M$2 6 1 5 6 PMOS_VTL L=0.05U W=2.52U AS=0.1764P AD=0.1764P PS=3.08U PD=3.08U
* device instance $3 r0 *1 0.59,0.995 PMOS_VTL
M$3 5 2 6 6 PMOS_VTL L=0.05U W=2.52U AS=0.1764P AD=0.1764P PS=3.08U PD=3.08U
* device instance $13 r0 *1 0.21,0.2975 NMOS_VTL
M$13 13 3 4 4 NMOS_VTL L=0.05U W=0.415U AS=0.043575P AD=0.02905P PS=1.04U
+ PD=0.555U
* device instance $14 r0 *1 0.4,0.2975 NMOS_VTL
M$14 12 1 13 4 NMOS_VTL L=0.05U W=0.415U AS=0.02905P AD=0.02905P PS=0.555U
+ PD=0.555U
* device instance $15 r0 *1 0.59,0.2975 NMOS_VTL
M$15 5 2 12 4 NMOS_VTL L=0.05U W=0.415U AS=0.02905P AD=0.02905P PS=0.555U
+ PD=0.555U
* device instance $16 r0 *1 0.78,0.2975 NMOS_VTL
M$16 10 2 5 4 NMOS_VTL L=0.05U W=0.415U AS=0.02905P AD=0.02905P PS=0.555U
+ PD=0.555U
* device instance $17 r0 *1 0.97,0.2975 NMOS_VTL
M$17 8 1 10 4 NMOS_VTL L=0.05U W=0.415U AS=0.02905P AD=0.02905P PS=0.555U
+ PD=0.555U
* device instance $18 r0 *1 1.16,0.2975 NMOS_VTL
M$18 4 3 8 4 NMOS_VTL L=0.05U W=0.415U AS=0.02905P AD=0.02905P PS=0.555U
+ PD=0.555U
* device instance $19 r0 *1 1.35,0.2975 NMOS_VTL
M$19 9 3 4 4 NMOS_VTL L=0.05U W=0.415U AS=0.02905P AD=0.02905P PS=0.555U
+ PD=0.555U
* device instance $20 r0 *1 1.54,0.2975 NMOS_VTL
M$20 7 1 9 4 NMOS_VTL L=0.05U W=0.415U AS=0.02905P AD=0.02905P PS=0.555U
+ PD=0.555U
* device instance $21 r0 *1 1.73,0.2975 NMOS_VTL
M$21 5 2 7 4 NMOS_VTL L=0.05U W=0.415U AS=0.02905P AD=0.02905P PS=0.555U
+ PD=0.555U
* device instance $22 r0 *1 1.92,0.2975 NMOS_VTL
M$22 14 2 5 4 NMOS_VTL L=0.05U W=0.415U AS=0.02905P AD=0.02905P PS=0.555U
+ PD=0.555U
* device instance $23 r0 *1 2.11,0.2975 NMOS_VTL
M$23 11 1 14 4 NMOS_VTL L=0.05U W=0.415U AS=0.02905P AD=0.02905P PS=0.555U
+ PD=0.555U
* device instance $24 r0 *1 2.3,0.2975 NMOS_VTL
M$24 4 3 11 4 NMOS_VTL L=0.05U W=0.415U AS=0.02905P AD=0.043575P PS=0.555U
+ PD=1.04U
.ENDS NAND3_X4

* cell AOI211_X4
* pin C1
* pin C2
* pin B
* pin A
* pin PWELL,VSS
* pin NWELL,VDD
* pin ZN
.SUBCKT AOI211_X4 1 2 3 4 8 9 10
* net 1 C1
* net 2 C2
* net 3 B
* net 4 A
* net 8 PWELL,VSS
* net 9 NWELL,VDD
* net 10 ZN
* device instance $1 r0 *1 0.17,0.995 PMOS_VTL
M$1 6 1 7 9 PMOS_VTL L=0.05U W=0.63U AS=0.06615P AD=0.0441P PS=1.47U PD=0.77U
* device instance $2 r0 *1 0.36,0.995 PMOS_VTL
M$2 7 2 6 9 PMOS_VTL L=0.05U W=0.63U AS=0.0441P AD=0.0441P PS=0.77U PD=0.77U
* device instance $3 r0 *1 0.55,0.995 PMOS_VTL
M$3 11 3 7 9 PMOS_VTL L=0.05U W=0.63U AS=0.0441P AD=0.0441P PS=0.77U PD=0.77U
* device instance $4 r0 *1 0.74,0.995 PMOS_VTL
M$4 9 4 11 9 PMOS_VTL L=0.05U W=0.63U AS=0.0441P AD=0.0441P PS=0.77U PD=0.77U
* device instance $5 r0 *1 0.93,0.995 PMOS_VTL
M$5 5 6 9 9 PMOS_VTL L=0.05U W=1.26U AS=0.0882P AD=0.0882P PS=1.54U PD=1.54U
* device instance $7 r0 *1 1.31,0.995 PMOS_VTL
M$7 10 5 9 9 PMOS_VTL L=0.05U W=2.52U AS=0.1764P AD=0.19845P PS=3.08U PD=3.78U
* device instance $11 r0 *1 0.17,0.2975 NMOS_VTL
M$11 12 1 6 8 NMOS_VTL L=0.05U W=0.415U AS=0.043575P AD=0.02905P PS=1.04U
+ PD=0.555U
* device instance $12 r0 *1 0.36,0.2975 NMOS_VTL
M$12 8 2 12 8 NMOS_VTL L=0.05U W=0.415U AS=0.02905P AD=0.02905P PS=0.555U
+ PD=0.555U
* device instance $13 r0 *1 0.55,0.2975 NMOS_VTL
M$13 6 3 8 8 NMOS_VTL L=0.05U W=0.415U AS=0.02905P AD=0.02905P PS=0.555U
+ PD=0.555U
* device instance $14 r0 *1 0.74,0.2975 NMOS_VTL
M$14 8 4 6 8 NMOS_VTL L=0.05U W=0.415U AS=0.02905P AD=0.02905P PS=0.555U
+ PD=0.555U
* device instance $15 r0 *1 0.93,0.2975 NMOS_VTL
M$15 5 6 8 8 NMOS_VTL L=0.05U W=0.83U AS=0.0581P AD=0.0581P PS=1.11U PD=1.11U
* device instance $17 r0 *1 1.31,0.2975 NMOS_VTL
M$17 10 5 8 8 NMOS_VTL L=0.05U W=1.66U AS=0.1162P AD=0.130725P PS=2.22U
+ PD=2.705U
.ENDS AOI211_X4

* cell AOI21_X2
* pin A
* pin B2
* pin B1
* pin PWELL,VSS
* pin ZN
* pin NWELL,VDD
.SUBCKT AOI21_X2 1 2 3 4 6 7
* net 1 A
* net 2 B2
* net 3 B1
* net 4 PWELL,VSS
* net 6 ZN
* net 7 NWELL,VDD
* device instance $1 r0 *1 0.21,0.995 PMOS_VTL
M$1 7 1 5 7 PMOS_VTL L=0.05U W=1.26U AS=0.11025P AD=0.0882P PS=2.24U PD=1.54U
* device instance $3 r0 *1 0.59,0.995 PMOS_VTL
M$3 6 2 5 7 PMOS_VTL L=0.05U W=1.26U AS=0.0882P AD=0.11025P PS=1.54U PD=2.24U
* device instance $4 r0 *1 0.78,0.995 PMOS_VTL
M$4 5 3 6 7 PMOS_VTL L=0.05U W=1.26U AS=0.0882P AD=0.0882P PS=1.54U PD=1.54U
* device instance $7 r0 *1 0.21,0.2975 NMOS_VTL
M$7 6 1 4 4 NMOS_VTL L=0.05U W=0.83U AS=0.072625P AD=0.0581P PS=1.595U PD=1.11U
* device instance $9 r0 *1 0.59,0.2975 NMOS_VTL
M$9 9 2 4 4 NMOS_VTL L=0.05U W=0.415U AS=0.02905P AD=0.02905P PS=0.555U
+ PD=0.555U