
* cell parameterized_deserializer
* pin load
* pin rst_n
* pin enable
* pin rx_busy
* pin rx_done
* pin parallel_out[0]
* pin clk
* pin serial_in
* pin parallel_out[7]
* pin parallel_out[1]
* pin parallel_out[6]
* pin sync_detected
* pin parallel_out[2]
* pin parallel_out[3]
* pin parallel_out[4]
* pin parallel_out[5]
* pin NWELL
* pin PWELL,gf180mcu_gnd
.SUBCKT parameterized_deserializer 43 44 51 57 63 66 75 76 86 95 108 112 132
+ 133 134 135 136 137
* net 43 load
* net 44 rst_n
* net 51 enable
* net 57 rx_busy
* net 63 rx_done
* net 66 parallel_out[0]
* net 75 clk
* net 76 serial_in
* net 86 parallel_out[7]
* net 95 parallel_out[1]
* net 108 parallel_out[6]
* net 112 sync_detected
* net 132 parallel_out[2]
* net 133 parallel_out[3]
* net 134 parallel_out[4]
* net 135 parallel_out[5]
* net 136 NWELL
* net 137 PWELL,gf180mcu_gnd
* cell instance $7 r0 *1 68.88,45.36
X$7 137 1 34 136 61 gf180mcu_fd_sc_mcu9t5v0__or2_2
* cell instance $9 m0 *1 73.36,35.28
X$9 136 14 137 1 55 40 gf180mcu_fd_sc_mcu9t5v0__oai21_2
* cell instance $12 m0 *1 67.76,15.12
X$12 137 11 1 3 29 136 gf180mcu_fd_sc_mcu9t5v0__dffrnq_2
* cell instance $14 r0 *1 73.36,15.12
X$14 137 136 1 24 gf180mcu_fd_sc_mcu9t5v0__clkinv_2
* cell instance $16 m0 *1 54.32,45.36
X$16 137 1 39 50 26 73 136 gf180mcu_fd_sc_mcu9t5v0__nand4_4
* cell instance $18 m0 *1 81.76,25.2
X$18 14 38 1 33 137 136 6 gf180mcu_fd_sc_mcu9t5v0__and4_2
* cell instance $22 r0 *1 80.08,25.2
X$22 137 40 3 54 2 136 gf180mcu_fd_sc_mcu9t5v0__dffsnq_2
* cell instance $25 r0 *1 112,25.2
X$25 42 136 137 2 gf180mcu_fd_sc_mcu9t5v0__clkbuf_2
* cell instance $27 m0 *1 96.88,15.12
X$27 137 2 11 136 gf180mcu_fd_sc_mcu9t5v0__clkbuf_12
* cell instance $45 m0 *1 76.16,75.6
X$45 137 11 97 3 93 136 gf180mcu_fd_sc_mcu9t5v0__dffrnq_2
* cell instance $48 m0 *1 89.04,55.44
X$48 137 11 70 3 65 136 gf180mcu_fd_sc_mcu9t5v0__dffrnq_2
* cell instance $50 m0 *1 99.12,45.36
X$50 137 11 56 3 59 136 gf180mcu_fd_sc_mcu9t5v0__dffrnq_2
* cell instance $52 r0 *1 72.8,65.52
X$52 137 136 85 3 gf180mcu_fd_sc_mcu9t5v0__clkbuf_3
* cell instance $54 m0 *1 96.88,75.6
X$54 137 11 91 3 99 136 gf180mcu_fd_sc_mcu9t5v0__dffrnq_2
* cell instance $57 r0 *1 54.32,15.12
X$57 137 11 12 3 28 136 gf180mcu_fd_sc_mcu9t5v0__dffrnq_2
* cell instance $59 r0 *1 53.76,95.76
X$59 137 11 123 3 117 136 gf180mcu_fd_sc_mcu9t5v0__dffrnq_2
* cell instance $62 m0 *1 62.16,65.52
X$62 137 11 71 3 81 136 gf180mcu_fd_sc_mcu9t5v0__dffrnq_2
* cell instance $67 r0 *1 78.4,85.68
X$67 137 11 105 3 102 136 gf180mcu_fd_sc_mcu9t5v0__dffrnq_2
* cell instance $69 r0 *1 76.16,95.76
X$69 137 11 121 3 120 136 gf180mcu_fd_sc_mcu9t5v0__dffrnq_2
* cell instance $71 r0 *1 81.76,105.84
X$71 137 11 129 3 128 136 gf180mcu_fd_sc_mcu9t5v0__dffrnq_2
* cell instance $74 r0 *1 61.6,105.84
X$74 137 11 127 3 126 136 gf180mcu_fd_sc_mcu9t5v0__dffrnq_2
* cell instance $77 r0 *1 50.96,75.6
X$77 137 11 68 3 100 136 gf180mcu_fd_sc_mcu9t5v0__dffrnq_2
* cell instance $79 r0 *1 81.76,15.12
X$79 137 11 13 3 8 136 gf180mcu_fd_sc_mcu9t5v0__dffrnq_2
* cell instance $81 m0 *1 99.12,95.76
X$81 137 11 107 3 106 136 gf180mcu_fd_sc_mcu9t5v0__dffrnq_2
* cell instance $86 r0 *1 27.44,25.2
X$86 137 136 9 4 30 gf180mcu_fd_sc_mcu9t5v0__nor2_2
* cell instance $88 m0 *1 19.6,25.2
X$88 137 11 4 10 20 136 gf180mcu_fd_sc_mcu9t5v0__dffrnq_2
* cell instance $90 m0 *1 36.96,15.12
X$90 137 136 4 5 gf180mcu_fd_sc_mcu9t5v0__clkinv_2
* cell instance $92 r0 *1 33.04,25.2
X$92 45 137 136 4 16 138 gf180mcu_fd_sc_mcu9t5v0__addh_1
* cell instance $94 r0 *1 24.08,15.12
X$94 137 136 20 9 14 4 gf180mcu_fd_sc_mcu9t5v0__mux2_2
* cell instance $99 r0 *1 42.56,25.2
X$99 137 39 22 5 15 136 gf180mcu_fd_sc_mcu9t5v0__addh_2
* cell instance $103 m0 *1 90.16,15.12
X$103 137 6 7 136 8 gf180mcu_fd_sc_mcu9t5v0__or2_2
* cell instance $106 r0 *1 101.92,15.12
X$106 136 13 18 137 7 gf180mcu_fd_sc_mcu9t5v0__and2_2
* cell instance $123 r0 *1 15.12,95.76
X$123 137 11 115 10 114 136 gf180mcu_fd_sc_mcu9t5v0__dffrnq_2
* cell instance $125 m0 *1 35.28,45.36
X$125 137 11 48 10 46 136 gf180mcu_fd_sc_mcu9t5v0__dffrnq_2
* cell instance $127 r0 *1 37.52,105.84
X$127 137 11 125 10 131 136 gf180mcu_fd_sc_mcu9t5v0__dffrnq_2
* cell instance $129 r0 *1 34.72,95.76
X$129 137 11 122 10 116 136 gf180mcu_fd_sc_mcu9t5v0__dffrnq_2
* cell instance $131 r0 *1 8.4,105.84
X$131 137 11 124 10 130 136 gf180mcu_fd_sc_mcu9t5v0__dffrnq_2
* cell instance $133 m0 *1 2.24,85.68
X$133 137 11 98 10 113 136 gf180mcu_fd_sc_mcu9t5v0__dffrnq_2
* cell instance $135 m0 *1 5.6,65.52
X$135 137 11 72 10 77 136 gf180mcu_fd_sc_mcu9t5v0__dffrnq_2
* cell instance $137 m0 *1 33.04,65.52
X$137 137 136 10 gf180mcu_fd_sc_mcu9t5v0__inv_3
* cell instance $139 r0 *1 28.56,65.52
X$139 137 136 85 10 gf180mcu_fd_sc_mcu9t5v0__clkbuf_3
* cell instance $141 r0 *1 36.4,65.52
X$141 137 11 80 10 84 136 gf180mcu_fd_sc_mcu9t5v0__dffrnq_2
* cell instance $145 r0 *1 32.48,15.12
X$145 137 11 16 10 27 136 gf180mcu_fd_sc_mcu9t5v0__dffrnq_2
* cell instance $147 r0 *1 4.48,55.44
X$147 137 11 67 10 74 136 gf180mcu_fd_sc_mcu9t5v0__dffrnq_2
* cell instance $149 r0 *1 14.56,75.6
X$149 137 11 101 10 94 136 gf180mcu_fd_sc_mcu9t5v0__dffrnq_2
* cell instance $219 m0 *1 54.88,55.44
X$219 137 60 12 136 68 80 gf180mcu_fd_sc_mcu9t5v0__nand3_2
* cell instance $221 r0 *1 57.68,35.28
X$221 12 49 50 39 137 136 33 gf180mcu_fd_sc_mcu9t5v0__and4_2
* cell instance $223 r0 *1 57.68,25.2
X$223 137 12 136 23 32 14 gf180mcu_fd_sc_mcu9t5v0__aoi21_2
* cell instance $226 m0 *1 68.32,35.28
X$226 137 136 12 31 55 gf180mcu_fd_sc_mcu9t5v0__nand2_2
* cell instance $230 r0 *1 101.92,25.2
X$230 136 13 137 19 52 36 25 gf180mcu_fd_sc_mcu9t5v0__oai22_2
* cell instance $234 m0 *1 94.08,45.36
X$234 137 136 26 53 13 gf180mcu_fd_sc_mcu9t5v0__nand2_2
* cell instance $247 r0 *1 73.92,25.2
X$247 14 136 38 33 137 35 gf180mcu_fd_sc_mcu9t5v0__and3_2
* cell instance $249 m0 *1 38.64,25.2
X$249 136 21 137 30 15 27 14 gf180mcu_fd_sc_mcu9t5v0__oai22_2
* cell instance $253 r0 *1 38.64,35.28
X$253 137 136 46 47 14 48 gf180mcu_fd_sc_mcu9t5v0__mux2_2
* cell instance $255 r0 *1 91.28,35.28
X$255 137 41 136 62 54 25 14 gf180mcu_fd_sc_mcu9t5v0__aoi22_2
* cell instance $257 m0 *1 53.76,25.2
X$257 137 136 14 21 22 gf180mcu_fd_sc_mcu9t5v0__nand2_2
* cell instance $260 m0 *1 94.64,35.28
X$260 137 136 26 14 gf180mcu_fd_sc_mcu9t5v0__buf_4
* cell instance $262 m0 *1 97.44,25.2
X$262 137 136 14 18 17 gf180mcu_fd_sc_mcu9t5v0__nand2_2
* cell instance $270 m0 *1 48.72,25.2
X$270 137 136 16 15 gf180mcu_fd_sc_mcu9t5v0__clkinv_2
* cell instance $281 m0 *1 94.08,25.2
X$281 137 136 25 17 gf180mcu_fd_sc_mcu9t5v0__clkinv_2
* cell instance $283 m0 *1 71.68,25.2
X$283 136 17 137 34 35 29 24 gf180mcu_fd_sc_mcu9t5v0__oai22_2
* cell instance $289 m0 *1 102.48,25.2
X$289 137 136 26 19 25 gf180mcu_fd_sc_mcu9t5v0__nand2_2
* cell instance $301 m0 *1 61.6,25.2
X$301 136 31 137 28 33 24 23 gf180mcu_fd_sc_mcu9t5v0__oai31_2
* cell instance $318 r0 *1 106.96,15.12
X$318 37 136 137 25 gf180mcu_fd_sc_mcu9t5v0__buf_2
* cell instance $332 m0 *1 110.32,25.2
X$332 137 136 51 26 gf180mcu_fd_sc_mcu9t5v0__clkbuf_3
* cell instance $335 r0 *1 81.76,35.28
X$335 137 136 40 34 26 gf180mcu_fd_sc_mcu9t5v0__nand2_2
* cell instance $352 m0 *1 33.6,35.28
X$352 30 137 136 48 45 47 gf180mcu_fd_sc_mcu9t5v0__addh_1
* cell instance $360 m0 *1 58.8,35.28
X$360 49 136 50 39 137 32 gf180mcu_fd_sc_mcu9t5v0__and3_2
* cell instance $372 m0 *1 84,55.44
X$372 137 136 70 64 34 gf180mcu_fd_sc_mcu9t5v0__nand2_2
* cell instance $380 r0 *1 104.16,45.36
X$380 137 40 136 36 58 62 56 gf180mcu_fd_sc_mcu9t5v0__aoi22_2
* cell instance $384 m0 *1 105.84,35.28
X$384 137 37 43 136 gf180mcu_fd_sc_mcu9t5v0__dlyc_2
* cell instance $389 m0 *1 73.92,45.36
X$389 137 136 71 38 gf180mcu_fd_sc_mcu9t5v0__clkinv_2
* cell instance $407 m0 *1 91.28,35.28
X$407 137 136 40 41 gf180mcu_fd_sc_mcu9t5v0__clkinv_2
* cell instance $415 r0 *1 105.84,35.28
X$415 137 42 44 136 gf180mcu_fd_sc_mcu9t5v0__dlyc_2
* cell instance $436 r0 *1 53.2,35.28
X$436 137 136 48 50 gf180mcu_fd_sc_mcu9t5v0__clkinv_3
* cell instance $440 m0 *1 52.64,65.52
X$440 49 137 136 68 80 82 gf180mcu_fd_sc_mcu9t5v0__addh_1
* cell instance $456 r0 *1 113.12,45.36
X$456 137 136 56 52 gf180mcu_fd_sc_mcu9t5v0__clkinv_2
* cell instance $462 r0 *1 101.92,75.6
X$462 137 136 99 91 53 97 gf180mcu_fd_sc_mcu9t5v0__mux2_2
* cell instance $464 m0 *1 103.6,65.52
X$464 137 53 62 136 gf180mcu_fd_sc_mcu9t5v0__clkbuf_8
* cell instance $474 m0 *1 109.76,55.44
X$474 56 136 137 57 gf180mcu_fd_sc_mcu9t5v0__dlyb_2
* cell instance $483 r0 *1 97.44,45.36
X$483 137 136 58 59 gf180mcu_fd_sc_mcu9t5v0__clkinv_2
* cell instance $492 m0 *1 62.16,55.44
X$492 136 69 137 81 73 71 60 gf180mcu_fd_sc_mcu9t5v0__oai31_2
* cell instance $494 r0 *1 62.16,55.44
X$494 136 60 69 73 61 71 137 gf180mcu_fd_sc_mcu9t5v0__oai211_2
* cell instance $502 r0 *1 56.56,65.52
X$502 137 90 68 136 73 61 gf180mcu_fd_sc_mcu9t5v0__nand3_2
* cell instance $505 r0 *1 63.84,65.52
X$505 136 137 61 87 73 gf180mcu_fd_sc_mcu9t5v0__nand2_4
* cell instance $517 r0 *1 16.24,85.68
X$517 137 136 113 98 62 101 gf180mcu_fd_sc_mcu9t5v0__mux2_2
* cell instance $519 m0 *1 65.52,105.84
X$519 137 136 126 127 62 123 gf180mcu_fd_sc_mcu9t5v0__mux2_2
* cell instance $521 m0 *1 101.36,85.68
X$521 137 136 106 107 62 105 gf180mcu_fd_sc_mcu9t5v0__mux2_2
* cell instance $523 m0 *1 12.88,55.44
X$523 137 136 74 67 62 72 gf180mcu_fd_sc_mcu9t5v0__mux2_2
* cell instance $525 m0 *1 42.56,105.84
X$525 137 136 131 125 62 122 gf180mcu_fd_sc_mcu9t5v0__mux2_2
* cell instance $527 m0 *1 16.8,105.84
X$527 137 136 130 124 62 115 gf180mcu_fd_sc_mcu9t5v0__mux2_2
* cell instance $529 r0 *1 84.56,45.36
X$529 137 136 62 65 64 gf180mcu_fd_sc_mcu9t5v0__nand2_2
* cell instance $534 m0 *1 85.68,105.84
X$534 137 136 128 129 62 121 gf180mcu_fd_sc_mcu9t5v0__mux2_2
* cell instance $537 r0 *1 109.76,55.44
X$537 70 136 137 63 gf180mcu_fd_sc_mcu9t5v0__dlyb_2
* cell instance $545 m0 *1 2.24,55.44
X$545 67 136 137 66 gf180mcu_fd_sc_mcu9t5v0__dlyb_2
* cell instance $557 m0 *1 58.24,75.6
X$557 136 90 137 89 100 68 gf180mcu_fd_sc_mcu9t5v0__oai21_2
* cell instance $585 r0 *1 24.08,65.52
X$585 137 136 72 88 gf180mcu_fd_sc_mcu9t5v0__clkinv_2
* cell instance $593 m0 *1 66.64,75.6
X$593 137 136 73 89 gf180mcu_fd_sc_mcu9t5v0__buf_4
* cell instance $601 r0 *1 52.08,55.44
X$601 137 136 75 85 gf180mcu_fd_sc_mcu9t5v0__clkbuf_3
* cell instance $605 r0 *1 2.24,65.52
X$605 76 136 137 83 gf180mcu_fd_sc_mcu9t5v0__dlyb_2
* cell instance $609 r0 *1 14,65.52
X$609 136 88 137 87 89 77 92 gf180mcu_fd_sc_mcu9t5v0__oai22_2
* cell instance $612 m0 *1 37.52,65.52
X$612 137 136 80 78 gf180mcu_fd_sc_mcu9t5v0__clkinv_2
* cell instance $614 m0 *1 33.04,75.6
X$614 136 78 137 87 89 84 79 gf180mcu_fd_sc_mcu9t5v0__oai22_2
* cell instance $619 m0 *1 40.88,65.52
X$619 137 136 82 79 gf180mcu_fd_sc_mcu9t5v0__clkinv_2
* cell instance $636 r0 *1 10.64,65.52
X$636 137 136 83 92 gf180mcu_fd_sc_mcu9t5v0__clkinv_2
* cell instance $646 r0 *1 109.76,65.52
X$646 91 136 137 86 gf180mcu_fd_sc_mcu9t5v0__dlyb_2
* cell instance $656 m0 *1 16.8,95.76
X$656 136 110 137 87 89 114 96 gf180mcu_fd_sc_mcu9t5v0__oai22_2
* cell instance $660 m0 *1 16.8,75.6
X$660 136 96 137 87 89 94 88 gf180mcu_fd_sc_mcu9t5v0__oai22_2
* cell instance $664 m0 *1 73.92,85.68
X$664 136 103 137 87 89 102 104 gf180mcu_fd_sc_mcu9t5v0__oai22_2
* cell instance $666 r0 *1 73.92,75.6
X$666 136 109 137 87 89 93 103 gf180mcu_fd_sc_mcu9t5v0__oai22_2
* cell instance $668 m0 *1 73.92,95.76
X$668 136 104 137 87 89 120 119 gf180mcu_fd_sc_mcu9t5v0__oai22_2
* cell instance $671 m0 *1 33.04,95.76
X$671 136 118 137 87 89 116 110 gf180mcu_fd_sc_mcu9t5v0__oai22_2
* cell instance $674 m0 *1 50.96,95.76
X$674 136 119 137 87 89 117 118 gf180mcu_fd_sc_mcu9t5v0__oai22_2
* cell instance $726 r0 *1 2.24,75.6
X$726 98 136 137 95 gf180mcu_fd_sc_mcu9t5v0__dlyb_2
* cell instance $731 m0 *1 21.28,85.68
X$731 137 136 101 96 gf180mcu_fd_sc_mcu9t5v0__clkinv_2
* cell instance $738 r0 *1 87.92,75.6
X$738 137 136 97 109 gf180mcu_fd_sc_mcu9t5v0__clkinv_2
* cell instance $763 m0 *1 84.56,85.68
X$763 137 136 105 103 gf180mcu_fd_sc_mcu9t5v0__clkinv_2
* cell instance $769 m0 *1 89.04,95.76
X$769 137 136 121 104 gf180mcu_fd_sc_mcu9t5v0__clkinv_2
* cell instance $783 m0 *1 109.76,85.68
X$783 107 136 137 108 gf180mcu_fd_sc_mcu9t5v0__dlyb_2
* cell instance $799 m0 *1 28,95.76
X$799 137 136 115 110 gf180mcu_fd_sc_mcu9t5v0__clkinv_2
* cell instance $802 r0 *1 104.16,85.68
X$802 111 112 136 137 gf180mcu_fd_sc_mcu9t5v0__dlya_4
* cell instance $804 r0 *1 104.72,95.76
X$804 137 136 111 gf180mcu_fd_sc_mcu9t5v0__tiel
* cell instance $828 m0 *1 50.96,105.84
X$828 137 136 122 118 gf180mcu_fd_sc_mcu9t5v0__clkinv_2
* cell instance $836 m0 *1 70.56,95.76
X$836 137 136 123 119 gf180mcu_fd_sc_mcu9t5v0__clkinv_2
* cell instance $856 m0 *1 20.16,115.92
X$856 124 136 137 132 gf180mcu_fd_sc_mcu9t5v0__dlyb_2
* cell instance $864 m0 *1 45.92,115.92
X$864 125 136 137 133 gf180mcu_fd_sc_mcu9t5v0__dlyb_2
* cell instance $870 m0 *1 66.08,115.92
X$870 127 136 137 134 gf180mcu_fd_sc_mcu9t5v0__dlyb_2
* cell instance $882 m0 *1 92.4,115.92
X$882 129 136 137 135 gf180mcu_fd_sc_mcu9t5v0__dlyb_2
.ENDS parameterized_deserializer

* cell gf180mcu_fd_sc_mcu9t5v0__clkbuf_2
* pin I
* pin NWELL,VDD
* pin PWELL,VSS,gf180mcu_gnd
* pin Z
.SUBCKT gf180mcu_fd_sc_mcu9t5v0__clkbuf_2 1 2 3 5
* net 1 I
* net 2 NWELL,VDD
* net 3 PWELL,VSS,gf180mcu_gnd
* net 5 Z
* device instance $1 r0 *1 0.87,3.78 pmos_5p0
M$1 2 1 4 2 pmos_5p0 L=0.5U W=1.83U AS=0.8052P AD=0.732P PS=4.54U PD=2.63U
* device instance $2 r0 *1 2.17,3.78 pmos_5p0
M$2 5 4 2 2 pmos_5p0 L=0.5U W=3.66U AS=1.2993P AD=1.3725P PS=5.08U PD=6.99U
* device instance $4 r0 *1 0.92,1.23 nmos_5p0
M$4 3 1 4 3 nmos_5p0 L=0.6U W=0.73U AS=0.3212P AD=0.2695P PS=2.34U PD=1.5U
* device instance $5 r0 *1 2.22,1.265 nmos_5p0
M$5 5 4 3 3 nmos_5p0 L=0.6U W=1.6U AS=0.4775P AD=0.56P PS=2.82U PD=3.8U
.ENDS gf180mcu_fd_sc_mcu9t5v0__clkbuf_2

* cell gf180mcu_fd_sc_mcu9t5v0__buf_2
* pin I
* pin NWELL,VDD
* pin PWELL,VSS,gf180mcu_gnd
* pin Z
.SUBCKT gf180mcu_fd_sc_mcu9t5v0__buf_2 1 2 3 5
* net 1 I
* net 2 NWELL,VDD
* net 3 PWELL,VSS,gf180mcu_gnd
* net 5 Z
* device instance $1 r0 *1 0.87,3.78 pmos_5p0
M$1 2 1 4 2 pmos_5p0 L=0.5U W=1.83U AS=0.8052P AD=0.5673P PS=4.54U PD=2.45U
* device instance $2 r0 *1 1.99,3.78 pmos_5p0
M$2 5 4 2 2 pmos_5p0 L=0.5U W=3.66U AS=1.1346P AD=1.3725P PS=4.9U PD=6.99U
* device instance $4 r0 *1 0.92,1.005 nmos_5p0
M$4 3 1 4 3 nmos_5p0 L=0.6U W=1.32U AS=0.5808P AD=0.3432P PS=3.52U PD=1.84U
* device instance $5 r0 *1 2.04,1.005 nmos_5p0
M$5 5 4 3 3 nmos_5p0 L=0.6U W=2.64U AS=0.6864P AD=0.924P PS=3.68U PD=5.36U
.ENDS gf180mcu_fd_sc_mcu9t5v0__buf_2

* cell gf180mcu_fd_sc_mcu9t5v0__and2_2
* pin NWELL,VDD
* pin A1
* pin A2
* pin PWELL,VSS,gf180mcu_gnd
* pin Z
.SUBCKT gf180mcu_fd_sc_mcu9t5v0__and2_2 2 3 4 5 6
* net 2 NWELL,VDD
* net 3 A1
* net 4 A2
* net 5 PWELL,VSS,gf180mcu_gnd
* net 6 Z
* device instance $1 r0 *1 0.885,3.685 pmos_5p0
M$1 1 3 2 2 pmos_5p0 L=0.5U W=1.64U AS=0.7216P AD=0.4264P PS=4.16U PD=2.16U
* device instance $2 r0 *1 1.905,3.685 pmos_5p0
M$2 2 4 1 2 pmos_5p0 L=0.5U W=1.64U AS=0.4264P AD=0.6486P PS=2.16U PD=2.57U
* device instance $3 r0 *1 3.145,3.78 pmos_5p0
M$3 6 1 2 2 pmos_5p0 L=0.5U W=3.66U AS=1.1244P AD=1.281P PS=4.92U PD=6.89U
* device instance $5 r0 *1 0.935,1.005 nmos_5p0
M$5 7 3 1 5 nmos_5p0 L=0.6U W=1.32U AS=0.5808P AD=0.2112P PS=3.52U PD=1.64U
* device instance $6 r0 *1 1.855,1.005 nmos_5p0
M$6 5 4 7 5 nmos_5p0 L=0.6U W=1.32U AS=0.2112P AD=0.3432P PS=1.64U PD=1.84U
* device instance $7 r0 *1 2.975,1.005 nmos_5p0
M$7 6 1 5 5 nmos_5p0 L=0.6U W=2.64U AS=0.6864P AD=0.924P PS=3.68U PD=5.36U
.ENDS gf180mcu_fd_sc_mcu9t5v0__and2_2

* cell gf180mcu_fd_sc_mcu9t5v0__clkbuf_12
* pin PWELL,VSS,gf180mcu_gnd
* pin I
* pin Z
* pin NWELL,VDD
.SUBCKT gf180mcu_fd_sc_mcu9t5v0__clkbuf_12 1 2 4 5
* net 1 PWELL,VSS,gf180mcu_gnd
* net 2 I
* net 4 Z
* net 5 NWELL,VDD
* device instance $1 r0 *1 1.09,3.78 pmos_5p0
M$1 3 2 5 5 pmos_5p0 L=0.5U W=10.98U AS=3.6417P AD=3.5685P PS=16.79U PD=14.88U
* device instance $7 r0 *1 7.99,3.78 pmos_5p0
M$7 4 3 5 5 pmos_5p0 L=0.5U W=21.96U AS=6.9723P AD=7.0455P PS=29.58U PD=31.49U
* device instance $19 r0 *1 1.14,1.095 nmos_5p0
M$19 3 2 1 1 nmos_5p0 L=0.6U W=4.38U AS=1.5154P AD=1.2185P PS=9.5U PD=7.75U
* device instance $25 r0 *1 8.04,1.13 nmos_5p0
M$25 4 3 1 1 nmos_5p0 L=0.6U W=9.6U AS=2.5575P AD=2.64P PS=16.02U PD=17U
.ENDS gf180mcu_fd_sc_mcu9t5v0__clkbuf_12

* cell gf180mcu_fd_sc_mcu9t5v0__oai31_2
* pin NWELL,VDD
* pin B
* pin PWELL,VSS,gf180mcu_gnd
* pin ZN
* pin A2
* pin A1
* pin A3
.SUBCKT gf180mcu_fd_sc_mcu9t5v0__oai31_2 1 2 3 4 5 6 7
* net 1 NWELL,VDD
* net 2 B
* net 3 PWELL,VSS,gf180mcu_gnd
* net 4 ZN
* net 5 A2
* net 6 A1
* net 7 A3
* device instance $1 r0 *1 0.92,3.872 pmos_5p0
M$1 4 2 1 1 pmos_5p0 L=0.5U W=3.29U AS=1.353P AD=0.93765P PS=6.72U PD=4.43U
* device instance $3 r0 *1 3.21,3.78 pmos_5p0
M$3 12 7 1 1 pmos_5p0 L=0.5U W=1.83U AS=0.6292P AD=0.52155P PS=2.55U PD=2.4U
* device instance $4 r0 *1 4.28,3.78 pmos_5p0
M$4 11 5 12 1 pmos_5p0 L=0.5U W=1.83U AS=0.52155P AD=0.5673P PS=2.4U PD=2.45U
* device instance $5 r0 *1 5.4,3.78 pmos_5p0
M$5 4 6 11 1 pmos_5p0 L=0.5U W=1.83U AS=0.5673P AD=0.5673P PS=2.45U PD=2.45U
* device instance $6 r0 *1 6.52,3.78 pmos_5p0
M$6 10 6 4 1 pmos_5p0 L=0.5U W=1.83U AS=0.5673P AD=0.5673P PS=2.45U PD=2.45U
* device instance $7 r0 *1 7.64,3.78 pmos_5p0
M$7 9 5 10 1 pmos_5p0 L=0.5U W=1.83U AS=0.5673P AD=0.52155P PS=2.45U PD=2.4U
* device instance $8 r0 *1 8.71,3.78 pmos_5p0
M$8 1 7 9 1 pmos_5p0 L=0.5U W=1.83U AS=0.52155P AD=0.8052P PS=2.4U PD=4.54U
* device instance $9 r0 *1 0.92,1.005 nmos_5p0
M$9 3 2 8 3 nmos_5p0 L=0.6U W=2.64U AS=0.924P AD=0.6864P PS=5.36U PD=3.68U
* device instance $11 r0 *1 3.16,1.005 nmos_5p0
M$11 4 7 8 3 nmos_5p0 L=0.6U W=2.64U AS=0.6864P AD=1.2342P PS=3.68U PD=5.83U
* device instance $12 r0 *1 4.28,1.005 nmos_5p0
M$12 8 5 4 3 nmos_5p0 L=0.6U W=2.64U AS=0.6864P AD=0.6864P PS=3.68U PD=3.68U
* device instance $13 r0 *1 5.4,1.005 nmos_5p0
M$13 4 6 8 3 nmos_5p0 L=0.6U W=2.64U AS=0.6864P AD=0.6864P PS=3.68U PD=3.68U
.ENDS gf180mcu_fd_sc_mcu9t5v0__oai31_2

* cell gf180mcu_fd_sc_mcu9t5v0__dffsnq_2
* pin PWELL,VSS,gf180mcu_gnd
* pin Q
* pin CLK
* pin D
* pin SETN
* pin NWELL,VDD
.SUBCKT gf180mcu_fd_sc_mcu9t5v0__dffsnq_2 1 5 7 8 13 17
* net 1 PWELL,VSS,gf180mcu_gnd
* net 5 Q
* net 7 CLK
* net 8 D
* net 13 SETN
* net 17 NWELL,VDD
* device instance $1 r0 *1 18.73,3.78 pmos_5p0
M$1 5 4 17 17 pmos_5p0 L=0.5U W=3.66U AS=1.281P AD=1.281P PS=6.89U PD=6.89U
* device instance $3 r0 *1 14.48,3.365 pmos_5p0
M$3 12 13 17 17 pmos_5p0 L=0.5U W=1U AS=0.44P AD=0.26P PS=2.88U PD=1.52U
* device instance $4 r0 *1 15.5,3.365 pmos_5p0
M$4 17 4 12 17 pmos_5p0 L=0.5U W=1U AS=0.26P AD=0.536P PS=1.52U PD=2.57U
* device instance $5 r0 *1 16.74,3.78 pmos_5p0
M$5 4 3 17 17 pmos_5p0 L=0.5U W=1.83U AS=0.536P AD=0.8052P PS=2.57U PD=4.54U
* device instance $6 r0 *1 0.97,3.555 pmos_5p0
M$6 17 7 6 17 pmos_5p0 L=0.5U W=1.38U AS=0.6072P AD=0.3588P PS=3.64U PD=1.9U
* device instance $7 r0 *1 1.99,3.555 pmos_5p0
M$7 2 6 17 17 pmos_5p0 L=0.5U W=1.38U AS=0.3588P AD=0.6072P PS=1.9U PD=3.64U
* device instance $8 r0 *1 11.4,3.365 pmos_5p0
M$8 3 6 11 17 pmos_5p0 L=0.5U W=1U AS=0.44P AD=0.42P PS=2.88U PD=1.84U
* device instance $9 r0 *1 12.74,3.365 pmos_5p0
M$9 12 2 3 17 pmos_5p0 L=0.5U W=1U AS=0.42P AD=0.44P PS=1.84U PD=2.88U
* device instance $10 r0 *1 3.93,3.465 pmos_5p0
M$10 9 8 17 17 pmos_5p0 L=0.5U W=1U AS=0.44P AD=0.3825P PS=2.88U PD=1.765U
* device instance $11 r0 *1 5.195,3.465 pmos_5p0
M$11 10 2 9 17 pmos_5p0 L=0.5U W=1U AS=0.3825P AD=0.26P PS=1.765U PD=1.52U
* device instance $12 r0 *1 6.215,3.465 pmos_5p0
M$12 18 6 10 17 pmos_5p0 L=0.5U W=1U AS=0.26P AD=0.1825P PS=1.52U PD=1.365U
* device instance $13 r0 *1 7.08,3.465 pmos_5p0
M$13 17 11 18 17 pmos_5p0 L=0.5U W=1U AS=0.1825P AD=0.3P PS=1.365U PD=1.6U
* device instance $14 r0 *1 8.18,3.465 pmos_5p0
M$14 11 10 17 17 pmos_5p0 L=0.5U W=1U AS=0.3P AD=0.29P PS=1.6U PD=1.58U
* device instance $15 r0 *1 9.26,3.465 pmos_5p0
M$15 17 13 11 17 pmos_5p0 L=0.5U W=1U AS=0.29P AD=0.7374P PS=1.58U PD=3.75U
* device instance $16 r0 *1 18.68,1.005 nmos_5p0
M$16 5 4 1 1 nmos_5p0 L=0.6U W=2.64U AS=0.924P AD=0.924P PS=5.36U PD=5.36U
* device instance $18 r0 *1 3.88,1.265 nmos_5p0
M$18 9 8 1 1 nmos_5p0 L=0.6U W=0.59U AS=0.2596P AD=0.1534P PS=2.06U PD=1.11U
* device instance $19 r0 *1 5,1.265 nmos_5p0
M$19 10 6 9 1 nmos_5p0 L=0.6U W=0.59U AS=0.1534P AD=0.1711P PS=1.11U PD=1.17U
* device instance $20 r0 *1 6.18,1.265 nmos_5p0
M$20 14 2 10 1 nmos_5p0 L=0.6U W=0.59U AS=0.1711P AD=0.07375P PS=1.17U PD=0.84U
* device instance $21 r0 *1 7.03,1.265 nmos_5p0
M$21 1 11 14 1 nmos_5p0 L=0.6U W=0.59U AS=0.07375P AD=0.22355P PS=0.84U
+ PD=1.435U
* device instance $22 r0 *1 8.37,1.37 nmos_5p0
M$22 15 10 1 1 nmos_5p0 L=0.6U W=0.59U AS=0.22355P AD=0.0708P PS=1.435U PD=0.83U
* device instance $23 r0 *1 9.21,1.37 nmos_5p0
M$23 11 13 15 1 nmos_5p0 L=0.6U W=0.59U AS=0.0708P AD=0.1534P PS=0.83U PD=1.11U
* device instance $24 r0 *1 10.33,1.37 nmos_5p0
M$24 3 2 11 1 nmos_5p0 L=0.6U W=0.59U AS=0.1534P AD=0.1534P PS=1.11U PD=1.11U
* device instance $25 r0 *1 11.45,1.37 nmos_5p0
M$25 12 6 3 1 nmos_5p0 L=0.6U W=0.59U AS=0.1534P AD=0.2596P PS=1.11U PD=2.06U
* device instance $26 r0 *1 0.92,1.27 nmos_5p0
M$26 1 7 6 1 nmos_5p0 L=0.6U W=0.79U AS=0.3476P AD=0.2054P PS=2.46U PD=1.31U
* device instance $27 r0 *1 2.04,1.27 nmos_5p0
M$27 2 6 1 1 nmos_5p0 L=0.6U W=0.79U AS=0.2054P AD=0.3476P PS=1.31U PD=2.46U
* device instance $28 r0 *1 14.61,1.37 nmos_5p0
M$28 16 13 12 1 nmos_5p0 L=0.6U W=0.59U AS=0.2596P AD=0.0708P PS=2.06U PD=0.83U
* device instance $29 r0 *1 15.45,1.37 nmos_5p0
M$29 16 4 1 1 nmos_5p0 L=0.6U W=0.59U AS=0.3789P AD=0.0708P PS=2.06U PD=0.83U
* device instance $30 r0 *1 16.79,1.005 nmos_5p0
M$30 4 3 1 1 nmos_5p0 L=0.6U W=1.32U AS=0.3789P AD=0.5808P PS=2.06U PD=3.52U
.ENDS gf180mcu_fd_sc_mcu9t5v0__dffsnq_2

* cell gf180mcu_fd_sc_mcu9t5v0__dlyc_2
* pin PWELL,VSS,gf180mcu_gnd
* pin Z
* pin I
* pin NWELL,VDD
.SUBCKT gf180mcu_fd_sc_mcu9t5v0__dlyc_2 1 7 11 13
* net 1 PWELL,VSS,gf180mcu_gnd
* net 7 Z
* net 11 I
* net 13 NWELL,VDD
* device instance $1 r0 *1 8.34,3.365 pmos_5p0
M$1 6 5 17 13 pmos_5p0 L=0.5U W=0.36U AS=0.27P AD=0.1584P PS=1.98U PD=1.6U
* device instance $2 r0 *1 8.34,4.085 pmos_5p0
M$2 17 5 13 13 pmos_5p0 L=0.5U W=0.36U AS=0.528P AD=0.27P PS=3.13U PD=1.98U
* device instance $3 r0 *1 10.14,3.785 pmos_5p0
M$3 7 6 13 13 pmos_5p0 L=0.5U W=3.66U AS=1.14105P AD=1.41825P PS=5.63U PD=7.04U
* device instance $5 r0 *1 4.34,3.365 pmos_5p0
M$5 4 3 14 13 pmos_5p0 L=0.5U W=0.36U AS=0.27P AD=0.1584P PS=1.98U PD=1.6U
* device instance $6 r0 *1 6.18,3.365 pmos_5p0
M$6 16 4 5 13 pmos_5p0 L=0.5U W=0.36U AS=0.1584P AD=0.27P PS=1.6U PD=1.98U
* device instance $7 r0 *1 4.34,4.085 pmos_5p0
M$7 13 3 14 13 pmos_5p0 L=0.5U W=0.36U AS=0.27P AD=0.2412P PS=1.98U PD=1.7U
* device instance $8 r0 *1 6.18,4.085 pmos_5p0
M$8 13 4 16 13 pmos_5p0 L=0.5U W=0.36U AS=0.27P AD=0.2412P PS=1.98U PD=1.7U
* device instance $9 r0 *1 2.18,3.365 pmos_5p0
M$9 15 2 3 13 pmos_5p0 L=0.5U W=0.36U AS=0.1584P AD=0.27P PS=1.6U PD=1.98U
* device instance $10 r0 *1 0.87,4.085 pmos_5p0
M$10 13 11 2 13 pmos_5p0 L=0.5U W=0.36U AS=0.1584P AD=0.1458P PS=1.6U PD=1.17U
* device instance $11 r0 *1 2.18,4.085 pmos_5p0
M$11 13 2 15 13 pmos_5p0 L=0.5U W=0.36U AS=0.27P AD=0.1458P PS=1.98U PD=1.17U
* device instance $12 r0 *1 0.92,0.795 nmos_5p0
M$12 1 11 2 1 nmos_5p0 L=0.6U W=0.36U AS=0.1584P AD=0.1278P PS=1.6U PD=1.07U
* device instance $13 r0 *1 2.23,0.795 nmos_5p0
M$13 12 2 1 1 nmos_5p0 L=0.6U W=0.36U AS=0.1278P AD=0.27P PS=1.07U PD=1.98U
* device instance $14 r0 *1 2.23,1.515 nmos_5p0
M$14 3 2 12 1 nmos_5p0 L=0.6U W=0.36U AS=0.27P AD=0.1584P PS=1.98U PD=1.6U
* device instance $15 r0 *1 4.39,0.52 nmos_5p0
M$15 1 3 8 1 nmos_5p0 L=0.6U W=0.36U AS=0.27P AD=0.2232P PS=1.98U PD=1.6U
* device instance $16 r0 *1 6.23,0.52 nmos_5p0
M$16 10 4 1 1 nmos_5p0 L=0.6U W=0.36U AS=0.2232P AD=0.27P PS=1.6U PD=1.98U
* device instance $17 r0 *1 4.39,1.24 nmos_5p0
M$17 4 3 8 1 nmos_5p0 L=0.6U W=0.36U AS=0.27P AD=0.1584P PS=1.98U PD=1.6U
* device instance $18 r0 *1 6.23,1.24 nmos_5p0
M$18 5 4 10 1 nmos_5p0 L=0.6U W=0.36U AS=0.27P AD=0.1584P PS=1.98U PD=1.6U
* device instance $19 r0 *1 8.39,0.525 nmos_5p0
M$19 1 5 9 1 nmos_5p0 L=0.6U W=0.36U AS=0.27P AD=0.408P PS=1.98U PD=2.52U
* device instance $20 r0 *1 8.39,1.245 nmos_5p0
M$20 6 5 9 1 nmos_5p0 L=0.6U W=0.36U AS=0.27P AD=0.1584P PS=1.98U PD=1.6U
* device instance $21 r0 *1 10.19,1.005 nmos_5p0
M$21 7 6 1 1 nmos_5p0 L=0.6U W=2.64U AS=0.7512P AD=0.924P PS=4.36U PD=5.36U
.ENDS gf180mcu_fd_sc_mcu9t5v0__dlyc_2

* cell gf180mcu_fd_sc_mcu9t5v0__or2_2
* pin PWELL,VSS,gf180mcu_gnd
* pin A1
* pin A2
* pin NWELL,VDD
* pin Z
.SUBCKT gf180mcu_fd_sc_mcu9t5v0__or2_2 1 2 4 5 6
* net 1 PWELL,VSS,gf180mcu_gnd
* net 2 A1
* net 4 A2
* net 5 NWELL,VDD
* net 6 Z
* device instance $1 r0 *1 0.97,3.78 pmos_5p0
M$1 7 2 3 5 pmos_5p0 L=0.5U W=1.83U AS=0.8052P AD=0.52155P PS=4.54U PD=2.4U
* device instance $2 r0 *1 2.04,3.78 pmos_5p0
M$2 5 4 7 5 pmos_5p0 L=0.5U W=1.83U AS=0.52155P AD=0.5673P PS=2.4U PD=2.45U
* device instance $3 r0 *1 3.16,3.78 pmos_5p0
M$3 6 3 5 5 pmos_5p0 L=0.5U W=3.66U AS=1.08885P AD=1.32675P PS=4.85U PD=6.94U
* device instance $5 r0 *1 0.92,1.005 nmos_5p0
M$5 3 2 1 1 nmos_5p0 L=0.6U W=1.32U AS=0.5808P AD=0.3432P PS=3.52U PD=1.84U
* device instance $6 r0 *1 2.04,1.005 nmos_5p0
M$6 1 4 3 1 nmos_5p0 L=0.6U W=1.32U AS=0.3432P AD=0.3432P PS=1.84U PD=1.84U
* device instance $7 r0 *1 3.16,1.005 nmos_5p0
M$7 6 3 1 1 nmos_5p0 L=0.6U W=2.64U AS=0.6864P AD=0.924P PS=3.68U PD=5.36U
.ENDS gf180mcu_fd_sc_mcu9t5v0__or2_2

* cell gf180mcu_fd_sc_mcu9t5v0__aoi22_2
* pin PWELL,VSS,gf180mcu_gnd
* pin B2
* pin NWELL,VDD
* pin B1
* pin ZN
* pin A2
* pin A1
.SUBCKT gf180mcu_fd_sc_mcu9t5v0__aoi22_2 1 2 3 4 5 7 8
* net 1 PWELL,VSS,gf180mcu_gnd
* net 2 B2
* net 3 NWELL,VDD
* net 4 B1
* net 5 ZN
* net 7 A2
* net 8 A1
* device instance $1 r0 *1 0.87,3.78 pmos_5p0
M$1 3 2 6 3 pmos_5p0 L=0.5U W=3.66U AS=1.281P AD=0.9516P PS=6.89U PD=4.7U
* device instance $2 r0 *1 1.89,3.78 pmos_5p0
M$2 6 4 3 3 pmos_5p0 L=0.5U W=3.66U AS=0.9516P AD=0.9516P PS=4.7U PD=4.7U
* device instance $5 r0 *1 4.95,3.78 pmos_5p0
M$5 5 7 6 3 pmos_5p0 L=0.5U W=3.66U AS=0.9516P AD=1.281P PS=4.7U PD=6.89U
* device instance $6 r0 *1 5.97,3.78 pmos_5p0
M$6 6 8 5 3 pmos_5p0 L=0.5U W=3.66U AS=0.9516P AD=0.9516P PS=4.7U PD=4.7U
* device instance $9 r0 *1 0.92,1.005 nmos_5p0
M$9 12 2 1 1 nmos_5p0 L=0.6U W=1.32U AS=0.5808P AD=0.2112P PS=3.52U PD=1.64U
* device instance $10 r0 *1 1.84,1.005 nmos_5p0
M$10 5 4 12 1 nmos_5p0 L=0.6U W=1.32U AS=0.2112P AD=0.3663P PS=1.64U PD=1.875U
* device instance $11 r0 *1 2.995,1.005 nmos_5p0
M$11 11 4 5 1 nmos_5p0 L=0.6U W=1.32U AS=0.3663P AD=0.1881P PS=1.875U PD=1.605U
* device instance $12 r0 *1 3.88,1.005 nmos_5p0
M$12 1 2 11 1 nmos_5p0 L=0.6U W=1.32U AS=0.1881P AD=0.3432P PS=1.605U PD=1.84U
* device instance $13 r0 *1 5,1.005 nmos_5p0
M$13 10 7 1 1 nmos_5p0 L=0.6U W=1.32U AS=0.3432P AD=0.2112P PS=1.84U PD=1.64U
* device instance $14 r0 *1 5.92,1.005 nmos_5p0
M$14 5 8 10 1 nmos_5p0 L=0.6U W=1.32U AS=0.2112P AD=0.3432P PS=1.64U PD=1.84U
* device instance $15 r0 *1 7.04,1.005 nmos_5p0
M$15 9 8 5 1 nmos_5p0 L=0.6U W=1.32U AS=0.3432P AD=0.2112P PS=1.84U PD=1.64U
* device instance $16 r0 *1 7.96,1.005 nmos_5p0
M$16 1 7 9 1 nmos_5p0 L=0.6U W=1.32U AS=0.2112P AD=0.5808P PS=1.64U PD=3.52U
.ENDS gf180mcu_fd_sc_mcu9t5v0__aoi22_2

* cell gf180mcu_fd_sc_mcu9t5v0__nand2_2
* pin PWELL,VSS,gf180mcu_gnd
* pin NWELL,VDD
* pin A1
* pin ZN
* pin A2
.SUBCKT gf180mcu_fd_sc_mcu9t5v0__nand2_2 1 2 3 4 5
* net 1 PWELL,VSS,gf180mcu_gnd
* net 2 NWELL,VDD
* net 3 A1
* net 4 ZN
* net 5 A2
* device instance $1 r0 *1 0.87,3.857 pmos_5p0
M$1 4 5 2 2 pmos_5p0 L=0.5U W=3.29U AS=1.1515P AD=1.1515P PS=6.335U PD=6.335U
* device instance $2 r0 *1 1.89,3.857 pmos_5p0
M$2 2 3 4 2 pmos_5p0 L=0.5U W=3.29U AS=0.8554P AD=0.8554P PS=4.33U PD=4.33U
* device instance $5 r0 *1 0.92,1.005 nmos_5p0
M$5 7 5 1 1 nmos_5p0 L=0.6U W=1.32U AS=0.5808P AD=0.2112P PS=3.52U PD=1.64U
* device instance $6 r0 *1 1.84,1.005 nmos_5p0
M$6 4 3 7 1 nmos_5p0 L=0.6U W=1.32U AS=0.2112P AD=0.3432P PS=1.64U PD=1.84U
* device instance $7 r0 *1 2.96,1.005 nmos_5p0
M$7 6 3 4 1 nmos_5p0 L=0.6U W=1.32U AS=0.3432P AD=0.2112P PS=1.84U PD=1.64U
* device instance $8 r0 *1 3.88,1.005 nmos_5p0
M$8 1 5 6 1 nmos_5p0 L=0.6U W=1.32U AS=0.2112P AD=0.5808P PS=1.64U PD=3.52U
.ENDS gf180mcu_fd_sc_mcu9t5v0__nand2_2

* cell gf180mcu_fd_sc_mcu9t5v0__addh_2
* pin PWELL,VSS,gf180mcu_gnd
* pin CO
* pin S
* pin A
* pin B
* pin NWELL,VDD
.SUBCKT gf180mcu_fd_sc_mcu9t5v0__addh_2 1 2 6 7 8 10
* net 1 PWELL,VSS,gf180mcu_gnd
* net 2 CO
* net 6 S
* net 7 A
* net 8 B
* net 10 NWELL,VDD
* device instance $1 r0 *1 5.99,3.78 pmos_5p0
M$1 11 8 10 10 pmos_5p0 L=0.5U W=1.83U AS=0.8052P AD=0.52155P PS=4.54U PD=2.4U
* device instance $2 r0 *1 7.06,3.78 pmos_5p0
M$2 5 7 11 10 pmos_5p0 L=0.5U W=1.83U AS=0.52155P AD=0.52155P PS=2.4U PD=2.4U
* device instance $3 r0 *1 8.13,3.78 pmos_5p0
M$3 10 3 5 10 pmos_5p0 L=0.5U W=1.83U AS=0.52155P AD=0.8784P PS=2.4U PD=2.79U
* device instance $4 r0 *1 9.59,3.78 pmos_5p0
M$4 6 5 10 10 pmos_5p0 L=0.5U W=3.66U AS=1.39995P AD=1.32675P PS=5.19U PD=6.94U
* device instance $6 r0 *1 0.94,3.78 pmos_5p0
M$6 2 3 10 10 pmos_5p0 L=0.5U W=3.66U AS=1.3725P AD=1.08885P PS=6.99U PD=4.85U
* device instance $8 r0 *1 3.13,3.78 pmos_5p0
M$8 3 7 10 10 pmos_5p0 L=0.5U W=1.83U AS=0.52155P AD=0.4758P PS=2.4U PD=2.35U
* device instance $9 r0 *1 4.15,3.78 pmos_5p0
M$9 10 8 3 10 pmos_5p0 L=0.5U W=1.83U AS=0.4758P AD=0.8052P PS=2.35U PD=4.54U
* device instance $10 r0 *1 5.94,1.005 nmos_5p0
M$10 5 8 4 1 nmos_5p0 L=0.6U W=1.32U AS=0.5808P AD=0.3432P PS=3.52U PD=1.84U
* device instance $11 r0 *1 7.06,1.005 nmos_5p0
M$11 4 7 5 1 nmos_5p0 L=0.6U W=1.32U AS=0.3432P AD=0.3432P PS=1.84U PD=1.84U
* device instance $12 r0 *1 8.18,1.005 nmos_5p0
M$12 1 3 4 1 nmos_5p0 L=0.6U W=1.32U AS=0.3432P AD=0.5016P PS=1.84U PD=2.08U
* device instance $13 r0 *1 9.54,1.005 nmos_5p0