
* cell parameterized_onehot_counter
* pin count[6]
* pin count[5]
* pin count[4]
* pin enable
* pin count[3]
* pin clk
* pin count[0]
* pin rst_n
* pin count[2]
* pin count[7]
* pin count[1]
.SUBCKT parameterized_onehot_counter 3 5 10 19 22 24 32 34 48 49 50
* net 3 count[6]
* net 5 count[5]
* net 10 count[4]
* net 19 enable
* net 22 count[3]
* net 24 clk
* net 32 count[0]
* net 34 rst_n
* net 48 count[2]
* net 49 count[7]
* net 50 count[1]
* cell instance $210 r0 *1 30.36,24.48
X$210 2 4 1 9 2 1 sky130_fd_sc_hd__clkbuf_4
* cell instance $221 r0 *1 44.62,24.48
X$221 2 7 5 1 2 1 sky130_fd_sc_hd__clkbuf_1
* cell instance $229 m0 *1 12.42,29.92
X$229 2 6 3 1 2 1 sky130_fd_sc_hd__clkbuf_1
* cell instance $232 m0 *1 16.56,29.92
X$232 1 11 6 9 12 2 2 1 sky130_fd_sc_hd__dfrtp_1
* cell instance $233 m0 *1 25.76,29.92
X$233 2 21 15 7 16 1 2 1 sky130_fd_sc_hd__nand3b_1
* cell instance $236 m0 *1 29.44,29.92
X$236 2 7 2 1 8 1 sky130_fd_sc_hd__inv_1
* cell instance $237 m0 *1 30.82,29.92
X$237 1 11 7 9 14 2 2 1 sky130_fd_sc_hd__dfrtp_1
* cell instance $240 m0 *1 45.54,29.92
X$240 2 13 10 1 2 1 sky130_fd_sc_hd__clkbuf_1
* cell instance $252 r0 *1 13.8,29.92
X$252 2 6 15 23 2 1 1 sky130_fd_sc_hd__nand2_1
* cell instance $256 r0 *1 16.1,29.92
X$256 1 11 21 9 28 2 2 1 sky130_fd_sc_hd__dfrtp_2
* cell instance $257 r0 *1 25.76,29.92
X$257 2 18 17 16 2 12 1 1 sky130_fd_sc_hd__o21ai_0
* cell instance $259 r0 *1 28.06,29.92
X$259 2 21 15 13 31 1 2 1 sky130_fd_sc_hd__nand3b_1
* cell instance $261 r0 *1 31.28,29.92
X$261 1 11 13 9 30 2 2 1 sky130_fd_sc_hd__dfrtp_1
* cell instance $273 m0 *1 4.14,35.36
X$273 2 20 32 1 2 1 sky130_fd_sc_hd__clkbuf_1
* cell instance $275 m0 *1 9.2,35.36
X$275 2 19 2 1 15 1 sky130_fd_sc_hd__clkbuf_2
* cell instance $276 m0 *1 11.04,35.36
X$276 1 33 20 25 36 2 2 1 sky130_fd_sc_hd__dfstp_1
* cell instance $279 m0 *1 20.7,35.36
X$279 1 28 23 17 21 2 2 1 sky130_fd_sc_hd__mux2i_1
* cell instance $281 m0 *1 25.3,35.36
X$281 2 24 1 4 2 1 sky130_fd_sc_hd__clkbuf_4
* cell instance $284 m0 *1 29.44,35.36
X$284 2 8 17 31 2 14 1 1 sky130_fd_sc_hd__o21ai_0
* cell instance $285 m0 *1 31.28,35.36
X$285 2 26 17 29 2 30 1 1 sky130_fd_sc_hd__o21ai_0
* cell instance $286 m0 *1 33.12,35.36
X$286 2 21 15 27 29 1 2 1 sky130_fd_sc_hd__nand3b_1
* cell instance $287 m0 *1 35.88,35.36
X$287 2 13 2 1 26 1 sky130_fd_sc_hd__inv_1
* cell instance $292 m0 *1 44.62,35.36
X$292 2 27 22 1 2 1 sky130_fd_sc_hd__clkbuf_1
* cell instance $300 r0 *1 1.38,35.36
X$300 2 35 33 1 2 1 sky130_fd_sc_hd__clkbuf_1
* cell instance $310 r0 *1 15.64,35.36
X$310 1 36 21 20 15 2 2 1 sky130_fd_sc_hd__mux2_1
* cell instance $311 r0 *1 19.78,35.36
X$311 2 33 1 11 2 1 sky130_fd_sc_hd__buf_2
* cell instance $314 r0 *1 23.92,35.36
X$314 1 15 17 2 2 1 sky130_fd_sc_hd__buf_6
* cell instance $316 r0 *1 28.98,35.36
X$316 1 11 27 25 38 2 2 1 sky130_fd_sc_hd__dfrtp_1
* cell instance $328 m0 *1 1.38,40.8
X$328 2 34 2 35 1 1 sky130_fd_sc_hd__dlygate4sd3_1
* cell instance $334 m0 *1 20.7,40.8
X$334 2 21 20 17 46 1 2 1 sky130_fd_sc_hd__nand3b_1
* cell instance $336 m0 *1 25.3,40.8
X$336 2 6 2 1 18 1 sky130_fd_sc_hd__inv_1
* cell instance $338 m0 *1 27.14,40.8
X$338 2 39 2 1 40 1 sky130_fd_sc_hd__inv_1
* cell instance $341 m0 *1 29.44,40.8
X$341 2 37 17 44 2 38 1 1 sky130_fd_sc_hd__o21ai_0
* cell instance $342 m0 *1 31.28,40.8
X$342 2 27 2 1 37 1 sky130_fd_sc_hd__inv_1
* cell instance $362 r0 *1 18.86,40.8
X$362 1 11 39 25 42 2 2 1 sky130_fd_sc_hd__dfrtp_1
* cell instance $363 r0 *1 28.06,40.8
X$363 1 11 43 25 45 2 2 1 sky130_fd_sc_hd__dfrtp_1
* cell instance $381 m0 *1 21.62,46.24
X$381 2 40 17 46 2 42 1 1 sky130_fd_sc_hd__o21ai_0
* cell instance $384 m0 *1 26.22,46.24
X$384 2 21 17 39 41 1 2 1 sky130_fd_sc_hd__nand3b_1
* cell instance $386 m0 *1 29.44,46.24
X$386 2 47 17 41 2 45 1 1 sky130_fd_sc_hd__o21ai_0
* cell instance $387 m0 *1 31.28,46.24
X$387 2 21 17 43 44 1 2 1 sky130_fd_sc_hd__nand3b_1
* cell instance $388 m0 *1 34.04,46.24
X$388 2 43 2 1 47 1 sky130_fd_sc_hd__inv_1
* cell instance $410 r0 *1 22.08,46.24
X$410 2 4 1 25 2 1 sky130_fd_sc_hd__clkbuf_4
* cell instance $411 r0 *1 24.84,46.24
X$411 2 25 51 1 2 1 sky130_fd_sc_hd__clkbuf_1
* cell instance $449 r0 *1 32.66,51.68
X$449 2 21 49 1 2 1 sky130_fd_sc_hd__clkbuf_1
* cell instance $453 r0 *1 36.34,51.68
X$453 2 43 48 1 2 1 sky130_fd_sc_hd__clkbuf_1
* cell instance $487 m0 *1 27.6,57.12
X$487 2 39 50 1 2 1 sky130_fd_sc_hd__clkbuf_1
.ENDS parameterized_onehot_counter

* cell sky130_fd_sc_hd__clkbuf_2
* pin VPB
* pin A
* pin VPWR
* pin VGND
* pin X
* pin 
.SUBCKT sky130_fd_sc_hd__clkbuf_2 1 2 3 4 6 7
* net 1 VPB
* net 2 A
* net 3 VPWR
* net 4 VGND
* net 6 X
* device instance $1 r0 *1 0.475,1.985 pfet_01v8_hvt
M$1 3 2 5 1 pfet_01v8_hvt L=150000U W=1000000U AS=265000000000P
+ AD=162500000000P PS=2530000U PD=1325000U
* device instance $2 r0 *1 0.95,1.985 pfet_01v8_hvt
M$2 6 5 3 1 pfet_01v8_hvt L=150000U W=2000000U AS=297500000000P
+ AD=395000000000P PS=2595000U PD=3790000U
* device instance $4 r0 *1 0.475,0.445 nfet_01v8
M$4 4 2 5 7 nfet_01v8 L=150000U W=420000U AS=111300000000P AD=68250000000P
+ PS=1370000U PD=745000U
* device instance $5 r0 *1 0.95,0.445 nfet_01v8
M$5 6 5 4 7 nfet_01v8 L=150000U W=840000U AS=124950000000P AD=165900000000P
+ PS=1435000U PD=2050000U
.ENDS sky130_fd_sc_hd__clkbuf_2

* cell sky130_fd_sc_hd__dlygate4sd3_1
* pin VPB
* pin A
* pin VPWR
* pin X
* pin VGND
* pin 
.SUBCKT sky130_fd_sc_hd__dlygate4sd3_1 1 3 5 7 8 9
* net 1 VPB
* net 3 A
* net 5 VPWR
* net 7 X
* net 8 VGND
* device instance $1 r0 *1 2.465,2.275 pfet_01v8_hvt
M$1 6 2 5 1 pfet_01v8_hvt L=500000U W=420000U AS=140750000000P AD=109200000000P
+ PS=1325000U PD=1360000U
* device instance $2 r0 *1 3.115,1.985 pfet_01v8_hvt
M$2 7 6 5 1 pfet_01v8_hvt L=150000U W=1000000U AS=140750000000P
+ AD=260000000000P PS=1325000U PD=2520000U
* device instance $3 r0 *1 0.58,2.275 pfet_01v8_hvt
M$3 5 3 4 1 pfet_01v8_hvt L=150000U W=420000U AS=109200000000P AD=56700000000P
+ PS=1360000U PD=690000U
* device instance $4 r0 *1 1.175,2.275 pfet_01v8_hvt
M$4 2 4 5 1 pfet_01v8_hvt L=500000U W=420000U AS=56700000000P AD=109200000000P
+ PS=690000U PD=1360000U
* device instance $5 r0 *1 2.465,0.445 nfet_01v8
M$5 8 2 6 9 nfet_01v8 L=500000U W=420000U AS=109200000000P AD=97000000000P
+ PS=1360000U PD=975000U
* device instance $6 r0 *1 3.115,0.56 nfet_01v8
M$6 7 6 8 9 nfet_01v8 L=150000U W=650000U AS=97000000000P AD=169000000000P
+ PS=975000U PD=1820000U
* device instance $7 r0 *1 0.58,0.445 nfet_01v8
M$7 8 3 4 9 nfet_01v8 L=150000U W=420000U AS=109200000000P AD=56700000000P
+ PS=1360000U PD=690000U
* device instance $8 r0 *1 1.175,0.445 nfet_01v8
M$8 2 4 8 9 nfet_01v8 L=500000U W=420000U AS=56700000000P AD=109200000000P
+ PS=690000U PD=1360000U
.ENDS sky130_fd_sc_hd__dlygate4sd3_1

* cell sky130_fd_sc_hd__buf_2
* pin VPB
* pin A
* pin VGND
* pin X
* pin VPWR
* pin 
.SUBCKT sky130_fd_sc_hd__buf_2 1 3 4 5 6 7
* net 1 VPB
* net 3 A
* net 4 VGND
* net 5 X
* net 6 VPWR
* device instance $1 r0 *1 0.47,2.125 pfet_01v8_hvt
M$1 2 3 6 1 pfet_01v8_hvt L=150000U W=640000U AS=149000000000P AD=166400000000P
+ PS=1325000U PD=1800000U
* device instance $2 r0 *1 0.945,1.985 pfet_01v8_hvt
M$2 5 2 6 1 pfet_01v8_hvt L=150000U W=2000000U AS=284000000000P
+ AD=400000000000P PS=2595000U PD=3800000U
* device instance $4 r0 *1 0.47,0.445 nfet_01v8
M$4 4 3 2 7 nfet_01v8 L=150000U W=420000U AS=109200000000P AD=97000000000P
+ PS=1360000U PD=975000U
* device instance $5 r0 *1 0.945,0.56 nfet_01v8
M$5 5 2 4 7 nfet_01v8 L=150000U W=1300000U AS=184750000000P AD=260000000000P
+ PS=1895000U PD=2750000U
.ENDS sky130_fd_sc_hd__buf_2

* cell sky130_fd_sc_hd__dfstp_1
* pin VGND
* pin SET_B
* pin Q
* pin CLK
* pin D
* pin VPB
* pin VPWR
* pin 
.SUBCKT sky130_fd_sc_hd__dfstp_1 1 6 11 17 18 19 20 24
* net 1 VGND
* net 6 SET_B
* net 11 Q
* net 17 CLK
* net 18 D
* net 19 VPB
* net 20 VPWR
* device instance $1 r0 *1 6.925,2.275 pfet_01v8_hvt
M$1 8 6 20 19 pfet_01v8_hvt L=150000U W=420000U AS=122850000000P
+ AD=109200000000P PS=1170000U PD=1360000U
* device instance $2 r0 *1 7.405,2.065 pfet_01v8_hvt
M$2 9 8 20 19 pfet_01v8_hvt L=150000U W=840000U AS=122850000000P
+ AD=218400000000P PS=1170000U PD=2200000U
* device instance $3 r0 *1 0.47,2.135 pfet_01v8_hvt
M$3 20 17 2 19 pfet_01v8_hvt L=150000U W=640000U AS=166400000000P
+ AD=86400000000P PS=1800000U PD=910000U
* device instance $4 r0 *1 0.89,2.135 pfet_01v8_hvt
M$4 3 2 20 19 pfet_01v8_hvt L=150000U W=640000U AS=86400000000P
+ AD=166400000000P PS=910000U PD=1800000U
* device instance $5 r0 *1 1.83,2.065 pfet_01v8_hvt
M$5 4 18 20 19 pfet_01v8_hvt L=150000U W=840000U AS=218400000000P
+ AD=124950000000P PS=2200000U PD=1175000U
* device instance $6 r0 *1 2.315,2.275 pfet_01v8_hvt
M$6 5 3 4 19 pfet_01v8_hvt L=150000U W=420000U AS=124950000000P AD=56700000000P
+ PS=1175000U PD=690000U
* device instance $7 r0 *1 2.735,2.275 pfet_01v8_hvt
M$7 21 2 5 19 pfet_01v8_hvt L=150000U W=420000U AS=56700000000P AD=94500000000P
+ PS=690000U PD=870000U
* device instance $8 r0 *1 3.335,2.275 pfet_01v8_hvt
M$8 20 7 21 19 pfet_01v8_hvt L=150000U W=420000U AS=94500000000P
+ AD=79800000000P PS=870000U PD=800000U
* device instance $9 r0 *1 3.865,2.275 pfet_01v8_hvt
M$9 7 6 20 19 pfet_01v8_hvt L=150000U W=420000U AS=79800000000P AD=56700000000P
+ PS=800000U PD=690000U
* device instance $10 r0 *1 4.285,2.275 pfet_01v8_hvt
M$10 20 5 7 19 pfet_01v8_hvt L=150000U W=420000U AS=56700000000P
+ AD=56700000000P PS=690000U PD=690000U
* device instance $11 r0 *1 4.705,2.275 pfet_01v8_hvt
M$11 22 5 20 19 pfet_01v8_hvt L=150000U W=420000U AS=56700000000P
+ AD=48300000000P PS=690000U PD=650000U
* device instance $12 r0 *1 5.085,2.275 pfet_01v8_hvt
M$12 8 2 22 19 pfet_01v8_hvt L=150000U W=420000U AS=48300000000P
+ AD=81900000000P PS=650000U PD=810000U
* device instance $13 r0 *1 5.625,2.275 pfet_01v8_hvt
M$13 23 3 8 19 pfet_01v8_hvt L=150000U W=420000U AS=81900000000P
+ AD=44100000000P PS=810000U PD=630000U
* device instance $14 r0 *1 5.985,2.275 pfet_01v8_hvt
M$14 20 9 23 19 pfet_01v8_hvt L=150000U W=420000U AS=44100000000P
+ AD=109200000000P PS=630000U PD=1360000U
* device instance $15 r0 *1 8.345,2.165 pfet_01v8_hvt
M$15 10 8 20 19 pfet_01v8_hvt L=150000U W=640000U AS=149000000000P
+ AD=166400000000P PS=1325000U PD=1800000U
* device instance $16 r0 *1 8.82,1.985 pfet_01v8_hvt
M$16 11 10 20 19 pfet_01v8_hvt L=150000U W=1000000U AS=149000000000P
+ AD=260000000000P PS=1325000U PD=2520000U
* device instance $17 r0 *1 8.345,0.445 nfet_01v8
M$17 1 8 10 24 nfet_01v8 L=150000U W=420000U AS=109200000000P AD=97000000000P
+ PS=1360000U PD=975000U
* device instance $18 r0 *1 8.82,0.56 nfet_01v8
M$18 11 10 1 24 nfet_01v8 L=150000U W=650000U AS=97000000000P AD=169000000000P
+ PS=975000U PD=1820000U
* device instance $19 r0 *1 2.305,0.415 nfet_01v8
M$19 5 2 4 24 nfet_01v8 L=150000U W=360000U AS=93500000000P AD=72000000000P
+ PS=965000U PD=760000U
* device instance $20 r0 *1 2.855,0.415 nfet_01v8
M$20 14 3 5 24 nfet_01v8 L=150000U W=360000U AS=72000000000P AD=67050000000P
+ PS=760000U PD=750000U
* device instance $21 r0 *1 3.335,0.445 nfet_01v8
M$21 1 7 14 24 nfet_01v8 L=150000U W=420000U AS=67050000000P AD=88200000000P
+ PS=750000U PD=840000U
* device instance $22 r0 *1 3.905,0.445 nfet_01v8
M$22 16 6 1 24 nfet_01v8 L=150000U W=420000U AS=88200000000P AD=44100000000P
+ PS=840000U PD=630000U
* device instance $23 r0 *1 4.265,0.445 nfet_01v8
M$23 7 5 16 24 nfet_01v8 L=150000U W=420000U AS=44100000000P AD=109200000000P
+ PS=630000U PD=1360000U
* device instance $24 r0 *1 1.83,0.555 nfet_01v8
M$24 4 18 1 24 nfet_01v8 L=150000U W=640000U AS=166400000000P AD=93500000000P
+ PS=1800000U PD=965000U
* device instance $25 r0 *1 0.47,0.445 nfet_01v8
M$25 1 17 2 24 nfet_01v8 L=150000U W=420000U AS=109200000000P AD=56700000000P
+ PS=1360000U PD=690000U
* device instance $26 r0 *1 0.89,0.445 nfet_01v8
M$26 3 2 1 24 nfet_01v8 L=150000U W=420000U AS=56700000000P AD=109200000000P
+ PS=690000U PD=1360000U
* device instance $27 r0 *1 5.205,0.445 nfet_01v8
M$27 15 5 1 24 nfet_01v8 L=150000U W=420000U AS=109200000000P AD=44100000000P
+ PS=1360000U PD=630000U
* device instance $28 r0 *1 5.565,0.445 nfet_01v8
M$28 8 3 15 24 nfet_01v8 L=150000U W=420000U AS=44100000000P AD=69300000000P
+ PS=630000U PD=750000U
* device instance $29 r0 *1 6.045,0.445 nfet_01v8
M$29 12 2 8 24 nfet_01v8 L=150000U W=420000U AS=69300000000P AD=44100000000P
+ PS=750000U PD=630000U
* device instance $30 r0 *1 6.405,0.445 nfet_01v8
M$30 13 9 12 24 nfet_01v8 L=150000U W=420000U AS=44100000000P AD=48300000000P
+ PS=630000U PD=650000U
* device instance $31 r0 *1 6.785,0.445 nfet_01v8
M$31 1 6 13 24 nfet_01v8 L=150000U W=420000U AS=48300000000P AD=113700000000P
+ PS=650000U PD=1010000U
* device instance $32 r0 *1 7.405,0.505 nfet_01v8
M$32 9 8 1 24 nfet_01v8 L=150000U W=540000U AS=113700000000P AD=140400000000P
+ PS=1010000U PD=1600000U
.ENDS sky130_fd_sc_hd__dfstp_1

* cell sky130_fd_sc_hd__clkbuf_4
* pin VPB
* pin A
* pin VGND
* pin X
* pin VPWR
* pin 
.SUBCKT sky130_fd_sc_hd__clkbuf_4 1 3 4 5 6 7
* net 1 VPB
* net 3 A
* net 4 VGND
* net 5 X
* net 6 VPWR
* device instance $1 r0 *1 0.475,1.985 pfet_01v8_hvt
M$1 6 3 2 1 pfet_01v8_hvt L=150000U W=1000000U AS=265000000000P
+ AD=165000000000P PS=2530000U PD=1330000U
* device instance $2 r0 *1 0.955,1.985 pfet_01v8_hvt
M$2 5 2 6 1 pfet_01v8_hvt L=150000U W=4000000U AS=585000000000P
+ AD=720000000000P PS=5170000U PD=6440000U
* device instance $6 r0 *1 0.475,0.445 nfet_01v8
M$6 4 3 2 7 nfet_01v8 L=150000U W=420000U AS=111300000000P AD=70350000000P
+ PS=1370000U PD=755000U
* device instance $7 r0 *1 0.96,0.445 nfet_01v8
M$7 5 2 4 7 nfet_01v8 L=150000U W=1680000U AS=246750000000P AD=298200000000P
+ PS=2855000U PD=3520000U
.ENDS sky130_fd_sc_hd__clkbuf_4

* cell sky130_fd_sc_hd__mux2i_1
* pin VGND
* pin Y
* pin A0
* pin A1
* pin S
* pin VPWR
* pin VPB
* pin 
.SUBCKT sky130_fd_sc_hd__mux2i_1 1 3 6 7 8 10 11 13
* net 1 VGND
* net 3 Y
* net 6 A0
* net 7 A1
* net 8 S
* net 10 VPWR
* net 11 VPB
* device instance $1 r0 *1 3.21,1.985 pfet_01v8_hvt
M$1 10 8 5 11 pfet_01v8_hvt L=150000U W=1000000U AS=290000000000P
+ AD=260000000000P PS=2580000U PD=2520000U
* device instance $2 r0 *1 0.49,1.985 pfet_01v8_hvt
M$2 3 6 9 11 pfet_01v8_hvt L=150000U W=1000000U AS=280000000000P
+ AD=152500000000P PS=2560000U PD=1305000U
* device instance $3 r0 *1 0.945,1.985 pfet_01v8_hvt
M$3 12 7 3 11 pfet_01v8_hvt L=150000U W=1000000U AS=152500000000P
+ AD=197500000000P PS=1305000U PD=1395000U
* device instance $4 r0 *1 1.49,1.985 pfet_01v8_hvt
M$4 10 5 12 11 pfet_01v8_hvt L=150000U W=1000000U AS=197500000000P
+ AD=300000000000P PS=1395000U PD=1600000U
* device instance $5 r0 *1 2.24,1.985 pfet_01v8_hvt
M$5 9 8 10 11 pfet_01v8_hvt L=150000U W=1000000U AS=300000000000P
+ AD=260000000000P PS=1600000U PD=2520000U
* device instance $6 r0 *1 3.21,0.56 nfet_01v8
M$6 1 8 5 13 nfet_01v8 L=150000U W=650000U AS=169000000000P AD=169000000000P
+ PS=1820000U PD=1820000U
* device instance $7 r0 *1 1.85,0.56 nfet_01v8
M$7 1 5 2 13 nfet_01v8 L=150000U W=650000U AS=169000000000P AD=87750000000P
+ PS=1820000U PD=920000U
* device instance $8 r0 *1 2.27,0.56 nfet_01v8
M$8 4 8 1 13 nfet_01v8 L=150000U W=650000U AS=87750000000P AD=169000000000P
+ PS=920000U PD=1820000U
* device instance $9 r0 *1 0.47,0.56 nfet_01v8
M$9 3 6 2 13 nfet_01v8 L=150000U W=650000U AS=169000000000P AD=87750000000P
+ PS=1820000U PD=920000U
* device instance $10 r0 *1 0.89,0.56 nfet_01v8
M$10 4 7 3 13 nfet_01v8 L=150000U W=650000U AS=87750000000P AD=182000000000P
+ PS=920000U PD=1860000U
.ENDS sky130_fd_sc_hd__mux2i_1

* cell sky130_fd_sc_hd__buf_6
* pin VGND
* pin A
* pin X
* pin VPWR
* pin VPB
* pin 
.SUBCKT sky130_fd_sc_hd__buf_6 1 2 4 5 6 7
* net 1 VGND
* net 2 A
* net 4 X
* net 5 VPWR
* net 6 VPB
* device instance $1 r0 *1 0.73,1.985 pfet_01v8_hvt
M$1 3 2 5 6 pfet_01v8_hvt L=150000U W=2000000U AS=395000000000P
+ AD=270000000000P PS=3790000U PD=2540000U
* device instance $3 r0 *1 1.57,1.985 pfet_01v8_hvt
M$3 4 3 5 6 pfet_01v8_hvt L=150000U W=6000000U AS=810000000000P
+ AD=935000000000P PS=7620000U PD=8870000U
* device instance $9 r0 *1 0.73,0.56 nfet_01v8
M$9 3 2 1 7 nfet_01v8 L=150000U W=1300000U AS=256750000000P AD=175500000000P
+ PS=2740000U PD=1840000U
* device instance $11 r0 *1 1.57,0.56 nfet_01v8
M$11 4 3 1 7 nfet_01v8 L=150000U W=3900000U AS=526500000000P AD=607750000000P
+ PS=5520000U PD=6420000U
.ENDS sky130_fd_sc_hd__buf_6

* cell sky130_fd_sc_hd__mux2_1
* pin VGND
* pin X
* pin A1
* pin A0
* pin S
* pin VPWR
* pin VPB
* pin 
.SUBCKT sky130_fd_sc_hd__mux2_1 1 2 3 5 9 10 11 14
* net 1 VGND
* net 2 X
* net 3 A1
* net 5 A0
* net 9 S
* net 10 VPWR
* net 11 VPB
* device instance $1 r0 *1 1.015,2.08 pfet_01v8_hvt
M$1 12 9 10 11 pfet_01v8_hvt L=150000U W=420000U AS=158350000000P
+ AD=76650000000P PS=1395000U PD=785000U
* device instance $2 r0 *1 1.53,2.08 pfet_01v8_hvt
M$2 4 5 12 11 pfet_01v8_hvt L=150000U W=420000U AS=76650000000P
+ AD=193200000000P PS=785000U PD=1340000U
* device instance $3 r0 *1 2.6,2.08 pfet_01v8_hvt
M$3 13 3 4 11 pfet_01v8_hvt L=150000U W=420000U AS=193200000000P
+ AD=44100000000P PS=1340000U PD=630000U
* device instance $4 r0 *1 2.96,2.08 pfet_01v8_hvt
M$4 10 6 13 11 pfet_01v8_hvt L=150000U W=420000U AS=44100000000P
+ AD=69300000000P PS=630000U PD=750000U
* device instance $5 r0 *1 3.44,2.08 pfet_01v8_hvt
M$5 6 9 10 11 pfet_01v8_hvt L=150000U W=420000U AS=69300000000P
+ AD=117600000000P PS=750000U PD=1400000U
* device instance $6 r0 *1 0.47,1.985 pfet_01v8_hvt
M$6 10 4 2 11 pfet_01v8_hvt L=150000U W=1000000U AS=260000000000P
+ AD=158350000000P PS=2520000U PD=1395000U
* device instance $7 r0 *1 1.015,0.445 nfet_01v8
M$7 7 9 1 14 nfet_01v8 L=150000U W=420000U AS=112850000000P AD=69300000000P
+ PS=1045000U PD=750000U
* device instance $8 r0 *1 1.495,0.445 nfet_01v8
M$8 4 3 7 14 nfet_01v8 L=150000U W=420000U AS=69300000000P AD=99750000000P
+ PS=750000U PD=895000U
* device instance $9 r0 *1 2.12,0.445 nfet_01v8
M$9 8 5 4 14 nfet_01v8 L=150000U W=420000U AS=99750000000P AD=69300000000P
+ PS=895000U PD=750000U
* device instance $10 r0 *1 2.6,0.445 nfet_01v8
M$10 1 6 8 14 nfet_01v8 L=150000U W=420000U AS=69300000000P AD=144900000000P
+ PS=750000U PD=1110000U
* device instance $11 r0 *1 3.44,0.445 nfet_01v8
M$11 6 9 1 14 nfet_01v8 L=150000U W=420000U AS=144900000000P AD=109200000000P
+ PS=1110000U PD=1360000U
* device instance $12 r0 *1 0.47,0.56 nfet_01v8
M$12 1 4 2 14 nfet_01v8 L=150000U W=650000U AS=169000000000P AD=112850000000P
+ PS=1820000U PD=1045000U
.ENDS sky130_fd_sc_hd__mux2_1

* cell sky130_fd_sc_hd__dfrtp_2
* pin VGND
* pin RESET_B
* pin Q
* pin CLK
* pin D
* pin VPWR
* pin VPB
* pin 
.SUBCKT sky130_fd_sc_hd__dfrtp_2 1 6 9 14 15 17 18 21
* net 1 VGND
* net 6 RESET_B
* net 9 Q
* net 14 CLK
* net 15 D
* net 17 VPWR
* net 18 VPB
* device instance $1 r0 *1 8.73,1.985 pfet_01v8_hvt
M$1 9 8 17 18 pfet_01v8_hvt L=150000U W=2000000U AS=436200000000P
+ AD=395000000000P PS=3930000U PD=3790000U
* device instance $3 r0 *1 5.35,2.065 pfet_01v8_hvt
M$3 16 5 17 18 pfet_01v8_hvt L=150000U W=840000U AS=218400000000P
+ AD=129150000000P PS=2200000U PD=1185000U
* device instance $4 r0 *1 5.845,2.275 pfet_01v8_hvt
M$4 7 2 16 18 pfet_01v8_hvt L=150000U W=420000U AS=129150000000P
+ AD=58800000000P PS=1185000U PD=700000U
* device instance $5 r0 *1 6.275,2.275 pfet_01v8_hvt
M$5 20 3 7 18 pfet_01v8_hvt L=150000U W=420000U AS=58800000000P AD=56700000000P
+ PS=700000U PD=690000U
* device instance $6 r0 *1 6.695,2.275 pfet_01v8_hvt
M$6 17 8 20 18 pfet_01v8_hvt L=150000U W=420000U AS=56700000000P
+ AD=81900000000P PS=690000U PD=810000U
* device instance $7 r0 *1 7.235,2.275 pfet_01v8_hvt
M$7 8 6 17 18 pfet_01v8_hvt L=150000U W=420000U AS=81900000000P AD=56700000000P
+ PS=810000U PD=690000U
* device instance $8 r0 *1 7.655,2.275 pfet_01v8_hvt
M$8 17 7 8 18 pfet_01v8_hvt L=150000U W=420000U AS=56700000000P
+ AD=113400000000P PS=690000U PD=1380000U
* device instance $9 r0 *1 2.225,2.275 pfet_01v8_hvt
M$9 4 15 17 18 pfet_01v8_hvt L=150000U W=420000U AS=109200000000P
+ AD=65100000000P PS=1360000U PD=730000U
* device instance $10 r0 *1 2.685,2.275 pfet_01v8_hvt
M$10 5 3 4 18 pfet_01v8_hvt L=150000U W=420000U AS=65100000000P AD=72450000000P
+ PS=730000U PD=765000U
* device instance $11 r0 *1 3.18,2.275 pfet_01v8_hvt
M$11 19 2 5 18 pfet_01v8_hvt L=150000U W=420000U AS=72450000000P
+ AD=115500000000P PS=765000U PD=970000U
* device instance $12 r0 *1 3.88,2.275 pfet_01v8_hvt
M$12 17 16 19 18 pfet_01v8_hvt L=150000U W=420000U AS=115500000000P
+ AD=70350000000P PS=970000U PD=755000U
* device instance $13 r0 *1 4.365,2.275 pfet_01v8_hvt
M$13 19 6 17 18 pfet_01v8_hvt L=150000U W=420000U AS=70350000000P
+ AD=109200000000P PS=755000U PD=1360000U
* device instance $14 r0 *1 0.47,2.135 pfet_01v8_hvt
M$14 17 14 2 18 pfet_01v8_hvt L=150000U W=640000U AS=166400000000P
+ AD=86400000000P PS=1800000U PD=910000U
* device instance $15 r0 *1 0.89,2.135 pfet_01v8_hvt
M$15 3 2 17 18 pfet_01v8_hvt L=150000U W=640000U AS=86400000000P
+ AD=166400000000P PS=910000U PD=1800000U
* device instance $16 r0 *1 8.73,0.56 nfet_01v8
M$16 9 8 1 21 nfet_01v8 L=150000U W=1300000U AS=296450000000P AD=256750000000P
+ PS=2940000U PD=2740000U
* device instance $18 r0 *1 0.47,0.445 nfet_01v8
M$18 1 14 2 21 nfet_01v8 L=150000U W=420000U AS=109200000000P AD=56700000000P
+ PS=1360000U PD=690000U
* device instance $19 r0 *1 0.89,0.445 nfet_01v8
M$19 3 2 1 21 nfet_01v8 L=150000U W=420000U AS=56700000000P AD=109200000000P
+ PS=690000U PD=1360000U
* device instance $20 r0 *1 2.64,0.415 nfet_01v8
M$20 5 2 4 21 nfet_01v8 L=150000U W=360000U AS=66000000000P AD=59400000000P
+ PS=745000U PD=690000U
* device instance $21 r0 *1 3.12,0.415 nfet_01v8
M$21 11 3 5 21 nfet_01v8 L=150000U W=360000U AS=59400000000P AD=140100000000P
+ PS=690000U PD=1100000U
* device instance $22 r0 *1 5.465,0.415 nfet_01v8
M$22 7 3 16 21 nfet_01v8 L=150000U W=360000U AS=99900000000P AD=71100000000P
+ PS=985000U PD=755000U
* device instance $23 r0 *1 6.01,0.415 nfet_01v8
M$23 12 2 7 21 nfet_01v8 L=150000U W=360000U AS=71100000000P AD=66900000000P
+ PS=755000U PD=750000U
* device instance $24 r0 *1 2.165,0.445 nfet_01v8
M$24 4 15 1 21 nfet_01v8 L=150000U W=420000U AS=220500000000P AD=66000000000P
+ PS=1890000U PD=745000U
* device instance $25 r0 *1 3.95,0.445 nfet_01v8
M$25 13 16 11 21 nfet_01v8 L=150000U W=420000U AS=140100000000P AD=44100000000P
+ PS=1100000U PD=630000U
* device instance $26 r0 *1 4.31,0.445 nfet_01v8
M$26 1 6 13 21 nfet_01v8 L=150000U W=420000U AS=44100000000P AD=134600000000P
+ PS=630000U PD=1150000U
* device instance $27 r0 *1 6.49,0.445 nfet_01v8
M$27 1 8 12 21 nfet_01v8 L=150000U W=420000U AS=66900000000P AD=124950000000P
+ PS=750000U PD=1015000U
* device instance $28 r0 *1 7.235,0.445 nfet_01v8
M$28 10 6 1 21 nfet_01v8 L=150000U W=420000U AS=124950000000P AD=64050000000P
+ PS=1015000U PD=725000U
* device instance $29 r0 *1 7.69,0.445 nfet_01v8
M$29 8 7 10 21 nfet_01v8 L=150000U W=420000U AS=64050000000P AD=109200000000P
+ PS=725000U PD=1360000U
* device instance $30 r0 *1 4.97,0.555 nfet_01v8
M$30 16 5 1 21 nfet_01v8 L=150000U W=640000U AS=134600000000P AD=99900000000P
+ PS=1150000U PD=985000U
.ENDS sky130_fd_sc_hd__dfrtp_2

* cell sky130_fd_sc_hd__dfrtp_1
* pin VGND
* pin RESET_B
* pin Q
* pin CLK
* pin D
* pin VPWR
* pin VPB
* pin 
.SUBCKT sky130_fd_sc_hd__dfrtp_1 1 6 9 14 15 17 18 21
* net 1 VGND
* net 6 RESET_B
* net 9 Q
* net 14 CLK
* net 15 D
* net 17 VPWR
* net 18 VPB
* device instance $1 r0 *1 8.73,1.985 pfet_01v8_hvt
M$1 9 8 17 18 pfet_01v8_hvt L=150000U W=1000000U AS=301200000000P
+ AD=260000000000P PS=2660000U PD=2520000U
* device instance $2 r0 *1 5.35,2.065 pfet_01v8_hvt
M$2 16 5 17 18 pfet_01v8_hvt L=150000U W=840000U AS=218400000000P
+ AD=129150000000P PS=2200000U PD=1185000U
* device instance $3 r0 *1 5.845,2.275 pfet_01v8_hvt
M$3 7 2 16 18 pfet_01v8_hvt L=150000U W=420000U AS=129150000000P
+ AD=58800000000P PS=1185000U PD=700000U
* device instance $4 r0 *1 6.275,2.275 pfet_01v8_hvt
M$4 20 3 7 18 pfet_01v8_hvt L=150000U W=420000U AS=58800000000P AD=56700000000P
+ PS=700000U PD=690000U
* device instance $5 r0 *1 6.695,2.275 pfet_01v8_hvt
M$5 17 8 20 18 pfet_01v8_hvt L=150000U W=420000U AS=56700000000P
+ AD=81900000000P PS=690000U PD=810000U
* device instance $6 r0 *1 7.235,2.275 pfet_01v8_hvt
M$6 8 6 17 18 pfet_01v8_hvt L=150000U W=420000U AS=81900000000P AD=56700000000P
+ PS=810000U PD=690000U
* device instance $7 r0 *1 7.655,2.275 pfet_01v8_hvt
M$7 17 7 8 18 pfet_01v8_hvt L=150000U W=420000U AS=56700000000P
+ AD=113400000000P PS=690000U PD=1380000U
* device instance $8 r0 *1 2.225,2.275 pfet_01v8_hvt
M$8 4 15 17 18 pfet_01v8_hvt L=150000U W=420000U AS=109200000000P
+ AD=65100000000P PS=1360000U PD=730000U
* device instance $9 r0 *1 2.685,2.275 pfet_01v8_hvt
M$9 5 3 4 18 pfet_01v8_hvt L=150000U W=420000U AS=65100000000P AD=72450000000P
+ PS=730000U PD=765000U
* device instance $10 r0 *1 3.18,2.275 pfet_01v8_hvt
M$10 19 2 5 18 pfet_01v8_hvt L=150000U W=420000U AS=72450000000P
+ AD=115500000000P PS=765000U PD=970000U
* device instance $11 r0 *1 3.88,2.275 pfet_01v8_hvt
M$11 17 16 19 18 pfet_01v8_hvt L=150000U W=420000U AS=115500000000P
+ AD=70350000000P PS=970000U PD=755000U
* device instance $12 r0 *1 4.365,2.275 pfet_01v8_hvt
M$12 19 6 17 18 pfet_01v8_hvt L=150000U W=420000U AS=70350000000P
+ AD=109200000000P PS=755000U PD=1360000U
* device instance $13 r0 *1 0.47,2.135 pfet_01v8_hvt
M$13 17 14 2 18 pfet_01v8_hvt L=150000U W=640000U AS=166400000000P
+ AD=86400000000P PS=1800000U PD=910000U
* device instance $14 r0 *1 0.89,2.135 pfet_01v8_hvt
M$14 3 2 17 18 pfet_01v8_hvt L=150000U W=640000U AS=86400000000P
+ AD=166400000000P PS=910000U PD=1800000U
* device instance $15 r0 *1 8.73,0.56 nfet_01v8
M$15 9 8 1 21 nfet_01v8 L=150000U W=650000U AS=208700000000P AD=169000000000P
+ PS=2020000U PD=1820000U
* device instance $16 r0 *1 0.47,0.445 nfet_01v8
M$16 1 14 2 21 nfet_01v8 L=150000U W=420000U AS=109200000000P AD=56700000000P
+ PS=1360000U PD=690000U
* device instance $17 r0 *1 0.89,0.445 nfet_01v8
M$17 3 2 1 21 nfet_01v8 L=150000U W=420000U AS=56700000000P AD=109200000000P
+ PS=690000U PD=1360000U
* device instance $18 r0 *1 2.64,0.415 nfet_01v8
M$18 5 2 4 21 nfet_01v8 L=150000U W=360000U AS=66000000000P AD=59400000000P
+ PS=745000U PD=690000U
* device instance $19 r0 *1 3.12,0.415 nfet_01v8
M$19 12 3 5 21 nfet_01v8 L=150000U W=360000U AS=59400000000P AD=140100000000P
+ PS=690000U PD=1100000U
* device instance $20 r0 *1 5.465,0.415 nfet_01v8
M$20 7 3 16 21 nfet_01v8 L=150000U W=360000U AS=99900000000P AD=71100000000P
+ PS=985000U PD=755000U
* device instance $21 r0 *1 6.01,0.415 nfet_01v8
M$21 11 2 7 21 nfet_01v8 L=150000U W=360000U AS=71100000000P AD=66900000000P
+ PS=755000U PD=750000U
* device instance $22 r0 *1 2.165,0.445 nfet_01v8
M$22 4 15 1 21 nfet_01v8 L=150000U W=420000U AS=220500000000P AD=66000000000P
+ PS=1890000U PD=745000U
* device instance $23 r0 *1 3.95,0.445 nfet_01v8
M$23 13 16 12 21 nfet_01v8 L=150000U W=420000U AS=140100000000P AD=44100000000P
+ PS=1100000U PD=630000U
* device instance $24 r0 *1 4.31,0.445 nfet_01v8
M$24 1 6 13 21 nfet_01v8 L=150000U W=420000U AS=44100000000P AD=134600000000P
+ PS=630000U PD=1150000U
* device instance $25 r0 *1 6.49,0.445 nfet_01v8
M$25 1 8 11 21 nfet_01v8 L=150000U W=420000U AS=66900000000P AD=124950000000P
+ PS=750000U PD=1015000U
* device instance $26 r0 *1 7.235,0.445 nfet_01v8
M$26 10 6 1 21 nfet_01v8 L=150000U W=420000U AS=124950000000P AD=64050000000P
+ PS=1015000U PD=725000U
* device instance $27 r0 *1 7.69,0.445 nfet_01v8
M$27 8 7 10 21 nfet_01v8 L=150000U W=420000U AS=64050000000P AD=109200000000P
+ PS=725000U PD=1360000U
* device instance $28 r0 *1 4.97,0.555 nfet_01v8
M$28 16 5 1 21 nfet_01v8 L=150000U W=640000U AS=134600000000P AD=99900000000P
+ PS=1150000U PD=985000U
.ENDS sky130_fd_sc_hd__dfrtp_1

* cell sky130_fd_sc_hd__clkbuf_1
* pin VPB
* pin A
* pin X
* pin VGND
* pin VPWR
* pin 
.SUBCKT sky130_fd_sc_hd__clkbuf_1 1 3 4 5 6 7
* net 1 VPB
* net 3 A
* net 4 X
* net 5 VGND
* net 6 VPWR
* device instance $1 r0 *1 0.47,2.09 pfet_01v8_hvt
M$1 6 2 4 1 pfet_01v8_hvt L=150000U W=790000U AS=205400000000P AD=114550000000P
+ PS=2100000U PD=1080000U
* device instance $2 r0 *1 0.91,2.09 pfet_01v8_hvt
M$2 2 3 6 1 pfet_01v8_hvt L=150000U W=790000U AS=114550000000P AD=205400000000P
+ PS=1080000U PD=2100000U
* device instance $3 r0 *1 0.47,0.495 nfet_01v8
M$3 5 2 4 7 nfet_01v8 L=150000U W=520000U AS=135200000000P AD=75400000000P
+ PS=1560000U PD=810000U
* device instance $4 r0 *1 0.91,0.495 nfet_01v8
M$4 2 3 5 7 nfet_01v8 L=150000U W=520000U AS=75400000000P AD=135200000000P
+ PS=810000U PD=1560000U
.ENDS sky130_fd_sc_hd__clkbuf_1

* cell sky130_fd_sc_hd__nand2_1
* pin VPB
* pin A
* pin B
* pin Y
* pin VPWR
* pin VGND
* pin 
.SUBCKT sky130_fd_sc_hd__nand2_1 1 2 3 4 5 6 7
* net 1 VPB
* net 2 A
* net 3 B
* net 4 Y
* net 5 VPWR
* net 6 VGND
* device instance $1 r0 *1 0.49,1.985 pfet_01v8_hvt
M$1 4 3 5 1 pfet_01v8_hvt L=150000U W=1000000U AS=260000000000P
+ AD=135000000000P PS=2520000U PD=1270000U
* device instance $2 r0 *1 0.91,1.985 pfet_01v8_hvt
M$2 5 2 4 1 pfet_01v8_hvt L=150000U W=1000000U AS=135000000000P
+ AD=260000000000P PS=1270000U PD=2520000U
* device instance $3 r0 *1 0.49,0.56 nfet_01v8
M$3 8 3 6 7 nfet_01v8 L=150000U W=650000U AS=169000000000P AD=87750000000P
+ PS=1820000U PD=920000U
* device instance $4 r0 *1 0.91,0.56 nfet_01v8
M$4 4 2 8 7 nfet_01v8 L=150000U W=650000U AS=87750000000P AD=169000000000P
+ PS=920000U PD=1820000U
.ENDS sky130_fd_sc_hd__nand2_1

* cell sky130_fd_sc_hd__o21ai_0
* pin VPB
* pin A1
* pin A2
* pin B1
* pin VPWR
* pin Y
* pin VGND
* pin 
.SUBCKT sky130_fd_sc_hd__o21ai_0 1 2 3 4 5 6 8 9
* net 1 VPB
* net 2 A1
* net 3 A2
* net 4 B1
* net 5 VPWR
* net 6 Y
* net 8 VGND
* device instance $1 r0 *1 0.525,2.165 pfet_01v8_hvt
M$1 10 2 5 1 pfet_01v8_hvt L=150000U W=640000U AS=169600000000P AD=76800000000P
+ PS=1810000U PD=880000U
* device instance $2 r0 *1 0.915,2.165 pfet_01v8_hvt
M$2 6 3 10 1 pfet_01v8_hvt L=150000U W=640000U AS=76800000000P AD=89600000000P