
* cell parameterized_cam
* pin compare_data[4]
* pin compare_data[7]
* pin compare_data[1]
* pin compare_data[6]
* pin write_addr[1]
* pin write_addr[0]
* pin compare_data[5]
* pin compare_data[2]
* pin compare_data[0]
* pin rst_n
* pin compare_data[3]
* pin write_data[3]
* pin write_data[4]
* pin write_data[2]
* pin write_data[5]
* pin write_data[7]
* pin write_data[0]
* pin write_data[6]
* pin write_data[1]
* pin clk
* pin write_enable
* pin write_addr[3]
* pin write_addr[2]
* pin match_addr[0]
* pin match_addr[3]
* pin match
* pin match_addr[2]
* pin valid
* pin match_addr[1]
* pin compare_enable
.SUBCKT parameterized_cam 1 2 3 4 5 6 7 8 9 21 67 117 123 156 174 175 227 228
+ 264 383 388 486 488 671 672 675 676 677 681 682
* net 1 compare_data[4]
* net 2 compare_data[7]
* net 3 compare_data[1]
* net 4 compare_data[6]
* net 5 write_addr[1]
* net 6 write_addr[0]
* net 7 compare_data[5]
* net 8 compare_data[2]
* net 9 compare_data[0]
* net 21 rst_n
* net 67 compare_data[3]
* net 117 write_data[3]
* net 123 write_data[4]
* net 156 write_data[2]
* net 174 write_data[5]
* net 175 write_data[7]
* net 227 write_data[0]
* net 228 write_data[6]
* net 264 write_data[1]
* net 383 clk
* net 388 write_enable
* net 486 write_addr[3]
* net 488 write_addr[2]
* net 671 match_addr[0]
* net 672 match_addr[3]
* net 675 match
* net 676 match_addr[2]
* net 677 valid
* net 681 match_addr[1]
* net 682 compare_enable
* cell instance $3 r0 *1 57.04,2.72
X$3 10 1 32 16 16 10 sky130_fd_sc_hd__buf_6
* cell instance $5 r0 *1 61.18,2.72
X$5 10 2 24 16 16 10 sky130_fd_sc_hd__buf_6
* cell instance $9 m0 *1 61.18,8.16
X$9 10 3 45 16 16 10 sky130_fd_sc_hd__buf_6
* cell instance $12 r0 *1 62.56,8.16
X$12 10 4 37 16 16 10 sky130_fd_sc_hd__buf_6
* cell instance $15 r0 *1 65.32,2.72
X$15 16 5 16 10 260 10 sky130_fd_sc_hd__clkbuf_2
* cell instance $18 m0 *1 66.24,8.16
X$18 16 6 16 10 259 10 sky130_fd_sc_hd__clkbuf_2
* cell instance $21 r0 *1 72.68,2.72
X$21 10 7 12 16 16 10 sky130_fd_sc_hd__buf_6
* cell instance $24 m0 *1 95.68,8.16
X$24 10 8 25 16 16 10 sky130_fd_sc_hd__buf_6
* cell instance $26 r0 *1 104.42,2.72
X$26 10 9 11 16 16 10 sky130_fd_sc_hd__buf_6
* cell instance $95 m0 *1 1.38,8.16
X$95 10 13 23 16 16 10 sky130_fd_sc_hd__buf_16
* cell instance $101 m0 *1 16.56,8.16
X$101 10 23 15 22 14 16 16 10 sky130_fd_sc_hd__dfrtp_1
* cell instance $108 m0 *1 31.74,8.16
X$108 10 14 15 60 27 16 16 10 sky130_fd_sc_hd__mux2_1
* cell instance $109 m0 *1 35.88,8.16
X$109 16 15 12 20 16 10 10 sky130_fd_sc_hd__xnor2_1
* cell instance $110 m0 *1 39.1,8.16
X$110 16 35 24 19 16 10 10 sky130_fd_sc_hd__xnor2_1
* cell instance $116 m0 *1 47.38,8.16
X$116 10 23 38 47 18 16 16 10 sky130_fd_sc_hd__dfrtp_1
* cell instance $127 m0 *1 74.98,8.16
X$127 10 23 36 26 17 16 16 10 sky130_fd_sc_hd__dfrtp_1
* cell instance $129 m0 *1 84.64,8.16
X$129 10 23 93 31 108 16 16 10 sky130_fd_sc_hd__dfrtp_1
* cell instance $140 r0 *1 1.38,8.16
X$140 16 21 16 13 10 10 sky130_fd_sc_hd__dlygate4sd3_1
* cell instance $148 r0 *1 19.32,8.16
X$148 10 23 44 22 54 16 16 10 sky130_fd_sc_hd__dfrtp_1
* cell instance $149 r0 *1 28.52,8.16
X$149 10 23 35 47 49 16 16 10 sky130_fd_sc_hd__dfrtp_1
* cell instance $150 r0 *1 37.72,8.16
X$150 10 49 35 30 27 16 16 10 sky130_fd_sc_hd__mux2_1
* cell instance $157 r0 *1 51.06,8.16
X$157 10 77 39 29 27 16 16 10 sky130_fd_sc_hd__mux2_1
* cell instance $159 r0 *1 56.12,8.16
X$159 10 18 38 28 27 16 16 10 sky130_fd_sc_hd__mux2_1
* cell instance $165 r0 *1 70.84,8.16
X$165 10 23 50 26 57 16 16 10 sky130_fd_sc_hd__dfrtp_1
* cell instance $166 r0 *1 80.04,8.16
X$166 10 17 36 30 40 16 16 10 sky130_fd_sc_hd__mux2_1
* cell instance $168 r0 *1 85.1,8.16
X$168 10 23 48 31 53 16 16 10 sky130_fd_sc_hd__dfrtp_1
* cell instance $170 r0 *1 94.76,8.16
X$170 16 46 32 102 16 10 10 sky130_fd_sc_hd__xnor2_1
* cell instance $175 r0 *1 100.74,8.16
X$175 16 43 45 98 16 10 10 sky130_fd_sc_hd__xnor2_1
* cell instance $177 r0 *1 104.42,8.16
X$177 10 72 33 34 71 16 16 10 sky130_fd_sc_hd__mux2_1
* cell instance $178 r0 *1 108.56,8.16
X$178 10 23 41 31 42 16 16 10 sky130_fd_sc_hd__dfrtp_1
* cell instance $189 m0 *1 3.22,13.6
X$189 10 23 59 22 90 16 16 10 sky130_fd_sc_hd__dfrtp_1
* cell instance $190 m0 *1 12.42,13.6
X$190 10 23 80 22 69 16 16 10 sky130_fd_sc_hd__dfrtp_1
* cell instance $191 m0 *1 21.62,13.6
X$191 10 54 44 60 70 16 16 10 sky130_fd_sc_hd__mux2_1
* cell instance $192 m0 *1 25.76,13.6
X$192 16 59 24 91 16 10 10 sky130_fd_sc_hd__xnor2_1
* cell instance $195 m0 *1 29.9,13.6
X$195 16 44 12 56 16 10 10 sky130_fd_sc_hd__xnor2_1
* cell instance $196 m0 *1 33.12,13.6
X$196 10 73 52 74 27 16 16 10 sky130_fd_sc_hd__mux2_1
* cell instance $197 m0 *1 37.26,13.6
X$197 16 52 37 61 16 10 10 sky130_fd_sc_hd__xnor2_1
* cell instance $198 m0 *1 40.48,13.6
X$198 16 61 20 19 58 16 10 10 sky130_fd_sc_hd__nand3_1
* cell instance $199 m0 *1 42.32,13.6
X$199 10 76 51 62 27 16 16 10 sky130_fd_sc_hd__mux2_1
* cell instance $201 m0 *1 47.38,13.6
X$201 10 23 39 47 77 16 16 10 sky130_fd_sc_hd__dfrtp_1
* cell instance $203 m0 *1 57.04,13.6
X$203 16 39 25 78 16 10 10 sky130_fd_sc_hd__xnor2_1
* cell instance $207 m0 *1 63.48,13.6
X$207 10 23 83 26 79 16 16 10 sky130_fd_sc_hd__dfrtp_1
* cell instance $208 m0 *1 72.68,13.6
X$208 10 57 50 28 40 16 16 10 sky130_fd_sc_hd__mux2_1
* cell instance $209 m0 *1 76.82,13.6
X$209 16 50 32 55 16 10 10 sky130_fd_sc_hd__xnor2_1
* cell instance $211 m0 *1 80.5,13.6
X$211 16 36 24 65 16 10 10 sky130_fd_sc_hd__xnor2_1
* cell instance $216 m0 *1 86.94,13.6
X$216 10 53 48 29 40 16 16 10 sky130_fd_sc_hd__mux2_1
* cell instance $218 m0 *1 92,13.6
X$218 10 23 46 31 75 16 16 10 sky130_fd_sc_hd__dfrtp_1
* cell instance $219 m0 *1 101.2,13.6
X$219 10 23 33 31 72 16 16 10 sky130_fd_sc_hd__dfrtp_1
* cell instance $223 m0 *1 112.24,13.6
X$223 10 42 41 68 71 16 16 10 sky130_fd_sc_hd__mux2_1
* cell instance $230 r0 *1 10.58,13.6
X$230 10 90 59 30 70 16 16 10 sky130_fd_sc_hd__mux2_1
* cell instance $236 r0 *1 17.02,13.6
X$236 10 69 80 74 70 16 16 10 sky130_fd_sc_hd__mux2_1
* cell instance $240 r0 *1 24.38,13.6
X$240 16 80 37 81 16 10 10 sky130_fd_sc_hd__xnor2_1
* cell instance $242 r0 *1 28.06,13.6
X$242 16 81 56 91 286 16 10 10 sky130_fd_sc_hd__nand3_1
* cell instance $243 r0 *1 29.9,13.6
X$243 10 23 52 47 73 16 16 10 sky130_fd_sc_hd__dfrtp_1
* cell instance $247 r0 *1 43.24,13.6
X$247 10 23 51 47 76 16 16 10 sky130_fd_sc_hd__dfrtp_1
* cell instance $248 r0 *1 52.44,13.6
X$248 16 51 82 103 16 10 10 sky130_fd_sc_hd__xnor2_1
* cell instance $249 r0 *1 55.66,13.6
X$249 16 38 32 104 16 10 10 sky130_fd_sc_hd__xnor2_1
* cell instance $251 r0 *1 59.8,13.6
X$251 10 106 63 64 27 16 16 10 sky130_fd_sc_hd__mux2_1
* cell instance $254 r0 *1 66.24,13.6
X$254 10 79 83 60 40 16 16 10 sky130_fd_sc_hd__mux2_1
* cell instance $258 r0 *1 71.76,13.6
X$258 16 83 12 84 16 10 10 sky130_fd_sc_hd__xnor2_1
* cell instance $259 r0 *1 74.98,13.6
X$259 16 84 55 65 112 16 10 10 sky130_fd_sc_hd__nand3_1
* cell instance $260 r0 *1 76.82,13.6
X$260 16 85 84 55 96 16 10 10 sky130_fd_sc_hd__nand3_1
* cell instance $261 r0 *1 78.66,13.6
X$261 16 66 85 110 16 10 10 sky130_fd_sc_hd__nand2_1
* cell instance $262 r0 *1 80.04,13.6
X$262 16 87 89 88 86 16 113 10 10 sky130_fd_sc_hd__nand4_1
* cell instance $264 r0 *1 82.8,13.6
X$264 16 88 65 89 87 16 109 10 10 sky130_fd_sc_hd__nand4_1
* cell instance $265 r0 *1 85.1,13.6
X$265 16 48 25 87 16 10 10 sky130_fd_sc_hd__xnor2_1
* cell instance $266 r0 *1 88.32,13.6
X$266 16 93 82 89 16 10 10 sky130_fd_sc_hd__xnor2_1
* cell instance $269 r0 *1 93.84,13.6
X$269 10 75 46 92 71 16 16 10 sky130_fd_sc_hd__mux2_1
* cell instance $273 r0 *1 99.36,13.6
X$273 16 33 25 101 16 10 10 sky130_fd_sc_hd__xnor2_1
* cell instance $274 r0 *1 102.58,13.6
X$274 16 41 82 99 16 10 10 sky130_fd_sc_hd__xnor2_1
* cell instance $276 r0 *1 106.26,13.6
X$276 10 23 43 31 100 16 16 10 sky130_fd_sc_hd__dfrtp_1
* cell instance $277 r0 *1 115.46,13.6
X$277 10 67 82 16 16 10 sky130_fd_sc_hd__buf_6
* cell instance $302 m0 *1 47.38,19.04
X$302 16 114 11 16 105 10 10 sky130_fd_sc_hd__xor2_1
* cell instance $304 m0 *1 51.06,19.04
X$304 16 63 11 94 16 10 10 sky130_fd_sc_hd__xnor2_1
* cell instance $305 m0 *1 54.28,19.04
X$305 16 103 104 78 94 16 134 10 10 sky130_fd_sc_hd__nand4_1
* cell instance $307 m0 *1 57.04,19.04
X$307 10 23 63 26 106 16 16 10 sky130_fd_sc_hd__dfrtp_1
* cell instance $308 m0 *1 66.24,19.04
X$308 10 107 95 74 40 16 16 10 sky130_fd_sc_hd__mux2_1
* cell instance $310 m0 *1 70.84,19.04
X$310 16 95 37 86 16 10 10 sky130_fd_sc_hd__xnor2_1
* cell instance $312 m0 *1 74.98,19.04
X$312 16 111 11 85 16 10 10 sky130_fd_sc_hd__xnor2_1
* cell instance $313 m0 *1 78.2,19.04
X$313 16 96 109 97 116 10 16 10 sky130_fd_sc_hd__nor3_1
* cell instance $315 m0 *1 80.5,19.04
X$315 16 112 110 113 16 10 120 10 sky130_fd_sc_hd__or3_2
* cell instance $318 m0 *1 84.64,19.04
X$318 16 66 86 97 16 10 10 sky130_fd_sc_hd__nand2_1
* cell instance $319 m0 *1 86.02,19.04
X$319 10 108 93 62 40 16 16 10 sky130_fd_sc_hd__mux2_1
* cell instance $323 m0 *1 98.44,19.04
X$323 10 102 98 101 99 16 191 16 10 sky130_fd_sc_hd__nand4_2
* cell instance $326 m0 *1 107.64,19.04
X$326 10 100 43 118 71 16 16 10 sky130_fd_sc_hd__mux2_1
* cell instance $330 m0 *1 116.84,19.04
X$330 16 123 10 92 16 10 sky130_fd_sc_hd__clkbuf_4
* cell instance $333 r0 *1 5.98,19.04
X$333 10 23 126 22 124 16 16 10 sky130_fd_sc_hd__dfrtp_1
* cell instance $339 r0 *1 18.4,19.04
X$339 10 124 126 74 122 16 16 10 sky130_fd_sc_hd__mux2_1
* cell instance $342 r0 *1 23.92,19.04
X$342 10 23 119 22 128 16 16 10 sky130_fd_sc_hd__dfrtp_1
* cell instance $344 r0 *1 33.58,19.04
X$344 10 23 114 47 130 16 16 10 sky130_fd_sc_hd__dfrtp_1
* cell instance $348 r0 *1 43.24,19.04
X$348 10 130 114 64 122 16 16 10 sky130_fd_sc_hd__mux2_1
* cell instance $350 r0 *1 47.84,19.04
X$350 16 148 25 16 132 10 10 sky130_fd_sc_hd__xor2_1
* cell instance $353 r0 *1 53.82,19.04
X$353 10 115 135 58 134 16 16 10 sky130_fd_sc_hd__nor3_2
* cell instance $355 r0 *1 61.18,19.04
X$355 10 23 95 26 107 16 16 10 sky130_fd_sc_hd__dfrtp_1
* cell instance $359 r0 *1 70.84,19.04
X$359 10 136 111 64 40 16 16 10 sky130_fd_sc_hd__mux2_1
* cell instance $360 r0 *1 74.98,19.04
X$360 10 23 131 26 133 16 16 10 sky130_fd_sc_hd__dfrtp_1
* cell instance $361 r0 *1 84.18,19.04
X$361 16 131 45 88 16 10 10 sky130_fd_sc_hd__xnor2_1
* cell instance $362 r0 *1 87.4,19.04
X$362 16 92 16 10 28 10 sky130_fd_sc_hd__buf_4
* cell instance $363 r0 *1 90.16,19.04
X$363 16 68 16 10 62 10 sky130_fd_sc_hd__buf_4
* cell instance $371 r0 *1 99.36,19.04
X$371 16 34 16 10 29 10 sky130_fd_sc_hd__buf_4
* cell instance $375 r0 *1 108.1,19.04
X$375 10 23 141 31 129 16 16 10 sky130_fd_sc_hd__dfrtp_1
* cell instance $377 r0 *1 117.76,19.04
X$377 16 117 10 68 16 10 sky130_fd_sc_hd__buf_2
* cell instance $384 m0 *1 5.98,24.48
X$384 10 23 138 22 121 16 16 10 sky130_fd_sc_hd__dfrtp_1
* cell instance $385 m0 *1 15.18,24.48
X$385 10 121 138 28 122 16 16 10 sky130_fd_sc_hd__mux2_1
* cell instance $388 m0 *1 21.62,24.48
X$388 16 126 37 16 125 10 10 sky130_fd_sc_hd__xor2_1
* cell instance $397 m0 *1 42.78,24.48
X$397 10 23 148 47 145 16 16 10 sky130_fd_sc_hd__dfrtp_1
* cell instance $399 m0 *1 52.44,24.48
X$399 10 149 147 60 122 16 16 10 sky130_fd_sc_hd__mux2_1
* cell instance $405 m0 *1 65.78,24.48
X$405 10 23 111 26 136 16 16 10 sky130_fd_sc_hd__dfrtp_1
* cell instance $406 m0 *1 74.98,24.48
X$406 10 23 143 26 166 16 16 10 sky130_fd_sc_hd__dfrtp_1
* cell instance $411 m0 *1 91.08,24.48
X$411 10 24 140 16 16 10 sky130_fd_sc_hd__buf_16
* cell instance $418 m0 *1 112.24,24.48
X$418 16 156 10 34 16 10 sky130_fd_sc_hd__buf_2
* cell instance $419 m0 *1 114.08,24.48
X$419 10 129 141 68 127 16 16 10 sky130_fd_sc_hd__mux2_1
* cell instance $424 r0 *1 5.98,24.48
X$424 10 23 139 22 137 16 16 10 sky130_fd_sc_hd__dfrtp_1
* cell instance $429 r0 *1 15.64,24.48
X$429 10 137 139 30 122 16 16 10 sky130_fd_sc_hd__mux2_1
* cell instance $430 r0 *1 19.78,24.48
X$430 16 139 140 16 179 10 10 sky130_fd_sc_hd__xor2_1
* cell instance $434 r0 *1 28.06,24.48
X$434 10 23 151 47 163 16 16 10 sky130_fd_sc_hd__dfrtp_1
* cell instance $435 r0 *1 37.26,24.48
X$435 10 163 151 30 162 16 16 10 sky130_fd_sc_hd__mux2_1
* cell instance $444 r0 *1 45.54,24.48
X$444 10 145 148 29 122 16 16 10 sky130_fd_sc_hd__mux2_1
* cell instance $445 r0 *1 49.68,24.48
X$445 10 23 147 47 149 16 16 10 sky130_fd_sc_hd__dfrtp_1
* cell instance $446 r0 *1 58.88,24.48
X$446 16 105 167 202 132 10 299 16 10 sky130_fd_sc_hd__nor4_1
* cell instance $454 r0 *1 70.84,24.48
X$454 10 146 26 16 16 10 sky130_fd_sc_hd__clkbuf_16
* cell instance $455 r0 *1 80.04,24.48
X$455 10 133 131 144 40 16 16 10 sky130_fd_sc_hd__mux2_1
* cell instance $459 r0 *1 90.62,24.48
X$459 16 154 24 226 16 10 10 sky130_fd_sc_hd__xnor2_1
* cell instance $460 r0 *1 93.84,24.48
X$460 10 164 142 34 127 16 16 10 sky130_fd_sc_hd__mux2_1
* cell instance $467 r0 *1 100.74,24.48
X$467 10 146 31 16 16 10 sky130_fd_sc_hd__clkbuf_16
* cell instance $468 r0 *1 109.94,24.48
X$468 10 23 155 31 161 16 16 10 sky130_fd_sc_hd__dfrtp_1
* cell instance $474 m0 *1 13.34,29.92
X$474 16 157 32 177 16 10 10 sky130_fd_sc_hd__xnor2_1
* cell instance $477 m0 *1 18.86,29.92
X$477 16 138 32 16 160 10 10 sky130_fd_sc_hd__xor2_1
* cell instance $479 m0 *1 22.54,29.92
X$479 16 125 160 179 150 10 16 10 sky130_fd_sc_hd__nor3_1
* cell instance $483 m0 *1 29.44,29.92
X$483 10 128 119 60 162 16 16 10 sky130_fd_sc_hd__mux2_1
* cell instance $485 m0 *1 34.04,29.92
X$485 16 151 24 214 16 10 10 sky130_fd_sc_hd__xnor2_1
* cell instance $486 m0 *1 37.26,29.92
X$486 10 146 47 16 16 10 sky130_fd_sc_hd__clkbuf_16
* cell instance $487 m0 *1 46.46,29.92
X$487 10 23 165 47 152 16 16 10 sky130_fd_sc_hd__dfrtp_1
* cell instance $490 m0 *1 57.04,29.92
X$490 10 180 169 62 122 16 16 10 sky130_fd_sc_hd__mux2_1
* cell instance $491 m0 *1 61.18,29.92
X$491 16 147 12 16 167 10 10 sky130_fd_sc_hd__xor2_1
* cell instance $493 m0 *1 66.24,29.92
X$493 10 23 184 26 183 16 16 10 sky130_fd_sc_hd__dfrtp_1
* cell instance $495 m0 *1 76.36,29.92
X$495 16 143 24 182 16 10 10 sky130_fd_sc_hd__xnor2_1
* cell instance $497 m0 *1 80.04,29.92
X$497 10 166 143 173 71 16 16 10 sky130_fd_sc_hd__mux2_1
* cell instance $501 m0 *1 86.02,29.92
X$501 10 23 154 172 181 16 16 10 sky130_fd_sc_hd__dfrtp_1
* cell instance $502 m0 *1 95.22,29.92
X$502 10 23 142 172 164 16 16 10 sky130_fd_sc_hd__dfrtp_1
* cell instance $503 m0 *1 104.42,29.92
X$503 16 31 16 10 10 sky130_fd_sc_hd__clkinv_2
* cell instance $506 m0 *1 107.64,29.92
X$506 10 161 155 92 127 16 16 10 sky130_fd_sc_hd__mux2_1
* cell instance $508 m0 *1 112.24,29.92
X$508 16 141 82 159 16 10 10 sky130_fd_sc_hd__xnor2_1
* cell instance $509 m0 *1 115.46,29.92
X$509 10 158 176 153 127 16 16 10 sky130_fd_sc_hd__mux2_1
* cell instance $512 r0 *1 5.98,29.92
X$512 10 23 186 22 185 16 16 10 sky130_fd_sc_hd__dfrtp_1
* cell instance $517 r0 *1 15.64,29.92
X$517 10 185 186 29 70 16 16 10 sky130_fd_sc_hd__mux2_1
* cell instance $518 r0 *1 19.78,29.92
X$518 16 186 168 197 16 10 10 sky130_fd_sc_hd__xnor2_1
* cell instance $524 r0 *1 33.58,29.92
X$524 16 119 12 199 16 10 10 sky130_fd_sc_hd__xnor2_1
* cell instance $526 r0 *1 37.26,29.92
X$526 16 47 685 10 16 10 sky130_fd_sc_hd__clkbuf_1
* cell instance $527 r0 *1 38.64,29.92
X$527 10 152 165 29 162 16 16 10 sky130_fd_sc_hd__mux2_1
* cell instance $534 r0 *1 44.62,29.92
X$534 10 200 201 64 162 16 16 10 sky130_fd_sc_hd__mux2_1
* cell instance $537 r0 *1 50.14,29.92
X$537 16 169 82 16 202 10 10 sky130_fd_sc_hd__xor2_1
* cell instance $538 r0 *1 53.36,29.92
X$538 10 23 169 26 180 16 16 10 sky130_fd_sc_hd__dfrtp_1
* cell instance $540 r0 *1 66.24,29.92
X$540 10 183 184 153 71 16 16 10 sky130_fd_sc_hd__mux2_1
* cell instance $545 r0 *1 70.84,29.92
X$545 10 26 16 16 10 sky130_fd_sc_hd__clkbuf_8
* cell instance $546 r0 *1 75.9,29.92
X$546 16 190 37 171 16 10 10 sky130_fd_sc_hd__xnor2_1
* cell instance $547 r0 *1 79.12,29.92
X$547 16 184 12 170 16 10 10 sky130_fd_sc_hd__xnor2_1
* cell instance $548 r0 *1 82.34,29.92
X$548 16 171 170 182 216 16 10 10 sky130_fd_sc_hd__nand3_1
* cell instance $551 r0 *1 85.56,29.92
X$551 16 118 10 144 16 10 sky130_fd_sc_hd__clkbuf_4
* cell instance $554 r0 *1 91.08,29.92
X$554 10 181 154 173 127 16 16 10 sky130_fd_sc_hd__mux2_1
* cell instance $561 r0 *1 98.44,29.92
X$561 16 192 203 198 16 10 10 sky130_fd_sc_hd__xnor2_1
* cell instance $562 r0 *1 101.66,29.92
X$562 16 142 25 234 16 10 10 sky130_fd_sc_hd__xnor2_1
* cell instance $563 r0 *1 104.88,29.92
X$563 16 175 10 173 16 10 sky130_fd_sc_hd__buf_2
* cell instance $565 r0 *1 108.56,29.92
X$565 10 23 176 31 158 16 16 10 sky130_fd_sc_hd__dfrtp_1
* cell instance $566 r0 *1 117.76,29.92
X$566 16 227 10 178 16 10 sky130_fd_sc_hd__buf_2
* cell instance $569 m0 *1 4.14,35.36
X$569 10 23 157 22 229 16 16 10 sky130_fd_sc_hd__dfrtp_1
* cell instance $571 m0 *1 14.26,35.36
X$571 16 212 213 196 16 10 10 sky130_fd_sc_hd__xnor2_1
* cell instance $574 m0 *1 19.78,35.36
X$574 10 23 188 22 187 16 16 10 sky130_fd_sc_hd__dfrtp_1
* cell instance $576 m0 *1 29.44,35.36
X$576 10 187 188 144 162 16 16 10 sky130_fd_sc_hd__mux2_1
* cell instance $578 m0 *1 34.04,35.36
X$578 16 188 45 205 16 10 10 sky130_fd_sc_hd__xnor2_1
* cell instance $579 m0 *1 37.26,35.36
X$579 16 165 25 206 16 10 10 sky130_fd_sc_hd__xnor2_1
* cell instance $580 m0 *1 40.48,35.36
X$580 10 146 207 16 16 10 sky130_fd_sc_hd__clkbuf_16
* cell instance $583 m0 *1 51.06,35.36
X$583 10 37 203 16 16 10 sky130_fd_sc_hd__buf_8
* cell instance $587 m0 *1 58.42,35.36
X$587 10 12 218 16 16 10 sky130_fd_sc_hd__buf_8
* cell instance $588 m0 *1 63.94,35.36
X$588 10 23 190 222 220 16 16 10 sky130_fd_sc_hd__dfrtp_1
* cell instance $590 m0 *1 74.98,35.36
X$590 16 251 11 219 16 10 10 sky130_fd_sc_hd__xnor2_1
* cell instance $591 m0 *1 78.2,35.36
X$591 10 217 208 216 191 16 16 10 sky130_fd_sc_hd__nor3_4
* cell instance $593 m0 *1 84.64,35.36
X$593 10 25 168 16 16 10 sky130_fd_sc_hd__buf_6
* cell instance $594 m0 *1 88.78,35.36
X$594 10 23 192 172 210 16 16 10 sky130_fd_sc_hd__dfrtp_1
* cell instance $596 m0 *1 98.9,35.36
X$596 10 236 282 239 193 16 16 10 sky130_fd_sc_hd__nor3_4
* cell instance $598 m0 *1 105.34,35.36
X$598 16 155 189 194 16 10 10 sky130_fd_sc_hd__xnor2_1
* cell instance $599 m0 *1 108.56,35.36
X$599 16 211 11 195 16 10 10 sky130_fd_sc_hd__xnor2_1
* cell instance $601 m0 *1 112.24,35.36
X$601 10 195 194 159 230 16 193 16 10 sky130_fd_sc_hd__nand4_2
* cell instance $602 m0 *1 116.84,35.36
X$602 16 174 10 153 16 10 sky130_fd_sc_hd__clkbuf_4
* cell instance $606 r0 *1 4.6,35.36
X$606 10 23 212 22 247 16 16 10 sky130_fd_sc_hd__dfrtp_1
* cell instance $613 r0 *1 17.94,35.36
X$613 10 32 189 16 16 10 sky130_fd_sc_hd__buf_6
* cell instance $616 r0 *1 23.46,35.36
X$616 10 23 231 47 232 16 16 10 sky130_fd_sc_hd__dfrtp_1
* cell instance $618 r0 *1 34.5,35.36
X$618 16 231 37 204 16 10 10 sky130_fd_sc_hd__xnor2_1
* cell instance $619 r0 *1 37.72,35.36
X$619 16 204 199 214 235 16 10 10 sky130_fd_sc_hd__nand3_1
* cell instance $620 r0 *1 39.56,35.36
X$620 16 205 214 221 206 16 237 10 10 sky130_fd_sc_hd__nand4_1
* cell instance $624 r0 *1 43.24,35.36
X$624 16 201 11 215 16 10 10 sky130_fd_sc_hd__xnor2_1
* cell instance $625 r0 *1 46.46,35.36
X$625 10 23 201 207 200 16 16 10 sky130_fd_sc_hd__dfrtp_1
* cell instance $631 r0 *1 66.24,35.36
X$631 10 220 190 209 71 16 16 10 sky130_fd_sc_hd__mux2_1
* cell instance $635 r0 *1 71.76,35.36
X$635 10 146 222 16 16 10 sky130_fd_sc_hd__clkbuf_16
* cell instance $636 r0 *1 80.96,35.36
X$636 10 23 224 222 240 16 16 10 sky130_fd_sc_hd__dfrtp_1
* cell instance $639 r0 *1 95.68,35.36
X$639 16 172 16 10 10 sky130_fd_sc_hd__clkinv_2
* cell instance $643 r0 *1 98.44,35.36
X$643 10 146 172 16 16 10 sky130_fd_sc_hd__clkbuf_16
* cell instance $644 r0 *1 107.64,35.36
X$644 10 23 211 172 233 16 16 10 sky130_fd_sc_hd__dfrtp_1
* cell instance $645 r0 *1 116.84,35.36
X$645 16 228 10 209 16 10 sky130_fd_sc_hd__clkbuf_4
* cell instance $657 m0 *1 9.66,40.8
X$657 10 229 157 28 70 16 16 10 sky130_fd_sc_hd__mux2_1
* cell instance $658 m0 *1 13.8,40.8
X$658 10 146 22 16 16 10 sky130_fd_sc_hd__clkbuf_16
* cell instance $660 m0 *1 24.84,40.8
X$660 10 232 231 74 162 16 16 10 sky130_fd_sc_hd__mux2_1
* cell instance $664 m0 *1 34.04,40.8
X$664 16 249 32 250 16 10 10 sky130_fd_sc_hd__xnor2_1
* cell instance $666 m0 *1 38.18,40.8
X$666 16 206 221 205 250 16 252 10 10 sky130_fd_sc_hd__nand4_1
* cell instance $667 m0 *1 40.48,40.8
X$667 10 207 16 16 10 sky130_fd_sc_hd__bufinv_16
* cell instance $668 m0 *1 51.52,40.8
X$668 16 238 82 221 16 10 10 sky130_fd_sc_hd__xnor2_1
* cell instance $674 m0 *1 68.08,40.8
X$674 16 222 16 10 10 sky130_fd_sc_hd__clkinvlp_4
* cell instance $675 m0 *1 70.84,40.8
X$675 10 23 251 222 253 16 16 10 sky130_fd_sc_hd__dfrtp_1
* cell instance $676 m0 *1 80.04,40.8
X$676 16 223 219 217 16 10 10 sky130_fd_sc_hd__nand2_1
* cell instance $680 m0 *1 84.64,40.8
X$680 10 240 224 118 127 16 16 10 sky130_fd_sc_hd__mux2_1
* cell instance $681 m0 *1 88.78,40.8
X$681 16 224 45 225 16 10 10 sky130_fd_sc_hd__xnor2_1
* cell instance $682 m0 *1 92,40.8
X$682 16 290 225 236 16 10 10 sky130_fd_sc_hd__nand2_1
* cell instance $684 m0 *1 94.3,40.8
X$684 10 210 192 209 127 16 16 10 sky130_fd_sc_hd__mux2_1
* cell instance $686 m0 *1 98.9,40.8
X$686 16 198 226 234 239 16 10 10 sky130_fd_sc_hd__nand3_1
* cell instance $687 m0 *1 100.74,40.8
X$687 10 11 213 16 16 10 sky130_fd_sc_hd__buf_16
* cell instance $690 m0 *1 112.24,40.8
X$690 10 233 211 178 127 16 16 10 sky130_fd_sc_hd__mux2_1
* cell instance $691 m0 *1 116.38,40.8
X$691 16 176 218 230 16 10 10 sky130_fd_sc_hd__xnor2_1
* cell instance $694 r0 *1 6.9,40.8
X$694 10 247 212 64 70 16 16 10 sky130_fd_sc_hd__mux2_1
* cell instance $695 r0 *1 11.04,40.8
X$695 10 265 241 62 70 16 16 10 sky130_fd_sc_hd__mux2_1
* cell instance $698 r0 *1 15.64,40.8
X$698 10 242 16 16 10 sky130_fd_sc_hd__clkbuf_8
* cell instance $699 r0 *1 20.7,40.8
X$699 16 197 285 196 177 16 266 10 10 sky130_fd_sc_hd__nand4_1
* cell instance $700 r0 *1 23,40.8
X$700 10 23 249 242 243 16 16 10 sky130_fd_sc_hd__dfrtp_1
* cell instance $701 r0 *1 32.2,40.8
X$701 10 243 249 28 162 16 16 10 sky130_fd_sc_hd__mux2_1
* cell instance $704 r0 *1 39.1,40.8
X$704 16 215 204 199 244 16 10 10 sky130_fd_sc_hd__nand3_1
* cell instance $706 r0 *1 41.4,40.8
X$706 16 244 237 255 10 16 10 sky130_fd_sc_hd__nor2_1
* cell instance $709 r0 *1 43.24,40.8
X$709 10 23 238 207 254 16 16 10 sky130_fd_sc_hd__dfrtp_1
* cell instance $711 r0 *1 52.9,40.8
X$711 10 23 272 222 270 16 16 10 sky130_fd_sc_hd__dfrtp_1
* cell instance $718 r0 *1 71.3,40.8
X$718 16 178 16 10 64 10 sky130_fd_sc_hd__buf_4
* cell instance $719 r0 *1 74.06,40.8
X$719 10 253 251 178 71 16 16 10 sky130_fd_sc_hd__mux2_1
* cell instance $731 r0 *1 99.82,40.8
X$731 10 82 246 16 16 10 sky130_fd_sc_hd__buf_6
* cell instance $735 r0 *1 109.94,40.8
X$735 10 23 263 172 248 16 16 10 sky130_fd_sc_hd__dfrtp_1
* cell instance $746 m0 *1 3.22,46.24
X$746 10 23 241 242 265 16 16 10 sky130_fd_sc_hd__dfrtp_1
* cell instance $749 m0 *1 13.8,46.24
X$749 10 146 242 16 16 10 sky130_fd_sc_hd__clkbuf_16
* cell instance $759 m0 *1 41.86,46.24
X$759 16 256 215 257 16 10 10 sky130_fd_sc_hd__nand2_1
* cell instance $760 m0 *1 43.24,46.24
X$760 16 257 235 252 258 10 16 10 sky130_fd_sc_hd__nor3_1
* cell instance $761 m0 *1 45.08,46.24
X$761 16 257 235 252 289 16 10 10 sky130_fd_sc_hd__or3_1
* cell instance $763 m0 *1 48.3,46.24
X$763 10 254 238 62 162 16 16 10 sky130_fd_sc_hd__mux2_1
* cell instance $765 m0 *1 53.36,46.24
X$765 16 272 45 292 16 10 10 sky130_fd_sc_hd__xnor2_1
* cell instance $767 m0 *1 57.04,46.24
X$767 10 270 272 144 27 16 16 10 sky130_fd_sc_hd__mux2_1
* cell instance $769 m0 *1 61.64,46.24
X$769 10 10 271 16 259 311 16 sky130_fd_sc_hd__nor2_2
* cell instance $770 m0 *1 63.94,46.24
X$770 10 686 295 269 260 16 16 10 sky130_fd_sc_hd__ha_1
* cell instance $771 m0 *1 68.54,46.24
X$771 16 268 10 261 16 10 sky130_fd_sc_hd__clkbuf_4
* cell instance $772 m0 *1 71.3,46.24
X$772 10 279 261 301 16 127 16 10 sky130_fd_sc_hd__nand3_4
* cell instance $780 m0 *1 90.62,46.24
X$780 10 23 267 172 307 16 16 10 sky130_fd_sc_hd__dfrtp_1
* cell instance $783 m0 *1 102.58,46.24
X$783 10 23 283 172 287 16 16 10 sky130_fd_sc_hd__dfrtp_1
* cell instance $785 m0 *1 112.24,46.24
X$785 10 248 68 263 262 16 16 10 sky130_fd_sc_hd__mux2_1
* cell instance $787 m0 *1 116.84,46.24
X$787 16 264 10 118 16 10 sky130_fd_sc_hd__clkbuf_4
* cell instance $790 r0 *1 5.98,46.24
X$790 10 23 274 242 273 16 16 10 sky130_fd_sc_hd__dfrtp_1
* cell instance $793 r0 *1 15.64,46.24
X$793 10 273 274 30 275 16 16 10 sky130_fd_sc_hd__mux2_1
* cell instance $794 r0 *1 19.78,46.24
X$794 16 241 246 285 16 10 10 sky130_fd_sc_hd__xnor2_1
* cell instance $797 r0 *1 27.6,46.24
X$797 10 276 245 286 266 16 16 10 sky130_fd_sc_hd__nor3_2
* cell instance $798 r0 *1 31.28,46.24
X$798 10 308 277 144 70 16 16 10 sky130_fd_sc_hd__mux2_1
* cell instance $800 r0 *1 37.26,46.24
X$800 16 277 45 278 16 10 10 sky130_fd_sc_hd__xnor2_1
* cell instance $801 r0 *1 40.48,46.24
X$801 16 297 278 276 16 10 10 sky130_fd_sc_hd__nand2_1
* cell instance $806 r0 *1 46.92,46.24
X$806 10 279 280 301 16 162 16 10 sky130_fd_sc_hd__nand3_4
* cell instance $808 r0 *1 55.2,46.24
X$808 16 294 292 115 16 10 10 sky130_fd_sc_hd__nand2_1
* cell instance $810 r0 *1 57.5,46.24
X$810 10 688 281 259 260 16 16 10 sky130_fd_sc_hd__ha_1
* cell instance $811 r0 *1 62.1,46.24
X$811 16 281 16 10 296 10 sky130_fd_sc_hd__buf_4
* cell instance $813 r0 *1 65.32,46.24
X$813 16 259 16 10 269 10 sky130_fd_sc_hd__inv_1
* cell instance $815 r0 *1 67.62,46.24
X$815 16 295 10 280 16 10 sky130_fd_sc_hd__clkbuf_4
* cell instance $820 r0 *1 75.44,46.24
X$820 10 23 290 222 293 16 16 10 sky130_fd_sc_hd__dfrtp_1
* cell instance $822 r0 *1 86.48,46.24
X$822 10 23 303 172 291 16 16 10 sky130_fd_sc_hd__dfrtp_1
* cell instance $827 r0 *1 98.44,46.24
X$827 16 267 218 288 16 10 10 sky130_fd_sc_hd__xnor2_1
* cell instance $830 r0 *1 105.8,46.24
X$830 10 287 34 283 262 16 16 10 sky130_fd_sc_hd__mux2_1
* cell instance $831 r0 *1 109.94,46.24
X$831 16 283 168 284 16 10 10 sky130_fd_sc_hd__xnor2_1
* cell instance $832 r0 *1 113.16,46.24
X$832 16 263 246 320 16 10 10 sky130_fd_sc_hd__xnor2_1
* cell instance $847 m0 *1 7.82,51.68
X$847 10 321 322 29 275 16 16 10 sky130_fd_sc_hd__mux2_1
* cell instance $848 m0 *1 11.96,51.68
X$848 10 306 313 62 275 16 16 10 sky130_fd_sc_hd__mux2_1
* cell instance $850 m0 *1 19.78,51.68
X$850 10 23 314 242 324 16 16 10 sky130_fd_sc_hd__dfrtp_1
* cell instance $852 m0 *1 29.44,51.68
X$852 10 23 277 207 308 16 16 10 sky130_fd_sc_hd__dfrtp_1
* cell instance $853 m0 *1 38.64,51.68
X$853 16 296 298 297 10 16 325 10 sky130_fd_sc_hd__a21o_1
* cell instance $854 m0 *1 41.4,51.68
X$854 16 255 250 256 310 10 16 309 10 sky130_fd_sc_hd__a31oi_1
* cell instance $859 m0 *1 53.36,51.68
X$859 16 150 312 331 299 16 455 10 10 sky130_fd_sc_hd__nand4_1
* cell instance $864 m0 *1 61.18,51.68
X$864 16 260 16 10 300 10 sky130_fd_sc_hd__inv_1
* cell instance $865 m0 *1 62.56,51.68
X$865 10 311 268 269 300 16 16 10 sky130_fd_sc_hd__ha_1
* cell instance $866 m0 *1 67.16,51.68
X$866 10 339 261 301 16 40 16 10 sky130_fd_sc_hd__nand3_4
* cell instance $868 m0 *1 74.52,51.68
X$868 10 23 66 222 335 16 16 10 sky130_fd_sc_hd__dfrtp_1
* cell instance $872 m0 *1 85.56,51.68
X$872 10 45 302 16 16 10 sky130_fd_sc_hd__buf_6
* cell instance $873 m0 *1 89.7,51.68
X$873 10 291 173 303 262 16 16 10 sky130_fd_sc_hd__mux2_1
* cell instance $874 m0 *1 93.84,51.68
X$874 10 307 153 267 262 16 16 10 sky130_fd_sc_hd__mux2_1
* cell instance $875 m0 *1 97.98,51.68
X$875 16 303 140 304 16 10 10 sky130_fd_sc_hd__xnor2_1
* cell instance $876 m0 *1 101.2,51.68
X$876 16 305 288 304 317 16 10 10 sky130_fd_sc_hd__nand3_1
* cell instance $886 r0 *1 5.98,51.68
X$886 10 23 313 242 306 16 16 10 sky130_fd_sc_hd__dfrtp_1
* cell instance $892 r0 *1 21.62,51.68
X$892 10 324 314 60 275 16 16 10 sky130_fd_sc_hd__mux2_1
* cell instance $896 r0 *1 33.58,51.68
X$896 10 23 297 207 325 16 16 10 sky130_fd_sc_hd__dfrtp_1
* cell instance $899 r0 *1 43.24,51.68
X$899 10 23 330 207 347 16 16 10 sky130_fd_sc_hd__dfrtp_1
* cell instance $900 r0 *1 52.44,51.68
X$900 16 330 302 331 16 10 10 sky130_fd_sc_hd__xnor2_1
* cell instance $902 r0 *1 56.12,51.68
X$902 16 280 333 294 10 16 332 10 sky130_fd_sc_hd__a21o_1
* cell instance $903 r0 *1 58.88,51.68
X$903 10 687 351 259 300 16 16 10 sky130_fd_sc_hd__ha_1
* cell instance $904 r0 *1 63.48,51.68
X$904 10 334 350 259 260 16 16 10 sky130_fd_sc_hd__nor3_2
* cell instance $905 r0 *1 67.16,51.68
X$905 16 336 10 279 16 10 sky130_fd_sc_hd__clkbuf_4
* cell instance $910 r0 *1 71.3,51.68
X$910 10 279 340 301 16 71 16 10 sky130_fd_sc_hd__nand3_4
* cell instance $912 r0 *1 78.2,51.68
X$912 16 271 376 66 10 16 335 10 sky130_fd_sc_hd__a21o_1
* cell instance $914 r0 *1 81.42,51.68
X$914 10 293 329 298 271 290 16 16 10 sky130_fd_sc_hd__a31o_1
* cell instance $916 r0 *1 85.56,51.68
X$916 10 328 178 327 262 16 16 10 sky130_fd_sc_hd__mux2_1
* cell instance $918 r0 *1 90.62,51.68
X$918 16 345 367 316 16 10 10 sky130_fd_sc_hd__nand2_1
* cell instance $920 r0 *1 92.92,51.68
X$920 10 316 315 317 318 16 16 10 sky130_fd_sc_hd__nor3_2
* cell instance $925 r0 *1 98.44,51.68
X$925 10 326 209 323 262 16 16 10 sky130_fd_sc_hd__mux2_1
* cell instance $929 r0 *1 105.8,51.68
X$929 10 23 341 344 343 16 16 10 sky130_fd_sc_hd__dfrtp_1
* cell instance $930 r0 *1 115,51.68
X$930 16 284 320 319 342 16 318 10 10 sky130_fd_sc_hd__nand4_1
* cell instance $942 m0 *1 3.22,57.12
X$942 10 23 322 242 321 16 16 10 sky130_fd_sc_hd__dfrtp_1
* cell instance $944 m0 *1 12.88,57.12
X$944 16 322 168 337 16 10 10 sky130_fd_sc_hd__xnor2_1
* cell instance $946 m0 *1 17.02,57.12
X$946 16 313 246 338 16 10 10 sky130_fd_sc_hd__xnor2_1
* cell instance $948 m0 *1 20.7,57.12
X$948 16 274 140 368 16 10 10 sky130_fd_sc_hd__xnor2_1
* cell instance $950 m0 *1 25.76,57.12
X$950 16 314 218 369 16 10 10 sky130_fd_sc_hd__xnor2_1
* cell instance $955 m0 *1 35.88,57.12
X$955 10 339 296 301 16 70 16 10 sky130_fd_sc_hd__nand3_4