* CDL Netlist generated by OpenROAD

*.BUSDELIMITER [

.SUBCKT memory_mapped_fifo clk ext_empty ext_full ext_rd_data[0]
+ ext_rd_data[10] ext_rd_data[11] ext_rd_data[12] ext_rd_data[13]
+ ext_rd_data[14] ext_rd_data[15] ext_rd_data[16] ext_rd_data[17]
+ ext_rd_data[18] ext_rd_data[19] ext_rd_data[1] ext_rd_data[20]
+ ext_rd_data[21] ext_rd_data[22] ext_rd_data[23] ext_rd_data[24]
+ ext_rd_data[25] ext_rd_data[26] ext_rd_data[27] ext_rd_data[28]
+ ext_rd_data[29] ext_rd_data[2] ext_rd_data[30] ext_rd_data[31]
+ ext_rd_data[3] ext_rd_data[4] ext_rd_data[5] ext_rd_data[6]
+ ext_rd_data[7] ext_rd_data[8] ext_rd_data[9] ext_rd_en ext_wr_data[0]
+ ext_wr_data[10] ext_wr_data[11] ext_wr_data[12] ext_wr_data[13]
+ ext_wr_data[14] ext_wr_data[15] ext_wr_data[16] ext_wr_data[17]
+ ext_wr_data[18] ext_wr_data[19] ext_wr_data[1] ext_wr_data[20]
+ ext_wr_data[21] ext_wr_data[22] ext_wr_data[23] ext_wr_data[24]
+ ext_wr_data[25] ext_wr_data[26] ext_wr_data[27] ext_wr_data[28]
+ ext_wr_data[29] ext_wr_data[2] ext_wr_data[30] ext_wr_data[31]
+ ext_wr_data[3] ext_wr_data[4] ext_wr_data[5] ext_wr_data[6]
+ ext_wr_data[7] ext_wr_data[8] ext_wr_data[9] ext_wr_en mem_addr[0]
+ mem_addr[1] mem_addr[2] mem_addr[3] mem_rdata[0] mem_rdata[10]
+ mem_rdata[11] mem_rdata[12] mem_rdata[13] mem_rdata[14] mem_rdata[15]
+ mem_rdata[16] mem_rdata[17] mem_rdata[18] mem_rdata[19] mem_rdata[1]
+ mem_rdata[20] mem_rdata[21] mem_rdata[22] mem_rdata[23] mem_rdata[24]
+ mem_rdata[25] mem_rdata[26] mem_rdata[27] mem_rdata[28] mem_rdata[29]
+ mem_rdata[2] mem_rdata[30] mem_rdata[31] mem_rdata[3] mem_rdata[4]
+ mem_rdata[5] mem_rdata[6] mem_rdata[7] mem_rdata[8] mem_rdata[9]
+ mem_ready mem_valid mem_wdata[0] mem_wdata[10] mem_wdata[11]
+ mem_wdata[12] mem_wdata[13] mem_wdata[14] mem_wdata[15] mem_wdata[16]
+ mem_wdata[17] mem_wdata[18] mem_wdata[19] mem_wdata[1] mem_wdata[20]
+ mem_wdata[21] mem_wdata[22] mem_wdata[23] mem_wdata[24] mem_wdata[25]
+ mem_wdata[26] mem_wdata[27] mem_wdata[28] mem_wdata[29] mem_wdata[2]
+ mem_wdata[30] mem_wdata[31] mem_wdata[3] mem_wdata[4] mem_wdata[5]
+ mem_wdata[6] mem_wdata[7] mem_wdata[8] mem_wdata[9] mem_write
+ rst_n
X_1519_ _1500_ _1497_ _1488_ _0586_ VDD VSS gf180mcu_fd_sc_mcu9t5v0__and3_2
X_1520_ _1497_ _1499_ _0586_ _1496_ _0587_ VDD VSS gf180mcu_fd_sc_mcu9t5v0__aoi211_2
X_1521_ wr_ptr\[4\] rd_ptr\[4\] _0587_ _0588_ VDD VSS gf180mcu_fd_sc_mcu9t5v0__xor3_4
X_1522_ _1489_ _0589_ VDD VSS gf180mcu_fd_sc_mcu9t5v0__clkinv_2
X_1523_ _1500_ _1488_ _0590_ VDD VSS gf180mcu_fd_sc_mcu9t5v0__xnor2_2
X_1524_ _1497_ _1492_ _0589_ _0590_ _0591_ VDD VSS gf180mcu_fd_sc_mcu9t5v0__and4_2
X_1525_ _1492_ _0592_ VDD VSS gf180mcu_fd_sc_mcu9t5v0__clkinv_2
X_1526_ _1500_ _1488_ _0593_ VDD VSS gf180mcu_fd_sc_mcu9t5v0__xor2_2
X_1527_ _1497_ _0592_ _1489_ _0593_ _0594_ VDD VSS gf180mcu_fd_sc_mcu9t5v0__nor4_2
X_1528_ _1500_ _1494_ _0595_ VDD VSS gf180mcu_fd_sc_mcu9t5v0__and2_2
X_1529_ _1491_ _1487_ VDD VSS gf180mcu_fd_sc_mcu9t5v0__clkinv_2
X_1530_ _1500_ _1493_ _0595_ _1487_ _1499_ _0596_ VDD VSS
+ gf180mcu_fd_sc_mcu9t5v0__aoi221_4
X_1531_ _0591_ _0594_ _0596_ _0597_ VDD VSS gf180mcu_fd_sc_mcu9t5v0__mux2_4
X_1532_ _0588_ _0597_ net76 VDD VSS gf180mcu_fd_sc_mcu9t5v0__and2_2
X_1533_ wr_ptr\[4\] rd_ptr\[4\] _0587_ _0598_ VDD VSS gf180mcu_fd_sc_mcu9t5v0__xnor3_2
X_1534_ _0598_ _0597_ net75 VDD VSS gf180mcu_fd_sc_mcu9t5v0__and2_2
X_1535_ rd_ptr\[3\] _0599_ VDD VSS gf180mcu_fd_sc_mcu9t5v0__clkinv_4
X_1536_ _0599_ _0600_ VDD VSS gf180mcu_fd_sc_mcu9t5v0__buf_8
X_1537_ _0600_ _1495_ VDD VSS gf180mcu_fd_sc_mcu9t5v0__clkbuf_12
X_1538_ rd_ptr\[2\] _0601_ VDD VSS gf180mcu_fd_sc_mcu9t5v0__clkbuf_8
X_1539_ _0601_ _0602_ VDD VSS gf180mcu_fd_sc_mcu9t5v0__inv_3
X_1540_ _0602_ _0603_ VDD VSS gf180mcu_fd_sc_mcu9t5v0__buf_8
X_1541_ _0603_ _1498_ VDD VSS gf180mcu_fd_sc_mcu9t5v0__buf_8
X_1542_ rd_ptr\[0\] _1501_ VDD VSS gf180mcu_fd_sc_mcu9t5v0__clkinv_2
X_1543_ wr_ptr\[0\] _1490_ VDD VSS gf180mcu_fd_sc_mcu9t5v0__clkinv_2
X_1544_ rd_ptr\[1\] _1486_ VDD VSS gf180mcu_fd_sc_mcu9t5v0__clkinv_3
X_1545_ wr_ptr\[1\] _1510_ VDD VSS gf180mcu_fd_sc_mcu9t5v0__clkinv_2
X_1546_ net77 _0604_ VDD VSS gf180mcu_fd_sc_mcu9t5v0__clkinv_2
X_1547_ net40 net73 _0605_ VDD VSS gf180mcu_fd_sc_mcu9t5v0__and2_2
X_1548_ net38 _0606_ VDD VSS gf180mcu_fd_sc_mcu9t5v0__clkinv_2
X_1549_ _0606_ net39 _0607_ VDD VSS gf180mcu_fd_sc_mcu9t5v0__and2_2
X_1550_ net37 net36 _0608_ VDD VSS gf180mcu_fd_sc_mcu9t5v0__nor2_4
X_1551_ net41 net52 _0609_ VDD VSS gf180mcu_fd_sc_mcu9t5v0__or2_4
X_1552_ _0605_ _0607_ _0608_ _0609_ _0610_ VDD VSS gf180mcu_fd_sc_mcu9t5v0__nand4_4
X_1553_ _0610_ _0611_ VDD VSS gf180mcu_fd_sc_mcu9t5v0__buf_4
X_1554_ _1497_ _1492_ _0589_ _0590_ _0612_ VDD VSS gf180mcu_fd_sc_mcu9t5v0__nand4_2
X_1555_ _1497_ _0592_ _1489_ _0593_ _0613_ VDD VSS gf180mcu_fd_sc_mcu9t5v0__or4_2
X_1556_ _0612_ _0613_ _0596_ _0614_ VDD VSS gf180mcu_fd_sc_mcu9t5v0__mux2_2
X_1557_ net73 _0615_ VDD VSS gf180mcu_fd_sc_mcu9t5v0__clkinv_2
X_1558_ net40 _0615_ _0616_ VDD VSS gf180mcu_fd_sc_mcu9t5v0__and2_2
X_1559_ net39 _0617_ VDD VSS gf180mcu_fd_sc_mcu9t5v0__clkinv_2
X_1560_ _0606_ _0617_ _0608_ _0618_ VDD VSS gf180mcu_fd_sc_mcu9t5v0__and3_2
X_1561_ _0616_ _0618_ _0619_ VDD VSS gf180mcu_fd_sc_mcu9t5v0__and2_2
X_1562_ _0588_ _0614_ _0619_ net2 _0620_ VDD VSS gf180mcu_fd_sc_mcu9t5v0__oai22_4
X_1563_ _0611_ _0620_ _0621_ VDD VSS gf180mcu_fd_sc_mcu9t5v0__nand2_4
X_1564_ _0621_ _0622_ VDD VSS gf180mcu_fd_sc_mcu9t5v0__clkbuf_8
X_1565_ _0616_ _0618_ net2 _0623_ VDD VSS gf180mcu_fd_sc_mcu9t5v0__aoi21_2
X_1566_ _0598_ _0597_ _0623_ _0624_ VDD VSS gf180mcu_fd_sc_mcu9t5v0__aoi21_4
X_1567_ _0611_ _0624_ _0625_ VDD VSS gf180mcu_fd_sc_mcu9t5v0__nand2_4
X_1568_ _0625_ _0626_ VDD VSS gf180mcu_fd_sc_mcu9t5v0__clkbuf_8
X_1569_ rd_ptr\[3\] _0627_ VDD VSS gf180mcu_fd_sc_mcu9t5v0__buf_8
X_1570_ _1502_ _0628_ VDD VSS gf180mcu_fd_sc_mcu9t5v0__clkbuf_12
X_1571_ _0627_ _0601_ _0628_ _0629_ VDD VSS gf180mcu_fd_sc_mcu9t5v0__oai21_2
X_1572_ _1508_ _1504_ _1506_ _0630_ VDD VSS gf180mcu_fd_sc_mcu9t5v0__nor3_4
X_1573_ _0629_ _0630_ _0631_ VDD VSS gf180mcu_fd_sc_mcu9t5v0__nand2_4
X_1574_ _0631_ _0632_ VDD VSS gf180mcu_fd_sc_mcu9t5v0__clkbuf_16
X_1575_ rd_ptr\[3\] _0633_ VDD VSS gf180mcu_fd_sc_mcu9t5v0__buf_8
X_1576_ _0601_ _0634_ VDD VSS gf180mcu_fd_sc_mcu9t5v0__buf_8
X_1577_ _1506_ _0635_ VDD VSS gf180mcu_fd_sc_mcu9t5v0__buf_8
X_1578_ _0633_ _0634_ mem\[13\]\[0\] _0635_ _0636_ VDD VSS
+ gf180mcu_fd_sc_mcu9t5v0__and4_2
X_1579_ _0599_ _0637_ VDD VSS gf180mcu_fd_sc_mcu9t5v0__buf_8
X_1580_ _0602_ _0638_ VDD VSS gf180mcu_fd_sc_mcu9t5v0__clkbuf_8
X_1581_ _1508_ _0639_ VDD VSS gf180mcu_fd_sc_mcu9t5v0__buf_8
X_1582_ _0637_ _0638_ _0639_ mem\[3\]\[0\] _0640_ VDD VSS
+ gf180mcu_fd_sc_mcu9t5v0__and4_2
X_1583_ _0636_ _0640_ _0641_ VDD VSS gf180mcu_fd_sc_mcu9t5v0__or2_2
X_1584_ _0628_ _0642_ VDD VSS gf180mcu_fd_sc_mcu9t5v0__clkbuf_12
X_1585_ _0642_ _0643_ VDD VSS gf180mcu_fd_sc_mcu9t5v0__buf_8
X_1586_ _0601_ _0644_ VDD VSS gf180mcu_fd_sc_mcu9t5v0__buf_8
X_1587_ _0599_ _0644_ _0645_ VDD VSS gf180mcu_fd_sc_mcu9t5v0__and2_4
X_1588_ mem\[4\]\[0\] _0643_ _0645_ _0646_ VDD VSS gf180mcu_fd_sc_mcu9t5v0__and3_2
X_1589_ _1504_ _0647_ VDD VSS gf180mcu_fd_sc_mcu9t5v0__clkbuf_8
X_1590_ _0647_ _0648_ VDD VSS gf180mcu_fd_sc_mcu9t5v0__buf_8
X_1591_ _1506_ _0649_ VDD VSS gf180mcu_fd_sc_mcu9t5v0__clkbuf_12
X_1592_ _0649_ _0650_ VDD VSS gf180mcu_fd_sc_mcu9t5v0__clkbuf_12
X_1593_ mem\[10\]\[0\] _0648_ _0650_ mem\[9\]\[0\] _0651_
+ VDD VSS gf180mcu_fd_sc_mcu9t5v0__aoi22_2
X_1594_ _0633_ _0638_ _0652_ VDD VSS gf180mcu_fd_sc_mcu9t5v0__nand2_4
X_1595_ _0651_ _0652_ _0653_ VDD VSS gf180mcu_fd_sc_mcu9t5v0__nor2_2
X_1596_ _0644_ _0654_ VDD VSS gf180mcu_fd_sc_mcu9t5v0__buf_8
X_1597_ mem\[6\]\[0\] mem\[14\]\[0\] _0627_ _0655_ VDD VSS
+ gf180mcu_fd_sc_mcu9t5v0__mux2_2
X_1598_ _0654_ _0648_ _0655_ _0656_ VDD VSS gf180mcu_fd_sc_mcu9t5v0__and3_2
X_1599_ _0641_ _0646_ _0653_ _0656_ _0657_ VDD VSS gf180mcu_fd_sc_mcu9t5v0__or4_2
X_1600_ _0631_ _0658_ VDD VSS gf180mcu_fd_sc_mcu9t5v0__buf_8
X_1601_ _1508_ _0659_ VDD VSS gf180mcu_fd_sc_mcu9t5v0__buf_8
X_1602_ _0659_ _0660_ VDD VSS gf180mcu_fd_sc_mcu9t5v0__buf_8
X_1603_ _0649_ _0661_ VDD VSS gf180mcu_fd_sc_mcu9t5v0__buf_8
X_1604_ _0660_ mem\[7\]\[0\] mem\[5\]\[0\] _0661_ _0662_ VDD
+ VSS gf180mcu_fd_sc_mcu9t5v0__aoi22_2
X_1605_ _1504_ _0663_ VDD VSS gf180mcu_fd_sc_mcu9t5v0__buf_8
X_1606_ _0663_ _0664_ VDD VSS gf180mcu_fd_sc_mcu9t5v0__clkbuf_12
X_1607_ _0649_ _0665_ VDD VSS gf180mcu_fd_sc_mcu9t5v0__buf_8
X_1608_ mem\[2\]\[0\] _0664_ _0665_ mem\[1\]\[0\] _0666_ VDD
+ VSS gf180mcu_fd_sc_mcu9t5v0__aoi22_2
X_1609_ _0659_ _0667_ VDD VSS gf180mcu_fd_sc_mcu9t5v0__clkbuf_12
X_1610_ _0628_ _0668_ VDD VSS gf180mcu_fd_sc_mcu9t5v0__clkbuf_12
X_1611_ _0667_ mem\[15\]\[0\] mem\[12\]\[0\] _0668_ _0669_
+ VDD VSS gf180mcu_fd_sc_mcu9t5v0__aoi22_2
X_1612_ _0660_ mem\[11\]\[0\] mem\[8\]\[0\] _0668_ _0670_
+ VDD VSS gf180mcu_fd_sc_mcu9t5v0__aoi22_2
X_1613_ _0638_ _0671_ VDD VSS gf180mcu_fd_sc_mcu9t5v0__buf_8
X_1614_ _0633_ _0672_ VDD VSS gf180mcu_fd_sc_mcu9t5v0__buf_8
X_1615_ _0662_ _0666_ _0669_ _0670_ _0671_ _0672_ _0673_ VDD
+ VSS gf180mcu_fd_sc_mcu9t5v0__mux4_2
X_1616_ _0658_ _0673_ _0674_ VDD VSS gf180mcu_fd_sc_mcu9t5v0__nand2_2
X_1617_ mem\[0\]\[0\] _0632_ _0657_ _0674_ _0675_ VDD VSS
+ gf180mcu_fd_sc_mcu9t5v0__oai22_4
X_1618_ _0604_ _0622_ _0626_ _0675_ _0000_ VDD VSS gf180mcu_fd_sc_mcu9t5v0__oai22_2
X_1619_ _0625_ _0676_ VDD VSS gf180mcu_fd_sc_mcu9t5v0__buf_4
X_1620_ _0629_ _0630_ _0677_ VDD VSS gf180mcu_fd_sc_mcu9t5v0__and2_4
X_1621_ _0677_ _0678_ VDD VSS gf180mcu_fd_sc_mcu9t5v0__buf_12
X_1622_ _0627_ _0679_ VDD VSS gf180mcu_fd_sc_mcu9t5v0__buf_8
X_1623_ _0679_ _0680_ VDD VSS gf180mcu_fd_sc_mcu9t5v0__clkbuf_12
X_1624_ _0659_ _0681_ VDD VSS gf180mcu_fd_sc_mcu9t5v0__buf_8
X_1625_ _0681_ mem\[3\]\[10\] _0682_ VDD VSS gf180mcu_fd_sc_mcu9t5v0__nand2_2
X_1626_ _1504_ _0683_ VDD VSS gf180mcu_fd_sc_mcu9t5v0__buf_12
X_1627_ _1506_ _0684_ VDD VSS gf180mcu_fd_sc_mcu9t5v0__clkbuf_12
X_1628_ mem\[6\]\[10\] _0683_ _0684_ mem\[5\]\[10\] mem\[4\]\[10\]
+ _0642_ _0685_ VDD VSS gf180mcu_fd_sc_mcu9t5v0__aoi222_4
X_1629_ _0682_ _0685_ _0654_ _0686_ VDD VSS gf180mcu_fd_sc_mcu9t5v0__mux2_2
X_1630_ _0627_ _0687_ VDD VSS gf180mcu_fd_sc_mcu9t5v0__clkbuf_8
X_1631_ _0687_ mem\[14\]\[10\] _0664_ _0688_ VDD VSS gf180mcu_fd_sc_mcu9t5v0__and3_2
X_1632_ _0600_ _0660_ mem\[7\]\[10\] _0689_ VDD VSS gf180mcu_fd_sc_mcu9t5v0__and3_2
X_1633_ _0688_ _0689_ _0690_ VDD VSS gf180mcu_fd_sc_mcu9t5v0__nor2_2
X_1634_ _0687_ _0691_ VDD VSS gf180mcu_fd_sc_mcu9t5v0__buf_8
X_1635_ _0649_ _0692_ VDD VSS gf180mcu_fd_sc_mcu9t5v0__clkbuf_12
X_1636_ _0692_ _0693_ VDD VSS gf180mcu_fd_sc_mcu9t5v0__buf_8
X_1637_ _0601_ _0694_ VDD VSS gf180mcu_fd_sc_mcu9t5v0__buf_8
X_1638_ mem\[9\]\[10\] mem\[13\]\[10\] _0694_ _0695_ VDD VSS
+ gf180mcu_fd_sc_mcu9t5v0__mux2_2
X_1639_ _0691_ _0693_ _0695_ _0696_ VDD VSS gf180mcu_fd_sc_mcu9t5v0__nand3_2
X_1640_ _0680_ _0686_ _0690_ _1498_ _0696_ _0697_ VDD VSS
+ gf180mcu_fd_sc_mcu9t5v0__oai221_4
X_1641_ _0654_ _0698_ VDD VSS gf180mcu_fd_sc_mcu9t5v0__buf_8
X_1642_ _0663_ _0699_ VDD VSS gf180mcu_fd_sc_mcu9t5v0__clkbuf_12
X_1643_ _0699_ _0700_ VDD VSS gf180mcu_fd_sc_mcu9t5v0__buf_8
X_1644_ mem\[2\]\[10\] mem\[10\]\[10\] _0633_ _0701_ VDD VSS
+ gf180mcu_fd_sc_mcu9t5v0__mux2_2
X_1645_ _0637_ mem\[1\]\[10\] _0661_ _0702_ VDD VSS gf180mcu_fd_sc_mcu9t5v0__and3_2
X_1646_ _1508_ _0703_ VDD VSS gf180mcu_fd_sc_mcu9t5v0__buf_8
X_1647_ _0687_ _0703_ mem\[11\]\[10\] _0704_ VDD VSS gf180mcu_fd_sc_mcu9t5v0__and3_2
X_1648_ _0700_ _0701_ _0702_ _0704_ _0705_ VDD VSS gf180mcu_fd_sc_mcu9t5v0__aoi211_2
X_1649_ _0628_ _0706_ VDD VSS gf180mcu_fd_sc_mcu9t5v0__buf_8
X_1650_ _0706_ _0707_ VDD VSS gf180mcu_fd_sc_mcu9t5v0__buf_8
X_1651_ mem\[8\]\[10\] mem\[12\]\[10\] _0694_ _0708_ VDD VSS
+ gf180mcu_fd_sc_mcu9t5v0__mux2_2
X_1652_ _0601_ _0709_ VDD VSS gf180mcu_fd_sc_mcu9t5v0__buf_8
X_1653_ _0709_ _0710_ VDD VSS gf180mcu_fd_sc_mcu9t5v0__clkbuf_8
X_1654_ _0710_ _0667_ mem\[15\]\[10\] _0711_ VDD VSS gf180mcu_fd_sc_mcu9t5v0__and3_2
X_1655_ _0707_ _0708_ _0711_ _0712_ VDD VSS gf180mcu_fd_sc_mcu9t5v0__aoi21_2
X_1656_ _0698_ _0705_ _0712_ _1495_ _0713_ VDD VSS gf180mcu_fd_sc_mcu9t5v0__oai22_2
X_1657_ _0678_ _0697_ _0713_ _0714_ VDD VSS gf180mcu_fd_sc_mcu9t5v0__nor3_4
X_1658_ _0631_ _0715_ VDD VSS gf180mcu_fd_sc_mcu9t5v0__buf_8
X_1659_ mem\[0\]\[10\] _0715_ _0716_ VDD VSS gf180mcu_fd_sc_mcu9t5v0__nor2_2
X_1660_ _0621_ _0717_ VDD VSS gf180mcu_fd_sc_mcu9t5v0__clkbuf_8
X_1661_ net78 _0718_ VDD VSS gf180mcu_fd_sc_mcu9t5v0__clkinv_2
X_1662_ _0676_ _0714_ _0716_ _0717_ _0718_ _0001_ VDD VSS
+ gf180mcu_fd_sc_mcu9t5v0__oai32_2
X_1663_ net79 _0719_ VDD VSS gf180mcu_fd_sc_mcu9t5v0__clkinv_2
X_1664_ _0631_ _0720_ VDD VSS gf180mcu_fd_sc_mcu9t5v0__clkbuf_12
X_1665_ _0672_ mem\[8\]\[11\] _0707_ _0721_ VDD VSS gf180mcu_fd_sc_mcu9t5v0__and3_2
X_1666_ _0599_ _0722_ VDD VSS gf180mcu_fd_sc_mcu9t5v0__buf_8
X_1667_ _0635_ _0723_ VDD VSS gf180mcu_fd_sc_mcu9t5v0__buf_8
X_1668_ _0722_ mem\[1\]\[11\] _0723_ _0724_ VDD VSS gf180mcu_fd_sc_mcu9t5v0__and3_2
X_1669_ _0721_ _0724_ _0725_ VDD VSS gf180mcu_fd_sc_mcu9t5v0__nor2_2
X_1670_ _0633_ _0644_ _0726_ VDD VSS gf180mcu_fd_sc_mcu9t5v0__and2_4
X_1671_ mem\[14\]\[11\] _0648_ _0726_ _0727_ VDD VSS gf180mcu_fd_sc_mcu9t5v0__and3_2
X_1672_ mem\[11\]\[11\] mem\[15\]\[11\] _0709_ _0728_ VDD
+ VSS gf180mcu_fd_sc_mcu9t5v0__mux2_2
X_1673_ _0679_ _0681_ _0728_ _0729_ VDD VSS gf180mcu_fd_sc_mcu9t5v0__and3_2
X_1674_ _1506_ _0730_ VDD VSS gf180mcu_fd_sc_mcu9t5v0__clkbuf_8
X_1675_ _0730_ _0731_ VDD VSS gf180mcu_fd_sc_mcu9t5v0__clkbuf_8
X_1676_ mem\[9\]\[11\] mem\[13\]\[11\] _0709_ _0732_ VDD VSS
+ gf180mcu_fd_sc_mcu9t5v0__mux2_2
X_1677_ _0687_ _0731_ _0732_ _0733_ VDD VSS gf180mcu_fd_sc_mcu9t5v0__and3_2
X_1678_ _0677_ _0727_ _0729_ _0733_ _0734_ VDD VSS gf180mcu_fd_sc_mcu9t5v0__nor4_2
X_1679_ _0628_ _0735_ VDD VSS gf180mcu_fd_sc_mcu9t5v0__clkbuf_12
X_1680_ mem\[12\]\[11\] _0735_ _0736_ VDD VSS gf180mcu_fd_sc_mcu9t5v0__nand2_2
X_1681_ _0647_ _0737_ VDD VSS gf180mcu_fd_sc_mcu9t5v0__buf_8
X_1682_ mem\[10\]\[11\] _0737_ _0738_ VDD VSS gf180mcu_fd_sc_mcu9t5v0__nand2_2
X_1683_ _0628_ _0739_ VDD VSS gf180mcu_fd_sc_mcu9t5v0__clkbuf_8
X_1684_ mem\[4\]\[11\] _0739_ _0647_ mem\[6\]\[11\] _0740_
+ VDD VSS gf180mcu_fd_sc_mcu9t5v0__aoi22_2
X_1685_ _0659_ mem\[7\]\[11\] mem\[5\]\[11\] _0730_ _0741_
+ VDD VSS gf180mcu_fd_sc_mcu9t5v0__aoi22_2
X_1686_ _0740_ _0741_ _0742_ VDD VSS gf180mcu_fd_sc_mcu9t5v0__and2_2
X_1687_ _0663_ _0743_ VDD VSS gf180mcu_fd_sc_mcu9t5v0__buf_8
X_1688_ _0667_ mem\[3\]\[11\] mem\[2\]\[11\] _0743_ _0744_
+ VDD VSS gf180mcu_fd_sc_mcu9t5v0__aoi22_2
X_1689_ _0602_ _0745_ VDD VSS gf180mcu_fd_sc_mcu9t5v0__buf_8
X_1690_ _0637_ _0746_ VDD VSS gf180mcu_fd_sc_mcu9t5v0__buf_8
X_1691_ _0736_ _0738_ _0742_ _0744_ _0745_ _0746_ _0747_ VDD
+ VSS gf180mcu_fd_sc_mcu9t5v0__mux4_2
X_1692_ _0698_ _0725_ _0734_ _0747_ _0748_ VDD VSS gf180mcu_fd_sc_mcu9t5v0__oai211_2
X_1693_ mem\[0\]\[11\] _0720_ _0748_ _0749_ VDD VSS gf180mcu_fd_sc_mcu9t5v0__oai21_4
X_1694_ _0719_ _0622_ _0626_ _0749_ _0002_ VDD VSS gf180mcu_fd_sc_mcu9t5v0__oai22_2
X_1695_ net80 _0750_ VDD VSS gf180mcu_fd_sc_mcu9t5v0__clkinv_2
X_1696_ _0647_ _0751_ VDD VSS gf180mcu_fd_sc_mcu9t5v0__buf_8
X_1697_ mem\[10\]\[12\] _0751_ _0723_ mem\[9\]\[12\] _0752_
+ VDD VSS gf180mcu_fd_sc_mcu9t5v0__aoi22_2
X_1698_ _1508_ _0753_ VDD VSS gf180mcu_fd_sc_mcu9t5v0__buf_8
X_1699_ _0753_ _0754_ VDD VSS gf180mcu_fd_sc_mcu9t5v0__buf_8
X_1700_ _0754_ mem\[11\]\[12\] mem\[8\]\[12\] _0643_ _0755_
+ VDD VSS gf180mcu_fd_sc_mcu9t5v0__aoi22_2
X_1701_ _0752_ _0755_ _0756_ VDD VSS gf180mcu_fd_sc_mcu9t5v0__and2_2
X_1702_ _0639_ _0757_ VDD VSS gf180mcu_fd_sc_mcu9t5v0__buf_8
X_1703_ _0757_ mem\[3\]\[12\] mem\[2\]\[12\] _0700_ _0723_
+ mem\[1\]\[12\] _0758_ VDD VSS gf180mcu_fd_sc_mcu9t5v0__aoi222_2
X_1704_ _0637_ _0603_ _0759_ VDD VSS gf180mcu_fd_sc_mcu9t5v0__nand2_4
X_1705_ _0652_ _0756_ _0758_ _0759_ _0760_ VDD VSS gf180mcu_fd_sc_mcu9t5v0__oai22_2
X_1706_ _0649_ _0761_ VDD VSS gf180mcu_fd_sc_mcu9t5v0__buf_8
X_1707_ _0667_ mem\[7\]\[12\] mem\[6\]\[12\] _0699_ _0761_
+ mem\[5\]\[12\] _0762_ VDD VSS gf180mcu_fd_sc_mcu9t5v0__aoi222_2
X_1708_ _0754_ mem\[15\]\[12\] _0763_ VDD VSS gf180mcu_fd_sc_mcu9t5v0__nand2_2
X_1709_ _0633_ _0764_ VDD VSS gf180mcu_fd_sc_mcu9t5v0__buf_8
X_1710_ _0762_ _0763_ _0764_ _0765_ VDD VSS gf180mcu_fd_sc_mcu9t5v0__mux2_2
X_1711_ mem\[14\]\[12\] _0743_ _0692_ mem\[13\]\[12\] mem\[12\]\[12\]
+ _0706_ _0766_ VDD VSS gf180mcu_fd_sc_mcu9t5v0__aoi222_2
X_1712_ _0739_ _0767_ VDD VSS gf180mcu_fd_sc_mcu9t5v0__buf_8
X_1713_ mem\[4\]\[12\] _0767_ _0768_ VDD VSS gf180mcu_fd_sc_mcu9t5v0__nand2_2
X_1714_ _0766_ _0768_ _0722_ _0769_ VDD VSS gf180mcu_fd_sc_mcu9t5v0__mux2_2
X_1715_ _0765_ _0769_ _1498_ _0770_ VDD VSS gf180mcu_fd_sc_mcu9t5v0__aoi21_2
X_1716_ mem\[0\]\[12\] _0631_ _0771_ VDD VSS gf180mcu_fd_sc_mcu9t5v0__or2_2
X_1717_ _0678_ _0760_ _0770_ _0771_ _0772_ VDD VSS gf180mcu_fd_sc_mcu9t5v0__oai31_4
X_1718_ _0750_ _0622_ _0626_ _0772_ _0003_ VDD VSS gf180mcu_fd_sc_mcu9t5v0__oai22_2
X_1719_ net81 _0773_ VDD VSS gf180mcu_fd_sc_mcu9t5v0__clkinv_2
X_1720_ mem\[1\]\[13\] mem\[5\]\[13\] _0634_ _0774_ VDD VSS
+ gf180mcu_fd_sc_mcu9t5v0__mux2_2
X_1721_ _0722_ _0774_ _0775_ VDD VSS gf180mcu_fd_sc_mcu9t5v0__and2_2
X_1722_ _0764_ _0671_ mem\[9\]\[13\] _0776_ VDD VSS gf180mcu_fd_sc_mcu9t5v0__and3_2
X_1723_ _0775_ _0776_ _0693_ _0777_ VDD VSS gf180mcu_fd_sc_mcu9t5v0__oai21_2
X_1724_ mem\[12\]\[13\] _0643_ _0726_ _0778_ VDD VSS gf180mcu_fd_sc_mcu9t5v0__and3_2
X_1725_ mem\[3\]\[13\] mem\[7\]\[13\] _0644_ _0779_ VDD VSS
+ gf180mcu_fd_sc_mcu9t5v0__mux2_2
X_1726_ _0722_ _0757_ _0779_ _0780_ VDD VSS gf180mcu_fd_sc_mcu9t5v0__and3_2
X_1727_ _0778_ _0780_ _0781_ VDD VSS gf180mcu_fd_sc_mcu9t5v0__nor2_2
X_1728_ mem\[4\]\[13\] _0668_ _0743_ mem\[6\]\[13\] _0782_
+ VDD VSS gf180mcu_fd_sc_mcu9t5v0__aoi22_2
X_1729_ mem\[2\]\[13\] _0737_ _0783_ VDD VSS gf180mcu_fd_sc_mcu9t5v0__nand2_2
X_1730_ _1508_ _0784_ VDD VSS gf180mcu_fd_sc_mcu9t5v0__clkbuf_12
X_1731_ _1504_ _0785_ VDD VSS gf180mcu_fd_sc_mcu9t5v0__buf_8
X_1732_ _0784_ mem\[15\]\[13\] mem\[14\]\[13\] _0785_ _0635_
+ mem\[13\]\[13\] _0786_ VDD VSS gf180mcu_fd_sc_mcu9t5v0__aoi222_2
X_1733_ _0784_ mem\[11\]\[13\] mem\[8\]\[13\] _0642_ _0785_
+ mem\[10\]\[13\] _0787_ VDD VSS gf180mcu_fd_sc_mcu9t5v0__aoi222_2
X_1734_ _0782_ _0783_ _0786_ _0787_ _0745_ _0672_ _0788_ VDD
+ VSS gf180mcu_fd_sc_mcu9t5v0__mux4_2
X_1735_ _0715_ _0777_ _0781_ _0788_ _0789_ VDD VSS gf180mcu_fd_sc_mcu9t5v0__nand4_4
X_1736_ mem\[0\]\[13\] _0720_ _0789_ _0790_ VDD VSS gf180mcu_fd_sc_mcu9t5v0__oai21_4
X_1737_ _0773_ _0622_ _0626_ _0790_ _0004_ VDD VSS gf180mcu_fd_sc_mcu9t5v0__oai22_2
X_1738_ net82 _0791_ VDD VSS gf180mcu_fd_sc_mcu9t5v0__clkinv_2
X_1739_ mem\[14\]\[14\] _0647_ _0792_ VDD VSS gf180mcu_fd_sc_mcu9t5v0__and2_2
X_1740_ mem\[4\]\[14\] _0739_ _0793_ VDD VSS gf180mcu_fd_sc_mcu9t5v0__and2_2
X_1741_ mem\[8\]\[14\] _0739_ _0794_ VDD VSS gf180mcu_fd_sc_mcu9t5v0__and2_2
X_1742_ mem\[2\]\[14\] _0647_ _0795_ VDD VSS gf180mcu_fd_sc_mcu9t5v0__and2_2
X_1743_ _0792_ _0793_ _0794_ _0795_ _0637_ _0671_ _0796_ VDD
+ VSS gf180mcu_fd_sc_mcu9t5v0__mux4_2
X_1744_ mem\[6\]\[14\] _0647_ _0797_ VDD VSS gf180mcu_fd_sc_mcu9t5v0__and2_2
X_1745_ mem\[1\]\[14\] _0730_ _0798_ VDD VSS gf180mcu_fd_sc_mcu9t5v0__and2_2
X_1746_ mem\[12\]\[14\] _0739_ _0799_ VDD VSS gf180mcu_fd_sc_mcu9t5v0__and2_2
X_1747_ mem\[9\]\[14\] _0730_ _0800_ VDD VSS gf180mcu_fd_sc_mcu9t5v0__and2_2
X_1748_ _0797_ _0798_ _0799_ _0800_ _0603_ _0679_ _0801_ VDD
+ VSS gf180mcu_fd_sc_mcu9t5v0__mux4_2
X_1749_ mem\[3\]\[14\] mem\[7\]\[14\] _0601_ _0802_ VDD VSS
+ gf180mcu_fd_sc_mcu9t5v0__mux2_2
X_1750_ _0637_ _0753_ _0802_ _0803_ VDD VSS gf180mcu_fd_sc_mcu9t5v0__and3_2
X_1751_ mem\[5\]\[14\] mem\[13\]\[14\] rd_ptr\[3\] _0804_
+ VDD VSS gf180mcu_fd_sc_mcu9t5v0__mux2_2
X_1752_ _0644_ _0730_ _0804_ _0805_ VDD VSS gf180mcu_fd_sc_mcu9t5v0__and3_2
X_1753_ _0627_ _0602_ mem\[10\]\[14\] _0663_ _0806_ VDD VSS
+ gf180mcu_fd_sc_mcu9t5v0__and4_2
X_1754_ mem\[11\]\[14\] mem\[15\]\[14\] _0601_ _0807_ VDD
+ VSS gf180mcu_fd_sc_mcu9t5v0__mux2_2
X_1755_ _0633_ _0659_ _0807_ _0808_ VDD VSS gf180mcu_fd_sc_mcu9t5v0__and3_2
X_1756_ _0803_ _0805_ _0806_ _0808_ _0809_ VDD VSS gf180mcu_fd_sc_mcu9t5v0__or4_2
X_1757_ _0678_ _0796_ _0801_ _0809_ _0810_ VDD VSS gf180mcu_fd_sc_mcu9t5v0__or4_2
X_1758_ mem\[0\]\[14\] _0720_ _0810_ _0811_ VDD VSS gf180mcu_fd_sc_mcu9t5v0__oai21_4
X_1759_ _0791_ _0622_ _0626_ _0811_ _0005_ VDD VSS gf180mcu_fd_sc_mcu9t5v0__oai22_2
X_1760_ _0639_ mem\[15\]\[15\] mem\[13\]\[15\] _0684_ _0812_
+ VDD VSS gf180mcu_fd_sc_mcu9t5v0__aoi22_2
X_1761_ mem\[12\]\[15\] _0706_ _0785_ mem\[14\]\[15\] _0813_
+ VDD VSS gf180mcu_fd_sc_mcu9t5v0__aoi22_2
X_1762_ _0812_ _0813_ _0814_ VDD VSS gf180mcu_fd_sc_mcu9t5v0__and2_2
X_1763_ _0784_ mem\[11\]\[15\] mem\[10\]\[15\] _0785_ _0815_
+ VDD VSS gf180mcu_fd_sc_mcu9t5v0__aoi22_2
X_1764_ mem\[8\]\[15\] _0706_ _0684_ mem\[9\]\[15\] _0816_
+ VDD VSS gf180mcu_fd_sc_mcu9t5v0__aoi22_2
X_1765_ _0815_ _0816_ _0817_ VDD VSS gf180mcu_fd_sc_mcu9t5v0__and2_2
X_1766_ _0639_ mem\[7\]\[15\] mem\[5\]\[15\] _0684_ _0818_
+ VDD VSS gf180mcu_fd_sc_mcu9t5v0__aoi22_2
X_1767_ mem\[4\]\[15\] _0706_ _0785_ mem\[6\]\[15\] _0819_
+ VDD VSS gf180mcu_fd_sc_mcu9t5v0__aoi22_2
X_1768_ _0818_ _0819_ _0820_ VDD VSS gf180mcu_fd_sc_mcu9t5v0__and2_2
X_1769_ _0753_ _0821_ VDD VSS gf180mcu_fd_sc_mcu9t5v0__buf_8
X_1770_ _0821_ mem\[3\]\[15\] mem\[2\]\[15\] _0664_ _0665_
+ mem\[1\]\[15\] _0822_ VDD VSS gf180mcu_fd_sc_mcu9t5v0__aoi222_2
X_1771_ _0638_ _0823_ VDD VSS gf180mcu_fd_sc_mcu9t5v0__buf_8
X_1772_ _0814_ _0817_ _0820_ _0822_ _0823_ _0746_ _0824_ VDD
+ VSS gf180mcu_fd_sc_mcu9t5v0__mux4_4
X_1773_ _0715_ _0824_ _0825_ VDD VSS gf180mcu_fd_sc_mcu9t5v0__and2_2
X_1774_ mem\[0\]\[15\] _0715_ _0826_ VDD VSS gf180mcu_fd_sc_mcu9t5v0__nor2_2
X_1775_ net83 _0827_ VDD VSS gf180mcu_fd_sc_mcu9t5v0__clkinv_2
X_1776_ _0676_ _0825_ _0826_ _0717_ _0827_ _0006_ VDD VSS
+ gf180mcu_fd_sc_mcu9t5v0__oai32_2
X_1777_ net84 _0828_ VDD VSS gf180mcu_fd_sc_mcu9t5v0__clkinv_2
X_1778_ _0681_ _0829_ VDD VSS gf180mcu_fd_sc_mcu9t5v0__buf_8
X_1779_ _0829_ mem\[11\]\[16\] mem\[9\]\[16\] _0693_ _0830_
+ VDD VSS gf180mcu_fd_sc_mcu9t5v0__aoi22_2
X_1780_ mem\[10\]\[16\] _0700_ _0652_ _0831_ VDD VSS gf180mcu_fd_sc_mcu9t5v0__aoi21_2
X_1781_ _0757_ mem\[15\]\[16\] mem\[14\]\[16\] _0700_ _0832_
+ VDD VSS gf180mcu_fd_sc_mcu9t5v0__aoi22_2
X_1782_ _0633_ _0694_ _0833_ VDD VSS gf180mcu_fd_sc_mcu9t5v0__nand2_4
X_1783_ mem\[13\]\[16\] _0693_ _0833_ _0834_ VDD VSS gf180mcu_fd_sc_mcu9t5v0__aoi21_2
X_1784_ _0784_ mem\[3\]\[16\] mem\[1\]\[16\] _0684_ _0835_
+ VDD VSS gf180mcu_fd_sc_mcu9t5v0__aoi22_2
X_1785_ mem\[4\]\[16\] _0706_ _0683_ mem\[6\]\[16\] _0836_
+ VDD VSS gf180mcu_fd_sc_mcu9t5v0__aoi22_2
X_1786_ _0835_ _0836_ _0710_ _0837_ VDD VSS gf180mcu_fd_sc_mcu9t5v0__mux2_2
X_1787_ _0830_ _0831_ _0832_ _0834_ _0837_ _1495_ _0838_ VDD
+ VSS gf180mcu_fd_sc_mcu9t5v0__aoi222_4
X_1788_ _0627_ _0644_ _0839_ VDD VSS gf180mcu_fd_sc_mcu9t5v0__nor2_4
X_1789_ mem\[2\]\[16\] _0751_ _0839_ _0840_ VDD VSS gf180mcu_fd_sc_mcu9t5v0__and3_2
X_1790_ mem\[8\]\[16\] mem\[12\]\[16\] _0709_ _0841_ VDD VSS
+ gf180mcu_fd_sc_mcu9t5v0__mux2_2
X_1791_ _0679_ _0767_ _0841_ _0842_ VDD VSS gf180mcu_fd_sc_mcu9t5v0__and3_2
X_1792_ _0667_ mem\[7\]\[16\] mem\[5\]\[16\] _0661_ _0843_
+ VDD VSS gf180mcu_fd_sc_mcu9t5v0__aoi22_2
X_1793_ _0672_ _0823_ _0843_ _0844_ VDD VSS gf180mcu_fd_sc_mcu9t5v0__nor3_2
X_1794_ _0677_ _0840_ _0842_ _0844_ _0845_ VDD VSS gf180mcu_fd_sc_mcu9t5v0__or4_2
X_1795_ mem\[0\]\[16\] _0720_ _0838_ _0845_ _0846_ VDD VSS
+ gf180mcu_fd_sc_mcu9t5v0__oai22_4
X_1796_ _0828_ _0622_ _0626_ _0846_ _0007_ VDD VSS gf180mcu_fd_sc_mcu9t5v0__oai22_2
X_1797_ mem\[8\]\[17\] _0707_ _0700_ mem\[10\]\[17\] _0847_
+ VDD VSS gf180mcu_fd_sc_mcu9t5v0__aoi22_2
X_1798_ mem\[4\]\[17\] _0735_ _0664_ mem\[6\]\[17\] _0848_
+ VDD VSS gf180mcu_fd_sc_mcu9t5v0__aoi22_2
X_1799_ mem\[14\]\[17\] _0648_ _0849_ VDD VSS gf180mcu_fd_sc_mcu9t5v0__nand2_2
X_1800_ _0848_ _0849_ _0764_ _0850_ VDD VSS gf180mcu_fd_sc_mcu9t5v0__mux2_2
X_1801_ _0652_ _0847_ _0850_ _1498_ _0851_ VDD VSS gf180mcu_fd_sc_mcu9t5v0__oai22_2
X_1802_ _0693_ _0852_ VDD VSS gf180mcu_fd_sc_mcu9t5v0__inv_4
X_1803_ mem\[9\]\[17\] mem\[13\]\[17\] _0694_ _0853_ VDD VSS
+ gf180mcu_fd_sc_mcu9t5v0__mux2_2
X_1804_ mem\[1\]\[17\] _0839_ _0853_ _0680_ _0854_ VDD VSS
+ gf180mcu_fd_sc_mcu9t5v0__aoi22_2
X_1805_ _0703_ mem\[7\]\[17\] mem\[5\]\[17\] _0761_ _0855_
+ VDD VSS gf180mcu_fd_sc_mcu9t5v0__aoi22_2
X_1806_ _0703_ mem\[3\]\[17\] mem\[2\]\[17\] _0699_ _0856_
+ VDD VSS gf180mcu_fd_sc_mcu9t5v0__aoi22_2
X_1807_ _0628_ _0857_ VDD VSS gf180mcu_fd_sc_mcu9t5v0__buf_8
X_1808_ _0784_ mem\[15\]\[17\] mem\[12\]\[17\] _0857_ _0858_
+ VDD VSS gf180mcu_fd_sc_mcu9t5v0__aoi22_2
X_1809_ _0660_ mem\[11\]\[17\] _0859_ VDD VSS gf180mcu_fd_sc_mcu9t5v0__nand2_2
X_1810_ _0855_ _0856_ _0858_ _0859_ _0745_ _0672_ _0860_ VDD
+ VSS gf180mcu_fd_sc_mcu9t5v0__mux4_2
X_1811_ _0852_ _0854_ _0860_ _0658_ _0861_ VDD VSS gf180mcu_fd_sc_mcu9t5v0__oai211_2
X_1812_ _0851_ _0861_ _0862_ VDD VSS gf180mcu_fd_sc_mcu9t5v0__nor2_4
X_1813_ mem\[0\]\[17\] _0715_ _0863_ VDD VSS gf180mcu_fd_sc_mcu9t5v0__nor2_2
X_1814_ net85 _0864_ VDD VSS gf180mcu_fd_sc_mcu9t5v0__clkinv_2
X_1815_ _0676_ _0862_ _0863_ _0717_ _0864_ _0008_ VDD VSS
+ gf180mcu_fd_sc_mcu9t5v0__oai32_2
X_1816_ net86 _0865_ VDD VSS gf180mcu_fd_sc_mcu9t5v0__clkinv_2
X_1817_ _0683_ _0866_ VDD VSS gf180mcu_fd_sc_mcu9t5v0__inv_8
X_1818_ _0687_ _0603_ _0867_ VDD VSS gf180mcu_fd_sc_mcu9t5v0__and2_4
X_1819_ mem\[2\]\[18\] mem\[6\]\[18\] _0694_ _0868_ VDD VSS
+ gf180mcu_fd_sc_mcu9t5v0__mux2_2
X_1820_ mem\[10\]\[18\] _0867_ _0868_ _0746_ _0869_ VDD VSS
+ gf180mcu_fd_sc_mcu9t5v0__aoi22_2
X_1821_ mem\[8\]\[18\] _0735_ _0665_ mem\[9\]\[18\] _0870_
+ VDD VSS gf180mcu_fd_sc_mcu9t5v0__aoi22_2
X_1822_ _0821_ mem\[15\]\[18\] _0871_ VDD VSS gf180mcu_fd_sc_mcu9t5v0__nand2_2
X_1823_ _0870_ _0871_ _0654_ _0872_ VDD VSS gf180mcu_fd_sc_mcu9t5v0__mux2_2
X_1824_ _0703_ mem\[3\]\[18\] mem\[1\]\[18\] _0761_ _0873_
+ VDD VSS gf180mcu_fd_sc_mcu9t5v0__aoi22_2
X_1825_ _0660_ mem\[11\]\[18\] _0874_ VDD VSS gf180mcu_fd_sc_mcu9t5v0__nand2_2
X_1826_ _0639_ mem\[7\]\[18\] mem\[4\]\[18\] _0642_ _0635_
+ mem\[5\]\[18\] _0875_ VDD VSS gf180mcu_fd_sc_mcu9t5v0__aoi222_2
X_1827_ mem\[14\]\[18\] _0683_ _0635_ mem\[13\]\[18\] mem\[12\]\[18\]
+ _0642_ _0876_ VDD VSS gf180mcu_fd_sc_mcu9t5v0__aoi222_2
X_1828_ _0634_ _0877_ VDD VSS gf180mcu_fd_sc_mcu9t5v0__buf_8
X_1829_ _0873_ _0874_ _0875_ _0876_ _0679_ _0877_ _0878_ VDD
+ VSS gf180mcu_fd_sc_mcu9t5v0__mux4_2
X_1830_ _0866_ _0869_ _0872_ _1495_ _0878_ _0879_ VDD VSS
+ gf180mcu_fd_sc_mcu9t5v0__oai221_4
X_1831_ mem\[0\]\[18\] _0658_ _0880_ VDD VSS gf180mcu_fd_sc_mcu9t5v0__or2_2
X_1832_ _0678_ _0879_ _0880_ _0881_ VDD VSS gf180mcu_fd_sc_mcu9t5v0__oai21_4
X_1833_ _0865_ _0622_ _0626_ _0881_ _0009_ VDD VSS gf180mcu_fd_sc_mcu9t5v0__oai22_2
X_1834_ net87 _0882_ VDD VSS gf180mcu_fd_sc_mcu9t5v0__clkinv_2
X_1835_ _0821_ mem\[3\]\[19\] mem\[2\]\[19\] _0664_ _0665_
+ mem\[1\]\[19\] _0883_ VDD VSS gf180mcu_fd_sc_mcu9t5v0__aoi222_2
X_1836_ mem\[10\]\[19\] _0751_ _0723_ mem\[9\]\[19\] _0884_
+ VDD VSS gf180mcu_fd_sc_mcu9t5v0__aoi22_2
X_1837_ mem\[6\]\[19\] _0683_ _0684_ mem\[5\]\[19\] _0885_
+ VDD VSS gf180mcu_fd_sc_mcu9t5v0__aoi22_2
X_1838_ _0784_ mem\[7\]\[19\] mem\[4\]\[19\] _0642_ _0886_
+ VDD VSS gf180mcu_fd_sc_mcu9t5v0__aoi22_2
X_1839_ _0885_ _0886_ _0887_ VDD VSS gf180mcu_fd_sc_mcu9t5v0__and2_2
X_1840_ _0757_ mem\[15\]\[19\] _0888_ VDD VSS gf180mcu_fd_sc_mcu9t5v0__nand2_2
X_1841_ _0883_ _0884_ _0887_ _0888_ _0672_ _0877_ _0889_ VDD
+ VSS gf180mcu_fd_sc_mcu9t5v0__mux4_2
X_1842_ _0757_ mem\[11\]\[19\] mem\[8\]\[19\] _0643_ _0654_
+ _0890_ VDD VSS gf180mcu_fd_sc_mcu9t5v0__aoi221_2
X_1843_ mem\[12\]\[19\] _0668_ _0692_ mem\[13\]\[19\] _0891_
+ VDD VSS gf180mcu_fd_sc_mcu9t5v0__aoi22_2
X_1844_ mem\[14\]\[19\] _0664_ _0892_ VDD VSS gf180mcu_fd_sc_mcu9t5v0__nand2_2
X_1845_ _0654_ _0891_ _0892_ _0893_ VDD VSS gf180mcu_fd_sc_mcu9t5v0__and3_2
X_1846_ _1495_ _0890_ _0893_ _0894_ VDD VSS gf180mcu_fd_sc_mcu9t5v0__or3_2
X_1847_ mem\[0\]\[19\] _0678_ _0895_ VDD VSS gf180mcu_fd_sc_mcu9t5v0__nand2_2
X_1848_ _0889_ _0894_ _0895_ _0896_ VDD VSS gf180mcu_fd_sc_mcu9t5v0__and3_2
X_1849_ _0882_ _0622_ _0626_ _0896_ _0010_ VDD VSS gf180mcu_fd_sc_mcu9t5v0__oai22_2
X_1850_ net88 _0897_ VDD VSS gf180mcu_fd_sc_mcu9t5v0__clkinv_2
X_1851_ _0659_ mem\[15\]\[1\] mem\[14\]\[1\] _0663_ _0649_
+ mem\[13\]\[1\] _0898_ VDD VSS gf180mcu_fd_sc_mcu9t5v0__aoi222_2
X_1852_ _0639_ mem\[7\]\[1\] mem\[4\]\[1\] _0739_ _0899_ VDD
+ VSS gf180mcu_fd_sc_mcu9t5v0__aoi22_2
X_1853_ mem\[8\]\[1\] _0739_ _0647_ mem\[10\]\[1\] _0900_
+ VDD VSS gf180mcu_fd_sc_mcu9t5v0__aoi22_2
X_1854_ _0753_ mem\[3\]\[1\] mem\[1\]\[1\] _0730_ _0901_ VDD
+ VSS gf180mcu_fd_sc_mcu9t5v0__aoi22_2
X_1855_ _0898_ _0899_ _0900_ _0901_ _0637_ _0745_ _0902_ VDD
+ VSS gf180mcu_fd_sc_mcu9t5v0__mux4_2
X_1856_ _0902_ _0903_ VDD VSS gf180mcu_fd_sc_mcu9t5v0__clkinv_2
X_1857_ _0639_ mem\[11\]\[1\] mem\[9\]\[1\] _0635_ _0904_
+ VDD VSS gf180mcu_fd_sc_mcu9t5v0__aoi22_2
X_1858_ _0634_ mem\[12\]\[1\] _0642_ _0905_ VDD VSS gf180mcu_fd_sc_mcu9t5v0__nand3_2
X_1859_ _0710_ _0904_ _0905_ _0906_ VDD VSS gf180mcu_fd_sc_mcu9t5v0__oai21_2
X_1860_ mem\[6\]\[1\] _0785_ _0635_ mem\[5\]\[1\] _0907_ VDD
+ VSS gf180mcu_fd_sc_mcu9t5v0__aoi22_2
X_1861_ mem\[2\]\[1\] _0785_ _0644_ _0908_ VDD VSS gf180mcu_fd_sc_mcu9t5v0__aoi21_2
X_1862_ _0710_ _0907_ _0908_ _0909_ VDD VSS gf180mcu_fd_sc_mcu9t5v0__aoi21_2
X_1863_ _0906_ _0909_ _0600_ _0910_ VDD VSS gf180mcu_fd_sc_mcu9t5v0__mux2_2
X_1864_ mem\[0\]\[1\] _0631_ _0911_ VDD VSS gf180mcu_fd_sc_mcu9t5v0__or2_2
X_1865_ _0678_ _0903_ _0910_ _0911_ _0912_ VDD VSS gf180mcu_fd_sc_mcu9t5v0__oai31_4
X_1866_ _0897_ _0622_ _0626_ _0912_ _0011_ VDD VSS gf180mcu_fd_sc_mcu9t5v0__oai22_2
X_1867_ _0638_ _0639_ _0913_ VDD VSS gf180mcu_fd_sc_mcu9t5v0__and2_2
X_1868_ mem\[4\]\[20\] _0857_ _0699_ mem\[6\]\[20\] _0914_
+ VDD VSS gf180mcu_fd_sc_mcu9t5v0__aoi22_2
X_1869_ _0671_ _0914_ _0915_ VDD VSS gf180mcu_fd_sc_mcu9t5v0__nor2_2