* CDL Netlist generated by OpenROAD

*.BUSDELIMITER [

.SUBCKT memory_mapped_fifo clk ext_empty ext_full ext_rd_data[0]
+ ext_rd_data[10] ext_rd_data[11] ext_rd_data[12] ext_rd_data[13]
+ ext_rd_data[14] ext_rd_data[15] ext_rd_data[16] ext_rd_data[17]
+ ext_rd_data[18] ext_rd_data[19] ext_rd_data[1] ext_rd_data[20]
+ ext_rd_data[21] ext_rd_data[22] ext_rd_data[23] ext_rd_data[24]
+ ext_rd_data[25] ext_rd_data[26] ext_rd_data[27] ext_rd_data[28]
+ ext_rd_data[29] ext_rd_data[2] ext_rd_data[30] ext_rd_data[31]
+ ext_rd_data[3] ext_rd_data[4] ext_rd_data[5] ext_rd_data[6]
+ ext_rd_data[7] ext_rd_data[8] ext_rd_data[9] ext_rd_en ext_wr_data[0]
+ ext_wr_data[10] ext_wr_data[11] ext_wr_data[12] ext_wr_data[13]
+ ext_wr_data[14] ext_wr_data[15] ext_wr_data[16] ext_wr_data[17]
+ ext_wr_data[18] ext_wr_data[19] ext_wr_data[1] ext_wr_data[20]
+ ext_wr_data[21] ext_wr_data[22] ext_wr_data[23] ext_wr_data[24]
+ ext_wr_data[25] ext_wr_data[26] ext_wr_data[27] ext_wr_data[28]
+ ext_wr_data[29] ext_wr_data[2] ext_wr_data[30] ext_wr_data[31]
+ ext_wr_data[3] ext_wr_data[4] ext_wr_data[5] ext_wr_data[6]
+ ext_wr_data[7] ext_wr_data[8] ext_wr_data[9] ext_wr_en mem_addr[0]
+ mem_addr[1] mem_addr[2] mem_addr[3] mem_rdata[0] mem_rdata[10]
+ mem_rdata[11] mem_rdata[12] mem_rdata[13] mem_rdata[14] mem_rdata[15]
+ mem_rdata[16] mem_rdata[17] mem_rdata[18] mem_rdata[19] mem_rdata[1]
+ mem_rdata[20] mem_rdata[21] mem_rdata[22] mem_rdata[23] mem_rdata[24]
+ mem_rdata[25] mem_rdata[26] mem_rdata[27] mem_rdata[28] mem_rdata[29]
+ mem_rdata[2] mem_rdata[30] mem_rdata[31] mem_rdata[3] mem_rdata[4]
+ mem_rdata[5] mem_rdata[6] mem_rdata[7] mem_rdata[8] mem_rdata[9]
+ mem_ready mem_valid mem_wdata[0] mem_wdata[10] mem_wdata[11]
+ mem_wdata[12] mem_wdata[13] mem_wdata[14] mem_wdata[15] mem_wdata[16]
+ mem_wdata[17] mem_wdata[18] mem_wdata[19] mem_wdata[1] mem_wdata[20]
+ mem_wdata[21] mem_wdata[22] mem_wdata[23] mem_wdata[24] mem_wdata[25]
+ mem_wdata[26] mem_wdata[27] mem_wdata[28] mem_wdata[29] mem_wdata[2]
+ mem_wdata[30] mem_wdata[31] mem_wdata[3] mem_wdata[4] mem_wdata[5]
+ mem_wdata[6] mem_wdata[7] mem_wdata[8] mem_wdata[9] mem_write
+ rst_n VSS VDD
X_1571_ net178 _1331_ _1332_ _1333_ _1334_ VDD VSS gf180mcu_fd_sc_mcu9t5v0__aoi22_2
X_1572_ _0630_ _1334_ _0755_ _1335_ VDD VSS gf180mcu_fd_sc_mcu9t5v0__aoi21_2
X_1573_ net176 _1325_ _1330_ _1335_ _1336_ VDD VSS gf180mcu_fd_sc_mcu9t5v0__oai211_2
X_1574_ mem\[0\]\[9\] net164 _1336_ _1337_ VDD VSS gf180mcu_fd_sc_mcu9t5v0__oai21_2
X_1575_ _1322_ _0647_ _0650_ _1337_ _0058_ VDD VSS gf180mcu_fd_sc_mcu9t5v0__oai22_2
Xclkbuf_leaf_20_clk clknet_1_0__leaf_clk clknet_leaf_20_clk
+ VDD VSS gf180mcu_fd_sc_mcu9t5v0__clkbuf_20
X_1577_ net2 net40 net181 _1339_ VDD VSS gf180mcu_fd_sc_mcu9t5v0__mux2_2
Xclkbuf_leaf_19_clk clknet_1_0__leaf_clk clknet_leaf_19_clk
+ VDD VSS gf180mcu_fd_sc_mcu9t5v0__clkbuf_20
X_1579_ _0644_ _1341_ VDD VSS gf180mcu_fd_sc_mcu9t5v0__clkinv_2
X_1580_ _0639_ _1341_ net34 _1342_ VDD VSS gf180mcu_fd_sc_mcu9t5v0__aoi21_2
X_1581_ _0615_ _0626_ _1342_ _1343_ VDD VSS gf180mcu_fd_sc_mcu9t5v0__aoi21_4
Xclkbuf_leaf_18_clk clknet_1_0__leaf_clk clknet_leaf_18_clk
+ VDD VSS gf180mcu_fd_sc_mcu9t5v0__clkbuf_20
X_1583_ net73 _0022_ _1345_ VDD VSS gf180mcu_fd_sc_mcu9t5v0__and2_2
X_1584_ wr_ptr\[3\] _1346_ VDD VSS gf180mcu_fd_sc_mcu9t5v0__clkinv_2
X_1585_ wr_ptr\[2\] _1347_ VDD VSS gf180mcu_fd_sc_mcu9t5v0__clkinv_2
X_1586_ _1346_ _1347_ _1348_ VDD VSS gf180mcu_fd_sc_mcu9t5v0__and2_2
X_1587_ net175 _1343_ _1345_ _1348_ _1349_ VDD VSS gf180mcu_fd_sc_mcu9t5v0__and4_4
Xclkbuf_leaf_17_clk clknet_1_0__leaf_clk clknet_leaf_17_clk
+ VDD VSS gf180mcu_fd_sc_mcu9t5v0__clkbuf_20
X_1589_ mem\[0\]\[0\] _1339_ _1349_ _0059_ VDD VSS gf180mcu_fd_sc_mcu9t5v0__mux2_2
X_1590_ net3 net41 net181 _1351_ VDD VSS gf180mcu_fd_sc_mcu9t5v0__mux2_2
Xclkbuf_leaf_16_clk clknet_1_0__leaf_clk clknet_leaf_16_clk
+ VDD VSS gf180mcu_fd_sc_mcu9t5v0__clkbuf_20
X_1592_ mem\[0\]\[10\] _1351_ _1349_ _0060_ VDD VSS gf180mcu_fd_sc_mcu9t5v0__mux2_2
X_1593_ net4 net42 net181 _1353_ VDD VSS gf180mcu_fd_sc_mcu9t5v0__mux2_2
Xclkbuf_leaf_15_clk clknet_1_0__leaf_clk clknet_leaf_15_clk
+ VDD VSS gf180mcu_fd_sc_mcu9t5v0__clkbuf_20
X_1595_ mem\[0\]\[11\] _1353_ _1349_ _0061_ VDD VSS gf180mcu_fd_sc_mcu9t5v0__mux2_2
X_1596_ net5 net43 net181 _1355_ VDD VSS gf180mcu_fd_sc_mcu9t5v0__mux2_2
Xclkbuf_leaf_14_clk clknet_1_0__leaf_clk clknet_leaf_14_clk
+ VDD VSS gf180mcu_fd_sc_mcu9t5v0__clkbuf_20
X_1598_ mem\[0\]\[12\] _1355_ _1349_ _0062_ VDD VSS gf180mcu_fd_sc_mcu9t5v0__mux2_2
X_1599_ net6 net44 net181 _1357_ VDD VSS gf180mcu_fd_sc_mcu9t5v0__mux2_2
Xclkbuf_leaf_13_clk clknet_1_0__leaf_clk clknet_leaf_13_clk
+ VDD VSS gf180mcu_fd_sc_mcu9t5v0__clkbuf_20
X_1601_ mem\[0\]\[13\] _1357_ _1349_ _0063_ VDD VSS gf180mcu_fd_sc_mcu9t5v0__mux2_2
X_1602_ net7 net45 net181 _1359_ VDD VSS gf180mcu_fd_sc_mcu9t5v0__mux2_2
Xclkbuf_leaf_12_clk clknet_1_1__leaf_clk clknet_leaf_12_clk
+ VDD VSS gf180mcu_fd_sc_mcu9t5v0__clkbuf_20
X_1604_ mem\[0\]\[14\] _1359_ _1349_ _0064_ VDD VSS gf180mcu_fd_sc_mcu9t5v0__mux2_2
X_1605_ net8 net46 net181 _1361_ VDD VSS gf180mcu_fd_sc_mcu9t5v0__mux2_2
Xclkbuf_leaf_11_clk clknet_1_1__leaf_clk clknet_leaf_11_clk
+ VDD VSS gf180mcu_fd_sc_mcu9t5v0__clkbuf_20
X_1607_ mem\[0\]\[15\] _1361_ _1349_ _0065_ VDD VSS gf180mcu_fd_sc_mcu9t5v0__mux2_2
X_1608_ net9 net47 net181 _1363_ VDD VSS gf180mcu_fd_sc_mcu9t5v0__mux2_2
Xclkbuf_leaf_10_clk clknet_1_1__leaf_clk clknet_leaf_10_clk
+ VDD VSS gf180mcu_fd_sc_mcu9t5v0__clkbuf_20
X_1610_ mem\[0\]\[16\] _1363_ _1349_ _0066_ VDD VSS gf180mcu_fd_sc_mcu9t5v0__mux2_2
X_1611_ net10 net48 net181 _1365_ VDD VSS gf180mcu_fd_sc_mcu9t5v0__mux2_2
Xclkbuf_leaf_9_clk clknet_1_1__leaf_clk clknet_leaf_9_clk
+ VDD VSS gf180mcu_fd_sc_mcu9t5v0__clkbuf_20
X_1613_ mem\[0\]\[17\] _1365_ _1349_ _0067_ VDD VSS gf180mcu_fd_sc_mcu9t5v0__mux2_2
X_1614_ net11 net49 net181 _1367_ VDD VSS gf180mcu_fd_sc_mcu9t5v0__mux2_2
Xclkbuf_leaf_8_clk clknet_1_1__leaf_clk clknet_leaf_8_clk
+ VDD VSS gf180mcu_fd_sc_mcu9t5v0__clkbuf_20
X_1616_ mem\[0\]\[18\] _1367_ _1349_ _0068_ VDD VSS gf180mcu_fd_sc_mcu9t5v0__mux2_2
Xclkbuf_leaf_7_clk clknet_1_1__leaf_clk clknet_leaf_7_clk
+ VDD VSS gf180mcu_fd_sc_mcu9t5v0__clkbuf_20
X_1618_ net12 net50 net181 _1370_ VDD VSS gf180mcu_fd_sc_mcu9t5v0__mux2_2
Xclkbuf_leaf_6_clk clknet_1_1__leaf_clk clknet_leaf_6_clk
+ VDD VSS gf180mcu_fd_sc_mcu9t5v0__clkbuf_20
Xclkbuf_leaf_5_clk clknet_1_1__leaf_clk clknet_leaf_5_clk
+ VDD VSS gf180mcu_fd_sc_mcu9t5v0__clkbuf_20
X_1621_ mem\[0\]\[19\] _1370_ _1349_ _0069_ VDD VSS gf180mcu_fd_sc_mcu9t5v0__mux2_2
X_1622_ net13 net51 net181 _1373_ VDD VSS gf180mcu_fd_sc_mcu9t5v0__mux2_2
Xclkbuf_leaf_4_clk clknet_1_1__leaf_clk clknet_leaf_4_clk
+ VDD VSS gf180mcu_fd_sc_mcu9t5v0__clkbuf_20
X_1624_ mem\[0\]\[1\] _1373_ _1349_ _0070_ VDD VSS gf180mcu_fd_sc_mcu9t5v0__mux2_2
X_1625_ net14 net52 net181 _1375_ VDD VSS gf180mcu_fd_sc_mcu9t5v0__mux2_2
Xclkbuf_leaf_3_clk clknet_1_1__leaf_clk clknet_leaf_3_clk
+ VDD VSS gf180mcu_fd_sc_mcu9t5v0__clkbuf_20
X_1627_ mem\[0\]\[20\] _1375_ _1349_ _0071_ VDD VSS gf180mcu_fd_sc_mcu9t5v0__mux2_2
X_1628_ net15 net53 net181 _1377_ VDD VSS gf180mcu_fd_sc_mcu9t5v0__mux2_2
Xclkbuf_leaf_2_clk clknet_1_1__leaf_clk clknet_leaf_2_clk
+ VDD VSS gf180mcu_fd_sc_mcu9t5v0__clkbuf_20
X_1630_ mem\[0\]\[21\] _1377_ _1349_ _0072_ VDD VSS gf180mcu_fd_sc_mcu9t5v0__mux2_2
X_1631_ net16 net54 net181 _1379_ VDD VSS gf180mcu_fd_sc_mcu9t5v0__mux2_2
Xclkbuf_leaf_1_clk clknet_1_0__leaf_clk clknet_leaf_1_clk
+ VDD VSS gf180mcu_fd_sc_mcu9t5v0__clkbuf_20
X_1633_ mem\[0\]\[22\] _1379_ _1349_ _0073_ VDD VSS gf180mcu_fd_sc_mcu9t5v0__mux2_2
X_1634_ net17 net55 net181 _1381_ VDD VSS gf180mcu_fd_sc_mcu9t5v0__mux2_2
Xplace174 _0643_ net174 VDD VSS gf180mcu_fd_sc_mcu9t5v0__buf_4
X_1636_ mem\[0\]\[23\] _1381_ _1349_ _0074_ VDD VSS gf180mcu_fd_sc_mcu9t5v0__mux2_2
X_1637_ net18 net56 net181 _1383_ VDD VSS gf180mcu_fd_sc_mcu9t5v0__mux2_2
Xplace172 _0020_ net172 VDD VSS gf180mcu_fd_sc_mcu9t5v0__buf_4
X_1639_ mem\[0\]\[24\] _1383_ _1349_ _0075_ VDD VSS gf180mcu_fd_sc_mcu9t5v0__mux2_2
X_1640_ net19 net57 net181 _1385_ VDD VSS gf180mcu_fd_sc_mcu9t5v0__mux2_2
Xplace170 _0016_ net170 VDD VSS gf180mcu_fd_sc_mcu9t5v0__buf_4
X_1642_ mem\[0\]\[25\] _1385_ _1349_ _0076_ VDD VSS gf180mcu_fd_sc_mcu9t5v0__mux2_2
X_1643_ net20 net58 net181 _1387_ VDD VSS gf180mcu_fd_sc_mcu9t5v0__mux2_2
Xplace168 _0018_ net168 VDD VSS gf180mcu_fd_sc_mcu9t5v0__buf_4
X_1645_ mem\[0\]\[26\] _1387_ _1349_ _0077_ VDD VSS gf180mcu_fd_sc_mcu9t5v0__mux2_2
X_1646_ net21 net59 net181 _1389_ VDD VSS gf180mcu_fd_sc_mcu9t5v0__mux2_2
Xplace166 _0019_ net166 VDD VSS gf180mcu_fd_sc_mcu9t5v0__buf_4
X_1648_ mem\[0\]\[27\] _1389_ _1349_ _0078_ VDD VSS gf180mcu_fd_sc_mcu9t5v0__mux2_2
Xplace163 _1484_ net163 VDD VSS gf180mcu_fd_sc_mcu9t5v0__buf_4
X_1650_ net22 net60 net181 _1392_ VDD VSS gf180mcu_fd_sc_mcu9t5v0__mux2_2
Xplace181 net39 net181 VDD VSS gf180mcu_fd_sc_mcu9t5v0__buf_4
Xplace180 net73 net180 VDD VSS gf180mcu_fd_sc_mcu9t5v0__buf_4
X_1653_ mem\[0\]\[28\] _1392_ _1349_ _0079_ VDD VSS gf180mcu_fd_sc_mcu9t5v0__mux2_2
X_1654_ net23 net61 net181 _1395_ VDD VSS gf180mcu_fd_sc_mcu9t5v0__mux2_2
Xplace177 _0630_ net177 VDD VSS gf180mcu_fd_sc_mcu9t5v0__buf_4
X_1656_ mem\[0\]\[29\] _1395_ _1349_ _0080_ VDD VSS gf180mcu_fd_sc_mcu9t5v0__mux2_2
X_1657_ net24 net62 net181 _1397_ VDD VSS gf180mcu_fd_sc_mcu9t5v0__mux2_2
Xplace176 _0633_ net176 VDD VSS gf180mcu_fd_sc_mcu9t5v0__buf_4
X_1659_ mem\[0\]\[2\] _1397_ _1349_ _0081_ VDD VSS gf180mcu_fd_sc_mcu9t5v0__mux2_2
X_1660_ net25 net63 net181 _1399_ VDD VSS gf180mcu_fd_sc_mcu9t5v0__mux2_2
Xplace167 _0018_ net167 VDD VSS gf180mcu_fd_sc_mcu9t5v0__buf_4
X_1662_ mem\[0\]\[30\] _1399_ _1349_ _0082_ VDD VSS gf180mcu_fd_sc_mcu9t5v0__mux2_2
X_1663_ net26 net64 net181 _1401_ VDD VSS gf180mcu_fd_sc_mcu9t5v0__mux2_2
Xplace164 _0683_ net164 VDD VSS gf180mcu_fd_sc_mcu9t5v0__buf_4
X_1665_ mem\[0\]\[31\] _1401_ _1349_ _0083_ VDD VSS gf180mcu_fd_sc_mcu9t5v0__mux2_2
X_1666_ net27 net65 net181 _1403_ VDD VSS gf180mcu_fd_sc_mcu9t5v0__mux2_2
Xclkbuf_leaf_0_clk clknet_1_0__leaf_clk clknet_leaf_0_clk
+ VDD VSS gf180mcu_fd_sc_mcu9t5v0__clkbuf_20
X_1668_ mem\[0\]\[3\] _1403_ _1349_ _0084_ VDD VSS gf180mcu_fd_sc_mcu9t5v0__mux2_2
X_1669_ net28 net66 net181 _1405_ VDD VSS gf180mcu_fd_sc_mcu9t5v0__mux2_2
Xplace179 rd_ptr\[2\] net179 VDD VSS gf180mcu_fd_sc_mcu9t5v0__buf_4
X_1671_ mem\[0\]\[4\] _1405_ _1349_ _0085_ VDD VSS gf180mcu_fd_sc_mcu9t5v0__mux2_2
X_1672_ net29 net67 net181 _1407_ VDD VSS gf180mcu_fd_sc_mcu9t5v0__mux2_2
Xplace178 rd_ptr\[3\] net178 VDD VSS gf180mcu_fd_sc_mcu9t5v0__buf_4
X_1674_ mem\[0\]\[5\] _1407_ _1349_ _0086_ VDD VSS gf180mcu_fd_sc_mcu9t5v0__mux2_2
X_1675_ net30 net68 net181 _1409_ VDD VSS gf180mcu_fd_sc_mcu9t5v0__mux2_2
Xplace175 _0640_ net175 VDD VSS gf180mcu_fd_sc_mcu9t5v0__buf_4
X_1677_ mem\[0\]\[6\] _1409_ _1349_ _0087_ VDD VSS gf180mcu_fd_sc_mcu9t5v0__mux2_2
X_1678_ net31 net69 net181 _1411_ VDD VSS gf180mcu_fd_sc_mcu9t5v0__mux2_2
Xplace173 _0676_ net173 VDD VSS gf180mcu_fd_sc_mcu9t5v0__buf_4
X_1680_ mem\[0\]\[7\] _1411_ _1349_ _0088_ VDD VSS gf180mcu_fd_sc_mcu9t5v0__mux2_2
X_1681_ net32 net70 net181 _1413_ VDD VSS gf180mcu_fd_sc_mcu9t5v0__mux2_2
Xplace171 _0020_ net171 VDD VSS gf180mcu_fd_sc_mcu9t5v0__buf_4
X_1683_ mem\[0\]\[8\] _1413_ _1349_ _0089_ VDD VSS gf180mcu_fd_sc_mcu9t5v0__mux2_2
X_1684_ net33 net71 net181 _1415_ VDD VSS gf180mcu_fd_sc_mcu9t5v0__mux2_2
Xplace169 _0016_ net169 VDD VSS gf180mcu_fd_sc_mcu9t5v0__buf_4
X_1686_ mem\[0\]\[9\] _1415_ _1349_ _0090_ VDD VSS gf180mcu_fd_sc_mcu9t5v0__mux2_2
Xplace165 _0019_ net165 VDD VSS gf180mcu_fd_sc_mcu9t5v0__buf_4
X_1688_ net73 _0024_ _1418_ VDD VSS gf180mcu_fd_sc_mcu9t5v0__and2_2
X_1689_ wr_ptr\[3\] _1347_ _1419_ VDD VSS gf180mcu_fd_sc_mcu9t5v0__and2_2
X_1690_ net175 _1343_ _1418_ _1419_ _1420_ VDD VSS gf180mcu_fd_sc_mcu9t5v0__and4_4
Xoutput140 net140 mem_ready VDD VSS gf180mcu_fd_sc_mcu9t5v0__dlyb_2
X_1692_ mem\[10\]\[0\] _1339_ _1420_ _0091_ VDD VSS gf180mcu_fd_sc_mcu9t5v0__mux2_2
X_1693_ mem\[10\]\[10\] _1351_ _1420_ _0092_ VDD VSS gf180mcu_fd_sc_mcu9t5v0__mux2_2
X_1694_ mem\[10\]\[11\] _1353_ _1420_ _0093_ VDD VSS gf180mcu_fd_sc_mcu9t5v0__mux2_2
X_1695_ mem\[10\]\[12\] _1355_ _1420_ _0094_ VDD VSS gf180mcu_fd_sc_mcu9t5v0__mux2_2
X_1696_ mem\[10\]\[13\] _1357_ _1420_ _0095_ VDD VSS gf180mcu_fd_sc_mcu9t5v0__mux2_2
X_1697_ mem\[10\]\[14\] _1359_ _1420_ _0096_ VDD VSS gf180mcu_fd_sc_mcu9t5v0__mux2_2
X_1698_ mem\[10\]\[15\] _1361_ _1420_ _0097_ VDD VSS gf180mcu_fd_sc_mcu9t5v0__mux2_2
X_1699_ mem\[10\]\[16\] _1363_ _1420_ _0098_ VDD VSS gf180mcu_fd_sc_mcu9t5v0__mux2_2
X_1700_ mem\[10\]\[17\] _1365_ _1420_ _0099_ VDD VSS gf180mcu_fd_sc_mcu9t5v0__mux2_2
X_1701_ mem\[10\]\[18\] _1367_ _1420_ _0100_ VDD VSS gf180mcu_fd_sc_mcu9t5v0__mux2_2
Xoutput139 net139 mem_rdata[9] VDD VSS gf180mcu_fd_sc_mcu9t5v0__dlyb_2
X_1703_ mem\[10\]\[19\] _1370_ _1420_ _0101_ VDD VSS gf180mcu_fd_sc_mcu9t5v0__mux2_2
X_1704_ mem\[10\]\[1\] _1373_ _1420_ _0102_ VDD VSS gf180mcu_fd_sc_mcu9t5v0__mux2_2
X_1705_ mem\[10\]\[20\] _1375_ _1420_ _0103_ VDD VSS gf180mcu_fd_sc_mcu9t5v0__mux2_2
X_1706_ mem\[10\]\[21\] _1377_ _1420_ _0104_ VDD VSS gf180mcu_fd_sc_mcu9t5v0__mux2_2
X_1707_ mem\[10\]\[22\] _1379_ _1420_ _0105_ VDD VSS gf180mcu_fd_sc_mcu9t5v0__mux2_2
X_1708_ mem\[10\]\[23\] _1381_ _1420_ _0106_ VDD VSS gf180mcu_fd_sc_mcu9t5v0__mux2_2
X_1709_ mem\[10\]\[24\] _1383_ _1420_ _0107_ VDD VSS gf180mcu_fd_sc_mcu9t5v0__mux2_2
X_1710_ mem\[10\]\[25\] _1385_ _1420_ _0108_ VDD VSS gf180mcu_fd_sc_mcu9t5v0__mux2_2
X_1711_ mem\[10\]\[26\] _1387_ _1420_ _0109_ VDD VSS gf180mcu_fd_sc_mcu9t5v0__mux2_2
X_1712_ mem\[10\]\[27\] _1389_ _1420_ _0110_ VDD VSS gf180mcu_fd_sc_mcu9t5v0__mux2_2
Xoutput138 net138 mem_rdata[8] VDD VSS gf180mcu_fd_sc_mcu9t5v0__dlyb_2
X_1714_ mem\[10\]\[28\] _1392_ _1420_ _0111_ VDD VSS gf180mcu_fd_sc_mcu9t5v0__mux2_2
X_1715_ mem\[10\]\[29\] _1395_ _1420_ _0112_ VDD VSS gf180mcu_fd_sc_mcu9t5v0__mux2_2
X_1716_ mem\[10\]\[2\] _1397_ _1420_ _0113_ VDD VSS gf180mcu_fd_sc_mcu9t5v0__mux2_2
X_1717_ mem\[10\]\[30\] _1399_ _1420_ _0114_ VDD VSS gf180mcu_fd_sc_mcu9t5v0__mux2_2
X_1718_ mem\[10\]\[31\] _1401_ _1420_ _0115_ VDD VSS gf180mcu_fd_sc_mcu9t5v0__mux2_2
X_1719_ mem\[10\]\[3\] _1403_ _1420_ _0116_ VDD VSS gf180mcu_fd_sc_mcu9t5v0__mux2_2
X_1720_ mem\[10\]\[4\] _1405_ _1420_ _0117_ VDD VSS gf180mcu_fd_sc_mcu9t5v0__mux2_2
X_1721_ mem\[10\]\[5\] _1407_ _1420_ _0118_ VDD VSS gf180mcu_fd_sc_mcu9t5v0__mux2_2
X_1722_ mem\[10\]\[6\] _1409_ _1420_ _0119_ VDD VSS gf180mcu_fd_sc_mcu9t5v0__mux2_2
X_1723_ mem\[10\]\[7\] _1411_ _1420_ _0120_ VDD VSS gf180mcu_fd_sc_mcu9t5v0__mux2_2
X_1724_ mem\[10\]\[8\] _1413_ _1420_ _0121_ VDD VSS gf180mcu_fd_sc_mcu9t5v0__mux2_2
X_1725_ mem\[10\]\[9\] _1415_ _1420_ _0122_ VDD VSS gf180mcu_fd_sc_mcu9t5v0__mux2_2
X_1726_ _0026_ net73 _1424_ VDD VSS gf180mcu_fd_sc_mcu9t5v0__and2_2
X_1727_ net175 _1343_ _1419_ _1424_ _1425_ VDD VSS gf180mcu_fd_sc_mcu9t5v0__and4_4
Xoutput137 net137 mem_rdata[7] VDD VSS gf180mcu_fd_sc_mcu9t5v0__dlyb_2
X_1729_ mem\[11\]\[0\] _1339_ _1425_ _0123_ VDD VSS gf180mcu_fd_sc_mcu9t5v0__mux2_2
X_1730_ mem\[11\]\[10\] _1351_ _1425_ _0124_ VDD VSS gf180mcu_fd_sc_mcu9t5v0__mux2_2
X_1731_ mem\[11\]\[11\] _1353_ _1425_ _0125_ VDD VSS gf180mcu_fd_sc_mcu9t5v0__mux2_2
X_1732_ mem\[11\]\[12\] _1355_ _1425_ _0126_ VDD VSS gf180mcu_fd_sc_mcu9t5v0__mux2_2
X_1733_ mem\[11\]\[13\] _1357_ _1425_ _0127_ VDD VSS gf180mcu_fd_sc_mcu9t5v0__mux2_2
X_1734_ mem\[11\]\[14\] _1359_ _1425_ _0128_ VDD VSS gf180mcu_fd_sc_mcu9t5v0__mux2_2
X_1735_ mem\[11\]\[15\] _1361_ _1425_ _0129_ VDD VSS gf180mcu_fd_sc_mcu9t5v0__mux2_2
X_1736_ mem\[11\]\[16\] _1363_ _1425_ _0130_ VDD VSS gf180mcu_fd_sc_mcu9t5v0__mux2_2
X_1737_ mem\[11\]\[17\] _1365_ _1425_ _0131_ VDD VSS gf180mcu_fd_sc_mcu9t5v0__mux2_2
X_1738_ mem\[11\]\[18\] _1367_ _1425_ _0132_ VDD VSS gf180mcu_fd_sc_mcu9t5v0__mux2_2
Xoutput136 net136 mem_rdata[6] VDD VSS gf180mcu_fd_sc_mcu9t5v0__dlyb_2
X_1740_ mem\[11\]\[19\] _1370_ _1425_ _0133_ VDD VSS gf180mcu_fd_sc_mcu9t5v0__mux2_2
X_1741_ mem\[11\]\[1\] _1373_ _1425_ _0134_ VDD VSS gf180mcu_fd_sc_mcu9t5v0__mux2_2
X_1742_ mem\[11\]\[20\] _1375_ _1425_ _0135_ VDD VSS gf180mcu_fd_sc_mcu9t5v0__mux2_2
X_1743_ mem\[11\]\[21\] _1377_ _1425_ _0136_ VDD VSS gf180mcu_fd_sc_mcu9t5v0__mux2_2
X_1744_ mem\[11\]\[22\] _1379_ _1425_ _0137_ VDD VSS gf180mcu_fd_sc_mcu9t5v0__mux2_2
X_1745_ mem\[11\]\[23\] _1381_ _1425_ _0138_ VDD VSS gf180mcu_fd_sc_mcu9t5v0__mux2_2
X_1746_ mem\[11\]\[24\] _1383_ _1425_ _0139_ VDD VSS gf180mcu_fd_sc_mcu9t5v0__mux2_2
X_1747_ mem\[11\]\[25\] _1385_ _1425_ _0140_ VDD VSS gf180mcu_fd_sc_mcu9t5v0__mux2_2
X_1748_ mem\[11\]\[26\] _1387_ _1425_ _0141_ VDD VSS gf180mcu_fd_sc_mcu9t5v0__mux2_2
X_1749_ mem\[11\]\[27\] _1389_ _1425_ _0142_ VDD VSS gf180mcu_fd_sc_mcu9t5v0__mux2_2
Xoutput135 net135 mem_rdata[5] VDD VSS gf180mcu_fd_sc_mcu9t5v0__dlyb_2
X_1751_ mem\[11\]\[28\] _1392_ _1425_ _0143_ VDD VSS gf180mcu_fd_sc_mcu9t5v0__mux2_2
X_1752_ mem\[11\]\[29\] _1395_ _1425_ _0144_ VDD VSS gf180mcu_fd_sc_mcu9t5v0__mux2_2
X_1753_ mem\[11\]\[2\] _1397_ _1425_ _0145_ VDD VSS gf180mcu_fd_sc_mcu9t5v0__mux2_2
X_1754_ mem\[11\]\[30\] _1399_ _1425_ _0146_ VDD VSS gf180mcu_fd_sc_mcu9t5v0__mux2_2
X_1755_ mem\[11\]\[31\] _1401_ _1425_ _0147_ VDD VSS gf180mcu_fd_sc_mcu9t5v0__mux2_2
X_1756_ mem\[11\]\[3\] _1403_ _1425_ _0148_ VDD VSS gf180mcu_fd_sc_mcu9t5v0__mux2_2
X_1757_ mem\[11\]\[4\] _1405_ _1425_ _0149_ VDD VSS gf180mcu_fd_sc_mcu9t5v0__mux2_2
X_1758_ mem\[11\]\[5\] _1407_ _1425_ _0150_ VDD VSS gf180mcu_fd_sc_mcu9t5v0__mux2_2
X_1759_ mem\[11\]\[6\] _1409_ _1425_ _0151_ VDD VSS gf180mcu_fd_sc_mcu9t5v0__mux2_2
X_1760_ mem\[11\]\[7\] _1411_ _1425_ _0152_ VDD VSS gf180mcu_fd_sc_mcu9t5v0__mux2_2
X_1761_ mem\[11\]\[8\] _1413_ _1425_ _0153_ VDD VSS gf180mcu_fd_sc_mcu9t5v0__mux2_2
X_1762_ mem\[11\]\[9\] _1415_ _1425_ _0154_ VDD VSS gf180mcu_fd_sc_mcu9t5v0__mux2_2
X_1763_ wr_ptr\[3\] wr_ptr\[2\] _1429_ VDD VSS gf180mcu_fd_sc_mcu9t5v0__and2_4
X_1764_ net175 _1343_ _1345_ _1429_ _1430_ VDD VSS gf180mcu_fd_sc_mcu9t5v0__and4_4
Xoutput134 net134 mem_rdata[4] VDD VSS gf180mcu_fd_sc_mcu9t5v0__dlyb_2
X_1766_ mem\[12\]\[0\] _1339_ _1430_ _0155_ VDD VSS gf180mcu_fd_sc_mcu9t5v0__mux2_2
X_1767_ mem\[12\]\[10\] _1351_ _1430_ _0156_ VDD VSS gf180mcu_fd_sc_mcu9t5v0__mux2_2
X_1768_ mem\[12\]\[11\] _1353_ _1430_ _0157_ VDD VSS gf180mcu_fd_sc_mcu9t5v0__mux2_2
X_1769_ mem\[12\]\[12\] _1355_ _1430_ _0158_ VDD VSS gf180mcu_fd_sc_mcu9t5v0__mux2_2
X_1770_ mem\[12\]\[13\] _1357_ _1430_ _0159_ VDD VSS gf180mcu_fd_sc_mcu9t5v0__mux2_2
X_1771_ mem\[12\]\[14\] _1359_ _1430_ _0160_ VDD VSS gf180mcu_fd_sc_mcu9t5v0__mux2_2
X_1772_ mem\[12\]\[15\] _1361_ _1430_ _0161_ VDD VSS gf180mcu_fd_sc_mcu9t5v0__mux2_2
X_1773_ mem\[12\]\[16\] _1363_ _1430_ _0162_ VDD VSS gf180mcu_fd_sc_mcu9t5v0__mux2_2
X_1774_ mem\[12\]\[17\] _1365_ _1430_ _0163_ VDD VSS gf180mcu_fd_sc_mcu9t5v0__mux2_2
X_1775_ mem\[12\]\[18\] _1367_ _1430_ _0164_ VDD VSS gf180mcu_fd_sc_mcu9t5v0__mux2_2
Xoutput133 net133 mem_rdata[3] VDD VSS gf180mcu_fd_sc_mcu9t5v0__dlyb_2
X_1777_ mem\[12\]\[19\] _1370_ _1430_ _0165_ VDD VSS gf180mcu_fd_sc_mcu9t5v0__mux2_2
X_1778_ mem\[12\]\[1\] _1373_ _1430_ _0166_ VDD VSS gf180mcu_fd_sc_mcu9t5v0__mux2_2
X_1779_ mem\[12\]\[20\] _1375_ _1430_ _0167_ VDD VSS gf180mcu_fd_sc_mcu9t5v0__mux2_2
X_1780_ mem\[12\]\[21\] _1377_ _1430_ _0168_ VDD VSS gf180mcu_fd_sc_mcu9t5v0__mux2_2
X_1781_ mem\[12\]\[22\] _1379_ _1430_ _0169_ VDD VSS gf180mcu_fd_sc_mcu9t5v0__mux2_2
X_1782_ mem\[12\]\[23\] _1381_ _1430_ _0170_ VDD VSS gf180mcu_fd_sc_mcu9t5v0__mux2_2
X_1783_ mem\[12\]\[24\] _1383_ _1430_ _0171_ VDD VSS gf180mcu_fd_sc_mcu9t5v0__mux2_2
X_1784_ mem\[12\]\[25\] _1385_ _1430_ _0172_ VDD VSS gf180mcu_fd_sc_mcu9t5v0__mux2_2
X_1785_ mem\[12\]\[26\] _1387_ _1430_ _0173_ VDD VSS gf180mcu_fd_sc_mcu9t5v0__mux2_2
X_1786_ mem\[12\]\[27\] _1389_ _1430_ _0174_ VDD VSS gf180mcu_fd_sc_mcu9t5v0__mux2_2
Xoutput132 net132 mem_rdata[31] VDD VSS gf180mcu_fd_sc_mcu9t5v0__dlyb_2
X_1788_ mem\[12\]\[28\] _1392_ _1430_ _0175_ VDD VSS gf180mcu_fd_sc_mcu9t5v0__mux2_2
X_1789_ mem\[12\]\[29\] _1395_ _1430_ _0176_ VDD VSS gf180mcu_fd_sc_mcu9t5v0__mux2_2
X_1790_ mem\[12\]\[2\] _1397_ _1430_ _0177_ VDD VSS gf180mcu_fd_sc_mcu9t5v0__mux2_2
X_1791_ mem\[12\]\[30\] _1399_ _1430_ _0178_ VDD VSS gf180mcu_fd_sc_mcu9t5v0__mux2_2
X_1792_ mem\[12\]\[31\] _1401_ _1430_ _0179_ VDD VSS gf180mcu_fd_sc_mcu9t5v0__mux2_2
X_1793_ mem\[12\]\[3\] _1403_ _1430_ _0180_ VDD VSS gf180mcu_fd_sc_mcu9t5v0__mux2_2
X_1794_ mem\[12\]\[4\] _1405_ _1430_ _0181_ VDD VSS gf180mcu_fd_sc_mcu9t5v0__mux2_2
X_1795_ mem\[12\]\[5\] _1407_ _1430_ _0182_ VDD VSS gf180mcu_fd_sc_mcu9t5v0__mux2_2
X_1796_ mem\[12\]\[6\] _1409_ _1430_ _0183_ VDD VSS gf180mcu_fd_sc_mcu9t5v0__mux2_2
X_1797_ mem\[12\]\[7\] _1411_ _1430_ _0184_ VDD VSS gf180mcu_fd_sc_mcu9t5v0__mux2_2
X_1798_ mem\[12\]\[8\] _1413_ _1430_ _0185_ VDD VSS gf180mcu_fd_sc_mcu9t5v0__mux2_2
X_1799_ mem\[12\]\[9\] _1415_ _1430_ _0186_ VDD VSS gf180mcu_fd_sc_mcu9t5v0__mux2_2
X_1800_ net73 _0025_ _1434_ VDD VSS gf180mcu_fd_sc_mcu9t5v0__and2_2
X_1801_ net175 _1343_ _1429_ _1434_ _1435_ VDD VSS gf180mcu_fd_sc_mcu9t5v0__and4_4
Xoutput131 net131 mem_rdata[30] VDD VSS gf180mcu_fd_sc_mcu9t5v0__dlyb_2
X_1803_ mem\[13\]\[0\] _1339_ _1435_ _0187_ VDD VSS gf180mcu_fd_sc_mcu9t5v0__mux2_2
X_1804_ mem\[13\]\[10\] _1351_ _1435_ _0188_ VDD VSS gf180mcu_fd_sc_mcu9t5v0__mux2_2
X_1805_ mem\[13\]\[11\] _1353_ _1435_ _0189_ VDD VSS gf180mcu_fd_sc_mcu9t5v0__mux2_2
X_1806_ mem\[13\]\[12\] _1355_ _1435_ _0190_ VDD VSS gf180mcu_fd_sc_mcu9t5v0__mux2_2
X_1807_ mem\[13\]\[13\] _1357_ _1435_ _0191_ VDD VSS gf180mcu_fd_sc_mcu9t5v0__mux2_2
X_1808_ mem\[13\]\[14\] _1359_ _1435_ _0192_ VDD VSS gf180mcu_fd_sc_mcu9t5v0__mux2_2
X_1809_ mem\[13\]\[15\] _1361_ _1435_ _0193_ VDD VSS gf180mcu_fd_sc_mcu9t5v0__mux2_2
X_1810_ mem\[13\]\[16\] _1363_ _1435_ _0194_ VDD VSS gf180mcu_fd_sc_mcu9t5v0__mux2_2
X_1811_ mem\[13\]\[17\] _1365_ _1435_ _0195_ VDD VSS gf180mcu_fd_sc_mcu9t5v0__mux2_2
X_1812_ mem\[13\]\[18\] _1367_ _1435_ _0196_ VDD VSS gf180mcu_fd_sc_mcu9t5v0__mux2_2
Xoutput130 net130 mem_rdata[2] VDD VSS gf180mcu_fd_sc_mcu9t5v0__dlyb_2
X_1814_ mem\[13\]\[19\] _1370_ _1435_ _0197_ VDD VSS gf180mcu_fd_sc_mcu9t5v0__mux2_2
X_1815_ mem\[13\]\[1\] _1373_ _1435_ _0198_ VDD VSS gf180mcu_fd_sc_mcu9t5v0__mux2_2
X_1816_ mem\[13\]\[20\] _1375_ _1435_ _0199_ VDD VSS gf180mcu_fd_sc_mcu9t5v0__mux2_2
X_1817_ mem\[13\]\[21\] _1377_ _1435_ _0200_ VDD VSS gf180mcu_fd_sc_mcu9t5v0__mux2_2
X_1818_ mem\[13\]\[22\] _1379_ _1435_ _0201_ VDD VSS gf180mcu_fd_sc_mcu9t5v0__mux2_2
X_1819_ mem\[13\]\[23\] _1381_ _1435_ _0202_ VDD VSS gf180mcu_fd_sc_mcu9t5v0__mux2_2
X_1820_ mem\[13\]\[24\] _1383_ _1435_ _0203_ VDD VSS gf180mcu_fd_sc_mcu9t5v0__mux2_2
X_1821_ mem\[13\]\[25\] _1385_ _1435_ _0204_ VDD VSS gf180mcu_fd_sc_mcu9t5v0__mux2_2
X_1822_ mem\[13\]\[26\] _1387_ _1435_ _0205_ VDD VSS gf180mcu_fd_sc_mcu9t5v0__mux2_2
X_1823_ mem\[13\]\[27\] _1389_ _1435_ _0206_ VDD VSS gf180mcu_fd_sc_mcu9t5v0__mux2_2
Xoutput129 net129 mem_rdata[29] VDD VSS gf180mcu_fd_sc_mcu9t5v0__dlyb_2
X_1825_ mem\[13\]\[28\] _1392_ _1435_ _0207_ VDD VSS gf180mcu_fd_sc_mcu9t5v0__mux2_2
X_1826_ mem\[13\]\[29\] _1395_ _1435_ _0208_ VDD VSS gf180mcu_fd_sc_mcu9t5v0__mux2_2
X_1827_ mem\[13\]\[2\] _1397_ _1435_ _0209_ VDD VSS gf180mcu_fd_sc_mcu9t5v0__mux2_2
X_1828_ mem\[13\]\[30\] _1399_ _1435_ _0210_ VDD VSS gf180mcu_fd_sc_mcu9t5v0__mux2_2
X_1829_ mem\[13\]\[31\] _1401_ _1435_ _0211_ VDD VSS gf180mcu_fd_sc_mcu9t5v0__mux2_2
X_1830_ mem\[13\]\[3\] _1403_ _1435_ _0212_ VDD VSS gf180mcu_fd_sc_mcu9t5v0__mux2_2
X_1831_ mem\[13\]\[4\] _1405_ _1435_ _0213_ VDD VSS gf180mcu_fd_sc_mcu9t5v0__mux2_2
X_1832_ mem\[13\]\[5\] _1407_ _1435_ _0214_ VDD VSS gf180mcu_fd_sc_mcu9t5v0__mux2_2
X_1833_ mem\[13\]\[6\] _1409_ _1435_ _0215_ VDD VSS gf180mcu_fd_sc_mcu9t5v0__mux2_2
X_1834_ mem\[13\]\[7\] _1411_ _1435_ _0216_ VDD VSS gf180mcu_fd_sc_mcu9t5v0__mux2_2
X_1835_ mem\[13\]\[8\] _1413_ _1435_ _0217_ VDD VSS gf180mcu_fd_sc_mcu9t5v0__mux2_2
X_1836_ mem\[13\]\[9\] _1415_ _1435_ _0218_ VDD VSS gf180mcu_fd_sc_mcu9t5v0__mux2_2
X_1837_ net175 _1343_ _1418_ _1429_ _1439_ VDD VSS gf180mcu_fd_sc_mcu9t5v0__and4_4
Xoutput128 net128 mem_rdata[28] VDD VSS gf180mcu_fd_sc_mcu9t5v0__dlyb_2
X_1839_ mem\[14\]\[0\] _1339_ _1439_ _0219_ VDD VSS gf180mcu_fd_sc_mcu9t5v0__mux2_2
X_1840_ mem\[14\]\[10\] _1351_ _1439_ _0220_ VDD VSS gf180mcu_fd_sc_mcu9t5v0__mux2_2
X_1841_ mem\[14\]\[11\] _1353_ _1439_ _0221_ VDD VSS gf180mcu_fd_sc_mcu9t5v0__mux2_2
X_1842_ mem\[14\]\[12\] _1355_ _1439_ _0222_ VDD VSS gf180mcu_fd_sc_mcu9t5v0__mux2_2
X_1843_ mem\[14\]\[13\] _1357_ _1439_ _0223_ VDD VSS gf180mcu_fd_sc_mcu9t5v0__mux2_2
X_1844_ mem\[14\]\[14\] _1359_ _1439_ _0224_ VDD VSS gf180mcu_fd_sc_mcu9t5v0__mux2_2
X_1845_ mem\[14\]\[15\] _1361_ _1439_ _0225_ VDD VSS gf180mcu_fd_sc_mcu9t5v0__mux2_2
X_1846_ mem\[14\]\[16\] _1363_ _1439_ _0226_ VDD VSS gf180mcu_fd_sc_mcu9t5v0__mux2_2
X_1847_ mem\[14\]\[17\] _1365_ _1439_ _0227_ VDD VSS gf180mcu_fd_sc_mcu9t5v0__mux2_2
X_1848_ mem\[14\]\[18\] _1367_ _1439_ _0228_ VDD VSS gf180mcu_fd_sc_mcu9t5v0__mux2_2
Xoutput127 net127 mem_rdata[27] VDD VSS gf180mcu_fd_sc_mcu9t5v0__dlyb_2
X_1850_ mem\[14\]\[19\] _1370_ _1439_ _0229_ VDD VSS gf180mcu_fd_sc_mcu9t5v0__mux2_2
X_1851_ mem\[14\]\[1\] _1373_ _1439_ _0230_ VDD VSS gf180mcu_fd_sc_mcu9t5v0__mux2_2
X_1852_ mem\[14\]\[20\] _1375_ _1439_ _0231_ VDD VSS gf180mcu_fd_sc_mcu9t5v0__mux2_2
X_1853_ mem\[14\]\[21\] _1377_ _1439_ _0232_ VDD VSS gf180mcu_fd_sc_mcu9t5v0__mux2_2
X_1854_ mem\[14\]\[22\] _1379_ _1439_ _0233_ VDD VSS gf180mcu_fd_sc_mcu9t5v0__mux2_2
X_1855_ mem\[14\]\[23\] _1381_ _1439_ _0234_ VDD VSS gf180mcu_fd_sc_mcu9t5v0__mux2_2
X_1856_ mem\[14\]\[24\] _1383_ _1439_ _0235_ VDD VSS gf180mcu_fd_sc_mcu9t5v0__mux2_2
X_1857_ mem\[14\]\[25\] _1385_ _1439_ _0236_ VDD VSS gf180mcu_fd_sc_mcu9t5v0__mux2_2
X_1858_ mem\[14\]\[26\] _1387_ _1439_ _0237_ VDD VSS gf180mcu_fd_sc_mcu9t5v0__mux2_2
X_1859_ mem\[14\]\[27\] _1389_ _1439_ _0238_ VDD VSS gf180mcu_fd_sc_mcu9t5v0__mux2_2
Xoutput126 net126 mem_rdata[26] VDD VSS gf180mcu_fd_sc_mcu9t5v0__dlyb_2
X_1861_ mem\[14\]\[28\] _1392_ _1439_ _0239_ VDD VSS gf180mcu_fd_sc_mcu9t5v0__mux2_2
X_1862_ mem\[14\]\[29\] _1395_ _1439_ _0240_ VDD VSS gf180mcu_fd_sc_mcu9t5v0__mux2_2
X_1863_ mem\[14\]\[2\] _1397_ _1439_ _0241_ VDD VSS gf180mcu_fd_sc_mcu9t5v0__mux2_2
X_1864_ mem\[14\]\[30\] _1399_ _1439_ _0242_ VDD VSS gf180mcu_fd_sc_mcu9t5v0__mux2_2
X_1865_ mem\[14\]\[31\] _1401_ _1439_ _0243_ VDD VSS gf180mcu_fd_sc_mcu9t5v0__mux2_2
X_1866_ mem\[14\]\[3\] _1403_ _1439_ _0244_ VDD VSS gf180mcu_fd_sc_mcu9t5v0__mux2_2
X_1867_ mem\[14\]\[4\] _1405_ _1439_ _0245_ VDD VSS gf180mcu_fd_sc_mcu9t5v0__mux2_2
X_1868_ mem\[14\]\[5\] _1407_ _1439_ _0246_ VDD VSS gf180mcu_fd_sc_mcu9t5v0__mux2_2
X_1869_ mem\[14\]\[6\] _1409_ _1439_ _0247_ VDD VSS gf180mcu_fd_sc_mcu9t5v0__mux2_2
X_1870_ mem\[14\]\[7\] _1411_ _1439_ _0248_ VDD VSS gf180mcu_fd_sc_mcu9t5v0__mux2_2
X_1871_ mem\[14\]\[8\] _1413_ _1439_ _0249_ VDD VSS gf180mcu_fd_sc_mcu9t5v0__mux2_2
X_1872_ mem\[14\]\[9\] _1415_ _1439_ _0250_ VDD VSS gf180mcu_fd_sc_mcu9t5v0__mux2_2
X_1873_ net175 _1343_ _1424_ _1429_ _1443_ VDD VSS gf180mcu_fd_sc_mcu9t5v0__and4_4
Xoutput125 net125 mem_rdata[25] VDD VSS gf180mcu_fd_sc_mcu9t5v0__dlyb_2
X_1875_ mem\[15\]\[0\] _1339_ _1443_ _0251_ VDD VSS gf180mcu_fd_sc_mcu9t5v0__mux2_2
X_1876_ mem\[15\]\[10\] _1351_ _1443_ _0252_ VDD VSS gf180mcu_fd_sc_mcu9t5v0__mux2_2
X_1877_ mem\[15\]\[11\] _1353_ _1443_ _0253_ VDD VSS gf180mcu_fd_sc_mcu9t5v0__mux2_2
X_1878_ mem\[15\]\[12\] _1355_ _1443_ _0254_ VDD VSS gf180mcu_fd_sc_mcu9t5v0__mux2_2
X_1879_ mem\[15\]\[13\] _1357_ _1443_ _0255_ VDD VSS gf180mcu_fd_sc_mcu9t5v0__mux2_2
X_1880_ mem\[15\]\[14\] _1359_ _1443_ _0256_ VDD VSS gf180mcu_fd_sc_mcu9t5v0__mux2_2
X_1881_ mem\[15\]\[15\] _1361_ _1443_ _0257_ VDD VSS gf180mcu_fd_sc_mcu9t5v0__mux2_2
X_1882_ mem\[15\]\[16\] _1363_ _1443_ _0258_ VDD VSS gf180mcu_fd_sc_mcu9t5v0__mux2_2
X_1883_ mem\[15\]\[17\] _1365_ _1443_ _0259_ VDD VSS gf180mcu_fd_sc_mcu9t5v0__mux2_2
X_1884_ mem\[15\]\[18\] _1367_ _1443_ _0260_ VDD VSS gf180mcu_fd_sc_mcu9t5v0__mux2_2
Xoutput124 net124 mem_rdata[24] VDD VSS gf180mcu_fd_sc_mcu9t5v0__dlyb_2
X_1886_ mem\[15\]\[19\] _1370_ _1443_ _0261_ VDD VSS gf180mcu_fd_sc_mcu9t5v0__mux2_2
X_1887_ mem\[15\]\[1\] _1373_ _1443_ _0262_ VDD VSS gf180mcu_fd_sc_mcu9t5v0__mux2_2
X_1888_ mem\[15\]\[20\] _1375_ _1443_ _0263_ VDD VSS gf180mcu_fd_sc_mcu9t5v0__mux2_2
X_1889_ mem\[15\]\[21\] _1377_ _1443_ _0264_ VDD VSS gf180mcu_fd_sc_mcu9t5v0__mux2_2
X_1890_ mem\[15\]\[22\] _1379_ _1443_ _0265_ VDD VSS gf180mcu_fd_sc_mcu9t5v0__mux2_2
X_1891_ mem\[15\]\[23\] _1381_ _1443_ _0266_ VDD VSS gf180mcu_fd_sc_mcu9t5v0__mux2_2
X_1892_ mem\[15\]\[24\] _1383_ _1443_ _0267_ VDD VSS gf180mcu_fd_sc_mcu9t5v0__mux2_2
X_1893_ mem\[15\]\[25\] _1385_ _1443_ _0268_ VDD VSS gf180mcu_fd_sc_mcu9t5v0__mux2_2
X_1894_ mem\[15\]\[26\] _1387_ _1443_ _0269_ VDD VSS gf180mcu_fd_sc_mcu9t5v0__mux2_2
X_1895_ mem\[15\]\[27\] _1389_ _1443_ _0270_ VDD VSS gf180mcu_fd_sc_mcu9t5v0__mux2_2
Xoutput123 net123 mem_rdata[23] VDD VSS gf180mcu_fd_sc_mcu9t5v0__dlyb_2
X_1897_ mem\[15\]\[28\] _1392_ _1443_ _0271_ VDD VSS gf180mcu_fd_sc_mcu9t5v0__mux2_2
X_1898_ mem\[15\]\[29\] _1395_ _1443_ _0272_ VDD VSS gf180mcu_fd_sc_mcu9t5v0__mux2_2
X_1899_ mem\[15\]\[2\] _1397_ _1443_ _0273_ VDD VSS gf180mcu_fd_sc_mcu9t5v0__mux2_2
X_1900_ mem\[15\]\[30\] _1399_ _1443_ _0274_ VDD VSS gf180mcu_fd_sc_mcu9t5v0__mux2_2
X_1901_ mem\[15\]\[31\] _1401_ _1443_ _0275_ VDD VSS gf180mcu_fd_sc_mcu9t5v0__mux2_2
X_1902_ mem\[15\]\[3\] _1403_ _1443_ _0276_ VDD VSS gf180mcu_fd_sc_mcu9t5v0__mux2_2
X_1903_ mem\[15\]\[4\] _1405_ _1443_ _0277_ VDD VSS gf180mcu_fd_sc_mcu9t5v0__mux2_2
X_1904_ mem\[15\]\[5\] _1407_ _1443_ _0278_ VDD VSS gf180mcu_fd_sc_mcu9t5v0__mux2_2
X_1905_ mem\[15\]\[6\] _1409_ _1443_ _0279_ VDD VSS gf180mcu_fd_sc_mcu9t5v0__mux2_2
X_1906_ mem\[15\]\[7\] _1411_ _1443_ _0280_ VDD VSS gf180mcu_fd_sc_mcu9t5v0__mux2_2
X_1907_ mem\[15\]\[8\] _1413_ _1443_ _0281_ VDD VSS gf180mcu_fd_sc_mcu9t5v0__mux2_2
X_1908_ mem\[15\]\[9\] _1415_ _1443_ _0282_ VDD VSS gf180mcu_fd_sc_mcu9t5v0__mux2_2