
* cell arbiter_rr
* pin clk
* pin rst_n
* pin grant[2]
* pin active
* pin grant[3]
* pin grant[1]
* pin grant[0]
* pin request[2]
* pin request[3]
* pin request[1]
* pin request[0]
.SUBCKT arbiter_rr 1 2 26 27 45 56 65 79 80 81 83
* net 1 clk
* net 2 rst_n
* net 26 grant[2]
* net 27 active
* net 45 grant[3]
* net 56 grant[1]
* net 65 grant[0]
* net 79 request[2]
* net 80 request[3]
* net 81 request[1]
* net 83 request[0]
* cell instance $6 r0 *1 33.58,24.48
X$6 4 1 9 5 5 4 sky130_fd_sc_hd__clkbuf_8
* cell instance $10 r0 *1 39.1,2.72
X$10 5 2 5 3 4 4 sky130_fd_sc_hd__dlygate4sd3_1
* cell instance $12 r0 *1 34.5,2.72
X$12 4 7 3 5 5 4 sky130_fd_sc_hd__dlymetal6s2s_1
* cell instance $141 m0 *1 26.22,19.04
X$141 5 6 87 4 5 4 sky130_fd_sc_hd__clkbuf_1
* cell instance $146 m0 *1 29.44,19.04
X$146 4 9 6 5 5 4 sky130_fd_sc_hd__clkbuf_8
* cell instance $185 r0 *1 22.54,19.04
X$185 4 7 15 6 10 5 5 4 sky130_fd_sc_hd__dfstp_1
* cell instance $189 r0 *1 38.18,19.04
X$189 4 8 7 5 5 4 sky130_fd_sc_hd__dlymetal6s2s_1
* cell instance $195 r0 *1 43.7,19.04
X$195 4 8 29 6 13 5 5 4 sky130_fd_sc_hd__dfrtp_1
* cell instance $205 m0 *1 11.5,24.48
X$205 5 28 5 4 30 4 sky130_fd_sc_hd__inv_1
* cell instance $207 m0 *1 13.8,24.48
X$207 4 7 11 6 21 5 5 4 sky130_fd_sc_hd__dfstp_2
* cell instance $208 m0 *1 23.46,24.48
X$208 5 19 35 10 5 4 4 sky130_fd_sc_hd__xnor2_1
* cell instance $210 m0 *1 27.6,24.48
X$210 5 16 22 19 4 5 4 sky130_fd_sc_hd__nor2_1
* cell instance $212 m0 *1 29.44,24.48
X$212 4 85 12 15 11 5 5 4 sky130_fd_sc_hd__ha_1
* cell instance $213 m0 *1 34.04,24.48
X$213 4 14 22 17 16 12 53 5 5 4 sky130_fd_sc_hd__a221oi_1
* cell instance $214 m0 *1 37.26,24.48
X$214 5 17 16 37 4 5 4 sky130_fd_sc_hd__nor2b_1
* cell instance $215 m0 *1 39.56,24.48
X$215 5 12 16 23 4 5 4 sky130_fd_sc_hd__nor2b_1
* cell instance $216 m0 *1 41.86,24.48
X$216 5 17 24 31 5 4 4 sky130_fd_sc_hd__nand2_1
* cell instance $217 m0 *1 43.24,24.48
X$217 4 8 18 25 59 5 5 4 sky130_fd_sc_hd__dfrtp_1
* cell instance $223 m0 *1 58.42,24.48
X$223 5 29 26 4 5 4 sky130_fd_sc_hd__clkbuf_1
* cell instance $228 r0 *1 4.14,24.48
X$228 5 28 42 32 5 4 4 sky130_fd_sc_hd__nand2_1
* cell instance $229 r0 *1 5.52,24.48
X$229 5 33 32 48 4 5 4 sky130_fd_sc_hd__nor2_1
* cell instance $231 r0 *1 7.36,24.48
X$231 5 11 42 46 4 5 4 sky130_fd_sc_hd__nor2_1
* cell instance $233 r0 *1 9.66,24.48
X$233 4 57 33 30 40 46 5 5 4 sky130_fd_sc_hd__a31o_1
* cell instance $234 r0 *1 12.88,24.48
X$234 5 77 11 35 34 4 5 50 4 sky130_fd_sc_hd__a31oi_1
* cell instance $237 r0 *1 15.64,24.48
X$237 5 11 20 35 43 4 34 5 4 sky130_fd_sc_hd__nor4_1
* cell instance $240 r0 *1 22.08,24.48
X$240 4 15 35 5 5 4 sky130_fd_sc_hd__buf_6
* cell instance $243 r0 *1 27.6,24.48
X$243 4 86 36 15 51 5 5 4 sky130_fd_sc_hd__ha_1
* cell instance $246 r0 *1 38.64,24.48
X$246 5 36 16 54 4 5 4 sky130_fd_sc_hd__nor2b_1
* cell instance $247 r0 *1 40.94,24.48
X$247 5 44 37 47 5 13 4 4 sky130_fd_sc_hd__o21ai_0
* cell instance $251 r0 *1 44.16,24.48
X$251 4 8 38 25 41 5 5 4 sky130_fd_sc_hd__dfrtp_1
* cell instance $255 r0 *1 58.42,24.48
X$255 5 18 55 38 29 39 5 4 4 sky130_fd_sc_hd__or4_1
* cell instance $256 r0 *1 61.18,24.48
X$256 5 39 27 4 5 4 sky130_fd_sc_hd__clkbuf_1
* cell instance $257 r0 *1 62.56,24.48
X$257 5 18 56 4 5 4 sky130_fd_sc_hd__clkbuf_1
* cell instance $258 r0 *1 63.94,24.48
X$258 5 38 45 4 5 4 sky130_fd_sc_hd__clkbuf_1
* cell instance $266 m0 *1 4.6,29.92
X$266 5 63 40 20 43 42 5 4 4 sky130_fd_sc_hd__or4_1
* cell instance $267 m0 *1 7.36,29.92
X$267 5 66 57 48 49 4 21 5 4 sky130_fd_sc_hd__nor4b_1
* cell instance $268 m0 *1 10.58,29.92
X$268 5 61 30 33 50 5 49 4 4 sky130_fd_sc_hd__nand4_1
* cell instance $269 m0 *1 12.88,29.92
X$269 4 61 35 63 51 60 30 5 5 4 sky130_fd_sc_hd__a2111o_1
* cell instance $270 m0 *1 17.02,29.92
X$270 5 43 35 60 4 5 4 sky130_fd_sc_hd__and2b_1
* cell instance $271 m0 *1 19.78,29.92
X$271 5 35 5 4 62 4 sky130_fd_sc_hd__inv_1
* cell instance $272 m0 *1 21.16,29.92
X$272 5 11 5 4 51 4 sky130_fd_sc_hd__inv_1
* cell instance $273 m0 *1 22.54,29.92
X$273 5 69 4 28 5 4 sky130_fd_sc_hd__buf_2
* cell instance $274 m0 *1 24.38,29.92
X$274 4 69 52 62 51 5 5 4 sky130_fd_sc_hd__ha_1
* cell instance $276 m0 *1 29.44,29.92
X$276 4 84 17 62 11 5 5 4 sky130_fd_sc_hd__ha_1
* cell instance $277 m0 *1 34.04,29.92
X$277 4 70 22 52 16 36 53 5 5 4 sky130_fd_sc_hd__a221oi_1
* cell instance $278 m0 *1 37.26,29.92
X$278 4 68 22 36 16 17 53 5 5 4 sky130_fd_sc_hd__a221oi_1
* cell instance $279 m0 *1 40.48,29.92
X$279 5 14 54 64 5 59 4 4 sky130_fd_sc_hd__o21ai_0
* cell instance $280 m0 *1 42.32,29.92
X$280 5 12 24 67 5 4 4 sky130_fd_sc_hd__nand2_1
* cell instance $282 m0 *1 44.16,29.92
X$282 4 8 55 25 58 5 5 4 sky130_fd_sc_hd__dfrtp_1
* cell instance $289 m0 *1 58.42,29.92
X$289 5 55 65 4 5 4 sky130_fd_sc_hd__clkbuf_1
* cell instance $293 r0 *1 5.06,29.92
X$293 5 40 42 28 74 4 5 4 sky130_fd_sc_hd__nand3b_1
* cell instance $294 r0 *1 7.82,29.92
X$294 5 74 61 50 4 5 66 4 sky130_fd_sc_hd__a21oi_1
* cell instance $295 r0 *1 9.66,29.92
X$295 4 71 33 75 82 72 62 5 5 4 sky130_fd_sc_hd__a221oi_2
* cell instance $301 r0 *1 16.56,29.92
X$301 4 40 43 53 15 63 28 20 5 5 4 sky130_fd_sc_hd__mux4_4
* cell instance $305 r0 *1 30.82,29.92
X$305 5 53 73 22 4 5 4 sky130_fd_sc_hd__nor2b_1
* cell instance $306 r0 *1 33.12,29.92
X$306 4 44 22 12 16 52 53 5 5 4 sky130_fd_sc_hd__a221oi_1
* cell instance $307 r0 *1 36.34,29.92
X$307 5 36 24 47 5 4 4 sky130_fd_sc_hd__nand2_1
* cell instance $308 r0 *1 37.72,29.92
X$308 5 70 23 31 5 41 4 4 sky130_fd_sc_hd__o21ai_0
* cell instance $310 r0 *1 40.02,29.92
X$310 5 68 76 67 5 58 4 4 sky130_fd_sc_hd__o21ai_0
* cell instance $318 r0 *1 45.54,29.92
X$318 4 9 25 5 5 4 sky130_fd_sc_hd__clkbuf_8
* cell instance $324 m0 *1 3.22,35.36
X$324 4 35 71 40 63 43 20 11 5 5 4 sky130_fd_sc_hd__mux4_1
* cell instance $325 m0 *1 12.88,35.36
X$325 5 20 28 77 4 5 4 sky130_fd_sc_hd__nor2_1
* cell instance $327 m0 *1 14.72,35.36
X$327 4 35 73 43 20 40 63 11 5 5 4 sky130_fd_sc_hd__mux4_1
* cell instance $331 m0 *1 29.44,35.36
X$331 4 24 16 53 73 78 5 5 4 sky130_fd_sc_hd__nor4b_2
* cell instance $334 m0 *1 37.72,35.36
X$334 5 52 16 76 4 5 4 sky130_fd_sc_hd__nor2b_1
* cell instance $335 m0 *1 40.02,35.36
X$335 5 52 24 64 5 4 4 sky130_fd_sc_hd__nand2_1
* cell instance $345 r0 *1 1.38,35.36
X$345 5 79 5 4 20 4 sky130_fd_sc_hd__clkbuf_2
* cell instance $346 r0 *1 3.22,35.36
X$346 5 80 5 4 43 4 sky130_fd_sc_hd__clkbuf_2
* cell instance $349 r0 *1 6.44,35.36
X$349 4 72 40 43 28 5 5 4 sky130_fd_sc_hd__mux2_1
* cell instance $350 r0 *1 10.58,35.36
X$350 5 11 43 35 75 4 5 4 sky130_fd_sc_hd__nor3b_1
* cell instance $357 r0 *1 16.56,35.36
X$357 4 28 78 43 40 20 63 35 5 5 4 sky130_fd_sc_hd__mux4_1
* cell instance $358 r0 *1 26.22,35.36
X$358 4 71 16 5 5 4 sky130_fd_sc_hd__buf_6
* cell instance $374 m0 *1 1.38,40.8
X$374 5 81 5 4 40 4 sky130_fd_sc_hd__clkbuf_2
* cell instance $376 m0 *1 4.14,40.8
X$376 5 83 5 4 63 4 sky130_fd_sc_hd__clkbuf_2
* cell instance $379 m0 *1 11.5,40.8
X$379 4 82 20 63 28 5 5 4 sky130_fd_sc_hd__mux2i_1
.ENDS arbiter_rr

* cell sky130_fd_sc_hd__dlygate4sd3_1
* pin VPB
* pin A
* pin VPWR
* pin X
* pin VGND
* pin 
.SUBCKT sky130_fd_sc_hd__dlygate4sd3_1 1 3 5 7 8 9
* net 1 VPB
* net 3 A
* net 5 VPWR
* net 7 X
* net 8 VGND
* device instance $1 r0 *1 2.465,2.275 pfet_01v8_hvt
M$1 6 2 5 1 pfet_01v8_hvt L=500000U W=420000U AS=140750000000P AD=109200000000P
+ PS=1325000U PD=1360000U
* device instance $2 r0 *1 3.115,1.985 pfet_01v8_hvt
M$2 7 6 5 1 pfet_01v8_hvt L=150000U W=1000000U AS=140750000000P
+ AD=260000000000P PS=1325000U PD=2520000U
* device instance $3 r0 *1 0.58,2.275 pfet_01v8_hvt
M$3 5 3 4 1 pfet_01v8_hvt L=150000U W=420000U AS=109200000000P AD=56700000000P
+ PS=1360000U PD=690000U
* device instance $4 r0 *1 1.175,2.275 pfet_01v8_hvt
M$4 2 4 5 1 pfet_01v8_hvt L=500000U W=420000U AS=56700000000P AD=109200000000P
+ PS=690000U PD=1360000U
* device instance $5 r0 *1 2.465,0.445 nfet_01v8
M$5 8 2 6 9 nfet_01v8 L=500000U W=420000U AS=109200000000P AD=97000000000P
+ PS=1360000U PD=975000U
* device instance $6 r0 *1 3.115,0.56 nfet_01v8
M$6 7 6 8 9 nfet_01v8 L=150000U W=650000U AS=97000000000P AD=169000000000P
+ PS=975000U PD=1820000U
* device instance $7 r0 *1 0.58,0.445 nfet_01v8
M$7 8 3 4 9 nfet_01v8 L=150000U W=420000U AS=109200000000P AD=56700000000P
+ PS=1360000U PD=690000U
* device instance $8 r0 *1 1.175,0.445 nfet_01v8
M$8 2 4 8 9 nfet_01v8 L=500000U W=420000U AS=56700000000P AD=109200000000P
+ PS=690000U PD=1360000U
.ENDS sky130_fd_sc_hd__dlygate4sd3_1

* cell sky130_fd_sc_hd__dlymetal6s2s_1
* pin VGND
* pin X
* pin A
* pin VPWR
* pin VPB
* pin 
.SUBCKT sky130_fd_sc_hd__dlymetal6s2s_1 1 3 8 9 10 11
* net 1 VGND
* net 3 X
* net 8 A
* net 9 VPWR
* net 10 VPB
* device instance $1 r0 *1 3.655,2.275 pfet_01v8_hvt
M$1 6 5 9 10 pfet_01v8_hvt L=150000U W=420000U AS=140750000000P
+ AD=109200000000P PS=1325000U PD=1360000U
* device instance $2 r0 *1 4.13,1.985 pfet_01v8_hvt
M$2 7 6 9 10 pfet_01v8_hvt L=150000U W=1000000U AS=140750000000P
+ AD=260000000000P PS=1325000U PD=2520000U
* device instance $3 r0 *1 2.24,2.275 pfet_01v8_hvt
M$3 4 3 9 10 pfet_01v8_hvt L=150000U W=420000U AS=140750000000P
+ AD=109200000000P PS=1325000U PD=1360000U
* device instance $4 r0 *1 2.715,1.985 pfet_01v8_hvt
M$4 5 4 9 10 pfet_01v8_hvt L=150000U W=1000000U AS=140750000000P
+ AD=260000000000P PS=1325000U PD=2520000U
* device instance $5 r0 *1 0.645,2.275 pfet_01v8_hvt
M$5 2 8 9 10 pfet_01v8_hvt L=150000U W=420000U AS=140750000000P
+ AD=109200000000P PS=1325000U PD=1360000U
* device instance $6 r0 *1 1.12,1.985 pfet_01v8_hvt
M$6 3 2 9 10 pfet_01v8_hvt L=150000U W=1000000U AS=140750000000P
+ AD=260000000000P PS=1325000U PD=2520000U
* device instance $7 r0 *1 3.655,0.445 nfet_01v8
M$7 1 5 6 11 nfet_01v8 L=150000U W=420000U AS=109200000000P AD=97000000000P
+ PS=1360000U PD=975000U
* device instance $8 r0 *1 4.13,0.56 nfet_01v8
M$8 7 6 1 11 nfet_01v8 L=150000U W=650000U AS=97000000000P AD=169000000000P
+ PS=975000U PD=1820000U
* device instance $9 r0 *1 0.645,0.445 nfet_01v8
M$9 1 8 2 11 nfet_01v8 L=150000U W=420000U AS=109200000000P AD=97000000000P
+ PS=1360000U PD=975000U
* device instance $10 r0 *1 1.12,0.56 nfet_01v8
M$10 3 2 1 11 nfet_01v8 L=150000U W=650000U AS=97000000000P AD=169000000000P
+ PS=975000U PD=1820000U
* device instance $11 r0 *1 2.24,0.445 nfet_01v8
M$11 1 3 4 11 nfet_01v8 L=150000U W=420000U AS=109200000000P AD=97000000000P
+ PS=1360000U PD=975000U
* device instance $12 r0 *1 2.715,0.56 nfet_01v8
M$12 5 4 1 11 nfet_01v8 L=150000U W=650000U AS=97000000000P AD=169000000000P
+ PS=975000U PD=1820000U
.ENDS sky130_fd_sc_hd__dlymetal6s2s_1

* cell sky130_fd_sc_hd__o21ai_0
* pin VPB
* pin A1
* pin A2
* pin B1
* pin VPWR
* pin Y
* pin VGND
* pin 
.SUBCKT sky130_fd_sc_hd__o21ai_0 1 2 3 4 5 6 8 9
* net 1 VPB
* net 2 A1
* net 3 A2
* net 4 B1
* net 5 VPWR
* net 6 Y
* net 8 VGND
* device instance $1 r0 *1 0.525,2.165 pfet_01v8_hvt
M$1 10 2 5 1 pfet_01v8_hvt L=150000U W=640000U AS=169600000000P AD=76800000000P
+ PS=1810000U PD=880000U
* device instance $2 r0 *1 0.915,2.165 pfet_01v8_hvt
M$2 6 3 10 1 pfet_01v8_hvt L=150000U W=640000U AS=76800000000P AD=89600000000P
+ PS=880000U PD=920000U
* device instance $3 r0 *1 1.345,2.165 pfet_01v8_hvt
M$3 5 4 6 1 pfet_01v8_hvt L=150000U W=640000U AS=89600000000P AD=182400000000P
+ PS=920000U PD=1850000U
* device instance $4 r0 *1 0.5,0.445 nfet_01v8
M$4 8 2 7 9 nfet_01v8 L=150000U W=420000U AS=111300000000P AD=58800000000P
+ PS=1370000U PD=700000U
* device instance $5 r0 *1 0.93,0.445 nfet_01v8
M$5 7 3 8 9 nfet_01v8 L=150000U W=420000U AS=58800000000P AD=58800000000P
+ PS=700000U PD=700000U
* device instance $6 r0 *1 1.36,0.445 nfet_01v8
M$6 6 4 7 9 nfet_01v8 L=150000U W=420000U AS=58800000000P AD=111300000000P
+ PS=700000U PD=1370000U
.ENDS sky130_fd_sc_hd__o21ai_0

* cell sky130_fd_sc_hd__dfrtp_1
* pin VGND
* pin RESET_B
* pin Q
* pin CLK
* pin D
* pin VPWR
* pin VPB
* pin 
.SUBCKT sky130_fd_sc_hd__dfrtp_1 1 6 9 14 15 17 18 21
* net 1 VGND
* net 6 RESET_B
* net 9 Q
* net 14 CLK
* net 15 D
* net 17 VPWR
* net 18 VPB
* device instance $1 r0 *1 8.73,1.985 pfet_01v8_hvt
M$1 9 8 17 18 pfet_01v8_hvt L=150000U W=1000000U AS=301200000000P
+ AD=260000000000P PS=2660000U PD=2520000U
* device instance $2 r0 *1 5.35,2.065 pfet_01v8_hvt
M$2 16 5 17 18 pfet_01v8_hvt L=150000U W=840000U AS=218400000000P
+ AD=129150000000P PS=2200000U PD=1185000U
* device instance $3 r0 *1 5.845,2.275 pfet_01v8_hvt
M$3 7 2 16 18 pfet_01v8_hvt L=150000U W=420000U AS=129150000000P
+ AD=58800000000P PS=1185000U PD=700000U
* device instance $4 r0 *1 6.275,2.275 pfet_01v8_hvt
M$4 20 3 7 18 pfet_01v8_hvt L=150000U W=420000U AS=58800000000P AD=56700000000P
+ PS=700000U PD=690000U
* device instance $5 r0 *1 6.695,2.275 pfet_01v8_hvt
M$5 17 8 20 18 pfet_01v8_hvt L=150000U W=420000U AS=56700000000P
+ AD=81900000000P PS=690000U PD=810000U
* device instance $6 r0 *1 7.235,2.275 pfet_01v8_hvt
M$6 8 6 17 18 pfet_01v8_hvt L=150000U W=420000U AS=81900000000P AD=56700000000P
+ PS=810000U PD=690000U
* device instance $7 r0 *1 7.655,2.275 pfet_01v8_hvt
M$7 17 7 8 18 pfet_01v8_hvt L=150000U W=420000U AS=56700000000P
+ AD=113400000000P PS=690000U PD=1380000U
* device instance $8 r0 *1 2.225,2.275 pfet_01v8_hvt
M$8 4 15 17 18 pfet_01v8_hvt L=150000U W=420000U AS=109200000000P
+ AD=65100000000P PS=1360000U PD=730000U
* device instance $9 r0 *1 2.685,2.275 pfet_01v8_hvt
M$9 5 3 4 18 pfet_01v8_hvt L=150000U W=420000U AS=65100000000P AD=72450000000P
+ PS=730000U PD=765000U
* device instance $10 r0 *1 3.18,2.275 pfet_01v8_hvt
M$10 19 2 5 18 pfet_01v8_hvt L=150000U W=420000U AS=72450000000P
+ AD=115500000000P PS=765000U PD=970000U
* device instance $11 r0 *1 3.88,2.275 pfet_01v8_hvt
M$11 17 16 19 18 pfet_01v8_hvt L=150000U W=420000U AS=115500000000P
+ AD=70350000000P PS=970000U PD=755000U
* device instance $12 r0 *1 4.365,2.275 pfet_01v8_hvt
M$12 19 6 17 18 pfet_01v8_hvt L=150000U W=420000U AS=70350000000P
+ AD=109200000000P PS=755000U PD=1360000U
* device instance $13 r0 *1 0.47,2.135 pfet_01v8_hvt
M$13 17 14 2 18 pfet_01v8_hvt L=150000U W=640000U AS=166400000000P
+ AD=86400000000P PS=1800000U PD=910000U
* device instance $14 r0 *1 0.89,2.135 pfet_01v8_hvt
M$14 3 2 17 18 pfet_01v8_hvt L=150000U W=640000U AS=86400000000P
+ AD=166400000000P PS=910000U PD=1800000U
* device instance $15 r0 *1 8.73,0.56 nfet_01v8
M$15 9 8 1 21 nfet_01v8 L=150000U W=650000U AS=208700000000P AD=169000000000P
+ PS=2020000U PD=1820000U
* device instance $16 r0 *1 0.47,0.445 nfet_01v8
M$16 1 14 2 21 nfet_01v8 L=150000U W=420000U AS=109200000000P AD=56700000000P
+ PS=1360000U PD=690000U
* device instance $17 r0 *1 0.89,0.445 nfet_01v8
M$17 3 2 1 21 nfet_01v8 L=150000U W=420000U AS=56700000000P AD=109200000000P
+ PS=690000U PD=1360000U
* device instance $18 r0 *1 2.64,0.415 nfet_01v8
M$18 5 2 4 21 nfet_01v8 L=150000U W=360000U AS=66000000000P AD=59400000000P
+ PS=745000U PD=690000U
* device instance $19 r0 *1 3.12,0.415 nfet_01v8
M$19 12 3 5 21 nfet_01v8 L=150000U W=360000U AS=59400000000P AD=140100000000P
+ PS=690000U PD=1100000U
* device instance $20 r0 *1 5.465,0.415 nfet_01v8
M$20 7 3 16 21 nfet_01v8 L=150000U W=360000U AS=99900000000P AD=71100000000P
+ PS=985000U PD=755000U
* device instance $21 r0 *1 6.01,0.415 nfet_01v8
M$21 11 2 7 21 nfet_01v8 L=150000U W=360000U AS=71100000000P AD=66900000000P
+ PS=755000U PD=750000U
* device instance $22 r0 *1 2.165,0.445 nfet_01v8
M$22 4 15 1 21 nfet_01v8 L=150000U W=420000U AS=220500000000P AD=66000000000P
+ PS=1890000U PD=745000U
* device instance $23 r0 *1 3.95,0.445 nfet_01v8
M$23 13 16 12 21 nfet_01v8 L=150000U W=420000U AS=140100000000P AD=44100000000P
+ PS=1100000U PD=630000U
* device instance $24 r0 *1 4.31,0.445 nfet_01v8
M$24 1 6 13 21 nfet_01v8 L=150000U W=420000U AS=44100000000P AD=134600000000P
+ PS=630000U PD=1150000U
* device instance $25 r0 *1 6.49,0.445 nfet_01v8
M$25 1 8 11 21 nfet_01v8 L=150000U W=420000U AS=66900000000P AD=124950000000P
+ PS=750000U PD=1015000U
* device instance $26 r0 *1 7.235,0.445 nfet_01v8
M$26 10 6 1 21 nfet_01v8 L=150000U W=420000U AS=124950000000P AD=64050000000P
+ PS=1015000U PD=725000U
* device instance $27 r0 *1 7.69,0.445 nfet_01v8
M$27 8 7 10 21 nfet_01v8 L=150000U W=420000U AS=64050000000P AD=109200000000P
+ PS=725000U PD=1360000U
* device instance $28 r0 *1 4.97,0.555 nfet_01v8
M$28 16 5 1 21 nfet_01v8 L=150000U W=640000U AS=134600000000P AD=99900000000P
+ PS=1150000U PD=985000U
.ENDS sky130_fd_sc_hd__dfrtp_1

* cell sky130_fd_sc_hd__nor4b_1
* pin VPB
* pin C
* pin B
* pin A
* pin D_N
* pin VGND
* pin Y
* pin VPWR
* pin 
.SUBCKT sky130_fd_sc_hd__nor4b_1 1 2 3 4 5 6 7 8 10
* net 1 VPB
* net 2 C
* net 3 B
* net 4 A
* net 5 D_N
* net 6 VGND
* net 7 Y
* net 8 VPWR
* device instance $1 r0 *1 2.535,1.89 pfet_01v8_hvt
M$1 9 5 8 1 pfet_01v8_hvt L=150000U W=420000U AS=145750000000P AD=109200000000P
+ PS=1335000U PD=1360000U
* device instance $2 r0 *1 0.73,1.985 pfet_01v8_hvt
M$2 13 9 7 1 pfet_01v8_hvt L=150000U W=1000000U AS=520000000000P
+ AD=135000000000P PS=3040000U PD=1270000U
* device instance $3 r0 *1 1.15,1.985 pfet_01v8_hvt
M$3 12 2 13 1 pfet_01v8_hvt L=150000U W=1000000U AS=135000000000P
+ AD=165000000000P PS=1270000U PD=1330000U
* device instance $4 r0 *1 1.63,1.985 pfet_01v8_hvt
M$4 11 3 12 1 pfet_01v8_hvt L=150000U W=1000000U AS=165000000000P
+ AD=135000000000P PS=1330000U PD=1270000U
* device instance $5 r0 *1 2.05,1.985 pfet_01v8_hvt
M$5 8 4 11 1 pfet_01v8_hvt L=150000U W=1000000U AS=135000000000P
+ AD=145750000000P PS=1270000U PD=1335000U
* device instance $6 r0 *1 0.73,0.56 nfet_01v8
M$6 7 9 6 10 nfet_01v8 L=150000U W=650000U AS=182000000000P AD=87750000000P
+ PS=1860000U PD=920000U
* device instance $7 r0 *1 1.15,0.56 nfet_01v8
M$7 6 2 7 10 nfet_01v8 L=150000U W=650000U AS=87750000000P AD=107250000000P
+ PS=920000U PD=980000U
* device instance $8 r0 *1 1.63,0.56 nfet_01v8
M$8 7 3 6 10 nfet_01v8 L=150000U W=650000U AS=107250000000P AD=87750000000P
+ PS=980000U PD=920000U
* device instance $9 r0 *1 2.05,0.56 nfet_01v8
M$9 6 4 7 10 nfet_01v8 L=150000U W=650000U AS=87750000000P AD=100250000000P
+ PS=920000U PD=985000U
* device instance $10 r0 *1 2.535,0.675 nfet_01v8
M$10 9 5 6 10 nfet_01v8 L=150000U W=420000U AS=100250000000P AD=109200000000P
+ PS=985000U PD=1360000U
.ENDS sky130_fd_sc_hd__nor4b_1

* cell sky130_fd_sc_hd__nand4_1
* pin VPB
* pin C
* pin A
* pin B
* pin D
* pin VPWR
* pin Y
* pin VGND
* pin 
.SUBCKT sky130_fd_sc_hd__nand4_1 1 2 3 4 5 6 7 8 9
* net 1 VPB
* net 2 C
* net 3 A
* net 4 B
* net 5 D
* net 6 VPWR
* net 7 Y
* net 8 VGND
* device instance $1 r0 *1 0.47,1.985 pfet_01v8_hvt
M$1 7 5 6 1 pfet_01v8_hvt L=150000U W=1000000U AS=260000000000P
+ AD=135000000000P PS=2520000U PD=1270000U
* device instance $2 r0 *1 0.89,1.985 pfet_01v8_hvt
M$2 6 2 7 1 pfet_01v8_hvt L=150000U W=1000000U AS=135000000000P
+ AD=135000000000P PS=1270000U PD=1270000U
* device instance $3 r0 *1 1.31,1.985 pfet_01v8_hvt
M$3 7 4 6 1 pfet_01v8_hvt L=150000U W=1000000U AS=135000000000P
+ AD=165000000000P PS=1270000U PD=1330000U
* device instance $4 r0 *1 1.79,1.985 pfet_01v8_hvt
M$4 6 3 7 1 pfet_01v8_hvt L=150000U W=1000000U AS=165000000000P
+ AD=300000000000P PS=1330000U PD=2600000U
* device instance $5 r0 *1 0.47,0.56 nfet_01v8
M$5 12 5 8 9 nfet_01v8 L=150000U W=650000U AS=169000000000P AD=87750000000P
+ PS=1820000U PD=920000U
* device instance $6 r0 *1 0.89,0.56 nfet_01v8
M$6 11 2 12 9 nfet_01v8 L=150000U W=650000U AS=87750000000P AD=87750000000P
+ PS=920000U PD=920000U
* device instance $7 r0 *1 1.31,0.56 nfet_01v8
M$7 10 4 11 9 nfet_01v8 L=150000U W=650000U AS=87750000000P AD=107250000000P
+ PS=920000U PD=980000U
* device instance $8 r0 *1 1.79,0.56 nfet_01v8
M$8 7 3 10 9 nfet_01v8 L=150000U W=650000U AS=107250000000P AD=195000000000P
+ PS=980000U PD=1900000U
.ENDS sky130_fd_sc_hd__nand4_1

* cell sky130_fd_sc_hd__a21oi_1
* pin VPB
* pin B1
* pin A1
* pin A2
* pin VGND
* pin VPWR
* pin Y
* pin 
.SUBCKT sky130_fd_sc_hd__a21oi_1 1 2 3 4 5 7 8 9
* net 1 VPB
* net 2 B1
* net 3 A1
* net 4 A2
* net 5 VGND
* net 7 VPWR
* net 8 Y
* device instance $1 r0 *1 0.49,1.985 pfet_01v8_hvt
M$1 6 2 8 1 pfet_01v8_hvt L=150000U W=1000000U AS=265000000000P
+ AD=140000000000P PS=2530000U PD=1280000U
* device instance $2 r0 *1 0.92,1.985 pfet_01v8_hvt
M$2 7 3 6 1 pfet_01v8_hvt L=150000U W=1000000U AS=140000000000P
+ AD=147500000000P PS=1280000U PD=1295000U
* device instance $3 r0 *1 1.365,1.985 pfet_01v8_hvt
M$3 6 4 7 1 pfet_01v8_hvt L=150000U W=1000000U AS=147500000000P
+ AD=265000000000P PS=1295000U PD=2530000U
* device instance $4 r0 *1 0.49,0.56 nfet_01v8
M$4 8 2 5 9 nfet_01v8 L=150000U W=650000U AS=172250000000P AD=91000000000P
+ PS=1830000U PD=930000U
* device instance $5 r0 *1 0.92,0.56 nfet_01v8
M$5 10 3 8 9 nfet_01v8 L=150000U W=650000U AS=91000000000P AD=95875000000P
+ PS=930000U PD=945000U
* device instance $6 r0 *1 1.365,0.56 nfet_01v8
M$6 5 4 10 9 nfet_01v8 L=150000U W=650000U AS=95875000000P AD=172250000000P
+ PS=945000U PD=1830000U
.ENDS sky130_fd_sc_hd__a21oi_1

* cell sky130_fd_sc_hd__nand3b_1
* pin VPB
* pin A_N
* pin C
* pin B
* pin Y
* pin VGND
* pin VPWR
* pin 
.SUBCKT sky130_fd_sc_hd__nand3b_1 1 2 3 4 5 7 8 9
* net 1 VPB
* net 2 A_N
* net 3 C
* net 4 B
* net 5 Y
* net 7 VGND
* net 8 VPWR
* device instance $1 r0 *1 0.6,1.695 pfet_01v8_hvt
M$1 8 2 6 1 pfet_01v8_hvt L=150000U W=420000U AS=109200000000P AD=145750000000P
+ PS=1360000U PD=1335000U
* device instance $2 r0 *1 1.085,1.985 pfet_01v8_hvt
M$2 5 3 8 1 pfet_01v8_hvt L=150000U W=1000000U AS=145750000000P
+ AD=135000000000P PS=1335000U PD=1270000U
* device instance $3 r0 *1 1.505,1.985 pfet_01v8_hvt
M$3 8 4 5 1 pfet_01v8_hvt L=150000U W=1000000U AS=135000000000P
+ AD=192500000000P PS=1270000U PD=1385000U
* device instance $4 r0 *1 2.04,1.985 pfet_01v8_hvt
M$4 5 6 8 1 pfet_01v8_hvt L=150000U W=1000000U AS=192500000000P
+ AD=280000000000P PS=1385000U PD=2560000U
* device instance $5 r0 *1 0.6,0.675 nfet_01v8
M$5 6 2 7 9 nfet_01v8 L=150000U W=420000U AS=100250000000P AD=109200000000P
+ PS=985000U PD=1360000U
* device instance $6 r0 *1 1.085,0.56 nfet_01v8
M$6 11 3 7 9 nfet_01v8 L=150000U W=650000U AS=100250000000P AD=87750000000P
+ PS=985000U PD=920000U
* device instance $7 r0 *1 1.505,0.56 nfet_01v8
M$7 10 4 11 9 nfet_01v8 L=150000U W=650000U AS=87750000000P AD=125125000000P
+ PS=920000U PD=1035000U
* device instance $8 r0 *1 2.04,0.56 nfet_01v8
M$8 5 6 10 9 nfet_01v8 L=150000U W=650000U AS=125125000000P AD=182000000000P
+ PS=1035000U PD=1860000U
.ENDS sky130_fd_sc_hd__nand3b_1

* cell sky130_fd_sc_hd__a31oi_1
* pin VPB
* pin A3
* pin A2
* pin A1
* pin B1
* pin VGND
* pin VPWR
* pin Y
* pin 
.SUBCKT sky130_fd_sc_hd__a31oi_1 1 2 3 4 5 6 8 9 10
* net 1 VPB
* net 2 A3
* net 3 A2
* net 4 A1
* net 5 B1
* net 6 VGND
* net 8 VPWR
* net 9 Y
* device instance $1 r0 *1 0.47,1.985 pfet_01v8_hvt
M$1 7 2 8 1 pfet_01v8_hvt L=150000U W=1000000U AS=260000000000P
+ AD=135000000000P PS=2520000U PD=1270000U
* device instance $2 r0 *1 0.89,1.985 pfet_01v8_hvt
M$2 8 3 7 1 pfet_01v8_hvt L=150000U W=1000000U AS=135000000000P
+ AD=152500000000P PS=1270000U PD=1305000U
* device instance $3 r0 *1 1.345,1.985 pfet_01v8_hvt
M$3 7 4 8 1 pfet_01v8_hvt L=150000U W=1000000U AS=152500000000P
+ AD=162500000000P PS=1305000U PD=1325000U
* device instance $4 r0 *1 1.82,1.985 pfet_01v8_hvt
M$4 9 5 7 1 pfet_01v8_hvt L=150000U W=1000000U AS=162500000000P
+ AD=270000000000P PS=1325000U PD=2540000U
* device instance $5 r0 *1 0.47,0.56 nfet_01v8
M$5 12 2 6 10 nfet_01v8 L=150000U W=650000U AS=169000000000P AD=68250000000P
+ PS=1820000U PD=860000U
* device instance $6 r0 *1 0.83,0.56 nfet_01v8
M$6 11 3 12 10 nfet_01v8 L=150000U W=650000U AS=68250000000P AD=118625000000P
+ PS=860000U PD=1015000U
* device instance $7 r0 *1 1.345,0.56 nfet_01v8
M$7 9 4 11 10 nfet_01v8 L=150000U W=650000U AS=118625000000P AD=105625000000P
+ PS=1015000U PD=975000U
* device instance $8 r0 *1 1.82,0.56 nfet_01v8
M$8 6 5 9 10 nfet_01v8 L=150000U W=650000U AS=105625000000P AD=175500000000P
+ PS=975000U PD=1840000U
.ENDS sky130_fd_sc_hd__a31oi_1

* cell sky130_fd_sc_hd__a2111o_1
* pin VGND
* pin X
* pin A1
* pin D1
* pin C1
* pin B1
* pin A2
* pin VPB
* pin VPWR
* pin 
.SUBCKT sky130_fd_sc_hd__a2111o_1 1 2 4 5 6 7 8 11 12 15
* net 1 VGND
* net 2 X
* net 4 A1
* net 5 D1
* net 6 C1
* net 7 B1
* net 8 A2
* net 11 VPB
* net 12 VPWR
* device instance $1 r0 *1 1.595,1.985 pfet_01v8_hvt
M$1 13 5 3 11 pfet_01v8_hvt L=150000U W=1000000U AS=385000000000P
+ AD=125000000000P PS=2770000U PD=1250000U
* device instance $2 r0 *1 1.995,1.985 pfet_01v8_hvt
M$2 14 6 13 11 pfet_01v8_hvt L=150000U W=1000000U AS=125000000000P
+ AD=180000000000P PS=1250000U PD=1360000U
* device instance $3 r0 *1 2.505,1.985 pfet_01v8_hvt
M$3 10 7 14 11 pfet_01v8_hvt L=150000U W=1000000U AS=180000000000P
+ AD=280000000000P PS=1360000U PD=1560000U
* device instance $4 r0 *1 3.215,1.985 pfet_01v8_hvt
M$4 12 4 10 11 pfet_01v8_hvt L=150000U W=1000000U AS=280000000000P
+ AD=135000000000P PS=1560000U PD=1270000U
* device instance $5 r0 *1 3.635,1.985 pfet_01v8_hvt
M$5 10 8 12 11 pfet_01v8_hvt L=150000U W=1000000U AS=135000000000P
+ AD=290000000000P PS=1270000U PD=2580000U
* device instance $6 r0 *1 0.5,1.985 pfet_01v8_hvt
M$6 12 3 2 11 pfet_01v8_hvt L=150000U W=1000000U AS=290000000000P
+ AD=265000000000P PS=2580000U PD=2530000U
* device instance $7 r0 *1 0.54,0.56 nfet_01v8
M$7 1 3 2 15 nfet_01v8 L=150000U W=650000U AS=214500000000P AD=274625000000P
+ PS=1960000U PD=1495000U
* device instance $8 r0 *1 1.535,0.56 nfet_01v8
M$8 3 5 1 15 nfet_01v8 L=150000U W=650000U AS=274625000000P AD=100750000000P
+ PS=1495000U PD=960000U
* device instance $9 r0 *1 1.995,0.56 nfet_01v8
M$9 1 6 3 15 nfet_01v8 L=150000U W=650000U AS=100750000000P AD=117000000000P
+ PS=960000U PD=1010000U
* device instance $10 r0 *1 2.505,0.56 nfet_01v8
M$10 3 7 1 15 nfet_01v8 L=150000U W=650000U AS=117000000000P AD=185250000000P
+ PS=1010000U PD=1220000U
* device instance $11 r0 *1 3.225,0.56 nfet_01v8
M$11 9 4 3 15 nfet_01v8 L=150000U W=650000U AS=185250000000P AD=82875000000P
+ PS=1220000U PD=905000U
* device instance $12 r0 *1 3.63,0.56 nfet_01v8
M$12 1 8 9 15 nfet_01v8 L=150000U W=650000U AS=82875000000P AD=188500000000P
+ PS=905000U PD=1880000U
.ENDS sky130_fd_sc_hd__a2111o_1

* cell sky130_fd_sc_hd__a31o_1
* pin VGND
* pin X
* pin A3
* pin A2
* pin A1
* pin B1
* pin VPWR
* pin VPB
* pin 
.SUBCKT sky130_fd_sc_hd__a31o_1 1 2 6 7 8 9 11 12 13
* net 1 VGND
* net 2 X
* net 6 A3
* net 7 A2
* net 8 A1
* net 9 B1
* net 11 VPWR
* net 12 VPB
* device instance $1 r0 *1 0.475,1.985 pfet_01v8_hvt
M$1 11 3 2 12 pfet_01v8_hvt L=150000U W=1000000U AS=265000000000P
+ AD=172500000000P PS=2530000U PD=1345000U
* device instance $2 r0 *1 0.97,1.985 pfet_01v8_hvt
M$2 10 6 11 12 pfet_01v8_hvt L=150000U W=1000000U AS=172500000000P
+ AD=160000000000P PS=1345000U PD=1320000U
* device instance $3 r0 *1 1.44,1.985 pfet_01v8_hvt
M$3 11 7 10 12 pfet_01v8_hvt L=150000U W=1000000U AS=160000000000P
+ AD=165000000000P PS=1320000U PD=1330000U
* device instance $4 r0 *1 1.92,1.985 pfet_01v8_hvt
M$4 10 8 11 12 pfet_01v8_hvt L=150000U W=1000000U AS=165000000000P
+ AD=165000000000P PS=1330000U PD=1330000U
* device instance $5 r0 *1 2.4,1.985 pfet_01v8_hvt
M$5 3 9 10 12 pfet_01v8_hvt L=150000U W=1000000U AS=165000000000P
+ AD=320000000000P PS=1330000U PD=2640000U
* device instance $6 r0 *1 0.475,0.56 nfet_01v8
M$6 1 3 2 13 nfet_01v8 L=150000U W=650000U AS=172250000000P AD=112125000000P
+ PS=1830000U PD=995000U
* device instance $7 r0 *1 0.97,0.56 nfet_01v8
M$7 4 6 1 13 nfet_01v8 L=150000U W=650000U AS=112125000000P AD=104000000000P
+ PS=995000U PD=970000U
* device instance $8 r0 *1 1.44,0.56 nfet_01v8
M$8 5 7 4 13 nfet_01v8 L=150000U W=650000U AS=104000000000P AD=107250000000P
+ PS=970000U PD=980000U
* device instance $9 r0 *1 1.92,0.56 nfet_01v8
M$9 3 8 5 13 nfet_01v8 L=150000U W=650000U AS=107250000000P AD=107250000000P
+ PS=980000U PD=980000U
* device instance $10 r0 *1 2.4,0.56 nfet_01v8
M$10 1 9 3 13 nfet_01v8 L=150000U W=650000U AS=107250000000P AD=208000000000P
+ PS=980000U PD=1940000U
.ENDS sky130_fd_sc_hd__a31o_1

* cell sky130_fd_sc_hd__or4_1
* pin VPB
* pin A
* pin B
* pin C
* pin D
* pin X
* pin VPWR
* pin VGND
* pin 
.SUBCKT sky130_fd_sc_hd__or4_1 1 2 3 4 5 7 8 9 10
* net 1 VPB
* net 2 A
* net 3 B
* net 4 C
* net 5 D
* net 7 X
* net 8 VPWR
* net 9 VGND
* device instance $1 r0 *1 0.47,1.695 pfet_01v8_hvt
M$1 13 5 6 1 pfet_01v8_hvt L=150000U W=420000U AS=109200000000P AD=69300000000P
+ PS=1360000U PD=750000U
* device instance $2 r0 *1 0.95,1.695 pfet_01v8_hvt
M$2 12 4 13 1 pfet_01v8_hvt L=150000U W=420000U AS=69300000000P AD=44100000000P
+ PS=750000U PD=630000U
* device instance $3 r0 *1 1.31,1.695 pfet_01v8_hvt
M$3 11 3 12 1 pfet_01v8_hvt L=150000U W=420000U AS=44100000000P AD=69300000000P
+ PS=630000U PD=750000U
* device instance $4 r0 *1 1.79,1.695 pfet_01v8_hvt
M$4 8 2 11 1 pfet_01v8_hvt L=150000U W=420000U AS=69300000000P AD=148250000000P
+ PS=750000U PD=1340000U
* device instance $5 r0 *1 2.28,1.985 pfet_01v8_hvt
M$5 7 6 8 1 pfet_01v8_hvt L=150000U W=1000000U AS=148250000000P
+ AD=270000000000P PS=1340000U PD=2540000U
* device instance $6 r0 *1 0.47,0.475 nfet_01v8
M$6 6 5 9 10 nfet_01v8 L=150000U W=420000U AS=109200000000P AD=69300000000P
+ PS=1360000U PD=750000U
* device instance $7 r0 *1 0.95,0.475 nfet_01v8
M$7 9 4 6 10 nfet_01v8 L=150000U W=420000U AS=69300000000P AD=56700000000P
+ PS=750000U PD=690000U
* device instance $8 r0 *1 1.37,0.475 nfet_01v8
M$8 6 3 9 10 nfet_01v8 L=150000U W=420000U AS=56700000000P AD=56700000000P
+ PS=690000U PD=690000U
* device instance $9 r0 *1 1.79,0.475 nfet_01v8
M$9 6 2 9 10 nfet_01v8 L=150000U W=420000U AS=101875000000P AD=56700000000P
+ PS=990000U PD=690000U
* device instance $10 r0 *1 2.28,0.56 nfet_01v8
M$10 7 6 9 10 nfet_01v8 L=150000U W=650000U AS=101875000000P AD=175500000000P
+ PS=990000U PD=1840000U
.ENDS sky130_fd_sc_hd__or4_1

* cell sky130_fd_sc_hd__a221oi_2
* pin VGND
* pin C1
* pin Y
* pin B2
* pin B1
* pin A2
* pin A1
* pin VPWR
* pin VPB
* pin 