
* cell sine_cosine_generator
* pin phase_in[10]
* pin phase_in[11]
* pin phase_in[8]
* pin phase_in[9]
* pin phase_in[4]
* pin phase_in[5]
* pin phase_in[2]
* pin phase_in[1]
* pin phase_in[7]
* pin phase_in[0]
* pin phase_in[14]
* pin phase_in[15]
* pin cosine_out[12]
* pin cosine_out[15]
* pin phase_in[6]
* pin phase_in[3]
* pin cosine_out[10]
* pin cosine_out[8]
* pin cosine_out[2]
* pin cosine_out[1]
* pin cosine_out[3]
* pin cosine_out[4]
* pin cosine_out[5]
* pin phase_in[12]
* pin cosine_out[11]
* pin phase_in[13]
* pin cosine_out[6]
* pin clk
* pin cosine_out[13]
* pin sine_out[11]
* pin cosine_out[14]
* pin cosine_out[9]
* pin sine_out[10]
* pin sine_out[14]
* pin sine_out[9]
* pin enable
* pin valid_out
* pin sine_out[12]
* pin cosine_out[0]
* pin sine_out[0]
* pin cosine_out[7]
* pin sine_out[8]
* pin sine_out[2]
* pin sine_out[13]
* pin sine_out[6]
* pin sine_out[15]
* pin sine_out[7]
* pin sine_out[1]
* pin sine_out[5]
* pin sine_out[4]
* pin sine_out[3]
* pin rst_n
.SUBCKT sine_cosine_generator 1 2 3 4 5 6 7 8 9 10 11 12 13 14 15 16 59 97 104
+ 124 144 145 152 156 185 190 206 216 219 222 243 245 256 263 268 284 285 292
+ 327 328 329 330 331 332 333 334 335 336 337 338 339 340
* net 1 phase_in[10]
* net 2 phase_in[11]
* net 3 phase_in[8]
* net 4 phase_in[9]
* net 5 phase_in[4]
* net 6 phase_in[5]
* net 7 phase_in[2]
* net 8 phase_in[1]
* net 9 phase_in[7]
* net 10 phase_in[0]
* net 11 phase_in[14]
* net 12 phase_in[15]
* net 13 cosine_out[12]
* net 14 cosine_out[15]
* net 15 phase_in[6]
* net 16 phase_in[3]
* net 59 cosine_out[10]
* net 97 cosine_out[8]
* net 104 cosine_out[2]
* net 124 cosine_out[1]
* net 144 cosine_out[3]
* net 145 cosine_out[4]
* net 152 cosine_out[5]
* net 156 phase_in[12]
* net 185 cosine_out[11]
* net 190 phase_in[13]
* net 206 cosine_out[6]
* net 216 clk
* net 219 cosine_out[13]
* net 222 sine_out[11]
* net 243 cosine_out[14]
* net 245 cosine_out[9]
* net 256 sine_out[10]
* net 263 sine_out[14]
* net 268 sine_out[9]
* net 284 enable
* net 285 valid_out
* net 292 sine_out[12]
* net 327 cosine_out[0]
* net 328 sine_out[0]
* net 329 cosine_out[7]
* net 330 sine_out[8]
* net 331 sine_out[2]
* net 332 sine_out[13]
* net 333 sine_out[6]
* net 334 sine_out[15]
* net 335 sine_out[7]
* net 336 sine_out[1]
* net 337 sine_out[5]
* net 338 sine_out[4]
* net 339 sine_out[3]
* net 340 rst_n
* cell instance $3 r0 *1 4.6,2.72
X$3 31 1 21 18 31 18 sky130_fd_sc_hd__clkbuf_1
* cell instance $5 r0 *1 9.66,8.16
X$5 31 2 33 18 31 18 sky130_fd_sc_hd__clkbuf_1
* cell instance $8 r0 *1 11.04,2.72
X$8 31 3 20 18 31 18 sky130_fd_sc_hd__clkbuf_1
* cell instance $12 r0 *1 12.42,2.72
X$12 31 4 25 18 31 18 sky130_fd_sc_hd__clkbuf_1
* cell instance $16 r0 *1 8.28,2.72
X$16 31 5 23 18 31 18 sky130_fd_sc_hd__clkbuf_1
* cell instance $21 r0 *1 5.98,2.72
X$21 31 6 26 18 31 18 sky130_fd_sc_hd__clkbuf_1
* cell instance $25 r0 *1 9.66,2.72
X$25 31 7 27 18 31 18 sky130_fd_sc_hd__clkbuf_1
* cell instance $28 r0 *1 20.24,2.72
X$28 31 8 17 18 31 18 sky130_fd_sc_hd__clkbuf_1
* cell instance $31 r0 *1 21.62,2.72
X$31 31 9 24 18 31 18 sky130_fd_sc_hd__clkbuf_1
* cell instance $34 r0 *1 23,2.72
X$34 31 10 40 18 31 18 sky130_fd_sc_hd__clkbuf_1
* cell instance $37 r0 *1 24.38,2.72
X$37 18 22 11 31 31 18 sky130_fd_sc_hd__dlymetal6s2s_1
* cell instance $39 r0 *1 29.44,2.72
X$39 31 12 31 18 49 18 sky130_fd_sc_hd__buf_4
* cell instance $43 m0 *1 42.78,8.16
X$43 31 37 13 18 31 18 sky130_fd_sc_hd__clkbuf_1
* cell instance $45 r0 *1 53.36,2.72
X$45 31 46 14 18 31 18 sky130_fd_sc_hd__clkbuf_1
* cell instance $49 r0 *1 13.8,2.72
X$49 31 15 19 18 31 18 sky130_fd_sc_hd__clkbuf_1
* cell instance $54 m0 *1 11.96,8.16
X$54 31 16 29 18 31 18 sky130_fd_sc_hd__clkbuf_1
* cell instance $58 r0 *1 12.88,8.16
X$58 31 23 40 17 29 18 35 31 18 sky130_fd_sc_hd__nor4_1
* cell instance $60 r0 *1 15.64,2.72
X$60 18 20 25 19 17 31 54 31 18 sky130_fd_sc_hd__nand4_2
* cell instance $108 m0 *1 5.06,8.16
X$108 31 21 26 27 24 18 28 31 18 sky130_fd_sc_hd__nor4_1
* cell instance $109 m0 *1 7.36,8.16
X$109 18 23 26 27 29 31 48 31 18 sky130_fd_sc_hd__nand4_2
* cell instance $110 m0 *1 13.34,8.16
X$110 18 34 28 35 31 32 31 18 sky130_fd_sc_hd__nand3_4
* cell instance $111 m0 *1 19.78,8.16
X$111 18 28 30 35 34 31 31 18 sky130_fd_sc_hd__and3_1
* cell instance $112 m0 *1 22.08,8.16
X$112 31 30 18 38 31 18 sky130_fd_sc_hd__buf_2
* cell instance $136 r0 *1 11.04,8.16
X$136 31 33 21 105 39 31 18 18 sky130_fd_sc_hd__nand3_1
* cell instance $139 r0 *1 15.64,8.16
X$139 18 34 19 25 20 33 31 31 18 sky130_fd_sc_hd__nor4_2
* cell instance $141 r0 *1 20.7,8.16
X$141 18 47 22 40 24 49 31 31 18 sky130_fd_sc_hd__nand4b_2
* cell instance $144 r0 *1 33.58,8.16
X$144 18 36 37 45 42 31 31 18 sky130_fd_sc_hd__dfrtp_1
* cell instance $149 r0 *1 46,8.16
X$149 18 36 46 45 65 31 31 18 sky130_fd_sc_hd__dfrtp_1
* cell instance $169 m0 *1 11.5,13.6
X$169 18 48 55 54 39 47 31 31 18 sky130_fd_sc_hd__nor4_4
* cell instance $170 m0 *1 19.32,13.6
X$170 31 54 39 48 47 53 31 18 18 sky130_fd_sc_hd__or4_1
* cell instance $171 m0 *1 22.08,13.6
X$171 31 49 22 60 18 31 18 sky130_fd_sc_hd__nand2b_1
* cell instance $173 m0 *1 26.22,13.6
X$173 31 38 50 55 18 31 43 18 sky130_fd_sc_hd__a21o_1
* cell instance $177 m0 *1 31.74,13.6
X$177 18 41 55 50 38 31 31 18 sky130_fd_sc_hd__a21oi_4
* cell instance $180 m0 *1 41.86,13.6
X$180 31 43 52 37 57 44 18 31 18 sky130_fd_sc_hd__o22ai_1
* cell instance $182 m0 *1 47.84,13.6
X$182 31 57 46 80 18 31 18 sky130_fd_sc_hd__nor2_1
* cell instance $188 m0 *1 58.42,13.6
X$188 31 71 51 61 18 31 18 sky130_fd_sc_hd__nor2_1
* cell instance $192 m0 *1 68.08,13.6
X$192 31 51 59 18 31 18 sky130_fd_sc_hd__clkbuf_1
* cell instance $207 r0 *1 20.7,13.6
X$207 18 56 69 66 55 63 77 31 31 18 sky130_fd_sc_hd__a221oi_1
* cell instance $208 r0 *1 23.92,13.6
X$208 18 69 62 67 68 31 31 18 sky130_fd_sc_hd__mux2i_1
* cell instance $209 r0 *1 27.6,13.6
X$209 31 38 18 63 31 18 sky130_fd_sc_hd__clkbuf_4
* cell instance $210 r0 *1 30.36,13.6
X$210 31 62 67 49 18 31 70 18 sky130_fd_sc_hd__a21o_1
* cell instance $211 r0 *1 33.12,13.6
X$211 18 70 50 38 71 31 79 31 18 sky130_fd_sc_hd__nand4_2
* cell instance $212 r0 *1 37.72,13.6
X$212 31 63 72 81 18 31 18 sky130_fd_sc_hd__nand2b_1
* cell instance $214 r0 *1 40.94,13.6
X$214 31 44 58 81 18 31 42 18 sky130_fd_sc_hd__a21oi_1
* cell instance $221 r0 *1 46,13.6
X$221 31 56 64 74 80 18 31 65 18 sky130_fd_sc_hd__a31oi_1
* cell instance $223 r0 *1 50.14,13.6
X$223 31 75 64 58 18 31 76 18 sky130_fd_sc_hd__a21boi_0
* cell instance $224 r0 *1 52.9,13.6
X$224 31 78 41 84 61 18 31 75 18 sky130_fd_sc_hd__a31oi_1
* cell instance $225 r0 *1 55.2,13.6
X$225 18 36 51 45 76 31 31 18 sky130_fd_sc_hd__dfrtp_1
* cell instance $241 m0 *1 20.7,19.04
X$241 31 85 82 60 31 77 18 18 sky130_fd_sc_hd__o21ai_0
* cell instance $244 m0 *1 23.92,19.04
X$244 31 22 18 90 31 18 sky130_fd_sc_hd__buf_2
* cell instance $245 m0 *1 25.76,19.04
X$245 31 73 62 82 108 31 18 18 sky130_fd_sc_hd__nand3_1
* cell instance $251 m0 *1 30.82,19.04
X$251 31 70 63 50 72 31 89 18 18 sky130_fd_sc_hd__nand4_1
* cell instance $255 m0 *1 36.34,19.04
X$255 31 90 49 83 18 31 18 sky130_fd_sc_hd__or2_0
* cell instance $256 m0 *1 38.64,19.04
X$256 31 73 82 83 84 52 31 18 18 sky130_fd_sc_hd__o211ai_1
* cell instance $257 m0 *1 41.4,19.04
X$257 31 68 18 73 31 18 sky130_fd_sc_hd__clkbuf_4
* cell instance $259 m0 *1 45.08,19.04
X$259 31 85 117 86 31 78 18 18 sky130_fd_sc_hd__o21ai_0
* cell instance $261 m0 *1 48.76,19.04
X$261 31 87 41 71 58 18 31 18 sky130_fd_sc_hd__nor3b_1
* cell instance $268 m0 *1 61.18,19.04
X$268 18 36 88 45 95 31 31 18 sky130_fd_sc_hd__dfrtp_1
* cell instance $269 m0 *1 70.38,19.04
X$269 31 88 97 18 31 18 sky130_fd_sc_hd__clkbuf_1
* cell instance $274 r0 *1 12.42,19.04
X$274 31 105 18 98 31 18 sky130_fd_sc_hd__clkbuf_4
* cell instance $277 r0 *1 15.64,19.04
X$277 31 91 62 32 53 31 162 18 18 sky130_fd_sc_hd__a22oi_1
* cell instance $278 r0 *1 18.4,19.04
X$278 31 148 106 60 18 31 91 18 sky130_fd_sc_hd__a21oi_1
* cell instance $279 r0 *1 20.24,19.04
X$279 31 98 22 62 18 31 18 sky130_fd_sc_hd__nand2b_1
* cell instance $281 r0 *1 23,19.04
X$281 31 49 18 85 31 18 sky130_fd_sc_hd__clkbuf_4
* cell instance $283 r0 *1 26.68,19.04
X$283 31 99 108 107 31 18 18 sky130_fd_sc_hd__nand2_1
* cell instance $284 r0 *1 28.06,19.04
X$284 31 90 100 82 18 31 18 sky130_fd_sc_hd__nand2b_1
* cell instance $287 r0 *1 32.66,19.04
X$287 31 92 102 101 93 18 31 18 sky130_fd_sc_hd__nor3_1
* cell instance $288 r0 *1 34.5,19.04
X$288 31 93 38 94 31 18 64 18 sky130_fd_sc_hd__o21ai_1
* cell instance $289 r0 *1 36.34,19.04
X$289 31 49 118 94 18 31 18 sky130_fd_sc_hd__nor2_1
* cell instance $295 r0 *1 43.24,19.04
X$295 31 110 102 109 18 31 18 sky130_fd_sc_hd__nand2b_1
* cell instance $296 r0 *1 45.54,19.04
X$296 31 85 67 109 86 31 18 18 sky130_fd_sc_hd__nand3_1
* cell instance $299 r0 *1 52.9,19.04
X$299 31 79 64 116 18 31 18 sky130_fd_sc_hd__nor2b_1
* cell instance $301 r0 *1 57.04,19.04
X$301 31 107 122 116 57 103 31 95 18 18 sky130_fd_sc_hd__a311oi_1
* cell instance $302 r0 *1 60.26,19.04
X$302 31 84 88 103 18 31 18 sky130_fd_sc_hd__nor2_1
* cell instance $306 r0 *1 67.62,19.04
X$306 31 88 96 18 31 18 sky130_fd_sc_hd__clkbuf_1
* cell instance $308 r0 *1 69,19.04
X$308 31 96 104 18 31 18 sky130_fd_sc_hd__clkbuf_1
* cell instance $320 m0 *1 3.68,24.48
X$320 18 341 111 131 110 31 31 18 sky130_fd_sc_hd__ha_1
* cell instance $321 m0 *1 8.28,24.48
X$321 31 111 18 114 31 18 sky130_fd_sc_hd__clkbuf_4
* cell instance $322 m0 *1 11.04,24.48
X$322 18 50 114 121 105 119 60 31 31 18 sky130_fd_sc_hd__a2111o_4
* cell instance $324 m0 *1 19.32,24.48
X$324 31 102 110 67 68 132 31 18 18 sky130_fd_sc_hd__o211ai_1
* cell instance $325 m0 *1 22.08,24.48
X$325 31 22 119 126 31 18 18 sky130_fd_sc_hd__and2_0
* cell instance $326 m0 *1 24.38,24.48
X$326 31 90 18 102 31 18 sky130_fd_sc_hd__buf_2
* cell instance $327 m0 *1 26.22,24.48
X$327 31 92 18 68 31 18 sky130_fd_sc_hd__buf_2
* cell instance $330 m0 *1 29.44,24.48
X$330 31 106 114 113 112 120 31 18 18 sky130_fd_sc_hd__o211ai_1
* cell instance $331 m0 *1 32.2,24.48
X$331 18 72 113 102 101 120 31 31 18 sky130_fd_sc_hd__o31a_1
* cell instance $332 m0 *1 35.42,24.48
X$332 31 119 114 102 31 118 18 18 sky130_fd_sc_hd__o21ai_0
* cell instance $334 m0 *1 39.1,24.48
X$334 31 90 121 67 31 18 18 sky130_fd_sc_hd__nand2_1
* cell instance $335 m0 *1 40.48,24.48
X$335 31 112 110 115 31 117 18 18 sky130_fd_sc_hd__o21ai_0
* cell instance $336 m0 *1 42.32,24.48
X$336 31 109 115 68 18 31 125 18 sky130_fd_sc_hd__a21o_1
* cell instance $339 m0 *1 47.84,24.48
X$339 18 41 122 31 31 18 sky130_fd_sc_hd__buf_6
* cell instance $346 m0 *1 60.26,24.48
X$346 18 36 123 45 133 31 31 18 sky130_fd_sc_hd__dfrtp_1
* cell instance $347 m0 *1 69.46,24.48
X$347 31 123 124 18 31 18 sky130_fd_sc_hd__clkbuf_1
* cell instance $354 r0 *1 8.28,24.48
X$354 18 127 105 131 136 31 31 18 sky130_fd_sc_hd__ha_1
* cell instance $360 r0 *1 19.32,24.48
X$360 18 137 259 53 132 31 31 18 sky130_fd_sc_hd__and3_1
* cell instance $362 r0 *1 25.3,24.48
X$362 31 49 31 18 92 18 sky130_fd_sc_hd__inv_1
* cell instance $364 r0 *1 27.14,24.48
X$364 31 90 18 112 31 18 sky130_fd_sc_hd__buf_2
* cell instance $365 r0 *1 28.98,24.48
X$365 31 102 106 138 113 137 31 18 18 sky130_fd_sc_hd__o211ai_1
* cell instance $367 r0 *1 32.66,24.48
X$367 31 114 121 101 18 31 18 sky130_fd_sc_hd__nor2_1
* cell instance $368 r0 *1 34.04,24.48
X$368 31 49 18 113 31 18 sky130_fd_sc_hd__buf_2
* cell instance $371 r0 *1 38.64,24.48
X$371 31 112 127 115 31 18 18 sky130_fd_sc_hd__nand2_1
* cell instance $377 r0 *1 44.16,24.48
X$377 31 32 135 134 18 31 142 18 sky130_fd_sc_hd__a21oi_1
* cell instance $379 r0 *1 46.92,24.48
X$379 31 73 127 209 31 128 18 18 sky130_fd_sc_hd__o21ai_0
* cell instance $380 r0 *1 48.76,24.48
X$380 31 102 127 147 18 31 18 sky130_fd_sc_hd__nor2b_1
* cell instance $382 r0 *1 54.74,24.48
X$382 31 128 122 74 129 18 31 133 18 sky130_fd_sc_hd__a31oi_1
* cell instance $383 r0 *1 57.04,24.48
X$383 31 79 142 123 84 129 18 31 18 sky130_fd_sc_hd__o22ai_1
* cell instance $387 r0 *1 67.62,24.48
X$387 31 130 143 18 31 18 sky130_fd_sc_hd__clkbuf_1
* cell instance $389 r0 *1 69,24.48
X$389 31 143 145 18 31 18 sky130_fd_sc_hd__clkbuf_1
* cell instance $391 r0 *1 70.84,24.48
X$391 31 130 146 18 31 18 sky130_fd_sc_hd__clkbuf_1
* cell instance $400 m0 *1 6.9,29.92
X$400 18 121 110 153 31 31 18 sky130_fd_sc_hd__ha_2
* cell instance $401 m0 *1 12.42,29.92
X$401 18 343 100 131 136 31 31 18 sky130_fd_sc_hd__ha_1
* cell instance $403 m0 *1 17.94,29.92
X$403 31 121 18 148 31 18 sky130_fd_sc_hd__clkbuf_4
* cell instance $404 m0 *1 20.7,29.92
X$404 31 119 18 106 31 18 sky130_fd_sc_hd__buf_2
* cell instance $405 m0 *1 22.54,29.92
X$405 31 149 38 164 31 18 66 18 sky130_fd_sc_hd__o21ai_1
* cell instance $406 m0 *1 24.38,29.92
X$406 31 126 18 141 31 18 sky130_fd_sc_hd__buf_2
* cell instance $407 m0 *1 26.22,29.92
X$407 31 92 141 98 31 149 18 18 sky130_fd_sc_hd__o21a_1
* cell instance $409 m0 *1 29.44,29.92
X$409 31 90 121 138 18 31 18 sky130_fd_sc_hd__nand2b_1
* cell instance $410 m0 *1 31.74,29.92
X$410 18 113 98 138 139 150 31 31 18 sky130_fd_sc_hd__o31ai_2
* cell instance $411 m0 *1 36.34,29.92
X$411 31 49 90 119 150 31 18 18 sky130_fd_sc_hd__or3_1
* cell instance $413 m0 *1 39.56,29.92
X$413 31 90 121 140 18 31 18 sky130_fd_sc_hd__nor2b_1
* cell instance $414 m0 *1 41.86,29.92
X$414 31 127 90 155 18 31 18 sky130_fd_sc_hd__or2_1
* cell instance $416 m0 *1 44.62,29.92
X$416 18 134 140 141 85 31 31 18 sky130_fd_sc_hd__mux2i_1
* cell instance $418 m0 *1 48.76,29.92
X$418 31 68 141 147 151 31 18 154 18 sky130_fd_sc_hd__o31ai_1
* cell instance $422 m0 *1 54.74,29.92
X$422 31 57 122 154 163 31 18 18 sky130_fd_sc_hd__nand3_1
* cell instance $429 m0 *1 69.46,29.92
X$429 31 130 152 18 31 18 sky130_fd_sc_hd__clkbuf_1
* cell instance $430 m0 *1 70.84,29.92
X$430 31 146 144 18 31 18 sky130_fd_sc_hd__clkbuf_1
* cell instance $433 r0 *1 5.98,29.92
X$433 31 156 153 18 31 18 sky130_fd_sc_hd__clkbuf_1
* cell instance $435 r0 *1 7.82,29.92
X$435 18 344 119 153 136 31 31 18 sky130_fd_sc_hd__ha_1
* cell instance $444 r0 *1 17.02,29.92
X$444 31 162 66 179 18 31 178 18 sky130_fd_sc_hd__a21oi_1
* cell instance $446 r0 *1 19.32,29.92
X$446 31 114 102 98 18 31 157 18 sky130_fd_sc_hd__a21oi_1
* cell instance $448 r0 *1 22.08,29.92
X$448 31 68 159 157 31 164 18 18 sky130_fd_sc_hd__o21ai_0
* cell instance $449 r0 *1 23.92,29.92
X$449 31 102 18 168 31 18 sky130_fd_sc_hd__buf_2
* cell instance $450 r0 *1 25.76,29.92
X$450 31 112 114 158 31 18 18 sky130_fd_sc_hd__nand2_1
* cell instance $453 r0 *1 32.66,29.92
X$453 31 119 98 172 18 31 18 sky130_fd_sc_hd__nor2_1
* cell instance $454 r0 *1 34.04,29.92
X$454 31 114 31 18 135 18 sky130_fd_sc_hd__clkinvlp_4
* cell instance $457 r0 *1 39.56,29.92
X$457 18 159 90 148 31 31 18 sky130_fd_sc_hd__nand2b_2
* cell instance $462 r0 *1 43.24,29.92
X$462 31 68 140 141 196 18 31 18 sky130_fd_sc_hd__nor3_1
* cell instance $464 r0 *1 45.54,29.92
X$464 31 85 159 158 180 31 18 18 sky130_fd_sc_hd__nand3_1
* cell instance $465 r0 *1 47.38,29.92
X$465 18 160 68 141 166 165 63 31 31 18 sky130_fd_sc_hd__o311a_1
* cell instance $466 r0 *1 51.06,29.92
X$466 31 68 159 158 165 31 18 18 sky130_fd_sc_hd__nand3_1
* cell instance $469 r0 *1 55.66,29.92
X$469 18 161 163 79 160 130 84 31 31 18 sky130_fd_sc_hd__o221a_1
* cell instance $470 r0 *1 59.8,29.92
X$470 18 36 130 45 161 31 31 18 sky130_fd_sc_hd__dfrtp_1
* cell instance $482 m0 *1 6.44,35.36
X$482 18 342 169 131 110 31 31 18 sky130_fd_sc_hd__ha_1
* cell instance $483 m0 *1 11.04,35.36
X$483 31 153 31 18 167 18 sky130_fd_sc_hd__clkbuf_2
* cell instance $484 m0 *1 12.88,35.36
X$484 31 167 31 18 131 18 sky130_fd_sc_hd__inv_1
* cell instance $485 m0 *1 14.26,35.36
X$485 31 168 167 170 31 18 18 sky130_fd_sc_hd__nand2_1
* cell instance $487 m0 *1 16.1,35.36
X$487 31 169 168 170 31 179 18 18 sky130_fd_sc_hd__o21ai_0
* cell instance $488 m0 *1 17.94,35.36
X$488 31 167 168 210 31 18 18 sky130_fd_sc_hd__xnor2_1
* cell instance $489 m0 *1 21.16,35.36
X$489 18 186 169 168 158 68 31 31 18 sky130_fd_sc_hd__o211a_1
* cell instance $492 m0 *1 26.22,35.36
X$492 31 168 100 171 31 99 18 18 sky130_fd_sc_hd__o21ai_0
* cell instance $497 m0 *1 33.58,35.36
X$497 31 113 172 173 31 187 18 18 sky130_fd_sc_hd__o21ai_0
* cell instance $498 m0 *1 35.42,35.36
X$498 31 113 148 173 31 18 18 sky130_fd_sc_hd__nand2_1
* cell instance $500 m0 *1 38.64,35.36
X$500 31 83 172 188 18 31 18 sky130_fd_sc_hd__or2_0
* cell instance $502 m0 *1 41.4,35.36
X$502 31 45 31 18 18 sky130_fd_sc_hd__clkinv_2
* cell instance $503 m0 *1 43.24,35.36
X$503 18 174 45 31 31 18 sky130_fd_sc_hd__clkbuf_8
* cell instance $505 m0 *1 48.76,35.36
X$505 18 183 113 141 166 180 63 31 31 18 sky130_fd_sc_hd__o311a_1
* cell instance $506 m0 *1 52.44,35.36
X$506 31 41 87 160 177 18 31 18 sky130_fd_sc_hd__nor3_1
* cell instance $510 m0 *1 57.04,35.36
X$510 31 194 122 74 175 18 31 184 18 sky130_fd_sc_hd__a31oi_1
* cell instance $511 m0 *1 59.34,35.36
X$511 31 183 79 176 84 175 18 31 18 sky130_fd_sc_hd__o22ai_1
* cell instance $513 m0 *1 62.1,35.36
X$513 18 36 176 45 184 31 31 18 sky130_fd_sc_hd__dfrtp_1
* cell instance $517 r0 *1 3.68,35.36
X$517 31 190 18 110 31 18 sky130_fd_sc_hd__buf_2
* cell instance $520 r0 *1 9.66,35.36
X$520 31 110 31 18 136 18 sky130_fd_sc_hd__inv_1
* cell instance $523 r0 *1 13.8,35.36
X$523 31 168 136 195 31 18 18 sky130_fd_sc_hd__nand2_1
* cell instance $528 r0 *1 15.64,35.36
X$528 31 167 136 171 199 18 182 31 18 sky130_fd_sc_hd__a211oi_1
* cell instance $529 r0 *1 18.4,35.36
X$529 31 200 114 191 31 18 18 sky130_fd_sc_hd__nand2_1
* cell instance $530 r0 *1 19.78,35.36
X$530 31 191 170 181 186 18 31 192 18 sky130_fd_sc_hd__a31oi_1
* cell instance $532 r0 *1 23,35.36
X$532 31 181 201 158 193 31 18 18 sky130_fd_sc_hd__nand3_1
* cell instance $533 r0 *1 24.84,35.36
X$533 31 181 193 210 31 18 194 18 sky130_fd_sc_hd__o21ai_1
* cell instance $537 r0 *1 33.12,35.36
X$537 31 85 135 159 18 31 202 18 sky130_fd_sc_hd__a21oi_1
* cell instance $540 r0 *1 39.56,35.36
X$540 31 217 32 188 31 87 18 18 sky130_fd_sc_hd__a21oi_2
* cell instance $545 r0 *1 43.24,35.36
X$545 31 112 110 189 31 18 18 sky130_fd_sc_hd__nand2_1
* cell instance $547 r0 *1 46.46,35.36
X$547 31 73 155 189 151 31 18 18 sky130_fd_sc_hd__nand3_1
* cell instance $548 r0 *1 48.3,35.36
X$548 31 43 192 57 31 208 18 18 sky130_fd_sc_hd__o21ai_0
* cell instance $549 r0 *1 50.14,35.36
X$549 31 102 135 166 18 31 18 sky130_fd_sc_hd__nor2_1
* cell instance $551 r0 *1 52.44,35.36
X$551 31 41 87 183 198 18 31 18 sky130_fd_sc_hd__nor3_1
* cell instance $552 r0 *1 54.28,35.36
X$552 18 36 204 45 197 31 31 18 sky130_fd_sc_hd__dfrtp_1
* cell instance $561 r0 *1 70.84,35.36
X$561 31 176 185 18 31 18 sky130_fd_sc_hd__clkbuf_1
* cell instance $567 m0 *1 13.8,40.8
X$567 31 112 167 199 18 31 18 sky130_fd_sc_hd__nor2_1
* cell instance $568 m0 *1 15.18,40.8
X$568 31 167 110 171 199 18 215 31 18 sky130_fd_sc_hd__a211oi_1
* cell instance $570 m0 *1 18.86,40.8
X$570 31 200 167 201 31 18 18 sky130_fd_sc_hd__nand2_1
* cell instance $571 m0 *1 20.24,40.8
X$571 31 112 31 18 200 18 sky130_fd_sc_hd__inv_1
* cell instance $572 m0 *1 21.62,40.8
X$572 31 169 201 200 31 18 211 18 sky130_fd_sc_hd__o21ai_1
* cell instance $578 m0 *1 30.82,40.8
X$578 31 106 112 98 31 18 213 18 sky130_fd_sc_hd__o21ai_1
* cell instance $580 m0 *1 33.12,40.8
X$580 31 202 168 187 18 31 212 18 sky130_fd_sc_hd__a21oi_1
* cell instance $581 m0 *1 34.96,40.8
X$581 18 216 174 31 31 18 sky130_fd_sc_hd__clkbuf_8
* cell instance $583 m0 *1 40.48,40.8
X$583 31 203 195 171 18 31 209 18 sky130_fd_sc_hd__a21o_1
* cell instance $584 m0 *1 43.24,40.8
X$584 31 112 148 189 31 221 18 18 sky130_fd_sc_hd__o21ai_0
* cell instance $587 m0 *1 46.46,40.8
X$587 31 189 159 181 182 18 31 229 18 sky130_fd_sc_hd__a31oi_1
* cell instance $590 m0 *1 54.28,40.8
X$590 31 177 208 207 220 197 18 31 18 sky130_fd_sc_hd__o22ai_1
* cell instance $593 m0 *1 60.72,40.8
X$593 31 204 31 18 207 18 sky130_fd_sc_hd__inv_1
* cell instance $597 m0 *1 68.08,40.8
X$597 31 205 206 18 31 18 sky130_fd_sc_hd__clkbuf_1
* cell instance $598 m0 *1 69.46,40.8
X$598 31 204 205 18 31 18 sky130_fd_sc_hd__clkbuf_1
* cell instance $599 m0 *1 70.84,40.8
X$599 31 204 219 18 31 18 sky130_fd_sc_hd__clkbuf_1
* cell instance $602 r0 *1 4.14,40.8
X$602 31 214 222 18 31 18 sky130_fd_sc_hd__clkbuf_1
* cell instance $604 r0 *1 5.98,40.8
X$604 18 36 214 266 244 31 31 18 sky130_fd_sc_hd__dfrtp_1
* cell instance $609 r0 *1 17.02,40.8
X$609 31 85 167 223 31 18 18 sky130_fd_sc_hd__nand2_1
* cell instance $610 r0 *1 18.4,40.8
X$610 18 230 223 231 224 31 31 18 sky130_fd_sc_hd__mux2i_1
* cell instance $611 r0 *1 22.08,40.8
X$611 31 200 106 203 31 18 18 sky130_fd_sc_hd__nand2_1
* cell instance $613 r0 *1 23.92,40.8
X$613 31 38 50 224 31 18 18 sky130_fd_sc_hd__and2_1
* cell instance $614 r0 *1 26.22,40.8
X$614 31 43 211 233 220 225 31 18 18 sky130_fd_sc_hd__o211ai_1
* cell instance $615 r0 *1 28.98,40.8
X$615 31 247 213 63 98 114 31 233 18 18 sky130_fd_sc_hd__o2111ai_1
* cell instance $616 r0 *1 32.2,40.8
X$616 31 73 101 213 18 31 235 18 sky130_fd_sc_hd__a21oi_1
* cell instance $618 r0 *1 34.96,40.8
X$618 31 85 114 234 31 18 18 sky130_fd_sc_hd__nand2_1
* cell instance $620 r0 *1 36.8,40.8
X$620 31 196 139 234 31 226 18 18 sky130_fd_sc_hd__o21ai_0
* cell instance $621 r0 *1 38.64,40.8
X$621 31 113 112 148 217 31 18 18 sky130_fd_sc_hd__nand3_1
* cell instance $622 r0 *1 40.48,40.8
X$622 31 171 159 213 18 31 232 18 sky130_fd_sc_hd__a21oi_1
* cell instance $626 r0 *1 43.24,40.8
X$626 31 155 195 181 218 18 31 261 18 sky130_fd_sc_hd__a31oi_1
* cell instance $628 r0 *1 46,40.8
X$628 31 171 221 218 18 31 18 sky130_fd_sc_hd__nor2_1
* cell instance $629 r0 *1 47.38,40.8
X$629 31 43 229 57 31 246 18 18 sky130_fd_sc_hd__o21ai_0
* cell instance $652 m0 *1 11.96,46.24
X$652 18 244 55 230 236 220 214 31 31 18 sky130_fd_sc_hd__o32a_1
* cell instance $654 m0 *1 16.1,46.24
X$654 31 171 157 71 31 236 18 18 sky130_fd_sc_hd__o21ai_0
* cell instance $655 m0 *1 17.94,46.24
X$655 31 106 148 98 63 31 18 286 18 sky130_fd_sc_hd__o31ai_1
* cell instance $658 m0 *1 23.46,46.24
X$658 18 252 115 203 181 215 31 31 18 sky130_fd_sc_hd__a31o_1
* cell instance $660 m0 *1 27.14,46.24
X$660 31 148 85 141 31 18 231 18 sky130_fd_sc_hd__o21ai_1
* cell instance $662 m0 *1 29.44,46.24
X$662 31 148 73 106 18 31 247 18 sky130_fd_sc_hd__a21oi_1
* cell instance $663 m0 *1 31.28,46.24
X$663 31 55 63 235 18 31 297 18 sky130_fd_sc_hd__a21oi_1
* cell instance $664 m0 *1 33.12,46.24
X$664 31 168 106 115 31 239 18 18 sky130_fd_sc_hd__o21ai_0
* cell instance $665 m0 *1 34.96,46.24
X$665 31 50 71 63 234 31 237 18 18 sky130_fd_sc_hd__nand4_1
* cell instance $667 m0 *1 38.18,46.24
X$667 31 232 237 217 238 18 31 18 sky130_fd_sc_hd__nor3b_1
* cell instance $669 m0 *1 41.4,46.24
X$669 31 171 239 125 31 253 18 18 sky130_fd_sc_hd__o21ai_0
* cell instance $670 m0 *1 43.24,46.24
X$670 31 41 253 63 226 31 227 18 18 sky130_fd_sc_hd__a22oi_1
* cell instance $672 m0 *1 46.46,46.24
X$672 31 155 141 265 18 31 18 sky130_fd_sc_hd__nand2b_1
* cell instance $675 m0 *1 54.28,46.24
X$675 31 198 246 228 220 240 18 31 18 sky130_fd_sc_hd__o22ai_1
* cell instance $677 m0 *1 57.04,46.24
X$677 18 36 241 45 240 31 31 18 sky130_fd_sc_hd__dfrtp_1
* cell instance $678 m0 *1 66.24,46.24
X$678 31 241 31 18 228 18 sky130_fd_sc_hd__inv_1
* cell instance $679 m0 *1 67.62,46.24
X$679 31 242 245 18 31 18 sky130_fd_sc_hd__clkbuf_1
* cell instance $680 m0 *1 69,46.24
X$680 31 241 242 18 31 18 sky130_fd_sc_hd__clkbuf_1
* cell instance $682 m0 *1 70.84,46.24
X$682 31 241 243 18 31 18 sky130_fd_sc_hd__clkbuf_1
* cell instance $692 r0 *1 18.4,46.24
X$692 31 200 100 257 31 18 18 sky130_fd_sc_hd__nand2_1
* cell instance $693 r0 *1 19.78,46.24
X$693 31 106 148 258 18 31 18 sky130_fd_sc_hd__nor2_1
* cell instance $694 r0 *1 21.16,46.24
X$694 18 275 259 212 224 31 31 18 sky130_fd_sc_hd__mux2i_1
* cell instance $695 r0 *1 24.84,46.24
X$695 31 98 168 73 248 18 31 260 18 sky130_fd_sc_hd__a31oi_1
* cell instance $696 r0 *1 27.14,46.24
X$696 31 73 100 71 31 248 18 18 sky130_fd_sc_hd__o21ai_0
* cell instance $698 r0 *1 29.9,46.24
X$698 31 113 106 148 249 18 31 18 sky130_fd_sc_hd__nor3_1
* cell instance $699 r0 *1 31.74,46.24
X$699 18 254 171 299 32 249 135 31 31 18 sky130_fd_sc_hd__a221o_1
* cell instance $700 r0 *1 35.42,46.24
X$700 31 168 98 254 31 18 18 sky130_fd_sc_hd__nand2_1
* cell instance $701 r0 *1 36.8,46.24
X$701 31 196 139 135 31 262 18 18 sky130_fd_sc_hd__o21ai_0
* cell instance $704 r0 *1 40.94,46.24
X$704 31 85 18 181 31 18 sky130_fd_sc_hd__buf_2
* cell instance $709 r0 *1 44.62,46.24
X$709 31 113 18 171 31 18 sky130_fd_sc_hd__buf_2
* cell instance $710 r0 *1 46.46,46.24
X$710 31 261 122 238 57 255 31 250 18 18 sky130_fd_sc_hd__a311oi_1
* cell instance $714 r0 *1 52.9,46.24
X$714 18 36 251 45 250 31 31 18 sky130_fd_sc_hd__dfrtp_1
* cell instance $715 r0 *1 62.1,46.24
X$715 31 84 251 255 18 31 18 sky130_fd_sc_hd__nor2_1
* cell instance $718 r0 *1 65.78,46.24
X$718 31 251 256 18 31 18 sky130_fd_sc_hd__clkbuf_1
* cell instance $732 m0 *1 1.38,51.68
X$732 31 264 263 18 31 18 sky130_fd_sc_hd__clkbuf_1
* cell instance $734 m0 *1 3.22,51.68
X$734 31 264 271 18 31 18 sky130_fd_sc_hd__clkbuf_1
* cell instance $738 m0 *1 9.66,51.68
X$738 18 272 275 264 71 31 31 18 sky130_fd_sc_hd__mux2_1
* cell instance $740 m0 *1 17.48,51.68
X$740 31 32 157 258 18 31 274 18 sky130_fd_sc_hd__a21oi_1
* cell instance $745 m0 *1 26.22,51.68
X$745 31 224 181 257 276 18 31 18 sky130_fd_sc_hd__nand3b_1
* cell instance $747 m0 *1 29.44,51.68
X$747 31 181 254 231 31 288 18 18 sky130_fd_sc_hd__o21ai_0
* cell instance $749 m0 *1 32.2,51.68
X$749 18 174 266 31 31 18 sky130_fd_sc_hd__clkbuf_8
* cell instance $750 m0 *1 37.26,51.68
X$750 31 224 262 267 31 18 18 sky130_fd_sc_hd__nand2_1
* cell instance $751 m0 *1 38.64,51.68
X$751 31 181 135 279 31 18 18 sky130_fd_sc_hd__nand2_1
* cell instance $754 m0 *1 41.4,51.68
X$754 31 139 135 32 196 18 278 31 18 sky130_fd_sc_hd__a211oi_1
* cell instance $755 m0 *1 44.16,51.68
X$755 31 196 73 265 18 31 269 18 sky130_fd_sc_hd__a21oi_1
* cell instance $757 m0 *1 46.46,51.68
X$757 31 171 265 125 31 277 18 18 sky130_fd_sc_hd__o21ai_0
* cell instance $761 m0 *1 51.52,51.68
X$761 31 71 18 220 31 18 sky130_fd_sc_hd__clkbuf_4
* cell instance $763 m0 *1 54.74,51.68
X$763 31 71 18 57 31 18 sky130_fd_sc_hd__buf_2
* cell instance $766 m0 *1 57.5,51.68
X$766 31 71 18 84 31 18 sky130_fd_sc_hd__clkbuf_4
* cell instance $767 m0 *1 60.26,51.68
X$767 31 273 18 71 31 18 sky130_fd_sc_hd__clkbuf_4
* cell instance $768 m0 *1 63.02,51.68
X$768 18 36 270 266 273 31 31 18 sky130_fd_sc_hd__dfrtp_1
* cell instance $770 r0 *1 1.84,51.68
X$770 18 36 264 266 272 31 31 18 sky130_fd_sc_hd__dfrtp_1
* cell instance $777 r0 *1 17.48,51.68
X$777 31 274 257 286 18 31 306 18 sky130_fd_sc_hd__a21oi_1
* cell instance $781 r0 *1 25.76,51.68
X$781 31 280 122 260 18 31 287 18 sky130_fd_sc_hd__a21oi_1
* cell instance $784 r0 *1 29.9,51.68
X$784 31 237 288 289 84 280 18 31 18 sky130_fd_sc_hd__o22ai_1
* cell instance $788 r0 *1 35.42,51.68
X$788 31 181 211 279 122 298 31 18 18 sky130_fd_sc_hd__o211ai_1
* cell instance $794 r0 *1 43.24,51.68
X$794 31 278 122 269 18 31 291 18 sky130_fd_sc_hd__a21oi_1
* cell instance $796 r0 *1 46.92,51.68
X$796 31 122 277 290 31 18 18 sky130_fd_sc_hd__nand2_1
* cell instance $799 r0 *1 50.6,51.68
X$799 31 84 18 74 31 18 sky130_fd_sc_hd__clkbuf_4
* cell instance $805 r0 *1 65.78,51.68
X$805 31 284 273 18 31 18 sky130_fd_sc_hd__clkbuf_1
* cell instance $812 r0 *1 70.84,51.68
X$812 31 270 285 18 31 18 sky130_fd_sc_hd__clkbuf_1
* cell instance $813 m0 *1 1.38,57.12
X$813 31 271 268 18 31 18 sky130_fd_sc_hd__clkbuf_1
* cell instance $821 m0 *1 23,57.12
X$821 31 73 220 296 31 18 18 sky130_fd_sc_hd__nand2_1
* cell instance $823 m0 *1 24.84,57.12
X$823 31 252 122 74 281 18 31 311 18 sky130_fd_sc_hd__a31oi_1
* cell instance $827 m0 *1 30.36,57.12
X$827 18 281 315 89 84 31 31 18 sky130_fd_sc_hd__mux2i_1
* cell instance $829 m0 *1 35.88,57.12
X$829 31 299 298 74 282 18 31 300 18 sky130_fd_sc_hd__a31oi_1
* cell instance $833 m0 *1 41.4,57.12
X$833 31 57 294 282 18 31 18 sky130_fd_sc_hd__nor2_1
* cell instance $838 m0 *1 48.76,57.12
X$838 31 290 267 74 283 18 31 309 18 sky130_fd_sc_hd__a31oi_1
* cell instance $840 m0 *1 51.98,57.12
X$840 31 57 295 283 18 31 18 sky130_fd_sc_hd__nor2_1
* cell instance $852 r0 *1 3.22,57.12
X$852 31 293 292 18 31 18 sky130_fd_sc_hd__clkbuf_1
* cell instance $855 r0 *1 5.98,57.12
X$855 18 36 293 266 301 31 31 18 sky130_fd_sc_hd__dfrtp_1
* cell instance $858 r0 *1 15.64,57.12
X$858 31 293 31 18 305 18 sky130_fd_sc_hd__inv_1
* cell instance $860 r0 *1 17.48,57.12
X$860 31 306 296 305 220 301 18 31 18 sky130_fd_sc_hd__o22ai_1
* cell instance $863 r0 *1 21.16,57.12
X$863 18 36 289 266 287 31 31 18 sky130_fd_sc_hd__dfrtp_1
* cell instance $865 r0 *1 31.28,57.12
X$865 31 276 297 74 307 18 31 308 18 sky130_fd_sc_hd__a31oi_1
* cell instance $866 r0 *1 33.58,57.12
X$866 18 36 294 266 300 31 31 18 sky130_fd_sc_hd__dfrtp_1
* cell instance $872 r0 *1 48.3,57.12
X$872 18 36 295 266 309 31 31 18 sky130_fd_sc_hd__dfrtp_1
* cell instance $899 m0 *1 41.86,62.56
X$899 31 57 302 307 18 31 18 sky130_fd_sc_hd__nor2_1
* cell instance $903 m0 *1 51.52,62.56
X$903 31 303 74 227 18 31 312 18 sky130_fd_sc_hd__a21oi_1
* cell instance $906 m0 *1 54.74,62.56
X$906 31 220 304 303 18 31 18 sky130_fd_sc_hd__nor2_1
* cell instance $918 r0 *1 5.98,62.56
X$918 18 36 317 266 310 31 31 18 sky130_fd_sc_hd__dfrtp_1
* cell instance $922 r0 *1 15.64,62.56
X$922 31 318 74 178 18 31 310 18 sky130_fd_sc_hd__a21oi_1
* cell instance $926 r0 *1 23.92,62.56
X$926 18 36 315 266 311 31 31 18 sky130_fd_sc_hd__dfrtp_1
* cell instance $929 r0 *1 40.48,62.56
X$929 31 294 323 18 31 18 sky130_fd_sc_hd__clkbuf_1
* cell instance $934 r0 *1 43.24,62.56
X$934 31 313 74 291 18 31 319 18 sky130_fd_sc_hd__a21oi_1
* cell instance $938 r0 *1 48.3,62.56
X$938 31 220 316 313 18 31 18 sky130_fd_sc_hd__nor2_1
* cell instance $940 r0 *1 50.14,62.56