* CDL Netlist generated by OpenROAD

*.BUSDELIMITER [

.SUBCKT ibex_core alert_major_o alert_minor_o boot_addr_i[0]
+ boot_addr_i[10] boot_addr_i[11] boot_addr_i[12] boot_addr_i[13]
+ boot_addr_i[14] boot_addr_i[15] boot_addr_i[16] boot_addr_i[17]
+ boot_addr_i[18] boot_addr_i[19] boot_addr_i[1] boot_addr_i[20]
+ boot_addr_i[21] boot_addr_i[22] boot_addr_i[23] boot_addr_i[24]
+ boot_addr_i[25] boot_addr_i[26] boot_addr_i[27] boot_addr_i[28]
+ boot_addr_i[29] boot_addr_i[2] boot_addr_i[30] boot_addr_i[31]
+ boot_addr_i[3] boot_addr_i[4] boot_addr_i[5] boot_addr_i[6]
+ boot_addr_i[7] boot_addr_i[8] boot_addr_i[9] clk_i core_sleep_o
+ data_addr_o[0] data_addr_o[10] data_addr_o[11] data_addr_o[12]
+ data_addr_o[13] data_addr_o[14] data_addr_o[15] data_addr_o[16]
+ data_addr_o[17] data_addr_o[18] data_addr_o[19] data_addr_o[1]
+ data_addr_o[20] data_addr_o[21] data_addr_o[22] data_addr_o[23]
+ data_addr_o[24] data_addr_o[25] data_addr_o[26] data_addr_o[27]
+ data_addr_o[28] data_addr_o[29] data_addr_o[2] data_addr_o[30]
+ data_addr_o[31] data_addr_o[3] data_addr_o[4] data_addr_o[5]
+ data_addr_o[6] data_addr_o[7] data_addr_o[8] data_addr_o[9]
+ data_be_o[0] data_be_o[1] data_be_o[2] data_be_o[3] data_err_i
+ data_gnt_i data_rdata_i[0] data_rdata_i[10] data_rdata_i[11]
+ data_rdata_i[12] data_rdata_i[13] data_rdata_i[14] data_rdata_i[15]
+ data_rdata_i[16] data_rdata_i[17] data_rdata_i[18] data_rdata_i[19]
+ data_rdata_i[1] data_rdata_i[20] data_rdata_i[21] data_rdata_i[22]
+ data_rdata_i[23] data_rdata_i[24] data_rdata_i[25] data_rdata_i[26]
+ data_rdata_i[27] data_rdata_i[28] data_rdata_i[29] data_rdata_i[2]
+ data_rdata_i[30] data_rdata_i[31] data_rdata_i[3] data_rdata_i[4]
+ data_rdata_i[5] data_rdata_i[6] data_rdata_i[7] data_rdata_i[8]
+ data_rdata_i[9] data_req_o data_rvalid_i data_wdata_o[0] data_wdata_o[10]
+ data_wdata_o[11] data_wdata_o[12] data_wdata_o[13] data_wdata_o[14]
+ data_wdata_o[15] data_wdata_o[16] data_wdata_o[17] data_wdata_o[18]
+ data_wdata_o[19] data_wdata_o[1] data_wdata_o[20] data_wdata_o[21]
+ data_wdata_o[22] data_wdata_o[23] data_wdata_o[24] data_wdata_o[25]
+ data_wdata_o[26] data_wdata_o[27] data_wdata_o[28] data_wdata_o[29]
+ data_wdata_o[2] data_wdata_o[30] data_wdata_o[31] data_wdata_o[3]
+ data_wdata_o[4] data_wdata_o[5] data_wdata_o[6] data_wdata_o[7]
+ data_wdata_o[8] data_wdata_o[9] data_we_o debug_req_i fetch_enable_i
+ hart_id_i[0] hart_id_i[10] hart_id_i[11] hart_id_i[12] hart_id_i[13]
+ hart_id_i[14] hart_id_i[15] hart_id_i[16] hart_id_i[17] hart_id_i[18]
+ hart_id_i[19] hart_id_i[1] hart_id_i[20] hart_id_i[21] hart_id_i[22]
+ hart_id_i[23] hart_id_i[24] hart_id_i[25] hart_id_i[26] hart_id_i[27]
+ hart_id_i[28] hart_id_i[29] hart_id_i[2] hart_id_i[30] hart_id_i[31]
+ hart_id_i[3] hart_id_i[4] hart_id_i[5] hart_id_i[6] hart_id_i[7]
+ hart_id_i[8] hart_id_i[9] instr_addr_o[0] instr_addr_o[10]
+ instr_addr_o[11] instr_addr_o[12] instr_addr_o[13] instr_addr_o[14]
+ instr_addr_o[15] instr_addr_o[16] instr_addr_o[17] instr_addr_o[18]
+ instr_addr_o[19] instr_addr_o[1] instr_addr_o[20] instr_addr_o[21]
+ instr_addr_o[22] instr_addr_o[23] instr_addr_o[24] instr_addr_o[25]
+ instr_addr_o[26] instr_addr_o[27] instr_addr_o[28] instr_addr_o[29]
+ instr_addr_o[2] instr_addr_o[30] instr_addr_o[31] instr_addr_o[3]
+ instr_addr_o[4] instr_addr_o[5] instr_addr_o[6] instr_addr_o[7]
+ instr_addr_o[8] instr_addr_o[9] instr_err_i instr_gnt_i instr_rdata_i[0]
+ instr_rdata_i[10] instr_rdata_i[11] instr_rdata_i[12] instr_rdata_i[13]
+ instr_rdata_i[14] instr_rdata_i[15] instr_rdata_i[16] instr_rdata_i[17]
+ instr_rdata_i[18] instr_rdata_i[19] instr_rdata_i[1] instr_rdata_i[20]
+ instr_rdata_i[21] instr_rdata_i[22] instr_rdata_i[23] instr_rdata_i[24]
+ instr_rdata_i[25] instr_rdata_i[26] instr_rdata_i[27] instr_rdata_i[28]
+ instr_rdata_i[29] instr_rdata_i[2] instr_rdata_i[30] instr_rdata_i[31]
+ instr_rdata_i[3] instr_rdata_i[4] instr_rdata_i[5] instr_rdata_i[6]
+ instr_rdata_i[7] instr_rdata_i[8] instr_rdata_i[9] instr_req_o
+ instr_rvalid_i irq_external_i irq_fast_i[0] irq_fast_i[10]
+ irq_fast_i[11] irq_fast_i[12] irq_fast_i[13] irq_fast_i[14]
+ irq_fast_i[1] irq_fast_i[2] irq_fast_i[3] irq_fast_i[4] irq_fast_i[5]
+ irq_fast_i[6] irq_fast_i[7] irq_fast_i[8] irq_fast_i[9] irq_nm_i
+ irq_software_i irq_timer_i rst_ni test_en_i VSS VDD
X_11641_ load_store_unit_i.handle_misaligned_q _01354_ VDD
+ VSS gf180mcu_fd_sc_mcu9t5v0__clkinv_2
Xplace2010 net2193 net2009 VDD VSS gf180mcu_fd_sc_mcu9t5v0__buf_4
Xplace2011 net2008 net2010 VDD VSS gf180mcu_fd_sc_mcu9t5v0__buf_12
Xplace2012 net2008 net2011 VDD VSS gf180mcu_fd_sc_mcu9t5v0__buf_4
Xplace2013 net2008 net2012 VDD VSS gf180mcu_fd_sc_mcu9t5v0__buf_4
Xplace2014 net2008 net2013 VDD VSS gf180mcu_fd_sc_mcu9t5v0__buf_4
Xplace2015 net2005 net2014 VDD VSS gf180mcu_fd_sc_mcu9t5v0__buf_8
X_11648_ gen_regfile_ff.register_file_i.rf_reg\[908\] gen_regfile_ff.register_file_i.rf_reg\[940\]
+ gen_regfile_ff.register_file_i.rf_reg\[972\] gen_regfile_ff.register_file_i.rf_reg\[1004\]
+ net2001 net1968 _07516_ VDD VSS gf180mcu_fd_sc_mcu9t5v0__mux4_2
X_11649_ gen_regfile_ff.register_file_i.rf_reg\[780\] gen_regfile_ff.register_file_i.rf_reg\[812\]
+ gen_regfile_ff.register_file_i.rf_reg\[844\] gen_regfile_ff.register_file_i.rf_reg\[876\]
+ net2001 net1968 _07517_ VDD VSS gf180mcu_fd_sc_mcu9t5v0__mux4_2
X_11650_ gen_regfile_ff.register_file_i.raddr_a_i\[2\] _07518_
+ VDD VSS gf180mcu_fd_sc_mcu9t5v0__clkinv_8
Xplace1739 _08034_ net1738 VDD VSS gf180mcu_fd_sc_mcu9t5v0__buf_16
Xplace1738 _08191_ net1737 VDD VSS gf180mcu_fd_sc_mcu9t5v0__buf_4
X_11653_ _07516_ _07517_ net1884 _07521_ VDD VSS gf180mcu_fd_sc_mcu9t5v0__mux2_2
Xplace2016 net2005 net2015 VDD VSS gf180mcu_fd_sc_mcu9t5v0__buf_16
X_11655_ net1958 net1959 _07523_ VDD VSS gf180mcu_fd_sc_mcu9t5v0__nand2_2
Xplace2017 net2015 net2016 VDD VSS gf180mcu_fd_sc_mcu9t5v0__buf_12
Xplace2018 net2005 net2017 VDD VSS gf180mcu_fd_sc_mcu9t5v0__buf_4
Xplace1737 _08448_ net1736 VDD VSS gf180mcu_fd_sc_mcu9t5v0__clkbuf_8
X_11659_ gen_regfile_ff.register_file_i.rf_reg\[396\] gen_regfile_ff.register_file_i.rf_reg\[428\]
+ gen_regfile_ff.register_file_i.rf_reg\[460\] gen_regfile_ff.register_file_i.rf_reg\[492\]
+ net2001 net1968 _07527_ VDD VSS gf180mcu_fd_sc_mcu9t5v0__mux4_2
X_11660_ gen_regfile_ff.register_file_i.rf_reg\[268\] gen_regfile_ff.register_file_i.rf_reg\[300\]
+ gen_regfile_ff.register_file_i.rf_reg\[332\] gen_regfile_ff.register_file_i.rf_reg\[364\]
+ net2001 net1968 _07528_ VDD VSS gf180mcu_fd_sc_mcu9t5v0__mux4_2
X_11661_ gen_regfile_ff.register_file_i.rf_reg\[140\] gen_regfile_ff.register_file_i.rf_reg\[172\]
+ gen_regfile_ff.register_file_i.rf_reg\[204\] gen_regfile_ff.register_file_i.rf_reg\[236\]
+ net2001 net1968 _07529_ VDD VSS gf180mcu_fd_sc_mcu9t5v0__mux4_2
X_11662_ gen_regfile_ff.register_file_i.rf_reg\[76\] gen_regfile_ff.register_file_i.rf_reg\[108\]
+ net2001 _07530_ VDD VSS gf180mcu_fd_sc_mcu9t5v0__mux2_2
Xplace2019 net2005 net2018 VDD VSS gf180mcu_fd_sc_mcu9t5v0__buf_4
Xplace1736 _08486_ net1735 VDD VSS gf180mcu_fd_sc_mcu9t5v0__clkbuf_8
X_11665_ gen_regfile_ff.register_file_i.rf_reg\[44\] net2001
+ _07533_ VDD VSS gf180mcu_fd_sc_mcu9t5v0__and2_2
X_11666_ gen_regfile_ff.register_file_i.raddr_a_i\[1\] _07534_
+ VDD VSS gf180mcu_fd_sc_mcu9t5v0__inv_3
X_11667_ _07530_ _07533_ net1873 _07535_ VDD VSS gf180mcu_fd_sc_mcu9t5v0__mux2_2
Xclkbuf_leaf_24_clk_i_regs clknet_2_2__leaf_clk_i_regs clknet_leaf_24_clk_i_regs
+ VDD VSS gf180mcu_fd_sc_mcu9t5v0__clkbuf_20
X_11669_ gen_regfile_ff.register_file_i.raddr_a_i\[3\] _07537_
+ VDD VSS gf180mcu_fd_sc_mcu9t5v0__inv_3
Xclkbuf_leaf_25_clk_i_regs clknet_2_0__leaf_clk_i_regs clknet_leaf_25_clk_i_regs
+ VDD VSS gf180mcu_fd_sc_mcu9t5v0__clkbuf_20
X_11671_ _07527_ _07528_ _07529_ _07535_ net1884 net1867 _07539_
+ VDD VSS gf180mcu_fd_sc_mcu9t5v0__mux4_2
Xplace1735 _08606_ net1734 VDD VSS gf180mcu_fd_sc_mcu9t5v0__clkbuf_8
Xplace1734 _08669_ net1733 VDD VSS gf180mcu_fd_sc_mcu9t5v0__buf_8
Xplace1733 _08810_ net1732 VDD VSS gf180mcu_fd_sc_mcu9t5v0__buf_4
X_11675_ gen_regfile_ff.register_file_i.rf_reg\[652\] gen_regfile_ff.register_file_i.rf_reg\[684\]
+ gen_regfile_ff.register_file_i.rf_reg\[716\] gen_regfile_ff.register_file_i.rf_reg\[748\]
+ net2001 net1968 _07543_ VDD VSS gf180mcu_fd_sc_mcu9t5v0__mux4_2
X_11676_ gen_regfile_ff.register_file_i.rf_reg\[524\] gen_regfile_ff.register_file_i.rf_reg\[556\]
+ gen_regfile_ff.register_file_i.rf_reg\[588\] gen_regfile_ff.register_file_i.rf_reg\[620\]
+ net2001 net1968 _07544_ VDD VSS gf180mcu_fd_sc_mcu9t5v0__mux4_2
Xplace1732 _08870_ net1731 VDD VSS gf180mcu_fd_sc_mcu9t5v0__buf_4
X_11678_ _07543_ _07544_ net1884 _07546_ VDD VSS gf180mcu_fd_sc_mcu9t5v0__mux2_2
X_11679_ net1958 net1867 _07547_ VDD VSS gf180mcu_fd_sc_mcu9t5v0__nand2_2
X_11680_ _07546_ _07547_ _07548_ VDD VSS gf180mcu_fd_sc_mcu9t5v0__or2_2
X_11681_ _07521_ _07523_ _07539_ net1958 _07548_ _07549_ VDD
+ VSS gf180mcu_fd_sc_mcu9t5v0__oai221_2
X_11682_ load_store_unit_i.ls_fsm_cs\[0\] load_store_unit_i.ls_fsm_cs\[1\]
+ _07550_ VDD VSS gf180mcu_fd_sc_mcu9t5v0__nor2_4
X_11683_ net2081 _07550_ _07551_ VDD VSS gf180mcu_fd_sc_mcu9t5v0__nand2_4
X_11684_ load_store_unit_i.ls_fsm_cs\[0\] _07552_ VDD VSS
+ gf180mcu_fd_sc_mcu9t5v0__clkinv_2
X_11685_ load_store_unit_i.ls_fsm_cs\[2\] _07553_ VDD VSS
+ gf180mcu_fd_sc_mcu9t5v0__inv_3
X_11686_ _07552_ load_store_unit_i.handle_misaligned_q net2086
+ _07553_ _07554_ VDD VSS gf180mcu_fd_sc_mcu9t5v0__oai211_4
X_11687_ _07551_ _07554_ _07555_ VDD VSS gf180mcu_fd_sc_mcu9t5v0__nand2_4
Xplace1731 _08906_ net1730 VDD VSS gf180mcu_fd_sc_mcu9t5v0__buf_4
X_11689_ net1889 _07557_ VDD VSS gf180mcu_fd_sc_mcu9t5v0__inv_4
Xplace1730 _08945_ net1729 VDD VSS gf180mcu_fd_sc_mcu9t5v0__buf_4
X_11691_ net2144 _07557_ _07559_ VDD VSS gf180mcu_fd_sc_mcu9t5v0__and2_2
X_11692_ net2133 _07560_ VDD VSS gf180mcu_fd_sc_mcu9t5v0__inv_3
X_11693_ net1888 id_stage_i.controller_i.instr_i\[5\] _07561_
+ VDD VSS gf180mcu_fd_sc_mcu9t5v0__or2_2
Xplace1729 _08962_ net1728 VDD VSS gf180mcu_fd_sc_mcu9t5v0__buf_4
X_11695_ net1888 id_stage_i.controller_i.instr_i\[5\] _07563_
+ VDD VSS gf180mcu_fd_sc_mcu9t5v0__nand2_2
X_11696_ _07560_ _07561_ _07563_ _07564_ VDD VSS gf180mcu_fd_sc_mcu9t5v0__oai21_2
X_11697_ _07559_ _07564_ _07565_ VDD VSS gf180mcu_fd_sc_mcu9t5v0__and2_2
X_11698_ id_stage_i.controller_i.instr_i\[6\] _07566_ VDD
+ VSS gf180mcu_fd_sc_mcu9t5v0__inv_2
X_11699_ net2144 _07567_ VDD VSS gf180mcu_fd_sc_mcu9t5v0__clkinv_2
X_11700_ _07566_ id_stage_i.controller_i.instr_i\[5\] _07567_
+ _07568_ VDD VSS gf180mcu_fd_sc_mcu9t5v0__oai21_2
Xplace1728 _08999_ net1727 VDD VSS gf180mcu_fd_sc_mcu9t5v0__buf_4
X_11702_ net2147 id_stage_i.controller_i.instr_i\[5\] _07570_
+ VDD VSS gf180mcu_fd_sc_mcu9t5v0__nor2_4
X_11703_ net1889 _07570_ _07571_ VDD VSS gf180mcu_fd_sc_mcu9t5v0__nand2_2
Xplace1727 _09059_ net1726 VDD VSS gf180mcu_fd_sc_mcu9t5v0__clkbuf_8
X_11705_ _07568_ _07571_ net2130 _07573_ VDD VSS gf180mcu_fd_sc_mcu9t5v0__aoi21_2
X_11706_ id_stage_i.controller_i.instr_i\[13\] id_stage_i.controller_i.instr_i\[14\]
+ _07574_ VDD VSS gf180mcu_fd_sc_mcu9t5v0__nor2_4
X_11707_ id_stage_i.controller_i.instr_i\[0\] id_stage_i.controller_i.instr_i\[1\]
+ net1893 _07575_ VDD VSS gf180mcu_fd_sc_mcu9t5v0__nand3_2
X_11708_ _07560_ net1889 _07561_ _07575_ _07576_ VDD VSS gf180mcu_fd_sc_mcu9t5v0__or4_2
X_11709_ _07565_ _07573_ _07574_ _07576_ _07577_ VDD VSS gf180mcu_fd_sc_mcu9t5v0__oai22_2
Xplace1725 _09095_ net1724 VDD VSS gf180mcu_fd_sc_mcu9t5v0__buf_4
X_11711_ net2019 _07579_ VDD VSS gf180mcu_fd_sc_mcu9t5v0__clkinv_12
Xplace1724 _09148_ net1723 VDD VSS gf180mcu_fd_sc_mcu9t5v0__buf_8
X_11713_ id_stage_i.controller_i.instr_i\[5\] _07581_ VDD
+ VSS gf180mcu_fd_sc_mcu9t5v0__inv_3
X_11714_ id_stage_i.controller_i.instr_i\[0\] id_stage_i.controller_i.instr_i\[1\]
+ _07582_ VDD VSS gf180mcu_fd_sc_mcu9t5v0__nand2_2
X_11715_ net1893 net1890 _07583_ VDD VSS gf180mcu_fd_sc_mcu9t5v0__or2_4
X_11716_ _07581_ _07582_ _07583_ _07584_ VDD VSS gf180mcu_fd_sc_mcu9t5v0__or3_2
X_11717_ net1888 net1889 _07585_ VDD VSS gf180mcu_fd_sc_mcu9t5v0__nand2_2
X_11718_ id_stage_i.controller_i.instr_i\[0\] id_stage_i.controller_i.instr_i\[1\]
+ _07586_ VDD VSS gf180mcu_fd_sc_mcu9t5v0__and2_4
X_11719_ _07579_ _07584_ _07585_ _07586_ _07587_ VDD VSS gf180mcu_fd_sc_mcu9t5v0__oai31_4
X_11720_ net2130 _07570_ _07588_ VDD VSS gf180mcu_fd_sc_mcu9t5v0__and2_2
X_11721_ _07559_ _07588_ _07589_ VDD VSS gf180mcu_fd_sc_mcu9t5v0__and2_2
X_11722_ net1888 id_stage_i.controller_i.instr_i\[5\] _07590_
+ VDD VSS gf180mcu_fd_sc_mcu9t5v0__and2_4
X_11723_ _07557_ _07590_ _07591_ VDD VSS gf180mcu_fd_sc_mcu9t5v0__nand2_2
X_11724_ _07568_ _07591_ net2132 _07592_ VDD VSS gf180mcu_fd_sc_mcu9t5v0__aoi21_2
X_11725_ id_stage_i.controller_i.instr_i\[0\] id_stage_i.controller_i.instr_i\[1\]
+ net1893 _07593_ VDD VSS gf180mcu_fd_sc_mcu9t5v0__and3_2
X_11726_ net2132 _07557_ _07570_ _07593_ _07594_ VDD VSS gf180mcu_fd_sc_mcu9t5v0__and4_2
X_11727_ id_stage_i.controller_i.instr_i\[12\] _07595_ VDD
+ VSS gf180mcu_fd_sc_mcu9t5v0__clkinv_2
X_11728_ _07595_ _07574_ _07596_ VDD VSS gf180mcu_fd_sc_mcu9t5v0__nand2_2
X_11729_ _07594_ net1831 _07597_ VDD VSS gf180mcu_fd_sc_mcu9t5v0__nand2_2
X_11730_ _07560_ _07586_ _07598_ VDD VSS gf180mcu_fd_sc_mcu9t5v0__and2_2
X_11731_ id_stage_i.id_fsm_q _07599_ VDD VSS gf180mcu_fd_sc_mcu9t5v0__inv_3
X_11732_ id_stage_i.controller_i.instr_valid_i _07599_ net2170
+ _07563_ _07600_ VDD VSS gf180mcu_fd_sc_mcu9t5v0__aoi211_4
X_11733_ _07598_ net2183 _07601_ VDD VSS gf180mcu_fd_sc_mcu9t5v0__nand2_2
X_11734_ _07589_ _07592_ _07597_ _07601_ _07602_ VDD VSS gf180mcu_fd_sc_mcu9t5v0__oai211_2
X_11735_ _07602_ _07577_ _07587_ net1817 _07603_ VDD VSS gf180mcu_fd_sc_mcu9t5v0__or4_4
Xplace1723 _09182_ net1722 VDD VSS gf180mcu_fd_sc_mcu9t5v0__buf_4
X_11737_ _07559_ _07564_ _07605_ VDD VSS gf180mcu_fd_sc_mcu9t5v0__nand2_2
X_11738_ net2147 _07581_ net2144 _07606_ VDD VSS gf180mcu_fd_sc_mcu9t5v0__aoi21_2
X_11739_ net2170 net2149 _07607_ VDD VSS gf180mcu_fd_sc_mcu9t5v0__and2_2
X_11740_ _07606_ _07607_ _07560_ _07608_ VDD VSS gf180mcu_fd_sc_mcu9t5v0__oai21_2
X_11741_ _07574_ _07576_ _07551_ _07554_ _07609_ VDD VSS gf180mcu_fd_sc_mcu9t5v0__oai211_2
X_11742_ _07605_ _07608_ _07609_ _07587_ _07610_ VDD VSS gf180mcu_fd_sc_mcu9t5v0__aoi211_4
Xplace1722 _09239_ net1721 VDD VSS gf180mcu_fd_sc_mcu9t5v0__buf_4
X_11744_ cs_registers_i.pc_id_i\[12\] net2064 _07612_ VDD
+ VSS gf180mcu_fd_sc_mcu9t5v0__nand2_2
X_11745_ _07598_ net2183 _07613_ VDD VSS gf180mcu_fd_sc_mcu9t5v0__and2_2
Xplace1721 _09276_ net1720 VDD VSS gf180mcu_fd_sc_mcu9t5v0__buf_4
X_11747_ id_stage_i.controller_i.instr_i\[2\] id_stage_i.controller_i.instr_i\[3\]
+ _07615_ VDD VSS gf180mcu_fd_sc_mcu9t5v0__nor2_2
X_11748_ id_stage_i.controller_i.instr_i\[5\] _07586_ _07615_
+ _07616_ VDD VSS gf180mcu_fd_sc_mcu9t5v0__and3_4
X_11749_ _07579_ _07585_ _07617_ VDD VSS gf180mcu_fd_sc_mcu9t5v0__nor2_2
X_11750_ _07616_ _07617_ _07582_ _07618_ VDD VSS gf180mcu_fd_sc_mcu9t5v0__aoi21_2
X_11751_ _07589_ _07592_ _07597_ _07618_ _07619_ VDD VSS gf180mcu_fd_sc_mcu9t5v0__oai211_4
X_11752_ _07551_ _07554_ _07620_ VDD VSS gf180mcu_fd_sc_mcu9t5v0__and2_2
Xplace1720 _09443_ net1719 VDD VSS gf180mcu_fd_sc_mcu9t5v0__buf_4
X_11754_ _07619_ _07613_ net1816 _07622_ VDD VSS gf180mcu_fd_sc_mcu9t5v0__oai21_4
Xplace1719 _09665_ net1718 VDD VSS gf180mcu_fd_sc_mcu9t5v0__buf_4
X_11756_ id_stage_i.controller_i.lsu_addr_last_i\[12\] net1818
+ _07624_ VDD VSS gf180mcu_fd_sc_mcu9t5v0__nand2_2
X_11757_ net1803 net2126 _07612_ net1741 _07624_ _01226_ VDD
+ VSS gf180mcu_fd_sc_mcu9t5v0__oai221_2
X_11758_ net1704 _01222_ VDD VSS gf180mcu_fd_sc_mcu9t5v0__clkinv_2
Xplace1726 net1724 net1725 VDD VSS gf180mcu_fd_sc_mcu9t5v0__buf_8
Xplace1718 _09671_ net1717 VDD VSS gf180mcu_fd_sc_mcu9t5v0__buf_4
XPHY_EDGE_ROW_2_Right_2 VDD VSS gf180mcu_fd_sc_mcu9t5v0__endcap
Xclkbuf_leaf_26_clk_i_regs clknet_2_2__leaf_clk_i_regs clknet_leaf_26_clk_i_regs
+ VDD VSS gf180mcu_fd_sc_mcu9t5v0__clkbuf_20
X_11763_ net1889 net1888 id_stage_i.controller_i.instr_i\[14\]
+ _07629_ VDD VSS gf180mcu_fd_sc_mcu9t5v0__or3_4
X_11764_ _07629_ _07582_ _07583_ _07581_ _07630_ VDD VSS gf180mcu_fd_sc_mcu9t5v0__or4_4
X_11765_ net2130 _07557_ _07570_ _07631_ VDD VSS gf180mcu_fd_sc_mcu9t5v0__and3_4
X_11766_ net2021 _07574_ _07632_ VDD VSS gf180mcu_fd_sc_mcu9t5v0__and2_2
X_11767_ _07631_ _07632_ _07600_ _07633_ VDD VSS gf180mcu_fd_sc_mcu9t5v0__aoi21_4
X_11768_ net2130 net2147 _07557_ _07634_ VDD VSS gf180mcu_fd_sc_mcu9t5v0__or3_4
X_11769_ _07630_ _07634_ _07635_ VDD VSS gf180mcu_fd_sc_mcu9t5v0__and2_4
X_11770_ _07575_ net2110 _07635_ _07633_ net2115 _07636_ VDD
+ VSS gf180mcu_fd_sc_mcu9t5v0__aoi221_4
X_11771_ net1932 gen_regfile_ff.register_file_i.waddr_a_i\[0\]
+ net2069 _07637_ VDD VSS gf180mcu_fd_sc_mcu9t5v0__mux2_2
X_11772_ _07560_ net2170 _07561_ _07638_ VDD VSS gf180mcu_fd_sc_mcu9t5v0__or3_4
Xplace1717 _09689_ net1716 VDD VSS gf180mcu_fd_sc_mcu9t5v0__buf_12
X_11774_ net2021 _07574_ _07640_ VDD VSS gf180mcu_fd_sc_mcu9t5v0__nand2_2
Xplace1715 _09780_ net1714 VDD VSS gf180mcu_fd_sc_mcu9t5v0__buf_4
X_11776_ id_stage_i.controller_i.instr_valid_i _07642_ VDD
+ VSS gf180mcu_fd_sc_mcu9t5v0__inv_3
X_11777_ _07642_ id_stage_i.id_fsm_q _07590_ _07557_ _07643_
+ VDD VSS gf180mcu_fd_sc_mcu9t5v0__oai211_4
X_11778_ _07640_ _07638_ _07643_ _07644_ VDD VSS gf180mcu_fd_sc_mcu9t5v0__oai21_4
X_11779_ _07557_ _07590_ _07645_ VDD VSS gf180mcu_fd_sc_mcu9t5v0__and2_4
X_11780_ net2130 _07593_ _07645_ _07646_ VDD VSS gf180mcu_fd_sc_mcu9t5v0__and3_2
X_11781_ _07593_ _07644_ _07646_ net1817 _07647_ VDD VSS gf180mcu_fd_sc_mcu9t5v0__aoi211_2
X_11782_ _07616_ _07585_ net2117 _07648_ VDD VSS gf180mcu_fd_sc_mcu9t5v0__nand3_2
X_11783_ net2144 _07566_ net1889 _07649_ VDD VSS gf180mcu_fd_sc_mcu9t5v0__and3_2
X_11784_ net2081 _07550_ _07650_ VDD VSS gf180mcu_fd_sc_mcu9t5v0__and2_2
Xplace1713 _09831_ net1712 VDD VSS gf180mcu_fd_sc_mcu9t5v0__buf_4
X_11786_ net2086 _07652_ VDD VSS gf180mcu_fd_sc_mcu9t5v0__inv_3
X_11787_ net2099 _01354_ _07652_ net2081 _07653_ VDD VSS gf180mcu_fd_sc_mcu9t5v0__aoi211_4
X_11788_ _07598_ _07649_ _07653_ _07650_ _07654_ VDD VSS gf180mcu_fd_sc_mcu9t5v0__aoi211_4
X_11789_ _07648_ net2181 _07655_ VDD VSS gf180mcu_fd_sc_mcu9t5v0__and2_2
X_11790_ net2061 _07655_ _07656_ VDD VSS gf180mcu_fd_sc_mcu9t5v0__and2_2
X_11791_ gen_regfile_ff.register_file_i.raddr_b_i\[4\] _07657_
+ VDD VSS gf180mcu_fd_sc_mcu9t5v0__clkinv_2
Xplace1712 _09851_ net1711 VDD VSS gf180mcu_fd_sc_mcu9t5v0__buf_4
Xplace1714 _09805_ net1713 VDD VSS gf180mcu_fd_sc_mcu9t5v0__buf_4
Xplace1716 net1714 net1715 VDD VSS gf180mcu_fd_sc_mcu9t5v0__buf_4
Xplace1711 _09861_ net1710 VDD VSS gf180mcu_fd_sc_mcu9t5v0__buf_4
Xplace1710 _09878_ net1709 VDD VSS gf180mcu_fd_sc_mcu9t5v0__buf_4
X_11797_ gen_regfile_ff.register_file_i.rf_reg\[512\] gen_regfile_ff.register_file_i.rf_reg\[576\]
+ gen_regfile_ff.register_file_i.rf_reg\[640\] gen_regfile_ff.register_file_i.rf_reg\[704\]
+ net2168 net1903 _07663_ VDD VSS gf180mcu_fd_sc_mcu9t5v0__mux4_2
X_11798_ net1860 net1901 net2104 _07663_ _07664_ VDD VSS gf180mcu_fd_sc_mcu9t5v0__or4_2
X_11799_ gen_regfile_ff.register_file_i.raddr_b_i\[3\] _07665_
+ VDD VSS gf180mcu_fd_sc_mcu9t5v0__clkinv_2
X_11800_ net2155 _07666_ VDD VSS gf180mcu_fd_sc_mcu9t5v0__inv_4
Xplace1709 _09946_ net1708 VDD VSS gf180mcu_fd_sc_mcu9t5v0__buf_4
X_11802_ gen_regfile_ff.register_file_i.rf_reg\[288\] gen_regfile_ff.register_file_i.rf_reg\[352\]
+ gen_regfile_ff.register_file_i.rf_reg\[416\] gen_regfile_ff.register_file_i.rf_reg\[480\]
+ net2168 net1903 _07668_ VDD VSS gf180mcu_fd_sc_mcu9t5v0__mux4_2
X_11803_ net1899 net1858 net1856 _07668_ _07669_ VDD VSS gf180mcu_fd_sc_mcu9t5v0__or4_2
X_11804_ gen_regfile_ff.register_file_i.rf_reg\[256\] gen_regfile_ff.register_file_i.rf_reg\[320\]
+ gen_regfile_ff.register_file_i.rf_reg\[384\] gen_regfile_ff.register_file_i.rf_reg\[448\]
+ net1906 net1903 _07670_ VDD VSS gf180mcu_fd_sc_mcu9t5v0__mux4_2
X_11805_ net1899 net1858 net2104 _07670_ _07671_ VDD VSS gf180mcu_fd_sc_mcu9t5v0__or4_2
X_11806_ gen_regfile_ff.register_file_i.rf_reg\[544\] gen_regfile_ff.register_file_i.rf_reg\[608\]
+ gen_regfile_ff.register_file_i.rf_reg\[672\] gen_regfile_ff.register_file_i.rf_reg\[736\]
+ net1906 net1903 _07672_ VDD VSS gf180mcu_fd_sc_mcu9t5v0__mux4_2
X_11807_ net1860 net1901 net1856 _07672_ _07673_ VDD VSS gf180mcu_fd_sc_mcu9t5v0__or4_2
X_11808_ _07664_ _07669_ _07671_ _07673_ _07674_ VDD VSS gf180mcu_fd_sc_mcu9t5v0__and4_2
Xplace1708 _03988_ net1707 VDD VSS gf180mcu_fd_sc_mcu9t5v0__buf_4
X_11810_ gen_regfile_ff.register_file_i.rf_reg\[128\] gen_regfile_ff.register_file_i.rf_reg\[192\]
+ net2078 _07676_ VDD VSS gf180mcu_fd_sc_mcu9t5v0__mux2_2
X_11811_ gen_regfile_ff.register_file_i.rf_reg\[160\] gen_regfile_ff.register_file_i.rf_reg\[224\]
+ net2078 _07677_ VDD VSS gf180mcu_fd_sc_mcu9t5v0__mux2_2
Xplace1707 _03992_ net1706 VDD VSS gf180mcu_fd_sc_mcu9t5v0__buf_4
X_11813_ gen_regfile_ff.register_file_i.rf_reg\[64\] net2078
+ _07679_ VDD VSS gf180mcu_fd_sc_mcu9t5v0__and2_2
X_11814_ gen_regfile_ff.register_file_i.rf_reg\[32\] gen_regfile_ff.register_file_i.rf_reg\[96\]
+ net2078 _07680_ VDD VSS gf180mcu_fd_sc_mcu9t5v0__mux2_2
X_11815_ gen_regfile_ff.register_file_i.raddr_b_i\[2\] _07681_
+ VDD VSS gf180mcu_fd_sc_mcu9t5v0__inv_4
Xplace1706 _00947_ net1705 VDD VSS gf180mcu_fd_sc_mcu9t5v0__buf_4
X_11817_ _07676_ _07677_ _07679_ _07680_ net2104 net1847 _07683_
+ VDD VSS gf180mcu_fd_sc_mcu9t5v0__mux4_2
X_11818_ net1861 net1859 _07684_ VDD VSS gf180mcu_fd_sc_mcu9t5v0__nand2_2
X_11819_ _07683_ net1830 _07685_ VDD VSS gf180mcu_fd_sc_mcu9t5v0__or2_2
X_11820_ gen_regfile_ff.register_file_i.rf_reg\[800\] gen_regfile_ff.register_file_i.rf_reg\[864\]
+ gen_regfile_ff.register_file_i.rf_reg\[928\] gen_regfile_ff.register_file_i.rf_reg\[992\]
+ net2078 net1903 _07686_ VDD VSS gf180mcu_fd_sc_mcu9t5v0__mux4_2
X_11821_ gen_regfile_ff.register_file_i.rf_reg\[768\] gen_regfile_ff.register_file_i.rf_reg\[832\]
+ gen_regfile_ff.register_file_i.rf_reg\[896\] gen_regfile_ff.register_file_i.rf_reg\[960\]
+ net2078 net1903 _07687_ VDD VSS gf180mcu_fd_sc_mcu9t5v0__mux4_2
X_11822_ _07686_ _07687_ net1856 _07688_ VDD VSS gf180mcu_fd_sc_mcu9t5v0__mux2_2
X_11823_ net1899 gen_regfile_ff.register_file_i.raddr_b_i\[3\]
+ _07689_ VDD VSS gf180mcu_fd_sc_mcu9t5v0__nand2_2
X_11824_ _07688_ _07689_ _07690_ VDD VSS gf180mcu_fd_sc_mcu9t5v0__or2_2
X_11825_ _07674_ _07685_ _07690_ _07691_ VDD VSS gf180mcu_fd_sc_mcu9t5v0__and3_4
X_11826_ _07616_ _07585_ _07643_ net2117 _07692_ VDD VSS gf180mcu_fd_sc_mcu9t5v0__nand4_4
X_11827_ net2483 _07692_ _07693_ VDD VSS gf180mcu_fd_sc_mcu9t5v0__nor2_2
X_11828_ _07637_ _07656_ net1798 net1797 _07694_ VDD VSS gf180mcu_fd_sc_mcu9t5v0__aoi22_4
X_11829_ _07694_ _07695_ VDD VSS gf180mcu_fd_sc_mcu9t5v0__inv_3
Xplace1705 _01226_ net1704 VDD VSS gf180mcu_fd_sc_mcu9t5v0__buf_4
Xplace1704 _07694_ net1703 VDD VSS gf180mcu_fd_sc_mcu9t5v0__buf_4
Xclkbuf_leaf_27_clk_i_regs clknet_2_0__leaf_clk_i_regs clknet_leaf_27_clk_i_regs
+ VDD VSS gf180mcu_fd_sc_mcu9t5v0__clkbuf_20
X_11833_ _07575_ net2110 _07633_ _07635_ _07697_ VDD VSS gf180mcu_fd_sc_mcu9t5v0__aoi22_2
X_11834_ _07560_ _07575_ _07591_ _07698_ VDD VSS gf180mcu_fd_sc_mcu9t5v0__or3_2
X_11835_ _07575_ _07633_ _07698_ net1816 _07699_ VDD VSS gf180mcu_fd_sc_mcu9t5v0__oai211_4
X_11836_ id_stage_i.controller_i.instr_is_compressed_i _07697_
+ _07699_ _07700_ VDD VSS gf180mcu_fd_sc_mcu9t5v0__and3_2
Xplace1703 net2299 net1702 VDD VSS gf180mcu_fd_sc_mcu9t5v0__buf_4
XPHY_EDGE_ROW_1_Right_1 VDD VSS gf180mcu_fd_sc_mcu9t5v0__endcap
Xplace1702 net2118 net1701 VDD VSS gf180mcu_fd_sc_mcu9t5v0__buf_4
X_11840_ _07584_ net2117 _07704_ VDD VSS gf180mcu_fd_sc_mcu9t5v0__nor2_4
X_11841_ _07630_ _07634_ _07705_ VDD VSS gf180mcu_fd_sc_mcu9t5v0__nand2_2
X_11842_ _07593_ _07704_ _07644_ _07705_ _07620_ _07706_ VDD
+ VSS gf180mcu_fd_sc_mcu9t5v0__oai221_4
X_11843_ net1908 _07706_ _07707_ VDD VSS gf180mcu_fd_sc_mcu9t5v0__and2_2
X_11844_ _07700_ _07707_ _07655_ _07708_ VDD VSS gf180mcu_fd_sc_mcu9t5v0__oai21_2
Xplace1701 _01173_ net1700 VDD VSS gf180mcu_fd_sc_mcu9t5v0__buf_4
X_11846_ net1816 _07692_ _07710_ VDD VSS gf180mcu_fd_sc_mcu9t5v0__and2_2
X_11847_ _07586_ _07615_ _07711_ VDD VSS gf180mcu_fd_sc_mcu9t5v0__and2_4
Xclkbuf_leaf_28_clk_i_regs clknet_2_1__leaf_clk_i_regs clknet_leaf_28_clk_i_regs
+ VDD VSS gf180mcu_fd_sc_mcu9t5v0__clkbuf_20
X_11849_ _07711_ net2183 _07713_ VDD VSS gf180mcu_fd_sc_mcu9t5v0__nand2_2
X_11850_ _07654_ _07713_ _07714_ VDD VSS gf180mcu_fd_sc_mcu9t5v0__and2_4
X_11851_ _07714_ _07636_ _07715_ VDD VSS gf180mcu_fd_sc_mcu9t5v0__xnor2_2
X_11852_ gen_regfile_ff.register_file_i.waddr_a_i\[1\] net2061
+ _07710_ _07715_ _07716_ VDD VSS gf180mcu_fd_sc_mcu9t5v0__nand4_4
Xclkbuf_leaf_29_clk_i_regs clknet_2_0__leaf_clk_i_regs clknet_leaf_29_clk_i_regs
+ VDD VSS gf180mcu_fd_sc_mcu9t5v0__clkbuf_20
X_11854_ gen_regfile_ff.register_file_i.rf_reg\[513\] gen_regfile_ff.register_file_i.rf_reg\[577\]
+ gen_regfile_ff.register_file_i.rf_reg\[641\] gen_regfile_ff.register_file_i.rf_reg\[705\]
+ net1906 net1903 _07718_ VDD VSS gf180mcu_fd_sc_mcu9t5v0__mux4_2
X_11855_ net1860 net1901 net2104 _07718_ _07719_ VDD VSS gf180mcu_fd_sc_mcu9t5v0__or4_2
Xplace1700 _07925_ net1699 VDD VSS gf180mcu_fd_sc_mcu9t5v0__buf_4
X_11857_ gen_regfile_ff.register_file_i.rf_reg\[289\] gen_regfile_ff.register_file_i.rf_reg\[353\]
+ gen_regfile_ff.register_file_i.rf_reg\[417\] gen_regfile_ff.register_file_i.rf_reg\[481\]
+ net1906 net1903 _07721_ VDD VSS gf180mcu_fd_sc_mcu9t5v0__mux4_2
X_11858_ net1899 net1858 net1856 _07721_ _07722_ VDD VSS gf180mcu_fd_sc_mcu9t5v0__or4_2
X_11859_ gen_regfile_ff.register_file_i.rf_reg\[257\] gen_regfile_ff.register_file_i.rf_reg\[321\]
+ gen_regfile_ff.register_file_i.rf_reg\[385\] gen_regfile_ff.register_file_i.rf_reg\[449\]
+ net1906 net1903 _07723_ VDD VSS gf180mcu_fd_sc_mcu9t5v0__mux4_2
X_11860_ net1899 net1858 net2104 _07723_ _07724_ VDD VSS gf180mcu_fd_sc_mcu9t5v0__or4_2
X_11861_ gen_regfile_ff.register_file_i.rf_reg\[545\] gen_regfile_ff.register_file_i.rf_reg\[609\]
+ gen_regfile_ff.register_file_i.rf_reg\[673\] gen_regfile_ff.register_file_i.rf_reg\[737\]
+ net1906 net1903 _07725_ VDD VSS gf180mcu_fd_sc_mcu9t5v0__mux4_2
X_11862_ net1860 net1901 net1856 _07725_ _07726_ VDD VSS gf180mcu_fd_sc_mcu9t5v0__or4_2
X_11863_ _07719_ _07722_ _07724_ _07726_ _07727_ VDD VSS gf180mcu_fd_sc_mcu9t5v0__and4_2
X_11864_ gen_regfile_ff.register_file_i.rf_reg\[129\] gen_regfile_ff.register_file_i.rf_reg\[193\]
+ net2168 _07728_ VDD VSS gf180mcu_fd_sc_mcu9t5v0__mux2_2
X_11865_ gen_regfile_ff.register_file_i.rf_reg\[161\] gen_regfile_ff.register_file_i.rf_reg\[225\]
+ net2168 _07729_ VDD VSS gf180mcu_fd_sc_mcu9t5v0__mux2_2
Xplace1699 _07946_ net1698 VDD VSS gf180mcu_fd_sc_mcu9t5v0__buf_4
X_11867_ net2078 gen_regfile_ff.register_file_i.rf_reg\[65\]
+ _07731_ VDD VSS gf180mcu_fd_sc_mcu9t5v0__and2_2
X_11868_ gen_regfile_ff.register_file_i.rf_reg\[33\] gen_regfile_ff.register_file_i.rf_reg\[97\]
+ net2168 _07732_ VDD VSS gf180mcu_fd_sc_mcu9t5v0__mux2_2
X_11869_ _07728_ _07729_ _07731_ _07732_ net2104 net1847 _07733_
+ VDD VSS gf180mcu_fd_sc_mcu9t5v0__mux4_2
X_11870_ net1830 _07733_ _07734_ VDD VSS gf180mcu_fd_sc_mcu9t5v0__or2_2
Xplace1698 _01208_ net1697 VDD VSS gf180mcu_fd_sc_mcu9t5v0__buf_4
X_11872_ gen_regfile_ff.register_file_i.rf_reg\[801\] gen_regfile_ff.register_file_i.rf_reg\[865\]
+ gen_regfile_ff.register_file_i.rf_reg\[929\] gen_regfile_ff.register_file_i.rf_reg\[993\]
+ net2168 net1903 _07736_ VDD VSS gf180mcu_fd_sc_mcu9t5v0__mux4_2
X_11873_ gen_regfile_ff.register_file_i.rf_reg\[769\] gen_regfile_ff.register_file_i.rf_reg\[833\]
+ gen_regfile_ff.register_file_i.rf_reg\[897\] gen_regfile_ff.register_file_i.rf_reg\[961\]
+ net1906 net1903 _07737_ VDD VSS gf180mcu_fd_sc_mcu9t5v0__mux4_2
X_11874_ _07736_ _07737_ net1856 _07738_ VDD VSS gf180mcu_fd_sc_mcu9t5v0__mux2_2
X_11875_ _07689_ _07738_ _07739_ VDD VSS gf180mcu_fd_sc_mcu9t5v0__or2_2
X_11876_ _07727_ _07734_ _07739_ _07740_ VDD VSS gf180mcu_fd_sc_mcu9t5v0__and3_4
X_11877_ _07693_ net1796 _07741_ VDD VSS gf180mcu_fd_sc_mcu9t5v0__nand2_2
X_11878_ _07708_ _07716_ _07741_ _01135_ VDD VSS gf180mcu_fd_sc_mcu9t5v0__and3_4
X_11879_ _01135_ _07742_ VDD VSS gf180mcu_fd_sc_mcu9t5v0__clkinv_4
Xclkbuf_leaf_30_clk_i_regs clknet_2_0__leaf_clk_i_regs clknet_leaf_30_clk_i_regs
+ VDD VSS gf180mcu_fd_sc_mcu9t5v0__clkbuf_20
Xplace1697 _07996_ net1696 VDD VSS gf180mcu_fd_sc_mcu9t5v0__buf_4
Xplace1696 _01214_ net1695 VDD VSS gf180mcu_fd_sc_mcu9t5v0__buf_4
X_11883_ _07666_ net2184 _07745_ VDD VSS gf180mcu_fd_sc_mcu9t5v0__and2_4
Xclkbuf_leaf_31_clk_i_regs clknet_2_0__leaf_clk_i_regs clknet_leaf_31_clk_i_regs
+ VDD VSS gf180mcu_fd_sc_mcu9t5v0__clkbuf_20
X_11885_ gen_regfile_ff.register_file_i.rf_reg\[34\] gen_regfile_ff.register_file_i.rf_reg\[98\]
+ net1909 _07747_ VDD VSS gf180mcu_fd_sc_mcu9t5v0__mux2_2
X_11886_ gen_regfile_ff.register_file_i.rf_reg\[66\] _07745_
+ _07747_ net2104 _07748_ VDD VSS gf180mcu_fd_sc_mcu9t5v0__aoi22_2
Xclkbuf_leaf_33_clk_i_regs clknet_2_0__leaf_clk_i_regs clknet_leaf_33_clk_i_regs
+ VDD VSS gf180mcu_fd_sc_mcu9t5v0__clkbuf_20
X_11888_ gen_regfile_ff.register_file_i.rf_reg\[130\] gen_regfile_ff.register_file_i.rf_reg\[162\]
+ gen_regfile_ff.register_file_i.rf_reg\[194\] gen_regfile_ff.register_file_i.rf_reg\[226\]
+ net1931 net1909 _07750_ VDD VSS gf180mcu_fd_sc_mcu9t5v0__mux4_2
X_11889_ net1903 _07750_ _07751_ VDD VSS gf180mcu_fd_sc_mcu9t5v0__nand2_2
X_11890_ net1903 _07748_ _07751_ _07752_ VDD VSS gf180mcu_fd_sc_mcu9t5v0__oai21_2
X_11891_ gen_regfile_ff.register_file_i.rf_reg\[290\] gen_regfile_ff.register_file_i.rf_reg\[354\]
+ gen_regfile_ff.register_file_i.rf_reg\[418\] gen_regfile_ff.register_file_i.rf_reg\[482\]
+ net1909 net1903 _07753_ VDD VSS gf180mcu_fd_sc_mcu9t5v0__mux4_2
X_11892_ gen_regfile_ff.register_file_i.rf_reg\[258\] gen_regfile_ff.register_file_i.rf_reg\[322\]
+ gen_regfile_ff.register_file_i.rf_reg\[386\] gen_regfile_ff.register_file_i.rf_reg\[450\]
+ net1909 net1903 _07754_ VDD VSS gf180mcu_fd_sc_mcu9t5v0__mux4_2