
* cell i2c_master_top
* pin sda_pad_i
* pin scl_pad_i
* pin scl_padoen_o
* pin arst_i
* pin sda_padoen_o
* pin wb_dat_o[7]
* pin wb_rst_i
* pin wb_clk_i
* pin wb_dat_i[7]
* pin wb_adr_i[1]
* pin wb_adr_i[2]
* pin wb_adr_i[0]
* pin wb_dat_o[2]
* pin wb_dat_i[2]
* pin wb_dat_o[1]
* pin wb_dat_o[3]
* pin wb_we_i
* pin wb_dat_i[3]
* pin wb_cyc_i
* pin wb_stb_i
* pin wb_dat_i[1]
* pin wb_dat_i[0]
* pin wb_ack_o
* pin sda_pad_o
* pin scl_pad_o
* pin wb_dat_i[5]
* pin wb_dat_i[4]
* pin wb_dat_i[6]
* pin wb_dat_o[0]
* pin wb_dat_o[4]
* pin wb_dat_o[5]
* pin wb_dat_o[6]
* pin wb_inta_o
.SUBCKT i2c_master_top 1 2 3 14 298 366 391 398 399 408 409 429 430 444 460 473
+ 481 515 533 561 579 604 620 722 730 738 740 741 745 746 747 748 749
* net 1 sda_pad_i
* net 2 scl_pad_i
* net 3 scl_padoen_o
* net 14 arst_i
* net 298 sda_padoen_o
* net 366 wb_dat_o[7]
* net 391 wb_rst_i
* net 398 wb_clk_i
* net 399 wb_dat_i[7]
* net 408 wb_adr_i[1]
* net 409 wb_adr_i[2]
* net 429 wb_adr_i[0]
* net 430 wb_dat_o[2]
* net 444 wb_dat_i[2]
* net 460 wb_dat_o[1]
* net 473 wb_dat_o[3]
* net 481 wb_we_i
* net 515 wb_dat_i[3]
* net 533 wb_cyc_i
* net 561 wb_stb_i
* net 579 wb_dat_i[1]
* net 604 wb_dat_i[0]
* net 620 wb_ack_o
* net 722 sda_pad_o
* net 730 scl_pad_o
* net 738 wb_dat_i[5]
* net 740 wb_dat_i[4]
* net 741 wb_dat_i[6]
* net 745 wb_dat_o[0]
* net 746 wb_dat_o[4]
* net 747 wb_dat_o[5]
* net 748 wb_dat_o[6]
* net 749 wb_inta_o
* cell instance $3 r0 *1 49.68,2.72
X$3 9 1 6 4 9 4 sky130_fd_sc_hd__clkbuf_1
* cell instance $6 r0 *1 54.74,2.72
X$6 9 2 7 4 9 4 sky130_fd_sc_hd__clkbuf_1
* cell instance $8 r0 *1 58.88,2.72
X$8 9 130 3 4 9 4 sky130_fd_sc_hd__clkbuf_1
* cell instance $28 m0 *1 106.72,106.08
X$28 9 4 9 4 730 4 sky130_fd_sc_hd__buf_4
* cell instance $30 r0 *1 103.96,100.64
X$30 9 4 9 4 722 4 sky130_fd_sc_hd__buf_4
* cell instance $82 r0 *1 108.1,2.72
X$82 9 94 4 5 9 4 sky130_fd_sc_hd__buf_2
* cell instance $126 m0 *1 101.66,8.16
X$126 9 12 16 11 4 9 4 sky130_fd_sc_hd__nor2_1
* cell instance $129 m0 *1 104.42,8.16
X$129 9 13 34 10 4 9 4 sky130_fd_sc_hd__nor2_1
* cell instance $130 m0 *1 105.8,8.16
X$130 9 227 19 20 9 4 4 sky130_fd_sc_hd__nand2_1
* cell instance $131 m0 *1 107.18,8.16
X$131 9 11 15 18 8 9 4 4 sky130_fd_sc_hd__nand3_1
* cell instance $183 r0 *1 99.82,8.16
X$183 4 14 29 9 9 4 sky130_fd_sc_hd__buf_16
* cell instance $209 m0 *1 74.52,13.6
X$209 4 29 32 27 53 9 9 4 sky130_fd_sc_hd__dfrtp_2
* cell instance $216 m0 *1 95.22,13.6
X$216 9 20 30 28 4 9 4 sky130_fd_sc_hd__nor2_1
* cell instance $217 m0 *1 96.6,13.6
X$217 9 16 12 9 21 4 4 sky130_fd_sc_hd__xor2_1
* cell instance $218 m0 *1 99.82,13.6
X$218 9 11 17 93 9 4 4 sky130_fd_sc_hd__nand2_1
* cell instance $219 m0 *1 101.2,13.6
X$219 9 26 25 24 9 22 4 4 sky130_fd_sc_hd__o21ai_0
* cell instance $221 m0 *1 103.5,13.6
X$221 9 33 4 9 23 4 sky130_fd_sc_hd__dlygate4sd1_1
* cell instance $222 m0 *1 106.72,13.6
X$222 9 15 4 9 17 4 sky130_fd_sc_hd__dlygate4sd1_1
* cell instance $232 r0 *1 19.78,13.6
X$232 4 29 37 36 77 9 9 4 sky130_fd_sc_hd__dfrtp_1
* cell instance $235 r0 *1 30.36,13.6
X$235 4 29 51 46 48 9 9 4 sky130_fd_sc_hd__dfrtp_1
* cell instance $252 r0 *1 70.84,13.6
X$252 4 29 31 27 54 9 9 4 sky130_fd_sc_hd__dfrtp_2
* cell instance $253 r0 *1 80.5,13.6
X$253 9 59 35 32 31 4 52 9 4 sky130_fd_sc_hd__nor4b_1
* cell instance $257 r0 *1 86.94,13.6
X$257 4 29 41 49 47 9 9 4 sky130_fd_sc_hd__dfrtp_2
* cell instance $262 r0 *1 98.44,13.6
X$262 4 29 33 49 45 9 9 4 sky130_fd_sc_hd__dfrtp_2
* cell instance $263 r0 *1 108.1,13.6
X$263 9 92 9 4 44 4 sky130_fd_sc_hd__clkbuf_2
* cell instance $267 m0 *1 10.58,19.04
X$267 4 29 55 36 74 9 9 4 sky130_fd_sc_hd__dfrtp_1
* cell instance $270 m0 *1 19.78,19.04
X$270 4 29 56 36 61 9 9 4 sky130_fd_sc_hd__dfrtp_1
* cell instance $272 m0 *1 29.44,19.04
X$272 9 80 37 38 4 9 4 sky130_fd_sc_hd__nor2_1
* cell instance $273 m0 *1 30.82,19.04
X$273 9 37 112 39 4 9 4 sky130_fd_sc_hd__nor2_1
* cell instance $274 m0 *1 32.2,19.04
X$274 9 68 39 90 4 9 4 sky130_fd_sc_hd__nor2_1
* cell instance $277 m0 *1 34.96,19.04
X$277 9 57 38 127 9 4 4 sky130_fd_sc_hd__nand2_1
* cell instance $279 m0 *1 38.18,19.04
X$279 4 29 58 46 63 9 9 4 sky130_fd_sc_hd__dfrtp_1
* cell instance $286 m0 *1 54.28,19.04
X$286 9 7 64 81 4 9 4 sky130_fd_sc_hd__or2_0
* cell instance $295 m0 *1 73.6,19.04
X$295 4 54 65 31 40 9 9 4 sky130_fd_sc_hd__mux2_1
* cell instance $296 m0 *1 77.74,19.04
X$296 4 53 52 32 40 9 9 4 sky130_fd_sc_hd__mux2_1
* cell instance $297 m0 *1 81.88,19.04
X$297 9 59 50 31 35 4 42 9 4 sky130_fd_sc_hd__nor4_1
* cell instance $299 m0 *1 84.64,19.04
X$299 9 32 9 4 50 4 sky130_fd_sc_hd__inv_1
* cell instance $303 m0 *1 89.24,19.04
X$303 4 43 41 99 47 9 9 4 sky130_fd_sc_hd__mux2_4
* cell instance $305 m0 *1 95.22,19.04
X$305 4 45 42 23 43 9 9 4 sky130_fd_sc_hd__mux2_1
* cell instance $308 m0 *1 99.36,19.04
X$308 4 29 16 49 62 9 9 4 sky130_fd_sc_hd__dfrtp_2
* cell instance $314 r0 *1 11.5,19.04
X$314 9 85 146 66 9 74 4 4 sky130_fd_sc_hd__o21ai_0
* cell instance $315 r0 *1 13.34,19.04
X$315 9 71 67 55 9 66 4 4 sky130_fd_sc_hd__o21ai_0
* cell instance $318 r0 *1 15.64,19.04
X$318 9 76 68 95 4 9 4 sky130_fd_sc_hd__nor2_1
* cell instance $319 r0 *1 17.02,19.04
X$319 9 68 76 169 4 9 67 4 sky130_fd_sc_hd__a21oi_1
* cell instance $321 r0 *1 19.32,19.04
X$321 9 85 165 69 9 77 4 4 sky130_fd_sc_hd__o21ai_0
* cell instance $322 r0 *1 21.16,19.04
X$322 9 71 88 37 9 69 4 4 sky130_fd_sc_hd__o21ai_0
* cell instance $324 r0 *1 23.46,19.04
X$324 9 56 57 167 4 9 4 sky130_fd_sc_hd__nor2b_1
* cell instance $325 r0 *1 25.76,19.04
X$325 4 29 80 46 96 9 9 4 sky130_fd_sc_hd__dfrtp_1
* cell instance $326 r0 *1 34.96,19.04
X$326 9 70 172 183 4 9 4 sky130_fd_sc_hd__nor2_1
* cell instance $328 r0 *1 36.8,19.04
X$328 9 51 71 124 9 4 4 sky130_fd_sc_hd__nand2_1
* cell instance $330 r0 *1 38.64,19.04
X$330 9 58 9 4 101 4 sky130_fd_sc_hd__inv_1
* cell instance $331 r0 *1 40.02,19.04
X$331 9 85 176 123 9 125 4 4 sky130_fd_sc_hd__o21ai_0
* cell instance $335 r0 *1 43.24,19.04
X$335 9 71 82 83 4 9 148 4 sky130_fd_sc_hd__a21oi_1
* cell instance $336 r0 *1 45.08,19.04
X$336 4 29 105 46 104 9 9 4 sky130_fd_sc_hd__dfrtp_1
* cell instance $337 r0 *1 54.28,19.04
X$337 4 29 108 46 81 9 9 4 sky130_fd_sc_hd__dfstp_1
* cell instance $345 r0 *1 72.22,19.04
X$345 4 29 120 27 107 9 9 4 sky130_fd_sc_hd__dfrtp_2
* cell instance $346 r0 *1 81.88,19.04
X$346 9 78 79 59 9 4 4 sky130_fd_sc_hd__nand2_1
* cell instance $347 r0 *1 83.26,19.04
X$347 9 32 31 9 72 4 4 sky130_fd_sc_hd__xor2_1
* cell instance $349 r0 *1 86.94,19.04
X$349 9 60 138 41 103 4 9 4 sky130_fd_sc_hd__nor3_1
* cell instance $350 r0 *1 88.78,19.04
X$350 4 29 12 49 102 9 9 4 sky130_fd_sc_hd__dfrtp_1
* cell instance $353 r0 *1 98.44,19.04
X$353 9 98 4 9 97 4 sky130_fd_sc_hd__dlygate4sd1_1
* cell instance $356 r0 *1 103.04,19.04
X$356 4 62 75 16 43 9 9 4 sky130_fd_sc_hd__mux2_1
* cell instance $357 r0 *1 107.18,19.04
X$357 9 73 93 23 26 4 9 4 sky130_fd_sc_hd__nor3b_1
* cell instance $367 m0 *1 1.84,24.48
X$367 4 29 109 36 84 9 9 4 sky130_fd_sc_hd__dfrtp_1
* cell instance $369 m0 *1 11.5,24.48
X$369 9 85 110 86 9 84 4 4 sky130_fd_sc_hd__o21ai_0
* cell instance $370 m0 *1 13.34,24.48
X$370 9 71 95 109 9 86 4 4 sky130_fd_sc_hd__o21ai_0
* cell instance $372 m0 *1 15.64,24.48
X$372 9 137 4 71 9 4 sky130_fd_sc_hd__clkbuf_4
* cell instance $374 m0 *1 19.32,24.48
X$374 9 85 118 87 9 61 4 4 sky130_fd_sc_hd__o21ai_0
* cell instance $375 m0 *1 21.16,24.48
X$375 9 85 119 111 9 96 4 4 sky130_fd_sc_hd__o21ai_0
* cell instance $376 m0 *1 23,24.48
X$376 4 80 122 37 51 9 9 4 sky130_fd_sc_hd__nor3_2
* cell instance $377 m0 *1 26.68,24.48
X$377 9 71 89 56 9 87 4 4 sky130_fd_sc_hd__o21ai_0
* cell instance $380 m0 *1 29.44,24.48
X$380 9 71 90 80 9 111 4 4 sky130_fd_sc_hd__o21ai_0
* cell instance $381 m0 *1 31.28,24.48
X$381 4 140 112 56 122 9 9 4 sky130_fd_sc_hd__nor3b_2
* cell instance $382 m0 *1 35.88,24.48
X$382 9 85 173 124 9 48 4 4 sky130_fd_sc_hd__o21ai_0
* cell instance $383 m0 *1 37.72,24.48
X$383 4 29 113 46 125 9 9 4 sky130_fd_sc_hd__dfrtp_1
* cell instance $384 m0 *1 46.92,24.48
X$384 9 113 71 123 9 4 4 sky130_fd_sc_hd__nand2_1
* cell instance $385 m0 *1 48.3,24.48
X$385 9 114 70 82 4 9 4 sky130_fd_sc_hd__nor2_1
* cell instance $386 m0 *1 49.68,24.48
X$386 4 145 104 121 143 71 64 9 9 4 sky130_fd_sc_hd__o32ai_1
* cell instance $387 m0 *1 52.9,24.48
X$387 9 105 9 4 121 4 sky130_fd_sc_hd__inv_1
* cell instance $396 m0 *1 75.44,24.48
X$396 4 106 142 115 79 9 9 4 sky130_fd_sc_hd__and3_1
* cell instance $398 m0 *1 78.2,24.48
X$398 9 31 32 106 4 9 4 sky130_fd_sc_hd__nor2_1
* cell instance $399 m0 *1 79.58,24.48
X$399 9 120 4 9 116 4 sky130_fd_sc_hd__dlygate4sd1_1
* cell instance $400 m0 *1 82.8,24.48
X$400 9 116 115 78 4 9 4 sky130_fd_sc_hd__nor2_1
* cell instance $402 m0 *1 84.64,24.48
X$402 4 32 117 31 115 120 9 9 4 sky130_fd_sc_hd__or4_4
* cell instance $403 m0 *1 88.78,24.48
X$403 4 139 78 79 98 21 72 9 9 4 sky130_fd_sc_hd__a32o_2
* cell instance $404 m0 *1 92.92,24.48
X$404 4 91 98 99 16 12 9 9 4 sky130_fd_sc_hd__and4b_1
* cell instance $406 m0 *1 97.06,24.48
X$406 9 92 4 9 73 4 sky130_fd_sc_hd__dlygate4sd1_1
* cell instance $407 m0 *1 100.28,24.48
X$407 4 29 94 49 135 9 9 4 sky130_fd_sc_hd__dfrtp_1
* cell instance $413 r0 *1 8.28,24.48
X$413 9 85 159 226 9 158 4 4 sky130_fd_sc_hd__o21ai_0
* cell instance $414 r0 *1 10.12,24.48
X$414 9 68 76 126 4 9 157 4 sky130_fd_sc_hd__a21oi_1
* cell instance $416 r0 *1 13.8,24.48
X$416 9 109 9 4 161 4 sky130_fd_sc_hd__inv_1
* cell instance $422 r0 *1 16.1,24.48
X$422 9 57 68 88 4 9 4 sky130_fd_sc_hd__nor2_1
* cell instance $423 r0 *1 17.48,24.48
X$423 9 37 70 57 164 4 9 4 sky130_fd_sc_hd__nor3b_1
* cell instance $424 r0 *1 20.24,24.48
X$424 4 169 150 55 122 167 9 9 4 sky130_fd_sc_hd__nand4b_4
* cell instance $425 r0 *1 28.98,24.48
X$425 9 68 122 171 4 9 89 4 sky130_fd_sc_hd__a21oi_1
* cell instance $427 r0 *1 31.74,24.48
X$427 4 4 137 9 147 213 9 sky130_fd_sc_hd__nor2_2
* cell instance $428 r0 *1 34.04,24.48
X$428 9 57 122 51 127 9 172 4 4 sky130_fd_sc_hd__a22oi_1
* cell instance $429 r0 *1 36.8,24.48
X$429 9 58 70 83 174 4 9 4 sky130_fd_sc_hd__nor3_1
* cell instance $430 r0 *1 38.64,24.48
X$430 9 148 101 175 85 63 4 9 4 sky130_fd_sc_hd__o22ai_1
* cell instance $431 r0 *1 40.94,24.48
X$431 9 114 9 4 85 4 sky130_fd_sc_hd__clkbuf_2
* cell instance $436 r0 *1 43.24,24.48
X$436 9 144 70 83 129 4 9 4 sky130_fd_sc_hd__nor3_1
* cell instance $437 r0 *1 45.08,24.48
X$437 9 58 105 149 144 9 4 4 sky130_fd_sc_hd__or3_1
* cell instance $438 r0 *1 47.38,24.48
X$438 9 58 150 151 9 177 4 4 sky130_fd_sc_hd__o21ai_0
* cell instance $439 r0 *1 49.22,24.48
X$439 9 71 82 128 4 9 145 4 sky130_fd_sc_hd__a21oi_1
* cell instance $440 r0 *1 51.06,24.48
X$440 9 129 349 70 4 9 143 4 sky130_fd_sc_hd__a21oi_1
* cell instance $441 r0 *1 52.9,24.48
X$441 9 58 149 83 128 9 4 4 sky130_fd_sc_hd__or3_1
* cell instance $443 r0 *1 55.66,24.48
X$443 4 179 27 130 9 9 4 sky130_fd_sc_hd__dfxtp_1
* cell instance $452 r0 *1 74.98,24.48
X$452 9 142 153 120 131 4 107 9 4 sky130_fd_sc_hd__a22o_1
* cell instance $453 r0 *1 78.2,24.48
X$453 4 31 100 120 115 32 9 9 4 sky130_fd_sc_hd__nor4_4
* cell instance $454 r0 *1 86.02,24.48
X$454 4 72 141 97 21 78 79 9 9 4 sky130_fd_sc_hd__a32oi_2
* cell instance $455 r0 *1 92,24.48
X$455 4 102 97 16 131 153 12 9 9 4 sky130_fd_sc_hd__a32o_1
* cell instance $456 r0 *1 95.68,24.48
X$456 9 166 100 136 132 9 170 4 4 sky130_fd_sc_hd__nand4_1
* cell instance $461 r0 *1 98.44,24.48
X$461 9 30 255 5 133 4 163 9 4 sky130_fd_sc_hd__nor4b_1
* cell instance $462 r0 *1 101.66,24.48
X$462 4 135 28 5 43 9 9 4 sky130_fd_sc_hd__mux2_1
* cell instance $463 r0 *1 105.8,24.48
X$463 4 5 156 133 34 134 9 9 4 sky130_fd_sc_hd__or4_4
* cell instance $464 m0 *1 1.38,29.92
X$464 4 29 197 36 158 9 9 4 sky130_fd_sc_hd__dfrtp_1
* cell instance $466 m0 *1 11.04,29.92
X$466 4 160 190 76 168 9 9 4 sky130_fd_sc_hd__and3_1
* cell instance $467 m0 *1 13.34,29.92
X$467 9 180 182 181 162 4 9 110 4 sky130_fd_sc_hd__a31oi_1
* cell instance $468 m0 *1 15.64,29.92
X$468 4 76 162 161 168 9 9 4 sky130_fd_sc_hd__and3_1
* cell instance $469 m0 *1 17.94,29.92
X$469 9 180 182 191 164 4 9 165 4 sky130_fd_sc_hd__a31oi_1
* cell instance $470 m0 *1 20.24,29.92
X$470 4 83 55 140 169 9 9 4 sky130_fd_sc_hd__nand3b_2
* cell instance $472 m0 *1 24.84,29.92
X$472 9 147 9 4 168 4 sky130_fd_sc_hd__clkbuf_2
* cell instance $473 m0 *1 26.68,29.92
X$473 4 168 201 38 171 9 9 4 sky130_fd_sc_hd__and3_1
* cell instance $475 m0 *1 29.44,29.92
X$475 4 56 76 51 127 9 9 4 sky130_fd_sc_hd__nor3_2
* cell instance $476 m0 *1 33.12,29.92
X$476 9 180 182 352 183 4 9 173 4 sky130_fd_sc_hd__a31oi_1
* cell instance $477 m0 *1 35.42,29.92
X$477 9 180 182 194 174 4 9 175 4 sky130_fd_sc_hd__a31oi_1
* cell instance $479 m0 *1 38.18,29.92
X$479 9 114 151 232 4 9 4 sky130_fd_sc_hd__nor2b_1
* cell instance $481 m0 *1 40.94,29.92
X$481 4 176 195 196 83 184 185 9 9 4 sky130_fd_sc_hd__o311a_1
* cell instance $482 m0 *1 44.62,29.92
X$482 9 150 144 215 4 9 4 sky130_fd_sc_hd__nor2_1
* cell instance $483 m0 *1 46,29.92
X$483 9 152 151 149 64 4 9 216 4 sky130_fd_sc_hd__a31oi_1
* cell instance $484 m0 *1 48.3,29.92
X$484 9 149 186 177 4 9 246 4 sky130_fd_sc_hd__a21oi_1
* cell instance $486 m0 *1 51.06,29.92
X$486 4 186 179 187 70 9 9 4 sky130_fd_sc_hd__nand3_2
* cell instance $487 m0 *1 54.74,29.92
X$487 9 82 179 187 4 9 214 4 sky130_fd_sc_hd__a21oi_1
* cell instance $489 m0 *1 57.04,29.92
X$489 9 114 108 187 4 9 4 sky130_fd_sc_hd__nor2_1
* cell instance $492 m0 *1 62.56,29.92
X$492 4 29 130 27 238 9 9 4 sky130_fd_sc_hd__dfstp_1
* cell instance $494 m0 *1 72.68,29.92
X$494 9 5 9 4 193 4 sky130_fd_sc_hd__inv_1
* cell instance $495 m0 *1 74.06,29.92
X$495 9 204 116 9 206 4 4 sky130_fd_sc_hd__xor2_1
* cell instance $496 m0 *1 77.28,29.92
X$496 9 115 106 79 116 9 192 4 4 sky130_fd_sc_hd__nand4b_1
* cell instance $497 m0 *1 80.5,29.92
X$497 9 100 136 103 178 9 4 4 sky130_fd_sc_hd__nand3_1
* cell instance $498 m0 *1 82.34,29.92
X$498 9 154 170 188 9 212 4 4 sky130_fd_sc_hd__o21ai_0
* cell instance $500 m0 *1 84.64,29.92
X$500 9 34 13 211 4 9 4 sky130_fd_sc_hd__nand2b_1
* cell instance $501 m0 *1 86.94,29.92
X$501 4 4 24 188 25 9 9 sky130_fd_sc_hd__nand2_2
* cell instance $502 m0 *1 89.24,29.92
X$502 4 156 98 117 210 189 9 9 4 sky130_fd_sc_hd__nor4_4
* cell instance $503 m0 *1 97.06,29.92
X$503 4 16 209 12 33 92 9 9 4 sky130_fd_sc_hd__or4_4
* cell instance $504 m0 *1 101.2,29.92
X$504 4 12 132 16 33 92 9 9 4 sky130_fd_sc_hd__nor4_4
* cell instance $506 r0 *1 1.38,29.92
X$506 4 29 198 36 225 9 9 4 sky130_fd_sc_hd__dfrtp_1
* cell instance $508 r0 *1 11.04,29.92
X$508 9 198 109 197 160 4 9 4 sky130_fd_sc_hd__nor3_1
* cell instance $509 r0 *1 12.88,29.92
X$509 9 180 182 217 200 4 9 146 4 sky130_fd_sc_hd__a31oi_1
* cell instance $514 r0 *1 15.64,29.92
X$514 9 68 161 140 4 9 199 4 sky130_fd_sc_hd__a21oi_1
* cell instance $515 r0 *1 17.48,29.92
X$515 4 260 169 198 109 197 9 9 4 sky130_fd_sc_hd__nor4_4
* cell instance $516 r0 *1 25.3,29.92
X$516 9 180 182 346 201 4 9 119 4 sky130_fd_sc_hd__a31oi_1
* cell instance $517 r0 *1 27.6,29.92
X$517 9 213 4 180 9 4 sky130_fd_sc_hd__buf_2
* cell instance $518 r0 *1 29.44,29.92
X$518 9 265 202 112 4 9 4 sky130_fd_sc_hd__or2_0
* cell instance $519 r0 *1 31.74,29.92
X$519 9 202 9 4 231 4 sky130_fd_sc_hd__inv_1
* cell instance $520 r0 *1 33.12,29.92
X$520 9 151 195 150 9 147 4 4 sky130_fd_sc_hd__o21a_1
* cell instance $521 r0 *1 35.88,29.92
X$521 4 195 232 150 68 9 9 4 sky130_fd_sc_hd__o21ai_4
* cell instance $527 r0 *1 43.24,29.92
X$527 4 203 185 113 144 83 151 9 9 4 sky130_fd_sc_hd__o311ai_0
* cell instance $528 r0 *1 46.46,29.92
X$528 4 29 149 46 236 9 9 4 sky130_fd_sc_hd__dfrtp_1
* cell instance $529 r0 *1 55.66,29.92
X$529 9 179 187 213 9 4 4 sky130_fd_sc_hd__nand2_1
* cell instance $531 r0 *1 57.5,29.92
X$531 9 187 9 4 237 4 sky130_fd_sc_hd__inv_1
* cell instance $532 r0 *1 58.88,29.92
X$532 9 114 4 64 9 4 sky130_fd_sc_hd__buf_2
* cell instance $533 r0 *1 60.72,29.92
X$533 4 29 221 27 214 9 9 4 sky130_fd_sc_hd__dfstp_2
* cell instance $541 r0 *1 74.06,29.92
X$541 9 210 233 155 4 9 4 sky130_fd_sc_hd__nor2_1
* cell instance $542 r0 *1 75.44,29.92
X$542 9 205 192 65 4 9 4 sky130_fd_sc_hd__nor2_1
* cell instance $543 r0 *1 76.82,29.92
X$543 9 206 79 106 35 4 9 239 4 sky130_fd_sc_hd__a31oi_1
* cell instance $545 r0 *1 79.58,29.92
X$545 9 115 4 9 204 4 sky130_fd_sc_hd__dlygate4sd1_1
* cell instance $546 r0 *1 82.8,29.92
X$546 9 205 222 235 4 9 4 sky130_fd_sc_hd__nor2_1
* cell instance $547 r0 *1 84.18,29.92
X$547 9 33 44 9 18 4 4 sky130_fd_sc_hd__xor2_1
* cell instance $548 r0 *1 87.4,29.92
X$548 9 155 223 207 4 234 9 4 sky130_fd_sc_hd__o21ai_2
* cell instance $549 r0 *1 90.62,29.92
X$549 4 209 207 156 117 9 9 4 sky130_fd_sc_hd__nor3_4
* cell instance $553 r0 *1 96.6,29.92
X$553 9 60 41 228 4 9 4 sky130_fd_sc_hd__nor2_1
* cell instance $555 r0 *1 98.44,29.92
X$555 4 208 189 224 33 44 9 9 4 sky130_fd_sc_hd__or4_4
* cell instance $556 r0 *1 102.58,29.92
X$556 4 4 136 9 224 208 9 sky130_fd_sc_hd__nor2_2
* cell instance $558 r0 *1 105.34,29.92
X$558 4 227 132 9 9 4 sky130_fd_sc_hd__dlymetal6s2s_1
* cell instance $562 m0 *1 7.36,35.36
X$562 9 137 157 197 9 226 4 4 sky130_fd_sc_hd__o21ai_0
* cell instance $563 m0 *1 9.2,35.36
X$563 9 180 182 240 190 4 9 159 4 sky130_fd_sc_hd__a31oi_1
* cell instance $564 m0 *1 11.5,35.36
X$564 9 68 160 140 4 9 273 4 sky130_fd_sc_hd__a21oi_1
* cell instance $565 m0 *1 13.34,35.36
X$565 4 168 247 126 140 9 9 4 sky130_fd_sc_hd__and3_1
* cell instance $566 m0 *1 15.64,35.36
X$566 9 137 199 198 9 218 4 4 sky130_fd_sc_hd__o21ai_0
* cell instance $567 m0 *1 17.48,35.36
X$567 9 85 241 218 9 225 4 4 sky130_fd_sc_hd__o21ai_0
* cell instance $568 m0 *1 19.32,35.36
X$568 4 168 229 169 140 9 9 4 sky130_fd_sc_hd__and3_1
* cell instance $569 m0 *1 21.62,35.36
X$569 9 256 168 140 4 9 118 4 sky130_fd_sc_hd__a21oi_1
* cell instance $570 m0 *1 23.46,35.36
X$570 4 248 57 231 242 9 9 4 sky130_fd_sc_hd__ha_1
* cell instance $573 m0 *1 29.44,35.36
X$573 9 203 186 278 4 9 230 4 sky130_fd_sc_hd__a21oi_1
* cell instance $574 m0 *1 31.28,35.36
X$574 9 196 4 70 9 4 sky130_fd_sc_hd__clkbuf_4
* cell instance $575 m0 *1 34.04,35.36
X$575 9 150 195 151 4 196 9 4 sky130_fd_sc_hd__o21ai_2
* cell instance $577 m0 *1 37.72,35.36
X$577 4 29 203 46 258 9 9 4 sky130_fd_sc_hd__dfrtp_1
* cell instance $578 m0 *1 46.92,35.36
X$578 9 203 113 144 9 4 195 4 sky130_fd_sc_hd__or3_2
* cell instance $579 m0 *1 49.68,35.36
X$579 9 246 186 219 4 9 236 4 sky130_fd_sc_hd__a21oi_1
* cell instance $580 m0 *1 51.52,35.36
X$580 9 334 70 213 184 9 4 4 sky130_fd_sc_hd__nand3_1
* cell instance $581 m0 *1 53.36,35.36
X$581 9 292 168 216 9 219 4 4 sky130_fd_sc_hd__o21ai_0
* cell instance $582 m0 *1 55.2,35.36
X$582 9 58 150 152 4 9 4 sky130_fd_sc_hd__nor2_1
* cell instance $584 m0 *1 57.04,35.36
X$584 4 29 245 27 237 9 9 4 sky130_fd_sc_hd__dfstp_1
* cell instance $587 m0 *1 69.46,35.36
X$587 9 243 220 205 4 9 238 4 sky130_fd_sc_hd__a21o_1
* cell instance $588 m0 *1 72.22,35.36
X$588 9 221 257 130 4 9 243 4 sky130_fd_sc_hd__a21o_1
* cell instance $590 m0 *1 75.44,35.36
X$590 9 253 141 282 9 4 4 sky130_fd_sc_hd__nand2_1
* cell instance $591 m0 *1 76.82,35.36
X$591 9 141 234 253 192 9 257 4 4 sky130_fd_sc_hd__nand4_1
* cell instance $593 m0 *1 80.04,35.36
X$593 9 212 254 221 9 220 4 4 sky130_fd_sc_hd__o21ai_0
* cell instance $594 m0 *1 81.88,35.36
X$594 4 136 24 100 103 9 9 4 sky130_fd_sc_hd__and3_1
* cell instance $597 m0 *1 85.56,35.36
X$597 9 30 93 33 92 4 75 9 4 sky130_fd_sc_hd__nor4b_1
* cell instance $598 m0 *1 88.78,35.36
X$598 9 208 224 233 9 4 4 sky130_fd_sc_hd__xnor2_1
* cell instance $599 m0 *1 92,35.36
X$599 4 103 166 79 136 132 9 9 4 sky130_fd_sc_hd__and4_2
* cell instance $600 m0 *1 95.68,35.36
X$600 9 60 244 41 223 4 9 4 sky130_fd_sc_hd__nor3b_1
* cell instance $601 m0 *1 98.44,35.36
X$601 9 134 4 9 13 4 sky130_fd_sc_hd__dlygate4sd1_1
* cell instance $602 m0 *1 101.66,35.36
X$602 4 211 25 133 5 209 9 9 4 sky130_fd_sc_hd__nor4_4
* cell instance $607 r0 *1 9.2,35.36
X$607 9 198 109 126 4 9 4 sky130_fd_sc_hd__nor2_1
* cell instance $608 r0 *1 10.58,35.36
X$608 9 137 273 260 9 261 4 4 sky130_fd_sc_hd__o21ai_0
* cell instance $609 r0 *1 12.42,35.36
X$609 9 180 182 345 229 4 9 274 4 sky130_fd_sc_hd__a31oi_1
* cell instance $613 r0 *1 15.64,35.36
X$613 9 180 182 263 247 4 9 241 4 sky130_fd_sc_hd__a31oi_1
* cell instance $614 r0 *1 17.94,35.36
X$614 9 248 70 249 4 9 4 sky130_fd_sc_hd__nor2_1
* cell instance $615 r0 *1 19.32,35.36
X$615 9 180 182 264 249 4 9 276 4 sky130_fd_sc_hd__a31oi_1
* cell instance $616 r0 *1 21.62,35.36
X$616 9 276 250 186 242 275 4 9 4 sky130_fd_sc_hd__o22ai_1
* cell instance $617 r0 *1 23.92,35.36
X$617 4 29 202 36 279 9 9 4 sky130_fd_sc_hd__dfrtp_1
* cell instance $618 r0 *1 33.12,35.36
X$618 9 150 144 151 9 278 4 4 sky130_fd_sc_hd__o21ai_0
* cell instance $619 r0 *1 34.96,35.36
X$619 4 196 256 251 213 9 9 4 sky130_fd_sc_hd__and3_1
* cell instance $620 r0 *1 37.26,35.36
X$620 9 168 281 302 4 9 4 sky130_fd_sc_hd__nor2_1
* cell instance $621 r0 *1 38.64,35.36
X$621 9 230 186 266 4 9 258 4 sky130_fd_sc_hd__a21oi_1
* cell instance $622 r0 *1 40.48,35.36
X$622 9 215 151 203 64 4 9 267 4 sky130_fd_sc_hd__a31oi_1
* cell instance $625 r0 *1 43.24,35.36
X$625 4 46 9 9 4 sky130_fd_sc_hd__clkbuf_8
* cell instance $627 r0 *1 49.22,35.36
X$627 9 6 262 304 4 9 4 sky130_fd_sc_hd__or2_0
* cell instance $628 r0 *1 51.52,35.36
X$628 9 284 168 267 9 266 4 4 sky130_fd_sc_hd__o21ai_0
* cell instance $633 r0 *1 60.26,35.36
X$633 9 245 108 285 4 9 4 sky130_fd_sc_hd__nor2b_1
* cell instance $637 r0 *1 67.62,35.36
X$637 9 286 268 252 287 4 9 4 sky130_fd_sc_hd__nand3b_1
* cell instance $642 r0 *1 72.22,35.36
X$642 9 283 288 252 9 316 4 4 sky130_fd_sc_hd__o21a_1
* cell instance $645 r0 *1 76.36,35.36
X$645 9 138 228 154 9 4 4 sky130_fd_sc_hd__nand2_1
* cell instance $646 r0 *1 77.74,35.36
X$646 9 269 239 188 234 9 270 4 4 sky130_fd_sc_hd__nand4_1
* cell instance $647 r0 *1 80.04,35.36
X$647 9 139 254 270 271 4 289 9 4 sky130_fd_sc_hd__nor4b_1
* cell instance $648 r0 *1 83.26,35.36
X$648 4 239 222 188 296 234 9 9 4 sky130_fd_sc_hd__and4_4
* cell instance $649 r0 *1 87.4,35.36
X$649 9 222 4 9 269 4 sky130_fd_sc_hd__dlygate4sd1_1
* cell instance $650 r0 *1 90.62,35.36
X$650 4 228 207 136 138 9 222 9 4 sky130_fd_sc_hd__nand4_2
* cell instance $651 r0 *1 95.22,35.36
X$651 9 49 9 4 4 sky130_fd_sc_hd__clkinvlp_4
* cell instance $654 r0 *1 98.44,35.36
X$654 9 60 138 41 210 9 4 4 sky130_fd_sc_hd__or3_1
* cell instance $655 r0 *1 100.74,35.36
X$655 4 133 166 134 5 34 9 9 4 sky130_fd_sc_hd__nor4_4
* cell instance $656 r0 *1 108.56,35.36
X$656 9 91 24 30 9 4 4 sky130_fd_sc_hd__nand2_1
* cell instance $666 m0 *1 2.3,40.8
X$666 4 29 260 36 259 9 9 4 sky130_fd_sc_hd__dfrtp_1
* cell instance $668 m0 *1 11.96,40.8
X$668 9 262 274 261 9 259 4 4 sky130_fd_sc_hd__o21ai_0
* cell instance $669 m0 *1 13.8,40.8
X$669 9 299 754 4 9 4 sky130_fd_sc_hd__clkbuf_1
* cell instance $672 m0 *1 17.48,40.8
X$672 9 150 70 200 4 9 4 sky130_fd_sc_hd__nor2_1
* cell instance $673 m0 *1 18.86,40.8
X$673 4 29 265 36 275 9 9 4 sky130_fd_sc_hd__dfrtp_1
* cell instance $676 m0 *1 29.44,40.8
X$676 9 186 231 280 250 279 4 9 4 sky130_fd_sc_hd__o22ai_1
* cell instance $677 m0 *1 31.74,40.8
X$677 9 302 231 168 4 9 280 4 sky130_fd_sc_hd__a21oi_1
* cell instance $678 m0 *1 33.58,40.8
X$678 9 202 213 301 9 281 4 4 sky130_fd_sc_hd__o21ai_0
* cell instance $680 m0 *1 35.88,40.8
X$680 9 196 4 182 9 4 sky130_fd_sc_hd__buf_2
* cell instance $681 m0 *1 37.72,40.8
X$681 4 290 46 9 9 4 sky130_fd_sc_hd__clkbuf_16
* cell instance $682 m0 *1 46.92,40.8
X$682 4 29 286 291 304 9 9 4 sky130_fd_sc_hd__dfstp_1
* cell instance $686 m0 *1 58.42,40.8
X$686 4 285 305 27 286 9 9 4 sky130_fd_sc_hd__edfxtp_1
* cell instance $687 m0 *1 69.46,40.8
X$687 4 290 27 9 9 4 sky130_fd_sc_hd__clkbuf_16
* cell instance $688 m0 *1 78.66,40.8
X$688 9 268 253 294 306 9 4 4 sky130_fd_sc_hd__o21ba_1
* cell instance $689 m0 *1 82.34,40.8
X$689 9 132 4 272 9 4 sky130_fd_sc_hd__buf_2
* cell instance $691 m0 *1 84.64,40.8
X$691 4 295 100 166 132 9 9 4 sky130_fd_sc_hd__nand3_2
* cell instance $692 m0 *1 88.32,40.8
X$692 9 221 296 303 282 254 9 283 4 4 sky130_fd_sc_hd__o2111ai_1
* cell instance $693 m0 *1 91.54,40.8
X$693 4 300 41 244 295 60 9 9 4 sky130_fd_sc_hd__nor4b_4
* cell instance $694 m0 *1 100.28,40.8
X$694 4 277 272 10 24 9 253 9 4 sky130_fd_sc_hd__nand4_2
* cell instance $696 m0 *1 105.34,40.8
X$696 4 15 166 9 9 4 sky130_fd_sc_hd__dlymetal6s2s_1
* cell instance $701 r0 *1 10.12,40.8
X$701 4 36 9 9 4 sky130_fd_sc_hd__clkbuf_8
* cell instance $706 r0 *1 15.64,40.8
X$706 4 290 36 9 9 4 sky130_fd_sc_hd__clkbuf_16
* cell instance $707 r0 *1 24.84,40.8
X$707 9 308 264 319 4 9 4 sky130_fd_sc_hd__nor2b_1
* cell instance $708 r0 *1 27.14,40.8
X$708 9 265 9 4 242 4 sky130_fd_sc_hd__inv_1
* cell instance $709 r0 *1 28.52,40.8
X$709 9 202 265 171 4 9 4 sky130_fd_sc_hd__nor2_1
* cell instance $713 r0 *1 33.12,40.8
X$713 4 29 181 46 315 9 9 4 sky130_fd_sc_hd__dfstp_1
* cell instance $718 r0 *1 43.24,40.8
X$718 4 291 9 9 4 sky130_fd_sc_hd__clkbuf_8
* cell instance $719 r0 *1 48.3,40.8
X$719 9 114 4 262 9 4 sky130_fd_sc_hd__buf_2
* cell instance $721 r0 *1 51.98,40.8
X$721 4 29 310 291 321 9 9 4 sky130_fd_sc_hd__dfstp_1
* cell instance $722 r0 *1 61.64,40.8
X$722 9 64 4 250 9 4 sky130_fd_sc_hd__clkbuf_4
* cell instance $724 r0 *1 64.86,40.8
X$724 9 27 752 9 4 4 sky130_fd_sc_hd__clkinv_2
* cell instance $725 r0 *1 66.7,40.8
X$725 9 293 9 4 4 sky130_fd_sc_hd__clkinvlp_4
* cell instance $731 r0 *1 70.84,40.8
X$731 4 290 293 9 9 4 sky130_fd_sc_hd__clkbuf_16
* cell instance $732 r0 *1 80.04,40.8
X$732 4 324 271 294 270 254 9 9 4 sky130_fd_sc_hd__nor4_2
* cell instance $733 r0 *1 84.64,40.8
X$733 4 311 271 136 9 9 4 sky130_fd_sc_hd__nand2_4
* cell instance $734 r0 *1 88.78,40.8
X$734 4 290 49 9 9 4 sky130_fd_sc_hd__clkbuf_16
* cell instance $739 r0 *1 98.44,40.8
X$739 9 41 60 313 9 4 4 sky130_fd_sc_hd__xnor2_1
* cell instance $740 r0 *1 101.66,40.8
X$740 9 300 314 254 4 9 4 sky130_fd_sc_hd__or2_1
* cell instance $741 r0 *1 103.96,40.8
X$741 4 43 133 297 312 9 9 4 sky130_fd_sc_hd__mux2_4
* cell instance $747 m0 *1 8.28,46.24
X$747 4 29 264 299 318 9 9 4 sky130_fd_sc_hd__dfstp_1
* cell instance $748 m0 *1 17.94,46.24
X$748 4 290 299 9 9 4 sky130_fd_sc_hd__clkbuf_16
* cell instance $753 m0 *1 34.96,46.24
X$753 9 329 262 309 308 9 315 4 4 sky130_fd_sc_hd__a211o_1
* cell instance $754 m0 *1 38.18,46.24
X$754 4 290 291 9 9 4 sky130_fd_sc_hd__clkbuf_16
* cell instance $755 m0 *1 47.38,46.24
X$755 4 29 330 291 320 9 9 4 sky130_fd_sc_hd__dfrtp_1
* cell instance $757 m0 *1 57.04,46.24
X$757 9 286 108 310 64 332 4 9 4 sky130_fd_sc_hd__nor4bb_1
* cell instance $758 m0 *1 60.72,46.24
X$758 9 108 310 322 9 4 4 sky130_fd_sc_hd__nand2_1
* cell instance $760 m0 *1 63.94,46.24
X$760 4 29 252 293 316 9 9 4 sky130_fd_sc_hd__dfstp_1
* cell instance $761 m0 *1 73.6,46.24
X$761 4 29 268 49 331 9 9 4 sky130_fd_sc_hd__dfrtp_1
* cell instance $762 m0 *1 82.8,46.24
X$762 9 210 295 311 4 9 4 sky130_fd_sc_hd__nor2_1
* cell instance $765 m0 *1 86.48,46.24
X$765 9 5 133 9 277 4 4 sky130_fd_sc_hd__xor2_1
* cell instance $766 m0 *1 89.7,46.24
X$766 9 5 133 34 134 4 19 9 4 sky130_fd_sc_hd__nor4b_1
* cell instance $767 m0 *1 92.92,46.24
X$767 4 290 327 9 9 4 sky130_fd_sc_hd__clkbuf_16
* cell instance $768 m0 *1 102.12,46.24
X$768 4 43 60 163 326 9 9 4 sky130_fd_sc_hd__mux2_4
* cell instance $769 m0 *1 107.64,46.24
X$769 9 295 244 313 325 9 4 4 sky130_fd_sc_hd__or3_1
* cell instance $770 r0 *1 1.38,46.24
X$770 4 29 240 299 317 9 9 4 sky130_fd_sc_hd__dfstp_1
* cell instance $771 r0 *1 11.04,46.24
X$771 9 358 307 337 240 317 4 9 4 sky130_fd_sc_hd__o22a_1
* cell instance $775 r0 *1 15.64,46.24
X$775 9 319 262 359 308 9 318 4 4 sky130_fd_sc_hd__a211o_1
* cell instance $776 r0 *1 18.86,46.24
X$776 9 333 263 338 4 9 4 sky130_fd_sc_hd__nor2b_1
* cell instance $778 r0 *1 22.08,46.24
X$778 4 29 301 299 339 9 9 4 sky130_fd_sc_hd__dfstp_1
* cell instance $779 r0 *1 31.74,46.24
X$779 4 29 251 291 341 9 9 4 sky130_fd_sc_hd__dfstp_1
* cell instance $784 r0 *1 43.24,46.24
X$784 4 29 284 291 343 9 9 4 sky130_fd_sc_hd__dfstp_1
* cell instance $785 r0 *1 52.9,46.24
X$785 9 321 322 320 4 9 4 sky130_fd_sc_hd__nor2_1
* cell instance $786 r0 *1 54.28,46.24
X$786 9 286 114 321 4 9 4 sky130_fd_sc_hd__or2_0
* cell instance $788 r0 *1 57.5,46.24
X$788 4 29 344 293 332 9 9 4 sky130_fd_sc_hd__dfrtp_1
* cell instance $791 r0 *1 68.08,46.24
X$791 4 4 294 9 221 35 9 sky130_fd_sc_hd__nor2_2
* cell instance $795 r0 *1 71.76,46.24
X$795 9 306 289 294 331 9 4 4 sky130_fd_sc_hd__o21ba_1
* cell instance $796 r0 *1 75.44,46.24
X$796 4 335 43 9 9 4 sky130_fd_sc_hd__buf_6
* cell instance $797 r0 *1 79.58,46.24
X$797 4 323 271 296 153 336 340 9 9 4 sky130_fd_sc_hd__a41oi_4
* cell instance $799 r0 *1 90.16,46.24
X$799 9 20 178 8 9 314 4 4 sky130_fd_sc_hd__a21oi_2
* cell instance $800 r0 *1 93.38,46.24
X$800 4 328 178 255 277 9 9 4 sky130_fd_sc_hd__nor3b_2
* cell instance $804 r0 *1 99.36,46.24
X$804 4 29 60 327 326 9 9 4 sky130_fd_sc_hd__dfrtp_2
* cell instance $817 m0 *1 4.6,51.68
X$817 4 29 217 299 389 9 9 4 sky130_fd_sc_hd__dfstp_1
* cell instance $818 m0 *1 14.26,51.68
X$818 4 29 263 299 369 9 9 4 sky130_fd_sc_hd__dfstp_1
* cell instance $820 m0 *1 25.76,51.68
X$820 9 347 262 307 308 9 339 4 4 sky130_fd_sc_hd__a211o_1
* cell instance $822 m0 *1 29.44,51.68
X$822 9 308 301 347 4 9 4 sky130_fd_sc_hd__nor2b_1
* cell instance $824 m0 *1 32.66,51.68
X$824 9 333 181 329 4 9 4 sky130_fd_sc_hd__nor2b_1
* cell instance $825 m0 *1 34.96,51.68
X$825 9 333 251 348 4 9 4 sky130_fd_sc_hd__nor2b_1
* cell instance $826 m0 *1 37.26,51.68
X$826 9 348 262 342 308 9 341 4 4 sky130_fd_sc_hd__a211o_1
* cell instance $827 m0 *1 40.48,51.68
X$827 4 29 334 291 354 9 9 4 sky130_fd_sc_hd__dfstp_1
* cell instance $828 m0 *1 50.14,51.68
X$828 9 358 309 337 284 343 4 9 4 sky130_fd_sc_hd__o22a_1
* cell instance $833 m0 *1 57.04,51.68