* CDL Netlist generated by OpenROAD

*.BUSDELIMITER [

.SUBCKT i2c_master_top arst_i scl_pad_i scl_pad_o scl_padoen_o
+ sda_pad_i sda_pad_o sda_padoen_o wb_ack_o wb_adr_i[0] wb_adr_i[1]
+ wb_adr_i[2] wb_clk_i wb_cyc_i wb_dat_i[0] wb_dat_i[1] wb_dat_i[2]
+ wb_dat_i[3] wb_dat_i[4] wb_dat_i[5] wb_dat_i[6] wb_dat_i[7]
+ wb_dat_o[0] wb_dat_o[1] wb_dat_o[2] wb_dat_o[3] wb_dat_o[4]
+ wb_dat_o[5] wb_dat_o[6] wb_dat_o[7] wb_inta_o wb_rst_i wb_stb_i
+ wb_we_i
X_0538_ byte_controller.cmd_ack VSS VSS VDD VDD _0120_ sky130_fd_sc_hd__inv_1
X_0539_ byte_controller.read byte_controller.write byte_controller.stop
+ VSS VSS VDD VDD _0121_ sky130_fd_sc_hd__or3_1
X_0540_ _0120_ byte_controller.start byte_controller.c_state\[0\]
+ _0121_ VSS VSS VDD VDD _0122_ sky130_fd_sc_hd__nand4_1
X_0541_ byte_controller.bit_controller.cmd_ack VSS VSS VDD
+ VDD _0123_ sky130_fd_sc_hd__buf_2
X_0542_ _0123_ VSS VSS VDD VDD _0124_ sky130_fd_sc_hd__inv_1
X_0543_ _0124_ byte_controller.c_state\[5\] VSS VSS VDD VDD
+ _0125_ sky130_fd_sc_hd__nand2_1
X_0544_ net15 byte_controller.bit_controller.al VSS VSS VDD
+ VDD _0126_ sky130_fd_sc_hd__or2_0
X_0545_ _0126_ VSS VSS VDD VDD _0127_ sky130_fd_sc_hd__buf_2
X_0546_ _0127_ VSS VSS VDD VDD _0128_ sky130_fd_sc_hd__clkbuf_4
X_0547_ _0122_ _0125_ _0128_ VSS VSS VDD VDD _0011_ sky130_fd_sc_hd__a21oi_1
X_0548_ _0123_ _0128_ VSS VSS VDD VDD _0129_ sky130_fd_sc_hd__nor2_1
X_0549_ byte_controller.stop VSS VSS VDD VDD _0130_ sky130_fd_sc_hd__inv_1
X_0550_ byte_controller.c_state\[2\] VSS VSS VDD VDD _0131_
+ sky130_fd_sc_hd__clkbuf_2
X_0551_ _0131_ _0123_ VSS VSS VDD VDD _0132_ sky130_fd_sc_hd__nand2_1
X_0552_ byte_controller.read byte_controller.write VSS VSS
+ VDD VDD _0133_ sky130_fd_sc_hd__nor2_1
X_0553_ _0120_ byte_controller.c_state\[0\] _0121_ VSS VSS
+ VDD VDD _0134_ sky130_fd_sc_hd__nand3_1
X_0554_ byte_controller.start _0127_ _0134_ VSS VSS VDD VDD
+ _0135_ sky130_fd_sc_hd__nor3_1
X_0555_ _0133_ _0135_ VSS VSS VDD VDD _0136_ sky130_fd_sc_hd__nand2_1
X_0556_ _0130_ _0127_ _0132_ _0136_ VSS VSS VDD VDD _0137_
+ sky130_fd_sc_hd__o31ai_2
X_0557_ byte_controller.c_state\[1\] _0129_ _0137_ VSS VSS
+ VDD VDD _0007_ sky130_fd_sc_hd__a21o_1
X_0558_ byte_controller.read byte_controller.write byte_controller.stop
+ VSS VSS VDD VDD _0138_ sky130_fd_sc_hd__nor3_1
X_0559_ byte_controller.cmd_ack _0138_ byte_controller.c_state\[0\]
+ VSS VSS VDD VDD _0139_ sky130_fd_sc_hd__o21ai_1
X_0560_ byte_controller.c_state\[5\] byte_controller.c_state\[1\]
+ byte_controller.c_state\[3\] byte_controller.c_state\[4\]
+ VSS VSS VDD VDD _0140_ sky130_fd_sc_hd__or4_1
X_0561_ _0131_ _0140_ VSS VSS VDD VDD _0141_ sky130_fd_sc_hd__nor2_1
X_0562_ byte_controller.bit_controller.cmd_ack byte_controller.c_state\[0\]
+ _0141_ VSS VSS VDD VDD _0142_ sky130_fd_sc_hd__mux2_1
X_0563_ _0139_ _0142_ _0127_ VSS VSS VDD VDD _0143_ sky130_fd_sc_hd__a21oi_2
X_0564_ byte_controller.core_cmd\[4\] _0143_ VSS VSS VDD VDD
+ _0144_ sky130_fd_sc_hd__nand2_1
X_0565_ _0128_ _0122_ _0144_ VSS VSS VDD VDD _0015_ sky130_fd_sc_hd__o21ai_0
X_0566_ _0131_ _0130_ byte_controller.c_state\[1\] VSS VSS
+ VDD VDD _0145_ sky130_fd_sc_hd__a21oi_1
X_0567_ net15 byte_controller.bit_controller.al VSS VSS VDD
+ VDD _0146_ sky130_fd_sc_hd__nor2_4
X_0568_ _0124_ _0145_ _0139_ _0146_ VSS VSS VDD VDD _0006_
+ sky130_fd_sc_hd__o211ai_1
X_0569_ byte_controller.core_cmd\[3\] _0143_ _0137_ VSS VSS
+ VDD VDD _0014_ sky130_fd_sc_hd__a21o_1
X_0570_ byte_controller.dcnt\[2\] _0533_ VSS VSS VDD VDD _0147_
+ sky130_fd_sc_hd__nor2b_2
X_0571_ byte_controller.bit_controller.cmd_ack byte_controller.c_state\[4\]
+ _0146_ VSS VSS VDD VDD _0148_ sky130_fd_sc_hd__and3_1
X_0572_ _0147_ VSS VSS VDD VDD _0149_ sky130_fd_sc_hd__inv_1
X_0573_ byte_controller.bit_controller.cmd_ack byte_controller.c_state\[3\]
+ _0146_ VSS VSS VDD VDD _0150_ sky130_fd_sc_hd__and3_1
X_0574_ byte_controller.bit_controller.cmd_ack byte_controller.c_state\[5\]
+ _0146_ VSS VSS VDD VDD _0151_ sky130_fd_sc_hd__and3_1
X_0575_ byte_controller.write _0135_ _0151_ VSS VSS VDD VDD
+ _0152_ sky130_fd_sc_hd__a21oi_1
X_0576_ _0149_ _0150_ _0152_ byte_controller.read VSS VSS
+ VDD VDD _0153_ sky130_fd_sc_hd__o2bb2ai_1
X_0577_ byte_controller.core_cmd\[2\] _0143_ _0147_ _0148_
+ _0153_ VSS VSS VDD VDD _0013_ sky130_fd_sc_hd__a221o_1
X_0578_ _0123_ byte_controller.c_state\[4\] _0146_ VSS VSS
+ VDD VDD _0154_ sky130_fd_sc_hd__nand3_1
X_0579_ _0135_ _0151_ byte_controller.read VSS VSS VDD VDD
+ _0155_ sky130_fd_sc_hd__o21ai_0
X_0580_ _0147_ _0154_ _0155_ VSS VSS VDD VDD _0156_ sky130_fd_sc_hd__o21ai_0
X_0581_ byte_controller.core_cmd\[1\] _0143_ _0147_ _0150_
+ _0156_ VSS VSS VDD VDD _0012_ sky130_fd_sc_hd__a221o_1
X_0582_ byte_controller.c_state\[4\] _0129_ _0156_ VSS VSS
+ VDD VDD _0010_ sky130_fd_sc_hd__a21o_1
X_0583_ byte_controller.c_state\[3\] _0129_ _0153_ VSS VSS
+ VDD VDD _0009_ sky130_fd_sc_hd__a21o_1
X_0584_ _0131_ _0124_ VSS VSS VDD VDD _0157_ sky130_fd_sc_hd__nand2_1
X_0585_ byte_controller.c_state\[3\] byte_controller.c_state\[4\]
+ _0147_ _0123_ VSS VSS VDD VDD _0158_ sky130_fd_sc_hd__o211ai_1
X_0586_ _0157_ _0158_ _0128_ VSS VSS VDD VDD _0008_ sky130_fd_sc_hd__a21oi_1
X_0587_ net15 VSS VSS VDD VDD _0159_ sky130_fd_sc_hd__clkbuf_4
X_0588_ _0159_ VSS VSS VDD VDD _0160_ sky130_fd_sc_hd__buf_2
X_0589_ _0160_ VSS VSS VDD VDD _0161_ sky130_fd_sc_hd__clkbuf_4
X_0590_ ctr\[6\] irq_flag VSS VSS VDD VDD _0162_ sky130_fd_sc_hd__nand2_1
X_0591_ _0161_ _0162_ VSS VSS VDD VDD _0005_ sky130_fd_sc_hd__nor2_1
X_0592_ _0160_ VSS VSS VDD VDD _0163_ sky130_fd_sc_hd__clkbuf_4
X_0593_ byte_controller.bit_controller.al byte_controller.cmd_ack
+ irq_flag VSS VSS VDD VDD _0164_ sky130_fd_sc_hd__nor3_1
X_0594_ _0163_ cr\[0\] _0164_ VSS VSS VDD VDD _0001_ sky130_fd_sc_hd__nor3_1
X_0595_ _0161_ _0133_ VSS VSS VDD VDD _0003_ sky130_fd_sc_hd__nor2_1
X_0596_ _0160_ byte_controller.ack_out VSS VSS VDD VDD _0002_
+ sky130_fd_sc_hd__nor2b_1
X_0597_ byte_controller.start VSS VSS VDD VDD _0165_ sky130_fd_sc_hd__inv_1
X_0598_ _0165_ al byte_controller.bit_controller.al VSS VSS
+ VDD VDD _0166_ sky130_fd_sc_hd__a21oi_1
X_0599_ _0161_ _0166_ VSS VSS VDD VDD _0000_ sky130_fd_sc_hd__nor2_1
X_0600_ byte_controller.bit_controller.c_state\[7\] byte_controller.bit_controller.c_state\[6\]
+ VSS VSS VDD VDD _0167_ sky130_fd_sc_hd__nor2_1
X_0601_ byte_controller.bit_controller.c_state\[14\] VSS VSS
+ VDD VDD _0168_ sky130_fd_sc_hd__buf_2
X_0602_ byte_controller.bit_controller.c_state\[13\] _0168_
+ byte_controller.bit_controller.c_state\[15\] byte_controller.bit_controller.c_state\[12\]
+ VSS VSS VDD VDD _0169_ sky130_fd_sc_hd__nor4_4
X_0603_ _0167_ net41 VSS VSS VDD VDD _0170_ sky130_fd_sc_hd__nand2_1
X_0604_ _0170_ net47 net48 VSS VSS VDD VDD _0171_ sky130_fd_sc_hd__nor3b_1
X_0605_ byte_controller.bit_controller.c_state\[5\] byte_controller.bit_controller.c_state\[4\]
+ byte_controller.bit_controller.c_state\[7\] byte_controller.bit_controller.c_state\[6\]
+ VSS VSS VDD VDD _0172_ sky130_fd_sc_hd__or4_4
X_0606_ net46 byte_controller.bit_controller.c_state\[12\]
+ VSS VSS VDD VDD _0173_ sky130_fd_sc_hd__nand2b_1
X_0607_ byte_controller.bit_controller.c_state\[15\] _0168_
+ _0173_ _0172_ VSS VSS VDD VDD _0174_ sky130_fd_sc_hd__nor4_4
X_0608_ byte_controller.bit_controller.c_state\[1\] byte_controller.bit_controller.c_state\[0\]
+ byte_controller.bit_controller.c_state\[2\] byte_controller.bit_controller.c_state\[3\]
+ VSS VSS VDD VDD _0175_ sky130_fd_sc_hd__nor4_4
X_0609_ byte_controller.bit_controller.c_state\[11\] byte_controller.bit_controller.c_state\[10\]
+ VSS VSS VDD VDD _0176_ sky130_fd_sc_hd__nor2_2
X_0610_ byte_controller.bit_controller.c_state\[16\] byte_controller.bit_controller.c_state\[9\]
+ byte_controller.bit_controller.c_state\[8\] VSS VSS VDD VDD
+ _0177_ sky130_fd_sc_hd__nor3_1
X_0611_ _0175_ _0176_ _0177_ VSS VSS VDD VDD _0178_ sky130_fd_sc_hd__and3_1
X_0612_ _0171_ _0174_ _0178_ VSS VSS VDD VDD _0179_ sky130_fd_sc_hd__o21ai_0
X_0613_ byte_controller.bit_controller.c_state\[6\] byte_controller.bit_controller.c_state\[4\]
+ byte_controller.bit_controller.c_state\[7\] byte_controller.bit_controller.c_state\[5\]
+ VSS VSS VDD VDD _0180_ sky130_fd_sc_hd__nor4_4
X_0614_ _0175_ _0169_ _0180_ VSS VSS VDD VDD _0181_ sky130_fd_sc_hd__nand3_2
X_0615_ byte_controller.bit_controller.c_state\[9\] byte_controller.bit_controller.c_state\[11\]
+ byte_controller.bit_controller.c_state\[10\] VSS VSS VDD VDD
+ _0182_ sky130_fd_sc_hd__or3_1
X_0616_ byte_controller.bit_controller.c_state\[16\] byte_controller.bit_controller.c_state\[8\]
+ VSS VSS VDD VDD _0183_ sky130_fd_sc_hd__xnor2_1
X_0617_ _0181_ _0182_ _0183_ VSS VSS VDD VDD _0184_ sky130_fd_sc_hd__or3_1
X_0618_ byte_controller.bit_controller.clk_en _0146_ VSS VSS
+ VDD VDD _0185_ sky130_fd_sc_hd__nand2_1
X_0619_ _0179_ _0184_ _0185_ VSS VSS VDD VDD _0023_ sky130_fd_sc_hd__a21oi_1
X_0620_ byte_controller.bit_controller.c_state\[16\] byte_controller.bit_controller.c_state\[9\]
+ byte_controller.bit_controller.c_state\[8\] VSS VSS VDD VDD
+ _0186_ sky130_fd_sc_hd__or3_1
X_0621_ _0186_ _0181_ VSS VSS VDD VDD _0187_ sky130_fd_sc_hd__nor2_1
X_0622_ _0176_ _0187_ VSS VSS VDD VDD _0188_ sky130_fd_sc_hd__nand2_4
X_0623_ byte_controller.bit_controller.cmd_stop _0188_ byte_controller.bit_controller.sto_condition
+ VSS VSS VDD VDD _0189_ sky130_fd_sc_hd__nand3b_1
X_0624_ byte_controller.bit_controller.sSDA net19 byte_controller.bit_controller.sda_chk
+ VSS VSS VDD VDD _0190_ sky130_fd_sc_hd__nand3b_1
X_0625_ _0189_ _0190_ _0163_ VSS VSS VDD VDD _0020_ sky130_fd_sc_hd__a21oi_1
X_0626_ byte_controller.bit_controller.busy byte_controller.bit_controller.sta_condition
+ VSS VSS VDD VDD _0191_ sky130_fd_sc_hd__nor2_1
X_0627_ _0163_ byte_controller.bit_controller.sto_condition
+ _0191_ VSS VSS VDD VDD _0021_ sky130_fd_sc_hd__nor3_1
X_0628_ _0160_ byte_controller.bit_controller.dSDA byte_controller.bit_controller.sSDA
+ byte_controller.bit_controller.sSCL VSS VSS VDD VDD _0029_
+ sky130_fd_sc_hd__nor4bb_1
X_0629_ _0159_ byte_controller.bit_controller.sSDA VSS VSS
+ VDD VDD _0025_ sky130_fd_sc_hd__or2_0
X_0630_ byte_controller.bit_controller.sSCL byte_controller.bit_controller.dSDA
+ VSS VSS VDD VDD _0192_ sky130_fd_sc_hd__nand2_1
X_0631_ _0025_ _0192_ VSS VSS VDD VDD _0028_ sky130_fd_sc_hd__nor2_1
X_0632_ byte_controller.bit_controller.cmd_ack byte_controller.c_state\[4\]
+ VSS VSS VDD VDD _0193_ sky130_fd_sc_hd__nand2_1
X_0633_ byte_controller.bit_controller.cmd_ack byte_controller.dout\[7\]
+ _0193_ ack VSS VSS VDD VDD _0194_ sky130_fd_sc_hd__o22a_1
X_0634_ _0131_ _0194_ VSS VSS VDD VDD _0195_ sky130_fd_sc_hd__nor2_1
X_0635_ _0123_ ack byte_controller.dout\[7\] VSS VSS VDD VDD
+ _0196_ sky130_fd_sc_hd__nor3_1
X_0636_ _0123_ ack VSS VSS VDD VDD _0197_ sky130_fd_sc_hd__nor2_1
X_0637_ _0131_ byte_controller.dout\[7\] VSS VSS VDD VDD _0198_
+ sky130_fd_sc_hd__nor2_1
X_0638_ _0131_ _0197_ _0198_ VSS VSS VDD VDD _0199_ sky130_fd_sc_hd__a21oi_1
X_0639_ byte_controller.c_state\[4\] _0199_ VSS VSS VDD VDD
+ _0200_ sky130_fd_sc_hd__nor2_1
X_0640_ _0128_ _0195_ _0196_ _0200_ VSS VSS VDD VDD _0017_
+ sky130_fd_sc_hd__nor4_1
X_0641_ _0123_ _0146_ VSS VSS VDD VDD _0201_ sky130_fd_sc_hd__nand2_1
X_0642_ byte_controller.c_state\[3\] _0149_ byte_controller.c_state\[4\]
+ VSS VSS VDD VDD _0202_ sky130_fd_sc_hd__a21oi_1
X_0643_ _0201_ _0202_ VSS VSS VDD VDD _0019_ sky130_fd_sc_hd__nor2_1
X_0644_ _0123_ byte_controller.c_state\[5\] VSS VSS VDD VDD
+ _0203_ sky130_fd_sc_hd__nand2_1
X_0645_ _0134_ _0203_ _0128_ VSS VSS VDD VDD _0018_ sky130_fd_sc_hd__a21oi_1
X_0646_ _0145_ _0201_ VSS VSS VDD VDD _0016_ sky130_fd_sc_hd__nor2_1
X_0647_ wb_adr_i[1] VSS VSS VDD VDD _0204_ sky130_fd_sc_hd__clkbuf_4
X_0648_ net4 VSS VSS VDD VDD _0205_ sky130_fd_sc_hd__buf_4
X_0649_ _0205_ VSS VSS VDD VDD _0206_ sky130_fd_sc_hd__clkinv_2
X_0650_ _0204_ _0206_ VSS VSS VDD VDD _0207_ sky130_fd_sc_hd__nor2_4
X_0651_ _0205_ _0204_ VSS VSS VDD VDD _0208_ sky130_fd_sc_hd__nor2b_1
X_0652_ _0208_ VSS VSS VDD VDD _0209_ sky130_fd_sc_hd__clkbuf_2
X_0653_ net5 _0204_ VSS VSS VDD VDD _0210_ sky130_fd_sc_hd__nand2b_2
X_0654_ _0205_ VSS VSS VDD VDD _0211_ sky130_fd_sc_hd__clkbuf_4
X_0655_ ctr\[0\] byte_controller.dout\[0\] _0211_ VSS VSS
+ VDD VDD _0212_ sky130_fd_sc_hd__mux2i_1
X_0656_ byte_controller.bit_controller.clk_cnt\[8\] VSS VSS
+ VDD VDD _0213_ sky130_fd_sc_hd__inv_1
X_0657_ net5 VSS VSS VDD VDD _0214_ sky130_fd_sc_hd__clkbuf_2
X_0658_ _0211_ _0213_ _0214_ VSS VSS VDD VDD _0215_ sky130_fd_sc_hd__a21oi_1
X_0659_ _0206_ irq_flag _0215_ VSS VSS VDD VDD _0216_ sky130_fd_sc_hd__a21oi_1
X_0660_ _0204_ VSS VSS VDD VDD _0217_ sky130_fd_sc_hd__clkbuf_4
X_0661_ _0210_ _0212_ _0216_ _0217_ VSS VSS VDD VDD _0218_
+ sky130_fd_sc_hd__o22ai_1
X_0662_ byte_controller.din\[0\] _0207_ _0209_ cr\[0\] _0218_
+ VSS VSS VDD VDD _0219_ sky130_fd_sc_hd__a221oi_1
X_0663_ _0217_ _0211_ byte_controller.bit_controller.clk_cnt\[0\]
+ VSS VSS VDD VDD _0220_ sky130_fd_sc_hd__or3_1
X_0664_ _0214_ VSS VSS VDD VDD _0221_ sky130_fd_sc_hd__buf_2
X_0665_ _0218_ _0220_ _0221_ VSS VSS VDD VDD _0222_ sky130_fd_sc_hd__a21oi_1
X_0666_ _0219_ _0222_ VSS VSS VDD VDD _0519_ sky130_fd_sc_hd__nor2_1
X_0667_ tip byte_controller.din\[1\] _0211_ VSS VSS VDD VDD
+ _0223_ sky130_fd_sc_hd__mux2i_1
X_0668_ _0217_ _0223_ VSS VSS VDD VDD _0224_ sky130_fd_sc_hd__nor2_1
X_0669_ cr\[1\] _0209_ _0224_ VSS VSS VDD VDD _0225_ sky130_fd_sc_hd__a21oi_1
X_0670_ byte_controller.bit_controller.clk_cnt\[1\] byte_controller.bit_controller.clk_cnt\[9\]
+ ctr\[1\] byte_controller.dout\[1\] _0205_ _0217_ VSS VSS VDD
+ VDD _0226_ sky130_fd_sc_hd__mux4_1
X_0671_ _0221_ _0226_ VSS VSS VDD VDD _0227_ sky130_fd_sc_hd__nor2_1
X_0672_ _0221_ _0225_ _0227_ VSS VSS VDD VDD _0520_ sky130_fd_sc_hd__a21oi_1
X_0673_ byte_controller.din\[2\] _0207_ _0209_ cr\[2\] VSS
+ VSS VDD VDD _0228_ sky130_fd_sc_hd__a22oi_1
X_0674_ byte_controller.bit_controller.clk_cnt\[2\] byte_controller.bit_controller.clk_cnt\[10\]
+ ctr\[2\] byte_controller.dout\[2\] _0205_ _0217_ VSS VSS VDD
+ VDD _0229_ sky130_fd_sc_hd__mux4_1
X_0675_ _0221_ _0229_ VSS VSS VDD VDD _0230_ sky130_fd_sc_hd__nor2_1
X_0676_ _0221_ _0228_ _0230_ VSS VSS VDD VDD _0521_ sky130_fd_sc_hd__a21oi_1
X_0677_ byte_controller.din\[3\] _0207_ _0209_ ack VSS VSS
+ VDD VDD _0231_ sky130_fd_sc_hd__a22oi_1
X_0678_ byte_controller.bit_controller.clk_cnt\[3\] byte_controller.bit_controller.clk_cnt\[11\]
+ ctr\[3\] byte_controller.dout\[3\] _0205_ _0217_ VSS VSS VDD
+ VDD _0232_ sky130_fd_sc_hd__mux4_1
X_0679_ _0221_ _0232_ VSS VSS VDD VDD _0233_ sky130_fd_sc_hd__nor2_1
X_0680_ _0221_ _0231_ _0233_ VSS VSS VDD VDD _0522_ sky130_fd_sc_hd__a21oi_1
X_0681_ byte_controller.din\[4\] _0207_ _0209_ byte_controller.write
+ VSS VSS VDD VDD _0234_ sky130_fd_sc_hd__a22oi_1
X_0682_ byte_controller.bit_controller.clk_cnt\[4\] byte_controller.bit_controller.clk_cnt\[12\]
+ ctr\[4\] byte_controller.dout\[4\] _0205_ _0217_ VSS VSS VDD
+ VDD _0235_ sky130_fd_sc_hd__mux4_1
X_0683_ _0214_ _0235_ VSS VSS VDD VDD _0236_ sky130_fd_sc_hd__nor2_1
X_0684_ _0221_ _0234_ _0236_ VSS VSS VDD VDD _0523_ sky130_fd_sc_hd__a21oi_1
X_0685_ ctr\[5\] byte_controller.dout\[5\] _0211_ VSS VSS
+ VDD VDD _0237_ sky130_fd_sc_hd__mux2i_1
X_0686_ byte_controller.bit_controller.clk_cnt\[13\] VSS VSS
+ VDD VDD _0238_ sky130_fd_sc_hd__inv_1
X_0687_ _0211_ _0238_ _0214_ VSS VSS VDD VDD _0239_ sky130_fd_sc_hd__a21oi_1
X_0688_ _0206_ al _0239_ VSS VSS VDD VDD _0240_ sky130_fd_sc_hd__a21oi_1
X_0689_ _0210_ _0237_ _0240_ _0217_ VSS VSS VDD VDD _0241_
+ sky130_fd_sc_hd__o22ai_1
X_0690_ byte_controller.din\[5\] _0207_ _0209_ byte_controller.read
+ _0241_ VSS VSS VDD VDD _0242_ sky130_fd_sc_hd__a221oi_1
X_0691_ _0204_ _0211_ byte_controller.bit_controller.clk_cnt\[5\]
+ VSS VSS VDD VDD _0243_ sky130_fd_sc_hd__or3_1
X_0692_ _0241_ _0243_ _0221_ VSS VSS VDD VDD _0244_ sky130_fd_sc_hd__a21oi_1
X_0693_ _0242_ _0244_ VSS VSS VDD VDD _0524_ sky130_fd_sc_hd__nor2_1
X_0694_ ctr\[6\] byte_controller.dout\[6\] _0211_ VSS VSS
+ VDD VDD _0245_ sky130_fd_sc_hd__mux2i_1
X_0695_ byte_controller.bit_controller.clk_cnt\[14\] VSS VSS
+ VDD VDD _0246_ sky130_fd_sc_hd__inv_1
X_0696_ _0205_ _0246_ _0214_ VSS VSS VDD VDD _0247_ sky130_fd_sc_hd__a21oi_1
X_0697_ _0206_ byte_controller.bit_controller.busy _0247_
+ VSS VSS VDD VDD _0248_ sky130_fd_sc_hd__a21oi_1
X_0698_ _0210_ _0245_ _0248_ _0217_ VSS VSS VDD VDD _0249_
+ sky130_fd_sc_hd__o22ai_1
X_0699_ byte_controller.din\[6\] _0207_ _0209_ byte_controller.stop
+ _0249_ VSS VSS VDD VDD _0250_ sky130_fd_sc_hd__a221oi_1
X_0700_ _0204_ _0211_ byte_controller.bit_controller.clk_cnt\[6\]
+ VSS VSS VDD VDD _0251_ sky130_fd_sc_hd__or3_1
X_0701_ _0249_ _0251_ _0221_ VSS VSS VDD VDD _0252_ sky130_fd_sc_hd__a21oi_1
X_0702_ _0250_ _0252_ VSS VSS VDD VDD _0525_ sky130_fd_sc_hd__nor2_1
X_0703_ byte_controller.bit_controller.clk_cnt\[7\] byte_controller.bit_controller.clk_cnt\[15\]
+ rxack byte_controller.din\[7\] _0205_ _0214_ VSS VSS VDD VDD
+ _0253_ sky130_fd_sc_hd__mux4_1
X_0704_ byte_controller.bit_controller.ena VSS VSS VDD VDD
+ _0254_ sky130_fd_sc_hd__buf_2
X_0705_ _0254_ byte_controller.dout\[7\] _0211_ VSS VSS VDD
+ VDD _0255_ sky130_fd_sc_hd__mux2i_1
X_0706_ _0214_ _0206_ byte_controller.start VSS VSS VDD VDD
+ _0256_ sky130_fd_sc_hd__nand3_1
X_0707_ _0214_ _0255_ _0256_ VSS VSS VDD VDD _0257_ sky130_fd_sc_hd__o21ai_0
X_0708_ _0253_ _0257_ _0217_ VSS VSS VDD VDD _0526_ sky130_fd_sc_hd__mux2_1
X_0709_ net16 net6 VSS VSS VDD VDD _0258_ sky130_fd_sc_hd__nand2_1
X_0710_ net20 _0258_ VSS VSS VDD VDD _0004_ sky130_fd_sc_hd__nor2_1
X_0711_ byte_controller.bit_controller.dSCL byte_controller.bit_controller.sSCL
+ VSS VSS VDD VDD _0030_ sky130_fd_sc_hd__nor2b_1
X_0712_ _0159_ byte_controller.bit_controller.sSCL VSS VSS
+ VDD VDD _0259_ sky130_fd_sc_hd__nor2_1
X_0713_ _0259_ VSS VSS VDD VDD _0024_ sky130_fd_sc_hd__inv_1
X_0714_ _0159_ VSS VSS VDD VDD _0260_ sky130_fd_sc_hd__buf_2
X_0715_ _0260_ net3 VSS VSS VDD VDD _0027_ sky130_fd_sc_hd__or2_0
X_0716_ _0160_ net2 VSS VSS VDD VDD _0026_ sky130_fd_sc_hd__or2_0
X_0717_ byte_controller.bit_controller.cnt\[3\] byte_controller.bit_controller.cnt\[2\]
+ byte_controller.bit_controller.cnt\[4\] VSS VSS VDD VDD _0261_
+ sky130_fd_sc_hd__nor3_2
X_0718_ byte_controller.bit_controller.cnt\[5\] _0529_ VSS
+ VSS VDD VDD _0262_ sky130_fd_sc_hd__nor2b_1
X_0719_ byte_controller.bit_controller.cnt\[7\] byte_controller.bit_controller.cnt\[6\]
+ byte_controller.bit_controller.cnt\[9\] byte_controller.bit_controller.cnt\[8\]
+ VSS VSS VDD VDD _0263_ sky130_fd_sc_hd__nor4_4
X_0720_ byte_controller.bit_controller.cnt\[10\] _0261_ _0262_
+ _0263_ VSS VSS VDD VDD _0264_ sky130_fd_sc_hd__nand4b_4
X_0721_ byte_controller.bit_controller.cnt\[11\] byte_controller.bit_controller.cnt\[13\]
+ byte_controller.bit_controller.cnt\[12\] VSS VSS VDD VDD _0265_
+ sky130_fd_sc_hd__or3_1
X_0722_ byte_controller.bit_controller.cnt\[15\] byte_controller.bit_controller.cnt\[14\]
+ _0265_ VSS VSS VDD VDD _0266_ sky130_fd_sc_hd__or3_2
X_0723_ _0264_ _0266_ _0254_ VSS VSS VDD VDD _0267_ sky130_fd_sc_hd__o21ai_2
X_0724_ _0267_ VSS VSS VDD VDD _0268_ sky130_fd_sc_hd__clkbuf_4
X_0725_ _0159_ _0268_ VSS VSS VDD VDD _0269_ sky130_fd_sc_hd__nor2_1
X_0726_ byte_controller.bit_controller.dscl_oen _0259_ _0269_
+ VSS VSS VDD VDD _0022_ sky130_fd_sc_hd__a21oi_1
X_0727_ byte_controller.bit_controller.cnt\[0\] VSS VSS VDD
+ VDD _0527_ sky130_fd_sc_hd__inv_1
X_0728_ byte_controller.dcnt\[0\] VSS VSS VDD VDD _0531_ sky130_fd_sc_hd__inv_1
X_0729_ byte_controller.bit_controller.cnt\[1\] VSS VSS VDD
+ VDD _0528_ sky130_fd_sc_hd__inv_1
X_0730_ byte_controller.dcnt\[1\] VSS VSS VDD VDD _0532_ sky130_fd_sc_hd__inv_1
X_0731_ _0131_ _0123_ byte_controller.bit_controller.dout
+ VSS VSS VDD VDD _0270_ sky130_fd_sc_hd__nand3_1
X_0732_ byte_controller.ack_out _0132_ VSS VSS VDD VDD _0271_
+ sky130_fd_sc_hd__nand2_1
X_0733_ _0270_ _0271_ _0128_ VSS VSS VDD VDD _0031_ sky130_fd_sc_hd__a21oi_1
X_0734_ byte_controller.bit_controller.c_state\[2\] byte_controller.bit_controller.c_state\[3\]
+ VSS VSS VDD VDD _0272_ sky130_fd_sc_hd__nor2_1
X_0735_ _0176_ _0177_ _0169_ _0180_ VSS VSS VDD VDD _0273_
+ sky130_fd_sc_hd__and4_2
Xrebuffer12 byte_controller.bit_controller.c_state\[0\] VSS
+ VSS VDD VDD net43 sky130_fd_sc_hd__dlygate4sd1_1
X_0737_ net42 net43 VSS VSS VDD VDD _0275_ sky130_fd_sc_hd__xor2_1
X_0738_ _0272_ _0273_ _0275_ _0127_ VSS VSS VDD VDD _0276_
+ sky130_fd_sc_hd__a31oi_1
X_0739_ _0174_ _0178_ VSS VSS VDD VDD _0277_ sky130_fd_sc_hd__nand2_2
X_0740_ byte_controller.bit_controller.c_state\[16\] byte_controller.bit_controller.c_state\[8\]
+ VSS VSS VDD VDD _0278_ sky130_fd_sc_hd__nor2_1
X_0741_ byte_controller.bit_controller.c_state\[1\] byte_controller.bit_controller.c_state\[0\]
+ byte_controller.bit_controller.c_state\[2\] byte_controller.bit_controller.c_state\[3\]
+ VSS VSS VDD VDD _0279_ sky130_fd_sc_hd__or4_4
X_0742_ byte_controller.bit_controller.c_state\[13\] byte_controller.bit_controller.c_state\[12\]
+ byte_controller.bit_controller.c_state\[15\] _0168_ VSS VSS
+ VDD VDD _0280_ sky130_fd_sc_hd__or4_4
X_0743_ _0172_ _0280_ _0279_ VSS VSS VDD VDD _0281_ sky130_fd_sc_hd__nor3_4
X_0744_ byte_controller.bit_controller.c_state\[9\] _0176_
+ _0281_ _0278_ VSS VSS VDD VDD _0282_ sky130_fd_sc_hd__nand4_2
X_0745_ byte_controller.bit_controller.c_state\[11\] byte_controller.bit_controller.c_state\[10\]
+ VSS VSS VDD VDD _0283_ sky130_fd_sc_hd__xnor2_1
X_0746_ _0186_ _0283_ VSS VSS VDD VDD _0284_ sky130_fd_sc_hd__nor2_1
X_0747_ _0182_ byte_controller.bit_controller.c_state\[16\]
+ byte_controller.bit_controller.c_state\[8\] VSS VSS VDD VDD
+ _0285_ sky130_fd_sc_hd__nor3b_1
X_0748_ _0284_ _0285_ _0281_ VSS VSS VDD VDD _0286_ sky130_fd_sc_hd__o21ai_2
X_0749_ _0276_ _0282_ _0277_ _0286_ VSS VSS VDD VDD _0287_
+ sky130_fd_sc_hd__and4_4
Xrebuffer6 _0305_ VSS VSS VDD VDD net37 sky130_fd_sc_hd__dlygate4sd1_1
X_0751_ byte_controller.bit_controller.c_state\[12\] byte_controller.bit_controller.c_state\[15\]
+ _0168_ byte_controller.bit_controller.c_state\[13\] VSS VSS
+ VDD VDD _0289_ sky130_fd_sc_hd__nor4b_1
X_0752_ net39 _0289_ VSS VSS VDD VDD _0290_ sky130_fd_sc_hd__nand2_1
X_0753_ net35 byte_controller.bit_controller.c_state\[4\]
+ VSS VSS VDD VDD _0291_ sky130_fd_sc_hd__xor2_1
X_0754_ _0167_ net40 _0291_ VSS VSS VDD VDD _0292_ sky130_fd_sc_hd__nand3_1
X_0755_ _0175_ _0176_ _0177_ VSS VSS VDD VDD _0293_ sky130_fd_sc_hd__nand3_1
X_0756_ _0290_ _0292_ _0293_ VSS VSS VDD VDD _0294_ sky130_fd_sc_hd__a21oi_2
X_0757_ byte_controller.bit_controller.c_state\[8\] _0182_
+ _0181_ byte_controller.bit_controller.c_state\[16\] VSS VSS
+ VDD VDD _0295_ sky130_fd_sc_hd__nor4b_4
X_0758_ _0294_ _0295_ VSS VSS VDD VDD _0296_ sky130_fd_sc_hd__nor2_2
X_0759_ net46 byte_controller.bit_controller.c_state\[12\]
+ VSS VSS VDD VDD _0297_ sky130_fd_sc_hd__nor2_1
X_0760_ _0297_ net38 VSS VSS VDD VDD _0298_ sky130_fd_sc_hd__nand2_1
X_0761_ byte_controller.bit_controller.c_state\[15\] _0168_
+ VSS VSS VDD VDD _0299_ sky130_fd_sc_hd__xor2_1
X_0762_ _0293_ _0298_ _0299_ VSS VSS VDD VDD _0300_ sky130_fd_sc_hd__nor3b_2
X_0763_ net42 byte_controller.bit_controller.c_state\[0\]
+ VSS VSS VDD VDD _0301_ sky130_fd_sc_hd__nor2_1
X_0764_ byte_controller.bit_controller.c_state\[2\] byte_controller.bit_controller.c_state\[3\]
+ VSS VSS VDD VDD _0302_ sky130_fd_sc_hd__xor2_1
X_0765_ byte_controller.bit_controller.c_state\[7\] byte_controller.bit_controller.c_state\[6\]
+ VSS VSS VDD VDD _0303_ sky130_fd_sc_hd__xor2_1
X_0766_ net35 byte_controller.bit_controller.c_state\[4\]
+ byte_controller.bit_controller.c_state\[11\] byte_controller.bit_controller.c_state\[10\]
+ VSS VSS VDD VDD _0304_ sky130_fd_sc_hd__or4_4
X_0767_ _0279_ _0186_ _0280_ _0304_ VSS VSS VDD VDD _0305_
+ sky130_fd_sc_hd__nor4_4
X_0768_ _0301_ _0273_ _0302_ _0303_ _0305_ VSS VSS VDD VDD
+ _0306_ sky130_fd_sc_hd__a32o_2
X_0769_ _0300_ _0306_ VSS VSS VDD VDD _0307_ sky130_fd_sc_hd__nor2_2
X_0770_ byte_controller.bit_controller.clk_en _0127_ VSS VSS
+ VDD VDD _0308_ sky130_fd_sc_hd__nor2_2
X_0771_ _0188_ _0287_ _0296_ _0307_ _0308_ VSS VSS VDD VDD
+ _0309_ sky130_fd_sc_hd__a41o_2
X_0772_ _0276_ _0277_ net36 _0286_ VSS VSS VDD VDD _0310_
+ sky130_fd_sc_hd__nand4_1
X_0773_ _0294_ _0295_ VSS VSS VDD VDD _0311_ sky130_fd_sc_hd__or2_1
X_0774_ _0188_ _0308_ _0310_ _0311_ VSS VSS VDD VDD _0312_
+ sky130_fd_sc_hd__nor4_2
X_0775_ net44 _0309_ _0312_ byte_controller.core_cmd\[4\]
+ VSS VSS VDD VDD _0032_ sky130_fd_sc_hd__a22o_1
X_0776_ _0128_ _0282_ VSS VSS VDD VDD _0313_ sky130_fd_sc_hd__nor2_1
X_0777_ _0307_ _0287_ _0296_ _0188_ _0308_ VSS VSS VDD VDD
+ _0314_ sky130_fd_sc_hd__a41oi_4
X_0778_ byte_controller.bit_controller.c_state\[10\] _0313_
+ net33 VSS VSS VDD VDD _0033_ sky130_fd_sc_hd__mux2_4
X_0779_ _0188_ _0287_ _0296_ _0307_ _0185_ VSS VSS VDD VDD
+ _0315_ sky130_fd_sc_hd__a41oi_4
X_0780_ byte_controller.bit_controller.c_state\[10\] _0187_
+ _0315_ _0309_ byte_controller.bit_controller.c_state\[11\]
+ VSS VSS VDD VDD _0034_ sky130_fd_sc_hd__a32o_1
X_0781_ byte_controller.bit_controller.c_state\[10\] _0146_
+ _0187_ byte_controller.bit_controller.c_state\[11\] VSS VSS
+ VDD VDD _0316_ sky130_fd_sc_hd__and4b_1
X_0782_ byte_controller.bit_controller.c_state\[12\] _0316_
+ net33 VSS VSS VDD VDD _0035_ sky130_fd_sc_hd__mux2_4
X_0783_ net45 _0309_ _0312_ byte_controller.core_cmd\[2\]
+ VSS VSS VDD VDD _0036_ sky130_fd_sc_hd__a22o_1
X_0784_ _0146_ _0178_ VSS VSS VDD VDD _0317_ sky130_fd_sc_hd__nand2_1
X_0785_ _0290_ _0317_ VSS VSS VDD VDD _0318_ sky130_fd_sc_hd__nor2_1
X_0786_ _0168_ _0318_ net33 VSS VSS VDD VDD _0037_ sky130_fd_sc_hd__mux2_1
X_0787_ _0168_ VSS VSS VDD VDD _0319_ sky130_fd_sc_hd__inv_1
X_0788_ _0319_ _0298_ _0317_ VSS VSS VDD VDD _0320_ sky130_fd_sc_hd__nor3_1
X_0789_ byte_controller.bit_controller.c_state\[15\] _0320_
+ net33 VSS VSS VDD VDD _0038_ sky130_fd_sc_hd__mux2_4
X_0790_ _0168_ _0298_ _0317_ byte_controller.bit_controller.c_state\[15\]
+ VSS VSS VDD VDD _0321_ sky130_fd_sc_hd__nor4b_1
X_0791_ byte_controller.bit_controller.c_state\[16\] _0321_
+ net33 VSS VSS VDD VDD _0039_ sky130_fd_sc_hd__mux2_4
X_0792_ byte_controller.bit_controller.c_state\[0\] _0272_
+ _0273_ VSS VSS VDD VDD _0322_ sky130_fd_sc_hd__and3_1
X_0793_ byte_controller.bit_controller.c_state\[1\] _0309_
+ _0315_ _0322_ VSS VSS VDD VDD _0040_ sky130_fd_sc_hd__a22o_1
X_0794_ byte_controller.bit_controller.c_state\[0\] _0272_
+ _0273_ net42 VSS VSS VDD VDD _0323_ sky130_fd_sc_hd__nand4b_1
X_0795_ _0128_ _0323_ VSS VSS VDD VDD _0324_ sky130_fd_sc_hd__nor2_1
X_0796_ byte_controller.bit_controller.c_state\[2\] _0324_
+ net32 VSS VSS VDD VDD _0041_ sky130_fd_sc_hd__mux2_1
X_0797_ _0301_ _0273_ VSS VSS VDD VDD _0325_ sky130_fd_sc_hd__nand2_1
X_0798_ byte_controller.bit_controller.c_state\[3\] _0127_
+ _0325_ byte_controller.bit_controller.c_state\[2\] VSS VSS
+ VDD VDD _0326_ sky130_fd_sc_hd__nor4b_1
X_0799_ byte_controller.bit_controller.c_state\[3\] _0326_
+ net32 VSS VSS VDD VDD _0042_ sky130_fd_sc_hd__mux2_1
X_0800_ byte_controller.bit_controller.c_state\[3\] VSS VSS
+ VDD VDD _0327_ sky130_fd_sc_hd__inv_1
X_0801_ byte_controller.bit_controller.c_state\[2\] _0327_
+ _0127_ _0325_ VSS VSS VDD VDD _0328_ sky130_fd_sc_hd__nor4_1
X_0802_ net48 _0328_ net33 VSS VSS VDD VDD _0043_ sky130_fd_sc_hd__mux2_1
X_0803_ net34 _0309_ _0312_ byte_controller.core_cmd\[3\]
+ VSS VSS VDD VDD _0044_ sky130_fd_sc_hd__a22o_1
X_0804_ byte_controller.bit_controller.c_state\[4\] _0170_
+ _0317_ byte_controller.bit_controller.c_state\[5\] VSS VSS
+ VDD VDD _0329_ sky130_fd_sc_hd__nor4b_1
X_0805_ byte_controller.bit_controller.c_state\[6\] _0329_
+ net33 VSS VSS VDD VDD _0045_ sky130_fd_sc_hd__mux2_1
X_0806_ byte_controller.bit_controller.c_state\[6\] net37
+ _0315_ _0309_ byte_controller.bit_controller.c_state\[7\]
+ VSS VSS VDD VDD _0046_ sky130_fd_sc_hd__a32o_1
X_0807_ byte_controller.bit_controller.c_state\[6\] _0146_
+ _0305_ byte_controller.bit_controller.c_state\[7\] VSS VSS
+ VDD VDD _0330_ sky130_fd_sc_hd__and4b_1
X_0808_ byte_controller.bit_controller.c_state\[8\] _0330_
+ net33 VSS VSS VDD VDD _0047_ sky130_fd_sc_hd__mux2_4
X_0809_ byte_controller.bit_controller.c_state\[9\] _0309_
+ _0312_ byte_controller.core_cmd\[1\] VSS VSS VDD VDD _0048_
+ sky130_fd_sc_hd__a22o_1
X_0810_ byte_controller.bit_controller.cmd_stop byte_controller.core_cmd\[3\]
+ byte_controller.bit_controller.clk_en VSS VSS VDD VDD _0331_
+ sky130_fd_sc_hd__mux2i_1
X_0811_ _0161_ _0331_ VSS VSS VDD VDD _0049_ sky130_fd_sc_hd__nor2_1
X_0812_ _0264_ _0266_ _0254_ VSS VSS VDD VDD _0332_ sky130_fd_sc_hd__o21a_1
X_0813_ _0332_ VSS VSS VDD VDD _0333_ sky130_fd_sc_hd__clkbuf_2
X_0814_ byte_controller.bit_controller.dscl_oen _0259_ VSS
+ VSS VDD VDD _0334_ sky130_fd_sc_hd__nand2_1
X_0815_ byte_controller.bit_controller.cnt\[0\] _0334_ byte_controller.bit_controller.clk_cnt\[0\]
+ VSS VSS VDD VDD _0335_ sky130_fd_sc_hd__o21ai_0
X_0816_ _0333_ _0335_ VSS VSS VDD VDD _0336_ sky130_fd_sc_hd__nor2_1
X_0817_ _0527_ _0333_ _0336_ VSS VSS VDD VDD _0337_ sky130_fd_sc_hd__a21oi_1
X_0818_ byte_controller.bit_controller.dscl_oen _0259_ _0268_
+ VSS VSS VDD VDD _0338_ sky130_fd_sc_hd__nand3_2
X_0819_ _0163_ _0337_ _0338_ _0527_ VSS VSS VDD VDD _0050_
+ sky130_fd_sc_hd__o22ai_1
X_0820_ _0159_ VSS VSS VDD VDD _0339_ sky130_fd_sc_hd__clkbuf_2
X_0821_ _0267_ VSS VSS VDD VDD _0340_ sky130_fd_sc_hd__buf_2
X_0822_ _0334_ VSS VSS VDD VDD _0341_ sky130_fd_sc_hd__buf_2
X_0823_ _0264_ _0268_ VSS VSS VDD VDD _0342_ sky130_fd_sc_hd__nor2_1
X_0824_ byte_controller.bit_controller.clk_cnt\[10\] _0340_
+ _0341_ _0342_ VSS VSS VDD VDD _0343_ sky130_fd_sc_hd__a31oi_1
X_0825_ _0332_ _0334_ VSS VSS VDD VDD _0344_ sky130_fd_sc_hd__nor2_2
X_0826_ _0344_ VSS VSS VDD VDD _0345_ sky130_fd_sc_hd__clkbuf_4
X_0827_ byte_controller.bit_controller.cnt\[3\] byte_controller.bit_controller.cnt\[2\]
+ VSS VSS VDD VDD _0346_ sky130_fd_sc_hd__nor2_1
X_0828_ _0529_ _0346_ VSS VSS VDD VDD _0347_ sky130_fd_sc_hd__nand2_1
X_0829_ byte_controller.bit_controller.cnt\[5\] byte_controller.bit_controller.cnt\[4\]