* CDL Netlist generated by OpenROAD

*.BUSDELIMITER [

.SUBCKT axi_lite_master araddr[0] araddr[10] araddr[11] araddr[12]
+ araddr[13] araddr[14] araddr[15] araddr[16] araddr[17] araddr[18]
+ araddr[19] araddr[1] araddr[20] araddr[21] araddr[22] araddr[23]
+ araddr[24] araddr[25] araddr[26] araddr[27] araddr[28] araddr[29]
+ araddr[2] araddr[30] araddr[31] araddr[3] araddr[4] araddr[5]
+ araddr[6] araddr[7] araddr[8] araddr[9] arready arvalid awaddr[0]
+ awaddr[10] awaddr[11] awaddr[12] awaddr[13] awaddr[14] awaddr[15]
+ awaddr[16] awaddr[17] awaddr[18] awaddr[19] awaddr[1] awaddr[20]
+ awaddr[21] awaddr[22] awaddr[23] awaddr[24] awaddr[25] awaddr[26]
+ awaddr[27] awaddr[28] awaddr[29] awaddr[2] awaddr[30] awaddr[31]
+ awaddr[3] awaddr[4] awaddr[5] awaddr[6] awaddr[7] awaddr[8]
+ awaddr[9] awready awvalid bready bresp[0] bresp[1] bvalid
+ clk rdata[0] rdata[10] rdata[11] rdata[12] rdata[13] rdata[14]
+ rdata[15] rdata[16] rdata[17] rdata[18] rdata[19] rdata[1]
+ rdata[20] rdata[21] rdata[22] rdata[23] rdata[24] rdata[25]
+ rdata[26] rdata[27] rdata[28] rdata[29] rdata[2] rdata[30]
+ rdata[31] rdata[3] rdata[4] rdata[5] rdata[6] rdata[7] rdata[8]
+ rdata[9] read_addr[0] read_addr[10] read_addr[11] read_addr[12]
+ read_addr[13] read_addr[14] read_addr[15] read_addr[16] read_addr[17]
+ read_addr[18] read_addr[19] read_addr[1] read_addr[20] read_addr[21]
+ read_addr[22] read_addr[23] read_addr[24] read_addr[25] read_addr[26]
+ read_addr[27] read_addr[28] read_addr[29] read_addr[2] read_addr[30]
+ read_addr[31] read_addr[3] read_addr[4] read_addr[5] read_addr[6]
+ read_addr[7] read_addr[8] read_addr[9] read_data[0] read_data[10]
+ read_data[11] read_data[12] read_data[13] read_data[14] read_data[15]
+ read_data[16] read_data[17] read_data[18] read_data[19] read_data[1]
+ read_data[20] read_data[21] read_data[22] read_data[23] read_data[24]
+ read_data[25] read_data[26] read_data[27] read_data[28] read_data[29]
+ read_data[2] read_data[30] read_data[31] read_data[3] read_data[4]
+ read_data[5] read_data[6] read_data[7] read_data[8] read_data[9]
+ read_done read_req rready rresp[0] rresp[1] rst_n rvalid wdata[0]
+ wdata[10] wdata[11] wdata[12] wdata[13] wdata[14] wdata[15]
+ wdata[16] wdata[17] wdata[18] wdata[19] wdata[1] wdata[20]
+ wdata[21] wdata[22] wdata[23] wdata[24] wdata[25] wdata[26]
+ wdata[27] wdata[28] wdata[29] wdata[2] wdata[30] wdata[31]
+ wdata[3] wdata[4] wdata[5] wdata[6] wdata[7] wdata[8] wdata[9]
+ wready write_addr[0] write_addr[10] write_addr[11] write_addr[12]
+ write_addr[13] write_addr[14] write_addr[15] write_addr[16]
+ write_addr[17] write_addr[18] write_addr[19] write_addr[1]
+ write_addr[20] write_addr[21] write_addr[22] write_addr[23]
+ write_addr[24] write_addr[25] write_addr[26] write_addr[27]
+ write_addr[28] write_addr[29] write_addr[2] write_addr[30]
+ write_addr[31] write_addr[3] write_addr[4] write_addr[5] write_addr[6]
+ write_addr[7] write_addr[8] write_addr[9] write_data[0] write_data[10]
+ write_data[11] write_data[12] write_data[13] write_data[14]
+ write_data[15] write_data[16] write_data[17] write_data[18]
+ write_data[19] write_data[1] write_data[20] write_data[21]
+ write_data[22] write_data[23] write_data[24] write_data[25]
+ write_data[26] write_data[27] write_data[28] write_data[29]
+ write_data[2] write_data[30] write_data[31] write_data[3]
+ write_data[4] write_data[5] write_data[6] write_data[7] write_data[8]
+ write_data[9] write_done write_req write_strb[0] write_strb[1]
+ write_strb[2] write_strb[3] wstrb[0] wstrb[1] wstrb[2] wstrb[3]
+ wvalid
X_207_ state_r\[2\] state_r\[1\] _142_ VDD VSS gf180mcu_fd_sc_mcu9t5v0__or2_2
X_208_ state_r\[0\] _142_ _143_ VDD VSS gf180mcu_fd_sc_mcu9t5v0__nor2_2
X_209_ net69 _143_ _144_ VDD VSS gf180mcu_fd_sc_mcu9t5v0__and2_4
X_210_ _144_ _145_ VDD VSS gf180mcu_fd_sc_mcu9t5v0__buf_12
X_211_ net141 net37 _145_ _000_ VDD VSS gf180mcu_fd_sc_mcu9t5v0__mux2_2
X_212_ net142 net38 _145_ _001_ VDD VSS gf180mcu_fd_sc_mcu9t5v0__mux2_2
X_213_ net143 net39 _145_ _002_ VDD VSS gf180mcu_fd_sc_mcu9t5v0__mux2_2
X_214_ net144 net40 _145_ _003_ VDD VSS gf180mcu_fd_sc_mcu9t5v0__mux2_2
X_215_ net145 net41 _145_ _004_ VDD VSS gf180mcu_fd_sc_mcu9t5v0__mux2_2
X_216_ net146 net42 _145_ _005_ VDD VSS gf180mcu_fd_sc_mcu9t5v0__mux2_2
X_217_ net147 net43 _145_ _006_ VDD VSS gf180mcu_fd_sc_mcu9t5v0__mux2_2
X_218_ net148 net44 _145_ _007_ VDD VSS gf180mcu_fd_sc_mcu9t5v0__mux2_2
X_219_ net149 net45 _145_ _008_ VDD VSS gf180mcu_fd_sc_mcu9t5v0__mux2_2
X_220_ net150 net46 _145_ _009_ VDD VSS gf180mcu_fd_sc_mcu9t5v0__mux2_2
X_221_ _144_ _146_ VDD VSS gf180mcu_fd_sc_mcu9t5v0__buf_12
X_222_ net151 net47 _146_ _010_ VDD VSS gf180mcu_fd_sc_mcu9t5v0__mux2_2
X_223_ net152 net48 _146_ _011_ VDD VSS gf180mcu_fd_sc_mcu9t5v0__mux2_2
X_224_ net153 net49 _146_ _012_ VDD VSS gf180mcu_fd_sc_mcu9t5v0__mux2_2
X_225_ net154 net50 _146_ _013_ VDD VSS gf180mcu_fd_sc_mcu9t5v0__mux2_2
X_226_ net155 net51 _146_ _014_ VDD VSS gf180mcu_fd_sc_mcu9t5v0__mux2_2
X_227_ net156 net52 _146_ _015_ VDD VSS gf180mcu_fd_sc_mcu9t5v0__mux2_2
X_228_ net157 net53 _146_ _016_ VDD VSS gf180mcu_fd_sc_mcu9t5v0__mux2_2
X_229_ net158 net54 _146_ _017_ VDD VSS gf180mcu_fd_sc_mcu9t5v0__mux2_2
X_230_ net159 net55 _146_ _018_ VDD VSS gf180mcu_fd_sc_mcu9t5v0__mux2_2
X_231_ net160 net56 _146_ _019_ VDD VSS gf180mcu_fd_sc_mcu9t5v0__mux2_2
X_232_ _144_ _147_ VDD VSS gf180mcu_fd_sc_mcu9t5v0__buf_4
X_233_ net161 net57 _147_ _020_ VDD VSS gf180mcu_fd_sc_mcu9t5v0__mux2_2
X_234_ net162 net58 _147_ _021_ VDD VSS gf180mcu_fd_sc_mcu9t5v0__mux2_2
X_235_ net163 net59 _147_ _022_ VDD VSS gf180mcu_fd_sc_mcu9t5v0__mux2_2
X_236_ net164 net60 _147_ _023_ VDD VSS gf180mcu_fd_sc_mcu9t5v0__mux2_2
X_237_ net165 net61 _147_ _024_ VDD VSS gf180mcu_fd_sc_mcu9t5v0__mux2_2
X_238_ net166 net62 _147_ _025_ VDD VSS gf180mcu_fd_sc_mcu9t5v0__mux2_2
X_239_ net167 net63 _147_ _026_ VDD VSS gf180mcu_fd_sc_mcu9t5v0__mux2_2
X_240_ net168 net64 _147_ _027_ VDD VSS gf180mcu_fd_sc_mcu9t5v0__mux2_2
X_241_ net169 net65 _147_ _028_ VDD VSS gf180mcu_fd_sc_mcu9t5v0__mux2_2
X_242_ net170 net66 _147_ _029_ VDD VSS gf180mcu_fd_sc_mcu9t5v0__mux2_2
X_243_ net171 net67 _144_ _030_ VDD VSS gf180mcu_fd_sc_mcu9t5v0__mux2_2
X_244_ net172 net68 _144_ _031_ VDD VSS gf180mcu_fd_sc_mcu9t5v0__mux2_2
X_245_ state_r\[2\] _148_ VDD VSS gf180mcu_fd_sc_mcu9t5v0__buf_4
X_246_ state_r\[1\] _149_ VDD VSS gf180mcu_fd_sc_mcu9t5v0__inv_3
X_247_ state_r\[0\] _150_ VDD VSS gf180mcu_fd_sc_mcu9t5v0__inv_4
X_248_ _149_ _150_ _151_ VDD VSS gf180mcu_fd_sc_mcu9t5v0__and2_2
X_249_ net69 _151_ net173 _152_ VDD VSS gf180mcu_fd_sc_mcu9t5v0__aoi21_2
X_250_ _150_ net2 _153_ VDD VSS gf180mcu_fd_sc_mcu9t5v0__and2_2
X_251_ _149_ net173 _154_ VDD VSS gf180mcu_fd_sc_mcu9t5v0__nand2_2
X_252_ _148_ _152_ _153_ _154_ _032_ VDD VSS gf180mcu_fd_sc_mcu9t5v0__oai22_2
X_253_ net136 _143_ _155_ VDD VSS gf180mcu_fd_sc_mcu9t5v0__and2_4
X_254_ _155_ _156_ VDD VSS gf180mcu_fd_sc_mcu9t5v0__clkbuf_16
X_255_ _156_ _157_ VDD VSS gf180mcu_fd_sc_mcu9t5v0__clkbuf_20
X_256_ net174 net72 _157_ _033_ VDD VSS gf180mcu_fd_sc_mcu9t5v0__mux2_2
X_257_ net175 net73 _157_ _034_ VDD VSS gf180mcu_fd_sc_mcu9t5v0__mux2_2
X_258_ net176 net74 _157_ _035_ VDD VSS gf180mcu_fd_sc_mcu9t5v0__mux2_2
X_259_ net177 net75 _157_ _036_ VDD VSS gf180mcu_fd_sc_mcu9t5v0__mux2_2
X_260_ net178 net76 _157_ _037_ VDD VSS gf180mcu_fd_sc_mcu9t5v0__mux2_2
X_261_ net179 net77 _157_ _038_ VDD VSS gf180mcu_fd_sc_mcu9t5v0__mux2_2
X_262_ net180 net78 _157_ _039_ VDD VSS gf180mcu_fd_sc_mcu9t5v0__mux2_2
X_263_ net181 net79 _157_ _040_ VDD VSS gf180mcu_fd_sc_mcu9t5v0__mux2_2
X_264_ net182 net80 _157_ _041_ VDD VSS gf180mcu_fd_sc_mcu9t5v0__mux2_2
X_265_ net183 net81 _157_ _042_ VDD VSS gf180mcu_fd_sc_mcu9t5v0__mux2_2
X_266_ _156_ _158_ VDD VSS gf180mcu_fd_sc_mcu9t5v0__clkbuf_20
X_267_ net184 net82 _158_ _043_ VDD VSS gf180mcu_fd_sc_mcu9t5v0__mux2_2
X_268_ net185 net83 _158_ _044_ VDD VSS gf180mcu_fd_sc_mcu9t5v0__mux2_2
X_269_ net186 net84 _158_ _045_ VDD VSS gf180mcu_fd_sc_mcu9t5v0__mux2_2
X_270_ net187 net85 _158_ _046_ VDD VSS gf180mcu_fd_sc_mcu9t5v0__mux2_2
X_271_ net188 net86 _158_ _047_ VDD VSS gf180mcu_fd_sc_mcu9t5v0__mux2_2
X_272_ net189 net87 _158_ _048_ VDD VSS gf180mcu_fd_sc_mcu9t5v0__mux2_2
X_273_ net190 net88 _158_ _049_ VDD VSS gf180mcu_fd_sc_mcu9t5v0__mux2_2
X_274_ net191 net89 _158_ _050_ VDD VSS gf180mcu_fd_sc_mcu9t5v0__mux2_2
X_275_ net192 net90 _158_ _051_ VDD VSS gf180mcu_fd_sc_mcu9t5v0__mux2_2
X_276_ net193 net91 _158_ _052_ VDD VSS gf180mcu_fd_sc_mcu9t5v0__mux2_2
X_277_ _155_ _159_ VDD VSS gf180mcu_fd_sc_mcu9t5v0__clkbuf_16
X_278_ net194 net92 _159_ _053_ VDD VSS gf180mcu_fd_sc_mcu9t5v0__mux2_2
X_279_ net195 net93 _159_ _054_ VDD VSS gf180mcu_fd_sc_mcu9t5v0__mux2_2
X_280_ net196 net94 _159_ _055_ VDD VSS gf180mcu_fd_sc_mcu9t5v0__mux2_2
X_281_ net197 net95 _159_ _056_ VDD VSS gf180mcu_fd_sc_mcu9t5v0__mux2_2
X_282_ net198 net96 _159_ _057_ VDD VSS gf180mcu_fd_sc_mcu9t5v0__mux2_2
X_283_ net199 net97 _159_ _058_ VDD VSS gf180mcu_fd_sc_mcu9t5v0__mux2_2
X_284_ net200 net98 _159_ _059_ VDD VSS gf180mcu_fd_sc_mcu9t5v0__mux2_2
X_285_ net201 net99 _159_ _060_ VDD VSS gf180mcu_fd_sc_mcu9t5v0__mux2_2
X_286_ net202 net100 _159_ _061_ VDD VSS gf180mcu_fd_sc_mcu9t5v0__mux2_2
X_287_ net203 net101 _159_ _062_ VDD VSS gf180mcu_fd_sc_mcu9t5v0__mux2_2
X_288_ _155_ _160_ VDD VSS gf180mcu_fd_sc_mcu9t5v0__buf_16
X_289_ net204 net102 _160_ _063_ VDD VSS gf180mcu_fd_sc_mcu9t5v0__mux2_2
X_290_ net205 net103 _160_ _064_ VDD VSS gf180mcu_fd_sc_mcu9t5v0__mux2_2
X_291_ state_r\[2\] _161_ VDD VSS gf180mcu_fd_sc_mcu9t5v0__clkinv_3
X_292_ _161_ _150_ _162_ VDD VSS gf180mcu_fd_sc_mcu9t5v0__and2_2
X_293_ _148_ net206 _162_ net136 _163_ VDD VSS gf180mcu_fd_sc_mcu9t5v0__aoi22_2
X_294_ _161_ net206 _164_ VDD VSS gf180mcu_fd_sc_mcu9t5v0__nand2_2
X_295_ _149_ state_r\[0\] _165_ VDD VSS gf180mcu_fd_sc_mcu9t5v0__and2_2
X_296_ net3 _165_ _166_ VDD VSS gf180mcu_fd_sc_mcu9t5v0__and2_2
X_297_ state_r\[1\] _163_ _164_ _166_ _065_ VDD VSS gf180mcu_fd_sc_mcu9t5v0__oai22_2
X_298_ net4 _167_ VDD VSS gf180mcu_fd_sc_mcu9t5v0__clkinv_2
X_299_ state_r\[1\] net279 net71 _168_ VDD VSS gf180mcu_fd_sc_mcu9t5v0__and3_2
X_300_ net207 _168_ _169_ VDD VSS gf180mcu_fd_sc_mcu9t5v0__or2_2
X_301_ net207 _167_ _169_ _150_ _170_ VDD VSS gf180mcu_fd_sc_mcu9t5v0__aoi22_2
X_302_ _149_ net207 _171_ VDD VSS gf180mcu_fd_sc_mcu9t5v0__nand2_2
X_303_ _148_ _170_ _171_ _066_ VDD VSS gf180mcu_fd_sc_mcu9t5v0__oai21_2
X_304_ state_r\[0\] net241 net70 _172_ VDD VSS gf180mcu_fd_sc_mcu9t5v0__and3_2
X_305_ state_r\[2\] _149_ _172_ _173_ VDD VSS gf180mcu_fd_sc_mcu9t5v0__and3_4
X_306_ _173_ _174_ VDD VSS gf180mcu_fd_sc_mcu9t5v0__buf_4
X_307_ net208 net5 _174_ _067_ VDD VSS gf180mcu_fd_sc_mcu9t5v0__mux2_2
X_308_ net209 net6 _174_ _068_ VDD VSS gf180mcu_fd_sc_mcu9t5v0__mux2_2
X_309_ net210 net7 _174_ _069_ VDD VSS gf180mcu_fd_sc_mcu9t5v0__mux2_2
X_310_ net211 net8 _174_ _070_ VDD VSS gf180mcu_fd_sc_mcu9t5v0__mux2_2
X_311_ net212 net9 _174_ _071_ VDD VSS gf180mcu_fd_sc_mcu9t5v0__mux2_2
X_312_ net213 net10 _174_ _072_ VDD VSS gf180mcu_fd_sc_mcu9t5v0__mux2_2
X_313_ net214 net11 _174_ _073_ VDD VSS gf180mcu_fd_sc_mcu9t5v0__mux2_2
X_314_ net215 net12 _174_ _074_ VDD VSS gf180mcu_fd_sc_mcu9t5v0__mux2_2
X_315_ net216 net13 _174_ _075_ VDD VSS gf180mcu_fd_sc_mcu9t5v0__mux2_2
X_316_ net217 net14 _174_ _076_ VDD VSS gf180mcu_fd_sc_mcu9t5v0__mux2_2
X_317_ _173_ _175_ VDD VSS gf180mcu_fd_sc_mcu9t5v0__clkbuf_16
X_318_ net218 net15 _175_ _077_ VDD VSS gf180mcu_fd_sc_mcu9t5v0__mux2_2
X_319_ net219 net16 _175_ _078_ VDD VSS gf180mcu_fd_sc_mcu9t5v0__mux2_2
X_320_ net220 net17 _175_ _079_ VDD VSS gf180mcu_fd_sc_mcu9t5v0__mux2_2
X_321_ net221 net18 _175_ _080_ VDD VSS gf180mcu_fd_sc_mcu9t5v0__mux2_2
X_322_ net222 net19 _175_ _081_ VDD VSS gf180mcu_fd_sc_mcu9t5v0__mux2_2
X_323_ net223 net20 _175_ _082_ VDD VSS gf180mcu_fd_sc_mcu9t5v0__mux2_2
X_324_ net224 net21 _175_ _083_ VDD VSS gf180mcu_fd_sc_mcu9t5v0__mux2_2
X_325_ net225 net22 _175_ _084_ VDD VSS gf180mcu_fd_sc_mcu9t5v0__mux2_2
X_326_ net226 net23 _175_ _085_ VDD VSS gf180mcu_fd_sc_mcu9t5v0__mux2_2
X_327_ net227 net24 _175_ _086_ VDD VSS gf180mcu_fd_sc_mcu9t5v0__mux2_2
X_328_ _173_ _176_ VDD VSS gf180mcu_fd_sc_mcu9t5v0__buf_4
X_329_ net228 net25 _176_ _087_ VDD VSS gf180mcu_fd_sc_mcu9t5v0__mux2_2
X_330_ net229 net26 _176_ _088_ VDD VSS gf180mcu_fd_sc_mcu9t5v0__mux2_2
X_331_ net230 net27 _176_ _089_ VDD VSS gf180mcu_fd_sc_mcu9t5v0__mux2_2
X_332_ net231 net28 _176_ _090_ VDD VSS gf180mcu_fd_sc_mcu9t5v0__mux2_2
X_333_ net232 net29 _176_ _091_ VDD VSS gf180mcu_fd_sc_mcu9t5v0__mux2_2
X_334_ net233 net30 _176_ _092_ VDD VSS gf180mcu_fd_sc_mcu9t5v0__mux2_2
X_335_ net234 net31 _176_ _093_ VDD VSS gf180mcu_fd_sc_mcu9t5v0__mux2_2
X_336_ net235 net32 _176_ _094_ VDD VSS gf180mcu_fd_sc_mcu9t5v0__mux2_2
X_337_ net236 net33 _176_ _095_ VDD VSS gf180mcu_fd_sc_mcu9t5v0__mux2_2
X_338_ net237 net34 _176_ _096_ VDD VSS gf180mcu_fd_sc_mcu9t5v0__mux2_2
X_339_ net238 net35 _173_ _097_ VDD VSS gf180mcu_fd_sc_mcu9t5v0__mux2_2
X_340_ net239 net36 _173_ _098_ VDD VSS gf180mcu_fd_sc_mcu9t5v0__mux2_2
X_341_ net241 net70 _165_ _177_ VDD VSS gf180mcu_fd_sc_mcu9t5v0__and3_2
X_342_ net240 _177_ _148_ _178_ VDD VSS gf180mcu_fd_sc_mcu9t5v0__oai21_2
X_343_ _149_ _150_ _179_ VDD VSS gf180mcu_fd_sc_mcu9t5v0__nand2_2
X_344_ net240 _179_ _180_ VDD VSS gf180mcu_fd_sc_mcu9t5v0__nand2_2
X_345_ _178_ _180_ _099_ VDD VSS gf180mcu_fd_sc_mcu9t5v0__nand2_2
X_346_ net70 _181_ VDD VSS gf180mcu_fd_sc_mcu9t5v0__clkinv_2
X_347_ _148_ net173 net2 _182_ VDD VSS gf180mcu_fd_sc_mcu9t5v0__and3_2
X_348_ net241 _182_ _183_ VDD VSS gf180mcu_fd_sc_mcu9t5v0__or2_2
X_349_ net241 _181_ _183_ _150_ _184_ VDD VSS gf180mcu_fd_sc_mcu9t5v0__aoi22_2
X_350_ _161_ net241 _185_ VDD VSS gf180mcu_fd_sc_mcu9t5v0__nand2_2
X_351_ state_r\[1\] _184_ _185_ _100_ VDD VSS gf180mcu_fd_sc_mcu9t5v0__oai21_2
X_352_ net136 _142_ _186_ VDD VSS gf180mcu_fd_sc_mcu9t5v0__nor2_2
X_353_ _148_ state_r\[1\] state_r\[0\] _186_ _187_ VDD VSS
+ gf180mcu_fd_sc_mcu9t5v0__aoi211_2
X_354_ net206 net3 _142_ _188_ VDD VSS gf180mcu_fd_sc_mcu9t5v0__aoi21_2
X_355_ net136 net69 _189_ VDD VSS gf180mcu_fd_sc_mcu9t5v0__nor2_2
X_356_ state_r\[0\] _188_ _189_ _143_ _190_ VDD VSS gf180mcu_fd_sc_mcu9t5v0__aoi22_2
X_357_ _150_ net279 net71 _191_ VDD VSS gf180mcu_fd_sc_mcu9t5v0__and3_2
X_358_ state_r\[0\] net207 net4 _192_ VDD VSS gf180mcu_fd_sc_mcu9t5v0__and3_2
X_359_ _148_ _149_ _191_ _192_ _193_ VDD VSS gf180mcu_fd_sc_mcu9t5v0__or4_2
X_360_ _150_ net173 net2 _194_ VDD VSS gf180mcu_fd_sc_mcu9t5v0__and3_2
X_361_ _161_ state_r\[1\] _172_ _194_ _195_ VDD VSS gf180mcu_fd_sc_mcu9t5v0__or4_2
X_362_ _190_ _193_ _195_ _196_ VDD VSS gf180mcu_fd_sc_mcu9t5v0__nand3_4
X_363_ _187_ state_r\[0\] _196_ _101_ VDD VSS gf180mcu_fd_sc_mcu9t5v0__mux2_2
X_364_ state_r\[1\] state_r\[0\] _197_ VDD VSS gf180mcu_fd_sc_mcu9t5v0__xnor2_2
X_365_ _148_ _196_ _197_ _193_ _102_ VDD VSS gf180mcu_fd_sc_mcu9t5v0__oai31_2
X_366_ _161_ net136 _198_ VDD VSS gf180mcu_fd_sc_mcu9t5v0__and2_2
X_367_ _179_ _196_ _198_ _195_ _103_ VDD VSS gf180mcu_fd_sc_mcu9t5v0__oai31_2
X_368_ net242 net104 _160_ _104_ VDD VSS gf180mcu_fd_sc_mcu9t5v0__mux2_2
X_369_ net243 net105 _160_ _105_ VDD VSS gf180mcu_fd_sc_mcu9t5v0__mux2_2
X_370_ net244 net106 _160_ _106_ VDD VSS gf180mcu_fd_sc_mcu9t5v0__mux2_2
X_371_ net245 net107 _160_ _107_ VDD VSS gf180mcu_fd_sc_mcu9t5v0__mux2_2
X_372_ net246 net108 _160_ _108_ VDD VSS gf180mcu_fd_sc_mcu9t5v0__mux2_2
X_373_ net247 net109 _160_ _109_ VDD VSS gf180mcu_fd_sc_mcu9t5v0__mux2_2
X_374_ net248 net110 _160_ _110_ VDD VSS gf180mcu_fd_sc_mcu9t5v0__mux2_2
X_375_ net249 net111 _160_ _111_ VDD VSS gf180mcu_fd_sc_mcu9t5v0__mux2_2
X_376_ _155_ _199_ VDD VSS gf180mcu_fd_sc_mcu9t5v0__clkbuf_8
X_377_ net250 net112 _199_ _112_ VDD VSS gf180mcu_fd_sc_mcu9t5v0__mux2_2
X_378_ net251 net113 _199_ _113_ VDD VSS gf180mcu_fd_sc_mcu9t5v0__mux2_2
X_379_ net252 net114 _199_ _114_ VDD VSS gf180mcu_fd_sc_mcu9t5v0__mux2_2
X_380_ net253 net115 _199_ _115_ VDD VSS gf180mcu_fd_sc_mcu9t5v0__mux2_2
X_381_ net254 net116 _199_ _116_ VDD VSS gf180mcu_fd_sc_mcu9t5v0__mux2_2
X_382_ net255 net117 _199_ _117_ VDD VSS gf180mcu_fd_sc_mcu9t5v0__mux2_2
X_383_ net256 net118 _199_ _118_ VDD VSS gf180mcu_fd_sc_mcu9t5v0__mux2_2
X_384_ net257 net119 _199_ _119_ VDD VSS gf180mcu_fd_sc_mcu9t5v0__mux2_2
X_385_ net258 net120 _199_ _120_ VDD VSS gf180mcu_fd_sc_mcu9t5v0__mux2_2
X_386_ net259 net121 _199_ _121_ VDD VSS gf180mcu_fd_sc_mcu9t5v0__mux2_2
X_387_ _155_ _200_ VDD VSS gf180mcu_fd_sc_mcu9t5v0__clkbuf_8
X_388_ net260 net122 _200_ _122_ VDD VSS gf180mcu_fd_sc_mcu9t5v0__mux2_2
X_389_ net261 net123 _200_ _123_ VDD VSS gf180mcu_fd_sc_mcu9t5v0__mux2_2
X_390_ net262 net124 _200_ _124_ VDD VSS gf180mcu_fd_sc_mcu9t5v0__mux2_2
X_391_ net263 net125 _200_ _125_ VDD VSS gf180mcu_fd_sc_mcu9t5v0__mux2_2
X_392_ net264 net126 _200_ _126_ VDD VSS gf180mcu_fd_sc_mcu9t5v0__mux2_2
X_393_ net265 net127 _200_ _127_ VDD VSS gf180mcu_fd_sc_mcu9t5v0__mux2_2
X_394_ net266 net128 _200_ _128_ VDD VSS gf180mcu_fd_sc_mcu9t5v0__mux2_2
X_395_ net267 net129 _200_ _129_ VDD VSS gf180mcu_fd_sc_mcu9t5v0__mux2_2
X_396_ net268 net130 _200_ _130_ VDD VSS gf180mcu_fd_sc_mcu9t5v0__mux2_2
X_397_ net269 net131 _200_ _131_ VDD VSS gf180mcu_fd_sc_mcu9t5v0__mux2_2
X_398_ net270 net132 _156_ _132_ VDD VSS gf180mcu_fd_sc_mcu9t5v0__mux2_2
X_399_ net271 net133 _156_ _133_ VDD VSS gf180mcu_fd_sc_mcu9t5v0__mux2_2
X_400_ net272 net134 _156_ _134_ VDD VSS gf180mcu_fd_sc_mcu9t5v0__mux2_2
X_401_ net273 net135 _156_ _135_ VDD VSS gf180mcu_fd_sc_mcu9t5v0__mux2_2
X_402_ net274 _201_ VDD VSS gf180mcu_fd_sc_mcu9t5v0__clkinv_2
X_403_ _161_ _192_ net274 _202_ VDD VSS gf180mcu_fd_sc_mcu9t5v0__aoi21_2
X_404_ _201_ _162_ _202_ _149_ _136_ VDD VSS gf180mcu_fd_sc_mcu9t5v0__oai22_2
X_405_ net275 net137 _156_ _137_ VDD VSS gf180mcu_fd_sc_mcu9t5v0__mux2_2
X_406_ net276 net138 _156_ _138_ VDD VSS gf180mcu_fd_sc_mcu9t5v0__mux2_2
X_407_ net277 net139 _156_ _139_ VDD VSS gf180mcu_fd_sc_mcu9t5v0__mux2_2
X_408_ net278 net140 _156_ _140_ VDD VSS gf180mcu_fd_sc_mcu9t5v0__mux2_2
X_409_ net279 _203_ VDD VSS gf180mcu_fd_sc_mcu9t5v0__clkinv_2
X_410_ _148_ _150_ _188_ _204_ VDD VSS gf180mcu_fd_sc_mcu9t5v0__or3_2
X_411_ _203_ _204_ state_r\[1\] _205_ VDD VSS gf180mcu_fd_sc_mcu9t5v0__aoi21_2
X_412_ _150_ net71 _203_ _148_ _206_ VDD VSS gf180mcu_fd_sc_mcu9t5v0__aoi211_2
X_413_ _205_ _206_ _141_ VDD VSS gf180mcu_fd_sc_mcu9t5v0__or2_2
Xaraddr\[0\]$_DFFE_PN0P_ _000_ net1 clknet_4_2__leaf_clk net141
+ VDD VSS gf180mcu_fd_sc_mcu9t5v0__dffrnq_2
Xaraddr\[10\]$_DFFE_PN0P_ _001_ net1 clknet_4_3__leaf_clk
+ net142 VDD VSS gf180mcu_fd_sc_mcu9t5v0__dffrnq_2
Xaraddr\[11\]$_DFFE_PN0P_ _002_ net1 clknet_4_3__leaf_clk
+ net143 VDD VSS gf180mcu_fd_sc_mcu9t5v0__dffrnq_2
Xaraddr\[12\]$_DFFE_PN0P_ _003_ net1 clknet_4_2__leaf_clk
+ net144 VDD VSS gf180mcu_fd_sc_mcu9t5v0__dffrnq_2
Xaraddr\[13\]$_DFFE_PN0P_ _004_ net1 clknet_4_3__leaf_clk
+ net145 VDD VSS gf180mcu_fd_sc_mcu9t5v0__dffrnq_2
Xaraddr\[14\]$_DFFE_PN0P_ _005_ net1 clknet_4_3__leaf_clk
+ net146 VDD VSS gf180mcu_fd_sc_mcu9t5v0__dffrnq_2
Xaraddr\[15\]$_DFFE_PN0P_ _006_ net1 clknet_4_0__leaf_clk
+ net147 VDD VSS gf180mcu_fd_sc_mcu9t5v0__dffrnq_2
Xaraddr\[16\]$_DFFE_PN0P_ _007_ net1 clknet_4_10__leaf_clk
+ net148 VDD VSS gf180mcu_fd_sc_mcu9t5v0__dffrnq_2
Xaraddr\[17\]$_DFFE_PN0P_ _008_ net1 clknet_4_3__leaf_clk
+ net149 VDD VSS gf180mcu_fd_sc_mcu9t5v0__dffrnq_2
Xaraddr\[18\]$_DFFE_PN0P_ _009_ net1 clknet_4_3__leaf_clk
+ net150 VDD VSS gf180mcu_fd_sc_mcu9t5v0__dffrnq_2
Xaraddr\[19\]$_DFFE_PN0P_ _010_ net1 clknet_4_10__leaf_clk
+ net151 VDD VSS gf180mcu_fd_sc_mcu9t5v0__dffrnq_2
Xaraddr\[1\]$_DFFE_PN0P_ _011_ net1 clknet_4_2__leaf_clk net152
+ VDD VSS gf180mcu_fd_sc_mcu9t5v0__dffrnq_2
Xaraddr\[20\]$_DFFE_PN0P_ _012_ net1 clknet_4_2__leaf_clk
+ net153 VDD VSS gf180mcu_fd_sc_mcu9t5v0__dffrnq_2
Xaraddr\[21\]$_DFFE_PN0P_ _013_ net1 clknet_4_8__leaf_clk
+ net154 VDD VSS gf180mcu_fd_sc_mcu9t5v0__dffrnq_2
Xaraddr\[22\]$_DFFE_PN0P_ _014_ net1 clknet_4_8__leaf_clk
+ net155 VDD VSS gf180mcu_fd_sc_mcu9t5v0__dffrnq_2
Xaraddr\[23\]$_DFFE_PN0P_ _015_ net1 clknet_4_2__leaf_clk
+ net156 VDD VSS gf180mcu_fd_sc_mcu9t5v0__dffrnq_2
Xaraddr\[24\]$_DFFE_PN0P_ _016_ net1 clknet_4_2__leaf_clk
+ net157 VDD VSS gf180mcu_fd_sc_mcu9t5v0__dffrnq_2
Xaraddr\[25\]$_DFFE_PN0P_ _017_ net1 clknet_4_2__leaf_clk
+ net158 VDD VSS gf180mcu_fd_sc_mcu9t5v0__dffrnq_2
Xaraddr\[26\]$_DFFE_PN0P_ _018_ net1 clknet_4_11__leaf_clk
+ net159 VDD VSS gf180mcu_fd_sc_mcu9t5v0__dffrnq_2
Xaraddr\[27\]$_DFFE_PN0P_ _019_ net1 clknet_4_2__leaf_clk
+ net160 VDD VSS gf180mcu_fd_sc_mcu9t5v0__dffrnq_2
Xaraddr\[28\]$_DFFE_PN0P_ _020_ net1 clknet_4_8__leaf_clk
+ net161 VDD VSS gf180mcu_fd_sc_mcu9t5v0__dffrnq_2
Xaraddr\[29\]$_DFFE_PN0P_ _021_ net1 clknet_4_10__leaf_clk
+ net162 VDD VSS gf180mcu_fd_sc_mcu9t5v0__dffrnq_2
Xaraddr\[2\]$_DFFE_PN0P_ _022_ net1 clknet_4_11__leaf_clk
+ net163 VDD VSS gf180mcu_fd_sc_mcu9t5v0__dffrnq_2
Xaraddr\[30\]$_DFFE_PN0P_ _023_ net1 clknet_4_11__leaf_clk
+ net164 VDD VSS gf180mcu_fd_sc_mcu9t5v0__dffrnq_2
Xaraddr\[31\]$_DFFE_PN0P_ _024_ net1 clknet_4_10__leaf_clk
+ net165 VDD VSS gf180mcu_fd_sc_mcu9t5v0__dffrnq_2
Xaraddr\[3\]$_DFFE_PN0P_ _025_ net1 clknet_4_11__leaf_clk
+ net166 VDD VSS gf180mcu_fd_sc_mcu9t5v0__dffrnq_2
Xaraddr\[4\]$_DFFE_PN0P_ _026_ net1 clknet_4_10__leaf_clk
+ net167 VDD VSS gf180mcu_fd_sc_mcu9t5v0__dffrnq_2
Xaraddr\[5\]$_DFFE_PN0P_ _027_ net1 clknet_4_11__leaf_clk
+ net168 VDD VSS gf180mcu_fd_sc_mcu9t5v0__dffrnq_2
Xaraddr\[6\]$_DFFE_PN0P_ _028_ net1 clknet_4_11__leaf_clk
+ net169 VDD VSS gf180mcu_fd_sc_mcu9t5v0__dffrnq_2
Xaraddr\[7\]$_DFFE_PN0P_ _029_ net1 clknet_4_10__leaf_clk
+ net170 VDD VSS gf180mcu_fd_sc_mcu9t5v0__dffrnq_2
Xaraddr\[8\]$_DFFE_PN0P_ _030_ net1 clknet_4_6__leaf_clk net171
+ VDD VSS gf180mcu_fd_sc_mcu9t5v0__dffrnq_2
Xaraddr\[9\]$_DFFE_PN0P_ _031_ net1 clknet_4_3__leaf_clk net172
+ VDD VSS gf180mcu_fd_sc_mcu9t5v0__dffrnq_2
Xarvalid$_DFFE_PN0P_ _032_ net1 clknet_4_5__leaf_clk net173
+ VDD VSS gf180mcu_fd_sc_mcu9t5v0__dffrnq_2
Xawaddr\[0\]$_DFFE_PN0P_ _033_ net1 clknet_4_9__leaf_clk net174
+ VDD VSS gf180mcu_fd_sc_mcu9t5v0__dffrnq_2
Xawaddr\[10\]$_DFFE_PN0P_ _034_ net1 clknet_4_11__leaf_clk
+ net175 VDD VSS gf180mcu_fd_sc_mcu9t5v0__dffrnq_2
Xawaddr\[11\]$_DFFE_PN0P_ _035_ net1 clknet_4_9__leaf_clk
+ net176 VDD VSS gf180mcu_fd_sc_mcu9t5v0__dffrnq_2
Xawaddr\[12\]$_DFFE_PN0P_ _036_ net1 clknet_4_8__leaf_clk
+ net177 VDD VSS gf180mcu_fd_sc_mcu9t5v0__dffrnq_2
Xawaddr\[13\]$_DFFE_PN0P_ _037_ net1 clknet_4_11__leaf_clk
+ net178 VDD VSS gf180mcu_fd_sc_mcu9t5v0__dffrnq_2
Xawaddr\[14\]$_DFFE_PN0P_ _038_ net1 clknet_4_9__leaf_clk
+ net179 VDD VSS gf180mcu_fd_sc_mcu9t5v0__dffrnq_2
Xawaddr\[15\]$_DFFE_PN0P_ _039_ net1 clknet_4_9__leaf_clk
+ net180 VDD VSS gf180mcu_fd_sc_mcu9t5v0__dffrnq_2
Xawaddr\[16\]$_DFFE_PN0P_ _040_ net1 clknet_4_9__leaf_clk
+ net181 VDD VSS gf180mcu_fd_sc_mcu9t5v0__dffrnq_2
Xawaddr\[17\]$_DFFE_PN0P_ _041_ net1 clknet_4_8__leaf_clk
+ net182 VDD VSS gf180mcu_fd_sc_mcu9t5v0__dffrnq_2
Xawaddr\[18\]$_DFFE_PN0P_ _042_ net1 clknet_4_11__leaf_clk
+ net183 VDD VSS gf180mcu_fd_sc_mcu9t5v0__dffrnq_2
Xawaddr\[19\]$_DFFE_PN0P_ _043_ net1 clknet_4_14__leaf_clk
+ net184 VDD VSS gf180mcu_fd_sc_mcu9t5v0__dffrnq_2
Xawaddr\[1\]$_DFFE_PN0P_ _044_ net1 clknet_4_14__leaf_clk
+ net185 VDD VSS gf180mcu_fd_sc_mcu9t5v0__dffrnq_2
Xawaddr\[20\]$_DFFE_PN0P_ _045_ net1 clknet_4_14__leaf_clk
+ net186 VDD VSS gf180mcu_fd_sc_mcu9t5v0__dffrnq_2
Xawaddr\[21\]$_DFFE_PN0P_ _046_ net1 clknet_4_14__leaf_clk
+ net187 VDD VSS gf180mcu_fd_sc_mcu9t5v0__dffrnq_2
Xawaddr\[22\]$_DFFE_PN0P_ _047_ net1 clknet_4_9__leaf_clk
+ net188 VDD VSS gf180mcu_fd_sc_mcu9t5v0__dffrnq_4
Xawaddr\[23\]$_DFFE_PN0P_ _048_ net1 clknet_4_14__leaf_clk
+ net189 VDD VSS gf180mcu_fd_sc_mcu9t5v0__dffrnq_2
Xawaddr\[24\]$_DFFE_PN0P_ _049_ net1 clknet_4_14__leaf_clk
+ net190 VDD VSS gf180mcu_fd_sc_mcu9t5v0__dffrnq_2
Xawaddr\[25\]$_DFFE_PN0P_ _050_ net1 clknet_4_14__leaf_clk
+ net191 VDD VSS gf180mcu_fd_sc_mcu9t5v0__dffrnq_2
Xawaddr\[26\]$_DFFE_PN0P_ _051_ net1 clknet_4_14__leaf_clk
+ net192 VDD VSS gf180mcu_fd_sc_mcu9t5v0__dffrnq_2
Xawaddr\[27\]$_DFFE_PN0P_ _052_ net1 clknet_4_9__leaf_clk
+ net193 VDD VSS gf180mcu_fd_sc_mcu9t5v0__dffrnq_2
Xawaddr\[28\]$_DFFE_PN0P_ _053_ net1 clknet_4_15__leaf_clk
+ net194 VDD VSS gf180mcu_fd_sc_mcu9t5v0__dffrnq_2
Xawaddr\[29\]$_DFFE_PN0P_ _054_ net1 clknet_4_13__leaf_clk
+ net195 VDD VSS gf180mcu_fd_sc_mcu9t5v0__dffrnq_2
Xawaddr\[2\]$_DFFE_PN0P_ _055_ net1 clknet_4_13__leaf_clk
+ net196 VDD VSS gf180mcu_fd_sc_mcu9t5v0__dffrnq_2
Xawaddr\[30\]$_DFFE_PN0P_ _056_ net1 clknet_4_13__leaf_clk
+ net197 VDD VSS gf180mcu_fd_sc_mcu9t5v0__dffrnq_2
Xawaddr\[31\]$_DFFE_PN0P_ _057_ net1 clknet_4_5__leaf_clk
+ net198 VDD VSS gf180mcu_fd_sc_mcu9t5v0__dffrnq_2
Xawaddr\[3\]$_DFFE_PN0P_ _058_ net1 clknet_4_13__leaf_clk
+ net199 VDD VSS gf180mcu_fd_sc_mcu9t5v0__dffrnq_2
Xawaddr\[4\]$_DFFE_PN0P_ _059_ net1 clknet_4_13__leaf_clk
+ net200 VDD VSS gf180mcu_fd_sc_mcu9t5v0__dffrnq_2
Xawaddr\[5\]$_DFFE_PN0P_ _060_ net1 clknet_4_5__leaf_clk net201
+ VDD VSS gf180mcu_fd_sc_mcu9t5v0__dffrnq_2
Xawaddr\[6\]$_DFFE_PN0P_ _061_ net1 clknet_4_5__leaf_clk net202
+ VDD VSS gf180mcu_fd_sc_mcu9t5v0__dffrnq_2
Xawaddr\[7\]$_DFFE_PN0P_ _062_ net1 clknet_4_7__leaf_clk net203
+ VDD VSS gf180mcu_fd_sc_mcu9t5v0__dffrnq_4
Xawaddr\[8\]$_DFFE_PN0P_ _063_ net1 clknet_4_12__leaf_clk
+ net204 VDD VSS gf180mcu_fd_sc_mcu9t5v0__dffrnq_2
Xawaddr\[9\]$_DFFE_PN0P_ _064_ net1 clknet_4_10__leaf_clk
+ net205 VDD VSS gf180mcu_fd_sc_mcu9t5v0__dffrnq_2
Xawvalid$_DFFE_PN0P_ _065_ net1 clknet_4_4__leaf_clk net206
+ VDD VSS gf180mcu_fd_sc_mcu9t5v0__dffrnq_2
Xbready$_DFFE_PN0P_ _066_ net1 clknet_4_5__leaf_clk net207
+ VDD VSS gf180mcu_fd_sc_mcu9t5v0__dffrnq_2
Xread_data\[0\]$_DFFE_PN0P_ _067_ net1 clknet_4_1__leaf_clk
+ net208 VDD VSS gf180mcu_fd_sc_mcu9t5v0__dffrnq_2
Xread_data\[10\]$_DFFE_PN0P_ _068_ net1 clknet_4_6__leaf_clk
+ net209 VDD VSS gf180mcu_fd_sc_mcu9t5v0__dffrnq_2
Xread_data\[11\]$_DFFE_PN0P_ _069_ net1 clknet_4_1__leaf_clk
+ net210 VDD VSS gf180mcu_fd_sc_mcu9t5v0__dffrnq_2
Xread_data\[12\]$_DFFE_PN0P_ _070_ net1 clknet_4_7__leaf_clk
+ net211 VDD VSS gf180mcu_fd_sc_mcu9t5v0__dffrnq_2
Xread_data\[13\]$_DFFE_PN0P_ _071_ net1 clknet_4_7__leaf_clk
+ net212 VDD VSS gf180mcu_fd_sc_mcu9t5v0__dffrnq_2
Xread_data\[14\]$_DFFE_PN0P_ _072_ net1 clknet_4_1__leaf_clk
+ net213 VDD VSS gf180mcu_fd_sc_mcu9t5v0__dffrnq_2
Xread_data\[15\]$_DFFE_PN0P_ _073_ net1 clknet_4_1__leaf_clk
+ net214 VDD VSS gf180mcu_fd_sc_mcu9t5v0__dffrnq_2
Xread_data\[16\]$_DFFE_PN0P_ _074_ net1 clknet_4_1__leaf_clk
+ net215 VDD VSS gf180mcu_fd_sc_mcu9t5v0__dffrnq_2
Xread_data\[17\]$_DFFE_PN0P_ _075_ net1 clknet_4_0__leaf_clk
+ net216 VDD VSS gf180mcu_fd_sc_mcu9t5v0__dffrnq_2
Xread_data\[18\]$_DFFE_PN0P_ _076_ net1 clknet_4_1__leaf_clk
+ net217 VDD VSS gf180mcu_fd_sc_mcu9t5v0__dffrnq_2
Xread_data\[19\]$_DFFE_PN0P_ _077_ net1 clknet_4_6__leaf_clk
+ net218 VDD VSS gf180mcu_fd_sc_mcu9t5v0__dffrnq_2
Xread_data\[1\]$_DFFE_PN0P_ _078_ net1 clknet_4_7__leaf_clk
+ net219 VDD VSS gf180mcu_fd_sc_mcu9t5v0__dffrnq_2
Xread_data\[20\]$_DFFE_PN0P_ _079_ net1 clknet_4_7__leaf_clk
+ net220 VDD VSS gf180mcu_fd_sc_mcu9t5v0__dffrnq_2
Xread_data\[21\]$_DFFE_PN0P_ _080_ net1 clknet_4_4__leaf_clk
+ net221 VDD VSS gf180mcu_fd_sc_mcu9t5v0__dffrnq_2
Xread_data\[22\]$_DFFE_PN0P_ _081_ net1 clknet_4_7__leaf_clk
+ net222 VDD VSS gf180mcu_fd_sc_mcu9t5v0__dffrnq_4
Xread_data\[23\]$_DFFE_PN0P_ _082_ net1 clknet_4_6__leaf_clk
+ net223 VDD VSS gf180mcu_fd_sc_mcu9t5v0__dffrnq_2
Xread_data\[24\]$_DFFE_PN0P_ _083_ net1 clknet_4_1__leaf_clk
+ net224 VDD VSS gf180mcu_fd_sc_mcu9t5v0__dffrnq_2
Xread_data\[25\]$_DFFE_PN0P_ _084_ net1 clknet_4_6__leaf_clk
+ net225 VDD VSS gf180mcu_fd_sc_mcu9t5v0__dffrnq_2
Xread_data\[26\]$_DFFE_PN0P_ _085_ net1 clknet_4_1__leaf_clk
+ net226 VDD VSS gf180mcu_fd_sc_mcu9t5v0__dffrnq_2
Xread_data\[27\]$_DFFE_PN0P_ _086_ net1 clknet_4_5__leaf_clk
+ net227 VDD VSS gf180mcu_fd_sc_mcu9t5v0__dffrnq_2
Xread_data\[28\]$_DFFE_PN0P_ _087_ net1 clknet_4_3__leaf_clk
+ net228 VDD VSS gf180mcu_fd_sc_mcu9t5v0__dffrnq_2
Xread_data\[29\]$_DFFE_PN0P_ _088_ net1 clknet_4_2__leaf_clk
+ net229 VDD VSS gf180mcu_fd_sc_mcu9t5v0__dffrnq_2
Xread_data\[2\]$_DFFE_PN0P_ _089_ net1 clknet_4_0__leaf_clk
+ net230 VDD VSS gf180mcu_fd_sc_mcu9t5v0__dffrnq_2
Xread_data\[30\]$_DFFE_PN0P_ _090_ net1 clknet_4_2__leaf_clk
+ net231 VDD VSS gf180mcu_fd_sc_mcu9t5v0__dffrnq_2
Xread_data\[31\]$_DFFE_PN0P_ _091_ net1 clknet_4_0__leaf_clk
+ net232 VDD VSS gf180mcu_fd_sc_mcu9t5v0__dffrnq_2
Xread_data\[3\]$_DFFE_PN0P_ _092_ net1 clknet_4_0__leaf_clk
+ net233 VDD VSS gf180mcu_fd_sc_mcu9t5v0__dffrnq_2
Xread_data\[4\]$_DFFE_PN0P_ _093_ net1 clknet_4_2__leaf_clk
+ net234 VDD VSS gf180mcu_fd_sc_mcu9t5v0__dffrnq_2
Xread_data\[5\]$_DFFE_PN0P_ _094_ net1 clknet_4_0__leaf_clk
+ net235 VDD VSS gf180mcu_fd_sc_mcu9t5v0__dffrnq_2
Xread_data\[6\]$_DFFE_PN0P_ _095_ net1 clknet_4_0__leaf_clk
+ net236 VDD VSS gf180mcu_fd_sc_mcu9t5v0__dffrnq_2
Xread_data\[7\]$_DFFE_PN0P_ _096_ net1 clknet_4_3__leaf_clk
+ net237 VDD VSS gf180mcu_fd_sc_mcu9t5v0__dffrnq_2
Xread_data\[8\]$_DFFE_PN0P_ _097_ net1 clknet_4_0__leaf_clk
+ net238 VDD VSS gf180mcu_fd_sc_mcu9t5v0__dffrnq_2
Xread_data\[9\]$_DFFE_PN0P_ _098_ net1 clknet_4_3__leaf_clk
+ net239 VDD VSS gf180mcu_fd_sc_mcu9t5v0__dffrnq_2
Xread_done_r$_DFFE_PN0P_ _099_ net1 clknet_4_5__leaf_clk net240
+ VDD VSS gf180mcu_fd_sc_mcu9t5v0__dffrnq_2
Xrready$_DFFE_PN0P_ _100_ net1 clknet_4_4__leaf_clk net241
+ VDD VSS gf180mcu_fd_sc_mcu9t5v0__dffrnq_2
Xstate_r\[0\]$_DFFE_PN0P_ _101_ net1 clknet_4_4__leaf_clk
+ state_r\[0\] VDD VSS gf180mcu_fd_sc_mcu9t5v0__dffrnq_4
Xstate_r\[1\]$_DFFE_PN0P_ _102_ net1 clknet_4_4__leaf_clk
+ state_r\[1\] VDD VSS gf180mcu_fd_sc_mcu9t5v0__dffrnq_4
Xstate_r\[2\]$_DFFE_PN0P_ _103_ net1 clknet_4_4__leaf_clk
+ state_r\[2\] VDD VSS gf180mcu_fd_sc_mcu9t5v0__dffrnq_2
Xwdata\[0\]$_DFFE_PN0P_ _104_ net1 clknet_4_10__leaf_clk net242
+ VDD VSS gf180mcu_fd_sc_mcu9t5v0__dffrnq_2
Xwdata\[10\]$_DFFE_PN0P_ _105_ net1 clknet_4_8__leaf_clk net243
+ VDD VSS gf180mcu_fd_sc_mcu9t5v0__dffrnq_2