* CDL Netlist generated by OpenROAD

*.BUSDELIMITER [

.SUBCKT axi_lite_master araddr[0] araddr[10] araddr[11] araddr[12]
+ araddr[13] araddr[14] araddr[15] araddr[16] araddr[17] araddr[18]
+ araddr[19] araddr[1] araddr[20] araddr[21] araddr[22] araddr[23]
+ araddr[24] araddr[25] araddr[26] araddr[27] araddr[28] araddr[29]
+ araddr[2] araddr[30] araddr[31] araddr[3] araddr[4] araddr[5]
+ araddr[6] araddr[7] araddr[8] araddr[9] arready arvalid awaddr[0]
+ awaddr[10] awaddr[11] awaddr[12] awaddr[13] awaddr[14] awaddr[15]
+ awaddr[16] awaddr[17] awaddr[18] awaddr[19] awaddr[1] awaddr[20]
+ awaddr[21] awaddr[22] awaddr[23] awaddr[24] awaddr[25] awaddr[26]
+ awaddr[27] awaddr[28] awaddr[29] awaddr[2] awaddr[30] awaddr[31]
+ awaddr[3] awaddr[4] awaddr[5] awaddr[6] awaddr[7] awaddr[8]
+ awaddr[9] awready awvalid bready bresp[0] bresp[1] bvalid
+ clk rdata[0] rdata[10] rdata[11] rdata[12] rdata[13] rdata[14]
+ rdata[15] rdata[16] rdata[17] rdata[18] rdata[19] rdata[1]
+ rdata[20] rdata[21] rdata[22] rdata[23] rdata[24] rdata[25]
+ rdata[26] rdata[27] rdata[28] rdata[29] rdata[2] rdata[30]
+ rdata[31] rdata[3] rdata[4] rdata[5] rdata[6] rdata[7] rdata[8]
+ rdata[9] read_addr[0] read_addr[10] read_addr[11] read_addr[12]
+ read_addr[13] read_addr[14] read_addr[15] read_addr[16] read_addr[17]
+ read_addr[18] read_addr[19] read_addr[1] read_addr[20] read_addr[21]
+ read_addr[22] read_addr[23] read_addr[24] read_addr[25] read_addr[26]
+ read_addr[27] read_addr[28] read_addr[29] read_addr[2] read_addr[30]
+ read_addr[31] read_addr[3] read_addr[4] read_addr[5] read_addr[6]
+ read_addr[7] read_addr[8] read_addr[9] read_data[0] read_data[10]
+ read_data[11] read_data[12] read_data[13] read_data[14] read_data[15]
+ read_data[16] read_data[17] read_data[18] read_data[19] read_data[1]
+ read_data[20] read_data[21] read_data[22] read_data[23] read_data[24]
+ read_data[25] read_data[26] read_data[27] read_data[28] read_data[29]
+ read_data[2] read_data[30] read_data[31] read_data[3] read_data[4]
+ read_data[5] read_data[6] read_data[7] read_data[8] read_data[9]
+ read_done read_req rready rresp[0] rresp[1] rst_n rvalid wdata[0]
+ wdata[10] wdata[11] wdata[12] wdata[13] wdata[14] wdata[15]
+ wdata[16] wdata[17] wdata[18] wdata[19] wdata[1] wdata[20]
+ wdata[21] wdata[22] wdata[23] wdata[24] wdata[25] wdata[26]
+ wdata[27] wdata[28] wdata[29] wdata[2] wdata[30] wdata[31]
+ wdata[3] wdata[4] wdata[5] wdata[6] wdata[7] wdata[8] wdata[9]
+ wready write_addr[0] write_addr[10] write_addr[11] write_addr[12]
+ write_addr[13] write_addr[14] write_addr[15] write_addr[16]
+ write_addr[17] write_addr[18] write_addr[19] write_addr[1]
+ write_addr[20] write_addr[21] write_addr[22] write_addr[23]
+ write_addr[24] write_addr[25] write_addr[26] write_addr[27]
+ write_addr[28] write_addr[29] write_addr[2] write_addr[30]
+ write_addr[31] write_addr[3] write_addr[4] write_addr[5] write_addr[6]
+ write_addr[7] write_addr[8] write_addr[9] write_data[0] write_data[10]
+ write_data[11] write_data[12] write_data[13] write_data[14]
+ write_data[15] write_data[16] write_data[17] write_data[18]
+ write_data[19] write_data[1] write_data[20] write_data[21]
+ write_data[22] write_data[23] write_data[24] write_data[25]
+ write_data[26] write_data[27] write_data[28] write_data[29]
+ write_data[2] write_data[30] write_data[31] write_data[3]
+ write_data[4] write_data[5] write_data[6] write_data[7] write_data[8]
+ write_data[9] write_done write_req write_strb[0] write_strb[1]
+ write_strb[2] write_strb[3] wstrb[0] wstrb[1] wstrb[2] wstrb[3]
+ wvalid VSS VDD
X_203_ state_r\[1\] _142_ VDD VSS gf180mcu_fd_sc_mcu9t5v0__inv_4
X_204_ state_r\[0\] _143_ VDD VSS gf180mcu_fd_sc_mcu9t5v0__inv_3
X_205_ _142_ _143_ net68 _144_ VDD VSS gf180mcu_fd_sc_mcu9t5v0__nand3_2
X_206_ state_r\[2\] _144_ _145_ VDD VSS gf180mcu_fd_sc_mcu9t5v0__nor2_4
Xinput15 rdata[1] net15 VDD VSS gf180mcu_fd_sc_mcu9t5v0__dlyb_2
X_208_ net141 net36 net283 _000_ VDD VSS gf180mcu_fd_sc_mcu9t5v0__mux2_2
X_209_ net142 net37 net283 _001_ VDD VSS gf180mcu_fd_sc_mcu9t5v0__mux2_2
X_210_ net143 net38 net283 _002_ VDD VSS gf180mcu_fd_sc_mcu9t5v0__mux2_2
X_211_ net144 net39 net283 _003_ VDD VSS gf180mcu_fd_sc_mcu9t5v0__mux2_2
X_212_ net145 net40 net283 _004_ VDD VSS gf180mcu_fd_sc_mcu9t5v0__mux2_2
X_213_ net146 net41 net283 _005_ VDD VSS gf180mcu_fd_sc_mcu9t5v0__mux2_2
X_214_ net147 net42 net283 _006_ VDD VSS gf180mcu_fd_sc_mcu9t5v0__mux2_2
X_215_ net148 net43 net283 _007_ VDD VSS gf180mcu_fd_sc_mcu9t5v0__mux2_2
X_216_ net149 net44 net283 _008_ VDD VSS gf180mcu_fd_sc_mcu9t5v0__mux2_2
X_217_ net150 net45 net283 _009_ VDD VSS gf180mcu_fd_sc_mcu9t5v0__mux2_2
Xinput14 rdata[19] net14 VDD VSS gf180mcu_fd_sc_mcu9t5v0__dlyb_2
X_219_ net151 net46 net283 _010_ VDD VSS gf180mcu_fd_sc_mcu9t5v0__mux2_2
X_220_ net152 net47 net283 _011_ VDD VSS gf180mcu_fd_sc_mcu9t5v0__mux2_2
X_221_ net153 net48 _145_ _012_ VDD VSS gf180mcu_fd_sc_mcu9t5v0__mux2_2
X_222_ net154 net49 net283 _013_ VDD VSS gf180mcu_fd_sc_mcu9t5v0__mux2_2
X_223_ net155 net50 net283 _014_ VDD VSS gf180mcu_fd_sc_mcu9t5v0__mux2_2
X_224_ net156 net51 _145_ _015_ VDD VSS gf180mcu_fd_sc_mcu9t5v0__mux2_2
X_225_ net157 net52 net283 _016_ VDD VSS gf180mcu_fd_sc_mcu9t5v0__mux2_2
X_226_ net158 net53 net283 _017_ VDD VSS gf180mcu_fd_sc_mcu9t5v0__mux2_2
X_227_ net159 net54 net283 _018_ VDD VSS gf180mcu_fd_sc_mcu9t5v0__mux2_2
X_228_ net160 net55 _145_ _019_ VDD VSS gf180mcu_fd_sc_mcu9t5v0__mux2_2
Xinput13 rdata[18] net13 VDD VSS gf180mcu_fd_sc_mcu9t5v0__dlyb_2
X_230_ net161 net56 _145_ _020_ VDD VSS gf180mcu_fd_sc_mcu9t5v0__mux2_2
X_231_ net162 net57 _145_ _021_ VDD VSS gf180mcu_fd_sc_mcu9t5v0__mux2_2
X_232_ net163 net58 _145_ _022_ VDD VSS gf180mcu_fd_sc_mcu9t5v0__mux2_2
X_233_ net164 net59 _145_ _023_ VDD VSS gf180mcu_fd_sc_mcu9t5v0__mux2_2
X_234_ net165 net60 _145_ _024_ VDD VSS gf180mcu_fd_sc_mcu9t5v0__mux2_2
X_235_ net166 net61 _145_ _025_ VDD VSS gf180mcu_fd_sc_mcu9t5v0__mux2_2
X_236_ net167 net62 _145_ _026_ VDD VSS gf180mcu_fd_sc_mcu9t5v0__mux2_2
X_237_ net168 net63 _145_ _027_ VDD VSS gf180mcu_fd_sc_mcu9t5v0__mux2_2
X_238_ net169 net64 _145_ _028_ VDD VSS gf180mcu_fd_sc_mcu9t5v0__mux2_2
X_239_ net170 net65 _145_ _029_ VDD VSS gf180mcu_fd_sc_mcu9t5v0__mux2_2
X_240_ net171 net66 net283 _030_ VDD VSS gf180mcu_fd_sc_mcu9t5v0__mux2_2
X_241_ net172 net67 net283 _031_ VDD VSS gf180mcu_fd_sc_mcu9t5v0__mux2_2
X_242_ net173 _149_ VDD VSS gf180mcu_fd_sc_mcu9t5v0__clkinv_2
Xinput12 rdata[17] net12 VDD VSS gf180mcu_fd_sc_mcu9t5v0__dlyb_2
X_244_ _149_ _144_ state_r\[2\] _151_ VDD VSS gf180mcu_fd_sc_mcu9t5v0__aoi21_2
X_245_ _143_ net1 _149_ state_r\[1\] _152_ VDD VSS gf180mcu_fd_sc_mcu9t5v0__aoi211_2
X_246_ _151_ _152_ _032_ VDD VSS gf180mcu_fd_sc_mcu9t5v0__or2_2
X_247_ state_r\[2\] state_r\[0\] _153_ VDD VSS gf180mcu_fd_sc_mcu9t5v0__nor2_4
X_248_ _142_ net136 _153_ _154_ VDD VSS gf180mcu_fd_sc_mcu9t5v0__and3_4
Xinput11 rdata[16] net11 VDD VSS gf180mcu_fd_sc_mcu9t5v0__dlyb_2
Xinput10 rdata[15] net10 VDD VSS gf180mcu_fd_sc_mcu9t5v0__dlyb_2
Xinput9 rdata[14] net9 VDD VSS gf180mcu_fd_sc_mcu9t5v0__dlyb_2
X_252_ net174 net72 net284 _033_ VDD VSS gf180mcu_fd_sc_mcu9t5v0__mux2_2
X_253_ net175 net73 net284 _034_ VDD VSS gf180mcu_fd_sc_mcu9t5v0__mux2_2
X_254_ net176 net74 net284 _035_ VDD VSS gf180mcu_fd_sc_mcu9t5v0__mux2_2
X_255_ net177 net75 net284 _036_ VDD VSS gf180mcu_fd_sc_mcu9t5v0__mux2_2
X_256_ net178 net76 net284 _037_ VDD VSS gf180mcu_fd_sc_mcu9t5v0__mux2_2
X_257_ net179 net77 net284 _038_ VDD VSS gf180mcu_fd_sc_mcu9t5v0__mux2_2
X_258_ net180 net78 net284 _039_ VDD VSS gf180mcu_fd_sc_mcu9t5v0__mux2_2
X_259_ net181 net79 net284 _040_ VDD VSS gf180mcu_fd_sc_mcu9t5v0__mux2_2
X_260_ net182 net80 net284 _041_ VDD VSS gf180mcu_fd_sc_mcu9t5v0__mux2_2
Xinput8 rdata[13] net8 VDD VSS gf180mcu_fd_sc_mcu9t5v0__dlyb_2
X_262_ net183 net81 net284 _042_ VDD VSS gf180mcu_fd_sc_mcu9t5v0__mux2_2
X_263_ net184 net82 net284 _043_ VDD VSS gf180mcu_fd_sc_mcu9t5v0__mux2_2
X_264_ net185 net83 net284 _044_ VDD VSS gf180mcu_fd_sc_mcu9t5v0__mux2_2
X_265_ net186 net84 net284 _045_ VDD VSS gf180mcu_fd_sc_mcu9t5v0__mux2_2
X_266_ net187 net85 net284 _046_ VDD VSS gf180mcu_fd_sc_mcu9t5v0__mux2_2
X_267_ net188 net86 net284 _047_ VDD VSS gf180mcu_fd_sc_mcu9t5v0__mux2_2
X_268_ net189 net87 net284 _048_ VDD VSS gf180mcu_fd_sc_mcu9t5v0__mux2_2
X_269_ net190 net88 net284 _049_ VDD VSS gf180mcu_fd_sc_mcu9t5v0__mux2_2
X_270_ net191 net89 net284 _050_ VDD VSS gf180mcu_fd_sc_mcu9t5v0__mux2_2
X_271_ net192 net90 net284 _051_ VDD VSS gf180mcu_fd_sc_mcu9t5v0__mux2_2
Xinput7 rdata[12] net7 VDD VSS gf180mcu_fd_sc_mcu9t5v0__dlyb_2
X_273_ net193 net91 _154_ _052_ VDD VSS gf180mcu_fd_sc_mcu9t5v0__mux2_2
X_274_ net194 net92 _154_ _053_ VDD VSS gf180mcu_fd_sc_mcu9t5v0__mux2_2
X_275_ net195 net93 _154_ _054_ VDD VSS gf180mcu_fd_sc_mcu9t5v0__mux2_2
X_276_ net196 net94 _154_ _055_ VDD VSS gf180mcu_fd_sc_mcu9t5v0__mux2_2
X_277_ net197 net95 _154_ _056_ VDD VSS gf180mcu_fd_sc_mcu9t5v0__mux2_2
X_278_ net198 net96 _154_ _057_ VDD VSS gf180mcu_fd_sc_mcu9t5v0__mux2_2
X_279_ net199 net97 _154_ _058_ VDD VSS gf180mcu_fd_sc_mcu9t5v0__mux2_2
X_280_ net200 net98 _154_ _059_ VDD VSS gf180mcu_fd_sc_mcu9t5v0__mux2_2
X_281_ net201 net99 _154_ _060_ VDD VSS gf180mcu_fd_sc_mcu9t5v0__mux2_2
X_282_ net202 net100 _154_ _061_ VDD VSS gf180mcu_fd_sc_mcu9t5v0__mux2_2
Xinput6 rdata[11] net6 VDD VSS gf180mcu_fd_sc_mcu9t5v0__dlyb_2
X_284_ net203 net101 net284 _062_ VDD VSS gf180mcu_fd_sc_mcu9t5v0__mux2_2
X_285_ net204 net102 net284 _063_ VDD VSS gf180mcu_fd_sc_mcu9t5v0__mux2_2
X_286_ net205 net103 net284 _064_ VDD VSS gf180mcu_fd_sc_mcu9t5v0__mux2_2
X_287_ state_r\[2\] _161_ VDD VSS gf180mcu_fd_sc_mcu9t5v0__clkinv_2
X_288_ _161_ net206 _162_ VDD VSS gf180mcu_fd_sc_mcu9t5v0__nand2_2
X_289_ _142_ state_r\[0\] _163_ VDD VSS gf180mcu_fd_sc_mcu9t5v0__and2_4
X_290_ net2 _163_ _164_ VDD VSS gf180mcu_fd_sc_mcu9t5v0__and2_2
X_291_ state_r\[2\] net206 net136 _153_ _165_ VDD VSS gf180mcu_fd_sc_mcu9t5v0__aoi22_2
X_292_ _162_ _164_ _165_ state_r\[1\] _065_ VDD VSS gf180mcu_fd_sc_mcu9t5v0__oai22_2
X_293_ net207 _166_ VDD VSS gf180mcu_fd_sc_mcu9t5v0__clkinv_2
X_294_ _166_ net3 state_r\[0\] _167_ VDD VSS gf180mcu_fd_sc_mcu9t5v0__oai21_2
X_295_ _161_ _167_ _168_ VDD VSS gf180mcu_fd_sc_mcu9t5v0__nand2_2
X_296_ net279 net71 _169_ VDD VSS gf180mcu_fd_sc_mcu9t5v0__and2_2
X_297_ state_r\[1\] _169_ net207 _170_ VDD VSS gf180mcu_fd_sc_mcu9t5v0__aoi21_2
X_298_ state_r\[1\] _168_ _170_ _066_ VDD VSS gf180mcu_fd_sc_mcu9t5v0__aoi21_2
X_299_ net241 net70 _171_ VDD VSS gf180mcu_fd_sc_mcu9t5v0__and2_2
X_300_ state_r\[2\] _163_ _171_ _172_ VDD VSS gf180mcu_fd_sc_mcu9t5v0__and3_4
Xinput5 rdata[10] net5 VDD VSS gf180mcu_fd_sc_mcu9t5v0__dlyb_2
X_302_ net208 net4 _172_ _067_ VDD VSS gf180mcu_fd_sc_mcu9t5v0__mux2_2
X_303_ net209 net5 _172_ _068_ VDD VSS gf180mcu_fd_sc_mcu9t5v0__mux2_2
X_304_ net210 net6 _172_ _069_ VDD VSS gf180mcu_fd_sc_mcu9t5v0__mux2_2
X_305_ net211 net7 _172_ _070_ VDD VSS gf180mcu_fd_sc_mcu9t5v0__mux2_2
X_306_ net212 net8 _172_ _071_ VDD VSS gf180mcu_fd_sc_mcu9t5v0__mux2_2
X_307_ net213 net9 _172_ _072_ VDD VSS gf180mcu_fd_sc_mcu9t5v0__mux2_2
X_308_ net214 net10 _172_ _073_ VDD VSS gf180mcu_fd_sc_mcu9t5v0__mux2_2
X_309_ net215 net11 _172_ _074_ VDD VSS gf180mcu_fd_sc_mcu9t5v0__mux2_2
X_310_ net216 net12 _172_ _075_ VDD VSS gf180mcu_fd_sc_mcu9t5v0__mux2_2
X_311_ net217 net13 _172_ _076_ VDD VSS gf180mcu_fd_sc_mcu9t5v0__mux2_2
Xinput4 rdata[0] net4 VDD VSS gf180mcu_fd_sc_mcu9t5v0__dlyb_2
X_313_ net218 net14 _172_ _077_ VDD VSS gf180mcu_fd_sc_mcu9t5v0__mux2_2
X_314_ net219 net15 _172_ _078_ VDD VSS gf180mcu_fd_sc_mcu9t5v0__mux2_2
X_315_ net220 net16 _172_ _079_ VDD VSS gf180mcu_fd_sc_mcu9t5v0__mux2_2
X_316_ net221 net17 _172_ _080_ VDD VSS gf180mcu_fd_sc_mcu9t5v0__mux2_2
X_317_ net222 net18 _172_ _081_ VDD VSS gf180mcu_fd_sc_mcu9t5v0__mux2_2
X_318_ net223 net19 _172_ _082_ VDD VSS gf180mcu_fd_sc_mcu9t5v0__mux2_2
X_319_ net224 net20 _172_ _083_ VDD VSS gf180mcu_fd_sc_mcu9t5v0__mux2_2
X_320_ net225 net21 _172_ _084_ VDD VSS gf180mcu_fd_sc_mcu9t5v0__mux2_2
X_321_ net226 net22 _172_ _085_ VDD VSS gf180mcu_fd_sc_mcu9t5v0__mux2_2
X_322_ net227 net23 _172_ _086_ VDD VSS gf180mcu_fd_sc_mcu9t5v0__mux2_2
Xinput3 bvalid net3 VDD VSS gf180mcu_fd_sc_mcu9t5v0__dlyb_2
X_324_ net228 net24 _172_ _087_ VDD VSS gf180mcu_fd_sc_mcu9t5v0__mux2_2
X_325_ net229 net25 _172_ _088_ VDD VSS gf180mcu_fd_sc_mcu9t5v0__mux2_2
X_326_ net230 net26 _172_ _089_ VDD VSS gf180mcu_fd_sc_mcu9t5v0__mux2_2
X_327_ net231 net27 _172_ _090_ VDD VSS gf180mcu_fd_sc_mcu9t5v0__mux2_2
X_328_ net232 net28 _172_ _091_ VDD VSS gf180mcu_fd_sc_mcu9t5v0__mux2_2
X_329_ net233 net29 _172_ _092_ VDD VSS gf180mcu_fd_sc_mcu9t5v0__mux2_2
X_330_ net234 net30 _172_ _093_ VDD VSS gf180mcu_fd_sc_mcu9t5v0__mux2_2
X_331_ net235 net31 _172_ _094_ VDD VSS gf180mcu_fd_sc_mcu9t5v0__mux2_2
X_332_ net236 net32 _172_ _095_ VDD VSS gf180mcu_fd_sc_mcu9t5v0__mux2_2
X_333_ net237 net33 _172_ _096_ VDD VSS gf180mcu_fd_sc_mcu9t5v0__mux2_2
X_334_ net238 net34 _172_ _097_ VDD VSS gf180mcu_fd_sc_mcu9t5v0__mux2_2
X_335_ net239 net35 _172_ _098_ VDD VSS gf180mcu_fd_sc_mcu9t5v0__mux2_2
X_336_ _163_ _171_ net240 _176_ VDD VSS gf180mcu_fd_sc_mcu9t5v0__aoi21_2
X_337_ state_r\[1\] state_r\[0\] net240 _177_ VDD VSS gf180mcu_fd_sc_mcu9t5v0__oai21_2
X_338_ _161_ _176_ _177_ _099_ VDD VSS gf180mcu_fd_sc_mcu9t5v0__oai21_2
X_339_ net241 _178_ VDD VSS gf180mcu_fd_sc_mcu9t5v0__clkinv_2
X_340_ state_r\[2\] _143_ net173 net1 _179_ VDD VSS gf180mcu_fd_sc_mcu9t5v0__and4_2
X_341_ state_r\[0\] net70 _178_ _180_ VDD VSS gf180mcu_fd_sc_mcu9t5v0__aoi21_2
X_342_ _179_ _180_ _142_ _181_ VDD VSS gf180mcu_fd_sc_mcu9t5v0__oai21_2
X_343_ state_r\[2\] _178_ _181_ _100_ VDD VSS gf180mcu_fd_sc_mcu9t5v0__oai21_2
X_344_ net284 _182_ VDD VSS gf180mcu_fd_sc_mcu9t5v0__clkinv_2
X_345_ net206 net2 _183_ VDD VSS gf180mcu_fd_sc_mcu9t5v0__and2_2
X_346_ state_r\[2\] _143_ _183_ _184_ VDD VSS gf180mcu_fd_sc_mcu9t5v0__nor3_2
X_347_ _161_ _143_ _171_ _185_ VDD VSS gf180mcu_fd_sc_mcu9t5v0__nor3_2
X_348_ _179_ _184_ _185_ _142_ _186_ VDD VSS gf180mcu_fd_sc_mcu9t5v0__oai31_2
X_349_ state_r\[0\] net207 net3 _187_ VDD VSS gf180mcu_fd_sc_mcu9t5v0__nand3_2
X_350_ state_r\[0\] _169_ _187_ _188_ VDD VSS gf180mcu_fd_sc_mcu9t5v0__oai21_2
X_351_ state_r\[2\] _142_ _188_ _189_ VDD VSS gf180mcu_fd_sc_mcu9t5v0__or3_2
X_352_ _182_ _186_ _189_ _101_ VDD VSS gf180mcu_fd_sc_mcu9t5v0__nand3_2
X_353_ _163_ _183_ _187_ state_r\[1\] _190_ VDD VSS gf180mcu_fd_sc_mcu9t5v0__aoi22_2
X_354_ state_r\[2\] _190_ _102_ VDD VSS gf180mcu_fd_sc_mcu9t5v0__nor2_2
X_355_ _143_ net68 _191_ VDD VSS gf180mcu_fd_sc_mcu9t5v0__nand2_2
X_356_ state_r\[0\] _171_ _192_ VDD VSS gf180mcu_fd_sc_mcu9t5v0__and2_2
X_357_ net136 _191_ _192_ _161_ _193_ VDD VSS gf180mcu_fd_sc_mcu9t5v0__oai22_2
X_358_ _142_ _193_ _103_ VDD VSS gf180mcu_fd_sc_mcu9t5v0__and2_2
X_359_ net242 net104 net284 _104_ VDD VSS gf180mcu_fd_sc_mcu9t5v0__mux2_2
X_360_ net243 net105 net284 _105_ VDD VSS gf180mcu_fd_sc_mcu9t5v0__mux2_2
X_361_ net244 net106 net284 _106_ VDD VSS gf180mcu_fd_sc_mcu9t5v0__mux2_2
X_362_ net245 net107 net284 _107_ VDD VSS gf180mcu_fd_sc_mcu9t5v0__mux2_2
X_363_ net246 net108 net284 _108_ VDD VSS gf180mcu_fd_sc_mcu9t5v0__mux2_2
X_364_ net247 net109 net284 _109_ VDD VSS gf180mcu_fd_sc_mcu9t5v0__mux2_2
X_365_ net248 net110 net284 _110_ VDD VSS gf180mcu_fd_sc_mcu9t5v0__mux2_2
Xinput2 awready net2 VDD VSS gf180mcu_fd_sc_mcu9t5v0__dlyb_2
X_367_ net249 net111 net284 _111_ VDD VSS gf180mcu_fd_sc_mcu9t5v0__mux2_2
X_368_ net250 net112 net284 _112_ VDD VSS gf180mcu_fd_sc_mcu9t5v0__mux2_2
X_369_ net251 net113 net284 _113_ VDD VSS gf180mcu_fd_sc_mcu9t5v0__mux2_2
X_370_ net252 net114 net284 _114_ VDD VSS gf180mcu_fd_sc_mcu9t5v0__mux2_2
X_371_ net253 net115 net284 _115_ VDD VSS gf180mcu_fd_sc_mcu9t5v0__mux2_2
X_372_ net254 net116 net284 _116_ VDD VSS gf180mcu_fd_sc_mcu9t5v0__mux2_2
X_373_ net255 net117 net284 _117_ VDD VSS gf180mcu_fd_sc_mcu9t5v0__mux2_2
X_374_ net256 net118 net284 _118_ VDD VSS gf180mcu_fd_sc_mcu9t5v0__mux2_2
X_375_ net257 net119 net284 _119_ VDD VSS gf180mcu_fd_sc_mcu9t5v0__mux2_2
X_376_ net258 net120 net284 _120_ VDD VSS gf180mcu_fd_sc_mcu9t5v0__mux2_2
Xinput1 arready net1 VDD VSS gf180mcu_fd_sc_mcu9t5v0__dlyb_2
X_378_ net259 net121 _154_ _121_ VDD VSS gf180mcu_fd_sc_mcu9t5v0__mux2_2
X_379_ net260 net122 _154_ _122_ VDD VSS gf180mcu_fd_sc_mcu9t5v0__mux2_2
X_380_ net261 net123 _154_ _123_ VDD VSS gf180mcu_fd_sc_mcu9t5v0__mux2_2
X_381_ net262 net124 _154_ _124_ VDD VSS gf180mcu_fd_sc_mcu9t5v0__mux2_2
X_382_ net263 net125 _154_ _125_ VDD VSS gf180mcu_fd_sc_mcu9t5v0__mux2_2
X_383_ net264 net126 _154_ _126_ VDD VSS gf180mcu_fd_sc_mcu9t5v0__mux2_2
X_384_ net265 net127 _154_ _127_ VDD VSS gf180mcu_fd_sc_mcu9t5v0__mux2_2
X_385_ net266 net128 _154_ _128_ VDD VSS gf180mcu_fd_sc_mcu9t5v0__mux2_2
X_386_ net267 net129 _154_ _129_ VDD VSS gf180mcu_fd_sc_mcu9t5v0__mux2_2
X_387_ net268 net130 _154_ _130_ VDD VSS gf180mcu_fd_sc_mcu9t5v0__mux2_2
X_388_ net269 net131 net284 _131_ VDD VSS gf180mcu_fd_sc_mcu9t5v0__mux2_2
X_389_ net270 net132 net284 _132_ VDD VSS gf180mcu_fd_sc_mcu9t5v0__mux2_2
X_390_ net271 net133 net284 _133_ VDD VSS gf180mcu_fd_sc_mcu9t5v0__mux2_2
X_391_ net272 net134 net284 _134_ VDD VSS gf180mcu_fd_sc_mcu9t5v0__mux2_2
X_392_ net273 net135 net284 _135_ VDD VSS gf180mcu_fd_sc_mcu9t5v0__mux2_2
X_393_ net274 _196_ VDD VSS gf180mcu_fd_sc_mcu9t5v0__clkinv_2
X_394_ state_r\[2\] _187_ _196_ _197_ VDD VSS gf180mcu_fd_sc_mcu9t5v0__oai21_2
X_395_ state_r\[1\] _197_ _198_ VDD VSS gf180mcu_fd_sc_mcu9t5v0__nand2_2
X_396_ _196_ _153_ _198_ _136_ VDD VSS gf180mcu_fd_sc_mcu9t5v0__oai21_2
X_397_ net275 net137 net284 _137_ VDD VSS gf180mcu_fd_sc_mcu9t5v0__mux2_2
X_398_ net276 net138 net284 _138_ VDD VSS gf180mcu_fd_sc_mcu9t5v0__mux2_2
X_399_ net277 net139 net284 _139_ VDD VSS gf180mcu_fd_sc_mcu9t5v0__mux2_2
X_400_ net278 net140 net284 _140_ VDD VSS gf180mcu_fd_sc_mcu9t5v0__mux2_2
X_401_ _143_ net71 _199_ VDD VSS gf180mcu_fd_sc_mcu9t5v0__nand2_2
X_402_ _161_ net279 _199_ _200_ VDD VSS gf180mcu_fd_sc_mcu9t5v0__nand3_2
X_403_ _161_ state_r\[0\] _183_ _201_ VDD VSS gf180mcu_fd_sc_mcu9t5v0__and3_2
X_404_ net279 _201_ _142_ _202_ VDD VSS gf180mcu_fd_sc_mcu9t5v0__oai21_2
X_405_ _200_ _202_ _141_ VDD VSS gf180mcu_fd_sc_mcu9t5v0__nand2_2
Xaraddr\[0\]$_DFFE_PN0P_ _000_ net285 clknet_4_2_0_clk net141
+ VDD VSS gf180mcu_fd_sc_mcu9t5v0__dffrnq_2
Xaraddr\[10\]$_DFFE_PN0P_ _001_ net285 clknet_4_8_0_clk net142
+ VDD VSS gf180mcu_fd_sc_mcu9t5v0__dffrnq_2
Xaraddr\[11\]$_DFFE_PN0P_ _002_ net285 clknet_4_8_0_clk net143
+ VDD VSS gf180mcu_fd_sc_mcu9t5v0__dffrnq_2
Xaraddr\[12\]$_DFFE_PN0P_ _003_ net285 clknet_4_8_0_clk net144
+ VDD VSS gf180mcu_fd_sc_mcu9t5v0__dffrnq_2
Xaraddr\[13\]$_DFFE_PN0P_ _004_ net285 clknet_4_2_0_clk net145
+ VDD VSS gf180mcu_fd_sc_mcu9t5v0__dffrnq_2
Xaraddr\[14\]$_DFFE_PN0P_ _005_ net285 clknet_4_8_0_clk net146
+ VDD VSS gf180mcu_fd_sc_mcu9t5v0__dffrnq_2
Xaraddr\[15\]$_DFFE_PN0P_ _006_ net285 clknet_4_2_0_clk net147
+ VDD VSS gf180mcu_fd_sc_mcu9t5v0__dffrnq_2
Xaraddr\[16\]$_DFFE_PN0P_ _007_ net285 clknet_4_8_0_clk net148
+ VDD VSS gf180mcu_fd_sc_mcu9t5v0__dffrnq_2
Xaraddr\[17\]$_DFFE_PN0P_ _008_ net285 clknet_4_8_0_clk net149
+ VDD VSS gf180mcu_fd_sc_mcu9t5v0__dffrnq_2
Xaraddr\[18\]$_DFFE_PN0P_ _009_ net285 clknet_4_8_0_clk net150
+ VDD VSS gf180mcu_fd_sc_mcu9t5v0__dffrnq_2
Xaraddr\[19\]$_DFFE_PN0P_ _010_ net286 clknet_4_10_0_clk net151
+ VDD VSS gf180mcu_fd_sc_mcu9t5v0__dffrnq_2
Xaraddr\[1\]$_DFFE_PN0P_ _011_ net286 clknet_4_10_0_clk net152
+ VDD VSS gf180mcu_fd_sc_mcu9t5v0__dffrnq_2
Xaraddr\[20\]$_DFFE_PN0P_ _012_ net286 clknet_4_10_0_clk net153
+ VDD VSS gf180mcu_fd_sc_mcu9t5v0__dffrnq_2
Xaraddr\[21\]$_DFFE_PN0P_ _013_ net286 clknet_4_10_0_clk net154
+ VDD VSS gf180mcu_fd_sc_mcu9t5v0__dffrnq_2
Xaraddr\[22\]$_DFFE_PN0P_ _014_ net286 clknet_4_8_0_clk net155
+ VDD VSS gf180mcu_fd_sc_mcu9t5v0__dffrnq_2
Xaraddr\[23\]$_DFFE_PN0P_ _015_ net286 clknet_4_10_0_clk net156
+ VDD VSS gf180mcu_fd_sc_mcu9t5v0__dffrnq_2
Xaraddr\[24\]$_DFFE_PN0P_ _016_ net286 clknet_4_10_0_clk net157
+ VDD VSS gf180mcu_fd_sc_mcu9t5v0__dffrnq_2
Xaraddr\[25\]$_DFFE_PN0P_ _017_ net286 clknet_4_10_0_clk net158
+ VDD VSS gf180mcu_fd_sc_mcu9t5v0__dffrnq_2
Xaraddr\[26\]$_DFFE_PN0P_ _018_ net286 clknet_4_10_0_clk net159
+ VDD VSS gf180mcu_fd_sc_mcu9t5v0__dffrnq_2
Xaraddr\[27\]$_DFFE_PN0P_ _019_ net286 clknet_4_10_0_clk net160
+ VDD VSS gf180mcu_fd_sc_mcu9t5v0__dffrnq_2
Xaraddr\[28\]$_DFFE_PN0P_ _020_ net286 clknet_4_11_0_clk net161
+ VDD VSS gf180mcu_fd_sc_mcu9t5v0__dffrnq_2
Xaraddr\[29\]$_DFFE_PN0P_ _021_ net286 clknet_4_9_0_clk net162
+ VDD VSS gf180mcu_fd_sc_mcu9t5v0__dffrnq_2
Xaraddr\[2\]$_DFFE_PN0P_ _022_ net286 clknet_4_11_0_clk net163
+ VDD VSS gf180mcu_fd_sc_mcu9t5v0__dffrnq_2
Xaraddr\[30\]$_DFFE_PN0P_ _023_ net286 clknet_4_11_0_clk net164
+ VDD VSS gf180mcu_fd_sc_mcu9t5v0__dffrnq_2
Xaraddr\[31\]$_DFFE_PN0P_ _024_ net286 clknet_4_11_0_clk net165
+ VDD VSS gf180mcu_fd_sc_mcu9t5v0__dffrnq_2
Xaraddr\[3\]$_DFFE_PN0P_ _025_ net286 clknet_4_11_0_clk net166
+ VDD VSS gf180mcu_fd_sc_mcu9t5v0__dffrnq_2
Xaraddr\[4\]$_DFFE_PN0P_ _026_ net286 clknet_4_9_0_clk net167
+ VDD VSS gf180mcu_fd_sc_mcu9t5v0__dffrnq_2
Xaraddr\[5\]$_DFFE_PN0P_ _027_ net286 clknet_4_11_0_clk net168
+ VDD VSS gf180mcu_fd_sc_mcu9t5v0__dffrnq_2
Xaraddr\[6\]$_DFFE_PN0P_ _028_ net286 clknet_4_10_0_clk net169
+ VDD VSS gf180mcu_fd_sc_mcu9t5v0__dffrnq_2
Xaraddr\[7\]$_DFFE_PN0P_ _029_ net286 clknet_4_11_0_clk net170
+ VDD VSS gf180mcu_fd_sc_mcu9t5v0__dffrnq_2
Xaraddr\[8\]$_DFFE_PN0P_ _030_ net285 clknet_4_8_0_clk net171
+ VDD VSS gf180mcu_fd_sc_mcu9t5v0__dffrnq_2
Xaraddr\[9\]$_DFFE_PN0P_ _031_ net285 clknet_4_8_0_clk net172
+ VDD VSS gf180mcu_fd_sc_mcu9t5v0__dffrnq_2
Xarvalid$_DFFE_PN0P_ _032_ net286 clknet_4_9_0_clk net173
+ VDD VSS gf180mcu_fd_sc_mcu9t5v0__dffrnq_2
Xawaddr\[0\]$_DFFE_PN0P_ _033_ net285 clknet_4_2_0_clk net174
+ VDD VSS gf180mcu_fd_sc_mcu9t5v0__dffrnq_2
Xawaddr\[10\]$_DFFE_PN0P_ _034_ net285 clknet_4_2_0_clk net175
+ VDD VSS gf180mcu_fd_sc_mcu9t5v0__dffrnq_2
Xawaddr\[11\]$_DFFE_PN0P_ _035_ net285 clknet_4_2_0_clk net176
+ VDD VSS gf180mcu_fd_sc_mcu9t5v0__dffrnq_2
Xawaddr\[12\]$_DFFE_PN0P_ _036_ net285 clknet_4_0_0_clk net177
+ VDD VSS gf180mcu_fd_sc_mcu9t5v0__dffrnq_2
Xawaddr\[13\]$_DFFE_PN0P_ _037_ net285 clknet_4_2_0_clk net178
+ VDD VSS gf180mcu_fd_sc_mcu9t5v0__dffrnq_2
Xawaddr\[14\]$_DFFE_PN0P_ _038_ net285 clknet_4_0_0_clk net179
+ VDD VSS gf180mcu_fd_sc_mcu9t5v0__dffrnq_2
Xawaddr\[15\]$_DFFE_PN0P_ _039_ net285 clknet_4_2_0_clk net180
+ VDD VSS gf180mcu_fd_sc_mcu9t5v0__dffrnq_2
Xawaddr\[16\]$_DFFE_PN0P_ _040_ net285 clknet_4_0_0_clk net181
+ VDD VSS gf180mcu_fd_sc_mcu9t5v0__dffrnq_2
Xawaddr\[17\]$_DFFE_PN0P_ _041_ net285 clknet_4_2_0_clk net182
+ VDD VSS gf180mcu_fd_sc_mcu9t5v0__dffrnq_2
Xawaddr\[18\]$_DFFE_PN0P_ _042_ net285 clknet_4_5_0_clk net183
+ VDD VSS gf180mcu_fd_sc_mcu9t5v0__dffrnq_2
Xawaddr\[19\]$_DFFE_PN0P_ _043_ net285 clknet_4_5_0_clk net184
+ VDD VSS gf180mcu_fd_sc_mcu9t5v0__dffrnq_2
Xawaddr\[1\]$_DFFE_PN0P_ _044_ net285 clknet_4_5_0_clk net185
+ VDD VSS gf180mcu_fd_sc_mcu9t5v0__dffrnq_2
Xawaddr\[20\]$_DFFE_PN0P_ _045_ net285 clknet_4_5_0_clk net186
+ VDD VSS gf180mcu_fd_sc_mcu9t5v0__dffrnq_2
Xawaddr\[21\]$_DFFE_PN0P_ _046_ net69 clknet_4_5_0_clk net187
+ VDD VSS gf180mcu_fd_sc_mcu9t5v0__dffrnq_2
Xawaddr\[22\]$_DFFE_PN0P_ _047_ net69 clknet_4_5_0_clk net188
+ VDD VSS gf180mcu_fd_sc_mcu9t5v0__dffrnq_2
Xawaddr\[23\]$_DFFE_PN0P_ _048_ net285 clknet_4_5_0_clk net189
+ VDD VSS gf180mcu_fd_sc_mcu9t5v0__dffrnq_2
Xawaddr\[24\]$_DFFE_PN0P_ _049_ net285 clknet_4_5_0_clk net190
+ VDD VSS gf180mcu_fd_sc_mcu9t5v0__dffrnq_2
Xawaddr\[25\]$_DFFE_PN0P_ _050_ net285 clknet_4_5_0_clk net191
+ VDD VSS gf180mcu_fd_sc_mcu9t5v0__dffrnq_2
Xawaddr\[26\]$_DFFE_PN0P_ _051_ net69 clknet_4_5_0_clk net192
+ VDD VSS gf180mcu_fd_sc_mcu9t5v0__dffrnq_2
Xawaddr\[27\]$_DFFE_PN0P_ _052_ net286 clknet_4_12_0_clk net193
+ VDD VSS gf180mcu_fd_sc_mcu9t5v0__dffrnq_2
Xawaddr\[28\]$_DFFE_PN0P_ _053_ net286 clknet_4_14_0_clk net194
+ VDD VSS gf180mcu_fd_sc_mcu9t5v0__dffrnq_2
Xawaddr\[29\]$_DFFE_PN0P_ _054_ net286 clknet_4_9_0_clk net195
+ VDD VSS gf180mcu_fd_sc_mcu9t5v0__dffrnq_2
Xawaddr\[2\]$_DFFE_PN0P_ _055_ net286 clknet_4_9_0_clk net196
+ VDD VSS gf180mcu_fd_sc_mcu9t5v0__dffrnq_2
Xawaddr\[30\]$_DFFE_PN0P_ _056_ net286 clknet_4_14_0_clk net197
+ VDD VSS gf180mcu_fd_sc_mcu9t5v0__dffrnq_2
Xawaddr\[31\]$_DFFE_PN0P_ _057_ net286 clknet_4_14_0_clk net198
+ VDD VSS gf180mcu_fd_sc_mcu9t5v0__dffrnq_2
Xawaddr\[3\]$_DFFE_PN0P_ _058_ net286 clknet_4_14_0_clk net199
+ VDD VSS gf180mcu_fd_sc_mcu9t5v0__dffrnq_2
Xawaddr\[4\]$_DFFE_PN0P_ _059_ net286 clknet_4_11_0_clk net200
+ VDD VSS gf180mcu_fd_sc_mcu9t5v0__dffrnq_2
Xawaddr\[5\]$_DFFE_PN0P_ _060_ net286 clknet_4_11_0_clk net201
+ VDD VSS gf180mcu_fd_sc_mcu9t5v0__dffrnq_2
Xawaddr\[6\]$_DFFE_PN0P_ _061_ net286 clknet_4_14_0_clk net202
+ VDD VSS gf180mcu_fd_sc_mcu9t5v0__dffrnq_2
Xawaddr\[7\]$_DFFE_PN0P_ _062_ net286 clknet_4_6_0_clk net203
+ VDD VSS gf180mcu_fd_sc_mcu9t5v0__dffrnq_2
Xawaddr\[8\]$_DFFE_PN0P_ _063_ net285 clknet_4_4_0_clk net204
+ VDD VSS gf180mcu_fd_sc_mcu9t5v0__dffrnq_2
Xawaddr\[9\]$_DFFE_PN0P_ _064_ net285 clknet_4_4_0_clk net205
+ VDD VSS gf180mcu_fd_sc_mcu9t5v0__dffrnq_2
Xawvalid$_DFFE_PN0P_ _065_ net286 clknet_4_12_0_clk net206
+ VDD VSS gf180mcu_fd_sc_mcu9t5v0__dffrnq_2
Xbready$_DFFE_PN0P_ _066_ net285 clknet_4_3_0_clk net207 VDD
+ VSS gf180mcu_fd_sc_mcu9t5v0__dffrnq_2
Xread_data\[0\]$_DFFE_PN0P_ _067_ net69 clknet_4_15_0_clk
+ net208 VDD VSS gf180mcu_fd_sc_mcu9t5v0__dffrnq_2
Xread_data\[10\]$_DFFE_PN0P_ _068_ net286 clknet_4_12_0_clk
+ net209 VDD VSS gf180mcu_fd_sc_mcu9t5v0__dffrnq_2
Xread_data\[11\]$_DFFE_PN0P_ _069_ net69 clknet_4_12_0_clk
+ net210 VDD VSS gf180mcu_fd_sc_mcu9t5v0__dffrnq_2
Xread_data\[12\]$_DFFE_PN0P_ _070_ net286 clknet_4_14_0_clk
+ net211 VDD VSS gf180mcu_fd_sc_mcu9t5v0__dffrnq_2
Xread_data\[13\]$_DFFE_PN0P_ _071_ net69 clknet_4_15_0_clk
+ net212 VDD VSS gf180mcu_fd_sc_mcu9t5v0__dffrnq_2
Xread_data\[14\]$_DFFE_PN0P_ _072_ net69 clknet_4_14_0_clk
+ net213 VDD VSS gf180mcu_fd_sc_mcu9t5v0__dffrnq_2
Xread_data\[15\]$_DFFE_PN0P_ _073_ net286 clknet_4_12_0_clk
+ net214 VDD VSS gf180mcu_fd_sc_mcu9t5v0__dffrnq_2
Xread_data\[16\]$_DFFE_PN0P_ _074_ net69 clknet_4_15_0_clk
+ net215 VDD VSS gf180mcu_fd_sc_mcu9t5v0__dffrnq_2
Xread_data\[17\]$_DFFE_PN0P_ _075_ net286 clknet_4_14_0_clk
+ net216 VDD VSS gf180mcu_fd_sc_mcu9t5v0__dffrnq_2
Xread_data\[18\]$_DFFE_PN0P_ _076_ net286 clknet_4_12_0_clk
+ net217 VDD VSS gf180mcu_fd_sc_mcu9t5v0__dffrnq_2
Xread_data\[19\]$_DFFE_PN0P_ _077_ net69 clknet_4_7_0_clk
+ net218 VDD VSS gf180mcu_fd_sc_mcu9t5v0__dffrnq_2
Xread_data\[1\]$_DFFE_PN0P_ _078_ net69 clknet_4_7_0_clk net219
+ VDD VSS gf180mcu_fd_sc_mcu9t5v0__dffrnq_2
Xread_data\[20\]$_DFFE_PN0P_ _079_ net69 clknet_4_7_0_clk
+ net220 VDD VSS gf180mcu_fd_sc_mcu9t5v0__dffrnq_2
Xread_data\[21\]$_DFFE_PN0P_ _080_ net69 clknet_4_7_0_clk
+ net221 VDD VSS gf180mcu_fd_sc_mcu9t5v0__dffrnq_2
Xread_data\[22\]$_DFFE_PN0P_ _081_ net286 clknet_4_6_0_clk
+ net222 VDD VSS gf180mcu_fd_sc_mcu9t5v0__dffrnq_2
Xread_data\[23\]$_DFFE_PN0P_ _082_ net69 clknet_4_7_0_clk
+ net223 VDD VSS gf180mcu_fd_sc_mcu9t5v0__dffrnq_2
Xread_data\[24\]$_DFFE_PN0P_ _083_ net69 clknet_4_6_0_clk
+ net224 VDD VSS gf180mcu_fd_sc_mcu9t5v0__dffrnq_2
Xread_data\[25\]$_DFFE_PN0P_ _084_ net69 clknet_4_7_0_clk
+ net225 VDD VSS gf180mcu_fd_sc_mcu9t5v0__dffrnq_2
Xread_data\[26\]$_DFFE_PN0P_ _085_ net69 clknet_4_7_0_clk
+ net226 VDD VSS gf180mcu_fd_sc_mcu9t5v0__dffrnq_2
Xread_data\[27\]$_DFFE_PN0P_ _086_ net69 clknet_4_7_0_clk
+ net227 VDD VSS gf180mcu_fd_sc_mcu9t5v0__dffrnq_2
Xread_data\[28\]$_DFFE_PN0P_ _087_ net286 clknet_4_13_0_clk
+ net228 VDD VSS gf180mcu_fd_sc_mcu9t5v0__dffrnq_2
Xread_data\[29\]$_DFFE_PN0P_ _088_ net69 clknet_4_13_0_clk
+ net229 VDD VSS gf180mcu_fd_sc_mcu9t5v0__dffrnq_2
Xread_data\[2\]$_DFFE_PN0P_ _089_ net69 clknet_4_13_0_clk
+ net230 VDD VSS gf180mcu_fd_sc_mcu9t5v0__dffrnq_2
Xread_data\[30\]$_DFFE_PN0P_ _090_ net286 clknet_4_12_0_clk
+ net231 VDD VSS gf180mcu_fd_sc_mcu9t5v0__dffrnq_2
Xread_data\[31\]$_DFFE_PN0P_ _091_ net69 clknet_4_12_0_clk
+ net232 VDD VSS gf180mcu_fd_sc_mcu9t5v0__dffrnq_2
Xread_data\[3\]$_DFFE_PN0P_ _092_ net69 clknet_4_13_0_clk
+ net233 VDD VSS gf180mcu_fd_sc_mcu9t5v0__dffrnq_2
Xread_data\[4\]$_DFFE_PN0P_ _093_ net69 clknet_4_13_0_clk
+ net234 VDD VSS gf180mcu_fd_sc_mcu9t5v0__dffrnq_2
Xread_data\[5\]$_DFFE_PN0P_ _094_ net69 clknet_4_13_0_clk
+ net235 VDD VSS gf180mcu_fd_sc_mcu9t5v0__dffrnq_2
Xread_data\[6\]$_DFFE_PN0P_ _095_ net69 clknet_4_13_0_clk
+ net236 VDD VSS gf180mcu_fd_sc_mcu9t5v0__dffrnq_2
Xread_data\[7\]$_DFFE_PN0P_ _096_ net69 clknet_4_13_0_clk
+ net237 VDD VSS gf180mcu_fd_sc_mcu9t5v0__dffrnq_2
Xread_data\[8\]$_DFFE_PN0P_ _097_ net286 clknet_4_7_0_clk
+ net238 VDD VSS gf180mcu_fd_sc_mcu9t5v0__dffrnq_2
Xread_data\[9\]$_DFFE_PN0P_ _098_ net286 clknet_4_13_0_clk
+ net239 VDD VSS gf180mcu_fd_sc_mcu9t5v0__dffrnq_2
Xread_done_r$_DFFE_PN0P_ _099_ net286 clknet_4_6_0_clk net240
+ VDD VSS gf180mcu_fd_sc_mcu9t5v0__dffrnq_2
Xrready$_DFFE_PN0P_ _100_ net286 clknet_4_9_0_clk net241 VDD
+ VSS gf180mcu_fd_sc_mcu9t5v0__dffrnq_2
Xstate_r\[0\]$_DFFE_PN0P_ _101_ net285 clknet_4_3_0_clk state_r\[0\]
+ VDD VSS gf180mcu_fd_sc_mcu9t5v0__dffrnq_2
Xstate_r\[1\]$_DFFE_PN0P_ _102_ net285 clknet_4_3_0_clk state_r\[1\]
+ VDD VSS gf180mcu_fd_sc_mcu9t5v0__dffrnq_2
Xstate_r\[2\]$_DFFE_PN0P_ _103_ net286 clknet_4_9_0_clk state_r\[2\]
+ VDD VSS gf180mcu_fd_sc_mcu9t5v0__dffrnq_2
Xwdata\[0\]$_DFFE_PN0P_ _104_ net285 clknet_4_4_0_clk net242
+ VDD VSS gf180mcu_fd_sc_mcu9t5v0__dffrnq_2
Xwdata\[10\]$_DFFE_PN0P_ _105_ net286 clknet_4_6_0_clk net243
+ VDD VSS gf180mcu_fd_sc_mcu9t5v0__dffrnq_2
Xwdata\[11\]$_DFFE_PN0P_ _106_ net285 clknet_4_4_0_clk net244
+ VDD VSS gf180mcu_fd_sc_mcu9t5v0__dffrnq_2
Xwdata\[12\]$_DFFE_PN0P_ _107_ net285 clknet_4_4_0_clk net245
+ VDD VSS gf180mcu_fd_sc_mcu9t5v0__dffrnq_2
Xwdata\[13\]$_DFFE_PN0P_ _108_ net285 clknet_4_6_0_clk net246
+ VDD VSS gf180mcu_fd_sc_mcu9t5v0__dffrnq_2