
* cell parameterized_spi_master
* pin rx_data[0]
* pin rx_data[4]
* pin rx_data[3]
* pin spi_miso
* pin rx_data[7]
* pin spi_clk
* pin rx_data[2]
* pin clk
* pin rx_data[5]
* pin rx_data[1]
* pin rx_data[6]
* pin rx_valid
* pin tx_valid
* pin tx_data[7]
* pin spi_mosi
* pin tx_data[0]
* pin tx_ready
* pin tx_data[4]
* pin tx_data[2]
* pin tx_data[6]
* pin spi_cs_n
* pin rst_n
* pin tx_data[1]
* pin tx_data[3]
* pin tx_data[5]
* pin NWELL
* pin PWELL,gf180mcu_gnd
.SUBCKT parameterized_spi_master 1 2 14 15 68 69 80 115 139 140 141 146 156 163
+ 164 204 205 207 208 209 210 211 212 213 214 215 216
* net 1 rx_data[0]
* net 2 rx_data[4]
* net 14 rx_data[3]
* net 15 spi_miso
* net 68 rx_data[7]
* net 69 spi_clk
* net 80 rx_data[2]
* net 115 clk
* net 139 rx_data[5]
* net 140 rx_data[1]
* net 141 rx_data[6]
* net 146 rx_valid
* net 156 tx_valid
* net 163 tx_data[7]
* net 164 spi_mosi
* net 204 tx_data[0]
* net 205 tx_ready
* net 207 tx_data[4]
* net 208 tx_data[2]
* net 209 tx_data[6]
* net 210 spi_cs_n
* net 211 rst_n
* net 212 tx_data[1]
* net 213 tx_data[3]
* net 214 tx_data[5]
* net 215 NWELL
* net 216 PWELL,gf180mcu_gnd
* cell instance $3 r0 *1 92.4,5.04
X$3 3 215 216 1 gf180mcu_fd_sc_mcu9t5v0__dlyb_2
* cell instance $7 r0 *1 107.52,5.04
X$7 4 215 216 2 gf180mcu_fd_sc_mcu9t5v0__dlyb_2
* cell instance $14 r0 *1 78.4,15.12
X$14 216 10 3 9 8 215 gf180mcu_fd_sc_mcu9t5v0__dffrnq_2
* cell instance $16 m0 *1 85.68,15.12
X$16 216 215 8 3 6 12 gf180mcu_fd_sc_mcu9t5v0__mux2_2
* cell instance $20 m0 *1 104.72,15.12
X$20 216 215 7 4 6 5 gf180mcu_fd_sc_mcu9t5v0__mux2_2
* cell instance $22 r0 *1 101.92,15.12
X$22 216 10 4 9 7 215 gf180mcu_fd_sc_mcu9t5v0__dffrnq_2
* cell instance $25 r0 *1 101.92,25.2
X$25 216 215 17 22 23 5 gf180mcu_fd_sc_mcu9t5v0__mux2_2
* cell instance $30 m0 *1 96.32,25.2
X$30 216 10 5 9 17 215 gf180mcu_fd_sc_mcu9t5v0__dffrnq_2
* cell instance $32 m0 *1 118.72,105.84
X$32 216 215 6 153 gf180mcu_fd_sc_mcu9t5v0__clkinv_2
* cell instance $34 r0 *1 127.12,55.44
X$34 216 215 72 55 6 71 gf180mcu_fd_sc_mcu9t5v0__mux2_2
* cell instance $36 r0 *1 120.96,85.68
X$36 216 215 143 138 6 119 gf180mcu_fd_sc_mcu9t5v0__mux2_2
* cell instance $38 r0 *1 127.68,75.6
X$38 216 215 121 120 6 99 gf180mcu_fd_sc_mcu9t5v0__mux2_2
* cell instance $40 m0 *1 129.36,45.36
X$40 216 215 28 29 6 44 gf180mcu_fd_sc_mcu9t5v0__mux2_2
* cell instance $52 m0 *1 77.28,95.76
X$52 215 216 96 6 106 gf180mcu_fd_sc_mcu9t5v0__nand2_4
* cell instance $55 r0 *1 126.56,25.2
X$55 216 215 19 11 6 13 gf180mcu_fd_sc_mcu9t5v0__mux2_2
* cell instance $57 m0 *1 133.28,95.76
X$57 216 215 149 154 6 118 gf180mcu_fd_sc_mcu9t5v0__mux2_2
* cell instance $66 m0 *1 114.24,55.44
X$66 216 10 71 9 73 215 gf180mcu_fd_sc_mcu9t5v0__dffrnq_2
* cell instance $68 r0 *1 122.08,45.36
X$68 216 10 55 9 72 215 gf180mcu_fd_sc_mcu9t5v0__dffrnq_2
* cell instance $70 m0 *1 95.2,55.44
X$70 216 215 9 gf180mcu_fd_sc_mcu9t5v0__clkbuf_4
* cell instance $72 r0 *1 122.08,35.28
X$72 216 10 29 9 28 215 gf180mcu_fd_sc_mcu9t5v0__dffrnq_2
* cell instance $74 m0 *1 115.36,25.2
X$74 216 10 13 9 18 215 gf180mcu_fd_sc_mcu9t5v0__dffrnq_2
* cell instance $77 r0 *1 92.96,55.44
X$77 216 215 90 9 gf180mcu_fd_sc_mcu9t5v0__clkbuf_3
* cell instance $79 r0 *1 122.08,15.12
X$79 216 10 11 9 19 215 gf180mcu_fd_sc_mcu9t5v0__dffrnq_2
* cell instance $81 m0 *1 110.32,45.36
X$81 216 10 44 9 43 215 gf180mcu_fd_sc_mcu9t5v0__dffrnq_2
* cell instance $83 m0 *1 77.28,25.2
X$83 216 10 12 9 16 215 gf180mcu_fd_sc_mcu9t5v0__dffrnq_2
* cell instance $96 r0 *1 44.24,95.76
X$96 216 10 104 144 150 215 gf180mcu_fd_sc_mcu9t5v0__dffrnq_4
* cell instance $99 m0 *1 3.92,136.08
X$99 216 181 10 215 gf180mcu_fd_sc_mcu9t5v0__clkbuf_16
* cell instance $127 m0 *1 114.24,95.76
X$127 216 10 138 108 143 215 gf180mcu_fd_sc_mcu9t5v0__dffrnq_2
* cell instance $130 r0 *1 75.6,75.6
X$130 216 10 98 108 127 215 gf180mcu_fd_sc_mcu9t5v0__dffrnq_2
* cell instance $134 r0 *1 65.52,95.76
X$134 216 10 106 144 145 215 gf180mcu_fd_sc_mcu9t5v0__dffrnq_2
* cell instance $138 r0 *1 74.48,85.68
X$138 216 10 85 76 137 215 gf180mcu_fd_sc_mcu9t5v0__dffrnq_2
* cell instance $145 r0 *1 118.72,95.76
X$145 216 10 154 108 149 215 gf180mcu_fd_sc_mcu9t5v0__dffrnq_2
* cell instance $147 m0 *1 122.08,105.84
X$147 216 10 155 108 153 215 gf180mcu_fd_sc_mcu9t5v0__dffrnq_2
* cell instance $150 m0 *1 89.6,85.68
X$150 216 10 118 76 122 215 gf180mcu_fd_sc_mcu9t5v0__dffrnq_2
* cell instance $153 m0 *1 117.04,126
X$153 216 10 188 108 174 215 gf180mcu_fd_sc_mcu9t5v0__dffrnq_2
* cell instance $155 r0 *1 22.96,55.44
X$155 216 10 32 76 75 215 gf180mcu_fd_sc_mcu9t5v0__dffrnq_2
* cell instance $157 m0 *1 6.72,95.76
X$157 216 10 130 144 147 215 gf180mcu_fd_sc_mcu9t5v0__dffrnq_2
* cell instance $159 r0 *1 5.6,85.68
X$159 216 10 129 76 128 215 gf180mcu_fd_sc_mcu9t5v0__dffrnq_2
* cell instance $161 m0 *1 115.92,115.92
X$161 216 10 162 108 165 215 gf180mcu_fd_sc_mcu9t5v0__dffrnq_2
* cell instance $163 m0 *1 15.68,115.92
X$163 216 10 157 144 159 215 gf180mcu_fd_sc_mcu9t5v0__dffrnq_2
* cell instance $166 m0 *1 122.08,85.68
X$166 216 10 120 108 121 215 gf180mcu_fd_sc_mcu9t5v0__dffrnq_2
* cell instance $168 m0 *1 117.6,75.6
X$168 216 10 99 108 109 215 gf180mcu_fd_sc_mcu9t5v0__dffrnq_2
* cell instance $170 m0 *1 78.96,126
X$170 216 10 186 108 171 215 gf180mcu_fd_sc_mcu9t5v0__dffrnq_2
* cell instance $172 r0 *1 101.92,85.68
X$172 216 10 119 108 112 215 gf180mcu_fd_sc_mcu9t5v0__dffrnq_2
* cell instance $177 r0 *1 24.08,45.36
X$177 216 10 52 76 53 215 gf180mcu_fd_sc_mcu9t5v0__dffrnq_2
* cell instance $179 r0 *1 101.92,115.92
X$179 216 10 161 108 176 215 gf180mcu_fd_sc_mcu9t5v0__dffrnq_2
* cell instance $181 m0 *1 42.56,126
X$181 216 10 170 144 197 215 gf180mcu_fd_sc_mcu9t5v0__dffrnq_2
* cell instance $183 m0 *1 98,126
X$183 216 10 187 108 189 215 gf180mcu_fd_sc_mcu9t5v0__dffrnq_2
* cell instance $185 m0 *1 4.48,65.52
X$185 216 10 59 76 92 215 gf180mcu_fd_sc_mcu9t5v0__dffrnq_2
* cell instance $188 m0 *1 58.24,136.08
X$188 216 10 191 144 201 215 gf180mcu_fd_sc_mcu9t5v0__dffrnq_2
* cell instance $190 r0 *1 67.76,115.92
X$190 216 10 172 144 177 215 gf180mcu_fd_sc_mcu9t5v0__dffrnq_2
* cell instance $196 m0 *1 134.96,25.2
X$196 11 215 216 14 gf180mcu_fd_sc_mcu9t5v0__dlyb_2
* cell instance $201 r0 *1 84,25.2
X$201 216 215 16 22 37 12 gf180mcu_fd_sc_mcu9t5v0__mux2_2
* cell instance $209 r0 *1 113.68,25.2
X$209 216 215 18 22 50 13 gf180mcu_fd_sc_mcu9t5v0__mux2_2
* cell instance $215 r0 *1 134.96,25.2
X$215 15 215 216 22 gf180mcu_fd_sc_mcu9t5v0__buf_2
* cell instance $234 r0 *1 45.36,35.28
X$234 216 215 20 45 gf180mcu_fd_sc_mcu9t5v0__clkinv_2
* cell instance $237 r0 *1 48.72,35.28
X$237 30 216 215 32 20 gf180mcu_fd_sc_mcu9t5v0__addh_1
* cell instance $240 m0 *1 50.96,55.44
X$240 216 215 62 20 57 gf180mcu_fd_sc_mcu9t5v0__nand2_2
* cell instance $242 r0 *1 43.68,45.36
X$242 56 216 215 33 20 gf180mcu_fd_sc_mcu9t5v0__addh_1
* cell instance $248 m0 *1 52.64,45.36
X$248 216 218 24 33 20 215 gf180mcu_fd_sc_mcu9t5v0__addh_2
* cell instance $251 m0 *1 83.44,45.36
X$251 39 40 21 41 216 215 37 gf180mcu_fd_sc_mcu9t5v0__and4_2
* cell instance $254 r0 *1 70.56,35.28
X$254 215 25 216 21 26 27 35 gf180mcu_fd_sc_mcu9t5v0__oai31_2
* cell instance $257 r0 *1 101.92,75.6
X$257 216 215 122 118 114 22 gf180mcu_fd_sc_mcu9t5v0__mux2_2
* cell instance $262 r0 *1 110.32,75.6
X$262 216 215 112 119 113 22 gf180mcu_fd_sc_mcu9t5v0__mux2_2
* cell instance $272 r0 *1 119.84,65.52
X$272 216 215 109 22 93 99 gf180mcu_fd_sc_mcu9t5v0__mux2_2
* cell instance $275 r0 *1 116.48,55.44
X$275 216 215 73 22 81 71 gf180mcu_fd_sc_mcu9t5v0__mux2_2
* cell instance $277 r0 *1 112.56,45.36
X$277 216 215 43 22 51 44 gf180mcu_fd_sc_mcu9t5v0__mux2_2
* cell instance $282 m0 *1 91.84,45.36
X$282 42 215 48 49 216 23 gf180mcu_fd_sc_mcu9t5v0__and3_2
* cell instance $284 m0 *1 75.6,55.44
X$284 215 24 64 216 58 gf180mcu_fd_sc_mcu9t5v0__and2_2
* cell instance $286 m0 *1 76.16,45.36
X$286 216 215 24 35 34 gf180mcu_fd_sc_mcu9t5v0__nand2_2
* cell instance $291 r0 *1 64.96,35.28
X$291 216 215 46 24 34 gf180mcu_fd_sc_mcu9t5v0__nor2_2
* cell instance $295 r0 *1 68.88,45.36
X$295 216 25 27 215 26 46 gf180mcu_fd_sc_mcu9t5v0__nand3_2
* cell instance $298 r0 *1 76.16,45.36
X$298 27 26 46 36 216 215 49 gf180mcu_fd_sc_mcu9t5v0__and4_2
* cell instance $305 m0 *1 64.4,45.36
X$305 216 26 34 33 38 215 gf180mcu_fd_sc_mcu9t5v0__addh_2
* cell instance $312 m0 *1 63.28,55.44
X$312 216 27 64 33 63 215 gf180mcu_fd_sc_mcu9t5v0__addh_2
* cell instance $323 m0 *1 134.96,55.44
X$323 29 215 216 68 gf180mcu_fd_sc_mcu9t5v0__dlyb_2
* cell instance $327 r0 *1 39.76,35.28
X$327 216 215 36 31 30 gf180mcu_fd_sc_mcu9t5v0__nor2_2
* cell instance $333 m0 *1 43.12,45.36
X$333 31 216 215 32 45 gf180mcu_fd_sc_mcu9t5v0__addh_1
* cell instance $335 m0 *1 31.92,65.52
X$335 215 106 32 216 94 gf180mcu_fd_sc_mcu9t5v0__and2_2
* cell instance $339 r0 *1 42,55.44
X$339 215 74 216 89 61 32 82 gf180mcu_fd_sc_mcu9t5v0__oai31_2
* cell instance $342 m0 *1 52.64,65.52
X$342 216 215 32 33 gf180mcu_fd_sc_mcu9t5v0__clkinv_3
* cell instance $344 m0 *1 59.36,65.52
X$344 32 61 39 86 216 215 136 gf180mcu_fd_sc_mcu9t5v0__and4_2
* cell instance $357 m0 *1 57.68,55.44
X$357 216 32 63 215 38 gf180mcu_fd_sc_mcu9t5v0__or2_2
* cell instance $359 m0 *1 45.92,55.44
X$359 215 33 52 216 57 gf180mcu_fd_sc_mcu9t5v0__and2_2
* cell instance $361 m0 *1 43.12,65.52
X$361 97 96 87 88 33 215 216 gf180mcu_fd_sc_mcu9t5v0__aoi211_2
* cell instance $384 r0 *1 83.44,45.36
X$384 42 47 36 58 216 215 41 gf180mcu_fd_sc_mcu9t5v0__and4_2
* cell instance $399 r0 *1 66.08,55.44
X$399 216 215 59 39 gf180mcu_fd_sc_mcu9t5v0__clkinv_2
* cell instance $406 m0 *1 85.68,55.44
X$406 40 215 47 70 216 67 gf180mcu_fd_sc_mcu9t5v0__and3_2
* cell instance $410 m0 *1 36.4,75.6
X$410 216 215 83 102 40 gf180mcu_fd_sc_mcu9t5v0__nand2_2
* cell instance $412 m0 *1 64.4,95.76
X$412 215 40 136 216 145 gf180mcu_fd_sc_mcu9t5v0__and2_2
* cell instance $415 r0 *1 81.2,55.44
X$415 40 215 65 70 216 48 gf180mcu_fd_sc_mcu9t5v0__and3_2
* cell instance $423 m0 *1 36.96,65.52
X$423 62 215 83 40 216 54 gf180mcu_fd_sc_mcu9t5v0__and3_2
* cell instance $425 m0 *1 38.08,95.76
X$425 152 104 123 135 216 215 40 gf180mcu_fd_sc_mcu9t5v0__and4_2
* cell instance $433 m0 *1 87.92,65.52
X$433 215 85 79 216 42 gf180mcu_fd_sc_mcu9t5v0__and2_2
* cell instance $453 m0 *1 81.2,55.44
X$453 216 215 47 65 gf180mcu_fd_sc_mcu9t5v0__clkinv_2
* cell instance $459 r0 *1 56,45.36
X$459 215 52 62 216 47 gf180mcu_fd_sc_mcu9t5v0__xnor2_2
* cell instance $463 r0 *1 92.96,45.36
X$463 48 215 49 66 216 50 gf180mcu_fd_sc_mcu9t5v0__and3_2
* cell instance $465 m0 *1 92.96,65.52
X$465 85 84 48 49 216 215 81 gf180mcu_fd_sc_mcu9t5v0__and4_2
* cell instance $467 r0 *1 103.04,65.52
X$467 216 215 48 114 91 gf180mcu_fd_sc_mcu9t5v0__nand2_2
* cell instance $476 m0 *1 103.04,55.44
X$476 49 215 66 67 216 51 gf180mcu_fd_sc_mcu9t5v0__and3_2
* cell instance $480 r0 *1 86.24,65.52
X$480 77 215 84 49 216 91 gf180mcu_fd_sc_mcu9t5v0__and3_2
* cell instance $484 r0 *1 92.4,65.52
X$484 85 84 49 67 216 215 93 gf180mcu_fd_sc_mcu9t5v0__and4_2
* cell instance $502 m0 *1 42.56,55.44
X$502 216 215 52 61 gf180mcu_fd_sc_mcu9t5v0__clkinv_2
* cell instance $513 m0 *1 34.16,55.44
X$513 216 215 53 54 61 60 gf180mcu_fd_sc_mcu9t5v0__mux2_2
* cell instance $521 m0 *1 134.96,65.52
X$521 55 215 216 80 gf180mcu_fd_sc_mcu9t5v0__dlyb_2
* cell instance $526 m0 *1 28.56,55.44
X$526 216 215 56 74 59 gf180mcu_fd_sc_mcu9t5v0__nand2_2
* cell instance $529 m0 *1 26.88,65.52
X$529 215 56 59 216 83 gf180mcu_fd_sc_mcu9t5v0__and2_2
* cell instance $544 r0 *1 52.08,55.44
X$544 216 215 62 82 59 gf180mcu_fd_sc_mcu9t5v0__nand2_2
* cell instance $551 r0 *1 70.56,55.44
X$551 216 215 70 59 64 gf180mcu_fd_sc_mcu9t5v0__nor2_2
* cell instance $553 m0 *1 3.92,55.44
X$553 59 215 216 69 gf180mcu_fd_sc_mcu9t5v0__dlyb_2
* cell instance $558 r0 *1 18.48,65.52
X$558 215 59 100 216 101 gf180mcu_fd_sc_mcu9t5v0__xnor2_2
* cell instance $560 r0 *1 34.72,65.52
X$560 215 216 102 62 107 87 60 95 gf180mcu_fd_sc_mcu9t5v0__oai221_2
* cell instance $569 r0 *1 58.8,55.44
X$569 61 216 77 78 215 63 gf180mcu_fd_sc_mcu9t5v0__or3_2
* cell instance $583 m0 *1 64.96,75.6
X$583 216 62 219 85 98 215 gf180mcu_fd_sc_mcu9t5v0__addh_2
* cell instance $595 r0 *1 64.96,65.52
X$595 107 215 64 87 216 103 gf180mcu_fd_sc_mcu9t5v0__and3_2
* cell instance $611 r0 *1 87.36,55.44
X$611 215 77 79 216 66 gf180mcu_fd_sc_mcu9t5v0__and2_2
* cell instance $615 m0 *1 98.56,75.6
X$615 216 215 91 113 67 gf180mcu_fd_sc_mcu9t5v0__nand2_2
* cell instance $653 r0 *1 47.04,65.52
X$653 103 216 88 94 215 75 gf180mcu_fd_sc_mcu9t5v0__or3_2
* cell instance $661 m0 *1 41.44,75.6
X$661 216 76 215 gf180mcu_fd_sc_mcu9t5v0__clkbuf_12
* cell instance $664 r0 *1 41.44,75.6
X$664 216 215 90 76 gf180mcu_fd_sc_mcu9t5v0__clkbuf_3
* cell instance $676 m0 *1 70,65.52
X$676 216 86 84 77 78 215 gf180mcu_fd_sc_mcu9t5v0__addh_2
* cell instance $680 r0 *1 53.76,75.6
X$680 216 215 107 117 77 gf180mcu_fd_sc_mcu9t5v0__nand2_2
* cell instance $682 m0 *1 57.12,85.68
X$682 216 215 125 117 134 77 gf180mcu_fd_sc_mcu9t5v0__mux2_2
* cell instance $690 m0 *1 85.12,75.6
X$690 216 215 85 77 gf180mcu_fd_sc_mcu9t5v0__inv_2
* cell instance $693 m0 *1 76.72,75.6
X$693 216 215 98 78 gf180mcu_fd_sc_mcu9t5v0__clkinv_2
* cell instance $699 r0 *1 55.44,65.52
X$699 97 96 78 111 87 215 216 gf180mcu_fd_sc_mcu9t5v0__aoi211_2
* cell instance $704 m0 *1 84.56,65.52
X$704 216 215 84 79 gf180mcu_fd_sc_mcu9t5v0__clkinv_2
* cell instance $718 m0 *1 40.32,85.68
X$718 216 95 215 124 131 83 gf180mcu_fd_sc_mcu9t5v0__aoi21_2
* cell instance $729 r0 *1 58.8,75.6
X$729 107 215 84 87 216 126 gf180mcu_fd_sc_mcu9t5v0__and3_2
* cell instance $743 r0 *1 64.4,85.68
X$743 216 215 85 133 142 gf180mcu_fd_sc_mcu9t5v0__nand2_2
* cell instance $766 r0 *1 36.4,75.6
X$766 215 89 131 216 87 gf180mcu_fd_sc_mcu9t5v0__and2_2
* cell instance $774 m0 *1 48.16,85.68
X$774 123 215 135 89 216 134 gf180mcu_fd_sc_mcu9t5v0__and3_2
* cell instance $776 m0 *1 98.56,95.76
X$776 216 215 90 108 gf180mcu_fd_sc_mcu9t5v0__clkbuf_3
* cell instance $778 r0 *1 44.24,105.84
X$778 216 215 90 144 gf180mcu_fd_sc_mcu9t5v0__clkbuf_3
* cell instance $787 r0 *1 64.96,75.6
X$787 216 215 115 90 gf180mcu_fd_sc_mcu9t5v0__clkbuf_3
* cell instance $799 m0 *1 20.72,75.6
X$799 215 104 101 216 92 gf180mcu_fd_sc_mcu9t5v0__and2_2
* cell instance $815 r0 *1 31.36,75.6
X$815 215 96 97 216 95 gf180mcu_fd_sc_mcu9t5v0__and2_2
* cell instance $817 r0 *1 43.12,115.92
X$817 216 215 96 190 166 gf180mcu_fd_sc_mcu9t5v0__nand2_2
* cell instance $820 r0 *1 34.16,105.84
X$820 216 215 104 96 gf180mcu_fd_sc_mcu9t5v0__clkinv_8
* cell instance $826 r0 *1 19.04,115.92
X$826 216 215 107 169 96 gf180mcu_fd_sc_mcu9t5v0__nand2_2
* cell instance $840 m0 *1 75.6,85.68
X$840 215 133 216 125 137 96 gf180mcu_fd_sc_mcu9t5v0__oai21_2
* cell instance $843 r0 *1 26.88,95.76
X$843 215 107 216 123 151 96 gf180mcu_fd_sc_mcu9t5v0__oai21_2
* cell instance $845 r0 *1 17.36,95.76
X$845 135 123 130 148 96 215 216 gf180mcu_fd_sc_mcu9t5v0__aoi211_2
* cell instance $847 r0 *1 34.16,126
X$847 216 215 180 183 96 182 gf180mcu_fd_sc_mcu9t5v0__mux2_2
* cell instance $852 r0 *1 15.68,115.92
X$852 216 215 97 168 gf180mcu_fd_sc_mcu9t5v0__clkinv_2
* cell instance $863 r0 *1 10.64,105.84
X$863 156 215 216 97 gf180mcu_fd_sc_mcu9t5v0__buf_3
* cell instance $865 r0 *1 49.84,85.68
X$865 215 107 216 97 142 104 gf180mcu_fd_sc_mcu9t5v0__oai21_2
* cell instance $867 r0 *1 36.96,115.92
X$867 216 215 107 183 97 gf180mcu_fd_sc_mcu9t5v0__nand2_2
* cell instance $869 r0 *1 69.44,85.68
X$869 215 106 98 216 132 gf180mcu_fd_sc_mcu9t5v0__and2_2
* cell instance $886 m0 *1 25.76,75.6
X$886 216 106 105 215 100 gf180mcu_fd_sc_mcu9t5v0__or2_2
* cell instance $901 r0 *1 54.32,105.84
X$901 215 104 152 158 216 gf180mcu_fd_sc_mcu9t5v0__and2_4
* cell instance $908 r0 *1 38.64,85.68
X$908 104 215 123 135 216 131 gf180mcu_fd_sc_mcu9t5v0__and3_2
* cell instance $915 r0 *1 24.08,75.6
X$915 104 215 116 105 216 110 gf180mcu_fd_sc_mcu9t5v0__and3_2
* cell instance $920 r0 *1 24.64,85.68
X$920 216 215 123 105 135 gf180mcu_fd_sc_mcu9t5v0__nand2_2
* cell instance $923 r0 *1 40.88,95.76
X$923 216 215 106 152 gf180mcu_fd_sc_mcu9t5v0__clkinv_2
* cell instance $926 m0 *1 47.6,105.84
X$926 216 215 124 106 184 gf180mcu_fd_sc_mcu9t5v0__nor2_4
* cell instance $943 m0 *1 39.76,105.84
X$943 216 215 152 107 gf180mcu_fd_sc_mcu9t5v0__buf_4
* cell instance $965 r0 *1 8.96,95.76
X$965 216 215 147 148 107 130 gf180mcu_fd_sc_mcu9t5v0__mux2_2
* cell instance $967 m0 *1 7.84,85.68
X$967 216 215 128 110 107 129 gf180mcu_fd_sc_mcu9t5v0__mux2_2
* cell instance $1004 m0 *1 68.88,85.68
X$1004 126 216 111 132 215 127 gf180mcu_fd_sc_mcu9t5v0__or3_2
* cell instance $1021 m0 *1 16.24,85.68
X$1021 216 123 116 130 129 215 gf180mcu_fd_sc_mcu9t5v0__addh_2
* cell instance $1040 r0 *1 129.36,85.68
X$1040 120 215 216 141 gf180mcu_fd_sc_mcu9t5v0__dlyb_2
* cell instance $1098 m0 *1 50.96,95.76
X$1098 216 142 215 150 136 131 gf180mcu_fd_sc_mcu9t5v0__aoi21_2
* cell instance $1115 m0 *1 30.8,105.84
X$1115 216 215 157 135 gf180mcu_fd_sc_mcu9t5v0__clkinv_3
* cell instance $1137 r0 *1 126.56,105.84
X$1137 138 215 216 139 gf180mcu_fd_sc_mcu9t5v0__dlyb_2
* cell instance $1145 r0 *1 134.96,105.84
X$1145 154 215 216 140 gf180mcu_fd_sc_mcu9t5v0__dlyb_2
* cell instance $1161 m0 *1 44.24,115.92
X$1161 216 215 144 217 gf180mcu_fd_sc_mcu9t5v0__clkinv_3
* cell instance $1172 r0 *1 10.08,126
X$1172 216 179 144 178 181 215 gf180mcu_fd_sc_mcu9t5v0__dffsnq_2
* cell instance $1177 m0 *1 20.72,126
X$1177 216 182 144 180 181 215 gf180mcu_fd_sc_mcu9t5v0__dffsnq_2
* cell instance $1191 m0 *1 134.96,115.92
X$1191 155 215 216 146 gf180mcu_fd_sc_mcu9t5v0__dlyb_2
* cell instance $1207 r0 *1 27.44,105.84
X$1207 215 157 151 216 159 gf180mcu_fd_sc_mcu9t5v0__and2_2
* cell instance $1231 r0 *1 58.24,115.92
X$1231 216 215 160 170 158 167 gf180mcu_fd_sc_mcu9t5v0__mux2_2
* cell instance $1240 r0 *1 127.12,126
X$1240 216 215 175 188 158 206 gf180mcu_fd_sc_mcu9t5v0__mux2_2
* cell instance $1242 m0 *1 114.24,136.08
X$1242 216 215 196 187 158 203 gf180mcu_fd_sc_mcu9t5v0__mux2_2
* cell instance $1244 r0 *1 71.68,126
X$1244 216 215 185 191 158 192 gf180mcu_fd_sc_mcu9t5v0__mux2_2
* cell instance $1246 r0 *1 101.92,126
X$1246 216 215 199 161 158 195 gf180mcu_fd_sc_mcu9t5v0__mux2_2
* cell instance $1248 r0 *1 91.84,126
X$1248 216 215 173 186 158 194 gf180mcu_fd_sc_mcu9t5v0__mux2_2
* cell instance $1250 m0 *1 81.2,136.08
X$1250 216 215 193 172 158 202 gf180mcu_fd_sc_mcu9t5v0__mux2_2
* cell instance $1259 r0 *1 61.6,126
X$1259 216 215 201 160 184 191 gf180mcu_fd_sc_mcu9t5v0__mux2_2
* cell instance $1261 r0 *1 92.4,115.92
X$1261 216 215 176 173 184 161 gf180mcu_fd_sc_mcu9t5v0__mux2_2
* cell instance $1268 r0 *1 124.32,115.92
X$1268 216 215 165 175 184 162 gf180mcu_fd_sc_mcu9t5v0__mux2_2
* cell instance $1272 m0 *1 134.96,136.08
X$1272 162 215 216 164 gf180mcu_fd_sc_mcu9t5v0__dlyb_2
* cell instance $1276 m0 *1 126.56,136.08
X$1276 163 215 216 206 gf180mcu_fd_sc_mcu9t5v0__dlyb_2
* cell instance $1284 m0 *1 40.32,136.08
X$1284 204 215 216 166 gf180mcu_fd_sc_mcu9t5v0__dlyb_2
* cell instance $1288 r0 *1 57.68,136.08
X$1288 212 215 216 167 gf180mcu_fd_sc_mcu9t5v0__dlyb_2
* cell instance $1290 m0 *1 12.32,126
X$1290 216 215 178 179 169 168 gf180mcu_fd_sc_mcu9t5v0__mux2_2
* cell instance $1295 r0 *1 57.12,126
X$1295 216 215 170 198 gf180mcu_fd_sc_mcu9t5v0__clkinv_2
* cell instance $1302 r0 *1 81.76,126
X$1302 216 215 171 193 184 186 gf180mcu_fd_sc_mcu9t5v0__mux2_2
* cell instance $1304 m0 *1 69.44,126
X$1304 216 215 177 185 184 172 gf180mcu_fd_sc_mcu9t5v0__mux2_2
* cell instance $1313 r0 *1 118.72,126
X$1313 216 215 174 196 184 188 gf180mcu_fd_sc_mcu9t5v0__mux2_2
* cell instance $1328 m0 *1 31.92,136.08
X$1328 179 215 216 205 gf180mcu_fd_sc_mcu9t5v0__dlyb_2
* cell instance $1336 m0 *1 48.72,136.08
X$1336 200 215 216 181 gf180mcu_fd_sc_mcu9t5v0__buf_2
* cell instance $1350 r0 *1 29.12,136.08
X$1350 182 215 216 210 gf180mcu_fd_sc_mcu9t5v0__dlyb_2
* cell instance $1357 r0 *1 44.24,126
X$1357 215 183 216 190 184 197 198 gf180mcu_fd_sc_mcu9t5v0__oai22_2
* cell instance $1376 r0 *1 110.32,126
X$1376 216 215 189 199 184 187 gf180mcu_fd_sc_mcu9t5v0__mux2_2
* cell instance $1407 r0 *1 69.44,136.08
X$1407 208 215 216 192 gf180mcu_fd_sc_mcu9t5v0__dlyb_2
* cell instance $1413 m0 *1 93.52,136.08
X$1413 207 215 216 194 gf180mcu_fd_sc_mcu9t5v0__dlyb_2
* cell instance $1415 r0 *1 102.48,136.08
X$1415 214 215 216 195 gf180mcu_fd_sc_mcu9t5v0__dlyb_2
* cell instance $1435 r0 *1 37.52,136.08
X$1435 216 200 211 215 gf180mcu_fd_sc_mcu9t5v0__dlyc_2
* cell instance $1439 r0 *1 84.56,136.08
X$1439 213 215 216 202 gf180mcu_fd_sc_mcu9t5v0__dlyb_2
* cell instance $1442 r0 *1 114.8,136.08
X$1442 209 215 216 203 gf180mcu_fd_sc_mcu9t5v0__dlyb_2
.ENDS parameterized_spi_master

* cell gf180mcu_fd_sc_mcu9t5v0__clkbuf_4
* pin PWELL,VSS,gf180mcu_gnd
* pin NWELL,VDD
* pin I
.SUBCKT gf180mcu_fd_sc_mcu9t5v0__clkbuf_4 1 2 3
* net 1 PWELL,VSS,gf180mcu_gnd
* net 2 NWELL,VDD
* net 3 I
* net 5 Z
* device instance $1 r0 *1 0.87,3.78 pmos_5p0
M$1 4 3 2 2 pmos_5p0 L=0.5U W=3.66U AS=1.3725P AD=1.2993P PS=6.99U PD=5.08U
* device instance $3 r0 *1 3.29,3.78 pmos_5p0
M$3 5 4 2 2 pmos_5p0 L=0.5U W=7.32U AS=2.4339P AD=2.5071P PS=9.98U PD=11.89U
* device instance $7 r0 *1 0.92,1.23 nmos_5p0
M$7 4 3 1 1 nmos_5p0 L=0.6U W=1.46U AS=0.511P AD=0.4593P PS=3.59U PD=2.75U
* device instance $9 r0 *1 3.34,1.265 nmos_5p0
M$9 5 4 1 1 nmos_5p0 L=0.6U W=3.2U AS=0.8935P AD=0.976P PS=5.46U PD=6.44U
.ENDS gf180mcu_fd_sc_mcu9t5v0__clkbuf_4

* cell gf180mcu_fd_sc_mcu9t5v0__addh_1
* pin CO
* pin PWELL,VSS,gf180mcu_gnd
* pin NWELL,VDD
* pin A
* pin B
.SUBCKT gf180mcu_fd_sc_mcu9t5v0__addh_1 1 2 3 4 5
* net 1 CO
* net 2 PWELL,VSS,gf180mcu_gnd
* net 3 NWELL,VDD
* net 4 A
* net 5 B
* net 9 S
* device instance $1 r0 *1 5.01,3.912 pmos_5p0
M$1 11 5 3 3 pmos_5p0 L=0.5U W=0.915U AS=0.4026P AD=0.2379P PS=2.71U PD=1.435U
* device instance $2 r0 *1 6.03,3.912 pmos_5p0
M$2 8 4 11 3 pmos_5p0 L=0.5U W=0.915U AS=0.2379P AD=0.3294P PS=1.435U PD=1.635U
* device instance $3 r0 *1 7.25,3.912 pmos_5p0
M$3 8 6 3 3 pmos_5p0 L=0.5U W=0.915U AS=0.50325P AD=0.3294P PS=2.53U PD=1.635U
* device instance $4 r0 *1 8.45,3.78 pmos_5p0
M$4 9 8 3 3 pmos_5p0 L=0.5U W=1.83U AS=0.50325P AD=0.8052P PS=2.53U PD=4.54U
* device instance $5 r0 *1 2.23,3.912 pmos_5p0
M$5 6 4 3 3 pmos_5p0 L=0.5U W=0.915U AS=0.5307P AD=0.2379P PS=2.59U PD=1.435U
* device instance $6 r0 *1 3.25,3.912 pmos_5p0
M$6 3 5 6 3 pmos_5p0 L=0.5U W=0.915U AS=0.2379P AD=0.4026P PS=1.435U PD=2.71U
* device instance $7 r0 *1 0.97,3.78 pmos_5p0
M$7 3 6 1 3 pmos_5p0 L=0.5U W=1.83U AS=0.8052P AD=0.5307P PS=4.54U PD=2.59U
* device instance $8 r0 *1 4.96,1.335 nmos_5p0
M$8 8 5 7 2 nmos_5p0 L=0.6U W=0.66U AS=0.2904P AD=0.1716P PS=2.2U PD=1.18U
* device instance $9 r0 *1 6.08,1.335 nmos_5p0
M$9 7 4 8 2 nmos_5p0 L=0.6U W=0.66U AS=0.1716P AD=0.1716P PS=1.18U PD=1.18U
* device instance $10 r0 *1 7.2,1.335 nmos_5p0
M$10 7 6 2 2 nmos_5p0 L=0.6U W=0.66U AS=0.363P AD=0.1716P PS=2.02U PD=1.18U
* device instance $11 r0 *1 8.5,1.005 nmos_5p0
M$11 9 8 2 2 nmos_5p0 L=0.6U W=1.32U AS=0.363P AD=0.5808P PS=2.02U PD=3.52U
* device instance $12 r0 *1 0.92,1.005 nmos_5p0
M$12 2 6 1 2 nmos_5p0 L=0.6U W=1.32U AS=0.5808P AD=0.3828P PS=3.52U PD=2.08U
* device instance $13 r0 *1 2.28,1.335 nmos_5p0
M$13 10 4 2 2 nmos_5p0 L=0.6U W=0.66U AS=0.3828P AD=0.0792P PS=2.08U PD=0.9U
* device instance $14 r0 *1 3.12,1.335 nmos_5p0
M$14 6 5 10 2 nmos_5p0 L=0.6U W=0.66U AS=0.0792P AD=0.2904P PS=0.9U PD=2.2U
.ENDS gf180mcu_fd_sc_mcu9t5v0__addh_1

* cell gf180mcu_fd_sc_mcu9t5v0__xnor2_2
* pin NWELL,VDD
* pin A1
* pin A2
* pin PWELL,VSS,gf180mcu_gnd
* pin ZN
.SUBCKT gf180mcu_fd_sc_mcu9t5v0__xnor2_2 1 5 6 7 8
* net 1 NWELL,VDD
* net 5 A1
* net 6 A2
* net 7 PWELL,VSS,gf180mcu_gnd
* net 8 ZN
* device instance $1 r0 *1 0.97,3.327 pmos_5p0
M$1 10 6 2 1 pmos_5p0 L=0.5U W=0.915U AS=0.4026P AD=0.260775P PS=2.71U PD=1.485U
* device instance $2 r0 *1 2.04,3.327 pmos_5p0
M$2 1 5 10 1 pmos_5p0 L=0.5U W=0.915U AS=0.260775P AD=0.571875P PS=1.485U
+ PD=2.68U
* device instance $3 r0 *1 3.39,3.785 pmos_5p0
M$3 4 2 1 1 pmos_5p0 L=0.5U W=1.83U AS=0.571875P AD=0.4758P PS=2.68U PD=2.35U
* device instance $4 r0 *1 4.41,3.785 pmos_5p0
M$4 3 5 4 1 pmos_5p0 L=0.5U W=1.83U AS=0.4758P AD=0.4758P PS=2.35U PD=2.35U
* device instance $5 r0 *1 5.43,3.785 pmos_5p0
M$5 4 6 3 1 pmos_5p0 L=0.5U W=1.83U AS=0.4758P AD=0.8052P PS=2.35U PD=4.54U
* device instance $6 r0 *1 7.17,3.78 pmos_5p0
M$6 8 3 1 1 pmos_5p0 L=0.5U W=3.66U AS=1.3725P AD=1.3725P PS=6.99U PD=6.99U
* device instance $8 r0 *1 7.22,1.005 nmos_5p0
M$8 8 3 7 7 nmos_5p0 L=0.6U W=2.64U AS=0.924P AD=0.924P PS=5.36U PD=5.36U
* device instance $10 r0 *1 0.92,0.675 nmos_5p0
M$10 2 6 7 7 nmos_5p0 L=0.6U W=0.66U AS=0.2904P AD=0.1716P PS=2.2U PD=1.18U
* device instance $11 r0 *1 2.04,0.675 nmos_5p0
M$11 7 5 2 7 nmos_5p0 L=0.6U W=0.66U AS=0.1716P AD=0.363P PS=1.18U PD=2.02U
* device instance $12 r0 *1 3.34,1.005 nmos_5p0
M$12 3 2 7 7 nmos_5p0 L=0.6U W=1.32U AS=0.363P AD=0.3432P PS=2.02U PD=1.84U
* device instance $13 r0 *1 4.46,1.005 nmos_5p0
M$13 9 5 3 7 nmos_5p0 L=0.6U W=1.32U AS=0.3432P AD=0.2112P PS=1.84U PD=1.64U
* device instance $14 r0 *1 5.38,1.005 nmos_5p0
M$14 7 6 9 7 nmos_5p0 L=0.6U W=1.32U AS=0.2112P AD=0.5808P PS=1.64U PD=3.52U
.ENDS gf180mcu_fd_sc_mcu9t5v0__xnor2_2

* cell gf180mcu_fd_sc_mcu9t5v0__oai221_2
* pin NWELL,VDD
* pin PWELL,VSS,gf180mcu_gnd
* pin B1
* pin B2
* pin C
* pin A1
* pin ZN
* pin A2
.SUBCKT gf180mcu_fd_sc_mcu9t5v0__oai221_2 1 3 4 5 6 8 9 10
* net 1 NWELL,VDD
* net 3 PWELL,VSS,gf180mcu_gnd
* net 4 B1
* net 5 B2
* net 6 C
* net 8 A1
* net 9 ZN
* net 10 A2
* device instance $1 r0 *1 0.92,3.965 pmos_5p0
M$1 9 6 1 1 pmos_5p0 L=0.5U W=2.92U AS=1.17P AD=1.2274P PS=5.06U PD=6.33U
* device instance $2 r0 *1 2.12,3.78 pmos_5p0
M$2 14 5 1 1 pmos_5p0 L=0.5U W=1.83U AS=0.585P AD=0.4758P PS=2.53U PD=2.35U
* device instance $3 r0 *1 3.14,3.78 pmos_5p0
M$3 9 4 14 1 pmos_5p0 L=0.5U W=1.83U AS=0.4758P AD=0.61305P PS=2.35U PD=2.5U
* device instance $4 r0 *1 4.31,3.78 pmos_5p0
M$4 13 4 9 1 pmos_5p0 L=0.5U W=1.83U AS=0.61305P AD=0.52155P PS=2.5U PD=2.4U
* device instance $5 r0 *1 5.38,3.78 pmos_5p0
M$5 1 5 13 1 pmos_5p0 L=0.5U W=1.83U AS=0.52155P AD=0.585P PS=2.4U PD=2.53U
* device instance $7 r0 *1 7.78,3.78 pmos_5p0
M$7 12 8 9 1 pmos_5p0 L=0.5U W=1.83U AS=0.585P AD=0.52155P PS=2.53U PD=2.4U
* device instance $8 r0 *1 8.85,3.78 pmos_5p0
M$8 1 10 12 1 pmos_5p0 L=0.5U W=1.83U AS=0.52155P AD=0.5673P PS=2.4U PD=2.45U
* device instance $9 r0 *1 9.97,3.78 pmos_5p0
M$9 11 10 1 1 pmos_5p0 L=0.5U W=1.83U AS=0.5673P AD=0.52155P PS=2.45U PD=2.4U
* device instance $10 r0 *1 11.04,3.78 pmos_5p0
M$10 9 8 11 1 pmos_5p0 L=0.5U W=1.83U AS=0.52155P AD=0.8052P PS=2.4U PD=4.54U
* device instance $11 r0 *1 0.92,1.005 nmos_5p0
M$11 2 6 7 3 nmos_5p0 L=0.6U W=2.64U AS=0.924P AD=0.7458P PS=5.36U PD=3.77U
* device instance $12 r0 *1 2.07,1.005 nmos_5p0
M$12 3 5 2 3 nmos_5p0 L=0.6U W=2.64U AS=0.7062P AD=0.6864P PS=3.71U PD=3.68U
* device instance $13 r0 *1 3.19,1.005 nmos_5p0
M$13 2 4 3 3 nmos_5p0 L=0.6U W=2.64U AS=0.6864P AD=0.6864P PS=3.68U PD=3.68U
* device instance $17 r0 *1 7.73,1.005 nmos_5p0
M$17 9 8 7 3 nmos_5p0 L=0.6U W=2.64U AS=0.726P AD=0.924P PS=3.74U PD=5.36U
* device instance $18 r0 *1 8.85,1.005 nmos_5p0
M$18 7 10 9 3 nmos_5p0 L=0.6U W=2.64U AS=0.6864P AD=0.6864P PS=3.68U PD=3.68U
.ENDS gf180mcu_fd_sc_mcu9t5v0__oai221_2

* cell gf180mcu_fd_sc_mcu9t5v0__dffrnq_4
* pin PWELL,VSS,gf180mcu_gnd
* pin RN
* pin Q
* pin CLK
* pin D
* pin NWELL,VDD
.SUBCKT gf180mcu_fd_sc_mcu9t5v0__dffrnq_4 1 3 4 5 6 17
* net 1 PWELL,VSS,gf180mcu_gnd
* net 3 RN
* net 4 Q
* net 5 CLK
* net 6 D
* net 17 NWELL,VDD
* device instance $1 r0 *1 16.975,3.78 pmos_5p0
M$1 4 13 17 17 pmos_5p0 L=0.5U W=7.32U AS=2.2326P AD=2.2326P PS=11.59U PD=11.59U
* device instance $5 r0 *1 9.55,3.71 pmos_5p0
M$5 10 9 17 17 pmos_5p0 L=0.5U W=1U AS=0.44P AD=0.285P PS=2.88U PD=1.57U
* device instance $6 r0 *1 10.62,3.71 pmos_5p0
M$6 11 2 10 17 pmos_5p0 L=0.5U W=1U AS=0.285P AD=0.26P PS=1.57U PD=1.52U
* device instance $7 r0 *1 11.64,3.71 pmos_5p0
M$7 12 8 11 17 pmos_5p0 L=0.5U W=1U AS=0.26P AD=0.2875P PS=1.52U PD=1.575U
* device instance $8 r0 *1 12.715,3.71 pmos_5p0
M$8 12 13 17 17 pmos_5p0 L=0.5U W=1U AS=0.5457P AD=0.2875P PS=2.57U PD=1.575U
* device instance $9 r0 *1 13.955,3.78 pmos_5p0
M$9 13 3 17 17 pmos_5p0 L=0.5U W=1.83U AS=0.5457P AD=0.4758P PS=2.57U PD=2.35U
* device instance $10 r0 *1 14.975,3.78 pmos_5p0
M$10 17 11 13 17 pmos_5p0 L=0.5U W=1.83U AS=0.4758P AD=0.8052P PS=2.35U PD=4.54U
* device instance $11 r0 *1 3.73,3.41 pmos_5p0
M$11 7 6 17 17 pmos_5p0 L=0.5U W=1U AS=0.44P AD=0.26P PS=2.88U PD=1.52U
* device instance $12 r0 *1 4.75,3.41 pmos_5p0
M$12 9 8 7 17 pmos_5p0 L=0.5U W=1U AS=0.26P AD=0.26P PS=1.52U PD=1.52U
* device instance $13 r0 *1 5.77,3.41 pmos_5p0
M$13 18 2 9 17 pmos_5p0 L=0.5U W=1U AS=0.26P AD=0.26P PS=1.52U PD=1.52U
* device instance $14 r0 *1 6.79,3.41 pmos_5p0
M$14 17 10 18 17 pmos_5p0 L=0.5U W=1U AS=0.26P AD=0.26P PS=1.52U PD=1.52U
* device instance $15 r0 *1 7.81,3.41 pmos_5p0
M$15 18 3 17 17 pmos_5p0 L=0.5U W=1U AS=0.26P AD=0.44P PS=1.52U PD=2.88U
* device instance $16 r0 *1 0.97,3.555 pmos_5p0
M$16 17 5 2 17 pmos_5p0 L=0.5U W=1.38U AS=0.6072P AD=0.3588P PS=3.64U PD=1.9U
* device instance $17 r0 *1 1.99,3.555 pmos_5p0
M$17 8 2 17 17 pmos_5p0 L=0.5U W=1.38U AS=0.3588P AD=0.6072P PS=1.9U PD=3.64U
* device instance $18 r0 *1 16.925,1.005 nmos_5p0
M$18 4 13 1 1 nmos_5p0 L=0.6U W=5.28U AS=1.6104P AD=1.6104P PS=9.04U PD=9.04U
* device instance $22 r0 *1 3.9,1.315 nmos_5p0
M$22 7 6 1 1 nmos_5p0 L=0.6U W=0.59U AS=0.2596P AD=0.1534P PS=2.06U PD=1.11U
* device instance $23 r0 *1 5.02,1.315 nmos_5p0
M$23 9 2 7 1 nmos_5p0 L=0.6U W=0.59U AS=0.1534P AD=0.1534P PS=1.11U PD=1.11U
* device instance $24 r0 *1 6.14,1.315 nmos_5p0
M$24 15 8 9 1 nmos_5p0 L=0.6U W=0.59U AS=0.1534P AD=0.0708P PS=1.11U PD=0.83U
* device instance $25 r0 *1 6.98,1.315 nmos_5p0
M$25 14 10 15 1 nmos_5p0 L=0.6U W=0.59U AS=0.0708P AD=0.0826P PS=0.83U PD=0.87U