* CDL Netlist generated by OpenROAD

*.BUSDELIMITER [

.SUBCKT elastic_buffer rd_almost_empty rd_clk rd_count[0]
+ rd_count[1] rd_count[2] rd_count[3] rd_data[0] rd_data[1]
+ rd_data[2] rd_data[3] rd_data[4] rd_data[5] rd_data[6] rd_data[7]
+ rd_empty rd_en rd_rst_n wr_almost_full wr_clk wr_count[0]
+ wr_count[1] wr_count[2] wr_count[3] wr_data[0] wr_data[1]
+ wr_data[2] wr_data[3] wr_data[4] wr_data[5] wr_data[6] wr_data[7]
+ wr_en wr_full wr_rst_n
X_348_ _332_ _322_ net10 VDD VSS XOR2_X2
X_349_ wr_ptr_bin_sync\[3\] rd_ptr_bin\[3\] _091_ VDD VSS
+ XNOR2_X2
X_350_ _333_ _092_ VDD VSS INV_X1
X_351_ _334_ _093_ VDD VSS INV_X1
X_352_ _092_ _093_ _344_ _094_ VDD VSS OAI21_X1
X_353_ _331_ _094_ _332_ _095_ VDD VSS AOI21_X2
X_354_ _091_ _095_ net11 VDD VSS XNOR2_X2
X_355_ _345_ net8 VDD VSS INV_X1
X_356_ rd_ptr_gray_sync2\[2\] rd_ptr_bin_sync\[3\] _338_ VDD
+ VSS XNOR2_X2
X_357_ rd_ptr_gray_sync2\[1\] _338_ _326_ VDD VSS XNOR2_X2
X_358_ _326_ _335_ VDD VSS INV_X1
X_359_ _347_ net22 VDD VSS INV_X2
X_360_ _340_ _327_ net24 VDD VSS XNOR2_X2
X_361_ rd_ptr_bin_sync\[3\] wr_ptr_bin\[3\] _096_ VDD VSS
+ XOR2_X2
X_362_ _336_ _097_ VDD VSS INV_X1
X_363_ _337_ _098_ VDD VSS INV_X1
X_364_ _097_ _325_ _098_ _099_ VDD VSS OAI21_X1
X_365_ _339_ _099_ _340_ _100_ VDD VSS AOI21_X2
X_366_ _096_ _100_ _101_ VDD VSS XNOR2_X2
X_367_ _101_ net25 VDD VSS INV_X1
X_368_ wr_ptr_gray_sync2\[0\] rd_ptr_gray\[0\] _102_ VDD VSS
+ XNOR2_X2
X_369_ wr_ptr_gray_sync2\[2\] rd_ptr_gray\[2\] _103_ VDD VSS
+ XNOR2_X2
X_370_ wr_ptr_gray_sync2\[1\] rd_ptr_gray\[1\] _104_ VDD VSS
+ XNOR2_X2
X_371_ _091_ _102_ _103_ _104_ _105_ VDD VSS NAND4_X4
X_372_ _105_ net20 VDD VSS INV_X1
X_373_ rd_ptr_gray_sync2\[0\] wr_ptr_gray\[0\] _106_ VDD VSS
+ XNOR2_X2
X_374_ rd_ptr_gray_sync2\[2\] wr_ptr_gray\[2\] _107_ VDD VSS
+ XNOR2_X2
X_375_ rd_ptr_gray_sync2\[1\] wr_ptr_gray\[1\] _108_ VDD VSS
+ XNOR2_X2
X_376_ _096_ _106_ _107_ _108_ _109_ VDD VSS NAND4_X4
X_377_ _109_ net26 VDD VSS INV_X1
X_378_ wr_ptr_gray_sync2\[2\] wr_ptr_bin_sync\[3\] _330_ VDD
+ VSS XOR2_X2
X_379_ wr_ptr_gray_sync2\[1\] _330_ _320_ VDD VSS XOR2_X2
X_380_ rd_ptr_gray_sync2\[0\] _326_ _346_ VDD VSS XOR2_X2
X_381_ _344_ _319_ VDD VSS INV_X1
X_382_ wr_ptr_gray_sync2\[0\] _320_ _343_ VDD VSS XNOR2_X1
X_383_ wr_data[0] _110_ VDD VSS BUF_X2
X_384_ wr_ptr_bin\[2\] _111_ VDD VSS CLKBUF_X3
X_385_ wr_ptr_bin\[1\] _112_ VDD VSS BUF_X4
X_386_ wr_ptr_bin\[0\] _113_ VDD VSS CLKBUF_X3
X_387_ net5 _109_ _114_ VDD VSS NAND2_X2
X_388_ _114_ _115_ VDD VSS BUF_X8
X_389_ _111_ _112_ _113_ _115_ _116_ VDD VSS NOR4_X4
X_390_ mem\[0\]\[0\] _110_ _116_ _005_ VDD VSS MUX2_X1
X_391_ wr_data[1] _117_ VDD VSS CLKBUF_X2
X_392_ mem\[0\]\[1\] _117_ _116_ _006_ VDD VSS MUX2_X1
X_393_ wr_data[2] _118_ VDD VSS CLKBUF_X2
X_394_ mem\[0\]\[2\] _118_ _116_ _007_ VDD VSS MUX2_X1
X_395_ wr_data[3] _119_ VDD VSS CLKBUF_X2
X_396_ mem\[0\]\[3\] _119_ _116_ _008_ VDD VSS MUX2_X1
X_397_ wr_data[4] _120_ VDD VSS CLKBUF_X2
X_398_ mem\[0\]\[4\] _120_ _116_ _009_ VDD VSS MUX2_X1
X_399_ wr_data[5] _121_ VDD VSS CLKBUF_X2
X_400_ mem\[0\]\[5\] _121_ _116_ _010_ VDD VSS MUX2_X1
X_401_ wr_data[6] _122_ VDD VSS CLKBUF_X2
X_402_ mem\[0\]\[6\] _122_ _116_ _011_ VDD VSS MUX2_X1
X_403_ wr_data[7] _123_ VDD VSS CLKBUF_X2
X_404_ mem\[0\]\[7\] _123_ _116_ _012_ VDD VSS MUX2_X1
X_405_ _111_ _112_ _003_ _115_ _124_ VDD VSS NOR4_X4
X_406_ mem\[1\]\[0\] _110_ _124_ _013_ VDD VSS MUX2_X1
X_407_ mem\[1\]\[1\] _117_ _124_ _014_ VDD VSS MUX2_X1
X_408_ mem\[1\]\[2\] _118_ _124_ _015_ VDD VSS MUX2_X1
X_409_ mem\[1\]\[3\] _119_ _124_ _016_ VDD VSS MUX2_X1
X_410_ mem\[1\]\[4\] _120_ _124_ _017_ VDD VSS MUX2_X1
X_411_ mem\[1\]\[5\] _121_ _124_ _018_ VDD VSS MUX2_X1
X_412_ mem\[1\]\[6\] _122_ _124_ _019_ VDD VSS MUX2_X1
X_413_ mem\[1\]\[7\] _123_ _124_ _020_ VDD VSS MUX2_X1
X_414_ _112_ _125_ VDD VSS INV_X1
X_415_ _111_ _125_ _113_ _114_ _126_ VDD VSS OR4_X1
X_416_ _126_ _127_ VDD VSS BUF_X4
X_417_ _110_ mem\[2\]\[0\] _127_ _021_ VDD VSS MUX2_X1
X_418_ _117_ mem\[2\]\[1\] _127_ _022_ VDD VSS MUX2_X1
X_419_ _118_ mem\[2\]\[2\] _127_ _023_ VDD VSS MUX2_X1
X_420_ _119_ mem\[2\]\[3\] _127_ _024_ VDD VSS MUX2_X1
X_421_ _120_ mem\[2\]\[4\] _127_ _025_ VDD VSS MUX2_X1
X_422_ _121_ mem\[2\]\[5\] _127_ _026_ VDD VSS MUX2_X1
X_423_ _122_ mem\[2\]\[6\] _127_ _027_ VDD VSS MUX2_X1
X_424_ _123_ mem\[2\]\[7\] _127_ _028_ VDD VSS MUX2_X1
X_425_ _111_ _125_ _003_ _114_ _128_ VDD VSS OR4_X1
X_426_ _128_ _129_ VDD VSS CLKBUF_X3
X_427_ _110_ mem\[3\]\[0\] _129_ _029_ VDD VSS MUX2_X1
X_428_ _117_ mem\[3\]\[1\] _129_ _030_ VDD VSS MUX2_X1
X_429_ _118_ mem\[3\]\[2\] _129_ _031_ VDD VSS MUX2_X1
X_430_ _119_ mem\[3\]\[3\] _129_ _032_ VDD VSS MUX2_X1
X_431_ _120_ mem\[3\]\[4\] _129_ _033_ VDD VSS MUX2_X1
X_432_ _121_ mem\[3\]\[5\] _129_ _034_ VDD VSS MUX2_X1
X_433_ _122_ mem\[3\]\[6\] _129_ _035_ VDD VSS MUX2_X1
X_434_ _123_ mem\[3\]\[7\] _129_ _036_ VDD VSS MUX2_X1
X_435_ _111_ _130_ VDD VSS INV_X1
X_436_ _130_ _112_ _113_ _115_ _131_ VDD VSS NOR4_X4
X_437_ mem\[4\]\[0\] _110_ _131_ _037_ VDD VSS MUX2_X1
X_438_ mem\[4\]\[1\] _117_ _131_ _038_ VDD VSS MUX2_X1
X_439_ mem\[4\]\[2\] _118_ _131_ _039_ VDD VSS MUX2_X1
X_440_ mem\[4\]\[3\] _119_ _131_ _040_ VDD VSS MUX2_X1
X_441_ mem\[4\]\[4\] _120_ _131_ _041_ VDD VSS MUX2_X1
X_442_ mem\[4\]\[5\] _121_ _131_ _042_ VDD VSS MUX2_X1
X_443_ mem\[4\]\[6\] _122_ _131_ _043_ VDD VSS MUX2_X1
X_444_ mem\[4\]\[7\] _123_ _131_ _044_ VDD VSS MUX2_X1
X_445_ _130_ _112_ _003_ _114_ _132_ VDD VSS OR4_X1
X_446_ _132_ _133_ VDD VSS CLKBUF_X3
X_447_ _110_ mem\[5\]\[0\] _133_ _045_ VDD VSS MUX2_X1
X_448_ _117_ mem\[5\]\[1\] _133_ _046_ VDD VSS MUX2_X1
X_449_ _118_ mem\[5\]\[2\] _133_ _047_ VDD VSS MUX2_X1
X_450_ _119_ mem\[5\]\[3\] _133_ _048_ VDD VSS MUX2_X1
X_451_ _120_ mem\[5\]\[4\] _133_ _049_ VDD VSS MUX2_X1
X_452_ _121_ mem\[5\]\[5\] _133_ _050_ VDD VSS MUX2_X1
X_453_ _122_ mem\[5\]\[6\] _133_ _051_ VDD VSS MUX2_X1
X_454_ _123_ mem\[5\]\[7\] _133_ _052_ VDD VSS MUX2_X1
X_455_ _130_ _125_ _113_ _114_ _134_ VDD VSS OR4_X1
X_456_ _134_ _135_ VDD VSS BUF_X4
X_457_ _110_ mem\[6\]\[0\] _135_ _053_ VDD VSS MUX2_X1
X_458_ _117_ mem\[6\]\[1\] _135_ _054_ VDD VSS MUX2_X1
X_459_ _118_ mem\[6\]\[2\] _135_ _055_ VDD VSS MUX2_X1
X_460_ _119_ mem\[6\]\[3\] _135_ _056_ VDD VSS MUX2_X1
X_461_ _120_ mem\[6\]\[4\] _135_ _057_ VDD VSS MUX2_X1
X_462_ _121_ mem\[6\]\[5\] _135_ _058_ VDD VSS MUX2_X1
X_463_ _122_ mem\[6\]\[6\] _135_ _059_ VDD VSS MUX2_X1
X_464_ _123_ mem\[6\]\[7\] _135_ _060_ VDD VSS MUX2_X1
X_465_ _111_ _112_ _113_ _136_ VDD VSS NAND3_X1
X_466_ _115_ _136_ _137_ VDD VSS OR2_X1
X_467_ _137_ _138_ VDD VSS BUF_X4
X_468_ _110_ mem\[7\]\[0\] _138_ _061_ VDD VSS MUX2_X1
X_469_ _117_ mem\[7\]\[1\] _138_ _062_ VDD VSS MUX2_X1
X_470_ _118_ mem\[7\]\[2\] _138_ _063_ VDD VSS MUX2_X1
X_471_ _119_ mem\[7\]\[3\] _138_ _064_ VDD VSS MUX2_X1
X_472_ _120_ mem\[7\]\[4\] _138_ _065_ VDD VSS MUX2_X1
X_473_ _121_ mem\[7\]\[5\] _138_ _066_ VDD VSS MUX2_X1
X_474_ _122_ mem\[7\]\[6\] _138_ _067_ VDD VSS MUX2_X1
X_475_ _123_ mem\[7\]\[7\] _138_ _068_ VDD VSS MUX2_X1
X_476_ rd_ptr_bin\[2\] _139_ VDD VSS CLKBUF_X3
X_477_ _139_ _140_ VDD VSS BUF_X4
X_478_ mem\[3\]\[0\] mem\[7\]\[0\] _140_ _141_ VDD VSS MUX2_X1
X_479_ rd_ptr_bin\[0\] _142_ VDD VSS CLKBUF_X3
X_480_ rd_ptr_bin\[1\] _143_ VDD VSS CLKBUF_X3
X_481_ _142_ _143_ _144_ VDD VSS NAND2_X4
X_482_ _139_ _145_ VDD VSS BUF_X4
X_483_ mem\[1\]\[0\] mem\[5\]\[0\] _145_ _146_ VDD VSS MUX2_X1
X_484_ _143_ _147_ VDD VSS INV_X2
X_485_ _142_ _147_ _148_ VDD VSS NAND2_X4
X_486_ _141_ _144_ _146_ _148_ _149_ VDD VSS OAI22_X1
X_487_ mem\[2\]\[0\] mem\[6\]\[0\] _140_ _150_ VDD VSS MUX2_X1
X_488_ _142_ _151_ VDD VSS INV_X2
X_489_ _151_ _143_ _152_ VDD VSS NAND2_X4
X_490_ _139_ _153_ VDD VSS BUF_X4
X_491_ mem\[0\]\[0\] mem\[4\]\[0\] _153_ _154_ VDD VSS MUX2_X1
X_492_ _151_ _147_ _155_ VDD VSS NAND2_X4
X_493_ _150_ _152_ _154_ _155_ _156_ VDD VSS OAI22_X1
X_494_ _149_ _156_ _157_ VDD VSS NOR2_X1
X_495_ net2 _105_ _158_ VDD VSS NAND2_X2
X_496_ _158_ _159_ VDD VSS BUF_X4
X_497_ _157_ net12 _159_ _069_ VDD VSS MUX2_X1
X_498_ mem\[3\]\[1\] mem\[7\]\[1\] _140_ _160_ VDD VSS MUX2_X1
X_499_ mem\[1\]\[1\] mem\[5\]\[1\] _145_ _161_ VDD VSS MUX2_X1
X_500_ _144_ _160_ _161_ _148_ _162_ VDD VSS OAI22_X1
X_501_ mem\[2\]\[1\] mem\[6\]\[1\] _145_ _163_ VDD VSS MUX2_X1
X_502_ mem\[0\]\[1\] mem\[4\]\[1\] _153_ _164_ VDD VSS MUX2_X1
X_503_ _152_ _163_ _164_ _155_ _165_ VDD VSS OAI22_X2
X_504_ _162_ _165_ _166_ VDD VSS NOR2_X1
X_505_ _166_ net13 _159_ _070_ VDD VSS MUX2_X1
X_506_ mem\[3\]\[2\] mem\[7\]\[2\] _140_ _167_ VDD VSS MUX2_X1
X_507_ mem\[1\]\[2\] mem\[5\]\[2\] _145_ _168_ VDD VSS MUX2_X1
X_508_ _144_ _167_ _168_ _148_ _169_ VDD VSS OAI22_X1
X_509_ mem\[2\]\[2\] mem\[6\]\[2\] _145_ _170_ VDD VSS MUX2_X1
X_510_ mem\[0\]\[2\] mem\[4\]\[2\] _153_ _171_ VDD VSS MUX2_X1
X_511_ _152_ _170_ _171_ _155_ _172_ VDD VSS OAI22_X1
X_512_ _169_ _172_ _173_ VDD VSS NOR2_X1
X_513_ _173_ net14 _159_ _071_ VDD VSS MUX2_X1
X_514_ mem\[3\]\[3\] mem\[7\]\[3\] _140_ _174_ VDD VSS MUX2_X1
X_515_ mem\[1\]\[3\] mem\[5\]\[3\] _145_ _175_ VDD VSS MUX2_X1
X_516_ _144_ _174_ _175_ _148_ _176_ VDD VSS OAI22_X1
X_517_ mem\[2\]\[3\] mem\[6\]\[3\] _153_ _177_ VDD VSS MUX2_X1
X_518_ mem\[0\]\[3\] mem\[4\]\[3\] _153_ _178_ VDD VSS MUX2_X1
X_519_ _152_ _177_ _178_ _155_ _179_ VDD VSS OAI22_X1
X_520_ _176_ _179_ _180_ VDD VSS NOR2_X1
X_521_ _180_ net15 _159_ _072_ VDD VSS MUX2_X1
X_522_ mem\[3\]\[4\] mem\[7\]\[4\] _140_ _181_ VDD VSS MUX2_X1
X_523_ mem\[1\]\[4\] mem\[5\]\[4\] _145_ _182_ VDD VSS MUX2_X1
X_524_ _144_ _181_ _182_ _148_ _183_ VDD VSS OAI22_X1
X_525_ mem\[2\]\[4\] mem\[6\]\[4\] _153_ _184_ VDD VSS MUX2_X1
X_526_ mem\[0\]\[4\] mem\[4\]\[4\] _153_ _185_ VDD VSS MUX2_X1
X_527_ _152_ _184_ _185_ _155_ _186_ VDD VSS OAI22_X1
X_528_ _183_ _186_ _187_ VDD VSS NOR2_X1
X_529_ _187_ net16 _159_ _073_ VDD VSS MUX2_X1
X_530_ mem\[3\]\[5\] mem\[7\]\[5\] _140_ _188_ VDD VSS MUX2_X1
X_531_ mem\[1\]\[5\] mem\[5\]\[5\] _145_ _189_ VDD VSS MUX2_X1
X_532_ _144_ _188_ _189_ _148_ _190_ VDD VSS OAI22_X1
X_533_ mem\[2\]\[5\] mem\[6\]\[5\] _153_ _191_ VDD VSS MUX2_X1
X_534_ mem\[0\]\[5\] mem\[4\]\[5\] _139_ _192_ VDD VSS MUX2_X1
X_535_ _152_ _191_ _192_ _155_ _193_ VDD VSS OAI22_X1
X_536_ _190_ _193_ _194_ VDD VSS NOR2_X1
X_537_ _194_ net17 _159_ _074_ VDD VSS MUX2_X1
X_538_ mem\[3\]\[6\] mem\[7\]\[6\] _140_ _195_ VDD VSS MUX2_X1
X_539_ mem\[1\]\[6\] mem\[5\]\[6\] _145_ _196_ VDD VSS MUX2_X1
X_540_ _144_ _195_ _196_ _148_ _197_ VDD VSS OAI22_X1
X_541_ mem\[2\]\[6\] mem\[6\]\[6\] _153_ _198_ VDD VSS MUX2_X1
X_542_ mem\[0\]\[6\] mem\[4\]\[6\] _139_ _199_ VDD VSS MUX2_X1
X_543_ _152_ _198_ _199_ _155_ _200_ VDD VSS OAI22_X1
X_544_ _197_ _200_ _201_ VDD VSS NOR2_X1
X_545_ _201_ net18 _159_ _075_ VDD VSS MUX2_X1
X_546_ mem\[3\]\[7\] mem\[7\]\[7\] _140_ _202_ VDD VSS MUX2_X1
X_547_ mem\[1\]\[7\] mem\[5\]\[7\] _145_ _203_ VDD VSS MUX2_X1
X_548_ _144_ _202_ _203_ _148_ _204_ VDD VSS OAI22_X1
X_549_ mem\[2\]\[7\] mem\[6\]\[7\] _153_ _205_ VDD VSS MUX2_X1
X_550_ mem\[0\]\[7\] mem\[4\]\[7\] _139_ _206_ VDD VSS MUX2_X1
X_551_ _152_ _205_ _206_ _155_ _207_ VDD VSS OAI22_X1
X_552_ _204_ _207_ _208_ VDD VSS NOR2_X1
X_553_ _208_ net19 _159_ _076_ VDD VSS MUX2_X1
X_554_ _001_ _142_ _159_ _077_ VDD VSS MUX2_X1
X_555_ _002_ _143_ _159_ _078_ VDD VSS MUX2_X1
X_556_ _341_ _329_ _209_ VDD VSS XNOR2_X2
X_557_ _209_ _140_ _158_ _079_ VDD VSS MUX2_X1
X_558_ _142_ _002_ _210_ VDD VSS XNOR2_X1
X_559_ _210_ rd_ptr_gray\[0\] _158_ _080_ VDD VSS MUX2_X1
X_560_ _002_ _209_ _211_ VDD VSS XOR2_X1
X_561_ _211_ rd_ptr_gray\[1\] _158_ _081_ VDD VSS MUX2_X1
X_562_ _142_ _143_ _139_ _212_ VDD VSS NAND3_X1
X_563_ rd_ptr_bin\[3\] _212_ _213_ VDD VSS XOR2_X1
X_564_ _209_ _213_ _214_ VDD VSS XNOR2_X1
X_565_ _214_ rd_ptr_gray\[2\] _158_ _082_ VDD VSS MUX2_X1
X_566_ _158_ _212_ _215_ VDD VSS NOR2_X1
X_567_ rd_ptr_bin\[3\] _215_ _083_ VDD VSS XOR2_X1
X_568_ _003_ _113_ _115_ _084_ VDD VSS MUX2_X1
X_569_ _004_ _112_ _115_ _085_ VDD VSS MUX2_X1
X_570_ _342_ _000_ _216_ VDD VSS XNOR2_X2
X_571_ _216_ _111_ _115_ _086_ VDD VSS MUX2_X1
X_572_ _113_ _004_ _217_ VDD VSS XNOR2_X1
X_573_ _217_ wr_ptr_gray\[0\] _115_ _087_ VDD VSS MUX2_X1
X_574_ _004_ _216_ _218_ VDD VSS XOR2_X1
X_575_ _218_ wr_ptr_gray\[1\] _115_ _088_ VDD VSS MUX2_X1
X_576_ wr_ptr_bin\[3\] _216_ _219_ VDD VSS XOR2_X1
X_577_ _136_ _219_ _220_ VDD VSS XNOR2_X1
X_578_ _220_ wr_ptr_gray\[2\] _115_ _089_ VDD VSS MUX2_X1
X_579_ wr_ptr_bin\[3\] _138_ _090_ VDD VSS XNOR2_X1
X_580_ _323_ _345_ _221_ VDD VSS NOR2_X1
X_581_ net10 net11 _221_ net7 VDD VSS NOR3_X1
X_582_ _323_ net9 VDD VSS INV_X1
X_583_ _328_ net23 VDD VSS INV_X2
X_584_ net23 net24 _222_ VDD VSS NAND2_X1
X_585_ _101_ _222_ net21 VDD VSS NAND2_X1
X_586_ _319_ _320_ _321_ _322_ _323_ VDD VSS FA_X1
X_587_ _324_ _325_ _326_ _327_ _328_ VDD VSS FA_X1
X_588_ _329_ _330_ _331_ _332_ VDD VSS HA_X1
X_589_ _320_ _321_ _333_ _334_ VDD VSS HA_X1
X_590_ wr_ptr_bin\[1\] _335_ _336_ _337_ VDD VSS HA_X1
X_591_ wr_ptr_bin\[2\] _338_ _339_ _340_ VDD VSS HA_X1
X_592_ rd_ptr_bin\[0\] rd_ptr_bin\[1\] _341_ _002_ VDD VSS
+ HA_X1
X_593_ wr_ptr_bin\[0\] wr_ptr_bin\[1\] _342_ _004_ VDD VSS
+ HA_X1
X_594_ rd_ptr_bin\[0\] _343_ _344_ _345_ VDD VSS HA_X1
X_595_ _346_ _003_ _325_ _347_ VDD VSS HA_X1
Xmem\[0\]\[0\]$_DFFE_PP_ _005_ net4 mem\[0\]\[0\] _302_ VDD
+ VSS DFF_X1
Xmem\[0\]\[1\]$_DFFE_PP_ _006_ net4 mem\[0\]\[1\] _301_ VDD
+ VSS DFF_X1
Xmem\[0\]\[2\]$_DFFE_PP_ _007_ net4 mem\[0\]\[2\] _300_ VDD
+ VSS DFF_X1
Xmem\[0\]\[3\]$_DFFE_PP_ _008_ net4 mem\[0\]\[3\] _299_ VDD
+ VSS DFF_X1
Xmem\[0\]\[4\]$_DFFE_PP_ _009_ net4 mem\[0\]\[4\] _298_ VDD
+ VSS DFF_X1
Xmem\[0\]\[5\]$_DFFE_PP_ _010_ net4 mem\[0\]\[5\] _297_ VDD
+ VSS DFF_X1
Xmem\[0\]\[6\]$_DFFE_PP_ _011_ net4 mem\[0\]\[6\] _296_ VDD
+ VSS DFF_X1
Xmem\[0\]\[7\]$_DFFE_PP_ _012_ net4 mem\[0\]\[7\] _295_ VDD
+ VSS DFF_X1
Xmem\[1\]\[0\]$_DFFE_PP_ _013_ net4 mem\[1\]\[0\] _294_ VDD
+ VSS DFF_X1
Xmem\[1\]\[1\]$_DFFE_PP_ _014_ net4 mem\[1\]\[1\] _293_ VDD
+ VSS DFF_X1
Xmem\[1\]\[2\]$_DFFE_PP_ _015_ net4 mem\[1\]\[2\] _292_ VDD
+ VSS DFF_X1
Xmem\[1\]\[3\]$_DFFE_PP_ _016_ net4 mem\[1\]\[3\] _291_ VDD
+ VSS DFF_X1
Xmem\[1\]\[4\]$_DFFE_PP_ _017_ net4 mem\[1\]\[4\] _290_ VDD
+ VSS DFF_X1
Xmem\[1\]\[5\]$_DFFE_PP_ _018_ net4 mem\[1\]\[5\] _289_ VDD
+ VSS DFF_X1
Xmem\[1\]\[6\]$_DFFE_PP_ _019_ net4 mem\[1\]\[6\] _288_ VDD
+ VSS DFF_X1
Xmem\[1\]\[7\]$_DFFE_PP_ _020_ net4 mem\[1\]\[7\] _287_ VDD
+ VSS DFF_X1
Xmem\[2\]\[0\]$_DFFE_PP_ _021_ net4 mem\[2\]\[0\] _286_ VDD
+ VSS DFF_X1
Xmem\[2\]\[1\]$_DFFE_PP_ _022_ net4 mem\[2\]\[1\] _285_ VDD
+ VSS DFF_X1
Xmem\[2\]\[2\]$_DFFE_PP_ _023_ net4 mem\[2\]\[2\] _284_ VDD
+ VSS DFF_X1
Xmem\[2\]\[3\]$_DFFE_PP_ _024_ net4 mem\[2\]\[3\] _283_ VDD
+ VSS DFF_X1
Xmem\[2\]\[4\]$_DFFE_PP_ _025_ net4 mem\[2\]\[4\] _282_ VDD
+ VSS DFF_X1
Xmem\[2\]\[5\]$_DFFE_PP_ _026_ net4 mem\[2\]\[5\] _281_ VDD
+ VSS DFF_X1
Xmem\[2\]\[6\]$_DFFE_PP_ _027_ net4 mem\[2\]\[6\] _280_ VDD
+ VSS DFF_X1
Xmem\[2\]\[7\]$_DFFE_PP_ _028_ net4 mem\[2\]\[7\] _279_ VDD
+ VSS DFF_X1
Xmem\[3\]\[0\]$_DFFE_PP_ _029_ net4 mem\[3\]\[0\] _278_ VDD
+ VSS DFF_X1
Xmem\[3\]\[1\]$_DFFE_PP_ _030_ net4 mem\[3\]\[1\] _277_ VDD
+ VSS DFF_X1
Xmem\[3\]\[2\]$_DFFE_PP_ _031_ net4 mem\[3\]\[2\] _276_ VDD
+ VSS DFF_X1
Xmem\[3\]\[3\]$_DFFE_PP_ _032_ net4 mem\[3\]\[3\] _275_ VDD
+ VSS DFF_X1
Xmem\[3\]\[4\]$_DFFE_PP_ _033_ net4 mem\[3\]\[4\] _274_ VDD
+ VSS DFF_X1
Xmem\[3\]\[5\]$_DFFE_PP_ _034_ net4 mem\[3\]\[5\] _273_ VDD
+ VSS DFF_X1
Xmem\[3\]\[6\]$_DFFE_PP_ _035_ net4 mem\[3\]\[6\] _272_ VDD
+ VSS DFF_X1
Xmem\[3\]\[7\]$_DFFE_PP_ _036_ net4 mem\[3\]\[7\] _271_ VDD
+ VSS DFF_X1
Xmem\[4\]\[0\]$_DFFE_PP_ _037_ net4 mem\[4\]\[0\] _270_ VDD
+ VSS DFF_X1
Xmem\[4\]\[1\]$_DFFE_PP_ _038_ net4 mem\[4\]\[1\] _269_ VDD
+ VSS DFF_X1
Xmem\[4\]\[2\]$_DFFE_PP_ _039_ net4 mem\[4\]\[2\] _268_ VDD
+ VSS DFF_X1
Xmem\[4\]\[3\]$_DFFE_PP_ _040_ net4 mem\[4\]\[3\] _267_ VDD
+ VSS DFF_X1
Xmem\[4\]\[4\]$_DFFE_PP_ _041_ net4 mem\[4\]\[4\] _266_ VDD
+ VSS DFF_X1
Xmem\[4\]\[5\]$_DFFE_PP_ _042_ net4 mem\[4\]\[5\] _265_ VDD
+ VSS DFF_X1
Xmem\[4\]\[6\]$_DFFE_PP_ _043_ net4 mem\[4\]\[6\] _264_ VDD
+ VSS DFF_X1
Xmem\[4\]\[7\]$_DFFE_PP_ _044_ net4 mem\[4\]\[7\] _263_ VDD
+ VSS DFF_X1
Xmem\[5\]\[0\]$_DFFE_PP_ _045_ net4 mem\[5\]\[0\] _262_ VDD
+ VSS DFF_X1
Xmem\[5\]\[1\]$_DFFE_PP_ _046_ net4 mem\[5\]\[1\] _261_ VDD
+ VSS DFF_X1
Xmem\[5\]\[2\]$_DFFE_PP_ _047_ net4 mem\[5\]\[2\] _260_ VDD
+ VSS DFF_X1
Xmem\[5\]\[3\]$_DFFE_PP_ _048_ net4 mem\[5\]\[3\] _259_ VDD
+ VSS DFF_X1
Xmem\[5\]\[4\]$_DFFE_PP_ _049_ net4 mem\[5\]\[4\] _258_ VDD
+ VSS DFF_X1
Xmem\[5\]\[5\]$_DFFE_PP_ _050_ net4 mem\[5\]\[5\] _257_ VDD
+ VSS DFF_X1
Xmem\[5\]\[6\]$_DFFE_PP_ _051_ net4 mem\[5\]\[6\] _256_ VDD
+ VSS DFF_X1
Xmem\[5\]\[7\]$_DFFE_PP_ _052_ net4 mem\[5\]\[7\] _255_ VDD
+ VSS DFF_X1
Xmem\[6\]\[0\]$_DFFE_PP_ _053_ net4 mem\[6\]\[0\] _254_ VDD
+ VSS DFF_X1
Xmem\[6\]\[1\]$_DFFE_PP_ _054_ net4 mem\[6\]\[1\] _253_ VDD
+ VSS DFF_X1
Xmem\[6\]\[2\]$_DFFE_PP_ _055_ net4 mem\[6\]\[2\] _252_ VDD
+ VSS DFF_X1
Xmem\[6\]\[3\]$_DFFE_PP_ _056_ net4 mem\[6\]\[3\] _251_ VDD
+ VSS DFF_X1
Xmem\[6\]\[4\]$_DFFE_PP_ _057_ net4 mem\[6\]\[4\] _250_ VDD
+ VSS DFF_X1
Xmem\[6\]\[5\]$_DFFE_PP_ _058_ net4 mem\[6\]\[5\] _249_ VDD
+ VSS DFF_X1
Xmem\[6\]\[6\]$_DFFE_PP_ _059_ net4 mem\[6\]\[6\] _248_ VDD
+ VSS DFF_X1
Xmem\[6\]\[7\]$_DFFE_PP_ _060_ net4 mem\[6\]\[7\] _247_ VDD
+ VSS DFF_X1
Xmem\[7\]\[0\]$_DFFE_PP_ _061_ net4 mem\[7\]\[0\] _246_ VDD
+ VSS DFF_X1
Xmem\[7\]\[1\]$_DFFE_PP_ _062_ net4 mem\[7\]\[1\] _245_ VDD
+ VSS DFF_X1
Xmem\[7\]\[2\]$_DFFE_PP_ _063_ net4 mem\[7\]\[2\] _244_ VDD
+ VSS DFF_X1
Xmem\[7\]\[3\]$_DFFE_PP_ _064_ net4 mem\[7\]\[3\] _243_ VDD
+ VSS DFF_X1
Xmem\[7\]\[4\]$_DFFE_PP_ _065_ net4 mem\[7\]\[4\] _242_ VDD
+ VSS DFF_X1
Xmem\[7\]\[5\]$_DFFE_PP_ _066_ net4 mem\[7\]\[5\] _241_ VDD
+ VSS DFF_X1
Xmem\[7\]\[6\]$_DFFE_PP_ _067_ net4 mem\[7\]\[6\] _240_ VDD
+ VSS DFF_X1
Xmem\[7\]\[7\]$_DFFE_PP_ _068_ net4 mem\[7\]\[7\] _239_ VDD
+ VSS DFF_X1
Xrd_data_reg\[0\]$_DFFE_PN0P_ _069_ net3 net1 net12 _238_
+ VDD VSS DFFR_X2
Xrd_data_reg\[1\]$_DFFE_PN0P_ _070_ net3 net1 net13 _237_
+ VDD VSS DFFR_X2
Xrd_data_reg\[2\]$_DFFE_PN0P_ _071_ net3 net1 net14 _236_
+ VDD VSS DFFR_X2
Xrd_data_reg\[3\]$_DFFE_PN0P_ _072_ net3 net1 net15 _235_
+ VDD VSS DFFR_X2
Xrd_data_reg\[4\]$_DFFE_PN0P_ _073_ net3 net1 net16 _234_
+ VDD VSS DFFR_X2
Xrd_data_reg\[5\]$_DFFE_PN0P_ _074_ net3 net1 net17 _233_
+ VDD VSS DFFR_X2
Xrd_data_reg\[6\]$_DFFE_PN0P_ _075_ net3 net1 net18 _232_
+ VDD VSS DFFR_X2
Xrd_data_reg\[7\]$_DFFE_PN0P_ _076_ net3 net1 net19 _231_
+ VDD VSS DFFR_X2
Xrd_ptr_bin\[0\]$_DFFE_PN0P_ _077_ net3 net1 rd_ptr_bin\[0\]
+ _001_ VDD VSS DFFR_X1
Xrd_ptr_bin\[1\]$_DFFE_PN0P_ _078_ net3 net1 rd_ptr_bin\[1\]
+ _321_ VDD VSS DFFR_X1
Xrd_ptr_bin\[2\]$_DFFE_PN0P_ _079_ net3 net1 rd_ptr_bin\[2\]
+ _329_ VDD VSS DFFR_X1
Xrd_ptr_gray\[0\]$_DFFE_PN0P_ _080_ net3 net1 rd_ptr_gray\[0\]
+ _230_ VDD VSS DFFR_X2
Xrd_ptr_gray\[1\]$_DFFE_PN0P_ _081_ net3 net1 rd_ptr_gray\[1\]
+ _229_ VDD VSS DFFR_X1
Xrd_ptr_gray\[2\]$_DFFE_PN0P_ _082_ net3 net1 rd_ptr_gray\[2\]
+ _228_ VDD VSS DFFR_X1
Xrd_ptr_gray\[3\]$_DFFE_PN0P_ _083_ net3 net1 rd_ptr_bin\[3\]
+ _303_ VDD VSS DFFR_X2
Xrd_ptr_gray_sync1\[0\]$_DFF_PN0_ rd_ptr_gray\[0\] net6 net4
+ rd_ptr_gray_sync1\[0\] _304_ VDD VSS DFFR_X1
Xrd_ptr_gray_sync1\[1\]$_DFF_PN0_ rd_ptr_gray\[1\] net6 net4
+ rd_ptr_gray_sync1\[1\] _305_ VDD VSS DFFR_X1
Xrd_ptr_gray_sync1\[2\]$_DFF_PN0_ rd_ptr_gray\[2\] net6 net4
+ rd_ptr_gray_sync1\[2\] _306_ VDD VSS DFFR_X1
Xrd_ptr_gray_sync1\[3\]$_DFF_PN0_ rd_ptr_bin\[3\] net6 net4
+ rd_ptr_gray_sync1\[3\] _307_ VDD VSS DFFR_X1
Xrd_ptr_gray_sync2\[0\]$_DFF_PN0_ rd_ptr_gray_sync1\[0\] net6
+ net4 rd_ptr_gray_sync2\[0\] _308_ VDD VSS DFFR_X2
Xrd_ptr_gray_sync2\[1\]$_DFF_PN0_ rd_ptr_gray_sync1\[1\] net6
+ net4 rd_ptr_gray_sync2\[1\] _309_ VDD VSS DFFR_X2
Xrd_ptr_gray_sync2\[2\]$_DFF_PN0_ rd_ptr_gray_sync1\[2\] net6
+ net4 rd_ptr_gray_sync2\[2\] _310_ VDD VSS DFFR_X2
Xrd_ptr_gray_sync2\[3\]$_DFF_PN0_ rd_ptr_gray_sync1\[3\] net6
+ net4 rd_ptr_bin_sync\[3\] _227_ VDD VSS DFFR_X2
Xwr_ptr_bin\[0\]$_DFFE_PN0P_ _084_ net6 net4 wr_ptr_bin\[0\]
+ _003_ VDD VSS DFFR_X2
Xwr_ptr_bin\[1\]$_DFFE_PN0P_ _085_ net6 net4 wr_ptr_bin\[1\]
+ _324_ VDD VSS DFFR_X2
Xwr_ptr_bin\[2\]$_DFFE_PN0P_ _086_ net6 net4 wr_ptr_bin\[2\]
+ _000_ VDD VSS DFFR_X1
Xwr_ptr_gray\[0\]$_DFFE_PN0P_ _087_ net6 net4 wr_ptr_gray\[0\]
+ _226_ VDD VSS DFFR_X1
Xwr_ptr_gray\[1\]$_DFFE_PN0P_ _088_ net6 net4 wr_ptr_gray\[1\]
+ _225_ VDD VSS DFFR_X2
Xwr_ptr_gray\[2\]$_DFFE_PN0P_ _089_ net6 net4 wr_ptr_gray\[2\]
+ _224_ VDD VSS DFFR_X1
Xwr_ptr_gray\[3\]$_DFFE_PN0P_ _090_ net6 net4 wr_ptr_bin\[3\]
+ _311_ VDD VSS DFFR_X2
Xwr_ptr_gray_sync1\[0\]$_DFF_PN0_ wr_ptr_gray\[0\] net3 net1
+ wr_ptr_gray_sync1\[0\] _312_ VDD VSS DFFR_X1
Xwr_ptr_gray_sync1\[1\]$_DFF_PN0_ wr_ptr_gray\[1\] net3 net1
+ wr_ptr_gray_sync1\[1\] _313_ VDD VSS DFFR_X1
Xwr_ptr_gray_sync1\[2\]$_DFF_PN0_ wr_ptr_gray\[2\] net3 net1
+ wr_ptr_gray_sync1\[2\] _314_ VDD VSS DFFR_X1
Xwr_ptr_gray_sync1\[3\]$_DFF_PN0_ wr_ptr_bin\[3\] net3 net1
+ wr_ptr_gray_sync1\[3\] _315_ VDD VSS DFFR_X1
Xwr_ptr_gray_sync2\[0\]$_DFF_PN0_ wr_ptr_gray_sync1\[0\] net3
+ net1 wr_ptr_gray_sync2\[0\] _316_ VDD VSS DFFR_X1
Xwr_ptr_gray_sync2\[1\]$_DFF_PN0_ wr_ptr_gray_sync1\[1\] net3
+ net1 wr_ptr_gray_sync2\[1\] _317_ VDD VSS DFFR_X2
Xwr_ptr_gray_sync2\[2\]$_DFF_PN0_ wr_ptr_gray_sync1\[2\] net3
+ net1 wr_ptr_gray_sync2\[2\] _318_ VDD VSS DFFR_X2
Xwr_ptr_gray_sync2\[3\]$_DFF_PN0_ wr_ptr_gray_sync1\[3\] net3
+ net1 wr_ptr_bin_sync\[3\] _223_ VDD VSS DFFR_X1
XPHY_EDGE_ROW_0_Right_0 VDD VSS TAPCELL_X1
XPHY_EDGE_ROW_1_Right_1 VDD VSS TAPCELL_X1
XPHY_EDGE_ROW_2_Right_2 VDD VSS TAPCELL_X1
XPHY_EDGE_ROW_3_Right_3 VDD VSS TAPCELL_X1
XPHY_EDGE_ROW_4_Right_4 VDD VSS TAPCELL_X1
XPHY_EDGE_ROW_5_Right_5 VDD VSS TAPCELL_X1
XPHY_EDGE_ROW_6_Right_6 VDD VSS TAPCELL_X1
XPHY_EDGE_ROW_7_Right_7 VDD VSS TAPCELL_X1
XPHY_EDGE_ROW_8_Right_8 VDD VSS TAPCELL_X1
XPHY_EDGE_ROW_9_Right_9 VDD VSS TAPCELL_X1
XPHY_EDGE_ROW_10_Right_10 VDD VSS TAPCELL_X1
XPHY_EDGE_ROW_11_Right_11 VDD VSS TAPCELL_X1
XPHY_EDGE_ROW_12_Right_12 VDD VSS TAPCELL_X1
XPHY_EDGE_ROW_13_Right_13 VDD VSS TAPCELL_X1
XPHY_EDGE_ROW_14_Right_14 VDD VSS TAPCELL_X1
XPHY_EDGE_ROW_15_Right_15 VDD VSS TAPCELL_X1
XPHY_EDGE_ROW_16_Right_16 VDD VSS TAPCELL_X1
XPHY_EDGE_ROW_17_Right_17 VDD VSS TAPCELL_X1
XPHY_EDGE_ROW_18_Right_18 VDD VSS TAPCELL_X1
XPHY_EDGE_ROW_19_Right_19 VDD VSS TAPCELL_X1
XPHY_EDGE_ROW_20_Right_20 VDD VSS TAPCELL_X1
XPHY_EDGE_ROW_21_Right_21 VDD VSS TAPCELL_X1
XPHY_EDGE_ROW_22_Right_22 VDD VSS TAPCELL_X1
XPHY_EDGE_ROW_23_Right_23 VDD VSS TAPCELL_X1
XPHY_EDGE_ROW_24_Right_24 VDD VSS TAPCELL_X1
XPHY_EDGE_ROW_25_Right_25 VDD VSS TAPCELL_X1
XPHY_EDGE_ROW_26_Right_26 VDD VSS TAPCELL_X1
XPHY_EDGE_ROW_27_Right_27 VDD VSS TAPCELL_X1
XPHY_EDGE_ROW_28_Right_28 VDD VSS TAPCELL_X1
XPHY_EDGE_ROW_29_Right_29 VDD VSS TAPCELL_X1
XPHY_EDGE_ROW_30_Right_30 VDD VSS TAPCELL_X1
XPHY_EDGE_ROW_31_Right_31 VDD VSS TAPCELL_X1
XPHY_EDGE_ROW_32_Right_32 VDD VSS TAPCELL_X1
XPHY_EDGE_ROW_33_Right_33 VDD VSS TAPCELL_X1
XPHY_EDGE_ROW_34_Right_34 VDD VSS TAPCELL_X1
XPHY_EDGE_ROW_35_Right_35 VDD VSS TAPCELL_X1
XPHY_EDGE_ROW_36_Right_36 VDD VSS TAPCELL_X1
XPHY_EDGE_ROW_37_Right_37 VDD VSS TAPCELL_X1
XPHY_EDGE_ROW_38_Right_38 VDD VSS TAPCELL_X1
XPHY_EDGE_ROW_39_Right_39 VDD VSS TAPCELL_X1
XPHY_EDGE_ROW_40_Right_40 VDD VSS TAPCELL_X1
XPHY_EDGE_ROW_41_Right_41 VDD VSS TAPCELL_X1
XPHY_EDGE_ROW_42_Right_42 VDD VSS TAPCELL_X1
XPHY_EDGE_ROW_43_Right_43 VDD VSS TAPCELL_X1
XPHY_EDGE_ROW_44_Right_44 VDD VSS TAPCELL_X1
XPHY_EDGE_ROW_45_Right_45 VDD VSS TAPCELL_X1
XPHY_EDGE_ROW_46_Right_46 VDD VSS TAPCELL_X1
XPHY_EDGE_ROW_47_Right_47 VDD VSS TAPCELL_X1
XPHY_EDGE_ROW_48_Right_48 VDD VSS TAPCELL_X1
XPHY_EDGE_ROW_49_Right_49 VDD VSS TAPCELL_X1
XPHY_EDGE_ROW_50_Right_50 VDD VSS TAPCELL_X1
XPHY_EDGE_ROW_51_Right_51 VDD VSS TAPCELL_X1
XPHY_EDGE_ROW_52_Right_52 VDD VSS TAPCELL_X1
XPHY_EDGE_ROW_53_Right_53 VDD VSS TAPCELL_X1
XPHY_EDGE_ROW_54_Right_54 VDD VSS TAPCELL_X1
XPHY_EDGE_ROW_55_Right_55 VDD VSS TAPCELL_X1
XPHY_EDGE_ROW_56_Right_56 VDD VSS TAPCELL_X1
XPHY_EDGE_ROW_57_Right_57 VDD VSS TAPCELL_X1
XPHY_EDGE_ROW_58_Right_58 VDD VSS TAPCELL_X1
XPHY_EDGE_ROW_59_Right_59 VDD VSS TAPCELL_X1
XPHY_EDGE_ROW_60_Right_60 VDD VSS TAPCELL_X1
XPHY_EDGE_ROW_61_Right_61 VDD VSS TAPCELL_X1
XPHY_EDGE_ROW_62_Right_62 VDD VSS TAPCELL_X1
XPHY_EDGE_ROW_63_Right_63 VDD VSS TAPCELL_X1
XPHY_EDGE_ROW_64_Right_64 VDD VSS TAPCELL_X1
XPHY_EDGE_ROW_65_Right_65 VDD VSS TAPCELL_X1
XPHY_EDGE_ROW_66_Right_66 VDD VSS TAPCELL_X1
XPHY_EDGE_ROW_67_Right_67 VDD VSS TAPCELL_X1
XPHY_EDGE_ROW_68_Right_68 VDD VSS TAPCELL_X1
XPHY_EDGE_ROW_69_Right_69 VDD VSS TAPCELL_X1
XPHY_EDGE_ROW_70_Right_70 VDD VSS TAPCELL_X1
XPHY_EDGE_ROW_71_Right_71 VDD VSS TAPCELL_X1
XPHY_EDGE_ROW_72_Right_72 VDD VSS TAPCELL_X1
XPHY_EDGE_ROW_73_Right_73 VDD VSS TAPCELL_X1
XPHY_EDGE_ROW_74_Right_74 VDD VSS TAPCELL_X1
XPHY_EDGE_ROW_75_Right_75 VDD VSS TAPCELL_X1
XPHY_EDGE_ROW_76_Right_76 VDD VSS TAPCELL_X1
XPHY_EDGE_ROW_77_Right_77 VDD VSS TAPCELL_X1
XPHY_EDGE_ROW_78_Right_78 VDD VSS TAPCELL_X1
XPHY_EDGE_ROW_79_Right_79 VDD VSS TAPCELL_X1
XPHY_EDGE_ROW_80_Right_80 VDD VSS TAPCELL_X1
XPHY_EDGE_ROW_81_Right_81 VDD VSS TAPCELL_X1
XPHY_EDGE_ROW_82_Right_82 VDD VSS TAPCELL_X1
XPHY_EDGE_ROW_83_Right_83 VDD VSS TAPCELL_X1
XPHY_EDGE_ROW_84_Right_84 VDD VSS TAPCELL_X1
XPHY_EDGE_ROW_85_Right_85 VDD VSS TAPCELL_X1
XPHY_EDGE_ROW_86_Right_86 VDD VSS TAPCELL_X1
XPHY_EDGE_ROW_87_Right_87 VDD VSS TAPCELL_X1
XPHY_EDGE_ROW_88_Right_88 VDD VSS TAPCELL_X1
XPHY_EDGE_ROW_89_Right_89 VDD VSS TAPCELL_X1
XPHY_EDGE_ROW_90_Right_90 VDD VSS TAPCELL_X1
XPHY_EDGE_ROW_91_Right_91 VDD VSS TAPCELL_X1
XPHY_EDGE_ROW_92_Right_92 VDD VSS TAPCELL_X1
XPHY_EDGE_ROW_93_Right_93 VDD VSS TAPCELL_X1
XPHY_EDGE_ROW_94_Right_94 VDD VSS TAPCELL_X1
XPHY_EDGE_ROW_95_Right_95 VDD VSS TAPCELL_X1
XPHY_EDGE_ROW_96_Right_96 VDD VSS TAPCELL_X1
XPHY_EDGE_ROW_97_Right_97 VDD VSS TAPCELL_X1
XPHY_EDGE_ROW_98_Right_98 VDD VSS TAPCELL_X1
XPHY_EDGE_ROW_99_Right_99 VDD VSS TAPCELL_X1
XPHY_EDGE_ROW_100_Right_100 VDD VSS TAPCELL_X1
XPHY_EDGE_ROW_101_Right_101 VDD VSS TAPCELL_X1
XPHY_EDGE_ROW_102_Right_102 VDD VSS TAPCELL_X1
XPHY_EDGE_ROW_103_Right_103 VDD VSS TAPCELL_X1
XPHY_EDGE_ROW_104_Right_104 VDD VSS TAPCELL_X1
XPHY_EDGE_ROW_105_Right_105 VDD VSS TAPCELL_X1
XPHY_EDGE_ROW_106_Right_106 VDD VSS TAPCELL_X1
XPHY_EDGE_ROW_107_Right_107 VDD VSS TAPCELL_X1
XPHY_EDGE_ROW_108_Right_108 VDD VSS TAPCELL_X1
XPHY_EDGE_ROW_109_Right_109 VDD VSS TAPCELL_X1
XPHY_EDGE_ROW_110_Right_110 VDD VSS TAPCELL_X1
XPHY_EDGE_ROW_111_Right_111 VDD VSS TAPCELL_X1
XPHY_EDGE_ROW_112_Right_112 VDD VSS TAPCELL_X1
XPHY_EDGE_ROW_113_Right_113 VDD VSS TAPCELL_X1
XPHY_EDGE_ROW_114_Right_114 VDD VSS TAPCELL_X1
XPHY_EDGE_ROW_115_Right_115 VDD VSS TAPCELL_X1
XPHY_EDGE_ROW_116_Right_116 VDD VSS TAPCELL_X1
XPHY_EDGE_ROW_117_Right_117 VDD VSS TAPCELL_X1
XPHY_EDGE_ROW_118_Right_118 VDD VSS TAPCELL_X1
XPHY_EDGE_ROW_119_Right_119 VDD VSS TAPCELL_X1
XPHY_EDGE_ROW_120_Right_120 VDD VSS TAPCELL_X1
XPHY_EDGE_ROW_121_Right_121 VDD VSS TAPCELL_X1
XPHY_EDGE_ROW_122_Right_122 VDD VSS TAPCELL_X1
XPHY_EDGE_ROW_123_Right_123 VDD VSS TAPCELL_X1
XPHY_EDGE_ROW_124_Right_124 VDD VSS TAPCELL_X1
XPHY_EDGE_ROW_125_Right_125 VDD VSS TAPCELL_X1
XPHY_EDGE_ROW_126_Right_126 VDD VSS TAPCELL_X1
XPHY_EDGE_ROW_127_Right_127 VDD VSS TAPCELL_X1
XPHY_EDGE_ROW_128_Right_128 VDD VSS TAPCELL_X1
XPHY_EDGE_ROW_129_Right_129 VDD VSS TAPCELL_X1
XPHY_EDGE_ROW_130_Right_130 VDD VSS TAPCELL_X1
XPHY_EDGE_ROW_131_Right_131 VDD VSS TAPCELL_X1
XPHY_EDGE_ROW_132_Right_132 VDD VSS TAPCELL_X1
XPHY_EDGE_ROW_133_Right_133 VDD VSS TAPCELL_X1
XPHY_EDGE_ROW_134_Right_134 VDD VSS TAPCELL_X1
XPHY_EDGE_ROW_135_Right_135 VDD VSS TAPCELL_X1
XPHY_EDGE_ROW_136_Right_136 VDD VSS TAPCELL_X1
XPHY_EDGE_ROW_137_Right_137 VDD VSS TAPCELL_X1
XPHY_EDGE_ROW_138_Right_138 VDD VSS TAPCELL_X1
XPHY_EDGE_ROW_139_Right_139 VDD VSS TAPCELL_X1
XPHY_EDGE_ROW_140_Right_140 VDD VSS TAPCELL_X1
XPHY_EDGE_ROW_141_Right_141 VDD VSS TAPCELL_X1
XPHY_EDGE_ROW_142_Right_142 VDD VSS TAPCELL_X1
XPHY_EDGE_ROW_143_Right_143 VDD VSS TAPCELL_X1
XPHY_EDGE_ROW_144_Right_144 VDD VSS TAPCELL_X1
XPHY_EDGE_ROW_145_Right_145 VDD VSS TAPCELL_X1
XPHY_EDGE_ROW_146_Right_146 VDD VSS TAPCELL_X1
XPHY_EDGE_ROW_147_Right_147 VDD VSS TAPCELL_X1
XPHY_EDGE_ROW_148_Right_148 VDD VSS TAPCELL_X1
XPHY_EDGE_ROW_149_Right_149 VDD VSS TAPCELL_X1
XPHY_EDGE_ROW_150_Right_150 VDD VSS TAPCELL_X1
XPHY_EDGE_ROW_151_Right_151 VDD VSS TAPCELL_X1
XPHY_EDGE_ROW_152_Right_152 VDD VSS TAPCELL_X1
XPHY_EDGE_ROW_153_Right_153 VDD VSS TAPCELL_X1
XPHY_EDGE_ROW_154_Right_154 VDD VSS TAPCELL_X1
XPHY_EDGE_ROW_155_Right_155 VDD VSS TAPCELL_X1
XPHY_EDGE_ROW_156_Right_156 VDD VSS TAPCELL_X1
XPHY_EDGE_ROW_157_Right_157 VDD VSS TAPCELL_X1
XPHY_EDGE_ROW_158_Right_158 VDD VSS TAPCELL_X1
XPHY_EDGE_ROW_159_Right_159 VDD VSS TAPCELL_X1
XPHY_EDGE_ROW_160_Right_160 VDD VSS TAPCELL_X1
XPHY_EDGE_ROW_161_Right_161 VDD VSS TAPCELL_X1
XPHY_EDGE_ROW_162_Right_162 VDD VSS TAPCELL_X1
XPHY_EDGE_ROW_163_Right_163 VDD VSS TAPCELL_X1
XPHY_EDGE_ROW_164_Right_164 VDD VSS TAPCELL_X1
XPHY_EDGE_ROW_165_Right_165 VDD VSS TAPCELL_X1
XPHY_EDGE_ROW_166_Right_166 VDD VSS TAPCELL_X1
XPHY_EDGE_ROW_167_Right_167 VDD VSS TAPCELL_X1
XPHY_EDGE_ROW_168_Right_168 VDD VSS TAPCELL_X1
XPHY_EDGE_ROW_169_Right_169 VDD VSS TAPCELL_X1
XPHY_EDGE_ROW_170_Right_170 VDD VSS TAPCELL_X1
XPHY_EDGE_ROW_171_Right_171 VDD VSS TAPCELL_X1
XPHY_EDGE_ROW_172_Right_172 VDD VSS TAPCELL_X1
XPHY_EDGE_ROW_173_Right_173 VDD VSS TAPCELL_X1
XPHY_EDGE_ROW_174_Right_174 VDD VSS TAPCELL_X1
XPHY_EDGE_ROW_175_Right_175 VDD VSS TAPCELL_X1
XPHY_EDGE_ROW_176_Right_176 VDD VSS TAPCELL_X1
XPHY_EDGE_ROW_177_Right_177 VDD VSS TAPCELL_X1
XPHY_EDGE_ROW_178_Right_178 VDD VSS TAPCELL_X1
XPHY_EDGE_ROW_179_Right_179 VDD VSS TAPCELL_X1
XPHY_EDGE_ROW_180_Right_180 VDD VSS TAPCELL_X1
XPHY_EDGE_ROW_181_Right_181 VDD VSS TAPCELL_X1
XPHY_EDGE_ROW_182_Right_182 VDD VSS TAPCELL_X1
XPHY_EDGE_ROW_183_Right_183 VDD VSS TAPCELL_X1
XPHY_EDGE_ROW_184_Right_184 VDD VSS TAPCELL_X1
XPHY_EDGE_ROW_185_Right_185 VDD VSS TAPCELL_X1