
* cell async_fifo
* pin wr_data[0]
* pin wr_data[3]
* pin rd_data[4]
* pin rd_data[5]
* pin wr_en
* pin VSS
* pin VDD
* pin wr_count[2]
* pin full
* pin wr_count[3]
* pin wr_count[1]
* pin wr_count[0]
* pin almost_full
* pin wr_count[4]
* pin wr_rst_n
* pin pointer_wraparound_flag
* pin rd_rst_n
* pin rd_data[3]
* pin rd_clk
* pin sync_error_flag
* pin rd_data[6]
* pin rd_data[7]
* pin rd_data[0]
* pin rd_data[2]
* pin rd_data[1]
* pin wr_data[1]
* pin wr_data[2]
* pin almost_empty
* pin rd_count[0]
* pin rd_count[4]
* pin rd_count[3]
* pin rd_count[2]
* pin rd_count[1]
* pin wr_data[4]
* pin empty
* pin wr_data[5]
* pin wr_clk
* pin wr_data[7]
* pin wr_data[6]
* pin rd_en
.SUBCKT async_fifo 1 2 3 4 5 6 10 61 62 72 88 89 106 107 129 148 266 274 280
+ 293 303 304 305 306 332 366 422 476 486 487 503 504 514 518 535 544 547 549
+ 550 551
* net 1 wr_data[0]
* net 2 wr_data[3]
* net 3 rd_data[4]
* net 4 rd_data[5]
* net 5 wr_en
* net 6 VSS
* net 10 VDD
* net 61 wr_count[2]
* net 62 full
* net 72 wr_count[3]
* net 88 wr_count[1]
* net 89 wr_count[0]
* net 106 almost_full
* net 107 wr_count[4]
* net 129 wr_rst_n
* net 148 pointer_wraparound_flag
* net 266 rd_rst_n
* net 274 rd_data[3]
* net 280 rd_clk
* net 293 sync_error_flag
* net 303 rd_data[6]
* net 304 rd_data[7]
* net 305 rd_data[0]
* net 306 rd_data[2]
* net 332 rd_data[1]
* net 366 wr_data[1]
* net 422 wr_data[2]
* net 476 almost_empty
* net 486 rd_count[0]
* net 487 rd_count[4]
* net 503 rd_count[3]
* net 504 rd_count[2]
* net 514 rd_count[1]
* net 518 wr_data[4]
* net 535 empty
* net 544 wr_data[5]
* net 547 wr_clk
* net 549 wr_data[7]
* net 550 wr_data[6]
* net 551 rd_en
* cell instance $3 r0 *1 24.38,2.72
X$3 10 1 6 10 8 6 sky130_fd_sc_hd__clkdlybuf4s50_1
* cell instance $6 r0 *1 34.04,2.72
X$6 10 2 6 10 7 6 sky130_fd_sc_hd__clkdlybuf4s50_1
* cell instance $9 m0 *1 62.56,8.16
X$9 10 13 6 10 3 6 sky130_fd_sc_hd__clkdlybuf4s50_1
* cell instance $12 m0 *1 57.96,8.16
X$12 10 14 6 10 4 6 sky130_fd_sc_hd__clkdlybuf4s50_1
* cell instance $15 r0 *1 107.18,13.6
X$15 10 5 6 10 37 6 sky130_fd_sc_hd__clkdlybuf4s50_1
* cell instance $119 m0 *1 37.72,8.16
X$119 6 11 16 9 12 10 10 6 sky130_fd_sc_hd__edfxtp_1
* cell instance $173 r0 *1 20.7,8.16
X$173 6 15 26 9 8 10 10 6 sky130_fd_sc_hd__edfxtp_1
* cell instance $174 r0 *1 31.74,8.16
X$174 6 15 24 9 12 10 10 6 sky130_fd_sc_hd__edfxtp_1
* cell instance $180 r0 *1 46.92,8.16
X$180 6 23 24 16 17 10 10 6 sky130_fd_sc_hd__mux2i_1
* cell instance $183 r0 *1 56.12,8.16
X$183 6 11 28 9 7 10 10 6 sky130_fd_sc_hd__edfxtp_1
* cell instance $191 r0 *1 70.84,8.16
X$191 6 22 20 9 21 10 10 6 sky130_fd_sc_hd__edfxtp_1
* cell instance $192 r0 *1 81.88,8.16
X$192 6 19 20 18 17 10 10 6 sky130_fd_sc_hd__mux2i_1
* cell instance $225 m0 *1 15.18,13.6
X$225 6 25 32 31 8 10 10 6 sky130_fd_sc_hd__edfxtp_1
* cell instance $231 m0 *1 31.74,13.6
X$231 6 45 26 27 17 10 10 6 sky130_fd_sc_hd__mux2i_1
* cell instance $233 m0 *1 37.26,13.6
X$233 6 25 33 31 12 10 10 6 sky130_fd_sc_hd__edfxtp_1
* cell instance $238 m0 *1 57.04,13.6
X$238 6 15 29 9 7 10 10 6 sky130_fd_sc_hd__edfxtp_1
* cell instance $241 m0 *1 72.22,13.6
X$241 6 25 18 9 21 10 10 6 sky130_fd_sc_hd__edfxtp_1
* cell instance $273 r0 *1 23.46,13.6
X$273 6 11 27 9 8 10 10 6 sky130_fd_sc_hd__edfxtp_1
* cell instance $280 r0 *1 43.7,13.6
X$280 10 38 34 35 23 10 39 6 6 sky130_fd_sc_hd__a22oi_1
* cell instance $281 r0 *1 46.46,13.6
X$281 6 34 46 33 17 10 10 6 sky130_fd_sc_hd__mux2i_1
* cell instance $285 r0 *1 53.36,13.6
X$285 6 25 40 31 7 10 10 6 sky130_fd_sc_hd__edfxtp_1
* cell instance $287 r0 *1 66.24,13.6
X$287 6 54 29 28 17 10 10 6 sky130_fd_sc_hd__mux2i_1
* cell instance $292 r0 *1 72.68,13.6
X$292 6 15 30 9 21 10 10 6 sky130_fd_sc_hd__edfxtp_1
* cell instance $293 r0 *1 83.72,13.6
X$293 10 38 19 35 36 10 231 6 6 sky130_fd_sc_hd__a22oi_1
* cell instance $294 r0 *1 86.48,13.6
X$294 6 36 30 42 17 10 10 6 sky130_fd_sc_hd__mux2i_1
* cell instance $320 m0 *1 13.8,19.04
X$320 6 22 41 31 8 10 10 6 sky130_fd_sc_hd__edfxtp_1
* cell instance $324 m0 *1 25.3,19.04
X$324 6 43 41 32 17 10 10 6 sky130_fd_sc_hd__mux2i_1
* cell instance $326 m0 *1 29.44,19.04
X$326 10 43 38 35 45 10 44 6 6 sky130_fd_sc_hd__a22oi_1
* cell instance $329 m0 *1 36.34,19.04
X$329 6 22 46 31 12 10 10 6 sky130_fd_sc_hd__edfxtp_1
* cell instance $339 m0 *1 63.02,19.04
X$339 6 55 56 40 17 10 10 6 sky130_fd_sc_hd__mux2i_1
* cell instance $345 m0 *1 73.14,19.04
X$345 6 11 42 9 21 10 10 6 sky130_fd_sc_hd__edfxtp_1
* cell instance $362 m0 *1 120.52,19.04
X$362 6 80 57 9 49 10 10 6 sky130_fd_sc_hd__dfrtp_1
* cell instance $379 r0 *1 23.46,19.04
X$379 6 15 53 31 50 10 10 6 sky130_fd_sc_hd__edfxtp_1
* cell instance $388 r0 *1 52.44,19.04
X$388 6 22 56 31 7 10 10 6 sky130_fd_sc_hd__edfxtp_1
* cell instance $390 r0 *1 63.94,19.04
X$390 10 38 55 35 54 10 215 6 6 sky130_fd_sc_hd__a22oi_1
* cell instance $398 r0 *1 85.56,19.04
X$398 10 11 47 10 52 6 6 sky130_fd_sc_hd__xor2_1
* cell instance $399 r0 *1 88.78,19.04
X$399 6 80 47 9 52 10 10 6 sky130_fd_sc_hd__dfrtp_1
* cell instance $409 r0 *1 122.36,19.04
X$409 10 48 51 49 6 10 6 sky130_fd_sc_hd__nor2_1
* cell instance $422 m0 *1 11.04,24.48
X$422 6 25 75 31 50 10 10 6 sky130_fd_sc_hd__edfxtp_1
* cell instance $450 m0 *1 73.14,24.48
X$450 6 11 81 9 65 10 10 6 sky130_fd_sc_hd__edfxtp_1
* cell instance $461 m0 *1 107.18,24.48
X$461 10 57 37 64 6 10 6 sky130_fd_sc_hd__nor2b_1
* cell instance $462 m0 *1 109.48,24.48
X$462 10 37 57 79 6 10 6 sky130_fd_sc_hd__nand2b_1
* cell instance $467 m0 *1 120.06,24.48
X$467 10 59 60 58 6 10 76 6 sky130_fd_sc_hd__a21o_1
* cell instance $468 m0 *1 122.82,24.48
X$468 10 60 59 10 63 6 6 sky130_fd_sc_hd__xor2_1
* cell instance $474 m0 *1 132.02,24.48
X$474 10 57 6 10 62 6 sky130_fd_sc_hd__clkdlybuf4s50_1
* cell instance $478 r0 *1 4.14,24.48
X$478 6 22 74 31 50 10 10 6 sky130_fd_sc_hd__edfxtp_1
* cell instance $483 r0 *1 20.24,24.48
X$483 6 83 74 75 17 10 10 6 sky130_fd_sc_hd__mux2i_1
* cell instance $485 r0 *1 24.38,24.48
X$485 6 11 91 31 50 10 10 6 sky130_fd_sc_hd__edfxtp_1
* cell instance $494 r0 *1 52.9,24.48
X$494 6 11 96 9 78 10 10 6 sky130_fd_sc_hd__edfxtp_1
* cell instance $501 r0 *1 71.3,24.48
X$501 6 15 84 9 65 10 10 6 sky130_fd_sc_hd__edfxtp_1
* cell instance $505 r0 *1 88.78,24.48
X$505 6 80 85 9 97 10 10 6 sky130_fd_sc_hd__dfrtp_1
* cell instance $510 r0 *1 101.2,24.48
X$510 6 80 86 9 66 10 10 6 sky130_fd_sc_hd__dfrtp_1
* cell instance $513 r0 *1 115.92,24.48
X$513 10 77 10 6 48 6 sky130_fd_sc_hd__inv_1
* cell instance $514 r0 *1 117.3,24.48
X$514 6 68 67 111 10 86 10 6 sky130_fd_sc_hd__ha_1
* cell instance $515 r0 *1 121.9,24.48
X$515 10 68 69 67 6 10 70 6 sky130_fd_sc_hd__a21o_1
* cell instance $519 r0 *1 126.04,24.48
X$519 10 58 59 70 6 10 90 6 sky130_fd_sc_hd__a21oi_1
* cell instance $520 r0 *1 127.88,24.48
X$520 10 48 6 10 89 6 sky130_fd_sc_hd__clkdlybuf4s50_1
* cell instance $521 r0 *1 131.56,24.48
X$521 10 73 6 10 88 6 sky130_fd_sc_hd__clkdlybuf4s50_1
* cell instance $522 r0 *1 135.24,24.48
X$522 10 71 6 10 72 6 sky130_fd_sc_hd__clkdlybuf4s50_1
* cell instance $538 m0 *1 11.04,29.92
X$538 6 25 108 31 82 10 10 6 sky130_fd_sc_hd__edfxtp_1
* cell instance $544 m0 *1 29.44,29.92
X$544 6 15 110 31 82 10 10 6 sky130_fd_sc_hd__edfxtp_1
* cell instance $547 m0 *1 43.24,29.92
X$547 6 25 94 31 78 10 10 6 sky130_fd_sc_hd__edfxtp_1
* cell instance $551 m0 *1 57.04,29.92
X$551 6 151 112 94 17 10 10 6 sky130_fd_sc_hd__mux2i_1
* cell instance $554 m0 *1 62.1,29.92
X$554 6 95 113 96 17 10 10 6 sky130_fd_sc_hd__mux2i_1
* cell instance $556 m0 *1 66.7,29.92
X$556 6 25 98 9 65 10 10 6 sky130_fd_sc_hd__edfxtp_1
* cell instance $557 m0 *1 77.74,29.92
X$557 6 115 142 98 17 10 10 6 sky130_fd_sc_hd__mux2i_1
* cell instance $564 m0 *1 90.62,29.92
X$564 10 64 93 97 10 6 6 sky130_fd_sc_hd__xnor2_1
* cell instance $565 m0 *1 93.84,29.92
X$565 6 554 141 85 10 87 10 6 sky130_fd_sc_hd__ha_1
* cell instance $567 m0 *1 98.9,29.92
X$567 10 86 10 6 87 6 sky130_fd_sc_hd__inv_1
* cell instance $568 m0 *1 100.28,29.92
X$568 10 87 64 103 10 66 6 6 sky130_fd_sc_hd__o21ai_0
* cell instance $569 m0 *1 102.12,29.92
X$569 10 85 10 6 93 6 sky130_fd_sc_hd__inv_1
* cell instance $576 m0 *1 116.38,29.92
X$576 6 77 134 92 10 93 10 6 sky130_fd_sc_hd__ha_1
* cell instance $577 m0 *1 120.98,29.92
X$577 6 60 73 111 69 86 10 10 6 sky130_fd_sc_hd__fa_1
* cell instance $578 m0 *1 128.34,29.92
X$578 6 130 63 71 73 109 10 10 6 sky130_fd_sc_hd__a31o_1
* cell instance $579 m0 *1 131.56,29.92
X$579 10 109 6 10 107 6 sky130_fd_sc_hd__clkdlybuf4s50_1
* cell instance $581 m0 *1 135.7,29.92
X$581 10 63 6 10 61 6 sky130_fd_sc_hd__clkdlybuf4s50_1
* cell instance $584 r0 *1 3.68,29.92
X$584 10 31 10 6 9 6 sky130_fd_sc_hd__buf_4
* cell instance $595 r0 *1 27.14,29.92
X$595 10 38 83 35 99 10 131 6 6 sky130_fd_sc_hd__a22oi_1
* cell instance $596 r0 *1 29.9,29.92
X$596 6 11 133 31 82 10 10 6 sky130_fd_sc_hd__edfxtp_1
* cell instance $603 r0 *1 52.44,29.92
X$603 6 15 113 9 78 10 10 6 sky130_fd_sc_hd__edfxtp_1
* cell instance $611 r0 *1 72.68,29.92
X$611 10 114 100 15 6 10 6 sky130_fd_sc_hd__nor2_1
* cell instance $612 r0 *1 74.06,29.92
X$612 10 118 100 22 6 10 6 sky130_fd_sc_hd__nor2_1
* cell instance $613 r0 *1 75.44,29.92
X$613 10 119 100 25 6 10 6 sky130_fd_sc_hd__nor2_1
* cell instance $616 r0 *1 79.12,29.92
X$616 10 38 115 35 101 10 232 6 6 sky130_fd_sc_hd__a22oi_1
* cell instance $617 r0 *1 81.88,29.92
X$617 6 101 84 81 17 10 10 6 sky130_fd_sc_hd__mux2i_1
* cell instance $620 r0 *1 87.86,29.92
X$620 10 102 64 119 10 6 6 sky130_fd_sc_hd__nand2_1
* cell instance $622 r0 *1 90.16,29.92
X$622 6 555 102 93 10 86 10 6 sky130_fd_sc_hd__ha_1
* cell instance $623 r0 *1 94.76,29.92
X$623 10 141 64 114 10 6 6 sky130_fd_sc_hd__nand2_1
* cell instance $627 r0 *1 98.44,29.92
X$627 10 140 64 103 10 6 6 sky130_fd_sc_hd__nand2_1
* cell instance $628 r0 *1 99.82,29.92
X$628 6 140 122 93 10 87 10 6 sky130_fd_sc_hd__ha_1
* cell instance $629 r0 *1 104.42,29.92
X$629 6 80 124 9 139 10 10 6 sky130_fd_sc_hd__dfrtp_1
* cell instance $630 r0 *1 113.62,29.92
X$630 6 59 58 136 10 137 10 6 sky130_fd_sc_hd__ha_1
* cell instance $631 r0 *1 118.22,29.92
X$631 10 135 104 76 6 10 127 6 sky130_fd_sc_hd__a21oi_1
* cell instance $633 r0 *1 120.98,29.92
X$633 10 134 6 10 69 6 sky130_fd_sc_hd__inv_2
* cell instance $634 r0 *1 122.36,29.92
X$634 10 105 68 104 59 10 51 6 6 sky130_fd_sc_hd__nand4b_1
* cell instance $637 r0 *1 126.04,29.92
X$637 10 127 105 109 10 6 6 sky130_fd_sc_hd__xnor2_1
* cell instance $638 r0 *1 129.26,29.92
X$638 10 130 6 10 106 6 sky130_fd_sc_hd__clkdlybuf4s50_1
* cell instance $641 r0 *1 135.7,29.92
X$641 10 129 6 10 128 6 sky130_fd_sc_hd__clkdlybuf4s50_1
* cell instance $656 m0 *1 8.28,35.36
X$656 6 22 149 31 82 10 10 6 sky130_fd_sc_hd__edfxtp_1
* cell instance $658 m0 *1 20.24,35.36
X$658 6 116 149 108 17 10 10 6 sky130_fd_sc_hd__mux2i_1
* cell instance $664 m0 *1 29.9,35.36
X$664 10 38 116 35 117 10 206 6 6 sky130_fd_sc_hd__a22oi_1
* cell instance $666 m0 *1 33.58,35.36
X$666 6 99 53 91 17 10 10 6 sky130_fd_sc_hd__mux2i_1
* cell instance $668 m0 *1 38.18,35.36
X$668 6 117 110 133 17 10 10 6 sky130_fd_sc_hd__mux2i_1
* cell instance $670 m0 *1 42.78,35.36
X$670 6 22 112 31 78 10 10 6 sky130_fd_sc_hd__edfxtp_1
* cell instance $674 m0 *1 57.04,35.36
X$674 10 38 151 35 95 10 138 6 6 sky130_fd_sc_hd__a22oi_1
* cell instance $678 m0 *1 66.24,35.36
X$678 6 22 142 9 65 10 10 6 sky130_fd_sc_hd__edfxtp_1
* cell instance $681 m0 *1 81.42,35.36
X$681 10 120 100 11 6 10 6 sky130_fd_sc_hd__nor2_1
* cell instance $687 m0 *1 86.94,35.36
X$687 10 121 64 120 10 6 6 sky130_fd_sc_hd__nand2_1
* cell instance $691 m0 *1 91.54,35.36
X$691 6 553 121 85 10 86 10 6 sky130_fd_sc_hd__ha_1
* cell instance $692 m0 *1 96.14,35.36
X$692 10 122 64 118 10 6 6 sky130_fd_sc_hd__nand2_1
* cell instance $695 m0 *1 101.66,35.36
X$695 10 86 137 85 64 10 123 6 6 sky130_fd_sc_hd__nand4_1
* cell instance $696 m0 *1 103.96,35.36
X$696 10 123 124 139 10 6 6 sky130_fd_sc_hd__xnor2_1
* cell instance $701 m0 *1 112.7,35.36
X$701 6 104 135 132 10 124 10 6 sky130_fd_sc_hd__ha_1
* cell instance $703 m0 *1 120.98,35.36
X$703 10 125 10 6 132 6 sky130_fd_sc_hd__inv_1
* cell instance $704 m0 *1 122.36,35.36
X$704 10 126 10 6 111 6 sky130_fd_sc_hd__inv_1
* cell instance $706 m0 *1 124.2,35.36
X$706 10 90 104 71 10 6 6 sky130_fd_sc_hd__xnor2_1
* cell instance $710 m0 *1 135.24,35.36
X$710 10 128 10 6 80 6 sky130_fd_sc_hd__buf_4
* cell instance $746 r0 *1 82.34,35.36
X$746 10 124 137 100 10 6 6 sky130_fd_sc_hd__nand2_1
* cell instance $749 r0 *1 88.32,35.36
X$749 10 137 121 144 10 6 6 sky130_fd_sc_hd__nand2_1
* cell instance $750 r0 *1 89.7,35.36
X$750 10 124 144 85 86 6 165 10 6 sky130_fd_sc_hd__a22o_1
* cell instance $751 r0 *1 92.92,35.36
X$751 10 85 86 155 10 6 6 sky130_fd_sc_hd__nand2_1
* cell instance $753 r0 *1 94.76,35.36
X$753 10 121 124 176 10 6 6 sky130_fd_sc_hd__xnor2_1
* cell instance $758 r0 *1 101.2,35.36
X$758 10 140 85 10 154 6 6 sky130_fd_sc_hd__xor2_1
* cell instance $761 r0 *1 105.8,35.36
X$761 10 47 122 152 10 6 6 sky130_fd_sc_hd__nand2_1
* cell instance $781 m0 *1 15.18,40.8
X$781 6 143 161 31 8 10 10 6 sky130_fd_sc_hd__edfxtp_1
* cell instance $791 m0 *1 42.32,40.8
X$791 6 162 164 31 78 10 10 6 sky130_fd_sc_hd__edfxtp_1
* cell instance $800 m0 *1 66.7,40.8
X$800 6 143 167 9 65 10 10 6 sky130_fd_sc_hd__edfxtp_1
* cell instance $807 m0 *1 84.64,40.8
X$807 10 120 137 158 10 6 6 sky130_fd_sc_hd__xnor2_1
* cell instance $810 m0 *1 89.24,40.8
X$810 6 80 137 9 158 10 10 6 sky130_fd_sc_hd__dfrtp_1
* cell instance $813 m0 *1 98.44,40.8
X$813 10 140 121 10 177 6 6 sky130_fd_sc_hd__xor2_1
* cell instance $816 m0 *1 104.42,40.8
X$816 10 79 154 153 10 163 6 6 sky130_fd_sc_hd__o21ai_0
* cell instance $817 m0 *1 106.26,40.8
X$817 10 159 79 153 10 6 6 sky130_fd_sc_hd__nand2_1
* cell instance $819 m0 *1 108.56,40.8
X$819 10 137 124 150 6 10 6 sky130_fd_sc_hd__or2_1
* cell instance $824 m0 *1 116.84,40.8
X$824 10 145 150 152 160 6 10 6 sky130_fd_sc_hd__nor3_1
* cell instance $826 m0 *1 119.14,40.8
X$826 10 146 10 6 136 6 sky130_fd_sc_hd__inv_1
* cell instance $827 m0 *1 120.52,40.8
X$827 10 146 92 126 125 6 145 10 6 sky130_fd_sc_hd__nor4_1
* cell instance $831 m0 *1 123.74,40.8
X$831 6 80 147 9 160 10 10 6 sky130_fd_sc_hd__dfrtp_1
* cell instance $832 m0 *1 132.94,40.8
X$832 10 147 6 10 148 6 sky130_fd_sc_hd__clkdlybuf4s50_1
* cell instance $837 r0 *1 4.14,40.8
X$837 6 143 170 31 82 10 10 6 sky130_fd_sc_hd__edfxtp_1
* cell instance $841 r0 *1 19.32,40.8
X$841 6 156 170 169 17 10 10 6 sky130_fd_sc_hd__mux2i_1
* cell instance $845 r0 *1 28.06,40.8
X$845 6 173 161 172 17 10 10 6 sky130_fd_sc_hd__mux2i_1
* cell instance $846 r0 *1 31.74,40.8
X$846 6 143 180 31 12 10 10 6 sky130_fd_sc_hd__edfxtp_1
* cell instance $849 r0 *1 43.24,40.8
X$849 6 191 180 178 17 10 10 6 sky130_fd_sc_hd__mux2i_1
* cell instance $853 r0 *1 53.36,40.8
X$853 6 162 182 31 7 10 10 6 sky130_fd_sc_hd__edfxtp_1
* cell instance $862 r0 *1 74.06,40.8
X$862 10 114 157 143 6 10 6 sky130_fd_sc_hd__nor2_1
* cell instance $863 r0 *1 75.44,40.8
X$863 10 120 157 162 6 10 6 sky130_fd_sc_hd__nor2_1
* cell instance $865 r0 *1 77.74,40.8
X$865 6 218 167 217 17 10 10 6 sky130_fd_sc_hd__mux2i_1
* cell instance $866 r0 *1 81.42,40.8
X$866 10 137 124 166 6 10 6 sky130_fd_sc_hd__nand2b_1
* cell instance $867 r0 *1 83.72,40.8
X$867 10 124 137 157 6 10 6 sky130_fd_sc_hd__nand2b_1
* cell instance $870 r0 *1 87.4,40.8
X$870 6 181 121 100 155 165 150 10 10 6 sky130_fd_sc_hd__o311ai_1
* cell instance $872 r0 *1 91.08,40.8
X$872 10 137 155 179 10 6 6 sky130_fd_sc_hd__nand2_1
* cell instance $873 r0 *1 92.46,40.8
X$873 10 179 176 212 10 6 6 sky130_fd_sc_hd__xnor2_1
* cell instance $880 r0 *1 100.74,40.8
X$880 10 177 137 174 10 6 6 sky130_fd_sc_hd__xnor2_1
* cell instance $881 r0 *1 103.96,40.8
X$881 6 80 159 9 163 10 10 6 sky130_fd_sc_hd__dfrtp_1
* cell instance $882 r0 *1 113.16,40.8
X$882 6 80 92 9 208 10 10 6 sky130_fd_sc_hd__dfrtp_1
* cell instance $906 m0 *1 9.2,46.24
X$906 6 162 171 31 50 10 10 6 sky130_fd_sc_hd__edfxtp_1
* cell instance $907 m0 *1 20.24,46.24
X$907 6 187 186 171 17 10 10 6 sky130_fd_sc_hd__mux2i_1
* cell instance $910 m0 *1 26.68,46.24
X$910 10 183 187 219 10 6 6 sky130_fd_sc_hd__nand2_1
* cell instance $914 m0 *1 30.36,46.24
X$914 6 162 178 31 12 10 10 6 sky130_fd_sc_hd__edfxtp_1
* cell instance $915 m0 *1 41.4,46.24
X$915 6 143 192 31 78 10 10 6 sky130_fd_sc_hd__edfxtp_1
* cell instance $917 m0 *1 52.9,46.24
X$917 6 193 192 164 17 10 10 6 sky130_fd_sc_hd__mux2i_1
* cell instance $919 m0 *1 57.04,46.24
X$919 10 183 193 195 10 6 6 sky130_fd_sc_hd__nand2_1
* cell instance $922 m0 *1 63.02,46.24
X$922 6 199 197 182 17 10 10 6 sky130_fd_sc_hd__mux2i_1
* cell instance $926 m0 *1 73.14,46.24
X$926 6 162 196 9 21 10 10 6 sky130_fd_sc_hd__edfxtp_1
* cell instance $935 m0 *1 102.58,46.24
X$935 10 79 175 174 10 6 190 6 sky130_fd_sc_hd__o21ai_1
* cell instance $936 m0 *1 104.42,46.24
X$936 10 189 79 175 10 6 6 sky130_fd_sc_hd__nand2_1
* cell instance $942 m0 *1 112.7,46.24
X$942 6 80 146 9 188 10 10 6 sky130_fd_sc_hd__dfrtp_1
* cell instance $945 m0 *1 124.66,46.24
X$945 6 105 552 168 10 47 10 6 sky130_fd_sc_hd__ha_1
* cell instance $946 m0 *1 129.26,46.24
X$946 10 185 10 6 168 6 sky130_fd_sc_hd__inv_1
* cell instance $953 r0 *1 4.14,46.24
X$953 6 143 186 31 50 10 10 6 sky130_fd_sc_hd__edfxtp_1
* cell instance $958 r0 *1 21.16,46.24
X$958 6 162 172 31 8 10 10 6 sky130_fd_sc_hd__edfxtp_1
* cell instance $968 r0 *1 46,46.24
X$968 10 183 191 228 10 6 6 sky130_fd_sc_hd__nand2_1
* cell instance $971 r0 *1 52.9,46.24
X$971 6 143 197 31 7 10 10 6 sky130_fd_sc_hd__edfxtp_1
* cell instance $972 r0 *1 63.94,46.24
X$972 10 183 199 216 10 6 6 sky130_fd_sc_hd__nand2_1
* cell instance $980 r0 *1 72.22,46.24
X$980 6 143 198 9 21 10 10 6 sky130_fd_sc_hd__edfxtp_1
* cell instance $981 r0 *1 83.26,46.24
X$981 6 204 198 196 17 10 10 6 sky130_fd_sc_hd__mux2i_1
* cell instance $984 r0 *1 89.24,46.24
X$984 10 181 47 10 214 6 6 sky130_fd_sc_hd__xor2_1
* cell instance $987 r0 *1 94.76,46.24
X$987 10 79 211 212 10 6 213 6 sky130_fd_sc_hd__o21ai_1
* cell instance $993 r0 *1 98.9,46.24
X$993 10 194 79 211 10 6 6 sky130_fd_sc_hd__nand2_1
* cell instance $996 r0 *1 103.04,46.24
X$996 6 80 189 9 190 10 10 6 sky130_fd_sc_hd__dfrtp_1
* cell instance $999 r0 *1 113.62,46.24
X$999 10 184 10 6 188 6 sky130_fd_sc_hd__inv_1
* cell instance $1000 r0 *1 115,46.24
X$1000 6 80 126 9 209 10 10 6 sky130_fd_sc_hd__dfrtp_1
* cell instance $1006 r0 *1 126.96,46.24
X$1006 6 80 125 9 205 10 10 6 sky130_fd_sc_hd__dfrtp_1
* cell instance $1022 m0 *1 8.74,51.68
X$1022 6 162 169 31 82 10 10 6 sky130_fd_sc_hd__edfxtp_1
* cell instance $1025 m0 *1 22.54,51.68
X$1025 10 183 156 224 10 6 6 sky130_fd_sc_hd__nand2_1
* cell instance $1030 m0 *1 29.44,51.68
X$1030 10 206 200 224 225 10 220 6 6 sky130_fd_sc_hd__nand4_1
* cell instance $1031 m0 *1 31.74,51.68
X$1031 10 183 173 252 10 6 6 sky130_fd_sc_hd__nand2_1
* cell instance $1037 m0 *1 45.54,51.68
X$1037 10 39 200 228 210 10 328 6 6 sky130_fd_sc_hd__nand4_1
* cell instance $1040 m0 *1 55.2,51.68
X$1040 10 201 222 202 10 6 6 sky130_fd_sc_hd__nand2_1
* cell instance $1043 m0 *1 57.5,51.68
X$1043 10 138 200 195 202 10 284 6 6 sky130_fd_sc_hd__nand4_1
* cell instance $1045 m0 *1 63.48,51.68
X$1045 10 201 253 203 10 6 6 sky130_fd_sc_hd__nand2_1
* cell instance $1046 m0 *1 64.86,51.68
X$1046 10 215 200 216 203 10 331 6 6 sky130_fd_sc_hd__nand4_1
* cell instance $1047 m0 *1 67.16,51.68
X$1047 6 162 217 9 65 10 10 6 sky130_fd_sc_hd__edfxtp_1
* cell instance $1050 m0 *1 80.5,51.68
X$1050 10 183 218 230 10 6 6 sky130_fd_sc_hd__nand2_1
* cell instance $1052 m0 *1 82.8,51.68
X$1052 10 183 204 229 10 6 6 sky130_fd_sc_hd__nand2_1
* cell instance $1057 m0 *1 90.62,51.68
X$1057 10 79 241 214 10 6 227 6 sky130_fd_sc_hd__o21ai_1
* cell instance $1058 m0 *1 92.46,51.68
X$1058 6 80 194 9 213 10 10 6 sky130_fd_sc_hd__dfrtp_1
* cell instance $1064 m0 *1 112.24,51.68
X$1064 10 209 226 10 208 6 6 sky130_fd_sc_hd__xor2_1
* cell instance $1069 m0 *1 122.36,51.68
X$1069 6 184 205 207 10 10 6 sky130_fd_sc_hd__xnor2_2
* cell instance $1070 m0 *1 128.34,51.68
X$1070 6 80 185 9 223 10 10 6 sky130_fd_sc_hd__dfrtp_1
* cell instance $1085 r0 *1 24.38,51.68
X$1085 6 236 268 235 17 10 10 6 sky130_fd_sc_hd__mux2i_1
* cell instance $1086 r0 *1 28.06,51.68
X$1086 10 201 236 225 10 6 6 sky130_fd_sc_hd__nand2_1
* cell instance $1087 r0 *1 29.44,51.68
X$1087 10 131 200 219 237 10 239 6 6 sky130_fd_sc_hd__nand4_1
* cell instance $1095 r0 *1 43.24,51.68
X$1095 6 221 245 31 78 10 10 6 sky130_fd_sc_hd__edfxtp_1
* cell instance $1096 r0 *1 54.28,51.68
X$1096 6 221 246 31 7 10 10 6 sky130_fd_sc_hd__edfxtp_1
* cell instance $1107 r0 *1 74.06,51.68
X$1107 10 118 157 247 6 10 6 sky130_fd_sc_hd__nor2_1
* cell instance $1110 r0 *1 76.82,51.68
X$1110 10 119 157 221 6 10 6 sky130_fd_sc_hd__nor2_1
* cell instance $1113 r0 *1 80.5,51.68
X$1113 10 232 200 230 244 10 296 6 6 sky130_fd_sc_hd__nand4_1
* cell instance $1116 r0 *1 84.18,51.68
X$1116 10 231 200 229 243 10 242 6 6 sky130_fd_sc_hd__nand4_1
* cell instance $1119 r0 *1 88.78,51.68
X$1119 6 80 234 9 227 10 10 6 sky130_fd_sc_hd__dfrtp_1
* cell instance $1125 r0 *1 102.12,51.68
X$1125 6 80 226 9 238 10 10 6 sky130_fd_sc_hd__dfrtp_1
* cell instance $1127 r0 *1 112.24,51.68
X$1127 6 209 184 261 10 10 6 sky130_fd_sc_hd__xnor2_2
* cell instance $1137 r0 *1 132.02,51.68
X$1137 6 223 258 205 10 10 6 sky130_fd_sc_hd__xor2_2
* cell instance $1141 m0 *1 5.06,57.12
X$1141 6 247 233 31 50 10 10 6 sky130_fd_sc_hd__edfxtp_1
* cell instance $1142 m0 *1 16.1,57.12
X$1142 6 221 235 31 82 10 10 6 sky130_fd_sc_hd__edfxtp_1
* cell instance $1143 m0 *1 27.14,57.12
X$1143 10 201 260 237 10 6 6 sky130_fd_sc_hd__nand2_1
* cell instance $1146 m0 *1 29.44,57.12
X$1146 10 201 269 248 10 6 6 sky130_fd_sc_hd__nand2_1
* cell instance $1147 m0 *1 30.82,57.12
X$1147 10 200 252 44 248 10 240 6 6 sky130_fd_sc_hd__nand4_1
* cell instance $1152 m0 *1 43.24,57.12
X$1152 10 201 263 210 10 6 6 sky130_fd_sc_hd__nand2_1
* cell instance $1154 m0 *1 45.54,57.12
X$1154 6 247 255 31 78 10 10 6 sky130_fd_sc_hd__edfxtp_1
* cell instance $1156 m0 *1 57.04,57.12
X$1156 6 222 255 245 17 10 10 6 sky130_fd_sc_hd__mux2i_1
* cell instance $1159 m0 *1 63.48,57.12
X$1159 6 253 254 246 17 10 10 6 sky130_fd_sc_hd__mux2i_1
* cell instance $1164 m0 *1 80.04,57.12
X$1164 10 201 249 244 10 6 6 sky130_fd_sc_hd__nand2_1
* cell instance $1169 m0 *1 85.1,57.12
X$1169 10 201 251 243 10 6 6 sky130_fd_sc_hd__nand2_1
* cell instance $1173 m0 *1 92.46,57.12
X$1173 10 234 79 241 10 6 6 sky130_fd_sc_hd__nand2_1
* cell instance $1174 m0 *1 93.84,57.12
X$1174 6 80 238 9 250 10 10 6 sky130_fd_sc_hd__dfrtp_1
* cell instance $1184 m0 *1 125.12,57.12
X$1184 6 80 223 9 267 10 10 6 sky130_fd_sc_hd__dfrtp_1
* cell instance $1190 r0 *1 4.14,57.12
X$1190 6 247 259 31 8 10 10 6 sky130_fd_sc_hd__edfxtp_1
* cell instance $1196 r0 *1 16.56,57.12
X$1196 6 221 256 31 50 10 10 6 sky130_fd_sc_hd__edfxtp_1
* cell instance $1197 r0 *1 27.6,57.12
X$1197 6 260 233 256 17 10 10 6 sky130_fd_sc_hd__mux2i_1
* cell instance $1199 r0 *1 31.74,57.12
X$1199 6 247 262 31 12 10 10 6 sky130_fd_sc_hd__edfxtp_1
* cell instance $1205 r0 *1 44.16,57.12
X$1205 6 263 262 272 17 10 10 6 sky130_fd_sc_hd__mux2i_1
* cell instance $1209 r0 *1 53.82,57.12
X$1209 6 247 254 31 7 10 10 6 sky130_fd_sc_hd__edfxtp_1
* cell instance $1216 r0 *1 70.84,57.12
X$1216 6 247 257 9 21 10 10 6 sky130_fd_sc_hd__edfxtp_1
* cell instance $1217 r0 *1 81.88,57.12
X$1217 6 249 265 264 17 10 10 6 sky130_fd_sc_hd__mux2i_1
* cell instance $1218 r0 *1 85.56,57.12
X$1218 6 251 257 286 17 10 10 6 sky130_fd_sc_hd__mux2i_1
* cell instance $1230 r0 *1 104.42,57.12
X$1230 6 80 261 9 273 10 10 6 sky130_fd_sc_hd__dfrtp_1
* cell instance $1233 r0 *1 115.92,57.12
X$1233 6 80 207 9 283 10 10 6 sky130_fd_sc_hd__dfrtp_1
* cell instance $1239 r0 *1 126.04,57.12
X$1239 6 80 258 9 282 10 10 6 sky130_fd_sc_hd__dfrtp_1
* cell instance $1245 m0 *1 4.6,62.56
X$1245 6 247 268 31 82 10 10 6 sky130_fd_sc_hd__edfxtp_1
* cell instance $1248 m0 *1 17.94,62.56
X$1248 6 221 270 31 8 10 10 6 sky130_fd_sc_hd__edfxtp_1
* cell instance $1251 m0 *1 29.9,62.56
X$1251 6 269 259 270 17 10 10 6 sky130_fd_sc_hd__mux2i_1
* cell instance $1253 m0 *1 34.5,62.56
X$1253 6 221 272 31 12 10 10 6 sky130_fd_sc_hd__edfxtp_1
* cell instance $1263 m0 *1 72.68,62.56
X$1263 6 221 264 9 65 10 10 6 sky130_fd_sc_hd__edfxtp_1
* cell instance $1270 m0 *1 96.14,62.56
X$1270 6 80 273 9 367 10 10 6 sky130_fd_sc_hd__dfrtp_1
* cell instance $1278 m0 *1 117.3,62.56
X$1278 6 80 267 9 271 10 10 6 sky130_fd_sc_hd__dfrtp_1
* cell instance $1285 r0 *1 8.74,62.56
X$1285 10 275 6 10 274 6 sky130_fd_sc_hd__clkdlybuf4s50_1
* cell instance $1305 r0 *1 57.96,62.56
X$1305 10 277 284 276 297 10 6 6 sky130_fd_sc_hd__nand3_1
* cell instance $1307 r0 *1 60.26,62.56
X$1307 10 275 278 285 10 6 6 sky130_fd_sc_hd__nand2_1
* cell instance $1308 r0 *1 61.64,62.56
X$1308 10 13 278 277 10 6 6 sky130_fd_sc_hd__nand2_1
* cell instance $1315 r0 *1 75.44,62.56
X$1315 6 221 286 9 21 10 10 6 sky130_fd_sc_hd__edfxtp_1
* cell instance $1326 r0 *1 107.18,62.56
X$1326 6 80 283 9 279 10 10 6 sky130_fd_sc_hd__dfrtp_1
* cell instance $1327 r0 *1 116.38,62.56
X$1327 6 80 282 9 338 10 10 6 sky130_fd_sc_hd__dfrtp_1
* cell instance $1333 r0 *1 133.86,62.56
X$1333 10 266 6 281 10 6 sky130_fd_sc_hd__buf_2
* cell instance $1348 m0 *1 32.2,68
X$1348 10 308 239 294 288 10 6 6 sky130_fd_sc_hd__nand3_1
* cell instance $1349 m0 *1 34.04,68
X$1349 6 281 295 287 288 10 10 6 sky130_fd_sc_hd__dfrtp_1
* cell instance $1355 m0 *1 46.46,68
X$1355 6 6 200 10 289 278 10 sky130_fd_sc_hd__nor2_2
* cell instance $1360 m0 *1 57.04,68
X$1360 6 281 13 287 297 10 10 6 sky130_fd_sc_hd__dfrtp_1
* cell instance $1363 m0 *1 68.54,68
X$1363 6 247 265 9 65 10 10 6 sky130_fd_sc_hd__edfxtp_1
* cell instance $1370 m0 *1 85.1,68
X$1370 10 290 296 376 316 10 6 6 sky130_fd_sc_hd__nand3_1
* cell instance $1372 m0 *1 87.4,68
X$1372 10 291 278 290 10 6 6 sky130_fd_sc_hd__nand2_1
* cell instance $1375 m0 *1 93.38,68
X$1375 6 281 311 287 234 10 10 6 sky130_fd_sc_hd__dfrtp_1
* cell instance $1389 m0 *1 127.88,68
X$1389 10 292 10 6 287 6 sky130_fd_sc_hd__buf_4
* cell instance $1392 m0 *1 132.94,68
X$1392 10 280 6 10 292 6 sky130_fd_sc_hd__clkdlybuf4s50_1
* cell instance $1398 r0 *1 7.82,68
X$1398 10 298 6 10 305 6 sky130_fd_sc_hd__clkdlybuf4s50_1
* cell instance $1403 r0 *1 16.1,68
X$1403 10 295 6 10 306 6 sky130_fd_sc_hd__clkdlybuf4s50_1
* cell instance $1408 r0 *1 31.74,68
X$1408 10 295 278 308 10 6 6 sky130_fd_sc_hd__nand2_1
* cell instance $1410 r0 *1 33.58,68
X$1410 6 281 298 287 309 10 10 6 sky130_fd_sc_hd__dfrtp_1
* cell instance $1415 r0 *1 45.54,68
X$1415 6 281 14 287 313 10 10 6 sky130_fd_sc_hd__dfrtp_1
* cell instance $1416 r0 *1 54.74,68
X$1416 10 14 278 314 10 6 6 sky130_fd_sc_hd__nand2_1
* cell instance $1417 r0 *1 56.12,68
X$1417 6 281 275 287 315 10 10 6 sky130_fd_sc_hd__dfrtp_1
* cell instance $1428 r0 *1 84.18,68
X$1428 6 281 291 287 316 10 10 6 sky130_fd_sc_hd__dfrtp_1
* cell instance $1434 r0 *1 100.28,68
X$1434 6 281 310 287 311 10 10 6 sky130_fd_sc_hd__dfrtp_1
* cell instance $1438 r0 *1 118.68,68
X$1438 10 291 6 10 303 6 sky130_fd_sc_hd__clkdlybuf4s50_1
* cell instance $1445 r0 *1 127.88,68
X$1445 10 301 6 10 304 6 sky130_fd_sc_hd__clkdlybuf4s50_1
* cell instance $1451 m0 *1 5.98,73.44
X$1451 6 317 307 9 8 10 10 6 sky130_fd_sc_hd__edfxtp_1
* cell instance $1454 m0 *1 17.02,73.44
X$1454 6 325 322 307 17 10 10 6 sky130_fd_sc_hd__mux2i_1
* cell instance $1460 m0 *1 31.28,73.44
X$1460 10 183 325 201 299 10 361 6 6 sky130_fd_sc_hd__a22oi_1
* cell instance $1461 m0 *1 34.04,73.44
X$1461 10 300 240 318 309 10 6 6 sky130_fd_sc_hd__nand3_1
* cell instance $1462 m0 *1 35.88,73.44
X$1462 10 298 278 300 10 6 6 sky130_fd_sc_hd__nand2_1
* cell instance $1464 m0 *1 38.18,73.44
X$1464 6 299 327 312 17 10 10 6 sky130_fd_sc_hd__mux2i_1
* cell instance $1469 m0 *1 46.46,73.44
X$1469 10 314 328 460 313 10 6 6 sky130_fd_sc_hd__nand3_1
* cell instance $1477 m0 *1 60.26,73.44
X$1477 10 285 331 329 315 10 6 6 sky130_fd_sc_hd__nand3_1
* cell instance $1485 m0 *1 74.52,73.44
X$1485 10 150 120 317 6 10 6 sky130_fd_sc_hd__nor2_1
* cell instance $1487 m0 *1 76.82,73.44
X$1487 10 166 120 330 6 10 6 sky130_fd_sc_hd__nor2_1
* cell instance $1494 m0 *1 90.16,73.44
X$1494 6 281 326 287 47 10 10 6 sky130_fd_sc_hd__dfrtp_1
* cell instance $1498 m0 *1 100.28,73.44
X$1498 6 281 324 287 194 10 10 6 sky130_fd_sc_hd__dfrtp_1
* cell instance $1503 m0 *1 114.08,73.44
X$1503 6 281 321 287 189 10 10 6 sky130_fd_sc_hd__dfrtp_1
* cell instance $1508 m0 *1 126.5,73.44
X$1508 6 281 302 287 10 10 10 6 sky130_fd_sc_hd__dfrtp_1
* cell instance $1509 m0 *1 135.7,73.44
X$1509 10 302 6 10 293 6 sky130_fd_sc_hd__clkdlybuf4s50_1
* cell instance $1512 r0 *1 4.14,73.44
X$1512 6 320 322 9 8 10 10 6 sky130_fd_sc_hd__edfxtp_1
* cell instance $1517 r0 *1 17.48,73.44
X$1517 6 323 341 9 8 10 10 6 sky130_fd_sc_hd__edfxtp_1
* cell instance $1519 r0 *1 28.98,73.44
X$1519 6 319 327 9 8 10 10 6 sky130_fd_sc_hd__edfxtp_1
* cell instance $1528 r0 *1 54.28,73.44
X$1528 6 317 345 9 7 10 10 6 sky130_fd_sc_hd__edfxtp_1
* cell instance $1529 r0 *1 65.32,73.44
X$1529 6 346 365 345 17 10 10 6 sky130_fd_sc_hd__mux2i_1
* cell instance $1536 r0 *1 72.68,73.44
X$1536 10 150 114 320 6 10 6 sky130_fd_sc_hd__nor2_1
* cell instance $1537 r0 *1 74.06,73.44
X$1537 10 150 118 319 6 10 6 sky130_fd_sc_hd__nor2_1
* cell instance $1538 r0 *1 75.44,73.44
X$1538 10 150 119 334 6 10 6 sky130_fd_sc_hd__nor2_1
* cell instance $1539 r0 *1 76.82,73.44
X$1539 10 166 114 347 6 10 6 sky130_fd_sc_hd__nor2_1
* cell instance $1540 r0 *1 78.2,73.44
X$1540 10 166 119 358 6 10 6 sky130_fd_sc_hd__nor2_1
* cell instance $1542 r0 *1 81.42,73.44
X$1542 10 166 118 323 6 10 6 sky130_fd_sc_hd__nor2_1
* cell instance $1545 r0 *1 85.1,73.44
X$1545 6 281 301 287 343 10 10 6 sky130_fd_sc_hd__dfrtp_1
* cell instance $1546 r0 *1 94.3,73.44
X$1546 10 301 278 342 10 6 6 sky130_fd_sc_hd__nand2_1