
* cell barrel_rotator
* pin data_in[5]
* pin data_in[6]
* pin data_in[0]
* pin rotate_amount[2]
* pin data_out[6]
* pin data_out[4]
* pin data_out[0]
* pin data_out[2]
* pin data_in[7]
* pin data_in[1]
* pin data_in[4]
* pin data_in[3]
* pin data_in[2]
* pin rotate_amount[1]
* pin data_out[7]
* pin data_out[3]
* pin direction
* pin data_out[5]
* pin data_out[1]
* pin rotate_amount[0]
* pin NWELL
* pin PWELL,gf180mcu_gnd
.SUBCKT barrel_rotator 1 2 3 4 6 7 47 60 71 84 106 107 108 109 116 146 152 153
+ 154 155 157 158
* net 1 data_in[5]
* net 2 data_in[6]
* net 3 data_in[0]
* net 4 rotate_amount[2]
* net 6 data_out[6]
* net 7 data_out[4]
* net 47 data_out[0]
* net 60 data_out[2]
* net 71 data_in[7]
* net 84 data_in[1]
* net 106 data_in[4]
* net 107 data_in[3]
* net 108 data_in[2]
* net 109 rotate_amount[1]
* net 116 data_out[7]
* net 146 data_out[3]
* net 152 direction
* net 153 data_out[5]
* net 154 data_out[1]
* net 155 rotate_amount[0]
* net 157 NWELL
* net 158 PWELL,gf180mcu_gnd
* cell instance $4 r0 *1 455.28,5.04
X$4 158 157 1 5 gf180mcu_fd_sc_mcu9t5v0__buf_4
* cell instance $8 r0 *1 463.12,5.04
X$8 158 157 2 12 gf180mcu_fd_sc_mcu9t5v0__buf_4
* cell instance $12 r0 *1 453.6,15.12
X$12 158 157 3 41 gf180mcu_fd_sc_mcu9t5v0__buf_4
* cell instance $15 r0 *1 476.56,5.04
X$15 158 4 13 157 gf180mcu_fd_sc_mcu9t5v0__clkbuf_8
* cell instance $18 m0 *1 445.2,468.72
X$18 158 157 87 5 13 40 gf180mcu_fd_sc_mcu9t5v0__mux2_2
* cell instance $20 m0 *1 403.2,438.48
X$20 158 45 24 41 17 22 5 40 157 gf180mcu_fd_sc_mcu9t5v0__mux4_2
* cell instance $22 r0 *1 408.24,438.48
X$22 158 157 55 5 27 12 gf180mcu_fd_sc_mcu9t5v0__mux2_2
* cell instance $36 m0 *1 453.6,468.72
X$36 158 157 77 40 13 5 gf180mcu_fd_sc_mcu9t5v0__mux2_2
* cell instance $38 r0 *1 411.6,468.72
X$38 158 157 5 96 gf180mcu_fd_sc_mcu9t5v0__clkinv_2
* cell instance $41 r0 *1 445.2,428.4
X$41 158 157 28 12 27 5 gf180mcu_fd_sc_mcu9t5v0__mux2_2
* cell instance $43 r0 *1 7.28,428.4
X$43 29 157 158 6 gf180mcu_fd_sc_mcu9t5v0__dlyb_2
* cell instance $46 m0 *1 25.2,438.48
X$46 34 157 158 7 gf180mcu_fd_sc_mcu9t5v0__dlyb_2
* cell instance $49 m0 *1 444.08,488.88
X$49 158 157 128 115 8 101 gf180mcu_fd_sc_mcu9t5v0__mux2_2
* cell instance $51 r0 *1 381.36,468.72
X$51 8 157 42 86 158 104 gf180mcu_fd_sc_mcu9t5v0__and3_2
* cell instance $63 r0 *1 435.12,488.88
X$63 158 141 8 77 114 22 80 88 157 gf180mcu_fd_sc_mcu9t5v0__mux4_2
* cell instance $65 r0 *1 372.4,498.96
X$65 158 133 8 157 gf180mcu_fd_sc_mcu9t5v0__clkbuf_8
* cell instance $67 m0 *1 409.92,498.96
X$67 158 148 8 88 73 78 138 86 157 gf180mcu_fd_sc_mcu9t5v0__mux4_2
* cell instance $69 r0 *1 397.04,478.8
X$69 158 144 119 8 11 120 97 157 gf180mcu_fd_sc_mcu9t5v0__aoi221_4
* cell instance $71 m0 *1 418.32,509.04
X$71 158 151 139 150 8 25 124 157 gf180mcu_fd_sc_mcu9t5v0__aoi221_4
* cell instance $73 m0 *1 382.48,428.4
X$73 157 8 31 158 23 gf180mcu_fd_sc_mcu9t5v0__and2_2
* cell instance $75 r0 *1 395.36,448.56
X$75 158 74 25 69 65 8 75 68 157 gf180mcu_fd_sc_mcu9t5v0__mux4_2
* cell instance $78 m0 *1 432.32,438.48
X$78 158 43 8 44 30 24 26 28 157 gf180mcu_fd_sc_mcu9t5v0__mux4_2
* cell instance $80 r0 *1 378,438.48
X$80 158 157 8 46 39 gf180mcu_fd_sc_mcu9t5v0__nand2_2
* cell instance $82 m0 *1 423.36,468.72
X$82 158 157 86 9 13 81 gf180mcu_fd_sc_mcu9t5v0__mux2_2
* cell instance $84 r0 *1 372.96,468.72
X$84 158 157 94 9 22 38 gf180mcu_fd_sc_mcu9t5v0__mux2_2
* cell instance $86 r0 *1 400.96,458.64
X$86 16 158 78 9 157 66 gf180mcu_fd_sc_mcu9t5v0__or3_2
* cell instance $88 r0 *1 380.8,428.4
X$88 157 27 9 158 33 gf180mcu_fd_sc_mcu9t5v0__and2_2
* cell instance $90 r0 *1 394.8,428.4
X$90 158 157 15 9 22 17 gf180mcu_fd_sc_mcu9t5v0__mux2_2
* cell instance $105 r0 *1 434.56,428.4
X$105 158 157 26 17 27 9 gf180mcu_fd_sc_mcu9t5v0__mux2_2
* cell instance $108 m0 *1 428.96,498.96
X$108 157 9 90 158 143 gf180mcu_fd_sc_mcu9t5v0__and2_2
* cell instance $110 r0 *1 377.44,488.88
X$110 158 157 9 122 gf180mcu_fd_sc_mcu9t5v0__clkinv_2
* cell instance $112 r0 *1 11.2,488.88
X$112 158 157 107 9 gf180mcu_fd_sc_mcu9t5v0__buf_4
* cell instance $114 m0 *1 428.4,488.88
X$114 157 11 9 158 127 gf180mcu_fd_sc_mcu9t5v0__and2_2
* cell instance $116 m0 *1 389.2,428.4
X$116 158 157 10 15 11 21 gf180mcu_fd_sc_mcu9t5v0__mux2_2
* cell instance $118 r0 *1 386.4,428.4
X$118 158 10 157 14 23 79 gf180mcu_fd_sc_mcu9t5v0__aoi21_2
* cell instance $120 m0 *1 404.88,458.64
X$120 157 66 158 67 68 11 gf180mcu_fd_sc_mcu9t5v0__oai21_2
* cell instance $122 r0 *1 444.64,478.8
X$122 158 157 115 117 11 99 gf180mcu_fd_sc_mcu9t5v0__mux2_2
* cell instance $125 m0 *1 452.48,438.48
X$125 158 157 13 11 gf180mcu_fd_sc_mcu9t5v0__inv_4
* cell instance $127 m0 *1 372.96,468.72
X$127 158 157 93 94 11 67 gf180mcu_fd_sc_mcu9t5v0__mux2_2
* cell instance $130 m0 *1 373.52,448.56
X$130 157 11 158 51 50 52 gf180mcu_fd_sc_mcu9t5v0__oai21_2
* cell instance $132 m0 *1 375.2,438.48
X$132 11 158 22 38 157 31 gf180mcu_fd_sc_mcu9t5v0__or3_2
* cell instance $143 m0 *1 451.36,478.8
X$143 158 157 99 12 70 81 gf180mcu_fd_sc_mcu9t5v0__mux2_2
* cell instance $147 r0 *1 420,478.8
X$147 158 157 113 12 16 38 gf180mcu_fd_sc_mcu9t5v0__mux2_2
* cell instance $157 r0 *1 415.52,458.64
X$157 158 157 67 81 27 12 gf180mcu_fd_sc_mcu9t5v0__mux2_2
* cell instance $160 m0 *1 431.76,468.72
X$160 158 157 88 38 13 12 gf180mcu_fd_sc_mcu9t5v0__mux2_2
* cell instance $177 m0 *1 426.16,428.4
X$177 158 157 13 16 gf180mcu_fd_sc_mcu9t5v0__buf_4
* cell instance $180 r0 *1 434,458.64
X$180 158 157 73 17 13 41 gf180mcu_fd_sc_mcu9t5v0__mux2_2
* cell instance $182 r0 *1 425.6,458.64
X$182 158 157 80 41 13 17 gf180mcu_fd_sc_mcu9t5v0__mux2_2
* cell instance $187 r0 *1 360.08,428.4
X$187 158 29 14 25 32 20 157 gf180mcu_fd_sc_mcu9t5v0__aoi211_4
* cell instance $193 m0 *1 390.88,498.96
X$193 158 18 157 135 54 16 gf180mcu_fd_sc_mcu9t5v0__aoi21_2
* cell instance $195 r0 *1 380.8,488.88
X$195 158 18 157 130 122 16 gf180mcu_fd_sc_mcu9t5v0__aoi21_2
* cell instance $198 m0 *1 381.92,438.48
X$198 158 157 39 21 16 33 gf180mcu_fd_sc_mcu9t5v0__mux2_2
* cell instance $217 r0 *1 425.6,428.4
X$217 158 157 16 24 gf180mcu_fd_sc_mcu9t5v0__buf_4
* cell instance $219 r0 *1 428.4,478.8
X$219 157 16 81 158 114 gf180mcu_fd_sc_mcu9t5v0__and2_2
* cell instance $222 m0 *1 413.28,478.8
X$222 158 157 97 89 16 105 gf180mcu_fd_sc_mcu9t5v0__mux2_2
* cell instance $224 m0 *1 408.8,509.04
X$224 158 157 16 138 96 gf180mcu_fd_sc_mcu9t5v0__nand2_2
* cell instance $226 m0 *1 385.28,448.56
X$226 158 16 157 59 54 22 gf180mcu_fd_sc_mcu9t5v0__aoi21_2
* cell instance $228 m0 *1 362.32,488.88
X$228 157 118 158 17 24 129 53 gf180mcu_fd_sc_mcu9t5v0__oai22_2
* cell instance $232 m0 *1 344.4,438.48
X$232 158 17 36 157 35 gf180mcu_fd_sc_mcu9t5v0__or2_2
* cell instance $247 r0 *1 353.36,478.8
X$247 158 157 24 95 17 gf180mcu_fd_sc_mcu9t5v0__nand2_2
* cell instance $250 m0 *1 421.68,478.8
X$250 157 22 17 158 105 gf180mcu_fd_sc_mcu9t5v0__and2_2
* cell instance $253 r0 *1 2.24,478.8
X$253 158 157 106 17 gf180mcu_fd_sc_mcu9t5v0__buf_4
* cell instance $256 r0 *1 369.6,488.88
X$256 157 132 158 88 20 18 gf180mcu_fd_sc_mcu9t5v0__oai21_2
* cell instance $259 m0 *1 358.96,478.8
X$259 157 25 158 95 85 18 gf180mcu_fd_sc_mcu9t5v0__oai21_2
* cell instance $261 m0 *1 362.88,458.64
X$261 158 27 62 157 18 gf180mcu_fd_sc_mcu9t5v0__or2_4
* cell instance $264 m0 *1 350.56,438.48
X$264 158 24 18 157 36 gf180mcu_fd_sc_mcu9t5v0__or2_2
* cell instance $274 m0 *1 384.72,488.88
X$274 158 157 18 24 90 gf180mcu_fd_sc_mcu9t5v0__nor2_4
* cell instance $277 m0 *1 356.16,438.48
X$277 158 18 157 37 19 24 gf180mcu_fd_sc_mcu9t5v0__aoi21_2
* cell instance $280 r0 *1 420,438.48
X$280 158 157 41 19 gf180mcu_fd_sc_mcu9t5v0__inv_2
* cell instance $286 m0 *1 426.72,438.48
X$286 158 157 42 30 19 gf180mcu_fd_sc_mcu9t5v0__nand2_2
* cell instance $289 m0 *1 347.2,448.56
X$289 158 19 36 92 61 157 56 gf180mcu_fd_sc_mcu9t5v0__oai22_4
* cell instance $293 m0 *1 419.44,458.64
X$293 158 157 21 81 70 41 gf180mcu_fd_sc_mcu9t5v0__mux2_2
* cell instance $319 m0 *1 381.36,509.04
X$319 158 157 70 22 gf180mcu_fd_sc_mcu9t5v0__buf_4
* cell instance $324 r0 *1 374.64,478.8
X$324 62 157 22 38 158 111 gf180mcu_fd_sc_mcu9t5v0__and3_2
* cell instance $326 m0 *1 377.44,488.88
X$326 158 22 157 112 122 62 gf180mcu_fd_sc_mcu9t5v0__aoi21_2
* cell instance $328 m0 *1 377.44,498.96
X$328 133 157 22 88 158 134 gf180mcu_fd_sc_mcu9t5v0__and3_2
* cell instance $336 m0 *1 390.32,438.48
X$336 23 64 45 32 25 157 158 gf180mcu_fd_sc_mcu9t5v0__aoi211_2
* cell instance $338 r0 *1 384.72,438.48
X$338 158 58 53 157 24 55 gf180mcu_fd_sc_mcu9t5v0__nand3_2
* cell instance $340 m0 *1 392.56,448.56
X$340 158 59 157 75 55 24 gf180mcu_fd_sc_mcu9t5v0__aoi21_2
* cell instance $365 m0 *1 407.12,478.8
X$365 53 157 24 99 158 120 gf180mcu_fd_sc_mcu9t5v0__and3_2
* cell instance $368 r0 *1 436.8,438.48
X$368 158 157 91 25 43 gf180mcu_fd_sc_mcu9t5v0__nor2_2
* cell instance $370 r0 *1 365.68,458.64
X$370 78 158 25 87 157 83 gf180mcu_fd_sc_mcu9t5v0__or3_2
* cell instance $374 r0 *1 353.92,438.48
X$374 25 158 37 49 157 48 gf180mcu_fd_sc_mcu9t5v0__or3_2
* cell instance $376 r0 *1 369.04,438.48
X$376 158 57 58 50 25 157 46 gf180mcu_fd_sc_mcu9t5v0__nand4_2
* cell instance $393 r0 *1 397.6,498.96
X$393 158 137 144 96 25 145 90 157 gf180mcu_fd_sc_mcu9t5v0__aoi221_4
* cell instance $395 r0 *1 367.36,509.04
X$395 158 118 25 157 gf180mcu_fd_sc_mcu9t5v0__clkbuf_8
* cell instance $403 r0 *1 450.24,438.48
X$403 158 157 44 38 27 40 gf180mcu_fd_sc_mcu9t5v0__mux2_2
* cell instance $406 m0 *1 414.96,468.72
X$406 158 157 89 41 27 40 gf180mcu_fd_sc_mcu9t5v0__mux2_2
* cell instance $410 r0 *1 360.64,458.64
X$410 157 27 77 158 82 gf180mcu_fd_sc_mcu9t5v0__and2_2
* cell instance $427 r0 *1 423.36,438.48
X$427 158 157 27 42 gf180mcu_fd_sc_mcu9t5v0__buf_4
* cell instance $430 m0 *1 440.72,458.64
X$430 158 70 27 157 gf180mcu_fd_sc_mcu9t5v0__clkbuf_8
* cell instance $454 r0 *1 346.64,438.48
X$454 48 157 57 35 158 34 gf180mcu_fd_sc_mcu9t5v0__and3_2
* cell instance $480 r0 *1 439.6,478.8
X$480 157 70 38 158 117 gf180mcu_fd_sc_mcu9t5v0__and2_2
* cell instance $483 m0 *1 382.48,458.64
X$483 158 157 38 63 gf180mcu_fd_sc_mcu9t5v0__clkinv_2
* cell instance $485 r0 *1 11.2,478.8
X$485 158 157 108 38 gf180mcu_fd_sc_mcu9t5v0__buf_4
* cell instance $499 m0 *1 11.2,468.72
X$499 158 157 84 40 gf180mcu_fd_sc_mcu9t5v0__buf_4
* cell instance $505 m0 *1 406.56,448.56
X$505 158 157 40 54 gf180mcu_fd_sc_mcu9t5v0__clkinv_3
* cell instance $507 r0 *1 372.4,448.56
X$507 62 157 42 40 158 52 gf180mcu_fd_sc_mcu9t5v0__and3_2
* cell instance $526 r0 *1 407.68,458.64
X$526 157 79 158 80 69 42 gf180mcu_fd_sc_mcu9t5v0__oai21_2
* cell instance $528 m0 *1 391.44,509.04
X$528 158 157 147 73 42 86 gf180mcu_fd_sc_mcu9t5v0__mux2_2
* cell instance $530 m0 *1 391.44,458.64
X$530 157 64 158 73 65 42 gf180mcu_fd_sc_mcu9t5v0__oai21_2
* cell instance $533 m0 *1 419.44,488.88
X$533 158 42 77 157 125 gf180mcu_fd_sc_mcu9t5v0__or2_2
* cell instance $535 r0 *1 428.4,488.88
X$535 42 158 114 127 157 150 gf180mcu_fd_sc_mcu9t5v0__or3_2
* cell instance $552 r0 *1 420,498.96
X$552 158 157 139 113 42 138 gf180mcu_fd_sc_mcu9t5v0__mux2_2
* cell instance $554 m0 *1 375.2,458.64
X$554 158 42 157 51 63 53 gf180mcu_fd_sc_mcu9t5v0__aoi21_2
* cell instance $568 m0 *1 14,448.56
X$568 56 157 158 47 gf180mcu_fd_sc_mcu9t5v0__dlyb_2
* cell instance $575 m0 *1 354.48,458.64
X$575 158 157 49 76 62 82 gf180mcu_fd_sc_mcu9t5v0__mux2_2
* cell instance $585 r0 *1 360.64,498.96
X$585 53 158 78 121 157 132 gf180mcu_fd_sc_mcu9t5v0__or3_2
* cell instance $589 r0 *1 390.32,509.04
X$589 158 136 157 145 147 53 gf180mcu_fd_sc_mcu9t5v0__aoi21_2
* cell instance $604 r0 *1 348.88,468.72
X$604 158 61 102 53 104 85 157 gf180mcu_fd_sc_mcu9t5v0__aoi211_4
* cell instance $607 m0 *1 356.16,498.96
X$607 158 157 62 53 gf180mcu_fd_sc_mcu9t5v0__buf_4
* cell instance $610 r0 *1 361.2,478.8
X$610 158 78 157 129 103 110 53 gf180mcu_fd_sc_mcu9t5v0__aoi22_2
* cell instance $612 r0 *1 407.68,488.88
X$612 157 53 123 158 124 gf180mcu_fd_sc_mcu9t5v0__and2_2
* cell instance $616 m0 *1 355.6,468.72
X$616 158 103 157 83 92 93 53 gf180mcu_fd_sc_mcu9t5v0__aoi22_2
* cell instance $624 r0 *1 416.08,509.04
X$624 158 156 90 54 151 149 157 gf180mcu_fd_sc_mcu9t5v0__aoi211_4
* cell instance $652 m0 *1 2.24,458.64
X$652 72 157 158 60 gf180mcu_fd_sc_mcu9t5v0__dlyb_2
* cell instance $662 m0 *1 12.88,488.88
X$662 158 157 109 62 gf180mcu_fd_sc_mcu9t5v0__buf_4
* cell instance $672 m0 *1 374.08,498.96
X$672 158 157 62 133 gf180mcu_fd_sc_mcu9t5v0__clkinv_2
* cell instance $677 r0 *1 378,458.64
X$677 158 72 63 90 74 157 gf180mcu_fd_sc_mcu9t5v0__aoi21_4
* cell instance $681 m0 *1 388.64,468.72
X$681 158 78 86 157 64 gf180mcu_fd_sc_mcu9t5v0__or2_2
* cell instance $699 m0 *1 434.56,478.8
X$699 158 157 101 73 70 87 gf180mcu_fd_sc_mcu9t5v0__mux2_2
* cell instance $705 m0 *1 364.56,468.72
X$705 158 157 76 86 70 88 gf180mcu_fd_sc_mcu9t5v0__mux2_2
* cell instance $707 m0 *1 469.28,932.4
X$707 158 155 70 157 gf180mcu_fd_sc_mcu9t5v0__clkbuf_8
* cell instance $721 m0 *1 366.8,498.96
X$721 158 157 70 78 gf180mcu_fd_sc_mcu9t5v0__inv_3
* cell instance $724 m0 *1 904.4,458.64
X$724 158 157 71 81 gf180mcu_fd_sc_mcu9t5v0__buf_4
* cell instance $756 r0 *1 361.2,488.88
X$756 158 157 121 86 110 77 gf180mcu_fd_sc_mcu9t5v0__mux2_2
* cell instance $761 r0 *1 391.44,458.64
X$761 158 78 77 157 79 gf180mcu_fd_sc_mcu9t5v0__or2_2
* cell instance $772 m0 *1 366.8,478.8
X$772 158 157 102 88 78 77 gf180mcu_fd_sc_mcu9t5v0__mux2_2
* cell instance $778 m0 *1 406.56,488.88
X$778 158 78 80 157 123 gf180mcu_fd_sc_mcu9t5v0__or2_2
* cell instance $828 m0 *1 428.4,478.8
X$828 158 157 81 98 gf180mcu_fd_sc_mcu9t5v0__clkinv_2
* cell instance $888 r0 *1 425.04,468.72
X$888 158 100 90 98 126 91 157 gf180mcu_fd_sc_mcu9t5v0__aoi211_4
* cell instance $926 m0 *1 902.72,478.8
X$926 100 157 158 116 gf180mcu_fd_sc_mcu9t5v0__dlyb_2
* cell instance $960 r0 *1 389.2,488.88
X$960 110 158 134 130 157 131 gf180mcu_fd_sc_mcu9t5v0__or3_2
* cell instance $962 r0 *1 410.48,509.04
X$962 158 157 149 110 148 gf180mcu_fd_sc_mcu9t5v0__nor2_2
* cell instance $974 m0 *1 439.04,498.96
X$974 158 157 140 141 110 128 gf180mcu_fd_sc_mcu9t5v0__mux2_2
* cell instance $976 m0 *1 369.6,509.04
X$976 158 157 118 110 gf180mcu_fd_sc_mcu9t5v0__clkinv_3
* cell instance $979 r0 *1 380.8,478.8
X$979 158 111 112 157 119 gf180mcu_fd_sc_mcu9t5v0__or2_2
* cell instance $998 r0 *1 386.96,498.96
X$998 118 158 134 135 157 136 gf180mcu_fd_sc_mcu9t5v0__or3_2
* cell instance $1009 m0 *1 421.12,932.4
X$1009 158 157 152 118 gf180mcu_fd_sc_mcu9t5v0__buf_4
* cell instance $1032 r0 *1 417.76,488.88
X$1032 158 131 157 126 125 124 gf180mcu_fd_sc_mcu9t5v0__aoi21_2
* cell instance $1073 m0 *1 434.56,932.4
X$1073 137 157 158 153 gf180mcu_fd_sc_mcu9t5v0__dlyb_2
* cell instance $1086 r0 *1 439.04,498.96
X$1086 158 143 140 157 142 gf180mcu_fd_sc_mcu9t5v0__or2_2
* cell instance $1091 m0 *1 902.72,509.04
X$1091 142 157 158 146 gf180mcu_fd_sc_mcu9t5v0__dlyb_2
* cell instance $1130 r0 *1 442.4,922.32
X$1130 156 157 158 154 gf180mcu_fd_sc_mcu9t5v0__dlyb_2
.ENDS barrel_rotator

* cell gf180mcu_fd_sc_mcu9t5v0__aoi211_2
* pin A2
* pin A1
* pin B
* pin ZN
* pin C
* pin NWELL,VDD
* pin PWELL,VSS,gf180mcu_gnd
.SUBCKT gf180mcu_fd_sc_mcu9t5v0__aoi211_2 1 2 4 5 6 7 8
* net 1 A2
* net 2 A1
* net 4 B
* net 5 ZN
* net 6 C
* net 7 NWELL,VDD
* net 8 PWELL,VSS,gf180mcu_gnd
* device instance $1 r0 *1 0.87,3.78 pmos_5p0
M$1 5 1 3 7 pmos_5p0 L=0.5U W=3.66U AS=1.281P AD=1.3359P PS=6.89U PD=5.12U
* device instance $2 r0 *1 1.89,3.78 pmos_5p0
M$2 3 2 5 7 pmos_5p0 L=0.5U W=3.66U AS=0.9516P AD=0.9516P PS=4.7U PD=4.7U
* device instance $5 r0 *1 5.37,3.78 pmos_5p0
M$5 12 4 3 7 pmos_5p0 L=0.5U W=1.83U AS=0.8601P AD=0.2196P PS=2.77U PD=2.07U
* device instance $6 r0 *1 6.11,3.78 pmos_5p0
M$6 7 6 12 7 pmos_5p0 L=0.5U W=1.83U AS=0.2196P AD=0.549P PS=2.07U PD=2.43U
* device instance $7 r0 *1 7.21,3.78 pmos_5p0
M$7 11 6 7 7 pmos_5p0 L=0.5U W=1.83U AS=0.549P AD=0.4392P PS=2.43U PD=2.31U
* device instance $8 r0 *1 8.19,3.78 pmos_5p0
M$8 3 4 11 7 pmos_5p0 L=0.5U W=1.83U AS=0.4392P AD=0.8052P PS=2.31U PD=4.54U
* device instance $9 r0 *1 5.02,0.745 nmos_5p0
M$9 5 4 8 8 nmos_5p0 L=0.6U W=1.58U AS=0.5609P AD=0.553P PS=3.195U PD=3.77U
* device instance $10 r0 *1 6.14,0.745 nmos_5p0
M$10 8 6 5 8 nmos_5p0 L=0.6U W=1.58U AS=0.4108P AD=0.4108P PS=2.62U PD=2.62U
* device instance $13 r0 *1 0.92,0.942 nmos_5p0
M$13 10 1 8 8 nmos_5p0 L=0.6U W=1.185U AS=0.5214P AD=0.1422P PS=3.25U PD=1.425U
* device instance $14 r0 *1 1.76,0.942 nmos_5p0
M$14 5 2 10 8 nmos_5p0 L=0.6U W=1.185U AS=0.1422P AD=0.3081P PS=1.425U PD=1.705U
* device instance $15 r0 *1 2.88,0.942 nmos_5p0
M$15 9 2 5 8 nmos_5p0 L=0.6U W=1.185U AS=0.3081P AD=0.1422P PS=1.705U PD=1.425U
* device instance $16 r0 *1 3.72,0.942 nmos_5p0
M$16 8 1 9 8 nmos_5p0 L=0.6U W=1.185U AS=0.1422P AD=0.3555P PS=1.425U PD=1.885U
.ENDS gf180mcu_fd_sc_mcu9t5v0__aoi211_2

* cell gf180mcu_fd_sc_mcu9t5v0__nand4_2
* pin PWELL,VSS,gf180mcu_gnd
* pin ZN
* pin A3
* pin A2
* pin A1
* pin NWELL,VDD
* pin A4
.SUBCKT gf180mcu_fd_sc_mcu9t5v0__nand4_2 1 2 3 4 5 6 7
* net 1 PWELL,VSS,gf180mcu_gnd
* net 2 ZN
* net 3 A3
* net 4 A2
* net 5 A1
* net 6 NWELL,VDD
* net 7 A4
* device instance $1 r0 *1 0.87,4.055 pmos_5p0
M$1 6 7 2 6 pmos_5p0 L=0.5U W=2.56U AS=0.896P AD=0.896P PS=5.24U PD=5.24U
* device instance $2 r0 *1 1.89,4.055 pmos_5p0
M$2 2 3 6 6 pmos_5p0 L=0.5U W=2.56U AS=0.6656P AD=0.6656P PS=3.6U PD=3.6U
* device instance $3 r0 *1 2.91,4.055 pmos_5p0
M$3 6 4 2 6 pmos_5p0 L=0.5U W=2.56U AS=0.6656P AD=0.6656P PS=3.6U PD=3.6U
* device instance $4 r0 *1 3.93,4.055 pmos_5p0
M$4 2 5 6 6 pmos_5p0 L=0.5U W=2.56U AS=0.6656P AD=0.6656P PS=3.6U PD=3.6U
* device instance $9 r0 *1 0.92,1.005 nmos_5p0
M$9 13 7 1 1 nmos_5p0 L=0.6U W=1.32U AS=0.5808P AD=0.2442P PS=3.52U PD=1.69U
* device instance $10 r0 *1 1.89,1.005 nmos_5p0
M$10 12 3 13 1 nmos_5p0 L=0.6U W=1.32U AS=0.2442P AD=0.2442P PS=1.69U PD=1.69U
* device instance $11 r0 *1 2.86,1.005 nmos_5p0
M$11 11 4 12 1 nmos_5p0 L=0.6U W=1.32U AS=0.2442P AD=0.2772P PS=1.69U PD=1.74U
* device instance $12 r0 *1 3.88,1.005 nmos_5p0
M$12 2 5 11 1 nmos_5p0 L=0.6U W=1.32U AS=0.2772P AD=0.3432P PS=1.74U PD=1.84U
* device instance $13 r0 *1 5,1.005 nmos_5p0
M$13 9 5 2 1 nmos_5p0 L=0.6U W=1.32U AS=0.3432P AD=0.2442P PS=1.84U PD=1.69U
* device instance $14 r0 *1 5.97,1.005 nmos_5p0
M$14 8 4 9 1 nmos_5p0 L=0.6U W=1.32U AS=0.2442P AD=0.2772P PS=1.69U PD=1.74U
* device instance $15 r0 *1 6.99,1.005 nmos_5p0
M$15 10 3 8 1 nmos_5p0 L=0.6U W=1.32U AS=0.2772P AD=0.2442P PS=1.74U PD=1.69U
* device instance $16 r0 *1 7.96,1.005 nmos_5p0
M$16 1 7 10 1 nmos_5p0 L=0.6U W=1.32U AS=0.2442P AD=0.5808P PS=1.69U PD=3.52U
.ENDS gf180mcu_fd_sc_mcu9t5v0__nand4_2

* cell gf180mcu_fd_sc_mcu9t5v0__nand3_2
* pin PWELL,VSS,gf180mcu_gnd
* pin ZN
* pin A1
* pin NWELL,VDD
* pin A2
* pin A3
.SUBCKT gf180mcu_fd_sc_mcu9t5v0__nand3_2 1 2 3 4 5 6
* net 1 PWELL,VSS,gf180mcu_gnd
* net 2 ZN
* net 3 A1
* net 4 NWELL,VDD
* net 5 A2
* net 6 A3
* device instance $1 r0 *1 0.87,3.85 pmos_5p0
M$1 2 6 4 4 pmos_5p0 L=0.5U W=2.92U AS=1.022P AD=1.022P PS=5.78U PD=5.78U
* device instance $2 r0 *1 1.89,3.85 pmos_5p0
M$2 4 5 2 4 pmos_5p0 L=0.5U W=2.92U AS=0.7592P AD=0.7592P PS=3.96U PD=3.96U
* device instance $3 r0 *1 2.91,3.85 pmos_5p0
M$3 2 3 4 4 pmos_5p0 L=0.5U W=2.92U AS=0.7592P AD=0.7592P PS=3.96U PD=3.96U
* device instance $7 r0 *1 1.06,1 nmos_5p0
M$7 10 6 1 1 nmos_5p0 L=0.6U W=1.32U AS=0.5808P AD=0.1848P PS=3.52U PD=1.6U
* device instance $8 r0 *1 1.94,1 nmos_5p0
M$8 9 5 10 1 nmos_5p0 L=0.6U W=1.32U AS=0.1848P AD=0.2112P PS=1.6U PD=1.64U
* device instance $9 r0 *1 2.86,1 nmos_5p0
M$9 2 3 9 1 nmos_5p0 L=0.6U W=1.32U AS=0.2112P AD=0.3432P PS=1.64U PD=1.84U
* device instance $10 r0 *1 3.98,1 nmos_5p0
M$10 8 3 2 1 nmos_5p0 L=0.6U W=1.32U AS=0.3432P AD=0.2112P PS=1.84U PD=1.64U
* device instance $11 r0 *1 4.9,1 nmos_5p0
M$11 7 5 8 1 nmos_5p0 L=0.6U W=1.32U AS=0.2112P AD=0.2772P PS=1.64U PD=1.74U
* device instance $12 r0 *1 5.92,1 nmos_5p0
M$12 1 6 7 1 nmos_5p0 L=0.6U W=1.32U AS=0.2772P AD=0.5808P PS=1.74U PD=3.52U
.ENDS gf180mcu_fd_sc_mcu9t5v0__nand3_2

* cell gf180mcu_fd_sc_mcu9t5v0__aoi21_4
* pin PWELL,VSS,gf180mcu_gnd
* pin ZN
* pin A1
* pin A2
* pin B
* pin NWELL,VDD
.SUBCKT gf180mcu_fd_sc_mcu9t5v0__aoi21_4 1 2 3 4 5 11
* net 1 PWELL,VSS,gf180mcu_gnd
* net 2 ZN
* net 3 A1
* net 4 A2
* net 5 B
* net 11 NWELL,VDD
* device instance $1 r0 *1 1.07,3.785 pmos_5p0
M$1 2 4 10 11 pmos_5p0 L=0.5U W=7.32U AS=2.2326P AD=2.1594P PS=11.59U PD=9.68U
* device instance $2 r0 *1 2.09,3.785 pmos_5p0
M$2 10 3 2 11 pmos_5p0 L=0.5U W=7.32U AS=1.9032P AD=1.9032P PS=9.4U PD=9.4U
* device instance $9 r0 *1 9.51,3.785 pmos_5p0
M$9 11 5 10 11 pmos_5p0 L=0.5U W=7.32U AS=2.1594P AD=2.2326P PS=9.68U PD=11.59U
* device instance $13 r0 *1 1.14,1 nmos_5p0
M$13 7 4 1 1 nmos_5p0 L=0.6U W=1.32U AS=0.5808P AD=0.1584P PS=3.52U PD=1.56U
* device instance $14 r0 *1 1.98,1 nmos_5p0
M$14 2 3 7 1 nmos_5p0 L=0.6U W=1.32U AS=0.1584P AD=0.3432P PS=1.56U PD=1.84U
* device instance $15 r0 *1 3.1,1 nmos_5p0
M$15 6 3 2 1 nmos_5p0 L=0.6U W=1.32U AS=0.3432P AD=0.1584P PS=1.84U PD=1.56U
* device instance $16 r0 *1 3.94,1 nmos_5p0
M$16 1 4 6 1 nmos_5p0 L=0.6U W=1.32U AS=0.1584P AD=0.3432P PS=1.56U PD=1.84U
* device instance $17 r0 *1 5.06,1 nmos_5p0
M$17 8 4 1 1 nmos_5p0 L=0.6U W=1.32U AS=0.3432P AD=0.1584P PS=1.84U PD=1.56U
* device instance $18 r0 *1 5.9,1 nmos_5p0
M$18 2 3 8 1 nmos_5p0 L=0.6U W=1.32U AS=0.1584P AD=0.3432P PS=1.56U PD=1.84U
* device instance $19 r0 *1 7.02,1 nmos_5p0
M$19 9 3 2 1 nmos_5p0 L=0.6U W=1.32U AS=0.3432P AD=0.1584P PS=1.84U PD=1.56U
* device instance $20 r0 *1 7.86,1 nmos_5p0
M$20 1 4 9 1 nmos_5p0 L=0.6U W=1.32U AS=0.1584P AD=0.402P PS=1.56U PD=2.02U
* device instance $21 r0 *1 9.16,1.2 nmos_5p0
M$21 2 5 1 1 nmos_5p0 L=0.6U W=3.68U AS=1.1196P AD=1.1224P PS=6.34U PD=7.04U
.ENDS gf180mcu_fd_sc_mcu9t5v0__aoi21_4

* cell gf180mcu_fd_sc_mcu9t5v0__or2_4
* pin PWELL,VSS,gf180mcu_gnd
* pin A2
* pin A1
* pin NWELL,VDD
* pin Z
.SUBCKT gf180mcu_fd_sc_mcu9t5v0__or2_4 1 2 3 4 5
* net 1 PWELL,VSS,gf180mcu_gnd
* net 2 A2
* net 3 A1
* net 4 NWELL,VDD
* net 5 Z
* device instance $1 r0 *1 0.97,3.78 pmos_5p0
M$1 8 2 4 4 pmos_5p0 L=0.5U W=1.83U AS=0.8052P AD=0.52155P PS=4.54U PD=2.4U
* device instance $2 r0 *1 2.04,3.78 pmos_5p0
M$2 6 3 8 4 pmos_5p0 L=0.5U W=1.83U AS=0.52155P AD=0.5673P PS=2.4U PD=2.45U
* device instance $3 r0 *1 3.16,3.78 pmos_5p0
M$3 7 3 6 4 pmos_5p0 L=0.5U W=1.83U AS=0.5673P AD=0.52155P PS=2.45U PD=2.4U
* device instance $4 r0 *1 4.23,3.78 pmos_5p0
M$4 4 2 7 4 pmos_5p0 L=0.5U W=1.83U AS=0.52155P AD=0.7869P PS=2.4U PD=2.69U
* device instance $5 r0 *1 5.59,3.78 pmos_5p0
M$5 5 6 4 4 pmos_5p0 L=0.5U W=7.32U AS=2.3973P AD=2.4156P PS=9.94U PD=11.79U
* device instance $9 r0 *1 0.92,1.005 nmos_5p0
M$9 6 2 1 1 nmos_5p0 L=0.6U W=2.64U AS=0.924P AD=0.7788P PS=5.36U PD=3.82U
* device instance $10 r0 *1 2.04,1.005 nmos_5p0
M$10 1 3 6 1 nmos_5p0 L=0.6U W=2.64U AS=0.6864P AD=0.6864P PS=3.68U PD=3.68U
* device instance $13 r0 *1 5.54,1.005 nmos_5p0
M$13 5 6 1 1 nmos_5p0 L=0.6U W=5.28U AS=1.4652P AD=1.6104P PS=7.5U PD=9.04U
.ENDS gf180mcu_fd_sc_mcu9t5v0__or2_4

* cell gf180mcu_fd_sc_mcu9t5v0__inv_2
* pin PWELL,VSS,gf180mcu_gnd
* pin NWELL,VDD
* pin I
* pin ZN
.SUBCKT gf180mcu_fd_sc_mcu9t5v0__inv_2 1 2 3 4
* net 1 PWELL,VSS,gf180mcu_gnd
* net 2 NWELL,VDD
* net 3 I
* net 4 ZN
* device instance $1 r0 *1 0.87,3.78 pmos_5p0
M$1 4 3 2 2 pmos_5p0 L=0.5U W=3.66U AS=1.39995P AD=1.7385P PS=7.02U PD=7.39U
* device instance $3 r0 *1 0.92,1.005 nmos_5p0
M$3 4 3 1 1 nmos_5p0 L=0.6U W=2.64U AS=0.9438P AD=0.9438P PS=5.39U PD=5.39U
.ENDS gf180mcu_fd_sc_mcu9t5v0__inv_2

* cell gf180mcu_fd_sc_mcu9t5v0__inv_4
* pin PWELL,VSS,gf180mcu_gnd
* pin NWELL,VDD
* pin I
* pin ZN
.SUBCKT gf180mcu_fd_sc_mcu9t5v0__inv_4 1 2 3 4
* net 1 PWELL,VSS,gf180mcu_gnd
* net 2 NWELL,VDD
* net 3 I
* net 4 ZN
* device instance $1 r0 *1 0.87,3.78 pmos_5p0
M$1 4 3 2 2 pmos_5p0 L=0.5U W=7.32U AS=2.5071P AD=2.5071P PS=11.89U PD=11.89U
* device instance $5 r0 *1 0.92,1.005 nmos_5p0
M$5 4 3 1 1 nmos_5p0 L=0.6U W=5.28U AS=1.6104P AD=1.6104P PS=9.04U PD=9.04U
.ENDS gf180mcu_fd_sc_mcu9t5v0__inv_4

* cell gf180mcu_fd_sc_mcu9t5v0__oai22_4
* pin PWELL,VSS,gf180mcu_gnd
* pin B2
* pin B1
* pin A2
* pin A1
* pin NWELL,VDD
* pin ZN
.SUBCKT gf180mcu_fd_sc_mcu9t5v0__oai22_4 1 3 4 5 6 7 8
* net 1 PWELL,VSS,gf180mcu_gnd
* net 3 B2
* net 4 B1
* net 5 A2
* net 6 A1
* net 7 NWELL,VDD
* net 8 ZN
* device instance $1 r0 *1 0.92,3.78 pmos_5p0
M$1 9 3 7 7 pmos_5p0 L=0.5U W=1.83U AS=0.8052P AD=0.52155P PS=4.54U PD=2.4U
* device instance $2 r0 *1 1.99,3.78 pmos_5p0
M$2 8 4 9 7 pmos_5p0 L=0.5U W=1.83U AS=0.52155P AD=0.6588P PS=2.4U PD=2.55U
* device instance $3 r0 *1 3.21,3.78 pmos_5p0
M$3 11 4 8 7 pmos_5p0 L=0.5U W=1.83U AS=0.6588P AD=0.52155P PS=2.55U PD=2.4U
* device instance $4 r0 *1 4.28,3.78 pmos_5p0
M$4 7 3 11 7 pmos_5p0 L=0.5U W=1.83U AS=0.52155P AD=0.5673P PS=2.4U PD=2.45U
* device instance $5 r0 *1 5.4,3.78 pmos_5p0
M$5 10 3 7 7 pmos_5p0 L=0.5U W=1.83U AS=0.5673P AD=0.52155P PS=2.45U PD=2.4U
* device instance $6 r0 *1 6.47,3.78 pmos_5p0
M$6 8 4 10 7 pmos_5p0 L=0.5U W=1.83U AS=0.52155P AD=0.61305P PS=2.4U PD=2.5U
* device instance $7 r0 *1 7.64,3.78 pmos_5p0
M$7 12 4 8 7 pmos_5p0 L=0.5U W=1.83U AS=0.61305P AD=0.52155P PS=2.5U PD=2.4U
* device instance $8 r0 *1 8.71,3.78 pmos_5p0
M$8 7 3 12 7 pmos_5p0 L=0.5U W=1.83U AS=0.52155P AD=0.6588P PS=2.4U PD=2.55U
* device instance $9 r0 *1 9.93,3.78 pmos_5p0
M$9 13 5 7 7 pmos_5p0 L=0.5U W=1.83U AS=0.6588P AD=0.52155P PS=2.55U PD=2.4U
* device instance $10 r0 *1 11,3.78 pmos_5p0
M$10 8 6 13 7 pmos_5p0 L=0.5U W=1.83U AS=0.52155P AD=0.5673P PS=2.4U PD=2.45U
* device instance $11 r0 *1 12.12,3.78 pmos_5p0
M$11 15 6 8 7 pmos_5p0 L=0.5U W=1.83U AS=0.5673P AD=0.5673P PS=2.45U PD=2.45U
* device instance $12 r0 *1 13.24,3.78 pmos_5p0
M$12 7 5 15 7 pmos_5p0 L=0.5U W=1.83U AS=0.5673P AD=0.5673P PS=2.45U PD=2.45U
* device instance $13 r0 *1 14.36,3.78 pmos_5p0
M$13 14 5 7 7 pmos_5p0 L=0.5U W=1.83U AS=0.5673P AD=0.5673P PS=2.45U PD=2.45U
* device instance $14 r0 *1 15.48,3.78 pmos_5p0
M$14 8 6 14 7 pmos_5p0 L=0.5U W=1.83U AS=0.5673P AD=0.5673P PS=2.45U PD=2.45U
* device instance $15 r0 *1 16.6,3.78 pmos_5p0
M$15 16 6 8 7 pmos_5p0 L=0.5U W=1.83U AS=0.5673P AD=0.52155P PS=2.45U PD=2.4U
* device instance $16 r0 *1 17.67,3.78 pmos_5p0
M$16 7 5 16 7 pmos_5p0 L=0.5U W=1.83U AS=0.52155P AD=0.8052P PS=2.4U PD=4.54U
* device instance $17 r0 *1 0.92,1.005 nmos_5p0
M$17 1 3 2 1 nmos_5p0 L=0.6U W=5.28U AS=1.6104P AD=1.3728P PS=9.04U PD=7.36U
* device instance $18 r0 *1 2.04,1.005 nmos_5p0
M$18 2 4 1 1 nmos_5p0 L=0.6U W=5.28U AS=1.3728P AD=1.3728P PS=7.36U PD=7.36U
* device instance $25 r0 *1 9.88,1.005 nmos_5p0
M$25 8 5 2 1 nmos_5p0 L=0.6U W=5.28U AS=1.3728P AD=1.9272P PS=7.36U PD=9.52U
* device instance $26 r0 *1 11,1.005 nmos_5p0
M$26 2 6 8 1 nmos_5p0 L=0.6U W=5.28U AS=1.3728P AD=1.3728P PS=7.36U PD=7.36U
.ENDS gf180mcu_fd_sc_mcu9t5v0__oai22_4

* cell gf180mcu_fd_sc_mcu9t5v0__nor2_2
* pin PWELL,VSS,gf180mcu_gnd
* pin NWELL,VDD
* pin ZN
* pin A1
* pin A2
.SUBCKT gf180mcu_fd_sc_mcu9t5v0__nor2_2 1 2 3 4 5
* net 1 PWELL,VSS,gf180mcu_gnd
* net 2 NWELL,VDD
* net 3 ZN
* net 4 A1
* net 5 A2
* device instance $1 r0 *1 0.92,3.78 pmos_5p0
M$1 7 5 2 2 pmos_5p0 L=0.5U W=1.83U AS=0.8052P AD=0.5673P PS=4.54U PD=2.45U
* device instance $2 r0 *1 2.04,3.78 pmos_5p0
M$2 3 4 7 2 pmos_5p0 L=0.5U W=1.83U AS=0.5673P AD=0.52155P PS=2.45U PD=2.4U
* device instance $3 r0 *1 3.11,3.78 pmos_5p0
M$3 6 4 3 2 pmos_5p0 L=0.5U W=1.83U AS=0.52155P AD=0.61305P PS=2.4U PD=2.5U
* device instance $4 r0 *1 4.28,3.78 pmos_5p0
M$4 2 5 6 2 pmos_5p0 L=0.5U W=1.83U AS=0.61305P AD=0.8052P PS=2.5U PD=4.54U
* device instance $5 r0 *1 0.92,1.04 nmos_5p0
M$5 3 5 1 1 nmos_5p0 L=0.6U W=1.84U AS=0.644P AD=0.644P PS=4.16U PD=4.16U
* device instance $6 r0 *1 2.04,1.04 nmos_5p0
M$6 1 4 3 1 nmos_5p0 L=0.6U W=1.84U AS=0.4784P AD=0.4784P PS=2.88U PD=2.88U
.ENDS gf180mcu_fd_sc_mcu9t5v0__nor2_2

* cell gf180mcu_fd_sc_mcu9t5v0__mux4_2
* pin PWELL,VSS,gf180mcu_gnd
* pin Z
* pin S1
* pin I0
* pin I2
* pin S0
* pin I3
* pin I1
* pin NWELL,VDD
.SUBCKT gf180mcu_fd_sc_mcu9t5v0__mux4_2 1 6 7 11 12 13 14 16 18
* net 1 PWELL,VSS,gf180mcu_gnd
* net 6 Z
* net 7 S1
* net 11 I0
* net 12 I2
* net 13 S0
* net 14 I3
* net 16 I1
* net 18 NWELL,VDD
* device instance $1 r0 *1 0.97,3.62 pmos_5p0
M$1 3 12 18 18 pmos_5p0 L=0.5U W=1.28U AS=0.6848P AD=0.5504P PS=3.63U PD=2.14U
* device instance $2 r0 *1 2.33,3.62 pmos_5p0
M$2 4 13 3 18 pmos_5p0 L=0.5U W=1.28U AS=0.5504P AD=0.4544P PS=2.14U PD=1.99U
* device instance $3 r0 *1 3.54,3.62 pmos_5p0
M$3 5 17 4 18 pmos_5p0 L=0.5U W=1.28U AS=0.4544P AD=0.4032P PS=1.99U PD=1.91U
* device instance $4 r0 *1 4.67,3.62 pmos_5p0
M$4 18 14 5 18 pmos_5p0 L=0.5U W=1.28U AS=0.4032P AD=0.6432P PS=1.91U PD=2.4U
* device instance $5 r0 *1 6.13,3.62 pmos_5p0
M$5 6 2 18 18 pmos_5p0 L=0.5U W=2.56U AS=0.976P AD=0.896P PS=4.2U PD=5.24U
* device instance $7 r0 *1 9.555,3.62 pmos_5p0
M$7 2 15 4 18 pmos_5p0 L=0.5U W=1.28U AS=0.7616P AD=0.4672P PS=3.75U PD=2.01U
* device instance $8 r0 *1 10.785,3.62 pmos_5p0
M$8 8 7 2 18 pmos_5p0 L=0.5U W=1.28U AS=0.4672P AD=0.5632P PS=2.01U PD=3.44U
* device instance $9 r0 *1 12.605,3.62 pmos_5p0
M$9 18 7 15 18 pmos_5p0 L=0.5U W=1.28U AS=0.5632P AD=0.3712P PS=3.44U PD=1.86U
* device instance $10 r0 *1 13.685,3.62 pmos_5p0
M$10 9 16 18 18 pmos_5p0 L=0.5U W=1.28U AS=0.3712P AD=0.3776P PS=1.86U PD=1.87U
* device instance $11 r0 *1 14.775,3.62 pmos_5p0
M$11 8 17 9 18 pmos_5p0 L=0.5U W=1.28U AS=0.3776P AD=0.3328P PS=1.87U PD=1.8U
* device instance $12 r0 *1 15.795,3.62 pmos_5p0
M$12 10 13 8 18 pmos_5p0 L=0.5U W=1.28U AS=0.3328P AD=0.416P PS=1.8U PD=1.93U
* device instance $13 r0 *1 16.945,3.62 pmos_5p0
M$13 18 11 10 18 pmos_5p0 L=0.5U W=1.28U AS=0.416P AD=0.3968P PS=1.93U PD=1.9U
* device instance $14 r0 *1 18.065,3.62 pmos_5p0
M$14 17 13 18 18 pmos_5p0 L=0.5U W=1.28U AS=0.3968P AD=0.5632P PS=1.9U PD=3.44U
* device instance $15 r0 *1 12.515,1.18 nmos_5p0
M$15 1 7 15 1 nmos_5p0 L=0.6U W=0.8U AS=0.352P AD=0.208P PS=2.48U PD=1.32U