
* cell configurable_comparator
* pin b[4]
* pin a[4]
* pin a[5]
* pin b[5]
* pin b[10]
* pin a[10]
* pin b[11]
* pin a[11]
* pin b[9]
* pin a[9]
* pin PWELL
* pin NWELL
* pin b[8]
* pin a[8]
* pin a[0]
* pin b[0]
* pin b[1]
* pin a[1]
* pin b[2]
* pin a[2]
* pin a[6]
* pin b[6]
* pin a[7]
* pin a[15]
* pin signed_mode
* pin b[7]
* pin b[15]
* pin a[14]
* pin a[13]
* pin b[13]
* pin b[14]
* pin a[12]
* pin b[12]
* pin op_sel[0]
* pin b[3]
* pin a[3]
* pin result
* pin op_sel[2]
* pin op_sel[1]
.SUBCKT configurable_comparator 1 2 3 4 5 6 7 8 9 10 15 23 47 48 51 52 54 55 65
+ 66 79 87 88 100 109 110 111 125 126 127 131 155 156 157 158 159 160 161 162
* net 1 b[4]
* net 2 a[4]
* net 3 a[5]
* net 4 b[5]
* net 5 b[10]
* net 6 a[10]
* net 7 b[11]
* net 8 a[11]
* net 9 b[9]
* net 10 a[9]
* net 15 PWELL
* net 23 NWELL
* net 47 b[8]
* net 48 a[8]
* net 51 a[0]
* net 52 b[0]
* net 54 b[1]
* net 55 a[1]
* net 65 b[2]
* net 66 a[2]
* net 79 a[6]
* net 87 b[6]
* net 88 a[7]
* net 100 a[15]
* net 109 signed_mode
* net 110 b[7]
* net 111 b[15]
* net 125 a[14]
* net 126 a[13]
* net 127 b[13]
* net 131 b[14]
* net 155 a[12]
* net 156 b[12]
* net 157 op_sel[0]
* net 158 b[3]
* net 159 a[3]
* net 160 result
* net 161 op_sel[2]
* net 162 op_sel[1]
* cell instance $2 r0 *1 67.07,1.4
X$2 1 15 23 16 BUF_X1
* cell instance $8 r0 *1 68.21,1.4
X$8 2 15 23 24 BUF_X1
* cell instance $15 r0 *1 68.97,1.4
X$15 3 15 23 18 BUF_X1
* cell instance $20 r0 *1 70.11,1.4
X$20 4 15 23 19 BUF_X1
* cell instance $26 r0 *1 70.87,1.4
X$26 5 15 23 11 BUF_X1
* cell instance $32 r0 *1 71.63,1.4
X$32 6 15 23 12 BUF_X1
* cell instance $38 r0 *1 72.2,1.4
X$38 7 15 23 13 BUF_X1
* cell instance $44 r0 *1 72.96,1.4
X$44 8 15 23 21 BUF_X1
* cell instance $50 r0 *1 75.05,1.4
X$50 9 15 23 26 BUF_X1
* cell instance $60 r0 *1 76.19,1.4
X$60 10 15 23 14 BUF_X1
* cell instance $63 m0 *1 71.63,4.2
X$63 11 15 23 29 INV_X1
* cell instance $66 r0 *1 71.44,4.2
X$66 12 29 41 23 15 33 HA_X1
* cell instance $69 m0 *1 72.39,4.2
X$69 13 15 23 20 INV_X1
* cell instance $72 m0 *1 75.81,4.2
X$72 14 22 37 23 15 38 HA_X1
* cell instance $100 m0 *1 1.33,88.2
X$100 131 15 23 132 BUF_X1
* cell instance $102 m0 *1 1.9,88.2
X$102 132 15 23 135 INV_X1
* cell instance $104 m0 *1 2.47,88.2
X$104 125 15 23 137 BUF_X1
* cell instance $105 m0 *1 3.04,88.2
X$105 137 135 122 23 15 136 HA_X1
* cell instance $120 m0 *1 74.29,88.2
X$120 130 140 133 23 15 139 HA_X1
* cell instance $137 r0 *1 1.52,88.2
X$137 127 15 23 142 BUF_X1
* cell instance $139 r0 *1 2.28,88.2
X$139 142 15 23 128 INV_X1
* cell instance $184 m0 *1 1.33,79.8
X$184 87 15 23 89 BUF_X1
* cell instance $186 m0 *1 1.9,79.8
X$186 88 15 23 106 BUF_X1
* cell instance $187 m0 *1 2.47,79.8
X$187 101 15 23 102 INV_X1
* cell instance $188 m0 *1 2.85,79.8
X$188 106 102 73 23 15 90 HA_X1
* cell instance $191 m0 *1 5.7,79.8
X$191 109 15 23 108 BUF_X1
* cell instance $196 r0 *1 1.9,79.8
X$196 110 15 23 101 BUF_X1
* cell instance $203 r0 *1 3.8,79.8
X$203 111 15 23 117 BUF_X1
* cell instance $205 m0 *1 6.84,79.8
X$205 100 15 23 98 BUF_X1
* cell instance $217 m0 *1 60.61,79.8
X$217 108 15 23 114 INV_X1
* cell instance $232 m0 *1 64.6,79.8
X$232 117 15 23 107 INV_X1
* cell instance $234 m0 *1 64.98,79.8
X$234 98 107 112 23 15 103 HA_X1
* cell instance $235 m0 *1 66.88,79.8
X$235 99 118 103 112 113 120 23 15 AOI221_X2
* cell instance $239 m0 *1 71.44,79.8
X$239 120 91 92 83 104 15 23 OAI211_X2
* cell instance $254 r0 *1 65.93,79.8
X$254 114 112 15 23 119 NOR2_X1
* cell instance $258 r0 *1 71.82,79.8
X$258 104 119 15 23 121 XNOR2_X2
* cell instance $264 r0 *1 89.49,79.8
X$264 116 15 23 105 INV_X1
* cell instance $278 m0 *1 139.08,79.8
X$278 115 105 75 23 15 96 HA_X1
* cell instance $333 r0 *1 66.69,1.4
X$333 16 15 23 25 INV_X1
* cell instance $1108 r0 *1 145.92,71.4
X$1108 56 57 53 23 15 59 HA_X1
* cell instance $1113 r0 *1 148.39,71.4
X$1113 50 15 23 56 INV_X1
* cell instance $1115 m0 *1 148.58,71.4
X$1115 51 15 23 50 BUF_X1
* cell instance $1119 r0 *1 149.34,71.4
X$1119 52 15 23 57 BUF_X1
* cell instance $1121 r0 *1 150.1,71.4
X$1121 55 15 23 60 BUF_X1
* cell instance $1123 r0 *1 150.67,71.4
X$1123 54 15 23 61 BUF_X1
* cell instance $1237 m0 *1 74.67,91
X$1237 141 15 23 140 INV_X1
* cell instance $1377 m0 *1 66.12,4.2
X$1377 24 25 30 23 15 17 HA_X1
* cell instance $1380 r0 *1 67.83,4.2
X$1380 32 28 17 15 31 23 AOI21_X2
* cell instance $1381 m0 *1 68.02,4.2
X$1381 18 27 28 23 15 32 HA_X1
* cell instance $1383 m0 *1 69.92,4.2
X$1383 19 15 23 27 INV_X1
* cell instance $1389 m0 *1 72.77,4.2
X$1389 21 20 35 23 15 34 HA_X1
* cell instance $1392 m0 *1 75.43,4.2
X$1392 26 15 23 22 INV_X1
* cell instance $1609 m0 *1 72.96,7
X$1609 34 35 33 15 36 23 AOI21_X1
* cell instance $1610 r0 *1 73.15,7
X$1610 36 40 43 23 15 42 OAI21_X2
* cell instance $1611 m0 *1 73.72,7
X$1611 41 35 15 23 43 NAND2_X1
* cell instance $1614 r0 *1 76,7
X$1614 38 37 39 15 40 23 AOI21_X1
* cell instance $2523 r0 *1 1.71,85.4
X$2523 126 15 23 134 BUF_X1
* cell instance $2525 r0 *1 2.66,85.4
X$2525 134 128 123 23 15 138 HA_X1
* cell instance $2526 r0 *1 4.56,85.4
X$2526 136 122 138 15 124 23 AOI21_X2
* cell instance $2549 r0 *1 67.26,85.4
X$2549 124 129 15 23 113 NAND2_X1
* cell instance $2550 r0 *1 67.83,85.4
X$2550 139 123 122 15 23 129 NAND3_X1
* cell instance $2552 r0 *1 68.59,85.4
X$2552 15 123 133 112 122 82 23 NAND4_X4
* cell instance $3266 r0 *1 79.23,147
X$3266 144 15 23 146 INV_X1
* cell instance $3267 r0 *1 79.61,147
X$3267 85 144 15 23 143 NAND2_X1
* cell instance $3636 r0 *1 82.08,65.8
X$3636 46 15 23 49 INV_X1
* cell instance $3664 r0 *1 147.82,65.8
X$3664 47 15 23 46 BUF_X1
* cell instance $3666 r0 *1 148.77,65.8
X$3666 48 15 23 44 BUF_X2
* cell instance $3781 m0 *1 146.68,74.2
X$3781 58 15 23 70 INV_X1
* cell instance $3782 m0 *1 147.06,74.2
X$3782 70 59 64 23 71 15 OAI21_X1
* cell instance $3822 m0 *1 148.39,74.2
X$3822 68 15 23 64 INV_X1
* cell instance $3824 m0 *1 148.77,74.2
X$3824 60 62 58 23 15 68 HA_X1
* cell instance $3825 m0 *1 150.67,74.2
X$3825 61 15 23 62 INV_X1
* cell instance $3845 m0 *1 74.29,9.8
X$3845 15 41 45 35 37 81 23 NAND4_X4
* cell instance $3880 r0 *1 81.13,9.8
X$3880 44 49 45 23 15 39 HA_X1
* cell instance $3918 r0 *1 1.33,77
X$3918 79 15 23 84 BUF_X1
* cell instance $3919 r0 *1 1.9,77
X$3919 89 15 23 95 INV_X1
* cell instance $3921 r0 *1 2.66,77
X$3921 84 95 72 23 15 97 HA_X1
* cell instance $3923 r0 *1 4.75,77
X$3923 90 73 97 15 86 23 AOI21_X2
* cell instance $3938 m0 *1 66.31,77
X$3938 28 72 73 30 15 67 23 NAND4_X2
* cell instance $3953 r0 *1 66.5,77
X$3953 72 73 15 23 80 NAND2_X1
* cell instance $3954 r0 *1 67.07,77
X$3954 80 31 86 23 118 15 OAI21_X1
* cell instance $3959 r0 *1 70.68,77
X$3959 81 82 15 23 99 NOR2_X1
* cell instance $3961 r0 *1 71.44,77
X$3961 82 81 67 15 23 92 OR3_X1
* cell instance $3962 r0 *1 72.39,77
X$3962 42 93 15 23 91 NAND2_X1
* cell instance $3963 r0 *1 72.96,77
X$3963 82 15 23 93 INV_X1
* cell instance $3967 r0 *1 74.67,77
X$3967 15 82 81 67 94 85 23 NOR4_X4
* cell instance $3983 r0 *1 143.07,77
X$3983 74 71 96 75 78 83 23 15 AOI221_X2
* cell instance $3984 m0 *1 144.4,77
X$3984 15 58 63 75 53 94 23 NAND4_X4
* cell instance $3985 m0 *1 143.64,77
X$3985 75 63 23 15 74 AND2_X1
* cell instance $3986 m0 *1 147.82,77
X$3986 77 69 63 23 15 78 HA_X1
* cell instance $3987 m0 *1 149.72,77
X$3987 76 15 23 69 INV_X1
* cell instance $3988 m0 *1 150.1,77
X$3988 66 15 23 77 BUF_X1
* cell instance $3989 m0 *1 150.67,77
X$3989 65 15 23 76 BUF_X1
* cell instance $4017 m0 *1 78.09,149.8
X$4017 121 85 146 15 23 150 MUX2_X1
* cell instance $4018 m0 *1 79.42,149.8
X$4018 146 85 23 15 145 XNOR2_X1
* cell instance $4035 r0 *1 75.24,149.8
X$4035 155 15 23 130 BUF_X1
* cell instance $4036 r0 *1 75.81,149.8
X$4036 156 15 23 141 BUF_X1
* cell instance $4039 r0 *1 79.61,149.8
X$4039 157 15 23 144 BUF_X1
* cell instance $4041 m0 *1 81.51,149.8
X$4041 121 149 154 23 151 15 OAI21_X1
* cell instance $4042 m0 *1 80.94,149.8
X$4042 143 147 15 23 149 NAND2_X1
* cell instance $4044 m0 *1 83.03,149.8
X$4044 153 148 147 15 154 23 AOI21_X1
* cell instance $4045 m0 *1 83.79,149.8
X$4045 145 147 148 15 23 153 NOR3_X1
* cell instance $4060 r0 *1 81.7,149.8
X$4060 151 148 150 15 152 23 AOI21_X1
* cell instance $4061 r0 *1 82.46,149.8
X$4061 152 15 23 160 BUF_X1
* cell instance $4062 r0 *1 83.03,149.8
X$4062 161 15 23 148 BUF_X1
* cell instance $4063 r0 *1 83.6,149.8
X$4063 162 15 23 147 BUF_X1
* cell instance $4066 r0 *1 85.31,149.8
X$4066 158 15 23 116 BUF_X1
* cell instance $4069 r0 *1 87.59,149.8
X$4069 159 15 23 115 BUF_X2
.ENDS configurable_comparator

* cell OAI21_X2
* pin A
* pin B2
* pin B1
* pin NWELL,VDD
* pin PWELL,VSS
* pin ZN
.SUBCKT OAI21_X2 1 2 3 5 6 7
* net 1 A
* net 2 B2
* net 3 B1
* net 5 NWELL,VDD
* net 6 PWELL,VSS
* net 7 ZN
* device instance $1 r0 *1 0.17,0.995 PMOS_VTL
M$1 7 1 5 5 PMOS_VTL L=0.05U W=1.26U AS=0.11025P AD=0.0882P PS=2.24U PD=1.54U
* device instance $3 r0 *1 0.55,0.995 PMOS_VTL
M$3 8 2 5 5 PMOS_VTL L=0.05U W=0.63U AS=0.0441P AD=0.0441P PS=0.77U PD=0.77U
* device instance $4 r0 *1 0.74,0.995 PMOS_VTL
M$4 7 3 8 5 PMOS_VTL L=0.05U W=0.63U AS=0.0441P AD=0.0441P PS=0.77U PD=0.77U
* device instance $5 r0 *1 0.93,0.995 PMOS_VTL
M$5 9 3 7 5 PMOS_VTL L=0.05U W=0.63U AS=0.0441P AD=0.0441P PS=0.77U PD=0.77U
* device instance $6 r0 *1 1.12,0.995 PMOS_VTL
M$6 5 2 9 5 PMOS_VTL L=0.05U W=0.63U AS=0.0441P AD=0.06615P PS=0.77U PD=1.47U
* device instance $7 r0 *1 0.17,0.2975 NMOS_VTL
M$7 6 1 4 6 NMOS_VTL L=0.05U W=0.83U AS=0.072625P AD=0.0581P PS=1.595U PD=1.11U
* device instance $9 r0 *1 0.55,0.2975 NMOS_VTL
M$9 7 2 4 6 NMOS_VTL L=0.05U W=0.83U AS=0.0581P AD=0.072625P PS=1.11U PD=1.595U
* device instance $10 r0 *1 0.74,0.2975 NMOS_VTL
M$10 4 3 7 6 NMOS_VTL L=0.05U W=0.83U AS=0.0581P AD=0.0581P PS=1.11U PD=1.11U
.ENDS OAI21_X2

* cell XNOR2_X2
* pin A
* pin B
* pin PWELL,VSS
* pin NWELL,VDD
* pin ZN
.SUBCKT XNOR2_X2 2 3 4 5 7
* net 2 A
* net 3 B
* net 4 PWELL,VSS
* net 5 NWELL,VDD
* net 7 ZN
* device instance $1 r0 *1 1.135,0.995 PMOS_VTL
M$1 7 2 8 5 PMOS_VTL L=0.05U W=0.63U AS=0.06615P AD=0.0441P PS=1.47U PD=0.77U
* device instance $2 r0 *1 1.325,0.995 PMOS_VTL
M$2 9 2 7 5 PMOS_VTL L=0.05U W=0.63U AS=0.0441P AD=0.0441P PS=0.77U PD=0.77U
* device instance $3 r0 *1 1.515,0.995 PMOS_VTL
M$3 5 3 9 5 PMOS_VTL L=0.05U W=0.63U AS=0.0441P AD=0.0441P PS=0.77U PD=0.77U
* device instance $4 r0 *1 1.705,0.995 PMOS_VTL
M$4 8 3 5 5 PMOS_VTL L=0.05U W=0.63U AS=0.0441P AD=0.06615P PS=0.77U PD=1.47U
* device instance $5 r0 *1 0.18,0.995 PMOS_VTL
M$5 7 1 5 5 PMOS_VTL L=0.05U W=1.26U AS=0.11025P AD=0.0882P PS=2.24U PD=1.54U
* device instance $7 r0 *1 0.56,0.995 PMOS_VTL
M$7 1 3 5 5 PMOS_VTL L=0.05U W=0.63U AS=0.0441P AD=0.0441P PS=0.77U PD=0.77U
* device instance $8 r0 *1 0.75,0.995 PMOS_VTL
M$8 5 2 1 5 PMOS_VTL L=0.05U W=0.63U AS=0.0441P AD=0.06615P PS=0.77U PD=1.47U
* device instance $9 r0 *1 1.135,0.2975 NMOS_VTL
M$9 6 2 7 4 NMOS_VTL L=0.05U W=0.83U AS=0.072625P AD=0.0581P PS=1.595U PD=1.11U
* device instance $11 r0 *1 1.515,0.2975 NMOS_VTL
M$11 6 3 7 4 NMOS_VTL L=0.05U W=0.83U AS=0.0581P AD=0.072625P PS=1.11U PD=1.595U
* device instance $13 r0 *1 0.18,0.2975 NMOS_VTL
M$13 6 1 4 4 NMOS_VTL L=0.05U W=0.83U AS=0.072625P AD=0.0581P PS=1.595U PD=1.11U
* device instance $15 r0 *1 0.56,0.2975 NMOS_VTL
M$15 10 3 4 4 NMOS_VTL L=0.05U W=0.415U AS=0.02905P AD=0.02905P PS=0.555U
+ PD=0.555U
* device instance $16 r0 *1 0.75,0.2975 NMOS_VTL
M$16 1 2 10 4 NMOS_VTL L=0.05U W=0.415U AS=0.02905P AD=0.043575P PS=0.555U
+ PD=1.04U
.ENDS XNOR2_X2

* cell OAI211_X2
* pin A
* pin B
* pin C2
* pin C1
* pin ZN
* pin PWELL,VSS
* pin NWELL,VDD
.SUBCKT OAI211_X2 1 2 3 4 6 7 8
* net 1 A
* net 2 B
* net 3 C2
* net 4 C1
* net 6 ZN
* net 7 PWELL,VSS
* net 8 NWELL,VDD
* device instance $1 r0 *1 0.205,0.995 PMOS_VTL
M$1 6 1 8 8 PMOS_VTL L=0.05U W=1.26U AS=0.111825P AD=0.0882P PS=2.245U PD=1.54U
* device instance $2 r0 *1 0.395,0.995 PMOS_VTL
M$2 8 2 6 8 PMOS_VTL L=0.05U W=1.26U AS=0.0882P AD=0.089775P PS=1.54U PD=1.545U
* device instance $5 r0 *1 0.97,0.995 PMOS_VTL
M$5 10 3 8 8 PMOS_VTL L=0.05U W=0.63U AS=0.0441P AD=0.0441P PS=0.77U PD=0.77U
* device instance $6 r0 *1 1.16,0.995 PMOS_VTL
M$6 6 4 10 8 PMOS_VTL L=0.05U W=0.63U AS=0.0441P AD=0.0441P PS=0.77U PD=0.77U
* device instance $7 r0 *1 1.35,0.995 PMOS_VTL
M$7 9 4 6 8 PMOS_VTL L=0.05U W=0.63U AS=0.0441P AD=0.0441P PS=0.77U PD=0.77U
* device instance $8 r0 *1 1.54,0.995 PMOS_VTL
M$8 8 3 9 8 PMOS_VTL L=0.05U W=0.63U AS=0.0441P AD=0.06615P PS=0.77U PD=1.47U
* device instance $9 r0 *1 0.205,0.2975 NMOS_VTL
M$9 12 1 5 7 NMOS_VTL L=0.05U W=0.415U AS=0.043575P AD=0.02905P PS=1.04U
+ PD=0.555U
* device instance $10 r0 *1 0.395,0.2975 NMOS_VTL
M$10 7 2 12 7 NMOS_VTL L=0.05U W=0.415U AS=0.02905P AD=0.02905P PS=0.555U
+ PD=0.555U
* device instance $11 r0 *1 0.585,0.2975 NMOS_VTL
M$11 11 2 7 7 NMOS_VTL L=0.05U W=0.415U AS=0.02905P AD=0.0300875P PS=0.555U
+ PD=0.56U
* device instance $12 r0 *1 0.78,0.2975 NMOS_VTL
M$12 5 1 11 7 NMOS_VTL L=0.05U W=0.415U AS=0.0300875P AD=0.02905P PS=0.56U
+ PD=0.555U
* device instance $13 r0 *1 0.97,0.2975 NMOS_VTL
M$13 6 3 5 7 NMOS_VTL L=0.05U W=0.83U AS=0.0581P AD=0.072625P PS=1.11U PD=1.595U
* device instance $14 r0 *1 1.16,0.2975 NMOS_VTL
M$14 5 4 6 7 NMOS_VTL L=0.05U W=0.83U AS=0.0581P AD=0.0581P PS=1.11U PD=1.11U
.ENDS OAI211_X2

* cell OR3_X1
* pin A1
* pin A2
* pin A3
* pin PWELL,VSS
* pin NWELL,VDD
* pin ZN
.SUBCKT OR3_X1 1 2 3 5 6 7
* net 1 A1
* net 2 A2
* net 3 A3
* net 5 PWELL,VSS
* net 6 NWELL,VDD
* net 7 ZN
* device instance $1 r0 *1 0.17,1.1525 PMOS_VTL
M$1 9 1 4 6 PMOS_VTL L=0.05U W=0.315U AS=0.033075P AD=0.02205P PS=0.84U
+ PD=0.455U
* device instance $2 r0 *1 0.36,1.1525 PMOS_VTL
M$2 8 2 9 6 PMOS_VTL L=0.05U W=0.315U AS=0.02205P AD=0.02205P PS=0.455U
+ PD=0.455U
* device instance $3 r0 *1 0.55,1.1525 PMOS_VTL
M$3 8 3 6 6 PMOS_VTL L=0.05U W=0.315U AS=0.033075P AD=0.02205P PS=0.77U
+ PD=0.455U
* device instance $4 r0 *1 0.74,0.995 PMOS_VTL
M$4 7 4 6 6 PMOS_VTL L=0.05U W=0.63U AS=0.033075P AD=0.06615P PS=0.77U PD=1.47U
* device instance $5 r0 *1 0.17,0.195 NMOS_VTL
M$5 5 1 4 5 NMOS_VTL L=0.05U W=0.21U AS=0.02205P AD=0.0147P PS=0.63U PD=0.35U
* device instance $6 r0 *1 0.36,0.195 NMOS_VTL
M$6 4 2 5 5 NMOS_VTL L=0.05U W=0.21U AS=0.0147P AD=0.0147P PS=0.35U PD=0.35U
* device instance $7 r0 *1 0.55,0.195 NMOS_VTL
M$7 5 3 4 5 NMOS_VTL L=0.05U W=0.21U AS=0.0147P AD=0.021875P PS=0.35U PD=0.555U
* device instance $8 r0 *1 0.74,0.2975 NMOS_VTL
M$8 7 4 5 5 NMOS_VTL L=0.05U W=0.415U AS=0.021875P AD=0.043575P PS=0.555U
+ PD=1.04U
.ENDS OR3_X1

* cell NAND3_X1
* pin A3
* pin A2
* pin A1
* pin PWELL,VSS
* pin NWELL,VDD
* pin ZN
.SUBCKT NAND3_X1 1 2 3 4 5 6
* net 1 A3
* net 2 A2
* net 3 A1
* net 4 PWELL,VSS
* net 5 NWELL,VDD
* net 6 ZN
* device instance $1 r0 *1 0.17,0.995 PMOS_VTL
M$1 6 1 5 5 PMOS_VTL L=0.05U W=0.63U AS=0.06615P AD=0.0441P PS=1.47U PD=0.77U
* device instance $2 r0 *1 0.36,0.995 PMOS_VTL
M$2 5 2 6 5 PMOS_VTL L=0.05U W=0.63U AS=0.0441P AD=0.0441P PS=0.77U PD=0.77U
* device instance $3 r0 *1 0.55,0.995 PMOS_VTL
M$3 6 3 5 5 PMOS_VTL L=0.05U W=0.63U AS=0.0441P AD=0.06615P PS=0.77U PD=1.47U
* device instance $4 r0 *1 0.17,0.2975 NMOS_VTL
M$4 8 1 4 4 NMOS_VTL L=0.05U W=0.415U AS=0.043575P AD=0.02905P PS=1.04U
+ PD=0.555U
* device instance $5 r0 *1 0.36,0.2975 NMOS_VTL
M$5 7 2 8 4 NMOS_VTL L=0.05U W=0.415U AS=0.02905P AD=0.02905P PS=0.555U
+ PD=0.555U
* device instance $6 r0 *1 0.55,0.2975 NMOS_VTL
M$6 6 3 7 4 NMOS_VTL L=0.05U W=0.415U AS=0.02905P AD=0.043575P PS=0.555U
+ PD=1.04U
.ENDS NAND3_X1

* cell NOR2_X1
* pin A2
* pin A1
* pin PWELL,VSS
* pin NWELL,VDD
* pin ZN
.SUBCKT NOR2_X1 1 2 3 4 5
* net 1 A2
* net 2 A1
* net 3 PWELL,VSS
* net 4 NWELL,VDD
* net 5 ZN
* device instance $1 r0 *1 0.185,0.995 PMOS_VTL
M$1 6 1 4 4 PMOS_VTL L=0.05U W=0.63U AS=0.06615P AD=0.0441P PS=1.47U PD=0.77U
* device instance $2 r0 *1 0.375,0.995 PMOS_VTL
M$2 5 2 6 4 PMOS_VTL L=0.05U W=0.63U AS=0.0441P AD=0.06615P PS=0.77U PD=1.47U
* device instance $3 r0 *1 0.185,0.2975 NMOS_VTL
M$3 5 1 3 3 NMOS_VTL L=0.05U W=0.415U AS=0.043575P AD=0.02905P PS=1.04U
+ PD=0.555U
* device instance $4 r0 *1 0.375,0.2975 NMOS_VTL
M$4 3 2 5 3 NMOS_VTL L=0.05U W=0.415U AS=0.02905P AD=0.043575P PS=0.555U
+ PD=1.04U
.ENDS NOR2_X1

* cell AOI21_X2
* pin A
* pin B2
* pin B1
* pin PWELL,VSS
* pin ZN
* pin NWELL,VDD
.SUBCKT AOI21_X2 1 2 3 4 6 7
* net 1 A
* net 2 B2
* net 3 B1
* net 4 PWELL,VSS
* net 6 ZN
* net 7 NWELL,VDD
* device instance $1 r0 *1 0.21,0.995 PMOS_VTL
M$1 7 1 5 7 PMOS_VTL L=0.05U W=1.26U AS=0.11025P AD=0.0882P PS=2.24U PD=1.54U
* device instance $3 r0 *1 0.59,0.995 PMOS_VTL
M$3 6 2 5 7 PMOS_VTL L=0.05U W=1.26U AS=0.0882P AD=0.11025P PS=1.54U PD=2.24U
* device instance $4 r0 *1 0.78,0.995 PMOS_VTL
M$4 5 3 6 7 PMOS_VTL L=0.05U W=1.26U AS=0.0882P AD=0.0882P PS=1.54U PD=1.54U
* device instance $7 r0 *1 0.21,0.2975 NMOS_VTL
M$7 6 1 4 4 NMOS_VTL L=0.05U W=0.83U AS=0.072625P AD=0.0581P PS=1.595U PD=1.11U
* device instance $9 r0 *1 0.59,0.2975 NMOS_VTL
M$9 9 2 4 4 NMOS_VTL L=0.05U W=0.415U AS=0.02905P AD=0.02905P PS=0.555U
+ PD=0.555U
* device instance $10 r0 *1 0.78,0.2975 NMOS_VTL
M$10 6 3 9 4 NMOS_VTL L=0.05U W=0.415U AS=0.02905P AD=0.02905P PS=0.555U
+ PD=0.555U
* device instance $11 r0 *1 0.97,0.2975 NMOS_VTL
M$11 8 3 6 4 NMOS_VTL L=0.05U W=0.415U AS=0.02905P AD=0.02905P PS=0.555U
+ PD=0.555U
* device instance $12 r0 *1 1.16,0.2975 NMOS_VTL
M$12 4 2 8 4 NMOS_VTL L=0.05U W=0.415U AS=0.02905P AD=0.043575P PS=0.555U
+ PD=1.04U
.ENDS AOI21_X2

* cell AOI221_X2
* pin B1
* pin B2
* pin A
* pin C2
* pin C1
* pin ZN
* pin NWELL,VDD
* pin PWELL,VSS
.SUBCKT AOI221_X2 1 2 3 4 5 6 8 9
* net 1 B1
* net 2 B2
* net 3 A
* net 4 C2
* net 5 C1
* net 6 ZN
* net 8 NWELL,VDD
* net 9 PWELL,VSS
* device instance $1 r0 *1 0.17,0.995 PMOS_VTL
M$1 7 3 10 8 PMOS_VTL L=0.05U W=1.26U AS=0.11025P AD=0.09135P PS=2.24U PD=1.55U
* device instance $2 r0 *1 0.36,0.995 PMOS_VTL
M$2 8 1 7 8 PMOS_VTL L=0.05U W=1.26U AS=0.0882P AD=0.0882P PS=1.54U PD=1.54U
* device instance $3 r0 *1 0.55,0.995 PMOS_VTL
M$3 7 2 8 8 PMOS_VTL L=0.05U W=1.26U AS=0.0882P AD=0.0882P PS=1.54U PD=1.54U
* device instance $7 r0 *1 1.32,0.995 PMOS_VTL
M$7 6 4 10 8 PMOS_VTL L=0.05U W=1.26U AS=0.09135P AD=0.11025P PS=1.55U PD=2.24U
* device instance $8 r0 *1 1.51,0.995 PMOS_VTL
M$8 10 5 6 8 PMOS_VTL L=0.05U W=1.26U AS=0.0882P AD=0.0882P PS=1.54U PD=1.54U
* device instance $11 r0 *1 0.17,0.2975 NMOS_VTL
M$11 6 3 9 9 NMOS_VTL L=0.05U W=0.83U AS=0.072625P AD=0.060175P PS=1.595U
+ PD=1.12U
* device instance $12 r0 *1 0.36,0.2975 NMOS_VTL
M$12 14 1 6 9 NMOS_VTL L=0.05U W=0.415U AS=0.02905P AD=0.02905P PS=0.555U
+ PD=0.555U
* device instance $13 r0 *1 0.55,0.2975 NMOS_VTL
M$13 9 2 14 9 NMOS_VTL L=0.05U W=0.415U AS=0.02905P AD=0.02905P PS=0.555U
+ PD=0.555U
* device instance $14 r0 *1 0.74,0.2975 NMOS_VTL
M$14 13 2 9 9 NMOS_VTL L=0.05U W=0.415U AS=0.02905P AD=0.02905P PS=0.555U
+ PD=0.555U
* device instance $15 r0 *1 0.93,0.2975 NMOS_VTL
M$15 6 1 13 9 NMOS_VTL L=0.05U W=0.415U AS=0.02905P AD=0.02905P PS=0.555U
+ PD=0.555U
* device instance $17 r0 *1 1.32,0.2975 NMOS_VTL
M$17 12 4 9 9 NMOS_VTL L=0.05U W=0.415U AS=0.031125P AD=0.02905P PS=0.565U
+ PD=0.555U
* device instance $18 r0 *1 1.51,0.2975 NMOS_VTL
M$18 6 5 12 9 NMOS_VTL L=0.05U W=0.415U AS=0.02905P AD=0.02905P PS=0.555U
+ PD=0.555U
* device instance $19 r0 *1 1.7,0.2975 NMOS_VTL
M$19 11 5 6 9 NMOS_VTL L=0.05U W=0.415U AS=0.02905P AD=0.02905P PS=0.555U
+ PD=0.555U
* device instance $20 r0 *1 1.89,0.2975 NMOS_VTL
M$20 9 4 11 9 NMOS_VTL L=0.05U W=0.415U AS=0.02905P AD=0.043575P PS=0.555U
+ PD=1.04U
.ENDS AOI221_X2

* cell BUF_X2
* pin A
* pin PWELL,VSS
* pin NWELL,VDD
* pin Z
.SUBCKT BUF_X2 1 3 4 5
* net 1 A
* net 3 PWELL,VSS
* net 4 NWELL,VDD
* net 5 Z
* device instance $1 r0 *1 0.21,0.995 PMOS_VTL
M$1 4 1 2 4 PMOS_VTL L=0.05U W=0.63U AS=0.06615P AD=0.0441P PS=1.47U PD=0.77U
* device instance $2 r0 *1 0.4,0.995 PMOS_VTL
M$2 5 2 4 4 PMOS_VTL L=0.05U W=1.26U AS=0.0882P AD=0.11025P PS=1.54U PD=2.24U
* device instance $4 r0 *1 0.21,0.2975 NMOS_VTL
M$4 3 1 2 3 NMOS_VTL L=0.05U W=0.415U AS=0.043575P AD=0.02905P PS=1.04U
+ PD=0.555U
* device instance $5 r0 *1 0.4,0.2975 NMOS_VTL
M$5 5 2 3 3 NMOS_VTL L=0.05U W=0.83U AS=0.0581P AD=0.072625P PS=1.11U PD=1.595U
.ENDS BUF_X2

* cell MUX2_X1
* pin A
* pin S
* pin B
* pin PWELL,VSS
* pin NWELL,VDD
* pin Z
.SUBCKT MUX2_X1 1 2 3 5 6 8
* net 1 A
* net 2 S
* net 3 B
* net 5 PWELL,VSS
* net 6 NWELL,VDD
* net 8 Z
* device instance $1 r0 *1 0.17,1.1525 PMOS_VTL
M$1 6 2 4 6 PMOS_VTL L=0.05U W=0.315U AS=0.033075P AD=0.02205P PS=0.84U
+ PD=0.455U
* device instance $2 r0 *1 0.36,1.1525 PMOS_VTL
M$2 9 1 6 6 PMOS_VTL L=0.05U W=0.315U AS=0.02205P AD=0.02205P PS=0.455U
+ PD=0.455U
* device instance $3 r0 *1 0.55,1.1525 PMOS_VTL
M$3 7 2 9 6 PMOS_VTL L=0.05U W=0.315U AS=0.02205P AD=0.02205P PS=0.455U
+ PD=0.455U
* device instance $4 r0 *1 0.74,1.1525 PMOS_VTL
M$4 10 4 7 6 PMOS_VTL L=0.05U W=0.315U AS=0.02205P AD=0.02205P PS=0.455U
+ PD=0.455U
* device instance $5 r0 *1 0.93,1.1525 PMOS_VTL
M$5 10 3 6 6 PMOS_VTL L=0.05U W=0.315U AS=0.033075P AD=0.02205P PS=0.77U
+ PD=0.455U
* device instance $6 r0 *1 1.12,0.995 PMOS_VTL
M$6 8 7 6 6 PMOS_VTL L=0.05U W=0.63U AS=0.033075P AD=0.06615P PS=0.77U PD=1.47U
* device instance $7 r0 *1 0.17,0.195 NMOS_VTL
M$7 5 2 4 5 NMOS_VTL L=0.05U W=0.21U AS=0.02205P AD=0.0147P PS=0.63U PD=0.35U
* device instance $8 r0 *1 0.36,0.195 NMOS_VTL
M$8 12 1 5 5 NMOS_VTL L=0.05U W=0.21U AS=0.0147P AD=0.0147P PS=0.35U PD=0.35U
* device instance $9 r0 *1 0.55,0.195 NMOS_VTL
M$9 7 4 12 5 NMOS_VTL L=0.05U W=0.21U AS=0.0147P AD=0.0147P PS=0.35U PD=0.35U
* device instance $10 r0 *1 0.74,0.195 NMOS_VTL
M$10 11 2 7 5 NMOS_VTL L=0.05U W=0.21U AS=0.0147P AD=0.0147P PS=0.35U PD=0.35U
* device instance $11 r0 *1 0.93,0.195 NMOS_VTL
M$11 5 3 11 5 NMOS_VTL L=0.05U W=0.21U AS=0.0147P AD=0.021875P PS=0.35U
+ PD=0.555U
* device instance $12 r0 *1 1.12,0.2975 NMOS_VTL
M$12 8 7 5 5 NMOS_VTL L=0.05U W=0.415U AS=0.021875P AD=0.043575P PS=0.555U
+ PD=1.04U
.ENDS MUX2_X1

* cell OAI21_X1
* pin B2
* pin B1
* pin A
* pin NWELL,VDD
* pin ZN
* pin PWELL,VSS
.SUBCKT OAI21_X1 1 2 3 5 6 7
* net 1 B2
* net 2 B1
* net 3 A
* net 5 NWELL,VDD
* net 6 ZN
* net 7 PWELL,VSS
* device instance $1 r0 *1 0.195,0.995 PMOS_VTL
M$1 8 1 5 5 PMOS_VTL L=0.05U W=0.63U AS=0.06615P AD=0.0441P PS=1.47U PD=0.77U
* device instance $2 r0 *1 0.385,0.995 PMOS_VTL
M$2 6 2 8 5 PMOS_VTL L=0.05U W=0.63U AS=0.0441P AD=0.0441P PS=0.77U PD=0.77U
* device instance $3 r0 *1 0.575,0.995 PMOS_VTL
M$3 5 3 6 5 PMOS_VTL L=0.05U W=0.63U AS=0.0441P AD=0.06615P PS=0.77U PD=1.47U
* device instance $4 r0 *1 0.195,0.2975 NMOS_VTL
M$4 6 1 4 7 NMOS_VTL L=0.05U W=0.415U AS=0.043575P AD=0.02905P PS=1.04U
+ PD=0.555U
* device instance $5 r0 *1 0.385,0.2975 NMOS_VTL
M$5 4 2 6 7 NMOS_VTL L=0.05U W=0.415U AS=0.02905P AD=0.02905P PS=0.555U
+ PD=0.555U
* device instance $6 r0 *1 0.575,0.2975 NMOS_VTL
M$6 7 3 4 7 NMOS_VTL L=0.05U W=0.415U AS=0.02905P AD=0.043575P PS=0.555U
+ PD=1.04U
.ENDS OAI21_X1

* cell NAND2_X1
* pin A2
* pin A1
* pin PWELL,VSS
* pin NWELL,VDD
* pin ZN
.SUBCKT NAND2_X1 1 2 3 4 5
* net 1 A2
* net 2 A1
* net 3 PWELL,VSS
* net 4 NWELL,VDD
* net 5 ZN
* device instance $1 r0 *1 0.185,0.995 PMOS_VTL
M$1 5 1 4 4 PMOS_VTL L=0.05U W=0.63U AS=0.06615P AD=0.0441P PS=1.47U PD=0.77U
* device instance $2 r0 *1 0.375,0.995 PMOS_VTL
M$2 4 2 5 4 PMOS_VTL L=0.05U W=0.63U AS=0.0441P AD=0.06615P PS=0.77U PD=1.47U
* device instance $3 r0 *1 0.185,0.2975 NMOS_VTL
M$3 6 1 3 3 NMOS_VTL L=0.05U W=0.415U AS=0.043575P AD=0.02905P PS=1.04U
+ PD=0.555U
* device instance $4 r0 *1 0.375,0.2975 NMOS_VTL
M$4 5 2 6 3 NMOS_VTL L=0.05U W=0.415U AS=0.02905P AD=0.043575P PS=0.555U
+ PD=1.04U
.ENDS NAND2_X1

* cell NOR3_X1
* pin A3
* pin A2
* pin A1
* pin PWELL,VSS
* pin NWELL,VDD
* pin ZN
.SUBCKT NOR3_X1 1 2 3 4 5 6
* net 1 A3
* net 2 A2
* net 3 A1
* net 4 PWELL,VSS
* net 5 NWELL,VDD
* net 6 ZN
* device instance $1 r0 *1 0.17,0.995 PMOS_VTL
M$1 8 1 5 5 PMOS_VTL L=0.05U W=0.63U AS=0.06615P AD=0.0441P PS=1.47U PD=0.77U
* device instance $2 r0 *1 0.36,0.995 PMOS_VTL
M$2 7 2 8 5 PMOS_VTL L=0.05U W=0.63U AS=0.0441P AD=0.0441P PS=0.77U PD=0.77U
* device instance $3 r0 *1 0.55,0.995 PMOS_VTL
M$3 6 3 7 5 PMOS_VTL L=0.05U W=0.63U AS=0.0441P AD=0.06615P PS=0.77U PD=1.47U
* device instance $4 r0 *1 0.17,0.2975 NMOS_VTL
M$4 6 1 4 4 NMOS_VTL L=0.05U W=0.415U AS=0.043575P AD=0.02905P PS=1.04U
+ PD=0.555U
* device instance $5 r0 *1 0.36,0.2975 NMOS_VTL
M$5 4 2 6 4 NMOS_VTL L=0.05U W=0.415U AS=0.02905P AD=0.02905P PS=0.555U
+ PD=0.555U
* device instance $6 r0 *1 0.55,0.2975 NMOS_VTL
M$6 6 3 4 4 NMOS_VTL L=0.05U W=0.415U AS=0.02905P AD=0.043575P PS=0.555U
+ PD=1.04U
.ENDS NOR3_X1

* cell XNOR2_X1
* pin A
* pin B
* pin NWELL,VDD
* pin PWELL,VSS
* pin ZN
.SUBCKT XNOR2_X1 1 2 4 5 7
* net 1 A
* net 2 B
* net 4 NWELL,VDD
* net 5 PWELL,VSS
* net 7 ZN
* device instance $1 r0 *1 0.18,1.1525 PMOS_VTL
M$1 3 1 4 4 PMOS_VTL L=0.05U W=0.315U AS=0.033075P AD=0.02205P PS=0.84U
+ PD=0.455U
* device instance $2 r0 *1 0.37,1.1525 PMOS_VTL
M$2 3 2 4 4 PMOS_VTL L=0.05U W=0.315U AS=0.0338625P AD=0.02205P PS=0.775U
+ PD=0.455U
* device instance $3 r0 *1 0.565,0.995 PMOS_VTL
M$3 7 3 4 4 PMOS_VTL L=0.05U W=0.63U AS=0.0338625P AD=0.0441P PS=0.775U PD=0.77U
* device instance $4 r0 *1 0.755,0.995 PMOS_VTL
M$4 8 1 7 4 PMOS_VTL L=0.05U W=0.63U AS=0.0441P AD=0.0441P PS=0.77U PD=0.77U
* device instance $5 r0 *1 0.945,0.995 PMOS_VTL
M$5 4 2 8 4 PMOS_VTL L=0.05U W=0.63U AS=0.0441P AD=0.06615P PS=0.77U PD=1.47U
* device instance $6 r0 *1 0.18,0.195 NMOS_VTL
M$6 9 1 3 5 NMOS_VTL L=0.05U W=0.21U AS=0.02205P AD=0.0147P PS=0.63U PD=0.35U
* device instance $7 r0 *1 0.37,0.195 NMOS_VTL
M$7 5 2 9 5 NMOS_VTL L=0.05U W=0.21U AS=0.0147P AD=0.0224P PS=0.35U PD=0.56U
* device instance $8 r0 *1 0.565,0.2975 NMOS_VTL
M$8 6 3 5 5 NMOS_VTL L=0.05U W=0.415U AS=0.0224P AD=0.02905P PS=0.56U PD=0.555U
* device instance $9 r0 *1 0.755,0.2975 NMOS_VTL
M$9 7 1 6 5 NMOS_VTL L=0.05U W=0.415U AS=0.02905P AD=0.02905P PS=0.555U
+ PD=0.555U
* device instance $10 r0 *1 0.945,0.2975 NMOS_VTL
M$10 6 2 7 5 NMOS_VTL L=0.05U W=0.415U AS=0.02905P AD=0.043575P PS=0.555U
+ PD=1.04U
.ENDS XNOR2_X1

* cell BUF_X1
* pin A
* pin PWELL,VSS
* pin NWELL,VDD
* pin Z
.SUBCKT BUF_X1 1 3 4 5
* net 1 A
* net 3 PWELL,VSS
* net 4 NWELL,VDD
* net 5 Z
* device instance $1 r0 *1 0.17,1.1525 PMOS_VTL
M$1 2 1 4 4 PMOS_VTL L=0.05U W=0.315U AS=0.033075P AD=0.033075P PS=0.77U
+ PD=0.84U
* device instance $2 r0 *1 0.36,0.995 PMOS_VTL
M$2 5 2 4 4 PMOS_VTL L=0.05U W=0.63U AS=0.033075P AD=0.06615P PS=0.77U PD=1.47U
* device instance $3 r0 *1 0.17,0.195 NMOS_VTL
M$3 3 1 2 3 NMOS_VTL L=0.05U W=0.21U AS=0.02205P AD=0.021875P PS=0.63U PD=0.555U
* device instance $4 r0 *1 0.36,0.2975 NMOS_VTL
M$4 5 2 3 3 NMOS_VTL L=0.05U W=0.415U AS=0.021875P AD=0.043575P PS=0.555U
+ PD=1.04U
.ENDS BUF_X1

* cell HA_X1
* pin A
* pin B
* pin S
* pin NWELL,VDD
* pin PWELL,VSS
* pin CO
.SUBCKT HA_X1 1 2 4 5 6 9
* net 1 A
* net 2 B
* net 4 S
* net 5 NWELL,VDD
* net 6 PWELL,VSS
* net 9 CO
* device instance $1 r0 *1 0.785,1.0275 PMOS_VTL
M$1 10 2 5 5 PMOS_VTL L=0.05U W=0.315U AS=0.0338625P AD=0.02205P PS=0.775U
+ PD=0.455U
* device instance $2 r0 *1 0.975,1.0275 PMOS_VTL
M$2 7 1 10 5 PMOS_VTL L=0.05U W=0.315U AS=0.02205P AD=0.033075P PS=0.455U
+ PD=0.84U
* device instance $3 r0 *1 0.21,0.995 PMOS_VTL
M$3 4 2 3 5 PMOS_VTL L=0.05U W=0.63U AS=0.06615P AD=0.0441P PS=1.47U PD=0.77U
* device instance $4 r0 *1 0.4,0.995 PMOS_VTL
M$4 3 1 4 5 PMOS_VTL L=0.05U W=0.63U AS=0.0441P AD=0.0441P PS=0.77U PD=0.77U
* device instance $5 r0 *1 0.59,0.995 PMOS_VTL
M$5 5 7 3 5 PMOS_VTL L=0.05U W=0.63U AS=0.0441P AD=0.0338625P PS=0.77U PD=0.775U
* device instance $6 r0 *1 1.345,1.0275 PMOS_VTL
M$6 8 1 5 5 PMOS_VTL L=0.05U W=0.315U AS=0.033075P AD=0.02205P PS=0.84U
+ PD=0.455U
* device instance $7 r0 *1 1.535,1.0275 PMOS_VTL
M$7 8 2 5 5 PMOS_VTL L=0.05U W=0.315U AS=0.033075P AD=0.02205P PS=0.77U
+ PD=0.455U
* device instance $8 r0 *1 1.725,0.995 PMOS_VTL
M$8 9 8 5 5 PMOS_VTL L=0.05U W=0.63U AS=0.033075P AD=0.06615P PS=0.77U PD=1.47U
* device instance $9 r0 *1 1.345,0.195 NMOS_VTL
M$9 12 1 8 6 NMOS_VTL L=0.05U W=0.21U AS=0.02205P AD=0.0147P PS=0.63U PD=0.35U
* device instance $10 r0 *1 1.535,0.195 NMOS_VTL
M$10 6 2 12 6 NMOS_VTL L=0.05U W=0.21U AS=0.0147P AD=0.021875P PS=0.35U
+ PD=0.555U
* device instance $11 r0 *1 1.725,0.2975 NMOS_VTL
M$11 9 8 6 6 NMOS_VTL L=0.05U W=0.415U AS=0.021875P AD=0.043575P PS=0.555U
+ PD=1.04U
* device instance $12 r0 *1 0.785,0.195 NMOS_VTL
M$12 7 2 6 6 NMOS_VTL L=0.05U W=0.21U AS=0.0224P AD=0.0147P PS=0.56U PD=0.35U
* device instance $13 r0 *1 0.975,0.195 NMOS_VTL
M$13 6 1 7 6 NMOS_VTL L=0.05U W=0.21U AS=0.0147P AD=0.02205P PS=0.35U PD=0.63U
* device instance $14 r0 *1 0.21,0.2975 NMOS_VTL
M$14 11 2 6 6 NMOS_VTL L=0.05U W=0.415U AS=0.043575P AD=0.02905P PS=1.04U
+ PD=0.555U
* device instance $15 r0 *1 0.4,0.2975 NMOS_VTL
M$15 4 1 11 6 NMOS_VTL L=0.05U W=0.415U AS=0.02905P AD=0.02905P PS=0.555U
+ PD=0.555U
* device instance $16 r0 *1 0.59,0.2975 NMOS_VTL
M$16 6 7 4 6 NMOS_VTL L=0.05U W=0.415U AS=0.02905P AD=0.0224P PS=0.555U PD=0.56U
.ENDS HA_X1

* cell AND2_X1
* pin A1
* pin A2
* pin NWELL,VDD
* pin PWELL,VSS
* pin ZN
.SUBCKT AND2_X1 1 2 4 5 6
* net 1 A1
* net 2 A2
* net 4 NWELL,VDD
* net 5 PWELL,VSS
* net 6 ZN
* device instance $1 r0 *1 0.17,1.1525 PMOS_VTL
M$1 3 1 4 4 PMOS_VTL L=0.05U W=0.315U AS=0.033075P AD=0.02205P PS=0.84U
+ PD=0.455U
* device instance $2 r0 *1 0.36,1.1525 PMOS_VTL
M$2 3 2 4 4 PMOS_VTL L=0.05U W=0.315U AS=0.033075P AD=0.02205P PS=0.77U
+ PD=0.455U
* device instance $3 r0 *1 0.55,0.995 PMOS_VTL
M$3 6 3 4 4 PMOS_VTL L=0.05U W=0.63U AS=0.033075P AD=0.06615P PS=0.77U PD=1.47U
* device instance $4 r0 *1 0.17,0.195 NMOS_VTL
M$4 7 1 3 5 NMOS_VTL L=0.05U W=0.21U AS=0.02205P AD=0.0147P PS=0.63U PD=0.35U
* device instance $5 r0 *1 0.36,0.195 NMOS_VTL
M$5 5 2 7 5 NMOS_VTL L=0.05U W=0.21U AS=0.0147P AD=0.021875P PS=0.35U PD=0.555U
* device instance $6 r0 *1 0.55,0.2975 NMOS_VTL
M$6 6 3 5 5 NMOS_VTL L=0.05U W=0.415U AS=0.021875P AD=0.043575P PS=0.555U
+ PD=1.04U