* CDL Netlist generated by OpenROAD

*.BUSDELIMITER [

.SUBCKT ahb_lite_master haddr[0] haddr[10] haddr[11] haddr[12]
+ haddr[13] haddr[14] haddr[15] haddr[16] haddr[17] haddr[18]
+ haddr[19] haddr[1] haddr[20] haddr[21] haddr[22] haddr[23]
+ haddr[24] haddr[25] haddr[26] haddr[27] haddr[28] haddr[29]
+ haddr[2] haddr[30] haddr[31] haddr[3] haddr[4] haddr[5] haddr[6]
+ haddr[7] haddr[8] haddr[9] hburst[0] hburst[1] hburst[2] hbusreq
+ hclk hgrant hrdata[0] hrdata[10] hrdata[11] hrdata[12] hrdata[13]
+ hrdata[14] hrdata[15] hrdata[16] hrdata[17] hrdata[18] hrdata[19]
+ hrdata[1] hrdata[20] hrdata[21] hrdata[22] hrdata[23] hrdata[24]
+ hrdata[25] hrdata[26] hrdata[27] hrdata[28] hrdata[29] hrdata[2]
+ hrdata[30] hrdata[31] hrdata[3] hrdata[4] hrdata[5] hrdata[6]
+ hrdata[7] hrdata[8] hrdata[9] hready hreset hresp[0] hresp[1]
+ hsize[0] hsize[1] hsize[2] htrans[0] htrans[1] hwdata[0] hwdata[10]
+ hwdata[11] hwdata[12] hwdata[13] hwdata[14] hwdata[15] hwdata[16]
+ hwdata[17] hwdata[18] hwdata[19] hwdata[1] hwdata[20] hwdata[21]
+ hwdata[22] hwdata[23] hwdata[24] hwdata[25] hwdata[26] hwdata[27]
+ hwdata[28] hwdata[29] hwdata[2] hwdata[30] hwdata[31] hwdata[3]
+ hwdata[4] hwdata[5] hwdata[6] hwdata[7] hwdata[8] hwdata[9]
+ hwrite read_data[0] read_data[10] read_data[11] read_data[12]
+ read_data[13] read_data[14] read_data[15] read_data[16] read_data[17]
+ read_data[18] read_data[19] read_data[1] read_data[20] read_data[21]
+ read_data[22] read_data[23] read_data[24] read_data[25] read_data[26]
+ read_data[27] read_data[28] read_data[29] read_data[2] read_data[30]
+ read_data[31] read_data[3] read_data[4] read_data[5] read_data[6]
+ read_data[7] read_data[8] read_data[9] start_trans trans_addr[0]
+ trans_addr[10] trans_addr[11] trans_addr[12] trans_addr[13]
+ trans_addr[14] trans_addr[15] trans_addr[16] trans_addr[17]
+ trans_addr[18] trans_addr[19] trans_addr[1] trans_addr[20]
+ trans_addr[21] trans_addr[22] trans_addr[23] trans_addr[24]
+ trans_addr[25] trans_addr[26] trans_addr[27] trans_addr[28]
+ trans_addr[29] trans_addr[2] trans_addr[30] trans_addr[31]
+ trans_addr[3] trans_addr[4] trans_addr[5] trans_addr[6] trans_addr[7]
+ trans_addr[8] trans_addr[9] trans_burst[0] trans_burst[1]
+ trans_burst[2] trans_done trans_resp[0] trans_resp[1] trans_size[0]
+ trans_size[1] trans_size[2] trans_write write_data[0] write_data[10]
+ write_data[11] write_data[12] write_data[13] write_data[14]
+ write_data[15] write_data[16] write_data[17] write_data[18]
+ write_data[19] write_data[1] write_data[20] write_data[21]
+ write_data[22] write_data[23] write_data[24] write_data[25]
+ write_data[26] write_data[27] write_data[28] write_data[29]
+ write_data[2] write_data[30] write_data[31] write_data[3]
+ write_data[4] write_data[5] write_data[6] write_data[7] write_data[8]
+ write_data[9]
X_0723_ burst_total\[3\] _0130_ VDD VSS CLKBUF_X2
X_0724_ burst_total\[0\] _0131_ VDD VSS BUF_X1
X_0725_ _0130_ burst_total\[2\] _0131_ _0681_ VDD VSS NOR3_X2
X_0726_ _0130_ _0691_ _0686_ VDD VSS XNOR2_X1
X_0727_ net146 _0132_ VDD VSS BUF_X2
X_0728_ net145 _0133_ VDD VSS CLKBUF_X2
X_0729_ _0133_ _0134_ VDD VSS INV_X1
X_0730_ _0132_ _0134_ _0135_ VDD VSS NOR2_X1
X_0731_ _0007_ _0135_ _0667_ VDD VSS NAND2_X1
X_0732_ _0667_ _0700_ VDD VSS INV_X1
X_0733_ _0132_ _0134_ _0007_ _0703_ VDD VSS AND3_X1
X_0734_ _0132_ _0133_ _0007_ _0706_ VDD VSS AND3_X1
X_0735_ net147 _0136_ VDD VSS INV_X1
X_0736_ _0132_ _0133_ _0136_ _0709_ VDD VSS NOR3_X1
X_0737_ _0132_ _0134_ _0136_ _0712_ VDD VSS NOR3_X1
X_0738_ _0132_ _0137_ VDD VSS INV_X1
X_0739_ _0137_ _0133_ _0136_ _0715_ VDD VSS NOR3_X1
X_0740_ _0137_ _0134_ _0136_ _0718_ VDD VSS NOR3_X2
X_0741_ state\[0\] _0138_ VDD VSS BUF_X2
X_0742_ _0138_ _0139_ VDD VSS BUF_X2
X_0743_ state\[1\] _0140_ VDD VSS BUF_X2
X_0744_ _0140_ _0141_ VDD VSS CLKBUF_X3
X_0745_ state\[2\] _0142_ VDD VSS BUF_X2
X_0746_ _0142_ _0143_ VDD VSS INV_X1
X_0747_ _0139_ _0141_ _0143_ _0144_ VDD VSS NAND3_X1
X_0748_ _0000_ _0145_ VDD VSS CLKBUF_X3
X_0749_ _0145_ _0146_ VDD VSS INV_X2
X_0750_ _0140_ _0147_ VDD VSS INV_X2
X_0751_ _0145_ _0142_ _0147_ _0148_ VDD VSS AOI21_X1
X_0752_ _0144_ _0146_ _0141_ _0139_ _0148_ _0149_ VDD VSS
+ OAI221_X1
X_0753_ _0149_ _0150_ VDD VSS INV_X1
X_0754_ _0139_ net35 _0142_ _0151_ VDD VSS NOR3_X1
X_0755_ _0138_ _0152_ VDD VSS INV_X2
X_0756_ net35 _0153_ VDD VSS INV_X1
X_0757_ _0152_ _0153_ _0154_ VDD VSS NOR2_X1
X_0758_ _0141_ _0151_ _0154_ _0155_ VDD VSS OAI21_X1
X_0759_ net2 _0156_ VDD VSS INV_X1
X_0760_ _0138_ _0140_ _0156_ _0157_ VDD VSS OAI21_X1
X_0761_ start_trans _0158_ VDD VSS CLKBUF_X2
X_0762_ _0158_ _0143_ _0141_ _0159_ VDD VSS AOI21_X1
X_0763_ _0157_ _0159_ _0139_ _0160_ VDD VSS OAI21_X1
X_0764_ _0145_ _0155_ _0160_ _0161_ VDD VSS NAND3_X1
X_0765_ _0682_ _0162_ VDD VSS INV_X1
X_0766_ _0676_ _0679_ _0685_ _0163_ VDD VSS NAND3_X1
X_0767_ _0687_ _0693_ _0695_ _0694_ _0164_ VDD VSS AOI211_X2
X_0768_ burst_count\[0\] _0165_ VDD VSS BUF_X1
X_0769_ _0696_ _0694_ _0131_ _0165_ _0166_ VDD VSS OAI211_X2
X_0770_ _0687_ _0167_ VDD VSS INV_X1
X_0771_ _0688_ _0168_ VDD VSS INV_X1
X_0772_ _0163_ _0164_ _0166_ _0167_ _0168_ _0169_ VDD VSS
+ AOI221_X2
X_0773_ _0672_ _0675_ _0170_ VDD VSS NOR2_X1
X_0774_ _0678_ _0679_ _0684_ _0171_ VDD VSS AOI21_X1
X_0775_ _0676_ _0172_ VDD VSS INV_X1
X_0776_ _0170_ _0171_ _0172_ _0173_ VDD VSS OAI21_X1
X_0777_ _0162_ _0169_ _0173_ _0672_ _0673_ _0174_ VDD VSS
+ OAI221_X2
X_0778_ _0138_ _0140_ net35 _0175_ VDD VSS NAND3_X1
X_0779_ _0146_ _0175_ _0176_ VDD VSS OR2_X1
X_0780_ _0174_ _0176_ _0177_ VDD VSS NOR2_X2
X_0781_ _0177_ _0178_ VDD VSS INV_X1
X_0782_ _0150_ _0161_ _0178_ _0552_ VDD VSS AOI21_X1
X_0783_ _0139_ _0141_ _0142_ _0179_ VDD VSS NOR3_X1
X_0784_ _0147_ net35 _0142_ _0180_ VDD VSS NOR3_X1
X_0785_ _0145_ _0157_ _0180_ _0181_ VDD VSS OAI21_X1
X_0786_ _0181_ _0142_ _0158_ _0182_ VDD VSS AOI21_X1
X_0787_ _0182_ _0183_ VDD VSS INV_X1
X_0788_ _0179_ _0183_ _0141_ _0139_ _0181_ _0553_ VDD VSS
+ AOI221_X1
X_0789_ _0139_ _0158_ _0184_ VDD VSS NOR2_X1
X_0790_ _0139_ _0145_ _0156_ _0185_ VDD VSS NAND3_X1
X_0791_ _0185_ _0158_ _0145_ _0186_ VDD VSS OAI21_X1
X_0792_ _0184_ _0186_ _0147_ _0187_ VDD VSS AOI21_X1
X_0793_ _0175_ _0187_ _0142_ _0188_ VDD VSS MUX2_X1
X_0794_ _0146_ _0188_ _0554_ VDD VSS NOR2_X1
X_0795_ _0698_ _0668_ VDD VSS INV_X1
X_0796_ _0130_ _0189_ VDD VSS INV_X1
X_0797_ burst_total\[4\] _0190_ VDD VSS INV_X1
X_0798_ _0189_ _0190_ _0691_ _0671_ VDD VSS NAND3_X1
X_0799_ _0130_ burst_total\[2\] _0191_ VDD VSS NOR2_X1
X_0800_ _0131_ _0190_ _0192_ VDD VSS NAND2_X1
X_0801_ _0680_ _0191_ _0192_ _0674_ VDD VSS NAND3_X1
X_0802_ _0190_ _0681_ _0677_ VDD VSS NAND2_X1
X_0803_ _0132_ _0133_ net147 _0697_ VDD VSS NOR3_X2
X_0804_ _0152_ _0140_ _0145_ _0193_ VDD VSS NAND3_X4
X_0805_ _0153_ _0193_ _0194_ VDD VSS NOR2_X2
X_0806_ _0174_ _0194_ _0195_ VDD VSS NAND2_X2
X_0807_ _0195_ _0196_ VDD VSS BUF_X2
X_0808_ _0141_ _0146_ _0197_ VDD VSS NOR2_X2
X_0809_ _0152_ _0158_ _0197_ _0198_ VDD VSS NAND3_X2
X_0810_ _0198_ _0199_ VDD VSS CLKBUF_X3
X_0811_ _0165_ _0196_ _0199_ _0200_ VDD VSS NAND3_X1
X_0812_ _0200_ _0196_ _0165_ _0009_ VDD VSS OAI21_X1
X_0813_ burst_count\[1\] _0196_ _0199_ _0201_ VDD VSS NAND3_X1
X_0814_ _0722_ _0202_ VDD VSS INV_X1
X_0815_ _0201_ _0196_ _0202_ _0010_ VDD VSS OAI21_X1
X_0816_ _0193_ _0203_ VDD VSS BUF_X4
X_0817_ _0721_ _0005_ _0204_ VDD VSS XOR2_X1
X_0818_ _0203_ _0204_ _0205_ VDD VSS NOR2_X1
X_0819_ _0195_ _0198_ _0206_ VDD VSS AND2_X1
X_0820_ _0205_ burst_count\[2\] _0206_ _0011_ VDD VSS MUX2_X1
X_0821_ burst_count\[3\] _0207_ VDD VSS INV_X1
X_0822_ _0165_ burst_count\[2\] burst_count\[1\] _0208_ VDD
+ VSS NAND3_X1
X_0823_ _0138_ _0147_ _0146_ _0209_ VDD VSS NOR3_X4
X_0824_ _0209_ _0210_ VDD VSS CLKBUF_X3
X_0825_ _0195_ _0198_ _0208_ _0210_ _0211_ VDD VSS AOI22_X1
X_0826_ burst_count\[3\] _0203_ _0208_ _0212_ VDD VSS OR3_X1
X_0827_ _0207_ _0211_ _0212_ _0206_ _0012_ VDD VSS OAI22_X1
X_0828_ burst_count\[4\] _0196_ _0199_ _0213_ VDD VSS NAND3_X1
X_0829_ _0721_ burst_count\[2\] burst_count\[3\] _0214_ VDD
+ VSS NAND3_X1
X_0830_ _0004_ _0214_ _0215_ VDD VSS XNOR2_X1
X_0831_ _0213_ _0215_ _0196_ _0013_ VDD VSS OAI21_X1
X_0832_ burst_count\[5\] _0196_ _0199_ _0216_ VDD VSS NAND3_X1
X_0833_ burst_count\[4\] _0217_ VDD VSS INV_X1
X_0834_ _0207_ _0217_ _0208_ _0218_ VDD VSS NOR3_X1
X_0835_ _0003_ _0218_ _0219_ VDD VSS XOR2_X1
X_0836_ _0216_ _0219_ _0196_ _0014_ VDD VSS OAI21_X1
X_0837_ burst_count\[6\] _0195_ _0199_ _0220_ VDD VSS NAND3_X1
X_0838_ burst_count\[5\] _0221_ VDD VSS INV_X1
X_0839_ _0217_ _0221_ _0214_ _0222_ VDD VSS NOR3_X1
X_0840_ _0002_ _0222_ _0223_ VDD VSS XOR2_X1
X_0841_ _0220_ _0223_ _0196_ _0015_ VDD VSS OAI21_X1
X_0842_ burst_count\[7\] _0195_ _0199_ _0224_ VDD VSS NAND3_X1
X_0843_ burst_count\[5\] burst_count\[6\] _0218_ _0225_ VDD
+ VSS NAND3_X1
X_0844_ _0001_ _0225_ _0226_ VDD VSS XNOR2_X1
X_0845_ _0224_ _0226_ _0196_ _0016_ VDD VSS OAI21_X1
X_0846_ trans_burst[1] _0227_ VDD VSS BUF_X1
X_0847_ net72 net71 _0227_ _0228_ VDD VSS NOR3_X1
X_0848_ _0228_ _0131_ _0198_ _0017_ VDD VSS MUX2_X1
X_0849_ burst_total\[2\] _0199_ _0229_ VDD VSS NAND2_X1
X_0850_ net72 _0230_ VDD VSS INV_X1
X_0851_ _0230_ net71 _0227_ _0231_ VDD VSS OAI21_X1
X_0852_ _0229_ _0231_ _0199_ _0018_ VDD VSS OAI21_X1
X_0853_ _0230_ _0227_ _0232_ VDD VSS NOR2_X1
X_0854_ _0232_ _0130_ _0198_ _0019_ VDD VSS MUX2_X1
X_0855_ burst_total\[4\] _0199_ _0233_ VDD VSS NAND2_X1
X_0856_ net72 _0227_ _0234_ VDD VSS NAND2_X1
X_0857_ _0233_ _0234_ _0199_ _0020_ VDD VSS OAI21_X1
X_0858_ net141 _0235_ VDD VSS BUF_X2
X_0859_ _0152_ _0140_ _0146_ _0236_ VDD VSS NOR3_X1
X_0860_ net2 _0236_ _0237_ VDD VSS AND2_X1
X_0861_ _0237_ _0238_ VDD VSS CLKBUF_X3
X_0862_ _0235_ net71 _0238_ _0021_ VDD VSS MUX2_X1
X_0863_ net142 _0239_ VDD VSS BUF_X2
X_0864_ _0239_ _0227_ _0238_ _0022_ VDD VSS MUX2_X1
X_0865_ net143 _0240_ VDD VSS BUF_X2
X_0866_ _0240_ net72 _0238_ _0023_ VDD VSS MUX2_X1
X_0867_ net144 _0197_ _0241_ VDD VSS NOR2_X1
X_0868_ _0239_ _0235_ _0242_ VDD VSS NOR2_X1
X_0869_ _0006_ _0242_ _0243_ VDD VSS NAND2_X1
X_0870_ _0174_ _0243_ _0244_ VDD VSS NAND2_X1
X_0871_ _0241_ _0244_ _0194_ _0197_ _0184_ _0024_ VDD VSS
+ AOI221_X1
X_0872_ _0133_ net73 _0238_ _0025_ VDD VSS MUX2_X1
X_0873_ _0132_ net74 _0238_ _0026_ VDD VSS MUX2_X1
X_0874_ net147 net75 _0238_ _0027_ VDD VSS MUX2_X1
X_0875_ _0239_ _0235_ _0240_ _0006_ _0245_ VDD VSS NAND4_X1
X_0876_ _0239_ _0235_ _0240_ _0246_ VDD VSS OR3_X1
X_0877_ _0174_ _0210_ _0245_ _0246_ _0247_ VDD VSS AND4_X1
X_0878_ _0141_ _0156_ _0248_ VDD VSS NOR2_X1
X_0879_ _0139_ _0141_ _0153_ _0249_ VDD VSS AOI21_X1
X_0880_ _0145_ _0248_ _0249_ _0250_ VDD VSS OAI21_X1
X_0881_ _0247_ net148 _0250_ _0028_ VDD VSS MUX2_X1
X_0882_ _0236_ _0247_ _0251_ VDD VSS OR2_X1
X_0883_ _0251_ net149 _0250_ _0029_ VDD VSS MUX2_X1
X_0884_ net182 _0194_ _0252_ VDD VSS NAND2_X2
X_0885_ _0252_ _0253_ VDD VSS CLKBUF_X3
X_0886_ net77 net150 _0253_ _0030_ VDD VSS MUX2_X1
X_0887_ net78 net151 _0253_ _0031_ VDD VSS MUX2_X1
X_0888_ net79 net152 _0253_ _0032_ VDD VSS MUX2_X1
X_0889_ net80 net153 _0253_ _0033_ VDD VSS MUX2_X1
X_0890_ net81 net154 _0253_ _0034_ VDD VSS MUX2_X1
X_0891_ net82 net155 _0253_ _0035_ VDD VSS MUX2_X1
X_0892_ net83 net156 _0253_ _0036_ VDD VSS MUX2_X1
X_0893_ net84 net157 _0253_ _0037_ VDD VSS MUX2_X1
X_0894_ net85 net158 _0253_ _0038_ VDD VSS MUX2_X1
X_0895_ net86 net159 _0253_ _0039_ VDD VSS MUX2_X1
X_0896_ _0252_ _0254_ VDD VSS CLKBUF_X3
X_0897_ net87 net160 _0254_ _0040_ VDD VSS MUX2_X1
X_0898_ net88 net161 _0254_ _0041_ VDD VSS MUX2_X1
X_0899_ net89 net162 _0254_ _0042_ VDD VSS MUX2_X1
X_0900_ net90 net163 _0254_ _0043_ VDD VSS MUX2_X1
X_0901_ net91 net164 _0254_ _0044_ VDD VSS MUX2_X1
X_0902_ net92 net165 _0254_ _0045_ VDD VSS MUX2_X1
X_0903_ net93 net166 _0254_ _0046_ VDD VSS MUX2_X1
X_0904_ net94 net167 _0254_ _0047_ VDD VSS MUX2_X1
X_0905_ net95 net168 _0254_ _0048_ VDD VSS MUX2_X1
X_0906_ net96 net169 _0254_ _0049_ VDD VSS MUX2_X1
X_0907_ _0252_ _0255_ VDD VSS CLKBUF_X3
X_0908_ net97 net170 _0255_ _0050_ VDD VSS MUX2_X1
X_0909_ net98 net171 _0255_ _0051_ VDD VSS MUX2_X1
X_0910_ net99 net172 _0255_ _0052_ VDD VSS MUX2_X1
X_0911_ net100 net173 _0255_ _0053_ VDD VSS MUX2_X1
X_0912_ net101 net174 _0255_ _0054_ VDD VSS MUX2_X1
X_0913_ net102 net175 _0255_ _0055_ VDD VSS MUX2_X1
X_0914_ net103 net176 _0255_ _0056_ VDD VSS MUX2_X1
X_0915_ net104 net177 _0255_ _0057_ VDD VSS MUX2_X1
X_0916_ net105 net178 _0255_ _0058_ VDD VSS MUX2_X1
X_0917_ net106 net179 _0255_ _0059_ VDD VSS MUX2_X1
X_0918_ net107 net180 _0252_ _0060_ VDD VSS MUX2_X1
X_0919_ net108 net181 _0252_ _0061_ VDD VSS MUX2_X1
X_0920_ net182 net76 _0238_ _0062_ VDD VSS MUX2_X1
X_0921_ _0240_ _0006_ _0256_ VDD VSS NAND2_X1
X_0922_ _0246_ _0256_ _0242_ _0257_ VDD VSS OAI21_X1
X_0923_ _0153_ _0193_ _0257_ _0258_ VDD VSS NOR3_X2
X_0924_ _0238_ _0258_ _0174_ _0259_ VDD VSS AOI21_X4
X_0925_ _0259_ _0260_ VDD VSS CLKBUF_X3
X_0926_ net109 _0260_ _0261_ VDD VSS NAND2_X1
X_0927_ _0239_ _0240_ _0006_ _0262_ VDD VSS AND3_X1
X_0928_ _0239_ _0240_ _0263_ VDD VSS NOR2_X2
X_0929_ _0235_ _0262_ _0263_ _0264_ VDD VSS OR3_X1
X_0930_ _0264_ _0265_ VDD VSS BUF_X8
X_0931_ _0699_ _0210_ _0265_ _0266_ VDD VSS AND3_X1
X_0932_ _0203_ _0267_ VDD VSS BUF_X4
X_0933_ _0266_ _0267_ net39 _0268_ VDD VSS AOI21_X1
X_0934_ _0259_ _0269_ VDD VSS BUF_X4
X_0935_ _0269_ _0270_ VDD VSS BUF_X4
X_0936_ _0261_ _0268_ _0270_ _0063_ VDD VSS OAI21_X1
X_0937_ _0259_ _0271_ VDD VSS BUF_X4
X_0938_ _0271_ _0272_ VDD VSS BUF_X4
X_0939_ net110 _0273_ VDD VSS CLKBUF_X2
X_0940_ _0716_ _0719_ _0274_ VDD VSS NOR2_X1
X_0941_ _0713_ _0710_ _0714_ _0275_ VDD VSS AOI21_X1
X_0942_ _0274_ _0275_ _0276_ VDD VSS NAND2_X1
X_0943_ _0704_ _0277_ VDD VSS BUF_X1
X_0944_ _0707_ _0278_ VDD VSS BUF_X1
X_0945_ _0277_ _0278_ _0279_ VDD VSS NOR2_X1
X_0946_ _0705_ _0280_ VDD VSS BUF_X1
X_0947_ _0280_ _0281_ VDD VSS INV_X1
X_0948_ _0669_ _0282_ VDD VSS BUF_X1
X_0949_ _0279_ _0281_ _0282_ _0283_ VDD VSS OAI21_X2
X_0950_ _0711_ _0284_ VDD VSS BUF_X1
X_0951_ _0284_ _0714_ _0285_ VDD VSS AND2_X1
X_0952_ _0708_ _0286_ VDD VSS CLKBUF_X2
X_0953_ _0286_ _0278_ _0287_ VDD VSS OR2_X1
X_0954_ _0285_ _0287_ _0288_ VDD VSS AND2_X1
X_0955_ _0276_ _0283_ _0288_ _0289_ VDD VSS AOI21_X4
X_0956_ net140 _0290_ VDD VSS BUF_X2
X_0957_ net139 _0291_ VDD VSS CLKBUF_X2
X_0958_ _0719_ _0292_ VDD VSS INV_X1
X_0959_ _0717_ _0293_ VDD VSS BUF_X1
X_0960_ _0720_ _0716_ _0293_ _0294_ VDD VSS OAI21_X1
X_0961_ _0292_ _0294_ _0295_ VDD VSS NAND2_X2
X_0962_ _0290_ _0291_ _0295_ _0296_ VDD VSS NAND3_X1
X_0963_ _0209_ _0265_ _0297_ VDD VSS NAND2_X4
X_0964_ _0273_ _0289_ _0296_ _0297_ _0298_ VDD VSS NOR4_X1
X_0965_ _0298_ _0267_ net40 _0299_ VDD VSS AOI21_X1
X_0966_ _0289_ _0296_ _0300_ VDD VSS OR2_X1
X_0967_ _0235_ _0262_ _0263_ _0301_ VDD VSS NOR3_X4
X_0968_ _0193_ _0301_ _0302_ VDD VSS NOR2_X4
X_0969_ _0302_ _0303_ VDD VSS BUF_X4
X_0970_ _0271_ _0300_ _0303_ _0304_ VDD VSS AOI21_X1
X_0971_ _0273_ _0305_ VDD VSS INV_X1
X_0972_ _0272_ _0299_ _0304_ _0305_ _0064_ VDD VSS OAI22_X1
X_0973_ _0290_ _0273_ _0306_ VDD VSS NAND2_X1
X_0974_ _0008_ _0307_ VDD VSS INV_X1
X_0975_ _0701_ _0702_ _0698_ _0308_ VDD VSS AOI21_X2
X_0976_ _0280_ _0286_ _0284_ _0309_ VDD VSS NAND3_X1
X_0977_ _0278_ _0277_ _0286_ _0310_ VDD VSS AOI21_X1
X_0978_ _0284_ _0311_ VDD VSS INV_X1
X_0979_ _0308_ _0309_ _0310_ _0311_ _0312_ VDD VSS OAI22_X2
X_0980_ _0710_ _0713_ _0293_ _0313_ VDD VSS AOI21_X1
X_0981_ _0274_ _0313_ _0314_ VDD VSS NAND2_X1
X_0982_ _0720_ _0315_ VDD VSS INV_X1
X_0983_ _0716_ _0316_ VDD VSS INV_X1
X_0984_ _0293_ _0713_ _0714_ _0317_ VDD VSS OAI21_X1
X_0985_ _0315_ _0316_ _0317_ _0318_ VDD VSS AOI21_X1
X_0986_ _0307_ _0312_ _0314_ _0318_ _0719_ _0319_ VDD VSS
+ OAI221_X1
X_0987_ _0319_ _0320_ VDD VSS BUF_X2
X_0988_ net111 _0297_ _0306_ _0320_ _0321_ VDD VSS NOR4_X1
X_0989_ _0321_ _0267_ net41 _0322_ VDD VSS AOI21_X1
X_0990_ _0302_ _0323_ VDD VSS CLKBUF_X3
X_0991_ _0320_ _0324_ VDD VSS BUF_X4
X_0992_ _0306_ _0324_ _0325_ VDD VSS OR2_X1
X_0993_ _0271_ _0323_ _0325_ _0326_ VDD VSS AOI21_X1
X_0994_ net111 _0327_ VDD VSS INV_X1
X_0995_ _0272_ _0322_ _0326_ _0327_ _0065_ VDD VSS OAI22_X1
X_0996_ net112 _0328_ VDD VSS BUF_X2
X_0997_ _0297_ _0329_ VDD VSS CLKBUF_X3
X_0998_ _0290_ _0273_ net111 _0330_ VDD VSS AND3_X2
X_0999_ _0291_ _0295_ _0330_ _0331_ VDD VSS AND3_X1
X_1000_ _0274_ _0275_ _0332_ VDD VSS AND2_X1
X_1001_ _0277_ _0278_ _0333_ VDD VSS OR2_X1
X_1002_ _0282_ _0334_ VDD VSS INV_X1
X_1003_ _0333_ _0280_ _0334_ _0335_ VDD VSS AOI21_X1
X_1004_ _0285_ _0287_ _0336_ VDD VSS NAND2_X1
X_1005_ _0332_ _0335_ _0336_ _0337_ VDD VSS OAI21_X1
X_1006_ _0337_ _0338_ VDD VSS BUF_X2
X_1007_ _0329_ _0331_ _0338_ _0339_ VDD VSS AOI21_X1
X_1008_ _0328_ _0260_ _0339_ _0340_ VDD VSS OAI21_X1
X_1009_ _0291_ _0295_ _0330_ _0341_ VDD VSS NAND3_X1
X_1010_ _0289_ _0341_ _0342_ VDD VSS NOR2_X1
X_1011_ _0328_ _0329_ _0343_ VDD VSS NOR2_X1
X_1012_ net42 _0267_ _0342_ _0343_ _0344_ VDD VSS AOI22_X1
X_1013_ _0340_ _0344_ _0270_ _0066_ VDD VSS OAI21_X1
X_1014_ net113 _0345_ VDD VSS BUF_X2
X_1015_ _0259_ _0346_ VDD VSS CLKBUF_X3
X_1016_ _0345_ _0346_ _0347_ VDD VSS NAND2_X1
X_1017_ _0290_ _0273_ net111 _0348_ VDD VSS NAND3_X2
X_1018_ _0320_ _0348_ _0349_ VDD VSS NOR2_X2
X_1019_ _0328_ _0350_ VDD VSS INV_X1
X_1020_ _0350_ _0345_ _0297_ _0351_ VDD VSS NOR3_X1
X_1021_ net43 _0203_ _0349_ _0351_ _0352_ VDD VSS AOI22_X1
X_1022_ _0350_ _0324_ _0348_ _0353_ VDD VSS NOR3_X1
X_1023_ _0345_ _0323_ _0354_ VDD VSS NAND2_X1
X_1024_ _0347_ _0352_ _0260_ _0353_ _0354_ _0067_ VDD VSS
+ OAI221_X1
X_1025_ net114 _0355_ VDD VSS BUF_X4
X_1026_ _0328_ _0345_ _0356_ VDD VSS AND2_X2
X_1027_ _0291_ _0295_ _0330_ _0356_ _0357_ VDD VSS AND4_X2
X_1028_ _0329_ _0357_ _0338_ _0358_ VDD VSS AOI21_X1
X_1029_ _0355_ _0260_ _0358_ _0359_ VDD VSS OAI21_X1
X_1030_ _0291_ _0295_ _0330_ _0356_ _0360_ VDD VSS NAND4_X2
X_1031_ _0289_ _0360_ _0361_ VDD VSS NOR2_X1
X_1032_ _0355_ _0329_ _0362_ VDD VSS NOR2_X1
X_1033_ net44 _0267_ _0361_ _0362_ _0363_ VDD VSS AOI22_X1
X_1034_ _0359_ _0363_ _0270_ _0068_ VDD VSS OAI21_X1
X_1035_ net115 _0364_ VDD VSS BUF_X4
X_1036_ _0364_ _0346_ _0365_ VDD VSS NAND2_X1
X_1037_ _0355_ _0356_ _0366_ VDD VSS NAND2_X1
X_1038_ _0364_ _0297_ _0366_ _0367_ VDD VSS NOR3_X1
X_1039_ net45 _0203_ _0349_ _0367_ _0368_ VDD VSS AOI22_X1
X_1040_ _0324_ _0348_ _0366_ _0369_ VDD VSS NOR3_X1
X_1041_ _0364_ _0323_ _0370_ VDD VSS NAND2_X1
X_1042_ _0365_ _0368_ _0346_ _0369_ _0370_ _0069_ VDD VSS
+ OAI221_X1
X_1043_ net116 _0371_ VDD VSS BUF_X4
X_1044_ _0371_ _0372_ VDD VSS INV_X1
X_1045_ _0355_ _0364_ _0356_ _0373_ VDD VSS AND3_X1
X_1046_ _0372_ _0302_ _0373_ _0374_ VDD VSS AND3_X1
X_1047_ net46 _0267_ _0342_ _0374_ _0375_ VDD VSS AOI22_X1
X_1048_ _0338_ _0331_ _0373_ _0376_ VDD VSS NAND3_X1
X_1049_ _0271_ _0323_ _0376_ _0377_ VDD VSS AOI21_X1
X_1050_ _0272_ _0375_ _0377_ _0372_ _0070_ VDD VSS OAI22_X1
X_1051_ net117 _0378_ VDD VSS BUF_X4
X_1052_ _0378_ _0346_ _0379_ VDD VSS NAND2_X1
X_1053_ _0378_ _0303_ _0380_ VDD VSS NAND2_X1
X_1054_ _0330_ _0356_ _0381_ VDD VSS NAND2_X2
X_1055_ _0355_ _0364_ _0371_ _0382_ VDD VSS NAND3_X1
X_1056_ _0324_ _0381_ _0382_ _0383_ VDD VSS NOR3_X1
X_1057_ _0193_ _0384_ VDD VSS CLKBUF_X3
X_1058_ _0378_ _0382_ _0385_ VDD VSS NOR2_X1
X_1059_ _0297_ _0320_ _0381_ _0386_ VDD VSS NOR3_X1
X_1060_ net47 _0384_ _0385_ _0386_ _0387_ VDD VSS AOI22_X1
X_1061_ _0379_ _0380_ _0383_ _0260_ _0387_ _0071_ VDD VSS
+ OAI221_X1
X_1062_ net118 _0388_ VDD VSS INV_X1
X_1063_ _0378_ _0389_ VDD VSS INV_X1
X_1064_ _0389_ _0382_ _0390_ VDD VSS NOR2_X1
X_1065_ _0388_ _0302_ _0390_ _0391_ VDD VSS AND3_X1
X_1066_ net48 _0267_ _0361_ _0391_ _0392_ VDD VSS AOI22_X1
X_1067_ _0338_ _0357_ _0390_ _0393_ VDD VSS NAND3_X1
X_1068_ _0271_ _0323_ _0393_ _0394_ VDD VSS AOI21_X1
X_1069_ _0272_ _0392_ _0394_ _0388_ _0072_ VDD VSS OAI22_X1
X_1070_ net119 _0395_ VDD VSS BUF_X4
X_1071_ _0395_ _0346_ _0396_ VDD VSS NAND2_X1
X_1072_ _0395_ _0303_ _0397_ VDD VSS NAND2_X1
X_1073_ _0371_ _0378_ net118 _0373_ _0398_ VDD VSS NAND4_X1
X_1074_ _0320_ _0348_ _0398_ _0399_ VDD VSS NOR3_X1
X_1075_ _0395_ _0297_ _0400_ VDD VSS NOR2_X1
X_1076_ net49 _0384_ _0400_ _0399_ _0401_ VDD VSS AOI22_X1
X_1077_ _0396_ _0397_ _0399_ _0260_ _0401_ _0073_ VDD VSS
+ OAI221_X1
X_1078_ net120 _0260_ _0402_ VDD VSS NAND2_X1
X_1079_ _0670_ _0210_ _0265_ _0403_ VDD VSS AND3_X1
X_1080_ _0403_ _0267_ net50 _0404_ VDD VSS AOI21_X1
X_1081_ _0402_ _0404_ _0270_ _0074_ VDD VSS OAI21_X1
X_1082_ _0355_ _0364_ _0371_ _0395_ _0405_ VDD VSS NAND4_X4
X_1083_ _0328_ _0345_ _0378_ net118 _0406_ VDD VSS NAND4_X4
X_1084_ _0405_ _0406_ _0407_ VDD VSS NOR2_X1
X_1085_ _0338_ _0331_ _0407_ _0408_ VDD VSS AND3_X1
X_1086_ net121 _0329_ _0409_ VDD VSS NOR2_X1
X_1087_ net51 _0384_ _0408_ _0409_ _0410_ VDD VSS AOI22_X1
X_1088_ _0338_ _0331_ _0407_ _0411_ VDD VSS NAND3_X1
X_1089_ _0269_ _0323_ _0411_ _0412_ VDD VSS AOI21_X1
X_1090_ net121 _0413_ VDD VSS INV_X1
X_1091_ _0272_ _0410_ _0412_ _0413_ _0075_ VDD VSS OAI22_X1
X_1092_ net122 _0329_ _0414_ VDD VSS NOR2_X1
X_1093_ _0389_ _0388_ _0413_ _0405_ _0415_ VDD VSS OR4_X1
X_1094_ _0324_ _0381_ _0415_ _0416_ VDD VSS NOR3_X1
X_1095_ net52 _0384_ _0414_ _0416_ _0417_ VDD VSS AOI22_X1
X_1096_ _0320_ _0381_ _0415_ _0418_ VDD VSS OR3_X1
X_1097_ _0269_ _0323_ _0418_ _0419_ VDD VSS AOI21_X1
X_1098_ net122 _0420_ VDD VSS INV_X1
X_1099_ _0272_ _0417_ _0419_ _0420_ _0076_ VDD VSS OAI22_X1
X_1100_ _0378_ net118 net121 net122 _0421_ VDD VSS NAND4_X2
X_1101_ _0405_ _0421_ _0422_ VDD VSS NOR2_X1
X_1102_ _0338_ _0357_ _0422_ _0423_ VDD VSS AND3_X1
X_1103_ net123 _0329_ _0424_ VDD VSS NOR2_X1
X_1104_ net53 _0384_ _0423_ _0424_ _0425_ VDD VSS AOI22_X1
X_1105_ _0338_ _0357_ _0422_ _0426_ VDD VSS NAND3_X1
X_1106_ _0269_ _0323_ _0426_ _0427_ VDD VSS AOI21_X1
X_1107_ net123 _0428_ VDD VSS INV_X1
X_1108_ _0272_ _0425_ _0427_ _0428_ _0077_ VDD VSS OAI22_X1
X_1109_ net124 _0429_ VDD VSS BUF_X2
X_1110_ _0429_ _0346_ _0430_ VDD VSS NAND2_X1
X_1111_ _0429_ _0431_ VDD VSS INV_X1
X_1112_ net121 net122 net123 _0432_ VDD VSS NAND3_X2
X_1113_ _0405_ _0406_ _0432_ _0433_ VDD VSS NOR3_X1
X_1114_ _0431_ _0302_ _0433_ _0434_ VDD VSS AND3_X1
X_1115_ net54 _0203_ _0349_ _0434_ _0435_ VDD VSS AOI22_X1
X_1116_ _0349_ _0433_ _0436_ VDD VSS AND2_X1
X_1117_ _0429_ _0323_ _0437_ VDD VSS NAND2_X1
X_1118_ _0430_ _0435_ _0346_ _0436_ _0437_ _0078_ VDD VSS
+ OAI221_X1
X_1119_ net125 _0438_ VDD VSS BUF_X4
X_1120_ _0438_ _0346_ _0439_ VDD VSS NAND2_X1
X_1121_ _0405_ _0406_ _0432_ _0440_ VDD VSS OR3_X1
X_1122_ _0431_ _0438_ _0297_ _0440_ _0441_ VDD VSS NOR4_X1
X_1123_ net55 _0203_ _0342_ _0441_ _0442_ VDD VSS AOI22_X1
X_1124_ _0431_ _0411_ _0432_ _0443_ VDD VSS NOR3_X1
X_1125_ _0438_ _0323_ _0444_ VDD VSS NAND2_X1
X_1126_ _0439_ _0442_ _0346_ _0443_ _0444_ _0079_ VDD VSS
+ OAI221_X1
X_1127_ net126 _0445_ VDD VSS BUF_X4
X_1128_ _0445_ _0346_ _0446_ VDD VSS NAND2_X1
X_1129_ _0445_ _0303_ _0447_ VDD VSS NAND2_X1
X_1130_ net123 _0429_ _0438_ _0448_ VDD VSS NAND3_X1
X_1131_ _0405_ _0421_ _0448_ _0449_ VDD VSS NOR3_X2
X_1132_ _0449_ _0450_ VDD VSS INV_X1
X_1133_ _0324_ _0381_ _0450_ _0451_ VDD VSS NOR3_X1
X_1134_ _0445_ _0450_ _0452_ VDD VSS NOR2_X1
X_1135_ net56 _0203_ _0386_ _0452_ _0453_ VDD VSS AOI22_X1
X_1136_ _0446_ _0447_ _0451_ _0260_ _0453_ _0080_ VDD VSS
+ OAI221_X1
X_1137_ _0445_ _0337_ _0357_ _0449_ _0454_ VDD VSS AND4_X1
X_1138_ net127 _0329_ _0455_ VDD VSS NOR2_X1
X_1139_ net57 _0384_ _0454_ _0455_ _0456_ VDD VSS AOI22_X1
X_1140_ _0445_ _0338_ _0357_ _0449_ _0457_ VDD VSS NAND4_X1
X_1141_ _0269_ _0303_ _0457_ _0458_ VDD VSS AOI21_X1
X_1142_ net127 _0459_ VDD VSS INV_X1
X_1143_ _0272_ _0456_ _0458_ _0459_ _0081_ VDD VSS OAI22_X1
X_1144_ net128 _0460_ VDD VSS CLKBUF_X2
X_1145_ _0460_ _0271_ _0461_ VDD VSS NAND2_X1
X_1146_ _0460_ _0303_ _0462_ VDD VSS NAND2_X1
X_1147_ _0429_ _0438_ _0445_ net127 _0463_ VDD VSS NAND4_X2
X_1148_ _0405_ _0406_ _0432_ _0463_ _0464_ VDD VSS NOR4_X4
X_1149_ _0349_ _0464_ _0465_ VDD VSS AND2_X1
X_1150_ _0210_ _0265_ _0464_ _0466_ VDD VSS NAND3_X1
X_1151_ _0460_ _0466_ _0467_ VDD VSS NOR2_X1
X_1152_ net58 _0203_ _0349_ _0467_ _0468_ VDD VSS AOI22_X1
X_1153_ _0461_ _0462_ _0465_ _0260_ _0468_ _0082_ VDD VSS
+ OAI221_X1
X_1154_ net129 _0329_ _0469_ VDD VSS NOR2_X1
X_1155_ _0460_ _0464_ _0470_ VDD VSS NAND2_X1
X_1156_ _0289_ _0341_ _0470_ _0471_ VDD VSS NOR3_X1
X_1157_ net59 _0384_ _0469_ _0471_ _0472_ VDD VSS AOI22_X1
X_1158_ _0289_ _0341_ _0470_ _0473_ VDD VSS OR3_X1
X_1159_ _0269_ _0303_ _0473_ _0474_ VDD VSS AOI21_X1
X_1160_ net129 _0475_ VDD VSS INV_X1
X_1161_ _0270_ _0472_ _0474_ _0475_ _0083_ VDD VSS OAI22_X1
X_1162_ _0428_ _0405_ _0421_ _0463_ _0476_ VDD VSS OR4_X1
X_1163_ _0460_ net129 _0477_ VDD VSS NAND2_X1
X_1164_ _0381_ _0476_ _0477_ _0478_ VDD VSS OR3_X1
X_1165_ net130 _0297_ _0324_ _0478_ _0479_ VDD VSS NOR4_X1
X_1166_ _0479_ _0267_ net60 _0480_ VDD VSS AOI21_X1
X_1167_ _0324_ _0478_ _0481_ VDD VSS OR2_X1
X_1168_ _0269_ _0303_ _0481_ _0482_ VDD VSS AOI21_X1
X_1169_ net130 _0483_ VDD VSS INV_X1
X_1170_ _0270_ _0480_ _0482_ _0483_ _0084_ VDD VSS OAI22_X1
X_1171_ _0282_ _0280_ _0484_ VDD VSS XOR2_X1
X_1172_ _0193_ _0484_ _0485_ VDD VSS NOR2_X1
X_1173_ _0259_ _0265_ _0485_ _0193_ net61 _0486_ VDD VSS AOI221_X2
X_1174_ net131 _0487_ VDD VSS INV_X1
X_1175_ _0486_ _0272_ _0487_ _0085_ VDD VSS AOI21_X1
X_1176_ net132 _0329_ _0488_ VDD VSS NOR2_X1
X_1177_ _0483_ _0476_ _0477_ _0489_ VDD VSS OR3_X1
X_1178_ _0289_ _0360_ _0489_ _0490_ VDD VSS NOR3_X1
X_1179_ net62 _0384_ _0488_ _0490_ _0491_ VDD VSS AOI22_X1
X_1180_ _0289_ _0360_ _0489_ _0492_ VDD VSS OR3_X1
X_1181_ _0269_ _0303_ _0492_ _0493_ VDD VSS AOI21_X1
X_1182_ net132 _0494_ VDD VSS INV_X1
X_1183_ _0270_ _0491_ _0493_ _0494_ _0086_ VDD VSS OAI22_X1
X_1184_ net133 _0271_ _0495_ VDD VSS NAND2_X1
X_1185_ net133 _0302_ _0496_ VDD VSS NAND2_X1
X_1186_ _0483_ _0477_ _0497_ VDD VSS NOR2_X1
X_1187_ net132 _0349_ _0464_ _0497_ _0498_ VDD VSS AND4_X1
X_1188_ net133 _0499_ VDD VSS INV_X1
X_1189_ net132 _0499_ _0497_ _0500_ VDD VSS NAND3_X1
X_1190_ _0466_ _0500_ _0501_ VDD VSS NOR2_X1
X_1191_ net63 _0203_ _0349_ _0501_ _0502_ VDD VSS AOI22_X1
X_1192_ _0495_ _0496_ _0498_ _0260_ _0502_ _0087_ VDD VSS
+ OAI221_X1
X_1193_ _0277_ _0503_ VDD VSS INV_X1
X_1194_ _0503_ _0308_ _0281_ _0504_ VDD VSS OAI21_X1
X_1195_ _0286_ _0504_ _0505_ VDD VSS NOR2_X1
X_1196_ _0286_ _0277_ _0280_ _0506_ VDD VSS OAI21_X1
X_1197_ _0701_ _0277_ _0507_ VDD VSS NOR2_X1
X_1198_ _0698_ _0702_ _0508_ VDD VSS NAND2_X1
X_1199_ _0506_ _0507_ _0508_ _0509_ VDD VSS AOI21_X1
X_1200_ _0301_ _0505_ _0509_ _0510_ VDD VSS NOR3_X1
X_1201_ net64 _0510_ _0210_ _0511_ VDD VSS MUX2_X1
X_1202_ _0511_ net134 _0271_ _0088_ VDD VSS MUX2_X1
X_1203_ _0284_ _0301_ _0512_ VDD VSS NOR2_X1
X_1204_ _0311_ _0301_ _0513_ VDD VSS NOR2_X1
X_1205_ _0503_ _0281_ _0282_ _0514_ VDD VSS OAI21_X1
X_1206_ _0278_ _0514_ _0286_ _0515_ VDD VSS AOI21_X1
X_1207_ _0512_ _0513_ _0515_ _0516_ VDD VSS MUX2_X1
X_1208_ net65 _0516_ _0210_ _0517_ VDD VSS MUX2_X1
X_1209_ _0517_ net135 _0271_ _0089_ VDD VSS MUX2_X1
X_1210_ net136 _0518_ VDD VSS INV_X1
X_1211_ _0710_ _0312_ _0519_ VDD VSS NOR2_X1
X_1212_ _0714_ _0519_ _0520_ VDD VSS XNOR2_X1
X_1213_ _0210_ _0265_ _0520_ _0521_ VDD VSS NAND3_X1
X_1214_ _0269_ _0384_ net66 _0522_ VDD VSS AOI21_X1
X_1215_ _0518_ _0270_ _0521_ _0522_ _0090_ VDD VSS AOI22_X1
X_1216_ _0293_ _0265_ _0523_ VDD VSS AND2_X1
X_1217_ _0293_ _0301_ _0524_ VDD VSS NOR2_X1
X_1218_ _0275_ _0335_ _0336_ _0525_ VDD VSS OAI21_X1
X_1219_ _0523_ _0524_ _0525_ _0526_ VDD VSS MUX2_X1
X_1220_ net67 _0526_ _0210_ _0527_ VDD VSS MUX2_X1
X_1221_ _0527_ net137 _0271_ _0091_ VDD VSS MUX2_X1
X_1222_ _0284_ _0710_ _0713_ _0528_ VDD VSS NOR3_X1
X_1223_ _0316_ _0317_ _0528_ _0529_ VDD VSS OAI21_X1
X_1224_ _0278_ _0530_ VDD VSS INV_X1
X_1225_ _0530_ _0316_ _0313_ _0531_ VDD VSS NAND3_X1
X_1226_ _0529_ _0531_ _0509_ _0532_ VDD VSS OAI21_X1
X_1227_ _0720_ _0532_ _0533_ VDD VSS XNOR2_X1
X_1228_ _0259_ _0302_ _0533_ _0193_ net68 _0534_ VDD VSS AOI221_X1
X_1229_ net138 _0535_ VDD VSS INV_X1
X_1230_ _0534_ _0272_ _0535_ _0092_ VDD VSS AOI21_X1
X_1231_ _0291_ _0536_ VDD VSS INV_X1
X_1232_ _0307_ _0338_ _0295_ _0537_ VDD VSS NAND3_X1
X_1233_ _0295_ _0538_ VDD VSS INV_X1
X_1234_ _0008_ _0289_ _0538_ _0539_ VDD VSS OAI21_X1
X_1235_ _0210_ _0265_ _0537_ _0539_ _0540_ VDD VSS NAND4_X1
X_1236_ _0259_ _0384_ net69 _0541_ VDD VSS AOI21_X1
X_1237_ _0536_ _0270_ _0540_ _0541_ _0093_ VDD VSS AOI22_X1
X_1238_ _0290_ _0297_ _0324_ _0542_ VDD VSS NOR3_X1
X_1239_ _0542_ _0267_ net70 _0543_ VDD VSS AOI21_X1
X_1240_ _0269_ _0303_ _0324_ _0544_ VDD VSS AOI21_X1
X_1241_ _0290_ _0545_ VDD VSS INV_X1
X_1242_ _0270_ _0543_ _0544_ _0545_ _0094_ VDD VSS OAI22_X1
X_1243_ net182 _0176_ _0546_ VDD VSS NOR2_X2
X_1244_ _0546_ _0547_ VDD VSS CLKBUF_X3
X_1245_ net183 net3 _0547_ _0095_ VDD VSS MUX2_X1
X_1246_ net184 net4 _0547_ _0096_ VDD VSS MUX2_X1
X_1247_ net185 net5 _0547_ _0097_ VDD VSS MUX2_X1
X_1248_ net186 net6 _0547_ _0098_ VDD VSS MUX2_X1
X_1249_ net187 net7 _0547_ _0099_ VDD VSS MUX2_X1
X_1250_ net188 net8 _0547_ _0100_ VDD VSS MUX2_X1
X_1251_ net189 net9 _0547_ _0101_ VDD VSS MUX2_X1
X_1252_ net190 net10 _0547_ _0102_ VDD VSS MUX2_X1
X_1253_ net191 net11 _0547_ _0103_ VDD VSS MUX2_X1
X_1254_ net192 net12 _0547_ _0104_ VDD VSS MUX2_X1
X_1255_ _0546_ _0548_ VDD VSS CLKBUF_X3
X_1256_ net193 net13 _0548_ _0105_ VDD VSS MUX2_X1
X_1257_ net194 net14 _0548_ _0106_ VDD VSS MUX2_X1
X_1258_ net195 net15 _0548_ _0107_ VDD VSS MUX2_X1
X_1259_ net196 net16 _0548_ _0108_ VDD VSS MUX2_X1
X_1260_ net197 net17 _0548_ _0109_ VDD VSS MUX2_X1
X_1261_ net198 net18 _0548_ _0110_ VDD VSS MUX2_X1
X_1262_ net199 net19 _0548_ _0111_ VDD VSS MUX2_X1
X_1263_ net200 net20 _0548_ _0112_ VDD VSS MUX2_X1
X_1264_ net201 net21 _0548_ _0113_ VDD VSS MUX2_X1
X_1265_ net202 net22 _0548_ _0114_ VDD VSS MUX2_X1
X_1266_ _0546_ _0549_ VDD VSS CLKBUF_X3
X_1267_ net203 net23 _0549_ _0115_ VDD VSS MUX2_X1
X_1268_ net204 net24 _0549_ _0116_ VDD VSS MUX2_X1
X_1269_ net205 net25 _0549_ _0117_ VDD VSS MUX2_X1
X_1270_ net206 net26 _0549_ _0118_ VDD VSS MUX2_X1
X_1271_ net207 net27 _0549_ _0119_ VDD VSS MUX2_X1
X_1272_ net208 net28 _0549_ _0120_ VDD VSS MUX2_X1