
* cell non_restoring_divider
* pin remainder[2]
* pin remainder[0]
* pin remainder[3]
* pin remainder[1]
* pin remainder[4]
* pin divisor[2]
* pin divisor[0]
* pin dividend[3]
* pin dividend[7]
* pin divisor[1]
* pin dividend[4]
* pin dividend[2]
* pin divisor[3]
* pin dividend[6]
* pin dividend[5]
* pin dividend[1]
* pin divisor[4]
* pin divisor[5]
* pin dividend[0]
* pin divisor[6]
* pin clk
* pin divisor[7]
* pin remainder[5]
* pin quotient[7]
* pin start
* pin rst_n
* pin error
* pin quotient[6]
* pin quotient[5]
* pin remainder[6]
* pin quotient[0]
* pin quotient[4]
* pin quotient[1]
* pin remainder[7]
* pin quotient[2]
* pin busy
* pin quotient[3]
* pin valid
* pin NWELL
* pin PWELL,gf180mcu_gnd
.SUBCKT non_restoring_divider 1 24 28 65 70 82 97 99 110 113 129 131 132 134
+ 146 153 156 157 167 171 201 202 222 244 261 272 278 313 314 315 316 317 318
+ 319 320 321 322 323 324 325
* net 1 remainder[2]
* net 24 remainder[0]
* net 28 remainder[3]
* net 65 remainder[1]
* net 70 remainder[4]
* net 82 divisor[2]
* net 97 divisor[0]
* net 99 dividend[3]
* net 110 dividend[7]
* net 113 divisor[1]
* net 129 dividend[4]
* net 131 dividend[2]
* net 132 divisor[3]
* net 134 dividend[6]
* net 146 dividend[5]
* net 153 dividend[1]
* net 156 divisor[4]
* net 157 divisor[5]
* net 167 dividend[0]
* net 171 divisor[6]
* net 201 clk
* net 202 divisor[7]
* net 222 remainder[5]
* net 244 quotient[7]
* net 261 start
* net 272 rst_n
* net 278 error
* net 313 quotient[6]
* net 314 quotient[5]
* net 315 remainder[6]
* net 316 quotient[0]
* net 317 quotient[4]
* net 318 quotient[1]
* net 319 remainder[7]
* net 320 quotient[2]
* net 321 busy
* net 322 quotient[3]
* net 323 valid
* net 324 NWELL
* net 325 PWELL,gf180mcu_gnd
* cell instance $3 r0 *1 77.84,5.04
X$3 2 324 325 1 gf180mcu_fd_sc_mcu9t5v0__dlyb_2
* cell instance $10 m0 *1 75.04,25.2
X$10 325 4 2 7 5 324 gf180mcu_fd_sc_mcu9t5v0__dffrnq_2
* cell instance $12 r0 *1 78.4,15.12
X$12 325 324 5 2 3 6 gf180mcu_fd_sc_mcu9t5v0__mux2_2
* cell instance $14 r0 *1 16.24,25.2
X$14 325 324 13 8 3 15 gf180mcu_fd_sc_mcu9t5v0__mux2_2
* cell instance $16 r0 *1 103.6,126
X$16 325 324 3 276 gf180mcu_fd_sc_mcu9t5v0__buf_4
* cell instance $18 m0 *1 129.92,115.92
X$18 325 180 212 235 206 3 324 gf180mcu_fd_sc_mcu9t5v0__nand4_4
* cell instance $20 m0 *1 119.84,35.28
X$20 325 324 21 25 3 12 gf180mcu_fd_sc_mcu9t5v0__mux2_2
* cell instance $33 m0 *1 11.76,126
X$33 325 324 253 245 3 256 gf180mcu_fd_sc_mcu9t5v0__mux2_2
* cell instance $35 m0 *1 12.88,115.92
X$35 325 324 237 229 3 197 gf180mcu_fd_sc_mcu9t5v0__mux2_2
* cell instance $37 r0 *1 138.88,35.28
X$37 325 324 22 23 3 44 gf180mcu_fd_sc_mcu9t5v0__mux2_2
* cell instance $40 m0 *1 14,55.44
X$40 325 324 66 51 3 61 gf180mcu_fd_sc_mcu9t5v0__mux2_2
* cell instance $44 r0 *1 62.72,115.92
X$44 325 324 248 246 3 230 gf180mcu_fd_sc_mcu9t5v0__mux2_2
* cell instance $46 m0 *1 92.96,126
X$46 325 324 255 250 3 233 gf180mcu_fd_sc_mcu9t5v0__mux2_2
* cell instance $48 m0 *1 2.24,146.16
X$48 325 4 279 324 gf180mcu_fd_sc_mcu9t5v0__buf_16
* cell instance $96 m0 *1 5.6,95.76
X$96 325 4 172 9 178 324 gf180mcu_fd_sc_mcu9t5v0__dffrnq_2
* cell instance $98 r0 *1 2.24,115.92
X$98 325 4 229 240 237 324 gf180mcu_fd_sc_mcu9t5v0__dffrnq_2
* cell instance $101 m0 *1 35.28,156.24
X$101 325 4 273 240 294 324 gf180mcu_fd_sc_mcu9t5v0__dffrnq_2
* cell instance $103 m0 *1 49.28,166.32
X$103 325 4 306 240 305 324 gf180mcu_fd_sc_mcu9t5v0__dffrnq_2
* cell instance $106 r0 *1 119.84,35.28
X$106 325 4 25 7 21 324 gf180mcu_fd_sc_mcu9t5v0__dffrnq_2
* cell instance $108 m0 *1 154.56,146.16
X$108 325 4 288 231 269 324 gf180mcu_fd_sc_mcu9t5v0__dffrnq_2
* cell instance $111 m0 *1 97.44,166.32
X$111 325 4 302 231 311 324 gf180mcu_fd_sc_mcu9t5v0__dffrnq_2
* cell instance $113 r0 *1 112,105.84
X$113 325 4 215 231 214 324 gf180mcu_fd_sc_mcu9t5v0__dffrnq_2
* cell instance $115 m0 *1 113.68,146.16
X$115 325 4 286 231 280 324 gf180mcu_fd_sc_mcu9t5v0__dffrnq_2
* cell instance $117 r0 *1 59.92,25.2
X$117 325 4 6 9 14 324 gf180mcu_fd_sc_mcu9t5v0__dffrnq_2
* cell instance $119 m0 *1 3.36,65.52
X$119 325 4 91 9 98 324 gf180mcu_fd_sc_mcu9t5v0__dffrnq_2
* cell instance $121 r0 *1 2.24,45.36
X$121 325 4 51 9 66 324 gf180mcu_fd_sc_mcu9t5v0__dffrnq_2
* cell instance $123 m0 *1 139.44,45.36
X$123 325 4 27 7 39 324 gf180mcu_fd_sc_mcu9t5v0__dffrnq_2
* cell instance $126 m0 *1 137.76,35.28
X$126 325 4 23 7 22 324 gf180mcu_fd_sc_mcu9t5v0__dffrnq_2
* cell instance $128 m0 *1 120.4,45.36
X$128 325 4 44 7 38 324 gf180mcu_fd_sc_mcu9t5v0__dffrnq_2
* cell instance $130 m0 *1 70.56,166.32
X$130 325 4 312 240 307 324 gf180mcu_fd_sc_mcu9t5v0__dffrnq_2
* cell instance $133 m0 *1 22.4,55.44
X$133 325 4 61 9 41 324 gf180mcu_fd_sc_mcu9t5v0__dffrnq_2
* cell instance $135 m0 *1 47.6,146.16
X$135 325 4 283 240 274 324 gf180mcu_fd_sc_mcu9t5v0__dffrnq_2
* cell instance $137 m0 *1 124.32,166.32
X$137 325 4 310 231 309 324 gf180mcu_fd_sc_mcu9t5v0__dffrnq_2
* cell instance $140 r0 *1 55.44,105.84
X$140 325 4 230 9 224 324 gf180mcu_fd_sc_mcu9t5v0__dffrnq_2
* cell instance $142 r0 *1 72.8,146.16
X$142 325 4 285 240 296 324 gf180mcu_fd_sc_mcu9t5v0__dffrnq_2
* cell instance $144 m0 *1 29.12,166.32
X$144 325 4 304 240 301 324 gf180mcu_fd_sc_mcu9t5v0__dffrnq_2
* cell instance $146 r0 *1 110.32,25.2
X$146 325 4 12 7 11 324 gf180mcu_fd_sc_mcu9t5v0__dffrnq_2
* cell instance $148 r0 *1 2.24,126
X$148 325 4 245 240 253 324 gf180mcu_fd_sc_mcu9t5v0__dffrnq_2
* cell instance $151 r0 *1 111.44,126
X$151 325 4 257 231 16 324 gf180mcu_fd_sc_mcu9t5v0__dffrnq_2
* cell instance $154 r0 *1 105.84,85.68
X$154 325 4 166 7 190 324 gf180mcu_fd_sc_mcu9t5v0__dffrnq_2
* cell instance $157 m0 *1 45.92,136.08
X$157 325 4 263 240 262 324 gf180mcu_fd_sc_mcu9t5v0__dffrnq_2
* cell instance $159 m0 *1 134.96,146.16
X$159 325 4 247 231 265 324 gf180mcu_fd_sc_mcu9t5v0__dffrnq_2
* cell instance $163 r0 *1 132.16,75.6
X$163 325 4 143 7 142 324 gf180mcu_fd_sc_mcu9t5v0__dffrnq_2
* cell instance $165 r0 *1 113.12,156.24
X$165 325 4 291 231 292 324 gf180mcu_fd_sc_mcu9t5v0__dffrnq_2
* cell instance $167 r0 *1 81.76,156.24
X$167 325 4 290 231 303 324 gf180mcu_fd_sc_mcu9t5v0__dffrnq_2
* cell instance $169 m0 *1 54.88,126
X$169 325 4 246 240 248 324 gf180mcu_fd_sc_mcu9t5v0__dffrnq_2
* cell instance $171 m0 *1 40.88,115.92
X$171 325 4 197 240 238 324 gf180mcu_fd_sc_mcu9t5v0__dffrnq_2
* cell instance $173 r0 *1 147.28,115.92
X$173 325 4 207 231 243 324 gf180mcu_fd_sc_mcu9t5v0__dffrnq_2
* cell instance $175 r0 *1 6.72,75.6
X$175 325 4 101 9 120 324 gf180mcu_fd_sc_mcu9t5v0__dffrnq_2
* cell instance $177 r0 *1 11.76,156.24
X$177 325 4 297 240 299 324 gf180mcu_fd_sc_mcu9t5v0__dffrnq_2
* cell instance $179 m0 *1 143.36,166.32
X$179 325 4 293 231 298 324 gf180mcu_fd_sc_mcu9t5v0__dffrnq_2
* cell instance $182 r0 *1 152.88,55.44
X$182 325 4 83 7 81 324 gf180mcu_fd_sc_mcu9t5v0__dffrnq_2
* cell instance $184 r0 *1 152.32,45.36
X$184 325 4 43 7 47 324 gf180mcu_fd_sc_mcu9t5v0__dffrnq_2
* cell instance $186 m0 *1 131.6,65.52
X$186 325 4 77 7 90 324 gf180mcu_fd_sc_mcu9t5v0__dffrnq_2
* cell instance $188 r0 *1 10.08,95.76
X$188 325 4 194 9 193 324 gf180mcu_fd_sc_mcu9t5v0__dffrnq_2
* cell instance $190 m0 *1 94.64,146.16
X$190 325 4 277 231 275 324 gf180mcu_fd_sc_mcu9t5v0__dffrnq_2
* cell instance $192 r0 *1 24.64,126
X$192 325 4 256 240 249 324 gf180mcu_fd_sc_mcu9t5v0__dffrnq_2
* cell instance $195 m0 *1 82.88,115.92
X$195 325 4 233 231 232 324 gf180mcu_fd_sc_mcu9t5v0__dffrnq_2
* cell instance $197 m0 *1 5.6,35.28
X$197 325 4 8 9 13 324 gf180mcu_fd_sc_mcu9t5v0__dffrnq_2
* cell instance $200 r0 *1 81.76,126
X$200 325 4 250 231 255 324 gf180mcu_fd_sc_mcu9t5v0__dffrnq_2
* cell instance $203 m0 *1 25.76,35.28
X$203 325 4 15 9 36 324 gf180mcu_fd_sc_mcu9t5v0__dffrnq_2
* cell instance $206 r0 *1 75.04,136.08
X$206 325 4 284 240 264 324 gf180mcu_fd_sc_mcu9t5v0__dffrnq_2
* cell instance $211 m0 *1 79.52,35.28
X$211 325 324 6 17 gf180mcu_fd_sc_mcu9t5v0__clkinv_2
* cell instance $217 m0 *1 75.04,55.44
X$217 325 62 63 68 6 324 gf180mcu_fd_sc_mcu9t5v0__addh_2
* cell instance $227 m0 *1 106.96,85.68
X$227 325 324 7 gf180mcu_fd_sc_mcu9t5v0__clkinv_3
* cell instance $239 m0 *1 111.44,85.68
X$239 325 324 164 7 gf180mcu_fd_sc_mcu9t5v0__clkbuf_4
* cell instance $250 r0 *1 18.48,35.28
X$250 8 324 325 28 gf180mcu_fd_sc_mcu9t5v0__dlyb_2
* cell instance $274 r0 *1 44.8,85.68
X$274 325 324 164 9 gf180mcu_fd_sc_mcu9t5v0__clkbuf_4
* cell instance $277 m0 *1 50.96,95.76
X$277 325 324 9 gf180mcu_fd_sc_mcu9t5v0__inv_3
* cell instance $279 r0 *1 77.28,35.28
X$279 325 324 26 32 31 10 gf180mcu_fd_sc_mcu9t5v0__mux2_2
* cell instance $281 r0 *1 104.16,25.2
X$281 325 324 12 10 gf180mcu_fd_sc_mcu9t5v0__clkinv_2
* cell instance $287 r0 *1 108.08,35.28
X$287 324 29 325 34 16 11 10 gf180mcu_fd_sc_mcu9t5v0__oai22_2
* cell instance $289 m0 *1 84,35.28
X$289 325 18 326 27 10 324 gf180mcu_fd_sc_mcu9t5v0__addh_2
* cell instance $295 m0 *1 95.76,35.28
X$295 325 20 19 12 33 324 gf180mcu_fd_sc_mcu9t5v0__addh_4
* cell instance $309 m0 *1 69.44,35.28
X$309 324 29 325 26 16 14 17 gf180mcu_fd_sc_mcu9t5v0__oai22_2
* cell instance $312 m0 *1 33.6,45.36
X$312 325 324 15 37 gf180mcu_fd_sc_mcu9t5v0__clkinv_2
* cell instance $317 r0 *1 35.28,55.44
X$317 325 87 88 86 15 324 gf180mcu_fd_sc_mcu9t5v0__addh_2
* cell instance $323 r0 *1 33.6,45.36
X$323 324 29 325 40 16 41 52 gf180mcu_fd_sc_mcu9t5v0__oai22_2
* cell instance $325 r0 *1 34.16,35.28
X$325 324 29 325 35 16 36 37 gf180mcu_fd_sc_mcu9t5v0__oai22_2
* cell instance $329 r0 *1 115.92,115.92
X$329 325 324 242 16 gf180mcu_fd_sc_mcu9t5v0__buf_4
* cell instance $332 m0 *1 53.2,105.84
X$332 324 325 221 181 220 209 224 16 gf180mcu_fd_sc_mcu9t5v0__oai221_2
* cell instance $334 r0 *1 38.08,105.84
X$334 324 325 221 138 223 203 238 16 gf180mcu_fd_sc_mcu9t5v0__oai221_2
* cell instance $348 m0 *1 133.84,126
X$348 324 16 325 239 251 247 227 gf180mcu_fd_sc_mcu9t5v0__oai31_2
* cell instance $351 m0 *1 131.6,85.68
X$351 324 175 325 16 29 142 152 gf180mcu_fd_sc_mcu9t5v0__oai22_2
* cell instance $353 m0 *1 120.96,55.44
X$353 324 29 325 79 16 38 57 gf180mcu_fd_sc_mcu9t5v0__oai22_2
* cell instance $357 r0 *1 59.92,35.28
X$357 325 324 35 30 31 17 gf180mcu_fd_sc_mcu9t5v0__mux2_2
* cell instance $359 m0 *1 81.76,45.36
X$359 42 325 324 43 17 gf180mcu_fd_sc_mcu9t5v0__addh_1
* cell instance $366 r0 *1 83.44,65.52
X$366 325 42 324 116 63 18 gf180mcu_fd_sc_mcu9t5v0__aoi21_2
* cell instance $368 m0 *1 82.32,75.6
X$368 325 136 324 105 42 63 151 18 gf180mcu_fd_sc_mcu9t5v0__aoi221_2
* cell instance $372 r0 *1 97.44,35.28
X$372 325 324 27 19 gf180mcu_fd_sc_mcu9t5v0__clkinv_2
* cell instance $374 r0 *1 66.08,55.44
X$374 20 72 62 85 33 324 325 gf180mcu_fd_sc_mcu9t5v0__aoi211_2
* cell instance $376 m0 *1 83.44,65.52
X$376 324 63 20 325 105 gf180mcu_fd_sc_mcu9t5v0__and2_2
* cell instance $378 m0 *1 75.6,65.52
X$378 325 324 63 94 20 gf180mcu_fd_sc_mcu9t5v0__nand2_2
* cell instance $380 r0 *1 66.08,45.36
X$380 325 33 324 50 20 72 gf180mcu_fd_sc_mcu9t5v0__aoi21_2
* cell instance $383 r0 *1 73.36,45.36
X$383 73 325 20 324 32 gf180mcu_fd_sc_mcu9t5v0__xor2_2
* cell instance $385 m0 *1 100.8,45.36
X$385 325 33 324 49 76 20 gf180mcu_fd_sc_mcu9t5v0__aoi21_2
* cell instance $398 m0 *1 64.4,55.44
X$398 324 63 325 33 69 20 gf180mcu_fd_sc_mcu9t5v0__oai21_2
* cell instance $406 m0 *1 165.2,35.28
X$406 23 324 325 24 gf180mcu_fd_sc_mcu9t5v0__dlyb_2
* cell instance $417 r0 *1 135.52,45.36
X$417 25 324 325 65 gf180mcu_fd_sc_mcu9t5v0__dlyb_2
* cell instance $434 r0 *1 143.92,45.36
X$434 325 324 39 27 58 46 gf180mcu_fd_sc_mcu9t5v0__mux2_2
* cell instance $443 r0 *1 74.48,105.84
X$443 324 225 325 211 29 209 31 gf180mcu_fd_sc_mcu9t5v0__oai31_2
* cell instance $457 m0 *1 39.2,105.84
X$457 52 325 29 31 324 223 gf180mcu_fd_sc_mcu9t5v0__or3_2
* cell instance $460 m0 *1 46.48,105.84
X$460 203 325 29 31 324 220 gf180mcu_fd_sc_mcu9t5v0__or3_2
* cell instance $465 r0 *1 92.96,95.76
X$465 325 324 198 29 gf180mcu_fd_sc_mcu9t5v0__buf_4
* cell instance $470 m0 *1 114.8,115.92
X$470 324 242 325 29 234 187 gf180mcu_fd_sc_mcu9t5v0__oai21_2
* cell instance $472 m0 *1 55.44,45.36
X$472 324 54 49 325 30 gf180mcu_fd_sc_mcu9t5v0__xnor2_2
* cell instance $475 m0 *1 71.68,85.68
X$475 325 150 31 174 127 141 324 gf180mcu_fd_sc_mcu9t5v0__aoi22_4
* cell instance $479 r0 *1 73.36,95.76
X$479 191 31 148 204 325 324 210 gf180mcu_fd_sc_mcu9t5v0__and4_2
* cell instance $481 r0 *1 50.4,105.84
X$481 325 324 186 221 31 gf180mcu_fd_sc_mcu9t5v0__nand2_2
* cell instance $497 m0 *1 36.96,45.36
X$497 325 324 40 48 31 37 gf180mcu_fd_sc_mcu9t5v0__mux2_2
* cell instance $511 m0 *1 93.52,55.44
X$511 325 71 64 56 55 33 324 gf180mcu_fd_sc_mcu9t5v0__aoi211_4
* cell instance $515 r0 *1 116.48,45.36
X$515 325 324 34 57 80 45 gf180mcu_fd_sc_mcu9t5v0__mux2_2
* cell instance $527 m0 *1 31.36,65.52
X$527 121 325 324 91 37 gf180mcu_fd_sc_mcu9t5v0__addh_1
* cell instance $551 r0 *1 82.88,45.36
X$551 325 324 43 68 gf180mcu_fd_sc_mcu9t5v0__clkinv_2
* cell instance $557 m0 *1 158.48,45.36
X$557 325 324 47 43 58 59 gf180mcu_fd_sc_mcu9t5v0__mux2_2
* cell instance $561 r0 *1 126,45.36
X$561 325 324 44 57 gf180mcu_fd_sc_mcu9t5v0__clkinv_2
* cell instance $568 r0 *1 103.6,45.36
X$568 325 55 56 67 44 324 gf180mcu_fd_sc_mcu9t5v0__addh_2
* cell instance $572 m0 *1 117.04,55.44
X$572 325 324 78 45 gf180mcu_fd_sc_mcu9t5v0__clkinv_2
* cell instance $575 m0 *1 165.2,55.44
X$575 82 324 325 46 gf180mcu_fd_sc_mcu9t5v0__dlyb_2
* cell instance $578 r0 *1 146.72,65.52
X$578 100 96 59 46 324 325 154 gf180mcu_fd_sc_mcu9t5v0__or4_2
* cell instance $588 r0 *1 43.68,45.36
X$588 324 88 60 325 48 gf180mcu_fd_sc_mcu9t5v0__xnor2_2
* cell instance $597 r0 *1 55.44,45.36
X$597 324 53 325 50 60 54 gf180mcu_fd_sc_mcu9t5v0__oai21_2
* cell instance $601 m0 *1 5.04,55.44
X$601 51 324 325 70 gf180mcu_fd_sc_mcu9t5v0__dlyb_2
* cell instance $606 r0 *1 25.76,75.6
X$606 159 325 324 101 52 gf180mcu_fd_sc_mcu9t5v0__addh_1
* cell instance $613 r0 *1 31.92,55.44
X$613 325 324 61 52 gf180mcu_fd_sc_mcu9t5v0__clkinv_2
* cell instance $618 r0 *1 55.44,55.44
X$618 324 53 325 69 84 71 gf180mcu_fd_sc_mcu9t5v0__oai21_2
* cell instance $620 m0 *1 56,55.44
X$620 325 324 62 53 gf180mcu_fd_sc_mcu9t5v0__clkinv_2
* cell instance $622 m0 *1 60.48,55.44
X$622 325 324 63 54 gf180mcu_fd_sc_mcu9t5v0__clkinv_2
* cell instance $629 r0 *1 97.44,45.36
X$629 325 324 55 74 gf180mcu_fd_sc_mcu9t5v0__clkinv_2
* cell instance $636 m0 *1 104.16,65.52
X$636 325 324 56 89 gf180mcu_fd_sc_mcu9t5v0__clkinv_2
* cell instance $638 r0 *1 83.44,75.6
X$638 325 140 105 128 56 141 324 gf180mcu_fd_sc_mcu9t5v0__nand4_4
* cell instance $640 r0 *1 93.52,65.52
X$640 325 95 324 117 119 56 gf180mcu_fd_sc_mcu9t5v0__aoi21_2
* cell instance $648 r0 *1 114.8,55.44
X$648 325 77 78 57 75 73 324 gf180mcu_fd_sc_mcu9t5v0__addf_2
* cell instance $650 m0 *1 112,65.52
X$650 95 325 324 77 57 gf180mcu_fd_sc_mcu9t5v0__addh_1
* cell instance $658 r0 *1 118.72,136.08
X$658 325 324 58 280 271 gf180mcu_fd_sc_mcu9t5v0__nand2_2
* cell instance $660 r0 *1 14.56,65.52
X$660 325 324 98 91 58 92 gf180mcu_fd_sc_mcu9t5v0__mux2_2
* cell instance $673 m0 *1 15.12,105.84
X$673 325 324 193 194 58 182 gf180mcu_fd_sc_mcu9t5v0__mux2_2
* cell instance $675 m0 *1 11.2,75.6
X$675 325 324 120 101 58 137 gf180mcu_fd_sc_mcu9t5v0__mux2_2
* cell instance $677 r0 *1 146.72,126
X$677 324 325 165 58 252 gf180mcu_fd_sc_mcu9t5v0__nand2_4
* cell instance $680 r0 *1 16.8,85.68
X$680 325 324 178 172 58 158 gf180mcu_fd_sc_mcu9t5v0__mux2_2
* cell instance $684 r0 *1 134.4,55.44
X$684 325 324 90 77 58 100 gf180mcu_fd_sc_mcu9t5v0__mux2_2
* cell instance $688 m0 *1 156.8,65.52
X$688 325 324 81 83 58 96 gf180mcu_fd_sc_mcu9t5v0__mux2_2
* cell instance $696 m0 *1 164.08,95.76
X$696 132 324 325 59 gf180mcu_fd_sc_mcu9t5v0__dlyb_2
* cell instance $709 m0 *1 25.2,75.6
X$709 325 125 122 115 61 324 gf180mcu_fd_sc_mcu9t5v0__addh_2
* cell instance $714 r0 *1 54.32,65.52
X$714 325 324 88 102 62 gf180mcu_fd_sc_mcu9t5v0__nand2_2
* cell instance $723 m0 *1 60.48,65.52
X$723 324 88 325 62 104 63 gf180mcu_fd_sc_mcu9t5v0__oai21_2
* cell instance $739 r0 *1 97.44,55.44
X$739 325 324 75 64 gf180mcu_fd_sc_mcu9t5v0__clkinv_2
* cell instance $747 m0 *1 113.68,55.44
X$747 325 324 77 67 gf180mcu_fd_sc_mcu9t5v0__clkinv_2
* cell instance $759 m0 *1 57.68,75.6
X$759 147 324 325 71 103 69 gf180mcu_fd_sc_mcu9t5v0__nor3_2
* cell instance $772 r0 *1 75.6,55.44
X$772 325 324 73 72 gf180mcu_fd_sc_mcu9t5v0__clkinv_2
* cell instance $785 r0 *1 102.48,55.44
X$785 324 74 325 75 76 89 gf180mcu_fd_sc_mcu9t5v0__oai21_2
* cell instance $792 r0 *1 122.08,65.52
X$792 325 75 328 83 109 324 gf180mcu_fd_sc_mcu9t5v0__addh_2
* cell instance $810 r0 *1 119.84,75.6
X$810 325 324 79 109 80 128 gf180mcu_fd_sc_mcu9t5v0__mux2_2
* cell instance $813 m0 *1 89.04,85.68
X$813 324 162 325 163 80 151 gf180mcu_fd_sc_mcu9t5v0__oai21_2
* cell instance $820 m0 *1 76.72,95.76
X$820 148 191 192 184 80 324 325 gf180mcu_fd_sc_mcu9t5v0__aoi211_2
* cell instance $827 m0 *1 128.24,75.6
X$827 325 324 83 118 gf180mcu_fd_sc_mcu9t5v0__clkinv_2
* cell instance $838 m0 *1 41.44,65.52
X$838 325 87 324 123 84 88 gf180mcu_fd_sc_mcu9t5v0__aoi21_2
* cell instance $842 r0 *1 59.36,65.52
X$842 324 93 325 104 135 85 gf180mcu_fd_sc_mcu9t5v0__oai21_2
* cell instance $847 r0 *1 37.52,65.52
X$847 325 324 91 86 gf180mcu_fd_sc_mcu9t5v0__clkinv_2
* cell instance $849 m0 *1 52.08,65.52
X$849 325 324 87 93 gf180mcu_fd_sc_mcu9t5v0__clkinv_2
* cell instance $858 r0 *1 62.72,75.6
X$858 325 324 122 103 88 gf180mcu_fd_sc_mcu9t5v0__nand2_2
* cell instance $865 m0 *1 62.72,85.68
X$865 155 139 122 88 325 324 140 gf180mcu_fd_sc_mcu9t5v0__and4_2
* cell instance $872 m0 *1 103.6,75.6
X$872 324 106 325 107 136 89 gf180mcu_fd_sc_mcu9t5v0__oai21_2
* cell instance $883 m0 *1 19.04,85.68
X$883 137 92 182 158 324 325 149 gf180mcu_fd_sc_mcu9t5v0__or4_2
* cell instance $886 m0 *1 10.64,85.68
X$886 156 324 325 92 gf180mcu_fd_sc_mcu9t5v0__dlyb_2
* cell instance $890 m0 *1 49.84,75.6
X$890 325 124 324 126 102 93 gf180mcu_fd_sc_mcu9t5v0__aoi21_2
* cell instance $896 r0 *1 75.6,65.52
X$896 324 116 325 117 127 94 gf180mcu_fd_sc_mcu9t5v0__oai21_2
* cell instance $899 r0 *1 102.48,65.52
X$899 325 324 95 106 gf180mcu_fd_sc_mcu9t5v0__clkinv_2
* cell instance $908 r0 *1 156.8,65.52
X$908 97 324 325 96 gf180mcu_fd_sc_mcu9t5v0__dlyb_2
* cell instance $923 m0 *1 165.2,65.52
X$923 99 324 325 112 gf180mcu_fd_sc_mcu9t5v0__dlyb_2
* cell instance $928 m0 *1 140,75.6
X$928 113 324 325 100 gf180mcu_fd_sc_mcu9t5v0__dlyb_2
* cell instance $931 m0 *1 21.84,75.6
X$931 325 324 101 115 gf180mcu_fd_sc_mcu9t5v0__clkinv_2
* cell instance $952 r0 *1 105.84,65.52
X$952 325 324 107 119 gf180mcu_fd_sc_mcu9t5v0__clkinv_2
* cell instance $954 m0 *1 116.48,75.6
X$954 325 107 128 118 108 324 gf180mcu_fd_sc_mcu9t5v0__addh_2
* cell instance $960 r0 *1 117.6,65.52
X$960 325 324 109 108 gf180mcu_fd_sc_mcu9t5v0__clkinv_2
* cell instance $962 r0 *1 140,95.76
X$962 325 199 324 109 208 235 gf180mcu_fd_sc_mcu9t5v0__aoi21_2
* cell instance $973 r0 *1 165.2,65.52
X$973 110 324 325 111 gf180mcu_fd_sc_mcu9t5v0__dlyb_2
* cell instance $975 r0 *1 154.56,75.6
X$975 325 145 152 111 144 166 130 114 324 gf180mcu_fd_sc_mcu9t5v0__mux4_2
* cell instance $978 m0 *1 154.56,85.68
X$978 325 169 152 112 168 166 170 133 324 gf180mcu_fd_sc_mcu9t5v0__mux4_2
* cell instance $983 m0 *1 165.2,75.6
X$983 134 324 325 114 gf180mcu_fd_sc_mcu9t5v0__dlyb_2
* cell instance $1010 m0 *1 29.12,85.68
X$1010 325 159 324 179 122 121 gf180mcu_fd_sc_mcu9t5v0__aoi21_2
* cell instance $1013 m0 *1 52.64,85.68
X$1013 325 125 324 161 135 122 gf180mcu_fd_sc_mcu9t5v0__aoi21_2
* cell instance $1015 m0 *1 46.48,75.6
X$1015 325 324 122 124 gf180mcu_fd_sc_mcu9t5v0__clkinv_2
* cell instance $1028 r0 *1 41.44,75.6
X$1028 324 124 123 325 138 gf180mcu_fd_sc_mcu9t5v0__xnor2_2
* cell instance $1033 r0 *1 52.64,75.6
X$1033 324 139 325 148 126 125 147 gf180mcu_fd_sc_mcu9t5v0__oai31_2
* cell instance $1050 m0 *1 148.4,75.6
X$1050 129 324 325 130 gf180mcu_fd_sc_mcu9t5v0__dlyb_2
* cell instance $1055 m0 *1 156.8,75.6
X$1055 131 324 325 133 gf180mcu_fd_sc_mcu9t5v0__dlyb_2
* cell instance $1074 m0 *1 2.24,85.68
X$1074 157 324 325 137 gf180mcu_fd_sc_mcu9t5v0__dlyb_2
* cell instance $1084 r0 *1 52.64,85.68
X$1084 139 325 161 324 181 gf180mcu_fd_sc_mcu9t5v0__xor2_2
* cell instance $1091 m0 *1 47.04,85.68
X$1091 325 324 155 160 139 gf180mcu_fd_sc_mcu9t5v0__nand2_2
* cell instance $1094 m0 *1 39.2,95.76
X$1094 325 189 139 183 197 324 gf180mcu_fd_sc_mcu9t5v0__addh_2
* cell instance $1096 r0 *1 73.36,75.6
X$1096 324 140 141 325 150 gf180mcu_fd_sc_mcu9t5v0__and2_2
* cell instance $1102 r0 *1 89.04,85.68
X$1102 325 324 140 163 141 gf180mcu_fd_sc_mcu9t5v0__nand2_2
* cell instance $1106 r0 *1 81.76,85.68
X$1106 325 324 141 162 174 gf180mcu_fd_sc_mcu9t5v0__nand2_2
* cell instance $1118 r0 *1 145.6,85.68
X$1118 325 324 143 175 gf180mcu_fd_sc_mcu9t5v0__clkinv_2
* cell instance $1122 r0 *1 149.52,85.68
X$1122 325 166 143 324 177 gf180mcu_fd_sc_mcu9t5v0__or2_2
* cell instance $1127 m0 *1 155.68,95.76
X$1127 146 324 325 144 gf180mcu_fd_sc_mcu9t5v0__dlyb_2
* cell instance $1130 r0 *1 157.92,105.84
X$1130 215 324 217 145 325 228 gf180mcu_fd_sc_mcu9t5v0__and3_2
* cell instance $1135 r0 *1 154.56,95.76
X$1135 325 324 200 145 187 169 gf180mcu_fd_sc_mcu9t5v0__mux2_2
* cell instance $1149 m0 *1 144.48,85.68
X$1149 325 149 154 324 165 gf180mcu_fd_sc_mcu9t5v0__or2_2
* cell instance $1159 r0 *1 133.28,85.68
X$1159 325 180 152 176 175 324 gf180mcu_fd_sc_mcu9t5v0__addh_2
* cell instance $1164 r0 *1 165.2,85.68
X$1164 153 324 325 168 gf180mcu_fd_sc_mcu9t5v0__dlyb_2
* cell instance $1172 m0 *1 89.04,105.84
X$1172 324 155 213 325 204 gf180mcu_fd_sc_mcu9t5v0__and2_2
* cell instance $1174 r0 *1 29.12,95.76
X$1174 325 195 324 173 155 196 gf180mcu_fd_sc_mcu9t5v0__aoi21_2
* cell instance $1180 m0 *1 26.32,105.84
X$1180 325 195 155 194 209 324 gf180mcu_fd_sc_mcu9t5v0__addh_2
* cell instance $1183 m0 *1 87.36,95.76
X$1183 325 155 198 324 192 gf180mcu_fd_sc_mcu9t5v0__or2_2
* cell instance $1193 r0 *1 2.24,85.68
X$1193 171 324 325 158 gf180mcu_fd_sc_mcu9t5v0__dlyb_2
* cell instance $1201 r0 *1 34.16,85.68
X$1201 324 173 325 179 174 160 gf180mcu_fd_sc_mcu9t5v0__oai21_2
* cell instance $1211 r0 *1 108.08,115.92
X$1211 325 324 164 231 gf180mcu_fd_sc_mcu9t5v0__clkbuf_4
* cell instance $1213 r0 *1 80.64,95.76
X$1213 325 324 201 164 gf180mcu_fd_sc_mcu9t5v0__clkbuf_4
* cell instance $1219 r0 *1 54.32,115.92
X$1219 325 324 164 240 gf180mcu_fd_sc_mcu9t5v0__clkbuf_4
* cell instance $1228 r0 *1 138.32,115.92
X$1228 325 226 324 212 241 165 252 gf180mcu_fd_sc_mcu9t5v0__aoi22_2
* cell instance $1230 r0 *1 155.12,136.08
X$1230 324 165 325 266 260 269 267 gf180mcu_fd_sc_mcu9t5v0__oai22_2
* cell instance $1232 r0 *1 129.36,85.68
X$1232 325 324 166 176 gf180mcu_fd_sc_mcu9t5v0__clkinv_2
* cell instance $1243 m0 *1 110.88,95.76
X$1243 325 324 190 185 166 186 gf180mcu_fd_sc_mcu9t5v0__mux2_2
* cell instance $1248 r0 *1 155.12,85.68
X$1248 167 324 325 170 gf180mcu_fd_sc_mcu9t5v0__dlyb_2
* cell instance $1254 m0 *1 146.16,105.84
X$1254 206 217 169 177 325 324 219 gf180mcu_fd_sc_mcu9t5v0__and4_2
* cell instance $1257 m0 *1 156.8,105.84
X$1257 215 324 187 169 325 218 gf180mcu_fd_sc_mcu9t5v0__and3_2
* cell instance $1269 m0 *1 35.84,95.76
X$1269 325 324 172 183 gf180mcu_fd_sc_mcu9t5v0__clkinv_2
* cell instance $1272 r0 *1 36.96,95.76
X$1272 196 325 324 172 203 gf180mcu_fd_sc_mcu9t5v0__addh_1
* cell instance $1286 m0 *1 143.36,95.76
X$1286 324 176 175 325 188 gf180mcu_fd_sc_mcu9t5v0__and2_2
* cell instance $1294 m0 *1 131.6,95.76
X$1294 325 187 327 176 175 324 gf180mcu_fd_sc_mcu9t5v0__addh_2
* cell instance $1306 r0 *1 137.2,105.84
X$1306 325 215 324 227 177 216 gf180mcu_fd_sc_mcu9t5v0__aoi21_2
* cell instance $1320 m0 *1 135.52,105.84
X$1320 325 324 180 216 gf180mcu_fd_sc_mcu9t5v0__clkinv_2
* cell instance $1333 m0 *1 2.24,105.84
X$1333 202 324 325 182 gf180mcu_fd_sc_mcu9t5v0__dlyb_2
* cell instance $1340 m0 *1 78.96,105.84
X$1340 184 325 210 211 324 232 gf180mcu_fd_sc_mcu9t5v0__or3_2
* cell instance $1343 m0 *1 34.72,136.08
X$1343 325 256 324 185 268 186 273 gf180mcu_fd_sc_mcu9t5v0__aoi22_2
* cell instance $1345 m0 *1 37.52,146.16
X$1345 325 273 324 185 282 186 283 gf180mcu_fd_sc_mcu9t5v0__aoi22_2
* cell instance $1348 r0 *1 66.08,136.08
X$1348 325 284 324 185 270 186 263 gf180mcu_fd_sc_mcu9t5v0__aoi22_2
* cell instance $1350 m0 *1 109.2,126
X$1350 325 324 241 185 gf180mcu_fd_sc_mcu9t5v0__buf_4
* cell instance $1352 r0 *1 59.36,146.16
X$1352 325 283 324 185 289 186 290 gf180mcu_fd_sc_mcu9t5v0__aoi22_2
* cell instance $1354 m0 *1 85.68,146.16
X$1354 325 277 324 185 281 186 284 gf180mcu_fd_sc_mcu9t5v0__aoi22_2
* cell instance $1357 m0 *1 106.4,156.24
X$1357 325 291 324 185 295 186 277 gf180mcu_fd_sc_mcu9t5v0__aoi22_2
* cell instance $1359 m0 *1 91.84,156.24
X$1359 325 290 324 185 308 186 291 gf180mcu_fd_sc_mcu9t5v0__aoi22_2
* cell instance $1361 m0 *1 72.8,115.92
X$1361 325 324 233 225 185 gf180mcu_fd_sc_mcu9t5v0__nand2_2
* cell instance $1375 r0 *1 58.24,126
X$1375 325 324 263 254 185 gf180mcu_fd_sc_mcu9t5v0__nand2_2
* cell instance $1379 m0 *1 105.84,105.84
X$1379 325 324 213 186 gf180mcu_fd_sc_mcu9t5v0__buf_4
* cell instance $1382 r0 *1 114.8,95.76
X$1382 324 187 186 325 205 gf180mcu_fd_sc_mcu9t5v0__and2_2
* cell instance $1407 r0 *1 162.96,95.76
X$1407 325 324 187 217 gf180mcu_fd_sc_mcu9t5v0__clkinv_2
* cell instance $1418 r0 *1 147.28,95.76
X$1418 206 207 188 200 325 324 199 gf180mcu_fd_sc_mcu9t5v0__and4_2
* cell instance $1421 r0 *1 144.48,105.84
X$1421 206 207 188 212 325 324 236 gf180mcu_fd_sc_mcu9t5v0__and4_2
* cell instance $1425 r0 *1 67.2,95.76
X$1425 325 324 189 191 gf180mcu_fd_sc_mcu9t5v0__clkinv_2
* cell instance $1457 r0 *1 34.72,105.84
X$1457 325 324 197 203 gf180mcu_fd_sc_mcu9t5v0__clkinv_2
* cell instance $1469 m0 *1 100.8,105.84
X$1469 325 324 212 198 226 gf180mcu_fd_sc_mcu9t5v0__nand2_2
* cell instance $1503 m0 *1 114.8,105.84
X$1503 325 324 214 205 206 234 gf180mcu_fd_sc_mcu9t5v0__mux2_2
* cell instance $1516 m0 *1 132.16,105.84
X$1516 325 324 215 206 gf180mcu_fd_sc_mcu9t5v0__inv_2
* cell instance $1520 r0 *1 154.56,105.84
X$1520 325 324 207 235 gf180mcu_fd_sc_mcu9t5v0__inv_2
* cell instance $1523 m0 *1 138.88,105.84
X$1523 215 325 207 216 324 226 gf180mcu_fd_sc_mcu9t5v0__or3_2
* cell instance $1535 m0 *1 162.96,105.84
X$1535 219 325 218 228 324 208 gf180mcu_fd_sc_mcu9t5v0__or3_2
* cell instance $1537 m0 *1 68.88,105.84
X$1537 325 324 230 209 gf180mcu_fd_sc_mcu9t5v0__clkinv_2
* cell instance $1552 r0 *1 103.04,105.84
X$1552 324 212 226 325 213 gf180mcu_fd_sc_mcu9t5v0__and2_2
* cell instance $1560 r0 *1 140.56,126
X$1560 324 258 257 325 212 gf180mcu_fd_sc_mcu9t5v0__and2_2
* cell instance $1600 r0 *1 53.2,126
X$1600 325 324 221 262 254 gf180mcu_fd_sc_mcu9t5v0__nand2_2
* cell instance $1609 r0 *1 11.76,105.84
X$1609 229 324 325 222 gf180mcu_fd_sc_mcu9t5v0__dlyb_2
* cell instance $1678 m0 *1 147.84,115.92
X$1678 325 236 324 243 239 235 gf180mcu_fd_sc_mcu9t5v0__aoi21_2
* cell instance $1729 r0 *1 104.72,115.92
X$1729 325 324 241 242 gf180mcu_fd_sc_mcu9t5v0__clkinv_2
* cell instance $1744 m0 *1 2.24,126
X$1744 245 324 325 244 gf180mcu_fd_sc_mcu9t5v0__dlyb_2
* cell instance $1754 r0 *1 64.4,166.32
X$1754 246 324 325 315 gf180mcu_fd_sc_mcu9t5v0__dlyb_2
* cell instance $1759 r0 *1 125.44,136.08
X$1759 324 257 271 247 286 276 325 gf180mcu_fd_sc_mcu9t5v0__oai211_2
* cell instance $1761 m0 *1 136.08,136.08
X$1761 325 324 247 258 gf180mcu_fd_sc_mcu9t5v0__clkinv_2
* cell instance $1768 r0 *1 148.4,136.08
X$1768 325 324 260 247 257 gf180mcu_fd_sc_mcu9t5v0__nor2_2
* cell instance $1775 m0 *1 28,136.08
X$1775 325 324 268 249 gf180mcu_fd_sc_mcu9t5v0__clkinv_2
* cell instance $1779 r0 *1 101.92,166.32
X$1779 250 324 325 319 gf180mcu_fd_sc_mcu9t5v0__dlyb_2
* cell instance $1785 r0 *1 137.2,126
X$1785 325 324 257 251 gf180mcu_fd_sc_mcu9t5v0__clkinv_2
* cell instance $1787 m0 *1 139.44,136.08
X$1787 324 251 325 258 287 259 gf180mcu_fd_sc_mcu9t5v0__oai21_2
* cell instance $1793 m0 *1 147.28,136.08
X$1793 324 259 260 325 252 gf180mcu_fd_sc_mcu9t5v0__and2_2
* cell instance $1816 r0 *1 136.08,136.08
X$1816 324 276 325 265 258 259 257 gf180mcu_fd_sc_mcu9t5v0__oai31_2
* cell instance $1834 m0 *1 156.8,136.08
X$1834 325 324 259 266 260 gf180mcu_fd_sc_mcu9t5v0__nand2_2
* cell instance $1843 m0 *1 164.64,136.08
X$1843 261 324 325 259 gf180mcu_fd_sc_mcu9t5v0__clkbuf_2
* cell instance $1861 r0 *1 57.12,156.24
X$1861 325 324 305 306 276 263 gf180mcu_fd_sc_mcu9t5v0__mux2_2
* cell instance $1869 m0 *1 76.16,136.08
X$1869 325 324 270 264 gf180mcu_fd_sc_mcu9t5v0__clkinv_2
* cell instance $1879 r0 *1 167.44,136.08
X$1879 325 324 288 267 gf180mcu_fd_sc_mcu9t5v0__clkinv_2
* cell instance $1899 r0 *1 3.36,136.08
X$1899 325 279 272 324 gf180mcu_fd_sc_mcu9t5v0__dlyc_2
* cell instance $1901 r0 *1 30.8,156.24
X$1901 325 324 299 297 276 273 gf180mcu_fd_sc_mcu9t5v0__mux2_2
* cell instance $1910 r0 *1 52.08,146.16
X$1910 325 324 289 274 gf180mcu_fd_sc_mcu9t5v0__clkinv_2
* cell instance $1913 r0 *1 94.08,136.08
X$1913 325 324 281 275 gf180mcu_fd_sc_mcu9t5v0__clkinv_2
* cell instance $1916 r0 *1 140,156.24
X$1916 325 324 276 298 300 gf180mcu_fd_sc_mcu9t5v0__nand2_2
* cell instance $1918 r0 *1 103.6,156.24
X$1918 325 324 311 302 276 277 gf180mcu_fd_sc_mcu9t5v0__mux2_2
* cell instance $1929 r0 *1 39.2,156.24
X$1929 325 324 301 304 276 283 gf180mcu_fd_sc_mcu9t5v0__mux2_2
* cell instance $1932 r0 *1 132.16,166.32
X$1932 325 324 309 310 276 291 gf180mcu_fd_sc_mcu9t5v0__mux2_2
* cell instance $1934 r0 *1 73.36,166.32
X$1934 325 324 307 312 276 290 gf180mcu_fd_sc_mcu9t5v0__mux2_2
* cell instance $1936 m0 *1 74.48,146.16
X$1936 325 324 296 285 276 284 gf180mcu_fd_sc_mcu9t5v0__mux2_2
* cell instance $1950 r0 *1 165.2,146.16
X$1950 288 324 325 278 gf180mcu_fd_sc_mcu9t5v0__dlyb_2
* cell instance $1964 r0 *1 40.32,146.16
X$1964 325 324 282 294 gf180mcu_fd_sc_mcu9t5v0__clkinv_2
* cell instance $1985 r0 *1 90.16,166.32
X$1985 285 324 325 318 gf180mcu_fd_sc_mcu9t5v0__dlyb_2
* cell instance $1992 r0 *1 121.52,166.32
X$1992 286 324 325 321 gf180mcu_fd_sc_mcu9t5v0__dlyb_2