* CDL Netlist generated by OpenROAD

*.BUSDELIMITER [

.SUBCKT floating_point_adder a[0] a[10] a[11] a[12] a[13]
+ a[14] a[15] a[16] a[17] a[18] a[19] a[1] a[20] a[21] a[22]
+ a[23] a[24] a[25] a[26] a[27] a[28] a[29] a[2] a[30] a[31]
+ a[3] a[4] a[5] a[6] a[7] a[8] a[9] b[0] b[10] b[11] b[12]
+ b[13] b[14] b[15] b[16] b[17] b[18] b[19] b[1] b[20] b[21]
+ b[22] b[23] b[24] b[25] b[26] b[27] b[28] b[29] b[2] b[30]
+ b[31] b[3] b[4] b[5] b[6] b[7] b[8] b[9] clk inexact invalid_op
+ overflow result[0] result[10] result[11] result[12] result[13]
+ result[14] result[15] result[16] result[17] result[18] result[19]
+ result[1] result[20] result[21] result[22] result[23] result[24]
+ result[25] result[26] result[27] result[28] result[29] result[2]
+ result[30] result[31] result[3] result[4] result[5] result[6]
+ result[7] result[8] result[9] rst_n underflow valid_in valid_out
X_1920_ _1267_ _1268_ _1354_ _1355_ VSS VSS VDD VDD _1356_
+ sky130_fd_sc_hd__o22ai_2
X_1921_ _1571_ _1269_ VSS VSS VDD VDD _1357_ sky130_fd_sc_hd__nor2b_1
X_1922_ _1269_ _1571_ VSS VSS VDD VDD _1358_ sky130_fd_sc_hd__nor2b_1
X_1923_ _1233_ VSS VSS VDD VDD _1359_ sky130_fd_sc_hd__clkbuf_4
X_1924_ _1248_ VSS VSS VDD VDD _1360_ sky130_fd_sc_hd__clkbuf_4
X_1925_ _1357_ _1358_ _1359_ _1360_ VSS VSS VDD VDD _1361_
+ sky130_fd_sc_hd__o211ai_2
X_1926_ _1356_ _1361_ VSS VSS VDD VDD _1362_ sky130_fd_sc_hd__and2_0
X_1927_ _1362_ VSS VSS VDD VDD _1363_ sky130_fd_sc_hd__clkbuf_4
X_1928_ _1299_ VSS VSS VDD VDD _1364_ sky130_fd_sc_hd__buf_4
X_1929_ _1331_ _1335_ _1347_ _1353_ _1363_ _1364_ VSS VSS
+ VDD VDD _1365_ sky130_fd_sc_hd__mux4_1
X_1930_ _1274_ _1365_ VSS VSS VDD VDD _1366_ sky130_fd_sc_hd__and2_0
X_1931_ _1269_ _1571_ VSS VSS VDD VDD _1367_ sky130_fd_sc_hd__nand2_1
X_1932_ _1269_ _1571_ VSS VSS VDD VDD _1368_ sky130_fd_sc_hd__or2_0
X_1933_ _1299_ _1572_ _1367_ _1368_ VSS VSS VDD VDD _1369_
+ sky130_fd_sc_hd__a22o_1
X_1934_ _1234_ _1235_ VSS VSS VDD VDD _1370_ sky130_fd_sc_hd__nand2_2
X_1935_ _1263_ _1370_ VSS VSS VDD VDD _1371_ sky130_fd_sc_hd__xnor2_1
X_1936_ _1310_ _1601_ VSS VSS VDD VDD _1372_ sky130_fd_sc_hd__nor2_1
X_1937_ _1271_ _1369_ _1371_ _1372_ _1238_ VSS VSS VDD VDD
+ _1373_ sky130_fd_sc_hd__a311o_1
X_1938_ _1204_ _1370_ _1607_ VSS VSS VDD VDD _1374_ sky130_fd_sc_hd__a21oi_1
X_1939_ _1271_ _1369_ _1371_ VSS VSS VDD VDD _1375_ sky130_fd_sc_hd__nand3b_1
X_1940_ _1239_ _1374_ _1375_ _1238_ VSS VSS VDD VDD _1376_
+ sky130_fd_sc_hd__o211ai_1
X_1941_ _1374_ _1372_ VSS VSS VDD VDD _1377_ sky130_fd_sc_hd__and2_0
X_1942_ _1310_ _1601_ _1373_ _1376_ _1377_ VSS VSS VDD VDD
+ _1378_ sky130_fd_sc_hd__a221o_2
X_1943_ _1359_ _1360_ _1328_ VSS VSS VDD VDD _1379_ sky130_fd_sc_hd__nand3_4
X_1944_ _1378_ _1341_ _1379_ VSS VSS VDD VDD _1380_ sky130_fd_sc_hd__nor3_4
X_1945_ _1370_ _1296_ _1249_ VSS VSS VDD VDD _1381_ sky130_fd_sc_hd__mux2i_4
X_1946_ _1204_ _1381_ VSS VSS VDD VDD _1382_ sky130_fd_sc_hd__xnor2_4
X_1947_ _1330_ _1293_ VSS VSS VDD VDD _1383_ sky130_fd_sc_hd__nor2_4
X_1948_ _1367_ _1368_ _1318_ _1267_ _1268_ VSS VSS VDD VDD
+ _1384_ sky130_fd_sc_hd__a2111oi_1
X_1949_ _1359_ _1360_ _1300_ _1301_ _1344_ VSS VSS VDD VDD
+ _1385_ sky130_fd_sc_hd__a221oi_1
X_1950_ _1384_ _1385_ VSS VSS VDD VDD _1386_ sky130_fd_sc_hd__nor2_2
X_1951_ net16 _1180_ _1299_ VSS VSS VDD VDD _1387_ sky130_fd_sc_hd__mux2_1
X_1952_ net48 _1298_ VSS VSS VDD VDD _1388_ sky130_fd_sc_hd__nand2_1
X_1953_ _1298_ _1192_ _1388_ VSS VSS VDD VDD _1389_ sky130_fd_sc_hd__o21ai_1
X_1954_ _1233_ _1248_ _1341_ _1292_ _1342_ VSS VSS VDD VDD
+ _1390_ sky130_fd_sc_hd__a2111o_1
X_1955_ _1390_ VSS VSS VDD VDD _1391_ sky130_fd_sc_hd__buf_6
X_1956_ _1387_ _1389_ _1391_ VSS VSS VDD VDD _1392_ sky130_fd_sc_hd__mux2i_4
X_1957_ _1383_ _1386_ _1392_ VSS VSS VDD VDD _1393_ sky130_fd_sc_hd__nor3_4
X_1958_ _1308_ _1273_ VSS VSS VDD VDD _1394_ sky130_fd_sc_hd__xnor2_2
X_1959_ _1393_ _1394_ VSS VSS VDD VDD _1395_ sky130_fd_sc_hd__nand2b_1
X_1960_ _1380_ _1382_ _1395_ VSS VSS VDD VDD _1396_ sky130_fd_sc_hd__nand3_1
X_1961_ _1263_ _1381_ VSS VSS VDD VDD _1397_ sky130_fd_sc_hd__xnor2_4
X_1962_ _1380_ _1397_ VSS VSS VDD VDD _1398_ sky130_fd_sc_hd__nand2_2
X_1963_ _1394_ VSS VSS VDD VDD _1399_ sky130_fd_sc_hd__buf_4
X_1964_ _1364_ VSS VSS VDD VDD _1400_ sky130_fd_sc_hd__buf_4
X_1965_ _1363_ VSS VSS VDD VDD _1401_ sky130_fd_sc_hd__buf_4
X_1966_ _1401_ VSS VSS VDD VDD _1402_ sky130_fd_sc_hd__clkbuf_4
X_1967_ _1341_ _1342_ VSS VSS VDD VDD _1403_ sky130_fd_sc_hd__nor2_2
X_1968_ _1293_ _1403_ VSS VSS VDD VDD _1404_ sky130_fd_sc_hd__nand2_4
X_1969_ _1344_ VSS VSS VDD VDD _1405_ sky130_fd_sc_hd__clkbuf_4
X_1970_ net12 net15 _1405_ VSS VSS VDD VDD _1406_ sky130_fd_sc_hd__mux2i_2
X_1971_ _1318_ VSS VSS VDD VDD _1407_ sky130_fd_sc_hd__clkbuf_4
X_1972_ net44 net47 _1407_ VSS VSS VDD VDD _1408_ sky130_fd_sc_hd__mux2i_2
X_1973_ net44 net47 _1344_ VSS VSS VDD VDD _1409_ sky130_fd_sc_hd__mux2i_1
X_1974_ a_exp_larger _1292_ _1343_ _1409_ VSS VSS VDD VDD
+ _1410_ sky130_fd_sc_hd__or4_1
X_1975_ _1404_ _1406_ _1408_ _1379_ _1410_ VSS VSS VDD VDD
+ _1411_ sky130_fd_sc_hd__o221ai_4
X_1976_ _1293_ VSS VSS VDD VDD _1412_ sky130_fd_sc_hd__buf_4
X_1977_ _1294_ VSS VSS VDD VDD _1413_ sky130_fd_sc_hd__buf_4
X_1978_ net8 net10 _1413_ VSS VSS VDD VDD _1414_ sky130_fd_sc_hd__mux2i_1
X_1979_ _1295_ _1315_ _1414_ VSS VSS VDD VDD _1415_ sky130_fd_sc_hd__nand3_1
X_1980_ net42 _1413_ VSS VSS VDD VDD _1416_ sky130_fd_sc_hd__nand2_1
X_1981_ _1643_ _1413_ _1341_ _1342_ _1416_ VSS VSS VDD VDD
+ _1417_ sky130_fd_sc_hd__o221ai_4
X_1982_ net42 _1319_ VSS VSS VDD VDD _1418_ sky130_fd_sc_hd__nand2_1
X_1983_ _1643_ _1407_ _1418_ VSS VSS VDD VDD _1419_ sky130_fd_sc_hd__o21ai_1
X_1984_ _1412_ _1415_ _1417_ _1419_ _1330_ VSS VSS VDD VDD
+ _1420_ sky130_fd_sc_hd__a32oi_4
X_1985_ _1363_ _1420_ VSS VSS VDD VDD _1421_ sky130_fd_sc_hd__nand2_1
X_1986_ _1402_ _1411_ _1421_ VSS VSS VDD VDD _1422_ sky130_fd_sc_hd__o21a_1
X_1987_ _1319_ _1359_ _1360_ _1328_ VSS VSS VDD VDD _1423_
+ sky130_fd_sc_hd__nand4_1
X_1988_ _1294_ VSS VSS VDD VDD _1424_ sky130_fd_sc_hd__inv_1
X_1989_ _1359_ _1360_ _1292_ _1424_ VSS VSS VDD VDD _1425_
+ sky130_fd_sc_hd__a211o_1
X_1990_ net14 VSS VSS VDD VDD _1426_ sky130_fd_sc_hd__inv_1
X_1991_ _1423_ _1425_ _1426_ VSS VSS VDD VDD _1427_ sky130_fd_sc_hd__a21oi_1
X_1992_ _1318_ VSS VSS VDD VDD _1428_ sky130_fd_sc_hd__inv_1
X_1993_ _1428_ _1359_ _1360_ _1328_ VSS VSS VDD VDD _1429_
+ sky130_fd_sc_hd__nand4_2
X_1994_ _1359_ _1360_ _1292_ _1344_ VSS VSS VDD VDD _1430_
+ sky130_fd_sc_hd__a211o_1
X_1995_ net11 VSS VSS VDD VDD _1431_ sky130_fd_sc_hd__inv_1
X_1996_ _1429_ _1430_ _1431_ VSS VSS VDD VDD _1432_ sky130_fd_sc_hd__a21oi_1
X_1997_ _1427_ _1432_ _1337_ VSS VSS VDD VDD _1433_ sky130_fd_sc_hd__o21ai_2
X_1998_ _1429_ _1430_ _1670_ VSS VSS VDD VDD _1434_ sky130_fd_sc_hd__a21oi_1
X_1999_ _1423_ _1425_ _1685_ VSS VSS VDD VDD _1435_ sky130_fd_sc_hd__a21oi_1
X_2000_ _1434_ _1435_ _1404_ VSS VSS VDD VDD _1436_ sky130_fd_sc_hd__o21ai_2
X_2001_ _1356_ _1361_ VSS VSS VDD VDD _1437_ sky130_fd_sc_hd__nand2_4
X_2002_ _1437_ VSS VSS VDD VDD _1438_ sky130_fd_sc_hd__clkbuf_4
X_2003_ net41 _1413_ VSS VSS VDD VDD _1439_ sky130_fd_sc_hd__nand2_1
X_2004_ _1646_ _1413_ _1336_ _1316_ _1439_ VSS VSS VDD VDD
+ _1440_ sky130_fd_sc_hd__o221ai_4
X_2005_ net7 net9 _1413_ VSS VSS VDD VDD _1441_ sky130_fd_sc_hd__mux2i_1
X_2006_ _1293_ _1403_ _1441_ VSS VSS VDD VDD _1442_ sky130_fd_sc_hd__nand3_1
X_2007_ net39 net41 _1319_ VSS VSS VDD VDD _1443_ sky130_fd_sc_hd__mux2i_1
X_2008_ _1379_ _1443_ VSS VSS VDD VDD _1444_ sky130_fd_sc_hd__nor2_1
X_2009_ _1412_ _1440_ _1442_ _1444_ _1437_ VSS VSS VDD VDD
+ _1445_ sky130_fd_sc_hd__a311oi_2
X_2010_ _1433_ _1436_ _1438_ _1445_ _1400_ VSS VSS VDD VDD
+ _1446_ sky130_fd_sc_hd__a311oi_2
X_2011_ _1400_ _1422_ _1446_ VSS VSS VDD VDD _1447_ sky130_fd_sc_hd__a21oi_4
X_2012_ _1391_ VSS VSS VDD VDD _1448_ sky130_fd_sc_hd__buf_4
X_2013_ net60 _1448_ VSS VSS VDD VDD _1449_ sky130_fd_sc_hd__nand2_1
X_2014_ _1343_ VSS VSS VDD VDD _1450_ sky130_fd_sc_hd__buf_4
X_2015_ net28 _1450_ VSS VSS VDD VDD _1451_ sky130_fd_sc_hd__nand2_1
X_2016_ _1318_ _1359_ _1360_ VSS VSS VDD VDD _1452_ sky130_fd_sc_hd__nand3_2
X_2017_ _1267_ _1268_ _1344_ VSS VSS VDD VDD _1453_ sky130_fd_sc_hd__o21ai_2
X_2018_ _1452_ _1453_ VSS VSS VDD VDD _1454_ sky130_fd_sc_hd__and2_0
X_2019_ _1454_ VSS VSS VDD VDD _1455_ sky130_fd_sc_hd__buf_2
X_2020_ _1449_ _1451_ _1455_ VSS VSS VDD VDD _1456_ sky130_fd_sc_hd__a21oi_1
X_2021_ net56 _1448_ VSS VSS VDD VDD _1457_ sky130_fd_sc_hd__nand2_1
X_2022_ net24 _1450_ VSS VSS VDD VDD _1458_ sky130_fd_sc_hd__nand2_1
X_2023_ _1452_ _1453_ VSS VSS VDD VDD _1459_ sky130_fd_sc_hd__nand2_8
X_2024_ _1457_ _1458_ _1459_ VSS VSS VDD VDD _1460_ sky130_fd_sc_hd__a21oi_1
X_2025_ _1456_ _1460_ VSS VSS VDD VDD _1461_ sky130_fd_sc_hd__nor2_1
X_2026_ _1429_ _1430_ VSS VSS VDD VDD _1462_ sky130_fd_sc_hd__nand2_4
X_2027_ net27 net59 _1391_ VSS VSS VDD VDD _1463_ sky130_fd_sc_hd__mux2_1
X_2028_ net29 net61 _1391_ VSS VSS VDD VDD _1464_ sky130_fd_sc_hd__mux2_1
X_2029_ _1423_ _1425_ VSS VSS VDD VDD _1465_ sky130_fd_sc_hd__nand2_2
X_2030_ _1462_ _1463_ _1464_ _1465_ VSS VSS VDD VDD _1466_
+ sky130_fd_sc_hd__a22oi_2
X_2031_ _1298_ _1363_ VSS VSS VDD VDD _1467_ sky130_fd_sc_hd__nor2_1
X_2032_ _1466_ _1467_ VSS VSS VDD VDD _1468_ sky130_fd_sc_hd__nand2b_1
X_2033_ _1400_ _1383_ _1402_ _1461_ _1468_ VSS VSS VDD VDD
+ _1469_ sky130_fd_sc_hd__o41ai_1
X_2034_ _1274_ VSS VSS VDD VDD _1470_ sky130_fd_sc_hd__clkbuf_4
X_2035_ net13 net2 net45 net34 _1298_ _1404_ VSS VSS VDD VDD
+ _1471_ sky130_fd_sc_hd__mux4_1
X_2036_ _1465_ _1402_ _1471_ VSS VSS VDD VDD _1472_ sky130_fd_sc_hd__nand3_1
X_2037_ _1470_ _1472_ VSS VSS VDD VDD _1473_ sky130_fd_sc_hd__nand2_1
X_2038_ _1399_ _1447_ _1469_ _1473_ VSS VSS VDD VDD _1474_
+ sky130_fd_sc_hd__o2bb2ai_1
X_2039_ _1366_ _1396_ _1398_ _1474_ VSS VSS VDD VDD _0051_
+ sky130_fd_sc_hd__o22ai_1
X_2040_ _1379_ _1336_ VSS VSS VDD VDD _1475_ sky130_fd_sc_hd__nand2_4
X_2041_ net41 _1424_ VSS VSS VDD VDD _1476_ sky130_fd_sc_hd__nand2_1
X_2042_ net43 _1294_ VSS VSS VDD VDD _1477_ sky130_fd_sc_hd__nand2_1
X_2043_ _1359_ _1360_ _1476_ _1477_ VSS VSS VDD VDD _1478_
+ sky130_fd_sc_hd__a22oi_1
X_2044_ _1676_ _1318_ _1267_ _1268_ VSS VSS VDD VDD _1479_
+ sky130_fd_sc_hd__nor4_1
X_2045_ net43 _1318_ a_exp_larger _1478_ _1479_ VSS VSS VDD
+ VDD _1480_ sky130_fd_sc_hd__a311o_1
X_2046_ net9 _1424_ VSS VSS VDD VDD _1481_ sky130_fd_sc_hd__nand2_1
X_2047_ net11 _1344_ VSS VSS VDD VDD _1482_ sky130_fd_sc_hd__nand2_1
X_2048_ _1359_ _1360_ _1481_ _1482_ VSS VSS VDD VDD _1483_
+ sky130_fd_sc_hd__a22oi_1
X_2049_ net9 _1428_ VSS VSS VDD VDD _1484_ sky130_fd_sc_hd__nand2_1
X_2050_ net11 _1318_ VSS VSS VDD VDD _1485_ sky130_fd_sc_hd__nand2_1
X_2051_ _1484_ _1485_ _1267_ _1268_ VSS VSS VDD VDD _1486_
+ sky130_fd_sc_hd__a211oi_1
X_2052_ _1483_ _1486_ _1450_ VSS VSS VDD VDD _1487_ sky130_fd_sc_hd__o21a_1
X_2053_ _1475_ _1391_ _1480_ _1487_ VSS VSS VDD VDD _1488_
+ sky130_fd_sc_hd__a31oi_4
X_2054_ _1298_ VSS VSS VDD VDD _1489_ sky130_fd_sc_hd__clkbuf_4
X_2055_ _1489_ _1437_ VSS VSS VDD VDD _1490_ sky130_fd_sc_hd__nor2_1
X_2056_ _1298_ _1437_ VSS VSS VDD VDD _1491_ sky130_fd_sc_hd__nand2_1
X_2057_ _1491_ _1411_ _1421_ _1364_ VSS VSS VDD VDD _1492_
+ sky130_fd_sc_hd__o22ai_2
X_2058_ net14 net16 _1459_ VSS VSS VDD VDD _1493_ sky130_fd_sc_hd__mux2i_1
X_2059_ net46 net48 _1459_ VSS VSS VDD VDD _1494_ sky130_fd_sc_hd__mux2i_1
X_2060_ _1475_ _1448_ VSS VSS VDD VDD _1495_ sky130_fd_sc_hd__nand2_1
X_2061_ _1448_ _1493_ _1494_ _1495_ _1467_ VSS VSS VDD VDD
+ _1496_ sky130_fd_sc_hd__o221a_1
X_2062_ _1488_ _1490_ _1492_ _1496_ VSS VSS VDD VDD _1497_
+ sky130_fd_sc_hd__a211oi_4
X_2063_ net28 net30 _1405_ VSS VSS VDD VDD _1498_ sky130_fd_sc_hd__mux2i_1
X_2064_ _1412_ _1403_ _1498_ VSS VSS VDD VDD _1499_ sky130_fd_sc_hd__nand3_1
X_2065_ net62 _1405_ VSS VSS VDD VDD _1500_ sky130_fd_sc_hd__nand2_1
X_2066_ _1640_ _1405_ _1336_ _1316_ _1500_ VSS VSS VDD VDD
+ _1501_ sky130_fd_sc_hd__o221ai_1
X_2067_ net60 net62 _1407_ VSS VSS VDD VDD _1502_ sky130_fd_sc_hd__mux2i_1
X_2068_ _1379_ _1502_ VSS VSS VDD VDD _1503_ sky130_fd_sc_hd__nor2_1
X_2069_ _1412_ _1499_ _1501_ _1503_ VSS VSS VDD VDD _1504_
+ sky130_fd_sc_hd__a31oi_2
X_2070_ _1466_ _1504_ _1364_ VSS VSS VDD VDD _1505_ sky130_fd_sc_hd__mux2_1
X_2071_ net13 net24 net45 net56 _1364_ _1404_ VSS VSS VDD
+ VDD _1506_ sky130_fd_sc_hd__mux4_1
X_2072_ _1475_ _1506_ VSS VSS VDD VDD _1507_ sky130_fd_sc_hd__nand2_1
X_2073_ _1455_ _1437_ VSS VSS VDD VDD _1508_ sky130_fd_sc_hd__nor2_1
X_2074_ net2 net34 _1448_ VSS VSS VDD VDD _1509_ sky130_fd_sc_hd__mux2i_1
X_2075_ _1489_ _1383_ _1509_ VSS VSS VDD VDD _1510_ sky130_fd_sc_hd__nor3_1
X_2076_ _1386_ _1510_ _1274_ _1397_ VSS VSS VDD VDD _1511_
+ sky130_fd_sc_hd__o211ai_1
X_2077_ _1438_ _1505_ _1507_ _1508_ _1511_ VSS VSS VDD VDD
+ _1512_ sky130_fd_sc_hd__a221oi_1
X_2078_ _1489_ _1363_ VSS VSS VDD VDD _1513_ sky130_fd_sc_hd__nand2_1
X_2079_ _1491_ _1347_ _1353_ _1513_ VSS VSS VDD VDD _1514_
+ sky130_fd_sc_hd__o22ai_1
X_2080_ net35 _1405_ VSS VSS VDD VDD _1515_ sky130_fd_sc_hd__nand2_1
X_2081_ _1664_ _1405_ _1336_ _1316_ _1515_ VSS VSS VDD VDD
+ _1516_ sky130_fd_sc_hd__o221ai_2
X_2082_ net32 VSS VSS VDD VDD _1517_ sky130_fd_sc_hd__inv_1
X_2083_ net3 _1405_ VSS VSS VDD VDD _1518_ sky130_fd_sc_hd__nand2_1
X_2084_ _1517_ _1405_ _1412_ _1403_ _1518_ VSS VSS VDD VDD
+ _1519_ sky130_fd_sc_hd__o2111ai_2
X_2085_ net64 net35 _1407_ VSS VSS VDD VDD _1520_ sky130_fd_sc_hd__mux2i_1
X_2086_ _1379_ _1520_ VSS VSS VDD VDD _1521_ sky130_fd_sc_hd__nor2_1
X_2087_ _1412_ _1516_ _1519_ _1521_ VSS VSS VDD VDD _1522_
+ sky130_fd_sc_hd__a31oi_4
X_2088_ net5 net7 _1344_ VSS VSS VDD VDD _1523_ sky130_fd_sc_hd__mux2i_1
X_2089_ _1295_ _1315_ _1523_ VSS VSS VDD VDD _1524_ sky130_fd_sc_hd__nand3_1
X_2090_ net39 _1413_ VSS VSS VDD VDD _1525_ sky130_fd_sc_hd__nand2_1
X_2091_ _1652_ _1413_ _1341_ _1342_ _1525_ VSS VSS VDD VDD
+ _1526_ sky130_fd_sc_hd__o221ai_4
X_2092_ net39 _1319_ VSS VSS VDD VDD _1527_ sky130_fd_sc_hd__nand2_1
X_2093_ _1652_ _1407_ _1527_ VSS VSS VDD VDD _1528_ sky130_fd_sc_hd__o21ai_1
X_2094_ _1293_ _1524_ _1526_ _1528_ _1330_ VSS VSS VDD VDD
+ _1529_ sky130_fd_sc_hd__a32oi_4
X_2095_ _1437_ _1529_ VSS VSS VDD VDD _1530_ sky130_fd_sc_hd__and2_0
X_2096_ _1363_ _1522_ _1530_ _1489_ VSS VSS VDD VDD _1531_
+ sky130_fd_sc_hd__a211oi_1
X_2097_ _1178_ _1179_ VSS VSS VDD VDD _1532_ sky130_fd_sc_hd__and2_0
X_2098_ _1532_ _1192_ _1391_ VSS VSS VDD VDD _1533_ sky130_fd_sc_hd__mux2i_2
X_2099_ _1299_ _1383_ _1386_ _1533_ VSS VSS VDD VDD _1534_
+ sky130_fd_sc_hd__or4b_1
X_2100_ _1534_ VSS VSS VDD VDD _1535_ sky130_fd_sc_hd__buf_2
X_2101_ _1399_ _1535_ VSS VSS VDD VDD _1536_ sky130_fd_sc_hd__nand2_1
X_2102_ _1399_ _1514_ _1531_ _1536_ _1382_ VSS VSS VDD VDD
+ _1537_ sky130_fd_sc_hd__o311a_1
X_2103_ _1399_ _1397_ _1497_ _1512_ _1537_ VSS VSS VDD VDD
+ _1538_ sky130_fd_sc_hd__a311o_1
X_2104_ _1380_ _1538_ VSS VSS VDD VDD _0062_ sky130_fd_sc_hd__and2_0
X_2105_ net33 net4 _1405_ VSS VSS VDD VDD _1539_ sky130_fd_sc_hd__mux2_1
X_2106_ net36 _1407_ VSS VSS VDD VDD _1540_ sky130_fd_sc_hd__nand2_1
X_2107_ _1661_ _1407_ _1540_ VSS VSS VDD VDD _1541_ sky130_fd_sc_hd__o21ai_1
X_2108_ net65 net36 _1405_ VSS VSS VDD VDD _1542_ sky130_fd_sc_hd__mux2i_1
X_2109_ a_exp_larger _1292_ _1450_ _1542_ VSS VSS VDD VDD
+ _1543_ sky130_fd_sc_hd__nor4_1
X_2110_ _1337_ _1539_ _1541_ _1330_ _1543_ VSS VSS VDD VDD
+ _1544_ sky130_fd_sc_hd__a221oi_4
X_2111_ net6 net8 net38 net40 _1413_ _1316_ VSS VSS VDD VDD
+ _1545_ sky130_fd_sc_hd__mux4_1
X_2112_ net38 net40 _1407_ VSS VSS VDD VDD _1546_ sky130_fd_sc_hd__mux2i_1
X_2113_ _1379_ _1546_ VSS VSS VDD VDD _1547_ sky130_fd_sc_hd__nor2_1
X_2114_ _1412_ _1545_ _1547_ _1401_ VSS VSS VDD VDD _1548_
+ sky130_fd_sc_hd__a211oi_1
X_2115_ _1401_ _1544_ _1548_ VSS VSS VDD VDD _1549_ sky130_fd_sc_hd__a21oi_2
X_2116_ _1401_ _1522_ _1530_ _1400_ VSS VSS VDD VDD _1550_
+ sky130_fd_sc_hd__a211oi_2
X_2117_ _1400_ _1549_ _1550_ VSS VSS VDD VDD _1551_ sky130_fd_sc_hd__a21oi_4
X_2118_ _1380_ _1470_ _1382_ VSS VSS VDD VDD _1552_ sky130_fd_sc_hd__nand3_4
X_2119_ _1189_ _1250_ VSS VSS VDD VDD _1553_ sky130_fd_sc_hd__or2_0
X_2120_ _1553_ VSS VSS VDD VDD _1554_ sky130_fd_sc_hd__buf_2
X_2121_ _1399_ _1398_ VSS VSS VDD VDD _1555_ sky130_fd_sc_hd__nor2_4
X_2122_ _1475_ _1401_ VSS VSS VDD VDD _1556_ sky130_fd_sc_hd__nand2_2
X_2123_ net27 net24 net59 net56 _1298_ _1404_ VSS VSS VDD
+ VDD _1557_ sky130_fd_sc_hd__mux4_1
X_2124_ _1471_ _1557_ _1459_ VSS VSS VDD VDD _1558_ sky130_fd_sc_hd__mux2i_1
X_2125_ net29 net31 net61 net63 _1413_ _1316_ VSS VSS VDD
+ VDD _1559_ sky130_fd_sc_hd__mux4_1
X_2126_ net63 _1407_ VSS VSS VDD VDD _1560_ sky130_fd_sc_hd__nand2_1
X_2127_ _1637_ _1407_ _1560_ VSS VSS VDD VDD _1561_ sky130_fd_sc_hd__o21ai_1
X_2128_ _1412_ _1559_ _1561_ _1330_ VSS VSS VDD VDD _1562_
+ sky130_fd_sc_hd__a22oi_4
X_2129_ _1504_ _1562_ _1364_ VSS VSS VDD VDD _1563_ sky130_fd_sc_hd__mux2_1
X_2130_ _1556_ _1558_ _1563_ _1402_ VSS VSS VDD VDD _1564_
+ sky130_fd_sc_hd__o22ai_1
X_2131_ net34 _1554_ _1555_ _1564_ VSS VSS VDD VDD _0122_
+ sky130_fd_sc_hd__a22oi_1
X_2132_ net44 _1391_ VSS VSS VDD VDD _0123_ sky130_fd_sc_hd__nand2_1
X_2133_ net12 _1450_ VSS VSS VDD VDD _0124_ sky130_fd_sc_hd__nand2_1
X_2134_ _0123_ _0124_ _1455_ VSS VSS VDD VDD _0125_ sky130_fd_sc_hd__a21oi_1
X_2135_ net42 _1448_ VSS VSS VDD VDD _0126_ sky130_fd_sc_hd__nand2_1
X_2136_ net10 _1450_ VSS VSS VDD VDD _0127_ sky130_fd_sc_hd__nand2_1
X_2137_ _0126_ _0127_ _1459_ VSS VSS VDD VDD _0128_ sky130_fd_sc_hd__a21oi_1
X_2138_ _0125_ _0128_ _1364_ _1475_ VSS VSS VDD VDD _0129_
+ sky130_fd_sc_hd__o211ai_2
X_2139_ _1364_ _1488_ VSS VSS VDD VDD _0130_ sky130_fd_sc_hd__or2_0
X_2140_ _1383_ _1392_ VSS VSS VDD VDD _0131_ sky130_fd_sc_hd__nor2_2
X_2141_ net15 net14 net47 net46 _1298_ _1391_ VSS VSS VDD
+ VDD _0132_ sky130_fd_sc_hd__mux4_2
X_2142_ _1459_ _0131_ _0132_ _1462_ _1363_ VSS VSS VDD VDD
+ _0133_ sky130_fd_sc_hd__a221oi_4
X_2143_ _1401_ _0129_ _0130_ _0133_ VSS VSS VDD VDD _0134_
+ sky130_fd_sc_hd__a31oi_4
X_2144_ _1470_ _1398_ VSS VSS VDD VDD _0135_ sky130_fd_sc_hd__nor2_2
X_2145_ _0134_ _0135_ VSS VSS VDD VDD _0136_ sky130_fd_sc_hd__nand2_1
X_2146_ _1551_ _1552_ _0122_ _0136_ VSS VSS VDD VDD _0069_
+ sky130_fd_sc_hd__o211ai_1
X_2147_ _0125_ _0128_ VSS VSS VDD VDD _0137_ sky130_fd_sc_hd__nor2_1
X_2148_ _1455_ _1533_ VSS VSS VDD VDD _0138_ sky130_fd_sc_hd__or2_0
X_2149_ net15 _1450_ VSS VSS VDD VDD _0139_ sky130_fd_sc_hd__nand2_1
X_2150_ _1682_ _1337_ _1455_ _0139_ VSS VSS VDD VDD _0140_
+ sky130_fd_sc_hd__o211ai_2
X_2151_ net16 net48 _1448_ VSS VSS VDD VDD _0141_ sky130_fd_sc_hd__mux2i_1
X_2152_ _1489_ _1459_ _0141_ VSS VSS VDD VDD _0142_ sky130_fd_sc_hd__nor3_1
X_2153_ _1489_ _0138_ _0140_ _0142_ VSS VSS VDD VDD _0143_
+ sky130_fd_sc_hd__a31oi_4
X_2154_ _1513_ _0137_ _0143_ _1402_ VSS VSS VDD VDD _0144_
+ sky130_fd_sc_hd__o22ai_2
X_2155_ _1489_ VSS VSS VDD VDD _0145_ sky130_fd_sc_hd__clkbuf_4
X_2156_ _1433_ _1436_ VSS VSS VDD VDD _0146_ sky130_fd_sc_hd__and2_0
X_2157_ _0145_ _0146_ _1438_ VSS VSS VDD VDD _0147_ sky130_fd_sc_hd__nor3_1
X_2158_ _1475_ _0144_ _0147_ VSS VSS VDD VDD _0148_ sky130_fd_sc_hd__a21oi_4
X_2159_ _1412_ _1440_ _1442_ _1444_ VSS VSS VDD VDD _0149_
+ sky130_fd_sc_hd__a31oi_2
X_2160_ _0145_ _1401_ _0149_ VSS VSS VDD VDD _0150_ sky130_fd_sc_hd__nor3_1
X_2161_ _0145_ _1438_ _1331_ VSS VSS VDD VDD _0151_ sky130_fd_sc_hd__nor3_1
X_2162_ _0145_ _1549_ _0150_ _0151_ VSS VSS VDD VDD _0152_
+ sky130_fd_sc_hd__a211oi_4
X_2163_ net27 net28 net59 net60 _1364_ _1404_ VSS VSS VDD
+ VDD _0153_ sky130_fd_sc_hd__mux4_1
X_2164_ _1506_ _0153_ _1459_ VSS VSS VDD VDD _0154_ sky130_fd_sc_hd__mux2i_1
X_2165_ _1335_ _1562_ _0145_ VSS VSS VDD VDD _0155_ sky130_fd_sc_hd__mux2i_1
X_2166_ _1556_ _0154_ _0155_ _1438_ VSS VSS VDD VDD _0156_
+ sky130_fd_sc_hd__a2bb2oi_1
X_2167_ _1380_ _1274_ _1397_ VSS VSS VDD VDD _0157_ sky130_fd_sc_hd__nand3_1
X_2168_ _0157_ VSS VSS VDD VDD _0158_ sky130_fd_sc_hd__clkbuf_4
X_2169_ net45 _1554_ VSS VSS VDD VDD _0159_ sky130_fd_sc_hd__nand2_1
X_2170_ _1552_ _0152_ _0156_ _0158_ _0159_ VSS VSS VDD VDD
+ _0160_ sky130_fd_sc_hd__o221a_1
X_2171_ _1470_ _1398_ _0148_ _0160_ VSS VSS VDD VDD _0070_
+ sky130_fd_sc_hd__o31ai_1
X_2172_ _1438_ _1466_ VSS VSS VDD VDD _0161_ sky130_fd_sc_hd__nor2_1
X_2173_ _1402_ _1353_ _1400_ VSS VSS VDD VDD _0162_ sky130_fd_sc_hd__o21ai_0
X_2174_ _1461_ _1556_ _1335_ _1402_ VSS VSS VDD VDD _0163_
+ sky130_fd_sc_hd__o22ai_1
X_2175_ _0161_ _0162_ _0163_ _1400_ VSS VSS VDD VDD _0164_
+ sky130_fd_sc_hd__o22ai_2
X_2176_ _1554_ VSS VSS VDD VDD _0165_ sky130_fd_sc_hd__clkbuf_4
X_2177_ _1420_ _0149_ _1347_ _1331_ _1298_ _1363_ VSS VSS
+ VDD VDD _0166_ sky130_fd_sc_hd__mux4_2
X_2178_ _1552_ _0166_ VSS VSS VDD VDD _0167_ sky130_fd_sc_hd__nor2_1
X_2179_ net56 _0165_ _0167_ VSS VSS VDD VDD _0168_ sky130_fd_sc_hd__a21oi_1
X_2180_ _1489_ _1433_ _1436_ VSS VSS VDD VDD _0169_ sky130_fd_sc_hd__and3_1
X_2181_ _1489_ _1411_ VSS VSS VDD VDD _0170_ sky130_fd_sc_hd__nor2_1
X_2182_ _1455_ _1438_ _0131_ VSS VSS VDD VDD _0171_ sky130_fd_sc_hd__nand3_1
X_2183_ _1437_ _0169_ _0170_ _0171_ VSS VSS VDD VDD _0172_
+ sky130_fd_sc_hd__o31a_2
X_2184_ _0172_ _0135_ VSS VSS VDD VDD _0173_ sky130_fd_sc_hd__nand2b_1
X_2185_ _0158_ _0164_ _0168_ _0173_ VSS VSS VDD VDD _0071_
+ sky130_fd_sc_hd__o211ai_2
X_2186_ _0145_ _1475_ _1455_ _1533_ VSS VSS VDD VDD _0174_
+ sky130_fd_sc_hd__nand4_1
X_2187_ _1448_ _1493_ _1494_ _1495_ VSS VSS VDD VDD _0175_
+ sky130_fd_sc_hd__o22ai_1
X_2188_ _1489_ _1411_ _1437_ VSS VSS VDD VDD _0176_ sky130_fd_sc_hd__a21o_1
X_2189_ _1400_ _0175_ _0176_ VSS VSS VDD VDD _0177_ sky130_fd_sc_hd__a21oi_1
X_2190_ _1438_ _0174_ _0177_ VSS VSS VDD VDD _0178_ sky130_fd_sc_hd__a21oi_4
X_2191_ _1504_ _1522_ _1437_ VSS VSS VDD VDD _0179_ sky130_fd_sc_hd__mux2i_1
X_2192_ _1402_ _1353_ _0145_ VSS VSS VDD VDD _0180_ sky130_fd_sc_hd__o21ai_0
X_2193_ _0145_ _0179_ _0180_ _0161_ VSS VSS VDD VDD _0181_
+ sky130_fd_sc_hd__o22ai_1
X_2194_ _0158_ _0181_ VSS VSS VDD VDD _0182_ sky130_fd_sc_hd__nor2_1
X_2195_ _1380_ _1274_ _1382_ VSS VSS VDD VDD _0183_ sky130_fd_sc_hd__and3_1
X_2196_ _0183_ VSS VSS VDD VDD _0184_ sky130_fd_sc_hd__clkbuf_2
X_2197_ _1420_ _1347_ _1401_ VSS VSS VDD VDD _0185_ sky130_fd_sc_hd__mux2i_1
X_2198_ _1488_ _1529_ _1401_ VSS VSS VDD VDD _0186_ sky130_fd_sc_hd__mux2i_2
X_2199_ _0185_ _0186_ _1364_ VSS VSS VDD VDD _0187_ sky130_fd_sc_hd__mux2_1
X_2200_ net59 _1554_ _0184_ _0187_ VSS VSS VDD VDD _0188_
+ sky130_fd_sc_hd__a22o_1
X_2201_ _0135_ _0178_ _0182_ _0188_ VSS VSS VDD VDD _0072_
+ sky130_fd_sc_hd__a211o_1
X_2202_ _0125_ _0128_ _1475_ VSS VSS VDD VDD _0189_ sky130_fd_sc_hd__o21ai_0
X_2203_ _1412_ _1545_ _1547_ _1437_ VSS VSS VDD VDD _0190_
+ sky130_fd_sc_hd__a211oi_1
X_2204_ _1438_ _0189_ _0190_ VSS VSS VDD VDD _0191_ sky130_fd_sc_hd__a21oi_1
X_2205_ _0186_ _0191_ _1400_ VSS VSS VDD VDD _0192_ sky130_fd_sc_hd__mux2i_4
X_2206_ _1544_ _1562_ _1401_ VSS VSS VDD VDD _0193_ sky130_fd_sc_hd__mux2i_2
X_2207_ _0179_ _0193_ _1400_ VSS VSS VDD VDD _0194_ sky130_fd_sc_hd__mux2_1
X_2208_ _1462_ _1402_ _0132_ _1508_ _0131_ VSS VSS VDD VDD
+ _0195_ sky130_fd_sc_hd__a32o_4
X_2209_ net60 _1554_ _1555_ _0194_ _0195_ _0135_ VSS VSS VDD
+ VDD _0196_ sky130_fd_sc_hd__a222oi_1
X_2210_ _1552_ _0192_ _0196_ VSS VSS VDD VDD _0073_ sky130_fd_sc_hd__o21ai_0
X_2211_ _0146_ _1438_ _1445_ VSS VSS VDD VDD _0197_ sky130_fd_sc_hd__a21oi_1
X_2212_ _0197_ _0191_ _0145_ VSS VSS VDD VDD _0198_ sky130_fd_sc_hd__mux2_2
X_2213_ _1556_ _0143_ VSS VSS VDD VDD _0199_ sky130_fd_sc_hd__nor2_2
X_2214_ net61 _1554_ _0135_ _0199_ VSS VSS VDD VDD _0200_
+ sky130_fd_sc_hd__a22o_1
X_2215_ _1331_ _1335_ _1402_ VSS VSS VDD VDD _0201_ sky130_fd_sc_hd__mux2i_1
X_2216_ _0201_ _0193_ _0145_ VSS VSS VDD VDD _0202_ sky130_fd_sc_hd__mux2i_2
X_2217_ _0158_ _0202_ VSS VSS VDD VDD _0203_ sky130_fd_sc_hd__nor2_1
X_2218_ _0184_ _0198_ _0200_ _0203_ VSS VSS VDD VDD _0074_
+ sky130_fd_sc_hd__a211o_1
X_2219_ _1366_ _1395_ VSS VSS VDD VDD _0204_ sky130_fd_sc_hd__nand2b_1
X_2220_ net62 _0165_ VSS VSS VDD VDD _0205_ sky130_fd_sc_hd__nand2_1
X_2221_ _0204_ _1398_ _1552_ _1447_ _0205_ VSS VSS VDD VDD
+ _0075_ sky130_fd_sc_hd__o221ai_2
X_2222_ _1497_ VSS VSS VDD VDD _0206_ sky130_fd_sc_hd__inv_1
X_2223_ _1514_ _1531_ VSS VSS VDD VDD _0207_ sky130_fd_sc_hd__nor2_1
X_2224_ _1274_ _1398_ _1535_ VSS VSS VDD VDD _0208_ sky130_fd_sc_hd__or3_1
X_2225_ _1631_ _1251_ _0207_ _0157_ _0208_ VSS VSS VDD VDD
+ _0209_ sky130_fd_sc_hd__o221a_1
X_2226_ _0206_ _1552_ _0209_ VSS VSS VDD VDD _0076_ sky130_fd_sc_hd__o21ai_0
X_2227_ _0134_ _0184_ VSS VSS VDD VDD _0210_ sky130_fd_sc_hd__nand2_1
X_2228_ _1664_ _1260_ _1551_ _0158_ _0210_ VSS VSS VDD VDD
+ _0052_ sky130_fd_sc_hd__o221ai_2
X_2229_ net65 _0165_ VSS VSS VDD VDD _0211_ sky130_fd_sc_hd__nand2_1
X_2230_ _0158_ _0152_ _0148_ _1552_ _0211_ VSS VSS VDD VDD
+ _0053_ sky130_fd_sc_hd__o221ai_1
X_2231_ _1192_ _1201_ VSS VSS VDD VDD _0212_ sky130_fd_sc_hd__nand2_1
X_2232_ _1189_ _1249_ VSS VSS VDD VDD _0213_ sky130_fd_sc_hd__nor2_1
X_2233_ _1378_ _1379_ _1336_ _1342_ VSS VSS VDD VDD _0214_
+ sky130_fd_sc_hd__o22ai_1
X_2234_ _1274_ _0214_ VSS VSS VDD VDD _0215_ sky130_fd_sc_hd__nand2_1
X_2235_ _1397_ _0166_ VSS VSS VDD VDD _0216_ sky130_fd_sc_hd__and2_0
X_2236_ _1382_ _0172_ _0215_ _0216_ VSS VSS VDD VDD _0217_
+ sky130_fd_sc_hd__a211oi_1
X_2237_ _0212_ _0213_ _0217_ _0165_ net35 VSS VSS VDD VDD
+ _0054_ sky130_fd_sc_hd__a32o_1
X_2238_ _1251_ VSS VSS VDD VDD _0218_ sky130_fd_sc_hd__clkbuf_4
X_2239_ _1655_ _0218_ VSS VSS VDD VDD _0219_ sky130_fd_sc_hd__nor2_1
X_2240_ _0184_ _0178_ _0187_ _1555_ _0219_ VSS VSS VDD VDD
+ _0055_ sky130_fd_sc_hd__a221o_1
X_2241_ net37 _0165_ _0184_ _0195_ VSS VSS VDD VDD _0220_
+ sky130_fd_sc_hd__a22oi_1
X_2242_ _0158_ _0192_ _0220_ VSS VSS VDD VDD _0056_ sky130_fd_sc_hd__o21ai_0
X_2243_ _1556_ _1552_ _0143_ VSS VSS VDD VDD _0221_ sky130_fd_sc_hd__nor3_1
X_2244_ net38 _1554_ _1555_ _0198_ _0221_ VSS VSS VDD VDD
+ _0057_ sky130_fd_sc_hd__a221o_1
X_2245_ net39 _0165_ _1393_ _0184_ VSS VSS VDD VDD _0222_
+ sky130_fd_sc_hd__a22oi_1
X_2246_ _1447_ _0158_ _0222_ VSS VSS VDD VDD _0058_ sky130_fd_sc_hd__o21ai_0
X_2247_ _1497_ _1555_ VSS VSS VDD VDD _0223_ sky130_fd_sc_hd__nand2_1
X_2248_ _1643_ _1260_ _1535_ _1552_ _0223_ VSS VSS VDD VDD
+ _0059_ sky130_fd_sc_hd__o221ai_1
X_2249_ _0134_ _1555_ VSS VSS VDD VDD _0224_ sky130_fd_sc_hd__nand2_1
X_2250_ _1676_ _1253_ _0224_ VSS VSS VDD VDD _0060_ sky130_fd_sc_hd__o21ai_0
X_2251_ _1673_ _1252_ _0158_ _0148_ VSS VSS VDD VDD _0061_
+ sky130_fd_sc_hd__o22ai_1
X_2252_ _1670_ _1252_ _0158_ _0172_ VSS VSS VDD VDD _0063_
+ sky130_fd_sc_hd__o22ai_1
X_2253_ net44 _0165_ _1555_ _0178_ VSS VSS VDD VDD _0064_
+ sky130_fd_sc_hd__a22o_1
X_2254_ _1555_ _0195_ VSS VSS VDD VDD _0225_ sky130_fd_sc_hd__nand2_1
X_2255_ _1685_ _1253_ _0225_ VSS VSS VDD VDD _0065_ sky130_fd_sc_hd__o21ai_0
X_2256_ _1555_ _0199_ VSS VSS VDD VDD _0226_ sky130_fd_sc_hd__nand2_1
X_2257_ _1682_ _1253_ _0226_ VSS VSS VDD VDD _0066_ sky130_fd_sc_hd__o21ai_0
X_2258_ _1393_ _1555_ VSS VSS VDD VDD _0227_ sky130_fd_sc_hd__nand2_1
X_2259_ _1679_ _1253_ _0227_ VSS VSS VDD VDD _0067_ sky130_fd_sc_hd__o21ai_0
X_2260_ _1197_ _1200_ _0213_ VSS VSS VDD VDD _0228_ sky130_fd_sc_hd__o21ai_0
X_2261_ _1382_ _1535_ _0215_ _0213_ VSS VSS VDD VDD _0229_
+ sky130_fd_sc_hd__o31a_1
X_2262_ _1192_ _0228_ _0229_ VSS VSS VDD VDD _0068_ sky130_fd_sc_hd__a21oi_1
X_2263_ _1450_ _1382_ _1395_ VSS VSS VDD VDD _0230_ sky130_fd_sc_hd__nand3_1
X_2264_ _1450_ _1397_ VSS VSS VDD VDD _0231_ sky130_fd_sc_hd__nand2_1
X_2265_ _1366_ _0230_ _0231_ _1474_ VSS VSS VDD VDD _0025_
+ sky130_fd_sc_hd__o22ai_1
X_2266_ _1337_ _1538_ VSS VSS VDD VDD _0036_ sky130_fd_sc_hd__and2_0
X_2267_ _1470_ _0231_ VSS VSS VDD VDD _0232_ sky130_fd_sc_hd__nor2_1
X_2268_ _1399_ _0231_ VSS VSS VDD VDD _0233_ sky130_fd_sc_hd__nor2_4
X_2269_ _1470_ _1450_ _1382_ VSS VSS VDD VDD _0234_ sky130_fd_sc_hd__nand3_2
X_2270_ _0233_ _1564_ _1551_ _0234_ VSS VSS VDD VDD _0235_
+ sky130_fd_sc_hd__o2bb2ai_1
X_2271_ net2 _0218_ _0134_ _0232_ _0235_ VSS VSS VDD VDD _0043_
+ sky130_fd_sc_hd__a221o_1
X_2272_ _1448_ _1382_ VSS VSS VDD VDD _0236_ sky130_fd_sc_hd__nor2_1
X_2273_ _1399_ _0236_ VSS VSS VDD VDD _0237_ sky130_fd_sc_hd__nand2_1
X_2274_ net13 _1260_ VSS VSS VDD VDD _0238_ sky130_fd_sc_hd__nand2_1
X_2275_ _1337_ _1397_ VSS VSS VDD VDD _0239_ sky130_fd_sc_hd__nand2_1
X_2276_ _1470_ _1337_ _1382_ VSS VSS VDD VDD _0240_ sky130_fd_sc_hd__nand3_1
X_2277_ _1399_ _0156_ _0239_ _0240_ _0152_ VSS VSS VDD VDD
+ _0241_ sky130_fd_sc_hd__o32a_1
X_2278_ _0148_ _0237_ _0238_ _0241_ VSS VSS VDD VDD _0044_
+ sky130_fd_sc_hd__o211ai_1
X_2279_ _1470_ _0236_ VSS VSS VDD VDD _0242_ sky130_fd_sc_hd__nand2_1
X_2280_ _0242_ VSS VSS VDD VDD _0243_ sky130_fd_sc_hd__clkbuf_4
X_2281_ net24 _1260_ VSS VSS VDD VDD _0244_ sky130_fd_sc_hd__nand2_1
X_2282_ _1470_ _0172_ _0239_ _0240_ _0166_ VSS VSS VDD VDD
+ _0245_ sky130_fd_sc_hd__o32a_1
X_2283_ _0164_ _0243_ _0244_ _0245_ VSS VSS VDD VDD _0045_
+ sky130_fd_sc_hd__o211ai_2
X_2284_ _1399_ _1448_ _1397_ VSS VSS VDD VDD _0246_ sky130_fd_sc_hd__nor3_4
X_2285_ _0187_ _0246_ _0242_ _0181_ VSS VSS VDD VDD _0247_
+ sky130_fd_sc_hd__o2bb2ai_1
X_2286_ net27 _1251_ _0178_ _0232_ _0247_ VSS VSS VDD VDD
+ _0046_ sky130_fd_sc_hd__a221o_1
X_2287_ net28 _1260_ VSS VSS VDD VDD _0248_ sky130_fd_sc_hd__nand2_1
X_2288_ _1470_ _0195_ _0236_ VSS VSS VDD VDD _0249_ sky130_fd_sc_hd__o21a_1
X_2289_ _1399_ _0194_ _0249_ VSS VSS VDD VDD _0250_ sky130_fd_sc_hd__o21ai_0
X_2290_ _0192_ _0234_ _0248_ _0250_ VSS VSS VDD VDD _0047_
+ sky130_fd_sc_hd__o211ai_1
X_2291_ _0199_ _0232_ _0242_ _0202_ VSS VSS VDD VDD _0251_
+ sky130_fd_sc_hd__o2bb2ai_1
X_2292_ net29 _1251_ _0198_ _0246_ _0251_ VSS VSS VDD VDD
+ _0048_ sky130_fd_sc_hd__a221o_1
X_2293_ net30 _1260_ VSS VSS VDD VDD _0252_ sky130_fd_sc_hd__nand2_1
X_2294_ _0204_ _0239_ _0240_ _1447_ _0252_ VSS VSS VDD VDD
+ _0049_ sky130_fd_sc_hd__o221ai_2
X_2295_ net31 _1251_ VSS VSS VDD VDD _0253_ sky130_fd_sc_hd__nand2_1
X_2296_ _0207_ _0243_ _0237_ _1535_ _0253_ VSS VSS VDD VDD
+ _0254_ sky130_fd_sc_hd__o221ai_1