
* cell floating_point_adder
* pin a[29]
* pin a[30]
* pin clk
* pin rst_n
* pin b[31]
* pin invalid_op
* pin result[29]
* pin result[31]
* pin result[30]
* pin result[27]
* pin overflow
* pin result[26]
* pin inexact
* pin result[23]
* pin result[25]
* pin result[24]
* pin result[0]
* pin result[3]
* pin result[1]
* pin underflow
* pin result[2]
* pin a[31]
* pin result[28]
* pin result[4]
* pin result[5]
* pin b[29]
* pin result[6]
* pin a[27]
* pin b[30]
* pin b[28]
* pin b[27]
* pin a[28]
* pin result[7]
* pin b[26]
* pin result[22]
* pin a[25]
* pin b[25]
* pin a[26]
* pin a[23]
* pin a[24]
* pin b[23]
* pin b[24]
* pin result[19]
* pin result[9]
* pin a[18]
* pin a[20]
* pin result[13]
* pin b[20]
* pin b[18]
* pin result[21]
* pin a[21]
* pin result[8]
* pin b[19]
* pin b[21]
* pin b[17]
* pin a[19]
* pin result[17]
* pin result[20]
* pin a[16]
* pin a[17]
* pin result[10]
* pin b[16]
* pin result[14]
* pin b[14]
* pin a[14]
* pin b[15]
* pin result[16]
* pin a[15]
* pin a[13]
* pin b[13]
* pin result[15]
* pin b[12]
* pin a[12]
* pin result[18]
* pin result[11]
* pin a[10]
* pin a[8]
* pin b[10]
* pin result[12]
* pin b[7]
* pin a[11]
* pin b[11]
* pin b[8]
* pin a[7]
* pin b[22]
* pin a[22]
* pin valid_out
* pin b[0]
* pin a[5]
* pin b[2]
* pin b[6]
* pin b[5]
* pin b[3]
* pin a[4]
* pin b[1]
* pin b[4]
* pin a[3]
* pin a[0]
* pin b[9]
* pin a[9]
* pin a[1]
* pin a[2]
* pin a[6]
* pin valid_in
.SUBCKT floating_point_adder 1 2 3 4 5 6 7 8 9 10 11 12 13 14 15 16 17 18 19 20
+ 21 22 23 75 122 235 248 263 264 300 301 351 401 414 517 528 529 566 607 639
+ 640 673 1007 1092 1145 1193 1207 1226 1227 1240 1260 1276 1299 1300 1329 1330
+ 1342 1343 1360 1361 1376 1402 1474 1495 1496 1535 1556 1571 1600 1601 1623
+ 1684 1685 1697 1755 1795 1864 1865 1877 1890 1891 1922 1923 1966 2039 2056
+ 2122 2192 2200 2201 2202 2204 2205 2206 2207 2208 2209 2210 2211 2212 2213
+ 2214 2215 2216
* net 1 a[29]
* net 2 a[30]
* net 3 clk
* net 4 rst_n
* net 5 b[31]
* net 6 invalid_op
* net 7 result[29]
* net 8 result[31]
* net 9 result[30]
* net 10 result[27]
* net 11 overflow
* net 12 result[26]
* net 13 inexact
* net 14 result[23]
* net 15 result[25]
* net 16 result[24]
* net 17 result[0]
* net 18 result[3]
* net 19 result[1]
* net 20 underflow
* net 21 result[2]
* net 22 a[31]
* net 23 result[28]
* net 75 result[4]
* net 122 result[5]
* net 235 b[29]
* net 248 result[6]
* net 263 a[27]
* net 264 b[30]
* net 300 b[28]
* net 301 b[27]
* net 351 a[28]
* net 401 result[7]
* net 414 b[26]
* net 517 result[22]
* net 528 a[25]
* net 529 b[25]
* net 566 a[26]
* net 607 a[23]
* net 639 a[24]
* net 640 b[23]
* net 673 b[24]
* net 1007 result[19]
* net 1092 result[9]
* net 1145 a[18]
* net 1193 a[20]
* net 1207 result[13]
* net 1226 b[20]
* net 1227 b[18]
* net 1240 result[21]
* net 1260 a[21]
* net 1276 result[8]
* net 1299 b[19]
* net 1300 b[21]
* net 1329 b[17]
* net 1330 a[19]
* net 1342 result[17]
* net 1343 result[20]
* net 1360 a[16]
* net 1361 a[17]
* net 1376 result[10]
* net 1402 b[16]
* net 1474 result[14]
* net 1495 b[14]
* net 1496 a[14]
* net 1535 b[15]
* net 1556 result[16]
* net 1571 a[15]
* net 1600 a[13]
* net 1601 b[13]
* net 1623 result[15]
* net 1684 b[12]
* net 1685 a[12]
* net 1697 result[18]
* net 1755 result[11]
* net 1795 a[10]
* net 1864 a[8]
* net 1865 b[10]
* net 1877 result[12]
* net 1890 b[7]
* net 1891 a[11]
* net 1922 b[11]
* net 1923 b[8]
* net 1966 a[7]
* net 2039 b[22]
* net 2056 a[22]
* net 2122 valid_out
* net 2192 b[0]
* net 2200 a[5]
* net 2201 b[2]
* net 2202 b[6]
* net 2204 b[5]
* net 2205 b[3]
* net 2206 a[4]
* net 2207 b[1]
* net 2208 b[4]
* net 2209 a[3]
* net 2210 a[0]
* net 2211 b[9]
* net 2212 a[9]
* net 2213 a[1]
* net 2214 a[2]
* net 2215 a[6]
* net 2216 valid_in
* cell instance $3 r0 *1 17.48,2.72
X$3 49 1 49 29 83 29 sky130_fd_sc_hd__clkbuf_2
* cell instance $5 m0 *1 24.38,8.16
X$5 49 2 49 29 113 29 sky130_fd_sc_hd__clkbuf_2
* cell instance $12 r0 *1 98.44,84.32
X$12 29 3 509 49 49 29 sky130_fd_sc_hd__clkbuf_16
* cell instance $15 r0 *1 46,8.16
X$15 29 4 46 49 49 29 sky130_fd_sc_hd__buf_12
* cell instance $19 r0 *1 57.04,2.72
X$19 49 5 49 39 29 29 sky130_fd_sc_hd__dlygate4sd3_1
* cell instance $22 m0 *1 53.82,8.16
X$22 49 64 6 29 49 29 sky130_fd_sc_hd__clkbuf_1
* cell instance $25 m0 *1 55.2,8.16
X$25 49 40 7 29 49 29 sky130_fd_sc_hd__clkbuf_1
* cell instance $28 r0 *1 57.96,8.16
X$28 49 30 8 29 49 29 sky130_fd_sc_hd__clkbuf_1
* cell instance $30 m0 *1 61.64,8.16
X$30 49 59 9 29 49 29 sky130_fd_sc_hd__clkbuf_1
* cell instance $34 r0 *1 70.84,2.72
X$34 49 33 10 29 49 29 sky130_fd_sc_hd__clkbuf_1
* cell instance $37 r0 *1 73.14,2.72
X$37 49 57 11 29 49 29 sky130_fd_sc_hd__clkbuf_1
* cell instance $40 r0 *1 86.94,2.72
X$40 49 25 12 29 49 29 sky130_fd_sc_hd__clkbuf_1
* cell instance $43 r0 *1 107.64,2.72
X$43 49 34 13 29 49 29 sky130_fd_sc_hd__clkbuf_1
* cell instance $45 m0 *1 108.56,8.16
X$45 49 45 14 29 49 29 sky130_fd_sc_hd__clkbuf_1
* cell instance $49 r0 *1 110.4,2.72
X$49 49 67 15 29 49 29 sky130_fd_sc_hd__clkbuf_1
* cell instance $52 r0 *1 117.3,2.72
X$52 49 36 16 29 49 29 sky130_fd_sc_hd__clkbuf_1
* cell instance $55 r0 *1 135.24,2.72
X$55 49 26 17 29 49 29 sky130_fd_sc_hd__clkbuf_1
* cell instance $58 r0 *1 145.82,2.72
X$58 49 53 18 29 49 29 sky130_fd_sc_hd__clkbuf_1
* cell instance $61 r0 *1 147.2,2.72
X$61 49 61 19 29 49 29 sky130_fd_sc_hd__clkbuf_1
* cell instance $63 r0 *1 151.8,2.72
X$63 49 50 20 29 49 29 sky130_fd_sc_hd__clkbuf_1
* cell instance $67 r0 *1 162.84,2.72
X$67 49 28 21 29 49 29 sky130_fd_sc_hd__clkbuf_1
* cell instance $70 r0 *1 43.7,2.72
X$70 49 22 49 38 29 29 sky130_fd_sc_hd__dlygate4sd3_1
* cell instance $73 r0 *1 92.92,2.72
X$73 49 58 23 29 49 29 sky130_fd_sc_hd__clkbuf_1
* cell instance $74 m0 *1 40.02,19.04
X$74 29 24 141 31 167 49 49 29 sky130_fd_sc_hd__dfrtp_2
* cell instance $75 m0 *1 84.64,57.12
X$75 29 24 737 511 714 49 49 29 sky130_fd_sc_hd__dfrtp_2
* cell instance $76 r0 *1 102.58,89.76
X$76 29 24 933 1238 1253 49 49 29 sky130_fd_sc_hd__dfrtp_4
* cell instance $77 r0 *1 51.98,46.24
X$77 29 24 637 471 77 49 49 29 sky130_fd_sc_hd__dfrtp_4
* cell instance $78 r0 *1 136.62,111.52
X$78 29 24 98 1472 1559 49 49 29 sky130_fd_sc_hd__dfrtp_4
* cell instance $79 m0 *1 69.92,122.4
X$79 29 24 1489 1298 1649 49 49 29 sky130_fd_sc_hd__dfrtp_1
* cell instance $80 m0 *1 63.94,165.92
X$80 29 24 2176 1720 2189 49 49 29 sky130_fd_sc_hd__dfrtp_1
* cell instance $81 m0 *1 97.06,8.16
X$81 29 24 45 37 44 49 49 29 sky130_fd_sc_hd__dfrtp_1
* cell instance $82 m0 *1 44.16,57.12
X$82 29 24 676 471 675 49 49 29 sky130_fd_sc_hd__dfrtp_1
* cell instance $83 m0 *1 47.38,73.44
X$83 29 24 921 754 1018 49 49 29 sky130_fd_sc_hd__dfrtp_1
* cell instance $84 m0 *1 93.84,160.48
X$84 29 24 2157 1791 2143 49 49 29 sky130_fd_sc_hd__dfrtp_1
* cell instance $85 m0 *1 68.08,111.52
X$85 29 24 1467 1238 1461 49 49 29 sky130_fd_sc_hd__dfrtp_1
* cell instance $86 m0 *1 73.14,165.92
X$86 29 24 2147 1720 2175 49 49 29 sky130_fd_sc_hd__dfrtp_1
* cell instance $87 m0 *1 84.64,8.16
X$87 29 24 58 37 43 49 49 29 sky130_fd_sc_hd__dfrtp_1
* cell instance $88 m0 *1 47.38,95.2
X$88 29 24 1297 1298 1323 49 49 29 sky130_fd_sc_hd__dfrtp_1
* cell instance $89 m0 *1 65.78,155.04
X$89 29 24 2079 1720 2081 49 49 29 sky130_fd_sc_hd__dfrtp_1
* cell instance $90 m0 *1 95.68,165.92
X$90 29 24 2163 1791 2087 49 49 29 sky130_fd_sc_hd__dfrtp_1
* cell instance $91 m0 *1 69.46,133.28
X$91 29 24 1772 1720 1770 49 49 29 sky130_fd_sc_hd__dfrtp_1
* cell instance $92 m0 *1 148.12,165.92
X$92 29 24 2180 1472 2197 49 49 29 sky130_fd_sc_hd__dfrtp_1
* cell instance $93 m0 *1 112.24,100.64
X$93 29 24 1315 1069 1349 49 49 29 sky130_fd_sc_hd__dfrtp_1
* cell instance $94 m0 *1 149.5,122.4
X$94 29 24 1624 1472 1588 49 49 29 sky130_fd_sc_hd__dfrtp_1
* cell instance $95 m0 *1 145.36,144.16
X$95 29 24 1908 1472 1935 49 49 29 sky130_fd_sc_hd__dfrtp_1
* cell instance $96 m0 *1 30.82,8.16
X$96 29 24 52 31 51 49 49 29 sky130_fd_sc_hd__dfrtp_1
* cell instance $97 m0 *1 40.94,46.24
X$97 29 24 84 471 539 49 49 29 sky130_fd_sc_hd__dfrtp_1
* cell instance $98 m0 *1 149.04,106.08
X$98 29 24 1379 1006 1310 49 49 29 sky130_fd_sc_hd__dfrtp_1
* cell instance $99 m0 *1 148.58,127.84
X$99 29 24 1696 1449 1730 49 49 29 sky130_fd_sc_hd__dfrtp_1
* cell instance $100 m0 *1 121.44,100.64
X$100 29 24 1313 1069 1314 49 49 29 sky130_fd_sc_hd__dfrtp_1
* cell instance $101 m0 *1 148.58,133.28
X$101 29 24 1754 1472 1818 49 49 29 sky130_fd_sc_hd__dfrtp_1
* cell instance $102 m0 *1 157.78,78.88
X$102 29 24 1062 1006 1038 49 49 29 sky130_fd_sc_hd__dfrtp_1
* cell instance $103 m0 *1 37.72,13.6
X$103 29 24 105 41 104 49 49 29 sky130_fd_sc_hd__dfrtp_1
* cell instance $104 m0 *1 36.8,62.56
X$104 29 24 663 754 774 49 49 29 sky130_fd_sc_hd__dfrtp_1
* cell instance $105 m0 *1 149.04,8.16
X$105 29 24 50 27 60 49 49 29 sky130_fd_sc_hd__dfrtp_1
* cell instance $106 r0 *1 98.44,2.72
X$106 29 24 34 37 55 49 49 29 sky130_fd_sc_hd__dfrtp_1
* cell instance $107 r0 *1 55.2,95.2
X$107 29 24 1266 1298 1324 49 49 29 sky130_fd_sc_hd__dfrtp_1
* cell instance $108 r0 *1 76.82,133.28
X$108 29 24 1838 1720 1839 49 49 29 sky130_fd_sc_hd__dfrtp_1
* cell instance $109 r0 *1 83.72,138.72
X$109 29 24 1787 1791 1887 49 49 29 sky130_fd_sc_hd__dfrtp_1
* cell instance $110 r0 *1 126.04,2.72
X$110 29 24 26 47 35 49 49 29 sky130_fd_sc_hd__dfrtp_1
* cell instance $111 r0 *1 80.5,160.48
X$111 29 24 2161 1720 1976 49 49 29 sky130_fd_sc_hd__dfrtp_1
* cell instance $112 r0 *1 153.64,2.72
X$112 29 24 28 27 76 49 49 29 sky130_fd_sc_hd__dfrtp_1
* cell instance $113 r0 *1 47.38,2.72
X$113 29 24 40 31 54 49 49 29 sky130_fd_sc_hd__dfrtp_1
* cell instance $114 r0 *1 161,122.4
X$114 29 24 1377 1449 1381 49 49 29 sky130_fd_sc_hd__dfrtp_1
* cell instance $115 r0 *1 75.9,122.4
X$115 29 24 1683 1298 1712 49 49 29 sky130_fd_sc_hd__dfrtp_1
* cell instance $116 r0 *1 74.52,138.72
X$116 29 24 1915 1720 1889 49 49 29 sky130_fd_sc_hd__dfrtp_1
* cell instance $117 r0 *1 86.02,133.28
X$117 29 24 1809 1791 1806 49 49 29 sky130_fd_sc_hd__dfrtp_1
* cell instance $121 r0 *1 74.06,127.84
X$121 29 24 1666 1720 1170 49 49 29 sky130_fd_sc_hd__dfrtp_4
* cell instance $123 r0 *1 116.38,78.88
X$123 29 24 1100 1069 1182 49 49 29 sky130_fd_sc_hd__dfrtp_1
* cell instance $125 m0 *1 114.54,84.32
X$125 29 24 1140 1069 1101 49 49 29 sky130_fd_sc_hd__dfrtp_1
* cell instance $128 r0 *1 101.66,78.88
X$128 29 24 1061 1238 1071 49 49 29 sky130_fd_sc_hd__dfrtp_1
* cell instance $130 r0 *1 88.78,73.44
X$130 29 24 964 511 963 49 49 29 sky130_fd_sc_hd__dfrtp_1
* cell instance $134 m0 *1 74.98,160.48
X$134 29 24 2148 1720 2118 49 49 29 sky130_fd_sc_hd__dfrtp_1
* cell instance $137 m0 *1 87.86,68
X$137 29 24 882 511 866 49 49 29 sky130_fd_sc_hd__dfrtp_2
* cell instance $139 r0 *1 74.52,149.6
X$139 29 24 2043 1720 2054 49 49 29 sky130_fd_sc_hd__dfrtp_1
* cell instance $145 m0 *1 74.98,144.16
X$145 29 24 1929 1720 1902 49 49 29 sky130_fd_sc_hd__dfrtp_1
* cell instance $149 r0 *1 75.44,144.16
X$149 29 24 1953 1720 1901 49 49 29 sky130_fd_sc_hd__dfrtp_1
* cell instance $151 m0 *1 74.06,138.72
X$151 29 24 1807 1720 1888 49 49 29 sky130_fd_sc_hd__dfrtp_1
* cell instance $154 r0 *1 99.36,165.92
X$154 29 24 2177 1791 2119 49 49 29 sky130_fd_sc_hd__dfrtp_1
* cell instance $156 r0 *1 98.44,160.48
X$156 29 24 2162 1791 1999 49 49 29 sky130_fd_sc_hd__dfrtp_1
* cell instance $159 r0 *1 155.48,127.84
X$159 29 24 1756 1472 1476 49 49 29 sky130_fd_sc_hd__dfrtp_1
* cell instance $161 r0 *1 161.46,133.28
X$161 29 24 1817 1472 1625 49 49 29 sky130_fd_sc_hd__dfrtp_1
* cell instance $164 m0 *1 157.78,133.28
X$164 29 24 1779 1449 1585 49 49 29 sky130_fd_sc_hd__dfrtp_1
* cell instance $169 m0 *1 102.12,144.16
X$169 29 24 1931 1791 1930 49 49 29 sky130_fd_sc_hd__dfrtp_1
* cell instance $171 r0 *1 100.28,144.16
X$171 29 24 1956 1791 1951 49 49 29 sky130_fd_sc_hd__dfrtp_1
* cell instance $173 m0 *1 102.12,138.72
X$173 29 24 1808 1791 1862 49 49 29 sky130_fd_sc_hd__dfrtp_1
* cell instance $175 m0 *1 92.92,138.72
X$175 29 24 1773 1791 1771 49 49 29 sky130_fd_sc_hd__dfrtp_1
* cell instance $177 m0 *1 157.78,19.04
X$177 29 24 212 47 251 49 49 29 sky130_fd_sc_hd__dfrtp_1
* cell instance $180 m0 *1 157.78,13.6
X$180 29 24 100 27 101 49 49 29 sky130_fd_sc_hd__dfrtp_1
* cell instance $185 r0 *1 84.64,127.84
X$185 29 24 1748 1238 1762 49 49 29 sky130_fd_sc_hd__dfrtp_1
* cell instance $187 r0 *1 154.56,160.48
X$187 29 24 2166 1449 2180 49 49 29 sky130_fd_sc_hd__dfrtp_1
* cell instance $192 r0 *1 161.46,155.04
X$192 29 24 2154 1472 2166 49 49 29 sky130_fd_sc_hd__dfrtp_1
* cell instance $194 r0 *1 102.12,8.16
X$194 29 24 67 37 69 49 49 29 sky130_fd_sc_hd__dfrtp_1
* cell instance $199 m0 *1 139.84,160.48
X$199 29 24 2021 1472 2127 49 49 29 sky130_fd_sc_hd__dfrtp_1
* cell instance $202 r0 *1 161.46,35.36
X$202 29 24 485 47 487 49 49 29 sky130_fd_sc_hd__dfrtp_1
* cell instance $204 r0 *1 161.46,8.16
X$204 29 24 74 27 126 49 49 29 sky130_fd_sc_hd__dfrtp_1
* cell instance $208 r0 *1 111.32,8.16
X$208 29 24 36 37 82 49 49 29 sky130_fd_sc_hd__dfrtp_1
* cell instance $211 m0 *1 142.14,138.72
X$211 29 24 1819 1472 1879 49 49 29 sky130_fd_sc_hd__dfrtp_1
* cell instance $214 r0 *1 143.98,127.84
X$214 29 24 1757 1472 1758 49 49 29 sky130_fd_sc_hd__dfrtp_1
* cell instance $217 m0 *1 157.78,138.72
X$217 29 24 1849 1449 1344 49 49 29 sky130_fd_sc_hd__dfrtp_1
* cell instance $220 r0 *1 156.4,138.72
X$220 29 24 1934 1472 1876 49 49 29 sky130_fd_sc_hd__dfrtp_1
* cell instance $223 m0 *1 141.68,155.04
X$223 29 24 2022 1449 2105 49 49 29 sky130_fd_sc_hd__dfrtp_1
* cell instance $226 r0 *1 142.6,122.4
X$226 29 24 484 1472 1701 49 49 29 sky130_fd_sc_hd__dfrtp_4
* cell instance $228 r0 *1 141.68,116.96
X$228 29 24 550 1472 1622 49 49 29 sky130_fd_sc_hd__dfrtp_4
* cell instance $233 r0 *1 157.78,111.52
X$233 29 24 1514 1006 1475 49 49 29 sky130_fd_sc_hd__dfrtp_1
* cell instance $235 m0 *1 130.18,111.52
X$235 29 24 1477 1472 1520 49 49 29 sky130_fd_sc_hd__dfrtp_1
* cell instance $240 r0 *1 104.88,95.2
X$240 29 24 928 1238 1318 49 49 29 sky130_fd_sc_hd__dfrtp_4
* cell instance $242 r0 *1 107.64,84.32
X$242 29 24 1141 1069 1187 49 49 29 sky130_fd_sc_hd__dfrtp_1
* cell instance $244 m0 *1 157.78,127.84
X$244 29 24 1513 1449 1473 49 49 29 sky130_fd_sc_hd__dfrtp_1
* cell instance $248 m0 *1 118.22,89.76
X$248 29 24 672 1069 1251 49 49 29 sky130_fd_sc_hd__dfrtp_4
* cell instance $251 r0 *1 161.46,95.2
X$251 29 24 1277 1006 1279 49 49 29 sky130_fd_sc_hd__dfrtp_1
* cell instance $254 r0 *1 154.1,100.64
X$254 29 24 1375 1006 1341 49 49 29 sky130_fd_sc_hd__dfrtp_1
* cell instance $259 r0 *1 161.46,84.32
X$259 29 24 1163 1006 1164 49 49 29 sky130_fd_sc_hd__dfrtp_1
* cell instance $261 r0 *1 99.82,68
X$261 29 24 931 511 883 49 49 29 sky130_fd_sc_hd__dfrtp_1
* cell instance $264 r0 *1 126.5,95.2
X$264 29 24 1283 1069 1311 49 49 29 sky130_fd_sc_hd__dfrtp_1
* cell instance $268 r0 *1 126.04,100.64
X$268 29 24 1384 1069 1385 49 49 29 sky130_fd_sc_hd__dfrtp_1
* cell instance $273 m0 *1 124.66,95.2
X$273 29 24 1248 1069 1285 49 49 29 sky130_fd_sc_hd__dfrtp_1
* cell instance $275 r0 *1 161.46,24.48
X$275 29 24 402 47 367 49 49 29 sky130_fd_sc_hd__dfrtp_1
* cell instance $278 m0 *1 139.84,8.16
X$278 29 24 53 47 48 49 49 29 sky130_fd_sc_hd__dfrtp_1
* cell instance $280 r0 *1 139.38,8.16
X$280 29 24 61 47 62 49 49 29 sky130_fd_sc_hd__dfrtp_1
* cell instance $282 m0 *1 84.64,127.84
X$282 29 24 1740 1238 1738 49 49 29 sky130_fd_sc_hd__dfrtp_1
* cell instance $286 m0 *1 47.38,13.6
X$286 29 24 64 31 84 49 49 29 sky130_fd_sc_hd__dfrtp_1
* cell instance $292 r0 *1 52.44,68
X$292 29 24 923 754 1076 49 49 29 sky130_fd_sc_hd__dfrtp_1
* cell instance $294 m0 *1 57.04,13.6
X$294 29 24 59 31 78 49 49 29 sky130_fd_sc_hd__dfrtp_1
* cell instance $298 r0 *1 49.22,51.68
X$298 29 24 645 471 662 49 49 29 sky130_fd_sc_hd__dfrtp_1
* cell instance $303 r0 *1 48.3,57.12
X$303 29 24 707 471 945 49 49 29 sky130_fd_sc_hd__dfrtp_1
* cell instance $305 r0 *1 49.22,62.56
X$305 29 24 776 754 851 49 49 29 sky130_fd_sc_hd__dfrtp_1
* cell instance $307 m0 *1 46.46,62.56
X$307 29 24 755 754 828 49 49 29 sky130_fd_sc_hd__dfrtp_1
* cell instance $309 m0 *1 45.08,35.36
X$309 29 24 391 471 457 49 49 29 sky130_fd_sc_hd__dfrtp_1
* cell instance $312 m0 *1 46,40.8
X$312 29 24 347 471 496 49 49 29 sky130_fd_sc_hd__dfrtp_4
* cell instance $314 r0 *1 43.24,29.92
X$314 29 24 378 31 407 49 49 29 sky130_fd_sc_hd__dfrtp_1
* cell instance $316 m0 *1 42.32,29.92
X$316 29 24 357 41 377 49 49 29 sky130_fd_sc_hd__dfrtp_1
* cell instance $318 m0 *1 43.7,24.48
X$318 29 24 267 41 257 49 49 29 sky130_fd_sc_hd__dfrtp_1
* cell instance $320 r0 *1 58.88,40.8
X$320 29 24 557 511 65 49 49 29 sky130_fd_sc_hd__dfrtp_4
* cell instance $322 r0 *1 74.98,2.72
X$322 29 24 25 31 79 49 49 29 sky130_fd_sc_hd__dfrtp_1
* cell instance $325 r0 *1 61.18,2.72
X$325 29 24 33 31 32 49 49 29 sky130_fd_sc_hd__dfrtp_1
* cell instance $327 m0 *1 63.02,8.16
X$327 29 24 57 31 56 49 49 29 sky130_fd_sc_hd__dfrtp_1
* cell instance $329 r0 *1 51.52,73.44
X$329 29 24 995 754 1022 49 49 29 sky130_fd_sc_hd__dfrtp_1
* cell instance $332 r0 *1 52.9,78.88
X$332 29 24 1056 754 1106 49 49 29 sky130_fd_sc_hd__dfrtp_1
* cell instance $334 m0 *1 33.12,29.92
X$334 29 24 377 41 305 49 49 29 sky130_fd_sc_hd__dfrtp_1
* cell instance $337 m0 *1 34.5,24.48
X$337 29 24 257 41 292 49 49 29 sky130_fd_sc_hd__dfrtp_1
* cell instance $339 m0 *1 34.04,40.8
X$339 29 24 496 41 629 49 49 29 sky130_fd_sc_hd__dfrtp_1
* cell instance $341 r0 *1 33.58,35.36
X$341 29 24 457 41 456 49 49 29 sky130_fd_sc_hd__dfrtp_1
* cell instance $343 m0 *1 34.04,35.36
X$343 29 24 407 31 418 49 49 29 sky130_fd_sc_hd__dfrtp_1
* cell instance $345 r0 *1 33.58,40.8
X$345 29 24 472 41 538 49 49 29 sky130_fd_sc_hd__dfrtp_1
* cell instance $347 r0 *1 33.58,2.72
X$347 29 24 30 31 52 49 49 29 sky130_fd_sc_hd__dfrtp_1
* cell instance $351 m0 *1 30.82,19.04
X$351 29 24 167 41 139 49 49 29 sky130_fd_sc_hd__dfrtp_1
* cell instance $355 r0 *1 29.9,13.6
X$355 29 24 104 41 190 49 49 29 sky130_fd_sc_hd__dfrtp_1
* cell instance $358 m0 *1 57.04,40.8
X$358 29 24 497 471 472 49 49 29 sky130_fd_sc_hd__dfrtp_4
* cell instance $363 r0 *1 61.18,111.52
X$363 29 24 1462 1298 1532 49 49 29 sky130_fd_sc_hd__dfrtp_1
* cell instance $365 r0 *1 59.34,106.08
X$365 29 24 1421 1298 1440 49 49 29 sky130_fd_sc_hd__dfrtp_1
* cell instance $368 m0 *1 57.04,100.64
X$368 29 24 1357 1298 1358 49 49 29 sky130_fd_sc_hd__dfrtp_1
* cell instance $370 r0 *1 60.26,100.64
X$370 29 24 1355 1298 1335 49 49 29 sky130_fd_sc_hd__dfrtp_1
* cell instance $373 r0 *1 71.3,116.96
X$373 29 24 1579 1298 1577 49 49 29 sky130_fd_sc_hd__dfrtp_1
* cell instance $375 m0 *1 71.3,127.84
X$375 29 24 1644 1720 1713 49 49 29 sky130_fd_sc_hd__dfrtp_1
* cell instance $378 m0 *1 60.72,122.4
X$378 29 24 1533 1298 1658 49 49 29 sky130_fd_sc_hd__dfrtp_1
* cell instance $380 m0 *1 62.1,127.84
X$380 29 24 1427 1720 1690 49 49 29 sky130_fd_sc_hd__dfrtp_1
* cell instance $384 m0 *1 57.04,89.76
X$384 29 24 1154 754 1151 49 49 29 sky130_fd_sc_hd__dfrtp_1
* cell instance $387 r0 *1 52.44,84.32
X$387 29 24 1114 754 1153 49 49 29 sky130_fd_sc_hd__dfrtp_1
* cell instance $389 m0 *1 72.22,116.96
X$389 29 24 1543 1298 1599 49 49 29 sky130_fd_sc_hd__dfrtp_1
* cell instance $391 r0 *1 161.46,73.44
X$391 29 24 1037 47 1011 49 49 29 sky130_fd_sc_hd__dfrtp_1
* cell instance $393 r0 *1 32.66,8.16
X$393 29 46 24 49 49 29 sky130_fd_sc_hd__buf_16
* cell instance $408 m0 *1 115.46,46.24
X$408 49 27 49 29 29 sky130_fd_sc_hd__inv_6
* cell instance $410 m0 *1 118.68,46.24
X$410 29 509 27 49 49 29 sky130_fd_sc_hd__clkbuf_16
* cell instance $415 r0 *1 155.94,29.92
X$415 29 46 367 27 403 49 49 29 sky130_fd_sc_hd__edfxtp_1
* cell instance $418 r0 *1 153.64,13.6
X$418 29 46 126 27 102 49 49 29 sky130_fd_sc_hd__edfxtp_1
* cell instance $421 m0 *1 142.6,13.6
X$421 29 46 76 27 88 49 49 29 sky130_fd_sc_hd__edfxtp_1
* cell instance $424 r0 *1 128.34,8.16
X$424 29 46 62 27 80 49 49 29 sky130_fd_sc_hd__edfxtp_1
* cell instance $550 m0 *1 42.32,8.16
X$550 29 46 54 41 42 49 49 29 sky130_fd_sc_hd__edfxtp_1
* cell instance $553 m0 *1 57.04,8.16
X$553 29 65 38 49 49 29 sky130_fd_sc_hd__dlymetal6s2s_1
* cell instance $554 m0 *1 72.22,8.16
X$554 29 46 43 31 68 49 49 29 sky130_fd_sc_hd__edfxtp_1
* cell instance $566 m0 *1 114.54,8.16
X$566 29 46 35 37 66 49 49 29 sky130_fd_sc_hd__edfxtp_1
* cell instance $568 m0 *1 127.42,8.16
X$568 29 46 48 47 63 49 49 29 sky130_fd_sc_hd__edfxtp_1
* cell instance $596 r0 *1 53.36,8.16
X$596 29 77 39 49 49 29 sky130_fd_sc_hd__dlymetal6s2s_1
* cell instance $597 r0 *1 59.34,8.16
X$597 29 46 32 41 70 49 49 29 sky130_fd_sc_hd__edfxtp_1
* cell instance $603 r0 *1 81.88,8.16
X$603 29 46 44 31 81 49 49 29 sky130_fd_sc_hd__edfxtp_1
* cell instance $632 m0 *1 18.4,13.6
X$632 49 83 49 29 103 29 sky130_fd_sc_hd__inv_1
* cell instance $644 m0 *1 66.24,13.6
X$644 29 46 79 31 85 49 49 29 sky130_fd_sc_hd__edfxtp_1
* cell instance $655 m0 *1 90.62,13.6
X$655 29 46 82 37 109 49 49 29 sky130_fd_sc_hd__edfxtp_1
* cell instance $658 m0 *1 101.66,13.6
X$658 29 86 71 73 49 94 49 29 sky130_fd_sc_hd__mux2i_2
* cell instance $659 m0 *1 106.72,13.6
X$659 29 86 73 91 49 152 49 29 sky130_fd_sc_hd__mux2i_2
* cell instance $663 m0 *1 113.62,13.6
X$663 29 107 71 98 86 49 49 29 sky130_fd_sc_hd__mux2_1
* cell instance $670 m0 *1 129.26,13.6
X$670 49 90 72 89 49 80 29 29 sky130_fd_sc_hd__o21ai_0
* cell instance $671 m0 *1 131.1,13.6
X$671 49 73 87 89 49 29 29 sky130_fd_sc_hd__nand2_1
* cell instance $685 m0 *1 169.28,13.6
X$685 49 74 75 29 49 29 sky130_fd_sc_hd__clkbuf_1
* cell instance $689 r0 *1 9.66,13.6
X$689 49 93 124 123 92 49 29 125 29 sky130_fd_sc_hd__o31ai_1
* cell instance $690 r0 *1 12.42,13.6
X$690 49 92 93 111 49 127 29 29 sky130_fd_sc_hd__o21a_1
* cell instance $693 r0 *1 15.64,13.6
X$693 29 111 93 103 110 49 49 29 sky130_fd_sc_hd__ha_1
* cell instance $694 r0 *1 20.24,13.6
X$694 29 92 129 112 130 49 49 29 sky130_fd_sc_hd__ha_2
* cell instance $695 r0 *1 25.76,13.6
X$695 49 113 49 29 130 29 sky130_fd_sc_hd__inv_1
* cell instance $704 r0 *1 48.3,13.6
X$704 49 105 29 114 49 29 sky130_fd_sc_hd__buf_2
* cell instance $705 r0 *1 50.14,13.6
X$705 29 46 78 31 106 49 49 29 sky130_fd_sc_hd__edfxtp_1
* cell instance $707 r0 *1 63.02,13.6
X$707 49 115 195 169 49 106 29 29 sky130_fd_sc_hd__o21ai_0
* cell instance $710 r0 *1 67.16,13.6
X$710 49 137 117 136 49 29 29 sky130_fd_sc_hd__nand2_1
* cell instance $717 r0 *1 80.04,13.6
X$717 29 46 69 31 108 49 49 29 sky130_fd_sc_hd__edfxtp_1
* cell instance $724 r0 *1 98.44,13.6
X$724 49 95 118 94 200 29 49 29 sky130_fd_sc_hd__nor3_1
* cell instance $726 r0 *1 100.74,13.6
X$726 49 95 94 96 49 29 29 sky130_fd_sc_hd__nand2_1
* cell instance $727 r0 *1 102.12,13.6
X$727 29 96 121 132 97 119 197 49 49 29 sky130_fd_sc_hd__o2111ai_4
* cell instance $730 r0 *1 114.08,13.6
X$730 49 86 98 49 121 29 29 sky130_fd_sc_hd__and2_2
* cell instance $737 r0 *1 126.04,13.6
X$737 49 90 134 133 49 66 29 29 sky130_fd_sc_hd__o21ai_0
* cell instance $739 r0 *1 129.72,13.6
X$739 49 71 87 133 49 29 29 sky130_fd_sc_hd__nand2_1
* cell instance $742 r0 *1 132.48,13.6
X$742 49 90 163 131 49 63 29 29 sky130_fd_sc_hd__o21ai_0
* cell instance $743 r0 *1 134.32,13.6
X$743 49 99 87 131 49 29 29 sky130_fd_sc_hd__nand2_1
* cell instance $747 r0 *1 142.14,13.6
X$747 49 90 162 128 49 88 29 29 sky130_fd_sc_hd__o21ai_0
* cell instance $748 r0 *1 143.98,13.6
X$748 49 91 87 128 49 29 29 sky130_fd_sc_hd__nand2_1
* cell instance $756 r0 *1 166.06,13.6
X$756 49 100 122 29 49 29 sky130_fd_sc_hd__clkbuf_1
* cell instance $773 m0 *1 3.22,19.04
X$773 29 213 170 49 49 29 sky130_fd_sc_hd__buf_6
* cell instance $777 m0 *1 10.58,19.04
X$777 49 92 93 124 123 216 49 29 29 sky130_fd_sc_hd__or4_1
* cell instance $779 m0 *1 15.18,19.04
X$779 49 171 93 170 172 49 187 29 29 sky130_fd_sc_hd__a211o_1
* cell instance $780 m0 *1 18.4,19.04
X$780 49 110 49 29 138 29 sky130_fd_sc_hd__inv_1
* cell instance $783 m0 *1 22.54,19.04
X$783 29 2236 164 113 165 49 49 29 sky130_fd_sc_hd__ha_1
* cell instance $784 m0 *1 27.14,19.04
X$784 49 138 189 166 49 139 29 29 sky130_fd_sc_hd__o21ai_0
* cell instance $786 m0 *1 29.44,19.04
X$786 49 83 173 166 49 29 29 sky130_fd_sc_hd__nand2_1
* cell instance $788 m0 *1 53.36,19.04
X$788 49 141 140 194 49 29 29 sky130_fd_sc_hd__nand2_1
* cell instance $791 m0 *1 57.04,19.04
X$791 49 147 142 143 266 29 140 49 29 sky130_fd_sc_hd__a22o_1
* cell instance $793 m0 *1 60.72,19.04
X$793 49 261 114 49 144 29 29 sky130_fd_sc_hd__xor2_1
* cell instance $794 m0 *1 63.94,19.04
X$794 49 116 144 146 49 169 29 29 sky130_fd_sc_hd__o21ai_0
* cell instance $796 m0 *1 66.24,19.04
X$796 49 116 145 146 49 229 29 29 sky130_fd_sc_hd__o21ai_0
* cell instance $797 m0 *1 68.08,19.04
X$797 49 137 135 145 29 49 29 sky130_fd_sc_hd__nor2_1
* cell instance $798 m0 *1 69.46,19.04
X$798 49 147 174 231 49 29 29 sky130_fd_sc_hd__nand2_1
* cell instance $800 m0 *1 71.76,19.04
X$800 29 68 175 115 148 232 176 49 49 29 sky130_fd_sc_hd__o311ai_1
* cell instance $801 m0 *1 74.98,19.04
X$801 49 116 258 146 49 176 29 29 sky130_fd_sc_hd__o21ai_0
* cell instance $803 m0 *1 78.66,19.04
X$803 49 184 149 168 29 49 29 sky130_fd_sc_hd__nor2_1
* cell instance $804 m0 *1 80.04,19.04
X$804 49 168 150 198 29 49 29 sky130_fd_sc_hd__or2_0
* cell instance $805 m0 *1 82.34,19.04
X$805 49 198 29 115 49 29 sky130_fd_sc_hd__buf_2
* cell instance $807 m0 *1 84.64,19.04
X$807 49 114 141 199 29 49 29 sky130_fd_sc_hd__nor2_1
* cell instance $809 m0 *1 86.94,19.04
X$809 49 199 49 29 202 29 sky130_fd_sc_hd__clkinvlp_4
* cell instance $812 m0 *1 95.22,19.04
X$812 49 151 29 95 49 29 sky130_fd_sc_hd__buf_2
* cell instance $813 m0 *1 97.06,19.04
X$813 49 179 200 119 29 154 49 29 sky130_fd_sc_hd__o21ai_2
* cell instance $814 m0 *1 100.28,19.04
X$814 49 96 118 119 121 95 49 201 29 29 sky130_fd_sc_hd__o2111ai_1
* cell instance $818 m0 *1 106.72,19.04
X$818 49 151 29 120 49 29 sky130_fd_sc_hd__buf_2
* cell instance $819 m0 *1 108.56,19.04
X$819 49 151 29 197 49 29 sky130_fd_sc_hd__clkbuf_4
* cell instance $822 m0 *1 112.24,19.04
X$822 49 120 152 153 49 29 29 sky130_fd_sc_hd__nand2_1
* cell instance $824 m0 *1 114.08,19.04
X$824 49 120 107 153 49 196 29 29 sky130_fd_sc_hd__o21ai_0
* cell instance $830 m0 *1 128.34,19.04
X$830 49 143 29 87 49 29 sky130_fd_sc_hd__clkbuf_4
* cell instance $831 m0 *1 131.1,19.04
X$831 49 193 71 156 29 49 72 29 sky130_fd_sc_hd__a21oi_1
* cell instance $833 m0 *1 133.4,19.04
X$833 49 155 254 193 29 49 29 sky130_fd_sc_hd__nor2_1
* cell instance $835 m0 *1 135.7,19.04
X$835 49 192 91 156 29 49 163 29 sky130_fd_sc_hd__a21oi_1
* cell instance $839 m0 *1 140.76,19.04
X$839 49 184 29 157 49 29 sky130_fd_sc_hd__clkbuf_4
* cell instance $840 m0 *1 143.52,19.04
X$840 49 191 73 156 29 49 162 29 sky130_fd_sc_hd__a21oi_1
* cell instance $842 m0 *1 146.28,19.04
X$842 49 149 29 158 49 29 sky130_fd_sc_hd__clkbuf_4
* cell instance $844 m0 *1 149.5,19.04
X$844 49 156 90 158 60 29 49 29 sky130_fd_sc_hd__nor3_1
* cell instance $845 m0 *1 151.34,19.04
X$845 49 188 99 156 29 49 159 29 sky130_fd_sc_hd__a21oi_1
* cell instance $846 m0 *1 153.18,19.04
X$846 49 90 159 161 49 102 29 29 sky130_fd_sc_hd__o21ai_0
* cell instance $848 m0 *1 155.48,19.04
X$848 49 160 87 161 49 29 29 sky130_fd_sc_hd__nand2_1
* cell instance $854 r0 *1 1.38,19.04
X$854 49 235 110 29 49 29 sky130_fd_sc_hd__clkbuf_1
* cell instance $855 r0 *1 2.76,19.04
X$855 29 213 171 236 250 49 49 29 sky130_fd_sc_hd__ha_2
* cell instance $856 r0 *1 8.28,19.04
X$856 49 171 213 172 29 49 186 29 sky130_fd_sc_hd__a21oi_1
* cell instance $857 r0 *1 10.12,19.04
X$857 49 265 186 218 29 49 123 29 sky130_fd_sc_hd__a21oi_1
* cell instance $858 r0 *1 11.96,19.04
X$858 49 285 286 125 216 49 217 29 29 sky130_fd_sc_hd__a211o_1
* cell instance $864 r0 *1 16.56,19.04
X$864 49 129 187 127 29 49 221 29 sky130_fd_sc_hd__a21oi_1
* cell instance $865 r0 *1 18.4,19.04
X$865 29 2285 332 83 138 49 49 29 sky130_fd_sc_hd__ha_1
* cell instance $867 r0 *1 23.92,19.04
X$867 49 112 49 29 165 29 sky130_fd_sc_hd__inv_1
* cell instance $869 r0 *1 25.76,19.04
X$869 29 2260 374 223 224 49 49 29 sky130_fd_sc_hd__ha_1
* cell instance $871 r0 *1 31.28,19.04
X$871 49 165 189 225 49 190 29 29 sky130_fd_sc_hd__o21ai_0
* cell instance $873 r0 *1 33.58,19.04
X$873 49 113 173 225 49 29 29 sky130_fd_sc_hd__nand2_1
* cell instance $884 r0 *1 54.28,19.04
X$884 29 42 141 115 142 194 260 49 49 29 sky130_fd_sc_hd__o311ai_2
* cell instance $885 r0 *1 60.26,19.04
X$885 49 228 114 195 49 29 29 sky130_fd_sc_hd__xnor2_1
* cell instance $886 r0 *1 63.48,19.04
X$886 49 203 174 228 29 49 29 sky130_fd_sc_hd__nor2_1
* cell instance $887 r0 *1 64.86,19.04
X$887 29 137 85 229 115 174 136 49 49 29 sky130_fd_sc_hd__o311ai_0
* cell instance $888 r0 *1 68.08,19.04
X$888 49 262 230 231 49 117 29 29 sky130_fd_sc_hd__o21ai_0
* cell instance $894 r0 *1 70.84,19.04
X$894 49 147 148 143 243 29 233 49 29 sky130_fd_sc_hd__a22o_1
* cell instance $895 r0 *1 74.06,19.04
X$895 49 114 298 203 177 49 29 29 sky130_fd_sc_hd__or3_1
* cell instance $897 r0 *1 76.82,19.04
X$897 49 177 29 149 49 29 sky130_fd_sc_hd__clkbuf_4
* cell instance $898 r0 *1 79.58,19.04
X$898 49 150 168 147 29 49 29 sky130_fd_sc_hd__nor2_1
* cell instance $900 r0 *1 81.88,19.04
X$900 49 204 114 141 205 49 29 29 sky130_fd_sc_hd__or3b_1
* cell instance $902 r0 *1 86.02,19.04
X$902 49 175 299 205 29 49 245 29 sky130_fd_sc_hd__a21oi_1
* cell instance $903 r0 *1 87.86,19.04
X$903 29 175 209 202 204 49 49 29 sky130_fd_sc_hd__nor3_4
* cell instance $905 r0 *1 94.76,19.04
X$905 49 118 208 178 29 49 29 sky130_fd_sc_hd__nor2_1
* cell instance $909 r0 *1 96.14,19.04
X$909 49 206 256 178 179 29 49 29 sky130_fd_sc_hd__nor3_1
* cell instance $912 r0 *1 98.9,19.04
X$912 49 121 207 256 29 49 29 sky130_fd_sc_hd__nor2_1
* cell instance $913 r0 *1 100.28,19.04
X$913 49 207 49 29 97 29 sky130_fd_sc_hd__buf_4
* cell instance $915 r0 *1 103.5,19.04
X$915 49 120 208 180 49 29 29 sky130_fd_sc_hd__nand2_1
* cell instance $917 r0 *1 105.34,19.04
X$917 49 120 180 94 49 29 564 29 sky130_fd_sc_hd__o21ai_1