* CDL Netlist generated by OpenROAD

*.BUSDELIMITER [

.SUBCKT ibex_core alert_major_o alert_minor_o boot_addr_i[0]
+ boot_addr_i[10] boot_addr_i[11] boot_addr_i[12] boot_addr_i[13]
+ boot_addr_i[14] boot_addr_i[15] boot_addr_i[16] boot_addr_i[17]
+ boot_addr_i[18] boot_addr_i[19] boot_addr_i[1] boot_addr_i[20]
+ boot_addr_i[21] boot_addr_i[22] boot_addr_i[23] boot_addr_i[24]
+ boot_addr_i[25] boot_addr_i[26] boot_addr_i[27] boot_addr_i[28]
+ boot_addr_i[29] boot_addr_i[2] boot_addr_i[30] boot_addr_i[31]
+ boot_addr_i[3] boot_addr_i[4] boot_addr_i[5] boot_addr_i[6]
+ boot_addr_i[7] boot_addr_i[8] boot_addr_i[9] clk_i core_sleep_o
+ data_addr_o[0] data_addr_o[10] data_addr_o[11] data_addr_o[12]
+ data_addr_o[13] data_addr_o[14] data_addr_o[15] data_addr_o[16]
+ data_addr_o[17] data_addr_o[18] data_addr_o[19] data_addr_o[1]
+ data_addr_o[20] data_addr_o[21] data_addr_o[22] data_addr_o[23]
+ data_addr_o[24] data_addr_o[25] data_addr_o[26] data_addr_o[27]
+ data_addr_o[28] data_addr_o[29] data_addr_o[2] data_addr_o[30]
+ data_addr_o[31] data_addr_o[3] data_addr_o[4] data_addr_o[5]
+ data_addr_o[6] data_addr_o[7] data_addr_o[8] data_addr_o[9]
+ data_be_o[0] data_be_o[1] data_be_o[2] data_be_o[3] data_err_i
+ data_gnt_i data_rdata_i[0] data_rdata_i[10] data_rdata_i[11]
+ data_rdata_i[12] data_rdata_i[13] data_rdata_i[14] data_rdata_i[15]
+ data_rdata_i[16] data_rdata_i[17] data_rdata_i[18] data_rdata_i[19]
+ data_rdata_i[1] data_rdata_i[20] data_rdata_i[21] data_rdata_i[22]
+ data_rdata_i[23] data_rdata_i[24] data_rdata_i[25] data_rdata_i[26]
+ data_rdata_i[27] data_rdata_i[28] data_rdata_i[29] data_rdata_i[2]
+ data_rdata_i[30] data_rdata_i[31] data_rdata_i[3] data_rdata_i[4]
+ data_rdata_i[5] data_rdata_i[6] data_rdata_i[7] data_rdata_i[8]
+ data_rdata_i[9] data_req_o data_rvalid_i data_wdata_o[0] data_wdata_o[10]
+ data_wdata_o[11] data_wdata_o[12] data_wdata_o[13] data_wdata_o[14]
+ data_wdata_o[15] data_wdata_o[16] data_wdata_o[17] data_wdata_o[18]
+ data_wdata_o[19] data_wdata_o[1] data_wdata_o[20] data_wdata_o[21]
+ data_wdata_o[22] data_wdata_o[23] data_wdata_o[24] data_wdata_o[25]
+ data_wdata_o[26] data_wdata_o[27] data_wdata_o[28] data_wdata_o[29]
+ data_wdata_o[2] data_wdata_o[30] data_wdata_o[31] data_wdata_o[3]
+ data_wdata_o[4] data_wdata_o[5] data_wdata_o[6] data_wdata_o[7]
+ data_wdata_o[8] data_wdata_o[9] data_we_o debug_req_i fetch_enable_i
+ hart_id_i[0] hart_id_i[10] hart_id_i[11] hart_id_i[12] hart_id_i[13]
+ hart_id_i[14] hart_id_i[15] hart_id_i[16] hart_id_i[17] hart_id_i[18]
+ hart_id_i[19] hart_id_i[1] hart_id_i[20] hart_id_i[21] hart_id_i[22]
+ hart_id_i[23] hart_id_i[24] hart_id_i[25] hart_id_i[26] hart_id_i[27]
+ hart_id_i[28] hart_id_i[29] hart_id_i[2] hart_id_i[30] hart_id_i[31]
+ hart_id_i[3] hart_id_i[4] hart_id_i[5] hart_id_i[6] hart_id_i[7]
+ hart_id_i[8] hart_id_i[9] instr_addr_o[0] instr_addr_o[10]
+ instr_addr_o[11] instr_addr_o[12] instr_addr_o[13] instr_addr_o[14]
+ instr_addr_o[15] instr_addr_o[16] instr_addr_o[17] instr_addr_o[18]
+ instr_addr_o[19] instr_addr_o[1] instr_addr_o[20] instr_addr_o[21]
+ instr_addr_o[22] instr_addr_o[23] instr_addr_o[24] instr_addr_o[25]
+ instr_addr_o[26] instr_addr_o[27] instr_addr_o[28] instr_addr_o[29]
+ instr_addr_o[2] instr_addr_o[30] instr_addr_o[31] instr_addr_o[3]
+ instr_addr_o[4] instr_addr_o[5] instr_addr_o[6] instr_addr_o[7]
+ instr_addr_o[8] instr_addr_o[9] instr_err_i instr_gnt_i instr_rdata_i[0]
+ instr_rdata_i[10] instr_rdata_i[11] instr_rdata_i[12] instr_rdata_i[13]
+ instr_rdata_i[14] instr_rdata_i[15] instr_rdata_i[16] instr_rdata_i[17]
+ instr_rdata_i[18] instr_rdata_i[19] instr_rdata_i[1] instr_rdata_i[20]
+ instr_rdata_i[21] instr_rdata_i[22] instr_rdata_i[23] instr_rdata_i[24]
+ instr_rdata_i[25] instr_rdata_i[26] instr_rdata_i[27] instr_rdata_i[28]
+ instr_rdata_i[29] instr_rdata_i[2] instr_rdata_i[30] instr_rdata_i[31]
+ instr_rdata_i[3] instr_rdata_i[4] instr_rdata_i[5] instr_rdata_i[6]
+ instr_rdata_i[7] instr_rdata_i[8] instr_rdata_i[9] instr_req_o
+ instr_rvalid_i irq_external_i irq_fast_i[0] irq_fast_i[10]
+ irq_fast_i[11] irq_fast_i[12] irq_fast_i[13] irq_fast_i[14]
+ irq_fast_i[1] irq_fast_i[2] irq_fast_i[3] irq_fast_i[4] irq_fast_i[5]
+ irq_fast_i[6] irq_fast_i[7] irq_fast_i[8] irq_fast_i[9] irq_nm_i
+ irq_software_i irq_timer_i rst_ni test_en_i
X_13505_ _06633_ _06634_ VSS VSS VDD VDD _01505_ sky130_fd_sc_hd__nand2_1
X_13506_ _11156_ VSS VSS VDD VDD _06635_ sky130_fd_sc_hd__inv_1
X_13507_ id_stage_i.controller_i.ctrl_fsm_cs\[0\] id_stage_i.controller_i.ctrl_fsm_cs\[1\]
+ _11158_ VSS VSS VDD VDD _06636_ sky130_fd_sc_hd__nor3_1
X_13508_ _06635_ _06636_ id_stage_i.controller_i.ctrl_fsm_cs\[3\]
+ VSS VSS VDD VDD _06637_ sky130_fd_sc_hd__a21oi_1
X_13509_ id_stage_i.controller_i.ctrl_fsm_cs\[1\] id_stage_i.controller_i.ctrl_fsm_cs\[2\]
+ id_stage_i.controller_i.ctrl_fsm_cs\[3\] VSS VSS VDD VDD _06638_
+ sky130_fd_sc_hd__o21ai_0
X_13510_ _10946_ _11162_ _11201_ _06638_ VSS VSS VDD VDD _06639_
+ sky130_fd_sc_hd__nor4b_1
XTAP_TAPCELL_ROW_63_1296 VSS VDD sky130_fd_sc_hd__tapvpwrvgnd_1
XTAP_TAPCELL_ROW_63_1295 VSS VDD sky130_fd_sc_hd__tapvpwrvgnd_1
X_13513_ _08107_ _11155_ VSS VSS VDD VDD _06642_ sky130_fd_sc_hd__nand2_1
X_13514_ _11158_ _11200_ _06642_ VSS VSS VDD VDD _06643_ sky130_fd_sc_hd__a21oi_1
X_13515_ id_stage_i.controller_i.ctrl_fsm_cs\[1\] _11158_
+ id_stage_i.controller_i.ctrl_fsm_cs\[2\] VSS VSS VDD VDD _06644_
+ sky130_fd_sc_hd__o21ai_0
X_13516_ id_stage_i.controller_i.ctrl_fsm_cs\[0\] id_stage_i.controller_i.ctrl_fsm_cs\[1\]
+ id_stage_i.controller_i.ctrl_fsm_cs\[2\] VSS VSS VDD VDD _06645_
+ sky130_fd_sc_hd__and3_1
X_13517_ _08104_ _06644_ _06645_ VSS VSS VDD VDD _06646_ sky130_fd_sc_hd__a21oi_1
X_13518_ _11007_ _11030_ VSS VSS VDD VDD _06647_ sky130_fd_sc_hd__nand2_1
X_13519_ _08104_ _06647_ cs_registers_i.debug_mode_i _11162_
+ VSS VSS VDD VDD _06648_ sky130_fd_sc_hd__or4b_1
X_13520_ _12466_ _11002_ _11158_ VSS VSS VDD VDD _06649_ sky130_fd_sc_hd__o21ai_1
X_13521_ _10946_ _06649_ VSS VSS VDD VDD _06650_ sky130_fd_sc_hd__and2_0
X_13522_ _11143_ _10996_ _06650_ VSS VSS VDD VDD _06651_ sky130_fd_sc_hd__o21ai_1
X_13523_ id_stage_i.controller_i.ctrl_fsm_cs\[3\] _06646_
+ _06648_ _06651_ _11009_ VSS VSS VDD VDD _06652_ sky130_fd_sc_hd__o2111ai_1
X_13524_ _11008_ _06637_ _06639_ _06643_ _06652_ VSS VSS VDD
+ VDD _01506_ sky130_fd_sc_hd__o32a_1
X_13525_ cs_registers_i.debug_mode_i _11157_ VSS VSS VDD VDD
+ _06653_ sky130_fd_sc_hd__or2_0
X_13526_ _08107_ _11156_ _06653_ _11200_ VSS VSS VDD VDD _06654_
+ sky130_fd_sc_hd__nand4_1
X_13527_ _11154_ _06635_ _11143_ VSS VSS VDD VDD _06655_ sky130_fd_sc_hd__o21ai_0
X_13528_ _10996_ _06650_ VSS VSS VDD VDD _06656_ sky130_fd_sc_hd__nor2b_1
X_13529_ _11037_ _11155_ VSS VSS VDD VDD _06657_ sky130_fd_sc_hd__nor2_1
X_13530_ _11036_ _11156_ _06653_ _11162_ VSS VSS VDD VDD _06658_
+ sky130_fd_sc_hd__a31oi_1
X_13531_ id_stage_i.controller_i.ctrl_fsm_cs\[0\] _06658_
+ _06648_ VSS VSS VDD VDD _06659_ sky130_fd_sc_hd__o21ai_0
X_13532_ _06655_ _06656_ _06657_ _06659_ VSS VSS VDD VDD _06660_
+ sky130_fd_sc_hd__a211oi_1
X_13533_ _06654_ _06660_ VSS VSS VDD VDD _01507_ sky130_fd_sc_hd__nand2_1
X_13534_ _11155_ _11158_ _11200_ _11037_ VSS VSS VDD VDD _06661_
+ sky130_fd_sc_hd__a31oi_1
X_13535_ id_stage_i.controller_i.ctrl_fsm_cs\[0\] _08106_
+ _11158_ VSS VSS VDD VDD _06662_ sky130_fd_sc_hd__nor3_1
X_13536_ id_stage_i.controller_i.ctrl_fsm_cs\[3\] _11161_
+ _06662_ VSS VSS VDD VDD _06663_ sky130_fd_sc_hd__a21oi_1
X_13537_ _10944_ _11008_ id_stage_i.controller_i.ctrl_fsm_cs\[0\]
+ VSS VSS VDD VDD _06664_ sky130_fd_sc_hd__o21ai_0
X_13538_ id_stage_i.controller_i.ctrl_fsm_cs\[1\] _06663_
+ _06664_ VSS VSS VDD VDD _06665_ sky130_fd_sc_hd__o21ai_0
X_13539_ _11003_ _06651_ VSS VSS VDD VDD _06666_ sky130_fd_sc_hd__nor2_1
X_13540_ _06661_ _06665_ _06666_ _06638_ _06648_ VSS VSS VDD
+ VDD _01508_ sky130_fd_sc_hd__o311a_1
X_13541_ _11155_ _11200_ VSS VSS VDD VDD _06667_ sky130_fd_sc_hd__nand2_1
X_13542_ _11003_ _06649_ VSS VSS VDD VDD _06668_ sky130_fd_sc_hd__nand2b_1
X_13543_ _11036_ _11158_ _06668_ _10946_ VSS VSS VDD VDD _06669_
+ sky130_fd_sc_hd__a22oi_1
X_13544_ id_stage_i.controller_i.ctrl_fsm_cs\[0\] _06667_
+ _06669_ VSS VSS VDD VDD _01509_ sky130_fd_sc_hd__a21oi_1
X_13545_ _10946_ _10935_ _10995_ _11142_ VSS VSS VDD VDD _06670_
+ sky130_fd_sc_hd__nand4_1
X_13546_ cs_registers_i.debug_mode_i _06670_ VSS VSS VDD VDD
+ _06671_ sky130_fd_sc_hd__nand2_1
X_13547_ _11010_ _06671_ VSS VSS VDD VDD _01510_ sky130_fd_sc_hd__nand2_1
X_13548_ _11034_ _12711_ VSS VSS VDD VDD _06672_ sky130_fd_sc_hd__nand2_1
X_13549_ _11032_ _12455_ _06672_ VSS VSS VDD VDD _01511_ sky130_fd_sc_hd__o21ai_0
X_13550_ _08443_ _08440_ VSS VSS VDD VDD _06673_ sky130_fd_sc_hd__nand2_1
X_13551_ _06673_ _11197_ VSS VSS VDD VDD _06674_ sky130_fd_sc_hd__nor2_1
X_13552_ _08214_ _11193_ _06674_ VSS VSS VDD VDD _06675_ sky130_fd_sc_hd__nand3_1
X_13553_ _08269_ _06675_ id_stage_i.id_fsm_q VSS VSS VDD VDD
+ _06676_ sky130_fd_sc_hd__a21oi_1
X_13554_ _10849_ _11195_ _11197_ _08109_ _11194_ VSS VSS VDD
+ VDD _06677_ sky130_fd_sc_hd__a2111oi_0
X_13555_ _06676_ _06677_ VSS VSS VDD VDD _01512_ sky130_fd_sc_hd__nor2_1
XTAP_TAPCELL_ROW_63_1294 VSS VDD sky130_fd_sc_hd__tapvpwrvgnd_1
XTAP_TAPCELL_ROW_63_1293 VSS VDD sky130_fd_sc_hd__tapvpwrvgnd_1
X_13558_ _08948_ _03369_ VSS VSS VDD VDD _06680_ sky130_fd_sc_hd__nor2_1
X_13559_ _10968_ _03369_ _06680_ VSS VSS VDD VDD _06681_ sky130_fd_sc_hd__a21oi_1
X_13560_ ex_block_i.alu_i.g_no_alu_rvb.unused_imd_val_q\[0\]
+ _10952_ VSS VSS VDD VDD _06682_ sky130_fd_sc_hd__nand2_1
X_13561_ _10952_ _06681_ _06682_ VSS VSS VDD VDD _01513_ sky130_fd_sc_hd__o21ai_0
X_13562_ _09413_ net151 _03369_ VSS VSS VDD VDD _06683_ sky130_fd_sc_hd__mux2i_1
X_13563_ ex_block_i.alu_i.g_no_alu_rvb.unused_imd_val_q\[10\]
+ _10952_ VSS VSS VDD VDD _06684_ sky130_fd_sc_hd__nand2_1
X_13564_ _10952_ _06683_ _06684_ VSS VSS VDD VDD _01514_ sky130_fd_sc_hd__o21ai_0
X_13565_ _03378_ _10721_ VSS VSS VDD VDD _06685_ sky130_fd_sc_hd__nand2b_4
XTAP_TAPCELL_ROW_63_1292 VSS VDD sky130_fd_sc_hd__tapvpwrvgnd_1
XTAP_TAPCELL_ROW_63_1291 VSS VDD sky130_fd_sc_hd__tapvpwrvgnd_1
XTAP_TAPCELL_ROW_63_1290 VSS VDD sky130_fd_sc_hd__tapvpwrvgnd_1
X_13569_ net307 net301 VSS VSS VDD VDD _06689_ sky130_fd_sc_hd__nand2_1
X_13570_ net152 _06685_ _06689_ VSS VSS VDD VDD _06690_ sky130_fd_sc_hd__o21ai_0
X_13571_ ex_block_i.alu_i.g_no_alu_rvb.unused_imd_val_q\[11\]
+ _10952_ VSS VSS VDD VDD _06691_ sky130_fd_sc_hd__nand2_1
X_13572_ _10952_ _06690_ _06691_ VSS VSS VDD VDD _01515_ sky130_fd_sc_hd__o21ai_0
X_13573_ net153 _09524_ _06685_ VSS VSS VDD VDD _06692_ sky130_fd_sc_hd__mux2i_1
X_13574_ ex_block_i.alu_i.g_no_alu_rvb.unused_imd_val_q\[12\]
+ _10952_ VSS VSS VDD VDD _06693_ sky130_fd_sc_hd__nand2_1
X_13575_ _10952_ _06692_ _06693_ VSS VSS VDD VDD _01516_ sky130_fd_sc_hd__o21ai_0
X_13576_ _09486_ net1207 VSS VSS VDD VDD _06694_ sky130_fd_sc_hd__nand2_1
X_13577_ net154 _06685_ _06694_ VSS VSS VDD VDD _06695_ sky130_fd_sc_hd__o21ai_0
X_13578_ ex_block_i.alu_i.g_no_alu_rvb.unused_imd_val_q\[13\]
+ _10952_ VSS VSS VDD VDD _06696_ sky130_fd_sc_hd__nand2_1
X_13579_ _10952_ _06695_ _06696_ VSS VSS VDD VDD _01517_ sky130_fd_sc_hd__o21ai_0
X_13580_ net155 _09606_ _06685_ VSS VSS VDD VDD _06697_ sky130_fd_sc_hd__mux2i_1
X_13581_ ex_block_i.alu_i.g_no_alu_rvb.unused_imd_val_q\[14\]
+ _10952_ VSS VSS VDD VDD _06698_ sky130_fd_sc_hd__nand2_1
X_13582_ _10952_ _06697_ _06698_ VSS VSS VDD VDD _01518_ sky130_fd_sc_hd__o21ai_0
X_13583_ net721 net979 _06685_ VSS VSS VDD VDD _06699_ sky130_fd_sc_hd__mux2i_1
X_13584_ ex_block_i.alu_i.g_no_alu_rvb.unused_imd_val_q\[15\]
+ _10952_ VSS VSS VDD VDD _06700_ sky130_fd_sc_hd__nand2_1
X_13585_ _10952_ _06699_ _06700_ VSS VSS VDD VDD _01519_ sky130_fd_sc_hd__o21ai_0
XTAP_TAPCELL_ROW_63_1289 VSS VDD sky130_fd_sc_hd__tapvpwrvgnd_1
XTAP_TAPCELL_ROW_63_1288 VSS VDD sky130_fd_sc_hd__tapvpwrvgnd_1
X_13588_ _09856_ net1207 VSS VSS VDD VDD _06703_ sky130_fd_sc_hd__nand2_1
X_13589_ net157 _06685_ _06703_ VSS VSS VDD VDD _06704_ sky130_fd_sc_hd__o21ai_0
X_13590_ ex_block_i.alu_i.g_no_alu_rvb.unused_imd_val_q\[16\]
+ _10952_ VSS VSS VDD VDD _06705_ sky130_fd_sc_hd__nand2_1
X_13591_ _10952_ _06704_ _06705_ VSS VSS VDD VDD _01520_ sky130_fd_sc_hd__o21ai_0
X_13592_ _09784_ _03369_ VSS VSS VDD VDD _06706_ sky130_fd_sc_hd__nor2_1
X_13593_ net158 net1207 VSS VSS VDD VDD _06707_ sky130_fd_sc_hd__nor2_1
X_13594_ ex_block_i.alu_i.g_no_alu_rvb.unused_imd_val_q\[17\]
+ _10952_ VSS VSS VDD VDD _06708_ sky130_fd_sc_hd__nand2_1
X_13595_ _10952_ _06706_ _06707_ _06708_ VSS VSS VDD VDD _01521_
+ sky130_fd_sc_hd__o31ai_1
X_13596_ net305 net1207 VSS VSS VDD VDD _06709_ sky130_fd_sc_hd__nand2_1
X_13597_ net159 _06685_ _06709_ VSS VSS VDD VDD _06710_ sky130_fd_sc_hd__o21ai_0
XTAP_TAPCELL_ROW_63_1287 VSS VDD sky130_fd_sc_hd__tapvpwrvgnd_1
X_13599_ ex_block_i.alu_i.g_no_alu_rvb.unused_imd_val_q\[18\]
+ _10952_ VSS VSS VDD VDD _06712_ sky130_fd_sc_hd__nand2_1
X_13600_ _10952_ _06710_ _06712_ VSS VSS VDD VDD _01522_ sky130_fd_sc_hd__o21ai_0
X_13601_ net304 net1207 VSS VSS VDD VDD _06713_ sky130_fd_sc_hd__nand2_1
X_13602_ net160 _06685_ _06713_ VSS VSS VDD VDD _06714_ sky130_fd_sc_hd__o21ai_0
X_13603_ ex_block_i.alu_i.g_no_alu_rvb.unused_imd_val_q\[19\]
+ _10952_ VSS VSS VDD VDD _06715_ sky130_fd_sc_hd__nand2_1
X_13604_ _10952_ _06714_ _06715_ VSS VSS VDD VDD _01523_ sky130_fd_sc_hd__o21ai_0
XTAP_TAPCELL_ROW_63_1286 VSS VDD sky130_fd_sc_hd__tapvpwrvgnd_1
X_13606_ net699 _03369_ VSS VSS VDD VDD _06717_ sky130_fd_sc_hd__nor2_1
X_13607_ net287 _03369_ _06717_ VSS VSS VDD VDD _06718_ sky130_fd_sc_hd__a21oi_1
X_13608_ ex_block_i.alu_i.g_no_alu_rvb.unused_imd_val_q\[1\]
+ _10952_ VSS VSS VDD VDD _06719_ sky130_fd_sc_hd__nand2_1
X_13609_ _10952_ _06718_ _06719_ VSS VSS VDD VDD _01524_ sky130_fd_sc_hd__o21ai_0
X_13610_ net1007 _10040_ _06685_ VSS VSS VDD VDD _06720_ sky130_fd_sc_hd__mux2i_1
X_13611_ ex_block_i.alu_i.g_no_alu_rvb.unused_imd_val_q\[20\]
+ _10952_ VSS VSS VDD VDD _06721_ sky130_fd_sc_hd__nand2_1
X_13612_ _10952_ _06720_ _06721_ VSS VSS VDD VDD _01525_ sky130_fd_sc_hd__o21ai_0
X_13613_ net162 _10110_ _06685_ VSS VSS VDD VDD _06722_ sky130_fd_sc_hd__mux2i_1
X_13614_ ex_block_i.alu_i.g_no_alu_rvb.unused_imd_val_q\[21\]
+ _10952_ VSS VSS VDD VDD _06723_ sky130_fd_sc_hd__nand2_1
X_13615_ _10952_ _06722_ _06723_ VSS VSS VDD VDD _01526_ sky130_fd_sc_hd__o21ai_0
X_13616_ net1547 _10202_ _06685_ VSS VSS VDD VDD _06724_ sky130_fd_sc_hd__mux2i_1
X_13617_ ex_block_i.alu_i.g_no_alu_rvb.unused_imd_val_q\[22\]
+ _10952_ VSS VSS VDD VDD _06725_ sky130_fd_sc_hd__nand2_1
X_13618_ _10952_ _06724_ _06725_ VSS VSS VDD VDD _01527_ sky130_fd_sc_hd__o21ai_0
X_13619_ net1245 _10259_ _06685_ VSS VSS VDD VDD _06726_ sky130_fd_sc_hd__mux2i_1
X_13620_ ex_block_i.alu_i.g_no_alu_rvb.unused_imd_val_q\[23\]
+ _10952_ VSS VSS VDD VDD _06727_ sky130_fd_sc_hd__nand2_1
X_13621_ _10952_ _06726_ _06727_ VSS VSS VDD VDD _01528_ sky130_fd_sc_hd__o21ai_0
X_13622_ net1212 _03369_ VSS VSS VDD VDD _06728_ sky130_fd_sc_hd__nor2_1
X_13623_ net775 _03369_ _06728_ VSS VSS VDD VDD _06729_ sky130_fd_sc_hd__a21oi_1
X_13624_ ex_block_i.alu_i.g_no_alu_rvb.unused_imd_val_q\[24\]
+ _10952_ VSS VSS VDD VDD _06730_ sky130_fd_sc_hd__nand2_1
X_13625_ _10952_ _06729_ _06730_ VSS VSS VDD VDD _01529_ sky130_fd_sc_hd__o21ai_0
X_13626_ _10407_ net1207 VSS VSS VDD VDD _06731_ sky130_fd_sc_hd__nor2_1
X_13627_ _10332_ net1207 _06731_ VSS VSS VDD VDD _06732_ sky130_fd_sc_hd__a21oi_1
X_13628_ ex_block_i.alu_i.g_no_alu_rvb.unused_imd_val_q\[25\]
+ _10952_ VSS VSS VDD VDD _06733_ sky130_fd_sc_hd__nand2_1
X_13629_ _10952_ _06732_ _06733_ VSS VSS VDD VDD _01530_ sky130_fd_sc_hd__o21ai_0
XTAP_TAPCELL_ROW_63_1285 VSS VDD sky130_fd_sc_hd__tapvpwrvgnd_1
X_13631_ net1042 net301 VSS VSS VDD VDD _06735_ sky130_fd_sc_hd__nor2_1
X_13632_ _10437_ net301 _06735_ VSS VSS VDD VDD _06736_ sky130_fd_sc_hd__a21oi_1
X_13633_ ex_block_i.alu_i.g_no_alu_rvb.unused_imd_val_q\[26\]
+ _10952_ VSS VSS VDD VDD _06737_ sky130_fd_sc_hd__nand2_1
X_13634_ _10952_ _06736_ _06737_ VSS VSS VDD VDD _01531_ sky130_fd_sc_hd__o21ai_0
X_13635_ net168 _10522_ _06685_ VSS VSS VDD VDD _06738_ sky130_fd_sc_hd__mux2i_1
XTAP_TAPCELL_ROW_63_1284 VSS VDD sky130_fd_sc_hd__tapvpwrvgnd_1
X_13637_ ex_block_i.alu_i.g_no_alu_rvb.unused_imd_val_q\[27\]
+ _10952_ VSS VSS VDD VDD _06740_ sky130_fd_sc_hd__nand2_1
X_13638_ _10952_ _06738_ _06740_ VSS VSS VDD VDD _01532_ sky130_fd_sc_hd__o21ai_0
X_13639_ _10620_ _03369_ VSS VSS VDD VDD _06741_ sky130_fd_sc_hd__nor2_1
X_13640_ net169 _03369_ _06741_ VSS VSS VDD VDD _06742_ sky130_fd_sc_hd__a21oi_1
X_13641_ ex_block_i.alu_i.g_no_alu_rvb.unused_imd_val_q\[28\]
+ _10952_ VSS VSS VDD VDD _06743_ sky130_fd_sc_hd__nand2_1
X_13642_ _10952_ _06742_ _06743_ VSS VSS VDD VDD _01533_ sky130_fd_sc_hd__o21ai_0
X_13643_ _10665_ net1207 VSS VSS VDD VDD _06744_ sky130_fd_sc_hd__nor2_1
X_13644_ _10590_ net1207 _06744_ VSS VSS VDD VDD _06745_ sky130_fd_sc_hd__a21oi_1
X_13645_ ex_block_i.alu_i.g_no_alu_rvb.unused_imd_val_q\[29\]
+ _10952_ VSS VSS VDD VDD _06746_ sky130_fd_sc_hd__nand2_1
X_13646_ _10952_ _06745_ _06746_ VSS VSS VDD VDD _01534_ sky130_fd_sc_hd__o21ai_0
X_13647_ _10974_ net301 VSS VSS VDD VDD _06747_ sky130_fd_sc_hd__nor2_1
X_13648_ _08795_ net301 _06747_ VSS VSS VDD VDD _06748_ sky130_fd_sc_hd__a21oi_1
X_13649_ ex_block_i.alu_i.g_no_alu_rvb.unused_imd_val_q\[2\]
+ _10952_ VSS VSS VDD VDD _06749_ sky130_fd_sc_hd__nand2_1
X_13650_ _10952_ _06748_ _06749_ VSS VSS VDD VDD _01535_ sky130_fd_sc_hd__o21ai_0
X_13651_ _10809_ net301 VSS VSS VDD VDD _06750_ sky130_fd_sc_hd__nor2_1
X_13652_ _10792_ net301 _06750_ VSS VSS VDD VDD _06751_ sky130_fd_sc_hd__a21oi_1
X_13653_ ex_block_i.alu_i.g_no_alu_rvb.unused_imd_val_q\[30\]
+ _10952_ VSS VSS VDD VDD _06752_ sky130_fd_sc_hd__nand2_1
X_13654_ _10952_ _06751_ _06752_ VSS VSS VDD VDD _01536_ sky130_fd_sc_hd__o21ai_0
X_13655_ net481 _03378_ _10721_ VSS VSS VDD VDD _06753_ sky130_fd_sc_hd__o21ai_0
X_13656_ ex_block_i.alu_i.g_no_alu_rvb.unused_imd_val_q\[31\]
+ _10952_ VSS VSS VDD VDD _06754_ sky130_fd_sc_hd__nand2_1
X_13657_ _10952_ _06753_ _06754_ VSS VSS VDD VDD _01537_ sky130_fd_sc_hd__o21ai_0
X_13658_ ex_block_i.genblk3.gen_multdiv_fast.multdiv_i.md_state_q\[5\]
+ ex_block_i.genblk3.gen_multdiv_fast.multdiv_i.md_state_q\[2\]
+ _08377_ VSS VSS VDD VDD _06755_ sky130_fd_sc_hd__or3_4
XTAP_TAPCELL_ROW_63_1283 VSS VDD sky130_fd_sc_hd__tapvpwrvgnd_1
X_13660_ net445 _08100_ _08290_ VSS VSS VDD VDD _06757_ sky130_fd_sc_hd__or3_4
XTAP_TAPCELL_ROW_63_1282 VSS VDD sky130_fd_sc_hd__tapvpwrvgnd_1
X_13662_ _06757_ _13358_ _06685_ VSS VSS VDD VDD _06759_ sky130_fd_sc_hd__nor3_1
X_13663_ _13358_ _06685_ _06759_ VSS VSS VDD VDD _06760_ sky130_fd_sc_hd__a21oi_1
X_13664_ _06757_ _13358_ _08502_ VSS VSS VDD VDD _06761_ sky130_fd_sc_hd__a21oi_1
X_13665_ ex_block_i.genblk3.gen_multdiv_fast.multdiv_i.div_by_zero_q
+ _06760_ _06761_ VSS VSS VDD VDD _06762_ sky130_fd_sc_hd__o21ai_0
X_13666_ ex_block_i.genblk3.gen_multdiv_fast.multdiv_i.md_state_q\[0\]
+ _06755_ _06762_ VSS VSS VDD VDD _06763_ sky130_fd_sc_hd__o21ai_0
X_13667_ net442 _06763_ VSS VSS VDD VDD _06764_ sky130_fd_sc_hd__nand2_1
X_13668_ _08269_ net313 _06764_ VSS VSS VDD VDD _06765_ sky130_fd_sc_hd__and3_4
XTAP_TAPCELL_ROW_63_1281 VSS VDD sky130_fd_sc_hd__tapvpwrvgnd_1
XTAP_TAPCELL_ROW_63_1280 VSS VDD sky130_fd_sc_hd__tapvpwrvgnd_1
XTAP_TAPCELL_ROW_62_1279 VSS VDD sky130_fd_sc_hd__tapvpwrvgnd_1
XTAP_TAPCELL_ROW_62_1278 VSS VDD sky130_fd_sc_hd__tapvpwrvgnd_1
X_13673_ ex_block_i.genblk3.gen_multdiv_fast.multdiv_i.md_state_q\[5\]
+ ex_block_i.genblk3.gen_multdiv_fast.multdiv_i.md_state_q\[2\]
+ _08377_ VSS VSS VDD VDD _06770_ sky130_fd_sc_hd__nor3_4
XTAP_TAPCELL_ROW_62_1277 VSS VDD sky130_fd_sc_hd__tapvpwrvgnd_1
X_13675_ _06757_ _06770_ VSS VSS VDD VDD _06772_ sky130_fd_sc_hd__nand2_2
XTAP_TAPCELL_ROW_62_1276 VSS VDD sky130_fd_sc_hd__tapvpwrvgnd_1
X_13677_ net445 _03724_ VSS VSS VDD VDD _06774_ sky130_fd_sc_hd__nor2_8
XTAP_TAPCELL_ROW_62_1275 VSS VDD sky130_fd_sc_hd__tapvpwrvgnd_1
X_13679_ _13350_ _13469_ ex_block_i.genblk3.gen_multdiv_fast.multdiv_i.op_quotient_q\[0\]
+ VSS VSS VDD VDD _06776_ sky130_fd_sc_hd__a21oi_1
XTAP_TAPCELL_ROW_62_1274 VSS VDD sky130_fd_sc_hd__tapvpwrvgnd_1
X_13681_ ex_block_i.alu_i.g_no_alu_rvb.unused_imd_val_q\[32\]
+ _13468_ VSS VSS VDD VDD _06778_ sky130_fd_sc_hd__nand2_1
XTAP_TAPCELL_ROW_62_1273 VSS VDD sky130_fd_sc_hd__tapvpwrvgnd_1
X_13683_ net288 _13488_ VSS VSS VDD VDD _06780_ sky130_fd_sc_hd__nand2_1
X_13684_ _06778_ _06780_ VSS VSS VDD VDD _06781_ sky130_fd_sc_hd__nand2_1
X_13685_ _06774_ _06781_ VSS VSS VDD VDD _06782_ sky130_fd_sc_hd__nor2_1
X_13686_ _06774_ _06776_ _06782_ VSS VSS VDD VDD _06783_ sky130_fd_sc_hd__a21oi_1
XTAP_TAPCELL_ROW_62_1272 VSS VDD sky130_fd_sc_hd__tapvpwrvgnd_1
X_13688_ ex_block_i.genblk3.gen_multdiv_fast.multdiv_i.div_counter_q\[4\]
+ _13350_ VSS VSS VDD VDD _06785_ sky130_fd_sc_hd__xnor2_1
X_13689_ ex_block_i.genblk3.gen_multdiv_fast.multdiv_i.op_numerator_q\[7\]
+ ex_block_i.genblk3.gen_multdiv_fast.multdiv_i.op_numerator_q\[4\]
+ ex_block_i.genblk3.gen_multdiv_fast.multdiv_i.op_numerator_q\[5\]
+ ex_block_i.genblk3.gen_multdiv_fast.multdiv_i.op_numerator_q\[6\]
+ ex_block_i.genblk3.gen_multdiv_fast.multdiv_i.div_counter_q\[0\]
+ ex_block_i.genblk3.gen_multdiv_fast.multdiv_i.div_counter_q\[1\]
+ VSS VSS VDD VDD _06786_ sky130_fd_sc_hd__mux4_1
X_13690_ ex_block_i.genblk3.gen_multdiv_fast.multdiv_i.op_numerator_q\[3\]
+ ex_block_i.genblk3.gen_multdiv_fast.multdiv_i.op_numerator_q\[0\]
+ ex_block_i.genblk3.gen_multdiv_fast.multdiv_i.op_numerator_q\[1\]
+ ex_block_i.genblk3.gen_multdiv_fast.multdiv_i.op_numerator_q\[2\]
+ ex_block_i.genblk3.gen_multdiv_fast.multdiv_i.div_counter_q\[0\]
+ ex_block_i.genblk3.gen_multdiv_fast.multdiv_i.div_counter_q\[1\]
+ VSS VSS VDD VDD _06787_ sky130_fd_sc_hd__mux4_1
X_13691_ ex_block_i.genblk3.gen_multdiv_fast.multdiv_i.div_counter_q\[2\]
+ _13344_ VSS VSS VDD VDD _06788_ sky130_fd_sc_hd__xnor2_4
X_13692_ _06786_ _06787_ _06788_ VSS VSS VDD VDD _06789_ sky130_fd_sc_hd__mux2i_1
X_13693_ ex_block_i.genblk3.gen_multdiv_fast.multdiv_i.op_numerator_q\[11\]
+ ex_block_i.genblk3.gen_multdiv_fast.multdiv_i.op_numerator_q\[8\]
+ ex_block_i.genblk3.gen_multdiv_fast.multdiv_i.op_numerator_q\[9\]
+ ex_block_i.genblk3.gen_multdiv_fast.multdiv_i.op_numerator_q\[10\]
+ ex_block_i.genblk3.gen_multdiv_fast.multdiv_i.div_counter_q\[0\]
+ ex_block_i.genblk3.gen_multdiv_fast.multdiv_i.div_counter_q\[1\]
+ VSS VSS VDD VDD _06790_ sky130_fd_sc_hd__mux4_1
X_13694_ ex_block_i.genblk3.gen_multdiv_fast.multdiv_i.op_numerator_q\[15\]
+ ex_block_i.genblk3.gen_multdiv_fast.multdiv_i.op_numerator_q\[12\]
+ ex_block_i.genblk3.gen_multdiv_fast.multdiv_i.op_numerator_q\[13\]
+ ex_block_i.genblk3.gen_multdiv_fast.multdiv_i.op_numerator_q\[14\]
+ ex_block_i.genblk3.gen_multdiv_fast.multdiv_i.div_counter_q\[0\]
+ ex_block_i.genblk3.gen_multdiv_fast.multdiv_i.div_counter_q\[1\]
+ VSS VSS VDD VDD _06791_ sky130_fd_sc_hd__mux4_1
X_13695_ _06788_ _06791_ VSS VSS VDD VDD _06792_ sky130_fd_sc_hd__nor2b_1
X_13696_ _06788_ _06790_ _06792_ _13351_ VSS VSS VDD VDD _06793_
+ sky130_fd_sc_hd__a211oi_1
X_13697_ _13351_ _06789_ _06793_ VSS VSS VDD VDD _06794_ sky130_fd_sc_hd__a21oi_1
X_13698_ ex_block_i.genblk3.gen_multdiv_fast.multdiv_i.op_numerator_q\[23\]
+ ex_block_i.genblk3.gen_multdiv_fast.multdiv_i.op_numerator_q\[20\]
+ ex_block_i.genblk3.gen_multdiv_fast.multdiv_i.op_numerator_q\[21\]
+ ex_block_i.genblk3.gen_multdiv_fast.multdiv_i.op_numerator_q\[22\]
+ ex_block_i.genblk3.gen_multdiv_fast.multdiv_i.div_counter_q\[0\]
+ ex_block_i.genblk3.gen_multdiv_fast.multdiv_i.div_counter_q\[1\]
+ VSS VSS VDD VDD _06795_ sky130_fd_sc_hd__mux4_1
X_13699_ ex_block_i.genblk3.gen_multdiv_fast.multdiv_i.op_numerator_q\[19\]
+ ex_block_i.genblk3.gen_multdiv_fast.multdiv_i.op_numerator_q\[16\]
+ ex_block_i.genblk3.gen_multdiv_fast.multdiv_i.op_numerator_q\[17\]
+ ex_block_i.genblk3.gen_multdiv_fast.multdiv_i.op_numerator_q\[18\]
+ ex_block_i.genblk3.gen_multdiv_fast.multdiv_i.div_counter_q\[0\]
+ ex_block_i.genblk3.gen_multdiv_fast.multdiv_i.div_counter_q\[1\]
+ VSS VSS VDD VDD _06796_ sky130_fd_sc_hd__mux4_1
X_13700_ _06795_ _06796_ _06788_ VSS VSS VDD VDD _06797_ sky130_fd_sc_hd__mux2i_1
X_13701_ ex_block_i.genblk3.gen_multdiv_fast.multdiv_i.op_numerator_q\[27\]
+ ex_block_i.genblk3.gen_multdiv_fast.multdiv_i.op_numerator_q\[24\]
+ ex_block_i.genblk3.gen_multdiv_fast.multdiv_i.op_numerator_q\[25\]
+ ex_block_i.genblk3.gen_multdiv_fast.multdiv_i.op_numerator_q\[26\]
+ ex_block_i.genblk3.gen_multdiv_fast.multdiv_i.div_counter_q\[0\]
+ ex_block_i.genblk3.gen_multdiv_fast.multdiv_i.div_counter_q\[1\]
+ VSS VSS VDD VDD _06798_ sky130_fd_sc_hd__mux4_1
X_13702_ ex_block_i.genblk3.gen_multdiv_fast.multdiv_i.op_numerator_q\[31\]
+ ex_block_i.genblk3.gen_multdiv_fast.multdiv_i.op_numerator_q\[28\]
+ ex_block_i.genblk3.gen_multdiv_fast.multdiv_i.op_numerator_q\[29\]
+ ex_block_i.genblk3.gen_multdiv_fast.multdiv_i.op_numerator_q\[30\]
+ ex_block_i.genblk3.gen_multdiv_fast.multdiv_i.div_counter_q\[0\]
+ ex_block_i.genblk3.gen_multdiv_fast.multdiv_i.div_counter_q\[1\]
+ VSS VSS VDD VDD _06799_ sky130_fd_sc_hd__mux4_1
X_13703_ _06788_ _06799_ VSS VSS VDD VDD _06800_ sky130_fd_sc_hd__nor2b_1
X_13704_ _06788_ _06798_ _06800_ _13351_ VSS VSS VDD VDD _06801_
+ sky130_fd_sc_hd__a211oi_1
X_13705_ _13351_ _06797_ _06785_ _06801_ VSS VSS VDD VDD _06802_
+ sky130_fd_sc_hd__a211oi_1
X_13706_ _06785_ _06794_ _06802_ VSS VSS VDD VDD _06803_ sky130_fd_sc_hd__a21oi_1
X_13707_ ex_block_i.genblk3.gen_multdiv_fast.multdiv_i.md_state_q\[2\]
+ ex_block_i.genblk3.gen_multdiv_fast.multdiv_i.op_numerator_q\[31\]
+ _03724_ _06770_ VSS VSS VDD VDD _06804_ sky130_fd_sc_hd__a211oi_1
X_13708_ _10810_ _06803_ _06804_ VSS VSS VDD VDD _06805_ sky130_fd_sc_hd__o21ai_0
X_13709_ ex_block_i.genblk3.gen_multdiv_fast.multdiv_i.md_state_q\[5\]
+ net288 _06783_ ex_block_i.genblk3.gen_multdiv_fast.multdiv_i.md_state_q\[1\]
+ _06805_ VSS VSS VDD VDD _06806_ sky130_fd_sc_hd__a221o_1
X_13710_ net496 _03724_ _06772_ _06806_ _01728_ VSS VSS VDD
+ VDD _06807_ sky130_fd_sc_hd__o311ai_0
X_13711_ _08269_ net313 _06764_ VSS VSS VDD VDD _06808_ sky130_fd_sc_hd__nand3_4
X_13712_ _01698_ _06808_ VSS VSS VDD VDD _06809_ sky130_fd_sc_hd__nor2_4
X_13713_ ex_block_i.alu_i.g_no_alu_rvb.unused_imd_val_q\[32\]
+ _06809_ VSS VSS VDD VDD _06810_ sky130_fd_sc_hd__nor2_1
X_13714_ _06765_ _06807_ _06810_ VSS VSS VDD VDD _01538_ sky130_fd_sc_hd__a21oi_1
X_13715_ ex_block_i.alu_i.g_no_alu_rvb.unused_imd_val_q\[33\]
+ _06809_ VSS VSS VDD VDD _06811_ sky130_fd_sc_hd__nor2_1
XTAP_TAPCELL_ROW_62_1271 VSS VDD sky130_fd_sc_hd__tapvpwrvgnd_1
XTAP_TAPCELL_ROW_62_1270 VSS VDD sky130_fd_sc_hd__tapvpwrvgnd_1
X_13718_ ex_block_i.genblk3.gen_multdiv_fast.multdiv_i.md_state_q\[5\]
+ _10970_ _06781_ ex_block_i.genblk3.gen_multdiv_fast.multdiv_i.md_state_q\[6\]
+ _06770_ VSS VSS VDD VDD _06814_ sky130_fd_sc_hd__a221oi_1
XTAP_TAPCELL_ROW_62_1269 VSS VDD sky130_fd_sc_hd__tapvpwrvgnd_1
X_13720_ ex_block_i.alu_i.g_no_alu_rvb.unused_imd_val_q\[33\]
+ _13488_ VSS VSS VDD VDD _06816_ sky130_fd_sc_hd__nor2_1
X_13721_ net276 _13488_ _06816_ VSS VSS VDD VDD _06817_ sky130_fd_sc_hd__a21oi_1
X_13722_ net445 _08100_ net739 VSS VSS VDD VDD _06818_ sky130_fd_sc_hd__or3_4
XTAP_TAPCELL_ROW_62_1268 VSS VDD sky130_fd_sc_hd__tapvpwrvgnd_1
X_13724_ _10820_ _10823_ _13469_ _06818_ ex_block_i.genblk3.gen_multdiv_fast.multdiv_i.op_quotient_q\[1\]
+ VSS VSS VDD VDD _06820_ sky130_fd_sc_hd__a311o_1
X_13725_ _13333_ _06817_ _06820_ ex_block_i.genblk3.gen_multdiv_fast.multdiv_i.md_state_q\[1\]
+ VSS VSS VDD VDD _06821_ sky130_fd_sc_hd__o211ai_1
X_13726_ _06814_ _06821_ VSS VSS VDD VDD _06822_ sky130_fd_sc_hd__nand2_1
X_13727_ net560 _06772_ _06822_ VSS VSS VDD VDD _06823_ sky130_fd_sc_hd__o21ai_0
X_13728_ _13335_ _06823_ VSS VSS VDD VDD _06824_ sky130_fd_sc_hd__nand2_1
XTAP_TAPCELL_ROW_62_1267 VSS VDD sky130_fd_sc_hd__tapvpwrvgnd_1
X_13730_ _05282_ _06824_ _06808_ VSS VSS VDD VDD _06826_ sky130_fd_sc_hd__a21oi_1
X_13731_ _06811_ _06826_ VSS VSS VDD VDD _01539_ sky130_fd_sc_hd__nor2_1
XTAP_TAPCELL_ROW_62_1266 VSS VDD sky130_fd_sc_hd__tapvpwrvgnd_1
X_13733_ _13333_ _06755_ VSS VSS VDD VDD _06828_ sky130_fd_sc_hd__nor2_8
XTAP_TAPCELL_ROW_62_1265 VSS VDD sky130_fd_sc_hd__tapvpwrvgnd_1
X_13735_ ex_block_i.genblk3.gen_multdiv_fast.multdiv_i.md_state_q\[5\]
+ net171 _06817_ ex_block_i.genblk3.gen_multdiv_fast.multdiv_i.md_state_q\[6\]
+ _06770_ VSS VSS VDD VDD _06830_ sky130_fd_sc_hd__a221oi_1
X_13736_ ex_block_i.alu_i.g_no_alu_rvb.unused_imd_val_q\[34\]
+ _13488_ VSS VSS VDD VDD _06831_ sky130_fd_sc_hd__nor2_1
X_13737_ _10974_ _13488_ _06831_ VSS VSS VDD VDD _06832_ sky130_fd_sc_hd__a21oi_1
X_13738_ ex_block_i.genblk3.gen_multdiv_fast.multdiv_i.div_counter_q\[0\]
+ ex_block_i.genblk3.gen_multdiv_fast.multdiv_i.div_counter_q\[1\]
+ VSS VSS VDD VDD _06833_ sky130_fd_sc_hd__nand2b_4
XTAP_TAPCELL_ROW_62_1264 VSS VDD sky130_fd_sc_hd__tapvpwrvgnd_1
XTAP_TAPCELL_ROW_62_1263 VSS VDD sky130_fd_sc_hd__tapvpwrvgnd_1
X_13741_ ex_block_i.genblk3.gen_multdiv_fast.multdiv_i.op_quotient_q\[2\]
+ _06818_ VSS VSS VDD VDD _06836_ sky130_fd_sc_hd__nor2_1
X_13742_ _06833_ _01652_ _06836_ VSS VSS VDD VDD _06837_ sky130_fd_sc_hd__o21ai_1
XTAP_TAPCELL_ROW_62_1262 VSS VDD sky130_fd_sc_hd__tapvpwrvgnd_1
X_13744_ _06774_ _06832_ _06837_ ex_block_i.genblk3.gen_multdiv_fast.multdiv_i.md_state_q\[1\]
+ VSS VSS VDD VDD _06839_ sky130_fd_sc_hd__o211ai_1
X_13745_ net751 _06828_ _06830_ _06839_ VSS VSS VDD VDD _06840_
+ sky130_fd_sc_hd__a22oi_1
X_13746_ _03724_ _06840_ _05304_ VSS VSS VDD VDD _06841_ sky130_fd_sc_hd__o21ai_0
X_13747_ ex_block_i.alu_i.g_no_alu_rvb.unused_imd_val_q\[34\]
+ _06809_ VSS VSS VDD VDD _06842_ sky130_fd_sc_hd__nor2_1
X_13748_ _06765_ _06841_ _06842_ VSS VSS VDD VDD _01540_ sky130_fd_sc_hd__a21oi_1
X_13749_ ex_block_i.genblk3.gen_multdiv_fast.multdiv_i.md_state_q\[5\]
+ net174 _06832_ ex_block_i.genblk3.gen_multdiv_fast.multdiv_i.md_state_q\[6\]