* CDL Netlist generated by OpenROAD

*.BUSDELIMITER [

.SUBCKT configurable_carry_select_adder a[0] a[10] a[11] a[12]
+ a[13] a[14] a[15] a[16] a[17] a[18] a[19] a[1] a[20] a[21]
+ a[22] a[23] a[24] a[25] a[26] a[27] a[28] a[29] a[2] a[30]
+ a[31] a[32] a[33] a[34] a[35] a[36] a[37] a[38] a[39] a[3]
+ a[40] a[41] a[42] a[43] a[44] a[45] a[46] a[47] a[48] a[49]
+ a[4] a[50] a[51] a[52] a[53] a[54] a[55] a[56] a[57] a[58]
+ a[59] a[5] a[60] a[61] a[62] a[63] a[6] a[7] a[8] a[9] b[0]
+ b[10] b[11] b[12] b[13] b[14] b[15] b[16] b[17] b[18] b[19]
+ b[1] b[20] b[21] b[22] b[23] b[24] b[25] b[26] b[27] b[28]
+ b[29] b[2] b[30] b[31] b[32] b[33] b[34] b[35] b[36] b[37]
+ b[38] b[39] b[3] b[40] b[41] b[42] b[43] b[44] b[45] b[46]
+ b[47] b[48] b[49] b[4] b[50] b[51] b[52] b[53] b[54] b[55]
+ b[56] b[57] b[58] b[59] b[5] b[60] b[61] b[62] b[63] b[6]
+ b[7] b[8] b[9] cin cout sum[0] sum[10] sum[11] sum[12] sum[13]
+ sum[14] sum[15] sum[16] sum[17] sum[18] sum[19] sum[1] sum[20]
+ sum[21] sum[22] sum[23] sum[24] sum[25] sum[26] sum[27] sum[28]
+ sum[29] sum[2] sum[30] sum[31] sum[32] sum[33] sum[34] sum[35]
+ sum[36] sum[37] sum[38] sum[39] sum[3] sum[40] sum[41] sum[42]
+ sum[43] sum[44] sum[45] sum[46] sum[47] sum[48] sum[49] sum[4]
+ sum[50] sum[51] sum[52] sum[53] sum[54] sum[55] sum[56] sum[57]
+ sum[58] sum[59] sum[5] sum[60] sum[61] sum[62] sum[63] sum[6]
+ sum[7] sum[8] sum[9]
X_465_ net1 _306_ VDD VSS INV_X1
X_466_ net65 _307_ VDD VSS INV_X1
X_467_ net129 _308_ VDD VSS INV_X1
X_468_ _309_ _310_ VDD VSS INV_X1
X_469_ _312_ first_block.full_adders\[1\].fa.sum VDD VSS INV_X1
X_470_ _314_ first_block.full_adders\[2\].fa.sum VDD VSS INV_X1
X_471_ _316_ first_block.full_adders\[3\].fa.sum VDD VSS INV_X1
X_472_ _318_ first_block.full_adders\[4\].fa.sum VDD VSS INV_X1
X_473_ _320_ first_block.full_adders\[5\].fa.sum VDD VSS INV_X1
X_474_ _322_ first_block.full_adders\[6\].fa.sum VDD VSS INV_X1
X_475_ _324_ first_block.full_adders\[7\].fa.sum VDD VSS INV_X1
X_476_ net43 _325_ VDD VSS INV_X1
X_477_ net52 _331_ VDD VSS INV_X1
X_478_ net8 _337_ VDD VSS INV_X1
X_479_ net17 _343_ VDD VSS INV_X1
X_480_ net26 _349_ VDD VSS INV_X1
X_481_ net35 _355_ VDD VSS INV_X1
X_482_ net63 _459_ VDD VSS INV_X1
X_483_ net107 _326_ VDD VSS INV_X1
X_484_ net116 _332_ VDD VSS INV_X1
X_485_ net72 _338_ VDD VSS INV_X1
X_486_ net81 _344_ VDD VSS INV_X1
X_487_ net90 _350_ VDD VSS INV_X1
X_488_ net99 _356_ VDD VSS INV_X1
X_489_ net127 _460_ VDD VSS INV_X1
X_490_ _447_ _449_ _000_ VDD VSS OR2_X1
X_491_ net59 net123 _447_ _000_ net58 net122 _001_ VDD VSS
+ OAI33_X1
X_492_ _453_ _002_ VDD VSS INV_X1
X_493_ net55 net119 _003_ VDD VSS NOR2_X1
X_494_ net54 net118 _004_ VDD VSS OR2_X1
X_495_ _457_ _005_ VDD VSS INV_X1
X_496_ net53 net117 _006_ VDD VSS NOR2_X1
X_497_ _335_ _007_ VDD VSS INV_X1
X_498_ _005_ _006_ _007_ _008_ VDD VSS OAI21_X1
X_499_ _455_ _004_ _008_ _009_ VDD VSS AOI21_X1
X_500_ _002_ _003_ _009_ _010_ VDD VSS OAI21_X1
X_501_ _010_ net121 net57 _011_ VDD VSS OAI21_X1
X_502_ _005_ _006_ _333_ _012_ VDD VSS OAI21_X1
X_503_ _455_ _004_ _012_ _013_ VDD VSS AOI21_X1
X_504_ _002_ _003_ _013_ _014_ VDD VSS OAI21_X1
X_505_ _014_ net121 net57 _015_ VDD VSS OAI21_X1
X_506_ net51 net115 _431_ _016_ VDD VSS NOR3_X1
X_507_ _433_ _017_ VDD VSS INV_X1
X_508_ net50 net114 _018_ VDD VSS NOR2_X1
X_509_ net49 net113 _019_ VDD VSS NOR2_X1
X_510_ net48 net112 _020_ VDD VSS OR2_X1
X_511_ _439_ _021_ VDD VSS INV_X1
X_512_ net47 net111 _022_ VDD VSS OR2_X1
X_513_ net46 net110 _023_ VDD VSS NOR2_X1
X_514_ _329_ net108 net44 _024_ VDD VSS OAI21_X1
X_515_ _443_ _025_ VDD VSS INV_X1
X_516_ _023_ _024_ _025_ _026_ VDD VSS AOI21_X1
X_517_ _022_ _026_ _441_ _027_ VDD VSS OAI21_X1
X_518_ _021_ _027_ _028_ VDD VSS NAND2_X1
X_519_ _437_ _020_ _028_ _029_ VDD VSS AOI21_X1
X_520_ _019_ _029_ _030_ VDD VSS NOR2_X1
X_521_ _435_ _030_ _031_ VDD VSS NOR2_X1
X_522_ _017_ _018_ _031_ _032_ VDD VSS OAI21_X1
X_523_ _417_ _431_ _032_ _033_ VDD VSS NOR3_X1
X_524_ net42 net106 _034_ VDD VSS OR2_X2
X_525_ net41 net105 _035_ VDD VSS OR2_X2
X_526_ _419_ _421_ _035_ _036_ VDD VSS AOI21_X4
X_527_ _035_ net104 net40 _037_ VDD VSS OAI21_X4
X_528_ net39 net103 _038_ VDD VSS NOR2_X1
X_529_ net38 net102 _039_ VDD VSS OR2_X1
X_530_ net37 net101 _040_ VDD VSS NOR2_X1
X_531_ _359_ net100 net36 _041_ VDD VSS OAI21_X1
X_532_ _429_ _042_ VDD VSS INV_X1
X_533_ _040_ _041_ _042_ _043_ VDD VSS AOI21_X1
X_534_ _039_ _043_ _427_ _044_ VDD VSS OAI21_X1
X_535_ _425_ _045_ VDD VSS INV_X1
X_536_ _038_ _044_ _045_ _046_ VDD VSS AOI21_X1
X_537_ _423_ _046_ _047_ VDD VSS NOR2_X2
X_538_ _036_ _037_ _047_ _048_ VDD VSS OAI21_X4
X_539_ _034_ _048_ _049_ VDD VSS NAND2_X1
X_540_ net22 net86 _391_ _393_ _050_ VDD VSS NOR4_X2
X_541_ net24 net88 _051_ VDD VSS NOR2_X1
X_542_ _391_ _052_ VDD VSS INV_X1
X_543_ net25 _053_ VDD VSS INV_X1
X_544_ net89 _054_ VDD VSS INV_X1
X_545_ _050_ _051_ _052_ _053_ _054_ _055_ VDD VSS AOI221_X2
X_546_ net20 net84 net21 net85 _056_ VDD VSS OAI22_X2
X_547_ net19 net83 _057_ VDD VSS NOR2_X1
X_548_ _399_ _058_ VDD VSS INV_X1
X_549_ _399_ _401_ _059_ VDD VSS NOR2_X1
X_550_ _347_ net82 net18 _060_ VDD VSS OAI21_X1
X_551_ _056_ _057_ _058_ _059_ _060_ _061_ VDD VSS AOI221_X2
X_552_ _395_ _062_ VDD VSS INV_X2
X_553_ _389_ _391_ _393_ _063_ VDD VSS NOR3_X2
X_554_ _397_ net85 net21 _064_ VDD VSS OAI21_X4
X_555_ _062_ _063_ _064_ _065_ VDD VSS NAND3_X2
X_556_ _389_ _055_ _061_ _065_ _066_ VDD VSS OAI22_X4
X_557_ net20 net84 _067_ VDD VSS OR2_X1
X_558_ net21 net85 _397_ _067_ _068_ VDD VSS OAI22_X4
X_559_ net18 net82 _401_ _069_ VDD VSS OR3_X1
X_560_ _345_ _070_ VDD VSS INV_X1
X_561_ _069_ _401_ _070_ net19 net83 _071_ VDD VSS OAI221_X2
X_562_ _395_ _397_ _399_ _072_ VDD VSS NOR3_X2
X_563_ _062_ _068_ _071_ _072_ _073_ VDD VSS AOI22_X4
X_564_ _389_ _391_ _393_ _073_ _074_ VDD VSS NOR4_X4
X_565_ _066_ _074_ _075_ VDD VSS NOR2_X1
X_566_ _361_ _363_ _076_ VDD VSS OR2_X2
X_567_ net6 net70 _077_ VDD VSS NOR2_X2
X_568_ _367_ net69 net5 _078_ VDD VSS OAI21_X2
X_569_ _365_ _079_ VDD VSS INV_X1
X_570_ _077_ _078_ _079_ _080_ VDD VSS AOI21_X4
X_571_ _076_ _080_ _081_ VDD VSS NOR2_X1
X_572_ net4 net68 _082_ VDD VSS NOR2_X1
X_573_ net2 net66 _369_ _371_ _083_ VDD VSS NOR4_X4
X_574_ net3 net67 _084_ VDD VSS OR2_X1
X_575_ _369_ _084_ _085_ VDD VSS NOR2_X1
X_576_ _082_ _083_ _085_ _086_ VDD VSS NOR3_X4
X_577_ _369_ _371_ _373_ _087_ VDD VSS NOR3_X2
X_578_ net64 net128 _088_ VDD VSS NOR2_X2
X_579_ _463_ _089_ VDD VSS INV_X1
X_580_ _089_ _461_ _323_ _090_ VDD VSS MUX2_X2
X_581_ _087_ _088_ _090_ _091_ VDD VSS OAI21_X4
X_582_ net5 net69 _092_ VDD VSS NOR2_X2
X_583_ _077_ _092_ _093_ VDD VSS NOR2_X4
X_584_ _086_ _091_ _093_ _094_ VDD VSS NAND3_X2
X_585_ _066_ _081_ _094_ _095_ VDD VSS AOI21_X1
X_586_ net7 net71 _361_ _096_ VDD VSS OR3_X4
X_587_ net16 net80 _097_ VDD VSS OR2_X1
X_588_ _375_ _377_ _097_ _098_ VDD VSS AOI21_X2
X_589_ net15 net79 net16 net80 _099_ VDD VSS OAI22_X4
X_590_ _379_ _100_ VDD VSS INV_X1
X_591_ _098_ _099_ _100_ _101_ VDD VSS OAI21_X4
X_592_ net11 net75 _381_ _383_ _102_ VDD VSS NOR4_X2
X_593_ net13 net77 _381_ _103_ VDD VSS NOR3_X2
X_594_ net14 net78 _104_ VDD VSS NOR2_X1
X_595_ _099_ _102_ _103_ _104_ _105_ VDD VSS OR4_X4
X_596_ _387_ net74 net10 _106_ VDD VSS OAI21_X1
X_597_ _381_ _383_ _385_ _107_ VDD VSS NOR3_X1
X_598_ _106_ _107_ _108_ VDD VSS AND2_X2
X_599_ net10 net74 _109_ VDD VSS NOR2_X1
X_600_ net9 net73 _110_ VDD VSS NOR2_X1
X_601_ _339_ _109_ _110_ _111_ VDD VSS OR3_X2
X_602_ _105_ _108_ _111_ _112_ VDD VSS AOI21_X4
X_603_ _101_ _112_ _113_ VDD VSS NOR2_X2
X_604_ _096_ _113_ _114_ VDD VSS AND2_X1
X_605_ _341_ net74 net10 net9 net73 _115_ VDD VSS OAI221_X2
X_606_ _105_ _108_ _115_ _116_ VDD VSS AOI21_X4
X_607_ _066_ _101_ _116_ _117_ VDD VSS NOR3_X1
X_608_ _076_ _080_ _118_ VDD VSS OR2_X1
X_609_ _096_ _118_ _119_ VDD VSS AND2_X2
X_610_ _096_ _086_ _091_ _093_ _120_ VDD VSS AND4_X2
X_611_ _119_ _120_ _121_ VDD VSS NOR2_X4
X_612_ _075_ _095_ _114_ _117_ _121_ _122_ VDD VSS AOI221_X4
X_613_ _389_ _055_ _123_ VDD VSS NOR2_X1
X_614_ _123_ _074_ _124_ VDD VSS NOR2_X2
X_615_ _101_ _116_ _125_ VDD VSS NOR2_X1
X_616_ _096_ _118_ _126_ VDD VSS NAND2_X4
X_617_ _096_ _086_ _091_ _093_ _127_ VDD VSS NAND4_X4
X_618_ _125_ _126_ _127_ _128_ VDD VSS NAND3_X2
X_619_ _113_ _120_ _119_ _129_ VDD VSS OAI21_X4
X_620_ _124_ _128_ _129_ _130_ VDD VSS NAND3_X4
X_621_ _403_ _131_ VDD VSS INV_X1
X_622_ net32 net96 _132_ VDD VSS NOR2_X1
X_623_ net31 net95 _133_ VDD VSS OR2_X1
X_624_ _407_ _409_ _133_ _134_ VDD VSS AOI21_X1
X_625_ _132_ _134_ _135_ VDD VSS NOR2_X1
X_626_ _405_ _135_ _136_ VDD VSS NOR2_X2
X_627_ net33 net97 _137_ VDD VSS NOR2_X2
X_628_ _131_ _136_ _137_ _138_ VDD VSS OAI21_X4
X_629_ _133_ net96 net32 net30 net94 _139_ VDD VSS OAI221_X2
X_630_ _137_ _139_ _140_ VDD VSS NOR2_X4
X_631_ _411_ _141_ VDD VSS INV_X2
X_632_ net29 net93 _142_ VDD VSS NOR2_X2
X_633_ _142_ _143_ VDD VSS INV_X1
X_634_ _413_ _144_ VDD VSS INV_X1
X_635_ net28 net92 _145_ VDD VSS NOR2_X1
X_636_ net27 net91 _146_ VDD VSS OR2_X1
X_637_ _415_ _146_ _353_ _147_ VDD VSS AOI21_X1
X_638_ _144_ _145_ _147_ _148_ VDD VSS OAI21_X1
X_639_ _143_ _148_ _149_ VDD VSS NAND2_X1
X_640_ _141_ _149_ _150_ VDD VSS NAND2_X2
X_641_ _138_ _140_ _150_ _151_ VDD VSS AOI21_X2
X_642_ _122_ _130_ _151_ _152_ VDD VSS NAND3_X4
X_643_ net28 net92 _153_ VDD VSS OR2_X1
X_644_ _415_ _154_ VDD VSS INV_X1
X_645_ net27 net91 _155_ VDD VSS NOR2_X1
X_646_ _154_ _155_ _351_ _156_ VDD VSS OAI21_X1
X_647_ _413_ _153_ _156_ _157_ VDD VSS AOI21_X1
X_648_ _141_ _142_ _157_ _158_ VDD VSS OAI21_X2
X_649_ _138_ _140_ _158_ _159_ VDD VSS AOI21_X2
X_650_ _064_ _160_ VDD VSS INV_X1
X_651_ _395_ _061_ _160_ _161_ VDD VSS NOR3_X2
X_652_ _123_ _063_ _161_ _162_ VDD VSS AOI21_X1
X_653_ _162_ _125_ _126_ _127_ _163_ VDD VSS NAND4_X1
X_654_ _081_ _094_ _164_ VDD VSS AND2_X1
X_655_ _162_ _096_ _113_ _165_ VDD VSS NAND3_X1
X_656_ _163_ _164_ _165_ _074_ _066_ _166_ VDD VSS OAI221_X2
X_657_ _124_ _128_ _129_ _167_ VDD VSS AND3_X2
X_658_ _159_ _166_ _167_ _168_ VDD VSS OAI21_X4
X_659_ _049_ _152_ _168_ _169_ VDD VSS AOI21_X4
X_660_ _038_ _170_ VDD VSS INV_X1
X_661_ net38 net102 _171_ VDD VSS NOR2_X1
X_662_ _040_ _172_ VDD VSS INV_X1
X_663_ net36 net100 _173_ VDD VSS NOR2_X1
X_664_ _042_ _173_ _357_ _174_ VDD VSS OAI21_X1
X_665_ _427_ _172_ _174_ _175_ VDD VSS AOI21_X1
X_666_ _045_ _171_ _175_ _176_ VDD VSS OAI21_X1
X_667_ _423_ _170_ _176_ _177_ VDD VSS AOI21_X2
X_668_ _036_ _037_ _177_ _178_ VDD VSS OAI21_X4
X_669_ _034_ _168_ _152_ _178_ _179_ VDD VSS AND4_X2
X_670_ _169_ _179_ _180_ VDD VSS NOR2_X4
X_671_ _018_ _181_ VDD VSS INV_X1
X_672_ _437_ _182_ VDD VSS INV_X1
X_673_ _441_ _183_ VDD VSS INV_X1
X_674_ net44 net108 _184_ VDD VSS OR2_X1
X_675_ _327_ _185_ VDD VSS INV_X1
X_676_ _443_ _184_ _185_ _186_ VDD VSS AOI21_X1
X_677_ _183_ _023_ _186_ _187_ VDD VSS OAI21_X1
X_678_ _439_ _022_ _187_ _188_ VDD VSS AOI21_X1
X_679_ net48 net112 _189_ VDD VSS NOR2_X1
X_680_ _182_ _188_ _189_ _190_ VDD VSS OAI21_X1
X_681_ _018_ _019_ _191_ VDD VSS NOR2_X1
X_682_ _433_ _435_ _181_ _190_ _191_ _192_ VDD VSS AOI221_X2
X_683_ _192_ _034_ _048_ _193_ VDD VSS AND3_X1
X_684_ _122_ _130_ _151_ _194_ VDD VSS AND3_X1
X_685_ _138_ _140_ _158_ _122_ _130_ _195_ VDD VSS AOI221_X2
X_686_ _193_ _194_ _195_ _196_ VDD VSS OAI21_X2
X_687_ _192_ _034_ _178_ _197_ VDD VSS AND3_X1
X_688_ _168_ _152_ _197_ _198_ VDD VSS NAND3_X2
X_689_ _417_ _192_ _199_ VDD VSS NAND2_X1
X_690_ _196_ _198_ _199_ _200_ VDD VSS NAND3_X4
X_691_ _431_ _201_ VDD VSS INV_X1
X_692_ _016_ _033_ _180_ _200_ _201_ _202_ VDD VSS AOI221_X2
X_693_ _011_ _015_ _202_ _203_ VDD VSS MUX2_X1
X_694_ _451_ _000_ _204_ VDD VSS NOR2_X1
X_695_ net124 _205_ VDD VSS INV_X1
X_696_ net60 _206_ VDD VSS INV_X1
X_697_ _001_ _203_ _204_ _205_ _206_ _207_ VDD VSS AOI221_X1
X_698_ _445_ _207_ net130 VDD VSS OR2_X1
X_699_ _090_ _088_ _208_ VDD VSS NOR2_X1
X_700_ _373_ _208_ _209_ VDD VSS NOR2_X1
X_701_ _372_ _209_ net132 VDD VSS XNOR2_X1
X_702_ _371_ _210_ VDD VSS INV_X1
X_703_ net2 net66 _211_ VDD VSS NOR2_X1
X_704_ _210_ _211_ _209_ _212_ VDD VSS OAI21_X1
X_705_ _370_ _212_ net133 VDD VSS XOR2_X1
X_706_ _369_ _084_ _212_ _213_ VDD VSS AOI21_X1
X_707_ _368_ _213_ net134 VDD VSS XNOR2_X1
X_708_ _367_ _086_ _091_ _214_ VDD VSS AOI21_X1
X_709_ _366_ _214_ net135 VDD VSS XNOR2_X1
X_710_ _079_ _078_ _215_ VDD VSS AND2_X1
X_711_ _086_ _091_ _216_ VDD VSS NAND2_X1
X_712_ _215_ _216_ _092_ _217_ VDD VSS OAI21_X1
X_713_ _364_ _217_ net136 VDD VSS XOR2_X1
X_714_ net6 net70 _218_ VDD VSS OR2_X1
X_715_ _363_ _218_ _217_ _219_ VDD VSS AOI21_X1
X_716_ _362_ _219_ net137 VDD VSS XNOR2_X1
X_717_ _340_ _121_ net138 VDD VSS XNOR2_X1
X_718_ _339_ _126_ _127_ _220_ VDD VSS AOI21_X1
X_719_ _220_ _121_ _341_ _221_ VDD VSS AOI21_X2
X_720_ _388_ _221_ net139 VDD VSS XNOR2_X1
X_721_ _110_ _221_ _222_ VDD VSS NOR2_X1
X_722_ _387_ _222_ _223_ VDD VSS NOR2_X1
X_723_ _386_ _223_ net140 VDD VSS XNOR2_X1
X_724_ _385_ _224_ VDD VSS INV_X1
X_725_ _224_ _109_ _223_ _225_ VDD VSS OAI21_X2
X_726_ _384_ _225_ net141 VDD VSS XOR2_X1
X_727_ net11 net75 _226_ VDD VSS OR2_X1
X_728_ _383_ _226_ _225_ _227_ VDD VSS AOI21_X1
X_729_ _382_ _227_ net143 VDD VSS XNOR2_X1
X_730_ _102_ _103_ _228_ VDD VSS NOR2_X1
X_731_ _381_ _383_ _229_ VDD VSS OR2_X1
X_732_ _228_ _225_ _229_ _230_ VDD VSS OAI21_X1
X_733_ _380_ _230_ net144 VDD VSS XNOR2_X1
X_734_ _100_ _104_ _230_ _231_ VDD VSS OAI21_X1
X_735_ _378_ _231_ net145 VDD VSS XOR2_X1
X_736_ net15 net79 _232_ VDD VSS OR2_X1
X_737_ _377_ _232_ _231_ _233_ VDD VSS AOI21_X1
X_738_ _376_ _233_ net146 VDD VSS XNOR2_X1
X_739_ _128_ _129_ _234_ VDD VSS AND2_X4
X_740_ _346_ _234_ net147 VDD VSS XOR2_X1
X_741_ _347_ _235_ VDD VSS INV_X1
X_742_ _235_ _345_ _234_ _236_ VDD VSS MUX2_X1
X_743_ _402_ _236_ net148 VDD VSS XNOR2_X1
X_744_ net18 net82 _237_ VDD VSS NOR2_X1
X_745_ _237_ _236_ _238_ VDD VSS NOR2_X1
X_746_ _401_ _238_ _239_ VDD VSS NOR2_X1
X_747_ _400_ _239_ net149 VDD VSS XNOR2_X1
X_748_ _058_ _057_ _239_ _240_ VDD VSS OAI21_X1
X_749_ _398_ _240_ net150 VDD VSS XOR2_X1
X_750_ _397_ _067_ _240_ _241_ VDD VSS AOI21_X1
X_751_ _396_ _241_ net151 VDD VSS XNOR2_X1
X_752_ _073_ _234_ _242_ VDD VSS NAND2_X1
X_753_ _242_ _234_ _161_ _243_ VDD VSS OAI21_X4
X_754_ _394_ _243_ net152 VDD VSS XOR2_X1
X_755_ net22 net86 _244_ VDD VSS OR2_X1
X_756_ _393_ _244_ _243_ _245_ VDD VSS AOI21_X2
X_757_ _392_ _245_ net154 VDD VSS XNOR2_X1
X_758_ _052_ _051_ _245_ _246_ VDD VSS OAI21_X1
X_759_ _390_ _246_ net155 VDD VSS XOR2_X1
X_760_ _122_ _130_ _247_ VDD VSS NAND2_X2
X_761_ _352_ _247_ net156 VDD VSS XOR2_X2
X_762_ _351_ _166_ _167_ _248_ VDD VSS OAI21_X2
X_763_ _248_ _247_ _353_ _249_ VDD VSS OAI21_X4
X_764_ _416_ _249_ net157 VDD VSS XNOR2_X2
X_765_ _353_ _166_ _167_ _250_ VDD VSS NOR3_X1
X_766_ _250_ _247_ _351_ _251_ VDD VSS AOI21_X2
X_767_ _415_ _146_ _251_ _252_ VDD VSS AOI21_X2
X_768_ _414_ _252_ net158 VDD VSS XNOR2_X2
X_769_ _154_ _155_ _249_ _253_ VDD VSS OAI21_X2
X_770_ _413_ _153_ _253_ _254_ VDD VSS AOI21_X4
X_771_ _412_ _254_ net159 VDD VSS XNOR2_X2
X_772_ _144_ _145_ _252_ _255_ VDD VSS OAI21_X2
X_773_ _411_ _143_ _255_ _256_ VDD VSS AOI21_X4
X_774_ _410_ _256_ net160 VDD VSS XNOR2_X1
X_775_ _409_ _257_ VDD VSS INV_X1
X_776_ net30 net94 _258_ VDD VSS NOR2_X1
X_777_ _257_ _258_ _256_ _259_ VDD VSS OAI21_X2
X_778_ _408_ _259_ net161 VDD VSS XOR2_X1
X_779_ _406_ _407_ _260_ VDD VSS OR2_X1
X_780_ _141_ _142_ _254_ _261_ VDD VSS OAI21_X4
X_781_ _258_ _262_ VDD VSS INV_X1
X_782_ _409_ _260_ _261_ _262_ _263_ VDD VSS AOI211_X2
X_783_ _406_ _407_ _264_ VDD VSS NAND2_X1
X_784_ _264_ _260_ _133_ _265_ VDD VSS OAI21_X1
X_785_ _406_ _133_ _266_ VDD VSS AND2_X1
X_786_ _263_ _265_ _259_ _266_ net162 VDD VSS AOI211_X2
X_787_ _136_ _139_ _256_ _267_ VDD VSS OAI21_X1
X_788_ _404_ _267_ net163 VDD VSS XOR2_X1
X_789_ _168_ _152_ _268_ VDD VSS NAND2_X4
X_790_ _358_ _268_ net165 VDD VSS XNOR2_X1
X_791_ _359_ _195_ _194_ _269_ VDD VSS OAI21_X4
X_792_ _269_ _268_ _357_ _270_ VDD VSS OAI21_X2
X_793_ _430_ _270_ net166 VDD VSS XOR2_X1
X_794_ net36 net100 _271_ VDD VSS OR2_X1
X_795_ _429_ _271_ _270_ _272_ VDD VSS AOI21_X2
X_796_ _428_ _272_ net167 VDD VSS XNOR2_X1
X_797_ _427_ _273_ VDD VSS INV_X1
X_798_ _273_ _040_ _272_ _274_ VDD VSS OAI21_X1
X_799_ _426_ _274_ net168 VDD VSS XOR2_X1
X_800_ _425_ _039_ _274_ _275_ VDD VSS AOI21_X1
X_801_ _424_ _275_ net169 VDD VSS XNOR2_X1
X_802_ _177_ _047_ _268_ _276_ VDD VSS MUX2_X1
X_803_ _422_ _276_ net170 VDD VSS XNOR2_X1
X_804_ _421_ _277_ VDD VSS INV_X1
X_805_ net40 net104 _278_ VDD VSS NOR2_X1
X_806_ _277_ _278_ _276_ _279_ VDD VSS OAI21_X1
X_807_ _420_ _279_ net171 VDD VSS XOR2_X1
X_808_ _178_ _048_ _268_ _280_ VDD VSS MUX2_X1
X_809_ _418_ _280_ net172 VDD VSS XOR2_X1
X_810_ _417_ _169_ _179_ _281_ VDD VSS NOR3_X4
X_811_ _328_ _281_ net173 VDD VSS XNOR2_X2
X_812_ _185_ _329_ _281_ _282_ VDD VSS MUX2_X1
X_813_ _444_ _282_ net174 VDD VSS XOR2_X2
X_814_ _443_ _184_ _282_ _283_ VDD VSS AOI21_X2
X_815_ _442_ _283_ net176 VDD VSS XNOR2_X1
X_816_ _183_ _023_ _283_ _284_ VDD VSS OAI21_X1
X_817_ _440_ _284_ net177 VDD VSS XOR2_X1
X_818_ _022_ _187_ _285_ VDD VSS NAND2_X1
X_819_ _021_ _285_ _286_ VDD VSS NAND2_X1
X_820_ _286_ _028_ _281_ _287_ VDD VSS MUX2_X1
X_821_ _438_ _287_ net178 VDD VSS XOR2_X1
X_822_ _437_ _286_ _020_ _288_ VDD VSS AOI21_X1
X_823_ _288_ _029_ _281_ _289_ VDD VSS MUX2_X1
X_824_ _436_ _289_ net179 VDD VSS XNOR2_X1
X_825_ _281_ _031_ _290_ VDD VSS NAND2_X1
X_826_ _435_ _291_ VDD VSS INV_X1
X_827_ _291_ _288_ _019_ _292_ VDD VSS OAI21_X1
X_828_ _290_ _281_ _292_ _293_ VDD VSS OAI21_X1
X_829_ _434_ _293_ net180 VDD VSS XNOR2_X1
X_830_ _032_ _294_ VDD VSS INV_X1
X_831_ _200_ _294_ _281_ _295_ VDD VSS AOI21_X1
X_832_ _432_ _295_ net181 VDD VSS XOR2_X1
X_833_ _334_ _202_ net182 VDD VSS XOR2_X1
X_834_ _007_ _333_ _202_ _296_ VDD VSS MUX2_X1
X_835_ _458_ _296_ net183 VDD VSS XNOR2_X1
X_836_ _008_ _012_ _202_ _297_ VDD VSS MUX2_X1
X_837_ _456_ _297_ net184 VDD VSS XOR2_X1
X_838_ _455_ _004_ _297_ _298_ VDD VSS AOI21_X1
X_839_ _454_ _298_ net185 VDD VSS XNOR2_X1
X_840_ _010_ _014_ _202_ _299_ VDD VSS MUX2_X1
X_841_ _452_ _299_ net187 VDD VSS XOR2_X1
X_842_ _451_ _300_ VDD VSS INV_X1
X_843_ _300_ _203_ _301_ VDD VSS NAND2_X1
X_844_ _450_ _301_ net188 VDD VSS XOR2_X1
X_845_ net58 net122 _449_ _302_ VDD VSS NOR3_X1
X_846_ _449_ _451_ _303_ VDD VSS NOR2_X1
X_847_ _302_ _203_ _303_ _304_ VDD VSS AOI21_X1
X_848_ _448_ _304_ net189 VDD VSS XOR2_X1
X_849_ _001_ _203_ _204_ _305_ VDD VSS AOI21_X1
X_850_ _446_ _305_ net190 VDD VSS XOR2_X1
X_851_ _323_ _462_ net193 VDD VSS XOR2_X1
X_852_ _374_ _090_ net194 VDD VSS XNOR2_X1
X_853_ _306_ _307_ _308_ _309_ first_block.full_adders\[0\].fa.sum
+ VDD VSS FA_X1
X_854_ net12 net76 _310_ _311_ _312_ VDD VSS FA_X1
X_855_ net23 net87 _311_ _313_ _314_ VDD VSS FA_X1
X_856_ net34 net98 _313_ _315_ _316_ VDD VSS FA_X1
X_857_ net45 net109 _315_ _317_ _318_ VDD VSS FA_X1
X_858_ net56 net120 _317_ _319_ _320_ VDD VSS FA_X1
X_859_ net61 net125 _319_ _321_ _322_ VDD VSS FA_X1
X_860_ net62 net126 _321_ _323_ _324_ VDD VSS FA_X1
X_861_ _325_ _326_ _327_ _328_ VDD VSS HA_X1
X_862_ net43 net107 _329_ _330_ VDD VSS HA_X1
X_863_ _331_ _332_ _333_ _334_ VDD VSS HA_X1
X_864_ net52 net116 _335_ _336_ VDD VSS HA_X1
X_865_ _337_ _338_ _339_ _340_ VDD VSS HA_X1
X_866_ net8 net72 _341_ _342_ VDD VSS HA_X1
X_867_ _343_ _344_ _345_ _346_ VDD VSS HA_X1
X_868_ net17 net81 _347_ _348_ VDD VSS HA_X1
X_869_ _349_ _350_ _351_ _352_ VDD VSS HA_X1
X_870_ net26 net90 _353_ _354_ VDD VSS HA_X1
X_871_ _355_ _356_ _357_ _358_ VDD VSS HA_X1
X_872_ net35 net99 _359_ _360_ VDD VSS HA_X1
X_873_ net7 net71 _361_ _362_ VDD VSS HA_X1
X_874_ net6 net70 _363_ _364_ VDD VSS HA_X1
X_875_ net5 net69 _365_ _366_ VDD VSS HA_X1
X_876_ net4 net68 _367_ _368_ VDD VSS HA_X1
X_877_ net3 net67 _369_ _370_ VDD VSS HA_X1
X_878_ net2 net66 _371_ _372_ VDD VSS HA_X1
X_879_ net64 net128 _373_ _374_ VDD VSS HA_X1
X_880_ net16 net80 _375_ _376_ VDD VSS HA_X1
X_881_ net15 net79 _377_ _378_ VDD VSS HA_X1
X_882_ net14 net78 _379_ _380_ VDD VSS HA_X1
X_883_ net13 net77 _381_ _382_ VDD VSS HA_X1
X_884_ net11 net75 _383_ _384_ VDD VSS HA_X1
X_885_ net10 net74 _385_ _386_ VDD VSS HA_X1
X_886_ net9 net73 _387_ _388_ VDD VSS HA_X1
X_887_ net25 net89 _389_ _390_ VDD VSS HA_X1
X_888_ net24 net88 _391_ _392_ VDD VSS HA_X1
X_889_ net22 net86 _393_ _394_ VDD VSS HA_X1
X_890_ net21 net85 _395_ _396_ VDD VSS HA_X1
X_891_ net20 net84 _397_ _398_ VDD VSS HA_X1
X_892_ net19 net83 _399_ _400_ VDD VSS HA_X1
X_893_ net18 net82 _401_ _402_ VDD VSS HA_X1
X_894_ net33 net97 _403_ _404_ VDD VSS HA_X1
X_895_ net32 net96 _405_ _406_ VDD VSS HA_X1
X_896_ net31 net95 _407_ _408_ VDD VSS HA_X1
X_897_ net30 net94 _409_ _410_ VDD VSS HA_X1
X_898_ net29 net93 _411_ _412_ VDD VSS HA_X1
X_899_ net28 net92 _413_ _414_ VDD VSS HA_X1
X_900_ net27 net91 _415_ _416_ VDD VSS HA_X1
X_901_ net42 net106 _417_ _418_ VDD VSS HA_X1
X_902_ net41 net105 _419_ _420_ VDD VSS HA_X1
X_903_ net40 net104 _421_ _422_ VDD VSS HA_X1
X_904_ net39 net103 _423_ _424_ VDD VSS HA_X1
X_905_ net38 net102 _425_ _426_ VDD VSS HA_X1
X_906_ net37 net101 _427_ _428_ VDD VSS HA_X1
X_907_ net36 net100 _429_ _430_ VDD VSS HA_X1
X_908_ net51 net115 _431_ _432_ VDD VSS HA_X1
X_909_ net50 net114 _433_ _434_ VDD VSS HA_X1
X_910_ net49 net113 _435_ _436_ VDD VSS HA_X1
X_911_ net48 net112 _437_ _438_ VDD VSS HA_X1
X_912_ net47 net111 _439_ _440_ VDD VSS HA_X1
X_913_ net46 net110 _441_ _442_ VDD VSS HA_X1
X_914_ net44 net108 _443_ _444_ VDD VSS HA_X1
X_915_ net60 net124 _445_ _446_ VDD VSS HA_X1
X_916_ net59 net123 _447_ _448_ VDD VSS HA_X1
X_917_ net58 net122 _449_ _450_ VDD VSS HA_X1
X_918_ net57 net121 _451_ _452_ VDD VSS HA_X1
X_919_ net55 net119 _453_ _454_ VDD VSS HA_X1
X_920_ net54 net118 _455_ _456_ VDD VSS HA_X1
X_921_ net53 net117 _457_ _458_ VDD VSS HA_X1
X_922_ _459_ _460_ _461_ _462_ VDD VSS HA_X1
X_923_ net63 net127 _463_ _464_ VDD VSS HA_X1
X_924_ first_block.full_adders\[0\].fa.sum net131 VDD VSS
+ BUF_X1
X_925_ first_block.full_adders\[1\].fa.sum net142 VDD VSS
+ BUF_X1
X_926_ first_block.full_adders\[2\].fa.sum net153 VDD VSS
+ BUF_X1
X_927_ first_block.full_adders\[3\].fa.sum net164 VDD VSS
+ BUF_X1
X_928_ first_block.full_adders\[4\].fa.sum net175 VDD VSS
+ BUF_X1
X_929_ first_block.full_adders\[5\].fa.sum net186 VDD VSS
+ BUF_X1
X_930_ first_block.full_adders\[6\].fa.sum net191 VDD VSS
+ BUF_X1
X_931_ first_block.full_adders\[7\].fa.sum net192 VDD VSS
+ BUF_X1
XPHY_EDGE_ROW_0_Right_0 VDD VSS TAPCELL_X1
XPHY_EDGE_ROW_1_Right_1 VDD VSS TAPCELL_X1
XPHY_EDGE_ROW_2_Right_2 VDD VSS TAPCELL_X1
XPHY_EDGE_ROW_3_Right_3 VDD VSS TAPCELL_X1
XPHY_EDGE_ROW_4_Right_4 VDD VSS TAPCELL_X1
XPHY_EDGE_ROW_5_Right_5 VDD VSS TAPCELL_X1
XPHY_EDGE_ROW_6_Right_6 VDD VSS TAPCELL_X1
XPHY_EDGE_ROW_7_Right_7 VDD VSS TAPCELL_X1
XPHY_EDGE_ROW_8_Right_8 VDD VSS TAPCELL_X1
XPHY_EDGE_ROW_9_Right_9 VDD VSS TAPCELL_X1
XPHY_EDGE_ROW_10_Right_10 VDD VSS TAPCELL_X1
XPHY_EDGE_ROW_11_Right_11 VDD VSS TAPCELL_X1
XPHY_EDGE_ROW_12_Right_12 VDD VSS TAPCELL_X1
XPHY_EDGE_ROW_13_Right_13 VDD VSS TAPCELL_X1
XPHY_EDGE_ROW_14_Right_14 VDD VSS TAPCELL_X1
XPHY_EDGE_ROW_15_Right_15 VDD VSS TAPCELL_X1
XPHY_EDGE_ROW_16_Right_16 VDD VSS TAPCELL_X1
XPHY_EDGE_ROW_17_Right_17 VDD VSS TAPCELL_X1
XPHY_EDGE_ROW_18_Right_18 VDD VSS TAPCELL_X1
XPHY_EDGE_ROW_19_Right_19 VDD VSS TAPCELL_X1
XPHY_EDGE_ROW_20_Right_20 VDD VSS TAPCELL_X1
XPHY_EDGE_ROW_21_Right_21 VDD VSS TAPCELL_X1
XPHY_EDGE_ROW_22_Right_22 VDD VSS TAPCELL_X1
XPHY_EDGE_ROW_23_Right_23 VDD VSS TAPCELL_X1
XPHY_EDGE_ROW_24_Right_24 VDD VSS TAPCELL_X1
XPHY_EDGE_ROW_25_Right_25 VDD VSS TAPCELL_X1
XPHY_EDGE_ROW_26_Right_26 VDD VSS TAPCELL_X1
XPHY_EDGE_ROW_27_Right_27 VDD VSS TAPCELL_X1
XPHY_EDGE_ROW_28_Right_28 VDD VSS TAPCELL_X1
XPHY_EDGE_ROW_29_Right_29 VDD VSS TAPCELL_X1
XPHY_EDGE_ROW_30_Right_30 VDD VSS TAPCELL_X1
XPHY_EDGE_ROW_31_Right_31 VDD VSS TAPCELL_X1
XPHY_EDGE_ROW_32_Right_32 VDD VSS TAPCELL_X1
XPHY_EDGE_ROW_33_Right_33 VDD VSS TAPCELL_X1
XPHY_EDGE_ROW_34_Right_34 VDD VSS TAPCELL_X1
XPHY_EDGE_ROW_35_Right_35 VDD VSS TAPCELL_X1
XPHY_EDGE_ROW_36_Right_36 VDD VSS TAPCELL_X1
XPHY_EDGE_ROW_37_Right_37 VDD VSS TAPCELL_X1
XPHY_EDGE_ROW_38_Right_38 VDD VSS TAPCELL_X1
XPHY_EDGE_ROW_39_Right_39 VDD VSS TAPCELL_X1
XPHY_EDGE_ROW_40_Right_40 VDD VSS TAPCELL_X1
XPHY_EDGE_ROW_41_Right_41 VDD VSS TAPCELL_X1
XPHY_EDGE_ROW_42_Right_42 VDD VSS TAPCELL_X1
XPHY_EDGE_ROW_43_Right_43 VDD VSS TAPCELL_X1
XPHY_EDGE_ROW_44_Right_44 VDD VSS TAPCELL_X1
XPHY_EDGE_ROW_45_Right_45 VDD VSS TAPCELL_X1
XPHY_EDGE_ROW_46_Right_46 VDD VSS TAPCELL_X1
XPHY_EDGE_ROW_47_Right_47 VDD VSS TAPCELL_X1
XPHY_EDGE_ROW_48_Right_48 VDD VSS TAPCELL_X1
XPHY_EDGE_ROW_49_Right_49 VDD VSS TAPCELL_X1
XPHY_EDGE_ROW_50_Right_50 VDD VSS TAPCELL_X1
XPHY_EDGE_ROW_51_Right_51 VDD VSS TAPCELL_X1
XPHY_EDGE_ROW_52_Right_52 VDD VSS TAPCELL_X1
XPHY_EDGE_ROW_53_Right_53 VDD VSS TAPCELL_X1
XPHY_EDGE_ROW_54_Right_54 VDD VSS TAPCELL_X1
XPHY_EDGE_ROW_55_Right_55 VDD VSS TAPCELL_X1
XPHY_EDGE_ROW_56_Right_56 VDD VSS TAPCELL_X1
XPHY_EDGE_ROW_57_Right_57 VDD VSS TAPCELL_X1
XPHY_EDGE_ROW_58_Right_58 VDD VSS TAPCELL_X1
XPHY_EDGE_ROW_59_Right_59 VDD VSS TAPCELL_X1
XPHY_EDGE_ROW_60_Right_60 VDD VSS TAPCELL_X1
XPHY_EDGE_ROW_61_Right_61 VDD VSS TAPCELL_X1
XPHY_EDGE_ROW_62_Right_62 VDD VSS TAPCELL_X1
XPHY_EDGE_ROW_63_Right_63 VDD VSS TAPCELL_X1
XPHY_EDGE_ROW_64_Right_64 VDD VSS TAPCELL_X1
XPHY_EDGE_ROW_65_Right_65 VDD VSS TAPCELL_X1
XPHY_EDGE_ROW_66_Right_66 VDD VSS TAPCELL_X1
XPHY_EDGE_ROW_67_Right_67 VDD VSS TAPCELL_X1
XPHY_EDGE_ROW_68_Right_68 VDD VSS TAPCELL_X1
XPHY_EDGE_ROW_69_Right_69 VDD VSS TAPCELL_X1
XPHY_EDGE_ROW_70_Right_70 VDD VSS TAPCELL_X1
XPHY_EDGE_ROW_71_Right_71 VDD VSS TAPCELL_X1
XPHY_EDGE_ROW_72_Right_72 VDD VSS TAPCELL_X1
XPHY_EDGE_ROW_73_Right_73 VDD VSS TAPCELL_X1
XPHY_EDGE_ROW_74_Right_74 VDD VSS TAPCELL_X1
XPHY_EDGE_ROW_75_Right_75 VDD VSS TAPCELL_X1
XPHY_EDGE_ROW_76_Right_76 VDD VSS TAPCELL_X1
XPHY_EDGE_ROW_77_Right_77 VDD VSS TAPCELL_X1
XPHY_EDGE_ROW_78_Right_78 VDD VSS TAPCELL_X1
XPHY_EDGE_ROW_79_Right_79 VDD VSS TAPCELL_X1
XPHY_EDGE_ROW_80_Right_80 VDD VSS TAPCELL_X1
XPHY_EDGE_ROW_81_Right_81 VDD VSS TAPCELL_X1
XPHY_EDGE_ROW_82_Right_82 VDD VSS TAPCELL_X1
XPHY_EDGE_ROW_83_Right_83 VDD VSS TAPCELL_X1
XPHY_EDGE_ROW_84_Right_84 VDD VSS TAPCELL_X1
XPHY_EDGE_ROW_85_Right_85 VDD VSS TAPCELL_X1
XPHY_EDGE_ROW_86_Right_86 VDD VSS TAPCELL_X1
XPHY_EDGE_ROW_87_Right_87 VDD VSS TAPCELL_X1
XPHY_EDGE_ROW_88_Right_88 VDD VSS TAPCELL_X1
XPHY_EDGE_ROW_89_Right_89 VDD VSS TAPCELL_X1
XPHY_EDGE_ROW_90_Right_90 VDD VSS TAPCELL_X1
XPHY_EDGE_ROW_91_Right_91 VDD VSS TAPCELL_X1
XPHY_EDGE_ROW_92_Right_92 VDD VSS TAPCELL_X1
XPHY_EDGE_ROW_93_Right_93 VDD VSS TAPCELL_X1
XPHY_EDGE_ROW_94_Right_94 VDD VSS TAPCELL_X1
XPHY_EDGE_ROW_95_Right_95 VDD VSS TAPCELL_X1
XPHY_EDGE_ROW_96_Right_96 VDD VSS TAPCELL_X1
XPHY_EDGE_ROW_97_Right_97 VDD VSS TAPCELL_X1
XPHY_EDGE_ROW_98_Right_98 VDD VSS TAPCELL_X1
XPHY_EDGE_ROW_99_Right_99 VDD VSS TAPCELL_X1
XPHY_EDGE_ROW_100_Right_100 VDD VSS TAPCELL_X1
XPHY_EDGE_ROW_101_Right_101 VDD VSS TAPCELL_X1
XPHY_EDGE_ROW_102_Right_102 VDD VSS TAPCELL_X1
XPHY_EDGE_ROW_103_Right_103 VDD VSS TAPCELL_X1
XPHY_EDGE_ROW_104_Right_104 VDD VSS TAPCELL_X1
XPHY_EDGE_ROW_105_Right_105 VDD VSS TAPCELL_X1
XPHY_EDGE_ROW_106_Right_106 VDD VSS TAPCELL_X1
XPHY_EDGE_ROW_107_Right_107 VDD VSS TAPCELL_X1
XPHY_EDGE_ROW_108_Right_108 VDD VSS TAPCELL_X1
XPHY_EDGE_ROW_109_Right_109 VDD VSS TAPCELL_X1
XPHY_EDGE_ROW_110_Right_110 VDD VSS TAPCELL_X1
XPHY_EDGE_ROW_111_Right_111 VDD VSS TAPCELL_X1
XPHY_EDGE_ROW_112_Right_112 VDD VSS TAPCELL_X1
XPHY_EDGE_ROW_113_Right_113 VDD VSS TAPCELL_X1
XPHY_EDGE_ROW_114_Right_114 VDD VSS TAPCELL_X1
XPHY_EDGE_ROW_115_Right_115 VDD VSS TAPCELL_X1
XPHY_EDGE_ROW_116_Right_116 VDD VSS TAPCELL_X1
XPHY_EDGE_ROW_117_Right_117 VDD VSS TAPCELL_X1
XPHY_EDGE_ROW_118_Right_118 VDD VSS TAPCELL_X1
XPHY_EDGE_ROW_119_Right_119 VDD VSS TAPCELL_X1
XPHY_EDGE_ROW_120_Right_120 VDD VSS TAPCELL_X1
XPHY_EDGE_ROW_121_Right_121 VDD VSS TAPCELL_X1
XPHY_EDGE_ROW_122_Right_122 VDD VSS TAPCELL_X1
XPHY_EDGE_ROW_123_Right_123 VDD VSS TAPCELL_X1
XPHY_EDGE_ROW_124_Right_124 VDD VSS TAPCELL_X1
XPHY_EDGE_ROW_125_Right_125 VDD VSS TAPCELL_X1
XPHY_EDGE_ROW_126_Right_126 VDD VSS TAPCELL_X1
XPHY_EDGE_ROW_127_Right_127 VDD VSS TAPCELL_X1
XPHY_EDGE_ROW_128_Right_128 VDD VSS TAPCELL_X1
XPHY_EDGE_ROW_129_Right_129 VDD VSS TAPCELL_X1
XPHY_EDGE_ROW_130_Right_130 VDD VSS TAPCELL_X1
XPHY_EDGE_ROW_131_Right_131 VDD VSS TAPCELL_X1
XPHY_EDGE_ROW_132_Right_132 VDD VSS TAPCELL_X1
XPHY_EDGE_ROW_133_Right_133 VDD VSS TAPCELL_X1
XPHY_EDGE_ROW_134_Right_134 VDD VSS TAPCELL_X1
XPHY_EDGE_ROW_135_Right_135 VDD VSS TAPCELL_X1
XPHY_EDGE_ROW_136_Right_136 VDD VSS TAPCELL_X1
XPHY_EDGE_ROW_137_Right_137 VDD VSS TAPCELL_X1
XPHY_EDGE_ROW_138_Right_138 VDD VSS TAPCELL_X1
XPHY_EDGE_ROW_139_Right_139 VDD VSS TAPCELL_X1
XPHY_EDGE_ROW_140_Right_140 VDD VSS TAPCELL_X1
XPHY_EDGE_ROW_141_Right_141 VDD VSS TAPCELL_X1
XPHY_EDGE_ROW_142_Right_142 VDD VSS TAPCELL_X1
XPHY_EDGE_ROW_143_Right_143 VDD VSS TAPCELL_X1
XPHY_EDGE_ROW_144_Right_144 VDD VSS TAPCELL_X1
XPHY_EDGE_ROW_145_Right_145 VDD VSS TAPCELL_X1
XPHY_EDGE_ROW_146_Right_146 VDD VSS TAPCELL_X1
XPHY_EDGE_ROW_147_Right_147 VDD VSS TAPCELL_X1
XPHY_EDGE_ROW_148_Right_148 VDD VSS TAPCELL_X1
XPHY_EDGE_ROW_149_Right_149 VDD VSS TAPCELL_X1
XPHY_EDGE_ROW_150_Right_150 VDD VSS TAPCELL_X1
XPHY_EDGE_ROW_151_Right_151 VDD VSS TAPCELL_X1
XPHY_EDGE_ROW_152_Right_152 VDD VSS TAPCELL_X1
XPHY_EDGE_ROW_153_Right_153 VDD VSS TAPCELL_X1
XPHY_EDGE_ROW_154_Right_154 VDD VSS TAPCELL_X1
XPHY_EDGE_ROW_155_Right_155 VDD VSS TAPCELL_X1
XPHY_EDGE_ROW_156_Right_156 VDD VSS TAPCELL_X1
XPHY_EDGE_ROW_157_Right_157 VDD VSS TAPCELL_X1
XPHY_EDGE_ROW_158_Right_158 VDD VSS TAPCELL_X1
XPHY_EDGE_ROW_159_Right_159 VDD VSS TAPCELL_X1
XPHY_EDGE_ROW_160_Right_160 VDD VSS TAPCELL_X1
XPHY_EDGE_ROW_161_Right_161 VDD VSS TAPCELL_X1
XPHY_EDGE_ROW_162_Right_162 VDD VSS TAPCELL_X1
XPHY_EDGE_ROW_163_Right_163 VDD VSS TAPCELL_X1
XPHY_EDGE_ROW_164_Right_164 VDD VSS TAPCELL_X1
XPHY_EDGE_ROW_165_Right_165 VDD VSS TAPCELL_X1
XPHY_EDGE_ROW_166_Right_166 VDD VSS TAPCELL_X1