* CDL Netlist generated by OpenROAD

*.BUSDELIMITER [

.SUBCKT multi_ported_fifo almost_empty almost_full clk data_count[0]
+ data_count[1] data_count[2] data_count[3] data_count[4] empty
+ full rd_data[0] rd_data[10] rd_data[11] rd_data[12] rd_data[13]
+ rd_data[14] rd_data[15] rd_data[16] rd_data[17] rd_data[18]
+ rd_data[19] rd_data[1] rd_data[20] rd_data[21] rd_data[22]
+ rd_data[23] rd_data[24] rd_data[25] rd_data[26] rd_data[27]
+ rd_data[28] rd_data[29] rd_data[2] rd_data[30] rd_data[31]
+ rd_data[32] rd_data[33] rd_data[34] rd_data[35] rd_data[36]
+ rd_data[37] rd_data[38] rd_data[39] rd_data[3] rd_data[40]
+ rd_data[41] rd_data[42] rd_data[43] rd_data[44] rd_data[45]
+ rd_data[46] rd_data[47] rd_data[48] rd_data[49] rd_data[4]
+ rd_data[50] rd_data[51] rd_data[52] rd_data[53] rd_data[54]
+ rd_data[55] rd_data[56] rd_data[57] rd_data[58] rd_data[59]
+ rd_data[5] rd_data[60] rd_data[61] rd_data[62] rd_data[63]
+ rd_data[6] rd_data[7] rd_data[8] rd_data[9] rd_en[0] rd_en[1]
+ rd_valid[0] rd_valid[1] rst_n wr_data[0] wr_data[10] wr_data[11]
+ wr_data[12] wr_data[13] wr_data[14] wr_data[15] wr_data[16]
+ wr_data[17] wr_data[18] wr_data[19] wr_data[1] wr_data[20]
+ wr_data[21] wr_data[22] wr_data[23] wr_data[24] wr_data[25]
+ wr_data[26] wr_data[27] wr_data[28] wr_data[29] wr_data[2]
+ wr_data[30] wr_data[31] wr_data[32] wr_data[33] wr_data[34]
+ wr_data[35] wr_data[36] wr_data[37] wr_data[38] wr_data[39]
+ wr_data[3] wr_data[40] wr_data[41] wr_data[42] wr_data[43]
+ wr_data[44] wr_data[45] wr_data[46] wr_data[47] wr_data[48]
+ wr_data[49] wr_data[4] wr_data[50] wr_data[51] wr_data[52]
+ wr_data[53] wr_data[54] wr_data[55] wr_data[56] wr_data[57]
+ wr_data[58] wr_data[59] wr_data[5] wr_data[60] wr_data[61]
+ wr_data[62] wr_data[63] wr_data[6] wr_data[7] wr_data[8] wr_data[9]
+ wr_en[0] wr_en[1] wr_ready[0] wr_ready[1]
X_2762_ _2116_ _2293_ _2300_ _2304_ _2305_ VDD VSS gf180mcu_fd_sc_mcu9t5v0__nand4_2
X_2763_ mem\[12\]\[25\] mem\[14\]\[25\] _1994_ _2306_ VDD
+ VSS gf180mcu_fd_sc_mcu9t5v0__mux2_2
X_2764_ _2203_ _1968_ _2306_ _2307_ VDD VSS gf180mcu_fd_sc_mcu9t5v0__and3_2
X_2765_ _1786_ _2308_ VDD VSS gf180mcu_fd_sc_mcu9t5v0__buf_4
X_2766_ _2256_ _1586_ _2308_ _2309_ VDD VSS gf180mcu_fd_sc_mcu9t5v0__and3_2
X_2767_ _1803_ _2310_ VDD VSS gf180mcu_fd_sc_mcu9t5v0__clkbuf_8
X_2768_ mem\[9\]\[25\] mem\[11\]\[25\] mem\[13\]\[25\] mem\[15\]\[25\]
+ _2079_ _2310_ _2311_ VDD VSS gf180mcu_fd_sc_mcu9t5v0__mux4_2
X_2769_ _1376_ _2312_ VDD VSS gf180mcu_fd_sc_mcu9t5v0__buf_8
X_2770_ _1585_ _1591_ _2312_ _2313_ VDD VSS gf180mcu_fd_sc_mcu9t5v0__mux2_2
X_2771_ _2712_ _2314_ VDD VSS gf180mcu_fd_sc_mcu9t5v0__buf_8
X_2772_ mem\[8\]\[25\] mem\[10\]\[25\] _2314_ _2315_ VDD VSS
+ gf180mcu_fd_sc_mcu9t5v0__mux2_2
X_2773_ _2109_ _2315_ _2316_ VDD VSS gf180mcu_fd_sc_mcu9t5v0__and2_2
X_2774_ _2030_ _1590_ _2317_ VDD VSS gf180mcu_fd_sc_mcu9t5v0__and2_2
X_2775_ _2311_ _2313_ _2316_ _2317_ _2057_ _2003_ _2318_ VDD
+ VSS gf180mcu_fd_sc_mcu9t5v0__mux4_2
X_2776_ _2133_ _2307_ _2309_ _2318_ _2319_ VDD VSS gf180mcu_fd_sc_mcu9t5v0__or4_2
X_2777_ _2290_ _2305_ _2319_ _0568_ VDD VSS gf180mcu_fd_sc_mcu9t5v0__and3_2
X_2778_ net132 _2186_ _2320_ VDD VSS gf180mcu_fd_sc_mcu9t5v0__or2_2
X_2779_ _2061_ mem\[0\]\[26\] _2188_ _2088_ mem\[1\]\[26\]
+ _2321_ VDD VSS gf180mcu_fd_sc_mcu9t5v0__oai32_2
X_2780_ _2063_ mem\[2\]\[26\] _2008_ _2090_ mem\[3\]\[26\]
+ _2322_ VDD VSS gf180mcu_fd_sc_mcu9t5v0__oai32_2
X_2781_ _2117_ _2118_ _2321_ _2322_ _2323_ VDD VSS gf180mcu_fd_sc_mcu9t5v0__or4_2
X_2782_ mem\[4\]\[26\] mem\[6\]\[26\] _2294_ _2324_ VDD VSS
+ gf180mcu_fd_sc_mcu9t5v0__mux2_2
X_2783_ _1596_ _2324_ _2296_ _2325_ VDD VSS gf180mcu_fd_sc_mcu9t5v0__mux2_2
X_2784_ mem\[5\]\[26\] mem\[7\]\[26\] _2013_ _2326_ VDD VSS
+ gf180mcu_fd_sc_mcu9t5v0__mux2_2
X_2785_ _1595_ _2326_ _2041_ _2327_ VDD VSS gf180mcu_fd_sc_mcu9t5v0__mux2_2
X_2786_ _2122_ _2325_ _2327_ _2097_ _2328_ VDD VSS gf180mcu_fd_sc_mcu9t5v0__aoi22_2
X_2787_ _1805_ _2329_ VDD VSS gf180mcu_fd_sc_mcu9t5v0__buf_4
X_2788_ mem\[0\]\[26\] mem\[2\]\[26\] _2197_ _2330_ VDD VSS
+ gf180mcu_fd_sc_mcu9t5v0__mux2_2
X_2789_ _2329_ _2330_ _2331_ VDD VSS gf180mcu_fd_sc_mcu9t5v0__and2_2
X_2790_ _1990_ _2019_ _1600_ _2332_ VDD VSS gf180mcu_fd_sc_mcu9t5v0__and3_2
X_2791_ _2331_ _2332_ _2251_ _2333_ VDD VSS gf180mcu_fd_sc_mcu9t5v0__oai21_2
X_2792_ _2116_ _2323_ _2328_ _2333_ _2334_ VDD VSS gf180mcu_fd_sc_mcu9t5v0__nand4_2
X_2793_ _1818_ _2335_ VDD VSS gf180mcu_fd_sc_mcu9t5v0__clkbuf_8
X_2794_ mem\[12\]\[26\] mem\[14\]\[26\] _1994_ _2336_ VDD
+ VSS gf180mcu_fd_sc_mcu9t5v0__mux2_2
X_2795_ _2203_ _2335_ _2336_ _2337_ VDD VSS gf180mcu_fd_sc_mcu9t5v0__and3_2
X_2796_ _2256_ _1598_ _2308_ _2338_ VDD VSS gf180mcu_fd_sc_mcu9t5v0__and3_2
X_2797_ mem\[9\]\[26\] mem\[11\]\[26\] mem\[13\]\[26\] mem\[15\]\[26\]
+ _2079_ _2310_ _2339_ VDD VSS gf180mcu_fd_sc_mcu9t5v0__mux4_2
X_2798_ _1597_ _1604_ _2312_ _2340_ VDD VSS gf180mcu_fd_sc_mcu9t5v0__mux2_2
X_2799_ mem\[8\]\[26\] mem\[10\]\[26\] _2314_ _2341_ VDD VSS
+ gf180mcu_fd_sc_mcu9t5v0__mux2_2
X_2800_ _2109_ _2341_ _2342_ VDD VSS gf180mcu_fd_sc_mcu9t5v0__and2_2
X_2801_ _2030_ _1603_ _2343_ VDD VSS gf180mcu_fd_sc_mcu9t5v0__and2_2
X_2802_ _2339_ _2340_ _2342_ _2343_ _2057_ _2003_ _2344_ VDD
+ VSS gf180mcu_fd_sc_mcu9t5v0__mux4_2
X_2803_ _2133_ _2337_ _2338_ _2344_ _2345_ VDD VSS gf180mcu_fd_sc_mcu9t5v0__or4_2
X_2804_ _2320_ _2334_ _2345_ _0569_ VDD VSS gf180mcu_fd_sc_mcu9t5v0__and3_2
X_2805_ net133 _2186_ _2346_ VDD VSS gf180mcu_fd_sc_mcu9t5v0__or2_2
X_2806_ _2061_ mem\[0\]\[27\] _2188_ _2088_ mem\[1\]\[27\]
+ _2347_ VDD VSS gf180mcu_fd_sc_mcu9t5v0__oai32_2
X_2807_ _2063_ mem\[2\]\[27\] _2008_ _2090_ mem\[3\]\[27\]
+ _2348_ VDD VSS gf180mcu_fd_sc_mcu9t5v0__oai32_2
X_2808_ _2117_ _2118_ _2347_ _2348_ _2349_ VDD VSS gf180mcu_fd_sc_mcu9t5v0__or4_2
X_2809_ mem\[4\]\[27\] mem\[6\]\[27\] _2294_ _2350_ VDD VSS
+ gf180mcu_fd_sc_mcu9t5v0__mux2_2
X_2810_ _1609_ _2350_ _2296_ _2351_ VDD VSS gf180mcu_fd_sc_mcu9t5v0__mux2_2
X_2811_ mem\[5\]\[27\] mem\[7\]\[27\] _2013_ _2352_ VDD VSS
+ gf180mcu_fd_sc_mcu9t5v0__mux2_2
X_2812_ _1608_ _2352_ _2041_ _2353_ VDD VSS gf180mcu_fd_sc_mcu9t5v0__mux2_2
X_2813_ _2122_ _2351_ _2353_ _2097_ _2354_ VDD VSS gf180mcu_fd_sc_mcu9t5v0__aoi22_2
X_2814_ mem\[0\]\[27\] mem\[2\]\[27\] _2197_ _2355_ VDD VSS
+ gf180mcu_fd_sc_mcu9t5v0__mux2_2
X_2815_ _2329_ _2355_ _2356_ VDD VSS gf180mcu_fd_sc_mcu9t5v0__and2_2
X_2816_ _1732_ _2357_ VDD VSS gf180mcu_fd_sc_mcu9t5v0__buf_4
X_2817_ _2357_ _2019_ _1614_ _2358_ VDD VSS gf180mcu_fd_sc_mcu9t5v0__and3_2
X_2818_ _2356_ _2358_ _2251_ _2359_ VDD VSS gf180mcu_fd_sc_mcu9t5v0__oai21_2
X_2819_ _2116_ _2349_ _2354_ _2359_ _2360_ VDD VSS gf180mcu_fd_sc_mcu9t5v0__nand4_2
X_2820_ _1782_ _2361_ VDD VSS gf180mcu_fd_sc_mcu9t5v0__buf_8
X_2821_ mem\[12\]\[27\] mem\[14\]\[27\] _2361_ _2362_ VDD
+ VSS gf180mcu_fd_sc_mcu9t5v0__mux2_2
X_2822_ _2203_ _2335_ _2362_ _2363_ VDD VSS gf180mcu_fd_sc_mcu9t5v0__and3_2
X_2823_ _2256_ _1611_ _2308_ _2364_ VDD VSS gf180mcu_fd_sc_mcu9t5v0__and3_2
X_2824_ mem\[9\]\[27\] mem\[11\]\[27\] mem\[13\]\[27\] mem\[15\]\[27\]
+ _2079_ _2310_ _2365_ VDD VSS gf180mcu_fd_sc_mcu9t5v0__mux4_2
X_2825_ _1610_ _1618_ _2312_ _2366_ VDD VSS gf180mcu_fd_sc_mcu9t5v0__mux2_2
X_2826_ mem\[8\]\[27\] mem\[10\]\[27\] _2314_ _2367_ VDD VSS
+ gf180mcu_fd_sc_mcu9t5v0__mux2_2
X_2827_ _2109_ _2367_ _2368_ VDD VSS gf180mcu_fd_sc_mcu9t5v0__and2_2
X_2828_ _2030_ _1617_ _2369_ VDD VSS gf180mcu_fd_sc_mcu9t5v0__and2_2
X_2829_ _1534_ _2370_ VDD VSS gf180mcu_fd_sc_mcu9t5v0__clkbuf_8
X_2830_ _2365_ _2366_ _2368_ _2369_ _2057_ _2370_ _2371_ VDD
+ VSS gf180mcu_fd_sc_mcu9t5v0__mux4_2
X_2831_ _2133_ _2363_ _2364_ _2371_ _2372_ VDD VSS gf180mcu_fd_sc_mcu9t5v0__or4_2
X_2832_ _2346_ _2360_ _2372_ _0570_ VDD VSS gf180mcu_fd_sc_mcu9t5v0__and3_2
X_2833_ net135 _2186_ _2373_ VDD VSS gf180mcu_fd_sc_mcu9t5v0__or2_2
X_2834_ _2061_ mem\[0\]\[28\] _2188_ _2088_ mem\[1\]\[28\]
+ _2374_ VDD VSS gf180mcu_fd_sc_mcu9t5v0__oai32_2
X_2835_ _2063_ mem\[2\]\[28\] _2172_ _2090_ mem\[3\]\[28\]
+ _2375_ VDD VSS gf180mcu_fd_sc_mcu9t5v0__oai32_2
X_2836_ _2117_ _2118_ _2374_ _2375_ _2376_ VDD VSS gf180mcu_fd_sc_mcu9t5v0__or4_2
X_2837_ mem\[4\]\[28\] mem\[6\]\[28\] _2294_ _2377_ VDD VSS
+ gf180mcu_fd_sc_mcu9t5v0__mux2_2
X_2838_ _1624_ _2377_ _2296_ _2378_ VDD VSS gf180mcu_fd_sc_mcu9t5v0__mux2_2
X_2839_ mem\[5\]\[28\] mem\[7\]\[28\] _2170_ _2379_ VDD VSS
+ gf180mcu_fd_sc_mcu9t5v0__mux2_2
X_2840_ _1623_ _2379_ _2041_ _2380_ VDD VSS gf180mcu_fd_sc_mcu9t5v0__mux2_2
X_2841_ _2122_ _2378_ _2380_ _2097_ _2381_ VDD VSS gf180mcu_fd_sc_mcu9t5v0__aoi22_2
X_2842_ mem\[0\]\[28\] mem\[2\]\[28\] _2197_ _2382_ VDD VSS
+ gf180mcu_fd_sc_mcu9t5v0__mux2_2
X_2843_ _2329_ _2382_ _2383_ VDD VSS gf180mcu_fd_sc_mcu9t5v0__and2_2
X_2844_ _2357_ _2151_ _1628_ _2384_ VDD VSS gf180mcu_fd_sc_mcu9t5v0__and3_2
X_2845_ _2383_ _2384_ _2251_ _2385_ VDD VSS gf180mcu_fd_sc_mcu9t5v0__oai21_2
X_2846_ _2116_ _2376_ _2381_ _2385_ _2386_ VDD VSS gf180mcu_fd_sc_mcu9t5v0__nand4_2
X_2847_ mem\[12\]\[28\] mem\[14\]\[28\] _2361_ _2387_ VDD
+ VSS gf180mcu_fd_sc_mcu9t5v0__mux2_2
X_2848_ _2203_ _2335_ _2387_ _2388_ VDD VSS gf180mcu_fd_sc_mcu9t5v0__and3_2
X_2849_ _2256_ _1626_ _2308_ _2389_ VDD VSS gf180mcu_fd_sc_mcu9t5v0__and3_2
X_2850_ mem\[9\]\[28\] mem\[11\]\[28\] mem\[13\]\[28\] mem\[15\]\[28\]
+ _2079_ _2310_ _2390_ VDD VSS gf180mcu_fd_sc_mcu9t5v0__mux4_2
X_2851_ _1625_ _1631_ _2312_ _2391_ VDD VSS gf180mcu_fd_sc_mcu9t5v0__mux2_2
X_2852_ mem\[8\]\[28\] mem\[10\]\[28\] _2314_ _2392_ VDD VSS
+ gf180mcu_fd_sc_mcu9t5v0__mux2_2
X_2853_ _2109_ _2392_ _2393_ VDD VSS gf180mcu_fd_sc_mcu9t5v0__and2_2
X_2854_ _2152_ _1630_ _2394_ VDD VSS gf180mcu_fd_sc_mcu9t5v0__and2_2
X_2855_ _2390_ _2391_ _2393_ _2394_ _2057_ _2370_ _2395_ VDD
+ VSS gf180mcu_fd_sc_mcu9t5v0__mux4_2
X_2856_ _2133_ _2388_ _2389_ _2395_ _2396_ VDD VSS gf180mcu_fd_sc_mcu9t5v0__or4_2
X_2857_ _2373_ _2386_ _2396_ _0571_ VDD VSS gf180mcu_fd_sc_mcu9t5v0__and3_2
X_2858_ net136 _2186_ _2397_ VDD VSS gf180mcu_fd_sc_mcu9t5v0__or2_2
X_2859_ _2061_ mem\[0\]\[29\] _2188_ _2088_ mem\[1\]\[29\]
+ _2398_ VDD VSS gf180mcu_fd_sc_mcu9t5v0__oai32_2
X_2860_ _2063_ mem\[2\]\[29\] _2172_ _2090_ mem\[3\]\[29\]
+ _2399_ VDD VSS gf180mcu_fd_sc_mcu9t5v0__oai32_2
X_2861_ _2117_ _2118_ _2398_ _2399_ _2400_ VDD VSS gf180mcu_fd_sc_mcu9t5v0__or4_2
X_2862_ mem\[4\]\[29\] mem\[6\]\[29\] _2294_ _2401_ VDD VSS
+ gf180mcu_fd_sc_mcu9t5v0__mux2_2
X_2863_ _1635_ _2401_ _2296_ _2402_ VDD VSS gf180mcu_fd_sc_mcu9t5v0__mux2_2
X_2864_ mem\[5\]\[29\] mem\[7\]\[29\] _2170_ _2403_ VDD VSS
+ gf180mcu_fd_sc_mcu9t5v0__mux2_2
X_2865_ _1634_ _2403_ _1771_ _2404_ VDD VSS gf180mcu_fd_sc_mcu9t5v0__mux2_2
X_2866_ _2122_ _2402_ _2404_ _2097_ _2405_ VDD VSS gf180mcu_fd_sc_mcu9t5v0__aoi22_2
X_2867_ mem\[0\]\[29\] mem\[2\]\[29\] _2197_ _2406_ VDD VSS
+ gf180mcu_fd_sc_mcu9t5v0__mux2_2
X_2868_ _2329_ _2406_ _2407_ VDD VSS gf180mcu_fd_sc_mcu9t5v0__and2_2
X_2869_ _2357_ _2151_ _1639_ _2408_ VDD VSS gf180mcu_fd_sc_mcu9t5v0__and3_2
X_2870_ _2407_ _2408_ _2251_ _2409_ VDD VSS gf180mcu_fd_sc_mcu9t5v0__oai21_2
X_2871_ _2116_ _2400_ _2405_ _2409_ _2410_ VDD VSS gf180mcu_fd_sc_mcu9t5v0__nand4_2
X_2872_ mem\[12\]\[29\] mem\[14\]\[29\] _2361_ _2411_ VDD
+ VSS gf180mcu_fd_sc_mcu9t5v0__mux2_2
X_2873_ _2203_ _2335_ _2411_ _2412_ VDD VSS gf180mcu_fd_sc_mcu9t5v0__and3_2
X_2874_ _2256_ _1637_ _2308_ _2413_ VDD VSS gf180mcu_fd_sc_mcu9t5v0__and3_2
X_2875_ mem\[9\]\[29\] mem\[11\]\[29\] mem\[13\]\[29\] mem\[15\]\[29\]
+ _2079_ _2310_ _2414_ VDD VSS gf180mcu_fd_sc_mcu9t5v0__mux4_2
X_2876_ _1636_ _1642_ _2312_ _2415_ VDD VSS gf180mcu_fd_sc_mcu9t5v0__mux2_2
X_2877_ mem\[8\]\[29\] mem\[10\]\[29\] _2314_ _2416_ VDD VSS
+ gf180mcu_fd_sc_mcu9t5v0__mux2_2
X_2878_ _2109_ _2416_ _2417_ VDD VSS gf180mcu_fd_sc_mcu9t5v0__and2_2
X_2879_ _2152_ _1641_ _2418_ VDD VSS gf180mcu_fd_sc_mcu9t5v0__and2_2
X_2880_ _2414_ _2415_ _2417_ _2418_ _1913_ _2370_ _2419_ VDD
+ VSS gf180mcu_fd_sc_mcu9t5v0__mux4_2
X_2881_ _2133_ _2412_ _2413_ _2419_ _2420_ VDD VSS gf180mcu_fd_sc_mcu9t5v0__or4_2
X_2882_ _2397_ _2410_ _2420_ _0572_ VDD VSS gf180mcu_fd_sc_mcu9t5v0__and3_2
X_2883_ net106 _2186_ _2421_ VDD VSS gf180mcu_fd_sc_mcu9t5v0__or2_2
X_2884_ _2162_ mem\[0\]\[2\] _2188_ _2088_ mem\[1\]\[2\] _2422_
+ VDD VSS gf180mcu_fd_sc_mcu9t5v0__oai32_2
X_2885_ _2166_ mem\[2\]\[2\] _2172_ _2090_ mem\[3\]\[2\] _2423_
+ VDD VSS gf180mcu_fd_sc_mcu9t5v0__oai32_2
X_2886_ _2117_ _2118_ _2422_ _2423_ _2424_ VDD VSS gf180mcu_fd_sc_mcu9t5v0__or4_2
X_2887_ mem\[4\]\[2\] mem\[6\]\[2\] _2294_ _2425_ VDD VSS
+ gf180mcu_fd_sc_mcu9t5v0__mux2_2
X_2888_ _1646_ _2425_ _2296_ _2426_ VDD VSS gf180mcu_fd_sc_mcu9t5v0__mux2_2
X_2889_ mem\[5\]\[2\] mem\[7\]\[2\] _2170_ _2427_ VDD VSS
+ gf180mcu_fd_sc_mcu9t5v0__mux2_2
X_2890_ _1645_ _2427_ _1771_ _2428_ VDD VSS gf180mcu_fd_sc_mcu9t5v0__mux2_2
X_2891_ _2122_ _2426_ _2428_ _2097_ _2429_ VDD VSS gf180mcu_fd_sc_mcu9t5v0__aoi22_2
X_2892_ mem\[0\]\[2\] mem\[2\]\[2\] _2197_ _2430_ VDD VSS
+ gf180mcu_fd_sc_mcu9t5v0__mux2_2
X_2893_ _2329_ _2430_ _2431_ VDD VSS gf180mcu_fd_sc_mcu9t5v0__and2_2
X_2894_ _2357_ _2151_ _1650_ _2432_ VDD VSS gf180mcu_fd_sc_mcu9t5v0__and3_2
X_2895_ _2431_ _2432_ _2251_ _2433_ VDD VSS gf180mcu_fd_sc_mcu9t5v0__oai21_2
X_2896_ _2116_ _2424_ _2429_ _2433_ _2434_ VDD VSS gf180mcu_fd_sc_mcu9t5v0__nand4_2
X_2897_ mem\[12\]\[2\] mem\[14\]\[2\] _2361_ _2435_ VDD VSS
+ gf180mcu_fd_sc_mcu9t5v0__mux2_2
X_2898_ _2203_ _2335_ _2435_ _2436_ VDD VSS gf180mcu_fd_sc_mcu9t5v0__and3_2
X_2899_ _2256_ _1648_ _2308_ _2437_ VDD VSS gf180mcu_fd_sc_mcu9t5v0__and3_2
X_2900_ mem\[9\]\[2\] mem\[11\]\[2\] mem\[13\]\[2\] mem\[15\]\[2\]
+ _1800_ _2310_ _2438_ VDD VSS gf180mcu_fd_sc_mcu9t5v0__mux4_2
X_2901_ _1647_ _1653_ _2312_ _2439_ VDD VSS gf180mcu_fd_sc_mcu9t5v0__mux2_2
X_2902_ mem\[8\]\[2\] mem\[10\]\[2\] _2314_ _2440_ VDD VSS
+ gf180mcu_fd_sc_mcu9t5v0__mux2_2
X_2903_ _2109_ _2440_ _2441_ VDD VSS gf180mcu_fd_sc_mcu9t5v0__and2_2
X_2904_ _2152_ _1652_ _2442_ VDD VSS gf180mcu_fd_sc_mcu9t5v0__and2_2
X_2905_ _2438_ _2439_ _2441_ _2442_ _1913_ _2370_ _2443_ VDD
+ VSS gf180mcu_fd_sc_mcu9t5v0__mux4_2
X_2906_ _2133_ _2436_ _2437_ _2443_ _2444_ VDD VSS gf180mcu_fd_sc_mcu9t5v0__or4_2
X_2907_ _2421_ _2434_ _2444_ _0573_ VDD VSS gf180mcu_fd_sc_mcu9t5v0__and3_2
X_2908_ net137 _2186_ _2445_ VDD VSS gf180mcu_fd_sc_mcu9t5v0__or2_2
X_2909_ _2162_ mem\[0\]\[30\] _2188_ _2164_ mem\[1\]\[30\]
+ _2446_ VDD VSS gf180mcu_fd_sc_mcu9t5v0__oai32_2
X_2910_ _2166_ mem\[2\]\[30\] _2172_ _2167_ mem\[3\]\[30\]
+ _2447_ VDD VSS gf180mcu_fd_sc_mcu9t5v0__oai32_2
X_2911_ _2117_ _2118_ _2446_ _2447_ _2448_ VDD VSS gf180mcu_fd_sc_mcu9t5v0__or4_2
X_2912_ mem\[4\]\[30\] mem\[6\]\[30\] _2294_ _2449_ VDD VSS
+ gf180mcu_fd_sc_mcu9t5v0__mux2_2
X_2913_ _1657_ _2449_ _2296_ _2450_ VDD VSS gf180mcu_fd_sc_mcu9t5v0__mux2_2
X_2914_ mem\[5\]\[30\] mem\[7\]\[30\] _2170_ _2451_ VDD VSS
+ gf180mcu_fd_sc_mcu9t5v0__mux2_2
X_2915_ _1656_ _2451_ _1771_ _2452_ VDD VSS gf180mcu_fd_sc_mcu9t5v0__mux2_2
X_2916_ _2122_ _2450_ _2452_ _2178_ _2453_ VDD VSS gf180mcu_fd_sc_mcu9t5v0__aoi22_2
X_2917_ mem\[0\]\[30\] mem\[2\]\[30\] _2197_ _2454_ VDD VSS
+ gf180mcu_fd_sc_mcu9t5v0__mux2_2
X_2918_ _2329_ _2454_ _2455_ VDD VSS gf180mcu_fd_sc_mcu9t5v0__and2_2
X_2919_ _2357_ _2151_ _1661_ _2456_ VDD VSS gf180mcu_fd_sc_mcu9t5v0__and3_2
X_2920_ _2455_ _2456_ _2251_ _2457_ VDD VSS gf180mcu_fd_sc_mcu9t5v0__oai21_2
X_2921_ _2116_ _2448_ _2453_ _2457_ _2458_ VDD VSS gf180mcu_fd_sc_mcu9t5v0__nand4_2
X_2922_ mem\[12\]\[30\] mem\[14\]\[30\] _2361_ _2459_ VDD
+ VSS gf180mcu_fd_sc_mcu9t5v0__mux2_2
X_2923_ _2203_ _2335_ _2459_ _2460_ VDD VSS gf180mcu_fd_sc_mcu9t5v0__and3_2
X_2924_ _2256_ _1659_ _2308_ _2461_ VDD VSS gf180mcu_fd_sc_mcu9t5v0__and3_2
X_2925_ mem\[9\]\[30\] mem\[11\]\[30\] mem\[13\]\[30\] mem\[15\]\[30\]
+ _1800_ _2310_ _2462_ VDD VSS gf180mcu_fd_sc_mcu9t5v0__mux4_2
X_2926_ _1658_ _1664_ _2312_ _2463_ VDD VSS gf180mcu_fd_sc_mcu9t5v0__mux2_2
X_2927_ mem\[8\]\[30\] mem\[10\]\[30\] _2314_ _2464_ VDD VSS
+ gf180mcu_fd_sc_mcu9t5v0__mux2_2
X_2928_ _1826_ _2464_ _2465_ VDD VSS gf180mcu_fd_sc_mcu9t5v0__and2_2
X_2929_ _2152_ _1663_ _2466_ VDD VSS gf180mcu_fd_sc_mcu9t5v0__and2_2
X_2930_ _2462_ _2463_ _2465_ _2466_ _1913_ _2370_ _2467_ VDD
+ VSS gf180mcu_fd_sc_mcu9t5v0__mux4_2
X_2931_ _2133_ _2460_ _2461_ _2467_ _2468_ VDD VSS gf180mcu_fd_sc_mcu9t5v0__or4_2
X_2932_ _2445_ _2458_ _2468_ _0574_ VDD VSS gf180mcu_fd_sc_mcu9t5v0__and3_2
X_2933_ net138 _2186_ _2469_ VDD VSS gf180mcu_fd_sc_mcu9t5v0__or2_2
X_2934_ _2162_ mem\[0\]\[31\] _2188_ _2164_ mem\[1\]\[31\]
+ _2470_ VDD VSS gf180mcu_fd_sc_mcu9t5v0__oai32_2
X_2935_ _2166_ mem\[2\]\[31\] _2172_ _2167_ mem\[3\]\[31\]
+ _2471_ VDD VSS gf180mcu_fd_sc_mcu9t5v0__oai32_2
X_2936_ _2161_ _1769_ _2470_ _2471_ _2472_ VDD VSS gf180mcu_fd_sc_mcu9t5v0__or4_2
X_2937_ mem\[4\]\[31\] mem\[6\]\[31\] _2294_ _2473_ VDD VSS
+ gf180mcu_fd_sc_mcu9t5v0__mux2_2
X_2938_ _1668_ _2473_ _2296_ _2474_ VDD VSS gf180mcu_fd_sc_mcu9t5v0__mux2_2
X_2939_ mem\[5\]\[31\] mem\[7\]\[31\] _2170_ _2475_ VDD VSS
+ gf180mcu_fd_sc_mcu9t5v0__mux2_2
X_2940_ _1667_ _2475_ _1771_ _2476_ VDD VSS gf180mcu_fd_sc_mcu9t5v0__mux2_2
X_2941_ _1790_ _2474_ _2476_ _2178_ _2477_ VDD VSS gf180mcu_fd_sc_mcu9t5v0__aoi22_2
X_2942_ mem\[0\]\[31\] mem\[2\]\[31\] _2197_ _2478_ VDD VSS
+ gf180mcu_fd_sc_mcu9t5v0__mux2_2
X_2943_ _2329_ _2478_ _2479_ VDD VSS gf180mcu_fd_sc_mcu9t5v0__and2_2
X_2944_ _2357_ _2151_ _1672_ _2480_ VDD VSS gf180mcu_fd_sc_mcu9t5v0__and3_2
X_2945_ _2479_ _2480_ _2251_ _2481_ VDD VSS gf180mcu_fd_sc_mcu9t5v0__oai21_2
X_2946_ _2144_ _2472_ _2477_ _2481_ _2482_ VDD VSS gf180mcu_fd_sc_mcu9t5v0__nand4_2
X_2947_ mem\[12\]\[31\] mem\[14\]\[31\] _2361_ _2483_ VDD
+ VSS gf180mcu_fd_sc_mcu9t5v0__mux2_2
X_2948_ _2203_ _2335_ _2483_ _2484_ VDD VSS gf180mcu_fd_sc_mcu9t5v0__and3_2
X_2949_ _2256_ _1670_ _2308_ _2485_ VDD VSS gf180mcu_fd_sc_mcu9t5v0__and3_2
X_2950_ mem\[9\]\[31\] mem\[11\]\[31\] mem\[13\]\[31\] mem\[15\]\[31\]
+ _1800_ _2310_ _2486_ VDD VSS gf180mcu_fd_sc_mcu9t5v0__mux4_2
X_2951_ _1669_ _1675_ _2312_ _2487_ VDD VSS gf180mcu_fd_sc_mcu9t5v0__mux2_2
X_2952_ mem\[8\]\[31\] mem\[10\]\[31\] _2314_ _2488_ VDD VSS
+ gf180mcu_fd_sc_mcu9t5v0__mux2_2
X_2953_ _1826_ _2488_ _2489_ VDD VSS gf180mcu_fd_sc_mcu9t5v0__and2_2
X_2954_ _2152_ _1674_ _2490_ VDD VSS gf180mcu_fd_sc_mcu9t5v0__and2_2
X_2955_ _2486_ _2487_ _2489_ _2490_ _1913_ _2370_ _2491_ VDD
+ VSS gf180mcu_fd_sc_mcu9t5v0__mux4_2
X_2956_ _1855_ _2484_ _2485_ _2491_ _2492_ VDD VSS gf180mcu_fd_sc_mcu9t5v0__or4_2
X_2957_ _2469_ _2482_ _2492_ _0575_ VDD VSS gf180mcu_fd_sc_mcu9t5v0__and3_2
X_2958_ net107 _0611_ _2493_ VDD VSS gf180mcu_fd_sc_mcu9t5v0__or2_2
X_2959_ _2162_ mem\[0\]\[3\] _1840_ _2164_ mem\[1\]\[3\] _2494_
+ VDD VSS gf180mcu_fd_sc_mcu9t5v0__oai32_2
X_2960_ _2166_ mem\[2\]\[3\] _2172_ _2167_ mem\[3\]\[3\] _2495_
+ VDD VSS gf180mcu_fd_sc_mcu9t5v0__oai32_2
X_2961_ _2161_ _1769_ _2494_ _2495_ _2496_ VDD VSS gf180mcu_fd_sc_mcu9t5v0__or4_2
X_2962_ mem\[4\]\[3\] mem\[6\]\[3\] _2294_ _2497_ VDD VSS
+ gf180mcu_fd_sc_mcu9t5v0__mux2_2
X_2963_ _1679_ _2497_ _2296_ _2498_ VDD VSS gf180mcu_fd_sc_mcu9t5v0__mux2_2
X_2964_ mem\[5\]\[3\] mem\[7\]\[3\] _2170_ _2499_ VDD VSS
+ gf180mcu_fd_sc_mcu9t5v0__mux2_2
X_2965_ _1678_ _2499_ _1771_ _2500_ VDD VSS gf180mcu_fd_sc_mcu9t5v0__mux2_2
X_2966_ _1790_ _2498_ _2500_ _2178_ _2501_ VDD VSS gf180mcu_fd_sc_mcu9t5v0__aoi22_2
X_2967_ mem\[0\]\[3\] mem\[2\]\[3\] _1816_ _2502_ VDD VSS
+ gf180mcu_fd_sc_mcu9t5v0__mux2_2
X_2968_ _2329_ _2502_ _2503_ VDD VSS gf180mcu_fd_sc_mcu9t5v0__and2_2
X_2969_ _2357_ _2151_ _1683_ _2504_ VDD VSS gf180mcu_fd_sc_mcu9t5v0__and3_2
X_2970_ _2503_ _2504_ _2251_ _2505_ VDD VSS gf180mcu_fd_sc_mcu9t5v0__oai21_2
X_2971_ _2144_ _2496_ _2501_ _2505_ _2506_ VDD VSS gf180mcu_fd_sc_mcu9t5v0__nand4_2
X_2972_ mem\[12\]\[3\] mem\[14\]\[3\] _2361_ _2507_ VDD VSS
+ gf180mcu_fd_sc_mcu9t5v0__mux2_2
X_2973_ _1735_ _2335_ _2507_ _2508_ VDD VSS gf180mcu_fd_sc_mcu9t5v0__and3_2
X_2974_ _2256_ _1681_ _2308_ _2509_ VDD VSS gf180mcu_fd_sc_mcu9t5v0__and3_2
X_2975_ mem\[9\]\[3\] mem\[11\]\[3\] mem\[13\]\[3\] mem\[15\]\[3\]
+ _1800_ _2310_ _2510_ VDD VSS gf180mcu_fd_sc_mcu9t5v0__mux4_2
X_2976_ _1680_ _1686_ _2312_ _2511_ VDD VSS gf180mcu_fd_sc_mcu9t5v0__mux2_2
X_2977_ mem\[8\]\[3\] mem\[10\]\[3\] _2314_ _2512_ VDD VSS
+ gf180mcu_fd_sc_mcu9t5v0__mux2_2
X_2978_ _1826_ _2512_ _2513_ VDD VSS gf180mcu_fd_sc_mcu9t5v0__and2_2
X_2979_ _2152_ _1685_ _2514_ VDD VSS gf180mcu_fd_sc_mcu9t5v0__and2_2
X_2980_ _2510_ _2511_ _2513_ _2514_ _1913_ _2370_ _2515_ VDD
+ VSS gf180mcu_fd_sc_mcu9t5v0__mux4_2
X_2981_ _1855_ _2508_ _2509_ _2515_ _2516_ VDD VSS gf180mcu_fd_sc_mcu9t5v0__or4_2
X_2982_ _2493_ _2506_ _2516_ _0576_ VDD VSS gf180mcu_fd_sc_mcu9t5v0__and3_2
X_2983_ mem\[4\]\[4\] mem\[6\]\[4\] _2145_ _2517_ VDD VSS
+ gf180mcu_fd_sc_mcu9t5v0__mux2_2
X_2984_ _1736_ _1857_ _2517_ _2518_ VDD VSS gf180mcu_fd_sc_mcu9t5v0__nand3_2
X_2985_ _2729_ _1689_ _1820_ _2519_ VDD VSS gf180mcu_fd_sc_mcu9t5v0__nand3_2
X_2986_ _2144_ _2518_ _2519_ _2520_ VDD VSS gf180mcu_fd_sc_mcu9t5v0__and3_2
X_2987_ mem\[1\]\[4\] mem\[3\]\[4\] mem\[5\]\[4\] mem\[7\]\[4\]
+ _1801_ _1823_ _2521_ VDD VSS gf180mcu_fd_sc_mcu9t5v0__mux4_2
X_2988_ _1690_ _1694_ _1377_ _2522_ VDD VSS gf180mcu_fd_sc_mcu9t5v0__mux2_2
X_2989_ _2182_ _2522_ _2523_ VDD VSS gf180mcu_fd_sc_mcu9t5v0__and2_2
X_2990_ _0604_ _2521_ _2523_ _2524_ VDD VSS gf180mcu_fd_sc_mcu9t5v0__aoi21_2
X_2991_ mem\[0\]\[4\] mem\[2\]\[4\] _2145_ _2525_ VDD VSS
+ gf180mcu_fd_sc_mcu9t5v0__mux2_2
X_2992_ _1695_ _2156_ _2525_ _1849_ _2526_ VDD VSS gf180mcu_fd_sc_mcu9t5v0__aoi22_2
X_2993_ _2524_ _2526_ _1811_ _2527_ VDD VSS gf180mcu_fd_sc_mcu9t5v0__mux2_2
X_2994_ net108 _2731_ _2528_ VDD VSS gf180mcu_fd_sc_mcu9t5v0__nor2_2
X_2995_ _1391_ mem\[8\]\[4\] _2163_ _2164_ mem\[9\]\[4\] _2529_
+ VDD VSS gf180mcu_fd_sc_mcu9t5v0__oai32_2
X_2996_ _0614_ mem\[10\]\[4\] _0603_ _2167_ mem\[11\]\[4\]
+ _2530_ VDD VSS gf180mcu_fd_sc_mcu9t5v0__oai32_2
X_2997_ _2161_ _1769_ _2529_ _2530_ _2531_ VDD VSS gf180mcu_fd_sc_mcu9t5v0__or4_2
X_2998_ mem\[12\]\[4\] mem\[14\]\[4\] _2174_ _2532_ VDD VSS
+ gf180mcu_fd_sc_mcu9t5v0__mux2_2
X_2999_ _1691_ _2532_ _2176_ _2533_ VDD VSS gf180mcu_fd_sc_mcu9t5v0__mux2_2
X_3000_ mem\[13\]\[4\] mem\[15\]\[4\] _2174_ _2534_ VDD VSS
+ gf180mcu_fd_sc_mcu9t5v0__mux2_2
X_3001_ _1692_ _2534_ _2176_ _2535_ VDD VSS gf180mcu_fd_sc_mcu9t5v0__mux2_2
X_3002_ _1790_ _2533_ _2535_ _2178_ _2536_ VDD VSS gf180mcu_fd_sc_mcu9t5v0__aoi22_2
X_3003_ mem\[8\]\[4\] mem\[10\]\[4\] _1783_ _2537_ VDD VSS
+ gf180mcu_fd_sc_mcu9t5v0__mux2_2
X_3004_ _1806_ _2537_ _2538_ VDD VSS gf180mcu_fd_sc_mcu9t5v0__and2_2
X_3005_ _1378_ _2182_ _1697_ _2539_ VDD VSS gf180mcu_fd_sc_mcu9t5v0__and3_2
X_3006_ _2538_ _2539_ _1760_ _2540_ VDD VSS gf180mcu_fd_sc_mcu9t5v0__oai21_2
X_3007_ _1799_ _2531_ _2536_ _2540_ _2541_ VDD VSS gf180mcu_fd_sc_mcu9t5v0__and4_2
X_3008_ _2520_ _2527_ _2528_ _2541_ _0577_ VDD VSS gf180mcu_fd_sc_mcu9t5v0__aoi211_2
X_3009_ net109 _0611_ _2542_ VDD VSS gf180mcu_fd_sc_mcu9t5v0__or2_2
X_3010_ _2162_ mem\[0\]\[5\] _1840_ _2164_ mem\[1\]\[5\] _2543_
+ VDD VSS gf180mcu_fd_sc_mcu9t5v0__oai32_2
X_3011_ _2166_ mem\[2\]\[5\] _2172_ _2167_ mem\[3\]\[5\] _2544_
+ VDD VSS gf180mcu_fd_sc_mcu9t5v0__oai32_2
X_3012_ _2161_ _1769_ _2543_ _2544_ _2545_ VDD VSS gf180mcu_fd_sc_mcu9t5v0__or4_2
X_3013_ mem\[4\]\[5\] mem\[6\]\[5\] _2294_ _2546_ VDD VSS
+ gf180mcu_fd_sc_mcu9t5v0__mux2_2
X_3014_ _1701_ _2546_ _2296_ _2547_ VDD VSS gf180mcu_fd_sc_mcu9t5v0__mux2_2
X_3015_ mem\[5\]\[5\] mem\[7\]\[5\] _2170_ _2548_ VDD VSS
+ gf180mcu_fd_sc_mcu9t5v0__mux2_2
X_3016_ _1700_ _2548_ _1771_ _2549_ VDD VSS gf180mcu_fd_sc_mcu9t5v0__mux2_2
X_3017_ _1790_ _2547_ _2549_ _2178_ _2550_ VDD VSS gf180mcu_fd_sc_mcu9t5v0__aoi22_2
X_3018_ mem\[0\]\[5\] mem\[2\]\[5\] _1816_ _2551_ VDD VSS
+ gf180mcu_fd_sc_mcu9t5v0__mux2_2
X_3019_ _2329_ _2551_ _2552_ VDD VSS gf180mcu_fd_sc_mcu9t5v0__and2_2
X_3020_ _2357_ _2151_ _1705_ _2553_ VDD VSS gf180mcu_fd_sc_mcu9t5v0__and3_2
X_3021_ _2552_ _2553_ _1760_ _2554_ VDD VSS gf180mcu_fd_sc_mcu9t5v0__oai21_2
X_3022_ _2144_ _2545_ _2550_ _2554_ _2555_ VDD VSS gf180mcu_fd_sc_mcu9t5v0__nand4_2
X_3023_ mem\[12\]\[5\] mem\[14\]\[5\] _2361_ _2556_ VDD VSS
+ gf180mcu_fd_sc_mcu9t5v0__mux2_2
X_3024_ _1735_ _2335_ _2556_ _2557_ VDD VSS gf180mcu_fd_sc_mcu9t5v0__and3_2
X_3025_ _1808_ _1703_ _2308_ _2558_ VDD VSS gf180mcu_fd_sc_mcu9t5v0__and3_2
X_3026_ mem\[9\]\[5\] mem\[11\]\[5\] mem\[13\]\[5\] mem\[15\]\[5\]
+ _1800_ _2310_ _2559_ VDD VSS gf180mcu_fd_sc_mcu9t5v0__mux4_2
X_3027_ _1702_ _1708_ _2312_ _2560_ VDD VSS gf180mcu_fd_sc_mcu9t5v0__mux2_2
X_3028_ mem\[8\]\[5\] mem\[10\]\[5\] _2314_ _2561_ VDD VSS
+ gf180mcu_fd_sc_mcu9t5v0__mux2_2
X_3029_ _1826_ _2561_ _2562_ VDD VSS gf180mcu_fd_sc_mcu9t5v0__and2_2
X_3030_ _2152_ _1707_ _2563_ VDD VSS gf180mcu_fd_sc_mcu9t5v0__and2_2
X_3031_ _2559_ _2560_ _2562_ _2563_ _1913_ _2370_ _2564_ VDD
+ VSS gf180mcu_fd_sc_mcu9t5v0__mux4_2
X_3032_ _1855_ _2557_ _2558_ _2564_ _2565_ VDD VSS gf180mcu_fd_sc_mcu9t5v0__or4_2
X_3033_ _2542_ _2555_ _2565_ _0578_ VDD VSS gf180mcu_fd_sc_mcu9t5v0__and3_2
X_3034_ mem\[4\]\[6\] mem\[6\]\[6\] _2145_ _2566_ VDD VSS
+ gf180mcu_fd_sc_mcu9t5v0__mux2_2
X_3035_ _1736_ _1857_ _2566_ _2567_ VDD VSS gf180mcu_fd_sc_mcu9t5v0__nand3_2
X_3036_ _2729_ _1711_ _1820_ _2568_ VDD VSS gf180mcu_fd_sc_mcu9t5v0__nand3_2
X_3037_ _2144_ _2567_ _2568_ _2569_ VDD VSS gf180mcu_fd_sc_mcu9t5v0__and3_2
X_3038_ mem\[1\]\[6\] mem\[3\]\[6\] mem\[5\]\[6\] mem\[7\]\[6\]
+ _1801_ _1823_ _2570_ VDD VSS gf180mcu_fd_sc_mcu9t5v0__mux4_2
X_3039_ _1712_ _1716_ _1377_ _2571_ VDD VSS gf180mcu_fd_sc_mcu9t5v0__mux2_2
X_3040_ _2182_ _2571_ _2572_ VDD VSS gf180mcu_fd_sc_mcu9t5v0__and2_2
X_3041_ _0604_ _2570_ _2572_ _2573_ VDD VSS gf180mcu_fd_sc_mcu9t5v0__aoi21_2
X_3042_ mem\[0\]\[6\] mem\[2\]\[6\] _1801_ _2574_ VDD VSS
+ gf180mcu_fd_sc_mcu9t5v0__mux2_2
X_3043_ _1717_ _2156_ _2574_ _1849_ _2575_ VDD VSS gf180mcu_fd_sc_mcu9t5v0__aoi22_2
X_3044_ _2573_ _2575_ _1811_ _2576_ VDD VSS gf180mcu_fd_sc_mcu9t5v0__mux2_2
X_3045_ net110 _2731_ _2577_ VDD VSS gf180mcu_fd_sc_mcu9t5v0__nor2_2
X_3046_ _1391_ mem\[8\]\[6\] _2163_ _1773_ mem\[9\]\[6\] _2578_
+ VDD VSS gf180mcu_fd_sc_mcu9t5v0__oai32_2
X_3047_ _0614_ mem\[10\]\[6\] _0603_ _1762_ mem\[11\]\[6\]
+ _2579_ VDD VSS gf180mcu_fd_sc_mcu9t5v0__oai32_2
X_3048_ _2161_ _1768_ _2578_ _2579_ _2580_ VDD VSS gf180mcu_fd_sc_mcu9t5v0__or4_2
X_3049_ mem\[12\]\[6\] mem\[14\]\[6\] _2174_ _2581_ VDD VSS
+ gf180mcu_fd_sc_mcu9t5v0__mux2_2
X_3050_ _1713_ _2581_ _2176_ _2582_ VDD VSS gf180mcu_fd_sc_mcu9t5v0__mux2_2
X_3051_ mem\[13\]\[6\] mem\[15\]\[6\] _2174_ _2583_ VDD VSS
+ gf180mcu_fd_sc_mcu9t5v0__mux2_2
X_3052_ _1714_ _2583_ _2176_ _2584_ VDD VSS gf180mcu_fd_sc_mcu9t5v0__mux2_2
X_3053_ _1789_ _2582_ _2584_ _1780_ _2585_ VDD VSS gf180mcu_fd_sc_mcu9t5v0__aoi22_2
X_3054_ mem\[8\]\[6\] mem\[10\]\[6\] _1783_ _2586_ VDD VSS
+ gf180mcu_fd_sc_mcu9t5v0__mux2_2
X_3055_ _1806_ _2586_ _2587_ VDD VSS gf180mcu_fd_sc_mcu9t5v0__and2_2
X_3056_ _1378_ _2182_ _1719_ _2588_ VDD VSS gf180mcu_fd_sc_mcu9t5v0__and3_2
X_3057_ _2587_ _2588_ _1760_ _2589_ VDD VSS gf180mcu_fd_sc_mcu9t5v0__oai21_2
X_3058_ _1799_ _2580_ _2585_ _2589_ _2590_ VDD VSS gf180mcu_fd_sc_mcu9t5v0__and4_2
X_3059_ _2569_ _2576_ _2577_ _2590_ _0579_ VDD VSS gf180mcu_fd_sc_mcu9t5v0__aoi211_2
X_3060_ net111 _0611_ _2591_ VDD VSS gf180mcu_fd_sc_mcu9t5v0__or2_2
X_3061_ _2162_ mem\[0\]\[7\] _1840_ _2164_ mem\[1\]\[7\] _2592_
+ VDD VSS gf180mcu_fd_sc_mcu9t5v0__oai32_2
X_3062_ _2166_ mem\[2\]\[7\] _2172_ _2167_ mem\[3\]\[7\] _2593_
+ VDD VSS gf180mcu_fd_sc_mcu9t5v0__oai32_2
X_3063_ _2161_ _1769_ _2592_ _2593_ _2594_ VDD VSS gf180mcu_fd_sc_mcu9t5v0__or4_2
X_3064_ mem\[4\]\[7\] mem\[6\]\[7\] _1791_ _2595_ VDD VSS
+ gf180mcu_fd_sc_mcu9t5v0__mux2_2
X_3065_ _1723_ _2595_ _1793_ _2596_ VDD VSS gf180mcu_fd_sc_mcu9t5v0__mux2_2
X_3066_ mem\[5\]\[7\] mem\[7\]\[7\] _2170_ _2597_ VDD VSS
+ gf180mcu_fd_sc_mcu9t5v0__mux2_2
X_3067_ _1722_ _2597_ _1771_ _2598_ VDD VSS gf180mcu_fd_sc_mcu9t5v0__mux2_2
X_3068_ _1790_ _2596_ _2598_ _2178_ _2599_ VDD VSS gf180mcu_fd_sc_mcu9t5v0__aoi22_2
X_3069_ mem\[0\]\[7\] mem\[2\]\[7\] _1816_ _2600_ VDD VSS
+ gf180mcu_fd_sc_mcu9t5v0__mux2_2
X_3070_ _2329_ _2600_ _2601_ VDD VSS gf180mcu_fd_sc_mcu9t5v0__and2_2
X_3071_ _2357_ _2151_ _1727_ _2602_ VDD VSS gf180mcu_fd_sc_mcu9t5v0__and3_2
X_3072_ _2601_ _2602_ _1760_ _2603_ VDD VSS gf180mcu_fd_sc_mcu9t5v0__oai21_2
X_3073_ _2144_ _2594_ _2599_ _2603_ _2604_ VDD VSS gf180mcu_fd_sc_mcu9t5v0__nand4_2
X_3074_ mem\[12\]\[7\] mem\[14\]\[7\] _2361_ _2605_ VDD VSS
+ gf180mcu_fd_sc_mcu9t5v0__mux2_2
X_3075_ _1735_ _2335_ _2605_ _2606_ VDD VSS gf180mcu_fd_sc_mcu9t5v0__and3_2
X_3076_ _1808_ _1725_ _1786_ _2607_ VDD VSS gf180mcu_fd_sc_mcu9t5v0__and3_2
X_3077_ mem\[9\]\[7\] mem\[11\]\[7\] mem\[13\]\[7\] mem\[15\]\[7\]
+ _1800_ _1803_ _2608_ VDD VSS gf180mcu_fd_sc_mcu9t5v0__mux4_2
X_3078_ _1724_ _1730_ _1376_ _2609_ VDD VSS gf180mcu_fd_sc_mcu9t5v0__mux2_2
X_3079_ mem\[8\]\[7\] mem\[10\]\[7\] _1761_ _2610_ VDD VSS
+ gf180mcu_fd_sc_mcu9t5v0__mux2_2
X_3080_ _1826_ _2610_ _2611_ VDD VSS gf180mcu_fd_sc_mcu9t5v0__and2_2
X_3081_ _2152_ _1729_ _2612_ VDD VSS gf180mcu_fd_sc_mcu9t5v0__and2_2
X_3082_ _2608_ _2609_ _2611_ _2612_ _1913_ _2370_ _2613_ VDD
+ VSS gf180mcu_fd_sc_mcu9t5v0__mux4_2
X_3083_ _1855_ _2606_ _2607_ _2613_ _2614_ VDD VSS gf180mcu_fd_sc_mcu9t5v0__or4_2
X_3084_ _2591_ _2604_ _2614_ _0580_ VDD VSS gf180mcu_fd_sc_mcu9t5v0__and3_2
X_3085_ mem\[4\]\[8\] mem\[6\]\[8\] _2145_ _2615_ VDD VSS
+ gf180mcu_fd_sc_mcu9t5v0__mux2_2
X_3086_ _1736_ _1857_ _2615_ _2616_ VDD VSS gf180mcu_fd_sc_mcu9t5v0__nand3_2
X_3087_ _2729_ _1737_ _1820_ _2617_ VDD VSS gf180mcu_fd_sc_mcu9t5v0__nand3_2
X_3088_ _1835_ _2616_ _2617_ _2618_ VDD VSS gf180mcu_fd_sc_mcu9t5v0__and3_2
X_3089_ mem\[1\]\[8\] mem\[3\]\[8\] mem\[5\]\[8\] mem\[7\]\[8\]
+ _1801_ _1823_ _2619_ VDD VSS gf180mcu_fd_sc_mcu9t5v0__mux4_2
X_3090_ _1738_ _1742_ _1377_ _2620_ VDD VSS gf180mcu_fd_sc_mcu9t5v0__mux2_2
X_3091_ _2182_ _2620_ _2621_ VDD VSS gf180mcu_fd_sc_mcu9t5v0__and2_2
X_3092_ _0604_ _2619_ _2621_ _2622_ VDD VSS gf180mcu_fd_sc_mcu9t5v0__aoi21_2
X_3093_ mem\[0\]\[8\] mem\[2\]\[8\] _1801_ _2623_ VDD VSS
+ gf180mcu_fd_sc_mcu9t5v0__mux2_2