
* cell gcd
* pin resp_msg[7]
* pin req_msg[7]
* pin resp_msg[9]
* pin req_msg[23]
* pin req_msg[24]
* pin resp_msg[8]
* pin req_msg[27]
* pin resp_msg[11]
* pin req_msg[28]
* pin resp_msg[12]
* pin VNB
.SUBCKT gcd 136 147 232 262 263 281 325 383 407 431 509
* net 136 resp_msg[7]
* net 147 req_msg[7]
* net 232 resp_msg[9]
* net 262 req_msg[23]
* net 263 req_msg[24]
* net 281 resp_msg[8]
* net 325 req_msg[27]
* net 383 resp_msg[11]
* net 407 req_msg[28]
* net 431 resp_msg[12]
* net 509 VNB
* cell instance $3 r0 *1 41.4,2.72
X$3 17 1 9 2 17 509 sky130_fd_sc_hd__clkbuf_1
* cell instance $13 m0 *1 2.76,51.68
X$13 17 240 293 310 160 266 282 17 2 509 sky130_fd_sc_hd__a221o_1
* cell instance $14 m0 *1 1.38,51.68
X$14 17 293 306 2 17 509 sky130_fd_sc_hd__clkbuf_1
* cell instance $15 m0 *1 6.44,51.68
X$15 17 240 350 326 2 17 324 509 sky130_fd_sc_hd__a21oi_1
* cell instance $17 m0 *1 8.74,51.68
X$17 17 313 34 293 2 17 509 sky130_fd_sc_hd__nor2_1
* cell instance $18 m0 *1 10.12,51.68
X$18 17 284 312 2 17 509 sky130_fd_sc_hd__clkbuf_1
* cell instance $19 m0 *1 11.5,51.68
X$19 17 142 312 287 17 2 509 sky130_fd_sc_hd__nand2_1
* cell instance $21 m0 *1 13.34,51.68
X$21 17 14 2 11 17 509 sky130_fd_sc_hd__clkbuf_4
* cell instance $22 m0 *1 16.1,51.68
X$22 2 309 275 327 328 17 17 509 sky130_fd_sc_hd__edfxtp_1
* cell instance $25 m0 *1 29.44,51.68
X$25 2 267 330 288 314 17 17 509 sky130_fd_sc_hd__nand3_2
* cell instance $28 m0 *1 34.5,51.68
X$28 2 228 343 17 17 509 sky130_fd_sc_hd__buf_6
* cell instance $30 m0 *1 39.56,51.68
X$30 17 277 2 17 292 509 sky130_fd_sc_hd__dlygate4sd1_1
* cell instance $31 m0 *1 42.78,51.68
X$31 17 294 11 278 295 2 17 274 509 sky130_fd_sc_hd__a31oi_1
* cell instance $32 m0 *1 45.08,51.68
X$32 17 296 17 2 334 509 sky130_fd_sc_hd__inv_1
* cell instance $33 m0 *1 46.46,51.68
X$33 17 252 297 337 277 2 273 17 509 sky130_fd_sc_hd__nor4_1
* cell instance $34 m0 *1 48.76,51.68
X$34 17 292 128 272 278 17 2 509 sky130_fd_sc_hd__or3_1
* cell instance $35 m0 *1 51.06,51.68
X$35 17 299 298 317 17 2 509 sky130_fd_sc_hd__nand2_1
* cell instance $36 m0 *1 52.44,51.68
X$36 17 290 335 279 2 17 333 509 sky130_fd_sc_hd__and3_4
* cell instance $39 m0 *1 57.96,51.68
X$39 2 314 300 347 221 378 17 17 509 sky130_fd_sc_hd__nor4_4
* cell instance $40 m0 *1 65.78,51.68
X$40 17 206 2 260 17 509 sky130_fd_sc_hd__clkbuf_4
* cell instance $41 m0 *1 68.54,51.68
X$41 17 249 302 270 17 331 2 509 sky130_fd_sc_hd__o21ai_0
* cell instance $42 m0 *1 70.38,51.68
X$42 17 303 321 302 2 17 301 509 sky130_fd_sc_hd__a21oi_1
* cell instance $43 m0 *1 72.22,51.68
X$43 17 249 321 2 17 509 sky130_fd_sc_hd__buf_1
* cell instance $44 m0 *1 73.6,51.68
X$44 17 355 302 286 17 2 509 sky130_fd_sc_hd__nand2_1
* cell instance $45 m0 *1 74.98,51.68
X$45 17 304 17 2 308 509 sky130_fd_sc_hd__inv_1
* cell instance $46 m0 *1 76.36,51.68
X$46 17 305 260 307 17 2 509 sky130_fd_sc_hd__nand2_1
* cell instance $47 m0 *1 77.74,51.68
X$47 17 325 305 2 17 509 sky130_fd_sc_hd__clkbuf_1
* cell instance $54 r0 *1 1.84,51.68
X$54 2 338 275 324 17 17 509 sky130_fd_sc_hd__dfxtp_1
* cell instance $55 r0 *1 9.2,51.68
X$55 2 234 326 313 267 17 17 509 sky130_fd_sc_hd__a21bo_1
* cell instance $56 r0 *1 12.88,51.68
X$56 17 311 340 2 17 509 sky130_fd_sc_hd__clkbuf_1
* cell instance $61 r0 *1 15.64,51.68
X$61 2 328 142 234 61 17 17 509 sky130_fd_sc_hd__a21o_4
* cell instance $62 r0 *1 21.16,51.68
X$62 17 276 2 17 329 509 sky130_fd_sc_hd__dlygate4sd1_1
* cell instance $65 r0 *1 25.76,51.68
X$65 17 340 260 354 17 2 509 sky130_fd_sc_hd__nand2_1
* cell instance $69 r0 *1 30.36,51.68
X$69 17 128 272 341 17 294 2 509 sky130_fd_sc_hd__o21ai_0
* cell instance $70 r0 *1 32.2,51.68
X$70 17 315 2 332 17 509 sky130_fd_sc_hd__buf_2
* cell instance $71 r0 *1 34.04,51.68
X$71 17 315 228 2 128 17 509 sky130_fd_sc_hd__and2_4
* cell instance $73 r0 *1 38.18,51.68
X$73 17 292 2 17 341 509 sky130_fd_sc_hd__dlygate4sd1_1
* cell instance $74 r0 *1 41.4,51.68
X$74 17 320 298 345 17 2 509 sky130_fd_sc_hd__nand2_1
* cell instance $78 r0 *1 43.24,51.68
X$78 17 342 14 295 2 17 509 sky130_fd_sc_hd__nor2_1
* cell instance $79 r0 *1 44.62,51.68
X$79 17 68 256 318 17 316 2 509 sky130_fd_sc_hd__a21oi_2
* cell instance $80 r0 *1 47.84,51.68
X$80 2 317 358 336 283 357 318 17 17 509 sky130_fd_sc_hd__a221oi_4
* cell instance $81 r0 *1 57.5,51.68
X$81 2 302 258 250 17 17 509 sky130_fd_sc_hd__nor2b_4
* cell instance $82 r0 *1 62.56,51.68
X$82 2 304 319 296 17 17 509 sky130_fd_sc_hd__nor2b_4
* cell instance $83 r0 *1 67.62,51.68
X$83 2 335 17 304 320 17 509 sky130_fd_sc_hd__nor2_2
* cell instance $88 r0 *1 70.84,51.68
X$88 2 351 346 322 34 17 17 509 sky130_fd_sc_hd__edfxtp_1
* cell instance $95 m0 *1 1.84,57.12
X$95 17 323 310 2 17 509 sky130_fd_sc_hd__clkbuf_1
* cell instance $98 m0 *1 3.68,57.12
X$98 17 310 17 2 364 509 sky130_fd_sc_hd__inv_1
* cell instance $100 m0 *1 5.98,57.12
X$100 17 160 364 338 17 350 2 509 sky130_fd_sc_hd__o21ai_0
* cell instance $101 m0 *1 7.82,57.12
X$101 17 338 17 2 313 509 sky130_fd_sc_hd__inv_1
* cell instance $103 m0 *1 9.66,57.12
X$103 2 276 275 339 34 17 17 509 sky130_fd_sc_hd__edfxtp_1
* cell instance $104 m0 *1 20.7,57.12
X$104 17 365 329 17 2 509 sky130_fd_sc_hd__dlymetal6s2s_1
* cell instance $105 m0 *1 25.3,57.12
X$105 17 33 2 160 17 509 sky130_fd_sc_hd__clkbuf_4
* cell instance $108 m0 *1 29.44,57.12
X$108 17 260 354 344 17 2 376 509 sky130_fd_sc_hd__o21ai_1
* cell instance $111 m0 *1 32.66,57.12
X$111 2 128 61 17 17 509 sky130_fd_sc_hd__buf_12
* cell instance $112 m0 *1 40.02,57.12
X$112 17 160 366 299 367 17 2 509 sky130_fd_sc_hd__mux2_1
* cell instance $113 m0 *1 44.16,57.12
X$113 17 334 343 231 361 17 2 509 sky130_fd_sc_hd__nand3_1
* cell instance $114 m0 *1 46,57.12
X$114 17 316 360 17 368 2 509 sky130_fd_sc_hd__xor2_1
* cell instance $115 m0 *1 49.22,57.12
X$115 2 61 361 368 344 17 17 509 sky130_fd_sc_hd__o21ai_4
* cell instance $116 m0 *1 55.2,57.12
X$116 17 189 17 2 239 509 sky130_fd_sc_hd__inv_1
* cell instance $119 m0 *1 57.5,57.12
X$119 2 370 286 331 308 359 352 17 17 509 sky130_fd_sc_hd__o2111a_1
* cell instance $120 m0 *1 61.64,57.12
X$120 17 290 17 238 2 509 sky130_fd_sc_hd__dlygate4sd3_1
* cell instance $121 m0 *1 65.32,57.12
X$121 17 68 2 357 17 509 sky130_fd_sc_hd__buf_2
* cell instance $122 m0 *1 67.16,57.12
X$122 17 347 356 13 349 17 2 509 sky130_fd_sc_hd__mux2i_1
* cell instance $123 m0 *1 70.84,57.12
X$123 17 321 2 355 17 509 sky130_fd_sc_hd__buf_2
* cell instance $124 m0 *1 72.68,57.12
X$124 17 347 304 303 17 348 2 509 sky130_fd_sc_hd__o21ai_0
* cell instance $125 m0 *1 74.52,57.12
X$125 17 299 2 319 17 509 sky130_fd_sc_hd__buf_2
* cell instance $126 m0 *1 76.36,57.12
X$126 17 352 335 362 353 17 2 509 sky130_fd_sc_hd__nand3_1
* cell instance $127 m0 *1 78.2,57.12
X$127 17 206 307 349 17 2 322 509 sky130_fd_sc_hd__o21ai_1
* cell instance $128 m0 *1 80.04,57.12
X$128 17 351 2 352 17 509 sky130_fd_sc_hd__buf_2
* cell instance $129 m0 *1 81.88,57.12
X$129 17 334 298 283 17 2 509 sky130_fd_sc_hd__nand2_1
* cell instance $135 r0 *1 2.76,57.12
X$135 17 363 369 2 17 509 sky130_fd_sc_hd__clkbuf_1
* cell instance $142 r0 *1 15.64,57.12
X$142 17 160 369 365 384 17 2 509 sky130_fd_sc_hd__mux2_1
* cell instance $144 r0 *1 20.7,57.12
X$144 2 299 275 376 34 17 17 509 sky130_fd_sc_hd__edfxtp_1
* cell instance $145 r0 *1 31.74,57.12
X$145 2 296 346 367 328 17 17 509 sky130_fd_sc_hd__edfxtp_1
* cell instance $150 r0 *1 43.7,57.12
X$150 2 346 511 17 17 509 sky130_fd_sc_hd__clkbuf_8
* cell instance $151 r0 *1 48.76,57.12
X$151 17 387 316 334 389 2 17 509 sky130_fd_sc_hd__maj3_2
* cell instance $152 r0 *1 52.9,57.12
X$152 17 173 299 334 390 17 2 509 sky130_fd_sc_hd__maj3_1
* cell instance $154 r0 *1 57.04,57.12
X$154 2 320 296 299 17 17 509 sky130_fd_sc_hd__nor2b_4
* cell instance $155 r0 *1 62.1,57.12
X$155 17 296 2 17 378 509 sky130_fd_sc_hd__dlygate4sd1_1
* cell instance $156 r0 *1 65.32,57.12
X$156 17 331 301 372 173 17 362 2 509 sky130_fd_sc_hd__o2bb2ai_1
* cell instance $157 r0 *1 68.54,57.12
X$157 17 336 397 381 17 2 388 509 sky130_fd_sc_hd__o21ai_1
* cell instance $161 r0 *1 70.84,57.12
X$161 17 373 372 382 347 371 17 2 377 509 sky130_fd_sc_hd__a221oi_1
* cell instance $162 r0 *1 74.06,57.12
X$162 17 335 2 17 374 509 sky130_fd_sc_hd__dlygate4sd1_1
* cell instance $163 r0 *1 77.28,57.12
X$163 17 372 308 353 17 382 2 509 sky130_fd_sc_hd__o21ai_0
* cell instance $164 r0 *1 79.12,57.12
X$164 17 352 375 348 2 17 371 509 sky130_fd_sc_hd__a21oi_1
* cell instance $165 r0 *1 80.96,57.12
X$165 17 359 374 362 375 17 2 509 sky130_fd_sc_hd__nand3_1
* cell instance $166 r0 *1 82.8,57.12
X$166 17 347 17 2 359 509 sky130_fd_sc_hd__inv_1
* cell instance $171 m0 *1 2.76,46.24
X$171 17 264 242 2 17 509 sky130_fd_sc_hd__clkbuf_1
* cell instance $172 m0 *1 1.38,46.24
X$172 17 247 240 2 17 509 sky130_fd_sc_hd__clkbuf_1
* cell instance $173 m0 *1 4.14,46.24
X$173 17 254 265 2 17 509 sky130_fd_sc_hd__clkbuf_1
* cell instance $174 m0 *1 5.52,46.24
X$174 17 240 241 233 2 17 509 sky130_fd_sc_hd__nor2_1
* cell instance $175 m0 *1 6.9,46.24
X$175 17 267 234 160 242 17 241 2 509 sky130_fd_sc_hd__a22oi_1
* cell instance $176 m0 *1 9.66,46.24
X$176 17 254 234 2 17 34 509 sky130_fd_sc_hd__or2_4
* cell instance $179 m0 *1 14.26,46.24
X$179 17 255 2 14 17 509 sky130_fd_sc_hd__buf_2
* cell instance $180 m0 *1 16.1,46.24
X$180 17 254 17 2 33 509 sky130_fd_sc_hd__buf_4
* cell instance $182 m0 *1 19.78,46.24
X$182 17 142 251 243 17 2 509 sky130_fd_sc_hd__nand2_1
* cell instance $183 m0 *1 21.16,46.24
X$183 17 276 244 17 2 170 509 sky130_fd_sc_hd__and2b_2
* cell instance $184 m0 *1 24.38,46.24
X$184 17 244 2 17 253 509 sky130_fd_sc_hd__dlygate4sd1_1
* cell instance $188 m0 *1 29.44,46.24
X$188 17 160 245 243 17 237 2 509 sky130_fd_sc_hd__o21ai_0
* cell instance $189 m0 *1 31.28,46.24
X$189 17 211 171 208 2 17 212 509 sky130_fd_sc_hd__a21oi_1
* cell instance $192 m0 *1 34.5,46.24
X$192 2 246 38 274 34 17 17 509 sky130_fd_sc_hd__edfxtp_1
* cell instance $193 m0 *1 45.54,46.24
X$193 2 272 271 246 17 17 509 sky130_fd_sc_hd__xnor2_2
* cell instance $195 m0 *1 51.98,46.24
X$195 17 229 2 17 270 509 sky130_fd_sc_hd__dlygate4sd1_1
* cell instance $196 m0 *1 55.2,46.24
X$196 17 246 2 17 229 509 sky130_fd_sc_hd__inv_2
* cell instance $198 m0 *1 57.04,46.24
X$198 17 189 2 17 249 509 sky130_fd_sc_hd__dlygate4sd1_1
* cell instance $199 m0 *1 60.26,46.24
X$199 17 156 2 17 269 509 sky130_fd_sc_hd__dlygate4sd1_1
* cell instance $200 m0 *1 63.48,46.24
X$200 17 172 258 257 2 17 509 sky130_fd_sc_hd__nor2b_1
* cell instance $201 m0 *1 65.78,46.24
X$201 2 258 346 268 34 17 17 509 sky130_fd_sc_hd__edfxtp_1
* cell instance $204 m0 *1 78.2,46.24
X$204 17 262 261 2 17 509 sky130_fd_sc_hd__clkbuf_1
* cell instance $211 r0 *1 3.68,46.24
X$211 17 242 17 2 266 509 sky130_fd_sc_hd__inv_1
* cell instance $212 r0 *1 5.06,46.24
X$212 2 254 275 282 17 17 509 sky130_fd_sc_hd__dfxtp_1
* cell instance $213 r0 *1 12.42,46.24
X$213 17 254 234 255 2 17 509 sky130_fd_sc_hd__nor2b_1
* cell instance $219 r0 *1 15.64,46.24
X$219 17 160 209 287 17 327 2 509 sky130_fd_sc_hd__o21ai_0
* cell instance $221 r0 *1 17.94,46.24
X$221 17 234 33 17 2 206 509 sky130_fd_sc_hd__nand2b_2
* cell instance $223 r0 *1 22.08,46.24
X$223 17 276 2 17 184 509 sky130_fd_sc_hd__dlygate4sd1_1
* cell instance $224 r0 *1 25.3,46.24
X$224 17 309 17 2 171 509 sky130_fd_sc_hd__clkbuf_2
* cell instance $225 r0 *1 27.14,46.24
X$225 17 273 155 210 2 17 288 509 sky130_fd_sc_hd__and3_1
* cell instance $226 r0 *1 29.44,46.24
X$226 17 171 216 210 2 17 509 sky130_fd_sc_hd__nor2_1
* cell instance $228 r0 *1 31.74,46.24
X$228 2 332 228 17 13 17 509 sky130_fd_sc_hd__nand2_4
* cell instance $230 r0 *1 36.8,46.24
X$230 2 291 158 17 17 509 sky130_fd_sc_hd__clkbuf_8
* cell instance $236 r0 *1 43.24,46.24
X$236 17 189 2 17 277 509 sky130_fd_sc_hd__dlygate4sd1_1
* cell instance $237 r0 *1 46.46,46.24
X$237 17 229 2 17 245 509 sky130_fd_sc_hd__dlygate4sd1_1
* cell instance $238 r0 *1 49.68,46.24
X$238 17 256 17 2 358 509 sky130_fd_sc_hd__clkbuf_2
* cell instance $239 r0 *1 51.52,46.24
X$239 17 257 239 246 173 17 2 509 sky130_fd_sc_hd__maj3_1
* cell instance $240 r0 *1 55.2,46.24
X$240 2 279 17 230 226 17 509 sky130_fd_sc_hd__nor2_2
* cell instance $241 r0 *1 57.5,46.24
X$241 2 290 17 257 302 17 509 sky130_fd_sc_hd__nor2_2
* cell instance $242 r0 *1 59.8,46.24
X$242 17 258 2 17 177 509 sky130_fd_sc_hd__dlygate4sd1_1
* cell instance $243 r0 *1 63.02,46.24
X$243 17 250 2 17 235 509 sky130_fd_sc_hd__dlygate4sd1_1
* cell instance $244 r0 *1 66.24,46.24
X$244 17 289 269 259 17 2 509 sky130_fd_sc_hd__xnor2_1
* cell instance $250 r0 *1 70.84,46.24
X$250 17 206 285 248 17 2 268 509 sky130_fd_sc_hd__o21ai_1
* cell instance $251 r0 *1 72.68,46.24
X$251 17 261 260 204 17 2 509 sky130_fd_sc_hd__nand2_1
* cell instance $252 r0 *1 74.06,46.24
X$252 17 280 260 285 17 2 509 sky130_fd_sc_hd__nand2_1
* cell instance $254 r0 *1 77.28,46.24
X$254 17 259 281 2 17 509 sky130_fd_sc_hd__clkbuf_1
* cell instance $256 r0 *1 79.58,46.24
X$256 17 263 280 2 17 509 sky130_fd_sc_hd__clkbuf_1
* cell instance $260 m0 *1 1.38,40.8
X$260 17 194 220 2 17 509 sky130_fd_sc_hd__clkbuf_1
* cell instance $262 m0 *1 5.52,40.8
X$262 17 222 201 2 17 509 sky130_fd_sc_hd__clkbuf_1
* cell instance $264 m0 *1 7.82,40.8
X$264 17 13 222 203 17 2 509 sky130_fd_sc_hd__nand2_1
* cell instance $265 m0 *1 9.2,40.8
X$265 2 193 46 191 34 17 17 509 sky130_fd_sc_hd__edfxtp_1
* cell instance $266 m0 *1 20.24,40.8
X$266 17 193 17 2 209 509 sky130_fd_sc_hd__inv_1
* cell instance $267 m0 *1 21.62,40.8
X$267 17 171 193 195 17 2 509 sky130_fd_sc_hd__xnor2_1
* cell instance $268 m0 *1 24.84,40.8
X$268 17 195 170 222 17 2 509 sky130_fd_sc_hd__xnor2_1
* cell instance $271 m0 *1 29.44,40.8
X$271 2 228 195 168 213 194 17 17 509 sky130_fd_sc_hd__or4b_4
* cell instance $273 m0 *1 34.96,40.8
X$273 2 228 199 17 17 509 sky130_fd_sc_hd__buf_6
* cell instance $276 m0 *1 44.62,40.8
X$276 17 197 198 156 227 2 17 509 sky130_fd_sc_hd__maj3_2
* cell instance $277 m0 *1 48.76,40.8
X$277 17 188 179 177 214 2 17 509 sky130_fd_sc_hd__maj3_2
* cell instance $278 m0 *1 52.9,40.8
X$278 17 172 2 17 198 509 sky130_fd_sc_hd__dlygate4sd1_1
* cell instance $282 m0 *1 57.96,40.8
X$282 2 217 224 225 17 17 509 sky130_fd_sc_hd__xnor2_2
* cell instance $283 m0 *1 63.94,40.8
X$283 2 176 38 207 34 17 17 509 sky130_fd_sc_hd__edfxtp_1
* cell instance $284 m0 *1 74.98,40.8
X$284 17 200 2 17 221 509 sky130_fd_sc_hd__dlygate4sd1_1
* cell instance $285 m0 *1 78.2,40.8
X$285 17 174 2 17 200 509 sky130_fd_sc_hd__dlygate4sd1_1
* cell instance $291 r0 *1 3.22,40.8
X$291 2 234 46 233 17 17 509 sky130_fd_sc_hd__dfxtp_2
* cell instance $292 r0 *1 11.04,40.8
X$292 17 223 251 2 17 509 sky130_fd_sc_hd__clkbuf_1
* cell instance $300 r0 *1 16.1,40.8
X$300 2 56 142 61 234 17 17 509 sky130_fd_sc_hd__a21o_4
* cell instance $301 r0 *1 21.62,40.8
X$301 17 184 253 2 17 208 509 sky130_fd_sc_hd__or2b_1
* cell instance $302 r0 *1 24.38,40.8
X$302 17 244 2 17 216 509 sky130_fd_sc_hd__dlygate4sd1_1
* cell instance $305 r0 *1 28.98,40.8
X$305 2 189 46 237 56 17 17 509 sky130_fd_sc_hd__edfxtp_1
* cell instance $308 r0 *1 41.4,40.8
X$308 17 229 187 230 2 17 509 sky130_fd_sc_hd__nor2_1
* cell instance $313 r0 *1 43.24,40.8
X$313 17 246 239 226 2 17 509 sky130_fd_sc_hd__nor2_1
* cell instance $314 r0 *1 44.62,40.8
X$314 17 198 2 17 252 509 sky130_fd_sc_hd__dlygate4sd1_1
* cell instance $315 r0 *1 47.84,40.8
X$315 2 227 271 17 17 509 sky130_fd_sc_hd__buf_6
* cell instance $316 r0 *1 51.98,40.8
X$316 2 218 227 279 17 17 509 sky130_fd_sc_hd__xnor2_2
* cell instance $317 r0 *1 57.96,40.8
X$317 17 172 2 250 17 509 sky130_fd_sc_hd__buf_2
* cell instance $319 r0 *1 60.26,40.8
X$319 17 238 2 17 289 509 sky130_fd_sc_hd__dlygate4sd1_1
* cell instance $320 r0 *1 63.48,40.8
X$320 17 177 2 17 185 509 sky130_fd_sc_hd__dlygate4sd1_1
* cell instance $321 r0 *1 66.7,40.8
X$321 17 199 217 231 17 236 2 509 sky130_fd_sc_hd__a21oi_2
* cell instance $327 r0 *1 70.84,40.8
X$327 17 236 235 248 17 2 509 sky130_fd_sc_hd__xnor2_1
* cell instance $328 r0 *1 74.06,40.8
X$328 17 199 135 231 17 219 2 509 sky130_fd_sc_hd__a21oi_2
* cell instance $329 r0 *1 77.28,40.8
X$329 17 221 219 205 17 2 509 sky130_fd_sc_hd__xnor2_1
* cell instance $330 r0 *1 80.5,40.8
X$330 17 218 232 2 17 509 sky130_fd_sc_hd__clkbuf_1
* cell instance $337 m0 *1 7.82,29.92
X$337 2 152 46 148 56 17 17 509 sky130_fd_sc_hd__edfxtp_1
* cell instance $338 m0 *1 18.86,29.92
X$338 17 152 17 2 84 509 sky130_fd_sc_hd__clkbuf_2
* cell instance $339 m0 *1 20.7,29.92
X$339 17 130 84 85 2 17 164 509 sky130_fd_sc_hd__a21oi_1
* cell instance $340 m0 *1 22.54,29.92
X$340 17 118 131 71 17 2 138 509 sky130_fd_sc_hd__o21ai_1
* cell instance $341 m0 *1 24.38,29.92
X$341 17 131 2 17 155 509 sky130_fd_sc_hd__dlygate4sd1_1
* cell instance $346 m0 *1 29.9,29.92
X$346 17 75 63 101 2 17 509 sky130_fd_sc_hd__nor2_1
* cell instance $347 m0 *1 31.28,29.92
X$347 17 132 133 41 2 140 17 509 sky130_fd_sc_hd__o21ai_2
* cell instance $348 m0 *1 34.5,29.92
X$348 17 143 110 49 17 133 2 509 sky130_fd_sc_hd__a21oi_2
* cell instance $349 m0 *1 37.72,29.92
X$349 17 117 81 101 97 17 168 2 509 sky130_fd_sc_hd__nand4_1
* cell instance $350 m0 *1 40.02,29.92
X$350 17 138 49 105 17 132 2 509 sky130_fd_sc_hd__a21oi_2
* cell instance $351 m0 *1 43.24,29.92
X$351 17 142 9 215 17 2 509 sky130_fd_sc_hd__nand2_1
* cell instance $353 m0 *1 45.08,29.92
X$353 2 156 145 98 127 17 17 509 sky130_fd_sc_hd__a21oi_4
* cell instance $354 m0 *1 51.06,29.92
X$354 17 146 95 91 144 2 17 509 sky130_fd_sc_hd__nor3_1
* cell instance $355 m0 *1 52.9,29.92
X$355 17 153 154 109 145 17 2 509 sky130_fd_sc_hd__maj3_1
* cell instance $357 m0 *1 57.04,29.92
X$357 17 124 2 17 134 509 sky130_fd_sc_hd__dlygate4sd1_1
* cell instance $358 m0 *1 60.26,29.92
X$358 2 134 150 135 17 17 509 sky130_fd_sc_hd__xor2_2
* cell instance $359 m0 *1 66.24,29.92
X$359 17 33 149 124 151 17 2 509 sky130_fd_sc_hd__mux2_1
* cell instance $361 m0 *1 70.84,29.92
X$361 17 147 149 2 17 509 sky130_fd_sc_hd__clkbuf_1
* cell instance $368 r0 *1 1.38,29.92
X$368 17 159 141 2 17 509 sky130_fd_sc_hd__clkbuf_1
* cell instance $372 r0 *1 8.74,29.92
X$372 17 160 130 162 17 148 2 509 sky130_fd_sc_hd__o21ai_0
* cell instance $373 r0 *1 10.58,29.92
X$373 17 142 141 162 17 2 509 sky130_fd_sc_hd__nand2_1
* cell instance $384 r0 *1 20.7,29.92
X$384 2 83 71 157 164 118 165 17 17 509 sky130_fd_sc_hd__a41o_1
* cell instance $385 r0 *1 24.38,29.92
X$385 2 158 46 17 17 509 sky130_fd_sc_hd__clkbuf_8
* cell instance $386 r0 *1 29.44,29.92
X$386 17 88 84 130 143 2 17 509 sky130_fd_sc_hd__maj3_2
* cell instance $389 r0 *1 34.96,29.92
X$389 17 142 31 169 17 2 509 sky130_fd_sc_hd__nand2_1
* cell instance $390 r0 *1 36.34,29.92
X$390 2 167 144 166 143 139 110 17 17 509 sky130_fd_sc_hd__o221a_1
* cell instance $391 r0 *1 40.48,29.92
X$391 17 160 105 169 17 79 2 509 sky130_fd_sc_hd__o21ai_0
* cell instance $397 r0 *1 43.24,29.92
X$397 2 158 38 17 17 509 sky130_fd_sc_hd__clkbuf_8
* cell instance $398 r0 *1 48.3,29.92
X$398 2 38 510 17 17 509 sky130_fd_sc_hd__clkbuf_8
* cell instance $399 r0 *1 53.36,29.92
X$399 17 154 124 137 188 2 17 509 sky130_fd_sc_hd__maj3_2
* cell instance $402 r0 *1 58.88,29.92
X$402 2 124 163 146 17 17 509 sky130_fd_sc_hd__xor2_4
* cell instance $409 r0 *1 70.84,29.92
X$409 17 161 2 17 175 509 sky130_fd_sc_hd__dlygate4sd1_1
* cell instance $416 m0 *1 7.36,24.48
X$416 2 118 46 108 34 17 17 509 sky130_fd_sc_hd__edfxtp_1
* cell instance $417 m0 *1 18.4,24.48
X$417 17 71 85 97 17 2 509 sky130_fd_sc_hd__and2_0
* cell instance $418 m0 *1 20.7,24.48
X$418 17 76 55 2 17 88 509 sky130_fd_sc_hd__nor2b_2
* cell instance $419 m0 *1 23.92,24.48
X$419 17 84 118 117 17 2 509 sky130_fd_sc_hd__xnor2_1
* cell instance $420 m0 *1 27.14,24.48
X$420 17 84 75 88 102 2 17 509 sky130_fd_sc_hd__nor3_1
* cell instance $422 m0 *1 29.44,24.48
X$422 17 63 90 112 2 17 509 sky130_fd_sc_hd__or2_0
* cell instance $423 m0 *1 31.74,24.48
X$423 17 63 102 115 83 104 127 17 2 509 sky130_fd_sc_hd__a221o_1
* cell instance $424 m0 *1 35.42,24.48
X$424 17 103 89 75 17 2 111 509 sky130_fd_sc_hd__a21boi_1
* cell instance $425 m0 *1 38.18,24.48
X$425 17 110 89 17 2 509 sky130_fd_sc_hd__dlymetal6s2s_1
* cell instance $426 m0 *1 42.78,24.48
X$426 17 49 41 104 2 17 509 sky130_fd_sc_hd__nand2b_1
* cell instance $427 m0 *1 45.08,24.48
X$427 2 35 74 126 17 17 509 sky130_fd_sc_hd__xor2_2
* cell instance $429 m0 *1 51.98,24.48
X$429 17 68 2 125 17 509 sky130_fd_sc_hd__buf_2
* cell instance $433 m0 *1 57.04,24.48
X$433 17 124 2 17 109 509 sky130_fd_sc_hd__dlygate4sd1_1
* cell instance $434 m0 *1 60.26,24.48
X$434 17 58 2 17 69 509 sky130_fd_sc_hd__dlygate4sd1_1
* cell instance $435 m0 *1 63.48,24.48
X$435 17 58 94 2 17 95 509 sky130_fd_sc_hd__nor2b_2
* cell instance $436 m0 *1 66.7,24.48
X$436 17 106 146 120 17 2 509 sky130_fd_sc_hd__xnor2_1
* cell instance $447 r0 *1 2.76,24.48
X$447 17 113 119 2 17 509 sky130_fd_sc_hd__clkbuf_1
* cell instance $450 r0 *1 6.44,24.48
X$450 17 121 114 2 17 509 sky130_fd_sc_hd__clkbuf_1
* cell instance $452 r0 *1 9.66,24.48
X$452 17 13 113 122 17 2 509 sky130_fd_sc_hd__nand2_1
* cell instance $453 r0 *1 11.04,24.48
X$453 17 114 14 123 2 17 509 sky130_fd_sc_hd__nor2_1
* cell instance $454 r0 *1 12.42,24.48
X$454 17 71 115 129 17 2 509 sky130_fd_sc_hd__nand2_1
* cell instance $455 r0 *1 13.8,24.48
X$455 17 85 116 115 17 2 509 sky130_fd_sc_hd__nand2_1
* cell instance $461 r0 *1 16.56,24.48
X$461 17 87 116 2 17 509 sky130_fd_sc_hd__buf_1
* cell instance $462 r0 *1 17.94,24.48
X$462 17 129 117 113 17 2 509 sky130_fd_sc_hd__xnor2_1
* cell instance $463 r0 *1 21.16,24.48
X$463 17 118 17 2 130 509 sky130_fd_sc_hd__inv_1
* cell instance $464 r0 *1 22.54,24.48
X$464 17 76 2 17 82 509 sky130_fd_sc_hd__dlygate4sd1_1
* cell instance $465 r0 *1 25.76,24.48
X$465 17 49 130 88 105 139 2 17 509 sky130_fd_sc_hd__o31a_1
* cell instance $467 r0 *1 29.44,24.48
X$467 2 131 17 84 110 17 509 sky130_fd_sc_hd__nor2_2
* cell instance $468 r0 *1 31.74,24.48
X$468 2 128 65 17 17 509 sky130_fd_sc_hd__clkbuf_16
* cell instance $469 r0 *1 40.94,24.48
X$469 17 35 17 2 105 509 sky130_fd_sc_hd__inv_1
* cell instance $475 r0 *1 43.24,24.48
X$475 2 24 127 126 17 17 509 sky130_fd_sc_hd__xnor2_2
* cell instance $476 r0 *1 49.22,24.48
X$476 2 81 126 146 91 95 17 17 509 sky130_fd_sc_hd__nor4_4
* cell instance $477 r0 *1 57.04,24.48
X$477 2 73 137 57 17 17 509 sky130_fd_sc_hd__nand2b_4
* cell instance $478 r0 *1 62.1,24.48
X$478 17 107 95 125 17 106 2 509 sky130_fd_sc_hd__a21oi_2
* cell instance $479 r0 *1 65.32,24.48
X$479 17 106 2 150 17 509 sky130_fd_sc_hd__buf_2
* cell instance $488 r0 *1 74.52,24.48
X$488 17 120 136 2 17 509 sky130_fd_sc_hd__clkbuf_1
* cell instance $496 m0 *1 16.1,19.04
X$496 17 55 54 85 2 17 509 sky130_fd_sc_hd__nand2b_1
* cell instance $497 m0 *1 18.4,19.04
X$497 17 76 55 71 2 17 509 sky130_fd_sc_hd__nand2b_1
* cell instance $498 m0 *1 20.7,19.04
X$498 2 80 17 67 77 17 509 sky130_fd_sc_hd__nor2_2
* cell instance $499 m0 *1 23,19.04
X$499 17 76 54 17 2 509 sky130_fd_sc_hd__dlymetal6s2s_1
* cell instance $503 m0 *1 29.44,19.04
X$503 17 82 69 78 49 2 330 17 509 sky130_fd_sc_hd__nor4_1
* cell instance $504 m0 *1 31.74,19.04
X$504 17 100 17 2 77 509 sky130_fd_sc_hd__clkbuf_2
* cell instance $505 m0 *1 33.58,19.04
X$505 17 83 2 17 67 509 sky130_fd_sc_hd__dlygate4sd1_1
* cell instance $506 m0 *1 36.8,19.04
X$506 17 35 41 166 17 2 509 sky130_fd_sc_hd__nand2_1
* cell instance $507 m0 *1 38.18,19.04
X$507 2 99 38 79 56 17 17 509 sky130_fd_sc_hd__edfxtp_1
* cell instance $509 m0 *1 50.14,19.04
X$509 17 81 2 17 98 509 sky130_fd_sc_hd__dlygate4sd1_1
* cell instance $510 m0 *1 53.36,19.04
X$510 17 68 96 23 17 2 509 sky130_fd_sc_hd__xnor2_1
* cell instance $512 m0 *1 57.04,19.04
X$512 17 57 58 2 17 91 509 sky130_fd_sc_hd__nor2b_2
* cell instance $513 m0 *1 60.26,19.04
X$513 2 73 58 17 17 509 sky130_fd_sc_hd__buf_6
* cell instance $514 m0 *1 64.4,19.04
X$514 17 57 2 17 92 509 sky130_fd_sc_hd__dlygate4sd1_1
* cell instance $525 r0 *1 10.58,19.04
X$525 17 122 93 11 123 2 17 108 509 sky130_fd_sc_hd__a31oi_1
* cell instance $531 r0 *1 16.56,19.04
X$531 17 84 65 93 17 2 509 sky130_fd_sc_hd__nand2_1
* cell instance $532 r0 *1 17.94,19.04
X$532 17 86 97 12 17 2 509 sky130_fd_sc_hd__xnor2_1
* cell instance $533 r0 *1 21.16,19.04
X$533 17 87 2 17 86 509 sky130_fd_sc_hd__dlygate4sd1_1
* cell instance $534 r0 *1 24.38,19.04
X$534 2 87 85 100 84 88 17 17 509 sky130_fd_sc_hd__a211oi_4
* cell instance $536 r0 *1 32.66,19.04
X$536 2 111 100 112 83 68 17 17 509 sky130_fd_sc_hd__o31ai_4
* cell instance $538 r0 *1 40.94,19.04
X$538 17 89 75 105 17 103 2 509 sky130_fd_sc_hd__o21ai_0
* cell instance $541 r0 *1 43.24,19.04
X$541 17 105 74 90 2 17 509 sky130_fd_sc_hd__nor2_1
* cell instance $543 r0 *1 45.08,19.04
X$543 17 89 74 17 2 509 sky130_fd_sc_hd__dlymetal6s2s_1
* cell instance $544 r0 *1 49.68,19.04
X$544 2 99 74 17 17 509 sky130_fd_sc_hd__buf_6
* cell instance $545 r0 *1 53.82,19.04
X$545 17 95 91 96 2 17 509 sky130_fd_sc_hd__nor2_1
* cell instance $546 r0 *1 55.2,19.04
X$546 17 90 57 70 153 17 2 509 sky130_fd_sc_hd__maj3_1
* cell instance $547 r0 *1 58.88,19.04
X$547 17 57 2 17 94 509 sky130_fd_sc_hd__dlygate4sd1_1
* cell instance $548 r0 *1 62.1,19.04
X$548 17 70 92 107 17 2 509 sky130_fd_sc_hd__nand2_1
* cell instance $574 m0 *1 19.32,8.16
X$574 17 53 40 11 22 2 17 39 509 sky130_fd_sc_hd__a31oi_1
* cell instance $575 m0 *1 21.62,8.16
X$575 17 13 12 40 17 2 509 sky130_fd_sc_hd__nand2_1
* cell instance $578 m0 *1 27.6,8.16
X$578 17 13 15 32 17 2 509 sky130_fd_sc_hd__nand2_1
* cell instance $580 m0 *1 29.44,8.16
X$580 17 32 45 11 44 2 17 43 509 sky130_fd_sc_hd__a31oi_1
* cell instance $581 m0 *1 31.74,8.16
X$581 17 33 16 41 42 17 2 509 sky130_fd_sc_hd__mux2_1
* cell instance $582 m0 *1 35.88,8.16
X$582 2 35 38 37 34 17 17 509 sky130_fd_sc_hd__edfxtp_1
* cell instance $583 m0 *1 46.92,8.16
X$583 17 36 48 2 17 509 sky130_fd_sc_hd__clkbuf_1
* cell instance $606 r0 *1 15.64,8.16
X$606 2 55 46 39 34 17 17 509 sky130_fd_sc_hd__edfxtp_1
* cell instance $608 r0 *1 28.52,8.16
X$608 2 41 46 43 34 17 17 509 sky130_fd_sc_hd__edfxtp_1
* cell instance $610 r0 *1 40.48,8.16
X$610 17 66 47 11 28 2 17 37 509 sky130_fd_sc_hd__a31oi_1
* cell instance $614 r0 *1 43.7,8.16
X$614 17 13 24 47 17 2 509 sky130_fd_sc_hd__nand2_1
* cell instance $615 r0 *1 45.08,8.16
X$615 17 48 14 62 2 17 509 sky130_fd_sc_hd__nor2_1
* cell instance $619 r0 *1 49.68,8.16
X$619 17 13 23 51 17 2 509 sky130_fd_sc_hd__nand2_1
* cell instance $646 m0 *1 20.24,68
X$646 17 61 403 78 17 433 2 509 sky130_fd_sc_hd__o21ai_0
* cell instance $647 m0 *1 22.08,68
X$647 17 11 433 402 435 2 17 434 509 sky130_fd_sc_hd__a31oi_1
* cell instance $648 m0 *1 24.38,68
X$648 17 244 2 17 410 509 sky130_fd_sc_hd__dlygate4sd1_1
* cell instance $653 m0 *1 29.9,68
X$653 17 411 78 17 2 404 509 sky130_fd_sc_hd__nand2b_2
* cell instance $654 m0 *1 33.12,68
X$654 17 405 404 436 17 2 509 sky130_fd_sc_hd__nand2_1
* cell instance $655 m0 *1 34.5,68
X$655 2 398 413 451 404 337 420 17 17 509 sky130_fd_sc_hd__a221oi_2
* cell instance $657 m0 *1 40.94,68
X$657 2 444 405 415 389 452 17 17 509 sky130_fd_sc_hd__a22oi_4
* cell instance $658 m0 *1 48.76,68
X$658 17 397 381 492 417 17 2 509 sky130_fd_sc_hd__or3_1
* cell instance $659 m0 *1 51.06,68
X$659 2 440 424 397 17 17 509 sky130_fd_sc_hd__nand2b_4
* cell instance $662 m0 *1 57.04,68
X$662 2 426 412 404 405 395 17 17 509 sky130_fd_sc_hd__nand4_4
* cell instance $663 m0 *1 64.86,68
X$663 2 400 17 156 427 17 509 sky130_fd_sc_hd__nor2_2
* cell instance $664 m0 *1 67.16,68
X$664 2 430 346 428 34 17 17 509 sky130_fd_sc_hd__edfxtp_1
* cell instance $665 m0 *1 78.2,68
X$665 17 399 2 408 17 509 sky130_fd_sc_hd__buf_2
* cell instance $666 m0 *1 80.04,68
X$666 17 399 431 2 17 509 sky130_fd_sc_hd__clkbuf_1
* cell instance $667 m0 *1 81.42,68
X$667 17 407 432 2 17 509 sky130_fd_sc_hd__clkbuf_1
* cell instance $680 r0 *1 16.1,68
X$680 2 411 275 434 34 17 17 509 sky130_fd_sc_hd__edfxtp_1
* cell instance $681 r0 *1 27.14,68
X$681 17 385 450 260 17 2 339 509 sky130_fd_sc_hd__o21ai_1
* cell instance $683 r0 *1 29.44,68
X$683 17 78 411 17 2 405 509 sky130_fd_sc_hd__nand2b_2
* cell instance $684 r0 *1 32.66,68
X$684 17 419 436 500 17 2 509 sky130_fd_sc_hd__xnor2_1
* cell instance $686 r0 *1 36.34,68
X$686 17 405 463 437 451 17 2 509 sky130_fd_sc_hd__nand3_1
* cell instance $687 r0 *1 38.18,68
X$687 17 315 2 17 414 509 sky130_fd_sc_hd__dlygate4sd1_1
* cell instance $688 r0 *1 41.4,68
X$688 17 420 337 392 2 17 509 sky130_fd_sc_hd__nor2_1
* cell instance $691 r0 *1 43.24,68
X$691 17 439 438 442 446 17 2 509 sky130_fd_sc_hd__maj3_1
* cell instance $692 r0 *1 46.92,68
X$692 2 421 422 419 445 423 17 17 509 sky130_fd_sc_hd__o2bb2ai_2
* cell instance $693 r0 *1 52.44,68
X$693 2 394 418 17 17 509 sky130_fd_sc_hd__buf_6
* cell instance $694 r0 *1 56.58,68
X$694 17 424 425 2 426 17 509 sky130_fd_sc_hd__and2_4
* cell instance $696 r0 *1 60.26,68
X$696 2 300 430 372 17 17 509 sky130_fd_sc_hd__xor2_2
* cell instance $697 r0 *1 66.24,68
X$697 17 449 467 448 17 2 509 sky130_fd_sc_hd__xnor2_1
* cell instance $701 r0 *1 70.84,68
X$701 17 156 2 423 17 509 sky130_fd_sc_hd__buf_2
* cell instance $702 r0 *1 72.68,68
X$702 17 429 390 459 17 396 2 509 sky130_fd_sc_hd__o21ai_0
* cell instance $703 r0 *1 74.52,68
X$703 17 430 17 2 457 509 sky130_fd_sc_hd__clkbuf_2
* cell instance $704 r0 *1 76.36,68
X$704 17 156 2 386 17 509 sky130_fd_sc_hd__buf_2
* cell instance $705 r0 *1 78.2,68
X$705 17 409 447 206 17 2 428 509 sky130_fd_sc_hd__o21ai_1
* cell instance $706 r0 *1 80.04,68
X$706 17 432 260 447 17 2 509 sky130_fd_sc_hd__nand2_1
* cell instance $720 m0 *1 20.7,35.36
X$720 17 170 171 209 87 2 17 509 sky130_fd_sc_hd__maj3_2
* cell instance $722 m0 *1 25.76,35.36
X$722 17 46 512 2 17 509 sky130_fd_sc_hd__clkbuf_1
* cell instance $723 m0 *1 27.14,35.36
X$723 17 171 170 157 17 2 509 sky130_fd_sc_hd__nand2_1
* cell instance $726 m0 *1 29.44,35.36
X$726 2 140 167 178 180 190 17 17 509 sky130_fd_sc_hd__a31oi_4
* cell instance $727 m0 *1 37.26,35.36