* CDL Netlist generated by OpenROAD

*.BUSDELIMITER [

.SUBCKT gcd clk req_msg[0] req_msg[10] req_msg[11] req_msg[12]
+ req_msg[13] req_msg[14] req_msg[15] req_msg[16] req_msg[17]
+ req_msg[18] req_msg[19] req_msg[1] req_msg[20] req_msg[21]
+ req_msg[22] req_msg[23] req_msg[24] req_msg[25] req_msg[26]
+ req_msg[27] req_msg[28] req_msg[29] req_msg[2] req_msg[30]
+ req_msg[31] req_msg[3] req_msg[4] req_msg[5] req_msg[6] req_msg[7]
+ req_msg[8] req_msg[9] req_rdy req_val reset resp_msg[0] resp_msg[10]
+ resp_msg[11] resp_msg[12] resp_msg[13] resp_msg[14] resp_msg[15]
+ resp_msg[1] resp_msg[2] resp_msg[3] resp_msg[4] resp_msg[5]
+ resp_msg[6] resp_msg[7] resp_msg[8] resp_msg[9] resp_rdy resp_val
X_243_ dpath.a_lt_b$in0\[0\] dpath.a_lt_b$in1\[0\] VSS VSS
+ VDD VDD _003_ sky130_fd_sc_hd__and2b_2
X_244_ net75 net60 VSS VSS VDD VDD _004_ sky130_fd_sc_hd__or2b_1
X_245_ _003_ _004_ VSS VSS VDD VDD net38 sky130_fd_sc_hd__nand2b_1
X_246_ net37 VSS VSS VDD VDD _005_ sky130_fd_sc_hd__buf_4
X_247_ _005_ VSS VSS VDD VDD _006_ sky130_fd_sc_hd__clkbuf_4
X_248_ dpath.a_lt_b$in1\[14\] net89 dpath.a_lt_b$in1\[4\]
+ net309 VSS VSS VDD VDD _007_ sky130_fd_sc_hd__nor4_1
X_249_ dpath.a_lt_b$in1\[12\] VSS VSS VDD VDD _008_ sky130_fd_sc_hd__buf_4
X_250_ dpath.a_lt_b$in1\[11\] VSS VSS VDD VDD _009_ sky130_fd_sc_hd__buf_2
X_251_ _008_ _009_ net116 net125 VSS VSS VDD VDD _010_ sky130_fd_sc_hd__nor4_4
X_252_ dpath.a_lt_b$in1\[5\] VSS VSS VDD VDD _011_ sky130_fd_sc_hd__buf_6
X_253_ dpath.a_lt_b$in1\[3\] VSS VSS VDD VDD _012_ sky130_fd_sc_hd__clkbuf_2
X_254_ _012_ net135 VSS VSS VDD VDD _013_ sky130_fd_sc_hd__nor2_2
X_255_ dpath.a_lt_b$in1\[1\] VSS VSS VDD VDD _014_ sky130_fd_sc_hd__clkbuf_2
X_256_ _014_ net77 VSS VSS VDD VDD _015_ sky130_fd_sc_hd__nor2_1
X_257_ dpath.a_lt_b$in1\[13\] VSS VSS VDD VDD _016_ sky130_fd_sc_hd__buf_6
X_258_ dpath.a_lt_b$in1\[15\] net123 net96 net311 VSS VSS
+ VDD VDD _017_ sky130_fd_sc_hd__nor4_1
X_259_ net215 _015_ _017_ VSS VSS VDD VDD _018_ sky130_fd_sc_hd__and3_1
X_260_ _007_ _018_ _010_ VSS VSS VDD VDD _019_ sky130_fd_sc_hd__nand3_2
X_261_ _006_ net34 ctrl.state.out\[2\] _019_ VSS VSS VDD VDD
+ _020_ sky130_fd_sc_hd__a22oi_1
X_262_ net35 _020_ VSS VSS VDD VDD _002_ sky130_fd_sc_hd__nor2_1
X_263_ ctrl.state.out\[1\] VSS VSS VDD VDD _021_ sky130_fd_sc_hd__inv_1
X_264_ net37 ctrl.state.out\[2\] VSS VSS VDD VDD ctrl$a_reg_en
+ sky130_fd_sc_hd__or2_4
X_265_ _021_ ctrl$a_reg_en VSS VSS VDD VDD net54 sky130_fd_sc_hd__nor2_1
X_266_ net34 VSS VSS VDD VDD _022_ sky130_fd_sc_hd__inv_1
X_267_ _006_ _022_ net36 net54 net35 VSS VSS VDD VDD _000_
+ sky130_fd_sc_hd__a221o_1
X_268_ net36 VSS VSS VDD VDD _023_ sky130_fd_sc_hd__inv_1
X_269_ _006_ _023_ ctrl.state.out\[1\] VSS VSS VDD VDD _024_
+ sky130_fd_sc_hd__o21ai_0
X_270_ _021_ _019_ ctrl.state.out\[2\] VSS VSS VDD VDD _025_
+ sky130_fd_sc_hd__a21bo_1
X_271_ _024_ _025_ net35 VSS VSS VDD VDD _001_ sky130_fd_sc_hd__a21oi_1
Xclone1 _106_ ctrl.state.out\[2\] _107_ VSS VSS VDD VDD net1
+ sky130_fd_sc_hd__a21o_4
X_273_ _008_ dpath.a_lt_b$in0\[12\] VSS VSS VDD VDD _027_
+ sky130_fd_sc_hd__xnor2_4
X_274_ dpath.a_lt_b$in0\[14\] dpath.a_lt_b$in1\[14\] VSS VSS
+ VDD VDD _028_ sky130_fd_sc_hd__nand2b_2
X_275_ dpath.a_lt_b$in1\[14\] dpath.a_lt_b$in0\[14\] VSS VSS
+ VDD VDD _029_ sky130_fd_sc_hd__nand2b_2
X_276_ _016_ dpath.a_lt_b$in0\[13\] VSS VSS VDD VDD _030_
+ sky130_fd_sc_hd__nand2b_1
X_277_ dpath.a_lt_b$in0\[13\] _016_ VSS VSS VDD VDD _031_
+ sky130_fd_sc_hd__nand2b_4
X_278_ _031_ _030_ VSS VSS VDD VDD _032_ sky130_fd_sc_hd__and2_4
X_279_ _027_ _028_ _029_ _032_ VSS VSS VDD VDD _033_ sky130_fd_sc_hd__nand4_4
X_280_ dpath.a_lt_b$in0\[11\] VSS VSS VDD VDD _034_ sky130_fd_sc_hd__buf_2
X_281_ _034_ _009_ VSS VSS VDD VDD _035_ sky130_fd_sc_hd__xor2_2
X_282_ _035_ _033_ VSS VSS VDD VDD _036_ sky130_fd_sc_hd__nor2_4
X_283_ dpath.a_lt_b$in0\[8\] net312 VSS VSS VDD VDD _037_
+ sky130_fd_sc_hd__nor2b_4
X_284_ dpath.a_lt_b$in1\[8\] dpath.a_lt_b$in0\[8\] VSS VSS
+ VDD VDD _038_ sky130_fd_sc_hd__nor2b_1
X_285_ _038_ _037_ VSS VSS VDD VDD _039_ sky130_fd_sc_hd__nor2_2
X_286_ dpath.a_lt_b$in1\[10\] dpath.a_lt_b$in0\[10\] VSS VSS
+ VDD VDD _040_ sky130_fd_sc_hd__nor2b_4
X_287_ net112 dpath.a_lt_b$in1\[10\] VSS VSS VDD VDD _041_
+ sky130_fd_sc_hd__nor2b_4
X_288_ _041_ _040_ VSS VSS VDD VDD _042_ sky130_fd_sc_hd__nor2_2
X_289_ dpath.a_lt_b$in1\[9\] VSS VSS VDD VDD _043_ sky130_fd_sc_hd__inv_1
X_290_ dpath.a_lt_b$in0\[9\] _043_ VSS VSS VDD VDD _044_ sky130_fd_sc_hd__nor2_1
X_291_ dpath.a_lt_b$in0\[9\] VSS VSS VDD VDD _045_ sky130_fd_sc_hd__inv_2
X_292_ _045_ net99 VSS VSS VDD VDD _046_ sky130_fd_sc_hd__nor2_1
X_293_ _046_ _044_ VSS VSS VDD VDD _047_ sky130_fd_sc_hd__nor2_2
X_294_ _039_ _042_ _047_ VSS VSS VDD VDD _048_ sky130_fd_sc_hd__and3_4
X_295_ dpath.a_lt_b$in0\[15\] dpath.a_lt_b$in1\[15\] VSS VSS
+ VDD VDD _049_ sky130_fd_sc_hd__xnor2_2
X_296_ net119 _048_ _049_ VSS VSS VDD VDD _050_ sky130_fd_sc_hd__nand3_4
X_297_ dpath.a_lt_b$in0\[7\] VSS VSS VDD VDD _051_ sky130_fd_sc_hd__buf_6
X_298_ _051_ net110 VSS VSS VDD VDD _052_ sky130_fd_sc_hd__xor2_4
X_299_ net63 net87 VSS VSS VDD VDD _053_ sky130_fd_sc_hd__nor2b_2
X_300_ net87 dpath.a_lt_b$in0\[6\] VSS VSS VDD VDD _054_ sky130_fd_sc_hd__nor2b_2
X_301_ dpath.a_lt_b$in0\[5\] _011_ VSS VSS VDD VDD _055_ sky130_fd_sc_hd__xor2_2
X_302_ _055_ _052_ _054_ _053_ VSS VSS VDD VDD _056_ sky130_fd_sc_hd__nor4_4
X_303_ dpath.a_lt_b$in0\[4\] dpath.a_lt_b$in1\[4\] VSS VSS
+ VDD VDD _057_ sky130_fd_sc_hd__nor2b_1
X_304_ dpath.a_lt_b$in1\[4\] dpath.a_lt_b$in0\[4\] VSS VSS
+ VDD VDD _058_ sky130_fd_sc_hd__nor2b_1
X_305_ _057_ _058_ VSS VSS VDD VDD _059_ sky130_fd_sc_hd__nor2_1
X_306_ dpath.a_lt_b$in0\[3\] _012_ VSS VSS VDD VDD _060_ sky130_fd_sc_hd__xnor2_1
X_307_ dpath.a_lt_b$in0\[2\] net308 VSS VSS VDD VDD _061_
+ sky130_fd_sc_hd__nand2b_1
X_308_ dpath.a_lt_b$in1\[2\] dpath.a_lt_b$in0\[2\] VSS VSS
+ VDD VDD _062_ sky130_fd_sc_hd__nand2b_1
X_309_ _061_ _062_ VSS VSS VDD VDD _063_ sky130_fd_sc_hd__and2_0
X_310_ _056_ _059_ _060_ _063_ VSS VSS VDD VDD _064_ sky130_fd_sc_hd__nand4_1
X_311_ dpath.a_lt_b$in0\[1\] _014_ VSS VSS VDD VDD _065_ sky130_fd_sc_hd__xnor2_1
X_312_ net38 _050_ _064_ _065_ VSS VSS VDD VDD _066_ sky130_fd_sc_hd__or4b_4
XTAP_TAPCELL_ROW_0_0 VSS VDD sky130_fd_sc_hd__tapvpwrvgnd_1
X_314_ dpath.a_lt_b$in0\[3\] VSS VSS VDD VDD _068_ sky130_fd_sc_hd__inv_1
X_315_ dpath.a_lt_b$in0\[2\] net308 VSS VSS VDD VDD _069_
+ sky130_fd_sc_hd__nor2b_2
X_316_ _068_ _012_ _069_ VSS VSS VDD VDD _070_ sky130_fd_sc_hd__maj3_2
X_317_ dpath.a_lt_b$in0\[5\] VSS VSS VDD VDD _071_ sky130_fd_sc_hd__inv_1
X_318_ dpath.a_lt_b$in0\[3\] _061_ _013_ VSS VSS VDD VDD _072_
+ sky130_fd_sc_hd__o21ai_1
X_319_ _072_ _071_ dpath.a_lt_b$in1\[4\] VSS VSS VDD VDD _073_
+ sky130_fd_sc_hd__a21oi_2
X_320_ _070_ _073_ VSS VSS VDD VDD _074_ sky130_fd_sc_hd__nand2b_1
X_321_ dpath.a_lt_b$in1\[4\] _068_ _069_ _071_ VSS VSS VDD
+ VDD _075_ sky130_fd_sc_hd__o31a_1
X_322_ dpath.a_lt_b$in0\[5\] dpath.a_lt_b$in0\[4\] VSS VSS
+ VDD VDD _076_ sky130_fd_sc_hd__nand2_1
X_323_ _052_ _053_ _054_ VSS VSS VDD VDD _077_ sky130_fd_sc_hd__nor3_1
X_324_ net135 _075_ _076_ _070_ _077_ VSS VSS VDD VDD _078_
+ sky130_fd_sc_hd__o221a_1
X_325_ _070_ dpath.a_lt_b$in1\[4\] net135 VSS VSS VDD VDD
+ _079_ sky130_fd_sc_hd__a21oi_2
X_326_ _073_ _079_ dpath.a_lt_b$in0\[4\] VSS VSS VDD VDD _080_
+ sky130_fd_sc_hd__o21ai_2
X_327_ net60 _015_ dpath.a_lt_b$in0\[1\] VSS VSS VDD VDD _081_
+ sky130_fd_sc_hd__a21oi_1
X_328_ _014_ _004_ _081_ VSS VSS VDD VDD _082_ sky130_fd_sc_hd__a21oi_1
X_329_ dpath.a_lt_b$in1\[7\] VSS VSS VDD VDD _083_ sky130_fd_sc_hd__inv_1
X_330_ dpath.a_lt_b$in0\[6\] dpath.a_lt_b$in1\[6\] VSS VSS
+ VDD VDD _084_ sky130_fd_sc_hd__nand2b_4
X_331_ _084_ _051_ _083_ VSS VSS VDD VDD _085_ sky130_fd_sc_hd__maj3_2
X_332_ _082_ net104 net68 VSS VSS VDD VDD _086_ sky130_fd_sc_hd__o21ai_2
X_333_ _074_ _078_ _080_ _086_ VSS VSS VDD VDD _087_ sky130_fd_sc_hd__a31oi_4
X_334_ dpath.a_lt_b$in0\[15\] VSS VSS VDD VDD _088_ sky130_fd_sc_hd__inv_1
X_335_ _008_ VSS VSS VDD VDD _089_ sky130_fd_sc_hd__inv_1
X_336_ _089_ net105 VSS VSS VDD VDD _090_ sky130_fd_sc_hd__nor2_1
X_337_ net122 _090_ VSS VSS VDD VDD _091_ sky130_fd_sc_hd__nand2_1
X_338_ dpath.a_lt_b$in0\[13\] VSS VSS VDD VDD _092_ sky130_fd_sc_hd__inv_1
X_339_ net122 _090_ _092_ VSS VSS VDD VDD _093_ sky130_fd_sc_hd__o21ai_0
X_340_ _028_ _091_ _093_ VSS VSS VDD VDD _094_ sky130_fd_sc_hd__nand3_1
X_341_ _009_ VSS VSS VDD VDD _095_ sky130_fd_sc_hd__inv_1
X_342_ _041_ VSS VSS VDD VDD _096_ sky130_fd_sc_hd__inv_1
X_343_ net102 _037_ VSS VSS VDD VDD _097_ sky130_fd_sc_hd__nand2_1
X_344_ net100 _037_ net128 VSS VSS VDD VDD _098_ sky130_fd_sc_hd__o21ai_0
X_345_ _034_ _095_ _096_ _097_ _098_ VSS VSS VDD VDD _099_
+ sky130_fd_sc_hd__o2111a_1
X_346_ _034_ _095_ _040_ VSS VSS VDD VDD _100_ sky130_fd_sc_hd__maj3_1
X_347_ _033_ _099_ _100_ VSS VSS VDD VDD _101_ sky130_fd_sc_hd__nor3_1
X_348_ _088_ dpath.a_lt_b$in1\[15\] _029_ _094_ _101_ VSS
+ VSS VDD VDD _102_ sky130_fd_sc_hd__a221oi_2
X_349_ _088_ dpath.a_lt_b$in1\[15\] VSS VSS VDD VDD _103_
+ sky130_fd_sc_hd__nor2_1
X_350_ _050_ _087_ _102_ _103_ VSS VSS VDD VDD _104_ sky130_fd_sc_hd__o22ai_4
X_351_ _104_ _066_ VSS VSS VDD VDD _105_ sky130_fd_sc_hd__and2_4
X_352_ _105_ VSS VSS VDD VDD _106_ sky130_fd_sc_hd__buf_12
X_353_ _005_ VSS VSS VDD VDD _107_ sky130_fd_sc_hd__clkbuf_4
X_354_ ctrl.state.out\[2\] _106_ _107_ VSS VSS VDD VDD ctrl$b_reg_en
+ sky130_fd_sc_hd__a21o_4
X_355_ _005_ ctrl.state.out\[2\] VSS VSS VDD VDD _108_ sky130_fd_sc_hd__nand2b_2
X_356_ _108_ VSS VSS VDD VDD _109_ sky130_fd_sc_hd__clkbuf_4
X_357_ _104_ net93 net61 VSS VSS VDD VDD _110_ sky130_fd_sc_hd__a21boi_2
X_358_ _110_ net59 VSS VSS VDD VDD _111_ sky130_fd_sc_hd__xnor2_1
X_359_ net9 _109_ VSS VSS VDD VDD _112_ sky130_fd_sc_hd__nand2_1
X_360_ _111_ _109_ _112_ VSS VSS VDD VDD dpath.a_mux$out\[0\]
+ sky130_fd_sc_hd__o21ai_1
X_361_ dpath.a_lt_b$in0\[9\] _043_ _038_ VSS VSS VDD VDD _113_
+ sky130_fd_sc_hd__maj3_1
X_362_ net107 _083_ _054_ _113_ VSS VSS VDD VDD _114_ sky130_fd_sc_hd__a211oi_2
X_363_ dpath.a_lt_b$in0\[1\] VSS VSS VDD VDD _115_ sky130_fd_sc_hd__inv_1
X_364_ _115_ _014_ _003_ VSS VSS VDD VDD _116_ sky130_fd_sc_hd__maj3_2
X_365_ _062_ _116_ _012_ _069_ VSS VSS VDD VDD _117_ sky130_fd_sc_hd__a211oi_4
X_366_ _014_ _003_ VSS VSS VDD VDD _118_ sky130_fd_sc_hd__nand2_1
X_367_ _014_ _003_ _115_ VSS VSS VDD VDD _119_ sky130_fd_sc_hd__o21ai_1
X_368_ _012_ _062_ _068_ VSS VSS VDD VDD _120_ sky130_fd_sc_hd__a21oi_1
X_369_ dpath.a_lt_b$in0\[3\] _061_ _118_ _119_ _120_ VSS VSS
+ VDD VDD _121_ sky130_fd_sc_hd__a41o_1
X_370_ _071_ _011_ VSS VSS VDD VDD _122_ sky130_fd_sc_hd__nor2_1
X_371_ _122_ _058_ VSS VSS VDD VDD _123_ sky130_fd_sc_hd__or2_0
X_372_ net134 _057_ _071_ VSS VSS VDD VDD _124_ sky130_fd_sc_hd__o21ai_0
X_373_ net134 _057_ _124_ VSS VSS VDD VDD _125_ sky130_fd_sc_hd__a21boi_1
X_374_ _117_ _123_ _121_ _125_ VSS VSS VDD VDD _126_ sky130_fd_sc_hd__o31ai_4
X_375_ dpath.a_lt_b$in1\[8\] VSS VSS VDD VDD _127_ sky130_fd_sc_hd__inv_1
X_376_ net69 _127_ _085_ VSS VSS VDD VDD _128_ sky130_fd_sc_hd__maj3_2
X_377_ _046_ _128_ _044_ VSS VSS VDD VDD _129_ sky130_fd_sc_hd__o21bai_2
X_378_ _126_ _114_ _129_ VSS VSS VDD VDD _130_ sky130_fd_sc_hd__a21oi_2
X_379_ net124 _130_ VSS VSS VDD VDD net39 sky130_fd_sc_hd__xor2_1
X_380_ dpath.a_lt_b$in1\[10\] VSS VSS VDD VDD _131_ sky130_fd_sc_hd__inv_1
X_381_ _131_ net93 net91 VSS VSS VDD VDD _132_ sky130_fd_sc_hd__nand3_1
X_382_ net39 _106_ _132_ VSS VSS VDD VDD _133_ sky130_fd_sc_hd__o21ai_4
X_383_ net20 _109_ VSS VSS VDD VDD _134_ sky130_fd_sc_hd__nand2_1
X_384_ _109_ _133_ _134_ VSS VSS VDD VDD dpath.a_mux$out\[10\]
+ sky130_fd_sc_hd__o21ai_1
X_385_ _131_ _130_ net111 VSS VSS VDD VDD _135_ sky130_fd_sc_hd__maj3_2
X_386_ _035_ net64 VSS VSS VDD VDD net40 sky130_fd_sc_hd__xnor2_2
X_387_ _066_ net90 VSS VSS VDD VDD _136_ sky130_fd_sc_hd__nand2_4
X_388_ _009_ net40 _136_ VSS VSS VDD VDD _137_ sky130_fd_sc_hd__mux2i_1
X_389_ net21 _109_ VSS VSS VDD VDD _138_ sky130_fd_sc_hd__nand2_1
X_390_ _108_ _137_ _138_ VSS VSS VDD VDD dpath.a_mux$out\[11\]
+ sky130_fd_sc_hd__o21ai_1
X_391_ _008_ dpath.a_lt_b$in0\[12\] VSS VSS VDD VDD _139_
+ sky130_fd_sc_hd__xor2_2
X_392_ dpath.a_lt_b$in0\[4\] dpath.a_lt_b$in1\[4\] VSS VSS
+ VDD VDD _140_ sky130_fd_sc_hd__nand2b_1
X_393_ _012_ _057_ _069_ VSS VSS VDD VDD _141_ sky130_fd_sc_hd__nor3_1
X_394_ _062_ net84 VSS VSS VDD VDD _142_ sky130_fd_sc_hd__nand2_1
X_395_ _121_ _140_ _142_ _141_ _058_ VSS VSS VDD VDD _143_
+ sky130_fd_sc_hd__a221o_1
X_396_ net87 VSS VSS VDD VDD _144_ sky130_fd_sc_hd__inv_1
X_397_ _144_ dpath.a_lt_b$in0\[6\] _122_ VSS VSS VDD VDD _145_
+ sky130_fd_sc_hd__maj3_1
X_398_ net107 _083_ _145_ VSS VSS VDD VDD _146_ sky130_fd_sc_hd__maj3_1
X_399_ _143_ net92 _146_ VSS VSS VDD VDD _147_ sky130_fd_sc_hd__a21oi_4
X_400_ _009_ _034_ VSS VSS VDD VDD _148_ sky130_fd_sc_hd__nor2b_1
X_401_ _131_ dpath.a_lt_b$in0\[10\] _113_ VSS VSS VDD VDD
+ _149_ sky130_fd_sc_hd__maj3_1
X_402_ _034_ _009_ VSS VSS VDD VDD _150_ sky130_fd_sc_hd__nand2b_1
X_403_ _148_ _149_ _150_ VSS VSS VDD VDD _151_ sky130_fd_sc_hd__o21ai_0
X_404_ _139_ _035_ VSS VSS VDD VDD _152_ sky130_fd_sc_hd__nor2_1
X_405_ net121 _152_ VSS VSS VDD VDD _153_ sky130_fd_sc_hd__nand2_1
X_406_ _147_ _153_ VSS VSS VDD VDD _154_ sky130_fd_sc_hd__nor2_2
X_407_ net101 _037_ net120 VSS VSS VDD VDD _155_ sky130_fd_sc_hd__a21oi_1
X_408_ _098_ _155_ _113_ _139_ VSS VSS VDD VDD _156_ sky130_fd_sc_hd__o2bb2ai_1
X_409_ _034_ _042_ _156_ VSS VSS VDD VDD _157_ sky130_fd_sc_hd__nand3_1
X_410_ _139_ _096_ _157_ VSS VSS VDD VDD _158_ sky130_fd_sc_hd__o21ai_0
X_411_ _095_ net127 _156_ VSS VSS VDD VDD _159_ sky130_fd_sc_hd__nand3_1
X_412_ _009_ _041_ net120 VSS VSS VDD VDD _160_ sky130_fd_sc_hd__o21ai_0
X_413_ _159_ _160_ _034_ VSS VSS VDD VDD _161_ sky130_fd_sc_hd__a21oi_1
X_414_ _139_ _100_ _158_ _009_ _161_ VSS VSS VDD VDD _162_
+ sky130_fd_sc_hd__a221oi_1
X_415_ _139_ net81 _151_ _154_ _162_ VSS VSS VDD VDD net41
+ sky130_fd_sc_hd__a311oi_2
X_416_ _008_ net79 _136_ VSS VSS VDD VDD _163_ sky130_fd_sc_hd__mux2i_1
X_417_ net22 _109_ VSS VSS VDD VDD _164_ sky130_fd_sc_hd__nand2_1
X_418_ _163_ _108_ _164_ VSS VSS VDD VDD dpath.a_mux$out\[12\]
+ sky130_fd_sc_hd__o21ai_1
X_419_ dpath.a_lt_b$in0\[10\] _152_ VSS VSS VDD VDD _165_
+ sky130_fd_sc_hd__nand2_1
X_420_ _131_ _152_ VSS VSS VDD VDD _166_ sky130_fd_sc_hd__nand2_1
X_421_ _114_ net57 _165_ _166_ net55 VSS VSS VDD VDD _167_
+ sky130_fd_sc_hd__a221oi_4
X_422_ net105 _148_ VSS VSS VDD VDD _168_ sky130_fd_sc_hd__nand2_1
X_423_ _008_ _168_ VSS VSS VDD VDD _169_ sky130_fd_sc_hd__nand2_1
X_424_ net105 _148_ _169_ VSS VSS VDD VDD _170_ sky130_fd_sc_hd__o21ai_1
X_425_ _040_ _152_ VSS VSS VDD VDD _171_ sky130_fd_sc_hd__nand2_1
X_426_ _170_ _171_ VSS VSS VDD VDD _172_ sky130_fd_sc_hd__nand2_1
X_427_ _167_ _172_ dpath.a_lt_b$in0\[13\] VSS VSS VDD VDD
+ _173_ sky130_fd_sc_hd__o21ai_1
X_428_ dpath.a_lt_b$in0\[13\] _172_ net74 VSS VSS VDD VDD
+ _174_ sky130_fd_sc_hd__or3_1
X_429_ net93 net217 _174_ _173_ VSS VSS VDD VDD _175_ sky130_fd_sc_hd__a22oi_2
X_430_ _175_ net122 VSS VSS VDD VDD _176_ sky130_fd_sc_hd__xnor2_1
X_431_ net23 _109_ VSS VSS VDD VDD _177_ sky130_fd_sc_hd__nand2_1
X_432_ _176_ _108_ _177_ VSS VSS VDD VDD dpath.a_mux$out\[13\]
+ sky130_fd_sc_hd__o21ai_1
X_433_ net37 ctrl.state.out\[2\] VSS VSS VDD VDD _178_ sky130_fd_sc_hd__nor2b_1
X_434_ _178_ VSS VSS VDD VDD _179_ sky130_fd_sc_hd__buf_2
X_435_ _179_ VSS VSS VDD VDD _180_ sky130_fd_sc_hd__clkbuf_4
X_436_ _092_ _016_ VSS VSS VDD VDD _181_ sky130_fd_sc_hd__nor2_1
X_437_ _089_ net105 _181_ _148_ _149_ VSS VSS VDD VDD _182_
+ sky130_fd_sc_hd__a2111oi_2
X_438_ _089_ net105 _181_ _150_ VSS VSS VDD VDD _183_ sky130_fd_sc_hd__a211oi_1
X_439_ _090_ _030_ _182_ _183_ VSS VSS VDD VDD _184_ sky130_fd_sc_hd__a211oi_1
X_440_ _031_ _048_ _152_ VSS VSS VDD VDD _185_ sky130_fd_sc_hd__nand3_1
X_441_ net227 _184_ _185_ net80 VSS VSS VDD VDD _186_ sky130_fd_sc_hd__o2bb2ai_2
X_442_ dpath.a_lt_b$in0\[14\] _186_ VSS VSS VDD VDD _187_
+ sky130_fd_sc_hd__xor2_1
X_443_ _106_ _187_ dpath.a_lt_b$in1\[14\] VSS VSS VDD VDD
+ _188_ sky130_fd_sc_hd__o21ai_0
X_444_ dpath.a_lt_b$in1\[14\] _105_ _187_ VSS VSS VDD VDD
+ _189_ sky130_fd_sc_hd__or3_1
X_445_ net25 _180_ VSS VSS VDD VDD _190_ sky130_fd_sc_hd__nor2_1
X_446_ _189_ _188_ _180_ _190_ VSS VSS VDD VDD dpath.a_mux$out\[14\]
+ sky130_fd_sc_hd__a31oi_1
X_447_ net26 _109_ VSS VSS VDD VDD _191_ sky130_fd_sc_hd__nand2_1
X_448_ _092_ net122 _170_ VSS VSS VDD VDD _192_ sky130_fd_sc_hd__maj3_1
X_449_ _029_ _192_ VSS VSS VDD VDD _193_ sky130_fd_sc_hd__nand2_1
X_450_ _135_ net95 _193_ _028_ VSS VSS VDD VDD _194_ sky130_fd_sc_hd__a22oi_4
X_451_ _049_ _108_ _194_ VSS VSS VDD VDD _195_ sky130_fd_sc_hd__or3_1
X_452_ dpath.a_lt_b$in1\[15\] _106_ _180_ VSS VSS VDD VDD
+ _196_ sky130_fd_sc_hd__nand3_1
X_453_ _191_ _195_ _196_ VSS VSS VDD VDD dpath.a_mux$out\[15\]
+ sky130_fd_sc_hd__nand3_1
X_454_ _014_ net137 VSS VSS VDD VDD _197_ sky130_fd_sc_hd__nand2_1
X_455_ _003_ _065_ VSS VSS VDD VDD net45 sky130_fd_sc_hd__xnor2_1
X_456_ _136_ net45 VSS VSS VDD VDD _198_ sky130_fd_sc_hd__nand2_1
X_457_ net10 _179_ VSS VSS VDD VDD _199_ sky130_fd_sc_hd__nor2_1
X_458_ _180_ _197_ _198_ _199_ VSS VSS VDD VDD dpath.a_mux$out\[1\]
+ sky130_fd_sc_hd__a31oi_1
X_459_ net307 _106_ VSS VSS VDD VDD _200_ sky130_fd_sc_hd__nand2_1
X_460_ _063_ net66 VSS VSS VDD VDD net46 sky130_fd_sc_hd__xnor2_1
X_461_ _136_ net46 VSS VSS VDD VDD _201_ sky130_fd_sc_hd__nand2_1
X_462_ net11 _179_ VSS VSS VDD VDD _202_ sky130_fd_sc_hd__nor2_1
X_463_ _180_ _201_ _200_ _202_ VSS VSS VDD VDD dpath.a_mux$out\[2\]
+ sky130_fd_sc_hd__a31oi_1
X_464_ _012_ net137 VSS VSS VDD VDD _203_ sky130_fd_sc_hd__nand2_1
X_465_ _061_ _142_ VSS VSS VDD VDD _204_ sky130_fd_sc_hd__nand2_1
X_466_ _060_ _204_ VSS VSS VDD VDD net47 sky130_fd_sc_hd__xnor2_1
X_467_ _136_ net47 VSS VSS VDD VDD _205_ sky130_fd_sc_hd__nand2_1
X_468_ net12 _179_ VSS VSS VDD VDD _206_ sky130_fd_sc_hd__nor2_1
X_469_ _180_ _203_ _205_ _206_ VSS VSS VDD VDD dpath.a_mux$out\[3\]
+ sky130_fd_sc_hd__a31oi_1
X_470_ dpath.a_lt_b$in1\[4\] net137 VSS VSS VDD VDD _207_
+ sky130_fd_sc_hd__nand2_1
X_471_ net72 net58 VSS VSS VDD VDD _208_ sky130_fd_sc_hd__nor2_2
X_472_ _208_ _059_ VSS VSS VDD VDD net48 sky130_fd_sc_hd__xnor2_1
X_473_ _136_ net48 VSS VSS VDD VDD _209_ sky130_fd_sc_hd__nand2_1
X_474_ net14 _179_ VSS VSS VDD VDD _210_ sky130_fd_sc_hd__nor2_1
X_475_ _180_ _207_ _209_ _210_ VSS VSS VDD VDD dpath.a_mux$out\[4\]
+ sky130_fd_sc_hd__a31oi_1
X_476_ _011_ net137 VSS VSS VDD VDD _211_ sky130_fd_sc_hd__nand2_1
X_477_ _055_ _143_ VSS VSS VDD VDD net49 sky130_fd_sc_hd__xnor2_2
X_478_ _136_ net49 VSS VSS VDD VDD _212_ sky130_fd_sc_hd__nand2_1
X_479_ net15 _179_ VSS VSS VDD VDD _213_ sky130_fd_sc_hd__nor2_1
X_480_ _180_ _212_ _211_ _213_ VSS VSS VDD VDD dpath.a_mux$out\[5\]
+ sky130_fd_sc_hd__a31oi_1
X_481_ net88 net137 VSS VSS VDD VDD _214_ sky130_fd_sc_hd__nand2_1
X_482_ _053_ _054_ VSS VSS VDD VDD _215_ sky130_fd_sc_hd__nor2_1
X_483_ _215_ _126_ VSS VSS VDD VDD net50 sky130_fd_sc_hd__xnor2_1
X_484_ _136_ net50 VSS VSS VDD VDD _216_ sky130_fd_sc_hd__nand2_1
X_485_ net16 _179_ VSS VSS VDD VDD _217_ sky130_fd_sc_hd__nor2_1
X_486_ _180_ _214_ _216_ _217_ VSS VSS VDD VDD dpath.a_mux$out\[6\]
+ sky130_fd_sc_hd__a31oi_1
X_487_ _144_ net85 VSS VSS VDD VDD _218_ sky130_fd_sc_hd__nand2_1
X_488_ _218_ net56 _053_ VSS VSS VDD VDD _219_ sky130_fd_sc_hd__a21oi_2
X_489_ net108 net67 VSS VSS VDD VDD _220_ sky130_fd_sc_hd__xor2_2
X_490_ net94 net91 _220_ VSS VSS VDD VDD _221_ sky130_fd_sc_hd__a21oi_2
X_491_ _221_ net116 VSS VSS VDD VDD _222_ sky130_fd_sc_hd__xnor2_1
X_492_ net17 _109_ VSS VSS VDD VDD _223_ sky130_fd_sc_hd__nand2_1
X_493_ _108_ _222_ _223_ VSS VSS VDD VDD dpath.a_mux$out\[7\]
+ sky130_fd_sc_hd__o21ai_1
X_494_ net71 net216 VSS VSS VDD VDD _224_ sky130_fd_sc_hd__xnor2_2
X_495_ net94 net91 _224_ VSS VSS VDD VDD _225_ sky130_fd_sc_hd__a21oi_2
X_496_ net313 _225_ VSS VSS VDD VDD _226_ sky130_fd_sc_hd__xnor2_1
X_497_ net18 _109_ VSS VSS VDD VDD _227_ sky130_fd_sc_hd__nand2_1
X_498_ _108_ _226_ _227_ VSS VSS VDD VDD dpath.a_mux$out\[8\]
+ sky130_fd_sc_hd__o21ai_1
X_499_ net70 VSS VSS VDD VDD _228_ sky130_fd_sc_hd__inv_1
X_500_ _147_ net310 _228_ VSS VSS VDD VDD _229_ sky130_fd_sc_hd__maj3_2
X_501_ dpath.a_lt_b$in0\[9\] net82 VSS VSS VDD VDD _230_ sky130_fd_sc_hd__xnor2_2
X_502_ _105_ _230_ net98 VSS VSS VDD VDD _231_ sky130_fd_sc_hd__o21ai_0
X_503_ net97 _105_ _230_ VSS VSS VDD VDD _232_ sky130_fd_sc_hd__or3_1
X_504_ net19 _179_ VSS VSS VDD VDD _233_ sky130_fd_sc_hd__nor2_1
X_505_ _232_ _180_ _231_ _233_ VSS VSS VDD VDD dpath.a_mux$out\[9\]
+ sky130_fd_sc_hd__a31oi_1
X_506_ net62 net2 _006_ VSS VSS VDD VDD dpath.b_mux$out\[0\]
+ sky130_fd_sc_hd__mux2_1
X_507_ dpath.a_lt_b$in0\[10\] net3 _006_ VSS VSS VDD VDD dpath.b_mux$out\[10\]
+ sky130_fd_sc_hd__mux2_1
X_508_ _034_ net4 _005_ VSS VSS VDD VDD dpath.b_mux$out\[11\]
+ sky130_fd_sc_hd__mux2_1
X_509_ net106 net5 _005_ VSS VSS VDD VDD dpath.b_mux$out\[12\]
+ sky130_fd_sc_hd__mux2_1
X_510_ _107_ net6 VSS VSS VDD VDD _234_ sky130_fd_sc_hd__nand2_1
X_511_ _107_ _092_ _234_ VSS VSS VDD VDD dpath.b_mux$out\[13\]
+ sky130_fd_sc_hd__o21ai_0
X_512_ dpath.a_lt_b$in0\[14\] net7 _005_ VSS VSS VDD VDD dpath.b_mux$out\[14\]
+ sky130_fd_sc_hd__mux2_1
X_513_ _107_ net8 VSS VSS VDD VDD _235_ sky130_fd_sc_hd__nand2_1
X_514_ _107_ _088_ _235_ VSS VSS VDD VDD dpath.b_mux$out\[15\]
+ sky130_fd_sc_hd__o21ai_0
X_515_ _107_ net13 VSS VSS VDD VDD _236_ sky130_fd_sc_hd__nand2_1
X_516_ _006_ _115_ _236_ VSS VSS VDD VDD dpath.b_mux$out\[1\]
+ sky130_fd_sc_hd__o21ai_0
X_517_ dpath.a_lt_b$in0\[2\] net24 _005_ VSS VSS VDD VDD dpath.b_mux$out\[2\]
+ sky130_fd_sc_hd__mux2_1
X_518_ _107_ net27 VSS VSS VDD VDD _237_ sky130_fd_sc_hd__nand2_1
X_519_ _006_ _068_ _237_ VSS VSS VDD VDD dpath.b_mux$out\[3\]
+ sky130_fd_sc_hd__o21ai_0
X_520_ dpath.a_lt_b$in0\[4\] net28 _005_ VSS VSS VDD VDD dpath.b_mux$out\[4\]
+ sky130_fd_sc_hd__mux2_1
X_521_ _107_ net29 VSS VSS VDD VDD _238_ sky130_fd_sc_hd__nand2_1
X_522_ _006_ _071_ _238_ VSS VSS VDD VDD dpath.b_mux$out\[5\]
+ sky130_fd_sc_hd__o21ai_0
X_523_ dpath.a_lt_b$in0\[6\] net30 _005_ VSS VSS VDD VDD dpath.b_mux$out\[6\]
+ sky130_fd_sc_hd__mux2_1
X_524_ _051_ net31 _005_ VSS VSS VDD VDD dpath.b_mux$out\[7\]
+ sky130_fd_sc_hd__mux2_1
X_525_ _107_ net32 VSS VSS VDD VDD _239_ sky130_fd_sc_hd__nand2_1
X_526_ _006_ _228_ _239_ VSS VSS VDD VDD dpath.b_mux$out\[8\]
+ sky130_fd_sc_hd__o21ai_0
X_527_ _107_ net33 VSS VSS VDD VDD _240_ sky130_fd_sc_hd__nand2_1
X_528_ _006_ net129 _240_ VSS VSS VDD VDD dpath.b_mux$out\[9\]
+ sky130_fd_sc_hd__o21ai_0
X_529_ _167_ _172_ VSS VSS VDD VDD _241_ sky130_fd_sc_hd__nor2_2
X_530_ _241_ net126 VSS VSS VDD VDD net42 sky130_fd_sc_hd__xnor2_1
X_531_ _028_ _029_ VSS VSS VDD VDD _242_ sky130_fd_sc_hd__nand2_1
X_532_ _242_ _186_ VSS VSS VDD VDD net43 sky130_fd_sc_hd__xnor2_1
X_533_ _049_ _194_ VSS VSS VDD VDD net44 sky130_fd_sc_hd__xnor2_2
X_534_ _052_ _219_ VSS VSS VDD VDD net51 sky130_fd_sc_hd__xnor2_1
X_535_ net76 net314 VSS VSS VDD VDD net52 sky130_fd_sc_hd__xnor2_1
X_536_ _047_ _229_ VSS VSS VDD VDD net53 sky130_fd_sc_hd__xnor2_2
Xctrl.state.out\[0\]$_DFF_P_ clknet_2_2__leaf_clk _000_ VSS
+ VSS VDD VDD net37 sky130_fd_sc_hd__dfxtp_1
Xctrl.state.out\[1\]$_DFF_P_ clknet_2_2__leaf_clk _001_ VSS
+ VSS VDD VDD ctrl.state.out\[1\] sky130_fd_sc_hd__dfxtp_1
Xctrl.state.out\[2\]$_DFF_P_ clknet_2_0__leaf_clk _002_ VSS
+ VSS VDD VDD ctrl.state.out\[2\] sky130_fd_sc_hd__dfxtp_2
Xdpath.a_reg.out\[0\]$_DFFE_PP_ clknet_2_2__leaf_clk dpath.a_mux$out\[0\]
+ ctrl$a_reg_en VSS VSS VDD VDD dpath.a_lt_b$in0\[0\] sky130_fd_sc_hd__edfxtp_1
Xdpath.a_reg.out\[10\]$_DFFE_PP_ clknet_2_2__leaf_clk dpath.a_mux$out\[10\]
+ ctrl$a_reg_en VSS VSS VDD VDD dpath.a_lt_b$in0\[10\] sky130_fd_sc_hd__edfxtp_1
Xdpath.a_reg.out\[11\]$_DFFE_PP_ clknet_2_3__leaf_clk dpath.a_mux$out\[11\]
+ ctrl$a_reg_en VSS VSS VDD VDD dpath.a_lt_b$in0\[11\] sky130_fd_sc_hd__edfxtp_1
Xdpath.a_reg.out\[12\]$_DFFE_PP_ clknet_2_3__leaf_clk dpath.a_mux$out\[12\]
+ ctrl$a_reg_en VSS VSS VDD VDD dpath.a_lt_b$in0\[12\] sky130_fd_sc_hd__edfxtp_1
Xdpath.a_reg.out\[13\]$_DFFE_PP_ clknet_2_3__leaf_clk dpath.a_mux$out\[13\]
+ ctrl$a_reg_en VSS VSS VDD VDD dpath.a_lt_b$in0\[13\] sky130_fd_sc_hd__edfxtp_1
Xdpath.a_reg.out\[14\]$_DFFE_PP_ clknet_2_2__leaf_clk dpath.a_mux$out\[14\]
+ ctrl$a_reg_en VSS VSS VDD VDD dpath.a_lt_b$in0\[14\] sky130_fd_sc_hd__edfxtp_1
Xdpath.a_reg.out\[15\]$_DFFE_PP_ clknet_2_2__leaf_clk dpath.a_mux$out\[15\]
+ ctrl$a_reg_en VSS VSS VDD VDD dpath.a_lt_b$in0\[15\] sky130_fd_sc_hd__edfxtp_1
Xdpath.a_reg.out\[1\]$_DFFE_PP_ clknet_2_0__leaf_clk dpath.a_mux$out\[1\]
+ ctrl$a_reg_en VSS VSS VDD VDD dpath.a_lt_b$in0\[1\] sky130_fd_sc_hd__edfxtp_1
Xdpath.a_reg.out\[2\]$_DFFE_PP_ clknet_2_0__leaf_clk dpath.a_mux$out\[2\]
+ ctrl$a_reg_en VSS VSS VDD VDD dpath.a_lt_b$in0\[2\] sky130_fd_sc_hd__edfxtp_1
Xdpath.a_reg.out\[3\]$_DFFE_PP_ clknet_2_0__leaf_clk dpath.a_mux$out\[3\]
+ ctrl$a_reg_en VSS VSS VDD VDD dpath.a_lt_b$in0\[3\] sky130_fd_sc_hd__edfxtp_1
Xdpath.a_reg.out\[4\]$_DFFE_PP_ clknet_2_0__leaf_clk dpath.a_mux$out\[4\]
+ ctrl$a_reg_en VSS VSS VDD VDD dpath.a_lt_b$in0\[4\] sky130_fd_sc_hd__edfxtp_1
Xdpath.a_reg.out\[5\]$_DFFE_PP_ clknet_2_1__leaf_clk dpath.a_mux$out\[5\]
+ ctrl$a_reg_en VSS VSS VDD VDD dpath.a_lt_b$in0\[5\] sky130_fd_sc_hd__edfxtp_1
Xdpath.a_reg.out\[6\]$_DFFE_PP_ clknet_2_1__leaf_clk dpath.a_mux$out\[6\]
+ ctrl$a_reg_en VSS VSS VDD VDD dpath.a_lt_b$in0\[6\] sky130_fd_sc_hd__edfxtp_1
Xdpath.a_reg.out\[7\]$_DFFE_PP_ clknet_2_1__leaf_clk dpath.a_mux$out\[7\]
+ ctrl$a_reg_en VSS VSS VDD VDD dpath.a_lt_b$in0\[7\] sky130_fd_sc_hd__edfxtp_1
Xdpath.a_reg.out\[8\]$_DFFE_PP_ clknet_2_3__leaf_clk dpath.a_mux$out\[8\]
+ ctrl$a_reg_en VSS VSS VDD VDD dpath.a_lt_b$in0\[8\] sky130_fd_sc_hd__edfxtp_1
Xdpath.a_reg.out\[9\]$_DFFE_PP_ clknet_2_1__leaf_clk dpath.a_mux$out\[9\]
+ ctrl$a_reg_en VSS VSS VDD VDD dpath.a_lt_b$in0\[9\] sky130_fd_sc_hd__edfxtp_1
Xdpath.b_reg.out\[0\]$_DFFE_PP_ clknet_2_2__leaf_clk dpath.b_mux$out\[0\]
+ net1 VSS VSS VDD VDD dpath.a_lt_b$in1\[0\] sky130_fd_sc_hd__edfxtp_1
Xdpath.b_reg.out\[10\]$_DFFE_PP_ clknet_2_3__leaf_clk dpath.b_mux$out\[10\]
+ net1 VSS VSS VDD VDD dpath.a_lt_b$in1\[10\] sky130_fd_sc_hd__edfxtp_1
Xdpath.b_reg.out\[11\]$_DFFE_PP_ clknet_2_3__leaf_clk dpath.b_mux$out\[11\]
+ net1 VSS VSS VDD VDD dpath.a_lt_b$in1\[11\] sky130_fd_sc_hd__edfxtp_1
Xdpath.b_reg.out\[12\]$_DFFE_PP_ clknet_2_3__leaf_clk dpath.b_mux$out\[12\]
+ net1 VSS VSS VDD VDD dpath.a_lt_b$in1\[12\] sky130_fd_sc_hd__edfxtp_1
Xdpath.b_reg.out\[13\]$_DFFE_PP_ clknet_2_3__leaf_clk dpath.b_mux$out\[13\]
+ net1 VSS VSS VDD VDD dpath.a_lt_b$in1\[13\] sky130_fd_sc_hd__edfxtp_1
Xdpath.b_reg.out\[14\]$_DFFE_PP_ clknet_2_2__leaf_clk dpath.b_mux$out\[14\]
+ net1 VSS VSS VDD VDD dpath.a_lt_b$in1\[14\] sky130_fd_sc_hd__edfxtp_1
Xdpath.b_reg.out\[15\]$_DFFE_PP_ clknet_2_2__leaf_clk dpath.b_mux$out\[15\]
+ net1 VSS VSS VDD VDD dpath.a_lt_b$in1\[15\] sky130_fd_sc_hd__edfxtp_1
Xdpath.b_reg.out\[1\]$_DFFE_PP_ clknet_2_2__leaf_clk dpath.b_mux$out\[1\]
+ net1 VSS VSS VDD VDD dpath.a_lt_b$in1\[1\] sky130_fd_sc_hd__edfxtp_1
Xdpath.b_reg.out\[2\]$_DFFE_PP_ clknet_2_0__leaf_clk dpath.b_mux$out\[2\]
+ ctrl$b_reg_en VSS VSS VDD VDD dpath.a_lt_b$in1\[2\] sky130_fd_sc_hd__edfxtp_1
Xdpath.b_reg.out\[3\]$_DFFE_PP_ clknet_2_0__leaf_clk dpath.b_mux$out\[3\]
+ ctrl$b_reg_en VSS VSS VDD VDD dpath.a_lt_b$in1\[3\] sky130_fd_sc_hd__edfxtp_1
Xdpath.b_reg.out\[4\]$_DFFE_PP_ clknet_2_0__leaf_clk dpath.b_mux$out\[4\]
+ ctrl$b_reg_en VSS VSS VDD VDD dpath.a_lt_b$in1\[4\] sky130_fd_sc_hd__edfxtp_1
Xdpath.b_reg.out\[5\]$_DFFE_PP_ clknet_2_1__leaf_clk dpath.b_mux$out\[5\]
+ ctrl$b_reg_en VSS VSS VDD VDD dpath.a_lt_b$in1\[5\] sky130_fd_sc_hd__edfxtp_1
Xdpath.b_reg.out\[6\]$_DFFE_PP_ clknet_2_1__leaf_clk dpath.b_mux$out\[6\]
+ ctrl$b_reg_en VSS VSS VDD VDD dpath.a_lt_b$in1\[6\] sky130_fd_sc_hd__edfxtp_1
Xdpath.b_reg.out\[7\]$_DFFE_PP_ clknet_2_1__leaf_clk dpath.b_mux$out\[7\]
+ ctrl$b_reg_en VSS VSS VDD VDD dpath.a_lt_b$in1\[7\] sky130_fd_sc_hd__edfxtp_1
Xdpath.b_reg.out\[8\]$_DFFE_PP_ clknet_2_1__leaf_clk dpath.b_mux$out\[8\]
+ ctrl$b_reg_en VSS VSS VDD VDD dpath.a_lt_b$in1\[8\] sky130_fd_sc_hd__edfxtp_1
Xdpath.b_reg.out\[9\]$_DFFE_PP_ clknet_2_0__leaf_clk dpath.b_mux$out\[9\]
+ ctrl$b_reg_en VSS VSS VDD VDD dpath.a_lt_b$in1\[9\] sky130_fd_sc_hd__edfxtp_1
XTAP_TAPCELL_ROW_0_1 VSS VDD sky130_fd_sc_hd__tapvpwrvgnd_1
XTAP_TAPCELL_ROW_0_2 VSS VDD sky130_fd_sc_hd__tapvpwrvgnd_1
XTAP_TAPCELL_ROW_0_3 VSS VDD sky130_fd_sc_hd__tapvpwrvgnd_1
XTAP_TAPCELL_ROW_0_4 VSS VDD sky130_fd_sc_hd__tapvpwrvgnd_1
XTAP_TAPCELL_ROW_0_5 VSS VDD sky130_fd_sc_hd__tapvpwrvgnd_1
XTAP_TAPCELL_ROW_1_6 VSS VDD sky130_fd_sc_hd__tapvpwrvgnd_1
XTAP_TAPCELL_ROW_1_7 VSS VDD sky130_fd_sc_hd__tapvpwrvgnd_1
XTAP_TAPCELL_ROW_1_8 VSS VDD sky130_fd_sc_hd__tapvpwrvgnd_1
XTAP_TAPCELL_ROW_2_9 VSS VDD sky130_fd_sc_hd__tapvpwrvgnd_1
XTAP_TAPCELL_ROW_2_10 VSS VDD sky130_fd_sc_hd__tapvpwrvgnd_1
XTAP_TAPCELL_ROW_2_11 VSS VDD sky130_fd_sc_hd__tapvpwrvgnd_1
XTAP_TAPCELL_ROW_3_12 VSS VDD sky130_fd_sc_hd__tapvpwrvgnd_1
XTAP_TAPCELL_ROW_3_13 VSS VDD sky130_fd_sc_hd__tapvpwrvgnd_1
XTAP_TAPCELL_ROW_3_14 VSS VDD sky130_fd_sc_hd__tapvpwrvgnd_1
XTAP_TAPCELL_ROW_4_15 VSS VDD sky130_fd_sc_hd__tapvpwrvgnd_1
XTAP_TAPCELL_ROW_4_16 VSS VDD sky130_fd_sc_hd__tapvpwrvgnd_1
XTAP_TAPCELL_ROW_4_17 VSS VDD sky130_fd_sc_hd__tapvpwrvgnd_1
XTAP_TAPCELL_ROW_5_18 VSS VDD sky130_fd_sc_hd__tapvpwrvgnd_1
XTAP_TAPCELL_ROW_5_19 VSS VDD sky130_fd_sc_hd__tapvpwrvgnd_1
XTAP_TAPCELL_ROW_5_20 VSS VDD sky130_fd_sc_hd__tapvpwrvgnd_1
XTAP_TAPCELL_ROW_6_21 VSS VDD sky130_fd_sc_hd__tapvpwrvgnd_1
XTAP_TAPCELL_ROW_6_22 VSS VDD sky130_fd_sc_hd__tapvpwrvgnd_1
XTAP_TAPCELL_ROW_6_23 VSS VDD sky130_fd_sc_hd__tapvpwrvgnd_1
XTAP_TAPCELL_ROW_7_24 VSS VDD sky130_fd_sc_hd__tapvpwrvgnd_1
XTAP_TAPCELL_ROW_7_25 VSS VDD sky130_fd_sc_hd__tapvpwrvgnd_1
XTAP_TAPCELL_ROW_7_26 VSS VDD sky130_fd_sc_hd__tapvpwrvgnd_1
XTAP_TAPCELL_ROW_8_27 VSS VDD sky130_fd_sc_hd__tapvpwrvgnd_1