
* cell parameterized_uart_tx
* pin tx_busy
* pin data_in[7]
* pin tx_start
* pin data_in[6]
* pin clk
* pin rst_n
* pin data_in[3]
* pin data_in[2]
* pin tx
* pin data_in[4]
* pin data_in[1]
* pin data_in[5]
* pin data_in[0]
.SUBCKT parameterized_uart_tx 61 66 76 87 88 90 98 99 102 126 139 144 145
* net 61 tx_busy
* net 66 data_in[7]
* net 76 tx_start
* net 87 data_in[6]
* net 88 clk
* net 90 rst_n
* net 98 data_in[3]
* net 99 data_in[2]
* net 102 tx
* net 126 data_in[4]
* net 139 data_in[1]
* net 144 data_in[5]
* net 145 data_in[0]
* cell instance $5 m0 *1 31.74,8.16
X$5 3 1 7 20 3 2 2 sky130_fd_sc_hd__and2_0
* cell instance $7 r0 *1 32.2,13.6
X$7 3 47 1 46 3 2 2 sky130_fd_sc_hd__nand2_1
* cell instance $9 m0 *1 37.26,8.16
X$9 2 13 1 15 16 3 3 2 sky130_fd_sc_hd__dfrtp_1
* cell instance $11 r0 *1 39.56,8.16
X$11 3 1 7 12 2 3 2 sky130_fd_sc_hd__nor2_1
* cell instance $14 r0 *1 33.58,13.6
X$14 3 43 26 1 47 2 3 52 2 sky130_fd_sc_hd__a31oi_1
* cell instance $17 r0 *1 37.72,8.16
X$17 3 8 1 9 34 3 2 2 sky130_fd_sc_hd__nand3_1
* cell instance $48 m0 *1 4.14,8.16
X$48 2 13 24 14 6 3 3 2 sky130_fd_sc_hd__dfrtp_1
* cell instance $52 m0 *1 15.18,8.16
X$52 3 4 17 8 3 6 2 2 sky130_fd_sc_hd__o21a_1
* cell instance $53 m0 *1 17.94,8.16
X$53 3 8 5 9 18 3 2 2 sky130_fd_sc_hd__nand3_1
* cell instance $56 m0 *1 22.08,8.16
X$56 3 24 3 2 23 2 sky130_fd_sc_hd__inv_1
* cell instance $61 m0 *1 29.9,8.16
X$61 3 26 22 21 2 3 2 sky130_fd_sc_hd__nor2_1
* cell instance $64 m0 *1 34.5,8.16
X$64 3 20 19 12 2 3 11 2 sky130_fd_sc_hd__a21oi_1
* cell instance $73 r0 *1 2.3,8.16
X$73 2 13 5 14 29 3 3 2 sky130_fd_sc_hd__dfrtp_1
* cell instance $75 r0 *1 11.96,8.16
X$75 3 10 5 36 3 2 2 sky130_fd_sc_hd__xnor2_1
* cell instance $80 r0 *1 15.64,8.16
X$80 2 29 18 36 48 39 25 3 3 2 sky130_fd_sc_hd__o41ai_1
* cell instance $81 r0 *1 18.86,8.16
X$81 3 24 9 38 3 2 2 sky130_fd_sc_hd__nand2_1
* cell instance $82 r0 *1 20.24,8.16
X$82 2 30 44 31 23 3 3 2 sky130_fd_sc_hd__ha_1
* cell instance $83 r0 *1 24.84,8.16
X$83 3 5 24 31 22 3 2 2 sky130_fd_sc_hd__nand3_1
* cell instance $84 r0 *1 26.68,8.16
X$84 3 26 5 10 7 3 2 2 sky130_fd_sc_hd__nand3_1
* cell instance $86 r0 *1 29.44,8.16
X$86 3 26 22 28 3 2 2 sky130_fd_sc_hd__and2_0
* cell instance $87 r0 *1 31.74,8.16
X$87 3 28 19 21 2 3 33 2 sky130_fd_sc_hd__a21oi_1
* cell instance $89 r0 *1 34.04,8.16
X$89 3 33 27 37 3 35 2 2 sky130_fd_sc_hd__o21ai_0
* cell instance $90 r0 *1 35.88,8.16
X$90 3 27 11 34 3 16 2 2 sky130_fd_sc_hd__o21ai_0
* cell instance $103 m0 *1 10.58,13.6
X$103 2 146 10 31 24 3 3 2 sky130_fd_sc_hd__ha_1
* cell instance $106 m0 *1 16.56,13.6
X$106 3 30 25 40 17 2 3 2 sky130_fd_sc_hd__nor3_1
* cell instance $107 m0 *1 18.4,13.6
X$107 2 30 4 42 25 32 38 3 3 2 sky130_fd_sc_hd__o311ai_0
* cell instance $108 m0 *1 21.62,13.6
X$108 3 40 5 41 39 2 3 2 sky130_fd_sc_hd__nor3b_1
* cell instance $109 m0 *1 24.38,13.6
X$109 3 44 5 26 24 2 45 3 2 sky130_fd_sc_hd__nor4_1
* cell instance $114 m0 *1 31.28,13.6
X$114 3 22 41 32 2 3 43 2 sky130_fd_sc_hd__a21oi_1
* cell instance $115 m0 *1 33.12,13.6
X$115 3 42 32 19 3 2 2 sky130_fd_sc_hd__nand2_1
* cell instance $116 m0 *1 34.5,13.6
X$116 3 8 26 9 37 3 2 2 sky130_fd_sc_hd__nand3_1
* cell instance $118 m0 *1 36.8,13.6
X$118 2 13 26 15 35 3 3 2 sky130_fd_sc_hd__dfrtp_1
* cell instance $131 r0 *1 17.02,13.6
X$131 3 42 9 48 2 3 2 sky130_fd_sc_hd__nor2_1
* cell instance $132 r0 *1 18.4,13.6
X$132 3 42 31 51 2 3 2 sky130_fd_sc_hd__nor2_1
* cell instance $134 r0 *1 20.24,13.6
X$134 3 31 49 53 3 57 2 2 sky130_fd_sc_hd__o21ai_0
* cell instance $135 r0 *1 22.08,13.6
X$135 3 31 9 53 3 2 2 sky130_fd_sc_hd__nand2_1
* cell instance $138 r0 *1 26.22,13.6
X$138 3 46 45 40 3 49 2 2 sky130_fd_sc_hd__o21ai_0
* cell instance $141 r0 *1 35.88,13.6
X$141 3 42 9 54 3 27 2 2 sky130_fd_sc_hd__o21ai_0
* cell instance $158 m0 *1 7.82,19.04
X$158 2 13 31 14 56 3 3 2 sky130_fd_sc_hd__dfrtp_1
* cell instance $159 m0 *1 17.02,19.04
X$159 2 56 9 54 57 51 8 3 3 2 sky130_fd_sc_hd__a32o_1
* cell instance $162 m0 *1 26.22,19.04
X$162 2 2 25 3 46 45 3 sky130_fd_sc_hd__nor2_2
* cell instance $166 m0 *1 29.9,19.04
X$166 3 45 46 58 2 3 2 sky130_fd_sc_hd__or2_0
* cell instance $169 m0 *1 33.58,19.04
X$169 3 40 25 50 52 2 55 3 2 sky130_fd_sc_hd__a211oi_1
* cell instance $170 m0 *1 36.34,19.04
X$170 3 42 54 9 2 3 50 2 sky130_fd_sc_hd__a21oi_1
* cell instance $173 m0 *1 42.78,19.04
X$173 2 13 47 15 55 3 3 2 sky130_fd_sc_hd__dfrtp_1
* cell instance $178 r0 *1 2.3,19.04
X$178 2 13 62 14 65 3 3 2 sky130_fd_sc_hd__dfrtp_1
* cell instance $180 r0 *1 13.34,19.04
X$180 3 8 59 64 3 65 2 2 sky130_fd_sc_hd__o21ai_0
* cell instance $184 r0 *1 15.64,19.04
X$184 2 59 60 62 9 3 3 2 sky130_fd_sc_hd__mux2i_1
* cell instance $189 r0 *1 29.44,19.04
X$189 3 42 2 8 3 2 sky130_fd_sc_hd__buf_2
* cell instance $191 r0 *1 33.12,19.04
X$191 3 58 2 54 3 2 sky130_fd_sc_hd__buf_2
* cell instance $192 r0 *1 34.96,19.04
X$192 3 32 2 9 3 2 sky130_fd_sc_hd__buf_2
* cell instance $205 m0 *1 2.76,24.48
X$205 3 66 68 2 3 2 sky130_fd_sc_hd__clkbuf_1
* cell instance $207 m0 *1 4.6,24.48
X$207 3 62 61 2 3 2 sky130_fd_sc_hd__clkbuf_1
* cell instance $213 m0 *1 16.1,24.48
X$213 3 54 8 62 40 3 64 2 2 sky130_fd_sc_hd__nand4_1
* cell instance $214 m0 *1 18.4,24.48
X$214 2 32 41 78 60 3 3 2 sky130_fd_sc_hd__nor3b_4
* cell instance $217 m0 *1 29.44,24.48
X$217 2 72 40 54 8 74 3 3 2 sky130_fd_sc_hd__a31o_1
* cell instance $218 m0 *1 32.66,24.48
X$218 3 54 73 42 63 2 74 3 2 sky130_fd_sc_hd__nor4b_1
* cell instance $221 m0 *1 37.26,24.48
X$221 2 70 32 3 3 2 sky130_fd_sc_hd__buf_6
* cell instance $222 m0 *1 41.4,24.48
X$222 3 8 71 69 2 3 67 2 sky130_fd_sc_hd__a21oi_1
* cell instance $228 r0 *1 1.38,24.48
X$228 2 80 68 82 78 3 3 2 sky130_fd_sc_hd__mux2_1
* cell instance $232 r0 *1 11.96,24.48
X$232 3 76 60 2 3 2 sky130_fd_sc_hd__clkbuf_1
* cell instance $234 r0 *1 13.8,24.48
X$234 3 8 77 83 2 3 2 sky130_fd_sc_hd__nor2_1
* cell instance $240 r0 *1 16.56,24.48
X$240 3 60 40 75 54 3 77 2 2 sky130_fd_sc_hd__a22oi_1
* cell instance $244 r0 *1 22.54,24.48
X$244 3 41 2 42 3 2 sky130_fd_sc_hd__buf_2
* cell instance $246 r0 *1 25.3,24.48
X$246 2 13 41 15 72 3 3 2 sky130_fd_sc_hd__dfrtp_2
* cell instance $247 r0 *1 34.96,24.48
X$247 3 54 73 63 3 71 2 2 sky130_fd_sc_hd__o21ai_0
* cell instance $248 r0 *1 36.8,24.48
X$248 3 84 2 15 3 2 sky130_fd_sc_hd__clkbuf_4
* cell instance $249 r0 *1 39.56,24.48
X$249 3 63 25 75 69 2 3 2 sky130_fd_sc_hd__nand3b_1
* cell instance $255 r0 *1 43.24,24.48
X$255 2 13 81 15 67 3 3 2 sky130_fd_sc_hd__dfrtp_1
* cell instance $258 m0 *1 1.38,29.92
X$258 2 13 82 14 80 3 3 2 sky130_fd_sc_hd__dfrtp_1
* cell instance $260 m0 *1 12.42,29.92
X$260 2 13 75 14 83 3 3 2 sky130_fd_sc_hd__dfrtp_2
* cell instance $263 m0 *1 26.68,29.92
X$263 3 75 41 86 2 3 2 sky130_fd_sc_hd__or2_1
* cell instance $268 m0 *1 32.66,29.92
X$268 2 2 40 3 63 75 3 sky130_fd_sc_hd__nor2_2
* cell instance $270 m0 *1 35.42,29.92
X$270 3 75 79 73 2 3 2 sky130_fd_sc_hd__nor2_1
* cell instance $271 m0 *1 36.8,29.92
X$271 2 15 3 3 2 sky130_fd_sc_hd__bufinv_16
* cell instance $274 r0 *1 1.38,29.92
X$274 3 87 85 2 3 2 sky130_fd_sc_hd__clkbuf_1
* cell instance $276 r0 *1 4.6,29.92
X$276 2 97 85 93 78 3 3 2 sky130_fd_sc_hd__mux2_1
* cell instance $278 r0 *1 12.42,29.92
X$278 3 84 2 14 3 2 sky130_fd_sc_hd__clkbuf_4
* cell instance $284 r0 *1 23.92,29.92
X$284 3 88 2 84 3 2 sky130_fd_sc_hd__clkbuf_4
* cell instance $287 r0 *1 32.2,29.92
X$287 3 42 75 92 2 3 2 sky130_fd_sc_hd__nor2_1
* cell instance $288 r0 *1 33.58,29.92
X$288 2 89 110 63 58 3 3 2 sky130_fd_sc_hd__and3_1
* cell instance $289 r0 *1 35.88,29.92
X$289 3 58 89 79 86 2 91 3 2 sky130_fd_sc_hd__nor4_1
* cell instance $290 r0 *1 38.18,29.92
X$290 3 75 81 70 2 3 2 sky130_fd_sc_hd__or2_0
* cell instance $292 r0 *1 40.94,29.92
X$292 3 81 3 2 63 2 sky130_fd_sc_hd__clkbuf_2
* cell instance $297 r0 *1 48.76,29.92
X$297 2 103 13 3 3 2 sky130_fd_sc_hd__buf_8
* cell instance $304 m0 *1 3.22,35.36
X$304 2 13 93 14 97 3 3 2 sky130_fd_sc_hd__dfrtp_1
* cell instance $306 m0 *1 16.1,35.36
X$306 2 89 108 104 106 82 93 122 3 3 2 sky130_fd_sc_hd__mux4_1
* cell instance $311 m0 *1 29.44,35.36
X$311 2 109 42 96 40 94 95 3 3 2 sky130_fd_sc_hd__a221o_1
* cell instance $313 m0 *1 36.8,35.36
X$313 2 91 89 107 110 63 86 3 3 2 sky130_fd_sc_hd__a221o_1
* cell instance $317 m0 *1 45.54,35.36
X$317 2 103 95 15 96 3 3 2 sky130_fd_sc_hd__dfstp_1
* cell instance $318 r0 *1 1.38,35.36
X$318 3 98 111 2 3 2 sky130_fd_sc_hd__clkbuf_1
* cell instance $320 r0 *1 3.22,35.36
X$320 2 13 104 14 117 3 3 2 sky130_fd_sc_hd__dfrtp_1
* cell instance $321 r0 *1 12.42,35.36
X$321 3 99 118 2 3 2 sky130_fd_sc_hd__clkbuf_1
* cell instance $328 r0 *1 15.64,35.36
X$328 2 13 106 14 105 3 3 2 sky130_fd_sc_hd__dfrtp_1
* cell instance $331 r0 *1 27.6,35.36
X$331 3 100 108 109 2 3 2 sky130_fd_sc_hd__nand2b_1
* cell instance $334 r0 *1 32.2,35.36
X$334 3 63 100 54 121 3 2 2 sky130_fd_sc_hd__nand3_1
* cell instance $335 r0 *1 34.04,35.36
X$335 3 92 63 101 25 3 115 2 2 sky130_fd_sc_hd__nand4_1
* cell instance $337 r0 *1 36.8,35.36
X$337 2 101 79 122 114 3 3 2 sky130_fd_sc_hd__ha_1
* cell instance $344 r0 *1 43.24,35.36
X$344 2 13 113 15 107 3 3 2 sky130_fd_sc_hd__dfrtp_1
* cell instance $345 r0 *1 52.44,35.36
X$345 3 112 103 2 3 2 sky130_fd_sc_hd__clkbuf_1
* cell instance $346 r0 *1 53.82,35.36
X$346 3 95 102 2 3 2 sky130_fd_sc_hd__clkbuf_1
* cell instance $348 m0 *1 5.06,40.8
X$348 2 117 111 104 78 3 3 2 sky130_fd_sc_hd__mux2_1
* cell instance $351 m0 *1 16.56,40.8
X$351 2 105 118 106 78 3 3 2 sky130_fd_sc_hd__mux2_1
* cell instance $355 m0 *1 27.14,40.8
X$355 3 100 3 2 119 2 sky130_fd_sc_hd__inv_1
* cell instance $360 m0 *1 30.82,40.8
X$360 3 119 92 116 121 131 3 2 2 sky130_fd_sc_hd__o211ai_1
* cell instance $361 m0 *1 33.58,40.8
X$361 3 92 63 120 25 3 116 2 2 sky130_fd_sc_hd__nand4_1
* cell instance $363 m0 *1 36.8,40.8
X$363 2 120 114 113 100 3 3 2 sky130_fd_sc_hd__ha_1
* cell instance $364 m0 *1 41.4,40.8
X$364 3 113 3 2 89 2 sky130_fd_sc_hd__clkbuf_2
* cell instance $368 m0 *1 51.52,40.8
X$368 3 90 3 112 2 2 sky130_fd_sc_hd__dlygate4sd3_1
* cell instance $380 r0 *1 25.76,40.8
X$380 3 124 122 129 119 86 3 94 2 2 sky130_fd_sc_hd__a311oi_1
* cell instance $382 r0 *1 32.66,40.8
X$382 3 63 122 54 123 3 2 2 sky130_fd_sc_hd__nand3_1
* cell instance $383 r0 *1 34.5,40.8
X$383 3 115 125 123 134 3 2 2 sky130_fd_sc_hd__nand3_1
* cell instance $384 r0 *1 36.34,40.8
X$384 3 122 86 125 3 2 2 sky130_fd_sc_hd__nand2_1
* cell instance $395 m0 *1 1.84,46.24
X$395 2 13 127 14 136 3 3 2 sky130_fd_sc_hd__dfrtp_1
* cell instance $397 m0 *1 12.88,46.24
X$397 2 124 127 128 89 3 3 2 sky130_fd_sc_hd__mux2i_1
* cell instance $403 m0 *1 22.54,46.24
X$403 3 89 133 130 2 3 2 sky130_fd_sc_hd__nor2b_1
* cell instance $405 m0 *1 25.76,46.24
X$405 2 130 129 89 122 100 132 3 3 2 sky130_fd_sc_hd__a2111oi_0
* cell instance $408 m0 *1 31.28,46.24
X$408 2 13 100 15 131 3 3 2 sky130_fd_sc_hd__dfrtp_1
* cell instance $417 r0 *1 2.76,46.24
X$417 3 126 137 2 3 2 sky130_fd_sc_hd__clkbuf_1
* cell instance $418 r0 *1 4.14,46.24
X$418 2 13 128 14 138 3 3 2 sky130_fd_sc_hd__dfrtp_1
* cell instance $422 r0 *1 15.64,46.24
X$422 2 13 133 14 135 3 3 2 sky130_fd_sc_hd__dfrtp_1
* cell instance $426 r0 *1 32.66,46.24
X$426 2 13 122 15 134 3 3 2 sky130_fd_sc_hd__dfrtp_2
* cell instance $436 m0 *1 4.14,51.68
X$436 2 136 137 127 78 3 3 2 sky130_fd_sc_hd__mux2_1
* cell instance $438 m0 *1 8.74,51.68
X$438 2 138 140 128 78 3 3 2 sky130_fd_sc_hd__mux2_1
* cell instance $445 m0 *1 19.78,51.68
X$445 2 13 132 14 142 3 3 2 sky130_fd_sc_hd__dfrtp_1
* cell instance $460 r0 *1 11.04,51.68
X$460 3 144 140 2 3 2 sky130_fd_sc_hd__clkbuf_1
* cell instance $466 r0 *1 16.56,51.68
X$466 2 135 141 133 78 3 3 2 sky130_fd_sc_hd__mux2_1
* cell instance $467 r0 *1 20.7,51.68
X$467 3 145 141 2 3 2 sky130_fd_sc_hd__clkbuf_1
* cell instance $469 r0 *1 23,51.68
X$469 2 142 143 132 78 3 3 2 sky130_fd_sc_hd__mux2_1
* cell instance $470 r0 *1 27.14,51.68
X$470 3 139 143 2 3 2 sky130_fd_sc_hd__clkbuf_1
.ENDS parameterized_uart_tx

* cell sky130_fd_sc_hd__and2_0
* pin VPB
* pin A
* pin B
* pin X
* pin VPWR
* pin VGND
* pin 
.SUBCKT sky130_fd_sc_hd__and2_0 1 2 3 5 6 7 8
* net 1 VPB
* net 2 A
* net 3 B
* net 5 X
* net 6 VPWR
* net 7 VGND
* device instance $1 r0 *1 0.54,2.275 pfet_01v8_hvt
M$1 4 2 6 1 pfet_01v8_hvt L=150000U W=420000U AS=111300000000P AD=60900000000P
+ PS=1370000U PD=710000U
* device instance $2 r0 *1 0.98,2.275 pfet_01v8_hvt
M$2 4 3 6 1 pfet_01v8_hvt L=150000U W=420000U AS=184100000000P AD=60900000000P
+ PS=1260000U PD=710000U
* device instance $3 r0 *1 1.75,2.165 pfet_01v8_hvt
M$3 5 4 6 1 pfet_01v8_hvt L=150000U W=640000U AS=184100000000P AD=169600000000P
+ PS=1260000U PD=1810000U
* device instance $4 r0 *1 0.54,0.445 nfet_01v8
M$4 9 2 4 8 nfet_01v8 L=150000U W=420000U AS=111300000000P AD=44100000000P
+ PS=1370000U PD=630000U
* device instance $5 r0 *1 0.9,0.445 nfet_01v8
M$5 7 3 9 8 nfet_01v8 L=150000U W=420000U AS=44100000000P AD=96600000000P
+ PS=630000U PD=880000U
* device instance $6 r0 *1 1.51,0.445 nfet_01v8
M$6 5 4 7 8 nfet_01v8 L=150000U W=420000U AS=96600000000P AD=111300000000P
+ PS=880000U PD=1370000U
.ENDS sky130_fd_sc_hd__and2_0

* cell sky130_fd_sc_hd__buf_6
* pin VGND
* pin A
* pin X
* pin VPWR
* pin VPB
* pin 
.SUBCKT sky130_fd_sc_hd__buf_6 1 2 4 5 6 7
* net 1 VGND
* net 2 A
* net 4 X
* net 5 VPWR
* net 6 VPB
* device instance $1 r0 *1 0.73,1.985 pfet_01v8_hvt
M$1 3 2 5 6 pfet_01v8_hvt L=150000U W=2000000U AS=395000000000P
+ AD=270000000000P PS=3790000U PD=2540000U
* device instance $3 r0 *1 1.57,1.985 pfet_01v8_hvt
M$3 4 3 5 6 pfet_01v8_hvt L=150000U W=6000000U AS=810000000000P
+ AD=935000000000P PS=7620000U PD=8870000U
* device instance $9 r0 *1 0.73,0.56 nfet_01v8
M$9 3 2 1 7 nfet_01v8 L=150000U W=1300000U AS=256750000000P AD=175500000000P
+ PS=2740000U PD=1840000U
* device instance $11 r0 *1 1.57,0.56 nfet_01v8
M$11 4 3 1 7 nfet_01v8 L=150000U W=3900000U AS=526500000000P AD=607750000000P
+ PS=5520000U PD=6420000U
.ENDS sky130_fd_sc_hd__buf_6

* cell sky130_fd_sc_hd__a211oi_1
* pin VPB
* pin A2
* pin A1
* pin C1
* pin B1
* pin VGND
* pin Y
* pin VPWR
* pin 
.SUBCKT sky130_fd_sc_hd__a211oi_1 1 2 3 4 5 6 7 9 10
* net 1 VPB
* net 2 A2
* net 3 A1
* net 4 C1
* net 5 B1
* net 6 VGND
* net 7 Y
* net 9 VPWR
* device instance $1 r0 *1 0.62,1.985 pfet_01v8_hvt
M$1 9 2 8 1 pfet_01v8_hvt L=150000U W=1000000U AS=265000000000P
+ AD=140000000000P PS=2530000U PD=1280000U
* device instance $2 r0 *1 1.05,1.985 pfet_01v8_hvt
M$2 8 3 9 1 pfet_01v8_hvt L=150000U W=1000000U AS=140000000000P
+ AD=140000000000P PS=1280000U PD=1280000U
* device instance $3 r0 *1 1.48,1.985 pfet_01v8_hvt
M$3 11 5 8 1 pfet_01v8_hvt L=150000U W=1000000U AS=140000000000P
+ AD=155000000000P PS=1280000U PD=1310000U
* device instance $4 r0 *1 1.94,1.985 pfet_01v8_hvt
M$4 7 4 11 1 pfet_01v8_hvt L=150000U W=1000000U AS=155000000000P
+ AD=265000000000P PS=1310000U PD=2530000U
* device instance $5 r0 *1 0.62,0.56 nfet_01v8
M$5 12 2 6 10 nfet_01v8 L=150000U W=650000U AS=266500000000P AD=91000000000P
+ PS=2120000U PD=930000U
* device instance $6 r0 *1 1.05,0.56 nfet_01v8
M$6 7 3 12 10 nfet_01v8 L=150000U W=650000U AS=91000000000P AD=91000000000P
+ PS=930000U PD=930000U
* device instance $7 r0 *1 1.48,0.56 nfet_01v8
M$7 6 5 7 10 nfet_01v8 L=150000U W=650000U AS=91000000000P AD=100750000000P
+ PS=930000U PD=960000U
* device instance $8 r0 *1 1.94,0.56 nfet_01v8
M$8 7 4 6 10 nfet_01v8 L=150000U W=650000U AS=100750000000P AD=172250000000P
+ PS=960000U PD=1830000U
.ENDS sky130_fd_sc_hd__a211oi_1

* cell sky130_fd_sc_hd__a31o_1
* pin VGND
* pin X
* pin A3
* pin A2
* pin A1
* pin B1
* pin VPWR
* pin VPB
* pin 
.SUBCKT sky130_fd_sc_hd__a31o_1 1 2 6 7 8 9 11 12 13
* net 1 VGND
* net 2 X
* net 6 A3
* net 7 A2
* net 8 A1
* net 9 B1
* net 11 VPWR
* net 12 VPB
* device instance $1 r0 *1 0.475,1.985 pfet_01v8_hvt
M$1 11 3 2 12 pfet_01v8_hvt L=150000U W=1000000U AS=265000000000P
+ AD=172500000000P PS=2530000U PD=1345000U
* device instance $2 r0 *1 0.97,1.985 pfet_01v8_hvt
M$2 10 6 11 12 pfet_01v8_hvt L=150000U W=1000000U AS=172500000000P
+ AD=160000000000P PS=1345000U PD=1320000U
* device instance $3 r0 *1 1.44,1.985 pfet_01v8_hvt
M$3 11 7 10 12 pfet_01v8_hvt L=150000U W=1000000U AS=160000000000P
+ AD=165000000000P PS=1320000U PD=1330000U
* device instance $4 r0 *1 1.92,1.985 pfet_01v8_hvt
M$4 10 8 11 12 pfet_01v8_hvt L=150000U W=1000000U AS=165000000000P
+ AD=165000000000P PS=1330000U PD=1330000U
* device instance $5 r0 *1 2.4,1.985 pfet_01v8_hvt
M$5 3 9 10 12 pfet_01v8_hvt L=150000U W=1000000U AS=165000000000P
+ AD=320000000000P PS=1330000U PD=2640000U
* device instance $6 r0 *1 0.475,0.56 nfet_01v8
M$6 1 3 2 13 nfet_01v8 L=150000U W=650000U AS=172250000000P AD=112125000000P
+ PS=1830000U PD=995000U
* device instance $7 r0 *1 0.97,0.56 nfet_01v8
M$7 4 6 1 13 nfet_01v8 L=150000U W=650000U AS=112125000000P AD=104000000000P
+ PS=995000U PD=970000U
* device instance $8 r0 *1 1.44,0.56 nfet_01v8
M$8 5 7 4 13 nfet_01v8 L=150000U W=650000U AS=104000000000P AD=107250000000P
+ PS=970000U PD=980000U
* device instance $9 r0 *1 1.92,0.56 nfet_01v8
M$9 3 8 5 13 nfet_01v8 L=150000U W=650000U AS=107250000000P AD=107250000000P
+ PS=980000U PD=980000U
* device instance $10 r0 *1 2.4,0.56 nfet_01v8
M$10 1 9 3 13 nfet_01v8 L=150000U W=650000U AS=107250000000P AD=208000000000P
+ PS=980000U PD=1940000U
.ENDS sky130_fd_sc_hd__a31o_1

* cell sky130_fd_sc_hd__nor4b_1
* pin VPB
* pin C
* pin B
* pin A
* pin D_N
* pin VGND
* pin Y
* pin VPWR
* pin 
.SUBCKT sky130_fd_sc_hd__nor4b_1 1 2 3 4 5 6 7 8 10
* net 1 VPB
* net 2 C
* net 3 B
* net 4 A
* net 5 D_N
* net 6 VGND
* net 7 Y
* net 8 VPWR
* device instance $1 r0 *1 2.535,1.89 pfet_01v8_hvt
M$1 9 5 8 1 pfet_01v8_hvt L=150000U W=420000U AS=145750000000P AD=109200000000P
+ PS=1335000U PD=1360000U
* device instance $2 r0 *1 0.73,1.985 pfet_01v8_hvt
M$2 13 9 7 1 pfet_01v8_hvt L=150000U W=1000000U AS=520000000000P
+ AD=135000000000P PS=3040000U PD=1270000U
* device instance $3 r0 *1 1.15,1.985 pfet_01v8_hvt
M$3 12 2 13 1 pfet_01v8_hvt L=150000U W=1000000U AS=135000000000P
+ AD=165000000000P PS=1270000U PD=1330000U
* device instance $4 r0 *1 1.63,1.985 pfet_01v8_hvt
M$4 11 3 12 1 pfet_01v8_hvt L=150000U W=1000000U AS=165000000000P
+ AD=135000000000P PS=1330000U PD=1270000U
* device instance $5 r0 *1 2.05,1.985 pfet_01v8_hvt
M$5 8 4 11 1 pfet_01v8_hvt L=150000U W=1000000U AS=135000000000P
+ AD=145750000000P PS=1270000U PD=1335000U
* device instance $6 r0 *1 0.73,0.56 nfet_01v8
M$6 7 9 6 10 nfet_01v8 L=150000U W=650000U AS=182000000000P AD=87750000000P
+ PS=1860000U PD=920000U
* device instance $7 r0 *1 1.15,0.56 nfet_01v8
M$7 6 2 7 10 nfet_01v8 L=150000U W=650000U AS=87750000000P AD=107250000000P
+ PS=920000U PD=980000U
* device instance $8 r0 *1 1.63,0.56 nfet_01v8
M$8 7 3 6 10 nfet_01v8 L=150000U W=650000U AS=107250000000P AD=87750000000P
+ PS=980000U PD=920000U
* device instance $9 r0 *1 2.05,0.56 nfet_01v8
M$9 6 4 7 10 nfet_01v8 L=150000U W=650000U AS=87750000000P AD=100250000000P
+ PS=920000U PD=985000U
* device instance $10 r0 *1 2.535,0.675 nfet_01v8
M$10 9 5 6 10 nfet_01v8 L=150000U W=420000U AS=100250000000P AD=109200000000P
+ PS=985000U PD=1360000U
.ENDS sky130_fd_sc_hd__nor4b_1

* cell sky130_fd_sc_hd__nand3b_1
* pin VPB
* pin A_N
* pin C
* pin B
* pin Y
* pin VGND
* pin VPWR
* pin 
.SUBCKT sky130_fd_sc_hd__nand3b_1 1 2 3 4 5 7 8 9
* net 1 VPB
* net 2 A_N
* net 3 C
* net 4 B
* net 5 Y
* net 7 VGND
* net 8 VPWR
* device instance $1 r0 *1 0.6,1.695 pfet_01v8_hvt
M$1 8 2 6 1 pfet_01v8_hvt L=150000U W=420000U AS=109200000000P AD=145750000000P
+ PS=1360000U PD=1335000U
* device instance $2 r0 *1 1.085,1.985 pfet_01v8_hvt
M$2 5 3 8 1 pfet_01v8_hvt L=150000U W=1000000U AS=145750000000P
+ AD=135000000000P PS=1335000U PD=1270000U
* device instance $3 r0 *1 1.505,1.985 pfet_01v8_hvt
M$3 8 4 5 1 pfet_01v8_hvt L=150000U W=1000000U AS=135000000000P
+ AD=192500000000P PS=1270000U PD=1385000U
* device instance $4 r0 *1 2.04,1.985 pfet_01v8_hvt
M$4 5 6 8 1 pfet_01v8_hvt L=150000U W=1000000U AS=192500000000P
+ AD=280000000000P PS=1385000U PD=2560000U
* device instance $5 r0 *1 0.6,0.675 nfet_01v8
M$5 6 2 7 9 nfet_01v8 L=150000U W=420000U AS=100250000000P AD=109200000000P
+ PS=985000U PD=1360000U
* device instance $6 r0 *1 1.085,0.56 nfet_01v8
M$6 11 3 7 9 nfet_01v8 L=150000U W=650000U AS=100250000000P AD=87750000000P
+ PS=985000U PD=920000U
* device instance $7 r0 *1 1.505,0.56 nfet_01v8
M$7 10 4 11 9 nfet_01v8 L=150000U W=650000U AS=87750000000P AD=125125000000P
+ PS=920000U PD=1035000U
* device instance $8 r0 *1 2.04,0.56 nfet_01v8
M$8 5 6 10 9 nfet_01v8 L=150000U W=650000U AS=125125000000P AD=182000000000P
+ PS=1035000U PD=1860000U
.ENDS sky130_fd_sc_hd__nand3b_1

* cell sky130_fd_sc_hd__a31oi_1
* pin VPB
* pin A3
* pin A2
* pin A1
* pin B1
* pin VGND
* pin VPWR
* pin Y
* pin 
.SUBCKT sky130_fd_sc_hd__a31oi_1 1 2 3 4 5 6 8 9 10
* net 1 VPB
* net 2 A3
* net 3 A2
* net 4 A1
* net 5 B1
* net 6 VGND
* net 8 VPWR
* net 9 Y
* device instance $1 r0 *1 0.47,1.985 pfet_01v8_hvt
M$1 7 2 8 1 pfet_01v8_hvt L=150000U W=1000000U AS=260000000000P
+ AD=135000000000P PS=2520000U PD=1270000U
* device instance $2 r0 *1 0.89,1.985 pfet_01v8_hvt
M$2 8 3 7 1 pfet_01v8_hvt L=150000U W=1000000U AS=135000000000P
+ AD=152500000000P PS=1270000U PD=1305000U
* device instance $3 r0 *1 1.345,1.985 pfet_01v8_hvt
M$3 7 4 8 1 pfet_01v8_hvt L=150000U W=1000000U AS=152500000000P
+ AD=162500000000P PS=1305000U PD=1325000U
* device instance $4 r0 *1 1.82,1.985 pfet_01v8_hvt
M$4 9 5 7 1 pfet_01v8_hvt L=150000U W=1000000U AS=162500000000P
+ AD=270000000000P PS=1325000U PD=2540000U
* device instance $5 r0 *1 0.47,0.56 nfet_01v8
M$5 12 2 6 10 nfet_01v8 L=150000U W=650000U AS=169000000000P AD=68250000000P
+ PS=1820000U PD=860000U
* device instance $6 r0 *1 0.83,0.56 nfet_01v8
M$6 11 3 12 10 nfet_01v8 L=150000U W=650000U AS=68250000000P AD=118625000000P
+ PS=860000U PD=1015000U
* device instance $7 r0 *1 1.345,0.56 nfet_01v8
M$7 9 4 11 10 nfet_01v8 L=150000U W=650000U AS=118625000000P AD=105625000000P
+ PS=1015000U PD=975000U
* device instance $8 r0 *1 1.82,0.56 nfet_01v8
M$8 6 5 9 10 nfet_01v8 L=150000U W=650000U AS=105625000000P AD=175500000000P
+ PS=975000U PD=1840000U
.ENDS sky130_fd_sc_hd__a31oi_1

* cell sky130_fd_sc_hd__a21oi_1
* pin VPB
* pin B1
* pin A1
* pin A2
* pin VGND
* pin VPWR
* pin Y
* pin 
.SUBCKT sky130_fd_sc_hd__a21oi_1 1 2 3 4 5 7 8 9
* net 1 VPB
* net 2 B1
* net 3 A1
* net 4 A2
* net 5 VGND
* net 7 VPWR
* net 8 Y
* device instance $1 r0 *1 0.49,1.985 pfet_01v8_hvt
M$1 6 2 8 1 pfet_01v8_hvt L=150000U W=1000000U AS=265000000000P
+ AD=140000000000P PS=2530000U PD=1280000U
* device instance $2 r0 *1 0.92,1.985 pfet_01v8_hvt
M$2 7 3 6 1 pfet_01v8_hvt L=150000U W=1000000U AS=140000000000P
+ AD=147500000000P PS=1280000U PD=1295000U
* device instance $3 r0 *1 1.365,1.985 pfet_01v8_hvt
M$3 6 4 7 1 pfet_01v8_hvt L=150000U W=1000000U AS=147500000000P
+ AD=265000000000P PS=1295000U PD=2530000U
* device instance $4 r0 *1 0.49,0.56 nfet_01v8
M$4 8 2 5 9 nfet_01v8 L=150000U W=650000U AS=172250000000P AD=91000000000P
+ PS=1830000U PD=930000U
* device instance $5 r0 *1 0.92,0.56 nfet_01v8
M$5 10 3 8 9 nfet_01v8 L=150000U W=650000U AS=91000000000P AD=95875000000P
+ PS=930000U PD=945000U
* device instance $6 r0 *1 1.365,0.56 nfet_01v8
M$6 5 4 10 9 nfet_01v8 L=150000U W=650000U AS=95875000000P AD=172250000000P
+ PS=945000U PD=1830000U
.ENDS sky130_fd_sc_hd__a21oi_1

* cell sky130_fd_sc_hd__a22oi_1
* pin VPB
* pin B2
* pin B1
* pin A1
* pin A2
* pin VPWR
* pin Y
* pin VGND
* pin 
.SUBCKT sky130_fd_sc_hd__a22oi_1 1 2 3 4 5 7 8 9 10
* net 1 VPB
* net 2 B2
* net 3 B1
* net 4 A1
* net 5 A2
* net 7 VPWR
* net 8 Y
* net 9 VGND
* device instance $1 r0 *1 1.83,1.985 pfet_01v8_hvt
M$1 6 4 7 1 pfet_01v8_hvt L=150000U W=1000000U AS=260000000000P
+ AD=135000000000P PS=2520000U PD=1270000U
* device instance $2 r0 *1 2.25,1.985 pfet_01v8_hvt
M$2 7 5 6 1 pfet_01v8_hvt L=150000U W=1000000U AS=135000000000P
+ AD=300000000000P PS=1270000U PD=2600000U
* device instance $3 r0 *1 0.47,1.985 pfet_01v8_hvt
M$3 6 2 8 1 pfet_01v8_hvt L=150000U W=1000000U AS=260000000000P
+ AD=135000000000P PS=2520000U PD=1270000U
* device instance $4 r0 *1 0.89,1.985 pfet_01v8_hvt
M$4 8 3 6 1 pfet_01v8_hvt L=150000U W=1000000U AS=135000000000P
+ AD=260000000000P PS=1270000U PD=2520000U
* device instance $5 r0 *1 1.83,0.56 nfet_01v8
M$5 11 4 8 10 nfet_01v8 L=150000U W=650000U AS=169000000000P AD=68250000000P
+ PS=1820000U PD=860000U
* device instance $6 r0 *1 2.19,0.56 nfet_01v8
M$6 9 5 11 10 nfet_01v8 L=150000U W=650000U AS=68250000000P AD=234000000000P
+ PS=860000U PD=2020000U
* device instance $7 r0 *1 0.47,0.56 nfet_01v8
M$7 12 2 9 10 nfet_01v8 L=150000U W=650000U AS=169000000000P AD=74750000000P
+ PS=1820000U PD=880000U
* device instance $8 r0 *1 0.85,0.56 nfet_01v8
M$8 8 3 12 10 nfet_01v8 L=150000U W=650000U AS=74750000000P AD=169000000000P
+ PS=880000U PD=1820000U
.ENDS sky130_fd_sc_hd__a22oi_1

* cell sky130_fd_sc_hd__nor3b_4
* pin VGND
* pin A
* pin B
* pin Y
* pin C_N
* pin VPWR
* pin VPB
* pin 
.SUBCKT sky130_fd_sc_hd__nor3b_4 1 2 3 4 5 7 10 11
* net 1 VGND
* net 2 A
* net 3 B
* net 4 Y
* net 5 C_N
* net 7 VPWR
* net 10 VPB
* device instance $1 r0 *1 3.11,1.985 pfet_01v8_hvt
M$1 8 3 9 10 pfet_01v8_hvt L=150000U W=4000000U AS=665000000000P
+ AD=540000000000P PS=6330000U PD=5080000U
* device instance $5 r0 *1 4.79,1.985 pfet_01v8_hvt
M$5 4 6 9 10 pfet_01v8_hvt L=150000U W=4000000U AS=540000000000P
+ AD=665000000000P PS=5080000U PD=6330000U
* device instance $9 r0 *1 0.49,1.985 pfet_01v8_hvt
M$9 7 5 6 10 pfet_01v8_hvt L=150000U W=1000000U AS=280000000000P
+ AD=135000000000P PS=2560000U PD=1270000U
* device instance $10 r0 *1 0.91,1.985 pfet_01v8_hvt
M$10 8 2 7 10 pfet_01v8_hvt L=150000U W=4000000U AS=540000000000P
+ AD=665000000000P PS=5080000U PD=6330000U
* device instance $14 r0 *1 0.49,0.56 nfet_01v8
M$14 1 5 6 11 nfet_01v8 L=150000U W=650000U AS=182000000000P AD=87750000000P
+ PS=1860000U PD=920000U
* device instance $15 r0 *1 0.91,0.56 nfet_01v8
M$15 4 2 1 11 nfet_01v8 L=150000U W=2600000U AS=351000000000P AD=520000000000P
+ PS=3680000U PD=4200000U
* device instance $19 r0 *1 3.11,0.56 nfet_01v8
M$19 4 3 1 11 nfet_01v8 L=150000U W=2600000U AS=520000000000P AD=351000000000P
+ PS=4200000U PD=3680000U
* device instance $23 r0 *1 4.79,0.56 nfet_01v8
M$23 4 6 1 11 nfet_01v8 L=150000U W=2600000U AS=351000000000P AD=432250000000P
+ PS=3680000U PD=4580000U
.ENDS sky130_fd_sc_hd__nor3b_4

* cell sky130_fd_sc_hd__o41ai_1
* pin VGND
* pin Y
* pin B1
* pin A4
* pin A3
* pin A2
* pin A1
* pin VPWR
* pin VPB
* pin 
.SUBCKT sky130_fd_sc_hd__o41ai_1 1 2 4 5 6 7 8 9 10 14
* net 1 VGND
* net 2 Y
* net 4 B1
* net 5 A4
* net 6 A3
* net 7 A2
* net 8 A1
* net 9 VPWR
* net 10 VPB
* device instance $1 r0 *1 0.47,1.985 pfet_01v8_hvt
M$1 2 4 9 10 pfet_01v8_hvt L=150000U W=1000000U AS=260000000000P
+ AD=135000000000P PS=2520000U PD=1270000U
* device instance $2 r0 *1 0.89,1.985 pfet_01v8_hvt
M$2 11 5 2 10 pfet_01v8_hvt L=150000U W=1000000U AS=135000000000P
+ AD=312500000000P PS=1270000U PD=1625000U
* device instance $3 r0 *1 1.665,1.985 pfet_01v8_hvt
M$3 13 6 11 10 pfet_01v8_hvt L=150000U W=1000000U AS=312500000000P
+ AD=135000000000P PS=1625000U PD=1270000U
* device instance $4 r0 *1 2.085,1.985 pfet_01v8_hvt
M$4 12 7 13 10 pfet_01v8_hvt L=150000U W=1000000U AS=135000000000P
+ AD=175000000000P PS=1270000U PD=1350000U
* device instance $5 r0 *1 2.585,1.985 pfet_01v8_hvt
M$5 9 8 12 10 pfet_01v8_hvt L=150000U W=1000000U AS=175000000000P
+ AD=280000000000P PS=1350000U PD=2560000U
* device instance $6 r0 *1 0.47,0.56 nfet_01v8
M$6 3 4 2 14 nfet_01v8 L=150000U W=650000U AS=169000000000P AD=203125000000P
+ PS=1820000U PD=1275000U
* device instance $7 r0 *1 1.245,0.56 nfet_01v8
M$7 1 5 3 14 nfet_01v8 L=150000U W=650000U AS=203125000000P AD=87750000000P
+ PS=1275000U PD=920000U
* device instance $8 r0 *1 1.665,0.56 nfet_01v8
M$8 3 6 1 14 nfet_01v8 L=150000U W=650000U AS=87750000000P AD=87750000000P
+ PS=920000U PD=920000U
* device instance $9 r0 *1 2.085,0.56 nfet_01v8
M$9 1 7 3 14 nfet_01v8 L=150000U W=650000U AS=87750000000P AD=113750000000P
+ PS=920000U PD=1000000U
* device instance $10 r0 *1 2.585,0.56 nfet_01v8
M$10 3 8 1 14 nfet_01v8 L=150000U W=650000U AS=113750000000P AD=182000000000P
+ PS=1000000U PD=1860000U
.ENDS sky130_fd_sc_hd__o41ai_1

* cell sky130_fd_sc_hd__xnor2_1
* pin VPB
* pin B
* pin A
* pin Y
* pin VPWR
* pin VGND
* pin 
.SUBCKT sky130_fd_sc_hd__xnor2_1 1 2 3 4 5 7 9
* net 1 VPB
* net 2 B
* net 3 A
* net 4 Y
* net 5 VPWR
* net 7 VGND
* device instance $1 r0 *1 0.51,1.985 pfet_01v8_hvt
M$1 8 2 5 1 pfet_01v8_hvt L=150000U W=1000000U AS=300000000000P
+ AD=135000000000P PS=2600000U PD=1270000U
* device instance $2 r0 *1 0.93,1.985 pfet_01v8_hvt
M$2 5 3 8 1 pfet_01v8_hvt L=150000U W=1000000U AS=135000000000P
+ AD=365000000000P PS=1270000U PD=1730000U
* device instance $3 r0 *1 1.81,1.985 pfet_01v8_hvt
M$3 10 3 5 1 pfet_01v8_hvt L=150000U W=1000000U AS=365000000000P
+ AD=105000000000P PS=1730000U PD=1210000U
* device instance $4 r0 *1 2.17,1.985 pfet_01v8_hvt
M$4 4 2 10 1 pfet_01v8_hvt L=150000U W=1000000U AS=105000000000P
+ AD=165000000000P PS=1210000U PD=1330000U
* device instance $5 r0 *1 2.65,1.985 pfet_01v8_hvt
M$5 5 8 4 1 pfet_01v8_hvt L=150000U W=1000000U AS=165000000000P
+ AD=360000000000P PS=1330000U PD=2720000U
* device instance $6 r0 *1 2.29,0.56 nfet_01v8
M$6 6 2 7 9 nfet_01v8 L=150000U W=650000U AS=169000000000P AD=87750000000P
+ PS=1820000U PD=920000U
* device instance $7 r0 *1 2.71,0.56 nfet_01v8
M$7 4 8 6 9 nfet_01v8 L=150000U W=650000U AS=87750000000P AD=195000000000P
+ PS=920000U PD=1900000U
* device instance $8 r0 *1 0.57,0.56 nfet_01v8
M$8 11 2 8 9 nfet_01v8 L=150000U W=650000U AS=169000000000P AD=68250000000P
+ PS=1820000U PD=860000U
* device instance $9 r0 *1 0.93,0.56 nfet_01v8
M$9 7 3 11 9 nfet_01v8 L=150000U W=650000U AS=68250000000P AD=87750000000P
+ PS=860000U PD=920000U
* device instance $10 r0 *1 1.35,0.56 nfet_01v8