* CDL Netlist generated by OpenROAD

*.BUSDELIMITER [

.SUBCKT universal_shift_register clk direction[0] direction[1]
+ enable load parallel_in[0] parallel_in[1] parallel_in[2] parallel_in[3]
+ parallel_in[4] parallel_in[5] parallel_in[6] parallel_in[7]
+ parallel_out[0] parallel_out[1] parallel_out[2] parallel_out[3]
+ parallel_out[4] parallel_out[5] parallel_out[6] parallel_out[7]
+ rst_n serial_in_left serial_in_right
X_076_ shift_right_count\[0\] _067_ VDD VSS gf180mcu_fd_sc_mcu9t5v0__clkinv_2
X_077_ net2 _058_ VDD VSS gf180mcu_fd_sc_mcu9t5v0__clkinv_2
X_078_ net3 _061_ VDD VSS gf180mcu_fd_sc_mcu9t5v0__clkinv_2
X_079_ shift_right_count\[1\] _068_ VDD VSS gf180mcu_fd_sc_mcu9t5v0__clkinv_2
X_080_ net5 _018_ VDD VSS gf180mcu_fd_sc_mcu9t5v0__buf_4
X_081_ shift_right_count\[0\] shift_right_count\[2\] _019_
+ VDD VSS gf180mcu_fd_sc_mcu9t5v0__nand2_2
X_082_ _073_ shift_right_count\[2\] _020_ VDD VSS gf180mcu_fd_sc_mcu9t5v0__or2_2
X_083_ _019_ _020_ _059_ _021_ VDD VSS gf180mcu_fd_sc_mcu9t5v0__aoi21_2
X_084_ _059_ _022_ VDD VSS gf180mcu_fd_sc_mcu9t5v0__inv_4
X_085_ net14 _022_ _023_ VDD VSS gf180mcu_fd_sc_mcu9t5v0__nor2_2
X_086_ _018_ net6 _024_ VDD VSS gf180mcu_fd_sc_mcu9t5v0__nand2_2
X_087_ _018_ _021_ _023_ _024_ _025_ VDD VSS gf180mcu_fd_sc_mcu9t5v0__oai31_2
X_088_ _060_ _026_ VDD VSS gf180mcu_fd_sc_mcu9t5v0__clkinv_2
X_089_ net5 _026_ net4 _027_ VDD VSS gf180mcu_fd_sc_mcu9t5v0__oai21_4
X_090_ _025_ net15 _027_ _000_ VDD VSS gf180mcu_fd_sc_mcu9t5v0__mux2_2
X_091_ _070_ _028_ VDD VSS gf180mcu_fd_sc_mcu9t5v0__clkinv_2
X_092_ shift_right_count\[2\] _029_ VDD VSS gf180mcu_fd_sc_mcu9t5v0__clkinv_2
X_093_ _073_ _028_ _029_ _030_ VDD VSS gf180mcu_fd_sc_mcu9t5v0__mux2_2
X_094_ _059_ net15 _031_ VDD VSS gf180mcu_fd_sc_mcu9t5v0__and2_2
X_095_ _022_ _030_ _031_ _018_ _032_ VDD VSS gf180mcu_fd_sc_mcu9t5v0__aoi211_2
X_096_ net7 _033_ VDD VSS gf180mcu_fd_sc_mcu9t5v0__inv_2
X_097_ _018_ _033_ _034_ VDD VSS gf180mcu_fd_sc_mcu9t5v0__and2_2
X_098_ net16 _027_ _035_ VDD VSS gf180mcu_fd_sc_mcu9t5v0__nand2_2
X_099_ _027_ _032_ _034_ _035_ _001_ VDD VSS gf180mcu_fd_sc_mcu9t5v0__oai31_2
X_100_ _071_ _028_ shift_right_count\[2\] _036_ VDD VSS gf180mcu_fd_sc_mcu9t5v0__mux2_2
X_101_ _059_ net16 _037_ VDD VSS gf180mcu_fd_sc_mcu9t5v0__and2_2
X_102_ _022_ _036_ _037_ _018_ _038_ VDD VSS gf180mcu_fd_sc_mcu9t5v0__aoi211_2
X_103_ net8 _039_ VDD VSS gf180mcu_fd_sc_mcu9t5v0__clkinv_2
X_104_ _018_ _039_ _040_ VDD VSS gf180mcu_fd_sc_mcu9t5v0__and2_2
X_105_ net17 _027_ _041_ VDD VSS gf180mcu_fd_sc_mcu9t5v0__nand2_2
X_106_ _027_ _038_ _040_ _041_ _002_ VDD VSS gf180mcu_fd_sc_mcu9t5v0__oai31_2
X_107_ shift_right_count\[0\] shift_right_count\[1\] shift_right_count\[2\]
+ _042_ VDD VSS gf180mcu_fd_sc_mcu9t5v0__mux2_2
X_108_ net17 _042_ _022_ _043_ VDD VSS gf180mcu_fd_sc_mcu9t5v0__mux2_2
X_109_ _043_ net9 net5 _044_ VDD VSS gf180mcu_fd_sc_mcu9t5v0__mux2_2
X_110_ _044_ net18 _027_ _003_ VDD VSS gf180mcu_fd_sc_mcu9t5v0__mux2_2
X_111_ shift_right_count\[0\] _069_ shift_right_count\[2\]
+ _045_ VDD VSS gf180mcu_fd_sc_mcu9t5v0__mux2_2
X_112_ _059_ net18 _046_ VDD VSS gf180mcu_fd_sc_mcu9t5v0__nand2_2
X_113_ _059_ _045_ _046_ _047_ VDD VSS gf180mcu_fd_sc_mcu9t5v0__oai21_2
X_114_ _047_ net10 net5 _048_ VDD VSS gf180mcu_fd_sc_mcu9t5v0__mux2_2
X_115_ _048_ net19 _027_ _004_ VDD VSS gf180mcu_fd_sc_mcu9t5v0__mux2_2
X_116_ net19 _020_ _022_ _049_ VDD VSS gf180mcu_fd_sc_mcu9t5v0__mux2_2
X_117_ _049_ net11 net5 _050_ VDD VSS gf180mcu_fd_sc_mcu9t5v0__mux2_2
X_118_ _050_ net20 _027_ _005_ VDD VSS gf180mcu_fd_sc_mcu9t5v0__mux2_2
X_119_ _022_ net20 _051_ VDD VSS gf180mcu_fd_sc_mcu9t5v0__nor2_2
X_120_ _029_ _022_ _070_ _052_ VDD VSS gf180mcu_fd_sc_mcu9t5v0__and3_2
X_121_ net5 net12 _053_ VDD VSS gf180mcu_fd_sc_mcu9t5v0__nand2_2
X_122_ _018_ _051_ _052_ _053_ _054_ VDD VSS gf180mcu_fd_sc_mcu9t5v0__oai31_2
X_123_ _054_ net21 _027_ _006_ VDD VSS gf180mcu_fd_sc_mcu9t5v0__mux2_2
X_124_ shift_right_count\[2\] shift_right_count\[1\] _055_
+ VDD VSS gf180mcu_fd_sc_mcu9t5v0__or2_2
X_125_ net21 _055_ _022_ _056_ VDD VSS gf180mcu_fd_sc_mcu9t5v0__mux2_2
X_126_ _056_ net13 net5 _057_ VDD VSS gf180mcu_fd_sc_mcu9t5v0__mux2_2
X_127_ _057_ net22 _027_ _007_ VDD VSS gf180mcu_fd_sc_mcu9t5v0__mux2_2
X_128_ _065_ _011_ VDD VSS gf180mcu_fd_sc_mcu9t5v0__clkinv_2
X_129_ _062_ _011_ _012_ VDD VSS gf180mcu_fd_sc_mcu9t5v0__nand2_2
X_130_ net4 _062_ _067_ _011_ _013_ VDD VSS gf180mcu_fd_sc_mcu9t5v0__and4_2
X_131_ shift_right_count\[0\] _012_ _013_ _014_ VDD VSS gf180mcu_fd_sc_mcu9t5v0__aoi21_2
X_132_ net4 _067_ _014_ _018_ _008_ VDD VSS gf180mcu_fd_sc_mcu9t5v0__oai22_2
X_133_ net4 _062_ _011_ _015_ VDD VSS gf180mcu_fd_sc_mcu9t5v0__and3_2
X_134_ shift_right_count\[1\] _012_ _015_ _070_ _016_ VDD
+ VSS gf180mcu_fd_sc_mcu9t5v0__aoi22_2
X_135_ net4 _068_ _016_ _018_ _009_ VDD VSS gf180mcu_fd_sc_mcu9t5v0__oai22_2
X_136_ shift_right_count\[2\] _012_ _015_ _066_ _017_ VDD
+ VSS gf180mcu_fd_sc_mcu9t5v0__aoi22_2
X_137_ net4 _029_ _017_ _018_ _010_ VDD VSS gf180mcu_fd_sc_mcu9t5v0__oai22_2
X_138_ _058_ net3 _059_ _060_ VDD VSS gf180mcu_fd_sc_mcu9t5v0__addh_4
X_139_ net2 _061_ _062_ _063_ VDD VSS gf180mcu_fd_sc_mcu9t5v0__addh_1
X_140_ shift_right_count\[2\] _064_ _065_ _066_ VDD VSS gf180mcu_fd_sc_mcu9t5v0__addh_1
X_141_ _067_ _068_ _069_ _070_ VDD VSS gf180mcu_fd_sc_mcu9t5v0__addh_2
X_142_ _067_ shift_right_count\[1\] _071_ _072_ VDD VSS gf180mcu_fd_sc_mcu9t5v0__addh_1
X_143_ shift_right_count\[0\] _068_ _073_ _074_ VDD VSS gf180mcu_fd_sc_mcu9t5v0__addh_1
X_144_ shift_right_count\[0\] shift_right_count\[1\] _064_
+ _075_ VDD VSS gf180mcu_fd_sc_mcu9t5v0__addh_1
Xparallel_out\[0\]$_DFFE_PN0P_ _000_ net1 clknet_1_1__leaf_clk
+ net15 VDD VSS gf180mcu_fd_sc_mcu9t5v0__dffrnq_2
Xparallel_out\[1\]$_DFFE_PN0P_ _001_ net1 clknet_1_1__leaf_clk
+ net16 VDD VSS gf180mcu_fd_sc_mcu9t5v0__dffrnq_2
Xparallel_out\[2\]$_DFFE_PN0P_ _002_ net1 clknet_1_0__leaf_clk
+ net17 VDD VSS gf180mcu_fd_sc_mcu9t5v0__dffrnq_2
Xparallel_out\[3\]$_DFFE_PN0P_ _003_ net1 clknet_1_0__leaf_clk
+ net18 VDD VSS gf180mcu_fd_sc_mcu9t5v0__dffrnq_2
Xparallel_out\[4\]$_DFFE_PN0P_ _004_ net1 clknet_1_0__leaf_clk
+ net19 VDD VSS gf180mcu_fd_sc_mcu9t5v0__dffrnq_2
Xparallel_out\[5\]$_DFFE_PN0P_ _005_ net1 clknet_1_1__leaf_clk
+ net20 VDD VSS gf180mcu_fd_sc_mcu9t5v0__dffrnq_2
Xparallel_out\[6\]$_DFFE_PN0P_ _006_ net1 clknet_1_1__leaf_clk
+ net21 VDD VSS gf180mcu_fd_sc_mcu9t5v0__dffrnq_2
Xparallel_out\[7\]$_DFFE_PN0P_ _007_ net1 clknet_1_1__leaf_clk
+ net22 VDD VSS gf180mcu_fd_sc_mcu9t5v0__dffrnq_2
Xshift_right_count\[0\]$_DFFE_PN0P_ _008_ net1 clknet_1_0__leaf_clk
+ shift_right_count\[0\] VDD VSS gf180mcu_fd_sc_mcu9t5v0__dffrnq_2
Xshift_right_count\[1\]$_DFFE_PN0P_ _009_ net1 clknet_1_0__leaf_clk
+ shift_right_count\[1\] VDD VSS gf180mcu_fd_sc_mcu9t5v0__dffrnq_2
Xshift_right_count\[2\]$_DFFE_PN0P_ _010_ net1 clknet_1_1__leaf_clk
+ shift_right_count\[2\] VDD VSS gf180mcu_fd_sc_mcu9t5v0__dffrnq_4
Xhold1 net23 net1 VDD VSS gf180mcu_fd_sc_mcu9t5v0__buf_4
XPHY_EDGE_ROW_0_Right_0 VDD VSS gf180mcu_fd_sc_mcu9t5v0__endcap
XPHY_EDGE_ROW_1_Right_1 VDD VSS gf180mcu_fd_sc_mcu9t5v0__endcap
XPHY_EDGE_ROW_2_Right_2 VDD VSS gf180mcu_fd_sc_mcu9t5v0__endcap
XPHY_EDGE_ROW_3_Right_3 VDD VSS gf180mcu_fd_sc_mcu9t5v0__endcap
XPHY_EDGE_ROW_4_Right_4 VDD VSS gf180mcu_fd_sc_mcu9t5v0__endcap
XPHY_EDGE_ROW_5_Right_5 VDD VSS gf180mcu_fd_sc_mcu9t5v0__endcap
XPHY_EDGE_ROW_6_Right_6 VDD VSS gf180mcu_fd_sc_mcu9t5v0__endcap
XPHY_EDGE_ROW_7_Right_7 VDD VSS gf180mcu_fd_sc_mcu9t5v0__endcap
XPHY_EDGE_ROW_8_Right_8 VDD VSS gf180mcu_fd_sc_mcu9t5v0__endcap
XPHY_EDGE_ROW_9_Right_9 VDD VSS gf180mcu_fd_sc_mcu9t5v0__endcap
XPHY_EDGE_ROW_10_Right_10 VDD VSS gf180mcu_fd_sc_mcu9t5v0__endcap
XPHY_EDGE_ROW_11_Right_11 VDD VSS gf180mcu_fd_sc_mcu9t5v0__endcap
XPHY_EDGE_ROW_12_Right_12 VDD VSS gf180mcu_fd_sc_mcu9t5v0__endcap
XPHY_EDGE_ROW_13_Right_13 VDD VSS gf180mcu_fd_sc_mcu9t5v0__endcap
XPHY_EDGE_ROW_14_Right_14 VDD VSS gf180mcu_fd_sc_mcu9t5v0__endcap
XPHY_EDGE_ROW_15_Right_15 VDD VSS gf180mcu_fd_sc_mcu9t5v0__endcap
XPHY_EDGE_ROW_16_Right_16 VDD VSS gf180mcu_fd_sc_mcu9t5v0__endcap
XPHY_EDGE_ROW_17_Right_17 VDD VSS gf180mcu_fd_sc_mcu9t5v0__endcap
XPHY_EDGE_ROW_18_Right_18 VDD VSS gf180mcu_fd_sc_mcu9t5v0__endcap
XPHY_EDGE_ROW_19_Right_19 VDD VSS gf180mcu_fd_sc_mcu9t5v0__endcap
XPHY_EDGE_ROW_20_Right_20 VDD VSS gf180mcu_fd_sc_mcu9t5v0__endcap
XPHY_EDGE_ROW_21_Right_21 VDD VSS gf180mcu_fd_sc_mcu9t5v0__endcap
XPHY_EDGE_ROW_22_Right_22 VDD VSS gf180mcu_fd_sc_mcu9t5v0__endcap
XPHY_EDGE_ROW_23_Right_23 VDD VSS gf180mcu_fd_sc_mcu9t5v0__endcap
XPHY_EDGE_ROW_24_Right_24 VDD VSS gf180mcu_fd_sc_mcu9t5v0__endcap
XPHY_EDGE_ROW_25_Right_25 VDD VSS gf180mcu_fd_sc_mcu9t5v0__endcap
XPHY_EDGE_ROW_26_Right_26 VDD VSS gf180mcu_fd_sc_mcu9t5v0__endcap
XPHY_EDGE_ROW_27_Right_27 VDD VSS gf180mcu_fd_sc_mcu9t5v0__endcap
XPHY_EDGE_ROW_28_Right_28 VDD VSS gf180mcu_fd_sc_mcu9t5v0__endcap
XPHY_EDGE_ROW_29_Right_29 VDD VSS gf180mcu_fd_sc_mcu9t5v0__endcap
XPHY_EDGE_ROW_30_Right_30 VDD VSS gf180mcu_fd_sc_mcu9t5v0__endcap
XPHY_EDGE_ROW_31_Right_31 VDD VSS gf180mcu_fd_sc_mcu9t5v0__endcap
XPHY_EDGE_ROW_32_Right_32 VDD VSS gf180mcu_fd_sc_mcu9t5v0__endcap
XPHY_EDGE_ROW_33_Right_33 VDD VSS gf180mcu_fd_sc_mcu9t5v0__endcap
XPHY_EDGE_ROW_34_Right_34 VDD VSS gf180mcu_fd_sc_mcu9t5v0__endcap
XPHY_EDGE_ROW_35_Right_35 VDD VSS gf180mcu_fd_sc_mcu9t5v0__endcap
XPHY_EDGE_ROW_36_Right_36 VDD VSS gf180mcu_fd_sc_mcu9t5v0__endcap
XPHY_EDGE_ROW_37_Right_37 VDD VSS gf180mcu_fd_sc_mcu9t5v0__endcap
XPHY_EDGE_ROW_38_Right_38 VDD VSS gf180mcu_fd_sc_mcu9t5v0__endcap
XPHY_EDGE_ROW_39_Right_39 VDD VSS gf180mcu_fd_sc_mcu9t5v0__endcap
XPHY_EDGE_ROW_40_Right_40 VDD VSS gf180mcu_fd_sc_mcu9t5v0__endcap
XPHY_EDGE_ROW_41_Right_41 VDD VSS gf180mcu_fd_sc_mcu9t5v0__endcap
XPHY_EDGE_ROW_42_Right_42 VDD VSS gf180mcu_fd_sc_mcu9t5v0__endcap
XPHY_EDGE_ROW_43_Right_43 VDD VSS gf180mcu_fd_sc_mcu9t5v0__endcap
XPHY_EDGE_ROW_44_Right_44 VDD VSS gf180mcu_fd_sc_mcu9t5v0__endcap
XPHY_EDGE_ROW_45_Right_45 VDD VSS gf180mcu_fd_sc_mcu9t5v0__endcap
XPHY_EDGE_ROW_46_Right_46 VDD VSS gf180mcu_fd_sc_mcu9t5v0__endcap
XPHY_EDGE_ROW_47_Right_47 VDD VSS gf180mcu_fd_sc_mcu9t5v0__endcap
XPHY_EDGE_ROW_48_Right_48 VDD VSS gf180mcu_fd_sc_mcu9t5v0__endcap
XPHY_EDGE_ROW_49_Right_49 VDD VSS gf180mcu_fd_sc_mcu9t5v0__endcap
XPHY_EDGE_ROW_50_Right_50 VDD VSS gf180mcu_fd_sc_mcu9t5v0__endcap
XPHY_EDGE_ROW_51_Right_51 VDD VSS gf180mcu_fd_sc_mcu9t5v0__endcap
XPHY_EDGE_ROW_52_Right_52 VDD VSS gf180mcu_fd_sc_mcu9t5v0__endcap
XPHY_EDGE_ROW_53_Right_53 VDD VSS gf180mcu_fd_sc_mcu9t5v0__endcap
XPHY_EDGE_ROW_54_Right_54 VDD VSS gf180mcu_fd_sc_mcu9t5v0__endcap
XPHY_EDGE_ROW_55_Right_55 VDD VSS gf180mcu_fd_sc_mcu9t5v0__endcap
XPHY_EDGE_ROW_56_Right_56 VDD VSS gf180mcu_fd_sc_mcu9t5v0__endcap
XPHY_EDGE_ROW_57_Right_57 VDD VSS gf180mcu_fd_sc_mcu9t5v0__endcap
XPHY_EDGE_ROW_58_Right_58 VDD VSS gf180mcu_fd_sc_mcu9t5v0__endcap
XPHY_EDGE_ROW_59_Right_59 VDD VSS gf180mcu_fd_sc_mcu9t5v0__endcap
XPHY_EDGE_ROW_60_Right_60 VDD VSS gf180mcu_fd_sc_mcu9t5v0__endcap
XPHY_EDGE_ROW_61_Right_61 VDD VSS gf180mcu_fd_sc_mcu9t5v0__endcap
XPHY_EDGE_ROW_62_Right_62 VDD VSS gf180mcu_fd_sc_mcu9t5v0__endcap
XPHY_EDGE_ROW_63_Right_63 VDD VSS gf180mcu_fd_sc_mcu9t5v0__endcap
XPHY_EDGE_ROW_64_Right_64 VDD VSS gf180mcu_fd_sc_mcu9t5v0__endcap
XPHY_EDGE_ROW_65_Right_65 VDD VSS gf180mcu_fd_sc_mcu9t5v0__endcap
XPHY_EDGE_ROW_66_Right_66 VDD VSS gf180mcu_fd_sc_mcu9t5v0__endcap
XPHY_EDGE_ROW_67_Right_67 VDD VSS gf180mcu_fd_sc_mcu9t5v0__endcap
XPHY_EDGE_ROW_68_Right_68 VDD VSS gf180mcu_fd_sc_mcu9t5v0__endcap
XPHY_EDGE_ROW_69_Right_69 VDD VSS gf180mcu_fd_sc_mcu9t5v0__endcap
XPHY_EDGE_ROW_70_Right_70 VDD VSS gf180mcu_fd_sc_mcu9t5v0__endcap
XPHY_EDGE_ROW_71_Right_71 VDD VSS gf180mcu_fd_sc_mcu9t5v0__endcap
XPHY_EDGE_ROW_72_Right_72 VDD VSS gf180mcu_fd_sc_mcu9t5v0__endcap
XPHY_EDGE_ROW_73_Right_73 VDD VSS gf180mcu_fd_sc_mcu9t5v0__endcap
XPHY_EDGE_ROW_74_Right_74 VDD VSS gf180mcu_fd_sc_mcu9t5v0__endcap
XPHY_EDGE_ROW_75_Right_75 VDD VSS gf180mcu_fd_sc_mcu9t5v0__endcap
XPHY_EDGE_ROW_76_Right_76 VDD VSS gf180mcu_fd_sc_mcu9t5v0__endcap
XPHY_EDGE_ROW_77_Right_77 VDD VSS gf180mcu_fd_sc_mcu9t5v0__endcap
XPHY_EDGE_ROW_78_Right_78 VDD VSS gf180mcu_fd_sc_mcu9t5v0__endcap
XPHY_EDGE_ROW_79_Right_79 VDD VSS gf180mcu_fd_sc_mcu9t5v0__endcap
XPHY_EDGE_ROW_80_Right_80 VDD VSS gf180mcu_fd_sc_mcu9t5v0__endcap
XPHY_EDGE_ROW_81_Right_81 VDD VSS gf180mcu_fd_sc_mcu9t5v0__endcap
XPHY_EDGE_ROW_82_Right_82 VDD VSS gf180mcu_fd_sc_mcu9t5v0__endcap
XPHY_EDGE_ROW_83_Right_83 VDD VSS gf180mcu_fd_sc_mcu9t5v0__endcap
XPHY_EDGE_ROW_84_Right_84 VDD VSS gf180mcu_fd_sc_mcu9t5v0__endcap
XPHY_EDGE_ROW_85_Right_85 VDD VSS gf180mcu_fd_sc_mcu9t5v0__endcap
XPHY_EDGE_ROW_86_Right_86 VDD VSS gf180mcu_fd_sc_mcu9t5v0__endcap
XPHY_EDGE_ROW_87_Right_87 VDD VSS gf180mcu_fd_sc_mcu9t5v0__endcap
XPHY_EDGE_ROW_88_Right_88 VDD VSS gf180mcu_fd_sc_mcu9t5v0__endcap
XPHY_EDGE_ROW_89_Right_89 VDD VSS gf180mcu_fd_sc_mcu9t5v0__endcap
XPHY_EDGE_ROW_90_Right_90 VDD VSS gf180mcu_fd_sc_mcu9t5v0__endcap
XPHY_EDGE_ROW_91_Right_91 VDD VSS gf180mcu_fd_sc_mcu9t5v0__endcap
XPHY_EDGE_ROW_92_Right_92 VDD VSS gf180mcu_fd_sc_mcu9t5v0__endcap
XPHY_EDGE_ROW_93_Right_93 VDD VSS gf180mcu_fd_sc_mcu9t5v0__endcap
XPHY_EDGE_ROW_94_Right_94 VDD VSS gf180mcu_fd_sc_mcu9t5v0__endcap
XPHY_EDGE_ROW_95_Right_95 VDD VSS gf180mcu_fd_sc_mcu9t5v0__endcap
XPHY_EDGE_ROW_96_Right_96 VDD VSS gf180mcu_fd_sc_mcu9t5v0__endcap
XPHY_EDGE_ROW_97_Right_97 VDD VSS gf180mcu_fd_sc_mcu9t5v0__endcap
XPHY_EDGE_ROW_98_Right_98 VDD VSS gf180mcu_fd_sc_mcu9t5v0__endcap
XPHY_EDGE_ROW_99_Right_99 VDD VSS gf180mcu_fd_sc_mcu9t5v0__endcap
XPHY_EDGE_ROW_100_Right_100 VDD VSS gf180mcu_fd_sc_mcu9t5v0__endcap
XPHY_EDGE_ROW_101_Right_101 VDD VSS gf180mcu_fd_sc_mcu9t5v0__endcap
XPHY_EDGE_ROW_102_Right_102 VDD VSS gf180mcu_fd_sc_mcu9t5v0__endcap
XPHY_EDGE_ROW_103_Right_103 VDD VSS gf180mcu_fd_sc_mcu9t5v0__endcap
XPHY_EDGE_ROW_104_Right_104 VDD VSS gf180mcu_fd_sc_mcu9t5v0__endcap
XPHY_EDGE_ROW_105_Right_105 VDD VSS gf180mcu_fd_sc_mcu9t5v0__endcap
XPHY_EDGE_ROW_106_Right_106 VDD VSS gf180mcu_fd_sc_mcu9t5v0__endcap
XPHY_EDGE_ROW_107_Right_107 VDD VSS gf180mcu_fd_sc_mcu9t5v0__endcap
XPHY_EDGE_ROW_108_Right_108 VDD VSS gf180mcu_fd_sc_mcu9t5v0__endcap
XPHY_EDGE_ROW_109_Right_109 VDD VSS gf180mcu_fd_sc_mcu9t5v0__endcap
XPHY_EDGE_ROW_110_Right_110 VDD VSS gf180mcu_fd_sc_mcu9t5v0__endcap
XPHY_EDGE_ROW_111_Right_111 VDD VSS gf180mcu_fd_sc_mcu9t5v0__endcap
XPHY_EDGE_ROW_112_Right_112 VDD VSS gf180mcu_fd_sc_mcu9t5v0__endcap
XPHY_EDGE_ROW_113_Right_113 VDD VSS gf180mcu_fd_sc_mcu9t5v0__endcap
XPHY_EDGE_ROW_114_Right_114 VDD VSS gf180mcu_fd_sc_mcu9t5v0__endcap
XPHY_EDGE_ROW_115_Right_115 VDD VSS gf180mcu_fd_sc_mcu9t5v0__endcap
XPHY_EDGE_ROW_116_Right_116 VDD VSS gf180mcu_fd_sc_mcu9t5v0__endcap
XPHY_EDGE_ROW_117_Right_117 VDD VSS gf180mcu_fd_sc_mcu9t5v0__endcap
XPHY_EDGE_ROW_118_Right_118 VDD VSS gf180mcu_fd_sc_mcu9t5v0__endcap
XPHY_EDGE_ROW_119_Right_119 VDD VSS gf180mcu_fd_sc_mcu9t5v0__endcap
XPHY_EDGE_ROW_120_Right_120 VDD VSS gf180mcu_fd_sc_mcu9t5v0__endcap
XPHY_EDGE_ROW_121_Right_121 VDD VSS gf180mcu_fd_sc_mcu9t5v0__endcap
XPHY_EDGE_ROW_122_Right_122 VDD VSS gf180mcu_fd_sc_mcu9t5v0__endcap
XPHY_EDGE_ROW_123_Right_123 VDD VSS gf180mcu_fd_sc_mcu9t5v0__endcap
XPHY_EDGE_ROW_124_Right_124 VDD VSS gf180mcu_fd_sc_mcu9t5v0__endcap
XPHY_EDGE_ROW_125_Right_125 VDD VSS gf180mcu_fd_sc_mcu9t5v0__endcap
XPHY_EDGE_ROW_126_Right_126 VDD VSS gf180mcu_fd_sc_mcu9t5v0__endcap
XPHY_EDGE_ROW_127_Right_127 VDD VSS gf180mcu_fd_sc_mcu9t5v0__endcap
XPHY_EDGE_ROW_128_Right_128 VDD VSS gf180mcu_fd_sc_mcu9t5v0__endcap
XPHY_EDGE_ROW_129_Right_129 VDD VSS gf180mcu_fd_sc_mcu9t5v0__endcap
XPHY_EDGE_ROW_130_Right_130 VDD VSS gf180mcu_fd_sc_mcu9t5v0__endcap
XPHY_EDGE_ROW_131_Right_131 VDD VSS gf180mcu_fd_sc_mcu9t5v0__endcap
XPHY_EDGE_ROW_132_Right_132 VDD VSS gf180mcu_fd_sc_mcu9t5v0__endcap
XPHY_EDGE_ROW_133_Right_133 VDD VSS gf180mcu_fd_sc_mcu9t5v0__endcap
XPHY_EDGE_ROW_134_Right_134 VDD VSS gf180mcu_fd_sc_mcu9t5v0__endcap
XPHY_EDGE_ROW_135_Right_135 VDD VSS gf180mcu_fd_sc_mcu9t5v0__endcap
XPHY_EDGE_ROW_136_Right_136 VDD VSS gf180mcu_fd_sc_mcu9t5v0__endcap
XPHY_EDGE_ROW_137_Right_137 VDD VSS gf180mcu_fd_sc_mcu9t5v0__endcap
XPHY_EDGE_ROW_138_Right_138 VDD VSS gf180mcu_fd_sc_mcu9t5v0__endcap
XPHY_EDGE_ROW_139_Right_139 VDD VSS gf180mcu_fd_sc_mcu9t5v0__endcap
XPHY_EDGE_ROW_140_Right_140 VDD VSS gf180mcu_fd_sc_mcu9t5v0__endcap
XPHY_EDGE_ROW_141_Right_141 VDD VSS gf180mcu_fd_sc_mcu9t5v0__endcap
XPHY_EDGE_ROW_142_Right_142 VDD VSS gf180mcu_fd_sc_mcu9t5v0__endcap
XPHY_EDGE_ROW_143_Right_143 VDD VSS gf180mcu_fd_sc_mcu9t5v0__endcap
XPHY_EDGE_ROW_144_Right_144 VDD VSS gf180mcu_fd_sc_mcu9t5v0__endcap
XPHY_EDGE_ROW_145_Right_145 VDD VSS gf180mcu_fd_sc_mcu9t5v0__endcap
XPHY_EDGE_ROW_146_Right_146 VDD VSS gf180mcu_fd_sc_mcu9t5v0__endcap
XPHY_EDGE_ROW_147_Right_147 VDD VSS gf180mcu_fd_sc_mcu9t5v0__endcap
XPHY_EDGE_ROW_148_Right_148 VDD VSS gf180mcu_fd_sc_mcu9t5v0__endcap
XPHY_EDGE_ROW_149_Right_149 VDD VSS gf180mcu_fd_sc_mcu9t5v0__endcap
XPHY_EDGE_ROW_150_Right_150 VDD VSS gf180mcu_fd_sc_mcu9t5v0__endcap
XPHY_EDGE_ROW_151_Right_151 VDD VSS gf180mcu_fd_sc_mcu9t5v0__endcap
XPHY_EDGE_ROW_152_Right_152 VDD VSS gf180mcu_fd_sc_mcu9t5v0__endcap
XPHY_EDGE_ROW_153_Right_153 VDD VSS gf180mcu_fd_sc_mcu9t5v0__endcap
XPHY_EDGE_ROW_154_Right_154 VDD VSS gf180mcu_fd_sc_mcu9t5v0__endcap
XPHY_EDGE_ROW_155_Right_155 VDD VSS gf180mcu_fd_sc_mcu9t5v0__endcap
XPHY_EDGE_ROW_156_Right_156 VDD VSS gf180mcu_fd_sc_mcu9t5v0__endcap
XPHY_EDGE_ROW_157_Right_157 VDD VSS gf180mcu_fd_sc_mcu9t5v0__endcap
XPHY_EDGE_ROW_0_Left_158 VDD VSS gf180mcu_fd_sc_mcu9t5v0__endcap
XPHY_EDGE_ROW_1_Left_159 VDD VSS gf180mcu_fd_sc_mcu9t5v0__endcap
XPHY_EDGE_ROW_2_Left_160 VDD VSS gf180mcu_fd_sc_mcu9t5v0__endcap
XPHY_EDGE_ROW_3_Left_161 VDD VSS gf180mcu_fd_sc_mcu9t5v0__endcap
XPHY_EDGE_ROW_4_Left_162 VDD VSS gf180mcu_fd_sc_mcu9t5v0__endcap
XPHY_EDGE_ROW_5_Left_163 VDD VSS gf180mcu_fd_sc_mcu9t5v0__endcap
XPHY_EDGE_ROW_6_Left_164 VDD VSS gf180mcu_fd_sc_mcu9t5v0__endcap
XPHY_EDGE_ROW_7_Left_165 VDD VSS gf180mcu_fd_sc_mcu9t5v0__endcap
XPHY_EDGE_ROW_8_Left_166 VDD VSS gf180mcu_fd_sc_mcu9t5v0__endcap
XPHY_EDGE_ROW_9_Left_167 VDD VSS gf180mcu_fd_sc_mcu9t5v0__endcap
XPHY_EDGE_ROW_10_Left_168 VDD VSS gf180mcu_fd_sc_mcu9t5v0__endcap
XPHY_EDGE_ROW_11_Left_169 VDD VSS gf180mcu_fd_sc_mcu9t5v0__endcap
XPHY_EDGE_ROW_12_Left_170 VDD VSS gf180mcu_fd_sc_mcu9t5v0__endcap
XPHY_EDGE_ROW_13_Left_171 VDD VSS gf180mcu_fd_sc_mcu9t5v0__endcap
XPHY_EDGE_ROW_14_Left_172 VDD VSS gf180mcu_fd_sc_mcu9t5v0__endcap
XPHY_EDGE_ROW_15_Left_173 VDD VSS gf180mcu_fd_sc_mcu9t5v0__endcap
XPHY_EDGE_ROW_16_Left_174 VDD VSS gf180mcu_fd_sc_mcu9t5v0__endcap
XPHY_EDGE_ROW_17_Left_175 VDD VSS gf180mcu_fd_sc_mcu9t5v0__endcap
XPHY_EDGE_ROW_18_Left_176 VDD VSS gf180mcu_fd_sc_mcu9t5v0__endcap
XPHY_EDGE_ROW_19_Left_177 VDD VSS gf180mcu_fd_sc_mcu9t5v0__endcap
XPHY_EDGE_ROW_20_Left_178 VDD VSS gf180mcu_fd_sc_mcu9t5v0__endcap
XPHY_EDGE_ROW_21_Left_179 VDD VSS gf180mcu_fd_sc_mcu9t5v0__endcap
XPHY_EDGE_ROW_22_Left_180 VDD VSS gf180mcu_fd_sc_mcu9t5v0__endcap
XPHY_EDGE_ROW_23_Left_181 VDD VSS gf180mcu_fd_sc_mcu9t5v0__endcap
XPHY_EDGE_ROW_24_Left_182 VDD VSS gf180mcu_fd_sc_mcu9t5v0__endcap
XPHY_EDGE_ROW_25_Left_183 VDD VSS gf180mcu_fd_sc_mcu9t5v0__endcap
XPHY_EDGE_ROW_26_Left_184 VDD VSS gf180mcu_fd_sc_mcu9t5v0__endcap
XPHY_EDGE_ROW_27_Left_185 VDD VSS gf180mcu_fd_sc_mcu9t5v0__endcap
XPHY_EDGE_ROW_28_Left_186 VDD VSS gf180mcu_fd_sc_mcu9t5v0__endcap
XPHY_EDGE_ROW_29_Left_187 VDD VSS gf180mcu_fd_sc_mcu9t5v0__endcap
XPHY_EDGE_ROW_30_Left_188 VDD VSS gf180mcu_fd_sc_mcu9t5v0__endcap
XPHY_EDGE_ROW_31_Left_189 VDD VSS gf180mcu_fd_sc_mcu9t5v0__endcap
XPHY_EDGE_ROW_32_Left_190 VDD VSS gf180mcu_fd_sc_mcu9t5v0__endcap
XPHY_EDGE_ROW_33_Left_191 VDD VSS gf180mcu_fd_sc_mcu9t5v0__endcap
XPHY_EDGE_ROW_34_Left_192 VDD VSS gf180mcu_fd_sc_mcu9t5v0__endcap
XPHY_EDGE_ROW_35_Left_193 VDD VSS gf180mcu_fd_sc_mcu9t5v0__endcap
XPHY_EDGE_ROW_36_Left_194 VDD VSS gf180mcu_fd_sc_mcu9t5v0__endcap
XPHY_EDGE_ROW_37_Left_195 VDD VSS gf180mcu_fd_sc_mcu9t5v0__endcap
XPHY_EDGE_ROW_38_Left_196 VDD VSS gf180mcu_fd_sc_mcu9t5v0__endcap
XPHY_EDGE_ROW_39_Left_197 VDD VSS gf180mcu_fd_sc_mcu9t5v0__endcap
XPHY_EDGE_ROW_40_Left_198 VDD VSS gf180mcu_fd_sc_mcu9t5v0__endcap
XPHY_EDGE_ROW_41_Left_199 VDD VSS gf180mcu_fd_sc_mcu9t5v0__endcap
XPHY_EDGE_ROW_42_Left_200 VDD VSS gf180mcu_fd_sc_mcu9t5v0__endcap
XPHY_EDGE_ROW_43_Left_201 VDD VSS gf180mcu_fd_sc_mcu9t5v0__endcap
XPHY_EDGE_ROW_44_Left_202 VDD VSS gf180mcu_fd_sc_mcu9t5v0__endcap
XPHY_EDGE_ROW_45_Left_203 VDD VSS gf180mcu_fd_sc_mcu9t5v0__endcap
XPHY_EDGE_ROW_46_Left_204 VDD VSS gf180mcu_fd_sc_mcu9t5v0__endcap
XPHY_EDGE_ROW_47_Left_205 VDD VSS gf180mcu_fd_sc_mcu9t5v0__endcap
XPHY_EDGE_ROW_48_Left_206 VDD VSS gf180mcu_fd_sc_mcu9t5v0__endcap
XPHY_EDGE_ROW_49_Left_207 VDD VSS gf180mcu_fd_sc_mcu9t5v0__endcap
XPHY_EDGE_ROW_50_Left_208 VDD VSS gf180mcu_fd_sc_mcu9t5v0__endcap
XPHY_EDGE_ROW_51_Left_209 VDD VSS gf180mcu_fd_sc_mcu9t5v0__endcap
XPHY_EDGE_ROW_52_Left_210 VDD VSS gf180mcu_fd_sc_mcu9t5v0__endcap
XPHY_EDGE_ROW_53_Left_211 VDD VSS gf180mcu_fd_sc_mcu9t5v0__endcap
XPHY_EDGE_ROW_54_Left_212 VDD VSS gf180mcu_fd_sc_mcu9t5v0__endcap
XPHY_EDGE_ROW_55_Left_213 VDD VSS gf180mcu_fd_sc_mcu9t5v0__endcap
XPHY_EDGE_ROW_56_Left_214 VDD VSS gf180mcu_fd_sc_mcu9t5v0__endcap
XPHY_EDGE_ROW_57_Left_215 VDD VSS gf180mcu_fd_sc_mcu9t5v0__endcap
XPHY_EDGE_ROW_58_Left_216 VDD VSS gf180mcu_fd_sc_mcu9t5v0__endcap
XPHY_EDGE_ROW_59_Left_217 VDD VSS gf180mcu_fd_sc_mcu9t5v0__endcap
XPHY_EDGE_ROW_60_Left_218 VDD VSS gf180mcu_fd_sc_mcu9t5v0__endcap
XPHY_EDGE_ROW_61_Left_219 VDD VSS gf180mcu_fd_sc_mcu9t5v0__endcap
XPHY_EDGE_ROW_62_Left_220 VDD VSS gf180mcu_fd_sc_mcu9t5v0__endcap
XPHY_EDGE_ROW_63_Left_221 VDD VSS gf180mcu_fd_sc_mcu9t5v0__endcap
XPHY_EDGE_ROW_64_Left_222 VDD VSS gf180mcu_fd_sc_mcu9t5v0__endcap
XPHY_EDGE_ROW_65_Left_223 VDD VSS gf180mcu_fd_sc_mcu9t5v0__endcap
XPHY_EDGE_ROW_66_Left_224 VDD VSS gf180mcu_fd_sc_mcu9t5v0__endcap
XPHY_EDGE_ROW_67_Left_225 VDD VSS gf180mcu_fd_sc_mcu9t5v0__endcap
XPHY_EDGE_ROW_68_Left_226 VDD VSS gf180mcu_fd_sc_mcu9t5v0__endcap
XPHY_EDGE_ROW_69_Left_227 VDD VSS gf180mcu_fd_sc_mcu9t5v0__endcap
XPHY_EDGE_ROW_70_Left_228 VDD VSS gf180mcu_fd_sc_mcu9t5v0__endcap
XPHY_EDGE_ROW_71_Left_229 VDD VSS gf180mcu_fd_sc_mcu9t5v0__endcap
XPHY_EDGE_ROW_72_Left_230 VDD VSS gf180mcu_fd_sc_mcu9t5v0__endcap
XPHY_EDGE_ROW_73_Left_231 VDD VSS gf180mcu_fd_sc_mcu9t5v0__endcap
XPHY_EDGE_ROW_74_Left_232 VDD VSS gf180mcu_fd_sc_mcu9t5v0__endcap
XPHY_EDGE_ROW_75_Left_233 VDD VSS gf180mcu_fd_sc_mcu9t5v0__endcap
XPHY_EDGE_ROW_76_Left_234 VDD VSS gf180mcu_fd_sc_mcu9t5v0__endcap
XPHY_EDGE_ROW_77_Left_235 VDD VSS gf180mcu_fd_sc_mcu9t5v0__endcap
XPHY_EDGE_ROW_78_Left_236 VDD VSS gf180mcu_fd_sc_mcu9t5v0__endcap
XPHY_EDGE_ROW_79_Left_237 VDD VSS gf180mcu_fd_sc_mcu9t5v0__endcap
XPHY_EDGE_ROW_80_Left_238 VDD VSS gf180mcu_fd_sc_mcu9t5v0__endcap
XPHY_EDGE_ROW_81_Left_239 VDD VSS gf180mcu_fd_sc_mcu9t5v0__endcap
XPHY_EDGE_ROW_82_Left_240 VDD VSS gf180mcu_fd_sc_mcu9t5v0__endcap
XPHY_EDGE_ROW_83_Left_241 VDD VSS gf180mcu_fd_sc_mcu9t5v0__endcap
XPHY_EDGE_ROW_84_Left_242 VDD VSS gf180mcu_fd_sc_mcu9t5v0__endcap
XPHY_EDGE_ROW_85_Left_243 VDD VSS gf180mcu_fd_sc_mcu9t5v0__endcap
XPHY_EDGE_ROW_86_Left_244 VDD VSS gf180mcu_fd_sc_mcu9t5v0__endcap
XPHY_EDGE_ROW_87_Left_245 VDD VSS gf180mcu_fd_sc_mcu9t5v0__endcap
XPHY_EDGE_ROW_88_Left_246 VDD VSS gf180mcu_fd_sc_mcu9t5v0__endcap
XPHY_EDGE_ROW_89_Left_247 VDD VSS gf180mcu_fd_sc_mcu9t5v0__endcap
XPHY_EDGE_ROW_90_Left_248 VDD VSS gf180mcu_fd_sc_mcu9t5v0__endcap
XPHY_EDGE_ROW_91_Left_249 VDD VSS gf180mcu_fd_sc_mcu9t5v0__endcap
XPHY_EDGE_ROW_92_Left_250 VDD VSS gf180mcu_fd_sc_mcu9t5v0__endcap
XPHY_EDGE_ROW_93_Left_251 VDD VSS gf180mcu_fd_sc_mcu9t5v0__endcap
XPHY_EDGE_ROW_94_Left_252 VDD VSS gf180mcu_fd_sc_mcu9t5v0__endcap
XPHY_EDGE_ROW_95_Left_253 VDD VSS gf180mcu_fd_sc_mcu9t5v0__endcap
XPHY_EDGE_ROW_96_Left_254 VDD VSS gf180mcu_fd_sc_mcu9t5v0__endcap
XPHY_EDGE_ROW_97_Left_255 VDD VSS gf180mcu_fd_sc_mcu9t5v0__endcap
XPHY_EDGE_ROW_98_Left_256 VDD VSS gf180mcu_fd_sc_mcu9t5v0__endcap
XPHY_EDGE_ROW_99_Left_257 VDD VSS gf180mcu_fd_sc_mcu9t5v0__endcap
XPHY_EDGE_ROW_100_Left_258 VDD VSS gf180mcu_fd_sc_mcu9t5v0__endcap
XPHY_EDGE_ROW_101_Left_259 VDD VSS gf180mcu_fd_sc_mcu9t5v0__endcap
XPHY_EDGE_ROW_102_Left_260 VDD VSS gf180mcu_fd_sc_mcu9t5v0__endcap
XPHY_EDGE_ROW_103_Left_261 VDD VSS gf180mcu_fd_sc_mcu9t5v0__endcap
XPHY_EDGE_ROW_104_Left_262 VDD VSS gf180mcu_fd_sc_mcu9t5v0__endcap
XPHY_EDGE_ROW_105_Left_263 VDD VSS gf180mcu_fd_sc_mcu9t5v0__endcap
XPHY_EDGE_ROW_106_Left_264 VDD VSS gf180mcu_fd_sc_mcu9t5v0__endcap
XPHY_EDGE_ROW_107_Left_265 VDD VSS gf180mcu_fd_sc_mcu9t5v0__endcap
XPHY_EDGE_ROW_108_Left_266 VDD VSS gf180mcu_fd_sc_mcu9t5v0__endcap
XPHY_EDGE_ROW_109_Left_267 VDD VSS gf180mcu_fd_sc_mcu9t5v0__endcap
XPHY_EDGE_ROW_110_Left_268 VDD VSS gf180mcu_fd_sc_mcu9t5v0__endcap
XPHY_EDGE_ROW_111_Left_269 VDD VSS gf180mcu_fd_sc_mcu9t5v0__endcap
XPHY_EDGE_ROW_112_Left_270 VDD VSS gf180mcu_fd_sc_mcu9t5v0__endcap
XPHY_EDGE_ROW_113_Left_271 VDD VSS gf180mcu_fd_sc_mcu9t5v0__endcap
XPHY_EDGE_ROW_114_Left_272 VDD VSS gf180mcu_fd_sc_mcu9t5v0__endcap
XPHY_EDGE_ROW_115_Left_273 VDD VSS gf180mcu_fd_sc_mcu9t5v0__endcap
XPHY_EDGE_ROW_116_Left_274 VDD VSS gf180mcu_fd_sc_mcu9t5v0__endcap
XPHY_EDGE_ROW_117_Left_275 VDD VSS gf180mcu_fd_sc_mcu9t5v0__endcap
XPHY_EDGE_ROW_118_Left_276 VDD VSS gf180mcu_fd_sc_mcu9t5v0__endcap
XPHY_EDGE_ROW_119_Left_277 VDD VSS gf180mcu_fd_sc_mcu9t5v0__endcap
XPHY_EDGE_ROW_120_Left_278 VDD VSS gf180mcu_fd_sc_mcu9t5v0__endcap
XPHY_EDGE_ROW_121_Left_279 VDD VSS gf180mcu_fd_sc_mcu9t5v0__endcap
XPHY_EDGE_ROW_122_Left_280 VDD VSS gf180mcu_fd_sc_mcu9t5v0__endcap
XPHY_EDGE_ROW_123_Left_281 VDD VSS gf180mcu_fd_sc_mcu9t5v0__endcap
XPHY_EDGE_ROW_124_Left_282 VDD VSS gf180mcu_fd_sc_mcu9t5v0__endcap
XPHY_EDGE_ROW_125_Left_283 VDD VSS gf180mcu_fd_sc_mcu9t5v0__endcap
XPHY_EDGE_ROW_126_Left_284 VDD VSS gf180mcu_fd_sc_mcu9t5v0__endcap
XPHY_EDGE_ROW_127_Left_285 VDD VSS gf180mcu_fd_sc_mcu9t5v0__endcap
XPHY_EDGE_ROW_128_Left_286 VDD VSS gf180mcu_fd_sc_mcu9t5v0__endcap
XPHY_EDGE_ROW_129_Left_287 VDD VSS gf180mcu_fd_sc_mcu9t5v0__endcap
XPHY_EDGE_ROW_130_Left_288 VDD VSS gf180mcu_fd_sc_mcu9t5v0__endcap
XPHY_EDGE_ROW_131_Left_289 VDD VSS gf180mcu_fd_sc_mcu9t5v0__endcap
XPHY_EDGE_ROW_132_Left_290 VDD VSS gf180mcu_fd_sc_mcu9t5v0__endcap
XPHY_EDGE_ROW_133_Left_291 VDD VSS gf180mcu_fd_sc_mcu9t5v0__endcap
XPHY_EDGE_ROW_134_Left_292 VDD VSS gf180mcu_fd_sc_mcu9t5v0__endcap
XPHY_EDGE_ROW_135_Left_293 VDD VSS gf180mcu_fd_sc_mcu9t5v0__endcap
XPHY_EDGE_ROW_136_Left_294 VDD VSS gf180mcu_fd_sc_mcu9t5v0__endcap
XPHY_EDGE_ROW_137_Left_295 VDD VSS gf180mcu_fd_sc_mcu9t5v0__endcap
XPHY_EDGE_ROW_138_Left_296 VDD VSS gf180mcu_fd_sc_mcu9t5v0__endcap
XPHY_EDGE_ROW_139_Left_297 VDD VSS gf180mcu_fd_sc_mcu9t5v0__endcap
XPHY_EDGE_ROW_140_Left_298 VDD VSS gf180mcu_fd_sc_mcu9t5v0__endcap
XPHY_EDGE_ROW_141_Left_299 VDD VSS gf180mcu_fd_sc_mcu9t5v0__endcap
XPHY_EDGE_ROW_142_Left_300 VDD VSS gf180mcu_fd_sc_mcu9t5v0__endcap
XPHY_EDGE_ROW_143_Left_301 VDD VSS gf180mcu_fd_sc_mcu9t5v0__endcap
XPHY_EDGE_ROW_144_Left_302 VDD VSS gf180mcu_fd_sc_mcu9t5v0__endcap
XPHY_EDGE_ROW_145_Left_303 VDD VSS gf180mcu_fd_sc_mcu9t5v0__endcap
XPHY_EDGE_ROW_146_Left_304 VDD VSS gf180mcu_fd_sc_mcu9t5v0__endcap
XPHY_EDGE_ROW_147_Left_305 VDD VSS gf180mcu_fd_sc_mcu9t5v0__endcap
XPHY_EDGE_ROW_148_Left_306 VDD VSS gf180mcu_fd_sc_mcu9t5v0__endcap
XPHY_EDGE_ROW_149_Left_307 VDD VSS gf180mcu_fd_sc_mcu9t5v0__endcap
XPHY_EDGE_ROW_150_Left_308 VDD VSS gf180mcu_fd_sc_mcu9t5v0__endcap
XPHY_EDGE_ROW_151_Left_309 VDD VSS gf180mcu_fd_sc_mcu9t5v0__endcap
XPHY_EDGE_ROW_152_Left_310 VDD VSS gf180mcu_fd_sc_mcu9t5v0__endcap
XPHY_EDGE_ROW_153_Left_311 VDD VSS gf180mcu_fd_sc_mcu9t5v0__endcap
XPHY_EDGE_ROW_154_Left_312 VDD VSS gf180mcu_fd_sc_mcu9t5v0__endcap
XPHY_EDGE_ROW_155_Left_313 VDD VSS gf180mcu_fd_sc_mcu9t5v0__endcap
XPHY_EDGE_ROW_156_Left_314 VDD VSS gf180mcu_fd_sc_mcu9t5v0__endcap
XPHY_EDGE_ROW_157_Left_315 VDD VSS gf180mcu_fd_sc_mcu9t5v0__endcap
XTAP_TAPCELL_ROW_0_316 VDD VSS gf180mcu_fd_sc_mcu9t5v0__filltie
XTAP_TAPCELL_ROW_0_317 VDD VSS gf180mcu_fd_sc_mcu9t5v0__filltie
XTAP_TAPCELL_ROW_0_318 VDD VSS gf180mcu_fd_sc_mcu9t5v0__filltie
XTAP_TAPCELL_ROW_0_319 VDD VSS gf180mcu_fd_sc_mcu9t5v0__filltie
XTAP_TAPCELL_ROW_0_320 VDD VSS gf180mcu_fd_sc_mcu9t5v0__filltie
XTAP_TAPCELL_ROW_0_321 VDD VSS gf180mcu_fd_sc_mcu9t5v0__filltie
XTAP_TAPCELL_ROW_0_322 VDD VSS gf180mcu_fd_sc_mcu9t5v0__filltie
XTAP_TAPCELL_ROW_0_323 VDD VSS gf180mcu_fd_sc_mcu9t5v0__filltie
XTAP_TAPCELL_ROW_1_324 VDD VSS gf180mcu_fd_sc_mcu9t5v0__filltie
XTAP_TAPCELL_ROW_1_325 VDD VSS gf180mcu_fd_sc_mcu9t5v0__filltie
XTAP_TAPCELL_ROW_1_326 VDD VSS gf180mcu_fd_sc_mcu9t5v0__filltie
XTAP_TAPCELL_ROW_1_327 VDD VSS gf180mcu_fd_sc_mcu9t5v0__filltie
XTAP_TAPCELL_ROW_2_328 VDD VSS gf180mcu_fd_sc_mcu9t5v0__filltie
XTAP_TAPCELL_ROW_2_329 VDD VSS gf180mcu_fd_sc_mcu9t5v0__filltie
XTAP_TAPCELL_ROW_2_330 VDD VSS gf180mcu_fd_sc_mcu9t5v0__filltie
XTAP_TAPCELL_ROW_2_331 VDD VSS gf180mcu_fd_sc_mcu9t5v0__filltie
XTAP_TAPCELL_ROW_3_332 VDD VSS gf180mcu_fd_sc_mcu9t5v0__filltie
XTAP_TAPCELL_ROW_3_333 VDD VSS gf180mcu_fd_sc_mcu9t5v0__filltie
XTAP_TAPCELL_ROW_3_334 VDD VSS gf180mcu_fd_sc_mcu9t5v0__filltie
XTAP_TAPCELL_ROW_3_335 VDD VSS gf180mcu_fd_sc_mcu9t5v0__filltie
XTAP_TAPCELL_ROW_4_336 VDD VSS gf180mcu_fd_sc_mcu9t5v0__filltie
XTAP_TAPCELL_ROW_4_337 VDD VSS gf180mcu_fd_sc_mcu9t5v0__filltie
XTAP_TAPCELL_ROW_4_338 VDD VSS gf180mcu_fd_sc_mcu9t5v0__filltie
XTAP_TAPCELL_ROW_4_339 VDD VSS gf180mcu_fd_sc_mcu9t5v0__filltie
XTAP_TAPCELL_ROW_5_340 VDD VSS gf180mcu_fd_sc_mcu9t5v0__filltie
XTAP_TAPCELL_ROW_5_341 VDD VSS gf180mcu_fd_sc_mcu9t5v0__filltie
XTAP_TAPCELL_ROW_5_342 VDD VSS gf180mcu_fd_sc_mcu9t5v0__filltie
XTAP_TAPCELL_ROW_5_343 VDD VSS gf180mcu_fd_sc_mcu9t5v0__filltie
XTAP_TAPCELL_ROW_6_344 VDD VSS gf180mcu_fd_sc_mcu9t5v0__filltie
XTAP_TAPCELL_ROW_6_345 VDD VSS gf180mcu_fd_sc_mcu9t5v0__filltie
XTAP_TAPCELL_ROW_6_346 VDD VSS gf180mcu_fd_sc_mcu9t5v0__filltie
XTAP_TAPCELL_ROW_6_347 VDD VSS gf180mcu_fd_sc_mcu9t5v0__filltie