
* cell universal_shift_register
* pin clk
* pin parallel_out[4]
* pin parallel_in[5]
* pin load
* pin parallel_in[4]
* pin parallel_out[3]
* pin parallel_in[3]
* pin parallel_out[2]
* pin parallel_in[2]
* pin direction[1]
* pin direction[0]
* pin enable
* pin parallel_out[5]
* pin parallel_in[7]
* pin parallel_in[6]
* pin parallel_out[7]
* pin rst_n
* pin serial_in_right
* pin parallel_in[0]
* pin parallel_out[6]
* pin parallel_out[0]
* pin parallel_in[1]
* pin parallel_out[1]
* pin NWELL
* pin PWELL,gf180mcu_gnd
.SUBCKT universal_shift_register 1 2 3 4 5 6 7 8 9 43 44 64 87 95 96 104 114
+ 115 116 117 120 121 122 125 126
* net 1 clk
* net 2 parallel_out[4]
* net 3 parallel_in[5]
* net 4 load
* net 5 parallel_in[4]
* net 6 parallel_out[3]
* net 7 parallel_in[3]
* net 8 parallel_out[2]
* net 9 parallel_in[2]
* net 43 direction[1]
* net 44 direction[0]
* net 64 enable
* net 87 parallel_out[5]
* net 95 parallel_in[7]
* net 96 parallel_in[6]
* net 104 parallel_out[7]
* net 114 rst_n
* net 115 serial_in_right
* net 116 parallel_in[0]
* net 117 parallel_out[6]
* net 120 parallel_out[0]
* net 121 parallel_in[1]
* net 122 parallel_out[1]
* net 125 NWELL
* net 126 PWELL,gf180mcu_gnd
* cell instance $3 r0 *1 385.28,378
X$3 126 1 71 125 gf180mcu_fd_sc_mcu9t5v0__clkbuf_16
* cell instance $7 m0 *1 369.04,15.12
X$7 12 125 126 2 gf180mcu_fd_sc_mcu9t5v0__dlyb_2
* cell instance $12 r0 *1 372.96,5.04
X$12 3 125 126 11 gf180mcu_fd_sc_mcu9t5v0__buf_2
* cell instance $16 m0 *1 382.48,15.12
X$16 126 4 17 125 gf180mcu_fd_sc_mcu9t5v0__clkbuf_8
* cell instance $20 m0 *1 378,15.12
X$20 5 125 126 13 gf180mcu_fd_sc_mcu9t5v0__clkbuf_2
* cell instance $24 r0 *1 378,5.04
X$24 10 125 126 6 gf180mcu_fd_sc_mcu9t5v0__dlyb_2
* cell instance $27 r0 *1 386.4,5.04
X$27 7 125 126 20 gf180mcu_fd_sc_mcu9t5v0__clkbuf_2
* cell instance $31 r0 *1 391.44,5.04
X$31 14 125 126 8 gf180mcu_fd_sc_mcu9t5v0__dlyb_2
* cell instance $36 r0 *1 403.76,5.04
X$36 9 125 126 16 gf180mcu_fd_sc_mcu9t5v0__dlyb_2
* cell instance $45 m0 *1 374.08,327.6
X$45 126 125 21 10 22 18 gf180mcu_fd_sc_mcu9t5v0__mux2_2
* cell instance $48 r0 *1 366.24,327.6
X$48 126 31 10 23 21 125 gf180mcu_fd_sc_mcu9t5v0__dffrnq_2
* cell instance $50 r0 *1 379.12,347.76
X$50 126 125 32 35 10 gf180mcu_fd_sc_mcu9t5v0__nand2_2
* cell instance $54 r0 *1 362.32,367.92
X$54 126 125 57 11 17 65 gf180mcu_fd_sc_mcu9t5v0__mux2_2
* cell instance $57 m0 *1 367.36,378
X$57 126 125 65 58 37 12 gf180mcu_fd_sc_mcu9t5v0__mux2_2
* cell instance $60 r0 *1 359.52,347.76
X$60 126 31 12 23 36 125 gf180mcu_fd_sc_mcu9t5v0__dffrnq_2
* cell instance $62 m0 *1 366.8,347.76
X$62 126 125 36 12 22 30 gf180mcu_fd_sc_mcu9t5v0__mux2_2
* cell instance $64 m0 *1 376.32,347.76
X$64 126 125 30 13 17 33 gf180mcu_fd_sc_mcu9t5v0__mux2_2
* cell instance $69 r0 *1 385.28,327.6
X$69 126 31 14 23 29 125 gf180mcu_fd_sc_mcu9t5v0__dffrnq_2
* cell instance $72 m0 *1 400.96,337.68
X$72 126 125 14 25 22 gf180mcu_fd_sc_mcu9t5v0__nand2_2
* cell instance $74 m0 *1 386.4,337.68
X$74 126 125 19 24 37 14 gf180mcu_fd_sc_mcu9t5v0__mux2_2
* cell instance $76 m0 *1 409.36,15.12
X$76 126 125 16 15 gf180mcu_fd_sc_mcu9t5v0__clkinv_2
* cell instance $78 m0 *1 410.48,327.6
X$78 125 27 15 126 28 gf180mcu_fd_sc_mcu9t5v0__and2_2
* cell instance $89 r0 *1 353.92,408.24
X$89 126 125 98 97 17 94 gf180mcu_fd_sc_mcu9t5v0__mux2_2
* cell instance $95 m0 *1 385.28,357.84
X$95 126 50 22 47 17 125 gf180mcu_fd_sc_mcu9t5v0__oai21_4
* cell instance $98 r0 *1 381.36,317.52
X$98 126 125 18 20 17 19 gf180mcu_fd_sc_mcu9t5v0__mux2_2
* cell instance $100 r0 *1 384.16,408.24
X$100 126 125 17 27 gf180mcu_fd_sc_mcu9t5v0__buf_4
* cell instance $103 m0 *1 360.64,408.24
X$103 126 125 17 89 93 gf180mcu_fd_sc_mcu9t5v0__nand2_2
* cell instance $132 m0 *1 347.76,428.4
X$132 126 125 105 106 22 98 gf180mcu_fd_sc_mcu9t5v0__mux2_2
* cell instance $134 m0 *1 356.72,388.08
X$134 126 125 74 69 22 57 gf180mcu_fd_sc_mcu9t5v0__mux2_2
* cell instance $137 r0 *1 375.76,418.32
X$137 126 125 101 108 22 112 gf180mcu_fd_sc_mcu9t5v0__mux2_2
* cell instance $139 r0 *1 404.32,327.6
X$139 125 25 126 29 26 22 28 gf180mcu_fd_sc_mcu9t5v0__oai31_2
* cell instance $141 m0 *1 351.68,398.16
X$141 126 125 85 88 22 84 gf180mcu_fd_sc_mcu9t5v0__mux2_2
* cell instance $144 m0 *1 406.56,428.4
X$144 125 109 126 110 103 22 111 gf180mcu_fd_sc_mcu9t5v0__oai31_2
* cell instance $146 r0 *1 403.76,418.32
X$146 126 125 102 109 22 gf180mcu_fd_sc_mcu9t5v0__nand2_2
* cell instance $157 r0 *1 412.16,347.76
X$157 126 31 38 23 39 125 gf180mcu_fd_sc_mcu9t5v0__dffrnq_2
* cell instance $159 r0 *1 384.16,347.76
X$159 126 71 23 125 gf180mcu_fd_sc_mcu9t5v0__clkbuf_16
* cell instance $166 r0 *1 376.32,367.92
X$166 126 31 49 23 66 125 gf180mcu_fd_sc_mcu9t5v0__dffrnq_2
* cell instance $168 m0 *1 383.04,357.84
X$168 126 125 23 gf180mcu_fd_sc_mcu9t5v0__clkinv_1
* cell instance $170 m0 *1 387.52,367.92
X$170 126 125 24 49 62 38 gf180mcu_fd_sc_mcu9t5v0__mux2_2
* cell instance $176 m0 *1 400.96,408.24
X$176 79 37 92 26 27 125 126 gf180mcu_fd_sc_mcu9t5v0__aoi211_2
* cell instance $190 r0 *1 389.2,418.32
X$190 91 37 113 103 27 125 126 gf180mcu_fd_sc_mcu9t5v0__aoi211_2
* cell instance $192 r0 *1 408.8,388.08
X$192 125 27 126 73 80 83 50 gf180mcu_fd_sc_mcu9t5v0__oai22_2
* cell instance $194 m0 *1 409.36,357.84
X$194 125 27 126 56 48 39 50 gf180mcu_fd_sc_mcu9t5v0__oai22_2
* cell instance $198 m0 *1 368.48,418.32
X$198 125 99 126 112 75 27 100 gf180mcu_fd_sc_mcu9t5v0__oai31_2
* cell instance $200 m0 *1 366.24,428.4
X$200 126 125 27 99 118 gf180mcu_fd_sc_mcu9t5v0__nand2_2
* cell instance $202 m0 *1 416.64,428.4
X$202 125 27 123 126 111 gf180mcu_fd_sc_mcu9t5v0__and2_2
* cell instance $205 m0 *1 364.56,398.16
X$205 125 89 126 84 90 27 86 gf180mcu_fd_sc_mcu9t5v0__oai31_2
* cell instance $207 r0 *1 395.36,367.92
X$207 125 27 126 67 59 66 50 gf180mcu_fd_sc_mcu9t5v0__oai22_2
* cell instance $229 m0 *1 376.32,428.4
X$229 126 31 108 77 101 125 gf180mcu_fd_sc_mcu9t5v0__dffrnq_2
* cell instance $232 r0 *1 342.16,418.32
X$232 126 31 106 77 105 125 gf180mcu_fd_sc_mcu9t5v0__dffrnq_2
* cell instance $235 r0 *1 408.8,418.32
X$235 126 31 102 77 110 125 gf180mcu_fd_sc_mcu9t5v0__dffrnq_2
* cell instance $237 r0 *1 344.4,398.16
X$237 126 31 88 77 85 125 gf180mcu_fd_sc_mcu9t5v0__dffrnq_2
* cell instance $243 r0 *1 346.64,378
X$243 126 31 69 77 74 125 gf180mcu_fd_sc_mcu9t5v0__dffrnq_2
* cell instance $247 m0 *1 407.68,398.16
X$247 126 31 62 77 83 125 gf180mcu_fd_sc_mcu9t5v0__dffrnq_4
* cell instance $249 r0 *1 342.72,428.4
X$249 126 125 119 31 gf180mcu_fd_sc_mcu9t5v0__buf_4
* cell instance $258 r0 *1 436.24,347.76
X$258 126 45 46 41 32 125 gf180mcu_fd_sc_mcu9t5v0__addh_4
* cell instance $260 r0 *1 394.24,408.24
X$260 126 125 32 37 gf180mcu_fd_sc_mcu9t5v0__inv_4
* cell instance $263 m0 *1 391.44,347.76
X$263 125 35 126 34 33 32 gf180mcu_fd_sc_mcu9t5v0__oai21_2
* cell instance $265 r0 *1 403.76,408.24
X$265 125 32 102 126 92 gf180mcu_fd_sc_mcu9t5v0__and2_2
* cell instance $268 r0 *1 398.72,418.32
X$268 125 32 108 126 113 gf180mcu_fd_sc_mcu9t5v0__and2_2
* cell instance $271 m0 *1 383.04,388.08
X$271 126 32 125 75 58 76 gf180mcu_fd_sc_mcu9t5v0__aoi21_2
* cell instance $278 m0 *1 400.96,367.92
X$278 126 125 34 60 62 38 gf180mcu_fd_sc_mcu9t5v0__mux2_2
* cell instance $296 m0 *1 367.92,408.24
X$296 126 125 90 37 69 gf180mcu_fd_sc_mcu9t5v0__nor2_2
* cell instance $302 r0 *1 393.68,388.08
X$302 80 125 37 72 126 86 gf180mcu_fd_sc_mcu9t5v0__and3_2
* cell instance $304 r0 *1 368.48,418.32
X$304 126 125 100 107 37 gf180mcu_fd_sc_mcu9t5v0__nor2_2
* cell instance $308 r0 *1 364.56,398.16
X$308 126 125 94 78 37 88 gf180mcu_fd_sc_mcu9t5v0__mux2_2
* cell instance $322 m0 *1 419.44,357.84
X$322 126 55 125 56 40 38 gf180mcu_fd_sc_mcu9t5v0__aoi21_2
* cell instance $324 r0 *1 416.08,367.92
X$324 61 126 125 38 49 130 gf180mcu_fd_sc_mcu9t5v0__addh_1
* cell instance $326 m0 *1 406,357.84
X$326 126 125 38 48 gf180mcu_fd_sc_mcu9t5v0__clkinv_2
* cell instance $328 r0 *1 380.24,378
X$328 126 125 38 76 62 gf180mcu_fd_sc_mcu9t5v0__nand2_2
* cell instance $330 m0 *1 390.32,378
X$330 70 126 125 38 59 128 gf180mcu_fd_sc_mcu9t5v0__addh_1
* cell instance $335 r0 *1 413.28,378
X$335 126 72 125 53 67 40 49 gf180mcu_fd_sc_mcu9t5v0__aoi22_2
* cell instance $339 r0 *1 422.24,378
X$339 126 63 125 53 73 40 62 gf180mcu_fd_sc_mcu9t5v0__aoi22_2
* cell instance $342 r0 *1 421.68,357.84
X$342 126 125 52 40 51 gf180mcu_fd_sc_mcu9t5v0__nand2_2
* cell instance $345 m0 *1 781.76,357.84
X$345 126 125 43 41 gf180mcu_fd_sc_mcu9t5v0__clkbuf_3
* cell instance $347 m0 *1 437.92,357.84
X$347 126 125 41 54 gf180mcu_fd_sc_mcu9t5v0__clkinv_2
* cell instance $353 m0 *1 789.6,357.84
X$353 44 125 126 42 gf180mcu_fd_sc_mcu9t5v0__buf_2
* cell instance $356 m0 *1 443.52,357.84
X$356 126 125 42 46 gf180mcu_fd_sc_mcu9t5v0__clkinv_2
* cell instance $359 r0 *1 432.32,357.84
X$359 52 126 125 42 54 129 gf180mcu_fd_sc_mcu9t5v0__addh_1
* cell instance $368 m0 *1 431.2,357.84
X$368 126 125 45 47 gf180mcu_fd_sc_mcu9t5v0__clkinv_2
* cell instance $380 m0 *1 400.96,378
X$380 126 60 72 48 59 125 gf180mcu_fd_sc_mcu9t5v0__addh_2
* cell instance $385 r0 *1 414.4,357.84
X$385 50 52 48 51 126 125 55 gf180mcu_fd_sc_mcu9t5v0__and4_2
* cell instance $387 m0 *1 400.96,388.08
X$387 82 126 125 48 49 127 gf180mcu_fd_sc_mcu9t5v0__addh_1
* cell instance $392 r0 *1 388.08,388.08
X$392 126 62 49 125 78 gf180mcu_fd_sc_mcu9t5v0__or2_2
* cell instance $401 m0 *1 386.96,378
X$401 126 125 49 59 gf180mcu_fd_sc_mcu9t5v0__clkinv_2
* cell instance $410 m0 *1 417.2,367.92
X$410 50 125 52 51 126 53 gf180mcu_fd_sc_mcu9t5v0__and3_2
* cell instance $413 r0 *1 776.72,367.92
X$413 126 125 64 50 gf180mcu_fd_sc_mcu9t5v0__buf_4
* cell instance $418 m0 *1 413.84,367.92
X$418 126 125 68 51 gf180mcu_fd_sc_mcu9t5v0__clkinv_2
* cell instance $451 m0 *1 391.44,388.08
X$451 126 70 62 125 58 gf180mcu_fd_sc_mcu9t5v0__or2_2
* cell instance $466 m0 *1 413.84,378
X$466 68 126 125 62 61 63 gf180mcu_fd_sc_mcu9t5v0__addh_1
* cell instance $480 m0 *1 391.44,398.16
X$480 126 125 79 81 62 82 gf180mcu_fd_sc_mcu9t5v0__mux2_2
* cell instance $486 r0 *1 405.44,388.08
X$486 126 125 62 80 gf180mcu_fd_sc_mcu9t5v0__clkinv_2
* cell instance $512 m0 *1 10.08,408.24
X$512 69 125 126 87 gf180mcu_fd_sc_mcu9t5v0__dlyb_2
* cell instance $519 m0 *1 386.96,408.24
X$519 126 125 91 81 80 70 gf180mcu_fd_sc_mcu9t5v0__mux2_2
* cell instance $527 r0 *1 381.36,398.16
X$527 126 71 77 125 gf180mcu_fd_sc_mcu9t5v0__clkbuf_16
* cell instance $534 m0 *1 400.96,398.16
X$534 126 125 72 81 gf180mcu_fd_sc_mcu9t5v0__clkinv_2
* cell instance $612 r0 *1 11.2,428.4
X$612 88 125 126 117 gf180mcu_fd_sc_mcu9t5v0__dlyb_2
* cell instance $629 r0 *1 3.36,408.24
X$629 96 125 126 93 gf180mcu_fd_sc_mcu9t5v0__buf_2
* cell instance $637 m0 *1 3.36,418.32
X$637 95 125 126 97 gf180mcu_fd_sc_mcu9t5v0__clkbuf_2
* cell instance $661 m0 *1 437.92,801.36
X$661 102 125 126 122 gf180mcu_fd_sc_mcu9t5v0__dlyb_2
* cell instance $670 r0 *1 18.48,418.32
X$670 106 125 126 104 gf180mcu_fd_sc_mcu9t5v0__dlyb_2
* cell instance $682 m0 *1 14.56,428.4
X$682 115 125 126 107 gf180mcu_fd_sc_mcu9t5v0__buf_2
* cell instance $691 m0 *1 405.44,801.36
X$691 108 125 126 120 gf180mcu_fd_sc_mcu9t5v0__dlyb_2
* cell instance $716 m0 *1 171.92,438.48
X$716 126 119 114 125 gf180mcu_fd_sc_mcu9t5v0__dlyc_2
* cell instance $722 m0 *1 20.72,428.4
X$722 116 125 126 118 gf180mcu_fd_sc_mcu9t5v0__buf_2
* cell instance $739 m0 *1 422.24,801.36
X$739 121 125 126 124 gf180mcu_fd_sc_mcu9t5v0__dlyb_2
* cell instance $50983 m0 *1 418.88,801.36
X$50983 126 125 124 123 gf180mcu_fd_sc_mcu9t5v0__inv_2
.ENDS universal_shift_register

* cell gf180mcu_fd_sc_mcu9t5v0__dffrnq_4
* pin PWELL,VSS,gf180mcu_gnd
* pin RN
* pin Q
* pin CLK
* pin D
* pin NWELL,VDD
.SUBCKT gf180mcu_fd_sc_mcu9t5v0__dffrnq_4 1 3 4 5 6 17
* net 1 PWELL,VSS,gf180mcu_gnd
* net 3 RN
* net 4 Q
* net 5 CLK
* net 6 D
* net 17 NWELL,VDD
* device instance $1 r0 *1 16.975,3.78 pmos_5p0
M$1 4 13 17 17 pmos_5p0 L=0.5U W=7.32U AS=2.2326P AD=2.2326P PS=11.59U PD=11.59U
* device instance $5 r0 *1 9.55,3.71 pmos_5p0
M$5 10 9 17 17 pmos_5p0 L=0.5U W=1U AS=0.44P AD=0.285P PS=2.88U PD=1.57U
* device instance $6 r0 *1 10.62,3.71 pmos_5p0
M$6 11 2 10 17 pmos_5p0 L=0.5U W=1U AS=0.285P AD=0.26P PS=1.57U PD=1.52U
* device instance $7 r0 *1 11.64,3.71 pmos_5p0
M$7 12 8 11 17 pmos_5p0 L=0.5U W=1U AS=0.26P AD=0.2875P PS=1.52U PD=1.575U
* device instance $8 r0 *1 12.715,3.71 pmos_5p0
M$8 12 13 17 17 pmos_5p0 L=0.5U W=1U AS=0.5457P AD=0.2875P PS=2.57U PD=1.575U
* device instance $9 r0 *1 13.955,3.78 pmos_5p0
M$9 13 3 17 17 pmos_5p0 L=0.5U W=1.83U AS=0.5457P AD=0.4758P PS=2.57U PD=2.35U
* device instance $10 r0 *1 14.975,3.78 pmos_5p0
M$10 17 11 13 17 pmos_5p0 L=0.5U W=1.83U AS=0.4758P AD=0.8052P PS=2.35U PD=4.54U
* device instance $11 r0 *1 3.73,3.41 pmos_5p0
M$11 7 6 17 17 pmos_5p0 L=0.5U W=1U AS=0.44P AD=0.26P PS=2.88U PD=1.52U
* device instance $12 r0 *1 4.75,3.41 pmos_5p0
M$12 9 8 7 17 pmos_5p0 L=0.5U W=1U AS=0.26P AD=0.26P PS=1.52U PD=1.52U
* device instance $13 r0 *1 5.77,3.41 pmos_5p0
M$13 18 2 9 17 pmos_5p0 L=0.5U W=1U AS=0.26P AD=0.26P PS=1.52U PD=1.52U
* device instance $14 r0 *1 6.79,3.41 pmos_5p0
M$14 17 10 18 17 pmos_5p0 L=0.5U W=1U AS=0.26P AD=0.26P PS=1.52U PD=1.52U
* device instance $15 r0 *1 7.81,3.41 pmos_5p0
M$15 18 3 17 17 pmos_5p0 L=0.5U W=1U AS=0.26P AD=0.44P PS=1.52U PD=2.88U
* device instance $16 r0 *1 0.97,3.555 pmos_5p0
M$16 17 5 2 17 pmos_5p0 L=0.5U W=1.38U AS=0.6072P AD=0.3588P PS=3.64U PD=1.9U
* device instance $17 r0 *1 1.99,3.555 pmos_5p0
M$17 8 2 17 17 pmos_5p0 L=0.5U W=1.38U AS=0.3588P AD=0.6072P PS=1.9U PD=3.64U
* device instance $18 r0 *1 16.925,1.005 nmos_5p0
M$18 4 13 1 1 nmos_5p0 L=0.6U W=5.28U AS=1.6104P AD=1.6104P PS=9.04U PD=9.04U
* device instance $22 r0 *1 3.9,1.315 nmos_5p0
M$22 7 6 1 1 nmos_5p0 L=0.6U W=0.59U AS=0.2596P AD=0.1534P PS=2.06U PD=1.11U
* device instance $23 r0 *1 5.02,1.315 nmos_5p0
M$23 9 2 7 1 nmos_5p0 L=0.6U W=0.59U AS=0.1534P AD=0.1534P PS=1.11U PD=1.11U
* device instance $24 r0 *1 6.14,1.315 nmos_5p0
M$24 15 8 9 1 nmos_5p0 L=0.6U W=0.59U AS=0.1534P AD=0.0708P PS=1.11U PD=0.83U
* device instance $25 r0 *1 6.98,1.315 nmos_5p0
M$25 14 10 15 1 nmos_5p0 L=0.6U W=0.59U AS=0.0708P AD=0.0826P PS=0.83U PD=0.87U
* device instance $26 r0 *1 7.86,1.315 nmos_5p0
M$26 1 3 14 1 nmos_5p0 L=0.6U W=0.59U AS=0.0826P AD=0.2124P PS=0.87U PD=1.31U
* device instance $27 r0 *1 9.18,1.315 nmos_5p0
M$27 10 9 1 1 nmos_5p0 L=0.6U W=0.59U AS=0.2124P AD=0.190275P PS=1.31U PD=1.235U
* device instance $28 r0 *1 10.425,1.315 nmos_5p0
M$28 11 8 10 1 nmos_5p0 L=0.6U W=0.59U AS=0.190275P AD=0.1534P PS=1.235U
+ PD=1.11U
* device instance $29 r0 *1 11.545,1.315 nmos_5p0
M$29 12 2 11 1 nmos_5p0 L=0.6U W=0.59U AS=0.1534P AD=0.1534P PS=1.11U PD=1.11U
* device instance $30 r0 *1 12.665,1.315 nmos_5p0
M$30 1 13 12 1 nmos_5p0 L=0.6U W=0.59U AS=0.1534P AD=0.1534P PS=1.11U PD=1.11U
* device instance $31 r0 *1 13.785,1.315 nmos_5p0
M$31 1 3 16 1 nmos_5p0 L=0.6U W=0.59U AS=0.3525P AD=0.1534P PS=2.02U PD=1.11U
* device instance $32 r0 *1 15.085,1.005 nmos_5p0
M$32 13 11 16 1 nmos_5p0 L=0.6U W=1.32U AS=0.3525P AD=0.5808P PS=2.02U PD=3.52U
* device instance $33 r0 *1 0.92,1.27 nmos_5p0
M$33 1 5 2 1 nmos_5p0 L=0.6U W=0.79U AS=0.3476P AD=0.2054P PS=2.46U PD=1.31U
* device instance $34 r0 *1 2.04,1.27 nmos_5p0
M$34 8 2 1 1 nmos_5p0 L=0.6U W=0.79U AS=0.2054P AD=0.3476P PS=1.31U PD=2.46U
.ENDS gf180mcu_fd_sc_mcu9t5v0__dffrnq_4

* cell gf180mcu_fd_sc_mcu9t5v0__aoi22_2
* pin PWELL,VSS,gf180mcu_gnd
* pin B2
* pin NWELL,VDD
* pin B1
* pin ZN
* pin A2
* pin A1
.SUBCKT gf180mcu_fd_sc_mcu9t5v0__aoi22_2 1 2 3 4 5 7 8
* net 1 PWELL,VSS,gf180mcu_gnd
* net 2 B2
* net 3 NWELL,VDD
* net 4 B1
* net 5 ZN
* net 7 A2
* net 8 A1
* device instance $1 r0 *1 0.87,3.78 pmos_5p0
M$1 3 2 6 3 pmos_5p0 L=0.5U W=3.66U AS=1.281P AD=0.9516P PS=6.89U PD=4.7U
* device instance $2 r0 *1 1.89,3.78 pmos_5p0
M$2 6 4 3 3 pmos_5p0 L=0.5U W=3.66U AS=0.9516P AD=0.9516P PS=4.7U PD=4.7U
* device instance $5 r0 *1 4.95,3.78 pmos_5p0
M$5 5 7 6 3 pmos_5p0 L=0.5U W=3.66U AS=0.9516P AD=1.281P PS=4.7U PD=6.89U
* device instance $6 r0 *1 5.97,3.78 pmos_5p0
M$6 6 8 5 3 pmos_5p0 L=0.5U W=3.66U AS=0.9516P AD=0.9516P PS=4.7U PD=4.7U
* device instance $9 r0 *1 0.92,1.005 nmos_5p0
M$9 12 2 1 1 nmos_5p0 L=0.6U W=1.32U AS=0.5808P AD=0.2112P PS=3.52U PD=1.64U
* device instance $10 r0 *1 1.84,1.005 nmos_5p0
M$10 5 4 12 1 nmos_5p0 L=0.6U W=1.32U AS=0.2112P AD=0.3663P PS=1.64U PD=1.875U
* device instance $11 r0 *1 2.995,1.005 nmos_5p0
M$11 11 4 5 1 nmos_5p0 L=0.6U W=1.32U AS=0.3663P AD=0.1881P PS=1.875U PD=1.605U
* device instance $12 r0 *1 3.88,1.005 nmos_5p0
M$12 1 2 11 1 nmos_5p0 L=0.6U W=1.32U AS=0.1881P AD=0.3432P PS=1.605U PD=1.84U
* device instance $13 r0 *1 5,1.005 nmos_5p0
M$13 10 7 1 1 nmos_5p0 L=0.6U W=1.32U AS=0.3432P AD=0.2112P PS=1.84U PD=1.64U
* device instance $14 r0 *1 5.92,1.005 nmos_5p0
M$14 5 8 10 1 nmos_5p0 L=0.6U W=1.32U AS=0.2112P AD=0.3432P PS=1.64U PD=1.84U
* device instance $15 r0 *1 7.04,1.005 nmos_5p0
M$15 9 8 5 1 nmos_5p0 L=0.6U W=1.32U AS=0.3432P AD=0.2112P PS=1.84U PD=1.64U
* device instance $16 r0 *1 7.96,1.005 nmos_5p0
M$16 1 7 9 1 nmos_5p0 L=0.6U W=1.32U AS=0.2112P AD=0.5808P PS=1.64U PD=3.52U
.ENDS gf180mcu_fd_sc_mcu9t5v0__aoi22_2

* cell gf180mcu_fd_sc_mcu9t5v0__and4_2
* pin A1
* pin A2
* pin A3
* pin A4
* pin PWELL,VSS,gf180mcu_gnd
* pin NWELL,VDD
* pin Z
.SUBCKT gf180mcu_fd_sc_mcu9t5v0__and4_2 1 2 3 4 5 6 8
* net 1 A1
* net 2 A2
* net 3 A3
* net 4 A4
* net 5 PWELL,VSS,gf180mcu_gnd
* net 6 NWELL,VDD
* net 8 Z
* device instance $1 r0 *1 0.925,4.055 pmos_5p0
M$1 7 1 6 6 pmos_5p0 L=0.5U W=1.28U AS=0.5632P AD=0.3328P PS=3.44U PD=1.8U
* device instance $2 r0 *1 1.945,4.055 pmos_5p0
M$2 6 2 7 6 pmos_5p0 L=0.5U W=1.28U AS=0.3328P AD=0.3328P PS=1.8U PD=1.8U
* device instance $3 r0 *1 2.965,4.055 pmos_5p0
M$3 7 3 6 6 pmos_5p0 L=0.5U W=1.28U AS=0.3328P AD=0.3328P PS=1.8U PD=1.8U
* device instance $4 r0 *1 3.985,4.055 pmos_5p0
M$4 7 4 6 6 pmos_5p0 L=0.5U W=1.28U AS=0.558P AD=0.3328P PS=2.53U PD=1.8U
* device instance $5 r0 *1 5.185,3.78 pmos_5p0
M$5 8 7 6 6 pmos_5p0 L=0.5U W=3.66U AS=1.0338P AD=1.281P PS=4.88U PD=6.89U
* device instance $7 r0 *1 0.975,1.005 nmos_5p0
M$7 11 1 7 5 nmos_5p0 L=0.6U W=1.32U AS=0.5808P AD=0.2112P PS=3.52U PD=1.64U
* device instance $8 r0 *1 1.895,1.005 nmos_5p0
M$8 10 2 11 5 nmos_5p0 L=0.6U W=1.32U AS=0.2112P AD=0.2772P PS=1.64U PD=1.74U
* device instance $9 r0 *1 2.915,1.005 nmos_5p0
M$9 9 3 10 5 nmos_5p0 L=0.6U W=1.32U AS=0.2772P AD=0.2772P PS=1.74U PD=1.74U
* device instance $10 r0 *1 3.935,1.005 nmos_5p0
M$10 5 4 9 5 nmos_5p0 L=0.6U W=1.32U AS=0.2772P AD=0.3432P PS=1.74U PD=1.84U
* device instance $11 r0 *1 5.055,1.005 nmos_5p0
M$11 8 7 5 5 nmos_5p0 L=0.6U W=2.64U AS=0.6864P AD=0.924P PS=3.68U PD=5.36U
.ENDS gf180mcu_fd_sc_mcu9t5v0__and4_2

* cell gf180mcu_fd_sc_mcu9t5v0__addh_4
* pin PWELL,VSS,gf180mcu_gnd
* pin S
* pin A
* pin B
* pin CO
* pin NWELL,VDD
.SUBCKT gf180mcu_fd_sc_mcu9t5v0__addh_4 1 4 5 6 8 11
* net 1 PWELL,VSS,gf180mcu_gnd
* net 4 S
* net 5 A
* net 6 B
* net 8 CO
* net 11 NWELL,VDD
* device instance $1 r0 *1 0.92,3.78 pmos_5p0
M$1 2 5 11 11 pmos_5p0 L=0.5U W=3.66U AS=1.281P AD=1.16205P PS=6.89U PD=4.93U
* device instance $2 r0 *1 1.94,3.78 pmos_5p0
M$2 11 6 2 11 pmos_5p0 L=0.5U W=3.66U AS=0.99735P AD=0.99735P PS=4.75U PD=4.75U
* device instance $5 r0 *1 5.28,3.78 pmos_5p0
M$5 7 2 11 11 pmos_5p0 L=0.5U W=3.66U AS=1.25355P AD=1.25355P PS=5.03U PD=5.03U
* device instance $6 r0 *1 6.35,3.78 pmos_5p0
M$6 12 5 7 11 pmos_5p0 L=0.5U W=1.83U AS=0.52155P AD=0.61305P PS=2.4U PD=2.5U
* device instance $7 r0 *1 7.52,3.78 pmos_5p0
M$7 11 6 12 11 pmos_5p0 L=0.5U W=1.83U AS=0.61305P AD=0.5673P PS=2.5U PD=2.45U
* device instance $8 r0 *1 8.64,3.78 pmos_5p0
M$8 13 6 11 11 pmos_5p0 L=0.5U W=1.83U AS=0.5673P AD=0.5673P PS=2.45U PD=2.45U
* device instance $9 r0 *1 9.76,3.78 pmos_5p0
M$9 7 5 13 11 pmos_5p0 L=0.5U W=1.83U AS=0.5673P AD=0.5673P PS=2.45U PD=2.45U
* device instance $11 r0 *1 12.18,3.78 pmos_5p0
M$11 8 2 11 11 pmos_5p0 L=0.5U W=7.32U AS=2.38815P AD=2.22345P PS=9.93U PD=9.75U
* device instance $15 r0 *1 16.61,3.78 pmos_5p0
M$15 4 7 11 11 pmos_5p0 L=0.5U W=7.32U AS=2.24175P AD=2.47965P PS=9.77U
+ PD=11.86U
* device instance $19 r0 *1 0.92,1 nmos_5p0
M$19 9 5 1 1 nmos_5p0 L=0.6U W=1.32U AS=0.5808P AD=0.2772P PS=3.52U PD=1.74U
* device instance $20 r0 *1 1.94,1 nmos_5p0
M$20 2 6 9 1 nmos_5p0 L=0.6U W=1.32U AS=0.2772P AD=0.3432P PS=1.74U PD=1.84U
* device instance $21 r0 *1 3.06,1 nmos_5p0
M$21 10 6 2 1 nmos_5p0 L=0.6U W=1.32U AS=0.3432P AD=0.2112P PS=1.84U PD=1.64U
* device instance $22 r0 *1 3.98,1 nmos_5p0
M$22 1 5 10 1 nmos_5p0 L=0.6U W=1.32U AS=0.2112P AD=0.396P PS=1.64U PD=2.02U
* device instance $23 r0 *1 5.28,1.22 nmos_5p0
M$23 3 2 1 1 nmos_5p0 L=0.6U W=1.76U AS=0.792P AD=0.4576P PS=4.04U PD=2.8U
* device instance $24 r0 *1 6.4,1.22 nmos_5p0
M$24 7 5 3 1 nmos_5p0 L=0.6U W=1.76U AS=0.4576P AD=0.4576P PS=2.8U PD=2.8U
* device instance $25 r0 *1 7.52,1.22 nmos_5p0
M$25 3 6 7 1 nmos_5p0 L=0.6U W=1.76U AS=0.4576P AD=0.4576P PS=2.8U PD=2.8U
* device instance $29 r0 *1 12.18,1 nmos_5p0
M$29 8 2 1 1 nmos_5p0 L=0.6U W=5.28U AS=1.4256P AD=1.3728P PS=7.54U PD=7.36U
* device instance $33 r0 *1 16.66,1 nmos_5p0
M$33 4 7 1 1 nmos_5p0 L=0.6U W=5.28U AS=1.3728P AD=1.6104P PS=7.36U PD=9.04U
.ENDS gf180mcu_fd_sc_mcu9t5v0__addh_4

* cell gf180mcu_fd_sc_mcu9t5v0__clkbuf_3
* pin PWELL,VSS,gf180mcu_gnd
* pin NWELL,VDD
* pin I
* pin Z
.SUBCKT gf180mcu_fd_sc_mcu9t5v0__clkbuf_3 1 2 3 5
* net 1 PWELL,VSS,gf180mcu_gnd
* net 2 NWELL,VDD
* net 3 I
* net 5 Z
* device instance $1 r0 *1 0.87,3.552 pmos_5p0
M$1 4 3 2 2 pmos_5p0 L=0.5U W=2.75U AS=1.03125P AD=0.97625P PS=5.625U PD=4.17U
* device instance $3 r0 *1 3.29,3.552 pmos_5p0
M$3 5 4 2 2 pmos_5p0 L=0.5U W=5.5U AS=1.82875P AD=1.88375P PS=8.16U PD=9.615U
* device instance $7 r0 *1 0.92,1.34 nmos_5p0
M$7 4 3 1 1 nmos_5p0 L=0.6U W=1.1U AS=0.385P AD=0.3455P PS=3.05U PD=2.37U
* device instance $9 r0 *1 3.34,1.365 nmos_5p0
M$9 5 4 1 1 nmos_5p0 L=0.6U W=2.4U AS=0.6705P AD=0.732P PS=4.66U PD=5.44U
.ENDS gf180mcu_fd_sc_mcu9t5v0__clkbuf_3

* cell gf180mcu_fd_sc_mcu9t5v0__clkbuf_8
* pin PWELL,VSS,gf180mcu_gnd
* pin I
* pin Z
* pin NWELL,VDD
.SUBCKT gf180mcu_fd_sc_mcu9t5v0__clkbuf_8 1 2 4 5
* net 1 PWELL,VSS,gf180mcu_gnd
* net 2 I
* net 4 Z
* net 5 NWELL,VDD
* device instance $1 r0 *1 0.87,3.78 pmos_5p0
M$1 3 2 5 5 pmos_5p0 L=0.5U W=7.32U AS=2.5071P AD=2.4339P PS=11.89U PD=9.98U
* device instance $5 r0 *1 5.53,3.78 pmos_5p0
M$5 4 3 5 5 pmos_5p0 L=0.5U W=14.64U AS=4.7031P AD=4.7763P PS=19.78U PD=21.69U
* device instance $13 r0 *1 0.92,1.3 nmos_5p0
M$13 3 2 1 1 nmos_5p0 L=0.6U W=2.92U AS=0.9703P AD=0.7592P PS=6.34U PD=5U
* device instance $17 r0 *1 5.58,1.265 nmos_5p0
M$17 4 3 1 1 nmos_5p0 L=0.6U W=6.4U AS=1.7255P AD=1.808P PS=10.74U PD=11.72U
.ENDS gf180mcu_fd_sc_mcu9t5v0__clkbuf_8

* cell gf180mcu_fd_sc_mcu9t5v0__oai21_2
* pin NWELL,VDD
* pin B
* pin PWELL,VSS,gf180mcu_gnd
* pin A2
* pin ZN
* pin A1
.SUBCKT gf180mcu_fd_sc_mcu9t5v0__oai21_2 1 2 3 4 5 6
* net 1 NWELL,VDD
* net 2 B
* net 3 PWELL,VSS,gf180mcu_gnd
* net 4 A2
* net 5 ZN
* net 6 A1
* device instance $1 r0 *1 0.97,3.872 pmos_5p0
M$1 5 2 1 1 pmos_5p0 L=0.5U W=3.29U AS=1.353P AD=0.8554P PS=6.72U PD=4.33U
* device instance $3 r0 *1 3.21,3.78 pmos_5p0
M$3 9 4 1 1 pmos_5p0 L=0.5U W=1.83U AS=0.6292P AD=0.52155P PS=2.55U PD=2.4U
* device instance $4 r0 *1 4.28,3.78 pmos_5p0
M$4 5 6 9 1 pmos_5p0 L=0.5U W=1.83U AS=0.52155P AD=0.5673P PS=2.4U PD=2.45U
* device instance $5 r0 *1 5.4,3.78 pmos_5p0
M$5 8 6 5 1 pmos_5p0 L=0.5U W=1.83U AS=0.5673P AD=0.52155P PS=2.45U PD=2.4U
* device instance $6 r0 *1 6.47,3.78 pmos_5p0
M$6 1 4 8 1 pmos_5p0 L=0.5U W=1.83U AS=0.52155P AD=0.8052P PS=2.4U PD=4.54U
* device instance $7 r0 *1 0.92,1.005 nmos_5p0
M$7 3 2 7 3 nmos_5p0 L=0.6U W=2.64U AS=0.924P AD=0.6864P PS=5.36U PD=3.68U
* device instance $9 r0 *1 3.16,1.005 nmos_5p0
M$9 5 4 7 3 nmos_5p0 L=0.6U W=2.64U AS=0.6864P AD=0.924P PS=3.68U PD=5.36U
* device instance $10 r0 *1 4.28,1.005 nmos_5p0
M$10 7 6 5 3 nmos_5p0 L=0.6U W=2.64U AS=0.6864P AD=0.6864P PS=3.68U PD=3.68U
.ENDS gf180mcu_fd_sc_mcu9t5v0__oai21_2

* cell gf180mcu_fd_sc_mcu9t5v0__and3_2
* pin A1
* pin NWELL,VDD
* pin A2
* pin A3
* pin PWELL,VSS,gf180mcu_gnd
* pin Z
.SUBCKT gf180mcu_fd_sc_mcu9t5v0__and3_2 2 3 4 5 6 7
* net 2 A1
* net 3 NWELL,VDD
* net 4 A2
* net 5 A3
* net 6 PWELL,VSS,gf180mcu_gnd
* net 7 Z
* device instance $1 r0 *1 0.925,3.965 pmos_5p0
M$1 3 2 1 3 pmos_5p0 L=0.5U W=1.46U AS=0.6424P AD=0.3796P PS=3.8U PD=1.98U
* device instance $2 r0 *1 1.945,3.965 pmos_5p0
M$2 1 4 3 3 pmos_5p0 L=0.5U W=1.46U AS=0.3796P AD=0.3796P PS=1.98U PD=1.98U
* device instance $3 r0 *1 2.965,3.965 pmos_5p0
M$3 1 5 3 3 pmos_5p0 L=0.5U W=1.46U AS=0.585P AD=0.3796P PS=2.53U PD=1.98U
* device instance $4 r0 *1 4.165,3.78 pmos_5p0
M$4 7 1 3 3 pmos_5p0 L=0.5U W=3.66U AS=1.0608P AD=1.281P PS=4.88U PD=6.89U
* device instance $6 r0 *1 0.975,1.005 nmos_5p0
M$6 9 2 1 6 nmos_5p0 L=0.6U W=1.32U AS=0.5808P AD=0.2112P PS=3.52U PD=1.64U
* device instance $7 r0 *1 1.895,1.005 nmos_5p0
M$7 8 4 9 6 nmos_5p0 L=0.6U W=1.32U AS=0.2112P AD=0.2772P PS=1.64U PD=1.74U
* device instance $8 r0 *1 2.915,1.005 nmos_5p0
M$8 6 5 8 6 nmos_5p0 L=0.6U W=1.32U AS=0.2772P AD=0.3432P PS=1.74U PD=1.84U
* device instance $9 r0 *1 4.035,1.005 nmos_5p0
M$9 7 1 6 6 nmos_5p0 L=0.6U W=2.64U AS=0.6864P AD=0.924P PS=3.68U PD=5.36U
.ENDS gf180mcu_fd_sc_mcu9t5v0__and3_2

* cell gf180mcu_fd_sc_mcu9t5v0__aoi21_2
* pin PWELL,VSS,gf180mcu_gnd
* pin B
* pin NWELL,VDD
* pin ZN
* pin A2
* pin A1
.SUBCKT gf180mcu_fd_sc_mcu9t5v0__aoi21_2 1 3 4 5 6 7
* net 1 PWELL,VSS,gf180mcu_gnd
* net 3 B
* net 4 NWELL,VDD
* net 5 ZN
* net 6 A2
* net 7 A1
* device instance $1 r0 *1 0.935,3.78 pmos_5p0
M$1 4 3 2 4 pmos_5p0 L=0.5U W=3.66U AS=1.3725P AD=1.0431P PS=6.99U PD=4.8U
* device instance $3 r0 *1 3.075,3.78 pmos_5p0
M$3 5 6 2 4 pmos_5p0 L=0.5U W=3.66U AS=0.9516P AD=1.3908P PS=4.7U PD=7.01U
* device instance $4 r0 *1 4.215,3.78 pmos_5p0
M$4 2 7 5 4 pmos_5p0 L=0.5U W=3.66U AS=1.0614P AD=0.9516P PS=4.82U PD=4.7U
* device instance $7 r0 *1 0.985,0.805 nmos_5p0
M$7 5 3 1 1 nmos_5p0 L=0.6U W=1.84U AS=0.644P AD=0.6412P PS=4.16U PD=3.46U
* device instance $9 r0 *1 3.405,1.005 nmos_5p0
M$9 9 6 1 1 nmos_5p0 L=0.6U W=1.32U AS=0.402P AD=0.1584P PS=2.02U PD=1.56U
* device instance $10 r0 *1 4.245,1.005 nmos_5p0
M$10 5 7 9 1 nmos_5p0 L=0.6U W=1.32U AS=0.1584P AD=0.3432P PS=1.56U PD=1.84U
* device instance $11 r0 *1 5.365,1.005 nmos_5p0
M$11 8 7 5 1 nmos_5p0 L=0.6U W=1.32U AS=0.3432P AD=0.1584P PS=1.84U PD=1.56U
* device instance $12 r0 *1 6.205,1.005 nmos_5p0
M$12 1 6 8 1 nmos_5p0 L=0.6U W=1.32U AS=0.1584P AD=0.5808P PS=1.56U PD=3.52U
.ENDS gf180mcu_fd_sc_mcu9t5v0__aoi21_2

* cell gf180mcu_fd_sc_mcu9t5v0__or2_2
* pin PWELL,VSS,gf180mcu_gnd
* pin A1
* pin A2
* pin NWELL,VDD
* pin Z
.SUBCKT gf180mcu_fd_sc_mcu9t5v0__or2_2 1 2 4 5 6
* net 1 PWELL,VSS,gf180mcu_gnd
* net 2 A1
* net 4 A2
* net 5 NWELL,VDD
* net 6 Z
* device instance $1 r0 *1 0.97,3.78 pmos_5p0
M$1 7 2 3 5 pmos_5p0 L=0.5U W=1.83U AS=0.8052P AD=0.52155P PS=4.54U PD=2.4U
* device instance $2 r0 *1 2.04,3.78 pmos_5p0
M$2 5 4 7 5 pmos_5p0 L=0.5U W=1.83U AS=0.52155P AD=0.5673P PS=2.4U PD=2.45U
* device instance $3 r0 *1 3.16,3.78 pmos_5p0
M$3 6 3 5 5 pmos_5p0 L=0.5U W=3.66U AS=1.08885P AD=1.32675P PS=4.85U PD=6.94U
* device instance $5 r0 *1 0.92,1.005 nmos_5p0
M$5 3 2 1 1 nmos_5p0 L=0.6U W=1.32U AS=0.5808P AD=0.3432P PS=3.52U PD=1.84U
* device instance $6 r0 *1 2.04,1.005 nmos_5p0
M$6 1 4 3 1 nmos_5p0 L=0.6U W=1.32U AS=0.3432P AD=0.3432P PS=1.84U PD=1.84U
* device instance $7 r0 *1 3.16,1.005 nmos_5p0
M$7 6 3 1 1 nmos_5p0 L=0.6U W=2.64U AS=0.6864P AD=0.924P PS=3.68U PD=5.36U
.ENDS gf180mcu_fd_sc_mcu9t5v0__or2_2

* cell gf180mcu_fd_sc_mcu9t5v0__clkinv_1
* pin PWELL,VSS,gf180mcu_gnd
* pin NWELL,VDD
* pin I
.SUBCKT gf180mcu_fd_sc_mcu9t5v0__clkinv_1 1 2 3
* net 1 PWELL,VSS,gf180mcu_gnd
* net 2 NWELL,VDD
* net 3 I
* net 4 ZN
* device instance $1 r0 *1 0.87,3.78 pmos_5p0
M$1 4 3 2 2 pmos_5p0 L=0.5U W=1.83U AS=0.8052P AD=0.8052P PS=4.54U PD=4.54U
* device instance $2 r0 *1 0.92,1.3 nmos_5p0
M$2 4 3 1 1 nmos_5p0 L=0.6U W=0.73U AS=0.3212P AD=0.3212P PS=2.34U PD=2.34U
.ENDS gf180mcu_fd_sc_mcu9t5v0__clkinv_1

* cell gf180mcu_fd_sc_mcu9t5v0__oai21_4
* pin PWELL,VSS,gf180mcu_gnd
* pin B
* pin ZN
* pin A2
* pin A1
* pin NWELL,VDD
.SUBCKT gf180mcu_fd_sc_mcu9t5v0__oai21_4 1 2 4 5 6 7
* net 1 PWELL,VSS,gf180mcu_gnd
* net 2 B
* net 4 ZN
* net 5 A2
* net 6 A1
* net 7 NWELL,VDD
* device instance $1 r0 *1 0.97,3.78 pmos_5p0
M$1 8 5 7 7 pmos_5p0 L=0.5U W=1.83U AS=0.8052P AD=0.5673P PS=4.54U PD=2.45U
* device instance $2 r0 *1 2.09,3.78 pmos_5p0
M$2 4 6 8 7 pmos_5p0 L=0.5U W=1.83U AS=0.5673P AD=0.52155P PS=2.45U PD=2.4U
* device instance $3 r0 *1 3.16,3.78 pmos_5p0
M$3 10 6 4 7 pmos_5p0 L=0.5U W=1.83U AS=0.52155P AD=0.5673P PS=2.4U PD=2.45U
* device instance $4 r0 *1 4.28,3.78 pmos_5p0
M$4 7 5 10 7 pmos_5p0 L=0.5U W=1.83U AS=0.5673P AD=0.5673P PS=2.45U PD=2.45U
* device instance $5 r0 *1 5.4,3.78 pmos_5p0
M$5 9 5 7 7 pmos_5p0 L=0.5U W=1.83U AS=0.5673P AD=0.5673P PS=2.45U PD=2.45U
* device instance $6 r0 *1 6.52,3.78 pmos_5p0
M$6 4 6 9 7 pmos_5p0 L=0.5U W=1.83U AS=0.5673P AD=0.5673P PS=2.45U PD=2.45U
* device instance $7 r0 *1 7.64,3.78 pmos_5p0
M$7 11 6 4 7 pmos_5p0 L=0.5U W=1.83U AS=0.5673P AD=0.52155P PS=2.45U PD=2.4U
* device instance $8 r0 *1 8.71,3.78 pmos_5p0
M$8 7 5 11 7 pmos_5p0 L=0.5U W=1.83U AS=0.52155P AD=0.6292P PS=2.4U PD=2.55U
* device instance $9 r0 *1 9.93,3.872 pmos_5p0
M$9 4 2 7 7 pmos_5p0 L=0.5U W=6.58U AS=2.117925P AD=2.212525P PS=9.295U
+ PD=10.915U
* device instance $13 r0 *1 0.92,1.005 nmos_5p0
M$13 4 5 3 1 nmos_5p0 L=0.6U W=5.28U AS=1.6104P AD=1.3728P PS=9.04U PD=7.36U
* device instance $14 r0 *1 2.04,1.005 nmos_5p0
M$14 3 6 4 1 nmos_5p0 L=0.6U W=5.28U AS=1.3728P AD=1.3728P PS=7.36U PD=7.36U
* device instance $21 r0 *1 9.88,1.005 nmos_5p0
M$21 1 2 3 1 nmos_5p0 L=0.6U W=5.28U AS=1.3728P AD=1.6104P PS=7.36U PD=9.04U
.ENDS gf180mcu_fd_sc_mcu9t5v0__oai21_4

* cell gf180mcu_fd_sc_mcu9t5v0__inv_4