* CDL Netlist generated by OpenROAD

*.BUSDELIMITER [

.SUBCKT ddr_controller clk cmd_addr[0] cmd_addr[10] cmd_addr[11]
+ cmd_addr[12] cmd_addr[13] cmd_addr[14] cmd_addr[15] cmd_addr[16]
+ cmd_addr[17] cmd_addr[18] cmd_addr[19] cmd_addr[1] cmd_addr[20]
+ cmd_addr[21] cmd_addr[22] cmd_addr[23] cmd_addr[24] cmd_addr[25]
+ cmd_addr[26] cmd_addr[27] cmd_addr[2] cmd_addr[3] cmd_addr[4]
+ cmd_addr[5] cmd_addr[6] cmd_addr[7] cmd_addr[8] cmd_addr[9]
+ cmd_burst_len[0] cmd_burst_len[1] cmd_burst_len[2] cmd_burst_len[3]
+ cmd_ready cmd_valid cmd_write init_done phy_addr[0] phy_addr[10]
+ phy_addr[11] phy_addr[12] phy_addr[13] phy_addr[1] phy_addr[2]
+ phy_addr[3] phy_addr[4] phy_addr[5] phy_addr[6] phy_addr[7]
+ phy_addr[8] phy_addr[9] phy_bank[0] phy_bank[1] phy_bank[2]
+ phy_bank_group[0] phy_bank_group[1] phy_cas_n phy_cke phy_clk
+ phy_cs_n phy_dm[0] phy_dm[1] phy_dm[2] phy_dm[3] phy_dm[4]
+ phy_dm[5] phy_dm[6] phy_dm[7] phy_dq[0] phy_dq[10] phy_dq[11]
+ phy_dq[12] phy_dq[13] phy_dq[14] phy_dq[15] phy_dq[16] phy_dq[17]
+ phy_dq[18] phy_dq[19] phy_dq[1] phy_dq[20] phy_dq[21] phy_dq[22]
+ phy_dq[23] phy_dq[24] phy_dq[25] phy_dq[26] phy_dq[27] phy_dq[28]
+ phy_dq[29] phy_dq[2] phy_dq[30] phy_dq[31] phy_dq[32] phy_dq[33]
+ phy_dq[34] phy_dq[35] phy_dq[36] phy_dq[37] phy_dq[38] phy_dq[39]
+ phy_dq[3] phy_dq[40] phy_dq[41] phy_dq[42] phy_dq[43] phy_dq[44]
+ phy_dq[45] phy_dq[46] phy_dq[47] phy_dq[48] phy_dq[49] phy_dq[4]
+ phy_dq[50] phy_dq[51] phy_dq[52] phy_dq[53] phy_dq[54] phy_dq[55]
+ phy_dq[56] phy_dq[57] phy_dq[58] phy_dq[59] phy_dq[5] phy_dq[60]
+ phy_dq[61] phy_dq[62] phy_dq[63] phy_dq[6] phy_dq[7] phy_dq[8]
+ phy_dq[9] phy_dqs_n[0] phy_dqs_n[1] phy_dqs_n[2] phy_dqs_n[3]
+ phy_dqs_n[4] phy_dqs_n[5] phy_dqs_n[6] phy_dqs_n[7] phy_dqs_p[0]
+ phy_dqs_p[1] phy_dqs_p[2] phy_dqs_p[3] phy_dqs_p[4] phy_dqs_p[5]
+ phy_dqs_p[6] phy_dqs_p[7] phy_odt phy_ras_n phy_reset_n phy_we_n
+ rd_data[0] rd_data[10] rd_data[11] rd_data[12] rd_data[13]
+ rd_data[14] rd_data[15] rd_data[16] rd_data[17] rd_data[18]
+ rd_data[19] rd_data[1] rd_data[20] rd_data[21] rd_data[22]
+ rd_data[23] rd_data[24] rd_data[25] rd_data[26] rd_data[27]
+ rd_data[28] rd_data[29] rd_data[2] rd_data[30] rd_data[31]
+ rd_data[32] rd_data[33] rd_data[34] rd_data[35] rd_data[36]
+ rd_data[37] rd_data[38] rd_data[39] rd_data[3] rd_data[40]
+ rd_data[41] rd_data[42] rd_data[43] rd_data[44] rd_data[45]
+ rd_data[46] rd_data[47] rd_data[48] rd_data[49] rd_data[4]
+ rd_data[50] rd_data[51] rd_data[52] rd_data[53] rd_data[54]
+ rd_data[55] rd_data[56] rd_data[57] rd_data[58] rd_data[59]
+ rd_data[5] rd_data[60] rd_data[61] rd_data[62] rd_data[63]
+ rd_data[6] rd_data[7] rd_data[8] rd_data[9] rd_ready rd_valid
+ rst_n state[0] state[1] wr_data[0] wr_data[10] wr_data[11]
+ wr_data[12] wr_data[13] wr_data[14] wr_data[15] wr_data[16]
+ wr_data[17] wr_data[18] wr_data[19] wr_data[1] wr_data[20]
+ wr_data[21] wr_data[22] wr_data[23] wr_data[24] wr_data[25]
+ wr_data[26] wr_data[27] wr_data[28] wr_data[29] wr_data[2]
+ wr_data[30] wr_data[31] wr_data[32] wr_data[33] wr_data[34]
+ wr_data[35] wr_data[36] wr_data[37] wr_data[38] wr_data[39]
+ wr_data[3] wr_data[40] wr_data[41] wr_data[42] wr_data[43]
+ wr_data[44] wr_data[45] wr_data[46] wr_data[47] wr_data[48]
+ wr_data[49] wr_data[4] wr_data[50] wr_data[51] wr_data[52]
+ wr_data[53] wr_data[54] wr_data[55] wr_data[56] wr_data[57]
+ wr_data[58] wr_data[59] wr_data[5] wr_data[60] wr_data[61]
+ wr_data[62] wr_data[63] wr_data[6] wr_data[7] wr_data[8] wr_data[9]
+ wr_mask[0] wr_mask[1] wr_mask[2] wr_mask[3] wr_mask[4] wr_mask[5]
+ wr_mask[6] wr_mask[7] wr_ready wr_valid
X_1192_ net33 _0801_ VDD VSS BUF_X4
X_1193_ _0801_ _0802_ VDD VSS CLKBUF_X3
X_1194_ _0802_ _0803_ VDD VSS BUF_X2
X_1195_ _1182_ _0804_ VDD VSS CLKBUF_X2
X_1196_ _0804_ _0805_ VDD VSS INV_X1
X_1197_ _0805_ _0806_ VDD VSS BUF_X4
X_1198_ _1176_ _0807_ VDD VSS CLKBUF_X2
X_1199_ timer\[3\] _0808_ VDD VSS BUF_X1
X_1200_ timer\[2\] _0808_ _0809_ VDD VSS NOR2_X2
X_1201_ _0807_ _0809_ _0810_ VDD VSS NAND2_X4
X_1202_ timer\[11\] timer\[10\] timer\[12\] _0811_ VDD VSS
+ OR3_X2
X_1203_ timer\[13\] timer\[14\] timer\[15\] _0812_ VDD VSS
+ OR3_X1
X_1204_ timer\[7\] timer\[6\] timer\[8\] _0813_ VDD VSS OR3_X1
X_1205_ timer\[5\] timer\[4\] timer\[9\] _0814_ VDD VSS OR3_X1
X_1206_ _0811_ _0812_ _0813_ _0814_ _0815_ VDD VSS OR4_X1
X_1207_ _0815_ _0816_ VDD VSS BUF_X4
X_1208_ _0810_ _0816_ _0817_ VDD VSS NOR2_X4
X_1209_ _0817_ _0818_ VDD VSS INV_X1
X_1210_ _0818_ _0819_ VDD VSS BUF_X4
X_1211_ _0819_ _0820_ VDD VSS BUF_X4
X_1212_ _0806_ _0820_ _0821_ VDD VSS NOR2_X4
X_1213_ init_state\[2\] init_state\[4\] _0821_ _0822_ VDD
+ VSS MUX2_X1
X_1214_ _0803_ _0822_ _0002_ VDD VSS AND2_X1
X_1215_ init_state\[3\] _0823_ VDD VSS BUF_X1
X_1216_ init_state\[5\] _0824_ VDD VSS CLKBUF_X3
X_1217_ _0823_ _0824_ _0821_ _0825_ VDD VSS MUX2_X1
X_1218_ _0803_ _0825_ _0003_ VDD VSS AND2_X1
X_1219_ init_state\[0\] _0826_ VDD VSS BUF_X1
X_1220_ init_state\[4\] _0826_ _0821_ _0827_ VDD VSS MUX2_X1
X_1221_ _0803_ _0827_ _0004_ VDD VSS AND2_X1
X_1222_ init_state\[1\] _0828_ VDD VSS CLKBUF_X3
X_1223_ _0824_ _0828_ _0821_ _0829_ VDD VSS MUX2_X1
X_1224_ _0803_ _0829_ _0005_ VDD VSS AND2_X1
X_1225_ init_state\[6\] init_state\[2\] _0821_ _0830_ VDD
+ VSS MUX2_X1
X_1226_ _0803_ _0830_ _0006_ VDD VSS AND2_X1
X_1227_ _0826_ _0831_ VDD VSS INV_X1
X_1228_ _0803_ _0831_ _0821_ _0000_ VDD VSS OAI21_X1
X_1229_ _0828_ init_state\[6\] _0821_ _0832_ VDD VSS MUX2_X1
X_1230_ _0803_ _0832_ _0001_ VDD VSS AND2_X1
X_1231_ _0801_ _0833_ VDD VSS INV_X4
X_1232_ _0833_ _0834_ VDD VSS CLKBUF_X3
X_1233_ _0834_ _0835_ VDD VSS CLKBUF_X3
X_1234_ init_state\[7\] _0836_ VDD VSS BUF_X1
X_1235_ _0836_ _0821_ _0823_ _0837_ VDD VSS AOI21_X1
X_1236_ _0835_ _0837_ _0007_ VDD VSS NOR2_X1
X_1237_ refresh_counter\[13\] refresh_counter\[12\] _0838_
+ VDD VSS OR2_X1
X_1238_ refresh_counter\[15\] refresh_counter\[14\] refresh_counter\[11\]
+ _0838_ _0839_ VDD VSS OR4_X2
X_1239_ refresh_counter\[5\] _0840_ VDD VSS BUF_X1
X_1240_ refresh_counter\[6\] _0840_ _0841_ VDD VSS NOR2_X1
X_1241_ refresh_counter\[3\] refresh_counter\[2\] refresh_counter\[4\]
+ _0842_ VDD VSS NAND3_X1
X_1242_ _1167_ _1165_ _0843_ VDD VSS NOR2_X1
X_1243_ _0841_ _0842_ _0843_ _0844_ VDD VSS OAI21_X2
X_1244_ refresh_counter\[7\] refresh_counter\[10\] refresh_counter\[9\]
+ refresh_counter\[8\] _0845_ VDD VSS AND4_X1
X_1245_ _0839_ _0844_ _0845_ _1162_ VDD VSS AOI21_X4
X_1246_ _0820_ _1170_ VDD VSS BUF_X4
X_1247_ net101 _0846_ VDD VSS BUF_X2
X_1248_ net117 _0847_ VDD VSS BUF_X4
X_1249_ _0847_ _0848_ VDD VSS INV_X4
X_1250_ net115 _0849_ VDD VSS INV_X2
X_1251_ _1184_ _0850_ VDD VSS BUF_X4
X_1252_ _0850_ _0851_ VDD VSS INV_X4
X_1253_ net116 _0852_ VDD VSS BUF_X2
X_1254_ _0833_ _0851_ _0852_ _0819_ _0853_ VDD VSS NOR4_X4
X_1255_ _0848_ _0849_ _0853_ _0854_ VDD VSS NAND3_X4
X_1256_ _0854_ _0855_ VDD VSS BUF_X4
X_1257_ _0846_ active_row\[0\]\[0\] _0855_ _0046_ VDD VSS
+ MUX2_X1
X_1258_ net102 _0856_ VDD VSS BUF_X2
X_1259_ _0856_ active_row\[0\]\[10\] _0855_ _0047_ VDD VSS
+ MUX2_X1
X_1260_ net103 _0857_ VDD VSS BUF_X2
X_1261_ _0857_ active_row\[0\]\[11\] _0855_ _0048_ VDD VSS
+ MUX2_X1
X_1262_ net104 _0858_ VDD VSS BUF_X2
X_1263_ _0858_ active_row\[0\]\[12\] _0855_ _0049_ VDD VSS
+ MUX2_X1
X_1264_ net105 _0859_ VDD VSS BUF_X2
X_1265_ _0859_ active_row\[0\]\[13\] _0855_ _0050_ VDD VSS
+ MUX2_X1
X_1266_ net106 _0860_ VDD VSS BUF_X2
X_1267_ _0860_ active_row\[0\]\[1\] _0855_ _0051_ VDD VSS
+ MUX2_X1
X_1268_ net107 _0861_ VDD VSS BUF_X2
X_1269_ _0861_ active_row\[0\]\[2\] _0855_ _0052_ VDD VSS
+ MUX2_X1
X_1270_ net108 _0862_ VDD VSS CLKBUF_X2
X_1271_ _0862_ active_row\[0\]\[3\] _0855_ _0053_ VDD VSS
+ MUX2_X1
X_1272_ net109 _0863_ VDD VSS BUF_X2
X_1273_ _0863_ active_row\[0\]\[4\] _0855_ _0054_ VDD VSS
+ MUX2_X1
X_1274_ net110 _0864_ VDD VSS BUF_X2
X_1275_ _0864_ active_row\[0\]\[5\] _0855_ _0055_ VDD VSS
+ MUX2_X1
X_1276_ net111 _0865_ VDD VSS BUF_X2
X_1277_ _0865_ active_row\[0\]\[6\] _0854_ _0056_ VDD VSS
+ MUX2_X1
X_1278_ net112 _0866_ VDD VSS BUF_X2
X_1279_ _0866_ active_row\[0\]\[7\] _0854_ _0057_ VDD VSS
+ MUX2_X1
X_1280_ net113 _0867_ VDD VSS BUF_X2
X_1281_ _0867_ active_row\[0\]\[8\] _0854_ _0058_ VDD VSS
+ MUX2_X1
X_1282_ net114 _0868_ VDD VSS CLKBUF_X2
X_1283_ _0868_ active_row\[0\]\[9\] _0854_ _0059_ VDD VSS
+ MUX2_X1
X_1284_ _1145_ _0869_ VDD VSS INV_X4
X_1285_ _0848_ _0869_ _0853_ _0870_ VDD VSS NAND3_X4
X_1286_ _0870_ _0871_ VDD VSS BUF_X4
X_1287_ _0846_ active_row\[1\]\[0\] _0871_ _0060_ VDD VSS
+ MUX2_X1
X_1288_ _0856_ active_row\[1\]\[10\] _0871_ _0061_ VDD VSS
+ MUX2_X1
X_1289_ _0857_ active_row\[1\]\[11\] _0871_ _0062_ VDD VSS
+ MUX2_X1
X_1290_ _0858_ active_row\[1\]\[12\] _0871_ _0063_ VDD VSS
+ MUX2_X1
X_1291_ _0859_ active_row\[1\]\[13\] _0871_ _0064_ VDD VSS
+ MUX2_X1
X_1292_ _0860_ active_row\[1\]\[1\] _0871_ _0065_ VDD VSS
+ MUX2_X1
X_1293_ _0861_ active_row\[1\]\[2\] _0871_ _0066_ VDD VSS
+ MUX2_X1
X_1294_ _0862_ active_row\[1\]\[3\] _0871_ _0067_ VDD VSS
+ MUX2_X1
X_1295_ _0863_ active_row\[1\]\[4\] _0871_ _0068_ VDD VSS
+ MUX2_X1
X_1296_ _0864_ active_row\[1\]\[5\] _0871_ _0069_ VDD VSS
+ MUX2_X1
X_1297_ _0865_ active_row\[1\]\[6\] _0870_ _0070_ VDD VSS
+ MUX2_X1
X_1298_ _0866_ active_row\[1\]\[7\] _0870_ _0071_ VDD VSS
+ MUX2_X1
X_1299_ _0867_ active_row\[1\]\[8\] _0870_ _0072_ VDD VSS
+ MUX2_X1
X_1300_ _0868_ active_row\[1\]\[9\] _0870_ _0073_ VDD VSS
+ MUX2_X1
X_1301_ _0817_ _0872_ VDD VSS BUF_X4
X_1302_ _0801_ _0850_ _0852_ _0872_ _0873_ VDD VSS NAND4_X4
X_1303_ _0847_ _0869_ _0873_ _0874_ VDD VSS NOR3_X4
X_1304_ _0874_ _0875_ VDD VSS BUF_X4
X_1305_ active_row\[2\]\[0\] _0846_ _0875_ _0074_ VDD VSS
+ MUX2_X1
X_1306_ active_row\[2\]\[10\] _0856_ _0875_ _0075_ VDD VSS
+ MUX2_X1
X_1307_ active_row\[2\]\[11\] _0857_ _0875_ _0076_ VDD VSS
+ MUX2_X1
X_1308_ active_row\[2\]\[12\] _0858_ _0875_ _0077_ VDD VSS
+ MUX2_X1
X_1309_ active_row\[2\]\[13\] _0859_ _0875_ _0078_ VDD VSS
+ MUX2_X1
X_1310_ active_row\[2\]\[1\] _0860_ _0875_ _0079_ VDD VSS
+ MUX2_X1
X_1311_ active_row\[2\]\[2\] _0861_ _0875_ _0080_ VDD VSS
+ MUX2_X1
X_1312_ active_row\[2\]\[3\] _0862_ _0875_ _0081_ VDD VSS
+ MUX2_X1
X_1313_ active_row\[2\]\[4\] _0863_ _0875_ _0082_ VDD VSS
+ MUX2_X1
X_1314_ active_row\[2\]\[5\] _0864_ _0875_ _0083_ VDD VSS
+ MUX2_X1
X_1315_ active_row\[2\]\[6\] _0865_ _0874_ _0084_ VDD VSS
+ MUX2_X1
X_1316_ active_row\[2\]\[7\] _0866_ _0874_ _0085_ VDD VSS
+ MUX2_X1
X_1317_ active_row\[2\]\[8\] _0867_ _0874_ _0086_ VDD VSS
+ MUX2_X1
X_1318_ active_row\[2\]\[9\] _0868_ _0874_ _0087_ VDD VSS
+ MUX2_X1
X_1319_ _0847_ _1145_ _0873_ _0876_ VDD VSS OR3_X4
X_1320_ _0876_ _0877_ VDD VSS BUF_X4
X_1321_ _0846_ active_row\[3\]\[0\] _0877_ _0088_ VDD VSS
+ MUX2_X1
X_1322_ _0856_ active_row\[3\]\[10\] _0877_ _0089_ VDD VSS
+ MUX2_X1
X_1323_ _0857_ active_row\[3\]\[11\] _0877_ _0090_ VDD VSS
+ MUX2_X1
X_1324_ _0858_ active_row\[3\]\[12\] _0877_ _0091_ VDD VSS
+ MUX2_X1
X_1325_ _0859_ active_row\[3\]\[13\] _0877_ _0092_ VDD VSS
+ MUX2_X1
X_1326_ _0860_ active_row\[3\]\[1\] _0877_ _0093_ VDD VSS
+ MUX2_X1
X_1327_ _0861_ active_row\[3\]\[2\] _0877_ _0094_ VDD VSS
+ MUX2_X1
X_1328_ _0862_ active_row\[3\]\[3\] _0877_ _0095_ VDD VSS
+ MUX2_X1
X_1329_ _0863_ active_row\[3\]\[4\] _0877_ _0096_ VDD VSS
+ MUX2_X1
X_1330_ _0864_ active_row\[3\]\[5\] _0877_ _0097_ VDD VSS
+ MUX2_X1
X_1331_ _0865_ active_row\[3\]\[6\] _0876_ _0098_ VDD VSS
+ MUX2_X1
X_1332_ _0866_ active_row\[3\]\[7\] _0876_ _0099_ VDD VSS
+ MUX2_X1
X_1333_ _0867_ active_row\[3\]\[8\] _0876_ _0100_ VDD VSS
+ MUX2_X1
X_1334_ _0868_ active_row\[3\]\[9\] _0876_ _0101_ VDD VSS
+ MUX2_X1
X_1335_ _0847_ _0849_ _0853_ _0878_ VDD VSS NAND3_X4
X_1336_ _0878_ _0879_ VDD VSS BUF_X4
X_1337_ _0846_ active_row\[4\]\[0\] _0879_ _0102_ VDD VSS
+ MUX2_X1
X_1338_ _0856_ active_row\[4\]\[10\] _0879_ _0103_ VDD VSS
+ MUX2_X1
X_1339_ _0857_ active_row\[4\]\[11\] _0879_ _0104_ VDD VSS
+ MUX2_X1
X_1340_ _0858_ active_row\[4\]\[12\] _0879_ _0105_ VDD VSS
+ MUX2_X1
X_1341_ _0859_ active_row\[4\]\[13\] _0879_ _0106_ VDD VSS
+ MUX2_X1
X_1342_ _0860_ active_row\[4\]\[1\] _0879_ _0107_ VDD VSS
+ MUX2_X1
X_1343_ _0861_ active_row\[4\]\[2\] _0879_ _0108_ VDD VSS
+ MUX2_X1
X_1344_ _0862_ active_row\[4\]\[3\] _0879_ _0109_ VDD VSS
+ MUX2_X1
X_1345_ _0863_ active_row\[4\]\[4\] _0879_ _0110_ VDD VSS
+ MUX2_X1
X_1346_ _0864_ active_row\[4\]\[5\] _0879_ _0111_ VDD VSS
+ MUX2_X1
X_1347_ _0865_ active_row\[4\]\[6\] _0878_ _0112_ VDD VSS
+ MUX2_X1
X_1348_ _0866_ active_row\[4\]\[7\] _0878_ _0113_ VDD VSS
+ MUX2_X1
X_1349_ _0867_ active_row\[4\]\[8\] _0878_ _0114_ VDD VSS
+ MUX2_X1
X_1350_ _0868_ active_row\[4\]\[9\] _0878_ _0115_ VDD VSS
+ MUX2_X1
X_1351_ _0847_ _0869_ _0853_ _0880_ VDD VSS NAND3_X4
X_1352_ _0880_ _0881_ VDD VSS BUF_X4
X_1353_ _0846_ active_row\[5\]\[0\] _0881_ _0116_ VDD VSS
+ MUX2_X1
X_1354_ _0856_ active_row\[5\]\[10\] _0881_ _0117_ VDD VSS
+ MUX2_X1
X_1355_ _0857_ active_row\[5\]\[11\] _0881_ _0118_ VDD VSS
+ MUX2_X1
X_1356_ _0858_ active_row\[5\]\[12\] _0881_ _0119_ VDD VSS
+ MUX2_X1
X_1357_ _0859_ active_row\[5\]\[13\] _0881_ _0120_ VDD VSS
+ MUX2_X1
X_1358_ _0860_ active_row\[5\]\[1\] _0881_ _0121_ VDD VSS
+ MUX2_X1
X_1359_ _0861_ active_row\[5\]\[2\] _0881_ _0122_ VDD VSS
+ MUX2_X1
X_1360_ _0862_ active_row\[5\]\[3\] _0881_ _0123_ VDD VSS
+ MUX2_X1
X_1361_ _0863_ active_row\[5\]\[4\] _0881_ _0124_ VDD VSS
+ MUX2_X1
X_1362_ _0864_ active_row\[5\]\[5\] _0881_ _0125_ VDD VSS
+ MUX2_X1
X_1363_ _0865_ active_row\[5\]\[6\] _0880_ _0126_ VDD VSS
+ MUX2_X1
X_1364_ _0866_ active_row\[5\]\[7\] _0880_ _0127_ VDD VSS
+ MUX2_X1
X_1365_ _0867_ active_row\[5\]\[8\] _0880_ _0128_ VDD VSS
+ MUX2_X1
X_1366_ _0868_ active_row\[5\]\[9\] _0880_ _0129_ VDD VSS
+ MUX2_X1
X_1367_ _0848_ net115 _0873_ _0882_ VDD VSS NOR3_X4
X_1368_ _0882_ _0883_ VDD VSS BUF_X4
X_1369_ active_row\[6\]\[0\] _0846_ _0883_ _0130_ VDD VSS
+ MUX2_X1
X_1370_ active_row\[6\]\[10\] _0856_ _0883_ _0131_ VDD VSS
+ MUX2_X1
X_1371_ active_row\[6\]\[11\] _0857_ _0883_ _0132_ VDD VSS
+ MUX2_X1
X_1372_ active_row\[6\]\[12\] _0858_ _0883_ _0133_ VDD VSS
+ MUX2_X1
X_1373_ active_row\[6\]\[13\] _0859_ _0883_ _0134_ VDD VSS
+ MUX2_X1
X_1374_ active_row\[6\]\[1\] _0860_ _0883_ _0135_ VDD VSS
+ MUX2_X1
X_1375_ active_row\[6\]\[2\] _0861_ _0883_ _0136_ VDD VSS
+ MUX2_X1
X_1376_ active_row\[6\]\[3\] _0862_ _0883_ _0137_ VDD VSS
+ MUX2_X1
X_1377_ active_row\[6\]\[4\] _0863_ _0883_ _0138_ VDD VSS
+ MUX2_X1
X_1378_ active_row\[6\]\[5\] _0864_ _0883_ _0139_ VDD VSS
+ MUX2_X1
X_1379_ active_row\[6\]\[6\] _0865_ _0882_ _0140_ VDD VSS
+ MUX2_X1
X_1380_ active_row\[6\]\[7\] _0866_ _0882_ _0141_ VDD VSS
+ MUX2_X1
X_1381_ active_row\[6\]\[8\] _0867_ _0882_ _0142_ VDD VSS
+ MUX2_X1
X_1382_ active_row\[6\]\[9\] _0868_ _0882_ _0143_ VDD VSS
+ MUX2_X1
X_1383_ _0848_ _1145_ _0873_ _0884_ VDD VSS NOR3_X4
X_1384_ _0884_ _0885_ VDD VSS BUF_X4
X_1385_ active_row\[7\]\[0\] _0846_ _0885_ _0144_ VDD VSS
+ MUX2_X1
X_1386_ active_row\[7\]\[10\] _0856_ _0885_ _0145_ VDD VSS
+ MUX2_X1
X_1387_ active_row\[7\]\[11\] _0857_ _0885_ _0146_ VDD VSS
+ MUX2_X1
X_1388_ active_row\[7\]\[12\] _0858_ _0885_ _0147_ VDD VSS
+ MUX2_X1
X_1389_ active_row\[7\]\[13\] _0859_ _0885_ _0148_ VDD VSS
+ MUX2_X1
X_1390_ active_row\[7\]\[1\] _0860_ _0885_ _0149_ VDD VSS
+ MUX2_X1
X_1391_ active_row\[7\]\[2\] _0861_ _0885_ _0150_ VDD VSS
+ MUX2_X1
X_1392_ active_row\[7\]\[3\] _0862_ _0885_ _0151_ VDD VSS
+ MUX2_X1
X_1393_ active_row\[7\]\[4\] _0863_ _0885_ _0152_ VDD VSS
+ MUX2_X1
X_1394_ active_row\[7\]\[5\] _0864_ _0885_ _0153_ VDD VSS
+ MUX2_X1
X_1395_ active_row\[7\]\[6\] _0865_ _0884_ _0154_ VDD VSS
+ MUX2_X1
X_1396_ active_row\[7\]\[7\] _0866_ _0884_ _0155_ VDD VSS
+ MUX2_X1
X_1397_ active_row\[7\]\[8\] _0867_ _0884_ _0156_ VDD VSS
+ MUX2_X1
X_1398_ active_row\[7\]\[9\] _0868_ _0884_ _0157_ VDD VSS
+ MUX2_X1
X_1399_ _1188_ _0886_ VDD VSS BUF_X4
X_1400_ _0886_ _0887_ VDD VSS INV_X2
X_1401_ _0887_ _0888_ VDD VSS CLKBUF_X3
X_1402_ net118 _0889_ VDD VSS INV_X1
X_1403_ net130 _0890_ VDD VSS CLKBUF_X2
X_1404_ _0889_ _0890_ net128 _0891_ VDD VSS NAND3_X2
X_1405_ _0888_ _0891_ _0892_ VDD VSS OR2_X1
X_1406_ _0892_ _0893_ VDD VSS CLKBUF_X3
X_1407_ _0893_ _0894_ VDD VSS CLKBUF_X3
X_1408_ net34 net131 _0894_ _0193_ VDD VSS MUX2_X1
X_1409_ net35 net132 _0894_ _0194_ VDD VSS MUX2_X1
X_1410_ net36 net133 _0894_ _0195_ VDD VSS MUX2_X1
X_1411_ net37 net134 _0894_ _0196_ VDD VSS MUX2_X1
X_1412_ net38 net135 _0894_ _0197_ VDD VSS MUX2_X1
X_1413_ net39 net136 _0894_ _0198_ VDD VSS MUX2_X1
X_1414_ net40 net137 _0894_ _0199_ VDD VSS MUX2_X1
X_1415_ net41 net138 _0894_ _0200_ VDD VSS MUX2_X1
X_1416_ net42 net139 _0894_ _0201_ VDD VSS MUX2_X1
X_1417_ net43 net140 _0894_ _0202_ VDD VSS MUX2_X1
X_1418_ _0893_ _0895_ VDD VSS CLKBUF_X3
X_1419_ net44 net141 _0895_ _0203_ VDD VSS MUX2_X1
X_1420_ net45 net142 _0895_ _0204_ VDD VSS MUX2_X1
X_1421_ net46 net143 _0895_ _0205_ VDD VSS MUX2_X1
X_1422_ net47 net144 _0895_ _0206_ VDD VSS MUX2_X1
X_1423_ net48 net145 _0895_ _0207_ VDD VSS MUX2_X1
X_1424_ net49 net146 _0895_ _0208_ VDD VSS MUX2_X1
X_1425_ net50 net147 _0895_ _0209_ VDD VSS MUX2_X1
X_1426_ net51 net148 _0895_ _0210_ VDD VSS MUX2_X1
X_1427_ net52 net149 _0895_ _0211_ VDD VSS MUX2_X1
X_1428_ net53 net150 _0895_ _0212_ VDD VSS MUX2_X1
X_1429_ _0893_ _0896_ VDD VSS CLKBUF_X3
X_1430_ net54 net151 _0896_ _0213_ VDD VSS MUX2_X1
X_1431_ net55 net152 _0896_ _0214_ VDD VSS MUX2_X1
X_1432_ net56 net153 _0896_ _0215_ VDD VSS MUX2_X1
X_1433_ net57 net154 _0896_ _0216_ VDD VSS MUX2_X1
X_1434_ net58 net155 _0896_ _0217_ VDD VSS MUX2_X1
X_1435_ net59 net156 _0896_ _0218_ VDD VSS MUX2_X1
X_1436_ net60 net157 _0896_ _0219_ VDD VSS MUX2_X1
X_1437_ net61 net158 _0896_ _0220_ VDD VSS MUX2_X1
X_1438_ net62 net159 _0896_ _0221_ VDD VSS MUX2_X1
X_1439_ net63 net160 _0896_ _0222_ VDD VSS MUX2_X1
X_1440_ _0893_ _0897_ VDD VSS CLKBUF_X3
X_1441_ net64 net161 _0897_ _0223_ VDD VSS MUX2_X1
X_1442_ net65 net162 _0897_ _0224_ VDD VSS MUX2_X1
X_1443_ net66 net163 _0897_ _0225_ VDD VSS MUX2_X1
X_1444_ net67 net164 _0897_ _0226_ VDD VSS MUX2_X1
X_1445_ net68 net165 _0897_ _0227_ VDD VSS MUX2_X1
X_1446_ net69 net166 _0897_ _0228_ VDD VSS MUX2_X1
X_1447_ net70 net167 _0897_ _0229_ VDD VSS MUX2_X1
X_1448_ net71 net168 _0897_ _0230_ VDD VSS MUX2_X1
X_1449_ net72 net169 _0897_ _0231_ VDD VSS MUX2_X1
X_1450_ net73 net170 _0897_ _0232_ VDD VSS MUX2_X1
X_1451_ _0893_ _0898_ VDD VSS CLKBUF_X3
X_1452_ net74 net171 _0898_ _0233_ VDD VSS MUX2_X1
X_1453_ net75 net172 _0898_ _0234_ VDD VSS MUX2_X1
X_1454_ net76 net173 _0898_ _0235_ VDD VSS MUX2_X1
X_1455_ net77 net174 _0898_ _0236_ VDD VSS MUX2_X1
X_1456_ net78 net175 _0898_ _0237_ VDD VSS MUX2_X1
X_1457_ net79 net176 _0898_ _0238_ VDD VSS MUX2_X1
X_1458_ net80 net177 _0898_ _0239_ VDD VSS MUX2_X1
X_1459_ net81 net178 _0898_ _0240_ VDD VSS MUX2_X1
X_1460_ net82 net179 _0898_ _0241_ VDD VSS MUX2_X1
X_1461_ net83 net180 _0898_ _0242_ VDD VSS MUX2_X1
X_1462_ _0893_ _0899_ VDD VSS CLKBUF_X3
X_1463_ net84 net181 _0899_ _0243_ VDD VSS MUX2_X1
X_1464_ net85 net182 _0899_ _0244_ VDD VSS MUX2_X1
X_1465_ net86 net183 _0899_ _0245_ VDD VSS MUX2_X1
X_1466_ net87 net184 _0899_ _0246_ VDD VSS MUX2_X1
X_1467_ net88 net185 _0899_ _0247_ VDD VSS MUX2_X1
X_1468_ net89 net186 _0899_ _0248_ VDD VSS MUX2_X1
X_1469_ net90 net187 _0899_ _0249_ VDD VSS MUX2_X1
X_1470_ net91 net188 _0899_ _0250_ VDD VSS MUX2_X1
X_1471_ net92 net189 _0899_ _0251_ VDD VSS MUX2_X1
X_1472_ net93 net190 _0899_ _0252_ VDD VSS MUX2_X1
X_1473_ net94 net191 _0893_ _0253_ VDD VSS MUX2_X1
X_1474_ net95 net192 _0893_ _0254_ VDD VSS MUX2_X1
X_1475_ net96 net193 _0893_ _0255_ VDD VSS MUX2_X1
X_1476_ net97 net194 _0893_ _0256_ VDD VSS MUX2_X1
X_1477_ _0824_ _0828_ init_state\[6\] _0900_ VDD VSS OR3_X1
X_1478_ _0805_ _0817_ _0900_ _0901_ VDD VSS AOI21_X2
X_1479_ _1186_ _0902_ VDD VSS BUF_X4
X_1480_ _0902_ _0903_ VDD VSS INV_X2
X_1481_ cmd_valid _0904_ VDD VSS CLKBUF_X2
X_1482_ _0904_ _0905_ VDD VSS INV_X1
X_1483_ _0905_ _0810_ _0816_ _0906_ VDD VSS NOR3_X4
X_1484_ _0903_ _1162_ _0906_ _0907_ VDD VSS AOI21_X4
X_1485_ _0901_ _0907_ _0908_ VDD VSS NOR2_X4
X_1486_ _0804_ _0902_ _0886_ _0850_ _0909_ VDD VSS NOR4_X4
X_1487_ _0851_ _0817_ _0910_ VDD VSS NOR2_X4
X_1488_ burst_counter\[3\] _0911_ VDD VSS INV_X1
X_1489_ burst_counter\[2\] _0912_ VDD VSS INV_X1
X_1490_ _0911_ _0912_ _1157_ _0913_ VDD VSS NAND3_X4
X_1491_ _0913_ _0914_ VDD VSS INV_X2
X_1492_ _0887_ _0817_ _0914_ _0915_ VDD VSS AOI21_X4
X_1493_ _0909_ _0910_ _0915_ _0916_ VDD VSS NOR3_X4
X_1494_ _0833_ _0908_ _0916_ _0917_ VDD VSS AOI21_X4
X_1495_ _0846_ _0917_ _0918_ VDD VSS NAND2_X1
X_1496_ _0908_ _0916_ _0919_ VDD VSS NAND2_X2
X_1497_ _0919_ _0920_ VDD VSS CLKBUF_X3
X_1498_ _0833_ _0920_ _0921_ VDD VSS NOR2_X1
X_1499_ _0804_ _0922_ VDD VSS BUF_X4
X_1500_ _0922_ _0923_ VDD VSS CLKBUF_X3
X_1501_ _0923_ _0824_ _0828_ _0924_ VDD VSS OAI21_X1
X_1502_ _0921_ _0924_ _0925_ VDD VSS NAND2_X1
X_1503_ _0806_ _0888_ _0926_ VDD VSS NAND2_X1
X_1504_ cmd_addr[12] _0927_ VDD VSS BUF_X4
X_1505_ _0927_ _0928_ VDD VSS BUF_X8
X_1506_ _0928_ _0929_ VDD VSS BUF_X4
X_1507_ _0929_ _0930_ VDD VSS BUF_X4
X_1508_ _0028_ _0030_ _0930_ _0931_ VDD VSS MUX2_X1
X_1509_ _0029_ _0031_ _0930_ _0932_ VDD VSS MUX2_X1
X_1510_ cmd_addr[11] _0933_ VDD VSS BUF_X4
X_1511_ _0933_ _0934_ VDD VSS BUF_X4
X_1512_ _0931_ _0932_ _0934_ _0935_ VDD VSS MUX2_X1
X_1513_ _0024_ _0026_ _0930_ _0936_ VDD VSS MUX2_X1
X_1514_ _0025_ _0027_ _0930_ _0937_ VDD VSS MUX2_X1
X_1515_ _0936_ _0937_ _0934_ _0938_ VDD VSS MUX2_X1
X_1516_ net2 _0291_ VDD VSS BUF_X4
X_1517_ _0291_ _0292_ VDD VSS INV_X2
X_1518_ _0292_ _0293_ VDD VSS BUF_X4
X_1519_ _0935_ _0938_ _0293_ _0294_ VDD VSS MUX2_X1
X_1520_ _0291_ _0295_ VDD VSS CLKBUF_X3
X_1521_ _0933_ _0296_ VDD VSS INV_X1
X_1522_ _0296_ _0297_ VDD VSS CLKBUF_X3
X_1523_ active_row\[1\]\[11\] active_row\[3\]\[11\] _0929_
+ _0298_ VDD VSS MUX2_X1
X_1524_ _0295_ _0297_ _0298_ _0299_ VDD VSS NOR3_X1
X_1525_ net2 _0933_ _0300_ VDD VSS OR2_X1
X_1526_ _0300_ _0301_ VDD VSS CLKBUF_X3
X_1527_ active_row\[0\]\[11\] active_row\[2\]\[11\] _0929_
+ _0302_ VDD VSS MUX2_X1
X_1528_ _0301_ _0302_ _0303_ VDD VSS NOR2_X1
X_1529_ _0291_ _0933_ _0304_ VDD VSS NAND2_X4
X_1530_ active_row\[5\]\[11\] active_row\[7\]\[11\] _0929_
+ _0305_ VDD VSS MUX2_X1
X_1531_ _0304_ _0305_ _0306_ VDD VSS NOR2_X1
X_1532_ _0927_ _0307_ VDD VSS BUF_X4
X_1533_ active_row\[4\]\[11\] active_row\[6\]\[11\] _0307_
+ _0308_ VDD VSS MUX2_X1
X_1534_ _0292_ _0934_ _0308_ _0309_ VDD VSS NOR3_X1
X_1535_ _0299_ _0303_ _0306_ _0309_ _0310_ VDD VSS NOR4_X2
X_1536_ net15 _0310_ _0311_ VDD VSS XOR2_X2
X_1537_ _0933_ _0312_ VDD VSS CLKBUF_X3
X_1538_ active_row\[6\]\[5\] active_row\[7\]\[5\] _0312_ _0313_
+ VDD VSS MUX2_X1
X_1539_ _0295_ _0930_ _0313_ _0314_ VDD VSS NAND3_X1
X_1540_ _0930_ _0315_ VDD VSS INV_X1
X_1541_ active_row\[4\]\[5\] active_row\[5\]\[5\] _0933_ _0316_
+ VDD VSS MUX2_X1
X_1542_ _0295_ _0315_ _0316_ _0317_ VDD VSS NAND3_X1
X_1543_ _0928_ _0318_ VDD VSS BUF_X4
X_1544_ active_row\[1\]\[5\] active_row\[3\]\[5\] _0318_ _0319_
+ VDD VSS MUX2_X1
X_1545_ _0293_ _0934_ _0319_ _0320_ VDD VSS NAND3_X1
X_1546_ _0291_ _0312_ _0321_ VDD VSS NOR2_X1
X_1547_ active_row\[0\]\[5\] active_row\[2\]\[5\] _0318_ _0322_
+ VDD VSS MUX2_X1
X_1548_ _0321_ _0322_ _0323_ VDD VSS NAND2_X1
X_1549_ _0314_ _0317_ _0320_ _0323_ _0324_ VDD VSS NAND4_X2
X_1550_ net8 _0324_ _0325_ VDD VSS XOR2_X2
X_1551_ active_row\[1\]\[0\] active_row\[3\]\[0\] _0307_ _0326_
+ VDD VSS MUX2_X1
X_1552_ _0295_ _0297_ _0326_ _0327_ VDD VSS NOR3_X1
X_1553_ active_row\[0\]\[0\] active_row\[2\]\[0\] _0929_ _0328_
+ VDD VSS MUX2_X1
X_1554_ _0301_ _0328_ _0329_ VDD VSS NOR2_X1
X_1555_ active_row\[5\]\[0\] active_row\[7\]\[0\] _0307_ _0330_
+ VDD VSS MUX2_X1
X_1556_ _0304_ _0330_ _0331_ VDD VSS NOR2_X1
X_1557_ _0927_ _0332_ VDD VSS BUF_X4
X_1558_ active_row\[4\]\[0\] active_row\[6\]\[0\] _0332_ _0333_
+ VDD VSS MUX2_X1
X_1559_ _0292_ _0312_ _0333_ _0334_ VDD VSS NOR3_X1
X_1560_ _0327_ _0329_ _0331_ _0334_ _0335_ VDD VSS NOR4_X2
X_1561_ net3 _0335_ _0336_ VDD VSS XOR2_X2
X_1562_ _0294_ _0311_ _0325_ _0336_ _0337_ VDD VSS NOR4_X2
X_1563_ active_row\[4\]\[13\] active_row\[5\]\[13\] _0312_
+ _0338_ VDD VSS MUX2_X1
X_1564_ _0295_ _0315_ _0338_ _0339_ VDD VSS NAND3_X1
X_1565_ active_row\[6\]\[13\] active_row\[7\]\[13\] _0312_
+ _0340_ VDD VSS MUX2_X1
X_1566_ _0295_ _0930_ _0340_ _0341_ VDD VSS NAND3_X1
X_1567_ active_row\[1\]\[13\] active_row\[3\]\[13\] _0318_
+ _0342_ VDD VSS MUX2_X1
X_1568_ _0293_ _0934_ _0342_ _0343_ VDD VSS NAND3_X1
X_1569_ active_row\[0\]\[13\] active_row\[2\]\[13\] _0930_
+ _0344_ VDD VSS MUX2_X1
X_1570_ _0321_ _0344_ _0345_ VDD VSS NAND2_X1
X_1571_ _0339_ _0341_ _0343_ _0345_ _0346_ VDD VSS NAND4_X2
X_1572_ net17 _0346_ _0347_ VDD VSS XOR2_X2
X_1573_ active_row\[6\]\[12\] active_row\[7\]\[12\] _0312_
+ _0348_ VDD VSS MUX2_X1
X_1574_ _0295_ _0930_ _0348_ _0349_ VDD VSS NAND3_X1
X_1575_ active_row\[4\]\[12\] active_row\[5\]\[12\] _0312_
+ _0350_ VDD VSS MUX2_X1
X_1576_ _0295_ _0315_ _0350_ _0351_ VDD VSS NAND3_X1
X_1577_ active_row\[1\]\[12\] active_row\[3\]\[12\] _0318_
+ _0352_ VDD VSS MUX2_X1
X_1578_ _0293_ _0934_ _0352_ _0353_ VDD VSS NAND3_X1
X_1579_ active_row\[0\]\[12\] active_row\[2\]\[12\] _0318_
+ _0354_ VDD VSS MUX2_X1
X_1580_ _0321_ _0354_ _0355_ VDD VSS NAND2_X1
X_1581_ _0349_ _0351_ _0353_ _0355_ _0356_ VDD VSS NAND4_X2
X_1582_ net16 _0356_ _0357_ VDD VSS XOR2_X2
X_1583_ active_row\[1\]\[6\] active_row\[3\]\[6\] _0318_ _0358_
+ VDD VSS MUX2_X1
X_1584_ _0295_ _0297_ _0358_ _0359_ VDD VSS NOR3_X1
X_1585_ active_row\[0\]\[6\] active_row\[2\]\[6\] _0318_ _0360_
+ VDD VSS MUX2_X1
X_1586_ _0301_ _0360_ _0361_ VDD VSS NOR2_X1
X_1587_ active_row\[5\]\[6\] active_row\[7\]\[6\] _0929_ _0362_
+ VDD VSS MUX2_X1
X_1588_ _0304_ _0362_ _0363_ VDD VSS NOR2_X1
X_1589_ active_row\[4\]\[6\] active_row\[6\]\[6\] _0307_ _0364_
+ VDD VSS MUX2_X1
X_1590_ _0293_ _0934_ _0364_ _0365_ VDD VSS NOR3_X1
X_1591_ _0359_ _0361_ _0363_ _0365_ _0366_ VDD VSS NOR4_X2
X_1592_ net10 _0366_ _0367_ VDD VSS XOR2_X2
X_1593_ _0347_ _0357_ _0367_ _0368_ VDD VSS NOR3_X2
X_1594_ active_row\[5\]\[2\] active_row\[7\]\[2\] _0928_ _0369_
+ VDD VSS MUX2_X1
X_1595_ active_row\[4\]\[2\] active_row\[6\]\[2\] _0928_ _0370_
+ VDD VSS MUX2_X1
X_1596_ _0369_ _0370_ _0296_ _0371_ VDD VSS MUX2_X1
X_1597_ active_row\[1\]\[2\] active_row\[3\]\[2\] _0332_ _0372_
+ VDD VSS MUX2_X1
X_1598_ active_row\[0\]\[2\] active_row\[2\]\[2\] _0332_ _0373_
+ VDD VSS MUX2_X1
X_1599_ _0372_ _0373_ _0297_ _0374_ VDD VSS MUX2_X1
X_1600_ _0371_ _0374_ _0293_ _0375_ VDD VSS MUX2_X1
X_1601_ net5 _0375_ _0376_ VDD VSS XOR2_X2
X_1602_ active_row\[0\]\[10\] active_row\[2\]\[10\] _0929_
+ _0377_ VDD VSS MUX2_X1
X_1603_ _0301_ _0377_ _0378_ VDD VSS NOR2_X1
X_1604_ active_row\[1\]\[10\] active_row\[3\]\[10\] _0332_
+ _0379_ VDD VSS MUX2_X1
X_1605_ _0291_ _0297_ _0379_ _0380_ VDD VSS NOR3_X1
X_1606_ active_row\[4\]\[10\] active_row\[6\]\[10\] _0332_
+ _0381_ VDD VSS MUX2_X1
X_1607_ _0292_ _0312_ _0381_ _0382_ VDD VSS NOR3_X1
X_1608_ active_row\[5\]\[10\] active_row\[7\]\[10\] _0307_
+ _0383_ VDD VSS MUX2_X1
X_1609_ _0304_ _0383_ _0384_ VDD VSS NOR2_X1
X_1610_ _0378_ _0380_ _0382_ _0384_ _0385_ VDD VSS NOR4_X2
X_1611_ net14 _0385_ _0386_ VDD VSS XOR2_X2
X_1612_ active_row\[0\]\[7\] active_row\[2\]\[7\] _0929_ _0387_
+ VDD VSS MUX2_X1
X_1613_ _0301_ _0387_ _0388_ VDD VSS NOR2_X1
X_1614_ active_row\[1\]\[7\] active_row\[3\]\[7\] _0332_ _0389_
+ VDD VSS MUX2_X1
X_1615_ _0291_ _0297_ _0389_ _0390_ VDD VSS NOR3_X1
X_1616_ active_row\[4\]\[7\] active_row\[6\]\[7\] _0928_ _0391_
+ VDD VSS MUX2_X1
X_1617_ _0292_ _0312_ _0391_ _0392_ VDD VSS NOR3_X1
X_1618_ active_row\[5\]\[7\] active_row\[7\]\[7\] _0332_ _0393_
+ VDD VSS MUX2_X1
X_1619_ _0304_ _0393_ _0394_ VDD VSS NOR2_X1
X_1620_ _0388_ _0390_ _0392_ _0394_ _0395_ VDD VSS NOR4_X2
X_1621_ net11 _0395_ _0396_ VDD VSS XOR2_X2
X_1622_ active_row\[0\]\[1\] active_row\[2\]\[1\] _0929_ _0397_
+ VDD VSS MUX2_X1
X_1623_ _0301_ _0397_ _0398_ VDD VSS NOR2_X1
X_1624_ active_row\[1\]\[1\] active_row\[3\]\[1\] _0332_ _0399_
+ VDD VSS MUX2_X1
X_1625_ _0291_ _0297_ _0399_ _0400_ VDD VSS NOR3_X1
X_1626_ active_row\[4\]\[1\] active_row\[6\]\[1\] _0928_ _0401_
+ VDD VSS MUX2_X1
X_1627_ _0292_ _0312_ _0401_ _0402_ VDD VSS NOR3_X1
X_1628_ active_row\[5\]\[1\] active_row\[7\]\[1\] _0332_ _0403_
+ VDD VSS MUX2_X1
X_1629_ _0304_ _0403_ _0404_ VDD VSS NOR2_X1
X_1630_ _0398_ _0400_ _0402_ _0404_ _0405_ VDD VSS NOR4_X2
X_1631_ net4 _0405_ _0406_ VDD VSS XOR2_X2
X_1632_ _0376_ _0386_ _0396_ _0406_ _0407_ VDD VSS NOR4_X4
X_1633_ active_row\[0\]\[9\] active_row\[2\]\[9\] _0318_ _0408_
+ VDD VSS MUX2_X1
X_1634_ _0301_ _0408_ _0409_ VDD VSS NOR2_X1
X_1635_ active_row\[1\]\[9\] active_row\[3\]\[9\] _0307_ _0410_
+ VDD VSS MUX2_X1
X_1636_ _0291_ _0297_ _0410_ _0411_ VDD VSS NOR3_X1
X_1637_ active_row\[4\]\[9\] active_row\[6\]\[9\] _0307_ _0412_
+ VDD VSS MUX2_X1
X_1638_ _0293_ _0934_ _0412_ _0413_ VDD VSS NOR3_X1
X_1639_ active_row\[5\]\[9\] active_row\[7\]\[9\] _0929_ _0414_
+ VDD VSS MUX2_X1
X_1640_ _0304_ _0414_ _0415_ VDD VSS NOR2_X1
X_1641_ _0409_ _0411_ _0413_ _0415_ _0416_ VDD VSS NOR4_X2
X_1642_ net13 _0416_ _0417_ VDD VSS XOR2_X2
X_1643_ active_row\[4\]\[4\] active_row\[6\]\[4\] _0307_ _0418_
+ VDD VSS MUX2_X1
X_1644_ _0293_ _0934_ _0418_ _0419_ VDD VSS NOR3_X1
X_1645_ active_row\[5\]\[4\] active_row\[7\]\[4\] _0307_ _0420_
+ VDD VSS MUX2_X1
X_1646_ _0304_ _0420_ _0421_ VDD VSS NOR2_X1
X_1647_ active_row\[0\]\[4\] active_row\[2\]\[4\] _0307_ _0422_
+ VDD VSS MUX2_X1
X_1648_ _0301_ _0422_ _0423_ VDD VSS NOR2_X1
X_1649_ active_row\[1\]\[4\] active_row\[3\]\[4\] _0928_ _0424_
+ VDD VSS MUX2_X1
X_1650_ _0291_ _0297_ _0424_ _0425_ VDD VSS NOR3_X1
X_1651_ _0419_ _0421_ _0423_ _0425_ _0426_ VDD VSS NOR4_X2
X_1652_ net7 _0426_ _0427_ VDD VSS XOR2_X2
X_1653_ active_row\[4\]\[8\] active_row\[6\]\[8\] _0927_ _0428_
+ VDD VSS MUX2_X1
X_1654_ active_row\[5\]\[8\] active_row\[7\]\[8\] _0928_ _0429_
+ VDD VSS MUX2_X1
X_1655_ _0428_ _0429_ _0933_ _0430_ VDD VSS MUX2_X1
X_1656_ active_row\[0\]\[8\] active_row\[2\]\[8\] _0928_ _0431_
+ VDD VSS MUX2_X1