* CDL Netlist generated by OpenROAD

*.BUSDELIMITER [

.SUBCKT toggle_register clk data_out[0] data_out[1] data_out[2]
+ data_out[3] data_out[4] data_out[5] data_out[6] data_out[7]
+ enable load_data[0] load_data[1] load_data[2] load_data[3]
+ load_data[4] load_data[5] load_data[6] load_data[7] load_en
+ rst_n toggle_mask[0] toggle_mask[1] toggle_mask[2] toggle_mask[3]
+ toggle_mask[4] toggle_mask[5] toggle_mask[6] toggle_mask[7]
X_24_ net2 net12 _08_ VDD VSS gf180mcu_fd_sc_mcu9t5v0__nand2_2
X_25_ net20 _08_ _09_ VDD VSS gf180mcu_fd_sc_mcu9t5v0__xnor2_2
X_26_ _09_ net3 net11 _00_ VDD VSS gf180mcu_fd_sc_mcu9t5v0__mux2_2
X_27_ net2 net13 _10_ VDD VSS gf180mcu_fd_sc_mcu9t5v0__nand2_2
X_28_ net21 _10_ _11_ VDD VSS gf180mcu_fd_sc_mcu9t5v0__xnor2_2
X_29_ _11_ net4 net11 _01_ VDD VSS gf180mcu_fd_sc_mcu9t5v0__mux2_2
X_30_ net2 net14 _12_ VDD VSS gf180mcu_fd_sc_mcu9t5v0__nand2_2
X_31_ net22 _12_ _13_ VDD VSS gf180mcu_fd_sc_mcu9t5v0__xnor2_2
X_32_ _13_ net5 net11 _02_ VDD VSS gf180mcu_fd_sc_mcu9t5v0__mux2_2
X_33_ net2 net15 _14_ VDD VSS gf180mcu_fd_sc_mcu9t5v0__nand2_2
X_34_ net23 _14_ _15_ VDD VSS gf180mcu_fd_sc_mcu9t5v0__xnor2_2
X_35_ _15_ net6 net11 _03_ VDD VSS gf180mcu_fd_sc_mcu9t5v0__mux2_2
X_36_ net2 net16 _16_ VDD VSS gf180mcu_fd_sc_mcu9t5v0__nand2_2
X_37_ net24 _16_ _17_ VDD VSS gf180mcu_fd_sc_mcu9t5v0__xnor2_2
X_38_ _17_ net7 net11 _04_ VDD VSS gf180mcu_fd_sc_mcu9t5v0__mux2_2
X_39_ net2 net17 _18_ VDD VSS gf180mcu_fd_sc_mcu9t5v0__nand2_2
X_40_ net25 _18_ _19_ VDD VSS gf180mcu_fd_sc_mcu9t5v0__xnor2_2
X_41_ _19_ net8 net11 _05_ VDD VSS gf180mcu_fd_sc_mcu9t5v0__mux2_2
X_42_ net2 net18 _20_ VDD VSS gf180mcu_fd_sc_mcu9t5v0__nand2_2
X_43_ net26 _20_ _21_ VDD VSS gf180mcu_fd_sc_mcu9t5v0__xnor2_2
X_44_ _21_ net9 net11 _06_ VDD VSS gf180mcu_fd_sc_mcu9t5v0__mux2_2
X_45_ net2 net19 _22_ VDD VSS gf180mcu_fd_sc_mcu9t5v0__nand2_2
X_46_ net27 _22_ _23_ VDD VSS gf180mcu_fd_sc_mcu9t5v0__xnor2_2
X_47_ _23_ net10 net11 _07_ VDD VSS gf180mcu_fd_sc_mcu9t5v0__mux2_2
Xdata_out\[0\]$_DFFE_PN0P_ _00_ net1 clknet_1_1__leaf_clk
+ net20 VDD VSS gf180mcu_fd_sc_mcu9t5v0__dffrnq_2
Xdata_out\[1\]$_DFFE_PN0P_ _01_ net1 clknet_1_0__leaf_clk
+ net21 VDD VSS gf180mcu_fd_sc_mcu9t5v0__dffrnq_2
Xdata_out\[2\]$_DFFE_PN0P_ _02_ net1 clknet_1_0__leaf_clk
+ net22 VDD VSS gf180mcu_fd_sc_mcu9t5v0__dffrnq_2
Xdata_out\[3\]$_DFFE_PN0P_ _03_ net1 clknet_1_1__leaf_clk
+ net23 VDD VSS gf180mcu_fd_sc_mcu9t5v0__dffrnq_2
Xdata_out\[4\]$_DFFE_PN0P_ _04_ net1 clknet_1_1__leaf_clk
+ net24 VDD VSS gf180mcu_fd_sc_mcu9t5v0__dffrnq_2
Xdata_out\[5\]$_DFFE_PN0P_ _05_ net1 clknet_1_0__leaf_clk
+ net25 VDD VSS gf180mcu_fd_sc_mcu9t5v0__dffrnq_2
Xdata_out\[6\]$_DFFE_PN0P_ _06_ net1 clknet_1_1__leaf_clk
+ net26 VDD VSS gf180mcu_fd_sc_mcu9t5v0__dffrnq_2
Xdata_out\[7\]$_DFFE_PN0P_ _07_ net1 clknet_1_0__leaf_clk
+ net27 VDD VSS gf180mcu_fd_sc_mcu9t5v0__dffrnq_2
Xhold1 net28 net1 VDD VSS gf180mcu_fd_sc_mcu9t5v0__clkbuf_8
XPHY_EDGE_ROW_0_Right_0 VDD VSS gf180mcu_fd_sc_mcu9t5v0__endcap
XPHY_EDGE_ROW_1_Right_1 VDD VSS gf180mcu_fd_sc_mcu9t5v0__endcap
XPHY_EDGE_ROW_2_Right_2 VDD VSS gf180mcu_fd_sc_mcu9t5v0__endcap
XPHY_EDGE_ROW_3_Right_3 VDD VSS gf180mcu_fd_sc_mcu9t5v0__endcap
XPHY_EDGE_ROW_4_Right_4 VDD VSS gf180mcu_fd_sc_mcu9t5v0__endcap
XPHY_EDGE_ROW_5_Right_5 VDD VSS gf180mcu_fd_sc_mcu9t5v0__endcap
XPHY_EDGE_ROW_6_Right_6 VDD VSS gf180mcu_fd_sc_mcu9t5v0__endcap
XPHY_EDGE_ROW_7_Right_7 VDD VSS gf180mcu_fd_sc_mcu9t5v0__endcap
XPHY_EDGE_ROW_8_Right_8 VDD VSS gf180mcu_fd_sc_mcu9t5v0__endcap
XPHY_EDGE_ROW_9_Right_9 VDD VSS gf180mcu_fd_sc_mcu9t5v0__endcap
XPHY_EDGE_ROW_10_Right_10 VDD VSS gf180mcu_fd_sc_mcu9t5v0__endcap
XPHY_EDGE_ROW_11_Right_11 VDD VSS gf180mcu_fd_sc_mcu9t5v0__endcap
XPHY_EDGE_ROW_12_Right_12 VDD VSS gf180mcu_fd_sc_mcu9t5v0__endcap
XPHY_EDGE_ROW_13_Right_13 VDD VSS gf180mcu_fd_sc_mcu9t5v0__endcap
XPHY_EDGE_ROW_14_Right_14 VDD VSS gf180mcu_fd_sc_mcu9t5v0__endcap
XPHY_EDGE_ROW_15_Right_15 VDD VSS gf180mcu_fd_sc_mcu9t5v0__endcap
XPHY_EDGE_ROW_16_Right_16 VDD VSS gf180mcu_fd_sc_mcu9t5v0__endcap
XPHY_EDGE_ROW_17_Right_17 VDD VSS gf180mcu_fd_sc_mcu9t5v0__endcap
XPHY_EDGE_ROW_18_Right_18 VDD VSS gf180mcu_fd_sc_mcu9t5v0__endcap
XPHY_EDGE_ROW_19_Right_19 VDD VSS gf180mcu_fd_sc_mcu9t5v0__endcap
XPHY_EDGE_ROW_20_Right_20 VDD VSS gf180mcu_fd_sc_mcu9t5v0__endcap
XPHY_EDGE_ROW_21_Right_21 VDD VSS gf180mcu_fd_sc_mcu9t5v0__endcap
XPHY_EDGE_ROW_22_Right_22 VDD VSS gf180mcu_fd_sc_mcu9t5v0__endcap
XPHY_EDGE_ROW_23_Right_23 VDD VSS gf180mcu_fd_sc_mcu9t5v0__endcap
XPHY_EDGE_ROW_24_Right_24 VDD VSS gf180mcu_fd_sc_mcu9t5v0__endcap
XPHY_EDGE_ROW_25_Right_25 VDD VSS gf180mcu_fd_sc_mcu9t5v0__endcap
XPHY_EDGE_ROW_26_Right_26 VDD VSS gf180mcu_fd_sc_mcu9t5v0__endcap
XPHY_EDGE_ROW_27_Right_27 VDD VSS gf180mcu_fd_sc_mcu9t5v0__endcap
XPHY_EDGE_ROW_28_Right_28 VDD VSS gf180mcu_fd_sc_mcu9t5v0__endcap
XPHY_EDGE_ROW_29_Right_29 VDD VSS gf180mcu_fd_sc_mcu9t5v0__endcap
XPHY_EDGE_ROW_30_Right_30 VDD VSS gf180mcu_fd_sc_mcu9t5v0__endcap
XPHY_EDGE_ROW_31_Right_31 VDD VSS gf180mcu_fd_sc_mcu9t5v0__endcap
XPHY_EDGE_ROW_32_Right_32 VDD VSS gf180mcu_fd_sc_mcu9t5v0__endcap
XPHY_EDGE_ROW_33_Right_33 VDD VSS gf180mcu_fd_sc_mcu9t5v0__endcap
XPHY_EDGE_ROW_34_Right_34 VDD VSS gf180mcu_fd_sc_mcu9t5v0__endcap
XPHY_EDGE_ROW_35_Right_35 VDD VSS gf180mcu_fd_sc_mcu9t5v0__endcap
XPHY_EDGE_ROW_36_Right_36 VDD VSS gf180mcu_fd_sc_mcu9t5v0__endcap
XPHY_EDGE_ROW_37_Right_37 VDD VSS gf180mcu_fd_sc_mcu9t5v0__endcap
XPHY_EDGE_ROW_38_Right_38 VDD VSS gf180mcu_fd_sc_mcu9t5v0__endcap
XPHY_EDGE_ROW_39_Right_39 VDD VSS gf180mcu_fd_sc_mcu9t5v0__endcap
XPHY_EDGE_ROW_40_Right_40 VDD VSS gf180mcu_fd_sc_mcu9t5v0__endcap
XPHY_EDGE_ROW_41_Right_41 VDD VSS gf180mcu_fd_sc_mcu9t5v0__endcap
XPHY_EDGE_ROW_42_Right_42 VDD VSS gf180mcu_fd_sc_mcu9t5v0__endcap
XPHY_EDGE_ROW_43_Right_43 VDD VSS gf180mcu_fd_sc_mcu9t5v0__endcap
XPHY_EDGE_ROW_44_Right_44 VDD VSS gf180mcu_fd_sc_mcu9t5v0__endcap
XPHY_EDGE_ROW_45_Right_45 VDD VSS gf180mcu_fd_sc_mcu9t5v0__endcap
XPHY_EDGE_ROW_46_Right_46 VDD VSS gf180mcu_fd_sc_mcu9t5v0__endcap
XPHY_EDGE_ROW_47_Right_47 VDD VSS gf180mcu_fd_sc_mcu9t5v0__endcap
XPHY_EDGE_ROW_48_Right_48 VDD VSS gf180mcu_fd_sc_mcu9t5v0__endcap
XPHY_EDGE_ROW_49_Right_49 VDD VSS gf180mcu_fd_sc_mcu9t5v0__endcap
XPHY_EDGE_ROW_50_Right_50 VDD VSS gf180mcu_fd_sc_mcu9t5v0__endcap
XPHY_EDGE_ROW_51_Right_51 VDD VSS gf180mcu_fd_sc_mcu9t5v0__endcap
XPHY_EDGE_ROW_52_Right_52 VDD VSS gf180mcu_fd_sc_mcu9t5v0__endcap
XPHY_EDGE_ROW_53_Right_53 VDD VSS gf180mcu_fd_sc_mcu9t5v0__endcap
XPHY_EDGE_ROW_54_Right_54 VDD VSS gf180mcu_fd_sc_mcu9t5v0__endcap
XPHY_EDGE_ROW_55_Right_55 VDD VSS gf180mcu_fd_sc_mcu9t5v0__endcap
XPHY_EDGE_ROW_56_Right_56 VDD VSS gf180mcu_fd_sc_mcu9t5v0__endcap
XPHY_EDGE_ROW_57_Right_57 VDD VSS gf180mcu_fd_sc_mcu9t5v0__endcap
XPHY_EDGE_ROW_58_Right_58 VDD VSS gf180mcu_fd_sc_mcu9t5v0__endcap
XPHY_EDGE_ROW_59_Right_59 VDD VSS gf180mcu_fd_sc_mcu9t5v0__endcap
XPHY_EDGE_ROW_60_Right_60 VDD VSS gf180mcu_fd_sc_mcu9t5v0__endcap
XPHY_EDGE_ROW_61_Right_61 VDD VSS gf180mcu_fd_sc_mcu9t5v0__endcap
XPHY_EDGE_ROW_62_Right_62 VDD VSS gf180mcu_fd_sc_mcu9t5v0__endcap
XPHY_EDGE_ROW_63_Right_63 VDD VSS gf180mcu_fd_sc_mcu9t5v0__endcap
XPHY_EDGE_ROW_64_Right_64 VDD VSS gf180mcu_fd_sc_mcu9t5v0__endcap
XPHY_EDGE_ROW_65_Right_65 VDD VSS gf180mcu_fd_sc_mcu9t5v0__endcap
XPHY_EDGE_ROW_66_Right_66 VDD VSS gf180mcu_fd_sc_mcu9t5v0__endcap
XPHY_EDGE_ROW_67_Right_67 VDD VSS gf180mcu_fd_sc_mcu9t5v0__endcap
XPHY_EDGE_ROW_68_Right_68 VDD VSS gf180mcu_fd_sc_mcu9t5v0__endcap
XPHY_EDGE_ROW_69_Right_69 VDD VSS gf180mcu_fd_sc_mcu9t5v0__endcap
XPHY_EDGE_ROW_70_Right_70 VDD VSS gf180mcu_fd_sc_mcu9t5v0__endcap
XPHY_EDGE_ROW_71_Right_71 VDD VSS gf180mcu_fd_sc_mcu9t5v0__endcap
XPHY_EDGE_ROW_72_Right_72 VDD VSS gf180mcu_fd_sc_mcu9t5v0__endcap
XPHY_EDGE_ROW_73_Right_73 VDD VSS gf180mcu_fd_sc_mcu9t5v0__endcap
XPHY_EDGE_ROW_74_Right_74 VDD VSS gf180mcu_fd_sc_mcu9t5v0__endcap
XPHY_EDGE_ROW_75_Right_75 VDD VSS gf180mcu_fd_sc_mcu9t5v0__endcap
XPHY_EDGE_ROW_76_Right_76 VDD VSS gf180mcu_fd_sc_mcu9t5v0__endcap
XPHY_EDGE_ROW_77_Right_77 VDD VSS gf180mcu_fd_sc_mcu9t5v0__endcap
XPHY_EDGE_ROW_78_Right_78 VDD VSS gf180mcu_fd_sc_mcu9t5v0__endcap
XPHY_EDGE_ROW_79_Right_79 VDD VSS gf180mcu_fd_sc_mcu9t5v0__endcap
XPHY_EDGE_ROW_80_Right_80 VDD VSS gf180mcu_fd_sc_mcu9t5v0__endcap
XPHY_EDGE_ROW_81_Right_81 VDD VSS gf180mcu_fd_sc_mcu9t5v0__endcap
XPHY_EDGE_ROW_82_Right_82 VDD VSS gf180mcu_fd_sc_mcu9t5v0__endcap
XPHY_EDGE_ROW_83_Right_83 VDD VSS gf180mcu_fd_sc_mcu9t5v0__endcap
XPHY_EDGE_ROW_84_Right_84 VDD VSS gf180mcu_fd_sc_mcu9t5v0__endcap
XPHY_EDGE_ROW_85_Right_85 VDD VSS gf180mcu_fd_sc_mcu9t5v0__endcap
XPHY_EDGE_ROW_86_Right_86 VDD VSS gf180mcu_fd_sc_mcu9t5v0__endcap
XPHY_EDGE_ROW_87_Right_87 VDD VSS gf180mcu_fd_sc_mcu9t5v0__endcap
XPHY_EDGE_ROW_88_Right_88 VDD VSS gf180mcu_fd_sc_mcu9t5v0__endcap
XPHY_EDGE_ROW_89_Right_89 VDD VSS gf180mcu_fd_sc_mcu9t5v0__endcap
XPHY_EDGE_ROW_90_Right_90 VDD VSS gf180mcu_fd_sc_mcu9t5v0__endcap
XPHY_EDGE_ROW_91_Right_91 VDD VSS gf180mcu_fd_sc_mcu9t5v0__endcap
XPHY_EDGE_ROW_92_Right_92 VDD VSS gf180mcu_fd_sc_mcu9t5v0__endcap
XPHY_EDGE_ROW_93_Right_93 VDD VSS gf180mcu_fd_sc_mcu9t5v0__endcap
XPHY_EDGE_ROW_94_Right_94 VDD VSS gf180mcu_fd_sc_mcu9t5v0__endcap
XPHY_EDGE_ROW_95_Right_95 VDD VSS gf180mcu_fd_sc_mcu9t5v0__endcap
XPHY_EDGE_ROW_96_Right_96 VDD VSS gf180mcu_fd_sc_mcu9t5v0__endcap
XPHY_EDGE_ROW_97_Right_97 VDD VSS gf180mcu_fd_sc_mcu9t5v0__endcap
XPHY_EDGE_ROW_98_Right_98 VDD VSS gf180mcu_fd_sc_mcu9t5v0__endcap
XPHY_EDGE_ROW_99_Right_99 VDD VSS gf180mcu_fd_sc_mcu9t5v0__endcap
XPHY_EDGE_ROW_100_Right_100 VDD VSS gf180mcu_fd_sc_mcu9t5v0__endcap
XPHY_EDGE_ROW_101_Right_101 VDD VSS gf180mcu_fd_sc_mcu9t5v0__endcap
XPHY_EDGE_ROW_102_Right_102 VDD VSS gf180mcu_fd_sc_mcu9t5v0__endcap
XPHY_EDGE_ROW_103_Right_103 VDD VSS gf180mcu_fd_sc_mcu9t5v0__endcap
XPHY_EDGE_ROW_104_Right_104 VDD VSS gf180mcu_fd_sc_mcu9t5v0__endcap
XPHY_EDGE_ROW_105_Right_105 VDD VSS gf180mcu_fd_sc_mcu9t5v0__endcap
XPHY_EDGE_ROW_106_Right_106 VDD VSS gf180mcu_fd_sc_mcu9t5v0__endcap
XPHY_EDGE_ROW_107_Right_107 VDD VSS gf180mcu_fd_sc_mcu9t5v0__endcap
XPHY_EDGE_ROW_108_Right_108 VDD VSS gf180mcu_fd_sc_mcu9t5v0__endcap
XPHY_EDGE_ROW_0_Left_109 VDD VSS gf180mcu_fd_sc_mcu9t5v0__endcap
XPHY_EDGE_ROW_1_Left_110 VDD VSS gf180mcu_fd_sc_mcu9t5v0__endcap
XPHY_EDGE_ROW_2_Left_111 VDD VSS gf180mcu_fd_sc_mcu9t5v0__endcap
XPHY_EDGE_ROW_3_Left_112 VDD VSS gf180mcu_fd_sc_mcu9t5v0__endcap
XPHY_EDGE_ROW_4_Left_113 VDD VSS gf180mcu_fd_sc_mcu9t5v0__endcap
XPHY_EDGE_ROW_5_Left_114 VDD VSS gf180mcu_fd_sc_mcu9t5v0__endcap
XPHY_EDGE_ROW_6_Left_115 VDD VSS gf180mcu_fd_sc_mcu9t5v0__endcap
XPHY_EDGE_ROW_7_Left_116 VDD VSS gf180mcu_fd_sc_mcu9t5v0__endcap
XPHY_EDGE_ROW_8_Left_117 VDD VSS gf180mcu_fd_sc_mcu9t5v0__endcap
XPHY_EDGE_ROW_9_Left_118 VDD VSS gf180mcu_fd_sc_mcu9t5v0__endcap
XPHY_EDGE_ROW_10_Left_119 VDD VSS gf180mcu_fd_sc_mcu9t5v0__endcap
XPHY_EDGE_ROW_11_Left_120 VDD VSS gf180mcu_fd_sc_mcu9t5v0__endcap
XPHY_EDGE_ROW_12_Left_121 VDD VSS gf180mcu_fd_sc_mcu9t5v0__endcap
XPHY_EDGE_ROW_13_Left_122 VDD VSS gf180mcu_fd_sc_mcu9t5v0__endcap
XPHY_EDGE_ROW_14_Left_123 VDD VSS gf180mcu_fd_sc_mcu9t5v0__endcap
XPHY_EDGE_ROW_15_Left_124 VDD VSS gf180mcu_fd_sc_mcu9t5v0__endcap
XPHY_EDGE_ROW_16_Left_125 VDD VSS gf180mcu_fd_sc_mcu9t5v0__endcap
XPHY_EDGE_ROW_17_Left_126 VDD VSS gf180mcu_fd_sc_mcu9t5v0__endcap
XPHY_EDGE_ROW_18_Left_127 VDD VSS gf180mcu_fd_sc_mcu9t5v0__endcap
XPHY_EDGE_ROW_19_Left_128 VDD VSS gf180mcu_fd_sc_mcu9t5v0__endcap
XPHY_EDGE_ROW_20_Left_129 VDD VSS gf180mcu_fd_sc_mcu9t5v0__endcap
XPHY_EDGE_ROW_21_Left_130 VDD VSS gf180mcu_fd_sc_mcu9t5v0__endcap
XPHY_EDGE_ROW_22_Left_131 VDD VSS gf180mcu_fd_sc_mcu9t5v0__endcap
XPHY_EDGE_ROW_23_Left_132 VDD VSS gf180mcu_fd_sc_mcu9t5v0__endcap
XPHY_EDGE_ROW_24_Left_133 VDD VSS gf180mcu_fd_sc_mcu9t5v0__endcap
XPHY_EDGE_ROW_25_Left_134 VDD VSS gf180mcu_fd_sc_mcu9t5v0__endcap
XPHY_EDGE_ROW_26_Left_135 VDD VSS gf180mcu_fd_sc_mcu9t5v0__endcap
XPHY_EDGE_ROW_27_Left_136 VDD VSS gf180mcu_fd_sc_mcu9t5v0__endcap
XPHY_EDGE_ROW_28_Left_137 VDD VSS gf180mcu_fd_sc_mcu9t5v0__endcap
XPHY_EDGE_ROW_29_Left_138 VDD VSS gf180mcu_fd_sc_mcu9t5v0__endcap
XPHY_EDGE_ROW_30_Left_139 VDD VSS gf180mcu_fd_sc_mcu9t5v0__endcap
XPHY_EDGE_ROW_31_Left_140 VDD VSS gf180mcu_fd_sc_mcu9t5v0__endcap
XPHY_EDGE_ROW_32_Left_141 VDD VSS gf180mcu_fd_sc_mcu9t5v0__endcap
XPHY_EDGE_ROW_33_Left_142 VDD VSS gf180mcu_fd_sc_mcu9t5v0__endcap
XPHY_EDGE_ROW_34_Left_143 VDD VSS gf180mcu_fd_sc_mcu9t5v0__endcap
XPHY_EDGE_ROW_35_Left_144 VDD VSS gf180mcu_fd_sc_mcu9t5v0__endcap
XPHY_EDGE_ROW_36_Left_145 VDD VSS gf180mcu_fd_sc_mcu9t5v0__endcap
XPHY_EDGE_ROW_37_Left_146 VDD VSS gf180mcu_fd_sc_mcu9t5v0__endcap
XPHY_EDGE_ROW_38_Left_147 VDD VSS gf180mcu_fd_sc_mcu9t5v0__endcap
XPHY_EDGE_ROW_39_Left_148 VDD VSS gf180mcu_fd_sc_mcu9t5v0__endcap
XPHY_EDGE_ROW_40_Left_149 VDD VSS gf180mcu_fd_sc_mcu9t5v0__endcap
XPHY_EDGE_ROW_41_Left_150 VDD VSS gf180mcu_fd_sc_mcu9t5v0__endcap
XPHY_EDGE_ROW_42_Left_151 VDD VSS gf180mcu_fd_sc_mcu9t5v0__endcap
XPHY_EDGE_ROW_43_Left_152 VDD VSS gf180mcu_fd_sc_mcu9t5v0__endcap
XPHY_EDGE_ROW_44_Left_153 VDD VSS gf180mcu_fd_sc_mcu9t5v0__endcap
XPHY_EDGE_ROW_45_Left_154 VDD VSS gf180mcu_fd_sc_mcu9t5v0__endcap
XPHY_EDGE_ROW_46_Left_155 VDD VSS gf180mcu_fd_sc_mcu9t5v0__endcap
XPHY_EDGE_ROW_47_Left_156 VDD VSS gf180mcu_fd_sc_mcu9t5v0__endcap
XPHY_EDGE_ROW_48_Left_157 VDD VSS gf180mcu_fd_sc_mcu9t5v0__endcap
XPHY_EDGE_ROW_49_Left_158 VDD VSS gf180mcu_fd_sc_mcu9t5v0__endcap
XPHY_EDGE_ROW_50_Left_159 VDD VSS gf180mcu_fd_sc_mcu9t5v0__endcap
XPHY_EDGE_ROW_51_Left_160 VDD VSS gf180mcu_fd_sc_mcu9t5v0__endcap
XPHY_EDGE_ROW_52_Left_161 VDD VSS gf180mcu_fd_sc_mcu9t5v0__endcap
XPHY_EDGE_ROW_53_Left_162 VDD VSS gf180mcu_fd_sc_mcu9t5v0__endcap
XPHY_EDGE_ROW_54_Left_163 VDD VSS gf180mcu_fd_sc_mcu9t5v0__endcap
XPHY_EDGE_ROW_55_Left_164 VDD VSS gf180mcu_fd_sc_mcu9t5v0__endcap
XPHY_EDGE_ROW_56_Left_165 VDD VSS gf180mcu_fd_sc_mcu9t5v0__endcap
XPHY_EDGE_ROW_57_Left_166 VDD VSS gf180mcu_fd_sc_mcu9t5v0__endcap
XPHY_EDGE_ROW_58_Left_167 VDD VSS gf180mcu_fd_sc_mcu9t5v0__endcap
XPHY_EDGE_ROW_59_Left_168 VDD VSS gf180mcu_fd_sc_mcu9t5v0__endcap
XPHY_EDGE_ROW_60_Left_169 VDD VSS gf180mcu_fd_sc_mcu9t5v0__endcap
XPHY_EDGE_ROW_61_Left_170 VDD VSS gf180mcu_fd_sc_mcu9t5v0__endcap
XPHY_EDGE_ROW_62_Left_171 VDD VSS gf180mcu_fd_sc_mcu9t5v0__endcap
XPHY_EDGE_ROW_63_Left_172 VDD VSS gf180mcu_fd_sc_mcu9t5v0__endcap
XPHY_EDGE_ROW_64_Left_173 VDD VSS gf180mcu_fd_sc_mcu9t5v0__endcap
XPHY_EDGE_ROW_65_Left_174 VDD VSS gf180mcu_fd_sc_mcu9t5v0__endcap
XPHY_EDGE_ROW_66_Left_175 VDD VSS gf180mcu_fd_sc_mcu9t5v0__endcap
XPHY_EDGE_ROW_67_Left_176 VDD VSS gf180mcu_fd_sc_mcu9t5v0__endcap
XPHY_EDGE_ROW_68_Left_177 VDD VSS gf180mcu_fd_sc_mcu9t5v0__endcap
XPHY_EDGE_ROW_69_Left_178 VDD VSS gf180mcu_fd_sc_mcu9t5v0__endcap
XPHY_EDGE_ROW_70_Left_179 VDD VSS gf180mcu_fd_sc_mcu9t5v0__endcap
XPHY_EDGE_ROW_71_Left_180 VDD VSS gf180mcu_fd_sc_mcu9t5v0__endcap
XPHY_EDGE_ROW_72_Left_181 VDD VSS gf180mcu_fd_sc_mcu9t5v0__endcap
XPHY_EDGE_ROW_73_Left_182 VDD VSS gf180mcu_fd_sc_mcu9t5v0__endcap
XPHY_EDGE_ROW_74_Left_183 VDD VSS gf180mcu_fd_sc_mcu9t5v0__endcap
XPHY_EDGE_ROW_75_Left_184 VDD VSS gf180mcu_fd_sc_mcu9t5v0__endcap
XPHY_EDGE_ROW_76_Left_185 VDD VSS gf180mcu_fd_sc_mcu9t5v0__endcap
XPHY_EDGE_ROW_77_Left_186 VDD VSS gf180mcu_fd_sc_mcu9t5v0__endcap
XPHY_EDGE_ROW_78_Left_187 VDD VSS gf180mcu_fd_sc_mcu9t5v0__endcap
XPHY_EDGE_ROW_79_Left_188 VDD VSS gf180mcu_fd_sc_mcu9t5v0__endcap
XPHY_EDGE_ROW_80_Left_189 VDD VSS gf180mcu_fd_sc_mcu9t5v0__endcap
XPHY_EDGE_ROW_81_Left_190 VDD VSS gf180mcu_fd_sc_mcu9t5v0__endcap
XPHY_EDGE_ROW_82_Left_191 VDD VSS gf180mcu_fd_sc_mcu9t5v0__endcap
XPHY_EDGE_ROW_83_Left_192 VDD VSS gf180mcu_fd_sc_mcu9t5v0__endcap
XPHY_EDGE_ROW_84_Left_193 VDD VSS gf180mcu_fd_sc_mcu9t5v0__endcap
XPHY_EDGE_ROW_85_Left_194 VDD VSS gf180mcu_fd_sc_mcu9t5v0__endcap
XPHY_EDGE_ROW_86_Left_195 VDD VSS gf180mcu_fd_sc_mcu9t5v0__endcap
XPHY_EDGE_ROW_87_Left_196 VDD VSS gf180mcu_fd_sc_mcu9t5v0__endcap
XPHY_EDGE_ROW_88_Left_197 VDD VSS gf180mcu_fd_sc_mcu9t5v0__endcap
XPHY_EDGE_ROW_89_Left_198 VDD VSS gf180mcu_fd_sc_mcu9t5v0__endcap
XPHY_EDGE_ROW_90_Left_199 VDD VSS gf180mcu_fd_sc_mcu9t5v0__endcap
XPHY_EDGE_ROW_91_Left_200 VDD VSS gf180mcu_fd_sc_mcu9t5v0__endcap
XPHY_EDGE_ROW_92_Left_201 VDD VSS gf180mcu_fd_sc_mcu9t5v0__endcap
XPHY_EDGE_ROW_93_Left_202 VDD VSS gf180mcu_fd_sc_mcu9t5v0__endcap
XPHY_EDGE_ROW_94_Left_203 VDD VSS gf180mcu_fd_sc_mcu9t5v0__endcap
XPHY_EDGE_ROW_95_Left_204 VDD VSS gf180mcu_fd_sc_mcu9t5v0__endcap
XPHY_EDGE_ROW_96_Left_205 VDD VSS gf180mcu_fd_sc_mcu9t5v0__endcap
XPHY_EDGE_ROW_97_Left_206 VDD VSS gf180mcu_fd_sc_mcu9t5v0__endcap
XPHY_EDGE_ROW_98_Left_207 VDD VSS gf180mcu_fd_sc_mcu9t5v0__endcap
XPHY_EDGE_ROW_99_Left_208 VDD VSS gf180mcu_fd_sc_mcu9t5v0__endcap
XPHY_EDGE_ROW_100_Left_209 VDD VSS gf180mcu_fd_sc_mcu9t5v0__endcap
XPHY_EDGE_ROW_101_Left_210 VDD VSS gf180mcu_fd_sc_mcu9t5v0__endcap
XPHY_EDGE_ROW_102_Left_211 VDD VSS gf180mcu_fd_sc_mcu9t5v0__endcap
XPHY_EDGE_ROW_103_Left_212 VDD VSS gf180mcu_fd_sc_mcu9t5v0__endcap
XPHY_EDGE_ROW_104_Left_213 VDD VSS gf180mcu_fd_sc_mcu9t5v0__endcap
XPHY_EDGE_ROW_105_Left_214 VDD VSS gf180mcu_fd_sc_mcu9t5v0__endcap
XPHY_EDGE_ROW_106_Left_215 VDD VSS gf180mcu_fd_sc_mcu9t5v0__endcap
XPHY_EDGE_ROW_107_Left_216 VDD VSS gf180mcu_fd_sc_mcu9t5v0__endcap
XPHY_EDGE_ROW_108_Left_217 VDD VSS gf180mcu_fd_sc_mcu9t5v0__endcap
XTAP_TAPCELL_ROW_0_218 VDD VSS gf180mcu_fd_sc_mcu9t5v0__filltie
XTAP_TAPCELL_ROW_0_219 VDD VSS gf180mcu_fd_sc_mcu9t5v0__filltie
XTAP_TAPCELL_ROW_0_220 VDD VSS gf180mcu_fd_sc_mcu9t5v0__filltie
XTAP_TAPCELL_ROW_0_221 VDD VSS gf180mcu_fd_sc_mcu9t5v0__filltie
XTAP_TAPCELL_ROW_0_222 VDD VSS gf180mcu_fd_sc_mcu9t5v0__filltie
XTAP_TAPCELL_ROW_1_223 VDD VSS gf180mcu_fd_sc_mcu9t5v0__filltie
XTAP_TAPCELL_ROW_1_224 VDD VSS gf180mcu_fd_sc_mcu9t5v0__filltie
XTAP_TAPCELL_ROW_2_225 VDD VSS gf180mcu_fd_sc_mcu9t5v0__filltie
XTAP_TAPCELL_ROW_2_226 VDD VSS gf180mcu_fd_sc_mcu9t5v0__filltie
XTAP_TAPCELL_ROW_2_227 VDD VSS gf180mcu_fd_sc_mcu9t5v0__filltie
XTAP_TAPCELL_ROW_3_228 VDD VSS gf180mcu_fd_sc_mcu9t5v0__filltie
XTAP_TAPCELL_ROW_3_229 VDD VSS gf180mcu_fd_sc_mcu9t5v0__filltie
XTAP_TAPCELL_ROW_4_230 VDD VSS gf180mcu_fd_sc_mcu9t5v0__filltie
XTAP_TAPCELL_ROW_4_231 VDD VSS gf180mcu_fd_sc_mcu9t5v0__filltie
XTAP_TAPCELL_ROW_4_232 VDD VSS gf180mcu_fd_sc_mcu9t5v0__filltie
XTAP_TAPCELL_ROW_5_233 VDD VSS gf180mcu_fd_sc_mcu9t5v0__filltie
XTAP_TAPCELL_ROW_5_234 VDD VSS gf180mcu_fd_sc_mcu9t5v0__filltie
XTAP_TAPCELL_ROW_6_235 VDD VSS gf180mcu_fd_sc_mcu9t5v0__filltie
XTAP_TAPCELL_ROW_6_236 VDD VSS gf180mcu_fd_sc_mcu9t5v0__filltie
XTAP_TAPCELL_ROW_6_237 VDD VSS gf180mcu_fd_sc_mcu9t5v0__filltie
XTAP_TAPCELL_ROW_7_238 VDD VSS gf180mcu_fd_sc_mcu9t5v0__filltie
XTAP_TAPCELL_ROW_7_239 VDD VSS gf180mcu_fd_sc_mcu9t5v0__filltie
XTAP_TAPCELL_ROW_8_240 VDD VSS gf180mcu_fd_sc_mcu9t5v0__filltie
XTAP_TAPCELL_ROW_8_241 VDD VSS gf180mcu_fd_sc_mcu9t5v0__filltie
XTAP_TAPCELL_ROW_8_242 VDD VSS gf180mcu_fd_sc_mcu9t5v0__filltie
XTAP_TAPCELL_ROW_9_243 VDD VSS gf180mcu_fd_sc_mcu9t5v0__filltie
XTAP_TAPCELL_ROW_9_244 VDD VSS gf180mcu_fd_sc_mcu9t5v0__filltie
XTAP_TAPCELL_ROW_10_245 VDD VSS gf180mcu_fd_sc_mcu9t5v0__filltie
XTAP_TAPCELL_ROW_10_246 VDD VSS gf180mcu_fd_sc_mcu9t5v0__filltie
XTAP_TAPCELL_ROW_10_247 VDD VSS gf180mcu_fd_sc_mcu9t5v0__filltie
XTAP_TAPCELL_ROW_11_248 VDD VSS gf180mcu_fd_sc_mcu9t5v0__filltie
XTAP_TAPCELL_ROW_11_249 VDD VSS gf180mcu_fd_sc_mcu9t5v0__filltie
XTAP_TAPCELL_ROW_12_250 VDD VSS gf180mcu_fd_sc_mcu9t5v0__filltie
XTAP_TAPCELL_ROW_12_251 VDD VSS gf180mcu_fd_sc_mcu9t5v0__filltie
XTAP_TAPCELL_ROW_12_252 VDD VSS gf180mcu_fd_sc_mcu9t5v0__filltie
XTAP_TAPCELL_ROW_13_253 VDD VSS gf180mcu_fd_sc_mcu9t5v0__filltie
XTAP_TAPCELL_ROW_13_254 VDD VSS gf180mcu_fd_sc_mcu9t5v0__filltie
XTAP_TAPCELL_ROW_14_255 VDD VSS gf180mcu_fd_sc_mcu9t5v0__filltie
XTAP_TAPCELL_ROW_14_256 VDD VSS gf180mcu_fd_sc_mcu9t5v0__filltie
XTAP_TAPCELL_ROW_14_257 VDD VSS gf180mcu_fd_sc_mcu9t5v0__filltie
XTAP_TAPCELL_ROW_15_258 VDD VSS gf180mcu_fd_sc_mcu9t5v0__filltie
XTAP_TAPCELL_ROW_15_259 VDD VSS gf180mcu_fd_sc_mcu9t5v0__filltie
XTAP_TAPCELL_ROW_16_260 VDD VSS gf180mcu_fd_sc_mcu9t5v0__filltie
XTAP_TAPCELL_ROW_16_261 VDD VSS gf180mcu_fd_sc_mcu9t5v0__filltie
XTAP_TAPCELL_ROW_16_262 VDD VSS gf180mcu_fd_sc_mcu9t5v0__filltie
XTAP_TAPCELL_ROW_17_263 VDD VSS gf180mcu_fd_sc_mcu9t5v0__filltie
XTAP_TAPCELL_ROW_17_264 VDD VSS gf180mcu_fd_sc_mcu9t5v0__filltie
XTAP_TAPCELL_ROW_18_265 VDD VSS gf180mcu_fd_sc_mcu9t5v0__filltie
XTAP_TAPCELL_ROW_18_266 VDD VSS gf180mcu_fd_sc_mcu9t5v0__filltie
XTAP_TAPCELL_ROW_18_267 VDD VSS gf180mcu_fd_sc_mcu9t5v0__filltie
XTAP_TAPCELL_ROW_19_268 VDD VSS gf180mcu_fd_sc_mcu9t5v0__filltie
XTAP_TAPCELL_ROW_19_269 VDD VSS gf180mcu_fd_sc_mcu9t5v0__filltie
XTAP_TAPCELL_ROW_20_270 VDD VSS gf180mcu_fd_sc_mcu9t5v0__filltie
XTAP_TAPCELL_ROW_20_271 VDD VSS gf180mcu_fd_sc_mcu9t5v0__filltie
XTAP_TAPCELL_ROW_20_272 VDD VSS gf180mcu_fd_sc_mcu9t5v0__filltie
XTAP_TAPCELL_ROW_21_273 VDD VSS gf180mcu_fd_sc_mcu9t5v0__filltie
XTAP_TAPCELL_ROW_21_274 VDD VSS gf180mcu_fd_sc_mcu9t5v0__filltie
XTAP_TAPCELL_ROW_22_275 VDD VSS gf180mcu_fd_sc_mcu9t5v0__filltie
XTAP_TAPCELL_ROW_22_276 VDD VSS gf180mcu_fd_sc_mcu9t5v0__filltie
XTAP_TAPCELL_ROW_22_277 VDD VSS gf180mcu_fd_sc_mcu9t5v0__filltie
XTAP_TAPCELL_ROW_23_278 VDD VSS gf180mcu_fd_sc_mcu9t5v0__filltie
XTAP_TAPCELL_ROW_23_279 VDD VSS gf180mcu_fd_sc_mcu9t5v0__filltie
XTAP_TAPCELL_ROW_24_280 VDD VSS gf180mcu_fd_sc_mcu9t5v0__filltie
XTAP_TAPCELL_ROW_24_281 VDD VSS gf180mcu_fd_sc_mcu9t5v0__filltie
XTAP_TAPCELL_ROW_24_282 VDD VSS gf180mcu_fd_sc_mcu9t5v0__filltie
XTAP_TAPCELL_ROW_25_283 VDD VSS gf180mcu_fd_sc_mcu9t5v0__filltie
XTAP_TAPCELL_ROW_25_284 VDD VSS gf180mcu_fd_sc_mcu9t5v0__filltie
XTAP_TAPCELL_ROW_26_285 VDD VSS gf180mcu_fd_sc_mcu9t5v0__filltie
XTAP_TAPCELL_ROW_26_286 VDD VSS gf180mcu_fd_sc_mcu9t5v0__filltie
XTAP_TAPCELL_ROW_26_287 VDD VSS gf180mcu_fd_sc_mcu9t5v0__filltie
XTAP_TAPCELL_ROW_27_288 VDD VSS gf180mcu_fd_sc_mcu9t5v0__filltie
XTAP_TAPCELL_ROW_27_289 VDD VSS gf180mcu_fd_sc_mcu9t5v0__filltie
XTAP_TAPCELL_ROW_28_290 VDD VSS gf180mcu_fd_sc_mcu9t5v0__filltie
XTAP_TAPCELL_ROW_28_291 VDD VSS gf180mcu_fd_sc_mcu9t5v0__filltie
XTAP_TAPCELL_ROW_28_292 VDD VSS gf180mcu_fd_sc_mcu9t5v0__filltie
XTAP_TAPCELL_ROW_29_293 VDD VSS gf180mcu_fd_sc_mcu9t5v0__filltie
XTAP_TAPCELL_ROW_29_294 VDD VSS gf180mcu_fd_sc_mcu9t5v0__filltie
XTAP_TAPCELL_ROW_30_295 VDD VSS gf180mcu_fd_sc_mcu9t5v0__filltie
XTAP_TAPCELL_ROW_30_296 VDD VSS gf180mcu_fd_sc_mcu9t5v0__filltie
XTAP_TAPCELL_ROW_30_297 VDD VSS gf180mcu_fd_sc_mcu9t5v0__filltie
XTAP_TAPCELL_ROW_31_298 VDD VSS gf180mcu_fd_sc_mcu9t5v0__filltie
XTAP_TAPCELL_ROW_31_299 VDD VSS gf180mcu_fd_sc_mcu9t5v0__filltie
XTAP_TAPCELL_ROW_32_300 VDD VSS gf180mcu_fd_sc_mcu9t5v0__filltie
XTAP_TAPCELL_ROW_32_301 VDD VSS gf180mcu_fd_sc_mcu9t5v0__filltie
XTAP_TAPCELL_ROW_32_302 VDD VSS gf180mcu_fd_sc_mcu9t5v0__filltie
XTAP_TAPCELL_ROW_33_303 VDD VSS gf180mcu_fd_sc_mcu9t5v0__filltie
XTAP_TAPCELL_ROW_33_304 VDD VSS gf180mcu_fd_sc_mcu9t5v0__filltie
XTAP_TAPCELL_ROW_34_305 VDD VSS gf180mcu_fd_sc_mcu9t5v0__filltie
XTAP_TAPCELL_ROW_34_306 VDD VSS gf180mcu_fd_sc_mcu9t5v0__filltie
XTAP_TAPCELL_ROW_34_307 VDD VSS gf180mcu_fd_sc_mcu9t5v0__filltie
XTAP_TAPCELL_ROW_35_308 VDD VSS gf180mcu_fd_sc_mcu9t5v0__filltie
XTAP_TAPCELL_ROW_35_309 VDD VSS gf180mcu_fd_sc_mcu9t5v0__filltie
XTAP_TAPCELL_ROW_36_310 VDD VSS gf180mcu_fd_sc_mcu9t5v0__filltie
XTAP_TAPCELL_ROW_36_311 VDD VSS gf180mcu_fd_sc_mcu9t5v0__filltie
XTAP_TAPCELL_ROW_36_312 VDD VSS gf180mcu_fd_sc_mcu9t5v0__filltie
XTAP_TAPCELL_ROW_37_313 VDD VSS gf180mcu_fd_sc_mcu9t5v0__filltie
XTAP_TAPCELL_ROW_37_314 VDD VSS gf180mcu_fd_sc_mcu9t5v0__filltie
XTAP_TAPCELL_ROW_38_315 VDD VSS gf180mcu_fd_sc_mcu9t5v0__filltie
XTAP_TAPCELL_ROW_38_316 VDD VSS gf180mcu_fd_sc_mcu9t5v0__filltie
XTAP_TAPCELL_ROW_38_317 VDD VSS gf180mcu_fd_sc_mcu9t5v0__filltie
XTAP_TAPCELL_ROW_39_318 VDD VSS gf180mcu_fd_sc_mcu9t5v0__filltie
XTAP_TAPCELL_ROW_39_319 VDD VSS gf180mcu_fd_sc_mcu9t5v0__filltie
XTAP_TAPCELL_ROW_40_320 VDD VSS gf180mcu_fd_sc_mcu9t5v0__filltie
XTAP_TAPCELL_ROW_40_321 VDD VSS gf180mcu_fd_sc_mcu9t5v0__filltie
XTAP_TAPCELL_ROW_40_322 VDD VSS gf180mcu_fd_sc_mcu9t5v0__filltie
XTAP_TAPCELL_ROW_41_323 VDD VSS gf180mcu_fd_sc_mcu9t5v0__filltie
XTAP_TAPCELL_ROW_41_324 VDD VSS gf180mcu_fd_sc_mcu9t5v0__filltie
XTAP_TAPCELL_ROW_42_325 VDD VSS gf180mcu_fd_sc_mcu9t5v0__filltie
XTAP_TAPCELL_ROW_42_326 VDD VSS gf180mcu_fd_sc_mcu9t5v0__filltie
XTAP_TAPCELL_ROW_42_327 VDD VSS gf180mcu_fd_sc_mcu9t5v0__filltie
XTAP_TAPCELL_ROW_43_328 VDD VSS gf180mcu_fd_sc_mcu9t5v0__filltie
XTAP_TAPCELL_ROW_43_329 VDD VSS gf180mcu_fd_sc_mcu9t5v0__filltie
XTAP_TAPCELL_ROW_44_330 VDD VSS gf180mcu_fd_sc_mcu9t5v0__filltie
XTAP_TAPCELL_ROW_44_331 VDD VSS gf180mcu_fd_sc_mcu9t5v0__filltie
XTAP_TAPCELL_ROW_44_332 VDD VSS gf180mcu_fd_sc_mcu9t5v0__filltie
XTAP_TAPCELL_ROW_45_333 VDD VSS gf180mcu_fd_sc_mcu9t5v0__filltie
XTAP_TAPCELL_ROW_45_334 VDD VSS gf180mcu_fd_sc_mcu9t5v0__filltie
XTAP_TAPCELL_ROW_46_335 VDD VSS gf180mcu_fd_sc_mcu9t5v0__filltie
XTAP_TAPCELL_ROW_46_336 VDD VSS gf180mcu_fd_sc_mcu9t5v0__filltie
XTAP_TAPCELL_ROW_46_337 VDD VSS gf180mcu_fd_sc_mcu9t5v0__filltie
XTAP_TAPCELL_ROW_47_338 VDD VSS gf180mcu_fd_sc_mcu9t5v0__filltie
XTAP_TAPCELL_ROW_47_339 VDD VSS gf180mcu_fd_sc_mcu9t5v0__filltie
XTAP_TAPCELL_ROW_48_340 VDD VSS gf180mcu_fd_sc_mcu9t5v0__filltie
XTAP_TAPCELL_ROW_48_341 VDD VSS gf180mcu_fd_sc_mcu9t5v0__filltie
XTAP_TAPCELL_ROW_48_342 VDD VSS gf180mcu_fd_sc_mcu9t5v0__filltie
XTAP_TAPCELL_ROW_49_343 VDD VSS gf180mcu_fd_sc_mcu9t5v0__filltie
XTAP_TAPCELL_ROW_49_344 VDD VSS gf180mcu_fd_sc_mcu9t5v0__filltie
XTAP_TAPCELL_ROW_50_345 VDD VSS gf180mcu_fd_sc_mcu9t5v0__filltie
XTAP_TAPCELL_ROW_50_346 VDD VSS gf180mcu_fd_sc_mcu9t5v0__filltie
XTAP_TAPCELL_ROW_50_347 VDD VSS gf180mcu_fd_sc_mcu9t5v0__filltie
XTAP_TAPCELL_ROW_51_348 VDD VSS gf180mcu_fd_sc_mcu9t5v0__filltie
XTAP_TAPCELL_ROW_51_349 VDD VSS gf180mcu_fd_sc_mcu9t5v0__filltie
XTAP_TAPCELL_ROW_52_350 VDD VSS gf180mcu_fd_sc_mcu9t5v0__filltie
XTAP_TAPCELL_ROW_52_351 VDD VSS gf180mcu_fd_sc_mcu9t5v0__filltie
XTAP_TAPCELL_ROW_52_352 VDD VSS gf180mcu_fd_sc_mcu9t5v0__filltie
XTAP_TAPCELL_ROW_53_353 VDD VSS gf180mcu_fd_sc_mcu9t5v0__filltie
XTAP_TAPCELL_ROW_53_354 VDD VSS gf180mcu_fd_sc_mcu9t5v0__filltie
XTAP_TAPCELL_ROW_54_355 VDD VSS gf180mcu_fd_sc_mcu9t5v0__filltie
XTAP_TAPCELL_ROW_54_356 VDD VSS gf180mcu_fd_sc_mcu9t5v0__filltie
XTAP_TAPCELL_ROW_54_357 VDD VSS gf180mcu_fd_sc_mcu9t5v0__filltie
XTAP_TAPCELL_ROW_55_358 VDD VSS gf180mcu_fd_sc_mcu9t5v0__filltie
XTAP_TAPCELL_ROW_55_359 VDD VSS gf180mcu_fd_sc_mcu9t5v0__filltie
XTAP_TAPCELL_ROW_56_360 VDD VSS gf180mcu_fd_sc_mcu9t5v0__filltie
XTAP_TAPCELL_ROW_56_361 VDD VSS gf180mcu_fd_sc_mcu9t5v0__filltie
XTAP_TAPCELL_ROW_56_362 VDD VSS gf180mcu_fd_sc_mcu9t5v0__filltie
XTAP_TAPCELL_ROW_57_363 VDD VSS gf180mcu_fd_sc_mcu9t5v0__filltie
XTAP_TAPCELL_ROW_57_364 VDD VSS gf180mcu_fd_sc_mcu9t5v0__filltie
XTAP_TAPCELL_ROW_58_365 VDD VSS gf180mcu_fd_sc_mcu9t5v0__filltie
XTAP_TAPCELL_ROW_58_366 VDD VSS gf180mcu_fd_sc_mcu9t5v0__filltie
XTAP_TAPCELL_ROW_58_367 VDD VSS gf180mcu_fd_sc_mcu9t5v0__filltie
XTAP_TAPCELL_ROW_59_368 VDD VSS gf180mcu_fd_sc_mcu9t5v0__filltie
XTAP_TAPCELL_ROW_59_369 VDD VSS gf180mcu_fd_sc_mcu9t5v0__filltie
XTAP_TAPCELL_ROW_60_370 VDD VSS gf180mcu_fd_sc_mcu9t5v0__filltie
XTAP_TAPCELL_ROW_60_371 VDD VSS gf180mcu_fd_sc_mcu9t5v0__filltie
XTAP_TAPCELL_ROW_60_372 VDD VSS gf180mcu_fd_sc_mcu9t5v0__filltie
XTAP_TAPCELL_ROW_61_373 VDD VSS gf180mcu_fd_sc_mcu9t5v0__filltie
XTAP_TAPCELL_ROW_61_374 VDD VSS gf180mcu_fd_sc_mcu9t5v0__filltie
XTAP_TAPCELL_ROW_62_375 VDD VSS gf180mcu_fd_sc_mcu9t5v0__filltie
XTAP_TAPCELL_ROW_62_376 VDD VSS gf180mcu_fd_sc_mcu9t5v0__filltie
XTAP_TAPCELL_ROW_62_377 VDD VSS gf180mcu_fd_sc_mcu9t5v0__filltie
XTAP_TAPCELL_ROW_63_378 VDD VSS gf180mcu_fd_sc_mcu9t5v0__filltie
XTAP_TAPCELL_ROW_63_379 VDD VSS gf180mcu_fd_sc_mcu9t5v0__filltie
XTAP_TAPCELL_ROW_64_380 VDD VSS gf180mcu_fd_sc_mcu9t5v0__filltie
XTAP_TAPCELL_ROW_64_381 VDD VSS gf180mcu_fd_sc_mcu9t5v0__filltie
XTAP_TAPCELL_ROW_64_382 VDD VSS gf180mcu_fd_sc_mcu9t5v0__filltie
XTAP_TAPCELL_ROW_65_383 VDD VSS gf180mcu_fd_sc_mcu9t5v0__filltie
XTAP_TAPCELL_ROW_65_384 VDD VSS gf180mcu_fd_sc_mcu9t5v0__filltie
XTAP_TAPCELL_ROW_66_385 VDD VSS gf180mcu_fd_sc_mcu9t5v0__filltie
XTAP_TAPCELL_ROW_66_386 VDD VSS gf180mcu_fd_sc_mcu9t5v0__filltie
XTAP_TAPCELL_ROW_66_387 VDD VSS gf180mcu_fd_sc_mcu9t5v0__filltie
XTAP_TAPCELL_ROW_67_388 VDD VSS gf180mcu_fd_sc_mcu9t5v0__filltie
XTAP_TAPCELL_ROW_67_389 VDD VSS gf180mcu_fd_sc_mcu9t5v0__filltie
XTAP_TAPCELL_ROW_68_390 VDD VSS gf180mcu_fd_sc_mcu9t5v0__filltie
XTAP_TAPCELL_ROW_68_391 VDD VSS gf180mcu_fd_sc_mcu9t5v0__filltie
XTAP_TAPCELL_ROW_68_392 VDD VSS gf180mcu_fd_sc_mcu9t5v0__filltie
XTAP_TAPCELL_ROW_69_393 VDD VSS gf180mcu_fd_sc_mcu9t5v0__filltie
XTAP_TAPCELL_ROW_69_394 VDD VSS gf180mcu_fd_sc_mcu9t5v0__filltie
XTAP_TAPCELL_ROW_70_395 VDD VSS gf180mcu_fd_sc_mcu9t5v0__filltie
XTAP_TAPCELL_ROW_70_396 VDD VSS gf180mcu_fd_sc_mcu9t5v0__filltie
XTAP_TAPCELL_ROW_70_397 VDD VSS gf180mcu_fd_sc_mcu9t5v0__filltie
XTAP_TAPCELL_ROW_71_398 VDD VSS gf180mcu_fd_sc_mcu9t5v0__filltie
XTAP_TAPCELL_ROW_71_399 VDD VSS gf180mcu_fd_sc_mcu9t5v0__filltie
XTAP_TAPCELL_ROW_72_400 VDD VSS gf180mcu_fd_sc_mcu9t5v0__filltie
XTAP_TAPCELL_ROW_72_401 VDD VSS gf180mcu_fd_sc_mcu9t5v0__filltie
XTAP_TAPCELL_ROW_72_402 VDD VSS gf180mcu_fd_sc_mcu9t5v0__filltie
XTAP_TAPCELL_ROW_73_403 VDD VSS gf180mcu_fd_sc_mcu9t5v0__filltie
XTAP_TAPCELL_ROW_73_404 VDD VSS gf180mcu_fd_sc_mcu9t5v0__filltie
XTAP_TAPCELL_ROW_74_405 VDD VSS gf180mcu_fd_sc_mcu9t5v0__filltie
XTAP_TAPCELL_ROW_74_406 VDD VSS gf180mcu_fd_sc_mcu9t5v0__filltie
XTAP_TAPCELL_ROW_74_407 VDD VSS gf180mcu_fd_sc_mcu9t5v0__filltie
XTAP_TAPCELL_ROW_75_408 VDD VSS gf180mcu_fd_sc_mcu9t5v0__filltie
XTAP_TAPCELL_ROW_75_409 VDD VSS gf180mcu_fd_sc_mcu9t5v0__filltie
XTAP_TAPCELL_ROW_76_410 VDD VSS gf180mcu_fd_sc_mcu9t5v0__filltie
XTAP_TAPCELL_ROW_76_411 VDD VSS gf180mcu_fd_sc_mcu9t5v0__filltie
XTAP_TAPCELL_ROW_76_412 VDD VSS gf180mcu_fd_sc_mcu9t5v0__filltie