
* cell bsg_async_credit_counter
* pin r_clk_i
* pin r_credits_avail_o
* pin r_infinite_credits_i
* pin w_clk_i
* pin w_reset_i
* pin r_reset_i
* pin r_dec_credit_i
* pin w_inc_token_i
.SUBCKT bsg_async_credit_counter 9 20 40 48 49 52 53 61
* net 9 r_clk_i
* net 20 r_credits_avail_o
* net 40 r_infinite_credits_i
* net 48 w_clk_i
* net 49 w_reset_i
* net 52 r_reset_i
* net 53 r_dec_credit_i
* net 61 w_inc_token_i
* cell instance $190 m0 *1 49.22,24.48
X$190 2 11 5 4 3 1 2 1 sky130_fd_sc_hd__nor3_1
* cell instance $192 m0 *1 51.06,24.48
X$192 1 5 8 11 4 2 2 1 sky130_fd_sc_hd__and3_1
* cell instance $194 r0 *1 52.9,19.04
X$194 2 8 3 7 2 12 1 1 sky130_fd_sc_hd__o21ai_0
* cell instance $195 m0 *1 53.36,24.48
X$195 2 12 20 1 2 1 sky130_fd_sc_hd__clkbuf_1
* cell instance $197 m0 *1 54.74,24.48
X$197 2 10 19 7 1 2 1 sky130_fd_sc_hd__nor2_1
* cell instance $200 m0 *1 57.04,24.48
X$200 2 9 2 1 6 1 sky130_fd_sc_hd__clkbuf_2
* cell instance $205 r0 *1 7.36,24.48
X$205 1 36 34 13 2 2 1 sky130_fd_sc_hd__dfxtp_1
* cell instance $209 r0 *1 15.64,24.48
X$209 2 48 1 17 2 1 sky130_fd_sc_hd__clkbuf_4
* cell instance $211 r0 *1 20.24,24.48
X$211 1 28 23 14 2 2 1 sky130_fd_sc_hd__dfxtp_1
* cell instance $215 r0 *1 34.04,24.48
X$215 1 18 6 24 2 2 1 sky130_fd_sc_hd__dfxtp_1
* cell instance $222 r0 *1 45.54,24.48
X$222 2 18 15 2 4 1 1 sky130_fd_sc_hd__xor2_1
* cell instance $223 r0 *1 48.76,24.48
X$223 1 11 6 16 2 2 1 sky130_fd_sc_hd__dfxtp_1
* cell instance $224 r0 *1 56.12,24.48
X$224 2 22 31 21 2 1 16 1 sky130_fd_sc_hd__o21bai_1
* cell instance $228 m0 *1 4.6,29.92
X$228 2 17 1 34 2 1 sky130_fd_sc_hd__clkbuf_4
* cell instance $229 m0 *1 7.36,29.92
X$229 2 34 67 1 2 1 sky130_fd_sc_hd__clkbuf_1
* cell instance $231 m0 *1 9.66,29.92
X$231 2 25 26 13 1 2 1 sky130_fd_sc_hd__nor2_1
* cell instance $232 m0 *1 11.04,29.92
X$232 1 26 36 27 32 2 2 1 sky130_fd_sc_hd__mux2i_1
* cell instance $235 m0 *1 14.72,29.92
X$235 2 27 42 64 2 1 1 sky130_fd_sc_hd__xnor2_1
* cell instance $236 m0 *1 17.94,29.92
X$236 1 45 28 44 32 2 2 1 sky130_fd_sc_hd__mux2i_1
* cell instance $237 m0 *1 21.62,29.92
X$237 2 33 37 2 29 1 1 sky130_fd_sc_hd__xor2_1
* cell instance $239 m0 *1 25.3,29.92
X$239 2 25 29 47 1 2 1 sky130_fd_sc_hd__nor2_1
* cell instance $244 m0 *1 29.9,29.92
X$244 1 24 6 28 2 2 1 sky130_fd_sc_hd__dfxtp_1
* cell instance $245 m0 *1 37.26,29.92
X$245 1 38 6 37 2 2 1 sky130_fd_sc_hd__dfxtp_1
* cell instance $248 m0 *1 44.62,29.92
X$248 1 5 6 38 2 2 1 sky130_fd_sc_hd__dfxtp_1
* cell instance $249 m0 *1 51.98,29.92
X$249 1 43 15 54 30 2 2 1 sky130_fd_sc_hd__mux2i_1
* cell instance $252 m0 *1 57.04,29.92
X$252 2 11 39 30 1 2 31 1 sky130_fd_sc_hd__a21oi_1
* cell instance $253 r0 *1 1.38,29.92
X$253 1 35 34 41 2 2 1 sky130_fd_sc_hd__dfxtp_1
* cell instance $254 r0 *1 8.74,29.92
X$254 2 25 50 41 1 2 1 sky130_fd_sc_hd__nor2_1
* cell instance $255 r0 *1 10.12,29.92
X$255 1 50 35 42 32 2 2 1 sky130_fd_sc_hd__mux2i_1
* cell instance $263 r0 *1 16.56,29.92
X$263 1 44 51 27 37 2 2 1 sky130_fd_sc_hd__xor3_1
* cell instance $265 r0 *1 26.22,29.92
X$265 2 17 1 23 2 1 sky130_fd_sc_hd__clkbuf_4
* cell instance $266 r0 *1 28.98,29.92
X$266 1 37 23 47 2 2 1 sky130_fd_sc_hd__dfxtp_1
* cell instance $274 r0 *1 43.24,29.92
X$274 1 15 6 46 2 2 1 sky130_fd_sc_hd__dfxtp_1
* cell instance $275 r0 *1 50.6,29.92
X$275 2 22 43 46 1 2 1 sky130_fd_sc_hd__nor2_1
* cell instance $276 r0 *1 51.98,29.92
X$276 1 30 53 2 2 1 sky130_fd_sc_hd__dlymetal6s2s_1
* cell instance $277 r0 *1 56.58,29.92
X$277 1 39 21 11 30 2 2 1 sky130_fd_sc_hd__and3_1
* cell instance $278 m0 *1 1.38,35.36
X$278 1 25 49 2 2 1 sky130_fd_sc_hd__dlymetal6s2s_1
* cell instance $280 m0 *1 6.9,35.36
X$280 1 42 59 62 35 2 2 1 sky130_fd_sc_hd__ha_1
* cell instance $281 m0 *1 11.5,35.36
X$281 1 27 51 36 59 2 2 1 sky130_fd_sc_hd__ha_1
* cell instance $282 m0 *1 16.1,35.36
X$282 2 32 51 33 2 1 1 sky130_fd_sc_hd__nand2_1
* cell instance $283 m0 *1 17.48,35.36
X$283 2 64 32 25 60 1 65 2 1 sky130_fd_sc_hd__a211oi_1
* cell instance $284 m0 *1 20.24,35.36
X$284 2 25 45 14 1 2 1 sky130_fd_sc_hd__nor2_1
* cell instance $285 m0 *1 21.62,35.36
X$285 2 55 32 60 1 2 1 sky130_fd_sc_hd__nor2_1
* cell instance $291 m0 *1 29.9,35.36
X$291 1 56 6 55 2 2 1 sky130_fd_sc_hd__dfxtp_1
* cell instance $292 m0 *1 37.26,35.36
X$292 1 66 6 56 2 2 1 sky130_fd_sc_hd__dfxtp_1
* cell instance $293 m0 *1 44.62,35.36
X$293 1 58 6 57 2 2 1 sky130_fd_sc_hd__dfxtp_1
* cell instance $294 m0 *1 51.98,35.36
X$294 1 54 39 58 15 2 2 1 sky130_fd_sc_hd__ha_1
* cell instance $297 m0 *1 57.5,35.36
X$297 2 40 10 1 2 1 sky130_fd_sc_hd__clkbuf_1
* cell instance $298 r0 *1 1.38,35.36
X$298 2 61 62 1 2 1 sky130_fd_sc_hd__clkbuf_1
* cell instance $303 r0 *1 11.5,35.36
X$303 2 62 2 1 32 1 sky130_fd_sc_hd__buf_4
* cell instance $309 r0 *1 18.4,35.36
X$309 1 55 23 65 2 2 1 sky130_fd_sc_hd__dfxtp_1
* cell instance $320 r0 *1 47.38,35.36
X$320 2 66 54 2 19 1 1 sky130_fd_sc_hd__xor2_1
* cell instance $321 r0 *1 50.6,35.36
X$321 2 22 63 57 1 2 1 sky130_fd_sc_hd__nor2_1
* cell instance $322 r0 *1 51.98,35.36
X$322 2 30 58 63 2 1 1 sky130_fd_sc_hd__xnor2_1
* cell instance $325 r0 *1 57.5,35.36
X$325 2 52 22 1 2 1 sky130_fd_sc_hd__clkbuf_1
.ENDS bsg_async_credit_counter

* cell sky130_fd_sc_hd__clkbuf_2
* pin VPB
* pin A
* pin VPWR
* pin VGND
* pin X
* pin 
.SUBCKT sky130_fd_sc_hd__clkbuf_2 1 2 3 4 6 7
* net 1 VPB
* net 2 A
* net 3 VPWR
* net 4 VGND
* net 6 X
* device instance $1 r0 *1 0.475,1.985 pfet_01v8_hvt
M$1 3 2 5 1 pfet_01v8_hvt L=150000U W=1000000U AS=265000000000P
+ AD=162500000000P PS=2530000U PD=1325000U
* device instance $2 r0 *1 0.95,1.985 pfet_01v8_hvt
M$2 6 5 3 1 pfet_01v8_hvt L=150000U W=2000000U AS=297500000000P
+ AD=395000000000P PS=2595000U PD=3790000U
* device instance $4 r0 *1 0.475,0.445 nfet_01v8
M$4 4 2 5 7 nfet_01v8 L=150000U W=420000U AS=111300000000P AD=68250000000P
+ PS=1370000U PD=745000U
* device instance $5 r0 *1 0.95,0.445 nfet_01v8
M$5 6 5 4 7 nfet_01v8 L=150000U W=840000U AS=124950000000P AD=165900000000P
+ PS=1435000U PD=2050000U
.ENDS sky130_fd_sc_hd__clkbuf_2

* cell sky130_fd_sc_hd__o21ai_0
* pin VPB
* pin A1
* pin A2
* pin B1
* pin VPWR
* pin Y
* pin VGND
* pin 
.SUBCKT sky130_fd_sc_hd__o21ai_0 1 2 3 4 5 6 8 9
* net 1 VPB
* net 2 A1
* net 3 A2
* net 4 B1
* net 5 VPWR
* net 6 Y
* net 8 VGND
* device instance $1 r0 *1 0.525,2.165 pfet_01v8_hvt
M$1 10 2 5 1 pfet_01v8_hvt L=150000U W=640000U AS=169600000000P AD=76800000000P
+ PS=1810000U PD=880000U
* device instance $2 r0 *1 0.915,2.165 pfet_01v8_hvt
M$2 6 3 10 1 pfet_01v8_hvt L=150000U W=640000U AS=76800000000P AD=89600000000P
+ PS=880000U PD=920000U
* device instance $3 r0 *1 1.345,2.165 pfet_01v8_hvt
M$3 5 4 6 1 pfet_01v8_hvt L=150000U W=640000U AS=89600000000P AD=182400000000P
+ PS=920000U PD=1850000U
* device instance $4 r0 *1 0.5,0.445 nfet_01v8
M$4 8 2 7 9 nfet_01v8 L=150000U W=420000U AS=111300000000P AD=58800000000P
+ PS=1370000U PD=700000U
* device instance $5 r0 *1 0.93,0.445 nfet_01v8
M$5 7 3 8 9 nfet_01v8 L=150000U W=420000U AS=58800000000P AD=58800000000P
+ PS=700000U PD=700000U
* device instance $6 r0 *1 1.36,0.445 nfet_01v8
M$6 6 4 7 9 nfet_01v8 L=150000U W=420000U AS=58800000000P AD=111300000000P
+ PS=700000U PD=1370000U
.ENDS sky130_fd_sc_hd__o21ai_0

* cell sky130_fd_sc_hd__nor3_1
* pin VPB
* pin A
* pin B
* pin C
* pin Y
* pin VGND
* pin VPWR
* pin 
.SUBCKT sky130_fd_sc_hd__nor3_1 1 2 3 4 5 6 7 8
* net 1 VPB
* net 2 A
* net 3 B
* net 4 C
* net 5 Y
* net 6 VGND
* net 7 VPWR
* device instance $1 r0 *1 0.47,1.985 pfet_01v8_hvt
M$1 10 4 5 1 pfet_01v8_hvt L=150000U W=1000000U AS=260000000000P
+ AD=135000000000P PS=2520000U PD=1270000U
* device instance $2 r0 *1 0.89,1.985 pfet_01v8_hvt
M$2 9 3 10 1 pfet_01v8_hvt L=150000U W=1000000U AS=135000000000P
+ AD=135000000000P PS=1270000U PD=1270000U
* device instance $3 r0 *1 1.31,1.985 pfet_01v8_hvt
M$3 7 2 9 1 pfet_01v8_hvt L=150000U W=1000000U AS=135000000000P
+ AD=260000000000P PS=1270000U PD=2520000U
* device instance $4 r0 *1 0.47,0.56 nfet_01v8
M$4 6 4 5 8 nfet_01v8 L=150000U W=650000U AS=169000000000P AD=87750000000P
+ PS=1820000U PD=920000U
* device instance $5 r0 *1 0.89,0.56 nfet_01v8
M$5 5 3 6 8 nfet_01v8 L=150000U W=650000U AS=87750000000P AD=87750000000P
+ PS=920000U PD=920000U
* device instance $6 r0 *1 1.31,0.56 nfet_01v8
M$6 6 2 5 8 nfet_01v8 L=150000U W=650000U AS=87750000000P AD=169000000000P
+ PS=920000U PD=1820000U
.ENDS sky130_fd_sc_hd__nor3_1

* cell sky130_fd_sc_hd__o21bai_1
* pin VPB
* pin B1_N
* pin A1
* pin A2
* pin VPWR
* pin VGND
* pin Y
* pin 
.SUBCKT sky130_fd_sc_hd__o21bai_1 1 2 4 5 7 8 9 10
* net 1 VPB
* net 2 B1_N
* net 4 A1
* net 5 A2
* net 7 VPWR
* net 8 VGND
* net 9 Y
* device instance $1 r0 *1 0.86,1.97 pfet_01v8_hvt
M$1 3 2 7 1 pfet_01v8_hvt L=150000U W=420000U AS=178250000000P AD=109200000000P
+ PS=1400000U PD=1360000U
* device instance $2 r0 *1 1.41,1.985 pfet_01v8_hvt
M$2 9 3 7 1 pfet_01v8_hvt L=150000U W=1000000U AS=178250000000P
+ AD=152500000000P PS=1400000U PD=1305000U
* device instance $3 r0 *1 1.865,1.985 pfet_01v8_hvt
M$3 11 5 9 1 pfet_01v8_hvt L=150000U W=1000000U AS=152500000000P
+ AD=127500000000P PS=1305000U PD=1255000U
* device instance $4 r0 *1 2.27,1.985 pfet_01v8_hvt
M$4 7 4 11 1 pfet_01v8_hvt L=150000U W=1000000U AS=127500000000P
+ AD=280000000000P PS=1255000U PD=2560000U
* device instance $5 r0 *1 1.41,0.56 nfet_01v8
M$5 6 3 9 10 nfet_01v8 L=150000U W=650000U AS=169000000000P AD=100750000000P
+ PS=1820000U PD=960000U
* device instance $6 r0 *1 1.87,0.56 nfet_01v8
M$6 8 5 6 10 nfet_01v8 L=150000U W=650000U AS=100750000000P AD=87750000000P
+ PS=960000U PD=920000U
* device instance $7 r0 *1 2.29,0.56 nfet_01v8
M$7 6 4 8 10 nfet_01v8 L=150000U W=650000U AS=87750000000P AD=169000000000P
+ PS=920000U PD=1820000U
* device instance $8 r0 *1 0.47,0.675 nfet_01v8
M$8 3 2 8 10 nfet_01v8 L=150000U W=420000U AS=109200000000P AD=109200000000P
+ PS=1360000U PD=1360000U
.ENDS sky130_fd_sc_hd__o21bai_1

* cell sky130_fd_sc_hd__nand2_1
* pin VPB
* pin A
* pin B
* pin Y
* pin VPWR
* pin VGND
* pin 
.SUBCKT sky130_fd_sc_hd__nand2_1 1 2 3 4 5 6 7
* net 1 VPB
* net 2 A
* net 3 B
* net 4 Y
* net 5 VPWR
* net 6 VGND
* device instance $1 r0 *1 0.49,1.985 pfet_01v8_hvt
M$1 4 3 5 1 pfet_01v8_hvt L=150000U W=1000000U AS=260000000000P
+ AD=135000000000P PS=2520000U PD=1270000U
* device instance $2 r0 *1 0.91,1.985 pfet_01v8_hvt
M$2 5 2 4 1 pfet_01v8_hvt L=150000U W=1000000U AS=135000000000P
+ AD=260000000000P PS=1270000U PD=2520000U
* device instance $3 r0 *1 0.49,0.56 nfet_01v8
M$3 8 3 6 7 nfet_01v8 L=150000U W=650000U AS=169000000000P AD=87750000000P
+ PS=1820000U PD=920000U
* device instance $4 r0 *1 0.91,0.56 nfet_01v8
M$4 4 2 8 7 nfet_01v8 L=150000U W=650000U AS=87750000000P AD=169000000000P
+ PS=920000U PD=1820000U
.ENDS sky130_fd_sc_hd__nand2_1

* cell sky130_fd_sc_hd__a211oi_1
* pin VPB
* pin A2
* pin A1
* pin C1
* pin B1
* pin VGND
* pin Y
* pin VPWR
* pin 
.SUBCKT sky130_fd_sc_hd__a211oi_1 1 2 3 4 5 6 7 9 10
* net 1 VPB
* net 2 A2
* net 3 A1
* net 4 C1
* net 5 B1
* net 6 VGND
* net 7 Y
* net 9 VPWR
* device instance $1 r0 *1 0.62,1.985 pfet_01v8_hvt
M$1 9 2 8 1 pfet_01v8_hvt L=150000U W=1000000U AS=265000000000P
+ AD=140000000000P PS=2530000U PD=1280000U
* device instance $2 r0 *1 1.05,1.985 pfet_01v8_hvt
M$2 8 3 9 1 pfet_01v8_hvt L=150000U W=1000000U AS=140000000000P
+ AD=140000000000P PS=1280000U PD=1280000U
* device instance $3 r0 *1 1.48,1.985 pfet_01v8_hvt
M$3 11 5 8 1 pfet_01v8_hvt L=150000U W=1000000U AS=140000000000P
+ AD=155000000000P PS=1280000U PD=1310000U
* device instance $4 r0 *1 1.94,1.985 pfet_01v8_hvt
M$4 7 4 11 1 pfet_01v8_hvt L=150000U W=1000000U AS=155000000000P
+ AD=265000000000P PS=1310000U PD=2530000U
* device instance $5 r0 *1 0.62,0.56 nfet_01v8
M$5 12 2 6 10 nfet_01v8 L=150000U W=650000U AS=266500000000P AD=91000000000P
+ PS=2120000U PD=930000U
* device instance $6 r0 *1 1.05,0.56 nfet_01v8
M$6 7 3 12 10 nfet_01v8 L=150000U W=650000U AS=91000000000P AD=91000000000P
+ PS=930000U PD=930000U
* device instance $7 r0 *1 1.48,0.56 nfet_01v8
M$7 6 5 7 10 nfet_01v8 L=150000U W=650000U AS=91000000000P AD=100750000000P
+ PS=930000U PD=960000U
* device instance $8 r0 *1 1.94,0.56 nfet_01v8
M$8 7 4 6 10 nfet_01v8 L=150000U W=650000U AS=100750000000P AD=172250000000P
+ PS=960000U PD=1830000U
.ENDS sky130_fd_sc_hd__a211oi_1

* cell sky130_fd_sc_hd__buf_4
* pin VPB
* pin A
* pin VPWR
* pin VGND
* pin X
* pin 
.SUBCKT sky130_fd_sc_hd__buf_4 1 3 4 5 6 7
* net 1 VPB
* net 3 A
* net 4 VPWR
* net 5 VGND
* net 6 X
* device instance $1 r0 *1 0.47,1.985 pfet_01v8_hvt
M$1 4 3 2 1 pfet_01v8_hvt L=150000U W=1000000U AS=260000000000P
+ AD=135000000000P PS=2520000U PD=1270000U
* device instance $2 r0 *1 0.89,1.985 pfet_01v8_hvt
M$2 6 2 4 1 pfet_01v8_hvt L=150000U W=4000000U AS=540000000000P
+ AD=665000000000P PS=5080000U PD=6330000U
* device instance $6 r0 *1 0.47,0.56 nfet_01v8
M$6 5 3 2 7 nfet_01v8 L=150000U W=650000U AS=169000000000P AD=87750000000P
+ PS=1820000U PD=920000U
* device instance $7 r0 *1 0.89,0.56 nfet_01v8
M$7 6 2 5 7 nfet_01v8 L=150000U W=2600000U AS=351000000000P AD=432250000000P
+ PS=3680000U PD=4580000U
.ENDS sky130_fd_sc_hd__buf_4

* cell sky130_fd_sc_hd__ha_1
* pin VGND
* pin SUM
* pin COUT
* pin A
* pin B
* pin VPWR
* pin VPB
* pin 
.SUBCKT sky130_fd_sc_hd__ha_1 1 2 5 8 9 10 11 13
* net 1 VGND
* net 2 SUM
* net 5 COUT
* net 8 A
* net 9 B
* net 10 VPWR
* net 11 VPB
* device instance $1 r0 *1 0.47,1.985 pfet_01v8_hvt
M$1 10 3 2 11 pfet_01v8_hvt L=150000U W=1000000U AS=260000000000P
+ AD=236050000000P PS=2520000U PD=1765000U
* device instance $2 r0 *1 1.385,2.275 pfet_01v8_hvt
M$2 3 7 10 11 pfet_01v8_hvt L=150000U W=420000U AS=236050000000P
+ AD=56700000000P PS=1765000U PD=690000U
* device instance $3 r0 *1 1.805,2.275 pfet_01v8_hvt
M$3 12 9 3 11 pfet_01v8_hvt L=150000U W=420000U AS=56700000000P AD=84000000000P
+ PS=690000U PD=820000U
* device instance $4 r0 *1 2.355,2.275 pfet_01v8_hvt
M$4 10 8 12 11 pfet_01v8_hvt L=150000U W=420000U AS=84000000000P
+ AD=149100000000P PS=820000U PD=1130000U
* device instance $5 r0 *1 3.215,2.275 pfet_01v8_hvt
M$5 7 9 10 11 pfet_01v8_hvt L=150000U W=420000U AS=149100000000P
+ AD=60900000000P PS=1130000U PD=710000U
* device instance $6 r0 *1 3.655,2.275 pfet_01v8_hvt
M$6 7 8 10 11 pfet_01v8_hvt L=150000U W=420000U AS=140750000000P
+ AD=60900000000P PS=1325000U PD=710000U
* device instance $7 r0 *1 4.13,1.985 pfet_01v8_hvt
M$7 5 7 10 11 pfet_01v8_hvt L=150000U W=1000000U AS=140750000000P
+ AD=260000000000P PS=1325000U PD=2520000U
* device instance $8 r0 *1 3.295,0.445 nfet_01v8
M$8 6 9 7 13 nfet_01v8 L=150000U W=420000U AS=109200000000P AD=44100000000P
+ PS=1360000U PD=630000U
* device instance $9 r0 *1 3.655,0.445 nfet_01v8
M$9 1 8 6 13 nfet_01v8 L=150000U W=420000U AS=44100000000P AD=97000000000P
+ PS=630000U PD=975000U
* device instance $10 r0 *1 4.13,0.56 nfet_01v8
M$10 5 7 1 13 nfet_01v8 L=150000U W=650000U AS=97000000000P AD=169000000000P
+ PS=975000U PD=1820000U
* device instance $11 r0 *1 1.41,0.445 nfet_01v8
M$11 4 7 3 13 nfet_01v8 L=150000U W=420000U AS=109200000000P AD=56700000000P
+ PS=1360000U PD=690000U
* device instance $12 r0 *1 1.83,0.445 nfet_01v8
M$12 1 9 4 13 nfet_01v8 L=150000U W=420000U AS=56700000000P AD=56700000000P
+ PS=690000U PD=690000U
* device instance $13 r0 *1 2.25,0.445 nfet_01v8
M$13 4 8 1 13 nfet_01v8 L=150000U W=420000U AS=56700000000P AD=109200000000P
+ PS=690000U PD=1360000U
* device instance $14 r0 *1 0.47,0.56 nfet_01v8
M$14 1 3 2 13 nfet_01v8 L=150000U W=650000U AS=169000000000P AD=169000000000P
+ PS=1820000U PD=1820000U
.ENDS sky130_fd_sc_hd__ha_1

* cell sky130_fd_sc_hd__dlymetal6s2s_1
* pin VGND
* pin X
* pin A
* pin VPWR
* pin VPB
* pin 
.SUBCKT sky130_fd_sc_hd__dlymetal6s2s_1 1 3 8 9 10 11
* net 1 VGND
* net 3 X
* net 8 A
* net 9 VPWR
* net 10 VPB
* device instance $1 r0 *1 3.655,2.275 pfet_01v8_hvt
M$1 6 5 9 10 pfet_01v8_hvt L=150000U W=420000U AS=140750000000P
+ AD=109200000000P PS=1325000U PD=1360000U
* device instance $2 r0 *1 4.13,1.985 pfet_01v8_hvt
M$2 7 6 9 10 pfet_01v8_hvt L=150000U W=1000000U AS=140750000000P
+ AD=260000000000P PS=1325000U PD=2520000U
* device instance $3 r0 *1 2.24,2.275 pfet_01v8_hvt
M$3 4 3 9 10 pfet_01v8_hvt L=150000U W=420000U AS=140750000000P
+ AD=109200000000P PS=1325000U PD=1360000U
* device instance $4 r0 *1 2.715,1.985 pfet_01v8_hvt
M$4 5 4 9 10 pfet_01v8_hvt L=150000U W=1000000U AS=140750000000P
+ AD=260000000000P PS=1325000U PD=2520000U
* device instance $5 r0 *1 0.645,2.275 pfet_01v8_hvt
M$5 2 8 9 10 pfet_01v8_hvt L=150000U W=420000U AS=140750000000P
+ AD=109200000000P PS=1325000U PD=1360000U
* device instance $6 r0 *1 1.12,1.985 pfet_01v8_hvt
M$6 3 2 9 10 pfet_01v8_hvt L=150000U W=1000000U AS=140750000000P
+ AD=260000000000P PS=1325000U PD=2520000U
* device instance $7 r0 *1 3.655,0.445 nfet_01v8
M$7 1 5 6 11 nfet_01v8 L=150000U W=420000U AS=109200000000P AD=97000000000P
+ PS=1360000U PD=975000U
* device instance $8 r0 *1 4.13,0.56 nfet_01v8
M$8 7 6 1 11 nfet_01v8 L=150000U W=650000U AS=97000000000P AD=169000000000P
+ PS=975000U PD=1820000U
* device instance $9 r0 *1 0.645,0.445 nfet_01v8
M$9 1 8 2 11 nfet_01v8 L=150000U W=420000U AS=109200000000P AD=97000000000P
+ PS=1360000U PD=975000U
* device instance $10 r0 *1 1.12,0.56 nfet_01v8
M$10 3 2 1 11 nfet_01v8 L=150000U W=650000U AS=97000000000P AD=169000000000P
+ PS=975000U PD=1820000U
* device instance $11 r0 *1 2.24,0.445 nfet_01v8
M$11 1 3 4 11 nfet_01v8 L=150000U W=420000U AS=109200000000P AD=97000000000P
+ PS=1360000U PD=975000U
* device instance $12 r0 *1 2.715,0.56 nfet_01v8
M$12 5 4 1 11 nfet_01v8 L=150000U W=650000U AS=97000000000P AD=169000000000P
+ PS=975000U PD=1820000U
.ENDS sky130_fd_sc_hd__dlymetal6s2s_1

* cell sky130_fd_sc_hd__clkbuf_1
* pin VPB
* pin A
* pin X
* pin VGND
* pin VPWR
* pin 
.SUBCKT sky130_fd_sc_hd__clkbuf_1 1 3 4 5 6 7
* net 1 VPB
* net 3 A
* net 4 X
* net 5 VGND
* net 6 VPWR
* device instance $1 r0 *1 0.47,2.09 pfet_01v8_hvt
M$1 6 2 4 1 pfet_01v8_hvt L=150000U W=790000U AS=205400000000P AD=114550000000P
+ PS=2100000U PD=1080000U
* device instance $2 r0 *1 0.91,2.09 pfet_01v8_hvt
M$2 2 3 6 1 pfet_01v8_hvt L=150000U W=790000U AS=114550000000P AD=205400000000P
+ PS=1080000U PD=2100000U
* device instance $3 r0 *1 0.47,0.495 nfet_01v8
M$3 5 2 4 7 nfet_01v8 L=150000U W=520000U AS=135200000000P AD=75400000000P
+ PS=1560000U PD=810000U
* device instance $4 r0 *1 0.91,0.495 nfet_01v8
M$4 2 3 5 7 nfet_01v8 L=150000U W=520000U AS=75400000000P AD=135200000000P
+ PS=810000U PD=1560000U
.ENDS sky130_fd_sc_hd__clkbuf_1

* cell sky130_fd_sc_hd__clkbuf_4
* pin VPB
* pin A
* pin VGND
* pin X
* pin VPWR
* pin 
.SUBCKT sky130_fd_sc_hd__clkbuf_4 1 3 4 5 6 7
* net 1 VPB
* net 3 A
* net 4 VGND
* net 5 X
* net 6 VPWR
* device instance $1 r0 *1 0.475,1.985 pfet_01v8_hvt
M$1 6 3 2 1 pfet_01v8_hvt L=150000U W=1000000U AS=265000000000P
+ AD=165000000000P PS=2530000U PD=1330000U
* device instance $2 r0 *1 0.955,1.985 pfet_01v8_hvt
M$2 5 2 6 1 pfet_01v8_hvt L=150000U W=4000000U AS=585000000000P
+ AD=720000000000P PS=5170000U PD=6440000U
* device instance $6 r0 *1 0.475,0.445 nfet_01v8
M$6 4 3 2 7 nfet_01v8 L=150000U W=420000U AS=111300000000P AD=70350000000P
+ PS=1370000U PD=755000U
* device instance $7 r0 *1 0.96,0.445 nfet_01v8
M$7 5 2 4 7 nfet_01v8 L=150000U W=1680000U AS=246750000000P AD=298200000000P
+ PS=2855000U PD=3520000U
.ENDS sky130_fd_sc_hd__clkbuf_4

* cell sky130_fd_sc_hd__dfxtp_1
* pin VGND
* pin Q
* pin CLK
* pin D
* pin VPWR
* pin VPB
* pin 
.SUBCKT sky130_fd_sc_hd__dfxtp_1 1 9 12 13 14 15 18
* net 1 VGND
* net 9 Q
* net 12 CLK
* net 13 D
* net 14 VPWR
* net 15 VPB
* device instance $1 r0 *1 1.83,2.275 pfet_01v8_hvt
M$1 4 13 14 15 pfet_01v8_hvt L=150000U W=420000U AS=109200000000P
+ AD=57750000000P PS=1360000U PD=695000U
* device instance $2 r0 *1 2.255,2.275 pfet_01v8_hvt
M$2 5 3 4 15 pfet_01v8_hvt L=150000U W=420000U AS=57750000000P AD=68250000000P
+ PS=695000U PD=745000U
* device instance $3 r0 *1 2.73,2.275 pfet_01v8_hvt
M$3 16 2 5 15 pfet_01v8_hvt L=150000U W=420000U AS=68250000000P AD=76650000000P
+ PS=745000U PD=785000U
* device instance $4 r0 *1 3.245,2.275 pfet_01v8_hvt
M$4 16 6 14 15 pfet_01v8_hvt L=150000U W=420000U AS=178875000000P
+ AD=76650000000P PS=1260000U PD=785000U
* device instance $5 r0 *1 3.905,2.11 pfet_01v8_hvt
M$5 6 5 14 15 pfet_01v8_hvt L=150000U W=750000U AS=178875000000P
+ AD=109500000000P PS=1260000U PD=1075000U
* device instance $6 r0 *1 4.38,2.275 pfet_01v8_hvt
M$6 7 2 6 15 pfet_01v8_hvt L=150000U W=420000U AS=109500000000P AD=56700000000P
+ PS=1075000U PD=690000U
* device instance $7 r0 *1 4.8,2.275 pfet_01v8_hvt
M$7 17 3 7 15 pfet_01v8_hvt L=150000U W=420000U AS=56700000000P AD=88200000000P
+ PS=690000U PD=840000U
* device instance $8 r0 *1 5.37,2.275 pfet_01v8_hvt
M$8 14 8 17 15 pfet_01v8_hvt L=150000U W=420000U AS=88200000000P
+ AD=111300000000P PS=840000U PD=1370000U
* device instance $9 r0 *1 0.47,2.135 pfet_01v8_hvt
M$9 14 12 2 15 pfet_01v8_hvt L=150000U W=640000U AS=166400000000P
+ AD=86400000000P PS=1800000U PD=910000U
* device instance $10 r0 *1 0.89,2.135 pfet_01v8_hvt
M$10 3 2 14 15 pfet_01v8_hvt L=150000U W=640000U AS=86400000000P
+ AD=166400000000P PS=910000U PD=1800000U
* device instance $11 r0 *1 6.42,1.985 pfet_01v8_hvt
M$11 14 7 8 15 pfet_01v8_hvt L=150000U W=1000000U AS=270000000000P
+ AD=135000000000P PS=2540000U PD=1270000U
* device instance $12 r0 *1 6.84,1.985 pfet_01v8_hvt
M$12 9 8 14 15 pfet_01v8_hvt L=150000U W=1000000U AS=135000000000P
+ AD=260000000000P PS=1270000U PD=2520000U
* device instance $13 r0 *1 6.43,0.56 nfet_01v8
M$13 1 7 8 18 nfet_01v8 L=150000U W=650000U AS=169000000000P AD=87750000000P
+ PS=1820000U PD=920000U
* device instance $14 r0 *1 6.85,0.56 nfet_01v8
M$14 9 8 1 18 nfet_01v8 L=150000U W=650000U AS=87750000000P AD=169000000000P
+ PS=920000U PD=1820000U
* device instance $15 r0 *1 0.47,0.445 nfet_01v8
M$15 1 12 2 18 nfet_01v8 L=150000U W=420000U AS=109200000000P AD=56700000000P
+ PS=1360000U PD=690000U
* device instance $16 r0 *1 0.89,0.445 nfet_01v8
M$16 3 2 1 18 nfet_01v8 L=150000U W=420000U AS=56700000000P AD=109200000000P
+ PS=690000U PD=1360000U
* device instance $17 r0 *1 2.39,0.415 nfet_01v8
M$17 5 2 4 18 nfet_01v8 L=150000U W=360000U AS=81300000000P AD=62100000000P
+ PS=830000U PD=705000U
* device instance $18 r0 *1 2.885,0.415 nfet_01v8
M$18 11 3 5 18 nfet_01v8 L=150000U W=360000U AS=62100000000P AD=69600000000P
+ PS=705000U PD=765000U
* device instance $19 r0 *1 4.48,0.415 nfet_01v8
M$19 7 3 6 18 nfet_01v8 L=150000U W=360000U AS=98900000000P AD=68400000000P
+ PS=995000U PD=740000U
* device instance $20 r0 *1 5.01,0.415 nfet_01v8
M$20 10 2 7 18 nfet_01v8 L=150000U W=360000U AS=68400000000P AD=66000000000P
+ PS=740000U PD=745000U
* device instance $21 r0 *1 1.83,0.445 nfet_01v8
M$21 4 13 1 18 nfet_01v8 L=150000U W=420000U AS=109200000000P AD=81300000000P
+ PS=1360000U PD=830000U
* device instance $22 r0 *1 3.38,0.445 nfet_01v8
M$22 1 6 11 18 nfet_01v8 L=150000U W=420000U AS=69600000000P AD=120950000000P
+ PS=765000U PD=1085000U
* device instance $23 r0 *1 5.485,0.445 nfet_01v8
M$23 1 8 10 18 nfet_01v8 L=150000U W=420000U AS=66000000000P AD=109200000000P
+ PS=745000U PD=1360000U
* device instance $24 r0 *1 3.975,0.555 nfet_01v8
M$24 6 5 1 18 nfet_01v8 L=150000U W=640000U AS=120950000000P AD=98900000000P
+ PS=1085000U PD=995000U
.ENDS sky130_fd_sc_hd__dfxtp_1

* cell sky130_fd_sc_hd__and3_1
* pin VGND
* pin B
* pin X
* pin A
* pin C
* pin VPWR
* pin VPB
* pin 
.SUBCKT sky130_fd_sc_hd__and3_1 1 2 3 6 7 9 10 11
* net 1 VGND
* net 2 B
* net 3 X
* net 6 A
* net 7 C
* net 9 VPWR
* net 10 VPB
* device instance $1 r0 *1 0.47,1.71 pfet_01v8_hvt
M$1 9 6 8 10 pfet_01v8_hvt L=150000U W=420000U AS=109200000000P AD=56700000000P
+ PS=1360000U PD=690000U
* device instance $2 r0 *1 0.89,1.71 pfet_01v8_hvt
M$2 8 2 9 10 pfet_01v8_hvt L=150000U W=420000U AS=56700000000P AD=66150000000P
+ PS=690000U PD=735000U
* device instance $3 r0 *1 1.355,1.71 pfet_01v8_hvt
M$3 8 7 9 10 pfet_01v8_hvt L=150000U W=420000U AS=142225000000P AD=66150000000P
+ PS=1335000U PD=735000U
* device instance $4 r0 *1 1.83,1.985 pfet_01v8_hvt
M$4 3 8 9 10 pfet_01v8_hvt L=150000U W=1000000U AS=142225000000P
+ AD=260000000000P PS=1335000U PD=2520000U
* device instance $5 r0 *1 0.47,0.445 nfet_01v8
M$5 5 6 8 11 nfet_01v8 L=150000U W=420000U AS=109200000000P AD=44100000000P
+ PS=1360000U PD=630000U
* device instance $6 r0 *1 0.83,0.445 nfet_01v8
M$6 4 2 5 11 nfet_01v8 L=150000U W=420000U AS=44100000000P AD=44100000000P
+ PS=630000U PD=630000U
* device instance $7 r0 *1 1.19,0.445 nfet_01v8
M$7 1 7 4 11 nfet_01v8 L=150000U W=420000U AS=44100000000P AD=131650000000P
+ PS=630000U PD=1140000U
* device instance $8 r0 *1 1.83,0.56 nfet_01v8
M$8 3 8 1 11 nfet_01v8 L=150000U W=650000U AS=131650000000P AD=169000000000P
+ PS=1140000U PD=1820000U
.ENDS sky130_fd_sc_hd__and3_1

* cell sky130_fd_sc_hd__a21oi_1
* pin VPB
* pin B1
* pin A1
* pin A2
* pin VGND
* pin VPWR
* pin Y
* pin 
.SUBCKT sky130_fd_sc_hd__a21oi_1 1 2 3 4 5 7 8 9
* net 1 VPB
* net 2 B1
* net 3 A1
* net 4 A2
* net 5 VGND
* net 7 VPWR
* net 8 Y
* device instance $1 r0 *1 0.49,1.985 pfet_01v8_hvt
M$1 6 2 8 1 pfet_01v8_hvt L=150000U W=1000000U AS=265000000000P
+ AD=140000000000P PS=2530000U PD=1280000U
* device instance $2 r0 *1 0.92,1.985 pfet_01v8_hvt
M$2 7 3 6 1 pfet_01v8_hvt L=150000U W=1000000U AS=140000000000P
+ AD=147500000000P PS=1280000U PD=1295000U
* device instance $3 r0 *1 1.365,1.985 pfet_01v8_hvt
M$3 6 4 7 1 pfet_01v8_hvt L=150000U W=1000000U AS=147500000000P
+ AD=265000000000P PS=1295000U PD=2530000U
* device instance $4 r0 *1 0.49,0.56 nfet_01v8
M$4 8 2 5 9 nfet_01v8 L=150000U W=650000U AS=172250000000P AD=91000000000P
+ PS=1830000U PD=930000U
* device instance $5 r0 *1 0.92,0.56 nfet_01v8
M$5 10 3 8 9 nfet_01v8 L=150000U W=650000U AS=91000000000P AD=95875000000P
+ PS=930000U PD=945000U
* device instance $6 r0 *1 1.365,0.56 nfet_01v8
M$6 5 4 10 9 nfet_01v8 L=150000U W=650000U AS=95875000000P AD=172250000000P
+ PS=945000U PD=1830000U
.ENDS sky130_fd_sc_hd__a21oi_1

* cell sky130_fd_sc_hd__xor2_1
* pin VPB
* pin B
* pin A
* pin VPWR
* pin X
* pin VGND
* pin 
.SUBCKT sky130_fd_sc_hd__xor2_1 1 2 3 6 7 8 9
* net 1 VPB
* net 2 B
* net 3 A
* net 6 VPWR
* net 7 X
* net 8 VGND
* device instance $1 r0 *1 2.71,1.985 pfet_01v8_hvt
M$1 7 4 5 1 pfet_01v8_hvt L=150000U W=1000000U AS=260000000000P
+ AD=300000000000P PS=2520000U PD=2600000U
* device instance $2 r0 *1 0.51,1.985 pfet_01v8_hvt
M$2 10 2 4 1 pfet_01v8_hvt L=150000U W=1000000U AS=260000000000P
+ AD=135000000000P PS=2520000U PD=1270000U
* device instance $3 r0 *1 0.93,1.985 pfet_01v8_hvt
M$3 6 3 10 1 pfet_01v8_hvt L=150000U W=1000000U AS=135000000000P
+ AD=135000000000P PS=1270000U PD=1270000U
* device instance $4 r0 *1 1.35,1.985 pfet_01v8_hvt
M$4 5 3 6 1 pfet_01v8_hvt L=150000U W=1000000U AS=135000000000P
+ AD=135000000000P PS=1270000U PD=1270000U
* device instance $5 r0 *1 1.77,1.985 pfet_01v8_hvt
M$5 6 2 5 1 pfet_01v8_hvt L=150000U W=1000000U AS=135000000000P
+ AD=260000000000P PS=1270000U PD=2520000U
* device instance $6 r0 *1 0.51,0.56 nfet_01v8
M$6 4 2 8 9 nfet_01v8 L=150000U W=650000U AS=169000000000P AD=87750000000P
+ PS=1820000U PD=920000U
* device instance $7 r0 *1 0.93,0.56 nfet_01v8
M$7 8 3 4 9 nfet_01v8 L=150000U W=650000U AS=87750000000P AD=87750000000P
+ PS=920000U PD=920000U
* device instance $8 r0 *1 1.35,0.56 nfet_01v8
M$8 11 3 8 9 nfet_01v8 L=150000U W=650000U AS=87750000000P AD=87750000000P
+ PS=920000U PD=920000U
* device instance $9 r0 *1 1.77,0.56 nfet_01v8
M$9 7 2 11 9 nfet_01v8 L=150000U W=650000U AS=87750000000P AD=250250000000P
+ PS=920000U PD=1420000U
* device instance $10 r0 *1 2.69,0.56 nfet_01v8
M$10 8 4 7 9 nfet_01v8 L=150000U W=650000U AS=250250000000P AD=208000000000P
+ PS=1420000U PD=1940000U
.ENDS sky130_fd_sc_hd__xor2_1

* cell sky130_fd_sc_hd__mux2i_1
* pin VGND
* pin Y
* pin A0
* pin A1
* pin S
* pin VPWR
* pin VPB
* pin 
.SUBCKT sky130_fd_sc_hd__mux2i_1 1 3 6 7 8 10 11 13
* net 1 VGND
* net 3 Y
* net 6 A0
* net 7 A1
* net 8 S
* net 10 VPWR
* net 11 VPB
* device instance $1 r0 *1 3.21,1.985 pfet_01v8_hvt
M$1 10 8 5 11 pfet_01v8_hvt L=150000U W=1000000U AS=290000000000P
+ AD=260000000000P PS=2580000U PD=2520000U
* device instance $2 r0 *1 0.49,1.985 pfet_01v8_hvt
M$2 3 6 9 11 pfet_01v8_hvt L=150000U W=1000000U AS=280000000000P
+ AD=152500000000P PS=2560000U PD=1305000U
* device instance $3 r0 *1 0.945,1.985 pfet_01v8_hvt
M$3 12 7 3 11 pfet_01v8_hvt L=150000U W=1000000U AS=152500000000P
+ AD=197500000000P PS=1305000U PD=1395000U
* device instance $4 r0 *1 1.49,1.985 pfet_01v8_hvt
M$4 10 5 12 11 pfet_01v8_hvt L=150000U W=1000000U AS=197500000000P
+ AD=300000000000P PS=1395000U PD=1600000U
* device instance $5 r0 *1 2.24,1.985 pfet_01v8_hvt
M$5 9 8 10 11 pfet_01v8_hvt L=150000U W=1000000U AS=300000000000P
+ AD=260000000000P PS=1600000U PD=2520000U
* device instance $6 r0 *1 3.21,0.56 nfet_01v8
M$6 1 8 5 13 nfet_01v8 L=150000U W=650000U AS=169000000000P AD=169000000000P
+ PS=1820000U PD=1820000U
* device instance $7 r0 *1 1.85,0.56 nfet_01v8
M$7 1 5 2 13 nfet_01v8 L=150000U W=650000U AS=169000000000P AD=87750000000P
+ PS=1820000U PD=920000U
* device instance $8 r0 *1 2.27,0.56 nfet_01v8
M$8 4 8 1 13 nfet_01v8 L=150000U W=650000U AS=87750000000P AD=169000000000P
+ PS=920000U PD=1820000U
* device instance $9 r0 *1 0.47,0.56 nfet_01v8
M$9 3 6 2 13 nfet_01v8 L=150000U W=650000U AS=169000000000P AD=87750000000P
+ PS=1820000U PD=920000U
* device instance $10 r0 *1 0.89,0.56 nfet_01v8
M$10 4 7 3 13 nfet_01v8 L=150000U W=650000U AS=87750000000P AD=182000000000P
+ PS=920000U PD=1860000U
.ENDS sky130_fd_sc_hd__mux2i_1

* cell sky130_fd_sc_hd__xor3_1
* pin VGND
* pin X
* pin C
* pin B
* pin A
* pin VPWR
* pin VPB
* pin 
.SUBCKT sky130_fd_sc_hd__xor3_1 1 2 5 11 12 13 14 15
* net 1 VGND
* net 2 X
* net 5 C
* net 11 B
* net 12 A
* net 13 VPWR
* net 14 VPB
* device instance $1 r0 *1 1.255,1.805 pfet_01v8_hvt
M$1 6 5 13 14 pfet_01v8_hvt L=150000U W=640000U AS=211500000000P
+ AD=179200000000P PS=1450000U PD=1840000U