* CDL Netlist generated by OpenROAD

*.BUSDELIMITER [

.SUBCKT configurable_param_fifo almost_empty almost_full clk
+ empty full rd_data[0] rd_data[1] rd_data[2] rd_data[3] rd_data[4]
+ rd_data[5] rd_data[6] rd_data[7] rd_en rst_n wr_data[0] wr_data[1]
+ wr_data[2] wr_data[3] wr_data[4] wr_data[5] wr_data[6] wr_data[7]
+ wr_en
X_564_ wr_ptr\[4\] rd_ptr\[4\] _153_ VDD VSS XOR2_X2
X_565_ _547_ _154_ VDD VSS BUF_X1
X_566_ _550_ _155_ VDD VSS BUF_X2
X_567_ _552_ _554_ _154_ _155_ _156_ VDD VSS AND4_X2
X_568_ _153_ _156_ _157_ VDD VSS NAND2_X2
X_569_ _157_ net6 VDD VSS INV_X4
X_570_ wr_ptr\[4\] rd_ptr\[4\] _158_ VDD VSS XNOR2_X2
X_571_ _158_ _156_ _159_ VDD VSS NAND2_X1
X_572_ _159_ net5 VDD VSS INV_X4
X_573_ _551_ _542_ VDD VSS INV_X1
X_574_ wr_data[0] _160_ VDD VSS BUF_X2
X_575_ _160_ _161_ VDD VSS BUF_X2
X_576_ _556_ _162_ VDD VSS BUF_X4
X_577_ wr_addr\[3\] _163_ VDD VSS BUF_X4
X_578_ wr_addr\[2\] _164_ VDD VSS INV_X1
X_579_ net2 _164_ _165_ VDD VSS NAND2_X2
X_580_ _163_ net6 _165_ _166_ VDD VSS NOR3_X4
X_581_ _162_ _166_ _167_ VDD VSS NAND2_X4
X_582_ _161_ mem\[0\]\[0\] _167_ _006_ VDD VSS MUX2_X1
X_583_ wr_data[1] _168_ VDD VSS BUF_X2
X_584_ _168_ _169_ VDD VSS BUF_X2
X_585_ _169_ mem\[0\]\[1\] _167_ _007_ VDD VSS MUX2_X1
X_586_ wr_data[2] _170_ VDD VSS CLKBUF_X2
X_587_ _170_ _171_ VDD VSS BUF_X2
X_588_ _171_ mem\[0\]\[2\] _167_ _008_ VDD VSS MUX2_X1
X_589_ wr_data[3] _172_ VDD VSS BUF_X2
X_590_ _172_ _173_ VDD VSS BUF_X2
X_591_ _173_ mem\[0\]\[3\] _167_ _009_ VDD VSS MUX2_X1
X_592_ wr_data[4] _174_ VDD VSS CLKBUF_X2
X_593_ _174_ _175_ VDD VSS BUF_X2
X_594_ _175_ mem\[0\]\[4\] _167_ _010_ VDD VSS MUX2_X1
X_595_ wr_data[5] _176_ VDD VSS BUF_X2
X_596_ _176_ _177_ VDD VSS CLKBUF_X3
X_597_ _177_ mem\[0\]\[5\] _167_ _011_ VDD VSS MUX2_X1
X_598_ wr_data[6] _178_ VDD VSS BUF_X2
X_599_ _178_ _179_ VDD VSS BUF_X2
X_600_ _179_ mem\[0\]\[6\] _167_ _012_ VDD VSS MUX2_X1
X_601_ wr_data[7] _180_ VDD VSS BUF_X2
X_602_ _180_ _181_ VDD VSS CLKBUF_X3
X_603_ _181_ mem\[0\]\[7\] _167_ _013_ VDD VSS MUX2_X1
X_604_ _557_ _182_ VDD VSS BUF_X4
X_605_ _163_ _183_ VDD VSS INV_X1
X_606_ _183_ net6 _165_ _184_ VDD VSS NOR3_X4
X_607_ _182_ _184_ _185_ VDD VSS NAND2_X4
X_608_ _161_ mem\[10\]\[0\] _185_ _014_ VDD VSS MUX2_X1
X_609_ _169_ mem\[10\]\[1\] _185_ _015_ VDD VSS MUX2_X1
X_610_ _171_ mem\[10\]\[2\] _185_ _016_ VDD VSS MUX2_X1
X_611_ _173_ mem\[10\]\[3\] _185_ _017_ VDD VSS MUX2_X1
X_612_ _175_ mem\[10\]\[4\] _185_ _018_ VDD VSS MUX2_X1
X_613_ _177_ mem\[10\]\[5\] _185_ _019_ VDD VSS MUX2_X1
X_614_ _179_ mem\[10\]\[6\] _185_ _020_ VDD VSS MUX2_X1
X_615_ _181_ mem\[10\]\[7\] _185_ _021_ VDD VSS MUX2_X1
X_616_ _561_ _186_ VDD VSS BUF_X4
X_617_ _186_ _184_ _187_ VDD VSS NAND2_X4
X_618_ _161_ mem\[11\]\[0\] _187_ _022_ VDD VSS MUX2_X1
X_619_ _169_ mem\[11\]\[1\] _187_ _023_ VDD VSS MUX2_X1
X_620_ _171_ mem\[11\]\[2\] _187_ _024_ VDD VSS MUX2_X1
X_621_ _173_ mem\[11\]\[3\] _187_ _025_ VDD VSS MUX2_X1
X_622_ _175_ mem\[11\]\[4\] _187_ _026_ VDD VSS MUX2_X1
X_623_ _177_ mem\[11\]\[5\] _187_ _027_ VDD VSS MUX2_X1
X_624_ _179_ mem\[11\]\[6\] _187_ _028_ VDD VSS MUX2_X1
X_625_ _181_ mem\[11\]\[7\] _187_ _029_ VDD VSS MUX2_X1
X_626_ net2 wr_addr\[2\] _188_ VDD VSS NAND2_X1
X_627_ _183_ _188_ _156_ _153_ _189_ VDD VSS AOI211_X4
X_628_ _162_ _189_ _190_ VDD VSS NAND2_X4
X_629_ _161_ mem\[12\]\[0\] _190_ _030_ VDD VSS MUX2_X1
X_630_ _169_ mem\[12\]\[1\] _190_ _031_ VDD VSS MUX2_X1
X_631_ _171_ mem\[12\]\[2\] _190_ _032_ VDD VSS MUX2_X1
X_632_ _173_ mem\[12\]\[3\] _190_ _033_ VDD VSS MUX2_X1
X_633_ _175_ mem\[12\]\[4\] _190_ _034_ VDD VSS MUX2_X1
X_634_ _177_ mem\[12\]\[5\] _190_ _035_ VDD VSS MUX2_X1
X_635_ _179_ mem\[12\]\[6\] _190_ _036_ VDD VSS MUX2_X1
X_636_ _181_ mem\[12\]\[7\] _190_ _037_ VDD VSS MUX2_X1
X_637_ _559_ _191_ VDD VSS BUF_X4
X_638_ _191_ _189_ _192_ VDD VSS NAND2_X4
X_639_ _161_ mem\[13\]\[0\] _192_ _038_ VDD VSS MUX2_X1
X_640_ _169_ mem\[13\]\[1\] _192_ _039_ VDD VSS MUX2_X1
X_641_ _171_ mem\[13\]\[2\] _192_ _040_ VDD VSS MUX2_X1
X_642_ _173_ mem\[13\]\[3\] _192_ _041_ VDD VSS MUX2_X1
X_643_ _175_ mem\[13\]\[4\] _192_ _042_ VDD VSS MUX2_X1
X_644_ _177_ mem\[13\]\[5\] _192_ _043_ VDD VSS MUX2_X1
X_645_ _179_ mem\[13\]\[6\] _192_ _044_ VDD VSS MUX2_X1
X_646_ _181_ mem\[13\]\[7\] _192_ _045_ VDD VSS MUX2_X1
X_647_ _182_ _189_ _193_ VDD VSS NAND2_X4
X_648_ _161_ mem\[14\]\[0\] _193_ _046_ VDD VSS MUX2_X1
X_649_ _169_ mem\[14\]\[1\] _193_ _047_ VDD VSS MUX2_X1
X_650_ _171_ mem\[14\]\[2\] _193_ _048_ VDD VSS MUX2_X1
X_651_ _173_ mem\[14\]\[3\] _193_ _049_ VDD VSS MUX2_X1
X_652_ _175_ mem\[14\]\[4\] _193_ _050_ VDD VSS MUX2_X1
X_653_ _177_ mem\[14\]\[5\] _193_ _051_ VDD VSS MUX2_X1
X_654_ _179_ mem\[14\]\[6\] _193_ _052_ VDD VSS MUX2_X1
X_655_ _181_ mem\[14\]\[7\] _193_ _053_ VDD VSS MUX2_X1
X_656_ _186_ _189_ _194_ VDD VSS NAND2_X4
X_657_ _161_ mem\[15\]\[0\] _194_ _054_ VDD VSS MUX2_X1
X_658_ _169_ mem\[15\]\[1\] _194_ _055_ VDD VSS MUX2_X1
X_659_ _171_ mem\[15\]\[2\] _194_ _056_ VDD VSS MUX2_X1
X_660_ _173_ mem\[15\]\[3\] _194_ _057_ VDD VSS MUX2_X1
X_661_ _175_ mem\[15\]\[4\] _194_ _058_ VDD VSS MUX2_X1
X_662_ _177_ mem\[15\]\[5\] _194_ _059_ VDD VSS MUX2_X1
X_663_ _179_ mem\[15\]\[6\] _194_ _060_ VDD VSS MUX2_X1
X_664_ _181_ mem\[15\]\[7\] _194_ _061_ VDD VSS MUX2_X1
X_665_ _191_ _166_ _195_ VDD VSS NAND2_X4
X_666_ _161_ mem\[1\]\[0\] _195_ _062_ VDD VSS MUX2_X1
X_667_ _169_ mem\[1\]\[1\] _195_ _063_ VDD VSS MUX2_X1
X_668_ _171_ mem\[1\]\[2\] _195_ _064_ VDD VSS MUX2_X1
X_669_ _173_ mem\[1\]\[3\] _195_ _065_ VDD VSS MUX2_X1
X_670_ _175_ mem\[1\]\[4\] _195_ _066_ VDD VSS MUX2_X1
X_671_ _177_ mem\[1\]\[5\] _195_ _067_ VDD VSS MUX2_X1
X_672_ _179_ mem\[1\]\[6\] _195_ _068_ VDD VSS MUX2_X1
X_673_ _181_ mem\[1\]\[7\] _195_ _069_ VDD VSS MUX2_X1
X_674_ _182_ _166_ _196_ VDD VSS NAND2_X4
X_675_ _161_ mem\[2\]\[0\] _196_ _070_ VDD VSS MUX2_X1
X_676_ _169_ mem\[2\]\[1\] _196_ _071_ VDD VSS MUX2_X1
X_677_ _171_ mem\[2\]\[2\] _196_ _072_ VDD VSS MUX2_X1
X_678_ _173_ mem\[2\]\[3\] _196_ _073_ VDD VSS MUX2_X1
X_679_ _175_ mem\[2\]\[4\] _196_ _074_ VDD VSS MUX2_X1
X_680_ _177_ mem\[2\]\[5\] _196_ _075_ VDD VSS MUX2_X1
X_681_ _179_ mem\[2\]\[6\] _196_ _076_ VDD VSS MUX2_X1
X_682_ _181_ mem\[2\]\[7\] _196_ _077_ VDD VSS MUX2_X1
X_683_ _186_ _166_ _197_ VDD VSS NAND2_X4
X_684_ _160_ mem\[3\]\[0\] _197_ _078_ VDD VSS MUX2_X1
X_685_ _168_ mem\[3\]\[1\] _197_ _079_ VDD VSS MUX2_X1
X_686_ _170_ mem\[3\]\[2\] _197_ _080_ VDD VSS MUX2_X1
X_687_ _172_ mem\[3\]\[3\] _197_ _081_ VDD VSS MUX2_X1
X_688_ _174_ mem\[3\]\[4\] _197_ _082_ VDD VSS MUX2_X1
X_689_ _176_ mem\[3\]\[5\] _197_ _083_ VDD VSS MUX2_X1
X_690_ _178_ mem\[3\]\[6\] _197_ _084_ VDD VSS MUX2_X1
X_691_ _180_ mem\[3\]\[7\] _197_ _085_ VDD VSS MUX2_X1
X_692_ _163_ net6 _188_ _198_ VDD VSS NOR3_X4
X_693_ _162_ _198_ _199_ VDD VSS NAND2_X4
X_694_ _160_ mem\[4\]\[0\] _199_ _086_ VDD VSS MUX2_X1
X_695_ _168_ mem\[4\]\[1\] _199_ _087_ VDD VSS MUX2_X1
X_696_ _170_ mem\[4\]\[2\] _199_ _088_ VDD VSS MUX2_X1
X_697_ _172_ mem\[4\]\[3\] _199_ _089_ VDD VSS MUX2_X1
X_698_ _174_ mem\[4\]\[4\] _199_ _090_ VDD VSS MUX2_X1
X_699_ _176_ mem\[4\]\[5\] _199_ _091_ VDD VSS MUX2_X1
X_700_ _178_ mem\[4\]\[6\] _199_ _092_ VDD VSS MUX2_X1
X_701_ _180_ mem\[4\]\[7\] _199_ _093_ VDD VSS MUX2_X1
X_702_ _191_ _198_ _200_ VDD VSS NAND2_X4
X_703_ _160_ mem\[5\]\[0\] _200_ _094_ VDD VSS MUX2_X1
X_704_ _168_ mem\[5\]\[1\] _200_ _095_ VDD VSS MUX2_X1
X_705_ _170_ mem\[5\]\[2\] _200_ _096_ VDD VSS MUX2_X1
X_706_ _172_ mem\[5\]\[3\] _200_ _097_ VDD VSS MUX2_X1
X_707_ _174_ mem\[5\]\[4\] _200_ _098_ VDD VSS MUX2_X1
X_708_ _176_ mem\[5\]\[5\] _200_ _099_ VDD VSS MUX2_X1
X_709_ _178_ mem\[5\]\[6\] _200_ _100_ VDD VSS MUX2_X1
X_710_ _180_ mem\[5\]\[7\] _200_ _101_ VDD VSS MUX2_X1
X_711_ _182_ _198_ _201_ VDD VSS NAND2_X4
X_712_ _160_ mem\[6\]\[0\] _201_ _102_ VDD VSS MUX2_X1
X_713_ _168_ mem\[6\]\[1\] _201_ _103_ VDD VSS MUX2_X1
X_714_ _170_ mem\[6\]\[2\] _201_ _104_ VDD VSS MUX2_X1
X_715_ _172_ mem\[6\]\[3\] _201_ _105_ VDD VSS MUX2_X1
X_716_ _174_ mem\[6\]\[4\] _201_ _106_ VDD VSS MUX2_X1
X_717_ _176_ mem\[6\]\[5\] _201_ _107_ VDD VSS MUX2_X1
X_718_ _178_ mem\[6\]\[6\] _201_ _108_ VDD VSS MUX2_X1
X_719_ _180_ mem\[6\]\[7\] _201_ _109_ VDD VSS MUX2_X1
X_720_ _186_ _198_ _202_ VDD VSS AND2_X1
X_721_ _202_ _203_ VDD VSS BUF_X8
X_722_ mem\[7\]\[0\] _161_ _203_ _110_ VDD VSS MUX2_X1
X_723_ mem\[7\]\[1\] _169_ _203_ _111_ VDD VSS MUX2_X1
X_724_ mem\[7\]\[2\] _171_ _203_ _112_ VDD VSS MUX2_X1
X_725_ mem\[7\]\[3\] _173_ _203_ _113_ VDD VSS MUX2_X1
X_726_ mem\[7\]\[4\] _175_ _203_ _114_ VDD VSS MUX2_X1
X_727_ mem\[7\]\[5\] _177_ _203_ _115_ VDD VSS MUX2_X1
X_728_ mem\[7\]\[6\] _179_ _203_ _116_ VDD VSS MUX2_X1
X_729_ mem\[7\]\[7\] _181_ _203_ _117_ VDD VSS MUX2_X1
X_730_ _162_ _184_ _204_ VDD VSS NAND2_X4
X_731_ _160_ mem\[8\]\[0\] _204_ _118_ VDD VSS MUX2_X1
X_732_ _168_ mem\[8\]\[1\] _204_ _119_ VDD VSS MUX2_X1
X_733_ _170_ mem\[8\]\[2\] _204_ _120_ VDD VSS MUX2_X1
X_734_ _172_ mem\[8\]\[3\] _204_ _121_ VDD VSS MUX2_X1
X_735_ _174_ mem\[8\]\[4\] _204_ _122_ VDD VSS MUX2_X1
X_736_ _176_ mem\[8\]\[5\] _204_ _123_ VDD VSS MUX2_X1
X_737_ _178_ mem\[8\]\[6\] _204_ _124_ VDD VSS MUX2_X1
X_738_ _180_ mem\[8\]\[7\] _204_ _125_ VDD VSS MUX2_X1
X_739_ _191_ _184_ _205_ VDD VSS NAND2_X4
X_740_ _160_ mem\[9\]\[0\] _205_ _126_ VDD VSS MUX2_X1
X_741_ _168_ mem\[9\]\[1\] _205_ _127_ VDD VSS MUX2_X1
X_742_ _170_ mem\[9\]\[2\] _205_ _128_ VDD VSS MUX2_X1
X_743_ _172_ mem\[9\]\[3\] _205_ _129_ VDD VSS MUX2_X1
X_744_ _174_ mem\[9\]\[4\] _205_ _130_ VDD VSS MUX2_X1
X_745_ _176_ mem\[9\]\[5\] _205_ _131_ VDD VSS MUX2_X1
X_746_ _178_ mem\[9\]\[6\] _205_ _132_ VDD VSS MUX2_X1
X_747_ _180_ mem\[9\]\[7\] _205_ _133_ VDD VSS MUX2_X1
X_748_ rst_n _206_ VDD VSS BUF_X2
X_749_ _206_ _207_ VDD VSS INV_X2
X_750_ _207_ net5 _208_ VDD VSS NOR2_X1
X_751_ _543_ _154_ _209_ VDD VSS XNOR2_X1
X_752_ _552_ _210_ VDD VSS INV_X1
X_753_ _210_ _544_ _211_ VDD VSS NAND2_X1
X_754_ _209_ _211_ net3 _212_ VDD VSS OAI21_X1
X_755_ _543_ _154_ _155_ _213_ VDD VSS NAND3_X1
X_756_ _549_ _155_ _546_ _214_ VDD VSS AOI21_X1
X_757_ _213_ _214_ _215_ VDD VSS NAND2_X1
X_758_ _153_ _215_ _216_ VDD VSS XNOR2_X1
X_759_ _212_ _216_ _217_ VDD VSS OR2_X1
X_760_ _553_ _218_ VDD VSS INV_X1
X_761_ _554_ _219_ VDD VSS INV_X1
X_762_ _218_ _219_ _551_ _220_ VDD VSS OAI21_X1
X_763_ _546_ _154_ _220_ _221_ VDD VSS AOI21_X2
X_764_ _155_ _221_ _222_ VDD VSS XNOR2_X1
X_765_ _208_ _217_ _222_ _004_ VDD VSS OAI21_X1
X_766_ _206_ _223_ VDD VSS CLKBUF_X3
X_767_ _223_ net6 _216_ _224_ VDD VSS OAI21_X1
X_768_ _544_ net4 _210_ _225_ VDD VSS AOI21_X1
X_769_ _207_ _209_ _225_ _226_ VDD VSS OR3_X1
X_770_ _155_ _221_ _227_ VDD VSS XOR2_X1
X_771_ _224_ _226_ _227_ _005_ VDD VSS OAI21_X1
X_772_ net1 _228_ VDD VSS INV_X1
X_773_ _228_ _158_ _156_ _229_ VDD VSS AOI21_X2
X_774_ _229_ _230_ VDD VSS CLKBUF_X3
X_775_ _230_ _231_ VDD VSS BUF_X4
X_776_ _223_ rd_data_reg\[0\] _231_ _232_ VDD VSS OAI21_X1
X_777_ rd_addr\[1\] _233_ VDD VSS INV_X4
X_778_ rd_addr\[2\] _234_ VDD VSS BUF_X4
X_779_ _234_ _235_ VDD VSS INV_X2
X_780_ rd_addr\[3\] _236_ VDD VSS BUF_X4
X_781_ _236_ _237_ VDD VSS INV_X4
X_782_ _233_ _235_ _237_ _238_ VDD VSS NOR3_X4
X_783_ rd_addr\[0\] _239_ VDD VSS BUF_X4
X_784_ _239_ _240_ VDD VSS BUF_X4
X_785_ mem\[14\]\[0\] mem\[15\]\[0\] _240_ _241_ VDD VSS MUX2_X1
X_786_ _234_ _242_ VDD VSS BUF_X4
X_787_ _240_ _242_ _237_ _243_ VDD VSS NOR3_X4
X_788_ rd_addr\[1\] _244_ VDD VSS BUF_X4
X_789_ mem\[8\]\[0\] mem\[10\]\[0\] _244_ _245_ VDD VSS MUX2_X1
X_790_ _238_ _241_ _243_ _245_ _246_ VDD VSS AOI22_X1
X_791_ _239_ _247_ VDD VSS INV_X4
X_792_ _247_ _242_ _237_ _248_ VDD VSS NOR3_X4
X_793_ _244_ _249_ VDD VSS BUF_X4
X_794_ mem\[9\]\[0\] mem\[11\]\[0\] _249_ _250_ VDD VSS MUX2_X1
X_795_ _244_ _235_ _237_ _251_ VDD VSS NOR3_X4
X_796_ mem\[12\]\[0\] mem\[13\]\[0\] _239_ _252_ VDD VSS MUX2_X1
X_797_ _248_ _250_ _251_ _252_ _253_ VDD VSS AOI22_X1
X_798_ _231_ _246_ _253_ _254_ VDD VSS AND3_X1
X_799_ _240_ _255_ VDD VSS BUF_X4
X_800_ _233_ _256_ VDD VSS BUF_X4
X_801_ _234_ _257_ VDD VSS BUF_X4
X_802_ mem\[2\]\[0\] mem\[6\]\[0\] _257_ _258_ VDD VSS MUX2_X1
X_803_ _255_ _256_ _258_ _259_ VDD VSS NOR3_X1
X_804_ _236_ _259_ _260_ VDD VSS NOR2_X1
X_805_ _247_ _256_ _261_ VDD VSS NAND2_X4
X_806_ _242_ _262_ VDD VSS BUF_X4
X_807_ mem\[0\]\[0\] mem\[4\]\[0\] _262_ _263_ VDD VSS MUX2_X1
X_808_ mem\[3\]\[0\] mem\[7\]\[0\] _257_ _264_ VDD VSS MUX2_X1
X_809_ mem\[1\]\[0\] mem\[5\]\[0\] _242_ _265_ VDD VSS MUX2_X1
X_810_ _264_ _265_ _256_ _266_ VDD VSS MUX2_X1
X_811_ _260_ _261_ _263_ _247_ _266_ _267_ VDD VSS OAI221_X2
X_812_ _232_ _254_ _267_ _134_ VDD VSS AOI21_X1
X_813_ _223_ rd_data_reg\[1\] _231_ _268_ VDD VSS OAI21_X1
X_814_ mem\[8\]\[1\] mem\[10\]\[1\] _249_ _269_ VDD VSS MUX2_X1
X_815_ mem\[14\]\[1\] mem\[15\]\[1\] _240_ _270_ VDD VSS MUX2_X1
X_816_ _243_ _269_ _270_ _238_ _271_ VDD VSS AOI22_X1
X_817_ mem\[9\]\[1\] mem\[11\]\[1\] _244_ _272_ VDD VSS MUX2_X1
X_818_ mem\[12\]\[1\] mem\[13\]\[1\] _239_ _273_ VDD VSS MUX2_X1
X_819_ _248_ _272_ _273_ _251_ _274_ VDD VSS AOI22_X1
X_820_ _231_ _271_ _274_ _275_ VDD VSS AND3_X1
X_821_ mem\[2\]\[1\] mem\[6\]\[1\] _234_ _276_ VDD VSS MUX2_X1
X_822_ _255_ _256_ _276_ _277_ VDD VSS NOR3_X1
X_823_ _236_ _277_ _278_ VDD VSS NOR2_X1
X_824_ mem\[0\]\[1\] mem\[4\]\[1\] _262_ _279_ VDD VSS MUX2_X1
X_825_ mem\[3\]\[1\] mem\[7\]\[1\] _257_ _280_ VDD VSS MUX2_X1
X_826_ mem\[1\]\[1\] mem\[5\]\[1\] _242_ _281_ VDD VSS MUX2_X1
X_827_ _280_ _281_ _233_ _282_ VDD VSS MUX2_X1
X_828_ _278_ _279_ _261_ _247_ _282_ _283_ VDD VSS OAI221_X2
X_829_ _268_ _275_ _283_ _135_ VDD VSS AOI21_X1
X_830_ _223_ rd_data_reg\[2\] _231_ _284_ VDD VSS OAI21_X1
X_831_ mem\[8\]\[2\] mem\[10\]\[2\] _249_ _285_ VDD VSS MUX2_X1
X_832_ mem\[14\]\[2\] mem\[15\]\[2\] _240_ _286_ VDD VSS MUX2_X1
X_833_ _243_ _285_ _286_ _238_ _287_ VDD VSS AOI22_X1
X_834_ mem\[9\]\[2\] mem\[11\]\[2\] _244_ _288_ VDD VSS MUX2_X1
X_835_ mem\[12\]\[2\] mem\[13\]\[2\] _239_ _289_ VDD VSS MUX2_X1
X_836_ _248_ _288_ _289_ _251_ _290_ VDD VSS AOI22_X1
X_837_ _230_ _287_ _290_ _291_ VDD VSS AND3_X1
X_838_ mem\[2\]\[2\] mem\[6\]\[2\] _234_ _292_ VDD VSS MUX2_X1
X_839_ _255_ _256_ _292_ _293_ VDD VSS NOR3_X1
X_840_ _236_ _293_ _294_ VDD VSS NOR2_X1
X_841_ mem\[0\]\[2\] mem\[4\]\[2\] _262_ _295_ VDD VSS MUX2_X1
X_842_ mem\[3\]\[2\] mem\[7\]\[2\] _257_ _296_ VDD VSS MUX2_X1
X_843_ mem\[1\]\[2\] mem\[5\]\[2\] _242_ _297_ VDD VSS MUX2_X1
X_844_ _296_ _297_ _233_ _298_ VDD VSS MUX2_X1
X_845_ _294_ _295_ _261_ _247_ _298_ _299_ VDD VSS OAI221_X2
X_846_ _284_ _291_ _299_ _136_ VDD VSS AOI21_X1
X_847_ _223_ rd_data_reg\[3\] _231_ _300_ VDD VSS OAI21_X1
X_848_ mem\[8\]\[3\] mem\[10\]\[3\] _249_ _301_ VDD VSS MUX2_X1
X_849_ mem\[14\]\[3\] mem\[15\]\[3\] _240_ _302_ VDD VSS MUX2_X1
X_850_ _243_ _301_ _302_ _238_ _303_ VDD VSS AOI22_X1
X_851_ mem\[9\]\[3\] mem\[11\]\[3\] _244_ _304_ VDD VSS MUX2_X1
X_852_ mem\[12\]\[3\] mem\[13\]\[3\] _239_ _305_ VDD VSS MUX2_X1
X_853_ _248_ _304_ _305_ _251_ _306_ VDD VSS AOI22_X1
X_854_ _230_ _303_ _306_ _307_ VDD VSS AND3_X1
X_855_ mem\[2\]\[3\] mem\[6\]\[3\] _234_ _308_ VDD VSS MUX2_X1
X_856_ _255_ _256_ _308_ _309_ VDD VSS NOR3_X1
X_857_ _236_ _309_ _310_ VDD VSS NOR2_X1
X_858_ mem\[0\]\[3\] mem\[4\]\[3\] _262_ _311_ VDD VSS MUX2_X1
X_859_ mem\[3\]\[3\] mem\[7\]\[3\] _257_ _312_ VDD VSS MUX2_X1
X_860_ mem\[1\]\[3\] mem\[5\]\[3\] _242_ _313_ VDD VSS MUX2_X1
X_861_ _312_ _313_ _233_ _314_ VDD VSS MUX2_X1
X_862_ _310_ _311_ _261_ _247_ _314_ _315_ VDD VSS OAI221_X2
X_863_ _300_ _307_ _315_ _137_ VDD VSS AOI21_X1
X_864_ _223_ rd_data_reg\[4\] _231_ _316_ VDD VSS OAI21_X1
X_865_ mem\[8\]\[4\] mem\[10\]\[4\] _249_ _317_ VDD VSS MUX2_X1
X_866_ mem\[14\]\[4\] mem\[15\]\[4\] _240_ _318_ VDD VSS MUX2_X1
X_867_ _243_ _317_ _318_ _238_ _319_ VDD VSS AOI22_X1
X_868_ mem\[9\]\[4\] mem\[11\]\[4\] _244_ _320_ VDD VSS MUX2_X1
X_869_ mem\[12\]\[4\] mem\[13\]\[4\] _239_ _321_ VDD VSS MUX2_X1
X_870_ _248_ _320_ _321_ _251_ _322_ VDD VSS AOI22_X1
X_871_ _230_ _319_ _322_ _323_ VDD VSS AND3_X1
X_872_ mem\[2\]\[4\] mem\[6\]\[4\] _234_ _324_ VDD VSS MUX2_X1
X_873_ _255_ _256_ _324_ _325_ VDD VSS NOR3_X1
X_874_ _236_ _325_ _326_ VDD VSS NOR2_X1
X_875_ mem\[0\]\[4\] mem\[4\]\[4\] _262_ _327_ VDD VSS MUX2_X1
X_876_ mem\[3\]\[4\] mem\[7\]\[4\] _257_ _328_ VDD VSS MUX2_X1
X_877_ mem\[1\]\[4\] mem\[5\]\[4\] _242_ _329_ VDD VSS MUX2_X1
X_878_ _328_ _329_ _233_ _330_ VDD VSS MUX2_X1
X_879_ _326_ _327_ _261_ _247_ _330_ _331_ VDD VSS OAI221_X2
X_880_ _316_ _323_ _331_ _138_ VDD VSS AOI21_X1
X_881_ _206_ rd_data_reg\[5\] _231_ _332_ VDD VSS OAI21_X1
X_882_ mem\[8\]\[5\] mem\[10\]\[5\] _249_ _333_ VDD VSS MUX2_X1
X_883_ mem\[14\]\[5\] mem\[15\]\[5\] _240_ _334_ VDD VSS MUX2_X1
X_884_ _243_ _333_ _334_ _238_ _335_ VDD VSS AOI22_X1
X_885_ mem\[9\]\[5\] mem\[11\]\[5\] _244_ _336_ VDD VSS MUX2_X1
X_886_ mem\[12\]\[5\] mem\[13\]\[5\] _239_ _337_ VDD VSS MUX2_X1
X_887_ _248_ _336_ _337_ _251_ _338_ VDD VSS AOI22_X1
X_888_ _230_ _335_ _338_ _339_ VDD VSS AND3_X1
X_889_ mem\[2\]\[5\] mem\[6\]\[5\] _234_ _340_ VDD VSS MUX2_X1
X_890_ _255_ _256_ _340_ _341_ VDD VSS NOR3_X1
X_891_ _236_ _341_ _342_ VDD VSS NOR2_X1
X_892_ mem\[0\]\[5\] mem\[4\]\[5\] _262_ _343_ VDD VSS MUX2_X1
X_893_ mem\[3\]\[5\] mem\[7\]\[5\] _257_ _344_ VDD VSS MUX2_X1
X_894_ mem\[1\]\[5\] mem\[5\]\[5\] _242_ _345_ VDD VSS MUX2_X1
X_895_ _344_ _345_ _233_ _346_ VDD VSS MUX2_X1
X_896_ _342_ _343_ _261_ _247_ _346_ _347_ VDD VSS OAI221_X2
X_897_ _332_ _339_ _347_ _139_ VDD VSS AOI21_X1
X_898_ _206_ rd_data_reg\[6\] _231_ _348_ VDD VSS OAI21_X1
X_899_ mem\[8\]\[6\] mem\[10\]\[6\] _249_ _349_ VDD VSS MUX2_X1
X_900_ mem\[14\]\[6\] mem\[15\]\[6\] _240_ _350_ VDD VSS MUX2_X1
X_901_ _243_ _349_ _350_ _238_ _351_ VDD VSS AOI22_X1
X_902_ mem\[9\]\[6\] mem\[11\]\[6\] _244_ _352_ VDD VSS MUX2_X1
X_903_ mem\[12\]\[6\] mem\[13\]\[6\] _239_ _353_ VDD VSS MUX2_X1
X_904_ _248_ _352_ _353_ _251_ _354_ VDD VSS AOI22_X1
X_905_ _230_ _351_ _354_ _355_ VDD VSS AND3_X1
X_906_ mem\[2\]\[6\] mem\[6\]\[6\] _234_ _356_ VDD VSS MUX2_X1
X_907_ _255_ _256_ _356_ _357_ VDD VSS NOR3_X1
X_908_ _236_ _357_ _358_ VDD VSS NOR2_X1
X_909_ mem\[0\]\[6\] mem\[4\]\[6\] _262_ _359_ VDD VSS MUX2_X1
X_910_ mem\[3\]\[6\] mem\[7\]\[6\] _257_ _360_ VDD VSS MUX2_X1
X_911_ mem\[1\]\[6\] mem\[5\]\[6\] _242_ _361_ VDD VSS MUX2_X1
X_912_ _360_ _361_ _233_ _362_ VDD VSS MUX2_X1
X_913_ _358_ _359_ _261_ _247_ _362_ _363_ VDD VSS OAI221_X2
X_914_ _348_ _355_ _363_ _140_ VDD VSS AOI21_X1
X_915_ _206_ rd_data_reg\[7\] _231_ _364_ VDD VSS OAI21_X1
X_916_ mem\[8\]\[7\] mem\[10\]\[7\] _249_ _365_ VDD VSS MUX2_X1
X_917_ mem\[14\]\[7\] mem\[15\]\[7\] _240_ _366_ VDD VSS MUX2_X1
X_918_ _243_ _365_ _366_ _238_ _367_ VDD VSS AOI22_X1
X_919_ mem\[9\]\[7\] mem\[11\]\[7\] _244_ _368_ VDD VSS MUX2_X1
X_920_ mem\[12\]\[7\] mem\[13\]\[7\] _239_ _369_ VDD VSS MUX2_X1
X_921_ _248_ _368_ _369_ _251_ _370_ VDD VSS AOI22_X1
X_922_ _230_ _367_ _370_ _371_ VDD VSS AND3_X1
X_923_ mem\[2\]\[7\] mem\[6\]\[7\] _234_ _372_ VDD VSS MUX2_X1
X_924_ _255_ _256_ _372_ _373_ VDD VSS NOR3_X1
X_925_ _236_ _373_ _374_ VDD VSS NOR2_X1
X_926_ mem\[0\]\[7\] mem\[4\]\[7\] _262_ _375_ VDD VSS MUX2_X1
X_927_ mem\[3\]\[7\] mem\[7\]\[7\] _257_ _376_ VDD VSS MUX2_X1
X_928_ mem\[1\]\[7\] mem\[5\]\[7\] _257_ _377_ VDD VSS MUX2_X1
X_929_ _376_ _377_ _233_ _378_ VDD VSS MUX2_X1
X_930_ _374_ _375_ _261_ _247_ _378_ _379_ VDD VSS OAI221_X1
X_931_ _364_ _371_ _379_ _141_ VDD VSS AOI21_X1
X_932_ _255_ _000_ _230_ _380_ VDD VSS MUX2_X1
X_933_ _223_ _380_ _142_ VDD VSS AND2_X1
X_934_ _249_ _001_ _230_ _381_ VDD VSS MUX2_X1
X_935_ _223_ _381_ _143_ VDD VSS AND2_X1
X_936_ _563_ _230_ _382_ VDD VSS NAND2_X1
X_937_ _235_ _382_ _383_ VDD VSS XNOR2_X1
X_938_ _207_ _383_ _144_ VDD VSS NOR2_X1
X_939_ _255_ _249_ _262_ _229_ _384_ VDD VSS NAND4_X1
X_940_ _237_ _384_ _385_ VDD VSS XNOR2_X1
X_941_ _207_ _385_ _145_ VDD VSS NOR2_X1
X_942_ _262_ _236_ _563_ _229_ _386_ VDD VSS NAND4_X1
X_943_ rd_ptr\[4\] _386_ _387_ VDD VSS XOR2_X1
X_944_ _207_ _387_ _146_ VDD VSS NOR2_X1
X_945_ _207_ _228_ net5 _147_ VDD VSS NOR3_X1
X_946_ net2 _157_ _388_ VDD VSS NAND2_X1
X_947_ _002_ wr_addr\[0\] _388_ _389_ VDD VSS MUX2_X1
X_948_ _223_ _389_ _148_ VDD VSS AND2_X1
X_949_ _003_ wr_addr\[1\] _388_ _390_ VDD VSS MUX2_X1
X_950_ _223_ _390_ _149_ VDD VSS AND2_X1
X_951_ net2 _186_ _157_ _391_ VDD VSS NAND3_X1
X_952_ _164_ _391_ _392_ VDD VSS XNOR2_X1
X_953_ _207_ _392_ _150_ VDD VSS NOR2_X1
X_954_ wr_addr\[2\] wr_addr\[1\] wr_addr\[0\] _393_ VDD VSS
+ NAND3_X1
X_955_ _163_ _388_ _393_ _394_ VDD VSS OAI21_X1
X_956_ _163_ _388_ _393_ _395_ VDD VSS OR3_X1
X_957_ _207_ _394_ _395_ _151_ VDD VSS AOI21_X1
X_958_ wr_ptr\[4\] _194_ _396_ VDD VSS XOR2_X1
X_959_ _207_ _396_ _152_ VDD VSS NOR2_X1
X_960_ rd_valid _397_ VDD VSS CLKBUF_X3
X_961_ rd_data_reg\[0\] _397_ net7 VDD VSS AND2_X2
X_962_ rd_data_reg\[1\] _397_ net8 VDD VSS AND2_X2
X_963_ rd_data_reg\[2\] _397_ net9 VDD VSS AND2_X2
X_964_ rd_data_reg\[3\] _397_ net10 VDD VSS AND2_X2
X_965_ rd_data_reg\[4\] _397_ net11 VDD VSS AND2_X2
X_966_ rd_data_reg\[5\] _397_ net12 VDD VSS AND2_X2
X_967_ rd_data_reg\[6\] _397_ net13 VDD VSS AND2_X2
X_968_ rd_data_reg\[7\] _397_ net14 VDD VSS AND2_X2
X_969_ _541_ wr_addr\[1\] _542_ _543_ _544_ VDD VSS FA_X1
X_970_ _545_ wr_addr\[2\] _546_ _547_ VDD VSS HA_X1
X_971_ _548_ wr_addr\[3\] _549_ _550_ VDD VSS HA_X1
X_972_ rd_addr\[0\] _002_ _551_ _552_ VDD VSS HA_X1
X_973_ _541_ wr_addr\[1\] _553_ _554_ VDD VSS HA_X1
X_974_ _002_ _555_ _556_ _003_ VDD VSS HA_X1
X_975_ _002_ wr_addr\[1\] _557_ _558_ VDD VSS HA_X1
X_976_ wr_addr\[0\] _555_ _559_ _560_ VDD VSS HA_X1
X_977_ wr_addr\[0\] wr_addr\[1\] _561_ _562_ VDD VSS HA_X1
X_978_ rd_addr\[0\] rd_addr\[1\] _563_ _001_ VDD VSS HA_X1
Xalmost_empty_reg$_SDFFE_PP1N_ _004_ clknet_4_14_0_clk net3
+ _540_ VDD VSS DFF_X2
Xalmost_full_reg$_SDFFE_PN0P_ _005_ clknet_4_14_0_clk net4
+ _539_ VDD VSS DFF_X2
Xmem\[0\]\[0\]$_DFFE_PP_ _006_ clknet_4_5_0_clk mem\[0\]\[0\]
+ _538_ VDD VSS DFF_X1
Xmem\[0\]\[1\]$_DFFE_PP_ _007_ clknet_4_3_0_clk mem\[0\]\[1\]
+ _537_ VDD VSS DFF_X1
Xmem\[0\]\[2\]$_DFFE_PP_ _008_ clknet_4_4_0_clk mem\[0\]\[2\]
+ _536_ VDD VSS DFF_X1
Xmem\[0\]\[3\]$_DFFE_PP_ _009_ clknet_4_5_0_clk mem\[0\]\[3\]
+ _535_ VDD VSS DFF_X1
Xmem\[0\]\[4\]$_DFFE_PP_ _010_ clknet_4_1_0_clk mem\[0\]\[4\]
+ _534_ VDD VSS DFF_X1
Xmem\[0\]\[5\]$_DFFE_PP_ _011_ clknet_4_3_0_clk mem\[0\]\[5\]
+ _533_ VDD VSS DFF_X1
Xmem\[0\]\[6\]$_DFFE_PP_ _012_ clknet_4_3_0_clk mem\[0\]\[6\]
+ _532_ VDD VSS DFF_X1
Xmem\[0\]\[7\]$_DFFE_PP_ _013_ clknet_4_7_0_clk mem\[0\]\[7\]
+ _531_ VDD VSS DFF_X1
Xmem\[10\]\[0\]$_DFFE_PP_ _014_ clknet_4_12_0_clk mem\[10\]\[0\]
+ _530_ VDD VSS DFF_X1
Xmem\[10\]\[1\]$_DFFE_PP_ _015_ clknet_4_8_0_clk mem\[10\]\[1\]
+ _529_ VDD VSS DFF_X1
Xmem\[10\]\[2\]$_DFFE_PP_ _016_ clknet_4_9_0_clk mem\[10\]\[2\]
+ _528_ VDD VSS DFF_X1
Xmem\[10\]\[3\]$_DFFE_PP_ _017_ clknet_4_12_0_clk mem\[10\]\[3\]
+ _527_ VDD VSS DFF_X1
Xmem\[10\]\[4\]$_DFFE_PP_ _018_ clknet_4_3_0_clk mem\[10\]\[4\]
+ _526_ VDD VSS DFF_X1
Xmem\[10\]\[5\]$_DFFE_PP_ _019_ clknet_4_2_0_clk mem\[10\]\[5\]
+ _525_ VDD VSS DFF_X1
Xmem\[10\]\[6\]$_DFFE_PP_ _020_ clknet_4_8_0_clk mem\[10\]\[6\]
+ _524_ VDD VSS DFF_X1
Xmem\[10\]\[7\]$_DFFE_PP_ _021_ clknet_4_12_0_clk mem\[10\]\[7\]
+ _523_ VDD VSS DFF_X1
Xmem\[11\]\[0\]$_DFFE_PP_ _022_ clknet_4_13_0_clk mem\[11\]\[0\]
+ _522_ VDD VSS DFF_X1
Xmem\[11\]\[1\]$_DFFE_PP_ _023_ clknet_4_2_0_clk mem\[11\]\[1\]
+ _521_ VDD VSS DFF_X1
Xmem\[11\]\[2\]$_DFFE_PP_ _024_ clknet_4_12_0_clk mem\[11\]\[2\]
+ _520_ VDD VSS DFF_X1
Xmem\[11\]\[3\]$_DFFE_PP_ _025_ clknet_4_13_0_clk mem\[11\]\[3\]
+ _519_ VDD VSS DFF_X1
Xmem\[11\]\[4\]$_DFFE_PP_ _026_ clknet_4_9_0_clk mem\[11\]\[4\]
+ _518_ VDD VSS DFF_X1
Xmem\[11\]\[5\]$_DFFE_PP_ _027_ clknet_4_9_0_clk mem\[11\]\[5\]
+ _517_ VDD VSS DFF_X1
Xmem\[11\]\[6\]$_DFFE_PP_ _028_ clknet_4_8_0_clk mem\[11\]\[6\]
+ _516_ VDD VSS DFF_X1
Xmem\[11\]\[7\]$_DFFE_PP_ _029_ clknet_4_13_0_clk mem\[11\]\[7\]
+ _515_ VDD VSS DFF_X1
Xmem\[12\]\[0\]$_DFFE_PP_ _030_ clknet_4_13_0_clk mem\[12\]\[0\]
+ _514_ VDD VSS DFF_X1
Xmem\[12\]\[1\]$_DFFE_PP_ _031_ clknet_4_8_0_clk mem\[12\]\[1\]
+ _513_ VDD VSS DFF_X1
Xmem\[12\]\[2\]$_DFFE_PP_ _032_ clknet_4_12_0_clk mem\[12\]\[2\]
+ _512_ VDD VSS DFF_X1
Xmem\[12\]\[3\]$_DFFE_PP_ _033_ clknet_4_15_0_clk mem\[12\]\[3\]
+ _511_ VDD VSS DFF_X1
Xmem\[12\]\[4\]$_DFFE_PP_ _034_ clknet_4_11_0_clk mem\[12\]\[4\]
+ _510_ VDD VSS DFF_X1
Xmem\[12\]\[5\]$_DFFE_PP_ _035_ clknet_4_9_0_clk mem\[12\]\[5\]
+ _509_ VDD VSS DFF_X1
Xmem\[12\]\[6\]$_DFFE_PP_ _036_ clknet_4_10_0_clk mem\[12\]\[6\]
+ _508_ VDD VSS DFF_X1
Xmem\[12\]\[7\]$_DFFE_PP_ _037_ clknet_4_13_0_clk mem\[12\]\[7\]
+ _507_ VDD VSS DFF_X1
Xmem\[13\]\[0\]$_DFFE_PP_ _038_ clknet_4_13_0_clk mem\[13\]\[0\]
+ _506_ VDD VSS DFF_X1
Xmem\[13\]\[1\]$_DFFE_PP_ _039_ clknet_4_10_0_clk mem\[13\]\[1\]
+ _505_ VDD VSS DFF_X1
Xmem\[13\]\[2\]$_DFFE_PP_ _040_ clknet_4_12_0_clk mem\[13\]\[2\]
+ _504_ VDD VSS DFF_X1
Xmem\[13\]\[3\]$_DFFE_PP_ _041_ clknet_4_15_0_clk mem\[13\]\[3\]
+ _503_ VDD VSS DFF_X1
Xmem\[13\]\[4\]$_DFFE_PP_ _042_ clknet_4_11_0_clk mem\[13\]\[4\]
+ _502_ VDD VSS DFF_X1
Xmem\[13\]\[5\]$_DFFE_PP_ _043_ clknet_4_10_0_clk mem\[13\]\[5\]
+ _501_ VDD VSS DFF_X1
Xmem\[13\]\[6\]$_DFFE_PP_ _044_ clknet_4_11_0_clk mem\[13\]\[6\]
+ _500_ VDD VSS DFF_X1
Xmem\[13\]\[7\]$_DFFE_PP_ _045_ clknet_4_13_0_clk mem\[13\]\[7\]
+ _499_ VDD VSS DFF_X1
Xmem\[14\]\[0\]$_DFFE_PP_ _046_ clknet_4_13_0_clk mem\[14\]\[0\]
+ _498_ VDD VSS DFF_X1
Xmem\[14\]\[1\]$_DFFE_PP_ _047_ clknet_4_10_0_clk mem\[14\]\[1\]
+ _497_ VDD VSS DFF_X1
Xmem\[14\]\[2\]$_DFFE_PP_ _048_ clknet_4_12_0_clk mem\[14\]\[2\]
+ _496_ VDD VSS DFF_X1
Xmem\[14\]\[3\]$_DFFE_PP_ _049_ clknet_4_15_0_clk mem\[14\]\[3\]
+ _495_ VDD VSS DFF_X1
Xmem\[14\]\[4\]$_DFFE_PP_ _050_ clknet_4_9_0_clk mem\[14\]\[4\]
+ _494_ VDD VSS DFF_X1
Xmem\[14\]\[5\]$_DFFE_PP_ _051_ clknet_4_8_0_clk mem\[14\]\[5\]
+ _493_ VDD VSS DFF_X1
Xmem\[14\]\[6\]$_DFFE_PP_ _052_ clknet_4_10_0_clk mem\[14\]\[6\]
+ _492_ VDD VSS DFF_X1
Xmem\[14\]\[7\]$_DFFE_PP_ _053_ clknet_4_12_0_clk mem\[14\]\[7\]
+ _491_ VDD VSS DFF_X1
Xmem\[15\]\[0\]$_DFFE_PP_ _054_ clknet_4_13_0_clk mem\[15\]\[0\]
+ _490_ VDD VSS DFF_X1
Xmem\[15\]\[1\]$_DFFE_PP_ _055_ clknet_4_10_0_clk mem\[15\]\[1\]
+ _489_ VDD VSS DFF_X1
Xmem\[15\]\[2\]$_DFFE_PP_ _056_ clknet_4_9_0_clk mem\[15\]\[2\]
+ _488_ VDD VSS DFF_X1
Xmem\[15\]\[3\]$_DFFE_PP_ _057_ clknet_4_15_0_clk mem\[15\]\[3\]
+ _487_ VDD VSS DFF_X1
Xmem\[15\]\[4\]$_DFFE_PP_ _058_ clknet_4_11_0_clk mem\[15\]\[4\]
+ _486_ VDD VSS DFF_X1
Xmem\[15\]\[5\]$_DFFE_PP_ _059_ clknet_4_8_0_clk mem\[15\]\[5\]
+ _485_ VDD VSS DFF_X1
Xmem\[15\]\[6\]$_DFFE_PP_ _060_ clknet_4_10_0_clk mem\[15\]\[6\]
+ _484_ VDD VSS DFF_X1
Xmem\[15\]\[7\]$_DFFE_PP_ _061_ clknet_4_14_0_clk mem\[15\]\[7\]
+ _483_ VDD VSS DFF_X1
Xmem\[1\]\[0\]$_DFFE_PP_ _062_ clknet_4_5_0_clk mem\[1\]\[0\]
+ _482_ VDD VSS DFF_X1
Xmem\[1\]\[1\]$_DFFE_PP_ _063_ clknet_4_0_0_clk mem\[1\]\[1\]
+ _481_ VDD VSS DFF_X1
Xmem\[1\]\[2\]$_DFFE_PP_ _064_ clknet_4_4_0_clk mem\[1\]\[2\]
+ _480_ VDD VSS DFF_X1
Xmem\[1\]\[3\]$_DFFE_PP_ _065_ clknet_4_5_0_clk mem\[1\]\[3\]
+ _479_ VDD VSS DFF_X1
Xmem\[1\]\[4\]$_DFFE_PP_ _066_ clknet_4_1_0_clk mem\[1\]\[4\]
+ _478_ VDD VSS DFF_X1
Xmem\[1\]\[5\]$_DFFE_PP_ _067_ clknet_4_0_0_clk mem\[1\]\[5\]
+ _477_ VDD VSS DFF_X1
Xmem\[1\]\[6\]$_DFFE_PP_ _068_ clknet_4_0_0_clk mem\[1\]\[6\]
+ _476_ VDD VSS DFF_X1
Xmem\[1\]\[7\]$_DFFE_PP_ _069_ clknet_4_5_0_clk mem\[1\]\[7\]
+ _475_ VDD VSS DFF_X1
Xmem\[2\]\[0\]$_DFFE_PP_ _070_ clknet_4_4_0_clk mem\[2\]\[0\]
+ _474_ VDD VSS DFF_X1
Xmem\[2\]\[1\]$_DFFE_PP_ _071_ clknet_4_2_0_clk mem\[2\]\[1\]
+ _473_ VDD VSS DFF_X1
Xmem\[2\]\[2\]$_DFFE_PP_ _072_ clknet_4_6_0_clk mem\[2\]\[2\]
+ _472_ VDD VSS DFF_X1
Xmem\[2\]\[3\]$_DFFE_PP_ _073_ clknet_4_6_0_clk mem\[2\]\[3\]
+ _471_ VDD VSS DFF_X1
Xmem\[2\]\[4\]$_DFFE_PP_ _074_ clknet_4_1_0_clk mem\[2\]\[4\]
+ _470_ VDD VSS DFF_X1
Xmem\[2\]\[5\]$_DFFE_PP_ _075_ clknet_4_0_0_clk mem\[2\]\[5\]
+ _469_ VDD VSS DFF_X1
Xmem\[2\]\[6\]$_DFFE_PP_ _076_ clknet_4_2_0_clk mem\[2\]\[6\]
+ _468_ VDD VSS DFF_X1
Xmem\[2\]\[7\]$_DFFE_PP_ _077_ clknet_4_6_0_clk mem\[2\]\[7\]
+ _467_ VDD VSS DFF_X1
Xmem\[3\]\[0\]$_DFFE_PP_ _078_ clknet_4_5_0_clk mem\[3\]\[0\]
+ _466_ VDD VSS DFF_X1
Xmem\[3\]\[1\]$_DFFE_PP_ _079_ clknet_4_0_0_clk mem\[3\]\[1\]
+ _465_ VDD VSS DFF_X1
Xmem\[3\]\[2\]$_DFFE_PP_ _080_ clknet_4_4_0_clk mem\[3\]\[2\]
+ _464_ VDD VSS DFF_X1
Xmem\[3\]\[3\]$_DFFE_PP_ _081_ clknet_4_5_0_clk mem\[3\]\[3\]
+ _463_ VDD VSS DFF_X1
Xmem\[3\]\[4\]$_DFFE_PP_ _082_ clknet_4_1_0_clk mem\[3\]\[4\]
+ _462_ VDD VSS DFF_X1
Xmem\[3\]\[5\]$_DFFE_PP_ _083_ clknet_4_1_0_clk mem\[3\]\[5\]
+ _461_ VDD VSS DFF_X1
Xmem\[3\]\[6\]$_DFFE_PP_ _084_ clknet_4_0_0_clk mem\[3\]\[6\]
+ _460_ VDD VSS DFF_X1
Xmem\[3\]\[7\]$_DFFE_PP_ _085_ clknet_4_4_0_clk mem\[3\]\[7\]
+ _459_ VDD VSS DFF_X1
Xmem\[4\]\[0\]$_DFFE_PP_ _086_ clknet_4_5_0_clk mem\[4\]\[0\]
+ _458_ VDD VSS DFF_X1
Xmem\[4\]\[1\]$_DFFE_PP_ _087_ clknet_4_2_0_clk mem\[4\]\[1\]
+ _457_ VDD VSS DFF_X1
Xmem\[4\]\[2\]$_DFFE_PP_ _088_ clknet_4_4_0_clk mem\[4\]\[2\]
+ _456_ VDD VSS DFF_X1
Xmem\[4\]\[3\]$_DFFE_PP_ _089_ clknet_4_7_0_clk mem\[4\]\[3\]
+ _455_ VDD VSS DFF_X1
Xmem\[4\]\[4\]$_DFFE_PP_ _090_ clknet_4_1_0_clk mem\[4\]\[4\]
+ _454_ VDD VSS DFF_X1
Xmem\[4\]\[5\]$_DFFE_PP_ _091_ clknet_4_2_0_clk mem\[4\]\[5\]
+ _453_ VDD VSS DFF_X1
Xmem\[4\]\[6\]$_DFFE_PP_ _092_ clknet_4_0_0_clk mem\[4\]\[6\]
+ _452_ VDD VSS DFF_X1
Xmem\[4\]\[7\]$_DFFE_PP_ _093_ clknet_4_7_0_clk mem\[4\]\[7\]
+ _451_ VDD VSS DFF_X1
Xmem\[5\]\[0\]$_DFFE_PP_ _094_ clknet_4_5_0_clk mem\[5\]\[0\]
+ _450_ VDD VSS DFF_X1
Xmem\[5\]\[1\]$_DFFE_PP_ _095_ clknet_4_0_0_clk mem\[5\]\[1\]
+ _449_ VDD VSS DFF_X1
Xmem\[5\]\[2\]$_DFFE_PP_ _096_ clknet_4_4_0_clk mem\[5\]\[2\]
+ _448_ VDD VSS DFF_X1
Xmem\[5\]\[3\]$_DFFE_PP_ _097_ clknet_4_5_0_clk mem\[5\]\[3\]
+ _447_ VDD VSS DFF_X1
Xmem\[5\]\[4\]$_DFFE_PP_ _098_ clknet_4_1_0_clk mem\[5\]\[4\]
+ _446_ VDD VSS DFF_X1
Xmem\[5\]\[5\]$_DFFE_PP_ _099_ clknet_4_0_0_clk mem\[5\]\[5\]
+ _445_ VDD VSS DFF_X1
Xmem\[5\]\[6\]$_DFFE_PP_ _100_ clknet_4_0_0_clk mem\[5\]\[6\]
+ _444_ VDD VSS DFF_X1