
* cell configurable_param_fifo
* pin wr_data[5]
* pin rd_data[5]
* pin rd_data[6]
* pin wr_data[1]
* pin wr_data[6]
* pin wr_en
* pin PWELL
* pin NWELL
* pin wr_data[4]
* pin wr_data[2]
* pin clk
* pin rst_n
* pin full
* pin rd_data[4]
* pin rd_data[7]
* pin rd_data[1]
* pin rd_data[2]
* pin almost_full
* pin empty
* pin almost_empty
* pin rd_en
* pin wr_data[7]
* pin wr_data[3]
* pin wr_data[0]
* pin rd_data[3]
* pin rd_data[0]
.SUBCKT configurable_param_fifo 1 2 3 4 5 6 7 8 48 81 149 305 312 321 322 407
+ 431 455 475 496 497 613 617 618 621 622
* net 1 wr_data[5]
* net 2 rd_data[5]
* net 3 rd_data[6]
* net 4 wr_data[1]
* net 5 wr_data[6]
* net 6 wr_en
* net 7 PWELL
* net 8 NWELL
* net 48 wr_data[4]
* net 81 wr_data[2]
* net 149 clk
* net 305 rst_n
* net 312 full
* net 321 rd_data[4]
* net 322 rd_data[7]
* net 407 rd_data[1]
* net 431 rd_data[2]
* net 455 almost_full
* net 475 empty
* net 496 almost_empty
* net 497 rd_en
* net 613 wr_data[7]
* net 617 wr_data[3]
* net 618 wr_data[0]
* net 621 rd_data[3]
* net 622 rd_data[0]
* cell instance $3 m0 *1 249.66,211.4
X$3 1 7 8 15 BUF_X2
* cell instance $8 m0 *1 251.94,4.2
X$8 104 7 8 2 BUF_X1
* cell instance $14 r0 *1 257.07,1.4
X$14 103 7 8 3 BUF_X1
* cell instance $20 m0 *1 255.93,208.6
X$20 4 7 8 16 BUF_X2
* cell instance $28 m0 *1 260.3,208.6
X$28 5 7 8 11 BUF_X2
* cell instance $34 m0 *1 272.27,4.2
X$34 6 8 207 7 BUF_X4
* cell instance $39 m0 *1 271.7,245
X$39 275 268 329 7 8 345 NAND3_X1
* cell instance $44 m0 *1 277.78,245
X$44 344 270 379 8 7 346 HA_X1
* cell instance $45 m0 *1 279.68,245
X$45 346 7 8 359 INV_X1
* cell instance $80 m0 *1 260.11,245
X$80 7 328 361 331 344 8 DFF_X2
* cell instance $82 m0 *1 263.72,245
X$82 344 8 162 7 BUF_X4
* cell instance $85 r0 *1 259.92,245
X$85 123 7 8 358 INV_X2
* cell instance $88 r0 *1 261.06,245
X$88 50 128 362 7 8 375 MUX2_X1
* cell instance $89 r0 *1 262.39,245
X$89 344 369 362 8 7 427 HA_X1
* cell instance $93 r0 *1 269.61,245
X$93 360 358 7 8 376 NOR2_X1
* cell instance $95 r0 *1 270.94,245
X$95 277 296 345 7 8 391 OR3_X1
* cell instance $96 r0 *1 271.89,245
X$96 345 296 277 8 377 7 OAI21_X1
* cell instance $99 r0 *1 276.45,245
X$99 502 292 262 8 378 7 OAI21_X1
* cell instance $101 r0 *1 277.97,245
X$101 380 7 8 384 INV_X1
* cell instance $103 r0 *1 278.54,245
X$103 7 268 381 383 359 386 8 FA_X1
* cell instance $160 m0 *1 272.08,247.8
X$160 358 391 377 7 393 8 AOI21_X1
* cell instance $161 m0 *1 268.47,247.8
X$161 7 376 361 772 329 8 DFF_X2
* cell instance $164 m0 *1 276.64,247.8
X$164 386 268 388 8 7 380 HA_X1
* cell instance $166 m0 *1 279.3,247.8
X$166 388 7 8 385 INV_X1
* cell instance $206 m0 *1 249.09,247.8
X$206 308 172 370 7 8 394 MUX2_X1
* cell instance $207 m0 *1 247.76,247.8
X$207 369 8 122 7 BUF_X4
* cell instance $208 m0 *1 250.42,247.8
X$208 370 162 373 7 8 365 MUX2_X1
* cell instance $209 m0 *1 251.75,247.8
X$209 372 389 395 7 396 8 AOI21_X1
* cell instance $212 r0 *1 247.95,247.8
X$212 7 690 370 394 327 8 DFF_X1
* cell instance $216 r0 *1 252.51,247.8
X$216 146 374 262 8 372 7 OAI21_X1
* cell instance $218 m0 *1 252.89,247.8
X$218 308 165 373 7 8 364 MUX2_X1
* cell instance $224 r0 *1 255.36,247.8
X$224 7 694 374 396 361 8 DFF_X1
* cell instance $226 m0 *1 262.2,247.8
X$226 7 397 361 386 369 8 DFF_X2
* cell instance $227 m0 *1 261.44,247.8
X$227 262 375 8 7 397 AND2_X1
* cell instance $233 r0 *1 272.27,247.8
X$233 401 7 8 390 BUF_X1
* cell instance $237 r0 *1 277.02,247.8
X$237 379 388 390 404 8 7 317 AND4_X2
* cell instance $239 r0 *1 278.54,247.8
X$239 434 382 378 8 413 7 OAI21_X1
* cell instance $240 r0 *1 279.3,247.8
X$240 379 7 8 405 INV_X1
* cell instance $241 r0 *1 279.68,247.8
X$241 346 385 384 8 411 7 OAI21_X1
* cell instance $243 r0 *1 280.82,247.8
X$243 383 405 406 7 409 8 AOI21_X1
* cell instance $295 m0 *1 254.41,228.2
X$295 7 687 204 211 51 8 DFF_X1
* cell instance $297 m0 *1 257.64,228.2
X$297 7 658 187 210 51 8 DFF_X1
* cell instance $336 m0 *1 231.23,228.2
X$336 34 182 160 7 8 199 MUX2_X1
* cell instance $338 m0 *1 232.56,228.2
X$338 183 7 8 765 INV_X1
* cell instance $341 m0 *1 236.17,228.2
X$341 7 666 184 190 183 8 DFF_X1
* cell instance $347 m0 *1 244.53,228.2
X$347 184 122 185 7 8 219 MUX2_X1
* cell instance $350 r0 *1 231.04,228.2
X$350 7 721 160 199 183 8 DFF_X1
* cell instance $351 r0 *1 234.27,228.2
X$351 147 7 8 183 CLKBUF_X3
* cell instance $355 r0 *1 243.2,228.2
X$355 35 121 185 7 8 220 MUX2_X1
* cell instance $357 m0 *1 247.19,228.2
X$357 200 188 202 221 7 8 189 AOI22_X1
* cell instance $359 m0 *1 248.14,228.2
X$359 200 214 202 219 7 8 131 AOI22_X1
* cell instance $363 r0 *1 248.33,228.2
X$363 201 7 8 762 INV_X2
* cell instance $364 r0 *1 248.9,228.2
X$364 7 698 203 217 201 8 DFF_X1
* cell instance $366 m0 *1 250.23,228.2
X$366 35 172 203 7 8 217 MUX2_X1
* cell instance $368 m0 *1 252.51,228.2
X$368 35 165 204 7 8 211 MUX2_X1
* cell instance $370 r0 *1 252.13,228.2
X$370 203 162 204 7 8 214 MUX2_X1
* cell instance $375 r0 *1 264.29,228.2
X$375 147 7 8 205 CLKBUF_X3
* cell instance $376 r0 *1 265.24,228.2
X$376 205 7 8 767 INV_X4
* cell instance $438 m0 *1 251.37,217
X$438 35 67 41 7 8 39 MUX2_X1
* cell instance $440 m0 *1 252.7,217
X$440 41 68 40 7 8 53 MUX2_X1
* cell instance $444 m0 *1 256.5,217
X$444 34 38 69 7 8 52 MUX2_X1
* cell instance $445 m0 *1 257.83,217
X$445 7 667 69 52 51 8 DFF_X1
* cell instance $484 m0 *1 232.18,217
X$484 7 655 64 63 32 8 DFF_X1
* cell instance $491 r0 *1 232.18,217
X$491 34 61 64 7 8 63 MUX2_X1
* cell instance $492 r0 *1 233.51,217
X$492 64 59 20 7 8 87 MUX2_X1
* cell instance $497 m0 *1 244.91,217
X$497 10 50 80 7 8 79 MUX2_X1
* cell instance $498 m0 *1 241.68,217
X$498 7 663 80 37 27 8 DFF_X1
* cell instance $506 r0 *1 246.81,217
X$506 65 53 66 54 7 8 107 AOI22_X1
* cell instance $507 r0 *1 247.76,217
X$507 65 76 66 79 7 8 88 AOI22_X1
* cell instance $510 r0 *1 249.85,217
X$510 65 73 66 44 7 8 89 AOI22_X1
* cell instance $513 r0 *1 257.26,217
X$513 34 67 90 7 8 94 MUX2_X1
* cell instance $514 r0 *1 258.59,217
X$514 90 68 69 7 8 76 MUX2_X1
* cell instance $515 r0 *1 259.92,217
X$515 71 68 70 7 8 73 MUX2_X1
* cell instance $517 r0 *1 261.44,217
X$517 25 67 71 7 8 72 MUX2_X1
* cell instance $519 r0 *1 263.15,217
X$519 7 722 71 72 51 8 DFF_X1
* cell instance $1165 m0 *1 1.9,245
X$1165 347 7 8 322 BUF_X1
* cell instance $1201 m0 *1 206.15,245
X$1201 7 674 336 348 315 8 DFF_X1
* cell instance $1244 m0 *1 209.95,245
X$1244 336 151 367 7 8 337 MUX2_X1
* cell instance $1247 m0 *1 211.47,245
X$1247 337 142 349 7 8 352 MUX2_X1
* cell instance $1252 m0 *1 213.94,245
X$1252 285 7 8 308 BUF_X2
* cell instance $1255 m0 *1 217.17,245
X$1255 7 656 338 351 315 8 DFF_X1
* cell instance $1258 r0 *1 215.46,245
X$1258 308 182 355 7 8 363 MUX2_X1
* cell instance $1259 r0 *1 216.79,245
X$1259 7 701 355 363 315 8 DFF_X1
* cell instance $1260 r0 *1 220.02,245
X$1260 355 159 338 7 8 366 MUX2_X1
* cell instance $1262 m0 *1 224.01,245
X$1262 7 680 339 333 309 8 DFF_X1
* cell instance $1264 m0 *1 227.24,245
X$1264 323 96 97 7 8 340 NOR3_X1
* cell instance $1265 m0 *1 228,245
X$1265 340 115 7 8 341 NOR2_X1
* cell instance $1269 m0 *1 232.56,245
X$1269 59 8 56 7 BUF_X4
* cell instance $1272 m0 *1 235.6,245
X$1272 392 102 8 7 347 AND2_X2
* cell instance $1277 r0 *1 225.34,245
X$1277 59 8 151 7 BUF_X4
* cell instance $1278 r0 *1 226.67,245
X$1278 352 158 366 157 341 389 7 8 OAI221_X2
* cell instance $1283 r0 *1 237.5,245
X$1283 7 749 357 356 309 8 DFF_X1
* cell instance $1285 m0 *1 237.69,245
X$1285 285 139 357 7 8 356 MUX2_X1
* cell instance $1293 r0 *1 241.87,245
X$1293 7 699 342 354 327 8 DFF_X1
* cell instance $1294 m0 *1 242.63,245
X$1294 308 121 342 7 8 354 MUX2_X1
* cell instance $1296 m0 *1 243.96,245
X$1296 357 122 342 7 8 353 MUX2_X1
* cell instance $1304 r0 *1 247.95,245
X$1304 369 7 8 142 INV_X4
* cell instance $1306 r0 *1 249.28,245
X$1306 200 365 202 353 7 8 371 AOI22_X1
* cell instance $1307 r0 *1 250.23,245
X$1307 128 343 371 8 7 395 AND3_X1
* cell instance $1309 m0 *1 250.23,245
X$1309 65 350 66 335 7 8 343 AOI22_X1
* cell instance $1315 r0 *1 251.75,245
X$1315 7 697 373 364 327 8 DFF_X1
* cell instance $1334 m0 *1 241.11,491.4
X$1334 577 7 8 622 BUF_X1
* cell instance $1364 m0 *1 273.79,239.4
X$1364 267 8 258 7 BUF_X4
* cell instance $1366 m0 *1 276.07,239.4
X$1366 298 296 268 7 8 299 MUX2_X1
* cell instance $1367 m0 *1 277.4,239.4
X$1367 262 299 8 7 251 AND2_X1
* cell instance $1369 m0 *1 278.35,239.4
X$1369 270 268 769 8 7 297 HA_X1
* cell instance $1370 m0 *1 280.25,239.4
X$1370 297 8 261 7 BUF_X4
* cell instance $1406 r0 *1 273.79,239.4
X$1406 7 300 205 270 275 8 DFF_X2
* cell instance $8104 r0 *1 196.08,231
X$8104 48 7 8 222 CLKBUF_X2
* cell instance $8111 r0 *1 209.95,231
X$8111 7 720 195 196 180 8 DFF_X1
* cell instance $8127 m0 *1 242.44,231
X$8127 7 648 185 220 201 8 DFF_X1
* cell instance $8131 m0 *1 249.47,231
X$8131 147 7 8 201 CLKBUF_X3
* cell instance $8137 r0 *1 260.3,231
X$8137 7 759 206 208 205 8 DFF_X1
* cell instance $13143 r0 *1 214.7,264.6
X$13143 7 691 586 574 469 8 DFF_X1
* cell instance $13146 r0 *1 218.88,264.6
X$13146 586 159 587 7 8 492 MUX2_X1
* cell instance $13149 r0 *1 220.97,264.6
X$13149 412 182 575 7 8 583 MUX2_X1
* cell instance $13150 r0 *1 222.3,264.6
X$13150 7 736 575 583 469 8 DFF_X1
* cell instance $13151 r0 *1 225.53,264.6
X$13151 575 159 591 7 8 510 MUX2_X1
* cell instance $13156 r0 *1 231.8,264.6
X$13156 594 159 576 7 8 584 MUX2_X1
* cell instance $13160 r0 *1 236.93,264.6
X$13160 490 139 578 7 8 585 MUX2_X1
* cell instance $13163 r0 *1 238.45,264.6
X$13163 7 709 578 585 511 8 DFF_X1
* cell instance $13164 m0 *1 239.21,264.6
X$13164 554 102 8 7 577 AND2_X2
* cell instance $13171 m0 *1 243.01,264.6
X$13171 570 102 8 7 579 AND2_X2
* cell instance $13176 r0 *1 244.53,264.6
X$13176 7 700 556 557 538 8 DFF_X1
* cell instance $13178 m0 *1 244.91,264.6
X$13178 421 121 556 7 8 557 MUX2_X1
* cell instance $13181 m0 *1 247.19,264.6
X$13181 122 8 50 7 BUF_X4
* cell instance $13182 r0 *1 247.76,264.6
X$13182 578 50 556 7 8 582 MUX2_X1
* cell instance $13184 r0 *1 249.09,264.6
X$13184 588 200 202 582 7 8 581 AOI22_X1
* cell instance $13188 r0 *1 252.51,264.6
X$13188 421 165 580 7 8 589 MUX2_X1
* cell instance $13189 r0 *1 253.84,264.6
X$13189 601 162 580 7 8 588 MUX2_X1
* cell instance $16321 r0 *1 243.58,488.6
X$16321 579 7 8 621 BUF_X1
* cell instance $18595 m0 *1 211.09,261.8
X$18595 7 628 531 546 469 8 DFF_X1
* cell instance $18598 m0 *1 221.92,261.8
X$18598 7 653 533 565 469 8 DFF_X1
* cell instance $18602 m0 *1 227.62,261.8
X$18602 7 649 444 527 511 8 DFF_X1
* cell instance $18651 r0 *1 235.41,261.8
X$18651 7 706 554 553 511 8 DFF_X1
* cell instance $18652 m0 *1 235.98,261.8
X$18652 567 534 568 7 553 8 AOI21_X1
* cell instance $18657 r0 *1 238.64,261.8
X$18657 146 554 262 8 567 7 OAI21_X1
* cell instance $18663 m0 *1 242.25,261.8
X$18663 555 524 573 7 569 8 AOI21_X1
* cell instance $18664 m0 *1 243.01,261.8
X$18664 146 570 262 8 555 7 OAI21_X1
* cell instance $18667 r0 *1 240.92,261.8
X$18667 7 718 570 569 538 8 DFF_X1
* cell instance $18669 m0 *1 247.38,261.8
X$18669 128 571 558 8 7 573 AND3_X1
* cell instance $18672 m0 *1 249.09,261.8
X$18672 146 537 581 8 7 568 AND3_X1
* cell instance $18677 m0 *1 252.13,261.8
X$18677 421 38 572 7 8 559 MUX2_X1
* cell instance $18679 m0 *1 253.46,261.8
X$18679 7 626 540 539 538 8 DFF_X1
* cell instance $18683 r0 *1 252.13,261.8
X$18683 7 714 572 559 538 8 DFF_X1
* cell instance $18688 m0 *1 259.35,261.8
X$18688 7 637 560 561 516 8 DFF_X1
* cell instance $18689 m0 *1 264.1,261.8
X$18689 542 38 7 8 564 XOR2_X1
* cell instance $18690 m0 *1 265.24,261.8
X$18690 564 358 7 8 563 NOR2_X1
* cell instance $18691 m0 *1 265.81,261.8
X$18691 7 563 516 771 542 8 DFF_X2
* cell instance $18729 r0 *1 259.35,261.8
X$18729 412 38 566 7 8 562 MUX2_X1
* cell instance $18730 r0 *1 260.68,261.8
X$18730 7 710 566 562 516 8 DFF_X1
* cell instance $18889 r0 *1 213.18,267.4
X$18889 472 7 8 400 CLKBUF_X3
* cell instance $18892 m0 *1 214.51,267.4
X$18892 421 182 586 7 8 574 MUX2_X1
* cell instance $18894 m0 *1 219.07,267.4
X$18894 490 133 587 7 8 597 MUX2_X1
* cell instance $18900 r0 *1 217.74,267.4
X$18900 7 723 587 597 469 8 DFF_X1
* cell instance $18905 r0 *1 223.82,267.4
X$18905 7 729 591 599 511 8 DFF_X1
* cell instance $18906 m0 *1 224.77,267.4
X$18906 532 133 591 7 8 599 MUX2_X1
* cell instance $18910 m0 *1 227.81,267.4
X$18910 490 7 8 421 BUF_X2
* cell instance $18916 m0 *1 228.95,267.4
X$18916 400 182 594 7 8 600 MUX2_X1
* cell instance $18917 r0 *1 229.33,267.4
X$18917 7 717 594 600 511 8 DFF_X1
* cell instance $18918 m0 *1 231.99,267.4
X$18918 7 629 576 593 511 8 DFF_X1
* cell instance $18919 m0 *1 230.66,267.4
X$18919 472 133 576 7 8 593 MUX2_X1
* cell instance $18933 m0 *1 247.19,267.4
X$18933 200 590 202 592 7 8 449 AOI22_X1
* cell instance $18935 m0 *1 248.14,267.4
X$18935 200 598 202 603 7 8 558 AOI22_X1
* cell instance $18940 r0 *1 249.47,267.4
X$18940 612 162 605 7 8 590 MUX2_X1
* cell instance $18942 m0 *1 251.18,267.4
X$18942 7 625 580 589 538 8 DFF_X1
* cell instance $18988 r0 *1 250.99,267.4
X$18988 7 711 601 602 538 8 DFF_X1
* cell instance $18989 r0 *1 254.22,267.4
X$18989 421 172 601 7 8 602 MUX2_X1
* cell instance $18993 r0 *1 258.02,267.4
X$18993 606 162 595 7 8 598 MUX2_X1
* cell instance $18997 r0 *1 261.82,267.4
X$18997 7 708 595 596 516 8 DFF_X1
* cell instance $19167 r0 *1 217.17,273
X$19167 613 7 8 472 BUF_X2
* cell instance $19168 m0 *1 217.74,273
X$19168 618 7 8 490 BUF_X2
* cell instance $19180 r0 *1 226.1,273
X$19180 617 7 8 532 BUF_X2
* cell instance $19195 m0 *1 242.44,273
X$19195 7 627 611 619 538 8 DFF_X1
* cell instance $19392 m0 *1 222.11,270.2
X$19392 532 7 8 412 BUF_X2
* cell instance $19400 m0 *1 233.89,270.2
X$19400 532 139 609 7 8 616 MUX2_X1
* cell instance $19404 r0 *1 235.03,270.2
X$19404 7 712 609 616 511 8 DFF_X1
* cell instance $19406 r0 *1 238.45,270.2
X$19406 7 713 610 620 511 8 DFF_X1
* cell instance $19407 m0 *1 238.83,270.2
X$19407 472 139 610 7 8 620 MUX2_X1
* cell instance $19413 m0 *1 242.06,270.2
X$19413 400 121 608 7 8 604 MUX2_X1
* cell instance $19414 m0 *1 243.39,270.2
X$19414 610 122 608 7 8 592 MUX2_X1
* cell instance $19415 m0 *1 244.72,270.2
X$19415 609 122 611 7 8 603 MUX2_X1
* cell instance $19418 m0 *1 249.28,270.2
X$19418 400 172 612 7 8 615 MUX2_X1
* cell instance $19420 m0 *1 250.8,270.2
X$19420 400 165 605 7 8 614 MUX2_X1
* cell instance $19424 r0 *1 241.68,270.2
X$19424 7 705 608 604 538 8 DFF_X1
* cell instance $19425 r0 *1 244.91,270.2
X$19425 412 121 611 7 8 619 MUX2_X1
* cell instance $19427 r0 *1 246.62,270.2
X$19427 7 716 612 615 538 8 DFF_X1
* cell instance $19428 r0 *1 249.85,270.2
X$19428 7 715 605 614 538 8 DFF_X1
* cell instance $19430 m0 *1 258.4,270.2
X$19430 7 665 606 607 516 8 DFF_X1
* cell instance $19431 m0 *1 257.07,270.2
X$19431 412 172 606 7 8 607 MUX2_X1
* cell instance $19432 m0 *1 261.63,270.2
X$19432 412 165 595 7 8 596 MUX2_X1
* cell instance $19624 m0 *1 208.43,259
X$19624 7 633 507 529 469 8 DFF_X1
* cell instance $19625 m0 *1 211.85,259
X$19625 490 33 530 7 8 544 MUX2_X1
* cell instance $19627 r0 *1 208.43,259
X$19627 400 82 507 7 8 529 MUX2_X1
* cell instance $19630 r0 *1 210.71,259
X$19630 7 727 530 544 469 8 DFF_X1
* cell instance $19632 m0 *1 213.56,259
X$19632 531 56 530 7 8 521 MUX2_X1
* cell instance $19635 r0 *1 213.94,259
X$19635 421 82 531 7 8 546 MUX2_X1
* cell instance $19637 r0 *1 218.31,259
X$19637 7 693 547 545 469 8 DFF_X1
* cell instance $19638 m0 *1 219.26,259
X$19638 532 33 547 7 8 545 MUX2_X1
* cell instance $19640 m0 *1 220.59,259
X$19640 533 56 547 7 8 508 MUX2_X1
* cell instance $19644 m0 *1 225.91,259
X$19644 490 13 509 7 8 549 MUX2_X1
* cell instance $19647 r0 *1 221.54,259
X$19647 412 82 533 7 8 565 MUX2_X1
* cell instance $19651 r0 *1 225.53,259
X$19651 7 735 509 549 511 8 DFF_X1
* cell instance $19652 m0 *1 228.57,259
X$19652 532 13 444 7 8 527 MUX2_X1
* cell instance $19658 m0 *1 235.41,259
X$19658 7 642 513 535 511 8 DFF_X1
* cell instance $19659 m0 *1 234.08,259
X$19659 490 9 513 7 8 535 MUX2_X1
* cell instance $19668 m0 *1 245.67,259
X$19668 513 122 536 7 8 552 MUX2_X1
* cell instance $19669 m0 *1 242.44,259
X$19669 7 638 536 514 327 8 DFF_X1
* cell instance $19673 m0 *1 259.35,259
X$19673 162 8 68 7 BUF_X4
* cell instance $19676 m0 *1 267.52,259
X$19676 517 520 7 8 548 XOR2_X1
* cell instance $19677 m0 *1 268.66,259
X$19677 548 358 7 8 541 NOR2_X1
* cell instance $19681 r0 *1 247.19,259
X$19681 65 550 66 522 7 8 571 AOI22_X1
* cell instance $19684 r0 *1 249.09,259
X$19684 552 66 65 551 7 8 537 AOI22_X1
* cell instance $19687 r0 *1 250.61,259
X$19687 147 7 8 538 CLKBUF_X3
* cell instance $19688 r0 *1 251.56,259
X$19688 538 7 8 CLKBUF_X1
* cell instance $19690 r0 *1 252.51,259
X$19690 540 68 572 7 8 551 MUX2_X1
* cell instance $19691 r0 *1 253.84,259
X$19691 421 67 540 7 8 539 MUX2_X1
* cell instance $19696 r0 *1 258.02,259
X$19696 560 68 566 7 8 550 MUX2_X1
* cell instance $19697 r0 *1 259.35,259
X$19697 412 67 560 7 8 561 MUX2_X1
* cell instance $19701 r0 *1 268.66,259
X$19701 7 541 516 774 517 8 DFF_X2
* cell instance $19703 m0 *1 270.56,259
X$19703 517 542 8 318 7 XOR2_X2
* cell instance $19707 m0 *1 273.6,259
X$19707 543 7 8 102 CLKBUF_X3
* cell instance $19711 m0 *1 276.83,259
X$19711 456 7 8 476 INV_X4
* cell instance $19712 m0 *1 277.78,259
X$19712 7 646 543 519 516 8 DFF_X1
* cell instance $19900 m0 *1 206.72,256.2
X$19900 7 632 489 498 469 8 DFF_X1
* cell instance $19901 m0 *1 205.39,256.2
X$19901 472 33 489 7 8 498 MUX2_X1
* cell instance $19905 m0 *1 212.04,256.2
X$19905 7 623 468 467 469 8 DFF_X1
* cell instance $19909 m0 *1 216.98,256.2
X$19909 501 96 521 7 8 503 MUX2_X1
* cell instance $19912 m0 *1 221.54,256.2
X$19912 491 142 508 7 8 523 MUX2_X1
* cell instance $19916 m0 *1 225.34,256.2
X$19916 503 158 157 492 504 534 7 8 OAI221_X2
* cell instance $19918 m0 *1 227.62,256.2
X$19918 493 115 7 8 504 NOR2_X1
* cell instance $19920 m0 *1 228.95,256.2
X$19920 471 115 7 8 526 NOR2_X1
* cell instance $19928 r0 *1 225.91,256.2
X$19928 523 158 510 157 526 524 7 8 OAI221_X2
* cell instance $19931 m0 *1 232.37,256.2
X$19931 147 7 8 511 CLKBUF_X3
* cell instance $19932 m0 *1 230.66,256.2
X$19932 96 158 7 157 8 NAND2_X4
* cell instance $19939 m0 *1 242.25,256.2
X$19939 421 24 536 7 8 514 MUX2_X1
* cell instance $19943 m0 *1 248.33,256.2
X$19943 7 158 56 451 202 8 NOR3_X4
* cell instance $19944 m0 *1 250.99,256.2
X$19944 7 68 56 451 66 8 NOR3_X4
* cell instance $19948 m0 *1 262.01,256.2
X$19948 494 7 8 128 CLKBUF_X3
* cell instance $19952 r0 *1 233.32,256.2
X$19952 532 9 512 7 8 528 MUX2_X1
* cell instance $19953 r0 *1 234.65,256.2
X$19953 7 740 512 528 511 8 DFF_X1
* cell instance $19955 r0 *1 239.4,256.2
X$19955 412 24 515 7 8 525 MUX2_X1
* cell instance $19956 r0 *1 240.73,256.2
X$19956 7 758 515 525 327 8 DFF_X1
* cell instance $19957 r0 *1 243.96,256.2
X$19957 512 50 515 7 8 522 MUX2_X1
* cell instance $19962 r0 *1 249.66,256.2
X$19962 147 7 8 327 CLKBUF_X3
* cell instance $19963 r0 *1 250.61,256.2
X$19963 327 7 8 764 INV_X2
* cell instance $19966 m0 *1 263.53,256.2
X$19966 494 427 115 159 7 8 520 NAND4_X1
* cell instance $19968 m0 *1 264.48,256.2
X$19968 505 358 7 8 484 NOR2_X1
* cell instance $19973 r0 *1 265.05,256.2
X$19973 147 7 8 516 CLKBUF_X3
* cell instance $19974 r0 *1 266,256.2
X$19974 516 7 8 763 INV_X2
* cell instance $19975 m0 *1 266.38,256.2
X$19975 147 7 8 361 CLKBUF_X3
* cell instance $19977 m0 *1 267.33,256.2
X$19977 361 7 8 CLKBUF_X1
* cell instance $19983 r0 *1 270.37,256.2
X$19983 542 517 7 8 452 XNOR2_X2
* cell instance $19985 m0 *1 273.03,256.2
X$19985 518 317 452 7 494 8 AOI21_X2
* cell instance $19993 m0 *1 277.21,256.2
X$19993 433 502 7 8 495 OR2_X1
* cell instance $19994 m0 *1 277.97,256.2
X$19994 476 358 7 8 500 NOR2_X1
* cell instance $19999 r0 *1 278.16,256.2
X$19999 476 518 358 7 8 519 NOR3_X1
* cell instance $20002 m0 *1 285.19,256.2
X$20002 499 7 8 518 INV_X1
* cell instance $20080 m0 *1 484.69,256.2
X$20080 497 7 8 499 CLKBUF_X3
* cell instance $20179 m0 *1 203.3,253.4
X$20179 7 635 420 432 315 8 DFF_X1
* cell instance $20186 r0 *1 209.38,253.4
X$20186 507 151 489 7 8 466 MUX2_X1
* cell instance $20187 r0 *1 210.71,253.4
X$20187 479 142 466 7 8 480 MUX2_X1
* cell instance $20189 m0 *1 212.42,253.4
X$20189 7 624 422 435 315 8 DFF_X1
* cell instance $20192 m0 *1 216.41,253.4
X$20192 147 7 8 315 CLKBUF_X3
* cell instance $20196 r0 *1 212.42,253.4
X$20196 490 141 468 7 8 467 MUX2_X1
* cell instance $20198 r0 *1 214.13,253.4
X$20198 468 151 422 7 8 501 MUX2_X1
* cell instance $20201 r0 *1 216.6,253.4
X$20201 147 7 8 469 CLKBUF_X3
* cell instance $20202 r0 *1 217.55,253.4
X$20202 7 733 470 458 469 8 DFF_X1
* cell instance $20204 m0 *1 220.02,253.4
X$20204 532 141 470 7 8 458 MUX2_X1
* cell instance $20206 r0 *1 220.78,253.4
X$20206 470 151 423 7 8 491 MUX2_X1
* cell instance $20210 r0 *1 226.1,253.4
X$20210 438 151 509 7 8 485 MUX2_X1
* cell instance $20212 r0 *1 227.62,253.4
X$20212 485 96 97 7 8 493 NOR3_X1
* cell instance $20213 m0 *1 228,253.4
X$20213 414 59 444 7 8 445 MUX2_X1
* cell instance $20216 m0 *1 229.52,253.4
X$20216 7 645 446 487 309 8 DFF_X1
* cell instance $20217 m0 *1 232.75,253.4
X$20217 415 59 446 7 8 463 MUX2_X1
* cell instance $20218 m0 *1 234.08,253.4
X$20218 463 96 97 7 8 447 NOR3_X1
* cell instance $20220 m0 *1 237.88,253.4
X$20220 7 640 448 440 309 8 DFF_X1
* cell instance $20224 m0 *1 243.58,253.4
X$20224 448 50 442 7 8 465 MUX2_X1
* cell instance $20226 m0 *1 246.43,253.4
X$20226 65 461 66 465 7 8 464 AOI22_X1
* cell instance $20227 m0 *1 247.38,253.4
X$20227 128 464 449 8 7 443 AND3_X1
* cell instance $20228 m0 *1 248.33,253.4
X$20228 7 142 426 451 65 8 NOR3_X4
* cell instance $20230 m0 *1 251.18,253.4
X$20230 400 67 450 7 8 462 MUX2_X1
* cell instance $20233 r0 *1 228.76,253.4
X$20233 445 96 97 7 8 471 NOR3_X1
* cell instance $20235 r0 *1 229.9,253.4
X$20235 472 13 446 7 8 487 MUX2_X1
* cell instance $20237 r0 *1 231.42,253.4
X$20237 309 7 8 766 INV_X1
* cell instance $20238 r0 *1 231.8,253.4
X$20238 147 7 8 309 CLKBUF_X3
* cell instance $20239 r0 *1 232.75,253.4
X$20239 157 584 488 480 158 8 7 424 OAI221_X1
* cell instance $20240 r0 *1 233.89,253.4
X$20240 447 115 7 8 488 NOR2_X1
* cell instance $20245 r0 *1 248.33,253.4
X$20245 7 122 426 451 200 8 NOR3_X4
* cell instance $20246 r0 *1 250.99,253.4
X$20246 7 731 450 462 327 8 DFF_X1
* cell instance $20247 m0 *1 253.08,253.4
X$20247 450 68 473 7 8 461 MUX2_X1
* cell instance $20251 r0 *1 254.22,253.4
X$20251 400 38 473 7 8 486 MUX2_X1
* cell instance $20254 r0 *1 256.12,253.4
X$20254 7 732 473 486 361 8 DFF_X1
* cell instance $20255 m0 *1 256.5,253.4
X$20255 115 7 8 451 INV_X4
* cell instance $20257 m0 *1 257.45,253.4
X$20257 59 7 8 426 INV_X2
* cell instance $20260 m0 *1 261.82,253.4
X$20260 426 460 8 7 441 XNOR2_X1
* cell instance $20261 m0 *1 262.96,253.4
X$20261 128 427 7 8 460 NAND2_X1
* cell instance $20265 m0 *1 272.84,253.4
X$20265 459 7 8 404 BUF_X2
* cell instance $20269 r0 *1 261.63,253.4
X$20269 494 159 50 97 7 8 506 NAND4_X1
* cell instance $20270 r0 *1 262.58,253.4
X$20270 451 506 8 7 505 XNOR2_X1
* cell instance $20272 r0 *1 264.1,253.4
X$20272 483 8 115 7 BUF_X4
* cell instance $20273 r0 *1 265.43,253.4
X$20273 7 482 483 484 361 8 DFF_X1
* cell instance $20276 r0 *1 271.89,253.4
X$20276 482 428 459 8 7 481 HA_X1
* cell instance $20278 m0 *1 274.74,253.4
X$20278 317 452 7 8 456 NAND2_X1
* cell instance $20279 m0 *1 273.98,253.4
X$20279 481 403 404 7 457 8 AOI21_X1
* cell instance $20282 m0 *1 277.02,253.4
X$20282 404 429 8 7 478 XNOR2_X1
* cell instance $20286 r0 *1 274.93,253.4
X$20286 457 453 7 8 474 NAND2_X1
* cell instance $20288 r0 *1 275.69,253.4
X$20288 318 474 8 7 502 XNOR2_X1
* cell instance $20291 r0 *1 277.78,253.4
X$20291 478 495 500 8 477 7 OAI21_X1
* cell instance $20292 r0 *1 278.54,253.4
X$20292 7 477 361 775 454 8 DFF_X2
* cell instance $20293 m0 *1 279.49,253.4
X$20293 454 410 430 8 433 7 OAI21_X1
* cell instance $20375 r0 *1 484.88,253.4
X$20375 454 7 8 496 BUF_X1
* cell instance $20379 r0 *1 486.78,253.4
X$20379 476 7 8 475 BUF_X1
* cell instance $20380 m0 *1 487.16,253.4
X$20380 406 7 8 455 BUF_X1
* cell instance $20456 m0 *1 207.48,247.8
X$20456 7 630 367 387 315 8 DFF_X1
* cell instance $20457 m0 *1 210.71,247.8
X$20457 367 179 308 7 8 387 MUX2_X1
* cell instance $20522 r0 *1 230.85,247.8
X$20522 7 746 415 399 309 8 DFF_X1
* cell instance $20524 r0 *1 234.27,247.8
X$20524 7 741 392 425 309 8 DFF_X1
* cell instance $20526 m0 *1 235.22,247.8
X$20526 146 392 123 8 368 7 OAI21_X1
* cell instance $20625 m0 *1 204.82,250.6
X$20625 7 631 398 408 315 8 DFF_X1
* cell instance $20627 m0 *1 208.05,250.6
X$20627 398 179 400 7 8 408 MUX2_X1
* cell instance $20632 m0 *1 224.77,250.6
X$20632 421 61 438 7 8 437 MUX2_X1
* cell instance $20634 m0 *1 226.29,250.6
X$20634 412 61 414 7 8 439 MUX2_X1
* cell instance $20637 m0 *1 231.42,250.6
X$20637 400 61 415 7 8 399 MUX2_X1
* cell instance $20643 r0 *1 204.82,250.6
X$20643 472 141 420 7 8 432 MUX2_X1
* cell instance $20645 r0 *1 206.91,250.6
X$20645 420 151 398 7 8 479 MUX2_X1
* cell instance $20648 r0 *1 214.51,250.6
X$20648 422 179 421 7 8 435 MUX2_X1
* cell instance $20651 r0 *1 217.55,250.6
X$20651 7 695 423 436 315 8 DFF_X1
* cell instance $20652 r0 *1 220.78,250.6
X$20652 423 179 412 7 8 436 MUX2_X1
* cell instance $20654 r0 *1 222.3,250.6
X$20654 7 730 438 437 315 8 DFF_X1
* cell instance $20656 r0 *1 225.72,250.6
X$20656 7 696 414 439 309 8 DFF_X1
* cell instance $20661 r0 *1 235.03,250.6
X$20661 368 424 443 7 425 8 AOI21_X1
* cell instance $20665 r0 *1 238.26,250.6
X$20665 472 9 448 7 8 440 MUX2_X1
* cell instance $20667 r0 *1 241.11,250.6
X$20667 7 752 442 417 327 8 DFF_X1
* cell instance $20668 m0 *1 241.87,250.6
X$20668 400 24 442 7 8 417 MUX2_X1
* cell instance $20674 m0 *1 258.59,250.6
X$20674 418 8 59 7 BUF_X4
* cell instance $20678 m0 *1 262.39,250.6
X$20678 7 416 418 419 361 8 DFF_X1
* cell instance $20681 m0 *1 266.57,250.6
X$20681 374 102 8 7 402 AND2_X2
* cell instance $20688 r0 *1 262.58,250.6
X$20688 441 358 7 8 419 NOR2_X1
* cell instance $20690 r0 *1 269.23,250.6
X$20690 7 704 428 393 361 8 DFF_X1
* cell instance $20691 m0 *1 271.89,250.6
X$20691 416 329 401 8 7 403 HA_X1
* cell instance $20696 r0 *1 272.46,250.6
X$20696 428 8 277 7 BUF_X4
* cell instance $20699 r0 *1 274.93,250.6
X$20699 404 390 381 7 8 453 NAND3_X1
* cell instance $20702 r0 *1 276.26,250.6
X$20702 404 429 7 8 434 XOR2_X1
* cell instance $20704 m0 *1 276.64,250.6
X$20704 403 411 390 7 429 8 AOI21_X2
* cell instance $20705 m0 *1 277.97,250.6
X$20705 7 413 361 773 406 8 DFF_X2
* cell instance $20706 m0 *1 281.58,250.6
X$20706 383 405 7 8 410 NAND2_X1
* cell instance $20742 r0 *1 277.4,250.6
X$20742 381 390 8 7 430 XNOR2_X1
* cell instance $20744 r0 *1 278.73,250.6
X$20744 358 430 409 7 8 382 OR3_X1
* cell instance $20796 m0 *1 484.31,250.6
X$20796 271 7 8 407 BUF_X1
* cell instance $20801 r0 *1 484.31,250.6
X$20801 402 7 8 431 BUF_X1
* cell instance $20923 m0 *1 205.58,219.8
X$20923 7 641 92 93 22 8 DFF_X1
* cell instance $20925 m0 *1 208.81,219.8
X$20925 35 82 92 7 8 93 MUX2_X1
* cell instance $20931 m0 *1 227.05,219.8
X$20931 7 668 62 85 32 8 DFF_X1
* cell instance $20945 r0 *1 208.43,219.8
X$20945 92 56 75 7 8 116 MUX2_X1
* cell instance $20955 r0 *1 243.2,219.8
X$20955 7 702 124 111 27 8 DFF_X1
* cell instance $20958 r0 *1 248.33,219.8
X$20958 7 703 105 100 27 8 DFF_X1
* cell instance $20962 m0 *1 257.64,219.8
X$20962 7 670 90 94 51 8 DFF_X1
* cell instance $20963 m0 *1 261.44,219.8
X$20963 25 38 70 7 8 91 MUX2_X1
* cell instance $20966 m0 *1 262.96,219.8
X$20966 7 664 70 91 51 8 DFF_X1
* cell instance $21309 m0 *1 206.72,233.8
X$21309 222 141 232 7 8 233 MUX2_X1
* cell instance $21311 m0 *1 208.81,233.8
X$21311 232 151 195 7 8 194 MUX2_X1
* cell instance $21312 m0 *1 210.14,233.8
X$21312 195 179 223 7 8 196 MUX2_X1
* cell instance $21315 m0 *1 212.42,233.8
X$21315 222 7 8 223 BUF_X2
* cell instance $21364 r0 *1 204.63,233.8
X$21364 222 33 240 7 8 272 MUX2_X1
* cell instance $21365 r0 *1 205.96,233.8
X$21365 7 707 232 233 180 8 DFF_X1
* cell instance $21367 r0 *1 209.57,233.8
X$21367 194 142 253 7 8 235 MUX2_X1
* cell instance $21370 r0 *1 215.46,233.8
X$21370 223 182 224 7 8 197 MUX2_X1
* cell instance $21371 m0 *1 216.03,233.8
X$21371 7 660 224 197 180 8 DFF_X1
* cell instance $21376 m0 *1 227.62,233.8
X$21376 222 13 198 7 8 226 MUX2_X1
* cell instance $21381 r0 *1 217.93,233.8
X$21381 222 133 225 7 8 242 MUX2_X1
* cell instance $21383 r0 *1 220.02,233.8
X$21383 224 159 225 7 8 255 MUX2_X1
* cell instance $21387 r0 *1 224.96,233.8
X$21387 235 158 255 157 256 244 7 8 OAI221_X2
* cell instance $21389 r0 *1 227.05,233.8
X$21389 7 738 198 226 183 8 DFF_X1
* cell instance $21392 m0 *1 232.37,233.8
X$21392 56 8 159 7 BUF_X4
* cell instance $21393 m0 *1 234.46,233.8
X$21393 7 634 227 239 183 8 DFF_X1
* cell instance $21397 r0 *1 234.08,233.8
X$21397 222 139 227 7 8 239 MUX2_X1
* cell instance $21398 r0 *1 235.41,233.8
X$21398 222 9 257 7 8 280 MUX2_X1
* cell instance $21404 m0 *1 251.94,233.8
X$21404 128 8 146 7 BUF_X4
* cell instance $21405 m0 *1 253.27,233.8
X$21405 223 67 229 7 8 236 MUX2_X1
* cell instance $21408 m0 *1 261.44,233.8
X$21408 223 165 206 7 8 208 MUX2_X1
* cell instance $21409 m0 *1 262.77,233.8
X$21409 231 162 206 7 8 230 MUX2_X1
* cell instance $21451 r0 *1 244.15,233.8
X$21451 223 121 238 7 8 248 MUX2_X1
* cell instance $21454 r0 *1 246.43,233.8
X$21454 227 122 238 7 8 237 MUX2_X1
* cell instance $21455 r0 *1 247.76,233.8
X$21455 200 230 202 237 7 8 249 AOI22_X1
* cell instance $21456 r0 *1 248.71,233.8
X$21456 254 176 186 7 228 8 AOI21_X1
* cell instance $21460 r0 *1 251.94,233.8
X$21460 7 760 229 236 201 8 DFF_X1
* cell instance $21464 r0 *1 259.16,233.8
X$21464 223 172 231 7 8 234 MUX2_X1
* cell instance $21465 r0 *1 260.49,233.8
X$21465 7 739 231 234 205 8 DFF_X1
* cell instance $21569 m0 *1 203.49,236.6
X$21569 7 654 240 272 180 8 DFF_X1
* cell instance $21573 m0 *1 209.19,236.6