
* cell fixed_point_sqrt
* pin x[4]
* pin x[5]
* pin x[2]
* pin x[7]
* pin x[6]
* pin x[1]
* pin x[0]
* pin x[3]
* pin PWELL
* pin NWELL
* pin x[8]
* pin x[12]
* pin x[15]
* pin clk
* pin y[5]
* pin x[14]
* pin x[9]
* pin y[7]
* pin y[6]
* pin y[9]
* pin x[13]
* pin x[11]
* pin y[11]
* pin enable
* pin y[8]
* pin x[10]
* pin y[0]
* pin y[3]
* pin y[2]
* pin y[1]
* pin y[15]
* pin reset
* pin y[13]
* pin y[14]
* pin y[12]
* pin y[10]
* pin y[4]
.SUBCKT fixed_point_sqrt 1 2 3 4 5 6 7 8 11 15 53 54 63 71 72 75 87 95 117 135
+ 136 141 147 148 149 159 161 162 167 174 177 179 180 181 185 186 187
* net 1 x[4]
* net 2 x[5]
* net 3 x[2]
* net 4 x[7]
* net 5 x[6]
* net 6 x[1]
* net 7 x[0]
* net 8 x[3]
* net 11 PWELL
* net 15 NWELL
* net 53 x[8]
* net 54 x[12]
* net 63 x[15]
* net 71 clk
* net 72 y[5]
* net 75 x[14]
* net 87 x[9]
* net 95 y[7]
* net 117 y[6]
* net 135 y[9]
* net 136 x[13]
* net 141 x[11]
* net 147 y[11]
* net 148 enable
* net 149 y[8]
* net 159 x[10]
* net 161 y[0]
* net 162 y[3]
* net 167 y[2]
* net 174 y[1]
* net 177 y[15]
* net 179 reset
* net 180 y[13]
* net 181 y[14]
* net 185 y[12]
* net 186 y[10]
* net 187 y[4]
* cell instance $2 r0 *1 15.58,1.4
X$2 1 11 15 10 BUF_X2
* cell instance $8 r0 *1 17.86,1.4
X$8 2 11 15 27 BUF_X2
* cell instance $15 m0 *1 18.43,4.2
X$15 3 11 15 13 BUF_X2
* cell instance $21 m0 *1 19.38,4.2
X$21 4 11 15 18 BUF_X1
* cell instance $27 m0 *1 19.95,4.2
X$27 5 11 15 16 BUF_X2
* cell instance $32 r0 *1 24.32,1.4
X$32 6 11 15 9 CLKBUF_X3
* cell instance $39 r0 *1 28.5,4.2
X$39 7 11 15 22 BUF_X2
* cell instance $44 r0 *1 29.45,1.4
X$44 8 11 15 12 CLKBUF_X3
* cell instance $57 m0 *1 19.95,12.6
X$57 27 13 9 15 55 11 NOR3_X2
* cell instance $60 r0 *1 20.71,7
X$60 18 9 11 15 26 NOR2_X1
* cell instance $63 m0 *1 23.75,7
X$63 10 27 9 17 15 20 11 NOR4_X2
* cell instance $65 r0 *1 23.37,15.4
X$65 11 9 17 47 48 15 NOR3_X4
* cell instance $67 m0 *1 19.95,15.4
X$67 12 9 22 16 11 51 15 NAND4_X2
* cell instance $78 r0 *1 19.76,12.6
X$78 39 10 12 15 23 11 NOR3_X2
* cell instance $81 m0 *1 21.28,12.6
X$81 10 12 22 15 35 11 NOR3_X2
* cell instance $85 r0 *1 25.08,9.8
X$85 10 32 15 11 33 AND2_X1
* cell instance $88 r0 *1 25.65,12.6
X$88 42 10 43 11 44 15 AOI21_X1
* cell instance $90 r0 *1 12.54,18.2
X$90 65 66 64 10 11 15 57 NAND4_X1
* cell instance $94 m0 *1 3.42,21
X$94 75 11 15 66 CLKBUF_X2
* cell instance $97 m0 *1 4.94,21
X$97 87 11 15 45 CLKBUF_X2
* cell instance $100 m0 *1 9.5,21
X$100 45 76 106 15 89 11 OAI21_X1
* cell instance $102 m0 *1 11.78,21
X$102 11 90 64 66 65 126 15 NOR4_X4
* cell instance $113 r0 *1 8.17,21
X$113 104 103 76 64 15 88 11 NOR4_X2
* cell instance $114 r0 *1 9.88,21
X$114 105 89 111 11 92 15 AOI21_X1
* cell instance $115 r0 *1 10.64,21
X$115 64 104 11 15 111 NOR2_X1
* cell instance $117 r0 *1 12.73,21
X$117 90 104 106 76 11 15 91 NAND4_X1
* cell instance $120 m0 *1 15.58,21
X$120 76 11 15 77 INV_X1
* cell instance $121 m0 *1 16.15,21
X$121 65 66 11 15 101 NOR2_X1
* cell instance $122 m0 *1 16.72,21
X$122 66 65 11 15 93 OR2_X1
* cell instance $126 r0 *1 17.67,21
X$126 103 77 73 11 15 107 NAND3_X1
* cell instance $127 m0 *1 18.05,21
X$127 45 11 15 73 INV_X1
* cell instance $131 r0 *1 18.43,21
X$131 108 101 11 15 112 NAND2_X2
* cell instance $133 r0 *1 19.57,21
X$133 92 126 93 11 15 109 NOR3_X1
* cell instance $135 m0 *1 19.57,21
X$135 92 78 67 93 11 15 102 NOR4_X1
* cell instance $137 m0 *1 23.75,21
X$137 102 74 79 11 15 80 NOR3_X1
* cell instance $139 m0 *1 24.7,21
X$139 78 48 40 11 62 15 AOI21_X1
* cell instance $140 m0 *1 25.46,21
X$140 78 68 79 11 15 99 NOR3_X1
* cell instance $141 m0 *1 26.22,21
X$141 86 70 11 15 79 NAND2_X2
* cell instance $142 m0 *1 27.17,21
X$142 52 11 15 86 INV_X1
* cell instance $149 r0 *1 23.94,21
X$149 74 78 48 40 94 15 11 AOI211_X2
* cell instance $151 r0 *1 26.03,21
X$151 48 38 52 70 94 100 15 11 AOI221_X2
* cell instance $154 m0 *1 31.73,21
X$154 61 97 98 15 85 11 OAI21_X1
* cell instance $156 m0 *1 33.44,21
X$156 96 60 11 15 98 NAND2_X1
* cell instance $157 m0 *1 34.01,21
X$157 97 80 81 15 84 11 OAI21_X1
* cell instance $158 m0 *1 34.77,21
X$158 96 83 11 15 81 NAND2_X1
* cell instance $161 r0 *1 34.39,21
X$161 110 11 15 82 CLKBUF_X3
* cell instance $162 r0 *1 35.34,21
X$162 82 11 15 CLKBUF_X1
* cell instance $163 m0 *1 35.91,21
X$163 11 83 84 82 15 DFF_X1
* cell instance $167 m0 *1 40.09,21
X$167 83 11 15 95 BUF_X1
* cell instance $176 m0 *1 1.71,37.8
X$176 178 11 15 177 BUF_X1
* cell instance $177 m0 *1 2.28,37.8
X$177 183 11 15 LOGIC0_X1
* cell instance $178 m0 *1 2.66,37.8
X$178 178 11 15 LOGIC0_X1
* cell instance $188 r0 *1 1.33,37.8
X$188 184 11 15 185 BUF_X1
* cell instance $189 r0 *1 1.9,37.8
X$189 184 11 15 LOGIC0_X1
* cell instance $190 r0 *1 2.28,37.8
X$190 183 11 15 181 BUF_X1
* cell instance $191 r0 *1 2.85,37.8
X$191 182 11 15 180 BUF_X1
* cell instance $193 r0 *1 3.8,37.8
X$193 182 11 15 LOGIC0_X1
* cell instance $198 m0 *1 25.65,37.8
X$198 179 11 15 115 BUF_X2
* cell instance $216 m0 *1 42.94,29.4
X$216 155 11 15 156 BUF_X1
* cell instance $217 m0 *1 42.37,29.4
X$217 155 11 15 147 BUF_X1
* cell instance $219 m0 *1 43.7,29.4
X$219 156 11 15 162 BUF_X1
* cell instance $222 r0 *1 42.37,29.4
X$222 155 11 15 172 BUF_X1
* cell instance $224 r0 *1 43.32,29.4
X$224 155 11 15 168 BUF_X1
* cell instance $225 r0 *1 43.89,29.4
X$225 168 11 15 161 BUF_X1
* cell instance $230 m0 *1 4.56,26.6
X$230 159 11 15 106 CLKBUF_X3
* cell instance $231 m0 *1 5.51,26.6
X$231 136 11 15 90 CLKBUF_X3
* cell instance $235 m0 *1 8.93,26.6
X$235 106 11 15 103 INV_X2
* cell instance $237 m0 *1 9.69,26.6
X$237 105 104 103 15 137 11 NOR3_X2
* cell instance $239 m0 *1 11.21,26.6
X$239 137 138 113 15 132 11 OAI21_X1
* cell instance $248 r0 *1 8.36,26.6
X$248 141 11 15 104 CLKBUF_X3
* cell instance $251 m0 *1 12.35,26.6
X$251 90 142 106 11 15 125 NOR3_X1
* cell instance $253 m0 *1 14.06,26.6
X$253 104 11 15 142 INV_X1
* cell instance $254 m0 *1 14.44,26.6
X$254 104 103 76 11 15 150 NAND3_X1
* cell instance $258 m0 *1 15.58,26.6
X$258 142 106 11 15 143 NAND2_X1
* cell instance $259 m0 *1 16.34,26.6
X$259 103 142 126 15 11 59 AND3_X2
* cell instance $261 m0 *1 18.05,26.6
X$261 76 143 150 15 130 11 OAI21_X1
* cell instance $266 m0 *1 19.95,26.6
X$266 59 108 76 11 15 151 NAND3_X1
* cell instance $268 m0 *1 21.66,26.6
X$268 132 112 114 15 152 11 OAI21_X1
* cell instance $272 m0 *1 24.13,26.6
X$272 154 133 140 11 153 15 AOI21_X1
* cell instance $273 m0 *1 23.56,26.6
X$273 152 79 11 15 133 NOR2_X1
* cell instance $274 m0 *1 24.89,26.6
X$274 11 146 153 139 15 DFF_X1
* cell instance $275 m0 *1 28.12,26.6
X$275 114 146 134 15 154 11 OAI21_X1
* cell instance $276 m0 *1 28.88,26.6
X$276 145 134 11 15 97 NAND2_X1
* cell instance $280 m0 *1 31.92,26.6
X$280 71 11 15 110 CLKBUF_X3
* cell instance $285 r0 *1 24.89,26.6
X$285 114 151 15 11 145 AND2_X1
* cell instance $289 r0 *1 26.98,26.6
X$289 114 11 15 144 INV_X1
* cell instance $294 m0 *1 37.05,26.6
X$294 146 11 15 149 BUF_X1
* cell instance $298 r0 *1 37.62,26.6
X$298 148 11 15 114 CLKBUF_X2
* cell instance $311 m0 *1 20.14,7
X$311 22 16 11 15 19 XOR2_X1
* cell instance $312 m0 *1 21.28,7
X$312 18 16 11 15 17 OR2_X2
* cell instance $314 m0 *1 25.46,7
X$314 20 14 12 22 11 15 25 NAND4_X1
* cell instance $332 r0 *1 21.28,7
X$332 19 26 23 11 15 21 NAND3_X1
* cell instance $336 r0 *1 24.51,7
X$336 28 20 13 11 15 24 NAND3_X1
* cell instance $337 r0 *1 25.27,7
X$337 24 25 21 11 15 29 NAND3_X1
* cell instance $349 m0 *1 17.1,23.8
X$349 11 78 112 120 123 15 AOI21_X4
* cell instance $351 m0 *1 20.33,23.8
X$351 109 52 59 11 15 124 NOR3_X1
* cell instance $354 m0 *1 27.93,23.8
X$354 100 99 97 114 121 115 11 15 122 OAI33_X1
* cell instance $355 m0 *1 29.26,23.8
X$355 11 116 122 82 15 DFF_X1
* cell instance $356 m0 *1 32.49,23.8
X$356 116 11 15 121 INV_X1
* cell instance $357 m0 *1 32.87,23.8
X$357 115 114 11 15 96 NOR2_X1
* cell instance $360 m0 *1 34.39,23.8
X$360 96 118 11 15 119 NAND2_X1
* cell instance $363 m0 *1 8.36,23.8
X$363 11 105 88 120 127 64 15 AOI22_X4
* cell instance $364 m0 *1 7.79,23.8
X$364 90 11 15 105 INV_X2
* cell instance $366 r0 *1 7.79,23.8
X$366 11 76 106 104 90 127 15 NOR4_X4
* cell instance $367 r0 *1 11.21,23.8
X$367 90 106 11 15 138 NOR2_X1
* cell instance $369 m0 *1 12.16,23.8
X$369 64 77 11 15 113 NOR2_X1
* cell instance $374 r0 *1 11.97,23.8
X$374 113 137 125 15 11 123 OAI21_X2
* cell instance $378 r0 *1 18.62,23.8
X$378 107 94 143 126 11 15 140 NAND4_X1
* cell instance $379 r0 *1 19.57,23.8
X$379 126 130 15 11 131 AND2_X1
* cell instance $382 r0 *1 21.28,23.8
X$382 94 124 52 108 131 129 15 11 AOI221_X2
* cell instance $386 r0 *1 28.69,23.8
X$386 115 11 15 134 INV_X1
* cell instance $391 r0 *1 33.44,23.8
X$391 97 129 119 15 128 11 OAI21_X1
* cell instance $392 r0 *1 34.2,23.8
X$392 11 118 128 82 15 DFF_X1
* cell instance $393 m0 *1 37.05,23.8
X$393 116 11 15 117 BUF_X1
* cell instance $401 r0 *1 38.76,23.8
X$401 118 11 15 135 BUF_X1
* cell instance $415 m0 *1 3.8,18.2
X$415 53 11 15 76 CLKBUF_X3
* cell instance $423 r0 *1 2.47,18.2
X$423 54 15 64 11 BUF_X4
* cell instance $426 r0 *1 7.6,18.2
X$426 63 11 15 65 CLKBUF_X2
* cell instance $430 r0 *1 13.49,18.2
X$430 57 91 11 15 50 OR2_X1
* cell instance $433 r0 *1 17.67,18.2
X$433 59 77 73 11 15 47 NAND3_X2
* cell instance $434 m0 *1 19,18.2
X$434 49 76 16 11 15 58 NOR3_X1
* cell instance $436 m0 *1 19.76,18.2
X$436 35 55 46 15 11 108 AND3_X1
* cell instance $438 m0 *1 21.47,18.2
X$438 56 47 11 15 74 NOR2_X1
* cell instance $439 m0 *1 22.04,18.2
X$439 47 17 11 15 67 NOR2_X1
* cell instance $446 r0 *1 19.38,18.2
X$446 59 55 35 58 11 70 15 NAND4_X2
* cell instance $450 r0 *1 25.27,18.2
X$450 47 11 15 68 INV_X1
* cell instance $452 r0 *1 26.41,18.2
X$452 68 29 52 62 67 61 15 11 AOI221_X2
* cell instance $456 r0 *1 31.16,18.2
X$456 11 60 85 82 15 DFF_X1
* cell instance $461 r0 *1 37.24,18.2
X$461 60 11 15 72 BUF_X1
* cell instance $514 r0 *1 25.46,4.2
X$514 13 11 15 14 INV_X1
* cell instance $554 m0 *1 18.62,12.6
X$554 27 13 11 15 39 NAND2_X2
* cell instance $557 m0 *1 22.61,12.6
X$557 22 23 36 35 11 15 31 AOI22_X1
* cell instance $563 r0 *1 23.75,12.6
X$563 31 41 11 15 40 NAND2_X1
* cell instance $565 m0 *1 25.46,12.6
X$565 23 12 33 11 37 15 AOI21_X1
* cell instance $566 m0 *1 24.7,12.6
X$566 44 28 32 15 41 11 OAI21_X1
* cell instance $567 m0 *1 26.22,12.6
X$567 42 37 34 15 38 11 OAI21_X1
* cell instance $569 m0 *1 27.74,12.6
X$569 12 11 15 43 INV_X1
* cell instance $577 r0 *1 26.41,12.6
X$577 22 11 15 42 INV_X1
* cell instance $592 m0 *1 24.13,43.4
X$592 165 11 15 186 BUF_X1
* cell instance $595 m0 *1 29.26,43.4
X$595 176 11 15 187 BUF_X1
* cell instance $632 m0 *1 23.37,29.4
X$632 126 144 11 15 160 NOR2_X1
* cell instance $646 r0 *1 23.18,29.4
X$646 160 165 144 11 164 15 AOI21_X1
* cell instance $648 r0 *1 24.13,29.4
X$648 164 115 11 15 170 NOR2_X1
* cell instance $649 r0 *1 24.7,29.4
X$649 11 165 170 139 15 DFF_X1
* cell instance $650 m0 *1 26.79,29.4
X$650 69 79 145 15 163 11 OAI21_X1
* cell instance $654 m0 *1 29.83,29.4
X$654 52 145 144 155 11 15 158 AOI22_X1
* cell instance $657 m0 *1 31.73,29.4
X$657 158 115 11 15 157 NOR2_X1
* cell instance $661 r0 *1 29.83,29.4
X$661 79 145 144 169 11 15 166 AOI22_X1
* cell instance $664 r0 *1 31.35,29.4
X$664 166 115 11 15 171 NOR2_X1
* cell instance $665 r0 *1 31.92,29.4
X$665 11 169 171 139 15 DFF_X1
* cell instance $667 m0 *1 32.68,29.4
X$667 11 155 157 139 15 DFF_X1
* cell instance $689 r0 *1 26.6,32.2
X$689 11 176 175 139 15 DFF_X1
* cell instance $690 m0 *1 27.74,32.2
X$690 115 173 163 11 175 15 AOI21_X1
* cell instance $692 m0 *1 28.5,32.2
X$692 176 144 11 15 173 NAND2_X1
* cell instance $694 m0 *1 29.26,32.2
X$694 110 11 15 139 CLKBUF_X3
* cell instance $700 m0 *1 38.38,32.2
X$700 169 11 15 174 BUF_X1
* cell instance $705 m0 *1 42.94,32.2
X$705 172 11 15 167 BUF_X1
* cell instance $717 m0 *1 16.53,15.4
X$717 11 49 50 39 51 52 15 NOR4_X4
* cell instance $720 m0 *1 24.89,15.4
X$720 22 12 32 48 15 11 69 AND4_X1
* cell instance $732 r0 *1 18.81,15.4
X$732 45 18 11 15 49 NAND2_X2
* cell instance $733 r0 *1 19.76,15.4
X$733 45 16 18 11 15 46 NOR3_X1
* cell instance $766 m0 *1 20.14,9.8
X$766 13 27 15 11 30 XNOR2_X1
* cell instance $772 r0 *1 20.9,9.8
X$772 30 26 35 16 11 15 56 NAND4_X1
* cell instance $775 r0 *1 22.8,9.8
X$775 27 11 15 36 INV_X1
* cell instance $778 m0 *1 24.13,9.8
X$778 12 22 11 15 28 NOR2_X1
* cell instance $786 r0 *1 24.51,9.8
X$786 27 13 11 15 32 NOR2_X1
* cell instance $787 r0 *1 25.84,9.8
X$787 33 28 11 15 34 NAND2_X1
.ENDS fixed_point_sqrt

* cell AND4_X1
* pin A1
* pin A2
* pin A3
* pin A4
* pin NWELL,VDD
* pin PWELL,VSS
* pin ZN
.SUBCKT AND4_X1 1 2 3 4 6 7 8
* net 1 A1
* net 2 A2
* net 3 A3
* net 4 A4
* net 6 NWELL,VDD
* net 7 PWELL,VSS
* net 8 ZN
* device instance $1 r0 *1 0.17,1.1525 PMOS_VTL
M$1 5 1 6 6 PMOS_VTL L=0.05U W=0.315U AS=0.033075P AD=0.02205P PS=0.84U
+ PD=0.455U
* device instance $2 r0 *1 0.36,1.1525 PMOS_VTL
M$2 6 2 5 6 PMOS_VTL L=0.05U W=0.315U AS=0.02205P AD=0.02205P PS=0.455U
+ PD=0.455U
* device instance $3 r0 *1 0.55,1.1525 PMOS_VTL
M$3 5 3 6 6 PMOS_VTL L=0.05U W=0.315U AS=0.02205P AD=0.02205P PS=0.455U
+ PD=0.455U
* device instance $4 r0 *1 0.74,1.1525 PMOS_VTL
M$4 5 4 6 6 PMOS_VTL L=0.05U W=0.315U AS=0.033075P AD=0.02205P PS=0.77U
+ PD=0.455U
* device instance $5 r0 *1 0.93,0.995 PMOS_VTL
M$5 8 5 6 6 PMOS_VTL L=0.05U W=0.63U AS=0.033075P AD=0.06615P PS=0.77U PD=1.47U
* device instance $6 r0 *1 0.17,0.195 NMOS_VTL
M$6 10 1 5 7 NMOS_VTL L=0.05U W=0.21U AS=0.02205P AD=0.0147P PS=0.63U PD=0.35U
* device instance $7 r0 *1 0.36,0.195 NMOS_VTL
M$7 11 2 10 7 NMOS_VTL L=0.05U W=0.21U AS=0.0147P AD=0.0147P PS=0.35U PD=0.35U
* device instance $8 r0 *1 0.55,0.195 NMOS_VTL
M$8 9 3 11 7 NMOS_VTL L=0.05U W=0.21U AS=0.0147P AD=0.0147P PS=0.35U PD=0.35U
* device instance $9 r0 *1 0.74,0.195 NMOS_VTL
M$9 7 4 9 7 NMOS_VTL L=0.05U W=0.21U AS=0.0147P AD=0.021875P PS=0.35U PD=0.555U
* device instance $10 r0 *1 0.93,0.2975 NMOS_VTL
M$10 8 5 7 7 NMOS_VTL L=0.05U W=0.415U AS=0.021875P AD=0.043575P PS=0.555U
+ PD=1.04U
.ENDS AND4_X1

* cell NOR3_X4
* pin PWELL,VSS
* pin A1
* pin A2
* pin A3
* pin ZN
* pin NWELL,VDD
.SUBCKT NOR3_X4 1 2 3 4 5 8
* net 1 PWELL,VSS
* net 2 A1
* net 3 A2
* net 4 A3
* net 5 ZN
* net 8 NWELL,VDD
* device instance $1 r0 *1 0.17,0.995 PMOS_VTL
M$1 5 2 7 8 PMOS_VTL L=0.05U W=2.52U AS=0.19845P AD=0.1764P PS=3.78U PD=3.08U
* device instance $5 r0 *1 0.93,0.995 PMOS_VTL
M$5 6 3 7 8 PMOS_VTL L=0.05U W=2.52U AS=0.1764P AD=0.19845P PS=3.08U PD=3.78U
* device instance $9 r0 *1 1.875,0.995 PMOS_VTL
M$9 6 4 8 8 PMOS_VTL L=0.05U W=2.52U AS=0.19845P AD=0.19845P PS=3.78U PD=3.78U
* device instance $13 r0 *1 0.17,0.2975 NMOS_VTL
M$13 5 2 1 1 NMOS_VTL L=0.05U W=1.66U AS=0.130725P AD=0.1162P PS=2.705U PD=2.22U
* device instance $17 r0 *1 0.93,0.2975 NMOS_VTL
M$17 5 3 1 1 NMOS_VTL L=0.05U W=1.66U AS=0.1162P AD=0.130725P PS=2.22U PD=2.705U
* device instance $21 r0 *1 1.875,0.2975 NMOS_VTL
M$21 5 4 1 1 NMOS_VTL L=0.05U W=1.66U AS=0.130725P AD=0.130725P PS=2.705U
+ PD=2.705U
.ENDS NOR3_X4

* cell XOR2_X1
* pin A
* pin B
* pin PWELL,VSS
* pin NWELL,VDD
* pin Z
.SUBCKT XOR2_X1 1 3 4 5 6
* net 1 A
* net 3 B
* net 4 PWELL,VSS
* net 5 NWELL,VDD
* net 6 Z
* device instance $1 r0 *1 0.17,1.1525 PMOS_VTL
M$1 8 1 2 5 PMOS_VTL L=0.05U W=0.315U AS=0.033075P AD=0.02205P PS=0.84U
+ PD=0.455U
* device instance $2 r0 *1 0.36,1.1525 PMOS_VTL
M$2 8 3 5 5 PMOS_VTL L=0.05U W=0.315U AS=0.0338625P AD=0.02205P PS=0.775U
+ PD=0.455U
* device instance $3 r0 *1 0.555,0.995 PMOS_VTL
M$3 7 2 5 5 PMOS_VTL L=0.05U W=0.63U AS=0.0338625P AD=0.0441P PS=0.775U PD=0.77U
* device instance $4 r0 *1 0.745,0.995 PMOS_VTL
M$4 6 1 7 5 PMOS_VTL L=0.05U W=0.63U AS=0.0441P AD=0.0441P PS=0.77U PD=0.77U
* device instance $5 r0 *1 0.935,0.995 PMOS_VTL
M$5 7 3 6 5 PMOS_VTL L=0.05U W=0.63U AS=0.0441P AD=0.06615P PS=0.77U PD=1.47U
* device instance $6 r0 *1 0.17,0.195 NMOS_VTL
M$6 2 1 4 4 NMOS_VTL L=0.05U W=0.21U AS=0.02205P AD=0.0147P PS=0.63U PD=0.35U
* device instance $7 r0 *1 0.36,0.195 NMOS_VTL
M$7 4 3 2 4 NMOS_VTL L=0.05U W=0.21U AS=0.0147P AD=0.0224P PS=0.35U PD=0.56U
* device instance $8 r0 *1 0.555,0.2975 NMOS_VTL
M$8 6 2 4 4 NMOS_VTL L=0.05U W=0.415U AS=0.0224P AD=0.02905P PS=0.56U PD=0.555U
* device instance $9 r0 *1 0.745,0.2975 NMOS_VTL
M$9 9 1 6 4 NMOS_VTL L=0.05U W=0.415U AS=0.02905P AD=0.02905P PS=0.555U
+ PD=0.555U
* device instance $10 r0 *1 0.935,0.2975 NMOS_VTL
M$10 4 3 9 4 NMOS_VTL L=0.05U W=0.415U AS=0.02905P AD=0.043575P PS=0.555U
+ PD=1.04U
.ENDS XOR2_X1

* cell OR2_X2
* pin A1
* pin A2
* pin PWELL,VSS
* pin NWELL,VDD
* pin ZN
.SUBCKT OR2_X2 1 2 3 5 6
* net 1 A1
* net 2 A2
* net 3 PWELL,VSS
* net 5 NWELL,VDD
* net 6 ZN
* device instance $1 r0 *1 0.17,0.995 PMOS_VTL
M$1 7 1 4 5 PMOS_VTL L=0.05U W=0.63U AS=0.06615P AD=0.0441P PS=1.47U PD=0.77U
* device instance $2 r0 *1 0.36,0.995 PMOS_VTL
M$2 5 2 7 5 PMOS_VTL L=0.05U W=0.63U AS=0.0441P AD=0.0441P PS=0.77U PD=0.77U
* device instance $3 r0 *1 0.55,0.995 PMOS_VTL
M$3 6 4 5 5 PMOS_VTL L=0.05U W=1.26U AS=0.0882P AD=0.11025P PS=1.54U PD=2.24U
* device instance $5 r0 *1 0.17,0.2975 NMOS_VTL
M$5 4 1 3 3 NMOS_VTL L=0.05U W=0.415U AS=0.043575P AD=0.02905P PS=1.04U
+ PD=0.555U
* device instance $6 r0 *1 0.36,0.2975 NMOS_VTL
M$6 3 2 4 3 NMOS_VTL L=0.05U W=0.415U AS=0.02905P AD=0.02905P PS=0.555U
+ PD=0.555U
* device instance $7 r0 *1 0.55,0.2975 NMOS_VTL
M$7 6 4 3 3 NMOS_VTL L=0.05U W=0.83U AS=0.0581P AD=0.072625P PS=1.11U PD=1.595U
.ENDS OR2_X2

* cell XNOR2_X1
* pin A
* pin B
* pin NWELL,VDD
* pin PWELL,VSS
* pin ZN
.SUBCKT XNOR2_X1 1 2 4 5 7
* net 1 A
* net 2 B
* net 4 NWELL,VDD
* net 5 PWELL,VSS
* net 7 ZN
* device instance $1 r0 *1 0.18,1.1525 PMOS_VTL
M$1 3 1 4 4 PMOS_VTL L=0.05U W=0.315U AS=0.033075P AD=0.02205P PS=0.84U
+ PD=0.455U
* device instance $2 r0 *1 0.37,1.1525 PMOS_VTL
M$2 3 2 4 4 PMOS_VTL L=0.05U W=0.315U AS=0.0338625P AD=0.02205P PS=0.775U
+ PD=0.455U
* device instance $3 r0 *1 0.565,0.995 PMOS_VTL
M$3 7 3 4 4 PMOS_VTL L=0.05U W=0.63U AS=0.0338625P AD=0.0441P PS=0.775U PD=0.77U
* device instance $4 r0 *1 0.755,0.995 PMOS_VTL
M$4 8 1 7 4 PMOS_VTL L=0.05U W=0.63U AS=0.0441P AD=0.0441P PS=0.77U PD=0.77U
* device instance $5 r0 *1 0.945,0.995 PMOS_VTL
M$5 4 2 8 4 PMOS_VTL L=0.05U W=0.63U AS=0.0441P AD=0.06615P PS=0.77U PD=1.47U
* device instance $6 r0 *1 0.18,0.195 NMOS_VTL
M$6 9 1 3 5 NMOS_VTL L=0.05U W=0.21U AS=0.02205P AD=0.0147P PS=0.63U PD=0.35U
* device instance $7 r0 *1 0.37,0.195 NMOS_VTL
M$7 5 2 9 5 NMOS_VTL L=0.05U W=0.21U AS=0.0147P AD=0.0224P PS=0.35U PD=0.56U
* device instance $8 r0 *1 0.565,0.2975 NMOS_VTL
M$8 6 3 5 5 NMOS_VTL L=0.05U W=0.415U AS=0.0224P AD=0.02905P PS=0.56U PD=0.555U
* device instance $9 r0 *1 0.755,0.2975 NMOS_VTL
M$9 7 1 6 5 NMOS_VTL L=0.05U W=0.415U AS=0.02905P AD=0.02905P PS=0.555U
+ PD=0.555U
* device instance $10 r0 *1 0.945,0.2975 NMOS_VTL
M$10 6 2 7 5 NMOS_VTL L=0.05U W=0.415U AS=0.02905P AD=0.043575P PS=0.555U
+ PD=1.04U
.ENDS XNOR2_X1

* cell BUF_X4
* pin A
* pin NWELL,VDD
* pin Z
* pin PWELL,VSS
.SUBCKT BUF_X4 1 3 4 5
* net 1 A
* net 3 NWELL,VDD
* net 4 Z
* net 5 PWELL,VSS
* device instance $1 r0 *1 0.17,0.995 PMOS_VTL
M$1 2 1 3 3 PMOS_VTL L=0.05U W=1.26U AS=0.11025P AD=0.0882P PS=2.24U PD=1.54U
* device instance $3 r0 *1 0.55,0.995 PMOS_VTL
M$3 4 2 3 3 PMOS_VTL L=0.05U W=2.52U AS=0.1764P AD=0.19845P PS=3.08U PD=3.78U
* device instance $7 r0 *1 0.17,0.2975 NMOS_VTL
M$7 2 1 5 5 NMOS_VTL L=0.05U W=0.83U AS=0.072625P AD=0.0581P PS=1.595U PD=1.11U
* device instance $9 r0 *1 0.55,0.2975 NMOS_VTL
M$9 4 2 5 5 NMOS_VTL L=0.05U W=1.66U AS=0.1162P AD=0.130725P PS=2.22U PD=2.705U
.ENDS BUF_X4

* cell NOR4_X1
* pin A4
* pin A3
* pin A2
* pin A1
* pin PWELL,VSS
* pin NWELL,VDD
* pin ZN
.SUBCKT NOR4_X1 1 2 3 4 5 6 7
* net 1 A4
* net 2 A3
* net 3 A2
* net 4 A1
* net 5 PWELL,VSS
* net 6 NWELL,VDD
* net 7 ZN
* device instance $1 r0 *1 0.17,0.995 PMOS_VTL
M$1 10 1 6 6 PMOS_VTL L=0.05U W=0.63U AS=0.06615P AD=0.0441P PS=1.47U PD=0.77U
* device instance $2 r0 *1 0.36,0.995 PMOS_VTL
M$2 9 2 10 6 PMOS_VTL L=0.05U W=0.63U AS=0.0441P AD=0.0441P PS=0.77U PD=0.77U
* device instance $3 r0 *1 0.55,0.995 PMOS_VTL
M$3 8 3 9 6 PMOS_VTL L=0.05U W=0.63U AS=0.0441P AD=0.0441P PS=0.77U PD=0.77U
* device instance $4 r0 *1 0.74,0.995 PMOS_VTL
M$4 7 4 8 6 PMOS_VTL L=0.05U W=0.63U AS=0.0441P AD=0.06615P PS=0.77U PD=1.47U
* device instance $5 r0 *1 0.17,0.2975 NMOS_VTL
M$5 7 1 5 5 NMOS_VTL L=0.05U W=0.415U AS=0.043575P AD=0.02905P PS=1.04U
+ PD=0.555U
* device instance $6 r0 *1 0.36,0.2975 NMOS_VTL
M$6 5 2 7 5 NMOS_VTL L=0.05U W=0.415U AS=0.02905P AD=0.02905P PS=0.555U
+ PD=0.555U
* device instance $7 r0 *1 0.55,0.2975 NMOS_VTL
M$7 7 3 5 5 NMOS_VTL L=0.05U W=0.415U AS=0.02905P AD=0.02905P PS=0.555U
+ PD=0.555U
* device instance $8 r0 *1 0.74,0.2975 NMOS_VTL
M$8 5 4 7 5 NMOS_VTL L=0.05U W=0.415U AS=0.02905P AD=0.043575P PS=0.555U
+ PD=1.04U
.ENDS NOR4_X1

* cell NAND3_X2
* pin A3
* pin A2
* pin A1
* pin PWELL,VSS
* pin NWELL,VDD
* pin ZN
.SUBCKT NAND3_X2 1 2 3 4 5 6
* net 1 A3
* net 2 A2
* net 3 A1
* net 4 PWELL,VSS
* net 5 NWELL,VDD
* net 6 ZN
* device instance $1 r0 *1 0.21,0.995 PMOS_VTL
M$1 6 1 5 5 PMOS_VTL L=0.05U W=1.26U AS=0.11025P AD=0.11025P PS=2.24U PD=2.24U
* device instance $2 r0 *1 0.4,0.995 PMOS_VTL
M$2 5 2 6 5 PMOS_VTL L=0.05U W=1.26U AS=0.0882P AD=0.0882P PS=1.54U PD=1.54U
* device instance $3 r0 *1 0.59,0.995 PMOS_VTL
M$3 6 3 5 5 PMOS_VTL L=0.05U W=1.26U AS=0.0882P AD=0.0882P PS=1.54U PD=1.54U
* device instance $7 r0 *1 0.21,0.2975 NMOS_VTL
M$7 10 1 4 4 NMOS_VTL L=0.05U W=0.415U AS=0.043575P AD=0.02905P PS=1.04U
+ PD=0.555U
* device instance $8 r0 *1 0.4,0.2975 NMOS_VTL
M$8 9 2 10 4 NMOS_VTL L=0.05U W=0.415U AS=0.02905P AD=0.02905P PS=0.555U
+ PD=0.555U
* device instance $9 r0 *1 0.59,0.2975 NMOS_VTL
M$9 6 3 9 4 NMOS_VTL L=0.05U W=0.415U AS=0.02905P AD=0.02905P PS=0.555U
+ PD=0.555U
* device instance $10 r0 *1 0.78,0.2975 NMOS_VTL
M$10 8 3 6 4 NMOS_VTL L=0.05U W=0.415U AS=0.02905P AD=0.02905P PS=0.555U
+ PD=0.555U
* device instance $11 r0 *1 0.97,0.2975 NMOS_VTL
M$11 7 2 8 4 NMOS_VTL L=0.05U W=0.415U AS=0.02905P AD=0.02905P PS=0.555U
+ PD=0.555U
* device instance $12 r0 *1 1.16,0.2975 NMOS_VTL
M$12 4 1 7 4 NMOS_VTL L=0.05U W=0.415U AS=0.02905P AD=0.043575P PS=0.555U
+ PD=1.04U
.ENDS NAND3_X2

* cell OR2_X1
* pin A1
* pin A2
* pin PWELL,VSS
* pin NWELL,VDD
* pin ZN
.SUBCKT OR2_X1 1 2 3 5 6
* net 1 A1
* net 2 A2
* net 3 PWELL,VSS
* net 5 NWELL,VDD
* net 6 ZN
* device instance $1 r0 *1 0.17,1.1525 PMOS_VTL
M$1 7 1 4 5 PMOS_VTL L=0.05U W=0.315U AS=0.033075P AD=0.02205P PS=0.84U
+ PD=0.455U
* device instance $2 r0 *1 0.36,1.1525 PMOS_VTL
M$2 7 2 5 5 PMOS_VTL L=0.05U W=0.315U AS=0.033075P AD=0.02205P PS=0.77U
+ PD=0.455U
* device instance $3 r0 *1 0.55,0.995 PMOS_VTL
M$3 6 4 5 5 PMOS_VTL L=0.05U W=0.63U AS=0.033075P AD=0.06615P PS=0.77U PD=1.47U
* device instance $4 r0 *1 0.17,0.195 NMOS_VTL
M$4 4 1 3 3 NMOS_VTL L=0.05U W=0.21U AS=0.02205P AD=0.0147P PS=0.63U PD=0.35U
* device instance $5 r0 *1 0.36,0.195 NMOS_VTL
M$5 3 2 4 3 NMOS_VTL L=0.05U W=0.21U AS=0.0147P AD=0.021875P PS=0.35U PD=0.555U
* device instance $6 r0 *1 0.55,0.2975 NMOS_VTL
M$6 6 4 3 3 NMOS_VTL L=0.05U W=0.415U AS=0.021875P AD=0.043575P PS=0.555U
+ PD=1.04U
.ENDS OR2_X1

* cell NAND4_X2
* pin A3
* pin A2
* pin A1
* pin A4
* pin PWELL,VSS
* pin ZN
* pin NWELL,VDD
.SUBCKT NAND4_X2 1 2 3 4 5 6 7
* net 1 A3
* net 2 A2
* net 3 A1
* net 4 A4
* net 5 PWELL,VSS
* net 6 ZN
* net 7 NWELL,VDD
* device instance $1 r0 *1 0.21,0.995 PMOS_VTL
M$1 6 4 7 7 PMOS_VTL L=0.05U W=1.26U AS=0.11025P AD=0.11025P PS=2.24U PD=2.24U
* device instance $2 r0 *1 0.4,0.995 PMOS_VTL
M$2 7 1 6 7 PMOS_VTL L=0.05U W=1.26U AS=0.0882P AD=0.0882P PS=1.54U PD=1.54U
* device instance $3 r0 *1 0.59,0.995 PMOS_VTL
M$3 6 2 7 7 PMOS_VTL L=0.05U W=1.26U AS=0.0882P AD=0.0882P PS=1.54U PD=1.54U
* device instance $4 r0 *1 0.78,0.995 PMOS_VTL
M$4 7 3 6 7 PMOS_VTL L=0.05U W=1.26U AS=0.0882P AD=0.0882P PS=1.54U PD=1.54U
* device instance $9 r0 *1 0.21,0.2975 NMOS_VTL
M$9 13 4 5 5 NMOS_VTL L=0.05U W=0.415U AS=0.043575P AD=0.02905P PS=1.04U
+ PD=0.555U
* device instance $10 r0 *1 0.4,0.2975 NMOS_VTL
M$10 12 1 13 5 NMOS_VTL L=0.05U W=0.415U AS=0.02905P AD=0.02905P PS=0.555U
+ PD=0.555U
* device instance $11 r0 *1 0.59,0.2975 NMOS_VTL
M$11 11 2 12 5 NMOS_VTL L=0.05U W=0.415U AS=0.02905P AD=0.02905P PS=0.555U
+ PD=0.555U
* device instance $12 r0 *1 0.78,0.2975 NMOS_VTL
M$12 6 3 11 5 NMOS_VTL L=0.05U W=0.415U AS=0.02905P AD=0.02905P PS=0.555U
+ PD=0.555U
* device instance $13 r0 *1 0.97,0.2975 NMOS_VTL
M$13 8 3 6 5 NMOS_VTL L=0.05U W=0.415U AS=0.02905P AD=0.02905P PS=0.555U
+ PD=0.555U
* device instance $14 r0 *1 1.16,0.2975 NMOS_VTL
M$14 10 2 8 5 NMOS_VTL L=0.05U W=0.415U AS=0.02905P AD=0.02905P PS=0.555U
+ PD=0.555U
* device instance $15 r0 *1 1.35,0.2975 NMOS_VTL
M$15 9 1 10 5 NMOS_VTL L=0.05U W=0.415U AS=0.02905P AD=0.02905P PS=0.555U
+ PD=0.555U
* device instance $16 r0 *1 1.54,0.2975 NMOS_VTL
M$16 5 4 9 5 NMOS_VTL L=0.05U W=0.415U AS=0.02905P AD=0.043575P PS=0.555U
+ PD=1.04U
.ENDS NAND4_X2

* cell AND3_X1
* pin A1
* pin A2
* pin A3
* pin NWELL,VDD
* pin PWELL,VSS
* pin ZN
.SUBCKT AND3_X1 1 2 3 5 6 7
* net 1 A1
* net 2 A2
* net 3 A3
* net 5 NWELL,VDD
* net 6 PWELL,VSS
* net 7 ZN
* device instance $1 r0 *1 0.17,1.1525 PMOS_VTL
M$1 5 1 4 5 PMOS_VTL L=0.05U W=0.315U AS=0.033075P AD=0.02205P PS=0.84U
+ PD=0.455U
* device instance $2 r0 *1 0.36,1.1525 PMOS_VTL
M$2 4 2 5 5 PMOS_VTL L=0.05U W=0.315U AS=0.02205P AD=0.02205P PS=0.455U
+ PD=0.455U
* device instance $3 r0 *1 0.55,1.1525 PMOS_VTL
M$3 4 3 5 5 PMOS_VTL L=0.05U W=0.315U AS=0.033075P AD=0.02205P PS=0.77U
+ PD=0.455U
* device instance $4 r0 *1 0.74,0.995 PMOS_VTL
M$4 7 4 5 5 PMOS_VTL L=0.05U W=0.63U AS=0.033075P AD=0.06615P PS=0.77U PD=1.47U
* device instance $5 r0 *1 0.17,0.195 NMOS_VTL
M$5 8 1 4 6 NMOS_VTL L=0.05U W=0.21U AS=0.02205P AD=0.0147P PS=0.63U PD=0.35U
* device instance $6 r0 *1 0.36,0.195 NMOS_VTL
M$6 9 2 8 6 NMOS_VTL L=0.05U W=0.21U AS=0.0147P AD=0.0147P PS=0.35U PD=0.35U
* device instance $7 r0 *1 0.55,0.195 NMOS_VTL
M$7 6 3 9 6 NMOS_VTL L=0.05U W=0.21U AS=0.0147P AD=0.021875P PS=0.35U PD=0.555U
* device instance $8 r0 *1 0.74,0.2975 NMOS_VTL
M$8 7 4 6 6 NMOS_VTL L=0.05U W=0.415U AS=0.021875P AD=0.043575P PS=0.555U
+ PD=1.04U
.ENDS AND3_X1

* cell AND3_X2
* pin A1
* pin A2
* pin A3
* pin NWELL,VDD
* pin PWELL,VSS
* pin ZN
.SUBCKT AND3_X2 1 2 3 5 6 7
* net 1 A1
* net 2 A2
* net 3 A3
* net 5 NWELL,VDD
* net 6 PWELL,VSS
* net 7 ZN
* device instance $1 r0 *1 0.17,0.995 PMOS_VTL
M$1 5 1 4 5 PMOS_VTL L=0.05U W=0.63U AS=0.06615P AD=0.0441P PS=1.47U PD=0.77U
* device instance $2 r0 *1 0.36,0.995 PMOS_VTL
M$2 4 2 5 5 PMOS_VTL L=0.05U W=0.63U AS=0.0441P AD=0.0441P PS=0.77U PD=0.77U
* device instance $3 r0 *1 0.55,0.995 PMOS_VTL
M$3 5 3 4 5 PMOS_VTL L=0.05U W=0.63U AS=0.0441P AD=0.0441P PS=0.77U PD=0.77U
* device instance $4 r0 *1 0.74,0.995 PMOS_VTL
M$4 7 4 5 5 PMOS_VTL L=0.05U W=1.26U AS=0.0882P AD=0.11025P PS=1.54U PD=2.24U
* device instance $6 r0 *1 0.17,0.2975 NMOS_VTL
M$6 9 1 4 6 NMOS_VTL L=0.05U W=0.415U AS=0.043575P AD=0.02905P PS=1.04U
+ PD=0.555U
* device instance $7 r0 *1 0.36,0.2975 NMOS_VTL
M$7 8 2 9 6 NMOS_VTL L=0.05U W=0.415U AS=0.02905P AD=0.02905P PS=0.555U
+ PD=0.555U
* device instance $8 r0 *1 0.55,0.2975 NMOS_VTL
M$8 6 3 8 6 NMOS_VTL L=0.05U W=0.415U AS=0.02905P AD=0.02905P PS=0.555U
+ PD=0.555U
* device instance $9 r0 *1 0.74,0.2975 NMOS_VTL
M$9 7 4 6 6 NMOS_VTL L=0.05U W=0.83U AS=0.0581P AD=0.072625P PS=1.11U PD=1.595U
.ENDS AND3_X2

* cell NOR4_X4
* pin PWELL,VSS
* pin A1
* pin A2
* pin A3
* pin A4
* pin ZN
* pin NWELL,VDD
.SUBCKT NOR4_X4 1 2 3 4 5 6 10
* net 1 PWELL,VSS
* net 2 A1
* net 3 A2
* net 4 A3
* net 5 A4
* net 6 ZN
* net 10 NWELL,VDD
* device instance $1 r0 *1 1.92,0.995 PMOS_VTL
M$1 8 4 9 10 PMOS_VTL L=0.05U W=2.52U AS=0.19845P AD=0.1764P PS=3.78U PD=3.08U
* device instance $5 r0 *1 2.68,0.995 PMOS_VTL
M$5 10 5 9 10 PMOS_VTL L=0.05U W=2.52U AS=0.1764P AD=0.19845P PS=3.08U PD=3.78U
* device instance $9 r0 *1 0.17,0.995 PMOS_VTL
M$9 6 2 7 10 PMOS_VTL L=0.05U W=2.52U AS=0.19845P AD=0.1764P PS=3.78U PD=3.08U
* device instance $13 r0 *1 0.93,0.995 PMOS_VTL
M$13 8 3 7 10 PMOS_VTL L=0.05U W=2.52U AS=0.1764P AD=0.19845P PS=3.08U PD=3.78U
* device instance $17 r0 *1 1.92,0.2975 NMOS_VTL
M$17 1 4 6 1 NMOS_VTL L=0.05U W=1.66U AS=0.130725P AD=0.1162P PS=2.705U PD=2.22U
* device instance $21 r0 *1 2.68,0.2975 NMOS_VTL
M$21 1 5 6 1 NMOS_VTL L=0.05U W=1.66U AS=0.1162P AD=0.130725P PS=2.22U PD=2.705U
* device instance $25 r0 *1 0.17,0.2975 NMOS_VTL
M$25 6 2 1 1 NMOS_VTL L=0.05U W=1.66U AS=0.130725P AD=0.1162P PS=2.705U PD=2.22U
* device instance $29 r0 *1 0.93,0.2975 NMOS_VTL
M$29 6 3 1 1 NMOS_VTL L=0.05U W=1.66U AS=0.1162P AD=0.130725P PS=2.22U PD=2.705U
.ENDS NOR4_X4

* cell NOR3_X2
* pin A3
* pin A2
* pin A1
* pin NWELL,VDD
* pin ZN
* pin PWELL,VSS
.SUBCKT NOR3_X2 1 2 3 4 5 6
* net 1 A3
* net 2 A2
* net 3 A1
* net 4 NWELL,VDD
* net 5 ZN
* net 6 PWELL,VSS
* device instance $1 r0 *1 0.21,0.995 PMOS_VTL
M$1 10 1 4 4 PMOS_VTL L=0.05U W=0.63U AS=0.06615P AD=0.0441P PS=1.47U PD=0.77U
* device instance $2 r0 *1 0.4,0.995 PMOS_VTL
M$2 9 2 10 4 PMOS_VTL L=0.05U W=0.63U AS=0.0441P AD=0.0441P PS=0.77U PD=0.77U
* device instance $3 r0 *1 0.59,0.995 PMOS_VTL
M$3 5 3 9 4 PMOS_VTL L=0.05U W=0.63U AS=0.0441P AD=0.0441P PS=0.77U PD=0.77U
* device instance $4 r0 *1 0.78,0.995 PMOS_VTL
M$4 8 3 5 4 PMOS_VTL L=0.05U W=0.63U AS=0.0441P AD=0.0441P PS=0.77U PD=0.77U
* device instance $5 r0 *1 0.97,0.995 PMOS_VTL
M$5 7 2 8 4 PMOS_VTL L=0.05U W=0.63U AS=0.0441P AD=0.0441P PS=0.77U PD=0.77U
* device instance $6 r0 *1 1.16,0.995 PMOS_VTL
M$6 4 1 7 4 PMOS_VTL L=0.05U W=0.63U AS=0.0441P AD=0.06615P PS=0.77U PD=1.47U
* device instance $7 r0 *1 0.21,0.2975 NMOS_VTL
M$7 5 1 6 6 NMOS_VTL L=0.05U W=0.83U AS=0.072625P AD=0.072625P PS=1.595U
+ PD=1.595U
* device instance $8 r0 *1 0.4,0.2975 NMOS_VTL
M$8 6 2 5 6 NMOS_VTL L=0.05U W=0.83U AS=0.0581P AD=0.0581P PS=1.11U PD=1.11U
* device instance $9 r0 *1 0.59,0.2975 NMOS_VTL
M$9 5 3 6 6 NMOS_VTL L=0.05U W=0.83U AS=0.0581P AD=0.0581P PS=1.11U PD=1.11U