
* cell fifo
* pin din[4]
* pin rst_n
* pin full
* pin wr_en
* pin empty
* pin rd_en
* pin din[2]
* pin dout[2]
* pin clk
* pin din[7]
* pin dout[7]
* pin din[0]
* pin dout[0]
* pin dout[1]
* pin dout[3]
* pin dout[6]
* pin dout[4]
* pin dout[5]
* pin din[3]
* pin din[6]
* pin din[5]
* pin din[1]
.SUBCKT fifo 1 2 139 140 150 151 237 242 273 276 281 302 308 329 358 393 410
+ 411 437 438 446 458
* net 1 din[4]
* net 2 rst_n
* net 139 full
* net 140 wr_en
* net 150 empty
* net 151 rd_en
* net 237 din[2]
* net 242 dout[2]
* net 273 clk
* net 276 din[7]
* net 281 dout[7]
* net 302 din[0]
* net 308 dout[0]
* net 329 dout[1]
* net 358 dout[3]
* net 393 dout[6]
* net 410 dout[4]
* net 411 dout[5]
* net 437 din[3]
* net 438 din[6]
* net 446 din[5]
* net 458 din[1]
* cell instance $3 r0 *1 26.22,2.72
X$3 9 1 9 4 6 4 sky130_fd_sc_hd__buf_4
* cell instance $6 r0 *1 84.64,2.72
X$6 9 2 9 3 4 4 sky130_fd_sc_hd__dlygate4sd3_1
* cell instance $9 r0 *1 81.42,2.72
X$9 9 3 9 4 5 4 sky130_fd_sc_hd__buf_4
* cell instance $54 r0 *1 59.34,2.72
X$54 4 7 10 11 6 9 9 4 sky130_fd_sc_hd__edfxtp_1
* cell instance $79 m0 *1 17.94,8.16
X$79 4 12 28 18 8 9 9 4 sky130_fd_sc_hd__edfxtp_1
* cell instance $83 m0 *1 32.2,8.16
X$83 4 12 30 29 20 9 9 4 sky130_fd_sc_hd__edfxtp_1
* cell instance $86 m0 *1 43.24,8.16
X$86 4 7 19 29 8 9 9 4 sky130_fd_sc_hd__edfxtp_1
* cell instance $90 m0 *1 57.04,8.16
X$90 4 35 34 11 6 9 9 4 sky130_fd_sc_hd__edfxtp_1
* cell instance $96 m0 *1 74.52,8.16
X$96 4 22 52 14 13 9 9 4 sky130_fd_sc_hd__ha_1
* cell instance $97 m0 *1 79.12,8.16
X$97 9 22 33 32 9 4 4 sky130_fd_sc_hd__nand2_1
* cell instance $98 m0 *1 80.5,8.16
X$98 9 23 9 4 14 4 sky130_fd_sc_hd__inv_1
* cell instance $99 m0 *1 81.88,8.16
X$99 9 15 9 4 13 4 sky130_fd_sc_hd__inv_1
* cell instance $102 m0 *1 84.64,8.16
X$102 4 5 16 9 9 4 sky130_fd_sc_hd__buf_6
* cell instance $105 m0 *1 91.54,8.16
X$105 4 16 38 17 27 9 9 4 sky130_fd_sc_hd__dfrtp_1
* cell instance $119 r0 *1 20.7,8.16
X$119 4 35 48 29 8 9 9 4 sky130_fd_sc_hd__edfxtp_1
* cell instance $120 r0 *1 31.74,8.16
X$120 4 35 36 29 20 9 9 4 sky130_fd_sc_hd__edfxtp_1
* cell instance $123 r0 *1 43.24,8.16
X$123 4 30 21 39 36 40 9 9 4 sky130_fd_sc_hd__a22oi_2
* cell instance $126 r0 *1 52.44,8.16
X$126 4 12 41 11 6 9 9 4 sky130_fd_sc_hd__edfxtp_1
* cell instance $127 r0 *1 63.48,8.16
X$127 4 41 21 42 34 40 9 9 4 sky130_fd_sc_hd__a22oi_2
* cell instance $133 r0 *1 71.76,8.16
X$133 4 468 69 23 13 9 9 4 sky130_fd_sc_hd__ha_1
* cell instance $134 r0 *1 76.36,8.16
X$134 9 33 14 24 9 4 4 sky130_fd_sc_hd__xnor2_1
* cell instance $135 r0 *1 79.58,8.16
X$135 9 13 33 32 9 31 4 4 sky130_fd_sc_hd__o21ai_0
* cell instance $136 r0 *1 81.42,8.16
X$136 4 16 23 17 24 9 9 4 sky130_fd_sc_hd__dfrtp_2
* cell instance $137 r0 *1 91.08,8.16
X$137 9 50 26 27 9 4 4 sky130_fd_sc_hd__xnor2_1
* cell instance $139 r0 *1 95.22,8.16
X$139 9 25 33 47 9 4 4 sky130_fd_sc_hd__nand2_1
* cell instance $144 r0 *1 98.44,8.16
X$144 9 38 4 26 9 4 sky130_fd_sc_hd__clkbuf_4
* cell instance $145 r0 *1 101.2,8.16
X$145 9 37 4 46 9 4 sky130_fd_sc_hd__clkbuf_4
* cell instance $159 m0 *1 10.12,13.6
X$159 4 43 58 18 20 9 9 4 sky130_fd_sc_hd__edfxtp_1
* cell instance $165 m0 *1 30.36,13.6
X$165 9 28 21 48 40 9 49 4 4 sky130_fd_sc_hd__a22oi_1
* cell instance $170 m0 *1 44.62,13.6
X$170 4 44 60 29 8 9 9 4 sky130_fd_sc_hd__edfxtp_1
* cell instance $178 m0 *1 72.22,13.6
X$178 4 466 55 14 15 9 9 4 sky130_fd_sc_hd__ha_1
* cell instance $179 m0 *1 76.82,13.6
X$179 4 52 5 9 53 9 4 sky130_fd_sc_hd__nand2_8
* cell instance $181 m0 *1 84.64,13.6
X$181 4 25 5 9 51 9 4 sky130_fd_sc_hd__nand2_8
* cell instance $182 m0 *1 92,13.6
X$182 9 46 23 15 33 9 50 4 4 sky130_fd_sc_hd__nand4_1
* cell instance $183 m0 *1 94.3,13.6
X$183 4 16 37 17 45 9 9 4 sky130_fd_sc_hd__dfrtp_1
* cell instance $187 r0 *1 4.14,13.6
X$187 4 56 57 18 20 9 9 4 sky130_fd_sc_hd__edfxtp_1
* cell instance $193 r0 *1 24.84,13.6
X$193 4 35 67 29 54 9 9 4 sky130_fd_sc_hd__edfxtp_1
* cell instance $200 r0 *1 43.24,13.6
X$200 4 44 71 11 54 9 9 4 sky130_fd_sc_hd__edfxtp_1
* cell instance $202 r0 *1 54.74,13.6
X$202 4 44 73 11 6 9 9 4 sky130_fd_sc_hd__edfxtp_1
* cell instance $203 r0 *1 65.78,13.6
X$203 4 73 63 167 10 40 9 9 4 sky130_fd_sc_hd__a22oi_2
* cell instance $206 r0 *1 70.84,13.6
X$206 4 55 72 5 9 9 4 sky130_fd_sc_hd__nand2_4
* cell instance $207 r0 *1 74.98,13.6
X$207 4 69 70 5 9 9 4 sky130_fd_sc_hd__nand2_4
* cell instance $208 r0 *1 79.12,13.6
X$208 4 16 15 17 31 9 9 4 sky130_fd_sc_hd__dfrtp_1
* cell instance $209 r0 *1 88.32,13.6
X$209 4 464 25 15 23 9 9 4 sky130_fd_sc_hd__ha_2
* cell instance $210 r0 *1 93.84,13.6
X$210 9 47 46 45 9 4 4 sky130_fd_sc_hd__xnor2_1
* cell instance $214 r0 *1 98.44,13.6
X$214 9 25 46 26 33 9 91 4 4 sky130_fd_sc_hd__nand4_1
* cell instance $227 m0 *1 9.2,19.04
X$227 4 43 86 18 74 9 9 4 sky130_fd_sc_hd__edfxtp_1
* cell instance $229 m0 *1 20.7,19.04
X$229 9 57 75 58 59 9 83 4 4 sky130_fd_sc_hd__a22oi_1
* cell instance $231 m0 *1 23.92,19.04
X$231 4 61 62 9 9 4 sky130_fd_sc_hd__buf_6
* cell instance $235 m0 *1 33.12,19.04
X$235 9 93 63 67 59 9 66 4 4 sky130_fd_sc_hd__a22oi_1
* cell instance $236 m0 *1 35.88,19.04
X$236 4 85 94 29 54 9 9 4 sky130_fd_sc_hd__edfxtp_1
* cell instance $240 m0 *1 51.98,19.04
X$240 4 95 21 19 62 60 40 9 9 4 sky130_fd_sc_hd__a221oi_1
* cell instance $246 m0 *1 61.64,19.04
X$246 4 75 63 9 9 4 sky130_fd_sc_hd__buf_6
* cell instance $249 m0 *1 68.54,19.04
X$249 9 84 4 98 9 4 sky130_fd_sc_hd__clkbuf_4
* cell instance $250 m0 *1 71.3,19.04
X$250 4 463 75 64 76 9 9 4 sky130_fd_sc_hd__ha_2
* cell instance $251 m0 *1 76.82,19.04
X$251 9 64 9 4 78 4 sky130_fd_sc_hd__inv_1
* cell instance $252 m0 *1 78.2,19.04
X$252 9 77 78 76 135 4 65 9 4 sky130_fd_sc_hd__nor4_1
* cell instance $253 m0 *1 80.5,19.04
X$253 9 65 82 9 81 4 4 sky130_fd_sc_hd__xor2_1
* cell instance $258 m0 *1 86.94,19.04
X$258 9 15 64 68 9 4 4 sky130_fd_sc_hd__xnor2_1
* cell instance $260 m0 *1 91.08,19.04
X$260 9 23 79 116 9 4 4 sky130_fd_sc_hd__xnor2_1
* cell instance $262 m0 *1 95.22,19.04
X$262 4 16 90 17 80 9 9 4 sky130_fd_sc_hd__dfrtp_1
* cell instance $265 r0 *1 4.14,19.04
X$265 4 56 92 18 74 9 9 4 sky130_fd_sc_hd__edfxtp_1
* cell instance $269 r0 *1 19.32,19.04
X$269 9 92 75 86 59 9 105 4 4 sky130_fd_sc_hd__a22oi_1
* cell instance $270 r0 *1 22.08,19.04
X$270 4 12 93 29 54 9 9 4 sky130_fd_sc_hd__edfxtp_1
* cell instance $273 r0 *1 34.5,19.04
X$273 9 87 62 66 4 9 219 4 sky130_fd_sc_hd__a21oi_1
* cell instance $277 r0 *1 39.56,19.04
X$277 9 75 4 21 9 4 sky130_fd_sc_hd__clkbuf_4
* cell instance $283 r0 *1 45.54,19.04
X$283 4 87 88 71 61 94 75 9 9 4 sky130_fd_sc_hd__a221oi_1
* cell instance $284 r0 *1 48.76,19.04
X$284 9 49 82 135 95 4 96 9 4 sky130_fd_sc_hd__a211oi_1
* cell instance $285 r0 *1 51.52,19.04
X$285 9 59 4 40 9 4 sky130_fd_sc_hd__clkbuf_4
* cell instance $289 r0 *1 59.34,19.04
X$289 4 44 101 11 97 9 9 4 sky130_fd_sc_hd__edfxtp_1
* cell instance $292 r0 *1 70.84,19.04
X$292 9 84 75 88 106 4 9 4 sky130_fd_sc_hd__nor3_1
* cell instance $295 r0 *1 74.06,19.04
X$295 9 89 4 88 9 4 sky130_fd_sc_hd__buf_2
* cell instance $296 r0 *1 75.9,19.04
X$296 9 79 9 4 76 4 sky130_fd_sc_hd__inv_1
* cell instance $298 r0 *1 78.2,19.04
X$298 4 16 64 17 104 9 9 4 sky130_fd_sc_hd__dfrtp_1
* cell instance $300 r0 *1 88.32,19.04
X$300 4 16 79 17 103 9 9 4 sky130_fd_sc_hd__dfrtp_2
* cell instance $303 r0 *1 98.44,19.04
X$303 9 91 90 80 9 4 4 sky130_fd_sc_hd__xnor2_1
* cell instance $318 m0 *1 11.5,24.48
X$318 4 99 113 18 20 9 9 4 sky130_fd_sc_hd__edfxtp_1
* cell instance $321 m0 *1 23.92,24.48
X$321 9 98 113 114 9 4 4 sky130_fd_sc_hd__nand2_1
* cell instance $322 m0 *1 25.3,24.48
X$322 4 83 117 61 114 9 9 4 sky130_fd_sc_hd__and3_1
* cell instance $327 m0 *1 33.12,24.48
X$327 4 44 108 29 20 9 9 4 sky130_fd_sc_hd__edfxtp_1
* cell instance $334 m0 *1 57.04,24.48
X$334 4 85 100 11 97 9 9 4 sky130_fd_sc_hd__edfxtp_1
* cell instance $335 m0 *1 68.08,24.48
X$335 4 107 121 40 100 88 101 63 9 9 4 sky130_fd_sc_hd__a222oi_1
* cell instance $336 m0 *1 71.76,24.48
X$336 4 465 84 79 64 9 9 4 sky130_fd_sc_hd__ha_1
* cell instance $337 m0 *1 76.36,24.48
X$337 4 118 59 78 76 9 9 4 sky130_fd_sc_hd__ha_2
* cell instance $338 m0 *1 81.88,24.48
X$338 9 46 26 119 4 9 4 sky130_fd_sc_hd__nor2_1
* cell instance $341 m0 *1 84.64,24.48
X$341 4 104 64 118 77 9 9 4 sky130_fd_sc_hd__mux2_1
* cell instance $344 m0 *1 91.54,24.48
X$344 9 102 79 103 9 4 4 sky130_fd_sc_hd__xnor2_1
* cell instance $347 m0 *1 100.28,24.48
X$347 9 140 111 4 9 4 sky130_fd_sc_hd__clkbuf_1
* cell instance $357 r0 *1 15.64,24.48
X$357 4 99 115 18 74 9 9 4 sky130_fd_sc_hd__edfxtp_1
* cell instance $358 r0 *1 26.68,24.48
X$358 9 98 115 122 9 4 4 sky130_fd_sc_hd__nand2_1
* cell instance $360 r0 *1 31.74,24.48
X$360 4 85 109 29 20 9 9 4 sky130_fd_sc_hd__edfxtp_1
* cell instance $363 r0 *1 43.24,24.48
X$363 4 132 120 108 62 109 63 9 9 4 sky130_fd_sc_hd__a221oi_1
* cell instance $365 r0 *1 50.14,24.48
X$365 4 7 121 11 97 9 9 4 sky130_fd_sc_hd__edfxtp_1
* cell instance $366 r0 *1 61.18,24.48
X$366 4 72 124 56 9 9 4 sky130_fd_sc_hd__nor2_8
* cell instance $372 r0 *1 72.22,24.48
X$372 4 467 89 79 78 9 9 4 sky130_fd_sc_hd__ha_1
* cell instance $373 r0 *1 76.82,24.48
X$373 9 61 4 82 9 4 sky130_fd_sc_hd__clkbuf_4
* cell instance $375 r0 *1 80.5,24.48
X$375 4 16 128 17 81 9 9 4 sky130_fd_sc_hd__dfrtp_1
* cell instance $378 r0 *1 91.08,24.48
X$378 4 142 127 116 68 9 110 9 4 sky130_fd_sc_hd__nand4_2
* cell instance $383 r0 *1 98.44,24.48
X$383 9 112 9 4 33 4 sky130_fd_sc_hd__buf_4
* cell instance $384 r0 *1 101.2,24.48
X$384 9 111 110 126 9 112 4 4 sky130_fd_sc_hd__o21a_1
* cell instance $394 m0 *1 1.38,29.92
X$394 4 131 129 18 97 9 9 4 sky130_fd_sc_hd__edfxtp_1
* cell instance $396 m0 *1 13.34,29.92
X$396 4 43 141 18 97 9 9 4 sky130_fd_sc_hd__edfxtp_1
* cell instance $399 m0 *1 26.68,29.92
X$399 4 105 143 61 122 9 9 4 sky130_fd_sc_hd__and3_1
* cell instance $401 m0 *1 29.44,29.92
X$401 4 99 146 123 54 9 9 4 sky130_fd_sc_hd__edfxtp_1
* cell instance $402 m0 *1 40.48,29.92
X$402 4 134 29 9 9 4 sky130_fd_sc_hd__clkbuf_16
* cell instance $403 m0 *1 49.68,29.92
X$403 9 88 4 120 9 4 sky130_fd_sc_hd__clkbuf_4
* cell instance $407 m0 *1 57.04,29.92
X$407 4 70 124 131 9 9 4 sky130_fd_sc_hd__nor2_8
* cell instance $408 m0 *1 64.4,29.92
X$408 4 51 124 99 9 9 4 sky130_fd_sc_hd__nor2_8
* cell instance $409 m0 *1 71.76,29.92
X$409 4 53 124 43 9 9 4 sky130_fd_sc_hd__nor2_8
* cell instance $410 m0 *1 79.12,29.92
X$410 4 125 61 9 9 4 sky130_fd_sc_hd__buf_6
* cell instance $413 m0 *1 84.64,29.92
X$413 4 119 130 33 9 9 4 sky130_fd_sc_hd__nand2_4
* cell instance $414 m0 *1 88.78,29.92
X$414 9 161 135 144 9 4 4 sky130_fd_sc_hd__xnor2_1
* cell instance $415 m0 *1 92,29.92
X$415 9 26 125 127 9 4 4 sky130_fd_sc_hd__xnor2_1
* cell instance $416 m0 *1 95.22,29.92
X$416 9 128 9 4 125 4 sky130_fd_sc_hd__buf_4
* cell instance $418 m0 *1 98.44,29.92
X$418 9 136 90 126 9 4 4 sky130_fd_sc_hd__xnor2_1
* cell instance $419 m0 *1 101.66,29.92
X$419 9 126 110 138 4 9 4 sky130_fd_sc_hd__nor2_1
* cell instance $420 m0 *1 103.04,29.92
X$420 9 138 139 4 9 4 sky130_fd_sc_hd__clkbuf_1
* cell instance $423 r0 *1 4.14,29.92
X$423 4 133 154 18 97 9 9 4 sky130_fd_sc_hd__edfxtp_1
* cell instance $426 r0 *1 15.64,29.92
X$426 4 134 18 9 9 4 sky130_fd_sc_hd__clkbuf_16
* cell instance $427 r0 *1 24.84,29.92
X$427 4 43 145 29 54 9 9 4 sky130_fd_sc_hd__edfxtp_1
* cell instance $428 r0 *1 35.88,29.92
X$428 9 123 4 459 9 4 sky130_fd_sc_hd__clkinv_4
* cell instance $429 r0 *1 39.1,29.92
X$429 9 40 145 98 146 9 158 4 4 sky130_fd_sc_hd__a22oi_1
* cell instance $434 r0 *1 43.7,29.92
X$434 4 147 135 132 82 39 9 9 4 sky130_fd_sc_hd__a211oi_2
* cell instance $436 r0 *1 50.14,29.92
X$436 4 35 163 11 97 9 9 4 sky130_fd_sc_hd__edfxtp_1
* cell instance $437 r0 *1 61.18,29.92
X$437 4 134 11 9 9 4 sky130_fd_sc_hd__clkbuf_16
* cell instance $440 r0 *1 70.84,29.92
X$440 4 53 148 7 9 9 4 sky130_fd_sc_hd__nor2_8
* cell instance $441 r0 *1 78.2,29.92
X$441 4 148 44 72 9 9 4 sky130_fd_sc_hd__nor2_4
* cell instance $442 r0 *1 82.34,29.92
X$442 4 26 46 124 33 9 9 4 sky130_fd_sc_hd__nand3b_4
* cell instance $443 r0 *1 89.7,29.92
X$443 9 160 46 142 9 4 4 sky130_fd_sc_hd__xnor2_1
* cell instance $444 r0 *1 92.92,29.92
X$444 9 159 136 157 9 4 4 sky130_fd_sc_hd__xnor2_1
* cell instance $446 r0 *1 96.14,29.92
X$446 9 149 137 110 9 4 156 4 sky130_fd_sc_hd__o21ai_1
* cell instance $448 r0 *1 98.44,29.92
X$448 9 136 90 9 149 4 4 sky130_fd_sc_hd__xor2_1
* cell instance $449 r0 *1 101.66,29.92
X$449 9 149 110 153 4 9 4 sky130_fd_sc_hd__nor2_1
* cell instance $450 r0 *1 103.04,29.92
X$450 9 151 137 4 9 4 sky130_fd_sc_hd__clkbuf_1
* cell instance $462 m0 *1 10.58,35.36
X$462 9 18 461 4 9 4 sky130_fd_sc_hd__clkbuf_1
* cell instance $463 m0 *1 11.96,35.36
X$463 4 152 171 18 97 9 9 4 sky130_fd_sc_hd__edfxtp_1
* cell instance $464 m0 *1 23,35.36
X$464 4 129 120 155 141 40 9 9 4 sky130_fd_sc_hd__a22oi_2
* cell instance $465 m0 *1 27.6,35.36
X$465 9 29 460 4 9 4 sky130_fd_sc_hd__clkbuf_1
* cell instance $467 m0 *1 29.44,35.36
X$467 4 134 123 9 9 4 sky130_fd_sc_hd__clkbuf_16
* cell instance $468 m0 *1 38.64,35.36
X$468 4 99 174 123 8 9 9 4 sky130_fd_sc_hd__edfxtp_1
* cell instance $471 m0 *1 52.44,35.36
X$471 4 70 133 130 9 9 4 sky130_fd_sc_hd__nor2_4
* cell instance $473 m0 *1 57.04,35.36
X$473 4 12 172 166 97 9 9 4 sky130_fd_sc_hd__edfxtp_1
* cell instance $474 m0 *1 68.08,35.36
X$474 4 53 168 35 9 9 4 sky130_fd_sc_hd__nor2_8
* cell instance $475 m0 *1 75.44,35.36
X$475 4 33 26 148 46 9 9 4 sky130_fd_sc_hd__nand3b_4
* cell instance $476 m0 *1 82.8,35.36
X$476 9 162 77 161 4 9 4 sky130_fd_sc_hd__nor2_1
* cell instance $478 m0 *1 84.64,35.36
X$478 4 16 160 170 144 9 9 4 sky130_fd_sc_hd__dfrtp_1
* cell instance $480 m0 *1 94.76,35.36
X$480 4 16 136 17 157 9 9 4 sky130_fd_sc_hd__dfrtp_1
* cell instance $484 r0 *1 4.14,35.36
X$484 4 131 182 175 54 9 9 4 sky130_fd_sc_hd__edfxtp_1
* cell instance $487 r0 *1 15.64,35.36
X$487 4 134 175 9 9 4 sky130_fd_sc_hd__clkbuf_16
* cell instance $488 r0 *1 24.84,35.36
X$488 9 120 154 98 171 9 183 4 4 sky130_fd_sc_hd__a22oi_1
* cell instance $491 r0 *1 31.74,35.36
X$491 4 131 164 123 8 9 9 4 sky130_fd_sc_hd__edfxtp_1
* cell instance $496 r0 *1 46,35.36
X$496 4 210 120 164 40 179 98 174 9 9 4 sky130_fd_sc_hd__a222oi_1
* cell instance $498 r0 *1 50.6,35.36
X$498 4 165 173 166 97 9 9 4 sky130_fd_sc_hd__edfxtp_1
* cell instance $499 r0 *1 61.64,35.36
X$499 4 148 85 70 9 9 4 sky130_fd_sc_hd__nor2_4
* cell instance $500 r0 *1 65.78,35.36
X$500 4 42 184 181 167 185 9 9 4 sky130_fd_sc_hd__o22ai_2
* cell instance $503 r0 *1 70.84,35.36
X$503 4 168 165 70 9 9 4 sky130_fd_sc_hd__nor2_4
* cell instance $505 r0 *1 75.44,35.36
X$505 9 169 4 135 9 4 sky130_fd_sc_hd__clkinv_4
* cell instance $506 r0 *1 78.66,35.36
X$506 4 33 26 46 9 168 9 4 sky130_fd_sc_hd__nand3_4
* cell instance $507 r0 *1 85.1,35.36
X$507 4 134 17 9 9 4 sky130_fd_sc_hd__clkbuf_16
* cell instance $508 r0 *1 94.3,35.36
X$508 9 160 9 4 169 4 sky130_fd_sc_hd__buf_4
* cell instance $512 r0 *1 98.44,35.36
X$512 9 156 9 4 77 4 sky130_fd_sc_hd__buf_4
* cell instance $513 r0 *1 101.2,35.36
X$513 9 156 4 102 9 4 sky130_fd_sc_hd__clkbuf_4
* cell instance $525 m0 *1 4.14,40.8
X$525 4 56 192 175 54 9 9 4 sky130_fd_sc_hd__edfxtp_1
* cell instance $526 m0 *1 15.18,40.8
X$526 9 182 120 192 63 9 177 4 4 sky130_fd_sc_hd__a22oi_1
* cell instance $527 m0 *1 17.94,40.8
X$527 4 56 176 175 97 9 9 4 sky130_fd_sc_hd__edfxtp_1
* cell instance $531 m0 *1 31.74,40.8
X$531 9 62 176 21 194 9 4 4 sky130_fd_sc_hd__nand3_1
* cell instance $533 m0 *1 35.42,40.8
X$533 9 178 177 158 4 9 220 4 sky130_fd_sc_hd__a21oi_1
* cell instance $535 m0 *1 37.72,40.8
X$535 4 43 179 123 8 9 9 4 sky130_fd_sc_hd__edfxtp_1
* cell instance $539 m0 *1 51.98,40.8
X$539 9 11 9 4 4 sky130_fd_sc_hd__clkinv_2
* cell instance $540 m0 *1 53.82,40.8
X$540 9 166 9 4 4 sky130_fd_sc_hd__clkinvlp_4
* cell instance $542 m0 *1 57.04,40.8
X$542 4 180 163 40 173 88 172 63 9 9 4 sky130_fd_sc_hd__a222oi_1
* cell instance $545 m0 *1 62.1,40.8
X$545 4 134 166 9 9 4 sky130_fd_sc_hd__clkbuf_16
* cell instance $547 m0 *1 73.14,40.8
X$547 4 191 193 166 97 9 9 4 sky130_fd_sc_hd__edfxtp_1
* cell instance $550 m0 *1 85.1,40.8
X$550 4 134 170 9 9 4 sky130_fd_sc_hd__clkbuf_16
* cell instance $551 m0 *1 94.3,40.8
X$551 4 168 195 51 9 9 4 sky130_fd_sc_hd__nor2_4
* cell instance $552 m0 *1 98.44,40.8
X$552 9 170 9 4 4 sky130_fd_sc_hd__clkinvlp_4
* cell instance $553 m0 *1 101.2,40.8
X$553 9 162 156 181 159 9 4 4 sky130_fd_sc_hd__or3_1
* cell instance $559 r0 *1 11.04,40.8
X$559 9 175 9 4 4 sky130_fd_sc_hd__clkinv_2
* cell instance $566 r0 *1 20.24,40.8
X$566 4 186 207 175 97 9 9 4 sky130_fd_sc_hd__edfxtp_1
* cell instance $568 r0 *1 31.74,40.8
X$568 9 194 183 187 9 209 4 4 sky130_fd_sc_hd__o21a_1
* cell instance $578 r0 *1 56.12,40.8
X$578 9 196 198 189 9 208 4 4 sky130_fd_sc_hd__o21ai_0
* cell instance $579 r0 *1 57.96,40.8
X$579 4 130 51 152 9 9 4 sky130_fd_sc_hd__nor2_8
* cell instance $580 r0 *1 65.32,40.8
X$580 4 72 186 130 9 9 4 sky130_fd_sc_hd__nor2_4
* cell instance $584 r0 *1 70.84,40.8
X$584 4 185 125 169 9 9 4 sky130_fd_sc_hd__nand2b_2
* cell instance $585 r0 *1 74.06,40.8
X$585 4 195 204 170 97 9 9 4 sky130_fd_sc_hd__edfxtp_1
* cell instance $586 r0 *1 85.1,40.8
X$586 9 17 9 4 4 sky130_fd_sc_hd__clkinv_2
* cell instance $587 r0 *1 86.94,40.8
X$587 4 191 203 170 8 9 9 4 sky130_fd_sc_hd__edfxtp_1
* cell instance $592 r0 *1 101.2,40.8
X$592 9 153 150 4 9 4 sky130_fd_sc_hd__clkbuf_1
* cell instance $604 m0 *1 6.9,46.24
X$604 4 7 205 175 54 9 9 4 sky130_fd_sc_hd__edfxtp_1
* cell instance $605 m0 *1 17.94,46.24
X$605 4 99 206 175 97 9 9 4 sky130_fd_sc_hd__edfxtp_1
* cell instance $608 m0 *1 29.9,46.24
X$608 9 62 207 21 4 9 217 4 sky130_fd_sc_hd__a21oi_1
* cell instance $610 m0 *1 33.58,46.24
X$610 9 220 230 197 219 9 218 4 4 sky130_fd_sc_hd__a211o_1
* cell instance $611 m0 *1 36.8,46.24
X$611 4 85 221 123 8 9 9 4 sky130_fd_sc_hd__edfxtp_1
* cell instance $612 m0 *1 47.84,46.24
X$612 9 210 178 231 82 233 4 9 4 sky130_fd_sc_hd__o22ai_1
* cell instance $613 m0 *1 50.14,46.24
X$613 9 197 209 199 4 9 4 sky130_fd_sc_hd__nor2_1
* cell instance $619 m0 *1 60.72,46.24
X$619 9 59 4 213 9 4 sky130_fd_sc_hd__clkbuf_4
* cell instance $621 m0 *1 64.4,46.24
X$621 4 201 208 199 188 197 200 9 9 4 sky130_fd_sc_hd__a2111oi_2
* cell instance $623 m0 *1 70.38,46.24
X$623 4 168 12 72 9 9 4 sky130_fd_sc_hd__nor2_4
* cell instance $624 m0 *1 74.52,46.24
X$624 4 130 216 53 9 9 4 sky130_fd_sc_hd__nor2_4
* cell instance $625 m0 *1 78.66,46.24
X$625 4 148 191 51 9 9 4 sky130_fd_sc_hd__nor2_4
* cell instance $631 m0 *1 87.4,46.24
X$631 4 195 202 170 8 9 9 4 sky130_fd_sc_hd__edfxtp_1
* cell instance $632 m0 *1 98.44,46.24
X$632 4 224 203 202 125 9 9 4 sky130_fd_sc_hd__mux2i_1
* cell instance $642 r0 *1 15.64,46.24
X$642 4 133 222 175 54 9 9 4 sky130_fd_sc_hd__edfxtp_1
* cell instance $644 r0 *1 27.14,46.24
X$644 9 190 206 223 9 4 4 sky130_fd_sc_hd__nand2_1
* cell instance $645 r0 *1 28.52,46.24
X$645 4 223 211 155 248 188 217 9 9 4 sky130_fd_sc_hd__a311oi_4
* cell instance $653 r0 *1 46.46,46.24
X$653 4 221 234 169 88 9 9 4 sky130_fd_sc_hd__and3_1
* cell instance $654 r0 *1 48.76,46.24
X$654 4 215 233 96 235 135 236 9 9 4 sky130_fd_sc_hd__a2111oi_2
* cell instance $655 r0 *1 54.28,46.24
X$655 4 165 212 166 8 9 9 4 sky130_fd_sc_hd__edfxtp_1
* cell instance $656 r0 *1 65.32,46.24
X$656 9 211 62 181 9 4 4 sky130_fd_sc_hd__nand2_1
* cell instance $657 r0 *1 66.7,46.24
X$657 4 200 107 180 187 9 9 4 sky130_fd_sc_hd__mux2i_1
* cell instance $660 r0 *1 70.84,46.24
X$660 4 178 169 125 9 9 4 sky130_fd_sc_hd__nand2b_2
* cell instance $661 r0 *1 74.06,46.24
X$661 4 4 106 189 225 9 9 sky130_fd_sc_hd__nand2_2
* cell instance $662 r0 *1 76.36,46.24
X$662 4 61 187 9 9 4 sky130_fd_sc_hd__clkbuf_8
* cell instance $663 r0 *1 81.42,46.24
X$663 4 198 193 204 61 9 9 4 sky130_fd_sc_hd__mux2i_1
* cell instance $664 r0 *1 85.1,46.24
X$664 9 190 9 4 162 4 sky130_fd_sc_hd__inv_1
* cell instance $667 r0 *1 88.78,46.24
X$667 4 16 214 170 229 9 9 4 sky130_fd_sc_hd__dfrtp_1
* cell instance $670 r0 *1 98.44,46.24
X$670 9 102 201 228 227 9 4 229 4 sky130_fd_sc_hd__o31ai_1
* cell instance $671 r0 *1 101.2,46.24
X$671 9 214 102 227 9 4 4 sky130_fd_sc_hd__nand2_1
* cell instance $685 m0 *1 8.28,51.68
X$685 4 133 245 175 8 9 9 4 sky130_fd_sc_hd__edfxtp_1
* cell instance $688 m0 *1 23.92,51.68
X$688 9 61 169 247 4 9 4 sky130_fd_sc_hd__or2_0
* cell instance $689 m0 *1 26.22,51.68
X$689 9 169 120 222 238 4 9 4 sky130_fd_sc_hd__nand3b_1
* cell instance $692 m0 *1 29.9,51.68
X$692 9 211 205 213 249 9 4 4 sky130_fd_sc_hd__nand3_1
* cell instance $693 m0 *1 31.74,51.68
X$693 9 248 249 238 4 9 230 4 sky130_fd_sc_hd__a21oi_1
* cell instance $694 m0 *1 33.58,51.68
X$694 9 169 9 4 211 4 sky130_fd_sc_hd__buf_4
* cell instance $695 m0 *1 36.34,51.68
X$695 4 186 252 123 8 9 9 4 sky130_fd_sc_hd__edfxtp_1
* cell instance $696 m0 *1 47.38,51.68
X$696 9 21 252 135 234 4 9 231 4 sky130_fd_sc_hd__a31oi_1
* cell instance $700 m0 *1 52.9,51.68
X$700 9 88 4 254 9 4 sky130_fd_sc_hd__clkbuf_4
* cell instance $705 m0 *1 62.56,51.68
X$705 9 241 232 212 240 9 235 4 4 sky130_fd_sc_hd__a211o_1
* cell instance $707 m0 *1 66.7,51.68
X$707 9 196 224 241 4 9 4 sky130_fd_sc_hd__nor2_1
* cell instance $708 m0 *1 68.08,51.68
X$708 4 4 98 196 169 9 9 sky130_fd_sc_hd__nand2_2
* cell instance $710 m0 *1 71.3,51.68
X$710 4 125 240 169 88 9 9 4 sky130_fd_sc_hd__and3_1
* cell instance $712 m0 *1 74.06,51.68
X$712 9 225 106 232 9 4 4 sky130_fd_sc_hd__and2_0
* cell instance $713 m0 *1 76.36,51.68
X$713 9 169 125 59 9 225 4 4 sky130_fd_sc_hd__o21ai_0
* cell instance $718 m0 *1 84.64,51.68
X$718 4 216 226 170 97 9 9 4 sky130_fd_sc_hd__edfxtp_1
* cell instance $719 m0 *1 95.68,51.68
X$719 9 226 244 228 4 9 4 sky130_fd_sc_hd__nor2_1
* cell instance $723 m0 *1 102.12,51.68
X$723 9 214 242 4 9 4 sky130_fd_sc_hd__clkbuf_1
* cell instance $727 r0 *1 4.14,51.68
X$727 4 152 246 175 8 9 9 4 sky130_fd_sc_hd__edfxtp_1
* cell instance $734 r0 *1 18.4,51.68
X$734 9 120 245 98 246 9 251 4 4 sky130_fd_sc_hd__a22oi_1
* cell instance $750 r0 *1 49.68,51.68
X$750 9 248 251 253 9 236 4 4 sky130_fd_sc_hd__o21ai_0
* cell instance $751 r0 *1 51.52,51.68
X$751 4 44 255 166 239 9 9 4 sky130_fd_sc_hd__edfxtp_1
* cell instance $755 r0 *1 67.62,51.68
X$755 9 98 4 190 9 4 sky130_fd_sc_hd__clkbuf_4
* cell instance $760 r0 *1 70.84,51.68
X$760 4 7 250 166 239 9 9 4 sky130_fd_sc_hd__edfxtp_1
* cell instance $761 r0 *1 81.88,51.68
X$761 9 61 9 4 248 4 sky130_fd_sc_hd__buf_4
* cell instance $764 r0 *1 86.94,51.68
X$764 4 216 243 170 8 9 9 4 sky130_fd_sc_hd__edfxtp_1
* cell instance $772 m0 *1 1.38,57.12
X$772 9 237 9 4 97 4 sky130_fd_sc_hd__buf_4
* cell instance $777 m0 *1 12.88,57.12
X$777 4 186 271 266 239 9 9 4 sky130_fd_sc_hd__edfxtp_1
* cell instance $778 m0 *1 23.92,57.12
X$778 4 292 271 98 61 63 267 9 9 4 sky130_fd_sc_hd__a221oi_1
* cell instance $785 m0 *1 40.94,57.12
X$785 4 56 268 256 8 9 9 4 sky130_fd_sc_hd__edfxtp_1
* cell instance $786 m0 *1 51.98,57.12
X$786 9 187 268 278 253 9 4 4 sky130_fd_sc_hd__nand3_1
* cell instance $788 m0 *1 54.74,57.12
X$788 9 248 275 254 259 9 4 4 sky130_fd_sc_hd__nand3_1
* cell instance $790 m0 *1 57.04,57.12
X$790 4 273 134 9 9 4 sky130_fd_sc_hd__clkbuf_8
* cell instance $791 m0 *1 62.1,57.12
X$791 9 21 255 98 257 9 258 4 4 sky130_fd_sc_hd__a22oi_1
* cell instance $792 m0 *1 64.86,57.12
X$792 9 248 258 259 9 265 4 4 sky130_fd_sc_hd__o21ai_0
* cell instance $794 m0 *1 67.62,57.12
X$794 4 35 264 166 239 9 9 4 sky130_fd_sc_hd__edfxtp_1
* cell instance $795 m0 *1 78.66,57.12
X$795 4 272 264 250 125 9 9 4 sky130_fd_sc_hd__mux2_1
* cell instance $801 m0 *1 87.4,57.12
X$801 9 77 215 263 260 9 4 262 4 sky130_fd_sc_hd__o31ai_1
* cell instance $802 m0 *1 90.16,57.12
X$802 9 243 244 263 4 9 4 sky130_fd_sc_hd__nor2_1
* cell instance $803 m0 *1 91.54,57.12
X$803 4 16 261 269 262 9 9 4 sky130_fd_sc_hd__dfrtp_1
* cell instance $804 m0 *1 100.74,57.12
X$804 9 261 102 260 9 4 4 sky130_fd_sc_hd__nand2_1
* cell instance $807 r0 *1 1.38,57.12
X$807 4 152 267 266 239 9 9 4 sky130_fd_sc_hd__edfxtp_1
* cell instance $816 r0 *1 19.78,57.12
X$816 4 35 285 266 74 9 9 4 sky130_fd_sc_hd__edfxtp_1
* cell instance $818 r0 *1 31.74,57.12
X$818 4 85 290 256 74 9 9 4 sky130_fd_sc_hd__edfxtp_1
* cell instance $824 r0 *1 44.16,57.12
X$824 4 165 275 256 239 9 9 4 sky130_fd_sc_hd__edfxtp_1
* cell instance $827 r0 *1 57.5,57.12
X$827 4 35 289 274 270 9 9 4 sky130_fd_sc_hd__edfxtp_1
* cell instance $834 r0 *1 74.52,57.12
X$834 4 191 257 269 239 9 9 4 sky130_fd_sc_hd__edfxtp_1
* cell instance $836 r0 *1 86.02,57.12
X$836 4 191 282 269 270 9 9 4 sky130_fd_sc_hd__edfxtp_1
* cell instance $844 r0 *1 100.74,57.12
X$844 9 261 281 4 9 4 sky130_fd_sc_hd__clkbuf_1
* cell instance $847 m0 *1 1.38,62.56
X$847 9 276 9 4 8 4 sky130_fd_sc_hd__buf_4
* cell instance $849 m0 *1 5.06,62.56
X$849 4 131 296 266 239 9 9 4 sky130_fd_sc_hd__edfxtp_1
* cell instance $851 m0 *1 17.94,62.56
X$851 4 12 286 266 74 9 9 4 sky130_fd_sc_hd__edfxtp_1
* cell instance $854 m0 *1 29.9,62.56
X$854 9 286 21 285 213 9 288 4 4 sky130_fd_sc_hd__a22oi_1
* cell instance $856 m0 *1 33.58,62.56
X$856 4 44 300 256 74 9 9 4 sky130_fd_sc_hd__edfxtp_1
* cell instance $857 m0 *1 44.62,62.56
X$857 4 277 120 300 62 290 63 9 9 4 sky130_fd_sc_hd__a221oi_1
* cell instance $863 m0 *1 57.04,62.56
X$863 4 12 279 274 270 9 9 4 sky130_fd_sc_hd__edfxtp_1
* cell instance $864 m0 *1 68.08,62.56
X$864 9 279 278 289 213 9 287 4 4 sky130_fd_sc_hd__a22oi_1
* cell instance $865 m0 *1 70.84,62.56
X$865 9 272 213 232 197 280 9 301 4 4 sky130_fd_sc_hd__a311oi_1
* cell instance $866 m0 *1 74.06,62.56
X$866 9 284 244 299 4 9 4 sky130_fd_sc_hd__nor2_1
* cell instance $872 m0 *1 84.64,62.56
X$872 4 195 283 269 270 9 9 4 sky130_fd_sc_hd__edfxtp_1
* cell instance $873 m0 *1 95.68,62.56
X$873 4 297 282 283 187 9 9 4 sky130_fd_sc_hd__mux2i_1
* cell instance $879 r0 *1 4.14,62.56
X$879 4 56 291 266 239 9 9 4 sky130_fd_sc_hd__edfxtp_1
* cell instance $882 r0 *1 15.64,62.56
X$882 9 296 120 291 63 9 293 4 4 sky130_fd_sc_hd__a22oi_1
* cell instance $885 r0 *1 21.16,62.56
X$885 4 12 298 266 239 9 9 4 sky130_fd_sc_hd__edfxtp_1
* cell instance $886 r0 *1 32.2,62.56
X$886 9 187 298 21 312 9 4 4 sky130_fd_sc_hd__nand3_1
* cell instance $888 r0 *1 34.5,62.56
X$888 9 293 248 211 292 4 294 9 4 sky130_fd_sc_hd__a211oi_1
* cell instance $895 r0 *1 46,62.56
X$895 9 288 82 135 277 4 314 9 4 sky130_fd_sc_hd__a211oi_1
* cell instance $896 r0 *1 48.76,62.56
X$896 9 63 4 278 9 4 sky130_fd_sc_hd__clkbuf_4
* cell instance $900 r0 *1 59.34,62.56
X$900 9 294 197 265 4 9 305 4 sky130_fd_sc_hd__a21oi_1
* cell instance $904 r0 *1 67.62,62.56
X$904 9 196 297 287 181 311 4 9 4 sky130_fd_sc_hd__o22ai_1
* cell instance $908 r0 *1 70.84,62.56
X$908 4 307 304 301 305 299 9 9 4 sky130_fd_sc_hd__a31o_1
* cell instance $909 r0 *1 74.06,62.56
X$909 4 216 284 269 239 9 9 4 sky130_fd_sc_hd__edfxtp_1
* cell instance $914 r0 *1 96.14,62.56
X$914 9 102 307 309 9 310 4 4 sky130_fd_sc_hd__o21ai_0
* cell instance $918 r0 *1 100.74,62.56
X$918 9 295 102 309 9 4 4 sky130_fd_sc_hd__nand2_1
* cell instance $920 r0 *1 103.04,62.56
X$920 9 295 308 4 9 4 sky130_fd_sc_hd__clkbuf_1
* cell instance $933 m0 *1 11.04,68
X$933 9 266 9 4 4 sky130_fd_sc_hd__clkinv_2
* cell instance $934 m0 *1 12.88,68
X$934 4 133 318 266 239 9 9 4 sky130_fd_sc_hd__edfxtp_1
* cell instance $940 m0 *1 29.9,68
X$940 9 197 303 319 9 4 304 4 sky130_fd_sc_hd__o21ai_1
* cell instance $941 m0 *1 31.74,68
X$941 9 248 313 312 197 303 9 4 4 sky130_fd_sc_hd__o211ai_1
* cell instance $942 m0 *1 34.5,68
X$942 9 338 254 313 9 4 4 sky130_fd_sc_hd__nand2_1
* cell instance $947 m0 *1 42.78,68
X$947 4 322 315 211 120 9 9 4 sky130_fd_sc_hd__and3_1
* cell instance $949 m0 *1 45.54,68
X$949 4 44 323 256 270 9 9 4 sky130_fd_sc_hd__edfxtp_1
* cell instance $954 m0 *1 63.48,68
X$954 4 99 317 274 239 9 9 4 sky130_fd_sc_hd__edfxtp_1
* cell instance $955 m0 *1 74.52,68
X$955 9 321 306 280 4 9 4 sky130_fd_sc_hd__nor2_1
* cell instance $956 m0 *1 75.9,68
X$956 4 306 317 320 211 9 9 4 sky130_fd_sc_hd__mux2i_1
* cell instance $957 m0 *1 79.58,68
X$957 9 187 190 321 9 4 4 sky130_fd_sc_hd__nand2_1
* cell instance $967 m0 *1 95.22,68
X$967 4 16 295 269 310 9 9 4 sky130_fd_sc_hd__dfrtp_1
* cell instance $968 r0 *1 1.38,68
X$968 9 302 9 325 4 4 sky130_fd_sc_hd__dlygate4sd3_1
* cell instance $970 r0 *1 5.98,68
X$970 4 134 266 9 9 4 sky130_fd_sc_hd__clkbuf_16
* cell instance $975 r0 *1 15.64,68
X$975 4 99 327 266 6 9 9 4 sky130_fd_sc_hd__edfxtp_1
* cell instance $976 r0 *1 26.68,68
X$976 9 318 254 333 9 4 4 sky130_fd_sc_hd__nand2_1
* cell instance $977 r0 *1 28.06,68
X$977 9 187 333 335 9 319 4 4 sky130_fd_sc_hd__o21ai_0
* cell instance $979 r0 *1 31.74,68
X$979 4 85 322 256 6 9 9 4 sky130_fd_sc_hd__edfxtp_1
* cell instance $985 r0 *1 44.16,68
X$985 4 85 324 256 270 9 9 4 sky130_fd_sc_hd__edfxtp_1
* cell instance $986 r0 *1 55.2,68
X$986 9 324 9 4 337 4 sky130_fd_sc_hd__inv_1
* cell instance $988 r0 *1 57.04,68
X$988 4 99 316 274 270 9 9 4 sky130_fd_sc_hd__edfxtp_1
* cell instance $989 r0 *1 68.08,68
X$989 9 232 334 311 336 4 9 4 sky130_fd_sc_hd__nor3_1
* cell instance $995 r0 *1 70.84,68
X$995 9 178 332 334 4 9 4 sky130_fd_sc_hd__nor2_1
* cell instance $996 r0 *1 72.22,68
X$996 4 195 320 269 239 9 9 4 sky130_fd_sc_hd__edfxtp_1
* cell instance $998 r0 *1 86.94,68
X$998 4 216 330 269 270 9 9 4 sky130_fd_sc_hd__edfxtp_1
* cell instance $1005 r0 *1 103.04,68
X$1005 9 344 329 4 9 4 sky130_fd_sc_hd__clkbuf_1
* cell instance $1006 m0 *1 1.38,73.44
X$1006 9 325 9 4 239 4 sky130_fd_sc_hd__buf_4
* cell instance $1007 m0 *1 4.14,73.44
X$1007 4 43 328 326 239 9 9 4 sky130_fd_sc_hd__edfxtp_1
* cell instance $1008 m0 *1 15.18,73.44
X$1008 4 43 339 326 6 9 9 4 sky130_fd_sc_hd__edfxtp_1
* cell instance $1010 m0 *1 26.68,73.44
X$1010 9 187 328 213 335 9 4 4 sky130_fd_sc_hd__nand3_1
* cell instance $1016 m0 *1 34.5,73.44
X$1016 4 85 338 256 239 9 9 4 sky130_fd_sc_hd__edfxtp_1
* cell instance $1017 m0 *1 45.54,73.44