
* cell fwft_fifo
* pin rst_n
* pin data_count[4]
* pin empty
* pin rd_en
* pin rd_data[7]
* pin data_count[0]
* pin data_count[1]
* pin data_count[3]
* pin data_count[2]
* pin almost_full
* pin almost_empty
* pin wr_data[5]
* pin rd_data[3]
* pin wr_data[3]
* pin wr_data[6]
* pin rd_data[1]
* pin wr_data[0]
* pin rd_data[0]
* pin rd_data[2]
* pin wr_en
* pin full
* pin wr_data[7]
* pin clk
* pin rd_data[6]
* pin rd_data[4]
* pin wr_data[4]
* pin rd_data[5]
* pin wr_data[2]
* pin wr_data[1]
* pin NWELL
* pin PWELL,gf180mcu_gnd
.SUBCKT fwft_fifo 1 4 5 6 8 15 16 18 19 20 21 25 26 27 28 38 39 66 67 68 139
+ 210 283 522 523 524 525 526 527 528 529
* net 1 rst_n
* net 4 data_count[4]
* net 5 empty
* net 6 rd_en
* net 8 rd_data[7]
* net 15 data_count[0]
* net 16 data_count[1]
* net 18 data_count[3]
* net 19 data_count[2]
* net 20 almost_full
* net 21 almost_empty
* net 25 wr_data[5]
* net 26 rd_data[3]
* net 27 wr_data[3]
* net 28 wr_data[6]
* net 38 rd_data[1]
* net 39 wr_data[0]
* net 66 rd_data[0]
* net 67 rd_data[2]
* net 68 wr_en
* net 139 full
* net 210 wr_data[7]
* net 283 clk
* net 522 rd_data[6]
* net 523 rd_data[4]
* net 524 wr_data[4]
* net 525 rd_data[5]
* net 526 wr_data[2]
* net 527 wr_data[1]
* net 528 NWELL
* net 529 PWELL,gf180mcu_gnd
* cell instance $3 r0 *1 2227.68,1073.52
X$3 529 3 1 528 gf180mcu_fd_sc_mcu9t5v0__dlyc_2
* cell instance $5 m0 *1 2234.4,1123.92
X$5 529 528 65 2 gf180mcu_fd_sc_mcu9t5v0__clkinv_2
* cell instance $7 r0 *1 2223.2,1113.84
X$7 528 2 7 529 44 gf180mcu_fd_sc_mcu9t5v0__and2_2
* cell instance $13 m0 *1 2231.6,1073.52
X$13 2 528 529 5 gf180mcu_fd_sc_mcu9t5v0__dlyb_2
* cell instance $15 m0 *1 2226,1144.08
X$15 529 62 2 528 61 gf180mcu_fd_sc_mcu9t5v0__or2_2
* cell instance $18 m0 *1 2231.6,1083.6
X$18 3 528 529 7 gf180mcu_fd_sc_mcu9t5v0__clkbuf_2
* cell instance $21 m0 *1 2231.6,1093.68
X$21 14 528 529 4 gf180mcu_fd_sc_mcu9t5v0__dlyb_2
* cell instance $25 r0 *1 2223.2,1073.52
X$25 6 528 529 62 gf180mcu_fd_sc_mcu9t5v0__clkbuf_2
* cell instance $29 m0 *1 2219.84,1123.92
X$29 529 7 50 528 gf180mcu_fd_sc_mcu9t5v0__buf_8
* cell instance $34 m0 *1 10.64,1113.84
X$34 22 528 529 8 gf180mcu_fd_sc_mcu9t5v0__dlyb_2
* cell instance $37 m0 *1 2213.12,1113.84
X$37 529 528 10 24 9 gf180mcu_fd_sc_mcu9t5v0__nand2_2
* cell instance $39 r0 *1 2213.68,1103.76
X$39 9 528 11 13 529 23 gf180mcu_fd_sc_mcu9t5v0__and3_2
* cell instance $49 m0 *1 2223.2,1103.76
X$49 9 528 529 16 gf180mcu_fd_sc_mcu9t5v0__dlyb_2
* cell instance $51 r0 *1 2209.76,1123.92
X$51 529 9 10 528 37 gf180mcu_fd_sc_mcu9t5v0__or2_4
* cell instance $53 m0 *1 2175.04,1154.16
X$53 529 80 9 85 92 84 528 gf180mcu_fd_sc_mcu9t5v0__addf_2
* cell instance $60 m0 *1 2214.8,1103.76
X$60 10 528 529 15 gf180mcu_fd_sc_mcu9t5v0__dlyb_2
* cell instance $62 m0 *1 2208.64,1134
X$62 529 528 70 10 gf180mcu_fd_sc_mcu9t5v0__clkinv_2
* cell instance $69 m0 *1 2184.56,1123.92
X$69 528 32 34 529 11 gf180mcu_fd_sc_mcu9t5v0__xnor2_2
* cell instance $72 m0 *1 2226.56,1113.84
X$72 11 528 529 18 gf180mcu_fd_sc_mcu9t5v0__dlyb_2
* cell instance $76 r0 *1 2211.44,1113.84
X$76 37 528 45 24 529 12 gf180mcu_fd_sc_mcu9t5v0__and3_2
* cell instance $78 r0 *1 2231.6,1093.68
X$78 12 528 529 21 gf180mcu_fd_sc_mcu9t5v0__dlyb_2
* cell instance $86 m0 *1 2175.04,1144.08
X$86 58 529 84 528 13 gf180mcu_fd_sc_mcu9t5v0__xor2_2
* cell instance $88 r0 *1 2172.24,1134
X$88 529 57 13 528 71 gf180mcu_fd_sc_mcu9t5v0__or2_2
* cell instance $90 r0 *1 2173.36,1123.92
X$90 529 32 13 528 46 gf180mcu_fd_sc_mcu9t5v0__or2_2
* cell instance $93 m0 *1 2218.16,1113.84
X$93 13 528 529 19 gf180mcu_fd_sc_mcu9t5v0__dlyb_2
* cell instance $96 r0 *1 2196.88,1134
X$96 529 35 62 52 37 14 528 gf180mcu_fd_sc_mcu9t5v0__oai31_4
* cell instance $98 r0 *1 2204.72,1144.08
X$98 529 528 109 14 gf180mcu_fd_sc_mcu9t5v0__clkinv_4
* cell instance $102 m0 *1 2200.24,1123.92
X$102 529 35 44 36 37 14 528 gf180mcu_fd_sc_mcu9t5v0__oai31_4
* cell instance $109 r0 *1 2217.6,1113.84
X$109 529 528 45 14 35 gf180mcu_fd_sc_mcu9t5v0__nor2_2
* cell instance $112 r0 *1 2223.2,1103.76
X$112 529 14 23 528 17 gf180mcu_fd_sc_mcu9t5v0__or2_2
* cell instance $114 r0 *1 2212.56,1144.08
X$114 14 529 37 35 528 90 gf180mcu_fd_sc_mcu9t5v0__or3_2
* cell instance $122 m0 *1 2231.6,1103.76
X$122 17 528 529 20 gf180mcu_fd_sc_mcu9t5v0__dlyb_2
* cell instance $132 m0 *1 1954.4,1164.24
X$132 529 528 73 120 98 22 gf180mcu_fd_sc_mcu9t5v0__mux2_2
* cell instance $134 r0 *1 1952.72,1154.16
X$134 529 50 22 121 73 528 gf180mcu_fd_sc_mcu9t5v0__dffrnq_4
* cell instance $149 m0 *1 12.32,1123.92
X$149 529 25 42 528 gf180mcu_fd_sc_mcu9t5v0__buf_12
* cell instance $153 r0 *1 2.24,1113.84
X$153 40 528 529 26 gf180mcu_fd_sc_mcu9t5v0__dlyb_2
* cell instance $155 r0 *1 23.52,1123.92
X$155 529 27 43 528 gf180mcu_fd_sc_mcu9t5v0__clkbuf_12
* cell instance $158 r0 *1 18.48,1113.84
X$158 529 28 41 528 gf180mcu_fd_sc_mcu9t5v0__clkbuf_12
* cell instance $161 m0 *1 2083.76,1144.08
X$161 529 51 30 29 528 gf180mcu_fd_sc_mcu9t5v0__dffq_2
* cell instance $163 r0 *1 2080.96,1123.92
X$163 528 48 36 529 29 gf180mcu_fd_sc_mcu9t5v0__xnor2_2
* cell instance $165 m0 *1 2119.04,1154.16
X$165 529 50 78 30 76 528 gf180mcu_fd_sc_mcu9t5v0__dffrnq_2
* cell instance $167 m0 *1 2120.72,1204.56
X$167 529 204 30 528 gf180mcu_fd_sc_mcu9t5v0__clkbuf_20
* cell instance $169 r0 *1 2120.16,1144.08
X$169 529 78 30 77 528 gf180mcu_fd_sc_mcu9t5v0__dffq_2
* cell instance $171 r0 *1 2142,1164.24
X$171 529 50 106 30 135 528 gf180mcu_fd_sc_mcu9t5v0__dffrnq_4
* cell instance $173 m0 *1 2102.24,1184.4
X$173 529 50 154 30 133 528 gf180mcu_fd_sc_mcu9t5v0__dffrnq_4
* cell instance $175 r0 *1 2068.08,1154.16
X$175 529 100 30 101 528 gf180mcu_fd_sc_mcu9t5v0__dffq_2
* cell instance $178 m0 *1 2069.2,1164.24
X$178 529 50 100 30 143 528 gf180mcu_fd_sc_mcu9t5v0__dffrnq_2
* cell instance $180 m0 *1 2082.08,1134
X$180 529 50 51 30 49 528 gf180mcu_fd_sc_mcu9t5v0__dffrnq_2
* cell instance $182 r0 *1 2141.44,1123.92
X$182 529 55 30 47 528 gf180mcu_fd_sc_mcu9t5v0__dffq_2
* cell instance $184 r0 *1 2095.52,1194.48
X$184 529 201 30 200 528 gf180mcu_fd_sc_mcu9t5v0__dffq_2
* cell instance $187 r0 *1 2077.6,1194.48
X$187 529 199 30 184 528 gf180mcu_fd_sc_mcu9t5v0__dffq_2
* cell instance $198 r0 *1 2105.04,1174.32
X$198 529 154 30 134 528 gf180mcu_fd_sc_mcu9t5v0__dffq_4
* cell instance $200 m0 *1 2140.88,1134
X$200 529 50 55 30 56 528 gf180mcu_fd_sc_mcu9t5v0__dffrnq_2
* cell instance $202 m0 *1 2087.68,1184.4
X$202 529 528 31 152 gf180mcu_fd_sc_mcu9t5v0__clkbuf_4
* cell instance $204 r0 *1 2231.6,1113.84
X$204 529 528 39 31 gf180mcu_fd_sc_mcu9t5v0__clkbuf_4
* cell instance $223 m0 *1 2119.6,1224.72
X$223 529 528 240 31 241 274 gf180mcu_fd_sc_mcu9t5v0__mux2_2
* cell instance $225 m0 *1 2024.4,1184.4
X$225 529 528 147 31 148 125 gf180mcu_fd_sc_mcu9t5v0__mux2_2
* cell instance $227 r0 *1 2026.08,1184.4
X$227 529 528 124 31 171 126 gf180mcu_fd_sc_mcu9t5v0__mux2_2
* cell instance $229 m0 *1 2130.8,1234.8
X$229 529 528 273 31 202 275 gf180mcu_fd_sc_mcu9t5v0__mux2_2
* cell instance $231 m0 *1 2027.2,1244.88
X$231 529 528 265 31 189 266 gf180mcu_fd_sc_mcu9t5v0__mux2_2
* cell instance $233 r0 *1 2047.92,1224.72
X$233 529 528 280 31 193 237 gf180mcu_fd_sc_mcu9t5v0__mux2_2
* cell instance $236 m0 *1 2172.24,1134
X$236 529 528 57 32 gf180mcu_fd_sc_mcu9t5v0__clkinv_2
* cell instance $242 m0 *1 2179.52,1134
X$242 529 33 35 528 gf180mcu_fd_sc_mcu9t5v0__clkbuf_8
* cell instance $244 r0 *1 2178.96,1123.92
X$244 529 528 33 46 34 71 gf180mcu_fd_sc_mcu9t5v0__mux2_2
* cell instance $246 r0 *1 2182.88,1144.08
X$246 528 87 529 88 34 89 gf180mcu_fd_sc_mcu9t5v0__oai21_2
* cell instance $250 r0 *1 2184,1194.48
X$250 529 35 162 176 37 109 528 gf180mcu_fd_sc_mcu9t5v0__oai31_4
* cell instance $254 r0 *1 2189.04,1154.16
X$254 529 35 111 116 37 109 528 gf180mcu_fd_sc_mcu9t5v0__oai31_4
* cell instance $258 r0 *1 2184.56,1184.4
X$258 529 35 182 178 37 109 528 gf180mcu_fd_sc_mcu9t5v0__oai31_4
* cell instance $260 r0 *1 2181.76,1174.32
X$260 529 35 160 155 37 109 528 gf180mcu_fd_sc_mcu9t5v0__oai31_4
* cell instance $272 r0 *1 2210.88,1164.24
X$272 109 529 37 35 528 137 gf180mcu_fd_sc_mcu9t5v0__or3_2
* cell instance $276 r0 *1 2104.48,1154.16
X$276 529 528 74 103 36 gf180mcu_fd_sc_mcu9t5v0__nor2_2
* cell instance $288 r0 *1 2126.88,1134
X$288 529 36 53 528 54 gf180mcu_fd_sc_mcu9t5v0__or2_2
* cell instance $290 m0 *1 2088.24,1164.24
X$290 529 528 101 99 36 102 gf180mcu_fd_sc_mcu9t5v0__mux2_2
* cell instance $293 r0 *1 2111.2,1154.16
X$293 529 528 95 36 75 gf180mcu_fd_sc_mcu9t5v0__nor2_2
* cell instance $315 r0 *1 2231.6,1123.92
X$315 63 528 529 38 gf180mcu_fd_sc_mcu9t5v0__dlyb_2
* cell instance $319 m0 *1 1916.32,1164.24
X$319 529 50 40 121 145 528 gf180mcu_fd_sc_mcu9t5v0__dffrnq_4
* cell instance $322 r0 *1 1924.72,1164.24
X$322 529 528 145 119 98 40 gf180mcu_fd_sc_mcu9t5v0__mux2_2
* cell instance $330 r0 *1 2031.12,1254.96
X$330 529 528 41 301 gf180mcu_fd_sc_mcu9t5v0__clkbuf_4
* cell instance $341 r0 *1 1938.16,1265.04
X$341 529 528 298 41 189 299 gf180mcu_fd_sc_mcu9t5v0__mux2_2
* cell instance $344 r0 *1 2082.08,1254.96
X$344 529 528 349 41 241 309 gf180mcu_fd_sc_mcu9t5v0__mux2_2
* cell instance $346 r0 *1 1986.88,1244.88
X$346 529 528 327 41 171 304 gf180mcu_fd_sc_mcu9t5v0__mux2_2
* cell instance $348 m0 *1 1977.36,1265.04
X$348 529 528 302 41 148 303 gf180mcu_fd_sc_mcu9t5v0__mux2_2
* cell instance $350 r0 *1 2096.08,1265.04
X$350 529 528 348 41 202 340 gf180mcu_fd_sc_mcu9t5v0__mux2_2
* cell instance $352 r0 *1 1929.76,1265.04
X$352 529 528 353 41 193 331 gf180mcu_fd_sc_mcu9t5v0__mux2_2
* cell instance $357 r0 *1 2044.56,1275.12
X$357 42 528 529 356 gf180mcu_fd_sc_mcu9t5v0__buf_3
* cell instance $369 r0 *1 2116.8,1285.2
X$369 529 528 365 42 202 366 gf180mcu_fd_sc_mcu9t5v0__mux2_2
* cell instance $371 r0 *1 2007.6,1275.12
X$371 529 528 359 42 171 360 gf180mcu_fd_sc_mcu9t5v0__mux2_2
* cell instance $374 m0 *1 1996.96,1285.2
X$374 529 528 357 42 148 358 gf180mcu_fd_sc_mcu9t5v0__mux2_2
* cell instance $376 r0 *1 2115.12,1265.04
X$376 529 528 341 42 241 346 gf180mcu_fd_sc_mcu9t5v0__mux2_2
* cell instance $378 m0 *1 1931.44,1295.28
X$378 529 528 399 42 193 376 gf180mcu_fd_sc_mcu9t5v0__mux2_2
* cell instance $380 r0 *1 1941.52,1285.2
X$380 529 528 400 42 189 354 gf180mcu_fd_sc_mcu9t5v0__mux2_2
* cell instance $383 m0 *1 2016,1184.4
X$383 529 528 43 168 gf180mcu_fd_sc_mcu9t5v0__clkbuf_4
* cell instance $396 m0 *1 2101.68,1204.56
X$396 529 528 200 43 202 201 gf180mcu_fd_sc_mcu9t5v0__mux2_2
* cell instance $398 r0 *1 1943.2,1194.48
X$398 529 528 186 43 189 165 gf180mcu_fd_sc_mcu9t5v0__mux2_2
* cell instance $400 m0 *1 1984.08,1184.4
X$400 529 528 122 43 148 146 gf180mcu_fd_sc_mcu9t5v0__mux2_2
* cell instance $403 r0 *1 1982.96,1184.4
X$403 529 528 169 43 171 149 gf180mcu_fd_sc_mcu9t5v0__mux2_2
* cell instance $405 m0 *1 2088.24,1194.48
X$405 529 528 184 43 241 199 gf180mcu_fd_sc_mcu9t5v0__mux2_2
* cell instance $407 m0 *1 1933.12,1204.56
X$407 529 528 188 43 193 164 gf180mcu_fd_sc_mcu9t5v0__mux2_2
* cell instance $422 m0 *1 2131.36,1134
X$422 528 55 54 529 47 gf180mcu_fd_sc_mcu9t5v0__xnor2_2
* cell instance $425 r0 *1 2054.08,1345.68
X$425 529 456 129 498 495 48 496 497 528 gf180mcu_fd_sc_mcu9t5v0__mux4_2
* cell instance $428 r0 *1 1986.32,1345.68
X$428 529 454 129 474 487 48 488 489 528 gf180mcu_fd_sc_mcu9t5v0__mux4_2
* cell instance $431 m0 *1 2007.6,1285.2
X$431 529 374 129 364 358 48 360 361 528 gf180mcu_fd_sc_mcu9t5v0__mux4_2
* cell instance $434 r0 *1 2079.28,1295.28
X$434 529 142 48 528 gf180mcu_fd_sc_mcu9t5v0__clkbuf_8
* cell instance $437 r0 *1 2021.04,1345.68
X$437 529 486 129 494 513 48 490 493 528 gf180mcu_fd_sc_mcu9t5v0__mux4_2
* cell instance $440 r0 *1 2031.68,1174.32
X$440 529 127 129 130 125 48 126 151 528 gf180mcu_fd_sc_mcu9t5v0__mux4_2
* cell instance $442 r0 *1 2079.28,1134
X$442 528 48 52 529 49 gf180mcu_fd_sc_mcu9t5v0__xnor2_2
* cell instance $445 r0 *1 1993.6,1254.96
X$445 529 305 129 308 303 48 304 306 528 gf180mcu_fd_sc_mcu9t5v0__mux4_2
* cell instance $458 m0 *1 2072.56,1174.32
X$458 529 75 48 528 99 129 gf180mcu_fd_sc_mcu9t5v0__nand3_2
* cell instance $460 r0 *1 1991.92,1184.4
X$460 529 172 129 150 146 48 149 175 528 gf180mcu_fd_sc_mcu9t5v0__mux4_2
* cell instance $467 m0 *1 1933.68,1305.36
X$467 529 50 402 379 445 528 gf180mcu_fd_sc_mcu9t5v0__dffrnq_4
* cell instance $470 m0 *1 1907.36,1305.36
X$470 529 50 401 379 413 528 gf180mcu_fd_sc_mcu9t5v0__dffrnq_4
* cell instance $473 m0 *1 1907.36,1285.2
X$473 529 50 329 262 330 528 gf180mcu_fd_sc_mcu9t5v0__dffrnq_4
* cell instance $491 r0 *1 2216.48,1134
X$491 529 50 65 59 60 528 gf180mcu_fd_sc_mcu9t5v0__dffrnq_2
* cell instance $493 m0 *1 2219.28,1244.88
X$493 529 50 64 223 292 528 gf180mcu_fd_sc_mcu9t5v0__dffrnq_2
* cell instance $495 r0 *1 2217.04,1265.04
X$495 529 50 63 314 345 528 gf180mcu_fd_sc_mcu9t5v0__dffrnq_2
* cell instance $498 m0 *1 2219.28,1164.24
X$498 529 50 85 59 113 528 gf180mcu_fd_sc_mcu9t5v0__dffrnq_2
* cell instance $500 m0 *1 2150.4,1194.48
X$500 529 50 79 59 156 528 gf180mcu_fd_sc_mcu9t5v0__dffrnq_2
* cell instance $503 r0 *1 2149.84,1184.4
X$503 529 50 107 59 163 528 gf180mcu_fd_sc_mcu9t5v0__dffrnq_2
* cell instance $505 m0 *1 2219.28,1214.64
X$505 529 50 91 223 224 528 gf180mcu_fd_sc_mcu9t5v0__dffrnq_2
* cell instance $509 m0 *1 2219.28,1194.48
X$509 529 50 136 59 180 528 gf180mcu_fd_sc_mcu9t5v0__dffrnq_2
* cell instance $513 r0 *1 2194.08,1144.08
X$513 89 529 528 51 112 70 gf180mcu_fd_sc_mcu9t5v0__addh_1
* cell instance $516 r0 *1 2084.88,1154.16
X$516 118 529 528 51 100 102 gf180mcu_fd_sc_mcu9t5v0__addh_1
* cell instance $518 m0 *1 2102.24,1174.32
X$518 529 51 142 528 gf180mcu_fd_sc_mcu9t5v0__clkbuf_8
* cell instance $527 m0 *1 2097.76,1164.24
X$527 529 528 132 103 52 gf180mcu_fd_sc_mcu9t5v0__nor2_2
* cell instance $536 r0 *1 2132.48,1134
X$536 529 52 53 528 72 gf180mcu_fd_sc_mcu9t5v0__or2_2
* cell instance $539 r0 *1 2078.72,1164.24
X$539 529 528 143 99 52 102 gf180mcu_fd_sc_mcu9t5v0__mux2_2
* cell instance $543 m0 *1 2103.92,1154.16
X$543 529 528 97 52 75 gf180mcu_fd_sc_mcu9t5v0__nor2_2
* cell instance $550 m0 *1 2116.8,1164.24
X$550 104 529 96 103 528 53 gf180mcu_fd_sc_mcu9t5v0__or3_2
* cell instance $555 m0 *1 2155.44,1164.24
X$555 529 55 107 117 108 528 gf180mcu_fd_sc_mcu9t5v0__xnor3_2
* cell instance $557 r0 *1 2138.08,1134
X$557 528 55 72 529 56 gf180mcu_fd_sc_mcu9t5v0__xnor2_2
* cell instance $569 r0 *1 2160.48,1144.08
X$569 82 57 93 108 83 528 529 gf180mcu_fd_sc_mcu9t5v0__aoi211_2
* cell instance $572 r0 *1 2171.68,1154.16
X$572 57 528 58 84 529 93 gf180mcu_fd_sc_mcu9t5v0__and3_2
* cell instance $575 r0 *1 2159.92,1154.16
X$575 529 83 57 96 106 528 gf180mcu_fd_sc_mcu9t5v0__addh_2
* cell instance $578 r0 *1 2178.96,1154.16
X$578 529 528 58 88 86 gf180mcu_fd_sc_mcu9t5v0__nand2_2
* cell instance $584 m0 *1 2154.32,1154.16
X$584 529 82 58 81 79 528 gf180mcu_fd_sc_mcu9t5v0__addh_2
* cell instance $587 m0 *1 2166.08,1154.16
X$587 529 82 528 87 94 58 gf180mcu_fd_sc_mcu9t5v0__aoi21_2
* cell instance $591 m0 *1 2172.8,1214.64
X$591 529 59 534 528 gf180mcu_fd_sc_mcu9t5v0__clkbuf_12
* cell instance $601 r0 *1 2180.64,1204.56
X$601 529 204 59 528 gf180mcu_fd_sc_mcu9t5v0__clkbuf_20
* cell instance $606 r0 *1 2187.92,1224.72
X$606 529 250 59 222 528 gf180mcu_fd_sc_mcu9t5v0__dffq_2
* cell instance $609 m0 *1 2220.4,1144.08
X$609 529 69 90 528 60 gf180mcu_fd_sc_mcu9t5v0__or2_2
* cell instance $611 r0 *1 2221.52,1144.08
X$611 528 90 61 98 529 gf180mcu_fd_sc_mcu9t5v0__and2_4
* cell instance $613 m0 *1 2215.36,1144.08
X$613 529 528 61 69 gf180mcu_fd_sc_mcu9t5v0__clkinv_2
* cell instance $624 m0 *1 2219.28,1275.12
X$624 529 528 345 344 98 63 gf180mcu_fd_sc_mcu9t5v0__mux2_2
* cell instance $633 r0 *1 2223.76,1234.8
X$633 529 528 292 293 98 64 gf180mcu_fd_sc_mcu9t5v0__mux2_2
* cell instance $638 m0 *1 2231.6,1134
X$638 64 528 529 67 gf180mcu_fd_sc_mcu9t5v0__dlyb_2
* cell instance $643 r0 *1 2231.6,1144.08
X$643 91 528 529 66 gf180mcu_fd_sc_mcu9t5v0__dlyb_2
* cell instance $648 m0 *1 2228.24,1154.16
X$648 68 528 529 110 gf180mcu_fd_sc_mcu9t5v0__clkbuf_2
* cell instance $667 m0 *1 2103.36,1164.24
X$667 528 81 74 529 134 gf180mcu_fd_sc_mcu9t5v0__xnor2_2
* cell instance $675 m0 *1 2109.52,1154.16
X$675 528 96 97 529 76 gf180mcu_fd_sc_mcu9t5v0__xnor2_2
* cell instance $679 r0 *1 2116.8,1154.16
X$679 528 96 95 529 77 gf180mcu_fd_sc_mcu9t5v0__xnor2_2
* cell instance $681 r0 *1 2133.04,1154.16
X$681 529 78 105 528 gf180mcu_fd_sc_mcu9t5v0__clkbuf_8
* cell instance $685 m0 *1 2169.44,1194.48
X$685 528 529 79 179 106 gf180mcu_fd_sc_mcu9t5v0__nand2_4
* cell instance $687 r0 *1 2142.56,1184.4
X$687 529 528 79 183 gf180mcu_fd_sc_mcu9t5v0__clkinv_2
* cell instance $689 m0 *1 2145.36,1184.4
X$689 528 79 155 529 156 gf180mcu_fd_sc_mcu9t5v0__xnor2_2
* cell instance $692 r0 *1 2134.72,1174.32
X$692 529 79 106 528 131 gf180mcu_fd_sc_mcu9t5v0__or2_4
* cell instance $694 r0 *1 2210.88,1174.32
X$694 110 79 85 136 529 528 141 gf180mcu_fd_sc_mcu9t5v0__and4_2
* cell instance $709 m0 *1 1985.76,1265.04
X$709 529 528 335 352 80 305 gf180mcu_fd_sc_mcu9t5v0__mux2_2
* cell instance $712 r0 *1 1990.8,1285.2
X$712 529 528 378 397 80 374 gf180mcu_fd_sc_mcu9t5v0__mux2_2
* cell instance $714 m0 *1 2148.16,1315.44
X$714 529 528 198 80 gf180mcu_fd_sc_mcu9t5v0__clkinv_8
* cell instance $716 r0 *1 2171.68,1144.08
X$716 94 529 528 80 85 86 gf180mcu_fd_sc_mcu9t5v0__addh_1
* cell instance $720 r0 *1 1984.08,1194.48
X$720 529 528 192 170 80 172 gf180mcu_fd_sc_mcu9t5v0__mux2_2
* cell instance $722 m0 *1 1984.08,1234.8
X$722 529 528 191 257 80 256 gf180mcu_fd_sc_mcu9t5v0__mux2_2
* cell instance $734 r0 *1 2026.64,1315.44
X$734 529 528 459 470 80 486 gf180mcu_fd_sc_mcu9t5v0__mux2_2
* cell instance $736 m0 *1 2058.56,1325.52
X$736 529 528 436 442 80 456 gf180mcu_fd_sc_mcu9t5v0__mux2_2
* cell instance $738 r0 *1 2039.52,1214.64
X$738 529 528 228 236 80 127 gf180mcu_fd_sc_mcu9t5v0__mux2_2
* cell instance $740 m0 *1 1982.96,1315.44
X$740 529 528 416 448 80 454 gf180mcu_fd_sc_mcu9t5v0__mux2_2
* cell instance $743 r0 *1 2097.76,1164.24
X$743 528 81 132 529 133 gf180mcu_fd_sc_mcu9t5v0__xnor2_2
* cell instance $746 m0 *1 2091.6,1265.04
X$746 529 528 339 347 81 313 gf180mcu_fd_sc_mcu9t5v0__mux2_2
* cell instance $761 m0 *1 2112.32,1295.28
X$761 529 528 396 395 81 393 gf180mcu_fd_sc_mcu9t5v0__mux2_2
* cell instance $763 m0 *1 2126.32,1305.36
X$763 529 528 408 407 81 412 gf180mcu_fd_sc_mcu9t5v0__mux2_2
* cell instance $767 m0 *1 2129.68,1325.52
X$767 529 528 435 478 81 467 gf180mcu_fd_sc_mcu9t5v0__mux2_2
* cell instance $769 r0 *1 2112.32,1164.24
X$769 529 104 81 528 gf180mcu_fd_sc_mcu9t5v0__clkbuf_8
* cell instance $771 r0 *1 2086,1204.56
X$771 529 528 206 197 81 218 gf180mcu_fd_sc_mcu9t5v0__mux2_2
* cell instance $773 m0 *1 2129.12,1224.72
X$773 529 528 242 272 81 254 gf180mcu_fd_sc_mcu9t5v0__mux2_2
* cell instance $776 r0 *1 2098.32,1305.36
X$776 529 528 403 433 81 438 gf180mcu_fd_sc_mcu9t5v0__mux2_2
* cell instance $795 m0 *1 2229.92,1184.4
X$795 159 529 528 136 85 532 gf180mcu_fd_sc_mcu9t5v0__addh_1
* cell instance $797 m0 *1 2210.32,1184.4
X$797 529 528 85 157 gf180mcu_fd_sc_mcu9t5v0__clkinv_2
* cell instance $799 r0 *1 2221.52,1174.32
X$799 529 528 113 158 138 85 gf180mcu_fd_sc_mcu9t5v0__mux2_2
* cell instance $802 m0 *1 2208.08,1164.24
X$802 115 529 528 112 85 531 gf180mcu_fd_sc_mcu9t5v0__addh_1
* cell instance $823 r0 *1 2184.56,1154.16
X$823 529 528 89 92 gf180mcu_fd_sc_mcu9t5v0__clkinv_2
* cell instance $834 r0 *1 2223.2,1204.56
X$834 529 528 224 219 98 91 gf180mcu_fd_sc_mcu9t5v0__mux2_2
* cell instance $857 m0 *1 2133.6,1164.24
X$857 529 528 105 96 gf180mcu_fd_sc_mcu9t5v0__clkinv_2
* cell instance $884 m0 *1 1916.32,1275.12
X$884 529 528 330 334 98 329 gf180mcu_fd_sc_mcu9t5v0__mux2_2
* cell instance $886 r0 *1 1932.56,1305.36
X$886 529 528 445 446 98 402 gf180mcu_fd_sc_mcu9t5v0__mux2_2
* cell instance $895 r0 *1 1916.32,1295.28
X$895 529 528 413 404 98 401 gf180mcu_fd_sc_mcu9t5v0__mux2_2
* cell instance $898 m0 *1 2200.24,1224.72
X$898 529 218 99 253 249 287 250 225 528 gf180mcu_fd_sc_mcu9t5v0__mux4_2
* cell instance $901 r0 *1 2200.24,1254.96
X$901 529 313 99 291 290 287 320 321 528 gf180mcu_fd_sc_mcu9t5v0__mux4_2
* cell instance $903 m0 *1 2152.08,1224.72
X$903 529 254 99 247 244 230 245 276 528 gf180mcu_fd_sc_mcu9t5v0__mux4_2
* cell instance $906 m0 *1 2153.76,1325.52
X$906 529 438 99 462 480 287 461 482 528 gf180mcu_fd_sc_mcu9t5v0__mux4_2
* cell instance $909 m0 *1 2195.2,1325.52
X$909 529 467 99 466 463 287 464 485 528 gf180mcu_fd_sc_mcu9t5v0__mux4_2
* cell instance $912 r0 *1 2153.76,1285.2
X$912 529 393 99 368 387 287 388 389 528 gf180mcu_fd_sc_mcu9t5v0__mux4_2
* cell instance $914 r0 *1 2201.92,1295.28
X$914 529 412 99 373 391 287 371 410 528 gf180mcu_fd_sc_mcu9t5v0__mux4_2
* cell instance $916 m0 *1 2079.84,1174.32
X$916 529 528 100 99 gf180mcu_fd_sc_mcu9t5v0__buf_4
* cell instance $930 m0 *1 2087.68,1174.32
X$930 529 100 198 528 gf180mcu_fd_sc_mcu9t5v0__clkbuf_8
* cell instance $954 r0 *1 2091.04,1164.24
X$954 529 528 118 103 gf180mcu_fd_sc_mcu9t5v0__clkinv_2
* cell instance $958 r0 *1 2115.68,1184.4
X$958 529 528 154 104 gf180mcu_fd_sc_mcu9t5v0__clkinv_2
* cell instance $963 m0 *1 2096.64,1214.64
X$963 529 528 216 229 104 227 gf180mcu_fd_sc_mcu9t5v0__mux2_2
* cell instance $968 r0 *1 2126.88,1305.36
X$968 529 528 344 408 105 436 gf180mcu_fd_sc_mcu9t5v0__mux2_2
* cell instance $971 m0 *1 2127.44,1315.44
X$971 529 528 293 435 105 459 gf180mcu_fd_sc_mcu9t5v0__mux2_2
* cell instance $982 r0 *1 2128,1214.64
X$982 529 528 219 242 105 228 gf180mcu_fd_sc_mcu9t5v0__mux2_2
* cell instance $985 m0 *1 1986.32,1295.28
X$985 529 528 404 396 105 378 gf180mcu_fd_sc_mcu9t5v0__mux2_2
* cell instance $988 m0 *1 1982.4,1204.56
X$988 529 528 119 206 105 192 gf180mcu_fd_sc_mcu9t5v0__mux2_2
* cell instance $990 r0 *1 1979.04,1204.56
X$990 529 528 120 216 105 191 gf180mcu_fd_sc_mcu9t5v0__mux2_2
* cell instance $992 r0 *1 1980.16,1265.04
X$992 529 528 334 339 105 335 gf180mcu_fd_sc_mcu9t5v0__mux2_2
* cell instance $995 r0 *1 1977.92,1305.36
X$995 529 528 446 403 105 416 gf180mcu_fd_sc_mcu9t5v0__mux2_2
* cell instance $997 m0 *1 2141.44,1164.24
X$997 528 106 114 529 135 gf180mcu_fd_sc_mcu9t5v0__xnor2_2
* cell instance $1006 m0 *1 2133.6,1194.48
X$1006 528 529 183 177 106 gf180mcu_fd_sc_mcu9t5v0__nand2_4
* cell instance $1008 r0 *1 2132.48,1184.4
X$1008 529 183 106 528 153 gf180mcu_fd_sc_mcu9t5v0__or2_4
* cell instance $1011 m0 *1 2154.88,1184.4
X$1011 107 529 205 528 163 gf180mcu_fd_sc_mcu9t5v0__xor2_2
* cell instance $1021 m0 *1 2181.76,1164.24
X$1021 529 528 117 109 gf180mcu_fd_sc_mcu9t5v0__buf_4
* cell instance $1035 r0 *1 2210.88,1184.4
X$1035 528 110 159 529 160 gf180mcu_fd_sc_mcu9t5v0__and2_2
* cell instance $1039 m0 *1 2204.72,1184.4
X$1039 528 110 181 529 162 gf180mcu_fd_sc_mcu9t5v0__and2_2
* cell instance $1041 m0 *1 2227.68,1174.32
X$1041 528 110 137 529 138 gf180mcu_fd_sc_mcu9t5v0__and2_2
* cell instance $1048 m0 *1 2203.04,1164.24
X$1048 528 110 115 529 111 gf180mcu_fd_sc_mcu9t5v0__and2_2
* cell instance $1050 r0 *1 2205.28,1184.4
X$1050 528 110 161 529 182 gf180mcu_fd_sc_mcu9t5v0__and2_2
* cell instance $1057 r0 *1 2219.84,1184.4
X$1057 528 112 138 529 180 gf180mcu_fd_sc_mcu9t5v0__xnor2_2
* cell instance $1059 m0 *1 2214.8,1184.4
X$1059 161 529 528 112 157 158 gf180mcu_fd_sc_mcu9t5v0__addh_1
* cell instance $1068 r0 *1 2216.48,1184.4
X$1068 529 528 136 112 gf180mcu_fd_sc_mcu9t5v0__clkinv_2
* cell instance $1072 m0 *1 2213.12,1174.32
X$1072 529 528 137 114 141 gf180mcu_fd_sc_mcu9t5v0__nand2_2
* cell instance $1079 r0 *1 2118.48,1194.48
X$1079 529 528 116 177 238 gf180mcu_fd_sc_mcu9t5v0__nor2_4
* cell instance $1082 r0 *1 2163.84,1194.48
X$1082 529 528 179 116 221 gf180mcu_fd_sc_mcu9t5v0__nor2_4
* cell instance $1085 m0 *1 2059.12,1184.4
X$1085 529 528 153 116 148 gf180mcu_fd_sc_mcu9t5v0__nor2_4
* cell instance $1095 r0 *1 2059.12,1174.32
X$1095 529 528 116 131 144 gf180mcu_fd_sc_mcu9t5v0__nor2_4
* cell instance $1113 m0 *1 1932,1194.48
X$1113 529 165 121 186 528 gf180mcu_fd_sc_mcu9t5v0__dffq_2
* cell instance $1116 m0 *1 1928.08,1224.72
X$1116 529 233 121 261 528 gf180mcu_fd_sc_mcu9t5v0__dffq_2
* cell instance $1118 r0 *1 1946.56,1214.64
X$1118 529 259 121 232 528 gf180mcu_fd_sc_mcu9t5v0__dffq_2
* cell instance $1120 r0 *1 1924.72,1224.72
X$1120 529 260 121 279 528 gf180mcu_fd_sc_mcu9t5v0__dffq_2
* cell instance $1123 r0 *1 1926.4,1194.48
X$1123 529 164 121 188 528 gf180mcu_fd_sc_mcu9t5v0__dffq_2
* cell instance $1127 r0 *1 1951.04,1184.4
X$1127 529 167 121 166 528 gf180mcu_fd_sc_mcu9t5v0__dffq_2
* cell instance $1130 m0 *1 1958.88,1204.56
X$1130 529 187 121 209 528 gf180mcu_fd_sc_mcu9t5v0__dffq_2
* cell instance $1132 r0 *1 1979.6,1174.32
X$1132 529 146 121 122 528 gf180mcu_fd_sc_mcu9t5v0__dffq_2
* cell instance $1134 m0 *1 1974,1224.72
X$1134 529 234 121 258 528 gf180mcu_fd_sc_mcu9t5v0__dffq_2
* cell instance $1136 r0 *1 1956.64,1224.72
X$1136 529 204 121 528 gf180mcu_fd_sc_mcu9t5v0__clkbuf_20
* cell instance $1149 r0 *1 1973.44,1214.64
X$1149 529 214 121 231 528 gf180mcu_fd_sc_mcu9t5v0__dffq_2
* cell instance $1151 m0 *1 1977.92,1194.48
X$1151 529 149 121 169 528 gf180mcu_fd_sc_mcu9t5v0__dffq_2
* cell instance $1153 r0 *1 1953.28,1224.72
X$1153 121 529 528 gf180mcu_fd_sc_mcu9t5v0__clkbuf_1
* cell instance $1158 m0 *1 2016.56,1174.32
X$1158 529 126 123 124 528 gf180mcu_fd_sc_mcu9t5v0__dffq_2
* cell instance $1161 m0 *1 2037.28,1174.32
X$1161 529 130 123 128 528 gf180mcu_fd_sc_mcu9t5v0__dffq_2
* cell instance $1164 r0 *1 2013.2,1224.72
X$1164 529 204 123 528 gf180mcu_fd_sc_mcu9t5v0__clkbuf_20
* cell instance $1166 m0 *1 2038.4,1224.72
X$1166 529 237 123 280 528 gf180mcu_fd_sc_mcu9t5v0__dffq_2
* cell instance $1168 r0 *1 1996.4,1224.72
X$1168 529 235 123 282 528 gf180mcu_fd_sc_mcu9t5v0__dffq_2
* cell instance $1171 r0 *1 2014.88,1174.32
X$1171 529 125 123 147 528 gf180mcu_fd_sc_mcu9t5v0__dffq_2
* cell instance $1173 m0 *1 2026.64,1204.56
X$1173 529 151 123 208 528 gf180mcu_fd_sc_mcu9t5v0__dffq_2
* cell instance $1176 r0 *1 2009.28,1194.48
X$1176 529 175 123 185 528 gf180mcu_fd_sc_mcu9t5v0__dffq_2
* cell instance $1178 m0 *1 2001.44,1224.72
X$1178 529 215 123 255 528 gf180mcu_fd_sc_mcu9t5v0__dffq_2
* cell instance $1180 r0 *1 2017.68,1214.64
X$1180 529 528 123 gf180mcu_fd_sc_mcu9t5v0__clkinv_3
* cell instance $1182 m0 *1 2000.32,1194.48
X$1182 529 150 123 173 528 gf180mcu_fd_sc_mcu9t5v0__dffq_2
* cell instance $1185 r0 *1 2060.8,1204.56
X$1185 529 196 123 217 528 gf180mcu_fd_sc_mcu9t5v0__dffq_2
* cell instance $1213 m0 *1 2042.88,1184.4
X$1213 529 528 128 152 144 130 gf180mcu_fd_sc_mcu9t5v0__mux2_2
* cell instance $1223 m0 *1 2019.92,1295.28
X$1223 529 528 154 129 gf180mcu_fd_sc_mcu9t5v0__buf_4
* cell instance $1229 r0 *1 2036.16,1234.8
X$1229 529 236 129 285 237 230 266 284 528 gf180mcu_fd_sc_mcu9t5v0__mux4_2
* cell instance $1231 r0 *1 1990.24,1214.64
X$1231 529 256 129 215 234 230 214 235 528 gf180mcu_fd_sc_mcu9t5v0__mux4_2
* cell instance $1250 m0 *1 2058.56,1194.48
X$1250 529 528 155 131 174 gf180mcu_fd_sc_mcu9t5v0__nor2_4
* cell instance $1252 m0 *1 2051.84,1204.56
X$1252 529 528 176 131 212 gf180mcu_fd_sc_mcu9t5v0__nor2_4
* cell instance $1257 r0 *1 2058,1194.48
X$1257 529 528 178 131 190 gf180mcu_fd_sc_mcu9t5v0__nor2_4
* cell instance $1267 m0 *1 2209.76,1194.48
X$1267 181 529 528 136 157 530 gf180mcu_fd_sc_mcu9t5v0__addh_1
* cell instance $1278 r0 *1 2227.12,1164.24
X$1278 529 528 137 140 gf180mcu_fd_sc_mcu9t5v0__clkinv_2
* cell instance $1290 r0 *1 2231.6,1164.24
X$1290 140 528 529 139 gf180mcu_fd_sc_mcu9t5v0__dlyb_2
* cell instance $1301 m0 *1 2094.4,1315.44
X$1301 529 433 198 434 432 142 431 441 528 gf180mcu_fd_sc_mcu9t5v0__mux4_2
* cell instance $1303 r0 *1 2106.72,1305.36
X$1303 529 142 230 528 gf180mcu_fd_sc_mcu9t5v0__buf_8
* cell instance $1305 m0 *1 2106.72,1305.36
X$1305 529 142 287 528 gf180mcu_fd_sc_mcu9t5v0__buf_8
* cell instance $1307 m0 *1 2105.04,1285.2
X$1307 529 395 198 366 383 142 385 346 528 gf180mcu_fd_sc_mcu9t5v0__mux4_2
* cell instance $1309 m0 *1 2082.08,1234.8
X$1309 529 229 198 271 268 142 267 239 528 gf180mcu_fd_sc_mcu9t5v0__mux4_2
* cell instance $1311 r0 *1 2075.36,1265.04
X$1311 529 347 198 340 337 142 338 309 528 gf180mcu_fd_sc_mcu9t5v0__mux4_2
* cell instance $1313 m0 *1 2082.64,1204.56
X$1313 529 197 198 201 196 142 195 199 528 gf180mcu_fd_sc_mcu9t5v0__mux4_2
* cell instance $1331 m0 *1 2016.56,1265.04
X$1331 529 528 351 301 144 308 gf180mcu_fd_sc_mcu9t5v0__mux2_2
* cell instance $1338 m0 *1 2035.04,1285.2
X$1338 529 528 363 356 144 364 gf180mcu_fd_sc_mcu9t5v0__mux2_2
* cell instance $1351 r0 *1 2040.64,1345.68
X$1351 529 528 492 422 144 494 gf180mcu_fd_sc_mcu9t5v0__mux2_2
* cell instance $1353 r0 *1 2010.96,1184.4
X$1353 529 528 173 168 144 150 gf180mcu_fd_sc_mcu9t5v0__mux2_2
* cell instance $1355 r0 *1 2009.28,1214.64
X$1355 529 528 255 211 144 215 gf180mcu_fd_sc_mcu9t5v0__mux2_2
* cell instance $1357 r0 *1 2059.12,1335.6
X$1357 529 528 475 370 144 498 gf180mcu_fd_sc_mcu9t5v0__mux2_2
* cell instance $1360 m0 *1 1998.08,1335.6
X$1360 529 528 473 430 144 474 gf180mcu_fd_sc_mcu9t5v0__mux2_2
* cell instance $1390 m0 *1 1965.6,1224.72
X$1390 529 528 258 213 148 234 gf180mcu_fd_sc_mcu9t5v0__mux2_2
* cell instance $1394 r0 *1 2012.08,1355.76
X$1394 529 528 512 418 148 513 gf180mcu_fd_sc_mcu9t5v0__mux2_2
* cell instance $1399 r0 *1 1974,1345.68
X$1399 529 528 510 414 148 487 gf180mcu_fd_sc_mcu9t5v0__mux2_2
* cell instance $1401 r0 *1 2049.6,1355.76
X$1401 529 528 514 426 148 495 gf180mcu_fd_sc_mcu9t5v0__mux2_2
* cell instance $1417 r0 *1 2034.48,1194.48
X$1417 529 528 208 152 174 151 gf180mcu_fd_sc_mcu9t5v0__mux2_2
* cell instance $1441 m0 *1 2146.48,1214.64
X$1441 529 528 220 152 221 244 gf180mcu_fd_sc_mcu9t5v0__mux2_2
* cell instance $1443 m0 *1 2143.68,1224.72
X$1443 529 528 243 152 205 245 gf180mcu_fd_sc_mcu9t5v0__mux2_2
* cell instance $1445 m0 *1 2112.88,1244.88
X$1445 529 528 294 152 238 286 gf180mcu_fd_sc_mcu9t5v0__mux2_2
* cell instance $1447 r0 *1 2116.8,1254.96
X$1447 529 528 324 152 203 288 gf180mcu_fd_sc_mcu9t5v0__mux2_2
* cell instance $1452 r0 *1 2052.96,1244.88