* CDL Netlist generated by OpenROAD

*.BUSDELIMITER [

.SUBCKT multi_ported_fifo almost_empty almost_full clk data_count[0]
+ data_count[1] data_count[2] data_count[3] data_count[4] empty
+ full rd_data[0] rd_data[10] rd_data[11] rd_data[12] rd_data[13]
+ rd_data[14] rd_data[15] rd_data[16] rd_data[17] rd_data[18]
+ rd_data[19] rd_data[1] rd_data[20] rd_data[21] rd_data[22]
+ rd_data[23] rd_data[24] rd_data[25] rd_data[26] rd_data[27]
+ rd_data[28] rd_data[29] rd_data[2] rd_data[30] rd_data[31]
+ rd_data[32] rd_data[33] rd_data[34] rd_data[35] rd_data[36]
+ rd_data[37] rd_data[38] rd_data[39] rd_data[3] rd_data[40]
+ rd_data[41] rd_data[42] rd_data[43] rd_data[44] rd_data[45]
+ rd_data[46] rd_data[47] rd_data[48] rd_data[49] rd_data[4]
+ rd_data[50] rd_data[51] rd_data[52] rd_data[53] rd_data[54]
+ rd_data[55] rd_data[56] rd_data[57] rd_data[58] rd_data[59]
+ rd_data[5] rd_data[60] rd_data[61] rd_data[62] rd_data[63]
+ rd_data[6] rd_data[7] rd_data[8] rd_data[9] rd_en[0] rd_en[1]
+ rd_valid[0] rd_valid[1] rst_n wr_data[0] wr_data[10] wr_data[11]
+ wr_data[12] wr_data[13] wr_data[14] wr_data[15] wr_data[16]
+ wr_data[17] wr_data[18] wr_data[19] wr_data[1] wr_data[20]
+ wr_data[21] wr_data[22] wr_data[23] wr_data[24] wr_data[25]
+ wr_data[26] wr_data[27] wr_data[28] wr_data[29] wr_data[2]
+ wr_data[30] wr_data[31] wr_data[32] wr_data[33] wr_data[34]
+ wr_data[35] wr_data[36] wr_data[37] wr_data[38] wr_data[39]
+ wr_data[3] wr_data[40] wr_data[41] wr_data[42] wr_data[43]
+ wr_data[44] wr_data[45] wr_data[46] wr_data[47] wr_data[48]
+ wr_data[49] wr_data[4] wr_data[50] wr_data[51] wr_data[52]
+ wr_data[53] wr_data[54] wr_data[55] wr_data[56] wr_data[57]
+ wr_data[58] wr_data[59] wr_data[5] wr_data[60] wr_data[61]
+ wr_data[62] wr_data[63] wr_data[6] wr_data[7] wr_data[8] wr_data[9]
+ wr_en[0] wr_en[1] wr_ready[0] wr_ready[1]
X_2568_ _2512_ VSS VSS VDD VDD net77 sky130_fd_sc_hd__inv_1
X_2569_ net71 VSS VSS VDD VDD _0607_ sky130_fd_sc_hd__buf_6
X_2570_ _0607_ VSS VSS VDD VDD _2514_ sky130_fd_sc_hd__inv_1
X_2571_ net67 _2512_ VSS VSS VDD VDD _0608_ sky130_fd_sc_hd__nand2_2
X_2572_ net72 VSS VSS VDD VDD _0609_ sky130_fd_sc_hd__clkbuf_4
X_2573_ _0609_ _0607_ net73 _2548_ VSS VSS VDD VDD _0610_
+ sky130_fd_sc_hd__nor4_1
X_2574_ net75 VSS VSS VDD VDD _2510_ sky130_fd_sc_hd__clkinv_4
X_2575_ _2561_ _0610_ _2510_ VSS VSS VDD VDD _0611_ sky130_fd_sc_hd__a21oi_2
X_2576_ _0608_ _0611_ VSS VSS VDD VDD _0612_ sky130_fd_sc_hd__nor2_1
X_2577_ _0612_ VSS VSS VDD VDD _2526_ sky130_fd_sc_hd__inv_2
X_2578_ wr_ptr\[1\] VSS VSS VDD VDD _0613_ sky130_fd_sc_hd__buf_2
X_2579_ _0613_ VSS VSS VDD VDD _2501_ sky130_fd_sc_hd__inv_1
X_2580_ net67 _2512_ VSS VSS VDD VDD _0614_ sky130_fd_sc_hd__and2_0
X_2581_ _0614_ VSS VSS VDD VDD _0615_ sky130_fd_sc_hd__clkbuf_2
X_2582_ net168 _2552_ VSS VSS VDD VDD _0616_ sky130_fd_sc_hd__nand2b_1
X_2583_ net73 _2565_ VSS VSS VDD VDD _0617_ sky130_fd_sc_hd__nand2_1
X_2584_ _0609_ _0607_ VSS VSS VDD VDD _0618_ sky130_fd_sc_hd__nand2_1
X_2585_ _0616_ _0617_ _0618_ VSS VSS VDD VDD _0619_ sky130_fd_sc_hd__a21oi_2
X_2586_ _2510_ net68 _2512_ VSS VSS VDD VDD _0620_ sky130_fd_sc_hd__nand3_1
X_2587_ _0615_ _0619_ _0620_ VSS VSS VDD VDD _2519_ sky130_fd_sc_hd__a21oi_1
X_2588_ _2519_ VSS VSS VDD VDD _2525_ sky130_fd_sc_hd__inv_1
X_2589_ wr_ptr\[3\] VSS VSS VDD VDD _0621_ sky130_fd_sc_hd__clkbuf_4
X_2590_ wr_ptr\[2\] VSS VSS VDD VDD _0622_ sky130_fd_sc_hd__clkbuf_4
X_2591_ _0621_ _0622_ VSS VSS VDD VDD _0623_ sky130_fd_sc_hd__or2_4
X_2592_ _0612_ VSS VSS VDD VDD _2520_ sky130_fd_sc_hd__clkbuf_8
X_2593_ _2504_ _2520_ VSS VSS VDD VDD _0624_ sky130_fd_sc_hd__nand2_4
X_2594_ _2510_ net68 _2512_ VSS VSS VDD VDD _0625_ sky130_fd_sc_hd__and3_1
X_2595_ _0625_ VSS VSS VDD VDD _0626_ sky130_fd_sc_hd__clkbuf_2
X_2596_ _0621_ wr_ptr\[0\] _0615_ VSS VSS VDD VDD _0627_ sky130_fd_sc_hd__nor3_1
X_2597_ wr_ptr\[2\] _0613_ VSS VSS VDD VDD _0628_ sky130_fd_sc_hd__nand2_1
X_2598_ _0621_ wr_ptr\[0\] VSS VSS VDD VDD _0629_ sky130_fd_sc_hd__nand2_1
X_2599_ _0608_ _0619_ _0628_ _0629_ VSS VSS VDD VDD _0630_
+ sky130_fd_sc_hd__nor4_1
X_2600_ wr_ptr\[3\] wr_ptr\[0\] VSS VSS VDD VDD _0631_ sky130_fd_sc_hd__nor2b_1
X_2601_ _0628_ _0631_ VSS VSS VDD VDD _0632_ sky130_fd_sc_hd__nand2_1
X_2602_ _0608_ _0619_ _0632_ VSS VSS VDD VDD _0633_ sky130_fd_sc_hd__nor3_1
X_2603_ _0627_ _0630_ _0633_ VSS VSS VDD VDD _0634_ sky130_fd_sc_hd__or3_1
X_2604_ wr_ptr\[2\] _2508_ VSS VSS VDD VDD _0635_ sky130_fd_sc_hd__nand2b_1
X_2605_ _2508_ wr_ptr\[2\] VSS VSS VDD VDD _0636_ sky130_fd_sc_hd__nand2b_1
X_2606_ _2503_ _0635_ _0636_ VSS VSS VDD VDD _0637_ sky130_fd_sc_hd__nand3_1
X_2607_ _0622_ _0613_ VSS VSS VDD VDD _0638_ sky130_fd_sc_hd__nand2b_1
X_2608_ _0637_ _0638_ _2526_ VSS VSS VDD VDD _0639_ sky130_fd_sc_hd__mux2i_1
X_2609_ _0626_ _0634_ _0639_ VSS VSS VDD VDD _0640_ sky130_fd_sc_hd__and3_1
X_2610_ _0640_ VSS VSS VDD VDD _0641_ sky130_fd_sc_hd__buf_4
X_2611_ _0641_ VSS VSS VDD VDD _0642_ sky130_fd_sc_hd__buf_6
X_2612_ _0623_ _0624_ _0642_ VSS VSS VDD VDD _0007_ sky130_fd_sc_hd__o21bai_4
X_2613_ wr_ptr\[0\] _0608_ VSS VSS VDD VDD _0643_ sky130_fd_sc_hd__nand2_1
X_2614_ wr_ptr\[0\] VSS VSS VDD VDD _2500_ sky130_fd_sc_hd__inv_1
X_2615_ _0616_ _0617_ _0618_ VSS VSS VDD VDD _0644_ sky130_fd_sc_hd__a21o_1
X_2616_ _2500_ _0615_ _0644_ VSS VSS VDD VDD _0645_ sky130_fd_sc_hd__nand3_2
X_2617_ _0643_ _0645_ _0621_ _0620_ VSS VSS VDD VDD _0646_
+ sky130_fd_sc_hd__a211o_4
X_2618_ wr_ptr\[2\] _2508_ VSS VSS VDD VDD _0647_ sky130_fd_sc_hd__nor2_1
X_2619_ wr_ptr\[2\] _2508_ VSS VSS VDD VDD _0648_ sky130_fd_sc_hd__and2_0
X_2620_ _2503_ VSS VSS VDD VDD _0649_ sky130_fd_sc_hd__inv_1
X_2621_ _2561_ _0610_ _2510_ VSS VSS VDD VDD _0650_ sky130_fd_sc_hd__a21o_1
X_2622_ _0647_ _0648_ _0649_ _0615_ _0650_ VSS VSS VDD VDD
+ _0651_ sky130_fd_sc_hd__o2111ai_2
X_2623_ _0622_ _0613_ _2520_ _0651_ VSS VSS VDD VDD _0652_
+ sky130_fd_sc_hd__o31a_2
X_2624_ _2506_ _2520_ VSS VSS VDD VDD _0653_ sky130_fd_sc_hd__nand2_4
X_2625_ _0646_ _0652_ _0653_ _0623_ VSS VSS VDD VDD _0008_
+ sky130_fd_sc_hd__o22ai_4
X_2626_ _2508_ _2520_ VSS VSS VDD VDD _0654_ sky130_fd_sc_hd__nand2_4
X_2627_ _0621_ _0622_ VSS VSS VDD VDD _0655_ sky130_fd_sc_hd__nand2_4
X_2628_ _0621_ _0626_ VSS VSS VDD VDD _0656_ sky130_fd_sc_hd__nand2_1
X_2629_ _0643_ _0645_ _0656_ VSS VSS VDD VDD _0657_ sky130_fd_sc_hd__a21oi_4
X_2630_ _0649_ _0635_ VSS VSS VDD VDD _0658_ sky130_fd_sc_hd__nor2_1
X_2631_ _0649_ _0636_ VSS VSS VDD VDD _0659_ sky130_fd_sc_hd__nor2_1
X_2632_ _0658_ _0659_ _0615_ _0650_ VSS VSS VDD VDD _0660_
+ sky130_fd_sc_hd__o211ai_2
X_2633_ _2520_ _0628_ _0660_ VSS VSS VDD VDD _0661_ sky130_fd_sc_hd__o21ai_4
X_2634_ _0657_ _0661_ VSS VSS VDD VDD _0662_ sky130_fd_sc_hd__nand2_8
X_2635_ _0662_ VSS VSS VDD VDD _0663_ sky130_fd_sc_hd__buf_6
X_2636_ _0654_ _0655_ _0663_ VSS VSS VDD VDD _0009_ sky130_fd_sc_hd__o21ai_4
X_2637_ _0621_ _2500_ _0608_ VSS VSS VDD VDD _0664_ sky130_fd_sc_hd__nand3_1
X_2638_ wr_ptr\[2\] wr_ptr\[1\] VSS VSS VDD VDD _0665_ sky130_fd_sc_hd__and2_0
X_2639_ _0615_ _0644_ _0665_ _0631_ VSS VSS VDD VDD _0666_
+ sky130_fd_sc_hd__nand4_1
X_2640_ _0608_ _0619_ _0665_ _0629_ VSS VSS VDD VDD _0667_
+ sky130_fd_sc_hd__or4_1
X_2641_ _0664_ _0666_ _0667_ VSS VSS VDD VDD _0668_ sky130_fd_sc_hd__nand3_1
X_2642_ _0626_ _0661_ _0668_ VSS VSS VDD VDD _0669_ sky130_fd_sc_hd__and3_1
X_2643_ _0669_ VSS VSS VDD VDD _0670_ sky130_fd_sc_hd__buf_6
X_2644_ _0670_ VSS VSS VDD VDD _0671_ sky130_fd_sc_hd__buf_6
X_2645_ _0624_ _0655_ _0671_ VSS VSS VDD VDD _0010_ sky130_fd_sc_hd__o21bai_4
X_2646_ _0622_ _2501_ VSS VSS VDD VDD _0672_ sky130_fd_sc_hd__nand2_1
X_2647_ _0635_ _0636_ _2503_ _0608_ _0611_ VSS VSS VDD VDD
+ _0673_ sky130_fd_sc_hd__a2111o_1
X_2648_ _2520_ _0672_ _0673_ VSS VSS VDD VDD _0674_ sky130_fd_sc_hd__o21ai_1
X_2649_ _0657_ _0674_ VSS VSS VDD VDD _0675_ sky130_fd_sc_hd__and2_0
X_2650_ _0675_ VSS VSS VDD VDD _0676_ sky130_fd_sc_hd__buf_6
X_2651_ _0676_ VSS VSS VDD VDD _0677_ sky130_fd_sc_hd__buf_6
X_2652_ _0653_ _0655_ _0677_ VSS VSS VDD VDD _0011_ sky130_fd_sc_hd__o21bai_4
X_2653_ _2502_ _2520_ VSS VSS VDD VDD _0678_ sky130_fd_sc_hd__nand2_4
X_2654_ _0626_ _0668_ _0674_ VSS VSS VDD VDD _0679_ sky130_fd_sc_hd__and3_1
X_2655_ _0679_ VSS VSS VDD VDD _0680_ sky130_fd_sc_hd__buf_6
X_2656_ _0680_ VSS VSS VDD VDD _0681_ sky130_fd_sc_hd__buf_6
X_2657_ _0655_ _0678_ _0681_ VSS VSS VDD VDD _0012_ sky130_fd_sc_hd__o21bai_4
X_2658_ _0622_ _0621_ VSS VSS VDD VDD _0682_ sky130_fd_sc_hd__nand2b_4
X_2659_ _0626_ _0639_ _0668_ VSS VSS VDD VDD _0683_ sky130_fd_sc_hd__and3_1
X_2660_ _0683_ VSS VSS VDD VDD _0684_ sky130_fd_sc_hd__buf_6
X_2661_ _0684_ VSS VSS VDD VDD _0685_ sky130_fd_sc_hd__buf_6
X_2662_ _0624_ _0682_ _0685_ VSS VSS VDD VDD _0014_ sky130_fd_sc_hd__o21bai_4
X_2663_ _0621_ _0622_ VSS VSS VDD VDD _0686_ sky130_fd_sc_hd__nand2b_4
X_2664_ _0646_ _0661_ VSS VSS VDD VDD _0687_ sky130_fd_sc_hd__nor2b_1
X_2665_ _0687_ VSS VSS VDD VDD _0688_ sky130_fd_sc_hd__buf_4
X_2666_ _0688_ VSS VSS VDD VDD _0689_ sky130_fd_sc_hd__buf_6
X_2667_ _0654_ _0686_ _0689_ VSS VSS VDD VDD _0002_ sky130_fd_sc_hd__o21bai_4
X_2668_ _0639_ _0657_ VSS VSS VDD VDD _0690_ sky130_fd_sc_hd__and2_0
X_2669_ _0690_ VSS VSS VDD VDD _0691_ sky130_fd_sc_hd__buf_6
X_2670_ _0691_ VSS VSS VDD VDD _0692_ sky130_fd_sc_hd__buf_6
X_2671_ _0654_ _0682_ _0692_ VSS VSS VDD VDD _0013_ sky130_fd_sc_hd__o21bai_4
X_2672_ _0622_ _0613_ _2520_ _0651_ VSS VSS VDD VDD _0693_
+ sky130_fd_sc_hd__o31ai_1
X_2673_ _0626_ _0634_ _0693_ VSS VSS VDD VDD _0694_ sky130_fd_sc_hd__and3_1
X_2674_ _0694_ VSS VSS VDD VDD _0695_ sky130_fd_sc_hd__buf_4
X_2675_ _0695_ VSS VSS VDD VDD _0696_ sky130_fd_sc_hd__buf_6
X_2676_ _0623_ _0678_ _0696_ VSS VSS VDD VDD _0015_ sky130_fd_sc_hd__o21bai_4
X_2677_ _0626_ _0634_ _0661_ VSS VSS VDD VDD _0697_ sky130_fd_sc_hd__and3_1
X_2678_ _0697_ VSS VSS VDD VDD _0698_ sky130_fd_sc_hd__buf_4
X_2679_ _0698_ VSS VSS VDD VDD _0699_ sky130_fd_sc_hd__buf_6
X_2680_ _0624_ _0686_ _0699_ VSS VSS VDD VDD _0003_ sky130_fd_sc_hd__o21bai_4
X_2681_ _2520_ _0672_ _0673_ VSS VSS VDD VDD _0700_ sky130_fd_sc_hd__o21a_1
X_2682_ _0646_ _0700_ _0686_ _0653_ VSS VSS VDD VDD _0004_
+ sky130_fd_sc_hd__o22ai_4
X_2683_ _0626_ _0634_ _0674_ VSS VSS VDD VDD _0701_ sky130_fd_sc_hd__and3_1
X_2684_ _0701_ VSS VSS VDD VDD _0702_ sky130_fd_sc_hd__buf_4
X_2685_ _0702_ VSS VSS VDD VDD _0703_ sky130_fd_sc_hd__buf_6
X_2686_ _0678_ _0686_ _0703_ VSS VSS VDD VDD _0005_ sky130_fd_sc_hd__o21bai_4
X_2687_ _0637_ _0638_ _2526_ VSS VSS VDD VDD _0704_ sky130_fd_sc_hd__mux2_2
X_2688_ _0704_ _0646_ _0654_ _0623_ VSS VSS VDD VDD _0006_
+ sky130_fd_sc_hd__o22ai_4
X_2689_ _0626_ _0693_ _0668_ VSS VSS VDD VDD _0705_ sky130_fd_sc_hd__and3_1
X_2690_ _0705_ VSS VSS VDD VDD _0706_ sky130_fd_sc_hd__buf_4
X_2691_ _0706_ VSS VSS VDD VDD _0707_ sky130_fd_sc_hd__buf_6
X_2692_ _0678_ _0682_ _0707_ VSS VSS VDD VDD _0001_ sky130_fd_sc_hd__o21bai_4
X_2693_ _0693_ _0657_ VSS VSS VDD VDD _0708_ sky130_fd_sc_hd__and2_0
X_2694_ _0708_ VSS VSS VDD VDD _0709_ sky130_fd_sc_hd__buf_6
X_2695_ _0709_ VSS VSS VDD VDD _0710_ sky130_fd_sc_hd__buf_6
X_2696_ _0653_ _0682_ _0710_ VSS VSS VDD VDD _0000_ sky130_fd_sc_hd__o21bai_4
X_2697_ rd_en[0] VSS VSS VDD VDD _0711_ sky130_fd_sc_hd__clkbuf_4
X_2698_ net72 _0607_ net73 _2557_ VSS VSS VDD VDD _0712_ sky130_fd_sc_hd__or4b_4
Xrebuffer4 net219 VSS VSS VDD VDD net166 sky130_fd_sc_hd__dlygate4sd1_1
X_2700_ _0711_ _0712_ VSS VSS VDD VDD _0714_ sky130_fd_sc_hd__nand2_8
X_2701_ _0714_ VSS VSS VDD VDD _0715_ sky130_fd_sc_hd__inv_2
XANTENNA_1 _0997_ VSS VSS VDD VDD sky130_fd_sc_hd__diode_2
X_2703_ _0715_ VSS VSS VDD VDD _0529_ sky130_fd_sc_hd__clkbuf_16
X_2704_ _2559_ VSS VSS VDD VDD _0717_ sky130_fd_sc_hd__inv_1
X_2705_ net72 net73 _2559_ _2515_ VSS VSS VDD VDD _0718_ sky130_fd_sc_hd__or4bb_1
X_2706_ net72 net168 _2516_ _2548_ VSS VSS VDD VDD _0719_
+ sky130_fd_sc_hd__or4bb_4
X_2707_ _0717_ _2557_ _0718_ net2 _0719_ VSS VSS VDD VDD _0720_
+ sky130_fd_sc_hd__o2111ai_4
X_2708_ _0720_ VSS VSS VDD VDD _0721_ sky130_fd_sc_hd__inv_4
X_2709_ _0721_ VSS VSS VDD VDD _2537_ sky130_fd_sc_hd__buf_6
X_2710_ rd_ptr\[1\] VSS VSS VDD VDD _0722_ sky130_fd_sc_hd__buf_6
X_2711_ _0722_ VSS VSS VDD VDD _2492_ sky130_fd_sc_hd__inv_1
X_2712_ net3 VSS VSS VDD VDD _0723_ sky130_fd_sc_hd__clkbuf_2
X_2713_ net28 VSS VSS VDD VDD _0724_ sky130_fd_sc_hd__buf_2
X_2714_ _0723_ _0724_ _0696_ VSS VSS VDD VDD _0016_ sky130_fd_sc_hd__mux2_1
X_2715_ net14 VSS VSS VDD VDD _0725_ sky130_fd_sc_hd__buf_2
X_2716_ net29 VSS VSS VDD VDD _0726_ sky130_fd_sc_hd__buf_2
X_2717_ _0725_ _0726_ _0696_ VSS VSS VDD VDD _0027_ sky130_fd_sc_hd__mux2_1
X_2718_ net25 VSS VSS VDD VDD _0727_ sky130_fd_sc_hd__buf_2
X_2719_ net30 VSS VSS VDD VDD _0728_ sky130_fd_sc_hd__buf_2
X_2720_ _0727_ _0728_ _0696_ VSS VSS VDD VDD _0038_ sky130_fd_sc_hd__mux2_1
X_2721_ net36 VSS VSS VDD VDD _0729_ sky130_fd_sc_hd__clkbuf_2
X_2722_ net31 VSS VSS VDD VDD _0730_ sky130_fd_sc_hd__buf_2
X_2723_ _0729_ _0730_ _0696_ VSS VSS VDD VDD _0041_ sky130_fd_sc_hd__mux2_1
X_2724_ net47 VSS VSS VDD VDD _0731_ sky130_fd_sc_hd__buf_2
X_2725_ net32 VSS VSS VDD VDD _0732_ sky130_fd_sc_hd__buf_2
X_2726_ _0731_ _0732_ _0696_ VSS VSS VDD VDD _0042_ sky130_fd_sc_hd__mux2_1
X_2727_ net58 VSS VSS VDD VDD _0733_ sky130_fd_sc_hd__buf_2
X_2728_ net33 VSS VSS VDD VDD _0734_ sky130_fd_sc_hd__buf_2
X_2729_ _0733_ _0734_ _0696_ VSS VSS VDD VDD _0043_ sky130_fd_sc_hd__mux2_1
X_2730_ net63 VSS VSS VDD VDD _0735_ sky130_fd_sc_hd__clkbuf_2
X_2731_ net34 VSS VSS VDD VDD _0736_ sky130_fd_sc_hd__buf_2
X_2732_ _0735_ _0736_ _0696_ VSS VSS VDD VDD _0044_ sky130_fd_sc_hd__mux2_1
X_2733_ net64 VSS VSS VDD VDD _0737_ sky130_fd_sc_hd__clkbuf_2
X_2734_ net35 VSS VSS VDD VDD _0738_ sky130_fd_sc_hd__clkbuf_2
X_2735_ _0737_ _0738_ _0696_ VSS VSS VDD VDD _0045_ sky130_fd_sc_hd__mux2_1
X_2736_ net65 VSS VSS VDD VDD _0739_ sky130_fd_sc_hd__clkbuf_2
X_2737_ net37 VSS VSS VDD VDD _0740_ sky130_fd_sc_hd__buf_2
X_2738_ _0739_ _0740_ _0696_ VSS VSS VDD VDD _0046_ sky130_fd_sc_hd__mux2_1
X_2739_ net66 VSS VSS VDD VDD _0741_ sky130_fd_sc_hd__buf_2
X_2740_ net38 VSS VSS VDD VDD _0742_ sky130_fd_sc_hd__buf_2
X_2741_ _0695_ VSS VSS VDD VDD _0743_ sky130_fd_sc_hd__buf_6
X_2742_ _0741_ _0742_ _0743_ VSS VSS VDD VDD _0047_ sky130_fd_sc_hd__mux2_1
X_2743_ net4 VSS VSS VDD VDD _0744_ sky130_fd_sc_hd__clkbuf_2
X_2744_ net39 VSS VSS VDD VDD _0745_ sky130_fd_sc_hd__buf_2
X_2745_ _0744_ _0745_ _0743_ VSS VSS VDD VDD _0017_ sky130_fd_sc_hd__mux2_1
X_2746_ net5 VSS VSS VDD VDD _0746_ sky130_fd_sc_hd__buf_2
X_2747_ net40 VSS VSS VDD VDD _0747_ sky130_fd_sc_hd__buf_2
X_2748_ _0746_ _0747_ _0743_ VSS VSS VDD VDD _0018_ sky130_fd_sc_hd__mux2_1
X_2749_ net6 VSS VSS VDD VDD _0748_ sky130_fd_sc_hd__buf_2
X_2750_ net41 VSS VSS VDD VDD _0749_ sky130_fd_sc_hd__buf_2
X_2751_ _0748_ _0749_ _0743_ VSS VSS VDD VDD _0019_ sky130_fd_sc_hd__mux2_1
X_2752_ net7 VSS VSS VDD VDD _0750_ sky130_fd_sc_hd__buf_2
X_2753_ net42 VSS VSS VDD VDD _0751_ sky130_fd_sc_hd__buf_2
X_2754_ _0750_ _0751_ _0743_ VSS VSS VDD VDD _0020_ sky130_fd_sc_hd__mux2_1
X_2755_ net8 VSS VSS VDD VDD _0752_ sky130_fd_sc_hd__buf_2
X_2756_ net43 VSS VSS VDD VDD _0753_ sky130_fd_sc_hd__buf_2
X_2757_ _0752_ _0753_ _0743_ VSS VSS VDD VDD _0021_ sky130_fd_sc_hd__mux2_1
X_2758_ net9 VSS VSS VDD VDD _0754_ sky130_fd_sc_hd__buf_2
X_2759_ net44 VSS VSS VDD VDD _0755_ sky130_fd_sc_hd__buf_2
X_2760_ _0754_ _0755_ _0743_ VSS VSS VDD VDD _0022_ sky130_fd_sc_hd__mux2_1
X_2761_ net10 VSS VSS VDD VDD _0756_ sky130_fd_sc_hd__buf_2
X_2762_ net45 VSS VSS VDD VDD _0757_ sky130_fd_sc_hd__buf_2
X_2763_ _0756_ _0757_ _0743_ VSS VSS VDD VDD _0023_ sky130_fd_sc_hd__mux2_1
X_2764_ net11 VSS VSS VDD VDD _0758_ sky130_fd_sc_hd__buf_2
X_2765_ net46 VSS VSS VDD VDD _0759_ sky130_fd_sc_hd__buf_2
X_2766_ _0758_ _0759_ _0743_ VSS VSS VDD VDD _0024_ sky130_fd_sc_hd__mux2_1
X_2767_ net12 VSS VSS VDD VDD _0760_ sky130_fd_sc_hd__clkbuf_2
X_2768_ net48 VSS VSS VDD VDD _0761_ sky130_fd_sc_hd__buf_2
X_2769_ _0760_ _0761_ _0743_ VSS VSS VDD VDD _0025_ sky130_fd_sc_hd__mux2_1
X_2770_ net13 VSS VSS VDD VDD _0762_ sky130_fd_sc_hd__buf_2
X_2771_ net49 VSS VSS VDD VDD _0763_ sky130_fd_sc_hd__buf_2
X_2772_ _0695_ VSS VSS VDD VDD _0764_ sky130_fd_sc_hd__buf_4
X_2773_ _0762_ _0763_ _0764_ VSS VSS VDD VDD _0026_ sky130_fd_sc_hd__mux2_1
X_2774_ net15 VSS VSS VDD VDD _0765_ sky130_fd_sc_hd__buf_2
X_2775_ net50 VSS VSS VDD VDD _0766_ sky130_fd_sc_hd__buf_2
X_2776_ _0765_ _0766_ _0764_ VSS VSS VDD VDD _0028_ sky130_fd_sc_hd__mux2_1
X_2777_ net16 VSS VSS VDD VDD _0767_ sky130_fd_sc_hd__buf_2
X_2778_ net51 VSS VSS VDD VDD _0768_ sky130_fd_sc_hd__buf_2
X_2779_ _0767_ _0768_ _0764_ VSS VSS VDD VDD _0029_ sky130_fd_sc_hd__mux2_1
X_2780_ net17 VSS VSS VDD VDD _0769_ sky130_fd_sc_hd__buf_2
X_2781_ net52 VSS VSS VDD VDD _0770_ sky130_fd_sc_hd__buf_2
X_2782_ _0769_ _0770_ _0764_ VSS VSS VDD VDD _0030_ sky130_fd_sc_hd__mux2_1
X_2783_ net18 VSS VSS VDD VDD _0771_ sky130_fd_sc_hd__buf_2
X_2784_ net53 VSS VSS VDD VDD _0772_ sky130_fd_sc_hd__buf_2
X_2785_ _0771_ _0772_ _0764_ VSS VSS VDD VDD _0031_ sky130_fd_sc_hd__mux2_1
X_2786_ net19 VSS VSS VDD VDD _0773_ sky130_fd_sc_hd__clkbuf_2
X_2787_ net54 VSS VSS VDD VDD _0774_ sky130_fd_sc_hd__clkbuf_2
X_2788_ _0773_ _0774_ _0764_ VSS VSS VDD VDD _0032_ sky130_fd_sc_hd__mux2_1
X_2789_ net20 VSS VSS VDD VDD _0775_ sky130_fd_sc_hd__buf_2
X_2790_ net55 VSS VSS VDD VDD _0776_ sky130_fd_sc_hd__clkbuf_4
X_2791_ _0775_ _0776_ _0764_ VSS VSS VDD VDD _0033_ sky130_fd_sc_hd__mux2_1
X_2792_ net21 VSS VSS VDD VDD _0777_ sky130_fd_sc_hd__buf_2
X_2793_ net56 VSS VSS VDD VDD _0778_ sky130_fd_sc_hd__buf_2
X_2794_ _0777_ _0778_ _0764_ VSS VSS VDD VDD _0034_ sky130_fd_sc_hd__mux2_1
X_2795_ net22 VSS VSS VDD VDD _0779_ sky130_fd_sc_hd__buf_2
X_2796_ net57 VSS VSS VDD VDD _0780_ sky130_fd_sc_hd__buf_2
X_2797_ _0779_ _0780_ _0764_ VSS VSS VDD VDD _0035_ sky130_fd_sc_hd__mux2_1
X_2798_ net23 VSS VSS VDD VDD _0781_ sky130_fd_sc_hd__buf_2
X_2799_ net59 VSS VSS VDD VDD _0782_ sky130_fd_sc_hd__buf_2
X_2800_ _0781_ _0782_ _0764_ VSS VSS VDD VDD _0036_ sky130_fd_sc_hd__mux2_1
X_2801_ net24 VSS VSS VDD VDD _0783_ sky130_fd_sc_hd__buf_2
X_2802_ net60 VSS VSS VDD VDD _0784_ sky130_fd_sc_hd__buf_2
X_2803_ _0783_ _0784_ _0695_ VSS VSS VDD VDD _0037_ sky130_fd_sc_hd__mux2_1
X_2804_ net26 VSS VSS VDD VDD _0785_ sky130_fd_sc_hd__buf_2
X_2805_ net61 VSS VSS VDD VDD _0786_ sky130_fd_sc_hd__buf_2
X_2806_ _0785_ _0786_ _0695_ VSS VSS VDD VDD _0039_ sky130_fd_sc_hd__mux2_1
X_2807_ net27 VSS VSS VDD VDD _0787_ sky130_fd_sc_hd__buf_2
X_2808_ net62 VSS VSS VDD VDD _0788_ sky130_fd_sc_hd__buf_2
X_2809_ _0787_ _0788_ _0695_ VSS VSS VDD VDD _0040_ sky130_fd_sc_hd__mux2_1
X_2810_ _0646_ _0652_ VSS VSS VDD VDD _0789_ sky130_fd_sc_hd__nor2_4
X_2811_ _0789_ VSS VSS VDD VDD _0790_ sky130_fd_sc_hd__buf_6
X_2812_ _0723_ _0724_ _0790_ VSS VSS VDD VDD _0240_ sky130_fd_sc_hd__mux2_1
X_2813_ _0725_ _0726_ _0790_ VSS VSS VDD VDD _0251_ sky130_fd_sc_hd__mux2_1
X_2814_ _0727_ _0728_ _0790_ VSS VSS VDD VDD _0262_ sky130_fd_sc_hd__mux2_1
X_2815_ _0729_ _0730_ _0790_ VSS VSS VDD VDD _0265_ sky130_fd_sc_hd__mux2_1
X_2816_ _0731_ _0732_ _0790_ VSS VSS VDD VDD _0266_ sky130_fd_sc_hd__mux2_1
X_2817_ _0733_ _0734_ _0790_ VSS VSS VDD VDD _0267_ sky130_fd_sc_hd__mux2_1
X_2818_ _0735_ _0736_ _0790_ VSS VSS VDD VDD _0268_ sky130_fd_sc_hd__mux2_1
X_2819_ _0737_ _0738_ _0790_ VSS VSS VDD VDD _0269_ sky130_fd_sc_hd__mux2_1
X_2820_ _0739_ _0740_ _0790_ VSS VSS VDD VDD _0270_ sky130_fd_sc_hd__mux2_1
X_2821_ _0741_ _0742_ _0790_ VSS VSS VDD VDD _0271_ sky130_fd_sc_hd__mux2_1
X_2822_ _0789_ VSS VSS VDD VDD _0791_ sky130_fd_sc_hd__buf_6
X_2823_ _0744_ _0745_ _0791_ VSS VSS VDD VDD _0241_ sky130_fd_sc_hd__mux2_1
X_2824_ _0746_ _0747_ _0791_ VSS VSS VDD VDD _0242_ sky130_fd_sc_hd__mux2_1
X_2825_ _0748_ _0749_ _0791_ VSS VSS VDD VDD _0243_ sky130_fd_sc_hd__mux2_1
X_2826_ _0750_ _0751_ _0791_ VSS VSS VDD VDD _0244_ sky130_fd_sc_hd__mux2_1
X_2827_ _0752_ _0753_ _0791_ VSS VSS VDD VDD _0245_ sky130_fd_sc_hd__mux2_1
X_2828_ _0754_ _0755_ _0791_ VSS VSS VDD VDD _0246_ sky130_fd_sc_hd__mux2_1
X_2829_ _0756_ _0757_ _0791_ VSS VSS VDD VDD _0247_ sky130_fd_sc_hd__mux2_1
X_2830_ _0758_ _0759_ _0791_ VSS VSS VDD VDD _0248_ sky130_fd_sc_hd__mux2_1
X_2831_ _0760_ _0761_ _0791_ VSS VSS VDD VDD _0249_ sky130_fd_sc_hd__mux2_1
X_2832_ _0762_ _0763_ _0791_ VSS VSS VDD VDD _0250_ sky130_fd_sc_hd__mux2_1
X_2833_ _0789_ VSS VSS VDD VDD _0792_ sky130_fd_sc_hd__buf_6
X_2834_ _0765_ _0766_ _0792_ VSS VSS VDD VDD _0252_ sky130_fd_sc_hd__mux2_1
X_2835_ _0767_ _0768_ _0792_ VSS VSS VDD VDD _0253_ sky130_fd_sc_hd__mux2_1
X_2836_ _0769_ _0770_ _0792_ VSS VSS VDD VDD _0254_ sky130_fd_sc_hd__mux2_1
X_2837_ _0771_ _0772_ _0792_ VSS VSS VDD VDD _0255_ sky130_fd_sc_hd__mux2_1
X_2838_ _0773_ _0774_ _0792_ VSS VSS VDD VDD _0256_ sky130_fd_sc_hd__mux2_1
X_2839_ _0775_ _0776_ _0792_ VSS VSS VDD VDD _0257_ sky130_fd_sc_hd__mux2_1
X_2840_ _0777_ _0778_ _0792_ VSS VSS VDD VDD _0258_ sky130_fd_sc_hd__mux2_1
X_2841_ _0779_ _0780_ _0792_ VSS VSS VDD VDD _0259_ sky130_fd_sc_hd__mux2_1
X_2842_ _0781_ _0782_ _0792_ VSS VSS VDD VDD _0260_ sky130_fd_sc_hd__mux2_1
X_2843_ _0783_ _0784_ _0792_ VSS VSS VDD VDD _0261_ sky130_fd_sc_hd__mux2_1
X_2844_ _0785_ _0786_ _0789_ VSS VSS VDD VDD _0263_ sky130_fd_sc_hd__mux2_1
X_2845_ _0787_ _0788_ _0789_ VSS VSS VDD VDD _0264_ sky130_fd_sc_hd__mux2_1
X_2846_ _0723_ _0724_ _0642_ VSS VSS VDD VDD _0272_ sky130_fd_sc_hd__mux2_1
X_2847_ _0725_ _0726_ _0642_ VSS VSS VDD VDD _0283_ sky130_fd_sc_hd__mux2_1
X_2848_ _0727_ _0728_ _0642_ VSS VSS VDD VDD _0294_ sky130_fd_sc_hd__mux2_1
X_2849_ _0729_ _0730_ _0642_ VSS VSS VDD VDD _0297_ sky130_fd_sc_hd__mux2_1
X_2850_ _0731_ _0732_ _0642_ VSS VSS VDD VDD _0298_ sky130_fd_sc_hd__mux2_1
X_2851_ _0733_ _0734_ _0642_ VSS VSS VDD VDD _0299_ sky130_fd_sc_hd__mux2_1
X_2852_ _0735_ _0736_ _0642_ VSS VSS VDD VDD _0300_ sky130_fd_sc_hd__mux2_1
X_2853_ _0737_ _0738_ _0642_ VSS VSS VDD VDD _0301_ sky130_fd_sc_hd__mux2_1
X_2854_ _0739_ _0740_ _0642_ VSS VSS VDD VDD _0302_ sky130_fd_sc_hd__mux2_1
X_2855_ _0641_ VSS VSS VDD VDD _0793_ sky130_fd_sc_hd__buf_6
X_2856_ _0741_ _0742_ _0793_ VSS VSS VDD VDD _0303_ sky130_fd_sc_hd__mux2_1
X_2857_ _0744_ _0745_ _0793_ VSS VSS VDD VDD _0273_ sky130_fd_sc_hd__mux2_1
X_2858_ _0746_ _0747_ _0793_ VSS VSS VDD VDD _0274_ sky130_fd_sc_hd__mux2_1
X_2859_ _0748_ _0749_ _0793_ VSS VSS VDD VDD _0275_ sky130_fd_sc_hd__mux2_1
X_2860_ _0750_ _0751_ _0793_ VSS VSS VDD VDD _0276_ sky130_fd_sc_hd__mux2_1
X_2861_ _0752_ _0753_ _0793_ VSS VSS VDD VDD _0277_ sky130_fd_sc_hd__mux2_1
X_2862_ _0754_ _0755_ _0793_ VSS VSS VDD VDD _0278_ sky130_fd_sc_hd__mux2_1
X_2863_ _0756_ _0757_ _0793_ VSS VSS VDD VDD _0279_ sky130_fd_sc_hd__mux2_1
X_2864_ _0758_ _0759_ _0793_ VSS VSS VDD VDD _0280_ sky130_fd_sc_hd__mux2_1
X_2865_ _0760_ _0761_ _0793_ VSS VSS VDD VDD _0281_ sky130_fd_sc_hd__mux2_1
X_2866_ _0641_ VSS VSS VDD VDD _0794_ sky130_fd_sc_hd__buf_4
X_2867_ _0762_ _0763_ _0794_ VSS VSS VDD VDD _0282_ sky130_fd_sc_hd__mux2_1
X_2868_ _0765_ _0766_ _0794_ VSS VSS VDD VDD _0284_ sky130_fd_sc_hd__mux2_1
X_2869_ _0767_ _0768_ _0794_ VSS VSS VDD VDD _0285_ sky130_fd_sc_hd__mux2_1
X_2870_ _0769_ _0770_ _0794_ VSS VSS VDD VDD _0286_ sky130_fd_sc_hd__mux2_1
X_2871_ _0771_ _0772_ _0794_ VSS VSS VDD VDD _0287_ sky130_fd_sc_hd__mux2_1
X_2872_ _0773_ _0774_ _0794_ VSS VSS VDD VDD _0288_ sky130_fd_sc_hd__mux2_1
X_2873_ _0775_ _0776_ _0794_ VSS VSS VDD VDD _0289_ sky130_fd_sc_hd__mux2_1
X_2874_ _0777_ _0778_ _0794_ VSS VSS VDD VDD _0290_ sky130_fd_sc_hd__mux2_1
X_2875_ _0779_ _0780_ _0794_ VSS VSS VDD VDD _0291_ sky130_fd_sc_hd__mux2_1
X_2876_ _0781_ _0782_ _0794_ VSS VSS VDD VDD _0292_ sky130_fd_sc_hd__mux2_1
X_2877_ _0783_ _0784_ _0641_ VSS VSS VDD VDD _0293_ sky130_fd_sc_hd__mux2_1
X_2878_ _0785_ _0786_ _0641_ VSS VSS VDD VDD _0295_ sky130_fd_sc_hd__mux2_1
X_2879_ _0787_ _0788_ _0641_ VSS VSS VDD VDD _0296_ sky130_fd_sc_hd__mux2_1
X_2880_ _0704_ _0646_ VSS VSS VDD VDD _0795_ sky130_fd_sc_hd__nor2_4
X_2881_ _0795_ VSS VSS VDD VDD _0796_ sky130_fd_sc_hd__buf_6
X_2882_ _0723_ _0724_ _0796_ VSS VSS VDD VDD _0304_ sky130_fd_sc_hd__mux2_1
X_2883_ _0725_ _0726_ _0796_ VSS VSS VDD VDD _0315_ sky130_fd_sc_hd__mux2_1
X_2884_ _0727_ _0728_ _0796_ VSS VSS VDD VDD _0326_ sky130_fd_sc_hd__mux2_1
X_2885_ _0729_ _0730_ _0796_ VSS VSS VDD VDD _0329_ sky130_fd_sc_hd__mux2_1
X_2886_ _0731_ _0732_ _0796_ VSS VSS VDD VDD _0330_ sky130_fd_sc_hd__mux2_1
X_2887_ _0733_ _0734_ _0796_ VSS VSS VDD VDD _0331_ sky130_fd_sc_hd__mux2_1
X_2888_ _0735_ _0736_ _0796_ VSS VSS VDD VDD _0332_ sky130_fd_sc_hd__mux2_1
X_2889_ _0737_ _0738_ _0796_ VSS VSS VDD VDD _0333_ sky130_fd_sc_hd__mux2_1
X_2890_ _0739_ _0740_ _0796_ VSS VSS VDD VDD _0334_ sky130_fd_sc_hd__mux2_1
X_2891_ _0741_ _0742_ _0796_ VSS VSS VDD VDD _0335_ sky130_fd_sc_hd__mux2_1
X_2892_ _0795_ VSS VSS VDD VDD _0797_ sky130_fd_sc_hd__buf_6
X_2893_ _0744_ _0745_ _0797_ VSS VSS VDD VDD _0305_ sky130_fd_sc_hd__mux2_1
X_2894_ _0746_ _0747_ _0797_ VSS VSS VDD VDD _0306_ sky130_fd_sc_hd__mux2_1
X_2895_ _0748_ _0749_ _0797_ VSS VSS VDD VDD _0307_ sky130_fd_sc_hd__mux2_1
X_2896_ _0750_ _0751_ _0797_ VSS VSS VDD VDD _0308_ sky130_fd_sc_hd__mux2_1
X_2897_ _0752_ _0753_ _0797_ VSS VSS VDD VDD _0309_ sky130_fd_sc_hd__mux2_1
X_2898_ _0754_ _0755_ _0797_ VSS VSS VDD VDD _0310_ sky130_fd_sc_hd__mux2_1
X_2899_ _0756_ _0757_ _0797_ VSS VSS VDD VDD _0311_ sky130_fd_sc_hd__mux2_1
X_2900_ _0758_ _0759_ _0797_ VSS VSS VDD VDD _0312_ sky130_fd_sc_hd__mux2_1
X_2901_ _0760_ _0761_ _0797_ VSS VSS VDD VDD _0313_ sky130_fd_sc_hd__mux2_1
X_2902_ _0762_ _0763_ _0797_ VSS VSS VDD VDD _0314_ sky130_fd_sc_hd__mux2_1
X_2903_ _0795_ VSS VSS VDD VDD _0798_ sky130_fd_sc_hd__clkbuf_8
X_2904_ _0765_ _0766_ _0798_ VSS VSS VDD VDD _0316_ sky130_fd_sc_hd__mux2_1
X_2905_ _0767_ _0768_ _0798_ VSS VSS VDD VDD _0317_ sky130_fd_sc_hd__mux2_1
X_2906_ _0769_ _0770_ _0798_ VSS VSS VDD VDD _0318_ sky130_fd_sc_hd__mux2_1
X_2907_ _0771_ _0772_ _0798_ VSS VSS VDD VDD _0319_ sky130_fd_sc_hd__mux2_1
X_2908_ _0773_ _0774_ _0798_ VSS VSS VDD VDD _0320_ sky130_fd_sc_hd__mux2_1
X_2909_ _0775_ _0776_ _0798_ VSS VSS VDD VDD _0321_ sky130_fd_sc_hd__mux2_1
X_2910_ _0777_ _0778_ _0798_ VSS VSS VDD VDD _0322_ sky130_fd_sc_hd__mux2_1
X_2911_ _0779_ _0780_ _0798_ VSS VSS VDD VDD _0323_ sky130_fd_sc_hd__mux2_1
X_2912_ _0781_ _0782_ _0798_ VSS VSS VDD VDD _0324_ sky130_fd_sc_hd__mux2_1
X_2913_ _0783_ _0784_ _0798_ VSS VSS VDD VDD _0325_ sky130_fd_sc_hd__mux2_1
X_2914_ _0785_ _0786_ _0795_ VSS VSS VDD VDD _0327_ sky130_fd_sc_hd__mux2_1
X_2915_ _0787_ _0788_ _0795_ VSS VSS VDD VDD _0328_ sky130_fd_sc_hd__mux2_1
X_2916_ _0723_ _0724_ _0703_ VSS VSS VDD VDD _0336_ sky130_fd_sc_hd__mux2_1
X_2917_ _0725_ _0726_ _0703_ VSS VSS VDD VDD _0347_ sky130_fd_sc_hd__mux2_1
X_2918_ _0727_ _0728_ _0703_ VSS VSS VDD VDD _0358_ sky130_fd_sc_hd__mux2_1
X_2919_ _0729_ _0730_ _0703_ VSS VSS VDD VDD _0361_ sky130_fd_sc_hd__mux2_1
X_2920_ _0731_ _0732_ _0703_ VSS VSS VDD VDD _0362_ sky130_fd_sc_hd__mux2_1
X_2921_ _0733_ _0734_ _0703_ VSS VSS VDD VDD _0363_ sky130_fd_sc_hd__mux2_1
X_2922_ _0735_ _0736_ _0703_ VSS VSS VDD VDD _0364_ sky130_fd_sc_hd__mux2_1
X_2923_ _0737_ _0738_ _0703_ VSS VSS VDD VDD _0365_ sky130_fd_sc_hd__mux2_1
X_2924_ _0739_ _0740_ _0703_ VSS VSS VDD VDD _0366_ sky130_fd_sc_hd__mux2_1
X_2925_ _0702_ VSS VSS VDD VDD _0799_ sky130_fd_sc_hd__buf_6
X_2926_ _0741_ _0742_ _0799_ VSS VSS VDD VDD _0367_ sky130_fd_sc_hd__mux2_1
X_2927_ _0744_ _0745_ _0799_ VSS VSS VDD VDD _0337_ sky130_fd_sc_hd__mux2_1
X_2928_ _0746_ _0747_ _0799_ VSS VSS VDD VDD _0338_ sky130_fd_sc_hd__mux2_1
X_2929_ _0748_ _0749_ _0799_ VSS VSS VDD VDD _0339_ sky130_fd_sc_hd__mux2_1
X_2930_ _0750_ _0751_ _0799_ VSS VSS VDD VDD _0340_ sky130_fd_sc_hd__mux2_1
X_2931_ _0752_ _0753_ _0799_ VSS VSS VDD VDD _0341_ sky130_fd_sc_hd__mux2_1
X_2932_ _0754_ _0755_ _0799_ VSS VSS VDD VDD _0342_ sky130_fd_sc_hd__mux2_1
X_2933_ _0756_ _0757_ _0799_ VSS VSS VDD VDD _0343_ sky130_fd_sc_hd__mux2_1
X_2934_ _0758_ _0759_ _0799_ VSS VSS VDD VDD _0344_ sky130_fd_sc_hd__mux2_1
X_2935_ _0760_ _0761_ _0799_ VSS VSS VDD VDD _0345_ sky130_fd_sc_hd__mux2_1
X_2936_ _0702_ VSS VSS VDD VDD _0800_ sky130_fd_sc_hd__clkbuf_8
X_2937_ _0762_ _0763_ _0800_ VSS VSS VDD VDD _0346_ sky130_fd_sc_hd__mux2_1
X_2938_ _0765_ _0766_ _0800_ VSS VSS VDD VDD _0348_ sky130_fd_sc_hd__mux2_1
X_2939_ _0767_ _0768_ _0800_ VSS VSS VDD VDD _0349_ sky130_fd_sc_hd__mux2_1
X_2940_ _0769_ _0770_ _0800_ VSS VSS VDD VDD _0350_ sky130_fd_sc_hd__mux2_1
X_2941_ _0771_ _0772_ _0800_ VSS VSS VDD VDD _0351_ sky130_fd_sc_hd__mux2_1
X_2942_ _0773_ _0774_ _0800_ VSS VSS VDD VDD _0352_ sky130_fd_sc_hd__mux2_1
X_2943_ _0775_ _0776_ _0800_ VSS VSS VDD VDD _0353_ sky130_fd_sc_hd__mux2_1
X_2944_ _0777_ _0778_ _0800_ VSS VSS VDD VDD _0354_ sky130_fd_sc_hd__mux2_1
X_2945_ _0779_ _0780_ _0800_ VSS VSS VDD VDD _0355_ sky130_fd_sc_hd__mux2_1
X_2946_ _0781_ _0782_ _0800_ VSS VSS VDD VDD _0356_ sky130_fd_sc_hd__mux2_1
X_2947_ _0783_ _0784_ _0702_ VSS VSS VDD VDD _0357_ sky130_fd_sc_hd__mux2_1
X_2948_ _0785_ _0786_ _0702_ VSS VSS VDD VDD _0359_ sky130_fd_sc_hd__mux2_1
X_2949_ _0787_ _0788_ _0702_ VSS VSS VDD VDD _0360_ sky130_fd_sc_hd__mux2_1
X_2950_ _0646_ _0700_ VSS VSS VDD VDD _0801_ sky130_fd_sc_hd__nor2_4
X_2951_ _0801_ VSS VSS VDD VDD _0802_ sky130_fd_sc_hd__buf_6
X_2952_ _0723_ _0724_ _0802_ VSS VSS VDD VDD _0368_ sky130_fd_sc_hd__mux2_1
X_2953_ _0725_ _0726_ _0802_ VSS VSS VDD VDD _0379_ sky130_fd_sc_hd__mux2_1
X_2954_ _0727_ _0728_ _0802_ VSS VSS VDD VDD _0390_ sky130_fd_sc_hd__mux2_1
X_2955_ _0729_ _0730_ _0802_ VSS VSS VDD VDD _0393_ sky130_fd_sc_hd__mux2_1
X_2956_ _0731_ _0732_ _0802_ VSS VSS VDD VDD _0394_ sky130_fd_sc_hd__mux2_1
X_2957_ _0733_ _0734_ _0802_ VSS VSS VDD VDD _0395_ sky130_fd_sc_hd__mux2_1
X_2958_ _0735_ _0736_ _0802_ VSS VSS VDD VDD _0396_ sky130_fd_sc_hd__mux2_1
X_2959_ _0737_ _0738_ _0802_ VSS VSS VDD VDD _0397_ sky130_fd_sc_hd__mux2_1
X_2960_ _0739_ _0740_ _0802_ VSS VSS VDD VDD _0398_ sky130_fd_sc_hd__mux2_1
X_2961_ _0741_ _0742_ _0802_ VSS VSS VDD VDD _0399_ sky130_fd_sc_hd__mux2_1
X_2962_ _0801_ VSS VSS VDD VDD _0803_ sky130_fd_sc_hd__buf_6