* CDL Netlist generated by OpenROAD

*.BUSDELIMITER [

.SUBCKT riscv aluout[0] aluout[10] aluout[11] aluout[12] aluout[13]
+ aluout[14] aluout[15] aluout[16] aluout[17] aluout[18] aluout[19]
+ aluout[1] aluout[20] aluout[21] aluout[22] aluout[23] aluout[24]
+ aluout[25] aluout[26] aluout[27] aluout[28] aluout[29] aluout[2]
+ aluout[30] aluout[31] aluout[3] aluout[4] aluout[5] aluout[6]
+ aluout[7] aluout[8] aluout[9] clk instr[0] instr[10] instr[11]
+ instr[12] instr[13] instr[14] instr[15] instr[16] instr[17]
+ instr[18] instr[19] instr[1] instr[20] instr[21] instr[22]
+ instr[23] instr[24] instr[25] instr[26] instr[27] instr[28]
+ instr[29] instr[2] instr[30] instr[31] instr[3] instr[4] instr[5]
+ instr[6] instr[7] instr[8] instr[9] memread memwrite pc[0]
+ pc[10] pc[11] pc[12] pc[13] pc[14] pc[15] pc[16] pc[17] pc[18]
+ pc[19] pc[1] pc[20] pc[21] pc[22] pc[23] pc[24] pc[25] pc[26]
+ pc[27] pc[28] pc[29] pc[2] pc[30] pc[31] pc[3] pc[4] pc[5]
+ pc[6] pc[7] pc[8] pc[9] readdata[0] readdata[10] readdata[11]
+ readdata[12] readdata[13] readdata[14] readdata[15] readdata[16]
+ readdata[17] readdata[18] readdata[19] readdata[1] readdata[20]
+ readdata[21] readdata[22] readdata[23] readdata[24] readdata[25]
+ readdata[26] readdata[27] readdata[28] readdata[29] readdata[2]
+ readdata[30] readdata[31] readdata[3] readdata[4] readdata[5]
+ readdata[6] readdata[7] readdata[8] readdata[9] reset suspend
+ writedata[0] writedata[10] writedata[11] writedata[12] writedata[13]
+ writedata[14] writedata[15] writedata[16] writedata[17] writedata[18]
+ writedata[19] writedata[1] writedata[20] writedata[21] writedata[22]
+ writedata[23] writedata[24] writedata[25] writedata[26] writedata[27]
+ writedata[28] writedata[29] writedata[2] writedata[30] writedata[31]
+ writedata[3] writedata[4] writedata[5] writedata[6] writedata[7]
+ writedata[8] writedata[9]
X_05201_ net22 _01027_ VDD VSS gf180mcu_fd_sc_mcu9t5v0__clkinv_16
X_05202_ _01027_ _01028_ VDD VSS gf180mcu_fd_sc_mcu9t5v0__clkbuf_12
X_05203_ net23 _01029_ VDD VSS gf180mcu_fd_sc_mcu9t5v0__clkbuf_8
X_05204_ _01028_ _01029_ _01030_ VDD VSS gf180mcu_fd_sc_mcu9t5v0__and2_4
X_05205_ net24 _01031_ VDD VSS gf180mcu_fd_sc_mcu9t5v0__clkinv_2
X_05206_ net10 net1 _01032_ VDD VSS gf180mcu_fd_sc_mcu9t5v0__and2_4
X_05207_ instr[2] _01033_ VDD VSS gf180mcu_fd_sc_mcu9t5v0__clkbuf_12
X_05208_ _01033_ _01034_ VDD VSS gf180mcu_fd_sc_mcu9t5v0__clkbuf_8
X_05209_ net21 _01034_ _01035_ VDD VSS gf180mcu_fd_sc_mcu9t5v0__nor2_4
X_05210_ _01031_ net230 _01035_ _01036_ VDD VSS gf180mcu_fd_sc_mcu9t5v0__and3_2
X_05211_ _01030_ _01036_ net94 VDD VSS gf180mcu_fd_sc_mcu9t5v0__and2_2
X_05212_ net13 _01037_ VDD VSS gf180mcu_fd_sc_mcu9t5v0__clkbuf_12
X_05213_ instr[20] _01038_ VDD VSS gf180mcu_fd_sc_mcu9t5v0__clkbuf_12
X_05214_ instr[21] _01039_ VDD VSS gf180mcu_fd_sc_mcu9t5v0__clkbuf_8
X_05215_ dp.rf.rf\[24\]\[0\] dp.rf.rf\[25\]\[0\] dp.rf.rf\[26\]\[0\]
+ dp.rf.rf\[27\]\[0\] _01038_ _01039_ _01040_ VDD VSS gf180mcu_fd_sc_mcu9t5v0__mux4_2
X_05216_ dp.rf.rf\[16\]\[0\] dp.rf.rf\[17\]\[0\] dp.rf.rf\[18\]\[0\]
+ dp.rf.rf\[19\]\[0\] _01038_ _01039_ _01041_ VDD VSS gf180mcu_fd_sc_mcu9t5v0__mux4_2
X_05217_ net12 _01042_ VDD VSS gf180mcu_fd_sc_mcu9t5v0__clkinv_8
X_05218_ _01040_ _01041_ _01042_ _01043_ VDD VSS gf180mcu_fd_sc_mcu9t5v0__mux2_2
X_05219_ dp.rf.rf\[28\]\[0\] dp.rf.rf\[29\]\[0\] dp.rf.rf\[30\]\[0\]
+ dp.rf.rf\[31\]\[0\] _01038_ _01039_ _01044_ VDD VSS gf180mcu_fd_sc_mcu9t5v0__mux4_2
X_05220_ dp.rf.rf\[20\]\[0\] dp.rf.rf\[21\]\[0\] dp.rf.rf\[22\]\[0\]
+ dp.rf.rf\[23\]\[0\] _01038_ _01039_ _01045_ VDD VSS gf180mcu_fd_sc_mcu9t5v0__mux4_2
X_05221_ _01044_ _01045_ _01042_ _01046_ VDD VSS gf180mcu_fd_sc_mcu9t5v0__mux2_2
X_05222_ net11 _01047_ VDD VSS gf180mcu_fd_sc_mcu9t5v0__buf_12
X_05223_ _01043_ _01046_ net196 _01048_ VDD VSS gf180mcu_fd_sc_mcu9t5v0__mux2_4
X_05224_ instr[20] _01049_ VDD VSS gf180mcu_fd_sc_mcu9t5v0__buf_20
X_05225_ dp.rf.rf\[8\]\[0\] dp.rf.rf\[9\]\[0\] dp.rf.rf\[10\]\[0\]
+ dp.rf.rf\[11\]\[0\] net264 _01039_ _01050_ VDD VSS gf180mcu_fd_sc_mcu9t5v0__mux4_2
X_05226_ dp.rf.rf\[0\]\[0\] dp.rf.rf\[1\]\[0\] dp.rf.rf\[2\]\[0\]
+ dp.rf.rf\[3\]\[0\] net264 _01039_ _01051_ VDD VSS gf180mcu_fd_sc_mcu9t5v0__mux4_2
X_05227_ _01050_ _01051_ _01042_ _01052_ VDD VSS gf180mcu_fd_sc_mcu9t5v0__mux2_2
X_05228_ dp.rf.rf\[12\]\[0\] dp.rf.rf\[13\]\[0\] dp.rf.rf\[14\]\[0\]
+ dp.rf.rf\[15\]\[0\] net264 _01039_ _01053_ VDD VSS gf180mcu_fd_sc_mcu9t5v0__mux4_2
X_05229_ dp.rf.rf\[4\]\[0\] dp.rf.rf\[5\]\[0\] dp.rf.rf\[6\]\[0\]
+ dp.rf.rf\[7\]\[0\] net264 _01039_ _01054_ VDD VSS gf180mcu_fd_sc_mcu9t5v0__mux4_2
X_05230_ _01053_ _01054_ _01042_ _01055_ VDD VSS gf180mcu_fd_sc_mcu9t5v0__mux2_2
X_05231_ _01052_ _01055_ net196 _01056_ VDD VSS gf180mcu_fd_sc_mcu9t5v0__mux2_4
X_05232_ net13 _01057_ VDD VSS gf180mcu_fd_sc_mcu9t5v0__inv_3
X_05233_ _01057_ _01058_ VDD VSS gf180mcu_fd_sc_mcu9t5v0__clkbuf_12
X_05234_ instr[20] _01059_ VDD VSS gf180mcu_fd_sc_mcu9t5v0__clkbuf_12
X_05235_ _01047_ _01059_ _01039_ net12 _01060_ VDD VSS gf180mcu_fd_sc_mcu9t5v0__or4_4
X_05236_ _01058_ _01060_ _01061_ VDD VSS gf180mcu_fd_sc_mcu9t5v0__and2_4
X_05237_ _01037_ _01048_ _01056_ _01061_ _01062_ VDD VSS gf180mcu_fd_sc_mcu9t5v0__aoi22_4
X_05238_ net270 net128 VDD VSS gf180mcu_fd_sc_mcu9t5v0__clkinv_2
X_05239_ net10 net1 _01063_ VDD VSS gf180mcu_fd_sc_mcu9t5v0__nand2_4
X_05240_ net21 _01033_ _01064_ VDD VSS gf180mcu_fd_sc_mcu9t5v0__or2_4
X_05241_ net24 _01063_ _01064_ _01065_ VDD VSS gf180mcu_fd_sc_mcu9t5v0__or3_2
X_05242_ _01029_ net19 _01066_ VDD VSS gf180mcu_fd_sc_mcu9t5v0__nand2_2
X_05243_ net4 _01067_ VDD VSS gf180mcu_fd_sc_mcu9t5v0__clkinv_3
X_05244_ net5 _01068_ VDD VSS gf180mcu_fd_sc_mcu9t5v0__clkinv_8
X_05245_ _01067_ _01068_ _01069_ VDD VSS gf180mcu_fd_sc_mcu9t5v0__nand2_4
X_05246_ net5 _01066_ _01070_ VDD VSS gf180mcu_fd_sc_mcu9t5v0__nand2_2
X_05247_ _01065_ _01066_ _01069_ _01070_ _01071_ VDD VSS gf180mcu_fd_sc_mcu9t5v0__oai31_2
X_05248_ net5 _01065_ _01071_ net22 _01072_ VDD VSS gf180mcu_fd_sc_mcu9t5v0__aoi22_2
X_05249_ net21 net24 _01073_ VDD VSS gf180mcu_fd_sc_mcu9t5v0__or2_4
Xsplit62 _03041_ net221 VDD VSS gf180mcu_fd_sc_mcu9t5v0__buf_4
X_05251_ net1 _01033_ net10 _01075_ VDD VSS gf180mcu_fd_sc_mcu9t5v0__nand3_4
X_05252_ _01073_ _01027_ _01075_ _01076_ VDD VSS gf180mcu_fd_sc_mcu9t5v0__or3_4
X_05253_ _01076_ _01077_ VDD VSS gf180mcu_fd_sc_mcu9t5v0__clkbuf_16
X_05254_ _01077_ _01078_ VDD VSS gf180mcu_fd_sc_mcu9t5v0__clkbuf_20
X_05255_ net230 _01035_ _01079_ VDD VSS gf180mcu_fd_sc_mcu9t5v0__and2_2
Xrebuffer102 _02427_ net275 VDD VSS gf180mcu_fd_sc_mcu9t5v0__dlya_4
X_05257_ _01029_ net24 _01081_ VDD VSS gf180mcu_fd_sc_mcu9t5v0__and2_2
X_05258_ _01028_ _01081_ _01082_ VDD VSS gf180mcu_fd_sc_mcu9t5v0__and2_4
X_05259_ _01079_ _01082_ _01083_ VDD VSS gf180mcu_fd_sc_mcu9t5v0__nand2_4
X_05260_ _01078_ _01083_ _01084_ VDD VSS gf180mcu_fd_sc_mcu9t5v0__nand2_2
X_05261_ _01084_ _01072_ net6 _01085_ VDD VSS gf180mcu_fd_sc_mcu9t5v0__or3_4
X_05262_ _01085_ _01086_ VDD VSS gf180mcu_fd_sc_mcu9t5v0__buf_4
X_05263_ net24 net22 _01029_ _01087_ VDD VSS gf180mcu_fd_sc_mcu9t5v0__mux2_2
X_05264_ net23 net24 _01088_ VDD VSS gf180mcu_fd_sc_mcu9t5v0__nand2_2
X_05265_ _01073_ _01088_ _01027_ _01089_ VDD VSS gf180mcu_fd_sc_mcu9t5v0__mux2_2
X_05266_ _01033_ _01090_ VDD VSS gf180mcu_fd_sc_mcu9t5v0__clkbuf_8
X_05267_ _01090_ _01091_ VDD VSS gf180mcu_fd_sc_mcu9t5v0__clkinv_2
X_05268_ _01064_ _01087_ _01089_ _01091_ _01092_ VDD VSS gf180mcu_fd_sc_mcu9t5v0__oai22_4
X_05269_ net232 _01092_ _01093_ VDD VSS gf180mcu_fd_sc_mcu9t5v0__and2_4
X_05270_ net10 net1 net21 _01033_ _01094_ VDD VSS gf180mcu_fd_sc_mcu9t5v0__nand4_4
X_05271_ _01063_ _01064_ _01094_ _01031_ _01095_ VDD VSS gf180mcu_fd_sc_mcu9t5v0__oai22_4
X_05272_ net21 net24 _01096_ VDD VSS gf180mcu_fd_sc_mcu9t5v0__nor2_4
X_05273_ _01032_ net22 _01033_ _01096_ _01097_ VDD VSS gf180mcu_fd_sc_mcu9t5v0__and4_4
X_05274_ _01049_ _01098_ VDD VSS gf180mcu_fd_sc_mcu9t5v0__buf_8
X_05275_ _01098_ _01099_ VDD VSS gf180mcu_fd_sc_mcu9t5v0__inv_2
X_05276_ _01030_ _01095_ _01097_ _01099_ _01100_ VDD VSS gf180mcu_fd_sc_mcu9t5v0__aoi211_4
X_05277_ net26 _01101_ VDD VSS gf180mcu_fd_sc_mcu9t5v0__clkinv_3
X_05278_ instr[21] _01102_ VDD VSS gf180mcu_fd_sc_mcu9t5v0__buf_8
X_05279_ _01102_ _01103_ VDD VSS gf180mcu_fd_sc_mcu9t5v0__clkinv_3
X_05280_ _01101_ _01063_ _01064_ _01094_ _01103_ _01104_ VDD
+ VSS gf180mcu_fd_sc_mcu9t5v0__oai32_2
X_05281_ _01082_ _01104_ _01105_ VDD VSS gf180mcu_fd_sc_mcu9t5v0__and2_2
X_05282_ net25 _01030_ _01036_ _01106_ VDD VSS gf180mcu_fd_sc_mcu9t5v0__and3_2
X_05283_ net22 _01063_ _01088_ _01107_ VDD VSS gf180mcu_fd_sc_mcu9t5v0__or3_2
X_05284_ net21 _01033_ _01108_ VDD VSS gf180mcu_fd_sc_mcu9t5v0__xor2_2
X_05285_ _01107_ _01108_ _01109_ VDD VSS gf180mcu_fd_sc_mcu9t5v0__or2_4
X_05286_ _01100_ _01105_ _01106_ _01109_ _01110_ VDD VSS gf180mcu_fd_sc_mcu9t5v0__oai31_4
X_05287_ _01037_ _01111_ VDD VSS gf180mcu_fd_sc_mcu9t5v0__buf_12
X_05288_ _01061_ _01112_ VDD VSS gf180mcu_fd_sc_mcu9t5v0__clkbuf_16
X_05289_ _01111_ net212 net197 _01112_ _01092_ _01032_ _01113_
+ VDD VSS gf180mcu_fd_sc_mcu9t5v0__aoi222_4
X_05290_ _01093_ _01110_ _01113_ _01114_ VDD VSS gf180mcu_fd_sc_mcu9t5v0__aoi21_4
X_05291_ _01114_ _01115_ VDD VSS gf180mcu_fd_sc_mcu9t5v0__clkbuf_8
X_05292_ _01115_ _01116_ VDD VSS gf180mcu_fd_sc_mcu9t5v0__buf_4
X_05293_ _01086_ _01116_ _04825_ VDD VSS gf180mcu_fd_sc_mcu9t5v0__xnor2_2
X_05294_ _04825_ _04829_ VDD VSS gf180mcu_fd_sc_mcu9t5v0__clkinv_2
X_05295_ net7 _01117_ VDD VSS gf180mcu_fd_sc_mcu9t5v0__buf_8
X_05296_ _01117_ _01118_ VDD VSS gf180mcu_fd_sc_mcu9t5v0__clkbuf_12
X_05297_ _01118_ _01119_ VDD VSS gf180mcu_fd_sc_mcu9t5v0__buf_8
X_05298_ instr[15] _01120_ VDD VSS gf180mcu_fd_sc_mcu9t5v0__clkbuf_16
X_05299_ _01120_ _01121_ VDD VSS gf180mcu_fd_sc_mcu9t5v0__buf_12
X_05300_ instr[17] _01122_ VDD VSS gf180mcu_fd_sc_mcu9t5v0__clkbuf_12
X_05301_ _01122_ _01123_ VDD VSS gf180mcu_fd_sc_mcu9t5v0__clkbuf_12
X_05302_ _01123_ _01124_ VDD VSS gf180mcu_fd_sc_mcu9t5v0__clkbuf_12
X_05303_ dp.rf.rf\[2\]\[0\] dp.rf.rf\[3\]\[0\] dp.rf.rf\[6\]\[0\]
+ dp.rf.rf\[7\]\[0\] _01121_ _01124_ _01125_ VDD VSS gf180mcu_fd_sc_mcu9t5v0__mux4_2
X_05304_ _01119_ _01125_ _01126_ VDD VSS gf180mcu_fd_sc_mcu9t5v0__and2_2
X_05305_ instr[15] _01127_ VDD VSS gf180mcu_fd_sc_mcu9t5v0__buf_12
X_05306_ _01127_ _01128_ VDD VSS gf180mcu_fd_sc_mcu9t5v0__clkbuf_12
X_05307_ _01122_ _01129_ VDD VSS gf180mcu_fd_sc_mcu9t5v0__clkbuf_12
X_05308_ _01128_ _01129_ _01130_ VDD VSS gf180mcu_fd_sc_mcu9t5v0__nor2_4
X_05309_ net8 _01131_ VDD VSS gf180mcu_fd_sc_mcu9t5v0__inv_4
X_05310_ _01117_ _01130_ _01131_ _01132_ VDD VSS gf180mcu_fd_sc_mcu9t5v0__oai21_2
X_05311_ net7 _01133_ VDD VSS gf180mcu_fd_sc_mcu9t5v0__inv_4
X_05312_ _01133_ _01131_ _01134_ VDD VSS gf180mcu_fd_sc_mcu9t5v0__nand2_2
X_05313_ _01127_ _01135_ VDD VSS gf180mcu_fd_sc_mcu9t5v0__clkbuf_12
X_05314_ _01135_ _01136_ VDD VSS gf180mcu_fd_sc_mcu9t5v0__clkbuf_12
X_05315_ _01122_ _01137_ VDD VSS gf180mcu_fd_sc_mcu9t5v0__clkbuf_12
X_05316_ _01137_ _01138_ VDD VSS gf180mcu_fd_sc_mcu9t5v0__clkbuf_12
X_05317_ _01138_ _01139_ VDD VSS gf180mcu_fd_sc_mcu9t5v0__buf_12
X_05318_ dp.rf.rf\[0\]\[0\] dp.rf.rf\[1\]\[0\] dp.rf.rf\[4\]\[0\]
+ dp.rf.rf\[5\]\[0\] _01136_ _01139_ _01140_ VDD VSS gf180mcu_fd_sc_mcu9t5v0__mux4_4
X_05319_ net9 _01141_ VDD VSS gf180mcu_fd_sc_mcu9t5v0__inv_3
X_05320_ _01141_ net186 _01142_ VDD VSS gf180mcu_fd_sc_mcu9t5v0__and2_4
X_05321_ _01126_ _01132_ _01134_ _01140_ _01142_ _01143_ VDD
+ VSS gf180mcu_fd_sc_mcu9t5v0__oai221_4
X_05322_ _01137_ _01144_ VDD VSS gf180mcu_fd_sc_mcu9t5v0__clkbuf_12
X_05323_ _01144_ _01145_ VDD VSS gf180mcu_fd_sc_mcu9t5v0__clkbuf_12
X_05324_ _01145_ _01146_ VDD VSS gf180mcu_fd_sc_mcu9t5v0__clkbuf_12
X_05325_ _01120_ _01147_ VDD VSS gf180mcu_fd_sc_mcu9t5v0__buf_12
X_05326_ dp.rf.rf\[14\]\[0\] dp.rf.rf\[15\]\[0\] _01147_ _01148_
+ VDD VSS gf180mcu_fd_sc_mcu9t5v0__mux2_2
X_05327_ _01148_ _01149_ VDD VSS gf180mcu_fd_sc_mcu9t5v0__clkinv_2
X_05328_ net180 _01027_ net216 net7 _01150_ VDD VSS gf180mcu_fd_sc_mcu9t5v0__oai31_4
X_05329_ _01150_ _01151_ VDD VSS gf180mcu_fd_sc_mcu9t5v0__buf_8
X_05330_ _01146_ _01149_ _01151_ _01152_ VDD VSS gf180mcu_fd_sc_mcu9t5v0__aoi21_2
X_05331_ _01073_ _01153_ VDD VSS gf180mcu_fd_sc_mcu9t5v0__clkbuf_8
X_05332_ net10 _01154_ VDD VSS gf180mcu_fd_sc_mcu9t5v0__buf_4
X_05333_ net1 _01155_ VDD VSS gf180mcu_fd_sc_mcu9t5v0__buf_4
X_05334_ dp.rf.rf\[10\]\[0\] _01154_ _01155_ _01034_ _01156_
+ VDD VSS gf180mcu_fd_sc_mcu9t5v0__nand4_2
X_05335_ _01135_ _01157_ VDD VSS gf180mcu_fd_sc_mcu9t5v0__buf_12
X_05336_ dp.rf.rf\[10\]\[0\] _01158_ VDD VSS gf180mcu_fd_sc_mcu9t5v0__clkinv_2
X_05337_ _01028_ _01153_ _01156_ _01157_ _01158_ _01159_ VDD
+ VSS gf180mcu_fd_sc_mcu9t5v0__oai32_2
X_05338_ _01128_ _01160_ VDD VSS gf180mcu_fd_sc_mcu9t5v0__clkbuf_12
X_05339_ dp.rf.rf\[11\]\[0\] _01160_ _01161_ VDD VSS gf180mcu_fd_sc_mcu9t5v0__and2_2
X_05340_ _01122_ _01162_ VDD VSS gf180mcu_fd_sc_mcu9t5v0__inv_8
X_05341_ net22 _01096_ _01162_ _01163_ VDD VSS gf180mcu_fd_sc_mcu9t5v0__aoi21_4
X_05342_ _01163_ _01164_ VDD VSS gf180mcu_fd_sc_mcu9t5v0__buf_4
X_05343_ _01137_ _01075_ _01165_ VDD VSS gf180mcu_fd_sc_mcu9t5v0__and2_2
X_05344_ _01165_ _01166_ VDD VSS gf180mcu_fd_sc_mcu9t5v0__clkbuf_8
X_05345_ _01159_ _01161_ _01164_ _01166_ _01167_ VDD VSS gf180mcu_fd_sc_mcu9t5v0__or4_2
X_05346_ _01137_ _01168_ VDD VSS gf180mcu_fd_sc_mcu9t5v0__buf_12
X_05347_ _01168_ _01169_ VDD VSS gf180mcu_fd_sc_mcu9t5v0__clkbuf_12
X_05348_ dp.rf.rf\[8\]\[0\] dp.rf.rf\[9\]\[0\] dp.rf.rf\[12\]\[0\]
+ dp.rf.rf\[13\]\[0\] _01136_ _01169_ _01170_ VDD VSS gf180mcu_fd_sc_mcu9t5v0__mux4_4
X_05349_ _01133_ _01171_ VDD VSS gf180mcu_fd_sc_mcu9t5v0__clkbuf_12
X_05350_ _01171_ _01172_ VDD VSS gf180mcu_fd_sc_mcu9t5v0__clkbuf_12
X_05351_ _01172_ _01173_ VDD VSS gf180mcu_fd_sc_mcu9t5v0__buf_12
X_05352_ _01075_ _01174_ VDD VSS gf180mcu_fd_sc_mcu9t5v0__buf_8
X_05353_ _01027_ net167 _01174_ net8 _01175_ VDD VSS gf180mcu_fd_sc_mcu9t5v0__oai31_4
X_05354_ _01175_ _01176_ VDD VSS gf180mcu_fd_sc_mcu9t5v0__clkbuf_12
X_05355_ _01152_ _01167_ _01170_ _01173_ _01176_ _01177_ VDD
+ VSS gf180mcu_fd_sc_mcu9t5v0__aoi221_4
X_05356_ net8 _01178_ VDD VSS gf180mcu_fd_sc_mcu9t5v0__clkbuf_12
X_05357_ _01127_ _01179_ VDD VSS gf180mcu_fd_sc_mcu9t5v0__buf_8
X_05358_ dp.rf.rf\[20\]\[0\] dp.rf.rf\[21\]\[0\] dp.rf.rf\[22\]\[0\]
+ dp.rf.rf\[23\]\[0\] _01179_ _01117_ _01180_ VDD VSS gf180mcu_fd_sc_mcu9t5v0__mux4_2
X_05359_ dp.rf.rf\[16\]\[0\] dp.rf.rf\[17\]\[0\] dp.rf.rf\[18\]\[0\]
+ dp.rf.rf\[19\]\[0\] _01179_ _01117_ _01181_ VDD VSS gf180mcu_fd_sc_mcu9t5v0__mux4_2
X_05360_ _01162_ _01182_ VDD VSS gf180mcu_fd_sc_mcu9t5v0__clkbuf_12
X_05361_ _01180_ _01181_ _01182_ _01183_ VDD VSS gf180mcu_fd_sc_mcu9t5v0__mux2_2
X_05362_ dp.rf.rf\[24\]\[0\] _01184_ VDD VSS gf180mcu_fd_sc_mcu9t5v0__clkinv_2
X_05363_ net180 _01185_ VDD VSS gf180mcu_fd_sc_mcu9t5v0__buf_8
X_05364_ _01127_ _01186_ VDD VSS gf180mcu_fd_sc_mcu9t5v0__clkbuf_12
X_05365_ _01186_ _01117_ _01187_ VDD VSS gf180mcu_fd_sc_mcu9t5v0__or2_2
X_05366_ _01028_ _01185_ _01174_ _01187_ _01188_ VDD VSS gf180mcu_fd_sc_mcu9t5v0__oai31_4
X_05367_ _01127_ _01189_ VDD VSS gf180mcu_fd_sc_mcu9t5v0__clkinv_8
X_05368_ _01189_ _01190_ VDD VSS gf180mcu_fd_sc_mcu9t5v0__clkbuf_12
X_05369_ dp.rf.rf\[25\]\[0\] _01190_ _01118_ _01191_ VDD VSS
+ gf180mcu_fd_sc_mcu9t5v0__nor3_2
X_05370_ net161 _01192_ VDD VSS gf180mcu_fd_sc_mcu9t5v0__clkbuf_12
X_05371_ _01133_ _01193_ VDD VSS gf180mcu_fd_sc_mcu9t5v0__clkbuf_12
X_05372_ _01127_ _01194_ VDD VSS gf180mcu_fd_sc_mcu9t5v0__clkbuf_12
X_05373_ dp.rf.rf\[26\]\[0\] dp.rf.rf\[27\]\[0\] _01194_ _01195_
+ VDD VSS gf180mcu_fd_sc_mcu9t5v0__mux2_2
X_05374_ _01162_ _01196_ VDD VSS gf180mcu_fd_sc_mcu9t5v0__buf_8
X_05375_ _01193_ _01195_ _01196_ _01197_ VDD VSS gf180mcu_fd_sc_mcu9t5v0__oai21_2
X_05376_ _01184_ _01188_ _01191_ _01192_ _01197_ _01198_ VDD
+ VSS gf180mcu_fd_sc_mcu9t5v0__aoi221_4
X_05377_ _01175_ _01199_ VDD VSS gf180mcu_fd_sc_mcu9t5v0__clkbuf_12
X_05378_ _01137_ _01200_ VDD VSS gf180mcu_fd_sc_mcu9t5v0__clkbuf_12
X_05379_ _01200_ _01201_ VDD VSS gf180mcu_fd_sc_mcu9t5v0__clkbuf_12
X_05380_ _01127_ _01202_ VDD VSS gf180mcu_fd_sc_mcu9t5v0__clkbuf_12
X_05381_ dp.rf.rf\[28\]\[0\] dp.rf.rf\[29\]\[0\] dp.rf.rf\[30\]\[0\]
+ dp.rf.rf\[31\]\[0\] _01202_ _01117_ _01203_ VDD VSS gf180mcu_fd_sc_mcu9t5v0__mux4_2
X_05382_ _01201_ _01203_ _01204_ VDD VSS gf180mcu_fd_sc_mcu9t5v0__and2_2
X_05383_ _01199_ _01204_ _01205_ VDD VSS gf180mcu_fd_sc_mcu9t5v0__or2_2
X_05384_ net9 net161 _01206_ VDD VSS gf180mcu_fd_sc_mcu9t5v0__and2_4
X_05385_ _01206_ _01207_ VDD VSS gf180mcu_fd_sc_mcu9t5v0__buf_12
X_05386_ _01178_ _01183_ _01198_ _01205_ _01207_ _01208_ VDD
+ VSS gf180mcu_fd_sc_mcu9t5v0__oai221_4
X_05387_ _01143_ _01177_ _01208_ _04824_ VDD VSS gf180mcu_fd_sc_mcu9t5v0__oai21_4
X_05388_ net169 _04828_ VDD VSS gf180mcu_fd_sc_mcu9t5v0__clkinv_2
X_05389_ _01129_ _01209_ VDD VSS gf180mcu_fd_sc_mcu9t5v0__buf_8
X_05390_ _01209_ _01210_ VDD VSS gf180mcu_fd_sc_mcu9t5v0__clkbuf_12
X_05391_ _01210_ _01211_ VDD VSS gf180mcu_fd_sc_mcu9t5v0__clkbuf_12
X_05392_ _01186_ _01212_ VDD VSS gf180mcu_fd_sc_mcu9t5v0__buf_12
X_05393_ _01117_ _01213_ VDD VSS gf180mcu_fd_sc_mcu9t5v0__clkbuf_12
X_05394_ dp.rf.rf\[28\]\[31\] dp.rf.rf\[29\]\[31\] dp.rf.rf\[30\]\[31\]
+ dp.rf.rf\[31\]\[31\] _01212_ _01213_ _01214_ VDD VSS gf180mcu_fd_sc_mcu9t5v0__mux4_2
X_05395_ dp.rf.rf\[24\]\[31\] _01215_ VDD VSS gf180mcu_fd_sc_mcu9t5v0__clkinv_2
X_05396_ dp.rf.rf\[25\]\[31\] _01216_ VDD VSS gf180mcu_fd_sc_mcu9t5v0__clkinv_2
X_05397_ _01216_ _01160_ _01171_ _01217_ VDD VSS gf180mcu_fd_sc_mcu9t5v0__and3_2
X_05398_ _01133_ _01218_ VDD VSS gf180mcu_fd_sc_mcu9t5v0__clkbuf_12
X_05399_ dp.rf.rf\[26\]\[31\] dp.rf.rf\[27\]\[31\] _01128_
+ _01219_ VDD VSS gf180mcu_fd_sc_mcu9t5v0__mux2_2
X_05400_ _01218_ _01219_ _01196_ _01220_ VDD VSS gf180mcu_fd_sc_mcu9t5v0__oai21_2
X_05401_ _01215_ _01188_ _01217_ _01192_ _01220_ _01221_ VDD
+ VSS gf180mcu_fd_sc_mcu9t5v0__aoi221_4
X_05402_ _01211_ _01214_ _01221_ _01176_ _01222_ VDD VSS gf180mcu_fd_sc_mcu9t5v0__aoi211_4
X_05403_ _01027_ net251 net218 _01137_ _01223_ VDD VSS gf180mcu_fd_sc_mcu9t5v0__oai31_4
X_05404_ _01223_ _01224_ VDD VSS gf180mcu_fd_sc_mcu9t5v0__buf_12
X_05405_ _01120_ _01225_ VDD VSS gf180mcu_fd_sc_mcu9t5v0__buf_12
X_05406_ dp.rf.rf\[20\]\[31\] dp.rf.rf\[21\]\[31\] dp.rf.rf\[22\]\[31\]
+ dp.rf.rf\[23\]\[31\] _01225_ _01118_ _01226_ VDD VSS gf180mcu_fd_sc_mcu9t5v0__mux4_2
X_05407_ _01226_ _01227_ VDD VSS gf180mcu_fd_sc_mcu9t5v0__clkinv_2
X_05408_ _01131_ _01228_ VDD VSS gf180mcu_fd_sc_mcu9t5v0__buf_8
X_05409_ _01224_ _01227_ _01228_ _01229_ VDD VSS gf180mcu_fd_sc_mcu9t5v0__oai21_2
X_05410_ _01162_ _01230_ VDD VSS gf180mcu_fd_sc_mcu9t5v0__clkbuf_12
X_05411_ dp.rf.rf\[16\]\[31\] _01187_ _01231_ VDD VSS gf180mcu_fd_sc_mcu9t5v0__or2_2
X_05412_ dp.rf.rf\[17\]\[31\] dp.rf.rf\[19\]\[31\] net7 _01232_
+ VDD VSS gf180mcu_fd_sc_mcu9t5v0__mux2_2
X_05413_ _01190_ _01232_ _01233_ VDD VSS gf180mcu_fd_sc_mcu9t5v0__or2_2
X_05414_ dp.rf.rf\[18\]\[31\] _01160_ _01171_ _01234_ VDD
+ VSS gf180mcu_fd_sc_mcu9t5v0__or3_2
X_05415_ _01230_ _01231_ _01233_ _01234_ _01235_ VDD VSS gf180mcu_fd_sc_mcu9t5v0__and4_2
X_05416_ _01229_ _01235_ net177 _01236_ VDD VSS gf180mcu_fd_sc_mcu9t5v0__oai21_2
X_05417_ _01175_ _01237_ VDD VSS gf180mcu_fd_sc_mcu9t5v0__clkbuf_12
X_05418_ _01127_ _01238_ VDD VSS gf180mcu_fd_sc_mcu9t5v0__buf_8
X_05419_ dp.rf.rf\[10\]\[31\] dp.rf.rf\[11\]\[31\] dp.rf.rf\[14\]\[31\]
+ dp.rf.rf\[15\]\[31\] _01238_ _01209_ _01239_ VDD VSS gf180mcu_fd_sc_mcu9t5v0__mux4_2
X_05420_ dp.rf.rf\[8\]\[31\] dp.rf.rf\[9\]\[31\] dp.rf.rf\[12\]\[31\]
+ dp.rf.rf\[13\]\[31\] _01238_ _01209_ _01240_ VDD VSS gf180mcu_fd_sc_mcu9t5v0__mux4_2
X_05421_ _01133_ _01241_ VDD VSS gf180mcu_fd_sc_mcu9t5v0__buf_8
X_05422_ _01239_ _01240_ _01241_ _01242_ VDD VSS gf180mcu_fd_sc_mcu9t5v0__mux2_2
X_05423_ _01237_ _01242_ _01243_ VDD VSS gf180mcu_fd_sc_mcu9t5v0__nor2_2
X_05424_ net9 _01244_ VDD VSS gf180mcu_fd_sc_mcu9t5v0__buf_8
X_05425_ _01097_ _01245_ VDD VSS gf180mcu_fd_sc_mcu9t5v0__buf_8
X_05426_ dp.rf.rf\[2\]\[31\] dp.rf.rf\[3\]\[31\] dp.rf.rf\[6\]\[31\]
+ dp.rf.rf\[7\]\[31\] _01194_ _01138_ _01246_ VDD VSS gf180mcu_fd_sc_mcu9t5v0__mux4_2
X_05427_ _01213_ _01246_ _01132_ _01247_ VDD VSS gf180mcu_fd_sc_mcu9t5v0__aoi21_2
X_05428_ _01122_ _01248_ VDD VSS gf180mcu_fd_sc_mcu9t5v0__clkbuf_12
X_05429_ _01189_ _01248_ _01249_ VDD VSS gf180mcu_fd_sc_mcu9t5v0__and2_4
X_05430_ dp.rf.rf\[1\]\[31\] dp.rf.rf\[5\]\[31\] _01248_ _01250_
+ VDD VSS gf180mcu_fd_sc_mcu9t5v0__mux2_2
X_05431_ dp.rf.rf\[0\]\[31\] _01251_ VDD VSS gf180mcu_fd_sc_mcu9t5v0__clkinv_2
X_05432_ _01202_ _01129_ _01252_ VDD VSS gf180mcu_fd_sc_mcu9t5v0__or2_4
X_05433_ _01117_ net8 _01253_ VDD VSS gf180mcu_fd_sc_mcu9t5v0__nor2_2
X_05434_ _01251_ _01252_ _01253_ _01254_ VDD VSS gf180mcu_fd_sc_mcu9t5v0__oai21_2
X_05435_ dp.rf.rf\[4\]\[31\] _01249_ _01250_ _01212_ _01254_
+ _01255_ VDD VSS gf180mcu_fd_sc_mcu9t5v0__aoi221_2
X_05436_ _01244_ _01245_ _01247_ _01255_ _01256_ VDD VSS gf180mcu_fd_sc_mcu9t5v0__or4_2
X_05437_ _01222_ _01236_ _01243_ _01256_ _01257_ VDD VSS gf180mcu_fd_sc_mcu9t5v0__oai22_4
X_05438_ _01257_ _01258_ VDD VSS gf180mcu_fd_sc_mcu9t5v0__clkbuf_8
X_05439_ _01258_ _04837_ VDD VSS gf180mcu_fd_sc_mcu9t5v0__inv_3
X_05440_ net232 _01092_ _01259_ VDD VSS gf180mcu_fd_sc_mcu9t5v0__nand2_4
X_05441_ net262 _01260_ VDD VSS gf180mcu_fd_sc_mcu9t5v0__buf_16
X_05442_ _01260_ _01261_ VDD VSS gf180mcu_fd_sc_mcu9t5v0__clkbuf_12
X_05443_ instr[21] _01262_ VDD VSS gf180mcu_fd_sc_mcu9t5v0__buf_8
X_05444_ _01262_ _01263_ VDD VSS gf180mcu_fd_sc_mcu9t5v0__clkbuf_8
X_05445_ dp.rf.rf\[24\]\[31\] dp.rf.rf\[25\]\[31\] dp.rf.rf\[26\]\[31\]
+ dp.rf.rf\[27\]\[31\] _01261_ _01263_ _01264_ VDD VSS gf180mcu_fd_sc_mcu9t5v0__mux4_2
X_05446_ dp.rf.rf\[16\]\[31\] dp.rf.rf\[17\]\[31\] dp.rf.rf\[18\]\[31\]
+ dp.rf.rf\[19\]\[31\] _01261_ _01263_ _01265_ VDD VSS gf180mcu_fd_sc_mcu9t5v0__mux4_2
X_05447_ _01049_ _01266_ VDD VSS gf180mcu_fd_sc_mcu9t5v0__buf_16
X_05448_ _01266_ _01267_ VDD VSS gf180mcu_fd_sc_mcu9t5v0__buf_12
X_05449_ _01262_ _01268_ VDD VSS gf180mcu_fd_sc_mcu9t5v0__clkbuf_8
X_05450_ dp.rf.rf\[28\]\[31\] dp.rf.rf\[29\]\[31\] dp.rf.rf\[30\]\[31\]
+ dp.rf.rf\[31\]\[31\] _01267_ _01268_ _01269_ VDD VSS gf180mcu_fd_sc_mcu9t5v0__mux4_2
X_05451_ dp.rf.rf\[20\]\[31\] dp.rf.rf\[21\]\[31\] dp.rf.rf\[22\]\[31\]
+ dp.rf.rf\[23\]\[31\] _01267_ _01263_ _01270_ VDD VSS gf180mcu_fd_sc_mcu9t5v0__mux4_2
X_05452_ _01042_ _01271_ VDD VSS gf180mcu_fd_sc_mcu9t5v0__buf_16
X_05453_ _01271_ _01272_ VDD VSS gf180mcu_fd_sc_mcu9t5v0__buf_12
Xsplit89 _01049_ net264 VDD VSS gf180mcu_fd_sc_mcu9t5v0__buf_4
X_05455_ _01264_ _01265_ _01269_ _01270_ _01272_ net194 _01274_
+ VDD VSS gf180mcu_fd_sc_mcu9t5v0__mux4_4
X_05456_ _01266_ _01275_ VDD VSS gf180mcu_fd_sc_mcu9t5v0__buf_12
X_05457_ _01262_ _01276_ VDD VSS gf180mcu_fd_sc_mcu9t5v0__buf_8
X_05458_ dp.rf.rf\[8\]\[31\] dp.rf.rf\[9\]\[31\] dp.rf.rf\[10\]\[31\]
+ dp.rf.rf\[11\]\[31\] _01275_ _01276_ _01277_ VDD VSS gf180mcu_fd_sc_mcu9t5v0__mux4_2
X_05459_ dp.rf.rf\[0\]\[31\] dp.rf.rf\[1\]\[31\] dp.rf.rf\[2\]\[31\]
+ dp.rf.rf\[3\]\[31\] _01275_ _01268_ _01278_ VDD VSS gf180mcu_fd_sc_mcu9t5v0__mux4_2
X_05460_ _01266_ _01279_ VDD VSS gf180mcu_fd_sc_mcu9t5v0__buf_16
X_05461_ dp.rf.rf\[12\]\[31\] dp.rf.rf\[13\]\[31\] dp.rf.rf\[14\]\[31\]
+ dp.rf.rf\[15\]\[31\] _01279_ _01276_ _01280_ VDD VSS gf180mcu_fd_sc_mcu9t5v0__mux4_2
X_05462_ dp.rf.rf\[4\]\[31\] dp.rf.rf\[5\]\[31\] dp.rf.rf\[6\]\[31\]
+ dp.rf.rf\[7\]\[31\] _01275_ _01276_ _01281_ VDD VSS gf180mcu_fd_sc_mcu9t5v0__mux4_2
X_05463_ _01271_ _01282_ VDD VSS gf180mcu_fd_sc_mcu9t5v0__clkbuf_12
X_05464_ _01277_ _01278_ _01280_ _01281_ _01282_ net194 _01283_
+ VDD VSS gf180mcu_fd_sc_mcu9t5v0__mux4_2
X_05465_ _01037_ _01274_ _01283_ _01061_ _01284_ VDD VSS gf180mcu_fd_sc_mcu9t5v0__aoi22_4
X_05466_ net20 _01285_ VDD VSS gf180mcu_fd_sc_mcu9t5v0__clkinv_2
X_05467_ _01285_ net233 _01092_ _01286_ VDD VSS gf180mcu_fd_sc_mcu9t5v0__and3_2
X_05468_ _01259_ _01284_ _01286_ _01287_ VDD VSS gf180mcu_fd_sc_mcu9t5v0__aoi21_2
X_05469_ _01086_ _01287_ _04832_ VDD VSS gf180mcu_fd_sc_mcu9t5v0__xnor2_2
X_05470_ _04832_ _04836_ VDD VSS gf180mcu_fd_sc_mcu9t5v0__clkinv_2
X_05471_ net247 _01288_ VDD VSS gf180mcu_fd_sc_mcu9t5v0__buf_8
X_05472_ _01259_ _01289_ VDD VSS gf180mcu_fd_sc_mcu9t5v0__buf_8
X_05473_ _01289_ _01290_ VDD VSS gf180mcu_fd_sc_mcu9t5v0__clkbuf_8
X_05474_ _01030_ _01079_ _01291_ VDD VSS gf180mcu_fd_sc_mcu9t5v0__and2_2
X_05475_ _01030_ _01095_ _01097_ _01292_ VDD VSS gf180mcu_fd_sc_mcu9t5v0__aoi21_4
X_05476_ net20 _01291_ _01292_ _01293_ VDD VSS gf180mcu_fd_sc_mcu9t5v0__aoi21_4
X_05477_ net10 net1 net21 _01034_ _01294_ VDD VSS gf180mcu_fd_sc_mcu9t5v0__and4_2
X_05478_ _01082_ _01294_ _01295_ VDD VSS gf180mcu_fd_sc_mcu9t5v0__and2_2
X_05479_ _01295_ _01296_ VDD VSS gf180mcu_fd_sc_mcu9t5v0__buf_8
X_05480_ net20 _01296_ _01297_ VDD VSS gf180mcu_fd_sc_mcu9t5v0__nand2_2
X_05481_ _01293_ _01297_ _01298_ VDD VSS gf180mcu_fd_sc_mcu9t5v0__and2_2
X_05482_ _01298_ _01299_ VDD VSS gf180mcu_fd_sc_mcu9t5v0__clkbuf_8
X_05483_ _01245_ _01300_ VDD VSS gf180mcu_fd_sc_mcu9t5v0__buf_4
X_05484_ _01300_ _01301_ VDD VSS gf180mcu_fd_sc_mcu9t5v0__clkbuf_8
X_05485_ net19 _01301_ _01302_ VDD VSS gf180mcu_fd_sc_mcu9t5v0__nand2_2
X_05486_ _01285_ _01292_ _01303_ VDD VSS gf180mcu_fd_sc_mcu9t5v0__and2_2
X_05487_ _01303_ _01304_ VDD VSS gf180mcu_fd_sc_mcu9t5v0__buf_4
X_05488_ _01299_ _01302_ _01304_ _05198_ VDD VSS gf180mcu_fd_sc_mcu9t5v0__aoi21_2
X_05489_ _01275_ _01305_ VDD VSS gf180mcu_fd_sc_mcu9t5v0__clkbuf_12
X_05490_ _01276_ _01306_ VDD VSS gf180mcu_fd_sc_mcu9t5v0__buf_8
X_05491_ dp.rf.rf\[24\]\[30\] dp.rf.rf\[25\]\[30\] dp.rf.rf\[26\]\[30\]
+ dp.rf.rf\[27\]\[30\] _01305_ _01306_ _01307_ VDD VSS gf180mcu_fd_sc_mcu9t5v0__mux4_2
X_05492_ dp.rf.rf\[16\]\[30\] dp.rf.rf\[17\]\[30\] dp.rf.rf\[18\]\[30\]
+ dp.rf.rf\[19\]\[30\] _01305_ _01306_ _01308_ VDD VSS gf180mcu_fd_sc_mcu9t5v0__mux4_2
X_05493_ dp.rf.rf\[28\]\[30\] dp.rf.rf\[29\]\[30\] dp.rf.rf\[30\]\[30\]
+ dp.rf.rf\[31\]\[30\] _01305_ _01306_ _01309_ VDD VSS gf180mcu_fd_sc_mcu9t5v0__mux4_2
X_05494_ dp.rf.rf\[20\]\[30\] dp.rf.rf\[21\]\[30\] dp.rf.rf\[22\]\[30\]
+ dp.rf.rf\[23\]\[30\] _01305_ _01306_ _01310_ VDD VSS gf180mcu_fd_sc_mcu9t5v0__mux4_2
X_05495_ _01282_ _01311_ VDD VSS gf180mcu_fd_sc_mcu9t5v0__clkbuf_12
X_05496_ net194 _01312_ VDD VSS gf180mcu_fd_sc_mcu9t5v0__clkbuf_12
X_05497_ _01307_ _01308_ _01309_ _01310_ _01311_ _01312_ _01313_
+ VDD VSS gf180mcu_fd_sc_mcu9t5v0__mux4_2
X_05498_ dp.rf.rf\[8\]\[30\] dp.rf.rf\[9\]\[30\] dp.rf.rf\[10\]\[30\]
+ dp.rf.rf\[11\]\[30\] _01305_ _01306_ _01314_ VDD VSS gf180mcu_fd_sc_mcu9t5v0__mux4_2
X_05499_ dp.rf.rf\[0\]\[30\] dp.rf.rf\[1\]\[30\] dp.rf.rf\[2\]\[30\]
+ dp.rf.rf\[3\]\[30\] _01305_ _01306_ _01315_ VDD VSS gf180mcu_fd_sc_mcu9t5v0__mux4_2
X_05500_ _01102_ _01316_ VDD VSS gf180mcu_fd_sc_mcu9t5v0__clkbuf_8
X_05501_ _01316_ _01317_ VDD VSS gf180mcu_fd_sc_mcu9t5v0__buf_8
X_05502_ dp.rf.rf\[12\]\[30\] dp.rf.rf\[13\]\[30\] dp.rf.rf\[14\]\[30\]
+ dp.rf.rf\[15\]\[30\] _01305_ _01317_ _01318_ VDD VSS gf180mcu_fd_sc_mcu9t5v0__mux4_2
X_05503_ dp.rf.rf\[4\]\[30\] dp.rf.rf\[5\]\[30\] dp.rf.rf\[6\]\[30\]
+ dp.rf.rf\[7\]\[30\] _01305_ _01306_ _01319_ VDD VSS gf180mcu_fd_sc_mcu9t5v0__mux4_2
X_05504_ _01314_ _01315_ _01318_ _01319_ _01311_ _01312_ _01320_
+ VDD VSS gf180mcu_fd_sc_mcu9t5v0__mux4_2
X_05505_ _01111_ _01313_ _01320_ _01112_ _01321_ VDD VSS gf180mcu_fd_sc_mcu9t5v0__aoi22_4
X_05506_ _01290_ _01321_ _01322_ VDD VSS gf180mcu_fd_sc_mcu9t5v0__nand2_2
X_05507_ _01290_ _05198_ _01322_ _01323_ VDD VSS gf180mcu_fd_sc_mcu9t5v0__oai21_2
X_05508_ _01288_ _01323_ _04841_ VDD VSS gf180mcu_fd_sc_mcu9t5v0__xor2_2
X_05509_ _04841_ _04845_ VDD VSS gf180mcu_fd_sc_mcu9t5v0__clkinv_2
X_05510_ net160 _01324_ VDD VSS gf180mcu_fd_sc_mcu9t5v0__buf_8
X_05511_ net257 _01252_ _01325_ VDD VSS gf180mcu_fd_sc_mcu9t5v0__and2_4
X_05512_ dp.rf.rf\[28\]\[30\] _01326_ VDD VSS gf180mcu_fd_sc_mcu9t5v0__clkinv_2
X_05513_ _01249_ _01327_ VDD VSS gf180mcu_fd_sc_mcu9t5v0__clkbuf_12
X_05514_ _01189_ _01328_ VDD VSS gf180mcu_fd_sc_mcu9t5v0__clkbuf_12
X_05515_ dp.rf.rf\[25\]\[30\] dp.rf.rf\[29\]\[30\] _01248_
+ _01329_ VDD VSS gf180mcu_fd_sc_mcu9t5v0__mux2_2
X_05516_ _01328_ _01329_ _01330_ VDD VSS gf180mcu_fd_sc_mcu9t5v0__nor2_2
X_05517_ _01326_ _01327_ _01330_ _01213_ _01331_ VDD VSS gf180mcu_fd_sc_mcu9t5v0__aoi211_2
X_05518_ dp.rf.rf\[24\]\[30\] _01325_ _01331_ _01245_ _01332_
+ VDD VSS gf180mcu_fd_sc_mcu9t5v0__oai22_2
X_05519_ net7 net186 _01333_ VDD VSS gf180mcu_fd_sc_mcu9t5v0__and2_2
X_05520_ _01333_ _01334_ VDD VSS gf180mcu_fd_sc_mcu9t5v0__buf_12
X_05521_ _01334_ _01335_ VDD VSS gf180mcu_fd_sc_mcu9t5v0__clkbuf_12
X_05522_ dp.rf.rf\[26\]\[30\] dp.rf.rf\[27\]\[30\] dp.rf.rf\[30\]\[30\]
+ dp.rf.rf\[31\]\[30\] _01136_ _01139_ _01336_ VDD VSS gf180mcu_fd_sc_mcu9t5v0__mux4_2
X_05523_ _01131_ _01337_ VDD VSS gf180mcu_fd_sc_mcu9t5v0__clkbuf_12
X_05524_ _01335_ _01336_ _01337_ _01338_ VDD VSS gf180mcu_fd_sc_mcu9t5v0__aoi21_2
X_05525_ _01182_ _01339_ VDD VSS gf180mcu_fd_sc_mcu9t5v0__clkbuf_12
X_05526_ _01194_ _01340_ VDD VSS gf180mcu_fd_sc_mcu9t5v0__clkbuf_12
X_05527_ dp.rf.rf\[22\]\[30\] dp.rf.rf\[23\]\[30\] _01340_
+ _01341_ VDD VSS gf180mcu_fd_sc_mcu9t5v0__mux2_2
X_05528_ net180 _01027_ net217 _01120_ _01342_ VDD VSS gf180mcu_fd_sc_mcu9t5v0__oai31_4
X_05529_ dp.rf.rf\[18\]\[30\] net201 _01343_ VDD VSS gf180mcu_fd_sc_mcu9t5v0__and2_2
X_05530_ _01223_ _01344_ VDD VSS gf180mcu_fd_sc_mcu9t5v0__clkbuf_12
X_05531_ _01238_ _01345_ VDD VSS gf180mcu_fd_sc_mcu9t5v0__clkbuf_12
X_05532_ dp.rf.rf\[19\]\[30\] _01345_ _01346_ VDD VSS gf180mcu_fd_sc_mcu9t5v0__nand2_2
X_05533_ _01344_ _01346_ _01347_ VDD VSS gf180mcu_fd_sc_mcu9t5v0__nand2_2
X_05534_ _01339_ _01341_ _01343_ _01347_ _01334_ _01348_ VDD
+ VSS gf180mcu_fd_sc_mcu9t5v0__oai221_4
X_05535_ _01174_ net167 _01027_ _01131_ _01349_ VDD VSS gf180mcu_fd_sc_mcu9t5v0__oai31_4
X_05536_ dp.rf.rf\[20\]\[30\] _01350_ VDD VSS gf180mcu_fd_sc_mcu9t5v0__clkinv_2
X_05537_ dp.rf.rf\[17\]\[30\] dp.rf.rf\[21\]\[30\] _01129_
+ _01351_ VDD VSS gf180mcu_fd_sc_mcu9t5v0__mux2_2