
* cell parameterized_uart_rx
* pin parity_error
* pin rst_n
* pin rx
* pin frame_error
* pin data_out[3]
* pin clk
* pin data_out[0]
* pin data_out[1]
* pin data_out[6]
* pin data_out[5]
* pin data_out[7]
* pin data_out[4]
* pin data_valid
* pin data_out[2]
* pin NWELL
* pin PWELL,gf180mcu_gnd
.SUBCKT parameterized_uart_rx 1 79 80 124 182 229 269 277 313 365 396 407 408
+ 424 425 426
* net 1 parity_error
* net 79 rst_n
* net 80 rx
* net 124 frame_error
* net 182 data_out[3]
* net 229 clk
* net 269 data_out[0]
* net 277 data_out[1]
* net 313 data_out[6]
* net 365 data_out[5]
* net 396 data_out[7]
* net 407 data_out[4]
* net 408 data_valid
* net 424 data_out[2]
* net 425 NWELL
* net 426 PWELL,gf180mcu_gnd
* cell instance $3 r0 *1 161.28,5.04
X$3 2 425 426 1 gf180mcu_fd_sc_mcu9t5v0__dlyb_2
* cell instance $7 r0 *1 166.32,35.28
X$7 425 2 426 61 63 59 gf180mcu_fd_sc_mcu9t5v0__oai21_2
* cell instance $9 m0 *1 162.4,45.36
X$9 425 77 426 78 60 2 gf180mcu_fd_sc_mcu9t5v0__oai21_2
* cell instance $11 r0 *1 148.96,25.2
X$11 426 6 2 9 49 425 gf180mcu_fd_sc_mcu9t5v0__dffrnq_2
* cell instance $13 m0 *1 61.04,25.2
X$13 425 27 426 16 21 3 gf180mcu_fd_sc_mcu9t5v0__oai21_2
* cell instance $15 m0 *1 65.52,15.12
X$15 426 425 15 3 gf180mcu_fd_sc_mcu9t5v0__clkinv_2
* cell instance $17 m0 *1 91.28,15.12
X$17 426 6 7 4 5 425 gf180mcu_fd_sc_mcu9t5v0__dffrnq_2
* cell instance $19 r0 *1 52.08,15.12
X$19 426 6 15 4 21 425 gf180mcu_fd_sc_mcu9t5v0__dffrnq_2
* cell instance $21 r0 *1 64.96,35.28
X$21 426 425 4 gf180mcu_fd_sc_mcu9t5v0__inv_4
* cell instance $24 r0 *1 41.44,35.28
X$24 426 6 55 4 54 425 gf180mcu_fd_sc_mcu9t5v0__dffrnq_2
* cell instance $27 m0 *1 87.36,25.2
X$27 426 6 31 4 32 425 gf180mcu_fd_sc_mcu9t5v0__dffrnq_2
* cell instance $34 r0 *1 71.12,15.12
X$34 426 6 11 4 10 425 gf180mcu_fd_sc_mcu9t5v0__dffrnq_2
* cell instance $36 m0 *1 65.52,45.36
X$36 426 425 73 4 gf180mcu_fd_sc_mcu9t5v0__clkbuf_4
* cell instance $38 m0 *1 94.64,75.6
X$38 426 6 75 4 131 425 gf180mcu_fd_sc_mcu9t5v0__dffrnq_2
* cell instance $41 r0 *1 92.96,25.2
X$41 425 38 426 16 5 39 gf180mcu_fd_sc_mcu9t5v0__oai21_2
* cell instance $43 r0 *1 173.04,75.6
X$43 426 6 61 113 143 425 gf180mcu_fd_sc_mcu9t5v0__dffrnq_4
* cell instance $45 r0 *1 178.64,35.28
X$45 426 62 6 425 gf180mcu_fd_sc_mcu9t5v0__buf_20
* cell instance $114 r0 *1 161.28,45.36
X$114 426 6 90 9 89 425 gf180mcu_fd_sc_mcu9t5v0__dffrnq_2
* cell instance $119 r0 *1 194.32,105.84
X$119 426 6 224 113 227 425 gf180mcu_fd_sc_mcu9t5v0__dffrnq_2
* cell instance $121 r0 *1 140,105.84
X$121 426 6 222 9 230 425 gf180mcu_fd_sc_mcu9t5v0__dffrnq_2
* cell instance $125 m0 *1 147.28,35.28
X$125 426 6 47 9 46 425 gf180mcu_fd_sc_mcu9t5v0__dffrnq_2
* cell instance $130 r0 *1 194.32,196.56
X$130 426 6 423 267 422 425 gf180mcu_fd_sc_mcu9t5v0__dffrnq_2
* cell instance $132 r0 *1 190.96,65.52
X$132 426 6 133 113 145 425 gf180mcu_fd_sc_mcu9t5v0__dffrnq_2
* cell instance $134 m0 *1 113.12,15.12
X$134 426 6 8 9 29 425 gf180mcu_fd_sc_mcu9t5v0__dffrnq_2
* cell instance $137 r0 *1 194.32,75.6
X$137 426 6 177 113 176 425 gf180mcu_fd_sc_mcu9t5v0__dffrnq_2
* cell instance $139 r0 *1 171.36,95.76
X$139 426 6 201 113 210 425 gf180mcu_fd_sc_mcu9t5v0__dffrnq_2
* cell instance $144 r0 *1 190.4,95.76
X$144 426 6 209 113 208 425 gf180mcu_fd_sc_mcu9t5v0__dffrnq_2
* cell instance $146 m0 *1 155.12,95.76
X$146 426 6 192 9 191 425 gf180mcu_fd_sc_mcu9t5v0__dffrnq_2
* cell instance $148 r0 *1 129.92,25.2
X$148 426 6 40 9 41 425 gf180mcu_fd_sc_mcu9t5v0__dffrnq_2
* cell instance $154 r0 *1 184.24,126
X$154 426 6 276 267 291 425 gf180mcu_fd_sc_mcu9t5v0__dffrnq_2
* cell instance $157 r0 *1 194.32,115.92
X$157 426 6 268 267 252 425 gf180mcu_fd_sc_mcu9t5v0__dffrnq_2
* cell instance $159 r0 *1 5.6,166.32
X$159 426 6 354 195 379 425 gf180mcu_fd_sc_mcu9t5v0__dffrnq_2
* cell instance $162 r0 *1 28,176.4
X$162 426 6 355 195 409 425 gf180mcu_fd_sc_mcu9t5v0__dffrnq_2
* cell instance $164 m0 *1 35.28,156.24
X$164 426 6 282 195 321 425 gf180mcu_fd_sc_mcu9t5v0__dffrnq_2
* cell instance $167 m0 *1 16.24,156.24
X$167 426 6 260 195 345 425 gf180mcu_fd_sc_mcu9t5v0__dffrnq_2
* cell instance $169 m0 *1 159.6,166.32
X$169 426 6 358 325 370 425 gf180mcu_fd_sc_mcu9t5v0__dffrnq_2
* cell instance $172 m0 *1 61.04,166.32
X$172 426 6 283 232 363 425 gf180mcu_fd_sc_mcu9t5v0__dffrnq_2
* cell instance $174 m0 *1 92.96,186.48
X$174 426 6 357 325 416 425 gf180mcu_fd_sc_mcu9t5v0__dffrnq_2
* cell instance $177 r0 *1 70.56,176.4
X$177 426 6 162 232 399 425 gf180mcu_fd_sc_mcu9t5v0__dffrnq_2
* cell instance $179 m0 *1 137.2,156.24
X$179 426 6 348 325 343 425 gf180mcu_fd_sc_mcu9t5v0__dffrnq_2
* cell instance $181 m0 *1 178.64,166.32
X$181 426 6 351 267 368 425 gf180mcu_fd_sc_mcu9t5v0__dffrnq_2
* cell instance $184 r0 *1 115.92,186.48
X$184 426 6 296 325 411 425 gf180mcu_fd_sc_mcu9t5v0__dffrnq_2
* cell instance $186 r0 *1 193.2,166.32
X$186 426 6 386 267 387 425 gf180mcu_fd_sc_mcu9t5v0__dffrnq_2
* cell instance $188 m0 *1 140.56,176.4
X$188 426 6 356 325 389 425 gf180mcu_fd_sc_mcu9t5v0__dffrnq_2
* cell instance $190 r0 *1 194.32,156.24
X$190 426 6 377 267 367 425 gf180mcu_fd_sc_mcu9t5v0__dffrnq_2
* cell instance $193 r0 *1 194.32,136.08
X$193 426 6 307 267 315 425 gf180mcu_fd_sc_mcu9t5v0__dffrnq_2
* cell instance $195 m0 *1 98.56,146.16
X$195 426 6 304 325 332 425 gf180mcu_fd_sc_mcu9t5v0__dffrnq_2
* cell instance $197 r0 *1 146.72,115.92
X$197 426 6 251 325 250 425 gf180mcu_fd_sc_mcu9t5v0__dffrnq_2
* cell instance $199 r0 *1 189.84,146.16
X$199 426 6 326 267 340 425 gf180mcu_fd_sc_mcu9t5v0__dffrnq_2
* cell instance $201 m0 *1 96.88,115.92
X$201 426 6 247 232 219 425 gf180mcu_fd_sc_mcu9t5v0__dffrnq_2
* cell instance $203 r0 *1 188.72,186.48
X$203 426 6 415 267 406 425 gf180mcu_fd_sc_mcu9t5v0__dffrnq_2
* cell instance $205 r0 *1 23.52,85.68
X$205 426 6 188 33 183 425 gf180mcu_fd_sc_mcu9t5v0__dffrnq_2
* cell instance $207 r0 *1 4.48,95.76
X$207 426 6 196 195 225 425 gf180mcu_fd_sc_mcu9t5v0__dffrnq_2
* cell instance $209 r0 *1 26.88,25.2
X$209 426 6 34 33 24 425 gf180mcu_fd_sc_mcu9t5v0__dffrnq_2
* cell instance $211 r0 *1 12.88,55.44
X$211 426 6 96 33 125 425 gf180mcu_fd_sc_mcu9t5v0__dffrnq_2
* cell instance $213 r0 *1 14.56,65.52
X$213 426 6 140 33 151 425 gf180mcu_fd_sc_mcu9t5v0__dffrnq_2
* cell instance $216 m0 *1 17.36,55.44
X$216 426 6 105 33 115 425 gf180mcu_fd_sc_mcu9t5v0__dffrnq_2
* cell instance $218 r0 *1 155.68,186.48
X$218 426 6 404 325 403 425 gf180mcu_fd_sc_mcu9t5v0__dffrnq_2
* cell instance $221 m0 *1 3.36,126
X$221 426 6 197 195 289 425 gf180mcu_fd_sc_mcu9t5v0__dffrnq_2
* cell instance $223 m0 *1 168.56,186.48
X$223 426 6 405 267 414 425 gf180mcu_fd_sc_mcu9t5v0__dffrnq_2
* cell instance $225 m0 *1 29.12,136.08
X$225 426 6 263 195 301 425 gf180mcu_fd_sc_mcu9t5v0__dffrnq_2
* cell instance $227 r0 *1 56.56,115.92
X$227 426 6 161 232 272 425 gf180mcu_fd_sc_mcu9t5v0__dffrnq_2
* cell instance $229 r0 *1 117.6,105.84
X$229 426 6 200 9 240 425 gf180mcu_fd_sc_mcu9t5v0__dffrnq_2
* cell instance $232 m0 *1 75.04,105.84
X$232 426 6 216 232 199 425 gf180mcu_fd_sc_mcu9t5v0__dffrnq_2
* cell instance $235 r0 *1 168,196.56
X$235 426 6 421 267 420 425 gf180mcu_fd_sc_mcu9t5v0__dffrnq_2
* cell instance $237 m0 *1 61.6,146.16
X$237 426 6 295 232 342 425 gf180mcu_fd_sc_mcu9t5v0__dffrnq_2
* cell instance $239 m0 *1 103.04,55.44
X$239 7 425 31 67 426 107 gf180mcu_fd_sc_mcu9t5v0__and3_2
* cell instance $242 m0 *1 112.56,55.44
X$242 425 7 31 426 108 gf180mcu_fd_sc_mcu9t5v0__and2_2
* cell instance $245 m0 *1 109.76,35.28
X$245 7 31 40 8 426 425 51 gf180mcu_fd_sc_mcu9t5v0__and4_2
* cell instance $247 m0 *1 109.76,45.36
X$247 426 425 7 39 gf180mcu_fd_sc_mcu9t5v0__inv_2
* cell instance $253 r0 *1 101.92,25.2
X$253 426 425 52 7 22 gf180mcu_fd_sc_mcu9t5v0__nor2_2
* cell instance $256 m0 *1 102.48,35.28
X$256 425 7 22 426 53 gf180mcu_fd_sc_mcu9t5v0__and2_2
* cell instance $258 r0 *1 113.68,15.12
X$258 426 425 8 12 gf180mcu_fd_sc_mcu9t5v0__clkinv_2
* cell instance $260 r0 *1 109.2,25.2
X$260 67 426 425 40 8 430 gf180mcu_fd_sc_mcu9t5v0__addh_1
* cell instance $262 m0 *1 124.88,35.28
X$262 68 426 425 14 8 428 gf180mcu_fd_sc_mcu9t5v0__addh_1
* cell instance $278 r0 *1 155.68,65.52
X$278 426 425 9 gf180mcu_fd_sc_mcu9t5v0__clkinv_3
* cell instance $291 m0 *1 148.4,65.52
X$291 426 425 73 9 gf180mcu_fd_sc_mcu9t5v0__clkbuf_4
* cell instance $294 m0 *1 73.92,25.2
X$294 425 28 426 16 10 17 gf180mcu_fd_sc_mcu9t5v0__oai21_2
* cell instance $296 m0 *1 98,55.44
X$296 425 11 75 426 99 gf180mcu_fd_sc_mcu9t5v0__and2_2
* cell instance $298 m0 *1 79.52,35.28
X$298 425 11 36 426 50 gf180mcu_fd_sc_mcu9t5v0__and2_2
* cell instance $300 m0 *1 69.44,65.52
X$300 11 425 75 15 426 129 gf180mcu_fd_sc_mcu9t5v0__and3_2
* cell instance $302 r0 *1 68.32,65.52
X$302 11 75 55 15 426 425 141 gf180mcu_fd_sc_mcu9t5v0__and4_2
* cell instance $304 r0 *1 92.96,15.12
X$304 426 425 11 17 gf180mcu_fd_sc_mcu9t5v0__clkinv_2
* cell instance $307 r0 *1 111.44,45.36
X$307 426 94 31 11 86 39 425 gf180mcu_fd_sc_mcu9t5v0__nor4_4
* cell instance $315 r0 *1 73.36,25.2
X$315 426 425 35 11 36 gf180mcu_fd_sc_mcu9t5v0__nor2_2
* cell instance $318 r0 *1 111.44,55.44
X$318 39 31 11 86 425 426 121 gf180mcu_fd_sc_mcu9t5v0__or4_2
* cell instance $323 r0 *1 118.72,25.2
X$323 42 426 425 40 12 431 gf180mcu_fd_sc_mcu9t5v0__addh_1
* cell instance $326 r0 *1 123.76,15.12
X$326 13 426 425 14 12 19 gf180mcu_fd_sc_mcu9t5v0__addh_1
* cell instance $333 m0 *1 112,25.2
X$333 425 20 426 23 26 29 12 gf180mcu_fd_sc_mcu9t5v0__oai22_2
* cell instance $335 r0 *1 117.04,15.12
X$335 18 426 14 12 425 22 gf180mcu_fd_sc_mcu9t5v0__or3_2
* cell instance $338 m0 *1 122.08,25.2
X$338 425 17 13 426 30 gf180mcu_fd_sc_mcu9t5v0__and2_2
* cell instance $343 m0 *1 134.4,35.28
X$343 426 425 40 14 gf180mcu_fd_sc_mcu9t5v0__clkinv_2
* cell instance $349 r0 *1 126.56,35.28
X$349 426 425 41 57 14 69 gf180mcu_fd_sc_mcu9t5v0__mux2_2
* cell instance $354 m0 *1 73.36,45.36
X$354 425 15 98 426 74 gf180mcu_fd_sc_mcu9t5v0__and2_2
* cell instance $359 r0 *1 70,55.44
X$359 55 15 99 107 426 425 118 gf180mcu_fd_sc_mcu9t5v0__and4_2
* cell instance $361 m0 *1 70.56,75.6
X$361 55 15 96 162 425 426 155 gf180mcu_fd_sc_mcu9t5v0__or4_2
* cell instance $369 m0 *1 69.44,55.44
X$369 426 425 85 15 98 gf180mcu_fd_sc_mcu9t5v0__nor2_2
* cell instance $371 r0 *1 58.8,25.2
X$371 426 26 16 425 gf180mcu_fd_sc_mcu9t5v0__clkbuf_8
* cell instance $384 m0 *1 54.32,55.44
X$384 425 116 426 16 115 97 gf180mcu_fd_sc_mcu9t5v0__oai21_2
* cell instance $386 r0 *1 92.96,105.84
X$386 425 218 426 16 219 233 gf180mcu_fd_sc_mcu9t5v0__oai21_2
* cell instance $390 m0 *1 94.64,65.52
X$390 425 130 426 16 131 120 gf180mcu_fd_sc_mcu9t5v0__oai21_2
* cell instance $392 m0 *1 45.36,45.36
X$392 425 81 426 16 54 70 gf180mcu_fd_sc_mcu9t5v0__oai21_2
* cell instance $395 r0 *1 89.6,35.28
X$395 425 56 426 16 32 18 gf180mcu_fd_sc_mcu9t5v0__oai21_2
* cell instance $397 m0 *1 90.72,146.16
X$397 425 311 426 16 332 323 gf180mcu_fd_sc_mcu9t5v0__oai21_2
* cell instance $399 r0 *1 70,146.16
X$399 425 322 426 16 342 303 gf180mcu_fd_sc_mcu9t5v0__oai21_2
* cell instance $407 m0 *1 98.56,45.36
X$407 425 18 67 426 83 gf180mcu_fd_sc_mcu9t5v0__and2_2
* cell instance $409 m0 *1 117.6,55.44
X$409 426 117 68 18 39 425 99 gf180mcu_fd_sc_mcu9t5v0__nand4_2
* cell instance $411 r0 *1 120.4,55.44
X$411 39 18 68 99 426 425 110 gf180mcu_fd_sc_mcu9t5v0__and4_2
* cell instance $421 r0 *1 108.08,45.36
X$421 426 425 31 18 gf180mcu_fd_sc_mcu9t5v0__inv_2
* cell instance $424 r0 *1 95.2,45.36
X$424 426 425 95 18 67 gf180mcu_fd_sc_mcu9t5v0__nor2_2
* cell instance $427 m0 *1 131.6,25.2
X$427 426 425 19 20 gf180mcu_fd_sc_mcu9t5v0__clkinv_2
* cell instance $443 m0 *1 97.44,95.76
X$443 71 425 65 23 426 66 gf180mcu_fd_sc_mcu9t5v0__nor3_4
* cell instance $453 r0 *1 146.16,35.28
X$453 426 425 46 58 23 59 gf180mcu_fd_sc_mcu9t5v0__mux2_2
* cell instance $457 m0 *1 33.6,85.68
X$457 425 194 426 23 26 183 168 gf180mcu_fd_sc_mcu9t5v0__oai22_2
* cell instance $460 r0 *1 75.04,95.76
X$460 425 217 426 23 26 199 213 gf180mcu_fd_sc_mcu9t5v0__oai22_2
* cell instance $462 m0 *1 33.04,25.2
X$462 425 43 426 23 26 24 25 gf180mcu_fd_sc_mcu9t5v0__oai22_2
* cell instance $464 m0 *1 32.48,65.52
X$464 425 426 23 104 160 106 125 26 gf180mcu_fd_sc_mcu9t5v0__oai221_2
* cell instance $470 m0 *1 37.52,35.28
X$470 426 425 34 25 gf180mcu_fd_sc_mcu9t5v0__clkinv_2
* cell instance $477 m0 *1 52.64,95.76
X$477 426 26 178 425 gf180mcu_fd_sc_mcu9t5v0__clkbuf_8
* cell instance $489 m0 *1 112,95.76
X$489 425 185 172 26 426 gf180mcu_fd_sc_mcu9t5v0__and2_4
* cell instance $496 r0 *1 65.52,45.36
X$496 425 426 71 66 65 74 27 85 gf180mcu_fd_sc_mcu9t5v0__oai32_2
* cell instance $501 m0 *1 67.2,35.28
X$501 425 426 45 44 37 50 28 35 gf180mcu_fd_sc_mcu9t5v0__oai32_2
* cell instance $506 m0 *1 126.56,55.44
X$506 426 66 30 76 100 101 94 425 gf180mcu_fd_sc_mcu9t5v0__aoi221_4
* cell instance $508 m0 *1 132.16,65.52
X$508 120 108 30 138 426 425 136 gf180mcu_fd_sc_mcu9t5v0__and4_2
* cell instance $534 r0 *1 31.92,55.44
X$534 426 33 425 gf180mcu_fd_sc_mcu9t5v0__clkbuf_12
* cell instance $537 r0 *1 33.6,65.52
X$537 426 425 73 33 gf180mcu_fd_sc_mcu9t5v0__clkbuf_4
* cell instance $552 m0 *1 46.48,75.6
X$552 105 140 34 161 425 426 154 gf180mcu_fd_sc_mcu9t5v0__or4_2
* cell instance $555 r0 *1 31.92,35.28
X$555 425 34 64 426 43 gf180mcu_fd_sc_mcu9t5v0__xnor2_2
* cell instance $562 m0 *1 39.2,75.6
X$562 96 105 140 34 426 425 153 gf180mcu_fd_sc_mcu9t5v0__and4_2
* cell instance $565 m0 *1 44.8,65.52
X$565 96 425 105 34 426 128 gf180mcu_fd_sc_mcu9t5v0__and3_2
* cell instance $574 r0 *1 73.36,35.28
X$574 426 425 75 36 51 gf180mcu_fd_sc_mcu9t5v0__nand2_2
* cell instance $576 r0 *1 66.08,136.08
X$576 425 426 45 44 37 318 322 308 gf180mcu_fd_sc_mcu9t5v0__oai32_2
* cell instance $578 m0 *1 50.96,115.92
X$578 425 426 45 44 37 255 279 243 gf180mcu_fd_sc_mcu9t5v0__oai32_2
* cell instance $580 r0 *1 86.8,85.68
X$580 426 425 65 37 gf180mcu_fd_sc_mcu9t5v0__buf_4
* cell instance $583 m0 *1 84.56,115.92
X$583 425 426 45 44 37 245 218 259 gf180mcu_fd_sc_mcu9t5v0__oai32_2
* cell instance $585 r0 *1 48.72,146.16
X$585 425 426 45 44 37 352 346 334 gf180mcu_fd_sc_mcu9t5v0__oai32_2
* cell instance $587 m0 *1 49.28,146.16
X$587 425 426 45 44 37 329 341 317 gf180mcu_fd_sc_mcu9t5v0__oai32_2
* cell instance $589 r0 *1 88.48,146.16
X$589 425 426 45 44 37 333 311 336 gf180mcu_fd_sc_mcu9t5v0__oai32_2
* cell instance $591 m0 *1 86.24,45.36
X$591 425 426 45 44 37 95 56 83 gf180mcu_fd_sc_mcu9t5v0__oai32_2
* cell instance $593 m0 *1 88.48,35.28
X$593 425 426 45 44 37 53 38 52 gf180mcu_fd_sc_mcu9t5v0__oai32_2
* cell instance $596 r0 *1 88.48,65.52
X$596 425 426 45 44 37 147 130 139 gf180mcu_fd_sc_mcu9t5v0__oai32_2
* cell instance $644 m0 *1 113.12,45.36
X$644 426 425 75 86 42 gf180mcu_fd_sc_mcu9t5v0__nand2_2
* cell instance $651 m0 *1 81.2,65.52
X$651 426 425 66 44 gf180mcu_fd_sc_mcu9t5v0__buf_4
* cell instance $686 r0 *1 81.76,55.44
X$686 426 425 71 45 gf180mcu_fd_sc_mcu9t5v0__buf_4
* cell instance $703 r0 *1 172.48,55.44
X$703 426 425 47 90 112 gf180mcu_fd_sc_mcu9t5v0__nor2_4
* cell instance $706 r0 *1 162.96,55.44
X$706 102 426 47 61 425 123 gf180mcu_fd_sc_mcu9t5v0__or3_2
* cell instance $709 m0 *1 170.8,35.28
X$709 426 425 47 59 gf180mcu_fd_sc_mcu9t5v0__buf_4
* cell instance $714 m0 *1 206.08,35.28
X$714 48 425 426 62 gf180mcu_fd_sc_mcu9t5v0__buf_3
* cell instance $718 m0 *1 188.16,45.36
X$718 426 48 79 425 gf180mcu_fd_sc_mcu9t5v0__dlyc_2
* cell instance $723 r0 *1 161.28,35.28
X$723 426 425 60 49 63 gf180mcu_fd_sc_mcu9t5v0__nand2_2
* cell instance $729 r0 *1 45.36,65.52
X$729 426 137 129 51 55 425 128 gf180mcu_fd_sc_mcu9t5v0__nand4_2
* cell instance $732 m0 *1 56.56,65.52
X$732 426 425 51 84 129 gf180mcu_fd_sc_mcu9t5v0__nand2_2
* cell instance $735 r0 *1 43.12,105.84
X$735 426 141 51 153 231 198 425 gf180mcu_fd_sc_mcu9t5v0__and4_4
* cell instance $738 m0 *1 35.84,105.84
X$738 426 212 153 51 196 425 141 gf180mcu_fd_sc_mcu9t5v0__nand4_2
* cell instance $759 r0 *1 48.16,45.36
X$759 426 425 55 70 gf180mcu_fd_sc_mcu9t5v0__clkinv_2
* cell instance $762 r0 *1 57.68,45.36
X$762 425 55 84 426 72 gf180mcu_fd_sc_mcu9t5v0__and2_2
* cell instance $768 r0 *1 52.08,45.36
X$768 426 425 82 55 84 gf180mcu_fd_sc_mcu9t5v0__nor2_2
* cell instance $780 m0 *1 125.44,45.36
X$780 66 426 71 65 425 57 gf180mcu_fd_sc_mcu9t5v0__or3_2
* cell instance $785 r0 *1 151.2,45.36
X$785 425 57 426 93 88 89 102 gf180mcu_fd_sc_mcu9t5v0__oai22_2
* cell instance $788 m0 *1 146.72,45.36
X$788 87 76 77 58 59 425 426 gf180mcu_fd_sc_mcu9t5v0__aoi211_2
* cell instance $790 m0 *1 176.4,75.6
X$790 77 59 87 156 425 426 158 gf180mcu_fd_sc_mcu9t5v0__or4_2
* cell instance $793 m0 *1 160.16,55.44
X$793 426 103 91 59 102 174 425 gf180mcu_fd_sc_mcu9t5v0__nand4_4
* cell instance $797 m0 *1 139.44,65.52
X$797 59 425 122 109 426 138 gf180mcu_fd_sc_mcu9t5v0__and3_2
* cell instance $799 m0 *1 148.96,55.44
X$799 59 425 76 87 426 111 gf180mcu_fd_sc_mcu9t5v0__and3_2
* cell instance $802 m0 *1 155.12,55.44
X$802 426 425 102 101 59 gf180mcu_fd_sc_mcu9t5v0__nand2_2
* cell instance $804 r0 *1 156.24,55.44
X$804 426 425 59 126 gf180mcu_fd_sc_mcu9t5v0__clkinv_2
* cell instance $819 m0 *1 166.88,75.6
X$819 425 157 146 59 76 77 426 gf180mcu_fd_sc_mcu9t5v0__oai211_2
* cell instance $827 m0 *1 131.04,85.68
X$827 425 426 61 172 77 gf180mcu_fd_sc_mcu9t5v0__nand2_4
* cell instance $829 m0 *1 185.36,55.44
X$829 426 425 61 103 gf180mcu_fd_sc_mcu9t5v0__clkinv_2
* cell instance $831 m0 *1 141.68,75.6
X$831 426 148 163 206 142 61 425 gf180mcu_fd_sc_mcu9t5v0__oai31_4
* cell instance $833 r0 *1 160.16,65.52
X$833 426 425 61 132 112 gf180mcu_fd_sc_mcu9t5v0__nand2_2
* cell instance $835 m0 *1 126,65.52
X$835 120 425 61 108 426 100 gf180mcu_fd_sc_mcu9t5v0__and3_2
* cell instance $848 r0 *1 144.48,45.36
X$848 61 426 87 101 425 93 gf180mcu_fd_sc_mcu9t5v0__or3_2
* cell instance $850 r0 *1 126,75.6
X$850 425 77 61 426 171 gf180mcu_fd_sc_mcu9t5v0__and2_2
* cell instance $854 r0 *1 157.92,75.6
X$854 426 425 88 61 156 180 gf180mcu_fd_sc_mcu9t5v0__mux2_2
* cell instance $861 r0 *1 192.64,55.44
X$861 426 114 113 92 62 425 gf180mcu_fd_sc_mcu9t5v0__dffsnq_2
* cell instance $863 r0 *1 192.64,45.36
X$863 426 91 113 114 62 425 gf180mcu_fd_sc_mcu9t5v0__dffsnq_2
* cell instance $870 r0 *1 30.24,45.36
X$870 96 425 105 118 426 64 gf180mcu_fd_sc_mcu9t5v0__and3_2
* cell instance $872 m0 *1 119.28,75.6
X$872 426 65 112 122 76 171 109 425 gf180mcu_fd_sc_mcu9t5v0__aoi221_4
* cell instance $877 m0 *1 114.8,105.84
X$877 426 425 65 220 gf180mcu_fd_sc_mcu9t5v0__buf_4
* cell instance $880 m0 *1 53.2,45.36
X$880 425 426 71 66 65 72 81 82 gf180mcu_fd_sc_mcu9t5v0__oai32_2
* cell instance $882 r0 *1 60.48,95.76
X$882 426 65 165 425 gf180mcu_fd_sc_mcu9t5v0__clkbuf_8
* cell instance $885 r0 *1 56,55.44
X$885 425 426 71 66 65 119 116 127 gf180mcu_fd_sc_mcu9t5v0__oai32_2
* cell instance $898 r0 *1 109.76,105.84
X$898 426 425 66 246 gf180mcu_fd_sc_mcu9t5v0__buf_4
* cell instance $901 r0 *1 62.16,85.68
X$901 426 66 149 425 gf180mcu_fd_sc_mcu9t5v0__clkbuf_8
* cell instance $934 r0 *1 133.84,85.68
X$934 426 425 172 69 185 gf180mcu_fd_sc_mcu9t5v0__nand2_2
* cell instance $936 r0 *1 36.4,45.36
X$936 425 96 426 104 97 70 84 gf180mcu_fd_sc_mcu9t5v0__oai31_2
* cell instance $943 m0 *1 40.32,55.44
X$943 426 135 84 425 97 70 96 gf180mcu_fd_sc_mcu9t5v0__nor4_2
* cell instance $947 m0 *1 122.64,105.84
X$947 426 425 71 249 gf180mcu_fd_sc_mcu9t5v0__buf_4
* cell instance $949 m0 *1 63.84,85.68
X$949 426 71 152 425 gf180mcu_fd_sc_mcu9t5v0__clkbuf_8
* cell instance $965 r0 *1 119.28,65.52
X$965 426 71 132 164 110 425 gf180mcu_fd_sc_mcu9t5v0__aoi21_4
* cell instance $970 m0 *1 70.56,136.08
X$970 426 425 73 232 gf180mcu_fd_sc_mcu9t5v0__clkbuf_4
* cell instance $973 r0 *1 101.92,105.84
X$973 426 425 229 73 gf180mcu_fd_sc_mcu9t5v0__clkbuf_4
* cell instance $976 m0 *1 182,85.68
X$976 426 425 73 113 gf180mcu_fd_sc_mcu9t5v0__clkbuf_4
* cell instance $978 m0 *1 26.32,146.16
X$978 426 425 73 195 gf180mcu_fd_sc_mcu9t5v0__clkbuf_4
* cell instance $983 r0 *1 175.84,156.24
X$983 426 425 73 267 gf180mcu_fd_sc_mcu9t5v0__clkbuf_4
* cell instance $985 m0 *1 146.16,166.32
X$985 426 425 73 325 gf180mcu_fd_sc_mcu9t5v0__clkbuf_4
* cell instance $1008 r0 *1 110.88,65.52
X$1008 426 425 75 120 gf180mcu_fd_sc_mcu9t5v0__clkinv_2
* cell instance $1016 r0 *1 165.2,65.52
X$1016 425 426 76 77 136 156 143 146 gf180mcu_fd_sc_mcu9t5v0__oai32_2
* cell instance $1019 m0 *1 161.28,75.6
X$1019 426 425 76 163 112 gf180mcu_fd_sc_mcu9t5v0__nand2_2
* cell instance $1021 m0 *1 184.24,75.6
X$1021 426 144 425 158 145 112 76 gf180mcu_fd_sc_mcu9t5v0__aoi22_2
* cell instance $1023 m0 *1 159.04,85.68
X$1023 77 126 76 184 426 425 203 gf180mcu_fd_sc_mcu9t5v0__and4_2
* cell instance $1025 r0 *1 184.24,55.44
X$1025 426 425 103 76 gf180mcu_fd_sc_mcu9t5v0__buf_4
* cell instance $1039 r0 *1 120.96,75.6
X$1039 426 425 77 164 76 gf180mcu_fd_sc_mcu9t5v0__nand2_2
* cell instance $1048 m0 *1 177.52,55.44
X$1048 426 425 90 77 gf180mcu_fd_sc_mcu9t5v0__buf_4
* cell instance $1067 m0 *1 156.24,65.52
X$1067 426 425 134 77 87 gf180mcu_fd_sc_mcu9t5v0__nor2_2
* cell instance $1072 r0 *1 147.84,55.44
X$1072 122 109 110 111 426 425 78 gf180mcu_fd_sc_mcu9t5v0__and4_2
* cell instance $1080 m0 *1 201.6,45.36
X$1080 80 425 426 92 gf180mcu_fd_sc_mcu9t5v0__dlyb_2
* cell instance $1108 r0 *1 173.04,176.4
X$1108 426 425 414 405 350 87 gf180mcu_fd_sc_mcu9t5v0__mux2_2
* cell instance $1111 r0 *1 162.96,176.4
X$1111 426 425 403 404 349 87 gf180mcu_fd_sc_mcu9t5v0__mux2_2
* cell instance $1115 r0 *1 169.12,105.84
X$1115 426 425 87 235 222 gf180mcu_fd_sc_mcu9t5v0__nand2_2
* cell instance $1119 m0 *1 192.08,146.16
X$1119 426 425 340 326 328 87 gf180mcu_fd_sc_mcu9t5v0__mux2_2
* cell instance $1121 m0 *1 201.6,55.44
X$1121 426 425 91 87 gf180mcu_fd_sc_mcu9t5v0__buf_4
* cell instance $1140 m0 *1 192.08,105.84
X$1140 426 425 208 209 226 87 gf180mcu_fd_sc_mcu9t5v0__mux2_2
* cell instance $1148 r0 *1 180.32,45.36
X$1148 426 425 90 102 gf180mcu_fd_sc_mcu9t5v0__inv_2
* cell instance $1169 r0 *1 146.72,65.52
X$1169 426 94 425 134 148 110 126 gf180mcu_fd_sc_mcu9t5v0__aoi22_2
* cell instance $1179 m0 *1 36.96,55.44
X$1179 426 425 96 106 gf180mcu_fd_sc_mcu9t5v0__clkinv_2
* cell instance $1195 m0 *1 61.6,65.52
X$1195 425 97 118 426 119 gf180mcu_fd_sc_mcu9t5v0__and2_2
* cell instance $1201 m0 *1 50.4,55.44
X$1201 426 425 105 97 gf180mcu_fd_sc_mcu9t5v0__inv_2
* cell instance $1204 m0 *1 50.96,65.52
X$1204 426 425 127 97 118 gf180mcu_fd_sc_mcu9t5v0__nor2_2
* cell instance $1207 m0 *1 75.04,55.44
X$1207 426 425 99 98 107 gf180mcu_fd_sc_mcu9t5v0__nand2_2
* cell instance $1266 m0 *1 102.48,65.52
X$1266 426 425 147 120 107 gf180mcu_fd_sc_mcu9t5v0__nor2_2
* cell instance $1269 r0 *1 101.92,65.52
X$1269 425 120 107 426 139 gf180mcu_fd_sc_mcu9t5v0__and2_2
* cell instance $1273 m0 *1 44.8,105.84
X$1273 107 153 141 198 426 425 238 gf180mcu_fd_sc_mcu9t5v0__and4_2
* cell instance $1275 r0 *1 45.92,95.76
X$1275 107 153 141 198 426 425 214 gf180mcu_fd_sc_mcu9t5v0__and4_2
* cell instance $1290 r0 *1 145.04,75.6
X$1290 426 425 122 142 109 gf180mcu_fd_sc_mcu9t5v0__nand2_2
* cell instance $1299 m0 *1 123.2,126
X$1299 285 425 284 109 426 286 gf180mcu_fd_sc_mcu9t5v0__nor3_4
* cell instance $1322 r0 *1 182,85.68
X$1322 426 425 113 gf180mcu_fd_sc_mcu9t5v0__clkinv_3
* cell instance $1351 r0 *1 140,85.68
X$1351 426 193 123 117 173 170 425 gf180mcu_fd_sc_mcu9t5v0__or4_4
* cell instance $1356 m0 *1 140.56,85.68
X$1356 170 426 173 117 425 156 gf180mcu_fd_sc_mcu9t5v0__or3_2
* cell instance $1363 m0 *1 15.68,105.84
X$1363 426 186 425 205 153 118 gf180mcu_fd_sc_mcu9t5v0__aoi21_2
* cell instance $1365 m0 *1 18.48,95.76
X$1365 186 425 118 153 426 202 gf180mcu_fd_sc_mcu9t5v0__and3_2
* cell instance $1367 r0 *1 25.76,95.76
X$1367 197 196 118 153 426 425 187 gf180mcu_fd_sc_mcu9t5v0__and4_2
* cell instance $1392 m0 *1 120.96,85.68
X$1392 426 189 174 425 121 170 173 gf180mcu_fd_sc_mcu9t5v0__nor4_2
* cell instance $1395 r0 *1 119.28,85.68
X$1395 426 185 174 121 173 170 425 gf180mcu_fd_sc_mcu9t5v0__or4_4
* cell instance $1400 r0 *1 76.72,75.6
X$1400 426 122 179 154 155 169 425 gf180mcu_fd_sc_mcu9t5v0__nor4_4
* cell instance $1415 r0 *1 159.04,85.68
X$1415 426 157 123 425 180 gf180mcu_fd_sc_mcu9t5v0__or2_2
* cell instance $1418 m0 *1 204.96,65.52
X$1418 133 425 426 124 gf180mcu_fd_sc_mcu9t5v0__dlyb_2
* cell instance $1452 r0 *1 167.44,75.6
X$1452 426 156 132 425 175 gf180mcu_fd_sc_mcu9t5v0__or2_2
* cell instance $1456 r0 *1 187.6,65.52
X$1456 426 425 133 144 gf180mcu_fd_sc_mcu9t5v0__clkinv_2
* cell instance $1470 r0 *1 36.4,75.6
X$1470 425 135 426 160 152 149 165 gf180mcu_fd_sc_mcu9t5v0__oai31_2
* cell instance $1476 m0 *1 22.4,75.6
X$1476 425 140 137 426 150 gf180mcu_fd_sc_mcu9t5v0__and2_2
* cell instance $1479 m0 *1 27.44,75.6
X$1479 426 425 159 140 137 gf180mcu_fd_sc_mcu9t5v0__nor2_2
* cell instance $1493 r0 *1 21.28,75.6
X$1493 426 425 140 167 gf180mcu_fd_sc_mcu9t5v0__clkinv_2
* cell instance $1543 m0 *1 70,176.4
X$1543 425 369 426 398 152 149 165 gf180mcu_fd_sc_mcu9t5v0__oai31_2
* cell instance $1548 m0 *1 36.96,176.4
X$1548 425 426 152 149 165 388 390 381 gf180mcu_fd_sc_mcu9t5v0__oai32_2
* cell instance $1550 r0 *1 70,166.32
X$1550 425 392 426 378 152 149 165 gf180mcu_fd_sc_mcu9t5v0__oai31_2
* cell instance $1552 m0 *1 6.72,166.32
X$1552 425 426 152 149 165 397 380 366 gf180mcu_fd_sc_mcu9t5v0__oai32_2
* cell instance $1555 m0 *1 6.16,95.76
X$1555 425 426 152 149 165 205 204 202 gf180mcu_fd_sc_mcu9t5v0__oai32_2
* cell instance $1557 r0 *1 5.6,75.6
X$1557 425 426 152 149 165 159 166 150 gf180mcu_fd_sc_mcu9t5v0__oai32_2
* cell instance $1560 m0 *1 27.44,126
X$1560 425 426 152 149 165 278 271 242 gf180mcu_fd_sc_mcu9t5v0__oai32_2
* cell instance $1563 m0 *1 5.6,146.16
X$1563 425 426 152 149 165 314 327 319 gf180mcu_fd_sc_mcu9t5v0__oai32_2
* cell instance $1565 r0 *1 6.16,115.92
X$1565 425 426 152 149 165 254 280 241 gf180mcu_fd_sc_mcu9t5v0__oai32_2
* cell instance $1572 m0 *1 15.68,85.68
X$1572 425 166 426 178 151 167 gf180mcu_fd_sc_mcu9t5v0__oai21_2
* cell instance $1608 m0 *1 78.4,85.68
X$1608 169 179 154 155 425 426 170 gf180mcu_fd_sc_mcu9t5v0__or4_2
* cell instance $1635 r0 *1 164.64,85.68
X$1635 157 426 425 192 207 184 gf180mcu_fd_sc_mcu9t5v0__addh_1
* cell instance $1650 m0 *1 70,115.92
X$1650 161 263 214 257 426 425 215 gf180mcu_fd_sc_mcu9t5v0__and4_2
* cell instance $1652 r0 *1 47.04,115.92
X$1652 426 425 161 261 gf180mcu_fd_sc_mcu9t5v0__clkinv_2
* cell instance $1661 m0 *1 73.36,126
X$1661 161 425 263 216 426 273 gf180mcu_fd_sc_mcu9t5v0__and3_2
* cell instance $1664 r0 *1 87.36,166.32
X$1664 426 425 162 382 gf180mcu_fd_sc_mcu9t5v0__clkinv_2
* cell instance $1666 r0 *1 90.72,166.32
X$1666 162 231 274 374 426 425 394 gf180mcu_fd_sc_mcu9t5v0__and4_2
* cell instance $1668 m0 *1 90.16,176.4
X$1668 162 425 172 185 426 400 gf180mcu_fd_sc_mcu9t5v0__and3_2
* cell instance $1675 m0 *1 81.2,166.32
X$1675 426 369 310 264 162 425 374 gf180mcu_fd_sc_mcu9t5v0__nand4_2
* cell instance $1708 m0 *1 38.08,95.76
X$1708 426 425 188 168 gf180mcu_fd_sc_mcu9t5v0__clkinv_2
* cell instance $1715 r0 *1 42.56,156.24
X$1715 426 355 354 425 169 gf180mcu_fd_sc_mcu9t5v0__or2_2
* cell instance $1731 m0 *1 121.52,95.76
X$1731 425 200 426 189 190 171 gf180mcu_fd_sc_mcu9t5v0__oai21_2
* cell instance $1738 m0 *1 126.56,176.4
X$1738 356 425 172 185 426 402 gf180mcu_fd_sc_mcu9t5v0__and3_2
* cell instance $1740 r0 *1 117.6,176.4
X$1740 296 425 172 185 426 412 gf180mcu_fd_sc_mcu9t5v0__and3_2
* cell instance $1743 m0 *1 131.04,156.24
X$1743 348 425 172 185 426 353 gf180mcu_fd_sc_mcu9t5v0__and3_2
* cell instance $1746 r0 *1 101.92,176.4
X$1746 357 425 172 185 426 410 gf180mcu_fd_sc_mcu9t5v0__and3_2
* cell instance $1765 r0 *1 127.12,126
X$1765 286 426 285 284 425 173 gf180mcu_fd_sc_mcu9t5v0__or3_2
* cell instance $1772 m0 *1 173.04,85.68
X$1772 426 425 175 181 gf180mcu_fd_sc_mcu9t5v0__buf_4
* cell instance $1776 r0 *1 198.8,85.68
X$1776 426 425 176 177 181 201 gf180mcu_fd_sc_mcu9t5v0__mux2_2
* cell instance $1783 m0 *1 204.96,95.76
X$1783 177 425 426 182 gf180mcu_fd_sc_mcu9t5v0__dlyb_2
* cell instance $1793 m0 *1 27.44,176.4
X$1793 425 390 426 178 409 372 gf180mcu_fd_sc_mcu9t5v0__oai21_2
* cell instance $1796 r0 *1 37.52,146.16
X$1796 425 341 426 178 321 294 gf180mcu_fd_sc_mcu9t5v0__oai21_2
* cell instance $1798 m0 *1 9.52,176.4
X$1798 425 380 426 178 379 362 gf180mcu_fd_sc_mcu9t5v0__oai21_2
* cell instance $1801 m0 *1 7.84,105.84
X$1801 425 204 426 178 225 186 gf180mcu_fd_sc_mcu9t5v0__oai21_2
* cell instance $1805 r0 *1 30.8,126
X$1805 425 271 426 178 301 281 gf180mcu_fd_sc_mcu9t5v0__oai21_2
* cell instance $1808 r0 *1 19.04,146.16
X$1808 425 327 426 178 345 320 gf180mcu_fd_sc_mcu9t5v0__oai21_2
* cell instance $1810 r0 *1 7.84,126
X$1810 425 280 426 178 289 290 gf180mcu_fd_sc_mcu9t5v0__oai21_2
* cell instance $1813 r0 *1 57.68,156.24
X$1813 425 346 426 178 363 347 gf180mcu_fd_sc_mcu9t5v0__oai21_2
* cell instance $1815 m0 *1 54.88,126
X$1815 425 279 426 178 272 261 gf180mcu_fd_sc_mcu9t5v0__oai21_2
* cell instance $1820 m0 *1 28,105.84
X$1820 197 196 260 188 425 426 179 gf180mcu_fd_sc_mcu9t5v0__or4_2
* cell instance $1826 m0 *1 159.04,115.92
X$1826 426 425 256 239 180 gf180mcu_fd_sc_mcu9t5v0__nor2_2
* cell instance $1828 r0 *1 159.04,105.84
X$1828 426 425 221 222 180 gf180mcu_fd_sc_mcu9t5v0__nor2_2
* cell instance $1833 m0 *1 196.56,196.56
X$1833 426 425 181 422 gf180mcu_fd_sc_mcu9t5v0__clkinv_2
* cell instance $1838 m0 *1 201.6,146.16
X$1838 426 425 315 307 181 326 gf180mcu_fd_sc_mcu9t5v0__mux2_2
* cell instance $1850 m0 *1 201.6,105.84
X$1850 426 425 227 224 181 209 gf180mcu_fd_sc_mcu9t5v0__mux2_2
* cell instance $1852 m0 *1 192.08,126
X$1852 426 425 252 268 181 276 gf180mcu_fd_sc_mcu9t5v0__mux2_2
* cell instance $1854 r0 *1 184.8,166.32
X$1854 426 425 387 386 181 358 gf180mcu_fd_sc_mcu9t5v0__mux2_2
* cell instance $1856 m0 *1 201.6,166.32
X$1856 426 425 367 377 181 351 gf180mcu_fd_sc_mcu9t5v0__mux2_2
* cell instance $1858 m0 *1 190.4,186.48
X$1858 426 425 406 415 181 405 gf180mcu_fd_sc_mcu9t5v0__mux2_2
* cell instance $1860 m0 *1 173.6,196.56
X$1860 426 425 420 421 181 404 gf180mcu_fd_sc_mcu9t5v0__mux2_2