* CDL Netlist generated by OpenROAD

*.BUSDELIMITER [

.SUBCKT bidirectional_fifo a_almost_empty a_almost_full a_empty
+ a_full a_rd_data[0] a_rd_data[1] a_rd_data[2] a_rd_data[3]
+ a_rd_data[4] a_rd_data[5] a_rd_data[6] a_rd_data[7] a_rd_en
+ a_to_b_count[0] a_to_b_count[1] a_to_b_count[2] a_to_b_count[3]
+ a_to_b_count[4] a_wr_data[0] a_wr_data[1] a_wr_data[2] a_wr_data[3]
+ a_wr_data[4] a_wr_data[5] a_wr_data[6] a_wr_data[7] a_wr_en
+ b_almost_empty b_almost_full b_empty b_full b_rd_data[0] b_rd_data[1]
+ b_rd_data[2] b_rd_data[3] b_rd_data[4] b_rd_data[5] b_rd_data[6]
+ b_rd_data[7] b_rd_en b_to_a_count[0] b_to_a_count[1] b_to_a_count[2]
+ b_to_a_count[3] b_to_a_count[4] b_wr_data[0] b_wr_data[1]
+ b_wr_data[2] b_wr_data[3] b_wr_data[4] b_wr_data[5] b_wr_data[6]
+ b_wr_data[7] b_wr_en clk rst_n VSS VDD
X_0611_ _0041_ net34 VDD VSS gf180mcu_fd_sc_mcu9t5v0__clkinv_2
X_0612_ _0016_ _0021_ _0002_ _0442_ VDD VSS gf180mcu_fd_sc_mcu9t5v0__and3_4
X_0613_ _0021_ _0015_ _0020_ _0442_ _0443_ VDD VSS gf180mcu_fd_sc_mcu9t5v0__aoi211_2
X_0614_ a_wr_ptr\[4\] b_rd_ptr\[4\] _0443_ _0444_ VDD VSS
+ gf180mcu_fd_sc_mcu9t5v0__xnor3_2
X_0615_ _0444_ net38 VDD VSS gf180mcu_fd_sc_mcu9t5v0__inv_4
X_0616_ _0018_ _0445_ VDD VSS gf180mcu_fd_sc_mcu9t5v0__clkinv_2
X_0617_ _0015_ _0017_ _0446_ VDD VSS gf180mcu_fd_sc_mcu9t5v0__nor2_2
X_0618_ _0040_ _0445_ _0446_ _0447_ VDD VSS gf180mcu_fd_sc_mcu9t5v0__oai21_2
X_0619_ _0016_ _0015_ _0448_ VDD VSS gf180mcu_fd_sc_mcu9t5v0__or2_2
X_0620_ _0021_ _0447_ _0448_ _0449_ VDD VSS gf180mcu_fd_sc_mcu9t5v0__and3_2
X_0621_ _0447_ _0448_ _0021_ _0450_ VDD VSS gf180mcu_fd_sc_mcu9t5v0__aoi21_2
X_0622_ _0449_ _0450_ net37 VDD VSS gf180mcu_fd_sc_mcu9t5v0__nor2_2
X_0623_ _0011_ _0008_ _0005_ _0451_ VDD VSS gf180mcu_fd_sc_mcu9t5v0__and3_2
X_0624_ _0008_ _0010_ _0451_ _0007_ _0452_ VDD VSS gf180mcu_fd_sc_mcu9t5v0__aoi211_2
X_0625_ b_wr_ptr\[4\] a_rd_ptr\[4\] _0452_ _0453_ VDD VSS
+ gf180mcu_fd_sc_mcu9t5v0__xnor3_2
X_0626_ _0453_ net55 VDD VSS gf180mcu_fd_sc_mcu9t5v0__clkinv_2
X_0627_ _0043_ net51 VDD VSS gf180mcu_fd_sc_mcu9t5v0__clkinv_2
X_0628_ _0011_ _0454_ VDD VSS gf180mcu_fd_sc_mcu9t5v0__clkinv_2
X_0629_ _0013_ _0455_ VDD VSS gf180mcu_fd_sc_mcu9t5v0__clkinv_2
X_0630_ _0011_ _0012_ _0010_ _0456_ VDD VSS gf180mcu_fd_sc_mcu9t5v0__aoi21_2
X_0631_ _0454_ _0042_ _0455_ _0456_ _0457_ VDD VSS gf180mcu_fd_sc_mcu9t5v0__oai31_2
X_0632_ _0008_ _0457_ _0458_ VDD VSS gf180mcu_fd_sc_mcu9t5v0__xnor2_2
X_0633_ _0458_ net54 VDD VSS gf180mcu_fd_sc_mcu9t5v0__clkinv_2
X_0634_ _0011_ _0005_ _0459_ VDD VSS gf180mcu_fd_sc_mcu9t5v0__xnor2_2
X_0635_ _0459_ net53 VDD VSS gf180mcu_fd_sc_mcu9t5v0__clkinv_2
X_0636_ _0016_ _0002_ net36 VDD VSS gf180mcu_fd_sc_mcu9t5v0__xor2_2
X_0637_ net35 net34 net36 _0460_ VDD VSS gf180mcu_fd_sc_mcu9t5v0__nor3_2
X_0638_ _0449_ _0450_ _0460_ net38 _0461_ VDD VSS gf180mcu_fd_sc_mcu9t5v0__oai211_4
Xclkbuf_leaf_4_clk clknet_1_1__leaf_clk clknet_leaf_4_clk
+ VDD VSS gf180mcu_fd_sc_mcu9t5v0__clkbuf_16
X_0640_ _0461_ net42 VDD VSS gf180mcu_fd_sc_mcu9t5v0__clkinv_2
X_0641_ net52 _0463_ VDD VSS gf180mcu_fd_sc_mcu9t5v0__clkinv_2
X_0642_ _0463_ _0043_ _0464_ VDD VSS gf180mcu_fd_sc_mcu9t5v0__and2_2
X_0643_ _0459_ _0464_ _0465_ VDD VSS gf180mcu_fd_sc_mcu9t5v0__nand2_2
X_0644_ _0453_ net54 _0465_ _0466_ VDD VSS gf180mcu_fd_sc_mcu9t5v0__or3_4
Xclkbuf_leaf_3_clk clknet_1_1__leaf_clk clknet_leaf_3_clk
+ VDD VSS gf180mcu_fd_sc_mcu9t5v0__clkbuf_16
X_0646_ _0466_ net25 VDD VSS gf180mcu_fd_sc_mcu9t5v0__clkinv_2
X_0647_ _0453_ _0458_ _0459_ _0464_ net24 VDD VSS gf180mcu_fd_sc_mcu9t5v0__and4_2
X_0648_ _0449_ _0450_ _0460_ _0444_ _0468_ VDD VSS gf180mcu_fd_sc_mcu9t5v0__oai211_2
X_0649_ _0468_ net41 VDD VSS gf180mcu_fd_sc_mcu9t5v0__clkinv_2
Xclkbuf_leaf_2_clk clknet_1_1__leaf_clk clknet_leaf_2_clk
+ VDD VSS gf180mcu_fd_sc_mcu9t5v0__clkbuf_16
X_0651_ a_rd_ptr\[3\] _0006_ VDD VSS gf180mcu_fd_sc_mcu9t5v0__clkinv_2
X_0652_ a_rd_ptr\[2\] _0470_ VDD VSS gf180mcu_fd_sc_mcu9t5v0__clkinv_2
Xclkbuf_leaf_1_clk clknet_1_1__leaf_clk clknet_leaf_1_clk
+ VDD VSS gf180mcu_fd_sc_mcu9t5v0__clkbuf_16
X_0654_ a_rd_ptr\[1\] _0003_ VDD VSS gf180mcu_fd_sc_mcu9t5v0__inv_2
X_0655_ b_wr_ptr\[0\] _0024_ VDD VSS gf180mcu_fd_sc_mcu9t5v0__clkinv_2
X_0656_ a_wr_ptr\[0\] _0033_ VDD VSS gf180mcu_fd_sc_mcu9t5v0__clkinv_2
Xplace60 _0486_ net60 VDD VSS gf180mcu_fd_sc_mcu9t5v0__buf_4
X_0658_ b_rd_ptr\[2\] _0014_ VDD VSS gf180mcu_fd_sc_mcu9t5v0__inv_2
X_0659_ b_rd_ptr\[1\] _0000_ VDD VSS gf180mcu_fd_sc_mcu9t5v0__inv_2
Xclkbuf_leaf_0_clk clknet_1_0__leaf_clk clknet_leaf_0_clk
+ VDD VSS gf180mcu_fd_sc_mcu9t5v0__clkbuf_16
X_0661_ b_rd_ptr\[3\] _0019_ VDD VSS gf180mcu_fd_sc_mcu9t5v0__clkinv_2
X_0662_ _0040_ _0001_ VDD VSS gf180mcu_fd_sc_mcu9t5v0__clkinv_2
X_0663_ _0042_ _0004_ VDD VSS gf180mcu_fd_sc_mcu9t5v0__clkinv_2
X_0664_ b_wr_ptr\[1\] _0025_ VDD VSS gf180mcu_fd_sc_mcu9t5v0__clkinv_2
X_0665_ a_wr_ptr\[1\] _0034_ VDD VSS gf180mcu_fd_sc_mcu9t5v0__clkinv_2
Xplace63 net21 net63 VDD VSS gf180mcu_fd_sc_mcu9t5v0__buf_4
Xplace62 a_rd_ptr\[0\] net62 VDD VSS gf180mcu_fd_sc_mcu9t5v0__buf_4
Xplace61 b_rd_ptr\[0\] net61 VDD VSS gf180mcu_fd_sc_mcu9t5v0__buf_4
X_0669_ b_to_a_mem\[2\]\[0\] b_to_a_mem\[3\]\[0\] b_to_a_mem\[6\]\[0\]
+ b_to_a_mem\[7\]\[0\] net62 a_rd_ptr\[2\] _0476_ VDD VSS gf180mcu_fd_sc_mcu9t5v0__mux4_2
Xoutput55 net55 b_to_a_count[4] VDD VSS gf180mcu_fd_sc_mcu9t5v0__dlyb_2
X_0671_ b_to_a_mem\[0\]\[0\] b_to_a_mem\[1\]\[0\] b_to_a_mem\[4\]\[0\]
+ b_to_a_mem\[5\]\[0\] net62 a_rd_ptr\[2\] _0478_ VDD VSS gf180mcu_fd_sc_mcu9t5v0__mux4_2
X_0672_ _0476_ _0478_ _0003_ _0479_ VDD VSS gf180mcu_fd_sc_mcu9t5v0__mux2_2
Xoutput54 net54 b_to_a_count[3] VDD VSS gf180mcu_fd_sc_mcu9t5v0__dlyb_2
X_0674_ b_to_a_mem\[12\]\[0\] b_to_a_mem\[13\]\[0\] b_to_a_mem\[14\]\[0\]
+ b_to_a_mem\[15\]\[0\] net62 a_rd_ptr\[1\] _0481_ VDD VSS gf180mcu_fd_sc_mcu9t5v0__mux4_2
Xoutput53 net53 b_to_a_count[2] VDD VSS gf180mcu_fd_sc_mcu9t5v0__dlyb_2
X_0676_ b_to_a_mem\[8\]\[0\] b_to_a_mem\[9\]\[0\] b_to_a_mem\[10\]\[0\]
+ b_to_a_mem\[11\]\[0\] net62 a_rd_ptr\[1\] _0483_ VDD VSS gf180mcu_fd_sc_mcu9t5v0__mux4_2
X_0677_ _0481_ _0483_ _0470_ _0484_ VDD VSS gf180mcu_fd_sc_mcu9t5v0__mux2_2
X_0678_ _0479_ _0484_ a_rd_ptr\[3\] _0485_ VDD VSS gf180mcu_fd_sc_mcu9t5v0__mux2_2
X_0679_ net55 net54 _0465_ net1 _0486_ VDD VSS gf180mcu_fd_sc_mcu9t5v0__oai31_2
Xoutput52 net52 b_to_a_count[1] VDD VSS gf180mcu_fd_sc_mcu9t5v0__dlyb_2
X_0681_ _0485_ net26 net60 _0044_ VDD VSS gf180mcu_fd_sc_mcu9t5v0__mux2_2
X_0682_ b_to_a_mem\[2\]\[1\] b_to_a_mem\[3\]\[1\] b_to_a_mem\[6\]\[1\]
+ b_to_a_mem\[7\]\[1\] net62 a_rd_ptr\[2\] _0488_ VDD VSS gf180mcu_fd_sc_mcu9t5v0__mux4_2
X_0683_ b_to_a_mem\[0\]\[1\] b_to_a_mem\[1\]\[1\] b_to_a_mem\[4\]\[1\]
+ b_to_a_mem\[5\]\[1\] net62 a_rd_ptr\[2\] _0489_ VDD VSS gf180mcu_fd_sc_mcu9t5v0__mux4_2
X_0684_ _0488_ _0489_ _0003_ _0490_ VDD VSS gf180mcu_fd_sc_mcu9t5v0__mux2_2
X_0685_ b_to_a_mem\[12\]\[1\] b_to_a_mem\[13\]\[1\] b_to_a_mem\[14\]\[1\]
+ b_to_a_mem\[15\]\[1\] net62 a_rd_ptr\[1\] _0491_ VDD VSS gf180mcu_fd_sc_mcu9t5v0__mux4_2
X_0686_ b_to_a_mem\[8\]\[1\] b_to_a_mem\[9\]\[1\] b_to_a_mem\[10\]\[1\]
+ b_to_a_mem\[11\]\[1\] net62 a_rd_ptr\[1\] _0492_ VDD VSS gf180mcu_fd_sc_mcu9t5v0__mux4_2
X_0687_ _0491_ _0492_ _0470_ _0493_ VDD VSS gf180mcu_fd_sc_mcu9t5v0__mux2_2
X_0688_ _0490_ _0493_ a_rd_ptr\[3\] _0494_ VDD VSS gf180mcu_fd_sc_mcu9t5v0__mux2_2
X_0689_ _0494_ net27 net60 _0045_ VDD VSS gf180mcu_fd_sc_mcu9t5v0__mux2_2
X_0690_ b_to_a_mem\[2\]\[2\] b_to_a_mem\[3\]\[2\] b_to_a_mem\[6\]\[2\]
+ b_to_a_mem\[7\]\[2\] net62 a_rd_ptr\[2\] _0495_ VDD VSS gf180mcu_fd_sc_mcu9t5v0__mux4_2
X_0691_ b_to_a_mem\[0\]\[2\] b_to_a_mem\[1\]\[2\] b_to_a_mem\[4\]\[2\]
+ b_to_a_mem\[5\]\[2\] net62 a_rd_ptr\[2\] _0496_ VDD VSS gf180mcu_fd_sc_mcu9t5v0__mux4_2
X_0692_ _0495_ _0496_ _0003_ _0497_ VDD VSS gf180mcu_fd_sc_mcu9t5v0__mux2_2
X_0693_ b_to_a_mem\[12\]\[2\] b_to_a_mem\[13\]\[2\] b_to_a_mem\[14\]\[2\]
+ b_to_a_mem\[15\]\[2\] net62 a_rd_ptr\[1\] _0498_ VDD VSS gf180mcu_fd_sc_mcu9t5v0__mux4_2
X_0694_ b_to_a_mem\[8\]\[2\] b_to_a_mem\[9\]\[2\] b_to_a_mem\[10\]\[2\]
+ b_to_a_mem\[11\]\[2\] net62 a_rd_ptr\[1\] _0499_ VDD VSS gf180mcu_fd_sc_mcu9t5v0__mux4_2
X_0695_ _0498_ _0499_ _0470_ _0500_ VDD VSS gf180mcu_fd_sc_mcu9t5v0__mux2_2
X_0696_ _0497_ _0500_ a_rd_ptr\[3\] _0501_ VDD VSS gf180mcu_fd_sc_mcu9t5v0__mux2_2
X_0697_ _0501_ net28 net60 _0046_ VDD VSS gf180mcu_fd_sc_mcu9t5v0__mux2_2
X_0698_ b_to_a_mem\[2\]\[3\] b_to_a_mem\[3\]\[3\] b_to_a_mem\[6\]\[3\]
+ b_to_a_mem\[7\]\[3\] net62 a_rd_ptr\[2\] _0502_ VDD VSS gf180mcu_fd_sc_mcu9t5v0__mux4_2
X_0699_ b_to_a_mem\[0\]\[3\] b_to_a_mem\[1\]\[3\] b_to_a_mem\[4\]\[3\]
+ b_to_a_mem\[5\]\[3\] net62 a_rd_ptr\[2\] _0503_ VDD VSS gf180mcu_fd_sc_mcu9t5v0__mux4_2
X_0700_ _0502_ _0503_ _0003_ _0504_ VDD VSS gf180mcu_fd_sc_mcu9t5v0__mux2_2
X_0701_ b_to_a_mem\[12\]\[3\] b_to_a_mem\[13\]\[3\] b_to_a_mem\[14\]\[3\]
+ b_to_a_mem\[15\]\[3\] net62 a_rd_ptr\[1\] _0505_ VDD VSS gf180mcu_fd_sc_mcu9t5v0__mux4_2
X_0702_ b_to_a_mem\[8\]\[3\] b_to_a_mem\[9\]\[3\] b_to_a_mem\[10\]\[3\]
+ b_to_a_mem\[11\]\[3\] net62 a_rd_ptr\[1\] _0506_ VDD VSS gf180mcu_fd_sc_mcu9t5v0__mux4_2
X_0703_ _0505_ _0506_ _0470_ _0507_ VDD VSS gf180mcu_fd_sc_mcu9t5v0__mux2_2
X_0704_ _0504_ _0507_ a_rd_ptr\[3\] _0508_ VDD VSS gf180mcu_fd_sc_mcu9t5v0__mux2_2
X_0705_ _0508_ net29 net60 _0047_ VDD VSS gf180mcu_fd_sc_mcu9t5v0__mux2_2
X_0706_ b_to_a_mem\[2\]\[4\] b_to_a_mem\[3\]\[4\] b_to_a_mem\[6\]\[4\]
+ b_to_a_mem\[7\]\[4\] net62 a_rd_ptr\[2\] _0509_ VDD VSS gf180mcu_fd_sc_mcu9t5v0__mux4_2
X_0707_ b_to_a_mem\[0\]\[4\] b_to_a_mem\[1\]\[4\] b_to_a_mem\[4\]\[4\]
+ b_to_a_mem\[5\]\[4\] net62 a_rd_ptr\[2\] _0510_ VDD VSS gf180mcu_fd_sc_mcu9t5v0__mux4_2
X_0708_ _0509_ _0510_ _0003_ _0511_ VDD VSS gf180mcu_fd_sc_mcu9t5v0__mux2_2
X_0709_ b_to_a_mem\[12\]\[4\] b_to_a_mem\[13\]\[4\] b_to_a_mem\[14\]\[4\]
+ b_to_a_mem\[15\]\[4\] net62 a_rd_ptr\[1\] _0512_ VDD VSS gf180mcu_fd_sc_mcu9t5v0__mux4_2
X_0710_ b_to_a_mem\[8\]\[4\] b_to_a_mem\[9\]\[4\] b_to_a_mem\[10\]\[4\]
+ b_to_a_mem\[11\]\[4\] net62 a_rd_ptr\[1\] _0513_ VDD VSS gf180mcu_fd_sc_mcu9t5v0__mux4_2
X_0711_ _0512_ _0513_ _0470_ _0514_ VDD VSS gf180mcu_fd_sc_mcu9t5v0__mux2_2
X_0712_ _0511_ _0514_ a_rd_ptr\[3\] _0515_ VDD VSS gf180mcu_fd_sc_mcu9t5v0__mux2_2
X_0713_ _0515_ net30 net60 _0048_ VDD VSS gf180mcu_fd_sc_mcu9t5v0__mux2_2
X_0714_ b_to_a_mem\[2\]\[5\] b_to_a_mem\[3\]\[5\] b_to_a_mem\[6\]\[5\]
+ b_to_a_mem\[7\]\[5\] net62 a_rd_ptr\[2\] _0516_ VDD VSS gf180mcu_fd_sc_mcu9t5v0__mux4_2
X_0715_ b_to_a_mem\[0\]\[5\] b_to_a_mem\[1\]\[5\] b_to_a_mem\[4\]\[5\]
+ b_to_a_mem\[5\]\[5\] net62 a_rd_ptr\[2\] _0517_ VDD VSS gf180mcu_fd_sc_mcu9t5v0__mux4_2
X_0716_ _0516_ _0517_ _0003_ _0518_ VDD VSS gf180mcu_fd_sc_mcu9t5v0__mux2_2
X_0717_ b_to_a_mem\[12\]\[5\] b_to_a_mem\[13\]\[5\] b_to_a_mem\[14\]\[5\]
+ b_to_a_mem\[15\]\[5\] net62 a_rd_ptr\[1\] _0519_ VDD VSS gf180mcu_fd_sc_mcu9t5v0__mux4_2
X_0718_ b_to_a_mem\[8\]\[5\] b_to_a_mem\[9\]\[5\] b_to_a_mem\[10\]\[5\]
+ b_to_a_mem\[11\]\[5\] net62 a_rd_ptr\[1\] _0520_ VDD VSS gf180mcu_fd_sc_mcu9t5v0__mux4_2
X_0719_ _0519_ _0520_ _0470_ _0521_ VDD VSS gf180mcu_fd_sc_mcu9t5v0__mux2_2
X_0720_ _0518_ _0521_ a_rd_ptr\[3\] _0522_ VDD VSS gf180mcu_fd_sc_mcu9t5v0__mux2_2
X_0721_ _0522_ net31 net60 _0049_ VDD VSS gf180mcu_fd_sc_mcu9t5v0__mux2_2
X_0722_ b_to_a_mem\[2\]\[6\] b_to_a_mem\[3\]\[6\] b_to_a_mem\[6\]\[6\]
+ b_to_a_mem\[7\]\[6\] net62 a_rd_ptr\[2\] _0523_ VDD VSS gf180mcu_fd_sc_mcu9t5v0__mux4_2
X_0723_ b_to_a_mem\[0\]\[6\] b_to_a_mem\[1\]\[6\] b_to_a_mem\[4\]\[6\]
+ b_to_a_mem\[5\]\[6\] net62 a_rd_ptr\[2\] _0524_ VDD VSS gf180mcu_fd_sc_mcu9t5v0__mux4_2
X_0724_ _0523_ _0524_ _0003_ _0525_ VDD VSS gf180mcu_fd_sc_mcu9t5v0__mux2_2
X_0725_ b_to_a_mem\[12\]\[6\] b_to_a_mem\[13\]\[6\] b_to_a_mem\[14\]\[6\]
+ b_to_a_mem\[15\]\[6\] net62 a_rd_ptr\[1\] _0526_ VDD VSS gf180mcu_fd_sc_mcu9t5v0__mux4_2
X_0726_ b_to_a_mem\[8\]\[6\] b_to_a_mem\[9\]\[6\] b_to_a_mem\[10\]\[6\]
+ b_to_a_mem\[11\]\[6\] net62 a_rd_ptr\[1\] _0527_ VDD VSS gf180mcu_fd_sc_mcu9t5v0__mux4_2
X_0727_ _0526_ _0527_ _0470_ _0528_ VDD VSS gf180mcu_fd_sc_mcu9t5v0__mux2_2
X_0728_ _0525_ _0528_ a_rd_ptr\[3\] _0529_ VDD VSS gf180mcu_fd_sc_mcu9t5v0__mux2_2
X_0729_ _0529_ net32 net60 _0050_ VDD VSS gf180mcu_fd_sc_mcu9t5v0__mux2_2
X_0730_ b_to_a_mem\[2\]\[7\] b_to_a_mem\[3\]\[7\] b_to_a_mem\[6\]\[7\]
+ b_to_a_mem\[7\]\[7\] net62 a_rd_ptr\[2\] _0530_ VDD VSS gf180mcu_fd_sc_mcu9t5v0__mux4_2
X_0731_ b_to_a_mem\[0\]\[7\] b_to_a_mem\[1\]\[7\] b_to_a_mem\[4\]\[7\]
+ b_to_a_mem\[5\]\[7\] net62 a_rd_ptr\[2\] _0531_ VDD VSS gf180mcu_fd_sc_mcu9t5v0__mux4_2
X_0732_ _0530_ _0531_ _0003_ _0532_ VDD VSS gf180mcu_fd_sc_mcu9t5v0__mux2_2
X_0733_ b_to_a_mem\[12\]\[7\] b_to_a_mem\[13\]\[7\] b_to_a_mem\[14\]\[7\]
+ b_to_a_mem\[15\]\[7\] net62 a_rd_ptr\[1\] _0533_ VDD VSS gf180mcu_fd_sc_mcu9t5v0__mux4_2
X_0734_ b_to_a_mem\[8\]\[7\] b_to_a_mem\[9\]\[7\] b_to_a_mem\[10\]\[7\]
+ b_to_a_mem\[11\]\[7\] net62 a_rd_ptr\[1\] _0534_ VDD VSS gf180mcu_fd_sc_mcu9t5v0__mux4_2
X_0735_ _0533_ _0534_ _0470_ _0535_ VDD VSS gf180mcu_fd_sc_mcu9t5v0__mux2_2
X_0736_ _0532_ _0535_ a_rd_ptr\[3\] _0536_ VDD VSS gf180mcu_fd_sc_mcu9t5v0__mux2_2
X_0737_ _0536_ net33 net60 _0051_ VDD VSS gf180mcu_fd_sc_mcu9t5v0__mux2_2
X_0738_ net62 net60 _0052_ VDD VSS gf180mcu_fd_sc_mcu9t5v0__xnor2_2
X_0739_ _0032_ a_rd_ptr\[1\] net60 _0053_ VDD VSS gf180mcu_fd_sc_mcu9t5v0__mux2_2
X_0740_ _0031_ _0537_ VDD VSS gf180mcu_fd_sc_mcu9t5v0__clkinv_2
X_0741_ _0537_ net60 _0538_ VDD VSS gf180mcu_fd_sc_mcu9t5v0__nor2_2
X_0742_ _0470_ _0538_ _0054_ VDD VSS gf180mcu_fd_sc_mcu9t5v0__xnor2_2
X_0743_ net62 a_rd_ptr\[1\] a_rd_ptr\[2\] _0539_ VDD VSS gf180mcu_fd_sc_mcu9t5v0__nand3_2
X_0744_ net60 _0539_ _0540_ VDD VSS gf180mcu_fd_sc_mcu9t5v0__nor2_2
X_0745_ _0006_ _0540_ _0055_ VDD VSS gf180mcu_fd_sc_mcu9t5v0__xnor2_2
X_0746_ _0470_ _0006_ _0537_ net60 _0541_ VDD VSS gf180mcu_fd_sc_mcu9t5v0__or4_2
X_0747_ a_rd_ptr\[4\] _0541_ _0056_ VDD VSS gf180mcu_fd_sc_mcu9t5v0__xnor2_2
Xoutput51 net51 b_to_a_count[0] VDD VSS gf180mcu_fd_sc_mcu9t5v0__dlyb_2
Xoutput50 net50 b_rd_data[7] VDD VSS gf180mcu_fd_sc_mcu9t5v0__dlyb_2
X_0750_ a_wr_ptr\[3\] _0544_ VDD VSS gf180mcu_fd_sc_mcu9t5v0__clkinv_2
X_0751_ a_wr_ptr\[2\] _0545_ VDD VSS gf180mcu_fd_sc_mcu9t5v0__clkinv_2
X_0752_ _0544_ _0545_ _0546_ VDD VSS gf180mcu_fd_sc_mcu9t5v0__and2_2
X_0753_ net10 _0035_ _0461_ _0546_ _0547_ VDD VSS gf180mcu_fd_sc_mcu9t5v0__and4_2
Xoutput49 net49 b_rd_data[6] VDD VSS gf180mcu_fd_sc_mcu9t5v0__dlyb_2
X_0755_ a_to_b_mem\[0\]\[0\] net2 _0547_ _0057_ VDD VSS gf180mcu_fd_sc_mcu9t5v0__mux2_2
Xoutput48 net48 b_rd_data[5] VDD VSS gf180mcu_fd_sc_mcu9t5v0__dlyb_2
X_0757_ a_to_b_mem\[0\]\[1\] net3 _0547_ _0058_ VDD VSS gf180mcu_fd_sc_mcu9t5v0__mux2_2
Xoutput47 net47 b_rd_data[4] VDD VSS gf180mcu_fd_sc_mcu9t5v0__dlyb_2
X_0759_ a_to_b_mem\[0\]\[2\] net4 _0547_ _0059_ VDD VSS gf180mcu_fd_sc_mcu9t5v0__mux2_2
Xoutput46 net46 b_rd_data[3] VDD VSS gf180mcu_fd_sc_mcu9t5v0__dlyb_2
X_0761_ a_to_b_mem\[0\]\[3\] net5 _0547_ _0060_ VDD VSS gf180mcu_fd_sc_mcu9t5v0__mux2_2
Xoutput45 net45 b_rd_data[2] VDD VSS gf180mcu_fd_sc_mcu9t5v0__dlyb_2
X_0763_ a_to_b_mem\[0\]\[4\] net6 _0547_ _0061_ VDD VSS gf180mcu_fd_sc_mcu9t5v0__mux2_2
Xoutput44 net44 b_rd_data[1] VDD VSS gf180mcu_fd_sc_mcu9t5v0__dlyb_2
X_0765_ a_to_b_mem\[0\]\[5\] net7 _0547_ _0062_ VDD VSS gf180mcu_fd_sc_mcu9t5v0__mux2_2
Xoutput43 net43 b_rd_data[0] VDD VSS gf180mcu_fd_sc_mcu9t5v0__dlyb_2
X_0767_ a_to_b_mem\[0\]\[6\] net8 _0547_ _0063_ VDD VSS gf180mcu_fd_sc_mcu9t5v0__mux2_2
Xoutput42 net42 b_full VDD VSS gf180mcu_fd_sc_mcu9t5v0__dlyb_2
X_0769_ a_to_b_mem\[0\]\[7\] net9 _0547_ _0064_ VDD VSS gf180mcu_fd_sc_mcu9t5v0__mux2_2
X_0770_ a_wr_ptr\[3\] _0545_ _0556_ VDD VSS gf180mcu_fd_sc_mcu9t5v0__and2_2
X_0771_ net10 _0037_ _0461_ _0556_ _0557_ VDD VSS gf180mcu_fd_sc_mcu9t5v0__and4_2
Xoutput41 net41 b_empty VDD VSS gf180mcu_fd_sc_mcu9t5v0__dlyb_2
X_0773_ a_to_b_mem\[10\]\[0\] net2 _0557_ _0065_ VDD VSS gf180mcu_fd_sc_mcu9t5v0__mux2_2
X_0774_ a_to_b_mem\[10\]\[1\] net3 _0557_ _0066_ VDD VSS gf180mcu_fd_sc_mcu9t5v0__mux2_2
X_0775_ a_to_b_mem\[10\]\[2\] net4 _0557_ _0067_ VDD VSS gf180mcu_fd_sc_mcu9t5v0__mux2_2
X_0776_ a_to_b_mem\[10\]\[3\] net5 _0557_ _0068_ VDD VSS gf180mcu_fd_sc_mcu9t5v0__mux2_2
X_0777_ a_to_b_mem\[10\]\[4\] net6 _0557_ _0069_ VDD VSS gf180mcu_fd_sc_mcu9t5v0__mux2_2
X_0778_ a_to_b_mem\[10\]\[5\] net7 _0557_ _0070_ VDD VSS gf180mcu_fd_sc_mcu9t5v0__mux2_2
X_0779_ a_to_b_mem\[10\]\[6\] net8 _0557_ _0071_ VDD VSS gf180mcu_fd_sc_mcu9t5v0__mux2_2
X_0780_ a_to_b_mem\[10\]\[7\] net9 _0557_ _0072_ VDD VSS gf180mcu_fd_sc_mcu9t5v0__mux2_2
X_0781_ net10 _0039_ _0559_ VDD VSS gf180mcu_fd_sc_mcu9t5v0__and2_2
X_0782_ _0461_ _0556_ _0559_ _0560_ VDD VSS gf180mcu_fd_sc_mcu9t5v0__and3_4
X_0783_ a_to_b_mem\[11\]\[0\] net2 _0560_ _0073_ VDD VSS gf180mcu_fd_sc_mcu9t5v0__mux2_2
X_0784_ a_to_b_mem\[11\]\[1\] net3 _0560_ _0074_ VDD VSS gf180mcu_fd_sc_mcu9t5v0__mux2_2
X_0785_ a_to_b_mem\[11\]\[2\] net4 _0560_ _0075_ VDD VSS gf180mcu_fd_sc_mcu9t5v0__mux2_2
X_0786_ a_to_b_mem\[11\]\[3\] net5 _0560_ _0076_ VDD VSS gf180mcu_fd_sc_mcu9t5v0__mux2_2
X_0787_ a_to_b_mem\[11\]\[4\] net6 _0560_ _0077_ VDD VSS gf180mcu_fd_sc_mcu9t5v0__mux2_2
X_0788_ a_to_b_mem\[11\]\[5\] net7 _0560_ _0078_ VDD VSS gf180mcu_fd_sc_mcu9t5v0__mux2_2
X_0789_ a_to_b_mem\[11\]\[6\] net8 _0560_ _0079_ VDD VSS gf180mcu_fd_sc_mcu9t5v0__mux2_2
X_0790_ a_to_b_mem\[11\]\[7\] net9 _0560_ _0080_ VDD VSS gf180mcu_fd_sc_mcu9t5v0__mux2_2
X_0791_ a_wr_ptr\[3\] a_wr_ptr\[2\] _0561_ VDD VSS gf180mcu_fd_sc_mcu9t5v0__and2_2
X_0792_ net10 _0035_ _0461_ _0561_ _0562_ VDD VSS gf180mcu_fd_sc_mcu9t5v0__and4_2
Xoutput40 net40 b_almost_full VDD VSS gf180mcu_fd_sc_mcu9t5v0__dlyb_2
X_0794_ a_to_b_mem\[12\]\[0\] net2 _0562_ _0081_ VDD VSS gf180mcu_fd_sc_mcu9t5v0__mux2_2
X_0795_ a_to_b_mem\[12\]\[1\] net3 _0562_ _0082_ VDD VSS gf180mcu_fd_sc_mcu9t5v0__mux2_2
X_0796_ a_to_b_mem\[12\]\[2\] net4 _0562_ _0083_ VDD VSS gf180mcu_fd_sc_mcu9t5v0__mux2_2
X_0797_ a_to_b_mem\[12\]\[3\] net5 _0562_ _0084_ VDD VSS gf180mcu_fd_sc_mcu9t5v0__mux2_2
X_0798_ a_to_b_mem\[12\]\[4\] net6 _0562_ _0085_ VDD VSS gf180mcu_fd_sc_mcu9t5v0__mux2_2
X_0799_ a_to_b_mem\[12\]\[5\] net7 _0562_ _0086_ VDD VSS gf180mcu_fd_sc_mcu9t5v0__mux2_2
X_0800_ a_to_b_mem\[12\]\[6\] net8 _0562_ _0087_ VDD VSS gf180mcu_fd_sc_mcu9t5v0__mux2_2
X_0801_ a_to_b_mem\[12\]\[7\] net9 _0562_ _0088_ VDD VSS gf180mcu_fd_sc_mcu9t5v0__mux2_2
Xoutput39 net39 b_almost_empty VDD VSS gf180mcu_fd_sc_mcu9t5v0__dlyb_2
X_0803_ net10 _0038_ _0461_ _0561_ _0565_ VDD VSS gf180mcu_fd_sc_mcu9t5v0__and4_2
Xoutput38 net38 a_to_b_count[4] VDD VSS gf180mcu_fd_sc_mcu9t5v0__dlyb_2
X_0805_ a_to_b_mem\[13\]\[0\] net2 _0565_ _0089_ VDD VSS gf180mcu_fd_sc_mcu9t5v0__mux2_2
X_0806_ a_to_b_mem\[13\]\[1\] net3 _0565_ _0090_ VDD VSS gf180mcu_fd_sc_mcu9t5v0__mux2_2
X_0807_ a_to_b_mem\[13\]\[2\] net4 _0565_ _0091_ VDD VSS gf180mcu_fd_sc_mcu9t5v0__mux2_2
X_0808_ a_to_b_mem\[13\]\[3\] net5 _0565_ _0092_ VDD VSS gf180mcu_fd_sc_mcu9t5v0__mux2_2
X_0809_ a_to_b_mem\[13\]\[4\] net6 _0565_ _0093_ VDD VSS gf180mcu_fd_sc_mcu9t5v0__mux2_2
X_0810_ a_to_b_mem\[13\]\[5\] net7 _0565_ _0094_ VDD VSS gf180mcu_fd_sc_mcu9t5v0__mux2_2
X_0811_ a_to_b_mem\[13\]\[6\] net8 _0565_ _0095_ VDD VSS gf180mcu_fd_sc_mcu9t5v0__mux2_2
X_0812_ a_to_b_mem\[13\]\[7\] net9 _0565_ _0096_ VDD VSS gf180mcu_fd_sc_mcu9t5v0__mux2_2
X_0813_ net10 _0037_ _0461_ _0561_ _0567_ VDD VSS gf180mcu_fd_sc_mcu9t5v0__and4_2
Xoutput37 net37 a_to_b_count[3] VDD VSS gf180mcu_fd_sc_mcu9t5v0__dlyb_2
X_0815_ a_to_b_mem\[14\]\[0\] net2 _0567_ _0097_ VDD VSS gf180mcu_fd_sc_mcu9t5v0__mux2_2
X_0816_ a_to_b_mem\[14\]\[1\] net3 _0567_ _0098_ VDD VSS gf180mcu_fd_sc_mcu9t5v0__mux2_2
X_0817_ a_to_b_mem\[14\]\[2\] net4 _0567_ _0099_ VDD VSS gf180mcu_fd_sc_mcu9t5v0__mux2_2
X_0818_ a_to_b_mem\[14\]\[3\] net5 _0567_ _0100_ VDD VSS gf180mcu_fd_sc_mcu9t5v0__mux2_2
X_0819_ a_to_b_mem\[14\]\[4\] net6 _0567_ _0101_ VDD VSS gf180mcu_fd_sc_mcu9t5v0__mux2_2
X_0820_ a_to_b_mem\[14\]\[5\] net7 _0567_ _0102_ VDD VSS gf180mcu_fd_sc_mcu9t5v0__mux2_2
X_0821_ a_to_b_mem\[14\]\[6\] net8 _0567_ _0103_ VDD VSS gf180mcu_fd_sc_mcu9t5v0__mux2_2
X_0822_ a_to_b_mem\[14\]\[7\] net9 _0567_ _0104_ VDD VSS gf180mcu_fd_sc_mcu9t5v0__mux2_2
X_0823_ _0461_ _0559_ _0561_ _0569_ VDD VSS gf180mcu_fd_sc_mcu9t5v0__and3_4
Xoutput36 net36 a_to_b_count[2] VDD VSS gf180mcu_fd_sc_mcu9t5v0__dlyb_2
X_0825_ a_to_b_mem\[15\]\[0\] net2 _0569_ _0105_ VDD VSS gf180mcu_fd_sc_mcu9t5v0__mux2_2
X_0826_ a_to_b_mem\[15\]\[1\] net3 _0569_ _0106_ VDD VSS gf180mcu_fd_sc_mcu9t5v0__mux2_2
X_0827_ a_to_b_mem\[15\]\[2\] net4 _0569_ _0107_ VDD VSS gf180mcu_fd_sc_mcu9t5v0__mux2_2
X_0828_ a_to_b_mem\[15\]\[3\] net5 _0569_ _0108_ VDD VSS gf180mcu_fd_sc_mcu9t5v0__mux2_2
X_0829_ a_to_b_mem\[15\]\[4\] net6 _0569_ _0109_ VDD VSS gf180mcu_fd_sc_mcu9t5v0__mux2_2
X_0830_ a_to_b_mem\[15\]\[5\] net7 _0569_ _0110_ VDD VSS gf180mcu_fd_sc_mcu9t5v0__mux2_2
X_0831_ a_to_b_mem\[15\]\[6\] net8 _0569_ _0111_ VDD VSS gf180mcu_fd_sc_mcu9t5v0__mux2_2
X_0832_ a_to_b_mem\[15\]\[7\] net9 _0569_ _0112_ VDD VSS gf180mcu_fd_sc_mcu9t5v0__mux2_2
X_0833_ net10 _0038_ _0461_ _0546_ _0571_ VDD VSS gf180mcu_fd_sc_mcu9t5v0__and4_4
Xoutput35 net35 a_to_b_count[1] VDD VSS gf180mcu_fd_sc_mcu9t5v0__dlyb_2
X_0835_ a_to_b_mem\[1\]\[0\] net2 _0571_ _0113_ VDD VSS gf180mcu_fd_sc_mcu9t5v0__mux2_2
X_0836_ a_to_b_mem\[1\]\[1\] net3 _0571_ _0114_ VDD VSS gf180mcu_fd_sc_mcu9t5v0__mux2_2
X_0837_ a_to_b_mem\[1\]\[2\] net4 _0571_ _0115_ VDD VSS gf180mcu_fd_sc_mcu9t5v0__mux2_2
X_0838_ a_to_b_mem\[1\]\[3\] net5 _0571_ _0116_ VDD VSS gf180mcu_fd_sc_mcu9t5v0__mux2_2
X_0839_ a_to_b_mem\[1\]\[4\] net6 _0571_ _0117_ VDD VSS gf180mcu_fd_sc_mcu9t5v0__mux2_2
X_0840_ a_to_b_mem\[1\]\[5\] net7 _0571_ _0118_ VDD VSS gf180mcu_fd_sc_mcu9t5v0__mux2_2
X_0841_ a_to_b_mem\[1\]\[6\] net8 _0571_ _0119_ VDD VSS gf180mcu_fd_sc_mcu9t5v0__mux2_2
X_0842_ a_to_b_mem\[1\]\[7\] net9 _0571_ _0120_ VDD VSS gf180mcu_fd_sc_mcu9t5v0__mux2_2
X_0843_ net10 _0037_ _0461_ _0546_ _0573_ VDD VSS gf180mcu_fd_sc_mcu9t5v0__and4_4
Xoutput34 net34 a_to_b_count[0] VDD VSS gf180mcu_fd_sc_mcu9t5v0__dlyb_2
X_0845_ a_to_b_mem\[2\]\[0\] net2 _0573_ _0121_ VDD VSS gf180mcu_fd_sc_mcu9t5v0__mux2_2
X_0846_ a_to_b_mem\[2\]\[1\] net3 _0573_ _0122_ VDD VSS gf180mcu_fd_sc_mcu9t5v0__mux2_2
X_0847_ a_to_b_mem\[2\]\[2\] net4 _0573_ _0123_ VDD VSS gf180mcu_fd_sc_mcu9t5v0__mux2_2
X_0848_ a_to_b_mem\[2\]\[3\] net5 _0573_ _0124_ VDD VSS gf180mcu_fd_sc_mcu9t5v0__mux2_2
X_0849_ a_to_b_mem\[2\]\[4\] net6 _0573_ _0125_ VDD VSS gf180mcu_fd_sc_mcu9t5v0__mux2_2
X_0850_ a_to_b_mem\[2\]\[5\] net7 _0573_ _0126_ VDD VSS gf180mcu_fd_sc_mcu9t5v0__mux2_2
X_0851_ a_to_b_mem\[2\]\[6\] net8 _0573_ _0127_ VDD VSS gf180mcu_fd_sc_mcu9t5v0__mux2_2
X_0852_ a_to_b_mem\[2\]\[7\] net9 _0573_ _0128_ VDD VSS gf180mcu_fd_sc_mcu9t5v0__mux2_2
X_0853_ _0461_ _0546_ _0559_ _0575_ VDD VSS gf180mcu_fd_sc_mcu9t5v0__and3_4
X_0854_ a_to_b_mem\[3\]\[0\] net2 _0575_ _0129_ VDD VSS gf180mcu_fd_sc_mcu9t5v0__mux2_2
X_0855_ a_to_b_mem\[3\]\[1\] net3 _0575_ _0130_ VDD VSS gf180mcu_fd_sc_mcu9t5v0__mux2_2
X_0856_ a_to_b_mem\[3\]\[2\] net4 _0575_ _0131_ VDD VSS gf180mcu_fd_sc_mcu9t5v0__mux2_2
X_0857_ a_to_b_mem\[3\]\[3\] net5 _0575_ _0132_ VDD VSS gf180mcu_fd_sc_mcu9t5v0__mux2_2
X_0858_ a_to_b_mem\[3\]\[4\] net6 _0575_ _0133_ VDD VSS gf180mcu_fd_sc_mcu9t5v0__mux2_2
X_0859_ a_to_b_mem\[3\]\[5\] net7 _0575_ _0134_ VDD VSS gf180mcu_fd_sc_mcu9t5v0__mux2_2
X_0860_ a_to_b_mem\[3\]\[6\] net8 _0575_ _0135_ VDD VSS gf180mcu_fd_sc_mcu9t5v0__mux2_2
X_0861_ a_to_b_mem\[3\]\[7\] net9 _0575_ _0136_ VDD VSS gf180mcu_fd_sc_mcu9t5v0__mux2_2
X_0862_ _0544_ a_wr_ptr\[2\] _0576_ VDD VSS gf180mcu_fd_sc_mcu9t5v0__and2_2
X_0863_ net10 _0035_ _0461_ _0576_ _0577_ VDD VSS gf180mcu_fd_sc_mcu9t5v0__and4_4
Xoutput33 net33 a_rd_data[7] VDD VSS gf180mcu_fd_sc_mcu9t5v0__dlyb_2
X_0865_ a_to_b_mem\[4\]\[0\] net2 _0577_ _0137_ VDD VSS gf180mcu_fd_sc_mcu9t5v0__mux2_2
X_0866_ a_to_b_mem\[4\]\[1\] net3 _0577_ _0138_ VDD VSS gf180mcu_fd_sc_mcu9t5v0__mux2_2
X_0867_ a_to_b_mem\[4\]\[2\] net4 _0577_ _0139_ VDD VSS gf180mcu_fd_sc_mcu9t5v0__mux2_2
X_0868_ a_to_b_mem\[4\]\[3\] net5 _0577_ _0140_ VDD VSS gf180mcu_fd_sc_mcu9t5v0__mux2_2
X_0869_ a_to_b_mem\[4\]\[4\] net6 _0577_ _0141_ VDD VSS gf180mcu_fd_sc_mcu9t5v0__mux2_2
X_0870_ a_to_b_mem\[4\]\[5\] net7 _0577_ _0142_ VDD VSS gf180mcu_fd_sc_mcu9t5v0__mux2_2
X_0871_ a_to_b_mem\[4\]\[6\] net8 _0577_ _0143_ VDD VSS gf180mcu_fd_sc_mcu9t5v0__mux2_2
X_0872_ a_to_b_mem\[4\]\[7\] net9 _0577_ _0144_ VDD VSS gf180mcu_fd_sc_mcu9t5v0__mux2_2
X_0873_ net10 _0038_ _0461_ _0576_ _0579_ VDD VSS gf180mcu_fd_sc_mcu9t5v0__and4_4
Xoutput32 net32 a_rd_data[6] VDD VSS gf180mcu_fd_sc_mcu9t5v0__dlyb_2
X_0875_ a_to_b_mem\[5\]\[0\] net2 _0579_ _0145_ VDD VSS gf180mcu_fd_sc_mcu9t5v0__mux2_2
X_0876_ a_to_b_mem\[5\]\[1\] net3 _0579_ _0146_ VDD VSS gf180mcu_fd_sc_mcu9t5v0__mux2_2
X_0877_ a_to_b_mem\[5\]\[2\] net4 _0579_ _0147_ VDD VSS gf180mcu_fd_sc_mcu9t5v0__mux2_2
X_0878_ a_to_b_mem\[5\]\[3\] net5 _0579_ _0148_ VDD VSS gf180mcu_fd_sc_mcu9t5v0__mux2_2
X_0879_ a_to_b_mem\[5\]\[4\] net6 _0579_ _0149_ VDD VSS gf180mcu_fd_sc_mcu9t5v0__mux2_2
X_0880_ a_to_b_mem\[5\]\[5\] net7 _0579_ _0150_ VDD VSS gf180mcu_fd_sc_mcu9t5v0__mux2_2
X_0881_ a_to_b_mem\[5\]\[6\] net8 _0579_ _0151_ VDD VSS gf180mcu_fd_sc_mcu9t5v0__mux2_2
X_0882_ a_to_b_mem\[5\]\[7\] net9 _0579_ _0152_ VDD VSS gf180mcu_fd_sc_mcu9t5v0__mux2_2
X_0883_ net10 _0037_ _0461_ _0576_ _0581_ VDD VSS gf180mcu_fd_sc_mcu9t5v0__and4_4
Xoutput31 net31 a_rd_data[5] VDD VSS gf180mcu_fd_sc_mcu9t5v0__dlyb_2
X_0885_ a_to_b_mem\[6\]\[0\] net2 _0581_ _0153_ VDD VSS gf180mcu_fd_sc_mcu9t5v0__mux2_2
X_0886_ a_to_b_mem\[6\]\[1\] net3 _0581_ _0154_ VDD VSS gf180mcu_fd_sc_mcu9t5v0__mux2_2
X_0887_ a_to_b_mem\[6\]\[2\] net4 _0581_ _0155_ VDD VSS gf180mcu_fd_sc_mcu9t5v0__mux2_2
X_0888_ a_to_b_mem\[6\]\[3\] net5 _0581_ _0156_ VDD VSS gf180mcu_fd_sc_mcu9t5v0__mux2_2
X_0889_ a_to_b_mem\[6\]\[4\] net6 _0581_ _0157_ VDD VSS gf180mcu_fd_sc_mcu9t5v0__mux2_2
X_0890_ a_to_b_mem\[6\]\[5\] net7 _0581_ _0158_ VDD VSS gf180mcu_fd_sc_mcu9t5v0__mux2_2
X_0891_ a_to_b_mem\[6\]\[6\] net8 _0581_ _0159_ VDD VSS gf180mcu_fd_sc_mcu9t5v0__mux2_2
X_0892_ a_to_b_mem\[6\]\[7\] net9 _0581_ _0160_ VDD VSS gf180mcu_fd_sc_mcu9t5v0__mux2_2
X_0893_ _0461_ _0559_ _0576_ _0583_ VDD VSS gf180mcu_fd_sc_mcu9t5v0__and3_4
X_0894_ a_to_b_mem\[7\]\[0\] net2 _0583_ _0161_ VDD VSS gf180mcu_fd_sc_mcu9t5v0__mux2_2
X_0895_ a_to_b_mem\[7\]\[1\] net3 _0583_ _0162_ VDD VSS gf180mcu_fd_sc_mcu9t5v0__mux2_2
X_0896_ a_to_b_mem\[7\]\[2\] net4 _0583_ _0163_ VDD VSS gf180mcu_fd_sc_mcu9t5v0__mux2_2
X_0897_ a_to_b_mem\[7\]\[3\] net5 _0583_ _0164_ VDD VSS gf180mcu_fd_sc_mcu9t5v0__mux2_2
X_0898_ a_to_b_mem\[7\]\[4\] net6 _0583_ _0165_ VDD VSS gf180mcu_fd_sc_mcu9t5v0__mux2_2
X_0899_ a_to_b_mem\[7\]\[5\] net7 _0583_ _0166_ VDD VSS gf180mcu_fd_sc_mcu9t5v0__mux2_2
X_0900_ a_to_b_mem\[7\]\[6\] net8 _0583_ _0167_ VDD VSS gf180mcu_fd_sc_mcu9t5v0__mux2_2
X_0901_ a_to_b_mem\[7\]\[7\] net9 _0583_ _0168_ VDD VSS gf180mcu_fd_sc_mcu9t5v0__mux2_2
X_0902_ net10 _0035_ _0461_ _0556_ _0584_ VDD VSS gf180mcu_fd_sc_mcu9t5v0__and4_4
Xoutput30 net30 a_rd_data[4] VDD VSS gf180mcu_fd_sc_mcu9t5v0__dlyb_2
X_0904_ a_to_b_mem\[8\]\[0\] net2 _0584_ _0169_ VDD VSS gf180mcu_fd_sc_mcu9t5v0__mux2_2
X_0905_ a_to_b_mem\[8\]\[1\] net3 _0584_ _0170_ VDD VSS gf180mcu_fd_sc_mcu9t5v0__mux2_2
X_0906_ a_to_b_mem\[8\]\[2\] net4 _0584_ _0171_ VDD VSS gf180mcu_fd_sc_mcu9t5v0__mux2_2
X_0907_ a_to_b_mem\[8\]\[3\] net5 _0584_ _0172_ VDD VSS gf180mcu_fd_sc_mcu9t5v0__mux2_2
X_0908_ a_to_b_mem\[8\]\[4\] net6 _0584_ _0173_ VDD VSS gf180mcu_fd_sc_mcu9t5v0__mux2_2
X_0909_ a_to_b_mem\[8\]\[5\] net7 _0584_ _0174_ VDD VSS gf180mcu_fd_sc_mcu9t5v0__mux2_2
X_0910_ a_to_b_mem\[8\]\[6\] net8 _0584_ _0175_ VDD VSS gf180mcu_fd_sc_mcu9t5v0__mux2_2
X_0911_ a_to_b_mem\[8\]\[7\] net9 _0584_ _0176_ VDD VSS gf180mcu_fd_sc_mcu9t5v0__mux2_2
X_0912_ net10 _0038_ _0461_ _0556_ _0586_ VDD VSS gf180mcu_fd_sc_mcu9t5v0__and4_4
Xoutput29 net29 a_rd_data[3] VDD VSS gf180mcu_fd_sc_mcu9t5v0__dlyb_2
X_0914_ a_to_b_mem\[9\]\[0\] net2 _0586_ _0177_ VDD VSS gf180mcu_fd_sc_mcu9t5v0__mux2_2
X_0915_ a_to_b_mem\[9\]\[1\] net3 _0586_ _0178_ VDD VSS gf180mcu_fd_sc_mcu9t5v0__mux2_2
X_0916_ a_to_b_mem\[9\]\[2\] net4 _0586_ _0179_ VDD VSS gf180mcu_fd_sc_mcu9t5v0__mux2_2
X_0917_ a_to_b_mem\[9\]\[3\] net5 _0586_ _0180_ VDD VSS gf180mcu_fd_sc_mcu9t5v0__mux2_2
X_0918_ a_to_b_mem\[9\]\[4\] net6 _0586_ _0181_ VDD VSS gf180mcu_fd_sc_mcu9t5v0__mux2_2
X_0919_ a_to_b_mem\[9\]\[5\] net7 _0586_ _0182_ VDD VSS gf180mcu_fd_sc_mcu9t5v0__mux2_2
X_0920_ a_to_b_mem\[9\]\[6\] net8 _0586_ _0183_ VDD VSS gf180mcu_fd_sc_mcu9t5v0__mux2_2
X_0921_ a_to_b_mem\[9\]\[7\] net9 _0586_ _0184_ VDD VSS gf180mcu_fd_sc_mcu9t5v0__mux2_2
X_0922_ net10 _0461_ _0588_ VDD VSS gf180mcu_fd_sc_mcu9t5v0__nand2_2
X_0923_ a_wr_ptr\[0\] _0588_ _0185_ VDD VSS gf180mcu_fd_sc_mcu9t5v0__xnor2_2
X_0924_ _0036_ a_wr_ptr\[1\] _0588_ _0186_ VDD VSS gf180mcu_fd_sc_mcu9t5v0__mux2_2
X_0925_ _0461_ _0559_ _0589_ VDD VSS gf180mcu_fd_sc_mcu9t5v0__and2_2
X_0926_ _0545_ _0589_ _0187_ VDD VSS gf180mcu_fd_sc_mcu9t5v0__xnor2_2
X_0927_ net10 a_wr_ptr\[2\] a_wr_ptr\[1\] a_wr_ptr\[0\] _0590_
+ VDD VSS gf180mcu_fd_sc_mcu9t5v0__and4_2
X_0928_ _0461_ _0590_ _0591_ VDD VSS gf180mcu_fd_sc_mcu9t5v0__and2_2
X_0929_ _0544_ _0591_ _0188_ VDD VSS gf180mcu_fd_sc_mcu9t5v0__xnor2_2
X_0930_ a_wr_ptr\[4\] _0569_ _0189_ VDD VSS gf180mcu_fd_sc_mcu9t5v0__xor2_2
Xoutput28 net28 a_rd_data[2] VDD VSS gf180mcu_fd_sc_mcu9t5v0__dlyb_2
Xoutput27 net27 a_rd_data[1] VDD VSS gf180mcu_fd_sc_mcu9t5v0__dlyb_2
Xoutput26 net26 a_rd_data[0] VDD VSS gf180mcu_fd_sc_mcu9t5v0__dlyb_2
X_0934_ a_to_b_mem\[2\]\[0\] a_to_b_mem\[3\]\[0\] a_to_b_mem\[6\]\[0\]
+ a_to_b_mem\[7\]\[0\] net61 b_rd_ptr\[2\] _0595_ VDD VSS gf180mcu_fd_sc_mcu9t5v0__mux4_2
Xoutput25 net25 a_full VDD VSS gf180mcu_fd_sc_mcu9t5v0__dlyb_2
X_0936_ a_to_b_mem\[0\]\[0\] a_to_b_mem\[1\]\[0\] a_to_b_mem\[4\]\[0\]
+ a_to_b_mem\[5\]\[0\] net61 b_rd_ptr\[2\] _0597_ VDD VSS gf180mcu_fd_sc_mcu9t5v0__mux4_2
X_0937_ _0595_ _0597_ _0000_ _0598_ VDD VSS gf180mcu_fd_sc_mcu9t5v0__mux2_2
Xoutput24 net24 a_empty VDD VSS gf180mcu_fd_sc_mcu9t5v0__dlyb_2