* CDL Netlist generated by OpenROAD

*.BUSDELIMITER [

.SUBCKT bidirectional_fifo a_almost_empty a_almost_full a_empty
+ a_full a_rd_data[0] a_rd_data[1] a_rd_data[2] a_rd_data[3]
+ a_rd_data[4] a_rd_data[5] a_rd_data[6] a_rd_data[7] a_rd_en
+ a_to_b_count[0] a_to_b_count[1] a_to_b_count[2] a_to_b_count[3]
+ a_to_b_count[4] a_wr_data[0] a_wr_data[1] a_wr_data[2] a_wr_data[3]
+ a_wr_data[4] a_wr_data[5] a_wr_data[6] a_wr_data[7] a_wr_en
+ b_almost_empty b_almost_full b_empty b_full b_rd_data[0] b_rd_data[1]
+ b_rd_data[2] b_rd_data[3] b_rd_data[4] b_rd_data[5] b_rd_data[6]
+ b_rd_data[7] b_rd_en b_to_a_count[0] b_to_a_count[1] b_to_a_count[2]
+ b_to_a_count[3] b_to_a_count[4] b_wr_data[0] b_wr_data[1]
+ b_wr_data[2] b_wr_data[3] b_wr_data[4] b_wr_data[5] b_wr_data[6]
+ b_wr_data[7] b_wr_en clk rst_n
X_0622_ _0621_ net51 VDD VSS gf180mcu_fd_sc_mcu9t5v0__clkinv_2
X_0623_ _0596_ _0580_ _0415_ VDD VSS gf180mcu_fd_sc_mcu9t5v0__xnor2_2
X_0624_ _0415_ net53 VDD VSS gf180mcu_fd_sc_mcu9t5v0__clkinv_2
X_0625_ _0596_ _0588_ _0416_ VDD VSS gf180mcu_fd_sc_mcu9t5v0__and2_2
X_0626_ _0620_ _0579_ VDD VSS gf180mcu_fd_sc_mcu9t5v0__clkinv_2
X_0627_ _0596_ _0587_ _0416_ _0579_ _0595_ _0417_ VDD VSS
+ gf180mcu_fd_sc_mcu9t5v0__aoi221_4
X_0628_ _0586_ _0417_ net54 VDD VSS gf180mcu_fd_sc_mcu9t5v0__xnor2_2
X_0629_ _0586_ _0596_ _0580_ _0418_ VDD VSS gf180mcu_fd_sc_mcu9t5v0__and3_2
X_0630_ _0586_ _0595_ _0418_ _0585_ _0419_ VDD VSS gf180mcu_fd_sc_mcu9t5v0__aoi211_4
X_0631_ b_wr_ptr\[4\] a_rd_ptr\[4\] _0419_ _0420_ VDD VSS
+ gf180mcu_fd_sc_mcu9t5v0__xnor3_2
X_0632_ _0420_ _0421_ VDD VSS gf180mcu_fd_sc_mcu9t5v0__clkbuf_8
X_0633_ _0421_ _0422_ VDD VSS gf180mcu_fd_sc_mcu9t5v0__clkinv_4
X_0634_ _0422_ net55 VDD VSS gf180mcu_fd_sc_mcu9t5v0__buf_16
X_0635_ _0619_ net34 VDD VSS gf180mcu_fd_sc_mcu9t5v0__inv_12
X_0636_ _0599_ _0593_ _0423_ VDD VSS gf180mcu_fd_sc_mcu9t5v0__and2_2
X_0637_ _0618_ _0582_ VDD VSS gf180mcu_fd_sc_mcu9t5v0__clkinv_2
X_0638_ _0599_ _0592_ _0423_ _0582_ _0598_ _0424_ VDD VSS
+ gf180mcu_fd_sc_mcu9t5v0__aoi221_4
X_0639_ _0591_ _0424_ net37 VDD VSS gf180mcu_fd_sc_mcu9t5v0__xnor2_2
X_0640_ _0599_ _0583_ _0425_ VDD VSS gf180mcu_fd_sc_mcu9t5v0__xnor2_2
X_0641_ _0425_ net36 VDD VSS gf180mcu_fd_sc_mcu9t5v0__clkinv_2
X_0642_ _0591_ _0599_ _0583_ _0426_ VDD VSS gf180mcu_fd_sc_mcu9t5v0__and3_2
X_0643_ _0591_ _0598_ _0426_ _0590_ _0427_ VDD VSS gf180mcu_fd_sc_mcu9t5v0__aoi211_2
X_0644_ a_wr_ptr\[4\] b_rd_ptr\[4\] _0427_ _0428_ VDD VSS
+ gf180mcu_fd_sc_mcu9t5v0__xnor3_2
X_0645_ _0428_ _0429_ VDD VSS gf180mcu_fd_sc_mcu9t5v0__clkbuf_8
X_0646_ _0429_ _0430_ VDD VSS gf180mcu_fd_sc_mcu9t5v0__clkinv_2
X_0647_ _0430_ net38 VDD VSS gf180mcu_fd_sc_mcu9t5v0__clkbuf_8
X_0648_ net35 _0431_ VDD VSS gf180mcu_fd_sc_mcu9t5v0__clkinv_2
X_0649_ _0591_ _0619_ _0431_ _0425_ _0432_ VDD VSS gf180mcu_fd_sc_mcu9t5v0__and4_2
X_0650_ _0591_ _0433_ VDD VSS gf180mcu_fd_sc_mcu9t5v0__clkinv_2
X_0651_ _0433_ _0619_ _0431_ _0425_ _0434_ VDD VSS gf180mcu_fd_sc_mcu9t5v0__and4_2
X_0652_ _0432_ _0434_ _0424_ _0435_ VDD VSS gf180mcu_fd_sc_mcu9t5v0__mux2_4
X_0653_ _0435_ _0436_ VDD VSS gf180mcu_fd_sc_mcu9t5v0__buf_8
X_0654_ net38 _0436_ net42 VDD VSS gf180mcu_fd_sc_mcu9t5v0__and2_2
X_0655_ net52 _0437_ VDD VSS gf180mcu_fd_sc_mcu9t5v0__clkinv_2
X_0656_ _0586_ _0621_ _0437_ _0415_ _0438_ VDD VSS gf180mcu_fd_sc_mcu9t5v0__and4_2
X_0657_ _0586_ _0439_ VDD VSS gf180mcu_fd_sc_mcu9t5v0__clkinv_2
X_0658_ _0439_ _0621_ _0437_ _0415_ _0440_ VDD VSS gf180mcu_fd_sc_mcu9t5v0__and4_2
X_0659_ _0438_ _0440_ _0417_ _0441_ VDD VSS gf180mcu_fd_sc_mcu9t5v0__mux2_4
X_0660_ _0441_ _0442_ VDD VSS gf180mcu_fd_sc_mcu9t5v0__buf_8
X_0661_ net55 _0442_ net25 VDD VSS gf180mcu_fd_sc_mcu9t5v0__and2_2
X_0662_ _0421_ _0442_ net24 VDD VSS gf180mcu_fd_sc_mcu9t5v0__and2_4
X_0663_ _0429_ _0436_ net41 VDD VSS gf180mcu_fd_sc_mcu9t5v0__and2_4
X_0664_ a_rd_ptr\[3\] _0443_ VDD VSS gf180mcu_fd_sc_mcu9t5v0__clkbuf_8
X_0665_ _0443_ _0584_ VDD VSS gf180mcu_fd_sc_mcu9t5v0__clkinv_2
X_0666_ a_rd_ptr\[1\] _0578_ VDD VSS gf180mcu_fd_sc_mcu9t5v0__clkinv_8
X_0667_ a_rd_ptr\[2\] _0444_ VDD VSS gf180mcu_fd_sc_mcu9t5v0__clkbuf_8
X_0668_ _0444_ _0594_ VDD VSS gf180mcu_fd_sc_mcu9t5v0__clkinv_8
X_0669_ b_wr_ptr\[0\] _0003_ VDD VSS gf180mcu_fd_sc_mcu9t5v0__clkinv_2
X_0670_ a_wr_ptr\[0\] _0000_ VDD VSS gf180mcu_fd_sc_mcu9t5v0__clkinv_2
X_0671_ b_rd_ptr\[3\] _0445_ VDD VSS gf180mcu_fd_sc_mcu9t5v0__clkbuf_8
X_0672_ _0445_ _0589_ VDD VSS gf180mcu_fd_sc_mcu9t5v0__clkinv_2
X_0673_ b_rd_ptr\[1\] _0581_ VDD VSS gf180mcu_fd_sc_mcu9t5v0__clkinv_8
X_0674_ b_rd_ptr\[2\] _0446_ VDD VSS gf180mcu_fd_sc_mcu9t5v0__clkbuf_8
X_0675_ _0446_ _0597_ VDD VSS gf180mcu_fd_sc_mcu9t5v0__clkinv_8
X_0676_ b_wr_ptr\[1\] _0601_ VDD VSS gf180mcu_fd_sc_mcu9t5v0__clkinv_2
X_0677_ a_wr_ptr\[1\] _0610_ VDD VSS gf180mcu_fd_sc_mcu9t5v0__clkinv_2
X_0678_ a_rd_ptr\[0\] _0447_ VDD VSS gf180mcu_fd_sc_mcu9t5v0__buf_4
X_0679_ _0447_ _0448_ VDD VSS gf180mcu_fd_sc_mcu9t5v0__clkbuf_8
X_0680_ a_rd_ptr\[2\] _0449_ VDD VSS gf180mcu_fd_sc_mcu9t5v0__buf_4
X_0681_ b_to_a_mem\[2\]\[0\] b_to_a_mem\[3\]\[0\] b_to_a_mem\[6\]\[0\]
+ b_to_a_mem\[7\]\[0\] _0448_ _0449_ _0450_ VDD VSS gf180mcu_fd_sc_mcu9t5v0__mux4_2
X_0682_ _0447_ _0451_ VDD VSS gf180mcu_fd_sc_mcu9t5v0__buf_8
X_0683_ b_to_a_mem\[0\]\[0\] b_to_a_mem\[1\]\[0\] b_to_a_mem\[4\]\[0\]
+ b_to_a_mem\[5\]\[0\] _0451_ _0444_ _0452_ VDD VSS gf180mcu_fd_sc_mcu9t5v0__mux4_2
X_0684_ _0450_ _0452_ _0578_ _0453_ VDD VSS gf180mcu_fd_sc_mcu9t5v0__mux2_2
X_0685_ a_rd_ptr\[1\] _0454_ VDD VSS gf180mcu_fd_sc_mcu9t5v0__buf_4
X_0686_ b_to_a_mem\[12\]\[0\] b_to_a_mem\[13\]\[0\] b_to_a_mem\[14\]\[0\]
+ b_to_a_mem\[15\]\[0\] _0451_ _0454_ _0455_ VDD VSS gf180mcu_fd_sc_mcu9t5v0__mux4_2
X_0687_ _0447_ _0456_ VDD VSS gf180mcu_fd_sc_mcu9t5v0__clkbuf_8
X_0688_ b_to_a_mem\[8\]\[0\] b_to_a_mem\[9\]\[0\] b_to_a_mem\[10\]\[0\]
+ b_to_a_mem\[11\]\[0\] _0456_ a_rd_ptr\[1\] _0457_ VDD VSS
+ gf180mcu_fd_sc_mcu9t5v0__mux4_2
X_0689_ _0455_ _0457_ _0594_ _0458_ VDD VSS gf180mcu_fd_sc_mcu9t5v0__mux2_2
X_0690_ _0453_ _0458_ _0443_ _0459_ VDD VSS gf180mcu_fd_sc_mcu9t5v0__mux2_2
X_0691_ _0422_ _0460_ VDD VSS gf180mcu_fd_sc_mcu9t5v0__clkbuf_12
X_0692_ _0439_ net51 net52 net53 _0461_ VDD VSS gf180mcu_fd_sc_mcu9t5v0__or4_2
X_0693_ _0586_ net51 net52 net53 _0462_ VDD VSS gf180mcu_fd_sc_mcu9t5v0__or4_2
X_0694_ _0461_ _0462_ _0417_ _0463_ VDD VSS gf180mcu_fd_sc_mcu9t5v0__mux2_2
X_0695_ _0463_ _0464_ VDD VSS gf180mcu_fd_sc_mcu9t5v0__clkbuf_8
X_0696_ _0460_ _0464_ net2 _0465_ VDD VSS gf180mcu_fd_sc_mcu9t5v0__oai21_4
X_0697_ _0459_ net26 _0465_ _0006_ VDD VSS gf180mcu_fd_sc_mcu9t5v0__mux2_2
X_0698_ b_to_a_mem\[2\]\[1\] b_to_a_mem\[3\]\[1\] b_to_a_mem\[6\]\[1\]
+ b_to_a_mem\[7\]\[1\] _0448_ _0449_ _0466_ VDD VSS gf180mcu_fd_sc_mcu9t5v0__mux4_2
X_0699_ b_to_a_mem\[0\]\[1\] b_to_a_mem\[1\]\[1\] b_to_a_mem\[4\]\[1\]
+ b_to_a_mem\[5\]\[1\] _0451_ _0444_ _0467_ VDD VSS gf180mcu_fd_sc_mcu9t5v0__mux4_2
X_0700_ _0466_ _0467_ _0578_ _0468_ VDD VSS gf180mcu_fd_sc_mcu9t5v0__mux2_2
X_0701_ b_to_a_mem\[12\]\[1\] b_to_a_mem\[13\]\[1\] b_to_a_mem\[14\]\[1\]
+ b_to_a_mem\[15\]\[1\] _0451_ _0454_ _0469_ VDD VSS gf180mcu_fd_sc_mcu9t5v0__mux4_2
X_0702_ b_to_a_mem\[8\]\[1\] b_to_a_mem\[9\]\[1\] b_to_a_mem\[10\]\[1\]
+ b_to_a_mem\[11\]\[1\] _0456_ a_rd_ptr\[1\] _0470_ VDD VSS
+ gf180mcu_fd_sc_mcu9t5v0__mux4_2
X_0703_ _0469_ _0470_ _0594_ _0471_ VDD VSS gf180mcu_fd_sc_mcu9t5v0__mux2_2
X_0704_ _0468_ _0471_ _0443_ _0472_ VDD VSS gf180mcu_fd_sc_mcu9t5v0__mux2_2
X_0705_ _0472_ net27 _0465_ _0007_ VDD VSS gf180mcu_fd_sc_mcu9t5v0__mux2_2
X_0706_ b_to_a_mem\[2\]\[2\] b_to_a_mem\[3\]\[2\] b_to_a_mem\[6\]\[2\]
+ b_to_a_mem\[7\]\[2\] _0448_ _0449_ _0473_ VDD VSS gf180mcu_fd_sc_mcu9t5v0__mux4_2
X_0707_ b_to_a_mem\[0\]\[2\] b_to_a_mem\[1\]\[2\] b_to_a_mem\[4\]\[2\]
+ b_to_a_mem\[5\]\[2\] _0451_ _0444_ _0474_ VDD VSS gf180mcu_fd_sc_mcu9t5v0__mux4_2
X_0708_ _0473_ _0474_ _0578_ _0475_ VDD VSS gf180mcu_fd_sc_mcu9t5v0__mux2_2
X_0709_ b_to_a_mem\[12\]\[2\] b_to_a_mem\[13\]\[2\] b_to_a_mem\[14\]\[2\]
+ b_to_a_mem\[15\]\[2\] _0456_ _0454_ _0476_ VDD VSS gf180mcu_fd_sc_mcu9t5v0__mux4_2
X_0710_ b_to_a_mem\[8\]\[2\] b_to_a_mem\[9\]\[2\] b_to_a_mem\[10\]\[2\]
+ b_to_a_mem\[11\]\[2\] _0456_ a_rd_ptr\[1\] _0477_ VDD VSS
+ gf180mcu_fd_sc_mcu9t5v0__mux4_2
X_0711_ _0476_ _0477_ _0594_ _0478_ VDD VSS gf180mcu_fd_sc_mcu9t5v0__mux2_2
X_0712_ _0475_ _0478_ _0443_ _0479_ VDD VSS gf180mcu_fd_sc_mcu9t5v0__mux2_2
X_0713_ _0479_ net28 _0465_ _0008_ VDD VSS gf180mcu_fd_sc_mcu9t5v0__mux2_2
X_0714_ b_to_a_mem\[2\]\[3\] b_to_a_mem\[3\]\[3\] b_to_a_mem\[6\]\[3\]
+ b_to_a_mem\[7\]\[3\] _0448_ _0449_ _0480_ VDD VSS gf180mcu_fd_sc_mcu9t5v0__mux4_2
X_0715_ b_to_a_mem\[0\]\[3\] b_to_a_mem\[1\]\[3\] b_to_a_mem\[4\]\[3\]
+ b_to_a_mem\[5\]\[3\] _0451_ _0444_ _0481_ VDD VSS gf180mcu_fd_sc_mcu9t5v0__mux4_2
X_0716_ _0480_ _0481_ _0578_ _0482_ VDD VSS gf180mcu_fd_sc_mcu9t5v0__mux2_2
X_0717_ b_to_a_mem\[12\]\[3\] b_to_a_mem\[13\]\[3\] b_to_a_mem\[14\]\[3\]
+ b_to_a_mem\[15\]\[3\] _0456_ _0454_ _0483_ VDD VSS gf180mcu_fd_sc_mcu9t5v0__mux4_2
X_0718_ b_to_a_mem\[8\]\[3\] b_to_a_mem\[9\]\[3\] b_to_a_mem\[10\]\[3\]
+ b_to_a_mem\[11\]\[3\] _0456_ a_rd_ptr\[1\] _0484_ VDD VSS
+ gf180mcu_fd_sc_mcu9t5v0__mux4_2
X_0719_ _0483_ _0484_ _0594_ _0485_ VDD VSS gf180mcu_fd_sc_mcu9t5v0__mux2_2
X_0720_ _0482_ _0485_ _0443_ _0486_ VDD VSS gf180mcu_fd_sc_mcu9t5v0__mux2_2
X_0721_ _0486_ net29 _0465_ _0009_ VDD VSS gf180mcu_fd_sc_mcu9t5v0__mux2_2
X_0722_ b_to_a_mem\[2\]\[4\] b_to_a_mem\[3\]\[4\] b_to_a_mem\[6\]\[4\]
+ b_to_a_mem\[7\]\[4\] _0448_ _0449_ _0487_ VDD VSS gf180mcu_fd_sc_mcu9t5v0__mux4_2
X_0723_ b_to_a_mem\[0\]\[4\] b_to_a_mem\[1\]\[4\] b_to_a_mem\[4\]\[4\]
+ b_to_a_mem\[5\]\[4\] _0451_ _0444_ _0488_ VDD VSS gf180mcu_fd_sc_mcu9t5v0__mux4_2
X_0724_ _0487_ _0488_ _0578_ _0489_ VDD VSS gf180mcu_fd_sc_mcu9t5v0__mux2_2
X_0725_ b_to_a_mem\[12\]\[4\] b_to_a_mem\[13\]\[4\] b_to_a_mem\[14\]\[4\]
+ b_to_a_mem\[15\]\[4\] _0456_ _0454_ _0490_ VDD VSS gf180mcu_fd_sc_mcu9t5v0__mux4_2
X_0726_ b_to_a_mem\[8\]\[4\] b_to_a_mem\[9\]\[4\] b_to_a_mem\[10\]\[4\]
+ b_to_a_mem\[11\]\[4\] _0447_ a_rd_ptr\[1\] _0491_ VDD VSS
+ gf180mcu_fd_sc_mcu9t5v0__mux4_2
X_0727_ _0490_ _0491_ _0594_ _0492_ VDD VSS gf180mcu_fd_sc_mcu9t5v0__mux2_2
X_0728_ _0489_ _0492_ _0443_ _0493_ VDD VSS gf180mcu_fd_sc_mcu9t5v0__mux2_2
X_0729_ _0493_ net30 _0465_ _0010_ VDD VSS gf180mcu_fd_sc_mcu9t5v0__mux2_2
X_0730_ b_to_a_mem\[2\]\[5\] b_to_a_mem\[3\]\[5\] b_to_a_mem\[6\]\[5\]
+ b_to_a_mem\[7\]\[5\] _0448_ _0449_ _0494_ VDD VSS gf180mcu_fd_sc_mcu9t5v0__mux4_2
X_0731_ b_to_a_mem\[0\]\[5\] b_to_a_mem\[1\]\[5\] b_to_a_mem\[4\]\[5\]
+ b_to_a_mem\[5\]\[5\] _0451_ _0444_ _0495_ VDD VSS gf180mcu_fd_sc_mcu9t5v0__mux4_2
X_0732_ _0494_ _0495_ _0578_ _0496_ VDD VSS gf180mcu_fd_sc_mcu9t5v0__mux2_2
X_0733_ b_to_a_mem\[12\]\[5\] b_to_a_mem\[13\]\[5\] b_to_a_mem\[14\]\[5\]
+ b_to_a_mem\[15\]\[5\] _0456_ _0454_ _0497_ VDD VSS gf180mcu_fd_sc_mcu9t5v0__mux4_2
X_0734_ b_to_a_mem\[8\]\[5\] b_to_a_mem\[9\]\[5\] b_to_a_mem\[10\]\[5\]
+ b_to_a_mem\[11\]\[5\] _0447_ a_rd_ptr\[1\] _0498_ VDD VSS
+ gf180mcu_fd_sc_mcu9t5v0__mux4_2
X_0735_ _0497_ _0498_ _0594_ _0499_ VDD VSS gf180mcu_fd_sc_mcu9t5v0__mux2_2
X_0736_ _0496_ _0499_ _0443_ _0500_ VDD VSS gf180mcu_fd_sc_mcu9t5v0__mux2_2
X_0737_ _0500_ net31 _0465_ _0011_ VDD VSS gf180mcu_fd_sc_mcu9t5v0__mux2_2
X_0738_ b_to_a_mem\[2\]\[6\] b_to_a_mem\[3\]\[6\] b_to_a_mem\[6\]\[6\]
+ b_to_a_mem\[7\]\[6\] _0448_ _0449_ _0501_ VDD VSS gf180mcu_fd_sc_mcu9t5v0__mux4_2
X_0739_ b_to_a_mem\[0\]\[6\] b_to_a_mem\[1\]\[6\] b_to_a_mem\[4\]\[6\]
+ b_to_a_mem\[5\]\[6\] _0451_ _0444_ _0502_ VDD VSS gf180mcu_fd_sc_mcu9t5v0__mux4_2
X_0740_ _0501_ _0502_ _0578_ _0503_ VDD VSS gf180mcu_fd_sc_mcu9t5v0__mux2_2
X_0741_ b_to_a_mem\[12\]\[6\] b_to_a_mem\[13\]\[6\] b_to_a_mem\[14\]\[6\]
+ b_to_a_mem\[15\]\[6\] _0456_ _0454_ _0504_ VDD VSS gf180mcu_fd_sc_mcu9t5v0__mux4_2
X_0742_ b_to_a_mem\[8\]\[6\] b_to_a_mem\[9\]\[6\] b_to_a_mem\[10\]\[6\]
+ b_to_a_mem\[11\]\[6\] _0447_ a_rd_ptr\[1\] _0505_ VDD VSS
+ gf180mcu_fd_sc_mcu9t5v0__mux4_2
X_0743_ _0504_ _0505_ _0594_ _0506_ VDD VSS gf180mcu_fd_sc_mcu9t5v0__mux2_2
X_0744_ _0503_ _0506_ _0443_ _0507_ VDD VSS gf180mcu_fd_sc_mcu9t5v0__mux2_2
X_0745_ _0507_ net32 _0465_ _0012_ VDD VSS gf180mcu_fd_sc_mcu9t5v0__mux2_2
X_0746_ b_to_a_mem\[2\]\[7\] b_to_a_mem\[3\]\[7\] b_to_a_mem\[6\]\[7\]
+ b_to_a_mem\[7\]\[7\] _0448_ _0444_ _0508_ VDD VSS gf180mcu_fd_sc_mcu9t5v0__mux4_2
X_0747_ b_to_a_mem\[0\]\[7\] b_to_a_mem\[1\]\[7\] b_to_a_mem\[4\]\[7\]
+ b_to_a_mem\[5\]\[7\] _0451_ _0444_ _0509_ VDD VSS gf180mcu_fd_sc_mcu9t5v0__mux4_2
X_0748_ _0508_ _0509_ _0578_ _0510_ VDD VSS gf180mcu_fd_sc_mcu9t5v0__mux2_2
X_0749_ b_to_a_mem\[12\]\[7\] b_to_a_mem\[13\]\[7\] b_to_a_mem\[14\]\[7\]
+ b_to_a_mem\[15\]\[7\] _0456_ _0454_ _0511_ VDD VSS gf180mcu_fd_sc_mcu9t5v0__mux4_2
X_0750_ b_to_a_mem\[8\]\[7\] b_to_a_mem\[9\]\[7\] b_to_a_mem\[10\]\[7\]
+ b_to_a_mem\[11\]\[7\] _0447_ a_rd_ptr\[1\] _0512_ VDD VSS
+ gf180mcu_fd_sc_mcu9t5v0__mux4_2
X_0751_ _0511_ _0512_ _0594_ _0513_ VDD VSS gf180mcu_fd_sc_mcu9t5v0__mux2_2
X_0752_ _0510_ _0513_ _0443_ _0514_ VDD VSS gf180mcu_fd_sc_mcu9t5v0__mux2_2
X_0753_ _0514_ net33 _0465_ _0013_ VDD VSS gf180mcu_fd_sc_mcu9t5v0__mux2_2
X_0754_ _0448_ _0465_ _0014_ VDD VSS gf180mcu_fd_sc_mcu9t5v0__xnor2_2
X_0755_ _0005_ _0454_ _0465_ _0015_ VDD VSS gf180mcu_fd_sc_mcu9t5v0__mux2_2
X_0756_ net55 _0464_ net2 _0609_ _0515_ VDD VSS gf180mcu_fd_sc_mcu9t5v0__oai211_2
X_0757_ _0449_ _0515_ _0016_ VDD VSS gf180mcu_fd_sc_mcu9t5v0__xnor2_2
X_0758_ net2 _0448_ _0454_ _0449_ _0516_ VDD VSS gf180mcu_fd_sc_mcu9t5v0__and4_2
X_0759_ net55 _0464_ _0516_ _0517_ VDD VSS gf180mcu_fd_sc_mcu9t5v0__oai21_2
X_0760_ _0443_ _0517_ _0017_ VDD VSS gf180mcu_fd_sc_mcu9t5v0__xnor2_2
X_0761_ net2 _0449_ a_rd_ptr\[3\] _0609_ _0518_ VDD VSS gf180mcu_fd_sc_mcu9t5v0__and4_2
X_0762_ net55 _0464_ _0518_ _0519_ VDD VSS gf180mcu_fd_sc_mcu9t5v0__oai21_2
X_0763_ a_rd_ptr\[4\] _0519_ _0018_ VDD VSS gf180mcu_fd_sc_mcu9t5v0__xnor2_2
X_0764_ net3 _0520_ VDD VSS gf180mcu_fd_sc_mcu9t5v0__buf_3
X_0765_ a_wr_ptr\[3\] a_wr_ptr\[2\] _0521_ VDD VSS gf180mcu_fd_sc_mcu9t5v0__nor2_4
X_0766_ net11 _0611_ _0522_ VDD VSS gf180mcu_fd_sc_mcu9t5v0__and2_2
X_0767_ _0521_ _0522_ _0523_ VDD VSS gf180mcu_fd_sc_mcu9t5v0__nand2_2
X_0768_ net38 _0436_ _0523_ _0524_ VDD VSS gf180mcu_fd_sc_mcu9t5v0__aoi21_4
X_0769_ a_to_b_mem\[0\]\[0\] _0520_ _0524_ _0019_ VDD VSS
+ gf180mcu_fd_sc_mcu9t5v0__mux2_2
X_0770_ net4 _0525_ VDD VSS gf180mcu_fd_sc_mcu9t5v0__clkbuf_4
X_0771_ a_to_b_mem\[0\]\[1\] _0525_ _0524_ _0020_ VDD VSS
+ gf180mcu_fd_sc_mcu9t5v0__mux2_2
X_0772_ net5 _0526_ VDD VSS gf180mcu_fd_sc_mcu9t5v0__buf_3
X_0773_ a_to_b_mem\[0\]\[2\] _0526_ _0524_ _0021_ VDD VSS
+ gf180mcu_fd_sc_mcu9t5v0__mux2_2
X_0774_ net6 _0527_ VDD VSS gf180mcu_fd_sc_mcu9t5v0__clkbuf_4
X_0775_ a_to_b_mem\[0\]\[3\] _0527_ _0524_ _0022_ VDD VSS
+ gf180mcu_fd_sc_mcu9t5v0__mux2_2
X_0776_ net7 _0528_ VDD VSS gf180mcu_fd_sc_mcu9t5v0__clkbuf_4
X_0777_ a_to_b_mem\[0\]\[4\] _0528_ _0524_ _0023_ VDD VSS
+ gf180mcu_fd_sc_mcu9t5v0__mux2_2
X_0778_ net8 _0529_ VDD VSS gf180mcu_fd_sc_mcu9t5v0__clkbuf_4
X_0779_ a_to_b_mem\[0\]\[5\] _0529_ _0524_ _0024_ VDD VSS
+ gf180mcu_fd_sc_mcu9t5v0__mux2_2
X_0780_ net9 _0530_ VDD VSS gf180mcu_fd_sc_mcu9t5v0__clkbuf_4
X_0781_ a_to_b_mem\[0\]\[6\] _0530_ _0524_ _0025_ VDD VSS
+ gf180mcu_fd_sc_mcu9t5v0__mux2_2
X_0782_ net10 _0531_ VDD VSS gf180mcu_fd_sc_mcu9t5v0__buf_3
X_0783_ a_to_b_mem\[0\]\[7\] _0531_ _0524_ _0026_ VDD VSS
+ gf180mcu_fd_sc_mcu9t5v0__mux2_2
X_0784_ a_wr_ptr\[2\] _0532_ VDD VSS gf180mcu_fd_sc_mcu9t5v0__clkinv_2
X_0785_ a_wr_ptr\[3\] _0532_ _0533_ VDD VSS gf180mcu_fd_sc_mcu9t5v0__and2_2
X_0786_ net11 _0612_ _0534_ VDD VSS gf180mcu_fd_sc_mcu9t5v0__and2_2
X_0787_ _0533_ _0534_ _0535_ VDD VSS gf180mcu_fd_sc_mcu9t5v0__nand2_2
X_0788_ net38 _0436_ _0535_ _0536_ VDD VSS gf180mcu_fd_sc_mcu9t5v0__aoi21_4
X_0789_ a_to_b_mem\[10\]\[0\] _0520_ _0536_ _0027_ VDD VSS
+ gf180mcu_fd_sc_mcu9t5v0__mux2_2
X_0790_ a_to_b_mem\[10\]\[1\] _0525_ _0536_ _0028_ VDD VSS
+ gf180mcu_fd_sc_mcu9t5v0__mux2_2
X_0791_ a_to_b_mem\[10\]\[2\] _0526_ _0536_ _0029_ VDD VSS
+ gf180mcu_fd_sc_mcu9t5v0__mux2_2
X_0792_ a_to_b_mem\[10\]\[3\] _0527_ _0536_ _0030_ VDD VSS
+ gf180mcu_fd_sc_mcu9t5v0__mux2_2
X_0793_ a_to_b_mem\[10\]\[4\] _0528_ _0536_ _0031_ VDD VSS
+ gf180mcu_fd_sc_mcu9t5v0__mux2_2
X_0794_ a_to_b_mem\[10\]\[5\] _0529_ _0536_ _0032_ VDD VSS
+ gf180mcu_fd_sc_mcu9t5v0__mux2_2
X_0795_ a_to_b_mem\[10\]\[6\] _0530_ _0536_ _0033_ VDD VSS
+ gf180mcu_fd_sc_mcu9t5v0__mux2_2
X_0796_ a_to_b_mem\[10\]\[7\] _0531_ _0536_ _0034_ VDD VSS
+ gf180mcu_fd_sc_mcu9t5v0__mux2_2
X_0797_ net11 _0616_ _0537_ VDD VSS gf180mcu_fd_sc_mcu9t5v0__and2_4
X_0798_ _0533_ _0537_ _0538_ VDD VSS gf180mcu_fd_sc_mcu9t5v0__nand2_2
X_0799_ net38 _0436_ _0538_ _0539_ VDD VSS gf180mcu_fd_sc_mcu9t5v0__aoi21_4
X_0800_ a_to_b_mem\[11\]\[0\] _0520_ _0539_ _0035_ VDD VSS
+ gf180mcu_fd_sc_mcu9t5v0__mux2_2
X_0801_ a_to_b_mem\[11\]\[1\] _0525_ _0539_ _0036_ VDD VSS
+ gf180mcu_fd_sc_mcu9t5v0__mux2_2
X_0802_ a_to_b_mem\[11\]\[2\] _0526_ _0539_ _0037_ VDD VSS
+ gf180mcu_fd_sc_mcu9t5v0__mux2_2
X_0803_ a_to_b_mem\[11\]\[3\] _0527_ _0539_ _0038_ VDD VSS
+ gf180mcu_fd_sc_mcu9t5v0__mux2_2
X_0804_ a_to_b_mem\[11\]\[4\] _0528_ _0539_ _0039_ VDD VSS
+ gf180mcu_fd_sc_mcu9t5v0__mux2_2
X_0805_ a_to_b_mem\[11\]\[5\] _0529_ _0539_ _0040_ VDD VSS
+ gf180mcu_fd_sc_mcu9t5v0__mux2_2
X_0806_ a_to_b_mem\[11\]\[6\] _0530_ _0539_ _0041_ VDD VSS
+ gf180mcu_fd_sc_mcu9t5v0__mux2_2
X_0807_ a_to_b_mem\[11\]\[7\] _0531_ _0539_ _0042_ VDD VSS
+ gf180mcu_fd_sc_mcu9t5v0__mux2_2
X_0808_ _0433_ net34 net35 net36 _0540_ VDD VSS gf180mcu_fd_sc_mcu9t5v0__or4_2
X_0809_ _0591_ net34 net35 net36 _0541_ VDD VSS gf180mcu_fd_sc_mcu9t5v0__or4_2
X_0810_ _0540_ _0541_ _0424_ _0542_ VDD VSS gf180mcu_fd_sc_mcu9t5v0__mux2_2
X_0811_ _0542_ _0543_ VDD VSS gf180mcu_fd_sc_mcu9t5v0__clkbuf_8
X_0812_ a_wr_ptr\[3\] a_wr_ptr\[2\] _0544_ VDD VSS gf180mcu_fd_sc_mcu9t5v0__and2_4
X_0813_ _0429_ _0543_ _0522_ _0544_ _0545_ VDD VSS gf180mcu_fd_sc_mcu9t5v0__oai211_4
X_0814_ _0520_ a_to_b_mem\[12\]\[0\] _0545_ _0043_ VDD VSS
+ gf180mcu_fd_sc_mcu9t5v0__mux2_2
X_0815_ _0525_ a_to_b_mem\[12\]\[1\] _0545_ _0044_ VDD VSS
+ gf180mcu_fd_sc_mcu9t5v0__mux2_2
X_0816_ _0526_ a_to_b_mem\[12\]\[2\] _0545_ _0045_ VDD VSS
+ gf180mcu_fd_sc_mcu9t5v0__mux2_2
X_0817_ _0527_ a_to_b_mem\[12\]\[3\] _0545_ _0046_ VDD VSS
+ gf180mcu_fd_sc_mcu9t5v0__mux2_2
X_0818_ _0528_ a_to_b_mem\[12\]\[4\] _0545_ _0047_ VDD VSS
+ gf180mcu_fd_sc_mcu9t5v0__mux2_2
X_0819_ _0529_ a_to_b_mem\[12\]\[5\] _0545_ _0048_ VDD VSS
+ gf180mcu_fd_sc_mcu9t5v0__mux2_2
X_0820_ _0530_ a_to_b_mem\[12\]\[6\] _0545_ _0049_ VDD VSS
+ gf180mcu_fd_sc_mcu9t5v0__mux2_2
X_0821_ _0531_ a_to_b_mem\[12\]\[7\] _0545_ _0050_ VDD VSS
+ gf180mcu_fd_sc_mcu9t5v0__mux2_2
X_0822_ net11 _0614_ _0546_ VDD VSS gf180mcu_fd_sc_mcu9t5v0__and2_2
X_0823_ _0429_ _0543_ _0544_ _0546_ _0547_ VDD VSS gf180mcu_fd_sc_mcu9t5v0__oai211_4
X_0824_ _0520_ a_to_b_mem\[13\]\[0\] _0547_ _0051_ VDD VSS
+ gf180mcu_fd_sc_mcu9t5v0__mux2_2
X_0825_ _0525_ a_to_b_mem\[13\]\[1\] _0547_ _0052_ VDD VSS
+ gf180mcu_fd_sc_mcu9t5v0__mux2_2
X_0826_ _0526_ a_to_b_mem\[13\]\[2\] _0547_ _0053_ VDD VSS
+ gf180mcu_fd_sc_mcu9t5v0__mux2_2
X_0827_ _0527_ a_to_b_mem\[13\]\[3\] _0547_ _0054_ VDD VSS
+ gf180mcu_fd_sc_mcu9t5v0__mux2_2
X_0828_ _0528_ a_to_b_mem\[13\]\[4\] _0547_ _0055_ VDD VSS
+ gf180mcu_fd_sc_mcu9t5v0__mux2_2
X_0829_ _0529_ a_to_b_mem\[13\]\[5\] _0547_ _0056_ VDD VSS
+ gf180mcu_fd_sc_mcu9t5v0__mux2_2
X_0830_ _0530_ a_to_b_mem\[13\]\[6\] _0547_ _0057_ VDD VSS
+ gf180mcu_fd_sc_mcu9t5v0__mux2_2
X_0831_ _0531_ a_to_b_mem\[13\]\[7\] _0547_ _0058_ VDD VSS
+ gf180mcu_fd_sc_mcu9t5v0__mux2_2
X_0832_ _0429_ _0542_ _0534_ _0544_ _0548_ VDD VSS gf180mcu_fd_sc_mcu9t5v0__oai211_4
X_0833_ _0520_ a_to_b_mem\[14\]\[0\] _0548_ _0059_ VDD VSS
+ gf180mcu_fd_sc_mcu9t5v0__mux2_2
X_0834_ _0525_ a_to_b_mem\[14\]\[1\] _0548_ _0060_ VDD VSS
+ gf180mcu_fd_sc_mcu9t5v0__mux2_2
X_0835_ _0526_ a_to_b_mem\[14\]\[2\] _0548_ _0061_ VDD VSS
+ gf180mcu_fd_sc_mcu9t5v0__mux2_2
X_0836_ _0527_ a_to_b_mem\[14\]\[3\] _0548_ _0062_ VDD VSS
+ gf180mcu_fd_sc_mcu9t5v0__mux2_2
X_0837_ _0528_ a_to_b_mem\[14\]\[4\] _0548_ _0063_ VDD VSS
+ gf180mcu_fd_sc_mcu9t5v0__mux2_2
X_0838_ _0529_ a_to_b_mem\[14\]\[5\] _0548_ _0064_ VDD VSS
+ gf180mcu_fd_sc_mcu9t5v0__mux2_2
X_0839_ _0530_ a_to_b_mem\[14\]\[6\] _0548_ _0065_ VDD VSS
+ gf180mcu_fd_sc_mcu9t5v0__mux2_2
X_0840_ _0531_ a_to_b_mem\[14\]\[7\] _0548_ _0066_ VDD VSS
+ gf180mcu_fd_sc_mcu9t5v0__mux2_2
X_0841_ _0429_ _0543_ _0537_ _0544_ _0549_ VDD VSS gf180mcu_fd_sc_mcu9t5v0__oai211_4
X_0842_ _0520_ a_to_b_mem\[15\]\[0\] _0549_ _0067_ VDD VSS
+ gf180mcu_fd_sc_mcu9t5v0__mux2_2
X_0843_ _0525_ a_to_b_mem\[15\]\[1\] _0549_ _0068_ VDD VSS
+ gf180mcu_fd_sc_mcu9t5v0__mux2_2
X_0844_ _0526_ a_to_b_mem\[15\]\[2\] _0549_ _0069_ VDD VSS
+ gf180mcu_fd_sc_mcu9t5v0__mux2_2
X_0845_ _0527_ a_to_b_mem\[15\]\[3\] _0549_ _0070_ VDD VSS
+ gf180mcu_fd_sc_mcu9t5v0__mux2_2
X_0846_ _0528_ a_to_b_mem\[15\]\[4\] _0549_ _0071_ VDD VSS
+ gf180mcu_fd_sc_mcu9t5v0__mux2_2
X_0847_ _0529_ a_to_b_mem\[15\]\[5\] _0549_ _0072_ VDD VSS
+ gf180mcu_fd_sc_mcu9t5v0__mux2_2
X_0848_ _0530_ a_to_b_mem\[15\]\[6\] _0549_ _0073_ VDD VSS
+ gf180mcu_fd_sc_mcu9t5v0__mux2_2
X_0849_ _0531_ a_to_b_mem\[15\]\[7\] _0549_ _0074_ VDD VSS
+ gf180mcu_fd_sc_mcu9t5v0__mux2_2
X_0850_ _0430_ _0550_ VDD VSS gf180mcu_fd_sc_mcu9t5v0__clkbuf_12
X_0851_ _0521_ _0546_ _0551_ VDD VSS gf180mcu_fd_sc_mcu9t5v0__nand2_2
X_0852_ _0550_ _0436_ _0551_ _0552_ VDD VSS gf180mcu_fd_sc_mcu9t5v0__aoi21_4
X_0853_ a_to_b_mem\[1\]\[0\] _0520_ _0552_ _0075_ VDD VSS
+ gf180mcu_fd_sc_mcu9t5v0__mux2_2
X_0854_ a_to_b_mem\[1\]\[1\] _0525_ _0552_ _0076_ VDD VSS
+ gf180mcu_fd_sc_mcu9t5v0__mux2_2
X_0855_ a_to_b_mem\[1\]\[2\] _0526_ _0552_ _0077_ VDD VSS
+ gf180mcu_fd_sc_mcu9t5v0__mux2_2
X_0856_ a_to_b_mem\[1\]\[3\] _0527_ _0552_ _0078_ VDD VSS
+ gf180mcu_fd_sc_mcu9t5v0__mux2_2
X_0857_ a_to_b_mem\[1\]\[4\] _0528_ _0552_ _0079_ VDD VSS
+ gf180mcu_fd_sc_mcu9t5v0__mux2_2
X_0858_ a_to_b_mem\[1\]\[5\] _0529_ _0552_ _0080_ VDD VSS
+ gf180mcu_fd_sc_mcu9t5v0__mux2_2
X_0859_ a_to_b_mem\[1\]\[6\] _0530_ _0552_ _0081_ VDD VSS
+ gf180mcu_fd_sc_mcu9t5v0__mux2_2
X_0860_ a_to_b_mem\[1\]\[7\] _0531_ _0552_ _0082_ VDD VSS
+ gf180mcu_fd_sc_mcu9t5v0__mux2_2
X_0861_ _0521_ _0534_ _0553_ VDD VSS gf180mcu_fd_sc_mcu9t5v0__nand2_2
X_0862_ _0550_ _0436_ _0553_ _0554_ VDD VSS gf180mcu_fd_sc_mcu9t5v0__aoi21_4
X_0863_ a_to_b_mem\[2\]\[0\] _0520_ _0554_ _0083_ VDD VSS
+ gf180mcu_fd_sc_mcu9t5v0__mux2_2
X_0864_ a_to_b_mem\[2\]\[1\] _0525_ _0554_ _0084_ VDD VSS
+ gf180mcu_fd_sc_mcu9t5v0__mux2_2
X_0865_ a_to_b_mem\[2\]\[2\] _0526_ _0554_ _0085_ VDD VSS
+ gf180mcu_fd_sc_mcu9t5v0__mux2_2
X_0866_ a_to_b_mem\[2\]\[3\] _0527_ _0554_ _0086_ VDD VSS
+ gf180mcu_fd_sc_mcu9t5v0__mux2_2
X_0867_ a_to_b_mem\[2\]\[4\] _0528_ _0554_ _0087_ VDD VSS
+ gf180mcu_fd_sc_mcu9t5v0__mux2_2
X_0868_ a_to_b_mem\[2\]\[5\] _0529_ _0554_ _0088_ VDD VSS
+ gf180mcu_fd_sc_mcu9t5v0__mux2_2
X_0869_ a_to_b_mem\[2\]\[6\] _0530_ _0554_ _0089_ VDD VSS
+ gf180mcu_fd_sc_mcu9t5v0__mux2_2
X_0870_ a_to_b_mem\[2\]\[7\] _0531_ _0554_ _0090_ VDD VSS
+ gf180mcu_fd_sc_mcu9t5v0__mux2_2
X_0871_ _0521_ _0537_ _0555_ VDD VSS gf180mcu_fd_sc_mcu9t5v0__nand2_2
X_0872_ _0550_ _0436_ _0555_ _0556_ VDD VSS gf180mcu_fd_sc_mcu9t5v0__aoi21_4
X_0873_ a_to_b_mem\[3\]\[0\] _0520_ _0556_ _0091_ VDD VSS
+ gf180mcu_fd_sc_mcu9t5v0__mux2_2
X_0874_ a_to_b_mem\[3\]\[1\] _0525_ _0556_ _0092_ VDD VSS
+ gf180mcu_fd_sc_mcu9t5v0__mux2_2
X_0875_ a_to_b_mem\[3\]\[2\] _0526_ _0556_ _0093_ VDD VSS
+ gf180mcu_fd_sc_mcu9t5v0__mux2_2
X_0876_ a_to_b_mem\[3\]\[3\] _0527_ _0556_ _0094_ VDD VSS
+ gf180mcu_fd_sc_mcu9t5v0__mux2_2
X_0877_ a_to_b_mem\[3\]\[4\] _0528_ _0556_ _0095_ VDD VSS
+ gf180mcu_fd_sc_mcu9t5v0__mux2_2
X_0878_ a_to_b_mem\[3\]\[5\] _0529_ _0556_ _0096_ VDD VSS
+ gf180mcu_fd_sc_mcu9t5v0__mux2_2
X_0879_ a_to_b_mem\[3\]\[6\] _0530_ _0556_ _0097_ VDD VSS
+ gf180mcu_fd_sc_mcu9t5v0__mux2_2
X_0880_ a_to_b_mem\[3\]\[7\] _0531_ _0556_ _0098_ VDD VSS
+ gf180mcu_fd_sc_mcu9t5v0__mux2_2
X_0881_ a_wr_ptr\[3\] _0532_ _0557_ VDD VSS gf180mcu_fd_sc_mcu9t5v0__nor2_4
X_0882_ _0522_ _0557_ _0558_ VDD VSS gf180mcu_fd_sc_mcu9t5v0__nand2_2
X_0883_ _0550_ _0436_ _0558_ _0559_ VDD VSS gf180mcu_fd_sc_mcu9t5v0__aoi21_4
X_0884_ a_to_b_mem\[4\]\[0\] net3 _0559_ _0099_ VDD VSS gf180mcu_fd_sc_mcu9t5v0__mux2_2
X_0885_ a_to_b_mem\[4\]\[1\] net4 _0559_ _0100_ VDD VSS gf180mcu_fd_sc_mcu9t5v0__mux2_2
X_0886_ a_to_b_mem\[4\]\[2\] net5 _0559_ _0101_ VDD VSS gf180mcu_fd_sc_mcu9t5v0__mux2_2
X_0887_ a_to_b_mem\[4\]\[3\] net6 _0559_ _0102_ VDD VSS gf180mcu_fd_sc_mcu9t5v0__mux2_2
X_0888_ a_to_b_mem\[4\]\[4\] net7 _0559_ _0103_ VDD VSS gf180mcu_fd_sc_mcu9t5v0__mux2_2
X_0889_ a_to_b_mem\[4\]\[5\] net8 _0559_ _0104_ VDD VSS gf180mcu_fd_sc_mcu9t5v0__mux2_2
X_0890_ a_to_b_mem\[4\]\[6\] net9 _0559_ _0105_ VDD VSS gf180mcu_fd_sc_mcu9t5v0__mux2_2
X_0891_ a_to_b_mem\[4\]\[7\] net10 _0559_ _0106_ VDD VSS gf180mcu_fd_sc_mcu9t5v0__mux2_2
X_0892_ _0546_ _0557_ _0560_ VDD VSS gf180mcu_fd_sc_mcu9t5v0__nand2_2
X_0893_ _0550_ _0436_ _0560_ _0561_ VDD VSS gf180mcu_fd_sc_mcu9t5v0__aoi21_4
X_0894_ a_to_b_mem\[5\]\[0\] net3 _0561_ _0107_ VDD VSS gf180mcu_fd_sc_mcu9t5v0__mux2_2
X_0895_ a_to_b_mem\[5\]\[1\] net4 _0561_ _0108_ VDD VSS gf180mcu_fd_sc_mcu9t5v0__mux2_2
X_0896_ a_to_b_mem\[5\]\[2\] net5 _0561_ _0109_ VDD VSS gf180mcu_fd_sc_mcu9t5v0__mux2_2
X_0897_ a_to_b_mem\[5\]\[3\] net6 _0561_ _0110_ VDD VSS gf180mcu_fd_sc_mcu9t5v0__mux2_2
X_0898_ a_to_b_mem\[5\]\[4\] net7 _0561_ _0111_ VDD VSS gf180mcu_fd_sc_mcu9t5v0__mux2_2
X_0899_ a_to_b_mem\[5\]\[5\] net8 _0561_ _0112_ VDD VSS gf180mcu_fd_sc_mcu9t5v0__mux2_2
X_0900_ a_to_b_mem\[5\]\[6\] net9 _0561_ _0113_ VDD VSS gf180mcu_fd_sc_mcu9t5v0__mux2_2
X_0901_ a_to_b_mem\[5\]\[7\] net10 _0561_ _0114_ VDD VSS gf180mcu_fd_sc_mcu9t5v0__mux2_2
X_0902_ _0534_ _0557_ _0562_ VDD VSS gf180mcu_fd_sc_mcu9t5v0__nand2_2
X_0903_ _0550_ _0435_ _0562_ _0563_ VDD VSS gf180mcu_fd_sc_mcu9t5v0__aoi21_4
X_0904_ a_to_b_mem\[6\]\[0\] net3 _0563_ _0115_ VDD VSS gf180mcu_fd_sc_mcu9t5v0__mux2_2
X_0905_ a_to_b_mem\[6\]\[1\] net4 _0563_ _0116_ VDD VSS gf180mcu_fd_sc_mcu9t5v0__mux2_2
X_0906_ a_to_b_mem\[6\]\[2\] net5 _0563_ _0117_ VDD VSS gf180mcu_fd_sc_mcu9t5v0__mux2_2
X_0907_ a_to_b_mem\[6\]\[3\] net6 _0563_ _0118_ VDD VSS gf180mcu_fd_sc_mcu9t5v0__mux2_2
X_0908_ a_to_b_mem\[6\]\[4\] net7 _0563_ _0119_ VDD VSS gf180mcu_fd_sc_mcu9t5v0__mux2_2
X_0909_ a_to_b_mem\[6\]\[5\] net8 _0563_ _0120_ VDD VSS gf180mcu_fd_sc_mcu9t5v0__mux2_2
X_0910_ a_to_b_mem\[6\]\[6\] net9 _0563_ _0121_ VDD VSS gf180mcu_fd_sc_mcu9t5v0__mux2_2
X_0911_ a_to_b_mem\[6\]\[7\] net10 _0563_ _0122_ VDD VSS gf180mcu_fd_sc_mcu9t5v0__mux2_2
X_0912_ _0537_ _0557_ _0564_ VDD VSS gf180mcu_fd_sc_mcu9t5v0__nand2_2
X_0913_ _0550_ _0435_ _0564_ _0565_ VDD VSS gf180mcu_fd_sc_mcu9t5v0__aoi21_4
X_0914_ a_to_b_mem\[7\]\[0\] net3 _0565_ _0123_ VDD VSS gf180mcu_fd_sc_mcu9t5v0__mux2_2
X_0915_ a_to_b_mem\[7\]\[1\] net4 _0565_ _0124_ VDD VSS gf180mcu_fd_sc_mcu9t5v0__mux2_2
X_0916_ a_to_b_mem\[7\]\[2\] net5 _0565_ _0125_ VDD VSS gf180mcu_fd_sc_mcu9t5v0__mux2_2
X_0917_ a_to_b_mem\[7\]\[3\] net6 _0565_ _0126_ VDD VSS gf180mcu_fd_sc_mcu9t5v0__mux2_2
X_0918_ a_to_b_mem\[7\]\[4\] net7 _0565_ _0127_ VDD VSS gf180mcu_fd_sc_mcu9t5v0__mux2_2
X_0919_ a_to_b_mem\[7\]\[5\] net8 _0565_ _0128_ VDD VSS gf180mcu_fd_sc_mcu9t5v0__mux2_2
X_0920_ a_to_b_mem\[7\]\[6\] net9 _0565_ _0129_ VDD VSS gf180mcu_fd_sc_mcu9t5v0__mux2_2
X_0921_ a_to_b_mem\[7\]\[7\] net10 _0565_ _0130_ VDD VSS gf180mcu_fd_sc_mcu9t5v0__mux2_2
X_0922_ _0522_ _0533_ _0566_ VDD VSS gf180mcu_fd_sc_mcu9t5v0__nand2_2
X_0923_ _0550_ _0435_ _0566_ _0567_ VDD VSS gf180mcu_fd_sc_mcu9t5v0__aoi21_4
X_0924_ a_to_b_mem\[8\]\[0\] net3 _0567_ _0131_ VDD VSS gf180mcu_fd_sc_mcu9t5v0__mux2_2
X_0925_ a_to_b_mem\[8\]\[1\] net4 _0567_ _0132_ VDD VSS gf180mcu_fd_sc_mcu9t5v0__mux2_2
X_0926_ a_to_b_mem\[8\]\[2\] net5 _0567_ _0133_ VDD VSS gf180mcu_fd_sc_mcu9t5v0__mux2_2
X_0927_ a_to_b_mem\[8\]\[3\] net6 _0567_ _0134_ VDD VSS gf180mcu_fd_sc_mcu9t5v0__mux2_2
X_0928_ a_to_b_mem\[8\]\[4\] net7 _0567_ _0135_ VDD VSS gf180mcu_fd_sc_mcu9t5v0__mux2_2
X_0929_ a_to_b_mem\[8\]\[5\] net8 _0567_ _0136_ VDD VSS gf180mcu_fd_sc_mcu9t5v0__mux2_2
X_0930_ a_to_b_mem\[8\]\[6\] net9 _0567_ _0137_ VDD VSS gf180mcu_fd_sc_mcu9t5v0__mux2_2
X_0931_ a_to_b_mem\[8\]\[7\] net10 _0567_ _0138_ VDD VSS gf180mcu_fd_sc_mcu9t5v0__mux2_2
X_0932_ _0533_ _0546_ _0568_ VDD VSS gf180mcu_fd_sc_mcu9t5v0__nand2_2
X_0933_ _0550_ _0435_ _0568_ _0569_ VDD VSS gf180mcu_fd_sc_mcu9t5v0__aoi21_4
X_0934_ a_to_b_mem\[9\]\[0\] net3 _0569_ _0139_ VDD VSS gf180mcu_fd_sc_mcu9t5v0__mux2_2
X_0935_ a_to_b_mem\[9\]\[1\] net4 _0569_ _0140_ VDD VSS gf180mcu_fd_sc_mcu9t5v0__mux2_2
X_0936_ a_to_b_mem\[9\]\[2\] net5 _0569_ _0141_ VDD VSS gf180mcu_fd_sc_mcu9t5v0__mux2_2
X_0937_ a_to_b_mem\[9\]\[3\] net6 _0569_ _0142_ VDD VSS gf180mcu_fd_sc_mcu9t5v0__mux2_2
X_0938_ a_to_b_mem\[9\]\[4\] net7 _0569_ _0143_ VDD VSS gf180mcu_fd_sc_mcu9t5v0__mux2_2
X_0939_ a_to_b_mem\[9\]\[5\] net8 _0569_ _0144_ VDD VSS gf180mcu_fd_sc_mcu9t5v0__mux2_2
X_0940_ a_to_b_mem\[9\]\[6\] net9 _0569_ _0145_ VDD VSS gf180mcu_fd_sc_mcu9t5v0__mux2_2
X_0941_ a_to_b_mem\[9\]\[7\] net10 _0569_ _0146_ VDD VSS gf180mcu_fd_sc_mcu9t5v0__mux2_2
X_0942_ _0429_ _0543_ net11 _0570_ VDD VSS gf180mcu_fd_sc_mcu9t5v0__oai21_2
X_0943_ a_wr_ptr\[0\] _0570_ _0147_ VDD VSS gf180mcu_fd_sc_mcu9t5v0__xnor2_2
X_0944_ _0001_ a_wr_ptr\[1\] _0570_ _0148_ VDD VSS gf180mcu_fd_sc_mcu9t5v0__mux2_2
X_0945_ _0429_ _0543_ _0537_ _0571_ VDD VSS gf180mcu_fd_sc_mcu9t5v0__oai21_2
X_0946_ a_wr_ptr\[2\] _0571_ _0149_ VDD VSS gf180mcu_fd_sc_mcu9t5v0__xnor2_2
X_0947_ net11 a_wr_ptr\[2\] a_wr_ptr\[1\] a_wr_ptr\[0\] _0572_
+ VDD VSS gf180mcu_fd_sc_mcu9t5v0__and4_2
X_0948_ _0429_ _0543_ _0572_ _0573_ VDD VSS gf180mcu_fd_sc_mcu9t5v0__oai21_2
X_0949_ a_wr_ptr\[3\] _0573_ _0150_ VDD VSS gf180mcu_fd_sc_mcu9t5v0__xnor2_2
X_0950_ a_wr_ptr\[4\] _0549_ _0151_ VDD VSS gf180mcu_fd_sc_mcu9t5v0__xnor2_2
X_0951_ b_rd_ptr\[0\] _0574_ VDD VSS gf180mcu_fd_sc_mcu9t5v0__buf_4
X_0952_ _0574_ _0575_ VDD VSS gf180mcu_fd_sc_mcu9t5v0__clkbuf_8