
* cell bidirectional_fifo
* pin b_wr_en
* pin a_full
* pin b_wr_data[6]
* pin a_rd_data[6]
* pin a_to_b_count[3]
* pin b_almost_empty
* pin a_to_b_count[4]
* pin b_almost_full
* pin a_rd_data[5]
* pin b_wr_data[4]
* pin b_wr_data[5]
* pin a_rd_data[4]
* pin a_rd_data[2]
* pin a_rd_data[3]
* pin b_wr_data[3]
* pin b_to_a_count[1]
* pin b_wr_data[2]
* pin b_to_a_count[0]
* pin b_to_a_count[3]
* pin a_rd_en
* pin a_empty
* pin a_almost_full
* pin a_almost_empty
* pin b_to_a_count[4]
* pin b_to_a_count[2]
* pin b_wr_data[0]
* pin b_wr_data[7]
* pin b_wr_data[1]
* pin a_rd_data[7]
* pin a_rd_data[0]
* pin a_rd_data[1]
* pin a_to_b_count[2]
* pin a_to_b_count[0]
* pin a_to_b_count[1]
* pin b_full
* pin clk
* pin b_empty
* pin b_rd_data[3]
* pin b_rd_en
* pin a_wr_en
* pin a_wr_data[3]
* pin a_wr_data[2]
* pin rst_n
* pin a_wr_data[4]
* pin b_rd_data[1]
* pin a_wr_data[0]
* pin b_rd_data[5]
* pin b_rd_data[7]
* pin b_rd_data[2]
* pin b_rd_data[0]
* pin b_rd_data[4]
* pin b_rd_data[6]
* pin a_wr_data[6]
* pin a_wr_data[5]
* pin a_wr_data[7]
* pin a_wr_data[1]
* pin VSS,gf180mcu_gnd
* pin VDD
.SUBCKT bidirectional_fifo 1 2 3 4 5 6 7 8 9 10 11 12 13 14 15 251 290 291 292
+ 293 308 309 310 311 328 356 383 384 394 395 409 470 483 484 498 505 533 589
+ 616 643 657 732 832 934 936 937 938 940 941 942 943 944 945 946 947 948 949
+ 950
* net 1 b_wr_en
* net 2 a_full
* net 3 b_wr_data[6]
* net 4 a_rd_data[6]
* net 5 a_to_b_count[3]
* net 6 b_almost_empty
* net 7 a_to_b_count[4]
* net 8 b_almost_full
* net 9 a_rd_data[5]
* net 10 b_wr_data[4]
* net 11 b_wr_data[5]
* net 12 a_rd_data[4]
* net 13 a_rd_data[2]
* net 14 a_rd_data[3]
* net 15 b_wr_data[3]
* net 251 b_to_a_count[1]
* net 290 b_wr_data[2]
* net 291 b_to_a_count[0]
* net 292 b_to_a_count[3]
* net 293 a_rd_en
* net 308 a_empty
* net 309 a_almost_full
* net 310 a_almost_empty
* net 311 b_to_a_count[4]
* net 328 b_to_a_count[2]
* net 356 b_wr_data[0]
* net 383 b_wr_data[7]
* net 384 b_wr_data[1]
* net 394 a_rd_data[7]
* net 395 a_rd_data[0]
* net 409 a_rd_data[1]
* net 470 a_to_b_count[2]
* net 483 a_to_b_count[0]
* net 484 a_to_b_count[1]
* net 498 b_full
* net 505 clk
* net 533 b_empty
* net 589 b_rd_data[3]
* net 616 b_rd_en
* net 643 a_wr_en
* net 657 a_wr_data[3]
* net 732 a_wr_data[2]
* net 832 rst_n
* net 934 a_wr_data[4]
* net 936 b_rd_data[1]
* net 937 a_wr_data[0]
* net 938 b_rd_data[5]
* net 940 b_rd_data[7]
* net 941 b_rd_data[2]
* net 942 b_rd_data[0]
* net 943 b_rd_data[4]
* net 944 b_rd_data[6]
* net 945 a_wr_data[6]
* net 946 a_wr_data[5]
* net 947 a_wr_data[7]
* net 948 a_wr_data[1]
* net 949 VSS,gf180mcu_gnd
* net 950 VDD
* cell instance $3 r0 *1 65.52,25.2
X$3 1 950 949 67 gf180mcu_fd_sc_mcu9t5v0__dlyb_2
* cell instance $6 m0 *1 61.6,15.12
X$6 30 950 949 2 gf180mcu_fd_sc_mcu9t5v0__dlyb_2
* cell instance $11 r0 *1 91.28,5.04
X$11 3 950 949 49 gf180mcu_fd_sc_mcu9t5v0__dlyb_2
* cell instance $15 m0 *1 97.44,35.28
X$15 96 950 949 4 gf180mcu_fd_sc_mcu9t5v0__dlyb_2
* cell instance $19 r0 *1 102.48,5.04
X$19 29 950 949 5 gf180mcu_fd_sc_mcu9t5v0__dlyb_2
* cell instance $22 m0 *1 101.36,15.12
X$22 46 950 949 6 gf180mcu_fd_sc_mcu9t5v0__dlyb_2
* cell instance $26 r0 *1 103.04,176.4
X$26 460 950 949 7 gf180mcu_fd_sc_mcu9t5v0__dlyb_2
* cell instance $31 m0 *1 109.76,15.12
X$31 47 950 949 8 gf180mcu_fd_sc_mcu9t5v0__dlyb_2
* cell instance $34 r0 *1 141.68,5.04
X$34 22 950 949 9 gf180mcu_fd_sc_mcu9t5v0__dlyb_2
* cell instance $38 r0 *1 154,5.04
X$38 10 950 949 20 gf180mcu_fd_sc_mcu9t5v0__dlyb_2
* cell instance $43 m0 *1 155.68,15.12
X$43 11 950 949 33 gf180mcu_fd_sc_mcu9t5v0__dlyb_2
* cell instance $46 m0 *1 164.08,15.12
X$46 31 950 949 12 gf180mcu_fd_sc_mcu9t5v0__dlyb_2
* cell instance $50 r0 *1 235.76,5.04
X$50 24 950 949 13 gf180mcu_fd_sc_mcu9t5v0__dlyb_2
* cell instance $55 r0 *1 248.64,5.04
X$55 26 950 949 14 gf180mcu_fd_sc_mcu9t5v0__dlyb_2
* cell instance $58 r0 *1 281.68,5.04
X$58 15 950 949 27 gf180mcu_fd_sc_mcu9t5v0__dlyb_2
* cell instance $62 r0 *1 212.8,5.04
X$62 949 19 17 16 950 gf180mcu_fd_sc_mcu9t5v0__dffq_2
* cell instance $64 m0 *1 215.04,15.12
X$64 949 950 16 20 23 19 gf180mcu_fd_sc_mcu9t5v0__mux2_2
* cell instance $66 m0 *1 201.6,25.2
X$66 949 52 17 51 950 gf180mcu_fd_sc_mcu9t5v0__dffq_2
* cell instance $69 m0 *1 296.24,35.28
X$69 949 91 17 90 950 gf180mcu_fd_sc_mcu9t5v0__dffq_2
* cell instance $71 r0 *1 282.24,35.28
X$71 949 89 17 87 950 gf180mcu_fd_sc_mcu9t5v0__dffq_2
* cell instance $73 r0 *1 187.04,15.12
X$73 949 35 17 34 950 gf180mcu_fd_sc_mcu9t5v0__dffq_2
* cell instance $75 m0 *1 206.64,35.28
X$75 949 76 17 83 950 gf180mcu_fd_sc_mcu9t5v0__dffq_2
* cell instance $77 m0 *1 227.36,45.36
X$77 949 85 24 17 113 950 gf180mcu_fd_sc_mcu9t5v0__dffrnq_2
* cell instance $80 m0 *1 287.84,25.2
X$80 949 64 17 63 950 gf180mcu_fd_sc_mcu9t5v0__dffq_2
* cell instance $82 m0 *1 296.8,15.12
X$82 949 39 17 38 950 gf180mcu_fd_sc_mcu9t5v0__dffq_2
* cell instance $84 r0 *1 249.2,85.68
X$84 949 260 17 239 950 gf180mcu_fd_sc_mcu9t5v0__dffq_2
* cell instance $86 m0 *1 232.4,15.12
X$86 949 25 17 36 950 gf180mcu_fd_sc_mcu9t5v0__dffq_2
* cell instance $88 r0 *1 266.56,75.6
X$88 949 179 17 208 950 gf180mcu_fd_sc_mcu9t5v0__dffq_2
* cell instance $90 r0 *1 264.32,5.04
X$90 949 28 17 18 950 gf180mcu_fd_sc_mcu9t5v0__dffq_2
* cell instance $92 r0 *1 263.76,15.12
X$92 949 57 17 58 950 gf180mcu_fd_sc_mcu9t5v0__dffq_2
* cell instance $94 r0 *1 242.48,35.28
X$94 949 950 17 gf180mcu_fd_sc_mcu9t5v0__clkbuf_4
* cell instance $97 r0 *1 269.92,55.44
X$97 949 131 17 152 950 gf180mcu_fd_sc_mcu9t5v0__dffq_2
* cell instance $100 m0 *1 218.96,25.2
X$100 949 54 17 80 950 gf180mcu_fd_sc_mcu9t5v0__dffq_2
* cell instance $104 m0 *1 250.32,75.6
X$104 949 178 17 200 950 gf180mcu_fd_sc_mcu9t5v0__dffq_2
* cell instance $107 m0 *1 281.68,55.44
X$107 949 161 17 144 950 gf180mcu_fd_sc_mcu9t5v0__dffq_2
* cell instance $109 m0 *1 238.56,35.28
X$109 949 85 26 17 104 950 gf180mcu_fd_sc_mcu9t5v0__dffrnq_2
* cell instance $111 m0 *1 246.96,25.2
X$111 949 62 17 37 950 gf180mcu_fd_sc_mcu9t5v0__dffq_2
* cell instance $114 m0 *1 241.36,65.52
X$114 949 160 17 159 950 gf180mcu_fd_sc_mcu9t5v0__dffq_2
* cell instance $116 r0 *1 250.32,35.28
X$116 949 84 17 950 gf180mcu_fd_sc_mcu9t5v0__clkbuf_16
* cell instance $120 m0 *1 259.28,45.36
X$120 949 77 17 86 950 gf180mcu_fd_sc_mcu9t5v0__dffq_2
* cell instance $141 m0 *1 270.48,15.12
X$141 949 950 18 27 55 28 gf180mcu_fd_sc_mcu9t5v0__mux2_2
* cell instance $144 r0 *1 218.96,15.12
X$144 949 53 70 25 52 69 19 54 950 gf180mcu_fd_sc_mcu9t5v0__mux4_2
* cell instance $151 m0 *1 50.4,146.16
X$151 949 950 423 400 281 20 gf180mcu_fd_sc_mcu9t5v0__mux2_2
* cell instance $156 m0 *1 77.84,146.16
X$156 949 950 411 402 256 20 gf180mcu_fd_sc_mcu9t5v0__mux2_2
* cell instance $159 r0 *1 81.2,146.16
X$159 949 950 424 412 315 20 gf180mcu_fd_sc_mcu9t5v0__mux2_2
* cell instance $161 r0 *1 238,15.12
X$161 949 950 36 20 55 25 gf180mcu_fd_sc_mcu9t5v0__mux2_2
* cell instance $163 r0 *1 185.92,176.4
X$163 949 950 486 20 226 474 gf180mcu_fd_sc_mcu9t5v0__mux2_2
* cell instance $165 r0 *1 236.88,85.68
X$165 949 950 238 20 128 223 gf180mcu_fd_sc_mcu9t5v0__mux2_2
* cell instance $167 r0 *1 182.56,166.32
X$167 949 950 455 20 249 456 gf180mcu_fd_sc_mcu9t5v0__mux2_2
* cell instance $170 m0 *1 166.88,176.4
X$170 949 950 482 20 266 464 gf180mcu_fd_sc_mcu9t5v0__mux2_2
* cell instance $173 m0 *1 215.6,85.68
X$173 949 950 236 20 158 237 gf180mcu_fd_sc_mcu9t5v0__mux2_2
* cell instance $175 m0 *1 213.36,75.6
X$175 949 950 197 20 155 198 gf180mcu_fd_sc_mcu9t5v0__mux2_2
* cell instance $177 r0 *1 165.76,186.48
X$177 949 950 495 20 258 496 gf180mcu_fd_sc_mcu9t5v0__mux2_2
* cell instance $179 r0 *1 51.52,136.08
X$179 949 950 396 401 277 20 gf180mcu_fd_sc_mcu9t5v0__mux2_2
* cell instance $181 r0 *1 227.36,25.2
X$181 949 950 80 20 56 54 gf180mcu_fd_sc_mcu9t5v0__mux2_2
* cell instance $183 r0 *1 229.04,65.52
X$183 949 950 199 20 175 177 gf180mcu_fd_sc_mcu9t5v0__mux2_2
* cell instance $185 r0 *1 207.2,15.12
X$185 949 950 51 20 50 52 gf180mcu_fd_sc_mcu9t5v0__mux2_2
* cell instance $204 m0 *1 126.56,15.12
X$204 949 21 68 48 950 gf180mcu_fd_sc_mcu9t5v0__dffq_2
* cell instance $206 r0 *1 134.96,15.12
X$206 949 950 48 49 23 21 gf180mcu_fd_sc_mcu9t5v0__mux2_2
* cell instance $208 r0 *1 138.32,25.2
X$208 949 119 70 60 59 69 21 71 950 gf180mcu_fd_sc_mcu9t5v0__mux4_2
* cell instance $212 m0 *1 138.32,45.36
X$212 949 950 102 22 98 114 gf180mcu_fd_sc_mcu9t5v0__mux2_2
* cell instance $214 r0 *1 123.76,35.28
X$214 949 85 22 81 102 950 gf180mcu_fd_sc_mcu9t5v0__dffrnq_2
* cell instance $217 r0 *1 137.76,65.52
X$217 67 170 118 195 949 950 23 gf180mcu_fd_sc_mcu9t5v0__and4_2
* cell instance $219 m0 *1 301.84,45.36
X$219 949 950 90 88 23 91 gf180mcu_fd_sc_mcu9t5v0__mux2_2
* cell instance $221 r0 *1 176.4,25.2
X$221 949 950 73 33 23 74 gf180mcu_fd_sc_mcu9t5v0__mux2_2
* cell instance $223 r0 *1 302.4,55.44
X$223 949 950 162 133 23 163 gf180mcu_fd_sc_mcu9t5v0__mux2_2
* cell instance $225 r0 *1 302.4,65.52
X$225 949 950 201 180 23 202 gf180mcu_fd_sc_mcu9t5v0__mux2_2
* cell instance $229 r0 *1 301.84,15.12
X$229 949 950 38 41 23 39 gf180mcu_fd_sc_mcu9t5v0__mux2_2
* cell instance $231 m0 *1 264.32,35.28
X$231 949 950 86 27 23 77 gf180mcu_fd_sc_mcu9t5v0__mux2_2
* cell instance $246 r0 *1 234.08,45.36
X$246 949 950 113 24 98 110 gf180mcu_fd_sc_mcu9t5v0__mux2_2
* cell instance $257 m0 *1 246.4,45.36
X$257 949 950 104 26 98 112 gf180mcu_fd_sc_mcu9t5v0__mux2_2
* cell instance $262 r0 *1 62.72,156.24
X$262 949 950 433 434 256 27 gf180mcu_fd_sc_mcu9t5v0__mux2_2
* cell instance $265 r0 *1 50.4,156.24
X$265 949 950 458 432 281 27 gf180mcu_fd_sc_mcu9t5v0__mux2_2
* cell instance $268 m0 *1 80.08,166.32
X$268 949 950 450 451 315 27 gf180mcu_fd_sc_mcu9t5v0__mux2_2
* cell instance $271 m0 *1 49.28,176.4
X$271 949 950 468 449 277 27 gf180mcu_fd_sc_mcu9t5v0__mux2_2
* cell instance $273 r0 *1 250.88,15.12
X$273 949 950 37 27 50 62 gf180mcu_fd_sc_mcu9t5v0__mux2_2
* cell instance $276 m0 *1 271.6,75.6
X$276 949 950 208 27 175 179 gf180mcu_fd_sc_mcu9t5v0__mux2_2
* cell instance $278 m0 *1 269.92,25.2
X$278 949 950 58 27 56 57 gf180mcu_fd_sc_mcu9t5v0__mux2_2
* cell instance $283 r0 *1 268.24,156.24
X$283 949 950 446 27 249 445 gf180mcu_fd_sc_mcu9t5v0__mux2_2
* cell instance $286 r0 *1 236.32,166.32
X$286 949 950 442 27 266 443 gf180mcu_fd_sc_mcu9t5v0__mux2_2
* cell instance $289 r0 *1 250.88,176.4
X$289 949 950 467 27 226 444 gf180mcu_fd_sc_mcu9t5v0__mux2_2
* cell instance $291 r0 *1 223.44,156.24
X$291 949 950 457 27 258 440 gf180mcu_fd_sc_mcu9t5v0__mux2_2
* cell instance $294 r0 *1 247.52,55.44
X$294 949 950 159 27 158 160 gf180mcu_fd_sc_mcu9t5v0__mux2_2
* cell instance $299 m0 *1 273.28,55.44
X$299 949 950 152 27 128 131 gf180mcu_fd_sc_mcu9t5v0__mux2_2
* cell instance $301 r0 *1 256.48,65.52
X$301 949 950 200 27 155 178 gf180mcu_fd_sc_mcu9t5v0__mux2_2
* cell instance $322 r0 *1 263.2,25.2
X$322 949 78 70 28 62 69 77 57 950 gf180mcu_fd_sc_mcu9t5v0__mux4_2
* cell instance $325 r0 *1 95.2,186.48
X$325 949 950 29 492 490 gf180mcu_fd_sc_mcu9t5v0__nor2_2
* cell instance $327 m0 *1 90.72,176.4
X$327 949 46 479 950 472 460 29 gf180mcu_fd_sc_mcu9t5v0__nor4_2
* cell instance $330 r0 *1 94.64,176.4
X$330 471 950 29 472 949 473 gf180mcu_fd_sc_mcu9t5v0__and3_2
* cell instance $337 r0 *1 60.48,45.36
X$337 949 950 118 30 gf180mcu_fd_sc_mcu9t5v0__clkinv_2
* cell instance $341 m0 *1 166.88,45.36
X$341 949 950 103 31 98 116 gf180mcu_fd_sc_mcu9t5v0__mux2_2
* cell instance $344 m0 *1 147.84,45.36
X$344 949 85 31 81 103 950 gf180mcu_fd_sc_mcu9t5v0__dffrnq_2
* cell instance $347 r0 *1 176.96,15.12
X$347 949 950 32 33 50 61 gf180mcu_fd_sc_mcu9t5v0__mux2_2
* cell instance $349 m0 *1 172.48,15.12
X$349 949 61 72 32 950 gf180mcu_fd_sc_mcu9t5v0__dffq_2
* cell instance $351 m0 *1 140,115.92
X$351 949 950 327 296 315 33 gf180mcu_fd_sc_mcu9t5v0__mux2_2
* cell instance $353 m0 *1 131.6,95.76
X$353 949 950 262 255 256 33 gf180mcu_fd_sc_mcu9t5v0__mux2_2
* cell instance $355 m0 *1 202.16,126
X$355 949 950 366 33 249 346 gf180mcu_fd_sc_mcu9t5v0__mux2_2
* cell instance $358 m0 *1 179.76,126
X$358 949 950 365 33 258 344 gf180mcu_fd_sc_mcu9t5v0__mux2_2
* cell instance $361 m0 *1 184.8,136.08
X$361 949 950 389 33 266 345 gf180mcu_fd_sc_mcu9t5v0__mux2_2
* cell instance $363 r0 *1 123.76,105.84
X$363 949 950 306 295 281 33 gf180mcu_fd_sc_mcu9t5v0__mux2_2
* cell instance $369 m0 *1 204.4,115.92
X$369 949 950 320 33 226 331 gf180mcu_fd_sc_mcu9t5v0__mux2_2
* cell instance $371 r0 *1 123.76,95.76
X$371 949 950 275 282 277 33 gf180mcu_fd_sc_mcu9t5v0__mux2_2
* cell instance $373 m0 *1 190.96,15.12
X$373 949 950 34 33 56 35 gf180mcu_fd_sc_mcu9t5v0__mux2_2
* cell instance $375 m0 *1 220.64,55.44
X$375 949 950 153 33 128 142 gf180mcu_fd_sc_mcu9t5v0__mux2_2
* cell instance $377 r0 *1 199.92,55.44
X$377 949 950 124 33 155 126 gf180mcu_fd_sc_mcu9t5v0__mux2_2
* cell instance $379 m0 *1 192.08,65.52
X$379 949 950 176 33 158 125 gf180mcu_fd_sc_mcu9t5v0__mux2_2
* cell instance $381 m0 *1 202.72,75.6
X$381 949 950 207 33 175 141 gf180mcu_fd_sc_mcu9t5v0__mux2_2
* cell instance $383 r0 *1 208.88,35.28
X$383 949 950 83 33 55 76 gf180mcu_fd_sc_mcu9t5v0__mux2_2
* cell instance $405 r0 *1 187.04,25.2
X$405 949 75 70 76 61 69 74 35 950 gf180mcu_fd_sc_mcu9t5v0__mux4_2
* cell instance $418 m0 *1 304.64,25.2
X$418 949 65 70 44 64 69 39 43 950 gf180mcu_fd_sc_mcu9t5v0__mux4_2
* cell instance $421 r0 *1 311.92,15.12
X$421 949 43 42 40 950 gf180mcu_fd_sc_mcu9t5v0__dffq_2
* cell instance $423 m0 *1 316.96,15.12
X$423 949 950 40 41 56 43 gf180mcu_fd_sc_mcu9t5v0__mux2_2
* cell instance $425 m0 *1 159.6,156.24
X$425 949 950 431 436 315 41 gf180mcu_fd_sc_mcu9t5v0__mux2_2
* cell instance $427 m0 *1 137.76,176.4
X$427 949 950 435 454 277 41 gf180mcu_fd_sc_mcu9t5v0__mux2_2
* cell instance $429 r0 *1 137.76,166.32
X$429 949 950 459 453 281 41 gf180mcu_fd_sc_mcu9t5v0__mux2_2
* cell instance $432 r0 *1 152.88,166.32
X$432 949 950 469 463 256 41 gf180mcu_fd_sc_mcu9t5v0__mux2_2
* cell instance $434 m0 *1 272.16,176.4
X$434 949 950 477 41 249 478 gf180mcu_fd_sc_mcu9t5v0__mux2_2
* cell instance $436 r0 *1 222.88,176.4
X$436 949 950 487 41 258 476 gf180mcu_fd_sc_mcu9t5v0__mux2_2
* cell instance $438 m0 *1 250.32,186.48
X$438 949 950 497 41 226 481 gf180mcu_fd_sc_mcu9t5v0__mux2_2
* cell instance $441 r0 *1 274.4,115.92
X$441 949 950 350 41 158 351 gf180mcu_fd_sc_mcu9t5v0__mux2_2
* cell instance $443 r0 *1 234.08,176.4
X$443 949 950 488 41 266 466 gf180mcu_fd_sc_mcu9t5v0__mux2_2
* cell instance $446 r0 *1 288.96,25.2
X$446 949 950 63 41 50 64 gf180mcu_fd_sc_mcu9t5v0__mux2_2
* cell instance $449 r0 *1 301.28,126
X$449 949 950 378 41 175 369 gf180mcu_fd_sc_mcu9t5v0__mux2_2
* cell instance $452 r0 *1 356.16,115.92
X$452 356 950 949 41 gf180mcu_fd_sc_mcu9t5v0__dlyb_2
* cell instance $455 m0 *1 288.4,146.16
X$455 949 950 421 41 155 368 gf180mcu_fd_sc_mcu9t5v0__mux2_2
* cell instance $457 r0 *1 328.72,15.12
X$457 949 950 45 41 55 44 gf180mcu_fd_sc_mcu9t5v0__mux2_2
* cell instance $460 r0 *1 340.48,115.92
X$460 949 950 355 41 128 371 gf180mcu_fd_sc_mcu9t5v0__mux2_2
* cell instance $482 m0 *1 325.36,15.12
X$482 949 44 42 45 950 gf180mcu_fd_sc_mcu9t5v0__dffq_2
* cell instance $484 m0 *1 305.76,146.16
X$484 949 379 42 408 950 gf180mcu_fd_sc_mcu9t5v0__dffq_2
* cell instance $486 r0 *1 332.64,35.28
X$486 949 95 42 94 950 gf180mcu_fd_sc_mcu9t5v0__dffq_2
* cell instance $491 m0 *1 316.96,105.84
X$491 949 301 42 300 950 gf180mcu_fd_sc_mcu9t5v0__dffq_2
* cell instance $493 m0 *1 291.76,136.08
X$493 949 369 42 378 950 gf180mcu_fd_sc_mcu9t5v0__dffq_2
* cell instance $496 r0 *1 277.2,105.84
X$496 949 323 42 322 950 gf180mcu_fd_sc_mcu9t5v0__dffq_2
* cell instance $498 r0 *1 283.36,95.76
X$498 949 261 42 273 950 gf180mcu_fd_sc_mcu9t5v0__dffq_2
* cell instance $501 m0 *1 318.08,136.08
X$501 949 380 42 370 950 gf180mcu_fd_sc_mcu9t5v0__dffq_2
* cell instance $504 r0 *1 283.36,75.6
X$504 949 209 42 215 950 gf180mcu_fd_sc_mcu9t5v0__dffq_2
* cell instance $507 m0 *1 280,85.68
X$507 949 241 42 240 950 gf180mcu_fd_sc_mcu9t5v0__dffq_2
* cell instance $510 r0 *1 323.68,95.76
X$510 949 270 42 272 950 gf180mcu_fd_sc_mcu9t5v0__dffq_2
* cell instance $512 m0 *1 336.56,105.84
X$512 949 302 42 289 950 gf180mcu_fd_sc_mcu9t5v0__dffq_2
* cell instance $515 r0 *1 260.96,95.76
X$515 949 269 42 268 950 gf180mcu_fd_sc_mcu9t5v0__dffq_2
* cell instance $518 r0 *1 337.12,75.6
X$518 949 212 42 211 950 gf180mcu_fd_sc_mcu9t5v0__dffq_2
* cell instance $520 m0 *1 312.48,85.68
X$520 949 243 42 242 950 gf180mcu_fd_sc_mcu9t5v0__dffq_2
* cell instance $523 r0 *1 313.04,85.68
X$523 949 84 42 950 gf180mcu_fd_sc_mcu9t5v0__clkbuf_16
* cell instance $527 r0 *1 337.12,55.44
X$527 949 147 42 146 950 gf180mcu_fd_sc_mcu9t5v0__dffq_2
* cell instance $530 m0 *1 334.88,136.08
X$530 949 382 42 381 950 gf180mcu_fd_sc_mcu9t5v0__dffq_2
* cell instance $533 m0 *1 322,55.44
X$533 949 149 42 145 950 gf180mcu_fd_sc_mcu9t5v0__dffq_2
* cell instance $535 m0 *1 319.2,35.28
X$535 949 92 42 93 950 gf180mcu_fd_sc_mcu9t5v0__dffq_2
* cell instance $538 m0 *1 297.92,65.52
X$538 949 163 42 162 950 gf180mcu_fd_sc_mcu9t5v0__dffq_2
* cell instance $540 m0 *1 320.32,75.6
X$540 949 210 42 203 950 gf180mcu_fd_sc_mcu9t5v0__dffq_2
* cell instance $542 r0 *1 308.56,85.68
X$542 42 950 949 gf180mcu_fd_sc_mcu9t5v0__clkbuf_2
* cell instance $544 m0 *1 297.36,75.6
X$544 949 202 42 201 950 gf180mcu_fd_sc_mcu9t5v0__dffq_2
* cell instance $546 m0 *1 336,126
X$546 949 371 42 355 950 gf180mcu_fd_sc_mcu9t5v0__dffq_2
* cell instance $583 m0 *1 100.8,176.4
X$583 949 460 473 950 47 gf180mcu_fd_sc_mcu9t5v0__or2_2
* cell instance $593 r0 *1 58.24,105.84
X$593 949 950 313 314 277 49 gf180mcu_fd_sc_mcu9t5v0__mux2_2
* cell instance $595 r0 *1 52.08,115.92
X$595 949 950 337 338 281 49 gf180mcu_fd_sc_mcu9t5v0__mux2_2
* cell instance $597 r0 *1 80.64,115.92
X$597 949 950 340 341 315 49 gf180mcu_fd_sc_mcu9t5v0__mux2_2
* cell instance $599 m0 *1 63.84,126
X$599 949 950 372 339 256 49 gf180mcu_fd_sc_mcu9t5v0__mux2_2
* cell instance $601 r0 *1 147.28,55.44
X$601 949 950 120 49 155 135 gf180mcu_fd_sc_mcu9t5v0__mux2_2
* cell instance $603 r0 *1 155.68,55.44
X$603 949 950 139 49 158 140 gf180mcu_fd_sc_mcu9t5v0__mux2_2
* cell instance $605 r0 *1 173.6,65.52
X$605 949 950 196 49 175 156 gf180mcu_fd_sc_mcu9t5v0__mux2_2
* cell instance $608 m0 *1 127.68,25.2
X$608 949 950 79 49 50 59 gf180mcu_fd_sc_mcu9t5v0__mux2_2
* cell instance $611 r0 *1 171.92,115.92
X$611 949 950 330 49 266 319 gf180mcu_fd_sc_mcu9t5v0__mux2_2
* cell instance $613 m0 *1 189.84,115.92
X$613 949 950 297 49 249 298 gf180mcu_fd_sc_mcu9t5v0__mux2_2
* cell instance $615 r0 *1 147.28,35.28
X$615 949 950 82 49 56 71 gf180mcu_fd_sc_mcu9t5v0__mux2_2
* cell instance $617 m0 *1 156.24,25.2
X$617 949 950 66 49 55 60 gf180mcu_fd_sc_mcu9t5v0__mux2_2
* cell instance $620 r0 *1 188.16,85.68
X$620 949 950 259 49 226 285 gf180mcu_fd_sc_mcu9t5v0__mux2_2
* cell instance $623 r0 *1 183.12,55.44
X$623 949 950 165 49 128 157 gf180mcu_fd_sc_mcu9t5v0__mux2_2
* cell instance $625 m0 *1 157.92,115.92
X$625 949 950 317 49 258 318 gf180mcu_fd_sc_mcu9t5v0__mux2_2
* cell instance $649 m0 *1 288.96,75.6
X$649 949 950 215 180 50 209 gf180mcu_fd_sc_mcu9t5v0__mux2_2
* cell instance $652 m0 *1 139.44,75.6
X$652 67 194 118 195 949 950 50 gf180mcu_fd_sc_mcu9t5v0__and4_2
* cell instance $655 r0 *1 286.72,55.44
X$655 949 950 144 133 50 161 gf180mcu_fd_sc_mcu9t5v0__mux2_2
* cell instance $658 m0 *1 287.84,35.28
X$658 949 950 87 88 50 89 gf180mcu_fd_sc_mcu9t5v0__mux2_2
* cell instance $677 r0 *1 220.08,45.36
X$677 949 950 115 127 109 53 gf180mcu_fd_sc_mcu9t5v0__mux2_2
* cell instance $683 m0 *1 341.04,55.44
X$683 949 950 146 133 55 147 gf180mcu_fd_sc_mcu9t5v0__mux2_2
* cell instance $688 m0 *1 154,75.6
X$688 67 194 118 174 949 950 55 gf180mcu_fd_sc_mcu9t5v0__and4_2
* cell instance $691 m0 *1 341.04,75.6
X$691 949 950 211 180 55 212 gf180mcu_fd_sc_mcu9t5v0__mux2_2
* cell instance $697 m0 *1 337.12,35.28
X$697 949 950 94 88 55 95 gf180mcu_fd_sc_mcu9t5v0__mux2_2
* cell instance $707 r0 *1 147.28,65.52
X$707 67 170 118 174 949 950 56 gf180mcu_fd_sc_mcu9t5v0__and4_2
* cell instance $709 r0 *1 324.24,65.52
X$709 949 950 203 180 56 210 gf180mcu_fd_sc_mcu9t5v0__mux2_2
* cell instance $711 m0 *1 325.36,65.52
X$711 949 950 145 133 56 149 gf180mcu_fd_sc_mcu9t5v0__mux2_2
* cell instance $721 m0 *1 323.68,45.36
X$721 949 950 93 88 56 92 gf180mcu_fd_sc_mcu9t5v0__mux2_2
* cell instance $742 r0 *1 119.84,25.2
X$742 949 59 68 79 950 gf180mcu_fd_sc_mcu9t5v0__dffq_2
* cell instance $748 m0 *1 139.44,25.2
X$748 949 60 81 66 950 gf180mcu_fd_sc_mcu9t5v0__dffq_2
* cell instance $770 r0 *1 291.76,115.92
X$770 949 950 349 353 109 65 gf180mcu_fd_sc_mcu9t5v0__mux2_2
* cell instance $779 m0 *1 80.64,55.44
X$779 949 950 67 117 118 gf180mcu_fd_sc_mcu9t5v0__nand2_2
* cell instance $782 m0 *1 108.08,65.52
X$782 67 950 170 118 949 172 gf180mcu_fd_sc_mcu9t5v0__and3_2
* cell instance $784 r0 *1 73.92,85.68
X$784 949 118 233 168 67 256 950 gf180mcu_fd_sc_mcu9t5v0__nand4_4
* cell instance $788 m0 *1 146.72,75.6
X$788 67 182 118 195 949 950 158 gf180mcu_fd_sc_mcu9t5v0__and4_2
* cell instance $790 r0 *1 154,75.6
X$790 67 168 118 174 949 950 175 gf180mcu_fd_sc_mcu9t5v0__and4_2
* cell instance $792 r0 *1 152.32,85.68
X$792 67 182 118 235 949 950 249 gf180mcu_fd_sc_mcu9t5v0__and4_2
* cell instance $794 m0 *1 154,95.76
X$794 67 194 118 235 949 950 258 gf180mcu_fd_sc_mcu9t5v0__and4_2
* cell instance $797 m0 *1 152.32,85.68
X$797 67 168 118 235 949 950 226 gf180mcu_fd_sc_mcu9t5v0__and4_2
* cell instance $800 m0 *1 146.72,95.76
X$800 67 170 118 235 949 950 266 gf180mcu_fd_sc_mcu9t5v0__and4_2
* cell instance $803 r0 *1 146.72,75.6
X$803 67 168 118 195 949 950 155 gf180mcu_fd_sc_mcu9t5v0__and4_2
* cell instance $806 r0 *1 154.56,65.52
X$806 67 182 118 174 949 950 128 gf180mcu_fd_sc_mcu9t5v0__and4_2
* cell instance $808 r0 *1 82.32,75.6
X$808 67 186 136 106 949 950 214 gf180mcu_fd_sc_mcu9t5v0__and4_2
* cell instance $810 m0 *1 90.72,105.84
X$810 949 118 233 182 67 315 950 gf180mcu_fd_sc_mcu9t5v0__nand4_4
* cell instance $813 m0 *1 73.36,105.84
X$813 949 118 233 194 67 281 950 gf180mcu_fd_sc_mcu9t5v0__nand4_4
* cell instance $816 r0 *1 75.04,95.76
X$816 949 118 233 170 67 277 950 gf180mcu_fd_sc_mcu9t5v0__nand4_4
* cell instance $833 m0 *1 18.48,75.6
X$833 949 85 166 68 181 950 gf180mcu_fd_sc_mcu9t5v0__dffrnq_2
* cell instance $836 m0 *1 106.96,75.6
X$836 949 85 206 68 184 950 gf180mcu_fd_sc_mcu9t5v0__dffrnq_2
* cell instance $838 r0 *1 64.4,35.28
X$838 949 85 99 68 97 950 gf180mcu_fd_sc_mcu9t5v0__dffrnq_2
* cell instance $841 m0 *1 72.8,45.36
X$841 949 85 106 68 105 950 gf180mcu_fd_sc_mcu9t5v0__dffrnq_2
* cell instance $844 m0 *1 47.04,126
X$844 949 338 68 337 950 gf180mcu_fd_sc_mcu9t5v0__dffq_2
* cell instance $847 m0 *1 56,115.92
X$847 949 314 68 313 950 gf180mcu_fd_sc_mcu9t5v0__dffq_2
* cell instance $849 m0 *1 91.84,45.36
X$849 949 85 96 68 101 950 gf180mcu_fd_sc_mcu9t5v0__dffrnq_2
* cell instance $854 r0 *1 15.12,115.92
X$854 949 85 280 68 334 950 gf180mcu_fd_sc_mcu9t5v0__dffrnq_2
* cell instance $856 r0 *1 63.28,55.44
X$856 949 85 136 68 148 950 gf180mcu_fd_sc_mcu9t5v0__dffrnq_2
* cell instance $858 m0 *1 43.12,136.08
X$858 949 401 68 396 950 gf180mcu_fd_sc_mcu9t5v0__dffq_2
* cell instance $860 m0 *1 72.24,75.6
X$860 949 68 950 gf180mcu_fd_sc_mcu9t5v0__clkbuf_20
* cell instance $864 r0 *1 72.24,65.52
X$864 949 84 68 950 gf180mcu_fd_sc_mcu9t5v0__clkbuf_16
* cell instance $875 m0 *1 201.6,55.44
X$875 949 108 70 142 125 69 126 141 950 gf180mcu_fd_sc_mcu9t5v0__mux4_2
* cell instance $877 r0 *1 222.88,75.6
X$877 949 127 70 223 237 69 198 177 950 gf180mcu_fd_sc_mcu9t5v0__mux4_2
* cell instance $879 r0 *1 91.28,85.68
X$879 234 949 950 69 264 254 gf180mcu_fd_sc_mcu9t5v0__addh_1
* cell instance $881 m0 *1 57.12,45.36
X$881 950 69 98 949 97 gf180mcu_fd_sc_mcu9t5v0__xnor2_2
* cell instance $883 m0 *1 124.88,105.84
X$883 949 283 264 296 295 69 282 255 950 gf180mcu_fd_sc_mcu9t5v0__mux4_2
* cell instance $886 r0 *1 176.96,105.84
X$886 949 307 264 298 318 69 319 285 950 gf180mcu_fd_sc_mcu9t5v0__mux4_2
* cell instance $889 m0 *1 291.2,126
X$889 949 353 70 371 351 69 368 369 950 gf180mcu_fd_sc_mcu9t5v0__mux4_2
* cell instance $891 r0 *1 83.44,35.28
X$891 949 950 99 69 gf180mcu_fd_sc_mcu9t5v0__buf_4
* cell instance $895 r0 *1 311.92,126
X$895 949 358 70 382 377 69 379 380 950 gf180mcu_fd_sc_mcu9t5v0__mux4_2
* cell instance $897 r0 *1 311.36,105.84
X$897 949 305 70 302 323 69 324 301 950 gf180mcu_fd_sc_mcu9t5v0__mux4_2
* cell instance $899 r0 *1 190.96,115.92
X$899 949 284 264 346 344 69 345 331 950 gf180mcu_fd_sc_mcu9t5v0__mux4_2
* cell instance $901 m0 *1 59.36,166.32
X$901 949 427 264 451 432 69 449 434 950 gf180mcu_fd_sc_mcu9t5v0__mux4_2
* cell instance $903 r0 *1 150.08,136.08
X$903 949 386 264 388 376 69 404 343 950 gf180mcu_fd_sc_mcu9t5v0__mux4_2
* cell instance $905 r0 *1 239.68,95.76
X$905 949 267 264 269 265 69 288 260 950 gf180mcu_fd_sc_mcu9t5v0__mux4_2
* cell instance $907 m0 *1 238,176.4
X$907 949 441 264 478 476 69 466 481 950 gf180mcu_fd_sc_mcu9t5v0__mux4_2
* cell instance $909 r0 *1 164.08,55.44
X$909 949 151 70 157 140 69 135 156 950 gf180mcu_fd_sc_mcu9t5v0__mux4_2
* cell instance $911 m0 *1 59.36,75.6
X$911 191 949 950 69 204 205 gf180mcu_fd_sc_mcu9t5v0__addh_1
* cell instance $913 r0 *1 310.24,75.6
X$913 949 224 70 212 209 69 202 210 950 gf180mcu_fd_sc_mcu9t5v0__mux4_2
* cell instance $915 m0 *1 299.04,95.76
X$915 949 132 70 270 241 69 261 243 950 gf180mcu_fd_sc_mcu9t5v0__mux4_2
* cell instance $918 m0 *1 108.64,156.24
X$918 949 425 264 428 413 69 426 462 950 gf180mcu_fd_sc_mcu9t5v0__mux4_2
* cell instance $921 m0 *1 146.16,166.32
X$921 949 447 264 436 453 69 454 463 950 gf180mcu_fd_sc_mcu9t5v0__mux4_2
* cell instance $925 m0 *1 175.28,176.4
X$925 949 415 264 456 496 69 464 474 950 gf180mcu_fd_sc_mcu9t5v0__mux4_2
* cell instance $927 m0 *1 260.96,65.52
X$927 949 130 70 131 160 69 178 179 950 gf180mcu_fd_sc_mcu9t5v0__mux4_2
* cell instance $929 r0 *1 307.44,35.28
X$929 949 100 70 95 89 69 91 92 950 gf180mcu_fd_sc_mcu9t5v0__mux4_2
* cell instance $932 r0 *1 242.48,136.08
X$932 949 392 264 393 406 69 391 407 950 gf180mcu_fd_sc_mcu9t5v0__mux4_2
* cell instance $935 r0 *1 249.2,156.24
X$935 949 430 264 445 440 69 443 444 950 gf180mcu_fd_sc_mcu9t5v0__mux4_2
* cell instance $938 m0 *1 106.4,126
X$938 949 276 264 329 363 69 362 364 950 gf180mcu_fd_sc_mcu9t5v0__mux4_2
* cell instance $940 m0 *1 58.8,146.16
X$940 949 410 264 412 400 69 401 402 950 gf180mcu_fd_sc_mcu9t5v0__mux4_2
* cell instance $942 r0 *1 310.8,55.44
X$942 949 164 70 147 161 69 163 149 950 gf180mcu_fd_sc_mcu9t5v0__mux4_2
* cell instance $944 r0 *1 199.36,156.24
X$944 949 417 264 419 437 69 438 439 950 gf180mcu_fd_sc_mcu9t5v0__mux4_2
* cell instance $946 r0 *1 60.48,115.92
X$946 949 357 264 341 338 69 314 339 950 gf180mcu_fd_sc_mcu9t5v0__mux4_2
* cell instance $948 m0 *1 168,95.76
X$948 949 263 69 950 264 70 gf180mcu_fd_sc_mcu9t5v0__nand3_2
* cell instance $1000 r0 *1 227.36,95.76
X$1000 949 950 70 220 gf180mcu_fd_sc_mcu9t5v0__clkinv_2
* cell instance $1009 m0 *1 129.92,85.68
X$1009 949 85 70 81 227 950 gf180mcu_fd_sc_mcu9t5v0__dffrnq_2
* cell instance $1035 m0 *1 140,35.28
X$1035 949 71 81 82 950 gf180mcu_fd_sc_mcu9t5v0__dffq_2
* cell instance $1038 r0 *1 211.12,85.68
X$1038 949 237 72 236 950 gf180mcu_fd_sc_mcu9t5v0__dffq_2
* cell instance $1041 m0 *1 222.88,75.6
X$1041 949 177 72 199 950 gf180mcu_fd_sc_mcu9t5v0__dffq_2
* cell instance $1044 r0 *1 179.2,136.08
X$1044 949 345 72 389 950 gf180mcu_fd_sc_mcu9t5v0__dffq_2
* cell instance $1046 r0 *1 211.12,65.52
X$1046 949 198 72 197 950 gf180mcu_fd_sc_mcu9t5v0__dffq_2
* cell instance $1049 r0 *1 198.8,126
X$1049 949 346 72 366 950 gf180mcu_fd_sc_mcu9t5v0__dffq_2
* cell instance $1052 r0 *1 212.24,55.44
X$1052 949 142 72 153 950 gf180mcu_fd_sc_mcu9t5v0__dffq_2
* cell instance $1054 m0 *1 183.68,95.76
X$1054 949 285 72 259 950 gf180mcu_fd_sc_mcu9t5v0__dffq_2
* cell instance $1056 m0 *1 183.68,105.84
X$1056 949 298 72 297 950 gf180mcu_fd_sc_mcu9t5v0__dffq_2
* cell instance $1058 r0 *1 187.04,65.52
X$1058 949 125 72 176 950 gf180mcu_fd_sc_mcu9t5v0__dffq_2
* cell instance $1061 r0 *1 190.96,45.36
X$1061 949 126 72 124 950 gf180mcu_fd_sc_mcu9t5v0__dffq_2
* cell instance $1063 m0 *1 218.96,126
X$1063 949 85 347 72 361 950 gf180mcu_fd_sc_mcu9t5v0__dffrnq_2
* cell instance $1065 r0 *1 196.56,75.6
X$1065 949 141 72 207 950 gf180mcu_fd_sc_mcu9t5v0__dffq_2
* cell instance $1067 r0 *1 197.68,85.68
X$1067 949 950 72 gf180mcu_fd_sc_mcu9t5v0__clkbuf_4
* cell instance $1070 r0 *1 174.16,126
X$1070 949 344 72 365 950 gf180mcu_fd_sc_mcu9t5v0__dffq_2
* cell instance $1074 m0 *1 232.96,85.68
X$1074 949 223 72 238 950 gf180mcu_fd_sc_mcu9t5v0__dffq_2
* cell instance $1076 r0 *1 182.56,156.24
X$1076 949 437 72 448 950 gf180mcu_fd_sc_mcu9t5v0__dffq_2
* cell instance $1079 m0 *1 173.04,65.52
X$1079 949 157 72 165 950 gf180mcu_fd_sc_mcu9t5v0__dffq_2
* cell instance $1081 m0 *1 229.04,105.84
X$1081 949 288 72 287 950 gf180mcu_fd_sc_mcu9t5v0__dffq_2
* cell instance $1084 m0 *1 212.24,105.84
X$1084 949 265 72 286 950 gf180mcu_fd_sc_mcu9t5v0__dffq_2
* cell instance $1087 m0 *1 178.64,166.32
X$1087 949 456 72 455 950 gf180mcu_fd_sc_mcu9t5v0__dffq_2
* cell instance $1089 r0 *1 202.16,105.84
X$1089 949 331 72 320 950 gf180mcu_fd_sc_mcu9t5v0__dffq_2
* cell instance $1091 m0 *1 170.8,35.28
X$1091 949 74 72 73 950 gf180mcu_fd_sc_mcu9t5v0__dffq_2
* cell instance $1093 m0 *1 201.6,95.76
X$1093 949 84 72 950 gf180mcu_fd_sc_mcu9t5v0__clkbuf_16
* cell instance $1117 m0 *1 190.4,45.36
X$1117 949 950 107 108 109 75 gf180mcu_fd_sc_mcu9t5v0__mux2_2
* cell instance $1134 r0 *1 262.08,45.36
X$1134 949 950 111 130 109 78 gf180mcu_fd_sc_mcu9t5v0__mux2_2
* cell instance $1144 r0 *1 165.76,176.4
X$1144 949 464 81 482 950 gf180mcu_fd_sc_mcu9t5v0__dffq_2
* cell instance $1146 m0 *1 123.76,65.52
X$1146 949 85 186 81 185 950 gf180mcu_fd_sc_mcu9t5v0__dffrnq_2
* cell instance $1148 m0 *1 90.72,95.76
X$1148 949 85 264 81 274 950 gf180mcu_fd_sc_mcu9t5v0__dffrnq_2
* cell instance $1150 r0 *1 155.68,105.84