
* cell bist_controller
* pin mem_addr[4]
* pin mem_addr[3]
* pin mem_addr[1]
* pin mem_addr[0]
* pin mem_addr[2]
* pin bist_start
* pin error_addr[4]
* pin bist_pass
* pin error_addr[2]
* pin error_addr[0]
* pin bist_done
* pin error_addr[3]
* pin rst_n
* pin error_addr[1]
* pin error_count[30]
* pin error_count[29]
* pin error_count[28]
* pin error_count[27]
* pin PWELL
* pin clk
* pin NWELL
* pin error_count[26]
* pin error_count[25]
* pin error_count[24]
* pin error_count[18]
* pin error_count[23]
* pin error_count[22]
* pin mem_enable
* pin mem_rdata[29]
* pin error_count[31]
* pin mem_rdata[26]
* pin mem_rdata[12]
* pin mem_rdata[27]
* pin mem_write
* pin mem_rdata[30]
* pin mem_wdata[31]
* pin error_count[20]
* pin mem_rdata[15]
* pin mem_rdata[31]
* pin mem_rdata[4]
* pin error_count[17]
* pin mem_rdata[16]
* pin error_count[21]
* pin mem_rdata[18]
* pin mem_rdata[19]
* pin mem_rdata[24]
* pin mem_rdata[28]
* pin mem_rdata[22]
* pin error_count[19]
* pin error_count[11]
* pin mem_rdata[21]
* pin error_count[0]
* pin mem_rdata[23]
* pin mem_rdata[20]
* pin mem_rdata[14]
* pin mem_rdata[2]
* pin mem_rdata[17]
* pin mem_rdata[10]
* pin error_count[9]
* pin mem_rdata[8]
* pin mem_rdata[3]
* pin mem_rdata[13]
* pin error_count[10]
* pin mem_rdata[25]
* pin mem_rdata[7]
* pin mem_rdata[11]
* pin mem_rdata[0]
* pin mem_rdata[9]
* pin error_count[8]
* pin mem_wdata[10]
* pin mem_wdata[14]
* pin mem_wdata[5]
* pin mem_wdata[6]
* pin mem_wdata[1]
* pin error_count[7]
* pin mem_wdata[3]
* pin mem_wdata[25]
* pin mem_wdata[30]
* pin mem_wdata[24]
* pin mem_wdata[8]
* pin mem_wdata[20]
* pin mem_wdata[26]
* pin mem_wdata[12]
* pin mem_rdata[6]
* pin mem_wdata[18]
* pin mem_wdata[21]
* pin mem_rdata[1]
* pin mem_wdata[0]
* pin mem_rdata[5]
* pin mem_wdata[15]
* pin mem_wdata[28]
* pin mem_wdata[7]
* pin mem_wdata[23]
* pin mem_wdata[29]
* pin mem_wdata[2]
* pin mem_wdata[4]
* pin mem_wdata[22]
* pin mem_wdata[9]
* pin mem_wdata[17]
* pin mem_wdata[27]
* pin mem_wdata[11]
* pin mem_wdata[19]
* pin mem_wdata[16]
* pin mem_wdata[13]
* pin error_count[12]
* pin error_count[16]
* pin error_count[15]
* pin error_count[14]
* pin error_count[3]
* pin error_count[13]
* pin error_count[2]
* pin error_count[1]
* pin error_count[4]
* pin error_count[5]
* pin error_count[6]
.SUBCKT bist_controller 1 2 3 4 5 6 7 8 9 10 11 12 13 14 15 16 17 18 23 42 44
+ 56 75 155 165 197 219 228 229 237 247 248 250 275 276 277 306 314 330 331 338
+ 350 359 363 364 386 387 388 404 405 413 427 438 449 450 462 463 481 489 494
+ 495 496 516 525 526 544 555 556 565 570 571 585 593 606 609 611 612 633 634
+ 635 657 658 660 665 673 674 690 694 702 703 704 705 706 707 708 709 710 711
+ 712 713 714 715 716 717 718 719 720 721 722 723 724 725 726 727 728
* net 1 mem_addr[4]
* net 2 mem_addr[3]
* net 3 mem_addr[1]
* net 4 mem_addr[0]
* net 5 mem_addr[2]
* net 6 bist_start
* net 7 error_addr[4]
* net 8 bist_pass
* net 9 error_addr[2]
* net 10 error_addr[0]
* net 11 bist_done
* net 12 error_addr[3]
* net 13 rst_n
* net 14 error_addr[1]
* net 15 error_count[30]
* net 16 error_count[29]
* net 17 error_count[28]
* net 18 error_count[27]
* net 23 PWELL
* net 42 clk
* net 44 NWELL
* net 56 error_count[26]
* net 75 error_count[25]
* net 155 error_count[24]
* net 165 error_count[18]
* net 197 error_count[23]
* net 219 error_count[22]
* net 228 mem_enable
* net 229 mem_rdata[29]
* net 237 error_count[31]
* net 247 mem_rdata[26]
* net 248 mem_rdata[12]
* net 250 mem_rdata[27]
* net 275 mem_write
* net 276 mem_rdata[30]
* net 277 mem_wdata[31]
* net 306 error_count[20]
* net 314 mem_rdata[15]
* net 330 mem_rdata[31]
* net 331 mem_rdata[4]
* net 338 error_count[17]
* net 350 mem_rdata[16]
* net 359 error_count[21]
* net 363 mem_rdata[18]
* net 364 mem_rdata[19]
* net 386 mem_rdata[24]
* net 387 mem_rdata[28]
* net 388 mem_rdata[22]
* net 404 error_count[19]
* net 405 error_count[11]
* net 413 mem_rdata[21]
* net 427 error_count[0]
* net 438 mem_rdata[23]
* net 449 mem_rdata[20]
* net 450 mem_rdata[14]
* net 462 mem_rdata[2]
* net 463 mem_rdata[17]
* net 481 mem_rdata[10]
* net 489 error_count[9]
* net 494 mem_rdata[8]
* net 495 mem_rdata[3]
* net 496 mem_rdata[13]
* net 516 error_count[10]
* net 525 mem_rdata[25]
* net 526 mem_rdata[7]
* net 544 mem_rdata[11]
* net 555 mem_rdata[0]
* net 556 mem_rdata[9]
* net 565 error_count[8]
* net 570 mem_wdata[10]
* net 571 mem_wdata[14]
* net 585 mem_wdata[5]
* net 593 mem_wdata[6]
* net 606 mem_wdata[1]
* net 609 error_count[7]
* net 611 mem_wdata[3]
* net 612 mem_wdata[25]
* net 633 mem_wdata[30]
* net 634 mem_wdata[24]
* net 635 mem_wdata[8]
* net 657 mem_wdata[20]
* net 658 mem_wdata[26]
* net 660 mem_wdata[12]
* net 665 mem_rdata[6]
* net 673 mem_wdata[18]
* net 674 mem_wdata[21]
* net 690 mem_rdata[1]
* net 694 mem_wdata[0]
* net 702 mem_rdata[5]
* net 703 mem_wdata[15]
* net 704 mem_wdata[28]
* net 705 mem_wdata[7]
* net 706 mem_wdata[23]
* net 707 mem_wdata[29]
* net 708 mem_wdata[2]
* net 709 mem_wdata[4]
* net 710 mem_wdata[22]
* net 711 mem_wdata[9]
* net 712 mem_wdata[17]
* net 713 mem_wdata[27]
* net 714 mem_wdata[11]
* net 715 mem_wdata[19]
* net 716 mem_wdata[16]
* net 717 mem_wdata[13]
* net 718 error_count[12]
* net 719 error_count[16]
* net 720 error_count[15]
* net 721 error_count[14]
* net 722 error_count[3]
* net 723 error_count[13]
* net 724 error_count[2]
* net 725 error_count[1]
* net 726 error_count[4]
* net 727 error_count[5]
* net 728 error_count[6]
* cell instance $2 r0 *1 6.27,1.4
X$2 29 23 44 1 BUF_X1
* cell instance $8 r0 *1 10.26,1.4
X$8 30 23 44 2 BUF_X1
* cell instance $14 r0 *1 11.4,1.4
X$14 32 23 44 3 BUF_X1
* cell instance $21 r0 *1 13.87,1.4
X$21 35 23 44 4 BUF_X1
* cell instance $29 r0 *1 16.34,1.4
X$29 36 23 44 5 BUF_X1
* cell instance $32 r0 *1 18.43,9.8
X$32 6 23 44 163 CLKBUF_X2
* cell instance $39 r0 *1 19,1.4
X$39 22 23 44 7 BUF_X1
* cell instance $44 r0 *1 19.76,4.2
X$44 49 23 44 8 BUF_X1
* cell instance $50 r0 *1 20.33,4.2
X$50 113 23 44 9 BUF_X1
* cell instance $56 r0 *1 22.04,1.4
X$56 109 23 44 10 BUF_X1
* cell instance $62 r0 *1 22.61,1.4
X$62 26 23 44 11 BUF_X1
* cell instance $68 r0 *1 23.18,1.4
X$68 50 23 44 12 BUF_X1
* cell instance $74 r0 *1 25.65,1.4
X$74 13 44 120 23 BUF_X4
* cell instance $81 r0 *1 25.08,1.4
X$81 59 23 44 14 BUF_X1
* cell instance $87 r0 *1 26.98,1.4
X$87 45 23 44 15 BUF_X1
* cell instance $93 m0 *1 26.98,4.2
X$93 126 23 44 16 BUF_X1
* cell instance $98 r0 *1 28.88,1.4
X$98 52 23 44 17 BUF_X1
* cell instance $104 r0 *1 30.4,1.4
X$104 43 23 44 18 BUF_X1
* cell instance $110 r0 *1 11.97,1.4
X$110 24 33 19 44 23 34 HA_X1
* cell instance $112 m0 *1 10.83,7
X$112 86 19 87 23 44 88 MUX2_X1
* cell instance $120 r0 *1 17.29,23.8
X$120 421 371 420 448 20 44 23 AOI211_X2
* cell instance $122 r0 *1 17.86,7
X$122 121 20 122 23 44 138 MUX2_X1
* cell instance $125 r0 *1 19.38,7
X$125 90 20 107 23 44 66 MUX2_X1
* cell instance $128 r0 *1 19.95,1.4
X$128 25 20 28 23 44 39 MUX2_X1
* cell instance $130 r0 *1 16.91,1.4
X$130 27 20 21 23 44 37 MUX2_X1
* cell instance $132 r0 *1 23.75,1.4
X$132 51 20 47 23 44 40 MUX2_X1
* cell instance $135 m0 *1 16.15,4.2
X$135 29 38 44 23 21 AND2_X1
* cell instance $140 m0 *1 16.91,4.2
X$140 23 745 22 37 31 44 DFF_X1
* cell instance $144 r0 *1 18.24,1.4
X$144 22 38 44 23 27 AND2_X1
* cell instance $146 m0 *1 2.47,21
X$146 340 339 351 352 23 44 367 NAND4_X1
* cell instance $148 m0 *1 3.42,21
X$148 340 315 332 352 23 44 368 NOR4_X1
* cell instance $149 m0 *1 4.37,21
X$149 350 23 44 393 BUF_X1
* cell instance $152 m0 *1 1.33,21
X$152 314 23 44 365 BUF_X1
* cell instance $156 r0 *1 1.33,21
X$156 387 23 44 351 BUF_X1
* cell instance $157 r0 *1 1.9,21
X$157 364 23 44 389 BUF_X1
* cell instance $158 r0 *1 2.47,21
X$158 386 23 44 332 BUF_X1
* cell instance $163 r0 *1 3.23,21
X$163 366 367 391 390 23 44 409 NOR4_X1
* cell instance $164 r0 *1 4.18,21
X$164 341 368 23 44 392 NAND2_X1
* cell instance $166 r0 *1 5.13,21
X$166 346 210 302 23 44 411 MUX2_X1
* cell instance $168 m0 *1 6.08,21
X$168 301 23 44 302 INV_X1
* cell instance $170 r0 *1 6.46,21
X$170 370 411 394 44 281 23 OAI21_X1
* cell instance $171 r0 *1 7.22,21
X$171 280 301 326 23 44 354 NOR3_X1
* cell instance $172 m0 *1 8.17,21
X$172 326 186 211 308 44 369 23 NOR4_X2
* cell instance $173 m0 *1 7.6,21
X$173 354 317 23 44 353 NAND2_X1
* cell instance $175 m0 *1 10.64,21
X$175 230 210 317 23 44 379 MUX2_X1
* cell instance $177 m0 *1 12.16,21
X$177 379 297 23 44 362 NAND2_X1
* cell instance $180 m0 *1 13.68,21
X$180 333 23 44 230 INV_X2
* cell instance $181 m0 *1 14.25,21
X$181 318 44 257 23 BUF_X4
* cell instance $183 m0 *1 15.77,21
X$183 361 333 318 23 44 308 NAND3_X2
* cell instance $187 r0 *1 7.98,21
X$187 432 326 395 370 378 184 23 44 OAI221_X2
* cell instance $188 r0 *1 10.07,21
X$188 187 302 326 23 395 44 AOI21_X1
* cell instance $189 r0 *1 10.83,21
X$189 187 23 44 210 INV_X2
* cell instance $190 r0 *1 11.4,21
X$190 177 257 23 44 370 NAND2_X2
* cell instance $191 r0 *1 12.35,21
X$191 317 210 173 23 44 433 NAND3_X1
* cell instance $192 r0 *1 13.11,21
X$192 348 177 174 44 23 288 OAI21_X4
* cell instance $193 r0 *1 15.58,21
X$193 396 346 23 44 397 NOR2_X1
* cell instance $194 r0 *1 16.15,21
X$194 396 211 23 44 378 NOR2_X2
* cell instance $196 r0 *1 17.86,21
X$196 361 44 187 23 BUF_X4
* cell instance $199 r0 *1 20.9,21
X$199 371 44 327 23 BUF_X4
* cell instance $200 m0 *1 22.23,21
X$200 385 23 44 384 INV_X1
* cell instance $202 m0 *1 22.61,21
X$202 384 383 125 356 382 23 44 381 AOI221_X1
* cell instance $204 m0 *1 23.94,21
X$204 355 23 44 356 INV_X1
* cell instance $205 m0 *1 24.32,21
X$205 23 746 360 381 41 44 DFF_X1
* cell instance $206 m0 *1 27.55,21
X$206 360 23 44 355 CLKBUF_X2
* cell instance $207 m0 *1 28.31,21
X$207 372 356 23 44 357 NOR2_X1
* cell instance $208 m0 *1 28.88,21
X$208 380 357 130 23 44 373 NAND3_X1
* cell instance $209 m0 *1 29.64,21
X$209 292 357 44 23 294 AND2_X1
* cell instance $210 m0 *1 30.4,21
X$210 327 294 115 23 374 44 AOI21_X1
* cell instance $211 m0 *1 31.16,21
X$211 167 23 44 372 INV_X1
* cell instance $212 m0 *1 31.54,21
X$212 327 357 130 23 375 44 AOI21_X1
* cell instance $214 m0 *1 33.06,21
X$214 23 743 406 376 41 44 DFF_X1
* cell instance $215 m0 *1 36.29,21
X$215 23 751 358 337 41 44 DFF_X1
* cell instance $216 m0 *1 39.52,21
X$216 358 23 44 359 BUF_X1
* cell instance $217 m0 *1 40.09,21
X$217 360 23 44 338 BUF_X1
* cell instance $219 r0 *1 22.23,21
X$219 42 23 44 243 CLKBUF_X3
* cell instance $220 r0 *1 23.18,21
X$220 130 371 355 44 385 23 OAI21_X1
* cell instance $221 r0 *1 23.94,21
X$221 456 23 44 130 BUF_X2
* cell instance $224 r0 *1 27.93,21
X$224 115 120 372 355 23 44 400 NAND4_X1
* cell instance $226 r0 *1 29.07,21
X$226 319 205 178 373 23 44 408 OR4_X1
* cell instance $227 r0 *1 30.21,21
X$227 374 402 401 23 44 347 NOR3_X1
* cell instance $228 r0 *1 30.97,21
X$228 192 292 23 44 410 NAND2_X1
* cell instance $230 r0 *1 31.73,21
X$230 375 402 401 23 44 377 NOR3_X1
* cell instance $231 r0 *1 32.49,21
X$231 377 410 408 44 376 23 OAI21_X1
* cell instance $233 r0 *1 34.77,21
X$233 407 53 44 23 430 AND2_X1
* cell instance $234 r0 *1 35.53,21
X$234 406 23 44 292 BUF_X1
* cell instance $237 r0 *1 38,21
X$237 406 23 44 404 BUF_X1
* cell instance $242 m0 *1 5.7,12.6
X$242 198 172 166 44 150 23 OAI21_X1
* cell instance $244 m0 *1 6.46,12.6
X$244 174 173 23 44 198 NAND2_X1
* cell instance $246 m0 *1 7.22,12.6
X$246 185 199 184 44 23 85 AND3_X2
* cell instance $247 m0 *1 8.36,12.6
X$247 184 199 185 23 44 137 NAND3_X1
* cell instance $249 m0 *1 9.31,12.6
X$249 174 186 188 44 226 23 OAI21_X1
* cell instance $251 m0 *1 10.26,12.6
X$251 173 187 160 44 23 157 AND3_X2
* cell instance $253 m0 *1 12.16,12.6
X$253 160 188 23 44 204 NOR2_X1
* cell instance $254 m0 *1 12.73,12.6
X$254 176 189 23 44 182 OR2_X1
* cell instance $256 m0 *1 13.68,12.6
X$256 174 177 23 44 189 NOR2_X1
* cell instance $264 r0 *1 1.33,12.6
X$264 23 221 220 251 31 44 DFF_X1
* cell instance $268 r0 *1 4.56,12.6
X$268 220 23 44 186 BUF_X2
* cell instance $269 r0 *1 5.32,12.6
X$269 221 23 44 183 CLKBUF_X2
* cell instance $270 r0 *1 6.08,12.6
X$270 160 210 211 44 161 23 NOR3_X2
* cell instance $273 r0 *1 8.55,12.6
X$273 212 157 226 225 23 44 199 AOI22_X2
* cell instance $274 r0 *1 10.26,12.6
X$274 175 157 162 183 44 23 245 OAI22_X2
* cell instance $275 r0 *1 11.97,12.6
X$275 183 187 23 44 188 NAND2_X1
* cell instance $276 r0 *1 12.54,12.6
X$276 213 211 23 44 185 NOR2_X2
* cell instance $277 r0 *1 13.49,12.6
X$277 204 213 173 44 231 23 OAI21_X1
* cell instance $278 r0 *1 14.25,12.6
X$278 187 177 257 163 44 213 23 NOR4_X2
* cell instance $280 m0 *1 15.39,12.6
X$280 187 44 174 23 BUF_X4
* cell instance $282 m0 *1 17.67,12.6
X$282 23 732 49 190 31 44 DFF_X1
* cell instance $284 m0 *1 21.09,12.6
X$284 125 23 44 112 CLKBUF_X3
* cell instance $285 m0 *1 22.04,12.6
X$285 112 209 191 23 208 44 AOI21_X1
* cell instance $286 m0 *1 22.8,12.6
X$286 193 26 23 44 209 NAND2_X1
* cell instance $288 m0 *1 26.41,12.6
X$288 164 206 171 23 44 139 MUX2_X1
* cell instance $289 m0 *1 27.74,12.6
X$289 170 178 94 23 44 206 NOR3_X1
* cell instance $290 m0 *1 28.5,12.6
X$290 181 92 115 23 44 195 NAND3_X1
* cell instance $291 m0 *1 29.26,12.6
X$291 203 178 205 23 44 196 NOR3_X1
* cell instance $295 m0 *1 34.01,12.6
X$295 72 129 180 236 23 44 202 NOR4_X1
* cell instance $296 m0 *1 34.96,12.6
X$296 201 23 44 92 BUF_X2
* cell instance $297 m0 *1 35.72,12.6
X$297 180 53 44 23 224 AND2_X1
* cell instance $299 m0 *1 36.67,12.6
X$299 93 180 23 44 223 NOR2_X1
* cell instance $303 r0 *1 15.96,12.6
X$303 243 23 44 31 CLKBUF_X3
* cell instance $305 r0 *1 17.1,12.6
X$305 211 23 44 176 CLKBUF_X3
* cell instance $306 r0 *1 18.05,12.6
X$306 31 23 44 CLKBUF_X1
* cell instance $307 r0 *1 18.62,12.6
X$307 207 112 23 44 190 NOR2_X1
* cell instance $309 r0 *1 19.95,12.6
X$309 214 49 233 23 207 44 AOI21_X1
* cell instance $310 r0 *1 20.71,12.6
X$310 23 759 26 208 31 44 DFF_X1
* cell instance $311 r0 *1 23.94,12.6
X$311 120 176 193 44 23 194 OAI21_X2
* cell instance $312 r0 *1 25.27,12.6
X$312 194 23 44 93 CLKBUF_X3
* cell instance $313 r0 *1 26.22,12.6
X$313 45 215 44 23 271 AND2_X1
* cell instance $314 r0 *1 26.98,12.6
X$314 215 23 44 53 BUF_X2
* cell instance $315 r0 *1 27.74,12.6
X$315 195 178 205 23 44 240 NOR3_X1
* cell instance $317 r0 *1 28.69,12.6
X$317 216 215 44 23 269 AND2_X1
* cell instance $319 r0 *1 29.64,12.6
X$319 194 216 23 44 270 NOR2_X1
* cell instance $321 r0 *1 30.4,12.6
X$321 235 216 45 54 23 44 227 NOR4_X1
* cell instance $323 r0 *1 31.54,12.6
X$323 290 202 179 227 23 44 242 NAND4_X1
* cell instance $327 r0 *1 33.82,12.6
X$327 217 130 23 44 200 NAND2_X1
* cell instance $328 r0 *1 34.39,12.6
X$328 180 217 44 23 201 AND2_X1
* cell instance $330 r0 *1 35.34,12.6
X$330 200 97 94 23 44 218 NOR3_X1
* cell instance $331 r0 *1 36.1,12.6
X$331 224 218 223 23 44 222 MUX2_X1
* cell instance $332 r0 *1 37.43,12.6
X$332 23 753 180 222 41 44 DFF_X1
* cell instance $333 m0 *1 40.09,12.6
X$333 180 23 44 197 BUF_X1
* cell instance $337 m0 *1 1.33,18.2
X$337 23 747 279 307 31 44 DFF_X1
* cell instance $339 m0 *1 4.56,18.2
X$339 279 23 44 301 CLKBUF_X2
* cell instance $340 m0 *1 5.32,18.2
X$340 192 316 44 23 307 AND2_X1
* cell instance $341 m0 *1 6.08,18.2
X$341 183 23 44 280 INV_X1
* cell instance $342 m0 *1 6.46,18.2
X$342 253 308 293 23 44 325 MUX2_X1
* cell instance $343 m0 *1 7.79,18.2
X$343 326 183 302 23 293 44 AOI21_X1
* cell instance $344 m0 *1 8.55,18.2
X$344 253 302 183 23 212 44 AOI21_X1
* cell instance $347 m0 *1 10.26,18.2
X$347 186 174 230 23 44 309 NOR3_X1
* cell instance $349 m0 *1 11.21,18.2
X$349 309 303 272 44 282 23 OAI21_X1
* cell instance $352 r0 *1 1.33,18.2
X$352 330 23 44 339 BUF_X1
* cell instance $353 r0 *1 1.9,18.2
X$353 339 351 249 278 23 44 341 NOR4_X1
* cell instance $354 r0 *1 2.85,18.2
X$354 249 278 315 332 23 44 366 NAND4_X1
* cell instance $359 r0 *1 3.99,18.2
X$359 331 23 44 343 BUF_X1
* cell instance $361 r0 *1 4.75,18.2
X$361 328 342 301 23 44 316 MUX2_X1
* cell instance $364 r0 *1 6.65,18.2
X$364 325 327 185 44 264 23 OAI21_X1
* cell instance $365 r0 *1 7.41,18.2
X$365 344 353 185 23 44 342 NAND3_X1
* cell instance $366 r0 *1 8.17,18.2
X$366 354 317 174 44 344 23 OAI21_X1
* cell instance $369 r0 *1 9.5,18.2
X$369 186 326 23 44 253 OR2_X1
* cell instance $372 r0 *1 11.4,18.2
X$372 346 210 23 44 303 NOR2_X1
* cell instance $373 r0 *1 11.97,18.2
X$373 176 282 362 23 328 44 AOI21_X1
* cell instance $375 m0 *1 12.35,18.2
X$375 176 272 283 23 329 44 AOI21_X1
* cell instance $376 r0 *1 12.73,18.2
X$376 333 318 160 23 44 NOR2_X4
* cell instance $377 m0 *1 14.25,18.2
X$377 333 44 177 23 BUF_X4
* cell instance $378 m0 *1 13.49,18.2
X$378 318 333 44 23 317 AND2_X1
* cell instance $379 m0 *1 15.58,18.2
X$379 112 311 349 23 313 44 AOI21_X1
* cell instance $381 m0 *1 16.53,18.2
X$381 304 23 44 173 INV_X2
* cell instance $383 r0 *1 14.44,18.2
X$383 283 257 23 44 334 NOR2_X1
* cell instance $384 r0 *1 15.01,18.2
X$384 258 348 177 44 349 23 OAI21_X1
* cell instance $385 r0 *1 15.77,18.2
X$385 304 318 23 44 348 NOR2_X2
* cell instance $386 r0 *1 16.72,18.2
X$386 304 44 211 23 BUF_X4
* cell instance $387 m0 *1 17.67,18.2
X$387 23 736 312 313 305 44 DFF_X1
* cell instance $389 m0 *1 20.9,18.2
X$389 312 23 44 333 CLKBUF_X3
* cell instance $394 r0 *1 18.81,18.2
X$394 327 23 44 319 CLKBUF_X3
* cell instance $399 r0 *1 22.61,18.2
X$399 178 205 23 44 383 NOR2_X1
* cell instance $401 m0 *1 27.36,18.2
X$401 284 23 44 125 CLKBUF_X3
* cell instance $402 m0 *1 26.03,18.2
X$402 178 44 97 23 BUF_X4
* cell instance $407 r0 *1 27.55,18.2
X$407 205 23 44 94 CLKBUF_X3
* cell instance $408 r0 *1 28.5,18.2
X$408 125 292 23 44 380 NOR2_X1
* cell instance $409 m0 *1 28.88,18.2
X$409 284 286 23 44 285 NOR2_X1
* cell instance $411 m0 *1 29.45,18.2
X$411 285 294 115 23 44 320 NAND3_X1
* cell instance $412 m0 *1 30.21,18.2
X$412 243 23 44 41 CLKBUF_X3
* cell instance $413 m0 *1 31.16,18.2
X$413 192 286 23 44 323 NAND2_X1
* cell instance $414 m0 *1 31.73,18.2
X$414 310 23 44 235 INV_X1
* cell instance $417 m0 *1 33.06,18.2
X$417 355 167 292 286 44 23 261 AND4_X1
* cell instance $418 m0 *1 34.2,18.2
X$418 260 286 292 23 44 290 NOR3_X1
* cell instance $419 m0 *1 34.96,18.2
X$419 261 130 23 44 321 NAND2_X1
* cell instance $421 m0 *1 35.72,18.2
X$421 260 53 44 23 322 AND2_X1
* cell instance $424 r0 *1 29.07,18.2
X$424 319 205 178 320 23 44 324 OR4_X1
* cell instance $425 r0 *1 30.21,18.2
X$425 347 323 324 44 345 23 OAI21_X1
* cell instance $426 r0 *1 30.97,18.2
X$426 23 756 286 345 41 44 DFF_X1
* cell instance $429 r0 *1 34.77,18.2
X$429 321 97 94 23 44 335 NOR3_X1
* cell instance $430 r0 *1 35.53,18.2
X$430 322 335 336 23 44 337 MUX2_X1
* cell instance $431 r0 *1 36.86,18.2
X$431 93 260 23 44 336 NOR2_X1
* cell instance $434 m0 *1 37.62,18.2
X$434 286 23 44 306 BUF_X1
* cell instance $438 r0 *1 37.81,18.2
X$438 358 23 44 260 BUF_X1
* cell instance $443 m0 *1 6.27,7
X$443 83 23 44 76 INV_X1
* cell instance $445 m0 *1 7.6,7
X$445 87 102 86 61 44 23 101 OAI22_X1
* cell instance $446 m0 *1 8.55,7
X$446 62 60 23 44 102 NOR2_X1
* cell instance $449 m0 *1 12.16,7
X$449 46 64 30 23 44 83 NAND3_X2
* cell instance $450 m0 *1 13.49,7
X$450 86 34 64 46 87 44 23 82 OAI221_X1
* cell instance $451 m0 *1 14.63,7
X$451 65 87 48 86 44 23 106 OAI22_X1
* cell instance $454 m0 *1 17.29,7
X$454 63 38 44 23 107 AND2_X1
* cell instance $462 r0 *1 1.33,7
X$462 23 100 31 136 29 44 DFF_X2
* cell instance $468 r0 *1 5.51,7
X$468 143 117 112 23 44 100 NOR3_X1
* cell instance $471 r0 *1 7.41,7
X$471 29 85 84 23 117 44 AOI21_X1
* cell instance $472 r0 *1 8.17,7
X$472 131 111 112 23 44 57 NOR3_X1
* cell instance $473 r0 *1 8.93,7
X$473 30 85 84 23 111 44 AOI21_X1
* cell instance $474 r0 *1 9.69,7
X$474 118 119 112 23 44 103 NOR3_X1
* cell instance $475 r0 *1 10.45,7
X$475 32 85 84 23 119 44 AOI21_X1
* cell instance $476 r0 *1 11.21,7
X$476 84 85 132 88 44 23 118 AND4_X1
* cell instance $478 r0 *1 12.54,7
X$478 85 84 23 44 104 NAND2_X1
* cell instance $479 r0 *1 13.11,7
X$479 30 64 48 23 44 133 OR3_X2
* cell instance $480 r0 *1 14.25,7
X$480 64 106 82 44 134 23 OAI21_X1
* cell instance $481 r0 *1 15.01,7
X$481 64 23 44 124 INV_X1
* cell instance $482 r0 *1 15.39,7
X$482 125 124 23 44 122 NOR2_X1
* cell instance $485 m0 *1 19.95,7
X$485 23 750 109 66 31 44 DFF_X1
* cell instance $486 m0 *1 19.19,7
X$486 109 38 44 23 90 AND2_X1
* cell instance $490 m0 *1 27.17,7
X$490 110 91 68 23 44 67 MUX2_X1
* cell instance $491 m0 *1 28.5,7
X$491 93 69 23 44 68 NOR2_X1
* cell instance $492 m0 *1 29.07,7
X$492 69 53 44 23 110 AND2_X1
* cell instance $496 r0 *1 20.71,7
X$496 113 38 44 23 121 AND2_X1
* cell instance $500 r0 *1 23.94,7
X$500 120 23 44 38 BUF_X2
* cell instance $504 r0 *1 27.36,7
X$504 135 97 94 23 44 91 NOR3_X1
* cell instance $505 r0 *1 28.12,7
X$505 114 92 115 23 44 135 NAND3_X1
* cell instance $508 m0 *1 31.54,7
X$508 70 95 108 23 44 81 MUX2_X1
* cell instance $509 m0 *1 30.97,7
X$509 93 43 23 44 108 NOR2_X1
* cell instance $511 r0 *1 31.16,7
X$511 127 97 94 23 44 95 NOR3_X1
* cell instance $513 r0 *1 32.3,7
X$513 92 115 72 129 23 44 96 NAND4_X1
* cell instance $514 m0 *1 34.58,7
X$514 93 54 23 44 71 NOR2_X1
* cell instance $515 m0 *1 33.25,7
X$515 105 80 71 23 44 79 MUX2_X1
* cell instance $517 m0 *1 35.34,7
X$517 93 72 23 44 73 NOR2_X1
* cell instance $518 m0 *1 35.91,7
X$518 74 98 73 23 44 99 MUX2_X1
* cell instance $519 m0 *1 37.24,7
X$519 23 737 55 99 41 44 DFF_X1
* cell instance $522 r0 *1 33.25,7
X$522 96 97 94 23 44 80 NOR3_X1
* cell instance $524 r0 *1 34.77,7
X$524 92 115 23 44 146 NAND2_X1
* cell instance $525 r0 *1 35.34,7
X$525 92 130 129 23 44 116 NAND3_X1
* cell instance $526 r0 *1 36.1,7
X$526 116 97 94 23 44 98 NOR3_X1
* cell instance $530 r0 *1 21.28,1.4
X$530 32 38 44 23 47 AND2_X1
* cell instance $535 m0 *1 1.52,29.4
X$535 494 23 44 517 BUF_X1
* cell instance $536 m0 *1 2.09,29.4
X$536 566 527 517 529 23 44 518 NOR4_X1
* cell instance $537 m0 *1 3.04,29.4
X$537 465 521 343 499 23 44 530 NAND4_X1
* cell instance $538 m0 *1 3.99,29.4
X$538 465 521 343 499 23 44 522 NOR4_X1
* cell instance $539 m0 *1 4.94,29.4
X$539 477 500 531 545 23 44 498 NOR4_X1
* cell instance $544 r0 *1 1.33,29.4
X$544 481 23 44 566 BUF_X1
* cell instance $545 r0 *1 1.9,29.4
X$545 496 23 44 482 BUF_X1
* cell instance $546 r0 *1 2.47,29.4
X$546 566 527 517 529 23 44 528 NAND4_X1
* cell instance $550 r0 *1 3.42,29.4
X$550 528 497 567 530 23 44 458 NOR4_X1
* cell instance $551 r0 *1 4.37,29.4
X$551 495 23 44 500 BUF_X1
* cell instance $553 r0 *1 5.13,29.4
X$553 477 500 531 545 23 44 567 NAND4_X1
* cell instance $555 m0 *1 10.26,29.4
X$555 23 735 484 493 305 44 DFF_X1
* cell instance $562 r0 *1 15.96,29.4
X$562 546 23 44 501 BUF_X1
* cell instance $563 m0 *1 17.1,29.4
X$563 504 502 533 503 44 23 547 OAI22_X1
* cell instance $564 m0 *1 16.15,29.4
X$564 501 125 532 23 44 502 OR3_X1
* cell instance $565 m0 *1 18.05,29.4
X$565 378 532 44 23 542 AND2_X1
* cell instance $566 m0 *1 18.81,29.4
X$566 542 469 455 23 44 533 NOR3_X1
* cell instance $568 m0 *1 20.33,29.4
X$568 524 125 534 23 44 480 OR3_X1
* cell instance $569 m0 *1 21.28,29.4
X$569 378 534 44 23 523 AND2_X1
* cell instance $572 m0 *1 26.6,29.4
X$572 120 23 44 538 CLKBUF_X3
* cell instance $574 r0 *1 16.53,29.4
X$574 23 763 546 547 305 44 DFF_X1
* cell instance $577 r0 *1 20.33,29.4
X$577 524 501 23 44 560 NAND2_X2
* cell instance $578 r0 *1 21.28,29.4
X$578 548 549 501 23 44 534 NAND3_X1
* cell instance $580 r0 *1 22.8,29.4
X$580 355 524 501 407 23 44 550 NOR4_X1
* cell instance $583 r0 *1 25.46,29.4
X$583 423 486 774 44 23 586 HA_X1
* cell instance $584 r0 *1 27.36,29.4
X$584 568 562 23 44 548 NOR2_X1
* cell instance $586 m0 *1 28.88,29.4
X$586 125 505 23 44 543 NOR2_X1
* cell instance $587 m0 *1 27.93,29.4
X$587 120 23 44 506 CLKBUF_X3
* cell instance $589 m0 *1 29.64,29.4
X$589 506 505 23 44 507 NAND2_X1
* cell instance $590 m0 *1 30.21,29.4
X$590 535 507 504 508 44 23 540 OAI22_X1
* cell instance $591 m0 *1 31.16,29.4
X$591 543 536 509 23 44 508 NAND3_X1
* cell instance $592 m0 *1 31.92,29.4
X$592 509 327 23 44 510 NOR2_X1
* cell instance $593 m0 *1 32.49,29.4
X$593 510 402 401 23 44 541 NOR3_X1
* cell instance $594 m0 *1 33.25,29.4
X$594 511 538 512 23 44 513 NAND3_X1
* cell instance $595 m0 *1 34.01,29.4
X$595 506 487 23 44 514 NAND2_X1
* cell instance $596 m0 *1 34.58,29.4
X$596 487 23 44 512 INV_X1
* cell instance $597 m0 *1 34.96,29.4
X$597 488 23 44 487 CLKBUF_X2
* cell instance $599 r0 *1 28.12,29.4
X$599 459 23 44 504 CLKBUF_X3
* cell instance $601 r0 *1 29.83,29.4
X$601 569 402 401 23 44 535 NOR3_X1
* cell instance $602 r0 *1 30.59,29.4
X$602 327 536 509 23 569 44 AOI21_X1
* cell instance $603 r0 *1 31.35,29.4
X$603 512 537 23 44 536 NOR2_X1
* cell instance $604 r0 *1 31.92,29.4
X$604 552 23 44 537 INV_X1
* cell instance $606 r0 *1 32.68,29.4
X$606 509 538 537 23 44 554 NAND3_X1
* cell instance $608 r0 *1 33.63,29.4
X$608 459 554 541 539 44 23 551 OAI22_X1
* cell instance $609 r0 *1 34.58,29.4
X$609 506 552 23 44 539 NAND2_X1
* cell instance $611 r0 *1 35.53,29.4
X$611 23 754 553 551 442 44 DFF_X1
* cell instance $612 m0 *1 39.33,29.4
X$612 515 44 505 23 BUF_X4
* cell instance $613 m0 *1 36.1,29.4
X$613 23 733 515 540 442 44 DFF_X1
* cell instance $615 r0 *1 38.76,29.4
X$615 553 23 44 552 BUF_X1
* cell instance $617 r0 *1 40.09,29.4
X$617 553 23 44 565 BUF_X1
* cell instance $619 m0 *1 1.33,40.6
X$619 288 23 44 697 BUF_X1
* cell instance $621 m0 *1 1.9,40.6
X$621 697 23 44 674 BUF_X1
* cell instance $622 m0 *1 2.47,40.6
X$622 288 23 44 699 BUF_X1
* cell instance $623 m0 *1 3.04,40.6
X$623 699 23 44 658 BUF_X1
* cell instance $625 m0 *1 3.8,40.6
X$625 288 23 44 700 BUF_X1
* cell instance $626 m0 *1 4.37,40.6
X$626 700 23 44 703 BUF_X1
* cell instance $627 m0 *1 4.94,40.6
X$627 675 23 44 704 BUF_X1
* cell instance $628 m0 *1 5.51,40.6
X$628 676 23 44 705 BUF_X1
* cell instance $629 m0 *1 6.08,40.6
X$629 677 23 44 706 BUF_X1
* cell instance $630 m0 *1 6.65,40.6
X$630 678 23 44 707 BUF_X1
* cell instance $631 m0 *1 7.22,40.6
X$631 288 23 44 701 BUF_X1
* cell instance $632 m0 *1 7.79,40.6
X$632 701 23 44 708 BUF_X1
* cell instance $633 m0 *1 8.36,40.6
X$633 679 23 44 709 BUF_X1
* cell instance $634 m0 *1 8.93,40.6
X$634 680 23 44 710 BUF_X1
* cell instance $635 m0 *1 9.5,40.6
X$635 681 23 44 711 BUF_X1
* cell instance $636 m0 *1 10.07,40.6
X$636 682 23 44 712 BUF_X1
* cell instance $637 m0 *1 10.64,40.6
X$637 683 23 44 713 BUF_X1
* cell instance $638 m0 *1 11.21,40.6
X$638 684 23 44 714 BUF_X1
* cell instance $639 m0 *1 11.78,40.6
X$639 685 23 44 715 BUF_X1
* cell instance $640 m0 *1 12.35,40.6
X$640 686 23 44 716 BUF_X1
* cell instance $641 m0 *1 12.92,40.6
X$641 687 23 44 717 BUF_X1
* cell instance $642 m0 *1 13.49,40.6
X$642 702 23 44 499 BUF_X1
* cell instance $645 m0 *1 15.77,40.6
X$645 546 23 44 718 BUF_X1
* cell instance $648 m0 *1 18.62,40.6
X$648 596 23 44 719 BUF_X1
* cell instance $649 m0 *1 19.19,40.6
X$649 614 23 44 720 BUF_X1
* cell instance $650 m0 *1 19.76,40.6
X$650 628 23 44 721 BUF_X1
* cell instance $652 m0 *1 21.85,40.6
X$652 695 23 44 722 BUF_X1
* cell instance $653 m0 *1 22.42,40.6
X$653 524 23 44 723 BUF_X1
* cell instance $656 m0 *1 25.27,40.6
X$656 698 23 44 724 BUF_X1
* cell instance $657 m0 *1 25.84,40.6
X$657 486 23 44 725 BUF_X1
* cell instance $659 m0 *1 26.6,40.6
X$659 698 23 44 575 CLKBUF_X2
* cell instance $665 m0 *1 1.33,37.8
X$665 659 23 44 634 BUF_X1
* cell instance $667 m0 *1 1.9,37.8
X$667 665 23 44 464 BUF_X1
* cell instance $668 m0 *1 2.47,37.8
X$668 636 23 44 660 BUF_X1
* cell instance $671 r0 *1 1.33,37.8
X$671 288 23 44 659 BUF_X1
* cell instance $672 r0 *1 1.9,37.8
X$672 288 23 44 636 BUF_X1
* cell instance $673 r0 *1 2.47,37.8
X$673 288 23 44 691 BUF_X1
* cell instance $677 r0 *1 3.04,37.8
X$677 691 23 44 673 BUF_X1
* cell instance $678 m0 *1 3.99,37.8
X$678 666 23 44 633 BUF_X1
* cell instance $679 m0 *1 3.42,37.8
X$679 288 23 44 666 BUF_X1
* cell instance $680 m0 *1 4.56,37.8
X$680 637 23 44 635 BUF_X1
* cell instance $684 r0 *1 3.8,37.8
X$684 690 23 44 545 BUF_X1
* cell instance $685 r0 *1 4.37,37.8
X$685 288 23 44 675 BUF_X1
* cell instance $686 r0 *1 4.94,37.8
X$686 288 23 44 676 BUF_X1
* cell instance $687 r0 *1 5.51,37.8
X$687 288 23 44 677 BUF_X1
* cell instance $688 r0 *1 6.08,37.8
X$688 288 23 44 678 BUF_X1
* cell instance $689 m0 *1 6.84,37.8
X$689 288 23 44 693 BUF_X1
* cell instance $690 m0 *1 6.27,37.8
X$690 288 23 44 692 BUF_X1
* cell instance $694 r0 *1 6.65,37.8
X$694 692 23 44 657 BUF_X1
* cell instance $695 r0 *1 7.22,37.8
X$695 693 23 44 694 BUF_X1
* cell instance $696 r0 *1 7.79,37.8
X$696 288 23 44 679 BUF_X1
* cell instance $697 r0 *1 8.36,37.8
X$697 288 23 44 680 BUF_X1
* cell instance $698 r0 *1 8.93,37.8
X$698 288 23 44 681 BUF_X1
* cell instance $699 r0 *1 9.5,37.8
X$699 288 23 44 682 BUF_X1
* cell instance $700 r0 *1 10.07,37.8
X$700 288 23 44 683 BUF_X1
* cell instance $701 r0 *1 10.64,37.8
X$701 288 23 44 684 BUF_X1
* cell instance $702 r0 *1 11.21,37.8
X$702 288 23 44 685 BUF_X1
* cell instance $703 r0 *1 11.78,37.8
X$703 288 23 44 686 BUF_X1
* cell instance $704 r0 *1 12.35,37.8
X$704 288 23 44 687 BUF_X1
* cell instance $705 r0 *1 12.92,37.8
X$705 23 761 596 667 305 44 DFF_X1
* cell instance $706 m0 *1 15.58,37.8
X$706 504 616 668 638 44 23 667 OAI22_X1
* cell instance $711 r0 *1 16.34,37.8
X$711 23 752 628 661 305 44 DFF_X1
* cell instance $712 m0 *1 17.86,37.8
X$712 504 669 639 670 44 23 661 OAI22_X1
* cell instance $717 r0 *1 19.76,37.8
X$717 23 758 695 671 442 44 DFF_X1
* cell instance $718 m0 *1 20.9,37.8
X$718 504 656 672 641 44 23 671 OAI22_X1
* cell instance $720 m0 *1 21.85,37.8
X$720 506 608 23 44 641 NAND2_X1
* cell instance $722 m0 *1 22.61,37.8
X$722 695 23 44 608 CLKBUF_X2
* cell instance $724 m0 *1 23.56,37.8
X$724 504 610 643 644 44 23 696 OAI22_X1
* cell instance $725 m0 *1 24.51,37.8
X$725 506 575 23 44 644 NAND2_X1
* cell instance $727 m0 *1 26.6,37.8
X$727 504 645 629 646 44 23 662 OAI22_X1
* cell instance $729 m0 *1 27.74,37.8