* CDL Netlist generated by OpenROAD

*.BUSDELIMITER [

.SUBCKT credit_based_fifo clk credit_return credits_available[0]
+ credits_available[1] credits_available[2] credits_available[3]
+ credits_available[4] data_in[0] data_in[1] data_in[2] data_in[3]
+ data_in[4] data_in[5] data_in[6] data_in[7] data_out[0] data_out[1]
+ data_out[2] data_out[3] data_out[4] data_out[5] data_out[6]
+ data_out[7] empty fifo_level[0] fifo_level[1] fifo_level[2]
+ fifo_level[3] fifo_level[4] full ready_in ready_out rst_n
+ valid_in valid_out
X_468_ _467_ net28 VDD VSS gf180mcu_fd_sc_mcu9t5v0__clkinv_2
X_469_ write_ptr\[4\] read_ptr\[4\] _157_ VDD VSS gf180mcu_fd_sc_mcu9t5v0__xnor2_2
X_470_ _444_ _433_ _428_ _158_ VDD VSS gf180mcu_fd_sc_mcu9t5v0__and3_2
X_471_ _444_ _432_ _443_ _158_ _159_ VDD VSS gf180mcu_fd_sc_mcu9t5v0__aoi211_2
X_472_ _157_ _159_ _160_ VDD VSS gf180mcu_fd_sc_mcu9t5v0__xor2_2
X_473_ _160_ _161_ VDD VSS gf180mcu_fd_sc_mcu9t5v0__buf_4
X_474_ _161_ net32 VDD VSS gf180mcu_fd_sc_mcu9t5v0__clkinv_2
X_475_ _444_ _162_ VDD VSS gf180mcu_fd_sc_mcu9t5v0__clkinv_2
X_476_ _433_ _428_ net30 VDD VSS gf180mcu_fd_sc_mcu9t5v0__xor2_2
X_477_ _162_ net28 net29 net30 _163_ VDD VSS gf180mcu_fd_sc_mcu9t5v0__nand4_2
X_478_ _444_ net28 net29 net30 _164_ VDD VSS gf180mcu_fd_sc_mcu9t5v0__nand4_2
X_479_ _433_ _434_ _165_ VDD VSS gf180mcu_fd_sc_mcu9t5v0__and2_2
X_480_ _466_ _427_ VDD VSS gf180mcu_fd_sc_mcu9t5v0__clkinv_2
X_481_ _433_ _441_ _165_ _427_ _432_ _166_ VDD VSS gf180mcu_fd_sc_mcu9t5v0__aoi221_4
X_482_ _163_ _164_ _166_ _167_ VDD VSS gf180mcu_fd_sc_mcu9t5v0__mux2_2
X_483_ _167_ _168_ VDD VSS gf180mcu_fd_sc_mcu9t5v0__clkbuf_8
X_484_ _161_ _168_ net33 VDD VSS gf180mcu_fd_sc_mcu9t5v0__nand2_2
X_485_ net13 _169_ VDD VSS gf180mcu_fd_sc_mcu9t5v0__buf_2
X_486_ _160_ _170_ VDD VSS gf180mcu_fd_sc_mcu9t5v0__buf_4
X_487_ _167_ _171_ VDD VSS gf180mcu_fd_sc_mcu9t5v0__clkbuf_8
X_488_ net17 net18 net16 net15 _172_ VDD VSS gf180mcu_fd_sc_mcu9t5v0__or4_2
X_489_ net14 _172_ _173_ VDD VSS gf180mcu_fd_sc_mcu9t5v0__or2_4
X_490_ _173_ _174_ VDD VSS gf180mcu_fd_sc_mcu9t5v0__clkbuf_4
X_491_ _169_ _170_ _171_ _174_ _436_ VDD VSS gf180mcu_fd_sc_mcu9t5v0__and4_2
X_492_ _436_ _438_ VDD VSS gf180mcu_fd_sc_mcu9t5v0__clkinv_2
X_493_ _444_ _433_ _434_ _467_ _175_ VDD VSS gf180mcu_fd_sc_mcu9t5v0__and4_2
X_494_ _157_ _175_ net27 VDD VSS gf180mcu_fd_sc_mcu9t5v0__and2_2
X_495_ read_ptr\[2\] _176_ VDD VSS gf180mcu_fd_sc_mcu9t5v0__inv_4
X_496_ _176_ _431_ VDD VSS gf180mcu_fd_sc_mcu9t5v0__clkbuf_8
X_497_ net2 _435_ VDD VSS gf180mcu_fd_sc_mcu9t5v0__clkinv_2
X_498_ read_ptr\[3\] _177_ VDD VSS gf180mcu_fd_sc_mcu9t5v0__clkinv_2
X_499_ _177_ _442_ VDD VSS gf180mcu_fd_sc_mcu9t5v0__clkbuf_8
X_500_ read_ptr\[0\] _002_ VDD VSS gf180mcu_fd_sc_mcu9t5v0__inv_2
X_501_ write_ptr\[0\] _000_ VDD VSS gf180mcu_fd_sc_mcu9t5v0__inv_2
X_502_ read_ptr\[1\] _426_ VDD VSS gf180mcu_fd_sc_mcu9t5v0__clkinv_4
X_503_ write_ptr\[1\] _452_ VDD VSS gf180mcu_fd_sc_mcu9t5v0__clkinv_2
X_504_ _429_ _178_ VDD VSS gf180mcu_fd_sc_mcu9t5v0__clkinv_2
X_505_ net18 _439_ _437_ _179_ VDD VSS gf180mcu_fd_sc_mcu9t5v0__aoi21_2
X_506_ _178_ _173_ _179_ _180_ VDD VSS gf180mcu_fd_sc_mcu9t5v0__oai21_4
X_507_ net14 _180_ _005_ VDD VSS gf180mcu_fd_sc_mcu9t5v0__xnor2_2
X_508_ _004_ net15 _180_ _006_ VDD VSS gf180mcu_fd_sc_mcu9t5v0__mux2_2
X_509_ _430_ _463_ _181_ VDD VSS gf180mcu_fd_sc_mcu9t5v0__xor2_2
X_510_ _181_ net16 _180_ _007_ VDD VSS gf180mcu_fd_sc_mcu9t5v0__mux2_2
X_511_ net14 _461_ _182_ VDD VSS gf180mcu_fd_sc_mcu9t5v0__and2_2
X_512_ _460_ _182_ _183_ VDD VSS gf180mcu_fd_sc_mcu9t5v0__or2_2
X_513_ _463_ _183_ _462_ _184_ VDD VSS gf180mcu_fd_sc_mcu9t5v0__aoi21_2
X_514_ _465_ _184_ _185_ VDD VSS gf180mcu_fd_sc_mcu9t5v0__xnor2_2
X_515_ _185_ net17 _180_ _008_ VDD VSS gf180mcu_fd_sc_mcu9t5v0__mux2_2
X_516_ _465_ _186_ VDD VSS gf180mcu_fd_sc_mcu9t5v0__clkinv_2
X_517_ _430_ _463_ _462_ _187_ VDD VSS gf180mcu_fd_sc_mcu9t5v0__aoi21_2
X_518_ _464_ _188_ VDD VSS gf180mcu_fd_sc_mcu9t5v0__clkinv_2
X_519_ _186_ _187_ _188_ _189_ VDD VSS gf180mcu_fd_sc_mcu9t5v0__oai21_2
X_520_ _429_ _189_ _190_ VDD VSS gf180mcu_fd_sc_mcu9t5v0__xnor2_2
X_521_ _180_ _190_ _191_ VDD VSS gf180mcu_fd_sc_mcu9t5v0__or2_2
X_522_ net18 _191_ _009_ VDD VSS gf180mcu_fd_sc_mcu9t5v0__xnor2_2
X_523_ _450_ _192_ VDD VSS gf180mcu_fd_sc_mcu9t5v0__buf_8
X_524_ _192_ _193_ VDD VSS gf180mcu_fd_sc_mcu9t5v0__clkbuf_8
X_525_ read_ptr\[2\] _194_ VDD VSS gf180mcu_fd_sc_mcu9t5v0__clkbuf_8
X_526_ mem\[3\]\[0\] mem\[7\]\[0\] _194_ _195_ VDD VSS gf180mcu_fd_sc_mcu9t5v0__mux2_2
X_527_ _176_ mem\[11\]\[0\] _196_ VDD VSS gf180mcu_fd_sc_mcu9t5v0__and2_2
X_528_ read_ptr\[3\] _197_ VDD VSS gf180mcu_fd_sc_mcu9t5v0__clkbuf_8
X_529_ _197_ _198_ VDD VSS gf180mcu_fd_sc_mcu9t5v0__buf_4
X_530_ _195_ _196_ _198_ _199_ VDD VSS gf180mcu_fd_sc_mcu9t5v0__mux2_2
X_531_ _448_ _200_ VDD VSS gf180mcu_fd_sc_mcu9t5v0__clkbuf_8
X_532_ mem\[13\]\[0\] _200_ _201_ VDD VSS gf180mcu_fd_sc_mcu9t5v0__nand2_2
X_533_ _445_ _202_ VDD VSS gf180mcu_fd_sc_mcu9t5v0__clkbuf_8
X_534_ mem\[4\]\[0\] _202_ _203_ VDD VSS gf180mcu_fd_sc_mcu9t5v0__nand2_2
X_535_ _177_ _204_ VDD VSS gf180mcu_fd_sc_mcu9t5v0__clkbuf_8
X_536_ _201_ _203_ _204_ _205_ VDD VSS gf180mcu_fd_sc_mcu9t5v0__mux2_2
X_537_ read_ptr\[2\] _206_ VDD VSS gf180mcu_fd_sc_mcu9t5v0__clkbuf_8
X_538_ _197_ _206_ _445_ _207_ VDD VSS gf180mcu_fd_sc_mcu9t5v0__oai21_2
X_539_ _192_ _446_ _448_ _208_ VDD VSS gf180mcu_fd_sc_mcu9t5v0__nor3_4
X_540_ _207_ _208_ _209_ VDD VSS gf180mcu_fd_sc_mcu9t5v0__nand2_4
X_541_ _448_ _210_ VDD VSS gf180mcu_fd_sc_mcu9t5v0__clkbuf_8
X_542_ _210_ _211_ VDD VSS gf180mcu_fd_sc_mcu9t5v0__clkbuf_8
X_543_ mem\[1\]\[0\] mem\[5\]\[0\] _206_ _212_ VDD VSS gf180mcu_fd_sc_mcu9t5v0__mux2_2
X_544_ _442_ _211_ _212_ _213_ VDD VSS gf180mcu_fd_sc_mcu9t5v0__nand3_2
X_545_ _431_ _205_ _209_ _213_ _214_ VDD VSS gf180mcu_fd_sc_mcu9t5v0__oai211_2
X_546_ _446_ _215_ VDD VSS gf180mcu_fd_sc_mcu9t5v0__clkbuf_8
X_547_ _192_ mem\[15\]\[0\] mem\[14\]\[0\] _215_ _216_ VDD
+ VSS gf180mcu_fd_sc_mcu9t5v0__aoi22_2
X_548_ mem\[10\]\[0\] _215_ _210_ mem\[9\]\[0\] _217_ VDD
+ VSS gf180mcu_fd_sc_mcu9t5v0__aoi22_2
X_549_ _216_ _217_ _176_ _218_ VDD VSS gf180mcu_fd_sc_mcu9t5v0__mux2_2
X_550_ _445_ _219_ VDD VSS gf180mcu_fd_sc_mcu9t5v0__buf_4
X_551_ mem\[8\]\[0\] mem\[12\]\[0\] _206_ _220_ VDD VSS gf180mcu_fd_sc_mcu9t5v0__mux2_2
X_552_ _219_ _220_ _442_ _221_ VDD VSS gf180mcu_fd_sc_mcu9t5v0__aoi21_2
X_553_ _215_ _222_ VDD VSS gf180mcu_fd_sc_mcu9t5v0__clkbuf_8
X_554_ mem\[2\]\[0\] mem\[6\]\[0\] _206_ _223_ VDD VSS gf180mcu_fd_sc_mcu9t5v0__mux2_2
X_555_ _222_ _223_ _224_ VDD VSS gf180mcu_fd_sc_mcu9t5v0__nand2_2
X_556_ _218_ _221_ _224_ _442_ _225_ VDD VSS gf180mcu_fd_sc_mcu9t5v0__aoi22_2
X_557_ _193_ _199_ _214_ _225_ _226_ VDD VSS gf180mcu_fd_sc_mcu9t5v0__aoi211_4
X_558_ _209_ _227_ VDD VSS gf180mcu_fd_sc_mcu9t5v0__buf_4
X_559_ net11 _228_ VDD VSS gf180mcu_fd_sc_mcu9t5v0__inv_2
X_560_ net35 _228_ _157_ _175_ _229_ VDD VSS gf180mcu_fd_sc_mcu9t5v0__aoi22_4
X_561_ net12 _229_ _230_ VDD VSS gf180mcu_fd_sc_mcu9t5v0__and2_2
X_562_ _230_ _231_ VDD VSS gf180mcu_fd_sc_mcu9t5v0__buf_4
X_563_ mem\[0\]\[0\] _227_ _231_ _232_ VDD VSS gf180mcu_fd_sc_mcu9t5v0__oai21_2
X_564_ net12 _229_ _233_ VDD VSS gf180mcu_fd_sc_mcu9t5v0__nand2_4
X_565_ net19 _233_ _234_ VDD VSS gf180mcu_fd_sc_mcu9t5v0__nand2_2
X_566_ _226_ _232_ _234_ _010_ VDD VSS gf180mcu_fd_sc_mcu9t5v0__oai21_2
X_567_ _446_ _235_ VDD VSS gf180mcu_fd_sc_mcu9t5v0__clkbuf_8
X_568_ mem\[2\]\[1\] _235_ _200_ mem\[1\]\[1\] _236_ VDD VSS
+ gf180mcu_fd_sc_mcu9t5v0__aoi22_2
X_569_ mem\[6\]\[1\] _235_ _200_ mem\[5\]\[1\] _237_ VDD VSS
+ gf180mcu_fd_sc_mcu9t5v0__aoi22_2
X_570_ mem\[10\]\[1\] _222_ _238_ VDD VSS gf180mcu_fd_sc_mcu9t5v0__nand2_2
X_571_ _192_ _239_ VDD VSS gf180mcu_fd_sc_mcu9t5v0__clkbuf_8
X_572_ _239_ mem\[15\]\[1\] mem\[13\]\[1\] _200_ _240_ VDD
+ VSS gf180mcu_fd_sc_mcu9t5v0__aoi22_2
X_573_ _236_ _237_ _238_ _240_ _194_ _198_ _241_ VDD VSS gf180mcu_fd_sc_mcu9t5v0__mux4_2
X_574_ _197_ _206_ _242_ VDD VSS gf180mcu_fd_sc_mcu9t5v0__nor2_4
X_575_ _193_ mem\[3\]\[1\] _242_ _243_ VDD VSS gf180mcu_fd_sc_mcu9t5v0__nand3_2
X_576_ _197_ _194_ mem\[14\]\[1\] _222_ _244_ VDD VSS gf180mcu_fd_sc_mcu9t5v0__nand4_2
X_577_ _209_ _243_ _244_ _245_ VDD VSS gf180mcu_fd_sc_mcu9t5v0__and3_2
X_578_ _204_ _194_ mem\[7\]\[1\] _246_ VDD VSS gf180mcu_fd_sc_mcu9t5v0__and3_2
X_579_ _197_ _176_ mem\[11\]\[1\] _247_ VDD VSS gf180mcu_fd_sc_mcu9t5v0__and3_2
X_580_ _246_ _247_ _193_ _248_ VDD VSS gf180mcu_fd_sc_mcu9t5v0__oai21_2
X_581_ mem\[8\]\[1\] _202_ _210_ mem\[9\]\[1\] _249_ VDD VSS
+ gf180mcu_fd_sc_mcu9t5v0__aoi22_2
X_582_ _204_ _194_ _249_ _250_ VDD VSS gf180mcu_fd_sc_mcu9t5v0__or3_2
X_583_ _206_ _251_ VDD VSS gf180mcu_fd_sc_mcu9t5v0__buf_4
X_584_ mem\[4\]\[1\] mem\[12\]\[1\] _197_ _252_ VDD VSS gf180mcu_fd_sc_mcu9t5v0__mux2_2
X_585_ _251_ _219_ _252_ _253_ VDD VSS gf180mcu_fd_sc_mcu9t5v0__nand3_2
X_586_ _250_ _253_ _254_ VDD VSS gf180mcu_fd_sc_mcu9t5v0__and2_2
X_587_ _241_ _245_ _248_ _254_ _255_ VDD VSS gf180mcu_fd_sc_mcu9t5v0__and4_2
X_588_ mem\[0\]\[1\] _227_ _231_ _256_ VDD VSS gf180mcu_fd_sc_mcu9t5v0__oai21_2
X_589_ net20 _233_ _257_ VDD VSS gf180mcu_fd_sc_mcu9t5v0__nand2_2
X_590_ _255_ _256_ _257_ _011_ VDD VSS gf180mcu_fd_sc_mcu9t5v0__oai21_2
X_591_ _227_ _231_ _258_ VDD VSS gf180mcu_fd_sc_mcu9t5v0__nand2_2
X_592_ _239_ mem\[7\]\[2\] mem\[4\]\[2\] _202_ _259_ VDD VSS
+ gf180mcu_fd_sc_mcu9t5v0__aoi22_2
X_593_ mem\[6\]\[2\] _235_ _200_ mem\[5\]\[2\] _260_ VDD VSS
+ gf180mcu_fd_sc_mcu9t5v0__aoi22_2
X_594_ _259_ _260_ _261_ VDD VSS gf180mcu_fd_sc_mcu9t5v0__and2_2
X_595_ _193_ mem\[3\]\[2\] mem\[2\]\[2\] _222_ _211_ mem\[1\]\[2\]
+ _262_ VDD VSS gf180mcu_fd_sc_mcu9t5v0__aoi222_2
X_596_ _239_ mem\[15\]\[2\] mem\[12\]\[2\] _202_ _263_ VDD
+ VSS gf180mcu_fd_sc_mcu9t5v0__aoi22_2
X_597_ mem\[14\]\[2\] _235_ _200_ mem\[13\]\[2\] _264_ VDD
+ VSS gf180mcu_fd_sc_mcu9t5v0__aoi22_2
X_598_ _263_ _264_ _265_ VDD VSS gf180mcu_fd_sc_mcu9t5v0__and2_2
X_599_ mem\[10\]\[2\] _235_ _200_ mem\[9\]\[2\] _266_ VDD
+ VSS gf180mcu_fd_sc_mcu9t5v0__aoi22_2
X_600_ _239_ mem\[11\]\[2\] mem\[8\]\[2\] _202_ _267_ VDD
+ VSS gf180mcu_fd_sc_mcu9t5v0__aoi22_2
X_601_ _266_ _267_ _268_ VDD VSS gf180mcu_fd_sc_mcu9t5v0__and2_2
X_602_ _261_ _262_ _265_ _268_ _431_ _198_ _269_ VDD VSS gf180mcu_fd_sc_mcu9t5v0__mux4_2
X_603_ net21 _233_ _270_ VDD VSS gf180mcu_fd_sc_mcu9t5v0__nand2_2
X_604_ mem\[0\]\[2\] _207_ _208_ _231_ _271_ VDD VSS gf180mcu_fd_sc_mcu9t5v0__nand4_2
X_605_ _258_ _269_ _270_ _271_ _012_ VDD VSS gf180mcu_fd_sc_mcu9t5v0__oai211_2
X_606_ _239_ mem\[15\]\[3\] mem\[12\]\[3\] _202_ _272_ VDD
+ VSS gf180mcu_fd_sc_mcu9t5v0__aoi22_2
X_607_ mem\[14\]\[3\] _235_ _200_ mem\[13\]\[3\] _273_ VDD
+ VSS gf180mcu_fd_sc_mcu9t5v0__aoi22_2
X_608_ _272_ _273_ _274_ VDD VSS gf180mcu_fd_sc_mcu9t5v0__nand2_2
X_609_ mem\[8\]\[3\] _219_ _275_ VDD VSS gf180mcu_fd_sc_mcu9t5v0__and2_2
X_610_ _274_ _275_ _431_ _276_ VDD VSS gf180mcu_fd_sc_mcu9t5v0__mux2_2
X_611_ _193_ mem\[7\]\[3\] mem\[6\]\[3\] _222_ _277_ VDD VSS
+ gf180mcu_fd_sc_mcu9t5v0__aoi22_2
X_612_ mem\[4\]\[3\] _219_ _211_ mem\[5\]\[3\] _278_ VDD VSS
+ gf180mcu_fd_sc_mcu9t5v0__aoi22_2
X_613_ _277_ _278_ _198_ _431_ _279_ VDD VSS gf180mcu_fd_sc_mcu9t5v0__aoi211_2
X_614_ _198_ _276_ _279_ _280_ VDD VSS gf180mcu_fd_sc_mcu9t5v0__aoi21_2
X_615_ _192_ mem\[11\]\[3\] mem\[10\]\[3\] _215_ _210_ mem\[9\]\[3\]
+ _281_ VDD VSS gf180mcu_fd_sc_mcu9t5v0__aoi222_2
X_616_ _192_ mem\[3\]\[3\] mem\[2\]\[3\] _446_ _210_ mem\[1\]\[3\]
+ _282_ VDD VSS gf180mcu_fd_sc_mcu9t5v0__aoi222_2
X_617_ _281_ _282_ _204_ _283_ VDD VSS gf180mcu_fd_sc_mcu9t5v0__mux2_2
X_618_ _251_ _283_ _284_ VDD VSS gf180mcu_fd_sc_mcu9t5v0__or2_2
X_619_ _227_ _231_ _284_ _285_ VDD VSS gf180mcu_fd_sc_mcu9t5v0__and3_2
X_620_ net22 _233_ _286_ VDD VSS gf180mcu_fd_sc_mcu9t5v0__nand2_2
X_621_ mem\[0\]\[3\] _227_ _231_ _287_ VDD VSS gf180mcu_fd_sc_mcu9t5v0__oai21_2
X_622_ _280_ _285_ _286_ _287_ _013_ VDD VSS gf180mcu_fd_sc_mcu9t5v0__aoi22_2
X_623_ _251_ mem\[4\]\[4\] _219_ _288_ VDD VSS gf180mcu_fd_sc_mcu9t5v0__and3_2
X_624_ _431_ _239_ mem\[3\]\[4\] _289_ VDD VSS gf180mcu_fd_sc_mcu9t5v0__and3_2
X_625_ _288_ _289_ _290_ VDD VSS gf180mcu_fd_sc_mcu9t5v0__or2_2
X_626_ _193_ mem\[11\]\[4\] mem\[9\]\[4\] _211_ _291_ VDD
+ VSS gf180mcu_fd_sc_mcu9t5v0__aoi22_2
X_627_ mem\[10\]\[4\] _222_ _251_ _292_ VDD VSS gf180mcu_fd_sc_mcu9t5v0__aoi21_2
X_628_ _193_ mem\[15\]\[4\] mem\[13\]\[4\] _211_ _293_ VDD
+ VSS gf180mcu_fd_sc_mcu9t5v0__aoi22_2
X_629_ mem\[12\]\[4\] _219_ _431_ _294_ VDD VSS gf180mcu_fd_sc_mcu9t5v0__aoi21_2
X_630_ _291_ _292_ _293_ _294_ _442_ _295_ VDD VSS gf180mcu_fd_sc_mcu9t5v0__aoi221_4
X_631_ mem\[1\]\[4\] _211_ _242_ _296_ VDD VSS gf180mcu_fd_sc_mcu9t5v0__nand3_2
X_632_ _192_ mem\[7\]\[4\] mem\[6\]\[4\] _215_ _297_ VDD VSS
+ gf180mcu_fd_sc_mcu9t5v0__aoi22_2
X_633_ _197_ _176_ _297_ _298_ VDD VSS gf180mcu_fd_sc_mcu9t5v0__or3_2
X_634_ mem\[14\]\[4\] _215_ _299_ VDD VSS gf180mcu_fd_sc_mcu9t5v0__nand2_2
X_635_ mem\[5\]\[4\] _210_ _300_ VDD VSS gf180mcu_fd_sc_mcu9t5v0__nand2_2
X_636_ mem\[8\]\[4\] _202_ _301_ VDD VSS gf180mcu_fd_sc_mcu9t5v0__nand2_2
X_637_ mem\[2\]\[4\] _215_ _302_ VDD VSS gf180mcu_fd_sc_mcu9t5v0__nand2_2
X_638_ _299_ _300_ _301_ _302_ _204_ _176_ _303_ VDD VSS gf180mcu_fd_sc_mcu9t5v0__mux4_2
X_639_ _209_ _296_ _298_ _303_ _304_ VDD VSS gf180mcu_fd_sc_mcu9t5v0__nand4_2
X_640_ _442_ _290_ _295_ _304_ _305_ VDD VSS gf180mcu_fd_sc_mcu9t5v0__aoi211_4
X_641_ mem\[0\]\[4\] _227_ _231_ _306_ VDD VSS gf180mcu_fd_sc_mcu9t5v0__oai21_2
X_642_ net23 _233_ _307_ VDD VSS gf180mcu_fd_sc_mcu9t5v0__nand2_2
X_643_ _305_ _306_ _307_ _014_ VDD VSS gf180mcu_fd_sc_mcu9t5v0__oai21_2
X_644_ mem\[10\]\[5\] _215_ _210_ mem\[9\]\[5\] _308_ VDD
+ VSS gf180mcu_fd_sc_mcu9t5v0__aoi22_2
X_645_ _204_ _194_ _308_ _309_ VDD VSS gf180mcu_fd_sc_mcu9t5v0__or3_2
X_646_ _197_ _206_ _310_ VDD VSS gf180mcu_fd_sc_mcu9t5v0__nand2_2
X_647_ mem\[14\]\[5\] _215_ _210_ mem\[13\]\[5\] _311_ VDD
+ VSS gf180mcu_fd_sc_mcu9t5v0__aoi22_2
X_648_ _310_ _311_ _312_ VDD VSS gf180mcu_fd_sc_mcu9t5v0__or2_2
X_649_ _204_ _194_ mem\[6\]\[5\] _222_ _313_ VDD VSS gf180mcu_fd_sc_mcu9t5v0__nand4_2
X_650_ _209_ _309_ _312_ _313_ _314_ VDD VSS gf180mcu_fd_sc_mcu9t5v0__and4_2
X_651_ _198_ _251_ mem\[15\]\[5\] _315_ VDD VSS gf180mcu_fd_sc_mcu9t5v0__and3_2
X_652_ mem\[3\]\[5\] _242_ _316_ VDD VSS gf180mcu_fd_sc_mcu9t5v0__and2_2
X_653_ _315_ _316_ _193_ _317_ VDD VSS gf180mcu_fd_sc_mcu9t5v0__oai21_2
X_654_ mem\[12\]\[5\] _202_ _318_ VDD VSS gf180mcu_fd_sc_mcu9t5v0__nand2_2
X_655_ _239_ mem\[7\]\[5\] _319_ VDD VSS gf180mcu_fd_sc_mcu9t5v0__nand2_2
X_656_ mem\[8\]\[5\] _202_ _320_ VDD VSS gf180mcu_fd_sc_mcu9t5v0__nand2_2
X_657_ mem\[2\]\[5\] _235_ _321_ VDD VSS gf180mcu_fd_sc_mcu9t5v0__nand2_2
X_658_ _318_ _319_ _320_ _321_ _204_ _431_ _322_ VDD VSS gf180mcu_fd_sc_mcu9t5v0__mux4_2
X_659_ mem\[1\]\[5\] mem\[5\]\[5\] _206_ _323_ VDD VSS gf180mcu_fd_sc_mcu9t5v0__mux2_2
X_660_ _211_ _323_ _324_ VDD VSS gf180mcu_fd_sc_mcu9t5v0__and2_2
X_661_ _206_ mem\[4\]\[5\] _445_ _325_ VDD VSS gf180mcu_fd_sc_mcu9t5v0__and3_2
X_662_ _197_ _325_ _326_ VDD VSS gf180mcu_fd_sc_mcu9t5v0__or2_2
X_663_ _176_ _239_ mem\[11\]\[5\] _327_ VDD VSS gf180mcu_fd_sc_mcu9t5v0__and3_2
X_664_ _324_ _326_ _327_ _442_ _328_ VDD VSS gf180mcu_fd_sc_mcu9t5v0__oai22_2
X_665_ _314_ _317_ _322_ _328_ _329_ VDD VSS gf180mcu_fd_sc_mcu9t5v0__and4_2
X_666_ mem\[0\]\[5\] _227_ _231_ _330_ VDD VSS gf180mcu_fd_sc_mcu9t5v0__oai21_2
X_667_ net24 _233_ _331_ VDD VSS gf180mcu_fd_sc_mcu9t5v0__nand2_2
X_668_ _329_ _330_ _331_ _015_ VDD VSS gf180mcu_fd_sc_mcu9t5v0__oai21_2
X_669_ _442_ _251_ mem\[4\]\[6\] _219_ _332_ VDD VSS gf180mcu_fd_sc_mcu9t5v0__nand4_2
X_670_ _209_ _332_ _333_ VDD VSS gf180mcu_fd_sc_mcu9t5v0__and2_2
X_671_ _251_ mem\[13\]\[6\] _211_ _334_ VDD VSS gf180mcu_fd_sc_mcu9t5v0__and3_2
X_672_ _431_ mem\[8\]\[6\] _219_ _335_ VDD VSS gf180mcu_fd_sc_mcu9t5v0__and3_2
X_673_ _334_ _335_ _198_ _336_ VDD VSS gf180mcu_fd_sc_mcu9t5v0__oai21_2
X_674_ mem\[14\]\[6\] _222_ _337_ VDD VSS gf180mcu_fd_sc_mcu9t5v0__nand2_2
X_675_ _239_ mem\[7\]\[6\] _338_ VDD VSS gf180mcu_fd_sc_mcu9t5v0__nand2_2
X_676_ mem\[10\]\[6\] _235_ _339_ VDD VSS gf180mcu_fd_sc_mcu9t5v0__nand2_2
X_677_ _239_ mem\[3\]\[6\] _340_ VDD VSS gf180mcu_fd_sc_mcu9t5v0__nand2_2
X_678_ _337_ _338_ _339_ _340_ _204_ _431_ _341_ VDD VSS gf180mcu_fd_sc_mcu9t5v0__mux4_2
X_679_ _192_ mem\[15\]\[6\] mem\[12\]\[6\] _202_ _342_ VDD
+ VSS gf180mcu_fd_sc_mcu9t5v0__aoi22_2
X_680_ _192_ mem\[11\]\[6\] mem\[9\]\[6\] _200_ _343_ VDD
+ VSS gf180mcu_fd_sc_mcu9t5v0__aoi22_2
X_681_ mem\[6\]\[6\] _235_ _210_ mem\[5\]\[6\] _344_ VDD VSS
+ gf180mcu_fd_sc_mcu9t5v0__aoi22_2
X_682_ mem\[2\]\[6\] _235_ _200_ mem\[1\]\[6\] _345_ VDD VSS
+ gf180mcu_fd_sc_mcu9t5v0__aoi22_2
X_683_ _342_ _343_ _344_ _345_ _176_ _442_ _346_ VDD VSS gf180mcu_fd_sc_mcu9t5v0__mux4_2
X_684_ _333_ _336_ _341_ _346_ _347_ VDD VSS gf180mcu_fd_sc_mcu9t5v0__and4_2
X_685_ mem\[0\]\[6\] _227_ _231_ _348_ VDD VSS gf180mcu_fd_sc_mcu9t5v0__oai21_2
X_686_ net25 _233_ _349_ VDD VSS gf180mcu_fd_sc_mcu9t5v0__nand2_2
X_687_ _347_ _348_ _349_ _016_ VDD VSS gf180mcu_fd_sc_mcu9t5v0__oai21_2
X_688_ net26 _233_ _350_ VDD VSS gf180mcu_fd_sc_mcu9t5v0__nand2_2
X_689_ mem\[0\]\[7\] _227_ _231_ _351_ VDD VSS gf180mcu_fd_sc_mcu9t5v0__oai21_2
X_690_ mem\[11\]\[7\] mem\[15\]\[7\] _206_ _352_ VDD VSS gf180mcu_fd_sc_mcu9t5v0__mux2_2
X_691_ mem\[3\]\[7\] _242_ _352_ _198_ _353_ VDD VSS gf180mcu_fd_sc_mcu9t5v0__aoi22_2
X_692_ _353_ _354_ VDD VSS gf180mcu_fd_sc_mcu9t5v0__clkinv_2
X_693_ mem\[4\]\[7\] _219_ _355_ VDD VSS gf180mcu_fd_sc_mcu9t5v0__nand2_2
X_694_ mem\[2\]\[7\] _222_ _211_ mem\[1\]\[7\] _194_ _356_
+ VDD VSS gf180mcu_fd_sc_mcu9t5v0__aoi221_2
X_695_ _251_ _355_ _356_ _198_ _357_ VDD VSS gf180mcu_fd_sc_mcu9t5v0__aoi211_2
X_696_ _198_ _251_ mem\[14\]\[7\] _222_ _358_ VDD VSS gf180mcu_fd_sc_mcu9t5v0__and4_2
X_697_ _193_ _354_ _357_ _358_ _359_ VDD VSS gf180mcu_fd_sc_mcu9t5v0__aoi211_2
X_698_ _192_ mem\[7\]\[7\] mem\[6\]\[7\] _446_ _448_ mem\[5\]\[7\]
+ _360_ VDD VSS gf180mcu_fd_sc_mcu9t5v0__aoi222_2
X_699_ _197_ _176_ _360_ _361_ VDD VSS gf180mcu_fd_sc_mcu9t5v0__or3_2
X_700_ mem\[10\]\[7\] _215_ _210_ mem\[9\]\[7\] mem\[8\]\[7\]
+ _445_ _362_ VDD VSS gf180mcu_fd_sc_mcu9t5v0__aoi222_2
X_701_ _204_ _194_ _362_ _363_ VDD VSS gf180mcu_fd_sc_mcu9t5v0__or3_2
X_702_ _361_ _363_ _364_ VDD VSS gf180mcu_fd_sc_mcu9t5v0__and2_2
X_703_ mem\[12\]\[7\] _219_ _211_ mem\[13\]\[7\] _365_ VDD
+ VSS gf180mcu_fd_sc_mcu9t5v0__aoi22_2
X_704_ _310_ _365_ _366_ VDD VSS gf180mcu_fd_sc_mcu9t5v0__or2_2
X_705_ _227_ _230_ _364_ _366_ _367_ VDD VSS gf180mcu_fd_sc_mcu9t5v0__and4_2
X_706_ _350_ _351_ _359_ _367_ _017_ VDD VSS gf180mcu_fd_sc_mcu9t5v0__aoi22_2
X_707_ net3 _368_ VDD VSS gf180mcu_fd_sc_mcu9t5v0__clkbuf_4
X_708_ write_ptr\[3\] _369_ VDD VSS gf180mcu_fd_sc_mcu9t5v0__clkinv_2
X_709_ write_ptr\[2\] _370_ VDD VSS gf180mcu_fd_sc_mcu9t5v0__clkinv_2
X_710_ net12 _369_ _370_ _371_ VDD VSS gf180mcu_fd_sc_mcu9t5v0__and3_2
X_711_ _169_ _453_ _174_ _371_ _372_ VDD VSS gf180mcu_fd_sc_mcu9t5v0__and4_2
X_712_ _161_ _168_ _372_ _373_ VDD VSS gf180mcu_fd_sc_mcu9t5v0__and3_4
X_713_ mem\[0\]\[0\] _368_ _373_ _018_ VDD VSS gf180mcu_fd_sc_mcu9t5v0__mux2_2
X_714_ net4 _374_ VDD VSS gf180mcu_fd_sc_mcu9t5v0__clkbuf_4
X_715_ mem\[0\]\[1\] _374_ _373_ _019_ VDD VSS gf180mcu_fd_sc_mcu9t5v0__mux2_2
X_716_ net5 _375_ VDD VSS gf180mcu_fd_sc_mcu9t5v0__buf_3
X_717_ mem\[0\]\[2\] _375_ _373_ _020_ VDD VSS gf180mcu_fd_sc_mcu9t5v0__mux2_2
X_718_ net6 _376_ VDD VSS gf180mcu_fd_sc_mcu9t5v0__clkbuf_4
X_719_ mem\[0\]\[3\] _376_ _373_ _021_ VDD VSS gf180mcu_fd_sc_mcu9t5v0__mux2_2
X_720_ net7 _377_ VDD VSS gf180mcu_fd_sc_mcu9t5v0__buf_3
X_721_ mem\[0\]\[4\] _377_ _373_ _022_ VDD VSS gf180mcu_fd_sc_mcu9t5v0__mux2_2
X_722_ net8 _378_ VDD VSS gf180mcu_fd_sc_mcu9t5v0__clkbuf_4
X_723_ mem\[0\]\[5\] _378_ _373_ _023_ VDD VSS gf180mcu_fd_sc_mcu9t5v0__mux2_2
X_724_ net9 _379_ VDD VSS gf180mcu_fd_sc_mcu9t5v0__clkbuf_4
X_725_ mem\[0\]\[6\] _379_ _373_ _024_ VDD VSS gf180mcu_fd_sc_mcu9t5v0__mux2_2
X_726_ net10 _380_ VDD VSS gf180mcu_fd_sc_mcu9t5v0__buf_3
X_727_ mem\[0\]\[7\] _380_ _373_ _025_ VDD VSS gf180mcu_fd_sc_mcu9t5v0__mux2_2
X_728_ net12 write_ptr\[3\] _370_ _381_ VDD VSS gf180mcu_fd_sc_mcu9t5v0__and3_2
X_729_ _169_ _454_ _174_ _381_ _382_ VDD VSS gf180mcu_fd_sc_mcu9t5v0__and4_2
X_730_ _161_ _168_ _382_ _383_ VDD VSS gf180mcu_fd_sc_mcu9t5v0__and3_4
X_731_ mem\[10\]\[0\] _368_ _383_ _026_ VDD VSS gf180mcu_fd_sc_mcu9t5v0__mux2_2
X_732_ mem\[10\]\[1\] _374_ _383_ _027_ VDD VSS gf180mcu_fd_sc_mcu9t5v0__mux2_2
X_733_ mem\[10\]\[2\] _375_ _383_ _028_ VDD VSS gf180mcu_fd_sc_mcu9t5v0__mux2_2
X_734_ mem\[10\]\[3\] _376_ _383_ _029_ VDD VSS gf180mcu_fd_sc_mcu9t5v0__mux2_2
X_735_ mem\[10\]\[4\] _377_ _383_ _030_ VDD VSS gf180mcu_fd_sc_mcu9t5v0__mux2_2
X_736_ mem\[10\]\[5\] _378_ _383_ _031_ VDD VSS gf180mcu_fd_sc_mcu9t5v0__mux2_2
X_737_ mem\[10\]\[6\] _379_ _383_ _032_ VDD VSS gf180mcu_fd_sc_mcu9t5v0__mux2_2
X_738_ mem\[10\]\[7\] _380_ _383_ _033_ VDD VSS gf180mcu_fd_sc_mcu9t5v0__mux2_2
X_739_ net13 _458_ _384_ VDD VSS gf180mcu_fd_sc_mcu9t5v0__and2_2
X_740_ _173_ _384_ _385_ VDD VSS gf180mcu_fd_sc_mcu9t5v0__and2_2
X_741_ _160_ _171_ _381_ _385_ _386_ VDD VSS gf180mcu_fd_sc_mcu9t5v0__and4_2
X_742_ _386_ _387_ VDD VSS gf180mcu_fd_sc_mcu9t5v0__clkbuf_12
X_743_ mem\[11\]\[0\] _368_ _387_ _034_ VDD VSS gf180mcu_fd_sc_mcu9t5v0__mux2_2
X_744_ mem\[11\]\[1\] _374_ _387_ _035_ VDD VSS gf180mcu_fd_sc_mcu9t5v0__mux2_2
X_745_ mem\[11\]\[2\] _375_ _387_ _036_ VDD VSS gf180mcu_fd_sc_mcu9t5v0__mux2_2
X_746_ mem\[11\]\[3\] _376_ _387_ _037_ VDD VSS gf180mcu_fd_sc_mcu9t5v0__mux2_2
X_747_ mem\[11\]\[4\] _377_ _387_ _038_ VDD VSS gf180mcu_fd_sc_mcu9t5v0__mux2_2
X_748_ mem\[11\]\[5\] _378_ _387_ _039_ VDD VSS gf180mcu_fd_sc_mcu9t5v0__mux2_2
X_749_ mem\[11\]\[6\] _379_ _387_ _040_ VDD VSS gf180mcu_fd_sc_mcu9t5v0__mux2_2
X_750_ mem\[11\]\[7\] _380_ _387_ _041_ VDD VSS gf180mcu_fd_sc_mcu9t5v0__mux2_2
X_751_ write_ptr\[3\] write_ptr\[2\] _388_ VDD VSS gf180mcu_fd_sc_mcu9t5v0__and2_2
X_752_ net12 _388_ _389_ VDD VSS gf180mcu_fd_sc_mcu9t5v0__and2_2
X_753_ _169_ _453_ _174_ _389_ _390_ VDD VSS gf180mcu_fd_sc_mcu9t5v0__and4_2
X_754_ _161_ _168_ _390_ _391_ VDD VSS gf180mcu_fd_sc_mcu9t5v0__and3_4
X_755_ mem\[12\]\[0\] _368_ _391_ _042_ VDD VSS gf180mcu_fd_sc_mcu9t5v0__mux2_2
X_756_ mem\[12\]\[1\] _374_ _391_ _043_ VDD VSS gf180mcu_fd_sc_mcu9t5v0__mux2_2
X_757_ mem\[12\]\[2\] _375_ _391_ _044_ VDD VSS gf180mcu_fd_sc_mcu9t5v0__mux2_2
X_758_ mem\[12\]\[3\] _376_ _391_ _045_ VDD VSS gf180mcu_fd_sc_mcu9t5v0__mux2_2
X_759_ mem\[12\]\[4\] _377_ _391_ _046_ VDD VSS gf180mcu_fd_sc_mcu9t5v0__mux2_2
X_760_ mem\[12\]\[5\] _378_ _391_ _047_ VDD VSS gf180mcu_fd_sc_mcu9t5v0__mux2_2
X_761_ mem\[12\]\[6\] _379_ _391_ _048_ VDD VSS gf180mcu_fd_sc_mcu9t5v0__mux2_2
X_762_ mem\[12\]\[7\] _380_ _391_ _049_ VDD VSS gf180mcu_fd_sc_mcu9t5v0__mux2_2
X_763_ _169_ _456_ _174_ _389_ _392_ VDD VSS gf180mcu_fd_sc_mcu9t5v0__and4_2
X_764_ _161_ _168_ _392_ _393_ VDD VSS gf180mcu_fd_sc_mcu9t5v0__and3_4
X_765_ mem\[13\]\[0\] _368_ _393_ _050_ VDD VSS gf180mcu_fd_sc_mcu9t5v0__mux2_2
X_766_ mem\[13\]\[1\] _374_ _393_ _051_ VDD VSS gf180mcu_fd_sc_mcu9t5v0__mux2_2
X_767_ mem\[13\]\[2\] _375_ _393_ _052_ VDD VSS gf180mcu_fd_sc_mcu9t5v0__mux2_2
X_768_ mem\[13\]\[3\] _376_ _393_ _053_ VDD VSS gf180mcu_fd_sc_mcu9t5v0__mux2_2
X_769_ mem\[13\]\[4\] _377_ _393_ _054_ VDD VSS gf180mcu_fd_sc_mcu9t5v0__mux2_2
X_770_ mem\[13\]\[5\] _378_ _393_ _055_ VDD VSS gf180mcu_fd_sc_mcu9t5v0__mux2_2
X_771_ mem\[13\]\[6\] _379_ _393_ _056_ VDD VSS gf180mcu_fd_sc_mcu9t5v0__mux2_2
X_772_ mem\[13\]\[7\] _380_ _393_ _057_ VDD VSS gf180mcu_fd_sc_mcu9t5v0__mux2_2
X_773_ _169_ _454_ _174_ _389_ _394_ VDD VSS gf180mcu_fd_sc_mcu9t5v0__and4_2
X_774_ _161_ _168_ _394_ _395_ VDD VSS gf180mcu_fd_sc_mcu9t5v0__and3_4
X_775_ mem\[14\]\[0\] _368_ _395_ _058_ VDD VSS gf180mcu_fd_sc_mcu9t5v0__mux2_2
X_776_ mem\[14\]\[1\] _374_ _395_ _059_ VDD VSS gf180mcu_fd_sc_mcu9t5v0__mux2_2
X_777_ mem\[14\]\[2\] _375_ _395_ _060_ VDD VSS gf180mcu_fd_sc_mcu9t5v0__mux2_2
X_778_ mem\[14\]\[3\] _376_ _395_ _061_ VDD VSS gf180mcu_fd_sc_mcu9t5v0__mux2_2
X_779_ mem\[14\]\[4\] _377_ _395_ _062_ VDD VSS gf180mcu_fd_sc_mcu9t5v0__mux2_2
X_780_ mem\[14\]\[5\] _378_ _395_ _063_ VDD VSS gf180mcu_fd_sc_mcu9t5v0__mux2_2
X_781_ mem\[14\]\[6\] _379_ _395_ _064_ VDD VSS gf180mcu_fd_sc_mcu9t5v0__mux2_2
X_782_ mem\[14\]\[7\] _380_ _395_ _065_ VDD VSS gf180mcu_fd_sc_mcu9t5v0__mux2_2
X_783_ _160_ _167_ _385_ _389_ _396_ VDD VSS gf180mcu_fd_sc_mcu9t5v0__and4_2
X_784_ _396_ _397_ VDD VSS gf180mcu_fd_sc_mcu9t5v0__clkbuf_8
X_785_ mem\[15\]\[0\] _368_ _397_ _066_ VDD VSS gf180mcu_fd_sc_mcu9t5v0__mux2_2
X_786_ mem\[15\]\[1\] _374_ _397_ _067_ VDD VSS gf180mcu_fd_sc_mcu9t5v0__mux2_2
X_787_ mem\[15\]\[2\] _375_ _397_ _068_ VDD VSS gf180mcu_fd_sc_mcu9t5v0__mux2_2
X_788_ mem\[15\]\[3\] _376_ _397_ _069_ VDD VSS gf180mcu_fd_sc_mcu9t5v0__mux2_2
X_789_ mem\[15\]\[4\] _377_ _397_ _070_ VDD VSS gf180mcu_fd_sc_mcu9t5v0__mux2_2
X_790_ mem\[15\]\[5\] _378_ _397_ _071_ VDD VSS gf180mcu_fd_sc_mcu9t5v0__mux2_2
X_791_ mem\[15\]\[6\] _379_ _397_ _072_ VDD VSS gf180mcu_fd_sc_mcu9t5v0__mux2_2
X_792_ mem\[15\]\[7\] _380_ _397_ _073_ VDD VSS gf180mcu_fd_sc_mcu9t5v0__mux2_2
X_793_ _169_ _456_ _174_ _371_ _398_ VDD VSS gf180mcu_fd_sc_mcu9t5v0__and4_2
X_794_ _161_ _168_ _398_ _399_ VDD VSS gf180mcu_fd_sc_mcu9t5v0__and3_4
X_795_ mem\[1\]\[0\] _368_ _399_ _074_ VDD VSS gf180mcu_fd_sc_mcu9t5v0__mux2_2
X_796_ mem\[1\]\[1\] _374_ _399_ _075_ VDD VSS gf180mcu_fd_sc_mcu9t5v0__mux2_2
X_797_ mem\[1\]\[2\] _375_ _399_ _076_ VDD VSS gf180mcu_fd_sc_mcu9t5v0__mux2_2
X_798_ mem\[1\]\[3\] _376_ _399_ _077_ VDD VSS gf180mcu_fd_sc_mcu9t5v0__mux2_2
X_799_ mem\[1\]\[4\] _377_ _399_ _078_ VDD VSS gf180mcu_fd_sc_mcu9t5v0__mux2_2
X_800_ mem\[1\]\[5\] _378_ _399_ _079_ VDD VSS gf180mcu_fd_sc_mcu9t5v0__mux2_2
X_801_ mem\[1\]\[6\] _379_ _399_ _080_ VDD VSS gf180mcu_fd_sc_mcu9t5v0__mux2_2
X_802_ mem\[1\]\[7\] _380_ _399_ _081_ VDD VSS gf180mcu_fd_sc_mcu9t5v0__mux2_2
X_803_ _169_ _454_ _173_ _371_ _400_ VDD VSS gf180mcu_fd_sc_mcu9t5v0__and4_2
X_804_ _161_ _168_ _400_ _401_ VDD VSS gf180mcu_fd_sc_mcu9t5v0__and3_4
X_805_ mem\[2\]\[0\] _368_ _401_ _082_ VDD VSS gf180mcu_fd_sc_mcu9t5v0__mux2_2
X_806_ mem\[2\]\[1\] _374_ _401_ _083_ VDD VSS gf180mcu_fd_sc_mcu9t5v0__mux2_2
X_807_ mem\[2\]\[2\] _375_ _401_ _084_ VDD VSS gf180mcu_fd_sc_mcu9t5v0__mux2_2
X_808_ mem\[2\]\[3\] _376_ _401_ _085_ VDD VSS gf180mcu_fd_sc_mcu9t5v0__mux2_2
X_809_ mem\[2\]\[4\] _377_ _401_ _086_ VDD VSS gf180mcu_fd_sc_mcu9t5v0__mux2_2
X_810_ mem\[2\]\[5\] _378_ _401_ _087_ VDD VSS gf180mcu_fd_sc_mcu9t5v0__mux2_2
X_811_ mem\[2\]\[6\] _379_ _401_ _088_ VDD VSS gf180mcu_fd_sc_mcu9t5v0__mux2_2
X_812_ mem\[2\]\[7\] _380_ _401_ _089_ VDD VSS gf180mcu_fd_sc_mcu9t5v0__mux2_2
X_813_ _174_ _371_ _384_ _402_ VDD VSS gf180mcu_fd_sc_mcu9t5v0__and3_2
X_814_ _170_ _168_ _402_ _403_ VDD VSS gf180mcu_fd_sc_mcu9t5v0__and3_4
X_815_ mem\[3\]\[0\] _368_ _403_ _090_ VDD VSS gf180mcu_fd_sc_mcu9t5v0__mux2_2
X_816_ mem\[3\]\[1\] _374_ _403_ _091_ VDD VSS gf180mcu_fd_sc_mcu9t5v0__mux2_2
X_817_ mem\[3\]\[2\] _375_ _403_ _092_ VDD VSS gf180mcu_fd_sc_mcu9t5v0__mux2_2
X_818_ mem\[3\]\[3\] _376_ _403_ _093_ VDD VSS gf180mcu_fd_sc_mcu9t5v0__mux2_2
X_819_ mem\[3\]\[4\] _377_ _403_ _094_ VDD VSS gf180mcu_fd_sc_mcu9t5v0__mux2_2
X_820_ mem\[3\]\[5\] _378_ _403_ _095_ VDD VSS gf180mcu_fd_sc_mcu9t5v0__mux2_2
X_821_ mem\[3\]\[6\] _379_ _403_ _096_ VDD VSS gf180mcu_fd_sc_mcu9t5v0__mux2_2
X_822_ mem\[3\]\[7\] _380_ _403_ _097_ VDD VSS gf180mcu_fd_sc_mcu9t5v0__mux2_2
X_823_ net12 _369_ write_ptr\[2\] _404_ VDD VSS gf180mcu_fd_sc_mcu9t5v0__and3_2
X_824_ _169_ _453_ _173_ _404_ _405_ VDD VSS gf180mcu_fd_sc_mcu9t5v0__and4_2
X_825_ _170_ _171_ _405_ _406_ VDD VSS gf180mcu_fd_sc_mcu9t5v0__and3_4
X_826_ mem\[4\]\[0\] net3 _406_ _098_ VDD VSS gf180mcu_fd_sc_mcu9t5v0__mux2_2
X_827_ mem\[4\]\[1\] net4 _406_ _099_ VDD VSS gf180mcu_fd_sc_mcu9t5v0__mux2_2
X_828_ mem\[4\]\[2\] net5 _406_ _100_ VDD VSS gf180mcu_fd_sc_mcu9t5v0__mux2_2
X_829_ mem\[4\]\[3\] net6 _406_ _101_ VDD VSS gf180mcu_fd_sc_mcu9t5v0__mux2_2
X_830_ mem\[4\]\[4\] net7 _406_ _102_ VDD VSS gf180mcu_fd_sc_mcu9t5v0__mux2_2
X_831_ mem\[4\]\[5\] net8 _406_ _103_ VDD VSS gf180mcu_fd_sc_mcu9t5v0__mux2_2
X_832_ mem\[4\]\[6\] net9 _406_ _104_ VDD VSS gf180mcu_fd_sc_mcu9t5v0__mux2_2
X_833_ mem\[4\]\[7\] net10 _406_ _105_ VDD VSS gf180mcu_fd_sc_mcu9t5v0__mux2_2
X_834_ _169_ _456_ _173_ _404_ _407_ VDD VSS gf180mcu_fd_sc_mcu9t5v0__and4_2
X_835_ _170_ _171_ _407_ _408_ VDD VSS gf180mcu_fd_sc_mcu9t5v0__and3_4
X_836_ mem\[5\]\[0\] net3 _408_ _106_ VDD VSS gf180mcu_fd_sc_mcu9t5v0__mux2_2
X_837_ mem\[5\]\[1\] net4 _408_ _107_ VDD VSS gf180mcu_fd_sc_mcu9t5v0__mux2_2
X_838_ mem\[5\]\[2\] net5 _408_ _108_ VDD VSS gf180mcu_fd_sc_mcu9t5v0__mux2_2
X_839_ mem\[5\]\[3\] net6 _408_ _109_ VDD VSS gf180mcu_fd_sc_mcu9t5v0__mux2_2
X_840_ mem\[5\]\[4\] net7 _408_ _110_ VDD VSS gf180mcu_fd_sc_mcu9t5v0__mux2_2
X_841_ mem\[5\]\[5\] net8 _408_ _111_ VDD VSS gf180mcu_fd_sc_mcu9t5v0__mux2_2
X_842_ mem\[5\]\[6\] net9 _408_ _112_ VDD VSS gf180mcu_fd_sc_mcu9t5v0__mux2_2
X_843_ mem\[5\]\[7\] net10 _408_ _113_ VDD VSS gf180mcu_fd_sc_mcu9t5v0__mux2_2
X_844_ net13 _454_ _173_ _404_ _409_ VDD VSS gf180mcu_fd_sc_mcu9t5v0__and4_2
X_845_ _170_ _171_ _409_ _410_ VDD VSS gf180mcu_fd_sc_mcu9t5v0__and3_4
X_846_ mem\[6\]\[0\] net3 _410_ _114_ VDD VSS gf180mcu_fd_sc_mcu9t5v0__mux2_2
X_847_ mem\[6\]\[1\] net4 _410_ _115_ VDD VSS gf180mcu_fd_sc_mcu9t5v0__mux2_2
X_848_ mem\[6\]\[2\] net5 _410_ _116_ VDD VSS gf180mcu_fd_sc_mcu9t5v0__mux2_2
X_849_ mem\[6\]\[3\] net6 _410_ _117_ VDD VSS gf180mcu_fd_sc_mcu9t5v0__mux2_2
X_850_ mem\[6\]\[4\] net7 _410_ _118_ VDD VSS gf180mcu_fd_sc_mcu9t5v0__mux2_2
X_851_ mem\[6\]\[5\] net8 _410_ _119_ VDD VSS gf180mcu_fd_sc_mcu9t5v0__mux2_2
X_852_ mem\[6\]\[6\] net9 _410_ _120_ VDD VSS gf180mcu_fd_sc_mcu9t5v0__mux2_2
X_853_ mem\[6\]\[7\] net10 _410_ _121_ VDD VSS gf180mcu_fd_sc_mcu9t5v0__mux2_2
X_854_ _160_ _167_ _385_ _404_ _411_ VDD VSS gf180mcu_fd_sc_mcu9t5v0__and4_2
X_855_ _411_ _412_ VDD VSS gf180mcu_fd_sc_mcu9t5v0__clkbuf_8