
* cell credit_based_fifo
* pin credits_available[1]
* pin credits_available[2]
* pin credits_available[0]
* pin credits_available[3]
* pin credits_available[4]
* pin credit_return
* pin valid_in
* pin rst_n
* pin ready_out
* pin full
* pin fifo_level[4]
* pin fifo_level[0]
* pin fifo_level[1]
* pin fifo_level[2]
* pin fifo_level[3]
* pin empty
* pin valid_out
* pin ready_in
* pin clk
* pin data_out[7]
* pin data_in[7]
* pin data_out[0]
* pin data_in[0]
* pin data_in[4]
* pin data_out[4]
* pin data_in[5]
* pin data_out[1]
* pin data_out[5]
* pin data_out[2]
* pin data_out[3]
* pin data_out[6]
* pin data_in[2]
* pin data_in[3]
* pin data_in[6]
* pin data_in[1]
* pin NWELL
* pin PWELL,gf180mcu_gnd
.SUBCKT credit_based_fifo 1 2 3 4 5 6 7 8 9 10 11 12 13 14 15 16 17 18 212 672
+ 673 674 675 676 677 678 679 680 681 682 683 684 685 686 687 688 689
* net 1 credits_available[1]
* net 2 credits_available[2]
* net 3 credits_available[0]
* net 4 credits_available[3]
* net 5 credits_available[4]
* net 6 credit_return
* net 7 valid_in
* net 8 rst_n
* net 9 ready_out
* net 10 full
* net 11 fifo_level[4]
* net 12 fifo_level[0]
* net 13 fifo_level[1]
* net 14 fifo_level[2]
* net 15 fifo_level[3]
* net 16 empty
* net 17 valid_out
* net 18 ready_in
* net 212 clk
* net 672 data_out[7]
* net 673 data_in[7]
* net 674 data_out[0]
* net 675 data_in[0]
* net 676 data_in[4]
* net 677 data_out[4]
* net 678 data_in[5]
* net 679 data_out[1]
* net 680 data_out[5]
* net 681 data_out[2]
* net 682 data_out[3]
* net 683 data_out[6]
* net 684 data_in[2]
* net 685 data_in[3]
* net 686 data_in[6]
* net 687 data_in[1]
* net 688 NWELL
* net 689 PWELL,gf180mcu_gnd
* cell instance $4 m0 *1 1086.4,15.12
X$4 28 688 689 1 gf180mcu_fd_sc_mcu9t5v0__dlyb_2
* cell instance $8 r0 *1 1098.72,5.04
X$8 19 688 689 2 gf180mcu_fd_sc_mcu9t5v0__dlyb_2
* cell instance $11 r0 *1 1089.2,5.04
X$11 29 688 689 3 gf180mcu_fd_sc_mcu9t5v0__dlyb_2
* cell instance $16 m0 *1 1094.8,15.12
X$16 33 688 689 4 gf180mcu_fd_sc_mcu9t5v0__dlyb_2
* cell instance $19 r0 *1 1113.28,5.04
X$19 20 688 689 5 gf180mcu_fd_sc_mcu9t5v0__dlyb_2
* cell instance $24 r0 *1 1129.52,5.04
X$24 6 688 689 43 gf180mcu_fd_sc_mcu9t5v0__dlyb_2
* cell instance $27 m0 *1 1135.12,15.12
X$27 7 688 689 50 gf180mcu_fd_sc_mcu9t5v0__buf_2
* cell instance $32 r0 *1 1140.72,5.04
X$32 689 27 8 688 gf180mcu_fd_sc_mcu9t5v0__dlyc_2
* cell instance $35 r0 *1 1164.8,5.04
X$35 45 688 689 9 gf180mcu_fd_sc_mcu9t5v0__dlyb_2
* cell instance $40 r0 *1 1188.88,5.04
X$40 46 688 689 10 gf180mcu_fd_sc_mcu9t5v0__dlyb_2
* cell instance $43 r0 *1 1199.52,5.04
X$43 21 688 689 11 gf180mcu_fd_sc_mcu9t5v0__dlyb_2
* cell instance $46 r0 *1 1216.88,5.04
X$46 26 688 689 12 gf180mcu_fd_sc_mcu9t5v0__dlyb_2
* cell instance $50 r0 *1 1218,15.12
X$50 47 688 689 13 gf180mcu_fd_sc_mcu9t5v0__dlyb_2
* cell instance $54 m0 *1 1219.12,15.12
X$54 48 688 689 14 gf180mcu_fd_sc_mcu9t5v0__dlyb_2
* cell instance $59 r0 *1 1235.36,5.04
X$59 25 688 689 15 gf180mcu_fd_sc_mcu9t5v0__dlyb_2
* cell instance $63 r0 *1 1243.76,5.04
X$63 22 688 689 16 gf180mcu_fd_sc_mcu9t5v0__dlyb_2
* cell instance $67 r0 *1 1252.16,5.04
X$67 23 688 689 17 gf180mcu_fd_sc_mcu9t5v0__dlyb_2
* cell instance $72 r0 *1 1262.24,5.04
X$72 18 688 689 24 gf180mcu_fd_sc_mcu9t5v0__dlyb_2
* cell instance $74 m0 *1 1107.12,15.12
X$74 33 20 19 28 688 689 53 gf180mcu_fd_sc_mcu9t5v0__or4_2
* cell instance $76 r0 *1 1105.44,25.2
X$76 689 55 61 19 57 688 gf180mcu_fd_sc_mcu9t5v0__addh_2
* cell instance $83 m0 *1 1086.96,25.2
X$83 689 30 19 56 51 688 gf180mcu_fd_sc_mcu9t5v0__dffrnq_2
* cell instance $86 r0 *1 1107.12,35.28
X$86 689 688 51 19 39 71 gf180mcu_fd_sc_mcu9t5v0__mux2_2
* cell instance $88 r0 *1 1139.04,25.2
X$88 689 76 688 66 67 20 gf180mcu_fd_sc_mcu9t5v0__aoi21_2
* cell instance $91 m0 *1 1122.24,45.36
X$91 688 20 41 689 73 gf180mcu_fd_sc_mcu9t5v0__xnor2_2
* cell instance $99 m0 *1 1129.52,25.2
X$99 689 20 63 73 44 688 gf180mcu_fd_sc_mcu9t5v0__dffsnq_2
* cell instance $102 m0 *1 1193.92,15.12
X$102 689 688 49 21 gf180mcu_fd_sc_mcu9t5v0__clkinv_2
* cell instance $104 r0 *1 1235.92,146.16
X$104 689 688 22 83 87 gf180mcu_fd_sc_mcu9t5v0__nand2_2
* cell instance $109 m0 *1 1235.92,166.32
X$109 688 84 82 689 22 gf180mcu_fd_sc_mcu9t5v0__and2_2
* cell instance $112 m0 *1 1240.96,166.32
X$112 689 82 85 86 84 23 688 gf180mcu_fd_sc_mcu9t5v0__aoi22_4
* cell instance $114 r0 *1 1251.6,156.24
X$114 689 688 23 87 86 gf180mcu_fd_sc_mcu9t5v0__nand2_2
* cell instance $116 m0 *1 1235.36,156.24
X$116 689 30 23 81 83 688 gf180mcu_fd_sc_mcu9t5v0__dffrnq_2
* cell instance $119 m0 *1 1260.56,25.2
X$119 689 688 24 86 gf180mcu_fd_sc_mcu9t5v0__inv_2
* cell instance $126 r0 *1 1217.44,176.4
X$126 688 93 108 689 25 gf180mcu_fd_sc_mcu9t5v0__xnor2_2
* cell instance $129 m0 *1 1215.76,156.24
X$129 689 79 47 26 80 688 48 gf180mcu_fd_sc_mcu9t5v0__nand4_2
* cell instance $131 m0 *1 1212.96,176.4
X$131 689 91 47 26 93 688 48 gf180mcu_fd_sc_mcu9t5v0__nand4_2
* cell instance $134 m0 *1 1219.12,186.48
X$134 689 688 95 26 gf180mcu_fd_sc_mcu9t5v0__clkinv_2
* cell instance $140 m0 *1 1139.6,15.12
X$140 689 688 27 44 gf180mcu_fd_sc_mcu9t5v0__buf_4
* cell instance $145 m0 *1 1093.68,35.28
X$145 689 29 70 28 57 60 688 gf180mcu_fd_sc_mcu9t5v0__addf_2
* cell instance $147 r0 *1 1088.08,35.28
X$147 72 689 688 28 57 58 gf180mcu_fd_sc_mcu9t5v0__addh_1
* cell instance $153 r0 *1 1078.56,25.2
X$153 689 30 28 56 69 688 gf180mcu_fd_sc_mcu9t5v0__dffrnq_2
* cell instance $156 m0 *1 1084.16,35.28
X$156 689 688 69 28 39 70 gf180mcu_fd_sc_mcu9t5v0__mux2_2
* cell instance $160 r0 *1 1088.08,55.44
X$160 688 29 39 689 75 gf180mcu_fd_sc_mcu9t5v0__xnor2_2
* cell instance $166 m0 *1 1085.84,55.44
X$166 689 30 29 56 75 688 gf180mcu_fd_sc_mcu9t5v0__dffrnq_2
* cell instance $170 r0 *1 1098.72,15.12
X$170 689 53 29 688 31 gf180mcu_fd_sc_mcu9t5v0__or2_4
* cell instance $173 r0 *1 1099.28,25.2
X$173 688 29 58 689 59 gf180mcu_fd_sc_mcu9t5v0__and2_2
* cell instance $175 m0 *1 1233.12,55.44
X$175 689 44 30 688 gf180mcu_fd_sc_mcu9t5v0__buf_8
* cell instance $194 r0 *1 1223.6,307.44
X$194 689 30 228 81 252 688 gf180mcu_fd_sc_mcu9t5v0__dffrnq_2
* cell instance $196 m0 *1 1145.76,186.48
X$196 689 30 90 63 99 688 gf180mcu_fd_sc_mcu9t5v0__dffrnq_2
* cell instance $201 m0 *1 1228.64,226.8
X$201 689 30 145 81 144 688 gf180mcu_fd_sc_mcu9t5v0__dffrnq_2
* cell instance $203 r0 *1 1229.76,216.72
X$203 689 30 128 81 146 688 gf180mcu_fd_sc_mcu9t5v0__dffrnq_2
* cell instance $206 m0 *1 1225.28,236.88
X$206 689 30 111 81 156 688 gf180mcu_fd_sc_mcu9t5v0__dffrnq_2
* cell instance $209 m0 *1 1230.88,246.96
X$209 689 30 166 81 169 688 gf180mcu_fd_sc_mcu9t5v0__dffrnq_2
* cell instance $212 r0 *1 1118.32,25.2
X$212 689 30 33 63 42 688 gf180mcu_fd_sc_mcu9t5v0__dffrnq_2
* cell instance $214 r0 *1 1137.92,176.4
X$214 689 30 89 63 88 688 gf180mcu_fd_sc_mcu9t5v0__dffrnq_2
* cell instance $217 m0 *1 1178.24,196.56
X$217 689 30 103 122 116 688 gf180mcu_fd_sc_mcu9t5v0__dffrnq_2
* cell instance $219 m0 *1 1218,267.12
X$219 689 30 182 81 181 688 gf180mcu_fd_sc_mcu9t5v0__dffrnq_2
* cell instance $221 m0 *1 1178.24,206.64
X$221 689 30 124 122 132 688 gf180mcu_fd_sc_mcu9t5v0__dffrnq_2
* cell instance $223 m0 *1 1151.92,126
X$223 689 688 31 78 gf180mcu_fd_sc_mcu9t5v0__clkbuf_4
* cell instance $225 r0 *1 1142.96,236.88
X$225 50 137 31 136 689 688 159 gf180mcu_fd_sc_mcu9t5v0__and4_2
* cell instance $227 r0 *1 1146.88,226.8
X$227 117 115 31 138 689 688 158 gf180mcu_fd_sc_mcu9t5v0__and4_2
* cell instance $229 r0 *1 1128.4,35.28
X$229 689 66 39 31 64 688 gf180mcu_fd_sc_mcu9t5v0__oai21_4
* cell instance $231 r0 *1 1143.52,216.72
X$231 50 115 31 136 689 688 147 gf180mcu_fd_sc_mcu9t5v0__and4_2
* cell instance $234 r0 *1 1164.8,216.72
X$234 688 31 118 689 141 gf180mcu_fd_sc_mcu9t5v0__and2_2
* cell instance $236 r0 *1 1154.16,226.8
X$236 50 100 31 138 689 688 160 gf180mcu_fd_sc_mcu9t5v0__and4_2
* cell instance $238 r0 *1 1157.52,236.88
X$238 117 100 31 119 689 688 151 gf180mcu_fd_sc_mcu9t5v0__and4_2
* cell instance $251 r0 *1 1150.8,216.72
X$251 117 137 31 138 689 688 148 gf180mcu_fd_sc_mcu9t5v0__and4_2
* cell instance $254 r0 *1 1102.08,45.36
X$254 689 688 32 34 gf180mcu_fd_sc_mcu9t5v0__clkinv_2
* cell instance $256 m0 *1 1106,25.2
X$256 32 689 688 33 57 38 gf180mcu_fd_sc_mcu9t5v0__addh_1
* cell instance $268 r0 *1 1123.36,15.12
X$268 689 688 42 33 39 52 gf180mcu_fd_sc_mcu9t5v0__mux2_2
* cell instance $273 r0 *1 1108.8,15.12
X$273 688 34 689 35 37 36 gf180mcu_fd_sc_mcu9t5v0__oai21_2
* cell instance $277 r0 *1 1108.24,55.44
X$277 689 55 688 35 61 60 gf180mcu_fd_sc_mcu9t5v0__aoi21_2
* cell instance $281 r0 *1 1112.16,45.36
X$281 689 688 38 36 gf180mcu_fd_sc_mcu9t5v0__clkinv_2
* cell instance $284 m0 *1 1112.72,45.36
X$284 688 57 37 689 40 gf180mcu_fd_sc_mcu9t5v0__xnor2_2
* cell instance $286 m0 *1 1114.96,35.28
X$286 688 38 62 689 52 gf180mcu_fd_sc_mcu9t5v0__xnor2_2
* cell instance $299 r0 *1 1116.64,15.12
X$299 689 39 40 688 41 gf180mcu_fd_sc_mcu9t5v0__or2_2
* cell instance $312 m0 *1 1142.4,35.28
X$312 67 689 688 43 68 700 gf180mcu_fd_sc_mcu9t5v0__addh_1
* cell instance $315 m0 *1 1134.56,35.28
X$315 689 688 43 65 gf180mcu_fd_sc_mcu9t5v0__clkinv_2
* cell instance $321 m0 *1 1243.2,337.68
X$321 688 44 85 689 295 gf180mcu_fd_sc_mcu9t5v0__and2_2
* cell instance $325 m0 *1 1178.24,216.72
X$325 44 688 124 121 689 136 gf180mcu_fd_sc_mcu9t5v0__and3_2
* cell instance $328 m0 *1 1185.52,216.72
X$328 44 688 123 103 689 138 gf180mcu_fd_sc_mcu9t5v0__and3_2
* cell instance $331 m0 *1 1200.08,236.88
X$331 688 44 125 689 153 gf180mcu_fd_sc_mcu9t5v0__and2_2
* cell instance $341 m0 *1 1248.24,337.68
X$341 688 689 85 296 44 gf180mcu_fd_sc_mcu9t5v0__nand2_4
* cell instance $344 m0 *1 1172.08,216.72
X$344 44 688 123 121 689 119 gf180mcu_fd_sc_mcu9t5v0__and3_2
* cell instance $349 m0 *1 1160.88,115.92
X$349 49 688 77 78 689 45 gf180mcu_fd_sc_mcu9t5v0__and3_2
* cell instance $352 r0 *1 1186.64,95.76
X$352 689 688 49 46 77 gf180mcu_fd_sc_mcu9t5v0__nand2_2
* cell instance $360 m0 *1 1222.48,186.48
X$360 689 98 47 89 92 96 688 gf180mcu_fd_sc_mcu9t5v0__addf_2
* cell instance $373 m0 *1 1229.2,196.56
X$373 94 689 96 688 48 gf180mcu_fd_sc_mcu9t5v0__xor2_2
* cell instance $375 m0 *1 1182.72,267.12
X$375 172 77 49 689 688 184 gf180mcu_fd_sc_mcu9t5v0__and3_4
* cell instance $381 r0 *1 1151.92,267.12
X$381 149 77 49 689 688 176 gf180mcu_fd_sc_mcu9t5v0__and3_4
* cell instance $383 m0 *1 1151.36,257.04
X$383 171 77 49 689 688 192 gf180mcu_fd_sc_mcu9t5v0__and3_4
* cell instance $385 r0 *1 1151.36,246.96
X$385 162 77 49 689 688 261 gf180mcu_fd_sc_mcu9t5v0__and3_4
* cell instance $387 r0 *1 1182.72,226.8
X$387 689 688 140 49 gf180mcu_fd_sc_mcu9t5v0__buf_4
* cell instance $390 r0 *1 1169.84,246.96
X$390 163 77 49 689 688 178 gf180mcu_fd_sc_mcu9t5v0__and3_4
* cell instance $393 r0 *1 1163.12,257.04
X$393 170 77 49 689 688 289 gf180mcu_fd_sc_mcu9t5v0__and3_4
* cell instance $395 m0 *1 1162.56,257.04
X$395 151 77 49 689 688 218 gf180mcu_fd_sc_mcu9t5v0__and3_4
* cell instance $412 m0 *1 1163.12,196.56
X$412 50 103 89 90 689 688 104 gf180mcu_fd_sc_mcu9t5v0__and4_2
* cell instance $415 m0 *1 1153.04,216.72
X$415 50 688 689 117 gf180mcu_fd_sc_mcu9t5v0__buf_2
* cell instance $417 r0 *1 1163.12,206.64
X$417 688 50 130 689 118 gf180mcu_fd_sc_mcu9t5v0__and2_2
* cell instance $438 m0 *1 1115.52,25.2
X$438 689 55 688 62 54 61 gf180mcu_fd_sc_mcu9t5v0__aoi21_2
* cell instance $442 r0 *1 1088.08,45.36
X$442 689 72 59 688 54 gf180mcu_fd_sc_mcu9t5v0__or2_2
* cell instance $449 r0 *1 1121.68,307.44
X$449 689 246 56 258 688 gf180mcu_fd_sc_mcu9t5v0__dffq_2
* cell instance $451 r0 *1 1120.56,257.04
X$451 689 185 56 688 gf180mcu_fd_sc_mcu9t5v0__clkbuf_20
* cell instance $459 m0 *1 1095.92,307.44
X$459 689 217 56 215 688 gf180mcu_fd_sc_mcu9t5v0__dffq_2
* cell instance $462 r0 *1 1098.72,307.44
X$462 689 244 56 257 688 gf180mcu_fd_sc_mcu9t5v0__dffq_2
* cell instance $465 r0 *1 1116.08,277.2
X$465 689 188 56 187 688 gf180mcu_fd_sc_mcu9t5v0__dffq_2
* cell instance $476 m0 *1 1120.56,257.04
X$476 689 688 56 690 gf180mcu_fd_sc_mcu9t5v0__inv_4
* cell instance $478 m0 *1 1120,277.2
X$478 689 174 56 190 688 gf180mcu_fd_sc_mcu9t5v0__dffq_2
* cell instance $480 m0 *1 1128.96,35.28
X$480 689 688 57 64 gf180mcu_fd_sc_mcu9t5v0__clkinv_2
* cell instance $495 m0 *1 1132.32,45.36
X$495 689 57 76 65 74 688 gf180mcu_fd_sc_mcu9t5v0__addh_2
* cell instance $505 r0 *1 1116.08,35.28
X$505 60 689 61 688 71 gf180mcu_fd_sc_mcu9t5v0__xor2_2
* cell instance $521 m0 *1 1160.88,287.28
X$521 689 193 63 214 688 gf180mcu_fd_sc_mcu9t5v0__dffq_2
* cell instance $524 r0 *1 1191.12,287.28
X$524 689 225 63 197 688 gf180mcu_fd_sc_mcu9t5v0__dffq_2
* cell instance $526 r0 *1 1172.64,277.2
X$526 689 195 63 177 688 gf180mcu_fd_sc_mcu9t5v0__dffq_2
* cell instance $528 m0 *1 1169.28,307.44
X$528 689 251 63 260 688 gf180mcu_fd_sc_mcu9t5v0__dffq_2
* cell instance $530 r0 *1 1136.8,277.2
X$530 689 191 63 175 688 gf180mcu_fd_sc_mcu9t5v0__dffq_2
* cell instance $533 m0 *1 1131.76,267.12
X$533 689 688 63 gf180mcu_fd_sc_mcu9t5v0__clkinv_3
* cell instance $551 m0 *1 1135.68,297.36
X$551 689 220 63 237 688 gf180mcu_fd_sc_mcu9t5v0__dffq_2
* cell instance $553 m0 *1 1136.24,267.12
X$553 689 185 63 688 gf180mcu_fd_sc_mcu9t5v0__clkbuf_20
* cell instance $564 r0 *1 1144.64,35.28
X$564 689 688 74 68 gf180mcu_fd_sc_mcu9t5v0__clkinv_2
* cell instance $584 m0 *1 1141.84,196.56
X$584 689 688 88 114 74 89 gf180mcu_fd_sc_mcu9t5v0__mux2_2
* cell instance $587 r0 *1 1147.44,206.64
X$587 117 129 135 78 689 688 74 gf180mcu_fd_sc_mcu9t5v0__and4_2
* cell instance $594 r0 *1 1141.84,186.48
X$594 688 101 74 689 99 gf180mcu_fd_sc_mcu9t5v0__xnor2_2
* cell instance $612 m0 *1 1182.72,186.48
X$612 689 106 77 688 gf180mcu_fd_sc_mcu9t5v0__clkbuf_8
* cell instance $614 m0 *1 1170.96,236.88
X$614 139 77 129 689 688 201 gf180mcu_fd_sc_mcu9t5v0__and3_4
* cell instance $629 r0 *1 1150.24,236.88
X$629 117 100 78 136 689 688 149 gf180mcu_fd_sc_mcu9t5v0__and4_2
* cell instance $631 m0 *1 1148,246.96
X$631 117 115 78 153 689 688 162 gf180mcu_fd_sc_mcu9t5v0__and4_2
* cell instance $633 r0 *1 1144.08,246.96
X$633 117 137 78 153 689 688 170 gf180mcu_fd_sc_mcu9t5v0__and4_2
* cell instance $635 r0 *1 1162.56,246.96
X$635 117 137 78 119 689 688 171 gf180mcu_fd_sc_mcu9t5v0__and4_2
* cell instance $637 m0 *1 1169.28,206.64
X$637 688 78 104 689 120 gf180mcu_fd_sc_mcu9t5v0__and2_2
* cell instance $641 m0 *1 1162.56,246.96
X$641 117 100 78 153 689 688 163 gf180mcu_fd_sc_mcu9t5v0__and4_2
* cell instance $643 m0 *1 1155.28,246.96
X$643 117 115 78 119 689 688 172 gf180mcu_fd_sc_mcu9t5v0__and4_2
* cell instance $658 m0 *1 1168.16,226.8
X$658 78 688 119 118 689 139 gf180mcu_fd_sc_mcu9t5v0__and3_2
* cell instance $661 m0 *1 1208.48,196.56
X$661 689 688 106 91 108 79 gf180mcu_fd_sc_mcu9t5v0__mux2_2
* cell instance $663 r0 *1 1229.76,196.56
X$663 689 688 93 80 gf180mcu_fd_sc_mcu9t5v0__clkinv_2
* cell instance $668 r0 *1 1239.84,357.84
X$668 689 359 81 358 688 gf180mcu_fd_sc_mcu9t5v0__dffq_2
* cell instance $670 m0 *1 1244.32,378
X$670 689 385 81 384 688 gf180mcu_fd_sc_mcu9t5v0__dffq_2
* cell instance $672 m0 *1 1244.88,327.6
X$672 689 185 81 688 gf180mcu_fd_sc_mcu9t5v0__clkbuf_20
* cell instance $676 m0 *1 1213.52,367.92
X$676 689 332 81 371 688 gf180mcu_fd_sc_mcu9t5v0__dffq_2
* cell instance $682 m0 *1 1240.4,287.28
X$682 689 208 81 207 688 gf180mcu_fd_sc_mcu9t5v0__dffq_2
* cell instance $686 m0 *1 1246.56,297.36
X$686 689 209 81 236 688 gf180mcu_fd_sc_mcu9t5v0__dffq_2
* cell instance $688 r0 *1 1212.4,287.28
X$688 689 203 81 202 688 gf180mcu_fd_sc_mcu9t5v0__dffq_2
* cell instance $713 r0 *1 1226.96,176.4
X$713 93 94 109 95 689 688 82 gf180mcu_fd_sc_mcu9t5v0__and4_2
* cell instance $721 m0 *1 1215.2,216.72
X$721 84 689 126 688 140 gf180mcu_fd_sc_mcu9t5v0__xor2_2
* cell instance $727 m0 *1 1247.68,226.8
X$727 688 128 145 689 84 gf180mcu_fd_sc_mcu9t5v0__xnor2_2
* cell instance $730 m0 *1 1216.88,337.68
X$730 689 688 309 293 85 gf180mcu_fd_sc_mcu9t5v0__nand2_2
* cell instance $732 r0 *1 1230.32,246.96
X$732 168 166 111 85 689 688 164 gf180mcu_fd_sc_mcu9t5v0__and4_2
* cell instance $744 r0 *1 1216.32,236.88
X$744 688 165 85 689 156 gf180mcu_fd_sc_mcu9t5v0__xnor2_2
* cell instance $747 r0 *1 1237.6,246.96
X$747 689 688 169 167 85 166 gf180mcu_fd_sc_mcu9t5v0__mux2_2
* cell instance $763 r0 *1 1164.24,196.56
X$763 130 689 688 90 89 701 gf180mcu_fd_sc_mcu9t5v0__addh_1
* cell instance $765 r0 *1 1160.88,196.56
X$765 689 688 89 102 gf180mcu_fd_sc_mcu9t5v0__clkinv_2
* cell instance $770 m0 *1 1219.12,196.56
X$770 113 689 688 98 89 109 gf180mcu_fd_sc_mcu9t5v0__addh_1
* cell instance $780 r0 *1 1151.36,186.48
X$780 689 100 698 101 89 688 gf180mcu_fd_sc_mcu9t5v0__addh_2
* cell instance $785 m0 *1 1165.92,206.64
X$785 689 688 90 101 gf180mcu_fd_sc_mcu9t5v0__inv_2
* cell instance $789 m0 *1 1151.36,196.56
X$789 689 137 697 90 102 688 gf180mcu_fd_sc_mcu9t5v0__addh_2
* cell instance $794 r0 *1 1209.04,186.48
X$794 689 108 110 94 92 107 113 688 gf180mcu_fd_sc_mcu9t5v0__aoi221_4
* cell instance $800 r0 *1 1240.96,186.48
X$800 689 688 112 92 gf180mcu_fd_sc_mcu9t5v0__clkinv_2
* cell instance $803 r0 *1 1212.4,206.64
X$803 107 93 133 126 97 688 689 gf180mcu_fd_sc_mcu9t5v0__aoi211_2
* cell instance $816 r0 *1 1234.24,176.4
X$816 93 688 94 96 689 97 gf180mcu_fd_sc_mcu9t5v0__and3_2
* cell instance $819 r0 *1 1200.64,206.64
X$819 689 133 93 134 124 688 gf180mcu_fd_sc_mcu9t5v0__addh_2
* cell instance $830 r0 *1 1224.72,196.56
X$830 688 94 109 689 110 gf180mcu_fd_sc_mcu9t5v0__and2_2
* cell instance $832 m0 *1 1214.08,206.64
X$832 689 107 94 127 103 688 gf180mcu_fd_sc_mcu9t5v0__addh_2
* cell instance $839 r0 *1 1231.44,186.48
X$839 112 689 688 111 101 95 gf180mcu_fd_sc_mcu9t5v0__addh_1
* cell instance $854 m0 *1 1216.32,257.04
X$854 689 167 165 98 194 688 gf180mcu_fd_sc_mcu9t5v0__addh_4
* cell instance $856 m0 *1 1237.6,257.04
X$856 689 694 111 98 205 688 gf180mcu_fd_sc_mcu9t5v0__addh_4
* cell instance $859 m0 *1 1246.56,267.12
X$859 689 688 166 98 gf180mcu_fd_sc_mcu9t5v0__clkinv_4
* cell instance $887 r0 *1 1149.12,196.56
X$887 689 115 114 101 102 688 gf180mcu_fd_sc_mcu9t5v0__addh_2
* cell instance $898 r0 *1 1174.88,206.64
X$898 689 688 103 121 gf180mcu_fd_sc_mcu9t5v0__clkinv_2
* cell instance $901 m0 *1 1198.4,216.72
X$901 688 124 103 689 125 gf180mcu_fd_sc_mcu9t5v0__and2_2
* cell instance $917 r0 *1 1182.72,216.72
X$917 129 688 135 141 689 105 gf180mcu_fd_sc_mcu9t5v0__and3_2
* cell instance $919 r0 *1 1181.6,196.56
X$919 688 121 105 689 116 gf180mcu_fd_sc_mcu9t5v0__xnor2_2
* cell instance $921 m0 *1 1182.16,226.8
X$921 140 106 141 138 689 688 142 gf180mcu_fd_sc_mcu9t5v0__and4_2
* cell instance $924 r0 *1 1190.56,226.8
X$924 689 106 135 688 gf180mcu_fd_sc_mcu9t5v0__clkbuf_8
* cell instance $927 m0 *1 1189.44,236.88
X$927 140 106 141 153 689 688 154 gf180mcu_fd_sc_mcu9t5v0__and4_2
* cell instance $949 m0 *1 1227.52,246.96
X$949 689 688 111 165 gf180mcu_fd_sc_mcu9t5v0__inv_2
* cell instance $955 m0 *1 1237.04,267.12
X$955 183 689 688 111 166 699 gf180mcu_fd_sc_mcu9t5v0__addh_1
* cell instance $1031 r0 *1 1168.72,206.64
X$1031 129 688 135 120 689 131 gf180mcu_fd_sc_mcu9t5v0__and3_2
* cell instance $1041 m0 *1 1200.08,327.6
X$1041 689 273 122 280 688 gf180mcu_fd_sc_mcu9t5v0__dffq_2
* cell instance $1043 m0 *1 1200.08,337.68
X$1043 689 308 122 292 688 gf180mcu_fd_sc_mcu9t5v0__dffq_2
* cell instance $1047 m0 *1 1207.92,297.36
X$1047 689 227 122 226 688 gf180mcu_fd_sc_mcu9t5v0__dffq_2
* cell instance $1050 r0 *1 1202.88,378
X$1050 689 122 693 688 gf180mcu_fd_sc_mcu9t5v0__clkbuf_12
* cell instance $1053 r0 *1 1206.24,388.08
X$1053 689 404 122 403 688 gf180mcu_fd_sc_mcu9t5v0__dffq_2
* cell instance $1055 m0 *1 1202.88,378
X$1055 689 185 122 688 gf180mcu_fd_sc_mcu9t5v0__clkbuf_20
* cell instance $1062 r0 *1 1197.28,357.84
X$1062 689 331 122 330 688 gf180mcu_fd_sc_mcu9t5v0__dffq_2
* cell instance $1066 r0 *1 1178.24,206.64
X$1066 689 688 124 123 gf180mcu_fd_sc_mcu9t5v0__clkinv_2
* cell instance $1068 r0 *1 1181.6,206.64
X$1068 688 123 131 689 132 gf180mcu_fd_sc_mcu9t5v0__xnor2_2
* cell instance $1085 r0 *1 1195.04,216.72
X$1085 129 135 141 125 689 688 143 gf180mcu_fd_sc_mcu9t5v0__and4_2
* cell instance $1092 r0 *1 1212.4,478.8
X$1092 689 601 127 597 591 221 599 592 688 gf180mcu_fd_sc_mcu9t5v0__mux4_2
* cell instance $1094 m0 *1 1223.04,478.8
X$1094 689 578 298 598 566 127 600 543 688 gf180mcu_fd_sc_mcu9t5v0__mux4_2
* cell instance $1096 m0 *1 1198.4,478.8
X$1096 127 688 562 287 689 565 gf180mcu_fd_sc_mcu9t5v0__and3_2
* cell instance $1099 m0 *1 1160.32,478.8
X$1099 689 248 127 688 gf180mcu_fd_sc_mcu9t5v0__clkbuf_8
* cell instance $1102 m0 *1 1209.6,357.84
X$1102 689 127 688 345 287 331 gf180mcu_fd_sc_mcu9t5v0__aoi21_2
* cell instance $1104 m0 *1 1126.72,438.48
X$1104 689 478 127 477 506 221 483 507 688 gf180mcu_fd_sc_mcu9t5v0__mux4_2
* cell instance $1122 r0 *1 1212.4,428.4
X$1122 689 688 489 470 127 459 gf180mcu_fd_sc_mcu9t5v0__mux2_2
* cell instance $1125 r0 *1 1144.64,347.76
X$1125 688 343 324 127 327 328 689 gf180mcu_fd_sc_mcu9t5v0__oai211_2
* cell instance $1127 m0 *1 1159.2,458.64
X$1127 554 553 298 534 127 688 689 gf180mcu_fd_sc_mcu9t5v0__aoi211_2
* cell instance $1129 r0 *1 1198.4,398.16
X$1129 127 688 420 419 689 436 gf180mcu_fd_sc_mcu9t5v0__and3_2
* cell instance $1133 r0 *1 1220.24,216.72
X$1133 128 689 143 688 146 gf180mcu_fd_sc_mcu9t5v0__xor2_2
* cell instance $1139 m0 *1 1153.6,236.88
X$1139 160 135 129 689 688 173 gf180mcu_fd_sc_mcu9t5v0__and3_4
* cell instance $1141 m0 *1 1142.4,236.88
X$1141 159 135 129 689 688 161 gf180mcu_fd_sc_mcu9t5v0__and3_4
* cell instance $1144 r0 *1 1131.76,226.8
X$1144 158 135 129 689 688 157 gf180mcu_fd_sc_mcu9t5v0__and3_4
* cell instance $1147 m0 *1 1142.4,226.8
X$1147 147 135 129 689 688 189 gf180mcu_fd_sc_mcu9t5v0__and3_4
* cell instance $1152 m0 *1 1153.6,226.8
X$1152 148 135 129 689 688 150 gf180mcu_fd_sc_mcu9t5v0__and3_4
* cell instance $1156 m0 *1 1189.44,226.8
X$1156 689 688 140 129 gf180mcu_fd_sc_mcu9t5v0__buf_4
* cell instance $1181 r0 *1 1150.8,327.6
X$1181 689 134 688 286 267 287 gf180mcu_fd_sc_mcu9t5v0__aoi21_2
* cell instance $1183 m0 *1 1150.8,327.6
X$1183 689 134 688 282 270 286 271 gf180mcu_fd_sc_mcu9t5v0__aoi22_2
* cell instance $1185 r0 *1 1150.24,418.32
X$1185 688 134 689 467 441 479 442 gf180mcu_fd_sc_mcu9t5v0__oai22_2
* cell instance $1187 m0 *1 1204.56,277.2
X$1187 689 180 134 688 gf180mcu_fd_sc_mcu9t5v0__clkbuf_8
* cell instance $1190 r0 *1 1216.88,257.04
X$1190 688 134 164 689 181 gf180mcu_fd_sc_mcu9t5v0__xnor2_2
* cell instance $1192 r0 *1 1173.76,488.88
X$1192 689 603 134 614 631 248 611 613 688 gf180mcu_fd_sc_mcu9t5v0__mux4_2
* cell instance $1195 m0 *1 1200.08,388.08
X$1195 689 413 421 134 357 389 688 gf180mcu_fd_sc_mcu9t5v0__aoi211_4
* cell instance $1213 m0 *1 1188.32,458.64
X$1213 689 556 538 310 134 688 287 gf180mcu_fd_sc_mcu9t5v0__nand4_2
* cell instance $1215 r0 *1 1154.16,347.76
X$1215 689 328 134 688 307 303 gf180mcu_fd_sc_mcu9t5v0__nand3_2
* cell instance $1217 r0 *1 1204.56,367.92
X$1217 689 357 367 369 345 134 370 688 gf180mcu_fd_sc_mcu9t5v0__aoi221_4
* cell instance $1232 m0 *1 1182.16,236.88
X$1232 140 135 136 141 689 688 152 gf180mcu_fd_sc_mcu9t5v0__and4_2
* cell instance $1300 r0 *1 1184.4,267.12
X$1300 689 142 186 688 gf180mcu_fd_sc_mcu9t5v0__clkbuf_8
* cell instance $1308 r0 *1 1227.52,226.8
X$1308 145 689 155 688 144 gf180mcu_fd_sc_mcu9t5v0__xor2_2
* cell instance $1330 r0 *1 1102.64,367.92
X$1330 689 688 374 353 150 375 gf180mcu_fd_sc_mcu9t5v0__mux2_2
* cell instance $1343 r0 *1 1089.2,337.68
X$1343 689 688 301 216 150 302 gf180mcu_fd_sc_mcu9t5v0__mux2_2
* cell instance $1345 m0 *1 1141.84,478.8
X$1345 689 688 580 223 150 559 gf180mcu_fd_sc_mcu9t5v0__mux2_2
* cell instance $1347 r0 *1 1089.2,408.24
X$1347 689 688 437 396 150 460 gf180mcu_fd_sc_mcu9t5v0__mux2_2
* cell instance $1350 m0 *1 1148.56,519.12
X$1350 689 688 646 564 150 647 gf180mcu_fd_sc_mcu9t5v0__mux2_2
* cell instance $1352 r0 *1 1123.92,519.12
X$1352 689 688 643 512 150 644 gf180mcu_fd_sc_mcu9t5v0__mux2_2
* cell instance $1354 r0 *1 1099.84,509.04
X$1354 689 688 640 583 150 634 gf180mcu_fd_sc_mcu9t5v0__mux2_2
* cell instance $1356 m0 *1 1142.4,277.2
X$1356 689 688 175 179 150 191 gf180mcu_fd_sc_mcu9t5v0__mux2_2
* cell instance $1361 r0 *1 1192.8,257.04
X$1361 689 152 198 688 gf180mcu_fd_sc_mcu9t5v0__clkbuf_12
* cell instance $1377 r0 *1 1194.48,246.96
X$1377 689 154 224 688 gf180mcu_fd_sc_mcu9t5v0__clkbuf_8
* cell instance $1380 m0 *1 1227.52,337.68
X$1380 689 688 155 294 293 gf180mcu_fd_sc_mcu9t5v0__nor2_2
* cell instance $1388 m0 *1 1151.92,478.8
X$1388 689 688 560 223 157 561 gf180mcu_fd_sc_mcu9t5v0__mux2_2
* cell instance $1391 m0 *1 1090.32,367.92
X$1391 689 688 346 216 157 347 gf180mcu_fd_sc_mcu9t5v0__mux2_2
* cell instance $1404 m0 *1 1184.4,478.8
X$1404 689 688 563 564 157 538 gf180mcu_fd_sc_mcu9t5v0__mux2_2
* cell instance $1406 r0 *1 1176,408.24
X$1406 689 688 454 353 157 418 gf180mcu_fd_sc_mcu9t5v0__mux2_2
* cell instance $1408 r0 *1 1086.96,398.16
X$1408 689 688 450 396 157 438 gf180mcu_fd_sc_mcu9t5v0__mux2_2
* cell instance $1410 r0 *1 1179.36,327.6
X$1410 689 688 291 179 157 306 gf180mcu_fd_sc_mcu9t5v0__mux2_2
* cell instance $1413 r0 *1 1178.8,438.48
X$1413 689 688 485 512 157 486 gf180mcu_fd_sc_mcu9t5v0__mux2_2
* cell instance $1415 m0 *1 1093.12,478.8
X$1415 689 688 602 583 157 584 gf180mcu_fd_sc_mcu9t5v0__mux2_2
* cell instance $1432 m0 *1 1122.8,448.56
X$1432 689 688 529 512 161 513 gf180mcu_fd_sc_mcu9t5v0__mux2_2
* cell instance $1448 r0 *1 1105.44,498.96
X$1448 689 688 633 583 161 607 gf180mcu_fd_sc_mcu9t5v0__mux2_2
* cell instance $1450 m0 *1 1176.56,367.92
X$1450 689 688 352 353 161 354 gf180mcu_fd_sc_mcu9t5v0__mux2_2
* cell instance $1452 r0 *1 1193.92,297.36
X$1452 689 688 197 223 161 225 gf180mcu_fd_sc_mcu9t5v0__mux2_2
* cell instance $1454 r0 *1 1103.76,297.36
X$1454 689 688 215 216 161 217 gf180mcu_fd_sc_mcu9t5v0__mux2_2
* cell instance $1456 r0 *1 1109.36,378
X$1456 689 688 395 396 161 397 gf180mcu_fd_sc_mcu9t5v0__mux2_2
* cell instance $1458 m0 *1 1148,498.96
X$1458 689 688 629 564 161 609 gf180mcu_fd_sc_mcu9t5v0__mux2_2
* cell instance $1461 m0 *1 1132.88,287.28
X$1461 689 688 190 179 161 174 gf180mcu_fd_sc_mcu9t5v0__mux2_2
* cell instance $1475 r0 *1 1228.64,257.04
X$1475 689 695 165 166 200 688 gf180mcu_fd_sc_mcu9t5v0__addh_4
* cell instance $1498 r0 *1 1220.8,448.56
X$1498 221 688 168 520 689 527 gf180mcu_fd_sc_mcu9t5v0__and3_2
* cell instance $1501 m0 *1 1160.88,337.68
X$1501 689 688 300 283 168 290 gf180mcu_fd_sc_mcu9t5v0__mux2_2
* cell instance $1504 r0 *1 1180.48,448.56
X$1504 221 689 168 530 688 533 gf180mcu_fd_sc_mcu9t5v0__or3_2
* cell instance $1507 m0 *1 1237.04,307.44
X$1507 689 228 168 688 gf180mcu_fd_sc_mcu9t5v0__clkbuf_8
* cell instance $1510 m0 *1 1149.12,398.16
X$1510 221 689 168 417 688 433 gf180mcu_fd_sc_mcu9t5v0__or3_2
* cell instance $1513 r0 *1 1143.52,398.16
X$1513 689 432 416 168 221 688 269 gf180mcu_fd_sc_mcu9t5v0__nand4_2
* cell instance $1515 r0 *1 1247.12,327.6
X$1515 689 276 688 307 168 269 320 277 gf180mcu_fd_sc_mcu9t5v0__aoi221_2
* cell instance $1517 r0 *1 1243.76,428.4
X$1517 689 510 496 168 204 688 269 gf180mcu_fd_sc_mcu9t5v0__nand4_2
* cell instance $1533 r0 *1 1162,297.36
X$1533 221 689 168 213 688 239 gf180mcu_fd_sc_mcu9t5v0__or3_2
* cell instance $1535 m0 *1 1230.88,519.12
X$1535 689 542 298 654 659 168 660 656 688 gf180mcu_fd_sc_mcu9t5v0__mux4_2
* cell instance $1553 r0 *1 1156.4,378
X$1553 689 688 415 353 173 381 gf180mcu_fd_sc_mcu9t5v0__mux2_2
* cell instance $1573 r0 *1 1098.72,398.16
X$1573 689 688 439 396 173 416 gf180mcu_fd_sc_mcu9t5v0__mux2_2
* cell instance $1575 r0 *1 1159.76,519.12
X$1575 689 688 658 564 173 648 gf180mcu_fd_sc_mcu9t5v0__mux2_2
* cell instance $1577 m0 *1 1135.12,529.2
X$1577 689 688 671 512 173 645 gf180mcu_fd_sc_mcu9t5v0__mux2_2
* cell instance $1579 m0 *1 1109.36,519.12
X$1579 689 688 657 583 173 642 gf180mcu_fd_sc_mcu9t5v0__mux2_2
* cell instance $1581 r0 *1 1089.2,307.44
X$1581 689 688 242 216 173 243 gf180mcu_fd_sc_mcu9t5v0__mux2_2
* cell instance $1585 r0 *1 1164.24,277.2
X$1585 689 688 214 179 173 193 gf180mcu_fd_sc_mcu9t5v0__mux2_2
* cell instance $1588 r0 *1 1140.16,438.48
X$1588 689 688 515 223 173 516 gf180mcu_fd_sc_mcu9t5v0__mux2_2
* cell instance $1592 r0 *1 1136.24,287.28
X$1592 689 213 194 174 219 240 188 220 688 gf180mcu_fd_sc_mcu9t5v0__aoi222_2
* cell instance $1598 r0 *1 1219.68,357.84
X$1598 689 688 371 350 176 332 gf180mcu_fd_sc_mcu9t5v0__mux2_2
* cell instance $1611 m0 *1 1214.08,307.44
X$1611 689 688 226 199 176 227 gf180mcu_fd_sc_mcu9t5v0__mux2_2
* cell instance $1613 r0 *1 1212.96,529.2
X$1613 689 688 666 491 176 667 gf180mcu_fd_sc_mcu9t5v0__mux2_2
* cell instance $1615 m0 *1 1198.4,529.2
X$1615 689 688 665 537 176 649 gf180mcu_fd_sc_mcu9t5v0__mux2_2
* cell instance $1617 m0 *1 1125.04,509.04
X$1617 689 688 635 547 176 608 gf180mcu_fd_sc_mcu9t5v0__mux2_2
* cell instance $1620 r0 *1 1129.52,378
X$1620 689 688 398 399 176 377 gf180mcu_fd_sc_mcu9t5v0__mux2_2
* cell instance $1622 m0 *1 1130.64,307.44
X$1622 689 688 258 222 176 246 gf180mcu_fd_sc_mcu9t5v0__mux2_2
* cell instance $1625 r0 *1 1144.08,297.36
X$1625 689 688 237 230 176 220 gf180mcu_fd_sc_mcu9t5v0__mux2_2
* cell instance $1627 m0 *1 1175.44,277.2
X$1627 689 688 177 179 186 195 gf180mcu_fd_sc_mcu9t5v0__mux2_2
* cell instance $1631 m0 *1 1253.28,509.04
X$1631 689 688 621 547 178 622 gf180mcu_fd_sc_mcu9t5v0__mux2_2
* cell instance $1633 m0 *1 1253.84,408.24
X$1633 689 688 453 199 178 446 gf180mcu_fd_sc_mcu9t5v0__mux2_2
* cell instance $1649 r0 *1 1224.16,398.16
X$1649 689 688 405 399 178 406 gf180mcu_fd_sc_mcu9t5v0__mux2_2
* cell instance $1651 r0 *1 1244.88,438.48
X$1651 689 688 494 491 178 496 gf180mcu_fd_sc_mcu9t5v0__mux2_2
* cell instance $1654 r0 *1 1161.44,357.84
X$1654 689 688 368 350 178 351 gf180mcu_fd_sc_mcu9t5v0__mux2_2
* cell instance $1657 m0 *1 1268.96,498.96
X$1657 689 688 623 537 178 624 gf180mcu_fd_sc_mcu9t5v0__mux2_2
* cell instance $1660 r0 *1 1271.2,337.68
X$1660 689 688 313 230 178 315 gf180mcu_fd_sc_mcu9t5v0__mux2_2
* cell instance $1662 r0 *1 1166.48,307.44