
* cell parameterized_uart_tx
* pin tx_busy
* pin tx_start
* pin rst_n
* pin tx
* pin clk
* pin data_in[4]
* pin data_in[5]
* pin data_in[6]
* pin data_in[1]
* pin data_in[0]
* pin data_in[7]
* pin data_in[3]
* pin data_in[2]
* pin NWELL
* pin PWELL,gf180mcu_gnd
.SUBCKT parameterized_uart_tx 44 62 71 79 83 99 100 122 139 140 141 142 143 144
+ 145
* net 44 tx_busy
* net 62 tx_start
* net 71 rst_n
* net 79 tx
* net 83 clk
* net 99 data_in[4]
* net 100 data_in[5]
* net 122 data_in[6]
* net 139 data_in[1]
* net 140 data_in[0]
* net 141 data_in[7]
* net 142 data_in[3]
* net 143 data_in[2]
* net 144 NWELL
* net 145 PWELL,gf180mcu_gnd
* cell instance $2 m0 *1 52.64,15.12
X$2 2 145 144 1 9 146 gf180mcu_fd_sc_mcu9t5v0__addh_1
* cell instance $4 m0 *1 45.92,25.2
X$4 35 145 144 1 29 22 gf180mcu_fd_sc_mcu9t5v0__addh_1
* cell instance $6 r0 *1 54.88,25.2
X$6 5 6 9 1 145 144 38 gf180mcu_fd_sc_mcu9t5v0__and4_2
* cell instance $8 r0 *1 22.4,25.2
X$8 32 144 145 15 1 36 gf180mcu_fd_sc_mcu9t5v0__nor3_2
* cell instance $10 r0 *1 50.96,15.12
X$10 6 144 9 1 145 20 gf180mcu_fd_sc_mcu9t5v0__and3_2
* cell instance $12 r0 *1 14.56,15.12
X$12 145 144 1 8 3 gf180mcu_fd_sc_mcu9t5v0__nand2_2
* cell instance $19 m0 *1 20.72,15.12
X$19 145 1 3 144 4 gf180mcu_fd_sc_mcu9t5v0__or2_2
* cell instance $21 m0 *1 5.6,25.2
X$21 145 14 1 19 21 144 gf180mcu_fd_sc_mcu9t5v0__dffrnq_2
* cell instance $24 m0 *1 81.2,15.12
X$24 145 58 5 144 6 2 gf180mcu_fd_sc_mcu9t5v0__nand3_2
* cell instance $30 m0 *1 77.84,25.2
X$30 144 6 2 145 27 gf180mcu_fd_sc_mcu9t5v0__xnor2_2
* cell instance $32 r0 *1 40.32,25.2
X$32 145 144 9 31 3 gf180mcu_fd_sc_mcu9t5v0__nand2_2
* cell instance $34 m0 *1 34.72,25.2
X$34 144 31 145 28 15 22 3 gf180mcu_fd_sc_mcu9t5v0__oai31_2
* cell instance $36 r0 *1 77.84,25.2
X$36 23 144 13 3 145 34 gf180mcu_fd_sc_mcu9t5v0__and3_2
* cell instance $39 r0 *1 52.64,45.36
X$39 144 55 145 61 3 56 42 gf180mcu_fd_sc_mcu9t5v0__oai22_2
* cell instance $41 m0 *1 29.12,45.36
X$41 144 45 145 60 15 40 3 gf180mcu_fd_sc_mcu9t5v0__oai31_2
* cell instance $43 m0 *1 57.68,25.2
X$43 23 144 24 3 145 25 gf180mcu_fd_sc_mcu9t5v0__and3_2
* cell instance $45 r0 *1 23.52,45.36
X$45 145 53 54 144 3 gf180mcu_fd_sc_mcu9t5v0__or2_4
* cell instance $48 r0 *1 62.72,45.36
X$48 145 144 42 57 3 gf180mcu_fd_sc_mcu9t5v0__nand2_2
* cell instance $57 r0 *1 3.36,45.36
X$57 145 144 51 41 3 52 gf180mcu_fd_sc_mcu9t5v0__mux2_2
* cell instance $61 r0 *1 19.6,15.12
X$61 144 8 145 4 30 15 gf180mcu_fd_sc_mcu9t5v0__oai21_2
* cell instance $66 r0 *1 71.68,25.2
X$66 145 144 5 24 gf180mcu_fd_sc_mcu9t5v0__clkinv_2
* cell instance $72 r0 *1 67.2,15.12
X$72 145 14 5 17 11 144 gf180mcu_fd_sc_mcu9t5v0__dffrnq_2
* cell instance $74 r0 *1 47.04,25.2
X$74 5 6 9 35 144 145 63 gf180mcu_fd_sc_mcu9t5v0__or4_2
* cell instance $77 r0 *1 60.48,15.12
X$77 145 144 10 5 20 gf180mcu_fd_sc_mcu9t5v0__nor2_2
* cell instance $82 r0 *1 86.24,15.12
X$82 145 144 6 13 gf180mcu_fd_sc_mcu9t5v0__clkinv_2
* cell instance $90 m0 *1 91.28,25.2
X$90 145 14 6 17 7 144 gf180mcu_fd_sc_mcu9t5v0__dffrnq_2
* cell instance $95 r0 *1 89.6,15.12
X$95 144 12 145 18 7 13 gf180mcu_fd_sc_mcu9t5v0__oai21_2
* cell instance $104 r0 *1 47.6,15.12
X$104 145 144 9 29 gf180mcu_fd_sc_mcu9t5v0__clkinv_2
* cell instance $114 r0 *1 27.44,15.12
X$114 145 14 9 19 16 144 gf180mcu_fd_sc_mcu9t5v0__dffrnq_2
* cell instance $118 r0 *1 62.16,25.2
X$118 39 25 10 38 144 145 26 gf180mcu_fd_sc_mcu9t5v0__or4_2
* cell instance $121 m0 *1 65.52,25.2
X$121 144 15 145 26 18 11 24 gf180mcu_fd_sc_mcu9t5v0__oai22_2
* cell instance $124 r0 *1 84,25.2
X$124 15 34 39 27 144 145 12 gf180mcu_fd_sc_mcu9t5v0__or4_2
* cell instance $132 m0 *1 4.48,75.6
X$132 145 14 53 19 96 144 gf180mcu_fd_sc_mcu9t5v0__dffrnq_4
* cell instance $134 m0 *1 103.6,75.6
X$134 145 78 14 144 gf180mcu_fd_sc_mcu9t5v0__buf_8
* cell instance $162 m0 *1 70,55.44
X$162 145 14 55 17 68 144 gf180mcu_fd_sc_mcu9t5v0__dffrnq_2
* cell instance $166 m0 *1 2.24,45.36
X$166 145 14 41 19 64 144 gf180mcu_fd_sc_mcu9t5v0__dffrnq_2
* cell instance $168 m0 *1 43.68,105.84
X$168 145 14 124 19 132 144 gf180mcu_fd_sc_mcu9t5v0__dffrnq_2
* cell instance $170 r0 *1 2.24,95.76
X$170 145 14 112 19 117 144 gf180mcu_fd_sc_mcu9t5v0__dffrnq_2
* cell instance $173 r0 *1 59.92,105.84
X$173 145 14 125 17 137 144 gf180mcu_fd_sc_mcu9t5v0__dffrnq_2
* cell instance $175 m0 *1 21.28,105.84
X$175 145 14 120 19 127 144 gf180mcu_fd_sc_mcu9t5v0__dffrnq_2
* cell instance $177 r0 *1 33.6,45.36
X$177 145 14 50 19 60 144 gf180mcu_fd_sc_mcu9t5v0__dffrnq_2
* cell instance $179 r0 *1 80.64,95.76
X$179 145 14 121 17 128 144 gf180mcu_fd_sc_mcu9t5v0__dffrnq_2
* cell instance $181 r0 *1 81.76,75.6
X$181 145 14 93 17 98 144 gf180mcu_fd_sc_mcu9t5v0__dffrnq_2
* cell instance $183 r0 *1 10.08,105.84
X$183 145 14 123 19 135 144 gf180mcu_fd_sc_mcu9t5v0__dffrnq_2
* cell instance $187 r0 *1 8.96,65.52
X$187 145 14 54 19 80 144 gf180mcu_fd_sc_mcu9t5v0__dffrnq_2
* cell instance $189 m0 *1 89.6,105.84
X$189 145 14 129 17 126 144 gf180mcu_fd_sc_mcu9t5v0__dffrnq_2
* cell instance $192 r0 *1 70.56,35.28
X$192 145 14 37 17 43 144 gf180mcu_fd_sc_mcu9t5v0__dffrnq_2
* cell instance $194 r0 *1 33.6,75.6
X$194 145 14 97 19 91 144 gf180mcu_fd_sc_mcu9t5v0__dffrnq_2
* cell instance $196 m0 *1 7.28,85.68
X$196 145 14 102 19 109 144 gf180mcu_fd_sc_mcu9t5v0__dffrnq_2
* cell instance $199 r0 *1 44.8,85.68
X$199 145 14 108 19 111 144 gf180mcu_fd_sc_mcu9t5v0__dffrnq_2
* cell instance $201 m0 *1 20.72,65.52
X$201 145 15 144 81 72 66 54 gf180mcu_fd_sc_mcu9t5v0__aoi22_2
* cell instance $205 r0 *1 37.52,65.52
X$205 145 144 85 90 15 86 gf180mcu_fd_sc_mcu9t5v0__mux2_2
* cell instance $215 m0 *1 65.52,65.52
X$215 145 84 15 144 gf180mcu_fd_sc_mcu9t5v0__clkbuf_8
* cell instance $221 r0 *1 31.92,25.2
X$221 33 144 145 15 22 36 gf180mcu_fd_sc_mcu9t5v0__nor3_2
* cell instance $226 m0 *1 81.76,45.36
X$226 144 145 39 15 47 48 43 18 gf180mcu_fd_sc_mcu9t5v0__oai32_2
* cell instance $228 m0 *1 26.32,25.2
X$228 145 144 16 28 23 33 gf180mcu_fd_sc_mcu9t5v0__mux2_2
* cell instance $232 m0 *1 96.32,65.52
X$232 145 77 17 82 78 144 gf180mcu_fd_sc_mcu9t5v0__dffsnq_2
* cell instance $237 r0 *1 79.52,65.52
X$237 145 144 74 17 gf180mcu_fd_sc_mcu9t5v0__clkbuf_3
* cell instance $252 r0 *1 75.04,65.52
X$252 145 144 17 gf180mcu_fd_sc_mcu9t5v0__inv_3
* cell instance $255 m0 *1 94.08,45.36
X$255 145 49 144 47 46 18 gf180mcu_fd_sc_mcu9t5v0__aoi21_2
* cell instance $257 r0 *1 53.76,35.28
X$257 37 144 18 38 145 61 gf180mcu_fd_sc_mcu9t5v0__and3_2
* cell instance $270 m0 *1 39.2,45.36
X$270 145 23 18 53 54 144 gf180mcu_fd_sc_mcu9t5v0__oai21_4
* cell instance $275 m0 *1 27.44,75.6
X$275 145 144 74 19 gf180mcu_fd_sc_mcu9t5v0__clkbuf_3
* cell instance $310 r0 *1 14,25.2
X$310 145 144 21 32 40 30 gf180mcu_fd_sc_mcu9t5v0__mux2_2
* cell instance $320 m0 *1 21.28,45.36
X$320 23 41 42 36 145 144 59 gf180mcu_fd_sc_mcu9t5v0__and4_2
* cell instance $323 r0 *1 48.72,55.44
X$323 145 144 50 23 gf180mcu_fd_sc_mcu9t5v0__buf_4
* cell instance $326 r0 *1 87.36,65.52
X$326 144 23 77 145 76 gf180mcu_fd_sc_mcu9t5v0__and2_2
* cell instance $339 r0 *1 25.2,55.44
X$339 23 145 67 66 144 45 gf180mcu_fd_sc_mcu9t5v0__or3_2
* cell instance $342 r0 *1 16.8,55.44
X$342 145 144 96 23 69 gf180mcu_fd_sc_mcu9t5v0__nor2_2
* cell instance $346 m0 *1 15.12,65.52
X$346 145 144 80 23 72 gf180mcu_fd_sc_mcu9t5v0__nor2_2
* cell instance $348 m0 *1 45.36,75.6
X$348 23 53 87 97 144 145 90 gf180mcu_fd_sc_mcu9t5v0__or4_2
* cell instance $389 r0 *1 62.16,35.28
X$389 144 40 36 145 39 gf180mcu_fd_sc_mcu9t5v0__and2_2
* cell instance $395 r0 *1 14.56,45.36
X$395 145 52 144 36 69 42 53 gf180mcu_fd_sc_mcu9t5v0__aoi22_2
* cell instance $397 m0 *1 13.44,55.44
X$397 36 52 40 145 144 107 gf180mcu_fd_sc_mcu9t5v0__and3_4
* cell instance $401 m0 *1 31.92,55.44
X$401 145 144 53 54 36 gf180mcu_fd_sc_mcu9t5v0__nor2_4
* cell instance $408 m0 *1 80.08,65.52
X$408 36 145 75 76 144 82 gf180mcu_fd_sc_mcu9t5v0__or3_2
* cell instance $410 m0 *1 60.48,45.36
X$410 145 55 63 42 37 144 gf180mcu_fd_sc_mcu9t5v0__nand3_4
* cell instance $412 r0 *1 85.12,45.36
X$412 144 37 58 145 49 gf180mcu_fd_sc_mcu9t5v0__and2_2
* cell instance $414 r0 *1 89.6,35.28
X$414 145 144 37 48 gf180mcu_fd_sc_mcu9t5v0__clkinv_2
* cell instance $416 r0 *1 63.84,55.44
X$416 55 144 37 63 145 84 gf180mcu_fd_sc_mcu9t5v0__and3_2
* cell instance $418 m0 *1 50.96,55.44
X$418 145 66 63 37 55 144 73 gf180mcu_fd_sc_mcu9t5v0__nand4_2
* cell instance $427 r0 *1 90.16,45.36
X$427 145 144 46 37 58 gf180mcu_fd_sc_mcu9t5v0__nor2_2
* cell instance $444 m0 *1 2.8,55.44
X$444 144 40 51 145 65 gf180mcu_fd_sc_mcu9t5v0__and2_2
* cell instance $448 m0 *1 53.76,45.36
X$448 145 144 50 40 gf180mcu_fd_sc_mcu9t5v0__clkinv_3
* cell instance $451 m0 *1 59.92,55.44
X$451 145 56 144 68 57 40 gf180mcu_fd_sc_mcu9t5v0__aoi21_2
* cell instance $470 r0 *1 2.24,35.28
X$470 41 144 145 44 gf180mcu_fd_sc_mcu9t5v0__dlyb_2
* cell instance $503 m0 *1 45.92,65.52
X$503 145 144 53 50 70 gf180mcu_fd_sc_mcu9t5v0__nor2_4
* cell instance $517 r0 *1 2.24,55.44
X$517 62 144 145 52 gf180mcu_fd_sc_mcu9t5v0__dlyb_2
* cell instance $520 m0 *1 29.68,65.52
X$520 144 67 53 145 81 gf180mcu_fd_sc_mcu9t5v0__and2_2
* cell instance $538 r0 *1 50.4,65.52
X$538 145 53 87 144 73 gf180mcu_fd_sc_mcu9t5v0__or2_2
* cell instance $542 r0 *1 33.04,55.44
X$542 145 144 54 67 gf180mcu_fd_sc_mcu9t5v0__inv_2
* cell instance $575 m0 *1 7.84,55.44
X$575 145 65 59 144 64 gf180mcu_fd_sc_mcu9t5v0__or2_2
* cell instance $613 r0 *1 69.44,75.6
X$613 144 67 145 94 70 98 95 gf180mcu_fd_sc_mcu9t5v0__oai22_2
* cell instance $618 m0 *1 35.28,75.6
X$618 144 67 145 85 70 91 86 gf180mcu_fd_sc_mcu9t5v0__oai22_2
* cell instance $621 m0 *1 59.36,85.68
X$621 144 67 145 106 70 111 104 gf180mcu_fd_sc_mcu9t5v0__oai22_2
* cell instance $629 r0 *1 73.92,85.68
X$629 70 115 118 119 145 144 75 gf180mcu_fd_sc_mcu9t5v0__and4_2
* cell instance $631 m0 *1 69.44,85.68
X$631 145 144 103 105 70 gf180mcu_fd_sc_mcu9t5v0__nand2_2
* cell instance $639 r0 *1 68.88,65.52
X$639 145 144 88 89 70 gf180mcu_fd_sc_mcu9t5v0__nand2_2
* cell instance $644 r0 *1 110.88,55.44
X$644 71 144 145 78 gf180mcu_fd_sc_mcu9t5v0__dlya_2
* cell instance $652 m0 *1 56,65.52
X$652 145 144 83 74 gf180mcu_fd_sc_mcu9t5v0__clkbuf_3
* cell instance $670 r0 *1 109.76,65.52
X$670 77 144 145 79 gf180mcu_fd_sc_mcu9t5v0__dlyb_2
* cell instance $697 m0 *1 74.48,85.68
X$697 145 144 106 105 84 104 gf180mcu_fd_sc_mcu9t5v0__mux2_2
* cell instance $703 m0 *1 70.56,75.6
X$703 145 144 94 89 84 95 gf180mcu_fd_sc_mcu9t5v0__mux2_2
* cell instance $709 m0 *1 39.76,85.68
X$709 145 144 97 86 gf180mcu_fd_sc_mcu9t5v0__clkinv_2
* cell instance $719 m0 *1 59.36,75.6
X$719 87 145 144 93 92 88 gf180mcu_fd_sc_mcu9t5v0__addh_1
* cell instance $734 r0 *1 58.8,75.6
X$734 92 145 144 97 108 103 gf180mcu_fd_sc_mcu9t5v0__addh_1
* cell instance $737 r0 *1 81.2,85.68
X$737 145 144 93 95 gf180mcu_fd_sc_mcu9t5v0__clkinv_2
* cell instance $740 m0 *1 68.32,105.84
X$740 145 114 93 129 124 97 125 121 144 gf180mcu_fd_sc_mcu9t5v0__mux4_2
* cell instance $749 m0 *1 66.08,95.76
X$749 108 145 93 113 144 119 gf180mcu_fd_sc_mcu9t5v0__or3_2
* cell instance $759 r0 *1 67.2,85.68
X$759 108 145 95 110 144 118 gf180mcu_fd_sc_mcu9t5v0__or3_2
* cell instance $777 r0 *1 31.36,95.76
X$777 145 144 113 123 97 120 gf180mcu_fd_sc_mcu9t5v0__mux2_2
* cell instance $779 r0 *1 23.52,85.68
X$779 145 144 110 112 97 102 gf180mcu_fd_sc_mcu9t5v0__mux2_2
* cell instance $789 m0 *1 2.24,95.76
X$789 99 144 145 116 gf180mcu_fd_sc_mcu9t5v0__dlyb_2
* cell instance $792 r0 *1 2.24,75.6
X$792 100 144 145 101 gf180mcu_fd_sc_mcu9t5v0__dlyb_2
* cell instance $794 m0 *1 10.64,95.76
X$794 145 144 117 101 107 112 gf180mcu_fd_sc_mcu9t5v0__mux2_2
* cell instance $797 r0 *1 7.28,85.68
X$797 145 144 109 116 107 102 gf180mcu_fd_sc_mcu9t5v0__mux2_2
* cell instance $810 m0 *1 72.8,95.76
X$810 145 104 114 144 115 gf180mcu_fd_sc_mcu9t5v0__or2_2
* cell instance $812 r0 *1 63.84,85.68
X$812 145 144 108 104 gf180mcu_fd_sc_mcu9t5v0__clkinv_2
* cell instance $823 m0 *1 67.2,115.92
X$823 145 144 137 138 107 125 gf180mcu_fd_sc_mcu9t5v0__mux2_2
* cell instance $825 m0 *1 19.6,115.92
X$825 145 144 135 136 107 123 gf180mcu_fd_sc_mcu9t5v0__mux2_2
* cell instance $833 r0 *1 31.92,105.84
X$833 145 144 127 130 107 120 gf180mcu_fd_sc_mcu9t5v0__mux2_2
* cell instance $836 r0 *1 45.92,105.84
X$836 145 144 132 131 107 124 gf180mcu_fd_sc_mcu9t5v0__mux2_2
* cell instance $841 r0 *1 82.32,105.84
X$841 145 144 128 133 107 121 gf180mcu_fd_sc_mcu9t5v0__mux2_2
* cell instance $844 r0 *1 90.72,105.84
X$844 145 144 126 134 107 129 gf180mcu_fd_sc_mcu9t5v0__mux2_2
* cell instance $910 r0 *1 50.4,95.76
X$910 122 144 145 131 gf180mcu_fd_sc_mcu9t5v0__dlyb_2
* cell instance $945 m0 *1 36.4,115.92
X$945 140 144 145 130 gf180mcu_fd_sc_mcu9t5v0__dlyb_2
* cell instance $956 m0 *1 83.44,115.92
X$956 142 144 145 133 gf180mcu_fd_sc_mcu9t5v0__dlyb_2
* cell instance $958 m0 *1 91.84,115.92
X$958 143 144 145 134 gf180mcu_fd_sc_mcu9t5v0__dlyb_2
* cell instance $965 m0 *1 28,115.92
X$965 139 144 145 136 gf180mcu_fd_sc_mcu9t5v0__dlyb_2
* cell instance $1746 m0 *1 58.8,115.92
X$1746 141 144 145 138 gf180mcu_fd_sc_mcu9t5v0__dlyb_2
.ENDS parameterized_uart_tx

* cell gf180mcu_fd_sc_mcu9t5v0__xnor2_2
* pin NWELL,VDD
* pin A1
* pin A2
* pin PWELL,VSS,gf180mcu_gnd
* pin ZN
.SUBCKT gf180mcu_fd_sc_mcu9t5v0__xnor2_2 1 5 6 7 8
* net 1 NWELL,VDD
* net 5 A1
* net 6 A2
* net 7 PWELL,VSS,gf180mcu_gnd
* net 8 ZN
* device instance $1 r0 *1 0.97,3.327 pmos_5p0
M$1 10 6 2 1 pmos_5p0 L=0.5U W=0.915U AS=0.4026P AD=0.260775P PS=2.71U PD=1.485U
* device instance $2 r0 *1 2.04,3.327 pmos_5p0
M$2 1 5 10 1 pmos_5p0 L=0.5U W=0.915U AS=0.260775P AD=0.571875P PS=1.485U
+ PD=2.68U
* device instance $3 r0 *1 3.39,3.785 pmos_5p0
M$3 4 2 1 1 pmos_5p0 L=0.5U W=1.83U AS=0.571875P AD=0.4758P PS=2.68U PD=2.35U
* device instance $4 r0 *1 4.41,3.785 pmos_5p0
M$4 3 5 4 1 pmos_5p0 L=0.5U W=1.83U AS=0.4758P AD=0.4758P PS=2.35U PD=2.35U
* device instance $5 r0 *1 5.43,3.785 pmos_5p0
M$5 4 6 3 1 pmos_5p0 L=0.5U W=1.83U AS=0.4758P AD=0.8052P PS=2.35U PD=4.54U
* device instance $6 r0 *1 7.17,3.78 pmos_5p0
M$6 8 3 1 1 pmos_5p0 L=0.5U W=3.66U AS=1.3725P AD=1.3725P PS=6.99U PD=6.99U
* device instance $8 r0 *1 7.22,1.005 nmos_5p0
M$8 8 3 7 7 nmos_5p0 L=0.6U W=2.64U AS=0.924P AD=0.924P PS=5.36U PD=5.36U
* device instance $10 r0 *1 0.92,0.675 nmos_5p0
M$10 2 6 7 7 nmos_5p0 L=0.6U W=0.66U AS=0.2904P AD=0.1716P PS=2.2U PD=1.18U
* device instance $11 r0 *1 2.04,0.675 nmos_5p0
M$11 7 5 2 7 nmos_5p0 L=0.6U W=0.66U AS=0.1716P AD=0.363P PS=1.18U PD=2.02U
* device instance $12 r0 *1 3.34,1.005 nmos_5p0
M$12 3 2 7 7 nmos_5p0 L=0.6U W=1.32U AS=0.363P AD=0.3432P PS=2.02U PD=1.84U
* device instance $13 r0 *1 4.46,1.005 nmos_5p0
M$13 9 5 3 7 nmos_5p0 L=0.6U W=1.32U AS=0.3432P AD=0.2112P PS=1.84U PD=1.64U
* device instance $14 r0 *1 5.38,1.005 nmos_5p0
M$14 7 6 9 7 nmos_5p0 L=0.6U W=1.32U AS=0.2112P AD=0.5808P PS=1.64U PD=3.52U
.ENDS gf180mcu_fd_sc_mcu9t5v0__xnor2_2

* cell gf180mcu_fd_sc_mcu9t5v0__nand3_2
* pin PWELL,VSS,gf180mcu_gnd
* pin ZN
* pin A1
* pin NWELL,VDD
* pin A2
* pin A3
.SUBCKT gf180mcu_fd_sc_mcu9t5v0__nand3_2 1 2 3 4 5 6
* net 1 PWELL,VSS,gf180mcu_gnd
* net 2 ZN
* net 3 A1
* net 4 NWELL,VDD
* net 5 A2
* net 6 A3
* device instance $1 r0 *1 0.87,3.85 pmos_5p0
M$1 2 6 4 4 pmos_5p0 L=0.5U W=2.92U AS=1.022P AD=1.022P PS=5.78U PD=5.78U
* device instance $2 r0 *1 1.89,3.85 pmos_5p0
M$2 4 5 2 4 pmos_5p0 L=0.5U W=2.92U AS=0.7592P AD=0.7592P PS=3.96U PD=3.96U
* device instance $3 r0 *1 2.91,3.85 pmos_5p0
M$3 2 3 4 4 pmos_5p0 L=0.5U W=2.92U AS=0.7592P AD=0.7592P PS=3.96U PD=3.96U
* device instance $7 r0 *1 1.06,1 nmos_5p0
M$7 10 6 1 1 nmos_5p0 L=0.6U W=1.32U AS=0.5808P AD=0.1848P PS=3.52U PD=1.6U
* device instance $8 r0 *1 1.94,1 nmos_5p0
M$8 9 5 10 1 nmos_5p0 L=0.6U W=1.32U AS=0.1848P AD=0.2112P PS=1.6U PD=1.64U
* device instance $9 r0 *1 2.86,1 nmos_5p0
M$9 2 3 9 1 nmos_5p0 L=0.6U W=1.32U AS=0.2112P AD=0.3432P PS=1.64U PD=1.84U
* device instance $10 r0 *1 3.98,1 nmos_5p0
M$10 8 3 2 1 nmos_5p0 L=0.6U W=1.32U AS=0.3432P AD=0.2112P PS=1.84U PD=1.64U
* device instance $11 r0 *1 4.9,1 nmos_5p0
M$11 7 5 8 1 nmos_5p0 L=0.6U W=1.32U AS=0.2112P AD=0.2772P PS=1.64U PD=1.74U
* device instance $12 r0 *1 5.92,1 nmos_5p0
M$12 1 6 7 1 nmos_5p0 L=0.6U W=1.32U AS=0.2772P AD=0.5808P PS=1.74U PD=3.52U
.ENDS gf180mcu_fd_sc_mcu9t5v0__nand3_2

* cell gf180mcu_fd_sc_mcu9t5v0__oai32_2
* pin NWELL,VDD
* pin PWELL,VSS,gf180mcu_gnd
* pin A2
* pin A1
* pin A3
* pin B2
* pin ZN
* pin B1
.SUBCKT gf180mcu_fd_sc_mcu9t5v0__oai32_2 1 2 3 4 5 7 8 9
* net 1 NWELL,VDD
* net 2 PWELL,VSS,gf180mcu_gnd
* net 3 A2
* net 4 A1
* net 5 A3
* net 7 B2
* net 8 ZN
* net 9 B1
* device instance $1 r0 *1 0.97,3.78 pmos_5p0
M$1 15 5 1 1 pmos_5p0 L=0.5U W=1.83U AS=0.8052P AD=0.52155P PS=4.54U PD=2.4U
* device instance $2 r0 *1 2.04,3.78 pmos_5p0
M$2 14 3 15 1 pmos_5p0 L=0.5U W=1.83U AS=0.52155P AD=0.5673P PS=2.4U PD=2.45U
* device instance $3 r0 *1 3.16,3.78 pmos_5p0
M$3 8 4 14 1 pmos_5p0 L=0.5U W=1.83U AS=0.5673P AD=0.5673P PS=2.45U PD=2.45U
* device instance $4 r0 *1 4.28,3.78 pmos_5p0
M$4 13 4 8 1 pmos_5p0 L=0.5U W=1.83U AS=0.5673P AD=0.52155P PS=2.45U PD=2.4U
* device instance $5 r0 *1 5.35,3.78 pmos_5p0
M$5 11 3 13 1 pmos_5p0 L=0.5U W=1.83U AS=0.52155P AD=0.5673P PS=2.4U PD=2.45U
* device instance $6 r0 *1 6.47,3.78 pmos_5p0
M$6 1 5 11 1 pmos_5p0 L=0.5U W=1.83U AS=0.5673P AD=0.6588P PS=2.45U PD=2.55U
* device instance $7 r0 *1 7.69,3.78 pmos_5p0
M$7 12 7 1 1 pmos_5p0 L=0.5U W=1.83U AS=0.6588P AD=0.52155P PS=2.55U PD=2.4U
* device instance $8 r0 *1 8.76,3.78 pmos_5p0
M$8 8 9 12 1 pmos_5p0 L=0.5U W=1.83U AS=0.52155P AD=0.5673P PS=2.4U PD=2.45U
* device instance $9 r0 *1 9.88,3.78 pmos_5p0
M$9 10 9 8 1 pmos_5p0 L=0.5U W=1.83U AS=0.5673P AD=0.52155P PS=2.45U PD=2.4U
* device instance $10 r0 *1 10.95,3.78 pmos_5p0
M$10 1 7 10 1 pmos_5p0 L=0.5U W=1.83U AS=0.52155P AD=0.8052P PS=2.4U PD=4.54U
* device instance $11 r0 *1 0.92,1.005 nmos_5p0
M$11 2 5 6 2 nmos_5p0 L=0.6U W=2.64U AS=0.924P AD=0.6864P PS=5.36U PD=3.68U
* device instance $12 r0 *1 2.04,1.005 nmos_5p0
M$12 6 3 2 2 nmos_5p0 L=0.6U W=2.64U AS=0.6864P AD=0.6864P PS=3.68U PD=3.68U
* device instance $13 r0 *1 3.16,1.005 nmos_5p0
M$13 2 4 6 2 nmos_5p0 L=0.6U W=2.64U AS=0.6864P AD=0.6864P PS=3.68U PD=3.68U
* device instance $17 r0 *1 7.64,1.005 nmos_5p0
M$17 8 7 6 2 nmos_5p0 L=0.6U W=2.64U AS=0.6864P AD=1.2408P PS=3.68U PD=5.84U
* device instance $18 r0 *1 8.76,1.005 nmos_5p0
M$18 6 9 8 2 nmos_5p0 L=0.6U W=2.64U AS=0.6864P AD=0.6864P PS=3.68U PD=3.68U
.ENDS gf180mcu_fd_sc_mcu9t5v0__oai32_2

* cell gf180mcu_fd_sc_mcu9t5v0__and3_4
* pin A3
* pin A2
* pin A1
* pin PWELL,VSS,gf180mcu_gnd
* pin NWELL,VDD
* pin Z
.SUBCKT gf180mcu_fd_sc_mcu9t5v0__and3_4 1 2 3 4 5 7
* net 1 A3
* net 2 A2
* net 3 A1
* net 4 PWELL,VSS,gf180mcu_gnd
* net 5 NWELL,VDD
* net 7 Z
* device instance $1 r0 *1 0.87,3.595 pmos_5p0
M$1 6 1 5 5 pmos_5p0 L=0.5U W=2.92U AS=1.022P AD=1.0012P PS=5.78U PD=4.55U
* device instance $2 r0 *1 1.89,3.595 pmos_5p0
M$2 5 2 6 5 pmos_5p0 L=0.5U W=2.92U AS=0.7592P AD=0.7592P PS=3.96U PD=3.96U
* device instance $3 r0 *1 2.91,3.595 pmos_5p0
M$3 6 3 5 5 pmos_5p0 L=0.5U W=2.92U AS=0.7592P AD=0.7592P PS=3.96U PD=3.96U
* device instance $7 r0 *1 7.21,3.78 pmos_5p0
M$7 7 6 5 5 pmos_5p0 L=0.5U W=7.32U AS=2.049P AD=2.2326P PS=9.62U PD=11.59U
* device instance $11 r0 *1 1,1.005 nmos_5p0
M$11 11 1 4 4 nmos_5p0 L=0.6U W=1.32U AS=0.5808P AD=0.1584P PS=3.52U PD=1.56U
* device instance $12 r0 *1 1.84,1.005 nmos_5p0
M$12 10 2 11 4 nmos_5p0 L=0.6U W=1.32U AS=0.1584P AD=0.2772P PS=1.56U PD=1.74U
* device instance $13 r0 *1 2.86,1.005 nmos_5p0
M$13 6 3 10 4 nmos_5p0 L=0.6U W=1.32U AS=0.2772P AD=0.3432P PS=1.74U PD=1.84U
* device instance $14 r0 *1 3.98,1.005 nmos_5p0
M$14 9 3 6 4 nmos_5p0 L=0.6U W=1.32U AS=0.3432P AD=0.2112P PS=1.84U PD=1.64U
* device instance $15 r0 *1 4.9,1.005 nmos_5p0
M$15 8 2 9 4 nmos_5p0 L=0.6U W=1.32U AS=0.2112P AD=0.1584P PS=1.64U PD=1.56U
* device instance $16 r0 *1 5.74,1.005 nmos_5p0
M$16 4 1 8 4 nmos_5p0 L=0.6U W=1.32U AS=0.1584P AD=0.3432P PS=1.56U PD=1.84U
* device instance $17 r0 *1 6.86,1.005 nmos_5p0
M$17 7 6 4 4 nmos_5p0 L=0.6U W=5.28U AS=1.3728P AD=1.6104P PS=7.36U PD=9.04U
.ENDS gf180mcu_fd_sc_mcu9t5v0__and3_4

* cell gf180mcu_fd_sc_mcu9t5v0__oai21_4
* pin PWELL,VSS,gf180mcu_gnd
* pin B
* pin ZN
* pin A2
* pin A1
* pin NWELL,VDD
.SUBCKT gf180mcu_fd_sc_mcu9t5v0__oai21_4 1 2 4 5 6 7
* net 1 PWELL,VSS,gf180mcu_gnd
* net 2 B
* net 4 ZN
* net 5 A2
* net 6 A1
* net 7 NWELL,VDD
* device instance $1 r0 *1 0.97,3.78 pmos_5p0
M$1 8 5 7 7 pmos_5p0 L=0.5U W=1.83U AS=0.8052P AD=0.5673P PS=4.54U PD=2.45U
* device instance $2 r0 *1 2.09,3.78 pmos_5p0
M$2 4 6 8 7 pmos_5p0 L=0.5U W=1.83U AS=0.5673P AD=0.52155P PS=2.45U PD=2.4U
* device instance $3 r0 *1 3.16,3.78 pmos_5p0
M$3 10 6 4 7 pmos_5p0 L=0.5U W=1.83U AS=0.52155P AD=0.5673P PS=2.4U PD=2.45U
* device instance $4 r0 *1 4.28,3.78 pmos_5p0
M$4 7 5 10 7 pmos_5p0 L=0.5U W=1.83U AS=0.5673P AD=0.5673P PS=2.45U PD=2.45U
* device instance $5 r0 *1 5.4,3.78 pmos_5p0
M$5 9 5 7 7 pmos_5p0 L=0.5U W=1.83U AS=0.5673P AD=0.5673P PS=2.45U PD=2.45U
* device instance $6 r0 *1 6.52,3.78 pmos_5p0
M$6 4 6 9 7 pmos_5p0 L=0.5U W=1.83U AS=0.5673P AD=0.5673P PS=2.45U PD=2.45U
* device instance $7 r0 *1 7.64,3.78 pmos_5p0
M$7 11 6 4 7 pmos_5p0 L=0.5U W=1.83U AS=0.5673P AD=0.52155P PS=2.45U PD=2.4U
* device instance $8 r0 *1 8.71,3.78 pmos_5p0
M$8 7 5 11 7 pmos_5p0 L=0.5U W=1.83U AS=0.52155P AD=0.6292P PS=2.4U PD=2.55U
* device instance $9 r0 *1 9.93,3.872 pmos_5p0
M$9 4 2 7 7 pmos_5p0 L=0.5U W=6.58U AS=2.117925P AD=2.212525P PS=9.295U
+ PD=10.915U
* device instance $13 r0 *1 0.92,1.005 nmos_5p0
M$13 4 5 3 1 nmos_5p0 L=0.6U W=5.28U AS=1.6104P AD=1.3728P PS=9.04U PD=7.36U
* device instance $14 r0 *1 2.04,1.005 nmos_5p0
M$14 3 6 4 1 nmos_5p0 L=0.6U W=5.28U AS=1.3728P AD=1.3728P PS=7.36U PD=7.36U
* device instance $21 r0 *1 9.88,1.005 nmos_5p0
M$21 1 2 3 1 nmos_5p0 L=0.6U W=5.28U AS=1.3728P AD=1.6104P PS=7.36U PD=9.04U
.ENDS gf180mcu_fd_sc_mcu9t5v0__oai21_4

* cell gf180mcu_fd_sc_mcu9t5v0__oai31_2
* pin NWELL,VDD
* pin B
* pin PWELL,VSS,gf180mcu_gnd
* pin ZN
* pin A2
* pin A1
* pin A3
.SUBCKT gf180mcu_fd_sc_mcu9t5v0__oai31_2 1 2 3 4 5 6 7
* net 1 NWELL,VDD
* net 2 B
* net 3 PWELL,VSS,gf180mcu_gnd
* net 4 ZN
* net 5 A2
* net 6 A1
* net 7 A3
* device instance $1 r0 *1 0.92,3.872 pmos_5p0
M$1 4 2 1 1 pmos_5p0 L=0.5U W=3.29U AS=1.353P AD=0.93765P PS=6.72U PD=4.43U
* device instance $3 r0 *1 3.21,3.78 pmos_5p0
M$3 12 7 1 1 pmos_5p0 L=0.5U W=1.83U AS=0.6292P AD=0.52155P PS=2.55U PD=2.4U
* device instance $4 r0 *1 4.28,3.78 pmos_5p0
M$4 11 5 12 1 pmos_5p0 L=0.5U W=1.83U AS=0.52155P AD=0.5673P PS=2.4U PD=2.45U
* device instance $5 r0 *1 5.4,3.78 pmos_5p0
M$5 4 6 11 1 pmos_5p0 L=0.5U W=1.83U AS=0.5673P AD=0.5673P PS=2.45U PD=2.45U
* device instance $6 r0 *1 6.52,3.78 pmos_5p0
M$6 10 6 4 1 pmos_5p0 L=0.5U W=1.83U AS=0.5673P AD=0.5673P PS=2.45U PD=2.45U
* device instance $7 r0 *1 7.64,3.78 pmos_5p0
M$7 9 5 10 1 pmos_5p0 L=0.5U W=1.83U AS=0.5673P AD=0.52155P PS=2.45U PD=2.4U
* device instance $8 r0 *1 8.71,3.78 pmos_5p0
M$8 1 7 9 1 pmos_5p0 L=0.5U W=1.83U AS=0.52155P AD=0.8052P PS=2.4U PD=4.54U
* device instance $9 r0 *1 0.92,1.005 nmos_5p0
M$9 3 2 8 3 nmos_5p0 L=0.6U W=2.64U AS=0.924P AD=0.6864P PS=5.36U PD=3.68U
* device instance $11 r0 *1 3.16,1.005 nmos_5p0
M$11 4 7 8 3 nmos_5p0 L=0.6U W=2.64U AS=0.6864P AD=1.2342P PS=3.68U PD=5.83U
* device instance $12 r0 *1 4.28,1.005 nmos_5p0
M$12 8 5 4 3 nmos_5p0 L=0.6U W=2.64U AS=0.6864P AD=0.6864P PS=3.68U PD=3.68U
* device instance $13 r0 *1 5.4,1.005 nmos_5p0
M$13 4 6 8 3 nmos_5p0 L=0.6U W=2.64U AS=0.6864P AD=0.6864P PS=3.68U PD=3.68U
.ENDS gf180mcu_fd_sc_mcu9t5v0__oai31_2

* cell gf180mcu_fd_sc_mcu9t5v0__clkinv_3
* pin PWELL,VSS,gf180mcu_gnd
* pin NWELL,VDD
* pin I
* pin ZN
.SUBCKT gf180mcu_fd_sc_mcu9t5v0__clkinv_3 1 2 3 4
* net 1 PWELL,VSS,gf180mcu_gnd
* net 2 NWELL,VDD
* net 3 I
* net 4 ZN
* device instance $1 r0 *1 0.87,3.78 pmos_5p0
M$1 4 3 2 2 pmos_5p0 L=0.5U W=5.49U AS=1.9398P AD=1.9398P PS=9.44U PD=9.44U
* device instance $4 r0 *1 0.92,0.995 nmos_5p0
M$4 4 3 1 1 nmos_5p0 L=0.6U W=2.19U AS=0.7008P AD=0.7008P PS=4.84U PD=4.84U
.ENDS gf180mcu_fd_sc_mcu9t5v0__clkinv_3

* cell gf180mcu_fd_sc_mcu9t5v0__nor3_2
* pin ZN
* pin NWELL,VDD
* pin PWELL,VSS,gf180mcu_gnd
* pin A2
* pin A1
* pin A3
.SUBCKT gf180mcu_fd_sc_mcu9t5v0__nor3_2 1 2 3 4 5 6
* net 1 ZN
* net 2 NWELL,VDD
* net 3 PWELL,VSS,gf180mcu_gnd
* net 4 A2
* net 5 A1
* net 6 A3
* device instance $1 r0 *1 0.97,3.78 pmos_5p0
M$1 10 6 2 2 pmos_5p0 L=0.5U W=1.83U AS=0.8052P AD=0.5673P PS=4.54U PD=2.45U
* device instance $2 r0 *1 2.09,3.78 pmos_5p0
M$2 9 4 10 2 pmos_5p0 L=0.5U W=1.83U AS=0.5673P AD=0.52155P PS=2.45U PD=2.4U
* device instance $3 r0 *1 3.16,3.78 pmos_5p0
M$3 1 5 9 2 pmos_5p0 L=0.5U W=1.83U AS=0.52155P AD=0.5673P PS=2.4U PD=2.45U
* device instance $4 r0 *1 4.28,3.78 pmos_5p0
M$4 8 5 1 2 pmos_5p0 L=0.5U W=1.83U AS=0.5673P AD=0.5673P PS=2.45U PD=2.45U
* device instance $5 r0 *1 5.4,3.78 pmos_5p0
M$5 7 4 8 2 pmos_5p0 L=0.5U W=1.83U AS=0.5673P AD=0.52155P PS=2.45U PD=2.4U
* device instance $6 r0 *1 6.47,3.78 pmos_5p0
M$6 2 6 7 2 pmos_5p0 L=0.5U W=1.83U AS=0.52155P AD=0.8052P PS=2.4U PD=4.54U
* device instance $7 r0 *1 0.92,0.74 nmos_5p0
M$7 3 6 1 3 nmos_5p0 L=0.6U W=1.58U AS=0.553P AD=0.553P PS=3.77U PD=3.77U
* device instance $8 r0 *1 2.04,0.74 nmos_5p0
M$8 1 4 3 3 nmos_5p0 L=0.6U W=1.58U AS=0.4108P AD=0.4108P PS=2.62U PD=2.62U
* device instance $9 r0 *1 3.16,0.74 nmos_5p0
M$9 3 5 1 3 nmos_5p0 L=0.6U W=1.58U AS=0.4108P AD=0.4108P PS=2.62U PD=2.62U
.ENDS gf180mcu_fd_sc_mcu9t5v0__nor3_2

* cell gf180mcu_fd_sc_mcu9t5v0__oai21_2
* pin NWELL,VDD
* pin B
* pin PWELL,VSS,gf180mcu_gnd
* pin A2
* pin ZN
* pin A1
.SUBCKT gf180mcu_fd_sc_mcu9t5v0__oai21_2 1 2 3 4 5 6
* net 1 NWELL,VDD
* net 2 B
* net 3 PWELL,VSS,gf180mcu_gnd
* net 4 A2
* net 5 ZN
* net 6 A1
* device instance $1 r0 *1 0.97,3.872 pmos_5p0
M$1 5 2 1 1 pmos_5p0 L=0.5U W=3.29U AS=1.353P AD=0.8554P PS=6.72U PD=4.33U
* device instance $3 r0 *1 3.21,3.78 pmos_5p0
M$3 9 4 1 1 pmos_5p0 L=0.5U W=1.83U AS=0.6292P AD=0.52155P PS=2.55U PD=2.4U
* device instance $4 r0 *1 4.28,3.78 pmos_5p0
M$4 5 6 9 1 pmos_5p0 L=0.5U W=1.83U AS=0.52155P AD=0.5673P PS=2.4U PD=2.45U
* device instance $5 r0 *1 5.4,3.78 pmos_5p0
M$5 8 6 5 1 pmos_5p0 L=0.5U W=1.83U AS=0.5673P AD=0.52155P PS=2.45U PD=2.4U
* device instance $6 r0 *1 6.47,3.78 pmos_5p0
M$6 1 4 8 1 pmos_5p0 L=0.5U W=1.83U AS=0.52155P AD=0.8052P PS=2.4U PD=4.54U
* device instance $7 r0 *1 0.92,1.005 nmos_5p0
M$7 3 2 7 3 nmos_5p0 L=0.6U W=2.64U AS=0.924P AD=0.6864P PS=5.36U PD=3.68U
* device instance $9 r0 *1 3.16,1.005 nmos_5p0
M$9 5 4 7 3 nmos_5p0 L=0.6U W=2.64U AS=0.6864P AD=0.924P PS=3.68U PD=5.36U
* device instance $10 r0 *1 4.28,1.005 nmos_5p0
M$10 7 6 5 3 nmos_5p0 L=0.6U W=2.64U AS=0.6864P AD=0.6864P PS=3.68U PD=3.68U
.ENDS gf180mcu_fd_sc_mcu9t5v0__oai21_2

* cell gf180mcu_fd_sc_mcu9t5v0__or2_4
* pin PWELL,VSS,gf180mcu_gnd
* pin A2
* pin A1
* pin NWELL,VDD
* pin Z
.SUBCKT gf180mcu_fd_sc_mcu9t5v0__or2_4 1 2 3 4 5
* net 1 PWELL,VSS,gf180mcu_gnd
* net 2 A2
* net 3 A1
* net 4 NWELL,VDD
* net 5 Z
* device instance $1 r0 *1 0.97,3.78 pmos_5p0
M$1 8 2 4 4 pmos_5p0 L=0.5U W=1.83U AS=0.8052P AD=0.52155P PS=4.54U PD=2.4U
* device instance $2 r0 *1 2.04,3.78 pmos_5p0
M$2 6 3 8 4 pmos_5p0 L=0.5U W=1.83U AS=0.52155P AD=0.5673P PS=2.4U PD=2.45U
* device instance $3 r0 *1 3.16,3.78 pmos_5p0
M$3 7 3 6 4 pmos_5p0 L=0.5U W=1.83U AS=0.5673P AD=0.52155P PS=2.45U PD=2.4U
* device instance $4 r0 *1 4.23,3.78 pmos_5p0
M$4 4 2 7 4 pmos_5p0 L=0.5U W=1.83U AS=0.52155P AD=0.7869P PS=2.4U PD=2.69U
* device instance $5 r0 *1 5.59,3.78 pmos_5p0
M$5 5 6 4 4 pmos_5p0 L=0.5U W=7.32U AS=2.3973P AD=2.4156P PS=9.94U PD=11.79U
* device instance $9 r0 *1 0.92,1.005 nmos_5p0
M$9 6 2 1 1 nmos_5p0 L=0.6U W=2.64U AS=0.924P AD=0.7788P PS=5.36U PD=3.82U
* device instance $10 r0 *1 2.04,1.005 nmos_5p0
M$10 1 3 6 1 nmos_5p0 L=0.6U W=2.64U AS=0.6864P AD=0.6864P PS=3.68U PD=3.68U
* device instance $13 r0 *1 5.54,1.005 nmos_5p0
M$13 5 6 1 1 nmos_5p0 L=0.6U W=5.28U AS=1.4652P AD=1.6104P PS=7.5U PD=9.04U
.ENDS gf180mcu_fd_sc_mcu9t5v0__or2_4

* cell gf180mcu_fd_sc_mcu9t5v0__dffrnq_4
* pin PWELL,VSS,gf180mcu_gnd
* pin RN
* pin Q
* pin CLK
* pin D
* pin NWELL,VDD
.SUBCKT gf180mcu_fd_sc_mcu9t5v0__dffrnq_4 1 3 4 5 6 17
* net 1 PWELL,VSS,gf180mcu_gnd
* net 3 RN
* net 4 Q
* net 5 CLK
* net 6 D
* net 17 NWELL,VDD
* device instance $1 r0 *1 16.975,3.78 pmos_5p0
M$1 4 13 17 17 pmos_5p0 L=0.5U W=7.32U AS=2.2326P AD=2.2326P PS=11.59U PD=11.59U
* device instance $5 r0 *1 9.55,3.71 pmos_5p0
M$5 10 9 17 17 pmos_5p0 L=0.5U W=1U AS=0.44P AD=0.285P PS=2.88U PD=1.57U
* device instance $6 r0 *1 10.62,3.71 pmos_5p0
M$6 11 2 10 17 pmos_5p0 L=0.5U W=1U AS=0.285P AD=0.26P PS=1.57U PD=1.52U
* device instance $7 r0 *1 11.64,3.71 pmos_5p0
M$7 12 8 11 17 pmos_5p0 L=0.5U W=1U AS=0.26P AD=0.2875P PS=1.52U PD=1.575U
* device instance $8 r0 *1 12.715,3.71 pmos_5p0
M$8 12 13 17 17 pmos_5p0 L=0.5U W=1U AS=0.5457P AD=0.2875P PS=2.57U PD=1.575U
* device instance $9 r0 *1 13.955,3.78 pmos_5p0
M$9 13 3 17 17 pmos_5p0 L=0.5U W=1.83U AS=0.5457P AD=0.4758P PS=2.57U PD=2.35U
* device instance $10 r0 *1 14.975,3.78 pmos_5p0
M$10 17 11 13 17 pmos_5p0 L=0.5U W=1.83U AS=0.4758P AD=0.8052P PS=2.35U PD=4.54U
* device instance $11 r0 *1 3.73,3.41 pmos_5p0
M$11 7 6 17 17 pmos_5p0 L=0.5U W=1U AS=0.44P AD=0.26P PS=2.88U PD=1.52U
* device instance $12 r0 *1 4.75,3.41 pmos_5p0
M$12 9 8 7 17 pmos_5p0 L=0.5U W=1U AS=0.26P AD=0.26P PS=1.52U PD=1.52U
* device instance $13 r0 *1 5.77,3.41 pmos_5p0
M$13 18 2 9 17 pmos_5p0 L=0.5U W=1U AS=0.26P AD=0.26P PS=1.52U PD=1.52U
* device instance $14 r0 *1 6.79,3.41 pmos_5p0
M$14 17 10 18 17 pmos_5p0 L=0.5U W=1U AS=0.26P AD=0.26P PS=1.52U PD=1.52U
* device instance $15 r0 *1 7.81,3.41 pmos_5p0
M$15 18 3 17 17 pmos_5p0 L=0.5U W=1U AS=0.26P AD=0.44P PS=1.52U PD=2.88U
* device instance $16 r0 *1 0.97,3.555 pmos_5p0
M$16 17 5 2 17 pmos_5p0 L=0.5U W=1.38U AS=0.6072P AD=0.3588P PS=3.64U PD=1.9U
* device instance $17 r0 *1 1.99,3.555 pmos_5p0