
* cell fixed_point_sqrt
* pin x[13]
* pin x[10]
* pin y[8]
* pin y[10]
* pin clk
* pin enable
* pin reset
* pin x[11]
* pin y[1]
* pin x[15]
* pin x[14]
* pin y[11]
* pin x[12]
* pin y[0]
* pin y[3]
* pin y[2]
* pin y[4]
* pin x[8]
* pin x[9]
* pin x[4]
* pin y[5]
* pin y[9]
* pin x[1]
* pin x[7]
* pin x[3]
* pin y[7]
* pin x[0]
* pin x[6]
* pin x[5]
* pin x[2]
* pin y[15]
* pin y[13]
* pin y[6]
* pin y[14]
* pin y[12]
* pin NWELL
* pin PWELL,gf180mcu_gnd
.SUBCKT fixed_point_sqrt 1 2 3 4 11 12 19 20 42 52 53 61 64 69 70 71 84 90 96
+ 129 134 135 139 140 164 167 168 169 172 173 177 178 180 181 182 183 184
* net 1 x[13]
* net 2 x[10]
* net 3 y[8]
* net 4 y[10]
* net 11 clk
* net 12 enable
* net 19 reset
* net 20 x[11]
* net 42 y[1]
* net 52 x[15]
* net 53 x[14]
* net 61 y[11]
* net 64 x[12]
* net 69 y[0]
* net 70 y[3]
* net 71 y[2]
* net 84 y[4]
* net 90 x[8]
* net 96 x[9]
* net 129 x[4]
* net 134 y[5]
* net 135 y[9]
* net 139 x[1]
* net 140 x[7]
* net 164 x[3]
* net 167 y[7]
* net 168 x[0]
* net 169 x[6]
* net 172 x[5]
* net 173 x[2]
* net 177 y[15]
* net 178 y[13]
* net 180 y[6]
* net 181 y[14]
* net 182 y[12]
* net 183 NWELL
* net 184 PWELL,gf180mcu_gnd
* cell instance $3 m0 *1 41.44,15.12
X$3 184 183 1 7 gf180mcu_fd_sc_mcu9t5v0__clkbuf_4
* cell instance $7 r0 *1 47.6,5.04
X$7 184 183 2 13 gf180mcu_fd_sc_mcu9t5v0__clkbuf_4
* cell instance $10 r0 *1 109.2,5.04
X$10 5 183 184 3 gf180mcu_fd_sc_mcu9t5v0__dlyb_2
* cell instance $14 r0 *1 121.52,5.04
X$14 6 183 184 4 gf180mcu_fd_sc_mcu9t5v0__dlyb_2
* cell instance $18 m0 *1 99.12,65.52
X$18 184 5 10 39 183 gf180mcu_fd_sc_mcu9t5v0__dffq_2
* cell instance $21 r0 *1 108.08,55.44
X$21 184 183 28 8 5 gf180mcu_fd_sc_mcu9t5v0__nor2_2
* cell instance $25 m0 *1 115.36,45.36
X$25 184 183 18 6 8 gf180mcu_fd_sc_mcu9t5v0__nor2_2
* cell instance $29 r0 *1 111.44,45.36
X$29 184 6 10 17 183 gf180mcu_fd_sc_mcu9t5v0__dffq_2
* cell instance $36 r0 *1 64.96,75.6
X$36 184 55 183 75 27 7 gf180mcu_fd_sc_mcu9t5v0__aoi21_2
* cell instance $38 m0 *1 10.64,75.6
X$38 184 38 36 45 65 7 183 gf180mcu_fd_sc_mcu9t5v0__nor4_4
* cell instance $41 r0 *1 68.88,45.36
X$41 13 184 9 7 183 14 gf180mcu_fd_sc_mcu9t5v0__or3_2
* cell instance $44 m0 *1 62.16,75.6
X$44 7 184 36 55 183 56 gf180mcu_fd_sc_mcu9t5v0__or3_2
* cell instance $46 r0 *1 82.88,45.36
X$46 184 13 7 183 16 gf180mcu_fd_sc_mcu9t5v0__or2_2
* cell instance $49 r0 *1 40.32,65.52
X$49 184 7 183 50 37 51 gf180mcu_fd_sc_mcu9t5v0__aoi21_2
* cell instance $51 m0 *1 21.28,65.52
X$51 26 13 30 7 184 183 102 gf180mcu_fd_sc_mcu9t5v0__and4_2
* cell instance $53 r0 *1 75.6,45.36
X$53 184 15 13 183 9 7 gf180mcu_fd_sc_mcu9t5v0__nand3_2
* cell instance $64 r0 *1 156.8,45.36
X$64 184 183 12 8 gf180mcu_fd_sc_mcu9t5v0__clkbuf_4
* cell instance $67 m0 *1 111.44,55.44
X$67 38 8 18 17 23 183 184 gf180mcu_fd_sc_mcu9t5v0__aoi211_2
* cell instance $70 r0 *1 114.8,85.68
X$70 184 183 23 8 81 gf180mcu_fd_sc_mcu9t5v0__nor2_4
* cell instance $72 m0 *1 113.68,85.68
X$72 183 8 76 184 57 gf180mcu_fd_sc_mcu9t5v0__and2_2
* cell instance $74 m0 *1 103.04,85.68
X$74 184 183 8 77 76 gf180mcu_fd_sc_mcu9t5v0__nand2_2
* cell instance $76 r0 *1 111.44,75.6
X$76 184 183 8 58 gf180mcu_fd_sc_mcu9t5v0__inv_2
* cell instance $85 r0 *1 66.64,55.44
X$85 184 27 9 183 21 29 gf180mcu_fd_sc_mcu9t5v0__nand3_2
* cell instance $90 r0 *1 47.6,55.44
X$90 184 183 30 9 gf180mcu_fd_sc_mcu9t5v0__clkinv_2
* cell instance $92 r0 *1 75.04,55.44
X$92 184 183 13 32 9 gf180mcu_fd_sc_mcu9t5v0__nand2_2
* cell instance $97 m0 *1 118.72,65.52
X$97 184 183 10 gf180mcu_fd_sc_mcu9t5v0__clkinv_1
* cell instance $100 r0 *1 118.72,55.44
X$100 184 183 79 10 gf180mcu_fd_sc_mcu9t5v0__clkbuf_4
* cell instance $102 r0 *1 139.44,75.6
X$102 184 59 10 62 183 gf180mcu_fd_sc_mcu9t5v0__dffq_2
* cell instance $104 m0 *1 121.52,65.52
X$104 184 41 10 40 183 gf180mcu_fd_sc_mcu9t5v0__dffq_2
* cell instance $113 m0 *1 120.4,85.68
X$113 184 183 11 79 gf180mcu_fd_sc_mcu9t5v0__clkbuf_4
* cell instance $124 m0 *1 56.56,65.52
X$124 25 184 26 13 183 34 gf180mcu_fd_sc_mcu9t5v0__or3_2
* cell instance $126 r0 *1 52.64,55.44
X$126 183 13 184 26 29 25 gf180mcu_fd_sc_mcu9t5v0__oai21_2
* cell instance $128 r0 *1 38.08,55.44
X$128 184 183 13 24 gf180mcu_fd_sc_mcu9t5v0__clkinv_2
* cell instance $130 m0 *1 28.56,65.52
X$130 184 183 30 13 46 gf180mcu_fd_sc_mcu9t5v0__nor2_4
* cell instance $145 m0 *1 75.6,55.44
X$145 184 22 183 31 14 15 gf180mcu_fd_sc_mcu9t5v0__aoi21_2
* cell instance $152 m0 *1 82.88,55.44
X$152 184 22 183 33 16 15 gf180mcu_fd_sc_mcu9t5v0__aoi21_2
* cell instance $161 m0 *1 153.44,55.44
X$161 184 183 19 23 gf180mcu_fd_sc_mcu9t5v0__buf_4
* cell instance $164 r0 *1 7.28,55.44
X$164 20 183 184 30 gf180mcu_fd_sc_mcu9t5v0__buf_2
* cell instance $169 r0 *1 62.16,55.44
X$169 184 183 36 21 gf180mcu_fd_sc_mcu9t5v0__clkinv_2
* cell instance $171 m0 *1 68.32,55.44
X$171 184 183 26 22 21 gf180mcu_fd_sc_mcu9t5v0__nand2_2
* cell instance $180 r0 *1 101.92,65.52
X$180 44 63 28 39 23 183 184 gf180mcu_fd_sc_mcu9t5v0__aoi211_2
* cell instance $183 r0 *1 106.4,85.68
X$183 184 183 126 23 77 gf180mcu_fd_sc_mcu9t5v0__nor2_2
* cell instance $185 r0 *1 133.84,75.6
X$185 184 183 62 23 73 gf180mcu_fd_sc_mcu9t5v0__nor2_2
* cell instance $187 r0 *1 133.84,85.68
X$187 184 183 86 23 87 gf180mcu_fd_sc_mcu9t5v0__nor2_2
* cell instance $189 m0 *1 108.08,85.68
X$189 184 23 77 183 78 gf180mcu_fd_sc_mcu9t5v0__or2_2
* cell instance $193 r0 *1 122.64,65.52
X$193 184 183 40 23 49 gf180mcu_fd_sc_mcu9t5v0__nor2_2
* cell instance $203 m0 *1 38.64,65.52
X$203 26 24 30 36 183 184 37 gf180mcu_fd_sc_mcu9t5v0__or4_2
* cell instance $206 m0 *1 46.48,65.52
X$206 184 183 24 35 30 gf180mcu_fd_sc_mcu9t5v0__nand2_2
* cell instance $211 m0 *1 47.6,95.76
X$211 98 184 93 25 183 112 gf180mcu_fd_sc_mcu9t5v0__or3_2
* cell instance $214 m0 *1 35.28,75.6
X$214 184 183 25 72 gf180mcu_fd_sc_mcu9t5v0__clkinv_2
* cell instance $216 r0 *1 40.88,95.76
X$216 183 98 25 184 99 gf180mcu_fd_sc_mcu9t5v0__and2_2
* cell instance $219 r0 *1 8.96,95.76
X$219 96 183 184 25 gf180mcu_fd_sc_mcu9t5v0__buf_2
* cell instance $227 m0 *1 14.56,95.76
X$227 184 183 90 26 gf180mcu_fd_sc_mcu9t5v0__clkbuf_4
* cell instance $230 m0 *1 66.08,65.52
X$230 184 183 43 35 26 32 gf180mcu_fd_sc_mcu9t5v0__mux2_2
* cell instance $235 m0 *1 40.88,75.6
X$235 184 183 26 54 gf180mcu_fd_sc_mcu9t5v0__clkinv_2
* cell instance $239 m0 *1 59.36,95.76
X$239 184 183 113 93 26 gf180mcu_fd_sc_mcu9t5v0__nor2_2
* cell instance $269 m0 *1 73.92,75.6
X$269 183 47 184 31 120 50 gf180mcu_fd_sc_mcu9t5v0__oai21_2
* cell instance $274 m0 *1 74.48,65.52
X$274 184 44 94 32 38 183 34 gf180mcu_fd_sc_mcu9t5v0__nand4_2
* cell instance $279 m0 *1 92.4,75.6
X$279 33 47 58 63 48 183 184 gf180mcu_fd_sc_mcu9t5v0__aoi211_2
* cell instance $291 m0 *1 44.24,75.6
X$291 184 51 54 183 36 46 gf180mcu_fd_sc_mcu9t5v0__nand3_2
* cell instance $297 m0 *1 10.64,85.68
X$297 106 36 45 65 184 183 95 gf180mcu_fd_sc_mcu9t5v0__and4_2
* cell instance $300 m0 *1 2.8,75.6
X$300 184 183 64 36 gf180mcu_fd_sc_mcu9t5v0__clkbuf_3
* cell instance $311 r0 *1 50.4,75.6
X$311 184 183 38 66 46 gf180mcu_fd_sc_mcu9t5v0__nand2_2
* cell instance $313 r0 *1 57.68,75.6
X$313 183 38 46 184 67 gf180mcu_fd_sc_mcu9t5v0__and2_2
* cell instance $317 r0 *1 26.32,75.6
X$317 184 38 46 54 72 110 183 gf180mcu_fd_sc_mcu9t5v0__nand4_4
* cell instance $330 m0 *1 155.12,65.52
X$330 41 183 184 42 gf180mcu_fd_sc_mcu9t5v0__dlyb_2
* cell instance $332 m0 *1 120.4,75.6
X$332 184 48 183 57 49 41 58 gf180mcu_fd_sc_mcu9t5v0__aoi22_2
* cell instance $340 r0 *1 71.12,85.68
X$340 88 183 184 74 56 43 gf180mcu_fd_sc_mcu9t5v0__nor3_2
* cell instance $349 r0 *1 2.8,75.6
X$349 53 183 184 45 gf180mcu_fd_sc_mcu9t5v0__dlyb_2
* cell instance $351 r0 *1 12.32,75.6
X$351 184 45 65 183 55 gf180mcu_fd_sc_mcu9t5v0__or2_2
* cell instance $370 r0 *1 72.24,75.6
X$370 184 183 47 55 74 gf180mcu_fd_sc_mcu9t5v0__nor2_2
* cell instance $376 m0 *1 89.04,85.68
X$376 184 183 80 48 gf180mcu_fd_sc_mcu9t5v0__clkinv_2
* cell instance $387 m0 *1 2.24,85.68
X$387 52 183 184 65 gf180mcu_fd_sc_mcu9t5v0__dlyb_2
* cell instance $392 m0 *1 52.08,85.68
X$392 54 184 74 66 183 76 gf180mcu_fd_sc_mcu9t5v0__or3_2
* cell instance $409 m0 *1 72.8,95.76
X$409 75 56 82 104 67 183 184 gf180mcu_fd_sc_mcu9t5v0__aoi211_2
* cell instance $415 r0 *1 124.88,85.68
X$415 184 89 183 57 87 83 58 gf180mcu_fd_sc_mcu9t5v0__aoi22_2
* cell instance $417 r0 *1 124.88,75.6
X$417 184 82 183 57 73 59 58 gf180mcu_fd_sc_mcu9t5v0__aoi22_2
* cell instance $435 r0 *1 164.64,75.6
X$435 59 183 184 68 gf180mcu_fd_sc_mcu9t5v0__dlyb_2
* cell instance $438 m0 *1 164.64,75.6
X$438 59 183 184 61 gf180mcu_fd_sc_mcu9t5v0__dlyb_2
* cell instance $440 m0 *1 164.64,85.68
X$440 59 183 184 85 gf180mcu_fd_sc_mcu9t5v0__dlyb_2
* cell instance $443 m0 *1 173.6,85.68
X$443 59 183 184 60 gf180mcu_fd_sc_mcu9t5v0__dlyb_2
* cell instance $448 m0 *1 176.4,75.6
X$448 60 183 184 69 gf180mcu_fd_sc_mcu9t5v0__dlyb_2
* cell instance $472 r0 *1 58.24,95.76
X$472 128 67 99 113 184 183 100 gf180mcu_fd_sc_mcu9t5v0__and4_2
* cell instance $477 r0 *1 173.04,75.6
X$477 68 183 184 70 gf180mcu_fd_sc_mcu9t5v0__dlyb_2
* cell instance $484 r0 *1 176.4,85.68
X$484 85 183 184 71 gf180mcu_fd_sc_mcu9t5v0__dlyb_2
* cell instance $494 r0 *1 48.16,95.76
X$494 107 109 111 112 183 184 74 gf180mcu_fd_sc_mcu9t5v0__or4_2
* cell instance $502 m0 *1 74.48,105.84
X$502 184 115 119 183 120 75 gf180mcu_fd_sc_mcu9t5v0__nand3_2
* cell instance $519 r0 *1 121.52,115.92
X$519 183 154 184 157 155 78 gf180mcu_fd_sc_mcu9t5v0__oai21_2
* cell instance $522 m0 *1 123.76,105.84
X$522 183 116 184 101 124 78 gf180mcu_fd_sc_mcu9t5v0__oai21_2
* cell instance $525 r0 *1 90.72,115.92
X$525 183 160 184 158 147 78 143 gf180mcu_fd_sc_mcu9t5v0__oai31_2
* cell instance $528 m0 *1 98,105.84
X$528 183 117 184 121 119 78 118 gf180mcu_fd_sc_mcu9t5v0__oai31_2
* cell instance $536 m0 *1 119.28,115.92
X$536 184 183 79 123 gf180mcu_fd_sc_mcu9t5v0__clkbuf_4
* cell instance $539 r0 *1 82.32,115.92
X$539 80 183 110 120 184 147 gf180mcu_fd_sc_mcu9t5v0__and3_2
* cell instance $541 r0 *1 76.16,115.92
X$541 80 183 146 115 184 157 gf180mcu_fd_sc_mcu9t5v0__and3_2
* cell instance $544 r0 *1 79.52,85.68
X$544 184 183 80 89 105 gf180mcu_fd_sc_mcu9t5v0__nand2_2
* cell instance $546 r0 *1 72.24,95.76
X$546 184 183 80 100 82 gf180mcu_fd_sc_mcu9t5v0__nor2_2
* cell instance $554 m0 *1 118.72,105.84
X$554 184 183 133 116 81 gf180mcu_fd_sc_mcu9t5v0__nand2_2
* cell instance $557 m0 *1 117.04,126
X$557 184 183 156 154 81 gf180mcu_fd_sc_mcu9t5v0__nand2_2
* cell instance $560 r0 *1 111.44,115.92
X$560 184 183 166 160 81 gf180mcu_fd_sc_mcu9t5v0__nand2_2
* cell instance $562 m0 *1 108.08,105.84
X$562 184 125 183 126 117 81 122 gf180mcu_fd_sc_mcu9t5v0__aoi22_2
* cell instance $565 m0 *1 25.2,95.76
X$565 95 102 91 92 184 183 82 gf180mcu_fd_sc_mcu9t5v0__and4_2
* cell instance $568 r0 *1 78.96,105.84
X$568 184 82 127 183 125 gf180mcu_fd_sc_mcu9t5v0__or2_2
* cell instance $571 m0 *1 67.2,115.92
X$571 184 132 183 145 82 94 143 138 gf180mcu_fd_sc_mcu9t5v0__aoi221_2
* cell instance $574 m0 *1 82.88,95.76
X$574 104 94 88 101 82 183 184 gf180mcu_fd_sc_mcu9t5v0__aoi211_2
* cell instance $586 r0 *1 140.56,85.68
X$586 184 83 123 86 183 gf180mcu_fd_sc_mcu9t5v0__dffq_2
* cell instance $589 r0 *1 157.36,85.68
X$589 83 183 184 84 gf180mcu_fd_sc_mcu9t5v0__dlyb_2
* cell instance $618 m0 *1 14.56,105.84
X$618 97 107 114 93 184 183 91 gf180mcu_fd_sc_mcu9t5v0__and4_2
* cell instance $623 m0 *1 29.12,105.84
X$623 130 183 131 99 184 92 gf180mcu_fd_sc_mcu9t5v0__and3_2
* cell instance $628 m0 *1 2.24,136.08
X$628 184 183 169 93 gf180mcu_fd_sc_mcu9t5v0__clkbuf_3
* cell instance $632 r0 *1 17.92,95.76
X$632 107 184 98 93 183 103 gf180mcu_fd_sc_mcu9t5v0__or3_2
* cell instance $636 m0 *1 54.88,105.84
X$636 98 184 93 110 183 119 gf180mcu_fd_sc_mcu9t5v0__or3_2
* cell instance $638 r0 *1 39.76,126
X$638 97 184 93 183 152 gf180mcu_fd_sc_mcu9t5v0__xor2_2
* cell instance $641 m0 *1 53.76,126
X$641 184 183 93 162 153 gf180mcu_fd_sc_mcu9t5v0__nand2_2
* cell instance $651 r0 *1 70,115.92
X$651 120 183 144 146 184 94 gf180mcu_fd_sc_mcu9t5v0__and3_2
* cell instance $653 m0 *1 94.64,105.84
X$653 184 183 94 118 gf180mcu_fd_sc_mcu9t5v0__clkinv_2
* cell instance $667 r0 *1 18.48,126
X$667 183 97 184 141 150 114 gf180mcu_fd_sc_mcu9t5v0__oai21_2
* cell instance $669 m0 *1 14.56,115.92
X$669 184 97 114 183 142 gf180mcu_fd_sc_mcu9t5v0__or2_2
* cell instance $671 m0 *1 21.84,105.84
X$671 97 184 114 106 183 111 gf180mcu_fd_sc_mcu9t5v0__or3_2
* cell instance $673 m0 *1 10.08,136.08
X$673 183 97 184 170 149 165 gf180mcu_fd_sc_mcu9t5v0__oai21_2
* cell instance $676 r0 *1 24.64,95.76
X$676 184 183 97 108 114 gf180mcu_fd_sc_mcu9t5v0__nand2_2
* cell instance $678 m0 *1 35.28,126
X$678 183 97 165 184 151 gf180mcu_fd_sc_mcu9t5v0__and2_2
* cell instance $680 r0 *1 2.24,136.08
X$680 184 183 168 97 gf180mcu_fd_sc_mcu9t5v0__clkbuf_3
* cell instance $694 m0 *1 3.36,115.92
X$694 140 183 184 98 gf180mcu_fd_sc_mcu9t5v0__clkbuf_2
* cell instance $699 r0 *1 45.92,115.92
X$699 184 183 153 107 98 gf180mcu_fd_sc_mcu9t5v0__nor2_2
* cell instance $721 r0 *1 75.04,105.84
X$721 184 183 100 138 gf180mcu_fd_sc_mcu9t5v0__clkinv_2
* cell instance $730 r0 *1 21.84,105.84
X$730 131 106 103 136 183 184 137 gf180mcu_fd_sc_mcu9t5v0__or4_2
* cell instance $734 r0 *1 30.8,95.76
X$734 109 108 110 103 183 184 105 gf180mcu_fd_sc_mcu9t5v0__or4_2
* cell instance $736 r0 *1 31.36,105.84
X$736 184 183 132 110 103 gf180mcu_fd_sc_mcu9t5v0__nor2_2
* cell instance $753 r0 *1 2.8,105.84
X$753 129 183 184 106 gf180mcu_fd_sc_mcu9t5v0__dlyb_2
* cell instance $756 m0 *1 10.64,115.92
X$756 184 183 106 141 gf180mcu_fd_sc_mcu9t5v0__clkinv_2
* cell instance $761 m0 *1 8.96,126
X$761 139 183 184 107 gf180mcu_fd_sc_mcu9t5v0__clkbuf_2
* cell instance $766 m0 *1 47.04,105.84
X$766 128 183 184 109 107 111 gf180mcu_fd_sc_mcu9t5v0__nor3_2
* cell instance $779 m0 *1 20.16,115.92
X$779 184 183 136 142 130 108 gf180mcu_fd_sc_mcu9t5v0__mux2_2
* cell instance $783 m0 *1 25.76,126
X$783 184 130 131 183 109 gf180mcu_fd_sc_mcu9t5v0__or2_2
* cell instance $787 r0 *1 10.64,126
X$787 170 183 184 141 171 109 gf180mcu_fd_sc_mcu9t5v0__nor3_2
* cell instance $789 m0 *1 16.24,126
X$789 184 109 183 159 150 142 gf180mcu_fd_sc_mcu9t5v0__aoi21_2
* cell instance $792 r0 *1 13.44,115.92
X$792 183 149 184 145 109 141 142 gf180mcu_fd_sc_mcu9t5v0__oai31_2
* cell instance $806 r0 *1 51.52,115.92
X$806 111 110 163 162 183 184 146 gf180mcu_fd_sc_mcu9t5v0__or4_2
* cell instance $808 r0 *1 39.76,105.84
X$808 184 110 183 127 137 161 gf180mcu_fd_sc_mcu9t5v0__aoi21_2
* cell instance $820 r0 *1 27.44,115.92
X$820 184 183 148 131 111 gf180mcu_fd_sc_mcu9t5v0__nor2_2
* cell instance $836 r0 *1 17.92,136.08
X$836 164 183 184 114 gf180mcu_fd_sc_mcu9t5v0__buf_2
* cell instance $840 r0 *1 7.28,126
X$840 184 183 114 171 gf180mcu_fd_sc_mcu9t5v0__clkinv_2
* cell instance $873 r0 *1 103.6,105.84
X$873 184 122 123 121 183 gf180mcu_fd_sc_mcu9t5v0__dffq_2
* cell instance $876 r0 *1 163.52,105.84
X$876 122 183 184 134 gf180mcu_fd_sc_mcu9t5v0__dlyb_2
* cell instance $887 r0 *1 125.44,105.84
X$887 184 133 123 124 183 gf180mcu_fd_sc_mcu9t5v0__dffq_2
* cell instance $890 m0 *1 98,126
X$890 184 166 123 158 183 gf180mcu_fd_sc_mcu9t5v0__dffq_2
* cell instance $893 m0 *1 122.08,126
X$893 184 156 123 155 183 gf180mcu_fd_sc_mcu9t5v0__dffq_2
* cell instance $917 m0 *1 8.4,146.16
X$917 173 183 184 130 gf180mcu_fd_sc_mcu9t5v0__clkbuf_2
* cell instance $919 r0 *1 30.24,126
X$919 130 184 131 183 163 gf180mcu_fd_sc_mcu9t5v0__xor2_2
* cell instance $923 m0 *1 17.92,136.08
X$923 171 130 131 141 184 183 165 gf180mcu_fd_sc_mcu9t5v0__and4_2
* cell instance $940 r0 *1 10.08,136.08
X$940 172 183 184 131 gf180mcu_fd_sc_mcu9t5v0__buf_2
* cell instance $946 r0 *1 33.04,115.92
X$946 183 132 184 144 151 159 148 gf180mcu_fd_sc_mcu9t5v0__oai31_2
* cell instance $954 r0 *1 171.92,105.84
X$954 133 183 184 135 gf180mcu_fd_sc_mcu9t5v0__dlyb_2
* cell instance $1024 m0 *1 44.24,126
X$1024 184 161 165 183 153 152 gf180mcu_fd_sc_mcu9t5v0__nand3_2
* cell instance $1038 m0 *1 157.92,126
X$1038 156 183 184 167 gf180mcu_fd_sc_mcu9t5v0__dlyb_2
* cell instance $1080 r0 *1 112,176.4
X$1080 166 183 184 180 gf180mcu_fd_sc_mcu9t5v0__dlyb_2
* cell instance $1102 r0 *1 54.32,166.32
X$1102 184 183 174 gf180mcu_fd_sc_mcu9t5v0__tiel
* cell instance $1104 r0 *1 56.56,166.32
X$1104 174 178 183 184 gf180mcu_fd_sc_mcu9t5v0__dlya_4
* cell instance $1106 m0 *1 48.16,176.4
X$1106 175 177 183 184 gf180mcu_fd_sc_mcu9t5v0__dlya_4
* cell instance $1108 m0 *1 45.92,176.4
X$1108 184 183 175 gf180mcu_fd_sc_mcu9t5v0__tiel
* cell instance $1110 r0 *1 64.96,176.4
X$1110 176 181 183 184 gf180mcu_fd_sc_mcu9t5v0__dlya_4
* cell instance $1112 m0 *1 64.96,176.4
X$1112 184 183 176 gf180mcu_fd_sc_mcu9t5v0__tiel
* cell instance $3648 r0 *1 54.32,176.4
X$3648 179 182 183 184 gf180mcu_fd_sc_mcu9t5v0__dlya_4
* cell instance $3650 r0 *1 52.08,176.4
X$3650 184 183 179 gf180mcu_fd_sc_mcu9t5v0__tiel
.ENDS fixed_point_sqrt

* cell gf180mcu_fd_sc_mcu9t5v0__clkinv_1
* pin PWELL,VSS,gf180mcu_gnd
* pin NWELL,VDD
* pin I
.SUBCKT gf180mcu_fd_sc_mcu9t5v0__clkinv_1 1 2 3
* net 1 PWELL,VSS,gf180mcu_gnd
* net 2 NWELL,VDD
* net 3 I
* net 4 ZN
* device instance $1 r0 *1 0.87,3.78 pmos_5p0
M$1 4 3 2 2 pmos_5p0 L=0.5U W=1.83U AS=0.8052P AD=0.8052P PS=4.54U PD=4.54U
* device instance $2 r0 *1 0.92,1.3 nmos_5p0
M$2 4 3 1 1 nmos_5p0 L=0.6U W=0.73U AS=0.3212P AD=0.3212P PS=2.34U PD=2.34U
.ENDS gf180mcu_fd_sc_mcu9t5v0__clkinv_1

* cell gf180mcu_fd_sc_mcu9t5v0__inv_2
* pin PWELL,VSS,gf180mcu_gnd
* pin NWELL,VDD
* pin I
* pin ZN
.SUBCKT gf180mcu_fd_sc_mcu9t5v0__inv_2 1 2 3 4
* net 1 PWELL,VSS,gf180mcu_gnd
* net 2 NWELL,VDD
* net 3 I
* net 4 ZN
* device instance $1 r0 *1 0.87,3.78 pmos_5p0
M$1 4 3 2 2 pmos_5p0 L=0.5U W=3.66U AS=1.39995P AD=1.7385P PS=7.02U PD=7.39U
* device instance $3 r0 *1 0.92,1.005 nmos_5p0
M$3 4 3 1 1 nmos_5p0 L=0.6U W=2.64U AS=0.9438P AD=0.9438P PS=5.39U PD=5.39U
.ENDS gf180mcu_fd_sc_mcu9t5v0__inv_2

* cell gf180mcu_fd_sc_mcu9t5v0__buf_4
* pin PWELL,VSS,gf180mcu_gnd
* pin NWELL,VDD
* pin I
* pin Z
.SUBCKT gf180mcu_fd_sc_mcu9t5v0__buf_4 1 2 3 5
* net 1 PWELL,VSS,gf180mcu_gnd
* net 2 NWELL,VDD
* net 3 I
* net 5 Z
* device instance $1 r0 *1 0.87,3.78 pmos_5p0
M$1 4 3 2 2 pmos_5p0 L=0.5U W=3.66U AS=1.3725P AD=1.1346P PS=6.99U PD=4.9U
* device instance $3 r0 *1 3.11,3.78 pmos_5p0
M$3 5 4 2 2 pmos_5p0 L=0.5U W=7.32U AS=2.2692P AD=2.5071P PS=9.8U PD=11.89U
* device instance $7 r0 *1 0.92,1.005 nmos_5p0
M$7 4 3 1 1 nmos_5p0 L=0.6U W=2.64U AS=0.924P AD=0.6864P PS=5.36U PD=3.68U
* device instance $9 r0 *1 3.16,1.005 nmos_5p0
M$9 5 4 1 1 nmos_5p0 L=0.6U W=5.28U AS=1.3728P AD=1.6104P PS=7.36U PD=9.04U
.ENDS gf180mcu_fd_sc_mcu9t5v0__buf_4

* cell gf180mcu_fd_sc_mcu9t5v0__nand4_4
* pin PWELL,VSS,gf180mcu_gnd
* pin A3
* pin A4
* pin A2
* pin A1
* pin ZN
* pin NWELL,VDD
.SUBCKT gf180mcu_fd_sc_mcu9t5v0__nand4_4 1 3 4 5 6 16 17
* net 1 PWELL,VSS,gf180mcu_gnd
* net 3 A3
* net 4 A4
* net 5 A2
* net 6 A1
* net 16 ZN
* net 17 NWELL,VDD
* device instance $1 r0 *1 0.87,4.055 pmos_5p0
M$1 16 3 17 17 pmos_5p0 L=0.5U W=5.12U AS=1.5616P AD=1.3312P PS=8.84U PD=7.2U
* device instance $2 r0 *1 1.89,4.055 pmos_5p0
M$2 17 4 16 17 pmos_5p0 L=0.5U W=5.12U AS=1.3312P AD=1.3312P PS=7.2U PD=7.2U
* device instance $9 r0 *1 9.03,4.055 pmos_5p0
M$9 16 5 17 17 pmos_5p0 L=0.5U W=5.12U AS=1.3312P AD=1.5616P PS=7.2U PD=8.84U
* device instance $10 r0 *1 10.05,4.055 pmos_5p0
M$10 17 6 16 17 pmos_5p0 L=0.5U W=5.12U AS=1.3312P AD=1.3312P PS=7.2U PD=7.2U
* device instance $17 r0 *1 0.92,1.005 nmos_5p0
M$17 7 3 2 1 nmos_5p0 L=0.6U W=1.32U AS=0.5808P AD=0.2112P PS=3.52U PD=1.64U
* device instance $18 r0 *1 1.84,1.005 nmos_5p0
M$18 1 4 7 1 nmos_5p0 L=0.6U W=1.32U AS=0.2112P AD=0.3432P PS=1.64U PD=1.84U
* device instance $19 r0 *1 2.96,1.005 nmos_5p0
M$19 9 4 1 1 nmos_5p0 L=0.6U W=1.32U AS=0.3432P AD=0.2112P PS=1.84U PD=1.64U
* device instance $20 r0 *1 3.88,1.005 nmos_5p0
M$20 2 3 9 1 nmos_5p0 L=0.6U W=1.32U AS=0.2112P AD=0.3432P PS=1.64U PD=1.84U
* device instance $21 r0 *1 5,1.005 nmos_5p0
M$21 8 3 2 1 nmos_5p0 L=0.6U W=1.32U AS=0.3432P AD=0.2112P PS=1.84U PD=1.64U
* device instance $22 r0 *1 5.92,1.005 nmos_5p0
M$22 1 4 8 1 nmos_5p0 L=0.6U W=1.32U AS=0.2112P AD=0.3432P PS=1.64U PD=1.84U
* device instance $23 r0 *1 7.04,1.005 nmos_5p0
M$23 12 4 1 1 nmos_5p0 L=0.6U W=1.32U AS=0.3432P AD=0.2442P PS=1.84U PD=1.69U
* device instance $24 r0 *1 8.01,1.005 nmos_5p0
M$24 11 3 12 1 nmos_5p0 L=0.6U W=1.32U AS=0.2442P AD=0.2772P PS=1.69U PD=1.74U
* device instance $25 r0 *1 9.03,1.005 nmos_5p0
M$25 14 5 11 1 nmos_5p0 L=0.6U W=1.32U AS=0.2772P AD=0.2442P PS=1.74U PD=1.69U
* device instance $26 r0 *1 10,1.005 nmos_5p0
M$26 16 6 14 1 nmos_5p0 L=0.6U W=1.32U AS=0.2442P AD=0.3432P PS=1.69U PD=1.84U
* device instance $27 r0 *1 11.12,1.005 nmos_5p0
M$27 15 6 16 1 nmos_5p0 L=0.6U W=1.32U AS=0.3432P AD=0.2112P PS=1.84U PD=1.64U
* device instance $28 r0 *1 12.04,1.005 nmos_5p0
M$28 2 5 15 1 nmos_5p0 L=0.6U W=1.32U AS=0.2112P AD=0.3432P PS=1.64U PD=1.84U
* device instance $29 r0 *1 13.16,1.005 nmos_5p0
M$29 10 5 2 1 nmos_5p0 L=0.6U W=1.32U AS=0.3432P AD=0.2112P PS=1.84U PD=1.64U
* device instance $30 r0 *1 14.08,1.005 nmos_5p0
M$30 16 6 10 1 nmos_5p0 L=0.6U W=1.32U AS=0.2112P AD=0.3432P PS=1.64U PD=1.84U
* device instance $31 r0 *1 15.2,1.005 nmos_5p0
M$31 13 6 16 1 nmos_5p0 L=0.6U W=1.32U AS=0.3432P AD=0.2112P PS=1.84U PD=1.64U
* device instance $32 r0 *1 16.12,1.005 nmos_5p0
M$32 2 5 13 1 nmos_5p0 L=0.6U W=1.32U AS=0.2112P AD=0.5808P PS=1.64U PD=3.52U
.ENDS gf180mcu_fd_sc_mcu9t5v0__nand4_4

* cell gf180mcu_fd_sc_mcu9t5v0__nor4_4
* pin PWELL,VSS,gf180mcu_gnd
* pin ZN
* pin A2
* pin A3
* pin A4
* pin A1
* pin NWELL,VDD
.SUBCKT gf180mcu_fd_sc_mcu9t5v0__nor4_4 1 2 3 4 5 6 8
* net 1 PWELL,VSS,gf180mcu_gnd
* net 2 ZN
* net 3 A2
* net 4 A3
* net 5 A4
* net 6 A1
* net 8 NWELL,VDD
* device instance $1 r0 *1 1.285,3.78 pmos_5p0
M$1 9 4 7 8 pmos_5p0 L=0.5U W=1.83U AS=0.8052P AD=0.52155P PS=4.54U PD=2.4U
* device instance $2 r0 *1 2.355,3.78 pmos_5p0
M$2 8 5 9 8 pmos_5p0 L=0.5U W=1.83U AS=0.52155P AD=0.5673P PS=2.4U PD=2.45U
* device instance $3 r0 *1 3.475,3.78 pmos_5p0
M$3 10 5 8 8 pmos_5p0 L=0.5U W=1.83U AS=0.5673P AD=0.732P PS=2.45U PD=2.63U
* device instance $4 r0 *1 4.775,3.78 pmos_5p0
M$4 7 4 10 8 pmos_5p0 L=0.5U W=1.83U AS=0.732P AD=0.732P PS=2.63U PD=2.63U
* device instance $5 r0 *1 6.075,3.78 pmos_5p0
M$5 11 4 7 8 pmos_5p0 L=0.5U W=1.83U AS=0.732P AD=0.5673P PS=2.63U PD=2.45U
* device instance $6 r0 *1 7.195,3.78 pmos_5p0
M$6 8 5 11 8 pmos_5p0 L=0.5U W=1.83U AS=0.5673P AD=0.5673P PS=2.45U PD=2.45U
* device instance $7 r0 *1 8.315,3.78 pmos_5p0
M$7 14 5 8 8 pmos_5p0 L=0.5U W=1.83U AS=0.5673P AD=0.732P PS=2.45U PD=2.63U
* device instance $8 r0 *1 9.615,3.78 pmos_5p0
M$8 13 4 14 8 pmos_5p0 L=0.5U W=1.83U AS=0.732P AD=0.732P PS=2.63U PD=2.63U
* device instance $9 r0 *1 10.915,3.78 pmos_5p0
M$9 12 3 13 8 pmos_5p0 L=0.5U W=1.83U AS=0.732P AD=0.732P PS=2.63U PD=2.63U
* device instance $10 r0 *1 12.215,3.78 pmos_5p0
M$10 2 6 12 8 pmos_5p0 L=0.5U W=1.83U AS=0.732P AD=0.732P PS=2.63U PD=2.63U
* device instance $11 r0 *1 13.515,3.78 pmos_5p0
M$11 15 6 2 8 pmos_5p0 L=0.5U W=1.83U AS=0.732P AD=0.732P PS=2.63U PD=2.63U
* device instance $12 r0 *1 14.815,3.78 pmos_5p0
M$12 7 3 15 8 pmos_5p0 L=0.5U W=1.83U AS=0.732P AD=0.732P PS=2.63U PD=2.63U
* device instance $13 r0 *1 16.115,3.78 pmos_5p0
M$13 16 3 7 8 pmos_5p0 L=0.5U W=1.83U AS=0.732P AD=0.732P PS=2.63U PD=2.63U
* device instance $14 r0 *1 17.415,3.78 pmos_5p0
M$14 2 6 16 8 pmos_5p0 L=0.5U W=1.83U AS=0.732P AD=0.732P PS=2.63U PD=2.63U
* device instance $15 r0 *1 18.715,3.78 pmos_5p0
M$15 17 6 2 8 pmos_5p0 L=0.5U W=1.83U AS=0.732P AD=0.68625P PS=2.63U PD=2.58U
* device instance $16 r0 *1 19.965,3.78 pmos_5p0
M$16 7 3 17 8 pmos_5p0 L=0.5U W=1.83U AS=0.68625P AD=0.8052P PS=2.58U PD=4.54U
* device instance $17 r0 *1 4.775,0.695 nmos_5p0
M$17 1 4 2 1 nmos_5p0 L=0.6U W=2.64U AS=0.98415P AD=0.8057P PS=6.295U PD=5.09U
* device instance $19 r0 *1 12.215,0.695 nmos_5p0
M$19 1 6 2 1 nmos_5p0 L=0.6U W=2.64U AS=0.925P AD=0.925P PS=5.46U PD=5.46U
* device instance $20 r0 *1 14.815,0.695 nmos_5p0
M$20 1 3 2 1 nmos_5p0 L=0.6U W=2.64U AS=0.925P AD=0.98415P PS=5.46U PD=6.295U
* device instance $24 r0 *1 2.355,0.7 nmos_5p0
M$24 1 5 2 1 nmos_5p0 L=0.6U W=2.64U AS=0.8057P AD=0.6864P PS=5.09U PD=4.72U
.ENDS gf180mcu_fd_sc_mcu9t5v0__nor4_4

* cell gf180mcu_fd_sc_mcu9t5v0__nor2_4
* pin PWELL,VSS,gf180mcu_gnd
* pin NWELL,VDD
* pin A2
* pin A1
* pin ZN
.SUBCKT gf180mcu_fd_sc_mcu9t5v0__nor2_4 1 2 3 4 5
* net 1 PWELL,VSS,gf180mcu_gnd
* net 2 NWELL,VDD
* net 3 A2
* net 4 A1
* net 5 ZN
* device instance $1 r0 *1 0.92,3.78 pmos_5p0
M$1 9 3 2 2 pmos_5p0 L=0.5U W=1.83U AS=0.8052P AD=0.61305P PS=4.54U PD=2.5U
* device instance $2 r0 *1 2.09,3.78 pmos_5p0
M$2 5 4 9 2 pmos_5p0 L=0.5U W=1.83U AS=0.61305P AD=0.52155P PS=2.5U PD=2.4U
* device instance $3 r0 *1 3.16,3.78 pmos_5p0
M$3 8 4 5 2 pmos_5p0 L=0.5U W=1.83U AS=0.52155P AD=0.5673P PS=2.4U PD=2.45U
* device instance $4 r0 *1 4.28,3.78 pmos_5p0
M$4 2 3 8 2 pmos_5p0 L=0.5U W=1.83U AS=0.5673P AD=0.5673P PS=2.45U PD=2.45U
* device instance $5 r0 *1 5.4,3.78 pmos_5p0
M$5 7 3 2 2 pmos_5p0 L=0.5U W=1.83U AS=0.5673P AD=0.5673P PS=2.45U PD=2.45U
* device instance $6 r0 *1 6.52,3.78 pmos_5p0
M$6 5 4 7 2 pmos_5p0 L=0.5U W=1.83U AS=0.5673P AD=0.5673P PS=2.45U PD=2.45U
* device instance $7 r0 *1 7.64,3.78 pmos_5p0
M$7 6 4 5 2 pmos_5p0 L=0.5U W=1.83U AS=0.5673P AD=0.5673P PS=2.45U PD=2.45U
* device instance $8 r0 *1 8.76,3.78 pmos_5p0
M$8 2 3 6 2 pmos_5p0 L=0.5U W=1.83U AS=0.5673P AD=0.8052P PS=2.45U PD=4.54U
* device instance $9 r0 *1 0.92,1.04 nmos_5p0
M$9 5 3 1 1 nmos_5p0 L=0.6U W=3.68U AS=1.1224P AD=1.1224P PS=7.04U PD=7.04U
* device instance $10 r0 *1 2.04,1.04 nmos_5p0
M$10 1 4 5 1 nmos_5p0 L=0.6U W=3.68U AS=0.9568P AD=0.9568P PS=5.76U PD=5.76U
.ENDS gf180mcu_fd_sc_mcu9t5v0__nor2_4

* cell gf180mcu_fd_sc_mcu9t5v0__nand4_2
* pin PWELL,VSS,gf180mcu_gnd
* pin ZN
* pin A3
* pin A2
* pin A1
* pin NWELL,VDD
* pin A4
.SUBCKT gf180mcu_fd_sc_mcu9t5v0__nand4_2 1 2 3 4 5 6 7
* net 1 PWELL,VSS,gf180mcu_gnd
* net 2 ZN
* net 3 A3
* net 4 A2
* net 5 A1
* net 6 NWELL,VDD
* net 7 A4
* device instance $1 r0 *1 0.87,4.055 pmos_5p0
M$1 6 7 2 6 pmos_5p0 L=0.5U W=2.56U AS=0.896P AD=0.896P PS=5.24U PD=5.24U
* device instance $2 r0 *1 1.89,4.055 pmos_5p0
M$2 2 3 6 6 pmos_5p0 L=0.5U W=2.56U AS=0.6656P AD=0.6656P PS=3.6U PD=3.6U
* device instance $3 r0 *1 2.91,4.055 pmos_5p0
M$3 6 4 2 6 pmos_5p0 L=0.5U W=2.56U AS=0.6656P AD=0.6656P PS=3.6U PD=3.6U
* device instance $4 r0 *1 3.93,4.055 pmos_5p0
M$4 2 5 6 6 pmos_5p0 L=0.5U W=2.56U AS=0.6656P AD=0.6656P PS=3.6U PD=3.6U
* device instance $9 r0 *1 0.92,1.005 nmos_5p0
M$9 13 7 1 1 nmos_5p0 L=0.6U W=1.32U AS=0.5808P AD=0.2442P PS=3.52U PD=1.69U
* device instance $10 r0 *1 1.89,1.005 nmos_5p0
M$10 12 3 13 1 nmos_5p0 L=0.6U W=1.32U AS=0.2442P AD=0.2442P PS=1.69U PD=1.69U
* device instance $11 r0 *1 2.86,1.005 nmos_5p0
M$11 11 4 12 1 nmos_5p0 L=0.6U W=1.32U AS=0.2442P AD=0.2772P PS=1.69U PD=1.74U
* device instance $12 r0 *1 3.88,1.005 nmos_5p0
M$12 2 5 11 1 nmos_5p0 L=0.6U W=1.32U AS=0.2772P AD=0.3432P PS=1.74U PD=1.84U
* device instance $13 r0 *1 5,1.005 nmos_5p0
M$13 9 5 2 1 nmos_5p0 L=0.6U W=1.32U AS=0.3432P AD=0.2442P PS=1.84U PD=1.69U
* device instance $14 r0 *1 5.97,1.005 nmos_5p0
M$14 8 4 9 1 nmos_5p0 L=0.6U W=1.32U AS=0.2442P AD=0.2772P PS=1.69U PD=1.74U
* device instance $15 r0 *1 6.99,1.005 nmos_5p0
M$15 10 3 8 1 nmos_5p0 L=0.6U W=1.32U AS=0.2772P AD=0.2442P PS=1.74U PD=1.69U
* device instance $16 r0 *1 7.96,1.005 nmos_5p0
M$16 1 7 10 1 nmos_5p0 L=0.6U W=1.32U AS=0.2442P AD=0.5808P PS=1.69U PD=3.52U
.ENDS gf180mcu_fd_sc_mcu9t5v0__nand4_2

* cell gf180mcu_fd_sc_mcu9t5v0__aoi221_2
* pin PWELL,VSS,gf180mcu_gnd
* pin B2
* pin NWELL,VDD
* pin B1
* pin C
* pin A2
* pin ZN
* pin A1
.SUBCKT gf180mcu_fd_sc_mcu9t5v0__aoi221_2 1 3 4 5 6 8 9 10
* net 1 PWELL,VSS,gf180mcu_gnd
* net 3 B2
* net 4 NWELL,VDD
* net 5 B1
* net 6 C
* net 8 A2
* net 9 ZN
* net 10 A1
* device instance $1 r0 *1 0.97,3.78 pmos_5p0
M$1 2 6 7 4 pmos_5p0 L=0.5U W=3.66U AS=1.4457P AD=0.983625P PS=7.07U PD=4.735U
* device instance $2 r0 *1 1.99,3.78 pmos_5p0
M$2 4 3 2 4 pmos_5p0 L=0.5U W=3.66U AS=0.9516P AD=1.1163P PS=4.7U PD=4.88U
* device instance $3 r0 *1 3.01,3.78 pmos_5p0
M$3 2 5 4 4 pmos_5p0 L=0.5U W=3.66U AS=0.9699P AD=0.9699P PS=4.72U PD=4.72U
* device instance $7 r0 *1 7.325,3.78 pmos_5p0
M$7 9 10 7 4 pmos_5p0 L=0.5U W=3.66U AS=0.983625P AD=1.281P PS=4.735U PD=6.89U
* device instance $8 r0 *1 8.345,3.78 pmos_5p0
M$8 7 8 9 4 pmos_5p0 L=0.5U W=3.66U AS=0.9516P AD=0.9516P PS=4.7U PD=4.7U
* device instance $11 r0 *1 6.32,0.875 nmos_5p0
M$11 9 6 1 1 nmos_5p0 L=0.6U W=1.58U AS=0.711P AD=0.709025P PS=3.77U PD=4.36U
* device instance $13 r0 *1 2.22,1.072 nmos_5p0
M$13 14 3 1 1 nmos_5p0 L=0.6U W=1.185U AS=0.3555P AD=0.1422P PS=1.885U PD=1.425U
* device instance $14 r0 *1 3.06,1.072 nmos_5p0
M$14 9 5 14 1 nmos_5p0 L=0.6U W=1.185U AS=0.1422P AD=0.3081P PS=1.425U PD=1.705U
* device instance $15 r0 *1 4.18,1.072 nmos_5p0
M$15 12 5 9 1 nmos_5p0 L=0.6U W=1.185U AS=0.3081P AD=0.1422P PS=1.705U PD=1.425U
* device instance $16 r0 *1 5.02,1.072 nmos_5p0
M$16 1 3 12 1 nmos_5p0 L=0.6U W=1.185U AS=0.1422P AD=0.3555P PS=1.425U PD=1.885U
* device instance $17 r0 *1 7.635,1.072 nmos_5p0
M$17 13 10 9 1 nmos_5p0 L=0.6U W=1.185U AS=0.361425P AD=0.1422P PS=1.9U
+ PD=1.425U
* device instance $18 r0 *1 8.475,1.072 nmos_5p0
M$18 1 8 13 1 nmos_5p0 L=0.6U W=1.185U AS=0.1422P AD=0.3081P PS=1.425U PD=1.705U
* device instance $19 r0 *1 9.595,1.072 nmos_5p0
M$19 11 8 1 1 nmos_5p0 L=0.6U W=1.185U AS=0.3081P AD=0.1422P PS=1.705U PD=1.425U
* device instance $20 r0 *1 10.435,1.072 nmos_5p0
M$20 9 10 11 1 nmos_5p0 L=0.6U W=1.185U AS=0.1422P AD=0.5214P PS=1.425U PD=3.25U
.ENDS gf180mcu_fd_sc_mcu9t5v0__aoi221_2

* cell gf180mcu_fd_sc_mcu9t5v0__mux2_2
* pin PWELL,VSS,gf180mcu_gnd
* pin NWELL,VDD
* pin Z
* pin I1
* pin S
* pin I0
.SUBCKT gf180mcu_fd_sc_mcu9t5v0__mux2_2 1 2 3 4 5 7
* net 1 PWELL,VSS,gf180mcu_gnd
* net 2 NWELL,VDD
* net 3 Z