
* cell basic_spi_master
* pin spi_cs_n
* pin tx_valid
* pin tx_ready
* pin tx_data[0]
* pin tx_data[3]
* pin tx_data[2]
* pin tx_data[1]
* pin tx_data[4]
* pin tx_data[7]
* pin tx_data[5]
* pin tx_data[6]
* pin PWELL
* pin NWELL
* pin rx_valid
* pin spi_mosi
* pin clk
* pin spi_clk
* pin rx_data[0]
* pin rst_n
* pin rx_data[2]
* pin rx_data[4]
* pin rx_data[6]
* pin rx_data[7]
* pin rx_data[5]
* pin rx_data[3]
* pin spi_miso
* pin rx_data[1]
.SUBCKT basic_spi_master 1 2 3 4 5 6 7 8 9 10 11 18 23 108 124 135 139 150 151
+ 179 203 221 235 243 244 245 246
* net 1 spi_cs_n
* net 2 tx_valid
* net 3 tx_ready
* net 4 tx_data[0]
* net 5 tx_data[3]
* net 6 tx_data[2]
* net 7 tx_data[1]
* net 8 tx_data[4]
* net 9 tx_data[7]
* net 10 tx_data[5]
* net 11 tx_data[6]
* net 18 PWELL
* net 23 NWELL
* net 108 rx_valid
* net 124 spi_mosi
* net 135 clk
* net 139 spi_clk
* net 150 rx_data[0]
* net 151 rst_n
* net 179 rx_data[2]
* net 203 rx_data[4]
* net 221 rx_data[6]
* net 235 rx_data[7]
* net 243 rx_data[5]
* net 244 rx_data[3]
* net 245 spi_miso
* net 246 rx_data[1]
* cell instance $2 r0 *1 26.6,1.4
X$2 17 18 23 1 BUF_X1
* cell instance $9 r0 *1 30.4,1.4
X$9 2 18 23 12 BUF_X1
* cell instance $14 r0 *1 28.12,1.4
X$14 50 18 23 3 BUF_X1
* cell instance $20 r0 *1 30.97,1.4
X$20 4 18 23 36 BUF_X1
* cell instance $30 r0 *1 31.92,1.4
X$30 5 18 23 19 BUF_X1
* cell instance $36 r0 *1 32.49,1.4
X$36 6 18 23 13 BUF_X1
* cell instance $42 r0 *1 33.63,1.4
X$42 7 18 23 14 BUF_X1
* cell instance $48 r0 *1 37.05,1.4
X$48 8 18 23 15 BUF_X1
* cell instance $51 r0 *1 41.61,1.4
X$51 9 18 23 16 BUF_X1
* cell instance $56 r0 *1 41.04,1.4
X$56 10 18 23 35 BUF_X1
* cell instance $62 r0 *1 42.18,1.4
X$62 11 18 23 22 BUF_X1
* cell instance $71 m0 *1 32.87,15.4
X$71 20 69 12 18 23 59 MUX2_X1
* cell instance $74 m0 *1 33.82,18.2
X$74 12 89 91 23 88 18 OAI21_X1
* cell instance $77 m0 *1 35.91,18.2
X$77 70 12 18 23 94 NAND2_X1
* cell instance $80 r0 *1 37.24,18.2
X$80 69 12 18 23 97 NAND2_X1
* cell instance $84 r0 *1 32.87,7
X$84 13 46 45 18 23 38 MUX2_X1
* cell instance $88 m0 *1 33.44,9.8
X$88 14 46 51 18 23 54 MUX2_X1
* cell instance $92 m0 *1 37.43,4.2
X$92 15 20 21 18 23 29 MUX2_X1
* cell instance $95 r0 *1 41.8,7
X$95 16 46 47 18 23 64 MUX2_X1
* cell instance $100 r0 *1 25.46,18.2
X$100 18 273 17 95 42 23 DFF_X1
* cell instance $102 m0 *1 28.31,18.2
X$102 89 17 23 18 105 AND2_X1
* cell instance $104 m0 *1 36.48,18.2
X$104 72 82 46 23 99 18 OAI21_X1
* cell instance $105 m0 *1 37.24,18.2
X$105 92 18 23 42 CLKBUF_X3
* cell instance $107 m0 *1 38.38,18.2
X$107 94 90 72 18 23 83 MUX2_X1
* cell instance $108 m0 *1 39.71,18.2
X$108 84 93 97 18 74 23 AOI21_X1
* cell instance $110 m0 *1 40.66,18.2
X$110 86 102 46 23 93 18 OAI21_X1
* cell instance $119 r0 *1 35.91,18.2
X$119 89 46 72 18 23 100 MUX2_X1
* cell instance $121 r0 *1 38,18.2
X$121 103 85 99 46 69 23 18 90 OAI221_X1
* cell instance $124 r0 *1 40.28,18.2
X$124 67 18 23 84 CLKBUF_X3
* cell instance $127 r0 *1 44.46,18.2
X$127 92 18 23 41 CLKBUF_X3
* cell instance $128 r0 *1 45.41,18.2
X$128 41 18 23 282 INV_X1
* cell instance $138 m0 *1 39.9,26.6
X$138 101 132 18 23 121 NAND2_X1
* cell instance $143 r0 *1 39.71,26.6
X$143 107 18 23 134 INV_X1
* cell instance $144 r0 *1 40.09,26.6
X$144 142 134 143 18 23 102 NAND3_X2
* cell instance $147 r0 *1 42.56,26.6
X$147 135 18 23 92 CLKBUF_X3
* cell instance $148 m0 *1 43.32,26.6
X$148 127 102 122 23 18 87 HA_X1
* cell instance $152 m0 *1 57.38,26.6
X$152 18 263 138 129 128 23 DFF_X1
* cell instance $155 r0 *1 43.51,26.6
X$155 127 144 132 23 18 146 HA_X1
* cell instance $156 r0 *1 45.41,26.6
X$156 107 144 18 23 159 OR2_X1
* cell instance $157 r0 *1 46.17,26.6
X$157 127 159 157 23 18 145 HA_X1
* cell instance $158 r0 *1 48.07,26.6
X$158 145 163 23 18 156 AND2_X1
* cell instance $159 r0 *1 48.83,26.6
X$159 157 122 18 23 172 NOR2_X1
* cell instance $162 r0 *1 51.3,26.6
X$162 28 137 23 18 148 AND2_X1
* cell instance $163 r0 *1 52.06,26.6
X$163 18 281 137 136 128 23 DFF_X1
* cell instance $165 r0 *1 55.67,26.6
X$165 138 98 137 18 23 155 MUX2_X1
* cell instance $168 r0 *1 57.57,26.6
X$168 57 155 23 18 129 AND2_X1
* cell instance $171 r0 *1 60.61,26.6
X$171 138 18 23 150 BUF_X1
* cell instance $173 r0 *1 61.37,26.6
X$173 151 18 23 91 BUF_X2
* cell instance $237 m0 *1 26.79,21
X$237 18 257 104 96 42 23 DFF_X1
* cell instance $243 m0 *1 35.53,21
X$243 73 82 18 23 101 NOR2_X2
* cell instance $244 m0 *1 36.48,21
X$244 101 82 100 18 115 23 AOI21_X1
* cell instance $250 m0 *1 41.23,21
X$250 102 18 23 103 INV_X1
* cell instance $251 m0 *1 41.61,21
X$251 28 103 101 23 18 110 AND3_X1
* cell instance $253 r0 *1 41.8,21
X$253 107 103 248 23 18 118 HA_X1
* cell instance $259 m0 *1 47.69,21
X$259 18 253 109 110 41 23 DFF_X1
* cell instance $261 m0 *1 50.92,21
X$261 109 18 23 98 CLKBUF_X3
* cell instance $265 m0 *1 53.96,21
X$265 91 18 23 28 BUF_X2
* cell instance $354 r0 *1 30.59,60.2
X$354 233 18 23 244 BUF_X1
* cell instance $361 r0 *1 37.05,60.2
X$361 240 18 23 246 BUF_X1
* cell instance $365 r0 *1 38.19,60.2
X$365 245 18 23 201 BUF_X1
* cell instance $369 r0 *1 42.75,60.2
X$369 241 18 23 243 BUF_X1
* cell instance $455 m0 *1 38.76,35
X$455 189 160 134 18 23 193 NAND3_X1
* cell instance $456 m0 *1 39.52,35
X$456 184 132 85 18 23 195 OR3_X2
* cell instance $457 m0 *1 40.66,35
X$457 177 160 134 18 23 217 NAND3_X1
* cell instance $459 m0 *1 42.94,35
X$459 126 132 85 18 23 190 OR3_X2
* cell instance $460 m0 *1 44.08,35
X$460 123 189 165 18 23 191 NAND3_X2
* cell instance $461 m0 *1 45.41,35
X$461 123 177 165 18 23 194 NAND3_X1
* cell instance $472 r0 *1 41.61,35
X$472 92 18 23 169 CLKBUF_X3
* cell instance $473 r0 *1 42.56,35
X$473 169 18 23 283 INV_X1
* cell instance $475 r0 *1 45.98,35
X$475 194 195 141 18 23 205 NOR3_X1
* cell instance $476 m0 *1 46.74,35
X$476 195 191 141 18 23 188 NOR3_X1
* cell instance $481 r0 *1 46.74,35
X$481 190 191 141 18 23 200 NOR3_X1
* cell instance $484 m0 *1 50.16,35
X$484 92 18 23 128 CLKBUF_X3
* cell instance $490 r0 *1 52.25,35
X$490 196 200 149 18 23 202 MUX2_X1
* cell instance $492 r0 *1 53.96,35
X$492 91 197 23 18 196 AND2_X1
* cell instance $495 r0 *1 56.43,35
X$495 199 98 197 18 23 192 MUX2_X1
* cell instance $496 r0 *1 57.76,35
X$496 57 192 23 18 198 AND2_X1
* cell instance $501 r0 *1 61.37,35
X$501 199 18 23 203 BUF_X1
* cell instance $529 r0 *1 30.21,32.2
X$529 18 278 185 186 169 23 DFF_X1
* cell instance $530 r0 *1 33.44,32.2
X$530 185 23 143 18 BUF_X4
* cell instance $531 m0 *1 33.82,32.2
X$531 143 180 176 18 23 183 MUX2_X1
* cell instance $535 m0 *1 37.43,32.2
X$535 142 143 23 189 18 XOR2_X2
* cell instance $536 m0 *1 39.14,32.2
X$536 143 142 18 23 177 XNOR2_X2
* cell instance $539 r0 *1 34.77,32.2
X$539 183 84 18 23 186 NOR2_X1
* cell instance $543 r0 *1 38.95,32.2
X$543 126 18 23 184 INV_X1
* cell instance $546 m0 *1 44.46,32.2
X$546 123 177 18 23 182 NAND2_X1
* cell instance $548 m0 *1 51.3,32.2
X$548 181 188 149 18 23 187 MUX2_X1
* cell instance $549 m0 *1 52.63,32.2
X$549 18 261 166 187 128 23 DFF_X1
* cell instance $555 m0 *1 57.95,32.2
X$555 18 265 168 178 128 23 DFF_X1
* cell instance $584 m0 *1 32.87,4.2
X$584 19 20 24 18 23 33 MUX2_X1
* cell instance $587 r0 *1 33.44,4.2
X$587 38 26 24 18 23 25 MUX2_X1
* cell instance $588 r0 *1 34.77,4.2
X$588 28 25 23 18 37 AND2_X1
* cell instance $590 m0 *1 35.34,4.2
X$590 33 26 21 18 23 27 MUX2_X1
* cell instance $594 m0 *1 41.23,4.2
X$594 35 20 34 18 23 32 MUX2_X1
* cell instance $598 r0 *1 35.91,4.2
X$598 28 27 23 18 39 AND2_X1
* cell instance $602 r0 *1 38.76,4.2
X$602 29 26 34 18 23 43 MUX2_X1
* cell instance $605 r0 *1 43.32,4.2
X$605 22 20 31 18 23 49 MUX2_X1
* cell instance $607 m0 *1 43.7,4.2
X$607 32 26 31 18 23 30 MUX2_X1
* cell instance $612 r0 *1 44.65,4.2
X$612 28 30 23 18 40 AND2_X1
* cell instance $629 m0 *1 30.21,9.8
X$629 18 268 45 53 42 23 DFF_X1
* cell instance $631 m0 *1 40.85,9.8
X$631 20 18 23 46 CLKBUF_X3
* cell instance $632 m0 *1 41.8,9.8
X$632 18 254 47 52 41 23 DFF_X1
* cell instance $633 m0 *1 45.03,9.8
X$633 28 48 23 18 52 AND2_X1
* cell instance $651 r0 *1 33.06,9.8
X$651 54 26 45 18 23 58 MUX2_X1
* cell instance $668 m0 *1 33.25,12.6
X$668 57 58 23 18 53 AND2_X1
* cell instance $669 m0 *1 34.01,12.6
X$669 26 51 18 23 55 NAND2_X1
* cell instance $686 r0 *1 31.16,12.6
X$686 18 274 51 66 42 23 DFF_X1
* cell instance $687 r0 *1 34.39,12.6
X$687 67 68 55 18 66 23 AOI21_X1
* cell instance $690 r0 *1 38.38,12.6
X$690 18 272 71 56 42 23 DFF_X1
* cell instance $692 r0 *1 44.65,12.6
X$692 61 65 64 18 23 63 MUX2_X1
* cell instance $694 r0 *1 46.36,12.6
X$694 57 63 23 18 60 AND2_X1
* cell instance $698 r0 *1 49.78,12.6
X$698 28 18 23 57 BUF_X2
* cell instance $717 m0 *1 25.84,15.4
X$717 18 262 50 62 42 23 DFF_X1
* cell instance $718 m0 *1 29.07,15.4
X$718 50 18 23 77 INV_X1
* cell instance $720 m0 *1 29.64,15.4
X$720 69 77 81 23 62 18 OAI21_X1
* cell instance $723 m0 *1 32.11,15.4
X$723 59 36 70 18 23 68 NAND3_X1
* cell instance $724 m0 *1 34.2,15.4
X$724 59 70 79 23 18 26 OAI21_X4
* cell instance $725 m0 *1 36.67,15.4
X$725 71 82 23 18 79 AND2_X1
* cell instance $736 r0 *1 34.01,15.4
X$736 20 18 23 70 INV_X2
* cell instance $740 r0 *1 37.05,15.4
X$740 71 18 23 72 INV_X1
* cell instance $741 r0 *1 37.43,15.4
X$741 20 71 18 23 73 NAND2_X2
* cell instance $743 r0 *1 39.14,15.4
X$743 83 84 18 23 56 NOR2_X1
* cell instance $744 m0 *1 42.56,15.4
X$744 78 18 23 20 CLKBUF_X3
* cell instance $745 m0 *1 39.33,15.4
X$745 18 80 78 74 41 23 DFF_X1
* cell instance $746 m0 *1 43.51,15.4
X$746 76 26 18 23 65 NOR2_X1
* cell instance $748 m0 *1 47.12,15.4
X$748 18 250 61 60 41 23 DFF_X1
* cell instance $755 r0 *1 39.9,15.4
X$755 72 82 80 18 23 85 OR3_X2
* cell instance $756 r0 *1 41.04,15.4
X$756 75 71 18 23 86 NAND2_X1
* cell instance $757 r0 *1 41.61,15.4
X$757 82 18 23 75 INV_X1
* cell instance $760 r0 *1 42.56,15.4
X$760 73 87 75 18 23 76 NOR3_X1
* cell instance $792 m0 *1 30.78,7
X$792 18 267 24 37 42 23 DFF_X1
* cell instance $798 m0 *1 35.34,7
X$798 18 258 21 39 42 23 DFF_X1
* cell instance $800 m0 *1 38.57,7
X$800 28 43 23 18 44 AND2_X1
* cell instance $801 m0 *1 39.33,7
X$801 18 256 34 44 41 23 DFF_X1
* cell instance $804 m0 *1 44.84,7
X$804 18 251 31 40 41 23 DFF_X1
* cell instance $812 r0 *1 44.27,7
X$812 49 26 47 18 23 48 MUX2_X1
* cell instance $836 r0 *1 7.79,26.6
X$836 106 18 23 139 BUF_X1
* cell instance $843 r0 *1 34.39,26.6
X$843 101 126 18 23 125 NAND2_X1
* cell instance $844 m0 *1 34.58,26.6
X$844 84 130 125 18 131 23 AOI21_X1
* cell instance $846 m0 *1 35.34,26.6
X$846 18 249 120 131 42 23 DFF_X1
* cell instance $850 r0 *1 35.15,26.6
X$850 84 153 154 18 152 23 AOI21_X1
* cell instance $852 r0 *1 36.29,26.6
X$852 133 120 126 23 18 140 HA_X1
* cell instance $854 r0 *1 38.57,26.6
X$854 120 133 143 18 23 144 NAND3_X1
* cell instance $877 m0 *1 35.91,37.8
X$877 91 18 23 67 INV_X1
* cell instance $879 m0 *1 38.57,37.8
X$879 201 160 18 23 204 NAND2_X1
* cell instance $884 m0 *1 49.97,37.8
X$884 91 201 23 18 149 AND2_X1
* cell instance $890 r0 *1 36.86,37.8
X$890 84 215 206 18 214 23 AOI21_X1
* cell instance $891 r0 *1 37.62,37.8
X$891 190 193 222 23 215 18 OAI21_X1
* cell instance $893 r0 *1 38.57,37.8
X$893 191 204 190 18 23 206 OR3_X1
* cell instance $894 r0 *1 39.52,37.8
X$894 191 195 204 18 23 227 OR3_X1
* cell instance $897 r0 *1 43.89,37.8
X$897 195 204 194 18 23 228 OR3_X1
* cell instance $898 r0 *1 44.84,37.8
X$898 204 190 194 18 23 209 OR3_X1
* cell instance $904 r0 *1 51.68,37.8
X$904 216 205 149 18 23 211 MUX2_X1
* cell instance $907 m0 *1 53.39,37.8
X$907 18 260 197 202 128 23 DFF_X1
* cell instance $908 m0 *1 57.38,37.8
X$908 18 255 199 198 128 23 DFF_X1
* cell instance $911 r0 *1 53.77,37.8
X$911 91 212 23 18 216 AND2_X1
* cell instance $940 m0 *1 38.38,40.6
X$940 193 195 225 23 207 18 OAI21_X1
* cell instance $941 m0 *1 35.15,40.6
X$941 18 252 222 214 169 23 DFF_X1
* cell instance $942 m0 *1 39.14,40.6
X$942 84 207 227 18 224 23 AOI21_X1
* cell instance $947 r0 *1 35.91,40.6
X$947 18 277 225 224 169 23 DFF_X1
* cell instance $950 r0 *1 41.42,40.6
X$950 18 279 229 226 169 23 DFF_X1
* cell instance $951 m0 *1 43.32,40.6
X$951 217 195 229 23 208 18 OAI21_X1
* cell instance $952 m0 *1 42.56,40.6
X$952 84 208 228 18 226 23 AOI21_X1
* cell instance $955 m0 *1 45.03,40.6
X$955 217 190 219 23 210 18 OAI21_X1
* cell instance $956 m0 *1 45.79,40.6
X$956 67 210 209 18 218 23 AOI21_X1
* cell instance $962 r0 *1 45.22,40.6
X$962 18 270 219 218 128 23 DFF_X1
* cell instance $964 m0 *1 51.68,40.6
X$964 18 259 212 211 128 23 DFF_X1
* cell instance $968 m0 *1 55.48,40.6
X$968 220 98 212 18 23 213 MUX2_X1
* cell instance $970 m0 *1 56.81,40.6
X$970 57 213 23 18 232 AND2_X1
* cell instance $976 r0 *1 56.62,40.6
X$976 18 271 220 232 128 23 DFF_X1
* cell instance $981 r0 *1 60.23,40.6
X$981 220 18 23 221 BUF_X1
* cell instance $994 m0 *1 32.68,43.4
X$994 233 98 222 18 23 223 MUX2_X1
* cell instance $1011 r0 *1 29.64,43.4
X$1011 18 280 233 236 169 23 DFF_X1
* cell instance $1013 r0 *1 33.06,43.4
X$1013 57 223 23 18 236 AND2_X1
* cell instance $1017 m0 *1 49.02,43.4
X$1017 231 98 219 18 23 230 MUX2_X1
* cell instance $1019 m0 *1 50.35,43.4
X$1019 57 230 23 18 234 AND2_X1
* cell instance $1026 r0 *1 50.73,43.4
X$1026 18 269 231 234 128 23 DFF_X1
* cell instance $1053 r0 *1 34.96,46.2
X$1053 18 276 240 239 169 23 DFF_X1
* cell instance $1054 m0 *1 36.1,46.2
X$1054 57 237 23 18 239 AND2_X1
* cell instance $1056 m0 *1 36.86,46.2
X$1056 240 98 225 18 23 237 MUX2_X1
* cell instance $1059 m0 *1 41.99,46.2
X$1059 57 238 23 18 242 AND2_X1
* cell instance $1060 m0 *1 42.75,46.2
X$1060 241 98 229 18 23 238 MUX2_X1
* cell instance $1067 r0 *1 41.23,46.2
X$1067 18 275 241 242 169 23 DFF_X1
* cell instance $1071 m0 *1 55.86,46.2
X$1071 231 18 23 235 BUF_X1
* cell instance $1106 r0 *1 28.69,18.2
X$1106 96 105 18 23 95 OR2_X1
* cell instance $1108 r0 *1 29.83,18.2
X$1108 104 18 23 69 CLKBUF_X2
* cell instance $1110 m0 *1 31.16,18.2
X$1110 88 18 23 81 INV_X1
* cell instance $1117 r0 *1 32.87,18.2
X$1117 98 88 18 23 96 OR2_X1
* cell instance $1118 r0 *1 33.63,18.2
X$1118 69 18 23 89 INV_X1
* cell instance $1119 r0 *1 34.01,18.2
X$1119 70 69 18 23 119 NAND2_X1
* cell instance $1133 m0 *1 30.4,23.8
X$1133 18 266 106 111 42 23 DFF_X1
* cell instance $1136 m0 *1 35.34,23.8
X$1136 115 84 18 23 111 NOR2_X1
* cell instance $1149 r0 *1 31.92,23.8
X$1149 106 23 82 18 BUF_X4
* cell instance $1152 r0 *1 35.53,23.8
X$1152 82 73 133 89 46 23 18 154 OAI221_X1
* cell instance $1153 r0 *1 36.67,23.8
X$1153 82 73 120 89 46 23 18 130 OAI221_X1
* cell instance $1156 m0 *1 39.33,23.8
X$1156 73 82 107 89 46 23 18 112 OAI221_X1
* cell instance $1161 r0 *1 39.9,23.8
X$1161 84 112 121 18 116 23 AOI21_X1
* cell instance $1163 r0 *1 41.42,23.8
X$1163 18 116 41 127 107 23 DFF_X2
* cell instance $1164 m0 *1 45.03,23.8
X$1164 117 118 18 23 123 NOR2_X2
* cell instance $1165 m0 *1 43.13,23.8
X$1165 107 102 247 23 18 117 HA_X1
* cell instance $1175 m0 *1 56.24,23.8
X$1175 98 28 23 18 114 AND2_X1
* cell instance $1176 m0 *1 57.76,23.8
X$1176 18 264 113 114 41 23 DFF_X1
* cell instance $1178 r0 *1 56.43,23.8
X$1178 61 18 23 124 BUF_X1
* cell instance $1185 m0 *1 61.37,23.8
X$1185 113 18 23 108 BUF_X1
* cell instance $1197 m0 *1 33.25,29.4
X$1197 18 152 169 141 133 23 DFF_X2
* cell instance $1198 m0 *1 36.86,29.4
X$1198 101 160 18 23 153 NAND2_X1
* cell instance $1199 m0 *1 37.43,29.4
X$1199 133 18 23 160 INV_X1
* cell instance $1200 m0 *1 37.81,29.4
X$1200 140 23 142 18 BUF_X4
* cell instance $1202 m0 *1 40.66,29.4
X$1202 142 134 143 18 23 158 NAND3_X1
* cell instance $1206 m0 *1 43.89,29.4
X$1206 141 18 23 162 INV_X1
* cell instance $1207 m0 *1 44.27,29.4
X$1207 132 162 122 18 23 161 NAND3_X1
* cell instance $1208 m0 *1 45.03,29.4
X$1208 127 158 173 23 18 163 HA_X1
* cell instance $1209 m0 *1 46.93,29.4
X$1209 173 18 23 147 INV_X1
* cell instance $1210 m0 *1 47.31,29.4
X$1210 163 145 146 147 18 23 164 NOR4_X1
* cell instance $1224 r0 *1 34.2,29.4
X$1224 119 143 18 23 176 NAND2_X1
* cell instance $1226 r0 *1 34.96,29.4
X$1226 101 142 18 23 180 NAND2_X1
* cell instance $1231 r0 *1 44.27,29.4
X$1231 126 161 182 85 18 23 175 OR4_X1
* cell instance $1234 r0 *1 47.31,29.4
X$1234 122 157 23 18 174 AND2_X1
* cell instance $1235 r0 *1 48.07,29.4
X$1235 165 174 164 18 171 23 AOI21_X1
* cell instance $1237 m0 *1 48.64,29.4
X$1237 147 146 172 156 23 18 165 AND4_X1
* cell instance $1239 m0 *1 51.49,29.4
X$1239 148 170 149 18 23 136 MUX2_X1
* cell instance $1244 r0 *1 48.83,29.4
X$1244 175 171 18 23 170 NOR2_X1
* cell instance $1247 r0 *1 51.68,29.4
X$1247 28 166 23 18 181 AND2_X1
* cell instance $1251 r0 *1 56.62,29.4
X$1251 168 98 166 18 23 167 MUX2_X1
* cell instance $1252 r0 *1 57.95,29.4
X$1252 57 167 23 18 178 AND2_X1
* cell instance $1259 r0 *1 61.18,29.4
X$1259 168 18 23 179 BUF_X1
.ENDS basic_spi_master

* cell OAI21_X4
* pin A
* pin B2
* pin B1
* pin NWELL,VDD
* pin PWELL,VSS
* pin ZN
.SUBCKT OAI21_X4 1 2 3 5 6 7
* net 1 A
* net 2 B2
* net 3 B1
* net 5 NWELL,VDD
* net 6 PWELL,VSS
* net 7 ZN
* device instance $1 r0 *1 0.17,0.995 PMOS_VTL
M$1 7 1 5 5 PMOS_VTL L=0.05U W=2.52U AS=0.19845P AD=0.1764P PS=3.78U PD=3.08U
* device instance $5 r0 *1 0.93,0.995 PMOS_VTL
M$5 11 2 5 5 PMOS_VTL L=0.05U W=0.63U AS=0.0441P AD=0.0441P PS=0.77U PD=0.77U
* device instance $6 r0 *1 1.12,0.995 PMOS_VTL
M$6 7 3 11 5 PMOS_VTL L=0.05U W=0.63U AS=0.0441P AD=0.0441P PS=0.77U PD=0.77U
* device instance $7 r0 *1 1.31,0.995 PMOS_VTL
M$7 10 3 7 5 PMOS_VTL L=0.05U W=0.63U AS=0.0441P AD=0.0441P PS=0.77U PD=0.77U
* device instance $8 r0 *1 1.5,0.995 PMOS_VTL
M$8 5 2 10 5 PMOS_VTL L=0.05U W=0.63U AS=0.0441P AD=0.0441P PS=0.77U PD=0.77U
* device instance $9 r0 *1 1.69,0.995 PMOS_VTL
M$9 9 2 5 5 PMOS_VTL L=0.05U W=0.63U AS=0.0441P AD=0.0441P PS=0.77U PD=0.77U
* device instance $10 r0 *1 1.88,0.995 PMOS_VTL
M$10 7 3 9 5 PMOS_VTL L=0.05U W=0.63U AS=0.0441P AD=0.0441P PS=0.77U PD=0.77U
* device instance $11 r0 *1 2.07,0.995 PMOS_VTL
M$11 8 3 7 5 PMOS_VTL L=0.05U W=0.63U AS=0.0441P AD=0.0441P PS=0.77U PD=0.77U
* device instance $12 r0 *1 2.26,0.995 PMOS_VTL
M$12 5 2 8 5 PMOS_VTL L=0.05U W=0.63U AS=0.0441P AD=0.06615P PS=0.77U PD=1.47U
* device instance $13 r0 *1 0.17,0.2975 NMOS_VTL
M$13 6 1 4 6 NMOS_VTL L=0.05U W=1.66U AS=0.130725P AD=0.1162P PS=2.705U PD=2.22U
* device instance $17 r0 *1 0.93,0.2975 NMOS_VTL
M$17 7 2 4 6 NMOS_VTL L=0.05U W=1.66U AS=0.1162P AD=0.130725P PS=2.22U PD=2.705U
* device instance $18 r0 *1 1.12,0.2975 NMOS_VTL
M$18 4 3 7 6 NMOS_VTL L=0.05U W=1.66U AS=0.1162P AD=0.1162P PS=2.22U PD=2.22U
.ENDS OAI21_X4

* cell AND3_X1
* pin A1
* pin A2
* pin A3
* pin NWELL,VDD
* pin PWELL,VSS
* pin ZN
.SUBCKT AND3_X1 1 2 3 5 6 7
* net 1 A1
* net 2 A2
* net 3 A3
* net 5 NWELL,VDD
* net 6 PWELL,VSS
* net 7 ZN
* device instance $1 r0 *1 0.17,1.1525 PMOS_VTL
M$1 5 1 4 5 PMOS_VTL L=0.05U W=0.315U AS=0.033075P AD=0.02205P PS=0.84U
+ PD=0.455U
* device instance $2 r0 *1 0.36,1.1525 PMOS_VTL
M$2 4 2 5 5 PMOS_VTL L=0.05U W=0.315U AS=0.02205P AD=0.02205P PS=0.455U
+ PD=0.455U
* device instance $3 r0 *1 0.55,1.1525 PMOS_VTL
M$3 4 3 5 5 PMOS_VTL L=0.05U W=0.315U AS=0.033075P AD=0.02205P PS=0.77U
+ PD=0.455U
* device instance $4 r0 *1 0.74,0.995 PMOS_VTL
M$4 7 4 5 5 PMOS_VTL L=0.05U W=0.63U AS=0.033075P AD=0.06615P PS=0.77U PD=1.47U
* device instance $5 r0 *1 0.17,0.195 NMOS_VTL
M$5 8 1 4 6 NMOS_VTL L=0.05U W=0.21U AS=0.02205P AD=0.0147P PS=0.63U PD=0.35U
* device instance $6 r0 *1 0.36,0.195 NMOS_VTL
M$6 9 2 8 6 NMOS_VTL L=0.05U W=0.21U AS=0.0147P AD=0.0147P PS=0.35U PD=0.35U
* device instance $7 r0 *1 0.55,0.195 NMOS_VTL
M$7 6 3 9 6 NMOS_VTL L=0.05U W=0.21U AS=0.0147P AD=0.021875P PS=0.35U PD=0.555U
* device instance $8 r0 *1 0.74,0.2975 NMOS_VTL
M$8 7 4 6 6 NMOS_VTL L=0.05U W=0.415U AS=0.021875P AD=0.043575P PS=0.555U
+ PD=1.04U
.ENDS AND3_X1

* cell NOR2_X2
* pin A2
* pin A1
* pin PWELL,VSS
* pin NWELL,VDD
* pin ZN
.SUBCKT NOR2_X2 1 2 3 4 5
* net 1 A2
* net 2 A1
* net 3 PWELL,VSS
* net 4 NWELL,VDD
* net 5 ZN
* device instance $1 r0 *1 0.21,0.995 PMOS_VTL
M$1 7 1 4 4 PMOS_VTL L=0.05U W=0.63U AS=0.06615P AD=0.0441P PS=1.47U PD=0.77U
* device instance $2 r0 *1 0.4,0.995 PMOS_VTL
M$2 5 2 7 4 PMOS_VTL L=0.05U W=0.63U AS=0.0441P AD=0.0441P PS=0.77U PD=0.77U
* device instance $3 r0 *1 0.59,0.995 PMOS_VTL
M$3 6 2 5 4 PMOS_VTL L=0.05U W=0.63U AS=0.0441P AD=0.0441P PS=0.77U PD=0.77U
* device instance $4 r0 *1 0.78,0.995 PMOS_VTL
M$4 4 1 6 4 PMOS_VTL L=0.05U W=0.63U AS=0.0441P AD=0.06615P PS=0.77U PD=1.47U
* device instance $5 r0 *1 0.21,0.2975 NMOS_VTL
M$5 5 1 3 3 NMOS_VTL L=0.05U W=0.83U AS=0.072625P AD=0.072625P PS=1.595U
+ PD=1.595U
* device instance $6 r0 *1 0.4,0.2975 NMOS_VTL
M$6 3 2 5 3 NMOS_VTL L=0.05U W=0.83U AS=0.0581P AD=0.0581P PS=1.11U PD=1.11U
.ENDS NOR2_X2

* cell OR4_X1
* pin A1
* pin A2
* pin A3
* pin A4
* pin PWELL,VSS
* pin NWELL,VDD
* pin ZN
.SUBCKT OR4_X1 1 2 3 4 5 7 8
* net 1 A1
* net 2 A2
* net 3 A3
* net 4 A4
* net 5 PWELL,VSS
* net 7 NWELL,VDD
* net 8 ZN
* device instance $1 r0 *1 0.17,1.1525 PMOS_VTL
M$1 10 1 6 7 PMOS_VTL L=0.05U W=0.315U AS=0.033075P AD=0.02205P PS=0.84U
+ PD=0.455U
* device instance $2 r0 *1 0.36,1.1525 PMOS_VTL
M$2 9 2 10 7 PMOS_VTL L=0.05U W=0.315U AS=0.02205P AD=0.02205P PS=0.455U
+ PD=0.455U
* device instance $3 r0 *1 0.55,1.1525 PMOS_VTL
M$3 11 3 9 7 PMOS_VTL L=0.05U W=0.315U AS=0.02205P AD=0.02205P PS=0.455U
+ PD=0.455U
* device instance $4 r0 *1 0.74,1.1525 PMOS_VTL
M$4 11 4 7 7 PMOS_VTL L=0.05U W=0.315U AS=0.033075P AD=0.02205P PS=0.77U
+ PD=0.455U
* device instance $5 r0 *1 0.93,0.995 PMOS_VTL
M$5 8 6 7 7 PMOS_VTL L=0.05U W=0.63U AS=0.033075P AD=0.06615P PS=0.77U PD=1.47U
* device instance $6 r0 *1 0.17,0.195 NMOS_VTL
M$6 6 1 5 5 NMOS_VTL L=0.05U W=0.21U AS=0.02205P AD=0.0147P PS=0.63U PD=0.35U
* device instance $7 r0 *1 0.36,0.195 NMOS_VTL
M$7 5 2 6 5 NMOS_VTL L=0.05U W=0.21U AS=0.0147P AD=0.0147P PS=0.35U PD=0.35U
* device instance $8 r0 *1 0.55,0.195 NMOS_VTL
M$8 6 3 5 5 NMOS_VTL L=0.05U W=0.21U AS=0.0147P AD=0.0147P PS=0.35U PD=0.35U
* device instance $9 r0 *1 0.74,0.195 NMOS_VTL
M$9 5 4 6 5 NMOS_VTL L=0.05U W=0.21U AS=0.0147P AD=0.021875P PS=0.35U PD=0.555U
* device instance $10 r0 *1 0.93,0.2975 NMOS_VTL
M$10 8 6 5 5 NMOS_VTL L=0.05U W=0.415U AS=0.021875P AD=0.043575P PS=0.555U
+ PD=1.04U
.ENDS OR4_X1

* cell DFF_X2
* pin PWELL,VSS
* pin D
* pin CK
* pin QN
* pin Q
* pin NWELL,VDD
.SUBCKT DFF_X2 1 6 8 10 11 16
* net 1 PWELL,VSS
* net 6 D
* net 8 CK
* net 10 QN
* net 11 Q
* net 16 NWELL,VDD
* device instance $1 r0 *1 2.855,0.995 PMOS_VTL
M$1 10 9 16 16 PMOS_VTL L=0.05U W=1.26U AS=0.11025P AD=0.0882P PS=2.24U PD=1.54U
* device instance $3 r0 *1 3.235,0.995 PMOS_VTL
M$3 11 2 16 16 PMOS_VTL L=0.05U W=1.26U AS=0.0882P AD=0.11025P PS=1.54U PD=2.24U
* device instance $5 r0 *1 0.2,0.9275 PMOS_VTL
M$5 16 7 3 16 PMOS_VTL L=0.05U W=0.315U AS=0.033075P AD=0.014175P PS=0.84U
+ PD=0.455U
* device instance $6 r0 *1 0.39,1.04 PMOS_VTL
M$6 17 4 16 16 PMOS_VTL L=0.05U W=0.09U AS=0.014175P AD=0.0063P PS=0.455U
+ PD=0.23U
* device instance $7 r0 *1 0.58,1.04 PMOS_VTL
M$7 17 7 5 16 PMOS_VTL L=0.05U W=0.09U AS=0.01785P AD=0.0063P PS=0.56U PD=0.23U
* device instance $8 r0 *1 0.77,0.975 PMOS_VTL
M$8 18 3 5 16 PMOS_VTL L=0.05U W=0.42U AS=0.01785P AD=0.0294P PS=0.56U PD=0.56U
* device instance $9 r0 *1 0.96,0.975 PMOS_VTL
M$9 16 6 18 16 PMOS_VTL L=0.05U W=0.42U AS=0.0294P AD=0.025725P PS=0.56U
+ PD=0.56U
* device instance $10 r0 *1 1.15,1.0275 PMOS_VTL
M$10 4 5 16 16 PMOS_VTL L=0.05U W=0.315U AS=0.025725P AD=0.0567P PS=0.56U
+ PD=0.99U
* device instance $11 r0 *1 2.135,0.915 PMOS_VTL
M$11 20 3 9 16 PMOS_VTL L=0.05U W=0.09U AS=0.014175P AD=0.0063P PS=0.455U
+ PD=0.23U
* device instance $12 r0 *1 2.325,0.915 PMOS_VTL
M$12 20 2 16 16 PMOS_VTL L=0.05U W=0.09U AS=0.0252P AD=0.0063P PS=0.77U PD=0.23U
* device instance $13 r0 *1 1.565,1.0275 PMOS_VTL
M$13 16 8 7 16 PMOS_VTL L=0.05U W=0.315U AS=0.033075P AD=0.02205P PS=0.84U
+ PD=0.455U
* device instance $14 r0 *1 1.755,1.0275 PMOS_VTL
M$14 19 5 16 16 PMOS_VTL L=0.05U W=0.315U AS=0.02205P AD=0.02205P PS=0.455U
+ PD=0.455U
* device instance $15 r0 *1 1.945,1.0275 PMOS_VTL
M$15 9 7 19 16 PMOS_VTL L=0.05U W=0.315U AS=0.02205P AD=0.014175P PS=0.455U
+ PD=0.455U
* device instance $16 r0 *1 2.515,0.995 PMOS_VTL
M$16 2 9 16 16 PMOS_VTL L=0.05U W=0.63U AS=0.0252P AD=0.06615P PS=0.77U PD=1.47U
* device instance $17 r0 *1 2.855,0.2975 NMOS_VTL
M$17 10 9 1 1 NMOS_VTL L=0.05U W=0.83U AS=0.072625P AD=0.0581P PS=1.595U
+ PD=1.11U
* device instance $19 r0 *1 3.235,0.2975 NMOS_VTL
M$19 11 2 1 1 NMOS_VTL L=0.05U W=0.83U AS=0.0581P AD=0.072625P PS=1.11U
+ PD=1.595U
* device instance $21 r0 *1 0.39,0.31 NMOS_VTL
M$21 12 4 1 1 NMOS_VTL L=0.05U W=0.09U AS=0.0105P AD=0.0063P PS=0.35U PD=0.23U
* device instance $22 r0 *1 0.58,0.31 NMOS_VTL
M$22 12 3 5 1 NMOS_VTL L=0.05U W=0.09U AS=0.012775P AD=0.0063P PS=0.415U
+ PD=0.23U
* device instance $23 r0 *1 1.15,0.25 NMOS_VTL
M$23 4 5 1 1 NMOS_VTL L=0.05U W=0.21U AS=0.016975P AD=0.02205P PS=0.415U
+ PD=0.63U
* device instance $24 r0 *1 0.77,0.2825 NMOS_VTL
M$24 13 7 5 1 NMOS_VTL L=0.05U W=0.275U AS=0.012775P AD=0.01925P PS=0.415U
+ PD=0.415U
* device instance $25 r0 *1 0.96,0.2825 NMOS_VTL
M$25 1 6 13 1 NMOS_VTL L=0.05U W=0.275U AS=0.01925P AD=0.016975P PS=0.415U
+ PD=0.415U
* device instance $26 r0 *1 0.2,0.37 NMOS_VTL
M$26 1 7 3 1 NMOS_VTL L=0.05U W=0.21U AS=0.02205P AD=0.0105P PS=0.63U PD=0.35U
* device instance $27 r0 *1 1.565,0.35 NMOS_VTL
M$27 1 8 7 1 NMOS_VTL L=0.05U W=0.21U AS=0.02205P AD=0.0147P PS=0.63U PD=0.35U
* device instance $28 r0 *1 1.755,0.35 NMOS_VTL
M$28 14 5 1 1 NMOS_VTL L=0.05U W=0.21U AS=0.0147P AD=0.0147P PS=0.35U PD=0.35U
* device instance $29 r0 *1 1.945,0.35 NMOS_VTL
M$29 9 3 14 1 NMOS_VTL L=0.05U W=0.21U AS=0.0147P AD=0.0105P PS=0.35U PD=0.35U
* device instance $30 r0 *1 2.135,0.41 NMOS_VTL
M$30 15 7 9 1 NMOS_VTL L=0.05U W=0.09U AS=0.0105P AD=0.0063P PS=0.35U PD=0.23U
* device instance $31 r0 *1 2.325,0.41 NMOS_VTL
M$31 15 2 1 1 NMOS_VTL L=0.05U W=0.09U AS=0.017675P AD=0.0063P PS=0.555U
+ PD=0.23U
* device instance $32 r0 *1 2.515,0.2975 NMOS_VTL
M$32 2 9 1 1 NMOS_VTL L=0.05U W=0.415U AS=0.017675P AD=0.043575P PS=0.555U
+ PD=1.04U
.ENDS DFF_X2

* cell OAI221_X1
* pin B2
* pin B1
* pin A
* pin C2
* pin C1
* pin NWELL,VDD
* pin PWELL,VSS
* pin ZN
.SUBCKT OAI221_X1 1 2 3 4 5 7 8 9
* net 1 B2
* net 2 B1
* net 3 A
* net 4 C2
* net 5 C1
* net 7 NWELL,VDD
* net 8 PWELL,VSS
* net 9 ZN
* device instance $1 r0 *1 0.17,0.995 PMOS_VTL
M$1 12 1 7 7 PMOS_VTL L=0.05U W=0.63U AS=0.06615P AD=0.0441P PS=1.47U PD=0.77U
* device instance $2 r0 *1 0.36,0.995 PMOS_VTL
M$2 9 2 12 7 PMOS_VTL L=0.05U W=0.63U AS=0.0441P AD=0.0441P PS=0.77U PD=0.77U
* device instance $3 r0 *1 0.55,0.995 PMOS_VTL
M$3 7 3 9 7 PMOS_VTL L=0.05U W=0.63U AS=0.0441P AD=0.0441P PS=0.77U PD=0.77U
* device instance $4 r0 *1 0.74,0.995 PMOS_VTL
M$4 11 4 7 7 PMOS_VTL L=0.05U W=0.63U AS=0.0441P AD=0.0441P PS=0.77U PD=0.77U
* device instance $5 r0 *1 0.93,0.995 PMOS_VTL
M$5 9 5 11 7 PMOS_VTL L=0.05U W=0.63U AS=0.0441P AD=0.06615P PS=0.77U PD=1.47U
* device instance $6 r0 *1 0.17,0.2975 NMOS_VTL
M$6 8 1 6 8 NMOS_VTL L=0.05U W=0.415U AS=0.043575P AD=0.02905P PS=1.04U
+ PD=0.555U
* device instance $7 r0 *1 0.36,0.2975 NMOS_VTL
M$7 6 2 8 8 NMOS_VTL L=0.05U W=0.415U AS=0.02905P AD=0.02905P PS=0.555U
+ PD=0.555U
* device instance $8 r0 *1 0.55,0.2975 NMOS_VTL
M$8 10 3 6 8 NMOS_VTL L=0.05U W=0.415U AS=0.02905P AD=0.02905P PS=0.555U
+ PD=0.555U
* device instance $9 r0 *1 0.74,0.2975 NMOS_VTL
M$9 9 4 10 8 NMOS_VTL L=0.05U W=0.415U AS=0.02905P AD=0.02905P PS=0.555U
+ PD=0.555U
* device instance $10 r0 *1 0.93,0.2975 NMOS_VTL
M$10 10 5 9 8 NMOS_VTL L=0.05U W=0.415U AS=0.02905P AD=0.043575P PS=0.555U
+ PD=1.04U
.ENDS OAI221_X1

* cell NOR4_X1
* pin A4
* pin A3
* pin A2
* pin A1
* pin PWELL,VSS
* pin NWELL,VDD
* pin ZN
.SUBCKT NOR4_X1 1 2 3 4 5 6 7
* net 1 A4
* net 2 A3
* net 3 A2
* net 4 A1
* net 5 PWELL,VSS
* net 6 NWELL,VDD
* net 7 ZN
* device instance $1 r0 *1 0.17,0.995 PMOS_VTL
M$1 10 1 6 6 PMOS_VTL L=0.05U W=0.63U AS=0.06615P AD=0.0441P PS=1.47U PD=0.77U
* device instance $2 r0 *1 0.36,0.995 PMOS_VTL
M$2 9 2 10 6 PMOS_VTL L=0.05U W=0.63U AS=0.0441P AD=0.0441P PS=0.77U PD=0.77U
* device instance $3 r0 *1 0.55,0.995 PMOS_VTL
M$3 8 3 9 6 PMOS_VTL L=0.05U W=0.63U AS=0.0441P AD=0.0441P PS=0.77U PD=0.77U
* device instance $4 r0 *1 0.74,0.995 PMOS_VTL
M$4 7 4 8 6 PMOS_VTL L=0.05U W=0.63U AS=0.0441P AD=0.06615P PS=0.77U PD=1.47U
* device instance $5 r0 *1 0.17,0.2975 NMOS_VTL
M$5 7 1 5 5 NMOS_VTL L=0.05U W=0.415U AS=0.043575P AD=0.02905P PS=1.04U
+ PD=0.555U
* device instance $6 r0 *1 0.36,0.2975 NMOS_VTL
M$6 5 2 7 5 NMOS_VTL L=0.05U W=0.415U AS=0.02905P AD=0.02905P PS=0.555U
+ PD=0.555U
* device instance $7 r0 *1 0.55,0.2975 NMOS_VTL
M$7 7 3 5 5 NMOS_VTL L=0.05U W=0.415U AS=0.02905P AD=0.02905P PS=0.555U
+ PD=0.555U
* device instance $8 r0 *1 0.74,0.2975 NMOS_VTL
M$8 5 4 7 5 NMOS_VTL L=0.05U W=0.415U AS=0.02905P AD=0.043575P PS=0.555U
+ PD=1.04U
.ENDS NOR4_X1

* cell AND4_X1
* pin A1
* pin A2
* pin A3
* pin A4
* pin NWELL,VDD
* pin PWELL,VSS
* pin ZN
.SUBCKT AND4_X1 1 2 3 4 6 7 8
* net 1 A1
* net 2 A2
* net 3 A3
* net 4 A4
* net 6 NWELL,VDD
* net 7 PWELL,VSS
* net 8 ZN
* device instance $1 r0 *1 0.17,1.1525 PMOS_VTL
M$1 5 1 6 6 PMOS_VTL L=0.05U W=0.315U AS=0.033075P AD=0.02205P PS=0.84U
+ PD=0.455U
* device instance $2 r0 *1 0.36,1.1525 PMOS_VTL
M$2 6 2 5 6 PMOS_VTL L=0.05U W=0.315U AS=0.02205P AD=0.02205P PS=0.455U
+ PD=0.455U
* device instance $3 r0 *1 0.55,1.1525 PMOS_VTL
M$3 5 3 6 6 PMOS_VTL L=0.05U W=0.315U AS=0.02205P AD=0.02205P PS=0.455U
+ PD=0.455U
* device instance $4 r0 *1 0.74,1.1525 PMOS_VTL
M$4 5 4 6 6 PMOS_VTL L=0.05U W=0.315U AS=0.033075P AD=0.02205P PS=0.77U
+ PD=0.455U
* device instance $5 r0 *1 0.93,0.995 PMOS_VTL
M$5 8 5 6 6 PMOS_VTL L=0.05U W=0.63U AS=0.033075P AD=0.06615P PS=0.77U PD=1.47U
* device instance $6 r0 *1 0.17,0.195 NMOS_VTL
M$6 10 1 5 7 NMOS_VTL L=0.05U W=0.21U AS=0.02205P AD=0.0147P PS=0.63U PD=0.35U
* device instance $7 r0 *1 0.36,0.195 NMOS_VTL