
* cell configurable_mult
* pin a[0]
* pin b[3]
* pin a[1]
* pin b[4]
* pin b[2]
* pin a[3]
* pin b[1]
* pin product[2]
* pin a[2]
* pin product[1]
* pin a[4]
* pin b[5]
* pin product[0]
* pin a[7]
* pin b[0]
* pin product[3]
* pin a[6]
* pin b[7]
* pin a[5]
* pin product[4]
* pin b[6]
* pin product[5]
* pin product[15]
* pin product[9]
* pin product[6]
* pin product[7]
* pin product[8]
* pin product[10]
* pin product[11]
* pin product[12]
* pin product[14]
* pin product[13]
* pin sign_mode
* pin NWELL
* pin PWELL,gf180mcu_gnd
.SUBCKT configurable_mult 1 2 3 4 5 6 7 8 9 10 11 12 13 14 15 86 101 123 165
+ 227 247 397 416 518 519 545 567 573 574 575 576 577 578 579 580
* net 1 a[0]
* net 2 b[3]
* net 3 a[1]
* net 4 b[4]
* net 5 b[2]
* net 6 a[3]
* net 7 b[1]
* net 8 product[2]
* net 9 a[2]
* net 10 product[1]
* net 11 a[4]
* net 12 b[5]
* net 13 product[0]
* net 14 a[7]
* net 15 b[0]
* net 86 product[3]
* net 101 a[6]
* net 123 b[7]
* net 165 a[5]
* net 227 product[4]
* net 247 b[6]
* net 397 product[5]
* net 416 product[15]
* net 518 product[9]
* net 519 product[6]
* net 545 product[7]
* net 567 product[8]
* net 573 product[10]
* net 574 product[11]
* net 575 product[12]
* net 576 product[14]
* net 577 product[13]
* net 578 sign_mode
* net 579 NWELL
* net 580 PWELL,gf180mcu_gnd
* cell instance $3 r0 *1 743.12,15.12
X$3 580 1 26 579 gf180mcu_fd_sc_mcu9t5v0__buf_8
* cell instance $7 r0 *1 731.92,5.04
X$7 580 2 16 579 gf180mcu_fd_sc_mcu9t5v0__buf_8
* cell instance $10 m0 *1 740.88,15.12
X$10 580 3 21 579 gf180mcu_fd_sc_mcu9t5v0__buf_8
* cell instance $14 m0 *1 752.08,25.2
X$14 580 4 22 579 gf180mcu_fd_sc_mcu9t5v0__buf_8
* cell instance $18 m0 *1 755.44,15.12
X$18 580 5 34 579 gf180mcu_fd_sc_mcu9t5v0__buf_8
* cell instance $23 r0 *1 746.48,5.04
X$23 580 6 24 579 gf180mcu_fd_sc_mcu9t5v0__buf_8
* cell instance $27 r0 *1 757.68,15.12
X$27 580 7 28 579 gf180mcu_fd_sc_mcu9t5v0__buf_8
* cell instance $30 r0 *1 766.64,25.2
X$30 18 579 580 8 gf180mcu_fd_sc_mcu9t5v0__dlyb_2
* cell instance $34 r0 *1 761.04,5.04
X$34 580 9 17 579 gf180mcu_fd_sc_mcu9t5v0__buf_8
* cell instance $38 r0 *1 772.24,15.12
X$38 19 579 580 10 gf180mcu_fd_sc_mcu9t5v0__dlyb_2
* cell instance $43 m0 *1 773.36,15.12
X$43 580 11 36 579 gf180mcu_fd_sc_mcu9t5v0__buf_8
* cell instance $46 r0 *1 775.6,5.04
X$46 580 12 77 579 gf180mcu_fd_sc_mcu9t5v0__buf_8
* cell instance $50 m0 *1 790.16,15.12
X$50 20 579 580 13 gf180mcu_fd_sc_mcu9t5v0__dlyb_2
* cell instance $55 m0 *1 815.36,15.12
X$55 580 579 14 49 gf180mcu_fd_sc_mcu9t5v0__buf_4
* cell instance $58 r0 *1 820.4,5.04
X$58 580 579 15 23 gf180mcu_fd_sc_mcu9t5v0__buf_4
* cell instance $62 r0 *1 883.12,791.28
X$62 580 579 16 98 50 gf180mcu_fd_sc_mcu9t5v0__nand2_2
* cell instance $65 r0 *1 744.8,781.2
X$65 580 579 26 44 16 gf180mcu_fd_sc_mcu9t5v0__nand2_2
* cell instance $67 r0 *1 868,781.2
X$67 579 16 64 580 79 gf180mcu_fd_sc_mcu9t5v0__and2_2
* cell instance $69 r0 *1 847.84,801.36
X$69 579 16 62 580 115 gf180mcu_fd_sc_mcu9t5v0__and2_2
* cell instance $72 r0 *1 778.4,811.44
X$72 580 579 24 140 16 gf180mcu_fd_sc_mcu9t5v0__nand2_2
* cell instance $75 m0 *1 744.24,821.52
X$75 579 21 16 580 189 gf180mcu_fd_sc_mcu9t5v0__and2_2
* cell instance $77 m0 *1 756,821.52
X$77 580 579 17 218 16 gf180mcu_fd_sc_mcu9t5v0__nand2_2
* cell instance $79 r0 *1 810.32,811.44
X$79 580 579 16 173 36 gf180mcu_fd_sc_mcu9t5v0__nand2_2
* cell instance $95 m0 *1 756,801.36
X$95 580 579 17 107 34 gf180mcu_fd_sc_mcu9t5v0__nand2_2
* cell instance $97 m0 *1 754.88,761.04
X$97 580 579 30 35 17 gf180mcu_fd_sc_mcu9t5v0__nand2_2
* cell instance $100 m0 *1 758.8,771.12
X$100 580 579 28 47 17 gf180mcu_fd_sc_mcu9t5v0__nand2_2
* cell instance $102 r0 *1 784.56,811.44
X$102 580 579 17 142 22 gf180mcu_fd_sc_mcu9t5v0__nand2_2
* cell instance $105 m0 *1 790.72,821.52
X$105 580 579 17 172 77 gf180mcu_fd_sc_mcu9t5v0__nand2_2
* cell instance $107 m0 *1 847.84,841.68
X$107 580 579 17 236 gf180mcu_fd_sc_mcu9t5v0__clkinv_2
* cell instance $109 m0 *1 841.68,831.6
X$109 580 579 17 199 177 gf180mcu_fd_sc_mcu9t5v0__nand2_2
* cell instance $111 m0 *1 820.96,841.68
X$111 580 579 17 235 150 gf180mcu_fd_sc_mcu9t5v0__nand2_2
* cell instance $126 m0 *1 758.24,730.8
X$126 580 579 25 18 gf180mcu_fd_sc_mcu9t5v0__clkbuf_4
* cell instance $138 m0 *1 766.08,730.8
X$138 580 579 29 19 gf180mcu_fd_sc_mcu9t5v0__clkbuf_4
* cell instance $147 r0 *1 780.08,740.88
X$147 579 26 30 20 580 gf180mcu_fd_sc_mcu9t5v0__and2_4
* cell instance $153 r0 *1 762.72,750.96
X$153 580 579 21 42 28 gf180mcu_fd_sc_mcu9t5v0__nand2_2
* cell instance $155 r0 *1 752.08,781.2
X$155 580 579 21 46 34 gf180mcu_fd_sc_mcu9t5v0__nand2_2
* cell instance $157 m0 *1 792.96,841.68
X$157 580 579 21 231 150 gf180mcu_fd_sc_mcu9t5v0__nand2_2
* cell instance $159 r0 *1 769.44,821.52
X$159 580 579 21 221 22 gf180mcu_fd_sc_mcu9t5v0__nand2_2
* cell instance $163 r0 *1 773.36,811.44
X$163 580 579 21 139 77 gf180mcu_fd_sc_mcu9t5v0__nand2_2
* cell instance $165 m0 *1 813.68,841.68
X$165 580 579 21 233 177 gf180mcu_fd_sc_mcu9t5v0__nand2_2
* cell instance $167 r0 *1 812.56,841.68
X$167 580 579 21 263 gf180mcu_fd_sc_mcu9t5v0__clkinv_2
* cell instance $171 r0 *1 758.24,740.88
X$171 579 30 21 580 27 gf180mcu_fd_sc_mcu9t5v0__and2_2
* cell instance $189 m0 *1 919.52,811.44
X$189 579 22 50 580 153 gf180mcu_fd_sc_mcu9t5v0__and2_2
* cell instance $191 r0 *1 861.28,801.36
X$191 579 36 22 580 116 gf180mcu_fd_sc_mcu9t5v0__and2_2
* cell instance $195 r0 *1 750.96,821.52
X$195 579 26 22 580 217 gf180mcu_fd_sc_mcu9t5v0__and2_2
* cell instance $199 r0 *1 900.48,791.28
X$199 580 579 22 124 64 gf180mcu_fd_sc_mcu9t5v0__nand2_2
* cell instance $201 r0 *1 892.64,781.2
X$201 579 22 62 580 76 gf180mcu_fd_sc_mcu9t5v0__and2_2
* cell instance $203 m0 *1 816.48,821.52
X$203 580 579 24 175 22 gf180mcu_fd_sc_mcu9t5v0__nand2_2
* cell instance $218 m0 *1 821.52,761.04
X$218 23 580 28 579 37 gf180mcu_fd_sc_mcu9t5v0__xor2_2
* cell instance $220 r0 *1 820.4,740.88
X$220 580 579 23 30 gf180mcu_fd_sc_mcu9t5v0__buf_4
* cell instance $225 r0 *1 770,781.2
X$225 580 579 34 61 24 gf180mcu_fd_sc_mcu9t5v0__nand2_2
* cell instance $227 r0 *1 753.2,791.28
X$227 580 579 28 130 24 gf180mcu_fd_sc_mcu9t5v0__nand2_2
* cell instance $229 m0 *1 753.2,781.2
X$229 580 579 30 56 24 gf180mcu_fd_sc_mcu9t5v0__nand2_2
* cell instance $231 m0 *1 866.88,821.52
X$231 580 579 24 179 177 gf180mcu_fd_sc_mcu9t5v0__nand2_2
* cell instance $233 m0 *1 868,831.6
X$233 580 579 24 203 gf180mcu_fd_sc_mcu9t5v0__clkinv_2
* cell instance $236 r0 *1 851.76,811.44
X$236 579 24 77 580 146 gf180mcu_fd_sc_mcu9t5v0__and2_2
* cell instance $238 r0 *1 846.72,831.6
X$238 580 579 24 198 150 gf180mcu_fd_sc_mcu9t5v0__nand2_2
* cell instance $250 m0 *1 748.16,750.96
X$250 38 580 579 32 39 25 gf180mcu_fd_sc_mcu9t5v0__addh_1
* cell instance $256 m0 *1 749.84,761.04
X$256 580 579 26 40 34 gf180mcu_fd_sc_mcu9t5v0__nand2_2
* cell instance $258 m0 *1 787.36,841.68
X$258 580 579 26 255 gf180mcu_fd_sc_mcu9t5v0__clkinv_2
* cell instance $260 r0 *1 783.44,841.68
X$260 580 579 26 292 177 gf180mcu_fd_sc_mcu9t5v0__nand2_2
* cell instance $264 r0 *1 768.32,841.68
X$264 579 26 150 580 259 gf180mcu_fd_sc_mcu9t5v0__and2_2
* cell instance $267 r0 *1 764.4,821.52
X$267 580 579 26 195 77 gf180mcu_fd_sc_mcu9t5v0__nand2_2
* cell instance $269 m0 *1 753.2,740.88
X$269 579 26 28 580 31 gf180mcu_fd_sc_mcu9t5v0__and2_2
* cell instance $284 m0 *1 759.36,740.88
X$284 32 580 579 31 27 29 gf180mcu_fd_sc_mcu9t5v0__addh_1
* cell instance $286 r0 *1 823.2,781.2
X$286 579 28 50 580 83 gf180mcu_fd_sc_mcu9t5v0__and2_2
* cell instance $289 r0 *1 814.24,781.2
X$289 580 579 28 65 64 gf180mcu_fd_sc_mcu9t5v0__nand2_2
* cell instance $297 r0 *1 761.04,781.2
X$297 580 579 28 59 36 gf180mcu_fd_sc_mcu9t5v0__nand2_2
* cell instance $301 m0 *1 818.16,781.2
X$301 30 579 28 49 580 53 gf180mcu_fd_sc_mcu9t5v0__and3_2
* cell instance $304 r0 *1 789.04,791.28
X$304 580 579 28 105 62 gf180mcu_fd_sc_mcu9t5v0__nand2_2
* cell instance $319 m0 *1 761.04,801.36
X$319 580 579 30 131 36 gf180mcu_fd_sc_mcu9t5v0__nand2_2
* cell instance $321 m0 *1 793.52,791.28
X$321 580 579 30 91 64 gf180mcu_fd_sc_mcu9t5v0__nand2_2
* cell instance $323 m0 *1 813.12,781.2
X$323 580 579 30 63 49 gf180mcu_fd_sc_mcu9t5v0__nand2_2
* cell instance $326 m0 *1 818.16,801.36
X$326 30 579 50 106 580 111 gf180mcu_fd_sc_mcu9t5v0__and3_2
* cell instance $331 m0 *1 787.36,791.28
X$331 580 579 30 60 62 gf180mcu_fd_sc_mcu9t5v0__nand2_2
* cell instance $352 r0 *1 745.92,750.96
X$352 580 40 33 41 42 35 579 gf180mcu_fd_sc_mcu9t5v0__addf_1
* cell instance $354 m0 *1 744.24,750.96
X$354 580 579 33 39 gf180mcu_fd_sc_mcu9t5v0__clkinv_2
* cell instance $356 r0 *1 837.76,781.2
X$356 579 34 64 580 66 gf180mcu_fd_sc_mcu9t5v0__and2_2
* cell instance $359 m0 *1 806.4,791.28
X$359 580 579 34 92 62 gf180mcu_fd_sc_mcu9t5v0__nand2_2
* cell instance $366 m0 *1 770.56,801.36
X$366 580 579 34 133 36 gf180mcu_fd_sc_mcu9t5v0__nand2_2
* cell instance $368 r0 *1 837.76,771.12
X$368 580 579 34 54 50 gf180mcu_fd_sc_mcu9t5v0__nand2_2
* cell instance $393 r0 *1 878.08,811.44
X$393 580 579 36 178 150 gf180mcu_fd_sc_mcu9t5v0__nand2_2
* cell instance $395 m0 *1 892.08,821.52
X$395 580 579 36 192 177 gf180mcu_fd_sc_mcu9t5v0__nand2_2
* cell instance $397 r0 *1 891.52,811.44
X$397 580 579 36 151 gf180mcu_fd_sc_mcu9t5v0__clkinv_2
* cell instance $400 m0 *1 877.52,781.2
X$400 579 36 77 580 73 gf180mcu_fd_sc_mcu9t5v0__and2_2
* cell instance $411 r0 *1 827.68,771.12
X$411 579 50 37 580 51 gf180mcu_fd_sc_mcu9t5v0__and2_2
* cell instance $415 m0 *1 730.8,791.28
X$415 87 580 579 78 38 103 gf180mcu_fd_sc_mcu9t5v0__addh_1
* cell instance $426 m0 *1 736.4,781.2
X$426 580 44 43 57 41 45 579 gf180mcu_fd_sc_mcu9t5v0__addf_1
* cell instance $436 r0 *1 734.72,781.2
X$436 580 579 43 78 gf180mcu_fd_sc_mcu9t5v0__clkinv_2
* cell instance $442 r0 *1 745.36,771.12
X$442 580 56 45 48 47 46 579 gf180mcu_fd_sc_mcu9t5v0__addf_1
* cell instance $451 r0 *1 740.32,811.44
X$451 580 166 188 168 48 167 579 gf180mcu_fd_sc_mcu9t5v0__addf_1
* cell instance $460 r0 *1 819.84,771.12
X$460 580 579 49 50 gf180mcu_fd_sc_mcu9t5v0__clkbuf_4
* cell instance $469 m0 *1 978.32,811.44
X$469 580 579 50 162 gf180mcu_fd_sc_mcu9t5v0__clkinv_2
* cell instance $473 m0 *1 969.36,821.52
X$473 579 50 106 580 183 gf180mcu_fd_sc_mcu9t5v0__and2_2
* cell instance $475 m0 *1 974.96,821.52
X$475 579 150 50 580 184 gf180mcu_fd_sc_mcu9t5v0__and2_2
* cell instance $477 m0 *1 925.12,821.52
X$477 579 77 50 580 182 gf180mcu_fd_sc_mcu9t5v0__and2_2
* cell instance $491 m0 *1 847.28,781.2
X$491 580 85 70 51 68 579 gf180mcu_fd_sc_mcu9t5v0__addh_2
* cell instance $494 m0 *1 829.36,781.2
X$494 55 580 579 66 51 52 gf180mcu_fd_sc_mcu9t5v0__addh_1
* cell instance $499 m0 *1 826,811.44
X$499 580 52 234 170 113 112 579 gf180mcu_fd_sc_mcu9t5v0__addf_1
* cell instance $505 m0 *1 840,781.2
X$505 580 55 53 579 82 gf180mcu_fd_sc_mcu9t5v0__or2_2
* cell instance $507 r0 *1 845.6,781.2
X$507 580 85 53 579 75 gf180mcu_fd_sc_mcu9t5v0__or2_2
* cell instance $512 m0 *1 850.64,791.28
X$512 580 80 69 104 54 71 579 gf180mcu_fd_sc_mcu9t5v0__addf_1
* cell instance $514 m0 *1 847.28,791.28
X$514 580 579 54 68 gf180mcu_fd_sc_mcu9t5v0__clkinv_2
* cell instance $528 m0 *1 746.48,791.28
X$528 580 579 57 88 gf180mcu_fd_sc_mcu9t5v0__clkinv_2
* cell instance $532 m0 *1 761.04,791.28
X$532 580 59 58 90 61 60 579 gf180mcu_fd_sc_mcu9t5v0__addf_1
* cell instance $534 r0 *1 749.84,831.6
X$534 580 58 251 307 219 190 579 gf180mcu_fd_sc_mcu9t5v0__addf_1
* cell instance $551 m0 *1 953.12,811.44
X$551 580 579 62 158 gf180mcu_fd_sc_mcu9t5v0__clkinv_2
* cell instance $555 r0 *1 902.72,811.44
X$555 580 579 62 180 150 gf180mcu_fd_sc_mcu9t5v0__nand2_2
* cell instance $557 r0 *1 893.2,791.28
X$557 580 579 62 96 77 gf180mcu_fd_sc_mcu9t5v0__nand2_2
* cell instance $559 m0 *1 945.84,811.44
X$559 579 62 106 580 157 gf180mcu_fd_sc_mcu9t5v0__and2_2
* cell instance $562 m0 *1 1687.84,811.44
X$562 580 165 62 579 gf180mcu_fd_sc_mcu9t5v0__buf_8
* cell instance $573 m0 *1 812.56,791.28
X$573 579 106 63 580 93 gf180mcu_fd_sc_mcu9t5v0__xnor2_2
* cell instance $575 r0 *1 801.92,791.28
X$575 580 63 109 129 65 92 579 gf180mcu_fd_sc_mcu9t5v0__addf_1
* cell instance $586 m0 *1 924.56,811.44
X$586 579 77 64 580 154 gf180mcu_fd_sc_mcu9t5v0__and2_2
* cell instance $588 r0 *1 960.4,811.44
X$588 579 64 150 580 159 gf180mcu_fd_sc_mcu9t5v0__and2_2
* cell instance $591 r0 *1 1681.12,791.28
X$591 580 101 64 579 gf180mcu_fd_sc_mcu9t5v0__clkbuf_8
* cell instance $593 r0 *1 984.48,811.44
X$593 580 579 64 164 gf180mcu_fd_sc_mcu9t5v0__clkinv_2
* cell instance $597 r0 *1 974.4,811.44
X$597 579 64 106 580 161 gf180mcu_fd_sc_mcu9t5v0__and2_2
* cell instance $616 r0 *1 818.72,791.28
X$616 580 579 65 132 gf180mcu_fd_sc_mcu9t5v0__clkinv_2
* cell instance $622 r0 *1 828.24,781.2
X$622 84 580 579 83 66 67 gf180mcu_fd_sc_mcu9t5v0__addh_1
* cell instance $626 r0 *1 833.28,791.28
X$626 580 579 67 94 gf180mcu_fd_sc_mcu9t5v0__clkinv_2
* cell instance $630 r0 *1 840,821.52
X$630 580 193 197 257 69 176 579 gf180mcu_fd_sc_mcu9t5v0__addf_1
* cell instance $634 r0 *1 851.2,781.2
X$634 580 70 81 127 72 82 579 gf180mcu_fd_sc_mcu9t5v0__addf_1
* cell instance $636 m0 *1 891.52,791.28
X$636 580 120 74 97 70 75 579 gf180mcu_fd_sc_mcu9t5v0__addf_1
* cell instance $638 r0 *1 911.12,801.36
X$638 580 579 70 122 gf180mcu_fd_sc_mcu9t5v0__clkinv_2
* cell instance $647 m0 *1 867.44,791.28
X$647 580 579 72 71 gf180mcu_fd_sc_mcu9t5v0__clkinv_2
* cell instance $652 r0 *1 873.04,781.2
X$652 580 79 72 76 73 95 579 gf180mcu_fd_sc_mcu9t5v0__addf_2
* cell instance $660 m0 *1 889.84,801.36
X$660 580 579 74 119 gf180mcu_fd_sc_mcu9t5v0__clkinv_2
* cell instance $665 m0 *1 918.4,791.28
X$665 580 579 75 100 gf180mcu_fd_sc_mcu9t5v0__clkinv_2
* cell instance $701 m0 *1 840.56,791.28
X$701 580 579 84 80 gf180mcu_fd_sc_mcu9t5v0__clkinv_2
* cell instance $706 m0 *1 845.04,801.36
X$706 580 579 81 114 gf180mcu_fd_sc_mcu9t5v0__clkinv_2
* cell instance $725 r0 *1 10.64,791.28
X$725 102 579 580 86 gf180mcu_fd_sc_mcu9t5v0__dlyb_2
* cell instance $729 r0 *1 726.32,831.6
X$729 228 580 579 215 87 250 gf180mcu_fd_sc_mcu9t5v0__addh_1
* cell instance $732 m0 *1 733.6,831.6
X$732 286 580 579 88 171 215 gf180mcu_fd_sc_mcu9t5v0__addh_1
* cell instance $736 r0 *1 766.08,801.36
X$736 580 89 108 134 90 311 579 gf180mcu_fd_sc_mcu9t5v0__addf_2
* cell instance $738 r0 *1 770,791.28
X$738 580 133 89 105 91 136 579 gf180mcu_fd_sc_mcu9t5v0__addf_2
* cell instance $747 m0 *1 799.68,821.52
X$747 580 175 144 174 173 92 579 gf180mcu_fd_sc_mcu9t5v0__addf_1
* cell instance $751 m0 *1 807.52,801.36
X$751 135 580 579 132 93 137 gf180mcu_fd_sc_mcu9t5v0__addh_1
* cell instance $756 r0 *1 820.96,801.36
X$756 580 129 266 193 94 128 579 gf180mcu_fd_sc_mcu9t5v0__addf_1
* cell instance $759 m0 *1 873.6,851.76
X$759 580 95 301 354 300 238 579 gf180mcu_fd_sc_mcu9t5v0__addf_1
* cell instance $761 r0 *1 874.72,811.44
X$761 580 579 95 149 gf180mcu_fd_sc_mcu9t5v0__clkinv_2
* cell instance $766 m0 *1 894.32,801.36
X$766 580 96 120 98 124 121 579 gf180mcu_fd_sc_mcu9t5v0__addf_2
* cell instance $769 r0 *1 909.44,791.28
X$769 580 579 97 99 gf180mcu_fd_sc_mcu9t5v0__clkinv_2
* cell instance $773 r0 *1 914.48,801.36
X$773 580 579 98 152 gf180mcu_fd_sc_mcu9t5v0__clkinv_2
* cell instance $780 r0 *1 901.04,841.68
X$780 580 240 323 302 99 242 579 gf180mcu_fd_sc_mcu9t5v0__addf_1
* cell instance $783 r0 *1 918.96,831.6
X$783 580 122 240 244 100 205 579 gf180mcu_fd_sc_mcu9t5v0__addf_1
* cell instance $786 m0 *1 927.36,841.68
X$786 580 122 273 100 249 274 579 gf180mcu_fd_sc_mcu9t5v0__addf_2
* cell instance $795 r0 *1 705.04,791.28
X$795 580 579 103 102 gf180mcu_fd_sc_mcu9t5v0__clkbuf_4
* cell instance $804 r0 *1 879.76,791.28
X$804 580 579 104 126 gf180mcu_fd_sc_mcu9t5v0__clkinv_2
* cell instance $811 r0 *1 1681.12,801.36
X$811 580 123 106 579 gf180mcu_fd_sc_mcu9t5v0__clkbuf_8
* cell instance $816 m0 *1 984.48,821.52
X$816 579 164 106 580 185 gf180mcu_fd_sc_mcu9t5v0__and2_2
* cell instance $818 m0 *1 956.48,811.44
X$818 579 158 106 580 160 gf180mcu_fd_sc_mcu9t5v0__and2_2
* cell instance $820 r0 *1 979.44,811.44
X$820 579 162 106 580 163 gf180mcu_fd_sc_mcu9t5v0__and2_2
* cell instance $823 m0 *1 855.68,821.52
X$823 580 579 106 177 gf180mcu_fd_sc_mcu9t5v0__buf_4
* cell instance $841 r0 *1 749.28,801.36
X$841 580 130 166 190 131 107 579 gf180mcu_fd_sc_mcu9t5v0__addf_1
* cell instance $843 r0 *1 750.96,861.84
X$843 580 306 340 386 307 108 579 gf180mcu_fd_sc_mcu9t5v0__addf_1
* cell instance $849 r0 *1 787.92,821.52
X$849 580 136 312 294 224 109 579 gf180mcu_fd_sc_mcu9t5v0__addf_1
* cell instance $851 r0 *1 805.84,801.36
X$851 580 579 137 110 gf180mcu_fd_sc_mcu9t5v0__clkinv_2
* cell instance $853 r0 *1 792.4,811.44
X$853 580 136 143 145 110 144 579 gf180mcu_fd_sc_mcu9t5v0__addf_1
* cell instance $856 r0 *1 815.36,801.36
X$856 580 135 111 579 112 gf180mcu_fd_sc_mcu9t5v0__or2_2
* cell instance $862 m0 *1 847.84,811.44
X$862 580 115 113 116 146 147 579 gf180mcu_fd_sc_mcu9t5v0__addf_2
* cell instance $867 r0 *1 837.76,801.36
X$867 580 579 113 128 gf180mcu_fd_sc_mcu9t5v0__clkinv_2
* cell instance $870 m0 *1 842.8,871.92
X$870 580 114 395 396 319 353 579 gf180mcu_fd_sc_mcu9t5v0__addf_1
* cell instance $876 r0 *1 873.6,801.36
X$876 580 120 117 125 126 118 579 gf180mcu_fd_sc_mcu9t5v0__addf_1
* cell instance $878 r0 *1 871.36,811.44
X$878 580 579 117 226 gf180mcu_fd_sc_mcu9t5v0__clkinv_2
* cell instance $881 m0 *1 875.28,811.44
X$881 580 579 148 118 gf180mcu_fd_sc_mcu9t5v0__clkinv_2
* cell instance $885 r0 *1 865.76,851.76
X$885 580 202 321 324 119 270 579 gf180mcu_fd_sc_mcu9t5v0__addf_1
* cell instance $896 m0 *1 899.92,821.52
X$896 580 192 239 191 121 180 579 gf180mcu_fd_sc_mcu9t5v0__addf_1
* cell instance $899 r0 *1 910,821.52
X$899 580 579 121 253 gf180mcu_fd_sc_mcu9t5v0__clkinv_2
* cell instance $913 r0 *1 891.52,861.84
X$913 580 579 125 385 gf180mcu_fd_sc_mcu9t5v0__clkinv_2
* cell instance $921 r0 *1 866.32,801.36
X$921 580 579 127 202 gf180mcu_fd_sc_mcu9t5v0__clkinv_2
* cell instance $945 m0 *1 771.12,811.44
X$945 580 139 134 142 140 141 579 gf180mcu_fd_sc_mcu9t5v0__addf_2
* cell instance $963 r0 *1 738.08,821.52
X$963 194 580 579 189 217 138 gf180mcu_fd_sc_mcu9t5v0__addh_1
* cell instance $965 m0 *1 745.92,811.44
X$965 580 579 138 167 gf180mcu_fd_sc_mcu9t5v0__clkinv_2
* cell instance $971 m0 *1 779.52,851.76
X$971 580 292 310 313 231 141 579 gf180mcu_fd_sc_mcu9t5v0__addf_1
* cell instance $975 m0 *1 775.04,851.76
X$975 580 579 141 261 gf180mcu_fd_sc_mcu9t5v0__clkinv_2
* cell instance $982 m0 *1 774.48,871.92
X$982 580 388 387 389 311 143 579 gf180mcu_fd_sc_mcu9t5v0__addf_1
* cell instance $988 m0 *1 806.4,871.92
X$988 580 145 402 391 392 390 579 gf180mcu_fd_sc_mcu9t5v0__addf_1
* cell instance $993 r0 *1 848.96,851.76
X$993 580 147 317 320 269 297 579 gf180mcu_fd_sc_mcu9t5v0__addf_1
* cell instance $995 m0 *1 859.04,841.68
X$995 580 579 147 200 gf180mcu_fd_sc_mcu9t5v0__clkinv_2
* cell instance $1001 m0 *1 875.28,821.52
X$1001 580 149 148 322 178 179 579 gf180mcu_fd_sc_mcu9t5v0__addf_1
* cell instance $1006 r0 *1 1681.12,831.6
X$1006 580 247 150 579 gf180mcu_fd_sc_mcu9t5v0__buf_8
* cell instance $1029 r0 *1 893.2,821.52
X$1029 579 151 177 580 223 gf180mcu_fd_sc_mcu9t5v0__and2_2
* cell instance $1032 r0 *1 926.8,811.44
X$1032 580 152 181 206 153 154 579 gf180mcu_fd_sc_mcu9t5v0__addf_1
* cell instance $1036 m0 *1 931.28,821.52
X$1036 580 152 216 153 182 209 579 gf180mcu_fd_sc_mcu9t5v0__addf_2
* cell instance $1043 m0 *1 931.28,811.44
X$1043 169 580 579 153 154 155 gf180mcu_fd_sc_mcu9t5v0__addh_1
* cell instance $1057 m0 *1 909.44,861.84
X$1057 325 580 579 155 351 328 gf180mcu_fd_sc_mcu9t5v0__addh_1
* cell instance $1061 r0 *1 943.6,811.44
X$1061 580 169 156 245 159 157 579 gf180mcu_fd_sc_mcu9t5v0__addf_1
* cell instance $1063 m0 *1 936.88,861.84
X$1063 337 580 579 156 182 338 gf180mcu_fd_sc_mcu9t5v0__addh_1
* cell instance $1072 r0 *1 955.36,821.52
X$1072 207 580 579 160 159 187 gf180mcu_fd_sc_mcu9t5v0__addh_1
* cell instance $1078 r0 *1 973.84,861.84
X$1078 378 580 579 161 184 331 gf180mcu_fd_sc_mcu9t5v0__addh_1
* cell instance $1083 m0 *1 978.88,831.6
X$1083 210 580 579 163 184 211 gf180mcu_fd_sc_mcu9t5v0__addh_1
* cell instance $1097 m0 *1 752.64,841.68
X$1097 580 579 168 230 gf180mcu_fd_sc_mcu9t5v0__clkinv_2
* cell instance $1107 r0 *1 853.44,861.84
X$1107 580 579 170 319 gf180mcu_fd_sc_mcu9t5v0__clkinv_2
* cell instance $1111 m0 *1 740.32,821.52
X$1111 580 579 188 171 gf180mcu_fd_sc_mcu9t5v0__clkinv_2
* cell instance $1116 r0 *1 788.48,841.68
X$1116 580 172 291 265 232 231 579 gf180mcu_fd_sc_mcu9t5v0__addf_1
* cell instance $1119 r0 *1 805.84,821.52
X$1119 580 172 224 225 175 173 579 gf180mcu_fd_sc_mcu9t5v0__addf_1
* cell instance $1130 r0 *1 807.52,861.84
X$1130 580 348 390 393 174 265 579 gf180mcu_fd_sc_mcu9t5v0__addf_1
* cell instance $1140 m0 *1 846.72,831.6
X$1140 580 198 176 201 200 199 579 gf180mcu_fd_sc_mcu9t5v0__addf_1
* cell instance $1146 r0 *1 851.76,841.68
X$1146 579 236 177 580 268 gf180mcu_fd_sc_mcu9t5v0__and2_2
* cell instance $1151 r0 *1 869.68,831.6
X$1151 579 203 177 580 254 gf180mcu_fd_sc_mcu9t5v0__and2_2
* cell instance $1154 m0 *1 799.68,841.68
X$1154 580 579 255 232 177 gf180mcu_fd_sc_mcu9t5v0__nand2_2
* cell instance $1163 r0 *1 814.24,851.76
X$1163 579 263 177 580 350 gf180mcu_fd_sc_mcu9t5v0__and2_2
* cell instance $1176 m0 *1 878.08,831.6
X$1176 580 579 178 256 gf180mcu_fd_sc_mcu9t5v0__clkinv_2
* cell instance $1186 r0 *1 903.28,821.52
X$1186 580 579 180 204 gf180mcu_fd_sc_mcu9t5v0__clkinv_2
* cell instance $1192 r0 *1 924.56,821.52
X$1192 580 579 181 205 gf180mcu_fd_sc_mcu9t5v0__clkinv_2
* cell instance $1200 m0 *1 972.16,871.92
X$1200 377 580 579 378 183 379 gf180mcu_fd_sc_mcu9t5v0__addh_1
* cell instance $1206 r0 *1 976.08,821.52
X$1206 213 580 579 185 184 186 gf180mcu_fd_sc_mcu9t5v0__addh_1
* cell instance $1214 m0 *1 954.24,831.6
X$1214 580 186 248 208 209 207 579 gf180mcu_fd_sc_mcu9t5v0__addf_1
* cell instance $1219 r0 *1 935.76,831.6
X$1219 580 220 272 295 187 206 579 gf180mcu_fd_sc_mcu9t5v0__addf_1
* cell instance $1236 r0 *1 906.64,861.84
X$1236 580 579 191 326 gf180mcu_fd_sc_mcu9t5v0__clkinv_2
* cell instance $1247 r0 *1 734.72,841.68
X$1247 580 194 285 421 230 229 579 gf180mcu_fd_sc_mcu9t5v0__addf_1
* cell instance $1250 m0 *1 756.56,831.6
X$1250 580 218 219 196 221 195 579 gf180mcu_fd_sc_mcu9t5v0__addf_1
* cell instance $1254 m0 *1 771.12,841.68
X$1254 580 579 196 260 gf180mcu_fd_sc_mcu9t5v0__clkinv_2
* cell instance $1257 m0 *1 824.88,861.84
X$1257 580 315 352 318 197 316 579 gf180mcu_fd_sc_mcu9t5v0__addf_1
* cell instance $1261 m0 *1 851.76,841.68
X$1261 580 579 198 258 gf180mcu_fd_sc_mcu9t5v0__clkinv_2
* cell instance $1270 r0 *1 852.88,831.6
X$1270 580 257 237 356 226 201 579 gf180mcu_fd_sc_mcu9t5v0__addf_1
* cell instance $1277 m0 *1 903.84,831.6
X$1277 220 580 579 204 223 252 gf180mcu_fd_sc_mcu9t5v0__addh_1
* cell instance $1288 r0 *1 966,831.6
X$1288 580 579 208 288 gf180mcu_fd_sc_mcu9t5v0__clkinv_2
* cell instance $1292 r0 *1 978.88,831.6
X$1292 580 209 284 246 211 213 579 gf180mcu_fd_sc_mcu9t5v0__addf_1
* cell instance $1294 m0 *1 988.4,831.6
X$1294 582 580 579 209 211 212 gf180mcu_fd_sc_mcu9t5v0__addh_1
* cell instance $1301 m0 *1 982.24,861.84
X$1301 580 332 210 330 281 579 gf180mcu_fd_sc_mcu9t5v0__xnor3_2
* cell instance $1311 r0 *1 993.44,841.68
X$1311 580 212 246 281 282 579 gf180mcu_fd_sc_mcu9t5v0__xnor3_2
* cell instance $1317 r0 *1 10.08,831.6
X$1317 214 579 580 227 gf180mcu_fd_sc_mcu9t5v0__dlyb_2
* cell instance $1320 r0 *1 702.8,831.6
X$1320 580 579 250 214 gf180mcu_fd_sc_mcu9t5v0__clkbuf_4
* cell instance $1328 m0 *1 931.84,831.6
X$1328 580 579 216 249 gf180mcu_fd_sc_mcu9t5v0__clkinv_2
* cell instance $1348 r0 *1 874.72,831.6
X$1348 222 580 579 256 254 238 gf180mcu_fd_sc_mcu9t5v0__addh_1
* cell instance $1351 r0 *1 902.16,831.6
X$1351 580 253 241 243 252 222 579 gf180mcu_fd_sc_mcu9t5v0__addf_1
* cell instance $1362 r0 *1 815.92,841.68
X$1362 580 233 264 316 225 235 579 gf180mcu_fd_sc_mcu9t5v0__addf_1
* cell instance $1374 r0 *1 725.2,861.84
X$1374 580 304 357 228 287 579 gf180mcu_fd_sc_mcu9t5v0__addh_2
* cell instance $1376 m0 *1 744.8,841.68
X$1376 580 579 251 229 gf180mcu_fd_sc_mcu9t5v0__clkinv_2
* cell instance $1393 r0 *1 824.32,861.84
X$1393 580 579 234 392 gf180mcu_fd_sc_mcu9t5v0__clkinv_2
* cell instance $1397 m0 *1 827.12,851.76
X$1397 580 579 235 267 gf180mcu_fd_sc_mcu9t5v0__clkinv_2
* cell instance $1402 r0 *1 852.88,871.92
X$1402 580 579 237 363 gf180mcu_fd_sc_mcu9t5v0__clkinv_2
* cell instance $1407 r0 *1 903.84,851.76
X$1407 580 579 239 351 gf180mcu_fd_sc_mcu9t5v0__clkinv_2
* cell instance $1414 m0 *1 903.28,841.68
X$1414 580 579 241 242 gf180mcu_fd_sc_mcu9t5v0__clkinv_2
* cell instance $1420 r0 *1 922.32,841.68
X$1420 580 579 243 271 gf180mcu_fd_sc_mcu9t5v0__clkinv_2
* cell instance $1423 m0 *1 924.56,851.76
X$1423 580 299 303 298 244 273 579 gf180mcu_fd_sc_mcu9t5v0__addf_1
* cell instance $1426 r0 *1 952.56,861.84
X$1426 580 337 374 329 331 245 579 gf180mcu_fd_sc_mcu9t5v0__addf_1
* cell instance $1434 r0 *1 953.68,831.6
X$1434 580 579 248 276 gf180mcu_fd_sc_mcu9t5v0__clkinv_2
* cell instance $1466 m0 *1 854,851.76
X$1466 300 580 579 258 268 269 gf180mcu_fd_sc_mcu9t5v0__addh_1
* cell instance $1472 m0 *1 763.28,851.76
X$1472 580 289 290 260 259 579 gf180mcu_fd_sc_mcu9t5v0__addh_2
* cell instance $1477 r0 *1 774.48,851.76
X$1477 308 580 579 262 261 344 gf180mcu_fd_sc_mcu9t5v0__addh_1
* cell instance $1479 r0 *1 778.4,841.68
X$1479 580 579 291 262 gf180mcu_fd_sc_mcu9t5v0__clkinv_2
* cell instance $1485 m0 *1 808.64,851.76
X$1485 580 294 346 315 266 264 579 gf180mcu_fd_sc_mcu9t5v0__addf_1
* cell instance $1494 r0 *1 826.56,851.76
X$1494 297 580 579 267 350 349 gf180mcu_fd_sc_mcu9t5v0__addh_1
* cell instance $1500 m0 *1 870.24,851.76
X$1500 580 579 301 270 gf180mcu_fd_sc_mcu9t5v0__clkinv_2
* cell instance $1505 r0 *1 916.72,851.76
X$1505 580 303 327 341 302 271 579 gf180mcu_fd_sc_mcu9t5v0__addf_1
* cell instance $1509 r0 *1 932.96,841.68
X$1509 580 579 272 299 gf180mcu_fd_sc_mcu9t5v0__clkinv_2
* cell instance $1511 m0 *1 948.08,851.76
X$1511 580 274 296 277 273 276 579 gf180mcu_fd_sc_mcu9t5v0__addf_1
* cell instance $1514 m0 *1 968.8,851.76
X$1514 580 274 278 280 279 273 579 gf180mcu_fd_sc_mcu9t5v0__addf_1
* cell instance $1520 r0 *1 974.96,851.76
X$1520 580 579 273 334 gf180mcu_fd_sc_mcu9t5v0__clkinv_2
* cell instance $1527 m0 *1 965.44,851.76
X$1527 580 579 274 333 gf180mcu_fd_sc_mcu9t5v0__clkinv_2
* cell instance $1533 r0 *1 942.48,851.76
X$1533 580 298 339 335 275 296 579 gf180mcu_fd_sc_mcu9t5v0__addf_1
* cell instance $1535 r0 *1 950.88,841.68
X$1535 580 579 295 275 gf180mcu_fd_sc_mcu9t5v0__clkinv_2
* cell instance $1541 r0 *1 958.72,841.68
X$1541 580 288 293 283 278 277 579 gf180mcu_fd_sc_mcu9t5v0__addf_1
* cell instance $1549 r0 *1 978.32,841.68
X$1549 580 579 284 279 gf180mcu_fd_sc_mcu9t5v0__clkinv_2
* cell instance $1551 r0 *1 981.68,841.68
X$1551 579 280 283 580 282 gf180mcu_fd_sc_mcu9t5v0__xnor2_2
* cell instance $1569 m0 *1 730.24,851.76
X$1569 419 580 579 286 285 287 gf180mcu_fd_sc_mcu9t5v0__addh_1
* cell instance $1581 m0 *1 766.08,892.08
X$1581 580 358 472 463 359 289 579 gf180mcu_fd_sc_mcu9t5v0__addf_1
* cell instance $1583 m0 *1 763.84,882
X$1583 580 358 420 399 289 309 579 gf180mcu_fd_sc_mcu9t5v0__addf_1
* cell instance $1592 r0 *1 754.32,851.76
X$1592 580 579 290 306 gf180mcu_fd_sc_mcu9t5v0__clkinv_2
* cell instance $1605 r0 *1 949.2,861.84
X$1605 580 579 293 336 gf180mcu_fd_sc_mcu9t5v0__clkinv_2
* cell instance $1647 m0 *1 727.44,902.16
X$1647 580 579 304 468 gf180mcu_fd_sc_mcu9t5v0__clkinv_2
* cell instance $1650 m0 *1 741.44,902.16
X$1650 579 304 471 580 494 gf180mcu_fd_sc_mcu9t5v0__and2_2
* cell instance $1653 m0 *1 734.16,902.16
X$1653 580 469 579 474 471 304 gf180mcu_fd_sc_mcu9t5v0__aoi21_2
* cell instance $1656 r0 *1 745.36,861.84
X$1656 580 579 340 305 gf180mcu_fd_sc_mcu9t5v0__clkinv_2
* cell instance $1658 m0 *1 745.92,882
X$1658 422 580 579 421 305 432 gf180mcu_fd_sc_mcu9t5v0__addh_1
* cell instance $1665 r0 *1 794.08,871.92
X$1665 580 579 308 360 gf180mcu_fd_sc_mcu9t5v0__clkinv_2
* cell instance $1670 r0 *1 771.12,861.84
X$1670 580 579 342 309 gf180mcu_fd_sc_mcu9t5v0__clkinv_2
* cell instance $1673 m0 *1 774.48,861.84
X$1673 580 310 342 347 312 311 579 gf180mcu_fd_sc_mcu9t5v0__addf_1
* cell instance $1681 r0 *1 790.16,861.84
X$1681 580 313 345 314 346 347 579 gf180mcu_fd_sc_mcu9t5v0__addf_1
* cell instance $1684 r0 *1 810.32,882
X$1684 580 579 314 424 gf180mcu_fd_sc_mcu9t5v0__clkinv_2
* cell instance $1691 m0 *1 847.84,861.84
X$1691 580 579 317 353 gf180mcu_fd_sc_mcu9t5v0__clkinv_2
* cell instance $1694 r0 *1 849.52,871.92
X$1694 580 579 318 362 gf180mcu_fd_sc_mcu9t5v0__clkinv_2
* cell instance $1701 r0 *1 864.64,861.84
X$1701 580 579 320 394 gf180mcu_fd_sc_mcu9t5v0__clkinv_2
* cell instance $1704 m0 *1 862.4,871.92
X$1704 580 321 365 366 396 394 579 gf180mcu_fd_sc_mcu9t5v0__addf_1
* cell instance $1706 m0 *1 887.04,871.92
X$1706 580 322 368 370 385 343 579 gf180mcu_fd_sc_mcu9t5v0__addf_1
* cell instance $1710 m0 *1 887.6,861.84
X$1710 580 355 369 428 324 323 579 gf180mcu_fd_sc_mcu9t5v0__addf_1
* cell instance $1716 m0 *1 909.44,871.92
X$1716 580 326 384 380 338 325 579 gf180mcu_fd_sc_mcu9t5v0__addf_1
* cell instance $1724 m0 *1 914.48,892.08
X$1724 580 579 327 465 gf180mcu_fd_sc_mcu9t5v0__clkinv_2
* cell instance $1727 r0 *1 916.16,861.84
X$1727 580 579 328 343 gf180mcu_fd_sc_mcu9t5v0__clkinv_2
* cell instance $1729 r0 *1 962.64,871.92
X$1729 580 376 414 379 329 579 gf180mcu_fd_sc_mcu9t5v0__addh_2
* cell instance $1732 m0 *1 980.56,882
X$1732 579 460 330 580 415 gf180mcu_fd_sc_mcu9t5v0__xnor2_2
* cell instance $1741 m0 *1 972.72,861.84
X$1741 581 580 579 333 334 332 gf180mcu_fd_sc_mcu9t5v0__addh_1
* cell instance $1750 r0 *1 944.72,861.84
X$1750 580 579 335 372 gf180mcu_fd_sc_mcu9t5v0__clkinv_2
* cell instance $1755 m0 *1 940.24,882
X$1755 580 412 423 336 372 579 gf180mcu_fd_sc_mcu9t5v0__addh_2
* cell instance $1769 r0 *1 938,861.84
X$1769 580 579 339 381 gf180mcu_fd_sc_mcu9t5v0__clkinv_2