* CDL Netlist generated by OpenROAD

*.BUSDELIMITER [

.SUBCKT configurable_mult a[0] a[1] a[2] a[3] a[4] a[5] a[6]
+ a[7] b[0] b[1] b[2] b[3] b[4] b[5] b[6] b[7] product[0] product[10]
+ product[11] product[12] product[13] product[14] product[15]
+ product[1] product[2] product[3] product[4] product[5] product[6]
+ product[7] product[8] product[9] sign_mode
X_514_ net9 _000_ VDD VSS gf180mcu_fd_sc_mcu9t5v0__buf_4
X_515_ _000_ net2 _391_ VDD VSS gf180mcu_fd_sc_mcu9t5v0__and2_2
X_516_ net1 net10 _390_ VDD VSS gf180mcu_fd_sc_mcu9t5v0__and2_2
X_517_ net1 net11 _115_ VDD VSS gf180mcu_fd_sc_mcu9t5v0__nand2_2
X_518_ _000_ net4 _120_ VDD VSS gf180mcu_fd_sc_mcu9t5v0__nand2_2
X_519_ net10 net3 _121_ VDD VSS gf180mcu_fd_sc_mcu9t5v0__nand2_2
X_520_ net2 net11 _122_ VDD VSS gf180mcu_fd_sc_mcu9t5v0__nand2_2
X_521_ net1 net12 _125_ VDD VSS gf180mcu_fd_sc_mcu9t5v0__nand2_2
X_522_ _000_ net5 _129_ VDD VSS gf180mcu_fd_sc_mcu9t5v0__nand2_2
X_523_ net10 net4 _128_ VDD VSS gf180mcu_fd_sc_mcu9t5v0__nand2_2
X_524_ net3 net11 _130_ VDD VSS gf180mcu_fd_sc_mcu9t5v0__nand2_2
X_525_ net2 net12 _400_ VDD VSS gf180mcu_fd_sc_mcu9t5v0__and2_2
X_526_ net1 net13 _401_ VDD VSS gf180mcu_fd_sc_mcu9t5v0__and2_2
X_527_ _000_ net6 _138_ VDD VSS gf180mcu_fd_sc_mcu9t5v0__nand2_2
X_528_ net10 net5 _136_ VDD VSS gf180mcu_fd_sc_mcu9t5v0__nand2_2
X_529_ net11 net4 _137_ VDD VSS gf180mcu_fd_sc_mcu9t5v0__nand2_2
X_530_ net1 net14 _143_ VDD VSS gf180mcu_fd_sc_mcu9t5v0__nand2_2
X_531_ _000_ net7 _155_ VDD VSS gf180mcu_fd_sc_mcu9t5v0__nand2_2
X_532_ net10 net6 _154_ VDD VSS gf180mcu_fd_sc_mcu9t5v0__nand2_2
X_533_ net11 net5 _153_ VDD VSS gf180mcu_fd_sc_mcu9t5v0__nand2_2
X_534_ net2 net14 _158_ VDD VSS gf180mcu_fd_sc_mcu9t5v0__nand2_2
X_535_ net1 net15 _412_ VDD VSS gf180mcu_fd_sc_mcu9t5v0__and2_2
X_536_ net10 net7 _177_ VDD VSS gf180mcu_fd_sc_mcu9t5v0__nand2_2
X_537_ _177_ _418_ VDD VSS gf180mcu_fd_sc_mcu9t5v0__clkinv_2
X_538_ net11 net6 _178_ VDD VSS gf180mcu_fd_sc_mcu9t5v0__nand2_2
X_539_ net3 net14 _181_ VDD VSS gf180mcu_fd_sc_mcu9t5v0__nand2_2
X_540_ net8 _001_ VDD VSS gf180mcu_fd_sc_mcu9t5v0__clkbuf_4
X_541_ net10 _001_ _429_ VDD VSS gf180mcu_fd_sc_mcu9t5v0__and2_2
X_542_ net11 net7 _430_ VDD VSS gf180mcu_fd_sc_mcu9t5v0__and2_2
X_543_ net12 net6 _213_ VDD VSS gf180mcu_fd_sc_mcu9t5v0__and2_2
X_544_ net5 net13 _214_ VDD VSS gf180mcu_fd_sc_mcu9t5v0__and2_2
X_545_ net4 net14 _215_ VDD VSS gf180mcu_fd_sc_mcu9t5v0__and2_2
X_546_ net3 net15 _223_ VDD VSS gf180mcu_fd_sc_mcu9t5v0__nand2_2
X_547_ _223_ _433_ VDD VSS gf180mcu_fd_sc_mcu9t5v0__clkinv_2
X_548_ net2 _002_ VDD VSS gf180mcu_fd_sc_mcu9t5v0__clkinv_2
X_549_ net16 _003_ VDD VSS gf180mcu_fd_sc_mcu9t5v0__buf_4
X_550_ _002_ _003_ _436_ VDD VSS gf180mcu_fd_sc_mcu9t5v0__and2_2
X_551_ _243_ _240_ VDD VSS gf180mcu_fd_sc_mcu9t5v0__clkinv_2
X_552_ net11 _001_ _250_ VDD VSS gf180mcu_fd_sc_mcu9t5v0__nand2_2
X_553_ _250_ _438_ VDD VSS gf180mcu_fd_sc_mcu9t5v0__clkinv_2
X_554_ net12 net7 _244_ VDD VSS gf180mcu_fd_sc_mcu9t5v0__and2_2
X_555_ net13 net6 _245_ VDD VSS gf180mcu_fd_sc_mcu9t5v0__and2_2
X_556_ net5 net14 _246_ VDD VSS gf180mcu_fd_sc_mcu9t5v0__and2_2
X_557_ net4 net15 _254_ VDD VSS gf180mcu_fd_sc_mcu9t5v0__nand2_2
X_558_ _254_ _439_ VDD VSS gf180mcu_fd_sc_mcu9t5v0__clkinv_2
X_559_ net3 _004_ VDD VSS gf180mcu_fd_sc_mcu9t5v0__clkinv_2
X_560_ _004_ _003_ _444_ VDD VSS gf180mcu_fd_sc_mcu9t5v0__and2_2
X_561_ net12 _001_ _280_ VDD VSS gf180mcu_fd_sc_mcu9t5v0__nand2_2
X_562_ _280_ _319_ VDD VSS gf180mcu_fd_sc_mcu9t5v0__clkinv_2
X_563_ net5 net15 _285_ VDD VSS gf180mcu_fd_sc_mcu9t5v0__nand2_2
X_564_ _285_ _448_ VDD VSS gf180mcu_fd_sc_mcu9t5v0__clkinv_2
X_565_ _175_ _170_ VDD VSS gf180mcu_fd_sc_mcu9t5v0__clkinv_2
X_566_ _000_ net10 net8 _005_ VDD VSS gf180mcu_fd_sc_mcu9t5v0__and3_2
X_567_ _443_ _005_ _296_ VDD VSS gf180mcu_fd_sc_mcu9t5v0__or2_2
X_568_ _296_ _324_ VDD VSS gf180mcu_fd_sc_mcu9t5v0__clkinv_2
X_569_ net4 _006_ VDD VSS gf180mcu_fd_sc_mcu9t5v0__clkinv_2
X_570_ _006_ _003_ _457_ VDD VSS gf180mcu_fd_sc_mcu9t5v0__and2_2
X_571_ net13 _001_ _320_ VDD VSS gf180mcu_fd_sc_mcu9t5v0__and2_2
X_572_ net14 net7 _321_ VDD VSS gf180mcu_fd_sc_mcu9t5v0__and2_2
X_573_ net6 net15 _312_ VDD VSS gf180mcu_fd_sc_mcu9t5v0__nand2_2
X_574_ _312_ _467_ VDD VSS gf180mcu_fd_sc_mcu9t5v0__clkinv_2
X_575_ net5 _007_ VDD VSS gf180mcu_fd_sc_mcu9t5v0__clkinv_2
X_576_ _007_ _003_ _474_ VDD VSS gf180mcu_fd_sc_mcu9t5v0__and2_2
X_577_ net14 _001_ _350_ VDD VSS gf180mcu_fd_sc_mcu9t5v0__and2_2
X_578_ net7 net15 _341_ VDD VSS gf180mcu_fd_sc_mcu9t5v0__and2_2
X_579_ net6 net16 _342_ VDD VSS gf180mcu_fd_sc_mcu9t5v0__and2_2
X_580_ net6 _008_ VDD VSS gf180mcu_fd_sc_mcu9t5v0__clkinv_2
X_581_ _008_ net16 _483_ VDD VSS gf180mcu_fd_sc_mcu9t5v0__and2_2
X_582_ net15 _001_ _489_ VDD VSS gf180mcu_fd_sc_mcu9t5v0__and2_2
X_583_ net7 net16 _488_ VDD VSS gf180mcu_fd_sc_mcu9t5v0__and2_2
X_584_ net7 _009_ VDD VSS gf180mcu_fd_sc_mcu9t5v0__clkinv_2
X_585_ _009_ net16 _496_ VDD VSS gf180mcu_fd_sc_mcu9t5v0__and2_2
X_586_ _001_ net16 _501_ VDD VSS gf180mcu_fd_sc_mcu9t5v0__and2_2
X_587_ net3 net12 _141_ VDD VSS gf180mcu_fd_sc_mcu9t5v0__nand2_2
X_588_ _000_ net8 _176_ VDD VSS gf180mcu_fd_sc_mcu9t5v0__nand2_2
X_589_ net1 _003_ _188_ VDD VSS gf180mcu_fd_sc_mcu9t5v0__nand2_2
X_590_ net4 net13 _182_ VDD VSS gf180mcu_fd_sc_mcu9t5v0__nand2_2
X_591_ net2 _003_ _222_ VDD VSS gf180mcu_fd_sc_mcu9t5v0__nand2_2
X_592_ _431_ _249_ VDD VSS gf180mcu_fd_sc_mcu9t5v0__clkinv_2
X_593_ net6 net14 _279_ VDD VSS gf180mcu_fd_sc_mcu9t5v0__nand2_2
X_594_ net5 _003_ _311_ VDD VSS gf180mcu_fd_sc_mcu9t5v0__nand2_2
X_595_ net2 net10 _116_ VDD VSS gf180mcu_fd_sc_mcu9t5v0__nand2_2
X_596_ net2 net13 _142_ VDD VSS gf180mcu_fd_sc_mcu9t5v0__nand2_2
X_597_ net3 net13 _159_ VDD VSS gf180mcu_fd_sc_mcu9t5v0__nand2_2
X_598_ _174_ _169_ VDD VSS gf180mcu_fd_sc_mcu9t5v0__clkinv_2
X_599_ net12 net5 _183_ VDD VSS gf180mcu_fd_sc_mcu9t5v0__nand2_2
X_600_ net1 _010_ VDD VSS gf180mcu_fd_sc_mcu9t5v0__clkinv_2
X_601_ _010_ _003_ _204_ VDD VSS gf180mcu_fd_sc_mcu9t5v0__nand2_2
X_602_ _000_ net3 _117_ VDD VSS gf180mcu_fd_sc_mcu9t5v0__nand2_2
X_603_ net4 net12 _160_ VDD VSS gf180mcu_fd_sc_mcu9t5v0__nand2_2
X_604_ net2 net15 _189_ VDD VSS gf180mcu_fd_sc_mcu9t5v0__nand2_2
X_605_ net3 _003_ _256_ VDD VSS gf180mcu_fd_sc_mcu9t5v0__nand2_2
X_606_ net13 net7 _281_ VDD VSS gf180mcu_fd_sc_mcu9t5v0__nand2_2
X_607_ net4 _003_ _286_ VDD VSS gf180mcu_fd_sc_mcu9t5v0__nand2_2
X_608_ _217_ _219_ VDD VSS gf180mcu_fd_sc_mcu9t5v0__clkinv_2
X_609_ _233_ _237_ VDD VSS gf180mcu_fd_sc_mcu9t5v0__clkinv_2
X_610_ _248_ _251_ VDD VSS gf180mcu_fd_sc_mcu9t5v0__clkinv_2
X_611_ _266_ _272_ VDD VSS gf180mcu_fd_sc_mcu9t5v0__clkinv_2
X_612_ _271_ _274_ VDD VSS gf180mcu_fd_sc_mcu9t5v0__clkinv_2
X_613_ _292_ _293_ VDD VSS gf180mcu_fd_sc_mcu9t5v0__clkinv_2
X_614_ _298_ _304_ VDD VSS gf180mcu_fd_sc_mcu9t5v0__clkinv_2
X_615_ _302_ _305_ VDD VSS gf180mcu_fd_sc_mcu9t5v0__clkinv_2
X_616_ _323_ _325_ VDD VSS gf180mcu_fd_sc_mcu9t5v0__clkinv_2
X_617_ _332_ _334_ VDD VSS gf180mcu_fd_sc_mcu9t5v0__clkinv_2
X_618_ _352_ _353_ VDD VSS gf180mcu_fd_sc_mcu9t5v0__clkinv_2
X_619_ _359_ _360_ VDD VSS gf180mcu_fd_sc_mcu9t5v0__clkinv_2
X_620_ _373_ _374_ VDD VSS gf180mcu_fd_sc_mcu9t5v0__clkinv_2
X_621_ _383_ _384_ VDD VSS gf180mcu_fd_sc_mcu9t5v0__clkinv_2
X_622_ _216_ _255_ VDD VSS gf180mcu_fd_sc_mcu9t5v0__clkinv_2
X_623_ _232_ _273_ VDD VSS gf180mcu_fd_sc_mcu9t5v0__clkinv_2
X_624_ _247_ _284_ VDD VSS gf180mcu_fd_sc_mcu9t5v0__clkinv_2
X_625_ _265_ _303_ VDD VSS gf180mcu_fd_sc_mcu9t5v0__clkinv_2
X_626_ _270_ _308_ VDD VSS gf180mcu_fd_sc_mcu9t5v0__clkinv_2
X_627_ _291_ _315_ VDD VSS gf180mcu_fd_sc_mcu9t5v0__clkinv_2
X_628_ _297_ _333_ VDD VSS gf180mcu_fd_sc_mcu9t5v0__clkinv_2
X_629_ _301_ _337_ VDD VSS gf180mcu_fd_sc_mcu9t5v0__clkinv_2
X_630_ _331_ _363_ VDD VSS gf180mcu_fd_sc_mcu9t5v0__clkinv_2
X_631_ _358_ _377_ VDD VSS gf180mcu_fd_sc_mcu9t5v0__clkinv_2
X_632_ _372_ _387_ VDD VSS gf180mcu_fd_sc_mcu9t5v0__clkinv_2
X_633_ _127_ _397_ VDD VSS gf180mcu_fd_sc_mcu9t5v0__clkinv_2
X_634_ _126_ _403_ VDD VSS gf180mcu_fd_sc_mcu9t5v0__clkinv_2
X_635_ _134_ _149_ VDD VSS gf180mcu_fd_sc_mcu9t5v0__clkinv_2
X_636_ _144_ _411_ VDD VSS gf180mcu_fd_sc_mcu9t5v0__clkinv_2
X_637_ _206_ _425_ VDD VSS gf180mcu_fd_sc_mcu9t5v0__clkinv_2
X_638_ _166_ _194_ VDD VSS gf180mcu_fd_sc_mcu9t5v0__clkinv_2
X_639_ net9 net10 _011_ VDD VSS gf180mcu_fd_sc_mcu9t5v0__xor2_2
X_640_ _001_ _011_ _434_ VDD VSS gf180mcu_fd_sc_mcu9t5v0__and2_2
X_641_ _295_ _449_ VDD VSS gf180mcu_fd_sc_mcu9t5v0__clkinv_2
X_642_ _228_ _453_ VDD VSS gf180mcu_fd_sc_mcu9t5v0__clkinv_2
X_643_ _277_ _458_ VDD VSS gf180mcu_fd_sc_mcu9t5v0__clkinv_2
X_644_ _241_ _462_ VDD VSS gf180mcu_fd_sc_mcu9t5v0__clkinv_2
X_645_ _318_ _470_ VDD VSS gf180mcu_fd_sc_mcu9t5v0__clkinv_2
X_646_ _282_ _328_ VDD VSS gf180mcu_fd_sc_mcu9t5v0__clkinv_2
X_647_ _309_ _475_ VDD VSS gf180mcu_fd_sc_mcu9t5v0__clkinv_2
X_648_ _313_ _345_ VDD VSS gf180mcu_fd_sc_mcu9t5v0__clkinv_2
X_649_ _338_ _484_ VDD VSS gf180mcu_fd_sc_mcu9t5v0__clkinv_2
X_650_ _354_ _493_ VDD VSS gf180mcu_fd_sc_mcu9t5v0__clkinv_2
X_651_ _364_ _497_ VDD VSS gf180mcu_fd_sc_mcu9t5v0__clkinv_2
X_652_ _001_ _012_ VDD VSS gf180mcu_fd_sc_mcu9t5v0__clkinv_2
X_653_ _012_ net16 _506_ VDD VSS gf180mcu_fd_sc_mcu9t5v0__and2_2
X_654_ _389_ _510_ VDD VSS gf180mcu_fd_sc_mcu9t5v0__clkinv_2
X_655_ _119_ _394_ VDD VSS gf180mcu_fd_sc_mcu9t5v0__clkinv_2
X_656_ _135_ _404_ VDD VSS gf180mcu_fd_sc_mcu9t5v0__clkinv_2
X_657_ _147_ _150_ VDD VSS gf180mcu_fd_sc_mcu9t5v0__clkinv_2
X_658_ _167_ _414_ VDD VSS gf180mcu_fd_sc_mcu9t5v0__clkinv_2
X_659_ _193_ _196_ VDD VSS gf180mcu_fd_sc_mcu9t5v0__clkinv_2
X_660_ net16 _176_ _422_ VDD VSS gf180mcu_fd_sc_mcu9t5v0__xnor2_2
X_661_ _161_ _419_ VDD VSS gf180mcu_fd_sc_mcu9t5v0__clkinv_2
X_662_ _209_ _210_ VDD VSS gf180mcu_fd_sc_mcu9t5v0__clkinv_2
X_663_ _000_ _001_ net16 _013_ VDD VSS gf180mcu_fd_sc_mcu9t5v0__and3_2
X_664_ _423_ _013_ _231_ VDD VSS gf180mcu_fd_sc_mcu9t5v0__or2_2
X_665_ _229_ _440_ VDD VSS gf180mcu_fd_sc_mcu9t5v0__clkinv_2
X_666_ _435_ _005_ _264_ VDD VSS gf180mcu_fd_sc_mcu9t5v0__or2_2
X_667_ _242_ _445_ VDD VSS gf180mcu_fd_sc_mcu9t5v0__clkinv_2
X_668_ _252_ _289_ VDD VSS gf180mcu_fd_sc_mcu9t5v0__clkinv_2
X_669_ _288_ _290_ VDD VSS gf180mcu_fd_sc_mcu9t5v0__clkinv_2
X_670_ _261_ _450_ VDD VSS gf180mcu_fd_sc_mcu9t5v0__clkinv_2
X_671_ _262_ _454_ VDD VSS gf180mcu_fd_sc_mcu9t5v0__clkinv_2
X_672_ _310_ _459_ VDD VSS gf180mcu_fd_sc_mcu9t5v0__clkinv_2
X_673_ _278_ _463_ VDD VSS gf180mcu_fd_sc_mcu9t5v0__clkinv_2
X_674_ _314_ _468_ VDD VSS gf180mcu_fd_sc_mcu9t5v0__clkinv_2
X_675_ _294_ _471_ VDD VSS gf180mcu_fd_sc_mcu9t5v0__clkinv_2
X_676_ _339_ _476_ VDD VSS gf180mcu_fd_sc_mcu9t5v0__clkinv_2
X_677_ _317_ _479_ VDD VSS gf180mcu_fd_sc_mcu9t5v0__clkinv_2
X_678_ _355_ _482_ VDD VSS gf180mcu_fd_sc_mcu9t5v0__clkinv_2
X_679_ _365_ _485_ VDD VSS gf180mcu_fd_sc_mcu9t5v0__clkinv_2
X_680_ _379_ _498_ VDD VSS gf180mcu_fd_sc_mcu9t5v0__clkinv_2
X_681_ _378_ _511_ VDD VSS gf180mcu_fd_sc_mcu9t5v0__clkinv_2
X_682_ _413_ _165_ VDD VSS gf180mcu_fd_sc_mcu9t5v0__clkinv_2
X_683_ _424_ _201_ VDD VSS gf180mcu_fd_sc_mcu9t5v0__clkinv_2
X_684_ _263_ _267_ VDD VSS gf180mcu_fd_sc_mcu9t5v0__clkinv_2
X_685_ _402_ _133_ VDD VSS gf180mcu_fd_sc_mcu9t5v0__clkinv_2
X_686_ _173_ _168_ VDD VSS gf180mcu_fd_sc_mcu9t5v0__clkinv_2
X_687_ _426_ _207_ VDD VSS gf180mcu_fd_sc_mcu9t5v0__clkinv_2
X_688_ _432_ _218_ VDD VSS gf180mcu_fd_sc_mcu9t5v0__clkinv_2
X_689_ _437_ _234_ VDD VSS gf180mcu_fd_sc_mcu9t5v0__clkinv_2
X_690_ _469_ _316_ VDD VSS gf180mcu_fd_sc_mcu9t5v0__clkinv_2
X_691_ _000_ net1 net18 VDD VSS gf180mcu_fd_sc_mcu9t5v0__and2_4
X_692_ _428_ _014_ VDD VSS gf180mcu_fd_sc_mcu9t5v0__clkinv_2
X_693_ _175_ _417_ _416_ _015_ VDD VSS gf180mcu_fd_sc_mcu9t5v0__aoi21_2
X_694_ _447_ _465_ _016_ VDD VSS gf180mcu_fd_sc_mcu9t5v0__nand2_2
X_695_ _014_ _015_ _016_ _017_ VDD VSS gf180mcu_fd_sc_mcu9t5v0__nor3_2
X_696_ _465_ _446_ _018_ VDD VSS gf180mcu_fd_sc_mcu9t5v0__and2_2
X_697_ _447_ _465_ _427_ _019_ VDD VSS gf180mcu_fd_sc_mcu9t5v0__and3_2
X_698_ _464_ _017_ _018_ _019_ _020_ VDD VSS gf180mcu_fd_sc_mcu9t5v0__or4_2
X_699_ _461_ _020_ _021_ VDD VSS gf180mcu_fd_sc_mcu9t5v0__xnor2_2
X_700_ _442_ _456_ _421_ _022_ VDD VSS gf180mcu_fd_sc_mcu9t5v0__nand3_2
X_701_ _456_ _441_ _023_ VDD VSS gf180mcu_fd_sc_mcu9t5v0__nand2_2
X_702_ _442_ _456_ _420_ _024_ VDD VSS gf180mcu_fd_sc_mcu9t5v0__nand3_2
X_703_ _015_ _022_ _023_ _024_ _025_ VDD VSS gf180mcu_fd_sc_mcu9t5v0__oai211_2
X_704_ _455_ _025_ _452_ _026_ VDD VSS gf180mcu_fd_sc_mcu9t5v0__oai21_2
X_705_ _452_ _455_ _025_ _027_ VDD VSS gf180mcu_fd_sc_mcu9t5v0__or3_2
X_706_ _026_ _027_ net17 _028_ VDD VSS gf180mcu_fd_sc_mcu9t5v0__aoi21_2
X_707_ net17 _021_ _028_ net19 VDD VSS gf180mcu_fd_sc_mcu9t5v0__aoi21_4
X_708_ _171_ _029_ VDD VSS gf180mcu_fd_sc_mcu9t5v0__clkinv_2
X_709_ _029_ _428_ _427_ _030_ VDD VSS gf180mcu_fd_sc_mcu9t5v0__aoi21_2
X_710_ _016_ _030_ _031_ VDD VSS gf180mcu_fd_sc_mcu9t5v0__nor2_2
X_711_ _464_ _018_ _031_ _032_ VDD VSS gf180mcu_fd_sc_mcu9t5v0__or3_2
X_712_ _461_ _032_ _460_ _033_ VDD VSS gf180mcu_fd_sc_mcu9t5v0__aoi21_2
X_713_ _478_ _033_ _034_ VDD VSS gf180mcu_fd_sc_mcu9t5v0__xnor2_2
X_714_ _029_ _421_ _420_ _441_ _035_ VDD VSS gf180mcu_fd_sc_mcu9t5v0__aoi211_4
X_715_ _442_ _441_ _456_ _036_ VDD VSS gf180mcu_fd_sc_mcu9t5v0__oai21_2
X_716_ _455_ _037_ VDD VSS gf180mcu_fd_sc_mcu9t5v0__clkinv_2
X_717_ _035_ _036_ _037_ _038_ VDD VSS gf180mcu_fd_sc_mcu9t5v0__oai21_2
X_718_ _452_ _038_ _451_ _039_ VDD VSS gf180mcu_fd_sc_mcu9t5v0__aoi21_2
X_719_ _473_ _039_ _040_ VDD VSS gf180mcu_fd_sc_mcu9t5v0__xnor2_2
X_720_ net17 _041_ VDD VSS gf180mcu_fd_sc_mcu9t5v0__inv_3
X_721_ _034_ _040_ _041_ net20 VDD VSS gf180mcu_fd_sc_mcu9t5v0__mux2_4
X_722_ _478_ _042_ VDD VSS gf180mcu_fd_sc_mcu9t5v0__clkinv_2
X_723_ _461_ _020_ _460_ _043_ VDD VSS gf180mcu_fd_sc_mcu9t5v0__aoi21_2
X_724_ _477_ _044_ VDD VSS gf180mcu_fd_sc_mcu9t5v0__clkinv_2
X_725_ _042_ _043_ _044_ _045_ VDD VSS gf180mcu_fd_sc_mcu9t5v0__oai21_2
X_726_ _487_ _045_ _046_ VDD VSS gf180mcu_fd_sc_mcu9t5v0__xor2_2
X_727_ _451_ _047_ VDD VSS gf180mcu_fd_sc_mcu9t5v0__clkinv_2
X_728_ _047_ _026_ _048_ VDD VSS gf180mcu_fd_sc_mcu9t5v0__nand2_2
X_729_ _473_ _048_ _472_ _049_ VDD VSS gf180mcu_fd_sc_mcu9t5v0__aoi21_2
X_730_ _481_ _049_ _050_ VDD VSS gf180mcu_fd_sc_mcu9t5v0__xnor2_2
X_731_ _046_ _050_ _041_ net21 VDD VSS gf180mcu_fd_sc_mcu9t5v0__mux2_4
X_732_ _047_ _037_ _051_ VDD VSS gf180mcu_fd_sc_mcu9t5v0__and2_2
X_733_ _481_ _472_ _480_ _052_ VDD VSS gf180mcu_fd_sc_mcu9t5v0__aoi21_2
X_734_ _035_ _036_ _051_ _052_ _053_ VDD VSS gf180mcu_fd_sc_mcu9t5v0__oai211_2
X_735_ _452_ _451_ _054_ VDD VSS gf180mcu_fd_sc_mcu9t5v0__nor2_2
X_736_ _473_ _481_ _055_ VDD VSS gf180mcu_fd_sc_mcu9t5v0__nand2_2
X_737_ _054_ _055_ _052_ _056_ VDD VSS gf180mcu_fd_sc_mcu9t5v0__oai21_2
X_738_ _053_ _056_ _057_ VDD VSS gf180mcu_fd_sc_mcu9t5v0__nand2_2
X_739_ _492_ _057_ _058_ VDD VSS gf180mcu_fd_sc_mcu9t5v0__xnor2_2
X_740_ _500_ _059_ VDD VSS gf180mcu_fd_sc_mcu9t5v0__clkinv_2
X_741_ _460_ _464_ _018_ _060_ VDD VSS gf180mcu_fd_sc_mcu9t5v0__or3_2
X_742_ _461_ _460_ _031_ _060_ _478_ _061_ VDD VSS gf180mcu_fd_sc_mcu9t5v0__oai221_4
X_743_ _477_ _486_ _062_ VDD VSS gf180mcu_fd_sc_mcu9t5v0__nor2_2
X_744_ _487_ _486_ _063_ VDD VSS gf180mcu_fd_sc_mcu9t5v0__nor2_2
X_745_ _061_ _062_ _063_ _064_ VDD VSS gf180mcu_fd_sc_mcu9t5v0__aoi21_2
X_746_ _059_ _064_ _065_ VDD VSS gf180mcu_fd_sc_mcu9t5v0__xnor2_2
X_747_ _058_ _065_ net17 net22 VDD VSS gf180mcu_fd_sc_mcu9t5v0__mux2_4
X_748_ _505_ _066_ VDD VSS gf180mcu_fd_sc_mcu9t5v0__clkinv_2
X_749_ net17 _066_ _491_ _067_ VDD VSS gf180mcu_fd_sc_mcu9t5v0__or3_2
X_750_ _492_ _067_ _068_ VDD VSS gf180mcu_fd_sc_mcu9t5v0__or2_2
X_751_ _059_ _513_ _069_ VDD VSS gf180mcu_fd_sc_mcu9t5v0__nand2_2
X_752_ _499_ _070_ VDD VSS gf180mcu_fd_sc_mcu9t5v0__clkinv_2
X_753_ _513_ _069_ _070_ _071_ VDD VSS gf180mcu_fd_sc_mcu9t5v0__mux2_2
X_754_ _066_ _491_ _072_ VDD VSS gf180mcu_fd_sc_mcu9t5v0__nand2_2
X_755_ _071_ _072_ _041_ _073_ VDD VSS gf180mcu_fd_sc_mcu9t5v0__mux2_2
X_756_ _068_ _073_ _074_ VDD VSS gf180mcu_fd_sc_mcu9t5v0__and2_2
X_757_ _041_ _059_ _513_ _075_ VDD VSS gf180mcu_fd_sc_mcu9t5v0__or3_2
X_758_ net17 _513_ _070_ _076_ VDD VSS gf180mcu_fd_sc_mcu9t5v0__nand3_2
X_759_ _478_ _460_ _077_ VDD VSS gf180mcu_fd_sc_mcu9t5v0__nand2_2
X_760_ _044_ _077_ _078_ VDD VSS gf180mcu_fd_sc_mcu9t5v0__nand2_2
X_761_ _461_ _478_ _487_ _020_ _079_ VDD VSS gf180mcu_fd_sc_mcu9t5v0__and4_2
X_762_ _487_ _078_ _079_ _486_ _080_ VDD VSS gf180mcu_fd_sc_mcu9t5v0__aoi211_2
X_763_ _075_ _076_ _080_ _081_ VDD VSS gf180mcu_fd_sc_mcu9t5v0__mux2_2
X_764_ _492_ _082_ VDD VSS gf180mcu_fd_sc_mcu9t5v0__clkinv_2
X_765_ net17 _082_ _505_ _083_ VDD VSS gf180mcu_fd_sc_mcu9t5v0__or3_2
X_766_ _473_ _451_ _084_ VDD VSS gf180mcu_fd_sc_mcu9t5v0__and2_2
X_767_ _472_ _084_ _085_ VDD VSS gf180mcu_fd_sc_mcu9t5v0__or2_2
X_768_ _026_ _055_ _086_ VDD VSS gf180mcu_fd_sc_mcu9t5v0__nor2_2
X_769_ _481_ _085_ _086_ _480_ _087_ VDD VSS gf180mcu_fd_sc_mcu9t5v0__aoi211_2
X_770_ _083_ _067_ _087_ _088_ VDD VSS gf180mcu_fd_sc_mcu9t5v0__mux2_2
X_771_ _074_ _081_ _088_ net23 VDD VSS gf180mcu_fd_sc_mcu9t5v0__nand3_4
X_772_ _505_ _491_ _504_ _089_ VDD VSS gf180mcu_fd_sc_mcu9t5v0__aoi21_2
X_773_ _082_ _066_ _057_ _089_ _090_ VDD VSS gf180mcu_fd_sc_mcu9t5v0__oai31_2
X_774_ _502_ _090_ _091_ VDD VSS gf180mcu_fd_sc_mcu9t5v0__xor2_2
X_775_ _512_ _092_ VDD VSS gf180mcu_fd_sc_mcu9t5v0__clkinv_2
X_776_ _070_ _092_ _062_ _093_ VDD VSS gf180mcu_fd_sc_mcu9t5v0__and3_2
X_777_ _059_ _063_ _070_ _094_ VDD VSS gf180mcu_fd_sc_mcu9t5v0__oai21_2
X_778_ _513_ _094_ _512_ _095_ VDD VSS gf180mcu_fd_sc_mcu9t5v0__aoi21_2
X_779_ _061_ _093_ _095_ _096_ VDD VSS gf180mcu_fd_sc_mcu9t5v0__aoi21_2
X_780_ _385_ _388_ _097_ VDD VSS gf180mcu_fd_sc_mcu9t5v0__xnor2_2
X_781_ _382_ _509_ _097_ _098_ VDD VSS gf180mcu_fd_sc_mcu9t5v0__xnor3_2
X_782_ _507_ _495_ _098_ _099_ VDD VSS gf180mcu_fd_sc_mcu9t5v0__xnor3_2
X_783_ _096_ _099_ _100_ VDD VSS gf180mcu_fd_sc_mcu9t5v0__xnor2_2
X_784_ _091_ _100_ net17 net24 VDD VSS gf180mcu_fd_sc_mcu9t5v0__mux2_4
X_785_ _393_ net25 VDD VSS gf180mcu_fd_sc_mcu9t5v0__clkbuf_4
X_786_ _396_ net26 VDD VSS gf180mcu_fd_sc_mcu9t5v0__clkbuf_4
X_787_ _399_ net27 VDD VSS gf180mcu_fd_sc_mcu9t5v0__clkbuf_4
X_788_ _408_ net28 VDD VSS gf180mcu_fd_sc_mcu9t5v0__clkbuf_4
X_789_ _410_ net29 VDD VSS gf180mcu_fd_sc_mcu9t5v0__clkbuf_4
X_790_ _172_ net30 VDD VSS gf180mcu_fd_sc_mcu9t5v0__clkbuf_4
X_791_ _421_ _428_ net17 _101_ VDD VSS gf180mcu_fd_sc_mcu9t5v0__mux2_2
X_792_ _171_ _101_ net31 VDD VSS gf180mcu_fd_sc_mcu9t5v0__xnor2_4
X_793_ _175_ _417_ _102_ VDD VSS gf180mcu_fd_sc_mcu9t5v0__and2_2
X_794_ _416_ _102_ _103_ VDD VSS gf180mcu_fd_sc_mcu9t5v0__or2_2
X_795_ _428_ _103_ _427_ _104_ VDD VSS gf180mcu_fd_sc_mcu9t5v0__aoi21_2
X_796_ _447_ _104_ _105_ VDD VSS gf180mcu_fd_sc_mcu9t5v0__xnor2_2
X_797_ _421_ _103_ _420_ _106_ VDD VSS gf180mcu_fd_sc_mcu9t5v0__aoi21_2
X_798_ _442_ _106_ _107_ VDD VSS gf180mcu_fd_sc_mcu9t5v0__xnor2_2
X_799_ _105_ _107_ _041_ net32 VDD VSS gf180mcu_fd_sc_mcu9t5v0__mux2_4
X_800_ _030_ _108_ VDD VSS gf180mcu_fd_sc_mcu9t5v0__clkinv_2
X_801_ _447_ _108_ _446_ _109_ VDD VSS gf180mcu_fd_sc_mcu9t5v0__aoi21_2
X_802_ _465_ _109_ _110_ VDD VSS gf180mcu_fd_sc_mcu9t5v0__xnor2_2
X_803_ _029_ _421_ _111_ VDD VSS gf180mcu_fd_sc_mcu9t5v0__and2_2
X_804_ _420_ _111_ _112_ VDD VSS gf180mcu_fd_sc_mcu9t5v0__or2_2
X_805_ _442_ _112_ _441_ _113_ VDD VSS gf180mcu_fd_sc_mcu9t5v0__aoi21_2
X_806_ _456_ _113_ _114_ VDD VSS gf180mcu_fd_sc_mcu9t5v0__xnor2_2
X_807_ _110_ _114_ _041_ net33 VDD VSS gf180mcu_fd_sc_mcu9t5v0__mux2_4
X_808_ _115_ _116_ _117_ _118_ _119_ VDD VSS gf180mcu_fd_sc_mcu9t5v0__addf_1
X_809_ _120_ _121_ _122_ _123_ _124_ VDD VSS gf180mcu_fd_sc_mcu9t5v0__addf_1
X_810_ _125_ _118_ _124_ _126_ _127_ VDD VSS gf180mcu_fd_sc_mcu9t5v0__addf_1
X_811_ _128_ _129_ _130_ _131_ _132_ VDD VSS gf180mcu_fd_sc_mcu9t5v0__addf_1
X_812_ _132_ _123_ _133_ _134_ _135_ VDD VSS gf180mcu_fd_sc_mcu9t5v0__addf_1
X_813_ _136_ _137_ _138_ _139_ _140_ VDD VSS gf180mcu_fd_sc_mcu9t5v0__addf_1
X_814_ _141_ _142_ _143_ _144_ _145_ VDD VSS gf180mcu_fd_sc_mcu9t5v0__addf_1
X_815_ _140_ _145_ _131_ _146_ _147_ VDD VSS gf180mcu_fd_sc_mcu9t5v0__addf_1
X_816_ _148_ _149_ _150_ _151_ _152_ VDD VSS gf180mcu_fd_sc_mcu9t5v0__addf_1
X_817_ _153_ _154_ _155_ _156_ _157_ VDD VSS gf180mcu_fd_sc_mcu9t5v0__addf_2
X_818_ _158_ _159_ _160_ _161_ _162_ VDD VSS gf180mcu_fd_sc_mcu9t5v0__addf_2
X_819_ _157_ _162_ _139_ _163_ _164_ VDD VSS gf180mcu_fd_sc_mcu9t5v0__addf_2
X_820_ _165_ _146_ _164_ _166_ _167_ VDD VSS gf180mcu_fd_sc_mcu9t5v0__addf_1
X_821_ _168_ _169_ _170_ _171_ _172_ VDD VSS gf180mcu_fd_sc_mcu9t5v0__addf_1
X_822_ _176_ _177_ _178_ _179_ _180_ VDD VSS gf180mcu_fd_sc_mcu9t5v0__addf_1
X_823_ _181_ _182_ _183_ _184_ _185_ VDD VSS gf180mcu_fd_sc_mcu9t5v0__addf_1
X_824_ _156_ _185_ _180_ _186_ _187_ VDD VSS gf180mcu_fd_sc_mcu9t5v0__addf_1
X_825_ _188_ _189_ _161_ _190_ _191_ VDD VSS gf180mcu_fd_sc_mcu9t5v0__addf_1
X_826_ _191_ _187_ _163_ _192_ _193_ VDD VSS gf180mcu_fd_sc_mcu9t5v0__addf_1
X_827_ _194_ _195_ _196_ _197_ _198_ VDD VSS gf180mcu_fd_sc_mcu9t5v0__addf_1
X_828_ _182_ _183_ _178_ _199_ _200_ VDD VSS gf180mcu_fd_sc_mcu9t5v0__addf_1
X_829_ _156_ _201_ _200_ _202_ _203_ VDD VSS gf180mcu_fd_sc_mcu9t5v0__addf_1
X_830_ _181_ _204_ _189_ _205_ _206_ VDD VSS gf180mcu_fd_sc_mcu9t5v0__addf_1
X_831_ _207_ _163_ _203_ _208_ _209_ VDD VSS gf180mcu_fd_sc_mcu9t5v0__addf_1
X_832_ _194_ _210_ _195_ _211_ _212_ VDD VSS gf180mcu_fd_sc_mcu9t5v0__addf_1
X_833_ _213_ _214_ _215_ _216_ _217_ VDD VSS gf180mcu_fd_sc_mcu9t5v0__addf_2
X_834_ _179_ _218_ _219_ _220_ _221_ VDD VSS gf180mcu_fd_sc_mcu9t5v0__addf_1
X_835_ _222_ _184_ _223_ _224_ _225_ VDD VSS gf180mcu_fd_sc_mcu9t5v0__addf_1
X_836_ _186_ _221_ _225_ _226_ _227_ VDD VSS gf180mcu_fd_sc_mcu9t5v0__addf_1
X_837_ _190_ _227_ _192_ _228_ _229_ VDD VSS gf180mcu_fd_sc_mcu9t5v0__addf_1
X_838_ _230_ _217_ _231_ _232_ _233_ VDD VSS gf180mcu_fd_sc_mcu9t5v0__addf_1
X_839_ _234_ _199_ _205_ _235_ _236_ VDD VSS gf180mcu_fd_sc_mcu9t5v0__addf_1
X_840_ _202_ _237_ _236_ _238_ _239_ VDD VSS gf180mcu_fd_sc_mcu9t5v0__addf_1
X_841_ _240_ _239_ _208_ _241_ _242_ VDD VSS gf180mcu_fd_sc_mcu9t5v0__addf_1
X_842_ _244_ _245_ _246_ _247_ _248_ VDD VSS gf180mcu_fd_sc_mcu9t5v0__addf_2
X_843_ _249_ _250_ _251_ _252_ _253_ VDD VSS gf180mcu_fd_sc_mcu9t5v0__addf_1
X_844_ _254_ _255_ _256_ _257_ _258_ VDD VSS gf180mcu_fd_sc_mcu9t5v0__addf_1
X_845_ _220_ _253_ _258_ _259_ _260_ VDD VSS gf180mcu_fd_sc_mcu9t5v0__addf_1
X_846_ _226_ _260_ _224_ _261_ _262_ VDD VSS gf180mcu_fd_sc_mcu9t5v0__addf_1
X_847_ _263_ _248_ _264_ _265_ _266_ VDD VSS gf180mcu_fd_sc_mcu9t5v0__addf_1
X_848_ _216_ _268_ _269_ _270_ _271_ VDD VSS gf180mcu_fd_sc_mcu9t5v0__addf_1
X_849_ _272_ _273_ _274_ _275_ _276_ VDD VSS gf180mcu_fd_sc_mcu9t5v0__addf_1
X_850_ _238_ _276_ _235_ _277_ _278_ VDD VSS gf180mcu_fd_sc_mcu9t5v0__addf_1
X_851_ _279_ _280_ _281_ _282_ _283_ VDD VSS gf180mcu_fd_sc_mcu9t5v0__addf_2
X_852_ _284_ _285_ _286_ _287_ _288_ VDD VSS gf180mcu_fd_sc_mcu9t5v0__addf_1
X_853_ _283_ _289_ _290_ _291_ _292_ VDD VSS gf180mcu_fd_sc_mcu9t5v0__addf_1
X_854_ _259_ _293_ _257_ _294_ _295_ VDD VSS gf180mcu_fd_sc_mcu9t5v0__addf_1
X_855_ _283_ _263_ _296_ _297_ _298_ VDD VSS gf180mcu_fd_sc_mcu9t5v0__addf_1
X_856_ _247_ _299_ _300_ _301_ _302_ VDD VSS gf180mcu_fd_sc_mcu9t5v0__addf_1
X_857_ _303_ _304_ _305_ _306_ _307_ VDD VSS gf180mcu_fd_sc_mcu9t5v0__addf_1
X_858_ _307_ _275_ _308_ _309_ _310_ VDD VSS gf180mcu_fd_sc_mcu9t5v0__addf_1
X_859_ _311_ _282_ _312_ _313_ _314_ VDD VSS gf180mcu_fd_sc_mcu9t5v0__addf_1
X_860_ _287_ _315_ _316_ _317_ _318_ VDD VSS gf180mcu_fd_sc_mcu9t5v0__addf_1
X_861_ _319_ _320_ _321_ _322_ _323_ VDD VSS gf180mcu_fd_sc_mcu9t5v0__addf_1
X_862_ _267_ _324_ _325_ _326_ _327_ VDD VSS gf180mcu_fd_sc_mcu9t5v0__addf_1
X_863_ _328_ _329_ _330_ _331_ _332_ VDD VSS gf180mcu_fd_sc_mcu9t5v0__addf_1
X_864_ _327_ _333_ _334_ _335_ _336_ VDD VSS gf180mcu_fd_sc_mcu9t5v0__addf_1
X_865_ _337_ _306_ _336_ _338_ _339_ VDD VSS gf180mcu_fd_sc_mcu9t5v0__addf_1
X_866_ _340_ _341_ _342_ _343_ _344_ VDD VSS gf180mcu_fd_sc_mcu9t5v0__addf_1
X_867_ _345_ _346_ _347_ _348_ _349_ VDD VSS gf180mcu_fd_sc_mcu9t5v0__addf_1
X_868_ _319_ _320_ _350_ _351_ _352_ VDD VSS gf180mcu_fd_sc_mcu9t5v0__addf_2
X_869_ _267_ _324_ _353_ _354_ _355_ VDD VSS gf180mcu_fd_sc_mcu9t5v0__addf_2
X_870_ _356_ _357_ _322_ _358_ _359_ VDD VSS gf180mcu_fd_sc_mcu9t5v0__addf_1
X_871_ _360_ _326_ _355_ _361_ _362_ VDD VSS gf180mcu_fd_sc_mcu9t5v0__addf_1
X_872_ _362_ _335_ _363_ _364_ _365_ VDD VSS gf180mcu_fd_sc_mcu9t5v0__addf_1
X_873_ _366_ _367_ _343_ _368_ _369_ VDD VSS gf180mcu_fd_sc_mcu9t5v0__addf_1
X_874_ _370_ _351_ _371_ _372_ _373_ VDD VSS gf180mcu_fd_sc_mcu9t5v0__addf_1
X_875_ _354_ _355_ _374_ _375_ _376_ VDD VSS gf180mcu_fd_sc_mcu9t5v0__addf_1
X_876_ _361_ _377_ _376_ _378_ _379_ VDD VSS gf180mcu_fd_sc_mcu9t5v0__addf_1
X_877_ _351_ _380_ _381_ _382_ _383_ VDD VSS gf180mcu_fd_sc_mcu9t5v0__addf_1
X_878_ _354_ _384_ _355_ _385_ _386_ VDD VSS gf180mcu_fd_sc_mcu9t5v0__addf_1
X_879_ _387_ _386_ _375_ _388_ _389_ VDD VSS gf180mcu_fd_sc_mcu9t5v0__addf_1
X_880_ _390_ _391_ _392_ _393_ VDD VSS gf180mcu_fd_sc_mcu9t5v0__addh_1
X_881_ _392_ _394_ _395_ _396_ VDD VSS gf180mcu_fd_sc_mcu9t5v0__addh_1
X_882_ _397_ _395_ _398_ _399_ VDD VSS gf180mcu_fd_sc_mcu9t5v0__addh_1
X_883_ _400_ _401_ _148_ _402_ VDD VSS gf180mcu_fd_sc_mcu9t5v0__addh_1
X_884_ _403_ _404_ _405_ _406_ VDD VSS gf180mcu_fd_sc_mcu9t5v0__addh_1
X_885_ _406_ _398_ _407_ _408_ VDD VSS gf180mcu_fd_sc_mcu9t5v0__addh_1
X_886_ _405_ _152_ _174_ _409_ VDD VSS gf180mcu_fd_sc_mcu9t5v0__addh_1
X_887_ _407_ _409_ _175_ _410_ VDD VSS gf180mcu_fd_sc_mcu9t5v0__addh_2
X_888_ _411_ _412_ _195_ _413_ VDD VSS gf180mcu_fd_sc_mcu9t5v0__addh_2
X_889_ _151_ _414_ _415_ _173_ VDD VSS gf180mcu_fd_sc_mcu9t5v0__addh_1
X_890_ _173_ _174_ _416_ _417_ VDD VSS gf180mcu_fd_sc_mcu9t5v0__addh_1
X_891_ _198_ _415_ _420_ _421_ VDD VSS gf180mcu_fd_sc_mcu9t5v0__addh_2
X_892_ _418_ _422_ _423_ _424_ VDD VSS gf180mcu_fd_sc_mcu9t5v0__addh_1
X_893_ _425_ _419_ _243_ _426_ VDD VSS gf180mcu_fd_sc_mcu9t5v0__addh_1
X_894_ _212_ _415_ _427_ _428_ VDD VSS gf180mcu_fd_sc_mcu9t5v0__addh_2
X_895_ _429_ _430_ _431_ _432_ VDD VSS gf180mcu_fd_sc_mcu9t5v0__addh_1
X_896_ _430_ _434_ _435_ _230_ VDD VSS gf180mcu_fd_sc_mcu9t5v0__addh_1
X_897_ _433_ _436_ _269_ _437_ VDD VSS gf180mcu_fd_sc_mcu9t5v0__addh_1
X_898_ _197_ _440_ _441_ _442_ VDD VSS gf180mcu_fd_sc_mcu9t5v0__addh_2
X_899_ _434_ _438_ _443_ _263_ VDD VSS gf180mcu_fd_sc_mcu9t5v0__addh_2
X_900_ _439_ _444_ _299_ _268_ VDD VSS gf180mcu_fd_sc_mcu9t5v0__addh_1
X_901_ _211_ _445_ _446_ _447_ VDD VSS gf180mcu_fd_sc_mcu9t5v0__addh_2
X_902_ _449_ _450_ _451_ _452_ VDD VSS gf180mcu_fd_sc_mcu9t5v0__addh_2
X_903_ _453_ _454_ _455_ _456_ VDD VSS gf180mcu_fd_sc_mcu9t5v0__addh_2
X_904_ _448_ _457_ _330_ _300_ VDD VSS gf180mcu_fd_sc_mcu9t5v0__addh_1
X_905_ _458_ _459_ _460_ _461_ VDD VSS gf180mcu_fd_sc_mcu9t5v0__addh_2
X_906_ _462_ _463_ _464_ _465_ VDD VSS gf180mcu_fd_sc_mcu9t5v0__addh_2
X_907_ _320_ _321_ _340_ _466_ VDD VSS gf180mcu_fd_sc_mcu9t5v0__addh_1
X_908_ _466_ _468_ _347_ _469_ VDD VSS gf180mcu_fd_sc_mcu9t5v0__addh_1
X_909_ _470_ _471_ _472_ _473_ VDD VSS gf180mcu_fd_sc_mcu9t5v0__addh_2
X_910_ _467_ _474_ _356_ _329_ VDD VSS gf180mcu_fd_sc_mcu9t5v0__addh_1
X_911_ _475_ _476_ _477_ _478_ VDD VSS gf180mcu_fd_sc_mcu9t5v0__addh_2
X_912_ _344_ _350_ _366_ _346_ VDD VSS gf180mcu_fd_sc_mcu9t5v0__addh_1
X_913_ _349_ _479_ _480_ _481_ VDD VSS gf180mcu_fd_sc_mcu9t5v0__addh_2
X_914_ _483_ _341_ _371_ _357_ VDD VSS gf180mcu_fd_sc_mcu9t5v0__addh_1
X_915_ _484_ _485_ _486_ _487_ VDD VSS gf180mcu_fd_sc_mcu9t5v0__addh_2
X_916_ _488_ _489_ _490_ _367_ VDD VSS gf180mcu_fd_sc_mcu9t5v0__addh_1
X_917_ _369_ _348_ _491_ _492_ VDD VSS gf180mcu_fd_sc_mcu9t5v0__addh_2
X_918_ _493_ _482_ _494_ _495_ VDD VSS gf180mcu_fd_sc_mcu9t5v0__addh_1
X_919_ _496_ _489_ _381_ _370_ VDD VSS gf180mcu_fd_sc_mcu9t5v0__addh_1
X_920_ _497_ _498_ _499_ _500_ VDD VSS gf180mcu_fd_sc_mcu9t5v0__addh_1
X_921_ _490_ _501_ _502_ _503_ VDD VSS gf180mcu_fd_sc_mcu9t5v0__addh_1
X_922_ _503_ _368_ _504_ _505_ VDD VSS gf180mcu_fd_sc_mcu9t5v0__addh_2
X_923_ _506_ _489_ _507_ _380_ VDD VSS gf180mcu_fd_sc_mcu9t5v0__addh_1
X_924_ _351_ _380_ _508_ _509_ VDD VSS gf180mcu_fd_sc_mcu9t5v0__addh_1
X_925_ _510_ _511_ _512_ _513_ VDD VSS gf180mcu_fd_sc_mcu9t5v0__addh_2
XPHY_EDGE_ROW_0_Right_0 VDD VSS gf180mcu_fd_sc_mcu9t5v0__endcap
XPHY_EDGE_ROW_1_Right_1 VDD VSS gf180mcu_fd_sc_mcu9t5v0__endcap
XPHY_EDGE_ROW_2_Right_2 VDD VSS gf180mcu_fd_sc_mcu9t5v0__endcap
XPHY_EDGE_ROW_3_Right_3 VDD VSS gf180mcu_fd_sc_mcu9t5v0__endcap
XPHY_EDGE_ROW_4_Right_4 VDD VSS gf180mcu_fd_sc_mcu9t5v0__endcap
XPHY_EDGE_ROW_5_Right_5 VDD VSS gf180mcu_fd_sc_mcu9t5v0__endcap
XPHY_EDGE_ROW_6_Right_6 VDD VSS gf180mcu_fd_sc_mcu9t5v0__endcap
XPHY_EDGE_ROW_7_Right_7 VDD VSS gf180mcu_fd_sc_mcu9t5v0__endcap
XPHY_EDGE_ROW_8_Right_8 VDD VSS gf180mcu_fd_sc_mcu9t5v0__endcap
XPHY_EDGE_ROW_9_Right_9 VDD VSS gf180mcu_fd_sc_mcu9t5v0__endcap
XPHY_EDGE_ROW_10_Right_10 VDD VSS gf180mcu_fd_sc_mcu9t5v0__endcap
XPHY_EDGE_ROW_11_Right_11 VDD VSS gf180mcu_fd_sc_mcu9t5v0__endcap
XPHY_EDGE_ROW_12_Right_12 VDD VSS gf180mcu_fd_sc_mcu9t5v0__endcap
XPHY_EDGE_ROW_13_Right_13 VDD VSS gf180mcu_fd_sc_mcu9t5v0__endcap
XPHY_EDGE_ROW_14_Right_14 VDD VSS gf180mcu_fd_sc_mcu9t5v0__endcap
XPHY_EDGE_ROW_15_Right_15 VDD VSS gf180mcu_fd_sc_mcu9t5v0__endcap
XPHY_EDGE_ROW_16_Right_16 VDD VSS gf180mcu_fd_sc_mcu9t5v0__endcap
XPHY_EDGE_ROW_17_Right_17 VDD VSS gf180mcu_fd_sc_mcu9t5v0__endcap
XPHY_EDGE_ROW_18_Right_18 VDD VSS gf180mcu_fd_sc_mcu9t5v0__endcap
XPHY_EDGE_ROW_19_Right_19 VDD VSS gf180mcu_fd_sc_mcu9t5v0__endcap
XPHY_EDGE_ROW_20_Right_20 VDD VSS gf180mcu_fd_sc_mcu9t5v0__endcap
XPHY_EDGE_ROW_21_Right_21 VDD VSS gf180mcu_fd_sc_mcu9t5v0__endcap
XPHY_EDGE_ROW_22_Right_22 VDD VSS gf180mcu_fd_sc_mcu9t5v0__endcap
XPHY_EDGE_ROW_23_Right_23 VDD VSS gf180mcu_fd_sc_mcu9t5v0__endcap
XPHY_EDGE_ROW_24_Right_24 VDD VSS gf180mcu_fd_sc_mcu9t5v0__endcap
XPHY_EDGE_ROW_25_Right_25 VDD VSS gf180mcu_fd_sc_mcu9t5v0__endcap