
* cell cordic_core
* pin y_in[11]
* pin x_in[11]
* pin y_in[10]
* pin x_in[10]
* pin x_in[9]
* pin y_in[9]
* pin x_in[8]
* pin y_in[8]
* pin x_in[7]
* pin y_in[7]
* pin x_in[6]
* pin y_in[6]
* pin x_in[5]
* pin y_in[5]
* pin z_in[12]
* pin z_in[11]
* pin z_in[10]
* pin z_in[13]
* pin x_in[4]
* pin y_in[4]
* pin z_in[8]
* pin z_in[9]
* pin z_in[7]
* pin y_in[3]
* pin z_in[6]
* pin y_in[0]
* pin x_in[3]
* pin x_in[0]
* pin z_in[5]
* pin y_in[1]
* pin z_in[4]
* pin y_in[2]
* pin x_in[2]
* pin y_out[8]
* pin y_out[12]
* pin x_in[1]
* pin z_in[3]
* pin y_out[11]
* pin y_out[10]
* pin y_out[9]
* pin z_in[14]
* pin z_in[15]
* pin y_out[7]
* pin y_out[6]
* pin z_in[2]
* pin y_out[14]
* pin y_out[13]
* pin z_in[0]
* pin y_out[4]
* pin y_out[5]
* pin y_out[3]
* pin y_out[2]
* pin y_out[1]
* pin z_in[1]
* pin y_out[0]
* pin x_out[14]
* pin x_out[13]
* pin x_out[15]
* pin x_out[11]
* pin y_out[15]
* pin x_out[12]
* pin x_out[10]
* pin x_out[9]
* pin x_out[8]
* pin x_out[7]
* pin x_out[6]
* pin x_out[5]
* pin x_out[4]
* pin x_out[2]
* pin x_out[0]
* pin x_out[3]
* pin x_out[1]
* pin PWELL
* pin NWELL
* pin x_in[12]
* pin y_in[12]
* pin y_in[13]
* pin x_in[13]
* pin x_in[14]
* pin y_in[14]
* pin x_in[15]
* pin y_in[15]
.SUBCKT cordic_core 1 2 3 4 5 6 7 8 9 10 11 12 13 14 15 16 17 18 19 20 21 22 23
+ 24 25 26 27 28 29 30 31 32 33 34 35 36 37 38 39 40 41 42 43 44 45 46 47 48 49
+ 50 51 52 53 54 55 56 57 58 59 60 61 62 63 64 65 66 67 68 69 70 71 72 99 139
+ 256 305 600 677 1168 1169 1358 1412
* net 1 y_in[11]
* net 2 x_in[11]
* net 3 y_in[10]
* net 4 x_in[10]
* net 5 x_in[9]
* net 6 y_in[9]
* net 7 x_in[8]
* net 8 y_in[8]
* net 9 x_in[7]
* net 10 y_in[7]
* net 11 x_in[6]
* net 12 y_in[6]
* net 13 x_in[5]
* net 14 y_in[5]
* net 15 z_in[12]
* net 16 z_in[11]
* net 17 z_in[10]
* net 18 z_in[13]
* net 19 x_in[4]
* net 20 y_in[4]
* net 21 z_in[8]
* net 22 z_in[9]
* net 23 z_in[7]
* net 24 y_in[3]
* net 25 z_in[6]
* net 26 y_in[0]
* net 27 x_in[3]
* net 28 x_in[0]
* net 29 z_in[5]
* net 30 y_in[1]
* net 31 z_in[4]
* net 32 y_in[2]
* net 33 x_in[2]
* net 34 y_out[8]
* net 35 y_out[12]
* net 36 x_in[1]
* net 37 z_in[3]
* net 38 y_out[11]
* net 39 y_out[10]
* net 40 y_out[9]
* net 41 z_in[14]
* net 42 z_in[15]
* net 43 y_out[7]
* net 44 y_out[6]
* net 45 z_in[2]
* net 46 y_out[14]
* net 47 y_out[13]
* net 48 z_in[0]
* net 49 y_out[4]
* net 50 y_out[5]
* net 51 y_out[3]
* net 52 y_out[2]
* net 53 y_out[1]
* net 54 z_in[1]
* net 55 y_out[0]
* net 56 x_out[14]
* net 57 x_out[13]
* net 58 x_out[15]
* net 59 x_out[11]
* net 60 y_out[15]
* net 61 x_out[12]
* net 62 x_out[10]
* net 63 x_out[9]
* net 64 x_out[8]
* net 65 x_out[7]
* net 66 x_out[6]
* net 67 x_out[5]
* net 68 x_out[4]
* net 69 x_out[2]
* net 70 x_out[0]
* net 71 x_out[3]
* net 72 x_out[1]
* net 99 PWELL
* net 139 NWELL
* net 256 x_in[12]
* net 305 y_in[12]
* net 600 y_in[13]
* net 677 x_in[13]
* net 1168 x_in[14]
* net 1169 y_in[14]
* net 1358 x_in[15]
* net 1412 y_in[15]
* cell instance $2 r0 *1 6.08,1.4
X$2 1 99 139 101 BUF_X1
* cell instance $12 r0 *1 6.84,1.4
X$12 2 99 139 73 BUF_X1
* cell instance $18 r0 *1 9.5,1.4
X$18 3 99 139 142 BUF_X1
* cell instance $20 r0 *1 10.26,1.4
X$20 4 99 139 164 BUF_X1
* cell instance $26 r0 *1 13.87,1.4
X$26 5 99 139 165 BUF_X1
* cell instance $33 r0 *1 14.44,1.4
X$33 6 99 139 75 BUF_X1
* cell instance $38 r0 *1 19.76,1.4
X$38 7 99 139 76 BUF_X1
* cell instance $44 r0 *1 20.33,1.4
X$44 8 99 139 113 BUF_X1
* cell instance $50 r0 *1 24.89,1.4
X$50 9 99 139 193 BUF_X1
* cell instance $56 r0 *1 25.46,1.4
X$56 10 99 139 104 BUF_X1
* cell instance $63 r0 *1 27.93,1.4
X$63 11 99 139 105 BUF_X1
* cell instance $68 r0 *1 28.5,1.4
X$68 12 99 139 145 BUF_X1
* cell instance $75 r0 *1 34.77,1.4
X$75 13 99 139 117 BUF_X1
* cell instance $80 r0 *1 35.34,1.4
X$80 14 99 139 78 BUF_X1
* cell instance $86 r0 *1 36.67,1.4
X$86 15 99 139 119 BUF_X1
* cell instance $92 m0 *1 37.62,4.2
X$92 16 99 139 378 BUF_X1
* cell instance $98 r0 *1 37.81,1.4
X$98 17 99 139 120 CLKBUF_X2
* cell instance $104 m0 *1 38.57,4.2
X$104 18 99 139 242 BUF_X1
* cell instance $111 r0 *1 37.24,1.4
X$111 19 99 139 118 BUF_X1
* cell instance $117 r0 *1 36.1,1.4
X$117 20 99 139 167 BUF_X1
* cell instance $126 r0 *1 40.85,1.4
X$126 21 99 139 124 BUF_X2
* cell instance $128 r0 *1 41.61,1.4
X$128 22 99 139 224 CLKBUF_X2
* cell instance $134 m0 *1 41.8,4.2
X$134 23 99 139 440 BUF_X1
* cell instance $144 r0 *1 42.56,1.4
X$144 24 99 139 121 BUF_X1
* cell instance $147 r0 *1 43.51,4.2
X$147 25 99 139 319 BUF_X1
* cell instance $152 r0 *1 43.32,1.4
X$152 26 99 139 150 CLKBUF_X2
* cell instance $160 r0 *1 44.27,4.2
X$160 27 99 139 122 BUF_X1
* cell instance $164 r0 *1 45.03,1.4
X$164 28 99 139 79 CLKBUF_X2
* cell instance $171 r0 *1 44.46,1.4
X$171 29 99 139 169 BUF_X1
* cell instance $180 r0 *1 45.98,1.4
X$180 30 99 139 249 BUF_X2
* cell instance $182 r0 *1 44.84,4.2
X$182 31 99 139 260 BUF_X1
* cell instance $188 r0 *1 46.93,1.4
X$188 32 99 139 170 CLKBUF_X2
* cell instance $198 r0 *1 47.69,1.4
X$198 33 99 139 168 BUF_X2
* cell instance $200 m0 *1 46.74,4.2
X$200 252 99 139 34 BUF_X1
* cell instance $206 m0 *1 45.03,4.2
X$206 248 99 139 35 BUF_X1
* cell instance $212 r0 *1 49.21,1.4
X$212 36 139 125 99 BUF_X4
* cell instance $218 m0 *1 47.88,4.2
X$218 37 139 261 99 BUF_X4
* cell instance $224 m0 *1 47.31,4.2
X$224 251 99 139 38 BUF_X1
* cell instance $230 r0 *1 51.87,1.4
X$230 109 99 139 39 BUF_X1
* cell instance $236 m0 *1 49.21,4.2
X$236 302 99 139 40 BUF_X1
* cell instance $243 m0 *1 45.6,4.2
X$243 41 99 139 250 BUF_X1
* cell instance $248 r0 *1 50.54,1.4
X$248 42 139 254 99 BUF_X4
* cell instance $254 m0 *1 46.17,4.2
X$254 154 99 139 43 BUF_X1
* cell instance $260 r0 *1 53.58,1.4
X$260 81 99 139 44 BUF_X1
* cell instance $266 m0 *1 53.01,7
X$266 45 99 139 383 BUF_X1
* cell instance $272 m0 *1 64.22,4.2
X$272 247 99 139 46 BUF_X1
* cell instance $278 m0 *1 60.23,9.8
X$278 532 99 139 47 BUF_X1
* cell instance $284 r0 *1 56.05,1.4
X$284 99 48 322 139 BUF_X32
* cell instance $290 m0 *1 58.71,12.6
X$290 474 99 139 49 BUF_X1
* cell instance $304 m0 *1 60.8,9.8
X$304 354 99 139 50 BUF_X1
* cell instance $306 m0 *1 65.36,4.2
X$306 299 99 139 51 BUF_X1
* cell instance $312 m0 *1 67.07,4.2
X$312 157 99 139 52 BUF_X1
* cell instance $318 r0 *1 68.78,1.4
X$318 161 99 139 53 BUF_X1
* cell instance $324 r0 *1 57.38,4.2
X$324 99 385 139 54 BUF_X8
* cell instance $330 r0 *1 64.98,7
X$330 445 99 139 55 BUF_X1
* cell instance $336 r0 *1 68.4,4.2
X$336 297 99 139 56 BUF_X1
* cell instance $342 r0 *1 69.92,1.4
X$342 206 99 139 57 BUF_X1
* cell instance $348 r0 *1 69.35,1.4
X$348 162 99 139 58 BUF_X1
* cell instance $354 m0 *1 70.3,4.2
X$354 204 99 139 59 BUF_X1
* cell instance $360 m0 *1 70.87,4.2
X$360 180 99 139 60 BUF_X1
* cell instance $366 r0 *1 74.86,1.4
X$366 107 99 139 61 BUF_X1
* cell instance $372 r0 *1 77.52,1.4
X$372 88 99 139 62 BUF_X1
* cell instance $378 r0 *1 83.41,1.4
X$378 106 99 139 63 BUF_X1
* cell instance $384 m0 *1 84.55,4.2
X$384 131 99 139 64 BUF_X1
* cell instance $390 m0 *1 83.98,4.2
X$390 89 99 139 65 BUF_X1
* cell instance $396 r0 *1 88.35,1.4
X$396 93 99 139 66 BUF_X1
* cell instance $402 r0 *1 89.11,1.4
X$402 149 99 139 67 BUF_X1
* cell instance $408 r0 *1 92.53,1.4
X$408 96 99 139 68 BUF_X1
* cell instance $414 r0 *1 97.09,1.4
X$414 190 99 139 69 BUF_X1
* cell instance $420 r0 *1 96.71,4.2
X$420 238 99 139 70 BUF_X1
* cell instance $426 r0 *1 102.03,1.4
X$426 98 99 139 71 BUF_X1
* cell instance $432 m0 *1 102.03,4.2
X$432 140 99 139 72 BUF_X1
* cell instance $442 r0 *1 4.18,1.4
X$442 73 137 4866 139 99 74 HA_X1
* cell instance $444 m0 *1 5.32,4.2
X$444 73 101 4845 139 99 455 HA_X1
* cell instance $447 r0 *1 4.56,4.2
X$447 73 99 139 284 INV_X1
* cell instance $451 r0 *1 12.35,21
X$451 74 99 139 1174 INV_X1
* cell instance $455 m0 *1 3.99,9.8
X$455 358 453 74 99 570 139 AOI21_X2
* cell instance $458 r0 *1 13.3,21
X$458 1110 74 212 99 139 1177 NOR3_X1
* cell instance $465 r0 *1 12.35,4.2
X$465 213 75 257 139 99 306 HA_X1
* cell instance $469 r0 *1 11.97,1.4
X$469 165 75 4872 139 99 112 HA_X1
* cell instance $472 r0 *1 15.01,1.4
X$472 75 99 139 166 INV_X1
* cell instance $476 m0 *1 17.86,4.2
X$476 76 192 4849 139 99 216 HA_X1
* cell instance $478 r0 *1 20.9,1.4
X$478 76 99 139 114 INV_X1
* cell instance $482 r0 *1 17.48,1.4
X$482 76 113 4867 139 99 215 HA_X1
* cell instance $488 m0 *1 29.07,21
X$488 77 439 99 139 1116 NOR2_X1
* cell instance $491 r0 *1 28.5,18.2
X$491 77 99 139 1037 INV_X1
* cell instance $493 r0 *1 27.55,18.2
X$493 77 259 99 139 1019 NOR2_X2
* cell instance $495 m0 *1 29.83,21
X$495 439 77 99 139 1117 OR2_X1
* cell instance $498 r0 *1 31.16,1.4
X$498 117 147 4870 139 99 77 HA_X1
* cell instance $502 m0 *1 32.3,4.2
X$502 117 78 4855 139 99 194 HA_X1
* cell instance $507 r0 *1 31.73,4.2
X$507 78 222 259 139 99 434 HA_X1
* cell instance $509 r0 *1 33.06,1.4
X$509 78 99 139 147 INV_X1
* cell instance $515 m0 *1 45.22,21
X$515 79 99 139 1164 INV_X1
* cell instance $517 m0 *1 45.6,18.2
X$517 79 150 4862 139 99 1028 HA_X1
* cell instance $520 m0 *1 47.5,21
X$520 79 1103 4848 139 99 1118 HA_X1
* cell instance $525 m0 *1 49.59,7
X$525 468 449 99 139 80 NAND2_X2
* cell instance $542 m0 *1 56.81,4.2
X$542 174 80 99 139 226 NOR2_X1
* cell instance $544 m0 *1 65.17,7
X$544 80 323 99 139 350 NOR2_X1
* cell instance $546 m0 *1 61.18,7
X$546 350 265 80 99 161 139 AOI21_X1
* cell instance $548 m0 *1 67.64,4.2
X$548 80 245 99 139 159 NOR2_X1
* cell instance $550 r0 *1 48.64,1.4
X$550 253 80 99 139 151 NOR2_X1
* cell instance $552 m0 *1 50.92,4.2
X$552 201 80 99 139 200 NOR2_X2
* cell instance $554 m0 *1 58.33,9.8
X$554 452 80 99 139 533 NOR2_X2
* cell instance $557 r0 *1 52.44,1.4
X$557 110 202 139 99 81 XNOR2_X1
* cell instance $560 r0 *1 66.12,12.6
X$560 715 99 139 82 BUF_X1
* cell instance $564 r0 *1 66.5,1.4
X$564 82 208 139 99 83 XNOR2_X1
* cell instance $566 r0 *1 67.64,1.4
X$566 83 160 139 99 162 XNOR2_X1
* cell instance $578 r0 *1 71.82,1.4
X$578 156 84 99 139 158 NAND2_X2
* cell instance $581 r0 *1 75.43,1.4
X$581 127 84 99 139 155 NAND2_X1
* cell instance $584 r0 *1 69.35,4.2
X$584 84 228 295 139 99 349 OAI21_X2
* cell instance $586 m0 *1 69.35,4.2
X$586 179 99 139 84 CLKBUF_X3
* cell instance $589 r0 *1 94.43,1.4
X$589 84 134 97 139 99 144 OAI21_X2
* cell instance $592 r0 *1 97.66,1.4
X$592 136 84 99 139 103 NAND2_X1
* cell instance $594 r0 *1 98.8,1.4
X$594 100 84 141 99 139 140 MUX2_X1
* cell instance $596 r0 *1 92.15,1.4
X$596 84 99 139 91 INV_X1
* cell instance $599 m0 *1 83.41,4.2
X$599 197 84 99 139 130 NAND2_X1
* cell instance $601 m0 *1 81.13,4.2
X$601 84 185 184 139 99 199 OAI21_X2
* cell instance $603 m0 *1 85.12,4.2
X$603 185 84 99 139 132 NAND2_X1
* cell instance $605 r0 *1 70.68,1.4
X$605 85 158 99 139 204 XOR2_X1
* cell instance $608 r0 *1 74.1,1.4
X$608 85 86 87 99 139 127 NAND3_X1
* cell instance $611 r0 *1 72.77,4.2
X$611 269 324 99 139 85 XNOR2_X2
* cell instance $613 m0 *1 74.1,4.2
X$613 182 85 99 139 181 NAND2_X2
* cell instance $615 r0 *1 74.67,4.2
X$615 85 99 139 229 BUF_X1
* cell instance $622 m0 *1 75.05,4.2
X$622 229 86 183 182 99 295 139 NAND4_X2
* cell instance $624 r0 *1 79.61,1.4
X$624 86 91 99 139 152 NOR2_X1
* cell instance $626 r0 *1 80.18,1.4
X$626 153 129 128 99 139 86 AND3_X4
* cell instance $629 r0 *1 76.57,4.2
X$629 183 99 139 87 BUF_X1
* cell instance $634 r0 *1 76.38,1.4
X$634 87 152 139 99 88 XNOR2_X1
* cell instance $638 r0 *1 84.36,1.4
X$638 90 132 99 139 89 XOR2_X1
* cell instance $643 m0 *1 82.46,4.2
X$643 129 90 99 139 184 NAND2_X2
* cell instance $646 r0 *1 85.5,1.4
X$646 186 92 90 99 139 197 NAND3_X2
* cell instance $650 r0 *1 84.17,4.2
X$650 394 342 99 139 90 XNOR2_X2
* cell instance $652 r0 *1 96.14,1.4
X$652 91 102 99 139 135 NOR2_X2
* cell instance $658 r0 *1 91.01,1.4
X$658 95 91 99 139 94 NOR2_X1
* cell instance $664 m0 *1 86.26,4.2
X$664 186 91 99 139 133 NOR2_X1
* cell instance $667 r0 *1 87.21,1.4
X$667 92 133 139 99 93 XNOR2_X1
* cell instance $670 m0 *1 88.92,4.2
X$670 148 92 95 99 185 139 NAND3_X4
* cell instance $674 m0 *1 87.78,7
X$674 331 398 99 139 92 XNOR2_X2
* cell instance $679 r0 *1 89.87,1.4
X$679 94 148 139 99 149 XNOR2_X1
* cell instance $682 m0 *1 94.62,4.2
X$682 136 187 95 99 139 NOR2_X4
* cell instance $689 r0 *1 93.29,1.4
X$689 278 144 99 139 96 XOR2_X1
* cell instance $693 r0 *1 95.76,1.4
X$693 231 99 139 97 INV_X1
* cell instance $698 r0 *1 95.38,4.2
X$698 231 103 99 139 98 XOR2_X1
* cell instance $703 m0 *1 9.12,102.2
X$703 4809 4810 4333 139 99 4598 MUX2_X2
* cell instance $710 m0 *1 28.88,102.2
X$710 4833 4799 4832 99 139 4712 NAND3_X2
* cell instance $712 m0 *1 36.48,102.2
X$712 99 4771 4814 4615 4612 139 AOI21_X4
* cell instance $715 m0 *1 40.66,102.2
X$715 4612 4615 4814 99 4816 139 NAND3_X4
* cell instance $718 m0 *1 45.41,102.2
X$718 99 4816 4815 4824 4773 4660 139 AOI22_X4
* cell instance $721 m0 *1 3.23,37.8
X$721 1557 1944 1782 139 99 1783 AND3_X1
* cell instance $723 m0 *1 4.18,37.8
X$723 1828 1944 1782 139 99 1901 AND3_X1
* cell instance $724 m0 *1 5.13,37.8
X$724 1561 1946 1902 1901 1764 1875 99 139 OAI221_X2
* cell instance $726 m0 *1 7.41,37.8
X$726 1877 1946 1836 139 1870 99 OAI21_X1
* cell instance $728 m0 *1 8.36,37.8
X$728 1830 1948 1875 99 139 1947 AND3_X4
* cell instance $730 m0 *1 10.64,37.8
X$730 1903 1695 1743 99 139 1877 NAND3_X1
* cell instance $731 m0 *1 11.4,37.8
X$731 1743 99 139 1950 INV_X1
* cell instance $733 m0 *1 11.97,37.8
X$733 1903 1787 99 139 2006 NOR2_X1
* cell instance $735 m0 *1 12.73,37.8
X$735 1832 1417 1951 139 99 1904 HA_X1
* cell instance $737 m0 *1 14.82,37.8
X$737 1789 1833 139 99 1906 AND2_X1
* cell instance $739 m0 *1 17.1,37.8
X$739 1835 1508 1972 139 99 1953 HA_X1
* cell instance $743 m0 *1 1.52,37.8
X$743 1742 1870 139 99 1900 XNOR2_X1
* cell instance $751 r0 *1 3.61,37.8
X$751 1828 1782 1944 99 1902 139 AOI21_X2
* cell instance $753 r0 *1 5.13,37.8
X$753 1764 1901 1788 1965 1964 99 139 OAI211_X2
* cell instance $755 r0 *1 7.22,37.8
X$755 1389 1211 99 139 1946 OR2_X1
* cell instance $757 r0 *1 8.36,37.8
X$757 1877 1692 99 139 1966 NAND2_X1
* cell instance $758 r0 *1 8.93,37.8
X$758 1695 99 139 1965 INV_X2
* cell instance $759 r0 *1 9.5,37.8
X$759 1002 1694 99 139 1967 OR2_X2
* cell instance $761 r0 *1 10.64,37.8
X$761 1965 1831 139 99 1968 XNOR2_X1
* cell instance $762 r0 *1 11.78,37.8
X$762 1950 2006 139 99 1969 XNOR2_X1
* cell instance $763 r0 *1 12.92,37.8
X$763 1564 1905 1692 139 1971 99 OAI21_X1
* cell instance $765 r0 *1 14.06,37.8
X$765 1905 1745 99 139 2080 NOR2_X1
* cell instance $767 r0 *1 15.01,37.8
X$767 1906 99 139 1905 INV_X1
* cell instance $768 r0 *1 15.39,37.8
X$768 1952 1507 1073 99 139 1903 NOR3_X1
* cell instance $770 r0 *1 16.53,37.8
X$770 1952 1692 99 139 2009 NAND2_X1
* cell instance $771 r0 *1 17.1,37.8
X$771 1073 2009 99 139 1973 XOR2_X1
* cell instance $773 r0 *1 18.43,37.8
X$773 99 1627 1787 139 BUF_X16
* cell instance $774 m0 *1 20.33,37.8
X$774 1837 1508 139 1974 99 XOR2_X2
* cell instance $775 m0 *1 19.38,37.8
X$775 1417 1508 1975 99 139 1952 OR3_X1
* cell instance $776 m0 *1 22.04,37.8
X$776 1838 99 139 1907 CLKBUF_X2
* cell instance $778 r0 *1 23.18,37.8
X$778 1564 1887 1836 139 1976 99 OAI21_X1
* cell instance $780 m0 *1 23.18,37.8
X$780 1884 1511 139 1908 99 XOR2_X2
* cell instance $781 m0 *1 25.08,37.8
X$781 1791 1575 99 139 1841 NOR2_X1
* cell instance $782 m0 *1 25.65,37.8
X$782 1887 1841 99 139 1910 XOR2_X1
* cell instance $783 m0 *1 26.79,37.8
X$783 1673 1842 139 99 1911 XNOR2_X1
* cell instance $786 r0 *1 24.32,37.8
X$786 1612 99 139 1909 INV_X1
* cell instance $787 r0 *1 24.7,37.8
X$787 2012 1909 1511 99 139 1975 NAND3_X1
* cell instance $789 r0 *1 25.84,37.8
X$789 1910 1569 1977 139 99 1979 HA_X1
* cell instance $791 m0 *1 28.5,37.8
X$791 1843 1569 139 1912 99 XOR2_X2
* cell instance $793 m0 *1 30.21,37.8
X$793 1701 1914 1791 99 139 NOR2_X4
* cell instance $794 m0 *1 31.92,37.8
X$794 99 1627 1575 139 BUF_X32
* cell instance $795 m0 *1 41.23,37.8
X$795 1795 1796 1962 99 139 NOR2_X4
* cell instance $796 m0 *1 42.94,37.8
X$796 1962 1518 1707 139 99 2123 OAI21_X4
* cell instance $798 m0 *1 45.6,37.8
X$798 1709 1712 1917 139 99 2038 HA_X1
* cell instance $799 m0 *1 47.5,37.8
X$799 99 2096 1845 1918 1847 139 AOI21_X4
* cell instance $800 m0 *1 49.97,37.8
X$800 1845 1918 1898 99 1916 139 AOI21_X2
* cell instance $801 m0 *1 51.3,37.8
X$801 1849 1848 139 1963 99 XOR2_X2
* cell instance $802 m0 *1 53.01,37.8
X$802 1799 1848 1921 99 1846 139 AOI21_X1
* cell instance $804 m0 *1 55.29,37.8
X$804 1961 99 139 1851 INV_X1
* cell instance $805 m0 *1 55.67,37.8
X$805 1584 1959 1961 139 99 1850 HA_X1
* cell instance $806 m0 *1 57.57,37.8
X$806 1850 99 139 1960 INV_X1
* cell instance $807 m0 *1 57.95,37.8
X$807 1960 1851 1958 139 99 1714 OAI21_X2
* cell instance $808 m0 *1 59.28,37.8
X$808 99 1780 1851 1825 1852 139 AOI21_X4
* cell instance $809 m0 *1 61.75,37.8
X$809 1854 99 139 1825 INV_X1
* cell instance $810 m0 *1 62.13,37.8
X$810 1854 1853 1926 99 1958 139 AOI21_X1
* cell instance $813 r0 *1 28.88,37.8
X$813 1615 2013 99 139 2012 NOR2_X2
* cell instance $816 r0 *1 30.4,37.8
X$816 1545 99 139 1913 INV_X1
* cell instance $817 r0 *1 30.78,37.8
X$817 2015 1545 1980 139 99 2014 HA_X1
* cell instance $818 r0 *1 32.68,37.8
X$818 2014 99 139 1914 INV_X1
* cell instance $820 r0 *1 33.44,37.8
X$820 1915 99 139 2015 INV_X1
* cell instance $824 r0 *1 38.57,37.8
X$824 672 1369 2034 139 99 2020 HA_X1
* cell instance $825 r0 *1 40.47,37.8
X$825 2019 99 139 1983 CLKBUF_X2
* cell instance $827 r0 *1 41.42,37.8
X$827 1796 2017 1983 139 2018 99 OAI21_X1
* cell instance $828 r0 *1 42.18,37.8
X$828 1707 1518 99 139 2017 NOR2_X1
* cell instance $831 r0 *1 44.46,37.8
X$831 1917 1916 139 99 2016 XNOR2_X1
* cell instance $833 r0 *1 45.79,37.8
X$833 1917 99 139 1985 INV_X1
* cell instance $835 r0 *1 46.55,37.8
X$835 1847 1918 139 2702 99 XOR2_X2
* cell instance $838 r0 *1 49.21,37.8
X$838 1986 99 139 1920 INV_X2
* cell instance $839 r0 *1 49.78,37.8
X$839 1425 1987 1986 139 99 1919 HA_X1
* cell instance $840 r0 *1 51.68,37.8
X$840 1988 1920 1989 139 1921 99 OAI21_X1
* cell instance $841 r0 *1 52.44,37.8
X$841 1989 1920 1922 139 99 1849 OAI21_X4
* cell instance $842 r0 *1 54.91,37.8
X$842 1919 99 139 1989 INV_X1
* cell instance $845 r0 *1 55.86,37.8
X$845 1991 1990 139 1620 99 XOR2_X2
* cell instance $850 r0 *1 59.09,37.8
X$850 1924 1993 139 99 1583 XNOR2_X1
* cell instance $852 r0 *1 60.42,37.8
X$852 2044 1993 1925 139 1994 99 OAI21_X1
* cell instance $854 m0 *1 63.46,37.8
X$854 1853 1957 1856 139 99 1852 OAI21_X4
* cell instance $856 m0 *1 65.93,37.8
X$856 1956 1957 99 139 1894 NOR2_X1
* cell instance $859 m0 *1 67.45,37.8
X$859 1927 1857 1928 139 99 1956 AND3_X1
* cell instance $860 m0 *1 68.4,37.8
X$860 1859 1929 1930 99 1955 139 AOI21_X1
* cell instance $861 m0 *1 69.16,37.8
X$861 1859 99 139 1857 INV_X1
* cell instance $864 m0 *1 70.49,37.8
X$864 1136 1860 1892 139 99 1889 HA_X1
* cell instance $869 r0 *1 64.41,37.8
X$869 1856 99 139 2010 INV_X1
* cell instance $870 r0 *1 64.79,37.8
X$870 2010 1927 1955 139 99 1926 OAI21_X2
* cell instance $871 r0 *1 66.12,37.8
X$871 99 1957 1927 1857 1928 139 AOI21_X4
* cell instance $874 r0 *1 69.16,37.8
X$874 1930 1929 139 1860 99 XOR2_X2
* cell instance $875 r0 *1 70.87,37.8
X$875 1931 2106 139 99 1954 XNOR2_X1
* cell instance $878 r0 *1 72.58,37.8
X$878 2007 2008 2190 99 1932 139 AOI21_X1
* cell instance $879 r0 *1 73.34,37.8
X$879 2053 1136 2008 139 99 2007 HA_X1
* cell instance $880 m0 *1 76.95,37.8
X$880 1935 1862 1757 99 1886 139 NAND3_X4
* cell instance $881 m0 *1 75.05,37.8
X$881 1933 1589 99 139 1934 XNOR2_X2
* cell instance $882 m0 *1 79.42,37.8
X$882 99 1936 2054 1818 1862 1881 139 OAI211_X4
* cell instance $883 m0 *1 82.65,37.8
X$883 1806 1649 99 1805 139 NAND2_X4
* cell instance $884 m0 *1 84.36,37.8
X$884 1949 1201 99 139 1998 NOR2_X1
* cell instance $886 m0 *1 85.12,37.8
X$886 99 1939 1864 1940 1804 1938 139 OAI22_X4
* cell instance $888 m0 *1 88.54,37.8
X$888 2057 2001 99 1530 139 NAND2_X4
* cell instance $889 m0 *1 90.25,37.8
X$889 1817 1654 1807 99 1863 139 AOI21_X2
* cell instance $894 r0 *1 75.62,37.8
X$894 1718 1755 1721 99 1933 139 AOI21_X2
* cell instance $895 r0 *1 76.95,37.8
X$895 99 717 139 1934 BUF_X8
* cell instance $896 r0 *1 79.42,37.8
X$896 1649 1589 1755 1937 99 1997 139 NAND4_X2
* cell instance $897 r0 *1 81.13,37.8
X$897 1648 1589 1755 1937 99 1996 139 NAND4_X2
* cell instance $898 r0 *1 82.84,37.8
X$898 1937 1648 99 139 1949 NAND2_X2
* cell instance $900 r0 *1 83.98,37.8
X$900 2003 2088 1940 1938 139 99 1433 OAI22_X2
* cell instance $901 r0 *1 85.69,37.8
X$901 1805 1272 1939 99 139 NOR2_X4
* cell instance $903 r0 *1 87.59,37.8
X$903 99 1201 1136 139 BUF_X16
* cell instance $906 m0 *1 94.43,37.8
X$906 1945 1876 1866 139 99 1809 HA_X1
* cell instance $908 m0 *1 96.33,37.8
X$908 1337 1867 139 99 1945 XNOR2_X1
* cell instance $909 m0 *1 97.47,37.8
X$909 1814 1136 99 139 1867 NAND2_X1
* cell instance $912 r0 *1 95,37.8
X$912 2139 2065 99 139 1654 XNOR2_X2
* cell instance $913 r0 *1 96.9,37.8
X$913 2066 1941 139 1337 99 XOR2_X2
* cell instance $915 m0 *1 98.42,37.8
X$915 1942 1873 139 99 1943 XNOR2_X1
* cell instance $918 m0 *1 99.94,37.8
X$918 1943 1872 1812 139 99 1761 HA_X1
* cell instance $920 r0 *1 100.13,37.8
X$920 1942 99 139 1205 INV_X1
* cell instance $929 m0 *1 5.13,99.4
X$929 99 4766 4664 4666 4665 4663 139 OR4_X4
* cell instance $937 m0 *1 8.17,99.4
X$937 4356 4719 99 139 4764 NAND2_X1
* cell instance $939 m0 *1 8.74,99.4
X$939 4792 4764 4333 139 99 4668 MUX2_X2
* cell instance $940 m0 *1 10.45,99.4
X$940 4293 4765 99 139 4792 NAND2_X1
* cell instance $943 r0 *1 9.12,99.4
X$943 4334 4719 99 139 4809 NAND2_X1
* cell instance $944 r0 *1 9.69,99.4
X$944 4334 4765 99 139 4810 NAND2_X1
* cell instance $946 m0 *1 11.97,99.4
X$946 4794 4333 4793 99 139 4647 MUX2_X1
* cell instance $947 m0 *1 11.4,99.4
X$947 4356 4719 99 139 4793 NOR2_X1
* cell instance $948 m0 *1 13.3,99.4
X$948 4293 4765 99 139 4794 NOR2_X1
* cell instance $950 m0 *1 14.63,99.4
X$950 99 4536 4511 4766 4729 139 NOR3_X4
* cell instance $953 r0 *1 11.97,99.4
X$953 4334 4719 99 139 4830 NOR2_X1
* cell instance $954 r0 *1 12.54,99.4
X$954 4334 4765 99 139 4829 NOR2_X1
* cell instance $957 r0 *1 16.91,99.4
X$957 4511 4536 99 139 4831 NOR2_X1
* cell instance $958 r0 *1 17.48,99.4
X$958 99 4721 4795 4720 4719 139 NOR3_X4
* cell instance $959 m0 *1 19.76,99.4
X$959 4264 4514 4722 139 99 4796 HA_X1
* cell instance $960 m0 *1 17.67,99.4
X$960 4720 4721 4795 99 139 4765 OR3_X4
* cell instance $961 m0 *1 21.66,99.4
X$961 4796 4767 4722 99 4670 139 AOI21_X2
* cell instance $962 m0 *1 22.99,99.4
X$962 4722 4723 99 139 4768 NAND2_X1
* cell instance $963 m0 *1 23.56,99.4
X$963 4670 4798 4768 139 99 4534 OAI21_X2
* cell instance $964 m0 *1 24.89,99.4
X$964 4722 99 139 4770 INV_X1
* cell instance $966 m0 *1 25.46,99.4
X$966 4672 4671 99 139 4798 NOR2_X1
* cell instance $971 r0 *1 20.71,99.4
X$971 4831 4206 4723 139 99 4767 HA_X1
* cell instance $973 r0 *1 23.37,99.4
X$973 4723 99 139 4769 BUF_X1
* cell instance $975 r0 *1 26.98,99.4
X$975 4769 4770 139 99 4812 AND2_X1
* cell instance $977 m0 *1 29.07,99.4
X$977 4672 4671 4727 99 4835 139 AOI21_X2
* cell instance $978 m0 *1 27.93,99.4
X$978 4770 4767 4672 4725 99 139 4799 OR4_X1
* cell instance $980 m0 *1 30.59,99.4
X$980 4671 4677 4675 139 99 4725 AND3_X1
* cell instance $981 m0 *1 31.54,99.4
X$981 4728 4725 4428 99 139 NOR2_X4
* cell instance $984 m0 *1 35.53,99.4
X$984 99 4771 4834 4772 4626 4758 139 OAI22_X4
* cell instance $985 m0 *1 38.76,99.4
X$985 4657 4648 4729 139 99 4773 OAI21_X4
* cell instance $986 m0 *1 41.23,99.4
X$986 4774 4648 4729 139 99 4760 OAI21_X2
* cell instance $988 m0 *1 42.75,99.4
X$988 99 4760 4759 4679 4744 4775 139 OAI211_X4
* cell instance $989 m0 *1 45.98,99.4
X$989 4684 4800 4615 99 4775 139 AOI21_X2
* cell instance $991 m0 *1 47.5,99.4
X$991 4776 4616 4778 139 99 4802 HA_X1
* cell instance $994 r0 *1 28.31,99.4
X$994 4672 4725 4812 139 4832 99 OAI21_X1
* cell instance $995 r0 *1 29.07,99.4
X$995 4769 4835 99 139 4429 XNOR2_X2
* cell instance $999 r0 *1 33.63,99.4
X$999 99 4771 4772 4758 4834 4785 139 NOR4_X4
* cell instance $1000 r0 *1 37.05,99.4
X$1000 99 4813 4836 4724 4834 139 NOR3_X4
* cell instance $1001 r0 *1 39.71,99.4
X$1001 4813 4724 4836 139 99 4815 OAI21_X4
* cell instance $1002 r0 *1 42.18,99.4
X$1002 99 4815 4816 4660 4773 4710 139 NAND4_X4
* cell instance $1003 r0 *1 45.6,99.4
X$1003 4612 139 4800 99 BUF_X4
* cell instance $1005 r0 *1 47.69,99.4
X$1005 4773 4660 99 139 4776 NAND2_X1
* cell instance $1008 r0 *1 48.83,99.4
X$1008 4777 4801 4837 139 99 4813 OAI21_X4
* cell instance $1009 m0 *1 51.11,99.4
X$1009 4679 4775 99 139 4803 NOR2_X1
* cell instance $1010 m0 *1 49.78,99.4
X$1010 4730 4717 4802 99 4777 139 AOI21_X2
* cell instance $1012 m0 *1 51.87,99.4
X$1012 4778 99 139 4685 INV_X1
* cell instance $1015 r0 *1 51.49,99.4
X$1015 4802 99 139 4731 INV_X1
* cell instance $1016 r0 *1 51.87,99.4
X$1016 4731 4685 4659 139 99 4838 OAI21_X2
* cell instance $1018 m0 *1 52.63,99.4
X$1018 4659 99 139 4801 BUF_X2
* cell instance $1020 m0 *1 55.1,99.4
X$1020 4687 4428 4804 139 99 4780 HA_X1
* cell instance $1021 m0 *1 57,99.4
X$1021 4679 4680 4686 99 4839 139 AOI21_X1
* cell instance $1022 m0 *1 57.76,99.4
X$1022 4804 99 139 4733 BUF_X2
* cell instance $1024 m0 *1 60.04,99.4
X$1024 4733 4714 99 139 4806 NAND2_X1
* cell instance $1025 m0 *1 60.61,99.4
X$1025 4689 4806 4734 139 4805 99 OAI21_X1
* cell instance $1026 m0 *1 61.37,99.4
X$1026 4780 4733 4735 99 4734 139 AOI21_X1
* cell instance $1030 r0 *1 53.77,99.4
X$1030 4803 4429 4818 139 99 4781 HA_X1
* cell instance $1033 r0 *1 56.81,99.4
X$1033 4712 4839 4817 139 99 4779 HA_X1
* cell instance $1039 r0 *1 59.28,99.4
X$1039 4805 4820 4779 4819 4781 4774 139 99 AOI221_X2
* cell instance $1040 r0 *1 61.37,99.4
X$1040 4779 4819 4781 99 4821 139 AOI21_X1
* cell instance $1041 r0 *1 62.13,99.4
X$1041 4782 4691 4780 4733 4735 4822 139 99 AOI221_X2
* cell instance $1043 m0 *1 62.51,99.4
X$1043 4733 4714 139 99 4782 AND2_X2
* cell instance $1045 m0 *1 65.17,99.4
X$1045 4733 99 139 4808 INV_X1
* cell instance $1047 m0 *1 68.59,99.4
X$1047 4745 4625 99 139 4736 NOR2_X1
* cell instance $1048 m0 *1 69.16,99.4
X$1048 4823 4738 99 4739 139 NAND2_X4
* cell instance $1049 m0 *1 70.87,99.4
X$1049 4693 4651 4587 99 139 NOR2_X4
* cell instance $1050 m0 *1 72.58,99.4
X$1050 4710 4626 99 4586 139 NAND2_X4
* cell instance $1052 m0 *1 74.48,99.4
X$1052 4737 99 139 4742 BUF_X1
* cell instance $1054 r0 *1 64.22,99.4
X$1054 4780 99 139 4807 INV_X1
* cell instance $1055 r0 *1 64.6,99.4
X$1055 4808 4692 4807 139 4841 99 OAI21_X1
* cell instance $1056 r0 *1 65.36,99.4
X$1056 4781 4818 4841 99 4783 139 AOI21_X1
* cell instance $1057 r0 *1 66.12,99.4
X$1057 4783 4819 139 4694 99 XOR2_X2
* cell instance $1061 r0 *1 70.3,99.4
X$1061 4694 99 139 4745 INV_X1
* cell instance $1062 r0 *1 70.68,99.4
X$1062 4710 4626 4784 99 4755 139 NAND3_X4
* cell instance $1064 r0 *1 73.34,99.4
X$1064 99 4740 4784 4626 4710 139 AOI21_X4
* cell instance $1066 m0 *1 75.43,99.4
X$1066 4732 4744 4741 99 4589 139 NAND3_X4
* cell instance $1068 r0 *1 76,99.4
X$1068 99 4785 4739 4824 4786 139 NOR3_X4
* cell instance $1070 m0 *1 78.28,99.4
X$1070 99 4786 4740 4788 4064 4787 139 OAI22_X4
* cell instance $1071 r0 *1 78.66,99.4
X$1071 4744 4732 4741 139 99 4787 AND3_X2
* cell instance $1073 r0 *1 79.99,99.4
X$1073 99 4740 4788 4787 4786 4191 139 NOR4_X4
* cell instance $1075 m0 *1 81.89,99.4
X$1075 4824 4785 4706 139 4630 99 OAI21_X1
* cell instance $1076 m0 *1 84.36,99.4
X$1076 4743 4732 4744 99 139 4697 NAND3_X2
* cell instance $1077 m0 *1 83.03,99.4
X$1077 4753 4742 4651 139 4696 99 NOR3_X2
* cell instance $1081 r0 *1 83.79,99.4
X$1081 4743 4744 4732 99 4707 139 AOI21_X2
* cell instance $1083 r0 *1 85.5,99.4
X$1083 4825 4826 99 139 4743 NAND2_X1
* cell instance $1084 r0 *1 86.07,99.4
X$1084 4826 4825 139 99 4753 AND2_X2
* cell instance $1086 r0 *1 87.21,99.4
X$1086 4699 4586 4643 99 4827 139 AOI21_X1
* cell instance $1089 m0 *1 89.11,99.4
X$1089 4699 4701 99 139 4752 NOR2_X1
* cell instance $1090 m0 *1 91.96,99.4
X$1090 4789 4750 139 99 4791 AND2_X1
* cell instance $1091 m0 *1 90.06,99.4
X$1091 4625 4752 4789 139 99 4790 HA_X1
* cell instance $1092 m0 *1 92.72,99.4
X$1092 4790 4789 4797 99 4843 139 AOI21_X2
* cell instance $1093 m0 *1 94.05,99.4
X$1093 4748 4747 4746 139 4797 99 OAI21_X1
* cell instance $1094 m0 *1 94.81,99.4
X$1094 4748 4631 4746 139 4844 99 OAI21_X1
* cell instance $1095 m0 *1 95.57,99.4
X$1095 4748 4749 4746 139 4750 99 OAI21_X1
* cell instance $1099 r0 *1 91.77,99.4
X$1099 4828 4791 4790 139 99 4825 OAI21_X2
* cell instance $1102 r0 *1 94.05,99.4
X$1102 4844 4789 139 3931 99 XOR2_X2
* cell instance $1122 r0 *1 3.99,63
X$1122 99 2226 139 3039 BUF_X8
* cell instance $1123 m0 *1 8.17,63
X$1123 99 2972 2973 2968 2969 3031 139 NOR4_X4
* cell instance $1124 m0 *1 4.75,63
X$1124 99 3031 3069 3106 2965 2362 139 NAND4_X4
* cell instance $1126 r0 *1 6.46,63
X$1126 3031 2965 3106 99 139 3185 NAND3_X1
* cell instance $1127 r0 *1 7.22,63
X$1127 2302 99 139 3039 INV_X8
* cell instance $1130 r0 *1 10.07,63
X$1130 2969 2973 2972 99 139 3187 NOR3_X1
* cell instance $1131 r0 *1 10.83,63
X$1131 3039 3187 3106 99 3189 139 AOI21_X1
* cell instance $1132 r0 *1 11.59,63
X$1132 2968 3189 139 99 3190 XNOR2_X1
* cell instance $1134 m0 *1 11.97,63
X$1134 3075 2973 139 3079 99 XOR2_X2
* cell instance $1138 r0 *1 14.06,63
X$1138 2898 3108 3107 99 139 3143 OR3_X1
* cell instance $1139 m0 *1 17.48,63
X$1139 2977 2896 3034 139 99 3035 HA_X1
* cell instance $1140 m0 *1 14.06,63
X$1140 99 2896 2897 2975 2943 3106 139 NOR4_X4
* cell instance $1141 m0 *1 19.38,63
X$1141 3078 2975 3077 139 99 3110 HA_X1
* cell instance $1142 m0 *1 21.28,63
X$1142 2978 2975 139 3081 99 XOR2_X2
* cell instance $1143 m0 *1 22.99,63
X$1143 3038 99 139 3037 INV_X1
* cell instance $1144 m0 *1 23.37,63
X$1144 2835 2980 3201 139 99 3112 HA_X1
* cell instance $1147 m0 *1 26.22,63