* CDL Netlist generated by OpenROAD

*.BUSDELIMITER [

.SUBCKT cordic_core x_in[0] x_in[10] x_in[11] x_in[12] x_in[13]
+ x_in[14] x_in[15] x_in[1] x_in[2] x_in[3] x_in[4] x_in[5]
+ x_in[6] x_in[7] x_in[8] x_in[9] x_out[0] x_out[10] x_out[11]
+ x_out[12] x_out[13] x_out[14] x_out[15] x_out[1] x_out[2]
+ x_out[3] x_out[4] x_out[5] x_out[6] x_out[7] x_out[8] x_out[9]
+ y_in[0] y_in[10] y_in[11] y_in[12] y_in[13] y_in[14] y_in[15]
+ y_in[1] y_in[2] y_in[3] y_in[4] y_in[5] y_in[6] y_in[7] y_in[8]
+ y_in[9] y_out[0] y_out[10] y_out[11] y_out[12] y_out[13] y_out[14]
+ y_out[15] y_out[1] y_out[2] y_out[3] y_out[4] y_out[5] y_out[6]
+ y_out[7] y_out[8] y_out[9] z_in[0] z_in[10] z_in[11] z_in[12]
+ z_in[13] z_in[14] z_in[15] z_in[1] z_in[2] z_in[3] z_in[4]
+ z_in[5] z_in[6] z_in[7] z_in[8] z_in[9]
X_4565_ net47 _0000_ VDD VSS BUF_X8
X_4566_ _0000_ _4502_ VDD VSS INV_X8
Xclone10 _0511_ _0516_ net10 VDD VSS NAND2_X2
X_4568_ _4503_ _0002_ VDD VSS INV_X4
X_4569_ net46 _4501_ VDD VSS INV_X2
X_4570_ _4505_ _0003_ VDD VSS CLKBUF_X2
X_4571_ _4501_ _0002_ _0003_ _4502_ _0004_ VDD VSS OAI211_X4
X_4572_ z_in[0] _0005_ VDD VSS BUF_X32
X_4573_ net49 net48 _0005_ _0006_ VDD VSS NOR3_X2
X_4574_ z_in[3] _0007_ VDD VSS BUF_X4
X_4575_ net52 net51 net50 _0007_ _0008_ VDD VSS NOR4_X4
X_4576_ net42 net44 net43 net45 _0009_ VDD VSS NOR4_X4
X_4577_ net55 net54 net53 _0010_ VDD VSS NOR3_X4
X_4578_ _0006_ _0008_ _0009_ _0010_ _0011_ VDD VSS NAND4_X2
X_4579_ _4502_ _0002_ _0011_ _0004_ _0012_ VDD VSS OAI22_X4
X_4580_ _0012_ _0013_ VDD VSS INV_X4
X_4581_ _0013_ _0014_ VDD VSS BUF_X8
X_4582_ _0014_ _0015_ VDD VSS BUF_X8
X_4583_ _0015_ _2909_ VDD VSS BUF_X8
X_4584_ _2903_ _0016_ VDD VSS CLKBUF_X2
X_4585_ _0012_ _0017_ VDD VSS BUF_X8
X_4586_ _0017_ _0018_ VDD VSS BUF_X8
X_4587_ _0018_ _0019_ VDD VSS BUF_X8
X_4588_ _0019_ _0020_ VDD VSS BUF_X4
X_4589_ _0020_ _0021_ VDD VSS BUF_X4
X_4590_ _2899_ _0016_ _0021_ _3025_ VDD VSS MUX2_X2
X_4591_ _3025_ _2914_ VDD VSS INV_X2
X_4592_ _3029_ _0022_ VDD VSS BUF_X4
X_4593_ _0022_ _0023_ VDD VSS BUF_X4
X_4594_ _3036_ _0024_ VDD VSS BUF_X2
X_4595_ _3020_ _0025_ VDD VSS INV_X1
X_4596_ _3019_ _0026_ VDD VSS BUF_X4
X_4597_ _0026_ _0027_ VDD VSS INV_X2
X_4598_ _0025_ _2904_ _0027_ _0028_ VDD VSS OAI21_X1
X_4599_ _3037_ _0029_ VDD VSS BUF_X4
X_4600_ _0024_ _0028_ net130 _0030_ VDD VSS AOI21_X2
X_4601_ _0023_ _0030_ _0031_ VDD VSS XNOR2_X2
X_4602_ _0021_ _0031_ _0032_ VDD VSS NAND2_X1
X_4603_ _3037_ _0026_ _0033_ VDD VSS NOR2_X1
X_4604_ _0029_ _0034_ VDD VSS INV_X4
X_4605_ _3041_ _0033_ _3017_ _0034_ _3023_ _0035_ VDD VSS
+ AOI221_X2
X_4606_ _0023_ _0035_ _0036_ VDD VSS XNOR2_X2
X_4607_ _0032_ _0036_ _0021_ _3090_ VDD VSS OAI21_X2
X_4608_ _2905_ _0037_ VDD VSS BUF_X2
X_4609_ _0037_ _0020_ _0038_ VDD VSS NAND2_X1
Xclone4 _1590_ net4 VDD VSS BUF_X4
X_4611_ _0038_ _0020_ _2902_ _0040_ VDD VSS OAI21_X1
X_4612_ _0034_ _0040_ _3049_ VDD VSS XNOR2_X2
X_4613_ _3049_ _3094_ VDD VSS INV_X1
X_4614_ _0016_ _2906_ _0021_ _2919_ VDD VSS MUX2_X2
X_4615_ _2919_ _2923_ VDD VSS INV_X1
X_4616_ _0003_ _0041_ VDD VSS INV_X1
X_4617_ _4503_ _0041_ _0000_ _0042_ VDD VSS AOI21_X4
X_4618_ _0006_ _0008_ _0043_ VDD VSS AND2_X1
X_4619_ _0043_ _0010_ _0044_ VDD VSS NAND2_X1
X_4620_ net43 net42 _0045_ VDD VSS OR2_X1
X_4621_ net44 _0045_ _0046_ VDD VSS OR2_X1
X_4622_ _0042_ _0044_ _0046_ _0047_ VDD VSS OAI21_X1
X_4623_ net45 _0047_ _2907_ VDD VSS XNOR2_X2
X_4624_ _2907_ _3102_ VDD VSS INV_X1
X_4625_ net130 _0048_ VDD VSS BUF_X4
X_4626_ _2898_ _0049_ VDD VSS BUF_X2
X_4627_ _0049_ _0050_ VDD VSS INV_X1
X_4628_ _0050_ _2902_ _0020_ _0051_ VDD VSS MUX2_X1
X_4629_ _0048_ _0051_ _3097_ VDD VSS XNOR2_X2
X_4630_ _3097_ _3045_ VDD VSS INV_X1
X_4631_ _2910_ _0052_ VDD VSS BUF_X8
X_4632_ _0052_ _0053_ VDD VSS INV_X16
X_4633_ _3051_ _3094_ _0053_ _3052_ VDD VSS MUX2_X1
X_4634_ _3052_ _2913_ VDD VSS INV_X1
X_4635_ _3048_ _0054_ VDD VSS BUF_X2
X_4636_ _0054_ _2915_ _3055_ VDD VSS XNOR2_X2
X_4637_ _3055_ _3246_ VDD VSS INV_X1
X_4638_ _3033_ _0055_ VDD VSS CLKBUF_X3
X_4639_ _0055_ _0056_ VDD VSS INV_X1
Xclone9 _0517_ net9 VDD VSS BUF_X8
X_4641_ _3059_ _0058_ VDD VSS CLKBUF_X3
X_4642_ _3071_ _0059_ VDD VSS BUF_X2
X_4643_ _0059_ _0060_ VDD VSS INV_X1
X_4644_ _0056_ _0058_ _0060_ _0061_ VDD VSS NAND3_X1
X_4645_ _3041_ _0062_ VDD VSS INV_X1
X_4646_ _3037_ _0026_ _0063_ VDD VSS OR2_X1
X_4647_ _3017_ _2901_ VDD VSS INV_X1
X_4648_ _3023_ _0064_ VDD VSS INV_X1
X_4649_ _0062_ _0063_ _2901_ _0029_ _0064_ _0065_ VDD VSS
+ OAI221_X2
X_4650_ _0023_ _0066_ VDD VSS INV_X4
X_4651_ _0061_ _0065_ _0066_ _0067_ VDD VSS AOI21_X1
X_4652_ _3067_ _0068_ VDD VSS BUF_X2
X_4653_ _0068_ _0069_ VDD VSS BUF_X4
X_4654_ _0023_ _0069_ _0058_ _0035_ _0070_ VDD VSS NOR4_X2
X_4655_ net117 _0071_ VDD VSS INV_X4
X_4656_ _0071_ _0059_ _0072_ VDD VSS NAND2_X1
X_4657_ _0069_ _0058_ _0060_ _0073_ VDD VSS NAND3_X1
X_4658_ _0068_ _0074_ VDD VSS INV_X4
X_4659_ _0055_ _0074_ _0071_ _0075_ VDD VSS NAND3_X1
X_4660_ _0072_ _0073_ _0075_ _0076_ VDD VSS NAND3_X1
X_4661_ _0067_ _0070_ _0076_ _0077_ VDD VSS NOR3_X2
X_4662_ _3028_ _0078_ VDD VSS BUF_X2
X_4663_ _0078_ _0079_ VDD VSS INV_X1
X_4664_ _3066_ _0080_ VDD VSS CLKBUF_X3
X_4665_ _0071_ _0080_ _0081_ VDD VSS NOR2_X1
X_4666_ _0022_ _0024_ _0029_ _0082_ VDD VSS OAI21_X2
X_4667_ _3020_ _0024_ _0083_ VDD VSS OR2_X1
X_4668_ _2904_ _0084_ VDD VSS INV_X1
X_4669_ _0083_ _0084_ _0026_ _0085_ VDD VSS AOI21_X2
X_4670_ _0079_ _0081_ _0082_ _0085_ _0086_ VDD VSS OAI211_X2
X_4671_ _0069_ _0071_ _0080_ _0087_ VDD VSS NOR3_X1
X_4672_ _0087_ _0080_ _0071_ _0088_ VDD VSS AOI21_X2
X_4673_ _3020_ _0024_ _0089_ VDD VSS NOR2_X1
X_4674_ _0089_ _2904_ _0027_ _0090_ VDD VSS OAI21_X2
X_4675_ _0082_ _0091_ VDD VSS INV_X1
X_4676_ _0078_ _0090_ _0091_ _0092_ VDD VSS AOI21_X2
X_4677_ _0074_ _0058_ _0093_ VDD VSS NOR2_X2
X_4678_ _0093_ _0094_ VDD VSS INV_X1
X_4679_ _0086_ _0088_ _0092_ _0094_ _0095_ VDD VSS OAI211_X4
X_4680_ _0077_ _0095_ _0021_ _3082_ VDD VSS MUX2_X1
X_4681_ _3075_ _0096_ VDD VSS BUF_X2
X_4682_ _0096_ _0097_ VDD VSS INV_X2
X_4683_ _0058_ _0097_ _0098_ VDD VSS NOR2_X1
X_4684_ _3063_ _0099_ VDD VSS BUF_X2
X_4685_ _0099_ _0096_ _0100_ VDD VSS OR2_X1
X_4686_ _0059_ _0100_ _0055_ _0074_ _0101_ VDD VSS AOI211_X2
X_4687_ _0023_ _0069_ _0102_ VDD VSS NOR2_X1
X_4688_ _0029_ _2902_ _0103_ VDD VSS NOR2_X1
X_4689_ _0102_ _0103_ _3041_ _0104_ VDD VSS OAI21_X2
X_4690_ _0098_ _0101_ _0104_ _0105_ VDD VSS MUX2_X1
X_4691_ _0099_ _0106_ VDD VSS INV_X1
X_4692_ _0058_ _0106_ _0097_ _0107_ VDD VSS NAND3_X1
X_4693_ _0096_ _0108_ VDD VSS CLKBUF_X3
X_4694_ _0071_ _0108_ _0109_ VDD VSS NAND2_X1
X_4695_ _0059_ _0074_ _0055_ _0110_ VDD VSS AOI21_X2
X_4696_ _0107_ _0109_ _0110_ _0106_ _0097_ _0111_ VDD VSS
+ OAI221_X2
X_4697_ _0014_ _0105_ _0111_ _0112_ VDD VSS OR3_X1
X_4698_ _3069_ _0113_ VDD VSS BUF_X2
X_4699_ _0113_ _3061_ _0114_ VDD VSS OR2_X1
X_4700_ _3039_ _0115_ VDD VSS BUF_X2
X_4701_ _3031_ _0116_ VDD VSS BUF_X2
X_4702_ _0115_ _0116_ _0117_ VDD VSS NOR2_X1
X_4703_ _0117_ _0049_ _0034_ _0118_ VDD VSS OAI21_X2
X_4704_ _0116_ _0119_ VDD VSS INV_X1
X_4705_ _0074_ _0119_ _0066_ _0120_ VDD VSS AOI21_X2
X_4706_ _0114_ _0118_ _0120_ _0121_ VDD VSS AOI21_X1
X_4707_ _3059_ _3061_ _0122_ VDD VSS NOR2_X2
X_4708_ _0121_ _0122_ _0123_ VDD VSS OR2_X1
X_4709_ _0108_ _0123_ _0124_ VDD VSS XNOR2_X1
X_4710_ _0112_ _0124_ _0020_ _0125_ VDD VSS OAI21_X2
X_4711_ _0125_ _3210_ VDD VSS INV_X1
X_4712_ _0071_ _0113_ _0116_ _0126_ VDD VSS NOR3_X1
X_4713_ _0023_ _0115_ net130 _0127_ VDD VSS OAI21_X2
X_4714_ _0115_ _3021_ _0128_ VDD VSS OR2_X1
X_4715_ _2897_ _0129_ VDD VSS INV_X1
X_4716_ _0128_ _0129_ _0026_ _0130_ VDD VSS AOI21_X4
X_4717_ _0126_ _0127_ _0130_ _0131_ VDD VSS OAI21_X1
X_4718_ _0115_ _3021_ _0132_ VDD VSS NOR2_X1
X_4719_ _0132_ _2897_ _0027_ _0133_ VDD VSS OAI21_X2
X_4720_ _0127_ _0134_ VDD VSS INV_X1
X_4721_ _0093_ _0133_ _0134_ _0135_ VDD VSS NAND3_X1
X_4722_ _0069_ _0071_ _0113_ _0136_ VDD VSS NOR3_X1
X_4723_ _0136_ _0093_ _0116_ _0071_ _0113_ _0137_ VDD VSS
+ AOI221_X2
X_4724_ _0014_ _0131_ _0135_ _0137_ _0138_ VDD VSS NAND4_X1
X_4725_ _0067_ _0070_ _0076_ _0139_ VDD VSS OR3_X1
X_4726_ _0020_ _0139_ _0140_ VDD VSS NAND2_X1
X_4727_ _0138_ _0140_ _3214_ VDD VSS AND2_X1
X_4728_ _0115_ _0116_ _0141_ VDD VSS OR2_X1
X_4729_ _0141_ _0050_ _0048_ _0142_ VDD VSS AOI21_X2
X_4730_ _0069_ _0116_ _0023_ _0143_ VDD VSS OAI21_X1
X_4731_ _0142_ _0143_ _0144_ VDD VSS NOR2_X1
X_4732_ _0074_ _0119_ _0145_ VDD VSS NAND2_X1
X_4733_ _0115_ _0146_ VDD VSS INV_X1
X_4734_ _0146_ _0049_ _0034_ _0147_ VDD VSS OAI21_X1
X_4735_ _0145_ _0147_ _0023_ _0148_ VDD VSS AOI21_X1
X_4736_ _2909_ _0144_ _0148_ _0149_ VDD VSS OAI21_X1
X_4737_ net130 _2902_ _0150_ VDD VSS OR2_X1
X_4738_ _0023_ _0062_ _0150_ _0151_ VDD VSS AOI21_X2
X_4739_ _0069_ _0151_ _0055_ _0152_ VDD VSS OAI21_X2
X_4740_ _0055_ _0069_ _0151_ _0153_ VDD VSS OR3_X2
X_4741_ _0021_ _0152_ _0153_ _0154_ VDD VSS NAND3_X1
X_4742_ _0149_ _0154_ _3218_ VDD VSS AND2_X1
X_4743_ _0130_ _0127_ _0155_ VDD VSS NOR2_X2
X_4744_ _3021_ _0156_ VDD VSS INV_X1
X_4745_ _0156_ _2897_ _0027_ _0157_ VDD VSS OAI21_X1
X_4746_ _0023_ _0115_ _0157_ _0048_ _0158_ VDD VSS AOI211_X2
X_4747_ _2909_ _0155_ _0158_ _0159_ VDD VSS OAI21_X1
X_4748_ _0021_ _0036_ _0160_ VDD VSS NAND2_X1
X_4749_ _0159_ _0160_ _3135_ VDD VSS AND2_X1
X_4750_ _0053_ _2929_ VDD VSS BUF_X32
X_4751_ _0048_ _0049_ _0161_ VDD VSS XNOR2_X1
X_4752_ _2899_ _0161_ _0162_ VDD VSS OR2_X1
X_4753_ _0144_ _0148_ _0158_ _0155_ _0163_ VDD VSS OAI22_X1
X_4754_ _0048_ _2902_ _0164_ VDD VSS NAND2_X1
X_4755_ _0016_ _0150_ _0164_ _0165_ VDD VSS AOI21_X1
X_4756_ _0036_ _0152_ _0153_ _0165_ _0166_ VDD VSS NAND4_X1
X_4757_ _0138_ _0162_ _0163_ _0166_ _0015_ _0077_ _0167_ VDD
+ VSS OAI33_X1
X_4758_ net227 _0167_ _0168_ VDD VSS NOR2_X1
X_4759_ _0125_ _0168_ _3081_ VDD VSS XOR2_X2
X_4760_ _0152_ _0153_ _0169_ VDD VSS NAND2_X1
X_4761_ _0037_ _0170_ VDD VSS INV_X1
X_4762_ _0024_ _0170_ net130 _0171_ VDD VSS AOI21_X1
X_4763_ _0079_ _0171_ _0066_ _0172_ VDD VSS OAI21_X1
X_4764_ _0074_ _0172_ _0173_ VDD VSS XNOR2_X1
X_4765_ _0169_ _0173_ _0021_ _3086_ VDD VSS MUX2_X1
X_4766_ _3098_ _0174_ VDD VSS INV_X1
X_4767_ _0036_ _0152_ _0153_ _0175_ VDD VSS NAND3_X1
X_4768_ _0163_ _0175_ _0020_ _0176_ VDD VSS MUX2_X1
X_4769_ _0174_ _0176_ _0177_ VDD VSS NOR2_X2
X_4770_ net227 _0177_ _0178_ VDD VSS NOR2_X1
X_4771_ _3214_ _0178_ _3085_ VDD VSS XNOR2_X1
X_4772_ _0052_ _0179_ VDD VSS BUF_X8
X_4773_ _2899_ _0020_ _0180_ VDD VSS OR2_X1
X_4774_ _0050_ _0180_ _0181_ VDD VSS NOR2_X1
X_4775_ _0016_ _2902_ _0182_ VDD VSS NOR2_X1
X_4776_ _0181_ _0182_ _0020_ _0183_ VDD VSS AOI21_X1
X_4777_ _0048_ _0183_ _0184_ VDD VSS NOR2_X1
X_4778_ _0016_ _0185_ VDD VSS INV_X1
X_4779_ _0185_ _2902_ _0186_ VDD VSS NAND2_X1
X_4780_ _0049_ _0180_ _0186_ _2909_ _0187_ VDD VSS OAI22_X1
X_4781_ _0184_ _0187_ _0048_ _0188_ VDD VSS AOI21_X1
X_4782_ _0179_ _3135_ _0188_ _0189_ VDD VSS OAI21_X1
X_4783_ _3218_ _0189_ _3089_ VDD VSS XOR2_X2
X_4784_ _2929_ _3098_ _0190_ VDD VSS NOR2_X1
X_4785_ _3135_ _0190_ _3093_ VDD VSS XNOR2_X1
X_4786_ _0179_ _0191_ VDD VSS BUF_X4
X_4787_ _0191_ _3097_ _0192_ VDD VSS NOR2_X1
X_4788_ _0192_ _3099_ _0191_ _2918_ VDD VSS AOI21_X2
X_4789_ _2922_ _2917_ VDD VSS INV_X1
X_4790_ _3100_ _0193_ VDD VSS INV_X1
X_4791_ _3101_ _0194_ VDD VSS INV_X1
X_4792_ _0193_ _2922_ _0194_ _0195_ VDD VSS OAI21_X1
X_4793_ _3096_ _0196_ VDD VSS BUF_X1
X_4794_ _3095_ _0195_ _0196_ _0197_ VDD VSS AOI21_X1
X_4795_ _0197_ _3092_ _3238_ VDD VSS XNOR2_X2
X_4796_ _3238_ _3146_ VDD VSS INV_X1
X_4797_ _0196_ _2920_ _3145_ VDD VSS XNOR2_X2
X_4798_ _3145_ _3242_ VDD VSS INV_X1
X_4799_ _3091_ _0198_ VDD VSS INV_X1
X_4800_ _3095_ _3100_ _0199_ VDD VSS OR2_X1
X_4801_ _0199_ _2917_ _3101_ _0200_ VDD VSS AOI21_X1
X_4802_ _3092_ _3095_ _0196_ _0201_ VDD VSS OAI21_X1
X_4803_ _0198_ _0200_ _0201_ _0202_ VDD VSS OAI21_X1
X_4804_ _3088_ _0203_ VDD VSS BUF_X2
X_4805_ _3087_ _0202_ _0203_ _0204_ VDD VSS AOI21_X2
X_4806_ _3084_ _0204_ _3230_ VDD VSS XNOR2_X2
X_4807_ _0005_ _2940_ VDD VSS INV_X16
X_4808_ net49 _0205_ VDD VSS INV_X1
X_4809_ _3290_ _4503_ _0041_ _0000_ _0206_ VDD VSS AOI211_X2
X_4810_ _0205_ _0206_ _2924_ VDD VSS XNOR2_X2
X_4811_ _2924_ _2928_ VDD VSS INV_X1
X_4812_ _0052_ _2911_ _0207_ VDD VSS XNOR2_X2
X_4813_ _3107_ _0208_ VDD VSS BUF_X1
X_4814_ _3104_ _0208_ _3106_ _0209_ VDD VSS OAI21_X1
X_4815_ _0207_ _0209_ _0210_ VDD VSS NOR2_X1
X_4816_ _3043_ _0210_ _0211_ VDD VSS NOR2_X1
X_4817_ _3043_ _3106_ _3109_ _0212_ VDD VSS OR3_X2
X_4818_ _3110_ _0213_ VDD VSS INV_X1
X_4819_ _3113_ _0214_ VDD VSS CLKBUF_X2
X_4820_ _0214_ _3112_ _0215_ VDD VSS NOR2_X1
X_4821_ _0213_ _0215_ _0216_ VDD VSS NOR2_X1
X_4822_ _3115_ _0217_ VDD VSS INV_X1
X_4823_ _3122_ _0218_ VDD VSS BUF_X4
X_4824_ _3121_ _3124_ _0218_ _0219_ VDD VSS AOI21_X4
X_4825_ _0219_ _0220_ VDD VSS INV_X4
X_4826_ _3119_ _0221_ VDD VSS BUF_X2
X_4827_ _3118_ _0220_ _0221_ _0222_ VDD VSS AOI21_X4
X_4828_ _3116_ _0223_ VDD VSS INV_X1
X_4829_ _0217_ _0222_ _0223_ _0224_ VDD VSS OAI21_X4
X_4830_ _0224_ _3112_ _0225_ VDD VSS NOR2_X4
X_4831_ _3116_ _0218_ _3125_ _0221_ _0226_ VDD VSS NAND4_X1
X_4832_ _3131_ _0227_ VDD VSS BUF_X1
X_4833_ _3130_ _3132_ _0227_ _0228_ VDD VSS AOI21_X1
X_4834_ _0227_ _3133_ _0229_ VDD VSS NAND2_X1
X_4835_ _0228_ _0229_ _2928_ _0230_ VDD VSS OAI21_X2
X_4836_ _3127_ _0230_ _3128_ _0231_ VDD VSS AOI21_X2
X_4837_ _0225_ _0226_ _0231_ _0232_ VDD VSS OAI21_X4
X_4838_ _0212_ _0232_ _0216_ _0233_ VDD VSS AOI21_X4
X_4839_ _0233_ _0211_ _0234_ VDD VSS NOR2_X4
X_4840_ _0234_ _0235_ VDD VSS INV_X8
X_4841_ _0235_ _3261_ VDD VSS BUF_X16
X_4842_ _3137_ _0236_ VDD VSS BUF_X2
X_4843_ _0236_ _0237_ VDD VSS INV_X1
X_4844_ _3047_ _0238_ VDD VSS INV_X1
X_4845_ _3053_ _3149_ _3054_ _0239_ VDD VSS AOI21_X2
X_4846_ _0054_ _0240_ VDD VSS INV_X1
X_4847_ _0238_ _0239_ _0240_ _0241_ VDD VSS OAI21_X1
X_4848_ _0237_ _0241_ _3138_ VDD VSS XNOR2_X2
X_4849_ _3138_ _3245_ VDD VSS INV_X1
X_4850_ _3141_ _0242_ VDD VSS CLKBUF_X2
X_4851_ _3143_ _0243_ VDD VSS INV_X1
X_4852_ _3150_ _3151_ _2930_ _0244_ VDD VSS AOI21_X1
X_4853_ _3144_ _0245_ VDD VSS INV_X1
X_4854_ _0243_ _0244_ _0245_ _0246_ VDD VSS OAI21_X2
X_4855_ _0242_ _0246_ _3464_ VDD VSS XNOR2_X2
X_4856_ _3159_ _0247_ VDD VSS BUF_X2
X_4857_ _0247_ _0248_ VDD VSS BUF_X4
X_4858_ _0248_ _0249_ VDD VSS INV_X2
X_4859_ _3074_ _0250_ VDD VSS BUF_X2
X_4860_ _3058_ _0251_ VDD VSS BUF_X2
X_4861_ _0250_ _0251_ _0096_ _0252_ VDD VSS AOI21_X1
X_4862_ net117 _0096_ _0253_ VDD VSS NAND2_X1
X_4863_ _0068_ _0080_ _0254_ VDD VSS NOR2_X1
X_4864_ _0252_ _0253_ _0254_ _0255_ VDD VSS OAI21_X2
X_4865_ _0078_ _0080_ _0251_ _0250_ _0256_ VDD VSS NOR4_X1
X_4866_ _0256_ _0082_ _0085_ _0257_ VDD VSS OAI21_X2
X_4867_ _0249_ _0255_ _0257_ _0258_ VDD VSS AOI21_X2
X_4868_ _0078_ _0080_ _0251_ _0250_ _0259_ VDD VSS OR4_X1
X_4869_ _0259_ _0091_ _0090_ _0260_ VDD VSS AOI21_X4
X_4870_ _0249_ _0255_ _0261_ VDD VSS NAND2_X1
X_4871_ _0017_ _0260_ _0261_ _0262_ VDD VSS OAI21_X2
X_4872_ _3079_ _0263_ VDD VSS BUF_X2
X_4873_ _0263_ _0264_ VDD VSS INV_X1
X_4874_ _0022_ _3059_ _0265_ VDD VSS NOR2_X1
X_4875_ _0097_ _0265_ _0059_ _0074_ _0266_ VDD VSS OAI211_X2
X_4876_ _0099_ _0059_ _0267_ VDD VSS OR2_X1
X_4877_ _0267_ _0074_ _0055_ _0268_ VDD VSS AOI21_X2
X_4878_ _0097_ _0099_ _0071_ _0269_ VDD VSS OAI21_X2
X_4879_ _0264_ _0035_ _0266_ _0268_ _0269_ _0270_ VDD VSS
+ OAI221_X2
X_4880_ _0248_ _0270_ _0271_ VDD VSS XNOR2_X2
X_4881_ _0258_ _0262_ _0271_ _0021_ _0272_ VDD VSS OAI22_X1
X_4882_ _0272_ _3174_ VDD VSS INV_X1
X_4883_ _3167_ _0273_ VDD VSS BUF_X2
X_4884_ _0273_ _0274_ VDD VSS INV_X2
X_4885_ _3077_ _0275_ VDD VSS CLKBUF_X3
X_4886_ _3161_ _0275_ _0247_ _0276_ VDD VSS AOI21_X4
X_4887_ _0096_ _0248_ _0277_ VDD VSS NAND2_X1
X_4888_ _0276_ _0277_ _0122_ _0278_ VDD VSS OAI21_X2
X_4889_ _0113_ _3061_ _0279_ VDD VSS NOR2_X1
X_4890_ _0279_ _0276_ _0280_ VDD VSS AND2_X1
X_4891_ _0280_ _0143_ _0142_ _0281_ VDD VSS OAI21_X2
X_4892_ _0019_ _0278_ _0281_ _0282_ VDD VSS AOI21_X1
X_4893_ _3163_ _0283_ VDD VSS BUF_X2
X_4894_ _0099_ _0263_ _0283_ _0284_ VDD VSS NOR3_X4
X_4895_ _0104_ _0110_ _0284_ _0285_ VDD VSS AND3_X2
X_4896_ _0096_ _0106_ net117 _0286_ VDD VSS AOI21_X2
X_4897_ _0249_ _0286_ _0263_ _0287_ VDD VSS OAI21_X1
X_4898_ _0283_ _0288_ VDD VSS INV_X2
X_4899_ _0285_ _0287_ _0288_ _0289_ VDD VSS AOI21_X2
X_4900_ _0282_ _0289_ _0019_ _0290_ VDD VSS AOI21_X2
X_4901_ _0274_ _0290_ _3202_ VDD VSS XNOR2_X2
X_4902_ _0275_ _0291_ VDD VSS INV_X1
X_4903_ _0119_ _0279_ _0292_ VDD VSS NAND2_X1
X_4904_ _0292_ _0134_ _0133_ _0293_ VDD VSS AOI21_X4
X_4905_ _3061_ _0294_ VDD VSS INV_X1
X_4906_ _3059_ _0113_ _0069_ _0295_ VDD VSS OAI21_X1
X_4907_ _0294_ _0295_ _0296_ VDD VSS NAND2_X2
X_4908_ _0108_ _0296_ _0297_ VDD VSS NAND2_X1
X_4909_ _0291_ _0293_ _0297_ _0298_ VDD VSS OAI21_X1
X_4910_ _0249_ _0298_ _0299_ VDD VSS XNOR2_X1
X_4911_ _0271_ _0299_ _0015_ _3206_ VDD VSS MUX2_X2
X_4912_ _0108_ _0014_ _0300_ VDD VSS NAND2_X1
X_4913_ _0296_ _0301_ VDD VSS INV_X1
X_4914_ _0249_ _0291_ _0293_ _0301_ _0302_ VDD VSS OAI211_X2
X_4915_ _0119_ _0291_ _0279_ _0303_ VDD VSS NAND3_X1
X_4916_ _0248_ _0275_ _0296_ _0303_ _0155_ _0304_ VDD VSS
+ OAI221_X2
X_4917_ _0123_ _0300_ _0302_ _0304_ _0305_ VDD VSS AOI211_X2
X_4918_ _0248_ _0275_ _0306_ VDD VSS XNOR2_X1
X_4919_ _0015_ _0306_ _0122_ _0121_ _0307_ VDD VSS OAI211_X2
X_4920_ _0112_ _0271_ _0307_ _0108_ _0308_ VDD VSS OAI22_X2
X_4921_ _0167_ _0305_ _0308_ _0309_ VDD VSS OAI21_X2
X_4922_ _0179_ _0309_ _0310_ VDD VSS NAND2_X1
X_4923_ _3202_ _0310_ _3173_ VDD VSS XOR2_X1
X_4924_ _0080_ _0311_ VDD VSS INV_X1
X_4925_ _0097_ _0251_ _0312_ VDD VSS NOR2_X1
X_4926_ _0069_ _0078_ _0022_ _0313_ VDD VSS OAI21_X2
X_4927_ _0024_ _0078_ _0314_ VDD VSS OR2_X1
X_4928_ _0314_ _0170_ _0029_ _0315_ VDD VSS AOI21_X2
X_4929_ _0311_ _0312_ _0313_ _0315_ _0316_ VDD VSS OAI211_X2
X_4930_ _0109_ _0108_ _0251_ _0317_ VDD VSS MUX2_X1
X_4931_ _0024_ _0078_ _0318_ VDD VSS NOR2_X1
X_4932_ _0318_ _0037_ _0034_ _0319_ VDD VSS OAI21_X2
X_4933_ _0313_ _0320_ VDD VSS INV_X1
X_4934_ _0080_ _0319_ _0320_ _0321_ VDD VSS AOI21_X2
X_4935_ _0058_ _0097_ _0322_ VDD VSS NAND2_X1
X_4936_ _0316_ _0317_ _0321_ _0322_ _0323_ VDD VSS OAI211_X4
X_4937_ _2909_ _0323_ _0324_ VDD VSS NOR2_X1
X_4938_ _0105_ _0111_ _0325_ VDD VSS NOR2_X1
X_4939_ _0324_ _0325_ _2909_ _3178_ VDD VSS AOI21_X2
X_4940_ _3214_ _0326_ VDD VSS INV_X1
X_4941_ _0125_ _0326_ _0177_ _0327_ VDD VSS NAND3_X1
X_4942_ _0179_ _0327_ _0328_ VDD VSS NAND2_X1
X_4943_ _3206_ _0328_ _3177_ VDD VSS XOR2_X2
X_4944_ _3176_ _0329_ VDD VSS BUF_X2
X_4945_ _3179_ _0330_ VDD VSS BUF_X2
X_4946_ _0330_ _0331_ VDD VSS INV_X1
X_4947_ _3083_ _0332_ VDD VSS CLKBUF_X2
X_4948_ _3087_ _3091_ _0333_ VDD VSS NOR2_X1
X_4949_ _0333_ _0201_ _0200_ _0334_ VDD VSS OAI21_X1
X_4950_ _3084_ _0203_ _3087_ _0335_ VDD VSS OAI21_X1
X_4951_ _0335_ _0336_ VDD VSS INV_X1
X_4952_ _0332_ _0334_ _0336_ _0337_ VDD VSS AOI21_X1
X_4953_ _3180_ _0338_ VDD VSS INV_X1
X_4954_ _0331_ _0337_ _0338_ _0339_ VDD VSS OAI21_X1
X_4955_ _0339_ _0329_ _0340_ VDD VSS XNOR2_X2
X_4956_ _0340_ _3222_ VDD VSS INV_X1
X_4957_ _3183_ _0341_ VDD VSS BUF_X2
X_4958_ _0341_ _0342_ VDD VSS CLKBUF_X3
X_4959_ _3195_ _0343_ VDD VSS CLKBUF_X3
X_4960_ _3191_ _0344_ VDD VSS INV_X2
X_4961_ _0343_ _0344_ _3171_ _0345_ VDD VSS AOI21_X4
X_4962_ _0273_ _0346_ VDD VSS CLKBUF_X3
X_4963_ _3191_ _0347_ VDD VSS CLKBUF_X3
X_4964_ _0346_ _0347_ _0348_ VDD VSS OR2_X1
X_4965_ _0348_ _0288_ _0248_ _0349_ VDD VSS AOI21_X2
X_4966_ _0108_ _0264_ _0288_ _0350_ VDD VSS NAND3_X2
X_4967_ _0058_ _0284_ _0351_ VDD VSS NAND2_X1
X_4968_ _0349_ _0350_ _0351_ _0352_ VDD VSS NAND3_X1
X_4969_ _0014_ _0345_ _0352_ _0285_ _0353_ VDD VSS OAI211_X2
X_4970_ _3190_ _3166_ _0347_ _0354_ VDD VSS AOI21_X2
X_4971_ _0354_ _0355_ VDD VSS INV_X1
X_4972_ _0346_ _0347_ _0356_ VDD VSS AND2_X1
X_4973_ _3158_ _0250_ _0248_ _0357_ VDD VSS AOI21_X1
X_4974_ _0058_ _0251_ _0358_ VDD VSS NOR2_X1
X_4975_ _0357_ _0358_ _0277_ _0359_ VDD VSS OAI21_X2
X_4976_ _0356_ _0359_ _0360_ VDD VSS AND2_X1
X_4977_ _0080_ _0251_ _3158_ _0361_ VDD VSS NOR3_X1
X_4978_ _0250_ _0362_ VDD VSS INV_X1
X_4979_ _0361_ _0313_ _0315_ _0249_ _0362_ _0363_ VDD VSS
+ OAI221_X2
X_4980_ _0355_ _0360_ _0363_ _0364_ VDD VSS AOI21_X2
X_4981_ _0342_ _0353_ _0364_ _0014_ _0365_ VDD VSS OAI211_X2
X_4982_ _0341_ _0366_ VDD VSS INV_X2
X_4983_ _0356_ _0359_ _0367_ VDD VSS NAND2_X1
X_4984_ _0080_ _0251_ _3158_ _0368_ VDD VSS OR3_X1
X_4985_ _0368_ _0319_ _0320_ _0248_ _0250_ _0369_ VDD VSS
+ AOI221_X2
X_4986_ _0018_ _0354_ _0367_ _0369_ _0370_ VDD VSS OAI211_X2
X_4987_ _0343_ _0371_ VDD VSS INV_X1
X_4988_ _3171_ _0372_ VDD VSS INV_X2
X_4989_ _0371_ _0347_ _0372_ _0373_ VDD VSS OAI21_X1
X_4990_ _0349_ _0350_ _0351_ _0374_ VDD VSS AND3_X1
X_4991_ _0104_ _0110_ _0284_ _0375_ VDD VSS NAND3_X2
X_4992_ _0373_ _0374_ _0375_ _0376_ VDD VSS AOI21_X1
X_4993_ _0366_ _0370_ _0376_ _0018_ _0377_ VDD VSS OAI211_X2
X_4994_ _0365_ _0377_ _0378_ VDD VSS AND2_X1
X_4995_ _0378_ _3388_ VDD VSS INV_X1
X_4996_ _0372_ _0346_ _0288_ _0379_ VDD VSS OAI21_X2
X_4997_ _0247_ _0273_ _0380_ VDD VSS NOR2_X2
X_4998_ _0379_ _0380_ _0381_ VDD VSS NOR2_X1
X_4999_ _0264_ _0372_ _0346_ _0288_ _0382_ VDD VSS OAI211_X2
X_5000_ _0099_ _0059_ _0383_ VDD VSS NOR2_X1
X_5001_ _0383_ _0068_ _0056_ _0384_ VDD VSS OAI21_X2
X_5002_ _0022_ _3059_ _0385_ VDD VSS OR2_X1
X_5003_ _0096_ _0385_ _0060_ _0068_ _0386_ VDD VSS AOI211_X2
X_5004_ _0382_ _0286_ _0384_ _0065_ _0386_ _0387_ VDD VSS
+ AOI221_X2
X_5005_ _0387_ _0381_ _0017_ _0388_ VDD VSS NOR3_X1
X_5006_ _3166_ _3158_ _0346_ _0389_ VDD VSS AOI21_X2
X_5007_ _0389_ _0390_ VDD VSS INV_X1
X_5008_ _0248_ _0346_ _0255_ _0391_ VDD VSS AND3_X1
X_5009_ _0013_ _0390_ _0391_ _0257_ _0392_ VDD VSS AOI211_X2
X_5010_ _0347_ _0388_ _0392_ _0393_ VDD VSS OR3_X1
X_5011_ _0347_ _0388_ _0392_ _0394_ VDD VSS OAI21_X1
X_5012_ _0393_ _0394_ _0395_ VDD VSS AND2_X1
X_5013_ _0395_ _3320_ VDD VSS INV_X1
X_5014_ _0018_ _0363_ _0359_ _0396_ VDD VSS NAND3_X1
X_5015_ _0396_ _0289_ _0018_ _0397_ VDD VSS OAI21_X1
X_5016_ _0274_ _0397_ _3324_ VDD VSS XNOR2_X2
X_5017_ _0014_ _0381_ _0387_ _0398_ VDD VSS NOR3_X1
X_5018_ _0116_ _0114_ _0399_ VDD VSS NOR2_X1
X_5019_ _0399_ _0127_ _0130_ _0400_ VDD VSS OAI21_X2
X_5020_ _0108_ _0248_ _0346_ _0296_ _0401_ VDD VSS AND4_X1
X_5021_ _0276_ _0402_ VDD VSS INV_X1
X_5022_ _3169_ _0400_ _0401_ _0402_ _0346_ _0403_ VDD VSS
+ AOI221_X2
X_5023_ _0398_ _0403_ _0014_ _0404_ VDD VSS AOI21_X2
X_5024_ _0344_ _0404_ _3197_ VDD VSS XNOR2_X2
X_5025_ _3200_ _0405_ VDD VSS INV_X1
X_5026_ _3204_ _0406_ VDD VSS BUF_X2
X_5027_ _3203_ _3207_ _0406_ _0407_ VDD VSS AOI21_X2
X_5028_ _3136_ _3047_ _0236_ _0408_ VDD VSS AOI21_X2
X_5029_ _3211_ _3215_ _3219_ _0409_ VDD VSS NOR3_X1
X_5030_ _0054_ _0236_ _0410_ VDD VSS NAND2_X1
X_5031_ _0408_ _0409_ _0239_ _0410_ _0411_ VDD VSS OAI211_X2
X_5032_ _3212_ _3211_ _0412_ VDD VSS NOR2_X2
X_5033_ _3211_ _3215_ _0413_ VDD VSS NOR2_X2
X_5034_ _3216_ _0414_ VDD VSS BUF_X2
X_5035_ _3220_ _0415_ VDD VSS BUF_X4
X_5036_ _0414_ _0415_ _3219_ _0416_ VDD VSS OAI21_X2
X_5037_ _0412_ _0413_ _0416_ _0417_ VDD VSS AOI21_X2
X_5038_ _0411_ _0417_ _0418_ VDD VSS NAND2_X2
X_5039_ _3208_ _0419_ VDD VSS BUF_X2
X_5040_ _0406_ _0419_ _0420_ VDD VSS NAND2_X1
X_5041_ _0407_ _0418_ _0420_ _0421_ VDD VSS OAI21_X1
X_5042_ _0405_ _0421_ _3412_ VDD VSS XNOR2_X2
X_5043_ _2915_ _0422_ VDD VSS INV_X1
X_5044_ _3047_ _0422_ _0054_ _0423_ VDD VSS AOI21_X2
X_5045_ _0236_ _0414_ _0415_ _0424_ VDD VSS NAND3_X2
X_5046_ _3219_ _3136_ _0415_ _0425_ VDD VSS AOI21_X2
X_5047_ _0414_ _0426_ VDD VSS INV_X1
X_5048_ _0413_ _0423_ _0424_ _0425_ _0426_ _0427_ VDD VSS
+ OAI221_X2
X_5049_ _0419_ _0428_ VDD VSS INV_X1
X_5050_ _0428_ _0412_ _0429_ VDD VSS NOR2_X1
X_5051_ _3207_ _0427_ _0429_ _0430_ VDD VSS AOI21_X2
X_5052_ _0406_ _0430_ _3416_ VDD VSS XNOR2_X2
X_5053_ _0419_ _0418_ _3420_ VDD VSS XNOR2_X2
X_5054_ _3215_ _0431_ VDD VSS INV_X1
X_5055_ _0431_ _0423_ _0424_ _0425_ _0426_ _0432_ VDD VSS
+ OAI221_X2
X_5056_ _3212_ _0432_ _3424_ VDD VSS XOR2_X2
X_5057_ _0408_ _0410_ _0239_ _0433_ VDD VSS OAI21_X1
X_5058_ _3219_ _0433_ _0415_ _0434_ VDD VSS AOI21_X2
X_5059_ _0414_ _0434_ _3428_ VDD VSS XNOR2_X2
X_5060_ _0234_ _0435_ VDD VSS BUF_X8
X_5061_ _3136_ _0436_ VDD VSS INV_X1
X_5062_ _0237_ _0415_ _0436_ _0437_ VDD VSS NAND3_X1
X_5063_ _0415_ _0238_ _0436_ _0438_ VDD VSS AND3_X1
X_5064_ _0240_ _0422_ _0438_ _0439_ VDD VSS OAI21_X2
X_5065_ _0415_ _0408_ _0440_ VDD VSS NOR2_X1
X_5066_ _0422_ _0415_ _0237_ _0441_ VDD VSS OAI21_X1
X_5067_ _0440_ _0441_ _0054_ _0442_ VDD VSS AOI21_X2
X_5068_ _3245_ _0437_ _0439_ _0442_ _0443_ VDD VSS NAND4_X4
X_5069_ _3420_ _3424_ _3428_ _0443_ _0444_ VDD VSS NOR4_X4
X_5070_ _0444_ _0445_ VDD VSS INV_X1
X_5071_ net18 _3416_ _0445_ _0446_ VDD VSS OAI21_X1
X_5072_ _3412_ _0446_ _3221_ VDD VSS XOR2_X2
X_5073_ _0332_ _0447_ VDD VSS INV_X1
X_5074_ _3095_ _2920_ _0196_ _0448_ VDD VSS AOI21_X1
X_5075_ _3092_ _0449_ VDD VSS INV_X1
X_5076_ _0198_ _0448_ _0449_ _0450_ VDD VSS OAI21_X2
X_5077_ _3087_ _0450_ _0203_ _0451_ VDD VSS AOI21_X2
X_5078_ _3084_ _0452_ VDD VSS INV_X1
X_5079_ _0447_ _0451_ _0452_ _0453_ VDD VSS OAI21_X1
X_5080_ _0338_ _0453_ _3226_ VDD VSS XNOR2_X2
X_5081_ _0238_ _2915_ _0240_ _0454_ VDD VSS OAI21_X2
X_5082_ _3136_ _0454_ _0236_ _0455_ VDD VSS AOI21_X2
X_5083_ _0415_ _0455_ _3296_ VDD VSS XNOR2_X2
X_5084_ _3424_ _3428_ _0456_ VDD VSS NOR2_X1
X_5085_ _0456_ _0457_ VDD VSS INV_X1
X_5086_ _3296_ _0458_ VDD VSS INV_X1
X_5087_ _3247_ _0458_ _0459_ VDD VSS NAND2_X1
X_5088_ _3420_ _0457_ _0459_ _0460_ VDD VSS OR3_X1
X_5089_ _0435_ _0460_ _0461_ VDD VSS NAND2_X1
X_5090_ _3416_ _0461_ _3225_ VDD VSS XOR2_X2
X_5091_ _0435_ _0443_ _0457_ _0462_ VDD VSS OAI21_X1
X_5092_ _3420_ _0462_ _3229_ VDD VSS XOR2_X2
X_5093_ _0435_ _3428_ _0459_ _0463_ VDD VSS OAI21_X1
X_5094_ _3424_ _0463_ _3233_ VDD VSS XOR2_X2
X_5095_ _0435_ _0443_ _0464_ VDD VSS NAND2_X1
X_5096_ _3428_ _0464_ _3237_ VDD VSS XOR2_X2
X_5097_ _3247_ _3261_ _0465_ VDD VSS NOR2_X1
X_5098_ _3296_ _0465_ _3241_ VDD VSS XNOR2_X1
X_5099_ _3248_ _3138_ _0235_ _2935_ VDD VSS MUX2_X1
X_5100_ _2935_ _2939_ VDD VSS INV_X1
X_5101_ _3239_ _0466_ VDD VSS INV_X1
X_5102_ _3249_ _0467_ VDD VSS INV_X1
X_5103_ _3250_ _0468_ VDD VSS INV_X1
X_5104_ _0467_ _0468_ _2934_ _0469_ VDD VSS OAI21_X1
X_5105_ _3243_ _0469_ _3244_ _0470_ VDD VSS AOI21_X2
X_5106_ _3240_ _0471_ VDD VSS BUF_X2
X_5107_ _0471_ _0472_ VDD VSS INV_X1
X_5108_ _0466_ _0470_ _0472_ _0473_ VDD VSS OAI21_X1
X_5109_ _3236_ _0474_ VDD VSS CLKBUF_X2
X_5110_ _3235_ _0473_ _0474_ _0475_ VDD VSS AOI21_X2
X_5111_ _3232_ _0475_ _0476_ VDD VSS XOR2_X2
X_5112_ _0476_ _3448_ VDD VSS INV_X1
X_5113_ _3243_ _0477_ VDD VSS INV_X1
X_5114_ _3244_ _0478_ VDD VSS INV_X1
X_5115_ _0477_ _0478_ _2937_ _0479_ VDD VSS OAI21_X2
X_5116_ _3239_ _0479_ _0471_ _0480_ VDD VSS AOI21_X4
X_5117_ _0474_ _0480_ _3452_ VDD VSS XNOR2_X2
X_5118_ _3452_ _3311_ VDD VSS INV_X1
X_5119_ _0471_ _0470_ _3456_ VDD VSS XNOR2_X2
X_5120_ _3456_ _3310_ VDD VSS INV_X1
X_5121_ _3227_ _3231_ _3235_ _0481_ VDD VSS OR3_X1
X_5122_ _0481_ _0473_ _0474_ _0482_ VDD VSS AOI21_X1
X_5123_ _3228_ _3232_ _3231_ _0483_ VDD VSS OAI21_X1
X_5124_ _0483_ _0484_ VDD VSS INV_X1
X_5125_ _3227_ _0484_ _0485_ VDD VSS NOR2_X1
X_5126_ _3224_ _0482_ _0485_ _0486_ VDD VSS OAI21_X1
X_5127_ _3224_ _0482_ _0485_ _0487_ VDD VSS OR3_X1
X_5128_ _0486_ _0487_ _0488_ VDD VSS AND2_X1
X_5129_ _0488_ _3440_ VDD VSS INV_X1
X_5130_ net48 _3289_ VDD VSS INV_X4
X_5131_ net48 _3291_ _0042_ _3292_ VDD VSS MUX2_X1
X_5132_ _3292_ _2941_ VDD VSS INV_X1
X_5133_ _3265_ _3268_ _3271_ _0489_ VDD VSS NOR3_X1
X_5134_ _0489_ _0490_ VDD VSS INV_X1
X_5135_ _3272_ _3275_ _3274_ _0491_ VDD VSS OAI21_X1
X_5136_ _0491_ _0492_ VDD VSS INV_X1
X_5137_ _3274_ _3277_ _0493_ VDD VSS NOR2_X1
X_5138_ _3283_ _0494_ VDD VSS INV_X1
X_5139_ _3287_ _0495_ VDD VSS INV_X1
X_5140_ _3293_ _3294_ _0005_ _0496_ VDD VSS AOI21_X2
X_5141_ _3288_ _0497_ VDD VSS INV_X2
X_5142_ _0495_ _0496_ _0497_ _0498_ VDD VSS OAI21_X4
X_5143_ _3285_ _3286_ _0498_ _0499_ VDD VSS AOI21_X4
X_5144_ _3284_ _0500_ VDD VSS INV_X1
X_5145_ _0494_ _0499_ _0500_ _0501_ VDD VSS OAI21_X4
X_5146_ _3280_ _0501_ _3281_ _0502_ VDD VSS AOI21_X4
X_5147_ _3278_ _0503_ VDD VSS INV_X1
X_5148_ _0493_ _0502_ _0503_ _0504_ VDD VSS OAI21_X4
X_5149_ _0490_ _0504_ _0492_ _0505_ VDD VSS AOI21_X4
X_5150_ _3269_ _3265_ _3268_ _0506_ VDD VSS OR3_X1
X_5151_ _0506_ _3265_ _3266_ _0507_ VDD VSS OAI21_X1
X_5152_ _3263_ _0508_ VDD VSS BUF_X1
X_5153_ _3259_ _0509_ VDD VSS BUF_X1
X_5154_ _3253_ _0508_ _3256_ _0509_ _0510_ VDD VSS NAND4_X1
X_5155_ _0510_ _0507_ _0505_ _0511_ VDD VSS OR3_X4
X_5156_ _3255_ _0512_ VDD VSS INV_X1
X_5157_ _3258_ _3262_ _0509_ _0513_ VDD VSS AOI21_X1
X_5158_ _3256_ _0514_ VDD VSS INV_X1
X_5159_ _0512_ _0513_ _0514_ _0515_ VDD VSS OAI21_X2
X_5160_ _3252_ _0515_ _3253_ _0516_ VDD VSS AOI21_X4
X_5161_ _0511_ _0516_ _0517_ VDD VSS NAND2_X4
X_5162_ _0517_ _0518_ VDD VSS INV_X1
X_5163_ _0518_ _0519_ VDD VSS BUF_X4
X_5164_ _0519_ _3483_ VDD VSS BUF_X4
X_5165_ _3140_ _0520_ VDD VSS INV_X1
X_5166_ _3143_ _2932_ _3144_ _0521_ VDD VSS AOI21_X1
X_5167_ _0242_ _0522_ VDD VSS INV_X1
X_5168_ _0520_ _0521_ _0522_ _0523_ VDD VSS OAI21_X2
X_5169_ _3298_ _0523_ _3463_ VDD VSS XNOR2_X2
X_5170_ _3304_ _0524_ VDD VSS INV_X1
X_5171_ _3308_ _3309_ _2947_ _0525_ VDD VSS AOI21_X1
X_5172_ _3305_ _0526_ VDD VSS INV_X1
X_5173_ _0524_ _0525_ _0526_ _0527_ VDD VSS OAI21_X2
X_5174_ _3302_ _0527_ _3660_ VDD VSS XNOR2_X2
X_5175_ _0342_ _0373_ _0351_ _0528_ VDD VSS OR3_X1
X_5176_ _0366_ _0345_ _0529_ VDD VSS NAND2_X1
X_5177_ _0349_ _0350_ _0530_ VDD VSS AND2_X1
X_5178_ _0342_ _0349_ _0350_ _0351_ _0531_ VDD VSS NAND4_X1
X_5179_ _0528_ _0529_ _0530_ _0285_ _0531_ _0532_ VDD VSS
+ OAI221_X2
X_5180_ _0342_ _0373_ _0533_ VDD VSS NAND2_X1
X_5181_ _0533_ _0529_ _0375_ _0534_ VDD VSS OAI21_X2
X_5182_ _0532_ _0534_ _0535_ VDD VSS OR2_X1
X_5183_ _0279_ _0276_ _0536_ VDD VSS NAND2_X1
X_5184_ _3193_ _3169_ _3191_ _0537_ VDD VSS AOI21_X2
X_5185_ _0366_ _0537_ _0538_ VDD VSS NAND2_X1
X_5186_ _0536_ _0538_ _0118_ _0120_ _0539_ VDD VSS AOI211_X2
X_5187_ _0366_ _0537_ _0540_ VDD VSS OR2_X1
X_5188_ _0342_ _0356_ _0541_ VDD VSS OR2_X1
X_5189_ _0537_ _0542_ VDD VSS INV_X1
X_5190_ _0540_ _0541_ _0542_ _0538_ _0278_ _0543_ VDD VSS