
* cell configurable_kogge_stone_adder
* pin sum[10]
* pin sum[11]
* pin b[11]
* pin a[11]
* pin a[15]
* pin b[15]
* pin a[13]
* pin b[13]
* pin b[14]
* pin a[14]
* pin sum[14]
* pin sum[15]
* pin sum[16]
* pin b[16]
* pin a[16]
* pin sum[17]
* pin b[17]
* pin a[17]
* pin sum[18]
* pin b[18]
* pin a[18]
* pin b[19]
* pin a[19]
* pin a[10]
* pin b[10]
* pin a[9]
* pin a[20]
* pin b[20]
* pin sum[19]
* pin b[9]
* pin b[8]
* pin sum[20]
* pin a[8]
* pin sum[22]
* pin b[21]
* pin a[21]
* pin sum[9]
* pin sum[8]
* pin sum[21]
* pin a[22]
* pin b[22]
* pin a[12]
* pin b[12]
* pin sum[12]
* pin sum[7]
* pin b[7]
* pin a[7]
* pin b[23]
* pin a[23]
* pin sum[23]
* pin b[6]
* pin a[5]
* pin sum[5]
* pin sum[6]
* pin b[5]
* pin a[6]
* pin b[4]
* pin a[4]
* pin b[3]
* pin a[3]
* pin sum[13]
* pin sum[25]
* pin sum[24]
* pin sum[4]
* pin a[24]
* pin b[24]
* pin sum[3]
* pin sum[30]
* pin b[25]
* pin a[25]
* pin b[2]
* pin a[2]
* pin a[30]
* pin sum[29]
* pin b[1]
* pin a[1]
* pin b[30]
* pin b[29]
* pin b[28]
* pin b[26]
* pin sum[2]
* pin sum[26]
* pin sum[28]
* pin sum[1]
* pin b[0]
* pin b[31]
* pin a[0]
* pin a[27]
* pin cout
* pin sum[0]
* pin cin
* pin a[31]
* pin sum[31]
* pin a[29]
* pin a[28]
* pin b[27]
* pin a[26]
* pin sum[27]
* pin VDD
* pin VSS,gf180mcu_gnd
.SUBCKT configurable_kogge_stone_adder 1 2 3 4 5 6 7 8 9 10 11 12 13 14 15 16
+ 17 18 19 20 21 22 23 24 65 77 86 87 129 134 146 153 167 173 199 230 232 244
+ 248 249 250 256 268 269 276 286 287 296 297 298 311 323 324 325 326 327 335
+ 336 337 338 355 363 374 377 391 392 395 412 421 429 437 449 452 458 474 475
+ 479 480 495 497 498 499 501 502 504 505 508 511 512 515 516 517 518 519 520
+ 521 522 523 524 525
* net 1 sum[10]
* net 2 sum[11]
* net 3 b[11]
* net 4 a[11]
* net 5 a[15]
* net 6 b[15]
* net 7 a[13]
* net 8 b[13]
* net 9 b[14]
* net 10 a[14]
* net 11 sum[14]
* net 12 sum[15]
* net 13 sum[16]
* net 14 b[16]
* net 15 a[16]
* net 16 sum[17]
* net 17 b[17]
* net 18 a[17]
* net 19 sum[18]
* net 20 b[18]
* net 21 a[18]
* net 22 b[19]
* net 23 a[19]
* net 24 a[10]
* net 65 b[10]
* net 77 a[9]
* net 86 a[20]
* net 87 b[20]
* net 129 sum[19]
* net 134 b[9]
* net 146 b[8]
* net 153 sum[20]
* net 167 a[8]
* net 173 sum[22]
* net 199 b[21]
* net 230 a[21]
* net 232 sum[9]
* net 244 sum[8]
* net 248 sum[21]
* net 249 a[22]
* net 250 b[22]
* net 256 a[12]
* net 268 b[12]
* net 269 sum[12]
* net 276 sum[7]
* net 286 b[7]
* net 287 a[7]
* net 296 b[23]
* net 297 a[23]
* net 298 sum[23]
* net 311 b[6]
* net 323 a[5]
* net 324 sum[5]
* net 325 sum[6]
* net 326 b[5]
* net 327 a[6]
* net 335 b[4]
* net 336 a[4]
* net 337 b[3]
* net 338 a[3]
* net 355 sum[13]
* net 363 sum[25]
* net 374 sum[24]
* net 377 sum[4]
* net 391 a[24]
* net 392 b[24]
* net 395 sum[3]
* net 412 sum[30]
* net 421 b[25]
* net 429 a[25]
* net 437 b[2]
* net 449 a[2]
* net 452 a[30]
* net 458 sum[29]
* net 474 b[1]
* net 475 a[1]
* net 479 b[30]
* net 480 b[29]
* net 495 b[28]
* net 497 b[26]
* net 498 sum[2]
* net 499 sum[26]
* net 501 sum[28]
* net 502 sum[1]
* net 504 b[0]
* net 505 b[31]
* net 508 a[0]
* net 511 a[27]
* net 512 cout
* net 515 sum[0]
* net 516 cin
* net 517 a[31]
* net 518 sum[31]
* net 519 a[29]
* net 520 a[28]
* net 521 b[27]
* net 522 a[26]
* net 523 sum[27]
* net 524 VDD
* net 525 VSS,gf180mcu_gnd
* cell instance $3 m0 *1 30.24,15.12
X$3 44 524 525 1 gf180mcu_fd_sc_mcu9t5v0__dlyb_2
* cell instance $7 m0 *1 43.12,15.12
X$7 46 524 525 2 gf180mcu_fd_sc_mcu9t5v0__dlyb_2
* cell instance $10 r0 *1 50.4,5.04
X$10 3 524 525 54 gf180mcu_fd_sc_mcu9t5v0__dlyb_2
* cell instance $14 m0 *1 51.52,15.12
X$14 4 524 525 55 gf180mcu_fd_sc_mcu9t5v0__dlyb_2
* cell instance $18 r0 *1 66.64,5.04
X$18 5 524 525 26 gf180mcu_fd_sc_mcu9t5v0__dlyb_2
* cell instance $22 m0 *1 63.84,15.12
X$22 6 524 525 56 gf180mcu_fd_sc_mcu9t5v0__dlyb_2
* cell instance $27 r0 *1 84.56,35.28
X$27 7 524 525 120 gf180mcu_fd_sc_mcu9t5v0__dlyb_2
* cell instance $31 r0 *1 83.44,5.04
X$31 8 524 525 29 gf180mcu_fd_sc_mcu9t5v0__dlyb_2
* cell instance $35 m0 *1 84.56,25.2
X$35 9 524 525 117 gf180mcu_fd_sc_mcu9t5v0__dlyb_2
* cell instance $39 r0 *1 85.12,25.2
X$39 10 524 525 99 gf180mcu_fd_sc_mcu9t5v0__dlyb_2
* cell instance $42 r0 *1 80.08,15.12
X$42 60 524 525 11 gf180mcu_fd_sc_mcu9t5v0__dlyb_2
* cell instance $47 r0 *1 75.04,5.04
X$47 28 524 525 12 gf180mcu_fd_sc_mcu9t5v0__dlyb_2
* cell instance $51 m0 *1 86.24,15.12
X$51 38 524 525 13 gf180mcu_fd_sc_mcu9t5v0__dlyb_2
* cell instance $54 m0 *1 96.32,15.12
X$54 14 524 525 31 gf180mcu_fd_sc_mcu9t5v0__dlyb_2
* cell instance $58 r0 *1 101.92,5.04
X$58 15 524 525 39 gf180mcu_fd_sc_mcu9t5v0__dlyb_2
* cell instance $62 r0 *1 109.2,15.12
X$62 50 524 525 16 gf180mcu_fd_sc_mcu9t5v0__dlyb_2
* cell instance $67 r0 *1 123.2,5.04
X$67 17 524 525 40 gf180mcu_fd_sc_mcu9t5v0__dlyb_2
* cell instance $70 r0 *1 127.12,15.12
X$70 18 524 525 51 gf180mcu_fd_sc_mcu9t5v0__dlyb_2
* cell instance $74 r0 *1 131.6,5.04
X$74 32 524 525 19 gf180mcu_fd_sc_mcu9t5v0__dlyb_2
* cell instance $78 r0 *1 140,5.04
X$78 20 524 525 33 gf180mcu_fd_sc_mcu9t5v0__dlyb_2
* cell instance $82 m0 *1 143.92,15.12
X$82 21 524 525 34 gf180mcu_fd_sc_mcu9t5v0__dlyb_2
* cell instance $87 r0 *1 150.64,5.04
X$87 22 524 525 37 gf180mcu_fd_sc_mcu9t5v0__dlyb_2
* cell instance $91 r0 *1 160.16,5.04
X$91 23 524 525 36 gf180mcu_fd_sc_mcu9t5v0__dlyb_2
* cell instance $94 r0 *1 5.04,5.04
X$94 24 524 525 25 gf180mcu_fd_sc_mcu9t5v0__dlyb_2
* cell instance $97 m0 *1 8.4,15.12
X$97 42 525 524 25 64 41 gf180mcu_fd_sc_mcu9t5v0__addh_1
* cell instance $100 r0 *1 65.52,15.12
X$100 59 525 524 26 56 49 gf180mcu_fd_sc_mcu9t5v0__addh_1
* cell instance $103 m0 *1 71.68,25.2
X$103 525 59 524 27 70 49 gf180mcu_fd_sc_mcu9t5v0__aoi21_2
* cell instance $105 m0 *1 76.72,15.12
X$105 524 30 27 525 38 gf180mcu_fd_sc_mcu9t5v0__xnor2_2
* cell instance $107 r0 *1 73.36,25.2
X$107 49 525 70 524 28 gf180mcu_fd_sc_mcu9t5v0__xor2_2
* cell instance $110 r0 *1 84.56,45.36
X$110 144 525 524 120 29 159 gf180mcu_fd_sc_mcu9t5v0__addh_1
* cell instance $113 m0 *1 92.4,55.44
X$113 525 49 76 30 203 93 524 gf180mcu_fd_sc_mcu9t5v0__and4_4
* cell instance $115 m0 *1 98.56,45.36
X$115 525 524 30 121 49 gf180mcu_fd_sc_mcu9t5v0__nand2_2
* cell instance $117 r0 *1 107.52,25.2
X$117 525 71 524 75 59 30 gf180mcu_fd_sc_mcu9t5v0__aoi21_2
* cell instance $119 r0 *1 102.48,25.2
X$119 525 524 30 81 59 gf180mcu_fd_sc_mcu9t5v0__nand2_2
* cell instance $122 r0 *1 80.08,55.44
X$122 525 93 30 49 162 159 524 gf180mcu_fd_sc_mcu9t5v0__and4_4
* cell instance $125 m0 *1 104.72,15.12
X$125 71 525 524 39 31 30 gf180mcu_fd_sc_mcu9t5v0__addh_1
* cell instance $138 m0 *1 123.76,25.2
X$138 53 525 61 524 32 gf180mcu_fd_sc_mcu9t5v0__xor2_2
* cell instance $142 r0 *1 144.48,15.12
X$142 63 525 524 34 33 53 gf180mcu_fd_sc_mcu9t5v0__addh_1
* cell instance $146 r0 *1 148.4,25.2
X$146 525 524 35 83 gf180mcu_fd_sc_mcu9t5v0__clkinv_2
* cell instance $148 m0 *1 147.84,25.2
X$148 525 35 524 127 63 52 gf180mcu_fd_sc_mcu9t5v0__aoi21_2
* cell instance $150 m0 *1 154,35.28
X$150 525 115 524 113 35 96 gf180mcu_fd_sc_mcu9t5v0__aoi21_2
* cell instance $153 m0 *1 152.88,15.12
X$153 35 525 524 36 37 52 gf180mcu_fd_sc_mcu9t5v0__addh_1
* cell instance $170 m0 *1 126,15.12
X$170 62 525 524 51 40 76 gf180mcu_fd_sc_mcu9t5v0__addh_1
* cell instance $173 m0 *1 20.16,35.28
X$173 525 524 41 105 gf180mcu_fd_sc_mcu9t5v0__clkinv_2
* cell instance $175 r0 *1 22.96,15.12
X$175 524 41 43 525 44 gf180mcu_fd_sc_mcu9t5v0__xnor2_2
* cell instance $177 m0 *1 20.72,65.52
X$177 525 215 168 160 41 103 524 gf180mcu_fd_sc_mcu9t5v0__oai211_4
* cell instance $181 m0 *1 31.92,25.2
X$181 525 42 524 69 67 41 gf180mcu_fd_sc_mcu9t5v0__aoi21_2
* cell instance $184 m0 *1 35.28,45.36
X$184 525 42 47 41 524 133 gf180mcu_fd_sc_mcu9t5v0__or3_4
* cell instance $186 m0 *1 31.36,75.6
X$186 525 160 41 103 221 179 524 gf180mcu_fd_sc_mcu9t5v0__and4_4
* cell instance $188 r0 *1 9.52,15.12
X$188 525 104 41 90 42 524 gf180mcu_fd_sc_mcu9t5v0__aoi21_4
* cell instance $194 r0 *1 30.8,45.36
X$194 525 147 106 154 42 156 155 524 gf180mcu_fd_sc_mcu9t5v0__oai221_4
* cell instance $199 m0 *1 33.6,35.28
X$199 525 524 102 47 42 gf180mcu_fd_sc_mcu9t5v0__nor2_2
* cell instance $202 r0 *1 33.6,25.2
X$202 88 524 525 42 47 67 gf180mcu_fd_sc_mcu9t5v0__nor3_2
* cell instance $207 r0 *1 34.16,15.12
X$207 525 524 45 57 43 gf180mcu_fd_sc_mcu9t5v0__nor2_2
* cell instance $209 m0 *1 26.32,25.2
X$209 525 524 43 67 80 gf180mcu_fd_sc_mcu9t5v0__nor2_2
* cell instance $218 m0 *1 39.2,25.2
X$218 525 524 58 68 45 gf180mcu_fd_sc_mcu9t5v0__nor2_2
* cell instance $221 r0 *1 39.76,15.12
X$221 524 48 58 525 46 gf180mcu_fd_sc_mcu9t5v0__xnor2_2
* cell instance $223 m0 *1 57.68,35.28
X$223 525 524 47 91 107 gf180mcu_fd_sc_mcu9t5v0__nor2_4
* cell instance $225 m0 *1 48.72,35.28
X$225 525 47 524 116 101 48 gf180mcu_fd_sc_mcu9t5v0__aoi21_2
* cell instance $228 m0 *1 58.24,45.36
X$228 143 524 525 91 48 47 gf180mcu_fd_sc_mcu9t5v0__nor3_2
* cell instance $230 r0 *1 52.64,15.12
X$230 47 525 524 55 54 48 gf180mcu_fd_sc_mcu9t5v0__addh_1
* cell instance $234 r0 *1 57.12,45.36
X$234 525 48 47 524 148 gf180mcu_fd_sc_mcu9t5v0__or2_2
* cell instance $246 m0 *1 54.32,55.44
X$246 525 524 48 118 gf180mcu_fd_sc_mcu9t5v0__inv_2
* cell instance $248 r0 *1 53.2,25.2
X$248 525 524 48 72 68 gf180mcu_fd_sc_mcu9t5v0__nand2_2
* cell instance $251 r0 *1 49.84,55.44
X$251 524 149 48 525 169 gf180mcu_fd_sc_mcu9t5v0__and2_2
* cell instance $275 m0 *1 103.04,25.2
X$275 76 525 170 524 50 gf180mcu_fd_sc_mcu9t5v0__xor2_2
* cell instance $280 m0 *1 143.36,45.36
X$280 524 96 52 525 142 gf180mcu_fd_sc_mcu9t5v0__and2_2
* cell instance $283 m0 *1 157.36,25.2
X$283 525 524 52 74 gf180mcu_fd_sc_mcu9t5v0__clkinv_2
* cell instance $286 m0 *1 148.4,45.36
X$286 524 52 141 525 140 gf180mcu_fd_sc_mcu9t5v0__xnor2_2
* cell instance $289 m0 *1 142.24,35.28
X$289 525 524 96 97 52 gf180mcu_fd_sc_mcu9t5v0__nand2_2
* cell instance $294 m0 *1 138.32,45.36
X$294 524 52 53 525 145 gf180mcu_fd_sc_mcu9t5v0__and2_2
* cell instance $302 r0 *1 115.92,45.36
X$302 53 524 76 158 525 135 gf180mcu_fd_sc_mcu9t5v0__and3_2
* cell instance $307 m0 *1 120.4,45.36
X$307 53 76 136 122 525 524 137 gf180mcu_fd_sc_mcu9t5v0__and4_2
* cell instance $310 m0 *1 134.4,35.28
X$310 525 524 53 82 76 gf180mcu_fd_sc_mcu9t5v0__nand2_2
* cell instance $312 m0 *1 134.96,25.2
X$312 525 63 524 73 62 53 gf180mcu_fd_sc_mcu9t5v0__aoi21_2
* cell instance $329 m0 *1 40.32,35.28
X$329 525 101 106 524 69 57 gf180mcu_fd_sc_mcu9t5v0__nand3_2
* cell instance $332 m0 *1 46.48,75.6
X$332 525 524 220 57 221 gf180mcu_fd_sc_mcu9t5v0__nand2_2
* cell instance $349 r0 *1 75.04,35.28
X$349 524 93 109 525 60 gf180mcu_fd_sc_mcu9t5v0__xnor2_2
* cell instance $351 m0 *1 126,65.52
X$351 525 524 196 61 189 gf180mcu_fd_sc_mcu9t5v0__nand2_2
* cell instance $355 r0 *1 122.08,45.36
X$355 135 61 137 141 123 524 525 gf180mcu_fd_sc_mcu9t5v0__aoi211_2
* cell instance $359 m0 *1 110.88,35.28
X$359 94 76 89 186 62 524 525 gf180mcu_fd_sc_mcu9t5v0__aoi211_2
* cell instance $372 m0 *1 5.04,25.2
X$372 65 524 525 64 gf180mcu_fd_sc_mcu9t5v0__dlyb_2
* cell instance $376 m0 *1 16.8,35.28
X$376 525 524 103 66 gf180mcu_fd_sc_mcu9t5v0__clkinv_2
* cell instance $378 r0 *1 18.48,35.28
X$378 524 104 525 131 66 105 79 gf180mcu_fd_sc_mcu9t5v0__oai31_2
* cell instance $381 r0 *1 29.68,35.28
X$381 525 105 524 154 78 66 gf180mcu_fd_sc_mcu9t5v0__aoi21_2
* cell instance $384 r0 *1 21.84,25.2
X$384 524 78 525 79 67 66 gf180mcu_fd_sc_mcu9t5v0__oai21_2
* cell instance $386 m0 *1 23.52,35.28
X$386 524 79 100 66 102 78 525 gf180mcu_fd_sc_mcu9t5v0__oai211_2
* cell instance $398 r0 *1 42,25.2
X$398 525 524 106 68 69 gf180mcu_fd_sc_mcu9t5v0__nand2_2
* cell instance $411 m0 *1 73.36,35.28
X$411 524 108 525 109 70 92 gf180mcu_fd_sc_mcu9t5v0__oai21_2
* cell instance $416 r0 *1 113.12,35.28
X$416 525 524 71 111 gf180mcu_fd_sc_mcu9t5v0__clkinv_2
* cell instance $418 r0 *1 114.8,25.2
X$418 524 76 71 525 89 gf180mcu_fd_sc_mcu9t5v0__and2_2
* cell instance $421 m0 *1 103.6,35.28
X$421 525 524 183 71 94 gf180mcu_fd_sc_mcu9t5v0__nor2_2
* cell instance $430 r0 *1 116.48,35.28
X$430 525 122 107 524 112 72 gf180mcu_fd_sc_mcu9t5v0__nand3_2
* cell instance $434 r0 *1 136.64,25.2
X$434 524 73 525 75 123 82 gf180mcu_fd_sc_mcu9t5v0__oai21_2
* cell instance $437 r0 *1 151.76,25.2
X$437 524 83 525 73 114 74 gf180mcu_fd_sc_mcu9t5v0__oai21_2
* cell instance $464 r0 *1 4.48,25.2
X$464 77 524 525 98 gf180mcu_fd_sc_mcu9t5v0__dlyb_2
* cell instance $467 r0 *1 16.8,25.2
X$467 525 524 90 78 gf180mcu_fd_sc_mcu9t5v0__clkinv_2
* cell instance $478 m0 *1 17.36,55.44
X$478 525 79 160 191 168 524 gf180mcu_fd_sc_mcu9t5v0__aoi21_4
* cell instance $483 r0 *1 31.36,55.44
X$483 525 524 80 176 192 gf180mcu_fd_sc_mcu9t5v0__nor2_2
* cell instance $487 r0 *1 103.6,35.28
X$487 524 121 132 112 81 111 525 gf180mcu_fd_sc_mcu9t5v0__oai211_2
* cell instance $490 m0 *1 105.28,45.36
X$490 524 81 525 121 94 112 gf180mcu_fd_sc_mcu9t5v0__oai21_2
* cell instance $494 r0 *1 141.68,35.28
X$494 525 524 126 82 97 gf180mcu_fd_sc_mcu9t5v0__nor2_2
* cell instance $498 r0 *1 132.16,35.28
X$498 143 112 97 125 82 524 525 gf180mcu_fd_sc_mcu9t5v0__aoi211_2
* cell instance $503 m0 *1 167.44,35.28
X$503 115 525 524 85 84 96 gf180mcu_fd_sc_mcu9t5v0__addh_1
* cell instance $505 r0 *1 162.4,25.2
X$505 87 524 525 84 gf180mcu_fd_sc_mcu9t5v0__dlyb_2
* cell instance $508 r0 *1 170.8,25.2
X$508 86 524 525 85 gf180mcu_fd_sc_mcu9t5v0__dlyb_2
* cell instance $514 r0 *1 67.76,75.6
X$514 525 222 524 266 237 88 gf180mcu_fd_sc_mcu9t5v0__aoi21_2
* cell instance $517 m0 *1 58.8,85.68
X$517 525 255 234 235 88 237 524 gf180mcu_fd_sc_mcu9t5v0__oai211_4
* cell instance $519 r0 *1 68.32,85.68
X$519 88 524 237 236 525 259 gf180mcu_fd_sc_mcu9t5v0__and3_2
* cell instance $529 m0 *1 6.72,35.28
X$529 90 525 524 98 130 103 gf180mcu_fd_sc_mcu9t5v0__addh_1
* cell instance $536 m0 *1 80.08,55.44
X$536 524 91 157 149 93 159 525 gf180mcu_fd_sc_mcu9t5v0__oai211_2
* cell instance $538 r0 *1 70.56,55.44
X$538 525 177 524 100 175 162 91 gf180mcu_fd_sc_mcu9t5v0__aoi22_2
* cell instance $541 m0 *1 33.04,85.68
X$541 91 525 524 252 264 149 gf180mcu_fd_sc_mcu9t5v0__addh_1
* cell instance $544 r0 *1 81.2,65.52
X$544 525 149 91 524 202 gf180mcu_fd_sc_mcu9t5v0__or2_2
* cell instance $546 r0 *1 74.48,95.76
X$546 525 91 266 524 293 gf180mcu_fd_sc_mcu9t5v0__or2_2
* cell instance $550 r0 *1 80.08,95.76
X$550 525 524 260 91 266 gf180mcu_fd_sc_mcu9t5v0__nor2_2
* cell instance $553 m0 *1 81.76,95.76
X$553 525 144 91 524 271 gf180mcu_fd_sc_mcu9t5v0__or2_2
* cell instance $561 m0 *1 81.2,35.28
X$561 525 524 93 92 gf180mcu_fd_sc_mcu9t5v0__clkinv_2
* cell instance $564 m0 *1 79.52,45.36
X$564 525 112 93 144 110 524 gf180mcu_fd_sc_mcu9t5v0__aoi21_4
* cell instance $571 m0 *1 87.92,35.28
X$571 110 525 524 99 117 93 gf180mcu_fd_sc_mcu9t5v0__addh_1
* cell instance $584 r0 *1 123.76,35.28
X$584 124 524 525 95 131 123 gf180mcu_fd_sc_mcu9t5v0__nor3_2
* cell instance $586 m0 *1 123.76,35.28
X$586 525 95 113 524 107 112 gf180mcu_fd_sc_mcu9t5v0__nand3_2
* cell instance $588 r0 *1 134.96,95.76
X$588 281 213 198 96 525 524 299 gf180mcu_fd_sc_mcu9t5v0__and4_2
* cell instance $591 r0 *1 148.4,35.28
X$591 525 96 524 114 115 132 128 126 gf180mcu_fd_sc_mcu9t5v0__aoi221_2
* cell instance $593 m0 *1 157.36,55.44
X$593 525 524 96 151 gf180mcu_fd_sc_mcu9t5v0__clkinv_2
* cell instance $599 m0 *1 134.4,95.76
X$599 525 228 198 524 96 145 gf180mcu_fd_sc_mcu9t5v0__nand3_2
* cell instance $629 m0 *1 6.72,65.52
X$629 524 103 178 525 219 gf180mcu_fd_sc_mcu9t5v0__xnor2_2
* cell instance $633 r0 *1 31.92,65.52
X$633 103 524 160 179 525 181 gf180mcu_fd_sc_mcu9t5v0__and3_2
* cell instance $643 r0 *1 51.52,35.28
X$643 525 107 119 104 118 524 gf180mcu_fd_sc_mcu9t5v0__oai21_4
* cell instance $653 m0 *1 133.28,55.44
X$653 524 124 106 166 525 gf180mcu_fd_sc_mcu9t5v0__and2_4
* cell instance $655 m0 *1 126,55.44
X$655 525 150 524 206 124 106 gf180mcu_fd_sc_mcu9t5v0__aoi21_2
* cell instance $674 r0 *1 71.68,35.28
X$674 525 524 110 108 gf180mcu_fd_sc_mcu9t5v0__clkinv_2
* cell instance $678 r0 *1 84,85.68
X$678 267 272 144 109 261 524 525 gf180mcu_fd_sc_mcu9t5v0__aoi211_2
* cell instance $699 r0 *1 104.16,45.36
X$699 525 121 524 136 157 112 gf180mcu_fd_sc_mcu9t5v0__aoi21_2
* cell instance $710 r0 *1 138.88,55.44
X$710 525 524 113 172 gf180mcu_fd_sc_mcu9t5v0__clkinv_2
* cell instance $713 r0 *1 132.16,65.52
X$713 524 197 113 525 218 gf180mcu_fd_sc_mcu9t5v0__and2_2
* cell instance $725 m0 *1 159.04,45.36
X$725 525 524 115 138 gf180mcu_fd_sc_mcu9t5v0__clkinv_2
* cell instance $731 m0 *1 72.8,95.76
X$731 525 524 279 259 116 gf180mcu_fd_sc_mcu9t5v0__nor2_2
* cell instance $736 r0 *1 75.04,85.68
X$736 524 260 525 116 267 259 gf180mcu_fd_sc_mcu9t5v0__oai21_2
* cell instance $746 r0 *1 39.76,65.52
X$746 525 200 233 193 215 118 524 gf180mcu_fd_sc_mcu9t5v0__aoi211_4
* cell instance $750 r0 *1 55.44,85.68
X$750 342 270 119 224 242 524 525 gf180mcu_fd_sc_mcu9t5v0__aoi211_2
* cell instance $753 m0 *1 87.36,75.6
X$753 524 217 525 200 223 119 gf180mcu_fd_sc_mcu9t5v0__oai21_2
* cell instance $755 r0 *1 87.36,75.6
X$755 525 524 239 119 200 gf180mcu_fd_sc_mcu9t5v0__nor2_2
* cell instance $774 r0 *1 134.96,45.36
X$774 525 136 524 125 172 142 150 123 gf180mcu_fd_sc_mcu9t5v0__aoi221_2
* cell instance $779 r0 *1 123.2,55.44
X$779 525 524 123 171 gf180mcu_fd_sc_mcu9t5v0__clkinv_2
* cell instance $790 r0 *1 117.04,105.84
X$790 126 162 314 315 525 524 321 gf180mcu_fd_sc_mcu9t5v0__and4_2
* cell instance $793 m0 *1 117.6,95.76
X$793 524 158 126 246 525 gf180mcu_fd_sc_mcu9t5v0__and2_4
* cell instance $801 r0 *1 109.2,75.6
X$801 243 226 127 525 524 241 gf180mcu_fd_sc_mcu9t5v0__and3_4
* cell instance $803 r0 *1 160.16,45.36
X$803 524 138 525 127 139 151 gf180mcu_fd_sc_mcu9t5v0__oai21_2
* cell instance $806 m0 *1 118.72,65.52
X$806 525 205 171 524 127 186 gf180mcu_fd_sc_mcu9t5v0__nand3_2
* cell instance $813 m0 *1 150.64,126
X$813 524 525 361 128 197 362 423 317 gf180mcu_fd_sc_mcu9t5v0__oai221_2
* cell instance $816 m0 *1 170.24,45.36
X$816 140 524 525 129 gf180mcu_fd_sc_mcu9t5v0__dlyb_2
* cell instance $820 m0 *1 3.36,45.36
X$820 134 524 525 130 gf180mcu_fd_sc_mcu9t5v0__dlyb_2
* cell instance $830 m0 *1 63.84,55.44
X$830 149 524 133 148 525 161 gf180mcu_fd_sc_mcu9t5v0__and3_2
* cell instance $832 r0 *1 63.28,55.44
X$832 149 162 133 148 525 524 177 gf180mcu_fd_sc_mcu9t5v0__and4_2
* cell instance $836 r0 *1 55.44,55.44
X$836 525 222 149 524 133 148 gf180mcu_fd_sc_mcu9t5v0__nand3_2
* cell instance $855 r0 *1 159.04,65.52
X$855 525 211 524 212 139 198 gf180mcu_fd_sc_mcu9t5v0__aoi21_2
* cell instance $881 r0 *1 105.84,75.6
X$881 525 524 145 225 gf180mcu_fd_sc_mcu9t5v0__clkinv_2
* cell instance $883 r0 *1 95.76,75.6
X$883 525 524 145 245 217 gf180mcu_fd_sc_mcu9t5v0__nand2_2
* cell instance $885 m0 *1 110.32,95.76
X$885 525 524 145 275 280 gf180mcu_fd_sc_mcu9t5v0__nand2_2
* cell instance $887 r0 *1 118.16,95.76
X$887 299 280 145 525 524 300 gf180mcu_fd_sc_mcu9t5v0__and3_4
* cell instance $900 r0 *1 4.48,45.36
X$900 146 524 525 165 gf180mcu_fd_sc_mcu9t5v0__dlyb_2
* cell instance $904 m0 *1 36.96,55.44
X$904 524 160 179 525 147 gf180mcu_fd_sc_mcu9t5v0__and2_2
* cell instance $914 m0 *1 56.56,95.76
X$914 149 525 279 524 284 gf180mcu_fd_sc_mcu9t5v0__xor2_2
* cell instance $932 m0 *1 142.8,55.44
X$932 525 150 166 524 163 gf180mcu_fd_sc_mcu9t5v0__or2_4
* cell instance $936 m0 *1 160.72,55.44
X$936 525 152 209 151 524 gf180mcu_fd_sc_mcu9t5v0__xnor2_4
* cell instance $942 r0 *1 168,45.36
X$942 152 524 525 153 gf180mcu_fd_sc_mcu9t5v0__dlyb_2
* cell instance $948 r0 *1 45.92,85.68
X$948 285 220 155 192 156 524 525 gf180mcu_fd_sc_mcu9t5v0__aoi211_2
* cell instance $950 r0 *1 50.4,126
X$950 525 155 379 370 382 312 524 gf180mcu_fd_sc_mcu9t5v0__aoi211_4
* cell instance $953 m0 *1 63.28,65.52
X$953 524 156 184 155 161 182 525 gf180mcu_fd_sc_mcu9t5v0__oai211_2
* cell instance $956 m0 *1 60.48,75.6
X$956 524 181 525 156 237 155 gf180mcu_fd_sc_mcu9t5v0__oai21_2
* cell instance $967 r0 *1 61.04,105.84
X$967 525 320 156 343 312 524 gf180mcu_fd_sc_mcu9t5v0__oai21_4
* cell instance $981 m0 *1 100.24,105.84
X$981 524 294 162 158 525 gf180mcu_fd_sc_mcu9t5v0__and2_4
* cell instance $986 m0 *1 87.92,95.76
X$986 525 271 158 194 261 255 524 gf180mcu_fd_sc_mcu9t5v0__oai31_4
* cell instance $991 r0 *1 86.8,95.76
X$991 524 294 159 272 525 gf180mcu_fd_sc_mcu9t5v0__and2_4
* cell instance $993 r0 *1 82.32,75.6
X$993 525 524 159 238 202 gf180mcu_fd_sc_mcu9t5v0__nand2_2
* cell instance $996 m0 *1 94.08,105.84
X$996 159 524 203 294 525 185 gf180mcu_fd_sc_mcu9t5v0__and3_2
* cell instance $1000 r0 *1 86.8,65.52
X$1000 159 524 202 203 525 217 gf180mcu_fd_sc_mcu9t5v0__and3_2
* cell instance $1002 r0 *1 81.76,105.84
X$1002 524 159 322 525 334 gf180mcu_fd_sc_mcu9t5v0__xnor2_2
* cell instance $1013 r0 *1 7.28,65.52
X$1013 525 168 524 178 190 160 gf180mcu_fd_sc_mcu9t5v0__aoi21_2
* cell instance $1016 m0 *1 4.48,75.6
X$1016 160 525 190 524 231 gf180mcu_fd_sc_mcu9t5v0__xor2_2
* cell instance $1022 m0 *1 7.84,55.44
X$1022 168 525 524 164 165 160 gf180mcu_fd_sc_mcu9t5v0__addh_1
* cell instance $1039 r0 *1 63.28,65.52
X$1039 524 162 181 525 182 gf180mcu_fd_sc_mcu9t5v0__and2_2
* cell instance $1047 m0 *1 148.96,115.92
X$1047 525 524 163 308 216 gf180mcu_fd_sc_mcu9t5v0__nand2_2
* cell instance $1050 m0 *1 138.32,126
X$1050 524 525 317 376 360 163 357 303 gf180mcu_fd_sc_mcu9t5v0__oai221_2
* cell instance $1052 r0 *1 143.92,105.84
X$1052 525 316 317 273 163 524 216 gf180mcu_fd_sc_mcu9t5v0__nand4_2
* cell instance $1057 r0 *1 5.04,55.44
X$1057 167 524 525 164 gf180mcu_fd_sc_mcu9t5v0__dlyb_2
* cell instance $1070 r0 *1 23.52,65.52
X$1070 525 524 193 168 191 gf180mcu_fd_sc_mcu9t5v0__nor2_2
* cell instance $1077 r0 *1 49.28,95.76
X$1077 525 169 291 292 294 221 524 gf180mcu_fd_sc_mcu9t5v0__and4_4
* cell instance $1080 m0 *1 110.32,65.52
X$1080 525 524 170 189 185 gf180mcu_fd_sc_mcu9t5v0__nand2_2
* cell instance $1083 m0 *1 101.36,65.52
X$1083 525 170 184 183 194 524 175 gf180mcu_fd_sc_mcu9t5v0__nand4_2
* cell instance $1092 r0 *1 140,65.52
X$1092 172 525 210 207 524 208 gf180mcu_fd_sc_mcu9t5v0__or3_2
* cell instance $1094 r0 *1 168,55.44
X$1094 174 524 525 173 gf180mcu_fd_sc_mcu9t5v0__dlyb_2
* cell instance $1098 m0 *1 158.48,65.52
X$1098 524 213 187 525 174 gf180mcu_fd_sc_mcu9t5v0__xnor2_2
* cell instance $1103 r0 *1 102.48,65.52
X$1103 525 204 183 524 184 175 gf180mcu_fd_sc_mcu9t5v0__nand3_2
* cell instance $1108 m0 *1 38.64,65.52
X$1108 525 524 181 176 gf180mcu_fd_sc_mcu9t5v0__clkinv_2
* cell instance $1119 m0 *1 17.36,65.52
X$1119 525 524 179 180 gf180mcu_fd_sc_mcu9t5v0__clkinv_2
* cell instance $1122 r0 *1 16.24,85.68
X$1122 524 179 192 525 262 gf180mcu_fd_sc_mcu9t5v0__xnor2_2
* cell instance $1128 r0 *1 38.08,85.68
X$1128 525 524 179 253 257 gf180mcu_fd_sc_mcu9t5v0__nand2_2
* cell instance $1130 m0 *1 7.84,95.76
X$1130 191 525 524 288 283 179 gf180mcu_fd_sc_mcu9t5v0__addh_1
* cell instance $1132 m0 *1 38.64,95.76
X$1132 524 179 525 257 233 278 gf180mcu_fd_sc_mcu9t5v0__oai21_2
* cell instance $1137 r0 *1 15.68,65.52
X$1137 524 201 525 192 190 180 gf180mcu_fd_sc_mcu9t5v0__oai21_2
* cell instance $1140 r0 *1 55.44,75.6
X$1140 525 524 220 234 181 gf180mcu_fd_sc_mcu9t5v0__nand2_2
* cell instance $1162 m0 *1 110.88,105.84
X$1162 525 524 301 345 185 gf180mcu_fd_sc_mcu9t5v0__nand2_2
* cell instance $1167 m0 *1 124.88,85.68
X$1167 524 185 525 246 254 206 gf180mcu_fd_sc_mcu9t5v0__oai21_2
* cell instance $1172 r0 *1 128.8,65.52
X$1172 525 524 186 207 gf180mcu_fd_sc_mcu9t5v0__clkinv_2
* cell instance $1175 m0 *1 126.56,75.6
X$1175 524 186 227 228 212 218 525 gf180mcu_fd_sc_mcu9t5v0__oai211_2
* cell instance $1177 m0 *1 109.2,75.6
X$1177 525 225 186 524 226 gf180mcu_fd_sc_mcu9t5v0__or2_2
* cell instance $1184 r0 *1 146.72,65.52
X$1184 524 209 525 208 229 187 210 gf180mcu_fd_sc_mcu9t5v0__oai22_2
* cell instance $1188 r0 *1 166.88,65.52
X$1188 211 525 524 214 188 198 gf180mcu_fd_sc_mcu9t5v0__addh_1
* cell instance $1190 m0 *1 168,65.52
X$1190 199 524 525 188 gf180mcu_fd_sc_mcu9t5v0__dlyb_2
* cell instance $1203 m0 *1 16.8,75.6
X$1203 525 524 191 201 gf180mcu_fd_sc_mcu9t5v0__clkinv_2
* cell instance $1222 m0 *1 42.56,85.68
X$1222 525 242 258 524 253 193 gf180mcu_fd_sc_mcu9t5v0__nand3_2
* cell instance $1226 m0 *1 121.52,115.92
X$1226 525 197 524 350 346 313 194 gf180mcu_fd_sc_mcu9t5v0__aoi22_2
* cell instance $1228 r0 *1 109.2,85.68
X$1228 525 241 209 240 275 194 524 gf180mcu_fd_sc_mcu9t5v0__aoi22_4
* cell instance $1232 m0 *1 113.12,115.92
X$1232 525 345 524 358 313 194 gf180mcu_fd_sc_mcu9t5v0__aoi21_2
* cell instance $1241 m0 *1 95.2,75.6
X$1241 525 524 195 224 223 gf180mcu_fd_sc_mcu9t5v0__nor2_2
* cell instance $1243 r0 *1 115.36,65.52
X$1243 240 524 525 195 204 205 gf180mcu_fd_sc_mcu9t5v0__nor3_2
* cell instance $1246 r0 *1 123.2,65.52
X$1246 525 524 196 207 195 gf180mcu_fd_sc_mcu9t5v0__nor2_2
* cell instance $1248 m0 *1 116.48,75.6
X$1248 525 313 205 524 195 204 227 gf180mcu_fd_sc_mcu9t5v0__nor4_2
* cell instance $1255 r0 *1 124.32,75.6
X$1255 525 229 196 254 228 524 gf180mcu_fd_sc_mcu9t5v0__aoi21_4
* cell instance $1261 m0 *1 156.8,136.08
X$1261 525 524 404 197 gf180mcu_fd_sc_mcu9t5v0__clkinv_2
* cell instance $1267 r0 *1 146.16,95.76
X$1267 524 213 198 525 295 gf180mcu_fd_sc_mcu9t5v0__and2_2
* cell instance $1269 m0 *1 138.88,105.84
X$1269 281 524 213 198 525 309 gf180mcu_fd_sc_mcu9t5v0__and3_2
* cell instance $1271 r0 *1 146.16,85.68
X$1271 524 198 265 525 247 gf180mcu_fd_sc_mcu9t5v0__xnor2_2
* cell instance $1300 r0 *1 101.92,95.76
X$1300 524 203 272 525 280 gf180mcu_fd_sc_mcu9t5v0__and2_2
* cell instance $1305 m0 *1 96.32,115.92
X$1305 524 329 203 525 351 gf180mcu_fd_sc_mcu9t5v0__and2_2
* cell instance $1322 r0 *1 138.88,85.68
X$1322 525 206 524 265 209 246 gf180mcu_fd_sc_mcu9t5v0__aoi21_2
* cell instance $1324 r0 *1 137.2,105.84
X$1324 525 524 206 367 309 gf180mcu_fd_sc_mcu9t5v0__nand2_2
* cell instance $1335 m0 *1 136.08,75.6
X$1335 525 246 216 208 209 229 210 524 gf180mcu_fd_sc_mcu9t5v0__oai221_4
* cell instance $1356 m0 *1 160.16,75.6
X$1356 525 524 212 210 gf180mcu_fd_sc_mcu9t5v0__clkinv_2
* cell instance $1365 r0 *1 156.24,85.68
X$1365 525 263 524 273 211 213 gf180mcu_fd_sc_mcu9t5v0__aoi21_2
* cell instance $1382 m0 *1 131.6,105.84
X$1382 525 310 281 524 213 302 gf180mcu_fd_sc_mcu9t5v0__nand3_2
* cell instance $1384 r0 *1 163.52,85.68
X$1384 263 525 524 274 251 213 gf180mcu_fd_sc_mcu9t5v0__addh_1
* cell instance $1394 m0 *1 168,75.6
X$1394 230 524 525 214 gf180mcu_fd_sc_mcu9t5v0__dlyb_2
* cell instance $1416 r0 *1 13.44,75.6
X$1416 219 524 525 232 gf180mcu_fd_sc_mcu9t5v0__dlyb_2
* cell instance $1423 m0 *1 50.4,105.84
X$1423 524 291 292 525 220 gf180mcu_fd_sc_mcu9t5v0__and2_2
* cell instance $1439 m0 *1 86.8,85.68
X$1439 261 524 525 224 238 239 gf180mcu_fd_sc_mcu9t5v0__nor3_2
* cell instance $1443 m0 *1 94.64,85.68
X$1443 224 525 239 245 524 243 gf180mcu_fd_sc_mcu9t5v0__or3_2
* cell instance $1457 m0 *1 126,105.84
X$1457 525 524 301 228 310 gf180mcu_fd_sc_mcu9t5v0__nor2_2
* cell instance $1469 r0 *1 5.04,75.6
X$1469 231 524 525 244 gf180mcu_fd_sc_mcu9t5v0__dlyb_2
* cell instance $1481 r0 *1 62.16,75.6
X$1481 525 235 234 524 236 gf180mcu_fd_sc_mcu9t5v0__or2_2
* cell instance $1484 m0 *1 50.96,115.92
X$1484 525 235 341 340 342 277 524 gf180mcu_fd_sc_mcu9t5v0__aoi211_4
* cell instance $1528 r0 *1 122.08,115.92
X$1528 525 524 314 350 246 gf180mcu_fd_sc_mcu9t5v0__nand2_2
* cell instance $1530 r0 *1 142.8,136.08
X$1530 417 524 309 246 525 419 gf180mcu_fd_sc_mcu9t5v0__and3_2
* cell instance $1541 m0 *1 157.36,85.68
X$1541 247 524 525 248 gf180mcu_fd_sc_mcu9t5v0__dlyb_2
* cell instance $1545 m0 *1 168,95.76
X$1545 249 524 525 274 gf180mcu_fd_sc_mcu9t5v0__dlyb_2
* cell instance $1548 m0 *1 168.56,85.68
X$1548 250 524 525 251 gf180mcu_fd_sc_mcu9t5v0__dlyb_2
* cell instance $1557 m0 *1 16.24,85.68
X$1557 256 524 525 252 gf180mcu_fd_sc_mcu9t5v0__dlyb_2
* cell instance $1572 r0 *1 53.76,105.84
X$1572 525 257 524 320 277 278 gf180mcu_fd_sc_mcu9t5v0__aoi21_2
* cell instance $1576 r0 *1 21.84,105.84
X$1576 257 525 524 332 306 278 gf180mcu_fd_sc_mcu9t5v0__addh_1
* cell instance $1581 r0 *1 44.24,95.76
X$1581 525 524 258 285 328 gf180mcu_fd_sc_mcu9t5v0__nand2_2
* cell instance $1584 r0 *1 40.88,95.76
X$1584 525 524 277 258 gf180mcu_fd_sc_mcu9t5v0__clkinv_2
* cell instance $1595 r0 *1 112,126
X$1595 525 524 260 387 386 gf180mcu_fd_sc_mcu9t5v0__nand2_2
* cell instance $1606 r0 *1 7.84,85.68
X$1606 262 524 525 276 gf180mcu_fd_sc_mcu9t5v0__dlyb_2
* cell instance $1616 r0 *1 25.76,85.68
X$1616 268 524 525 264 gf180mcu_fd_sc_mcu9t5v0__dlyb_2
* cell instance $1635 m0 *1 25.76,95.76
X$1635 284 524 525 269 gf180mcu_fd_sc_mcu9t5v0__dlyb_2
* cell instance $1638 m0 *1 43.68,115.92
X$1638 354 278 270 369 525 524 291 gf180mcu_fd_sc_mcu9t5v0__and4_2
* cell instance $1642 r0 *1 58.24,115.92
X$1642 524 525 270 312 278 gf180mcu_fd_sc_mcu9t5v0__nand2_4
* cell instance $1644 r0 *1 33.04,105.84
X$1644 524 270 328 525 319 gf180mcu_fd_sc_mcu9t5v0__xnor2_2
* cell instance $1646 m0 *1 25.2,115.92
X$1646 277 525 524 331 349 270 gf180mcu_fd_sc_mcu9t5v0__addh_1
* cell instance $1649 r0 *1 32.48,95.76
X$1649 525 277 524 289 290 270 gf180mcu_fd_sc_mcu9t5v0__aoi21_2
* cell instance $1664 m0 *1 160.16,105.84
X$1664 525 524 273 304 gf180mcu_fd_sc_mcu9t5v0__clkinv_2
* cell instance $1687 m0 *1 28,105.84
X$1687 524 278 289 525 333 gf180mcu_fd_sc_mcu9t5v0__xnor2_2
* cell instance $1700 m0 *1 78.4,105.84
X$1700 525 293 524 322 279 294 gf180mcu_fd_sc_mcu9t5v0__aoi21_2
* cell instance $1713 r0 *1 165.76,105.84
X$1713 318 525 524 330 305 281 gf180mcu_fd_sc_mcu9t5v0__addh_1
* cell instance $1716 r0 *1 159.04,95.76
X$1716 524 281 307 525 282 gf180mcu_fd_sc_mcu9t5v0__xnor2_2
* cell instance $1720 m0 *1 145.6,105.84
X$1720 525 303 281 524 295 302 gf180mcu_fd_sc_mcu9t5v0__nand3_2
* cell instance $1723 r0 *1 153.44,105.84
X$1723 525 318 524 317 304 281 gf180mcu_fd_sc_mcu9t5v0__aoi21_2
* cell instance $1732 r0 *1 170.8,95.76
X$1732 282 524 525 298 gf180mcu_fd_sc_mcu9t5v0__dlyb_2
* cell instance $1738 r0 *1 5.04,95.76
X$1738 286 524 525 283 gf180mcu_fd_sc_mcu9t5v0__dlyb_2