* CDL Netlist generated by OpenROAD

*.BUSDELIMITER [

.SUBCKT configurable_kogge_stone_adder a[0] a[10] a[11] a[12]
+ a[13] a[14] a[15] a[16] a[17] a[18] a[19] a[1] a[20] a[21]
+ a[22] a[23] a[24] a[25] a[26] a[27] a[28] a[29] a[2] a[30]
+ a[31] a[3] a[4] a[5] a[6] a[7] a[8] a[9] b[0] b[10] b[11]
+ b[12] b[13] b[14] b[15] b[16] b[17] b[18] b[19] b[1] b[20]
+ b[21] b[22] b[23] b[24] b[25] b[26] b[27] b[28] b[29] b[2]
+ b[30] b[31] b[3] b[4] b[5] b[6] b[7] b[8] b[9] cin cout sum[0]
+ sum[10] sum[11] sum[12] sum[13] sum[14] sum[15] sum[16] sum[17]
+ sum[18] sum[19] sum[1] sum[20] sum[21] sum[22] sum[23] sum[24]
+ sum[25] sum[26] sum[27] sum[28] sum[29] sum[2] sum[30] sum[31]
+ sum[3] sum[4] sum[5] sum[6] sum[7] sum[8] sum[9]
X_354_ net1 _286_ VDD VSS gf180mcu_fd_sc_mcu9t5v0__clkinv_2
X_355_ net33 _287_ VDD VSS gf180mcu_fd_sc_mcu9t5v0__clkinv_2
X_356_ net65 _288_ VDD VSS gf180mcu_fd_sc_mcu9t5v0__clkinv_2
X_357_ _291_ _000_ VDD VSS gf180mcu_fd_sc_mcu9t5v0__clkinv_2
X_358_ _295_ _297_ _001_ VDD VSS gf180mcu_fd_sc_mcu9t5v0__and2_2
X_359_ _293_ _001_ _002_ VDD VSS gf180mcu_fd_sc_mcu9t5v0__and2_2
X_360_ _298_ _003_ VDD VSS gf180mcu_fd_sc_mcu9t5v0__clkinv_2
X_361_ _331_ _004_ VDD VSS gf180mcu_fd_sc_mcu9t5v0__clkinv_3
X_362_ _333_ _334_ _332_ _005_ VDD VSS gf180mcu_fd_sc_mcu9t5v0__aoi21_4
X_363_ _328_ _330_ _006_ VDD VSS gf180mcu_fd_sc_mcu9t5v0__nor2_2
X_364_ _004_ _005_ _006_ _007_ VDD VSS gf180mcu_fd_sc_mcu9t5v0__oai21_2
X_365_ _336_ _338_ _008_ VDD VSS gf180mcu_fd_sc_mcu9t5v0__nor2_2
X_366_ _341_ _340_ _339_ _009_ VDD VSS gf180mcu_fd_sc_mcu9t5v0__oai21_2
X_367_ _337_ _336_ _335_ _010_ VDD VSS gf180mcu_fd_sc_mcu9t5v0__oai21_2
X_368_ _331_ _333_ _011_ VDD VSS gf180mcu_fd_sc_mcu9t5v0__nand2_2
X_369_ _008_ _009_ _010_ _011_ _012_ VDD VSS gf180mcu_fd_sc_mcu9t5v0__aoi211_4
X_370_ _329_ _328_ _007_ _012_ _013_ VDD VSS gf180mcu_fd_sc_mcu9t5v0__oai22_4
X_371_ _339_ _340_ _338_ _336_ _014_ VDD VSS gf180mcu_fd_sc_mcu9t5v0__aoi211_4
X_372_ _004_ _005_ _006_ _014_ _015_ VDD VSS gf180mcu_fd_sc_mcu9t5v0__oai211_4
X_373_ _343_ _345_ _016_ VDD VSS gf180mcu_fd_sc_mcu9t5v0__nand2_2
X_374_ _347_ _348_ _346_ _017_ VDD VSS gf180mcu_fd_sc_mcu9t5v0__aoi21_4
X_375_ _351_ _352_ _350_ _018_ VDD VSS gf180mcu_fd_sc_mcu9t5v0__aoi21_4
X_376_ _347_ _343_ _345_ _349_ _019_ VDD VSS gf180mcu_fd_sc_mcu9t5v0__nand4_2
X_377_ _343_ _344_ _342_ _020_ VDD VSS gf180mcu_fd_sc_mcu9t5v0__aoi21_2
X_378_ _016_ _017_ _018_ _019_ _020_ _021_ VDD VSS gf180mcu_fd_sc_mcu9t5v0__oai221_4
X_379_ _319_ _321_ _323_ _325_ _022_ VDD VSS gf180mcu_fd_sc_mcu9t5v0__and4_4
X_380_ _015_ _021_ _022_ _327_ _023_ VDD VSS gf180mcu_fd_sc_mcu9t5v0__oai211_2
X_381_ _319_ _321_ _024_ VDD VSS gf180mcu_fd_sc_mcu9t5v0__nand2_4
X_382_ _323_ _324_ _322_ _025_ VDD VSS gf180mcu_fd_sc_mcu9t5v0__aoi21_4
X_383_ _024_ _025_ _026_ VDD VSS gf180mcu_fd_sc_mcu9t5v0__nor2_2
X_384_ _326_ _022_ _026_ _027_ VDD VSS gf180mcu_fd_sc_mcu9t5v0__aoi21_2
X_385_ _013_ _023_ _027_ _028_ VDD VSS gf180mcu_fd_sc_mcu9t5v0__oai21_4
X_386_ _307_ _309_ _029_ VDD VSS gf180mcu_fd_sc_mcu9t5v0__and2_2
X_387_ _311_ _313_ _315_ _317_ _030_ VDD VSS gf180mcu_fd_sc_mcu9t5v0__and4_4
X_388_ _029_ _030_ _031_ VDD VSS gf180mcu_fd_sc_mcu9t5v0__nand2_2
X_389_ _305_ _304_ _032_ VDD VSS gf180mcu_fd_sc_mcu9t5v0__or2_2
X_390_ _303_ _032_ _302_ _033_ VDD VSS gf180mcu_fd_sc_mcu9t5v0__aoi21_2
X_391_ _031_ _033_ _034_ VDD VSS gf180mcu_fd_sc_mcu9t5v0__nor2_2
X_392_ _301_ _028_ _034_ _035_ VDD VSS gf180mcu_fd_sc_mcu9t5v0__and3_2
X_393_ _309_ _036_ VDD VSS gf180mcu_fd_sc_mcu9t5v0__clkinv_2
X_394_ _311_ _312_ _310_ _037_ VDD VSS gf180mcu_fd_sc_mcu9t5v0__aoi21_2
X_395_ _308_ _038_ VDD VSS gf180mcu_fd_sc_mcu9t5v0__clkinv_2
X_396_ _036_ _037_ _038_ _039_ VDD VSS gf180mcu_fd_sc_mcu9t5v0__oai21_2
X_397_ _319_ _320_ _318_ _040_ VDD VSS gf180mcu_fd_sc_mcu9t5v0__aoi21_4
X_398_ _315_ _317_ _041_ VDD VSS gf180mcu_fd_sc_mcu9t5v0__nand2_2
X_399_ _315_ _316_ _314_ _042_ VDD VSS gf180mcu_fd_sc_mcu9t5v0__aoi21_2
X_400_ _040_ _041_ _042_ _043_ VDD VSS gf180mcu_fd_sc_mcu9t5v0__oai21_2
X_401_ _311_ _313_ _029_ _044_ VDD VSS gf180mcu_fd_sc_mcu9t5v0__and3_2
X_402_ _307_ _039_ _043_ _044_ _306_ _045_ VDD VSS gf180mcu_fd_sc_mcu9t5v0__aoi221_4
X_403_ _302_ _304_ _046_ VDD VSS gf180mcu_fd_sc_mcu9t5v0__nor2_2
X_404_ _301_ _047_ VDD VSS gf180mcu_fd_sc_mcu9t5v0__clkinv_2
X_405_ _045_ _046_ _033_ _047_ _048_ VDD VSS gf180mcu_fd_sc_mcu9t5v0__aoi211_2
X_406_ _300_ _035_ _048_ _299_ _049_ VDD VSS gf180mcu_fd_sc_mcu9t5v0__oai31_2
X_407_ _003_ _049_ _050_ VDD VSS gf180mcu_fd_sc_mcu9t5v0__nand2_2
X_408_ _313_ _315_ _317_ _319_ _051_ VDD VSS gf180mcu_fd_sc_mcu9t5v0__and4_2
X_409_ _305_ _307_ _309_ _311_ _052_ VDD VSS gf180mcu_fd_sc_mcu9t5v0__and4_2
X_410_ _051_ _052_ _053_ VDD VSS gf180mcu_fd_sc_mcu9t5v0__and2_2
X_411_ _321_ _323_ _325_ _327_ _054_ VDD VSS gf180mcu_fd_sc_mcu9t5v0__and4_4
X_412_ _347_ _349_ _055_ VDD VSS gf180mcu_fd_sc_mcu9t5v0__and2_2
X_413_ _337_ _339_ _341_ _343_ _056_ VDD VSS gf180mcu_fd_sc_mcu9t5v0__and4_2
X_414_ _351_ _345_ _353_ _057_ VDD VSS gf180mcu_fd_sc_mcu9t5v0__and3_2
X_415_ _329_ _331_ _333_ _335_ _058_ VDD VSS gf180mcu_fd_sc_mcu9t5v0__and4_2
X_416_ _055_ _056_ _057_ _058_ _059_ VDD VSS gf180mcu_fd_sc_mcu9t5v0__and4_4
X_417_ _054_ _059_ _060_ VDD VSS gf180mcu_fd_sc_mcu9t5v0__and2_2
X_418_ _053_ _060_ _061_ VDD VSS gf180mcu_fd_sc_mcu9t5v0__nand2_2
X_419_ _313_ _315_ _062_ VDD VSS gf180mcu_fd_sc_mcu9t5v0__nand2_2
X_420_ _317_ _318_ _316_ _063_ VDD VSS gf180mcu_fd_sc_mcu9t5v0__aoi21_4
X_421_ _313_ _314_ _312_ _064_ VDD VSS gf180mcu_fd_sc_mcu9t5v0__aoi21_2
X_422_ _062_ _063_ _064_ _065_ VDD VSS gf180mcu_fd_sc_mcu9t5v0__oai21_2
X_423_ _065_ _066_ VDD VSS gf180mcu_fd_sc_mcu9t5v0__clkinv_2
X_424_ _024_ _025_ _040_ _067_ VDD VSS gf180mcu_fd_sc_mcu9t5v0__oai21_4
X_425_ _022_ _030_ _068_ VDD VSS gf180mcu_fd_sc_mcu9t5v0__and2_2
X_426_ _015_ _021_ _327_ _069_ VDD VSS gf180mcu_fd_sc_mcu9t5v0__oai21_2
X_427_ _326_ _070_ VDD VSS gf180mcu_fd_sc_mcu9t5v0__clkinv_2
X_428_ _013_ _069_ _070_ _071_ VDD VSS gf180mcu_fd_sc_mcu9t5v0__oai21_4
X_429_ _311_ _313_ _072_ VDD VSS gf180mcu_fd_sc_mcu9t5v0__nand2_2
X_430_ _042_ _072_ _037_ _073_ VDD VSS gf180mcu_fd_sc_mcu9t5v0__oai21_2
X_431_ _030_ _067_ _068_ _071_ _073_ _074_ VDD VSS gf180mcu_fd_sc_mcu9t5v0__aoi221_4
X_432_ _315_ _317_ _075_ VDD VSS gf180mcu_fd_sc_mcu9t5v0__and2_2
X_433_ _075_ _028_ _043_ _076_ VDD VSS gf180mcu_fd_sc_mcu9t5v0__aoi21_2
X_434_ _332_ _077_ VDD VSS gf180mcu_fd_sc_mcu9t5v0__clkinv_2
X_435_ _335_ _334_ _333_ _078_ VDD VSS gf180mcu_fd_sc_mcu9t5v0__oai21_2
X_436_ _077_ _078_ _079_ VDD VSS gf180mcu_fd_sc_mcu9t5v0__nand2_2
X_437_ _341_ _342_ _340_ _338_ _080_ VDD VSS gf180mcu_fd_sc_mcu9t5v0__aoi211_4
X_438_ _339_ _338_ _337_ _081_ VDD VSS gf180mcu_fd_sc_mcu9t5v0__oai21_2
X_439_ _332_ _334_ _082_ VDD VSS gf180mcu_fd_sc_mcu9t5v0__nor2_2
X_440_ _336_ _083_ VDD VSS gf180mcu_fd_sc_mcu9t5v0__clkinv_2
X_441_ _080_ _081_ _082_ _083_ _084_ VDD VSS gf180mcu_fd_sc_mcu9t5v0__oai211_2
X_442_ _345_ _085_ VDD VSS gf180mcu_fd_sc_mcu9t5v0__clkinv_2
X_443_ _347_ _345_ _349_ _086_ VDD VSS gf180mcu_fd_sc_mcu9t5v0__nand3_2
X_444_ _344_ _087_ VDD VSS gf180mcu_fd_sc_mcu9t5v0__clkinv_2
X_445_ _085_ _017_ _018_ _086_ _087_ _088_ VDD VSS gf180mcu_fd_sc_mcu9t5v0__oai221_4
X_446_ _337_ _339_ _341_ _343_ _089_ VDD VSS gf180mcu_fd_sc_mcu9t5v0__nand4_4
X_447_ _077_ _078_ _089_ _090_ VDD VSS gf180mcu_fd_sc_mcu9t5v0__aoi21_2
X_448_ _079_ _084_ _088_ _090_ _091_ VDD VSS gf180mcu_fd_sc_mcu9t5v0__aoi22_4
X_449_ _330_ _092_ VDD VSS gf180mcu_fd_sc_mcu9t5v0__clkinv_2
X_450_ _004_ _091_ _092_ _093_ VDD VSS gf180mcu_fd_sc_mcu9t5v0__oai21_4
X_451_ _353_ _094_ VDD VSS gf180mcu_fd_sc_mcu9t5v0__clkinv_2
X_452_ _352_ _095_ VDD VSS gf180mcu_fd_sc_mcu9t5v0__clkinv_2
X_453_ _289_ _094_ _095_ _096_ VDD VSS gf180mcu_fd_sc_mcu9t5v0__oai21_4
X_454_ _347_ _351_ _349_ _097_ VDD VSS gf180mcu_fd_sc_mcu9t5v0__and3_2
X_455_ _347_ _348_ _098_ VDD VSS gf180mcu_fd_sc_mcu9t5v0__and2_2
X_456_ _347_ _349_ _350_ _099_ VDD VSS gf180mcu_fd_sc_mcu9t5v0__and3_2
X_457_ _098_ _099_ _100_ VDD VSS gf180mcu_fd_sc_mcu9t5v0__or2_2
X_458_ _096_ _097_ _100_ _346_ _101_ VDD VSS gf180mcu_fd_sc_mcu9t5v0__aoi211_4
X_459_ _340_ _344_ _021_ _102_ VDD VSS gf180mcu_fd_sc_mcu9t5v0__nor3_2
X_460_ _339_ _341_ _103_ VDD VSS gf180mcu_fd_sc_mcu9t5v0__and2_2
X_461_ _055_ _057_ _104_ VDD VSS gf180mcu_fd_sc_mcu9t5v0__and2_2
X_462_ _343_ _103_ _104_ _105_ VDD VSS gf180mcu_fd_sc_mcu9t5v0__nand3_2
X_463_ _101_ _102_ _105_ _106_ VDD VSS gf180mcu_fd_sc_mcu9t5v0__aoi21_4
X_464_ _328_ _107_ VDD VSS gf180mcu_fd_sc_mcu9t5v0__clkinv_2
X_465_ _339_ _340_ _108_ VDD VSS gf180mcu_fd_sc_mcu9t5v0__and2_2
X_466_ _336_ _338_ _108_ _109_ VDD VSS gf180mcu_fd_sc_mcu9t5v0__or3_2
X_467_ _021_ _103_ _334_ _109_ _110_ VDD VSS gf180mcu_fd_sc_mcu9t5v0__aoi211_4
X_468_ _070_ _107_ _091_ _110_ _111_ VDD VSS gf180mcu_fd_sc_mcu9t5v0__nand4_4
X_469_ _327_ _059_ _112_ VDD VSS gf180mcu_fd_sc_mcu9t5v0__and2_4
X_470_ _075_ _022_ _112_ _113_ VDD VSS gf180mcu_fd_sc_mcu9t5v0__and3_2
X_471_ _093_ _106_ _111_ _113_ _114_ VDD VSS gf180mcu_fd_sc_mcu9t5v0__oai31_2
X_472_ _066_ _074_ _076_ _114_ _115_ VDD VSS gf180mcu_fd_sc_mcu9t5v0__and4_2
X_473_ _300_ _116_ VDD VSS gf180mcu_fd_sc_mcu9t5v0__clkinv_2
X_474_ _045_ _046_ _117_ VDD VSS gf180mcu_fd_sc_mcu9t5v0__nand2_2
X_475_ _031_ _046_ _118_ VDD VSS gf180mcu_fd_sc_mcu9t5v0__and2_2
X_476_ _045_ _118_ _033_ _119_ VDD VSS gf180mcu_fd_sc_mcu9t5v0__aoi21_2
X_477_ _028_ _117_ _119_ _120_ VDD VSS gf180mcu_fd_sc_mcu9t5v0__oai21_2
X_478_ _306_ _121_ VDD VSS gf180mcu_fd_sc_mcu9t5v0__clkinv_2
X_479_ _309_ _311_ _313_ _315_ _122_ VDD VSS gf180mcu_fd_sc_mcu9t5v0__and4_2
X_480_ _325_ _326_ _324_ _123_ VDD VSS gf180mcu_fd_sc_mcu9t5v0__aoi21_2
X_481_ _321_ _323_ _124_ VDD VSS gf180mcu_fd_sc_mcu9t5v0__nand2_2
X_482_ _321_ _322_ _320_ _125_ VDD VSS gf180mcu_fd_sc_mcu9t5v0__aoi21_2
X_483_ _123_ _124_ _125_ _126_ VDD VSS gf180mcu_fd_sc_mcu9t5v0__oai21_4
X_484_ _317_ _319_ _122_ _126_ _127_ VDD VSS gf180mcu_fd_sc_mcu9t5v0__nand4_2
X_485_ _311_ _128_ VDD VSS gf180mcu_fd_sc_mcu9t5v0__clkinv_2
X_486_ _036_ _128_ _062_ _129_ VDD VSS gf180mcu_fd_sc_mcu9t5v0__or3_2
X_487_ _129_ _063_ _130_ VDD VSS gf180mcu_fd_sc_mcu9t5v0__or2_2
X_488_ _309_ _310_ _308_ _131_ VDD VSS gf180mcu_fd_sc_mcu9t5v0__aoi21_2
X_489_ _036_ _128_ _064_ _132_ VDD VSS gf180mcu_fd_sc_mcu9t5v0__or3_2
X_490_ _131_ _132_ _133_ VDD VSS gf180mcu_fd_sc_mcu9t5v0__and2_2
X_491_ _121_ _127_ _130_ _133_ _134_ VDD VSS gf180mcu_fd_sc_mcu9t5v0__nand4_4
X_492_ _307_ _135_ VDD VSS gf180mcu_fd_sc_mcu9t5v0__clkinv_2
X_493_ _305_ _136_ VDD VSS gf180mcu_fd_sc_mcu9t5v0__clkinv_2
X_494_ _135_ _121_ _136_ _137_ VDD VSS gf180mcu_fd_sc_mcu9t5v0__aoi21_2
X_495_ _329_ _331_ _138_ VDD VSS gf180mcu_fd_sc_mcu9t5v0__nand2_2
X_496_ _329_ _330_ _139_ VDD VSS gf180mcu_fd_sc_mcu9t5v0__nand2_2
X_497_ _091_ _138_ _139_ _107_ _140_ VDD VSS gf180mcu_fd_sc_mcu9t5v0__oai211_4
X_498_ _054_ _053_ _141_ VDD VSS gf180mcu_fd_sc_mcu9t5v0__and2_2
X_499_ _134_ _137_ _140_ _141_ _304_ _142_ VDD VSS gf180mcu_fd_sc_mcu9t5v0__aoi221_4
X_500_ _126_ _053_ _065_ _052_ _143_ VDD VSS gf180mcu_fd_sc_mcu9t5v0__aoi22_2
X_501_ _135_ _131_ _121_ _144_ VDD VSS gf180mcu_fd_sc_mcu9t5v0__oai21_2
X_502_ _296_ _298_ _304_ _145_ VDD VSS gf180mcu_fd_sc_mcu9t5v0__or3_2
X_503_ _301_ _302_ _146_ VDD VSS gf180mcu_fd_sc_mcu9t5v0__nand2_2
X_504_ _299_ _147_ VDD VSS gf180mcu_fd_sc_mcu9t5v0__clkinv_2
X_505_ _116_ _146_ _147_ _148_ VDD VSS gf180mcu_fd_sc_mcu9t5v0__aoi21_2
X_506_ _305_ _144_ _145_ _148_ _149_ VDD VSS gf180mcu_fd_sc_mcu9t5v0__aoi211_2
X_507_ _303_ _302_ _301_ _150_ VDD VSS gf180mcu_fd_sc_mcu9t5v0__oai21_2
X_508_ _116_ _150_ _147_ _151_ VDD VSS gf180mcu_fd_sc_mcu9t5v0__aoi21_2
X_509_ _298_ _151_ _297_ _152_ VDD VSS gf180mcu_fd_sc_mcu9t5v0__oai21_2
X_510_ _296_ _153_ VDD VSS gf180mcu_fd_sc_mcu9t5v0__clkinv_2
X_511_ _143_ _149_ _152_ _153_ _154_ VDD VSS gf180mcu_fd_sc_mcu9t5v0__aoi22_2
X_512_ _297_ _299_ _301_ _303_ _155_ VDD VSS gf180mcu_fd_sc_mcu9t5v0__and4_2
X_513_ _054_ _051_ _052_ _155_ _156_ VDD VSS gf180mcu_fd_sc_mcu9t5v0__and4_4
X_514_ _329_ _331_ _156_ _157_ VDD VSS gf180mcu_fd_sc_mcu9t5v0__nand3_2
X_515_ _329_ _330_ _158_ VDD VSS gf180mcu_fd_sc_mcu9t5v0__and2_2
X_516_ _328_ _158_ _156_ _159_ VDD VSS gf180mcu_fd_sc_mcu9t5v0__oai21_2
X_517_ _091_ _157_ _159_ _160_ VDD VSS gf180mcu_fd_sc_mcu9t5v0__oai21_4
X_518_ _030_ _067_ _073_ _161_ VDD VSS gf180mcu_fd_sc_mcu9t5v0__aoi21_2
X_519_ _301_ _300_ _299_ _162_ VDD VSS gf180mcu_fd_sc_mcu9t5v0__oai21_2
X_520_ _295_ _297_ _163_ VDD VSS gf180mcu_fd_sc_mcu9t5v0__nand2_2
X_521_ _003_ _162_ _163_ _164_ VDD VSS gf180mcu_fd_sc_mcu9t5v0__aoi21_2
X_522_ _303_ _305_ _029_ _165_ VDD VSS gf180mcu_fd_sc_mcu9t5v0__and3_2
X_523_ _164_ _165_ _166_ VDD VSS gf180mcu_fd_sc_mcu9t5v0__nand2_2
X_524_ _307_ _308_ _306_ _167_ VDD VSS gf180mcu_fd_sc_mcu9t5v0__aoi21_2
X_525_ _303_ _305_ _168_ VDD VSS gf180mcu_fd_sc_mcu9t5v0__nand2_2
X_526_ _303_ _304_ _169_ VDD VSS gf180mcu_fd_sc_mcu9t5v0__nand2_2
X_527_ _298_ _300_ _302_ _170_ VDD VSS gf180mcu_fd_sc_mcu9t5v0__nor3_2
X_528_ _167_ _168_ _169_ _170_ _171_ VDD VSS gf180mcu_fd_sc_mcu9t5v0__oai211_2
X_529_ _295_ _296_ _172_ VDD VSS gf180mcu_fd_sc_mcu9t5v0__and2_2
X_530_ _294_ _172_ _173_ VDD VSS gf180mcu_fd_sc_mcu9t5v0__or2_2
X_531_ _164_ _171_ _173_ _174_ VDD VSS gf180mcu_fd_sc_mcu9t5v0__aoi21_2
X_532_ _161_ _166_ _174_ _175_ VDD VSS gf180mcu_fd_sc_mcu9t5v0__oai21_2
X_533_ _071_ _154_ _160_ _175_ _176_ VDD VSS gf180mcu_fd_sc_mcu9t5v0__nor4_2
X_534_ _116_ _120_ _142_ _176_ _177_ VDD VSS gf180mcu_fd_sc_mcu9t5v0__and4_2
X_535_ _061_ _115_ _177_ _178_ VDD VSS gf180mcu_fd_sc_mcu9t5v0__oai21_2
X_536_ _317_ _319_ _060_ _179_ VDD VSS gf180mcu_fd_sc_mcu9t5v0__and3_2
X_537_ _301_ _303_ _305_ _307_ _180_ VDD VSS gf180mcu_fd_sc_mcu9t5v0__and4_2
X_538_ _122_ _179_ _180_ _181_ VDD VSS gf180mcu_fd_sc_mcu9t5v0__and3_2
X_539_ _299_ _002_ _181_ _182_ VDD VSS gf180mcu_fd_sc_mcu9t5v0__and3_2
X_540_ _293_ _173_ _183_ VDD VSS gf180mcu_fd_sc_mcu9t5v0__and2_2
X_541_ _292_ _183_ _184_ VDD VSS gf180mcu_fd_sc_mcu9t5v0__or2_2
X_542_ _002_ _050_ _178_ _182_ _184_ _185_ VDD VSS gf180mcu_fd_sc_mcu9t5v0__aoi221_4
X_543_ _290_ _186_ VDD VSS gf180mcu_fd_sc_mcu9t5v0__clkinv_2
X_544_ _000_ _185_ _186_ net66 VDD VSS gf180mcu_fd_sc_mcu9t5v0__oai21_2
X_545_ _289_ _187_ VDD VSS gf180mcu_fd_sc_mcu9t5v0__clkinv_2
X_546_ _187_ _353_ _352_ _188_ VDD VSS gf180mcu_fd_sc_mcu9t5v0__aoi21_2
X_547_ _347_ _351_ _349_ _189_ VDD VSS gf180mcu_fd_sc_mcu9t5v0__nand3_2
X_548_ _098_ _099_ _190_ VDD VSS gf180mcu_fd_sc_mcu9t5v0__nor2_2
X_549_ _346_ _191_ VDD VSS gf180mcu_fd_sc_mcu9t5v0__clkinv_2
X_550_ _087_ _191_ _192_ VDD VSS gf180mcu_fd_sc_mcu9t5v0__and2_2
X_551_ _188_ _189_ _190_ _192_ _193_ VDD VSS gf180mcu_fd_sc_mcu9t5v0__oai211_4
X_552_ _343_ _103_ _104_ _194_ VDD VSS gf180mcu_fd_sc_mcu9t5v0__and3_2
X_553_ _340_ _021_ _193_ _194_ _195_ VDD VSS gf180mcu_fd_sc_mcu9t5v0__oai31_2
X_554_ _021_ _103_ _196_ VDD VSS gf180mcu_fd_sc_mcu9t5v0__and2_2
X_555_ _338_ _108_ _196_ _197_ VDD VSS gf180mcu_fd_sc_mcu9t5v0__nor3_2
X_556_ _195_ _197_ _198_ VDD VSS gf180mcu_fd_sc_mcu9t5v0__nand2_2
X_557_ _104_ _198_ _088_ _199_ VDD VSS gf180mcu_fd_sc_mcu9t5v0__aoi21_2
X_558_ _080_ _081_ _089_ _199_ _083_ _200_ VDD VSS gf180mcu_fd_sc_mcu9t5v0__oai221_4
X_559_ _335_ _200_ _334_ _201_ VDD VSS gf180mcu_fd_sc_mcu9t5v0__aoi21_2
X_560_ _333_ _201_ net68 VDD VSS gf180mcu_fd_sc_mcu9t5v0__xnor2_4
X_561_ _109_ _106_ _196_ _202_ VDD VSS gf180mcu_fd_sc_mcu9t5v0__or3_2
X_562_ _335_ _337_ _194_ _203_ VDD VSS gf180mcu_fd_sc_mcu9t5v0__and3_2
X_563_ _334_ _202_ _203_ _333_ _204_ VDD VSS gf180mcu_fd_sc_mcu9t5v0__oai211_2
X_564_ _091_ _204_ _205_ VDD VSS gf180mcu_fd_sc_mcu9t5v0__and2_2
X_565_ _331_ _205_ net69 VDD VSS gf180mcu_fd_sc_mcu9t5v0__xnor2_2
X_566_ _343_ _104_ _206_ VDD VSS gf180mcu_fd_sc_mcu9t5v0__and2_2
X_567_ _206_ _193_ _021_ _207_ VDD VSS gf180mcu_fd_sc_mcu9t5v0__aoi21_4
X_568_ _340_ _208_ VDD VSS gf180mcu_fd_sc_mcu9t5v0__clkinv_2
X_569_ _208_ _091_ _110_ _209_ VDD VSS gf180mcu_fd_sc_mcu9t5v0__and3_2
X_570_ _335_ _337_ _194_ _210_ VDD VSS gf180mcu_fd_sc_mcu9t5v0__nand3_2
X_571_ _207_ _209_ _011_ _210_ _211_ VDD VSS gf180mcu_fd_sc_mcu9t5v0__aoi211_4
X_572_ _093_ _211_ _212_ VDD VSS gf180mcu_fd_sc_mcu9t5v0__nor2_2
X_573_ _329_ _212_ net70 VDD VSS gf180mcu_fd_sc_mcu9t5v0__xnor2_4
X_574_ _212_ _213_ VDD VSS gf180mcu_fd_sc_mcu9t5v0__clkinv_2
X_575_ _059_ _213_ _140_ _214_ VDD VSS gf180mcu_fd_sc_mcu9t5v0__aoi21_2
X_576_ _327_ _214_ net71 VDD VSS gf180mcu_fd_sc_mcu9t5v0__xnor2_4
X_577_ _071_ _215_ VDD VSS gf180mcu_fd_sc_mcu9t5v0__clkinv_2
X_578_ _328_ _093_ _211_ _112_ _216_ VDD VSS gf180mcu_fd_sc_mcu9t5v0__oai31_4
X_579_ _215_ _216_ _217_ VDD VSS gf180mcu_fd_sc_mcu9t5v0__nand2_4
X_580_ _325_ _217_ net72 VDD VSS gf180mcu_fd_sc_mcu9t5v0__xor2_2
X_581_ _325_ _217_ _324_ _218_ VDD VSS gf180mcu_fd_sc_mcu9t5v0__aoi21_2
X_582_ _323_ _218_ net73 VDD VSS gf180mcu_fd_sc_mcu9t5v0__xnor2_2
X_583_ _322_ _324_ _071_ _219_ VDD VSS gf180mcu_fd_sc_mcu9t5v0__nor3_2
X_584_ _216_ _219_ _220_ VDD VSS gf180mcu_fd_sc_mcu9t5v0__nand2_2
X_585_ _325_ _322_ _324_ _221_ VDD VSS gf180mcu_fd_sc_mcu9t5v0__or3_2
X_586_ _323_ _322_ _220_ _221_ _222_ VDD VSS gf180mcu_fd_sc_mcu9t5v0__oai211_2
X_587_ _321_ _222_ net74 VDD VSS gf180mcu_fd_sc_mcu9t5v0__xnor2_4
X_588_ _054_ _223_ VDD VSS gf180mcu_fd_sc_mcu9t5v0__clkinv_2
X_589_ _327_ _328_ _224_ VDD VSS gf180mcu_fd_sc_mcu9t5v0__and2_2
X_590_ _326_ _093_ _224_ _211_ _225_ VDD VSS gf180mcu_fd_sc_mcu9t5v0__or4_4
X_591_ _059_ _225_ _140_ _226_ VDD VSS gf180mcu_fd_sc_mcu9t5v0__aoi21_2
X_592_ _071_ _060_ _126_ _227_ VDD VSS gf180mcu_fd_sc_mcu9t5v0__aoi21_2
X_593_ _223_ _226_ _227_ _228_ VDD VSS gf180mcu_fd_sc_mcu9t5v0__oai21_2
X_594_ _319_ _228_ net75 VDD VSS gf180mcu_fd_sc_mcu9t5v0__xor2_2
X_595_ _328_ _071_ _093_ _229_ VDD VSS gf180mcu_fd_sc_mcu9t5v0__or3_2
X_596_ _211_ _229_ _054_ _230_ VDD VSS gf180mcu_fd_sc_mcu9t5v0__oai21_4
X_597_ _071_ _126_ _067_ _231_ VDD VSS gf180mcu_fd_sc_mcu9t5v0__nor3_2
X_598_ _071_ _067_ _112_ _232_ VDD VSS gf180mcu_fd_sc_mcu9t5v0__or3_2
X_599_ _022_ _067_ _232_ _233_ VDD VSS gf180mcu_fd_sc_mcu9t5v0__oai21_2
X_600_ _230_ _231_ _233_ _234_ VDD VSS gf180mcu_fd_sc_mcu9t5v0__aoi21_2
X_601_ _317_ _234_ net76 VDD VSS gf180mcu_fd_sc_mcu9t5v0__xor2_2
X_602_ _317_ _319_ _235_ VDD VSS gf180mcu_fd_sc_mcu9t5v0__nand2_2
X_603_ _140_ _054_ _126_ _236_ VDD VSS gf180mcu_fd_sc_mcu9t5v0__aoi21_2
X_604_ _235_ _236_ _063_ _237_ VDD VSS gf180mcu_fd_sc_mcu9t5v0__oai21_4
X_605_ _179_ _234_ _237_ _238_ VDD VSS gf180mcu_fd_sc_mcu9t5v0__aoi21_2
X_606_ _315_ _238_ net77 VDD VSS gf180mcu_fd_sc_mcu9t5v0__xnor2_2
X_607_ _351_ _289_ net78 VDD VSS gf180mcu_fd_sc_mcu9t5v0__xnor2_2
X_608_ _076_ _114_ _239_ VDD VSS gf180mcu_fd_sc_mcu9t5v0__and2_2
X_609_ _313_ _239_ net79 VDD VSS gf180mcu_fd_sc_mcu9t5v0__xnor2_4
X_610_ _054_ _051_ _240_ VDD VSS gf180mcu_fd_sc_mcu9t5v0__and2_2
X_611_ _126_ _051_ _240_ _140_ _065_ _241_ VDD VSS gf180mcu_fd_sc_mcu9t5v0__aoi221_2
X_612_ _051_ _060_ _242_ VDD VSS gf180mcu_fd_sc_mcu9t5v0__nand2_2
X_613_ _051_ _060_ _113_ _243_ VDD VSS gf180mcu_fd_sc_mcu9t5v0__nand3_2
X_614_ _093_ _106_ _111_ _244_ VDD VSS gf180mcu_fd_sc_mcu9t5v0__nor3_2
X_615_ _076_ _242_ _243_ _244_ _245_ VDD VSS gf180mcu_fd_sc_mcu9t5v0__oai22_2
X_616_ _245_ _246_ VDD VSS gf180mcu_fd_sc_mcu9t5v0__clkinv_2
X_617_ _241_ _246_ _247_ VDD VSS gf180mcu_fd_sc_mcu9t5v0__and2_2
X_618_ _311_ _247_ net80 VDD VSS gf180mcu_fd_sc_mcu9t5v0__xnor2_2
X_619_ _068_ _112_ _248_ VDD VSS gf180mcu_fd_sc_mcu9t5v0__nand2_2
X_620_ _074_ _248_ _115_ _249_ VDD VSS gf180mcu_fd_sc_mcu9t5v0__aoi21_2
X_621_ _036_ _249_ net81 VDD VSS gf180mcu_fd_sc_mcu9t5v0__xnor2_2
X_622_ _074_ _241_ _250_ VDD VSS gf180mcu_fd_sc_mcu9t5v0__nand2_2
X_623_ _250_ _237_ _245_ _251_ VDD VSS gf180mcu_fd_sc_mcu9t5v0__nor3_2
X_624_ _074_ _248_ _252_ VDD VSS gf180mcu_fd_sc_mcu9t5v0__nand2_2
X_625_ _179_ _252_ _237_ _253_ VDD VSS gf180mcu_fd_sc_mcu9t5v0__aoi21_2
X_626_ _129_ _251_ _253_ _133_ _254_ VDD VSS gf180mcu_fd_sc_mcu9t5v0__oai31_2
X_627_ _135_ _254_ net82 VDD VSS gf180mcu_fd_sc_mcu9t5v0__xnor2_2
X_628_ _068_ _112_ _255_ VDD VSS gf180mcu_fd_sc_mcu9t5v0__and2_2
X_629_ _179_ _237_ _255_ _029_ _256_ VDD VSS gf180mcu_fd_sc_mcu9t5v0__oai211_2
X_630_ _029_ _028_ _030_ _257_ VDD VSS gf180mcu_fd_sc_mcu9t5v0__nand3_2
X_631_ _251_ _256_ _045_ _257_ _258_ VDD VSS gf180mcu_fd_sc_mcu9t5v0__oai211_2
X_632_ _136_ _258_ net83 VDD VSS gf180mcu_fd_sc_mcu9t5v0__xnor2_2
X_633_ _061_ _115_ _142_ _259_ VDD VSS gf180mcu_fd_sc_mcu9t5v0__oai21_2
X_634_ _303_ _259_ net84 VDD VSS gf180mcu_fd_sc_mcu9t5v0__xor2_2
X_635_ _028_ _117_ _260_ VDD VSS gf180mcu_fd_sc_mcu9t5v0__or2_2
X_636_ _165_ _255_ _261_ VDD VSS gf180mcu_fd_sc_mcu9t5v0__and2_2
X_637_ _260_ _119_ _259_ _261_ _262_ VDD VSS gf180mcu_fd_sc_mcu9t5v0__aoi22_2
X_638_ _301_ _262_ net85 VDD VSS gf180mcu_fd_sc_mcu9t5v0__xnor2_2
X_639_ _116_ _120_ _263_ VDD VSS gf180mcu_fd_sc_mcu9t5v0__and2_2
X_640_ _061_ _115_ _263_ _142_ _264_ VDD VSS gf180mcu_fd_sc_mcu9t5v0__oai211_4
X_641_ _300_ _035_ _048_ _181_ _265_ VDD VSS gf180mcu_fd_sc_mcu9t5v0__or4_2
X_642_ _264_ _265_ _266_ VDD VSS gf180mcu_fd_sc_mcu9t5v0__and2_2
X_643_ _147_ _266_ net86 VDD VSS gf180mcu_fd_sc_mcu9t5v0__xnor2_2
X_644_ _299_ _301_ _165_ _267_ VDD VSS gf180mcu_fd_sc_mcu9t5v0__and3_2
X_645_ _255_ _265_ _267_ _268_ VDD VSS gf180mcu_fd_sc_mcu9t5v0__and3_2
X_646_ _264_ _268_ _050_ _269_ VDD VSS gf180mcu_fd_sc_mcu9t5v0__aoi21_2
X_647_ _297_ _269_ net87 VDD VSS gf180mcu_fd_sc_mcu9t5v0__xnor2_2
X_648_ _141_ _155_ _059_ _270_ VDD VSS gf180mcu_fd_sc_mcu9t5v0__and3_2
X_649_ _264_ _270_ _154_ _160_ _271_ VDD VSS gf180mcu_fd_sc_mcu9t5v0__aoi211_2
X_650_ _295_ _271_ net88 VDD VSS gf180mcu_fd_sc_mcu9t5v0__xnor2_2
X_651_ _351_ _096_ _350_ _272_ VDD VSS gf180mcu_fd_sc_mcu9t5v0__aoi21_2
X_652_ _349_ _272_ net89 VDD VSS gf180mcu_fd_sc_mcu9t5v0__xnor2_2
X_653_ _071_ _112_ _273_ VDD VSS gf180mcu_fd_sc_mcu9t5v0__or2_2
X_654_ _001_ _068_ _267_ _273_ _274_ VDD VSS gf180mcu_fd_sc_mcu9t5v0__and4_2
X_655_ _175_ _274_ _178_ _275_ VDD VSS gf180mcu_fd_sc_mcu9t5v0__oai21_2
X_656_ _293_ _275_ net90 VDD VSS gf180mcu_fd_sc_mcu9t5v0__xnor2_2
X_657_ _291_ _185_ net91 VDD VSS gf180mcu_fd_sc_mcu9t5v0__xnor2_2
X_658_ _096_ _097_ _276_ VDD VSS gf180mcu_fd_sc_mcu9t5v0__nand2_2
X_659_ _349_ _277_ VDD VSS gf180mcu_fd_sc_mcu9t5v0__clkinv_2
X_660_ _277_ _272_ _278_ VDD VSS gf180mcu_fd_sc_mcu9t5v0__nor2_2
X_661_ _347_ _348_ _278_ _279_ VDD VSS gf180mcu_fd_sc_mcu9t5v0__or3_2
X_662_ _276_ _190_ _279_ net92 VDD VSS gf180mcu_fd_sc_mcu9t5v0__and3_2
X_663_ _191_ _276_ _190_ _280_ VDD VSS gf180mcu_fd_sc_mcu9t5v0__nand3_2
X_664_ _085_ _280_ net93 VDD VSS gf180mcu_fd_sc_mcu9t5v0__xnor2_2
X_665_ _104_ _280_ _088_ _281_ VDD VSS gf180mcu_fd_sc_mcu9t5v0__aoi21_2
X_666_ _343_ _281_ net94 VDD VSS gf180mcu_fd_sc_mcu9t5v0__xnor2_2
X_667_ _341_ _207_ net95 VDD VSS gf180mcu_fd_sc_mcu9t5v0__xnor2_2
X_668_ _341_ _282_ VDD VSS gf180mcu_fd_sc_mcu9t5v0__clkinv_2
X_669_ _282_ _207_ _283_ VDD VSS gf180mcu_fd_sc_mcu9t5v0__or2_2
X_670_ _208_ _283_ _284_ VDD VSS gf180mcu_fd_sc_mcu9t5v0__and2_2
X_671_ _339_ _284_ net96 VDD VSS gf180mcu_fd_sc_mcu9t5v0__xnor2_2
X_672_ _195_ _197_ _285_ VDD VSS gf180mcu_fd_sc_mcu9t5v0__and2_2
X_673_ _337_ _285_ net97 VDD VSS gf180mcu_fd_sc_mcu9t5v0__xnor2_2
X_674_ _335_ _200_ net98 VDD VSS gf180mcu_fd_sc_mcu9t5v0__xor2_4
X_675_ _286_ _287_ _288_ _289_ net67 VDD VSS gf180mcu_fd_sc_mcu9t5v0__addf_2
X_676_ net25 net57 _290_ _291_ VDD VSS gf180mcu_fd_sc_mcu9t5v0__addh_1
X_677_ net24 net56 _292_ _293_ VDD VSS gf180mcu_fd_sc_mcu9t5v0__addh_1
X_678_ net22 net54 _294_ _295_ VDD VSS gf180mcu_fd_sc_mcu9t5v0__addh_2
X_679_ net21 net53 _296_ _297_ VDD VSS gf180mcu_fd_sc_mcu9t5v0__addh_2
X_680_ net20 net52 _298_ _299_ VDD VSS gf180mcu_fd_sc_mcu9t5v0__addh_2
X_681_ net19 net51 _300_ _301_ VDD VSS gf180mcu_fd_sc_mcu9t5v0__addh_4
X_682_ net18 net50 _302_ _303_ VDD VSS gf180mcu_fd_sc_mcu9t5v0__addh_4
X_683_ net17 net49 _304_ _305_ VDD VSS gf180mcu_fd_sc_mcu9t5v0__addh_2
X_684_ net16 net48 _306_ _307_ VDD VSS gf180mcu_fd_sc_mcu9t5v0__addh_2
X_685_ net15 net47 _308_ _309_ VDD VSS gf180mcu_fd_sc_mcu9t5v0__addh_2
X_686_ net14 net46 _310_ _311_ VDD VSS gf180mcu_fd_sc_mcu9t5v0__addh_4
X_687_ net13 net45 _312_ _313_ VDD VSS gf180mcu_fd_sc_mcu9t5v0__addh_4
X_688_ net11 net43 _314_ _315_ VDD VSS gf180mcu_fd_sc_mcu9t5v0__addh_4
X_689_ net10 net42 _316_ _317_ VDD VSS gf180mcu_fd_sc_mcu9t5v0__addh_4
X_690_ net9 net41 _318_ _319_ VDD VSS gf180mcu_fd_sc_mcu9t5v0__addh_4
X_691_ net8 net40 _320_ _321_ VDD VSS gf180mcu_fd_sc_mcu9t5v0__addh_4
X_692_ net7 net39 _322_ _323_ VDD VSS gf180mcu_fd_sc_mcu9t5v0__addh_4
X_693_ net6 net38 _324_ _325_ VDD VSS gf180mcu_fd_sc_mcu9t5v0__addh_4
X_694_ net5 net37 _326_ _327_ VDD VSS gf180mcu_fd_sc_mcu9t5v0__addh_2
X_695_ net4 net36 _328_ _329_ VDD VSS gf180mcu_fd_sc_mcu9t5v0__addh_4
X_696_ net3 net35 _330_ _331_ VDD VSS gf180mcu_fd_sc_mcu9t5v0__addh_4
X_697_ net2 net34 _332_ _333_ VDD VSS gf180mcu_fd_sc_mcu9t5v0__addh_2
X_698_ net32 net64 _334_ _335_ VDD VSS gf180mcu_fd_sc_mcu9t5v0__addh_4
X_699_ net31 net63 _336_ _337_ VDD VSS gf180mcu_fd_sc_mcu9t5v0__addh_4
X_700_ net30 net62 _338_ _339_ VDD VSS gf180mcu_fd_sc_mcu9t5v0__addh_4
X_701_ net29 net61 _340_ _341_ VDD VSS gf180mcu_fd_sc_mcu9t5v0__addh_4
X_702_ net28 net60 _342_ _343_ VDD VSS gf180mcu_fd_sc_mcu9t5v0__addh_4
X_703_ net27 net59 _344_ _345_ VDD VSS gf180mcu_fd_sc_mcu9t5v0__addh_2
X_704_ net26 net58 _346_ _347_ VDD VSS gf180mcu_fd_sc_mcu9t5v0__addh_4
X_705_ net23 net55 _348_ _349_ VDD VSS gf180mcu_fd_sc_mcu9t5v0__addh_2
X_706_ net12 net44 _350_ _351_ VDD VSS gf180mcu_fd_sc_mcu9t5v0__addh_2
X_707_ net1 net33 _352_ _353_ VDD VSS gf180mcu_fd_sc_mcu9t5v0__addh_2
XPHY_EDGE_ROW_0_Right_0 VDD VSS gf180mcu_fd_sc_mcu9t5v0__endcap
XPHY_EDGE_ROW_1_Right_1 VDD VSS gf180mcu_fd_sc_mcu9t5v0__endcap
XPHY_EDGE_ROW_2_Right_2 VDD VSS gf180mcu_fd_sc_mcu9t5v0__endcap
XPHY_EDGE_ROW_3_Right_3 VDD VSS gf180mcu_fd_sc_mcu9t5v0__endcap
XPHY_EDGE_ROW_4_Right_4 VDD VSS gf180mcu_fd_sc_mcu9t5v0__endcap
XPHY_EDGE_ROW_5_Right_5 VDD VSS gf180mcu_fd_sc_mcu9t5v0__endcap
XPHY_EDGE_ROW_6_Right_6 VDD VSS gf180mcu_fd_sc_mcu9t5v0__endcap
XPHY_EDGE_ROW_7_Right_7 VDD VSS gf180mcu_fd_sc_mcu9t5v0__endcap
XPHY_EDGE_ROW_8_Right_8 VDD VSS gf180mcu_fd_sc_mcu9t5v0__endcap
XPHY_EDGE_ROW_9_Right_9 VDD VSS gf180mcu_fd_sc_mcu9t5v0__endcap
XPHY_EDGE_ROW_10_Right_10 VDD VSS gf180mcu_fd_sc_mcu9t5v0__endcap
XPHY_EDGE_ROW_11_Right_11 VDD VSS gf180mcu_fd_sc_mcu9t5v0__endcap
XPHY_EDGE_ROW_12_Right_12 VDD VSS gf180mcu_fd_sc_mcu9t5v0__endcap
XPHY_EDGE_ROW_13_Right_13 VDD VSS gf180mcu_fd_sc_mcu9t5v0__endcap
XPHY_EDGE_ROW_14_Right_14 VDD VSS gf180mcu_fd_sc_mcu9t5v0__endcap
XPHY_EDGE_ROW_15_Right_15 VDD VSS gf180mcu_fd_sc_mcu9t5v0__endcap
XPHY_EDGE_ROW_16_Right_16 VDD VSS gf180mcu_fd_sc_mcu9t5v0__endcap
XPHY_EDGE_ROW_17_Right_17 VDD VSS gf180mcu_fd_sc_mcu9t5v0__endcap
XPHY_EDGE_ROW_18_Right_18 VDD VSS gf180mcu_fd_sc_mcu9t5v0__endcap
XPHY_EDGE_ROW_19_Right_19 VDD VSS gf180mcu_fd_sc_mcu9t5v0__endcap
XPHY_EDGE_ROW_20_Right_20 VDD VSS gf180mcu_fd_sc_mcu9t5v0__endcap
XPHY_EDGE_ROW_21_Right_21 VDD VSS gf180mcu_fd_sc_mcu9t5v0__endcap
XPHY_EDGE_ROW_22_Right_22 VDD VSS gf180mcu_fd_sc_mcu9t5v0__endcap
XPHY_EDGE_ROW_23_Right_23 VDD VSS gf180mcu_fd_sc_mcu9t5v0__endcap
XPHY_EDGE_ROW_24_Right_24 VDD VSS gf180mcu_fd_sc_mcu9t5v0__endcap
XPHY_EDGE_ROW_25_Right_25 VDD VSS gf180mcu_fd_sc_mcu9t5v0__endcap
XPHY_EDGE_ROW_26_Right_26 VDD VSS gf180mcu_fd_sc_mcu9t5v0__endcap
XPHY_EDGE_ROW_27_Right_27 VDD VSS gf180mcu_fd_sc_mcu9t5v0__endcap
XPHY_EDGE_ROW_28_Right_28 VDD VSS gf180mcu_fd_sc_mcu9t5v0__endcap
XPHY_EDGE_ROW_29_Right_29 VDD VSS gf180mcu_fd_sc_mcu9t5v0__endcap
XPHY_EDGE_ROW_30_Right_30 VDD VSS gf180mcu_fd_sc_mcu9t5v0__endcap
XPHY_EDGE_ROW_31_Right_31 VDD VSS gf180mcu_fd_sc_mcu9t5v0__endcap
XPHY_EDGE_ROW_32_Right_32 VDD VSS gf180mcu_fd_sc_mcu9t5v0__endcap
XPHY_EDGE_ROW_33_Right_33 VDD VSS gf180mcu_fd_sc_mcu9t5v0__endcap
XPHY_EDGE_ROW_34_Right_34 VDD VSS gf180mcu_fd_sc_mcu9t5v0__endcap
XPHY_EDGE_ROW_35_Right_35 VDD VSS gf180mcu_fd_sc_mcu9t5v0__endcap
XPHY_EDGE_ROW_36_Right_36 VDD VSS gf180mcu_fd_sc_mcu9t5v0__endcap
XPHY_EDGE_ROW_37_Right_37 VDD VSS gf180mcu_fd_sc_mcu9t5v0__endcap
XPHY_EDGE_ROW_38_Right_38 VDD VSS gf180mcu_fd_sc_mcu9t5v0__endcap
XPHY_EDGE_ROW_39_Right_39 VDD VSS gf180mcu_fd_sc_mcu9t5v0__endcap
XPHY_EDGE_ROW_40_Right_40 VDD VSS gf180mcu_fd_sc_mcu9t5v0__endcap
XPHY_EDGE_ROW_41_Right_41 VDD VSS gf180mcu_fd_sc_mcu9t5v0__endcap
XPHY_EDGE_ROW_42_Right_42 VDD VSS gf180mcu_fd_sc_mcu9t5v0__endcap
XPHY_EDGE_ROW_43_Right_43 VDD VSS gf180mcu_fd_sc_mcu9t5v0__endcap
XPHY_EDGE_ROW_44_Right_44 VDD VSS gf180mcu_fd_sc_mcu9t5v0__endcap
XPHY_EDGE_ROW_45_Right_45 VDD VSS gf180mcu_fd_sc_mcu9t5v0__endcap
XPHY_EDGE_ROW_46_Right_46 VDD VSS gf180mcu_fd_sc_mcu9t5v0__endcap
XPHY_EDGE_ROW_47_Right_47 VDD VSS gf180mcu_fd_sc_mcu9t5v0__endcap
XPHY_EDGE_ROW_48_Right_48 VDD VSS gf180mcu_fd_sc_mcu9t5v0__endcap
XPHY_EDGE_ROW_49_Right_49 VDD VSS gf180mcu_fd_sc_mcu9t5v0__endcap
XPHY_EDGE_ROW_50_Right_50 VDD VSS gf180mcu_fd_sc_mcu9t5v0__endcap
XPHY_EDGE_ROW_51_Right_51 VDD VSS gf180mcu_fd_sc_mcu9t5v0__endcap
XPHY_EDGE_ROW_52_Right_52 VDD VSS gf180mcu_fd_sc_mcu9t5v0__endcap
XPHY_EDGE_ROW_53_Right_53 VDD VSS gf180mcu_fd_sc_mcu9t5v0__endcap
XPHY_EDGE_ROW_54_Right_54 VDD VSS gf180mcu_fd_sc_mcu9t5v0__endcap
XPHY_EDGE_ROW_55_Right_55 VDD VSS gf180mcu_fd_sc_mcu9t5v0__endcap
XPHY_EDGE_ROW_56_Right_56 VDD VSS gf180mcu_fd_sc_mcu9t5v0__endcap
XPHY_EDGE_ROW_57_Right_57 VDD VSS gf180mcu_fd_sc_mcu9t5v0__endcap
XPHY_EDGE_ROW_58_Right_58 VDD VSS gf180mcu_fd_sc_mcu9t5v0__endcap
XPHY_EDGE_ROW_59_Right_59 VDD VSS gf180mcu_fd_sc_mcu9t5v0__endcap
XPHY_EDGE_ROW_60_Right_60 VDD VSS gf180mcu_fd_sc_mcu9t5v0__endcap
XPHY_EDGE_ROW_61_Right_61 VDD VSS gf180mcu_fd_sc_mcu9t5v0__endcap
XPHY_EDGE_ROW_62_Right_62 VDD VSS gf180mcu_fd_sc_mcu9t5v0__endcap
XPHY_EDGE_ROW_63_Right_63 VDD VSS gf180mcu_fd_sc_mcu9t5v0__endcap
XPHY_EDGE_ROW_64_Right_64 VDD VSS gf180mcu_fd_sc_mcu9t5v0__endcap
XPHY_EDGE_ROW_65_Right_65 VDD VSS gf180mcu_fd_sc_mcu9t5v0__endcap
XPHY_EDGE_ROW_66_Right_66 VDD VSS gf180mcu_fd_sc_mcu9t5v0__endcap
XPHY_EDGE_ROW_67_Right_67 VDD VSS gf180mcu_fd_sc_mcu9t5v0__endcap
XPHY_EDGE_ROW_68_Right_68 VDD VSS gf180mcu_fd_sc_mcu9t5v0__endcap