* CDL Netlist generated by OpenROAD

*.BUSDELIMITER [

.SUBCKT dynamic_node_top_wrap clk dataIn_E[0] dataIn_E[10]
+ dataIn_E[11] dataIn_E[12] dataIn_E[13] dataIn_E[14] dataIn_E[15]
+ dataIn_E[16] dataIn_E[17] dataIn_E[18] dataIn_E[19] dataIn_E[1]
+ dataIn_E[20] dataIn_E[21] dataIn_E[22] dataIn_E[23] dataIn_E[24]
+ dataIn_E[25] dataIn_E[26] dataIn_E[27] dataIn_E[28] dataIn_E[29]
+ dataIn_E[2] dataIn_E[30] dataIn_E[31] dataIn_E[32] dataIn_E[33]
+ dataIn_E[34] dataIn_E[35] dataIn_E[36] dataIn_E[37] dataIn_E[38]
+ dataIn_E[39] dataIn_E[3] dataIn_E[40] dataIn_E[41] dataIn_E[42]
+ dataIn_E[43] dataIn_E[44] dataIn_E[45] dataIn_E[46] dataIn_E[47]
+ dataIn_E[48] dataIn_E[49] dataIn_E[4] dataIn_E[50] dataIn_E[51]
+ dataIn_E[52] dataIn_E[53] dataIn_E[54] dataIn_E[55] dataIn_E[56]
+ dataIn_E[57] dataIn_E[58] dataIn_E[59] dataIn_E[5] dataIn_E[60]
+ dataIn_E[61] dataIn_E[62] dataIn_E[63] dataIn_E[6] dataIn_E[7]
+ dataIn_E[8] dataIn_E[9] dataIn_N[0] dataIn_N[10] dataIn_N[11]
+ dataIn_N[12] dataIn_N[13] dataIn_N[14] dataIn_N[15] dataIn_N[16]
+ dataIn_N[17] dataIn_N[18] dataIn_N[19] dataIn_N[1] dataIn_N[20]
+ dataIn_N[21] dataIn_N[22] dataIn_N[23] dataIn_N[24] dataIn_N[25]
+ dataIn_N[26] dataIn_N[27] dataIn_N[28] dataIn_N[29] dataIn_N[2]
+ dataIn_N[30] dataIn_N[31] dataIn_N[32] dataIn_N[33] dataIn_N[34]
+ dataIn_N[35] dataIn_N[36] dataIn_N[37] dataIn_N[38] dataIn_N[39]
+ dataIn_N[3] dataIn_N[40] dataIn_N[41] dataIn_N[42] dataIn_N[43]
+ dataIn_N[44] dataIn_N[45] dataIn_N[46] dataIn_N[47] dataIn_N[48]
+ dataIn_N[49] dataIn_N[4] dataIn_N[50] dataIn_N[51] dataIn_N[52]
+ dataIn_N[53] dataIn_N[54] dataIn_N[55] dataIn_N[56] dataIn_N[57]
+ dataIn_N[58] dataIn_N[59] dataIn_N[5] dataIn_N[60] dataIn_N[61]
+ dataIn_N[62] dataIn_N[63] dataIn_N[6] dataIn_N[7] dataIn_N[8]
+ dataIn_N[9] dataIn_P[0] dataIn_P[10] dataIn_P[11] dataIn_P[12]
+ dataIn_P[13] dataIn_P[14] dataIn_P[15] dataIn_P[16] dataIn_P[17]
+ dataIn_P[18] dataIn_P[19] dataIn_P[1] dataIn_P[20] dataIn_P[21]
+ dataIn_P[22] dataIn_P[23] dataIn_P[24] dataIn_P[25] dataIn_P[26]
+ dataIn_P[27] dataIn_P[28] dataIn_P[29] dataIn_P[2] dataIn_P[30]
+ dataIn_P[31] dataIn_P[32] dataIn_P[33] dataIn_P[34] dataIn_P[35]
+ dataIn_P[36] dataIn_P[37] dataIn_P[38] dataIn_P[39] dataIn_P[3]
+ dataIn_P[40] dataIn_P[41] dataIn_P[42] dataIn_P[43] dataIn_P[44]
+ dataIn_P[45] dataIn_P[46] dataIn_P[47] dataIn_P[48] dataIn_P[49]
+ dataIn_P[4] dataIn_P[50] dataIn_P[51] dataIn_P[52] dataIn_P[53]
+ dataIn_P[54] dataIn_P[55] dataIn_P[56] dataIn_P[57] dataIn_P[58]
+ dataIn_P[59] dataIn_P[5] dataIn_P[60] dataIn_P[61] dataIn_P[62]
+ dataIn_P[63] dataIn_P[6] dataIn_P[7] dataIn_P[8] dataIn_P[9]
+ dataIn_S[0] dataIn_S[10] dataIn_S[11] dataIn_S[12] dataIn_S[13]
+ dataIn_S[14] dataIn_S[15] dataIn_S[16] dataIn_S[17] dataIn_S[18]
+ dataIn_S[19] dataIn_S[1] dataIn_S[20] dataIn_S[21] dataIn_S[22]
+ dataIn_S[23] dataIn_S[24] dataIn_S[25] dataIn_S[26] dataIn_S[27]
+ dataIn_S[28] dataIn_S[29] dataIn_S[2] dataIn_S[30] dataIn_S[31]
+ dataIn_S[32] dataIn_S[33] dataIn_S[34] dataIn_S[35] dataIn_S[36]
+ dataIn_S[37] dataIn_S[38] dataIn_S[39] dataIn_S[3] dataIn_S[40]
+ dataIn_S[41] dataIn_S[42] dataIn_S[43] dataIn_S[44] dataIn_S[45]
+ dataIn_S[46] dataIn_S[47] dataIn_S[48] dataIn_S[49] dataIn_S[4]
+ dataIn_S[50] dataIn_S[51] dataIn_S[52] dataIn_S[53] dataIn_S[54]
+ dataIn_S[55] dataIn_S[56] dataIn_S[57] dataIn_S[58] dataIn_S[59]
+ dataIn_S[5] dataIn_S[60] dataIn_S[61] dataIn_S[62] dataIn_S[63]
+ dataIn_S[6] dataIn_S[7] dataIn_S[8] dataIn_S[9] dataIn_W[0]
+ dataIn_W[10] dataIn_W[11] dataIn_W[12] dataIn_W[13] dataIn_W[14]
+ dataIn_W[15] dataIn_W[16] dataIn_W[17] dataIn_W[18] dataIn_W[19]
+ dataIn_W[1] dataIn_W[20] dataIn_W[21] dataIn_W[22] dataIn_W[23]
+ dataIn_W[24] dataIn_W[25] dataIn_W[26] dataIn_W[27] dataIn_W[28]
+ dataIn_W[29] dataIn_W[2] dataIn_W[30] dataIn_W[31] dataIn_W[32]
+ dataIn_W[33] dataIn_W[34] dataIn_W[35] dataIn_W[36] dataIn_W[37]
+ dataIn_W[38] dataIn_W[39] dataIn_W[3] dataIn_W[40] dataIn_W[41]
+ dataIn_W[42] dataIn_W[43] dataIn_W[44] dataIn_W[45] dataIn_W[46]
+ dataIn_W[47] dataIn_W[48] dataIn_W[49] dataIn_W[4] dataIn_W[50]
+ dataIn_W[51] dataIn_W[52] dataIn_W[53] dataIn_W[54] dataIn_W[55]
+ dataIn_W[56] dataIn_W[57] dataIn_W[58] dataIn_W[59] dataIn_W[5]
+ dataIn_W[60] dataIn_W[61] dataIn_W[62] dataIn_W[63] dataIn_W[6]
+ dataIn_W[7] dataIn_W[8] dataIn_W[9] dataOut_E[0] dataOut_E[10]
+ dataOut_E[11] dataOut_E[12] dataOut_E[13] dataOut_E[14] dataOut_E[15]
+ dataOut_E[16] dataOut_E[17] dataOut_E[18] dataOut_E[19] dataOut_E[1]
+ dataOut_E[20] dataOut_E[21] dataOut_E[22] dataOut_E[23] dataOut_E[24]
+ dataOut_E[25] dataOut_E[26] dataOut_E[27] dataOut_E[28] dataOut_E[29]
+ dataOut_E[2] dataOut_E[30] dataOut_E[31] dataOut_E[32] dataOut_E[33]
+ dataOut_E[34] dataOut_E[35] dataOut_E[36] dataOut_E[37] dataOut_E[38]
+ dataOut_E[39] dataOut_E[3] dataOut_E[40] dataOut_E[41] dataOut_E[42]
+ dataOut_E[43] dataOut_E[44] dataOut_E[45] dataOut_E[46] dataOut_E[47]
+ dataOut_E[48] dataOut_E[49] dataOut_E[4] dataOut_E[50] dataOut_E[51]
+ dataOut_E[52] dataOut_E[53] dataOut_E[54] dataOut_E[55] dataOut_E[56]
+ dataOut_E[57] dataOut_E[58] dataOut_E[59] dataOut_E[5] dataOut_E[60]
+ dataOut_E[61] dataOut_E[62] dataOut_E[63] dataOut_E[6] dataOut_E[7]
+ dataOut_E[8] dataOut_E[9] dataOut_N[0] dataOut_N[10] dataOut_N[11]
+ dataOut_N[12] dataOut_N[13] dataOut_N[14] dataOut_N[15] dataOut_N[16]
+ dataOut_N[17] dataOut_N[18] dataOut_N[19] dataOut_N[1] dataOut_N[20]
+ dataOut_N[21] dataOut_N[22] dataOut_N[23] dataOut_N[24] dataOut_N[25]
+ dataOut_N[26] dataOut_N[27] dataOut_N[28] dataOut_N[29] dataOut_N[2]
+ dataOut_N[30] dataOut_N[31] dataOut_N[32] dataOut_N[33] dataOut_N[34]
+ dataOut_N[35] dataOut_N[36] dataOut_N[37] dataOut_N[38] dataOut_N[39]
+ dataOut_N[3] dataOut_N[40] dataOut_N[41] dataOut_N[42] dataOut_N[43]
+ dataOut_N[44] dataOut_N[45] dataOut_N[46] dataOut_N[47] dataOut_N[48]
+ dataOut_N[49] dataOut_N[4] dataOut_N[50] dataOut_N[51] dataOut_N[52]
+ dataOut_N[53] dataOut_N[54] dataOut_N[55] dataOut_N[56] dataOut_N[57]
+ dataOut_N[58] dataOut_N[59] dataOut_N[5] dataOut_N[60] dataOut_N[61]
+ dataOut_N[62] dataOut_N[63] dataOut_N[6] dataOut_N[7] dataOut_N[8]
+ dataOut_N[9] dataOut_P[0] dataOut_P[10] dataOut_P[11] dataOut_P[12]
+ dataOut_P[13] dataOut_P[14] dataOut_P[15] dataOut_P[16] dataOut_P[17]
+ dataOut_P[18] dataOut_P[19] dataOut_P[1] dataOut_P[20] dataOut_P[21]
+ dataOut_P[22] dataOut_P[23] dataOut_P[24] dataOut_P[25] dataOut_P[26]
+ dataOut_P[27] dataOut_P[28] dataOut_P[29] dataOut_P[2] dataOut_P[30]
+ dataOut_P[31] dataOut_P[32] dataOut_P[33] dataOut_P[34] dataOut_P[35]
+ dataOut_P[36] dataOut_P[37] dataOut_P[38] dataOut_P[39] dataOut_P[3]
+ dataOut_P[40] dataOut_P[41] dataOut_P[42] dataOut_P[43] dataOut_P[44]
+ dataOut_P[45] dataOut_P[46] dataOut_P[47] dataOut_P[48] dataOut_P[49]
+ dataOut_P[4] dataOut_P[50] dataOut_P[51] dataOut_P[52] dataOut_P[53]
+ dataOut_P[54] dataOut_P[55] dataOut_P[56] dataOut_P[57] dataOut_P[58]
+ dataOut_P[59] dataOut_P[5] dataOut_P[60] dataOut_P[61] dataOut_P[62]
+ dataOut_P[63] dataOut_P[6] dataOut_P[7] dataOut_P[8] dataOut_P[9]
+ dataOut_S[0] dataOut_S[10] dataOut_S[11] dataOut_S[12] dataOut_S[13]
+ dataOut_S[14] dataOut_S[15] dataOut_S[16] dataOut_S[17] dataOut_S[18]
+ dataOut_S[19] dataOut_S[1] dataOut_S[20] dataOut_S[21] dataOut_S[22]
+ dataOut_S[23] dataOut_S[24] dataOut_S[25] dataOut_S[26] dataOut_S[27]
+ dataOut_S[28] dataOut_S[29] dataOut_S[2] dataOut_S[30] dataOut_S[31]
+ dataOut_S[32] dataOut_S[33] dataOut_S[34] dataOut_S[35] dataOut_S[36]
+ dataOut_S[37] dataOut_S[38] dataOut_S[39] dataOut_S[3] dataOut_S[40]
+ dataOut_S[41] dataOut_S[42] dataOut_S[43] dataOut_S[44] dataOut_S[45]
+ dataOut_S[46] dataOut_S[47] dataOut_S[48] dataOut_S[49] dataOut_S[4]
+ dataOut_S[50] dataOut_S[51] dataOut_S[52] dataOut_S[53] dataOut_S[54]
+ dataOut_S[55] dataOut_S[56] dataOut_S[57] dataOut_S[58] dataOut_S[59]
+ dataOut_S[5] dataOut_S[60] dataOut_S[61] dataOut_S[62] dataOut_S[63]
+ dataOut_S[6] dataOut_S[7] dataOut_S[8] dataOut_S[9] dataOut_W[0]
+ dataOut_W[10] dataOut_W[11] dataOut_W[12] dataOut_W[13] dataOut_W[14]
+ dataOut_W[15] dataOut_W[16] dataOut_W[17] dataOut_W[18] dataOut_W[19]
+ dataOut_W[1] dataOut_W[20] dataOut_W[21] dataOut_W[22] dataOut_W[23]
+ dataOut_W[24] dataOut_W[25] dataOut_W[26] dataOut_W[27] dataOut_W[28]
+ dataOut_W[29] dataOut_W[2] dataOut_W[30] dataOut_W[31] dataOut_W[32]
+ dataOut_W[33] dataOut_W[34] dataOut_W[35] dataOut_W[36] dataOut_W[37]
+ dataOut_W[38] dataOut_W[39] dataOut_W[3] dataOut_W[40] dataOut_W[41]
+ dataOut_W[42] dataOut_W[43] dataOut_W[44] dataOut_W[45] dataOut_W[46]
+ dataOut_W[47] dataOut_W[48] dataOut_W[49] dataOut_W[4] dataOut_W[50]
+ dataOut_W[51] dataOut_W[52] dataOut_W[53] dataOut_W[54] dataOut_W[55]
+ dataOut_W[56] dataOut_W[57] dataOut_W[58] dataOut_W[59] dataOut_W[5]
+ dataOut_W[60] dataOut_W[61] dataOut_W[62] dataOut_W[63] dataOut_W[6]
+ dataOut_W[7] dataOut_W[8] dataOut_W[9] myChipID[0] myChipID[10]
+ myChipID[11] myChipID[12] myChipID[13] myChipID[1] myChipID[2]
+ myChipID[3] myChipID[4] myChipID[5] myChipID[6] myChipID[7]
+ myChipID[8] myChipID[9] myLocX[0] myLocX[1] myLocX[2] myLocX[3]
+ myLocX[4] myLocX[5] myLocX[6] myLocX[7] myLocY[0] myLocY[1]
+ myLocY[2] myLocY[3] myLocY[4] myLocY[5] myLocY[6] myLocY[7]
+ reset_in thanksIn_P validIn_E validIn_N validIn_P validIn_S
+ validIn_W validOut_E validOut_N validOut_P validOut_S validOut_W
+ yummyIn_E yummyIn_N yummyIn_P yummyIn_S yummyIn_W yummyOut_E
+ yummyOut_N yummyOut_P yummyOut_S yummyOut_W
X_10617_ _00013_ _05124_ VDD VSS BUF_X8
XPHY_EDGE_ROW_0_Right_0 VDD VSS TAPCELL_X1
X_10619_ _05124_ _05126_ VDD VSS BUF_X4
X_10620_ _05126_ _05127_ VDD VSS BUF_X8
X_10621_ _00014_ _05128_ VDD VSS BUF_X8
X_10622_ _05128_ _05129_ VDD VSS BUF_X16
X_10623_ _05129_ _05130_ VDD VSS BUF_X32
Xclone2 net658 net2 VDD VSS BUF_X2
X_10625_ _05130_ _05132_ VDD VSS BUF_X32
X_10626_ dynamic_node_top.south_input.NIB.storage_data_f\[1\]\[42\]
+ dynamic_node_top.south_input.NIB.storage_data_f\[3\]\[42\]
+ _05132_ _05133_ VDD VSS MUX2_X1
X_10627_ _05133_ _05134_ VDD VSS INV_X1
X_10628_ _05127_ _05134_ _05135_ VDD VSS NAND2_X1
X_10629_ _05130_ _05136_ VDD VSS BUF_X32
X_10630_ dynamic_node_top.south_input.NIB.storage_data_f\[0\]\[42\]
+ dynamic_node_top.south_input.NIB.storage_data_f\[2\]\[42\]
+ net745 _05137_ VDD VSS MUX2_X1
X_10631_ _05135_ _05137_ _05127_ _05138_ VDD VSS OAI21_X4
X_10632_ _05138_ _10179_ VDD VSS INV_X1
X_10633_ dynamic_node_top.south_input.NIB.storage_data_f\[0\]\[34\]
+ dynamic_node_top.south_input.NIB.storage_data_f\[2\]\[34\]
+ net745 _05139_ VDD VSS MUX2_X1
X_10634_ dynamic_node_top.south_input.NIB.storage_data_f\[1\]\[34\]
+ dynamic_node_top.south_input.NIB.storage_data_f\[3\]\[34\]
+ net745 _05140_ VDD VSS MUX2_X1
X_10635_ _05139_ _05140_ _05126_ _10225_ VDD VSS MUX2_X2
X_10636_ _00016_ _05141_ VDD VSS BUF_X8
X_10637_ _05141_ _05142_ VDD VSS BUF_X16
X_10638_ _05142_ _05143_ VDD VSS BUF_X32
X_10639_ _05143_ _05144_ VDD VSS BUF_X32
XPHY_EDGE_ROW_3_Right_3 VDD VSS TAPCELL_X1
X_10641_ _05144_ _05146_ VDD VSS BUF_X32
X_10642_ _05146_ _05147_ VDD VSS BUF_X32
X_10643_ dynamic_node_top.west_input.NIB.storage_data_f\[0\]\[42\]
+ dynamic_node_top.west_input.NIB.storage_data_f\[2\]\[42\]
+ _05147_ _05148_ VDD VSS MUX2_X1
X_10644_ dynamic_node_top.west_input.NIB.storage_data_f\[1\]\[42\]
+ dynamic_node_top.west_input.NIB.storage_data_f\[3\]\[42\]
+ _05147_ _05149_ VDD VSS MUX2_X1
X_10645_ _00015_ _05150_ VDD VSS CLKBUF_X3
X_10646_ _05150_ _05151_ VDD VSS BUF_X4
X_10647_ _05151_ _05152_ VDD VSS CLKBUF_X3
X_10648_ _05152_ _05153_ VDD VSS BUF_X4
X_10649_ _05148_ _05149_ _05153_ _10249_ VDD VSS MUX2_X2
X_10650_ dynamic_node_top.west_input.NIB.storage_data_f\[0\]\[34\]
+ dynamic_node_top.west_input.NIB.storage_data_f\[2\]\[34\]
+ net739 _05154_ VDD VSS MUX2_X1
X_10651_ dynamic_node_top.west_input.NIB.storage_data_f\[1\]\[34\]
+ dynamic_node_top.west_input.NIB.storage_data_f\[3\]\[34\]
+ net739 _05155_ VDD VSS MUX2_X1
X_10652_ _05154_ _05155_ _05152_ _10252_ VDD VSS MUX2_X2
X_10653_ _00045_ _05156_ VDD VSS BUF_X4
X_10654_ _05156_ _05157_ VDD VSS INV_X2
X_10655_ dynamic_node_top.east_output.control.current_route_f\[3\]
+ _05158_ VDD VSS CLKBUF_X3
X_10656_ dynamic_node_top.east_output.control.current_route_f\[1\]
+ _05159_ VDD VSS CLKBUF_X3
X_10657_ dynamic_node_top.east_output.control.current_route_f\[4\]
+ dynamic_node_top.east_output.control.current_route_f\[2\]
+ _05158_ _05159_ _05160_ VDD VSS NOR4_X4
X_10658_ _05160_ _05161_ VDD VSS INV_X1
X_10659_ _05157_ _05161_ _05162_ VDD VSS NOR2_X1
X_10660_ _05162_ _05163_ VDD VSS BUF_X8
X_10661_ dynamic_node_top.east_output.space.is_one_f _05164_
+ VDD VSS INV_X1
X_10662_ _05164_ dynamic_node_top.east_output.space.valid_f
+ _05165_ VDD VSS NOR2_X1
X_10663_ dynamic_node_top.east_output.space.is_two_or_more_f
+ dynamic_node_top.east_output.space.yummy_f _05165_ _05166_
+ VDD VSS NOR3_X2
X_10664_ dynamic_node_top.east_output.control.current_route_f\[2\]
+ _05167_ VDD VSS CLKBUF_X3
X_10665_ dynamic_node_top.north_input.NIB.elements_in_array_f\[1\]
+ dynamic_node_top.north_input.NIB.elements_in_array_f\[0\]
+ dynamic_node_top.north_input.NIB.elements_in_array_f\[2\]
+ _05168_ VDD VSS OR3_X4
X_10666_ dynamic_node_top.south_input.NIB.elements_in_array_f\[1\]
+ dynamic_node_top.south_input.NIB.elements_in_array_f\[0\]
+ dynamic_node_top.south_input.NIB.elements_in_array_f\[2\]
+ _05169_ VDD VSS OR3_X1
X_10667_ _05169_ _05170_ VDD VSS CLKBUF_X3
X_10668_ dynamic_node_top.east_output.control.current_route_f\[4\]
+ _05171_ VDD VSS CLKBUF_X3
X_10669_ _05167_ _05168_ _05170_ _05171_ _05172_ VDD VSS AOI22_X1
X_10670_ dynamic_node_top.east_output.control.current_route_f\[0\]
+ _05173_ VDD VSS BUF_X2
X_10671_ dynamic_node_top.west_input.NIB.elements_in_array_f\[1\]
+ dynamic_node_top.west_input.NIB.elements_in_array_f\[0\] dynamic_node_top.west_input.NIB.elements_in_array_f\[2\]
+ _05174_ VDD VSS OR3_X1
X_10672_ _05174_ _05175_ VDD VSS CLKBUF_X3
X_10673_ dynamic_node_top.east_input.NIB.elements_in_array_f\[1\]
+ dynamic_node_top.east_input.NIB.elements_in_array_f\[0\] dynamic_node_top.east_input.NIB.elements_in_array_f\[2\]
+ _05176_ VDD VSS OR3_X1
X_10674_ _05176_ _05177_ VDD VSS BUF_X4
X_10675_ _00044_ _05178_ VDD VSS INV_X1
X_10676_ _05173_ _05175_ _05177_ _05178_ _05179_ VDD VSS AOI22_X1
X_10677_ _05172_ _05179_ _05180_ VDD VSS NAND2_X1
X_10678_ dynamic_node_top.proc_input.NIB.elements_in_array_f\[0\]
+ dynamic_node_top.proc_input.NIB.elements_in_array_f\[3\] dynamic_node_top.proc_input.NIB.elements_in_array_f\[2\]
+ dynamic_node_top.proc_input.NIB.elements_in_array_f\[4\] _05181_
+ VDD VSS OR4_X2
X_10679_ dynamic_node_top.proc_input.NIB.elements_in_array_f\[1\]
+ _05181_ _05182_ VDD VSS OR2_X4
X_10680_ _05180_ _05182_ _05158_ _05183_ VDD VSS AOI21_X2
X_10681_ _05163_ _05166_ _05183_ _05184_ VDD VSS NOR3_X4
X_10682_ dynamic_node_top.west_input.control.header_last_temp
+ _05175_ _05185_ VDD VSS NAND2_X4
X_10683_ dynamic_node_top.east_input.control.my_chip_id_in\[1\]
+ _05186_ VDD VSS BUF_X4
X_10684_ dynamic_node_top.west_input.NIB.storage_data_f\[0\]\[51\]
+ dynamic_node_top.west_input.NIB.storage_data_f\[2\]\[51\]
+ _05142_ _05187_ VDD VSS MUX2_X1
X_10685_ dynamic_node_top.west_input.NIB.storage_data_f\[1\]\[51\]
+ dynamic_node_top.west_input.NIB.storage_data_f\[3\]\[51\]
+ _05142_ _05188_ VDD VSS MUX2_X1
X_10686_ _05187_ _05188_ _05150_ _05189_ VDD VSS MUX2_X2
X_10687_ _05186_ _05189_ _05190_ VDD VSS XNOR2_X1
X_10688_ dynamic_node_top.east_input.control.my_chip_id_in\[10\]
+ _05191_ VDD VSS BUF_X4
X_10689_ dynamic_node_top.west_input.NIB.storage_data_f\[0\]\[60\]
+ dynamic_node_top.west_input.NIB.storage_data_f\[2\]\[60\]
+ _05142_ _05192_ VDD VSS MUX2_X1
X_10690_ dynamic_node_top.west_input.NIB.storage_data_f\[1\]\[60\]
+ dynamic_node_top.west_input.NIB.storage_data_f\[3\]\[60\]
+ _05142_ _05193_ VDD VSS MUX2_X1
X_10691_ _05192_ _05193_ _05150_ _05194_ VDD VSS MUX2_X2
X_10692_ _05191_ _05194_ _05195_ VDD VSS XNOR2_X1
X_10693_ _05190_ _05195_ _05196_ VDD VSS NAND2_X2
X_10694_ dynamic_node_top.east_input.control.my_chip_id_in\[12\]
+ _05197_ VDD VSS BUF_X4
X_10695_ dynamic_node_top.west_input.NIB.storage_data_f\[1\]\[62\]
+ dynamic_node_top.west_input.NIB.storage_data_f\[3\]\[62\]
+ net736 _05198_ VDD VSS MUX2_X1
X_10696_ dynamic_node_top.west_input.NIB.storage_data_f\[0\]\[62\]
+ dynamic_node_top.west_input.NIB.storage_data_f\[2\]\[62\]
+ net736 _05199_ VDD VSS MUX2_X1
X_10697_ _05150_ _05200_ VDD VSS INV_X2
X_10698_ _05200_ _05201_ VDD VSS BUF_X4
X_10699_ _05198_ _05199_ _05201_ _05202_ VDD VSS MUX2_X1
X_10700_ _05197_ _05202_ _05203_ VDD VSS XNOR2_X2
X_10701_ dynamic_node_top.east_input.control.my_chip_id_in\[6\]
+ _05204_ VDD VSS BUF_X4
X_10702_ dynamic_node_top.west_input.NIB.storage_data_f\[1\]\[56\]
+ dynamic_node_top.west_input.NIB.storage_data_f\[3\]\[56\]
+ net736 _05205_ VDD VSS MUX2_X1
X_10703_ dynamic_node_top.west_input.NIB.storage_data_f\[0\]\[56\]
+ dynamic_node_top.west_input.NIB.storage_data_f\[2\]\[56\]
+ net736 _05206_ VDD VSS MUX2_X1
X_10704_ _05205_ _05206_ _05201_ _05207_ VDD VSS MUX2_X1
X_10705_ _05204_ _05207_ _05208_ VDD VSS XNOR2_X2
X_10706_ dynamic_node_top.east_input.control.my_chip_id_in\[5\]
+ _05209_ VDD VSS BUF_X4
X_10707_ dynamic_node_top.west_input.NIB.storage_data_f\[1\]\[55\]
+ dynamic_node_top.west_input.NIB.storage_data_f\[3\]\[55\]
+ net736 _05210_ VDD VSS MUX2_X1
X_10708_ net672 _05211_ VDD VSS CLKBUF_X3
X_10709_ dynamic_node_top.west_input.NIB.storage_data_f\[0\]\[55\]
+ dynamic_node_top.west_input.NIB.storage_data_f\[2\]\[55\]
+ _05211_ _05212_ VDD VSS MUX2_X1
X_10710_ _05210_ _05212_ _05201_ _05213_ VDD VSS MUX2_X1
X_10711_ _05209_ _05213_ _05214_ VDD VSS XNOR2_X2
X_10712_ dynamic_node_top.east_input.control.my_chip_id_in\[8\]
+ _05215_ VDD VSS BUF_X4
X_10713_ dynamic_node_top.west_input.NIB.storage_data_f\[1\]\[58\]
+ dynamic_node_top.west_input.NIB.storage_data_f\[3\]\[58\]
+ _05211_ _05216_ VDD VSS MUX2_X1
X_10714_ dynamic_node_top.west_input.NIB.storage_data_f\[0\]\[58\]
+ dynamic_node_top.west_input.NIB.storage_data_f\[2\]\[58\]
+ _05211_ _05217_ VDD VSS MUX2_X1
X_10715_ _05216_ _05217_ _05201_ _05218_ VDD VSS MUX2_X1
X_10716_ _05215_ _05218_ _05219_ VDD VSS XNOR2_X2
X_10717_ _05203_ _05208_ _05214_ _05219_ _05220_ VDD VSS NAND4_X4
X_10718_ dynamic_node_top.east_input.control.my_chip_id_in\[13\]
+ _05221_ VDD VSS BUF_X4
X_10719_ dynamic_node_top.west_input.NIB.storage_data_f\[1\]\[63\]
+ dynamic_node_top.west_input.NIB.storage_data_f\[3\]\[63\]
+ _05211_ _05222_ VDD VSS MUX2_X1
X_10720_ dynamic_node_top.west_input.NIB.storage_data_f\[0\]\[63\]
+ dynamic_node_top.west_input.NIB.storage_data_f\[2\]\[63\]
+ _05211_ _05223_ VDD VSS MUX2_X1
X_10721_ _05222_ _05223_ _05201_ _05224_ VDD VSS MUX2_X1
X_10722_ _05221_ _05224_ _05225_ VDD VSS XNOR2_X1
X_10723_ dynamic_node_top.east_input.control.my_chip_id_in\[9\]
+ _05226_ VDD VSS BUF_X4
X_10724_ dynamic_node_top.west_input.NIB.storage_data_f\[1\]\[59\]
+ dynamic_node_top.west_input.NIB.storage_data_f\[3\]\[59\]
+ _05211_ _05227_ VDD VSS MUX2_X1
X_10725_ dynamic_node_top.west_input.NIB.storage_data_f\[0\]\[59\]
+ dynamic_node_top.west_input.NIB.storage_data_f\[2\]\[59\]
+ _05211_ _05228_ VDD VSS MUX2_X1
X_10726_ _05227_ _05228_ _05201_ _05229_ VDD VSS MUX2_X1
X_10727_ _05226_ _05229_ _05230_ VDD VSS XNOR2_X1
X_10728_ dynamic_node_top.east_input.control.my_chip_id_in\[7\]
+ _05231_ VDD VSS BUF_X4
X_10729_ dynamic_node_top.west_input.NIB.storage_data_f\[1\]\[57\]
+ dynamic_node_top.west_input.NIB.storage_data_f\[3\]\[57\]
+ _05211_ _05232_ VDD VSS MUX2_X1
X_10730_ dynamic_node_top.west_input.NIB.storage_data_f\[0\]\[57\]
+ dynamic_node_top.west_input.NIB.storage_data_f\[2\]\[57\]
+ _05141_ _05233_ VDD VSS MUX2_X1
X_10731_ _05232_ _05233_ _05200_ _05234_ VDD VSS MUX2_X1
X_10732_ _05231_ _05234_ _05235_ VDD VSS XNOR2_X1
X_10733_ dynamic_node_top.east_input.control.my_chip_id_in\[11\]
+ _05236_ VDD VSS BUF_X4
X_10734_ dynamic_node_top.west_input.NIB.storage_data_f\[1\]\[61\]
+ dynamic_node_top.west_input.NIB.storage_data_f\[3\]\[61\]
+ net735 _05237_ VDD VSS MUX2_X1
X_10735_ dynamic_node_top.west_input.NIB.storage_data_f\[0\]\[61\]
+ dynamic_node_top.west_input.NIB.storage_data_f\[2\]\[61\]
+ net735 _05238_ VDD VSS MUX2_X1
X_10736_ _05237_ _05238_ _05200_ _05239_ VDD VSS MUX2_X1
X_10737_ _05236_ _05239_ _05240_ VDD VSS XNOR2_X1
X_10738_ _05225_ _05230_ _05235_ _05240_ _05241_ VDD VSS NAND4_X2
X_10739_ dynamic_node_top.east_input.control.my_chip_id_in\[3\]
+ _05242_ VDD VSS BUF_X4
X_10740_ dynamic_node_top.west_input.NIB.storage_data_f\[1\]\[53\]
+ dynamic_node_top.west_input.NIB.storage_data_f\[3\]\[53\]
+ _05211_ _05243_ VDD VSS MUX2_X1
X_10741_ dynamic_node_top.west_input.NIB.storage_data_f\[0\]\[53\]
+ dynamic_node_top.west_input.NIB.storage_data_f\[2\]\[53\]
+ _05211_ _05244_ VDD VSS MUX2_X1
X_10742_ _05243_ _05244_ _05201_ _05245_ VDD VSS MUX2_X1
X_10743_ _05242_ _05245_ _05246_ VDD VSS XNOR2_X1
X_10744_ dynamic_node_top.east_input.control.my_chip_id_in\[0\]
+ _05247_ VDD VSS BUF_X4
X_10745_ dynamic_node_top.west_input.NIB.storage_data_f\[1\]\[50\]
+ dynamic_node_top.west_input.NIB.storage_data_f\[3\]\[50\]
+ net735 _05248_ VDD VSS MUX2_X1
X_10746_ dynamic_node_top.west_input.NIB.storage_data_f\[0\]\[50\]
+ dynamic_node_top.west_input.NIB.storage_data_f\[2\]\[50\]
+ net735 _05249_ VDD VSS MUX2_X1
X_10747_ _05248_ _05249_ _05200_ _05250_ VDD VSS MUX2_X1
X_10748_ _05247_ _05250_ _05251_ VDD VSS XNOR2_X1
X_10749_ dynamic_node_top.east_input.control.my_chip_id_in\[4\]
+ _05252_ VDD VSS BUF_X4
X_10750_ dynamic_node_top.west_input.NIB.storage_data_f\[1\]\[54\]
+ dynamic_node_top.west_input.NIB.storage_data_f\[3\]\[54\]
+ _05141_ _05253_ VDD VSS MUX2_X1
X_10751_ dynamic_node_top.west_input.NIB.storage_data_f\[0\]\[54\]
+ dynamic_node_top.west_input.NIB.storage_data_f\[2\]\[54\]
+ net735 _05254_ VDD VSS MUX2_X1
X_10752_ _05253_ _05254_ _05200_ _05255_ VDD VSS MUX2_X1
X_10753_ _05252_ _05255_ _05256_ VDD VSS XNOR2_X1
X_10754_ dynamic_node_top.east_input.control.my_chip_id_in\[2\]
+ _05257_ VDD VSS BUF_X4
X_10755_ dynamic_node_top.west_input.NIB.storage_data_f\[1\]\[52\]
+ dynamic_node_top.west_input.NIB.storage_data_f\[3\]\[52\]
+ _05141_ _05258_ VDD VSS MUX2_X1
X_10756_ dynamic_node_top.west_input.NIB.storage_data_f\[0\]\[52\]
+ dynamic_node_top.west_input.NIB.storage_data_f\[2\]\[52\]
+ _05141_ _05259_ VDD VSS MUX2_X1
X_10757_ _05258_ _05259_ _05200_ _05260_ VDD VSS MUX2_X1
X_10758_ _05257_ _05260_ _05261_ VDD VSS XNOR2_X1
X_10759_ _05246_ _05251_ _05256_ _05261_ _05262_ VDD VSS NAND4_X2
X_10760_ _05196_ _05220_ _05241_ _05262_ _05263_ VDD VSS NOR4_X4
X_10761_ _10230_ _10233_ _10236_ _10239_ _05264_ VDD VSS NAND4_X4
X_10762_ _10242_ _10245_ _10248_ _10251_ _05265_ VDD VSS NAND4_X1
X_10763_ net734 _05265_ _05266_ VDD VSS NOR2_X4
X_10764_ _10275_ _10272_ _10254_ _10257_ _05267_ VDD VSS AND4_X2
X_10765_ _10269_ _10266_ _05268_ VDD VSS AND2_X2
X_10766_ _10260_ _10263_ _05267_ _05268_ _05269_ VDD VSS AND4_X4
X_10767_ _05266_ _05269_ _05270_ VDD VSS NAND2_X4
X_10768_ dynamic_node_top.west_input.NIB.storage_data_f\[0\]\[30\]
+ dynamic_node_top.west_input.NIB.storage_data_f\[2\]\[30\]
+ net739 _05271_ VDD VSS MUX2_X1
X_10769_ dynamic_node_top.west_input.NIB.storage_data_f\[1\]\[30\]
+ dynamic_node_top.west_input.NIB.storage_data_f\[3\]\[30\]
+ net739 _05272_ VDD VSS MUX2_X1
X_10770_ _05271_ _05272_ _05151_ _05273_ VDD VSS MUX2_X2
X_10771_ _05273_ _05274_ VDD VSS INV_X2
X_10772_ dynamic_node_top.west_input.NIB.storage_data_f\[0\]\[32\]
+ dynamic_node_top.west_input.NIB.storage_data_f\[2\]\[32\]
+ net738 _05275_ VDD VSS MUX2_X1
X_10773_ dynamic_node_top.west_input.NIB.storage_data_f\[1\]\[32\]
+ dynamic_node_top.west_input.NIB.storage_data_f\[3\]\[32\]
+ net738 _05276_ VDD VSS MUX2_X1
X_10774_ _05275_ _05276_ _05152_ _05277_ VDD VSS MUX2_X2
X_10775_ dynamic_node_top.west_input.NIB.storage_data_f\[0\]\[31\]
+ dynamic_node_top.west_input.NIB.storage_data_f\[2\]\[31\]
+ net739 _05278_ VDD VSS MUX2_X1
X_10776_ _05152_ _05278_ _05279_ VDD VSS OR2_X1
X_10777_ dynamic_node_top.west_input.NIB.storage_data_f\[1\]\[31\]
+ dynamic_node_top.west_input.NIB.storage_data_f\[3\]\[31\]
+ net738 _05280_ VDD VSS MUX2_X1
X_10778_ _05279_ _05280_ _05201_ _05281_ VDD VSS OAI21_X2
X_10779_ _05274_ _05277_ _05281_ _05282_ VDD VSS NAND3_X2
X_10780_ _05270_ _05282_ _05283_ VDD VSS NOR2_X4
X_10781_ _05264_ _05284_ VDD VSS INV_X1
X_10782_ _10241_ _05285_ VDD VSS INV_X1
X_10783_ _10247_ _05286_ VDD VSS INV_X1
X_10784_ _10248_ _05287_ VDD VSS INV_X1
X_10785_ _05286_ _05287_ _10250_ _05288_ VDD VSS OAI21_X2
X_10786_ _10244_ _05288_ _10245_ _05289_ VDD VSS AOI21_X2
X_10787_ _10242_ _05290_ VDD VSS INV_X1
X_10788_ _05285_ _05289_ _05290_ _05291_ VDD VSS OAI21_X2
X_10789_ _10232_ _05292_ VDD VSS INV_X1
X_10790_ _10235_ _10236_ _10238_ _05293_ VDD VSS AOI21_X1
X_10791_ _10233_ _05294_ VDD VSS INV_X1
X_10792_ _05292_ _05293_ _05294_ _05295_ VDD VSS OAI21_X1
X_10793_ _10229_ _05284_ _05291_ _05295_ net635 _05296_ VDD
+ VSS AOI221_X2
X_10794_ _05263_ _05283_ net770 _05297_ VDD VSS OAI21_X4
X_10795_ dynamic_node_top.east_input.control.my_loc_x_in\[5\]
+ dynamic_node_top.east_input.control.my_loc_x_in\[4\] dynamic_node_top.east_input.control.my_loc_x_in\[7\]
+ dynamic_node_top.east_input.control.my_loc_x_in\[6\] _05298_
+ VDD VSS NOR4_X4
X_10796_ dynamic_node_top.east_input.control.my_loc_x_in\[1\]
+ dynamic_node_top.east_input.control.my_loc_x_in\[0\] dynamic_node_top.east_input.control.my_loc_x_in\[3\]
+ dynamic_node_top.east_input.control.my_loc_x_in\[2\] _05299_
+ VDD VSS NOR4_X4
X_10797_ _05298_ _05299_ _05300_ VDD VSS AND2_X2
X_10798_ dynamic_node_top.east_input.control.my_loc_y_in\[3\]
+ dynamic_node_top.east_input.control.my_loc_y_in\[2\] dynamic_node_top.east_input.control.my_loc_y_in\[1\]
+ dynamic_node_top.east_input.control.my_loc_y_in\[0\] _05301_
+ VDD VSS NOR4_X4
X_10799_ dynamic_node_top.east_input.control.my_loc_y_in\[7\]
+ dynamic_node_top.east_input.control.my_loc_y_in\[6\] dynamic_node_top.east_input.control.my_loc_y_in\[5\]
+ dynamic_node_top.east_input.control.my_loc_y_in\[4\] _05302_
+ VDD VSS NOR4_X4
X_10800_ _05301_ _05302_ _05303_ VDD VSS AND2_X2
X_10801_ _05300_ _05303_ _05304_ VDD VSS NAND2_X4
X_10802_ _05282_ _05263_ _05304_ _05305_ VDD VSS OR3_X2
X_10803_ _05185_ _05297_ _05305_ _05306_ VDD VSS AOI21_X4
X_10804_ _00046_ _05307_ VDD VSS INV_X2
X_10805_ _05184_ _05306_ _05307_ _05308_ VDD VSS OAI21_X4
X_10806_ _05308_ net621 VDD VSS INV_X2
X_10807_ _00008_ _05309_ VDD VSS BUF_X8
X_10808_ _05309_ _05310_ VDD VSS BUF_X32
XPHY_EDGE_ROW_5_Right_5 VDD VSS TAPCELL_X1
X_10810_ _05310_ _05312_ VDD VSS BUF_X16
X_10811_ dynamic_node_top.north_input.NIB.storage_data_f\[0\]\[42\]
+ dynamic_node_top.north_input.NIB.storage_data_f\[2\]\[42\]
+ _05312_ _05313_ VDD VSS MUX2_X1
X_10812_ _05310_ _05314_ VDD VSS BUF_X32
X_10813_ _05314_ _05315_ VDD VSS BUF_X32
X_10814_ dynamic_node_top.north_input.NIB.storage_data_f\[1\]\[42\]
+ dynamic_node_top.north_input.NIB.storage_data_f\[3\]\[42\]
+ _05315_ _05316_ VDD VSS MUX2_X1
X_10815_ _00007_ _05317_ VDD VSS BUF_X8
Xclone1 _05345_ _05454_ _05452_ net1 VDD VSS AOI21_X2
X_10817_ _05317_ _05319_ VDD VSS BUF_X8
X_10818_ _05319_ _05320_ VDD VSS BUF_X4
X_10819_ _05320_ _05321_ VDD VSS BUF_X8
X_10820_ _05313_ _05316_ _05321_ _10276_ VDD VSS MUX2_X2
X_10821_ dynamic_node_top.north_input.NIB.storage_data_f\[0\]\[34\]
+ dynamic_node_top.north_input.NIB.storage_data_f\[2\]\[34\]
+ _05314_ _05322_ VDD VSS MUX2_X1
X_10822_ _05320_ _05322_ _05323_ VDD VSS OR2_X1
X_10823_ dynamic_node_top.north_input.NIB.storage_data_f\[1\]\[34\]
+ dynamic_node_top.north_input.NIB.storage_data_f\[3\]\[34\]
+ _05312_ _05324_ VDD VSS MUX2_X1
X_10824_ _05317_ _05325_ VDD VSS INV_X2
X_10825_ _05325_ _05326_ VDD VSS BUF_X8
X_10826_ _05323_ _05324_ _05326_ _05327_ VDD VSS OAI21_X4
X_10827_ _05327_ _10321_ VDD VSS INV_X1
X_10828_ _00048_ _05328_ VDD VSS BUF_X4
X_10829_ dynamic_node_top.south_output.control.current_route_f\[4\]
+ _05329_ VDD VSS CLKBUF_X3
X_10830_ dynamic_node_top.south_output.control.current_route_f\[2\]
+ _05330_ VDD VSS CLKBUF_X3
X_10831_ dynamic_node_top.south_output.control.current_route_f\[3\]
+ _05331_ VDD VSS CLKBUF_X3
X_10832_ dynamic_node_top.south_output.control.current_route_f\[1\]
+ _05332_ VDD VSS CLKBUF_X3
X_10833_ _05329_ _05330_ _05331_ _05332_ _05333_ VDD VSS NOR4_X4
X_10834_ _05328_ _05333_ _05334_ VDD VSS AND2_X1
X_10835_ dynamic_node_top.south_output.space.is_one_f _05335_
+ VDD VSS INV_X1
X_10836_ _05335_ dynamic_node_top.south_output.space.valid_f
+ _05336_ VDD VSS NOR2_X1
X_10837_ dynamic_node_top.south_output.space.is_two_or_more_f
+ dynamic_node_top.south_output.space.yummy_f _05336_ _05337_
+ VDD VSS NOR3_X2
X_10838_ dynamic_node_top.south_output.control.current_route_f\[0\]
+ _05338_ VDD VSS BUF_X2
X_10839_ _05338_ _05168_ _05177_ _05331_ _05339_ VDD VSS AOI22_X1
X_10840_ _00047_ _05340_ VDD VSS INV_X1
X_10841_ _05340_ _05170_ _05175_ _05330_ _05341_ VDD VSS AOI22_X1
X_10842_ _05339_ _05341_ _05342_ VDD VSS NAND2_X1
X_10843_ _05342_ _05182_ _05329_ _05343_ VDD VSS AOI21_X1
X_10844_ _05334_ _05337_ _05343_ _05344_ VDD VSS NOR3_X2
X_10845_ _05344_ _05345_ VDD VSS INV_X1
X_10846_ dynamic_node_top.north_input.control.header_last_temp
+ _05168_ _05346_ VDD VSS NAND2_X1
X_10847_ _10281_ _10284_ _10287_ _10290_ _05347_ VDD VSS AND4_X2
X_10848_ _10296_ _10299_ _05348_ VDD VSS AND2_X2
X_10849_ _10278_ _10293_ _05347_ _05348_ _05349_ VDD VSS NAND4_X4
X_10850_ _05349_ _05346_ _05350_ VDD VSS NOR2_X2
X_10851_ _10308_ _10305_ _10302_ _10311_ _05351_ VDD VSS AND4_X4
X_10852_ _10313_ _10316_ net681 _05352_ VDD VSS AOI21_X1
X_10853_ net681 _10317_ _05353_ VDD VSS NAND2_X1
X_10854_ _10322_ _05354_ VDD VSS INV_X1
X_10855_ _10319_ _05354_ _10320_ _05355_ VDD VSS AOI21_X1
X_10856_ _05352_ _05353_ _05355_ _05356_ VDD VSS OAI21_X1
X_10857_ _10304_ _05357_ VDD VSS INV_X1
X_10858_ _10307_ net633 _10310_ _05358_ VDD VSS AOI21_X1
X_10859_ _10305_ _05359_ VDD VSS INV_X1
X_10860_ _05357_ _05358_ _05359_ _05360_ VDD VSS OAI21_X1