* CDL Netlist generated by OpenROAD

*.BUSDELIMITER [

.SUBCKT fwft_fifo almost_empty almost_full clk data_count[0]
+ data_count[1] data_count[2] data_count[3] data_count[4] empty
+ full rd_data[0] rd_data[1] rd_data[2] rd_data[3] rd_data[4]
+ rd_data[5] rd_data[6] rd_data[7] rd_en rst_n wr_data[0] wr_data[1]
+ wr_data[2] wr_data[3] wr_data[4] wr_data[5] wr_data[6] wr_data[7]
+ wr_en
X_0631_ _0614_ _0161_ VDD VSS BUF_X2
X_0632_ _0619_ _0616_ _0162_ VDD VSS AND2_X1
X_0633_ _0629_ _0610_ VDD VSS INV_X1
X_0634_ _0618_ _0162_ _0610_ _0615_ _0619_ _0163_ VDD VSS
+ AOI221_X4
X_0635_ _0161_ _0163_ _0164_ VDD VSS XOR2_X2
X_0636_ _0164_ net6 VDD VSS INV_X2
X_0637_ _0619_ _0611_ _0165_ VDD VSS XNOR2_X2
X_0638_ _0165_ net5 VDD VSS INV_X4
X_0639_ _0161_ _0619_ _0166_ VDD VSS AND2_X1
X_0640_ _0613_ _0618_ _0161_ _0166_ _0611_ _0167_ VDD VSS
+ AOI221_X2
X_0641_ rd_ptr\[4\] _0168_ VDD VSS CLKBUF_X2
X_0642_ wr_ptr\[4\] _0168_ _0169_ VDD VSS XNOR2_X2
X_0643_ _0167_ _0169_ _0170_ VDD VSS XOR2_X2
X_0644_ _0170_ _0171_ VDD VSS INV_X4
X_0645_ _0171_ net7 VDD VSS BUF_X8
X_0646_ _0630_ net3 VDD VSS INV_X2
X_0647_ _0170_ _0172_ VDD VSS BUF_X8
X_0648_ _0172_ _0173_ VDD VSS BUF_X4
X_0649_ net4 _0174_ VDD VSS CLKBUF_X2
X_0650_ _0174_ _0175_ VDD VSS INV_X1
X_0651_ _0161_ _0630_ _0175_ _0165_ _0176_ VDD VSS NAND4_X1
X_0652_ _0161_ net3 _0174_ net5 _0177_ VDD VSS OR4_X1
X_0653_ _0176_ _0177_ _0163_ _0178_ VDD VSS MUX2_X2
X_0654_ _0178_ _0179_ VDD VSS BUF_X8
X_0655_ _0173_ _0179_ net9 VDD VSS NOR2_X4
X_0656_ wr_data[0] _0180_ VDD VSS CLKBUF_X2
X_0657_ _0180_ _0181_ VDD VSS BUF_X2
X_0658_ wr_ptr\[2\] _0182_ VDD VSS INV_X4
X_0659_ wr_en _0183_ VDD VSS BUF_X2
X_0660_ _0183_ _0184_ VDD VSS INV_X4
X_0661_ wr_ptr\[3\] _0185_ VDD VSS BUF_X4
X_0662_ _0184_ _0185_ _0186_ VDD VSS NOR2_X4
X_0663_ _0182_ _0622_ _0186_ _0187_ VDD VSS NAND3_X2
X_0664_ _0161_ _0630_ _0175_ _0165_ _0188_ VDD VSS AND4_X1
X_0665_ _0161_ net3 _0174_ net5 _0189_ VDD VSS NOR4_X1
X_0666_ _0188_ _0189_ _0163_ _0190_ VDD VSS MUX2_X2
X_0667_ _0190_ _0191_ VDD VSS BUF_X8
X_0668_ _0187_ _0191_ net7 _0192_ VDD VSS AOI21_X4
X_0669_ mem\[0\]\[0\] _0181_ _0192_ _0012_ VDD VSS MUX2_X1
X_0670_ wr_data[1] _0193_ VDD VSS CLKBUF_X2
X_0671_ _0193_ _0194_ VDD VSS BUF_X2
X_0672_ mem\[0\]\[1\] _0194_ _0192_ _0013_ VDD VSS MUX2_X1
X_0673_ wr_data[2] _0195_ VDD VSS CLKBUF_X2
X_0674_ _0195_ _0196_ VDD VSS BUF_X2
X_0675_ mem\[0\]\[2\] _0196_ _0192_ _0014_ VDD VSS MUX2_X1
X_0676_ wr_data[3] _0197_ VDD VSS CLKBUF_X2
X_0677_ _0197_ _0198_ VDD VSS BUF_X2
X_0678_ mem\[0\]\[3\] _0198_ _0192_ _0015_ VDD VSS MUX2_X1
X_0679_ wr_data[4] _0199_ VDD VSS CLKBUF_X2
X_0680_ _0199_ _0200_ VDD VSS BUF_X2
X_0681_ mem\[0\]\[4\] _0200_ _0192_ _0016_ VDD VSS MUX2_X1
X_0682_ wr_data[5] _0201_ VDD VSS BUF_X1
X_0683_ _0201_ _0202_ VDD VSS BUF_X2
X_0684_ mem\[0\]\[5\] _0202_ _0192_ _0017_ VDD VSS MUX2_X1
X_0685_ wr_data[6] _0203_ VDD VSS BUF_X1
X_0686_ _0203_ _0204_ VDD VSS BUF_X2
X_0687_ mem\[0\]\[6\] _0204_ _0192_ _0018_ VDD VSS MUX2_X1
X_0688_ wr_data[7] _0205_ VDD VSS CLKBUF_X2
X_0689_ _0205_ _0206_ VDD VSS BUF_X2
X_0690_ mem\[0\]\[7\] _0206_ _0192_ _0019_ VDD VSS MUX2_X1
X_0691_ wr_ptr\[2\] _0207_ VDD VSS BUF_X4
X_0692_ _0623_ _0208_ VDD VSS INV_X1
X_0693_ _0183_ _0185_ _0209_ VDD VSS NAND2_X1
X_0694_ _0207_ _0208_ _0209_ _0210_ VDD VSS NOR3_X2
X_0695_ _0210_ _0179_ _0172_ _0211_ VDD VSS OAI21_X4
X_0696_ _0181_ mem\[10\]\[0\] _0211_ _0020_ VDD VSS MUX2_X1
X_0697_ _0194_ mem\[10\]\[1\] _0211_ _0021_ VDD VSS MUX2_X1
X_0698_ _0196_ mem\[10\]\[2\] _0211_ _0022_ VDD VSS MUX2_X1
X_0699_ _0198_ mem\[10\]\[3\] _0211_ _0023_ VDD VSS MUX2_X1
X_0700_ _0200_ mem\[10\]\[4\] _0211_ _0024_ VDD VSS MUX2_X1
X_0701_ _0202_ mem\[10\]\[5\] _0211_ _0025_ VDD VSS MUX2_X1
X_0702_ _0204_ mem\[10\]\[6\] _0211_ _0026_ VDD VSS MUX2_X1
X_0703_ _0206_ mem\[10\]\[7\] _0211_ _0027_ VDD VSS MUX2_X1
X_0704_ _0627_ _0212_ VDD VSS INV_X1
X_0705_ _0207_ _0212_ _0209_ _0213_ VDD VSS NOR3_X2
X_0706_ _0213_ _0179_ _0172_ _0214_ VDD VSS OAI21_X4
X_0707_ _0181_ mem\[11\]\[0\] _0214_ _0028_ VDD VSS MUX2_X1
X_0708_ _0194_ mem\[11\]\[1\] _0214_ _0029_ VDD VSS MUX2_X1
X_0709_ _0196_ mem\[11\]\[2\] _0214_ _0030_ VDD VSS MUX2_X1
X_0710_ _0198_ mem\[11\]\[3\] _0214_ _0031_ VDD VSS MUX2_X1
X_0711_ _0200_ mem\[11\]\[4\] _0214_ _0032_ VDD VSS MUX2_X1
X_0712_ _0202_ mem\[11\]\[5\] _0214_ _0033_ VDD VSS MUX2_X1
X_0713_ _0204_ mem\[11\]\[6\] _0214_ _0034_ VDD VSS MUX2_X1
X_0714_ _0206_ mem\[11\]\[7\] _0214_ _0035_ VDD VSS MUX2_X1
X_0715_ _0183_ _0185_ _0215_ VDD VSS AND2_X2
X_0716_ _0207_ _0622_ _0215_ _0216_ VDD VSS NAND3_X2
X_0717_ _0216_ _0191_ net7 _0217_ VDD VSS AOI21_X4
X_0718_ mem\[12\]\[0\] _0181_ _0217_ _0036_ VDD VSS MUX2_X1
X_0719_ mem\[12\]\[1\] _0194_ _0217_ _0037_ VDD VSS MUX2_X1
X_0720_ mem\[12\]\[2\] _0196_ _0217_ _0038_ VDD VSS MUX2_X1
X_0721_ mem\[12\]\[3\] _0198_ _0217_ _0039_ VDD VSS MUX2_X1
X_0722_ mem\[12\]\[4\] _0200_ _0217_ _0040_ VDD VSS MUX2_X1
X_0723_ mem\[12\]\[5\] _0202_ _0217_ _0041_ VDD VSS MUX2_X1
X_0724_ mem\[12\]\[6\] _0204_ _0217_ _0042_ VDD VSS MUX2_X1
X_0725_ mem\[12\]\[7\] _0206_ _0217_ _0043_ VDD VSS MUX2_X1
X_0726_ _0207_ _0625_ _0215_ _0218_ VDD VSS NAND3_X2
X_0727_ _0218_ _0191_ net7 _0219_ VDD VSS AOI21_X4
X_0728_ mem\[13\]\[0\] _0181_ _0219_ _0044_ VDD VSS MUX2_X1
X_0729_ mem\[13\]\[1\] _0194_ _0219_ _0045_ VDD VSS MUX2_X1
X_0730_ mem\[13\]\[2\] _0196_ _0219_ _0046_ VDD VSS MUX2_X1
X_0731_ mem\[13\]\[3\] _0198_ _0219_ _0047_ VDD VSS MUX2_X1
X_0732_ mem\[13\]\[4\] _0200_ _0219_ _0048_ VDD VSS MUX2_X1
X_0733_ mem\[13\]\[5\] _0202_ _0219_ _0049_ VDD VSS MUX2_X1
X_0734_ mem\[13\]\[6\] _0204_ _0219_ _0050_ VDD VSS MUX2_X1
X_0735_ mem\[13\]\[7\] _0206_ _0219_ _0051_ VDD VSS MUX2_X1
X_0736_ _0207_ _0623_ _0215_ _0220_ VDD VSS NAND3_X2
X_0737_ _0220_ _0191_ _0171_ _0221_ VDD VSS AOI21_X4
X_0738_ mem\[14\]\[0\] _0181_ _0221_ _0052_ VDD VSS MUX2_X1
X_0739_ mem\[14\]\[1\] _0194_ _0221_ _0053_ VDD VSS MUX2_X1
X_0740_ mem\[14\]\[2\] _0196_ _0221_ _0054_ VDD VSS MUX2_X1
X_0741_ mem\[14\]\[3\] _0198_ _0221_ _0055_ VDD VSS MUX2_X1
X_0742_ mem\[14\]\[4\] _0200_ _0221_ _0056_ VDD VSS MUX2_X1
X_0743_ mem\[14\]\[5\] _0202_ _0221_ _0057_ VDD VSS MUX2_X1
X_0744_ mem\[14\]\[6\] _0204_ _0221_ _0058_ VDD VSS MUX2_X1
X_0745_ mem\[14\]\[7\] _0206_ _0221_ _0059_ VDD VSS MUX2_X1
X_0746_ _0207_ _0627_ _0215_ _0222_ VDD VSS NAND3_X2
X_0747_ _0222_ _0191_ _0171_ _0223_ VDD VSS AOI21_X4
X_0748_ mem\[15\]\[0\] _0181_ _0223_ _0060_ VDD VSS MUX2_X1
X_0749_ mem\[15\]\[1\] _0194_ _0223_ _0061_ VDD VSS MUX2_X1
X_0750_ mem\[15\]\[2\] _0196_ _0223_ _0062_ VDD VSS MUX2_X1
X_0751_ mem\[15\]\[3\] _0198_ _0223_ _0063_ VDD VSS MUX2_X1
X_0752_ mem\[15\]\[4\] _0200_ _0223_ _0064_ VDD VSS MUX2_X1
X_0753_ mem\[15\]\[5\] _0202_ _0223_ _0065_ VDD VSS MUX2_X1
X_0754_ mem\[15\]\[6\] _0204_ _0223_ _0066_ VDD VSS MUX2_X1
X_0755_ mem\[15\]\[7\] _0206_ _0223_ _0067_ VDD VSS MUX2_X1
X_0756_ _0182_ _0625_ _0186_ _0224_ VDD VSS NAND3_X2
X_0757_ _0224_ _0191_ _0171_ _0225_ VDD VSS AOI21_X4
X_0758_ mem\[1\]\[0\] _0181_ _0225_ _0068_ VDD VSS MUX2_X1
X_0759_ mem\[1\]\[1\] _0194_ _0225_ _0069_ VDD VSS MUX2_X1
X_0760_ mem\[1\]\[2\] _0196_ _0225_ _0070_ VDD VSS MUX2_X1
X_0761_ mem\[1\]\[3\] _0198_ _0225_ _0071_ VDD VSS MUX2_X1
X_0762_ mem\[1\]\[4\] _0200_ _0225_ _0072_ VDD VSS MUX2_X1
X_0763_ mem\[1\]\[5\] _0202_ _0225_ _0073_ VDD VSS MUX2_X1
X_0764_ mem\[1\]\[6\] _0204_ _0225_ _0074_ VDD VSS MUX2_X1
X_0765_ mem\[1\]\[7\] _0206_ _0225_ _0075_ VDD VSS MUX2_X1
X_0766_ _0182_ _0623_ _0186_ _0226_ VDD VSS NAND3_X2
X_0767_ _0226_ _0191_ _0171_ _0227_ VDD VSS AOI21_X4
X_0768_ mem\[2\]\[0\] _0181_ _0227_ _0076_ VDD VSS MUX2_X1
X_0769_ mem\[2\]\[1\] _0194_ _0227_ _0077_ VDD VSS MUX2_X1
X_0770_ mem\[2\]\[2\] _0196_ _0227_ _0078_ VDD VSS MUX2_X1
X_0771_ mem\[2\]\[3\] _0198_ _0227_ _0079_ VDD VSS MUX2_X1
X_0772_ mem\[2\]\[4\] _0200_ _0227_ _0080_ VDD VSS MUX2_X1
X_0773_ mem\[2\]\[5\] _0202_ _0227_ _0081_ VDD VSS MUX2_X1
X_0774_ mem\[2\]\[6\] _0204_ _0227_ _0082_ VDD VSS MUX2_X1
X_0775_ mem\[2\]\[7\] _0206_ _0227_ _0083_ VDD VSS MUX2_X1
X_0776_ _0182_ _0627_ _0186_ _0228_ VDD VSS NAND3_X2
X_0777_ _0228_ _0191_ _0171_ _0229_ VDD VSS AOI21_X4
X_0778_ mem\[3\]\[0\] _0181_ _0229_ _0084_ VDD VSS MUX2_X1
X_0779_ mem\[3\]\[1\] _0194_ _0229_ _0085_ VDD VSS MUX2_X1
X_0780_ mem\[3\]\[2\] _0196_ _0229_ _0086_ VDD VSS MUX2_X1
X_0781_ mem\[3\]\[3\] _0198_ _0229_ _0087_ VDD VSS MUX2_X1
X_0782_ mem\[3\]\[4\] _0200_ _0229_ _0088_ VDD VSS MUX2_X1
X_0783_ mem\[3\]\[5\] _0202_ _0229_ _0089_ VDD VSS MUX2_X1
X_0784_ mem\[3\]\[6\] _0204_ _0229_ _0090_ VDD VSS MUX2_X1
X_0785_ mem\[3\]\[7\] _0206_ _0229_ _0091_ VDD VSS MUX2_X1
X_0786_ _0207_ _0622_ _0186_ _0230_ VDD VSS AND3_X1
X_0787_ _0230_ _0179_ _0172_ _0231_ VDD VSS OAI21_X4
X_0788_ _0180_ mem\[4\]\[0\] _0231_ _0092_ VDD VSS MUX2_X1
X_0789_ _0193_ mem\[4\]\[1\] _0231_ _0093_ VDD VSS MUX2_X1
X_0790_ _0195_ mem\[4\]\[2\] _0231_ _0094_ VDD VSS MUX2_X1
X_0791_ _0197_ mem\[4\]\[3\] _0231_ _0095_ VDD VSS MUX2_X1
X_0792_ _0199_ mem\[4\]\[4\] _0231_ _0096_ VDD VSS MUX2_X1
X_0793_ _0201_ mem\[4\]\[5\] _0231_ _0097_ VDD VSS MUX2_X1
X_0794_ _0203_ mem\[4\]\[6\] _0231_ _0098_ VDD VSS MUX2_X1
X_0795_ _0205_ mem\[4\]\[7\] _0231_ _0099_ VDD VSS MUX2_X1
X_0796_ _0207_ _0625_ _0186_ _0232_ VDD VSS AND3_X1
X_0797_ _0232_ _0179_ _0172_ _0233_ VDD VSS OAI21_X4
X_0798_ _0180_ mem\[5\]\[0\] _0233_ _0100_ VDD VSS MUX2_X1
X_0799_ _0193_ mem\[5\]\[1\] _0233_ _0101_ VDD VSS MUX2_X1
X_0800_ _0195_ mem\[5\]\[2\] _0233_ _0102_ VDD VSS MUX2_X1
X_0801_ _0197_ mem\[5\]\[3\] _0233_ _0103_ VDD VSS MUX2_X1
X_0802_ _0199_ mem\[5\]\[4\] _0233_ _0104_ VDD VSS MUX2_X1
X_0803_ _0201_ mem\[5\]\[5\] _0233_ _0105_ VDD VSS MUX2_X1
X_0804_ _0203_ mem\[5\]\[6\] _0233_ _0106_ VDD VSS MUX2_X1
X_0805_ _0205_ mem\[5\]\[7\] _0233_ _0107_ VDD VSS MUX2_X1
X_0806_ _0184_ _0185_ _0182_ _0208_ _0234_ VDD VSS NOR4_X4
X_0807_ _0234_ _0179_ _0172_ _0235_ VDD VSS OAI21_X4
X_0808_ _0180_ mem\[6\]\[0\] _0235_ _0108_ VDD VSS MUX2_X1
X_0809_ _0193_ mem\[6\]\[1\] _0235_ _0109_ VDD VSS MUX2_X1
X_0810_ _0195_ mem\[6\]\[2\] _0235_ _0110_ VDD VSS MUX2_X1
X_0811_ _0197_ mem\[6\]\[3\] _0235_ _0111_ VDD VSS MUX2_X1
X_0812_ _0199_ mem\[6\]\[4\] _0235_ _0112_ VDD VSS MUX2_X1
X_0813_ _0201_ mem\[6\]\[5\] _0235_ _0113_ VDD VSS MUX2_X1
X_0814_ _0203_ mem\[6\]\[6\] _0235_ _0114_ VDD VSS MUX2_X1
X_0815_ _0205_ mem\[6\]\[7\] _0235_ _0115_ VDD VSS MUX2_X1
X_0816_ _0184_ _0185_ _0182_ _0212_ _0236_ VDD VSS NOR4_X4
X_0817_ _0236_ _0179_ _0172_ _0237_ VDD VSS OAI21_X4
X_0818_ _0180_ mem\[7\]\[0\] _0237_ _0116_ VDD VSS MUX2_X1
X_0819_ _0193_ mem\[7\]\[1\] _0237_ _0117_ VDD VSS MUX2_X1
X_0820_ _0195_ mem\[7\]\[2\] _0237_ _0118_ VDD VSS MUX2_X1
X_0821_ _0197_ mem\[7\]\[3\] _0237_ _0119_ VDD VSS MUX2_X1
X_0822_ _0199_ mem\[7\]\[4\] _0237_ _0120_ VDD VSS MUX2_X1
X_0823_ _0201_ mem\[7\]\[5\] _0237_ _0121_ VDD VSS MUX2_X1
X_0824_ _0203_ mem\[7\]\[6\] _0237_ _0122_ VDD VSS MUX2_X1
X_0825_ _0205_ mem\[7\]\[7\] _0237_ _0123_ VDD VSS MUX2_X1
X_0826_ _0182_ _0622_ _0215_ _0238_ VDD VSS AND3_X1
X_0827_ _0238_ _0179_ _0172_ _0239_ VDD VSS OAI21_X4
X_0828_ _0180_ mem\[8\]\[0\] _0239_ _0124_ VDD VSS MUX2_X1
X_0829_ _0193_ mem\[8\]\[1\] _0239_ _0125_ VDD VSS MUX2_X1
X_0830_ _0195_ mem\[8\]\[2\] _0239_ _0126_ VDD VSS MUX2_X1
X_0831_ _0197_ mem\[8\]\[3\] _0239_ _0127_ VDD VSS MUX2_X1
X_0832_ _0199_ mem\[8\]\[4\] _0239_ _0128_ VDD VSS MUX2_X1
X_0833_ _0201_ mem\[8\]\[5\] _0239_ _0129_ VDD VSS MUX2_X1
X_0834_ _0203_ mem\[8\]\[6\] _0239_ _0130_ VDD VSS MUX2_X1
X_0835_ _0205_ mem\[8\]\[7\] _0239_ _0131_ VDD VSS MUX2_X1
X_0836_ _0182_ _0625_ _0215_ _0240_ VDD VSS AND3_X1
X_0837_ _0240_ _0178_ _0172_ _0241_ VDD VSS OAI21_X4
X_0838_ _0180_ mem\[9\]\[0\] _0241_ _0132_ VDD VSS MUX2_X1
X_0839_ _0193_ mem\[9\]\[1\] _0241_ _0133_ VDD VSS MUX2_X1
X_0840_ _0195_ mem\[9\]\[2\] _0241_ _0134_ VDD VSS MUX2_X1
X_0841_ _0197_ mem\[9\]\[3\] _0241_ _0135_ VDD VSS MUX2_X1
X_0842_ _0199_ mem\[9\]\[4\] _0241_ _0136_ VDD VSS MUX2_X1
X_0843_ _0201_ mem\[9\]\[5\] _0241_ _0137_ VDD VSS MUX2_X1
X_0844_ _0203_ mem\[9\]\[6\] _0241_ _0138_ VDD VSS MUX2_X1
X_0845_ _0205_ mem\[9\]\[7\] _0241_ _0139_ VDD VSS MUX2_X1
X_0846_ rd_ptr\[0\] _0242_ VDD VSS BUF_X1
X_0847_ rst_n _0243_ VDD VSS BUF_X1
X_0848_ net8 _0243_ _0244_ VDD VSS NAND2_X1
X_0849_ rd_en _0245_ VDD VSS BUF_X2
X_0850_ _0244_ output_valid _0245_ _0246_ VDD VSS AOI21_X2
X_0851_ _0246_ _0247_ VDD VSS INV_X1
X_0852_ _0190_ _0248_ VDD VSS CLKBUF_X3
X_0853_ _0247_ _0248_ _0173_ _0249_ VDD VSS AOI21_X1
X_0854_ _0242_ _0004_ _0249_ _0149_ VDD VSS MUX2_X1
X_0855_ rd_ptr\[1\] _0005_ _0249_ _0151_ VDD VSS MUX2_X1
X_0856_ rd_ptr\[2\] _0250_ VDD VSS BUF_X2
X_0857_ _0620_ _0246_ _0251_ VDD VSS NAND2_X1
X_0858_ _0251_ _0248_ _0173_ _0252_ VDD VSS AOI21_X1
X_0859_ _0250_ _0252_ _0152_ VDD VSS XOR2_X1
X_0860_ rd_ptr\[3\] _0253_ VDD VSS BUF_X1
X_0861_ _0242_ _0250_ rd_ptr\[1\] _0246_ _0254_ VDD VSS NAND4_X1
X_0862_ _0254_ _0248_ _0173_ _0255_ VDD VSS AOI21_X1
X_0863_ _0253_ _0255_ _0153_ VDD VSS XOR2_X1
X_0864_ _0620_ _0250_ _0253_ _0246_ _0256_ VDD VSS NAND4_X1
X_0865_ _0256_ _0248_ _0173_ _0257_ VDD VSS AOI21_X1
X_0866_ _0168_ _0257_ _0154_ VDD VSS XOR2_X1
X_0867_ _0243_ _0258_ VDD VSS BUF_X2
X_0868_ _0258_ _0242_ _0259_ VDD VSS AND2_X1
X_0869_ _0243_ _0260_ VDD VSS INV_X2
X_0870_ _0260_ _0242_ _0261_ VDD VSS NOR2_X1
X_0871_ _0245_ _0262_ VDD VSS INV_X1
X_0872_ _0262_ _0172_ _0191_ _0263_ VDD VSS AOI21_X2
X_0873_ _0259_ _0261_ _0263_ _0008_ VDD VSS MUX2_X1
X_0874_ _0258_ rd_ptr\[1\] _0264_ VDD VSS AND2_X1
X_0875_ _0243_ _0265_ VDD VSS CLKBUF_X3
X_0876_ _0265_ _0005_ _0266_ VDD VSS AND2_X1
X_0877_ _0264_ _0266_ _0263_ _0009_ VDD VSS MUX2_X1
X_0878_ _0258_ _0250_ _0267_ VDD VSS AND2_X1
X_0879_ _0260_ _0250_ _0268_ VDD VSS NOR2_X1
X_0880_ _0245_ _0620_ _0269_ VDD VSS NAND2_X1
X_0881_ _0269_ _0248_ _0173_ _0270_ VDD VSS AOI21_X1
X_0882_ _0267_ _0268_ _0270_ _0010_ VDD VSS MUX2_X1
X_0883_ _0258_ _0253_ _0271_ VDD VSS AND2_X1
X_0884_ _0260_ _0253_ _0272_ VDD VSS NOR2_X1
X_0885_ _0245_ _0242_ _0250_ rd_ptr\[1\] _0273_ VDD VSS NAND4_X1
X_0886_ _0273_ _0248_ _0173_ _0274_ VDD VSS AOI21_X1
X_0887_ _0271_ _0272_ _0274_ _0011_ VDD VSS MUX2_X1
X_0888_ _0258_ _0275_ VDD VSS BUF_X2
X_0889_ net8 output_valid _0245_ _0276_ VDD VSS AOI21_X4
X_0890_ _0275_ net10 _0276_ _0277_ VDD VSS NAND3_X1
X_0891_ _0260_ _0276_ _0278_ VDD VSS NOR2_X1
X_0892_ _0278_ _0179_ net7 _0279_ VDD VSS OAI21_X4
X_0893_ _0001_ _0280_ VDD VSS BUF_X4
X_0894_ _0280_ _0281_ VDD VSS BUF_X4
X_0895_ mem\[0\]\[0\] mem\[2\]\[0\] _0281_ _0282_ VDD VSS
+ MUX2_X1
X_0896_ mem\[1\]\[0\] mem\[3\]\[0\] _0281_ _0283_ VDD VSS
+ MUX2_X1
X_0897_ _0000_ _0284_ VDD VSS CLKBUF_X3
X_0898_ _0284_ _0285_ VDD VSS BUF_X4
X_0899_ _0282_ _0283_ _0285_ _0286_ VDD VSS MUX2_X1
X_0900_ _0002_ _0287_ VDD VSS CLKBUF_X3
X_0901_ _0287_ _0288_ VDD VSS BUF_X4
X_0902_ _0288_ _0003_ _0289_ VDD VSS OR2_X1
X_0903_ _0289_ _0290_ VDD VSS CLKBUF_X3
X_0904_ _0003_ _0291_ VDD VSS INV_X1
X_0905_ _0288_ _0291_ _0292_ VDD VSS NAND2_X4
X_0906_ mem\[4\]\[0\] mem\[6\]\[0\] _0280_ _0293_ VDD VSS
+ MUX2_X1
X_0907_ mem\[5\]\[0\] mem\[7\]\[0\] _0280_ _0294_ VDD VSS
+ MUX2_X1
X_0908_ _0293_ _0294_ _0284_ _0295_ VDD VSS MUX2_X1
X_0909_ _0286_ _0290_ _0292_ _0295_ _0296_ VDD VSS OAI22_X1
X_0910_ _0287_ _0297_ VDD VSS BUF_X4
X_0911_ mem\[8\]\[0\] mem\[12\]\[0\] _0297_ _0298_ VDD VSS
+ MUX2_X1
X_0912_ mem\[9\]\[0\] mem\[13\]\[0\] _0297_ _0299_ VDD VSS
+ MUX2_X1
X_0913_ _0284_ _0300_ VDD VSS BUF_X4
X_0914_ _0298_ _0299_ _0300_ _0301_ VDD VSS MUX2_X1
X_0915_ _0280_ _0302_ VDD VSS BUF_X4
X_0916_ _0302_ _0291_ _0303_ VDD VSS OR2_X1
X_0917_ _0303_ _0304_ VDD VSS BUF_X2
X_0918_ _0302_ _0003_ _0305_ VDD VSS NAND2_X4
X_0919_ mem\[10\]\[0\] mem\[14\]\[0\] _0287_ _0306_ VDD VSS
+ MUX2_X1
X_0920_ mem\[11\]\[0\] mem\[15\]\[0\] _0287_ _0307_ VDD VSS
+ MUX2_X1
X_0921_ _0306_ _0307_ _0284_ _0308_ VDD VSS MUX2_X1
X_0922_ _0301_ _0304_ _0305_ _0308_ _0309_ VDD VSS OAI22_X1
X_0923_ _0296_ _0309_ _0310_ VDD VSS OR2_X1
X_0924_ _0173_ _0248_ _0311_ VDD VSS NAND2_X2
X_0925_ _0275_ net10 _0312_ VDD VSS NAND2_X1
X_0926_ _0277_ _0279_ _0310_ _0311_ _0312_ _0140_ VDD VSS
+ OAI221_X1
X_0927_ _0275_ net11 _0276_ _0313_ VDD VSS NAND3_X1
X_0928_ mem\[4\]\[1\] mem\[6\]\[1\] _0302_ _0314_ VDD VSS
+ MUX2_X1
X_0929_ mem\[5\]\[1\] mem\[7\]\[1\] _0302_ _0315_ VDD VSS
+ MUX2_X1
X_0930_ _0314_ _0315_ _0285_ _0316_ VDD VSS MUX2_X1
X_0931_ _0280_ _0317_ VDD VSS BUF_X4
X_0932_ mem\[0\]\[1\] mem\[2\]\[1\] _0317_ _0318_ VDD VSS
+ MUX2_X1
X_0933_ mem\[1\]\[1\] mem\[3\]\[1\] _0281_ _0319_ VDD VSS
+ MUX2_X1
X_0934_ _0318_ _0319_ _0285_ _0320_ VDD VSS MUX2_X1
X_0935_ _0292_ _0316_ _0320_ _0290_ _0321_ VDD VSS OAI22_X1
X_0936_ mem\[10\]\[1\] mem\[14\]\[1\] _0288_ _0322_ VDD VSS
+ MUX2_X1
X_0937_ mem\[11\]\[1\] mem\[15\]\[1\] _0288_ _0323_ VDD VSS
+ MUX2_X1
X_0938_ _0284_ _0324_ VDD VSS BUF_X4
X_0939_ _0322_ _0323_ _0324_ _0325_ VDD VSS MUX2_X1
X_0940_ _0287_ _0326_ VDD VSS BUF_X4
X_0941_ mem\[8\]\[1\] mem\[12\]\[1\] _0326_ _0327_ VDD VSS
+ MUX2_X1
X_0942_ mem\[9\]\[1\] mem\[13\]\[1\] _0297_ _0328_ VDD VSS
+ MUX2_X1
X_0943_ _0327_ _0328_ _0300_ _0329_ VDD VSS MUX2_X1
X_0944_ _0305_ _0325_ _0329_ _0304_ _0330_ VDD VSS OAI22_X1
X_0945_ _0321_ _0330_ _0331_ VDD VSS OR2_X1
X_0946_ _0275_ net11 _0332_ VDD VSS NAND2_X1
X_0947_ _0313_ _0331_ _0279_ _0311_ _0332_ _0141_ VDD VSS
+ OAI221_X1
X_0948_ _0275_ net12 _0276_ _0333_ VDD VSS NAND3_X1
X_0949_ mem\[4\]\[2\] mem\[6\]\[2\] _0281_ _0334_ VDD VSS
+ MUX2_X1
X_0950_ mem\[5\]\[2\] mem\[7\]\[2\] _0302_ _0335_ VDD VSS
+ MUX2_X1
X_0951_ _0334_ _0335_ _0285_ _0336_ VDD VSS MUX2_X1
X_0952_ mem\[0\]\[2\] mem\[2\]\[2\] _0317_ _0337_ VDD VSS
+ MUX2_X1
X_0953_ mem\[1\]\[2\] mem\[3\]\[2\] _0281_ _0338_ VDD VSS
+ MUX2_X1
X_0954_ _0337_ _0338_ _0285_ _0339_ VDD VSS MUX2_X1
X_0955_ _0292_ _0336_ _0339_ _0290_ _0340_ VDD VSS OAI22_X1
X_0956_ mem\[10\]\[2\] mem\[14\]\[2\] _0297_ _0341_ VDD VSS
+ MUX2_X1
X_0957_ mem\[11\]\[2\] mem\[15\]\[2\] _0288_ _0342_ VDD VSS
+ MUX2_X1
X_0958_ _0341_ _0342_ _0324_ _0343_ VDD VSS MUX2_X1
X_0959_ mem\[8\]\[2\] mem\[12\]\[2\] _0326_ _0344_ VDD VSS
+ MUX2_X1
X_0960_ mem\[9\]\[2\] mem\[13\]\[2\] _0297_ _0345_ VDD VSS
+ MUX2_X1
X_0961_ _0344_ _0345_ _0300_ _0346_ VDD VSS MUX2_X1
X_0962_ _0305_ _0343_ _0346_ _0304_ _0347_ VDD VSS OAI22_X1
X_0963_ _0340_ _0347_ _0348_ VDD VSS OR2_X1
X_0964_ _0265_ net12 _0349_ VDD VSS NAND2_X1
X_0965_ _0333_ _0348_ _0279_ _0311_ _0349_ _0142_ VDD VSS
+ OAI221_X1
X_0966_ _0275_ net13 _0276_ _0350_ VDD VSS NAND3_X1
X_0967_ mem\[4\]\[3\] mem\[6\]\[3\] _0281_ _0351_ VDD VSS
+ MUX2_X1
X_0968_ mem\[5\]\[3\] mem\[7\]\[3\] _0302_ _0352_ VDD VSS
+ MUX2_X1
X_0969_ _0351_ _0352_ _0285_ _0353_ VDD VSS MUX2_X1
X_0970_ mem\[0\]\[3\] mem\[2\]\[3\] _0317_ _0354_ VDD VSS
+ MUX2_X1
X_0971_ mem\[1\]\[3\] mem\[3\]\[3\] _0317_ _0355_ VDD VSS
+ MUX2_X1
X_0972_ _0354_ _0355_ _0324_ _0356_ VDD VSS MUX2_X1
X_0973_ _0292_ _0353_ _0356_ _0290_ _0357_ VDD VSS OAI22_X1
X_0974_ mem\[10\]\[3\] mem\[14\]\[3\] _0297_ _0358_ VDD VSS
+ MUX2_X1
X_0975_ mem\[11\]\[3\] mem\[15\]\[3\] _0288_ _0359_ VDD VSS
+ MUX2_X1
X_0976_ _0358_ _0359_ _0324_ _0360_ VDD VSS MUX2_X1
X_0977_ mem\[8\]\[3\] mem\[12\]\[3\] _0326_ _0361_ VDD VSS
+ MUX2_X1
X_0978_ mem\[9\]\[3\] mem\[13\]\[3\] _0326_ _0362_ VDD VSS
+ MUX2_X1
X_0979_ _0361_ _0362_ _0300_ _0363_ VDD VSS MUX2_X1
X_0980_ _0305_ _0360_ _0363_ _0304_ _0364_ VDD VSS OAI22_X1
X_0981_ _0357_ _0364_ _0365_ VDD VSS OR2_X1
X_0982_ _0265_ net13 _0366_ VDD VSS NAND2_X1
X_0983_ _0350_ _0365_ _0279_ _0311_ _0366_ _0143_ VDD VSS
+ OAI221_X1
X_0984_ _0275_ net14 _0276_ _0367_ VDD VSS NAND3_X1
X_0985_ mem\[4\]\[4\] mem\[6\]\[4\] _0281_ _0368_ VDD VSS
+ MUX2_X1
X_0986_ mem\[5\]\[4\] mem\[7\]\[4\] _0302_ _0369_ VDD VSS
+ MUX2_X1
X_0987_ _0368_ _0369_ _0285_ _0370_ VDD VSS MUX2_X1
X_0988_ mem\[0\]\[4\] mem\[2\]\[4\] _0317_ _0371_ VDD VSS
+ MUX2_X1
X_0989_ mem\[1\]\[4\] mem\[3\]\[4\] _0317_ _0372_ VDD VSS
+ MUX2_X1
X_0990_ _0371_ _0372_ _0324_ _0373_ VDD VSS MUX2_X1
X_0991_ _0292_ _0370_ _0373_ _0290_ _0374_ VDD VSS OAI22_X1
X_0992_ mem\[10\]\[4\] mem\[14\]\[4\] _0297_ _0375_ VDD VSS
+ MUX2_X1
X_0993_ mem\[11\]\[4\] mem\[15\]\[4\] _0288_ _0376_ VDD VSS
+ MUX2_X1
X_0994_ _0375_ _0376_ _0324_ _0377_ VDD VSS MUX2_X1
X_0995_ mem\[8\]\[4\] mem\[12\]\[4\] _0326_ _0378_ VDD VSS
+ MUX2_X1
X_0996_ mem\[9\]\[4\] mem\[13\]\[4\] _0326_ _0379_ VDD VSS
+ MUX2_X1
X_0997_ _0378_ _0379_ _0300_ _0380_ VDD VSS MUX2_X1
X_0998_ _0305_ _0377_ _0380_ _0304_ _0381_ VDD VSS OAI22_X1
X_0999_ _0374_ _0381_ _0382_ VDD VSS OR2_X1
X_1000_ _0265_ net14 _0383_ VDD VSS NAND2_X1
X_1001_ _0367_ _0382_ _0279_ _0311_ _0383_ _0144_ VDD VSS
+ OAI221_X1
X_1002_ _0275_ net15 _0276_ _0384_ VDD VSS NAND3_X1
X_1003_ mem\[4\]\[5\] mem\[6\]\[5\] _0281_ _0385_ VDD VSS
+ MUX2_X1
X_1004_ mem\[5\]\[5\] mem\[7\]\[5\] _0302_ _0386_ VDD VSS
+ MUX2_X1
X_1005_ _0385_ _0386_ _0285_ _0387_ VDD VSS MUX2_X1
X_1006_ mem\[0\]\[5\] mem\[2\]\[5\] _0317_ _0388_ VDD VSS
+ MUX2_X1
X_1007_ mem\[1\]\[5\] mem\[3\]\[5\] _0317_ _0389_ VDD VSS
+ MUX2_X1
X_1008_ _0388_ _0389_ _0324_ _0390_ VDD VSS MUX2_X1
X_1009_ _0292_ _0387_ _0390_ _0290_ _0391_ VDD VSS OAI22_X1
X_1010_ mem\[10\]\[5\] mem\[14\]\[5\] _0297_ _0392_ VDD VSS
+ MUX2_X1
X_1011_ mem\[11\]\[5\] mem\[15\]\[5\] _0288_ _0393_ VDD VSS
+ MUX2_X1
X_1012_ _0392_ _0393_ _0324_ _0394_ VDD VSS MUX2_X1
X_1013_ mem\[8\]\[5\] mem\[12\]\[5\] _0326_ _0395_ VDD VSS
+ MUX2_X1
X_1014_ mem\[9\]\[5\] mem\[13\]\[5\] _0326_ _0396_ VDD VSS
+ MUX2_X1
X_1015_ _0395_ _0396_ _0300_ _0397_ VDD VSS MUX2_X1
X_1016_ _0305_ _0394_ _0397_ _0304_ _0398_ VDD VSS OAI22_X1
X_1017_ _0391_ _0398_ _0399_ VDD VSS OR2_X1
X_1018_ _0265_ net15 _0400_ VDD VSS NAND2_X1
X_1019_ _0384_ _0399_ _0279_ _0311_ _0400_ _0145_ VDD VSS
+ OAI221_X1
X_1020_ _0275_ net16 _0276_ _0401_ VDD VSS NAND3_X1
X_1021_ mem\[4\]\[6\] mem\[6\]\[6\] _0281_ _0402_ VDD VSS
+ MUX2_X1
X_1022_ mem\[5\]\[6\] mem\[7\]\[6\] _0302_ _0403_ VDD VSS
+ MUX2_X1
X_1023_ _0402_ _0403_ _0285_ _0404_ VDD VSS MUX2_X1
X_1024_ mem\[0\]\[6\] mem\[2\]\[6\] _0280_ _0405_ VDD VSS
+ MUX2_X1
X_1025_ mem\[1\]\[6\] mem\[3\]\[6\] _0317_ _0406_ VDD VSS
+ MUX2_X1
X_1026_ _0405_ _0406_ _0324_ _0407_ VDD VSS MUX2_X1
X_1027_ _0292_ _0404_ _0407_ _0290_ _0408_ VDD VSS OAI22_X1
X_1028_ mem\[10\]\[6\] mem\[14\]\[6\] _0297_ _0409_ VDD VSS
+ MUX2_X1
X_1029_ mem\[11\]\[6\] mem\[15\]\[6\] _0288_ _0410_ VDD VSS
+ MUX2_X1
X_1030_ _0409_ _0410_ _0300_ _0411_ VDD VSS MUX2_X1
X_1031_ mem\[8\]\[6\] mem\[12\]\[6\] _0287_ _0412_ VDD VSS
+ MUX2_X1
X_1032_ mem\[9\]\[6\] mem\[13\]\[6\] _0326_ _0413_ VDD VSS
+ MUX2_X1
X_1033_ _0412_ _0413_ _0300_ _0414_ VDD VSS MUX2_X1
X_1034_ _0305_ _0411_ _0414_ _0304_ _0415_ VDD VSS OAI22_X1
X_1035_ _0408_ _0415_ _0416_ VDD VSS OR2_X1
X_1036_ _0265_ net16 _0417_ VDD VSS NAND2_X1
X_1037_ _0401_ _0416_ _0279_ _0311_ _0417_ _0146_ VDD VSS
+ OAI221_X1
X_1038_ _0275_ net17 _0276_ _0418_ VDD VSS NAND3_X1
X_1039_ mem\[4\]\[7\] mem\[6\]\[7\] _0281_ _0419_ VDD VSS
+ MUX2_X1
X_1040_ mem\[5\]\[7\] mem\[7\]\[7\] _0302_ _0420_ VDD VSS
+ MUX2_X1
X_1041_ _0419_ _0420_ _0285_ _0421_ VDD VSS MUX2_X1
X_1042_ mem\[0\]\[7\] mem\[2\]\[7\] _0280_ _0422_ VDD VSS
+ MUX2_X1
X_1043_ mem\[1\]\[7\] mem\[3\]\[7\] _0317_ _0423_ VDD VSS
+ MUX2_X1
X_1044_ _0422_ _0423_ _0324_ _0424_ VDD VSS MUX2_X1
X_1045_ _0292_ _0421_ _0424_ _0290_ _0425_ VDD VSS OAI22_X1
X_1046_ mem\[10\]\[7\] mem\[14\]\[7\] _0297_ _0426_ VDD VSS
+ MUX2_X1
X_1047_ mem\[11\]\[7\] mem\[15\]\[7\] _0288_ _0427_ VDD VSS
+ MUX2_X1
X_1048_ _0426_ _0427_ _0300_ _0428_ VDD VSS MUX2_X1
X_1049_ mem\[8\]\[7\] mem\[12\]\[7\] _0287_ _0429_ VDD VSS
+ MUX2_X1
X_1050_ mem\[9\]\[7\] mem\[13\]\[7\] _0326_ _0430_ VDD VSS
+ MUX2_X1
X_1051_ _0429_ _0430_ _0300_ _0431_ VDD VSS MUX2_X1
X_1052_ _0305_ _0428_ _0431_ _0304_ _0432_ VDD VSS OAI22_X1
X_1053_ _0425_ _0432_ _0433_ VDD VSS OR2_X1
X_1054_ _0265_ net17 _0434_ VDD VSS NAND2_X1
X_1055_ _0418_ _0433_ _0279_ _0311_ _0434_ _0147_ VDD VSS
+ OAI221_X1
X_1056_ _0276_ _0435_ VDD VSS INV_X1
X_1057_ _0435_ _0179_ net7 _0436_ VDD VSS OAI21_X1
X_1058_ _0262_ output_valid _0437_ VDD VSS NAND2_X1
X_1059_ _0260_ _0436_ _0437_ _0148_ VDD VSS AOI21_X1
X_1060_ _0265_ _0004_ _0438_ VDD VSS AND2_X1
X_1061_ _0259_ _0438_ _0263_ _0150_ VDD VSS MUX2_X1
X_1062_ _0168_ _0258_ _0439_ VDD VSS AND2_X1
X_1063_ _0168_ _0260_ _0440_ VDD VSS NOR2_X1
X_1064_ _0245_ _0620_ _0250_ _0253_ _0441_ VDD VSS NAND4_X1
X_1065_ _0441_ _0248_ _0173_ _0442_ VDD VSS AOI21_X1
X_1066_ _0439_ _0440_ _0442_ _0155_ VDD VSS MUX2_X1
X_1067_ _0258_ wr_ptr\[0\] _0443_ VDD VSS AND2_X1
X_1068_ _0265_ _0006_ _0444_ VDD VSS AND2_X1
X_1069_ _0184_ net7 _0191_ _0445_ VDD VSS AOI21_X2
X_1070_ _0443_ _0444_ _0445_ _0156_ VDD VSS MUX2_X1
X_1071_ _0258_ wr_ptr\[1\] _0446_ VDD VSS AND2_X1
X_1072_ _0265_ _0007_ _0447_ VDD VSS AND2_X1
X_1073_ _0446_ _0447_ _0445_ _0157_ VDD VSS MUX2_X1
X_1074_ _0260_ _0182_ _0448_ VDD VSS NOR2_X1
X_1075_ _0260_ _0207_ _0449_ VDD VSS NOR2_X1
X_1076_ _0183_ _0627_ _0450_ VDD VSS NAND2_X1
X_1077_ _0450_ _0248_ net7 _0451_ VDD VSS AOI21_X1
X_1078_ _0448_ _0449_ _0451_ _0158_ VDD VSS MUX2_X1
X_1079_ _0258_ _0185_ _0452_ VDD VSS AND2_X1
X_1080_ _0260_ _0185_ _0453_ VDD VSS NOR2_X1
X_1081_ _0183_ _0207_ wr_ptr\[1\] wr_ptr\[0\] _0454_ VDD VSS
+ NAND4_X1
X_1082_ _0454_ _0248_ net7 _0455_ VDD VSS AOI21_X1
X_1083_ _0452_ _0453_ _0455_ _0159_ VDD VSS MUX2_X1
X_1084_ wr_ptr\[4\] _0258_ _0456_ VDD VSS AND2_X1
X_1085_ wr_ptr\[4\] _0260_ _0457_ VDD VSS NOR2_X1
X_1086_ _0456_ _0457_ _0223_ _0160_ VDD VSS MUX2_X1
X_1087_ _0630_ _0174_ _0458_ VDD VSS XOR2_X2
X_1088_ net6 net5 net7 _0458_ net1 VDD VSS NOR4_X1
X_1089_ _0174_ net5 _0459_ VDD VSS NAND2_X1
X_1090_ _0173_ _0459_ _0164_ net2 VDD VSS OAI21_X4
X_1091_ _0609_ wr_ptr\[1\] _0610_ _0611_ net4 VDD VSS FA_X1
X_1092_ _0612_ wr_ptr\[3\] _0613_ _0614_ VDD VSS HA_X1
X_1093_ _0609_ wr_ptr\[1\] _0615_ _0616_ VDD VSS HA_X1
X_1094_ _0617_ wr_ptr\[2\] _0618_ _0619_ VDD VSS HA_X1
X_1095_ rd_ptr\[0\] rd_ptr\[1\] _0620_ _0005_ VDD VSS HA_X1
X_1096_ _0006_ _0621_ _0622_ _0007_ VDD VSS HA_X1
X_1097_ _0006_ wr_ptr\[1\] _0623_ _0624_ VDD VSS HA_X1
X_1098_ wr_ptr\[0\] _0621_ _0625_ _0626_ VDD VSS HA_X1
X_1099_ wr_ptr\[0\] wr_ptr\[1\] _0627_ _0628_ VDD VSS HA_X1
X_1100_ rd_ptr\[0\] _0006_ _0629_ _0630_ VDD VSS HA_X1
X_1101_ _0008_ clknet_4_11_0_clk _0000_ _0608_ VDD VSS DFF_X1
X_1102_ _0009_ clknet_4_11_0_clk _0001_ _0607_ VDD VSS DFF_X1
X_1103_ _0010_ clknet_4_14_0_clk _0002_ _0606_ VDD VSS DFF_X1
X_1104_ _0011_ clknet_4_14_0_clk _0003_ _0605_ VDD VSS DFF_X2
Xmem\[0\]\[0\]$_DFFE_PP_ _0012_ clknet_4_9_0_clk mem\[0\]\[0\]
+ _0604_ VDD VSS DFF_X1
Xmem\[0\]\[1\]$_DFFE_PP_ _0013_ clknet_4_4_0_clk mem\[0\]\[1\]
+ _0603_ VDD VSS DFF_X1
Xmem\[0\]\[2\]$_DFFE_PP_ _0014_ clknet_4_4_0_clk mem\[0\]\[2\]
+ _0602_ VDD VSS DFF_X1
Xmem\[0\]\[3\]$_DFFE_PP_ _0015_ clknet_4_5_0_clk mem\[0\]\[3\]
+ _0601_ VDD VSS DFF_X1
Xmem\[0\]\[4\]$_DFFE_PP_ _0016_ clknet_4_5_0_clk mem\[0\]\[4\]
+ _0600_ VDD VSS DFF_X1
Xmem\[0\]\[5\]$_DFFE_PP_ _0017_ clknet_4_5_0_clk mem\[0\]\[5\]
+ _0599_ VDD VSS DFF_X1
Xmem\[0\]\[6\]$_DFFE_PP_ _0018_ clknet_4_9_0_clk mem\[0\]\[6\]
+ _0598_ VDD VSS DFF_X1
Xmem\[0\]\[7\]$_DFFE_PP_ _0019_ clknet_4_9_0_clk mem\[0\]\[7\]
+ _0597_ VDD VSS DFF_X1
Xmem\[10\]\[0\]$_DFFE_PP_ _0020_ clknet_4_9_0_clk mem\[10\]\[0\]
+ _0596_ VDD VSS DFF_X1
Xmem\[10\]\[1\]$_DFFE_PP_ _0021_ clknet_4_6_0_clk mem\[10\]\[1\]
+ _0595_ VDD VSS DFF_X1
Xmem\[10\]\[2\]$_DFFE_PP_ _0022_ clknet_4_4_0_clk mem\[10\]\[2\]
+ _0594_ VDD VSS DFF_X1
Xmem\[10\]\[3\]$_DFFE_PP_ _0023_ clknet_4_7_0_clk mem\[10\]\[3\]
+ _0593_ VDD VSS DFF_X1
Xmem\[10\]\[4\]$_DFFE_PP_ _0024_ clknet_4_7_0_clk mem\[10\]\[4\]
+ _0592_ VDD VSS DFF_X1
Xmem\[10\]\[5\]$_DFFE_PP_ _0025_ clknet_4_7_0_clk mem\[10\]\[5\]
+ _0591_ VDD VSS DFF_X1
Xmem\[10\]\[6\]$_DFFE_PP_ _0026_ clknet_4_12_0_clk mem\[10\]\[6\]
+ _0590_ VDD VSS DFF_X1
Xmem\[10\]\[7\]$_DFFE_PP_ _0027_ clknet_4_12_0_clk mem\[10\]\[7\]
+ _0589_ VDD VSS DFF_X1
Xmem\[11\]\[0\]$_DFFE_PP_ _0028_ clknet_4_12_0_clk mem\[11\]\[0\]
+ _0588_ VDD VSS DFF_X1
Xmem\[11\]\[1\]$_DFFE_PP_ _0029_ clknet_4_7_0_clk mem\[11\]\[1\]
+ _0587_ VDD VSS DFF_X1
Xmem\[11\]\[2\]$_DFFE_PP_ _0030_ clknet_4_6_0_clk mem\[11\]\[2\]
+ _0586_ VDD VSS DFF_X1
Xmem\[11\]\[3\]$_DFFE_PP_ _0031_ clknet_4_7_0_clk mem\[11\]\[3\]
+ _0585_ VDD VSS DFF_X1
Xmem\[11\]\[4\]$_DFFE_PP_ _0032_ clknet_4_7_0_clk mem\[11\]\[4\]
+ _0584_ VDD VSS DFF_X1
Xmem\[11\]\[5\]$_DFFE_PP_ _0033_ clknet_4_7_0_clk mem\[11\]\[5\]
+ _0583_ VDD VSS DFF_X1
Xmem\[11\]\[6\]$_DFFE_PP_ _0034_ clknet_4_13_0_clk mem\[11\]\[6\]
+ _0582_ VDD VSS DFF_X1
Xmem\[11\]\[7\]$_DFFE_PP_ _0035_ clknet_4_13_0_clk mem\[11\]\[7\]
+ _0581_ VDD VSS DFF_X1
Xmem\[12\]\[0\]$_DFFE_PP_ _0036_ clknet_4_8_0_clk mem\[12\]\[0\]
+ _0580_ VDD VSS DFF_X1
Xmem\[12\]\[1\]$_DFFE_PP_ _0037_ clknet_4_3_0_clk mem\[12\]\[1\]
+ _0579_ VDD VSS DFF_X1
Xmem\[12\]\[2\]$_DFFE_PP_ _0038_ clknet_4_2_0_clk mem\[12\]\[2\]
+ _0578_ VDD VSS DFF_X1
Xmem\[12\]\[3\]$_DFFE_PP_ _0039_ clknet_4_6_0_clk mem\[12\]\[3\]
+ _0577_ VDD VSS DFF_X1
Xmem\[12\]\[4\]$_DFFE_PP_ _0040_ clknet_4_1_0_clk mem\[12\]\[4\]
+ _0576_ VDD VSS DFF_X1
Xmem\[12\]\[5\]$_DFFE_PP_ _0041_ clknet_4_3_0_clk mem\[12\]\[5\]
+ _0575_ VDD VSS DFF_X1
Xmem\[12\]\[6\]$_DFFE_PP_ _0042_ clknet_4_8_0_clk mem\[12\]\[6\]
+ _0574_ VDD VSS DFF_X1
Xmem\[12\]\[7\]$_DFFE_PP_ _0043_ clknet_4_3_0_clk mem\[12\]\[7\]
+ _0573_ VDD VSS DFF_X1
Xmem\[13\]\[0\]$_DFFE_PP_ _0044_ clknet_4_8_0_clk mem\[13\]\[0\]
+ _0572_ VDD VSS DFF_X1
Xmem\[13\]\[1\]$_DFFE_PP_ _0045_ clknet_4_6_0_clk mem\[13\]\[1\]
+ _0571_ VDD VSS DFF_X1
Xmem\[13\]\[2\]$_DFFE_PP_ _0046_ clknet_4_1_0_clk mem\[13\]\[2\]
+ _0570_ VDD VSS DFF_X1
Xmem\[13\]\[3\]$_DFFE_PP_ _0047_ clknet_4_6_0_clk mem\[13\]\[3\]
+ _0569_ VDD VSS DFF_X1
Xmem\[13\]\[4\]$_DFFE_PP_ _0048_ clknet_4_3_0_clk mem\[13\]\[4\]
+ _0568_ VDD VSS DFF_X1
Xmem\[13\]\[5\]$_DFFE_PP_ _0049_ clknet_4_3_0_clk mem\[13\]\[5\]
+ _0567_ VDD VSS DFF_X1
Xmem\[13\]\[6\]$_DFFE_PP_ _0050_ clknet_4_3_0_clk mem\[13\]\[6\]
+ _0566_ VDD VSS DFF_X1
Xmem\[13\]\[7\]$_DFFE_PP_ _0051_ clknet_4_3_0_clk mem\[13\]\[7\]
+ _0565_ VDD VSS DFF_X1
Xmem\[14\]\[0\]$_DFFE_PP_ _0052_ clknet_4_9_0_clk mem\[14\]\[0\]
+ _0564_ VDD VSS DFF_X1
Xmem\[14\]\[1\]$_DFFE_PP_ _0053_ clknet_4_6_0_clk mem\[14\]\[1\]