
* cell fwft_fifo
* pin wr_data[3]
* pin NWELL
* pin PWELL
* pin wr_data[4]
* pin wr_data[2]
* pin wr_data[5]
* pin wr_data[1]
* pin wr_data[7]
* pin clk
* pin rd_data[5]
* pin rd_data[7]
* pin rd_data[1]
* pin wr_data[6]
* pin rd_data[6]
* pin rd_data[0]
* pin rd_data[2]
* pin rd_data[3]
* pin rd_data[4]
* pin full
* pin empty
* pin rst_n
* pin rd_en
* pin wr_data[0]
* pin wr_en
* pin data_count[0]
* pin data_count[3]
* pin data_count[2]
* pin almost_empty
* pin almost_full
* pin data_count[1]
* pin data_count[4]
.SUBCKT fwft_fifo 1 2 3 49 58 192 235 290 360 424 425 426 434 474 475 494 495
+ 496 508 515 525 542 582 643 676 677 678 679 680 681 682
* net 1 wr_data[3]
* net 2 NWELL
* net 3 PWELL
* net 49 wr_data[4]
* net 58 wr_data[2]
* net 192 wr_data[5]
* net 235 wr_data[1]
* net 290 wr_data[7]
* net 360 clk
* net 424 rd_data[5]
* net 425 rd_data[7]
* net 426 rd_data[1]
* net 434 wr_data[6]
* net 474 rd_data[6]
* net 475 rd_data[0]
* net 494 rd_data[2]
* net 495 rd_data[3]
* net 496 rd_data[4]
* net 508 full
* net 515 empty
* net 525 rst_n
* net 542 rd_en
* net 582 wr_data[0]
* net 643 wr_en
* net 676 data_count[0]
* net 677 data_count[3]
* net 678 data_count[2]
* net 679 almost_empty
* net 680 almost_full
* net 681 data_count[1]
* net 682 data_count[4]
* cell instance $5 m0 *1 250.04,217
X$5 1 3 2 8 CLKBUF_X2
* cell instance $7 r0 *1 268.28,295.4
X$7 540 592 3 2 594 NOR2_X1
* cell instance $55 r0 *1 247.95,295.4
X$55 513 549 3 2 588 NAND2_X1
* cell instance $59 m0 *1 247.76,298.2
X$59 588 466 580 3 622 2 AOI21_X1
* cell instance $60 m0 *1 248.52,298.2
X$60 503 540 3 2 601 NOR2_X1
* cell instance $62 m0 *1 249.47,298.2
X$62 602 3 2 580 CLKBUF_X3
* cell instance $64 r0 *1 249.66,295.4
X$64 3 467 2 602 BUF_X8
* cell instance $72 m0 *1 255.36,298.2
X$72 576 577 603 3 2 609 MUX2_X1
* cell instance $73 r0 *1 255.74,295.4
X$73 454 603 2 3 589 AND2_X1
* cell instance $75 r0 *1 256.5,295.4
X$75 586 561 589 3 2 590 MUX2_X1
* cell instance $81 m0 *1 256.88,298.2
X$81 3 590 511 603 612 2 DFF_X2
* cell instance $83 m0 *1 262.01,298.2
X$83 591 526 580 3 604 2 AOI21_X1
* cell instance $84 m0 *1 262.77,298.2
X$84 578 605 576 565 3 2 591 NAND4_X1
* cell instance $86 m0 *1 266.76,298.2
X$86 616 526 580 3 608 2 AOI21_X1
* cell instance $88 m0 *1 267.9,298.2
X$88 592 543 2 3 593 AND2_X1
* cell instance $89 m0 *1 268.66,298.2
X$89 593 608 594 3 2 607 MUX2_X1
* cell instance $90 m0 *1 269.99,298.2
X$90 3 742 606 607 507 2 DFF_X1
* cell instance $148 r0 *1 244.72,513.8
X$148 665 3 2 676 BUF_X1
* cell instance $150 r0 *1 245.29,513.8
X$150 666 3 2 678 BUF_X1
* cell instance $151 r0 *1 245.86,513.8
X$151 674 3 2 680 BUF_X1
* cell instance $155 r0 *1 251.75,513.8
X$155 672 3 2 681 BUF_X1
* cell instance $160 r0 *1 266.19,513.8
X$160 466 3 2 682 BUF_X1
* cell instance $836 r0 *1 262.39,242.2
X$836 121 181 3 2 182 OR2_X1
* cell instance $837 r0 *1 263.15,242.2
X$837 195 160 196 179 2 3 181 OAI22_X1
* cell instance $839 r0 *1 264.29,242.2
X$839 177 46 199 3 2 175 MUX2_X1
* cell instance $842 r0 *1 268.85,242.2
X$842 178 46 220 3 2 179 MUX2_X1
* cell instance $862 r0 *1 256.69,242.2
X$862 159 46 174 3 2 173 MUX2_X1
* cell instance $865 m0 *1 256.69,245
X$865 195 161 196 173 2 3 186 OAI22_X1
* cell instance $866 m0 *1 257.64,245
X$866 81 186 3 2 197 OR2_X1
* cell instance $870 m0 *1 261.06,245
X$870 143 3 2 848 INV_X1
* cell instance $871 m0 *1 261.44,245
X$871 195 184 196 175 2 3 205 OAI22_X1
* cell instance $872 m0 *1 262.39,245
X$872 105 3 2 143 CLKBUF_X3
* cell instance $873 m0 *1 263.34,245
X$873 85 205 3 2 201 OR2_X1
* cell instance $2925 m0 *1 244.91,513.8
X$2925 673 3 2 677 BUF_X1
* cell instance $2928 m0 *1 246.05,513.8
X$2928 683 3 2 679 BUF_X1
* cell instance $9437 m0 *1 242.06,306.6
X$9437 3 701 648 640 463 2 DFF_X1
* cell instance $9439 m0 *1 245.29,306.6
X$9439 648 2 536 3 BUF_X4
* cell instance $9441 m0 *1 247.38,306.6
X$9441 642 655 2 3 651 AND2_X1
* cell instance $9443 m0 *1 248.52,306.6
X$9443 3 574 649 672 636 646 2 FA_X1
* cell instance $9444 r0 *1 248.9,303.8
X$9444 645 611 642 2 3 650 HA_X1
* cell instance $9448 r0 *1 254.22,303.8
X$9448 3 560 523 646 578 2 DFF_X2
* cell instance $9452 m0 *1 258.21,306.6
X$9452 3 709 652 644 511 2 DFF_X1
* cell instance $9455 r0 *1 260.49,303.8
X$9455 605 627 3 2 644 XOR2_X1
* cell instance $9456 m0 *1 261.44,306.6
X$9456 652 3 2 605 BUF_X2
* cell instance $9460 m0 *1 262.39,306.6
X$9460 3 731 653 639 511 2 DFF_X1
* cell instance $9462 r0 *1 262.96,303.8
X$9462 623 637 3 2 639 XOR2_X1
* cell instance $9465 r0 *1 265.24,303.8
X$9465 653 3 2 623 BUF_X1
* cell instance $9680 r0 *1 247.19,309.4
X$9680 642 649 3 2 659 XNOR2_X2
* cell instance $9900 m0 *1 244.53,315
X$9900 656 658 2 670 3 XOR2_X2
* cell instance $9903 r0 *1 245.67,312.2
X$9903 669 657 656 2 3 548 MUX2_X2
* cell instance $9904 m0 *1 246.24,315
X$9904 659 3 2 666 INV_X4
* cell instance $9905 m0 *1 247.19,315
X$9905 659 668 641 658 3 2 669 NAND4_X1
* cell instance $9906 r0 *1 247.38,312.2
X$9906 658 641 668 659 2 3 661 AND4_X1
* cell instance $9907 m0 *1 248.14,315
X$9907 667 3 2 668 INV_X1
* cell instance $9908 r0 *1 248.52,312.2
X$9908 661 663 656 2 3 602 MUX2_X2
* cell instance $10335 r0 *1 229.71,289.8
X$10335 3 781 546 568 463 2 DFF_X1
* cell instance $10339 m0 *1 234.08,292.6
X$10339 582 3 2 438 CLKBUF_X2
* cell instance $10346 r0 *1 243.58,289.8
X$10346 549 3 2 535 INV_X4
* cell instance $10349 r0 *1 245.67,289.8
X$10349 547 522 548 2 3 115 OAI21_X4
* cell instance $10351 r0 *1 248.14,289.8
X$10351 3 521 2 548 BUF_X8
* cell instance $10356 r0 *1 254.41,289.8
X$10356 3 787 559 560 523 2 DFF_X1
* cell instance $10357 m0 *1 254.6,292.6
X$10357 566 467 522 3 561 2 AOI21_X2
* cell instance $10359 m0 *1 256.31,292.6
X$10359 586 561 562 3 2 524 MUX2_X1
* cell instance $10364 r0 *1 262.58,289.8
X$10364 3 751 564 539 511 2 DFF_X1
* cell instance $10367 m0 *1 265.43,292.6
X$10367 564 543 2 3 570 AND2_X1
* cell instance $10368 r0 *1 265.81,289.8
X$10368 540 564 3 2 552 NOR2_X1
* cell instance $10369 m0 *1 266.19,292.6
X$10369 565 3 2 566 INV_X1
* cell instance $10372 r0 *1 266.57,289.8
X$10372 567 566 3 2 553 NAND2_X1
* cell instance $10373 r0 *1 267.14,289.8
X$10373 540 553 554 3 558 2 AOI21_X1
* cell instance $10375 m0 *1 267.71,292.6
X$10375 569 565 567 3 581 2 AOI21_X2
* cell instance $10376 r0 *1 267.9,289.8
X$10376 555 3 2 540 INV_X2
* cell instance $10377 r0 *1 268.47,289.8
X$10377 3 558 507 556 567 2 DFF_X2
* cell instance $10381 r0 *1 274.36,289.8
X$10381 542 3 2 565 BUF_X2
* cell instance $20192 r0 *1 244.53,317.8
X$20192 526 670 671 2 3 674 OAI21_X4
* cell instance $20193 m0 *1 244.72,320.6
X$20193 670 3 2 673 INV_X2
* cell instance $21056 m0 *1 230.66,281.4
X$21056 438 52 462 3 2 476 MUX2_X1
* cell instance $21057 m0 *1 231.99,281.4
X$21057 3 724 462 476 463 2 DFF_X1
* cell instance $21068 r0 *1 243.01,278.6
X$21068 3 39 465 466 467 2 AOI21_X4
* cell instance $21069 m0 *1 243.01,281.4
X$21069 3 187 488 466 467 2 AOI21_X4
* cell instance $21073 m0 *1 248.9,281.4
X$21073 3 132 482 469 467 2 AOI21_X4
* cell instance $21080 m0 *1 266.57,281.4
X$21080 445 472 446 3 2 486 NAND3_X1
* cell instance $21081 m0 *1 267.33,281.4
X$21081 444 182 486 487 447 2 3 471 OAI221_X1
* cell instance $21082 m0 *1 268.47,281.4
X$21082 472 454 3 2 487 NAND2_X1
* cell instance $21087 m0 *1 273.22,281.4
X$21087 444 197 492 499 447 2 3 484 OAI221_X1
* cell instance $26549 m0 *1 234.08,222.6
X$26549 3 743 36 20 9 2 DFF_X1
* cell instance $26554 m0 *1 241.3,222.6
X$26554 3 741 10 19 4 2 DFF_X1
* cell instance $26558 m0 *1 247.76,222.6
X$26558 3 740 33 17 4 2 DFF_X1
* cell instance $26564 m0 *1 255.74,222.6
X$26564 5 26 7 3 2 16 MUX2_X1
* cell instance $26565 m0 *1 257.07,222.6
X$26565 3 706 5 16 11 2 DFF_X1
* cell instance $26570 m0 *1 261.63,222.6
X$26570 3 726 12 6 11 2 DFF_X1
* cell instance $26573 m0 *1 265.43,222.6
X$26573 13 15 7 3 2 14 MUX2_X1
* cell instance $30534 m0 *1 244.91,511
X$30534 675 466 666 673 3 2 683 NOR4_X1
* cell instance $35095 r0 *1 230.09,275.8
X$35095 438 125 437 3 2 448 MUX2_X1
* cell instance $35096 r0 *1 231.42,275.8
X$35096 438 115 439 3 2 449 MUX2_X1
* cell instance $35120 m0 *1 233.7,278.6
X$35120 3 722 450 477 389 2 DFF_X1
* cell instance $35121 r0 *1 234.65,275.8
X$35121 450 213 381 3 2 477 MUX2_X1
* cell instance $35122 r0 *1 233.89,275.8
X$35122 438 3 2 381 BUF_X2
* cell instance $35123 r0 *1 235.98,275.8
X$35123 3 815 416 478 389 2 DFF_X1
* cell instance $35126 m0 *1 236.93,278.6
X$35126 416 187 381 3 2 478 MUX2_X1
* cell instance $35129 r0 *1 240.54,275.8
X$35129 105 3 2 389 CLKBUF_X3
* cell instance $35131 r0 *1 241.49,275.8
X$35131 389 3 2 846 INV_X4
* cell instance $35139 m0 *1 242.82,278.6
X$35139 3 213 464 466 467 2 AOI21_X4
* cell instance $35140 r0 *1 245.29,275.8
X$35140 3 15 479 469 467 2 AOI21_X4
* cell instance $35142 r0 *1 247.76,275.8
X$35142 105 3 2 330 CLKBUF_X3
* cell instance $35143 r0 *1 248.71,275.8
X$35143 330 3 2 841 INV_X2
* cell instance $35147 r0 *1 253.27,275.8
X$35147 3 789 417 455 330 2 DFF_X1
* cell instance $35148 r0 *1 256.5,275.8
X$35148 3 774 440 485 314 2 DFF_X1
* cell instance $35149 r0 *1 259.73,275.8
X$35149 440 217 381 3 2 485 MUX2_X1
* cell instance $35150 r0 *1 261.06,275.8
X$35150 3 794 458 441 314 2 DFF_X1
* cell instance $35154 r0 *1 266.76,275.8
X$35154 445 442 446 3 2 443 NAND3_X1
* cell instance $35155 r0 *1 267.52,275.8
X$35155 3 421 314 835 442 2 DFF_X2
* cell instance $35156 r0 *1 271.13,275.8
X$35156 430 454 3 2 431 NAND2_X1
* cell instance $35159 r0 *1 272.65,275.8
X$35159 445 422 446 3 2 456 NAND3_X1
* cell instance $35160 r0 *1 273.41,275.8
X$35160 422 454 3 2 453 NAND2_X1
* cell instance $35162 m0 *1 245.29,278.6
X$35162 3 30 468 469 467 2 AOI21_X4
* cell instance $35168 m0 *1 253.65,278.6
X$35168 3 715 470 483 330 2 DFF_X1
* cell instance $35169 m0 *1 256.88,278.6
X$35169 470 132 381 3 2 483 MUX2_X1
* cell instance $35173 r0 *1 275.5,275.8
X$35173 445 473 446 3 2 481 NAND3_X1
* cell instance $35174 r0 *1 274.36,275.8
X$35174 407 444 481 451 447 2 3 480 OAI221_X1
* cell instance $35175 r0 *1 276.26,275.8
X$35175 473 446 3 2 451 NAND2_X1
* cell instance $35176 r0 *1 276.83,275.8
X$35176 3 480 320 833 473 2 DFF_X2
* cell instance $35261 r0 *1 510.53,275.8
X$35261 442 3 2 474 BUF_X1
* cell instance $35262 r0 *1 511.86,275.8
X$35262 473 3 2 475 BUF_X1
* cell instance $35401 r0 *1 226.67,287
X$35401 3 779 534 527 463 2 DFF_X1
* cell instance $35405 r0 *1 231.61,287
X$35405 534 340 546 3 2 529 MUX2_X1
* cell instance $35412 m0 *1 230.66,289.8
X$35412 438 110 546 3 2 568 MUX2_X1
* cell instance $35415 m0 *1 235.41,289.8
X$35415 557 522 521 2 3 110 OAI21_X4
* cell instance $35418 r0 *1 237.88,287
X$35418 532 522 521 2 3 108 OAI21_X4
* cell instance $35419 r0 *1 240.54,287
X$35419 105 3 2 463 CLKBUF_X3
* cell instance $35420 r0 *1 241.49,287
X$35420 536 535 505 3 2 NOR2_X4
* cell instance $35421 r0 *1 243.2,287
X$35421 3 535 536 506 538 544 2 NOR4_X4
* cell instance $35422 r0 *1 246.62,287
X$35422 545 537 503 2 533 3 NOR3_X2
* cell instance $35423 r0 *1 247.95,287
X$35423 512 3 2 538 INV_X1
* cell instance $35424 r0 *1 248.33,287
X$35424 545 538 503 2 519 3 NOR3_X2
* cell instance $35425 r0 *1 249.66,287
X$35425 105 3 2 523 CLKBUF_X3
* cell instance $35426 r0 *1 250.61,287
X$35426 550 3 2 469 INV_X4
* cell instance $35434 m0 *1 241.49,289.8
X$35434 3 535 536 506 537 557 2 NOR4_X4
* cell instance $35436 m0 *1 245.1,289.8
X$35436 506 489 501 2 3 547 AND3_X1
* cell instance $35438 m0 *1 246.24,289.8
X$35438 549 536 2 3 501 AND2_X2
* cell instance $35440 m0 *1 247.57,289.8
X$35440 536 549 3 2 545 NAND2_X1
* cell instance $35443 m0 *1 250.42,289.8
X$35443 3 522 2 550 BUF_X8
* cell instance $35446 m0 *1 253.46,289.8
X$35446 522 2 526 3 BUF_X4
* cell instance $35455 m0 *1 256.69,289.8
X$35455 559 2 340 3 BUF_X4
* cell instance $35459 m0 *1 264.67,289.8
X$35459 570 217 552 3 2 539 MUX2_X1
* cell instance $35460 r0 *1 265.81,287
X$35460 511 3 2 847 INV_X4
* cell instance $35461 r0 *1 264.86,287
X$35461 105 3 2 511 CLKBUF_X3
* cell instance $35462 r0 *1 266.76,287
X$35462 445 540 3 2 528 NOR2_X1
* cell instance $35464 r0 *1 267.52,287
X$35464 543 3 2 446 BUF_X2
* cell instance $35465 r0 *1 268.28,287
X$35465 445 3 2 541 INV_X1
* cell instance $35470 m0 *1 267.14,289.8
X$35470 466 521 541 2 554 3 OAI21_X1
* cell instance $35472 m0 *1 268.28,289.8
X$35472 555 3 2 543 BUF_X2
* cell instance $35474 m0 *1 269.23,289.8
X$35474 555 556 3 2 569 NAND2_X1
* cell instance $35475 m0 *1 269.8,289.8
X$35475 3 445 556 565 567 2 AOI21_X4
* cell instance $35476 r0 *1 272.27,287
X$35476 525 3 2 555 BUF_X1
* cell instance $35521 r0 *1 514.14,287
X$35521 556 3 2 515 BUF_X1
* cell instance $35525 m0 *1 272.46,289.8
X$35525 555 3 2 454 CLKBUF_X3
* cell instance $35692 m0 *1 228,287
X$35692 438 108 534 3 2 527 MUX2_X1
* cell instance $35696 r0 *1 235.6,284.2
X$35696 518 522 521 2 3 52 OAI21_X4
* cell instance $35698 r0 *1 239.78,284.2
X$35698 531 522 521 2 3 125 OAI21_X4
* cell instance $35700 m0 *1 235.6,287
X$35700 544 522 521 2 3 57 OAI21_X4
* cell instance $35704 m0 *1 240.16,287
X$35704 503 489 505 2 3 532 AND3_X1
* cell instance $35708 m0 *1 241.87,287
X$35708 506 504 501 2 3 531 AND3_X1
* cell instance $35709 r0 *1 242.82,284.2
X$35709 505 504 506 3 2 465 NAND3_X2
* cell instance $35713 m0 *1 242.82,287
X$35713 463 3 2 842 INV_X4
* cell instance $35717 m0 *1 246.24,287
X$35717 513 3 2 537 INV_X1
* cell instance $35720 r0 *1 247.57,284.2
X$35720 501 513 503 3 2 520 NAND3_X2
* cell instance $35722 m0 *1 248.33,287
X$35722 523 3 2 843 INV_X4
* cell instance $35724 r0 *1 249.47,284.2
X$35724 3 217 520 469 467 2 AOI21_X4
* cell instance $35727 r0 *1 253.46,284.2
X$35727 519 522 521 2 3 130 OAI21_X4
* cell instance $35731 r0 *1 258.4,284.2
X$35731 3 778 514 517 511 2 DFF_X1
* cell instance $35737 m0 *1 253.46,287
X$35737 533 522 521 2 3 202 OAI21_X4
* cell instance $35741 m0 *1 255.93,287
X$35741 3 707 530 524 523 2 DFF_X1
* cell instance $35745 r0 *1 265.81,284.2
X$35745 528 466 521 2 3 444 OAI21_X4
* cell instance $35790 m0 *1 266.95,287
X$35790 521 526 516 3 2 NOR2_X4
* cell instance $35793 m0 *1 270.56,287
X$35793 105 3 2 507 CLKBUF_X3
* cell instance $35794 m0 *1 271.51,287
X$35794 507 3 2 844 INV_X4
* cell instance $35851 r0 *1 514.33,284.2
X$35851 516 3 2 508 BUF_X1
* cell instance $35928 r0 *1 217.93,259
X$35928 3 804 310 309 236 2 DFF_X1
* cell instance $35956 r0 *1 225.34,259
X$35956 3 784 295 294 236 2 DFF_X1
* cell instance $35961 r0 *1 235.03,259
X$35961 299 115 300 3 2 313 MUX2_X1
* cell instance $35964 r0 *1 236.74,259
X$35964 3 818 300 313 212 2 DFF_X1
* cell instance $35967 m0 *1 237.5,261.8
X$35967 299 125 334 3 2 352 MUX2_X1
* cell instance $35969 m0 *1 239.59,261.8
X$35969 299 3 2 316 BUF_X2
* cell instance $35972 r0 *1 240.35,259
X$35972 300 155 301 3 2 315 MUX2_X1
* cell instance $35975 r0 *1 246.43,259
X$35975 3 761 325 302 172 2 DFF_X1
* cell instance $35981 r0 *1 265.81,259
X$35981 3 783 304 303 314 2 DFF_X1
* cell instance $35984 r0 *1 269.99,259
X$35984 305 171 307 3 2 323 MUX2_X1
* cell instance $35986 r0 *1 274.36,259
X$35986 306 217 316 3 2 311 MUX2_X1
* cell instance $35987 r0 *1 275.69,259
X$35987 322 203 306 3 2 307 MUX2_X1
* cell instance $36007 m0 *1 242.25,261.8
X$36007 337 171 315 3 2 328 MUX2_X1
* cell instance $36011 m0 *1 245.67,261.8
X$36011 325 30 316 3 2 302 MUX2_X1
* cell instance $36014 m0 *1 248.14,261.8
X$36014 317 15 316 3 2 338 MUX2_X1
* cell instance $36016 m0 *1 250.23,261.8
X$36016 325 27 317 3 2 331 MUX2_X1
* cell instance $36017 m0 *1 251.56,261.8
X$36017 3 702 318 329 330 2 DFF_X1
* cell instance $36018 m0 *1 254.79,261.8
X$36018 318 39 316 3 2 329 MUX2_X1
* cell instance $36024 m0 *1 256.69,261.8
X$36024 339 46 331 3 2 319 MUX2_X1
* cell instance $36025 m0 *1 258.02,261.8
X$36025 87 319 84 296 2 3 327 OAI22_X1
* cell instance $36027 m0 *1 259.35,261.8
X$36027 195 328 196 323 2 3 326 OAI22_X1
* cell instance $36028 m0 *1 260.3,261.8
X$36028 327 326 3 2 347 OR2_X1
* cell instance $36031 m0 *1 267.9,261.8
X$36031 316 130 304 3 2 303 MUX2_X1
* cell instance $36032 m0 *1 269.23,261.8
X$36032 304 158 324 3 2 305 MUX2_X1
* cell instance $36033 m0 *1 270.56,261.8
X$36033 324 132 316 3 2 346 MUX2_X1
* cell instance $36035 m0 *1 274.93,261.8
X$36035 316 202 322 3 2 321 MUX2_X1
* cell instance $36038 m0 *1 277.4,261.8
X$36038 3 705 322 321 320 2 DFF_X1
* cell instance $36219 r0 *1 223.25,264.6
X$36219 362 110 356 3 2 355 MUX2_X1
* cell instance $36220 r0 *1 221.92,264.6
X$36220 362 108 354 3 2 361 MUX2_X1
* cell instance $36223 r0 *1 225.53,264.6
X$36223 354 96 356 3 2 364 MUX2_X1
* cell instance $36228 r0 *1 232.37,264.6
X$36228 340 2 96 3 BUF_X4
* cell instance $36236 m0 *1 223.06,267.4
X$36236 3 737 356 355 236 2 DFF_X1
* cell instance $36241 m0 *1 234.46,267.4
X$36241 362 3 2 344 BUF_X2
* cell instance $36251 r0 *1 248.52,264.6
X$36251 360 3 2 105 CLKBUF_X3
* cell instance $36261 r0 *1 260.49,264.6
X$36261 333 2 203 3 BUF_X4
* cell instance $36267 m0 *1 269.61,267.4
X$36267 3 696 363 358 320 2 DFF_X1
* cell instance $36269 r0 *1 269.8,264.6
X$36269 363 132 344 3 2 358 MUX2_X1
* cell instance $36317 m0 *1 273.98,267.4
X$36317 344 202 370 3 2 373 MUX2_X1
* cell instance $36318 m0 *1 275.31,267.4
X$36318 371 217 344 3 2 359 MUX2_X1
* cell instance $36319 m0 *1 276.64,267.4
X$36319 3 692 371 359 320 2 DFF_X1
* cell instance $36461 m0 *1 221.54,270.2
X$36461 3 727 376 408 389 2 DFF_X1
* cell instance $36462 m0 *1 224.77,270.2
X$36462 376 23 400 3 2 377 MUX2_X1
* cell instance $36463 m0 *1 226.1,270.2
X$36463 377 62 364 3 2 391 MUX2_X1
* cell instance $36467 m0 *1 229.9,270.2
X$36467 362 125 378 3 2 410 MUX2_X1
* cell instance $36472 r0 *1 233.32,267.4
X$36472 340 2 23 3 BUF_X4
* cell instance $36473 r0 *1 237.69,267.4
X$36473 333 2 158 3 BUF_X4
* cell instance $36476 r0 *1 240.73,267.4
X$36476 366 2 62 3 BUF_X4
* cell instance $36479 m0 *1 233.32,270.2
X$36479 378 333 379 3 2 394 MUX2_X1
* cell instance $36482 m0 *1 235.22,270.2
X$36482 394 171 393 3 2 390 MUX2_X1
* cell instance $36487 m0 *1 241.68,270.2
X$36487 395 30 381 3 2 402 MUX2_X1
* cell instance $36489 m0 *1 243.77,270.2
X$36489 395 23 403 3 2 397 MUX2_X1
* cell instance $36491 r0 *1 245.67,267.4
X$36491 3 799 382 380 330 2 DFF_X1
* cell instance $36496 m0 *1 245.86,270.2
X$36496 382 39 381 3 2 380 MUX2_X1
* cell instance $36498 m0 *1 247.95,270.2
X$36498 382 23 383 3 2 396 MUX2_X1
* cell instance $36500 m0 *1 250.04,270.2
X$36500 396 62 397 3 2 384 MUX2_X1
* cell instance $36503 m0 *1 252.51,270.2
X$36503 398 39 344 3 2 365 MUX2_X1
* cell instance $36504 r0 *1 253.27,267.4
X$36504 3 797 398 365 330 2 DFF_X1
* cell instance $36508 m0 *1 255.36,270.2
X$36508 399 26 344 3 2 412 MUX2_X1
* cell instance $36510 r0 *1 256.88,267.4
X$36510 366 2 46 3 BUF_X4
* cell instance $36511 r0 *1 258.21,267.4
X$36511 375 96 3 196 2 NAND2_X4
* cell instance $36512 r0 *1 259.92,267.4
X$36512 203 375 3 2 367 OR2_X1
* cell instance $36513 r0 *1 260.68,267.4
X$36513 96 385 3 2 374 OR2_X1
* cell instance $36514 r0 *1 261.44,267.4
X$36514 374 3 2 195 BUF_X2
* cell instance $36518 m0 *1 256.88,270.2
X$36518 398 340 399 3 2 392 MUX2_X1
* cell instance $36520 m0 *1 258.59,270.2
X$36520 375 3 2 385 INV_X1
* cell instance $36521 m0 *1 258.97,270.2
X$36521 385 203 3 84 2 NAND2_X4
* cell instance $36522 m0 *1 260.68,270.2
X$36522 367 3 2 87 CLKBUF_X3
* cell instance $36523 m0 *1 261.63,270.2
X$36523 392 46 357 3 2 386 MUX2_X1
* cell instance $36525 m0 *1 263.34,270.2
X$36525 195 390 196 388 2 3 406 OAI22_X1
* cell instance $36528 m0 *1 265.43,270.2
X$36528 3 698 368 387 314 2 DFF_X1
* cell instance $36530 r0 *1 266.38,267.4
X$36530 344 130 368 3 2 387 MUX2_X1
* cell instance $36531 r0 *1 269.23,267.4
X$36531 368 158 363 3 2 369 MUX2_X1
* cell instance $36532 r0 *1 270.56,267.4
X$36532 369 171 372 3 2 388 MUX2_X1
* cell instance $36536 r0 *1 273.22,267.4
X$36536 3 806 370 373 320 2 DFF_X1
* cell instance $36538 r0 *1 276.45,267.4
X$36538 370 203 371 3 2 372 MUX2_X1
* cell instance $36751 r0 *1 221.16,270.2
X$36751 362 52 376 3 2 408 MUX2_X1
* cell instance $36753 r0 *1 224.77,270.2
X$36753 362 57 400 3 2 409 MUX2_X1
* cell instance $36757 m0 *1 223.63,273
X$36757 3 689 400 409 389 2 DFF_X1
* cell instance $36759 r0 *1 228.19,270.2
X$36759 3 814 378 410 389 2 DFF_X1
* cell instance $36761 r0 *1 231.42,270.2
X$36761 3 812 379 411 389 2 DFF_X1
* cell instance $36762 r0 *1 234.65,270.2
X$36762 379 213 344 3 2 411 MUX2_X1
* cell instance $36768 m0 *1 237.12,273
X$36768 435 171 401 3 2 404 MUX2_X1
* cell instance $36770 r0 *1 239.59,270.2
X$36770 366 2 171 3 BUF_X4
* cell instance $36772 r0 *1 240.92,270.2
X$36772 3 795 395 402 330 2 DFF_X1
* cell instance $36774 r0 *1 244.91,270.2
X$36774 3 819 383 414 330 2 DFF_X1
* cell instance $36775 r0 *1 248.14,270.2
X$36775 383 26 381 3 2 414 MUX2_X1
* cell instance $36781 m0 *1 241.3,273
X$36781 3 714 403 413 330 2 DFF_X1
* cell instance $36782 m0 *1 244.53,273
X$36782 403 15 381 3 2 413 MUX2_X1
* cell instance $36784 r0 *1 250.8,270.2
X$36784 415 84 384 87 2 3 436 OAI22_X1
* cell instance $36791 r0 *1 254.41,270.2
X$36791 3 796 399 412 330 2 DFF_X1
* cell instance $36794 r0 *1 262.39,270.2
X$36794 87 386 84 391 2 3 405 OAI22_X1
* cell instance $36795 r0 *1 263.34,270.2
X$36795 405 406 3 2 460 OR2_X1
* cell instance $36820 m0 *1 258.59,273
X$36820 418 196 404 195 2 3 419 OAI22_X1
* cell instance $36821 m0 *1 259.54,273
X$36821 436 419 3 2 407 OR2_X1
* cell instance $37013 r0 *1 244.15,306.6
X$37013 654 648 647 2 3 660 HA_X1
* cell instance $37016 r0 *1 246.24,306.6
X$37016 646 574 655 2 3 662 HA_X1
* cell instance $37017 r0 *1 248.14,306.6
X$37017 3 656 662 642 650 651 636 2 AOI221_X4
* cell instance $37021 r0 *1 258.97,306.6
X$37021 3 645 652 517 511 2 DFF_X1
* cell instance $37022 r0 *1 262.2,306.6
X$37022 3 654 653 551 511 2 DFF_X1
* cell instance $37042 m0 *1 244.53,309.4
X$37042 647 3 2 658 BUF_X2
* cell instance $37045 m0 *1 246.43,309.4
X$37045 658 642 2 3 664 AND2_X1
* cell instance $37046 m0 *1 247.19,309.4
X$37046 650 658 660 649 664 575 2 3 AOI221_X2
* cell instance $37211 r0 *1 229.9,261.8
X$37211 3 817 332 348 212 2 DFF_X1
* cell instance $37213 r0 *1 233.32,261.8
X$37213 3 816 350 351 212 2 DFF_X1
* cell instance $37238 m0 *1 220.97,264.6
X$37238 3 728 354 361 236 2 DFF_X1
* cell instance $37242 m0 *1 230.85,264.6
X$37242 362 115 332 3 2 348 MUX2_X1
* cell instance $37244 m0 *1 232.37,264.6
X$37244 332 155 350 3 2 393 MUX2_X1
* cell instance $37246 m0 *1 234.08,264.6
X$37246 350 187 344 3 2 351 MUX2_X1
* cell instance $37249 m0 *1 236.36,264.6
X$37249 333 2 155 3 BUF_X4
* cell instance $37251 r0 *1 236.93,261.8
X$37251 3 808 334 352 212 2 DFF_X1
* cell instance $37252 r0 *1 240.35,261.8
X$37252 336 213 316 3 2 335 MUX2_X1
* cell instance $37253 r0 *1 241.68,261.8
X$37253 334 333 336 3 2 337 MUX2_X1
* cell instance $37260 m0 *1 241.3,264.6
X$37260 3 736 336 335 212 2 DFF_X1
* cell instance $37262 r0 *1 248.14,261.8
X$37262 3 798 317 338 172 2 DFF_X1
* cell instance $37266 r0 *1 253.65,261.8
X$37266 3 768 341 353 330 2 DFF_X1
* cell instance $37267 r0 *1 256.88,261.8
X$37267 341 26 316 3 2 353 MUX2_X1
* cell instance $37268 r0 *1 258.21,261.8
X$37268 3 776 342 349 314 2 DFF_X1
* cell instance $37269 r0 *1 261.44,261.8
X$37269 342 30 344 3 2 349 MUX2_X1
* cell instance $37276 m0 *1 254.98,264.6
X$37276 318 340 341 3 2 339 MUX2_X1
* cell instance $37280 m0 *1 256.31,264.6
X$37280 340 2 27 3 BUF_X4
* cell instance $37283 m0 *1 261.06,264.6
X$37283 342 27 343 3 2 357 MUX2_X1
* cell instance $37287 r0 *1 264.67,261.8
X$37287 343 15 344 3 2 345 MUX2_X1
* cell instance $37290 r0 *1 269.99,261.8
X$37290 3 767 324 346 320 2 DFF_X1
* cell instance $37309 m0 *1 264.86,264.6
X$37309 3 697 343 345 314 2 DFF_X1
* cell instance $37492 m0 *1 243.2,317.8
X$37492 667 641 2 675 3 XOR2_X2
* cell instance $37493 r0 *1 244.91,315
X$37493 641 3 2 665 INV_X2
* cell instance $37495 r0 *1 245.48,315
X$37495 658 665 667 666 3 2 657 OR4_X1
* cell instance $37496 r0 *1 246.62,315
X$37496 666 667 665 658 3 2 663 NOR4_X1
* cell instance $37548 m0 *1 245.67,317.8
X$37548 666 667 3 2 671 NAND2_X1
* cell instance $37551 m0 *1 248.14,317.8
X$37551 672 3 2 667 CLKBUF_X2
* cell instance $37720 r0 *1 242.63,301
X$37720 625 630 629 3 2 640 MUX2_X1
* cell instance $37722 r0 *1 243.96,301
X$37722 626 466 580 3 630 2 AOI21_X1
* cell instance $37726 r0 *1 247.19,301
X$37726 612 573 641 2 3 635 HA_X1
* cell instance $37731 r0 *1 260.49,301
X$37731 633 526 580 3 627 2 AOI21_X1
* cell instance $37736 m0 *1 249.09,303.8
X$37736 635 3 2 636 INV_X1
* cell instance $37742 r0 *1 262.58,301
X$37742 581 578 605 576 3 2 638 NAND4_X1
* cell instance $37790 m0 *1 262.77,303.8
X$37790 638 526 580 3 637 2 AOI21_X1
* cell instance $37926 r0 *1 239.97,292.6
X$37926 572 571 823 2 3 489 HA_X1
* cell instance $37928 r0 *1 243.39,292.6
X$37928 535 467 466 3 583 2 AOI21_X2
* cell instance $37931 r0 *1 249.28,292.6
X$37931 563 575 2 550 3 XOR2_X2
* cell instance $37934 r0 *1 255.55,292.6
X$37934 585 561 584 3 2 560 MUX2_X1
* cell instance $37935 r0 *1 256.88,292.6
X$37935 543 578 2 3 585 AND2_X1
* cell instance $37936 r0 *1 257.64,292.6
X$37936 454 579 2 3 584 AND2_X1
* cell instance $37938 r0 *1 259.92,292.6
X$37938 581 3 2 597 INV_X1
* cell instance $37942 r0 *1 265.05,292.6
X$37942 564 592 3 2 563 XNOR2_X2
* cell instance $37965 m0 *1 237.31,295.4
X$37965 3 596 463 571 574 2 DFF_X2
* cell instance $37968 m0 *1 241.3,295.4
X$37968 573 571 595 2 3 504 HA_X1
* cell instance $37970 m0 *1 243.39,295.4
X$37970 572 574 822 2 3 513 HA_X1
* cell instance $37972 m0 *1 246.05,295.4
X$37972 573 574 821 2 3 512 HA_X1
* cell instance $37976 m0 *1 255.93,295.4
X$37976 543 576 2 3 586 AND2_X1
* cell instance $37977 m0 *1 256.69,295.4
X$37977 576 540 3 2 562 NOR2_X1
* cell instance $37980 m0 *1 258.21,295.4
X$37980 578 577 579 3 2 599 MUX2_X1
* cell instance $37981 m0 *1 259.54,295.4
X$37981 597 526 580 3 577 2 AOI21_X1
* cell instance $37982 m0 *1 260.3,295.4
X$37982 3 599 511 825 578 2 DFF_X2
* cell instance $37985 r0 *1 267.33,292.6
X$37985 580 526 3 2 447 NAND2_X2
* cell instance $38192 r0 *1 237.31,298.2
X$38192 3 617 463 573 572 2 DFF_X2
* cell instance $38195 r0 *1 241.68,298.2
X$38195 620 583 600 3 2 617 MUX2_X1
* cell instance $38199 r0 *1 247,298.2
X$38199 506 540 3 2 610 NOR2_X1
* cell instance $38200 r0 *1 247.57,298.2
X$38200 610 622 601 3 2 631 MUX2_X1
* cell instance $38201 r0 *1 248.9,298.2
X$38201 611 2 503 3 BUF_X4
* cell instance $38202 r0 *1 250.23,298.2
X$38202 611 3 2 506 INV_X4
* cell instance $38211 m0 *1 241.87,301
X$38211 543 536 2 3 625 AND2_X1
* cell instance $38214 m0 *1 244.34,301
X$38214 572 574 503 549 3 2 626 NAND4_X1
* cell instance $38217 m0 *1 245.86,301
X$38217 536 540 3 2 629 NOR2_X1
* cell instance $38218 m0 *1 246.43,301
X$38218 3 631 523 829 611 2 DFF_X2
* cell instance $38222 m0 *1 251.37,301
X$38222 643 3 2 549 BUF_X2
* cell instance $38224 r0 *1 258.21,298.2
X$38224 612 3 2 576 BUF_X1
* cell instance $38225 r0 *1 254.6,298.2
X$38225 3 609 523 831 612 2 DFF_X2
* cell instance $38229 r0 *1 261.06,298.2
X$38229 543 605 2 3 634 AND2_X1
* cell instance $38230 r0 *1 259.16,298.2
X$38230 612 578 579 2 3 613 HA_X1
* cell instance $38231 r0 *1 261.82,298.2
X$38231 605 540 3 2 632 NOR2_X1
* cell instance $38232 r0 *1 262.39,298.2
X$38232 614 526 580 3 624 2 AOI21_X1
* cell instance $38233 r0 *1 263.15,298.2
X$38233 613 565 3 2 614 NAND2_X1
* cell instance $38234 r0 *1 263.72,298.2
X$38234 543 623 2 3 615 AND2_X1
* cell instance $38238 m0 *1 260.87,301
X$38238 581 613 3 2 633 NAND2_X1
* cell instance $38239 m0 *1 261.44,301
X$38239 634 624 632 3 2 517 MUX2_X1
* cell instance $38240 m0 *1 262.77,301
X$38240 615 604 628 3 2 551 MUX2_X1
* cell instance $38241 m0 *1 264.1,301
X$38241 623 540 3 2 628 NOR2_X1
* cell instance $38243 r0 *1 265.05,298.2
X$38243 623 605 613 565 3 2 616 NAND4_X1
* cell instance $38246 r0 *1 266.76,298.2
X$38246 621 526 580 3 619 2 AOI21_X1
* cell instance $38248 r0 *1 269.04,298.2
X$38248 592 619 3 2 618 XOR2_X1
* cell instance $38250 m0 *1 265.05,301
X$38250 581 623 605 613 3 2 621 NAND4_X1
* cell instance $38252 r0 *1 273.79,298.2
X$38252 606 3 2 592 CLKBUF_X2
* cell instance $38253 r0 *1 270.56,298.2
X$38253 3 807 606 618 507 2 DFF_X1
* cell instance $38440 r0 *1 240.73,295.4
X$38440 543 574 2 3 587 AND2_X1
* cell instance $38441 r0 *1 241.49,295.4
X$38441 587 583 598 3 2 596 MUX2_X1
* cell instance $38442 r0 *1 242.82,295.4
X$38442 454 595 2 3 598 AND2_X1
* cell instance $38475 m0 *1 241.3,298.2
X$38475 543 572 2 3 620 AND2_X1
* cell instance $38476 m0 *1 242.06,298.2
X$38476 454 573 2 3 600 AND2_X1
* cell instance $38563 m0 *1 229.52,284.2
X$38563 3 732 497 509 463 2 DFF_X1
* cell instance $38565 r0 *1 231.04,281.4
X$38565 438 57 497 3 2 509 MUX2_X1
* cell instance $38567 r0 *1 233.32,281.4
X$38567 462 340 497 3 2 498 MUX2_X1
* cell instance $38569 r0 *1 235.41,281.4
X$38569 498 366 529 3 2 415 MUX2_X1
* cell instance $38576 m0 *1 240.16,284.2
X$38576 503 504 505 2 3 518 AND3_X1
* cell instance $38581 m0 *1 242.63,284.2
X$38581 501 504 503 3 2 464 NAND3_X2
* cell instance $38583 r0 *1 243.2,281.4
X$38583 501 489 503 3 2 488 NAND3_X2
* cell instance $38586 m0 *1 243.96,284.2
X$38586 505 513 506 3 2 479 NAND3_X2
* cell instance $38587 m0 *1 245.29,284.2
X$38587 505 489 506 3 2 468 NAND3_X2
* cell instance $38588 m0 *1 246.62,284.2
X$38588 505 512 506 3 2 500 NAND3_X2
* cell instance $38590 r0 *1 247.19,281.4
X$38590 501 512 503 3 2 482 NAND3_X2
* cell instance $38600 m0 *1 250.8,284.2
X$38600 3 466 2 469 BUF_X8
* cell instance $38605 m0 *1 257.64,284.2
X$38605 530 3 2 366 CLKBUF_X3
* cell instance $38608 m0 *1 260.87,284.2
X$38608 514 3 2 333 CLKBUF_X3
* cell instance $38609 m0 *1 261.82,284.2
X$38609 3 551 511 826 375 2 DFF_X2
* cell instance $38611 r0 *1 266.57,281.4
X$38611 3 471 507 834 472 2 DFF_X2
* cell instance $38616 m0 *1 268.09,284.2
X$38616 3 510 507 827 491 2 DFF_X2
* cell instance $38617 r0 *1 270.75,281.4
X$38617 444 201 490 502 447 2 3 510 OAI221_X1
* cell instance $38619 r0 *1 271.89,281.4