
* cell parameterized_crc_generator
* pin data_valid
* pin data_in[0]
* pin rst_n
* pin crc_out[0]
* pin data_in[4]
* pin data_in[2]
* pin crc_out[4]
* pin PWELL
* pin NWELL
* pin crc_out[2]
* pin data_in[7]
* pin data_in[1]
* pin data_in[3]
* pin data_in[6]
* pin clk
* pin crc_out[7]
* pin crc_out[1]
* pin crc_init
* pin crc_out[3]
* pin crc_out[6]
* pin crc_out[5]
* pin data_in[5]
.SUBCKT parameterized_crc_generator 1 2 3 4 5 6 7 11 12 30 52 55 61 64 72 91
+ 104 110 114 116 118 119
* net 1 data_valid
* net 2 data_in[0]
* net 3 rst_n
* net 4 crc_out[0]
* net 5 data_in[4]
* net 6 data_in[2]
* net 7 crc_out[4]
* net 11 PWELL
* net 12 NWELL
* net 30 crc_out[2]
* net 52 data_in[7]
* net 55 data_in[1]
* net 61 data_in[3]
* net 64 data_in[6]
* net 72 clk
* net 91 crc_out[7]
* net 104 crc_out[1]
* net 110 crc_init
* net 114 crc_out[3]
* net 116 crc_out[6]
* net 118 crc_out[5]
* net 119 data_in[5]
* cell instance $2 r0 *1 14.82,9.8
X$2 1 11 12 27 BUF_X2
* cell instance $12 r0 *1 15.77,1.4
X$12 2 11 12 23 BUF_X1
* cell instance $14 m0 *1 16.72,4.2
X$14 3 11 12 8 BUF_X1
* cell instance $20 r0 *1 18.62,1.4
X$20 14 11 12 4 BUF_X1
* cell instance $30 r0 *1 22.42,1.4
X$30 5 11 12 9 BUF_X1
* cell instance $32 r0 *1 25.27,1.4
X$32 6 11 12 10 BUF_X1
* cell instance $38 r0 *1 28.31,1.4
X$38 15 11 12 7 BUF_X1
* cell instance $45 m0 *1 20.14,15.4
X$45 8 11 12 57 INV_X1
* cell instance $47 m0 *1 25.84,12.6
X$47 8 24 12 11 25 AND2_X1
* cell instance $49 r0 *1 24.51,7
X$49 8 19 12 11 16 AND2_X1
* cell instance $52 m0 *1 16.53,9.8
X$52 8 20 12 11 13 AND2_X1
* cell instance $60 m0 *1 22.23,9.8
X$60 19 9 12 18 11 XOR2_X2
* cell instance $63 m0 *1 24.7,12.6
X$63 10 24 12 11 35 XNOR2_X1
* cell instance $64 m0 *1 14.82,26.6
X$64 11 100 99 92 12 DFF_X1
* cell instance $66 m0 *1 18.05,26.6
X$66 100 12 65 11 BUF_X4
* cell instance $67 m0 *1 19.38,26.6
X$67 93 101 11 12 86 XNOR2_X2
* cell instance $71 m0 *1 26.03,26.6
X$71 95 76 11 12 103 NOR2_X1
* cell instance $74 m0 *1 29.83,26.6
X$74 11 97 96 92 12 DFF_X1
* cell instance $91 r0 *1 17.86,26.6
X$91 65 11 12 106 INV_X1
* cell instance $93 r0 *1 18.62,26.6
X$93 106 57 84 11 12 105 NOR3_X1
* cell instance $95 r0 *1 19.57,26.6
X$95 101 11 12 107 INV_X1
* cell instance $96 r0 *1 19.95,26.6
X$96 107 57 84 11 12 108 NOR3_X1
* cell instance $97 r0 *1 20.71,26.6
X$97 108 94 102 11 12 109 MUX2_X1
* cell instance $98 r0 *1 22.04,26.6
X$98 101 76 84 11 12 102 NOR3_X1
* cell instance $101 m0 *1 33.63,26.6
X$101 97 11 12 104 BUF_X1
* cell instance $109 m0 *1 27.17,21
X$109 70 60 11 12 80 NOR2_X1
* cell instance $114 r0 *1 27.36,21
X$114 75 80 83 11 12 67 MUX2_X1
* cell instance $116 r0 *1 29.07,21
X$116 11 77 67 17 12 DFF_X1
* cell instance $118 m0 *1 33.63,21
X$118 61 11 12 59 BUF_X1
* cell instance $127 m0 *1 16.34,40.6
X$127 115 11 12 116 BUF_X1
* cell instance $130 m0 *1 22.99,40.6
X$130 117 11 12 118 BUF_X1
* cell instance $137 m0 *1 4.94,21
X$137 52 11 12 62 BUF_X1
* cell instance $141 m0 *1 14.63,21
X$141 62 65 12 11 79 XNOR2_X1
* cell instance $142 m0 *1 15.77,21
X$142 53 11 12 46 INV_X1
* cell instance $144 m0 *1 16.91,21
X$144 62 53 11 12 43 XNOR2_X2
* cell instance $152 r0 *1 1.33,21
X$152 64 11 12 71 BUF_X1
* cell instance $155 r0 *1 14.06,21
X$155 71 65 12 11 41 XNOR2_X1
* cell instance $156 r0 *1 15.2,21
X$156 78 79 12 11 42 XNOR2_X1
* cell instance $157 r0 *1 16.34,21
X$157 71 86 11 12 78 XNOR2_X2
* cell instance $159 r0 *1 19,21
X$159 18 78 12 11 89 XNOR2_X1
* cell instance $162 m0 *1 21.66,21
X$162 57 84 11 12 28 NOR2_X2
* cell instance $163 m0 *1 22.61,21
X$163 18 63 11 12 34 XNOR2_X2
* cell instance $167 m0 *1 25.08,21
X$167 59 66 12 11 63 XNOR2_X1
* cell instance $169 m0 *1 26.22,21
X$169 69 60 11 12 68 NOR2_X1
* cell instance $171 r0 *1 25.46,21
X$171 90 68 74 11 12 73 MUX2_X1
* cell instance $255 m0 *1 14.25,12.6
X$255 11 20 31 17 12 DFF_X1
* cell instance $267 r0 *1 15.2,12.6
X$267 28 36 12 11 31 AND2_X1
* cell instance $268 r0 *1 15.96,12.6
X$268 20 27 33 11 12 36 MUX2_X1
* cell instance $271 m0 *1 21.85,12.6
X$271 28 26 12 11 22 AND2_X1
* cell instance $273 m0 *1 22.61,12.6
X$273 24 27 11 12 29 OR2_X1
* cell instance $274 m0 *1 23.37,12.6
X$274 19 27 37 11 12 26 MUX2_X1
* cell instance $278 r0 *1 22.23,12.6
X$278 28 29 40 12 11 38 AND3_X1
* cell instance $279 r0 *1 23.18,12.6
X$279 11 24 38 17 12 DFF_X1
* cell instance $281 m0 *1 28.69,12.6
X$281 11 32 25 17 12 DFF_X1
* cell instance $286 m0 *1 34.39,12.6
X$286 32 11 12 30 BUF_X1
* cell instance $307 r0 *1 13.3,18.2
X$307 11 53 45 17 12 DFF_X1
* cell instance $308 m0 *1 16.53,18.2
X$308 51 47 11 12 45 OR2_X1
* cell instance $309 m0 *1 15.39,18.2
X$309 46 27 28 42 12 11 47 AND4_X1
* cell instance $310 m0 *1 17.29,18.2
X$310 49 43 12 11 33 XNOR2_X1
* cell instance $314 r0 *1 16.53,18.2
X$314 48 27 42 11 51 12 AOI21_X1
* cell instance $315 r0 *1 17.29,18.2
X$315 28 53 11 12 48 NAND2_X1
* cell instance $318 r0 *1 22.42,18.2
X$318 27 11 12 60 INV_X1
* cell instance $320 m0 *1 22.8,18.2
X$320 50 27 11 12 40 NAND2_X1
* cell instance $321 m0 *1 23.37,18.2
X$321 49 44 12 11 50 XNOR2_X1
* cell instance $323 m0 *1 24.7,18.2
X$323 35 56 12 11 44 XNOR2_X1
* cell instance $329 r0 *1 24.32,18.2
X$329 59 43 12 11 58 XNOR2_X1
* cell instance $330 r0 *1 25.46,18.2
X$330 44 58 12 11 69 XNOR2_X1
* cell instance $331 r0 *1 26.6,18.2
X$331 54 49 12 11 70 XNOR2_X1
* cell instance $333 r0 *1 28.12,18.2
X$333 77 54 11 12 56 XOR2_X1
* cell instance $337 r0 *1 33.44,18.2
X$337 55 11 12 54 BUF_X1
* cell instance $357 r0 *1 15.39,15.4
X$357 21 41 11 12 49 XNOR2_X2
* cell instance $361 m0 *1 23.56,15.4
X$361 35 34 12 11 37 XNOR2_X1
* cell instance $370 r0 *1 22.99,15.4
X$370 39 11 12 17 CLKBUF_X3
* cell instance $384 r0 *1 5.89,23.8
X$384 87 11 12 91 BUF_X1
* cell instance $388 r0 *1 13.49,23.8
X$388 11 87 98 92 12 DFF_X1
* cell instance $389 m0 *1 15.58,23.8
X$389 46 76 11 12 98 NOR2_X1
* cell instance $397 m0 *1 19,23.8
X$397 65 76 84 11 12 81 NOR3_X1
* cell instance $398 m0 *1 19.76,23.8
X$398 89 60 11 12 88 NOR2_X1
* cell instance $399 m0 *1 20.33,23.8
X$399 93 34 12 11 82 XNOR2_X1
* cell instance $402 m0 *1 23.18,23.8
X$402 72 11 12 39 CLKBUF_X3
* cell instance $405 r0 *1 19,23.8
X$405 105 88 81 11 12 99 MUX2_X1
* cell instance $407 r0 *1 20.71,23.8
X$407 82 60 11 12 94 NOR2_X1
* cell instance $412 r0 *1 24.13,23.8
X$412 57 11 12 76 CLKBUF_X3
* cell instance $413 r0 *1 25.08,23.8
X$413 95 57 84 11 12 90 NOR3_X1
* cell instance $414 m0 *1 25.46,23.8
X$414 11 66 73 92 12 DFF_X1
* cell instance $416 m0 *1 28.69,23.8
X$416 77 76 84 11 12 83 NOR3_X1
* cell instance $417 m0 *1 29.45,23.8
X$417 77 11 12 85 INV_X1
* cell instance $422 r0 *1 25.84,23.8
X$422 66 11 12 95 INV_X1
* cell instance $424 r0 *1 26.41,23.8
X$424 66 76 84 11 12 74 NOR3_X1
* cell instance $426 r0 *1 27.55,23.8
X$426 85 76 84 11 12 75 NOR3_X1
* cell instance $428 r0 *1 29.07,23.8
X$428 85 76 11 12 96 NOR2_X1
* cell instance $453 m0 *1 16.72,37.8
X$453 11 115 112 92 12 DFF_X1
* cell instance $454 m0 *1 19.95,37.8
X$454 11 117 111 92 12 DFF_X1
* cell instance $470 r0 *1 20.52,37.8
X$470 119 11 12 93 BUF_X1
* cell instance $475 r0 *1 29.26,37.8
X$475 113 11 12 114 BUF_X1
* cell instance $502 r0 *1 26.03,35
X$502 11 113 103 92 12 DFF_X1
* cell instance $515 m0 *1 15.96,7
X$515 11 14 13 17 12 DFF_X1
* cell instance $530 m0 *1 25.08,7
X$530 11 15 16 17 12 DFF_X1
* cell instance $552 r0 *1 15.58,9.8
X$552 23 20 12 21 11 XOR2_X2
* cell instance $556 r0 *1 21.28,9.8
X$556 11 19 22 17 12 DFF_X1
* cell instance $577 m0 *1 19.57,29.4
X$577 11 109 92 101 12 DFF_X2
* cell instance $578 m0 *1 23.18,29.4
X$578 39 11 12 92 CLKBUF_X3
* cell instance $579 m0 *1 24.13,29.4
X$579 92 11 12 CLKBUF_X1
* cell instance $582 m0 *1 27.93,29.4
X$582 110 12 84 11 BUF_X4
* cell instance $597 r0 *1 17.67,29.4
X$597 106 76 11 12 112 NOR2_X1
* cell instance $600 r0 *1 20.14,29.4
X$600 107 76 11 12 111 NOR2_X1
.ENDS parameterized_crc_generator

* cell XOR2_X1
* pin A
* pin B
* pin PWELL,VSS
* pin NWELL,VDD
* pin Z
.SUBCKT XOR2_X1 1 3 4 5 6
* net 1 A
* net 3 B
* net 4 PWELL,VSS
* net 5 NWELL,VDD
* net 6 Z
* device instance $1 r0 *1 0.17,1.1525 PMOS_VTL
M$1 8 1 2 5 PMOS_VTL L=0.05U W=0.315U AS=0.033075P AD=0.02205P PS=0.84U
+ PD=0.455U
* device instance $2 r0 *1 0.36,1.1525 PMOS_VTL
M$2 8 3 5 5 PMOS_VTL L=0.05U W=0.315U AS=0.0338625P AD=0.02205P PS=0.775U
+ PD=0.455U
* device instance $3 r0 *1 0.555,0.995 PMOS_VTL
M$3 7 2 5 5 PMOS_VTL L=0.05U W=0.63U AS=0.0338625P AD=0.0441P PS=0.775U PD=0.77U
* device instance $4 r0 *1 0.745,0.995 PMOS_VTL
M$4 6 1 7 5 PMOS_VTL L=0.05U W=0.63U AS=0.0441P AD=0.0441P PS=0.77U PD=0.77U
* device instance $5 r0 *1 0.935,0.995 PMOS_VTL
M$5 7 3 6 5 PMOS_VTL L=0.05U W=0.63U AS=0.0441P AD=0.06615P PS=0.77U PD=1.47U
* device instance $6 r0 *1 0.17,0.195 NMOS_VTL
M$6 2 1 4 4 NMOS_VTL L=0.05U W=0.21U AS=0.02205P AD=0.0147P PS=0.63U PD=0.35U
* device instance $7 r0 *1 0.36,0.195 NMOS_VTL
M$7 4 3 2 4 NMOS_VTL L=0.05U W=0.21U AS=0.0147P AD=0.0224P PS=0.35U PD=0.56U
* device instance $8 r0 *1 0.555,0.2975 NMOS_VTL
M$8 6 2 4 4 NMOS_VTL L=0.05U W=0.415U AS=0.0224P AD=0.02905P PS=0.56U PD=0.555U
* device instance $9 r0 *1 0.745,0.2975 NMOS_VTL
M$9 9 1 6 4 NMOS_VTL L=0.05U W=0.415U AS=0.02905P AD=0.02905P PS=0.555U
+ PD=0.555U
* device instance $10 r0 *1 0.935,0.2975 NMOS_VTL
M$10 4 3 9 4 NMOS_VTL L=0.05U W=0.415U AS=0.02905P AD=0.043575P PS=0.555U
+ PD=1.04U
.ENDS XOR2_X1

* cell AND3_X1
* pin A1
* pin A2
* pin A3
* pin NWELL,VDD
* pin PWELL,VSS
* pin ZN
.SUBCKT AND3_X1 1 2 3 5 6 7
* net 1 A1
* net 2 A2
* net 3 A3
* net 5 NWELL,VDD
* net 6 PWELL,VSS
* net 7 ZN
* device instance $1 r0 *1 0.17,1.1525 PMOS_VTL
M$1 5 1 4 5 PMOS_VTL L=0.05U W=0.315U AS=0.033075P AD=0.02205P PS=0.84U
+ PD=0.455U
* device instance $2 r0 *1 0.36,1.1525 PMOS_VTL
M$2 4 2 5 5 PMOS_VTL L=0.05U W=0.315U AS=0.02205P AD=0.02205P PS=0.455U
+ PD=0.455U
* device instance $3 r0 *1 0.55,1.1525 PMOS_VTL
M$3 4 3 5 5 PMOS_VTL L=0.05U W=0.315U AS=0.033075P AD=0.02205P PS=0.77U
+ PD=0.455U
* device instance $4 r0 *1 0.74,0.995 PMOS_VTL
M$4 7 4 5 5 PMOS_VTL L=0.05U W=0.63U AS=0.033075P AD=0.06615P PS=0.77U PD=1.47U
* device instance $5 r0 *1 0.17,0.195 NMOS_VTL
M$5 8 1 4 6 NMOS_VTL L=0.05U W=0.21U AS=0.02205P AD=0.0147P PS=0.63U PD=0.35U
* device instance $6 r0 *1 0.36,0.195 NMOS_VTL
M$6 9 2 8 6 NMOS_VTL L=0.05U W=0.21U AS=0.0147P AD=0.0147P PS=0.35U PD=0.35U
* device instance $7 r0 *1 0.55,0.195 NMOS_VTL
M$7 6 3 9 6 NMOS_VTL L=0.05U W=0.21U AS=0.0147P AD=0.021875P PS=0.35U PD=0.555U
* device instance $8 r0 *1 0.74,0.2975 NMOS_VTL
M$8 7 4 6 6 NMOS_VTL L=0.05U W=0.415U AS=0.021875P AD=0.043575P PS=0.555U
+ PD=1.04U
.ENDS AND3_X1

* cell AND4_X1
* pin A1
* pin A2
* pin A3
* pin A4
* pin NWELL,VDD
* pin PWELL,VSS
* pin ZN
.SUBCKT AND4_X1 1 2 3 4 6 7 8
* net 1 A1
* net 2 A2
* net 3 A3
* net 4 A4
* net 6 NWELL,VDD
* net 7 PWELL,VSS
* net 8 ZN
* device instance $1 r0 *1 0.17,1.1525 PMOS_VTL
M$1 5 1 6 6 PMOS_VTL L=0.05U W=0.315U AS=0.033075P AD=0.02205P PS=0.84U
+ PD=0.455U
* device instance $2 r0 *1 0.36,1.1525 PMOS_VTL
M$2 6 2 5 6 PMOS_VTL L=0.05U W=0.315U AS=0.02205P AD=0.02205P PS=0.455U
+ PD=0.455U
* device instance $3 r0 *1 0.55,1.1525 PMOS_VTL
M$3 5 3 6 6 PMOS_VTL L=0.05U W=0.315U AS=0.02205P AD=0.02205P PS=0.455U
+ PD=0.455U
* device instance $4 r0 *1 0.74,1.1525 PMOS_VTL
M$4 5 4 6 6 PMOS_VTL L=0.05U W=0.315U AS=0.033075P AD=0.02205P PS=0.77U
+ PD=0.455U
* device instance $5 r0 *1 0.93,0.995 PMOS_VTL
M$5 8 5 6 6 PMOS_VTL L=0.05U W=0.63U AS=0.033075P AD=0.06615P PS=0.77U PD=1.47U
* device instance $6 r0 *1 0.17,0.195 NMOS_VTL
M$6 10 1 5 7 NMOS_VTL L=0.05U W=0.21U AS=0.02205P AD=0.0147P PS=0.63U PD=0.35U
* device instance $7 r0 *1 0.36,0.195 NMOS_VTL
M$7 11 2 10 7 NMOS_VTL L=0.05U W=0.21U AS=0.0147P AD=0.0147P PS=0.35U PD=0.35U
* device instance $8 r0 *1 0.55,0.195 NMOS_VTL
M$8 9 3 11 7 NMOS_VTL L=0.05U W=0.21U AS=0.0147P AD=0.0147P PS=0.35U PD=0.35U
* device instance $9 r0 *1 0.74,0.195 NMOS_VTL
M$9 7 4 9 7 NMOS_VTL L=0.05U W=0.21U AS=0.0147P AD=0.021875P PS=0.35U PD=0.555U
* device instance $10 r0 *1 0.93,0.2975 NMOS_VTL
M$10 8 5 7 7 NMOS_VTL L=0.05U W=0.415U AS=0.021875P AD=0.043575P PS=0.555U
+ PD=1.04U
.ENDS AND4_X1

* cell AOI21_X1
* pin A
* pin B2
* pin B1
* pin PWELL,VSS
* pin ZN
* pin NWELL,VDD
.SUBCKT AOI21_X1 1 2 3 4 6 7
* net 1 A
* net 2 B2
* net 3 B1
* net 4 PWELL,VSS
* net 6 ZN
* net 7 NWELL,VDD
* device instance $1 r0 *1 0.21,0.995 PMOS_VTL
M$1 6 2 5 7 PMOS_VTL L=0.05U W=0.63U AS=0.06615P AD=0.0441P PS=1.47U PD=0.77U
* device instance $2 r0 *1 0.4,0.995 PMOS_VTL
M$2 5 3 6 7 PMOS_VTL L=0.05U W=0.63U AS=0.0441P AD=0.0441P PS=0.77U PD=0.77U
* device instance $3 r0 *1 0.59,0.995 PMOS_VTL
M$3 7 1 5 7 PMOS_VTL L=0.05U W=0.63U AS=0.0441P AD=0.06615P PS=0.77U PD=1.47U
* device instance $4 r0 *1 0.21,0.2975 NMOS_VTL
M$4 8 2 4 4 NMOS_VTL L=0.05U W=0.415U AS=0.043575P AD=0.02905P PS=1.04U
+ PD=0.555U
* device instance $5 r0 *1 0.4,0.2975 NMOS_VTL
M$5 6 3 8 4 NMOS_VTL L=0.05U W=0.415U AS=0.02905P AD=0.02905P PS=0.555U
+ PD=0.555U
* device instance $6 r0 *1 0.59,0.2975 NMOS_VTL
M$6 4 1 6 4 NMOS_VTL L=0.05U W=0.415U AS=0.02905P AD=0.043575P PS=0.555U
+ PD=1.04U
.ENDS AOI21_X1

* cell NAND2_X1
* pin A2
* pin A1
* pin PWELL,VSS
* pin NWELL,VDD
* pin ZN
.SUBCKT NAND2_X1 1 2 3 4 5
* net 1 A2
* net 2 A1
* net 3 PWELL,VSS
* net 4 NWELL,VDD
* net 5 ZN
* device instance $1 r0 *1 0.185,0.995 PMOS_VTL
M$1 5 1 4 4 PMOS_VTL L=0.05U W=0.63U AS=0.06615P AD=0.0441P PS=1.47U PD=0.77U
* device instance $2 r0 *1 0.375,0.995 PMOS_VTL
M$2 4 2 5 4 PMOS_VTL L=0.05U W=0.63U AS=0.0441P AD=0.06615P PS=0.77U PD=1.47U
* device instance $3 r0 *1 0.185,0.2975 NMOS_VTL
M$3 6 1 3 3 NMOS_VTL L=0.05U W=0.415U AS=0.043575P AD=0.02905P PS=1.04U
+ PD=0.555U
* device instance $4 r0 *1 0.375,0.2975 NMOS_VTL
M$4 5 2 6 3 NMOS_VTL L=0.05U W=0.415U AS=0.02905P AD=0.043575P PS=0.555U
+ PD=1.04U
.ENDS NAND2_X1

* cell OR2_X1
* pin A1
* pin A2
* pin PWELL,VSS
* pin NWELL,VDD
* pin ZN
.SUBCKT OR2_X1 1 2 3 5 6
* net 1 A1
* net 2 A2
* net 3 PWELL,VSS
* net 5 NWELL,VDD
* net 6 ZN
* device instance $1 r0 *1 0.17,1.1525 PMOS_VTL
M$1 7 1 4 5 PMOS_VTL L=0.05U W=0.315U AS=0.033075P AD=0.02205P PS=0.84U
+ PD=0.455U
* device instance $2 r0 *1 0.36,1.1525 PMOS_VTL
M$2 7 2 5 5 PMOS_VTL L=0.05U W=0.315U AS=0.033075P AD=0.02205P PS=0.77U
+ PD=0.455U
* device instance $3 r0 *1 0.55,0.995 PMOS_VTL
M$3 6 4 5 5 PMOS_VTL L=0.05U W=0.63U AS=0.033075P AD=0.06615P PS=0.77U PD=1.47U
* device instance $4 r0 *1 0.17,0.195 NMOS_VTL
M$4 4 1 3 3 NMOS_VTL L=0.05U W=0.21U AS=0.02205P AD=0.0147P PS=0.63U PD=0.35U
* device instance $5 r0 *1 0.36,0.195 NMOS_VTL
M$5 3 2 4 3 NMOS_VTL L=0.05U W=0.21U AS=0.0147P AD=0.021875P PS=0.35U PD=0.555U
* device instance $6 r0 *1 0.55,0.2975 NMOS_VTL
M$6 6 4 3 3 NMOS_VTL L=0.05U W=0.415U AS=0.021875P AD=0.043575P PS=0.555U
+ PD=1.04U
.ENDS OR2_X1

* cell AND2_X1
* pin A1
* pin A2
* pin NWELL,VDD
* pin PWELL,VSS
* pin ZN
.SUBCKT AND2_X1 1 2 4 5 6
* net 1 A1
* net 2 A2
* net 4 NWELL,VDD
* net 5 PWELL,VSS
* net 6 ZN
* device instance $1 r0 *1 0.17,1.1525 PMOS_VTL
M$1 3 1 4 4 PMOS_VTL L=0.05U W=0.315U AS=0.033075P AD=0.02205P PS=0.84U
+ PD=0.455U
* device instance $2 r0 *1 0.36,1.1525 PMOS_VTL
M$2 3 2 4 4 PMOS_VTL L=0.05U W=0.315U AS=0.033075P AD=0.02205P PS=0.77U
+ PD=0.455U
* device instance $3 r0 *1 0.55,0.995 PMOS_VTL
M$3 6 3 4 4 PMOS_VTL L=0.05U W=0.63U AS=0.033075P AD=0.06615P PS=0.77U PD=1.47U
* device instance $4 r0 *1 0.17,0.195 NMOS_VTL
M$4 7 1 3 5 NMOS_VTL L=0.05U W=0.21U AS=0.02205P AD=0.0147P PS=0.63U PD=0.35U
* device instance $5 r0 *1 0.36,0.195 NMOS_VTL
M$5 5 2 7 5 NMOS_VTL L=0.05U W=0.21U AS=0.0147P AD=0.021875P PS=0.35U PD=0.555U
* device instance $6 r0 *1 0.55,0.2975 NMOS_VTL
M$6 6 3 5 5 NMOS_VTL L=0.05U W=0.415U AS=0.021875P AD=0.043575P PS=0.555U
+ PD=1.04U
.ENDS AND2_X1

* cell BUF_X2
* pin A
* pin PWELL,VSS
* pin NWELL,VDD
* pin Z
.SUBCKT BUF_X2 1 3 4 5
* net 1 A
* net 3 PWELL,VSS
* net 4 NWELL,VDD
* net 5 Z
* device instance $1 r0 *1 0.21,0.995 PMOS_VTL
M$1 4 1 2 4 PMOS_VTL L=0.05U W=0.63U AS=0.06615P AD=0.0441P PS=1.47U PD=0.77U
* device instance $2 r0 *1 0.4,0.995 PMOS_VTL
M$2 5 2 4 4 PMOS_VTL L=0.05U W=1.26U AS=0.0882P AD=0.11025P PS=1.54U PD=2.24U
* device instance $4 r0 *1 0.21,0.2975 NMOS_VTL
M$4 3 1 2 3 NMOS_VTL L=0.05U W=0.415U AS=0.043575P AD=0.02905P PS=1.04U
+ PD=0.555U
* device instance $5 r0 *1 0.4,0.2975 NMOS_VTL
M$5 5 2 3 3 NMOS_VTL L=0.05U W=0.83U AS=0.0581P AD=0.072625P PS=1.11U PD=1.595U
.ENDS BUF_X2

* cell XOR2_X2
* pin B
* pin A
* pin NWELL,VDD
* pin Z
* pin PWELL,VSS
.SUBCKT XOR2_X2 1 2 4 5 7
* net 1 B
* net 2 A
* net 4 NWELL,VDD
* net 5 Z
* net 7 PWELL,VSS
* device instance $1 r0 *1 0.2,0.995 PMOS_VTL
M$1 8 2 3 4 PMOS_VTL L=0.05U W=0.63U AS=0.06615P AD=0.0441P PS=1.47U PD=0.77U
* device instance $2 r0 *1 0.39,0.995 PMOS_VTL
M$2 4 1 8 4 PMOS_VTL L=0.05U W=0.63U AS=0.0441P AD=0.0441P PS=0.77U PD=0.77U
* device instance $3 r0 *1 0.58,0.995 PMOS_VTL
M$3 6 3 4 4 PMOS_VTL L=0.05U W=1.26U AS=0.0882P AD=0.11025P PS=1.54U PD=2.24U
* device instance $4 r0 *1 0.77,0.995 PMOS_VTL
M$4 5 2 6 4 PMOS_VTL L=0.05U W=1.26U AS=0.0882P AD=0.0882P PS=1.54U PD=1.54U
* device instance $5 r0 *1 0.96,0.995 PMOS_VTL
M$5 6 1 5 4 PMOS_VTL L=0.05U W=1.26U AS=0.0882P AD=0.0882P PS=1.54U PD=1.54U
* device instance $9 r0 *1 0.2,0.2975 NMOS_VTL
M$9 3 2 7 7 NMOS_VTL L=0.05U W=0.415U AS=0.043575P AD=0.02905P PS=1.04U
+ PD=0.555U
* device instance $10 r0 *1 0.39,0.2975 NMOS_VTL
M$10 7 1 3 7 NMOS_VTL L=0.05U W=0.415U AS=0.02905P AD=0.02905P PS=0.555U
+ PD=0.555U
* device instance $11 r0 *1 0.58,0.2975 NMOS_VTL
M$11 5 3 7 7 NMOS_VTL L=0.05U W=0.83U AS=0.0581P AD=0.072625P PS=1.11U PD=1.595U
* device instance $12 r0 *1 0.77,0.2975 NMOS_VTL
M$12 10 2 5 7 NMOS_VTL L=0.05U W=0.415U AS=0.02905P AD=0.02905P PS=0.555U
+ PD=0.555U
* device instance $13 r0 *1 0.96,0.2975 NMOS_VTL
M$13 7 1 10 7 NMOS_VTL L=0.05U W=0.415U AS=0.02905P AD=0.02905P PS=0.555U
+ PD=0.555U
* device instance $14 r0 *1 1.15,0.2975 NMOS_VTL
M$14 9 1 7 7 NMOS_VTL L=0.05U W=0.415U AS=0.02905P AD=0.02905P PS=0.555U
+ PD=0.555U
* device instance $15 r0 *1 1.34,0.2975 NMOS_VTL
M$15 5 2 9 7 NMOS_VTL L=0.05U W=0.415U AS=0.02905P AD=0.02905P PS=0.555U
+ PD=0.555U
.ENDS XOR2_X2

* cell BUF_X4
* pin A
* pin NWELL,VDD
* pin Z
* pin PWELL,VSS
.SUBCKT BUF_X4 1 3 4 5
* net 1 A
* net 3 NWELL,VDD
* net 4 Z
* net 5 PWELL,VSS
* device instance $1 r0 *1 0.17,0.995 PMOS_VTL
M$1 2 1 3 3 PMOS_VTL L=0.05U W=1.26U AS=0.11025P AD=0.0882P PS=2.24U PD=1.54U
* device instance $3 r0 *1 0.55,0.995 PMOS_VTL
M$3 4 2 3 3 PMOS_VTL L=0.05U W=2.52U AS=0.1764P AD=0.19845P PS=3.08U PD=3.78U
* device instance $7 r0 *1 0.17,0.2975 NMOS_VTL
M$7 2 1 5 5 NMOS_VTL L=0.05U W=0.83U AS=0.072625P AD=0.0581P PS=1.595U PD=1.11U
* device instance $9 r0 *1 0.55,0.2975 NMOS_VTL
M$9 4 2 5 5 NMOS_VTL L=0.05U W=1.66U AS=0.1162P AD=0.130725P PS=2.22U PD=2.705U
.ENDS BUF_X4

* cell CLKBUF_X1
* pin A
* pin PWELL,VSS
* pin NWELL,VDD
.SUBCKT CLKBUF_X1 1 3 4
* net 1 A
* net 3 PWELL,VSS
* net 4 NWELL,VDD
* net 5 Z
* device instance $1 r0 *1 0.19,1.1525 PMOS_VTL
M$1 2 1 4 4 PMOS_VTL L=0.05U W=0.315U AS=0.033075P AD=0.033075P PS=0.77U
+ PD=0.84U
* device instance $2 r0 *1 0.38,0.995 PMOS_VTL
M$2 5 2 4 4 PMOS_VTL L=0.05U W=0.63U AS=0.033075P AD=0.06615P PS=0.77U PD=1.47U
* device instance $3 r0 *1 0.19,0.2075 NMOS_VTL
M$3 3 1 2 3 NMOS_VTL L=0.05U W=0.095U AS=0.009975P AD=0.01015P PS=0.4U PD=0.335U
* device instance $4 r0 *1 0.38,0.2575 NMOS_VTL
M$4 5 2 3 3 NMOS_VTL L=0.05U W=0.195U AS=0.01015P AD=0.020475P PS=0.335U PD=0.6U
.ENDS CLKBUF_X1

* cell NOR3_X1
* pin A3
* pin A2
* pin A1
* pin PWELL,VSS
* pin NWELL,VDD
* pin ZN
.SUBCKT NOR3_X1 1 2 3 4 5 6
* net 1 A3
* net 2 A2
* net 3 A1
* net 4 PWELL,VSS
* net 5 NWELL,VDD
* net 6 ZN
* device instance $1 r0 *1 0.17,0.995 PMOS_VTL
M$1 8 1 5 5 PMOS_VTL L=0.05U W=0.63U AS=0.06615P AD=0.0441P PS=1.47U PD=0.77U
* device instance $2 r0 *1 0.36,0.995 PMOS_VTL
M$2 7 2 8 5 PMOS_VTL L=0.05U W=0.63U AS=0.0441P AD=0.0441P PS=0.77U PD=0.77U
* device instance $3 r0 *1 0.55,0.995 PMOS_VTL
M$3 6 3 7 5 PMOS_VTL L=0.05U W=0.63U AS=0.0441P AD=0.06615P PS=0.77U PD=1.47U
* device instance $4 r0 *1 0.17,0.2975 NMOS_VTL
M$4 6 1 4 4 NMOS_VTL L=0.05U W=0.415U AS=0.043575P AD=0.02905P PS=1.04U
+ PD=0.555U
* device instance $5 r0 *1 0.36,0.2975 NMOS_VTL
M$5 4 2 6 4 NMOS_VTL L=0.05U W=0.415U AS=0.02905P AD=0.02905P PS=0.555U
+ PD=0.555U
* device instance $6 r0 *1 0.55,0.2975 NMOS_VTL
M$6 6 3 4 4 NMOS_VTL L=0.05U W=0.415U AS=0.02905P AD=0.043575P PS=0.555U
+ PD=1.04U
.ENDS NOR3_X1

* cell CLKBUF_X3
* pin A
* pin PWELL,VSS
* pin NWELL,VDD
* pin Z
.SUBCKT CLKBUF_X3 1 3 4 5
* net 1 A
* net 3 PWELL,VSS
* net 4 NWELL,VDD
* net 5 Z
* device instance $1 r0 *1 0.17,0.995 PMOS_VTL
M$1 4 1 2 4 PMOS_VTL L=0.05U W=0.63U AS=0.06615P AD=0.0441P PS=1.47U PD=0.77U
* device instance $2 r0 *1 0.36,0.995 PMOS_VTL
M$2 5 2 4 4 PMOS_VTL L=0.05U W=1.89U AS=0.1323P AD=0.15435P PS=2.31U PD=3.01U
* device instance $5 r0 *1 0.17,0.1875 NMOS_VTL
M$5 3 1 2 3 NMOS_VTL L=0.05U W=0.195U AS=0.020475P AD=0.01365P PS=0.6U PD=0.335U
* device instance $6 r0 *1 0.36,0.1875 NMOS_VTL
M$6 5 2 3 3 NMOS_VTL L=0.05U W=0.585U AS=0.04095P AD=0.047775P PS=1.005U
+ PD=1.27U
.ENDS CLKBUF_X3

* cell BUF_X1
* pin A
* pin PWELL,VSS
* pin NWELL,VDD
* pin Z
.SUBCKT BUF_X1 1 3 4 5
* net 1 A
* net 3 PWELL,VSS
* net 4 NWELL,VDD
* net 5 Z
* device instance $1 r0 *1 0.17,1.1525 PMOS_VTL
M$1 2 1 4 4 PMOS_VTL L=0.05U W=0.315U AS=0.033075P AD=0.033075P PS=0.77U
+ PD=0.84U
* device instance $2 r0 *1 0.36,0.995 PMOS_VTL
M$2 5 2 4 4 PMOS_VTL L=0.05U W=0.63U AS=0.033075P AD=0.06615P PS=0.77U PD=1.47U
* device instance $3 r0 *1 0.17,0.195 NMOS_VTL
M$3 3 1 2 3 NMOS_VTL L=0.05U W=0.21U AS=0.02205P AD=0.021875P PS=0.63U PD=0.555U
* device instance $4 r0 *1 0.36,0.2975 NMOS_VTL
M$4 5 2 3 3 NMOS_VTL L=0.05U W=0.415U AS=0.021875P AD=0.043575P PS=0.555U
+ PD=1.04U
.ENDS BUF_X1

* cell DFF_X2
* pin PWELL,VSS
* pin D
* pin CK
* pin Q
* pin NWELL,VDD
.SUBCKT DFF_X2 1 6 8 11 16
* net 1 PWELL,VSS
* net 6 D
* net 8 CK
* net 10 QN
* net 11 Q
* net 16 NWELL,VDD
* device instance $1 r0 *1 2.855,0.995 PMOS_VTL
M$1 10 9 16 16 PMOS_VTL L=0.05U W=1.26U AS=0.11025P AD=0.0882P PS=2.24U PD=1.54U
* device instance $3 r0 *1 3.235,0.995 PMOS_VTL
M$3 11 2 16 16 PMOS_VTL L=0.05U W=1.26U AS=0.0882P AD=0.11025P PS=1.54U PD=2.24U
* device instance $5 r0 *1 0.2,0.9275 PMOS_VTL
M$5 16 7 3 16 PMOS_VTL L=0.05U W=0.315U AS=0.033075P AD=0.014175P PS=0.84U
+ PD=0.455U
* device instance $6 r0 *1 0.39,1.04 PMOS_VTL
M$6 17 4 16 16 PMOS_VTL L=0.05U W=0.09U AS=0.014175P AD=0.0063P PS=0.455U
+ PD=0.23U
* device instance $7 r0 *1 0.58,1.04 PMOS_VTL
M$7 17 7 5 16 PMOS_VTL L=0.05U W=0.09U AS=0.01785P AD=0.0063P PS=0.56U PD=0.23U
* device instance $8 r0 *1 0.77,0.975 PMOS_VTL
M$8 18 3 5 16 PMOS_VTL L=0.05U W=0.42U AS=0.01785P AD=0.0294P PS=0.56U PD=0.56U
* device instance $9 r0 *1 0.96,0.975 PMOS_VTL
M$9 16 6 18 16 PMOS_VTL L=0.05U W=0.42U AS=0.0294P AD=0.025725P PS=0.56U
+ PD=0.56U
* device instance $10 r0 *1 1.15,1.0275 PMOS_VTL
M$10 4 5 16 16 PMOS_VTL L=0.05U W=0.315U AS=0.025725P AD=0.0567P PS=0.56U
+ PD=0.99U
* device instance $11 r0 *1 2.135,0.915 PMOS_VTL
M$11 20 3 9 16 PMOS_VTL L=0.05U W=0.09U AS=0.014175P AD=0.0063P PS=0.455U
+ PD=0.23U
* device instance $12 r0 *1 2.325,0.915 PMOS_VTL
M$12 20 2 16 16 PMOS_VTL L=0.05U W=0.09U AS=0.0252P AD=0.0063P PS=0.77U PD=0.23U
* device instance $13 r0 *1 1.565,1.0275 PMOS_VTL
M$13 16 8 7 16 PMOS_VTL L=0.05U W=0.315U AS=0.033075P AD=0.02205P PS=0.84U
+ PD=0.455U
* device instance $14 r0 *1 1.755,1.0275 PMOS_VTL
M$14 19 5 16 16 PMOS_VTL L=0.05U W=0.315U AS=0.02205P AD=0.02205P PS=0.455U
+ PD=0.455U
* device instance $15 r0 *1 1.945,1.0275 PMOS_VTL
M$15 9 7 19 16 PMOS_VTL L=0.05U W=0.315U AS=0.02205P AD=0.014175P PS=0.455U
+ PD=0.455U
* device instance $16 r0 *1 2.515,0.995 PMOS_VTL
M$16 2 9 16 16 PMOS_VTL L=0.05U W=0.63U AS=0.0252P AD=0.06615P PS=0.77U PD=1.47U
* device instance $17 r0 *1 2.855,0.2975 NMOS_VTL
M$17 10 9 1 1 NMOS_VTL L=0.05U W=0.83U AS=0.072625P AD=0.0581P PS=1.595U
+ PD=1.11U
* device instance $19 r0 *1 3.235,0.2975 NMOS_VTL
M$19 11 2 1 1 NMOS_VTL L=0.05U W=0.83U AS=0.0581P AD=0.072625P PS=1.11U
+ PD=1.595U
* device instance $21 r0 *1 0.39,0.31 NMOS_VTL
M$21 12 4 1 1 NMOS_VTL L=0.05U W=0.09U AS=0.0105P AD=0.0063P PS=0.35U PD=0.23U
* device instance $22 r0 *1 0.58,0.31 NMOS_VTL
M$22 12 3 5 1 NMOS_VTL L=0.05U W=0.09U AS=0.012775P AD=0.0063P PS=0.415U
+ PD=0.23U
* device instance $23 r0 *1 1.15,0.25 NMOS_VTL
M$23 4 5 1 1 NMOS_VTL L=0.05U W=0.21U AS=0.016975P AD=0.02205P PS=0.415U
+ PD=0.63U
* device instance $24 r0 *1 0.77,0.2825 NMOS_VTL
M$24 13 7 5 1 NMOS_VTL L=0.05U W=0.275U AS=0.012775P AD=0.01925P PS=0.415U
+ PD=0.415U
* device instance $25 r0 *1 0.96,0.2825 NMOS_VTL
M$25 1 6 13 1 NMOS_VTL L=0.05U W=0.275U AS=0.01925P AD=0.016975P PS=0.415U
+ PD=0.415U
* device instance $26 r0 *1 0.2,0.37 NMOS_VTL
M$26 1 7 3 1 NMOS_VTL L=0.05U W=0.21U AS=0.02205P AD=0.0105P PS=0.63U PD=0.35U
* device instance $27 r0 *1 1.565,0.35 NMOS_VTL
M$27 1 8 7 1 NMOS_VTL L=0.05U W=0.21U AS=0.02205P AD=0.0147P PS=0.63U PD=0.35U
* device instance $28 r0 *1 1.755,0.35 NMOS_VTL
M$28 14 5 1 1 NMOS_VTL L=0.05U W=0.21U AS=0.0147P AD=0.0147P PS=0.35U PD=0.35U
* device instance $29 r0 *1 1.945,0.35 NMOS_VTL
M$29 9 3 14 1 NMOS_VTL L=0.05U W=0.21U AS=0.0147P AD=0.0105P PS=0.35U PD=0.35U
* device instance $30 r0 *1 2.135,0.41 NMOS_VTL
M$30 15 7 9 1 NMOS_VTL L=0.05U W=0.09U AS=0.0105P AD=0.0063P PS=0.35U PD=0.23U
* device instance $31 r0 *1 2.325,0.41 NMOS_VTL
M$31 15 2 1 1 NMOS_VTL L=0.05U W=0.09U AS=0.017675P AD=0.0063P PS=0.555U
+ PD=0.23U
* device instance $32 r0 *1 2.515,0.2975 NMOS_VTL
M$32 2 9 1 1 NMOS_VTL L=0.05U W=0.415U AS=0.017675P AD=0.043575P PS=0.555U
+ PD=1.04U
.ENDS DFF_X2

* cell DFF_X1
* pin PWELL,VSS
* pin Q
* pin D
* pin CK
* pin NWELL,VDD
.SUBCKT DFF_X1 1 9 14 15 16
* net 1 PWELL,VSS
* net 8 QN
* net 9 Q
* net 14 D
* net 15 CK
* net 16 NWELL,VDD
* device instance $1 r0 *1 2.85,0.995 PMOS_VTL
M$1 16 6 8 16 PMOS_VTL L=0.05U W=0.63U AS=0.06615P AD=0.0441P PS=1.47U PD=0.77U
* device instance $2 r0 *1 3.04,0.995 PMOS_VTL
M$2 9 7 16 16 PMOS_VTL L=0.05U W=0.63U AS=0.0441P AD=0.06615P PS=0.77U PD=1.47U
* device instance $3 r0 *1 0.185,0.9425 PMOS_VTL
M$3 16 5 2 16 PMOS_VTL L=0.05U W=0.315U AS=0.033075P AD=0.014175P PS=0.84U
+ PD=0.455U
* device instance $4 r0 *1 0.375,1.055 PMOS_VTL
M$4 17 3 16 16 PMOS_VTL L=0.05U W=0.09U AS=0.014175P AD=0.0063P PS=0.455U
+ PD=0.23U
* device instance $5 r0 *1 0.565,1.055 PMOS_VTL
M$5 17 5 4 16 PMOS_VTL L=0.05U W=0.09U AS=0.018075P AD=0.0063P PS=0.565U
+ PD=0.23U
* device instance $6 r0 *1 0.76,0.975 PMOS_VTL
M$6 18 2 4 16 PMOS_VTL L=0.05U W=0.42U AS=0.018075P AD=0.0294P PS=0.565U
+ PD=0.56U
* device instance $7 r0 *1 0.95,0.975 PMOS_VTL
M$7 16 14 18 16 PMOS_VTL L=0.05U W=0.42U AS=0.0294P AD=0.025725P PS=0.56U
+ PD=0.56U
* device instance $8 r0 *1 1.14,1.0275 PMOS_VTL
M$8 3 4 16 16 PMOS_VTL L=0.05U W=0.315U AS=0.025725P AD=0.0567P PS=0.56U
+ PD=0.99U
* device instance $9 r0 *1 1.555,1.0275 PMOS_VTL
M$9 16 15 5 16 PMOS_VTL L=0.05U W=0.315U AS=0.033075P AD=0.02205P PS=0.84U
+ PD=0.455U
* device instance $10 r0 *1 1.745,1.0275 PMOS_VTL
M$10 19 4 16 16 PMOS_VTL L=0.05U W=0.315U AS=0.02205P AD=0.02205P PS=0.455U
+ PD=0.455U
* device instance $11 r0 *1 1.935,1.0275 PMOS_VTL
M$11 6 5 19 16 PMOS_VTL L=0.05U W=0.315U AS=0.02205P AD=0.014175P PS=0.455U
+ PD=0.455U
* device instance $12 r0 *1 2.125,1.14 PMOS_VTL
M$12 20 2 6 16 PMOS_VTL L=0.05U W=0.09U AS=0.014175P AD=0.006525P PS=0.455U
+ PD=0.235U
* device instance $13 r0 *1 2.32,1.14 PMOS_VTL
M$13 20 7 16 16 PMOS_VTL L=0.05U W=0.09U AS=0.014175P AD=0.006525P PS=0.455U
+ PD=0.235U
* device instance $14 r0 *1 2.51,1.0275 PMOS_VTL
M$14 7 6 16 16 PMOS_VTL L=0.05U W=0.315U AS=0.014175P AD=0.033075P PS=0.455U
+ PD=0.84U
* device instance $15 r0 *1 2.85,0.2975 NMOS_VTL
M$15 1 6 8 1 NMOS_VTL L=0.05U W=0.415U AS=0.043575P AD=0.02905P PS=1.04U
+ PD=0.555U
* device instance $16 r0 *1 3.04,0.2975 NMOS_VTL
M$16 9 7 1 1 NMOS_VTL L=0.05U W=0.415U AS=0.02905P AD=0.043575P PS=0.555U
+ PD=1.04U
* device instance $17 r0 *1 2.125,0.345 NMOS_VTL
M$17 12 5 6 1 NMOS_VTL L=0.05U W=0.09U AS=0.0105P AD=0.006525P PS=0.35U
+ PD=0.235U
* device instance $18 r0 *1 2.32,0.345 NMOS_VTL
M$18 12 7 1 1 NMOS_VTL L=0.05U W=0.09U AS=0.0105P AD=0.006525P PS=0.35U
+ PD=0.235U
* device instance $19 r0 *1 1.555,0.36 NMOS_VTL
M$19 1 15 5 1 NMOS_VTL L=0.05U W=0.21U AS=0.02205P AD=0.0147P PS=0.63U PD=0.35U
* device instance $20 r0 *1 1.745,0.36 NMOS_VTL
M$20 13 4 1 1 NMOS_VTL L=0.05U W=0.21U AS=0.0147P AD=0.0147P PS=0.35U PD=0.35U
* device instance $21 r0 *1 1.935,0.36 NMOS_VTL
M$21 6 2 13 1 NMOS_VTL L=0.05U W=0.21U AS=0.0147P AD=0.0105P PS=0.35U PD=0.35U
* device instance $22 r0 *1 2.51,0.36 NMOS_VTL
M$22 7 6 1 1 NMOS_VTL L=0.05U W=0.21U AS=0.0105P AD=0.02205P PS=0.35U PD=0.63U
* device instance $23 r0 *1 0.185,0.285 NMOS_VTL
M$23 1 5 2 1 NMOS_VTL L=0.05U W=0.21U AS=0.02205P AD=0.0105P PS=0.63U PD=0.35U
* device instance $24 r0 *1 0.375,0.345 NMOS_VTL
M$24 10 3 1 1 NMOS_VTL L=0.05U W=0.09U AS=0.0105P AD=0.0063P PS=0.35U PD=0.23U
* device instance $25 r0 *1 0.565,0.345 NMOS_VTL
M$25 10 2 4 1 NMOS_VTL L=0.05U W=0.09U AS=0.013P AD=0.0063P PS=0.42U PD=0.23U
* device instance $26 r0 *1 1.14,0.285 NMOS_VTL
M$26 3 4 1 1 NMOS_VTL L=0.05U W=0.21U AS=0.016975P AD=0.02205P PS=0.415U
+ PD=0.63U
* device instance $27 r0 *1 0.76,0.3175 NMOS_VTL
M$27 11 5 4 1 NMOS_VTL L=0.05U W=0.275U AS=0.013P AD=0.01925P PS=0.42U PD=0.415U
* device instance $28 r0 *1 0.95,0.3175 NMOS_VTL
M$28 1 14 11 1 NMOS_VTL L=0.05U W=0.275U AS=0.01925P AD=0.016975P PS=0.415U
+ PD=0.415U
.ENDS DFF_X1

* cell NOR2_X1
* pin A2
* pin A1
* pin PWELL,VSS
* pin NWELL,VDD
* pin ZN
.SUBCKT NOR2_X1 1 2 3 4 5
* net 1 A2
* net 2 A1
* net 3 PWELL,VSS
* net 4 NWELL,VDD
* net 5 ZN
* device instance $1 r0 *1 0.185,0.995 PMOS_VTL
M$1 6 1 4 4 PMOS_VTL L=0.05U W=0.63U AS=0.06615P AD=0.0441P PS=1.47U PD=0.77U
* device instance $2 r0 *1 0.375,0.995 PMOS_VTL
M$2 5 2 6 4 PMOS_VTL L=0.05U W=0.63U AS=0.0441P AD=0.06615P PS=0.77U PD=1.47U
* device instance $3 r0 *1 0.185,0.2975 NMOS_VTL