
* cell barrel_shifter
* pin data_in[21]
* pin data_in[23]
* pin data_in[22]
* pin data_in[24]
* pin data_in[25]
* pin data_in[20]
* pin data_in[19]
* pin data_in[18]
* pin data_in[26]
* pin data_in[27]
* pin data_in[28]
* pin data_in[17]
* pin data_in[29]
* pin data_in[30]
* pin data_in[15]
* pin data_in[16]
* pin data_in[31]
* pin data_in[13]
* pin data_in[11]
* pin data_in[12]
* pin data_in[14]
* pin data_in[9]
* pin data_in[7]
* pin data_in[10]
* pin data_in[8]
* pin data_in[6]
* pin data_in[5]
* pin data_in[4]
* pin data_in[3]
* pin data_in[2]
* pin data_in[0]
* pin PWELL
* pin NWELL
* pin data_out[20]
* pin data_out[17]
* pin data_out[25]
* pin data_out[21]
* pin data_out[13]
* pin data_out[0]
* pin data_out[19]
* pin data_out[9]
* pin data_out[22]
* pin data_out[12]
* pin data_out[6]
* pin data_out[7]
* pin data_out[16]
* pin data_out[23]
* pin data_out[15]
* pin data_out[2]
* pin data_out[3]
* pin data_out[28]
* pin data_out[18]
* pin data_out[31]
* pin shift_direction
* pin data_in[1]
* pin shift_amount[0]
* pin shift_amount[4]
* pin shift_amount[3]
* pin shift_amount[1]
* pin data_out[14]
* pin data_out[24]
* pin data_out[11]
* pin shift_amount[2]
* pin rotate
* pin data_out[29]
* pin data_out[26]
* pin data_out[5]
* pin data_out[10]
* pin data_out[27]
* pin data_out[4]
* pin data_out[8]
* pin data_out[1]
* pin data_out[30]
.SUBCKT barrel_shifter 1 2 3 4 5 6 7 8 9 10 11 12 13 14 15 16 17 18 19 20 21 22
+ 23 24 25 26 27 28 29 30 31 34 35 614 679 749 751 783 784 785 820 821 842 843
+ 844 872 898 899 930 931 932 933 960 980 1015 1026 1030 1031 1037 1038 1040
+ 1041 1042 1043 1044 1045 1046 1047 1048 1049 1050 1051 1052
* net 1 data_in[21]
* net 2 data_in[23]
* net 3 data_in[22]
* net 4 data_in[24]
* net 5 data_in[25]
* net 6 data_in[20]
* net 7 data_in[19]
* net 8 data_in[18]
* net 9 data_in[26]
* net 10 data_in[27]
* net 11 data_in[28]
* net 12 data_in[17]
* net 13 data_in[29]
* net 14 data_in[30]
* net 15 data_in[15]
* net 16 data_in[16]
* net 17 data_in[31]
* net 18 data_in[13]
* net 19 data_in[11]
* net 20 data_in[12]
* net 21 data_in[14]
* net 22 data_in[9]
* net 23 data_in[7]
* net 24 data_in[10]
* net 25 data_in[8]
* net 26 data_in[6]
* net 27 data_in[5]
* net 28 data_in[4]
* net 29 data_in[3]
* net 30 data_in[2]
* net 31 data_in[0]
* net 34 PWELL
* net 35 NWELL
* net 614 data_out[20]
* net 679 data_out[17]
* net 749 data_out[25]
* net 751 data_out[21]
* net 783 data_out[13]
* net 784 data_out[0]
* net 785 data_out[19]
* net 820 data_out[9]
* net 821 data_out[22]
* net 842 data_out[12]
* net 843 data_out[6]
* net 844 data_out[7]
* net 872 data_out[16]
* net 898 data_out[23]
* net 899 data_out[15]
* net 930 data_out[2]
* net 931 data_out[3]
* net 932 data_out[28]
* net 933 data_out[18]
* net 960 data_out[31]
* net 980 shift_direction
* net 1015 data_in[1]
* net 1026 shift_amount[0]
* net 1030 shift_amount[4]
* net 1031 shift_amount[3]
* net 1037 shift_amount[1]
* net 1038 data_out[14]
* net 1040 data_out[24]
* net 1041 data_out[11]
* net 1042 shift_amount[2]
* net 1043 rotate
* net 1044 data_out[29]
* net 1045 data_out[26]
* net 1046 data_out[5]
* net 1047 data_out[10]
* net 1048 data_out[27]
* net 1049 data_out[4]
* net 1050 data_out[8]
* net 1051 data_out[1]
* net 1052 data_out[30]
* cell instance $2 r0 *1 53.01,1.4
X$2 1 34 35 72 BUF_X2
* cell instance $8 r0 *1 54.72,1.4
X$8 2 34 35 61 BUF_X2
* cell instance $14 r0 *1 56.24,1.4
X$14 3 34 35 51 BUF_X2
* cell instance $20 r0 *1 52.25,1.4
X$20 4 34 35 36 BUF_X2
* cell instance $26 r0 *1 55.48,1.4
X$26 5 34 35 84 BUF_X2
* cell instance $32 m0 *1 56.43,23.8
X$32 6 34 35 69 BUF_X2
* cell instance $38 r0 *1 57.38,23.8
X$38 7 34 35 88 BUF_X2
* cell instance $44 r0 *1 55.86,26.6
X$44 8 34 35 92 BUF_X2
* cell instance $50 r0 *1 57.76,1.4
X$50 9 34 35 54 BUF_X2
* cell instance $56 r0 *1 58.14,4.2
X$56 10 34 35 59 BUF_X2
* cell instance $62 r0 *1 57,1.4
X$62 11 34 35 47 BUF_X2
* cell instance $68 m0 *1 57.57,12.6
X$68 12 34 35 60 BUF_X2
* cell instance $74 r0 *1 59.47,1.4
X$74 13 34 35 48 BUF_X2
* cell instance $80 r0 *1 61.94,1.4
X$80 14 34 35 53 BUF_X2
* cell instance $86 r0 *1 58.71,1.4
X$86 15 34 35 32 BUF_X2
* cell instance $92 r0 *1 60.23,1.4
X$92 16 34 35 41 BUF_X2
* cell instance $98 m0 *1 65.55,4.2
X$98 17 34 35 44 CLKBUF_X3
* cell instance $104 r0 *1 60.99,1.4
X$104 18 34 35 146 BUF_X2
* cell instance $110 m0 *1 61.56,4.2
X$110 19 34 35 135 BUF_X2
* cell instance $116 r0 *1 61.94,4.2
X$116 20 34 35 71 BUF_X2
* cell instance $126 r0 *1 62.7,1.4
X$126 21 34 35 52 BUF_X2
* cell instance $128 m0 *1 63.65,7
X$128 22 34 35 45 BUF_X2
* cell instance $134 r0 *1 65.36,1.4
X$134 23 34 35 33 BUF_X2
* cell instance $140 r0 *1 64.22,1.4
X$140 24 34 35 40 BUF_X2
* cell instance $146 m0 *1 64.98,7
X$146 25 34 35 42 BUF_X2
* cell instance $152 r0 *1 65.55,4.2
X$152 26 34 35 62 BUF_X2
* cell instance $158 m0 *1 66.5,4.2
X$158 27 34 35 43 BUF_X2
* cell instance $164 r0 *1 66.31,1.4
X$164 28 34 35 39 BUF_X2
* cell instance $170 r0 *1 67.07,1.4
X$170 29 34 35 70 BUF_X2
* cell instance $180 r0 *1 67.83,1.4
X$180 30 34 35 38 BUF_X2
* cell instance $182 r0 *1 69.35,1.4
X$182 31 34 35 37 CLKBUF_X3
* cell instance $188 r0 *1 61.18,60.2
X$188 60 576 32 34 35 406 MUX2_X1
* cell instance $190 m0 *1 58.33,68.6
X$190 32 537 146 34 35 699 MUX2_X1
* cell instance $193 r0 *1 62.89,68.6
X$193 146 537 32 34 35 731 MUX2_X1
* cell instance $197 m0 *1 62.51,60.2
X$197 32 481 60 34 35 629 MUX2_X1
* cell instance $200 r0 *1 69.92,29.4
X$200 146 46 32 34 35 122 MUX2_X1
* cell instance $202 r0 *1 69.73,32.2
X$202 32 55 146 34 35 147 MUX2_X1
* cell instance $204 r0 *1 65.93,35
X$204 32 177 60 34 35 208 MUX2_X1
* cell instance $206 m0 *1 66.69,32.2
X$206 60 121 32 34 35 145 MUX2_X1
* cell instance $222 m0 *1 79.04,37.8
X$222 33 55 43 34 35 229 MUX2_X1
* cell instance $226 m0 *1 82.46,35
X$226 45 177 33 34 35 180 MUX2_X1
* cell instance $228 m0 *1 80.94,29.4
X$228 33 46 45 34 35 127 MUX2_X1
* cell instance $232 r0 *1 82.46,23.8
X$232 43 49 33 34 35 79 MUX2_X1
* cell instance $234 r0 *1 65.93,57.4
X$234 33 481 45 34 35 483 MUX2_X1
* cell instance $237 r0 *1 67.26,57.4
X$237 43 446 33 34 35 484 MUX2_X1
* cell instance $240 r0 *1 68.59,57.4
X$240 33 537 43 34 35 485 MUX2_X1
* cell instance $243 r0 *1 69.92,57.4
X$243 45 420 33 34 35 559 MUX2_X1
* cell instance $251 m0 *1 111.15,60.2
X$251 501 496 307 34 538 35 AOI21_X2
* cell instance $253 m0 *1 112.48,60.2
X$253 34 533 535 534 356 536 35 AOI22_X4
* cell instance $265 r0 *1 111.15,60.2
X$265 496 305 494 34 575 35 AOI21_X1
* cell instance $266 r0 *1 111.91,60.2
X$266 569 575 574 431 34 35 571 AOI22_X2
* cell instance $267 r0 *1 113.62,60.2
X$267 573 34 35 574 INV_X1
* cell instance $286 m0 *1 60.42,79.8
X$286 887 753 727 34 35 888 MUX2_X1
* cell instance $290 r0 *1 60.42,79.8
X$290 808 753 832 34 35 921 MUX2_X1
* cell instance $292 m0 *1 62.32,79.8
X$292 470 297 730 34 35 913 MUX2_X1
* cell instance $296 r0 *1 62.7,79.8
X$296 833 948 629 34 35 982 MUX2_X1
* cell instance $297 m0 *1 64.22,79.8
X$297 629 343 846 34 35 934 MUX2_X1
* cell instance $302 r0 *1 64.03,79.8
X$302 469 857 470 34 35 935 MUX2_X1
* cell instance $308 m0 *1 69.73,79.8
X$308 889 700 410 34 35 905 MUX2_X1
* cell instance $310 r0 *1 69.73,79.8
X$310 934 700 890 34 35 922 MUX2_X1
* cell instance $312 m0 *1 73.15,79.8
X$312 905 627 922 34 35 621 MUX2_X1
* cell instance $317 m0 *1 78.47,79.8
X$317 859 391 474 34 35 908 MUX2_X1
* cell instance $319 m0 *1 79.99,79.8
X$319 449 627 908 34 35 909 MUX2_X1
* cell instance $322 m0 *1 83.03,79.8
X$322 768 604 627 34 912 35 AOI21_X1
* cell instance $323 m0 *1 83.79,79.8
X$323 604 770 771 34 891 35 AOI21_X2
* cell instance $324 m0 *1 85.12,79.8
X$324 893 474 892 910 34 35 864 AOI22_X2
* cell instance $327 m0 *1 90.06,79.8
X$327 915 893 837 34 894 35 AOI21_X1
* cell instance $331 r0 *1 80.94,79.8
X$331 453 851 35 34 936 AND2_X1
* cell instance $332 r0 *1 81.7,79.8
X$332 909 863 936 34 35 918 MUX2_X1
* cell instance $337 r0 *1 88.73,79.8
X$337 888 453 34 35 923 NOR2_X1
* cell instance $341 m0 *1 91.2,79.8
X$341 942 916 700 480 35 34 915 AND4_X1
* cell instance $342 m0 *1 93.1,79.8
X$342 892 448 861 34 35 943 NAND3_X1
* cell instance $343 m0 *1 93.86,79.8
X$343 892 34 35 919 BUF_X1
* cell instance $346 m0 *1 95.38,79.8
X$346 533 639 509 34 945 35 AOI21_X1
* cell instance $350 m0 *1 100.13,79.8
X$350 920 386 880 34 900 35 AOI21_X2
* cell instance $351 m0 *1 101.46,79.8
X$351 300 493 697 984 865 920 35 34 AOI221_X2
* cell instance $352 m0 *1 103.55,79.8
X$352 851 525 34 35 914 NOR2_X2
* cell instance $355 r0 *1 91.77,79.8
X$355 674 863 34 35 774 NOR2_X2
* cell instance $357 r0 *1 93.1,79.8
X$357 861 917 943 35 941 34 OAI21_X1
* cell instance $359 r0 *1 94.24,79.8
X$359 925 514 945 34 944 35 AOI21_X2
* cell instance $362 r0 *1 96.14,79.8
X$362 674 35 453 34 BUF_X4
* cell instance $366 r0 *1 101.08,79.8
X$366 34 940 496 918 865 35 AOI21_X4
* cell instance $368 r0 *1 103.93,79.8
X$368 34 957 940 542 873 398 35 OAI22_X4
* cell instance $370 m0 *1 105.07,79.8
X$370 891 914 459 867 35 869 34 NOR4_X2
* cell instance $372 m0 *1 107.54,79.8
X$372 868 869 896 566 35 34 911 OAI22_X2
* cell instance $373 m0 *1 109.25,79.8
X$373 875 398 911 34 901 35 AOI21_X2
* cell instance $375 m0 *1 112.1,79.8
X$375 937 533 34 35 903 NAND2_X1
* cell instance $385 m0 *1 157.51,79.8
X$385 901 34 35 899 BUF_X1
* cell instance $394 r0 *1 110.01,79.8
X$394 270 500 494 34 35 938 NAND3_X1
* cell instance $395 r0 *1 110.77,79.8
X$395 928 927 570 938 939 874 35 34 AOI221_X2
* cell instance $396 r0 *1 112.86,79.8
X$396 270 500 384 34 35 929 NAND3_X1
* cell instance $399 r0 *1 114.19,79.8
X$399 717 35 567 34 BUF_X4
* cell instance $416 r0 *1 158.65,79.8
X$416 615 34 35 930 BUF_X1
* cell instance $418 r0 *1 159.41,79.8
X$418 572 34 35 932 BUF_X1
* cell instance $420 r0 *1 161.5,79.8
X$420 900 34 35 931 BUF_X1
* cell instance $423 r0 *1 162.64,79.8
X$423 647 34 35 933 BUF_X1
* cell instance $431 m0 *1 5.32,91
X$431 1015 34 35 101 CLKBUF_X3
* cell instance $446 m0 *1 72.58,91
X$446 390 1006 35 976 34 XOR2_X2
* cell instance $462 m0 *1 74.86,91
X$462 34 1017 35 390 BUF_X8
* cell instance $464 m0 *1 77.33,91
X$464 1006 1017 34 35 668 XNOR2_X2
* cell instance $468 m0 *1 84.55,91
X$468 455 1008 34 35 799 XNOR2_X2
* cell instance $472 r0 *1 76.19,91
X$472 34 49 35 1016 BUF_X8
* cell instance $473 r0 *1 78.66,91
X$473 1016 35 177 34 BUF_X4
* cell instance $477 r0 *1 82.65,91
X$477 961 35 371 34 BUF_X4
* cell instance $478 r0 *1 83.98,91
X$478 1020 1017 34 35 770 NAND2_X2
* cell instance $480 r0 *1 85.12,91
X$480 1006 961 1016 34 35 556 OR3_X2
* cell instance $482 r0 *1 87.02,91
X$482 556 1011 34 35 1020 NOR2_X2
* cell instance $531 m0 *1 98.8,91
X$531 1011 352 34 183 35 OR2_X4
* cell instance $533 m0 *1 102.03,91
X$533 1011 352 494 34 35 NOR2_X4
* cell instance $536 m0 *1 104.69,91
X$536 352 34 35 310 INV_X4
* cell instance $551 m0 *1 88.35,91
X$551 49 371 34 35 388 NOR2_X2
* cell instance $553 m0 *1 90.25,91
X$553 1008 363 34 35 642 NAND2_X2
* cell instance $554 m0 *1 91.2,91
X$554 34 998 310 1019 1017 35 AOI21_X4
* cell instance $555 m0 *1 93.67,91
X$555 1010 916 942 34 926 35 AOI21_X2
* cell instance $557 m0 *1 95.76,91
X$557 34 865 1018 494 1008 35 AOI21_X4
* cell instance $559 r0 *1 88.35,91
X$559 371 49 34 35 1021 OR2_X1
* cell instance $561 r0 *1 89.3,91
X$561 1021 1017 98 455 34 35 1025 NAND4_X1
* cell instance $562 r0 *1 90.25,91
X$562 1021 310 1023 363 1025 996 34 35 OAI221_X2
* cell instance $564 r0 *1 92.53,91
X$564 1017 1022 494 34 916 35 NAND3_X4
* cell instance $565 r0 *1 95,91
X$565 1024 371 856 35 34 1010 OAI21_X2
* cell instance $566 r0 *1 96.33,91
X$566 1024 34 35 1018 INV_X1
* cell instance $567 r0 *1 96.71,91
X$567 1006 1011 34 35 1019 NOR2_X2
* cell instance $570 r0 *1 99.94,91
X$570 1011 35 455 34 BUF_X4
* cell instance $606 m0 *1 88.16,77
X$606 768 812 601 34 886 35 AOI21_X1
* cell instance $608 r0 *1 88.16,77
X$608 456 859 34 35 867 NOR2_X2
* cell instance $609 r0 *1 89.11,77
X$609 863 886 894 562 35 34 698 OAI22_X2
* cell instance $612 m0 *1 91.01,77
X$612 813 831 676 34 35 NOR2_X4
* cell instance $617 r0 *1 92.91,77
X$617 776 774 917 34 882 35 AOI21_X1
* cell instance $618 r0 *1 93.67,77
X$618 863 865 34 35 645 NAND2_X2
* cell instance $620 m0 *1 94.81,77
X$620 838 895 609 768 839 35 34 AOI211_X2
* cell instance $621 m0 *1 96.52,77
X$621 838 861 609 34 854 35 AOI21_X1
* cell instance $622 m0 *1 97.28,77
X$622 609 861 671 34 35 884 NOR3_X1
* cell instance $624 m0 *1 99.56,77
X$624 881 882 567 331 462 876 35 34 AOI221_X2
* cell instance $627 m0 *1 102.6,77
X$627 876 689 877 34 823 35 AOI21_X2
* cell instance $631 r0 *1 94.62,77
X$631 926 456 733 35 34 895 OAI21_X2
* cell instance $632 r0 *1 95.95,77
X$632 458 924 776 35 34 871 OAI21_X4
* cell instance $633 r0 *1 98.42,77
X$633 865 883 884 35 34 847 OAI21_X2
* cell instance $635 r0 *1 100.13,77
X$635 533 919 611 34 880 35 AOI21_X1
* cell instance $636 r0 *1 100.89,77
X$636 300 491 697 505 897 877 35 34 AOI221_X2
* cell instance $640 r0 *1 105.07,77
X$640 645 914 891 867 35 757 34 OR4_X2
* cell instance $644 r0 *1 107.73,77
X$644 332 868 869 896 566 330 34 35 875 OAI33_X1
* cell instance $645 m0 *1 109.25,77
X$645 612 870 839 840 871 848 34 35 OAI221_X2
* cell instance $646 m0 *1 108.87,77
X$646 819 34 35 868 INV_X1
* cell instance $647 m0 *1 111.34,77
X$647 358 840 839 34 35 906 NOR3_X1
* cell instance $656 m0 *1 157.7,77
X$656 825 34 35 872 BUF_X1
* cell instance $661 r0 *1 110.2,77
X$661 697 870 871 35 902 34 OAI21_X1
* cell instance $664 r0 *1 111.91,77
X$664 399 848 906 503 902 904 35 34 AOI221_X2
* cell instance $680 m0 *1 160.17,77
X$680 874 34 35 843 BUF_X1
* cell instance $681 m0 *1 162.26,77
X$681 841 34 35 821 BUF_X1
* cell instance $687 r0 *1 163.02,77
X$687 873 34 35 898 BUF_X2
* cell instance $2221 r0 *1 78.85,21
X$2221 53 46 47 34 35 58 MUX2_X1
* cell instance $2222 r0 *1 80.18,21
X$2222 44 49 48 34 35 57 MUX2_X1
* cell instance $2527 r0 *1 72.01,99.4
X$2527 1037 35 1016 34 BUF_X4
* cell instance $2971 m0 *1 72.58,74.2
X$2971 790 391 312 34 35 829 MUX2_X1
* cell instance $2973 m0 *1 80.75,74.2
X$2973 547 453 34 35 860 NAND2_X1
* cell instance $2976 m0 *1 83.03,74.2
X$2976 835 770 771 34 781 35 AOI21_X2
* cell instance $2980 r0 *1 72.58,74.2
X$2980 834 627 849 34 35 527 MUX2_X1
* cell instance $2982 r0 *1 74.67,74.2
X$2982 829 562 834 34 35 850 MUX2_X1
* cell instance $2987 r0 *1 84.55,74.2
X$2987 524 34 35 836 INV_X1
* cell instance $2990 m0 *1 87.21,74.2
X$2990 664 812 34 35 800 NOR2_X1
* cell instance $2994 r0 *1 87.21,74.2
X$2994 810 602 812 34 35 855 MUX2_X1
* cell instance $2997 r0 *1 89.68,74.2
X$2997 810 674 837 34 35 852 MUX2_X1
* cell instance $2999 m0 *1 91.39,74.2
X$2999 831 813 810 35 520 34 OAI21_X1
* cell instance $3001 m0 *1 92.15,74.2
X$3001 831 813 528 35 775 34 OAI21_X1
* cell instance $3002 m0 *1 92.91,74.2
X$3002 697 775 777 35 34 796 OAI21_X2
* cell instance $3005 r0 *1 91.58,74.2
X$3005 852 448 509 676 790 35 34 814 OAI221_X1
* cell instance $3008 m0 *1 94.62,74.2
X$3008 456 733 34 35 806 NOR2_X1
* cell instance $3010 m0 *1 95.57,74.2
X$3010 806 645 34 35 830 NOR2_X1
* cell instance $3011 m0 *1 96.33,74.2
X$3011 34 854 830 744 509 550 35 AOI22_X4
* cell instance $3014 m0 *1 101.27,74.2
X$3014 815 505 35 816 34 AND2_X4
* cell instance $3015 m0 *1 102.98,74.2
X$3015 281 797 816 385 803 796 34 35 828 OAI33_X1
* cell instance $3016 m0 *1 104.31,74.2
X$3016 797 816 796 803 35 34 818 OAI22_X2
* cell instance $3022 r0 *1 96.33,74.2
X$3022 778 674 855 34 35 815 MUX2_X1
* cell instance $3023 r0 *1 97.66,74.2
X$3023 856 661 458 35 853 34 OAI21_X1
* cell instance $3026 r0 *1 99.56,74.2
X$3026 528 815 853 850 505 827 35 34 AOI221_X2
* cell instance $3029 r0 *1 102.22,74.2
X$3029 851 707 567 368 541 817 35 34 AOI221_X2
* cell instance $3030 r0 *1 104.31,74.2
X$3030 817 533 866 34 845 35 AOI21_X2
* cell instance $3031 r0 *1 105.64,74.2
X$3031 828 398 818 34 825 35 AOI21_X2
* cell instance $3034 r0 *1 107.54,74.2
X$3034 310 35 331 34 BUF_X4
* cell instance $3035 m0 *1 109.44,74.2
X$3035 34 791 782 826 744 35 AOI21_X4
* cell instance $3036 m0 *1 108.68,74.2
X$3036 458 761 686 34 819 35 AOI21_X1
* cell instance $3037 m0 *1 111.91,74.2
X$3037 496 327 688 34 826 35 AOI21_X1
* cell instance $3038 m0 *1 112.67,74.2
X$3038 717 761 327 34 824 35 AOI21_X1
* cell instance $3050 r0 *1 109.06,74.2
X$3050 717 35 458 34 BUF_X4
* cell instance $3051 r0 *1 110.39,74.2
X$3051 538 398 847 533 903 841 34 35 OAI221_X2
* cell instance $3052 r0 *1 112.48,74.2
X$3052 824 34 35 840 INV_X1
* cell instance $3070 r0 *1 157.32,74.2
X$3070 681 34 35 842 BUF_X1
* cell instance $3073 r0 *1 161.69,74.2
X$3073 845 34 35 844 BUF_X1
* cell instance $3076 m0 *1 164.54,74.2
X$3076 750 34 35 820 BUF_X1
* cell instance $3077 m0 *1 163.97,74.2
X$3077 823 34 35 785 BUF_X1
* cell instance $3094 m0 *1 59.85,60.2
X$3094 92 446 41 34 35 482 MUX2_X1
* cell instance $3095 m0 *1 61.18,60.2
X$3095 438 35 447 34 BUF_X4
* cell instance $3112 r0 *1 54.91,60.2
X$3112 436 35 370 34 BUF_X4
* cell instance $3113 r0 *1 56.24,60.2
X$3113 34 716 35 436 BUF_X8
* cell instance $3114 r0 *1 58.71,60.2
X$3114 34 683 35 436 BUF_X8
* cell instance $3118 r0 *1 62.51,60.2
X$3118 447 35 446 34 BUF_X4
* cell instance $3121 m0 *1 64.22,60.2
X$3121 135 481 146 34 35 653 MUX2_X1
* cell instance $3123 m0 *1 70.11,60.2
X$3123 42 420 62 34 35 560 MUX2_X1
* cell instance $3124 m0 *1 71.44,60.2
X$3124 39 420 38 34 35 543 MUX2_X1
* cell instance $3126 m0 *1 72.96,60.2
X$3126 364 627 507 34 35 547 MUX2_X1
* cell instance $3127 m0 *1 74.29,60.2
X$3127 364 602 421 34 35 521 MUX2_X1
* cell instance $3131 r0 *1 66.88,60.2
X$3131 70 557 101 34 35 558 MUX2_X1
* cell instance $3133 r0 *1 68.97,60.2
X$3133 38 576 37 34 35 579 MUX2_X1
* cell instance $3134 r0 *1 70.3,60.2
X$3134 631 65 561 34 35 593 MUX2_X1
* cell instance $3135 r0 *1 71.63,60.2
X$3135 62 557 39 34 35 582 MUX2_X1
* cell instance $3139 r0 *1 75.43,60.2
X$3139 558 65 543 34 35 584 MUX2_X1
* cell instance $3141 m0 *1 79.61,60.2
X$3141 547 453 510 34 35 550 MUX2_X1
* cell instance $3142 m0 *1 78.28,60.2
X$3142 522 525 506 34 35 551 MUX2_X1
* cell instance $3143 m0 *1 80.94,60.2
X$3143 523 448 551 34 35 546 MUX2_X1
* cell instance $3147 r0 *1 80.56,60.2
X$3147 584 423 34 35 563 NAND2_X1
* cell instance $3150 r0 *1 82.27,60.2
X$3150 343 579 392 513 34 35 606 AOI22_X2
* cell instance $3151 r0 *1 83.98,60.2
X$3151 579 34 35 590 INV_X1
* cell instance $3152 m0 *1 84.36,60.2
X$3152 392 513 34 35 589 NAND2_X1
* cell instance $3157 r0 *1 84.74,60.2
X$3157 589 117 590 35 34 565 OAI21_X2
* cell instance $3158 r0 *1 86.07,60.2
X$3158 591 453 445 34 35 568 MUX2_X1
* cell instance $3162 m0 *1 88.35,60.2
X$3162 563 525 555 423 526 530 34 35 OAI221_X2
* cell instance $3164 r0 *1 88.54,60.2
X$3164 486 562 34 35 594 NAND2_X1
* cell instance $3165 r0 *1 89.11,60.2
X$3165 593 525 34 35 526 NAND2_X1
* cell instance $3166 r0 *1 89.68,60.2
X$3166 563 594 35 34 587 AND2_X1
* cell instance $3168 r0 *1 91.2,60.2
X$3168 564 524 562 34 35 588 NOR3_X1
* cell instance $3169 m0 *1 91.58,60.2
X$3169 527 554 457 489 528 549 35 34 AOI221_X2
* cell instance $3170 m0 *1 93.67,60.2
X$3170 34 586 552 508 553 35 AOI21_X4
* cell instance $3171 m0 *1 96.14,60.2
X$3171 34 548 549 417 529 35 AOI21_X4
* cell instance $3174 r0 *1 92.72,60.2
X$3174 588 394 566 35 552 34 NOR3_X2
* cell instance $3178 r0 *1 96.71,60.2
X$3178 585 533 34 35 529 NOR2_X1
* cell instance $3181 r0 *1 98.42,60.2
X$3181 34 610 387 572 545 583 35 AOI22_X4
* cell instance $3182 m0 *1 99.18,60.2
X$3182 546 509 34 35 545 NAND2_X1
* cell instance $3187 m0 *1 100.89,60.2
X$3187 530 505 502 289 491 690 35 34 AOI221_X2
* cell instance $3188 m0 *1 103.17,60.2
X$3188 495 378 458 35 531 34 OAI21_X1
* cell instance $3190 r0 *1 101.65,60.2
X$3190 530 528 567 289 493 583 35 34 AOI221_X2
* cell instance $3191 r0 *1 103.74,60.2
X$3191 525 554 34 35 564 NAND2_X2
* cell instance $3193 m0 *1 104.31,60.2
X$3193 497 533 209 34 542 35 AOI21_X2
* cell instance $3194 r0 *1 104.69,60.2
X$3194 578 509 568 34 569 35 AOI21_X2
* cell instance $3196 m0 *1 106.21,60.2
X$3196 532 554 540 242 331 651 35 34 AOI221_X2
* cell instance $3200 m0 *1 110.01,60.2
X$3200 429 329 34 35 539 NAND2_X1
* cell instance $3204 r0 *1 108.49,60.2
X$3204 577 539 360 34 570 35 AOI21_X2
* cell instance $3219 m0 *1 57,57.4
X$3219 34 315 35 481 BUF_X8
* cell instance $3221 m0 *1 60.23,57.4
X$3221 88 446 60 34 35 468 MUX2_X1
* cell instance $3238 r0 *1 55.29,57.4
X$3238 34 481 35 436 BUF_X8
* cell instance $3239 r0 *1 57.76,57.4
X$3239 34 537 35 447 BUF_X8
* cell instance $3245 r0 *1 61.18,57.4
X$3245 482 468 123 35 34 474 MUX2_X2
* cell instance $3246 m0 *1 62.13,57.4
X$3246 468 123 467 34 35 522 MUX2_X1
* cell instance $3251 m0 *1 67.45,57.4
X$3251 484 123 383 34 35 472 MUX2_X1
* cell instance $3255 m0 *1 71.25,57.4
X$3255 43 420 70 34 35 475 MUX2_X1
* cell instance $3257 m0 *1 73.34,57.4
X$3257 315 34 35 513 INV_X4
* cell instance $3261 m0 *1 79.61,57.4
X$3261 449 448 450 34 35 461 MUX2_X1
* cell instance $3263 r0 *1 62.89,57.4
X$3263 406 65 482 34 35 507 MUX2_X1
* cell instance $3269 m0 *1 83.03,57.4
X$3269 34 513 452 524 512 172 35 AOI22_X4
* cell instance $3270 m0 *1 81.32,57.4
X$3270 469 451 371 35 34 480 MUX2_X2
* cell instance $3271 m0 *1 86.26,57.4
X$3271 117 197 34 35 515 NAND2_X1
* cell instance $3274 r0 *1 81.89,57.4
X$3274 451 34 35 512 BUF_X1
* cell instance $3277 m0 *1 88.16,57.4
X$3277 455 454 35 34 519 XNOR2_X1
* cell instance $3283 r0 *1 89.11,57.4
X$3283 519 486 34 35 555 NAND2_X1
* cell instance $3285 r0 *1 91.2,57.4
X$3285 592 480 34 35 487 NAND2_X1
* cell instance $3286 r0 *1 91.77,57.4
X$3286 459 520 487 34 395 35 AOI21_X1
* cell instance $3287 m0 *1 92.15,57.4
X$3287 518 456 34 35 488 OR2_X1
* cell instance $3290 m0 *1 93.1,57.4
X$3290 341 183 458 35 457 34 OAI21_X1
* cell instance $3292 m0 *1 94.62,57.4
X$3292 459 456 34 35 479 OR2_X1
* cell instance $3294 m0 *1 95.57,57.4
X$3294 518 479 427 341 458 426 34 35 OAI221_X2
* cell instance $3297 m0 *1 98.61,57.4
X$3297 477 463 460 34 514 35 AOI21_X2
* cell instance $3299 r0 *1 92.53,57.4
X$3299 488 520 487 34 35 489 NAND3_X1
* cell instance $3300 r0 *1 93.29,57.4
X$3300 34 509 517 553 516 528 35 AOI22_X4
* cell instance $3304 r0 *1 97.85,57.4
X$3304 490 34 35 516 BUF_X2
* cell instance $3307 r0 *1 99.75,57.4
X$3307 461 509 34 35 544 NAND2_X2
* cell instance $3308 m0 *1 102.03,57.4
X$3308 427 210 34 35 491 NOR2_X2
* cell instance $3309 m0 *1 100.32,57.4
X$3309 384 328 376 463 34 35 473 AOI22_X2
* cell instance $3311 m0 *1 103.74,57.4
X$3311 385 463 244 34 35 471 MUX2_X1
* cell instance $3313 m0 *1 106.59,57.4
X$3313 378 210 34 35 500 NAND2_X1
* cell instance $3317 r0 *1 100.89,57.4
X$3317 183 210 34 35 493 NOR2_X2
* cell instance $3318 r0 *1 101.84,57.4
X$3318 496 334 493 34 508 35 AOI21_X2
* cell instance $3319 r0 *1 103.17,57.4
X$3319 494 97 34 35 495 NAND2_X1
* cell instance $3321 r0 *1 103.93,57.4
X$3321 440 329 34 35 541 NAND2_X1
* cell instance $3322 r0 *1 104.5,57.4
X$3322 440 496 34 35 497 NOR2_X1
* cell instance $3324 r0 *1 105.45,57.4
X$3324 384 97 34 35 498 NAND2_X1
* cell instance $3325 r0 *1 106.02,57.4
X$3325 498 378 458 35 540 34 OAI21_X1
* cell instance $3328 m0 *1 109.25,57.4
X$3328 466 34 35 492 INV_X1
* cell instance $3331 m0 *1 109.82,57.4
X$3331 380 463 34 35 499 NAND2_X1
* cell instance $3334 m0 *1 112.67,57.4
X$3334 270 500 203 34 35 464 NAND3_X1
* cell instance $3335 m0 *1 113.43,57.4
X$3335 308 464 329 34 35 504 NAND3_X1
* cell instance $3348 r0 *1 109.44,57.4
X$3348 490 505 502 430 269 536 35 34 AOI221_X2
* cell instance $3349 r0 *1 111.53,57.4
X$3349 429 502 34 35 501 NOR2_X1
* cell instance $3351 r0 *1 112.29,57.4
X$3351 502 35 533 34 BUF_X4
* cell instance $3353 r0 *1 113.81,57.4
X$3353 464 308 35 34 503 AND2_X1
* cell instance $3401 r0 *1 64.98,46.2
X$3401 343 35 77 34 BUF_X4
* cell instance $3403 r0 *1 66.69,46.2
X$3403 61 315 72 34 35 316 MUX2_X1
* cell instance $3404 r0 *1 68.02,46.2
X$3404 36 315 51 34 35 317 MUX2_X1
* cell instance $3405 r0 *1 69.35,46.2
X$3405 84 282 61 34 35 345 MUX2_X1
* cell instance $3408 m0 *1 70.87,46.2
X$3408 296 100 311 34 35 312 MUX2_X1
* cell instance $3410 m0 *1 73.91,46.2
X$3410 47 282 54 34 35 319 MUX2_X1
* cell instance $3414 m0 *1 90.44,46.2
X$3414 278 314 129 34 35 299 NAND3_X1
* cell instance $3418 r0 *1 71.06,46.2
X$3418 54 315 36 34 35 346 MUX2_X1
* cell instance $3419 r0 *1 72.39,46.2
X$3419 59 315 84 34 35 318 MUX2_X1
* cell instance $3422 r0 *1 74.29,46.2
X$3422 318 314 319 34 35 506 MUX2_X1
* cell instance $3424 r0 *1 75.81,46.2
X$3424 48 282 59 34 35 347 MUX2_X1
* cell instance $3427 r0 *1 77.71,46.2
X$3427 53 282 47 34 35 348 MUX2_X1
* cell instance $3429 r0 *1 79.23,46.2
X$3429 44 282 48 34 35 321 MUX2_X1
* cell instance $3431 r0 *1 81.32,46.2
X$3431 343 35 104 34 BUF_X4
* cell instance $3435 r0 *1 83.98,46.2
X$3435 38 37 177 35 34 323 MUX2_X2
* cell instance $3436 r0 *1 85.69,46.2
X$3436 323 277 123 35 34 300 MUX2_X2
* cell instance $3439 r0 *1 89.68,46.2
X$3439 284 314 34 35 325 NAND2_X1
* cell instance $3440 r0 *1 90.25,46.2
X$3440 324 298 299 35 34 341 AND3_X1
* cell instance $3441 r0 *1 91.2,46.2
X$3441 299 298 324 34 35 342 NAND3_X1
* cell instance $3443 r0 *1 92.15,46.2
X$3443 342 197 218 34 35 326 MUX2_X1
* cell instance $3447 r0 *1 94.81,46.2
X$3447 326 331 340 34 35 339 MUX2_X1
* cell instance $3451 m0 *1 99.18,46.2
X$3451 288 258 34 35 338 NAND2_X1
* cell instance $3452 m0 *1 101.27,46.2
X$3452 227 300 286 35 34 301 MUX2_X2
* cell instance $3456 m0 *1 105.45,46.2
X$3456 301 191 187 34 35 330 MUX2_X1
* cell instance $3458 r0 *1 99.37,46.2
X$3458 338 185 337 35 34 335 OAI21_X2
* cell instance $3461 r0 *1 104.12,46.2
X$3461 329 226 302 34 333 35 AOI21_X1
* cell instance $3464 m0 *1 107.35,46.2
X$3464 274 304 310 34 35 309 NAND3_X1
* cell instance $3469 r0 *1 107.35,46.2
X$3469 273 203 34 35 354 NAND2_X1
* cell instance $3470 r0 *1 107.92,46.2
X$3470 330 331 207 34 35 361 MUX2_X1
* cell instance $3473 r0 *1 110.39,46.2
X$3473 189 258 34 35 308 NAND2_X1
* cell instance $3476 m0 *1 111.72,46.2
X$3476 306 203 305 34 404 35 AOI21_X2
* cell instance $3536 m0 *1 56.62,51.8
X$3536 34 297 75 35 BUF_X32
* cell instance $3538 m0 *1 66.69,51.8
X$3538 70 370 43 34 35 408 MUX2_X1
* cell instance $3544 r0 *1 60.99,51.8
X$3544 405 78 406 34 35 412 MUX2_X1
* cell instance $3545 r0 *1 62.32,51.8
X$3545 467 100 344 34 35 422 MUX2_X1
* cell instance $3546 r0 *1 63.65,51.8
X$3546 297 35 65 34 BUF_X4
* cell instance $3547 r0 *1 64.98,51.8
X$3547 75 349 419 35 34 390 HA_X1
* cell instance $3548 r0 *1 66.88,51.8
X$3548 383 343 408 34 35 407 MUX2_X1
* cell instance $3552 m0 *1 69.16,51.8
X$3552 38 315 39 34 35 409 MUX2_X1
* cell instance $3556 r0 *1 69.35,51.8
X$3556 409 252 408 34 35 410 MUX2_X1
* cell instance $3557 r0 *1 70.68,51.8
X$3557 296 106 409 34 35 413 MUX2_X1
* cell instance $3560 r0 *1 79.61,51.8
X$3560 362 391 322 34 35 416 MUX2_X1
* cell instance $3562 m0 *1 80.75,51.8
X$3562 371 35 252 34 BUF_X4
* cell instance $3566 r0 *1 82.08,51.8
X$3566 371 35 214 34 BUF_X4
* cell instance $3568 r0 *1 83.79,51.8
X$3568 101 371 35 34 392 AND2_X2
* cell instance $3570 r0 *1 85.12,51.8
X$3570 101 37 371 35 34 372 MUX2_X2
* cell instance $3571 m0 *1 87.21,51.8
X$3571 349 372 35 34 389 AND2_X1
* cell instance $3572 m0 *1 85.5,51.8
X$3572 53 44 371 35 34 327 MUX2_X2
* cell instance $3575 m0 *1 88.54,51.8
X$3575 216 286 389 34 35 373 MUX2_X1
* cell instance $3577 m0 *1 89.87,51.8
X$3577 373 197 232 34 35 393 MUX2_X1
* cell instance $3583 r0 *1 92.15,51.8
X$3583 393 331 231 34 35 394 MUX2_X1
* cell instance $3585 r0 *1 93.86,51.8
X$3585 418 191 313 34 440 35 AOI21_X2
* cell instance $3588 r0 *1 97.09,51.8
X$3588 247 426 395 396 260 374 34 35 397 OAI33_X1
* cell instance $3590 m0 *1 98.61,51.8
X$3590 331 260 374 34 35 375 OR3_X1
* cell instance $3596 r0 *1 98.99,51.8
X$3596 375 398 174 35 34 417 OAI21_X2
* cell instance $3600 r0 *1 101.65,51.8
X$3600 353 399 34 35 441 NAND2_X1
* cell instance $3603 m0 *1 102.22,51.8
X$3603 289 377 35 34 374 AND2_X1
* cell instance $3604 m0 *1 103.17,51.8
X$3604 377 300 185 221 34 35 400 AOI22_X1
* cell instance $3605 m0 *1 104.12,51.8
X$3605 210 363 34 35 377 NOR2_X1
* cell instance $3607 r0 *1 102.6,51.8
X$3607 400 399 34 35 414 NAND2_X1
* cell instance $3611 r0 *1 104.5,51.8
X$3611 333 398 335 34 411 35 AOI21_X1
* cell instance $3613 m0 *1 105.26,51.8
X$3613 377 382 265 185 34 35 401 AOI22_X2
* cell instance $3616 r0 *1 105.64,51.8
X$3616 401 399 34 35 402 NAND2_X1
* cell instance $3617 r0 *1 106.21,51.8
X$3617 402 398 171 35 34 434 OAI21_X2
* cell instance $3618 m0 *1 107.54,51.8
X$3618 372 379 224 258 34 35 433 AOI22_X2
* cell instance $3632 r0 *1 107.92,51.8
X$3632 327 379 303 191 34 35 429 AOI22_X2
* cell instance $3634 r0 *1 110.39,51.8
X$3634 329 35 398 34 BUF_X4
* cell instance $3635 r0 *1 111.72,51.8
X$3635 398 204 403 35 431 34 OAI21_X1
* cell instance $3637 r0 *1 113.24,51.8
X$3637 329 35 399 34 BUF_X4
* cell instance $3690 r0 *1 60.61,49
X$3690 72 315 88 34 35 344 MUX2_X1
* cell instance $3692 r0 *1 62.32,49
X$3692 343 35 100 34 BUF_X4
* cell instance $3693 m0 *1 62.7,49
X$3693 51 315 69 34 35 359 MUX2_X1
* cell instance $3698 r0 *1 64.03,49
X$3698 344 77 359 34 35 364 MUX2_X1
* cell instance $3699 r0 *1 65.36,49
X$3699 39 370 62 34 35 383 MUX2_X1
* cell instance $3700 m0 *1 66.12,49
X$3700 359 104 316 34 35 362 MUX2_X1
* cell instance $3704 m0 *1 69.16,49
X$3704 317 75 345 34 35 365 MUX2_X1
* cell instance $3705 m0 *1 67.83,49
X$3705 316 104 317 34 35 336 MUX2_X1
* cell instance $3708 m0 *1 70.87,49
X$3708 345 77 346 34 35 421 MUX2_X1
* cell instance $3709 m0 *1 72.77,49
X$3709 346 104 318 34 35 476 MUX2_X1
* cell instance $3713 m0 *1 75.05,49
X$3713 319 314 347 34 35 320 MUX2_X1
* cell instance $3716 m0 *1 77.33,49
X$3716 347 75 348 34 35 478 MUX2_X1
* cell instance $3721 m0 *1 79.04,49
X$3721 348 77 321 34 35 322 MUX2_X1
* cell instance $3727 r0 *1 83.6,49
X$3727 34 349 392 378 323 65 35 AOI22_X4
* cell instance $3728 m0 *1 86.26,49
X$3728 53 349 117 34 35 350 NAND3_X1