* CDL Netlist generated by OpenROAD

*.BUSDELIMITER [

.SUBCKT configurable_carry_skip_adder a[0] a[10] a[11] a[12]
+ a[13] a[14] a[15] a[16] a[17] a[18] a[19] a[1] a[20] a[21]
+ a[22] a[23] a[24] a[25] a[26] a[27] a[28] a[29] a[2] a[30]
+ a[31] a[3] a[4] a[5] a[6] a[7] a[8] a[9] b[0] b[10] b[11]
+ b[12] b[13] b[14] b[15] b[16] b[17] b[18] b[19] b[1] b[20]
+ b[21] b[22] b[23] b[24] b[25] b[26] b[27] b[28] b[29] b[2]
+ b[30] b[31] b[3] b[4] b[5] b[6] b[7] b[8] b[9] cin cout sum[0]
+ sum[10] sum[11] sum[12] sum[13] sum[14] sum[15] sum[16] sum[17]
+ sum[18] sum[19] sum[1] sum[20] sum[21] sum[22] sum[23] sum[24]
+ sum[25] sum[26] sum[27] sum[28] sum[29] sum[2] sum[30] sum[31]
+ sum[3] sum[4] sum[5] sum[6] sum[7] sum[8] sum[9]
X_234_ net65 _062_ VDD VSS gf180mcu_fd_sc_mcu9t5v0__clkinv_2
X_235_ net25 _039_ VDD VSS gf180mcu_fd_sc_mcu9t5v0__clkinv_2
X_236_ net57 _040_ VDD VSS gf180mcu_fd_sc_mcu9t5v0__clkinv_2
X_237_ _044_ _000_ VDD VSS gf180mcu_fd_sc_mcu9t5v0__clkinv_2
X_238_ _111_ _115_ _119_ _123_ _001_ VDD VSS gf180mcu_fd_sc_mcu9t5v0__and4_2
X_239_ _000_ _062_ _001_ _002_ VDD VSS gf180mcu_fd_sc_mcu9t5v0__mux2_2
X_240_ _002_ _046_ VDD VSS gf180mcu_fd_sc_mcu9t5v0__clkinv_2
X_241_ _127_ _131_ _135_ _139_ _003_ VDD VSS gf180mcu_fd_sc_mcu9t5v0__and4_2
X_242_ _053_ _004_ VDD VSS gf180mcu_fd_sc_mcu9t5v0__clkinv_2
X_243_ _127_ _131_ _135_ _139_ _005_ VDD VSS gf180mcu_fd_sc_mcu9t5v0__nand4_4
X_244_ _004_ _005_ _006_ VDD VSS gf180mcu_fd_sc_mcu9t5v0__and2_2
X_245_ _002_ _003_ _006_ _055_ VDD VSS gf180mcu_fd_sc_mcu9t5v0__aoi21_2
X_246_ _143_ _147_ _151_ _155_ _007_ VDD VSS gf180mcu_fd_sc_mcu9t5v0__nand4_4
X_247_ _004_ _005_ _007_ _008_ VDD VSS gf180mcu_fd_sc_mcu9t5v0__aoi21_2
X_248_ _046_ _005_ _008_ _009_ VDD VSS gf180mcu_fd_sc_mcu9t5v0__oai21_4
X_249_ _066_ _007_ _010_ VDD VSS gf180mcu_fd_sc_mcu9t5v0__nand2_2
X_250_ _009_ _010_ _068_ VDD VSS gf180mcu_fd_sc_mcu9t5v0__nand2_4
X_251_ _159_ _163_ _167_ _171_ _011_ VDD VSS gf180mcu_fd_sc_mcu9t5v0__and4_4
X_252_ _010_ _011_ _012_ VDD VSS gf180mcu_fd_sc_mcu9t5v0__and2_2
X_253_ _075_ _011_ _013_ VDD VSS gf180mcu_fd_sc_mcu9t5v0__nor2_2
X_254_ _009_ _012_ _013_ _077_ VDD VSS gf180mcu_fd_sc_mcu9t5v0__aoi21_4
X_255_ _063_ _086_ VDD VSS gf180mcu_fd_sc_mcu9t5v0__clkinv_2
X_256_ _175_ _179_ _183_ _187_ _014_ VDD VSS gf180mcu_fd_sc_mcu9t5v0__and4_4
X_257_ _084_ _077_ _014_ _088_ VDD VSS gf180mcu_fd_sc_mcu9t5v0__mux2_4
X_258_ _191_ _195_ _199_ _203_ _015_ VDD VSS gf180mcu_fd_sc_mcu9t5v0__and4_4
X_259_ _014_ _015_ _016_ VDD VSS gf180mcu_fd_sc_mcu9t5v0__nand2_2
X_260_ _009_ _012_ _013_ _016_ _017_ VDD VSS gf180mcu_fd_sc_mcu9t5v0__aoi211_4
X_261_ _084_ _018_ VDD VSS gf180mcu_fd_sc_mcu9t5v0__clkinv_2
X_262_ _018_ _014_ _019_ VDD VSS gf180mcu_fd_sc_mcu9t5v0__nor2_2
X_263_ _095_ _019_ _015_ _020_ VDD VSS gf180mcu_fd_sc_mcu9t5v0__mux2_4
X_264_ _017_ _020_ _097_ VDD VSS gf180mcu_fd_sc_mcu9t5v0__or2_2
X_265_ _010_ _011_ _021_ VDD VSS gf180mcu_fd_sc_mcu9t5v0__nand2_2
X_266_ _002_ _003_ _006_ _007_ _022_ VDD VSS gf180mcu_fd_sc_mcu9t5v0__aoi211_4
X_267_ _014_ _015_ _023_ VDD VSS gf180mcu_fd_sc_mcu9t5v0__and2_2
X_268_ _075_ _011_ _021_ _022_ _023_ _024_ VDD VSS gf180mcu_fd_sc_mcu9t5v0__oai221_4
X_269_ _207_ _211_ _215_ _219_ _025_ VDD VSS gf180mcu_fd_sc_mcu9t5v0__and4_2
X_270_ _025_ _026_ VDD VSS gf180mcu_fd_sc_mcu9t5v0__clkinv_2
X_271_ _020_ _026_ _027_ VDD VSS gf180mcu_fd_sc_mcu9t5v0__nor2_2
X_272_ _104_ _025_ _028_ VDD VSS gf180mcu_fd_sc_mcu9t5v0__nor2_2
X_273_ _024_ _027_ _028_ _106_ VDD VSS gf180mcu_fd_sc_mcu9t5v0__aoi21_2
X_274_ _035_ net89 VDD VSS gf180mcu_fd_sc_mcu9t5v0__clkinv_2
X_275_ _038_ net90 VDD VSS gf180mcu_fd_sc_mcu9t5v0__clkinv_2
X_276_ _043_ net91 VDD VSS gf180mcu_fd_sc_mcu9t5v0__clkinv_2
X_277_ _045_ net92 VDD VSS gf180mcu_fd_sc_mcu9t5v0__clkinv_2
X_278_ _048_ net93 VDD VSS gf180mcu_fd_sc_mcu9t5v0__clkinv_2
X_279_ _050_ net94 VDD VSS gf180mcu_fd_sc_mcu9t5v0__clkinv_2
X_280_ _052_ net95 VDD VSS gf180mcu_fd_sc_mcu9t5v0__clkinv_2
X_281_ _054_ net96 VDD VSS gf180mcu_fd_sc_mcu9t5v0__clkinv_2
X_282_ _057_ net97 VDD VSS gf180mcu_fd_sc_mcu9t5v0__clkinv_2
X_283_ _059_ net98 VDD VSS gf180mcu_fd_sc_mcu9t5v0__clkinv_3
X_284_ _065_ net68 VDD VSS gf180mcu_fd_sc_mcu9t5v0__clkinv_2
X_285_ _067_ net69 VDD VSS gf180mcu_fd_sc_mcu9t5v0__clkinv_2
X_286_ _070_ net70 VDD VSS gf180mcu_fd_sc_mcu9t5v0__clkinv_2
X_287_ _072_ net71 VDD VSS gf180mcu_fd_sc_mcu9t5v0__clkinv_2
X_288_ _074_ net72 VDD VSS gf180mcu_fd_sc_mcu9t5v0__clkinv_2
X_289_ _076_ net73 VDD VSS gf180mcu_fd_sc_mcu9t5v0__clkinv_3
X_290_ _079_ net74 VDD VSS gf180mcu_fd_sc_mcu9t5v0__clkinv_2
X_291_ _081_ net75 VDD VSS gf180mcu_fd_sc_mcu9t5v0__clkinv_2
X_292_ _083_ net76 VDD VSS gf180mcu_fd_sc_mcu9t5v0__clkinv_2
X_293_ _085_ net77 VDD VSS gf180mcu_fd_sc_mcu9t5v0__clkinv_3
X_294_ _087_ net78 VDD VSS gf180mcu_fd_sc_mcu9t5v0__clkinv_2
X_295_ _090_ net79 VDD VSS gf180mcu_fd_sc_mcu9t5v0__clkinv_2
X_296_ _092_ net80 VDD VSS gf180mcu_fd_sc_mcu9t5v0__clkinv_2
X_297_ _094_ net81 VDD VSS gf180mcu_fd_sc_mcu9t5v0__clkinv_2
X_298_ _096_ net82 VDD VSS gf180mcu_fd_sc_mcu9t5v0__clkinv_3
X_299_ _099_ net83 VDD VSS gf180mcu_fd_sc_mcu9t5v0__clkinv_2
X_300_ _101_ net84 VDD VSS gf180mcu_fd_sc_mcu9t5v0__clkinv_2
X_301_ _103_ net85 VDD VSS gf180mcu_fd_sc_mcu9t5v0__clkinv_2
X_302_ _105_ net86 VDD VSS gf180mcu_fd_sc_mcu9t5v0__clkinv_2
X_303_ _108_ net87 VDD VSS gf180mcu_fd_sc_mcu9t5v0__clkinv_2
X_304_ _109_ net88 VDD VSS gf180mcu_fd_sc_mcu9t5v0__clkinv_2
X_305_ _037_ _041_ VDD VSS gf180mcu_fd_sc_mcu9t5v0__clkinv_2
X_306_ net1 _060_ VDD VSS gf180mcu_fd_sc_mcu9t5v0__clkinv_2
X_307_ net12 _112_ VDD VSS gf180mcu_fd_sc_mcu9t5v0__clkinv_2
X_308_ net23 _116_ VDD VSS gf180mcu_fd_sc_mcu9t5v0__clkinv_2
X_309_ net26 _120_ VDD VSS gf180mcu_fd_sc_mcu9t5v0__clkinv_2
X_310_ net27 _124_ VDD VSS gf180mcu_fd_sc_mcu9t5v0__clkinv_2
X_311_ net28 _128_ VDD VSS gf180mcu_fd_sc_mcu9t5v0__clkinv_2
X_312_ net29 _132_ VDD VSS gf180mcu_fd_sc_mcu9t5v0__clkinv_2
X_313_ net30 _136_ VDD VSS gf180mcu_fd_sc_mcu9t5v0__clkinv_2
X_314_ net31 _140_ VDD VSS gf180mcu_fd_sc_mcu9t5v0__clkinv_2
X_315_ net32 _144_ VDD VSS gf180mcu_fd_sc_mcu9t5v0__clkinv_2
X_316_ net2 _148_ VDD VSS gf180mcu_fd_sc_mcu9t5v0__clkinv_2
X_317_ net3 _152_ VDD VSS gf180mcu_fd_sc_mcu9t5v0__clkinv_2
X_318_ net4 _156_ VDD VSS gf180mcu_fd_sc_mcu9t5v0__clkinv_2
X_319_ net5 _160_ VDD VSS gf180mcu_fd_sc_mcu9t5v0__clkinv_2
X_320_ net6 _164_ VDD VSS gf180mcu_fd_sc_mcu9t5v0__clkinv_2
X_321_ net7 _168_ VDD VSS gf180mcu_fd_sc_mcu9t5v0__clkinv_2
X_322_ net8 _172_ VDD VSS gf180mcu_fd_sc_mcu9t5v0__clkinv_2
X_323_ net9 _176_ VDD VSS gf180mcu_fd_sc_mcu9t5v0__clkinv_2
X_324_ net10 _180_ VDD VSS gf180mcu_fd_sc_mcu9t5v0__clkinv_2
X_325_ net11 _184_ VDD VSS gf180mcu_fd_sc_mcu9t5v0__clkinv_2
X_326_ net13 _188_ VDD VSS gf180mcu_fd_sc_mcu9t5v0__clkinv_2
X_327_ net14 _192_ VDD VSS gf180mcu_fd_sc_mcu9t5v0__clkinv_2
X_328_ net15 _196_ VDD VSS gf180mcu_fd_sc_mcu9t5v0__clkinv_2
X_329_ net16 _200_ VDD VSS gf180mcu_fd_sc_mcu9t5v0__clkinv_2
X_330_ net17 _204_ VDD VSS gf180mcu_fd_sc_mcu9t5v0__clkinv_2
X_331_ net18 _208_ VDD VSS gf180mcu_fd_sc_mcu9t5v0__clkinv_2
X_332_ net19 _212_ VDD VSS gf180mcu_fd_sc_mcu9t5v0__clkinv_2
X_333_ net20 _216_ VDD VSS gf180mcu_fd_sc_mcu9t5v0__clkinv_2
X_334_ net21 _220_ VDD VSS gf180mcu_fd_sc_mcu9t5v0__clkinv_2
X_335_ net22 _224_ VDD VSS gf180mcu_fd_sc_mcu9t5v0__clkinv_2
X_336_ net24 _228_ VDD VSS gf180mcu_fd_sc_mcu9t5v0__clkinv_2
X_337_ net33 _061_ VDD VSS gf180mcu_fd_sc_mcu9t5v0__clkinv_2
X_338_ net44 _113_ VDD VSS gf180mcu_fd_sc_mcu9t5v0__clkinv_2
X_339_ net55 _117_ VDD VSS gf180mcu_fd_sc_mcu9t5v0__clkinv_2
X_340_ net58 _121_ VDD VSS gf180mcu_fd_sc_mcu9t5v0__clkinv_2
X_341_ net59 _125_ VDD VSS gf180mcu_fd_sc_mcu9t5v0__clkinv_2
X_342_ net60 _129_ VDD VSS gf180mcu_fd_sc_mcu9t5v0__clkinv_2
X_343_ net61 _133_ VDD VSS gf180mcu_fd_sc_mcu9t5v0__clkinv_2
X_344_ net62 _137_ VDD VSS gf180mcu_fd_sc_mcu9t5v0__clkinv_2
X_345_ net63 _141_ VDD VSS gf180mcu_fd_sc_mcu9t5v0__clkinv_2
X_346_ net64 _145_ VDD VSS gf180mcu_fd_sc_mcu9t5v0__clkinv_2
X_347_ net34 _149_ VDD VSS gf180mcu_fd_sc_mcu9t5v0__clkinv_2
X_348_ net35 _153_ VDD VSS gf180mcu_fd_sc_mcu9t5v0__clkinv_2
X_349_ net36 _157_ VDD VSS gf180mcu_fd_sc_mcu9t5v0__clkinv_2
X_350_ net37 _161_ VDD VSS gf180mcu_fd_sc_mcu9t5v0__clkinv_2
X_351_ net38 _165_ VDD VSS gf180mcu_fd_sc_mcu9t5v0__clkinv_2
X_352_ net39 _169_ VDD VSS gf180mcu_fd_sc_mcu9t5v0__clkinv_2
X_353_ net40 _173_ VDD VSS gf180mcu_fd_sc_mcu9t5v0__clkinv_2
X_354_ net41 _177_ VDD VSS gf180mcu_fd_sc_mcu9t5v0__clkinv_2
X_355_ net42 _181_ VDD VSS gf180mcu_fd_sc_mcu9t5v0__clkinv_2
X_356_ net43 _185_ VDD VSS gf180mcu_fd_sc_mcu9t5v0__clkinv_2
X_357_ net45 _189_ VDD VSS gf180mcu_fd_sc_mcu9t5v0__clkinv_2
X_358_ net46 _193_ VDD VSS gf180mcu_fd_sc_mcu9t5v0__clkinv_2
X_359_ net47 _197_ VDD VSS gf180mcu_fd_sc_mcu9t5v0__clkinv_2
X_360_ net48 _201_ VDD VSS gf180mcu_fd_sc_mcu9t5v0__clkinv_2
X_361_ net49 _205_ VDD VSS gf180mcu_fd_sc_mcu9t5v0__clkinv_2
X_362_ net50 _209_ VDD VSS gf180mcu_fd_sc_mcu9t5v0__clkinv_2
X_363_ net51 _213_ VDD VSS gf180mcu_fd_sc_mcu9t5v0__clkinv_2
X_364_ net52 _217_ VDD VSS gf180mcu_fd_sc_mcu9t5v0__clkinv_2
X_365_ net53 _221_ VDD VSS gf180mcu_fd_sc_mcu9t5v0__clkinv_2
X_366_ net54 _225_ VDD VSS gf180mcu_fd_sc_mcu9t5v0__clkinv_2
X_367_ net56 _229_ VDD VSS gf180mcu_fd_sc_mcu9t5v0__clkinv_2
X_368_ _223_ _227_ _231_ _233_ _029_ VDD VSS gf180mcu_fd_sc_mcu9t5v0__and4_2
X_369_ _025_ _029_ _030_ VDD VSS gf180mcu_fd_sc_mcu9t5v0__nand2_2
X_370_ _020_ _030_ _031_ VDD VSS gf180mcu_fd_sc_mcu9t5v0__nor2_2
X_371_ _042_ _028_ _029_ _032_ VDD VSS gf180mcu_fd_sc_mcu9t5v0__mux2_2
X_372_ _024_ _031_ _032_ net66 VDD VSS gf180mcu_fd_sc_mcu9t5v0__aoi21_2
X_373_ net23 net55 _033_ _034_ _035_ VDD VSS gf180mcu_fd_sc_mcu9t5v0__addf_1
X_374_ net24 net56 _036_ _037_ _038_ VDD VSS gf180mcu_fd_sc_mcu9t5v0__addf_1
X_375_ _039_ _040_ _041_ _042_ _043_ VDD VSS gf180mcu_fd_sc_mcu9t5v0__addf_1
X_376_ net26 net58 _034_ _044_ _045_ VDD VSS gf180mcu_fd_sc_mcu9t5v0__addf_1
X_377_ net27 net59 _046_ _047_ _048_ VDD VSS gf180mcu_fd_sc_mcu9t5v0__addf_1
X_378_ net28 net60 _047_ _049_ _050_ VDD VSS gf180mcu_fd_sc_mcu9t5v0__addf_1
X_379_ net29 net61 _049_ _051_ _052_ VDD VSS gf180mcu_fd_sc_mcu9t5v0__addf_1
X_380_ net30 net62 _051_ _053_ _054_ VDD VSS gf180mcu_fd_sc_mcu9t5v0__addf_1
X_381_ net31 net63 _055_ _056_ _057_ VDD VSS gf180mcu_fd_sc_mcu9t5v0__addf_4
X_382_ net32 net64 _056_ _058_ _059_ VDD VSS gf180mcu_fd_sc_mcu9t5v0__addf_4
X_383_ _060_ _061_ _062_ _063_ net67 VDD VSS gf180mcu_fd_sc_mcu9t5v0__addf_1
X_384_ net2 net34 _058_ _064_ _065_ VDD VSS gf180mcu_fd_sc_mcu9t5v0__addf_1
X_385_ net3 net35 _064_ _066_ _067_ VDD VSS gf180mcu_fd_sc_mcu9t5v0__addf_4
X_386_ net4 net36 _068_ _069_ _070_ VDD VSS gf180mcu_fd_sc_mcu9t5v0__addf_1
X_387_ net5 net37 _069_ _071_ _072_ VDD VSS gf180mcu_fd_sc_mcu9t5v0__addf_1
X_388_ net6 net38 _071_ _073_ _074_ VDD VSS gf180mcu_fd_sc_mcu9t5v0__addf_4
X_389_ net7 net39 _073_ _075_ _076_ VDD VSS gf180mcu_fd_sc_mcu9t5v0__addf_2
X_390_ net8 net40 _077_ _078_ _079_ VDD VSS gf180mcu_fd_sc_mcu9t5v0__addf_1
X_391_ net9 net41 _078_ _080_ _081_ VDD VSS gf180mcu_fd_sc_mcu9t5v0__addf_1
X_392_ net10 net42 _080_ _082_ _083_ VDD VSS gf180mcu_fd_sc_mcu9t5v0__addf_4
X_393_ net11 net43 _082_ _084_ _085_ VDD VSS gf180mcu_fd_sc_mcu9t5v0__addf_1
X_394_ net12 net44 _086_ _033_ _087_ VDD VSS gf180mcu_fd_sc_mcu9t5v0__addf_1
X_395_ net13 net45 _088_ _089_ _090_ VDD VSS gf180mcu_fd_sc_mcu9t5v0__addf_1
X_396_ net14 net46 _089_ _091_ _092_ VDD VSS gf180mcu_fd_sc_mcu9t5v0__addf_1
X_397_ net15 net47 _091_ _093_ _094_ VDD VSS gf180mcu_fd_sc_mcu9t5v0__addf_4
X_398_ net16 net48 _093_ _095_ _096_ VDD VSS gf180mcu_fd_sc_mcu9t5v0__addf_1
X_399_ net17 net49 _097_ _098_ _099_ VDD VSS gf180mcu_fd_sc_mcu9t5v0__addf_1
X_400_ net18 net50 _098_ _100_ _101_ VDD VSS gf180mcu_fd_sc_mcu9t5v0__addf_1
X_401_ net19 net51 _100_ _102_ _103_ VDD VSS gf180mcu_fd_sc_mcu9t5v0__addf_1
X_402_ net20 net52 _102_ _104_ _105_ VDD VSS gf180mcu_fd_sc_mcu9t5v0__addf_1
X_403_ net21 net53 _106_ _107_ _108_ VDD VSS gf180mcu_fd_sc_mcu9t5v0__addf_1
X_404_ net22 net54 _107_ _036_ _109_ VDD VSS gf180mcu_fd_sc_mcu9t5v0__addf_1
X_405_ _060_ _061_ _110_ _111_ VDD VSS gf180mcu_fd_sc_mcu9t5v0__addh_1
X_406_ _112_ _113_ _114_ _115_ VDD VSS gf180mcu_fd_sc_mcu9t5v0__addh_1
X_407_ _116_ _117_ _118_ _119_ VDD VSS gf180mcu_fd_sc_mcu9t5v0__addh_1
X_408_ _120_ _121_ _122_ _123_ VDD VSS gf180mcu_fd_sc_mcu9t5v0__addh_1
X_409_ _124_ _125_ _126_ _127_ VDD VSS gf180mcu_fd_sc_mcu9t5v0__addh_2
X_410_ _128_ _129_ _130_ _131_ VDD VSS gf180mcu_fd_sc_mcu9t5v0__addh_2
X_411_ _132_ _133_ _134_ _135_ VDD VSS gf180mcu_fd_sc_mcu9t5v0__addh_2
X_412_ _136_ _137_ _138_ _139_ VDD VSS gf180mcu_fd_sc_mcu9t5v0__addh_1
X_413_ _140_ _141_ _142_ _143_ VDD VSS gf180mcu_fd_sc_mcu9t5v0__addh_4
X_414_ _144_ _145_ _146_ _147_ VDD VSS gf180mcu_fd_sc_mcu9t5v0__addh_1
X_415_ _148_ _149_ _150_ _151_ VDD VSS gf180mcu_fd_sc_mcu9t5v0__addh_1
X_416_ _152_ _153_ _154_ _155_ VDD VSS gf180mcu_fd_sc_mcu9t5v0__addh_1
X_417_ _156_ _157_ _158_ _159_ VDD VSS gf180mcu_fd_sc_mcu9t5v0__addh_1
X_418_ _160_ _161_ _162_ _163_ VDD VSS gf180mcu_fd_sc_mcu9t5v0__addh_1
X_419_ _164_ _165_ _166_ _167_ VDD VSS gf180mcu_fd_sc_mcu9t5v0__addh_1
X_420_ _168_ _169_ _170_ _171_ VDD VSS gf180mcu_fd_sc_mcu9t5v0__addh_2
X_421_ _172_ _173_ _174_ _175_ VDD VSS gf180mcu_fd_sc_mcu9t5v0__addh_1
X_422_ _176_ _177_ _178_ _179_ VDD VSS gf180mcu_fd_sc_mcu9t5v0__addh_1
X_423_ _180_ _181_ _182_ _183_ VDD VSS gf180mcu_fd_sc_mcu9t5v0__addh_1
X_424_ _184_ _185_ _186_ _187_ VDD VSS gf180mcu_fd_sc_mcu9t5v0__addh_2
X_425_ _188_ _189_ _190_ _191_ VDD VSS gf180mcu_fd_sc_mcu9t5v0__addh_1
X_426_ _192_ _193_ _194_ _195_ VDD VSS gf180mcu_fd_sc_mcu9t5v0__addh_1
X_427_ _196_ _197_ _198_ _199_ VDD VSS gf180mcu_fd_sc_mcu9t5v0__addh_1
X_428_ _200_ _201_ _202_ _203_ VDD VSS gf180mcu_fd_sc_mcu9t5v0__addh_2
X_429_ _204_ _205_ _206_ _207_ VDD VSS gf180mcu_fd_sc_mcu9t5v0__addh_1
X_430_ _208_ _209_ _210_ _211_ VDD VSS gf180mcu_fd_sc_mcu9t5v0__addh_1
X_431_ _212_ _213_ _214_ _215_ VDD VSS gf180mcu_fd_sc_mcu9t5v0__addh_1
X_432_ _216_ _217_ _218_ _219_ VDD VSS gf180mcu_fd_sc_mcu9t5v0__addh_1
X_433_ _220_ _221_ _222_ _223_ VDD VSS gf180mcu_fd_sc_mcu9t5v0__addh_1
X_434_ _224_ _225_ _226_ _227_ VDD VSS gf180mcu_fd_sc_mcu9t5v0__addh_1
X_435_ _228_ _229_ _230_ _231_ VDD VSS gf180mcu_fd_sc_mcu9t5v0__addh_1
X_436_ _039_ _040_ _232_ _233_ VDD VSS gf180mcu_fd_sc_mcu9t5v0__addh_1
XPHY_EDGE_ROW_0_Right_0 VDD VSS gf180mcu_fd_sc_mcu9t5v0__endcap
XPHY_EDGE_ROW_1_Right_1 VDD VSS gf180mcu_fd_sc_mcu9t5v0__endcap
XPHY_EDGE_ROW_2_Right_2 VDD VSS gf180mcu_fd_sc_mcu9t5v0__endcap
XPHY_EDGE_ROW_3_Right_3 VDD VSS gf180mcu_fd_sc_mcu9t5v0__endcap
XPHY_EDGE_ROW_4_Right_4 VDD VSS gf180mcu_fd_sc_mcu9t5v0__endcap
XPHY_EDGE_ROW_5_Right_5 VDD VSS gf180mcu_fd_sc_mcu9t5v0__endcap
XPHY_EDGE_ROW_6_Right_6 VDD VSS gf180mcu_fd_sc_mcu9t5v0__endcap
XPHY_EDGE_ROW_7_Right_7 VDD VSS gf180mcu_fd_sc_mcu9t5v0__endcap
XPHY_EDGE_ROW_8_Right_8 VDD VSS gf180mcu_fd_sc_mcu9t5v0__endcap
XPHY_EDGE_ROW_9_Right_9 VDD VSS gf180mcu_fd_sc_mcu9t5v0__endcap
XPHY_EDGE_ROW_10_Right_10 VDD VSS gf180mcu_fd_sc_mcu9t5v0__endcap
XPHY_EDGE_ROW_11_Right_11 VDD VSS gf180mcu_fd_sc_mcu9t5v0__endcap
XPHY_EDGE_ROW_12_Right_12 VDD VSS gf180mcu_fd_sc_mcu9t5v0__endcap
XPHY_EDGE_ROW_13_Right_13 VDD VSS gf180mcu_fd_sc_mcu9t5v0__endcap
XPHY_EDGE_ROW_14_Right_14 VDD VSS gf180mcu_fd_sc_mcu9t5v0__endcap
XPHY_EDGE_ROW_15_Right_15 VDD VSS gf180mcu_fd_sc_mcu9t5v0__endcap
XPHY_EDGE_ROW_16_Right_16 VDD VSS gf180mcu_fd_sc_mcu9t5v0__endcap
XPHY_EDGE_ROW_17_Right_17 VDD VSS gf180mcu_fd_sc_mcu9t5v0__endcap
XPHY_EDGE_ROW_18_Right_18 VDD VSS gf180mcu_fd_sc_mcu9t5v0__endcap
XPHY_EDGE_ROW_19_Right_19 VDD VSS gf180mcu_fd_sc_mcu9t5v0__endcap
XPHY_EDGE_ROW_20_Right_20 VDD VSS gf180mcu_fd_sc_mcu9t5v0__endcap
XPHY_EDGE_ROW_21_Right_21 VDD VSS gf180mcu_fd_sc_mcu9t5v0__endcap
XPHY_EDGE_ROW_22_Right_22 VDD VSS gf180mcu_fd_sc_mcu9t5v0__endcap
XPHY_EDGE_ROW_23_Right_23 VDD VSS gf180mcu_fd_sc_mcu9t5v0__endcap
XPHY_EDGE_ROW_24_Right_24 VDD VSS gf180mcu_fd_sc_mcu9t5v0__endcap
XPHY_EDGE_ROW_25_Right_25 VDD VSS gf180mcu_fd_sc_mcu9t5v0__endcap
XPHY_EDGE_ROW_26_Right_26 VDD VSS gf180mcu_fd_sc_mcu9t5v0__endcap
XPHY_EDGE_ROW_27_Right_27 VDD VSS gf180mcu_fd_sc_mcu9t5v0__endcap
XPHY_EDGE_ROW_28_Right_28 VDD VSS gf180mcu_fd_sc_mcu9t5v0__endcap
XPHY_EDGE_ROW_29_Right_29 VDD VSS gf180mcu_fd_sc_mcu9t5v0__endcap
XPHY_EDGE_ROW_30_Right_30 VDD VSS gf180mcu_fd_sc_mcu9t5v0__endcap
XPHY_EDGE_ROW_31_Right_31 VDD VSS gf180mcu_fd_sc_mcu9t5v0__endcap
XPHY_EDGE_ROW_32_Right_32 VDD VSS gf180mcu_fd_sc_mcu9t5v0__endcap
XPHY_EDGE_ROW_33_Right_33 VDD VSS gf180mcu_fd_sc_mcu9t5v0__endcap
XPHY_EDGE_ROW_34_Right_34 VDD VSS gf180mcu_fd_sc_mcu9t5v0__endcap
XPHY_EDGE_ROW_35_Right_35 VDD VSS gf180mcu_fd_sc_mcu9t5v0__endcap
XPHY_EDGE_ROW_36_Right_36 VDD VSS gf180mcu_fd_sc_mcu9t5v0__endcap
XPHY_EDGE_ROW_37_Right_37 VDD VSS gf180mcu_fd_sc_mcu9t5v0__endcap
XPHY_EDGE_ROW_38_Right_38 VDD VSS gf180mcu_fd_sc_mcu9t5v0__endcap
XPHY_EDGE_ROW_39_Right_39 VDD VSS gf180mcu_fd_sc_mcu9t5v0__endcap
XPHY_EDGE_ROW_40_Right_40 VDD VSS gf180mcu_fd_sc_mcu9t5v0__endcap
XPHY_EDGE_ROW_41_Right_41 VDD VSS gf180mcu_fd_sc_mcu9t5v0__endcap
XPHY_EDGE_ROW_42_Right_42 VDD VSS gf180mcu_fd_sc_mcu9t5v0__endcap
XPHY_EDGE_ROW_43_Right_43 VDD VSS gf180mcu_fd_sc_mcu9t5v0__endcap
XPHY_EDGE_ROW_44_Right_44 VDD VSS gf180mcu_fd_sc_mcu9t5v0__endcap
XPHY_EDGE_ROW_45_Right_45 VDD VSS gf180mcu_fd_sc_mcu9t5v0__endcap
XPHY_EDGE_ROW_46_Right_46 VDD VSS gf180mcu_fd_sc_mcu9t5v0__endcap
XPHY_EDGE_ROW_47_Right_47 VDD VSS gf180mcu_fd_sc_mcu9t5v0__endcap
XPHY_EDGE_ROW_48_Right_48 VDD VSS gf180mcu_fd_sc_mcu9t5v0__endcap
XPHY_EDGE_ROW_49_Right_49 VDD VSS gf180mcu_fd_sc_mcu9t5v0__endcap
XPHY_EDGE_ROW_50_Right_50 VDD VSS gf180mcu_fd_sc_mcu9t5v0__endcap
XPHY_EDGE_ROW_51_Right_51 VDD VSS gf180mcu_fd_sc_mcu9t5v0__endcap
XPHY_EDGE_ROW_52_Right_52 VDD VSS gf180mcu_fd_sc_mcu9t5v0__endcap
XPHY_EDGE_ROW_53_Right_53 VDD VSS gf180mcu_fd_sc_mcu9t5v0__endcap
XPHY_EDGE_ROW_54_Right_54 VDD VSS gf180mcu_fd_sc_mcu9t5v0__endcap
XPHY_EDGE_ROW_55_Right_55 VDD VSS gf180mcu_fd_sc_mcu9t5v0__endcap
XPHY_EDGE_ROW_56_Right_56 VDD VSS gf180mcu_fd_sc_mcu9t5v0__endcap
XPHY_EDGE_ROW_57_Right_57 VDD VSS gf180mcu_fd_sc_mcu9t5v0__endcap
XPHY_EDGE_ROW_58_Right_58 VDD VSS gf180mcu_fd_sc_mcu9t5v0__endcap
XPHY_EDGE_ROW_59_Right_59 VDD VSS gf180mcu_fd_sc_mcu9t5v0__endcap
XPHY_EDGE_ROW_60_Right_60 VDD VSS gf180mcu_fd_sc_mcu9t5v0__endcap
XPHY_EDGE_ROW_61_Right_61 VDD VSS gf180mcu_fd_sc_mcu9t5v0__endcap
XPHY_EDGE_ROW_62_Right_62 VDD VSS gf180mcu_fd_sc_mcu9t5v0__endcap
XPHY_EDGE_ROW_63_Right_63 VDD VSS gf180mcu_fd_sc_mcu9t5v0__endcap
XPHY_EDGE_ROW_64_Right_64 VDD VSS gf180mcu_fd_sc_mcu9t5v0__endcap
XPHY_EDGE_ROW_65_Right_65 VDD VSS gf180mcu_fd_sc_mcu9t5v0__endcap
XPHY_EDGE_ROW_66_Right_66 VDD VSS gf180mcu_fd_sc_mcu9t5v0__endcap
XPHY_EDGE_ROW_67_Right_67 VDD VSS gf180mcu_fd_sc_mcu9t5v0__endcap
XPHY_EDGE_ROW_68_Right_68 VDD VSS gf180mcu_fd_sc_mcu9t5v0__endcap
XPHY_EDGE_ROW_69_Right_69 VDD VSS gf180mcu_fd_sc_mcu9t5v0__endcap
XPHY_EDGE_ROW_70_Right_70 VDD VSS gf180mcu_fd_sc_mcu9t5v0__endcap
XPHY_EDGE_ROW_71_Right_71 VDD VSS gf180mcu_fd_sc_mcu9t5v0__endcap
XPHY_EDGE_ROW_72_Right_72 VDD VSS gf180mcu_fd_sc_mcu9t5v0__endcap
XPHY_EDGE_ROW_73_Right_73 VDD VSS gf180mcu_fd_sc_mcu9t5v0__endcap
XPHY_EDGE_ROW_74_Right_74 VDD VSS gf180mcu_fd_sc_mcu9t5v0__endcap
XPHY_EDGE_ROW_75_Right_75 VDD VSS gf180mcu_fd_sc_mcu9t5v0__endcap
XPHY_EDGE_ROW_76_Right_76 VDD VSS gf180mcu_fd_sc_mcu9t5v0__endcap
XPHY_EDGE_ROW_77_Right_77 VDD VSS gf180mcu_fd_sc_mcu9t5v0__endcap
XPHY_EDGE_ROW_78_Right_78 VDD VSS gf180mcu_fd_sc_mcu9t5v0__endcap
XPHY_EDGE_ROW_79_Right_79 VDD VSS gf180mcu_fd_sc_mcu9t5v0__endcap
XPHY_EDGE_ROW_80_Right_80 VDD VSS gf180mcu_fd_sc_mcu9t5v0__endcap
XPHY_EDGE_ROW_81_Right_81 VDD VSS gf180mcu_fd_sc_mcu9t5v0__endcap
XPHY_EDGE_ROW_82_Right_82 VDD VSS gf180mcu_fd_sc_mcu9t5v0__endcap
XPHY_EDGE_ROW_83_Right_83 VDD VSS gf180mcu_fd_sc_mcu9t5v0__endcap
XPHY_EDGE_ROW_84_Right_84 VDD VSS gf180mcu_fd_sc_mcu9t5v0__endcap
XPHY_EDGE_ROW_85_Right_85 VDD VSS gf180mcu_fd_sc_mcu9t5v0__endcap
XPHY_EDGE_ROW_86_Right_86 VDD VSS gf180mcu_fd_sc_mcu9t5v0__endcap
XPHY_EDGE_ROW_87_Right_87 VDD VSS gf180mcu_fd_sc_mcu9t5v0__endcap
XPHY_EDGE_ROW_88_Right_88 VDD VSS gf180mcu_fd_sc_mcu9t5v0__endcap
XPHY_EDGE_ROW_89_Right_89 VDD VSS gf180mcu_fd_sc_mcu9t5v0__endcap
XPHY_EDGE_ROW_90_Right_90 VDD VSS gf180mcu_fd_sc_mcu9t5v0__endcap
XPHY_EDGE_ROW_91_Right_91 VDD VSS gf180mcu_fd_sc_mcu9t5v0__endcap
XPHY_EDGE_ROW_92_Right_92 VDD VSS gf180mcu_fd_sc_mcu9t5v0__endcap
XPHY_EDGE_ROW_93_Right_93 VDD VSS gf180mcu_fd_sc_mcu9t5v0__endcap
XPHY_EDGE_ROW_94_Right_94 VDD VSS gf180mcu_fd_sc_mcu9t5v0__endcap
XPHY_EDGE_ROW_95_Right_95 VDD VSS gf180mcu_fd_sc_mcu9t5v0__endcap
XPHY_EDGE_ROW_96_Right_96 VDD VSS gf180mcu_fd_sc_mcu9t5v0__endcap
XPHY_EDGE_ROW_97_Right_97 VDD VSS gf180mcu_fd_sc_mcu9t5v0__endcap
XPHY_EDGE_ROW_98_Right_98 VDD VSS gf180mcu_fd_sc_mcu9t5v0__endcap
XPHY_EDGE_ROW_99_Right_99 VDD VSS gf180mcu_fd_sc_mcu9t5v0__endcap
XPHY_EDGE_ROW_100_Right_100 VDD VSS gf180mcu_fd_sc_mcu9t5v0__endcap
XPHY_EDGE_ROW_101_Right_101 VDD VSS gf180mcu_fd_sc_mcu9t5v0__endcap
XPHY_EDGE_ROW_102_Right_102 VDD VSS gf180mcu_fd_sc_mcu9t5v0__endcap
XPHY_EDGE_ROW_103_Right_103 VDD VSS gf180mcu_fd_sc_mcu9t5v0__endcap
XPHY_EDGE_ROW_104_Right_104 VDD VSS gf180mcu_fd_sc_mcu9t5v0__endcap
XPHY_EDGE_ROW_105_Right_105 VDD VSS gf180mcu_fd_sc_mcu9t5v0__endcap
XPHY_EDGE_ROW_106_Right_106 VDD VSS gf180mcu_fd_sc_mcu9t5v0__endcap
XPHY_EDGE_ROW_107_Right_107 VDD VSS gf180mcu_fd_sc_mcu9t5v0__endcap
XPHY_EDGE_ROW_108_Right_108 VDD VSS gf180mcu_fd_sc_mcu9t5v0__endcap
XPHY_EDGE_ROW_109_Right_109 VDD VSS gf180mcu_fd_sc_mcu9t5v0__endcap
XPHY_EDGE_ROW_110_Right_110 VDD VSS gf180mcu_fd_sc_mcu9t5v0__endcap
XPHY_EDGE_ROW_111_Right_111 VDD VSS gf180mcu_fd_sc_mcu9t5v0__endcap
XPHY_EDGE_ROW_112_Right_112 VDD VSS gf180mcu_fd_sc_mcu9t5v0__endcap
XPHY_EDGE_ROW_113_Right_113 VDD VSS gf180mcu_fd_sc_mcu9t5v0__endcap
XPHY_EDGE_ROW_114_Right_114 VDD VSS gf180mcu_fd_sc_mcu9t5v0__endcap
XPHY_EDGE_ROW_115_Right_115 VDD VSS gf180mcu_fd_sc_mcu9t5v0__endcap
XPHY_EDGE_ROW_116_Right_116 VDD VSS gf180mcu_fd_sc_mcu9t5v0__endcap
XPHY_EDGE_ROW_117_Right_117 VDD VSS gf180mcu_fd_sc_mcu9t5v0__endcap
XPHY_EDGE_ROW_118_Right_118 VDD VSS gf180mcu_fd_sc_mcu9t5v0__endcap
XPHY_EDGE_ROW_119_Right_119 VDD VSS gf180mcu_fd_sc_mcu9t5v0__endcap
XPHY_EDGE_ROW_120_Right_120 VDD VSS gf180mcu_fd_sc_mcu9t5v0__endcap
XPHY_EDGE_ROW_121_Right_121 VDD VSS gf180mcu_fd_sc_mcu9t5v0__endcap
XPHY_EDGE_ROW_122_Right_122 VDD VSS gf180mcu_fd_sc_mcu9t5v0__endcap
XPHY_EDGE_ROW_123_Right_123 VDD VSS gf180mcu_fd_sc_mcu9t5v0__endcap
XPHY_EDGE_ROW_124_Right_124 VDD VSS gf180mcu_fd_sc_mcu9t5v0__endcap
XPHY_EDGE_ROW_125_Right_125 VDD VSS gf180mcu_fd_sc_mcu9t5v0__endcap
XPHY_EDGE_ROW_126_Right_126 VDD VSS gf180mcu_fd_sc_mcu9t5v0__endcap
XPHY_EDGE_ROW_127_Right_127 VDD VSS gf180mcu_fd_sc_mcu9t5v0__endcap
XPHY_EDGE_ROW_128_Right_128 VDD VSS gf180mcu_fd_sc_mcu9t5v0__endcap
XPHY_EDGE_ROW_129_Right_129 VDD VSS gf180mcu_fd_sc_mcu9t5v0__endcap
XPHY_EDGE_ROW_130_Right_130 VDD VSS gf180mcu_fd_sc_mcu9t5v0__endcap
XPHY_EDGE_ROW_131_Right_131 VDD VSS gf180mcu_fd_sc_mcu9t5v0__endcap
XPHY_EDGE_ROW_132_Right_132 VDD VSS gf180mcu_fd_sc_mcu9t5v0__endcap
XPHY_EDGE_ROW_133_Right_133 VDD VSS gf180mcu_fd_sc_mcu9t5v0__endcap
XPHY_EDGE_ROW_134_Right_134 VDD VSS gf180mcu_fd_sc_mcu9t5v0__endcap
XPHY_EDGE_ROW_135_Right_135 VDD VSS gf180mcu_fd_sc_mcu9t5v0__endcap
XPHY_EDGE_ROW_136_Right_136 VDD VSS gf180mcu_fd_sc_mcu9t5v0__endcap
XPHY_EDGE_ROW_137_Right_137 VDD VSS gf180mcu_fd_sc_mcu9t5v0__endcap
XPHY_EDGE_ROW_138_Right_138 VDD VSS gf180mcu_fd_sc_mcu9t5v0__endcap
XPHY_EDGE_ROW_139_Right_139 VDD VSS gf180mcu_fd_sc_mcu9t5v0__endcap
XPHY_EDGE_ROW_140_Right_140 VDD VSS gf180mcu_fd_sc_mcu9t5v0__endcap
XPHY_EDGE_ROW_141_Right_141 VDD VSS gf180mcu_fd_sc_mcu9t5v0__endcap
XPHY_EDGE_ROW_142_Right_142 VDD VSS gf180mcu_fd_sc_mcu9t5v0__endcap
XPHY_EDGE_ROW_143_Right_143 VDD VSS gf180mcu_fd_sc_mcu9t5v0__endcap
XPHY_EDGE_ROW_144_Right_144 VDD VSS gf180mcu_fd_sc_mcu9t5v0__endcap
XPHY_EDGE_ROW_145_Right_145 VDD VSS gf180mcu_fd_sc_mcu9t5v0__endcap
XPHY_EDGE_ROW_146_Right_146 VDD VSS gf180mcu_fd_sc_mcu9t5v0__endcap
XPHY_EDGE_ROW_147_Right_147 VDD VSS gf180mcu_fd_sc_mcu9t5v0__endcap
XPHY_EDGE_ROW_148_Right_148 VDD VSS gf180mcu_fd_sc_mcu9t5v0__endcap
XPHY_EDGE_ROW_149_Right_149 VDD VSS gf180mcu_fd_sc_mcu9t5v0__endcap
XPHY_EDGE_ROW_150_Right_150 VDD VSS gf180mcu_fd_sc_mcu9t5v0__endcap
XPHY_EDGE_ROW_151_Right_151 VDD VSS gf180mcu_fd_sc_mcu9t5v0__endcap
XPHY_EDGE_ROW_152_Right_152 VDD VSS gf180mcu_fd_sc_mcu9t5v0__endcap
XPHY_EDGE_ROW_153_Right_153 VDD VSS gf180mcu_fd_sc_mcu9t5v0__endcap
XPHY_EDGE_ROW_154_Right_154 VDD VSS gf180mcu_fd_sc_mcu9t5v0__endcap
XPHY_EDGE_ROW_155_Right_155 VDD VSS gf180mcu_fd_sc_mcu9t5v0__endcap
XPHY_EDGE_ROW_156_Right_156 VDD VSS gf180mcu_fd_sc_mcu9t5v0__endcap
XPHY_EDGE_ROW_157_Right_157 VDD VSS gf180mcu_fd_sc_mcu9t5v0__endcap
XPHY_EDGE_ROW_158_Right_158 VDD VSS gf180mcu_fd_sc_mcu9t5v0__endcap
XPHY_EDGE_ROW_159_Right_159 VDD VSS gf180mcu_fd_sc_mcu9t5v0__endcap
XPHY_EDGE_ROW_160_Right_160 VDD VSS gf180mcu_fd_sc_mcu9t5v0__endcap
XPHY_EDGE_ROW_161_Right_161 VDD VSS gf180mcu_fd_sc_mcu9t5v0__endcap
XPHY_EDGE_ROW_162_Right_162 VDD VSS gf180mcu_fd_sc_mcu9t5v0__endcap
XPHY_EDGE_ROW_163_Right_163 VDD VSS gf180mcu_fd_sc_mcu9t5v0__endcap
XPHY_EDGE_ROW_164_Right_164 VDD VSS gf180mcu_fd_sc_mcu9t5v0__endcap
XPHY_EDGE_ROW_165_Right_165 VDD VSS gf180mcu_fd_sc_mcu9t5v0__endcap
XPHY_EDGE_ROW_166_Right_166 VDD VSS gf180mcu_fd_sc_mcu9t5v0__endcap
XPHY_EDGE_ROW_167_Right_167 VDD VSS gf180mcu_fd_sc_mcu9t5v0__endcap
XPHY_EDGE_ROW_168_Right_168 VDD VSS gf180mcu_fd_sc_mcu9t5v0__endcap
XPHY_EDGE_ROW_169_Right_169 VDD VSS gf180mcu_fd_sc_mcu9t5v0__endcap
XPHY_EDGE_ROW_170_Right_170 VDD VSS gf180mcu_fd_sc_mcu9t5v0__endcap
XPHY_EDGE_ROW_171_Right_171 VDD VSS gf180mcu_fd_sc_mcu9t5v0__endcap
XPHY_EDGE_ROW_172_Right_172 VDD VSS gf180mcu_fd_sc_mcu9t5v0__endcap
XPHY_EDGE_ROW_173_Right_173 VDD VSS gf180mcu_fd_sc_mcu9t5v0__endcap
XPHY_EDGE_ROW_174_Right_174 VDD VSS gf180mcu_fd_sc_mcu9t5v0__endcap
XPHY_EDGE_ROW_175_Right_175 VDD VSS gf180mcu_fd_sc_mcu9t5v0__endcap
XPHY_EDGE_ROW_176_Right_176 VDD VSS gf180mcu_fd_sc_mcu9t5v0__endcap
XPHY_EDGE_ROW_177_Right_177 VDD VSS gf180mcu_fd_sc_mcu9t5v0__endcap
XPHY_EDGE_ROW_178_Right_178 VDD VSS gf180mcu_fd_sc_mcu9t5v0__endcap
XPHY_EDGE_ROW_179_Right_179 VDD VSS gf180mcu_fd_sc_mcu9t5v0__endcap
XPHY_EDGE_ROW_180_Right_180 VDD VSS gf180mcu_fd_sc_mcu9t5v0__endcap
XPHY_EDGE_ROW_181_Right_181 VDD VSS gf180mcu_fd_sc_mcu9t5v0__endcap
XPHY_EDGE_ROW_182_Right_182 VDD VSS gf180mcu_fd_sc_mcu9t5v0__endcap
XPHY_EDGE_ROW_183_Right_183 VDD VSS gf180mcu_fd_sc_mcu9t5v0__endcap
XPHY_EDGE_ROW_184_Right_184 VDD VSS gf180mcu_fd_sc_mcu9t5v0__endcap
XPHY_EDGE_ROW_185_Right_185 VDD VSS gf180mcu_fd_sc_mcu9t5v0__endcap
XPHY_EDGE_ROW_186_Right_186 VDD VSS gf180mcu_fd_sc_mcu9t5v0__endcap
XPHY_EDGE_ROW_187_Right_187 VDD VSS gf180mcu_fd_sc_mcu9t5v0__endcap
XPHY_EDGE_ROW_188_Right_188 VDD VSS gf180mcu_fd_sc_mcu9t5v0__endcap
XPHY_EDGE_ROW_189_Right_189 VDD VSS gf180mcu_fd_sc_mcu9t5v0__endcap
XPHY_EDGE_ROW_190_Right_190 VDD VSS gf180mcu_fd_sc_mcu9t5v0__endcap
XPHY_EDGE_ROW_191_Right_191 VDD VSS gf180mcu_fd_sc_mcu9t5v0__endcap
XPHY_EDGE_ROW_192_Right_192 VDD VSS gf180mcu_fd_sc_mcu9t5v0__endcap
XPHY_EDGE_ROW_193_Right_193 VDD VSS gf180mcu_fd_sc_mcu9t5v0__endcap
XPHY_EDGE_ROW_194_Right_194 VDD VSS gf180mcu_fd_sc_mcu9t5v0__endcap
XPHY_EDGE_ROW_195_Right_195 VDD VSS gf180mcu_fd_sc_mcu9t5v0__endcap
XPHY_EDGE_ROW_196_Right_196 VDD VSS gf180mcu_fd_sc_mcu9t5v0__endcap
XPHY_EDGE_ROW_197_Right_197 VDD VSS gf180mcu_fd_sc_mcu9t5v0__endcap
XPHY_EDGE_ROW_198_Right_198 VDD VSS gf180mcu_fd_sc_mcu9t5v0__endcap
XPHY_EDGE_ROW_199_Right_199 VDD VSS gf180mcu_fd_sc_mcu9t5v0__endcap
XPHY_EDGE_ROW_200_Right_200 VDD VSS gf180mcu_fd_sc_mcu9t5v0__endcap
XPHY_EDGE_ROW_201_Right_201 VDD VSS gf180mcu_fd_sc_mcu9t5v0__endcap
XPHY_EDGE_ROW_202_Right_202 VDD VSS gf180mcu_fd_sc_mcu9t5v0__endcap
XPHY_EDGE_ROW_203_Right_203 VDD VSS gf180mcu_fd_sc_mcu9t5v0__endcap
XPHY_EDGE_ROW_204_Right_204 VDD VSS gf180mcu_fd_sc_mcu9t5v0__endcap
XPHY_EDGE_ROW_205_Right_205 VDD VSS gf180mcu_fd_sc_mcu9t5v0__endcap
XPHY_EDGE_ROW_206_Right_206 VDD VSS gf180mcu_fd_sc_mcu9t5v0__endcap
XPHY_EDGE_ROW_207_Right_207 VDD VSS gf180mcu_fd_sc_mcu9t5v0__endcap
XPHY_EDGE_ROW_208_Right_208 VDD VSS gf180mcu_fd_sc_mcu9t5v0__endcap
XPHY_EDGE_ROW_209_Right_209 VDD VSS gf180mcu_fd_sc_mcu9t5v0__endcap
XPHY_EDGE_ROW_210_Right_210 VDD VSS gf180mcu_fd_sc_mcu9t5v0__endcap
XPHY_EDGE_ROW_211_Right_211 VDD VSS gf180mcu_fd_sc_mcu9t5v0__endcap
XPHY_EDGE_ROW_212_Right_212 VDD VSS gf180mcu_fd_sc_mcu9t5v0__endcap
XPHY_EDGE_ROW_213_Right_213 VDD VSS gf180mcu_fd_sc_mcu9t5v0__endcap
XPHY_EDGE_ROW_214_Right_214 VDD VSS gf180mcu_fd_sc_mcu9t5v0__endcap
XPHY_EDGE_ROW_215_Right_215 VDD VSS gf180mcu_fd_sc_mcu9t5v0__endcap
XPHY_EDGE_ROW_216_Right_216 VDD VSS gf180mcu_fd_sc_mcu9t5v0__endcap
XPHY_EDGE_ROW_217_Right_217 VDD VSS gf180mcu_fd_sc_mcu9t5v0__endcap
XPHY_EDGE_ROW_218_Right_218 VDD VSS gf180mcu_fd_sc_mcu9t5v0__endcap
XPHY_EDGE_ROW_219_Right_219 VDD VSS gf180mcu_fd_sc_mcu9t5v0__endcap
XPHY_EDGE_ROW_220_Right_220 VDD VSS gf180mcu_fd_sc_mcu9t5v0__endcap
XPHY_EDGE_ROW_221_Right_221 VDD VSS gf180mcu_fd_sc_mcu9t5v0__endcap
XPHY_EDGE_ROW_222_Right_222 VDD VSS gf180mcu_fd_sc_mcu9t5v0__endcap
XPHY_EDGE_ROW_223_Right_223 VDD VSS gf180mcu_fd_sc_mcu9t5v0__endcap
XPHY_EDGE_ROW_224_Right_224 VDD VSS gf180mcu_fd_sc_mcu9t5v0__endcap
XPHY_EDGE_ROW_225_Right_225 VDD VSS gf180mcu_fd_sc_mcu9t5v0__endcap
XPHY_EDGE_ROW_226_Right_226 VDD VSS gf180mcu_fd_sc_mcu9t5v0__endcap
XPHY_EDGE_ROW_227_Right_227 VDD VSS gf180mcu_fd_sc_mcu9t5v0__endcap
XPHY_EDGE_ROW_0_Left_228 VDD VSS gf180mcu_fd_sc_mcu9t5v0__endcap
XPHY_EDGE_ROW_1_Left_229 VDD VSS gf180mcu_fd_sc_mcu9t5v0__endcap
XPHY_EDGE_ROW_2_Left_230 VDD VSS gf180mcu_fd_sc_mcu9t5v0__endcap
XPHY_EDGE_ROW_3_Left_231 VDD VSS gf180mcu_fd_sc_mcu9t5v0__endcap
XPHY_EDGE_ROW_4_Left_232 VDD VSS gf180mcu_fd_sc_mcu9t5v0__endcap
XPHY_EDGE_ROW_5_Left_233 VDD VSS gf180mcu_fd_sc_mcu9t5v0__endcap