
* cell configurable_mult
* pin product[13]
* pin product[14]
* pin sign_mode
* pin product[12]
* pin product[10]
* pin product[9]
* pin product[8]
* pin product[7]
* pin product[11]
* pin product[6]
* pin product[15]
* pin a[0]
* pin b[6]
* pin b[3]
* pin b[5]
* pin b[4]
* pin product[5]
* pin b[7]
* pin a[6]
* pin product[4]
* pin a[4]
* pin a[2]
* pin a[3]
* pin a[7]
* pin a[1]
* pin b[1]
* pin b[2]
* pin b[0]
* pin product[0]
* pin product[1]
* pin product[2]
* pin a[5]
* pin product[3]
.SUBCKT configurable_mult 1 2 3 4 5 6 7 8 9 68 179 273 298 332 333 345 437 452
+ 472 504 542 555 556 561 562 563 564 566 567 568 569 570 571
* net 1 product[13]
* net 2 product[14]
* net 3 sign_mode
* net 4 product[12]
* net 5 product[10]
* net 6 product[9]
* net 7 product[8]
* net 8 product[7]
* net 9 product[11]
* net 68 product[6]
* net 179 product[15]
* net 273 a[0]
* net 298 b[6]
* net 332 b[3]
* net 333 b[5]
* net 345 b[4]
* net 437 product[5]
* net 452 b[7]
* net 472 a[6]
* net 504 product[4]
* net 542 a[4]
* net 555 a[2]
* net 556 a[3]
* net 561 a[7]
* net 562 a[1]
* net 563 b[1]
* net 564 b[2]
* net 566 b[0]
* net 567 product[0]
* net 568 product[1]
* net 569 product[2]
* net 570 a[5]
* net 571 product[3]
* cell instance $3 r0 *1 17.02,2.72
X$3 26 32 1 12 26 12 sky130_fd_sc_hd__clkbuf_1
* cell instance $6 r0 *1 15.64,2.72
X$6 26 30 2 12 26 12 sky130_fd_sc_hd__clkbuf_1
* cell instance $9 r0 *1 21.62,2.72
X$9 12 10 3 26 26 12 sky130_fd_sc_hd__dlymetal6s2s_1
* cell instance $11 r0 *1 27.6,2.72
X$11 26 36 4 12 26 12 sky130_fd_sc_hd__clkbuf_1
* cell instance $15 r0 *1 32.2,2.72
X$15 26 37 5 12 26 12 sky130_fd_sc_hd__clkbuf_1
* cell instance $18 r0 *1 46.46,2.72
X$18 26 35 6 12 26 12 sky130_fd_sc_hd__clkbuf_1
* cell instance $21 r0 *1 66.7,2.72
X$21 26 23 7 12 26 12 sky130_fd_sc_hd__clkbuf_1
* cell instance $24 r0 *1 68.08,2.72
X$24 26 24 8 12 26 12 sky130_fd_sc_hd__clkbuf_1
* cell instance $27 r0 *1 40.94,2.72
X$27 26 38 9 12 26 12 sky130_fd_sc_hd__clkbuf_1
* cell instance $35 m0 *1 44.16,8.16
X$35 26 10 34 63 20 26 12 12 sky130_fd_sc_hd__or3_1
* cell instance $38 r0 *1 9.2,2.72
X$38 26 10 13 25 12 26 12 sky130_fd_sc_hd__nor2_1
* cell instance $40 r0 *1 11.5,2.72
X$40 26 27 10 13 29 12 26 12 sky130_fd_sc_hd__nor3b_1
* cell instance $42 r0 *1 18.4,2.72
X$42 26 10 12 11 26 12 sky130_fd_sc_hd__clkbuf_4
* cell instance $44 m0 *1 19.32,8.16
X$44 26 10 26 12 18 12 sky130_fd_sc_hd__inv_1
* cell instance $53 m0 *1 63.94,8.16
X$53 12 48 67 65 11 26 26 12 sky130_fd_sc_hd__mux2i_1
* cell instance $55 r0 *1 63.48,2.72
X$55 26 11 31 15 12 26 12 sky130_fd_sc_hd__nor2_1
* cell instance $57 r0 *1 64.86,2.72
X$57 26 15 11 96 12 26 23 12 sky130_fd_sc_hd__a21oi_1
* cell instance $60 m0 *1 33.12,8.16
X$60 26 76 11 123 12 26 37 12 sky130_fd_sc_hd__a21oi_1
* cell instance $63 r0 *1 33.58,2.72
X$63 26 11 19 78 12 26 76 12 sky130_fd_sc_hd__a21oi_1
* cell instance $65 r0 *1 39.56,13.6
X$65 26 147 146 11 26 50 12 12 sky130_fd_sc_hd__o21ai_0
* cell instance $70 m0 *1 4.6,19.04
X$70 12 171 135 186 11 26 26 12 sky130_fd_sc_hd__mux2i_1
* cell instance $72 m0 *1 7.82,8.16
X$72 26 11 16 13 39 12 26 12 sky130_fd_sc_hd__nor3_1
* cell instance $75 r0 *1 11.96,13.6
X$75 26 11 116 137 26 12 12 sky130_fd_sc_hd__nand2_1
* cell instance $77 r0 *1 13.34,13.6
X$77 26 11 117 138 26 12 12 sky130_fd_sc_hd__nand2_1
* cell instance $109 r0 *1 51.52,2.72
X$109 26 14 21 33 26 75 12 12 sky130_fd_sc_hd__o21ai_0
* cell instance $133 m0 *1 6.44,8.16
X$133 26 53 26 12 16 12 sky130_fd_sc_hd__inv_1
* cell instance $134 m0 *1 9.66,8.16
X$134 26 27 25 54 26 12 12 sky130_fd_sc_hd__nand2_1
* cell instance $135 m0 *1 11.04,8.16
X$135 26 69 16 29 12 26 28 12 sky130_fd_sc_hd__a21oi_1
* cell instance $137 m0 *1 13.34,8.16
X$137 12 72 29 39 17 26 26 12 sky130_fd_sc_hd__mux2i_1
* cell instance $138 m0 *1 17.02,8.16
X$138 26 18 140 99 26 32 12 12 sky130_fd_sc_hd__o21ai_0
* cell instance $140 m0 *1 20.7,8.16
X$140 26 19 73 40 26 17 12 12 sky130_fd_sc_hd__o21ai_0
* cell instance $141 m0 *1 22.54,8.16
X$141 26 104 56 74 12 26 40 12 sky130_fd_sc_hd__a21oi_1
* cell instance $144 m0 *1 25.76,8.16
X$144 26 59 56 26 52 12 12 sky130_fd_sc_hd__xor2_1
* cell instance $146 m0 *1 29.44,8.16
X$146 12 36 41 52 18 26 26 12 sky130_fd_sc_hd__mux2i_1
* cell instance $148 m0 *1 35.42,8.16
X$148 26 81 60 51 12 26 12 sky130_fd_sc_hd__nand2b_1
* cell instance $149 m0 *1 37.72,8.16
X$149 26 51 42 43 26 12 12 sky130_fd_sc_hd__xnor2_1
* cell instance $150 m0 *1 40.94,8.16
X$150 26 50 18 43 12 26 38 12 sky130_fd_sc_hd__a21boi_0
* cell instance $152 m0 *1 46.46,8.16
X$152 26 18 80 20 26 35 12 12 sky130_fd_sc_hd__o21ai_0
* cell instance $154 m0 *1 50.14,8.16
X$154 26 44 46 77 12 26 12 sky130_fd_sc_hd__nand2b_1
* cell instance $155 m0 *1 52.44,8.16
X$155 26 75 44 45 12 26 34 12 sky130_fd_sc_hd__a21oi_1
* cell instance $156 m0 *1 54.28,8.16
X$156 26 66 65 22 12 26 12 sky130_fd_sc_hd__nor2b_1
* cell instance $158 m0 *1 57.04,8.16
X$158 26 46 21 45 12 26 12 sky130_fd_sc_hd__nor2_1
* cell instance $159 m0 *1 58.42,8.16
X$159 26 67 66 44 12 26 12 sky130_fd_sc_hd__nand2b_1
* cell instance $160 m0 *1 60.72,8.16
X$160 26 47 14 31 26 12 12 sky130_fd_sc_hd__xnor2_1
* cell instance $161 m0 *1 67.62,8.16
X$161 26 48 66 26 24 12 12 sky130_fd_sc_hd__xor2_1
* cell instance $163 m0 *1 74.52,8.16
X$163 26 71 26 12 70 12 sky130_fd_sc_hd__inv_1
* cell instance $167 m0 *1 79.12,8.16
X$167 26 49 68 12 26 12 sky130_fd_sc_hd__clkbuf_1
* cell instance $169 r0 *1 5.06,8.16
X$169 26 55 53 84 26 12 12 sky130_fd_sc_hd__xnor2_1
* cell instance $172 r0 *1 10.58,8.16
X$172 26 18 97 54 26 69 12 12 sky130_fd_sc_hd__o21ai_0
* cell instance $174 r0 *1 13.34,8.16
X$174 26 18 84 99 26 12 12 sky130_fd_sc_hd__nand2_1
* cell instance $180 r0 *1 15.64,8.16
X$180 26 28 159 72 30 26 12 12 sky130_fd_sc_hd__nand3_1
* cell instance $183 r0 *1 20.24,8.16
X$183 26 42 56 73 26 12 12 sky130_fd_sc_hd__nand2_1
* cell instance $184 r0 *1 21.62,8.16
X$184 26 57 73 85 26 86 12 12 sky130_fd_sc_hd__o21ai_0
* cell instance $185 r0 *1 23.46,8.16
X$185 26 34 86 101 26 12 55 12 sky130_fd_sc_hd__o21ai_1
* cell instance $186 r0 *1 25.3,8.16
X$186 26 42 60 58 12 26 74 12 sky130_fd_sc_hd__a21o_1
* cell instance $187 r0 *1 28.06,8.16
X$187 26 58 42 102 12 26 59 12 sky130_fd_sc_hd__a21oi_1
* cell instance $188 r0 *1 29.9,8.16
X$188 26 88 60 57 12 26 12 sky130_fd_sc_hd__nor2_1
* cell instance $190 r0 *1 32.2,8.16
X$190 26 88 61 19 26 12 12 sky130_fd_sc_hd__nand2_1
* cell instance $191 r0 *1 33.58,8.16
X$191 26 61 88 78 12 26 12 sky130_fd_sc_hd__or2_0
* cell instance $192 r0 *1 35.88,8.16
X$192 26 62 34 88 26 81 12 12 sky130_fd_sc_hd__o21ai_0
* cell instance $202 r0 *1 44.62,8.16
X$202 26 79 89 80 26 12 12 sky130_fd_sc_hd__xnor2_1
* cell instance $203 r0 *1 47.84,8.16
X$203 26 64 103 79 12 26 12 sky130_fd_sc_hd__nand2b_1
* cell instance $204 r0 *1 50.14,8.16
X$204 26 90 22 100 26 64 12 12 sky130_fd_sc_hd__o21ai_0
* cell instance $205 r0 *1 51.98,8.16
X$205 26 77 14 33 21 12 63 26 12 sky130_fd_sc_hd__a211oi_1
* cell instance $208 r0 *1 57.5,8.16
X$208 26 14 33 46 114 26 12 12 sky130_fd_sc_hd__nand3_1
* cell instance $209 r0 *1 59.34,8.16
X$209 26 14 33 67 113 26 12 12 sky130_fd_sc_hd__nand3_1
* cell instance $211 r0 *1 62.1,8.16
X$211 26 46 67 92 12 26 47 12 sky130_fd_sc_hd__a21oi_1
* cell instance $212 r0 *1 63.94,8.16
X$212 26 98 100 26 96 12 12 sky130_fd_sc_hd__xor2_1
* cell instance $221 r0 *1 71.76,8.16
X$221 12 66 94 95 70 121 26 26 12 sky130_fd_sc_hd__fa_1
* cell instance $222 r0 *1 79.12,8.16
X$222 26 94 49 12 26 12 sky130_fd_sc_hd__clkbuf_1
* cell instance $224 m0 *1 3.22,13.6
X$224 26 53 13 82 26 12 12 sky130_fd_sc_hd__nand2_1
* cell instance $225 m0 *1 4.6,13.6
X$225 26 55 82 83 26 108 12 12 sky130_fd_sc_hd__o21ai_0
* cell instance $226 m0 *1 6.44,13.6
X$226 26 122 13 27 12 26 83 12 sky130_fd_sc_hd__a21oi_1
* cell instance $230 m0 *1 17.48,13.6
X$230 12 56 104 267 208 26 26 12 sky130_fd_sc_hd__ha_1
* cell instance $232 m0 *1 23.92,13.6
X$232 26 104 56 58 12 26 85 12 sky130_fd_sc_hd__a21oi_1
* cell instance $233 m0 *1 25.76,13.6
X$233 26 87 85 101 26 12 12 sky130_fd_sc_hd__nand2_1
* cell instance $237 m0 *1 30.36,13.6
X$237 26 88 61 60 12 26 102 12 sky130_fd_sc_hd__a21o_1
* cell instance $238 m0 *1 33.12,13.6
X$238 26 60 62 87 12 26 12 sky130_fd_sc_hd__nor2_1
* cell instance $240 m0 *1 36.34,13.6
X$240 12 88 60 148 112 26 26 12 sky130_fd_sc_hd__ha_1
* cell instance $243 m0 *1 45.08,13.6
X$243 12 119 90 89 100 22 26 26 12 sky130_fd_sc_hd__o211ai_2
* cell instance $244 m0 *1 49.68,13.6
X$244 26 100 89 90 115 26 12 12 sky130_fd_sc_hd__nand3_1
* cell instance $245 m0 *1 51.52,13.6
X$245 26 89 103 144 26 12 12 sky130_fd_sc_hd__nand2_1
* cell instance $247 m0 *1 53.36,13.6
X$247 26 62 26 12 105 12 sky130_fd_sc_hd__inv_1
* cell instance $249 m0 *1 55.2,13.6
X$249 26 33 21 91 26 12 12 sky130_fd_sc_hd__nand2_1
* cell instance $251 m0 *1 57.04,13.6
X$251 12 105 61 114 91 113 106 26 26 12 sky130_fd_sc_hd__o2111ai_2
* cell instance $254 m0 *1 63.94,13.6
X$254 26 90 65 92 12 26 98 12 sky130_fd_sc_hd__a21oi_1
* cell instance $255 m0 *1 65.78,13.6
X$255 12 67 46 110 111 26 26 12 sky130_fd_sc_hd__ha_1
* cell instance $257 m0 *1 70.84,13.6
X$257 26 71 109 93 12 26 92 12 sky130_fd_sc_hd__a21o_1
* cell instance $258 m0 *1 73.6,13.6
X$258 26 71 93 109 26 106 12 12 sky130_fd_sc_hd__a21oi_2
* cell instance $259 m0 *1 76.82,13.6
X$259 26 107 26 12 95 12 sky130_fd_sc_hd__inv_1
* cell instance $264 r0 *1 2.76,13.6
X$264 12 13 122 133 132 26 26 12 sky130_fd_sc_hd__ha_1
* cell instance $265 r0 *1 7.36,13.6
X$265 26 108 189 135 26 12 12 sky130_fd_sc_hd__xnor2_1
* cell instance $266 r0 *1 10.58,13.6
X$266 26 116 26 12 136 12 sky130_fd_sc_hd__inv_1
* cell instance $272 r0 *1 15.64,13.6
X$272 26 195 117 26 140 12 12 sky130_fd_sc_hd__xor2_1
* cell instance $276 r0 *1 24.84,13.6
X$276 12 42 58 142 141 26 26 12 sky130_fd_sc_hd__ha_1
* cell instance $278 r0 *1 30.36,13.6
X$278 26 126 26 12 141 12 sky130_fd_sc_hd__inv_1
* cell instance $279 r0 *1 31.74,13.6
X$279 26 127 118 123 26 12 12 sky130_fd_sc_hd__xnor2_1
* cell instance $280 r0 *1 34.96,13.6
X$280 26 119 128 124 26 12 12 sky130_fd_sc_hd__nand2_1
* cell instance $281 r0 *1 36.34,13.6
X$281 26 124 118 154 129 12 146 26 12 sky130_fd_sc_hd__a211oi_1
* cell instance $291 r0 *1 47.38,13.6
X$291 12 145 143 127 115 144 106 26 26 12 sky130_fd_sc_hd__o2111ai_4
* cell instance $293 r0 *1 58.88,13.6
X$293 12 14 21 130 139 26 26 12 sky130_fd_sc_hd__ha_1
* cell instance $296 r0 *1 65.78,13.6
X$296 12 65 90 134 111 26 26 12 sky130_fd_sc_hd__ha_1
* cell instance $302 r0 *1 72.68,13.6
X$302 12 109 93 107 120 26 26 12 sky130_fd_sc_hd__ha_1
* cell instance $303 r0 *1 77.28,13.6
X$303 26 120 26 12 121 12 sky130_fd_sc_hd__inv_1
* cell instance $310 m0 *1 9.66,19.04
X$310 26 149 136 150 12 26 97 12 sky130_fd_sc_hd__a21oi_1
* cell instance $311 m0 *1 11.5,19.04
X$311 26 117 136 150 149 12 26 12 sky130_fd_sc_hd__nor3_1
* cell instance $312 m0 *1 13.34,19.04
X$312 26 116 138 158 12 26 12 sky130_fd_sc_hd__nor2_1
* cell instance $313 m0 *1 14.72,19.04
X$313 26 150 137 151 12 26 12 sky130_fd_sc_hd__nor2_1
* cell instance $315 m0 *1 17.02,19.04
X$315 12 159 151 158 162 26 26 12 sky130_fd_sc_hd__mux2i_1
* cell instance $318 m0 *1 23.46,19.04
X$318 26 125 152 162 26 12 12 sky130_fd_sc_hd__nand2_1
* cell instance $319 m0 *1 24.84,19.04
X$319 26 176 153 26 41 12 12 sky130_fd_sc_hd__xor2_1
* cell instance $322 m0 *1 29.44,19.04
X$322 26 153 118 154 127 26 125 12 12 sky130_fd_sc_hd__nand4_1
* cell instance $324 m0 *1 33.58,19.04
X$324 26 129 26 12 163 12 sky130_fd_sc_hd__inv_1
* cell instance $325 m0 *1 34.96,19.04
X$325 12 147 128 119 163 178 26 26 12 sky130_fd_sc_hd__a31oi_2
* cell instance $326 m0 *1 39.56,19.04
X$326 26 161 26 12 148 12 sky130_fd_sc_hd__inv_1
* cell instance $328 m0 *1 42.78,19.04
X$328 26 160 26 12 112 12 sky130_fd_sc_hd__inv_1
* cell instance $331 m0 *1 45.54,19.04
X$331 26 155 89 103 12 26 128 12 sky130_fd_sc_hd__a21oi_1
* cell instance $332 m0 *1 47.38,19.04
X$332 26 155 26 12 145 12 sky130_fd_sc_hd__inv_1
* cell instance $334 m0 *1 49.68,19.04
X$334 12 33 62 157 196 26 26 12 sky130_fd_sc_hd__ha_1
* cell instance $335 m0 *1 54.28,19.04
X$335 26 100 89 65 143 26 12 12 sky130_fd_sc_hd__nand3_1
* cell instance $340 m0 *1 61.64,19.04
X$340 26 156 26 12 139 12 sky130_fd_sc_hd__inv_1
* cell instance $341 m0 *1 63.02,19.04
X$341 12 100 103 131 174 26 26 12 sky130_fd_sc_hd__ha_1
* cell instance $343 m0 *1 68.54,19.04
X$343 12 131 134 169 170 191 26 26 12 sky130_fd_sc_hd__fa_1
* cell instance $347 r0 *1 2.3,19.04
X$347 26 171 179 12 26 12 sky130_fd_sc_hd__clkbuf_1
* cell instance $349 r0 *1 4.14,19.04
X$349 26 188 164 186 26 12 12 sky130_fd_sc_hd__xnor2_1
* cell instance $352 r0 *1 9.66,19.04
X$352 12 164 190 165 147 180 150 26 26 12 sky130_fd_sc_hd__o41ai_1
* cell instance $361 r0 *1 17.94,19.04
X$361 26 147 165 182 153 195 12 26 12 sky130_fd_sc_hd__o22ai_1
* cell instance $362 r0 *1 20.24,19.04
X$362 26 182 175 165 12 26 12 sky130_fd_sc_hd__or2_0
* cell instance $365 r0 *1 26.68,19.04
X$365 26 175 154 177 12 26 176 12 sky130_fd_sc_hd__a21oi_1
* cell instance $367 r0 *1 29.44,19.04
X$367 26 118 127 129 12 26 177 12 sky130_fd_sc_hd__a21o_1
* cell instance $370 r0 *1 36.8,19.04
X$370 26 118 129 154 26 178 12 12 sky130_fd_sc_hd__o21ai_0
* cell instance $380 r0 *1 46.46,19.04
X$380 12 89 155 166 197 26 26 12 sky130_fd_sc_hd__ha_1
* cell instance $383 r0 *1 52.44,19.04
X$383 26 167 26 12 166 12 sky130_fd_sc_hd__inv_1
* cell instance $387 r0 *1 57.04,19.04
X$387 12 167 173 168 193 194 26 26 12 sky130_fd_sc_hd__fa_1
* cell instance $388 r0 *1 64.4,19.04
X$388 26 173 26 12 174 12 sky130_fd_sc_hd__inv_1
* cell instance $391 r0 *1 67.16,19.04
X$391 26 172 26 12 168 12 sky130_fd_sc_hd__inv_1
* cell instance $397 r0 *1 70.84,19.04
X$397 12 130 110 169 185 170 26 26 12 sky130_fd_sc_hd__fa_1
* cell instance $402 m0 *1 4.14,24.48
X$402 12 133 189 277 187 26 26 12 sky130_fd_sc_hd__ha_1
* cell instance $404 m0 *1 9.66,24.48
X$404 26 181 180 190 12 26 12 sky130_fd_sc_hd__nand2b_1
* cell instance $406 m0 *1 12.88,24.48
X$406 26 150 206 116 26 181 12 12 sky130_fd_sc_hd__o21ai_0
* cell instance $408 m0 *1 16.56,24.48
X$408 26 117 182 153 26 206 12 12 sky130_fd_sc_hd__o21a_1
* cell instance $409 m0 *1 19.32,24.48
X$409 12 153 182 212 252 26 26 12 sky130_fd_sc_hd__ha_1
* cell instance $410 m0 *1 23.92,24.48
X$410 26 182 153 214 12 26 152 12 sky130_fd_sc_hd__a21oi_1
* cell instance $412 m0 *1 26.22,24.48
X$412 26 154 129 175 12 26 214 12 sky130_fd_sc_hd__a21o_1
* cell instance $414 m0 *1 29.44,24.48
X$414 12 154 175 217 237 26 26 12 sky130_fd_sc_hd__ha_1
* cell instance $417 m0 *1 36.8,24.48
X$417 12 118 129 183 219 26 26 12 sky130_fd_sc_hd__ha_1
* cell instance $418 m0 *1 41.4,24.48
X$418 26 221 26 12 183 12 sky130_fd_sc_hd__inv_1
* cell instance $422 m0 *1 48.76,24.48
X$422 26 224 26 12 197 12 sky130_fd_sc_hd__inv_1
* cell instance $424 m0 *1 50.6,24.48
X$424 26 226 26 12 196 12 sky130_fd_sc_hd__inv_1
* cell instance $427 m0 *1 54.74,24.48
X$427 26 222 26 12 157 12 sky130_fd_sc_hd__inv_1
* cell instance $433 m0 *1 63.02,24.48
X$433 26 184 26 12 215 12 sky130_fd_sc_hd__inv_1
* cell instance $434 m0 *1 64.4,24.48
X$434 12 193 205 215 192 229 26 26 12 sky130_fd_sc_hd__fa_1
* cell instance $435 m0 *1 71.76,24.48
X$435 26 205 26 12 191 12 sky130_fd_sc_hd__inv_1
* cell instance $436 m0 *1 73.14,24.48
X$436 26 204 26 12 185 12 sky130_fd_sc_hd__inv_1
* cell instance $437 m0 *1 74.52,24.48
X$437 12 107 111 202 201 26 26 12 sky130_fd_sc_hd__ha_1
* cell instance $443 r0 *1 6.44,24.48
X$443 12 116 180 232 203 26 26 12 sky130_fd_sc_hd__ha_1
* cell instance $453 r0 *1 18.86,24.48
X$453 26 209 26 12 208 12 sky130_fd_sc_hd__inv_1
* cell instance $456 r0 *1 21.62,24.48
X$456 26 211 26 12 212 12 sky130_fd_sc_hd__inv_1
* cell instance $460 r0 *1 26.22,24.48
X$460 26 213 26 12 142 12 sky130_fd_sc_hd__inv_1
* cell instance $463 r0 *1 31.74,24.48
X$463 26 216 26 12 217 12 sky130_fd_sc_hd__inv_1
* cell instance $466 r0 *1 38.64,24.48
X$466 26 218 26 12 219 12 sky130_fd_sc_hd__inv_1
* cell instance $473 r0 *1 43.24,24.48
X$473 12 221 224 198 223 233 26 26 12 sky130_fd_sc_hd__fa_1
* cell instance $474 r0 *1 50.6,24.48
X$474 12 198 194 220 225 449 26 26 12 sky130_fd_sc_hd__fa_1
* cell instance $475 r0 *1 57.96,24.48
X$475 12 222 156 258 231 199 26 26 12 sky130_fd_sc_hd__fa_1
* cell instance $476 r0 *1 65.32,24.48
X$476 12 184 172 210 255 26 26 12 sky130_fd_sc_hd__ha_1
* cell instance $484 r0 *1 72.22,24.48
X$484 26 207 26 12 169 12 sky130_fd_sc_hd__inv_1
* cell instance $487 r0 *1 76.36,24.48
X$487 26 200 26 12 201 12 sky130_fd_sc_hd__inv_1
* cell instance $493 m0 *1 4.6,29.92
X$493 12 53 27 249 275 26 26 12 sky130_fd_sc_hd__ha_1
* cell instance $494 m0 *1 9.2,29.92
X$494 26 230 26 12 232 12 sky130_fd_sc_hd__inv_1
* cell instance $496 m0 *1 12.42,29.92
X$496 12 117 150 234 227 26 26 12 sky130_fd_sc_hd__ha_1
* cell instance $499 m0 *1 18.4,29.92
X$499 26 235 26 12 236 12 sky130_fd_sc_hd__inv_1
* cell instance $500 m0 *1 19.78,29.92
X$500 12 209 213 372 236 238 26 26 12 sky130_fd_sc_hd__fa_1
* cell instance $504 m0 *1 29.9,29.92
X$504 26 239 26 12 237 12 sky130_fd_sc_hd__inv_1
* cell instance $506 m0 *1 31.74,29.92
X$506 12 216 218 265 289 228 26 26 12 sky130_fd_sc_hd__fa_1
* cell instance $507 m0 *1 39.1,29.92
X$507 12 228 233 342 262 432 26 26 12 sky130_fd_sc_hd__fa_1
* cell instance $509 m0 *1 46.92,29.92
X$509 12 223 225 259 293 356 26 26 12 sky130_fd_sc_hd__fa_1
* cell instance $516 m0 *1 63.48,29.92
X$516 12 231 204 256 229 375 26 26 12 sky130_fd_sc_hd__fa_1
* cell instance $518 m0 *1 71.76,29.92
X$518 12 207 200 247 278 349 26 26 12 sky130_fd_sc_hd__fa_1
* cell instance $521 r0 *1 1.38,29.92
X$521 12 132 249 240 248 274 26 26 12 sky130_fd_sc_hd__fa_1
* cell instance $522 r0 *1 8.74,29.92
X$522 26 241 26 12 203 12 sky130_fd_sc_hd__inv_1
* cell instance $524 r0 *1 13.8,29.92
X$524 26 242 26 12 227 12 sky130_fd_sc_hd__inv_1
* cell instance $527 r0 *1 15.64,29.92
X$527 26 253 26 12 234 12 sky130_fd_sc_hd__inv_1
* cell instance $530 r0 *1 21.62,29.92
X$530 26 257 26 12 252 12 sky130_fd_sc_hd__inv_1
* cell instance $531 r0 *1 23,29.92
X$531 12 211 239 286 261 244 26 26 12 sky130_fd_sc_hd__fa_1
* cell instance $532 r0 *1 30.36,29.92
X$532 12 244 265 245 266 264 26 26 12 sky130_fd_sc_hd__fa_1
* cell instance $534 r0 *1 41.4,29.92
X$534 26 263 26 12 262 12 sky130_fd_sc_hd__inv_1
* cell instance $539 r0 *1 47.84,29.92
X$539 26 260 26 12 259 12 sky130_fd_sc_hd__inv_1
* cell instance $544 r0 *1 58.88,29.92
X$544 12 258 256 303 246 271 26 26 12 sky130_fd_sc_hd__fa_1
* cell instance $545 r0 *1 66.24,29.92
X$545 26 246 26 12 255 12 sky130_fd_sc_hd__inv_1
* cell instance $546 r0 *1 67.62,29.92
X$546 26 251 26 12 210 12 sky130_fd_sc_hd__inv_1
* cell instance $551 r0 *1 70.84,29.92
X$551 12 250 170 280 279 26 26 12 sky130_fd_sc_hd__ha_1
* cell instance $552 r0 *1 75.44,29.92
X$552 26 250 26 12 247 12 sky130_fd_sc_hd__inv_1
* cell instance $563 m0 *1 7.36,35.36
X$563 12 275 267 315 243 276 26 26 12 sky130_fd_sc_hd__fa_1
* cell instance $564 m0 *1 14.72,35.36
X$564 12 235 243 444 281 26 26 12 sky130_fd_sc_hd__ha_1
* cell instance $565 m0 *1 19.32,35.36
X$565 26 283 26 12 281 12 sky130_fd_sc_hd__inv_1
* cell instance $569 m0 *1 25.76,35.36
X$569 26 285 26 12 286 12 sky130_fd_sc_hd__inv_1
* cell instance $571 m0 *1 27.6,35.36
X$571 26 287 26 12 238 12 sky130_fd_sc_hd__inv_1
* cell instance $576 m0 *1 32.66,35.36
X$576 26 288 26 12 266 12 sky130_fd_sc_hd__inv_1
* cell instance $577 m0 *1 34.04,35.36
X$577 26 268 26 12 289 12 sky130_fd_sc_hd__inv_1
* cell instance $578 m0 *1 35.42,35.36
X$578 12 268 263 384 291 290 26 26 12 sky130_fd_sc_hd__fa_1
* cell instance $582 m0 *1 46,35.36
X$582 12 260 291 292 294 26 26 12 sky130_fd_sc_hd__ha_1
* cell instance $587 m0 *1 57.04,35.36
X$587 12 293 251 311 271 324 26 26 12 sky130_fd_sc_hd__fa_1
* cell instance $589 m0 *1 64.86,35.36
X$589 12 229 278 386 254 316 26 26 12 sky130_fd_sc_hd__fa_1
* cell instance $590 m0 *1 72.22,35.36
X$590 26 282 26 12 280 12 sky130_fd_sc_hd__inv_1
* cell instance $597 r0 *1 3.68,35.36
X$597 12 274 277 299 300 26 26 12 sky130_fd_sc_hd__ha_1
* cell instance $598 r0 *1 8.28,35.36
X$598 12 276 240 348 301 26 26 12 sky130_fd_sc_hd__ha_1
* cell instance $606 r0 *1 16.1,35.36
X$606 12 253 257 424 304 322 26 26 12 sky130_fd_sc_hd__fa_1
* cell instance $609 r0 *1 26.22,35.36
X$609 12 285 288 383 338 295 26 26 12 sky130_fd_sc_hd__fa_1
* cell instance $611 r0 *1 37.26,35.36
X$611 12 290 295 339 327 26 26 12 sky130_fd_sc_hd__ha_1
* cell instance $620 r0 *1 48.3,35.36
X$620 26 305 26 12 292 12 sky130_fd_sc_hd__inv_1
* cell instance $622 r0 *1 51.52,35.36
X$622 26 270 269 294 12 26 12 sky130_fd_sc_hd__nor2b_1
* cell instance $625 r0 *1 55.2,35.36
X$625 26 284 269 303 26 12 12 sky130_fd_sc_hd__nand2_1
* cell instance $628 r0 *1 60.72,35.36
X$628 26 270 297 271 26 12 12 sky130_fd_sc_hd__nand2_1
* cell instance $631 r0 *1 66.7,35.36
X$631 26 270 272 302 26 12 12 sky130_fd_sc_hd__nand2_1
* cell instance $638 r0 *1 70.84,35.36
X$638 26 284 297 279 26 12 12 sky130_fd_sc_hd__and2_0
* cell instance $640 r0 *1 76.82,35.36
X$640 26 298 12 297 26 12 sky130_fd_sc_hd__buf_2
* cell instance $641 r0 *1 78.66,35.36
X$641 26 273 12 284 26 12 sky130_fd_sc_hd__buf_2
* cell instance $644 m0 *1 5.98,40.8
X$644 26 312 269 187 26 12 12 sky130_fd_sc_hd__and2_0
* cell instance $646 m0 *1 10.12,40.8
X$646 26 306 26 12 315 12 sky130_fd_sc_hd__inv_1
* cell instance $647 m0 *1 11.5,40.8
X$647 12 306 283 307 319 320 26 26 12 sky130_fd_sc_hd__fa_1
* cell instance $648 m0 *1 18.86,40.8
X$648 26 321 26 12 304 12 sky130_fd_sc_hd__inv_1
* cell instance $651 m0 *1 21.62,40.8
X$651 12 322 261 323 337 325 26 26 12 sky130_fd_sc_hd__fa_1
* cell instance $657 m0 *1 38.18,40.8
X$657 26 308 296 327 12 26 12 sky130_fd_sc_hd__nor2b_1
* cell instance $661 m0 *1 43.7,40.8
X$661 26 308 297 305 26 12 12 sky130_fd_sc_hd__nand2_1
* cell instance $662 m0 *1 45.08,40.8
X$662 12 358 326 310 305 309 26 26 12 sky130_fd_sc_hd__fa_1
* cell instance $664 m0 *1 52.9,40.8
X$664 26 270 269 310 26 12 12 sky130_fd_sc_hd__nand2_1
* cell instance $668 m0 *1 57.04,40.8
X$668 26 296 284 324 12 26 12 sky130_fd_sc_hd__nand2b_1
* cell instance $669 m0 *1 59.34,40.8
X$669 26 308 272 311 26 12 12 sky130_fd_sc_hd__nand2_1
* cell instance $673 m0 *1 63.94,40.8
X$673 12 246 316 302 318 317 26 26 12 sky130_fd_sc_hd__fa_1
* cell instance $674 m0 *1 71.3,40.8
X$674 12 282 347 314 313 334 26 26 12 sky130_fd_sc_hd__fa_1
* cell instance $675 m0 *1 78.66,40.8
X$675 26 284 272 313 26 12 12 sky130_fd_sc_hd__nand2_1
* cell instance $680 r0 *1 4.6,40.8
X$680 26 346 269 299 26 12 12 sky130_fd_sc_hd__and2_0
* cell instance $688 r0 *1 15.64,40.8
X$688 26 335 269 307 26 12 12 sky130_fd_sc_hd__nand2_1
* cell instance $690 r0 *1 17.48,40.8
X$690 12 321 336 351 340 370 26 26 12 sky130_fd_sc_hd__fa_1
* cell instance $691 r0 *1 24.84,40.8
X$691 26 336 26 12 337 12 sky130_fd_sc_hd__inv_1
* cell instance $693 r0 *1 28.06,40.8
X$693 12 338 340 353 354 26 26 12 sky130_fd_sc_hd__ha_1
* cell instance $694 r0 *1 32.66,40.8
X$694 26 328 296 354 12 26 12 sky130_fd_sc_hd__nor2b_1
* cell instance $697 r0 *1 37.72,40.8
X$697 26 328 297 329 26 12 12 sky130_fd_sc_hd__nand2_1
* cell instance $698 r0 *1 39.1,40.8
X$698 26 329 26 12 339 12 sky130_fd_sc_hd__inv_1
* cell instance $705 r0 *1 43.24,40.8
X$705 12 160 226 381 358 393 26 26 12 sky130_fd_sc_hd__fa_1
* cell instance $708 r0 *1 51.98,40.8
X$708 12 356 352 344 355 343 26 26 12 sky130_fd_sc_hd__fa_1
* cell instance $709 r0 *1 59.34,40.8
X$709 12 220 192 363 352 427 26 26 12 sky130_fd_sc_hd__fa_1
* cell instance $710 r0 *1 66.7,40.8
X$710 26 328 330 318 26 12 12 sky130_fd_sc_hd__nand2_1
* cell instance $715 r0 *1 69,40.8
X$715 26 308 331 317 26 12 12 sky130_fd_sc_hd__nand2_1
* cell instance $718 r0 *1 71.3,40.8
X$718 26 308 330 314 26 12 12 sky130_fd_sc_hd__nand2_1
* cell instance $720 r0 *1 73.6,40.8
X$720 26 270 331 334 26 12 12 sky130_fd_sc_hd__nand2_1
* cell instance $722 r0 *1 75.9,40.8
X$722 26 332 12 330 26 12 sky130_fd_sc_hd__buf_2
* cell instance $724 r0 *1 78.66,40.8
X$724 26 333 12 272 26 12 sky130_fd_sc_hd__buf_2
* cell instance $726 m0 *1 3.22,46.24
X$726 12 248 348 360 364 359 26 26 12 sky130_fd_sc_hd__fa_1
* cell instance $727 m0 *1 10.58,46.24
X$727 26 297 312 300 26 12 12 sky130_fd_sc_hd__and2_1
* cell instance $731 m0 *1 18.86,46.24
X$731 26 272 312 301 26 12 12 sky130_fd_sc_hd__and2_1
* cell instance $732 m0 *1 21.16,46.24
X$732 26 320 26 12 351 12 sky130_fd_sc_hd__inv_1
* cell instance $734 m0 *1 26.22,46.24
X$734 26 335 297 341 26 12 12 sky130_fd_sc_hd__nand2_1
* cell instance $739 m0 *1 29.9,46.24
X$739 26 341 26 12 353 12 sky130_fd_sc_hd__inv_1
* cell instance $741 m0 *1 32.2,46.24
X$741 12 126 161 357 378 413 26 26 12 sky130_fd_sc_hd__fa_1
* cell instance $743 m0 *1 40.02,46.24
X$743 26 308 269 379 26 12 12 sky130_fd_sc_hd__nand2_1
* cell instance $749 m0 *1 53.82,46.24
X$749 26 330 335 343 26 12 12 sky130_fd_sc_hd__nand2_1
* cell instance $750 m0 *1 55.2,46.24
X$750 26 328 331 344 26 12 12 sky130_fd_sc_hd__nand2_1
* cell instance $752 m0 *1 57.04,46.24
X$752 12 309 374 311 343 344 26 26 12 sky130_fd_sc_hd__fa_1
* cell instance $756 m0 *1 70.38,46.24
X$756 12 349 369 388 350 347 26 26 12 sky130_fd_sc_hd__fa_1
* cell instance $758 m0 *1 78.66,46.24
X$758 26 345 12 331 26 12 sky130_fd_sc_hd__buf_2
* cell instance $760 r0 *1 5.06,46.24
X$760 26 361 269 364 26 12 12 sky130_fd_sc_hd__and2_0
* cell instance $761 r0 *1 7.36,46.24
X$761 26 346 297 359 26 12 12 sky130_fd_sc_hd__and2_0
* cell instance $767 r0 *1 16.1,46.24
X$767 26 361 297 319 26 12 12 sky130_fd_sc_hd__nand2_1
* cell instance $768 r0 *1 17.48,46.24
X$768 26 319 26 12 371 12 sky130_fd_sc_hd__inv_1
* cell instance $769 r0 *1 18.86,46.24
X$769 12 370 382 371 373 26 26 12 sky130_fd_sc_hd__ha_1
* cell instance $772 r0 *1 24.84,46.24
X$772 12 372 396 395 377 341 26 26 12 sky130_fd_sc_hd__fa_1
* cell instance $773 r0 *1 32.2,46.24
X$773 26 328 269 377 26 12 12 sky130_fd_sc_hd__nand2_1
* cell instance $775 r0 *1 35.42,46.24
X$775 12 378 380 329 379 394 26 26 12 sky130_fd_sc_hd__fa_1
* cell instance $781 r0 *1 48.3,46.24
X$781 12 381 199 362 326 408 26 26 12 sky130_fd_sc_hd__fa_1
* cell instance $784 r0 *1 57.96,46.24
X$784 12 362 375 363 376 374 26 26 12 sky130_fd_sc_hd__fa_1
* cell instance $792 r0 *1 73.14,46.24
X$792 26 369 26 12 368 12 sky130_fd_sc_hd__inv_1
* cell instance $793 r0 *1 74.52,46.24
X$793 12 367 120 365 366 26 26 12 sky130_fd_sc_hd__ha_1
* cell instance $804 m0 *1 3.68,51.68
X$804 12 390 401 387 359 26 26 12 sky130_fd_sc_hd__ha_1
* cell instance $807 m0 *1 10.58,51.68
X$807 12 419 406 382 392 390 26 26 12 sky130_fd_sc_hd__fa_1
* cell instance $810 m0 *1 20.24,51.68
X$810 26 335 296 373 12 26 12 sky130_fd_sc_hd__nor2b_1
* cell instance $815 m0 *1 29.44,51.68
X$815 26 383 26 12 395 12 sky130_fd_sc_hd__inv_1
* cell instance $817 m0 *1 31.74,51.68
X$817 26 396 26 12 411 12 sky130_fd_sc_hd__inv_1
* cell instance $821 m0 *1 38.18,51.68
X$821 26 384 26 12 394 12 sky130_fd_sc_hd__inv_1
* cell instance $823 m0 *1 40.02,51.68
X$823 12 357 393 409 380 470 26 26 12 sky130_fd_sc_hd__fa_1
* cell instance $827 m0 *1 55.2,51.68
X$827 26 385 361 355 26 12 12 sky130_fd_sc_hd__nand2_1
* cell instance $832 m0 *1 63.02,51.68
X$832 26 385 328 391 26 12 12 sky130_fd_sc_hd__nand2_1
* cell instance $833 m0 *1 64.4,51.68
X$833 12 254 388 421 389 391 26 26 12 sky130_fd_sc_hd__fa_1
* cell instance $835 m0 *1 72.22,51.68
X$835 12 202 366 441 368 457 26 26 12 sky130_fd_sc_hd__fa_1
* cell instance $840 r0 *1 4.6,51.68
X$840 26 361 296 387 12 26 12 sky130_fd_sc_hd__nor2b_1
* cell instance $841 r0 *1 6.9,51.68
X$841 12 241 242 404 403 420 26 26 12 sky130_fd_sc_hd__fa_1
* cell instance $847 r0 *1 17.02,51.68
X$847 26 406 26 12 407 12 sky130_fd_sc_hd__inv_1
* cell instance $851 r0 *1 24.38,51.68
X$851 26 331 346 426 26 12 12 sky130_fd_sc_hd__nand2_1
* cell instance $856 r0 *1 35.88,51.68
X$856 26 410 26 12 413 12 sky130_fd_sc_hd__inv_1
* cell instance $858 r0 *1 37.72,51.68
X$858 26 330 361 412 26 12 12 sky130_fd_sc_hd__and2_0
* cell instance $865 r0 *1 44.62,51.68
X$865 12 409 408 398 397 479 26 26 12 sky130_fd_sc_hd__fa_1
* cell instance $866 r0 *1 51.98,51.68
X$866 12 398 376 436 355 399 26 26 12 sky130_fd_sc_hd__fa_1
* cell instance $869 r0 *1 61.64,51.68
X$869 12 363 405 386 423 425 26 26 12 sky130_fd_sc_hd__fa_2
* cell instance $875 r0 *1 73.6,51.68
X$875 12 402 71 400 367 26 26 12 sky130_fd_sc_hd__ha_1
* cell instance $880 m0 *1 3.68,57.12
X$880 12 438 523 456 300 26 26 12 sky130_fd_sc_hd__ha_1
* cell instance $883 m0 *1 9.66,57.12
X$883 26 419 26 12 420 12 sky130_fd_sc_hd__inv_1
* cell instance $886 m0 *1 13.34,57.12
X$886 12 404 424 407 422 464 26 26 12 sky130_fd_sc_hd__fa_1
* cell instance $889 m0 *1 20.7,57.12
X$889 12 320 426 415 447 414 26 26 12 sky130_fd_sc_hd__fa_2
* cell instance $891 m0 *1 29.44,57.12
X$891 12 287 410 415 411 435 26 26 12 sky130_fd_sc_hd__fa_1
* cell instance $892 m0 *1 36.8,57.12
X$892 12 384 431 412 428 450 26 26 12 sky130_fd_sc_hd__fa_1
* cell instance $895 m0 *1 44.16,57.12
X$895 26 430 26 12 432 12 sky130_fd_sc_hd__inv_1
* cell instance $897 m0 *1 47.38,57.12
X$897 26 431 26 12 397 12 sky130_fd_sc_hd__inv_1
* cell instance $899 m0 *1 52.44,57.12
X$899 26 296 12 269 26 12 sky130_fd_sc_hd__clkbuf_4
* cell instance $900 m0 *1 55.2,57.12
X$900 26 416 346 399 26 12 12 sky130_fd_sc_hd__nand2_1
* cell instance $902 m0 *1 57.04,57.12
X$902 26 399 26 12 429 12 sky130_fd_sc_hd__inv_1
* cell instance $904 m0 *1 58.88,57.12
X$904 26 433 26 12 427 12 sky130_fd_sc_hd__inv_1
* cell instance $906 m0 *1 60.72,57.12
X$906 26 417 346 405 26 12 12 sky130_fd_sc_hd__nand2_1
* cell instance $908 m0 *1 62.56,57.12
X$908 26 417 361 389 26 12 12 sky130_fd_sc_hd__nand2_1
* cell instance $909 m0 *1 63.94,57.12
X$909 26 416 361 425 26 12 12 sky130_fd_sc_hd__nand2_1
* cell instance $910 m0 *1 65.32,57.12
X$910 26 385 335 423 26 12 12 sky130_fd_sc_hd__nand2_1
* cell instance $911 m0 *1 66.7,57.12
X$911 26 416 335 421 26 12 12 sky130_fd_sc_hd__nand2_1