
* cell parameterized_decade_counter
* pin rst_n
* pin count[1]
* pin clk
* pin count[0]
* pin count[3]
* pin count[2]
* pin enable
* pin tc
.SUBCKT parameterized_decade_counter 1 2 3 24 28 36 38 39
* net 1 rst_n
* net 2 count[1]
* net 3 clk
* net 24 count[0]
* net 28 count[3]
* net 36 count[2]
* net 38 enable
* net 39 tc
* cell instance $3 r0 *1 21.62,2.72
X$3 5 1 5 6 4 4 sky130_fd_sc_hd__dlygate4sd3_1
* cell instance $6 m0 *1 17.02,8.16
X$6 5 7 2 4 5 4 sky130_fd_sc_hd__clkbuf_1
* cell instance $9 m0 *1 10.58,19.04
X$9 5 3 4 8 5 4 sky130_fd_sc_hd__clkbuf_4
* cell instance $23 r0 *1 17.02,2.72
X$23 4 10 6 5 5 4 sky130_fd_sc_hd__dlymetal6s2s_1
* cell instance $59 r0 *1 3.22,8.16
X$59 5 8 4 11 5 4 sky130_fd_sc_hd__clkbuf_4
* cell instance $62 r0 *1 5.98,8.16
X$62 4 10 7 11 9 5 5 4 sky130_fd_sc_hd__dfrtp_1
* cell instance $63 m0 *1 6.44,13.6
X$63 4 10 14 11 12 5 5 4 sky130_fd_sc_hd__dfrtp_1
* cell instance $98 r0 *1 5.52,13.6
X$98 5 14 15 13 4 5 12 4 sky130_fd_sc_hd__a21o_1
* cell instance $99 r0 *1 8.28,13.6
X$99 5 15 14 22 13 4 5 4 sky130_fd_sc_hd__nor3b_1
* cell instance $101 r0 *1 11.5,13.6
X$101 5 14 17 16 5 20 4 4 sky130_fd_sc_hd__o21ai_0
* cell instance $121 m0 *1 3.68,19.04
X$121 4 40 18 25 7 5 5 4 sky130_fd_sc_hd__ha_1
* cell instance $123 m0 *1 9.2,19.04
X$123 5 16 18 15 5 4 4 sky130_fd_sc_hd__nand2_1
* cell instance $124 m0 *1 13.34,19.04
X$124 5 23 20 14 26 4 19 5 4 sky130_fd_sc_hd__a22o_1
* cell instance $127 m0 *1 16.56,19.04
X$127 4 10 23 29 19 5 5 4 sky130_fd_sc_hd__dfrtp_1
* cell instance $134 m0 *1 33.58,19.04
X$134 5 25 24 4 5 4 sky130_fd_sc_hd__clkbuf_1
* cell instance $145 r0 *1 4.6,19.04
X$145 5 21 34 27 16 9 4 5 4 sky130_fd_sc_hd__o22ai_1
* cell instance $146 r0 *1 6.9,19.04
X$146 5 7 5 4 27 4 sky130_fd_sc_hd__inv_1
* cell instance $147 r0 *1 8.28,19.04
X$147 5 14 22 21 4 5 4 sky130_fd_sc_hd__nor2_1
* cell instance $149 r0 *1 10.12,19.04
X$149 5 23 17 22 5 4 4 sky130_fd_sc_hd__nand2_1
* cell instance $151 r0 *1 12.42,19.04
X$151 5 16 7 25 30 5 4 4 sky130_fd_sc_hd__nand3_1
* cell instance $155 r0 *1 15.64,19.04
X$155 4 23 31 7 25 5 5 4 sky130_fd_sc_hd__a21bo_1
* cell instance $156 r0 *1 19.32,19.04
X$156 5 8 4 29 5 4 sky130_fd_sc_hd__clkbuf_4
* cell instance $161 r0 *1 33.58,19.04
X$161 5 23 28 4 5 4 sky130_fd_sc_hd__clkbuf_1
* cell instance $174 m0 *1 1.38,24.48
X$174 5 14 36 4 5 4 sky130_fd_sc_hd__clkbuf_1
* cell instance $175 m0 *1 2.76,24.48
X$175 5 16 32 34 4 5 4 sky130_fd_sc_hd__nand2b_1
* cell instance $176 m0 *1 5.06,24.48
X$176 4 32 17 25 27 5 5 4 sky130_fd_sc_hd__ha_1
* cell instance $178 m0 *1 10.12,24.48
X$178 5 21 37 33 5 35 4 4 sky130_fd_sc_hd__o21ai_0
* cell instance $179 m0 *1 11.96,24.48
X$179 5 25 16 33 4 5 4 sky130_fd_sc_hd__nand2b_1
* cell instance $180 m0 *1 14.26,24.48
X$180 5 23 30 31 5 26 4 4 sky130_fd_sc_hd__o21ai_0
* cell instance $182 m0 *1 16.56,24.48
X$182 4 10 25 29 35 5 5 4 sky130_fd_sc_hd__dfrtp_2
* cell instance $192 r0 *1 1.38,24.48
X$192 5 38 5 4 16 4 sky130_fd_sc_hd__clkbuf_2
* cell instance $194 r0 *1 3.68,24.48
X$194 5 21 39 4 5 4 sky130_fd_sc_hd__clkbuf_1
* cell instance $198 r0 *1 10.12,24.48
X$198 5 16 25 37 4 5 4 sky130_fd_sc_hd__nand2b_1
* cell instance $204 r0 *1 19.32,24.48
X$204 5 29 41 4 5 4 sky130_fd_sc_hd__clkbuf_1
.ENDS parameterized_decade_counter

* cell sky130_fd_sc_hd__dlymetal6s2s_1
* pin VGND
* pin X
* pin A
* pin VPWR
* pin VPB
* pin 
.SUBCKT sky130_fd_sc_hd__dlymetal6s2s_1 1 3 8 9 10 11
* net 1 VGND
* net 3 X
* net 8 A
* net 9 VPWR
* net 10 VPB
* device instance $1 r0 *1 3.655,2.275 pfet_01v8_hvt
M$1 6 5 9 10 pfet_01v8_hvt L=150000U W=420000U AS=140750000000P
+ AD=109200000000P PS=1325000U PD=1360000U
* device instance $2 r0 *1 4.13,1.985 pfet_01v8_hvt
M$2 7 6 9 10 pfet_01v8_hvt L=150000U W=1000000U AS=140750000000P
+ AD=260000000000P PS=1325000U PD=2520000U
* device instance $3 r0 *1 2.24,2.275 pfet_01v8_hvt
M$3 4 3 9 10 pfet_01v8_hvt L=150000U W=420000U AS=140750000000P
+ AD=109200000000P PS=1325000U PD=1360000U
* device instance $4 r0 *1 2.715,1.985 pfet_01v8_hvt
M$4 5 4 9 10 pfet_01v8_hvt L=150000U W=1000000U AS=140750000000P
+ AD=260000000000P PS=1325000U PD=2520000U
* device instance $5 r0 *1 0.645,2.275 pfet_01v8_hvt
M$5 2 8 9 10 pfet_01v8_hvt L=150000U W=420000U AS=140750000000P
+ AD=109200000000P PS=1325000U PD=1360000U
* device instance $6 r0 *1 1.12,1.985 pfet_01v8_hvt
M$6 3 2 9 10 pfet_01v8_hvt L=150000U W=1000000U AS=140750000000P
+ AD=260000000000P PS=1325000U PD=2520000U
* device instance $7 r0 *1 3.655,0.445 nfet_01v8
M$7 1 5 6 11 nfet_01v8 L=150000U W=420000U AS=109200000000P AD=97000000000P
+ PS=1360000U PD=975000U
* device instance $8 r0 *1 4.13,0.56 nfet_01v8
M$8 7 6 1 11 nfet_01v8 L=150000U W=650000U AS=97000000000P AD=169000000000P
+ PS=975000U PD=1820000U
* device instance $9 r0 *1 0.645,0.445 nfet_01v8
M$9 1 8 2 11 nfet_01v8 L=150000U W=420000U AS=109200000000P AD=97000000000P
+ PS=1360000U PD=975000U
* device instance $10 r0 *1 1.12,0.56 nfet_01v8
M$10 3 2 1 11 nfet_01v8 L=150000U W=650000U AS=97000000000P AD=169000000000P
+ PS=975000U PD=1820000U
* device instance $11 r0 *1 2.24,0.445 nfet_01v8
M$11 1 3 4 11 nfet_01v8 L=150000U W=420000U AS=109200000000P AD=97000000000P
+ PS=1360000U PD=975000U
* device instance $12 r0 *1 2.715,0.56 nfet_01v8
M$12 5 4 1 11 nfet_01v8 L=150000U W=650000U AS=97000000000P AD=169000000000P
+ PS=975000U PD=1820000U
.ENDS sky130_fd_sc_hd__dlymetal6s2s_1

* cell sky130_fd_sc_hd__clkbuf_4
* pin VPB
* pin A
* pin VGND
* pin X
* pin VPWR
* pin 
.SUBCKT sky130_fd_sc_hd__clkbuf_4 1 3 4 5 6 7
* net 1 VPB
* net 3 A
* net 4 VGND
* net 5 X
* net 6 VPWR
* device instance $1 r0 *1 0.475,1.985 pfet_01v8_hvt
M$1 6 3 2 1 pfet_01v8_hvt L=150000U W=1000000U AS=265000000000P
+ AD=165000000000P PS=2530000U PD=1330000U
* device instance $2 r0 *1 0.955,1.985 pfet_01v8_hvt
M$2 5 2 6 1 pfet_01v8_hvt L=150000U W=4000000U AS=585000000000P
+ AD=720000000000P PS=5170000U PD=6440000U
* device instance $6 r0 *1 0.475,0.445 nfet_01v8
M$6 4 3 2 7 nfet_01v8 L=150000U W=420000U AS=111300000000P AD=70350000000P
+ PS=1370000U PD=755000U
* device instance $7 r0 *1 0.96,0.445 nfet_01v8
M$7 5 2 4 7 nfet_01v8 L=150000U W=1680000U AS=246750000000P AD=298200000000P
+ PS=2855000U PD=3520000U
.ENDS sky130_fd_sc_hd__clkbuf_4

* cell sky130_fd_sc_hd__a22o_1
* pin VPB
* pin B2
* pin B1
* pin A1
* pin A2
* pin VGND
* pin X
* pin VPWR
* pin 
.SUBCKT sky130_fd_sc_hd__a22o_1 1 2 3 4 5 6 9 10 11
* net 1 VPB
* net 2 B2
* net 3 B1
* net 4 A1
* net 5 A2
* net 6 VGND
* net 9 X
* net 10 VPWR
* device instance $1 r0 *1 1.82,1.985 pfet_01v8_hvt
M$1 7 4 10 1 pfet_01v8_hvt L=150000U W=1000000U AS=252900000000P
+ AD=160000000000P PS=2520000U PD=1320000U
* device instance $2 r0 *1 2.29,1.985 pfet_01v8_hvt
M$2 10 5 7 1 pfet_01v8_hvt L=150000U W=1000000U AS=160000000000P
+ AD=155000000000P PS=1320000U PD=1310000U
* device instance $3 r0 *1 2.75,1.985 pfet_01v8_hvt
M$3 9 8 10 1 pfet_01v8_hvt L=150000U W=1000000U AS=155000000000P
+ AD=260000000000P PS=1310000U PD=2520000U
* device instance $4 r0 *1 0.47,1.985 pfet_01v8_hvt
M$4 7 2 8 1 pfet_01v8_hvt L=150000U W=1000000U AS=260000000000P
+ AD=135000000000P PS=2520000U PD=1270000U
* device instance $5 r0 *1 0.89,1.985 pfet_01v8_hvt
M$5 8 3 7 1 pfet_01v8_hvt L=150000U W=1000000U AS=135000000000P
+ AD=252850000000P PS=1270000U PD=2520000U
* device instance $6 r0 *1 1.79,0.56 nfet_01v8
M$6 12 4 8 11 nfet_01v8 L=150000U W=650000U AS=169000000000P AD=113750000000P
+ PS=1820000U PD=1000000U
* device instance $7 r0 *1 2.29,0.56 nfet_01v8
M$7 6 5 12 11 nfet_01v8 L=150000U W=650000U AS=113750000000P AD=100750000000P
+ PS=1000000U PD=960000U
* device instance $8 r0 *1 2.75,0.56 nfet_01v8
M$8 9 8 6 11 nfet_01v8 L=150000U W=650000U AS=100750000000P AD=169000000000P
+ PS=960000U PD=1820000U
* device instance $9 r0 *1 0.47,0.56 nfet_01v8
M$9 13 2 6 11 nfet_01v8 L=150000U W=650000U AS=169000000000P AD=74750000000P
+ PS=1820000U PD=880000U
* device instance $10 r0 *1 0.85,0.56 nfet_01v8
M$10 8 3 13 11 nfet_01v8 L=150000U W=650000U AS=74750000000P AD=169000000000P
+ PS=880000U PD=1820000U
.ENDS sky130_fd_sc_hd__a22o_1

* cell sky130_fd_sc_hd__a21bo_1
* pin VGND
* pin B1_N
* pin X
* pin A1
* pin A2
* pin VPWR
* pin VPB
* pin 
.SUBCKT sky130_fd_sc_hd__a21bo_1 1 2 5 6 7 9 11 12
* net 1 VGND
* net 2 B1_N
* net 5 X
* net 6 A1
* net 7 A2
* net 9 VPWR
* net 11 VPB
* device instance $1 r0 *1 1.415,1.985 pfet_01v8_hvt
M$1 10 3 4 11 pfet_01v8_hvt L=150000U W=1000000U AS=265000000000P
+ AD=135000000000P PS=2530000U PD=1270000U
* device instance $2 r0 *1 1.835,1.985 pfet_01v8_hvt
M$2 9 6 10 11 pfet_01v8_hvt L=150000U W=1000000U AS=135000000000P
+ AD=140000000000P PS=1270000U PD=1280000U
* device instance $3 r0 *1 2.265,1.985 pfet_01v8_hvt
M$3 10 7 9 11 pfet_01v8_hvt L=150000U W=1000000U AS=140000000000P
+ AD=265000000000P PS=1280000U PD=2530000U
* device instance $4 r0 *1 3.21,1.985 pfet_01v8_hvt
M$4 5 4 9 11 pfet_01v8_hvt L=150000U W=1000000U AS=260000000000P
+ AD=260000000000P PS=2520000U PD=2520000U
* device instance $5 r0 *1 0.47,2.275 pfet_01v8_hvt
M$5 9 2 3 11 pfet_01v8_hvt L=150000U W=420000U AS=109200000000P
+ AD=109200000000P PS=1360000U PD=1360000U
* device instance $6 r0 *1 0.815,0.445 nfet_01v8
M$6 1 2 3 12 nfet_01v8 L=150000U W=420000U AS=111300000000P AD=135900000000P
+ PS=1370000U PD=1100000U
* device instance $7 r0 *1 1.415,0.56 nfet_01v8
M$7 4 3 1 12 nfet_01v8 L=150000U W=650000U AS=135900000000P AD=87750000000P
+ PS=1100000U PD=920000U
* device instance $8 r0 *1 1.835,0.56 nfet_01v8
M$8 8 6 4 12 nfet_01v8 L=150000U W=650000U AS=87750000000P AD=91000000000P
+ PS=920000U PD=930000U
* device instance $9 r0 *1 2.265,0.56 nfet_01v8
M$9 1 7 8 12 nfet_01v8 L=150000U W=650000U AS=91000000000P AD=258375000000P
+ PS=930000U PD=1445000U
* device instance $10 r0 *1 3.21,0.56 nfet_01v8
M$10 5 4 1 12 nfet_01v8 L=150000U W=650000U AS=258375000000P AD=169000000000P
+ PS=1445000U PD=1820000U
.ENDS sky130_fd_sc_hd__a21bo_1

* cell sky130_fd_sc_hd__nand3_1
* pin VPB
* pin A
* pin B
* pin C
* pin Y
* pin VPWR
* pin VGND
* pin 
.SUBCKT sky130_fd_sc_hd__nand3_1 1 2 3 4 5 6 7 8
* net 1 VPB
* net 2 A
* net 3 B
* net 4 C
* net 5 Y
* net 6 VPWR
* net 7 VGND
* device instance $1 r0 *1 0.47,1.985 pfet_01v8_hvt
M$1 5 4 6 1 pfet_01v8_hvt L=150000U W=1000000U AS=260000000000P
+ AD=135000000000P PS=2520000U PD=1270000U
* device instance $2 r0 *1 0.89,1.985 pfet_01v8_hvt
M$2 6 3 5 1 pfet_01v8_hvt L=150000U W=1000000U AS=135000000000P
+ AD=165000000000P PS=1270000U PD=1330000U
* device instance $3 r0 *1 1.37,1.985 pfet_01v8_hvt
M$3 5 2 6 1 pfet_01v8_hvt L=150000U W=1000000U AS=165000000000P
+ AD=260000000000P PS=1330000U PD=2520000U
* device instance $4 r0 *1 0.47,0.56 nfet_01v8
M$4 10 4 7 8 nfet_01v8 L=150000U W=650000U AS=169000000000P AD=87750000000P
+ PS=1820000U PD=920000U
* device instance $5 r0 *1 0.89,0.56 nfet_01v8
M$5 9 3 10 8 nfet_01v8 L=150000U W=650000U AS=87750000000P AD=107250000000P
+ PS=920000U PD=980000U
* device instance $6 r0 *1 1.37,0.56 nfet_01v8
M$6 5 2 9 8 nfet_01v8 L=150000U W=650000U AS=107250000000P AD=169000000000P
+ PS=980000U PD=1820000U
.ENDS sky130_fd_sc_hd__nand3_1

* cell sky130_fd_sc_hd__a21o_1
* pin VPB
* pin A1
* pin A2
* pin B1
* pin VGND
* pin VPWR
* pin X
* pin 
.SUBCKT sky130_fd_sc_hd__a21o_1 1 2 3 4 5 7 9 10
* net 1 VPB
* net 2 A1
* net 3 A2
* net 4 B1
* net 5 VGND
* net 7 VPWR
* net 9 X
* device instance $1 r0 *1 1.42,1.985 pfet_01v8_hvt
M$1 6 4 8 1 pfet_01v8_hvt L=150000U W=1000000U AS=260000000000P
+ AD=137500000000P PS=2520000U PD=1275000U
* device instance $2 r0 *1 1.845,1.985 pfet_01v8_hvt
M$2 7 2 6 1 pfet_01v8_hvt L=150000U W=1000000U AS=137500000000P
+ AD=140000000000P PS=1275000U PD=1280000U
* device instance $3 r0 *1 2.275,1.985 pfet_01v8_hvt
M$3 6 3 7 1 pfet_01v8_hvt L=150000U W=1000000U AS=140000000000P
+ AD=265000000000P PS=1280000U PD=2530000U
* device instance $4 r0 *1 0.48,1.985 pfet_01v8_hvt
M$4 7 8 9 1 pfet_01v8_hvt L=150000U W=1000000U AS=260000000000P
+ AD=260000000000P PS=2520000U PD=2520000U
* device instance $5 r0 *1 0.48,0.56 nfet_01v8
M$5 5 8 9 10 nfet_01v8 L=150000U W=650000U AS=169000000000P AD=256750000000P
+ PS=1820000U PD=1440000U
* device instance $6 r0 *1 1.42,0.56 nfet_01v8
M$6 8 4 5 10 nfet_01v8 L=150000U W=650000U AS=256750000000P AD=89375000000P
+ PS=1440000U PD=925000U
* device instance $7 r0 *1 1.845,0.56 nfet_01v8
M$7 11 2 8 10 nfet_01v8 L=150000U W=650000U AS=89375000000P AD=91000000000P
+ PS=925000U PD=930000U
* device instance $8 r0 *1 2.275,0.56 nfet_01v8
M$8 5 3 11 10 nfet_01v8 L=150000U W=650000U AS=91000000000P AD=172250000000P
+ PS=930000U PD=1830000U
.ENDS sky130_fd_sc_hd__a21o_1

* cell sky130_fd_sc_hd__nor3b_1
* pin VPB
* pin B
* pin A
* pin C_N
* pin Y
* pin VGND
* pin VPWR
* pin 
.SUBCKT sky130_fd_sc_hd__nor3b_1 1 2 3 4 5 6 7 9
* net 1 VPB
* net 2 B
* net 3 A
* net 4 C_N
* net 5 Y
* net 6 VGND
* net 7 VPWR
* device instance $1 r0 *1 2.055,1.86 pfet_01v8_hvt
M$1 8 4 7 1 pfet_01v8_hvt L=150000U W=420000U AS=145750000000P AD=109200000000P
+ PS=1335000U PD=1360000U
* device instance $2 r0 *1 0.73,1.985 pfet_01v8_hvt
M$2 11 8 5 1 pfet_01v8_hvt L=150000U W=1000000U AS=320000000000P
+ AD=135000000000P PS=2640000U PD=1270000U
* device instance $3 r0 *1 1.15,1.985 pfet_01v8_hvt
M$3 10 2 11 1 pfet_01v8_hvt L=150000U W=1000000U AS=135000000000P
+ AD=135000000000P PS=1270000U PD=1270000U
* device instance $4 r0 *1 1.57,1.985 pfet_01v8_hvt
M$4 7 3 10 1 pfet_01v8_hvt L=150000U W=1000000U AS=135000000000P
+ AD=145750000000P PS=1270000U PD=1335000U
* device instance $5 r0 *1 0.73,0.56 nfet_01v8
M$5 6 8 5 9 nfet_01v8 L=150000U W=650000U AS=221000000000P AD=87750000000P
+ PS=1980000U PD=920000U
* device instance $6 r0 *1 1.15,0.56 nfet_01v8
M$6 5 2 6 9 nfet_01v8 L=150000U W=650000U AS=87750000000P AD=87750000000P
+ PS=920000U PD=920000U
* device instance $7 r0 *1 1.57,0.56 nfet_01v8
M$7 6 3 5 9 nfet_01v8 L=150000U W=650000U AS=87750000000P AD=100250000000P
+ PS=920000U PD=985000U
* device instance $8 r0 *1 2.055,0.675 nfet_01v8
M$8 8 4 6 9 nfet_01v8 L=150000U W=420000U AS=100250000000P AD=109200000000P
+ PS=985000U PD=1360000U
.ENDS sky130_fd_sc_hd__nor3b_1

* cell sky130_fd_sc_hd__o22ai_1
* pin VPB
* pin B1
* pin B2
* pin A2
* pin A1
* pin Y
* pin VGND
* pin VPWR
* pin 
.SUBCKT sky130_fd_sc_hd__o22ai_1 1 2 3 4 5 7 8 9 10
* net 1 VPB
* net 2 B1
* net 3 B2
* net 4 A2
* net 5 A1
* net 7 Y
* net 8 VGND
* net 9 VPWR
* device instance $1 r0 *1 0.47,1.985 pfet_01v8_hvt
M$1 12 2 9 1 pfet_01v8_hvt L=150000U W=1000000U AS=260000000000P
+ AD=112500000000P PS=2520000U PD=1225000U
* device instance $2 r0 *1 0.845,1.985 pfet_01v8_hvt
M$2 7 3 12 1 pfet_01v8_hvt L=150000U W=1000000U AS=112500000000P
+ AD=232500000000P PS=1225000U PD=1465000U
* device instance $3 r0 *1 1.46,1.985 pfet_01v8_hvt
M$3 11 4 7 1 pfet_01v8_hvt L=150000U W=1000000U AS=232500000000P
+ AD=105000000000P PS=1465000U PD=1210000U
* device instance $4 r0 *1 1.82,1.985 pfet_01v8_hvt
M$4 9 5 11 1 pfet_01v8_hvt L=150000U W=1000000U AS=105000000000P
+ AD=270000000000P PS=1210000U PD=2540000U
* device instance $5 r0 *1 0.47,0.56 nfet_01v8
M$5 7 2 6 10 nfet_01v8 L=150000U W=650000U AS=169000000000P AD=92625000000P
+ PS=1820000U PD=935000U
* device instance $6 r0 *1 0.905,0.56 nfet_01v8
M$6 6 3 7 10 nfet_01v8 L=150000U W=650000U AS=92625000000P AD=115375000000P
+ PS=935000U PD=1005000U
* device instance $7 r0 *1 1.41,0.56 nfet_01v8
M$7 8 4 6 10 nfet_01v8 L=150000U W=650000U AS=115375000000P AD=87750000000P
+ PS=1005000U PD=920000U
* device instance $8 r0 *1 1.83,0.56 nfet_01v8
M$8 6 5 8 10 nfet_01v8 L=150000U W=650000U AS=87750000000P AD=169000000000P
+ PS=920000U PD=1820000U
.ENDS sky130_fd_sc_hd__o22ai_1

* cell sky130_fd_sc_hd__inv_1
* pin VPB
* pin A
* pin VPWR
* pin VGND
* pin Y
* pin 
.SUBCKT sky130_fd_sc_hd__inv_1 1 2 3 4 5 6
* net 1 VPB
* net 2 A
* net 3 VPWR
* net 4 VGND
* net 5 Y
* device instance $1 r0 *1 0.675,1.985 pfet_01v8_hvt
M$1 5 2 3 1 pfet_01v8_hvt L=150000U W=1000000U AS=260000000000P
+ AD=260000000000P PS=2520000U PD=2520000U
* device instance $2 r0 *1 0.675,0.56 nfet_01v8
M$2 5 2 4 6 nfet_01v8 L=150000U W=650000U AS=169000000000P AD=169000000000P
+ PS=1820000U PD=1820000U
.ENDS sky130_fd_sc_hd__inv_1

* cell sky130_fd_sc_hd__nor2_1
* pin VPB
* pin A
* pin B
* pin Y
* pin VGND
* pin VPWR
* pin 
.SUBCKT sky130_fd_sc_hd__nor2_1 1 2 3 4 5 6 7
* net 1 VPB
* net 2 A
* net 3 B
* net 4 Y
* net 5 VGND
* net 6 VPWR
* device instance $1 r0 *1 0.47,1.985 pfet_01v8_hvt
M$1 8 3 4 1 pfet_01v8_hvt L=150000U W=1000000U AS=260000000000P
+ AD=105000000000P PS=2520000U PD=1210000U
* device instance $2 r0 *1 0.83,1.985 pfet_01v8_hvt
M$2 6 2 8 1 pfet_01v8_hvt L=150000U W=1000000U AS=105000000000P
+ AD=260000000000P PS=1210000U PD=2520000U
* device instance $3 r0 *1 0.47,0.56 nfet_01v8
M$3 4 3 5 7 nfet_01v8 L=150000U W=650000U AS=169000000000P AD=87750000000P
+ PS=1820000U PD=920000U
* device instance $4 r0 *1 0.89,0.56 nfet_01v8
M$4 5 2 4 7 nfet_01v8 L=150000U W=650000U AS=87750000000P AD=169000000000P
+ PS=920000U PD=1820000U
.ENDS sky130_fd_sc_hd__nor2_1

* cell sky130_fd_sc_hd__nand2_1
* pin VPB
* pin A
* pin B
* pin Y
* pin VPWR
* pin VGND
* pin 
.SUBCKT sky130_fd_sc_hd__nand2_1 1 2 3 4 5 6 7
* net 1 VPB
* net 2 A
* net 3 B
* net 4 Y
* net 5 VPWR
* net 6 VGND
* device instance $1 r0 *1 0.49,1.985 pfet_01v8_hvt
M$1 4 3 5 1 pfet_01v8_hvt L=150000U W=1000000U AS=260000000000P
+ AD=135000000000P PS=2520000U PD=1270000U
* device instance $2 r0 *1 0.91,1.985 pfet_01v8_hvt
M$2 5 2 4 1 pfet_01v8_hvt L=150000U W=1000000U AS=135000000000P
+ AD=260000000000P PS=1270000U PD=2520000U
* device instance $3 r0 *1 0.49,0.56 nfet_01v8
M$3 8 3 6 7 nfet_01v8 L=150000U W=650000U AS=169000000000P AD=87750000000P
+ PS=1820000U PD=920000U
* device instance $4 r0 *1 0.91,0.56 nfet_01v8
M$4 4 2 8 7 nfet_01v8 L=150000U W=650000U AS=87750000000P AD=169000000000P
+ PS=920000U PD=1820000U
.ENDS sky130_fd_sc_hd__nand2_1

* cell sky130_fd_sc_hd__clkbuf_2
* pin VPB
* pin A
* pin VPWR
* pin VGND
* pin X
* pin 
.SUBCKT sky130_fd_sc_hd__clkbuf_2 1 2 3 4 6 7
* net 1 VPB
* net 2 A
* net 3 VPWR
* net 4 VGND
* net 6 X
* device instance $1 r0 *1 0.475,1.985 pfet_01v8_hvt
M$1 3 2 5 1 pfet_01v8_hvt L=150000U W=1000000U AS=265000000000P
+ AD=162500000000P PS=2530000U PD=1325000U
* device instance $2 r0 *1 0.95,1.985 pfet_01v8_hvt
M$2 6 5 3 1 pfet_01v8_hvt L=150000U W=2000000U AS=297500000000P
+ AD=395000000000P PS=2595000U PD=3790000U
* device instance $4 r0 *1 0.475,0.445 nfet_01v8
M$4 4 2 5 7 nfet_01v8 L=150000U W=420000U AS=111300000000P AD=68250000000P
+ PS=1370000U PD=745000U
* device instance $5 r0 *1 0.95,0.445 nfet_01v8
M$5 6 5 4 7 nfet_01v8 L=150000U W=840000U AS=124950000000P AD=165900000000P
+ PS=1435000U PD=2050000U
.ENDS sky130_fd_sc_hd__clkbuf_2

* cell sky130_fd_sc_hd__dlygate4sd3_1
* pin VPB
* pin A
* pin VPWR
* pin X
* pin VGND
* pin 
.SUBCKT sky130_fd_sc_hd__dlygate4sd3_1 1 3 5 7 8 9
* net 1 VPB
* net 3 A
* net 5 VPWR
* net 7 X
* net 8 VGND
* device instance $1 r0 *1 2.465,2.275 pfet_01v8_hvt
M$1 6 2 5 1 pfet_01v8_hvt L=500000U W=420000U AS=140750000000P AD=109200000000P
+ PS=1325000U PD=1360000U
* device instance $2 r0 *1 3.115,1.985 pfet_01v8_hvt
M$2 7 6 5 1 pfet_01v8_hvt L=150000U W=1000000U AS=140750000000P
+ AD=260000000000P PS=1325000U PD=2520000U
* device instance $3 r0 *1 0.58,2.275 pfet_01v8_hvt
M$3 5 3 4 1 pfet_01v8_hvt L=150000U W=420000U AS=109200000000P AD=56700000000P
+ PS=1360000U PD=690000U
* device instance $4 r0 *1 1.175,2.275 pfet_01v8_hvt
M$4 2 4 5 1 pfet_01v8_hvt L=500000U W=420000U AS=56700000000P AD=109200000000P
+ PS=690000U PD=1360000U
* device instance $5 r0 *1 2.465,0.445 nfet_01v8
M$5 8 2 6 9 nfet_01v8 L=500000U W=420000U AS=109200000000P AD=97000000000P
+ PS=1360000U PD=975000U
* device instance $6 r0 *1 3.115,0.56 nfet_01v8
M$6 7 6 8 9 nfet_01v8 L=150000U W=650000U AS=97000000000P AD=169000000000P
+ PS=975000U PD=1820000U
* device instance $7 r0 *1 0.58,0.445 nfet_01v8
M$7 8 3 4 9 nfet_01v8 L=150000U W=420000U AS=109200000000P AD=56700000000P
+ PS=1360000U PD=690000U
* device instance $8 r0 *1 1.175,0.445 nfet_01v8
M$8 2 4 8 9 nfet_01v8 L=500000U W=420000U AS=56700000000P AD=109200000000P
+ PS=690000U PD=1360000U
.ENDS sky130_fd_sc_hd__dlygate4sd3_1

* cell sky130_fd_sc_hd__dfrtp_1
* pin VGND
* pin RESET_B
* pin Q
* pin CLK
* pin D
* pin VPWR
* pin VPB
* pin 
.SUBCKT sky130_fd_sc_hd__dfrtp_1 1 6 9 14 15 17 18 21
* net 1 VGND
* net 6 RESET_B
* net 9 Q
* net 14 CLK
* net 15 D
* net 17 VPWR
* net 18 VPB
* device instance $1 r0 *1 8.73,1.985 pfet_01v8_hvt
M$1 9 8 17 18 pfet_01v8_hvt L=150000U W=1000000U AS=301200000000P
+ AD=260000000000P PS=2660000U PD=2520000U
* device instance $2 r0 *1 5.35,2.065 pfet_01v8_hvt
M$2 16 5 17 18 pfet_01v8_hvt L=150000U W=840000U AS=218400000000P
+ AD=129150000000P PS=2200000U PD=1185000U
* device instance $3 r0 *1 5.845,2.275 pfet_01v8_hvt
M$3 7 2 16 18 pfet_01v8_hvt L=150000U W=420000U AS=129150000000P
+ AD=58800000000P PS=1185000U PD=700000U
* device instance $4 r0 *1 6.275,2.275 pfet_01v8_hvt
M$4 20 3 7 18 pfet_01v8_hvt L=150000U W=420000U AS=58800000000P AD=56700000000P
+ PS=700000U PD=690000U
* device instance $5 r0 *1 6.695,2.275 pfet_01v8_hvt
M$5 17 8 20 18 pfet_01v8_hvt L=150000U W=420000U AS=56700000000P
+ AD=81900000000P PS=690000U PD=810000U
* device instance $6 r0 *1 7.235,2.275 pfet_01v8_hvt
M$6 8 6 17 18 pfet_01v8_hvt L=150000U W=420000U AS=81900000000P AD=56700000000P
+ PS=810000U PD=690000U
* device instance $7 r0 *1 7.655,2.275 pfet_01v8_hvt
M$7 17 7 8 18 pfet_01v8_hvt L=150000U W=420000U AS=56700000000P
+ AD=113400000000P PS=690000U PD=1380000U
* device instance $8 r0 *1 2.225,2.275 pfet_01v8_hvt
M$8 4 15 17 18 pfet_01v8_hvt L=150000U W=420000U AS=109200000000P
+ AD=65100000000P PS=1360000U PD=730000U
* device instance $9 r0 *1 2.685,2.275 pfet_01v8_hvt
M$9 5 3 4 18 pfet_01v8_hvt L=150000U W=420000U AS=65100000000P AD=72450000000P
+ PS=730000U PD=765000U
* device instance $10 r0 *1 3.18,2.275 pfet_01v8_hvt
M$10 19 2 5 18 pfet_01v8_hvt L=150000U W=420000U AS=72450000000P
+ AD=115500000000P PS=765000U PD=970000U
* device instance $11 r0 *1 3.88,2.275 pfet_01v8_hvt
M$11 17 16 19 18 pfet_01v8_hvt L=150000U W=420000U AS=115500000000P
+ AD=70350000000P PS=970000U PD=755000U
* device instance $12 r0 *1 4.365,2.275 pfet_01v8_hvt
M$12 19 6 17 18 pfet_01v8_hvt L=150000U W=420000U AS=70350000000P
+ AD=109200000000P PS=755000U PD=1360000U
* device instance $13 r0 *1 0.47,2.135 pfet_01v8_hvt
M$13 17 14 2 18 pfet_01v8_hvt L=150000U W=640000U AS=166400000000P
+ AD=86400000000P PS=1800000U PD=910000U
* device instance $14 r0 *1 0.89,2.135 pfet_01v8_hvt
M$14 3 2 17 18 pfet_01v8_hvt L=150000U W=640000U AS=86400000000P
+ AD=166400000000P PS=910000U PD=1800000U
* device instance $15 r0 *1 8.73,0.56 nfet_01v8
M$15 9 8 1 21 nfet_01v8 L=150000U W=650000U AS=208700000000P AD=169000000000P
+ PS=2020000U PD=1820000U
* device instance $16 r0 *1 0.47,0.445 nfet_01v8
M$16 1 14 2 21 nfet_01v8 L=150000U W=420000U AS=109200000000P AD=56700000000P
+ PS=1360000U PD=690000U
* device instance $17 r0 *1 0.89,0.445 nfet_01v8
M$17 3 2 1 21 nfet_01v8 L=150000U W=420000U AS=56700000000P AD=109200000000P
+ PS=690000U PD=1360000U
* device instance $18 r0 *1 2.64,0.415 nfet_01v8
M$18 5 2 4 21 nfet_01v8 L=150000U W=360000U AS=66000000000P AD=59400000000P
+ PS=745000U PD=690000U
* device instance $19 r0 *1 3.12,0.415 nfet_01v8
M$19 12 3 5 21 nfet_01v8 L=150000U W=360000U AS=59400000000P AD=140100000000P
+ PS=690000U PD=1100000U
* device instance $20 r0 *1 5.465,0.415 nfet_01v8
M$20 7 3 16 21 nfet_01v8 L=150000U W=360000U AS=99900000000P AD=71100000000P
+ PS=985000U PD=755000U
* device instance $21 r0 *1 6.01,0.415 nfet_01v8
M$21 11 2 7 21 nfet_01v8 L=150000U W=360000U AS=71100000000P AD=66900000000P
+ PS=755000U PD=750000U
* device instance $22 r0 *1 2.165,0.445 nfet_01v8
M$22 4 15 1 21 nfet_01v8 L=150000U W=420000U AS=220500000000P AD=66000000000P
+ PS=1890000U PD=745000U
* device instance $23 r0 *1 3.95,0.445 nfet_01v8
M$23 13 16 12 21 nfet_01v8 L=150000U W=420000U AS=140100000000P AD=44100000000P
+ PS=1100000U PD=630000U
* device instance $24 r0 *1 4.31,0.445 nfet_01v8
M$24 1 6 13 21 nfet_01v8 L=150000U W=420000U AS=44100000000P AD=134600000000P
+ PS=630000U PD=1150000U
* device instance $25 r0 *1 6.49,0.445 nfet_01v8
M$25 1 8 11 21 nfet_01v8 L=150000U W=420000U AS=66900000000P AD=124950000000P
+ PS=750000U PD=1015000U
* device instance $26 r0 *1 7.235,0.445 nfet_01v8
M$26 10 6 1 21 nfet_01v8 L=150000U W=420000U AS=124950000000P AD=64050000000P
+ PS=1015000U PD=725000U
* device instance $27 r0 *1 7.69,0.445 nfet_01v8
M$27 8 7 10 21 nfet_01v8 L=150000U W=420000U AS=64050000000P AD=109200000000P
+ PS=725000U PD=1360000U
* device instance $28 r0 *1 4.97,0.555 nfet_01v8
M$28 16 5 1 21 nfet_01v8 L=150000U W=640000U AS=134600000000P AD=99900000000P
+ PS=1150000U PD=985000U
.ENDS sky130_fd_sc_hd__dfrtp_1

* cell sky130_fd_sc_hd__dfrtp_2
* pin VGND
* pin RESET_B
* pin Q
* pin CLK
* pin D
* pin VPWR
* pin VPB
* pin 
.SUBCKT sky130_fd_sc_hd__dfrtp_2 1 6 9 14 15 17 18 21
* net 1 VGND
* net 6 RESET_B
* net 9 Q
* net 14 CLK
* net 15 D
* net 17 VPWR
* net 18 VPB
* device instance $1 r0 *1 8.73,1.985 pfet_01v8_hvt
M$1 9 8 17 18 pfet_01v8_hvt L=150000U W=2000000U AS=436200000000P
+ AD=395000000000P PS=3930000U PD=3790000U
* device instance $3 r0 *1 5.35,2.065 pfet_01v8_hvt
M$3 16 5 17 18 pfet_01v8_hvt L=150000U W=840000U AS=218400000000P
+ AD=129150000000P PS=2200000U PD=1185000U
* device instance $4 r0 *1 5.845,2.275 pfet_01v8_hvt
M$4 7 2 16 18 pfet_01v8_hvt L=150000U W=420000U AS=129150000000P
+ AD=58800000000P PS=1185000U PD=700000U
* device instance $5 r0 *1 6.275,2.275 pfet_01v8_hvt
M$5 20 3 7 18 pfet_01v8_hvt L=150000U W=420000U AS=58800000000P AD=56700000000P
+ PS=700000U PD=690000U
* device instance $6 r0 *1 6.695,2.275 pfet_01v8_hvt
M$6 17 8 20 18 pfet_01v8_hvt L=150000U W=420000U AS=56700000000P
+ AD=81900000000P PS=690000U PD=810000U
* device instance $7 r0 *1 7.235,2.275 pfet_01v8_hvt
M$7 8 6 17 18 pfet_01v8_hvt L=150000U W=420000U AS=81900000000P AD=56700000000P
+ PS=810000U PD=690000U
* device instance $8 r0 *1 7.655,2.275 pfet_01v8_hvt
M$8 17 7 8 18 pfet_01v8_hvt L=150000U W=420000U AS=56700000000P
+ AD=113400000000P PS=690000U PD=1380000U
* device instance $9 r0 *1 2.225,2.275 pfet_01v8_hvt
M$9 4 15 17 18 pfet_01v8_hvt L=150000U W=420000U AS=109200000000P
+ AD=65100000000P PS=1360000U PD=730000U
* device instance $10 r0 *1 2.685,2.275 pfet_01v8_hvt
M$10 5 3 4 18 pfet_01v8_hvt L=150000U W=420000U AS=65100000000P AD=72450000000P
+ PS=730000U PD=765000U
* device instance $11 r0 *1 3.18,2.275 pfet_01v8_hvt
M$11 19 2 5 18 pfet_01v8_hvt L=150000U W=420000U AS=72450000000P
+ AD=115500000000P PS=765000U PD=970000U
* device instance $12 r0 *1 3.88,2.275 pfet_01v8_hvt
M$12 17 16 19 18 pfet_01v8_hvt L=150000U W=420000U AS=115500000000P
+ AD=70350000000P PS=970000U PD=755000U
* device instance $13 r0 *1 4.365,2.275 pfet_01v8_hvt
M$13 19 6 17 18 pfet_01v8_hvt L=150000U W=420000U AS=70350000000P
+ AD=109200000000P PS=755000U PD=1360000U
* device instance $14 r0 *1 0.47,2.135 pfet_01v8_hvt
M$14 17 14 2 18 pfet_01v8_hvt L=150000U W=640000U AS=166400000000P
+ AD=86400000000P PS=1800000U PD=910000U
* device instance $15 r0 *1 0.89,2.135 pfet_01v8_hvt
M$15 3 2 17 18 pfet_01v8_hvt L=150000U W=640000U AS=86400000000P
+ AD=166400000000P PS=910000U PD=1800000U
* device instance $16 r0 *1 8.73,0.56 nfet_01v8
M$16 9 8 1 21 nfet_01v8 L=150000U W=1300000U AS=296450000000P AD=256750000000P
+ PS=2940000U PD=2740000U
* device instance $18 r0 *1 0.47,0.445 nfet_01v8
M$18 1 14 2 21 nfet_01v8 L=150000U W=420000U AS=109200000000P AD=56700000000P
+ PS=1360000U PD=690000U
* device instance $19 r0 *1 0.89,0.445 nfet_01v8
M$19 3 2 1 21 nfet_01v8 L=150000U W=420000U AS=56700000000P AD=109200000000P
+ PS=690000U PD=1360000U
* device instance $20 r0 *1 2.64,0.415 nfet_01v8
M$20 5 2 4 21 nfet_01v8 L=150000U W=360000U AS=66000000000P AD=59400000000P
+ PS=745000U PD=690000U
* device instance $21 r0 *1 3.12,0.415 nfet_01v8
M$21 11 3 5 21 nfet_01v8 L=150000U W=360000U AS=59400000000P AD=140100000000P
+ PS=690000U PD=1100000U
* device instance $22 r0 *1 5.465,0.415 nfet_01v8
M$22 7 3 16 21 nfet_01v8 L=150000U W=360000U AS=99900000000P AD=71100000000P
+ PS=985000U PD=755000U
* device instance $23 r0 *1 6.01,0.415 nfet_01v8
M$23 12 2 7 21 nfet_01v8 L=150000U W=360000U AS=71100000000P AD=66900000000P
+ PS=755000U PD=750000U
* device instance $24 r0 *1 2.165,0.445 nfet_01v8
M$24 4 15 1 21 nfet_01v8 L=150000U W=420000U AS=220500000000P AD=66000000000P
+ PS=1890000U PD=745000U
* device instance $25 r0 *1 3.95,0.445 nfet_01v8
M$25 13 16 11 21 nfet_01v8 L=150000U W=420000U AS=140100000000P AD=44100000000P
+ PS=1100000U PD=630000U
* device instance $26 r0 *1 4.31,0.445 nfet_01v8
M$26 1 6 13 21 nfet_01v8 L=150000U W=420000U AS=44100000000P AD=134600000000P
+ PS=630000U PD=1150000U
* device instance $27 r0 *1 6.49,0.445 nfet_01v8
M$27 1 8 12 21 nfet_01v8 L=150000U W=420000U AS=66900000000P AD=124950000000P
+ PS=750000U PD=1015000U
* device instance $28 r0 *1 7.235,0.445 nfet_01v8
M$28 10 6 1 21 nfet_01v8 L=150000U W=420000U AS=124950000000P AD=64050000000P
+ PS=1015000U PD=725000U
* device instance $29 r0 *1 7.69,0.445 nfet_01v8
M$29 8 7 10 21 nfet_01v8 L=150000U W=420000U AS=64050000000P AD=109200000000P
+ PS=725000U PD=1360000U
* device instance $30 r0 *1 4.97,0.555 nfet_01v8
M$30 16 5 1 21 nfet_01v8 L=150000U W=640000U AS=134600000000P AD=99900000000P
+ PS=1150000U PD=985000U
.ENDS sky130_fd_sc_hd__dfrtp_2

* cell sky130_fd_sc_hd__clkbuf_1
* pin VPB
* pin A
* pin X
* pin VGND
* pin VPWR
* pin 
.SUBCKT sky130_fd_sc_hd__clkbuf_1 1 3 4 5 6 7
* net 1 VPB
* net 3 A
* net 4 X
* net 5 VGND
* net 6 VPWR
* device instance $1 r0 *1 0.47,2.09 pfet_01v8_hvt
M$1 6 2 4 1 pfet_01v8_hvt L=150000U W=790000U AS=205400000000P AD=114550000000P
+ PS=2100000U PD=1080000U
* device instance $2 r0 *1 0.91,2.09 pfet_01v8_hvt
M$2 2 3 6 1 pfet_01v8_hvt L=150000U W=790000U AS=114550000000P AD=205400000000P
+ PS=1080000U PD=2100000U
* device instance $3 r0 *1 0.47,0.495 nfet_01v8