* CDL Netlist generated by OpenROAD

*.BUSDELIMITER [

.SUBCKT dual_port_ram addr_a[0] addr_a[1] addr_a[2] addr_a[3]
+ addr_b[0] addr_b[1] addr_b[2] addr_b[3] clk data_a[0] data_a[1]
+ data_a[2] data_a[3] data_a[4] data_a[5] data_a[6] data_a[7]
+ data_b[0] data_b[1] data_b[2] data_b[3] data_b[4] data_b[5]
+ data_b[6] data_b[7] q_a[0] q_a[1] q_a[2] q_a[3] q_a[4] q_a[5]
+ q_a[6] q_a[7] q_b[0] q_b[1] q_b[2] q_b[3] q_b[4] q_b[5] q_b[6]
+ q_b[7] we_a we_b
X_0772_ addr_b[1] _0144_ VDD VSS BUF_X4
X_0773_ _0144_ _0145_ VDD VSS BUF_X4
X_0774_ _0145_ _0146_ VDD VSS BUF_X4
X_0775_ ram\[4\]\[0\] ram\[6\]\[0\] _0146_ _0147_ VDD VSS
+ MUX2_X1
X_0776_ ram\[5\]\[0\] ram\[7\]\[0\] _0146_ _0148_ VDD VSS
+ MUX2_X1
X_0777_ net1 _0149_ VDD VSS BUF_X8
X_0778_ _0149_ _0150_ VDD VSS BUF_X4
X_0779_ _0147_ _0148_ _0150_ _0151_ VDD VSS MUX2_X1
X_0780_ addr_b[3] _0152_ VDD VSS BUF_X4
X_0781_ addr_b[2] _0153_ VDD VSS BUF_X8
X_0782_ _0153_ _0154_ VDD VSS INV_X8
X_0783_ _0152_ _0154_ _0155_ VDD VSS NOR2_X4
X_0784_ _0144_ _0156_ VDD VSS BUF_X4
X_0785_ ram\[12\]\[0\] ram\[14\]\[0\] _0156_ _0157_ VDD VSS
+ MUX2_X1
X_0786_ _0145_ _0158_ VDD VSS BUF_X4
X_0787_ ram\[13\]\[0\] ram\[15\]\[0\] _0158_ _0159_ VDD VSS
+ MUX2_X1
X_0788_ _0149_ _0160_ VDD VSS BUF_X4
X_0789_ _0157_ _0159_ _0160_ _0161_ VDD VSS MUX2_X1
X_0790_ _0152_ _0162_ VDD VSS INV_X4
X_0791_ _0162_ _0154_ _0163_ VDD VSS NOR2_X4
X_0792_ _0151_ _0155_ _0161_ _0163_ _0164_ VDD VSS AOI22_X1
X_0793_ ram\[0\]\[0\] ram\[2\]\[0\] _0146_ _0165_ VDD VSS
+ MUX2_X1
X_0794_ ram\[1\]\[0\] ram\[3\]\[0\] _0146_ _0166_ VDD VSS
+ MUX2_X1
X_0795_ _0165_ _0166_ _0150_ _0167_ VDD VSS MUX2_X1
X_0796_ _0152_ _0153_ _0168_ VDD VSS NOR2_X4
X_0797_ _0144_ _0169_ VDD VSS BUF_X4
X_0798_ ram\[8\]\[0\] ram\[10\]\[0\] _0169_ _0170_ VDD VSS
+ MUX2_X1
X_0799_ ram\[9\]\[0\] ram\[11\]\[0\] _0156_ _0171_ VDD VSS
+ MUX2_X1
X_0800_ _0149_ _0172_ VDD VSS BUF_X4
X_0801_ _0170_ _0171_ _0172_ _0173_ VDD VSS MUX2_X1
X_0802_ _0162_ _0153_ _0174_ VDD VSS NOR2_X4
X_0803_ _0167_ _0168_ _0173_ _0174_ _0175_ VDD VSS AOI22_X2
X_0804_ _0164_ _0175_ _0000_ VDD VSS NAND2_X1
X_0805_ _0145_ _0176_ VDD VSS BUF_X4
X_0806_ ram\[4\]\[1\] ram\[6\]\[1\] _0176_ _0177_ VDD VSS
+ MUX2_X1
X_0807_ ram\[5\]\[1\] ram\[7\]\[1\] _0146_ _0178_ VDD VSS
+ MUX2_X1
X_0808_ _0177_ _0178_ _0150_ _0179_ VDD VSS MUX2_X1
X_0809_ ram\[12\]\[1\] ram\[14\]\[1\] _0156_ _0180_ VDD VSS
+ MUX2_X1
X_0810_ ram\[13\]\[1\] ram\[15\]\[1\] _0158_ _0181_ VDD VSS
+ MUX2_X1
X_0811_ _0180_ _0181_ _0160_ _0182_ VDD VSS MUX2_X1
X_0812_ _0155_ _0179_ _0182_ _0163_ _0183_ VDD VSS AOI22_X2
X_0813_ _0145_ _0184_ VDD VSS BUF_X4
X_0814_ ram\[0\]\[1\] ram\[2\]\[1\] _0184_ _0185_ VDD VSS
+ MUX2_X1
X_0815_ ram\[1\]\[1\] ram\[3\]\[1\] _0176_ _0186_ VDD VSS
+ MUX2_X1
X_0816_ _0185_ _0186_ _0150_ _0187_ VDD VSS MUX2_X1
X_0817_ ram\[8\]\[1\] ram\[10\]\[1\] _0169_ _0188_ VDD VSS
+ MUX2_X1
X_0818_ ram\[9\]\[1\] ram\[11\]\[1\] _0156_ _0189_ VDD VSS
+ MUX2_X1
X_0819_ _0188_ _0189_ _0172_ _0190_ VDD VSS MUX2_X1
X_0820_ _0168_ _0187_ _0190_ _0174_ _0191_ VDD VSS AOI22_X1
X_0821_ _0183_ _0191_ _0001_ VDD VSS NAND2_X1
X_0822_ ram\[4\]\[2\] ram\[6\]\[2\] _0176_ _0192_ VDD VSS
+ MUX2_X1
X_0823_ ram\[5\]\[2\] ram\[7\]\[2\] _0146_ _0193_ VDD VSS
+ MUX2_X1
X_0824_ _0192_ _0193_ _0150_ _0194_ VDD VSS MUX2_X1
X_0825_ ram\[12\]\[2\] ram\[14\]\[2\] _0156_ _0195_ VDD VSS
+ MUX2_X1
X_0826_ ram\[13\]\[2\] ram\[15\]\[2\] _0158_ _0196_ VDD VSS
+ MUX2_X1
X_0827_ _0195_ _0196_ _0160_ _0197_ VDD VSS MUX2_X1
X_0828_ _0155_ _0194_ _0197_ _0163_ _0198_ VDD VSS AOI22_X2
X_0829_ ram\[0\]\[2\] ram\[2\]\[2\] _0184_ _0199_ VDD VSS
+ MUX2_X1
X_0830_ ram\[1\]\[2\] ram\[3\]\[2\] _0176_ _0200_ VDD VSS
+ MUX2_X1
X_0831_ _0199_ _0200_ _0160_ _0201_ VDD VSS MUX2_X1
X_0832_ ram\[8\]\[2\] ram\[10\]\[2\] _0169_ _0202_ VDD VSS
+ MUX2_X1
X_0833_ ram\[9\]\[2\] ram\[11\]\[2\] _0169_ _0203_ VDD VSS
+ MUX2_X1
X_0834_ _0202_ _0203_ _0172_ _0204_ VDD VSS MUX2_X1
X_0835_ _0168_ _0201_ _0204_ _0174_ _0205_ VDD VSS AOI22_X1
X_0836_ _0198_ _0205_ _0002_ VDD VSS NAND2_X1
X_0837_ ram\[4\]\[3\] ram\[6\]\[3\] _0176_ _0206_ VDD VSS
+ MUX2_X1
X_0838_ ram\[5\]\[3\] ram\[7\]\[3\] _0146_ _0207_ VDD VSS
+ MUX2_X1
X_0839_ _0206_ _0207_ _0150_ _0208_ VDD VSS MUX2_X1
X_0840_ ram\[12\]\[3\] ram\[14\]\[3\] _0156_ _0209_ VDD VSS
+ MUX2_X1
X_0841_ ram\[13\]\[3\] ram\[15\]\[3\] _0158_ _0210_ VDD VSS
+ MUX2_X1
X_0842_ _0209_ _0210_ _0160_ _0211_ VDD VSS MUX2_X1
X_0843_ _0155_ _0208_ _0211_ _0163_ _0212_ VDD VSS AOI22_X1
X_0844_ ram\[0\]\[3\] ram\[2\]\[3\] _0184_ _0213_ VDD VSS
+ MUX2_X1
X_0845_ ram\[1\]\[3\] ram\[3\]\[3\] _0184_ _0214_ VDD VSS
+ MUX2_X1
X_0846_ _0213_ _0214_ _0160_ _0215_ VDD VSS MUX2_X1
X_0847_ ram\[8\]\[3\] ram\[10\]\[3\] _0169_ _0216_ VDD VSS
+ MUX2_X1
X_0848_ ram\[9\]\[3\] ram\[11\]\[3\] _0169_ _0217_ VDD VSS
+ MUX2_X1
X_0849_ _0216_ _0217_ _0172_ _0218_ VDD VSS MUX2_X1
X_0850_ _0168_ _0215_ _0218_ _0174_ _0219_ VDD VSS AOI22_X1
X_0851_ _0212_ _0219_ _0003_ VDD VSS NAND2_X1
X_0852_ ram\[4\]\[4\] ram\[6\]\[4\] _0176_ _0220_ VDD VSS
+ MUX2_X1
X_0853_ ram\[5\]\[4\] ram\[7\]\[4\] _0146_ _0221_ VDD VSS
+ MUX2_X1
X_0854_ _0220_ _0221_ _0150_ _0222_ VDD VSS MUX2_X1
X_0855_ ram\[12\]\[4\] ram\[14\]\[4\] _0156_ _0223_ VDD VSS
+ MUX2_X1
X_0856_ ram\[13\]\[4\] ram\[15\]\[4\] _0158_ _0224_ VDD VSS
+ MUX2_X1
X_0857_ _0223_ _0224_ _0172_ _0225_ VDD VSS MUX2_X1
X_0858_ _0155_ _0222_ _0225_ _0163_ _0226_ VDD VSS AOI22_X2
X_0859_ ram\[0\]\[4\] ram\[2\]\[4\] _0184_ _0227_ VDD VSS
+ MUX2_X1
X_0860_ ram\[1\]\[4\] ram\[3\]\[4\] _0184_ _0228_ VDD VSS
+ MUX2_X1
X_0861_ _0227_ _0228_ _0160_ _0229_ VDD VSS MUX2_X1
X_0862_ ram\[8\]\[4\] ram\[10\]\[4\] _0145_ _0230_ VDD VSS
+ MUX2_X1
X_0863_ ram\[9\]\[4\] ram\[11\]\[4\] _0169_ _0231_ VDD VSS
+ MUX2_X1
X_0864_ _0230_ _0231_ _0172_ _0232_ VDD VSS MUX2_X1
X_0865_ _0168_ _0229_ _0232_ _0174_ _0233_ VDD VSS AOI22_X1
X_0866_ _0226_ _0233_ _0004_ VDD VSS NAND2_X1
X_0867_ ram\[4\]\[5\] ram\[6\]\[5\] _0176_ _0234_ VDD VSS
+ MUX2_X1
X_0868_ ram\[5\]\[5\] ram\[7\]\[5\] _0146_ _0235_ VDD VSS
+ MUX2_X1
X_0869_ _0234_ _0235_ _0150_ _0236_ VDD VSS MUX2_X1
X_0870_ ram\[12\]\[5\] ram\[14\]\[5\] _0156_ _0237_ VDD VSS
+ MUX2_X1
X_0871_ ram\[13\]\[5\] ram\[15\]\[5\] _0158_ _0238_ VDD VSS
+ MUX2_X1
X_0872_ _0237_ _0238_ _0172_ _0239_ VDD VSS MUX2_X1
X_0873_ _0155_ _0236_ _0239_ _0163_ _0240_ VDD VSS AOI22_X1
X_0874_ ram\[0\]\[5\] ram\[2\]\[5\] _0184_ _0241_ VDD VSS
+ MUX2_X1
X_0875_ ram\[1\]\[5\] ram\[3\]\[5\] _0184_ _0242_ VDD VSS
+ MUX2_X1
X_0876_ _0241_ _0242_ _0160_ _0243_ VDD VSS MUX2_X1
X_0877_ ram\[8\]\[5\] ram\[10\]\[5\] _0145_ _0244_ VDD VSS
+ MUX2_X1
X_0878_ ram\[9\]\[5\] ram\[11\]\[5\] _0169_ _0245_ VDD VSS
+ MUX2_X1
X_0879_ _0244_ _0245_ _0172_ _0246_ VDD VSS MUX2_X1
X_0880_ _0168_ _0243_ _0246_ _0174_ _0247_ VDD VSS AOI22_X1
X_0881_ _0240_ _0247_ _0005_ VDD VSS NAND2_X1
X_0882_ ram\[4\]\[6\] ram\[6\]\[6\] _0176_ _0248_ VDD VSS
+ MUX2_X1
X_0883_ ram\[5\]\[6\] ram\[7\]\[6\] _0146_ _0249_ VDD VSS
+ MUX2_X1
X_0884_ _0248_ _0249_ _0150_ _0250_ VDD VSS MUX2_X1
X_0885_ ram\[12\]\[6\] ram\[14\]\[6\] _0156_ _0251_ VDD VSS
+ MUX2_X1
X_0886_ ram\[13\]\[6\] ram\[15\]\[6\] _0158_ _0252_ VDD VSS
+ MUX2_X1
X_0887_ _0251_ _0252_ _0172_ _0253_ VDD VSS MUX2_X1
X_0888_ _0155_ _0250_ _0253_ _0163_ _0254_ VDD VSS AOI22_X2
X_0889_ ram\[0\]\[6\] ram\[2\]\[6\] _0158_ _0255_ VDD VSS
+ MUX2_X1
X_0890_ ram\[1\]\[6\] ram\[3\]\[6\] _0184_ _0256_ VDD VSS
+ MUX2_X1
X_0891_ _0255_ _0256_ _0160_ _0257_ VDD VSS MUX2_X1
X_0892_ ram\[8\]\[6\] ram\[10\]\[6\] _0145_ _0258_ VDD VSS
+ MUX2_X1
X_0893_ ram\[9\]\[6\] ram\[11\]\[6\] _0169_ _0259_ VDD VSS
+ MUX2_X1
X_0894_ _0258_ _0259_ _0149_ _0260_ VDD VSS MUX2_X1
X_0895_ _0168_ _0257_ _0260_ _0174_ _0261_ VDD VSS AOI22_X1
X_0896_ _0254_ _0261_ _0006_ VDD VSS NAND2_X1
X_0897_ ram\[4\]\[7\] ram\[6\]\[7\] _0176_ _0262_ VDD VSS
+ MUX2_X1
X_0898_ ram\[5\]\[7\] ram\[7\]\[7\] _0176_ _0263_ VDD VSS
+ MUX2_X1
X_0899_ _0262_ _0263_ _0150_ _0264_ VDD VSS MUX2_X1
X_0900_ ram\[12\]\[7\] ram\[14\]\[7\] _0156_ _0265_ VDD VSS
+ MUX2_X1
X_0901_ ram\[13\]\[7\] ram\[15\]\[7\] _0158_ _0266_ VDD VSS
+ MUX2_X1
X_0902_ _0265_ _0266_ _0172_ _0267_ VDD VSS MUX2_X1
X_0903_ _0155_ _0264_ _0267_ _0163_ _0268_ VDD VSS AOI22_X1
X_0904_ ram\[0\]\[7\] ram\[2\]\[7\] _0158_ _0269_ VDD VSS
+ MUX2_X1
X_0905_ ram\[1\]\[7\] ram\[3\]\[7\] _0184_ _0270_ VDD VSS
+ MUX2_X1
X_0906_ _0269_ _0270_ _0160_ _0271_ VDD VSS MUX2_X1
X_0907_ ram\[8\]\[7\] ram\[10\]\[7\] _0145_ _0272_ VDD VSS
+ MUX2_X1
X_0908_ ram\[9\]\[7\] ram\[11\]\[7\] _0169_ _0273_ VDD VSS
+ MUX2_X1
X_0909_ _0272_ _0273_ _0149_ _0274_ VDD VSS MUX2_X1
X_0910_ _0168_ _0271_ _0274_ _0174_ _0275_ VDD VSS AOI22_X1
X_0911_ _0268_ _0275_ _0007_ VDD VSS NAND2_X1
X_0912_ addr_a[1] _0276_ VDD VSS BUF_X4
X_0913_ _0276_ _0277_ VDD VSS BUF_X4
X_0914_ ram\[4\]\[0\] ram\[6\]\[0\] _0277_ _0278_ VDD VSS
+ MUX2_X1
X_0915_ ram\[5\]\[0\] ram\[7\]\[0\] _0277_ _0279_ VDD VSS
+ MUX2_X1
X_0916_ addr_a[0] _0280_ VDD VSS BUF_X4
X_0917_ _0280_ _0281_ VDD VSS BUF_X4
X_0918_ _0278_ _0279_ _0281_ _0282_ VDD VSS MUX2_X1
X_0919_ addr_a[3] _0283_ VDD VSS BUF_X8
X_0920_ addr_a[2] _0284_ VDD VSS BUF_X8
X_0921_ _0284_ _0285_ VDD VSS INV_X4
X_0922_ _0283_ _0285_ _0286_ VDD VSS NOR2_X4
X_0923_ _0276_ _0287_ VDD VSS BUF_X4
X_0924_ ram\[12\]\[0\] ram\[14\]\[0\] _0287_ _0288_ VDD VSS
+ MUX2_X1
X_0925_ _0276_ _0289_ VDD VSS BUF_X4
X_0926_ ram\[13\]\[0\] ram\[15\]\[0\] _0289_ _0290_ VDD VSS
+ MUX2_X1
X_0927_ _0280_ _0291_ VDD VSS BUF_X4
X_0928_ _0288_ _0290_ _0291_ _0292_ VDD VSS MUX2_X1
X_0929_ _0283_ _0293_ VDD VSS INV_X4
X_0930_ _0293_ _0285_ _0294_ VDD VSS NOR2_X4
X_0931_ _0282_ _0286_ _0292_ _0294_ _0295_ VDD VSS AOI22_X1
X_0932_ ram\[0\]\[0\] ram\[2\]\[0\] _0277_ _0296_ VDD VSS
+ MUX2_X1
X_0933_ ram\[1\]\[0\] ram\[3\]\[0\] _0277_ _0297_ VDD VSS
+ MUX2_X1
X_0934_ _0296_ _0297_ _0281_ _0298_ VDD VSS MUX2_X1
X_0935_ _0283_ _0284_ _0299_ VDD VSS NOR2_X4
X_0936_ _0276_ _0300_ VDD VSS BUF_X4
X_0937_ ram\[8\]\[0\] ram\[10\]\[0\] _0300_ _0301_ VDD VSS
+ MUX2_X1
X_0938_ _0276_ _0302_ VDD VSS BUF_X4
X_0939_ ram\[9\]\[0\] ram\[11\]\[0\] _0302_ _0303_ VDD VSS
+ MUX2_X1
X_0940_ _0280_ _0304_ VDD VSS BUF_X4
X_0941_ _0301_ _0303_ _0304_ _0305_ VDD VSS MUX2_X1
X_0942_ _0293_ _0284_ _0306_ VDD VSS NOR2_X4
X_0943_ _0298_ _0299_ _0305_ _0306_ _0307_ VDD VSS AOI22_X2
X_0944_ _0295_ _0307_ _0008_ VDD VSS NAND2_X1
X_0945_ _0276_ _0308_ VDD VSS BUF_X4
X_0946_ ram\[4\]\[1\] ram\[6\]\[1\] _0308_ _0309_ VDD VSS
+ MUX2_X1
X_0947_ ram\[5\]\[1\] ram\[7\]\[1\] _0277_ _0310_ VDD VSS
+ MUX2_X1
X_0948_ _0309_ _0310_ _0281_ _0311_ VDD VSS MUX2_X1
X_0949_ ram\[12\]\[1\] ram\[14\]\[1\] _0287_ _0312_ VDD VSS
+ MUX2_X1
X_0950_ ram\[13\]\[1\] ram\[15\]\[1\] _0289_ _0313_ VDD VSS
+ MUX2_X1
X_0951_ _0312_ _0313_ _0291_ _0314_ VDD VSS MUX2_X1
X_0952_ _0286_ _0311_ _0314_ _0294_ _0315_ VDD VSS AOI22_X1
X_0953_ _0276_ _0316_ VDD VSS BUF_X4
X_0954_ ram\[0\]\[1\] ram\[2\]\[1\] _0316_ _0317_ VDD VSS
+ MUX2_X1
X_0955_ ram\[1\]\[1\] ram\[3\]\[1\] _0316_ _0318_ VDD VSS
+ MUX2_X1
X_0956_ _0317_ _0318_ _0281_ _0319_ VDD VSS MUX2_X1
X_0957_ ram\[8\]\[1\] ram\[10\]\[1\] _0300_ _0320_ VDD VSS
+ MUX2_X1
X_0958_ ram\[9\]\[1\] ram\[11\]\[1\] _0302_ _0321_ VDD VSS
+ MUX2_X1
X_0959_ _0320_ _0321_ _0304_ _0322_ VDD VSS MUX2_X1
X_0960_ _0299_ _0319_ _0322_ _0306_ _0323_ VDD VSS AOI22_X2
X_0961_ _0315_ _0323_ _0009_ VDD VSS NAND2_X1
X_0962_ ram\[4\]\[2\] ram\[6\]\[2\] _0308_ _0324_ VDD VSS
+ MUX2_X1
X_0963_ ram\[5\]\[2\] ram\[7\]\[2\] _0277_ _0325_ VDD VSS
+ MUX2_X1
X_0964_ _0324_ _0325_ _0281_ _0326_ VDD VSS MUX2_X1
X_0965_ ram\[12\]\[2\] ram\[14\]\[2\] _0287_ _0327_ VDD VSS
+ MUX2_X1
X_0966_ ram\[13\]\[2\] ram\[15\]\[2\] _0289_ _0328_ VDD VSS
+ MUX2_X1
X_0967_ _0327_ _0328_ _0291_ _0329_ VDD VSS MUX2_X1
X_0968_ _0286_ _0326_ _0329_ _0294_ _0330_ VDD VSS AOI22_X1
X_0969_ ram\[0\]\[2\] ram\[2\]\[2\] _0289_ _0331_ VDD VSS
+ MUX2_X1
X_0970_ ram\[1\]\[2\] ram\[3\]\[2\] _0316_ _0332_ VDD VSS
+ MUX2_X1
X_0971_ _0331_ _0332_ _0291_ _0333_ VDD VSS MUX2_X1
X_0972_ ram\[8\]\[2\] ram\[10\]\[2\] _0300_ _0334_ VDD VSS
+ MUX2_X1
X_0973_ ram\[9\]\[2\] ram\[11\]\[2\] _0302_ _0335_ VDD VSS
+ MUX2_X1
X_0974_ _0334_ _0335_ _0304_ _0336_ VDD VSS MUX2_X1
X_0975_ _0299_ _0333_ _0336_ _0306_ _0337_ VDD VSS AOI22_X1
X_0976_ _0330_ _0337_ _0010_ VDD VSS NAND2_X1
X_0977_ ram\[4\]\[3\] ram\[6\]\[3\] _0308_ _0338_ VDD VSS
+ MUX2_X1
X_0978_ ram\[5\]\[3\] ram\[7\]\[3\] _0308_ _0339_ VDD VSS
+ MUX2_X1
X_0979_ _0338_ _0339_ _0281_ _0340_ VDD VSS MUX2_X1
X_0980_ ram\[12\]\[3\] ram\[14\]\[3\] _0287_ _0341_ VDD VSS
+ MUX2_X1
X_0981_ ram\[13\]\[3\] ram\[15\]\[3\] _0289_ _0342_ VDD VSS
+ MUX2_X1
X_0982_ _0341_ _0342_ _0291_ _0343_ VDD VSS MUX2_X1
X_0983_ _0286_ _0340_ _0343_ _0294_ _0344_ VDD VSS AOI22_X1
X_0984_ ram\[0\]\[3\] ram\[2\]\[3\] _0289_ _0345_ VDD VSS
+ MUX2_X1
X_0985_ ram\[1\]\[3\] ram\[3\]\[3\] _0316_ _0346_ VDD VSS
+ MUX2_X1
X_0986_ _0345_ _0346_ _0291_ _0347_ VDD VSS MUX2_X1
X_0987_ ram\[8\]\[3\] ram\[10\]\[3\] _0300_ _0348_ VDD VSS
+ MUX2_X1
X_0988_ ram\[9\]\[3\] ram\[11\]\[3\] _0302_ _0349_ VDD VSS
+ MUX2_X1
X_0989_ _0348_ _0349_ _0304_ _0350_ VDD VSS MUX2_X1
X_0990_ _0299_ _0347_ _0350_ _0306_ _0351_ VDD VSS AOI22_X1
X_0991_ _0344_ _0351_ _0011_ VDD VSS NAND2_X1
X_0992_ ram\[4\]\[4\] ram\[6\]\[4\] _0308_ _0352_ VDD VSS
+ MUX2_X1
X_0993_ ram\[5\]\[4\] ram\[7\]\[4\] _0308_ _0353_ VDD VSS
+ MUX2_X1
X_0994_ _0352_ _0353_ _0281_ _0354_ VDD VSS MUX2_X1
X_0995_ ram\[12\]\[4\] ram\[14\]\[4\] _0287_ _0355_ VDD VSS
+ MUX2_X1
X_0996_ ram\[13\]\[4\] ram\[15\]\[4\] _0287_ _0356_ VDD VSS
+ MUX2_X1
X_0997_ _0355_ _0356_ _0304_ _0357_ VDD VSS MUX2_X1
X_0998_ _0286_ _0354_ _0357_ _0294_ _0358_ VDD VSS AOI22_X1
X_0999_ ram\[0\]\[4\] ram\[2\]\[4\] _0289_ _0359_ VDD VSS
+ MUX2_X1
X_1000_ ram\[1\]\[4\] ram\[3\]\[4\] _0316_ _0360_ VDD VSS
+ MUX2_X1
X_1001_ _0359_ _0360_ _0291_ _0361_ VDD VSS MUX2_X1
X_1002_ ram\[8\]\[4\] ram\[10\]\[4\] _0300_ _0362_ VDD VSS
+ MUX2_X1
X_1003_ ram\[9\]\[4\] ram\[11\]\[4\] _0302_ _0363_ VDD VSS
+ MUX2_X1
X_1004_ _0362_ _0363_ _0304_ _0364_ VDD VSS MUX2_X1
X_1005_ _0299_ _0361_ _0364_ _0306_ _0365_ VDD VSS AOI22_X2
X_1006_ _0358_ _0365_ _0012_ VDD VSS NAND2_X1
X_1007_ ram\[4\]\[5\] ram\[6\]\[5\] _0308_ _0366_ VDD VSS
+ MUX2_X1
X_1008_ ram\[5\]\[5\] ram\[7\]\[5\] _0308_ _0367_ VDD VSS
+ MUX2_X1
X_1009_ _0366_ _0367_ _0281_ _0368_ VDD VSS MUX2_X1
X_1010_ ram\[12\]\[5\] ram\[14\]\[5\] _0287_ _0369_ VDD VSS
+ MUX2_X1
X_1011_ ram\[13\]\[5\] ram\[15\]\[5\] _0287_ _0370_ VDD VSS
+ MUX2_X1
X_1012_ _0369_ _0370_ _0304_ _0371_ VDD VSS MUX2_X1
X_1013_ _0286_ _0368_ _0371_ _0294_ _0372_ VDD VSS AOI22_X1
X_1014_ ram\[0\]\[5\] ram\[2\]\[5\] _0289_ _0373_ VDD VSS
+ MUX2_X1
X_1015_ ram\[1\]\[5\] ram\[3\]\[5\] _0316_ _0374_ VDD VSS
+ MUX2_X1
X_1016_ _0373_ _0374_ _0291_ _0375_ VDD VSS MUX2_X1
X_1017_ ram\[8\]\[5\] ram\[10\]\[5\] _0300_ _0376_ VDD VSS
+ MUX2_X1
X_1018_ ram\[9\]\[5\] ram\[11\]\[5\] _0302_ _0377_ VDD VSS
+ MUX2_X1
X_1019_ _0376_ _0377_ _0304_ _0378_ VDD VSS MUX2_X1
X_1020_ _0299_ _0375_ _0378_ _0306_ _0379_ VDD VSS AOI22_X1
X_1021_ _0372_ _0379_ _0013_ VDD VSS NAND2_X1
X_1022_ ram\[4\]\[6\] ram\[6\]\[6\] _0316_ _0380_ VDD VSS
+ MUX2_X1
X_1023_ ram\[5\]\[6\] ram\[7\]\[6\] _0308_ _0381_ VDD VSS
+ MUX2_X1
X_1024_ _0380_ _0381_ _0281_ _0382_ VDD VSS MUX2_X1
X_1025_ ram\[12\]\[6\] ram\[14\]\[6\] _0302_ _0383_ VDD VSS
+ MUX2_X1
X_1026_ ram\[13\]\[6\] ram\[15\]\[6\] _0287_ _0384_ VDD VSS
+ MUX2_X1
X_1027_ _0383_ _0384_ _0304_ _0385_ VDD VSS MUX2_X1
X_1028_ _0286_ _0382_ _0385_ _0294_ _0386_ VDD VSS AOI22_X2
X_1029_ ram\[0\]\[6\] ram\[2\]\[6\] _0289_ _0387_ VDD VSS
+ MUX2_X1
X_1030_ ram\[1\]\[6\] ram\[3\]\[6\] _0316_ _0388_ VDD VSS
+ MUX2_X1
X_1031_ _0387_ _0388_ _0291_ _0389_ VDD VSS MUX2_X1
X_1032_ ram\[8\]\[6\] ram\[10\]\[6\] _0300_ _0390_ VDD VSS
+ MUX2_X1
X_1033_ ram\[9\]\[6\] ram\[11\]\[6\] _0302_ _0391_ VDD VSS
+ MUX2_X1
X_1034_ _0390_ _0391_ _0280_ _0392_ VDD VSS MUX2_X1
X_1035_ _0299_ _0389_ _0392_ _0306_ _0393_ VDD VSS AOI22_X1
X_1036_ _0386_ _0393_ _0014_ VDD VSS NAND2_X1
X_1037_ ram\[4\]\[7\] ram\[6\]\[7\] _0316_ _0394_ VDD VSS
+ MUX2_X1
X_1038_ ram\[5\]\[7\] ram\[7\]\[7\] _0308_ _0395_ VDD VSS
+ MUX2_X1
X_1039_ _0394_ _0395_ _0281_ _0396_ VDD VSS MUX2_X1
X_1040_ ram\[12\]\[7\] ram\[14\]\[7\] _0302_ _0397_ VDD VSS
+ MUX2_X1
X_1041_ ram\[13\]\[7\] ram\[15\]\[7\] _0287_ _0398_ VDD VSS
+ MUX2_X1
X_1042_ _0397_ _0398_ _0304_ _0399_ VDD VSS MUX2_X1
X_1043_ _0286_ _0396_ _0399_ _0294_ _0400_ VDD VSS AOI22_X1
X_1044_ ram\[0\]\[7\] ram\[2\]\[7\] _0289_ _0401_ VDD VSS
+ MUX2_X1
X_1045_ ram\[1\]\[7\] ram\[3\]\[7\] _0316_ _0402_ VDD VSS
+ MUX2_X1
X_1046_ _0401_ _0402_ _0291_ _0403_ VDD VSS MUX2_X1
X_1047_ ram\[8\]\[7\] ram\[10\]\[7\] _0300_ _0404_ VDD VSS
+ MUX2_X1
X_1048_ ram\[9\]\[7\] ram\[11\]\[7\] _0302_ _0405_ VDD VSS
+ MUX2_X1
X_1049_ _0404_ _0405_ _0280_ _0406_ VDD VSS MUX2_X1
X_1050_ _0299_ _0403_ _0406_ _0306_ _0407_ VDD VSS AOI22_X1
X_1051_ _0400_ _0407_ _0015_ VDD VSS NAND2_X1
X_1052_ data_b[0] _0408_ VDD VSS BUF_X2
X_1053_ _0408_ _0409_ VDD VSS BUF_X2
X_1054_ we_b _0410_ VDD VSS BUF_X4
X_1055_ _0162_ _0154_ _0410_ _0411_ VDD VSS NAND3_X4
X_1056_ _0149_ _0145_ _0411_ _0412_ VDD VSS NOR3_X4
X_1057_ ram\[0\]\[0\] _0409_ _0412_ _0413_ VDD VSS MUX2_X1
X_1058_ data_a[0] _0414_ VDD VSS BUF_X2
X_1059_ _0414_ _0415_ VDD VSS BUF_X2
X_1060_ we_a _0416_ VDD VSS BUF_X4
X_1061_ _0280_ _0417_ VDD VSS INV_X2
X_1062_ _0416_ _0417_ _0285_ _0418_ VDD VSS NAND3_X4
X_1063_ _0277_ _0283_ _0418_ _0419_ VDD VSS NOR3_X4
X_1064_ _0413_ _0415_ _0419_ _0016_ VDD VSS MUX2_X1
X_1065_ data_b[1] _0420_ VDD VSS BUF_X2
X_1066_ _0420_ _0421_ VDD VSS BUF_X2
X_1067_ ram\[0\]\[1\] _0421_ _0412_ _0422_ VDD VSS MUX2_X1
X_1068_ data_a[1] _0423_ VDD VSS BUF_X2
X_1069_ _0423_ _0424_ VDD VSS BUF_X2
X_1070_ _0422_ _0424_ _0419_ _0017_ VDD VSS MUX2_X1
X_1071_ data_b[2] _0425_ VDD VSS BUF_X2
X_1072_ _0425_ _0426_ VDD VSS CLKBUF_X3
X_1073_ ram\[0\]\[2\] _0426_ _0412_ _0427_ VDD VSS MUX2_X1
X_1074_ data_a[2] _0428_ VDD VSS BUF_X2
X_1075_ _0428_ _0429_ VDD VSS CLKBUF_X3
X_1076_ _0427_ _0429_ _0419_ _0018_ VDD VSS MUX2_X1
X_1077_ data_b[3] _0430_ VDD VSS BUF_X2
X_1078_ _0430_ _0431_ VDD VSS BUF_X2
X_1079_ ram\[0\]\[3\] _0431_ _0412_ _0432_ VDD VSS MUX2_X1
X_1080_ data_a[3] _0433_ VDD VSS BUF_X2
X_1081_ _0433_ _0434_ VDD VSS BUF_X2
X_1082_ _0432_ _0434_ _0419_ _0019_ VDD VSS MUX2_X1
X_1083_ data_b[4] _0435_ VDD VSS BUF_X2
X_1084_ _0435_ _0436_ VDD VSS CLKBUF_X3
X_1085_ ram\[0\]\[4\] _0436_ _0412_ _0437_ VDD VSS MUX2_X1
X_1086_ data_a[4] _0438_ VDD VSS BUF_X2
X_1087_ _0438_ _0439_ VDD VSS CLKBUF_X3
X_1088_ _0437_ _0439_ _0419_ _0020_ VDD VSS MUX2_X1
X_1089_ data_b[5] _0440_ VDD VSS BUF_X2
X_1090_ _0440_ _0441_ VDD VSS BUF_X2
X_1091_ ram\[0\]\[5\] _0441_ _0412_ _0442_ VDD VSS MUX2_X1
X_1092_ data_a[5] _0443_ VDD VSS BUF_X2
X_1093_ _0443_ _0444_ VDD VSS CLKBUF_X3
X_1094_ _0442_ _0444_ _0419_ _0021_ VDD VSS MUX2_X1
X_1095_ data_b[6] _0445_ VDD VSS BUF_X2
X_1096_ _0445_ _0446_ VDD VSS BUF_X2
X_1097_ ram\[0\]\[6\] _0446_ _0412_ _0447_ VDD VSS MUX2_X1
X_1098_ data_a[6] _0448_ VDD VSS BUF_X2
X_1099_ _0448_ _0449_ VDD VSS BUF_X2
X_1100_ _0447_ _0449_ _0419_ _0022_ VDD VSS MUX2_X1
X_1101_ data_b[7] _0450_ VDD VSS BUF_X2
X_1102_ _0450_ _0451_ VDD VSS BUF_X2
X_1103_ ram\[0\]\[7\] _0451_ _0412_ _0452_ VDD VSS MUX2_X1
X_1104_ data_a[7] _0453_ VDD VSS BUF_X2
X_1105_ _0453_ _0454_ VDD VSS BUF_X2
X_1106_ _0452_ _0454_ _0419_ _0023_ VDD VSS MUX2_X1
X_1107_ net1 _0455_ VDD VSS INV_X1
X_1108_ _0455_ _0144_ _0456_ VDD VSS NAND2_X4
X_1109_ _0152_ _0154_ _0410_ _0457_ VDD VSS NAND3_X4
X_1110_ _0456_ _0457_ _0458_ VDD VSS NOR2_X4
X_1111_ ram\[10\]\[0\] _0409_ _0458_ _0459_ VDD VSS MUX2_X1
X_1112_ _0300_ _0283_ _0460_ VDD VSS NAND2_X4
X_1113_ _0418_ _0460_ _0461_ VDD VSS NOR2_X4
X_1114_ _0459_ _0415_ _0461_ _0024_ VDD VSS MUX2_X1
X_1115_ ram\[10\]\[1\] _0421_ _0458_ _0462_ VDD VSS MUX2_X1
X_1116_ _0462_ _0424_ _0461_ _0025_ VDD VSS MUX2_X1
X_1117_ ram\[10\]\[2\] _0426_ _0458_ _0463_ VDD VSS MUX2_X1
X_1118_ _0463_ _0429_ _0461_ _0026_ VDD VSS MUX2_X1
X_1119_ ram\[10\]\[3\] _0431_ _0458_ _0464_ VDD VSS MUX2_X1
X_1120_ _0464_ _0434_ _0461_ _0027_ VDD VSS MUX2_X1
X_1121_ ram\[10\]\[4\] _0436_ _0458_ _0465_ VDD VSS MUX2_X1
X_1122_ _0465_ _0439_ _0461_ _0028_ VDD VSS MUX2_X1
X_1123_ ram\[10\]\[5\] _0441_ _0458_ _0466_ VDD VSS MUX2_X1
X_1124_ _0466_ _0444_ _0461_ _0029_ VDD VSS MUX2_X1
X_1125_ ram\[10\]\[6\] _0446_ _0458_ _0467_ VDD VSS MUX2_X1
X_1126_ _0467_ _0449_ _0461_ _0030_ VDD VSS MUX2_X1
X_1127_ ram\[10\]\[7\] _0451_ _0458_ _0468_ VDD VSS MUX2_X1
X_1128_ _0468_ _0454_ _0461_ _0031_ VDD VSS MUX2_X1
X_1129_ _0149_ _0144_ _0469_ VDD VSS NAND2_X4
X_1130_ _0457_ _0469_ _0470_ VDD VSS OR2_X1
X_1131_ _0470_ _0471_ VDD VSS BUF_X4
X_1132_ _0408_ ram\[11\]\[0\] _0471_ _0472_ VDD VSS MUX2_X1
X_1133_ _0416_ _0280_ _0285_ _0473_ VDD VSS NAND3_X4
X_1134_ _0460_ _0473_ _0474_ VDD VSS NOR2_X4
X_1135_ _0472_ _0415_ _0474_ _0032_ VDD VSS MUX2_X1
X_1136_ _0420_ ram\[11\]\[1\] _0471_ _0475_ VDD VSS MUX2_X1
X_1137_ _0475_ _0424_ _0474_ _0033_ VDD VSS MUX2_X1
X_1138_ _0425_ ram\[11\]\[2\] _0471_ _0476_ VDD VSS MUX2_X1
X_1139_ _0476_ _0429_ _0474_ _0034_ VDD VSS MUX2_X1
X_1140_ _0430_ ram\[11\]\[3\] _0471_ _0477_ VDD VSS MUX2_X1
X_1141_ _0477_ _0434_ _0474_ _0035_ VDD VSS MUX2_X1
X_1142_ _0435_ ram\[11\]\[4\] _0471_ _0478_ VDD VSS MUX2_X1
X_1143_ _0478_ _0439_ _0474_ _0036_ VDD VSS MUX2_X1
X_1144_ _0440_ ram\[11\]\[5\] _0471_ _0479_ VDD VSS MUX2_X1
X_1145_ _0479_ _0444_ _0474_ _0037_ VDD VSS MUX2_X1
X_1146_ _0445_ ram\[11\]\[6\] _0471_ _0480_ VDD VSS MUX2_X1
X_1147_ _0480_ _0449_ _0474_ _0038_ VDD VSS MUX2_X1
X_1148_ _0450_ ram\[11\]\[7\] _0471_ _0481_ VDD VSS MUX2_X1
X_1149_ _0481_ _0454_ _0474_ _0039_ VDD VSS MUX2_X1
X_1150_ _0152_ _0153_ _0410_ _0482_ VDD VSS NAND3_X4
X_1151_ _0149_ _0144_ _0482_ _0483_ VDD VSS OR3_X1
X_1152_ _0483_ _0484_ VDD VSS BUF_X8
X_1153_ _0408_ ram\[12\]\[0\] _0484_ _0485_ VDD VSS MUX2_X1
X_1154_ _0276_ _0293_ _0486_ VDD VSS OR2_X4
X_1155_ _0416_ _0417_ _0284_ _0487_ VDD VSS NAND3_X4
X_1156_ _0486_ _0487_ _0488_ VDD VSS NOR2_X4
X_1157_ _0485_ _0415_ _0488_ _0040_ VDD VSS MUX2_X1
X_1158_ _0420_ ram\[12\]\[1\] _0484_ _0489_ VDD VSS MUX2_X1
X_1159_ _0489_ _0424_ _0488_ _0041_ VDD VSS MUX2_X1
X_1160_ _0425_ ram\[12\]\[2\] _0484_ _0490_ VDD VSS MUX2_X1
X_1161_ _0490_ _0429_ _0488_ _0042_ VDD VSS MUX2_X1
X_1162_ _0430_ ram\[12\]\[3\] _0484_ _0491_ VDD VSS MUX2_X1
X_1163_ _0491_ _0434_ _0488_ _0043_ VDD VSS MUX2_X1
X_1164_ _0435_ ram\[12\]\[4\] _0484_ _0492_ VDD VSS MUX2_X1
X_1165_ _0492_ _0439_ _0488_ _0044_ VDD VSS MUX2_X1
X_1166_ _0440_ ram\[12\]\[5\] _0484_ _0493_ VDD VSS MUX2_X1
X_1167_ _0493_ _0444_ _0488_ _0045_ VDD VSS MUX2_X1
X_1168_ _0445_ ram\[12\]\[6\] _0484_ _0494_ VDD VSS MUX2_X1
X_1169_ _0494_ _0449_ _0488_ _0046_ VDD VSS MUX2_X1
X_1170_ _0450_ ram\[12\]\[7\] _0484_ _0495_ VDD VSS MUX2_X1
X_1171_ _0495_ _0454_ _0488_ _0047_ VDD VSS MUX2_X1
X_1172_ _0455_ _0144_ _0496_ VDD VSS OR2_X4
X_1173_ _0482_ _0496_ _0497_ VDD VSS NOR2_X4
X_1174_ ram\[13\]\[0\] _0409_ _0497_ _0498_ VDD VSS MUX2_X1
X_1175_ _0416_ _0280_ _0284_ _0499_ VDD VSS NAND3_X4
X_1176_ _0486_ _0499_ _0500_ VDD VSS NOR2_X4
X_1177_ _0498_ _0415_ _0500_ _0048_ VDD VSS MUX2_X1
X_1178_ ram\[13\]\[1\] _0421_ _0497_ _0501_ VDD VSS MUX2_X1
X_1179_ _0501_ _0424_ _0500_ _0049_ VDD VSS MUX2_X1
X_1180_ ram\[13\]\[2\] _0426_ _0497_ _0502_ VDD VSS MUX2_X1
X_1181_ _0502_ _0429_ _0500_ _0050_ VDD VSS MUX2_X1
X_1182_ ram\[13\]\[3\] _0431_ _0497_ _0503_ VDD VSS MUX2_X1
X_1183_ _0503_ _0434_ _0500_ _0051_ VDD VSS MUX2_X1
X_1184_ ram\[13\]\[4\] _0436_ _0497_ _0504_ VDD VSS MUX2_X1
X_1185_ _0504_ _0439_ _0500_ _0052_ VDD VSS MUX2_X1
X_1186_ ram\[13\]\[5\] _0441_ _0497_ _0505_ VDD VSS MUX2_X1
X_1187_ _0505_ _0444_ _0500_ _0053_ VDD VSS MUX2_X1
X_1188_ ram\[13\]\[6\] _0446_ _0497_ _0506_ VDD VSS MUX2_X1
X_1189_ _0506_ _0449_ _0500_ _0054_ VDD VSS MUX2_X1
X_1190_ ram\[13\]\[7\] _0451_ _0497_ _0507_ VDD VSS MUX2_X1
X_1191_ _0507_ _0454_ _0500_ _0055_ VDD VSS MUX2_X1
X_1192_ _0456_ _0482_ _0508_ VDD VSS NOR2_X4
X_1193_ ram\[14\]\[0\] _0409_ _0508_ _0509_ VDD VSS MUX2_X1
X_1194_ _0460_ _0487_ _0510_ VDD VSS OR2_X1
X_1195_ _0510_ _0511_ VDD VSS BUF_X4
X_1196_ _0414_ _0509_ _0511_ _0056_ VDD VSS MUX2_X1
X_1197_ ram\[14\]\[1\] _0421_ _0508_ _0512_ VDD VSS MUX2_X1
X_1198_ _0423_ _0512_ _0511_ _0057_ VDD VSS MUX2_X1
X_1199_ ram\[14\]\[2\] _0426_ _0508_ _0513_ VDD VSS MUX2_X1
X_1200_ _0428_ _0513_ _0511_ _0058_ VDD VSS MUX2_X1
X_1201_ ram\[14\]\[3\] _0431_ _0508_ _0514_ VDD VSS MUX2_X1
X_1202_ _0433_ _0514_ _0511_ _0059_ VDD VSS MUX2_X1
X_1203_ ram\[14\]\[4\] _0436_ _0508_ _0515_ VDD VSS MUX2_X1
X_1204_ _0438_ _0515_ _0511_ _0060_ VDD VSS MUX2_X1
X_1205_ ram\[14\]\[5\] _0441_ _0508_ _0516_ VDD VSS MUX2_X1
X_1206_ _0443_ _0516_ _0511_ _0061_ VDD VSS MUX2_X1
X_1207_ ram\[14\]\[6\] _0446_ _0508_ _0517_ VDD VSS MUX2_X1
X_1208_ _0448_ _0517_ _0511_ _0062_ VDD VSS MUX2_X1
X_1209_ ram\[14\]\[7\] _0451_ _0508_ _0518_ VDD VSS MUX2_X1
X_1210_ _0453_ _0518_ _0511_ _0063_ VDD VSS MUX2_X1
X_1211_ _0469_ _0482_ _0519_ VDD VSS NOR2_X4
X_1212_ ram\[15\]\[0\] _0409_ _0519_ _0520_ VDD VSS MUX2_X1
X_1213_ _0460_ _0499_ _0521_ VDD VSS NOR2_X4
X_1214_ _0520_ _0415_ _0521_ _0064_ VDD VSS MUX2_X1
X_1215_ ram\[15\]\[1\] _0421_ _0519_ _0522_ VDD VSS MUX2_X1
X_1216_ _0522_ _0424_ _0521_ _0065_ VDD VSS MUX2_X1
X_1217_ ram\[15\]\[2\] _0426_ _0519_ _0523_ VDD VSS MUX2_X1
X_1218_ _0523_ _0429_ _0521_ _0066_ VDD VSS MUX2_X1
X_1219_ ram\[15\]\[3\] _0431_ _0519_ _0524_ VDD VSS MUX2_X1
X_1220_ _0524_ _0434_ _0521_ _0067_ VDD VSS MUX2_X1
X_1221_ ram\[15\]\[4\] _0436_ _0519_ _0525_ VDD VSS MUX2_X1
X_1222_ _0525_ _0439_ _0521_ _0068_ VDD VSS MUX2_X1
X_1223_ ram\[15\]\[5\] _0441_ _0519_ _0526_ VDD VSS MUX2_X1
X_1224_ _0526_ _0444_ _0521_ _0069_ VDD VSS MUX2_X1
X_1225_ ram\[15\]\[6\] _0446_ _0519_ _0527_ VDD VSS MUX2_X1
X_1226_ _0527_ _0449_ _0521_ _0070_ VDD VSS MUX2_X1
X_1227_ ram\[15\]\[7\] _0451_ _0519_ _0528_ VDD VSS MUX2_X1
X_1228_ _0528_ _0454_ _0521_ _0071_ VDD VSS MUX2_X1
X_1229_ _0411_ _0496_ _0529_ VDD VSS OR2_X1
X_1230_ _0529_ _0530_ VDD VSS BUF_X4
X_1231_ _0408_ ram\[1\]\[0\] _0530_ _0531_ VDD VSS MUX2_X1
X_1232_ _0277_ _0283_ _0473_ _0532_ VDD VSS NOR3_X4
X_1233_ _0531_ _0415_ _0532_ _0072_ VDD VSS MUX2_X1
X_1234_ _0420_ ram\[1\]\[1\] _0530_ _0533_ VDD VSS MUX2_X1
X_1235_ _0533_ _0424_ _0532_ _0073_ VDD VSS MUX2_X1
X_1236_ _0425_ ram\[1\]\[2\] _0530_ _0534_ VDD VSS MUX2_X1
X_1237_ _0534_ _0429_ _0532_ _0074_ VDD VSS MUX2_X1
X_1238_ _0430_ ram\[1\]\[3\] _0530_ _0535_ VDD VSS MUX2_X1
X_1239_ _0535_ _0434_ _0532_ _0075_ VDD VSS MUX2_X1
X_1240_ _0435_ ram\[1\]\[4\] _0530_ _0536_ VDD VSS MUX2_X1
X_1241_ _0536_ _0439_ _0532_ _0076_ VDD VSS MUX2_X1
X_1242_ _0440_ ram\[1\]\[5\] _0530_ _0537_ VDD VSS MUX2_X1
X_1243_ _0537_ _0444_ _0532_ _0077_ VDD VSS MUX2_X1
X_1244_ _0445_ ram\[1\]\[6\] _0530_ _0538_ VDD VSS MUX2_X1
X_1245_ _0538_ _0449_ _0532_ _0078_ VDD VSS MUX2_X1
X_1246_ _0450_ ram\[1\]\[7\] _0530_ _0539_ VDD VSS MUX2_X1
X_1247_ _0539_ _0454_ _0532_ _0079_ VDD VSS MUX2_X1
X_1248_ _0411_ _0456_ _0540_ VDD VSS OR2_X1
X_1249_ _0540_ _0541_ VDD VSS CLKBUF_X3
X_1250_ _0409_ ram\[2\]\[0\] _0541_ _0542_ VDD VSS MUX2_X1
X_1251_ _0300_ _0293_ _0543_ VDD VSS NAND2_X4
X_1252_ _0418_ _0543_ _0544_ VDD VSS OR2_X1
X_1253_ _0544_ _0545_ VDD VSS CLKBUF_X3
X_1254_ _0414_ _0542_ _0545_ _0080_ VDD VSS MUX2_X1
X_1255_ _0421_ ram\[2\]\[1\] _0541_ _0546_ VDD VSS MUX2_X1
X_1256_ _0423_ _0546_ _0545_ _0081_ VDD VSS MUX2_X1
X_1257_ _0426_ ram\[2\]\[2\] _0541_ _0547_ VDD VSS MUX2_X1
X_1258_ _0428_ _0547_ _0545_ _0082_ VDD VSS MUX2_X1
X_1259_ _0431_ ram\[2\]\[3\] _0541_ _0548_ VDD VSS MUX2_X1
X_1260_ _0433_ _0548_ _0545_ _0083_ VDD VSS MUX2_X1
X_1261_ _0436_ ram\[2\]\[4\] _0541_ _0549_ VDD VSS MUX2_X1
X_1262_ _0438_ _0549_ _0545_ _0084_ VDD VSS MUX2_X1
X_1263_ _0441_ ram\[2\]\[5\] _0541_ _0550_ VDD VSS MUX2_X1
X_1264_ _0443_ _0550_ _0545_ _0085_ VDD VSS MUX2_X1
X_1265_ _0446_ ram\[2\]\[6\] _0541_ _0551_ VDD VSS MUX2_X1
X_1266_ _0448_ _0551_ _0545_ _0086_ VDD VSS MUX2_X1
X_1267_ _0451_ ram\[2\]\[7\] _0541_ _0552_ VDD VSS MUX2_X1
X_1268_ _0453_ _0552_ _0545_ _0087_ VDD VSS MUX2_X1
X_1269_ _0411_ _0469_ _0553_ VDD VSS NOR2_X4
X_1270_ ram\[3\]\[0\] _0409_ _0553_ _0554_ VDD VSS MUX2_X1
X_1271_ _0473_ _0543_ _0555_ VDD VSS NOR2_X4
X_1272_ _0554_ _0415_ _0555_ _0088_ VDD VSS MUX2_X1
X_1273_ ram\[3\]\[1\] _0421_ _0553_ _0556_ VDD VSS MUX2_X1
X_1274_ _0556_ _0424_ _0555_ _0089_ VDD VSS MUX2_X1
X_1275_ ram\[3\]\[2\] _0426_ _0553_ _0557_ VDD VSS MUX2_X1
X_1276_ _0557_ _0429_ _0555_ _0090_ VDD VSS MUX2_X1
X_1277_ ram\[3\]\[3\] _0431_ _0553_ _0558_ VDD VSS MUX2_X1
X_1278_ _0558_ _0434_ _0555_ _0091_ VDD VSS MUX2_X1
X_1279_ ram\[3\]\[4\] _0436_ _0553_ _0559_ VDD VSS MUX2_X1
X_1280_ _0559_ _0439_ _0555_ _0092_ VDD VSS MUX2_X1
X_1281_ ram\[3\]\[5\] _0441_ _0553_ _0560_ VDD VSS MUX2_X1
X_1282_ _0560_ _0444_ _0555_ _0093_ VDD VSS MUX2_X1
X_1283_ ram\[3\]\[6\] _0446_ _0553_ _0561_ VDD VSS MUX2_X1
X_1284_ _0561_ _0449_ _0555_ _0094_ VDD VSS MUX2_X1
X_1285_ ram\[3\]\[7\] _0451_ _0553_ _0562_ VDD VSS MUX2_X1
X_1286_ _0562_ _0454_ _0555_ _0095_ VDD VSS MUX2_X1
X_1287_ _0162_ _0153_ _0410_ _0563_ VDD VSS NAND3_X4
X_1288_ _0149_ _0145_ _0563_ _0564_ VDD VSS NOR3_X4
X_1289_ ram\[4\]\[0\] _0409_ _0564_ _0565_ VDD VSS MUX2_X1
X_1290_ _0277_ _0283_ _0487_ _0566_ VDD VSS OR3_X1
X_1291_ _0566_ _0567_ VDD VSS CLKBUF_X3
X_1292_ _0414_ _0565_ _0567_ _0096_ VDD VSS MUX2_X1
X_1293_ ram\[4\]\[1\] _0421_ _0564_ _0568_ VDD VSS MUX2_X1
X_1294_ _0423_ _0568_ _0567_ _0097_ VDD VSS MUX2_X1
X_1295_ ram\[4\]\[2\] _0426_ _0564_ _0569_ VDD VSS MUX2_X1
X_1296_ _0428_ _0569_ _0567_ _0098_ VDD VSS MUX2_X1
X_1297_ ram\[4\]\[3\] _0431_ _0564_ _0570_ VDD VSS MUX2_X1
X_1298_ _0433_ _0570_ _0567_ _0099_ VDD VSS MUX2_X1
X_1299_ ram\[4\]\[4\] _0436_ _0564_ _0571_ VDD VSS MUX2_X1
X_1300_ _0438_ _0571_ _0567_ _0100_ VDD VSS MUX2_X1
X_1301_ ram\[4\]\[5\] _0441_ _0564_ _0572_ VDD VSS MUX2_X1
X_1302_ _0443_ _0572_ _0567_ _0101_ VDD VSS MUX2_X1
X_1303_ ram\[4\]\[6\] _0446_ _0564_ _0573_ VDD VSS MUX2_X1
X_1304_ _0448_ _0573_ _0567_ _0102_ VDD VSS MUX2_X1
X_1305_ ram\[4\]\[7\] _0451_ _0564_ _0574_ VDD VSS MUX2_X1
X_1306_ _0453_ _0574_ _0567_ _0103_ VDD VSS MUX2_X1