
* cell dual_port_ram
* pin data_a[6]
* pin addr_a[0]
* pin data_a[3]
* pin q_a[6]
* pin q_b[6]
* pin q_b[4]
* pin q_b[7]
* pin PWELL
* pin NWELL
* pin data_a[7]
* pin data_b[7]
* pin data_b[3]
* pin q_b[2]
* pin q_b[3]
* pin q_b[5]
* pin addr_b[1]
* pin q_b[1]
* pin data_a[2]
* pin we_a
* pin addr_b[3]
* pin addr_b[2]
* pin q_a[7]
* pin q_a[3]
* pin addr_a[2]
* pin addr_b[0]
* pin data_b[2]
* pin q_a[2]
* pin we_b
* pin addr_a[1]
* pin data_b[6]
* pin clk
* pin data_a[1]
* pin q_a[5]
* pin data_b[1]
* pin data_a[0]
* pin data_b[0]
* pin data_a[5]
* pin data_a[4]
* pin data_b[4]
* pin data_b[5]
* pin addr_a[3]
* pin q_a[0]
* pin q_a[4]
* pin q_b[0]
* pin q_a[1]
.SUBCKT dual_port_ram 1 2 3 4 5 6 7 8 9 13 73 88 184 185 207 238 345 352 353
+ 368 369 370 373 391 392 393 401 402 429 441 482 549 621 812 813 816 822 823
+ 825 827 828 830 831 832 834
* net 1 data_a[6]
* net 2 addr_a[0]
* net 3 data_a[3]
* net 4 q_a[6]
* net 5 q_b[6]
* net 6 q_b[4]
* net 7 q_b[7]
* net 8 PWELL
* net 9 NWELL
* net 13 data_a[7]
* net 73 data_b[7]
* net 88 data_b[3]
* net 184 q_b[2]
* net 185 q_b[3]
* net 207 q_b[5]
* net 238 addr_b[1]
* net 345 q_b[1]
* net 352 data_a[2]
* net 353 we_a
* net 368 addr_b[3]
* net 369 addr_b[2]
* net 370 q_a[7]
* net 373 q_a[3]
* net 391 addr_a[2]
* net 392 addr_b[0]
* net 393 data_b[2]
* net 401 q_a[2]
* net 402 we_b
* net 429 addr_a[1]
* net 441 data_b[6]
* net 482 clk
* net 549 data_a[1]
* net 621 q_a[5]
* net 812 data_b[1]
* net 813 data_a[0]
* net 816 data_b[0]
* net 822 data_a[5]
* net 823 data_a[4]
* net 825 data_b[4]
* net 827 data_b[5]
* net 828 addr_a[3]
* net 830 q_a[0]
* net 831 q_a[4]
* net 832 q_b[0]
* net 834 q_a[1]
* cell instance $2 m0 *1 248.52,250.6
X$2 1 8 9 49 BUF_X2
* cell instance $8 r0 *1 262.01,242.2
X$8 2 9 78 8 BUF_X4
* cell instance $14 r0 *1 267.52,247.8
X$14 3 8 9 23 BUF_X2
* cell instance $20 r0 *1 286.33,1.4
X$20 10 8 9 4 BUF_X1
* cell instance $26 r0 *1 292.98,1.4
X$26 11 8 9 5 BUF_X1
* cell instance $32 r0 *1 296.4,1.4
X$32 12 8 9 6 BUF_X1
* cell instance $38 r0 *1 296.97,1.4
X$38 87 8 9 7 BUF_X1
* cell instance $43 m0 *1 250.99,317.8
X$43 8 669 667 668 9 DFF_X1
* cell instance $44 m0 *1 247.76,317.8
X$44 8 682 666 668 9 DFF_X1
* cell instance $46 m0 *1 255.74,317.8
X$46 8 670 677 668 9 DFF_X1
* cell instance $50 m0 *1 262.96,317.8
X$50 524 281 680 8 9 681 MUX2_X1
* cell instance $51 m0 *1 264.29,317.8
X$51 8 671 681 725 9 DFF_X1
* cell instance $54 m0 *1 269.8,317.8
X$54 679 264 529 8 9 687 MUX2_X1
* cell instance $60 m0 *1 288.61,317.8
X$60 8 695 676 704 9 DFF_X1
* cell instance $63 m0 *1 299.44,317.8
X$63 673 340 655 8 9 716 MUX2_X1
* cell instance $64 m0 *1 300.77,317.8
X$64 673 131 655 8 9 674 MUX2_X1
* cell instance $98 r0 *1 247.95,317.8
X$98 494 281 691 8 9 666 MUX2_X1
* cell instance $102 r0 *1 250.61,317.8
X$102 682 264 489 8 9 691 MUX2_X1
* cell instance $107 r0 *1 257.64,317.8
X$107 682 302 670 8 9 683 MUX2_X1
* cell instance $108 r0 *1 258.97,317.8
X$108 682 283 670 8 9 684 MUX2_X1
* cell instance $109 r0 *1 260.3,317.8
X$109 684 301 739 8 9 694 MUX2_X1
* cell instance $111 r0 *1 267.71,317.8
X$111 671 283 685 8 9 686 MUX2_X1
* cell instance $112 r0 *1 269.04,317.8
X$112 686 301 762 8 9 693 MUX2_X1
* cell instance $113 r0 *1 270.37,317.8
X$113 537 281 687 8 9 699 MUX2_X1
* cell instance $114 r0 *1 271.7,317.8
X$114 8 679 699 725 9 DFF_X1
* cell instance $118 r0 *1 280.25,317.8
X$118 698 359 552 8 9 688 MUX2_X1
* cell instance $119 r0 *1 281.58,317.8
X$119 697 336 531 8 9 698 MUX2_X1
* cell instance $122 r0 *1 289.18,317.8
X$122 695 336 489 8 9 696 MUX2_X1
* cell instance $125 r0 *1 291.46,317.8
X$125 288 707 694 289 8 9 560 AOI22_X2
* cell instance $126 r0 *1 293.17,317.8
X$126 288 718 693 289 8 9 533 AOI22_X2
* cell instance $130 r0 *1 297.54,317.8
X$130 288 692 289 732 8 9 589 AOI22_X1
* cell instance $132 r0 *1 299.25,317.8
X$132 689 175 674 8 9 692 MUX2_X1
* cell instance $136 r0 *1 304.57,317.8
X$136 712 336 492 8 9 690 MUX2_X1
* cell instance $137 r0 *1 305.9,317.8
X$137 690 359 497 8 9 713 MUX2_X1
* cell instance $550 m0 *1 295.07,558.6
X$550 829 8 9 832 BUF_X1
* cell instance $601 m0 *1 296.78,558.6
X$601 833 8 9 831 BUF_X1
* cell instance $603 m0 *1 300.58,558.6
X$603 826 8 9 834 BUF_X1
* cell instance $1508 r0 *1 250.8,315
X$1508 569 281 675 8 9 667 MUX2_X1
* cell instance $1511 r0 *1 252.7,315
X$1511 669 264 531 8 9 675 MUX2_X1
* cell instance $1517 r0 *1 256.88,315
X$1517 678 219 488 8 9 677 MUX2_X1
* cell instance $1518 r0 *1 258.21,315
X$1518 670 266 630 8 9 678 MUX2_X1
* cell instance $1523 r0 *1 264.29,315
X$1523 671 264 492 8 9 680 MUX2_X1
* cell instance $1535 r0 *1 288.99,315
X$1535 696 359 488 8 9 676 MUX2_X1
* cell instance $1542 m0 *1 298.11,315
X$1542 516 8 9 CLKBUF_X1
* cell instance $1547 m0 *1 300.77,315
X$1547 673 362 529 8 9 656 MUX2_X1
* cell instance $1549 r0 *1 301.72,315
X$1549 8 673 659 516 9 DFF_X1
* cell instance $1550 m0 *1 302.1,315
X$1550 656 337 592 8 9 659 MUX2_X1
* cell instance $1553 m0 *1 304,315
X$1553 657 359 592 8 9 658 MUX2_X1
* cell instance $1555 m0 *1 305.33,315
X$1555 655 336 529 8 9 657 MUX2_X1
* cell instance $1685 r0 *1 3.8,284.2
X$1685 392 9 395 8 BUF_X4
* cell instance $1765 m0 *1 234.27,284.2
X$1765 238 9 394 8 BUF_X4
* cell instance $1781 r0 *1 263.34,284.2
X$1781 394 9 123 8 BUF_X4
* cell instance $1786 r0 *1 266,284.2
X$1786 8 125 9 395 BUF_X8
* cell instance $1787 r0 *1 268.47,284.2
X$1787 395 8 9 412 INV_X1
* cell instance $1795 m0 *1 281.96,284.2
X$1795 125 9 301 8 BUF_X4
* cell instance $1800 r0 *1 290.51,284.2
X$1800 396 8 9 398 INV_X4
* cell instance $1804 m0 *1 296.4,284.2
X$1804 223 417 8 9 406 NAND2_X1
* cell instance $1814 m0 *1 316.92,284.2
X$1814 8 406 251 404 9 DFF_X2
* cell instance $1818 m0 *1 326.99,284.2
X$1818 368 9 396 8 BUF_X4
* cell instance $1826 r0 *1 341.05,284.2
X$1826 402 9 397 8 BUF_X4
* cell instance $1846 r0 *1 393.11,284.2
X$1846 8 400 9 369 BUF_X8
* cell instance $1903 m0 *1 554.42,284.2
X$1903 404 8 9 401 BUF_X1
* cell instance $2971 r0 *1 246.81,273
X$2971 8 265 273 202 9 DFF_X1
* cell instance $2975 r0 *1 251.37,273
X$2975 265 264 58 8 9 274 MUX2_X1
* cell instance $2979 m0 *1 261.63,273
X$2979 202 8 9 847 INV_X1
* cell instance $2980 m0 *1 262.01,273
X$2980 155 8 9 202 CLKBUF_X3
* cell instance $2981 m0 *1 262.96,273
X$2981 267 266 30 8 9 240 MUX2_X1
* cell instance $2986 r0 *1 262.77,273
X$2986 265 283 267 8 9 322 MUX2_X1
* cell instance $2987 r0 *1 264.1,273
X$2987 265 62 267 8 9 285 MUX2_X1
* cell instance $2990 r0 *1 267.33,273
X$2990 8 268 278 237 9 DFF_X1
* cell instance $2991 m0 *1 267.9,273
X$2991 23 281 279 8 9 278 MUX2_X1
* cell instance $2993 m0 *1 269.23,273
X$2993 155 8 9 237 CLKBUF_X3
* cell instance $2994 m0 *1 270.18,273
X$2994 237 8 9 838 INV_X2
* cell instance $2997 m0 *1 273.03,273
X$2997 241 266 61 8 9 258 MUX2_X1
* cell instance $3000 r0 *1 270.56,273
X$3000 268 264 89 8 9 279 MUX2_X1
* cell instance $3003 m0 *1 277.78,273
X$3003 51 243 269 8 9 262 MUX2_X1
* cell instance $3004 m0 *1 280.63,273
X$3004 269 75 246 8 9 280 MUX2_X1
* cell instance $3005 m0 *1 281.96,273
X$3005 269 270 246 8 9 277 MUX2_X1
* cell instance $3011 m0 *1 289.56,273
X$3011 235 270 221 8 9 271 MUX2_X1
* cell instance $3012 m0 *1 288.23,273
X$3012 235 75 221 8 9 276 MUX2_X1
* cell instance $3018 r0 *1 290.13,273
X$3018 271 175 364 8 9 275 MUX2_X1
* cell instance $3023 r0 *1 299.63,273
X$3023 155 8 9 251 CLKBUF_X3
* cell instance $3024 r0 *1 300.58,273
X$3024 251 8 9 CLKBUF_X1
* cell instance $3026 m0 *1 302.86,273
X$3026 272 60 170 8 9 253 MUX2_X1
* cell instance $3030 m0 *1 304.57,273
X$3030 250 40 174 8 9 272 MUX2_X1
* cell instance $3283 r0 *1 248.9,278.6
X$3283 49 354 372 8 9 371 MUX2_X1
* cell instance $3285 r0 *1 250.61,278.6
X$3285 332 355 97 8 9 372 MUX2_X1
* cell instance $3288 m0 *1 256.31,278.6
X$3288 320 219 28 8 9 319 MUX2_X1
* cell instance $3291 m0 *1 258.4,278.6
X$3291 298 62 282 8 9 300 MUX2_X1
* cell instance $3292 m0 *1 259.73,278.6
X$3292 300 299 380 8 9 309 MUX2_X1
* cell instance $3295 m0 *1 263.34,278.6
X$3295 303 283 304 8 9 324 MUX2_X1
* cell instance $3296 m0 *1 264.67,278.6
X$3296 303 302 304 8 9 326 MUX2_X1
* cell instance $3301 r0 *1 257.83,278.6
X$3301 332 302 350 8 9 380 MUX2_X1
* cell instance $3302 r0 *1 259.16,278.6
X$3302 332 333 350 8 9 381 MUX2_X1
* cell instance $3305 r0 *1 262.77,278.6
X$3305 304 357 30 8 9 383 MUX2_X1
* cell instance $3306 r0 *1 264.1,278.6
X$3306 8 304 382 237 9 DFF_X1
* cell instance $3308 m0 *1 266.38,278.6
X$3308 285 299 326 8 9 343 MUX2_X1
* cell instance $3312 r0 *1 268.28,278.6
X$3312 8 334 351 237 9 DFF_X1
* cell instance $3313 m0 *1 270.18,278.6
X$3313 334 355 89 8 9 327 MUX2_X1
* cell instance $3314 m0 *1 268.85,278.6
X$3314 23 354 327 8 9 351 MUX2_X1
* cell instance $3317 m0 *1 273.22,278.6
X$3317 334 302 305 8 9 330 MUX2_X1
* cell instance $3319 m0 *1 274.74,278.6
X$3319 329 299 330 8 9 323 MUX2_X1
* cell instance $3323 m0 *1 280.06,278.6
X$3323 306 340 328 8 9 331 MUX2_X1
* cell instance $3324 m0 *1 281.39,278.6
X$3324 307 308 309 310 8 9 204 AOI22_X2
* cell instance $3330 r0 *1 272.46,278.6
X$3330 305 357 61 8 9 386 MUX2_X1
* cell instance $3331 r0 *1 273.79,278.6
X$3331 334 333 305 8 9 335 MUX2_X1
* cell instance $3334 r0 *1 279.68,278.6
X$3334 306 362 97 8 9 358 MUX2_X1
* cell instance $3335 r0 *1 281.01,278.6
X$3335 8 306 360 232 9 DFF_X1
* cell instance $3337 r0 *1 284.24,278.6
X$3337 328 336 97 8 9 390 MUX2_X1
* cell instance $3340 r0 *1 287.85,278.6
X$3340 338 337 26 8 9 363 MUX2_X1
* cell instance $3341 r0 *1 289.18,278.6
X$3341 339 131 341 8 9 364 MUX2_X1
* cell instance $3342 m0 *1 290.51,278.6
X$3342 276 129 342 8 9 311 MUX2_X1
* cell instance $3344 m0 *1 291.84,278.6
X$3344 307 311 310 343 8 9 325 AOI22_X1
* cell instance $3348 r0 *1 290.51,278.6
X$3348 339 340 341 8 9 342 MUX2_X1
* cell instance $3349 r0 *1 291.84,278.6
X$3349 341 336 58 8 9 389 MUX2_X1
* cell instance $3352 m0 *1 296.4,278.6
X$3352 163 321 8 9 314 NAND2_X1
* cell instance $3353 m0 *1 295.45,278.6
X$3353 307 385 310 323 8 9 321 AOI22_X1
* cell instance $3354 m0 *1 296.97,278.6
X$3354 349 242 36 8 9 348 MUX2_X1
* cell instance $3359 r0 *1 296.02,278.6
X$3359 61 243 318 8 9 349 MUX2_X1
* cell instance $3360 r0 *1 297.35,278.6
X$3360 8 318 348 232 9 DFF_X1
* cell instance $3361 m0 *1 299.63,278.6
X$3361 318 340 313 8 9 347 MUX2_X1
* cell instance $3363 m0 *1 300.96,278.6
X$3363 312 133 316 8 9 317 MUX2_X1
* cell instance $3412 r0 *1 300.58,278.6
X$3412 347 106 384 8 9 385 MUX2_X1
* cell instance $3414 r0 *1 302.29,278.6
X$3414 344 131 365 8 9 316 MUX2_X1
* cell instance $3417 r0 *1 305.33,278.6
X$3417 366 337 36 8 9 377 MUX2_X1
* cell instance $3418 r0 *1 306.66,278.6
X$3418 8 344 377 251 9 DFF_X1
* cell instance $3422 r0 *1 313.88,278.6
X$3422 8 314 251 375 9 DFF_X2
* cell instance $3425 r0 *1 319.77,278.6
X$3425 8 290 251 374 9 DFF_X2
* cell instance $3472 r0 *1 558.79,278.6
X$3472 346 8 9 345 BUF_X1
* cell instance $3610 r0 *1 254.41,264.6
X$3610 8 173 171 31 9 DFF_X1
* cell instance $3612 m0 *1 266.95,264.6
X$3612 168 156 58 8 9 195 MUX2_X1
* cell instance $3613 m0 *1 263.72,264.6
X$3613 8 168 194 31 9 DFF_X1
* cell instance $3616 m0 *1 269.99,264.6
X$3616 125 9 175 8 BUF_X4
* cell instance $3620 m0 *1 271.89,264.6
X$3620 8 128 197 16 9 DFF_X1
* cell instance $3624 m0 *1 278.92,264.6
X$3624 49 165 199 8 9 177 MUX2_X1
* cell instance $3625 m0 *1 280.25,264.6
X$3625 97 158 132 8 9 199 MUX2_X1
* cell instance $3635 m0 *1 287.47,264.6
X$3635 8 136 180 25 9 DFF_X1
* cell instance $3672 r0 *1 291.27,264.6
X$3672 155 8 9 25 CLKBUF_X3
* cell instance $3673 r0 *1 292.22,264.6
X$3673 25 8 9 845 INV_X2
* cell instance $3678 r0 *1 298.3,264.6
X$3678 155 8 9 65 CLKBUF_X3
* cell instance $3679 r0 *1 299.25,264.6
X$3679 65 8 9 844 INV_X2
* cell instance $3847 m0 *1 252.89,267.4
X$3847 174 148 172 8 9 188 MUX2_X1
* cell instance $3848 m0 *1 254.22,267.4
X$3848 190 154 170 8 9 171 MUX2_X1
* cell instance $3849 m0 *1 255.55,267.4
X$3849 173 156 174 8 9 190 MUX2_X1
* cell instance $3851 m0 *1 257.07,267.4
X$3851 172 76 173 8 9 191 MUX2_X1
* cell instance $3852 m0 *1 258.4,267.4
X$3852 172 99 173 8 9 214 MUX2_X1
* cell instance $3859 m0 *1 283.29,267.4
X$3859 123 9 131 8 BUF_X4
* cell instance $3867 r0 *1 246.43,267.4
X$3867 8 200 208 202 9 DFF_X1
* cell instance $3868 r0 *1 249.66,267.4
X$3868 217 22 201 8 9 208 MUX2_X1
* cell instance $3869 r0 *1 250.99,267.4
X$3869 201 95 188 8 9 210 MUX2_X1
* cell instance $3871 r0 *1 252.51,267.4
X$3871 8 172 210 202 9 DFF_X1
* cell instance $3874 r0 *1 256.31,267.4
X$3874 203 33 212 8 9 218 MUX2_X1
* cell instance $3876 r0 *1 258.02,267.4
X$3876 200 75 212 8 9 215 MUX2_X1
* cell instance $3877 r0 *1 259.35,267.4
X$3877 214 129 215 8 9 216 MUX2_X1
* cell instance $3881 r0 *1 268.47,267.4
X$3881 78 9 129 8 BUF_X4
* cell instance $3885 r0 *1 282.34,267.4
X$3885 125 9 133 8 BUF_X4
* cell instance $3886 r0 *1 283.67,267.4
X$3886 123 9 59 8 BUF_X4
* cell instance $3892 r0 *1 296.78,267.4
X$3892 257 18 170 8 9 231 MUX2_X1
* cell instance $3894 r0 *1 298.3,267.4
X$3894 213 133 249 8 9 229 MUX2_X1
* cell instance $3895 m0 *1 298.87,267.4
X$3895 193 182 8 9 187 NAND2_X1
* cell instance $3899 m0 *1 305.71,267.4
X$3899 183 103 170 8 9 211 MUX2_X1
* cell instance $3904 r0 *1 300.2,267.4
X$3904 206 59 205 8 9 213 MUX2_X1
* cell instance $3907 r0 *1 302.48,267.4
X$3907 174 158 205 8 9 228 MUX2_X1
* cell instance $3911 r0 *1 305.14,267.4
X$3911 206 178 174 8 9 183 MUX2_X1
* cell instance $3913 r0 *1 307.23,267.4
X$3913 8 206 211 65 9 DFF_X1
* cell instance $3915 r0 *1 310.84,267.4
X$3915 8 226 65 209 9 DFF_X2
* cell instance $3917 m0 *1 313.5,267.4
X$3917 8 187 65 186 9 DFF_X2
* cell instance $4007 m0 *1 552.33,267.4
X$4007 186 8 9 185 BUF_X1
* cell instance $4011 r0 *1 556.32,267.4
X$4011 209 8 9 184 BUF_X1
* cell instance $5536 m0 *1 247.95,261.8
X$5536 8 124 140 31 9 DFF_X1
* cell instance $5538 m0 *1 251.18,261.8
X$5538 8 98 96 31 9 DFF_X1
* cell instance $5544 r0 *1 251.37,261.8
X$5544 58 148 124 8 9 94 MUX2_X1
* cell instance $5546 m0 *1 255.74,261.8
X$5546 122 156 97 8 9 153 MUX2_X1
* cell instance $5548 m0 *1 257.07,261.8
X$5548 8 122 121 31 9 DFF_X1
* cell instance $5550 m0 *1 260.49,261.8
X$5550 98 123 122 8 9 144 MUX2_X1
* cell instance $5555 r0 *1 257.64,261.8
X$5555 153 154 28 8 9 121 MUX2_X1
* cell instance $5559 m0 *1 262.96,261.8
X$5559 144 125 119 8 9 114 MUX2_X1
* cell instance $5561 m0 *1 265.24,261.8
X$5561 124 123 168 8 9 126 MUX2_X1
* cell instance $5562 m0 *1 266.57,261.8
X$5562 126 125 79 8 9 151 MUX2_X1
* cell instance $5563 m0 *1 267.9,261.8
X$5563 147 78 100 8 9 176 MUX2_X1
* cell instance $5564 m0 *1 269.23,261.8
X$5564 23 95 150 8 9 101 MUX2_X1
* cell instance $5567 r0 *1 263.91,261.8
X$5567 155 8 9 31 CLKBUF_X3
* cell instance $5568 r0 *1 264.86,261.8
X$5568 31 8 9 839 INV_X2
* cell instance $5571 r0 *1 266,261.8
X$5571 124 99 168 8 9 147 MUX2_X1
* cell instance $5572 r0 *1 267.33,261.8
X$5572 195 154 26 8 9 194 MUX2_X1
* cell instance $5576 r0 *1 269.99,261.8
X$5576 16 8 9 843 INV_X2
* cell instance $5577 r0 *1 270.56,261.8
X$5577 155 8 9 16 CLKBUF_X3
* cell instance $5578 m0 *1 271.13,261.8
X$5578 89 148 127 8 9 150 MUX2_X1
* cell instance $5582 r0 *1 271.51,261.8
X$5582 196 154 36 8 9 197 MUX2_X1
* cell instance $5583 r0 *1 272.84,261.8
X$5583 128 156 89 8 9 196 MUX2_X1
* cell instance $5584 m0 *1 274.93,261.8
X$5584 127 99 128 8 9 130 MUX2_X1
* cell instance $5585 m0 *1 273.6,261.8
X$5585 127 76 128 8 9 198 MUX2_X1
* cell instance $5587 m0 *1 276.45,261.8
X$5587 130 129 120 8 9 113 MUX2_X1
* cell instance $5588 m0 *1 277.78,261.8
X$5588 78 9 106 8 BUF_X4
* cell instance $5592 r0 *1 274.55,261.8
X$5592 198 175 80 8 9 192 MUX2_X1
* cell instance $5595 r0 *1 279.68,261.8
X$5595 8 132 177 16 9 DFF_X1
* cell instance $5596 m0 *1 283.48,261.8
X$5596 105 131 132 8 9 134 MUX2_X1
* cell instance $5597 m0 *1 280.25,261.8
X$5597 8 105 102 16 9 DFF_X1
* cell instance $5599 m0 *1 285,261.8
X$5599 134 133 152 8 9 169 MUX2_X1
* cell instance $5602 m0 *1 288.04,261.8
X$5602 58 158 136 8 9 159 MUX2_X1
* cell instance $5604 r0 *1 282.91,261.8
X$5604 105 178 97 8 9 118 MUX2_X1
* cell instance $5607 r0 *1 286.14,261.8
X$5607 160 114 164 169 8 9 179 AOI22_X1
* cell instance $5608 r0 *1 287.09,261.8
X$5608 179 157 8 9 116 NAND2_X1
* cell instance $5610 r0 *1 287.85,261.8
X$5610 27 165 159 8 9 180 MUX2_X1
* cell instance $5611 r0 *1 289.18,261.8
X$5611 160 151 164 112 8 9 181 AOI22_X1
* cell instance $5612 m0 *1 289.94,261.8
X$5612 149 107 136 8 9 146 MUX2_X1
* cell instance $5615 m0 *1 291.46,261.8
X$5615 149 131 136 8 9 108 MUX2_X1
* cell instance $5616 m0 *1 292.79,261.8
X$5616 145 103 26 8 9 162 MUX2_X1
* cell instance $5621 r0 *1 291.27,261.8
X$5621 81 176 104 161 8 9 222 AOI22_X1
* cell instance $5622 r0 *1 292.22,261.8
X$5622 149 178 58 8 9 145 MUX2_X1
* cell instance $5623 r0 *1 293.55,261.8
X$5623 8 149 162 65 9 DFF_X1
* cell instance $5625 m0 *1 295.26,261.8
X$5625 81 113 104 143 8 9 163 AOI22_X1
* cell instance $5629 r0 *1 297.54,261.8
X$5629 160 192 164 167 8 9 193 AOI22_X1
* cell instance $5631 m0 *1 299.06,261.8
X$5631 142 133 110 8 9 167 MUX2_X1
* cell instance $5633 m0 *1 300.39,261.8
X$5633 137 59 141 8 9 142 MUX2_X1
* cell instance $5634 m0 *1 301.72,261.8
X$5634 137 107 141 8 9 109 MUX2_X1
* cell instance $5638 r0 *1 300.58,261.8
X$5638 8 141 166 65 9 DFF_X1
* cell instance $5639 m0 *1 304.76,261.8
X$5639 137 178 89 8 9 138 MUX2_X1
* cell instance $5640 m0 *1 303.43,261.8
X$5640 89 158 141 8 9 189 MUX2_X1
* cell instance $5642 r0 *1 303.81,261.8
X$5642 23 165 189 8 9 166 MUX2_X1
* cell instance $5644 m0 *1 307.8,261.8
X$5644 8 137 139 65 9 DFF_X1
* cell instance $5645 m0 *1 306.47,261.8
X$5645 138 103 36 8 9 139 MUX2_X1
* cell instance $5871 m0 *1 237.31,259
X$5871 73 8 9 30 BUF_X2
* cell instance $5881 r0 *1 248.71,259
X$5881 27 95 94 8 9 140 MUX2_X1
* cell instance $5884 r0 *1 251.18,259
X$5884 49 95 115 8 9 96 MUX2_X1
* cell instance $5885 r0 *1 252.51,259
X$5885 97 148 98 8 9 115 MUX2_X1
* cell instance $5887 m0 *1 254.03,259
X$5887 30 8 9 58 BUF_X2
* cell instance $5892 r0 *1 260.68,259
X$5892 98 99 122 8 9 77 MUX2_X1
* cell instance $5893 m0 *1 261.44,259
X$5893 77 78 92 8 9 93 MUX2_X1
* cell instance $5904 r0 *1 269.8,259
X$5904 8 127 101 16 9 DFF_X1
* cell instance $5909 m0 *1 280.82,259
X$5909 81 93 104 117 8 9 82 AOI22_X1
* cell instance $5910 m0 *1 281.77,259
X$5910 82 204 8 9 14 NAND2_X1
* cell instance $5914 r0 *1 281.2,259
X$5914 118 103 28 8 9 102 MUX2_X1
* cell instance $5916 r0 *1 282.72,259
X$5916 105 107 132 8 9 83 MUX2_X1
* cell instance $5921 m0 *1 283.48,259
X$5921 83 106 84 8 9 117 MUX2_X1
* cell instance $5926 m0 *1 302.29,259
X$5926 88 8 9 61 BUF_X2
* cell instance $5976 r0 *1 290.32,259
X$5976 181 135 8 9 91 NAND2_X1
* cell instance $5977 r0 *1 290.89,259
X$5977 146 106 85 8 9 161 MUX2_X1
* cell instance $5978 r0 *1 292.22,259
X$5978 108 133 86 8 9 112 MUX2_X1
* cell instance $5981 r0 *1 298.11,259
X$5981 109 106 111 8 9 143 MUX2_X1
* cell instance $6152 m0 *1 288.42,247.8
X$6152 8 116 25 11 9 DFF_X2
* cell instance $6365 m0 *1 261.06,253.4
X$6365 29 22 27 8 9 46 MUX2_X1
* cell instance $6368 m0 *1 264.1,253.4
X$6368 49 8 9 28 BUF_X2
* cell instance $6370 m0 *1 265.62,253.4
X$6370 48 52 26 8 9 47 MUX2_X1
* cell instance $6371 m0 *1 266.95,253.4
X$6371 30 33 53 8 9 48 MUX2_X1
* cell instance $6373 m0 *1 271.32,253.4
X$6373 34 22 23 8 9 15 MUX2_X1
* cell instance $6382 r0 *1 257.26,253.4
X$6382 69 52 28 8 9 68 MUX2_X1
* cell instance $6383 r0 *1 258.59,253.4
X$6383 51 33 70 8 9 69 MUX2_X1
* cell instance $6386 r0 *1 260.49,253.4
X$6386 32 50 30 8 9 29 MUX2_X1
* cell instance $6388 r0 *1 262.01,253.4
X$6388 8 32 46 31 9 DFF_X1
* cell instance $6390 r0 *1 265.43,253.4
X$6390 8 53 47 31 9 DFF_X1
* cell instance $6394 r0 *1 270.75,253.4
X$6394 17 50 61 8 9 34 MUX2_X1
* cell instance $6397 r0 *1 272.65,253.4
X$6397 27 8 9 26 BUF_X2
* cell instance $6398 r0 *1 273.41,253.4
X$6398 8 55 35 16 9 DFF_X1
* cell instance $6400 r0 *1 276.83,253.4
X$6400 23 8 9 36 BUF_X2
* cell instance $6402 m0 *1 279.68,253.4
X$6402 37 18 28 8 9 19 MUX2_X1
* cell instance $6403 m0 *1 278.35,253.4
X$6403 51 21 20 8 9 37 MUX2_X1
* cell instance $6404 m0 *1 281.01,253.4
X$6404 8 56 24 25 9 DFF_X1
* cell instance $6409 r0 *1 280.82,253.4
X$6409 72 60 28 8 9 24 MUX2_X1
* cell instance $6413 m0 *1 287.09,253.4
X$6413 30 21 39 8 9 38 MUX2_X1
* cell instance $6415 m0 *1 288.42,253.4
X$6415 38 18 26 8 9 45 MUX2_X1
* cell instance $6417 r0 *1 287.09,253.4
X$6417 8 39 45 25 9 DFF_X1
* cell instance $6419 m0 *1 290.13,253.4
X$6419 8 57 71 25 9 DFF_X1
* cell instance $6421 r0 *1 290.32,253.4
X$6421 57 40 58 8 9 41 MUX2_X1
* cell instance $6422 r0 *1 291.65,253.4
X$6422 41 60 26 8 9 71 MUX2_X1
* cell instance $6425 r0 *1 295.26,253.4
X$6425 61 21 43 8 9 42 MUX2_X1
* cell instance $6426 r0 *1 296.59,253.4
X$6426 42 18 36 8 9 44 MUX2_X1
* cell instance $6427 m0 *1 296.97,253.4
X$6427 8 43 44 65 9 DFF_X1
* cell instance $6478 r0 *1 301.72,253.4
X$6478 66 60 36 8 9 64 MUX2_X1
* cell instance $6479 r0 *1 303.05,253.4
X$6479 8 63 64 65 9 DFF_X1
* cell instance $6647 m0 *1 248.52,270.2
X$6647 200 50 203 8 9 217 MUX2_X1
* cell instance $6650 m0 *1 253.84,270.2
X$6650 203 8 9 174 CLKBUF_X3
* cell instance $6652 m0 *1 254.98,270.2
X$6652 201 8 9 170 CLKBUF_X3
* cell instance $6653 m0 *1 255.93,270.2
X$6653 218 52 170 8 9 239 MUX2_X1
* cell instance $6655 m0 *1 258.02,270.2
X$6655 200 76 212 8 9 233 MUX2_X1
* cell instance $6660 r0 *1 255.93,270.2
X$6660 8 212 239 202 9 DFF_X1
* cell instance $6663 m0 *1 259.73,270.2
X$6663 191 175 233 8 9 234 MUX2_X1
* cell instance $6664 m0 *1 264.1,270.2
X$6664 240 219 26 8 9 256 MUX2_X1
* cell instance $6670 r0 *1 263.34,270.2
X$6670 8 267 256 237 9 DFF_X1
* cell instance $6674 r0 *1 270.56,270.2
X$6674 8 241 259 237 9 DFF_X1
* cell instance $6676 m0 *1 272.65,270.2
X$6676 258 219 36 8 9 259 MUX2_X1
* cell instance $6678 m0 *1 277.21,270.2
X$6678 8 269 236 237 9 DFF_X1
* cell instance $6679 m0 *1 280.44,270.2
X$6679 8 246 220 25 9 DFF_X1
* cell instance $6684 r0 *1 277.59,270.2
X$6684 262 242 28 8 9 236 MUX2_X1
* cell instance $6685 r0 *1 278.92,270.2
X$6685 49 244 263 8 9 220 MUX2_X1
* cell instance $6688 r0 *1 280.82,270.2
X$6688 246 245 97 8 9 263 MUX2_X1
* cell instance $6690 m0 *1 285,270.2
X$6690 8 221 247 25 9 DFF_X1
* cell instance $6694 m0 *1 289.18,270.2
X$6694 8 235 260 232 9 DFF_X1
* cell instance $6698 r0 *1 285.38,270.2
X$6698 27 244 261 8 9 247 MUX2_X1
* cell instance $6702 r0 *1 288.04,270.2
X$6702 221 245 58 8 9 261 MUX2_X1
* cell instance $6703 r0 *1 289.37,270.2
X$6703 30 243 235 8 9 248 MUX2_X1
* cell instance $6704 r0 *1 290.7,270.2
X$6704 248 242 26 8 9 260 MUX2_X1
* cell instance $6706 m0 *1 294.5,270.2
X$6706 160 234 164 229 8 9 230 AOI22_X1
* cell instance $6708 m0 *1 295.45,270.2
X$6708 81 216 104 255 8 9 223 AOI22_X1
* cell instance $6709 m0 *1 296.4,270.2
X$6709 8 224 231 232 9 DFF_X1
* cell instance $6710 m0 *1 299.63,270.2
X$6710 230 387 8 9 226 NAND2_X1
* cell instance $6712 m0 *1 300.96,270.2
X$6712 206 107 205 8 9 225 MUX2_X1
* cell instance $6715 r0 *1 295.83,270.2
X$6715 203 21 224 8 9 257 MUX2_X1
* cell instance $6716 r0 *1 297.16,270.2
X$6716 224 283 250 8 9 249 MUX2_X1
* cell instance $6717 r0 *1 298.49,270.2
X$6717 224 62 250 8 9 254 MUX2_X1
* cell instance $6719 r0 *1 300.58,270.2
X$6719 225 106 254 8 9 255 MUX2_X1
* cell instance $6722 r0 *1 302.48,270.2
X$6722 8 250 253 251 9 DFF_X1
* cell instance $6723 m0 *1 302.86,270.2
X$6723 201 165 228 8 9 227 MUX2_X1
* cell instance $6725 m0 *1 304.19,270.2
X$6725 8 205 227 251 9 DFF_X1
* cell instance $6818 r0 *1 553.85,270.2
X$6818 252 8 9 207 BUF_X1
* cell instance $6964 m0 *1 247.76,275.8
X$6964 27 281 274 8 9 273 MUX2_X1
* cell instance $6967 r0 *1 248.71,275.8
X$6967 8 298 292 202 9 DFF_X1
* cell instance $6969 m0 *1 249.47,275.8
X$6969 49 281 294 8 9 292 MUX2_X1
* cell instance $6970 m0 *1 250.99,275.8
X$6970 298 264 97 8 9 294 MUX2_X1
* cell instance $6977 r0 *1 255.36,275.8
X$6977 8 282 319 237 9 DFF_X1
* cell instance $6979 m0 *1 258.02,275.8
X$6979 282 266 51 8 9 320 MUX2_X1
* cell instance $6983 r0 *1 258.59,275.8
X$6983 298 283 282 8 9 284 MUX2_X1
* cell instance $6984 r0 *1 259.92,275.8
X$6984 284 301 381 8 9 296 MUX2_X1
* cell instance $6988 r0 *1 263.72,275.8
X$6988 322 301 324 8 9 295 MUX2_X1
* cell instance $6992 r0 *1 273.03,275.8
X$6992 268 302 241 8 9 329 MUX2_X1
* cell instance $6993 m0 *1 273.6,275.8
X$6993 268 283 241 8 9 286 MUX2_X1
* cell instance $6998 m0 *1 284.24,275.8
X$6998 277 175 287 8 9 297 MUX2_X1
* cell instance $7000 m0 *1 285.76,275.8
X$7000 288 297 296 289 8 9 157 AOI22_X2
* cell instance $7003 r0 *1 274.36,275.8
X$7003 286 301 335 8 9 293 MUX2_X1
* cell instance $7007 r0 *1 280.44,275.8
X$7007 280 129 331 8 9 308 MUX2_X1
* cell instance $7013 r0 *1 284.05,275.8
X$7013 306 131 328 8 9 287 MUX2_X1
* cell instance $7015 m0 *1 289.56,275.8
X$7015 288 275 289 295 8 9 135 AOI22_X1
* cell instance $7019 m0 *1 293.74,275.8
X$7019 155 8 9 232 CLKBUF_X3
* cell instance $7020 m0 *1 294.69,275.8
X$7020 232 8 9 836 INV_X2
* cell instance $7054 r0 *1 291.84,275.8
X$7054 222 325 8 9 290 NAND2_X1
* cell instance $7056 r0 *1 298.49,275.8
X$7056 288 317 289 293 8 9 182 AOI22_X1
* cell instance $7059 r0 *1 300.58,275.8
X$7059 318 270 313 8 9 312 MUX2_X1
* cell instance $7060 r0 *1 301.91,275.8
X$7060 313 245 89 8 9 291 MUX2_X1
* cell instance $7061 r0 *1 303.24,275.8
X$7061 23 244 291 8 9 315 MUX2_X1
* cell instance $7065 r0 *1 305.9,275.8
X$7065 8 313 315 251 9 DFF_X1
* cell instance $7229 m0 *1 248.14,256.2
X$7229 90 22 49 8 9 67 MUX2_X1
* cell instance $7230 m0 *1 249.47,256.2
X$7230 8 74 67 31 9 DFF_X1
* cell instance $7232 m0 *1 253.46,256.2
X$7232 74 50 51 8 9 90 MUX2_X1
* cell instance $7238 m0 *1 256.88,256.2
X$7238 51 8 9 97 BUF_X2
* cell instance $7240 m0 *1 257.64,256.2
X$7240 8 70 68 31 9 DFF_X1
* cell instance $7247 r0 *1 259.92,256.2
X$7247 74 75 70 8 9 92 MUX2_X1
* cell instance $7248 r0 *1 261.25,256.2
X$7248 74 76 70 8 9 119 MUX2_X1
* cell instance $7252 r0 *1 266.57,256.2
X$7252 32 75 53 8 9 100 MUX2_X1
* cell instance $7254 m0 *1 266.57,256.2
X$7254 32 76 53 8 9 79 MUX2_X1
* cell instance $7257 m0 *1 271.89,256.2
X$7257 61 33 55 8 9 54 MUX2_X1
* cell instance $7259 m0 *1 273.41,256.2
X$7259 54 52 36 8 9 35 MUX2_X1
* cell instance $7260 m0 *1 274.74,256.2
X$7260 17 76 55 8 9 80 MUX2_X1
* cell instance $7267 r0 *1 274.74,256.2
X$7267 17 75 55 8 9 120 MUX2_X1
* cell instance $7269 m0 *1 281.96,256.2
X$7269 56 40 97 8 9 72 MUX2_X1
* cell instance $7271 m0 *1 283.29,256.2
X$7271 20 62 56 8 9 84 MUX2_X1
* cell instance $7272 m0 *1 284.62,256.2
X$7272 20 59 56 8 9 152 MUX2_X1
* cell instance $7277 m0 *1 289.56,256.2
X$7277 39 62 57 8 9 85 MUX2_X1
* cell instance $7282 m0 *1 291.27,256.2
X$7282 39 59 57 8 9 86 MUX2_X1
* cell instance $7287 r0 *1 293.36,256.2
X$7287 8 91 25 87 9 DFF_X2
* cell instance $7289 m0 *1 297.73,256.2
X$7289 43 62 63 8 9 111 MUX2_X1
* cell instance $7292 m0 *1 299.63,256.2
X$7292 43 59 63 8 9 110 MUX2_X1
* cell instance $7294 m0 *1 300.96,256.2
X$7294 61 8 9 89 BUF_X2
* cell instance $7296 m0 *1 303.24,256.2
X$7296 63 40 89 8 9 66 MUX2_X1
* cell instance $7526 m0 *1 244.72,250.6
X$7526 13 8 9 27 BUF_X2
* cell instance $7588 r0 *1 271.89,250.6
X$7588 8 17 15 16 9 DFF_X1
* cell instance $7592 r0 *1 279.87,250.6
X$7592 8 20 19 16 9 DFF_X1
* cell instance $13667 r0 *1 281.96,245
X$13667 8 14 25 10 9 DFF_X2
* cell instance $27250 r0 *1 273.22,399
X$27250 8 471 9 828 BUF_X8
* cell instance $31429 m0 *1 249.66,323.4
X$31429 494 354 753 8 9 752 MUX2_X1
* cell instance $31430 m0 *1 250.99,323.4
X$31430 701 355 489 8 9 753 MUX2_X1
* cell instance $31438 r0 *1 250.61,323.4
X$31438 8 701 752 668 9 DFF_X1
* cell instance $31440 r0 *1 256.88,323.4
X$31440 669 465 747 8 9 756 MUX2_X1
* cell instance $31441 m0 *1 258.21,323.4
X$31441 669 333 747 8 9 748 MUX2_X1
* cell instance $31443 m0 *1 259.54,323.4
X$31443 748 301 749 8 9 737 MUX2_X1
* cell instance $31447 m0 *1 265.62,323.4
X$31447 760 219 497 8 9 759 MUX2_X1
* cell instance $31448 m0 *1 266.95,323.4
X$31448 685 266 633 8 9 760 MUX2_X1
* cell instance $31452 r0 *1 260.11,323.4
X$31452 756 299 767 8 9 758 MUX2_X1
* cell instance $31455 r0 *1 264.86,323.4
X$31455 8 685 759 725 9 DFF_X1
* cell instance $31456 r0 *1 268.09,323.4
X$31456 779 302 761 8 9 763 MUX2_X1
* cell instance $31457 m0 *1 268.85,323.4
X$31457 764 299 763 8 9 740 MUX2_X1
* cell instance $31466 r0 *1 273.03,323.4
X$31466 702 266 650 8 9 780 MUX2_X1
* cell instance $31467 r0 *1 274.36,323.4
X$31467 768 302 769 8 9 741 MUX2_X1
* cell instance $31471 m0 *1 278.92,323.4
X$31471 307 755 758 310 8 9 757 AOI22_X1
* cell instance $31472 m0 *1 280.06,323.4
X$31472 8 705 727 704 9 DFF_X1
* cell instance $31477 m0 *1 288.8,323.4
X$31477 8 706 750 704 9 DFF_X1
* cell instance $31512 r0 *1 280.82,323.4
X$31512 771 106 754 8 9 755 MUX2_X1
* cell instance $31518 r0 *1 288.99,323.4
X$31518 155 8 9 704 CLKBUF_X3
* cell instance $31519 r0 *1 289.94,323.4
X$31519 704 8 9 842 INV_X2
* cell instance $31523 r0 *1 295.83,323.4
X$31523 155 8 9 714 CLKBUF_X3
* cell instance $31524 r0 *1 296.78,323.4
X$31524 714 8 9 848 INV_X1
* cell instance $31526 r0 *1 297.54,323.4
X$31526 650 8 9 529 BUF_X2
* cell instance $31711 m0 *1 250.99,329
X$31711 8 766 796 668 9 DFF_X1
* cell instance $31714 m0 *1 254.98,329
X$31714 8 747 797 668 9 DFF_X1
* cell instance $31721 m0 *1 264.1,329
X$31721 524 354 793 8 9 804 MUX2_X1
* cell instance $31730 r0 *1 270.75,329
X$31730 537 354 800 8 9 810 MUX2_X1
* cell instance $31733 r0 *1 278.54,329
X$31733 569 244 802 8 9 794 MUX2_X1
* cell instance $31735 m0 *1 278.73,329
X$31735 8 782 794 704 9 DFF_X1
* cell instance $31739 m0 *1 287.47,329
X$31739 8 786 784 704 9 DFF_X1
* cell instance $31741 m0 *1 296.78,329
X$31741 524 244 798 8 9 799 MUX2_X1
* cell instance $31742 m0 *1 298.11,329
X$31742 8 787 799 714 9 DFF_X1
* cell instance $31751 r0 *1 287.66,329
X$31751 807 242 488 8 9 803 MUX2_X1
* cell instance $31752 r0 *1 288.99,329