* CDL Netlist generated by OpenROAD

*.BUSDELIMITER [

.SUBCKT aes_cipher_top clk done key[0] key[100] key[101] key[102]
+ key[103] key[104] key[105] key[106] key[107] key[108] key[109]
+ key[10] key[110] key[111] key[112] key[113] key[114] key[115]
+ key[116] key[117] key[118] key[119] key[11] key[120] key[121]
+ key[122] key[123] key[124] key[125] key[126] key[127] key[12]
+ key[13] key[14] key[15] key[16] key[17] key[18] key[19] key[1]
+ key[20] key[21] key[22] key[23] key[24] key[25] key[26] key[27]
+ key[28] key[29] key[2] key[30] key[31] key[32] key[33] key[34]
+ key[35] key[36] key[37] key[38] key[39] key[3] key[40] key[41]
+ key[42] key[43] key[44] key[45] key[46] key[47] key[48] key[49]
+ key[4] key[50] key[51] key[52] key[53] key[54] key[55] key[56]
+ key[57] key[58] key[59] key[5] key[60] key[61] key[62] key[63]
+ key[64] key[65] key[66] key[67] key[68] key[69] key[6] key[70]
+ key[71] key[72] key[73] key[74] key[75] key[76] key[77] key[78]
+ key[79] key[7] key[80] key[81] key[82] key[83] key[84] key[85]
+ key[86] key[87] key[88] key[89] key[8] key[90] key[91] key[92]
+ key[93] key[94] key[95] key[96] key[97] key[98] key[99] key[9]
+ ld rst text_in[0] text_in[100] text_in[101] text_in[102] text_in[103]
+ text_in[104] text_in[105] text_in[106] text_in[107] text_in[108]
+ text_in[109] text_in[10] text_in[110] text_in[111] text_in[112]
+ text_in[113] text_in[114] text_in[115] text_in[116] text_in[117]
+ text_in[118] text_in[119] text_in[11] text_in[120] text_in[121]
+ text_in[122] text_in[123] text_in[124] text_in[125] text_in[126]
+ text_in[127] text_in[12] text_in[13] text_in[14] text_in[15]
+ text_in[16] text_in[17] text_in[18] text_in[19] text_in[1]
+ text_in[20] text_in[21] text_in[22] text_in[23] text_in[24]
+ text_in[25] text_in[26] text_in[27] text_in[28] text_in[29]
+ text_in[2] text_in[30] text_in[31] text_in[32] text_in[33]
+ text_in[34] text_in[35] text_in[36] text_in[37] text_in[38]
+ text_in[39] text_in[3] text_in[40] text_in[41] text_in[42]
+ text_in[43] text_in[44] text_in[45] text_in[46] text_in[47]
+ text_in[48] text_in[49] text_in[4] text_in[50] text_in[51]
+ text_in[52] text_in[53] text_in[54] text_in[55] text_in[56]
+ text_in[57] text_in[58] text_in[59] text_in[5] text_in[60]
+ text_in[61] text_in[62] text_in[63] text_in[64] text_in[65]
+ text_in[66] text_in[67] text_in[68] text_in[69] text_in[6]
+ text_in[70] text_in[71] text_in[72] text_in[73] text_in[74]
+ text_in[75] text_in[76] text_in[77] text_in[78] text_in[79]
+ text_in[7] text_in[80] text_in[81] text_in[82] text_in[83]
+ text_in[84] text_in[85] text_in[86] text_in[87] text_in[88]
+ text_in[89] text_in[8] text_in[90] text_in[91] text_in[92]
+ text_in[93] text_in[94] text_in[95] text_in[96] text_in[97]
+ text_in[98] text_in[99] text_in[9] text_out[0] text_out[100]
+ text_out[101] text_out[102] text_out[103] text_out[104] text_out[105]
+ text_out[106] text_out[107] text_out[108] text_out[109] text_out[10]
+ text_out[110] text_out[111] text_out[112] text_out[113] text_out[114]
+ text_out[115] text_out[116] text_out[117] text_out[118] text_out[119]
+ text_out[11] text_out[120] text_out[121] text_out[122] text_out[123]
+ text_out[124] text_out[125] text_out[126] text_out[127] text_out[12]
+ text_out[13] text_out[14] text_out[15] text_out[16] text_out[17]
+ text_out[18] text_out[19] text_out[1] text_out[20] text_out[21]
+ text_out[22] text_out[23] text_out[24] text_out[25] text_out[26]
+ text_out[27] text_out[28] text_out[29] text_out[2] text_out[30]
+ text_out[31] text_out[32] text_out[33] text_out[34] text_out[35]
+ text_out[36] text_out[37] text_out[38] text_out[39] text_out[3]
+ text_out[40] text_out[41] text_out[42] text_out[43] text_out[44]
+ text_out[45] text_out[46] text_out[47] text_out[48] text_out[49]
+ text_out[4] text_out[50] text_out[51] text_out[52] text_out[53]
+ text_out[54] text_out[55] text_out[56] text_out[57] text_out[58]
+ text_out[59] text_out[5] text_out[60] text_out[61] text_out[62]
+ text_out[63] text_out[64] text_out[65] text_out[66] text_out[67]
+ text_out[68] text_out[69] text_out[6] text_out[70] text_out[71]
+ text_out[72] text_out[73] text_out[74] text_out[75] text_out[76]
+ text_out[77] text_out[78] text_out[79] text_out[7] text_out[80]
+ text_out[81] text_out[82] text_out[83] text_out[84] text_out[85]
+ text_out[86] text_out[87] text_out[88] text_out[89] text_out[8]
+ text_out[90] text_out[91] text_out[92] text_out[93] text_out[94]
+ text_out[95] text_out[96] text_out[97] text_out[98] text_out[99]
+ text_out[9]
XTAP_TAPCELL_ROW_58_1403 VSS VDD sky130_fd_sc_hd__tapvpwrvgnd_1
XTAP_TAPCELL_ROW_58_1402 VSS VDD sky130_fd_sc_hd__tapvpwrvgnd_1
XTAP_TAPCELL_ROW_58_1401 VSS VDD sky130_fd_sc_hd__tapvpwrvgnd_1
XTAP_TAPCELL_ROW_58_1400 VSS VDD sky130_fd_sc_hd__tapvpwrvgnd_1
X_12504_ u0.w\[0\]\[19\] u0.w\[1\]\[19\] u0.subword\[19\]
+ VSS VSS VDD VDD _03574_ sky130_fd_sc_hd__xor3_4
X_12505_ u0.tmp_w\[19\] u0.w\[2\]\[19\] _03574_ VSS VSS VDD
+ VDD _03575_ sky130_fd_sc_hd__xnor3_4
XTAP_TAPCELL_ROW_58_1399 VSS VDD sky130_fd_sc_hd__tapvpwrvgnd_1
X_12507_ net495 net39 VSS VSS VDD VDD _03577_ sky130_fd_sc_hd__nand2_4
X_12508_ net495 _03575_ _03577_ VSS VSS VDD VDD _03578_ sky130_fd_sc_hd__o21a_4
X_12509_ _03578_ VSS VSS VDD VDD _03579_ sky130_fd_sc_hd__clkinv_16
XTAP_TAPCELL_ROW_58_1398 VSS VDD sky130_fd_sc_hd__tapvpwrvgnd_1
XTAP_TAPCELL_ROW_58_1397 VSS VDD sky130_fd_sc_hd__tapvpwrvgnd_1
X_12512_ u0.w\[0\]\[16\] u0.subword\[16\] VSS VSS VDD VDD
+ _03581_ sky130_fd_sc_hd__xor2_4
X_12513_ u0.w\[2\]\[16\] u0.w\[1\]\[16\] VSS VSS VDD VDD _03582_
+ sky130_fd_sc_hd__xor2_2
X_12514_ u0.tmp_w\[16\] _03581_ _03582_ VSS VSS VDD VDD _03583_
+ sky130_fd_sc_hd__xnor3_4
X_12515_ net497 net36 VSS VSS VDD VDD _03584_ sky130_fd_sc_hd__nand2_2
X_12516_ _03583_ net497 _03584_ VSS VSS VDD VDD _03585_ sky130_fd_sc_hd__o21ai_4
X_12517_ net702 VSS VSS VDD VDD _03586_ sky130_fd_sc_hd__clkinv_8
XTAP_TAPCELL_ROW_58_1396 VSS VDD sky130_fd_sc_hd__tapvpwrvgnd_1
X_12519_ u0.w\[0\]\[17\] u0.subword\[17\] VSS VSS VDD VDD
+ _03587_ sky130_fd_sc_hd__xor2_4
X_12520_ u0.w\[2\]\[17\] u0.w\[1\]\[17\] VSS VSS VDD VDD _03588_
+ sky130_fd_sc_hd__xor2_1
X_12521_ u0.tmp_w\[17\] _03587_ _03588_ VSS VSS VDD VDD _03589_
+ sky130_fd_sc_hd__xnor3_1
XTAP_TAPCELL_ROW_58_1395 VSS VDD sky130_fd_sc_hd__tapvpwrvgnd_1
X_12523_ net497 net37 VSS VSS VDD VDD _03591_ sky130_fd_sc_hd__nand2_1
X_12524_ net497 _03589_ _03591_ VSS VSS VDD VDD _03592_ sky130_fd_sc_hd__o21ai_1
X_12525_ net489 VSS VSS VDD VDD _03593_ sky130_fd_sc_hd__clkinv_8
XTAP_TAPCELL_ROW_58_1394 VSS VDD sky130_fd_sc_hd__tapvpwrvgnd_1
XTAP_TAPCELL_ROW_58_1393 VSS VDD sky130_fd_sc_hd__tapvpwrvgnd_1
XTAP_TAPCELL_ROW_58_1392 VSS VDD sky130_fd_sc_hd__tapvpwrvgnd_1
XTAP_TAPCELL_ROW_58_1391 VSS VDD sky130_fd_sc_hd__tapvpwrvgnd_1
XTAP_TAPCELL_ROW_58_1390 VSS VDD sky130_fd_sc_hd__tapvpwrvgnd_1
X_12531_ u0.w\[0\]\[21\] u0.w\[1\]\[21\] u0.subword\[21\]
+ VSS VSS VDD VDD _03598_ sky130_fd_sc_hd__xnor3_4
X_12532_ u0.tmp_w\[21\] u0.w\[2\]\[21\] _03598_ VSS VSS VDD
+ VDD _03599_ sky130_fd_sc_hd__xor3_1
X_12533_ net495 _03599_ VSS VSS VDD VDD _03600_ sky130_fd_sc_hd__nor2_1
X_12534_ net495 net42 _03600_ VSS VSS VDD VDD _03601_ sky130_fd_sc_hd__a21oi_4
X_12535_ _03601_ VSS VSS VDD VDD _03602_ sky130_fd_sc_hd__inv_6
XTAP_TAPCELL_ROW_58_1389 VSS VDD sky130_fd_sc_hd__tapvpwrvgnd_1
XTAP_TAPCELL_ROW_58_1388 VSS VDD sky130_fd_sc_hd__tapvpwrvgnd_1
XTAP_TAPCELL_ROW_58_1387 VSS VDD sky130_fd_sc_hd__tapvpwrvgnd_1
XTAP_TAPCELL_ROW_58_1386 VSS VDD sky130_fd_sc_hd__tapvpwrvgnd_1
XTAP_TAPCELL_ROW_57_1385 VSS VDD sky130_fd_sc_hd__tapvpwrvgnd_1
X_12541_ u0.w\[0\]\[20\] u0.w\[1\]\[20\] u0.subword\[20\]
+ VSS VSS VDD VDD _03607_ sky130_fd_sc_hd__xnor3_4
X_12542_ u0.tmp_w\[20\] u0.w\[2\]\[20\] _03607_ VSS VSS VDD
+ VDD _03608_ sky130_fd_sc_hd__xor3_1
X_12543_ net495 net41 VSS VSS VDD VDD _03609_ sky130_fd_sc_hd__nand2_4
X_12544_ net495 _03608_ _03609_ VSS VSS VDD VDD _03610_ sky130_fd_sc_hd__o21a_4
X_12545_ _03610_ VSS VSS VDD VDD _03611_ sky130_fd_sc_hd__clkinv_16
XTAP_TAPCELL_ROW_57_1384 VSS VDD sky130_fd_sc_hd__tapvpwrvgnd_1
XTAP_TAPCELL_ROW_57_1383 VSS VDD sky130_fd_sc_hd__tapvpwrvgnd_1
X_12548_ u0.subword\[18\] u0.w\[0\]\[18\] VSS VSS VDD VDD
+ _03613_ sky130_fd_sc_hd__xor2_4
X_12549_ u0.w\[2\]\[18\] u0.w\[1\]\[18\] VSS VSS VDD VDD _03614_
+ sky130_fd_sc_hd__xor2_4
X_12550_ u0.tmp_w\[18\] _03613_ _03614_ VSS VSS VDD VDD _03615_
+ sky130_fd_sc_hd__xnor3_4
X_12551_ net495 net38 VSS VSS VDD VDD _03616_ sky130_fd_sc_hd__nand2_4
X_12552_ net495 _03615_ _03616_ VSS VSS VDD VDD _03617_ sky130_fd_sc_hd__o21a_4
X_12553_ _03617_ VSS VSS VDD VDD _03618_ sky130_fd_sc_hd__clkinv_16
XTAP_TAPCELL_ROW_57_1382 VSS VDD sky130_fd_sc_hd__tapvpwrvgnd_1
XTAP_TAPCELL_ROW_57_1381 VSS VDD sky130_fd_sc_hd__tapvpwrvgnd_1
X_12556_ u0.w\[0\]\[0\] u0.subword\[0\] VSS VSS VDD VDD _03620_
+ sky130_fd_sc_hd__xor2_4
X_12557_ u0.w\[2\]\[0\] u0.w\[1\]\[0\] VSS VSS VDD VDD _03621_
+ sky130_fd_sc_hd__xor2_1
X_12558_ u0.tmp_w\[0\] _03620_ _03621_ VSS VSS VDD VDD _03622_
+ sky130_fd_sc_hd__xnor3_1
X_12559_ net129 net1 VSS VSS VDD VDD _03623_ sky130_fd_sc_hd__nand2_2
X_12560_ net497 _03622_ _03623_ VSS VSS VDD VDD _03624_ sky130_fd_sc_hd__o21ai_4
X_12561_ _03624_ VSS VSS VDD VDD _03625_ sky130_fd_sc_hd__inv_8
XTAP_TAPCELL_ROW_57_1380 VSS VDD sky130_fd_sc_hd__tapvpwrvgnd_1
X_12563_ u0.w\[0\]\[1\] u0.subword\[1\] VSS VSS VDD VDD _03626_
+ sky130_fd_sc_hd__xor2_4
X_12564_ u0.w\[2\]\[1\] u0.w\[1\]\[1\] VSS VSS VDD VDD _03627_
+ sky130_fd_sc_hd__xor2_1
X_12565_ u0.tmp_w\[1\] _03626_ _03627_ VSS VSS VDD VDD _03628_
+ sky130_fd_sc_hd__xnor3_4
X_12566_ net497 net40 VSS VSS VDD VDD _03629_ sky130_fd_sc_hd__nand2_1
X_12567_ net497 _03628_ _03629_ VSS VSS VDD VDD _03630_ sky130_fd_sc_hd__o21ai_4
X_12568_ _03630_ VSS VSS VDD VDD _03631_ sky130_fd_sc_hd__inv_12
XTAP_TAPCELL_ROW_57_1379 VSS VDD sky130_fd_sc_hd__tapvpwrvgnd_1
XTAP_TAPCELL_ROW_57_1378 VSS VDD sky130_fd_sc_hd__tapvpwrvgnd_1
XTAP_TAPCELL_ROW_57_1377 VSS VDD sky130_fd_sc_hd__tapvpwrvgnd_1
X_12572_ u0.subword\[2\] u0.w\[0\]\[2\] u0.w\[1\]\[2\] VSS
+ VSS VDD VDD _03634_ sky130_fd_sc_hd__xnor3_4
X_12573_ u0.tmp_w\[2\] u0.w\[2\]\[2\] _03634_ VSS VSS VDD
+ VDD _03635_ sky130_fd_sc_hd__xor3_1
X_12574_ net497 net51 VSS VSS VDD VDD _03636_ sky130_fd_sc_hd__nand2_1
X_12575_ net497 _03635_ _03636_ VSS VSS VDD VDD _03637_ sky130_fd_sc_hd__o21a_4
XTAP_TAPCELL_ROW_57_1376 VSS VDD sky130_fd_sc_hd__tapvpwrvgnd_1
X_12577_ _03637_ VSS VSS VDD VDD _03639_ sky130_fd_sc_hd__clkinv_16
XTAP_TAPCELL_ROW_57_1375 VSS VDD sky130_fd_sc_hd__tapvpwrvgnd_1
XTAP_TAPCELL_ROW_57_1374 VSS VDD sky130_fd_sc_hd__tapvpwrvgnd_1
XTAP_TAPCELL_ROW_57_1373 VSS VDD sky130_fd_sc_hd__tapvpwrvgnd_1
XTAP_TAPCELL_ROW_57_1372 VSS VDD sky130_fd_sc_hd__tapvpwrvgnd_1
XTAP_TAPCELL_ROW_57_1371 VSS VDD sky130_fd_sc_hd__tapvpwrvgnd_1
X_12583_ u0.w\[0\]\[3\] u0.w\[1\]\[3\] u0.subword\[3\] VSS
+ VSS VDD VDD _03644_ sky130_fd_sc_hd__xnor3_4
X_12584_ u0.tmp_w\[3\] u0.w\[2\]\[3\] _03644_ VSS VSS VDD
+ VDD _03645_ sky130_fd_sc_hd__xnor3_1
X_12585_ net62 net496 VSS VSS VDD VDD _03646_ sky130_fd_sc_hd__nand2b_1
X_12586_ _03645_ net497 _03646_ VSS VSS VDD VDD _03647_ sky130_fd_sc_hd__o21ai_4
X_12587_ net753 VSS VSS VDD VDD _03648_ sky130_fd_sc_hd__clkinv_16
XTAP_TAPCELL_ROW_57_1370 VSS VDD sky130_fd_sc_hd__tapvpwrvgnd_1
XTAP_TAPCELL_ROW_57_1369 VSS VDD sky130_fd_sc_hd__tapvpwrvgnd_1
XTAP_TAPCELL_ROW_57_1368 VSS VDD sky130_fd_sc_hd__tapvpwrvgnd_1
XTAP_TAPCELL_ROW_57_1367 VSS VDD sky130_fd_sc_hd__tapvpwrvgnd_1
XTAP_TAPCELL_ROW_57_1366 VSS VDD sky130_fd_sc_hd__tapvpwrvgnd_1
X_12593_ u0.w\[0\]\[4\] u0.w\[1\]\[4\] u0.subword\[4\] VSS
+ VSS VDD VDD _03653_ sky130_fd_sc_hd__xnor3_4
X_12594_ u0.tmp_w\[4\] u0.w\[2\]\[4\] _03653_ VSS VSS VDD
+ VDD _03654_ sky130_fd_sc_hd__xor3_1
X_12595_ net497 net73 VSS VSS VDD VDD _03655_ sky130_fd_sc_hd__nand2_1
X_12596_ net497 _03654_ _03655_ VSS VSS VDD VDD _03656_ sky130_fd_sc_hd__o21a_4
XTAP_TAPCELL_ROW_57_1365 VSS VDD sky130_fd_sc_hd__tapvpwrvgnd_1
X_12598_ _03656_ VSS VSS VDD VDD _03658_ sky130_fd_sc_hd__clkinv_16
XTAP_TAPCELL_ROW_57_1364 VSS VDD sky130_fd_sc_hd__tapvpwrvgnd_1
XTAP_TAPCELL_ROW_57_1363 VSS VDD sky130_fd_sc_hd__tapvpwrvgnd_1
XTAP_TAPCELL_ROW_56_1362 VSS VDD sky130_fd_sc_hd__tapvpwrvgnd_1
XTAP_TAPCELL_ROW_56_1361 VSS VDD sky130_fd_sc_hd__tapvpwrvgnd_1
X_12603_ u0.w\[0\]\[5\] u0.w\[1\]\[5\] u0.subword\[5\] VSS
+ VSS VDD VDD _03662_ sky130_fd_sc_hd__xnor3_2
X_12604_ u0.w\[2\]\[5\] _03662_ VSS VSS VDD VDD _03663_ sky130_fd_sc_hd__xor2_4
X_12605_ u0.tmp_w\[5\] _03663_ VSS VSS VDD VDD _03664_ sky130_fd_sc_hd__xor2_1
X_12606_ net129 net84 VSS VSS VDD VDD _03665_ sky130_fd_sc_hd__nand2_1
X_12607_ net497 _03664_ _03665_ VSS VSS VDD VDD _03666_ sky130_fd_sc_hd__o21a_4
X_12608_ _03666_ VSS VSS VDD VDD _03667_ sky130_fd_sc_hd__clkinv_16
XTAP_TAPCELL_ROW_56_1360 VSS VDD sky130_fd_sc_hd__tapvpwrvgnd_1
XTAP_TAPCELL_ROW_56_1359 VSS VDD sky130_fd_sc_hd__tapvpwrvgnd_1
XTAP_TAPCELL_ROW_56_1358 VSS VDD sky130_fd_sc_hd__tapvpwrvgnd_1
XTAP_TAPCELL_ROW_56_1357 VSS VDD sky130_fd_sc_hd__tapvpwrvgnd_1
X_12613_ u0.w\[0\]\[6\] u0.w\[1\]\[6\] u0.subword\[6\] VSS
+ VSS VDD VDD _03671_ sky130_fd_sc_hd__xnor3_4
X_12614_ u0.w\[2\]\[6\] _03671_ VSS VSS VDD VDD _03672_ sky130_fd_sc_hd__xor2_4
X_12615_ u0.tmp_w\[6\] _03672_ VSS VSS VDD VDD _03673_ sky130_fd_sc_hd__xor2_1
X_12616_ net497 net95 VSS VSS VDD VDD _03674_ sky130_fd_sc_hd__nand2_1
X_12617_ net497 _03673_ _03674_ VSS VSS VDD VDD _03675_ sky130_fd_sc_hd__o21a_4
X_12618_ _03675_ VSS VSS VDD VDD _03676_ sky130_fd_sc_hd__inv_16
XTAP_TAPCELL_ROW_56_1356 VSS VDD sky130_fd_sc_hd__tapvpwrvgnd_1
XTAP_TAPCELL_ROW_56_1355 VSS VDD sky130_fd_sc_hd__tapvpwrvgnd_1
XTAP_TAPCELL_ROW_56_1354 VSS VDD sky130_fd_sc_hd__tapvpwrvgnd_1
X_12622_ u0.w\[0\]\[7\] u0.subword\[7\] VSS VSS VDD VDD _03679_
+ sky130_fd_sc_hd__xor2_2
X_12623_ u0.w\[1\]\[7\] _03679_ VSS VSS VDD VDD _03680_ sky130_fd_sc_hd__xnor2_2
X_12624_ u0.w\[2\]\[7\] _03680_ VSS VSS VDD VDD _03681_ sky130_fd_sc_hd__xnor2_4
X_12625_ u0.tmp_w\[7\] _03681_ VSS VSS VDD VDD _03682_ sky130_fd_sc_hd__xnor2_1
X_12626_ net495 _03682_ VSS VSS VDD VDD _03683_ sky130_fd_sc_hd__nor2_1
X_12627_ net495 net106 _03683_ VSS VSS VDD VDD _03684_ sky130_fd_sc_hd__a21oi_4
X_12628_ _03684_ VSS VSS VDD VDD _03685_ sky130_fd_sc_hd__clkinv_8
XTAP_TAPCELL_ROW_56_1353 VSS VDD sky130_fd_sc_hd__tapvpwrvgnd_1
XTAP_TAPCELL_ROW_56_1352 VSS VDD sky130_fd_sc_hd__tapvpwrvgnd_1
X_12631_ u0.w\[0\]\[8\] u0.w\[1\]\[8\] u0.subword\[8\] VSS
+ VSS VDD VDD _03687_ sky130_fd_sc_hd__xnor3_1
X_12632_ u0.tmp_w\[8\] u0.w\[2\]\[8\] _03687_ VSS VSS VDD
+ VDD _03688_ sky130_fd_sc_hd__xor3_1
X_12633_ net494 net117 VSS VSS VDD VDD _03689_ sky130_fd_sc_hd__nand2_2
X_12634_ net494 _03688_ _03689_ VSS VSS VDD VDD _03690_ sky130_fd_sc_hd__o21ai_4
X_12635_ net484 VSS VSS VDD VDD _03691_ sky130_fd_sc_hd__inv_8
XTAP_TAPCELL_ROW_56_1351 VSS VDD sky130_fd_sc_hd__tapvpwrvgnd_1
XTAP_TAPCELL_ROW_56_1350 VSS VDD sky130_fd_sc_hd__tapvpwrvgnd_1
X_12638_ u0.w\[0\]\[9\] u0.w\[1\]\[9\] u0.subword\[9\] VSS
+ VSS VDD VDD _03693_ sky130_fd_sc_hd__xnor3_4
X_12639_ u0.tmp_w\[9\] u0.w\[2\]\[9\] _03693_ VSS VSS VDD
+ VDD _03694_ sky130_fd_sc_hd__xor3_1
X_12640_ net496 net128 VSS VSS VDD VDD _03695_ sky130_fd_sc_hd__nand2_2
X_12641_ net497 _03694_ _03695_ VSS VSS VDD VDD _11860_ sky130_fd_sc_hd__o21ai_4
X_12642_ net483 VSS VSS VDD VDD _03696_ sky130_fd_sc_hd__inv_12
XTAP_TAPCELL_ROW_56_1349 VSS VDD sky130_fd_sc_hd__tapvpwrvgnd_1
XTAP_TAPCELL_ROW_56_1348 VSS VDD sky130_fd_sc_hd__tapvpwrvgnd_1
XTAP_TAPCELL_ROW_56_1347 VSS VDD sky130_fd_sc_hd__tapvpwrvgnd_1
X_12646_ u0.subword\[10\] u0.w\[0\]\[10\] u0.w\[1\]\[10\]
+ VSS VSS VDD VDD _03699_ sky130_fd_sc_hd__xor3_2
X_12647_ u0.tmp_w\[10\] u0.w\[2\]\[10\] _03699_ VSS VSS VDD
+ VDD _03700_ sky130_fd_sc_hd__xnor3_1
X_12648_ net495 net12 VSS VSS VDD VDD _03701_ sky130_fd_sc_hd__nand2_1
X_12649_ net495 _03700_ _03701_ VSS VSS VDD VDD _03702_ sky130_fd_sc_hd__o21a_4
XTAP_TAPCELL_ROW_56_1346 VSS VDD sky130_fd_sc_hd__tapvpwrvgnd_1
X_12651_ _03702_ VSS VSS VDD VDD _03704_ sky130_fd_sc_hd__clkinv_16
XTAP_TAPCELL_ROW_56_1345 VSS VDD sky130_fd_sc_hd__tapvpwrvgnd_1
XTAP_TAPCELL_ROW_56_1344 VSS VDD sky130_fd_sc_hd__tapvpwrvgnd_1
XTAP_TAPCELL_ROW_56_1343 VSS VDD sky130_fd_sc_hd__tapvpwrvgnd_1
XTAP_TAPCELL_ROW_56_1342 VSS VDD sky130_fd_sc_hd__tapvpwrvgnd_1
XTAP_TAPCELL_ROW_56_1341 VSS VDD sky130_fd_sc_hd__tapvpwrvgnd_1
XTAP_TAPCELL_ROW_56_1340 VSS VDD sky130_fd_sc_hd__tapvpwrvgnd_1
XTAP_TAPCELL_ROW_56_1339 VSS VDD sky130_fd_sc_hd__tapvpwrvgnd_1
X_12659_ u0.w\[0\]\[11\] u0.w\[1\]\[11\] u0.subword\[11\]
+ VSS VSS VDD VDD _03711_ sky130_fd_sc_hd__xor3_4
X_12660_ u0.tmp_w\[11\] u0.w\[2\]\[11\] _03711_ VSS VSS VDD
+ VDD _03712_ sky130_fd_sc_hd__xnor3_1
X_12661_ net494 net23 VSS VSS VDD VDD _03713_ sky130_fd_sc_hd__nand2_1
X_12662_ _03712_ net494 _03713_ VSS VSS VDD VDD _03714_ sky130_fd_sc_hd__o21a_4
X_12663_ _03714_ VSS VSS VDD VDD _03715_ sky130_fd_sc_hd__clkinv_16
XTAP_TAPCELL_ROW_55_1338 VSS VDD sky130_fd_sc_hd__tapvpwrvgnd_1
XTAP_TAPCELL_ROW_55_1337 VSS VDD sky130_fd_sc_hd__tapvpwrvgnd_1
XTAP_TAPCELL_ROW_55_1336 VSS VDD sky130_fd_sc_hd__tapvpwrvgnd_1
XTAP_TAPCELL_ROW_55_1335 VSS VDD sky130_fd_sc_hd__tapvpwrvgnd_1
XTAP_TAPCELL_ROW_55_1334 VSS VDD sky130_fd_sc_hd__tapvpwrvgnd_1
XTAP_TAPCELL_ROW_55_1333 VSS VDD sky130_fd_sc_hd__tapvpwrvgnd_1
X_12670_ u0.w\[0\]\[12\] u0.w\[1\]\[12\] u0.subword\[12\]
+ VSS VSS VDD VDD _03721_ sky130_fd_sc_hd__xnor3_1
X_12671_ u0.tmp_w\[12\] u0.w\[2\]\[12\] _03721_ VSS VSS VDD
+ VDD _03722_ sky130_fd_sc_hd__xor3_1
X_12672_ net494 _03722_ VSS VSS VDD VDD _03723_ sky130_fd_sc_hd__nor2_1
X_12673_ net494 net32 _03723_ VSS VSS VDD VDD _03724_ sky130_fd_sc_hd__a21oi_4
X_12674_ _03724_ VSS VSS VDD VDD _03725_ sky130_fd_sc_hd__clkinv_16
XTAP_TAPCELL_ROW_55_1332 VSS VDD sky130_fd_sc_hd__tapvpwrvgnd_1
XTAP_TAPCELL_ROW_55_1331 VSS VDD sky130_fd_sc_hd__tapvpwrvgnd_1
XTAP_TAPCELL_ROW_55_1330 VSS VDD sky130_fd_sc_hd__tapvpwrvgnd_1
XTAP_TAPCELL_ROW_55_1329 VSS VDD sky130_fd_sc_hd__tapvpwrvgnd_1
XTAP_TAPCELL_ROW_55_1328 VSS VDD sky130_fd_sc_hd__tapvpwrvgnd_1
X_12680_ u0.w\[0\]\[13\] u0.w\[1\]\[13\] u0.subword\[13\]
+ VSS VSS VDD VDD _03730_ sky130_fd_sc_hd__xnor3_1
X_12681_ u0.w\[2\]\[13\] _03730_ VSS VSS VDD VDD _03731_ sky130_fd_sc_hd__xnor2_1
X_12682_ u0.tmp_w\[13\] _03731_ VSS VSS VDD VDD _03732_ sky130_fd_sc_hd__xnor2_1
X_12683_ net494 net33 VSS VSS VDD VDD _03733_ sky130_fd_sc_hd__nand2_1
X_12684_ net494 _03732_ _03733_ VSS VSS VDD VDD _03734_ sky130_fd_sc_hd__o21a_4
X_12685_ _03734_ VSS VSS VDD VDD _03735_ sky130_fd_sc_hd__clkinv_16
XTAP_TAPCELL_ROW_55_1327 VSS VDD sky130_fd_sc_hd__tapvpwrvgnd_1
XTAP_TAPCELL_ROW_55_1326 VSS VDD sky130_fd_sc_hd__tapvpwrvgnd_1
XTAP_TAPCELL_ROW_55_1325 VSS VDD sky130_fd_sc_hd__tapvpwrvgnd_1
XTAP_TAPCELL_ROW_55_1324 VSS VDD sky130_fd_sc_hd__tapvpwrvgnd_1
X_12690_ u0.w\[0\]\[14\] u0.w\[1\]\[14\] u0.subword\[14\]
+ VSS VSS VDD VDD _03739_ sky130_fd_sc_hd__xnor3_2
X_12691_ u0.w\[2\]\[14\] _03739_ VSS VSS VDD VDD _03740_ sky130_fd_sc_hd__xor2_1
X_12692_ u0.tmp_w\[14\] _03740_ VSS VSS VDD VDD _03741_ sky130_fd_sc_hd__xor2_1
X_12693_ net494 _03741_ VSS VSS VDD VDD _03742_ sky130_fd_sc_hd__nor2_1
X_12694_ net494 net34 _03742_ VSS VSS VDD VDD _03743_ sky130_fd_sc_hd__a21oi_4
X_12695_ _03743_ VSS VSS VDD VDD _03744_ sky130_fd_sc_hd__inv_6
XTAP_TAPCELL_ROW_55_1323 VSS VDD sky130_fd_sc_hd__tapvpwrvgnd_1
X_12697_ u0.w\[0\]\[15\] u0.subword\[15\] VSS VSS VDD VDD
+ _03745_ sky130_fd_sc_hd__xor2_1
X_12698_ u0.w\[1\]\[15\] _03745_ VSS VSS VDD VDD _03746_ sky130_fd_sc_hd__xnor2_2
X_12699_ u0.w\[2\]\[15\] _03746_ VSS VSS VDD VDD _03747_ sky130_fd_sc_hd__xnor2_2
X_12700_ u0.tmp_w\[15\] _03747_ VSS VSS VDD VDD _03748_ sky130_fd_sc_hd__xnor2_1
X_12701_ net494 _03748_ VSS VSS VDD VDD _03749_ sky130_fd_sc_hd__nor2_1
X_12702_ net494 net35 _03749_ VSS VSS VDD VDD _03750_ sky130_fd_sc_hd__a21oi_4
X_12703_ _03750_ VSS VSS VDD VDD _03751_ sky130_fd_sc_hd__inv_8
XTAP_TAPCELL_ROW_55_1322 VSS VDD sky130_fd_sc_hd__tapvpwrvgnd_1
XTAP_TAPCELL_ROW_55_1321 VSS VDD sky130_fd_sc_hd__tapvpwrvgnd_1
XTAP_TAPCELL_ROW_55_1320 VSS VDD sky130_fd_sc_hd__tapvpwrvgnd_1
XTAP_TAPCELL_ROW_55_1319 VSS VDD sky130_fd_sc_hd__tapvpwrvgnd_1
X_12708_ u0.w\[0\]\[22\] u0.w\[1\]\[22\] u0.subword\[22\]
+ VSS VSS VDD VDD _03755_ sky130_fd_sc_hd__xnor3_4
X_12709_ u0.tmp_w\[22\] u0.w\[2\]\[22\] _03755_ VSS VSS VDD
+ VDD _03756_ sky130_fd_sc_hd__xor3_4
X_12710_ net495 net43 VSS VSS VDD VDD _03757_ sky130_fd_sc_hd__nand2_4
X_12711_ net495 _03756_ _03757_ VSS VSS VDD VDD _03758_ sky130_fd_sc_hd__o21a_4
X_12712_ _03758_ VSS VSS VDD VDD _03759_ sky130_fd_sc_hd__clkinv_16
XTAP_TAPCELL_ROW_55_1318 VSS VDD sky130_fd_sc_hd__tapvpwrvgnd_1
XTAP_TAPCELL_ROW_55_1317 VSS VDD sky130_fd_sc_hd__tapvpwrvgnd_1
X_12715_ u0.w\[0\]\[23\] u0.subword\[23\] VSS VSS VDD VDD
+ _03761_ sky130_fd_sc_hd__xor2_2
X_12716_ u0.w\[1\]\[23\] _03761_ VSS VSS VDD VDD _03762_ sky130_fd_sc_hd__xnor2_4
X_12717_ u0.w\[2\]\[23\] _03762_ VSS VSS VDD VDD _03763_ sky130_fd_sc_hd__xnor2_1
X_12718_ u0.tmp_w\[23\] _03763_ VSS VSS VDD VDD _03764_ sky130_fd_sc_hd__xnor2_1
X_12719_ net497 _03764_ VSS VSS VDD VDD _03765_ sky130_fd_sc_hd__nor2_4
X_12720_ net495 net44 _03765_ VSS VSS VDD VDD _03766_ sky130_fd_sc_hd__a21oi_4
X_12721_ _03766_ VSS VSS VDD VDD _03767_ sky130_fd_sc_hd__clkinv_8
XTAP_TAPCELL_ROW_55_1316 VSS VDD sky130_fd_sc_hd__tapvpwrvgnd_1
XTAP_TAPCELL_ROW_54_1315 VSS VDD sky130_fd_sc_hd__tapvpwrvgnd_1
X_12724_ u0.w\[0\]\[24\] u0.subword\[24\] u0.r0.out\[24\]
+ VSS VSS VDD VDD _03769_ sky130_fd_sc_hd__xnor3_2
X_12725_ u0.tmp_w\[24\] u0.w\[2\]\[24\] VSS VSS VDD VDD _03770_
+ sky130_fd_sc_hd__xor2_1
X_12726_ u0.w\[1\]\[24\] _03769_ _03770_ VSS VSS VDD VDD _03771_
+ sky130_fd_sc_hd__xnor3_1
X_12727_ _03771_ net45 net497 VSS VSS VDD VDD _03772_ sky130_fd_sc_hd__mux2_8
X_12728_ _03772_ VSS VSS VDD VDD _03773_ sky130_fd_sc_hd__inv_12
XTAP_TAPCELL_ROW_54_1314 VSS VDD sky130_fd_sc_hd__tapvpwrvgnd_1
X_12730_ u0.w\[0\]\[25\] u0.subword\[25\] u0.r0.out\[25\]
+ VSS VSS VDD VDD _03774_ sky130_fd_sc_hd__xnor3_2
X_12731_ u0.tmp_w\[25\] u0.w\[2\]\[25\] VSS VSS VDD VDD _03775_
+ sky130_fd_sc_hd__xor2_1
X_12732_ u0.w\[1\]\[25\] _03774_ _03775_ VSS VSS VDD VDD _03776_
+ sky130_fd_sc_hd__xnor3_1
X_12733_ _03776_ net46 net497 VSS VSS VDD VDD _03777_ sky130_fd_sc_hd__mux2_8
X_12734_ _03777_ VSS VSS VDD VDD _03778_ sky130_fd_sc_hd__clkinv_16
XTAP_TAPCELL_ROW_54_1313 VSS VDD sky130_fd_sc_hd__tapvpwrvgnd_1
X_12736_ u0.w\[0\]\[26\] u0.subword\[26\] u0.r0.out\[26\]
+ VSS VSS VDD VDD _03779_ sky130_fd_sc_hd__xnor3_4
X_12737_ u0.tmp_w\[26\] u0.w\[2\]\[26\] VSS VSS VDD VDD _03780_
+ sky130_fd_sc_hd__xnor2_1
X_12738_ u0.w\[1\]\[26\] _03779_ _03780_ VSS VSS VDD VDD _03781_
+ sky130_fd_sc_hd__xnor3_4
X_12739_ net47 VSS VSS VDD VDD _03782_ sky130_fd_sc_hd__inv_1
X_12740_ _03781_ _03782_ net497 VSS VSS VDD VDD _03783_ sky130_fd_sc_hd__mux2i_4
X_12741_ net481 VSS VSS VDD VDD _03784_ sky130_fd_sc_hd__clkinv_16
XTAP_TAPCELL_ROW_54_1312 VSS VDD sky130_fd_sc_hd__tapvpwrvgnd_1
XTAP_TAPCELL_ROW_54_1311 VSS VDD sky130_fd_sc_hd__tapvpwrvgnd_1
XTAP_TAPCELL_ROW_54_1310 VSS VDD sky130_fd_sc_hd__tapvpwrvgnd_1
X_12745_ u0.w\[0\]\[27\] u0.subword\[27\] u0.r0.out\[27\]
+ VSS VSS VDD VDD _03787_ sky130_fd_sc_hd__xnor3_4
XTAP_TAPCELL_ROW_54_1309 VSS VDD sky130_fd_sc_hd__tapvpwrvgnd_1
X_12747_ u0.tmp_w\[27\] u0.w\[2\]\[27\] VSS VSS VDD VDD _03789_
+ sky130_fd_sc_hd__xor2_1
X_12748_ u0.w\[1\]\[27\] _03787_ _03789_ VSS VSS VDD VDD _03790_
+ sky130_fd_sc_hd__xnor3_1
X_12749_ _03790_ net48 net497 VSS VSS VDD VDD _03791_ sky130_fd_sc_hd__mux2i_4
X_12750_ net479 VSS VSS VDD VDD _03792_ sky130_fd_sc_hd__clkinv_16
XTAP_TAPCELL_ROW_54_1308 VSS VDD sky130_fd_sc_hd__tapvpwrvgnd_1
XTAP_TAPCELL_ROW_54_1307 VSS VDD sky130_fd_sc_hd__tapvpwrvgnd_1
XTAP_TAPCELL_ROW_54_1306 VSS VDD sky130_fd_sc_hd__tapvpwrvgnd_1
XTAP_TAPCELL_ROW_54_1305 VSS VDD sky130_fd_sc_hd__tapvpwrvgnd_1
X_12755_ u0.w\[0\]\[28\] u0.subword\[28\] u0.r0.out\[28\]
+ VSS VSS VDD VDD _03796_ sky130_fd_sc_hd__xnor3_2
XTAP_TAPCELL_ROW_54_1304 VSS VDD sky130_fd_sc_hd__tapvpwrvgnd_1
X_12757_ u0.tmp_w\[28\] u0.w\[2\]\[28\] VSS VSS VDD VDD _03798_
+ sky130_fd_sc_hd__xor2_1
X_12758_ u0.w\[1\]\[28\] _03796_ _03798_ VSS VSS VDD VDD _03799_
+ sky130_fd_sc_hd__xnor3_1
X_12759_ _03799_ net49 net497 VSS VSS VDD VDD _03800_ sky130_fd_sc_hd__mux2i_4
X_12760_ _03800_ VSS VSS VDD VDD _03801_ sky130_fd_sc_hd__inv_12
XTAP_TAPCELL_ROW_54_1303 VSS VDD sky130_fd_sc_hd__tapvpwrvgnd_1
XTAP_TAPCELL_ROW_54_1302 VSS VDD sky130_fd_sc_hd__tapvpwrvgnd_1
XTAP_TAPCELL_ROW_54_1301 VSS VDD sky130_fd_sc_hd__tapvpwrvgnd_1
XTAP_TAPCELL_ROW_54_1300 VSS VDD sky130_fd_sc_hd__tapvpwrvgnd_1
X_12765_ u0.w\[0\]\[29\] u0.subword\[29\] VSS VSS VDD VDD
+ _03805_ sky130_fd_sc_hd__xnor2_1
X_12766_ u0.w\[1\]\[29\] u0.r0.out\[29\] _03805_ VSS VSS VDD
+ VDD _03806_ sky130_fd_sc_hd__xnor3_4
X_12767_ u0.tmp_w\[29\] u0.w\[2\]\[29\] _03806_ VSS VSS VDD
+ VDD _03807_ sky130_fd_sc_hd__xnor3_1
X_12768_ net496 net50 VSS VSS VDD VDD _03808_ sky130_fd_sc_hd__nand2_4
X_12769_ net497 _03807_ _03808_ VSS VSS VDD VDD _03809_ sky130_fd_sc_hd__o21a_4
X_12770_ _03809_ VSS VSS VDD VDD _03810_ sky130_fd_sc_hd__clkinv_16
XTAP_TAPCELL_ROW_54_1299 VSS VDD sky130_fd_sc_hd__tapvpwrvgnd_1
XTAP_TAPCELL_ROW_54_1298 VSS VDD sky130_fd_sc_hd__tapvpwrvgnd_1
XTAP_TAPCELL_ROW_54_1297 VSS VDD sky130_fd_sc_hd__tapvpwrvgnd_1
X_12774_ u0.w\[0\]\[30\] u0.subword\[30\] u0.r0.out\[30\]
+ VSS VSS VDD VDD _03813_ sky130_fd_sc_hd__xnor3_4
X_12775_ u0.w\[2\]\[30\] u0.w\[1\]\[30\] _03813_ VSS VSS VDD
+ VDD _03814_ sky130_fd_sc_hd__xnor3_1
X_12776_ u0.tmp_w\[30\] _03814_ VSS VSS VDD VDD _03815_ sky130_fd_sc_hd__xnor2_1
X_12777_ net496 net52 VSS VSS VDD VDD _03816_ sky130_fd_sc_hd__nand2_1
X_12778_ net497 _03815_ _03816_ VSS VSS VDD VDD _03817_ sky130_fd_sc_hd__o21a_4
X_12779_ _03817_ VSS VSS VDD VDD _00398_ sky130_fd_sc_hd__inv_6
X_12780_ u0.subword\[31\] u0.r0.out\[31\] VSS VSS VDD VDD
+ _03818_ sky130_fd_sc_hd__xor2_4
X_12781_ u0.w\[0\]\[31\] _03818_ VSS VSS VDD VDD _03819_ sky130_fd_sc_hd__xnor2_2
X_12782_ u0.w\[1\]\[31\] _03819_ VSS VSS VDD VDD _03820_ sky130_fd_sc_hd__xnor2_4
X_12783_ u0.w\[2\]\[31\] _03820_ VSS VSS VDD VDD _03821_ sky130_fd_sc_hd__xnor2_1
X_12784_ u0.tmp_w\[31\] _03821_ VSS VSS VDD VDD _03822_ sky130_fd_sc_hd__xor2_2
X_12785_ net496 net53 VSS VSS VDD VDD _03823_ sky130_fd_sc_hd__nand2_1
X_12786_ net497 _03822_ _03823_ VSS VSS VDD VDD _03824_ sky130_fd_sc_hd__o21ai_4
XTAP_TAPCELL_ROW_54_1296 VSS VDD sky130_fd_sc_hd__tapvpwrvgnd_1
XTAP_TAPCELL_ROW_54_1295 VSS VDD sky130_fd_sc_hd__tapvpwrvgnd_1
X_12789_ _03620_ _03621_ VSS VSS VDD VDD _03826_ sky130_fd_sc_hd__xor2_1
XTAP_TAPCELL_ROW_54_1294 VSS VDD sky130_fd_sc_hd__tapvpwrvgnd_1
XTAP_TAPCELL_ROW_54_1293 VSS VDD sky130_fd_sc_hd__tapvpwrvgnd_1
X_12792_ _03826_ net54 net496 VSS VSS VDD VDD _00353_ sky130_fd_sc_hd__mux2_1
X_12793_ _03626_ _03627_ VSS VSS VDD VDD _03829_ sky130_fd_sc_hd__xor2_1
XTAP_TAPCELL_ROW_54_1292 VSS VDD sky130_fd_sc_hd__tapvpwrvgnd_1
X_12795_ _03829_ net55 net496 VSS VSS VDD VDD _00364_ sky130_fd_sc_hd__mux2_1
X_12796_ u0.w\[2\]\[2\] _03634_ VSS VSS VDD VDD _03831_ sky130_fd_sc_hd__xnor2_1
X_12797_ _03831_ net56 net497 VSS VSS VDD VDD _00375_ sky130_fd_sc_hd__mux2_1
X_12798_ u0.w\[2\]\[3\] _03644_ VSS VSS VDD VDD _03832_ sky130_fd_sc_hd__xnor2_1
X_12799_ _03832_ net57 net497 VSS VSS VDD VDD _00378_ sky130_fd_sc_hd__mux2_1
X_12800_ u0.w\[2\]\[4\] _03653_ VSS VSS VDD VDD _03833_ sky130_fd_sc_hd__xnor2_1
X_12801_ _03833_ net58 net497 VSS VSS VDD VDD _00379_ sky130_fd_sc_hd__mux2_1
X_12802_ net59 VSS VSS VDD VDD _03834_ sky130_fd_sc_hd__clkinvlp_4
X_12803_ _03663_ _03834_ net496 VSS VSS VDD VDD _00380_ sky130_fd_sc_hd__mux2i_1
X_12804_ net60 VSS VSS VDD VDD _03835_ sky130_fd_sc_hd__inv_1
X_12805_ _03672_ _03835_ net496 VSS VSS VDD VDD _00381_ sky130_fd_sc_hd__mux2i_1
X_12806_ _03681_ net61 net497 VSS VSS VDD VDD _00382_ sky130_fd_sc_hd__mux2_1
X_12807_ u0.w\[2\]\[8\] _03687_ VSS VSS VDD VDD _03836_ sky130_fd_sc_hd__xnor2_1
X_12808_ _03836_ net63 net494 VSS VSS VDD VDD _00383_ sky130_fd_sc_hd__mux2_1
X_12809_ u0.w\[2\]\[9\] _03693_ VSS VSS VDD VDD _03837_ sky130_fd_sc_hd__xnor2_1
X_12810_ _03837_ net64 net497 VSS VSS VDD VDD _00384_ sky130_fd_sc_hd__mux2_1
X_12811_ u0.w\[2\]\[10\] _03699_ VSS VSS VDD VDD _03838_ sky130_fd_sc_hd__xor2_1
X_12812_ _03838_ net65 net495 VSS VSS VDD VDD _00354_ sky130_fd_sc_hd__mux2_1
X_12813_ u0.w\[2\]\[11\] _03711_ VSS VSS VDD VDD _03839_ sky130_fd_sc_hd__xor2_1
X_12814_ _03839_ net66 net494 VSS VSS VDD VDD _00355_ sky130_fd_sc_hd__mux2_1
X_12815_ u0.w\[2\]\[12\] _03721_ VSS VSS VDD VDD _03840_ sky130_fd_sc_hd__xnor2_1
X_12816_ _03840_ net67 net494 VSS VSS VDD VDD _00356_ sky130_fd_sc_hd__mux2_1
XTAP_TAPCELL_ROW_53_1291 VSS VDD sky130_fd_sc_hd__tapvpwrvgnd_1
X_12818_ _03731_ net68 net494 VSS VSS VDD VDD _00357_ sky130_fd_sc_hd__mux2_1
X_12819_ net69 VSS VSS VDD VDD _03842_ sky130_fd_sc_hd__clkinvlp_4
X_12820_ _03740_ _03842_ net652 VSS VSS VDD VDD _00358_ sky130_fd_sc_hd__mux2i_1
X_12821_ _03747_ net70 net494 VSS VSS VDD VDD _00359_ sky130_fd_sc_hd__mux2_1
X_12822_ _03581_ _03582_ VSS VSS VDD VDD _03843_ sky130_fd_sc_hd__xor2_1
X_12823_ _03843_ net71 net497 VSS VSS VDD VDD _00360_ sky130_fd_sc_hd__mux2_1
X_12824_ _03587_ _03588_ VSS VSS VDD VDD _03844_ sky130_fd_sc_hd__xor2_1
X_12825_ _03844_ net72 net497 VSS VSS VDD VDD _00361_ sky130_fd_sc_hd__mux2_1
X_12826_ _03613_ _03614_ VSS VSS VDD VDD _03845_ sky130_fd_sc_hd__xor2_1
X_12827_ _03845_ net74 net497 VSS VSS VDD VDD _00362_ sky130_fd_sc_hd__mux2_1
X_12828_ u0.w\[2\]\[19\] _03574_ VSS VSS VDD VDD _03846_ sky130_fd_sc_hd__xor2_1
X_12829_ _03846_ net75 net497 VSS VSS VDD VDD _00363_ sky130_fd_sc_hd__mux2_1
X_12830_ u0.w\[2\]\[20\] _03607_ VSS VSS VDD VDD _03847_ sky130_fd_sc_hd__xnor2_1
X_12831_ _03847_ net76 net495 VSS VSS VDD VDD _00365_ sky130_fd_sc_hd__mux2_1
X_12832_ u0.w\[2\]\[21\] _03598_ VSS VSS VDD VDD _03848_ sky130_fd_sc_hd__xnor2_1
X_12833_ _03848_ net77 net495 VSS VSS VDD VDD _00366_ sky130_fd_sc_hd__mux2_1
X_12834_ u0.w\[2\]\[22\] _03755_ VSS VSS VDD VDD _03849_ sky130_fd_sc_hd__xnor2_1