* CDL Netlist generated by OpenROAD

*.BUSDELIMITER [

.SUBCKT cordic clk done rst_n start x_in[0] x_in[10] x_in[11]
+ x_in[12] x_in[13] x_in[14] x_in[15] x_in[1] x_in[2] x_in[3]
+ x_in[4] x_in[5] x_in[6] x_in[7] x_in[8] x_in[9] x_out[0] x_out[10]
+ x_out[11] x_out[12] x_out[13] x_out[14] x_out[15] x_out[1]
+ x_out[2] x_out[3] x_out[4] x_out[5] x_out[6] x_out[7] x_out[8]
+ x_out[9] y_in[0] y_in[10] y_in[11] y_in[12] y_in[13] y_in[14]
+ y_in[15] y_in[1] y_in[2] y_in[3] y_in[4] y_in[5] y_in[6] y_in[7]
+ y_in[8] y_in[9] y_out[0] y_out[10] y_out[11] y_out[12] y_out[13]
+ y_out[14] y_out[15] y_out[1] y_out[2] y_out[3] y_out[4] y_out[5]
+ y_out[6] y_out[7] y_out[8] y_out[9] z_in[0] z_in[10] z_in[11]
+ z_in[12] z_in[13] z_in[14] z_in[15] z_in[1] z_in[2] z_in[3]
+ z_in[4] z_in[5] z_in[6] z_in[7] z_in[8] z_in[9] z_out[0] z_out[10]
+ z_out[11] z_out[12] z_out[13] z_out[14] z_out[15] z_out[1]
+ z_out[2] z_out[3] z_out[4] z_out[5] z_out[6] z_out[7] z_out[8]
+ z_out[9]
X_1279_ rst_n _0549_ VDD VSS CLKBUF_X3
X_1280_ state\[1\] _0550_ VDD VSS CLKBUF_X3
X_1281_ _1120_ _0550_ _0551_ VDD VSS NAND2_X1
X_1282_ iteration\[1\] _0552_ VDD VSS BUF_X4
X_1283_ _0552_ _0553_ VDD VSS CLKBUF_X3
X_1284_ state\[2\] _0554_ VDD VSS CLKBUF_X3
X_1285_ _0554_ _0550_ _0555_ VDD VSS NOR2_X4
X_1286_ _0553_ _0555_ _0556_ VDD VSS NAND2_X1
X_1287_ _0556_ _0551_ _0557_ VDD VSS NAND2_X2
X_1288_ _0549_ _0557_ _1121_ VDD VSS NAND2_X4
X_1289_ _1121_ _1130_ VDD VSS INV_X4
X_1290_ _0549_ _0558_ VDD VSS INV_X1
X_1291_ _0558_ _0559_ VDD VSS BUF_X4
X_1292_ state\[3\] _0560_ VDD VSS BUF_X2
X_1293_ _0560_ _0561_ VDD VSS CLKBUF_X3
X_1294_ _0559_ _0561_ _0562_ VDD VSS NOR2_X1
X_1295_ state\[0\] _0563_ VDD VSS INV_X1
X_1296_ _0562_ net4 _0563_ _0008_ VDD VSS OAI21_X1
X_1297_ _0559_ _0564_ VDD VSS BUF_X4
X_1298_ _0554_ _0565_ VDD VSS BUF_X4
X_1299_ _0565_ _0566_ VDD VSS BUF_X4
X_1300_ _0550_ _0567_ VDD VSS BUF_X4
X_1301_ _0567_ _0568_ VDD VSS BUF_X4
X_1302_ _0568_ _0569_ VDD VSS BUF_X4
X_1303_ iteration\[2\] _0570_ VDD VSS BUF_X4
X_1304_ _0570_ _0571_ VDD VSS INV_X4
X_1305_ _0571_ _0572_ VDD VSS CLKBUF_X3
X_1306_ iteration\[3\] _0573_ VDD VSS BUF_X4
X_1307_ _0573_ _0574_ VDD VSS BUF_X4
X_1308_ _0572_ _1119_ _0574_ _0575_ VDD VSS NAND3_X1
X_1309_ _0566_ _0569_ _0575_ _0576_ VDD VSS AOI21_X1
X_1310_ _0564_ _0576_ _0009_ VDD VSS NOR2_X1
X_1311_ iteration\[0\] _0577_ VDD VSS BUF_X8
X_1312_ _0577_ _0578_ VDD VSS BUF_X8
X_1313_ net2 _0579_ VDD VSS INV_X1
X_1314_ _0550_ _0579_ _0580_ VDD VSS NAND2_X1
X_1315_ _0555_ _0581_ VDD VSS INV_X1
X_1316_ _0580_ _0581_ _0012_ _0582_ VDD VSS OAI21_X2
X_1317_ _0549_ _0582_ _1122_ VDD VSS NAND2_X2
X_1318_ _1122_ _1125_ VDD VSS INV_X2
X_1319_ _0010_ _0583_ VDD VSS BUF_X2
X_1320_ _0570_ _0584_ VDD VSS BUF_X4
X_1321_ net2 _0585_ VDD VSS BUF_X8
X_1322_ _0553_ _0584_ _0585_ _0586_ VDD VSS NAND3_X1
X_1323_ _0583_ _0586_ _0587_ VDD VSS XOR2_X1
X_1324_ _0567_ _0587_ _0588_ VDD VSS NAND2_X1
X_1325_ _0574_ _0555_ _0589_ VDD VSS NAND2_X1
X_1326_ _0588_ _0589_ _0590_ VDD VSS NAND2_X1
X_1327_ _0549_ _0590_ _0591_ VDD VSS NAND2_X2
X_1328_ _0011_ _0592_ VDD VSS CLKBUF_X3
X_1329_ _0592_ _1119_ _0593_ VDD VSS XNOR2_X2
X_1330_ _0584_ _0555_ _0550_ _0593_ _0594_ VDD VSS AOI22_X4
X_1331_ _0594_ _0558_ _0038_ VDD VSS NOR2_X4
X_1332_ _1121_ _0038_ _0595_ VDD VSS NOR2_X1
X_1333_ _0038_ _0596_ VDD VSS INV_X1
X_1334_ _1126_ _0596_ _0597_ VDD VSS NOR2_X1
X_1335_ _0591_ _0595_ _0597_ _0598_ VDD VSS OAI21_X1
X_1336_ _0598_ _0591_ _1124_ _0000_ VDD VSS OAI21_X1
X_1337_ _1122_ _0038_ _1121_ _0599_ VDD VSS MUX2_X1
X_1338_ _1131_ _0599_ _0591_ _0001_ VDD VSS MUX2_X1
X_1339_ _0591_ _0039_ VDD VSS INV_X2
X_1340_ _1128_ _0582_ _0039_ _0002_ VDD VSS MUX2_X1
X_1341_ _1123_ _0588_ _0589_ _0038_ _0600_ VDD VSS NAND4_X1
X_1342_ _1123_ _1131_ _0601_ VDD VSS NOR2_X1
X_1343_ _1131_ _0602_ VDD VSS INV_X1
X_1344_ _0600_ _0601_ _0591_ net144 _0602_ _0003_ VDD VSS
+ OAI221_X1
X_1345_ _1128_ _0039_ _0603_ VDD VSS NAND2_X1
X_1346_ _0595_ net144 _1133_ _0604_ VDD VSS AOI21_X1
X_1347_ _0603_ _0604_ _0039_ _0004_ VDD VSS OAI21_X1
X_1348_ _1124_ _1131_ _0038_ _0605_ VDD VSS MUX2_X1
X_1349_ _0605_ _1123_ _0039_ _0005_ VDD VSS MUX2_X1
X_1350_ _0025_ _0606_ VDD VSS INV_X1
X_1351_ _0995_ _0607_ VDD VSS INV_X1
X_1352_ _1005_ _0608_ VDD VSS BUF_X1
X_1353_ _1000_ _0609_ VDD VSS BUF_X1
X_1354_ _0609_ _1001_ _1002_ _1003_ _0610_ VDD VSS OR4_X1
X_1355_ _1004_ _0610_ _0611_ VDD VSS OR2_X1
X_1356_ _0608_ _1006_ _0994_ _0611_ _0612_ VDD VSS NOR4_X2
X_1357_ _0607_ _0612_ _0613_ VDD VSS NAND2_X1
X_1358_ _0996_ _0613_ _0614_ VDD VSS NOR2_X1
X_1359_ _0999_ _0615_ VDD VSS INV_X1
X_1360_ _1138_ _0615_ _0616_ VDD VSS NAND2_X2
X_1361_ _0997_ _0616_ _0617_ VDD VSS NOR2_X1
X_1362_ _0606_ _0614_ _0617_ _1178_ VDD VSS AOI21_X1
X_1363_ _0573_ _0618_ VDD VSS INV_X4
X_1364_ _0618_ _0619_ VDD VSS BUF_X4
X_1365_ x\[15\] _0620_ VDD VSS CLKBUF_X3
X_1366_ net139 _0621_ VDD VSS BUF_X8
X_1367_ x\[14\] _0620_ _0621_ _0622_ VDD VSS MUX2_X1
X_1368_ x\[12\] x\[13\] _0621_ _0623_ VDD VSS MUX2_X2
X_1369_ _0552_ _0624_ VDD VSS INV_X4
X_1370_ _0624_ _0625_ VDD VSS BUF_X8
X_1371_ _0622_ _0623_ _0625_ _0626_ VDD VSS MUX2_X2
X_1372_ _0626_ _0627_ VDD VSS INV_X4
X_1373_ _0572_ _0627_ _0628_ VDD VSS NOR2_X2
X_1374_ x\[10\] x\[11\] _0621_ _0629_ VDD VSS MUX2_X1
X_1375_ x\[8\] x\[9\] _0621_ _0630_ VDD VSS MUX2_X1
X_1376_ _0629_ _0630_ _0625_ _0631_ VDD VSS MUX2_X1
X_1377_ _0572_ _0631_ _0632_ VDD VSS AND2_X4
X_1378_ _0628_ _0632_ _0633_ VDD VSS NOR2_X4
X_1379_ _0619_ _0633_ _0634_ VDD VSS NOR2_X1
X_1380_ x\[6\] x\[7\] net1 _0635_ VDD VSS MUX2_X1
X_1381_ x\[4\] x\[5\] _0585_ _0636_ VDD VSS MUX2_X1
X_1382_ _0625_ _0637_ VDD VSS BUF_X4
X_1383_ _0635_ _0636_ _0637_ _0638_ VDD VSS MUX2_X1
X_1384_ x\[2\] x\[3\] _0585_ _0639_ VDD VSS MUX2_X1
X_1385_ x\[0\] x\[1\] _0585_ _0640_ VDD VSS MUX2_X1
X_1386_ _0639_ _0640_ _0637_ _0641_ VDD VSS MUX2_X1
X_1387_ _0638_ _0641_ _0572_ _0642_ VDD VSS MUX2_X1
X_1388_ _0634_ _0642_ _0619_ _1186_ VDD VSS AOI21_X2
X_1389_ _1186_ _1182_ VDD VSS INV_X1
X_1390_ _0637_ _0643_ VDD VSS BUF_X4
X_1391_ _0636_ _0639_ _0643_ _0644_ VDD VSS MUX2_X1
X_1392_ _0570_ _0573_ _0645_ VDD VSS NOR2_X4
X_1393_ _0571_ iteration\[3\] _0646_ VDD VSS NOR2_X4
X_1394_ _0630_ _0635_ _0643_ _0647_ VDD VSS MUX2_X1
X_1395_ _0644_ _0645_ _0646_ _0647_ _0648_ VDD VSS AOI22_X2
X_1396_ _0643_ _0584_ _0649_ VDD VSS NOR2_X2
X_1397_ _0622_ _0629_ _0572_ _0650_ VDD VSS MUX2_X1
X_1398_ net137 _0649_ _0650_ _0643_ _0651_ VDD VSS AOI22_X4
X_1399_ _0648_ _0651_ _0619_ _0652_ VDD VSS OAI21_X2
X_1400_ z\[15\] _0653_ VDD VSS BUF_X2
X_1401_ _0653_ _0654_ VDD VSS BUF_X4
X_1402_ _0654_ _0655_ VDD VSS BUF_X4
X_1403_ _0655_ _1187_ _0656_ VDD VSS NOR2_X1
X_1404_ _0652_ _0656_ _1191_ VDD VSS XNOR2_X1
X_1405_ _0571_ _0618_ _0657_ VDD VSS NAND2_X2
X_1406_ x\[5\] x\[6\] _0585_ _0658_ VDD VSS MUX2_X1
X_1407_ x\[3\] x\[4\] _0585_ _0659_ VDD VSS MUX2_X1
X_1408_ _0658_ _0659_ _0637_ _0660_ VDD VSS MUX2_X1
X_1409_ _0571_ _0573_ _0661_ VDD VSS NAND2_X4
X_1410_ x\[13\] x\[14\] _0621_ _0662_ VDD VSS MUX2_X1
X_1411_ x\[11\] x\[12\] net1 _0663_ VDD VSS MUX2_X1
X_1412_ _0662_ _0663_ _0637_ _0664_ VDD VSS MUX2_X2
X_1413_ _0657_ _0660_ _0661_ _0664_ _0665_ VDD VSS OAI22_X2
X_1414_ _0026_ _0666_ VDD VSS CLKBUF_X2
X_1415_ _0579_ _0573_ _0620_ _0666_ _0667_ VDD VSS AND4_X1
X_1416_ x\[9\] x\[10\] net1 _0668_ VDD VSS MUX2_X1
X_1417_ x\[7\] x\[8\] _0585_ _0669_ VDD VSS MUX2_X1
X_1418_ _0668_ _0669_ _0637_ _0670_ VDD VSS MUX2_X1
X_1419_ _0667_ _0670_ _0619_ _0671_ VDD VSS AOI21_X2
X_1420_ _0665_ _0671_ _0584_ _0672_ VDD VSS AOI21_X4
X_1421_ _0654_ _0673_ VDD VSS CLKBUF_X3
X_1422_ _0631_ _0641_ _0583_ _0674_ VDD VSS MUX2_X1
X_1423_ _0626_ _0638_ _0583_ _0675_ VDD VSS MUX2_X1
X_1424_ _0674_ _0675_ _0584_ _0676_ VDD VSS MUX2_X1
X_1425_ _0625_ _0662_ _0677_ VDD VSS AND2_X1
X_1426_ _0552_ _0579_ _0620_ _0678_ VDD VSS AND3_X1
X_1427_ _0618_ _0677_ _0678_ _0679_ VDD VSS NOR3_X4
X_1428_ _0637_ _0618_ _0680_ VDD VSS NAND2_X1
X_1429_ _0553_ _0618_ _0681_ VDD VSS NAND2_X1
X_1430_ _0658_ _0680_ _0681_ _0669_ _0682_ VDD VSS OAI22_X2
X_1431_ _0572_ _0679_ _0682_ _0683_ VDD VSS NOR3_X2
X_1432_ _0643_ _0663_ _0684_ VDD VSS NOR2_X1
X_1433_ _0553_ _0668_ _0685_ VDD VSS NOR2_X1
X_1434_ _0643_ _0659_ _0686_ VDD VSS NOR2_X1
X_1435_ x\[1\] x\[2\] _0585_ _0687_ VDD VSS MUX2_X1
X_1436_ _0553_ _0687_ _0688_ VDD VSS NOR2_X1
X_1437_ _0661_ _0684_ _0685_ _0688_ _0686_ _0657_ _0689_ VDD
+ VSS OAI33_X1
X_1438_ _0652_ net143 _0683_ net138 _0690_ VDD VSS NOR4_X4
X_1439_ _0673_ _0690_ _0691_ VDD VSS NOR2_X1
X_1440_ _0672_ _0691_ _1194_ VDD VSS XNOR2_X1
X_1441_ _1183_ _1110_ VDD VSS INV_X1
X_1442_ net136 _0645_ _0646_ _0631_ _0692_ VDD VSS AOI22_X2
X_1443_ _0692_ _0661_ _0627_ _0693_ VDD VSS OAI21_X2
X_1444_ _0653_ _0694_ VDD VSS INV_X2
X_1445_ _1187_ _0695_ VDD VSS INV_X1
X_1446_ _0695_ _0652_ _0696_ VDD VSS OR2_X4
X_1447_ _0694_ _0672_ _0696_ _0697_ VDD VSS OAI21_X4
X_1448_ _0693_ _0697_ _1197_ VDD VSS XOR2_X2
X_1449_ _0570_ _0618_ _0698_ VDD VSS NAND2_X4
X_1450_ _0679_ _0584_ _0682_ _0684_ _0685_ _0698_ _0699_ VDD
+ VSS OAI33_X1
X_1451_ _0672_ _0693_ _0700_ VDD VSS NOR2_X1
X_1452_ _0673_ _0690_ _0700_ _0701_ VDD VSS AOI21_X2
X_1453_ _0699_ _0701_ _1200_ VDD VSS XNOR2_X2
X_1454_ _0592_ _0574_ _0666_ _0622_ _0702_ VDD VSS NAND4_X1
X_1455_ _0623_ _0629_ _0643_ _0703_ VDD VSS MUX2_X1
X_1456_ _0647_ _0645_ _0646_ _0703_ _0704_ VDD VSS AOI22_X1
X_1457_ _0702_ _0704_ _0705_ VDD VSS NAND2_X1
X_1458_ _0696_ _0693_ _0672_ net140 _0706_ VDD VSS NOR4_X4
X_1459_ _0706_ _0673_ _0707_ VDD VSS NOR2_X1
X_1460_ _0705_ _0707_ _1203_ VDD VSS XNOR2_X1
X_1461_ _0552_ net2 _0708_ VDD VSS NOR2_X2
X_1462_ _0592_ _0620_ _0708_ _0709_ VDD VSS NAND3_X1
X_1463_ _0574_ _0709_ _0710_ VDD VSS AND2_X1
X_1464_ _0664_ _0670_ _0572_ _0711_ VDD VSS MUX2_X1
X_1465_ _0574_ _0711_ _0712_ VDD VSS NOR2_X2
X_1466_ _0710_ _0712_ _0713_ VDD VSS NOR2_X2
X_1467_ _0694_ _0714_ VDD VSS BUF_X4
X_1468_ _0652_ net138 _0683_ _0676_ _0715_ VDD VSS OR4_X4
X_1469_ _0672_ _0693_ net140 _0705_ _0716_ VDD VSS OR4_X4
X_1470_ _0716_ _0715_ _0717_ VDD VSS OR2_X4
X_1471_ _0717_ _0714_ _0718_ VDD VSS NAND2_X4
X_1472_ _0713_ _0718_ _1206_ VDD VSS XOR2_X2
X_1473_ _0619_ _0628_ _0632_ _0719_ VDD VSS OAI21_X2
X_1474_ _0696_ _0713_ _0716_ _0720_ VDD VSS NOR3_X2
X_1475_ _0673_ _0720_ _0721_ VDD VSS NOR2_X1
X_1476_ _0721_ _0719_ _1209_ VDD VSS XOR2_X2
X_1477_ _0663_ _0668_ _0625_ _0722_ VDD VSS MUX2_X1
X_1478_ _0570_ _0722_ _0723_ VDD VSS OR2_X1
X_1479_ _0572_ _0677_ _0678_ _0724_ VDD VSS OR3_X1
X_1480_ _0723_ _0724_ _0725_ VDD VSS NAND2_X1
X_1481_ _0715_ _0713_ _0716_ _0726_ VDD VSS NOR3_X4
X_1482_ _0654_ _0633_ _0726_ _0727_ VDD VSS AOI21_X1
X_1483_ _0727_ _0725_ _0574_ _0728_ VDD VSS NOR3_X1
X_1484_ _0725_ _0729_ VDD VSS INV_X1
X_1485_ _0574_ _0725_ _0730_ VDD VSS NOR2_X1
X_1486_ _0719_ _0729_ _0726_ _0730_ _0731_ VDD VSS OAI22_X1
X_1487_ _0728_ _0731_ _0714_ _1212_ VDD VSS AOI21_X1
X_1488_ _0574_ _0651_ _0732_ VDD VSS OR2_X1
X_1489_ _0632_ _0723_ _0724_ _0626_ _0584_ _0733_ VDD VSS
+ AOI221_X2
X_1490_ _0710_ _0712_ _0733_ _0574_ _0734_ VDD VSS OAI22_X4
X_1491_ _0696_ _0716_ _0734_ _0735_ VDD VSS NOR3_X2
X_1492_ _0673_ _0735_ _0736_ VDD VSS NOR2_X1
X_1493_ _0732_ _0736_ _1215_ VDD VSS XOR2_X2
X_1494_ _0579_ _0620_ _0666_ _0737_ VDD VSS AND3_X1
X_1495_ _0645_ _0664_ _0737_ _0646_ _0738_ VDD VSS AOI22_X4
X_1496_ _0717_ _0734_ _0739_ VDD VSS NOR2_X1
X_1497_ _0654_ _0732_ _0739_ _0740_ VDD VSS AOI21_X1
X_1498_ _0738_ _0740_ _1218_ VDD VSS XOR2_X2
X_1499_ _0732_ _0738_ _0741_ VDD VSS AND2_X1
X_1500_ _0654_ _0735_ _0741_ _0742_ VDD VSS AOI21_X2
X_1501_ _0583_ _0592_ _0743_ VDD VSS AND2_X1
X_1502_ _0626_ _0743_ _0744_ VDD VSS NAND2_X1
X_1503_ _0742_ _0744_ _1221_ VDD VSS XOR2_X2
X_1504_ _0677_ _0678_ _0745_ VDD VSS NOR2_X1
X_1505_ _0583_ _0592_ _0746_ VDD VSS NAND2_X2
X_1506_ _0745_ _0746_ _0747_ VDD VSS NOR2_X1
X_1507_ _0738_ _0746_ _0627_ _0651_ _0574_ _0748_ VDD VSS
+ OAI221_X2
X_1508_ _0717_ _0734_ _0748_ _0749_ VDD VSS NOR3_X1
X_1509_ _0673_ _0749_ _0750_ VDD VSS NOR2_X1
X_1510_ _0747_ _0750_ _1224_ VDD VSS XNOR2_X1
X_1511_ _0592_ _0618_ _0666_ _0751_ VDD VSS AND3_X1
X_1512_ _0622_ _0751_ _0752_ VDD VSS NAND2_X1
X_1513_ _0694_ _0743_ _0753_ VDD VSS NAND2_X1
X_1514_ _0753_ _0745_ _0627_ _0754_ VDD VSS AOI21_X1
X_1515_ _0742_ _0754_ _0755_ VDD VSS OR2_X1
X_1516_ _0752_ _0755_ _1227_ VDD VSS XOR2_X2
X_1517_ y\[10\] y\[11\] _0578_ _0756_ VDD VSS MUX2_X1
X_1518_ _0625_ _0570_ _0756_ _0757_ VDD VSS OR3_X1
X_1519_ y\[15\] _0758_ VDD VSS CLKBUF_X3
X_1520_ y\[14\] _0758_ _0577_ _0759_ VDD VSS MUX2_X2
X_1521_ _0624_ _0571_ _0759_ _0760_ VDD VSS OR3_X1
X_1522_ y\[8\] y\[9\] _0578_ _0761_ VDD VSS MUX2_X1
X_1523_ _0552_ _0570_ _0761_ _0762_ VDD VSS OR3_X2
X_1524_ y\[12\] y\[13\] _0578_ _0763_ VDD VSS MUX2_X1
X_1525_ _0552_ _0571_ _0763_ _0764_ VDD VSS OR3_X2
X_1526_ _0757_ _0760_ _0762_ _0764_ _0765_ VDD VSS AND4_X2
X_1527_ y\[6\] y\[7\] _0578_ _0766_ VDD VSS MUX2_X1
X_1528_ y\[4\] y\[5\] _0578_ _0767_ VDD VSS MUX2_X1
X_1529_ _0766_ _0767_ _0624_ _0768_ VDD VSS MUX2_X1
X_1530_ y\[2\] y\[3\] net2 _0769_ VDD VSS MUX2_X1
X_1531_ y\[0\] y\[1\] net2 _0770_ VDD VSS MUX2_X1
X_1532_ _0769_ _0770_ _0625_ _0771_ VDD VSS MUX2_X1
X_1533_ _0768_ _0771_ _0572_ _0772_ VDD VSS MUX2_X1
X_1534_ _0765_ _0772_ _0619_ _1230_ VDD VSS MUX2_X1
X_1535_ _0714_ _1236_ _0773_ VDD VSS NAND2_X1
X_1536_ y\[13\] y\[14\] net3 _0774_ VDD VSS MUX2_X1
X_1537_ _0624_ _0774_ _0775_ VDD VSS AND2_X1
X_1538_ _0552_ _0579_ _0758_ _0776_ VDD VSS AND3_X1
X_1539_ _0618_ _0775_ _0776_ _0777_ VDD VSS NOR3_X2
X_1540_ y\[7\] y\[8\] net3 _0778_ VDD VSS MUX2_X1
X_1541_ y\[5\] y\[6\] net1 _0779_ VDD VSS MUX2_X1
X_1542_ _0681_ _0778_ _0779_ _0680_ _0780_ VDD VSS OAI22_X2
X_1543_ _0572_ _0777_ _0780_ _0781_ VDD VSS NOR3_X2
X_1544_ y\[11\] y\[12\] net3 _0782_ VDD VSS MUX2_X1
X_1545_ _0643_ _0782_ _0783_ VDD VSS NOR2_X1
X_1546_ y\[9\] y\[10\] net3 _0784_ VDD VSS MUX2_X1
X_1547_ _0553_ _0784_ _0785_ VDD VSS NOR2_X1
X_1548_ y\[3\] y\[4\] net1 _0786_ VDD VSS MUX2_X1
X_1549_ _0643_ _0786_ _0787_ VDD VSS NOR2_X1
X_1550_ y\[1\] y\[2\] _0585_ _0788_ VDD VSS MUX2_X1
X_1551_ _0553_ _0788_ _0789_ VDD VSS NOR2_X1
X_1552_ _0661_ _0783_ _0785_ _0787_ _0789_ _0657_ _0790_ VDD
+ VSS OAI33_X1
X_1553_ _0781_ _0790_ _1233_ VDD VSS NOR2_X1
X_1554_ _0773_ _1233_ _0025_ _1237_ VDD VSS OAI21_X1
X_1555_ _1237_ _1116_ VDD VSS INV_X1
X_1556_ _0549_ _0567_ _0791_ VDD VSS NAND2_X1
X_1557_ _0575_ _0791_ _0007_ VDD VSS NOR2_X1
X_1558_ _0549_ _0792_ VDD VSS BUF_X4
X_1559_ _0792_ _0793_ VDD VSS BUF_X2
X_1560_ _0793_ state\[0\] net4 _0006_ VDD VSS AND3_X1
X_1561_ _1231_ _1115_ VDD VSS INV_X1
X_1562_ _0683_ _0689_ _1185_ VDD VSS NOR2_X1
X_1563_ _0774_ _0782_ _0624_ _0794_ VDD VSS MUX2_X2
X_1564_ _0645_ _0794_ _0795_ VDD VSS NAND2_X1
X_1565_ _0579_ _0666_ _0758_ _0796_ VDD VSS NAND3_X1
X_1566_ _0795_ _0796_ _0698_ _0797_ VDD VSS OAI21_X2
X_1567_ _0765_ _0772_ _0583_ _0798_ VDD VSS MUX2_X1
X_1568_ net105 _0756_ _0625_ _0799_ VDD VSS MUX2_X2
X_1569_ _0767_ _0769_ _0625_ _0800_ VDD VSS MUX2_X1
X_1570_ _0661_ _0799_ _0800_ _0657_ _0801_ VDD VSS OAI22_X2
X_1571_ _0637_ _0573_ _0759_ _0802_ VDD VSS AND3_X1
X_1572_ _0761_ _0766_ _0625_ _0803_ VDD VSS MUX2_X1
X_1573_ _0802_ _0803_ _0618_ _0804_ VDD VSS AOI21_X2
X_1574_ _0801_ _0804_ _0584_ _0805_ VDD VSS AOI21_X4
X_1575_ _0798_ _0790_ _0781_ _0805_ _0806_ VDD VSS NOR4_X4
X_1576_ _0646_ _0799_ _0803_ _0645_ _0807_ VDD VSS AOI22_X2
X_1577_ _0592_ _0666_ _0759_ _0808_ VDD VSS NAND3_X1
X_1578_ _0807_ _0808_ _0619_ _0809_ VDD VSS OAI21_X2
X_1579_ _0645_ _0768_ _0810_ VDD VSS NAND2_X1
X_1580_ _0763_ _0759_ _0553_ _0811_ VDD VSS MUX2_X1
X_1581_ _0811_ _0812_ VDD VSS INV_X1
X_1582_ _0761_ _0756_ _0553_ _0813_ VDD VSS MUX2_X1
X_1583_ _0813_ _0814_ VDD VSS INV_X1
X_1584_ _0810_ _0812_ _0661_ _0698_ _0814_ _0815_ VDD VSS
+ OAI221_X2
X_1585_ _0779_ _0786_ _0637_ _0816_ VDD VSS MUX2_X1
X_1586_ _0661_ _0794_ _0816_ _0657_ _0817_ VDD VSS OAI22_X2
X_1587_ _0579_ _0573_ _0666_ _0758_ _0818_ VDD VSS AND4_X1
X_1588_ _0778_ _0784_ _0552_ _0819_ VDD VSS MUX2_X1
X_1589_ _0818_ _0819_ _0618_ _0820_ VDD VSS AOI21_X2
X_1590_ _0817_ _0820_ _0584_ _0821_ VDD VSS AOI21_X4
X_1591_ _0584_ _0777_ _0780_ _0783_ _0785_ _0698_ _0822_ VDD
+ VSS OAI33_X1
X_1592_ _0809_ _0815_ _0821_ _0822_ _0823_ VDD VSS NOR4_X2
X_1593_ net134 _0823_ _0824_ VDD VSS AND2_X2
X_1594_ _0645_ _0799_ _0825_ VDD VSS NAND2_X1
X_1595_ _0643_ _0759_ _0826_ VDD VSS NAND2_X1
X_1596_ _0825_ _0826_ _0698_ _0827_ VDD VSS OAI21_X4
X_1597_ _0553_ _0570_ _0784_ _0828_ VDD VSS NOR3_X2
X_1598_ _0637_ _0570_ _0782_ _0829_ VDD VSS NOR3_X2
X_1599_ _0571_ _0775_ _0776_ _0830_ VDD VSS NOR3_X2
X_1600_ _0573_ _0828_ _0829_ _0830_ _0831_ VDD VSS NOR4_X4
X_1601_ _0592_ _0573_ _0758_ _0708_ _0832_ VDD VSS AND4_X1
X_1602_ _0832_ _0794_ _0646_ _0645_ _0819_ _0833_ VDD VSS
+ AOI221_X2
X_1603_ _0757_ _0760_ _0762_ _0764_ _0834_ VDD VSS NAND4_X1
X_1604_ _0833_ _0834_ _0573_ _0835_ VDD VSS OAI21_X2
X_1605_ _0827_ _0831_ _0835_ _0836_ VDD VSS NOR3_X1
X_1606_ _0654_ _0824_ _0836_ _0837_ VDD VSS AOI21_X1
X_1607_ _0797_ _0837_ _1267_ VDD VSS XOR2_X2
X_1608_ _0751_ _0759_ _0838_ VDD VSS NAND2_X1
X_1609_ _1235_ _0839_ VDD VSS INV_X2
X_1610_ _0805_ _0839_ _0840_ VDD VSS NOR2_X4
X_1611_ _0823_ _0840_ _0841_ VDD VSS AND2_X1
X_1612_ _0775_ _0776_ _0842_ VDD VSS OR2_X1
X_1613_ _0743_ _0842_ _0811_ _0843_ VDD VSS OAI21_X1
X_1614_ _0797_ _0827_ _0831_ _0835_ _0844_ VDD VSS NOR4_X4
X_1615_ _0841_ _0843_ _0844_ _0845_ VDD VSS NAND3_X1
X_1616_ _0714_ _0845_ _0846_ VDD VSS NAND2_X1
X_1617_ _0838_ _0846_ _1276_ VDD VSS XOR2_X2
X_1618_ _0714_ _1139_ _0847_ VDD VSS NAND2_X1
X_1619_ _0847_ _0714_ _1137_ _1107_ VDD VSS OAI21_X2
X_1620_ _1138_ _0615_ _0848_ VDD VSS OR2_X1
X_1621_ _0655_ _0616_ _0848_ _0849_ VDD VSS AOI21_X1
X_1622_ _0655_ _0850_ VDD VSS CLKBUF_X3
X_1623_ _0849_ _0013_ _0850_ _1142_ VDD VSS AOI21_X1
X_1624_ _0654_ _0851_ VDD VSS BUF_X4
X_1625_ _1136_ _0852_ VDD VSS INV_X1
X_1626_ _0999_ _0998_ _0852_ _0853_ VDD VSS NOR3_X4
X_1627_ _0609_ _0853_ _0854_ VDD VSS XNOR2_X1
X_1628_ _0851_ _0854_ _0855_ VDD VSS NOR2_X1
X_1629_ _0855_ _0014_ _0850_ _1145_ VDD VSS AOI21_X1
X_1630_ _0609_ _0616_ _0856_ VDD VSS NOR2_X1
X_1631_ _1001_ _0856_ _0857_ VDD VSS XNOR2_X1
X_1632_ _0851_ _0857_ _0858_ VDD VSS NOR2_X1
X_1633_ _0858_ _0015_ _0850_ _1148_ VDD VSS AOI21_X1
X_1634_ _0853_ _0859_ VDD VSS INV_X1
X_1635_ _0609_ _1001_ _0859_ _0860_ VDD VSS NOR3_X1
X_1636_ _1002_ _0860_ _0861_ VDD VSS XNOR2_X1
X_1637_ _0851_ _0861_ _0862_ VDD VSS NOR2_X1
X_1638_ _0862_ _0016_ _0850_ _1151_ VDD VSS AOI21_X1
X_1639_ _0609_ _1001_ _1002_ _0616_ _0863_ VDD VSS NOR4_X1
X_1640_ _1003_ _0863_ _0864_ VDD VSS XNOR2_X1
X_1641_ _0851_ _0864_ _0865_ VDD VSS NOR2_X1
X_1642_ _0865_ _0017_ _0850_ _1154_ VDD VSS AOI21_X1
X_1643_ _0610_ _0859_ _0866_ VDD VSS NOR2_X1
X_1644_ _1004_ _0866_ _0867_ VDD VSS XNOR2_X1
X_1645_ _0655_ _0867_ _0868_ VDD VSS NOR2_X1
X_1646_ _0868_ _0018_ _0850_ _1157_ VDD VSS AOI21_X1
X_1647_ _0611_ _0616_ _0869_ VDD VSS NOR2_X1
X_1648_ _0608_ _0869_ _0870_ VDD VSS XNOR2_X1
X_1649_ _0655_ _0870_ _0871_ VDD VSS NOR2_X1
X_1650_ _0871_ _0019_ _0850_ _1160_ VDD VSS AOI21_X1
X_1651_ _0608_ _0611_ _0859_ _0872_ VDD VSS NOR3_X1
X_1652_ _1006_ _0872_ _0873_ VDD VSS XNOR2_X1
X_1653_ _0655_ _0873_ _0874_ VDD VSS NOR2_X1
X_1654_ _0874_ _0020_ _0850_ _1163_ VDD VSS AOI21_X1
X_1655_ _0608_ _1006_ _0611_ _0616_ _0875_ VDD VSS NOR4_X1
X_1656_ _0994_ _0875_ _0876_ VDD VSS XNOR2_X1
X_1657_ _0655_ _0876_ _0877_ VDD VSS NOR2_X1
X_1658_ _0877_ _0021_ _0850_ _1166_ VDD VSS AOI21_X1
X_1659_ _0612_ _0853_ _0878_ VDD VSS NAND2_X1
X_1660_ _0607_ _0878_ _0879_ VDD VSS XNOR2_X1
X_1661_ _0655_ _0879_ _0880_ VDD VSS NOR2_X1
X_1662_ _0880_ _0022_ _0850_ _1169_ VDD VSS AOI21_X1
X_1663_ _0613_ _0616_ _0881_ VDD VSS NOR2_X1
X_1664_ _0996_ _0881_ _0882_ VDD VSS XNOR2_X1
X_1665_ _0655_ _0882_ _0883_ VDD VSS NOR2_X1
X_1666_ _0883_ _0023_ _0851_ _1172_ VDD VSS AOI21_X1
X_1667_ _0614_ _0853_ _0884_ VDD VSS NAND2_X1
X_1668_ _0997_ _0884_ _0885_ VDD VSS XOR2_X1
X_1669_ _0655_ _0885_ _0886_ VDD VSS NOR2_X1
X_1670_ _0886_ _0024_ _0851_ _1175_ VDD VSS AOI21_X1
X_1671_ _0714_ _1185_ _0887_ VDD VSS NOR2_X1
X_1672_ _0887_ _1188_ _0714_ _1111_ VDD VSS AOI21_X2
X_1673_ _1230_ _1234_ VDD VSS INV_X2
X_1674_ _0606_ _0805_ _0888_ VDD VSS NAND2_X1
X_1675_ _0839_ _0805_ _0889_ VDD VSS XNOR2_X1
X_1676_ _0888_ _0889_ _0851_ _1240_ VDD VSS OAI21_X1
X_1677_ _0821_ _0890_ VDD VSS INV_X1
X_1678_ net134 _0890_ _0891_ VDD VSS XNOR2_X1
X_1679_ _0025_ _0890_ _0891_ _0851_ _1243_ VDD VSS OAI22_X2
X_1680_ _0606_ _0815_ _0892_ VDD VSS NAND2_X1
X_1681_ _0840_ _0890_ _0893_ VDD VSS NAND2_X2
X_1682_ _0893_ _0815_ _0894_ VDD VSS XNOR2_X2
X_1683_ _0892_ _0851_ _0894_ _1246_ VDD VSS OAI21_X2
X_1684_ _0815_ _0821_ _0895_ VDD VSS NOR2_X1
X_1685_ _0654_ _0895_ _0806_ _0896_ VDD VSS AOI21_X2
X_1686_ _0822_ _0896_ _1249_ VDD VSS XOR2_X2
X_1687_ _0815_ _0821_ _0822_ _0897_ VDD VSS NOR3_X1
X_1688_ _0654_ _0897_ _0840_ _0898_ VDD VSS AOI21_X4
X_1689_ _0809_ _0898_ _1252_ VDD VSS XOR2_X2
X_1690_ _0673_ _0824_ _0899_ VDD VSS NOR2_X1
X_1691_ _0899_ _0833_ _1255_ VDD VSS XNOR2_X1
X_1692_ _0619_ _0765_ _0900_ VDD VSS NAND2_X1
X_1693_ _0673_ _0833_ _0841_ _0901_ VDD VSS AOI21_X1
X_1694_ _0900_ _0901_ _1258_ VDD VSS XNOR2_X1
X_1695_ _0824_ _0902_ VDD VSS INV_X1
X_1696_ _0714_ _0902_ _0835_ _0903_ VDD VSS OAI21_X1
X_1697_ _0831_ _0903_ _1261_ VDD VSS XNOR2_X1
X_1698_ _0831_ _0835_ _0904_ VDD VSS NOR2_X1
X_1699_ _0654_ _0904_ _0841_ _0905_ VDD VSS AOI21_X1
X_1700_ _0827_ _0905_ _1264_ VDD VSS XOR2_X2
X_1701_ _0743_ _0811_ _0906_ VDD VSS NAND2_X1
X_1702_ _0673_ _0841_ _0844_ _0907_ VDD VSS AOI21_X1
X_1703_ _0906_ _0907_ _1270_ VDD VSS XNOR2_X1
X_1704_ net135 _0823_ _0844_ _0908_ VDD VSS NAND3_X1
X_1705_ _0714_ _0811_ _0908_ _0909_ VDD VSS OAI21_X1
X_1706_ _0743_ _0842_ _0909_ _0910_ VDD VSS NAND3_X1
X_1707_ _0824_ _0844_ _0906_ _0911_ VDD VSS NAND3_X1
X_1708_ _0775_ _0776_ _0912_ VDD VSS NOR2_X1
X_1709_ _0746_ _0908_ _0911_ _0912_ _0913_ VDD VSS AOI22_X1
X_1710_ _0910_ _0913_ _0851_ _1273_ VDD VSS OAI21_X1
X_1711_ _0591_ _0596_ _0914_ VDD VSS NAND2_X2
X_1712_ _1121_ _1122_ _0914_ _0027_ VDD VSS NOR3_X1
X_1713_ _0602_ _0914_ _0028_ VDD VSS NOR2_X1
X_1714_ _1128_ _0915_ VDD VSS INV_X1
X_1715_ _0915_ _0914_ _0029_ VDD VSS NOR2_X1
X_1716_ _1130_ _1125_ _0914_ _0030_ VDD VSS NOR3_X1
X_1717_ _0582_ _0596_ _0916_ VDD VSS NOR2_X1
X_1718_ _1124_ net144 _0917_ VDD VSS NOR2_X1
X_1719_ _0039_ _0916_ _0917_ _0031_ VDD VSS NOR3_X1
X_1720_ _0916_ _0596_ _1124_ _0918_ VDD VSS AOI21_X1
X_1721_ _0039_ _0918_ _0032_ VDD VSS NOR2_X1
X_1722_ _0595_ net144 _1128_ _0919_ VDD VSS AOI21_X1
X_1723_ _0039_ _0919_ _0033_ VDD VSS NOR2_X1
X_1724_ _0600_ _0914_ _0915_ _0034_ VDD VSS OAI21_X1
X_1725_ _0561_ _0563_ net53 _0920_ VDD VSS AOI21_X1
X_1726_ _0564_ _0920_ _0035_ VDD VSS NOR2_X1
X_1727_ _0585_ _0555_ _0921_ VDD VSS NAND2_X1
X_1728_ _0559_ _0580_ _0921_ _0036_ VDD VSS AOI21_X1
X_1729_ _1121_ _0037_ VDD VSS INV_X1
X_1730_ _0567_ _0922_ VDD VSS INV_X1
X_1731_ _0922_ _0923_ VDD VSS BUF_X4
X_1732_ _0923_ _0924_ VDD VSS BUF_X4
X_1733_ _0924_ _1232_ _0925_ VDD VSS NOR2_X1
X_1734_ _0567_ _0926_ VDD VSS BUF_X4
X_1735_ _0565_ _0927_ VDD VSS BUF_X4
X_1736_ x\[0\] net5 _0927_ _0928_ VDD VSS MUX2_X1
X_1737_ _0926_ _0928_ _0929_ VDD VSS NOR2_X1
X_1738_ _0564_ _0925_ _0929_ _0040_ VDD VSS NOR3_X1
X_1739_ _0792_ _0930_ VDD VSS CLKBUF_X3
X_1740_ x\[10\] net6 _0927_ _0931_ VDD VSS MUX2_X1
X_1741_ _0930_ _0569_ _0931_ _0932_ VDD VSS OAI21_X1
X_1742_ _1262_ _0933_ VDD VSS INV_X1
X_1743_ _1256_ _1259_ _0934_ VDD VSS OR2_X1
XPHY_EDGE_ROW_0_Right_0 VDD VSS TAPCELL_X1
X_1745_ _1247_ _1250_ _1253_ _0936_ VDD VSS NOR3_X1
X_1746_ _1241_ _0937_ VDD VSS INV_X1
X_1747_ _1242_ _0938_ VDD VSS INV_X1
X_1748_ _0937_ _0938_ _1117_ _0939_ VDD VSS OAI21_X1
X_1749_ _1244_ _0939_ net141 _0940_ VDD VSS AOI21_X2
X_1750_ _1248_ _0941_ VDD VSS BUF_X1
X_1751_ _0941_ _0942_ VDD VSS INV_X1
X_1752_ _0936_ _0940_ _0942_ _0943_ VDD VSS OAI21_X1
X_1753_ _1257_ _0944_ VDD VSS INV_X1
X_1754_ _1253_ _0945_ VDD VSS INV_X1
X_1755_ _1251_ _0946_ VDD VSS BUF_X1
X_1756_ _1254_ _1250_ _0946_ _0947_ VDD VSS OAI21_X1
X_1757_ _0944_ _0945_ _0947_ _0948_ VDD VSS AOI21_X4
X_1758_ _0934_ _0943_ _0948_ _0949_ VDD VSS AOI21_X2
X_1759_ _1263_ _1259_ _1260_ _0950_ VDD VSS OAI21_X2
X_1760_ _0933_ _0949_ _0950_ _0951_ VDD VSS OAI21_X1
X_1761_ _1266_ _0951_ _0952_ VDD VSS XNOR2_X1
X_1762_ _0568_ _0953_ VDD VSS CLKBUF_X3
X_1763_ _0932_ _0952_ _0953_ _0041_ VDD VSS AOI21_X1
X_1764_ x\[11\] net7 _0927_ _0954_ VDD VSS MUX2_X1
X_1765_ _0930_ _0569_ _0954_ _0955_ VDD VSS OAI21_X1
X_1766_ _1245_ _1241_ _1242_ _0956_ VDD VSS OAI21_X1
X_1767_ _1238_ _1241_ _0957_ VDD VSS NOR2_X1
X_1768_ _1231_ _1239_ _0958_ VDD VSS NAND2_X1
X_1769_ _0956_ _0957_ _0958_ _0959_ VDD VSS AOI21_X2
X_1770_ _1253_ _1250_ _1247_ _0960_ VDD VSS OR3_X4
X_1771_ _0960_ _1244_ _0961_ VDD VSS OR2_X4
X_1772_ _0948_ _0961_ _0959_ _0960_ _0941_ _0962_ VDD VSS
+ OAI221_X2
X_1773_ _1262_ _0934_ _0963_ VDD VSS NOR2_X1
X_1774_ _0933_ _0950_ _0963_ _0962_ _0964_ VDD VSS AOI22_X2
X_1775_ _1265_ _0964_ _1266_ _0965_ VDD VSS AOI21_X1
X_1776_ _1269_ _0965_ _0966_ VDD VSS XOR2_X1
X_1777_ _0955_ _0966_ _0953_ _0042_ VDD VSS AOI21_X1
X_1778_ _1272_ _0967_ VDD VSS BUF_X1
X_1779_ _1262_ _1265_ _1268_ _0968_ VDD VSS NOR3_X1
X_1780_ _0968_ _0950_ _0949_ _0969_ VDD VSS OAI21_X2
X_1781_ _1266_ _1265_ _1268_ _0970_ VDD VSS NOR3_X1
X_1782_ _1269_ _1268_ _0971_ VDD VSS NOR2_X1
X_1783_ _0970_ _0971_ _0972_ VDD VSS NOR2_X1
X_1784_ _0967_ _0969_ _0972_ _0973_ VDD VSS AOI21_X1
X_1785_ _0967_ _0969_ _0972_ _0974_ VDD VSS AND3_X1
X_1786_ _0923_ _0973_ _0974_ _0975_ VDD VSS OR3_X1
X_1787_ x\[12\] net8 _0566_ _0976_ VDD VSS MUX2_X1
X_1788_ _0924_ _0976_ _0977_ VDD VSS NAND2_X1
X_1789_ _0559_ _0975_ _0977_ _0043_ VDD VSS AOI21_X1
X_1790_ _1275_ _0978_ VDD VSS BUF_X1
X_1791_ _1271_ _0979_ VDD VSS INV_X1
X_1792_ _1269_ _0967_ _1265_ _0980_ VDD VSS AND3_X1
X_1793_ _1266_ _1269_ _0967_ _0981_ VDD VSS AND3_X1
X_1794_ _0980_ _0964_ _0981_ _0967_ _1268_ _0982_ VDD VSS
+ AOI221_X2
X_1795_ _0982_ _0979_ _0983_ VDD VSS NAND2_X1
X_1796_ _0983_ _0978_ _0984_ VDD VSS XOR2_X1
X_1797_ _0984_ _0924_ _0985_ VDD VSS NOR2_X1
X_1798_ x\[13\] net9 _0927_ _0986_ VDD VSS MUX2_X1
X_1799_ _0926_ _0986_ _0987_ VDD VSS NOR2_X1
X_1800_ _0985_ _0564_ _0987_ _0044_ VDD VSS NOR3_X1
X_1801_ _0568_ _1278_ _0988_ VDD VSS NAND2_X1
X_1802_ _1274_ _1271_ _0978_ _0989_ VDD VSS AOI21_X1
X_1803_ _0967_ _0978_ _0969_ _0972_ _0990_ VDD VSS NAND4_X1
X_1804_ _0988_ _0989_ _0990_ _0991_ VDD VSS AOI21_X1
X_1805_ _1278_ _0992_ VDD VSS INV_X1
X_1806_ _0568_ _0992_ _0990_ _0989_ _0993_ VDD VSS AND4_X1
X_1807_ _0567_ _0136_ VDD VSS BUF_X4
X_1808_ x\[14\] net10 _0565_ _0137_ VDD VSS MUX2_X1
X_1809_ _0792_ _0136_ _0137_ _0138_ VDD VSS OAI21_X1
X_1810_ _0991_ _0993_ _0138_ _0045_ VDD VSS NOR3_X1
X_1811_ _1277_ _0978_ _1274_ _0139_ VDD VSS NOR3_X1
X_1812_ _1277_ _1271_ _1274_ _0140_ VDD VSS NOR3_X1
X_1813_ _1277_ _0141_ VDD VSS INV_X1
X_1814_ _0139_ _0982_ _0140_ _0141_ _0992_ _0142_ VDD VSS
+ AOI221_X2
X_1815_ _0142_ _0567_ _0143_ VDD VSS NAND2_X1
X_1816_ _0592_ _0619_ _0758_ _0708_ _0144_ VDD VSS NAND4_X2
X_1817_ _0620_ _0144_ _0145_ VDD VSS XNOR2_X2
X_1818_ _0653_ _0145_ _0146_ VDD VSS NOR2_X1
X_1819_ _0146_ _0147_ VDD VSS INV_X1
X_1820_ _0147_ _0844_ _0843_ _0148_ VDD VSS AOI21_X1
X_1821_ _0653_ _0145_ _0149_ VDD VSS AND2_X1
X_1822_ _0653_ _0838_ _0145_ _0150_ VDD VSS NOR3_X1
X_1823_ _0148_ _0149_ _0150_ _0151_ VDD VSS NOR3_X1
X_1824_ _0838_ _0843_ _0844_ _0145_ _0152_ VDD VSS NAND4_X1
X_1825_ _0147_ _0152_ _0824_ _0153_ VDD VSS MUX2_X1
X_1826_ _0143_ _0151_ _0153_ _0154_ VDD VSS AOI21_X2
X_1827_ _0620_ net11 _0554_ _0155_ VDD VSS MUX2_X1
X_1828_ _0792_ _0567_ _0155_ _0156_ VDD VSS OAI21_X1
X_1829_ _0153_ _0151_ _0157_ VDD VSS AND2_X1
X_1830_ _0923_ _0142_ _0158_ VDD VSS NOR2_X1
X_1831_ _0156_ _0154_ _0157_ _0158_ _0046_ VDD VSS AOI211_X2
X_1832_ _0568_ _1118_ _0159_ VDD VSS NAND2_X1
X_1833_ x\[1\] net12 _0566_ _0160_ VDD VSS MUX2_X1
X_1834_ _0159_ _0160_ _0569_ _0161_ VDD VSS OAI21_X1
X_1835_ _0564_ _0161_ _0047_ VDD VSS NOR2_X1
X_1836_ _1117_ _1242_ _0162_ VDD VSS XNOR2_X1
X_1837_ _0924_ _0162_ _0163_ VDD VSS NOR2_X1
X_1838_ _0554_ _0164_ VDD VSS BUF_X4
X_1839_ x\[2\] net13 _0164_ _0165_ VDD VSS MUX2_X1
X_1840_ _0926_ _0165_ _0166_ VDD VSS NOR2_X1
X_1841_ _0564_ _0163_ _0166_ _0048_ VDD VSS NOR3_X1
X_1842_ _1238_ _1239_ _1231_ _0167_ VDD VSS AOI21_X1
X_1843_ _0937_ _0167_ _0938_ _0168_ VDD VSS OAI21_X1
X_1844_ net142 _0168_ _0169_ VDD VSS NOR2_X1
X_1845_ _0568_ _0959_ _0169_ _0170_ VDD VSS OAI21_X1
X_1846_ x\[3\] net14 _0566_ _0171_ VDD VSS MUX2_X1
X_1847_ _0170_ _0171_ _0569_ _0172_ VDD VSS OAI21_X1
X_1848_ _0564_ _0172_ _0049_ VDD VSS NOR2_X1
X_1849_ _0941_ _0940_ _0173_ VDD VSS XNOR2_X1
X_1850_ _0924_ _0173_ _0174_ VDD VSS NOR2_X1
X_1851_ x\[4\] net15 _0164_ _0175_ VDD VSS MUX2_X1
X_1852_ _0926_ _0175_ _0176_ VDD VSS NOR2_X1
X_1853_ _0564_ _0174_ _0176_ _0050_ VDD VSS NOR3_X1
X_1854_ _0792_ _0177_ VDD VSS BUF_X2
X_1855_ x\[5\] net16 _0565_ _0178_ VDD VSS MUX2_X1
X_1856_ _0923_ _0178_ _0179_ VDD VSS NAND2_X1
X_1857_ _1247_ _0180_ VDD VSS INV_X1
X_1858_ _0941_ _1244_ _0959_ _0181_ VDD VSS OAI21_X1
X_1859_ _0180_ _0181_ _0182_ VDD VSS NAND2_X1
X_1860_ _0946_ _0182_ _0183_ VDD VSS XNOR2_X1
X_1861_ _0923_ _0184_ VDD VSS BUF_X4
X_1862_ _0179_ _0183_ _0184_ _0185_ VDD VSS OAI21_X1
X_1863_ _0177_ _0185_ _0051_ VDD VSS AND2_X1
X_1864_ _0559_ _0186_ VDD VSS BUF_X4
X_1865_ _0180_ _0940_ _0942_ _0187_ VDD VSS OAI21_X1
X_1866_ _1250_ _0187_ _0946_ _0188_ VDD VSS AOI21_X1
X_1867_ _1254_ _0188_ _0189_ VDD VSS XNOR2_X1
X_1868_ _0924_ _0189_ _0190_ VDD VSS NOR2_X1
X_1869_ x\[6\] net17 _0164_ _0191_ VDD VSS MUX2_X1
X_1870_ _0926_ _0191_ _0192_ VDD VSS NOR2_X1
X_1871_ _0186_ _0190_ _0192_ _0052_ VDD VSS NOR3_X1
X_1872_ _1257_ _1253_ _0193_ VDD VSS NOR2_X1
X_1873_ _1250_ _0182_ _0946_ _0194_ VDD VSS AOI21_X1
X_1874_ _1254_ _0195_ VDD VSS INV_X1
X_1875_ _0193_ _0194_ _0195_ _0196_ VDD VSS OAI21_X1
X_1876_ _0184_ net102 _0196_ _0197_ VDD VSS AOI21_X1
X_1877_ x\[7\] net18 _0164_ _0198_ VDD VSS MUX2_X1
X_1878_ _0926_ _0198_ _0199_ VDD VSS NOR2_X1