
* cell cordic
* pin x_out[3]
* pin x_in[3]
* pin x_out[5]
* pin x_in[4]
* pin x_out[4]
* pin x_out[6]
* pin x_in[6]
* pin x_in[7]
* pin x_in[8]
* pin x_out[7]
* pin x_out[8]
* pin y_out[0]
* pin x_out[9]
* pin y_in[0]
* pin y_out[10]
* pin x_in[9]
* pin y_in[1]
* pin y_out[11]
* pin y_out[1]
* pin y_in[2]
* pin y_out[2]
* pin PWELL
* pin clk
* pin NWELL
* pin y_out[3]
* pin x_in[2]
* pin y_in[3]
* pin x_in[1]
* pin y_in[4]
* pin y_out[4]
* pin x_out[2]
* pin y_in[5]
* pin x_out[1]
* pin x_in[5]
* pin x_out[0]
* pin y_out[5]
* pin x_in[0]
* pin y_in[7]
* pin x_out[10]
* pin x_in[10]
* pin x_in[11]
* pin y_in[10]
* pin x_out[11]
* pin x_in[12]
* pin x_out[12]
* pin y_out[15]
* pin x_out[13]
* pin x_in[13]
* pin y_in[11]
* pin y_out[12]
* pin y_in[15]
* pin x_out[15]
* pin x_in[14]
* pin x_out[14]
* pin y_in[12]
* pin x_in[15]
* pin done
* pin y_in[6]
* pin start
* pin y_in[13]
* pin y_out[13]
* pin z_in[1]
* pin y_in[14]
* pin z_out[1]
* pin z_out[2]
* pin z_in[2]
* pin y_in[9]
* pin y_in[8]
* pin y_out[14]
* pin y_out[6]
* pin z_out[3]
* pin y_out[9]
* pin z_out[15]
* pin z_in[3]
* pin y_out[8]
* pin rst_n
* pin z_in[7]
* pin z_in[0]
* pin y_out[7]
* pin z_out[6]
* pin z_in[6]
* pin z_out[14]
* pin z_out[8]
* pin z_out[0]
* pin z_out[7]
* pin z_out[5]
* pin z_in[8]
* pin z_out[9]
* pin z_out[12]
* pin z_out[4]
* pin z_in[5]
* pin z_in[4]
* pin z_out[11]
* pin z_in[9]
* pin z_in[13]
* pin z_in[10]
* pin z_in[11]
* pin z_in[12]
* pin z_out[10]
* pin z_out[13]
* pin z_in[15]
* pin z_in[14]
.SUBCKT cordic 1 2 3 4 5 6 7 8 9 10 11 12 13 14 15 16 17 18 19 20 21 30 39 54
+ 130 193 203 293 314 316 378 407 486 487 488 503 521 569 570 591 637 655 675
+ 708 709 719 766 767 785 786 850 857 858 891 900 922 939 955 982 997 998 1007
+ 1022 1039 1040 1041 1051 1052 1053 1073 1110 1124 1125 1130 1153 1169 1170
+ 1193 1194 1210 1211 1264 1300 1307 1323 1363 1430 1465 1467 1468 1469 1472
+ 1473 1477 1483 1484 1487 1490 1491 1492 1493 1494
* net 1 x_out[3]
* net 2 x_in[3]
* net 3 x_out[5]
* net 4 x_in[4]
* net 5 x_out[4]
* net 6 x_out[6]
* net 7 x_in[6]
* net 8 x_in[7]
* net 9 x_in[8]
* net 10 x_out[7]
* net 11 x_out[8]
* net 12 y_out[0]
* net 13 x_out[9]
* net 14 y_in[0]
* net 15 y_out[10]
* net 16 x_in[9]
* net 17 y_in[1]
* net 18 y_out[11]
* net 19 y_out[1]
* net 20 y_in[2]
* net 21 y_out[2]
* net 30 PWELL
* net 39 clk
* net 54 NWELL
* net 130 y_out[3]
* net 193 x_in[2]
* net 203 y_in[3]
* net 293 x_in[1]
* net 314 y_in[4]
* net 316 y_out[4]
* net 378 x_out[2]
* net 407 y_in[5]
* net 486 x_out[1]
* net 487 x_in[5]
* net 488 x_out[0]
* net 503 y_out[5]
* net 521 x_in[0]
* net 569 y_in[7]
* net 570 x_out[10]
* net 591 x_in[10]
* net 637 x_in[11]
* net 655 y_in[10]
* net 675 x_out[11]
* net 708 x_in[12]
* net 709 x_out[12]
* net 719 y_out[15]
* net 766 x_out[13]
* net 767 x_in[13]
* net 785 y_in[11]
* net 786 y_out[12]
* net 850 y_in[15]
* net 857 x_out[15]
* net 858 x_in[14]
* net 891 x_out[14]
* net 900 y_in[12]
* net 922 x_in[15]
* net 939 done
* net 955 y_in[6]
* net 982 start
* net 997 y_in[13]
* net 998 y_out[13]
* net 1007 z_in[1]
* net 1022 y_in[14]
* net 1039 z_out[1]
* net 1040 z_out[2]
* net 1041 z_in[2]
* net 1051 y_in[9]
* net 1052 y_in[8]
* net 1053 y_out[14]
* net 1073 y_out[6]
* net 1110 z_out[3]
* net 1124 y_out[9]
* net 1125 z_out[15]
* net 1130 z_in[3]
* net 1153 y_out[8]
* net 1169 rst_n
* net 1170 z_in[7]
* net 1193 z_in[0]
* net 1194 y_out[7]
* net 1210 z_out[6]
* net 1211 z_in[6]
* net 1264 z_out[14]
* net 1300 z_out[8]
* net 1307 z_out[0]
* net 1323 z_out[7]
* net 1363 z_out[5]
* net 1430 z_in[8]
* net 1465 z_out[9]
* net 1467 z_out[12]
* net 1468 z_out[4]
* net 1469 z_in[5]
* net 1472 z_in[4]
* net 1473 z_out[11]
* net 1477 z_in[9]
* net 1483 z_in[13]
* net 1484 z_in[10]
* net 1487 z_in[11]
* net 1490 z_in[12]
* net 1491 z_out[10]
* net 1492 z_out[13]
* net 1493 z_in[15]
* net 1494 z_in[14]
* cell instance $2 r0 *1 9.88,1.4
X$2 51 30 54 1 BUF_X1
* cell instance $8 r0 *1 10.45,1.4
X$8 2 30 54 33 BUF_X1
* cell instance $14 r0 *1 14.25,1.4
X$14 35 30 54 3 BUF_X1
* cell instance $20 r0 *1 15.77,1.4
X$20 4 30 54 71 BUF_X1
* cell instance $26 r0 *1 19.95,1.4
X$26 24 30 54 5 BUF_X1
* cell instance $32 r0 *1 22.42,1.4
X$32 25 30 54 6 BUF_X1
* cell instance $38 r0 *1 24.7,1.4
X$38 7 30 54 37 BUF_X1
* cell instance $44 r0 *1 26.79,1.4
X$44 8 30 54 55 BUF_X1
* cell instance $50 r0 *1 28.69,1.4
X$50 9 30 54 74 BUF_X1
* cell instance $56 r0 *1 32.11,1.4
X$56 26 30 54 10 BUF_X1
* cell instance $62 r0 *1 33.06,1.4
X$62 40 30 54 11 BUF_X1
* cell instance $68 r0 *1 36.48,1.4
X$68 84 30 54 12 BUF_X1
* cell instance $74 r0 *1 38.38,1.4
X$74 42 30 54 13 BUF_X1
* cell instance $80 r0 *1 40.28,1.4
X$80 14 30 54 44 BUF_X1
* cell instance $86 r0 *1 40.85,1.4
X$86 27 30 54 15 BUF_X1
* cell instance $92 r0 *1 44.27,1.4
X$92 16 30 54 60 BUF_X1
* cell instance $98 r0 *1 46.55,1.4
X$98 17 30 54 45 BUF_X1
* cell instance $104 r0 *1 47.69,1.4
X$104 29 30 54 18 BUF_X1
* cell instance $110 r0 *1 51.68,1.4
X$110 47 30 54 19 BUF_X1
* cell instance $116 r0 *1 53.01,1.4
X$116 20 30 54 48 BUF_X1
* cell instance $122 r0 *1 56.05,1.4
X$122 50 30 54 21 BUF_X1
* cell instance $128 r0 *1 11.02,1.4
X$128 30 1581 35 34 22 54 DFF_X1
* cell instance $130 r0 *1 6.27,18.2
X$130 30 477 22 1526 375 54 DFF_X2
* cell instance $133 r0 *1 13.68,18.2
X$133 383 30 54 22 CLKBUF_X3
* cell instance $136 m0 *1 9.5,21
X$136 30 505 22 1516 89 54 DFF_X2
* cell instance $138 r0 *1 14.63,18.2
X$138 22 30 54 1497 INV_X4
* cell instance $140 m0 *1 8.93,23.8
X$140 30 625 22 1512 549 54 DFF_X2
* cell instance $145 r0 *1 4.94,12.6
X$145 294 23 210 30 54 317 MUX2_X1
* cell instance $148 m0 *1 39.14,4.2
X$148 27 23 91 30 54 43 MUX2_X1
* cell instance $150 r0 *1 10.07,4.2
X$150 51 23 77 30 54 62 MUX2_X1
* cell instance $153 m0 *1 12.54,4.2
X$153 35 23 89 30 54 69 MUX2_X1
* cell instance $155 r0 *1 13.49,15.4
X$155 380 30 54 23 CLKBUF_X3
* cell instance $157 r0 *1 20.9,1.4
X$157 25 23 32 30 54 36 MUX2_X1
* cell instance $160 r0 *1 18.43,1.4
X$160 24 23 52 30 54 53 MUX2_X1
* cell instance $163 r0 *1 30.78,1.4
X$163 26 23 122 30 54 56 MUX2_X1
* cell instance $166 r0 *1 35.34,4.2
X$166 84 23 123 30 54 108 MUX2_X1
* cell instance $168 r0 *1 33.63,1.4
X$168 40 23 58 30 54 41 MUX2_X1
* cell instance $170 r0 *1 37.05,1.4
X$170 42 23 28 30 54 59 MUX2_X1
* cell instance $185 r0 *1 18.05,4.2
X$185 30 1583 24 79 80 54 DFF_X1
* cell instance $189 m0 *1 18.81,4.2
X$189 30 1541 25 73 80 54 DFF_X1
* cell instance $194 r0 *1 30.4,4.2
X$194 30 1591 26 83 80 54 DFF_X1
* cell instance $199 r0 *1 39.52,4.2
X$199 30 1590 27 90 99 54 DFF_X1
* cell instance $206 m0 *1 35.15,21
X$206 58 495 28 30 54 530 MUX2_X1
* cell instance $208 r0 *1 41.99,7
X$208 30 137 99 1528 28 54 DFF_X2
* cell instance $211 r0 *1 42.94,1.4
X$211 28 38 60 30 54 86 MUX2_X1
* cell instance $214 m0 *1 23.37,21
X$214 28 513 218 54 30 490 HA_X1
* cell instance $218 r0 *1 34.2,21
X$218 28 274 549 30 54 394 MUX2_X1
* cell instance $229 m0 *1 44.46,4.2
X$229 30 1546 29 72 66 54 DFF_X1
* cell instance $231 m0 *1 47.69,4.2
X$231 29 46 127 30 54 70 MUX2_X1
* cell instance $232 m0 *1 44.46,21
X$232 30 542 457 289 443 402 54 OR4_X4
* cell instance $234 m0 *1 46.93,21
X$234 30 442 443 402 289 469 54 NOR4_X4
* cell instance $235 m0 *1 50.35,21
X$235 512 460 532 54 30 447 HA_X1
* cell instance $238 m0 *1 53.2,21
X$238 533 471 321 54 30 500 OAI21_X2
* cell instance $239 m0 *1 54.53,21
X$239 501 502 539 30 54 509 NOR3_X1
* cell instance $241 m0 *1 55.48,21
X$241 539 507 54 30 506 XNOR2_X1
* cell instance $242 m0 *1 56.62,21
X$242 383 30 54 129 CLKBUF_X3
* cell instance $245 m0 *1 40.47,21
X$245 468 494 497 514 30 54 515 AOI22_X2
* cell instance $247 r0 *1 40.66,21
X$247 468 400 54 558 30 AND2_X4
* cell instance $250 m0 *1 42.56,21
X$250 515 499 304 54 30 443 OAI21_X2
* cell instance $252 r0 *1 42.94,21
X$252 558 559 440 30 54 NOR2_X4
* cell instance $253 r0 *1 44.65,21
X$253 499 400 30 54 559 NOR2_X2
* cell instance $255 r0 *1 45.79,21
X$255 542 561 442 54 541 30 NOR3_X2
* cell instance $256 r0 *1 47.12,21
X$256 585 583 54 582 30 XOR2_X2
* cell instance $261 r0 *1 51.68,21
X$261 447 532 564 54 628 30 OAI21_X1
* cell instance $262 r0 *1 52.44,21
X$262 565 30 54 566 INV_X1
* cell instance $263 r0 *1 52.82,21
X$263 509 565 30 54 577 NOR2_X1
* cell instance $264 r0 *1 53.39,21
X$264 562 565 447 30 54 533 NOR3_X1
* cell instance $267 r0 *1 54.72,21
X$267 502 501 567 30 54 568 OR3_X4
* cell instance $268 r0 *1 56.81,21
X$268 536 30 54 1496 INV_X4
* cell instance $269 r0 *1 57.76,21
X$269 383 30 54 536 CLKBUF_X3
* cell instance $270 m0 *1 58.52,21
X$270 534 125 30 54 538 NOR2_X1
* cell instance $271 m0 *1 57.95,21
X$271 506 202 30 54 574 NOR2_X1
* cell instance $273 r0 *1 58.71,21
X$273 529 103 572 30 54 534 MUX2_X1
* cell instance $278 m0 *1 59.47,21
X$278 30 1535 474 472 536 54 DFF_X1
* cell instance $279 r0 *1 60.04,21
X$279 569 30 54 572 BUF_X1
* cell instance $284 m0 *1 15.2,51.8
X$284 1293 1295 30 54 1316 OR2_X1
* cell instance $286 m0 *1 15.96,51.8
X$286 1315 1281 30 54 1297 NOR2_X1
* cell instance $287 m0 *1 16.53,51.8
X$287 1296 1278 1297 30 1254 54 AOI21_X1
* cell instance $288 m0 *1 17.29,51.8
X$288 1282 1254 30 54 1279 XOR2_X1
* cell instance $290 r0 *1 15.01,51.8
X$290 1301 1339 1316 30 1315 54 AOI21_X2
* cell instance $292 r0 *1 16.72,51.8
X$292 1324 1315 1281 54 1405 30 NOR3_X2
* cell instance $294 r0 *1 18.43,51.8
X$294 1318 30 54 1282 BUF_X1
* cell instance $296 m0 *1 18.81,51.8
X$296 1283 1341 30 54 1272 XOR2_X1
* cell instance $299 r0 *1 19,51.8
X$299 1265 1338 1318 54 30 1344 HA_X1
* cell instance $302 m0 *1 24.32,51.8
X$302 1255 1134 1218 30 1252 54 AOI21_X1
* cell instance $304 m0 *1 25.08,51.8
X$304 1319 362 30 54 1255 NOR2_X1
* cell instance $306 r0 *1 24.13,51.8
X$306 1217 1340 54 30 1319 XNOR2_X1
* cell instance $309 r0 *1 25.84,51.8
X$309 30 1322 1348 1219 1216 54 DFF_X1
* cell instance $310 m0 *1 26.22,51.8
X$310 986 1299 1256 54 1302 30 OAI21_X1
* cell instance $312 m0 *1 26.98,51.8
X$312 1257 986 30 54 1325 NOR2_X1
* cell instance $316 r0 *1 29.07,51.8
X$316 1337 1134 1322 30 1338 54 AOI21_X1
* cell instance $318 m0 *1 30.4,51.8
X$318 1165 30 54 1274 INV_X1
* cell instance $321 m0 *1 31.92,51.8
X$321 1241 1274 30 54 1298 NOR2_X1
* cell instance $322 m0 *1 31.16,51.8
X$322 1274 1241 1094 54 1284 30 OAI21_X1
* cell instance $324 m0 *1 32.68,51.8
X$324 1241 1182 30 54 1285 NOR2_X1
* cell instance $326 m0 *1 33.44,51.8
X$326 30 1303 1141 1298 1260 54 DFF_X1
* cell instance $328 m0 *1 36.86,51.8
X$328 1106 1144 30 54 1273 NOR2_X1
* cell instance $330 m0 *1 37.62,51.8
X$330 1141 1273 54 30 1286 XNOR2_X1
* cell instance $332 m0 *1 38.95,51.8
X$332 1286 278 30 54 1287 NOR2_X1
* cell instance $335 m0 *1 40.47,51.8
X$335 1221 1247 1317 54 30 1185 HA_X1
* cell instance $336 m0 *1 42.37,51.8
X$336 1304 1312 30 54 1294 XOR2_X1
* cell instance $337 m0 *1 43.51,51.8
X$337 1017 1294 1271 54 1269 30 OAI21_X1
* cell instance $339 m0 *1 44.46,51.8
X$339 383 30 54 1260 CLKBUF_X3
* cell instance $340 m0 *1 45.41,51.8
X$340 1260 30 54 1608 INV_X1
* cell instance $344 r0 *1 32.3,51.8
X$344 30 1336 1321 1285 1260 54 DFF_X1
* cell instance $345 r0 *1 35.53,51.8
X$345 1321 30 54 1327 INV_X1
* cell instance $347 r0 *1 36.1,51.8
X$347 1320 1327 30 54 1144 NAND2_X1
* cell instance $351 r0 *1 38.76,51.8
X$351 1287 362 1303 30 1331 54 AOI21_X1
* cell instance $354 r0 *1 40.47,51.8
X$354 1317 30 54 1304 CLKBUF_X2
* cell instance $355 r0 *1 41.23,51.8
X$355 1304 1305 54 30 1332 AND2_X1
* cell instance $356 r0 *1 41.99,51.8
X$356 1351 1305 1329 1311 1328 1312 54 30 AOI221_X2
* cell instance $358 r0 *1 44.27,51.8
X$358 1358 1331 1311 54 30 1329 HA_X1
* cell instance $359 m0 *1 47.5,51.8
X$359 1189 1288 54 30 1306 AND2_X1
* cell instance $360 m0 *1 46.17,51.8
X$360 1310 1121 1221 30 54 1288 MUX2_X1
* cell instance $363 m0 *1 52.06,51.8
X$363 30 1555 1267 1290 1191 54 DFF_X1
* cell instance $365 m0 *1 56.81,51.8
X$365 1267 30 54 1264 BUF_X1
* cell instance $366 m0 *1 57.38,51.8
X$366 30 1567 1263 1289 1191 54 DFF_X1
* cell instance $368 m0 *1 61.37,51.8
X$368 1263 30 54 1307 BUF_X1
* cell instance $372 r0 *1 47.69,51.8
X$372 30 1587 1310 1306 1260 54 DFF_X1
* cell instance $382 m0 *1 52.82,15.4
X$382 350 351 281 30 54 311 OR3_X4
* cell instance $383 m0 *1 52.44,15.4
X$383 349 30 54 246 INV_X1
* cell instance $384 m0 *1 54.91,15.4
X$384 349 351 352 54 312 30 OAI21_X1
* cell instance $385 m0 *1 55.67,15.4
X$385 349 30 54 449 BUF_X1
* cell instance $386 m0 *1 56.24,15.4
X$386 284 351 30 54 363 NOR2_X1
* cell instance $389 m0 *1 57.76,15.4
X$389 361 125 30 54 320 NOR2_X1
* cell instance $390 m0 *1 58.33,15.4
X$390 286 103 358 30 54 361 MUX2_X1
* cell instance $391 m0 *1 59.66,15.4
X$391 87 318 54 30 360 AND2_X1
* cell instance $394 m0 *1 50.16,15.4
X$394 286 369 349 54 30 351 HA_X1
* cell instance $396 r0 *1 50.35,15.4
X$396 406 415 352 54 30 350 HA_X1
* cell instance $397 r0 *1 52.25,15.4
X$397 351 349 282 30 414 54 AOI21_X1
* cell instance $398 r0 *1 53.01,15.4
X$398 350 30 54 403 INV_X1
* cell instance $399 r0 *1 53.39,15.4
X$399 447 350 351 30 54 404 OR3_X4
* cell instance $400 r0 *1 55.48,15.4
X$400 352 363 54 30 353 XNOR2_X1
* cell instance $402 r0 *1 56.81,15.4
X$402 353 202 30 54 405 NOR2_X1
* cell instance $403 r0 *1 57.38,15.4
X$403 410 405 354 30 54 452 NOR3_X1
* cell instance $404 r0 *1 58.14,15.4
X$404 408 125 30 54 410 NOR2_X1
* cell instance $406 r0 *1 58.9,15.4
X$406 30 1573 313 360 129 54 DFF_X1
* cell instance $411 m0 *1 60.8,15.4
X$411 314 30 54 358 BUF_X1
* cell instance $412 m0 *1 61.94,15.4
X$412 313 30 54 316 BUF_X1
* cell instance $419 m0 *1 8.55,51.8
X$419 1251 595 1279 30 1277 54 AOI21_X1
* cell instance $422 m0 *1 10.83,51.8
X$422 1291 595 30 54 1268 NAND2_X1
* cell instance $423 m0 *1 11.4,51.8
X$423 1292 30 54 1278 BUF_X1
* cell instance $424 m0 *1 11.97,51.8
X$424 1213 1252 1292 54 30 1296 HA_X1
* cell instance $425 m0 *1 13.87,51.8
X$425 1295 1293 1253 30 1280 54 AOI21_X1
* cell instance $427 m0 *1 5.89,51.8
X$427 1276 1042 1214 30 54 1309 MUX2_X1
* cell instance $431 r0 *1 5.7,51.8
X$431 1002 1309 54 30 1333 AND2_X1
* cell instance $433 r0 *1 7.98,51.8
X$433 30 1598 1265 1277 1171 54 DFF_X1
* cell instance $434 r0 *1 11.21,51.8
X$434 1278 1334 54 30 1291 XNOR2_X1
* cell instance $435 r0 *1 12.35,51.8
X$435 1301 1339 1314 30 1334 54 AOI21_X1
* cell instance $437 r0 *1 13.3,51.8
X$437 1313 30 54 1314 INV_X1
* cell instance $439 r0 *1 13.87,51.8
X$439 1295 1293 1173 30 1313 54 AOI21_X1
* cell instance $441 m0 *1 41.04,49
X$441 1185 30 54 1145 INV_X1
* cell instance $443 m0 *1 41.42,49
X$443 383 30 54 1019 CLKBUF_X3
* cell instance $444 m0 *1 42.37,49
X$444 1019 30 54 1495 INV_X4
* cell instance $445 m0 *1 43.32,49
X$445 1249 1186 1145 30 54 1166 NAND3_X1
* cell instance $448 r0 *1 41.04,49
X$448 1221 107 1248 30 54 1246 MUX2_X1
* cell instance $450 r0 *1 42.56,49
X$450 1246 93 594 30 54 1271 NAND3_X1
* cell instance $453 r0 *1 43.89,49
X$453 30 1578 1221 1269 1260 54 DFF_X1
* cell instance $454 m0 *1 44.65,49
X$454 1148 1222 1188 30 54 1223 MUX2_X1
* cell instance $456 m0 *1 45.98,49
X$456 1187 547 1463 30 54 1250 MUX2_X1
* cell instance $457 m0 *1 47.31,49
X$457 1250 159 594 54 1200 30 OAI21_X1
* cell instance $461 r0 *1 47.69,49
X$461 30 1585 1187 1224 1260 54 DFF_X1
* cell instance $463 m0 *1 48.45,49
X$463 1200 1223 30 54 1224 NOR2_X1
* cell instance $465 m0 *1 52.82,49
X$465 1196 794 30 54 1198 NOR2_X1
* cell instance $466 m0 *1 53.39,49
X$466 30 1556 1096 1190 1191 54 DFF_X1
* cell instance $467 m0 *1 56.62,49
X$467 1096 103 1233 30 54 1196 MUX2_X1
* cell instance $468 m0 *1 57.95,49
X$468 1191 30 54 1530 INV_X2
* cell instance $470 r0 *1 50.92,49
X$470 1267 1121 1187 30 54 1261 MUX2_X1
* cell instance $471 r0 *1 52.25,49
X$471 1189 1261 54 30 1290 AND2_X1
* cell instance $474 r0 *1 54.91,49
X$474 383 30 54 1191 CLKBUF_X3
* cell instance $476 r0 *1 56.24,49
X$476 1263 1121 1096 30 54 1262 MUX2_X1
* cell instance $477 r0 *1 57.57,49
X$477 1189 1262 54 30 1289 AND2_X1
* cell instance $480 r0 *1 58.9,49
X$480 30 1586 1192 1232 1191 54 DFF_X1
* cell instance $481 m0 *1 59.09,49
X$481 1189 1195 54 30 1232 AND2_X1
* cell instance $483 m0 *1 59.85,49
X$483 1193 30 54 1233 BUF_X1
* cell instance $486 m0 *1 62.13,49
X$486 1192 30 54 1194 BUF_X1
* cell instance $494 m0 *1 51.11,18.2
X$494 352 30 54 455 INV_X1
* cell instance $496 m0 *1 51.49,18.2
X$496 455 414 403 54 444 30 OAI21_X1
* cell instance $497 m0 *1 52.25,18.2
X$497 403 455 30 54 446 NAND2_X1
* cell instance $500 r0 *1 51.11,18.2
X$500 445 444 54 30 511 XNOR2_X1
* cell instance $501 r0 *1 52.25,18.2
X$501 532 30 54 445 INV_X1
* cell instance $502 r0 *1 52.63,18.2
X$502 447 532 446 30 501 54 AOI21_X1
* cell instance $504 m0 *1 53.2,18.2
X$504 403 312 54 30 471 AND2_X1
* cell instance $505 m0 *1 54.15,18.2
X$505 30 502 404 449 282 54 AOI21_X4
* cell instance $508 r0 *1 53.58,18.2
X$508 321 471 445 30 54 448 NOR3_X1
* cell instance $509 r0 *1 54.34,18.2
X$509 447 448 30 54 507 OR2_X1
* cell instance $510 r0 *1 55.1,18.2
X$510 476 30 54 539 INV_X1
* cell instance $511 r0 *1 55.48,18.2
X$511 129 30 54 1532 INV_X2
* cell instance $513 m0 *1 60.61,18.2
X$513 406 103 450 30 54 408 MUX2_X1
* cell instance $514 m0 *1 57,18.2
X$514 30 452 129 1509 406 54 DFF_X2
* cell instance $516 m0 *1 62.13,18.2
X$516 407 30 54 450 BUF_X1
* cell instance $523 r0 *1 60.04,18.2
X$523 87 473 54 30 472 AND2_X1
* cell instance $524 r0 *1 60.8,18.2
X$524 474 46 406 30 54 473 MUX2_X1
* cell instance $525 r0 *1 62.13,18.2
X$525 474 30 54 503 BUF_X1
* cell instance $537 r0 *1 3.04,9.8
X$537 193 30 54 248 BUF_X1
* cell instance $539 r0 *1 5.13,9.8
X$539 210 38 248 30 54 194 MUX2_X1
* cell instance $540 m0 *1 6.46,9.8
X$540 194 81 30 54 249 NOR2_X1
* cell instance $544 m0 *1 10.83,9.8
X$544 170 30 54 195 INV_X1
* cell instance $547 r0 *1 6.65,9.8
X$547 249 223 111 30 54 211 NOR3_X1
* cell instance $549 r0 *1 7.6,9.8
X$549 250 93 30 54 223 NOR2_X1
* cell instance $551 r0 *1 8.36,9.8
X$551 212 251 54 30 250 XNOR2_X1
* cell instance $553 r0 *1 9.69,9.8
X$553 251 30 54 213 INV_X1
* cell instance $554 r0 *1 10.07,9.8
X$554 212 213 195 54 255 30 OAI21_X1
* cell instance $555 r0 *1 10.83,9.8
X$555 213 214 195 54 225 30 OAI21_X1
* cell instance $556 r0 *1 11.59,9.8
X$556 225 224 30 54 204 NOR2_X1
* cell instance $557 m0 *1 11.78,9.8
X$557 204 171 180 54 160 30 OAI21_X1
* cell instance $561 r0 *1 12.16,9.8
X$561 170 226 30 54 254 NOR2_X1
* cell instance $564 r0 *1 13.3,9.8
X$564 161 228 255 30 115 54 AOI21_X2
* cell instance $566 m0 *1 13.68,9.8
X$566 171 161 113 54 162 30 OAI21_X1
* cell instance $567 m0 *1 14.63,9.8
X$567 113 172 185 171 206 215 30 54 OAI221_X2
* cell instance $568 m0 *1 16.72,9.8
X$568 161 172 30 185 54 OR2_X4
* cell instance $569 m0 *1 18.43,9.8
X$569 141 142 120 30 54 172 OR3_X4
* cell instance $570 m0 *1 20.52,9.8
X$570 30 206 209 165 138 54 AOI21_X4
* cell instance $572 r0 *1 14.63,9.8
X$572 228 30 54 224 BUF_X1
* cell instance $574 r0 *1 15.58,9.8
X$574 215 30 54 145 BUF_X1
* cell instance $575 r0 *1 16.15,9.8
X$575 258 30 54 113 BUF_X1
* cell instance $576 r0 *1 16.72,9.8
X$576 322 52 258 54 30 141 HA_X1
* cell instance $577 r0 *1 18.62,9.8
X$577 207 206 30 54 192 NAND2_X1
* cell instance $579 r0 *1 19.38,9.8
X$579 263 30 54 164 BUF_X1
* cell instance $580 r0 *1 19.95,9.8
X$580 89 367 263 54 30 142 HA_X1
* cell instance $581 r0 *1 21.85,9.8
X$581 142 164 196 30 189 54 AOI21_X1
* cell instance $582 r0 *1 22.61,9.8
X$582 216 122 121 54 30 217 HA_X1
* cell instance $583 m0 *1 24.13,9.8
X$583 190 144 145 30 168 54 AOI21_X1
* cell instance $584 m0 *1 23.37,9.8
X$584 143 189 173 54 144 30 OAI21_X1
* cell instance $586 r0 *1 24.51,9.8
X$586 217 30 54 146 INV_X1
* cell instance $587 r0 *1 24.89,9.8
X$587 145 146 30 54 265 NAND2_X1
* cell instance $588 m0 *1 25.27,9.8
X$588 174 192 146 30 208 54 AOI21_X1
* cell instance $589 m0 *1 26.03,9.8
X$589 174 146 192 54 30 191 AND3_X1
* cell instance $591 m0 *1 27.17,9.8
X$591 208 191 190 30 54 147 NOR3_X1
* cell instance $593 m0 *1 30.97,9.8
X$593 30 219 54 148 BUF_X8
* cell instance $596 r0 *1 25.46,9.8
X$596 231 174 265 30 197 54 AOI21_X1
* cell instance $597 r0 *1 26.22,9.8
X$597 218 197 54 30 267 XNOR2_X1
* cell instance $601 r0 *1 31.35,9.8
X$601 101 219 88 30 54 234 MUX2_X1
* cell instance $602 r0 *1 32.68,9.8
X$602 122 219 58 30 54 235 MUX2_X1
* cell instance $603 r0 *1 34.01,9.8
X$603 89 219 32 30 54 236 MUX2_X1
* cell instance $605 m0 *1 34.58,9.8
X$605 32 274 122 30 54 237 MUX2_X1
* cell instance $607 r0 *1 35.34,9.8
X$607 77 219 52 30 54 275 MUX2_X1
* cell instance $608 r0 *1 36.67,9.8
X$608 52 219 89 30 54 239 MUX2_X1
* cell instance $610 m0 *1 37.05,9.8
X$610 30 187 123 188 66 54 DFF_X1
* cell instance $611 m0 *1 41.04,9.8
X$611 150 180 30 54 149 NAND2_X1
* cell instance $612 m0 *1 41.61,9.8
X$612 187 198 150 54 30 152 HA_X1
* cell instance $616 r0 *1 42.56,9.8
X$616 328 30 54 198 INV_X1
* cell instance $618 r0 *1 43.13,9.8
X$618 267 202 30 54 151 NOR2_X1
* cell instance $621 m0 *1 44.08,9.8
X$621 30 205 200 186 166 101 54 FA_X1
* cell instance $622 m0 *1 47.12,9.8
X$622 186 202 30 54 126 NOR2_X1
* cell instance $625 m0 *1 48.64,9.8
X$625 243 175 30 54 153 NOR2_X1
* cell instance $626 m0 *1 49.21,9.8
X$626 152 154 153 54 199 30 OAI21_X1
* cell instance $627 m0 *1 49.97,9.8
X$627 175 30 54 184 INV_X1
* cell instance $628 m0 *1 50.35,9.8
X$628 152 154 184 54 176 30 OAI21_X1
* cell instance $629 m0 *1 51.11,9.8
X$629 200 201 30 54 183 XOR2_X1
* cell instance $631 m0 *1 52.44,9.8
X$631 183 202 30 54 182 NOR2_X1
* cell instance $632 m0 *1 53.01,9.8
X$632 181 182 100 30 54 128 NOR3_X1
* cell instance $634 m0 *1 53.96,9.8
X$634 179 125 30 54 253 NOR2_X1
* cell instance $636 m0 *1 55.29,9.8
X$636 177 103 178 30 54 179 MUX2_X1
* cell instance $639 m0 *1 57.57,9.8
X$639 203 30 54 178 BUF_X1
* cell instance $640 m0 *1 58.14,9.8
X$640 157 46 177 30 54 156 MUX2_X1
* cell instance $641 m0 *1 59.47,9.8
X$641 87 156 54 30 155 AND2_X1
* cell instance $648 r0 *1 50.35,9.8
X$648 243 201 176 30 261 54 AOI21_X1
* cell instance $650 r0 *1 51.3,9.8
X$650 243 200 201 30 257 54 AOI21_X1
* cell instance $652 r0 *1 52.25,9.8
X$652 220 261 54 30 221 XNOR2_X1
* cell instance $653 r0 *1 53.39,9.8
X$653 221 202 30 54 245 NOR2_X1
* cell instance $655 r0 *1 54.15,9.8
X$655 253 245 100 30 54 222 NOR3_X1
* cell instance $656 r0 *1 54.91,9.8
X$656 30 222 129 1525 177 54 DFF_X2
* cell instance $667 m0 *1 4.56,60.2
X$667 30 1557 1459 1426 1171 54 DFF_X1
* cell instance $669 m0 *1 7.98,60.2
X$669 30 1551 1466 1427 1171 54 DFF_X1
* cell instance $671 m0 *1 11.4,60.2
X$671 1428 550 1471 30 54 1470 MUX2_X1
* cell instance $672 m0 *1 12.73,60.2
X$672 1470 794 30 54 1429 NOR2_X1
* cell instance $674 m0 *1 13.49,60.2
X$674 1429 1474 354 30 54 1475 NOR3_X1
* cell instance $685 r0 *1 6.84,60.2
X$685 1459 30 54 1465 BUF_X1
* cell instance $690 r0 *1 10.26,60.2
X$690 1466 30 54 1468 BUF_X1
* cell instance $692 r0 *1 11.21,60.2
X$692 1469 30 54 1364 BUF_X1
* cell instance $693 r0 *1 11.78,60.2
X$693 1472 30 54 1471 BUF_X1
* cell instance $696 r0 *1 13.3,60.2
X$696 30 1596 1428 1475 1171 54 DFF_X1
* cell instance $697 m0 *1 15.58,60.2
X$697 1428 1452 1449 54 30 1451 HA_X1
* cell instance $703 r0 *1 17.48,60.2
X$703 1444 550 1476 30 54 1480 MUX2_X1
* cell instance $704 m0 *1 18.81,60.2
X$704 1430 30 54 1270 BUF_X1
* cell instance $706 m0 *1 19.38,60.2
X$706 1480 794 30 54 1431 NOR2_X1
* cell instance $708 m0 *1 20.71,60.2
X$708 1431 1432 843 30 54 1479 NOR3_X1
* cell instance $712 m0 *1 26.22,60.2
X$712 30 1434 1481 1325 1216 54 DFF_X1
* cell instance $713 m0 *1 29.45,60.2
X$713 1481 30 54 1376 BUF_X1
* cell instance $715 m0 *1 30.21,60.2
X$715 30 1461 1423 1284 1216 54 DFF_X1
* cell instance $717 m0 *1 33.63,60.2
X$717 1444 1457 1482 54 30 1413 HA_X1
* cell instance $718 m0 *1 35.53,60.2
X$718 1482 30 54 1354 CLKBUF_X2
* cell instance $720 r0 *1 18.81,60.2
X$720 1477 30 54 1476 BUF_X1
* cell instance $723 r0 *1 20.52,60.2
X$723 30 1580 1444 1479 1216 54 DFF_X1
* cell instance $727 r0 *1 25.08,60.2
X$727 1460 1134 1433 30 1452 54 AOI21_X1
* cell instance $730 r0 *1 32.68,60.2
X$730 1436 1134 1461 30 1457 54 AOI21_X1
* cell instance $732 m0 *1 38.57,60.2
X$732 1439 1361 54 30 1454 AND2_X1
* cell instance $733 m0 *1 36.67,60.2
X$733 1441 1458 1438 54 30 1412 HA_X1
* cell instance $734 m0 *1 39.33,60.2
X$734 1438 1454 54 30 1455 XNOR2_X1
* cell instance $735 m0 *1 40.47,60.2
X$735 30 1545 1441 1440 1260 54 DFF_X1
* cell instance $736 m0 *1 43.7,60.2
X$736 1441 103 1485 30 54 1448 MUX2_X1
* cell instance $740 r0 *1 40.47,60.2
X$740 1493 30 54 1095 BUF_X1
* cell instance $743 r0 *1 41.61,60.2
X$743 1483 30 54 1248 BUF_X1
* cell instance $746 r0 *1 44.08,60.2
X$746 1484 30 54 1485 BUF_X1
* cell instance $748 r0 *1 44.84,60.2
X$748 1414 103 1486 30 54 1462 MUX2_X1
* cell instance $750 m0 *1 45.41,60.2
X$750 1462 794 30 54 1447 NOR2_X1
* cell instance $751 r0 *1 46.17,60.2
X$751 1487 30 54 1486 BUF_X1
* cell instance $752 m0 *1 47.69,60.2
X$752 30 1562 1489 1442 1260 54 DFF_X1
* cell instance $753 m0 *1 46.36,60.2
X$753 1489 1121 1441 30 54 1445 MUX2_X1
* cell instance $754 m0 *1 50.92,60.2
X$754 1478 1121 1414 30 54 1464 MUX2_X1
* cell instance $759 r0 *1 46.74,60.2
X$759 1494 30 54 1463 BUF_X1
* cell instance $761 r0 *1 47.69,60.2
X$761 1490 30 54 1382 BUF_X1
* cell instance $763 r0 *1 49.78,60.2
X$763 1310 30 54 1492 BUF_X1
* cell instance $764 r0 *1 50.35,60.2
X$764 1489 30 54 1491 BUF_X1
* cell instance $767 r0 *1 51.49,60.2
X$767 1189 1464 54 30 1488 AND2_X1
* cell instance $769 r0 *1 53.77,60.2
X$769 1478 30 54 1473 BUF_X1
* cell instance $770 r0 *1 54.34,60.2
X$770 1415 30 54 1467 BUF_X1
* cell instance $782 m0 *1 4.37,12.6
X$782 30 211 61 1504 210 54 DFF_X2
* cell instance $787 r0 *1 1.71,12.6
X$787 30 1589 294 315 61 54 DFF_X1
* cell instance $792 m0 *1 11.02,12.6
X$792 251 170 227 54 252 30 OAI21_X1
* cell instance $793 m0 *1 9.12,12.6
X$793 210 259 251 54 30 170 HA_X1
* cell instance $794 m0 *1 11.78,12.6
X$794 252 288 254 30 171 54 AOI21_X2
* cell instance $795 m0 *1 13.11,12.6
X$795 227 30 54 228 BUF_X1
* cell instance $796 m0 *1 13.68,12.6
X$796 260 77 227 54 30 161 HA_X1
* cell instance $799 m0 *1 16.53,12.6
X$799 292 206 207 30 229 54 AOI21_X2
* cell instance $803 r0 *1 11.59,12.6
X$803 226 271 296 30 214 54 AOI21_X1
* cell instance $804 r0 *1 12.35,12.6
X$804 296 271 30 54 288 NAND2_X1
* cell instance $808 r0 *1 16.53,12.6
X$808 298 299 30 54 291 NAND2_X1
* cell instance $811 m0 *1 18.24,12.6
X$811 164 196 54 30 337 XNOR2_X1
* cell instance $816 r0 *1 21.28,12.6
X$816 326 385 54 118 30 XOR2_X2
* cell instance $817 m0 *1 22.23,12.6
X$817 121 30 54 209 INV_X1
* cell instance $820 m0 *1 23.37,12.6
X$820 217 231 30 54 292 OR2_X1
* cell instance $821 m0 *1 24.13,12.6
X$821 218 174 231 54 30 230 OAI21_X2
* cell instance $822 m0 *1 25.46,12.6
X$822 58 264 174 54 30 231 HA_X1
* cell instance $826 m0 *1 27.74,12.6
X$826 30 232 54 266 BUF_X8
* cell instance $829 r0 *1 29.83,12.6
X$829 234 272 30 54 373 NOR2_X1
* cell instance $831 r0 *1 31.16,12.6
X$831 273 232 269 30 54 305 MUX2_X1
* cell instance $832 m0 *1 32.68,12.6
X$832 88 148 177 30 54 269 MUX2_X1
* cell instance $833 m0 *1 31.35,12.6
X$833 269 232 233 30 54 343 MUX2_X1
* cell instance $834 m0 *1 34.01,12.6
X$834 210 219 77 30 54 330 MUX2_X1
* cell instance $836 m0 *1 35.53,12.6
X$836 232 54 238 30 BUF_X4
* cell instance $839 m0 *1 37.81,12.6
X$839 237 238 239 30 54 240 MUX2_X1
* cell instance $844 r0 *1 33.25,12.6
X$844 177 274 286 30 54 306 MUX2_X1
* cell instance $847 r0 *1 36.48,12.6
X$847 275 307 30 54 376 NOR2_X1
* cell instance $850 r0 *1 38.19,12.6
X$850 239 307 330 30 54 399 MUX2_X1
* cell instance $851 r0 *1 39.52,12.6
X$851 238 54 307 30 BUF_X4
* cell instance $856 r0 *1 43.7,12.6
X$856 327 328 242 54 30 277 HA_X1
* cell instance $857 m0 *1 44.65,12.6
X$857 270 241 242 30 166 54 AOI21_X2
* cell instance $858 m0 *1 44.08,12.6
X$858 327 241 30 54 270 NOR2_X1
* cell instance $861 r0 *1 45.6,12.6
X$861 66 30 54 1498 INV_X4
* cell instance $862 r0 *1 46.55,12.6
X$862 277 278 30 54 325 NOR2_X1
* cell instance $863 r0 *1 47.12,12.6
X$863 276 310 30 54 324 NOR2_X1
* cell instance $865 m0 *1 47.12,12.6
X$865 277 30 54 309 INV_X1
* cell instance $866 r0 *1 47.69,12.6
X$866 348 325 54 30 290 XNOR2_X1
* cell instance $867 m0 *1 48.07,12.6
X$867 88 290 268 54 30 243 HA_X1
* cell instance $870 m0 *1 50.16,12.6
X$870 268 30 54 201 BUF_X1
* cell instance $872 m0 *1 50.92,12.6
X$872 201 243 244 54 256 30 OAI21_X1
* cell instance $874 m0 *1 51.87,12.6
X$874 244 30 54 262 INV_X1
* cell instance $875 m0 *1 52.25,12.6
X$875 280 262 257 54 30 282 OAI21_X2
* cell instance $877 m0 *1 53.77,12.6
X$877 256 30 54 283 INV_X1
* cell instance $879 m0 *1 54.34,12.6
X$879 287 246 30 54 284 NOR2_X1
* cell instance $883 m0 *1 57.38,12.6
X$883 30 247 129 1517 286 54 DFF_X2
* cell instance $887 r0 *1 48.83,12.6
X$887 279 30 54 289 BUF_X2
* cell instance $889 r0 *1 49.78,12.6
X$889 323 177 244 54 30 281 HA_X1
* cell instance $890 r0 *1 51.68,12.6
X$890 281 30 54 280 INV_X1
* cell instance $891 r0 *1 52.06,12.6
X$891 244 30 54 220 BUF_X1
* cell instance $892 r0 *1 52.63,12.6
X$892 281 283 199 30 287 54 AOI21_X1
* cell instance $893 r0 *1 53.39,12.6
X$893 30 321 311 199 283 54 AOI21_X4
* cell instance $894 r0 *1 55.86,12.6
X$894 246 282 54 30 285 XNOR2_X1
* cell instance $895 r0 *1 57,12.6
X$895 285 202 30 54 319 NOR2_X1
* cell instance $896 r0 *1 57.57,12.6
X$896 320 319 354 30 54 247 NOR3_X1
* cell instance $903 r0 *1 59.66,12.6
X$903 313 46 286 30 54 318 MUX2_X1
* cell instance $925 r0 *1 1.33,35
X$925 30 1599 873 859 923 54 DFF_X1
* cell instance $926 m0 *1 1.9,35
X$926 873 30 54 891 BUF_X1
* cell instance $930 m0 *1 2.85,35
X$930 332 874 54 30 859 AND2_X1
* cell instance $931 m0 *1 3.8,35
X$931 873 429 809 30 54 874 MUX2_X1
* cell instance $939 m0 *1 5.51,35
X$939 875 30 54 857 BUF_X1
* cell instance $942 r0 *1 5.89,35
X$942 858 30 54 904 BUF_X1
* cell instance $943 r0 *1 6.46,35
X$943 30 1602 875 860 923 54 DFF_X1
* cell instance $945 m0 *1 7.22,35