* CDL Netlist generated by OpenROAD

*.BUSDELIMITER [

.SUBCKT multi_ported_fifo almost_empty almost_full clk data_count[0]
+ data_count[1] data_count[2] data_count[3] data_count[4] empty
+ full rd_data[0] rd_data[10] rd_data[11] rd_data[12] rd_data[13]
+ rd_data[14] rd_data[15] rd_data[16] rd_data[17] rd_data[18]
+ rd_data[19] rd_data[1] rd_data[20] rd_data[21] rd_data[22]
+ rd_data[23] rd_data[24] rd_data[25] rd_data[26] rd_data[27]
+ rd_data[28] rd_data[29] rd_data[2] rd_data[30] rd_data[31]
+ rd_data[32] rd_data[33] rd_data[34] rd_data[35] rd_data[36]
+ rd_data[37] rd_data[38] rd_data[39] rd_data[3] rd_data[40]
+ rd_data[41] rd_data[42] rd_data[43] rd_data[44] rd_data[45]
+ rd_data[46] rd_data[47] rd_data[48] rd_data[49] rd_data[4]
+ rd_data[50] rd_data[51] rd_data[52] rd_data[53] rd_data[54]
+ rd_data[55] rd_data[56] rd_data[57] rd_data[58] rd_data[59]
+ rd_data[5] rd_data[60] rd_data[61] rd_data[62] rd_data[63]
+ rd_data[6] rd_data[7] rd_data[8] rd_data[9] rd_en[0] rd_en[1]
+ rd_valid[0] rd_valid[1] rst_n wr_data[0] wr_data[10] wr_data[11]
+ wr_data[12] wr_data[13] wr_data[14] wr_data[15] wr_data[16]
+ wr_data[17] wr_data[18] wr_data[19] wr_data[1] wr_data[20]
+ wr_data[21] wr_data[22] wr_data[23] wr_data[24] wr_data[25]
+ wr_data[26] wr_data[27] wr_data[28] wr_data[29] wr_data[2]
+ wr_data[30] wr_data[31] wr_data[32] wr_data[33] wr_data[34]
+ wr_data[35] wr_data[36] wr_data[37] wr_data[38] wr_data[39]
+ wr_data[3] wr_data[40] wr_data[41] wr_data[42] wr_data[43]
+ wr_data[44] wr_data[45] wr_data[46] wr_data[47] wr_data[48]
+ wr_data[49] wr_data[4] wr_data[50] wr_data[51] wr_data[52]
+ wr_data[53] wr_data[54] wr_data[55] wr_data[56] wr_data[57]
+ wr_data[58] wr_data[59] wr_data[5] wr_data[60] wr_data[61]
+ wr_data[62] wr_data[63] wr_data[6] wr_data[7] wr_data[8] wr_data[9]
+ wr_en[0] wr_en[1] wr_ready[0] wr_ready[1]
X_3951_ _1587_ _1588_ _1539_ _1589_ VDD VSS MUX2_X1
X_3952_ _1586_ _1589_ _1543_ _1590_ VDD VSS MUX2_X1
X_3953_ mem\[4\]\[11\] mem\[5\]\[11\] _1573_ _1591_ VDD VSS
+ MUX2_X1
X_3954_ mem\[6\]\[11\] mem\[7\]\[11\] _1547_ _1592_ VDD VSS
+ MUX2_X1
X_3955_ _1591_ _1592_ _1549_ _1593_ VDD VSS MUX2_X1
X_3956_ mem\[12\]\[11\] mem\[13\]\[11\] _1551_ _1594_ VDD
+ VSS MUX2_X1
X_3957_ mem\[14\]\[11\] mem\[15\]\[11\] _1554_ _1595_ VDD
+ VSS MUX2_X1
X_3958_ _1594_ _1595_ _1557_ _1596_ VDD VSS MUX2_X1
X_3959_ _1593_ _1596_ _1559_ _1597_ VDD VSS MUX2_X1
X_3960_ _1590_ _1597_ _1562_ _1598_ VDD VSS MUX2_X1
X_3961_ _0007_ _1598_ _1599_ VDD VSS NAND2_X1
X_3962_ net16 _3917_ _1600_ VDD VSS NAND2_X1
X_3963_ _1515_ _1599_ _1600_ _0532_ VDD VSS AOI21_X1
X_3964_ _1514_ _1601_ VDD VSS BUF_X4
X_3965_ mem\[0\]\[12\] mem\[1\]\[12\] _1527_ _1602_ VDD VSS
+ MUX2_X1
X_3966_ mem\[2\]\[12\] mem\[3\]\[12\] _1529_ _1603_ VDD VSS
+ MUX2_X1
X_3967_ _1532_ _1604_ VDD VSS BUF_X4
X_3968_ _1602_ _1603_ _1604_ _1605_ VDD VSS MUX2_X1
X_3969_ mem\[8\]\[12\] mem\[9\]\[12\] _1529_ _1606_ VDD VSS
+ MUX2_X1
X_3970_ _1536_ _1607_ VDD VSS BUF_X4
X_3971_ mem\[10\]\[12\] mem\[11\]\[12\] _1607_ _1608_ VDD
+ VSS MUX2_X1
X_3972_ _1606_ _1608_ _1539_ _1609_ VDD VSS MUX2_X1
X_3973_ _1605_ _1609_ _1543_ _1610_ VDD VSS MUX2_X1
X_3974_ mem\[4\]\[12\] mem\[5\]\[12\] _1573_ _1611_ VDD VSS
+ MUX2_X1
X_3975_ mem\[6\]\[12\] mem\[7\]\[12\] _1547_ _1612_ VDD VSS
+ MUX2_X1
X_3976_ _1611_ _1612_ _1549_ _1613_ VDD VSS MUX2_X1
X_3977_ mem\[12\]\[12\] mem\[13\]\[12\] _1551_ _1614_ VDD
+ VSS MUX2_X1
X_3978_ mem\[14\]\[12\] mem\[15\]\[12\] _1554_ _1615_ VDD
+ VSS MUX2_X1
X_3979_ _1614_ _1615_ _1557_ _1616_ VDD VSS MUX2_X1
X_3980_ _1613_ _1616_ _1559_ _1617_ VDD VSS MUX2_X1
X_3981_ _1610_ _1617_ _1562_ _1618_ VDD VSS MUX2_X1
X_3982_ _0007_ _1618_ _1619_ VDD VSS NAND2_X1
X_3983_ net17 _3917_ _1620_ VDD VSS NAND2_X1
X_3984_ _1601_ _1619_ _1620_ _0533_ VDD VSS AOI21_X1
X_3985_ mem\[0\]\[13\] mem\[1\]\[13\] _1527_ _1621_ VDD VSS
+ MUX2_X1
X_3986_ _1526_ _1622_ VDD VSS BUF_X4
X_3987_ mem\[2\]\[13\] mem\[3\]\[13\] _1622_ _1623_ VDD VSS
+ MUX2_X1
X_3988_ _1621_ _1623_ _1604_ _1624_ VDD VSS MUX2_X1
X_3989_ mem\[8\]\[13\] mem\[9\]\[13\] _1529_ _1625_ VDD VSS
+ MUX2_X1
X_3990_ mem\[10\]\[13\] mem\[11\]\[13\] _1607_ _1626_ VDD
+ VSS MUX2_X1
X_3991_ _1625_ _1626_ _1539_ _1627_ VDD VSS MUX2_X1
X_3992_ _1624_ _1627_ _1543_ _1628_ VDD VSS MUX2_X1
X_3993_ mem\[4\]\[13\] mem\[5\]\[13\] _1573_ _1629_ VDD VSS
+ MUX2_X1
X_3994_ mem\[6\]\[13\] mem\[7\]\[13\] _1547_ _1630_ VDD VSS
+ MUX2_X1
X_3995_ _1629_ _1630_ _1549_ _1631_ VDD VSS MUX2_X1
X_3996_ mem\[12\]\[13\] mem\[13\]\[13\] _1551_ _1632_ VDD
+ VSS MUX2_X1
X_3997_ mem\[14\]\[13\] mem\[15\]\[13\] _1554_ _1633_ VDD
+ VSS MUX2_X1
X_3998_ _1632_ _1633_ _1557_ _1634_ VDD VSS MUX2_X1
X_3999_ _1631_ _1634_ _1559_ _1635_ VDD VSS MUX2_X1
X_4000_ _1628_ _1635_ _1562_ _1636_ VDD VSS MUX2_X1
X_4001_ _0007_ _1636_ _1637_ VDD VSS NAND2_X1
X_4002_ net18 _3917_ _1638_ VDD VSS NAND2_X1
X_4003_ _1601_ _1637_ _1638_ _0534_ VDD VSS AOI21_X1
X_4004_ _1525_ _1639_ VDD VSS BUF_X4
X_4005_ mem\[0\]\[14\] mem\[1\]\[14\] _1639_ _1640_ VDD VSS
+ MUX2_X1
X_4006_ mem\[2\]\[14\] mem\[3\]\[14\] _1622_ _1641_ VDD VSS
+ MUX2_X1
X_4007_ _1640_ _1641_ _1604_ _1642_ VDD VSS MUX2_X1
X_4008_ mem\[8\]\[14\] mem\[9\]\[14\] _1622_ _1643_ VDD VSS
+ MUX2_X1
X_4009_ mem\[10\]\[14\] mem\[11\]\[14\] _1607_ _1644_ VDD
+ VSS MUX2_X1
X_4010_ _1532_ _1645_ VDD VSS BUF_X4
X_4011_ _1643_ _1644_ _1645_ _1646_ VDD VSS MUX2_X1
X_4012_ _1642_ _1646_ _1543_ _1647_ VDD VSS MUX2_X1
X_4013_ mem\[4\]\[14\] mem\[5\]\[14\] _1573_ _1648_ VDD VSS
+ MUX2_X1
X_4014_ mem\[6\]\[14\] mem\[7\]\[14\] _1547_ _1649_ VDD VSS
+ MUX2_X1
X_4015_ _1648_ _1649_ _1549_ _1650_ VDD VSS MUX2_X1
X_4016_ _1536_ _1651_ VDD VSS BUF_X4
X_4017_ mem\[12\]\[14\] mem\[13\]\[14\] _1651_ _1652_ VDD
+ VSS MUX2_X1
X_4018_ mem\[14\]\[14\] mem\[15\]\[14\] _1554_ _1653_ VDD
+ VSS MUX2_X1
X_4019_ _1652_ _1653_ _1557_ _1654_ VDD VSS MUX2_X1
X_4020_ _1650_ _1654_ _1559_ _1655_ VDD VSS MUX2_X1
X_4021_ _1647_ _1655_ _1562_ _1656_ VDD VSS MUX2_X1
X_4022_ _0007_ _1656_ _1657_ VDD VSS NAND2_X1
X_4023_ net19 _3917_ _1658_ VDD VSS NAND2_X1
X_4024_ _1601_ _1657_ _1658_ _0535_ VDD VSS AOI21_X1
X_4025_ mem\[0\]\[15\] mem\[1\]\[15\] _1639_ _1659_ VDD VSS
+ MUX2_X1
X_4026_ mem\[2\]\[15\] mem\[3\]\[15\] _1622_ _1660_ VDD VSS
+ MUX2_X1
X_4027_ _1659_ _1660_ _1604_ _1661_ VDD VSS MUX2_X1
X_4028_ mem\[8\]\[15\] mem\[9\]\[15\] _1622_ _1662_ VDD VSS
+ MUX2_X1
X_4029_ mem\[10\]\[15\] mem\[11\]\[15\] _1607_ _1663_ VDD
+ VSS MUX2_X1
X_4030_ _1662_ _1663_ _1645_ _1664_ VDD VSS MUX2_X1
X_4031_ _1661_ _1664_ _1543_ _1665_ VDD VSS MUX2_X1
X_4032_ mem\[4\]\[15\] mem\[5\]\[15\] _1573_ _1666_ VDD VSS
+ MUX2_X1
X_4033_ mem\[6\]\[15\] mem\[7\]\[15\] _1547_ _1667_ VDD VSS
+ MUX2_X1
X_4034_ _1666_ _1667_ _1549_ _1668_ VDD VSS MUX2_X1
X_4035_ mem\[12\]\[15\] mem\[13\]\[15\] _1651_ _1669_ VDD
+ VSS MUX2_X1
X_4036_ mem\[14\]\[15\] mem\[15\]\[15\] _1554_ _1670_ VDD
+ VSS MUX2_X1
X_4037_ _1669_ _1670_ _1557_ _1671_ VDD VSS MUX2_X1
X_4038_ _1668_ _1671_ _1559_ _1672_ VDD VSS MUX2_X1
X_4039_ _1665_ _1672_ _1562_ _1673_ VDD VSS MUX2_X1
X_4040_ _0007_ _1673_ _1674_ VDD VSS NAND2_X1
X_4041_ net20 _3917_ _1675_ VDD VSS NAND2_X1
X_4042_ _1601_ _1674_ _1675_ _0536_ VDD VSS AOI21_X1
X_4043_ mem\[0\]\[16\] mem\[1\]\[16\] _1639_ _1676_ VDD VSS
+ MUX2_X1
X_4044_ mem\[2\]\[16\] mem\[3\]\[16\] _1622_ _1677_ VDD VSS
+ MUX2_X1
X_4045_ _1676_ _1677_ _1604_ _1678_ VDD VSS MUX2_X1
X_4046_ mem\[8\]\[16\] mem\[9\]\[16\] _1622_ _1679_ VDD VSS
+ MUX2_X1
X_4047_ mem\[10\]\[16\] mem\[11\]\[16\] _1607_ _1680_ VDD
+ VSS MUX2_X1
X_4048_ _1679_ _1680_ _1645_ _1681_ VDD VSS MUX2_X1
X_4049_ _1542_ _1682_ VDD VSS BUF_X4
X_4050_ _1678_ _1681_ _1682_ _1683_ VDD VSS MUX2_X1
X_4051_ mem\[4\]\[16\] mem\[5\]\[16\] _1573_ _1684_ VDD VSS
+ MUX2_X1
X_4052_ _1536_ _1685_ VDD VSS BUF_X4
X_4053_ mem\[6\]\[16\] mem\[7\]\[16\] _1685_ _1686_ VDD VSS
+ MUX2_X1
X_4054_ _1532_ _1687_ VDD VSS BUF_X4
X_4055_ _1684_ _1686_ _1687_ _1688_ VDD VSS MUX2_X1
X_4056_ mem\[12\]\[16\] mem\[13\]\[16\] _1651_ _1689_ VDD
+ VSS MUX2_X1
X_4057_ mem\[14\]\[16\] mem\[15\]\[16\] _1554_ _1690_ VDD
+ VSS MUX2_X1
X_4058_ _1689_ _1690_ _1557_ _1691_ VDD VSS MUX2_X1
X_4059_ _1688_ _1691_ _1559_ _1692_ VDD VSS MUX2_X1
X_4060_ _1683_ _1692_ _1562_ _1693_ VDD VSS MUX2_X1
X_4061_ _0007_ _1693_ _1694_ VDD VSS NAND2_X1
X_4062_ net21 _3917_ _1695_ VDD VSS NAND2_X1
X_4063_ _1601_ _1694_ _1695_ _0537_ VDD VSS AOI21_X1
X_4064_ mem\[0\]\[17\] mem\[1\]\[17\] _1639_ _1696_ VDD VSS
+ MUX2_X1
X_4065_ mem\[2\]\[17\] mem\[3\]\[17\] _1622_ _1697_ VDD VSS
+ MUX2_X1
X_4066_ _1696_ _1697_ _1604_ _1698_ VDD VSS MUX2_X1
X_4067_ mem\[8\]\[17\] mem\[9\]\[17\] _1622_ _1699_ VDD VSS
+ MUX2_X1
X_4068_ mem\[10\]\[17\] mem\[11\]\[17\] _1607_ _1700_ VDD
+ VSS MUX2_X1
X_4069_ _1699_ _1700_ _1645_ _1701_ VDD VSS MUX2_X1
X_4070_ _1698_ _1701_ _1682_ _1702_ VDD VSS MUX2_X1
X_4071_ mem\[4\]\[17\] mem\[5\]\[17\] _1573_ _1703_ VDD VSS
+ MUX2_X1
X_4072_ mem\[6\]\[17\] mem\[7\]\[17\] _1685_ _1704_ VDD VSS
+ MUX2_X1
X_4073_ _1703_ _1704_ _1687_ _1705_ VDD VSS MUX2_X1
X_4074_ mem\[12\]\[17\] mem\[13\]\[17\] _1651_ _1706_ VDD
+ VSS MUX2_X1
X_4075_ mem\[14\]\[17\] mem\[15\]\[17\] _1554_ _1707_ VDD
+ VSS MUX2_X1
X_4076_ _1706_ _1707_ _1557_ _1708_ VDD VSS MUX2_X1
X_4077_ _1705_ _1708_ _1559_ _1709_ VDD VSS MUX2_X1
X_4078_ _1702_ _1709_ _1562_ _1710_ VDD VSS MUX2_X1
X_4079_ _0007_ _1710_ _1711_ VDD VSS NAND2_X1
X_4080_ _0630_ _1712_ VDD VSS BUF_X4
X_4081_ net22 _1712_ _1713_ VDD VSS NAND2_X1
X_4082_ _1601_ _1711_ _1713_ _0538_ VDD VSS AOI21_X1
X_4083_ _0631_ _1714_ VDD VSS BUF_X4
X_4084_ mem\[0\]\[18\] mem\[1\]\[18\] _1639_ _1715_ VDD VSS
+ MUX2_X1
X_4085_ _1526_ _1716_ VDD VSS BUF_X4
X_4086_ mem\[2\]\[18\] mem\[3\]\[18\] _1716_ _1717_ VDD VSS
+ MUX2_X1
X_4087_ _1715_ _1717_ _1604_ _1718_ VDD VSS MUX2_X1
X_4088_ mem\[8\]\[18\] mem\[9\]\[18\] _1622_ _1719_ VDD VSS
+ MUX2_X1
X_4089_ mem\[10\]\[18\] mem\[11\]\[18\] _1607_ _1720_ VDD
+ VSS MUX2_X1
X_4090_ _1719_ _1720_ _1645_ _1721_ VDD VSS MUX2_X1
X_4091_ _1718_ _1721_ _1682_ _1722_ VDD VSS MUX2_X1
X_4092_ mem\[4\]\[18\] mem\[5\]\[18\] _1573_ _1723_ VDD VSS
+ MUX2_X1
X_4093_ mem\[6\]\[18\] mem\[7\]\[18\] _1685_ _1724_ VDD VSS
+ MUX2_X1
X_4094_ _1723_ _1724_ _1687_ _1725_ VDD VSS MUX2_X1
X_4095_ mem\[12\]\[18\] mem\[13\]\[18\] _1651_ _1726_ VDD
+ VSS MUX2_X1
X_4096_ _1553_ _1727_ VDD VSS BUF_X4
X_4097_ mem\[14\]\[18\] mem\[15\]\[18\] _1727_ _1728_ VDD
+ VSS MUX2_X1
X_4098_ _1532_ _1729_ VDD VSS BUF_X4
X_4099_ _1726_ _1728_ _1729_ _1730_ VDD VSS MUX2_X1
X_4100_ _1542_ _1731_ VDD VSS BUF_X4
X_4101_ _1725_ _1730_ _1731_ _1732_ VDD VSS MUX2_X1
X_4102_ _1561_ _1733_ VDD VSS BUF_X4
X_4103_ _1722_ _1732_ _1733_ _1734_ VDD VSS MUX2_X1
X_4104_ _1714_ _1734_ _1735_ VDD VSS NAND2_X1
X_4105_ net23 _1712_ _1736_ VDD VSS NAND2_X1
X_4106_ _1601_ _1735_ _1736_ _0539_ VDD VSS AOI21_X1
X_4107_ mem\[0\]\[19\] mem\[1\]\[19\] _1639_ _1737_ VDD VSS
+ MUX2_X1
X_4108_ mem\[2\]\[19\] mem\[3\]\[19\] _1716_ _1738_ VDD VSS
+ MUX2_X1
X_4109_ _1737_ _1738_ _1604_ _1739_ VDD VSS MUX2_X1
X_4110_ mem\[8\]\[19\] mem\[9\]\[19\] _1716_ _1740_ VDD VSS
+ MUX2_X1
X_4111_ mem\[10\]\[19\] mem\[11\]\[19\] _1607_ _1741_ VDD
+ VSS MUX2_X1
X_4112_ _1740_ _1741_ _1645_ _1742_ VDD VSS MUX2_X1
X_4113_ _1739_ _1742_ _1682_ _1743_ VDD VSS MUX2_X1
X_4114_ mem\[4\]\[19\] mem\[5\]\[19\] _1573_ _1744_ VDD VSS
+ MUX2_X1
X_4115_ mem\[6\]\[19\] mem\[7\]\[19\] _1685_ _1745_ VDD VSS
+ MUX2_X1
X_4116_ _1744_ _1745_ _1687_ _1746_ VDD VSS MUX2_X1
X_4117_ mem\[12\]\[19\] mem\[13\]\[19\] _1651_ _1747_ VDD
+ VSS MUX2_X1
X_4118_ mem\[14\]\[19\] mem\[15\]\[19\] _1727_ _1748_ VDD
+ VSS MUX2_X1
X_4119_ _1747_ _1748_ _1729_ _1749_ VDD VSS MUX2_X1
X_4120_ _1746_ _1749_ _1731_ _1750_ VDD VSS MUX2_X1
X_4121_ _1743_ _1750_ _1733_ _1751_ VDD VSS MUX2_X1
X_4122_ _1714_ _1751_ _1752_ VDD VSS NAND2_X1
X_4123_ net24 _1712_ _1753_ VDD VSS NAND2_X1
X_4124_ _1601_ _1752_ _1753_ _0540_ VDD VSS AOI21_X1
X_4125_ mem\[0\]\[1\] mem\[1\]\[1\] _1639_ _1754_ VDD VSS
+ MUX2_X1
X_4126_ mem\[2\]\[1\] mem\[3\]\[1\] _1716_ _1755_ VDD VSS
+ MUX2_X1
X_4127_ _1754_ _1755_ _1604_ _1756_ VDD VSS MUX2_X1
X_4128_ mem\[8\]\[1\] mem\[9\]\[1\] _1716_ _1757_ VDD VSS
+ MUX2_X1
X_4129_ mem\[10\]\[1\] mem\[11\]\[1\] _1607_ _1758_ VDD VSS
+ MUX2_X1
X_4130_ _1757_ _1758_ _1645_ _1759_ VDD VSS MUX2_X1
X_4131_ _1756_ _1759_ _1682_ _1760_ VDD VSS MUX2_X1
X_4132_ _1526_ _1761_ VDD VSS BUF_X4
X_4133_ mem\[4\]\[1\] mem\[5\]\[1\] _1761_ _1762_ VDD VSS
+ MUX2_X1
X_4134_ mem\[6\]\[1\] mem\[7\]\[1\] _1685_ _1763_ VDD VSS
+ MUX2_X1
X_4135_ _1762_ _1763_ _1687_ _1764_ VDD VSS MUX2_X1
X_4136_ mem\[12\]\[1\] mem\[13\]\[1\] _1651_ _1765_ VDD VSS
+ MUX2_X1
X_4137_ mem\[14\]\[1\] mem\[15\]\[1\] _1727_ _1766_ VDD VSS
+ MUX2_X1
X_4138_ _1765_ _1766_ _1729_ _1767_ VDD VSS MUX2_X1
X_4139_ _1764_ _1767_ _1731_ _1768_ VDD VSS MUX2_X1
X_4140_ _1760_ _1768_ _1733_ _1769_ VDD VSS MUX2_X1
X_4141_ _1714_ _1769_ _1770_ VDD VSS NAND2_X1
X_4142_ net25 _1712_ _1771_ VDD VSS NAND2_X1
X_4143_ _1601_ _1770_ _1771_ _0541_ VDD VSS AOI21_X1
X_4144_ mem\[0\]\[20\] mem\[1\]\[20\] _1639_ _1772_ VDD VSS
+ MUX2_X1
X_4145_ mem\[2\]\[20\] mem\[3\]\[20\] _1716_ _1773_ VDD VSS
+ MUX2_X1
X_4146_ _1772_ _1773_ _1604_ _1774_ VDD VSS MUX2_X1
X_4147_ mem\[8\]\[20\] mem\[9\]\[20\] _1716_ _1775_ VDD VSS
+ MUX2_X1
X_4148_ mem\[10\]\[20\] mem\[11\]\[20\] _1607_ _1776_ VDD
+ VSS MUX2_X1
X_4149_ _1775_ _1776_ _1645_ _1777_ VDD VSS MUX2_X1
X_4150_ _1774_ _1777_ _1682_ _1778_ VDD VSS MUX2_X1
X_4151_ mem\[4\]\[20\] mem\[5\]\[20\] _1761_ _1779_ VDD VSS
+ MUX2_X1
X_4152_ mem\[6\]\[20\] mem\[7\]\[20\] _1685_ _1780_ VDD VSS
+ MUX2_X1
X_4153_ _1779_ _1780_ _1687_ _1781_ VDD VSS MUX2_X1
X_4154_ mem\[12\]\[20\] mem\[13\]\[20\] _1651_ _1782_ VDD
+ VSS MUX2_X1
X_4155_ mem\[14\]\[20\] mem\[15\]\[20\] _1727_ _1783_ VDD
+ VSS MUX2_X1
X_4156_ _1782_ _1783_ _1729_ _1784_ VDD VSS MUX2_X1
X_4157_ _1781_ _1784_ _1731_ _1785_ VDD VSS MUX2_X1
X_4158_ _1778_ _1785_ _1733_ _1786_ VDD VSS MUX2_X1
X_4159_ _1714_ _1786_ _1787_ VDD VSS NAND2_X1
X_4160_ net26 _1712_ _1788_ VDD VSS NAND2_X1
X_4161_ _1601_ _1787_ _1788_ _0542_ VDD VSS AOI21_X1
X_4162_ _1514_ _1789_ VDD VSS BUF_X4
X_4163_ mem\[0\]\[21\] mem\[1\]\[21\] _1639_ _1790_ VDD VSS
+ MUX2_X1
X_4164_ mem\[2\]\[21\] mem\[3\]\[21\] _1716_ _1791_ VDD VSS
+ MUX2_X1
X_4165_ _1531_ _1792_ VDD VSS BUF_X4
X_4166_ _1790_ _1791_ _1792_ _1793_ VDD VSS MUX2_X1
X_4167_ mem\[8\]\[21\] mem\[9\]\[21\] _1716_ _1794_ VDD VSS
+ MUX2_X1
X_4168_ _1536_ _1795_ VDD VSS BUF_X4
X_4169_ mem\[10\]\[21\] mem\[11\]\[21\] _1795_ _1796_ VDD
+ VSS MUX2_X1
X_4170_ _1794_ _1796_ _1645_ _1797_ VDD VSS MUX2_X1
X_4171_ _1793_ _1797_ _1682_ _1798_ VDD VSS MUX2_X1
X_4172_ mem\[4\]\[21\] mem\[5\]\[21\] _1761_ _1799_ VDD VSS
+ MUX2_X1
X_4173_ mem\[6\]\[21\] mem\[7\]\[21\] _1685_ _1800_ VDD VSS
+ MUX2_X1
X_4174_ _1799_ _1800_ _1687_ _1801_ VDD VSS MUX2_X1
X_4175_ mem\[12\]\[21\] mem\[13\]\[21\] _1651_ _1802_ VDD
+ VSS MUX2_X1
X_4176_ mem\[14\]\[21\] mem\[15\]\[21\] _1727_ _1803_ VDD
+ VSS MUX2_X1
X_4177_ _1802_ _1803_ _1729_ _1804_ VDD VSS MUX2_X1
X_4178_ _1801_ _1804_ _1731_ _1805_ VDD VSS MUX2_X1
X_4179_ _1798_ _1805_ _1733_ _1806_ VDD VSS MUX2_X1
X_4180_ _1714_ _1806_ _1807_ VDD VSS NAND2_X1
X_4181_ net27 _1712_ _1808_ VDD VSS NAND2_X1
X_4182_ _1789_ _1807_ _1808_ _0543_ VDD VSS AOI21_X1
X_4183_ mem\[0\]\[22\] mem\[1\]\[22\] _1639_ _1809_ VDD VSS
+ MUX2_X1
X_4184_ _1526_ _1810_ VDD VSS BUF_X4
X_4185_ mem\[2\]\[22\] mem\[3\]\[22\] _1810_ _1811_ VDD VSS
+ MUX2_X1
X_4186_ _1809_ _1811_ _1792_ _1812_ VDD VSS MUX2_X1
X_4187_ mem\[8\]\[22\] mem\[9\]\[22\] _1716_ _1813_ VDD VSS
+ MUX2_X1
X_4188_ mem\[10\]\[22\] mem\[11\]\[22\] _1795_ _1814_ VDD
+ VSS MUX2_X1
X_4189_ _1813_ _1814_ _1645_ _1815_ VDD VSS MUX2_X1
X_4190_ _1812_ _1815_ _1682_ _1816_ VDD VSS MUX2_X1
X_4191_ mem\[4\]\[22\] mem\[5\]\[22\] _1761_ _1817_ VDD VSS
+ MUX2_X1
X_4192_ mem\[6\]\[22\] mem\[7\]\[22\] _1685_ _1818_ VDD VSS
+ MUX2_X1
X_4193_ _1817_ _1818_ _1687_ _1819_ VDD VSS MUX2_X1
X_4194_ mem\[12\]\[22\] mem\[13\]\[22\] _1651_ _1820_ VDD
+ VSS MUX2_X1
X_4195_ mem\[14\]\[22\] mem\[15\]\[22\] _1727_ _1821_ VDD
+ VSS MUX2_X1
X_4196_ _1820_ _1821_ _1729_ _1822_ VDD VSS MUX2_X1
X_4197_ _1819_ _1822_ _1731_ _1823_ VDD VSS MUX2_X1
X_4198_ _1816_ _1823_ _1733_ _1824_ VDD VSS MUX2_X1
X_4199_ _1714_ _1824_ _1825_ VDD VSS NAND2_X1
X_4200_ net28 _1712_ _1826_ VDD VSS NAND2_X1
X_4201_ _1789_ _1825_ _1826_ _0544_ VDD VSS AOI21_X1
X_4202_ _1525_ _1827_ VDD VSS BUF_X4
X_4203_ mem\[0\]\[23\] mem\[1\]\[23\] _1827_ _1828_ VDD VSS
+ MUX2_X1
X_4204_ mem\[2\]\[23\] mem\[3\]\[23\] _1810_ _1829_ VDD VSS
+ MUX2_X1
X_4205_ _1828_ _1829_ _1792_ _1830_ VDD VSS MUX2_X1
X_4206_ mem\[8\]\[23\] mem\[9\]\[23\] _1810_ _1831_ VDD VSS
+ MUX2_X1
X_4207_ mem\[10\]\[23\] mem\[11\]\[23\] _1795_ _1832_ VDD
+ VSS MUX2_X1
X_4208_ _1532_ _1833_ VDD VSS BUF_X4
X_4209_ _1831_ _1832_ _1833_ _1834_ VDD VSS MUX2_X1
X_4210_ _1830_ _1834_ _1682_ _1835_ VDD VSS MUX2_X1
X_4211_ mem\[4\]\[23\] mem\[5\]\[23\] _1761_ _1836_ VDD VSS
+ MUX2_X1
X_4212_ mem\[6\]\[23\] mem\[7\]\[23\] _1685_ _1837_ VDD VSS
+ MUX2_X1
X_4213_ _1836_ _1837_ _1687_ _1838_ VDD VSS MUX2_X1
X_4214_ _1536_ _1839_ VDD VSS BUF_X4
X_4215_ mem\[12\]\[23\] mem\[13\]\[23\] _1839_ _1840_ VDD
+ VSS MUX2_X1
X_4216_ mem\[14\]\[23\] mem\[15\]\[23\] _1727_ _1841_ VDD
+ VSS MUX2_X1
X_4217_ _1840_ _1841_ _1729_ _1842_ VDD VSS MUX2_X1
X_4218_ _1838_ _1842_ _1731_ _1843_ VDD VSS MUX2_X1
X_4219_ _1835_ _1843_ _1733_ _1844_ VDD VSS MUX2_X1
X_4220_ _1714_ _1844_ _1845_ VDD VSS NAND2_X1
X_4221_ net29 _1712_ _1846_ VDD VSS NAND2_X1
X_4222_ _1789_ _1845_ _1846_ _0545_ VDD VSS AOI21_X1
X_4223_ mem\[0\]\[24\] mem\[1\]\[24\] _1827_ _1847_ VDD VSS
+ MUX2_X1
X_4224_ mem\[2\]\[24\] mem\[3\]\[24\] _1810_ _1848_ VDD VSS
+ MUX2_X1
X_4225_ _1847_ _1848_ _1792_ _1849_ VDD VSS MUX2_X1
X_4226_ mem\[8\]\[24\] mem\[9\]\[24\] _1810_ _1850_ VDD VSS
+ MUX2_X1
X_4227_ mem\[10\]\[24\] mem\[11\]\[24\] _1795_ _1851_ VDD
+ VSS MUX2_X1
X_4228_ _1850_ _1851_ _1833_ _1852_ VDD VSS MUX2_X1
X_4229_ _1849_ _1852_ _1682_ _1853_ VDD VSS MUX2_X1
X_4230_ mem\[4\]\[24\] mem\[5\]\[24\] _1761_ _1854_ VDD VSS
+ MUX2_X1
X_4231_ mem\[6\]\[24\] mem\[7\]\[24\] _1685_ _1855_ VDD VSS
+ MUX2_X1
X_4232_ _1854_ _1855_ _1687_ _1856_ VDD VSS MUX2_X1
X_4233_ mem\[12\]\[24\] mem\[13\]\[24\] _1839_ _1857_ VDD
+ VSS MUX2_X1
X_4234_ mem\[14\]\[24\] mem\[15\]\[24\] _1727_ _1858_ VDD
+ VSS MUX2_X1
X_4235_ _1857_ _1858_ _1729_ _1859_ VDD VSS MUX2_X1
X_4236_ _1856_ _1859_ _1731_ _1860_ VDD VSS MUX2_X1
X_4237_ _1853_ _1860_ _1733_ _1861_ VDD VSS MUX2_X1
X_4238_ _1714_ _1861_ _1862_ VDD VSS NAND2_X1
X_4239_ net30 _1712_ _1863_ VDD VSS NAND2_X1
X_4240_ _1789_ _1862_ _1863_ _0546_ VDD VSS AOI21_X1
X_4241_ mem\[0\]\[25\] mem\[1\]\[25\] _1827_ _1864_ VDD VSS
+ MUX2_X1
X_4242_ mem\[2\]\[25\] mem\[3\]\[25\] _1810_ _1865_ VDD VSS
+ MUX2_X1
X_4243_ _1864_ _1865_ _1792_ _1866_ VDD VSS MUX2_X1
X_4244_ mem\[8\]\[25\] mem\[9\]\[25\] _1810_ _1867_ VDD VSS
+ MUX2_X1
X_4245_ mem\[10\]\[25\] mem\[11\]\[25\] _1795_ _1868_ VDD
+ VSS MUX2_X1
X_4246_ _1867_ _1868_ _1833_ _1869_ VDD VSS MUX2_X1
X_4247_ _1541_ _1870_ VDD VSS BUF_X4
X_4248_ _1866_ _1869_ _1870_ _1871_ VDD VSS MUX2_X1
X_4249_ mem\[4\]\[25\] mem\[5\]\[25\] _1761_ _1872_ VDD VSS
+ MUX2_X1
X_4250_ _1536_ _1873_ VDD VSS BUF_X4
X_4251_ mem\[6\]\[25\] mem\[7\]\[25\] _1873_ _1874_ VDD VSS
+ MUX2_X1
X_4252_ _1532_ _1875_ VDD VSS BUF_X4
X_4253_ _1872_ _1874_ _1875_ _1876_ VDD VSS MUX2_X1
X_4254_ mem\[12\]\[25\] mem\[13\]\[25\] _1839_ _1877_ VDD
+ VSS MUX2_X1
X_4255_ mem\[14\]\[25\] mem\[15\]\[25\] _1727_ _1878_ VDD
+ VSS MUX2_X1
X_4256_ _1877_ _1878_ _1729_ _1879_ VDD VSS MUX2_X1
X_4257_ _1876_ _1879_ _1731_ _1880_ VDD VSS MUX2_X1
X_4258_ _1871_ _1880_ _1733_ _1881_ VDD VSS MUX2_X1
X_4259_ _1714_ _1881_ _1882_ VDD VSS NAND2_X1
X_4260_ net31 _1712_ _1883_ VDD VSS NAND2_X1
X_4261_ _1789_ _1882_ _1883_ _0547_ VDD VSS AOI21_X1
X_4262_ mem\[0\]\[26\] mem\[1\]\[26\] _1827_ _1884_ VDD VSS
+ MUX2_X1
X_4263_ mem\[2\]\[26\] mem\[3\]\[26\] _1810_ _1885_ VDD VSS
+ MUX2_X1
X_4264_ _1884_ _1885_ _1792_ _1886_ VDD VSS MUX2_X1
X_4265_ mem\[8\]\[26\] mem\[9\]\[26\] _1810_ _1887_ VDD VSS
+ MUX2_X1
X_4266_ mem\[10\]\[26\] mem\[11\]\[26\] _1795_ _1888_ VDD
+ VSS MUX2_X1
X_4267_ _1887_ _1888_ _1833_ _1889_ VDD VSS MUX2_X1
X_4268_ _1886_ _1889_ _1870_ _1890_ VDD VSS MUX2_X1
X_4269_ mem\[4\]\[26\] mem\[5\]\[26\] _1761_ _1891_ VDD VSS
+ MUX2_X1
X_4270_ mem\[6\]\[26\] mem\[7\]\[26\] _1873_ _1892_ VDD VSS
+ MUX2_X1
X_4271_ _1891_ _1892_ _1875_ _1893_ VDD VSS MUX2_X1
X_4272_ mem\[12\]\[26\] mem\[13\]\[26\] _1839_ _1894_ VDD
+ VSS MUX2_X1
X_4273_ mem\[14\]\[26\] mem\[15\]\[26\] _1727_ _1895_ VDD
+ VSS MUX2_X1
X_4274_ _1894_ _1895_ _1729_ _1896_ VDD VSS MUX2_X1
X_4275_ _1893_ _1896_ _1731_ _1897_ VDD VSS MUX2_X1
X_4276_ _1890_ _1897_ _1733_ _1898_ VDD VSS MUX2_X1
X_4277_ _1714_ _1898_ _1899_ VDD VSS NAND2_X1
X_4278_ _0630_ _1900_ VDD VSS BUF_X4
X_4279_ net32 _1900_ _1901_ VDD VSS NAND2_X1
X_4280_ _1789_ _1899_ _1901_ _0548_ VDD VSS AOI21_X1
X_4281_ _0631_ _1902_ VDD VSS BUF_X4
X_4282_ mem\[0\]\[27\] mem\[1\]\[27\] _1827_ _1903_ VDD VSS
+ MUX2_X1
X_4283_ _1526_ _1904_ VDD VSS BUF_X4
X_4284_ mem\[2\]\[27\] mem\[3\]\[27\] _1904_ _1905_ VDD VSS
+ MUX2_X1
X_4285_ _1903_ _1905_ _1792_ _1906_ VDD VSS MUX2_X1
X_4286_ mem\[8\]\[27\] mem\[9\]\[27\] _1810_ _1907_ VDD VSS
+ MUX2_X1
X_4287_ mem\[10\]\[27\] mem\[11\]\[27\] _1795_ _1908_ VDD
+ VSS MUX2_X1
X_4288_ _1907_ _1908_ _1833_ _1909_ VDD VSS MUX2_X1
X_4289_ _1906_ _1909_ _1870_ _1910_ VDD VSS MUX2_X1
X_4290_ mem\[4\]\[27\] mem\[5\]\[27\] _1761_ _1911_ VDD VSS
+ MUX2_X1
X_4291_ mem\[6\]\[27\] mem\[7\]\[27\] _1873_ _1912_ VDD VSS
+ MUX2_X1
X_4292_ _1911_ _1912_ _1875_ _1913_ VDD VSS MUX2_X1
X_4293_ mem\[12\]\[27\] mem\[13\]\[27\] _1839_ _1914_ VDD
+ VSS MUX2_X1
X_4294_ _1553_ _1915_ VDD VSS BUF_X4
X_4295_ mem\[14\]\[27\] mem\[15\]\[27\] _1915_ _1916_ VDD
+ VSS MUX2_X1
X_4296_ _1532_ _1917_ VDD VSS BUF_X4
X_4297_ _1914_ _1916_ _1917_ _1918_ VDD VSS MUX2_X1
X_4298_ _1542_ _1919_ VDD VSS BUF_X4
X_4299_ _1913_ _1918_ _1919_ _1920_ VDD VSS MUX2_X1
X_4300_ _1561_ _1921_ VDD VSS BUF_X4
X_4301_ _1910_ _1920_ _1921_ _1922_ VDD VSS MUX2_X1
X_4302_ _1902_ _1922_ _1923_ VDD VSS NAND2_X1
X_4303_ net33 _1900_ _1924_ VDD VSS NAND2_X1
X_4304_ _1789_ _1923_ _1924_ _0549_ VDD VSS AOI21_X1
X_4305_ mem\[0\]\[28\] mem\[1\]\[28\] _1827_ _1925_ VDD VSS
+ MUX2_X1
X_4306_ mem\[2\]\[28\] mem\[3\]\[28\] _1904_ _1926_ VDD VSS
+ MUX2_X1
X_4307_ _1925_ _1926_ _1792_ _1927_ VDD VSS MUX2_X1
X_4308_ mem\[8\]\[28\] mem\[9\]\[28\] _1904_ _1928_ VDD VSS
+ MUX2_X1
X_4309_ mem\[10\]\[28\] mem\[11\]\[28\] _1795_ _1929_ VDD
+ VSS MUX2_X1
X_4310_ _1928_ _1929_ _1833_ _1930_ VDD VSS MUX2_X1
X_4311_ _1927_ _1930_ _1870_ _1931_ VDD VSS MUX2_X1
X_4312_ mem\[4\]\[28\] mem\[5\]\[28\] _1761_ _1932_ VDD VSS
+ MUX2_X1
X_4313_ mem\[6\]\[28\] mem\[7\]\[28\] _1873_ _1933_ VDD VSS
+ MUX2_X1
X_4314_ _1932_ _1933_ _1875_ _1934_ VDD VSS MUX2_X1
X_4315_ mem\[12\]\[28\] mem\[13\]\[28\] _1839_ _1935_ VDD
+ VSS MUX2_X1
X_4316_ mem\[14\]\[28\] mem\[15\]\[28\] _1915_ _1936_ VDD
+ VSS MUX2_X1
X_4317_ _1935_ _1936_ _1917_ _1937_ VDD VSS MUX2_X1
X_4318_ _1934_ _1937_ _1919_ _1938_ VDD VSS MUX2_X1
X_4319_ _1931_ _1938_ _1921_ _1939_ VDD VSS MUX2_X1
X_4320_ _1902_ _1939_ _1940_ VDD VSS NAND2_X1
X_4321_ net34 _1900_ _1941_ VDD VSS NAND2_X1
X_4322_ _1789_ _1940_ _1941_ _0550_ VDD VSS AOI21_X1
X_4323_ mem\[0\]\[29\] mem\[1\]\[29\] _1827_ _1942_ VDD VSS
+ MUX2_X1
X_4324_ mem\[2\]\[29\] mem\[3\]\[29\] _1904_ _1943_ VDD VSS
+ MUX2_X1
X_4325_ _1942_ _1943_ _1792_ _1944_ VDD VSS MUX2_X1
X_4326_ mem\[8\]\[29\] mem\[9\]\[29\] _1904_ _1945_ VDD VSS
+ MUX2_X1
X_4327_ mem\[10\]\[29\] mem\[11\]\[29\] _1795_ _1946_ VDD
+ VSS MUX2_X1
X_4328_ _1945_ _1946_ _1833_ _1947_ VDD VSS MUX2_X1
X_4329_ _1944_ _1947_ _1870_ _1948_ VDD VSS MUX2_X1
X_4330_ _1526_ _1949_ VDD VSS BUF_X4
X_4331_ mem\[4\]\[29\] mem\[5\]\[29\] _1949_ _1950_ VDD VSS
+ MUX2_X1
X_4332_ mem\[6\]\[29\] mem\[7\]\[29\] _1873_ _1951_ VDD VSS
+ MUX2_X1
X_4333_ _1950_ _1951_ _1875_ _1952_ VDD VSS MUX2_X1
X_4334_ mem\[12\]\[29\] mem\[13\]\[29\] _1839_ _1953_ VDD
+ VSS MUX2_X1
X_4335_ mem\[14\]\[29\] mem\[15\]\[29\] _1915_ _1954_ VDD
+ VSS MUX2_X1
X_4336_ _1953_ _1954_ _1917_ _1955_ VDD VSS MUX2_X1
X_4337_ _1952_ _1955_ _1919_ _1956_ VDD VSS MUX2_X1
X_4338_ _1948_ _1956_ _1921_ _1957_ VDD VSS MUX2_X1
X_4339_ _1902_ _1957_ _1958_ VDD VSS NAND2_X1
X_4340_ net35 _1900_ _1959_ VDD VSS NAND2_X1
X_4341_ _1789_ _1958_ _1959_ _0551_ VDD VSS AOI21_X1
X_4342_ mem\[0\]\[2\] mem\[1\]\[2\] _1827_ _1960_ VDD VSS
+ MUX2_X1
X_4343_ mem\[2\]\[2\] mem\[3\]\[2\] _1904_ _1961_ VDD VSS
+ MUX2_X1
X_4344_ _1960_ _1961_ _1792_ _1962_ VDD VSS MUX2_X1
X_4345_ mem\[8\]\[2\] mem\[9\]\[2\] _1904_ _1963_ VDD VSS
+ MUX2_X1
X_4346_ mem\[10\]\[2\] mem\[11\]\[2\] _1795_ _1964_ VDD VSS
+ MUX2_X1
X_4347_ _1963_ _1964_ _1833_ _1965_ VDD VSS MUX2_X1
X_4348_ _1962_ _1965_ _1870_ _1966_ VDD VSS MUX2_X1
X_4349_ mem\[4\]\[2\] mem\[5\]\[2\] _1949_ _1967_ VDD VSS
+ MUX2_X1
X_4350_ mem\[6\]\[2\] mem\[7\]\[2\] _1873_ _1968_ VDD VSS
+ MUX2_X1
X_4351_ _1967_ _1968_ _1875_ _1969_ VDD VSS MUX2_X1
X_4352_ mem\[12\]\[2\] mem\[13\]\[2\] _1839_ _1970_ VDD VSS
+ MUX2_X1
X_4353_ mem\[14\]\[2\] mem\[15\]\[2\] _1915_ _1971_ VDD VSS
+ MUX2_X1
X_4354_ _1970_ _1971_ _1917_ _1972_ VDD VSS MUX2_X1
X_4355_ _1969_ _1972_ _1919_ _1973_ VDD VSS MUX2_X1
X_4356_ _1966_ _1973_ _1921_ _1974_ VDD VSS MUX2_X1
X_4357_ _1902_ _1974_ _1975_ VDD VSS NAND2_X1
X_4358_ net36 _1900_ _1976_ VDD VSS NAND2_X1
X_4359_ _1789_ _1975_ _1976_ _0552_ VDD VSS AOI21_X1
X_4360_ _1514_ _1977_ VDD VSS BUF_X4
X_4361_ mem\[0\]\[30\] mem\[1\]\[30\] _1827_ _1978_ VDD VSS
+ MUX2_X1
X_4362_ mem\[2\]\[30\] mem\[3\]\[30\] _1904_ _1979_ VDD VSS
+ MUX2_X1
X_4363_ _1978_ _1979_ _1556_ _1980_ VDD VSS MUX2_X1
X_4364_ mem\[8\]\[30\] mem\[9\]\[30\] _1904_ _1981_ VDD VSS
+ MUX2_X1
X_4365_ mem\[10\]\[30\] mem\[11\]\[30\] _1545_ _1982_ VDD
+ VSS MUX2_X1
X_4366_ _1981_ _1982_ _1833_ _1983_ VDD VSS MUX2_X1
X_4367_ _1980_ _1983_ _1870_ _1984_ VDD VSS MUX2_X1
X_4368_ mem\[4\]\[30\] mem\[5\]\[30\] _1949_ _1985_ VDD VSS
+ MUX2_X1
X_4369_ mem\[6\]\[30\] mem\[7\]\[30\] _1873_ _1986_ VDD VSS
+ MUX2_X1
X_4370_ _1985_ _1986_ _1875_ _1987_ VDD VSS MUX2_X1
X_4371_ mem\[12\]\[30\] mem\[13\]\[30\] _1839_ _1988_ VDD
+ VSS MUX2_X1
X_4372_ mem\[14\]\[30\] mem\[15\]\[30\] _1915_ _1989_ VDD
+ VSS MUX2_X1
X_4373_ _1988_ _1989_ _1917_ _1990_ VDD VSS MUX2_X1
X_4374_ _1987_ _1990_ _1919_ _1991_ VDD VSS MUX2_X1
X_4375_ _1984_ _1991_ _1921_ _1992_ VDD VSS MUX2_X1
X_4376_ _1902_ _1992_ _1993_ VDD VSS NAND2_X1
X_4377_ net37 _1900_ _1994_ VDD VSS NAND2_X1
X_4378_ _1977_ _1993_ _1994_ _0553_ VDD VSS AOI21_X1
X_4379_ mem\[0\]\[31\] mem\[1\]\[31\] _1827_ _1995_ VDD VSS
+ MUX2_X1
X_4380_ _1526_ _1996_ VDD VSS BUF_X4
X_4381_ mem\[2\]\[31\] mem\[3\]\[31\] _1996_ _1997_ VDD VSS
+ MUX2_X1
X_4382_ _1995_ _1997_ _1556_ _1998_ VDD VSS MUX2_X1
X_4383_ mem\[8\]\[31\] mem\[9\]\[31\] _1904_ _1999_ VDD VSS
+ MUX2_X1
X_4384_ mem\[10\]\[31\] mem\[11\]\[31\] _1545_ _2000_ VDD
+ VSS MUX2_X1
X_4385_ _1999_ _2000_ _1833_ _2001_ VDD VSS MUX2_X1
X_4386_ _1998_ _2001_ _1870_ _2002_ VDD VSS MUX2_X1
X_4387_ mem\[4\]\[31\] mem\[5\]\[31\] _1949_ _2003_ VDD VSS
+ MUX2_X1
X_4388_ mem\[6\]\[31\] mem\[7\]\[31\] _1873_ _2004_ VDD VSS
+ MUX2_X1
X_4389_ _2003_ _2004_ _1875_ _2005_ VDD VSS MUX2_X1
X_4390_ mem\[12\]\[31\] mem\[13\]\[31\] _1839_ _2006_ VDD
+ VSS MUX2_X1
X_4391_ mem\[14\]\[31\] mem\[15\]\[31\] _1915_ _2007_ VDD
+ VSS MUX2_X1
X_4392_ _2006_ _2007_ _1917_ _2008_ VDD VSS MUX2_X1
X_4393_ _2005_ _2008_ _1919_ _2009_ VDD VSS MUX2_X1
X_4394_ _2002_ _2009_ _1921_ _2010_ VDD VSS MUX2_X1
X_4395_ _1902_ _2010_ _2011_ VDD VSS NAND2_X1
X_4396_ net38 _1900_ _2012_ VDD VSS NAND2_X1
X_4397_ _1977_ _2011_ _2012_ _0554_ VDD VSS AOI21_X1
X_4398_ mem\[0\]\[3\] mem\[1\]\[3\] _1553_ _2013_ VDD VSS
+ MUX2_X1
X_4399_ mem\[2\]\[3\] mem\[3\]\[3\] _1996_ _2014_ VDD VSS
+ MUX2_X1
X_4400_ _2013_ _2014_ _1556_ _2015_ VDD VSS MUX2_X1
X_4401_ mem\[8\]\[3\] mem\[9\]\[3\] _1996_ _2016_ VDD VSS
+ MUX2_X1
X_4402_ mem\[10\]\[3\] mem\[11\]\[3\] _1545_ _2017_ VDD VSS
+ MUX2_X1
X_4403_ _2016_ _2017_ _1533_ _2018_ VDD VSS MUX2_X1
X_4404_ _2015_ _2018_ _1870_ _2019_ VDD VSS MUX2_X1
X_4405_ mem\[4\]\[3\] mem\[5\]\[3\] _1949_ _2020_ VDD VSS
+ MUX2_X1
X_4406_ mem\[6\]\[3\] mem\[7\]\[3\] _1873_ _2021_ VDD VSS
+ MUX2_X1
X_4407_ _2020_ _2021_ _1875_ _2022_ VDD VSS MUX2_X1
X_4408_ mem\[12\]\[3\] mem\[13\]\[3\] _1537_ _2023_ VDD VSS
+ MUX2_X1
X_4409_ mem\[14\]\[3\] mem\[15\]\[3\] _1915_ _2024_ VDD VSS
+ MUX2_X1
X_4410_ _2023_ _2024_ _1917_ _2025_ VDD VSS MUX2_X1
X_4411_ _2022_ _2025_ _1919_ _2026_ VDD VSS MUX2_X1
X_4412_ _2019_ _2026_ _1921_ _2027_ VDD VSS MUX2_X1
X_4413_ _1902_ _2027_ _2028_ VDD VSS NAND2_X1
X_4414_ net47 _1900_ _2029_ VDD VSS NAND2_X1
X_4415_ _1977_ _2028_ _2029_ _0555_ VDD VSS AOI21_X1
X_4416_ mem\[0\]\[4\] mem\[1\]\[4\] _1553_ _2030_ VDD VSS
+ MUX2_X1
X_4417_ mem\[2\]\[4\] mem\[3\]\[4\] _1996_ _2031_ VDD VSS
+ MUX2_X1
X_4418_ _2030_ _2031_ _1556_ _2032_ VDD VSS MUX2_X1
X_4419_ mem\[8\]\[4\] mem\[9\]\[4\] _1996_ _2033_ VDD VSS
+ MUX2_X1
X_4420_ mem\[10\]\[4\] mem\[11\]\[4\] _1545_ _2034_ VDD VSS
+ MUX2_X1
X_4421_ _2033_ _2034_ _1533_ _2035_ VDD VSS MUX2_X1
X_4422_ _2032_ _2035_ _1870_ _2036_ VDD VSS MUX2_X1
X_4423_ mem\[4\]\[4\] mem\[5\]\[4\] _1949_ _2037_ VDD VSS
+ MUX2_X1
X_4424_ mem\[6\]\[4\] mem\[7\]\[4\] _1873_ _2038_ VDD VSS
+ MUX2_X1
X_4425_ _2037_ _2038_ _1875_ _2039_ VDD VSS MUX2_X1
X_4426_ mem\[12\]\[4\] mem\[13\]\[4\] _1537_ _2040_ VDD VSS
+ MUX2_X1
X_4427_ mem\[14\]\[4\] mem\[15\]\[4\] _1915_ _2041_ VDD VSS
+ MUX2_X1
X_4428_ _2040_ _2041_ _1917_ _2042_ VDD VSS MUX2_X1
X_4429_ _2039_ _2042_ _1919_ _2043_ VDD VSS MUX2_X1
X_4430_ _2036_ _2043_ _1921_ _2044_ VDD VSS MUX2_X1
X_4431_ _1902_ _2044_ _2045_ VDD VSS NAND2_X1
X_4432_ net58 _1900_ _2046_ VDD VSS NAND2_X1
X_4433_ _1977_ _2045_ _2046_ _0556_ VDD VSS AOI21_X1
X_4434_ mem\[0\]\[5\] mem\[1\]\[5\] _1553_ _2047_ VDD VSS
+ MUX2_X1
X_4435_ mem\[2\]\[5\] mem\[3\]\[5\] _1996_ _2048_ VDD VSS
+ MUX2_X1
X_4436_ _2047_ _2048_ _1556_ _2049_ VDD VSS MUX2_X1
X_4437_ mem\[8\]\[5\] mem\[9\]\[5\] _1996_ _2050_ VDD VSS
+ MUX2_X1