
* cell configurable_kogge_stone_adder
* pin a[2]
* pin b[3]
* pin b[5]
* pin a[5]
* pin b[4]
* pin a[4]
* pin b[6]
* pin sum[5]
* pin b[13]
* pin a[6]
* pin sum[6]
* pin a[13]
* pin sum[7]
* pin sum[8]
* pin b[7]
* pin a[7]
* pin b[8]
* pin sum[9]
* pin a[8]
* pin sum[10]
* pin a[3]
* pin a[10]
* pin b[2]
* pin b[10]
* pin a[9]
* pin sum[2]
* pin b[9]
* pin sum[3]
* pin a[1]
* pin sum[11]
* pin a[0]
* pin b[1]
* pin sum[1]
* pin sum[4]
* pin b[11]
* pin sum[14]
* pin a[14]
* pin a[11]
* pin b[14]
* pin b[0]
* pin a[12]
* pin sum[0]
* pin sum[15]
* pin sum[12]
* pin sum[13]
* pin sum[16]
* pin cin
* pin a[17]
* pin b[12]
* pin a[15]
* pin a[31]
* pin sum[17]
* pin b[17]
* pin b[15]
* pin sum[18]
* pin b[16]
* pin a[18]
* pin b[31]
* pin b[18]
* pin sum[31]
* pin sum[29]
* pin cout
* pin sum[30]
* pin b[30]
* pin sum[19]
* pin sum[20]
* pin a[30]
* pin a[16]
* pin a[19]
* pin sum[22]
* pin sum[27]
* pin sum[21]
* pin sum[28]
* pin b[19]
* pin b[29]
* pin a[29]
* pin a[20]
* pin b[20]
* pin a[25]
* pin a[21]
* pin b[22]
* pin a[22]
* pin a[27]
* pin sum[25]
* pin a[28]
* pin b[25]
* pin a[23]
* pin b[27]
* pin b[28]
* pin a[26]
* pin a[24]
* pin b[23]
* pin b[26]
* pin sum[26]
* pin b[24]
* pin sum[24]
* pin sum[23]
* pin b[21]
.SUBCKT configurable_kogge_stone_adder 1 2 3 4 5 6 7 8 9 10 11 12 13 14 15 16
+ 17 18 19 20 21 35 50 57 67 74 83 89 121 133 135 136 155 156 165 167 168 173
+ 181 182 190 194 205 209 210 224 225 230 231 247 248 259 260 267 273 279 284
+ 290 298 303 324 328 345 346 353 354 361 375 383 395 402 408 413 419 437 438
+ 446 447 472 473 474 475 476 483 487 490 494 497 499 503 508 509 512 513 514
+ 515 516 517
* net 1 a[2]
* net 2 b[3]
* net 3 b[5]
* net 4 a[5]
* net 5 b[4]
* net 6 a[4]
* net 7 b[6]
* net 8 sum[5]
* net 9 b[13]
* net 10 a[6]
* net 11 sum[6]
* net 12 a[13]
* net 13 sum[7]
* net 14 sum[8]
* net 15 b[7]
* net 16 a[7]
* net 17 b[8]
* net 18 sum[9]
* net 19 a[8]
* net 20 sum[10]
* net 21 a[3]
* net 35 a[10]
* net 50 b[2]
* net 57 b[10]
* net 67 a[9]
* net 74 sum[2]
* net 83 b[9]
* net 89 sum[3]
* net 121 a[1]
* net 133 sum[11]
* net 135 a[0]
* net 136 b[1]
* net 155 sum[1]
* net 156 sum[4]
* net 165 b[11]
* net 167 sum[14]
* net 168 a[14]
* net 173 a[11]
* net 181 b[14]
* net 182 b[0]
* net 190 a[12]
* net 194 sum[0]
* net 205 sum[15]
* net 209 sum[12]
* net 210 sum[13]
* net 224 sum[16]
* net 225 cin
* net 230 a[17]
* net 231 b[12]
* net 247 a[15]
* net 248 a[31]
* net 259 sum[17]
* net 260 b[17]
* net 267 b[15]
* net 273 sum[18]
* net 279 b[16]
* net 284 a[18]
* net 290 b[31]
* net 298 b[18]
* net 303 sum[31]
* net 324 sum[29]
* net 328 cout
* net 345 sum[30]
* net 346 b[30]
* net 353 sum[19]
* net 354 sum[20]
* net 361 a[30]
* net 375 a[16]
* net 383 a[19]
* net 395 sum[22]
* net 402 sum[27]
* net 408 sum[21]
* net 413 sum[28]
* net 419 b[19]
* net 437 b[29]
* net 438 a[29]
* net 446 a[20]
* net 447 b[20]
* net 472 a[25]
* net 473 a[21]
* net 474 b[22]
* net 475 a[22]
* net 476 a[27]
* net 483 sum[25]
* net 487 a[28]
* net 490 b[25]
* net 494 a[23]
* net 497 b[27]
* net 499 b[28]
* net 503 a[26]
* net 508 a[24]
* net 509 b[23]
* net 512 b[26]
* net 513 sum[26]
* net 514 b[24]
* net 515 sum[24]
* net 516 sum[23]
* net 517 b[21]
* cell instance $2 r0 *1 5.52,8.16
X$2 58 1 37 22 58 22 sky130_fd_sc_hd__clkbuf_1
* cell instance $6 r0 *1 10.58,8.16
X$6 58 2 84 22 58 22 sky130_fd_sc_hd__clkbuf_1
* cell instance $9 r0 *1 13.8,2.72
X$9 58 3 43 22 58 22 sky130_fd_sc_hd__clkbuf_1
* cell instance $12 r0 *1 11.96,2.72
X$12 58 4 23 22 58 22 sky130_fd_sc_hd__clkbuf_1
* cell instance $15 m0 *1 18.86,8.16
X$15 58 5 52 22 58 22 sky130_fd_sc_hd__clkbuf_1
* cell instance $18 m0 *1 17.48,8.16
X$18 58 6 51 22 58 22 sky130_fd_sc_hd__clkbuf_1
* cell instance $21 r0 *1 21.16,8.16
X$21 58 7 46 22 58 22 sky130_fd_sc_hd__clkbuf_1
* cell instance $24 m0 *1 24.38,8.16
X$24 58 88 8 22 58 22 sky130_fd_sc_hd__clkbuf_1
* cell instance $27 m0 *1 25.76,13.6
X$27 58 9 102 22 58 22 sky130_fd_sc_hd__clkbuf_1
* cell instance $29 r0 *1 25.76,2.72
X$29 58 10 34 22 58 22 sky130_fd_sc_hd__clkbuf_1
* cell instance $33 r0 *1 27.14,2.72
X$33 58 31 11 22 58 22 sky130_fd_sc_hd__clkbuf_1
* cell instance $36 r0 *1 29.44,2.72
X$36 58 12 49 22 58 22 sky130_fd_sc_hd__clkbuf_1
* cell instance $39 r0 *1 30.82,2.72
X$39 58 87 13 22 58 22 sky130_fd_sc_hd__clkbuf_1
* cell instance $42 r0 *1 35.88,2.72
X$42 58 25 14 22 58 22 sky130_fd_sc_hd__clkbuf_1
* cell instance $45 r0 *1 38.64,2.72
X$45 58 15 60 22 58 22 sky130_fd_sc_hd__clkbuf_1
* cell instance $48 r0 *1 40.02,2.72
X$48 58 16 73 22 58 22 sky130_fd_sc_hd__clkbuf_1
* cell instance $51 r0 *1 43.24,2.72
X$51 58 17 26 22 58 22 sky130_fd_sc_hd__clkbuf_1
* cell instance $54 m0 *1 47.84,8.16
X$54 58 85 18 22 58 22 sky130_fd_sc_hd__clkbuf_1
* cell instance $57 r0 *1 51.06,2.72
X$57 58 19 27 22 58 22 sky130_fd_sc_hd__clkbuf_1
* cell instance $60 r0 *1 57.04,2.72
X$60 58 29 20 22 58 22 sky130_fd_sc_hd__clkbuf_1
* cell instance $63 r0 *1 10.58,2.72
X$63 58 21 33 22 58 22 sky130_fd_sc_hd__clkbuf_1
* cell instance $68 r0 *1 1.38,2.72
X$68 22 36 38 37 32 58 58 22 sky130_fd_sc_hd__ha_1
* cell instance $69 r0 *1 5.98,2.72
X$69 22 41 63 33 84 58 58 22 sky130_fd_sc_hd__ha_1
* cell instance $73 r0 *1 15.64,2.72
X$73 22 44 45 23 43 58 58 22 sky130_fd_sc_hd__ha_1
* cell instance $74 r0 *1 20.24,2.72
X$74 22 30 48 46 34 58 58 22 sky130_fd_sc_hd__ha_2
* cell instance $78 r0 *1 32.66,2.72
X$78 58 111 24 25 58 22 22 sky130_fd_sc_hd__xnor2_1
* cell instance $86 r0 *1 45.54,2.72
X$86 22 24 47 26 27 58 58 22 sky130_fd_sc_hd__ha_2
* cell instance $88 r0 *1 53.36,2.72
X$88 58 80 28 29 58 22 22 sky130_fd_sc_hd__xnor2_1
* cell instance $91 r0 *1 58.88,2.72
X$91 22 28 40 39 42 58 58 22 sky130_fd_sc_hd__ha_1
* cell instance $97 m0 *1 1.38,8.16
X$97 58 50 32 22 58 22 sky130_fd_sc_hd__clkbuf_1
* cell instance $98 m0 *1 2.76,8.16
X$98 58 61 36 58 62 22 22 sky130_fd_sc_hd__xor2_1
* cell instance $99 m0 *1 5.98,8.16
X$99 58 61 36 41 38 22 69 58 22 sky130_fd_sc_hd__a211oi_1
* cell instance $100 m0 *1 8.74,8.16
X$100 58 41 38 99 58 22 22 sky130_fd_sc_hd__nand2_1
* cell instance $101 m0 *1 10.12,8.16
X$101 58 63 41 38 22 58 64 22 sky130_fd_sc_hd__a21oi_1
* cell instance $103 m0 *1 12.88,8.16
X$103 22 76 53 51 52 58 58 22 sky130_fd_sc_hd__ha_1
* cell instance $106 m0 *1 21.62,8.16
X$106 58 45 44 53 22 58 71 22 sky130_fd_sc_hd__a21oi_1
* cell instance $108 m0 *1 25.76,8.16
X$108 58 65 30 58 31 22 22 sky130_fd_sc_hd__xor2_1
* cell instance $111 m0 *1 33.12,8.16
X$111 58 45 30 72 48 22 54 58 22 sky130_fd_sc_hd__a211oi_1
* cell instance $113 m0 *1 37.72,8.16
X$113 22 108 72 73 60 58 58 22 sky130_fd_sc_hd__ha_1
* cell instance $116 m0 *1 44.62,8.16
X$116 58 66 78 54 58 59 22 22 sky130_fd_sc_hd__o21a_1
* cell instance $119 m0 *1 49.68,8.16
X$119 58 40 55 47 66 22 58 22 sky130_fd_sc_hd__nor3_1
* cell instance $120 m0 *1 51.52,8.16
X$120 58 28 55 56 58 96 22 22 sky130_fd_sc_hd__o21a_1
* cell instance $124 m0 *1 57.04,8.16
X$124 22 56 55 68 70 58 58 22 sky130_fd_sc_hd__ha_1
* cell instance $125 m0 *1 61.64,8.16
X$125 58 35 39 22 58 22 sky130_fd_sc_hd__clkbuf_1
* cell instance $129 r0 *1 2.76,8.16
X$129 58 62 74 22 58 22 sky130_fd_sc_hd__clkbuf_1
* cell instance $130 r0 *1 4.14,8.16
X$130 58 90 89 22 58 22 sky130_fd_sc_hd__clkbuf_1
* cell instance $132 r0 *1 7.36,8.16
X$132 58 75 91 69 90 22 58 22 sky130_fd_sc_hd__nor3_1
* cell instance $133 r0 *1 9.2,8.16
X$133 58 99 98 91 58 22 22 sky130_fd_sc_hd__nand2_1
* cell instance $135 r0 *1 12.88,8.16
X$135 58 76 41 44 36 58 92 22 22 sky130_fd_sc_hd__nand4_1
* cell instance $139 r0 *1 16.1,8.16
X$139 22 106 71 124 92 64 117 58 58 22 sky130_fd_sc_hd__o221a_1
* cell instance $142 r0 *1 23.46,8.16
X$142 58 101 100 88 58 22 22 sky130_fd_sc_hd__xnor2_1
* cell instance $144 r0 *1 27.6,8.16
X$144 58 48 30 65 22 58 105 22 sky130_fd_sc_hd__a21oi_1
* cell instance $145 r0 *1 29.44,8.16
X$145 58 105 77 87 58 22 22 sky130_fd_sc_hd__xnor2_1
* cell instance $146 r0 *1 32.66,8.16
X$146 58 44 30 77 24 22 58 79 22 sky130_fd_sc_hd__and4_1
* cell instance $148 r0 *1 36.34,8.16
X$148 22 108 77 58 58 22 sky130_fd_sc_hd__buf_6
* cell instance $149 r0 *1 40.48,8.16
X$149 58 77 72 24 58 78 22 22 sky130_fd_sc_hd__o21ai_0
* cell instance $153 r0 *1 43.24,8.16
X$153 58 54 78 86 22 58 22 sky130_fd_sc_hd__nor2_1
* cell instance $154 r0 *1 44.62,8.16
X$154 22 86 95 79 47 56 103 58 58 22 sky130_fd_sc_hd__a2111oi_0
* cell instance $155 r0 *1 47.84,8.16
X$155 58 104 95 85 22 58 22 sky130_fd_sc_hd__nor2_1
* cell instance $156 r0 *1 49.22,8.16
X$156 58 55 104 80 22 58 22 sky130_fd_sc_hd__nor2_1
* cell instance $158 r0 *1 51.06,8.16
X$158 58 40 96 79 58 81 22 22 sky130_fd_sc_hd__o21ai_0
* cell instance $159 r0 *1 52.9,8.16
X$159 22 94 97 81 59 82 58 58 22 sky130_fd_sc_hd__o22ai_2
* cell instance $160 r0 *1 57.5,8.16
X$160 58 40 96 82 22 58 22 sky130_fd_sc_hd__nor2_1
* cell instance $162 r0 *1 59.34,8.16
X$162 58 83 70 22 58 22 sky130_fd_sc_hd__clkbuf_1
* cell instance $163 r0 *1 60.72,8.16
X$163 58 67 68 22 58 22 sky130_fd_sc_hd__clkbuf_1
* cell instance $165 r0 *1 62.56,8.16
X$165 58 57 42 22 58 22 sky130_fd_sc_hd__clkbuf_1
* cell instance $170 m0 *1 1.38,13.6
X$170 58 121 114 22 58 22 sky130_fd_sc_hd__clkbuf_1
* cell instance $173 m0 *1 5.52,13.6
X$173 58 116 109 61 22 58 22 sky130_fd_sc_hd__nand2b_1
* cell instance $174 m0 *1 7.82,13.6
X$174 58 41 36 109 98 58 22 22 sky130_fd_sc_hd__nand3_1
* cell instance $175 m0 *1 9.66,13.6
X$175 22 63 110 75 91 58 58 22 sky130_fd_sc_hd__nor3_2
* cell instance $178 m0 *1 14.72,13.6
X$178 58 44 76 117 58 22 22 sky130_fd_sc_hd__nand2_1
* cell instance $179 m0 *1 16.1,13.6
X$179 22 71 126 124 92 117 64 58 58 22 sky130_fd_sc_hd__o221ai_2
* cell instance $181 m0 *1 22.54,13.6
X$181 58 93 110 94 58 101 22 22 sky130_fd_sc_hd__o21ai_0
* cell instance $182 m0 *1 24.38,13.6
X$182 58 44 58 22 100 22 sky130_fd_sc_hd__inv_1
* cell instance $184 m0 *1 27.6,13.6
X$184 58 106 149 65 58 22 22 sky130_fd_sc_hd__nand2_1
* cell instance $186 m0 *1 29.44,13.6
X$186 58 77 30 107 58 22 22 sky130_fd_sc_hd__nand2_1
* cell instance $187 m0 *1 30.82,13.6
X$187 58 30 24 77 44 58 127 22 22 sky130_fd_sc_hd__nand4_1
* cell instance $190 m0 *1 34.5,13.6
X$190 58 93 111 94 58 103 22 22 sky130_fd_sc_hd__o21ai_0
* cell instance $191 m0 *1 36.34,13.6
X$191 58 30 48 77 58 129 22 22 sky130_fd_sc_hd__o21ai_0
* cell instance $193 m0 *1 38.64,13.6
X$193 58 72 47 77 48 58 128 22 22 sky130_fd_sc_hd__a211o_1
* cell instance $195 m0 *1 43.7,13.6
X$195 58 47 72 120 22 58 22 sky130_fd_sc_hd__nor2_1
* cell instance $196 m0 *1 45.08,13.6
X$196 22 104 119 112 118 113 58 58 22 sky130_fd_sc_hd__a2bb2oi_1
* cell instance $197 m0 *1 48.3,13.6
X$197 58 118 141 119 22 58 22 sky130_fd_sc_hd__nand2b_1
* cell instance $199 m0 *1 51.06,13.6
X$199 58 113 80 28 151 22 58 22 sky130_fd_sc_hd__nor3b_1
* cell instance $200 m0 *1 53.82,13.6
X$200 58 28 55 40 22 58 162 22 sky130_fd_sc_hd__a21o_1
* cell instance $202 m0 *1 57.04,13.6
X$202 22 146 40 142 79 96 58 58 22 sky130_fd_sc_hd__o211ai_2
* cell instance $203 m0 *1 61.64,13.6
X$203 58 115 133 22 58 22 sky130_fd_sc_hd__clkbuf_1
* cell instance $205 r0 *1 1.38,13.6
X$205 22 122 109 114 144 58 58 22 sky130_fd_sc_hd__ha_1
* cell instance $206 r0 *1 5.98,13.6
X$206 22 75 41 36 122 138 123 58 58 22 sky130_fd_sc_hd__o2111a_1
* cell instance $207 r0 *1 10.12,13.6
X$207 58 109 122 123 22 58 124 22 sky130_fd_sc_hd__a21oi_1
* cell instance $209 r0 *1 12.88,13.6
X$209 58 41 76 36 140 58 22 22 sky130_fd_sc_hd__nand3_1
* cell instance $215 r0 *1 15.64,13.6
X$215 58 76 58 22 125 22 sky130_fd_sc_hd__inv_1
* cell instance $216 r0 *1 17.02,13.6
X$216 22 139 124 140 64 125 94 58 58 22 sky130_fd_sc_hd__o221a_2
* cell instance $217 r0 *1 21.16,13.6
X$217 58 53 58 22 139 22 sky130_fd_sc_hd__inv_1
* cell instance $219 r0 *1 23.46,13.6
X$219 58 48 53 126 148 22 58 22 sky130_fd_sc_hd__nor3_1
* cell instance $220 r0 *1 25.3,13.6
X$220 58 93 100 139 110 58 149 22 22 sky130_fd_sc_hd__a211o_1
* cell instance $221 r0 *1 28.52,13.6
X$221 58 100 107 93 130 22 58 22 sky130_fd_sc_hd__nor3_1
* cell instance $222 r0 *1 30.36,13.6
X$222 58 106 107 150 22 58 22 sky130_fd_sc_hd__nor2_1
* cell instance $223 r0 *1 31.74,13.6
X$223 22 111 150 72 112 77 48 58 58 22 sky130_fd_sc_hd__a2111oi_2
* cell instance $224 r0 *1 37.26,13.6
X$224 58 48 126 153 22 58 22 sky130_fd_sc_hd__nor2_1
* cell instance $226 r0 *1 39.1,13.6
X$226 22 113 56 24 130 58 58 22 sky130_fd_sc_hd__nand3_2
* cell instance $232 r0 *1 44.16,13.6
X$232 58 141 161 120 129 58 154 22 22 sky130_fd_sc_hd__a211o_1
* cell instance $233 r0 *1 47.38,13.6
X$233 22 55 134 97 118 58 58 22 sky130_fd_sc_hd__nor3_2
* cell instance $234 r0 *1 51.06,13.6
X$234 58 97 151 147 22 58 22 sky130_fd_sc_hd__nor2_1
* cell instance $235 r0 *1 52.44,13.6
X$235 58 40 142 96 58 22 132 22 sky130_fd_sc_hd__o21ai_1
* cell instance $236 r0 *1 54.28,13.6
X$236 22 94 143 131 146 59 132 58 58 22 sky130_fd_sc_hd__o221ai_4
* cell instance $237 m0 *1 1.38,19.04
X$237 58 137 155 22 58 22 sky130_fd_sc_hd__clkbuf_1
* cell instance $238 m0 *1 2.76,19.04
X$238 58 136 144 22 58 22 sky130_fd_sc_hd__clkbuf_1
* cell instance $239 m0 *1 4.14,19.04
X$239 58 135 170 22 58 22 sky130_fd_sc_hd__clkbuf_1
* cell instance $240 m0 *1 5.52,19.04
X$240 58 145 122 137 58 22 22 sky130_fd_sc_hd__xnor2_1
* cell instance $241 m0 *1 8.74,19.04
X$241 58 123 138 122 58 116 22 22 sky130_fd_sc_hd__o21ai_0
* cell instance $244 m0 *1 11.96,19.04
X$244 58 110 76 157 58 22 22 sky130_fd_sc_hd__xnor2_1
* cell instance $249 m0 *1 22.08,19.04
X$249 22 130 112 148 110 58 58 22 sky130_fd_sc_hd__a21boi_2
* cell instance $254 m0 *1 30.36,19.04
X$254 22 118 128 107 106 58 58 22 sky130_fd_sc_hd__o21bai_2
* cell instance $256 m0 *1 36.34,19.04
X$256 22 149 161 134 153 198 113 58 58 22 sky130_fd_sc_hd__a311oi_4
* cell instance $258 m0 *1 46.92,19.04
X$258 58 24 47 56 58 141 22 22 sky130_fd_sc_hd__o21ai_0
* cell instance $260 m0 *1 49.22,19.04
X$260 58 142 28 161 58 22 22 sky130_fd_sc_hd__nand2_1
* cell instance $261 m0 *1 50.6,19.04
X$261 58 28 178 142 56 58 152 22 22 sky130_fd_sc_hd__nand4_1
* cell instance $264 m0 *1 54.28,19.04
X$264 58 163 58 22 143 22 sky130_fd_sc_hd__inv_1
* cell instance $269 m0 *1 59.34,19.04
X$269 58 147 142 115 58 22 22 sky130_fd_sc_hd__xnor2_1
* cell instance $270 m0 *1 62.56,19.04
X$270 58 165 164 22 58 22 sky130_fd_sc_hd__clkbuf_1
* cell instance $271 r0 *1 1.38,19.04
X$271 58 157 156 22 58 22 sky130_fd_sc_hd__clkbuf_1
* cell instance $272 r0 *1 2.76,19.04
X$272 22 158 123 170 169 58 58 22 sky130_fd_sc_hd__ha_1
* cell instance $273 r0 *1 7.36,19.04
X$273 58 145 158 138 22 58 22 sky130_fd_sc_hd__nor2b_1
* cell instance $274 r0 *1 9.66,19.04
X$274 58 122 158 159 58 22 22 sky130_fd_sc_hd__nand2_1
* cell instance $277 r0 *1 13.8,19.04
X$277 58 180 167 22 58 22 sky130_fd_sc_hd__clkbuf_1
* cell instance $282 r0 *1 23,19.04
X$282 58 159 140 93 22 58 22 sky130_fd_sc_hd__or2_1
* cell instance $284 r0 *1 25.76,19.04
X$284 22 197 140 127 159 152 58 58 22 sky130_fd_sc_hd__nor4_2
* cell instance $285 r0 *1 30.36,19.04
X$285 58 127 93 152 166 58 22 22 sky130_fd_sc_hd__or3_1
* cell instance $286 r0 *1 32.66,19.04
X$286 58 160 106 176 58 22 22 sky130_fd_sc_hd__nand2_1
* cell instance $297 r0 *1 50.14,19.04
X$297 22 160 172 163 128 142 162 58 58 22 sky130_fd_sc_hd__a2111oi_2
* cell instance $298 r0 *1 55.66,19.04
X$298 58 162 142 172 163 22 189 58 22 sky130_fd_sc_hd__a211oi_1
* cell instance $299 r0 *1 58.42,19.04
X$299 22 142 163 164 174 58 58 22 sky130_fd_sc_hd__ha_2
* cell instance $304 m0 *1 1.38,24.48
X$304 58 182 169 22 58 22 sky130_fd_sc_hd__clkbuf_1
* cell instance $305 m0 *1 2.76,24.48
X$305 58 181 171 22 58 22 sky130_fd_sc_hd__clkbuf_1
* cell instance $306 m0 *1 4.14,24.48
X$306 58 170 58 22 191 22 sky130_fd_sc_hd__inv_1
* cell instance $307 m0 *1 5.52,24.48
X$307 58 168 175 22 58 22 sky130_fd_sc_hd__clkbuf_1
* cell instance $308 m0 *1 6.9,24.48
X$308 22 193 184 175 171 58 58 22 sky130_fd_sc_hd__ha_1
* cell instance $309 m0 *1 11.5,24.48
X$309 58 193 58 22 195 22 sky130_fd_sc_hd__clkbuf_2
* cell instance $312 m0 *1 14.72,24.48
X$312 58 185 195 58 180 22 22 sky130_fd_sc_hd__xor2_1
* cell instance $315 m0 *1 23.46,24.48
X$315 22 203 177 102 49 58 58 22 sky130_fd_sc_hd__ha_2
* cell instance $319 m0 *1 31.74,24.48
X$319 22 187 176 186 196 177 58 58 22 sky130_fd_sc_hd__a31oi_4
* cell instance $320 m0 *1 39.56,24.48
X$320 22 321 134 188 112 172 58 58 22 sky130_fd_sc_hd__nand4bb_2
* cell instance $321 m0 *1 45.54,24.48
X$321 58 177 131 188 22 58 22 sky130_fd_sc_hd__nor2_1
* cell instance $324 m0 *1 48.3,24.48
X$324 58 189 179 154 58 187 22 22 sky130_fd_sc_hd__a21oi_2
* cell instance $325 m0 *1 51.52,24.48
X$325 58 178 172 179 22 58 22 sky130_fd_sc_hd__nor2_1
* cell instance $330 m0 *1 61.18,24.48
X$330 58 190 192 22 58 22 sky130_fd_sc_hd__clkbuf_1
* cell instance $331 m0 *1 62.56,24.48
X$331 58 173 174 22 58 22 sky130_fd_sc_hd__clkbuf_1
* cell instance $332 r0 *1 1.38,24.48
X$332 58 202 58 22 212 22 sky130_fd_sc_hd__inv_1
* cell instance $334 r0 *1 3.68,24.48
X$334 58 169 58 22 211 22 sky130_fd_sc_hd__inv_1
* cell instance $335 r0 *1 5.06,24.48
X$335 58 183 205 22 58 22 sky130_fd_sc_hd__clkbuf_1
* cell instance $336 r0 *1 6.44,24.48
X$336 58 220 194 22 58 22 sky130_fd_sc_hd__clkbuf_1
* cell instance $339 r0 *1 10.12,24.48
X$339 58 206 239 183 58 22 22 sky130_fd_sc_hd__xnor2_1
* cell instance $340 r0 *1 13.34,24.48
X$340 58 184 195 185 22 58 206 22 sky130_fd_sc_hd__a21oi_1
* cell instance $347 r0 *1 21.16,24.48
X$347 58 207 196 216 58 22 185 22 sky130_fd_sc_hd__o21ai_1
* cell instance $349 r0 *1 23.46,24.48
X$349 58 203 22 186 58 22 sky130_fd_sc_hd__clkbuf_4
* cell instance $352 r0 *1 27.6,24.48
X$352 58 186 197 207 58 22 22 sky130_fd_sc_hd__nand2_1
* cell instance $353 r0 *1 28.98,24.48
X$353 58 186 208 204 58 22 22 sky130_fd_sc_hd__nand2_1
* cell instance $355 r0 *1 30.82,24.48
X$355 58 204 160 106 22 58 215 22 sky130_fd_sc_hd__a21oi_1
* cell instance $356 r0 *1 32.66,24.48
X$356 22 217 187 176 186 177 58 58 22 sky130_fd_sc_hd__a31o_1
* cell instance $359 r0 *1 40.48,24.48
X$359 58 172 131 198 216 22 58 22 sky130_fd_sc_hd__nor3_1
* cell instance $366 r0 *1 45.08,24.48
X$366 58 131 198 199 22 58 22 sky130_fd_sc_hd__nor2_1
* cell instance $367 r0 *1 46.46,24.48
X$367 58 221 186 58 200 22 22 sky130_fd_sc_hd__xor2_1
* cell instance $370 r0 *1 51.06,24.48
X$370 58 199 178 201 58 22 22 sky130_fd_sc_hd__xnor2_1
* cell instance $371 r0 *1 54.28,24.48
X$371 58 200 210 22 58 22 sky130_fd_sc_hd__clkbuf_1
* cell instance $372 r0 *1 55.66,24.48
X$372 22 178 213 192 214 58 58 22 sky130_fd_sc_hd__ha_1
* cell instance $373 r0 *1 60.26,24.48
X$373 58 231 214 22 58 22 sky130_fd_sc_hd__clkbuf_1
* cell instance $375 r0 *1 62.1,24.48
X$375 58 201 209 22 58 22 sky130_fd_sc_hd__clkbuf_1
* cell instance $377 m0 *1 1.38,29.92
X$377 22 145 220 191 212 211 58 58 22 sky130_fd_sc_hd__fa_1
* cell instance $381 m0 *1 14.72,29.92
X$381 58 195 226 184 233 22 58 22 sky130_fd_sc_hd__nor3_1
* cell instance $382 m0 *1 16.56,29.92
X$382 22 234 245 222 217 184 226 58 58 22 sky130_fd_sc_hd__o41ai_1
* cell instance $383 m0 *1 19.78,29.92
X$383 58 226 239 184 22 58 236 22 sky130_fd_sc_hd__a21oi_1
* cell instance $384 m0 *1 21.62,29.92
X$384 58 207 216 222 22 58 22 sky130_fd_sc_hd__nor2_1
* cell instance $385 m0 *1 23,29.92
X$385 58 184 195 177 22 58 223 22 sky130_fd_sc_hd__a21oi_1
* cell instance $389 m0 *1 29.44,29.92
X$389 58 177 208 265 58 22 22 sky130_fd_sc_hd__nand2_1
* cell instance $390 m0 *1 30.82,29.92
X$390 58 187 237 215 58 227 22 22 sky130_fd_sc_hd__a21oi_2
* cell instance $394 m0 *1 39.1,29.92
X$394 22 228 218 198 131 217 172 58 58 22 sky130_fd_sc_hd__o41ai_1
* cell instance $396 m0 *1 43.24,29.92
X$396 22 177 235 186 198 131 172 58 58 22 sky130_fd_sc_hd__a2111oi_0
* cell instance $397 m0 *1 46.46,29.92
X$397 58 166 199 219 58 221 22 22 sky130_fd_sc_hd__o21ai_0
* cell instance $398 m0 *1 48.3,29.92
X$398 58 178 172 131 58 219 22 22 sky130_fd_sc_hd__a21oi_2
* cell instance $399 m0 *1 51.52,29.92
X$399 58 178 131 172 22 58 232 22 sky130_fd_sc_hd__a21o_1
* cell instance $405 m0 *1 58.42,29.92
X$405 58 213 22 172 58 22 sky130_fd_sc_hd__buf_2
* cell instance $407 r0 *1 1.38,29.92
X$407 58 225 202 22 58 22 sky130_fd_sc_hd__clkbuf_1
* cell instance $408 r0 *1 2.76,29.92
X$408 58 248 249 22 58 22 sky130_fd_sc_hd__clkbuf_1
* cell instance $410 r0 *1 5.06,29.92
X$410 58 247 261 22 58 22 sky130_fd_sc_hd__clkbuf_1
* cell instance $414 r0 *1 12.42,29.92
X$414 58 250 224 22 58 22 sky130_fd_sc_hd__clkbuf_1
* cell instance $415 r0 *1 13.8,29.92
X$415 58 239 226 238 22 58 22 sky130_fd_sc_hd__nor2_1
* cell instance $418 r0 *1 15.64,29.92
X$418 58 233 238 245 22 58 22 sky130_fd_sc_hd__nor2_1
* cell instance $419 r0 *1 17.02,29.92
X$419 58 234 251 250 58 22 22 sky130_fd_sc_hd__xnor2_1
* cell instance $421 r0 *1 20.7,29.92
X$421 58 251 239 262 58 22 22 sky130_fd_sc_hd__nand2_1
* cell instance $424 r0 *1 24.38,29.92
X$424 58 195 239 251 240 22 58 208 22 sky130_fd_sc_hd__and4_1
* cell instance $425 r0 *1 27.6,29.92
X$425 58 240 251 264 58 22 22 sky130_fd_sc_hd__nand2_1
* cell instance $427 r0 *1 29.44,29.92
X$427 58 264 236 265 58 237 22 22 sky130_fd_sc_hd__o21ai_0
* cell instance $428 r0 *1 31.28,29.92
X$428 58 241 186 197 22 58 246 22 sky130_fd_sc_hd__a21oi_1
* cell instance $430 r0 *1 33.58,29.92
X$430 58 196 246 266 58 22 22 sky130_fd_sc_hd__nand2_1
* cell instance $432 r0 *1 35.42,29.92
X$432 58 208 241 266 58 244 22 22 sky130_fd_sc_hd__o21ai_0
* cell instance $434 r0 *1 37.72,29.92
X$434 58 244 228 229 22 58 254 22 sky130_fd_sc_hd__a21oi_1
* cell instance $435 r0 *1 39.56,29.92
X$435 58 217 241 242 229 22 58 22 sky130_fd_sc_hd__nor3_1
* cell instance $440 r0 *1 43.24,29.92
X$440 58 242 218 243 22 58 256 22 sky130_fd_sc_hd__a21oi_1
* cell instance $441 r0 *1 45.08,29.92
X$441 58 166 235 219 58 243 22 22 sky130_fd_sc_hd__o21ai_0
* cell instance $444 r0 *1 51.52,29.92
X$444 58 256 240 257 58 22 22 sky130_fd_sc_hd__xnor2_1
* cell instance $447 r0 *1 59.34,29.92
X$447 58 257 259 22 58 22 sky130_fd_sc_hd__clkbuf_1
* cell instance $448 r0 *1 60.72,29.92
X$448 58 230 275 22 58 22 sky130_fd_sc_hd__clkbuf_1
* cell instance $449 r0 *1 62.1,29.92
X$449 58 260 258 22 58 22 sky130_fd_sc_hd__clkbuf_1
* cell instance $456 m0 *1 1.84,35.36
X$456 22 285 310 249 274 58 58 22 sky130_fd_sc_hd__ha_1
* cell instance $457 m0 *1 6.44,35.36
X$457 22 277 226 261 276 58 58 22 sky130_fd_sc_hd__ha_1
* cell instance $458 m0 *1 11.04,35.36
X$458 58 277 58 22 239 22 sky130_fd_sc_hd__clkbuf_2
* cell instance $461 m0 *1 18.4,35.36
X$461 58 287 251 226 22 58 252 22 sky130_fd_sc_hd__a21oi_1
* cell instance $462 m0 *1 20.24,35.36
X$462 58 252 262 223 58 278 22 22 sky130_fd_sc_hd__o21a_1
* cell instance $463 m0 *1 23,35.36
X$463 22 186 195 239 251 58 253 58 22 sky130_fd_sc_hd__nand4_2
* cell instance $464 m0 *1 27.6,35.36
X$464 58 239 195 291 58 22 22 sky130_fd_sc_hd__nand2_1
* cell instance $467 m0 *1 30.36,35.36
X$467 58 264 236 268 22 241 58 22 sky130_fd_sc_hd__o21ai_2
* cell instance $468 m0 *1 33.58,35.36
X$468 22 22 197 269 218 58 58 sky130_fd_sc_hd__nand2_2
* cell instance $471 m0 *1 38.18,35.36
X$471 58 196 269 278 58 242 22 22 sky130_fd_sc_hd__o21ai_0
* cell instance $474 m0 *1 47.38,35.36
X$474 58 278 270 307 58 255 22 22 sky130_fd_sc_hd__o21ai_0
* cell instance $475 m0 *1 49.22,35.36
X$475 58 232 271 255 22 58 263 22 sky130_fd_sc_hd__a21o_1
* cell instance $476 m0 *1 51.98,35.36
X$476 58 253 270 271 22 58 22 sky130_fd_sc_hd__nor2_1
* cell instance $477 m0 *1 53.36,35.36
X$477 58 254 282 58 283 22 22 sky130_fd_sc_hd__xor2_1
* cell instance $479 m0 *1 57.04,35.36
X$479 22 240 272 258 275 58 58 22 sky130_fd_sc_hd__ha_2
* cell instance $480 m0 *1 62.56,35.36
X$480 58 284 286 22 58 22 sky130_fd_sc_hd__clkbuf_1
* cell instance $481 r0 *1 1.38,35.36
X$481 58 290 274 22 58 22 sky130_fd_sc_hd__clkbuf_1
* cell instance $482 r0 *1 2.76,35.36
X$482 58 267 276 22 58 22 sky130_fd_sc_hd__clkbuf_1
* cell instance $483 r0 *1 4.14,35.36
X$483 58 299 285 339 58 22 22 sky130_fd_sc_hd__xnor2_1
* cell instance $484 r0 *1 7.36,35.36
X$484 58 285 58 22 311 22 sky130_fd_sc_hd__inv_1
* cell instance $486 r0 *1 9.2,35.36
X$486 58 279 313 22 58 22 sky130_fd_sc_hd__clkbuf_1
* cell instance $487 r0 *1 10.58,35.36
X$487 22 300 287 301 313 58 58 22 sky130_fd_sc_hd__ha_1
* cell instance $492 r0 *1 15.64,35.36
X$492 58 300 58 22 251 22 sky130_fd_sc_hd__clkbuf_2
* cell instance $496 r0 *1 23.92,35.36
X$496 58 305 166 314 22 58 22 sky130_fd_sc_hd__nor2_1
* cell instance $497 r0 *1 25.3,35.36
X$497 58 251 186 280 58 22 22 sky130_fd_sc_hd__nand2_1
* cell instance $498 r0 *1 26.68,35.36
X$498 58 291 280 218 22 58 22 sky130_fd_sc_hd__nor2_1
* cell instance $499 r0 *1 28.06,35.36
X$499 58 207 264 288 291 22 281 58 22 sky130_fd_sc_hd__nor4_1
* cell instance $501 r0 *1 31.28,35.36
X$501 22 197 293 208 186 58 292 58 22 sky130_fd_sc_hd__nand4_2
* cell instance $502 r0 *1 35.88,35.36
X$502 58 272 240 287 22 58 268 22 sky130_fd_sc_hd__a21oi_1
* cell instance $510 r0 *1 43.24,35.36
X$510 58 320 270 294 22 58 22 sky130_fd_sc_hd__or2_1
* cell instance $511 r0 *1 45.54,35.36
X$511 58 281 302 315 58 22 22 sky130_fd_sc_hd__and2_0
* cell instance $512 r0 *1 47.84,35.36
X$512 58 270 269 302 22 58 22 sky130_fd_sc_hd__nor2_1
* cell instance $514 r0 *1 49.68,35.36
X$514 58 295 282 288 58 22 22 sky130_fd_sc_hd__nand2_1
* cell instance $515 r0 *1 51.06,35.36
X$515 58 282 296 295 240 58 270 22 22 sky130_fd_sc_hd__nand4_1
* cell instance $516 r0 *1 53.36,35.36
X$516 58 282 240 309 58 22 22 sky130_fd_sc_hd__nand2_1
* cell instance $518 r0 *1 55.66,35.36
X$518 58 297 282 272 22 58 308 22 sky130_fd_sc_hd__a21oi_1
* cell instance $519 r0 *1 57.5,35.36
X$519 22 282 297 286 312 58 58 22 sky130_fd_sc_hd__ha_1
* cell instance $520 r0 *1 62.1,35.36
X$520 58 283 273 22 58 22 sky130_fd_sc_hd__clkbuf_1
* cell instance $523 m0 *1 3.22,40.8
X$523 58 330 328 22 58 22 sky130_fd_sc_hd__clkbuf_1
* cell instance $524 m0 *1 4.6,40.8
X$524 58 339 303 22 58 22 sky130_fd_sc_hd__clkbuf_1
* cell instance $525 m0 *1 5.98,40.8
X$525 58 310 311 299 58 22 330 22 sky130_fd_sc_hd__o21bai_1
* cell instance $528 m0 *1 10.12,40.8
X$528 58 304 324 22 58 22 sky130_fd_sc_hd__clkbuf_1
* cell instance $529 m0 *1 11.5,40.8
X$529 58 317 349 304 58 22 22 sky130_fd_sc_hd__xnor2_1
* cell instance $531 m0 *1 18.4,40.8
X$531 58 217 331 340 22 58 22 sky130_fd_sc_hd__nor2_1
* cell instance $533 m0 *1 20.24,40.8
X$533 58 332 341 314 22 58 317 22 sky130_fd_sc_hd__a21oi_1
* cell instance $535 m0 *1 22.54,40.8
X$535 58 219 305 326 58 332 22 22 sky130_fd_sc_hd__o21ai_0
* cell instance $536 m0 *1 24.38,40.8
X$536 58 253 294 342 305 58 22 22 sky130_fd_sc_hd__or3_1
* cell instance $537 m0 *1 26.68,40.8
X$537 58 219 253 294 343 22 58 22 sky130_fd_sc_hd__nor3_1
* cell instance $541 m0 *1 30.36,40.8
X$541 58 208 293 327 58 22 22 sky130_fd_sc_hd__nand2_1
* cell instance $542 m0 *1 31.74,40.8
X$542 58 196 327 292 318 289 58 22 22 sky130_fd_sc_hd__o211ai_1
* cell instance $543 m0 *1 34.5,40.8
X$543 58 288 334 293 22 58 22 sky130_fd_sc_hd__nor2_1
* cell instance $544 m0 *1 35.88,40.8
X$544 58 319 334 344 22 58 22 sky130_fd_sc_hd__nor2_1
* cell instance $545 m0 *1 37.26,40.8
X$545 58 268 319 288 58 22 306 22 sky130_fd_sc_hd__o21ai_1
* cell instance $546 m0 *1 39.1,40.8
X$546 58 306 288 227 58 22 335 22 sky130_fd_sc_hd__o21bai_1
* cell instance $548 m0 *1 42.32,40.8
X$548 58 307 320 294 278 316 22 58 22 sky130_fd_sc_hd__o22ai_1
* cell instance $549 m0 *1 44.62,40.8
X$549 58 321 315 335 302 58 325 22 22 sky130_fd_sc_hd__a22oi_1
* cell instance $551 m0 *1 47.84,40.8
X$551 58 309 219 253 322 58 22 336 22 sky130_fd_sc_hd__o31ai_1
* cell instance $552 m0 *1 50.6,40.8
X$552 58 308 309 278 58 322 22 22 sky130_fd_sc_hd__o21a_1
* cell instance $553 m0 *1 53.36,40.8
X$553 58 407 308 323 58 307 22 22 sky130_fd_sc_hd__o21a_1
* cell instance $556 m0 *1 57.04,40.8
X$556 58 296 295 323 58 22 22 sky130_fd_sc_hd__nand2_1
* cell instance $557 m0 *1 58.42,40.8
X$557 58 418 295 297 22 58 319 22 sky130_fd_sc_hd__a21oi_1
* cell instance $558 m0 *1 60.26,40.8
X$558 58 298 312 22 58 22 sky130_fd_sc_hd__clkbuf_1
* cell instance $563 r0 *1 2.76,40.8
X$563 58 347 329 396 58 22 22 sky130_fd_sc_hd__xnor2_1
* cell instance $564 r0 *1 5.98,40.8
X$564 58 329 357 355 22 58 356 22 sky130_fd_sc_hd__a21o_1
* cell instance $574 r0 *1 17.94,40.8
X$574 58 331 358 359 58 22 347 22 sky130_fd_sc_hd__o21ai_1
* cell instance $576 r0 *1 20.24,40.8
X$576 22 371 359 196 327 378 207 58 58 22 sky130_fd_sc_hd__a2111oi_0
* cell instance $578 r0 *1 23.92,40.8
X$578 58 332 343 333 340 22 373 58 22 sky130_fd_sc_hd__nor4b_1
* cell instance $579 r0 *1 27.14,40.8
X$579 58 333 343 350 22 58 22 sky130_fd_sc_hd__nor2_1
* cell instance $581 r0 *1 30.36,40.8
X$581 58 196 327 318 22 366 58 22 sky130_fd_sc_hd__o21ai_2
* cell instance $582 r0 *1 33.58,40.8
X$582 22 318 351 344 293 241 58 58 22 sky130_fd_sc_hd__a211oi_2
* cell instance $583 r0 *1 38.18,40.8
X$583 58 294 269 374 22 58 22 sky130_fd_sc_hd__nor2_1
* cell instance $591 r0 *1 43.24,40.8
X$591 58 335 321 281 22 58 352 22 sky130_fd_sc_hd__a21oi_1
* cell instance $593 r0 *1 48.76,40.8
X$593 58 309 269 337 22 58 22 sky130_fd_sc_hd__nor2_1
* cell instance $595 r0 *1 50.6,40.8
X$595 58 336 337 254 22 58 360 22 sky130_fd_sc_hd__a21oi_1
* cell instance $597 r0 *1 54.28,40.8
X$597 58 360 295 338 58 22 22 sky130_fd_sc_hd__xnor2_1
* cell instance $598 r0 *1 57.5,40.8
X$598 58 352 296 368 58 22 22 sky130_fd_sc_hd__xnor2_1
* cell instance $599 r0 *1 60.72,40.8
X$599 58 338 353 22 58 22 sky130_fd_sc_hd__clkbuf_1
* cell instance $602 m0 *1 1.84,46.24
X$602 22 329 355 369 362 58 58 22 sky130_fd_sc_hd__ha_1
* cell instance $603 m0 *1 6.44,46.24
X$603 22 356 299 363 358 433 370 58 58 22 sky130_fd_sc_hd__a221oi_2
* cell instance $605 m0 *1 13.8,46.24
X$605 58 349 348 371 58 22 22 sky130_fd_sc_hd__nand2_1
* cell instance $607 m0 *1 17.02,46.24
X$607 58 318 388 389 58 331 22 22 sky130_fd_sc_hd__o21ai_0
* cell instance $610 m0 *1 23.46,46.24
X$610 58 365 373 364 358 58 22 22 sky130_fd_sc_hd__nand3_1
* cell instance $611 m0 *1 25.3,46.24