
* cell parameterized_i2c_master
* pin ack_error
* pin scl_internal_debug
* pin stop
* pin phase[1]
* pin phase[0]
* pin busy
* pin PWELL
* pin NWELL
* pin done
* pin rst_n
* pin state[3]
* pin state[1]
* pin start
* pin state[0]
* pin state[2]
* pin write
* pin bit_counter_debug[2]
* pin data_out[7]
* pin sda_internal_debug
* pin clk
* pin read
* pin bit_counter_debug[1]
* pin bit_counter_debug[0]
* pin data_out[6]
* pin shift_reg_debug[7]
* pin sda
* pin scl
* pin data_in[7]
* pin shift_reg_debug[5]
* pin shift_reg_debug[6]
* pin shift_reg_debug[0]
* pin data_in[3]
* pin data_out[0]
* pin shift_reg_debug[3]
* pin data_out[1]
* pin data_out[5]
* pin data_out[4]
* pin addr[2]
* pin data_out[3]
* pin data_out[2]
* pin shift_reg_debug[4]
* pin shift_reg_debug[2]
* pin data_in[1]
* pin addr[4]
* pin data_in[4]
* pin data_in[2]
* pin addr[1]
* pin data_in[6]
* pin addr[5]
* pin shift_reg_debug[1]
* pin addr[0]
* pin data_in[0]
* pin addr[6]
* pin data_in[5]
* pin addr[3]
.SUBCKT parameterized_i2c_master 1 2 3 4 5 6 7 8 27 43 74 89 124 139 153 165
+ 207 208 230 231 247 269 277 278 308 374 375 387 395 399 400 406 407 408 409
+ 410 411 412 414 416 417 418 419 421 423 424 425 426 427 428 429 430 431 432
+ 433
* net 1 ack_error
* net 2 scl_internal_debug
* net 3 stop
* net 4 phase[1]
* net 5 phase[0]
* net 6 busy
* net 7 PWELL
* net 8 NWELL
* net 27 done
* net 43 rst_n
* net 74 state[3]
* net 89 state[1]
* net 124 start
* net 139 state[0]
* net 153 state[2]
* net 165 write
* net 207 bit_counter_debug[2]
* net 208 data_out[7]
* net 230 sda_internal_debug
* net 231 clk
* net 247 read
* net 269 bit_counter_debug[1]
* net 277 bit_counter_debug[0]
* net 278 data_out[6]
* net 308 shift_reg_debug[7]
* net 374 sda
* net 375 scl
* net 387 data_in[7]
* net 395 shift_reg_debug[5]
* net 399 shift_reg_debug[6]
* net 400 shift_reg_debug[0]
* net 406 data_in[3]
* net 407 data_out[0]
* net 408 shift_reg_debug[3]
* net 409 data_out[1]
* net 410 data_out[5]
* net 411 data_out[4]
* net 412 addr[2]
* net 414 data_out[3]
* net 416 data_out[2]
* net 417 shift_reg_debug[4]
* net 418 shift_reg_debug[2]
* net 419 data_in[1]
* net 421 addr[4]
* net 423 data_in[4]
* net 424 data_in[2]
* net 425 addr[1]
* net 426 data_in[6]
* net 427 addr[5]
* net 428 shift_reg_debug[1]
* net 429 addr[0]
* net 430 data_in[0]
* net 431 addr[6]
* net 432 data_in[5]
* net 433 addr[3]
* cell instance $3 r0 *1 21.85,1.4
X$3 9 7 8 1 BUF_X1
* cell instance $8 m0 *1 21.66,4.2
X$8 13 7 8 2 BUF_X1
* cell instance $17 m0 *1 23.37,15.4
X$17 3 7 8 69 BUF_X1
* cell instance $21 r0 *1 24.7,1.4
X$21 10 7 8 4 BUF_X1
* cell instance $26 r0 *1 25.46,1.4
X$26 11 7 8 5 BUF_X1
* cell instance $32 r0 *1 33.82,1.4
X$32 42 7 8 6 BUF_X1
* cell instance $37 m0 *1 13.3,26.6
X$37 12 213 8 7 198 AND2_X1
* cell instance $39 m0 *1 14.06,26.6
X$39 126 215 8 7 214 AND2_X1
* cell instance $41 m0 *1 15.01,26.6
X$41 190 201 216 7 8 215 MUX2_X1
* cell instance $44 m0 *1 22.61,26.6
X$44 177 7 8 192 CLKBUF_X3
* cell instance $45 m0 *1 23.56,26.6
X$45 211 191 185 7 8 204 NAND3_X1
* cell instance $47 m0 *1 24.51,26.6
X$47 216 166 7 8 220 NOR2_X1
* cell instance $49 m0 *1 25.27,26.6
X$49 105 220 241 114 204 8 7 206 OAI221_X1
* cell instance $51 m0 *1 26.6,26.6
X$51 192 105 145 7 8 222 NAND3_X1
* cell instance $53 m0 *1 27.55,26.6
X$53 222 194 7 8 221 NAND2_X1
* cell instance $57 m0 *1 1.52,26.6
X$57 190 7 8 208 BUF_X1
* cell instance $63 r0 *1 1.33,26.6
X$63 209 7 8 207 BUF_X1
* cell instance $71 r0 *1 12.73,26.6
X$71 7 452 190 214 223 8 DFF_X1
* cell instance $74 r0 *1 17.86,26.6
X$74 209 7 8 210 BUF_X1
* cell instance $76 r0 *1 19.19,26.6
X$76 240 218 12 8 242 7 OAI21_X1
* cell instance $77 r0 *1 19.95,26.6
X$77 210 225 236 7 218 8 AOI21_X1
* cell instance $82 r0 *1 23.56,26.6
X$82 226 140 145 99 236 8 7 AOI211_X2
* cell instance $84 r0 *1 25.46,26.6
X$84 47 62 7 8 227 NOR2_X1
* cell instance $85 r0 *1 26.03,26.6
X$85 227 129 149 87 7 8 241 NAND4_X1
* cell instance $86 r0 *1 26.98,26.6
X$86 231 7 8 128 CLKBUF_X3
* cell instance $87 r0 *1 27.93,26.6
X$87 186 178 7 8 245 NAND2_X1
* cell instance $89 m0 *1 28.5,26.6
X$89 120 138 7 8 193 NOR2_X1
* cell instance $92 r0 *1 29.45,26.6
X$92 206 212 237 107 7 8 244 NOR4_X1
* cell instance $94 m0 *1 29.45,26.6
X$94 195 149 62 7 237 8 AOI21_X1
* cell instance $95 m0 *1 30.4,26.6
X$95 162 169 7 8 148 NOR2_X1
* cell instance $96 m0 *1 30.97,26.6
X$96 47 186 149 7 8 219 NAND3_X1
* cell instance $97 m0 *1 31.73,26.6
X$97 138 219 217 7 117 8 AOI21_X1
* cell instance $98 m0 *1 32.49,26.6
X$98 120 178 7 8 217 NAND2_X1
* cell instance $100 r0 *1 30.4,26.6
X$100 238 221 244 7 8 197 NAND3_X1
* cell instance $102 r0 *1 31.54,26.6
X$102 162 7 8 186 CLKBUF_X3
* cell instance $105 r0 *1 33.06,26.6
X$105 187 234 235 7 8 NOR2_X4
* cell instance $107 m0 *1 33.44,26.6
X$107 95 137 7 8 187 NAND2_X2
* cell instance $108 r0 *1 34.77,26.6
X$108 137 72 145 234 7 8 233 OR4_X1
* cell instance $110 m0 *1 34.96,26.6
X$110 98 162 7 8 234 XNOR2_X2
* cell instance $112 r0 *1 35.91,26.6
X$112 233 232 179 7 212 8 AOI21_X1
* cell instance $115 m0 *1 37.24,26.6
X$115 196 110 197 7 8 228 MUX2_X1
* cell instance $121 r0 *1 38,26.6
X$121 229 7 8 232 INV_X1
* cell instance $122 r0 *1 38.38,26.6
X$122 7 448 229 228 298 8 DFF_X1
* cell instance $124 r0 *1 41.8,26.6
X$124 229 7 8 230 BUF_X1
* cell instance $129 m0 *1 3.23,32.2
X$129 259 7 8 277 BUF_X1
* cell instance $131 m0 *1 7.03,32.2
X$131 279 7 8 269 BUF_X1
* cell instance $135 m0 *1 11.59,32.2
X$135 7 289 279 272 223 8 DFF_X1
* cell instance $138 m0 *1 17.1,32.2
X$138 236 281 16 7 8 273 NOR3_X1
* cell instance $140 m0 *1 18.05,32.2
X$140 210 239 7 8 251 NOR2_X2
* cell instance $142 m0 *1 19.19,32.2
X$142 262 261 7 8 282 XNOR2_X2
* cell instance $144 m0 *1 21.28,32.2
X$144 251 252 7 8 293 NOR2_X1
* cell instance $155 r0 *1 5.13,32.2
X$155 286 7 8 278 BUF_X1
* cell instance $159 r0 *1 11.02,32.2
X$159 286 201 280 7 8 301 MUX2_X1
* cell instance $163 r0 *1 15.01,32.2
X$163 279 7 8 239 CLKBUF_X2
* cell instance $165 r0 *1 16.53,32.2
X$165 259 7 8 281 CLKBUF_X2
* cell instance $166 r0 *1 17.29,32.2
X$166 249 289 260 8 7 262 HA_X1
* cell instance $168 r0 *1 19.57,32.2
X$168 261 262 8 283 7 XOR2_X2
* cell instance $171 r0 *1 22.23,32.2
X$171 283 179 260 7 8 302 NOR3_X1
* cell instance $173 m0 *1 22.23,32.2
X$173 251 249 7 8 179 NAND2_X2
* cell instance $178 r0 *1 24.7,32.2
X$178 263 140 7 8 296 NOR2_X2
* cell instance $179 r0 *1 25.65,32.2
X$179 140 263 7 8 311 OR2_X1
* cell instance $181 m0 *1 25.84,32.2
X$181 129 178 138 7 8 275 NAND3_X1
* cell instance $182 m0 *1 27.36,32.2
X$182 166 186 264 7 8 290 MUX2_X1
* cell instance $183 m0 *1 28.69,32.2
X$183 138 290 95 7 284 8 AOI21_X1
* cell instance $184 m0 *1 29.45,32.2
X$184 178 265 7 8 291 OR2_X1
* cell instance $186 m0 *1 30.4,32.2
X$186 149 138 7 8 146 NOR2_X2
* cell instance $187 m0 *1 31.35,32.2
X$187 292 266 267 270 7 8 238 AOI22_X1
* cell instance $188 m0 *1 32.3,32.2
X$188 217 285 95 138 288 8 7 267 OAI221_X1
* cell instance $193 r0 *1 28.88,32.2
X$193 284 291 256 8 294 7 OAI21_X1
* cell instance $196 r0 *1 31.92,32.2
X$196 138 287 7 8 295 XNOR2_X2
* cell instance $197 m0 *1 34.96,32.2
X$197 186 137 7 8 287 NAND2_X1
* cell instance $198 m0 *1 33.82,32.2
X$198 149 186 7 8 288 XOR2_X1
* cell instance $211 m0 *1 12.92,46.2
X$211 361 7 8 409 BUF_X1
* cell instance $213 m0 *1 13.49,46.2
X$213 334 7 8 410 BUF_X1
* cell instance $216 m0 *1 11.78,46.2
X$216 390 7 8 407 BUF_X1
* cell instance $221 m0 *1 2.09,23.8
X$221 165 7 8 180 BUF_X1
* cell instance $232 r0 *1 11.21,23.8
X$232 7 446 185 198 21 8 DFF_X1
* cell instance $233 m0 *1 12.35,23.8
X$233 180 164 185 7 8 213 MUX2_X1
* cell instance $237 m0 *1 17.48,23.8
X$237 224 164 166 7 8 182 MUX2_X1
* cell instance $240 r0 *1 14.44,23.8
X$240 12 182 8 7 200 AND2_X1
* cell instance $241 r0 *1 15.2,23.8
X$241 7 444 202 200 21 8 DFF_X1
* cell instance $242 r0 *1 18.43,23.8
X$242 202 7 8 166 CLKBUF_X2
* cell instance $244 r0 *1 19.38,23.8
X$244 7 145 20 179 177 201 8 NOR4_X4
* cell instance $246 m0 *1 20.71,23.8
X$246 59 7 8 126 BUF_X2
* cell instance $248 m0 *1 22.8,23.8
X$248 176 177 174 8 144 7 OAI21_X1
* cell instance $250 m0 *1 23.56,23.8
X$250 185 7 8 133 INV_X1
* cell instance $251 m0 *1 23.94,23.8
X$251 191 166 8 7 134 AND2_X1
* cell instance $252 m0 *1 24.7,23.8
X$252 69 133 149 8 183 7 OAI21_X1
* cell instance $253 m0 *1 25.46,23.8
X$253 168 142 167 7 8 184 OR3_X1
* cell instance $255 m0 *1 26.6,23.8
X$255 7 136 162 169 178 177 8 NAND4_X4
* cell instance $257 r0 *1 22.8,23.8
X$257 179 175 158 134 174 226 7 8 OAI221_X2
* cell instance $258 r0 *1 24.89,23.8
X$258 69 7 8 191 INV_X1
* cell instance $259 r0 *1 25.27,23.8
X$259 166 191 7 8 121 NAND2_X1
* cell instance $260 r0 *1 25.84,23.8
X$260 158 121 62 8 194 7 OAI21_X1
* cell instance $261 r0 *1 26.6,23.8
X$261 72 205 192 158 121 8 7 199 OAI221_X1
* cell instance $262 r0 *1 27.74,23.8
X$262 189 193 183 7 205 8 AOI21_X1
* cell instance $263 r0 *1 28.5,23.8
X$263 168 145 186 7 8 189 NOR3_X1
* cell instance $264 r0 *1 29.26,23.8
X$264 69 186 95 138 7 8 195 NAND4_X1
* cell instance $267 m0 *1 30.4,23.8
X$267 151 169 162 8 7 175 OAI21_X2
* cell instance $269 r0 *1 31.35,23.8
X$269 98 8 169 7 BUF_X4
* cell instance $271 m0 *1 32.11,23.8
X$271 145 179 170 8 172 7 OAI21_X1
* cell instance $272 r0 *1 32.68,23.8
X$272 47 120 138 7 8 203 NAND3_X1
* cell instance $274 m0 *1 33.44,23.8
X$274 149 172 173 7 150 8 AOI21_X2
* cell instance $277 r0 *1 33.63,23.8
X$277 187 62 203 7 188 8 AOI21_X2
* cell instance $279 m0 *1 35.34,23.8
X$279 107 178 7 8 171 NOR2_X1
* cell instance $281 m0 *1 35.91,23.8
X$281 171 111 181 7 8 156 MUX2_X1
* cell instance $282 m0 *1 37.24,23.8
X$282 59 151 8 7 181 AND2_X1
* cell instance $287 r0 *1 35.72,23.8
X$287 59 199 8 7 160 AND2_X1
* cell instance $290 r0 *1 37.05,23.8
X$290 232 59 7 8 196 NAND2_X1
* cell instance $297 m0 *1 15.2,46.2
X$297 391 7 8 411 BUF_X1
* cell instance $299 m0 *1 16.72,46.2
X$299 126 413 8 7 396 AND2_X1
* cell instance $300 m0 *1 17.48,46.2
X$300 349 7 8 414 BUF_X1
* cell instance $301 m0 *1 18.05,46.2
X$301 403 201 336 7 8 413 MUX2_X1
* cell instance $302 m0 *1 19.38,46.2
X$302 403 7 8 416 BUF_X1
* cell instance $304 m0 *1 20.14,46.2
X$304 340 7 8 417 BUF_X1
* cell instance $305 m0 *1 20.71,46.2
X$305 336 7 8 418 BUF_X1
* cell instance $306 m0 *1 21.28,46.2
X$306 419 7 8 401 BUF_X1
* cell instance $307 m0 *1 21.85,46.2
X$307 432 7 8 420 BUF_X1
* cell instance $308 m0 *1 22.42,46.2
X$308 7 335 329 405 420 235 340 276 8 AOI222_X2
* cell instance $309 m0 *1 25.08,46.2
X$309 423 7 8 402 BUF_X1
* cell instance $310 m0 *1 25.65,46.2
X$310 424 7 8 373 BUF_X1
* cell instance $311 m0 *1 26.22,46.2
X$311 433 7 8 392 BUF_X1
* cell instance $312 m0 *1 26.79,46.2
X$312 425 7 8 376 BUF_X1
* cell instance $313 m0 *1 27.36,46.2
X$313 426 7 8 377 BUF_X1
* cell instance $314 m0 *1 27.93,46.2
X$314 427 7 8 378 BUF_X1
* cell instance $315 m0 *1 28.5,46.2
X$315 430 7 8 264 BUF_X1
* cell instance $316 m0 *1 29.07,46.2
X$316 431 7 8 393 BUF_X1
* cell instance $317 m0 *1 29.64,46.2
X$317 366 7 8 428 BUF_X1
* cell instance $318 m0 *1 30.21,46.2
X$318 429 7 8 398 BUF_X1
* cell instance $319 m0 *1 30.78,46.2
X$319 405 422 296 7 8 397 NAND3_X1
* cell instance $320 m0 *1 31.54,46.2
X$320 421 7 8 394 BUF_X1
* cell instance $321 m0 *1 32.11,46.2
X$321 344 394 7 8 422 NAND2_X1
* cell instance $322 m0 *1 32.68,46.2
X$322 344 415 7 8 384 NAND2_X1
* cell instance $323 m0 *1 33.25,46.2
X$323 412 7 8 415 BUF_X1
* cell instance $324 m0 *1 33.82,46.2
X$324 404 7 8 343 BUF_X2
* cell instance $327 m0 *1 27.36,35
X$327 298 7 8 435 INV_X2
* cell instance $329 m0 *1 28.88,35
X$329 294 296 7 8 307 NAND2_X1
* cell instance $333 m0 *1 31.92,35
X$333 216 7 8 285 INV_X1
* cell instance $334 m0 *1 32.3,35
X$334 295 95 7 344 8 NAND2_X4
* cell instance $337 m0 *1 34.96,35
X$337 299 7 8 216 BUF_X2
* cell instance $341 r0 *1 27.36,35
X$341 128 7 8 298 CLKBUF_X3
* cell instance $342 r0 *1 28.31,35
X$342 310 306 312 8 323 7 OAI21_X1
* cell instance $343 r0 *1 29.07,35
X$343 16 323 307 7 324 8 AOI21_X1
* cell instance $344 r0 *1 29.83,35
X$344 316 338 296 7 8 313 NAND3_X1
* cell instance $346 r0 *1 31.35,35
X$346 313 315 8 7 314 AND2_X1
* cell instance $347 r0 *1 32.11,35
X$347 107 306 285 7 315 8 AOI21_X1
* cell instance $348 r0 *1 32.87,35
X$348 7 449 299 314 298 8 DFF_X1
* cell instance $351 m0 *1 39.9,35
X$351 299 7 8 308 BUF_X1
* cell instance $361 m0 *1 2.85,29.4
X$361 247 7 8 224 BUF_X1
* cell instance $365 m0 *1 15.77,29.4
X$365 236 239 7 8 248 NOR2_X1
* cell instance $375 r0 *1 11.4,29.4
X$375 7 271 223 249 259 8 DFF_X2
* cell instance $377 r0 *1 15.39,29.4
X$377 255 248 12 8 272 7 OAI21_X1
* cell instance $379 r0 *1 16.34,29.4
X$379 273 236 274 7 271 8 AOI21_X1
* cell instance $380 m0 *1 20.33,29.4
X$380 239 210 7 8 243 OR2_X1
* cell instance $381 m0 *1 16.72,29.4
X$381 7 242 223 261 209 8 DFF_X2
* cell instance $384 m0 *1 22.04,29.4
X$384 243 252 62 8 176 7 OAI21_X1
* cell instance $387 r0 *1 17.1,29.4
X$387 175 16 249 7 8 274 NOR3_X1
* cell instance $388 r0 *1 17.86,29.4
X$388 260 250 236 8 7 255 AND3_X1
* cell instance $389 r0 *1 18.81,29.4
X$389 210 262 250 236 8 7 240 AND4_X1
* cell instance $390 r0 *1 19.95,29.4
X$390 262 175 7 8 225 OR2_X1
* cell instance $393 r0 *1 21.66,29.4
X$393 249 7 8 252 INV_X1
* cell instance $395 r0 *1 22.42,29.4
X$395 145 251 249 7 258 8 AOI21_X1
* cell instance $399 r0 *1 24.51,29.4
X$399 258 275 253 257 184 263 7 8 OAI221_X2
* cell instance $400 m0 *1 24.89,29.4
X$400 169 178 162 8 257 7 OAI21_X1
* cell instance $402 m0 *1 25.65,29.4
X$402 169 178 47 8 7 253 AND3_X1
* cell instance $403 m0 *1 26.6,29.4
X$403 72 246 245 7 99 8 AOI21_X2
* cell instance $404 m0 *1 27.93,29.4
X$404 186 178 169 8 246 7 OAI21_X1
* cell instance $406 r0 *1 26.6,29.4
X$406 7 87 149 142 276 8 NOR3_X4
* cell instance $407 m0 *1 29.26,29.4
X$407 72 146 224 8 256 7 OAI21_X1
* cell instance $409 m0 *1 30.02,29.4
X$409 148 72 149 7 8 250 NOR3_X1
* cell instance $410 m0 *1 30.78,29.4
X$410 7 169 137 162 60 8 NOR3_X4
* cell instance $411 m0 *1 33.44,29.4
X$411 47 62 95 7 8 254 NOR3_X1
* cell instance $413 r0 *1 29.26,29.4
X$413 224 186 87 264 129 7 8 265 AOI221_X1
* cell instance $414 r0 *1 30.4,29.4
X$414 95 186 145 146 8 7 266 AND4_X1
* cell instance $416 r0 *1 31.73,29.4
X$416 169 7 8 138 CLKBUF_X3
* cell instance $418 r0 *1 33.06,29.4
X$418 137 8 149 7 BUF_X4
* cell instance $420 r0 *1 34.58,29.4
X$420 268 60 254 7 270 8 AOI21_X1
* cell instance $422 m0 *1 34.58,29.4
X$422 60 145 72 7 8 268 NOR3_X1
* cell instance $427 r0 *1 35.34,29.4
X$427 137 7 8 178 INV_X2
* cell instance $502 m0 *1 8.74,15.4
X$502 7 436 56 54 21 8 DFF_X1
* cell instance $505 m0 *1 12.16,15.4
X$505 56 7 8 19 BUF_X2
* cell instance $507 m0 *1 13.11,15.4
X$507 58 20 12 7 8 54 NAND3_X1
* cell instance $509 m0 *1 14.06,15.4
X$509 19 61 8 7 58 XNOR2_X1
* cell instance $511 r0 *1 13.49,15.4
X$511 80 12 7 8 97 NAND2_X1
* cell instance $514 r0 *1 14.63,15.4
X$514 61 83 7 8 79 NAND2_X1
* cell instance $515 r0 *1 15.2,15.4
X$515 67 79 83 85 8 7 80 OAI22_X1
* cell instance $517 m0 *1 15.58,15.4
X$517 61 7 8 68 INV_X1
* cell instance $520 r0 *1 16.15,15.4
X$520 67 68 15 7 85 8 AOI21_X1
* cell instance $523 r0 *1 18.81,15.4
X$523 67 75 7 8 82 OR2_X1
* cell instance $526 r0 *1 20.14,15.4
X$526 82 7 8 20 CLKBUF_X3
* cell instance $528 m0 *1 20.14,15.4
X$528 59 7 8 12 BUF_X2
* cell instance $534 r0 *1 21.09,15.4
X$534 75 67 52 7 8 NOR2_X4
* cell instance $536 r0 *1 23.18,15.4
X$536 75 67 90 76 8 70 7 NOR4_X2
* cell instance $540 m0 *1 26.79,15.4
X$540 72 51 60 7 8 65 OR3_X1
* cell instance $541 m0 *1 27.74,15.4
X$541 65 73 52 7 8 50 NAND3_X1
* cell instance $544 m0 *1 33.06,15.4
X$544 62 52 60 92 8 7 57 AND4_X1
* cell instance $551 r0 *1 26.98,15.4
X$551 38 62 7 8 86 NOR2_X1
* cell instance $552 r0 *1 27.55,15.4
X$552 60 38 72 7 8 73 NAND3_X1
* cell instance $554 r0 *1 31.35,15.4
X$554 53 7 8 62 CLKBUF_X3
* cell instance $555 r0 *1 32.3,15.4
X$555 88 60 94 7 40 8 AOI21_X1
* cell instance $556 r0 *1 33.06,15.4
X$556 76 72 7 8 88 NOR2_X1
* cell instance $558 r0 *1 34.39,15.4
X$558 90 7 8 72 CLKBUF_X3
* cell instance $559 r0 *1 35.34,15.4
X$559 7 451 77 81 26 8 DFF_X1
* cell instance $560 r0 *1 38.57,15.4
X$560 7 459 78 91 26 8 DFF_X1
* cell instance $561 r0 *1 41.8,15.4
X$561 78 7 8 90 CLKBUF_X3
* cell instance $562 r0 *1 42.75,15.4
X$562 77 7 8 89 BUF_X1
* cell instance $564 r0 *1 44.84,15.4
X$564 78 7 8 74 BUF_X1
* cell instance $583 r0 *1 10.07,9.8
X$583 7 453 18 17 21 8 DFF_X1
* cell instance $584 r0 *1 13.3,9.8
X$584 31 12 7 8 17 NAND2_X1
* cell instance $585 r0 *1 13.87,9.8
X$585 18 29 8 7 31 XNOR2_X1
* cell instance $586 r0 *1 15.01,9.8
X$586 15 19 30 34 7 8 29 NOR4_X1
* cell instance $587 r0 *1 15.96,9.8
X$587 36 20 12 7 8 48 NAND3_X1
* cell instance $591 r0 *1 20.33,9.8
X$591 7 445 13 33 21 8 DFF_X1
* cell instance $593 r0 *1 23.75,9.8
X$593 16 14 23 7 22 8 AOI21_X1
* cell instance $594 r0 *1 24.51,9.8
X$594 20 10 7 8 14 NAND2_X1
* cell instance $597 r0 *1 25.65,9.8
X$597 7 32 26 24 11 8 DFF_X2
* cell instance $598 r0 *1 29.26,9.8
X$598 24 10 465 8 7 25 HA_X1
* cell instance $644 r0 *1 9.69,12.6
X$644 7 454 55 46 21 8 DFF_X1
* cell instance $645 m0 *1 12.92,12.6
X$645 30 28 8 7 44 XNOR2_X1
* cell instance $646 m0 *1 12.35,12.6
X$646 44 12 7 8 46 NAND2_X1
* cell instance $647 m0 *1 14.06,12.6
X$647 15 19 7 8 28 NOR2_X1
* cell instance $648 m0 *1 14.63,12.6
X$648 34 35 8 7 36 XNOR2_X1
* cell instance $649 m0 *1 15.77,12.6
X$649 7 443 34 48 21 8 DFF_X1
* cell instance $651 m0 *1 20.52,12.6
X$651 50 49 12 7 8 33 NAND3_X1
* cell instance $652 m0 *1 21.28,12.6
X$652 20 13 7 8 49 NAND2_X1
* cell instance $654 r0 *1 12.92,12.6
X$654 55 7 8 30 BUF_X1
* cell instance $655 r0 *1 13.49,12.6
X$655 7 67 19 30 34 18 8 OR4_X4
* cell instance $656 r0 *1 15.96,12.6
X$656 68 19 30 7 8 35 NOR3_X1
* cell instance $658 m0 *1 25.84,12.6
X$658 24 37 51 8 7 38 HA_X1
* cell instance $659 m0 *1 22.23,12.6
X$659 7 22 21 37 10 8 DFF_X2
* cell instance $662 m0 *1 28.69,12.6
X$662 11 10 463 8 7 63 HA_X1
* cell instance $664 m0 *1 30.78,12.6
X$664 25 7 8 47 BUF_X2
* cell instance $666 m0 *1 31.73,12.6
X$666 7 440 42 39 26 8 DFF_X1
* cell instance $668 m0 *1 36.48,12.6
X$668 7 442 45 57 26 8 DFF_X1
* cell instance $671 r0 *1 24.32,12.6
X$671 52 51 7 8 23 NAND2_X1
* cell instance $672 r0 *1 24.89,12.6
X$672 11 37 466 8 7 71 HA_X1
* cell instance $673 r0 *1 26.79,12.6
X$673 20 47 38 7 8 66 NOR3_X1
* cell instance $674 r0 *1 27.55,12.6
X$674 66 64 16 7 8 32 NOR3_X1
* cell instance $675 r0 *1 28.31,12.6
X$675 52 11 7 8 64 NOR2_X1
* cell instance $677 r0 *1 30.4,12.6
X$677 63 7 8 53 CLKBUF_X2
* cell instance $681 r0 *1 32.49,12.6
X$681 41 52 40 7 39 8 AOI21_X1
* cell instance $682 r0 *1 33.25,12.6
X$682 52 42 59 8 41 7 OAI21_X1
* cell instance $686 r0 *1 39.33,12.6
X$686 43 7 8 59 BUF_X2
* cell instance $688 m0 *1 40.28,12.6
X$688 45 7 8 27 BUF_X1
* cell instance $698 m0 *1 13.68,21
X$698 7 132 84 154 21 8 DFF_X1
* cell instance $699 m0 *1 16.91,21
X$699 52 155 16 7 8 154 NOR3_X1
* cell instance $711 m0 *1 22.8,21
X$711 69 133 7 8 143 NOR2_X1
* cell instance $713 m0 *1 23.37,21
X$713 104 8 145 7 BUF_X4
* cell instance $714 m0 *1 24.7,21
X$714 134 158 157 143 114 8 7 141 OAI221_X1
* cell instance $716 m0 *1 26.03,21
X$716 135 145 7 8 157 NAND2_X1
* cell instance $718 r0 *1 22.61,21
X$718 20 144 7 8 100 OR2_X2
* cell instance $719 r0 *1 23.56,21
X$719 106 9 53 129 7 174 8 NAND4_X2
* cell instance $720 r0 *1 25.27,21
X$720 166 9 53 8 167 7 OAI21_X1
* cell instance $721 r0 *1 26.03,21
X$721 142 168 7 8 135 NOR2_X1
* cell instance $723 r0 *1 26.79,21
X$723 106 162 136 7 8 158 NAND3_X2
* cell instance $724 m0 *1 28.69,21
X$724 136 8 95 7 BUF_X4
* cell instance $725 m0 *1 26.98,21
X$725 136 137 87 162 7 114 8 NAND4_X2
* cell instance $726 m0 *1 30.02,21
X$726 127 90 129 7 8 NOR2_X4
* cell instance $727 m0 *1 31.73,21
X$727 147 148 72 7 8 170 NOR3_X1
* cell instance $728 m0 *1 32.49,21
X$728 90 127 7 8 142 OR2_X2
* cell instance $729 m0 *1 33.44,21
X$729 123 149 138 142 8 163 7 NOR4_X2
* cell instance $730 m0 *1 35.15,21
X$730 127 8 162 7 BUF_X4
* cell instance $731 m0 *1 36.48,21
X$731 107 120 7 8 161 NOR2_X1
* cell instance $732 m0 *1 37.05,21
X$732 90 137 7 8 151 NOR2_X1
* cell instance $734 m0 *1 39.14,21
X$734 7 156 26 468 108 8 DFF_X2
* cell instance $737 m0 *1 44.46,21
X$737 108 7 8 139 BUF_X1
* cell instance $742 r0 *1 28.31,21
X$742 137 169 7 8 168 NAND2_X1
* cell instance $744 r0 *1 29.07,21
X$744 146 52 123 129 7 164 8 NAND4_X2
* cell instance $746 r0 *1 31.16,21
X$746 169 162 53 8 7 147 AND3_X1
* cell instance $748 r0 *1 32.49,21
X$748 94 148 7 8 173 NAND2_X1
* cell instance $749 r0 *1 33.06,21
X$749 7 100 150 188 163 111 8 NOR4_X4
* cell instance $750 r0 *1 36.48,21
X$750 161 111 160 7 8 159 MUX2_X1
* cell instance $754 r0 *1 39.14,21
X$754 7 461 152 159 26 8 DFF_X1
* cell instance $756 r0 *1 42.75,21
X$756 152 7 8 127 CLKBUF_X3
* cell instance $759 r0 *1 44.27,21
X$759 152 7 8 153 BUF_X1
* cell instance $776 r0 *1 10.07,18.2
X$776 7 101 102 125 21 8 DFF_X1
* cell instance $777 m0 *1 11.02,18.2
X$777 7 439 83 97 21 8 DFF_X1
* cell instance $781 m0 *1 15.2,18.2
X$781 84 102 7 8 15 OR2_X1
* cell instance $782 m0 *1 15.96,18.2
X$782 83 84 102 7 8 75 OR3_X2
* cell instance $785 m0 *1 18.81,18.2
X$785 7 113 21 471 9 8 DFF_X2
* cell instance $788 r0 *1 13.3,18.2
X$788 126 101 20 8 7 125 AND3_X1
* cell instance $790 r0 *1 15.01,18.2
X$790 101 132 155 8 7 61 HA_X1
* cell instance $792 r0 *1 19.95,18.2
X$792 128 7 8 21 CLKBUF_X3
* cell instance $794 r0 *1 21.09,18.2
X$794 103 70 117 7 113 8 AOI21_X1
* cell instance $795 r0 *1 21.85,18.2
X$795 126 9 7 8 103 NAND2_X1
* cell instance $798 r0 *1 22.99,18.2
X$798 69 133 104 7 8 118 NOR3_X1
* cell instance $799 m0 *1 23.75,18.2
X$799 53 7 8 104 INV_X1
* cell instance $803 r0 *1 23.75,18.2
X$803 118 114 119 115 70 140 7 8 OAI221_X2
* cell instance $804 m0 *1 25.46,18.2
X$804 71 105 114 8 93 7 OAI21_X1
* cell instance $806 m0 *1 26.22,18.2
X$806 86 93 100 51 99 110 8 7 AOI221_X2
* cell instance $808 m0 *1 28.5,18.2
X$808 119 87 7 8 116 NAND2_X1
* cell instance $809 m0 *1 29.07,18.2
X$809 26 7 8 434 INV_X2
* cell instance $811 m0 *1 29.83,18.2
X$811 47 98 53 7 8 115 MUX2_X1
* cell instance $813 m0 *1 31.35,18.2
X$813 98 108 8 7 106 AND2_X1
* cell instance $815 m0 *1 32.3,18.2
X$815 62 95 7 8 94 NOR2_X1
* cell instance $816 m0 *1 32.87,18.2
X$816 107 87 7 8 96 NOR2_X1
* cell instance $817 m0 *1 33.44,18.2
X$817 107 95 7 8 92 NOR2_X1
* cell instance $818 m0 *1 34.01,18.2
X$818 96 111 112 7 8 81 MUX2_X1
* cell instance $820 m0 *1 35.53,18.2
X$820 59 7 8 107 INV_X2
* cell instance $821 m0 *1 36.1,18.2
X$821 92 111 109 7 8 91 MUX2_X1
* cell instance $822 m0 *1 37.43,18.2
X$822 77 7 8 98 CLKBUF_X3
* cell instance $827 r0 *1 25.84,18.2
X$827 129 106 7 8 105 NAND2_X1
* cell instance $828 r0 *1 26.41,18.2
X$828 135 166 62 7 8 131 NAND3_X1
* cell instance $829 r0 *1 27.17,18.2
X$829 90 7 8 136 INV_X2
* cell instance $830 r0 *1 27.74,18.2
X$830 120 137 7 8 119 NAND2_X1
* cell instance $831 r0 *1 28.31,18.2
X$831 107 131 130 7 112 8 AOI21_X1
* cell instance $832 r0 *1 29.07,18.2
X$832 128 7 8 26 CLKBUF_X3
* cell instance $833 r0 *1 30.02,18.2
X$833 120 121 106 8 122 7 OAI21_X1
* cell instance $834 r0 *1 30.78,18.2
X$834 116 122 95 7 8 130 NAND3_X1
* cell instance $835 r0 *1 31.54,18.2
X$835 98 7 8 87 INV_X2
* cell instance $836 r0 *1 32.11,18.2
X$836 7 98 108 127 123 76 8 NOR4_X4
* cell instance $837 r0 *1 35.53,18.2
X$837 127 7 8 120 INV_X2
* cell instance $838 r0 *1 36.1,18.2
X$838 59 141 8 7 109 AND2_X1
* cell instance $841 r0 *1 37.43,18.2
X$841 108 8 137 7 BUF_X4
* cell instance $844 r0 *1 39.9,18.2
X$844 124 7 8 123 BUF_X2
* cell instance $866 r0 *1 9.88,40.6
X$866 7 447 361 354 223 8 DFF_X1
* cell instance $867 r0 *1 13.11,40.6
X$867 361 201 348 7 8 347 MUX2_X1
* cell instance $868 r0 *1 14.44,40.6
X$868 126 347 8 7 354 AND2_X1
* cell instance $870 r0 *1 15.96,40.6
X$870 126 358 8 7 363 AND2_X1
* cell instance $873 r0 *1 17.86,40.6
X$873 349 201 343 7 8 358 MUX2_X1
* cell instance $874 m0 *1 22.04,40.6
X$874 16 345 341 7 350 8 AOI21_X1
* cell instance $875 m0 *1 18.43,40.6
X$875 7 359 223 469 336 8 DFF_X2
* cell instance $877 m0 *1 22.99,40.6
X$877 16 337 346 7 359 8 AOI21_X1
* cell instance $882 r0 *1 20.9,40.6
X$882 7 350 298 472 340 8 DFF_X2
* cell instance $883 r0 *1 24.51,40.6
X$883 306 360 7 8 341 OR2_X1
* cell instance $884 m0 *1 25.08,40.6
X$884 306 351 7 8 346 OR2_X1
* cell instance $888 m0 *1 26.6,40.6
X$888 16 306 342 7 357 8 AOI21_X1
* cell instance $889 m0 *1 26.22,40.6
X$889 348 7 8 342 INV_X1
* cell instance $892 r0 *1 26.79,40.6
X$892 367 357 8 7 356 AND2_X1
* cell instance $893 r0 *1 27.55,40.6
X$893 7 460 366 356 298 8 DFF_X1
* cell instance $895 m0 *1 29.26,40.6
X$895 344 393 7 8 338 NAND2_X1
* cell instance $897 m0 *1 30.78,40.6
X$897 343 7 8 352 INV_X1
* cell instance $900 m0 *1 32.11,40.6
X$900 335 7 8 353 INV_X1
* cell instance $906 r0 *1 30.78,40.6
X$906 107 306 352 7 365 8 AOI21_X1
* cell instance $909 r0 *1 32.11,40.6
X$909 107 306 353 7 364 8 AOI21_X1
* cell instance $920 m0 *1 34.96,46.2
X$920 404 7 8 408 BUF_X1
* cell instance $935 m0 *1 8.74,35
X$935 7 441 286 300 223 8 DFF_X1
* cell instance $937 m0 *1 11.97,35
X$937 126 301 8 7 300 AND2_X1
* cell instance $941 m0 *1 16.53,35
X$941 259 289 462 8 7 328 HA_X1
* cell instance $942 m0 *1 14.63,35
X$942 259 279 464 8 7 297 HA_X1
* cell instance $944 m0 *1 19.95,35
X$944 282 260 7 8 303 NOR2_X1
* cell instance $945 m0 *1 20.52,35
X$945 192 297 283 7 304 8 AOI21_X1
* cell instance $946 m0 *1 21.28,35
X$946 192 303 293 7 321 8 AOI21_X1
* cell instance $947 m0 *1 22.04,35
X$947 260 293 8 7 305 AND2_X1
* cell instance $948 m0 *1 22.8,35
X$948 192 305 282 7 309 8 AOI21_X1
* cell instance $954 r0 *1 15.96,35
X$954 280 281 216 7 8 318 MUX2_X1
* cell instance $958 r0 *1 18.62,35
X$958 223 7 8 CLKBUF_X1
* cell instance $959 r0 *1 19.19,35
X$959 327 210 326 7 8 292 MUX2_X1
* cell instance $960 r0 *1 20.52,35
X$960 128 7 8 223 CLKBUF_X3
* cell instance $963 r0 *1 22.04,35
X$963 192 305 283 7 322 8 AOI21_X1
* cell instance $964 r0 *1 22.8,35
X$964 7 216 331 316 211 235 280 276 8 AOI222_X2
* cell instance $965 r0 *1 25.46,35
X$965 309 306 280 8 332 7 OAI21_X1
* cell instance $966 m0 *1 26.41,35
X$966 302 192 7 8 310 NOR2_X1
* cell instance $969 r0 *1 26.22,35
X$969 311 7 8 306 BUF_X2
* cell instance $981 r0 *1 10.64,37.8
X$981 7 457 334 325 223 8 DFF_X1
* cell instance $982 m0 *1 13.3,37.8
X$982 126 339 8 7 325 AND2_X1
* cell instance $987 r0 *1 13.87,37.8
X$987 334 201 335 7 8 339 MUX2_X1
* cell instance $990 r0 *1 15.77,37.8
X$990 340 281 335 7 8 317 MUX2_X1
* cell instance $991 m0 *1 16.91,37.8
X$991 317 239 318 7 8 326 MUX2_X1
* cell instance $993 m0 *1 18.24,37.8
X$993 319 239 320 7 8 327 MUX2_X1
* cell instance $995 m0 *1 19.76,37.8
X$995 192 328 282 7 329 8 AOI21_X1
* cell instance $996 m0 *1 20.52,37.8
X$996 192 328 283 7 372 8 AOI21_X1
* cell instance $997 m0 *1 21.28,37.8
X$997 192 297 282 7 331 8 AOI21_X1
* cell instance $999 r0 *1 17.1,37.8
X$999 312 281 348 7 8 319 MUX2_X1
* cell instance $1000 r0 *1 18.43,37.8
X$1000 336 281 343 7 8 320 MUX2_X1
* cell instance $1004 r0 *1 21.85,37.8
X$1004 321 306 340 8 345 7 OAI21_X1
* cell instance $1005 m0 *1 22.61,37.8
X$1005 7 330 298 470 280 8 DFF_X2
* cell instance $1007 m0 *1 26.22,37.8
X$1007 16 332 333 7 330 8 AOI21_X1
* cell instance $1010 r0 *1 22.8,37.8
X$1010 322 306 336 8 337 7 OAI21_X1
* cell instance $1014 m0 *1 27.36,37.8
X$1014 311 355 7 8 333 OR2_X1
* cell instance $1016 m0 *1 28.69,37.8
X$1016 7 324 298 467 312 8 DFF_X2
* cell instance $1023 r0 *1 28.88,37.8
X$1023 107 7 8 16 CLKBUF_X3
* cell instance $1042 r0 *1 1.52,43.4
X$1042 380 7 8 375 BUF_X1
* cell instance $1043 r0 *1 2.09,43.4
X$1043 380 7 8 LOGIC0_X1
* cell instance $1044 r0 *1 2.47,43.4
X$1044 381 7 8 374 BUF_X1
* cell instance $1048 r0 *1 3.04,43.4
X$1048 381 7 8 LOGIC0_X1
* cell instance $1052 r0 *1 8.74,43.4
X$1052 7 458 390 362 223 8 DFF_X1
* cell instance $1053 m0 *1 12.92,43.4
X$1053 126 369 8 7 362 AND2_X1
* cell instance $1054 m0 *1 11.59,43.4
X$1054 390 201 312 7 8 369 MUX2_X1
* cell instance $1056 r0 *1 11.97,43.4
X$1056 7 455 391 382 223 8 DFF_X1
* cell instance $1057 m0 *1 14.25,43.4
X$1057 126 383 8 7 382 AND2_X1
* cell instance $1060 r0 *1 15.2,43.4
X$1060 391 201 340 7 8 383 MUX2_X1
* cell instance $1061 m0 *1 15.58,43.4
X$1061 7 437 349 363 223 8 DFF_X1
* cell instance $1066 r0 *1 16.53,43.4
X$1066 7 456 403 396 223 8 DFF_X1
* cell instance $1067 r0 *1 19.76,43.4
X$1067 280 7 8 399 BUF_X1
* cell instance $1068 r0 *1 20.33,43.4
X$1068 312 7 8 400 BUF_X1
* cell instance $1069 r0 *1 20.9,43.4
X$1069 7 343 304 389 386 235 336 276 8 AOI222_X2
* cell instance $1070 m0 *1 21.66,43.4
X$1070 7 401 235 368 348 372 312 276 8 AOI222_X2
* cell instance $1073 m0 *1 24.51,43.4
X$1073 7 373 235 351 376 344 348 276 8 AOI222_X2
* cell instance $1074 m0 *1 27.17,43.4
X$1074 368 388 296 7 8 367 NAND3_X1
* cell instance $1076 r0 *1 23.56,43.4
X$1076 406 7 8 386 BUF_X1
* cell instance $1078 r0 *1 24.32,43.4
X$1078 387 7 8 211 BUF_X1
* cell instance $1079 r0 *1 24.89,43.4
X$1079 7 402 235 360 392 344 343 276 8 AOI222_X2
* cell instance $1080 r0 *1 27.55,43.4
X$1080 7 377 235 355 378 344 335 276 8 AOI222_X2
* cell instance $1082 m0 *1 28.31,43.4
X$1082 366 7 8 348 BUF_X2
* cell instance $1083 m0 *1 29.83,43.4
X$1083 389 384 296 7 8 371 NAND3_X1
* cell instance $1085 r0 *1 30.21,43.4
X$1085 344 398 7 8 388 NAND2_X1
* cell instance $1086 r0 *1 30.78,43.4
X$1086 7 450 404 385 298 8 DFF_X1
* cell instance $1088 m0 *1 30.97,43.4
X$1088 371 365 8 7 385 AND2_X1
* cell instance $1089 m0 *1 31.92,43.4
X$1089 397 364 8 7 370 AND2_X1
* cell instance $1090 m0 *1 32.68,43.4
X$1090 7 438 379 370 298 8 DFF_X1
* cell instance $1097 r0 *1 34.2,43.4
X$1097 379 7 8 335 BUF_X2
* cell instance $1098 r0 *1 34.96,43.4
X$1098 379 7 8 395 BUF_X1
.ENDS parameterized_i2c_master

* cell AOI221_X2
* pin B1
* pin B2
* pin A
* pin C2
* pin C1
* pin ZN
* pin NWELL,VDD
* pin PWELL,VSS