* CDL Netlist generated by OpenROAD

*.BUSDELIMITER [

.SUBCKT clock_divider clk_in clk_out div_ratio[0] div_ratio[1]
+ div_ratio[2] div_ratio[3] div_ratio[4] div_ratio[5] div_ratio[6]
+ div_ratio[7] duty_cycle[0] duty_cycle[1] duty_cycle[2] duty_cycle[3]
+ duty_cycle[4] duty_cycle[5] duty_cycle[6] duty_cycle[7] rst_n
Xrebuffer49 _0680_ net72 VDD VSS gf180mcu_fd_sc_mcu9t5v0__buf_2
X_0818_ net22 net13 _0686_ VDD VSS gf180mcu_fd_sc_mcu9t5v0__and2_2
X_0819_ net21 net80 _0687_ VDD VSS gf180mcu_fd_sc_mcu9t5v0__and2_2
X_0820_ net22 net80 _0683_ VDD VSS gf180mcu_fd_sc_mcu9t5v0__and2_2
X_0821_ net13 net20 _0692_ VDD VSS gf180mcu_fd_sc_mcu9t5v0__and2_2
X_0822_ net14 net19 _0693_ VDD VSS gf180mcu_fd_sc_mcu9t5v0__and2_2
X_0823_ net13 net21 _0512_ VDD VSS gf180mcu_fd_sc_mcu9t5v0__and2_2
X_0824_ net22 net78 _0513_ VDD VSS gf180mcu_fd_sc_mcu9t5v0__and2_2
X_0825_ net80 net20 _0691_ VDD VSS gf180mcu_fd_sc_mcu9t5v0__and2_2
X_0826_ net13 net19 _0535_ VDD VSS gf180mcu_fd_sc_mcu9t5v0__and2_2
X_0827_ net20 net78 _0536_ VDD VSS gf180mcu_fd_sc_mcu9t5v0__and2_2
X_0828_ net13 net17 _0703_ VDD VSS gf180mcu_fd_sc_mcu9t5v0__and2_2
X_0829_ net14 net16 _0704_ VDD VSS gf180mcu_fd_sc_mcu9t5v0__and2_2
X_0830_ net13 net18 _0539_ VDD VSS gf180mcu_fd_sc_mcu9t5v0__and2_2
X_0831_ net19 net12 _0540_ VDD VSS gf180mcu_fd_sc_mcu9t5v0__and2_2
X_0832_ net11 _0011_ VDD VSS gf180mcu_fd_sc_mcu9t5v0__clkbuf_8
X_0833_ net20 net39 _0541_ VDD VSS gf180mcu_fd_sc_mcu9t5v0__and2_2
X_0834_ net16 net13 _0583_ VDD VSS gf180mcu_fd_sc_mcu9t5v0__and2_4
X_0835_ net12 net17 _0584_ VDD VSS gf180mcu_fd_sc_mcu9t5v0__and2_4
X_0836_ net12 net18 _0561_ VDD VSS gf180mcu_fd_sc_mcu9t5v0__and2_2
X_0837_ net19 _0011_ _0562_ VDD VSS gf180mcu_fd_sc_mcu9t5v0__and2_2
Xrebuffer17 _0099_ net40 VDD VSS gf180mcu_fd_sc_mcu9t5v0__buf_2
X_0839_ net20 net10 _0563_ VDD VSS gf180mcu_fd_sc_mcu9t5v0__and2_2
X_0840_ net21 net34 _0566_ VDD VSS gf180mcu_fd_sc_mcu9t5v0__and2_2
Xrebuffer52 _0230_ net75 VDD VSS gf180mcu_fd_sc_mcu9t5v0__buf_3
X_0842_ net22 net9 _0567_ VDD VSS gf180mcu_fd_sc_mcu9t5v0__and2_2
X_0843_ net12 net16 _0607_ VDD VSS gf180mcu_fd_sc_mcu9t5v0__and2_2
X_0844_ _0011_ net17 _0608_ VDD VSS gf180mcu_fd_sc_mcu9t5v0__and2_2
X_0845_ net18 _0011_ _0586_ VDD VSS gf180mcu_fd_sc_mcu9t5v0__and2_2
X_0846_ net19 net10 _0587_ VDD VSS gf180mcu_fd_sc_mcu9t5v0__and2_2
X_0847_ net20 net9 _0588_ VDD VSS gf180mcu_fd_sc_mcu9t5v0__and2_2
X_0848_ net21 net9 _0591_ VDD VSS gf180mcu_fd_sc_mcu9t5v0__and2_2
X_0849_ net22 net8 _0592_ VDD VSS gf180mcu_fd_sc_mcu9t5v0__and2_2
X_0850_ _0011_ net16 _0631_ VDD VSS gf180mcu_fd_sc_mcu9t5v0__and2_2
X_0851_ net17 net10 _0632_ VDD VSS gf180mcu_fd_sc_mcu9t5v0__and2_2
X_0852_ net18 net10 _0610_ VDD VSS gf180mcu_fd_sc_mcu9t5v0__and2_2
X_0853_ net19 net9 _0611_ VDD VSS gf180mcu_fd_sc_mcu9t5v0__and2_2
X_0854_ net20 net8 _0612_ VDD VSS gf180mcu_fd_sc_mcu9t5v0__and2_2
X_0855_ net21 net8 _0615_ VDD VSS gf180mcu_fd_sc_mcu9t5v0__and2_2
X_0856_ net22 net6 _0616_ VDD VSS gf180mcu_fd_sc_mcu9t5v0__and2_2
X_0857_ net16 net10 _0652_ VDD VSS gf180mcu_fd_sc_mcu9t5v0__and2_2
X_0858_ net17 net9 _0653_ VDD VSS gf180mcu_fd_sc_mcu9t5v0__and2_2
X_0859_ net18 net9 _0636_ VDD VSS gf180mcu_fd_sc_mcu9t5v0__and2_2
X_0860_ net19 net8 _0635_ VDD VSS gf180mcu_fd_sc_mcu9t5v0__and2_2
X_0861_ net20 net6 _0634_ VDD VSS gf180mcu_fd_sc_mcu9t5v0__and2_2
X_0862_ net21 net6 _0713_ VDD VSS gf180mcu_fd_sc_mcu9t5v0__and2_2
X_0863_ net16 net9 _0665_ VDD VSS gf180mcu_fd_sc_mcu9t5v0__and2_2
X_0864_ net17 net8 _0664_ VDD VSS gf180mcu_fd_sc_mcu9t5v0__and2_2
X_0865_ net18 net8 _0715_ VDD VSS gf180mcu_fd_sc_mcu9t5v0__and2_2
X_0866_ net19 net6 _0714_ VDD VSS gf180mcu_fd_sc_mcu9t5v0__and2_2
X_0867_ net15 net9 _0675_ VDD VSS gf180mcu_fd_sc_mcu9t5v0__nand2_2
X_0868_ net15 net8 _0747_ VDD VSS gf180mcu_fd_sc_mcu9t5v0__and2_2
X_0869_ net16 net6 _0746_ VDD VSS gf180mcu_fd_sc_mcu9t5v0__and2_2
X_0870_ _0751_ _0014_ VDD VSS gf180mcu_fd_sc_mcu9t5v0__clkinv_2
X_0871_ _0760_ _0015_ VDD VSS gf180mcu_fd_sc_mcu9t5v0__clkinv_2
X_0872_ _0768_ _0016_ VDD VSS gf180mcu_fd_sc_mcu9t5v0__clkinv_2
X_0873_ _0776_ _0017_ VDD VSS gf180mcu_fd_sc_mcu9t5v0__clkinv_2
X_0874_ _0786_ _0018_ VDD VSS gf180mcu_fd_sc_mcu9t5v0__clkinv_2
X_0875_ _0018_ _0781_ _0019_ VDD VSS gf180mcu_fd_sc_mcu9t5v0__and2_2
X_0876_ _0019_ _0780_ _0777_ _0020_ VDD VSS gf180mcu_fd_sc_mcu9t5v0__oai21_2
X_0877_ _0017_ _0020_ _0021_ VDD VSS gf180mcu_fd_sc_mcu9t5v0__nand2_2
X_0878_ _0021_ _0773_ _0022_ VDD VSS gf180mcu_fd_sc_mcu9t5v0__and2_2
X_0879_ _0022_ _0772_ _0769_ _0023_ VDD VSS gf180mcu_fd_sc_mcu9t5v0__oai21_2
X_0880_ _0016_ _0023_ _0024_ VDD VSS gf180mcu_fd_sc_mcu9t5v0__nand2_2
X_0881_ _0024_ _0765_ _0025_ VDD VSS gf180mcu_fd_sc_mcu9t5v0__and2_2
X_0882_ _0025_ _0764_ _0761_ _0026_ VDD VSS gf180mcu_fd_sc_mcu9t5v0__oai21_2
X_0883_ _0015_ _0026_ _0027_ VDD VSS gf180mcu_fd_sc_mcu9t5v0__nand2_2
X_0884_ _0027_ _0757_ _0028_ VDD VSS gf180mcu_fd_sc_mcu9t5v0__and2_2
X_0885_ _0028_ _0756_ _0752_ _0029_ VDD VSS gf180mcu_fd_sc_mcu9t5v0__oai21_2
X_0886_ _0757_ _0761_ _0765_ _0773_ _0030_ VDD VSS gf180mcu_fd_sc_mcu9t5v0__and4_2
X_0887_ _0752_ _0769_ _0787_ _0031_ VDD VSS gf180mcu_fd_sc_mcu9t5v0__and3_2
X_0888_ _0777_ _0781_ _0030_ _0031_ _0032_ VDD VSS gf180mcu_fd_sc_mcu9t5v0__and4_2
X_0889_ _0793_ _0033_ VDD VSS gf180mcu_fd_sc_mcu9t5v0__clkinv_2
X_0890_ net78 net11 net10 net9 _0034_ VDD VSS gf180mcu_fd_sc_mcu9t5v0__or4_2
X_0891_ net13 net80 _0033_ _0034_ _0035_ VDD VSS gf180mcu_fd_sc_mcu9t5v0__nor4_4
X_0892_ _0014_ _0029_ _0032_ _0035_ _0000_ VDD VSS gf180mcu_fd_sc_mcu9t5v0__aoi211_2
X_0893_ net8 _0792_ VDD VSS gf180mcu_fd_sc_mcu9t5v0__clkinv_2
X_0894_ net6 _0789_ VDD VSS gf180mcu_fd_sc_mcu9t5v0__clkinv_2
X_0895_ _0792_ _0789_ _0036_ VDD VSS gf180mcu_fd_sc_mcu9t5v0__nand2_2
X_0896_ net9 _0036_ _0037_ VDD VSS gf180mcu_fd_sc_mcu9t5v0__or2_2
X_0897_ net35 _0037_ _0797_ VDD VSS gf180mcu_fd_sc_mcu9t5v0__xor2_2
X_0898_ net9 _0793_ _0800_ VDD VSS gf180mcu_fd_sc_mcu9t5v0__xnor2_2
X_0899_ net13 _0034_ _0036_ _0038_ VDD VSS gf180mcu_fd_sc_mcu9t5v0__or3_2
X_0900_ net80 _0038_ _0803_ VDD VSS gf180mcu_fd_sc_mcu9t5v0__xor2_2
X_0901_ _0033_ _0034_ _0039_ VDD VSS gf180mcu_fd_sc_mcu9t5v0__nor2_2
X_0902_ net13 _0039_ _0806_ VDD VSS gf180mcu_fd_sc_mcu9t5v0__xnor2_2
X_0903_ net39 net10 net9 _0036_ _0040_ VDD VSS gf180mcu_fd_sc_mcu9t5v0__or4_2
X_0904_ net78 _0040_ _0809_ VDD VSS gf180mcu_fd_sc_mcu9t5v0__xor2_2
X_0905_ net35 net9 _0033_ _0041_ VDD VSS gf180mcu_fd_sc_mcu9t5v0__or3_2
X_0906_ net39 _0041_ _0812_ VDD VSS gf180mcu_fd_sc_mcu9t5v0__xor2_2
X_0907_ counter\[8\] _0749_ VDD VSS gf180mcu_fd_sc_mcu9t5v0__clkinv_2
X_0908_ counter\[0\] _0788_ VDD VSS gf180mcu_fd_sc_mcu9t5v0__clkinv_2
X_0909_ _0807_ _0042_ VDD VSS gf180mcu_fd_sc_mcu9t5v0__clkinv_2
X_0910_ _0813_ _0043_ VDD VSS gf180mcu_fd_sc_mcu9t5v0__clkinv_2
X_0911_ _0801_ _0044_ VDD VSS gf180mcu_fd_sc_mcu9t5v0__clkinv_2
X_0912_ _0791_ _0045_ VDD VSS gf180mcu_fd_sc_mcu9t5v0__clkinv_2
X_0913_ _0045_ _0790_ _0046_ VDD VSS gf180mcu_fd_sc_mcu9t5v0__nand2_2
X_0914_ _0796_ _0046_ _0047_ VDD VSS gf180mcu_fd_sc_mcu9t5v0__and2_2
X_0915_ _0795_ _0047_ _0802_ _0048_ VDD VSS gf180mcu_fd_sc_mcu9t5v0__oai21_2
X_0916_ _0044_ _0048_ _0049_ VDD VSS gf180mcu_fd_sc_mcu9t5v0__nand2_2
X_0917_ _0799_ _0049_ _0050_ VDD VSS gf180mcu_fd_sc_mcu9t5v0__and2_2
X_0918_ _0798_ _0050_ _0814_ _0051_ VDD VSS gf180mcu_fd_sc_mcu9t5v0__oai21_2
X_0919_ _0043_ _0051_ _0052_ VDD VSS gf180mcu_fd_sc_mcu9t5v0__nand2_2
X_0920_ _0811_ _0052_ _0053_ VDD VSS gf180mcu_fd_sc_mcu9t5v0__and2_2
X_0921_ _0810_ _0053_ _0808_ _0054_ VDD VSS gf180mcu_fd_sc_mcu9t5v0__oai21_2
X_0922_ _0042_ _0054_ _0055_ VDD VSS gf180mcu_fd_sc_mcu9t5v0__nand2_2
X_0923_ _0805_ _0055_ _0804_ counter\[8\] _0056_ VDD VSS gf180mcu_fd_sc_mcu9t5v0__aoi211_2
X_0924_ _0035_ _0056_ _0057_ VDD VSS gf180mcu_fd_sc_mcu9t5v0__nor2_2
X_0925_ _0057_ _0058_ VDD VSS gf180mcu_fd_sc_mcu9t5v0__clkinv_4
X_0926_ _0788_ _0058_ _0001_ VDD VSS gf180mcu_fd_sc_mcu9t5v0__and2_2
X_0927_ _0816_ _0058_ _0002_ VDD VSS gf180mcu_fd_sc_mcu9t5v0__and2_2
X_0928_ counter\[2\] _0774_ VDD VSS gf180mcu_fd_sc_mcu9t5v0__clkinv_2
X_0929_ _0815_ counter\[2\] _0059_ VDD VSS gf180mcu_fd_sc_mcu9t5v0__xor2_2
X_0930_ _0058_ _0059_ _0003_ VDD VSS gf180mcu_fd_sc_mcu9t5v0__and2_2
X_0931_ counter\[3\] _0770_ VDD VSS gf180mcu_fd_sc_mcu9t5v0__clkinv_2
X_0932_ counter\[0\] counter\[2\] counter\[1\] _0060_ VDD
+ VSS gf180mcu_fd_sc_mcu9t5v0__and3_2
X_0933_ _0770_ _0060_ _0061_ VDD VSS gf180mcu_fd_sc_mcu9t5v0__xnor2_2
X_0934_ _0058_ _0061_ _0004_ VDD VSS gf180mcu_fd_sc_mcu9t5v0__and2_2
X_0935_ counter\[4\] _0766_ VDD VSS gf180mcu_fd_sc_mcu9t5v0__clkinv_2
X_0936_ _0815_ counter\[2\] counter\[3\] _0062_ VDD VSS gf180mcu_fd_sc_mcu9t5v0__and3_2
X_0937_ _0766_ _0062_ _0063_ VDD VSS gf180mcu_fd_sc_mcu9t5v0__xnor2_2
X_0938_ _0058_ _0063_ _0005_ VDD VSS gf180mcu_fd_sc_mcu9t5v0__and2_2
X_0939_ counter\[5\] _0762_ VDD VSS gf180mcu_fd_sc_mcu9t5v0__clkinv_2
X_0940_ counter\[0\] counter\[2\] counter\[1\] counter\[3\]
+ _0064_ VDD VSS gf180mcu_fd_sc_mcu9t5v0__and4_2
X_0941_ counter\[4\] _0064_ _0065_ VDD VSS gf180mcu_fd_sc_mcu9t5v0__and2_2
X_0942_ _0762_ _0065_ _0066_ VDD VSS gf180mcu_fd_sc_mcu9t5v0__xnor2_2
X_0943_ _0058_ _0066_ _0006_ VDD VSS gf180mcu_fd_sc_mcu9t5v0__and2_2
X_0944_ counter\[6\] _0758_ VDD VSS gf180mcu_fd_sc_mcu9t5v0__clkinv_2
X_0945_ counter\[4\] counter\[5\] _0062_ _0067_ VDD VSS gf180mcu_fd_sc_mcu9t5v0__and3_2
X_0946_ _0758_ _0067_ _0068_ VDD VSS gf180mcu_fd_sc_mcu9t5v0__xnor2_2
X_0947_ _0058_ _0068_ _0007_ VDD VSS gf180mcu_fd_sc_mcu9t5v0__and2_2
X_0948_ counter\[7\] _0754_ VDD VSS gf180mcu_fd_sc_mcu9t5v0__clkinv_2
X_0949_ counter\[5\] counter\[6\] _0065_ _0069_ VDD VSS gf180mcu_fd_sc_mcu9t5v0__and3_2
X_0950_ _0754_ _0069_ _0070_ VDD VSS gf180mcu_fd_sc_mcu9t5v0__xnor2_2
X_0951_ _0058_ _0070_ _0008_ VDD VSS gf180mcu_fd_sc_mcu9t5v0__and2_2
X_0952_ counter\[6\] counter\[7\] _0067_ _0071_ VDD VSS gf180mcu_fd_sc_mcu9t5v0__and3_2
X_0953_ _0749_ _0071_ _0072_ VDD VSS gf180mcu_fd_sc_mcu9t5v0__xnor2_2
X_0954_ _0058_ _0072_ _0009_ VDD VSS gf180mcu_fd_sc_mcu9t5v0__and2_2
X_0955_ _0537_ _0523_ VDD VSS gf180mcu_fd_sc_mcu9t5v0__clkinv_2
X_0956_ _0542_ _0544_ VDD VSS gf180mcu_fd_sc_mcu9t5v0__clkinv_2
X_0957_ _0553_ _0549_ VDD VSS gf180mcu_fd_sc_mcu9t5v0__clkinv_2
X_0958_ _0556_ _0570_ VDD VSS gf180mcu_fd_sc_mcu9t5v0__clkinv_2
X_0959_ _0716_ _0660_ VDD VSS gf180mcu_fd_sc_mcu9t5v0__clkinv_2
X_0960_ net18 net6 _0669_ VDD VSS gf180mcu_fd_sc_mcu9t5v0__nand2_2
X_0961_ net17 net6 _0673_ VDD VSS gf180mcu_fd_sc_mcu9t5v0__nand2_2
X_0962_ _0522_ _0517_ VDD VSS gf180mcu_fd_sc_mcu9t5v0__clkinv_2
X_0963_ net21 net78 _0524_ VDD VSS gf180mcu_fd_sc_mcu9t5v0__nand2_2
X_0964_ _0533_ _0529_ VDD VSS gf180mcu_fd_sc_mcu9t5v0__clkinv_2
X_0965_ net21 net38 _0545_ VDD VSS gf180mcu_fd_sc_mcu9t5v0__nand2_2
X_0966_ net16 net8 _0674_ VDD VSS gf180mcu_fd_sc_mcu9t5v0__nand2_2
X_0967_ _0514_ _0518_ VDD VSS gf180mcu_fd_sc_mcu9t5v0__clkinv_2
X_0968_ net22 net38 _0525_ VDD VSS gf180mcu_fd_sc_mcu9t5v0__nand2_2
X_0969_ net22 net34 _0546_ VDD VSS gf180mcu_fd_sc_mcu9t5v0__nand2_2
X_0970_ _0548_ _0555_ VDD VSS gf180mcu_fd_sc_mcu9t5v0__clkinv_2
X_0971_ _0568_ _0572_ VDD VSS gf180mcu_fd_sc_mcu9t5v0__clkinv_2
X_0972_ _0593_ _0596_ VDD VSS gf180mcu_fd_sc_mcu9t5v0__clkinv_2
X_0973_ _0617_ _0620_ VDD VSS gf180mcu_fd_sc_mcu9t5v0__clkinv_2
X_0974_ _0560_ _0575_ VDD VSS gf180mcu_fd_sc_mcu9t5v0__clkinv_2
X_0975_ _0581_ _0599_ VDD VSS gf180mcu_fd_sc_mcu9t5v0__clkinv_2
X_0976_ _0585_ _0603_ VDD VSS gf180mcu_fd_sc_mcu9t5v0__clkinv_2
X_0977_ _0605_ _0623_ VDD VSS gf180mcu_fd_sc_mcu9t5v0__clkinv_2
X_0978_ _0609_ _0627_ VDD VSS gf180mcu_fd_sc_mcu9t5v0__clkinv_2
X_0979_ _0626_ _0639_ VDD VSS gf180mcu_fd_sc_mcu9t5v0__clkinv_2
X_0980_ _0629_ _0644_ VDD VSS gf180mcu_fd_sc_mcu9t5v0__clkinv_2
X_0981_ _0633_ _0648_ VDD VSS gf180mcu_fd_sc_mcu9t5v0__clkinv_2
X_0982_ _0643_ _0721_ VDD VSS gf180mcu_fd_sc_mcu9t5v0__clkinv_2
X_0983_ _0647_ _0724_ VDD VSS gf180mcu_fd_sc_mcu9t5v0__clkinv_2
X_0984_ _0650_ _0657_ VDD VSS gf180mcu_fd_sc_mcu9t5v0__clkinv_2
X_0985_ _0659_ _0728_ VDD VSS gf180mcu_fd_sc_mcu9t5v0__clkinv_2
X_0986_ _0559_ _0554_ VDD VSS gf180mcu_fd_sc_mcu9t5v0__clkinv_2
X_0987_ _0577_ _0571_ VDD VSS gf180mcu_fd_sc_mcu9t5v0__clkinv_2
X_0988_ _0601_ _0595_ VDD VSS gf180mcu_fd_sc_mcu9t5v0__clkinv_2
X_0989_ _0625_ _0619_ VDD VSS gf180mcu_fd_sc_mcu9t5v0__clkinv_2
X_0990_ _0667_ _0661_ VDD VSS gf180mcu_fd_sc_mcu9t5v0__clkinv_2
X_0991_ net14 net18 _0534_ VDD VSS gf180mcu_fd_sc_mcu9t5v0__and2_2
X_0992_ _0520_ _0695_ VDD VSS gf180mcu_fd_sc_mcu9t5v0__clkinv_2
X_0993_ net14 net17 _0557_ VDD VSS gf180mcu_fd_sc_mcu9t5v0__and2_2
X_0994_ _0531_ _0699_ VDD VSS gf180mcu_fd_sc_mcu9t5v0__clkinv_2
X_0995_ net14 net15 _0582_ VDD VSS gf180mcu_fd_sc_mcu9t5v0__and2_2
X_0996_ _0552_ _0705_ VDD VSS gf180mcu_fd_sc_mcu9t5v0__clkinv_2
X_0997_ net13 net15 _0606_ VDD VSS gf180mcu_fd_sc_mcu9t5v0__and2_2
X_0998_ _0574_ _0709_ VDD VSS gf180mcu_fd_sc_mcu9t5v0__clkinv_2
X_0999_ net12 net15 _0630_ VDD VSS gf180mcu_fd_sc_mcu9t5v0__and2_2
X_1000_ net39 net15 _0651_ VDD VSS gf180mcu_fd_sc_mcu9t5v0__and2_2
X_1001_ _0662_ _0656_ VDD VSS gf180mcu_fd_sc_mcu9t5v0__clkinv_2
X_1002_ _0622_ _0717_ VDD VSS gf180mcu_fd_sc_mcu9t5v0__clkinv_2
X_1003_ _0671_ _0730_ VDD VSS gf180mcu_fd_sc_mcu9t5v0__clkinv_2
X_1004_ _0598_ _0733_ VDD VSS gf180mcu_fd_sc_mcu9t5v0__clkinv_2
X_1005_ counter\[1\] _0778_ VDD VSS gf180mcu_fd_sc_mcu9t5v0__clkinv_2
X_1006_ _0519_ _0688_ VDD VSS gf180mcu_fd_sc_mcu9t5v0__clkinv_2
X_1007_ _0530_ _0696_ VDD VSS gf180mcu_fd_sc_mcu9t5v0__clkinv_2
X_1008_ _0551_ _0700_ VDD VSS gf180mcu_fd_sc_mcu9t5v0__clkinv_2
X_1009_ _0573_ _0706_ VDD VSS gf180mcu_fd_sc_mcu9t5v0__clkinv_2
X_1010_ _0597_ _0710_ VDD VSS gf180mcu_fd_sc_mcu9t5v0__clkinv_2
X_1011_ net10 net15 _0666_ VDD VSS gf180mcu_fd_sc_mcu9t5v0__and2_2
X_1012_ _0663_ _0731_ VDD VSS gf180mcu_fd_sc_mcu9t5v0__clkinv_2
X_1013_ _0621_ _0734_ VDD VSS gf180mcu_fd_sc_mcu9t5v0__clkinv_2
X_1014_ _0672_ _0740_ VDD VSS gf180mcu_fd_sc_mcu9t5v0__clkinv_2
X_1015_ _0676_ _0744_ VDD VSS gf180mcu_fd_sc_mcu9t5v0__clkinv_2
X_1016_ _0702_ _0707_ _0701_ _0073_ VDD VSS gf180mcu_fd_sc_mcu9t5v0__aoi21_4
X_1017_ _0690_ _0698_ _0074_ VDD VSS gf180mcu_fd_sc_mcu9t5v0__nand2_2
X_1018_ _0690_ _0697_ _0689_ _0075_ VDD VSS gf180mcu_fd_sc_mcu9t5v0__aoi21_2
X_1019_ _0073_ _0074_ _0075_ _0076_ VDD VSS gf180mcu_fd_sc_mcu9t5v0__oai21_4
X_1020_ _0684_ _0076_ _0077_ VDD VSS gf180mcu_fd_sc_mcu9t5v0__and2_2
X_1021_ _0712_ _0736_ _0078_ VDD VSS gf180mcu_fd_sc_mcu9t5v0__nand2_2
X_1022_ _0723_ _0680_ _0718_ _0722_ _0079_ VDD VSS gf180mcu_fd_sc_mcu9t5v0__aoi211_4
X_1023_ _0719_ _0718_ _0080_ VDD VSS gf180mcu_fd_sc_mcu9t5v0__nor2_2
X_1024_ _0712_ _0735_ _0711_ _0081_ VDD VSS gf180mcu_fd_sc_mcu9t5v0__aoi21_2
X_1025_ _0079_ _0078_ _0080_ _0081_ _0082_ VDD VSS gf180mcu_fd_sc_mcu9t5v0__oai31_4
X_1026_ _0690_ _0702_ _0698_ _0708_ _0083_ VDD VSS gf180mcu_fd_sc_mcu9t5v0__and4_4
X_1027_ _0684_ net27 net76 _0084_ VDD VSS gf180mcu_fd_sc_mcu9t5v0__and3_4
X_1028_ net76 net27 _0684_ _0076_ _0085_ VDD VSS gf180mcu_fd_sc_mcu9t5v0__aoi211_4
X_1029_ _0085_ _0084_ _0077_ _0086_ VDD VSS gf180mcu_fd_sc_mcu9t5v0__nor3_4
X_1030_ _0086_ _0087_ VDD VSS gf180mcu_fd_sc_mcu9t5v0__clkbuf_8
X_1031_ _0702_ _0708_ _0088_ VDD VSS gf180mcu_fd_sc_mcu9t5v0__nand2_2
X_1032_ _0698_ _0088_ _0089_ VDD VSS gf180mcu_fd_sc_mcu9t5v0__nor2_2
X_1033_ _0082_ _0089_ _0090_ VDD VSS gf180mcu_fd_sc_mcu9t5v0__and2_2
X_1034_ _0698_ _0073_ _0091_ VDD VSS gf180mcu_fd_sc_mcu9t5v0__nand2_2
X_1035_ _0701_ _0092_ VDD VSS gf180mcu_fd_sc_mcu9t5v0__clkinv_2
X_1036_ _0708_ _0707_ _0702_ _0093_ VDD VSS gf180mcu_fd_sc_mcu9t5v0__oai21_2
X_1037_ _0698_ _0092_ _0093_ _0094_ VDD VSS gf180mcu_fd_sc_mcu9t5v0__nand3_2
X_1038_ _0698_ _0073_ _0095_ VDD VSS gf180mcu_fd_sc_mcu9t5v0__or2_2
X_1039_ net27 _0091_ _0094_ _0095_ _0096_ VDD VSS gf180mcu_fd_sc_mcu9t5v0__oai211_4
X_1040_ _0708_ _0711_ _0707_ _0097_ VDD VSS gf180mcu_fd_sc_mcu9t5v0__aoi21_2
X_1041_ _0702_ _0097_ _0098_ VDD VSS gf180mcu_fd_sc_mcu9t5v0__xnor2_2
X_1042_ _0708_ _0082_ _0099_ VDD VSS gf180mcu_fd_sc_mcu9t5v0__xor2_2
X_1043_ _0090_ _0096_ _0099_ _0098_ _0100_ VDD VSS gf180mcu_fd_sc_mcu9t5v0__oai211_4
X_1044_ _0736_ _0101_ VDD VSS gf180mcu_fd_sc_mcu9t5v0__clkinv_2
X_1045_ _0101_ _0079_ _0080_ _0102_ VDD VSS gf180mcu_fd_sc_mcu9t5v0__or3_2
X_1046_ _0079_ _0080_ _0101_ _0103_ VDD VSS gf180mcu_fd_sc_mcu9t5v0__oai21_2
X_1047_ _0102_ _0103_ _0104_ VDD VSS gf180mcu_fd_sc_mcu9t5v0__and2_2
X_1048_ net73 _0726_ _0722_ _0725_ _0105_ VDD VSS gf180mcu_fd_sc_mcu9t5v0__aoi211_4
X_1049_ net55 net70 _0719_ _0106_ VDD VSS gf180mcu_fd_sc_mcu9t5v0__oai21_4
X_1050_ _0105_ _0106_ _0107_ VDD VSS gf180mcu_fd_sc_mcu9t5v0__or2_2
X_1051_ _0723_ net69 _0108_ VDD VSS gf180mcu_fd_sc_mcu9t5v0__nor2_2
X_1052_ _0719_ _0109_ VDD VSS gf180mcu_fd_sc_mcu9t5v0__clkinv_2
X_1053_ _0105_ _0108_ _0109_ _0110_ VDD VSS gf180mcu_fd_sc_mcu9t5v0__oai21_4
X_1054_ _0107_ _0110_ _0111_ VDD VSS gf180mcu_fd_sc_mcu9t5v0__and2_4
X_1055_ net74 _0726_ _0725_ _0112_ VDD VSS gf180mcu_fd_sc_mcu9t5v0__aoi21_2
X_1056_ _0719_ net79 _0736_ _0113_ VDD VSS gf180mcu_fd_sc_mcu9t5v0__nand3_4
X_1057_ _0113_ _0112_ _0114_ VDD VSS gf180mcu_fd_sc_mcu9t5v0__or2_4
X_1058_ _0712_ _0735_ _0115_ VDD VSS gf180mcu_fd_sc_mcu9t5v0__nor2_2
X_1059_ _0719_ net69 _0718_ _0116_ VDD VSS gf180mcu_fd_sc_mcu9t5v0__aoi21_2
X_1060_ _0115_ _0116_ _0117_ VDD VSS gf180mcu_fd_sc_mcu9t5v0__and2_2
X_1061_ _0718_ _0118_ VDD VSS gf180mcu_fd_sc_mcu9t5v0__clkinv_2
X_1062_ _0105_ _0106_ _0118_ _0119_ VDD VSS gf180mcu_fd_sc_mcu9t5v0__oai21_2
X_1063_ _0078_ _0120_ VDD VSS gf180mcu_fd_sc_mcu9t5v0__clkinv_2
X_1064_ _0712_ _0735_ _0121_ VDD VSS gf180mcu_fd_sc_mcu9t5v0__nand2_2
X_1065_ _0712_ _0736_ _0735_ _0122_ VDD VSS gf180mcu_fd_sc_mcu9t5v0__or3_2
X_1066_ _0121_ _0122_ _0123_ VDD VSS gf180mcu_fd_sc_mcu9t5v0__nand2_2
X_1067_ _0114_ _0117_ _0119_ _0120_ _0123_ _0124_ VDD VSS
+ gf180mcu_fd_sc_mcu9t5v0__aoi221_4
X_1068_ _0104_ _0111_ _0124_ _0125_ VDD VSS gf180mcu_fd_sc_mcu9t5v0__nand3_4
X_1069_ _0719_ net69 _0735_ _0718_ _0126_ VDD VSS gf180mcu_fd_sc_mcu9t5v0__aoi211_2
X_1070_ _0736_ _0735_ _0127_ VDD VSS gf180mcu_fd_sc_mcu9t5v0__nor2_2
X_1071_ _0126_ _0127_ _0128_ VDD VSS gf180mcu_fd_sc_mcu9t5v0__or2_2
X_1072_ _0712_ _0698_ _0129_ VDD VSS gf180mcu_fd_sc_mcu9t5v0__nand2_2
X_1073_ _0128_ _0114_ _0129_ _0088_ _0130_ VDD VSS gf180mcu_fd_sc_mcu9t5v0__aoi211_4
X_1074_ _0702_ _0698_ _0131_ VDD VSS gf180mcu_fd_sc_mcu9t5v0__nand2_2
X_1075_ _0698_ _0701_ _0697_ _0132_ VDD VSS gf180mcu_fd_sc_mcu9t5v0__aoi21_2
X_1076_ _0097_ _0131_ _0132_ _0133_ VDD VSS gf180mcu_fd_sc_mcu9t5v0__oai21_2
X_1077_ _0690_ _0133_ _0134_ VDD VSS gf180mcu_fd_sc_mcu9t5v0__or2_2
X_1078_ _0712_ _0736_ _0083_ _0135_ VDD VSS gf180mcu_fd_sc_mcu9t5v0__and3_2
X_1079_ _0105_ _0106_ _0136_ VDD VSS gf180mcu_fd_sc_mcu9t5v0__nor2_2
X_1080_ _0712_ _0137_ VDD VSS gf180mcu_fd_sc_mcu9t5v0__clkinv_2
X_1081_ _0736_ _0718_ _0735_ _0138_ VDD VSS gf180mcu_fd_sc_mcu9t5v0__aoi21_2
X_1082_ _0137_ _0138_ _0139_ VDD VSS gf180mcu_fd_sc_mcu9t5v0__nor2_2
X_1083_ _0690_ _0133_ _0135_ _0136_ _0139_ _0083_ _0140_ VDD
+ VSS gf180mcu_fd_sc_mcu9t5v0__aoi222_4
X_1084_ _0130_ _0134_ _0140_ _0141_ VDD VSS gf180mcu_fd_sc_mcu9t5v0__oai21_4
X_1085_ _0125_ net63 _0141_ _0142_ VDD VSS gf180mcu_fd_sc_mcu9t5v0__nor3_4
X_1086_ net49 _0142_ _0750_ VDD VSS gf180mcu_fd_sc_mcu9t5v0__and2_2
X_1087_ net56 _0680_ _0143_ VDD VSS gf180mcu_fd_sc_mcu9t5v0__xor2_4
X_1088_ _0142_ _0143_ net49 _0144_ VDD VSS gf180mcu_fd_sc_mcu9t5v0__aoi21_2
X_1089_ _0750_ _0144_ _0755_ VDD VSS gf180mcu_fd_sc_mcu9t5v0__nor2_2
X_1090_ _0100_ _0145_ VDD VSS gf180mcu_fd_sc_mcu9t5v0__clkbuf_8
X_1091_ _0141_ _0146_ VDD VSS gf180mcu_fd_sc_mcu9t5v0__clkbuf_8
X_1092_ _0684_ _0147_ VDD VSS gf180mcu_fd_sc_mcu9t5v0__clkinv_2
X_1093_ net72 net79 _0148_ VDD VSS gf180mcu_fd_sc_mcu9t5v0__xnor2_4
X_1094_ _0148_ _0147_ _0149_ VDD VSS gf180mcu_fd_sc_mcu9t5v0__nand2_2
X_1095_ net28 net77 _0149_ _0076_ _0150_ VDD VSS gf180mcu_fd_sc_mcu9t5v0__aoi211_2
X_1096_ _0684_ _0076_ _0148_ _0151_ VDD VSS gf180mcu_fd_sc_mcu9t5v0__and3_2
X_1097_ _0684_ net28 net76 _0148_ _0152_ VDD VSS gf180mcu_fd_sc_mcu9t5v0__and4_4
X_1098_ _0151_ _0150_ _0152_ _0153_ VDD VSS gf180mcu_fd_sc_mcu9t5v0__or3_4
X_1099_ _0153_ _0125_ _0145_ _0146_ _0154_ VDD VSS gf180mcu_fd_sc_mcu9t5v0__or4_4
X_1100_ _0077_ _0084_ _0085_ _0155_ VDD VSS gf180mcu_fd_sc_mcu9t5v0__or3_4
X_1101_ _0090_ _0096_ _0156_ VDD VSS gf180mcu_fd_sc_mcu9t5v0__nor2_2
X_1102_ _0112_ _0113_ _0116_ _0115_ _0157_ VDD VSS gf180mcu_fd_sc_mcu9t5v0__oai211_2
X_1103_ _0121_ _0122_ _0158_ VDD VSS gf180mcu_fd_sc_mcu9t5v0__and2_2
X_1104_ _0157_ _0158_ _0159_ VDD VSS gf180mcu_fd_sc_mcu9t5v0__and2_2
X_1105_ _0736_ _0116_ _0160_ VDD VSS gf180mcu_fd_sc_mcu9t5v0__xnor2_2
X_1106_ _0107_ _0110_ _0143_ _0160_ _0161_ VDD VSS gf180mcu_fd_sc_mcu9t5v0__and4_4
X_1107_ _0098_ net40 _0159_ _0161_ _0162_ VDD VSS gf180mcu_fd_sc_mcu9t5v0__nand4_2
X_1108_ _0155_ _0156_ _0162_ net57 _0163_ VDD VSS gf180mcu_fd_sc_mcu9t5v0__oai31_4
X_1109_ _0154_ _0163_ _0164_ VDD VSS gf180mcu_fd_sc_mcu9t5v0__nand2_4
X_1110_ _0681_ _0165_ VDD VSS gf180mcu_fd_sc_mcu9t5v0__buf_4
X_1111_ _0155_ _0143_ _0166_ VDD VSS gf180mcu_fd_sc_mcu9t5v0__nand2_2
X_1112_ _0077_ _0084_ _0085_ _0148_ _0167_ VDD VSS gf180mcu_fd_sc_mcu9t5v0__or4_4
X_1113_ net2 _0125_ _0146_ _0167_ _0168_ VDD VSS gf180mcu_fd_sc_mcu9t5v0__or4_2
X_1114_ _0077_ _0084_ _0085_ _0143_ _0169_ VDD VSS gf180mcu_fd_sc_mcu9t5v0__nor4_2
X_1115_ _0145_ _0125_ _0146_ _0169_ _0170_ VDD VSS gf180mcu_fd_sc_mcu9t5v0__oai31_2
X_1116_ _0142_ _0166_ _0170_ _0168_ _0171_ VDD VSS gf180mcu_fd_sc_mcu9t5v0__oai211_4
X_1117_ _0165_ _0171_ _0172_ VDD VSS gf180mcu_fd_sc_mcu9t5v0__nand2_4
X_1118_ _0124_ _0143_ _0173_ VDD VSS gf180mcu_fd_sc_mcu9t5v0__nand2_2
X_1119_ _0087_ _0145_ _0146_ _0173_ _0174_ VDD VSS gf180mcu_fd_sc_mcu9t5v0__or4_2
X_1120_ _0111_ _0124_ _0175_ VDD VSS gf180mcu_fd_sc_mcu9t5v0__nand2_2
X_1121_ _0155_ _0145_ _0146_ _0175_ _0176_ VDD VSS gf180mcu_fd_sc_mcu9t5v0__or4_2
X_1122_ _0107_ _0110_ _0143_ _0177_ VDD VSS gf180mcu_fd_sc_mcu9t5v0__nand3_2
X_1123_ _0077_ _0084_ _0085_ _0177_ _0178_ VDD VSS gf180mcu_fd_sc_mcu9t5v0__or4_2
X_1124_ _0107_ _0110_ _0179_ VDD VSS gf180mcu_fd_sc_mcu9t5v0__nand2_4
X_1125_ _0077_ _0084_ _0085_ _0179_ _0180_ VDD VSS gf180mcu_fd_sc_mcu9t5v0__oai31_2
X_1126_ _0179_ _0148_ _0181_ VDD VSS gf180mcu_fd_sc_mcu9t5v0__nand2_2
X_1127_ _0104_ _0178_ _0180_ _0181_ _0182_ VDD VSS gf180mcu_fd_sc_mcu9t5v0__and4_2
X_1128_ _0174_ _0176_ _0182_ _0183_ VDD VSS gf180mcu_fd_sc_mcu9t5v0__nand3_4
X_1129_ _0104_ _0111_ _0184_ VDD VSS gf180mcu_fd_sc_mcu9t5v0__nand2_2
X_1130_ _0145_ _0184_ _0141_ _0153_ _0185_ VDD VSS gf180mcu_fd_sc_mcu9t5v0__or4_4
X_1131_ _0120_ _0119_ _0186_ VDD VSS gf180mcu_fd_sc_mcu9t5v0__nand2_2
X_1132_ _0159_ _0186_ _0187_ VDD VSS gf180mcu_fd_sc_mcu9t5v0__nand2_4
X_1133_ net49 _0161_ _0187_ _0188_ VDD VSS gf180mcu_fd_sc_mcu9t5v0__aoi21_4
X_1134_ _0087_ _0187_ _0161_ _0189_ VDD VSS gf180mcu_fd_sc_mcu9t5v0__and3_2
X_1135_ _0185_ _0188_ _0189_ _0190_ VDD VSS gf180mcu_fd_sc_mcu9t5v0__aoi21_4
X_1136_ _0153_ _0125_ _0141_ net62 _0191_ VDD VSS gf180mcu_fd_sc_mcu9t5v0__nor4_4
X_1137_ _0090_ _0096_ _0192_ VDD VSS gf180mcu_fd_sc_mcu9t5v0__or2_2
X_1138_ _0098_ net40 _0159_ _0161_ _0193_ VDD VSS gf180mcu_fd_sc_mcu9t5v0__and4_2
X_1139_ _0087_ _0192_ _0193_ _0194_ VDD VSS gf180mcu_fd_sc_mcu9t5v0__and3_2
X_1140_ _0087_ _0193_ _0192_ _0195_ VDD VSS gf180mcu_fd_sc_mcu9t5v0__aoi21_2
X_1141_ net31 _0194_ _0195_ _0196_ VDD VSS gf180mcu_fd_sc_mcu9t5v0__or3_4
X_1142_ _0196_ _0190_ _0183_ _0197_ VDD VSS gf180mcu_fd_sc_mcu9t5v0__or3_4
X_1143_ _0707_ _0198_ VDD VSS gf180mcu_fd_sc_mcu9t5v0__clkinv_2
X_1144_ _0114_ _0128_ _0137_ _0199_ VDD VSS gf180mcu_fd_sc_mcu9t5v0__aoi21_2
X_1145_ _0711_ _0199_ _0708_ _0200_ VDD VSS gf180mcu_fd_sc_mcu9t5v0__oai21_2
X_1146_ _0702_ _0201_ VDD VSS gf180mcu_fd_sc_mcu9t5v0__clkinv_2
X_1147_ _0198_ _0200_ _0201_ _0202_ VDD VSS gf180mcu_fd_sc_mcu9t5v0__aoi21_2
X_1148_ _0201_ _0198_ _0200_ _0203_ VDD VSS gf180mcu_fd_sc_mcu9t5v0__and3_2
X_1149_ net40 _0159_ _0161_ _0204_ VDD VSS gf180mcu_fd_sc_mcu9t5v0__and3_2
X_1150_ _0087_ _0204_ _0205_ VDD VSS gf180mcu_fd_sc_mcu9t5v0__nand2_2
X_1151_ _0202_ _0203_ _0142_ _0205_ _0206_ VDD VSS gf180mcu_fd_sc_mcu9t5v0__oai22_4
X_1152_ _0086_ _0204_ _0207_ VDD VSS gf180mcu_fd_sc_mcu9t5v0__and2_2
X_1153_ _0159_ _0161_ _0208_ VDD VSS gf180mcu_fd_sc_mcu9t5v0__and2_2
X_1154_ _0086_ _0208_ net40 _0209_ VDD VSS gf180mcu_fd_sc_mcu9t5v0__aoi21_2
X_1155_ _0207_ _0191_ _0209_ _0210_ VDD VSS gf180mcu_fd_sc_mcu9t5v0__nor3_4
X_1156_ _0206_ net25 _0211_ VDD VSS gf180mcu_fd_sc_mcu9t5v0__nand2_4
X_1157_ _0172_ _0197_ _0211_ _0212_ VDD VSS gf180mcu_fd_sc_mcu9t5v0__or3_2
X_1158_ _0164_ _0212_ _0759_ VDD VSS gf180mcu_fd_sc_mcu9t5v0__nand2_2
X_1159_ _0163_ _0154_ _0213_ VDD VSS gf180mcu_fd_sc_mcu9t5v0__and2_4
X_1160_ _0213_ _0196_ _0214_ VDD VSS gf180mcu_fd_sc_mcu9t5v0__nand2_2
X_1161_ _0681_ _0124_ _0215_ VDD VSS gf180mcu_fd_sc_mcu9t5v0__nand2_2
X_1162_ _0102_ _0103_ _0157_ _0158_ _0216_ VDD VSS gf180mcu_fd_sc_mcu9t5v0__and4_2
X_1163_ _0130_ _0134_ _0140_ _0216_ _0217_ VDD VSS gf180mcu_fd_sc_mcu9t5v0__oai211_2
X_1164_ net63 _0167_ _0215_ _0217_ _0218_ VDD VSS gf180mcu_fd_sc_mcu9t5v0__or4_4
X_1165_ net27 net76 _0076_ _0219_ VDD VSS gf180mcu_fd_sc_mcu9t5v0__aoi21_2
X_1166_ _0147_ _0148_ _0219_ _0220_ VDD VSS gf180mcu_fd_sc_mcu9t5v0__xnor3_2
X_1167_ _0165_ _0124_ _0221_ VDD VSS gf180mcu_fd_sc_mcu9t5v0__and2_2
X_1168_ net63 _0217_ _0221_ _0220_ _0222_ VDD VSS gf180mcu_fd_sc_mcu9t5v0__oai211_2
X_1169_ _0222_ _0218_ _0179_ _0223_ VDD VSS gf180mcu_fd_sc_mcu9t5v0__aoi21_4
X_1170_ _0102_ _0103_ _0224_ VDD VSS gf180mcu_fd_sc_mcu9t5v0__nand2_4
X_1171_ net62 _0153_ _0141_ _0187_ _0225_ VDD VSS gf180mcu_fd_sc_mcu9t5v0__nor4_4
X_1172_ _0086_ _0143_ _0226_ VDD VSS gf180mcu_fd_sc_mcu9t5v0__and2_2
X_1173_ _0111_ _0178_ _0224_ _0227_ VDD VSS gf180mcu_fd_sc_mcu9t5v0__mux2_4
X_1174_ _0224_ _0225_ _0226_ _0227_ _0228_ VDD VSS gf180mcu_fd_sc_mcu9t5v0__oai31_4
X_1175_ _0206_ _0210_ _0228_ _0223_ _0229_ VDD VSS gf180mcu_fd_sc_mcu9t5v0__and4_4
X_1176_ _0196_ _0214_ _0229_ _0230_ VDD VSS gf180mcu_fd_sc_mcu9t5v0__mux2_2
X_1177_ _0230_ _0231_ VDD VSS gf180mcu_fd_sc_mcu9t5v0__clkbuf_8
X_1178_ _0213_ _0232_ VDD VSS gf180mcu_fd_sc_mcu9t5v0__clkbuf_8
X_1179_ net5 net29 _0233_ VDD VSS gf180mcu_fd_sc_mcu9t5v0__nand2_2
X_1180_ _0233_ _0223_ net54 _0234_ VDD VSS gf180mcu_fd_sc_mcu9t5v0__mux2_2
X_1181_ net49 _0193_ net32 _0235_ VDD VSS gf180mcu_fd_sc_mcu9t5v0__aoi21_4
X_1182_ net30 _0235_ _0236_ VDD VSS gf180mcu_fd_sc_mcu9t5v0__nand2_2
X_1183_ net25 _0237_ VDD VSS gf180mcu_fd_sc_mcu9t5v0__buf_8
X_1184_ _0197_ _0236_ _0237_ _0164_ _0238_ VDD VSS gf180mcu_fd_sc_mcu9t5v0__oai211_4
X_1185_ _0192_ net30 _0235_ _0210_ _0239_ VDD VSS gf180mcu_fd_sc_mcu9t5v0__nand4_4
X_1186_ net5 _0190_ _0240_ VDD VSS gf180mcu_fd_sc_mcu9t5v0__nor2_2
X_1187_ _0165_ _0174_ _0176_ _0182_ _0241_ VDD VSS gf180mcu_fd_sc_mcu9t5v0__and4_4
X_1188_ _0171_ _0241_ _0190_ _0242_ VDD VSS gf180mcu_fd_sc_mcu9t5v0__aoi21_2
X_1189_ _0232_ _0171_ _0190_ _0241_ _0243_ VDD VSS gf180mcu_fd_sc_mcu9t5v0__and4_4
X_1190_ _0239_ _0240_ _0242_ _0243_ _0244_ VDD VSS gf180mcu_fd_sc_mcu9t5v0__aoi211_4
X_1191_ _0224_ _0225_ _0226_ _0245_ VDD VSS gf180mcu_fd_sc_mcu9t5v0__or3_2
X_1192_ _0245_ _0227_ _0246_ VDD VSS gf180mcu_fd_sc_mcu9t5v0__and2_2
X_1193_ _0234_ _0238_ _0244_ _0246_ _0247_ VDD VSS gf180mcu_fd_sc_mcu9t5v0__aoi211_4
X_1194_ net2 _0224_ _0187_ net57 _0248_ VDD VSS gf180mcu_fd_sc_mcu9t5v0__nor4_4
X_1195_ _0738_ _0111_ _0249_ VDD VSS gf180mcu_fd_sc_mcu9t5v0__nand2_2
X_1196_ net49 _0148_ _0249_ _0250_ VDD VSS gf180mcu_fd_sc_mcu9t5v0__or3_2
X_1197_ _0248_ _0250_ _0251_ VDD VSS gf180mcu_fd_sc_mcu9t5v0__or2_2
X_1198_ net2 _0125_ net57 _0148_ _0252_ VDD VSS gf180mcu_fd_sc_mcu9t5v0__oai31_2
X_1199_ _0155_ _0249_ _0253_ VDD VSS gf180mcu_fd_sc_mcu9t5v0__or2_2
X_1200_ _0252_ _0253_ _0254_ VDD VSS gf180mcu_fd_sc_mcu9t5v0__or2_2
X_1201_ _0165_ _0154_ _0163_ _0255_ VDD VSS gf180mcu_fd_sc_mcu9t5v0__and3_4
X_1202_ net83 _0163_ _0165_ _0256_ VDD VSS gf180mcu_fd_sc_mcu9t5v0__aoi21_4
X_1203_ _0251_ _0254_ _0255_ _0256_ _0257_ VDD VSS gf180mcu_fd_sc_mcu9t5v0__aoi211_4
X_1204_ _0172_ _0197_ _0211_ _0257_ _0258_ VDD VSS gf180mcu_fd_sc_mcu9t5v0__oai31_4
X_1205_ _0183_ net3 _0196_ _0164_ _0259_ VDD VSS gf180mcu_fd_sc_mcu9t5v0__oai31_2
X_1206_ _0229_ _0259_ _0260_ VDD VSS gf180mcu_fd_sc_mcu9t5v0__and2_2
X_1207_ _0232_ net29 net60 _0261_ VDD VSS gf180mcu_fd_sc_mcu9t5v0__and3_2
X_1208_ _0206_ _0235_ _0262_ VDD VSS gf180mcu_fd_sc_mcu9t5v0__and2_4
X_1209_ _0237_ _0261_ _0262_ _0263_ VDD VSS gf180mcu_fd_sc_mcu9t5v0__aoi21_2
X_1210_ _0258_ _0260_ _0263_ _0264_ VDD VSS gf180mcu_fd_sc_mcu9t5v0__nor3_4
X_1211_ _0247_ _0264_ _0265_ VDD VSS gf180mcu_fd_sc_mcu9t5v0__nand2_4
X_1212_ net66 _0265_ _0763_ VDD VSS gf180mcu_fd_sc_mcu9t5v0__nand2_2
X_1213_ _0164_ net26 _0266_ VDD VSS gf180mcu_fd_sc_mcu9t5v0__nor2_2
X_1214_ _0237_ _0266_ _0223_ _0267_ VDD VSS gf180mcu_fd_sc_mcu9t5v0__mux2_4
X_1215_ _0190_ _0183_ _0196_ _0268_ VDD VSS gf180mcu_fd_sc_mcu9t5v0__nor3_4
X_1216_ _0164_ _0237_ _0269_ VDD VSS gf180mcu_fd_sc_mcu9t5v0__nand2_2
X_1217_ _0268_ _0262_ _0269_ _0270_ VDD VSS gf180mcu_fd_sc_mcu9t5v0__aoi21_4
X_1218_ _0171_ _0241_ _0271_ VDD VSS gf180mcu_fd_sc_mcu9t5v0__and2_2
X_1219_ _0192_ net30 _0235_ _0210_ _0272_ VDD VSS gf180mcu_fd_sc_mcu9t5v0__and4_2
X_1220_ _0232_ net3 _0273_ VDD VSS gf180mcu_fd_sc_mcu9t5v0__or2_2
X_1221_ _0232_ _0171_ net3 _0241_ _0274_ VDD VSS gf180mcu_fd_sc_mcu9t5v0__nand4_2
X_1222_ net3 _0271_ _0272_ _0273_ _0274_ _0275_ VDD VSS gf180mcu_fd_sc_mcu9t5v0__oai221_4
X_1223_ _0270_ _0267_ _0275_ net1 _0276_ VDD VSS gf180mcu_fd_sc_mcu9t5v0__oai211_4
X_1224_ _0237_ net29 net61 _0277_ VDD VSS gf180mcu_fd_sc_mcu9t5v0__and3_2
X_1225_ _0277_ _0259_ _0236_ _0278_ VDD VSS gf180mcu_fd_sc_mcu9t5v0__aoi21_4
X_1226_ _0236_ _0237_ _0261_ _0279_ VDD VSS gf180mcu_fd_sc_mcu9t5v0__and3_4
X_1227_ _0278_ _0279_ _0280_ VDD VSS gf180mcu_fd_sc_mcu9t5v0__or2_2
X_1228_ net4 _0276_ _0280_ _0281_ VDD VSS gf180mcu_fd_sc_mcu9t5v0__oai21_4
X_1229_ net2 _0125_ net57 _0282_ VDD VSS gf180mcu_fd_sc_mcu9t5v0__or3_2
X_1230_ _0165_ _0111_ _0282_ _0220_ _0283_ VDD VSS gf180mcu_fd_sc_mcu9t5v0__and4_2