
* cell clock_divider
* pin duty_cycle[7]
* pin duty_cycle[6]
* pin clk_in
* pin clk_out
* pin duty_cycle[3]
* pin div_ratio[5]
* pin duty_cycle[5]
* pin duty_cycle[4]
* pin div_ratio[7]
* pin div_ratio[3]
* pin duty_cycle[2]
* pin duty_cycle[1]
* pin div_ratio[1]
* pin duty_cycle[0]
* pin div_ratio[4]
* pin div_ratio[2]
* pin div_ratio[6]
* pin div_ratio[0]
* pin rst_n
* pin NWELL
* pin PWELL,gf180mcu_gnd
.SUBCKT clock_divider 1 2 3 4 7 8 9 10 11 915 916 918 919 921 926 927 928 929
+ 930 931 932
* net 1 duty_cycle[7]
* net 2 duty_cycle[6]
* net 3 clk_in
* net 4 clk_out
* net 7 duty_cycle[3]
* net 8 div_ratio[5]
* net 9 duty_cycle[5]
* net 10 duty_cycle[4]
* net 11 div_ratio[7]
* net 915 div_ratio[3]
* net 916 duty_cycle[2]
* net 918 duty_cycle[1]
* net 919 div_ratio[1]
* net 921 duty_cycle[0]
* net 926 div_ratio[4]
* net 927 div_ratio[2]
* net 928 div_ratio[6]
* net 929 div_ratio[0]
* net 930 rst_n
* net 931 NWELL
* net 932 PWELL,gf180mcu_gnd
* cell instance $2 r0 *1 2.24,1214.64
X$2 932 1 5 931 gf180mcu_fd_sc_mcu9t5v0__clkbuf_12
* cell instance $5 r0 *1 23.52,1214.64
X$5 932 2 16 931 gf180mcu_fd_sc_mcu9t5v0__clkbuf_12
* cell instance $8 r0 *1 1194.48,2252.88
X$8 932 3 758 931 gf180mcu_fd_sc_mcu9t5v0__clkbuf_20
* cell instance $11 m0 *1 2307.76,1214.64
X$11 6 931 932 4 gf180mcu_fd_sc_mcu9t5v0__dlyb_2
* cell instance $14 r0 *1 997.36,2252.88
X$14 932 931 5 550 711 gf180mcu_fd_sc_mcu9t5v0__nand2_2
* cell instance $16 m0 *1 1015.84,2252.88
X$16 931 5 717 932 712 gf180mcu_fd_sc_mcu9t5v0__and2_2
* cell instance $18 m0 *1 1016.96,2262.96
X$18 931 5 769 932 716 gf180mcu_fd_sc_mcu9t5v0__and2_2
* cell instance $20 r0 *1 1026.48,2262.96
X$20 931 5 773 932 770 gf180mcu_fd_sc_mcu9t5v0__and2_2
* cell instance $22 r0 *1 997.92,2121.84
X$22 931 5 17 932 186 gf180mcu_fd_sc_mcu9t5v0__and2_2
* cell instance $24 r0 *1 968.24,2152.08
X$24 931 5 36 932 309 gf180mcu_fd_sc_mcu9t5v0__and2_2
* cell instance $28 m0 *1 990.08,2152.08
X$28 931 5 346 932 279 gf180mcu_fd_sc_mcu9t5v0__and2_2
* cell instance $30 r0 *1 985.6,2212.56
X$30 932 931 5 408 547 gf180mcu_fd_sc_mcu9t5v0__nand2_2
* cell instance $48 m0 *1 1223.04,2222.64
X$48 932 560 6 559 602 931 gf180mcu_fd_sc_mcu9t5v0__dffrnq_4
* cell instance $55 m0 *1 13.44,1254.96
X$55 932 7 14 931 gf180mcu_fd_sc_mcu9t5v0__clkbuf_12
* cell instance $58 m0 *1 26.88,1265.04
X$58 932 8 12 931 gf180mcu_fd_sc_mcu9t5v0__buf_20
* cell instance $61 r0 *1 872.48,2061.36
X$61 932 8 36 931 gf180mcu_fd_sc_mcu9t5v0__clkbuf_8
* cell instance $65 r0 *1 2.24,1244.88
X$65 932 9 239 931 gf180mcu_fd_sc_mcu9t5v0__clkbuf_12
* cell instance $68 r0 *1 23.52,1244.88
X$68 932 10 13 931 gf180mcu_fd_sc_mcu9t5v0__clkbuf_12
* cell instance $71 r0 *1 5.6,1254.96
X$71 932 11 15 931 gf180mcu_fd_sc_mcu9t5v0__buf_20
* cell instance $73 r0 *1 878.08,2031.12
X$73 932 11 17 931 gf180mcu_fd_sc_mcu9t5v0__clkbuf_8
* cell instance $77 r0 *1 991.2,2293.2
X$77 931 761 12 874 932 gf180mcu_fd_sc_mcu9t5v0__and2_4
* cell instance $80 r0 *1 977.76,2262.96
X$80 931 12 14 932 764 gf180mcu_fd_sc_mcu9t5v0__and2_2
* cell instance $82 r0 *1 1015.28,2293.2
X$82 931 12 779 932 912 gf180mcu_fd_sc_mcu9t5v0__and2_2
* cell instance $84 r0 *1 1023.12,2293.2
X$84 931 12 781 932 875 gf180mcu_fd_sc_mcu9t5v0__and2_2
* cell instance $88 m0 *1 984.48,2222.64
X$88 931 13 12 932 584 gf180mcu_fd_sc_mcu9t5v0__and2_2
* cell instance $102 m0 *1 1003.52,2293.2
X$102 931 13 768 932 900 gf180mcu_fd_sc_mcu9t5v0__and2_2
* cell instance $105 r0 *1 1041.04,2293.2
X$105 931 13 717 932 880 gf180mcu_fd_sc_mcu9t5v0__and2_2
* cell instance $107 m0 *1 1057.84,2303.28
X$107 931 13 769 932 913 gf180mcu_fd_sc_mcu9t5v0__and2_2
* cell instance $109 m0 *1 1058.4,2293.2
X$109 931 13 773 932 906 gf180mcu_fd_sc_mcu9t5v0__and2_2
* cell instance $111 m0 *1 962.08,2172.24
X$111 931 15 13 932 373 gf180mcu_fd_sc_mcu9t5v0__and2_2
* cell instance $114 m0 *1 980,2202.48
X$114 931 346 13 932 540 gf180mcu_fd_sc_mcu9t5v0__and2_2
* cell instance $131 r0 *1 988.4,2262.96
X$131 931 13 583 932 767 gf180mcu_fd_sc_mcu9t5v0__and2_2
* cell instance $136 m0 *1 1071.28,2262.96
X$136 932 931 14 800 773 gf180mcu_fd_sc_mcu9t5v0__nand2_2
* cell instance $138 r0 *1 1000.72,2293.2
X$138 931 14 583 932 899 gf180mcu_fd_sc_mcu9t5v0__and2_2
* cell instance $140 m0 *1 1033.76,2303.28
X$140 931 14 768 932 877 gf180mcu_fd_sc_mcu9t5v0__and2_2
* cell instance $142 m0 *1 1053.36,2293.2
X$142 931 14 717 932 904 gf180mcu_fd_sc_mcu9t5v0__and2_2
* cell instance $144 m0 *1 1066.24,2293.2
X$144 931 14 769 932 882 gf180mcu_fd_sc_mcu9t5v0__and2_2
* cell instance $148 r0 *1 971.04,2222.64
X$148 931 346 14 932 582 gf180mcu_fd_sc_mcu9t5v0__and2_2
* cell instance $161 r0 *1 964.88,2202.48
X$161 931 15 14 932 511 gf180mcu_fd_sc_mcu9t5v0__and2_2
* cell instance $163 r0 *1 985.04,2283.12
X$163 931 15 781 932 898 gf180mcu_fd_sc_mcu9t5v0__and2_2
* cell instance $165 m0 *1 974.96,2262.96
X$165 931 15 779 932 763 gf180mcu_fd_sc_mcu9t5v0__and2_2
* cell instance $167 r0 *1 964.88,2252.88
X$167 931 15 761 932 709 gf180mcu_fd_sc_mcu9t5v0__and2_2
* cell instance $179 r0 *1 1006.32,2252.88
X$179 931 16 711 932 713 gf180mcu_fd_sc_mcu9t5v0__and2_2
* cell instance $181 r0 *1 1051.68,2252.88
X$181 931 16 773 932 751 gf180mcu_fd_sc_mcu9t5v0__and2_2
* cell instance $183 m0 *1 1040.48,2262.96
X$183 931 16 769 932 771 gf180mcu_fd_sc_mcu9t5v0__and2_2
* cell instance $185 r0 *1 1028.16,2252.88
X$185 931 16 717 932 749 gf180mcu_fd_sc_mcu9t5v0__and2_2
* cell instance $187 m0 *1 988.4,2131.92
X$187 931 16 17 932 212 gf180mcu_fd_sc_mcu9t5v0__and2_2
* cell instance $189 r0 *1 974.96,2162.16
X$189 931 346 16 932 310 gf180mcu_fd_sc_mcu9t5v0__and2_2
* cell instance $192 m0 *1 986.16,2182.32
X$192 932 931 16 381 36 gf180mcu_fd_sc_mcu9t5v0__nand2_2
* cell instance $194 r0 *1 1008.56,2212.56
X$194 932 931 16 574 547 gf180mcu_fd_sc_mcu9t5v0__nand2_2
* cell instance $212 r0 *1 1136.8,2222.64
X$212 17 932 722 931 613 gf180mcu_fd_sc_mcu9t5v0__xor2_2
* cell instance $215 r0 *1 1127.28,2283.12
X$215 932 592 17 856 855 346 931 gf180mcu_fd_sc_mcu9t5v0__nor4_4
* cell instance $228 m0 *1 966.56,2152.08
X$228 931 17 239 932 298 gf180mcu_fd_sc_mcu9t5v0__and2_2
* cell instance $230 r0 *1 1166.48,2061.36
X$230 18 931 26 25 932 56 gf180mcu_fd_sc_mcu9t5v0__and3_2
* cell instance $232 m0 *1 1155.84,2061.36
X$232 932 24 18 931 gf180mcu_fd_sc_mcu9t5v0__clkbuf_8
* cell instance $238 m0 *1 1136.8,2061.36
X$238 932 20 18 21 40 22 931 gf180mcu_fd_sc_mcu9t5v0__and4_4
* cell instance $241 r0 *1 1122.8,2071.44
X$241 932 70 19 21 18 931 22 gf180mcu_fd_sc_mcu9t5v0__nand4_2
* cell instance $243 m0 *1 1158.08,2071.44
X$243 932 37 18 931 26 25 gf180mcu_fd_sc_mcu9t5v0__nand3_2
* cell instance $245 r0 *1 1121.12,2061.36
X$245 932 18 19 931 39 gf180mcu_fd_sc_mcu9t5v0__or2_2
* cell instance $247 m0 *1 1104.32,2091.6
X$247 932 19 80 44 81 931 gf180mcu_fd_sc_mcu9t5v0__aoi21_4
* cell instance $249 r0 *1 1149.68,2081.52
X$249 931 83 932 31 19 82 29 gf180mcu_fd_sc_mcu9t5v0__oai31_2
* cell instance $256 m0 *1 1111.6,2071.44
X$256 932 70 28 68 39 71 19 931 gf180mcu_fd_sc_mcu9t5v0__oai221_4
* cell instance $261 r0 *1 1145.2,2091.6
X$261 82 931 29 84 932 20 gf180mcu_fd_sc_mcu9t5v0__nor3_4
* cell instance $263 r0 *1 1106,2081.52
X$263 932 20 44 80 81 931 gf180mcu_fd_sc_mcu9t5v0__aoi21_4
* cell instance $266 r0 *1 1146.88,2061.36
X$266 932 931 41 23 20 gf180mcu_fd_sc_mcu9t5v0__nor2_2
* cell instance $269 m0 *1 1135.68,2071.44
X$269 932 20 931 42 22 21 gf180mcu_fd_sc_mcu9t5v0__aoi21_2
* cell instance $271 m0 *1 1149.12,2091.6
X$271 932 82 20 29 931 86 gf180mcu_fd_sc_mcu9t5v0__or3_4
* cell instance $279 m0 *1 1116.08,2182.32
X$279 932 21 438 342 210 440 931 gf180mcu_fd_sc_mcu9t5v0__oai211_4
* cell instance $282 r0 *1 1174.32,2172.24
X$282 392 931 83 21 932 474 gf180mcu_fd_sc_mcu9t5v0__and3_2
* cell instance $287 r0 *1 1131.76,2071.44
X$287 931 21 22 932 71 gf180mcu_fd_sc_mcu9t5v0__and2_2
* cell instance $291 r0 *1 1159.2,2142
X$291 931 194 21 932 256 gf180mcu_fd_sc_mcu9t5v0__and2_2
* cell instance $293 m0 *1 1168.16,2152.08
X$293 931 932 21 257 194 gf180mcu_fd_sc_mcu9t5v0__nand2_4
* cell instance $302 m0 *1 1177.12,2152.08
X$302 21 288 931 932 gf180mcu_fd_sc_mcu9t5v0__dlya_4
* cell instance $304 m0 *1 1177.12,2172.24
X$304 21 359 931 932 gf180mcu_fd_sc_mcu9t5v0__dlya_4
* cell instance $306 r0 *1 1120.56,2101.68
X$306 932 102 194 103 22 130 931 gf180mcu_fd_sc_mcu9t5v0__and4_4
* cell instance $315 m0 *1 1151.36,2142
X$315 931 23 220 932 222 gf180mcu_fd_sc_mcu9t5v0__and2_2
* cell instance $317 r0 *1 1141.28,2142
X$317 932 276 255 931 254 23 275 gf180mcu_fd_sc_mcu9t5v0__nor4_2
* cell instance $319 m0 *1 1153.04,2071.44
X$319 932 931 23 50 26 gf180mcu_fd_sc_mcu9t5v0__nand2_2
* cell instance $321 m0 *1 1166.48,2142
X$321 932 23 931 306 170 104 gf180mcu_fd_sc_mcu9t5v0__aoi21_2
* cell instance $324 r0 *1 1158.64,2061.36
X$324 932 931 24 23 gf180mcu_fd_sc_mcu9t5v0__clkbuf_4
* cell instance $333 r0 *1 1172.64,2061.36
X$333 932 931 24 54 29 gf180mcu_fd_sc_mcu9t5v0__nand2_2
* cell instance $339 r0 *1 1155.28,2111.76
X$339 931 149 168 24 932 gf180mcu_fd_sc_mcu9t5v0__and2_4
* cell instance $342 m0 *1 1152.48,2081.52
X$342 49 931 932 25 gf180mcu_fd_sc_mcu9t5v0__buf_2
* cell instance $344 m0 *1 1173.2,2071.44
X$344 25 931 932 30 gf180mcu_fd_sc_mcu9t5v0__buf_2
* cell instance $352 m0 *1 1177.68,2071.44
X$352 55 931 26 30 932 38 gf180mcu_fd_sc_mcu9t5v0__and3_2
* cell instance $354 m0 *1 1170.4,2061.36
X$354 27 931 932 26 gf180mcu_fd_sc_mcu9t5v0__buf_2
* cell instance $365 m0 *1 1118.88,2152.08
X$365 932 27 287 307 218 931 gf180mcu_fd_sc_mcu9t5v0__aoi21_4
* cell instance $367 m0 *1 1176.56,2081.52
X$367 932 49 51 46 58 27 931 gf180mcu_fd_sc_mcu9t5v0__and4_4
* cell instance $370 m0 *1 1170.4,2111.76
X$370 932 931 27 150 107 gf180mcu_fd_sc_mcu9t5v0__nand2_2
* cell instance $377 r0 *1 1164.24,2101.68
X$377 932 931 134 121 27 55 gf180mcu_fd_sc_mcu9t5v0__mux2_4
* cell instance $379 r0 *1 1152.48,2071.44
X$379 932 931 61 27 73 50 gf180mcu_fd_sc_mcu9t5v0__mux2_2
* cell instance $384 m0 *1 1218,2131.92
X$384 932 198 59 33 28 931 gf180mcu_fd_sc_mcu9t5v0__aoi21_4
* cell instance $386 r0 *1 1220.8,2121.84
X$386 931 33 28 197 932 gf180mcu_fd_sc_mcu9t5v0__and2_4
* cell instance $396 r0 *1 1204,2101.68
X$396 932 145 134 106 28 107 931 gf180mcu_fd_sc_mcu9t5v0__oai211_4
* cell instance $398 r0 *1 1222.48,2091.6
X$398 931 932 33 109 28 gf180mcu_fd_sc_mcu9t5v0__nand2_4
* cell instance $404 r0 *1 1175.44,2091.6
X$404 932 119 56 55 29 85 931 gf180mcu_fd_sc_mcu9t5v0__aoi211_4
* cell instance $406 r0 *1 1174.32,2081.52
X$406 932 931 87 54 58 29 gf180mcu_fd_sc_mcu9t5v0__mux2_2
* cell instance $415 r0 *1 1085.28,2081.52
X$415 932 94 77 76 931 29 gf180mcu_fd_sc_mcu9t5v0__or3_4
* cell instance $418 r0 *1 1172.64,2071.44
X$418 932 53 37 58 29 931 59 gf180mcu_fd_sc_mcu9t5v0__oai22_4
* cell instance $426 m0 *1 1183.84,2071.44
X$426 932 60 38 31 57 931 gf180mcu_fd_sc_mcu9t5v0__aoi21_4
* cell instance $431 r0 *1 1185.52,2061.36
X$431 931 58 31 932 32 gf180mcu_fd_sc_mcu9t5v0__and2_2
* cell instance $433 m0 *1 1190.56,2111.76
X$433 131 932 32 132 931 147 gf180mcu_fd_sc_mcu9t5v0__or3_2
* cell instance $435 r0 *1 1187.76,2111.76
X$435 32 931 132 173 932 131 gf180mcu_fd_sc_mcu9t5v0__nor3_4
* cell instance $438 m0 *1 1156.96,2131.92
X$438 932 33 104 169 358 931 gf180mcu_fd_sc_mcu9t5v0__aoi21_4
* cell instance $446 r0 *1 1225.84,2071.44
X$446 33 66 931 932 gf180mcu_fd_sc_mcu9t5v0__dlya_4
* cell instance $448 m0 *1 1224.16,2071.44
X$448 932 65 33 931 34 gf180mcu_fd_sc_mcu9t5v0__or2_2
* cell instance $450 m0 *1 1224.72,2091.6
X$450 64 931 67 34 932 92 gf180mcu_fd_sc_mcu9t5v0__and3_2
* cell instance $453 r0 *1 1126.72,2061.36
X$453 932 35 41 47 42 40 931 gf180mcu_fd_sc_mcu9t5v0__aoi211_4
* cell instance $455 m0 *1 1202.32,2081.52
X$455 59 35 60 69 931 932 67 gf180mcu_fd_sc_mcu9t5v0__or4_2
* cell instance $458 m0 *1 1210.16,2081.52
X$458 932 93 62 61 35 91 931 gf180mcu_fd_sc_mcu9t5v0__aoi211_4
* cell instance $465 r0 *1 1224.72,2081.52
X$465 35 65 931 932 gf180mcu_fd_sc_mcu9t5v0__dlya_4
* cell instance $467 r0 *1 1127.28,2262.96
X$467 36 932 782 931 806 gf180mcu_fd_sc_mcu9t5v0__xor2_2
* cell instance $471 m0 *1 971.04,2202.48
X$471 931 239 36 932 500 gf180mcu_fd_sc_mcu9t5v0__and2_2
* cell instance $485 r0 *1 1122.8,2303.28
X$485 36 910 768 717 931 932 855 gf180mcu_fd_sc_mcu9t5v0__or4_2
* cell instance $509 m0 *1 1122.8,2081.52
X$509 932 43 46 48 45 47 931 gf180mcu_fd_sc_mcu9t5v0__nand4_4
* cell instance $511 r0 *1 1154.72,2101.68
X$511 931 43 51 85 932 gf180mcu_fd_sc_mcu9t5v0__and2_4
* cell instance $513 m0 *1 1156.96,2081.52
X$513 932 931 48 57 43 gf180mcu_fd_sc_mcu9t5v0__nand2_2
* cell instance $515 m0 *1 1108.24,2081.52
X$515 45 48 43 46 932 931 68 gf180mcu_fd_sc_mcu9t5v0__and4_2
* cell instance $517 m0 *1 1090.88,2091.6
X$517 932 43 78 74 79 931 gf180mcu_fd_sc_mcu9t5v0__aoi21_4
* cell instance $526 r0 *1 1098.72,2101.68
X$526 932 44 124 126 148 100 931 gf180mcu_fd_sc_mcu9t5v0__or4_4
* cell instance $528 m0 *1 1084.72,2091.6
X$528 75 931 45 74 932 77 gf180mcu_fd_sc_mcu9t5v0__and3_2
* cell instance $530 m0 *1 1077.44,2091.6
X$530 932 45 931 94 74 75 gf180mcu_fd_sc_mcu9t5v0__aoi21_2
* cell instance $538 m0 *1 1061.76,2142
X$538 932 245 244 931 45 gf180mcu_fd_sc_mcu9t5v0__or2_2
* cell instance $545 m0 *1 1165.36,2071.44
X$545 932 931 46 52 gf180mcu_fd_sc_mcu9t5v0__clkbuf_4
* cell instance $549 m0 *1 1163.12,2091.6
X$549 46 931 932 96 gf180mcu_fd_sc_mcu9t5v0__buf_3
* cell instance $552 m0 *1 1087.52,2121.84
X$552 159 931 206 46 932 190 gf180mcu_fd_sc_mcu9t5v0__nor3_4
* cell instance $559 m0 *1 1108.8,2121.84
X$559 46 931 932 193 gf180mcu_fd_sc_mcu9t5v0__dlya_2
* cell instance $565 r0 *1 1145.2,2081.52
X$565 51 931 932 48 gf180mcu_fd_sc_mcu9t5v0__buf_2
* cell instance $574 m0 *1 1140.16,2121.84
X$574 932 192 167 49 127 165 931 gf180mcu_fd_sc_mcu9t5v0__oai31_4
* cell instance $578 r0 *1 1160.88,2131.92
X$578 49 931 932 236 gf180mcu_fd_sc_mcu9t5v0__buf_3
* cell instance $589 m0 *1 1145.76,2131.92
X$589 220 193 51 932 931 169 gf180mcu_fd_sc_mcu9t5v0__and3_4
* cell instance $593 m0 *1 1086.4,2152.08
X$593 932 251 342 341 303 931 51 gf180mcu_fd_sc_mcu9t5v0__oai22_4
* cell instance $595 m0 *1 1165.36,2111.76
X$595 931 51 55 932 170 gf180mcu_fd_sc_mcu9t5v0__and2_2
* cell instance $612 r0 *1 1160.88,2071.44
X$612 931 932 52 53 51 gf180mcu_fd_sc_mcu9t5v0__nand2_4
* cell instance $616 m0 *1 1169.84,2101.68
X$616 52 931 932 120 gf180mcu_fd_sc_mcu9t5v0__buf_3
* cell instance $618 r0 *1 1160.88,2091.6
X$618 932 52 55 931 gf180mcu_fd_sc_mcu9t5v0__buf_8
* cell instance $622 m0 *1 1173.76,2142
X$622 932 53 258 131 86 257 931 gf180mcu_fd_sc_mcu9t5v0__oai31_4
* cell instance $624 r0 *1 1168.72,2142
X$624 932 53 258 196 257 86 931 gf180mcu_fd_sc_mcu9t5v0__oai31_4
* cell instance $630 r0 *1 1173.76,2131.92
X$630 257 932 86 53 931 259 gf180mcu_fd_sc_mcu9t5v0__or3_2
* cell instance $638 r0 *1 1191.68,2071.44
X$638 56 55 57 932 931 69 gf180mcu_fd_sc_mcu9t5v0__and3_4
* cell instance $642 r0 *1 1188.88,2101.68
X$642 932 85 931 132 56 55 gf180mcu_fd_sc_mcu9t5v0__aoi21_2
* cell instance $646 m0 *1 1176.56,2111.76
X$646 194 84 85 55 932 931 183 gf180mcu_fd_sc_mcu9t5v0__and4_2
* cell instance $657 r0 *1 1176.56,2101.68
X$657 932 931 105 150 55 56 gf180mcu_fd_sc_mcu9t5v0__mux2_2
* cell instance $660 r0 *1 1182.72,2081.52
X$660 932 62 57 86 55 83 931 gf180mcu_fd_sc_mcu9t5v0__oai211_4
* cell instance $662 m0 *1 1190,2081.52
X$662 932 931 83 72 55 gf180mcu_fd_sc_mcu9t5v0__nand2_2
* cell instance $670 r0 *1 1171.52,2111.76
X$670 931 170 56 932 118 gf180mcu_fd_sc_mcu9t5v0__and2_2
* cell instance $693 m0 *1 1206.24,2182.32
X$693 931 339 59 932 420 gf180mcu_fd_sc_mcu9t5v0__and2_2
* cell instance $695 r0 *1 1185.52,2131.92
X$695 932 59 931 233 196 224 gf180mcu_fd_sc_mcu9t5v0__aoi21_2
* cell instance $697 r0 *1 1195.6,2162.16
X$697 932 931 339 326 59 gf180mcu_fd_sc_mcu9t5v0__nand2_2
* cell instance $702 r0 *1 1223.04,2142
X$702 932 261 263 260 262 59 931 gf180mcu_fd_sc_mcu9t5v0__aoi22_4
* cell instance $718 r0 *1 1216.88,2071.44
X$718 932 64 59 931 65 66 gf180mcu_fd_sc_mcu9t5v0__nand3_2
* cell instance $720 m0 *1 1212.96,2091.6
X$720 59 932 60 69 931 89 gf180mcu_fd_sc_mcu9t5v0__or3_2
* cell instance $722 m0 *1 1202.88,2091.6
X$722 932 931 69 60 171 gf180mcu_fd_sc_mcu9t5v0__nor2_4
* cell instance $724 r0 *1 1198.4,2091.6
X$724 932 117 90 60 69 106 134 931 gf180mcu_fd_sc_mcu9t5v0__oai221_4
* cell instance $732 r0 *1 1214.08,2081.52
X$732 932 60 69 931 88 gf180mcu_fd_sc_mcu9t5v0__or2_2
* cell instance $737 r0 *1 1208.48,2071.44
X$737 931 61 62 932 63 gf180mcu_fd_sc_mcu9t5v0__and2_2
* cell instance $755 m0 *1 1224.16,2111.76
X$755 91 932 63 137 931 136 gf180mcu_fd_sc_mcu9t5v0__or3_2
* cell instance $757 r0 *1 1231.44,2101.68
X$757 115 931 932 63 91 137 gf180mcu_fd_sc_mcu9t5v0__nor3_2
* cell instance $796 m0 *1 1168.72,2091.6
X$796 932 106 84 85 72 931 gf180mcu_fd_sc_mcu9t5v0__aoi21_4
* cell instance $801 r0 *1 1159.76,2081.52
X$801 932 95 73 931 gf180mcu_fd_sc_mcu9t5v0__buf_8
* cell instance $813 m0 *1 1074.64,2142
X$813 246 249 248 99 932 931 74 gf180mcu_fd_sc_mcu9t5v0__and4_2
* cell instance $816 m0 *1 1105.44,2101.68
X$816 75 931 98 99 932 81 gf180mcu_fd_sc_mcu9t5v0__and3_2
* cell instance $818 m0 *1 1088.08,2142
X$818 932 931 75 251 217 gf180mcu_fd_sc_mcu9t5v0__nand2_2
* cell instance $820 m0 *1 1097.04,2131.92
X$820 932 189 75 931 gf180mcu_fd_sc_mcu9t5v0__clkbuf_8
* cell instance $832 m0 *1 1112.72,2101.68
X$832 75 100 97 101 931 932 103 gf180mcu_fd_sc_mcu9t5v0__or4_2
* cell instance $834 r0 *1 1099.28,2111.76
X$834 932 931 159 76 gf180mcu_fd_sc_mcu9t5v0__buf_4
* cell instance $836 m0 *1 1099.28,2101.68
X$836 76 931 932 79 gf180mcu_fd_sc_mcu9t5v0__buf_2
* cell instance $844 m0 *1 1120.56,2202.48
X$844 932 78 931 507 185 342 gf180mcu_fd_sc_mcu9t5v0__aoi21_2
* cell instance $847 r0 *1 1123.36,2152.08
X$847 932 931 189 78 gf180mcu_fd_sc_mcu9t5v0__buf_4
* cell instance $849 m0 *1 1127.84,2202.48
X$849 931 78 342 932 522 gf180mcu_fd_sc_mcu9t5v0__and2_2
* cell instance $851 r0 *1 1100.96,2091.6
X$851 932 80 78 99 98 931 gf180mcu_fd_sc_mcu9t5v0__aoi21_4
* cell instance $861 m0 *1 1127.28,2192.4
X$861 78 932 155 454 931 390 gf180mcu_fd_sc_mcu9t5v0__or3_2
* cell instance $882 m0 *1 1122.8,2101.68
X$882 932 103 130 82 102 931 gf180mcu_fd_sc_mcu9t5v0__nand3_4
* cell instance $885 r0 *1 1181.04,2172.24
X$885 932 473 226 392 326 359 83 931 gf180mcu_fd_sc_mcu9t5v0__aoi221_4
* cell instance $887 r0 *1 1186.08,2162.16
X$887 932 931 83 405 259 gf180mcu_fd_sc_mcu9t5v0__nand2_2
* cell instance $899 m0 *1 1151.92,2162.16
X$899 931 932 168 83 149 gf180mcu_fd_sc_mcu9t5v0__nand2_4
* cell instance $903 m0 *1 1156.4,2101.68
X$903 932 931 121 83 120 gf180mcu_fd_sc_mcu9t5v0__nor2_2
* cell instance $907 m0 *1 1162,2101.68
X$907 932 931 84 104 gf180mcu_fd_sc_mcu9t5v0__buf_4
* cell instance $935 m0 *1 1182.72,2091.6
X$935 932 87 146 931 gf180mcu_fd_sc_mcu9t5v0__clkbuf_8
* cell instance $938 m0 *1 1198.4,2101.68
X$938 87 931 932 180 gf180mcu_fd_sc_mcu9t5v0__buf_3
* cell instance $944 m0 *1 1205.12,2121.84
X$944 932 88 174 145 196 931 gf180mcu_fd_sc_mcu9t5v0__oai21_4
* cell instance $947 m0 *1 1206.24,2111.76
X$947 932 141 145 196 88 111 931 gf180mcu_fd_sc_mcu9t5v0__oai211_4
* cell instance $949 m0 *1 1218.56,2142
X$949 932 395 89 261 197 198 262 931 gf180mcu_fd_sc_mcu9t5v0__aoi221_4
* cell instance $951 r0 *1 1230.32,2121.84
X$951 932 198 931 205 89 197 gf180mcu_fd_sc_mcu9t5v0__aoi21_2
* cell instance $957 m0 *1 1219.12,2101.68
X$957 932 177 108 90 109 931 gf180mcu_fd_sc_mcu9t5v0__aoi21_4
* cell instance $960 r0 *1 1190,2121.84
X$960 931 91 195 932 207 gf180mcu_fd_sc_mcu9t5v0__xnor2_2
* cell instance $969 m0 *1 1167.04,2121.84
X$969 931 184 167 932 91 gf180mcu_fd_sc_mcu9t5v0__and2_2
* cell instance $973 m0 *1 1230.88,2111.76
X$973 931 136 138 92 174 116 932 gf180mcu_fd_sc_mcu9t5v0__oai211_2
* cell instance $976 m0 *1 1226.96,2152.08
X$976 932 328 173 93 297 931 gf180mcu_fd_sc_mcu9t5v0__aoi21_4
* cell instance $979 r0 *1 1238.16,2121.84
X$979 932 171 931 202 93 260 gf180mcu_fd_sc_mcu9t5v0__aoi21_2
* cell instance $982 m0 *1 1246,2131.92
X$982 93 931 932 204 gf180mcu_fd_sc_mcu9t5v0__buf_3
* cell instance $984 r0 *1 1244.88,2131.92
X$984 931 93 173 932 232 gf180mcu_fd_sc_mcu9t5v0__and2_2
* cell instance $986 m0 *1 1219.68,2121.84
X$986 932 179 173 93 178 137 931 gf180mcu_fd_sc_mcu9t5v0__aoi211_4
* cell instance $988 m0 *1 1240.96,2142
X$988 931 932 173 226 93 gf180mcu_fd_sc_mcu9t5v0__nand2_4
* cell instance $1004 m0 *1 1162,2081.52
X$1004 932 96 95 931 gf180mcu_fd_sc_mcu9t5v0__buf_8
* cell instance $1011 m0 *1 1108.24,2111.76
X$1011 160 100 97 128 931 932 102 gf180mcu_fd_sc_mcu9t5v0__or4_2
* cell instance $1013 m0 *1 1117.2,2111.76
X$1013 932 149 97 100 129 124 931 gf180mcu_fd_sc_mcu9t5v0__or4_4
* cell instance $1016 r0 *1 1083.04,2101.68
X$1016 932 126 97 931 gf180mcu_fd_sc_mcu9t5v0__clkbuf_8
* cell instance $1019 r0 *1 1113.28,2121.84
X$1019 931 208 932 210 129 100 97 gf180mcu_fd_sc_mcu9t5v0__oai31_2
* cell instance $1027 m0 *1 1116.08,2172.24
X$1027 253 129 97 285 931 932 440 gf180mcu_fd_sc_mcu9t5v0__or4_2
* cell instance $1029 r0 *1 1120.56,2172.24
X$1029 932 391 165 98 322 253 931 gf180mcu_fd_sc_mcu9t5v0__nor4_4
* cell instance $1041 m0 *1 1076.88,2172.24
X$1041 931 932 413 98 248 gf180mcu_fd_sc_mcu9t5v0__nand2_4
* cell instance $1045 r0 *1 1116.08,2162.16
X$1045 253 98 322 378 931 932 343 gf180mcu_fd_sc_mcu9t5v0__or4_2
* cell instance $1047 m0 *1 1065.68,2111.76
X$1047 932 127 124 126 98 125 931 gf180mcu_fd_sc_mcu9t5v0__nor4_4
* cell instance $1049 m0 *1 1100.4,2192.4
X$1049 932 185 415 453 99 414 931 gf180mcu_fd_sc_mcu9t5v0__and4_4
* cell instance $1052 m0 *1 1081.92,2142
X$1052 931 248 99 932 250 gf180mcu_fd_sc_mcu9t5v0__and2_2
* cell instance $1061 m0 *1 1069.04,2152.08
X$1061 932 284 248 249 246 931 99 gf180mcu_fd_sc_mcu9t5v0__nand4_2
* cell instance $1063 m0 *1 1079.68,2152.08
X$1063 249 931 248 99 932 217 gf180mcu_fd_sc_mcu9t5v0__and3_2
* cell instance $1073 r0 *1 1083.04,2111.76
X$1073 932 158 100 931 gf180mcu_fd_sc_mcu9t5v0__clkbuf_8
* cell instance $1079 r0 *1 1113.84,2111.76
X$1079 932 931 161 101 185 gf180mcu_fd_sc_mcu9t5v0__nand2_2
* cell instance $1095 m0 *1 1159.76,2121.84
X$1095 932 222 931 195 169 104 gf180mcu_fd_sc_mcu9t5v0__aoi21_2
* cell instance $1097 m0 *1 1162,2152.08
X$1097 256 931 104 170 932 301 gf180mcu_fd_sc_mcu9t5v0__and3_2
* cell instance $1105 r0 *1 1151.36,2131.92
X$1105 169 104 276 223 222 931 932 gf180mcu_fd_sc_mcu9t5v0__aoi211_2
* cell instance $1110 m0 *1 1178.24,2101.68
X$1110 932 118 119 106 105 931 110 gf180mcu_fd_sc_mcu9t5v0__oai22_4
* cell instance $1113 m0 *1 1199.52,2111.76
X$1113 932 106 105 931 133 gf180mcu_fd_sc_mcu9t5v0__or2_2
* cell instance $1120 r0 *1 1207.92,2111.76
X$1120 932 135 178 134 106 172 108 931 gf180mcu_fd_sc_mcu9t5v0__oai221_4
* cell instance $1130 r0 *1 1135.68,2111.76
X$1130 932 192 167 107 166 165 931 gf180mcu_fd_sc_mcu9t5v0__oai31_4
* cell instance $1132 m0 *1 1186.64,2131.92
X$1132 931 107 211 932 234 gf180mcu_fd_sc_mcu9t5v0__xnor2_2
* cell instance $1143 m0 *1 1209.6,2101.68
X$1143 107 117 931 932 gf180mcu_fd_sc_mcu9t5v0__dlya_4
* cell instance $1145 r0 *1 1221.92,2101.68
X$1145 107 135 931 932 gf180mcu_fd_sc_mcu9t5v0__dlya_4
* cell instance $1150 m0 *1 1198.4,2182.32
X$1150 932 931 108 667 226 gf180mcu_fd_sc_mcu9t5v0__nand2_2
* cell instance $1152 m0 *1 1210.16,2131.92
X$1152 932 931 180 108 gf180mcu_fd_sc_mcu9t5v0__buf_4
* cell instance $1160 m0 *1 1205.68,2152.08
X$1160 931 302 932 289 196 290 108 gf180mcu_fd_sc_mcu9t5v0__oai22_2
* cell instance $1163 m0 *1 1232.56,2101.68
X$1163 932 113 110 109 112 203 931 gf180mcu_fd_sc_mcu9t5v0__oai211_4
* cell instance $1166 r0 *1 1242.64,2101.68
X$1166 932 140 110 109 114 171 931 gf180mcu_fd_sc_mcu9t5v0__oai211_4
* cell instance $1174 r0 *1 1231.44,2091.6
X$1174 932 109 110 931 116 gf180mcu_fd_sc_mcu9t5v0__or2_2
* cell instance $1179 m0 *1 1249.36,2111.76
X$1179 932 931 176 109 110 gf180mcu_fd_sc_mcu9t5v0__nor2_2
* cell instance $1181 r0 *1 1260.56,2101.68
X$1181 114 932 109 110 931 139 gf180mcu_fd_sc_mcu9t5v0__or3_2
* cell instance $1199 r0 *1 1250.48,2091.6
X$1199 932 931 111 114 gf180mcu_fd_sc_mcu9t5v0__clkinv_2
* cell instance $1202 r0 *1 1118.88,2232.72
X$1202 932 111 659 673 658 931 gf180mcu_fd_sc_mcu9t5v0__addh_4
* cell instance $1205 r0 *1 1239.84,2182.32
X$1205 111 931 329 328 932 434 gf180mcu_fd_sc_mcu9t5v0__and3_2
* cell instance $1207 m0 *1 1239.28,2162.16
X$1207 111 329 328 327 932 931 291 gf180mcu_fd_sc_mcu9t5v0__and4_2
* cell instance $1210 r0 *1 1233.68,2162.16
X$1210 932 327 328 329 111 333 931 gf180mcu_fd_sc_mcu9t5v0__nand4_4
* cell instance $1222 r0 *1 1239.84,2091.6
X$1222 932 931 112 111 142 gf180mcu_fd_sc_mcu9t5v0__nor2_2
* cell instance $1226 m0 *1 1202.88,2172.24
X$1226 931 147 394 145 379 111 932 gf180mcu_fd_sc_mcu9t5v0__oai211_2
* cell instance $1229 r0 *1 1251.04,2212.56
X$1229 931 111 932 569 425 565 567 gf180mcu_fd_sc_mcu9t5v0__oai31_2
* cell instance $1234 m0 *1 1250.48,2101.68
X$1234 140 113 139 141 932 931 199 gf180mcu_fd_sc_mcu9t5v0__and4_2
* cell instance $1236 r0 *1 1238.72,2111.76
X$1236 932 139 141 113 140 175 931 gf180mcu_fd_sc_mcu9t5v0__nand4_4
* cell instance $1245 m0 *1 1239.84,2121.84
X$1245 932 331 115 205 176 202 931 gf180mcu_fd_sc_mcu9t5v0__aoi211_4
* cell instance $1250 r0 *1 1215.76,2172.24
X$1250 932 394 931 457 116 174 gf180mcu_fd_sc_mcu9t5v0__aoi21_2
* cell instance $1252 m0 *1 1235.92,2172.24
X$1252 931 174 116 932 360 gf180mcu_fd_sc_mcu9t5v0__and2_2
* cell instance $1255 m0 *1 1230.88,2172.24
X$1255 932 931 174 330 116 gf180mcu_fd_sc_mcu9t5v0__nand2_2
* cell instance $1284 m0 *1 1041.6,2131.92
X$1284 931 122 123 932 187 gf180mcu_fd_sc_mcu9t5v0__and2_2
* cell instance $1286 m0 *1 1048.32,2121.84
X$1286 932 931 122 157 gf180mcu_fd_sc_mcu9t5v0__clkinv_2
* cell instance $1288 m0 *1 1028.16,2121.84
X$1288 932 181 153 151 122 123 931 gf180mcu_fd_sc_mcu9t5v0__aoi211_4
* cell instance $1292 r0 *1 1034.88,2121.84
X$1292 151 153 122 932 931 188 gf180mcu_fd_sc_mcu9t5v0__and3_4
* cell instance $1294 r0 *1 1041.04,2111.76
X$1294 932 151 122 154 156 155 931 gf180mcu_fd_sc_mcu9t5v0__and4_4
* cell instance $1296 m0 *1 1042.16,2111.76
X$1296 122 931 123 155 932 143 gf180mcu_fd_sc_mcu9t5v0__and3_2
* cell instance $1301 m0 *1 999.04,2131.92
X$1301 932 122 214 235 186 931 gf180mcu_fd_sc_mcu9t5v0__addh_2
* cell instance $1306 r0 *1 1034.32,2131.92
X$1306 932 123 931 237 151 153 gf180mcu_fd_sc_mcu9t5v0__aoi21_2
* cell instance $1309 r0 *1 1018.08,2131.92
X$1309 932 270 123 216 215 931 gf180mcu_fd_sc_mcu9t5v0__oai21_4
* cell instance $1316 r0 *1 1031.52,2111.76
X$1316 152 154 182 144 123 931 932 gf180mcu_fd_sc_mcu9t5v0__aoi211_2
* cell instance $1320 m0 *1 1086.96,2111.76
X$1320 932 159 129 126 125 124 931 gf180mcu_fd_sc_mcu9t5v0__nor4_4
* cell instance $1323 m0 *1 1048.32,2111.76
X$1323 932 156 144 143 931 124 gf180mcu_fd_sc_mcu9t5v0__or3_4
* cell instance $1330 r0 *1 1075.2,2111.76
X$1330 932 931 158 125 gf180mcu_fd_sc_mcu9t5v0__clkbuf_3
* cell instance $1339 m0 *1 1101.52,2162.16
X$1339 286 931 126 342 932 129 gf180mcu_fd_sc_mcu9t5v0__nor3_4
* cell instance $1341 r0 *1 1115.52,2152.08
X$1341 932 931 126 322 gf180mcu_fd_sc_mcu9t5v0__buf_4
* cell instance $1343 r0 *1 1052.24,2172.24
X$1343 932 386 126 385 352 931 gf180mcu_fd_sc_mcu9t5v0__oai21_4
* cell instance $1363 r0 *1 1133.44,2121.84
X$1363 165 932 127 192 931 184 gf180mcu_fd_sc_mcu9t5v0__or3_2
* cell instance $1365 r0 *1 1145.76,2131.92
X$1365 127 931 932 221 gf180mcu_fd_sc_mcu9t5v0__buf_3
* cell instance $1373 r0 *1 1108.8,2111.76
X$1373 932 931 191 128 161 gf180mcu_fd_sc_mcu9t5v0__nand2_2
* cell instance $1376 r0 *1 1131.2,2152.08
X$1376 253 932 129 322 931 273 gf180mcu_fd_sc_mcu9t5v0__or3_2
* cell instance $1379 m0 *1 1121.12,2162.16
X$1379 931 155 932 323 129 253 322 gf180mcu_fd_sc_mcu9t5v0__oai31_2
* cell instance $1389 r0 *1 1100.96,2162.16
X$1389 932 162 161 129 191 931 gf180mcu_fd_sc_mcu9t5v0__nand3_4
* cell instance $1403 m0 *1 1116.08,2121.84
X$1403 162 163 219 164 932 931 130 gf180mcu_fd_sc_mcu9t5v0__and4_2
* cell instance $1405 r0 *1 1182.16,2121.84
X$1405 932 931 131 209 gf180mcu_fd_sc_mcu9t5v0__buf_4
* cell instance $1410 r0 *1 1202.32,2111.76
X$1410 131 931 932 172 gf180mcu_fd_sc_mcu9t5v0__buf_3
* cell instance $1420 r0 *1 1252.16,2131.92
X$1420 931 177 133 932 230 gf180mcu_fd_sc_mcu9t5v0__and2_2
* cell instance $1422 m0 *1 1264.48,2121.84
X$1422 932 931 133 200 gf180mcu_fd_sc_mcu9t5v0__clkinv_2
* cell instance $1424 r0 *1 1260,2121.84
X$1424 932 931 133 177 201 gf180mcu_fd_sc_mcu9t5v0__nor2_4
* cell instance $1431 m0 *1 1252.16,2131.92
X$1431 932 177 133 931 229 gf180mcu_fd_sc_mcu9t5v0__or2_2
* cell instance $1448 r0 *1 1174.88,2152.08
X$1448 932 257 306 393 288 931 137 gf180mcu_fd_sc_mcu9t5v0__oai22_4
* cell instance $1451 m0 *1 1207.36,2162.16
X$1451 932 289 931 327 137 326 gf180mcu_fd_sc_mcu9t5v0__aoi21_2
* cell instance $1464 m0 *1 1252.16,2152.08
X$1464 932 290 931 296 291 138 gf180mcu_fd_sc_mcu9t5v0__aoi21_2
* cell instance $1466 r0 *1 1256.08,2142
X$1466 226 263 138 291 932 931 266 gf180mcu_fd_sc_mcu9t5v0__and4_2
* cell instance $1489 r0 *1 1232,2111.76
X$1489 172 931 932 142 gf180mcu_fd_sc_mcu9t5v0__buf_2
* cell instance $1508 r0 *1 1204,2172.24
X$1508 931 326 932 147 419 145 gf180mcu_fd_sc_mcu9t5v0__oai21_2
* cell instance $1510 r0 *1 1203.44,2121.84
X$1510 931 171 225 145 207 146 932 gf180mcu_fd_sc_mcu9t5v0__oai211_2
* cell instance $1519 r0 *1 1202.88,2162.16
X$1519 931 339 146 932 379 gf180mcu_fd_sc_mcu9t5v0__xnor2_2
* cell instance $1521 r0 *1 1205.68,2142
X$1521 932 261 324 183 325 146 931 gf180mcu_fd_sc_mcu9t5v0__or4_4
* cell instance $1523 m0 *1 1215.76,2152.08
X$1523 931 146 325 932 297 gf180mcu_fd_sc_mcu9t5v0__xnor2_2
* cell instance $1525 r0 *1 1202.88,2152.08
X$1525 932 289 146 183 324 325 931 gf180mcu_fd_sc_mcu9t5v0__nor4_4
* cell instance $1536 m0 *1 1102.08,2121.84
X$1536 932 931 162 148 191 gf180mcu_fd_sc_mcu9t5v0__nand2_2
* cell instance $1540 m0 *1 1160.88,2162.16
X$1540 149 931 932 356 gf180mcu_fd_sc_mcu9t5v0__buf_2
* cell instance $1543 r0 *1 1157.52,2162.16