* CDL Netlist generated by OpenROAD

*.BUSDELIMITER [

.SUBCKT wishbone_master clk read_addr[0] read_addr[10] read_addr[11]
+ read_addr[12] read_addr[13] read_addr[14] read_addr[15] read_addr[16]
+ read_addr[17] read_addr[18] read_addr[19] read_addr[1] read_addr[20]
+ read_addr[21] read_addr[22] read_addr[23] read_addr[24] read_addr[25]
+ read_addr[26] read_addr[27] read_addr[28] read_addr[29] read_addr[2]
+ read_addr[30] read_addr[31] read_addr[3] read_addr[4] read_addr[5]
+ read_addr[6] read_addr[7] read_addr[8] read_addr[9] read_data[0]
+ read_data[10] read_data[11] read_data[12] read_data[13] read_data[14]
+ read_data[15] read_data[16] read_data[17] read_data[18] read_data[19]
+ read_data[1] read_data[20] read_data[21] read_data[22] read_data[23]
+ read_data[24] read_data[25] read_data[26] read_data[27] read_data[28]
+ read_data[29] read_data[2] read_data[30] read_data[31] read_data[3]
+ read_data[4] read_data[5] read_data[6] read_data[7] read_data[8]
+ read_data[9] read_done read_err read_req read_sel[0] read_sel[1]
+ read_sel[2] read_sel[3] rst_n wb_ack_i wb_adr_o[0] wb_adr_o[10]
+ wb_adr_o[11] wb_adr_o[12] wb_adr_o[13] wb_adr_o[14] wb_adr_o[15]
+ wb_adr_o[16] wb_adr_o[17] wb_adr_o[18] wb_adr_o[19] wb_adr_o[1]
+ wb_adr_o[20] wb_adr_o[21] wb_adr_o[22] wb_adr_o[23] wb_adr_o[24]
+ wb_adr_o[25] wb_adr_o[26] wb_adr_o[27] wb_adr_o[28] wb_adr_o[29]
+ wb_adr_o[2] wb_adr_o[30] wb_adr_o[31] wb_adr_o[3] wb_adr_o[4]
+ wb_adr_o[5] wb_adr_o[6] wb_adr_o[7] wb_adr_o[8] wb_adr_o[9]
+ wb_cyc_o wb_dat_i[0] wb_dat_i[10] wb_dat_i[11] wb_dat_i[12]
+ wb_dat_i[13] wb_dat_i[14] wb_dat_i[15] wb_dat_i[16] wb_dat_i[17]
+ wb_dat_i[18] wb_dat_i[19] wb_dat_i[1] wb_dat_i[20] wb_dat_i[21]
+ wb_dat_i[22] wb_dat_i[23] wb_dat_i[24] wb_dat_i[25] wb_dat_i[26]
+ wb_dat_i[27] wb_dat_i[28] wb_dat_i[29] wb_dat_i[2] wb_dat_i[30]
+ wb_dat_i[31] wb_dat_i[3] wb_dat_i[4] wb_dat_i[5] wb_dat_i[6]
+ wb_dat_i[7] wb_dat_i[8] wb_dat_i[9] wb_dat_o[0] wb_dat_o[10]
+ wb_dat_o[11] wb_dat_o[12] wb_dat_o[13] wb_dat_o[14] wb_dat_o[15]
+ wb_dat_o[16] wb_dat_o[17] wb_dat_o[18] wb_dat_o[19] wb_dat_o[1]
+ wb_dat_o[20] wb_dat_o[21] wb_dat_o[22] wb_dat_o[23] wb_dat_o[24]
+ wb_dat_o[25] wb_dat_o[26] wb_dat_o[27] wb_dat_o[28] wb_dat_o[29]
+ wb_dat_o[2] wb_dat_o[30] wb_dat_o[31] wb_dat_o[3] wb_dat_o[4]
+ wb_dat_o[5] wb_dat_o[6] wb_dat_o[7] wb_dat_o[8] wb_dat_o[9]
+ wb_err_i wb_rty_i wb_sel_o[0] wb_sel_o[1] wb_sel_o[2] wb_sel_o[3]
+ wb_stb_o wb_tgd_i[0] wb_tgd_o[0] wb_we_o write_addr[0] write_addr[10]
+ write_addr[11] write_addr[12] write_addr[13] write_addr[14]
+ write_addr[15] write_addr[16] write_addr[17] write_addr[18]
+ write_addr[19] write_addr[1] write_addr[20] write_addr[21]
+ write_addr[22] write_addr[23] write_addr[24] write_addr[25]
+ write_addr[26] write_addr[27] write_addr[28] write_addr[29]
+ write_addr[2] write_addr[30] write_addr[31] write_addr[3]
+ write_addr[4] write_addr[5] write_addr[6] write_addr[7] write_addr[8]
+ write_addr[9] write_data[0] write_data[10] write_data[11]
+ write_data[12] write_data[13] write_data[14] write_data[15]
+ write_data[16] write_data[17] write_data[18] write_data[19]
+ write_data[1] write_data[20] write_data[21] write_data[22]
+ write_data[23] write_data[24] write_data[25] write_data[26]
+ write_data[27] write_data[28] write_data[29] write_data[2]
+ write_data[30] write_data[31] write_data[3] write_data[4]
+ write_data[5] write_data[6] write_data[7] write_data[8] write_data[9]
+ write_done write_err write_req write_sel[0] write_sel[1] write_sel[2]
+ write_sel[3] VSS VDD
Xinput24 read_addr[2] VSS VSS VDD VDD net23 sky130_fd_sc_hd__clkdlybuf4s50_1
Xinput23 read_addr[29] VSS VSS VDD VDD net22 sky130_fd_sc_hd__clkdlybuf4s50_1
X_273_ net33 net260 VSS VSS VDD VDD _125_ sky130_fd_sc_hd__nor2_1
Xinput22 read_addr[28] VSS VSS VDD VDD net21 sky130_fd_sc_hd__clkdlybuf4s50_1
Xinput21 read_addr[27] VSS VSS VDD VDD net20 sky130_fd_sc_hd__clkdlybuf4s50_1
X_276_ net39 net73 net72 _003_ VSS VSS VDD VDD _128_ sky130_fd_sc_hd__nor4b_4
X_277_ retry_count\[3\] _006_ VSS VSS VDD VDD _129_ sky130_fd_sc_hd__nor2b_1
X_278_ _002_ _128_ _129_ VSS VSS VDD VDD _130_ sky130_fd_sc_hd__nor3_1
X_279_ _002_ _125_ _130_ VSS VSS VDD VDD _265_ sky130_fd_sc_hd__a21oi_1
X_280_ state\[0\] VSS VSS VDD VDD _000_ sky130_fd_sc_hd__inv_1
X_281_ retry_count\[0\] VSS VSS VDD VDD _007_ sky130_fd_sc_hd__inv_1
X_282_ state\[1\] VSS VSS VDD VDD _001_ sky130_fd_sc_hd__inv_1
X_283_ retry_count\[1\] VSS VSS VDD VDD _008_ sky130_fd_sc_hd__inv_1
X_284_ net39 _004_ VSS VSS VDD VDD _131_ sky130_fd_sc_hd__nand2_2
Xinput20 read_addr[26] VSS VSS VDD VDD net19 sky130_fd_sc_hd__clkdlybuf4s50_1
X_286_ net40 net143 _131_ VSS VSS VDD VDD _012_ sky130_fd_sc_hd__mux2_2
X_287_ net41 net144 _131_ VSS VSS VDD VDD _013_ sky130_fd_sc_hd__mux2_2
X_288_ net42 net145 _131_ VSS VSS VDD VDD _014_ sky130_fd_sc_hd__mux2_2
X_289_ net43 net146 _131_ VSS VSS VDD VDD _015_ sky130_fd_sc_hd__mux2_2
X_290_ net44 net147 _131_ VSS VSS VDD VDD _016_ sky130_fd_sc_hd__mux2_2
X_291_ net45 net148 _131_ VSS VSS VDD VDD _017_ sky130_fd_sc_hd__mux2_2
X_292_ net46 net149 _131_ VSS VSS VDD VDD _018_ sky130_fd_sc_hd__mux2_2
X_293_ net47 net150 _131_ VSS VSS VDD VDD _019_ sky130_fd_sc_hd__mux2_2
Xinput19 read_addr[25] VSS VSS VDD VDD net18 sky130_fd_sc_hd__clkdlybuf4s50_1
X_295_ net48 net151 _131_ VSS VSS VDD VDD _020_ sky130_fd_sc_hd__mux2_2
X_296_ net49 net152 _131_ VSS VSS VDD VDD _021_ sky130_fd_sc_hd__mux2_2
X_297_ net50 net153 _131_ VSS VSS VDD VDD _022_ sky130_fd_sc_hd__mux2_2
X_298_ net51 net154 _131_ VSS VSS VDD VDD _023_ sky130_fd_sc_hd__mux2_2
X_299_ net52 net155 _131_ VSS VSS VDD VDD _024_ sky130_fd_sc_hd__mux2_2
X_300_ net53 net156 _131_ VSS VSS VDD VDD _025_ sky130_fd_sc_hd__mux2_2
X_301_ net54 net157 _131_ VSS VSS VDD VDD _026_ sky130_fd_sc_hd__mux2_2
X_302_ net55 net158 _131_ VSS VSS VDD VDD _027_ sky130_fd_sc_hd__mux2_2
X_303_ net56 net159 _131_ VSS VSS VDD VDD _028_ sky130_fd_sc_hd__mux2_2
X_304_ net57 net160 _131_ VSS VSS VDD VDD _029_ sky130_fd_sc_hd__mux2_2
Xinput18 read_addr[24] VSS VSS VDD VDD net17 sky130_fd_sc_hd__clkdlybuf4s50_1
X_306_ net58 net161 _131_ VSS VSS VDD VDD _030_ sky130_fd_sc_hd__mux2_2
X_307_ net59 net162 _131_ VSS VSS VDD VDD _031_ sky130_fd_sc_hd__mux2_2
X_308_ net60 net163 _131_ VSS VSS VDD VDD _032_ sky130_fd_sc_hd__mux2_2
X_309_ net61 net164 _131_ VSS VSS VDD VDD _033_ sky130_fd_sc_hd__mux2_2
X_310_ net62 net165 _131_ VSS VSS VDD VDD _034_ sky130_fd_sc_hd__mux2_2
X_311_ net63 net166 _131_ VSS VSS VDD VDD _035_ sky130_fd_sc_hd__mux2_2
X_312_ net64 net167 _131_ VSS VSS VDD VDD _036_ sky130_fd_sc_hd__mux2_2
X_313_ net65 net168 _131_ VSS VSS VDD VDD _037_ sky130_fd_sc_hd__mux2_2
X_314_ net66 net169 _131_ VSS VSS VDD VDD _038_ sky130_fd_sc_hd__mux2_2
X_315_ net67 net170 _131_ VSS VSS VDD VDD _039_ sky130_fd_sc_hd__mux2_2
X_316_ net68 net171 _131_ VSS VSS VDD VDD _040_ sky130_fd_sc_hd__mux2_2
X_317_ net69 net172 _131_ VSS VSS VDD VDD _041_ sky130_fd_sc_hd__mux2_2
X_318_ net70 net173 _131_ VSS VSS VDD VDD _042_ sky130_fd_sc_hd__mux2_2
X_319_ net71 net174 _131_ VSS VSS VDD VDD _043_ sky130_fd_sc_hd__mux2_2
X_320_ net33 VSS VSS VDD VDD _135_ sky130_fd_sc_hd__inv_1
X_321_ _135_ net260 _002_ VSS VSS VDD VDD _136_ sky130_fd_sc_hd__o21ai_1
X_322_ net39 _136_ net175 VSS VSS VDD VDD _137_ sky130_fd_sc_hd__a21oi_1
Xinput17 read_addr[23] VSS VSS VDD VDD net16 sky130_fd_sc_hd__clkdlybuf4s50_1
X_324_ net260 _002_ net33 VSS VSS VDD VDD _139_ sky130_fd_sc_hd__nand3b_1
X_325_ net175 _139_ _004_ VSS VSS VDD VDD _140_ sky130_fd_sc_hd__a21oi_1
X_326_ _137_ _140_ VSS VSS VDD VDD _044_ sky130_fd_sc_hd__nor2_1
Xinput16 read_addr[22] VSS VSS VDD VDD net15 sky130_fd_sc_hd__clkdlybuf4s50_1
X_328_ _006_ _005_ _004_ VSS VSS VDD VDD _142_ sky130_fd_sc_hd__nor3_1
X_329_ retry_count\[3\] VSS VSS VDD VDD _143_ sky130_fd_sc_hd__inv_1
X_330_ _143_ net247 _006_ VSS VSS VDD VDD _144_ sky130_fd_sc_hd__o21ai_0
X_331_ net39 net72 VSS VSS VDD VDD _145_ sky130_fd_sc_hd__nor2_1
X_332_ _004_ _145_ _005_ VSS VSS VDD VDD _146_ sky130_fd_sc_hd__a21oi_1
X_333_ _131_ _136_ _144_ _146_ net176 VSS VSS VDD VDD _147_
+ sky130_fd_sc_hd__a41oi_1
X_334_ _131_ _136_ _142_ _147_ VSS VSS VDD VDD _045_ sky130_fd_sc_hd__a31oi_1
X_335_ net73 _145_ VSS VSS VDD VDD _148_ sky130_fd_sc_hd__nand2_1
X_336_ _003_ _148_ _006_ VSS VSS VDD VDD _149_ sky130_fd_sc_hd__a21oi_1
X_337_ net39 net72 net73 VSS VSS VDD VDD _150_ sky130_fd_sc_hd__nor3b_2
X_338_ _006_ _003_ _150_ VSS VSS VDD VDD _151_ sky130_fd_sc_hd__nand3b_1
X_339_ _149_ _151_ _007_ VSS VSS VDD VDD _046_ sky130_fd_sc_hd__mux2i_1
X_340_ _010_ VSS VSS VDD VDD _152_ sky130_fd_sc_hd__inv_1
X_341_ _008_ _149_ _151_ _152_ VSS VSS VDD VDD _047_ sky130_fd_sc_hd__o22ai_1
X_342_ _011_ _150_ VSS VSS VDD VDD _153_ sky130_fd_sc_hd__nand2_1
X_343_ _006_ retry_count\[2\] VSS VSS VDD VDD _154_ sky130_fd_sc_hd__nor2_1
X_344_ _003_ _154_ VSS VSS VDD VDD _155_ sky130_fd_sc_hd__nand2_1
X_345_ _003_ _153_ _006_ VSS VSS VDD VDD _156_ sky130_fd_sc_hd__a21oi_1
X_346_ retry_count\[2\] VSS VSS VDD VDD _157_ sky130_fd_sc_hd__inv_1
X_347_ _153_ _155_ _156_ _157_ VSS VSS VDD VDD _048_ sky130_fd_sc_hd__o22ai_1
X_348_ retry_count\[2\] retry_count\[0\] retry_count\[1\]
+ _150_ VSS VSS VDD VDD _158_ sky130_fd_sc_hd__nand4_1
X_349_ _006_ retry_count\[3\] VSS VSS VDD VDD _159_ sky130_fd_sc_hd__nor2_1
X_350_ _003_ _159_ VSS VSS VDD VDD _160_ sky130_fd_sc_hd__nand2_1
X_351_ _003_ _158_ _006_ VSS VSS VDD VDD _161_ sky130_fd_sc_hd__a21oi_1
X_352_ _158_ _160_ _161_ _143_ VSS VSS VDD VDD _049_ sky130_fd_sc_hd__o22ai_1
X_353_ _003_ _145_ _129_ net247 _002_ VSS VSS VDD VDD _162_
+ sky130_fd_sc_hd__a221oi_1
X_354_ net260 _002_ VSS VSS VDD VDD _163_ sky130_fd_sc_hd__nor2b_1
X_355_ _002_ _125_ _128_ VSS VSS VDD VDD _164_ sky130_fd_sc_hd__a21o_1
X_356_ state\[0\] _164_ VSS VSS VDD VDD _165_ sky130_fd_sc_hd__nand2_1
X_357_ _128_ _162_ _163_ _165_ VSS VSS VDD VDD _050_ sky130_fd_sc_hd__o31ai_1
X_358_ net247 VSS VSS VDD VDD _166_ sky130_fd_sc_hd__inv_1
X_359_ _003_ _145_ _129_ _166_ _002_ VSS VSS VDD VDD _167_
+ sky130_fd_sc_hd__a221oi_1
X_360_ net260 _002_ VSS VSS VDD VDD _168_ sky130_fd_sc_hd__nand2_2
X_361_ _164_ net257 VSS VSS VDD VDD _169_ sky130_fd_sc_hd__nand2b_1
X_362_ state\[1\] _164_ VSS VSS VDD VDD _170_ sky130_fd_sc_hd__nand2_1
X_363_ _167_ _169_ _170_ VSS VSS VDD VDD _051_ sky130_fd_sc_hd__o21ai_0
X_364_ net33 net260 _002_ VSS VSS VDD VDD _171_ sky130_fd_sc_hd__o21ai_4
Xinput15 read_addr[21] VSS VSS VDD VDD net14 sky130_fd_sc_hd__clkdlybuf4s50_1
Xinput14 read_addr[20] VSS VSS VDD VDD net13 sky130_fd_sc_hd__clkdlybuf4s50_1
X_367_ net1 net74 net260 VSS VSS VDD VDD _174_ sky130_fd_sc_hd__mux2i_1
Xinput13 read_addr[1] VSS VSS VDD VDD net12 sky130_fd_sc_hd__clkdlybuf4s50_1
X_369_ net177 net256 VSS VSS VDD VDD _176_ sky130_fd_sc_hd__nand2_1
X_370_ net256 _174_ _176_ VSS VSS VDD VDD _052_ sky130_fd_sc_hd__o21ai_0
X_371_ net2 net75 net260 VSS VSS VDD VDD _177_ sky130_fd_sc_hd__mux2i_1
X_372_ net178 net256 VSS VSS VDD VDD _178_ sky130_fd_sc_hd__nand2_1
X_373_ net256 _177_ _178_ VSS VSS VDD VDD _053_ sky130_fd_sc_hd__o21ai_0
X_374_ net3 net76 net260 VSS VSS VDD VDD _179_ sky130_fd_sc_hd__mux2i_1
X_375_ net179 net256 VSS VSS VDD VDD _180_ sky130_fd_sc_hd__nand2_1
X_376_ net256 _179_ _180_ VSS VSS VDD VDD _054_ sky130_fd_sc_hd__o21ai_0
X_377_ net4 net77 net260 VSS VSS VDD VDD _181_ sky130_fd_sc_hd__mux2i_1
X_378_ net180 net256 VSS VSS VDD VDD _182_ sky130_fd_sc_hd__nand2_1
X_379_ net256 _181_ _182_ VSS VSS VDD VDD _055_ sky130_fd_sc_hd__o21ai_0
Xinput12 read_addr[19] VSS VSS VDD VDD net11 sky130_fd_sc_hd__clkdlybuf4s50_1
X_381_ net5 net78 net260 VSS VSS VDD VDD _184_ sky130_fd_sc_hd__mux2i_1
X_382_ net181 net256 VSS VSS VDD VDD _185_ sky130_fd_sc_hd__nand2_1
X_383_ net256 _184_ _185_ VSS VSS VDD VDD _056_ sky130_fd_sc_hd__o21ai_1
X_384_ net6 net79 net260 VSS VSS VDD VDD _186_ sky130_fd_sc_hd__mux2i_1
X_385_ net182 net256 VSS VSS VDD VDD _187_ sky130_fd_sc_hd__nand2_1
X_386_ net256 _186_ _187_ VSS VSS VDD VDD _057_ sky130_fd_sc_hd__o21ai_0
X_387_ net7 net80 net260 VSS VSS VDD VDD _188_ sky130_fd_sc_hd__mux2i_1
X_388_ net183 net256 VSS VSS VDD VDD _189_ sky130_fd_sc_hd__nand2_1
X_389_ net256 _188_ _189_ VSS VSS VDD VDD _058_ sky130_fd_sc_hd__o21ai_0
X_390_ net8 net81 net260 VSS VSS VDD VDD _190_ sky130_fd_sc_hd__mux2i_1
X_391_ net184 net256 VSS VSS VDD VDD _191_ sky130_fd_sc_hd__nand2_1
X_392_ net256 _190_ _191_ VSS VSS VDD VDD _059_ sky130_fd_sc_hd__o21ai_0
X_393_ net9 net82 net260 VSS VSS VDD VDD _192_ sky130_fd_sc_hd__mux2i_1
X_394_ net185 net256 VSS VSS VDD VDD _193_ sky130_fd_sc_hd__nand2_1
X_395_ net256 _192_ _193_ VSS VSS VDD VDD _060_ sky130_fd_sc_hd__o21ai_0
Xinput11 read_addr[18] VSS VSS VDD VDD net10 sky130_fd_sc_hd__clkdlybuf4s50_1
X_397_ net10 net83 net260 VSS VSS VDD VDD _195_ sky130_fd_sc_hd__mux2i_1
X_398_ net186 net256 VSS VSS VDD VDD _196_ sky130_fd_sc_hd__nand2_1
X_399_ net256 _195_ _196_ VSS VSS VDD VDD _061_ sky130_fd_sc_hd__o21ai_1
X_400_ net11 net84 net260 VSS VSS VDD VDD _197_ sky130_fd_sc_hd__mux2i_1
Xinput10 read_addr[17] VSS VSS VDD VDD net9 sky130_fd_sc_hd__clkdlybuf4s50_1
X_402_ net187 net256 VSS VSS VDD VDD _199_ sky130_fd_sc_hd__nand2_1
X_403_ net256 _197_ _199_ VSS VSS VDD VDD _062_ sky130_fd_sc_hd__o21ai_1
X_404_ net12 net85 net260 VSS VSS VDD VDD _200_ sky130_fd_sc_hd__mux2i_1
X_405_ net188 net256 VSS VSS VDD VDD _201_ sky130_fd_sc_hd__nand2_1
X_406_ net256 _200_ _201_ VSS VSS VDD VDD _063_ sky130_fd_sc_hd__o21ai_1
X_407_ net13 net86 net260 VSS VSS VDD VDD _202_ sky130_fd_sc_hd__mux2i_1
X_408_ net189 net256 VSS VSS VDD VDD _203_ sky130_fd_sc_hd__nand2_1
X_409_ net256 _202_ _203_ VSS VSS VDD VDD _064_ sky130_fd_sc_hd__o21ai_0
X_410_ net14 net87 net260 VSS VSS VDD VDD _204_ sky130_fd_sc_hd__mux2i_1
X_411_ net190 net256 VSS VSS VDD VDD _205_ sky130_fd_sc_hd__nand2_1
X_412_ net256 _204_ _205_ VSS VSS VDD VDD _065_ sky130_fd_sc_hd__o21ai_0
Xinput9 read_addr[16] VSS VSS VDD VDD net8 sky130_fd_sc_hd__clkdlybuf4s50_1
X_414_ net15 net88 net260 VSS VSS VDD VDD _207_ sky130_fd_sc_hd__mux2i_1
X_415_ net191 net256 VSS VSS VDD VDD _208_ sky130_fd_sc_hd__nand2_1
X_416_ net256 _207_ _208_ VSS VSS VDD VDD _066_ sky130_fd_sc_hd__o21ai_1
X_417_ net16 net89 net260 VSS VSS VDD VDD _209_ sky130_fd_sc_hd__mux2i_1
X_418_ net192 net256 VSS VSS VDD VDD _210_ sky130_fd_sc_hd__nand2_1
X_419_ net256 _209_ _210_ VSS VSS VDD VDD _067_ sky130_fd_sc_hd__o21ai_0
X_420_ net17 net90 net260 VSS VSS VDD VDD _211_ sky130_fd_sc_hd__mux2i_1
X_421_ net193 net256 VSS VSS VDD VDD _212_ sky130_fd_sc_hd__nand2_1
X_422_ net256 _211_ _212_ VSS VSS VDD VDD _068_ sky130_fd_sc_hd__o21ai_1
X_423_ net18 net91 net260 VSS VSS VDD VDD _213_ sky130_fd_sc_hd__mux2i_1
X_424_ net194 net256 VSS VSS VDD VDD _214_ sky130_fd_sc_hd__nand2_1
X_425_ net256 _213_ _214_ VSS VSS VDD VDD _069_ sky130_fd_sc_hd__o21ai_0
X_426_ net19 net92 net260 VSS VSS VDD VDD _215_ sky130_fd_sc_hd__mux2i_1
X_427_ net195 net256 VSS VSS VDD VDD _216_ sky130_fd_sc_hd__nand2_1
X_428_ net256 _215_ _216_ VSS VSS VDD VDD _070_ sky130_fd_sc_hd__o21ai_1
Xinput8 read_addr[15] VSS VSS VDD VDD net7 sky130_fd_sc_hd__clkdlybuf4s50_1
X_430_ net20 net93 net260 VSS VSS VDD VDD _218_ sky130_fd_sc_hd__mux2i_1
X_431_ net196 net256 VSS VSS VDD VDD _219_ sky130_fd_sc_hd__nand2_1
X_432_ net256 _218_ _219_ VSS VSS VDD VDD _071_ sky130_fd_sc_hd__o21ai_0
X_433_ net21 net94 net260 VSS VSS VDD VDD _220_ sky130_fd_sc_hd__mux2i_1
Xinput7 read_addr[14] VSS VSS VDD VDD net6 sky130_fd_sc_hd__clkdlybuf4s50_1
X_435_ net197 net256 VSS VSS VDD VDD _222_ sky130_fd_sc_hd__nand2_1
X_436_ net256 _220_ _222_ VSS VSS VDD VDD _072_ sky130_fd_sc_hd__o21ai_0
X_437_ net22 net95 net260 VSS VSS VDD VDD _223_ sky130_fd_sc_hd__mux2i_1
X_438_ net198 net256 VSS VSS VDD VDD _224_ sky130_fd_sc_hd__nand2_1
X_439_ net256 _223_ _224_ VSS VSS VDD VDD _073_ sky130_fd_sc_hd__o21ai_0
X_440_ net23 net96 net260 VSS VSS VDD VDD _225_ sky130_fd_sc_hd__mux2i_1
X_441_ net199 net256 VSS VSS VDD VDD _226_ sky130_fd_sc_hd__nand2_1
X_442_ net256 _225_ _226_ VSS VSS VDD VDD _074_ sky130_fd_sc_hd__o21ai_0
X_443_ net24 net97 net260 VSS VSS VDD VDD _227_ sky130_fd_sc_hd__mux2i_1
X_444_ net200 net256 VSS VSS VDD VDD _228_ sky130_fd_sc_hd__nand2_1
X_445_ net256 _227_ _228_ VSS VSS VDD VDD _075_ sky130_fd_sc_hd__o21ai_0
Xinput6 read_addr[13] VSS VSS VDD VDD net5 sky130_fd_sc_hd__clkdlybuf4s50_1
X_447_ net25 net98 net260 VSS VSS VDD VDD _230_ sky130_fd_sc_hd__mux2i_1
X_448_ net201 net256 VSS VSS VDD VDD _231_ sky130_fd_sc_hd__nand2_1
X_449_ net256 _230_ _231_ VSS VSS VDD VDD _076_ sky130_fd_sc_hd__o21ai_0
X_450_ net26 net99 net260 VSS VSS VDD VDD _232_ sky130_fd_sc_hd__mux2i_1
X_451_ net202 net256 VSS VSS VDD VDD _233_ sky130_fd_sc_hd__nand2_1
X_452_ net256 _232_ _233_ VSS VSS VDD VDD _077_ sky130_fd_sc_hd__o21ai_0
X_453_ net27 net100 net260 VSS VSS VDD VDD _234_ sky130_fd_sc_hd__mux2i_1
X_454_ net203 net256 VSS VSS VDD VDD _235_ sky130_fd_sc_hd__nand2_1
X_455_ net256 _234_ _235_ VSS VSS VDD VDD _078_ sky130_fd_sc_hd__o21ai_0
X_456_ net28 net101 net260 VSS VSS VDD VDD _236_ sky130_fd_sc_hd__mux2i_1
X_457_ net204 net256 VSS VSS VDD VDD _237_ sky130_fd_sc_hd__nand2_1
X_458_ net256 _236_ _237_ VSS VSS VDD VDD _079_ sky130_fd_sc_hd__o21ai_0
X_459_ net29 net102 net260 VSS VSS VDD VDD _238_ sky130_fd_sc_hd__mux2i_1
X_460_ net205 net256 VSS VSS VDD VDD _239_ sky130_fd_sc_hd__nand2_1
X_461_ net256 _238_ _239_ VSS VSS VDD VDD _080_ sky130_fd_sc_hd__o21ai_0
X_462_ net30 net103 net260 VSS VSS VDD VDD _240_ sky130_fd_sc_hd__mux2i_1
X_463_ net206 net256 VSS VSS VDD VDD _241_ sky130_fd_sc_hd__nand2_1
X_464_ net256 _240_ _241_ VSS VSS VDD VDD _081_ sky130_fd_sc_hd__o21ai_0
X_465_ net31 net104 net260 VSS VSS VDD VDD _242_ sky130_fd_sc_hd__mux2i_1
X_466_ net207 net256 VSS VSS VDD VDD _243_ sky130_fd_sc_hd__nand2_1
X_467_ net256 _242_ _243_ VSS VSS VDD VDD _082_ sky130_fd_sc_hd__o21ai_0
X_468_ net32 net105 net260 VSS VSS VDD VDD _244_ sky130_fd_sc_hd__mux2i_1
X_469_ net208 net256 VSS VSS VDD VDD _245_ sky130_fd_sc_hd__nand2_1
X_470_ net256 _244_ _245_ VSS VSS VDD VDD _083_ sky130_fd_sc_hd__o21ai_0
Xinput5 read_addr[12] VSS VSS VDD VDD net4 sky130_fd_sc_hd__clkdlybuf4s50_1
X_472_ net106 net210 net257 VSS VSS VDD VDD _084_ sky130_fd_sc_hd__mux2_4
X_473_ net107 net211 net257 VSS VSS VDD VDD _085_ sky130_fd_sc_hd__mux2_4
X_474_ net108 net212 net257 VSS VSS VDD VDD _086_ sky130_fd_sc_hd__mux2_4
X_475_ net109 net213 net257 VSS VSS VDD VDD _087_ sky130_fd_sc_hd__mux2_4
X_476_ net110 net214 net257 VSS VSS VDD VDD _088_ sky130_fd_sc_hd__mux2_4
X_477_ net111 net215 net257 VSS VSS VDD VDD _089_ sky130_fd_sc_hd__mux2_4
X_478_ net112 net216 net257 VSS VSS VDD VDD _090_ sky130_fd_sc_hd__mux2_4
X_479_ net113 net217 net257 VSS VSS VDD VDD _091_ sky130_fd_sc_hd__mux2_4
Xinput4 read_addr[11] VSS VSS VDD VDD net3 sky130_fd_sc_hd__clkdlybuf4s50_1
X_481_ net114 net218 net257 VSS VSS VDD VDD _092_ sky130_fd_sc_hd__mux2_4
X_482_ net115 net219 net257 VSS VSS VDD VDD _093_ sky130_fd_sc_hd__mux2_4
X_483_ net116 net220 net257 VSS VSS VDD VDD _094_ sky130_fd_sc_hd__mux2_4
X_484_ net117 net221 net257 VSS VSS VDD VDD _095_ sky130_fd_sc_hd__mux2_4
X_485_ net118 net222 net257 VSS VSS VDD VDD _096_ sky130_fd_sc_hd__mux2_4
X_486_ net119 net223 net257 VSS VSS VDD VDD _097_ sky130_fd_sc_hd__mux2_4
X_487_ net120 net224 net257 VSS VSS VDD VDD _098_ sky130_fd_sc_hd__mux2_4
X_488_ net121 net225 net257 VSS VSS VDD VDD _099_ sky130_fd_sc_hd__mux2_4
X_489_ net122 net226 net257 VSS VSS VDD VDD _100_ sky130_fd_sc_hd__mux2_4
X_490_ net123 net227 net257 VSS VSS VDD VDD _101_ sky130_fd_sc_hd__mux2_4
Xinput3 read_addr[10] VSS VSS VDD VDD net2 sky130_fd_sc_hd__clkdlybuf4s50_1
X_492_ net124 net228 net257 VSS VSS VDD VDD _102_ sky130_fd_sc_hd__mux2_4
X_493_ net125 net229 net257 VSS VSS VDD VDD _103_ sky130_fd_sc_hd__mux2_4
X_494_ net126 net230 net257 VSS VSS VDD VDD _104_ sky130_fd_sc_hd__mux2_4
X_495_ net127 net231 net257 VSS VSS VDD VDD _105_ sky130_fd_sc_hd__mux2_4
X_496_ net128 net232 net257 VSS VSS VDD VDD _106_ sky130_fd_sc_hd__mux2_4
X_497_ net129 net233 net257 VSS VSS VDD VDD _107_ sky130_fd_sc_hd__mux2_4
X_498_ net130 net234 net257 VSS VSS VDD VDD _108_ sky130_fd_sc_hd__mux2_4
X_499_ net131 net235 net257 VSS VSS VDD VDD _109_ sky130_fd_sc_hd__mux2_4
X_500_ net132 net236 net257 VSS VSS VDD VDD _110_ sky130_fd_sc_hd__mux2_4
X_501_ net133 net237 net257 VSS VSS VDD VDD _111_ sky130_fd_sc_hd__mux2_4
X_502_ net134 net238 net257 VSS VSS VDD VDD _112_ sky130_fd_sc_hd__mux2_2
X_503_ net135 net239 net257 VSS VSS VDD VDD _113_ sky130_fd_sc_hd__mux2_2
X_504_ net136 net240 net257 VSS VSS VDD VDD _114_ sky130_fd_sc_hd__mux2_2
X_505_ net137 net241 net257 VSS VSS VDD VDD _115_ sky130_fd_sc_hd__mux2_2
X_506_ net34 net139 net260 VSS VSS VDD VDD _249_ sky130_fd_sc_hd__mux2i_1
X_507_ net242 net256 VSS VSS VDD VDD _250_ sky130_fd_sc_hd__nand2_1
X_508_ net256 _249_ _250_ VSS VSS VDD VDD _116_ sky130_fd_sc_hd__o21ai_0
X_509_ net35 net140 net260 VSS VSS VDD VDD _251_ sky130_fd_sc_hd__mux2i_1
X_510_ net243 net256 VSS VSS VDD VDD _252_ sky130_fd_sc_hd__nand2_1
X_511_ net256 _251_ _252_ VSS VSS VDD VDD _117_ sky130_fd_sc_hd__o21ai_0
X_512_ net36 net141 net260 VSS VSS VDD VDD _253_ sky130_fd_sc_hd__mux2i_1
X_513_ net244 net256 VSS VSS VDD VDD _254_ sky130_fd_sc_hd__nand2_1
X_514_ net256 _253_ _254_ VSS VSS VDD VDD _118_ sky130_fd_sc_hd__o21ai_0
X_515_ net37 net142 net260 VSS VSS VDD VDD _255_ sky130_fd_sc_hd__mux2i_1
X_516_ net245 net256 VSS VSS VDD VDD _256_ sky130_fd_sc_hd__nand2_1
X_517_ net256 _255_ _256_ VSS VSS VDD VDD _119_ sky130_fd_sc_hd__o21ai_0
X_518_ net33 _002_ VSS VSS VDD VDD _257_ sky130_fd_sc_hd__and2_1
X_519_ _166_ _257_ net257 VSS VSS VDD VDD _120_ sky130_fd_sc_hd__o21ai_0
X_520_ net248 _005_ net260 VSS VSS VDD VDD _258_ sky130_fd_sc_hd__mux2i_1
X_521_ net39 _005_ net248 VSS VSS VDD VDD _259_ sky130_fd_sc_hd__a21oi_1
X_522_ _002_ _258_ _259_ VSS VSS VDD VDD _121_ sky130_fd_sc_hd__a21oi_1
X_523_ retry_count\[3\] net247 VSS VSS VDD VDD _260_ sky130_fd_sc_hd__nand2_1
X_524_ net39 net72 VSS VSS VDD VDD _261_ sky130_fd_sc_hd__nand2b_1
X_525_ _006_ _260_ _261_ _005_ _163_ VSS VSS VDD VDD _262_
+ sky130_fd_sc_hd__a221oi_2
X_526_ net249 _262_ VSS VSS VDD VDD _263_ sky130_fd_sc_hd__nor2_1
X_527_ net249 net257 _006_ _005_ VSS VSS VDD VDD _264_ sky130_fd_sc_hd__a211oi_1
X_528_ _263_ _264_ VSS VSS VDD VDD _122_ sky130_fd_sc_hd__nor2_1
X_529_ _000_ _001_ VSS VSS VDD VDD _002_ _003_ sky130_fd_sc_hd__ha_1
X_530_ _000_ state\[1\] VSS VSS VDD VDD _004_ _266_ sky130_fd_sc_hd__ha_1
X_531_ state\[0\] _001_ VSS VSS VDD VDD _005_ _267_ sky130_fd_sc_hd__ha_1
X_532_ state\[0\] state\[1\] VSS VSS VDD VDD _006_ _268_ sky130_fd_sc_hd__ha_1
X_533_ _007_ _008_ VSS VSS VDD VDD _009_ _010_ sky130_fd_sc_hd__ha_1
X_534_ retry_count\[0\] retry_count\[1\] VSS VSS VDD VDD _011_
+ _269_ sky130_fd_sc_hd__ha_1
XTAP_TAPCELL_ROW_0_0 VSS VDD sky130_fd_sc_hd__tapvpwrvgnd_1
Xplace261 net138 VSS VSS VDD VDD net260 sky130_fd_sc_hd__buf_4
Xinput2 read_addr[0] VSS VSS VDD VDD net1 sky130_fd_sc_hd__clkdlybuf4s50_1
Xread_data\[0\]$_DFFE_PN0P_ clknet_3_0__leaf_clk _012_ net258
+ VSS VSS VDD VDD net143 sky130_fd_sc_hd__dfrtp_1
Xread_data\[10\]$_DFFE_PN0P_ clknet_3_0__leaf_clk _013_ net258
+ VSS VSS VDD VDD net144 sky130_fd_sc_hd__dfrtp_1
Xread_data\[11\]$_DFFE_PN0P_ clknet_3_1__leaf_clk _014_ net259
+ VSS VSS VDD VDD net145 sky130_fd_sc_hd__dfrtp_1
Xread_data\[12\]$_DFFE_PN0P_ clknet_3_0__leaf_clk _015_ net259
+ VSS VSS VDD VDD net146 sky130_fd_sc_hd__dfrtp_1
Xread_data\[13\]$_DFFE_PN0P_ clknet_3_0__leaf_clk _016_ net258
+ VSS VSS VDD VDD net147 sky130_fd_sc_hd__dfrtp_1
Xread_data\[14\]$_DFFE_PN0P_ clknet_3_0__leaf_clk _017_ net259
+ VSS VSS VDD VDD net148 sky130_fd_sc_hd__dfrtp_1
Xread_data\[15\]$_DFFE_PN0P_ clknet_3_0__leaf_clk _018_ net259
+ VSS VSS VDD VDD net149 sky130_fd_sc_hd__dfrtp_1
Xread_data\[16\]$_DFFE_PN0P_ clknet_3_0__leaf_clk _019_ net258
+ VSS VSS VDD VDD net150 sky130_fd_sc_hd__dfrtp_1
Xread_data\[17\]$_DFFE_PN0P_ clknet_3_2__leaf_clk _020_ net38
+ VSS VSS VDD VDD net151 sky130_fd_sc_hd__dfrtp_1
Xread_data\[18\]$_DFFE_PN0P_ clknet_3_3__leaf_clk _021_ net38
+ VSS VSS VDD VDD net152 sky130_fd_sc_hd__dfrtp_1
Xread_data\[19\]$_DFFE_PN0P_ clknet_3_3__leaf_clk _022_ net38
+ VSS VSS VDD VDD net153 sky130_fd_sc_hd__dfrtp_1
Xread_data\[1\]$_DFFE_PN0P_ clknet_3_2__leaf_clk _023_ net38
+ VSS VSS VDD VDD net154 sky130_fd_sc_hd__dfrtp_1
Xread_data\[20\]$_DFFE_PN0P_ clknet_3_3__leaf_clk _024_ net38
+ VSS VSS VDD VDD net155 sky130_fd_sc_hd__dfrtp_1
Xread_data\[21\]$_DFFE_PN0P_ clknet_3_2__leaf_clk _025_ net38
+ VSS VSS VDD VDD net156 sky130_fd_sc_hd__dfrtp_1
Xread_data\[22\]$_DFFE_PN0P_ clknet_3_2__leaf_clk _026_ net38
+ VSS VSS VDD VDD net157 sky130_fd_sc_hd__dfrtp_1
Xread_data\[23\]$_DFFE_PN0P_ clknet_3_2__leaf_clk _027_ net38
+ VSS VSS VDD VDD net158 sky130_fd_sc_hd__dfrtp_1
Xread_data\[24\]$_DFFE_PN0P_ clknet_3_2__leaf_clk _028_ net38
+ VSS VSS VDD VDD net159 sky130_fd_sc_hd__dfrtp_1
Xread_data\[25\]$_DFFE_PN0P_ clknet_3_3__leaf_clk _029_ net38
+ VSS VSS VDD VDD net160 sky130_fd_sc_hd__dfrtp_1
Xread_data\[26\]$_DFFE_PN0P_ clknet_3_2__leaf_clk _030_ net38
+ VSS VSS VDD VDD net161 sky130_fd_sc_hd__dfrtp_1
Xread_data\[27\]$_DFFE_PN0P_ clknet_3_3__leaf_clk _031_ net38
+ VSS VSS VDD VDD net162 sky130_fd_sc_hd__dfrtp_1
Xread_data\[28\]$_DFFE_PN0P_ clknet_3_3__leaf_clk _032_ net38
+ VSS VSS VDD VDD net163 sky130_fd_sc_hd__dfrtp_1
Xread_data\[29\]$_DFFE_PN0P_ clknet_3_3__leaf_clk _033_ net38
+ VSS VSS VDD VDD net164 sky130_fd_sc_hd__dfrtp_1
Xread_data\[2\]$_DFFE_PN0P_ clknet_3_3__leaf_clk _034_ net38
+ VSS VSS VDD VDD net165 sky130_fd_sc_hd__dfrtp_1
Xread_data\[30\]$_DFFE_PN0P_ clknet_3_3__leaf_clk _035_ net38
+ VSS VSS VDD VDD net166 sky130_fd_sc_hd__dfrtp_1
Xread_data\[31\]$_DFFE_PN0P_ clknet_3_3__leaf_clk _036_ net38
+ VSS VSS VDD VDD net167 sky130_fd_sc_hd__dfrtp_1
Xread_data\[3\]$_DFFE_PN0P_ clknet_3_3__leaf_clk _037_ net38
+ VSS VSS VDD VDD net168 sky130_fd_sc_hd__dfrtp_1
Xread_data\[4\]$_DFFE_PN0P_ clknet_3_3__leaf_clk _038_ net38
+ VSS VSS VDD VDD net169 sky130_fd_sc_hd__dfrtp_1
Xread_data\[5\]$_DFFE_PN0P_ clknet_3_3__leaf_clk _039_ net38
+ VSS VSS VDD VDD net170 sky130_fd_sc_hd__dfrtp_1
Xread_data\[6\]$_DFFE_PN0P_ clknet_3_0__leaf_clk _040_ net258
+ VSS VSS VDD VDD net171 sky130_fd_sc_hd__dfrtp_1
Xread_data\[7\]$_DFFE_PN0P_ clknet_3_0__leaf_clk _041_ net258
+ VSS VSS VDD VDD net172 sky130_fd_sc_hd__dfrtp_1
Xread_data\[8\]$_DFFE_PN0P_ clknet_3_1__leaf_clk _042_ net258
+ VSS VSS VDD VDD net173 sky130_fd_sc_hd__dfrtp_1
Xread_data\[9\]$_DFFE_PN0P_ clknet_3_0__leaf_clk _043_ net258
+ VSS VSS VDD VDD net174 sky130_fd_sc_hd__dfrtp_1
Xread_done$_DFFE_PN0P_ clknet_3_0__leaf_clk _044_ net258 VSS
+ VSS VDD VDD net175 sky130_fd_sc_hd__dfrtp_1
Xread_err$_DFFE_PN0P_ clknet_3_0__leaf_clk _045_ net258 VSS
+ VSS VDD VDD net176 sky130_fd_sc_hd__dfrtp_1
Xretry_count\[0\]$_DFFE_PN0P_ clknet_3_1__leaf_clk _046_ net258
+ VSS VSS VDD VDD retry_count\[0\] sky130_fd_sc_hd__dfrtp_1
Xretry_count\[1\]$_DFFE_PN0P_ clknet_3_1__leaf_clk _047_ net258
+ VSS VSS VDD VDD retry_count\[1\] sky130_fd_sc_hd__dfrtp_1
Xretry_count\[2\]$_DFFE_PN0P_ clknet_3_1__leaf_clk _048_ net258
+ VSS VSS VDD VDD retry_count\[2\] sky130_fd_sc_hd__dfrtp_1
Xretry_count\[3\]$_DFFE_PN0P_ clknet_3_0__leaf_clk _049_ net258
+ VSS VSS VDD VDD retry_count\[3\] sky130_fd_sc_hd__dfrtp_1
Xstate\[0\]$_DFFE_PN0P_ clknet_3_1__leaf_clk _050_ net258
+ VSS VSS VDD VDD state\[0\] sky130_fd_sc_hd__dfrtp_1
Xstate\[1\]$_DFFE_PN0P_ clknet_3_1__leaf_clk _051_ net258
+ VSS VSS VDD VDD state\[1\] sky130_fd_sc_hd__dfrtp_1
Xwb_adr_o\[0\]$_DFFE_PN0P_ clknet_3_5__leaf_clk _052_ net259
+ VSS VSS VDD VDD net177 sky130_fd_sc_hd__dfrtp_1
Xwb_adr_o\[10\]$_DFFE_PN0P_ clknet_3_4__leaf_clk _053_ net259
+ VSS VSS VDD VDD net178 sky130_fd_sc_hd__dfrtp_1
Xwb_adr_o\[11\]$_DFFE_PN0P_ clknet_3_4__leaf_clk _054_ net259
+ VSS VSS VDD VDD net179 sky130_fd_sc_hd__dfrtp_1
Xwb_adr_o\[12\]$_DFFE_PN0P_ clknet_3_1__leaf_clk _055_ net259
+ VSS VSS VDD VDD net180 sky130_fd_sc_hd__dfrtp_1
Xwb_adr_o\[13\]$_DFFE_PN0P_ clknet_3_1__leaf_clk _056_ net259
+ VSS VSS VDD VDD net181 sky130_fd_sc_hd__dfrtp_1
Xwb_adr_o\[14\]$_DFFE_PN0P_ clknet_3_1__leaf_clk _057_ net259
+ VSS VSS VDD VDD net182 sky130_fd_sc_hd__dfrtp_1
Xwb_adr_o\[15\]$_DFFE_PN0P_ clknet_3_5__leaf_clk _058_ net259
+ VSS VSS VDD VDD net183 sky130_fd_sc_hd__dfrtp_1
Xwb_adr_o\[16\]$_DFFE_PN0P_ clknet_3_4__leaf_clk _059_ net259
+ VSS VSS VDD VDD net184 sky130_fd_sc_hd__dfrtp_1
Xwb_adr_o\[17\]$_DFFE_PN0P_ clknet_3_4__leaf_clk _060_ net259
+ VSS VSS VDD VDD net185 sky130_fd_sc_hd__dfrtp_1
Xwb_adr_o\[18\]$_DFFE_PN0P_ clknet_3_5__leaf_clk _061_ net259
+ VSS VSS VDD VDD net186 sky130_fd_sc_hd__dfrtp_1
Xwb_adr_o\[19\]$_DFFE_PN0P_ clknet_3_5__leaf_clk _062_ net259
+ VSS VSS VDD VDD net187 sky130_fd_sc_hd__dfrtp_1
Xwb_adr_o\[1\]$_DFFE_PN0P_ clknet_3_5__leaf_clk _063_ net259
+ VSS VSS VDD VDD net188 sky130_fd_sc_hd__dfrtp_1
Xwb_adr_o\[20\]$_DFFE_PN0P_ clknet_3_5__leaf_clk _064_ net259
+ VSS VSS VDD VDD net189 sky130_fd_sc_hd__dfrtp_1
Xwb_adr_o\[21\]$_DFFE_PN0P_ clknet_3_5__leaf_clk _065_ net259
+ VSS VSS VDD VDD net190 sky130_fd_sc_hd__dfrtp_1
Xwb_adr_o\[22\]$_DFFE_PN0P_ clknet_3_4__leaf_clk _066_ net259
+ VSS VSS VDD VDD net191 sky130_fd_sc_hd__dfrtp_1
Xwb_adr_o\[23\]$_DFFE_PN0P_ clknet_3_5__leaf_clk _067_ net259
+ VSS VSS VDD VDD net192 sky130_fd_sc_hd__dfrtp_1
Xwb_adr_o\[24\]$_DFFE_PN0P_ clknet_3_5__leaf_clk _068_ net259
+ VSS VSS VDD VDD net193 sky130_fd_sc_hd__dfrtp_1
Xwb_adr_o\[25\]$_DFFE_PN0P_ clknet_3_5__leaf_clk _069_ net259
+ VSS VSS VDD VDD net194 sky130_fd_sc_hd__dfrtp_1
Xwb_adr_o\[26\]$_DFFE_PN0P_ clknet_3_5__leaf_clk _070_ net259
+ VSS VSS VDD VDD net195 sky130_fd_sc_hd__dfrtp_1
Xwb_adr_o\[27\]$_DFFE_PN0P_ clknet_3_5__leaf_clk _071_ net259
+ VSS VSS VDD VDD net196 sky130_fd_sc_hd__dfrtp_1
Xwb_adr_o\[28\]$_DFFE_PN0P_ clknet_3_7__leaf_clk _072_ net259
+ VSS VSS VDD VDD net197 sky130_fd_sc_hd__dfrtp_1
Xwb_adr_o\[29\]$_DFFE_PN0P_ clknet_3_7__leaf_clk _073_ net259
+ VSS VSS VDD VDD net198 sky130_fd_sc_hd__dfrtp_1
Xwb_adr_o\[2\]$_DFFE_PN0P_ clknet_3_7__leaf_clk _074_ net259
+ VSS VSS VDD VDD net199 sky130_fd_sc_hd__dfrtp_1