* CDL Netlist generated by OpenROAD

*.BUSDELIMITER [

.SUBCKT wishbone_master clk read_addr[0] read_addr[10] read_addr[11]
+ read_addr[12] read_addr[13] read_addr[14] read_addr[15] read_addr[16]
+ read_addr[17] read_addr[18] read_addr[19] read_addr[1] read_addr[20]
+ read_addr[21] read_addr[22] read_addr[23] read_addr[24] read_addr[25]
+ read_addr[26] read_addr[27] read_addr[28] read_addr[29] read_addr[2]
+ read_addr[30] read_addr[31] read_addr[3] read_addr[4] read_addr[5]
+ read_addr[6] read_addr[7] read_addr[8] read_addr[9] read_data[0]
+ read_data[10] read_data[11] read_data[12] read_data[13] read_data[14]
+ read_data[15] read_data[16] read_data[17] read_data[18] read_data[19]
+ read_data[1] read_data[20] read_data[21] read_data[22] read_data[23]
+ read_data[24] read_data[25] read_data[26] read_data[27] read_data[28]
+ read_data[29] read_data[2] read_data[30] read_data[31] read_data[3]
+ read_data[4] read_data[5] read_data[6] read_data[7] read_data[8]
+ read_data[9] read_done read_err read_req read_sel[0] read_sel[1]
+ read_sel[2] read_sel[3] rst_n wb_ack_i wb_adr_o[0] wb_adr_o[10]
+ wb_adr_o[11] wb_adr_o[12] wb_adr_o[13] wb_adr_o[14] wb_adr_o[15]
+ wb_adr_o[16] wb_adr_o[17] wb_adr_o[18] wb_adr_o[19] wb_adr_o[1]
+ wb_adr_o[20] wb_adr_o[21] wb_adr_o[22] wb_adr_o[23] wb_adr_o[24]
+ wb_adr_o[25] wb_adr_o[26] wb_adr_o[27] wb_adr_o[28] wb_adr_o[29]
+ wb_adr_o[2] wb_adr_o[30] wb_adr_o[31] wb_adr_o[3] wb_adr_o[4]
+ wb_adr_o[5] wb_adr_o[6] wb_adr_o[7] wb_adr_o[8] wb_adr_o[9]
+ wb_cyc_o wb_dat_i[0] wb_dat_i[10] wb_dat_i[11] wb_dat_i[12]
+ wb_dat_i[13] wb_dat_i[14] wb_dat_i[15] wb_dat_i[16] wb_dat_i[17]
+ wb_dat_i[18] wb_dat_i[19] wb_dat_i[1] wb_dat_i[20] wb_dat_i[21]
+ wb_dat_i[22] wb_dat_i[23] wb_dat_i[24] wb_dat_i[25] wb_dat_i[26]
+ wb_dat_i[27] wb_dat_i[28] wb_dat_i[29] wb_dat_i[2] wb_dat_i[30]
+ wb_dat_i[31] wb_dat_i[3] wb_dat_i[4] wb_dat_i[5] wb_dat_i[6]
+ wb_dat_i[7] wb_dat_i[8] wb_dat_i[9] wb_dat_o[0] wb_dat_o[10]
+ wb_dat_o[11] wb_dat_o[12] wb_dat_o[13] wb_dat_o[14] wb_dat_o[15]
+ wb_dat_o[16] wb_dat_o[17] wb_dat_o[18] wb_dat_o[19] wb_dat_o[1]
+ wb_dat_o[20] wb_dat_o[21] wb_dat_o[22] wb_dat_o[23] wb_dat_o[24]
+ wb_dat_o[25] wb_dat_o[26] wb_dat_o[27] wb_dat_o[28] wb_dat_o[29]
+ wb_dat_o[2] wb_dat_o[30] wb_dat_o[31] wb_dat_o[3] wb_dat_o[4]
+ wb_dat_o[5] wb_dat_o[6] wb_dat_o[7] wb_dat_o[8] wb_dat_o[9]
+ wb_err_i wb_rty_i wb_sel_o[0] wb_sel_o[1] wb_sel_o[2] wb_sel_o[3]
+ wb_stb_o wb_tgd_i wb_tgd_o wb_we_o write_addr[0] write_addr[10]
+ write_addr[11] write_addr[12] write_addr[13] write_addr[14]
+ write_addr[15] write_addr[16] write_addr[17] write_addr[18]
+ write_addr[19] write_addr[1] write_addr[20] write_addr[21]
+ write_addr[22] write_addr[23] write_addr[24] write_addr[25]
+ write_addr[26] write_addr[27] write_addr[28] write_addr[29]
+ write_addr[2] write_addr[30] write_addr[31] write_addr[3]
+ write_addr[4] write_addr[5] write_addr[6] write_addr[7] write_addr[8]
+ write_addr[9] write_data[0] write_data[10] write_data[11]
+ write_data[12] write_data[13] write_data[14] write_data[15]
+ write_data[16] write_data[17] write_data[18] write_data[19]
+ write_data[1] write_data[20] write_data[21] write_data[22]
+ write_data[23] write_data[24] write_data[25] write_data[26]
+ write_data[27] write_data[28] write_data[29] write_data[2]
+ write_data[30] write_data[31] write_data[3] write_data[4]
+ write_data[5] write_data[6] write_data[7] write_data[8] write_data[9]
+ write_done write_err write_req write_sel[0] write_sel[1] write_sel[2]
+ write_sel[3]
X_271_ _253_ VSS VSS VDD VDD _111_ sky130_fd_sc_hd__buf_4
X_272_ net39 net72 net73 _254_ VSS VSS VDD VDD _112_ sky130_fd_sc_hd__nor4b_1
X_273_ retry_count\[3\] _261_ VSS VSS VDD VDD _113_ sky130_fd_sc_hd__nor2b_1
X_274_ write_req VSS VSS VDD VDD _114_ sky130_fd_sc_hd__buf_4
X_275_ _114_ _111_ VSS VSS VDD VDD _115_ sky130_fd_sc_hd__nand2b_1
X_276_ _111_ _112_ _113_ net34 _115_ VSS VSS VDD VDD _270_
+ sky130_fd_sc_hd__o32a_1
X_277_ state\[0\] VSS VSS VDD VDD _251_ sky130_fd_sc_hd__inv_1
X_278_ retry_count\[0\] VSS VSS VDD VDD _263_ sky130_fd_sc_hd__inv_1
X_279_ state\[1\] VSS VSS VDD VDD _252_ sky130_fd_sc_hd__inv_1
X_280_ retry_count\[1\] VSS VSS VDD VDD _264_ sky130_fd_sc_hd__inv_1
X_281_ net39 _255_ VSS VSS VDD VDD _116_ sky130_fd_sc_hd__nand2_4
X_282_ _116_ VSS VSS VDD VDD _117_ sky130_fd_sc_hd__buf_6
X_283_ net40 net142 _117_ VSS VSS VDD VDD _000_ sky130_fd_sc_hd__mux2_1
X_284_ net41 net143 _117_ VSS VSS VDD VDD _001_ sky130_fd_sc_hd__mux2_1
X_285_ net42 net144 _117_ VSS VSS VDD VDD _002_ sky130_fd_sc_hd__mux2_1
X_286_ net43 net145 _117_ VSS VSS VDD VDD _003_ sky130_fd_sc_hd__mux2_1
X_287_ net44 net146 _117_ VSS VSS VDD VDD _004_ sky130_fd_sc_hd__mux2_1
X_288_ net45 net147 _117_ VSS VSS VDD VDD _005_ sky130_fd_sc_hd__mux2_1
X_289_ net46 net148 _117_ VSS VSS VDD VDD _006_ sky130_fd_sc_hd__mux2_1
X_290_ net47 net149 _117_ VSS VSS VDD VDD _007_ sky130_fd_sc_hd__mux2_1
X_291_ net48 net150 _117_ VSS VSS VDD VDD _008_ sky130_fd_sc_hd__mux2_1
X_292_ net49 net151 _117_ VSS VSS VDD VDD _009_ sky130_fd_sc_hd__mux2_1
X_293_ _116_ VSS VSS VDD VDD _118_ sky130_fd_sc_hd__buf_6
X_294_ net50 net152 _118_ VSS VSS VDD VDD _010_ sky130_fd_sc_hd__mux2_1
X_295_ net51 net153 _118_ VSS VSS VDD VDD _011_ sky130_fd_sc_hd__mux2_1
X_296_ net52 net154 _118_ VSS VSS VDD VDD _012_ sky130_fd_sc_hd__mux2_1
X_297_ net53 net155 _118_ VSS VSS VDD VDD _013_ sky130_fd_sc_hd__mux2_1
X_298_ net54 net156 _118_ VSS VSS VDD VDD _014_ sky130_fd_sc_hd__mux2_1
X_299_ net55 net157 _118_ VSS VSS VDD VDD _015_ sky130_fd_sc_hd__mux2_1
X_300_ net56 net158 _118_ VSS VSS VDD VDD _016_ sky130_fd_sc_hd__mux2_1
X_301_ net57 net159 _118_ VSS VSS VDD VDD _017_ sky130_fd_sc_hd__mux2_1
X_302_ net58 net160 _118_ VSS VSS VDD VDD _018_ sky130_fd_sc_hd__mux2_1
X_303_ net59 net161 _118_ VSS VSS VDD VDD _019_ sky130_fd_sc_hd__mux2_1
X_304_ _116_ VSS VSS VDD VDD _119_ sky130_fd_sc_hd__buf_6
X_305_ net60 net162 _119_ VSS VSS VDD VDD _020_ sky130_fd_sc_hd__mux2_1
X_306_ net61 net163 _119_ VSS VSS VDD VDD _021_ sky130_fd_sc_hd__mux2_1
X_307_ net62 net164 _119_ VSS VSS VDD VDD _022_ sky130_fd_sc_hd__mux2_1
X_308_ net63 net165 _119_ VSS VSS VDD VDD _023_ sky130_fd_sc_hd__mux2_1
X_309_ net64 net166 _119_ VSS VSS VDD VDD _024_ sky130_fd_sc_hd__mux2_1
X_310_ net65 net167 _119_ VSS VSS VDD VDD _025_ sky130_fd_sc_hd__mux2_1
X_311_ net66 net168 _119_ VSS VSS VDD VDD _026_ sky130_fd_sc_hd__mux2_1
X_312_ net67 net169 _119_ VSS VSS VDD VDD _027_ sky130_fd_sc_hd__mux2_1
X_313_ net68 net170 _119_ VSS VSS VDD VDD _028_ sky130_fd_sc_hd__mux2_1
X_314_ net69 net171 _119_ VSS VSS VDD VDD _029_ sky130_fd_sc_hd__mux2_1
X_315_ net70 net172 _116_ VSS VSS VDD VDD _030_ sky130_fd_sc_hd__mux2_1
X_316_ net71 net173 _116_ VSS VSS VDD VDD _031_ sky130_fd_sc_hd__mux2_1
X_317_ _114_ net34 VSS VSS VDD VDD _120_ sky130_fd_sc_hd__nand2b_1
X_318_ _255_ net174 _120_ VSS VSS VDD VDD _121_ sky130_fd_sc_hd__mux2i_1
X_319_ net39 _255_ net174 VSS VSS VDD VDD _122_ sky130_fd_sc_hd__a21oi_1
X_320_ _111_ _121_ _122_ VSS VSS VDD VDD _032_ sky130_fd_sc_hd__a21oi_1
X_321_ _254_ VSS VSS VDD VDD _123_ sky130_fd_sc_hd__buf_2
X_322_ net175 VSS VSS VDD VDD _124_ sky130_fd_sc_hd__inv_1
X_323_ _261_ VSS VSS VDD VDD _125_ sky130_fd_sc_hd__buf_2
X_324_ _111_ _120_ _123_ _125_ VSS VSS VDD VDD _126_ sky130_fd_sc_hd__a211oi_1
X_325_ _123_ _124_ _126_ VSS VSS VDD VDD _127_ sky130_fd_sc_hd__a21oi_1
X_326_ net246 VSS VSS VDD VDD _128_ sky130_fd_sc_hd__inv_1
X_327_ retry_count\[3\] _128_ VSS VSS VDD VDD _129_ sky130_fd_sc_hd__nand2_1
X_328_ net39 net72 VSS VSS VDD VDD _130_ sky130_fd_sc_hd__nand2b_1
X_329_ _111_ _120_ _129_ _125_ _130_ _255_ VSS VSS VDD VDD
+ _131_ sky130_fd_sc_hd__a222oi_1
X_330_ _255_ _127_ _131_ net175 VSS VSS VDD VDD _033_ sky130_fd_sc_hd__o22a_1
X_331_ net39 net72 VSS VSS VDD VDD _132_ sky130_fd_sc_hd__nor2_1
X_332_ net73 _132_ VSS VSS VDD VDD _133_ sky130_fd_sc_hd__nand2_1
X_333_ _123_ _133_ _125_ VSS VSS VDD VDD _134_ sky130_fd_sc_hd__a21oi_1
X_334_ net39 net72 net73 VSS VSS VDD VDD _135_ sky130_fd_sc_hd__nor3b_1
X_335_ _125_ _123_ _135_ VSS VSS VDD VDD _136_ sky130_fd_sc_hd__nand3b_1
X_336_ _134_ _136_ _263_ VSS VSS VDD VDD _034_ sky130_fd_sc_hd__mux2i_1
X_337_ _266_ VSS VSS VDD VDD _137_ sky130_fd_sc_hd__inv_1
X_338_ _264_ _134_ _136_ _137_ VSS VSS VDD VDD _035_ sky130_fd_sc_hd__o22ai_1
X_339_ _267_ _135_ VSS VSS VDD VDD _138_ sky130_fd_sc_hd__nand2_1
X_340_ retry_count\[2\] _125_ VSS VSS VDD VDD _139_ sky130_fd_sc_hd__nor2_1
X_341_ _123_ _139_ VSS VSS VDD VDD _140_ sky130_fd_sc_hd__nand2_1
X_342_ _123_ _138_ _125_ VSS VSS VDD VDD _141_ sky130_fd_sc_hd__a21oi_1
X_343_ retry_count\[2\] VSS VSS VDD VDD _142_ sky130_fd_sc_hd__inv_1
X_344_ _138_ _140_ _141_ _142_ VSS VSS VDD VDD _036_ sky130_fd_sc_hd__o22ai_1
X_345_ retry_count\[2\] retry_count\[0\] retry_count\[1\]
+ _135_ VSS VSS VDD VDD _143_ sky130_fd_sc_hd__nand4_1
X_346_ retry_count\[3\] _125_ VSS VSS VDD VDD _144_ sky130_fd_sc_hd__nor2_1
X_347_ _123_ _144_ VSS VSS VDD VDD _145_ sky130_fd_sc_hd__nand2_1
X_348_ _123_ _143_ _125_ VSS VSS VDD VDD _146_ sky130_fd_sc_hd__a21oi_1
X_349_ retry_count\[3\] VSS VSS VDD VDD _147_ sky130_fd_sc_hd__inv_1
X_350_ _143_ _145_ _146_ _147_ VSS VSS VDD VDD _037_ sky130_fd_sc_hd__o22ai_1
X_351_ _114_ VSS VSS VDD VDD _148_ sky130_fd_sc_hd__buf_6
X_352_ _148_ _111_ VSS VSS VDD VDD _149_ sky130_fd_sc_hd__nor2b_1
X_353_ _123_ _132_ _113_ net246 _111_ VSS VSS VDD VDD _150_
+ sky130_fd_sc_hd__a221oi_1
X_354_ net34 _115_ _112_ VSS VSS VDD VDD _151_ sky130_fd_sc_hd__o21bai_1
X_355_ state\[0\] _151_ VSS VSS VDD VDD _152_ sky130_fd_sc_hd__nand2_1
X_356_ _149_ _112_ _150_ _152_ VSS VSS VDD VDD _038_ sky130_fd_sc_hd__o31ai_1
X_357_ _123_ _132_ _113_ _128_ _111_ VSS VSS VDD VDD _153_
+ sky130_fd_sc_hd__a221oi_1
X_358_ _111_ _114_ VSS VSS VDD VDD _154_ sky130_fd_sc_hd__nand2_4
X_359_ _151_ _154_ VSS VSS VDD VDD _155_ sky130_fd_sc_hd__nand2b_1
X_360_ state\[1\] _151_ VSS VSS VDD VDD _156_ sky130_fd_sc_hd__nand2_1
X_361_ _153_ _155_ _156_ VSS VSS VDD VDD _039_ sky130_fd_sc_hd__o21ai_0
X_362_ _114_ net34 _253_ VSS VSS VDD VDD _157_ sky130_fd_sc_hd__o21ai_4
X_363_ _157_ VSS VSS VDD VDD _158_ sky130_fd_sc_hd__clkbuf_4
X_364_ _148_ VSS VSS VDD VDD _159_ sky130_fd_sc_hd__buf_6
X_365_ net2 net74 _159_ VSS VSS VDD VDD _160_ sky130_fd_sc_hd__mux2i_1
X_366_ _157_ VSS VSS VDD VDD _161_ sky130_fd_sc_hd__buf_2
X_367_ net176 _161_ VSS VSS VDD VDD _162_ sky130_fd_sc_hd__nand2_1
X_368_ _158_ _160_ _162_ VSS VSS VDD VDD _040_ sky130_fd_sc_hd__o21ai_0
X_369_ net3 net75 _159_ VSS VSS VDD VDD _163_ sky130_fd_sc_hd__mux2i_2
X_370_ net177 _161_ VSS VSS VDD VDD _164_ sky130_fd_sc_hd__nand2_1
X_371_ _158_ _163_ _164_ VSS VSS VDD VDD _041_ sky130_fd_sc_hd__o21ai_0
X_372_ net4 net76 _159_ VSS VSS VDD VDD _165_ sky130_fd_sc_hd__mux2i_1
X_373_ net178 _161_ VSS VSS VDD VDD _166_ sky130_fd_sc_hd__nand2_1
X_374_ _158_ _165_ _166_ VSS VSS VDD VDD _042_ sky130_fd_sc_hd__o21ai_0
X_375_ net5 net77 _159_ VSS VSS VDD VDD _167_ sky130_fd_sc_hd__mux2i_1
X_376_ net179 _161_ VSS VSS VDD VDD _168_ sky130_fd_sc_hd__nand2_1
X_377_ _158_ _167_ _168_ VSS VSS VDD VDD _043_ sky130_fd_sc_hd__o21ai_0
X_378_ _157_ VSS VSS VDD VDD _169_ sky130_fd_sc_hd__buf_2
X_379_ net6 net78 _159_ VSS VSS VDD VDD _170_ sky130_fd_sc_hd__mux2i_1
X_380_ net180 _161_ VSS VSS VDD VDD _171_ sky130_fd_sc_hd__nand2_1
X_381_ _169_ _170_ _171_ VSS VSS VDD VDD _044_ sky130_fd_sc_hd__o21ai_0
X_382_ net7 net79 _159_ VSS VSS VDD VDD _172_ sky130_fd_sc_hd__mux2i_1
X_383_ net181 _161_ VSS VSS VDD VDD _173_ sky130_fd_sc_hd__nand2_1
X_384_ _169_ _172_ _173_ VSS VSS VDD VDD _045_ sky130_fd_sc_hd__o21ai_0
X_385_ net8 net80 _159_ VSS VSS VDD VDD _174_ sky130_fd_sc_hd__mux2i_1
X_386_ net182 _161_ VSS VSS VDD VDD _175_ sky130_fd_sc_hd__nand2_1
X_387_ _169_ _174_ _175_ VSS VSS VDD VDD _046_ sky130_fd_sc_hd__o21ai_0
X_388_ net9 net81 _159_ VSS VSS VDD VDD _176_ sky130_fd_sc_hd__mux2i_1
X_389_ net183 _161_ VSS VSS VDD VDD _177_ sky130_fd_sc_hd__nand2_1
X_390_ _169_ _176_ _177_ VSS VSS VDD VDD _047_ sky130_fd_sc_hd__o21ai_0
X_391_ net10 net82 _159_ VSS VSS VDD VDD _178_ sky130_fd_sc_hd__mux2i_1
X_392_ net184 _161_ VSS VSS VDD VDD _179_ sky130_fd_sc_hd__nand2_1
X_393_ _169_ _178_ _179_ VSS VSS VDD VDD _048_ sky130_fd_sc_hd__o21ai_0
X_394_ net11 net83 _159_ VSS VSS VDD VDD _180_ sky130_fd_sc_hd__mux2i_1
X_395_ net185 _161_ VSS VSS VDD VDD _181_ sky130_fd_sc_hd__nand2_1
X_396_ _169_ _180_ _181_ VSS VSS VDD VDD _049_ sky130_fd_sc_hd__o21ai_0
X_397_ _148_ VSS VSS VDD VDD _182_ sky130_fd_sc_hd__buf_6
X_398_ net12 net84 _182_ VSS VSS VDD VDD _183_ sky130_fd_sc_hd__mux2i_1
X_399_ _157_ VSS VSS VDD VDD _184_ sky130_fd_sc_hd__buf_2
X_400_ net186 _184_ VSS VSS VDD VDD _185_ sky130_fd_sc_hd__nand2_1
X_401_ _169_ _183_ _185_ VSS VSS VDD VDD _050_ sky130_fd_sc_hd__o21ai_0
X_402_ net13 net85 _182_ VSS VSS VDD VDD _186_ sky130_fd_sc_hd__mux2i_1
X_403_ net187 _184_ VSS VSS VDD VDD _187_ sky130_fd_sc_hd__nand2_1
X_404_ _169_ _186_ _187_ VSS VSS VDD VDD _051_ sky130_fd_sc_hd__o21ai_0
X_405_ net14 net86 _182_ VSS VSS VDD VDD _188_ sky130_fd_sc_hd__mux2i_1
X_406_ net188 _184_ VSS VSS VDD VDD _189_ sky130_fd_sc_hd__nand2_1
X_407_ _169_ _188_ _189_ VSS VSS VDD VDD _052_ sky130_fd_sc_hd__o21ai_0
X_408_ net15 net87 _182_ VSS VSS VDD VDD _190_ sky130_fd_sc_hd__mux2i_1
X_409_ net189 _184_ VSS VSS VDD VDD _191_ sky130_fd_sc_hd__nand2_1
X_410_ _169_ _190_ _191_ VSS VSS VDD VDD _053_ sky130_fd_sc_hd__o21ai_0
X_411_ _157_ VSS VSS VDD VDD _192_ sky130_fd_sc_hd__clkbuf_2
X_412_ net16 net88 _182_ VSS VSS VDD VDD _193_ sky130_fd_sc_hd__mux2i_1
X_413_ net190 _184_ VSS VSS VDD VDD _194_ sky130_fd_sc_hd__nand2_1
X_414_ _192_ _193_ _194_ VSS VSS VDD VDD _054_ sky130_fd_sc_hd__o21ai_0
X_415_ net17 net89 _182_ VSS VSS VDD VDD _195_ sky130_fd_sc_hd__mux2i_1
X_416_ net191 _184_ VSS VSS VDD VDD _196_ sky130_fd_sc_hd__nand2_1
X_417_ _192_ _195_ _196_ VSS VSS VDD VDD _055_ sky130_fd_sc_hd__o21ai_0
X_418_ net18 net90 _182_ VSS VSS VDD VDD _197_ sky130_fd_sc_hd__mux2i_1
X_419_ net192 _184_ VSS VSS VDD VDD _198_ sky130_fd_sc_hd__nand2_1
X_420_ _192_ _197_ _198_ VSS VSS VDD VDD _056_ sky130_fd_sc_hd__o21ai_0
X_421_ net19 net91 _182_ VSS VSS VDD VDD _199_ sky130_fd_sc_hd__mux2i_1
X_422_ net193 _184_ VSS VSS VDD VDD _200_ sky130_fd_sc_hd__nand2_1
X_423_ _192_ _199_ _200_ VSS VSS VDD VDD _057_ sky130_fd_sc_hd__o21ai_0
X_424_ net20 net92 _182_ VSS VSS VDD VDD _201_ sky130_fd_sc_hd__mux2i_1
X_425_ net194 _184_ VSS VSS VDD VDD _202_ sky130_fd_sc_hd__nand2_1
X_426_ _192_ _201_ _202_ VSS VSS VDD VDD _058_ sky130_fd_sc_hd__o21ai_0
X_427_ net21 net93 _182_ VSS VSS VDD VDD _203_ sky130_fd_sc_hd__mux2i_1
X_428_ net195 _184_ VSS VSS VDD VDD _204_ sky130_fd_sc_hd__nand2_1
X_429_ _192_ _203_ _204_ VSS VSS VDD VDD _059_ sky130_fd_sc_hd__o21ai_0
X_430_ _148_ VSS VSS VDD VDD _205_ sky130_fd_sc_hd__buf_6
X_431_ net22 net94 _205_ VSS VSS VDD VDD _206_ sky130_fd_sc_hd__mux2i_1
X_432_ _157_ VSS VSS VDD VDD _207_ sky130_fd_sc_hd__buf_2
X_433_ net196 _207_ VSS VSS VDD VDD _208_ sky130_fd_sc_hd__nand2_1
X_434_ _192_ _206_ _208_ VSS VSS VDD VDD _060_ sky130_fd_sc_hd__o21ai_0
X_435_ net23 net95 _205_ VSS VSS VDD VDD _209_ sky130_fd_sc_hd__mux2i_1
X_436_ net197 _207_ VSS VSS VDD VDD _210_ sky130_fd_sc_hd__nand2_1
X_437_ _192_ _209_ _210_ VSS VSS VDD VDD _061_ sky130_fd_sc_hd__o21ai_0
X_438_ net24 net96 _205_ VSS VSS VDD VDD _211_ sky130_fd_sc_hd__mux2i_1
X_439_ net198 _207_ VSS VSS VDD VDD _212_ sky130_fd_sc_hd__nand2_1
X_440_ _192_ _211_ _212_ VSS VSS VDD VDD _062_ sky130_fd_sc_hd__o21ai_0
X_441_ net25 net97 _205_ VSS VSS VDD VDD _213_ sky130_fd_sc_hd__mux2i_1
X_442_ net199 _207_ VSS VSS VDD VDD _214_ sky130_fd_sc_hd__nand2_1
X_443_ _192_ _213_ _214_ VSS VSS VDD VDD _063_ sky130_fd_sc_hd__o21ai_0
X_444_ _157_ VSS VSS VDD VDD _215_ sky130_fd_sc_hd__buf_2
X_445_ net26 net98 _205_ VSS VSS VDD VDD _216_ sky130_fd_sc_hd__mux2i_1
X_446_ net200 _207_ VSS VSS VDD VDD _217_ sky130_fd_sc_hd__nand2_1
X_447_ _215_ _216_ _217_ VSS VSS VDD VDD _064_ sky130_fd_sc_hd__o21ai_0
X_448_ net27 net99 _205_ VSS VSS VDD VDD _218_ sky130_fd_sc_hd__mux2i_1
X_449_ net201 _207_ VSS VSS VDD VDD _219_ sky130_fd_sc_hd__nand2_1
X_450_ _215_ _218_ _219_ VSS VSS VDD VDD _065_ sky130_fd_sc_hd__o21ai_0
X_451_ net28 net100 _205_ VSS VSS VDD VDD _220_ sky130_fd_sc_hd__mux2i_1
X_452_ net202 _207_ VSS VSS VDD VDD _221_ sky130_fd_sc_hd__nand2_1
X_453_ _215_ _220_ _221_ VSS VSS VDD VDD _066_ sky130_fd_sc_hd__o21ai_0
X_454_ net29 net101 _205_ VSS VSS VDD VDD _222_ sky130_fd_sc_hd__mux2i_1
X_455_ net203 _207_ VSS VSS VDD VDD _223_ sky130_fd_sc_hd__nand2_1
X_456_ _215_ _222_ _223_ VSS VSS VDD VDD _067_ sky130_fd_sc_hd__o21ai_0
X_457_ net30 net102 _205_ VSS VSS VDD VDD _224_ sky130_fd_sc_hd__mux2i_1
X_458_ net204 _207_ VSS VSS VDD VDD _225_ sky130_fd_sc_hd__nand2_1
X_459_ _215_ _224_ _225_ VSS VSS VDD VDD _068_ sky130_fd_sc_hd__o21ai_0
X_460_ net31 net103 _205_ VSS VSS VDD VDD _226_ sky130_fd_sc_hd__mux2i_1
X_461_ net205 _207_ VSS VSS VDD VDD _227_ sky130_fd_sc_hd__nand2_1
X_462_ _215_ _226_ _227_ VSS VSS VDD VDD _069_ sky130_fd_sc_hd__o21ai_0
X_463_ net32 net104 _148_ VSS VSS VDD VDD _228_ sky130_fd_sc_hd__mux2i_1
X_464_ net206 _158_ VSS VSS VDD VDD _229_ sky130_fd_sc_hd__nand2_1
X_465_ _215_ _228_ _229_ VSS VSS VDD VDD _070_ sky130_fd_sc_hd__o21ai_0
X_466_ net33 net105 _148_ VSS VSS VDD VDD _230_ sky130_fd_sc_hd__mux2i_1
X_467_ net207 _158_ VSS VSS VDD VDD _231_ sky130_fd_sc_hd__nand2_1
X_468_ _215_ _230_ _231_ VSS VSS VDD VDD _071_ sky130_fd_sc_hd__o21ai_0
X_469_ _154_ VSS VSS VDD VDD _232_ sky130_fd_sc_hd__buf_6
X_470_ net106 net209 _232_ VSS VSS VDD VDD _072_ sky130_fd_sc_hd__mux2_1
X_471_ net107 net210 _232_ VSS VSS VDD VDD _073_ sky130_fd_sc_hd__mux2_1
X_472_ net108 net211 _232_ VSS VSS VDD VDD _074_ sky130_fd_sc_hd__mux2_1
X_473_ net109 net212 _232_ VSS VSS VDD VDD _075_ sky130_fd_sc_hd__mux2_1
X_474_ net110 net213 _232_ VSS VSS VDD VDD _076_ sky130_fd_sc_hd__mux2_1
X_475_ net111 net214 _232_ VSS VSS VDD VDD _077_ sky130_fd_sc_hd__mux2_1
X_476_ net112 net215 _232_ VSS VSS VDD VDD _078_ sky130_fd_sc_hd__mux2_1
X_477_ net113 net216 _232_ VSS VSS VDD VDD _079_ sky130_fd_sc_hd__mux2_1
X_478_ _154_ VSS VSS VDD VDD _233_ sky130_fd_sc_hd__buf_6
X_479_ net114 net217 _233_ VSS VSS VDD VDD _080_ sky130_fd_sc_hd__mux2_1
X_480_ net115 net218 _233_ VSS VSS VDD VDD _081_ sky130_fd_sc_hd__mux2_1
X_481_ net116 net219 _233_ VSS VSS VDD VDD _082_ sky130_fd_sc_hd__mux2_1
X_482_ net117 net220 _233_ VSS VSS VDD VDD _083_ sky130_fd_sc_hd__mux2_1
X_483_ net118 net221 _233_ VSS VSS VDD VDD _084_ sky130_fd_sc_hd__mux2_1
X_484_ net119 net222 _233_ VSS VSS VDD VDD _085_ sky130_fd_sc_hd__mux2_1
X_485_ net120 net223 _233_ VSS VSS VDD VDD _086_ sky130_fd_sc_hd__mux2_1
X_486_ net121 net224 _233_ VSS VSS VDD VDD _087_ sky130_fd_sc_hd__mux2_1
X_487_ net122 net225 _233_ VSS VSS VDD VDD _088_ sky130_fd_sc_hd__mux2_1
X_488_ net123 net226 _233_ VSS VSS VDD VDD _089_ sky130_fd_sc_hd__mux2_1
X_489_ _154_ VSS VSS VDD VDD _234_ sky130_fd_sc_hd__buf_6
X_490_ net124 net227 _234_ VSS VSS VDD VDD _090_ sky130_fd_sc_hd__mux2_1
X_491_ net125 net228 _234_ VSS VSS VDD VDD _091_ sky130_fd_sc_hd__mux2_1
X_492_ net126 net229 _234_ VSS VSS VDD VDD _092_ sky130_fd_sc_hd__mux2_1
X_493_ net127 net230 _234_ VSS VSS VDD VDD _093_ sky130_fd_sc_hd__mux2_1
X_494_ net128 net231 _234_ VSS VSS VDD VDD _094_ sky130_fd_sc_hd__mux2_1
X_495_ net129 net232 _234_ VSS VSS VDD VDD _095_ sky130_fd_sc_hd__mux2_1
X_496_ net130 net233 _234_ VSS VSS VDD VDD _096_ sky130_fd_sc_hd__mux2_1
X_497_ net131 net234 _234_ VSS VSS VDD VDD _097_ sky130_fd_sc_hd__mux2_1
X_498_ net132 net235 _234_ VSS VSS VDD VDD _098_ sky130_fd_sc_hd__mux2_1
X_499_ net133 net236 _234_ VSS VSS VDD VDD _099_ sky130_fd_sc_hd__mux2_1
X_500_ net134 net237 _154_ VSS VSS VDD VDD _100_ sky130_fd_sc_hd__mux2_1
X_501_ net135 net238 _154_ VSS VSS VDD VDD _101_ sky130_fd_sc_hd__mux2_1
X_502_ net136 net239 _154_ VSS VSS VDD VDD _102_ sky130_fd_sc_hd__mux2_1
X_503_ net137 net240 _154_ VSS VSS VDD VDD _103_ sky130_fd_sc_hd__mux2_1
X_504_ net35 net138 _148_ VSS VSS VDD VDD _235_ sky130_fd_sc_hd__mux2i_1
X_505_ net241 _158_ VSS VSS VDD VDD _236_ sky130_fd_sc_hd__nand2_1
X_506_ _215_ _235_ _236_ VSS VSS VDD VDD _104_ sky130_fd_sc_hd__o21ai_0
X_507_ net36 net139 _148_ VSS VSS VDD VDD _237_ sky130_fd_sc_hd__mux2i_1
X_508_ net242 _158_ VSS VSS VDD VDD _238_ sky130_fd_sc_hd__nand2_1
X_509_ _215_ _237_ _238_ VSS VSS VDD VDD _105_ sky130_fd_sc_hd__o21ai_0
X_510_ net37 net140 _148_ VSS VSS VDD VDD _239_ sky130_fd_sc_hd__mux2i_1
X_511_ net243 _158_ VSS VSS VDD VDD _240_ sky130_fd_sc_hd__nand2_1
X_512_ _157_ _239_ _240_ VSS VSS VDD VDD _106_ sky130_fd_sc_hd__o21ai_0
X_513_ net38 net141 _148_ VSS VSS VDD VDD _241_ sky130_fd_sc_hd__mux2i_2
X_514_ net244 _158_ VSS VSS VDD VDD _242_ sky130_fd_sc_hd__nand2_1
X_515_ _157_ _241_ _242_ VSS VSS VDD VDD _107_ sky130_fd_sc_hd__o21ai_0
X_516_ _111_ net34 VSS VSS VDD VDD _243_ sky130_fd_sc_hd__and2_0
X_517_ _128_ _243_ _232_ VSS VSS VDD VDD _108_ sky130_fd_sc_hd__o21ai_0
X_518_ net39 _115_ net247 VSS VSS VDD VDD _244_ sky130_fd_sc_hd__a21oi_1
X_519_ net247 _232_ _259_ VSS VSS VDD VDD _245_ sky130_fd_sc_hd__a21oi_1
X_520_ _244_ _245_ VSS VSS VDD VDD _109_ sky130_fd_sc_hd__nor2_1
X_521_ _257_ _149_ VSS VSS VDD VDD _246_ sky130_fd_sc_hd__nor2_1
X_522_ _259_ _125_ VSS VSS VDD VDD _247_ sky130_fd_sc_hd__nor2_1
X_523_ _147_ _128_ _125_ VSS VSS VDD VDD _248_ sky130_fd_sc_hd__o21ai_0
X_524_ _259_ _130_ VSS VSS VDD VDD _249_ sky130_fd_sc_hd__nand2_1
X_525_ _248_ _249_ _246_ net248 VSS VSS VDD VDD _250_ sky130_fd_sc_hd__a31oi_1
X_526_ _246_ _247_ _250_ VSS VSS VDD VDD _110_ sky130_fd_sc_hd__a21oi_1
X_527_ _251_ _252_ VSS VSS VDD VDD _253_ _254_ sky130_fd_sc_hd__ha_1
X_528_ _251_ state\[1\] VSS VSS VDD VDD _255_ _256_ sky130_fd_sc_hd__ha_2
X_529_ _251_ state\[1\] VSS VSS VDD VDD _257_ _258_ sky130_fd_sc_hd__ha_1
X_530_ state\[0\] _252_ VSS VSS VDD VDD _259_ _260_ sky130_fd_sc_hd__ha_1
X_531_ state\[0\] state\[1\] VSS VSS VDD VDD _261_ _262_ sky130_fd_sc_hd__ha_1
X_532_ _263_ _264_ VSS VSS VDD VDD _265_ _266_ sky130_fd_sc_hd__ha_1
X_533_ retry_count\[0\] retry_count\[1\] VSS VSS VDD VDD _267_
+ _268_ sky130_fd_sc_hd__ha_1
Xclkbuf_0_clk clk VSS VSS VDD VDD clknet_0_clk sky130_fd_sc_hd__clkbuf_8
X_535_ net208 VSS VSS VDD VDD net245 sky130_fd_sc_hd__clkbuf_1
X_536_ net249 VSS VSS VDD VDD wb_tgd_o sky130_fd_sc_hd__buf_4
Xread_data\[0\]$_DFFE_PN0P_ clknet_3_6__leaf_clk _000_ net1
+ VSS VSS VDD VDD net142 sky130_fd_sc_hd__dfrtp_1
Xread_data\[10\]$_DFFE_PN0P_ clknet_3_6__leaf_clk _001_ net1
+ VSS VSS VDD VDD net143 sky130_fd_sc_hd__dfrtp_1
Xread_data\[11\]$_DFFE_PN0P_ clknet_3_6__leaf_clk _002_ net1
+ VSS VSS VDD VDD net144 sky130_fd_sc_hd__dfrtp_1
Xread_data\[12\]$_DFFE_PN0P_ clknet_3_6__leaf_clk _003_ net1
+ VSS VSS VDD VDD net145 sky130_fd_sc_hd__dfrtp_1
Xread_data\[13\]$_DFFE_PN0P_ clknet_3_6__leaf_clk _004_ net1
+ VSS VSS VDD VDD net146 sky130_fd_sc_hd__dfrtp_1
Xread_data\[14\]$_DFFE_PN0P_ clknet_3_6__leaf_clk _005_ net1
+ VSS VSS VDD VDD net147 sky130_fd_sc_hd__dfrtp_1
Xread_data\[15\]$_DFFE_PN0P_ clknet_3_6__leaf_clk _006_ net1
+ VSS VSS VDD VDD net148 sky130_fd_sc_hd__dfrtp_1
Xread_data\[16\]$_DFFE_PN0P_ clknet_3_6__leaf_clk _007_ net1
+ VSS VSS VDD VDD net149 sky130_fd_sc_hd__dfrtp_1
Xread_data\[17\]$_DFFE_PN0P_ clknet_3_6__leaf_clk _008_ net1
+ VSS VSS VDD VDD net150 sky130_fd_sc_hd__dfrtp_1
Xread_data\[18\]$_DFFE_PN0P_ clknet_3_6__leaf_clk _009_ net1
+ VSS VSS VDD VDD net151 sky130_fd_sc_hd__dfrtp_1
Xread_data\[19\]$_DFFE_PN0P_ clknet_3_7__leaf_clk _010_ net1
+ VSS VSS VDD VDD net152 sky130_fd_sc_hd__dfrtp_1
Xread_data\[1\]$_DFFE_PN0P_ clknet_3_7__leaf_clk _011_ net1
+ VSS VSS VDD VDD net153 sky130_fd_sc_hd__dfrtp_1
Xread_data\[20\]$_DFFE_PN0P_ clknet_3_7__leaf_clk _012_ net1
+ VSS VSS VDD VDD net154 sky130_fd_sc_hd__dfrtp_1
Xread_data\[21\]$_DFFE_PN0P_ clknet_3_7__leaf_clk _013_ net1
+ VSS VSS VDD VDD net155 sky130_fd_sc_hd__dfrtp_1
Xread_data\[22\]$_DFFE_PN0P_ clknet_3_6__leaf_clk _014_ net1
+ VSS VSS VDD VDD net156 sky130_fd_sc_hd__dfrtp_1
Xread_data\[23\]$_DFFE_PN0P_ clknet_3_6__leaf_clk _015_ net1
+ VSS VSS VDD VDD net157 sky130_fd_sc_hd__dfrtp_1
Xread_data\[24\]$_DFFE_PN0P_ clknet_3_7__leaf_clk _016_ net1
+ VSS VSS VDD VDD net158 sky130_fd_sc_hd__dfrtp_1
Xread_data\[25\]$_DFFE_PN0P_ clknet_3_7__leaf_clk _017_ net1
+ VSS VSS VDD VDD net159 sky130_fd_sc_hd__dfrtp_1
Xread_data\[26\]$_DFFE_PN0P_ clknet_3_7__leaf_clk _018_ net1
+ VSS VSS VDD VDD net160 sky130_fd_sc_hd__dfrtp_1
Xread_data\[27\]$_DFFE_PN0P_ clknet_3_5__leaf_clk _019_ net1
+ VSS VSS VDD VDD net161 sky130_fd_sc_hd__dfrtp_1
Xread_data\[28\]$_DFFE_PN0P_ clknet_3_7__leaf_clk _020_ net1
+ VSS VSS VDD VDD net162 sky130_fd_sc_hd__dfrtp_1
Xread_data\[29\]$_DFFE_PN0P_ clknet_3_7__leaf_clk _021_ net1
+ VSS VSS VDD VDD net163 sky130_fd_sc_hd__dfrtp_1
Xread_data\[2\]$_DFFE_PN0P_ clknet_3_7__leaf_clk _022_ net1
+ VSS VSS VDD VDD net164 sky130_fd_sc_hd__dfrtp_1
Xread_data\[30\]$_DFFE_PN0P_ clknet_3_7__leaf_clk _023_ net1
+ VSS VSS VDD VDD net165 sky130_fd_sc_hd__dfrtp_1
Xread_data\[31\]$_DFFE_PN0P_ clknet_3_7__leaf_clk _024_ net1
+ VSS VSS VDD VDD net166 sky130_fd_sc_hd__dfrtp_1
Xread_data\[3\]$_DFFE_PN0P_ clknet_3_7__leaf_clk _025_ net1
+ VSS VSS VDD VDD net167 sky130_fd_sc_hd__dfrtp_1
Xread_data\[4\]$_DFFE_PN0P_ clknet_3_7__leaf_clk _026_ net1
+ VSS VSS VDD VDD net168 sky130_fd_sc_hd__dfrtp_1
Xread_data\[5\]$_DFFE_PN0P_ clknet_3_7__leaf_clk _027_ net1
+ VSS VSS VDD VDD net169 sky130_fd_sc_hd__dfrtp_1
Xread_data\[6\]$_DFFE_PN0P_ clknet_3_7__leaf_clk _028_ net1
+ VSS VSS VDD VDD net170 sky130_fd_sc_hd__dfrtp_1
Xread_data\[7\]$_DFFE_PN0P_ clknet_3_7__leaf_clk _029_ net1
+ VSS VSS VDD VDD net171 sky130_fd_sc_hd__dfrtp_1
Xread_data\[8\]$_DFFE_PN0P_ clknet_3_4__leaf_clk _030_ net1
+ VSS VSS VDD VDD net172 sky130_fd_sc_hd__dfrtp_1
Xread_data\[9\]$_DFFE_PN0P_ clknet_3_6__leaf_clk _031_ net1
+ VSS VSS VDD VDD net173 sky130_fd_sc_hd__dfrtp_1
Xread_done$_DFFE_PN0P_ clknet_3_0__leaf_clk _032_ net1 VSS
+ VSS VDD VDD net174 sky130_fd_sc_hd__dfrtp_1
Xread_err$_DFFE_PN0P_ clknet_3_1__leaf_clk _033_ net1 VSS
+ VSS VDD VDD net175 sky130_fd_sc_hd__dfrtp_1
Xretry_count\[0\]$_DFFE_PN0P_ clknet_3_4__leaf_clk _034_ net1
+ VSS VSS VDD VDD retry_count\[0\] sky130_fd_sc_hd__dfrtp_1
Xretry_count\[1\]$_DFFE_PN0P_ clknet_3_4__leaf_clk _035_ net1
+ VSS VSS VDD VDD retry_count\[1\] sky130_fd_sc_hd__dfrtp_1
Xretry_count\[2\]$_DFFE_PN0P_ clknet_3_4__leaf_clk _036_ net1
+ VSS VSS VDD VDD retry_count\[2\] sky130_fd_sc_hd__dfrtp_1
Xretry_count\[3\]$_DFFE_PN0P_ clknet_3_1__leaf_clk _037_ net1
+ VSS VSS VDD VDD retry_count\[3\] sky130_fd_sc_hd__dfrtp_1
Xstate\[0\]$_DFFE_PN0P_ clknet_3_1__leaf_clk _038_ net1 VSS
+ VSS VDD VDD state\[0\] sky130_fd_sc_hd__dfrtp_1
Xstate\[1\]$_DFFE_PN0P_ clknet_3_1__leaf_clk _039_ net1 VSS
+ VSS VDD VDD state\[1\] sky130_fd_sc_hd__dfrtp_1
Xwb_adr_o\[0\]$_DFFE_PN0P_ clknet_3_5__leaf_clk _040_ net1
+ VSS VSS VDD VDD net176 sky130_fd_sc_hd__dfrtp_1
Xwb_adr_o\[10\]$_DFFE_PN0P_ clknet_3_5__leaf_clk _041_ net1
+ VSS VSS VDD VDD net177 sky130_fd_sc_hd__dfrtp_1
Xwb_adr_o\[11\]$_DFFE_PN0P_ clknet_3_4__leaf_clk _042_ net1
+ VSS VSS VDD VDD net178 sky130_fd_sc_hd__dfrtp_1
Xwb_adr_o\[12\]$_DFFE_PN0P_ clknet_3_5__leaf_clk _043_ net1
+ VSS VSS VDD VDD net179 sky130_fd_sc_hd__dfrtp_1
Xwb_adr_o\[13\]$_DFFE_PN0P_ clknet_3_5__leaf_clk _044_ net1
+ VSS VSS VDD VDD net180 sky130_fd_sc_hd__dfrtp_1
Xwb_adr_o\[14\]$_DFFE_PN0P_ clknet_3_5__leaf_clk _045_ net1
+ VSS VSS VDD VDD net181 sky130_fd_sc_hd__dfrtp_1
Xwb_adr_o\[15\]$_DFFE_PN0P_ clknet_3_5__leaf_clk _046_ net1
+ VSS VSS VDD VDD net182 sky130_fd_sc_hd__dfrtp_1
Xwb_adr_o\[16\]$_DFFE_PN0P_ clknet_3_5__leaf_clk _047_ net1
+ VSS VSS VDD VDD net183 sky130_fd_sc_hd__dfrtp_1
Xwb_adr_o\[17\]$_DFFE_PN0P_ clknet_3_5__leaf_clk _048_ net1
+ VSS VSS VDD VDD net184 sky130_fd_sc_hd__dfrtp_1
Xwb_adr_o\[18\]$_DFFE_PN0P_ clknet_3_5__leaf_clk _049_ net1
+ VSS VSS VDD VDD net185 sky130_fd_sc_hd__dfrtp_1
Xwb_adr_o\[19\]$_DFFE_PN0P_ clknet_3_5__leaf_clk _050_ net1
+ VSS VSS VDD VDD net186 sky130_fd_sc_hd__dfrtp_1
Xwb_adr_o\[1\]$_DFFE_PN0P_ clknet_3_5__leaf_clk _051_ net1
+ VSS VSS VDD VDD net187 sky130_fd_sc_hd__dfrtp_1
Xwb_adr_o\[20\]$_DFFE_PN0P_ clknet_3_5__leaf_clk _052_ net1
+ VSS VSS VDD VDD net188 sky130_fd_sc_hd__dfrtp_1
Xwb_adr_o\[21\]$_DFFE_PN0P_ clknet_3_5__leaf_clk _053_ net1
+ VSS VSS VDD VDD net189 sky130_fd_sc_hd__dfrtp_1
Xwb_adr_o\[22\]$_DFFE_PN0P_ clknet_3_5__leaf_clk _054_ net1
+ VSS VSS VDD VDD net190 sky130_fd_sc_hd__dfrtp_1
Xwb_adr_o\[23\]$_DFFE_PN0P_ clknet_3_5__leaf_clk _055_ net1
+ VSS VSS VDD VDD net191 sky130_fd_sc_hd__dfrtp_1
Xwb_adr_o\[24\]$_DFFE_PN0P_ clknet_3_5__leaf_clk _056_ net1
+ VSS VSS VDD VDD net192 sky130_fd_sc_hd__dfrtp_1
Xwb_adr_o\[25\]$_DFFE_PN0P_ clknet_3_5__leaf_clk _057_ net1
+ VSS VSS VDD VDD net193 sky130_fd_sc_hd__dfrtp_1
Xwb_adr_o\[26\]$_DFFE_PN0P_ clknet_3_4__leaf_clk _058_ net1
+ VSS VSS VDD VDD net194 sky130_fd_sc_hd__dfrtp_1
Xwb_adr_o\[27\]$_DFFE_PN0P_ clknet_3_4__leaf_clk _059_ net1
+ VSS VSS VDD VDD net195 sky130_fd_sc_hd__dfrtp_1
Xwb_adr_o\[28\]$_DFFE_PN0P_ clknet_3_4__leaf_clk _060_ net1
+ VSS VSS VDD VDD net196 sky130_fd_sc_hd__dfrtp_1
Xwb_adr_o\[29\]$_DFFE_PN0P_ clknet_3_4__leaf_clk _061_ net1
+ VSS VSS VDD VDD net197 sky130_fd_sc_hd__dfrtp_1
Xwb_adr_o\[2\]$_DFFE_PN0P_ clknet_3_4__leaf_clk _062_ net1
+ VSS VSS VDD VDD net198 sky130_fd_sc_hd__dfrtp_1
Xwb_adr_o\[30\]$_DFFE_PN0P_ clknet_3_1__leaf_clk _063_ net1
+ VSS VSS VDD VDD net199 sky130_fd_sc_hd__dfrtp_1
Xwb_adr_o\[31\]$_DFFE_PN0P_ clknet_3_1__leaf_clk _064_ net1
+ VSS VSS VDD VDD net200 sky130_fd_sc_hd__dfrtp_1
Xwb_adr_o\[3\]$_DFFE_PN0P_ clknet_3_0__leaf_clk _065_ net1
+ VSS VSS VDD VDD net201 sky130_fd_sc_hd__dfrtp_1
Xwb_adr_o\[4\]$_DFFE_PN0P_ clknet_3_0__leaf_clk _066_ net1
+ VSS VSS VDD VDD net202 sky130_fd_sc_hd__dfrtp_1
Xwb_adr_o\[5\]$_DFFE_PN0P_ clknet_3_1__leaf_clk _067_ net1
+ VSS VSS VDD VDD net203 sky130_fd_sc_hd__dfrtp_1
Xwb_adr_o\[6\]$_DFFE_PN0P_ clknet_3_1__leaf_clk _068_ net1
+ VSS VSS VDD VDD net204 sky130_fd_sc_hd__dfrtp_1
Xwb_adr_o\[7\]$_DFFE_PN0P_ clknet_3_0__leaf_clk _069_ net1
+ VSS VSS VDD VDD net205 sky130_fd_sc_hd__dfrtp_1