
* cell loadable_updown_counter
* pin clk
* pin rst_n
* pin load_val[0]
* pin count[0]
* pin count[2]
* pin load_val[3]
* pin load_val[2]
* pin underflow
* pin up_down
* pin count[1]
* pin load_val[1]
* pin load_en
* pin PWELL
* pin NWELL
* pin count[3]
* pin enable
* pin load_val[4]
* pin count[4]
* pin load_val[5]
* pin count[5]
* pin count[7]
* pin load_val[6]
* pin load_val[7]
* pin overflow
* pin count[6]
.SUBCKT loadable_updown_counter 1 2 3 4 5 6 7 8 9 10 11 12 20 22 108 114 125
+ 139 142 148 149 150 151 152 153
* net 1 clk
* net 2 rst_n
* net 3 load_val[0]
* net 4 count[0]
* net 5 count[2]
* net 6 load_val[3]
* net 7 load_val[2]
* net 8 underflow
* net 9 up_down
* net 10 count[1]
* net 11 load_val[1]
* net 12 load_en
* net 20 PWELL
* net 22 NWELL
* net 108 count[3]
* net 114 enable
* net 125 load_val[4]
* net 139 count[4]
* net 142 load_val[5]
* net 148 count[5]
* net 149 count[7]
* net 150 load_val[6]
* net 151 load_val[7]
* net 152 overflow
* net 153 count[6]
* cell instance $5 r0 *1 27.55,18.2
X$5 1 20 22 64 CLKBUF_X3
* cell instance $8 m0 *1 23.37,4.2
X$8 2 20 22 33 BUF_X2
* cell instance $18 r0 *1 24.7,1.4
X$18 3 20 22 25 BUF_X1
* cell instance $20 r0 *1 25.84,1.4
X$20 13 20 22 4 BUF_X1
* cell instance $26 r0 *1 25.27,1.4
X$26 24 20 22 5 BUF_X1
* cell instance $36 r0 *1 26.41,1.4
X$36 6 20 22 14 BUF_X1
* cell instance $38 r0 *1 26.98,1.4
X$38 7 20 22 28 BUF_X1
* cell instance $44 r0 *1 29.83,1.4
X$44 15 20 22 8 BUF_X1
* cell instance $50 r0 *1 30.4,1.4
X$50 9 20 22 17 BUF_X1
* cell instance $56 r0 *1 30.97,1.4
X$56 16 20 22 10 BUF_X1
* cell instance $62 r0 *1 31.54,1.4
X$62 11 20 22 21 BUF_X1
* cell instance $68 r0 *1 33.44,1.4
X$68 12 22 18 20 BUF_X4
* cell instance $74 m0 *1 26.22,4.2
X$74 13 20 22 27 CLKBUF_X2
* cell instance $77 r0 *1 22.8,4.2
X$77 20 26 13 38 35 22 DFF_X1
* cell instance $80 m0 *1 26.6,9.8
X$80 18 14 22 20 44 AND2_X1
* cell instance $83 m0 *1 29.64,12.6
X$83 50 45 24 27 20 22 15 NOR4_X1
* cell instance $85 m0 *1 30.21,23.8
X$85 40 16 20 22 89 NOR2_X1
* cell instance $88 r0 *1 30.21,23.8
X$88 40 16 20 22 105 NAND2_X1
* cell instance $90 m0 *1 34.39,12.6
X$90 16 43 47 22 20 46 HA_X1
* cell instance $92 m0 *1 27.17,7
X$92 20 39 35 36 16 22 DFF_X2
* cell instance $95 r0 *1 29.83,4.2
X$95 16 34 32 20 22 37 MUX2_X1
* cell instance $103 m0 *1 28.88,4.2
X$103 20 36 30 31 17 26 22 FA_X1
* cell instance $105 r0 *1 30.59,7
X$105 17 20 22 40 BUF_X2
* cell instance $108 r0 *1 32.11,1.4
X$108 21 18 20 22 19 NAND2_X1
* cell instance $112 m0 *1 31.92,4.2
X$112 18 31 19 22 32 20 OAI21_X1
* cell instance $115 r0 *1 23.56,21
X$115 18 92 22 20 97 AND2_X1
* cell instance $117 m0 *1 26.98,18.2
X$117 18 20 22 58 INV_X2
* cell instance $120 m0 *1 28.88,18.2
X$120 68 18 20 22 76 NOR2_X1
* cell instance $125 m0 *1 24.7,4.2
X$125 26 18 25 20 22 23 MUX2_X1
* cell instance $128 r0 *1 26.79,21
X$128 57 18 20 22 100 NAND2_X1
* cell instance $154 r0 *1 29.64,12.6
X$154 45 24 27 20 22 56 NAND3_X1
* cell instance $156 r0 *1 30.59,12.6
X$156 54 20 22 52 INV_X1
* cell instance $158 m0 *1 30.97,12.6
X$158 41 20 22 59 BUF_X2
* cell instance $162 r0 *1 32.68,12.6
X$162 46 27 47 20 63 22 AOI21_X1
* cell instance $163 m0 *1 33.06,12.6
X$163 42 22 54 20 BUF_X4
* cell instance $172 r0 *1 33.44,12.6
X$172 54 46 47 27 53 22 20 AOI211_X2
* cell instance $191 m0 *1 6.27,26.6
X$191 45 20 22 108 BUF_X1
* cell instance $198 m0 *1 21.09,26.6
X$198 114 20 22 57 BUF_X1
* cell instance $202 m0 *1 24.89,26.6
X$202 33 109 58 20 22 120 NAND3_X1
* cell instance $204 m0 *1 26.41,26.6
X$204 57 58 20 22 110 NAND2_X1
* cell instance $205 m0 *1 26.98,26.6
X$205 96 20 22 CLKBUF_X1
* cell instance $206 m0 *1 27.55,26.6
X$206 64 20 22 96 CLKBUF_X3
* cell instance $207 m0 *1 28.5,26.6
X$207 109 104 87 86 20 22 115 NAND4_X1
* cell instance $208 m0 *1 29.45,26.6
X$208 105 115 110 56 22 146 20 NOR4_X2
* cell instance $209 m0 *1 31.16,26.6
X$209 111 103 79 112 22 20 140 AND4_X1
* cell instance $210 m0 *1 32.3,26.6
X$210 40 99 111 70 22 20 116 AND4_X1
* cell instance $214 r0 *1 22.99,26.6
X$214 116 119 120 20 22 126 OR3_X1
* cell instance $215 r0 *1 23.94,26.6
X$215 116 119 127 22 121 20 OAI21_X1
* cell instance $217 r0 *1 24.89,26.6
X$217 109 20 22 122 INV_X1
* cell instance $218 r0 *1 25.27,26.6
X$218 122 33 103 22 20 127 AND3_X1
* cell instance $221 r0 *1 29.64,26.6
X$221 117 111 20 22 123 NAND2_X1
* cell instance $222 r0 *1 30.21,26.6
X$222 111 117 110 20 22 128 OR3_X1
* cell instance $224 r0 *1 31.35,26.6
X$224 128 79 112 20 136 22 AOI21_X1
* cell instance $226 r0 *1 32.3,26.6
X$226 86 43 99 22 20 117 HA_X1
* cell instance $228 r0 *1 34.39,26.6
X$228 99 117 111 22 137 20 OAI21_X1
* cell instance $229 r0 *1 35.15,26.6
X$229 104 43 118 22 20 124 HA_X1
* cell instance $230 m0 *1 37.43,26.6
X$230 91 43 20 22 113 NAND2_X1
* cell instance $231 m0 *1 35.34,26.6
X$231 40 133 113 70 106 119 20 22 OAI221_X2
* cell instance $232 m0 *1 38,26.6
X$232 118 20 22 111 BUF_X2
* cell instance $238 r0 *1 37.05,26.6
X$238 124 111 117 20 91 22 AOI21_X1
* cell instance $242 r0 *1 51.49,26.6
X$242 125 20 22 93 BUF_X1
* cell instance $273 r0 *1 31.16,9.8
X$273 24 43 41 22 20 42 HA_X1
* cell instance $308 r0 *1 24.32,15.4
X$308 62 34 72 20 67 22 AOI21_X1
* cell instance $309 m0 *1 24.7,15.4
X$309 34 45 33 22 62 20 OAI21_X1
* cell instance $314 r0 *1 25.46,15.4
X$314 57 20 22 34 CLKBUF_X3
* cell instance $315 r0 *1 26.41,15.4
X$315 44 58 65 20 72 22 AOI21_X1
* cell instance $317 m0 *1 26.6,15.4
X$317 64 20 22 35 CLKBUF_X3
* cell instance $318 m0 *1 29.07,15.4
X$318 59 20 22 66 INV_X1
* cell instance $319 m0 *1 29.45,15.4
X$319 66 30 52 22 75 20 OAI21_X1
* cell instance $320 m0 *1 30.21,15.4
X$320 30 20 22 60 INV_X1
* cell instance $321 m0 *1 30.59,15.4
X$321 66 63 52 22 61 20 OAI21_X1
* cell instance $327 r0 *1 28.88,15.4
X$327 69 61 22 20 65 XNOR2_X1
* cell instance $328 r0 *1 30.02,15.4
X$328 54 59 60 20 73 22 AOI21_X2
* cell instance $331 m0 *1 34.2,15.4
X$331 40 20 22 43 INV_X4
* cell instance $448 m0 *1 28.12,57.4
X$448 109 20 22 149 BUF_X1
* cell instance $458 r0 *1 24.51,57.4
X$458 151 20 22 145 BUF_X1
* cell instance $462 r0 *1 29.83,57.4
X$462 146 20 22 152 BUF_X1
* cell instance $463 m0 *1 30.02,57.4
X$463 150 20 22 147 BUF_X1
* cell instance $466 m0 *1 33.63,57.4
X$466 86 20 22 148 BUF_X1
* cell instance $475 r0 *1 35.15,57.4
X$475 104 20 22 153 BUF_X1
* cell instance $501 m0 *1 27.74,32.2
X$501 20 143 96 156 87 22 DFF_X2
* cell instance $511 r0 *1 29.45,32.2
X$511 20 141 96 158 104 22 DFF_X2
* cell instance $599 m0 *1 24.51,35
X$599 145 20 22 144 INV_X1
* cell instance $684 m0 *1 22.8,29.4
X$684 126 121 129 20 22 135 NAND3_X1
* cell instance $685 m0 *1 23.56,29.4
X$685 138 33 20 22 129 NAND2_X1
* cell instance $686 m0 *1 24.13,29.4
X$686 100 144 34 122 22 20 138 OAI22_X1
* cell instance $693 r0 *1 2.28,29.4
X$693 142 20 22 92 BUF_X1
* cell instance $702 r0 *1 22.23,29.4
X$702 20 135 96 159 109 22 DFF_X2
* cell instance $704 m0 *1 28.5,29.4
X$704 34 87 33 22 134 20 OAI21_X1
* cell instance $705 m0 *1 27.74,29.4
X$705 134 34 88 20 143 22 AOI21_X1
* cell instance $706 m0 *1 29.26,29.4
X$706 34 104 33 22 130 20 OAI21_X1
* cell instance $707 m0 *1 30.02,29.4
X$707 123 110 147 100 22 20 131 OAI22_X1
* cell instance $708 m0 *1 30.97,29.4
X$708 130 131 140 136 20 22 141 NOR4_X1
* cell instance $713 m0 *1 35.34,29.4
X$713 137 132 20 22 133 NAND2_X1
* cell instance $714 m0 *1 36.1,29.4
X$714 124 20 22 132 INV_X1
* cell instance $725 r0 *1 51.11,29.4
X$725 87 20 22 139 BUF_X1
* cell instance $745 m0 *1 23.75,23.8
X$745 20 95 96 154 86 22 DFF_X2
* cell instance $749 r0 *1 25.84,23.8
X$749 58 57 22 20 103 AND2_X1
* cell instance $752 r0 *1 28.31,23.8
X$752 109 104 87 86 20 22 107 NOR4_X1
* cell instance $753 r0 *1 29.26,23.8
X$753 89 107 103 20 22 50 NAND3_X1
* cell instance $757 m0 *1 31.73,23.8
X$757 90 20 22 112 INV_X1
* cell instance $768 r0 *1 36.1,23.8
X$768 43 91 20 22 106 OR2_X1
* cell instance $791 r0 *1 24.32,12.6
X$791 24 57 51 20 22 48 MUX2_X1
* cell instance $792 m0 *1 24.7,12.6
X$792 33 48 22 20 49 AND2_X1
* cell instance $794 m0 *1 25.46,12.6
X$794 20 49 35 157 24 22 DFF_X2
* cell instance $798 r0 *1 26.22,12.6
X$798 28 58 55 20 22 51 MUX2_X1
* cell instance $800 r0 *1 27.93,12.6
X$800 59 30 22 20 55 XNOR2_X1
* cell instance $825 r0 *1 26.03,4.2
X$825 27 34 23 20 22 29 MUX2_X1
* cell instance $826 r0 *1 27.36,4.2
X$826 33 29 22 20 38 AND2_X1
* cell instance $828 r0 *1 28.5,4.2
X$828 33 37 22 20 39 AND2_X1
* cell instance $882 m0 *1 28.69,21
X$882 68 58 20 22 101 NAND2_X1
* cell instance $893 r0 *1 24.51,21
X$893 98 34 94 20 95 22 AOI21_X1
* cell instance $894 r0 *1 25.27,21
X$894 97 58 85 20 94 22 AOI21_X1
* cell instance $895 r0 *1 26.03,21
X$895 34 86 33 22 98 20 OAI21_X1
* cell instance $897 r0 *1 28.88,21
X$897 78 101 102 93 58 22 20 88 OAI221_X1
* cell instance $899 m0 *1 31.92,21
X$899 81 83 20 22 80 NOR2_X1
* cell instance $900 m0 *1 31.16,21
X$900 69 73 80 22 79 20 OAI21_X1
* cell instance $902 m0 *1 33.25,21
X$902 83 68 81 20 77 22 AOI21_X1
* cell instance $903 m0 *1 34.01,21
X$903 87 43 82 22 20 83 HA_X1
* cell instance $911 r0 *1 31.92,21
X$911 68 83 99 22 90 20 OAI21_X1
* cell instance $912 r0 *1 32.68,21
X$912 99 70 20 22 85 XOR2_X1
* cell instance $937 m0 *1 22.23,18.2
X$937 20 67 35 155 45 22 DFF_X2
* cell instance $943 r0 *1 28.5,18.2
X$943 84 76 69 73 102 20 22 OAI211_X2
* cell instance $946 m0 *1 30.21,18.2
X$946 74 20 22 69 INV_X1
* cell instance $948 r0 *1 30.21,18.2
X$948 81 74 75 20 78 22 AOI21_X1
* cell instance $950 m0 *1 30.97,18.2
X$950 74 68 59 54 71 20 22 OAI211_X2
* cell instance $952 r0 *1 30.97,18.2
X$952 81 20 22 84 INV_X1
* cell instance $953 r0 *1 31.35,18.2
X$953 45 43 74 22 20 81 HA_X1
* cell instance $955 r0 *1 33.63,18.2
X$955 82 22 68 20 BUF_X4
* cell instance $957 m0 *1 33.82,18.2
X$957 77 71 53 22 20 70 OAI21_X2
.ENDS loadable_updown_counter

* cell AOI211_X2
* pin B
* pin A
* pin C2
* pin C1
* pin ZN
* pin NWELL,VDD
* pin PWELL,VSS
.SUBCKT AOI211_X2 1 2 3 4 6 7 8
* net 1 B
* net 2 A
* net 3 C2
* net 4 C1
* net 6 ZN
* net 7 NWELL,VDD
* net 8 PWELL,VSS
* device instance $1 r0 *1 0.175,0.995 PMOS_VTL
M$1 10 1 5 7 PMOS_VTL L=0.05U W=0.63U AS=0.06615P AD=0.0441P PS=1.47U PD=0.77U
* device instance $2 r0 *1 0.365,0.995 PMOS_VTL
M$2 7 2 10 7 PMOS_VTL L=0.05U W=0.63U AS=0.0441P AD=0.0441P PS=0.77U PD=0.77U
* device instance $3 r0 *1 0.555,0.995 PMOS_VTL
M$3 9 2 7 7 PMOS_VTL L=0.05U W=0.63U AS=0.0441P AD=0.0441P PS=0.77U PD=0.77U
* device instance $4 r0 *1 0.745,0.995 PMOS_VTL
M$4 5 1 9 7 PMOS_VTL L=0.05U W=0.63U AS=0.0441P AD=0.055125P PS=0.77U PD=0.805U
* device instance $5 r0 *1 0.97,0.995 PMOS_VTL
M$5 6 3 5 7 PMOS_VTL L=0.05U W=1.26U AS=0.099225P AD=0.11025P PS=1.575U PD=2.24U
* device instance $6 r0 *1 1.16,0.995 PMOS_VTL
M$6 5 4 6 7 PMOS_VTL L=0.05U W=1.26U AS=0.0882P AD=0.0882P PS=1.54U PD=1.54U
* device instance $9 r0 *1 0.175,0.2975 NMOS_VTL
M$9 6 1 8 8 NMOS_VTL L=0.05U W=0.83U AS=0.072625P AD=0.0653625P PS=1.595U
+ PD=1.145U
* device instance $10 r0 *1 0.365,0.2975 NMOS_VTL
M$10 8 2 6 8 NMOS_VTL L=0.05U W=0.83U AS=0.0581P AD=0.0581P PS=1.11U PD=1.11U
* device instance $13 r0 *1 0.97,0.2975 NMOS_VTL
M$13 11 3 8 8 NMOS_VTL L=0.05U W=0.415U AS=0.0363125P AD=0.02905P PS=0.59U
+ PD=0.555U
* device instance $14 r0 *1 1.16,0.2975 NMOS_VTL
M$14 6 4 11 8 NMOS_VTL L=0.05U W=0.415U AS=0.02905P AD=0.02905P PS=0.555U
+ PD=0.555U
* device instance $15 r0 *1 1.35,0.2975 NMOS_VTL
M$15 12 4 6 8 NMOS_VTL L=0.05U W=0.415U AS=0.02905P AD=0.02905P PS=0.555U
+ PD=0.555U
* device instance $16 r0 *1 1.54,0.2975 NMOS_VTL
M$16 8 3 12 8 NMOS_VTL L=0.05U W=0.415U AS=0.02905P AD=0.043575P PS=0.555U
+ PD=1.04U
.ENDS AOI211_X2

* cell INV_X4
* pin A
* pin PWELL,VSS
* pin NWELL,VDD
* pin ZN
.SUBCKT INV_X4 1 2 3 4
* net 1 A
* net 2 PWELL,VSS
* net 3 NWELL,VDD
* net 4 ZN
* device instance $1 r0 *1 0.17,0.995 PMOS_VTL
M$1 4 1 3 3 PMOS_VTL L=0.05U W=2.52U AS=0.19845P AD=0.19845P PS=3.78U PD=3.78U
* device instance $5 r0 *1 0.17,0.2975 NMOS_VTL
M$5 4 1 2 2 NMOS_VTL L=0.05U W=1.66U AS=0.130725P AD=0.130725P PS=2.705U
+ PD=2.705U
.ENDS INV_X4

* cell HA_X1
* pin A
* pin B
* pin S
* pin NWELL,VDD
* pin PWELL,VSS
* pin CO
.SUBCKT HA_X1 1 2 4 5 6 9
* net 1 A
* net 2 B
* net 4 S
* net 5 NWELL,VDD
* net 6 PWELL,VSS
* net 9 CO
* device instance $1 r0 *1 0.785,1.0275 PMOS_VTL
M$1 10 2 5 5 PMOS_VTL L=0.05U W=0.315U AS=0.0338625P AD=0.02205P PS=0.775U
+ PD=0.455U
* device instance $2 r0 *1 0.975,1.0275 PMOS_VTL
M$2 7 1 10 5 PMOS_VTL L=0.05U W=0.315U AS=0.02205P AD=0.033075P PS=0.455U
+ PD=0.84U
* device instance $3 r0 *1 0.21,0.995 PMOS_VTL
M$3 4 2 3 5 PMOS_VTL L=0.05U W=0.63U AS=0.06615P AD=0.0441P PS=1.47U PD=0.77U
* device instance $4 r0 *1 0.4,0.995 PMOS_VTL
M$4 3 1 4 5 PMOS_VTL L=0.05U W=0.63U AS=0.0441P AD=0.0441P PS=0.77U PD=0.77U
* device instance $5 r0 *1 0.59,0.995 PMOS_VTL
M$5 5 7 3 5 PMOS_VTL L=0.05U W=0.63U AS=0.0441P AD=0.0338625P PS=0.77U PD=0.775U
* device instance $6 r0 *1 1.345,1.0275 PMOS_VTL
M$6 8 1 5 5 PMOS_VTL L=0.05U W=0.315U AS=0.033075P AD=0.02205P PS=0.84U
+ PD=0.455U
* device instance $7 r0 *1 1.535,1.0275 PMOS_VTL
M$7 8 2 5 5 PMOS_VTL L=0.05U W=0.315U AS=0.033075P AD=0.02205P PS=0.77U
+ PD=0.455U
* device instance $8 r0 *1 1.725,0.995 PMOS_VTL
M$8 9 8 5 5 PMOS_VTL L=0.05U W=0.63U AS=0.033075P AD=0.06615P PS=0.77U PD=1.47U
* device instance $9 r0 *1 1.345,0.195 NMOS_VTL
M$9 12 1 8 6 NMOS_VTL L=0.05U W=0.21U AS=0.02205P AD=0.0147P PS=0.63U PD=0.35U
* device instance $10 r0 *1 1.535,0.195 NMOS_VTL
M$10 6 2 12 6 NMOS_VTL L=0.05U W=0.21U AS=0.0147P AD=0.021875P PS=0.35U
+ PD=0.555U
* device instance $11 r0 *1 1.725,0.2975 NMOS_VTL
M$11 9 8 6 6 NMOS_VTL L=0.05U W=0.415U AS=0.021875P AD=0.043575P PS=0.555U
+ PD=1.04U
* device instance $12 r0 *1 0.785,0.195 NMOS_VTL
M$12 7 2 6 6 NMOS_VTL L=0.05U W=0.21U AS=0.0224P AD=0.0147P PS=0.56U PD=0.35U
* device instance $13 r0 *1 0.975,0.195 NMOS_VTL
M$13 6 1 7 6 NMOS_VTL L=0.05U W=0.21U AS=0.0147P AD=0.02205P PS=0.35U PD=0.63U
* device instance $14 r0 *1 0.21,0.2975 NMOS_VTL
M$14 11 2 6 6 NMOS_VTL L=0.05U W=0.415U AS=0.043575P AD=0.02905P PS=1.04U
+ PD=0.555U
* device instance $15 r0 *1 0.4,0.2975 NMOS_VTL
M$15 4 1 11 6 NMOS_VTL L=0.05U W=0.415U AS=0.02905P AD=0.02905P PS=0.555U
+ PD=0.555U
* device instance $16 r0 *1 0.59,0.2975 NMOS_VTL
M$16 6 7 4 6 NMOS_VTL L=0.05U W=0.415U AS=0.02905P AD=0.0224P PS=0.555U PD=0.56U
.ENDS HA_X1

* cell OAI221_X2
* pin C2
* pin C1
* pin B1
* pin B2
* pin A
* pin ZN
* pin PWELL,VSS
* pin NWELL,VDD
.SUBCKT OAI221_X2 1 2 3 4 5 7 9 10
* net 1 C2
* net 2 C1
* net 3 B1
* net 4 B2
* net 5 A
* net 7 ZN
* net 9 PWELL,VSS
* net 10 NWELL,VDD
* device instance $1 r0 *1 0.21,0.995 PMOS_VTL
M$1 12 1 10 10 PMOS_VTL L=0.05U W=0.63U AS=0.06615P AD=0.0441P PS=1.47U PD=0.77U
* device instance $2 r0 *1 0.4,0.995 PMOS_VTL
M$2 7 2 12 10 PMOS_VTL L=0.05U W=0.63U AS=0.0441P AD=0.0441P PS=0.77U PD=0.77U
* device instance $3 r0 *1 0.59,0.995 PMOS_VTL
M$3 11 2 7 10 PMOS_VTL L=0.05U W=0.63U AS=0.0441P AD=0.0441P PS=0.77U PD=0.77U
* device instance $4 r0 *1 0.78,0.995 PMOS_VTL
M$4 10 1 11 10 PMOS_VTL L=0.05U W=0.63U AS=0.0441P AD=0.0441P PS=0.77U PD=0.77U
* device instance $5 r0 *1 0.97,0.995 PMOS_VTL
M$5 7 5 10 10 PMOS_VTL L=0.05U W=1.26U AS=0.0882P AD=0.11025P PS=1.54U PD=2.24U
* device instance $6 r0 *1 1.16,0.995 PMOS_VTL
M$6 14 3 7 10 PMOS_VTL L=0.05U W=0.63U AS=0.0441P AD=0.0441P PS=0.77U PD=0.77U
* device instance $7 r0 *1 1.35,0.995 PMOS_VTL
M$7 10 4 14 10 PMOS_VTL L=0.05U W=0.63U AS=0.0441P AD=0.0441P PS=0.77U PD=0.77U
* device instance $8 r0 *1 1.54,0.995 PMOS_VTL
M$8 13 4 10 10 PMOS_VTL L=0.05U W=0.63U AS=0.0441P AD=0.0441P PS=0.77U PD=0.77U
* device instance $9 r0 *1 1.73,0.995 PMOS_VTL
M$9 7 3 13 10 PMOS_VTL L=0.05U W=0.63U AS=0.0441P AD=0.0441P PS=0.77U PD=0.77U
* device instance $11 r0 *1 0.21,0.2975 NMOS_VTL
M$11 7 1 6 9 NMOS_VTL L=0.05U W=0.83U AS=0.072625P AD=0.0581P PS=1.595U PD=1.11U
* device instance $12 r0 *1 0.4,0.2975 NMOS_VTL
M$12 6 2 7 9 NMOS_VTL L=0.05U W=0.83U AS=0.0581P AD=0.0581P PS=1.11U PD=1.11U
* device instance $15 r0 *1 0.97,0.2975 NMOS_VTL
M$15 8 5 6 9 NMOS_VTL L=0.05U W=0.83U AS=0.0581P AD=0.072625P PS=1.11U PD=1.595U
* device instance $16 r0 *1 1.16,0.2975 NMOS_VTL
M$16 9 3 8 9 NMOS_VTL L=0.05U W=0.83U AS=0.0581P AD=0.0581P PS=1.11U PD=1.11U
* device instance $17 r0 *1 1.35,0.2975 NMOS_VTL
M$17 8 4 9 9 NMOS_VTL L=0.05U W=0.83U AS=0.0581P AD=0.0581P PS=1.11U PD=1.11U
.ENDS OAI221_X2

* cell OR2_X1
* pin A1
* pin A2
* pin PWELL,VSS
* pin NWELL,VDD
* pin ZN
.SUBCKT OR2_X1 1 2 3 5 6
* net 1 A1
* net 2 A2
* net 3 PWELL,VSS
* net 5 NWELL,VDD
* net 6 ZN
* device instance $1 r0 *1 0.17,1.1525 PMOS_VTL
M$1 7 1 4 5 PMOS_VTL L=0.05U W=0.315U AS=0.033075P AD=0.02205P PS=0.84U
+ PD=0.455U
* device instance $2 r0 *1 0.36,1.1525 PMOS_VTL
M$2 7 2 5 5 PMOS_VTL L=0.05U W=0.315U AS=0.033075P AD=0.02205P PS=0.77U
+ PD=0.455U
* device instance $3 r0 *1 0.55,0.995 PMOS_VTL
M$3 6 4 5 5 PMOS_VTL L=0.05U W=0.63U AS=0.033075P AD=0.06615P PS=0.77U PD=1.47U
* device instance $4 r0 *1 0.17,0.195 NMOS_VTL
M$4 4 1 3 3 NMOS_VTL L=0.05U W=0.21U AS=0.02205P AD=0.0147P PS=0.63U PD=0.35U
* device instance $5 r0 *1 0.36,0.195 NMOS_VTL
M$5 3 2 4 3 NMOS_VTL L=0.05U W=0.21U AS=0.0147P AD=0.021875P PS=0.35U PD=0.555U
* device instance $6 r0 *1 0.55,0.2975 NMOS_VTL
M$6 6 4 3 3 NMOS_VTL L=0.05U W=0.415U AS=0.021875P AD=0.043575P PS=0.555U
+ PD=1.04U
.ENDS OR2_X1

* cell AND4_X1
* pin A1
* pin A2
* pin A3
* pin A4
* pin NWELL,VDD
* pin PWELL,VSS
* pin ZN
.SUBCKT AND4_X1 1 2 3 4 6 7 8
* net 1 A1
* net 2 A2
* net 3 A3
* net 4 A4
* net 6 NWELL,VDD
* net 7 PWELL,VSS
* net 8 ZN
* device instance $1 r0 *1 0.17,1.1525 PMOS_VTL
M$1 5 1 6 6 PMOS_VTL L=0.05U W=0.315U AS=0.033075P AD=0.02205P PS=0.84U
+ PD=0.455U
* device instance $2 r0 *1 0.36,1.1525 PMOS_VTL
M$2 6 2 5 6 PMOS_VTL L=0.05U W=0.315U AS=0.02205P AD=0.02205P PS=0.455U
+ PD=0.455U
* device instance $3 r0 *1 0.55,1.1525 PMOS_VTL
M$3 5 3 6 6 PMOS_VTL L=0.05U W=0.315U AS=0.02205P AD=0.02205P PS=0.455U
+ PD=0.455U
* device instance $4 r0 *1 0.74,1.1525 PMOS_VTL
M$4 5 4 6 6 PMOS_VTL L=0.05U W=0.315U AS=0.033075P AD=0.02205P PS=0.77U
+ PD=0.455U
* device instance $5 r0 *1 0.93,0.995 PMOS_VTL
M$5 8 5 6 6 PMOS_VTL L=0.05U W=0.63U AS=0.033075P AD=0.06615P PS=0.77U PD=1.47U
* device instance $6 r0 *1 0.17,0.195 NMOS_VTL
M$6 10 1 5 7 NMOS_VTL L=0.05U W=0.21U AS=0.02205P AD=0.0147P PS=0.63U PD=0.35U
* device instance $7 r0 *1 0.36,0.195 NMOS_VTL
M$7 11 2 10 7 NMOS_VTL L=0.05U W=0.21U AS=0.0147P AD=0.0147P PS=0.35U PD=0.35U
* device instance $8 r0 *1 0.55,0.195 NMOS_VTL
M$8 9 3 11 7 NMOS_VTL L=0.05U W=0.21U AS=0.0147P AD=0.0147P PS=0.35U PD=0.35U
* device instance $9 r0 *1 0.74,0.195 NMOS_VTL
M$9 7 4 9 7 NMOS_VTL L=0.05U W=0.21U AS=0.0147P AD=0.021875P PS=0.35U PD=0.555U
* device instance $10 r0 *1 0.93,0.2975 NMOS_VTL
M$10 8 5 7 7 NMOS_VTL L=0.05U W=0.415U AS=0.021875P AD=0.043575P PS=0.555U
+ PD=1.04U
.ENDS AND4_X1

* cell XOR2_X1
* pin A
* pin B
* pin PWELL,VSS
* pin NWELL,VDD
* pin Z
.SUBCKT XOR2_X1 1 3 4 5 6
* net 1 A
* net 3 B
* net 4 PWELL,VSS
* net 5 NWELL,VDD
* net 6 Z
* device instance $1 r0 *1 0.17,1.1525 PMOS_VTL
M$1 8 1 2 5 PMOS_VTL L=0.05U W=0.315U AS=0.033075P AD=0.02205P PS=0.84U
+ PD=0.455U
* device instance $2 r0 *1 0.36,1.1525 PMOS_VTL
M$2 8 3 5 5 PMOS_VTL L=0.05U W=0.315U AS=0.0338625P AD=0.02205P PS=0.775U
+ PD=0.455U
* device instance $3 r0 *1 0.555,0.995 PMOS_VTL
M$3 7 2 5 5 PMOS_VTL L=0.05U W=0.63U AS=0.0338625P AD=0.0441P PS=0.775U PD=0.77U
* device instance $4 r0 *1 0.745,0.995 PMOS_VTL
M$4 6 1 7 5 PMOS_VTL L=0.05U W=0.63U AS=0.0441P AD=0.0441P PS=0.77U PD=0.77U
* device instance $5 r0 *1 0.935,0.995 PMOS_VTL
M$5 7 3 6 5 PMOS_VTL L=0.05U W=0.63U AS=0.0441P AD=0.06615P PS=0.77U PD=1.47U
* device instance $6 r0 *1 0.17,0.195 NMOS_VTL
M$6 2 1 4 4 NMOS_VTL L=0.05U W=0.21U AS=0.02205P AD=0.0147P PS=0.63U PD=0.35U
* device instance $7 r0 *1 0.36,0.195 NMOS_VTL
M$7 4 3 2 4 NMOS_VTL L=0.05U W=0.21U AS=0.0147P AD=0.0224P PS=0.35U PD=0.56U
* device instance $8 r0 *1 0.555,0.2975 NMOS_VTL
M$8 6 2 4 4 NMOS_VTL L=0.05U W=0.415U AS=0.0224P AD=0.02905P PS=0.56U PD=0.555U
* device instance $9 r0 *1 0.745,0.2975 NMOS_VTL
M$9 9 1 6 4 NMOS_VTL L=0.05U W=0.415U AS=0.02905P AD=0.02905P PS=0.555U
+ PD=0.555U
* device instance $10 r0 *1 0.935,0.2975 NMOS_VTL
M$10 4 3 9 4 NMOS_VTL L=0.05U W=0.415U AS=0.02905P AD=0.043575P PS=0.555U
+ PD=1.04U
.ENDS XOR2_X1

* cell OAI21_X2
* pin A
* pin B2
* pin B1
* pin NWELL,VDD
* pin PWELL,VSS
* pin ZN
.SUBCKT OAI21_X2 1 2 3 5 6 7
* net 1 A
* net 2 B2
* net 3 B1
* net 5 NWELL,VDD
* net 6 PWELL,VSS
* net 7 ZN
* device instance $1 r0 *1 0.17,0.995 PMOS_VTL
M$1 7 1 5 5 PMOS_VTL L=0.05U W=1.26U AS=0.11025P AD=0.0882P PS=2.24U PD=1.54U
* device instance $3 r0 *1 0.55,0.995 PMOS_VTL
M$3 8 2 5 5 PMOS_VTL L=0.05U W=0.63U AS=0.0441P AD=0.0441P PS=0.77U PD=0.77U
* device instance $4 r0 *1 0.74,0.995 PMOS_VTL
M$4 7 3 8 5 PMOS_VTL L=0.05U W=0.63U AS=0.0441P AD=0.0441P PS=0.77U PD=0.77U
* device instance $5 r0 *1 0.93,0.995 PMOS_VTL
M$5 9 3 7 5 PMOS_VTL L=0.05U W=0.63U AS=0.0441P AD=0.0441P PS=0.77U PD=0.77U
* device instance $6 r0 *1 1.12,0.995 PMOS_VTL
M$6 5 2 9 5 PMOS_VTL L=0.05U W=0.63U AS=0.0441P AD=0.06615P PS=0.77U PD=1.47U
* device instance $7 r0 *1 0.17,0.2975 NMOS_VTL
M$7 6 1 4 6 NMOS_VTL L=0.05U W=0.83U AS=0.072625P AD=0.0581P PS=1.595U PD=1.11U
* device instance $9 r0 *1 0.55,0.2975 NMOS_VTL
M$9 7 2 4 6 NMOS_VTL L=0.05U W=0.83U AS=0.0581P AD=0.072625P PS=1.11U PD=1.595U
* device instance $10 r0 *1 0.74,0.2975 NMOS_VTL
M$10 4 3 7 6 NMOS_VTL L=0.05U W=0.83U AS=0.0581P AD=0.0581P PS=1.11U PD=1.11U
.ENDS OAI21_X2

* cell BUF_X4
* pin A
* pin NWELL,VDD
* pin Z
* pin PWELL,VSS
.SUBCKT BUF_X4 1 3 4 5
* net 1 A
* net 3 NWELL,VDD
* net 4 Z
* net 5 PWELL,VSS
* device instance $1 r0 *1 0.17,0.995 PMOS_VTL
M$1 2 1 3 3 PMOS_VTL L=0.05U W=1.26U AS=0.11025P AD=0.0882P PS=2.24U PD=1.54U
* device instance $3 r0 *1 0.55,0.995 PMOS_VTL
M$3 4 2 3 3 PMOS_VTL L=0.05U W=2.52U AS=0.1764P AD=0.19845P PS=3.08U PD=3.78U
* device instance $7 r0 *1 0.17,0.2975 NMOS_VTL
M$7 2 1 5 5 NMOS_VTL L=0.05U W=0.83U AS=0.072625P AD=0.0581P PS=1.595U PD=1.11U
* device instance $9 r0 *1 0.55,0.2975 NMOS_VTL
M$9 4 2 5 5 NMOS_VTL L=0.05U W=1.66U AS=0.1162P AD=0.130725P PS=2.22U PD=2.705U
.ENDS BUF_X4

* cell DFF_X1
* pin PWELL,VSS
* pin QN
* pin Q
* pin D
* pin CK
* pin NWELL,VDD
.SUBCKT DFF_X1 1 8 9 14 15 16
* net 1 PWELL,VSS
* net 8 QN
* net 9 Q
* net 14 D
* net 15 CK
* net 16 NWELL,VDD
* device instance $1 r0 *1 2.85,0.995 PMOS_VTL
M$1 16 6 8 16 PMOS_VTL L=0.05U W=0.63U AS=0.06615P AD=0.0441P PS=1.47U PD=0.77U
* device instance $2 r0 *1 3.04,0.995 PMOS_VTL
M$2 9 7 16 16 PMOS_VTL L=0.05U W=0.63U AS=0.0441P AD=0.06615P PS=0.77U PD=1.47U
* device instance $3 r0 *1 0.185,0.9425 PMOS_VTL
M$3 16 5 2 16 PMOS_VTL L=0.05U W=0.315U AS=0.033075P AD=0.014175P PS=0.84U
+ PD=0.455U
* device instance $4 r0 *1 0.375,1.055 PMOS_VTL
M$4 17 3 16 16 PMOS_VTL L=0.05U W=0.09U AS=0.014175P AD=0.0063P PS=0.455U
+ PD=0.23U
* device instance $5 r0 *1 0.565,1.055 PMOS_VTL
M$5 17 5 4 16 PMOS_VTL L=0.05U W=0.09U AS=0.018075P AD=0.0063P PS=0.565U
+ PD=0.23U
* device instance $6 r0 *1 0.76,0.975 PMOS_VTL
M$6 18 2 4 16 PMOS_VTL L=0.05U W=0.42U AS=0.018075P AD=0.0294P PS=0.565U
+ PD=0.56U
* device instance $7 r0 *1 0.95,0.975 PMOS_VTL
M$7 16 14 18 16 PMOS_VTL L=0.05U W=0.42U AS=0.0294P AD=0.025725P PS=0.56U
+ PD=0.56U
* device instance $8 r0 *1 1.14,1.0275 PMOS_VTL
M$8 3 4 16 16 PMOS_VTL L=0.05U W=0.315U AS=0.025725P AD=0.0567P PS=0.56U
+ PD=0.99U
* device instance $9 r0 *1 1.555,1.0275 PMOS_VTL
M$9 16 15 5 16 PMOS_VTL L=0.05U W=0.315U AS=0.033075P AD=0.02205P PS=0.84U
+ PD=0.455U
* device instance $10 r0 *1 1.745,1.0275 PMOS_VTL
M$10 19 4 16 16 PMOS_VTL L=0.05U W=0.315U AS=0.02205P AD=0.02205P PS=0.455U
+ PD=0.455U
* device instance $11 r0 *1 1.935,1.0275 PMOS_VTL
M$11 6 5 19 16 PMOS_VTL L=0.05U W=0.315U AS=0.02205P AD=0.014175P PS=0.455U
+ PD=0.455U
* device instance $12 r0 *1 2.125,1.14 PMOS_VTL
M$12 20 2 6 16 PMOS_VTL L=0.05U W=0.09U AS=0.014175P AD=0.006525P PS=0.455U
+ PD=0.235U
* device instance $13 r0 *1 2.32,1.14 PMOS_VTL
M$13 20 7 16 16 PMOS_VTL L=0.05U W=0.09U AS=0.014175P AD=0.006525P PS=0.455U
+ PD=0.235U
* device instance $14 r0 *1 2.51,1.0275 PMOS_VTL
M$14 7 6 16 16 PMOS_VTL L=0.05U W=0.315U AS=0.014175P AD=0.033075P PS=0.455U
+ PD=0.84U
* device instance $15 r0 *1 2.85,0.2975 NMOS_VTL
M$15 1 6 8 1 NMOS_VTL L=0.05U W=0.415U AS=0.043575P AD=0.02905P PS=1.04U
+ PD=0.555U
* device instance $16 r0 *1 3.04,0.2975 NMOS_VTL
M$16 9 7 1 1 NMOS_VTL L=0.05U W=0.415U AS=0.02905P AD=0.043575P PS=0.555U
+ PD=1.04U
* device instance $17 r0 *1 2.125,0.345 NMOS_VTL
M$17 12 5 6 1 NMOS_VTL L=0.05U W=0.09U AS=0.0105P AD=0.006525P PS=0.35U
+ PD=0.235U
* device instance $18 r0 *1 2.32,0.345 NMOS_VTL
M$18 12 7 1 1 NMOS_VTL L=0.05U W=0.09U AS=0.0105P AD=0.006525P PS=0.35U
+ PD=0.235U
* device instance $19 r0 *1 1.555,0.36 NMOS_VTL
M$19 1 15 5 1 NMOS_VTL L=0.05U W=0.21U AS=0.02205P AD=0.0147P PS=0.63U PD=0.35U
* device instance $20 r0 *1 1.745,0.36 NMOS_VTL
M$20 13 4 1 1 NMOS_VTL L=0.05U W=0.21U AS=0.0147P AD=0.0147P PS=0.35U PD=0.35U
* device instance $21 r0 *1 1.935,0.36 NMOS_VTL
M$21 6 2 13 1 NMOS_VTL L=0.05U W=0.21U AS=0.0147P AD=0.0105P PS=0.35U PD=0.35U
* device instance $22 r0 *1 2.51,0.36 NMOS_VTL
M$22 7 6 1 1 NMOS_VTL L=0.05U W=0.21U AS=0.0105P AD=0.02205P PS=0.35U PD=0.63U
* device instance $23 r0 *1 0.185,0.285 NMOS_VTL
M$23 1 5 2 1 NMOS_VTL L=0.05U W=0.21U AS=0.02205P AD=0.0105P PS=0.63U PD=0.35U
* device instance $24 r0 *1 0.375,0.345 NMOS_VTL
M$24 10 3 1 1 NMOS_VTL L=0.05U W=0.09U AS=0.0105P AD=0.0063P PS=0.35U PD=0.23U
* device instance $25 r0 *1 0.565,0.345 NMOS_VTL
M$25 10 2 4 1 NMOS_VTL L=0.05U W=0.09U AS=0.013P AD=0.0063P PS=0.42U PD=0.23U
* device instance $26 r0 *1 1.14,0.285 NMOS_VTL
M$26 3 4 1 1 NMOS_VTL L=0.05U W=0.21U AS=0.016975P AD=0.02205P PS=0.415U
+ PD=0.63U
* device instance $27 r0 *1 0.76,0.3175 NMOS_VTL
M$27 11 5 4 1 NMOS_VTL L=0.05U W=0.275U AS=0.013P AD=0.01925P PS=0.42U PD=0.415U
* device instance $28 r0 *1 0.95,0.3175 NMOS_VTL
M$28 1 14 11 1 NMOS_VTL L=0.05U W=0.275U AS=0.01925P AD=0.016975P PS=0.415U
+ PD=0.415U
.ENDS DFF_X1

* cell CLKBUF_X2
* pin A
* pin PWELL,VSS
* pin NWELL,VDD
* pin Z
.SUBCKT CLKBUF_X2 1 3 4 5
* net 1 A
* net 3 PWELL,VSS
* net 4 NWELL,VDD
* net 5 Z
* device instance $1 r0 *1 0.17,0.995 PMOS_VTL
M$1 4 1 2 4 PMOS_VTL L=0.05U W=0.63U AS=0.06615P AD=0.0441P PS=1.47U PD=0.77U
* device instance $2 r0 *1 0.36,0.995 PMOS_VTL
M$2 5 2 4 4 PMOS_VTL L=0.05U W=1.26U AS=0.0882P AD=0.11025P PS=1.54U PD=2.24U
* device instance $4 r0 *1 0.17,0.1875 NMOS_VTL
M$4 3 1 2 3 NMOS_VTL L=0.05U W=0.195U AS=0.020475P AD=0.01365P PS=0.6U PD=0.335U
* device instance $5 r0 *1 0.36,0.1875 NMOS_VTL
M$5 5 2 3 3 NMOS_VTL L=0.05U W=0.39U AS=0.0273P AD=0.034125P PS=0.67U PD=0.935U
.ENDS CLKBUF_X2

* cell BUF_X2
* pin A
* pin PWELL,VSS
* pin NWELL,VDD
* pin Z
.SUBCKT BUF_X2 1 3 4 5
* net 1 A
* net 3 PWELL,VSS
* net 4 NWELL,VDD
* net 5 Z
* device instance $1 r0 *1 0.21,0.995 PMOS_VTL
M$1 4 1 2 4 PMOS_VTL L=0.05U W=0.63U AS=0.06615P AD=0.0441P PS=1.47U PD=0.77U
* device instance $2 r0 *1 0.4,0.995 PMOS_VTL
M$2 5 2 4 4 PMOS_VTL L=0.05U W=1.26U AS=0.0882P AD=0.11025P PS=1.54U PD=2.24U
* device instance $4 r0 *1 0.21,0.2975 NMOS_VTL
M$4 3 1 2 3 NMOS_VTL L=0.05U W=0.415U AS=0.043575P AD=0.02905P PS=1.04U
+ PD=0.555U
* device instance $5 r0 *1 0.4,0.2975 NMOS_VTL
M$5 5 2 3 3 NMOS_VTL L=0.05U W=0.83U AS=0.0581P AD=0.072625P PS=1.11U PD=1.595U
.ENDS BUF_X2

* cell CLKBUF_X1
* pin A
* pin PWELL,VSS
* pin NWELL,VDD
.SUBCKT CLKBUF_X1 1 3 4
* net 1 A
* net 3 PWELL,VSS
* net 4 NWELL,VDD
* net 5 Z
* device instance $1 r0 *1 0.19,1.1525 PMOS_VTL
M$1 2 1 4 4 PMOS_VTL L=0.05U W=0.315U AS=0.033075P AD=0.033075P PS=0.77U
+ PD=0.84U
* device instance $2 r0 *1 0.38,0.995 PMOS_VTL
M$2 5 2 4 4 PMOS_VTL L=0.05U W=0.63U AS=0.033075P AD=0.06615P PS=0.77U PD=1.47U
* device instance $3 r0 *1 0.19,0.2075 NMOS_VTL
M$3 3 1 2 3 NMOS_VTL L=0.05U W=0.095U AS=0.009975P AD=0.01015P PS=0.4U PD=0.335U
* device instance $4 r0 *1 0.38,0.2575 NMOS_VTL
M$4 5 2 3 3 NMOS_VTL L=0.05U W=0.195U AS=0.01015P AD=0.020475P PS=0.335U PD=0.6U
.ENDS CLKBUF_X1

* cell NAND4_X1
* pin A4
* pin A3
* pin A2
* pin A1
* pin PWELL,VSS
* pin NWELL,VDD
* pin ZN
.SUBCKT NAND4_X1 1 2 3 4 5 6 7
* net 1 A4
* net 2 A3
* net 3 A2
* net 4 A1
* net 5 PWELL,VSS
* net 6 NWELL,VDD
* net 7 ZN
* device instance $1 r0 *1 0.17,0.995 PMOS_VTL
M$1 7 1 6 6 PMOS_VTL L=0.05U W=0.63U AS=0.06615P AD=0.0441P PS=1.47U PD=0.77U
* device instance $2 r0 *1 0.36,0.995 PMOS_VTL
M$2 6 2 7 6 PMOS_VTL L=0.05U W=0.63U AS=0.0441P AD=0.0441P PS=0.77U PD=0.77U
* device instance $3 r0 *1 0.55,0.995 PMOS_VTL
M$3 7 3 6 6 PMOS_VTL L=0.05U W=0.63U AS=0.0441P AD=0.0441P PS=0.77U PD=0.77U
* device instance $4 r0 *1 0.74,0.995 PMOS_VTL
M$4 6 4 7 6 PMOS_VTL L=0.05U W=0.63U AS=0.0441P AD=0.06615P PS=0.77U PD=1.47U
* device instance $5 r0 *1 0.17,0.2975 NMOS_VTL
M$5 10 1 5 5 NMOS_VTL L=0.05U W=0.415U AS=0.043575P AD=0.02905P PS=1.04U
+ PD=0.555U
* device instance $6 r0 *1 0.36,0.2975 NMOS_VTL
M$6 9 2 10 5 NMOS_VTL L=0.05U W=0.415U AS=0.02905P AD=0.02905P PS=0.555U
+ PD=0.555U
* device instance $7 r0 *1 0.55,0.2975 NMOS_VTL
M$7 8 3 9 5 NMOS_VTL L=0.05U W=0.415U AS=0.02905P AD=0.02905P PS=0.555U
+ PD=0.555U
* device instance $8 r0 *1 0.74,0.2975 NMOS_VTL
M$8 7 4 8 5 NMOS_VTL L=0.05U W=0.415U AS=0.02905P AD=0.043575P PS=0.555U
+ PD=1.04U
.ENDS NAND4_X1

* cell AND3_X1
* pin A1
* pin A2
* pin A3
* pin NWELL,VDD
* pin PWELL,VSS
* pin ZN
.SUBCKT AND3_X1 1 2 3 5 6 7
* net 1 A1
* net 2 A2
* net 3 A3
* net 5 NWELL,VDD
* net 6 PWELL,VSS
* net 7 ZN
* device instance $1 r0 *1 0.17,1.1525 PMOS_VTL
M$1 5 1 4 5 PMOS_VTL L=0.05U W=0.315U AS=0.033075P AD=0.02205P PS=0.84U
+ PD=0.455U
* device instance $2 r0 *1 0.36,1.1525 PMOS_VTL
M$2 4 2 5 5 PMOS_VTL L=0.05U W=0.315U AS=0.02205P AD=0.02205P PS=0.455U
+ PD=0.455U
* device instance $3 r0 *1 0.55,1.1525 PMOS_VTL
M$3 4 3 5 5 PMOS_VTL L=0.05U W=0.315U AS=0.033075P AD=0.02205P PS=0.77U
+ PD=0.455U
* device instance $4 r0 *1 0.74,0.995 PMOS_VTL