
* cell bidirectional_fifo
* pin b_to_a_count[1]
* pin b_to_a_count[2]
* pin b_to_a_count[0]
* pin a_almost_empty
* pin b_to_a_count[3]
* pin a_almost_full
* pin a_rd_data[5]
* pin a_rd_data[6]
* pin a_rd_en
* pin b_wr_en
* pin a_rd_data[7]
* pin a_rd_data[2]
* pin a_rd_data[1]
* pin a_full
* pin a_empty
* pin PWELL
* pin NWELL
* pin clk
* pin b_rd_data[3]
* pin b_rd_data[5]
* pin b_rd_data[4]
* pin rst_n
* pin b_wr_data[2]
* pin b_to_a_count[4]
* pin b_rd_data[6]
* pin b_rd_data[0]
* pin b_rd_data[2]
* pin b_rd_data[7]
* pin a_rd_data[0]
* pin a_rd_data[4]
* pin b_rd_data[1]
* pin b_wr_data[1]
* pin a_rd_data[3]
* pin a_to_b_count[3]
* pin b_almost_empty
* pin b_almost_full
* pin a_to_b_count[2]
* pin b_wr_data[3]
* pin a_to_b_count[0]
* pin b_wr_data[0]
* pin b_wr_data[7]
* pin b_wr_data[6]
* pin b_wr_data[4]
* pin a_to_b_count[1]
* pin b_wr_data[5]
* pin a_wr_data[2]
* pin a_wr_data[1]
* pin b_rd_en
* pin a_wr_data[6]
* pin a_wr_data[7]
* pin a_wr_data[0]
* pin a_wr_en
* pin a_wr_data[3]
* pin a_wr_data[5]
* pin a_wr_data[4]
* pin b_empty
* pin b_full
* pin a_to_b_count[4]
.SUBCKT bidirectional_fifo 1 2 3 4 5 6 7 8 9 10 11 12 13 14 15 16 22 162 276
+ 277 278 279 293 328 329 381 382 427 515 551 552 587 588 757 794 795 796 840
+ 881 882 1004 1046 1085 1086 1087 1207 1208 1243 1313 1314 1359 1369 1381 1384
+ 1387 1388 1391 1392
* net 1 b_to_a_count[1]
* net 2 b_to_a_count[2]
* net 3 b_to_a_count[0]
* net 4 a_almost_empty
* net 5 b_to_a_count[3]
* net 6 a_almost_full
* net 7 a_rd_data[5]
* net 8 a_rd_data[6]
* net 9 a_rd_en
* net 10 b_wr_en
* net 11 a_rd_data[7]
* net 12 a_rd_data[2]
* net 13 a_rd_data[1]
* net 14 a_full
* net 15 a_empty
* net 16 PWELL
* net 22 NWELL
* net 162 clk
* net 276 b_rd_data[3]
* net 277 b_rd_data[5]
* net 278 b_rd_data[4]
* net 279 rst_n
* net 293 b_wr_data[2]
* net 328 b_to_a_count[4]
* net 329 b_rd_data[6]
* net 381 b_rd_data[0]
* net 382 b_rd_data[2]
* net 427 b_rd_data[7]
* net 515 a_rd_data[0]
* net 551 a_rd_data[4]
* net 552 b_rd_data[1]
* net 587 b_wr_data[1]
* net 588 a_rd_data[3]
* net 757 a_to_b_count[3]
* net 794 b_almost_empty
* net 795 b_almost_full
* net 796 a_to_b_count[2]
* net 840 b_wr_data[3]
* net 881 a_to_b_count[0]
* net 882 b_wr_data[0]
* net 1004 b_wr_data[7]
* net 1046 b_wr_data[6]
* net 1085 b_wr_data[4]
* net 1086 a_to_b_count[1]
* net 1087 b_wr_data[5]
* net 1207 a_wr_data[2]
* net 1208 a_wr_data[1]
* net 1243 b_rd_en
* net 1313 a_wr_data[6]
* net 1314 a_wr_data[7]
* net 1359 a_wr_data[0]
* net 1369 a_wr_en
* net 1381 a_wr_data[3]
* net 1384 a_wr_data[5]
* net 1387 a_wr_data[4]
* net 1388 b_empty
* net 1391 b_full
* net 1392 a_to_b_count[4]
* cell instance $3 r0 *1 357.96,1.4
X$3 28 16 22 1 BUF_X1
* cell instance $9 r0 *1 358.53,1.4
X$9 27 16 22 2 BUF_X1
* cell instance $15 r0 *1 359.1,1.4
X$15 34 16 22 3 BUF_X1
* cell instance $20 m0 *1 362.14,4.2
X$20 44 16 22 4 BUF_X1
* cell instance $26 m0 *1 361.57,4.2
X$26 24 16 22 5 BUF_X1
* cell instance $32 r0 *1 361.95,1.4
X$32 20 16 22 6 BUF_X1
* cell instance $39 r0 *1 363.09,1.4
X$39 19 16 22 7 BUF_X1
* cell instance $44 m0 *1 364.99,4.2
X$44 21 16 22 8 BUF_X1
* cell instance $54 r0 *1 365.18,231
X$54 9 16 22 23 CLKBUF_X3
* cell instance $60 r0 *1 366.32,298.2
X$60 10 16 22 25 BUF_X2
* cell instance $63 r0 *1 367.84,1.4
X$63 18 16 22 11 BUF_X1
* cell instance $68 m0 *1 371.83,4.2
X$68 322 16 22 12 BUF_X1
* cell instance $75 r0 *1 373.54,1.4
X$75 17 16 22 13 BUF_X1
* cell instance $80 r0 *1 374.87,1.4
X$80 40 16 22 14 BUF_X1
* cell instance $87 r0 *1 383.23,1.4
X$87 26 16 22 15 BUF_X1
* cell instance $91 m0 *1 359.67,345.8
X$91 261 199 271 16 22 272 MUX2_X1
* cell instance $93 m0 *1 361,345.8
X$93 255 150 22 16 271 AND2_X1
* cell instance $94 m0 *1 361.76,345.8
X$94 16 53 262 272 125 22 DFF_X1
* cell instance $95 m0 *1 364.99,345.8
X$95 16 143 246 275 125 22 DFF_X1
* cell instance $99 m0 *1 378.1,345.8
X$99 201 231 41 22 16 254 OAI21_X4
* cell instance $102 m0 *1 381.52,345.8
X$102 16 1404 264 273 307 22 DFF_X1
* cell instance $103 m0 *1 384.75,345.8
X$103 264 54 195 16 22 273 MUX2_X1
* cell instance $108 m0 *1 354.35,345.8
X$108 16 1453 260 258 104 22 DFF_X1
* cell instance $112 r0 *1 354.16,345.8
X$112 260 257 22 16 280 AND2_X1
* cell instance $113 r0 *1 354.92,345.8
X$113 280 274 281 16 22 258 MUX2_X1
* cell instance $114 r0 *1 356.25,345.8
X$114 259 260 16 22 281 NOR2_X1
* cell instance $117 r0 *1 359.1,345.8
X$117 300 257 22 16 261 AND2_X1
* cell instance $123 r0 *1 362.14,345.8
X$123 152 262 300 22 16 302 HA_X1
* cell instance $125 r0 *1 364.8,345.8
X$125 301 231 79 16 274 22 AOI21_X1
* cell instance $127 r0 *1 367.08,345.8
X$127 246 16 22 282 CLKBUF_X3
* cell instance $129 r0 *1 368.22,345.8
X$129 262 16 22 263 BUF_X2
* cell instance $133 r0 *1 371.07,345.8
X$133 221 231 41 22 16 304 OAI21_X4
* cell instance $135 r0 *1 373.73,345.8
X$135 222 231 41 22 16 332 OAI21_X4
* cell instance $136 r0 *1 376.2,345.8
X$136 156 231 41 22 16 637 OAI21_X4
* cell instance $137 r0 *1 378.67,345.8
X$137 203 231 41 22 16 514 OAI21_X4
* cell instance $141 r0 *1 383.23,345.8
X$141 263 22 286 16 BUF_X4
* cell instance $145 r0 *1 386.65,345.8
X$145 309 65 195 16 22 284 MUX2_X1
* cell instance $148 r0 *1 390.26,345.8
X$148 16 1623 265 310 307 22 DFF_X1
* cell instance $149 r0 *1 393.49,345.8
X$149 265 181 168 16 22 310 MUX2_X1
* cell instance $156 m0 *1 397.29,345.8
X$156 266 22 114 16 BUF_X4
* cell instance $162 r0 *1 397.48,345.8
X$162 265 114 267 16 22 324 MUX2_X1
* cell instance $168 r0 *1 404.7,345.8
X$168 285 54 183 16 22 305 MUX2_X1
* cell instance $172 r0 *1 407.36,345.8
X$172 287 65 183 16 22 288 MUX2_X1
* cell instance $176 m0 *1 417.24,345.8
X$176 239 286 250 16 22 292 MUX2_X1
* cell instance $181 m0 *1 423.51,345.8
X$181 16 1539 244 247 213 22 DFF_X1
* cell instance $186 r0 *1 425.79,345.8
X$186 244 114 240 16 22 268 MUX2_X1
* cell instance $188 m0 *1 429.59,345.8
X$188 211 114 241 16 22 366 MUX2_X1
* cell instance $192 m0 *1 431.87,345.8
X$192 16 1516 241 269 213 22 DFF_X1
* cell instance $859 m0 *1 2.85,348.6
X$859 294 16 22 278 BUF_X1
* cell instance $902 r0 *1 2.09,348.6
X$902 335 16 22 277 BUF_X1
* cell instance $976 m0 *1 305.33,348.6
X$976 16 314 104 1663 296 22 DFF_X2
* cell instance $983 m0 *1 345.42,348.6
X$983 279 16 22 174 BUF_X2
* cell instance $988 m0 *1 357.01,348.6
X$988 16 216 299 297 317 22 DFF_X1
* cell instance $990 m0 *1 361.76,348.6
X$990 299 16 22 319 CLKBUF_X3
* cell instance $1009 r0 *1 305.71,348.6
X$1009 311 296 312 16 22 342 NAND3_X1
* cell instance $1013 r0 *1 314.26,348.6
X$1013 16 336 315 1671 294 22 DFF_X2
* cell instance $1027 r0 *1 354.16,348.6
X$1027 174 16 22 311 CLKBUF_X3
* cell instance $1038 r0 *1 364.04,348.6
X$1038 259 319 16 22 318 NOR2_X1
* cell instance $1039 m0 *1 365.18,348.6
X$1039 302 319 282 23 16 22 301 NAND4_X1
* cell instance $1040 m0 *1 364.61,348.6
X$1040 259 282 16 22 303 NOR2_X1
* cell instance $1041 m0 *1 366.13,348.6
X$1041 302 23 16 22 337 NAND2_X1
* cell instance $1046 r0 *1 366.7,348.6
X$1046 337 231 200 16 338 22 AOI21_X1
* cell instance $1048 m0 *1 367.08,348.6
X$1048 283 338 303 16 22 275 MUX2_X1
* cell instance $1051 m0 *1 380.76,348.6
X$1051 263 22 308 16 BUF_X4
* cell instance $1054 m0 *1 383.04,348.6
X$1054 263 22 266 16 BUF_X4
* cell instance $1057 m0 *1 385.32,348.6
X$1057 264 308 309 16 22 499 MUX2_X1
* cell instance $1058 m0 *1 386.65,348.6
X$1058 16 1403 309 284 307 22 DFF_X1
* cell instance $1061 m0 *1 394.44,348.6
X$1061 16 1402 267 306 307 22 DFF_X1
* cell instance $1062 m0 *1 397.67,348.6
X$1062 267 212 168 16 22 306 MUX2_X1
* cell instance $1065 m0 *1 402.23,348.6
X$1065 16 1462 285 305 289 22 DFF_X1
* cell instance $1068 r0 *1 367.46,348.6
X$1068 109 379 16 22 283 NOR2_X1
* cell instance $1072 r0 *1 386.27,348.6
X$1072 159 16 22 307 CLKBUF_X3
* cell instance $1073 r0 *1 387.22,348.6
X$1073 307 16 22 1692 INV_X1
* cell instance $1081 m0 *1 407.93,348.6
X$1081 16 1452 287 288 289 22 DFF_X1
* cell instance $1082 m0 *1 406.6,348.6
X$1082 285 286 287 16 22 449 MUX2_X1
* cell instance $1084 m0 *1 412.87,348.6
X$1084 16 1427 290 298 289 22 DFF_X1
* cell instance $1085 m0 *1 411.54,348.6
X$1085 290 238 70 16 22 298 MUX2_X1
* cell instance $1086 m0 *1 416.1,348.6
X$1086 290 308 291 16 22 334 MUX2_X1
* cell instance $1087 m0 *1 417.43,348.6
X$1087 291 227 70 16 22 295 MUX2_X1
* cell instance $1088 m0 *1 418.76,348.6
X$1088 16 1397 291 295 289 22 DFF_X1
* cell instance $1105 r0 *1 421.61,348.6
X$1105 327 225 359 16 22 325 MUX2_X1
* cell instance $1110 r0 *1 431.49,348.6
X$1110 327 16 22 70 BUF_X2
* cell instance $1111 r0 *1 432.25,348.6
X$1111 70 332 326 16 22 331 MUX2_X1
* cell instance $1113 r0 *1 433.96,348.6
X$1113 16 1560 326 331 363 22 DFF_X1
* cell instance $1118 r0 *1 442.89,348.6
X$1118 293 16 22 327 CLKBUF_X2
* cell instance $1221 m0 *1 706.8,348.6
X$1221 39 16 22 328 BUF_X1
* cell instance $1233 m0 *1 294.5,354.2
X$1233 410 464 432 16 22 463 MUX2_X1
* cell instance $1234 m0 *1 296.02,354.2
X$1234 16 1482 410 463 339 22 DFF_X1
* cell instance $1236 m0 *1 299.44,354.2
X$1236 384 466 432 16 22 411 MUX2_X1
* cell instance $1242 m0 *1 288.04,354.2
X$1242 16 1534 383 406 339 22 DFF_X1
* cell instance $1244 m0 *1 291.27,354.2
X$1244 383 340 572 16 22 406 MUX2_X1
* cell instance $1248 r0 *1 288.04,354.2
X$1248 316 16 22 339 CLKBUF_X3
* cell instance $1249 r0 *1 288.99,354.2
X$1249 339 16 22 CLKBUF_X1
* cell instance $1254 r0 *1 298.3,354.2
X$1254 410 430 384 16 22 435 MUX2_X1
* cell instance $1259 r0 *1 302.48,354.2
X$1259 553 464 572 16 22 467 MUX2_X1
* cell instance $1261 r0 *1 305.33,354.2
X$1261 311 434 312 16 22 436 NAND3_X1
* cell instance $1262 r0 *1 306.09,354.2
X$1262 344 343 345 434 16 22 493 NAND4_X1
* cell instance $1266 r0 *1 309.13,354.2
X$1266 16 437 536 1669 456 22 DFF_X2
* cell instance $1270 r0 *1 314.07,354.2
X$1270 16 1618 438 470 315 22 DFF_X1
* cell instance $1271 m0 *1 315.78,354.2
X$1271 438 570 385 16 22 470 MUX2_X1
* cell instance $1273 m0 *1 317.11,354.2
X$1273 16 1530 472 473 315 22 DFF_X1
* cell instance $1276 m0 *1 323.57,354.2
X$1276 344 343 345 386 16 22 474 NAND4_X1
* cell instance $1277 m0 *1 324.52,354.2
X$1277 16 439 348 1661 386 22 DFF_X2
* cell instance $1278 m0 *1 328.13,354.2
X$1278 476 386 312 16 22 475 NAND3_X1
* cell instance $1282 m0 *1 341.24,354.2
X$1282 480 340 418 16 22 417 MUX2_X1
* cell instance $1283 m0 *1 342.57,354.2
X$1283 259 387 16 22 418 NOR2_X1
* cell instance $1285 m0 *1 343.33,354.2
X$1285 387 257 22 16 480 AND2_X1
* cell instance $1289 m0 *1 357.77,354.2
X$1289 349 16 22 109 CLKBUF_X3
* cell instance $1293 r0 *1 317.49,354.2
X$1293 438 430 472 16 22 471 MUX2_X1
* cell instance $1297 r0 *1 325.47,354.2
X$1297 475 474 620 16 22 439 NAND3_X1
* cell instance $1301 r0 *1 330.41,354.2
X$1301 150 16 22 476 CLKBUF_X3
* cell instance $1304 r0 *1 334.59,354.2
X$1304 349 312 440 16 22 NOR2_X4
* cell instance $1310 r0 *1 345.23,354.2
X$1310 387 442 16 22 825 XNOR2_X2
* cell instance $1312 r0 *1 347.32,354.2
X$1312 484 482 483 16 22 481 MUX2_X1
* cell instance $1318 m0 *1 362.33,354.2
X$1318 259 522 16 22 388 NOR2_X1
* cell instance $1324 m0 *1 364.8,354.2
X$1324 152 16 22 445 BUF_X2
* cell instance $1326 m0 *1 368.79,354.2
X$1326 16 425 317 1660 322 22 DFF_X2
* cell instance $1327 m0 *1 372.4,354.2
X$1327 476 322 443 16 22 444 NAND3_X1
* cell instance $1328 m0 *1 373.16,354.2
X$1328 444 389 421 16 22 425 NAND3_X1
* cell instance $1330 m0 *1 374.11,354.2
X$1330 476 17 443 16 22 424 NAND3_X1
* cell instance $1331 m0 *1 374.87,354.2
X$1331 16 491 307 1667 17 22 DFF_X2
* cell instance $1337 r0 *1 365.94,354.2
X$1337 200 29 345 19 16 22 531 NAND4_X1
* cell instance $1342 r0 *1 369.74,354.2
X$1342 349 443 392 16 22 NOR2_X4
* cell instance $1345 r0 *1 373.35,354.2
X$1345 445 16 22 402 CLKBUF_X3
* cell instance $1348 m0 *1 385.51,354.2
X$1348 16 1419 390 426 353 22 DFF_X1
* cell instance $1349 m0 *1 384.18,354.2
X$1349 323 286 390 16 22 446 MUX2_X1
* cell instance $1353 m0 *1 392.73,354.2
X$1353 159 16 22 353 CLKBUF_X3
* cell instance $1354 m0 *1 393.68,354.2
X$1354 16 1401 391 490 353 22 DFF_X1
* cell instance $1355 m0 *1 396.91,354.2
X$1355 375 114 391 16 22 487 MUX2_X1
* cell instance $1359 m0 *1 407.55,354.2
X$1359 39 41 397 478 392 421 16 22 OAI221_X2
* cell instance $1360 m0 *1 409.64,354.2
X$1360 39 41 413 479 392 419 16 22 OAI221_X2
* cell instance $1363 m0 *1 412.68,354.2
X$1363 394 452 477 451 395 396 16 22 479 OAI33_X1
* cell instance $1364 m0 *1 414.01,354.2
X$1364 394 525 453 451 416 358 16 22 478 OAI33_X1
* cell instance $1369 r0 *1 394.06,354.2
X$1369 353 16 22 1689 INV_X1
* cell instance $1372 r0 *1 396.72,354.2
X$1372 110 356 16 22 447 NOR2_X1
* cell instance $1374 r0 *1 398.05,354.2
X$1374 487 393 16 22 489 NOR2_X1
* cell instance $1376 r0 *1 398.81,354.2
X$1376 324 393 16 22 566 NOR2_X1
* cell instance $1379 r0 *1 401.28,354.2
X$1379 445 16 22 393 CLKBUF_X3
* cell instance $1383 r0 *1 404.89,354.2
X$1383 486 393 16 22 504 NOR2_X1
* cell instance $1386 r0 *1 406.6,354.2
X$1386 448 393 16 22 485 NOR2_X1
* cell instance $1390 r0 *1 408.5,354.2
X$1390 449 356 16 22 450 NOR2_X1
* cell instance $1396 r0 *1 414.96,354.2
X$1396 457 501 16 22 453 NOR2_X1
* cell instance $1400 m0 *1 418.76,354.2
X$1400 321 398 400 423 401 468 16 22 397 OAI33_X1
* cell instance $1401 m0 *1 420.28,354.2
X$1401 365 522 16 22 468 NOR2_X1
* cell instance $1402 m0 *1 420.85,354.2
X$1402 321 399 409 423 465 403 16 22 413 OAI33_X1
* cell instance $1404 m0 *1 422.37,354.2
X$1404 462 402 16 22 465 NOR2_X1
* cell instance $1405 m0 *1 422.94,354.2
X$1405 87 304 407 16 22 459 MUX2_X1
* cell instance $1406 m0 *1 424.27,354.2
X$1406 16 1480 407 459 289 22 DFF_X1
* cell instance $1410 r0 *1 419.71,354.2
X$1410 268 393 16 22 523 NOR2_X1
* cell instance $1413 r0 *1 421.42,354.2
X$1413 210 393 16 22 512 NOR2_X1
* cell instance $1415 r0 *1 423.51,354.2
X$1415 461 255 407 16 22 462 MUX2_X1
* cell instance $1417 m0 *1 431.11,354.2
X$1417 16 1535 404 458 363 22 DFF_X1
* cell instance $1422 m0 *1 438.33,354.2
X$1422 362 286 455 16 22 457 MUX2_X1
* cell instance $1433 r0 *1 437,354.2
X$1433 159 16 22 363 CLKBUF_X3
* cell instance $1548 m0 *1 1.33,351.4
X$1548 313 16 22 329 BUF_X1
* cell instance $1650 m0 *1 304.57,351.4
X$1650 333 368 367 16 22 330 NAND3_X1
* cell instance $1651 m0 *1 305.33,351.4
X$1651 311 313 312 16 22 333 NAND3_X1
* cell instance $1652 m0 *1 306.09,351.4
X$1652 344 343 150 313 16 22 368 NAND4_X1
* cell instance $1653 m0 *1 307.04,351.4
X$1653 344 343 345 296 16 22 369 NAND4_X1
* cell instance $1665 r0 *1 280.63,351.4
X$1665 16 1570 341 405 339 22 DFF_X1
* cell instance $1666 r0 *1 283.86,351.4
X$1666 341 340 432 16 22 405 MUX2_X1
* cell instance $1671 r0 *1 298.49,351.4
X$1671 16 1567 384 411 339 22 DFF_X1
* cell instance $1674 r0 *1 302.67,351.4
X$1674 16 330 315 1674 313 22 DFF_X2
* cell instance $1675 r0 *1 306.28,351.4
X$1675 342 369 412 16 22 314 NAND3_X1
* cell instance $1676 r0 *1 307.04,351.4
X$1676 16 414 315 1673 335 22 DFF_X2
* cell instance $1677 m0 *1 309.32,351.4
X$1677 311 335 312 16 22 370 NAND3_X1
* cell instance $1680 m0 *1 310.27,351.4
X$1680 344 343 345 335 16 22 415 NAND4_X1
* cell instance $1684 r0 *1 310.65,351.4
X$1684 370 415 346 16 22 414 NAND3_X1
* cell instance $1686 m0 *1 316.35,351.4
X$1686 372 347 373 16 22 336 NAND3_X1
* cell instance $1687 m0 *1 315.4,351.4
X$1687 344 343 345 294 16 22 347 NAND4_X1
* cell instance $1688 m0 *1 317.11,351.4
X$1688 311 294 312 16 22 372 NAND3_X1
* cell instance $1698 r0 *1 318.06,351.4
X$1698 472 340 385 16 22 473 MUX2_X1
* cell instance $1704 r0 *1 341.05,351.4
X$1704 16 1598 387 417 348 22 DFF_X1
* cell instance $1706 m0 *1 350.36,351.4
X$1706 174 16 22 349 INV_X2
* cell instance $1711 m0 *1 351.31,351.4
X$1711 174 16 22 257 BUF_X2
* cell instance $1715 m0 *1 353.97,351.4
X$1715 174 16 22 345 CLKBUF_X3
* cell instance $1720 r0 *1 354.73,351.4
X$1720 349 16 22 259 CLKBUF_X3
* cell instance $1723 r0 *1 356.63,351.4
X$1723 16 378 317 422 152 22 DFF_X2
* cell instance $1724 r0 *1 360.24,351.4
X$1724 422 150 22 16 420 AND2_X1
* cell instance $1726 r0 *1 361.19,351.4
X$1726 420 199 388 16 22 378 MUX2_X1
* cell instance $1728 m0 *1 363.09,351.4
X$1728 380 350 318 16 22 297 MUX2_X1
* cell instance $1732 m0 *1 366.13,351.4
X$1732 320 231 200 16 350 22 AOI21_X1
* cell instance $1733 m0 *1 365.56,351.4
X$1733 109 351 16 22 380 NOR2_X1
* cell instance $1735 m0 *1 367.65,351.4
X$1735 282 16 22 379 INV_X2
* cell instance $1736 m0 *1 368.22,351.4
X$1736 319 16 22 351 INV_X2
* cell instance $1737 m0 *1 368.79,351.4
X$1737 351 379 16 321 22 NAND2_X4
* cell instance $1738 m0 *1 370.5,351.4
X$1738 351 282 16 394 22 NAND2_X4
* cell instance $1744 r0 *1 365.75,351.4
X$1744 23 16 22 443 INV_X2
* cell instance $1745 r0 *1 366.32,351.4
X$1745 282 255 402 23 16 22 320 NAND4_X1
* cell instance $1747 r0 *1 368.79,351.4
X$1747 319 379 16 423 22 NAND2_X4
* cell instance $1748 r0 *1 370.5,351.4
X$1748 319 282 16 451 22 NAND2_X4
* cell instance $1750 r0 *1 372.4,351.4
X$1750 200 29 311 322 16 22 389 NAND4_X1
* cell instance $1754 r0 *1 375.82,351.4
X$1754 200 29 311 17 16 22 352 NAND4_X1
* cell instance $1755 r0 *1 376.77,351.4
X$1755 424 352 419 16 22 491 NAND3_X1
* cell instance $1759 r0 *1 380,351.4
X$1759 16 1651 323 377 307 22 DFF_X1
* cell instance $1760 m0 *1 382.66,351.4
X$1760 323 181 195 16 22 377 MUX2_X1
* cell instance $1768 r0 *1 385.89,351.4
X$1768 390 212 195 16 22 426 MUX2_X1
* cell instance $1771 r0 *1 390.45,351.4
X$1771 16 1624 375 376 353 22 DFF_X1
* cell instance $1773 m0 *1 391.21,351.4
X$1773 375 181 83 16 22 376 MUX2_X1
* cell instance $1775 m0 *1 401.66,351.4
X$1775 354 181 64 16 22 374 MUX2_X1
* cell instance $1779 r0 *1 393.87,351.4
X$1779 391 212 83 16 22 490 MUX2_X1
* cell instance $1781 r0 *1 395.96,351.4
X$1781 786 16 22 159 CLKBUF_X3
* cell instance $1785 r0 *1 400.52,351.4
X$1785 16 1550 354 374 353 22 DFF_X1
* cell instance $1786 r0 *1 403.75,351.4
X$1786 354 114 371 16 22 486 MUX2_X1
* cell instance $1787 m0 *1 405.08,351.4
X$1787 371 212 64 16 22 355 MUX2_X1
* cell instance $1794 r0 *1 405.27,351.4
X$1794 16 1643 371 355 353 22 DFF_X1
* cell instance $1797 r0 *1 413.06,351.4
X$1797 112 356 16 22 396 NOR2_X1
* cell instance $1800 r0 *1 414.2,351.4
X$1800 357 356 16 22 358 NOR2_X1
* cell instance $1803 r0 *1 416.67,351.4
X$1803 366 393 16 22 395 NOR2_X1
* cell instance $1805 m0 *1 417.62,351.4
X$1805 159 16 22 289 CLKBUF_X3
* cell instance $1807 m0 *1 418.57,351.4
X$1807 289 16 22 CLKBUF_X1
* cell instance $1809 m0 *1 420.66,351.4
X$1809 16 1423 359 325 289 22 DFF_X1
* cell instance $1810 m0 *1 423.89,351.4
X$1810 359 255 361 16 22 408 MUX2_X1
* cell instance $1813 r0 *1 418.19,351.4
X$1813 334 356 16 22 398 NOR2_X1
* cell instance $1814 r0 *1 418.76,351.4
X$1814 292 356 16 22 399 NOR2_X1
* cell instance $1815 r0 *1 419.33,351.4
X$1815 115 393 16 22 400 NOR2_X1
* cell instance $1818 r0 *1 420.47,351.4
X$1818 164 393 16 22 416 NOR2_X1
* cell instance $1819 r0 *1 421.04,351.4
X$1819 408 402 16 22 401 NOR2_X1
* cell instance $1820 r0 *1 421.61,351.4
X$1820 116 393 16 22 409 NOR2_X1
* cell instance $1886 m0 *1 280.44,354.2
X$1886 16 1536 428 429 339 22 DFF_X1
* cell instance $1889 r0 *1 280.44,354.2
X$1889 428 340 460 16 22 429 MUX2_X1
* cell instance $1893 r0 *1 283.86,354.2
X$1893 431 430 341 16 22 433 MUX2_X1
* cell instance $16987 m0 *1 306.85,410.2
X$16987 1298 1228 1377 16 22 1383 MUX2_X1
* cell instance $16988 m0 *1 308.18,410.2
X$16988 16 1406 1377 1383 1361 22 DFF_X1
* cell instance $16991 m0 *1 312.93,410.2
X$16991 16 1475 1378 1385 1299 22 DFF_X1
* cell instance $19365 m0 *1 277.02,404.6
X$19365 1334 1242 1354 16 22 1370 MUX2_X1
* cell instance $19368 m0 *1 278.54,404.6
X$19368 1334 1228 1371 16 22 1364 MUX2_X1
* cell instance $19370 r0 *1 278.73,404.6
X$19370 16 1631 1371 1364 1318 22 DFF_X1
* cell instance $19375 m0 *1 286.52,404.6
X$19375 16 1502 1352 1365 1361 22 DFF_X1
* cell instance $19378 r0 *1 289.18,404.6
X$19378 1351 1242 1366 16 22 1373 MUX2_X1
* cell instance $19380 r0 *1 290.51,404.6
X$19380 1366 930 1367 16 22 1095 MUX2_X1
* cell instance $19383 r0 *1 293.74,404.6
X$19383 1351 1228 1367 16 22 1368 MUX2_X1
* cell instance $19389 m0 *1 305.14,404.6
X$19389 16 1400 1363 1376 1361 22 DFF_X1
* cell instance $19392 m0 *1 309.89,404.6
X$19392 16 1524 1355 1375 1361 22 DFF_X1
* cell instance $19395 m0 *1 313.5,404.6
X$19395 16 1501 1356 1372 1325 22 DFF_X1
* cell instance $19398 m0 *1 318.44,404.6
X$19398 16 1474 1357 1374 1325 22 DFF_X1
* cell instance $19684 r0 *1 266.19,396.2
X$19684 1314 16 22 1292 CLKBUF_X2
* cell instance $19686 r0 *1 269.99,396.2
X$19686 16 1553 1346 1315 1318 22 DFF_X1
* cell instance $19692 r0 *1 277.97,396.2
X$19692 1292 1228 1316 16 22 1332 MUX2_X1
* cell instance $19697 r0 *1 282.15,396.2
X$19697 1292 1112 1319 16 22 1317 MUX2_X1
* cell instance $19700 r0 *1 284.24,396.2
X$19700 1334 16 22 432 BUF_X2
* cell instance $19702 r0 *1 285.76,396.2
X$19702 1334 1027 1321 16 22 1320 MUX2_X1
* cell instance $19705 m0 *1 288.42,396.2
X$19705 16 1510 1293 1336 1258 22 DFF_X1
* cell instance $19707 r0 *1 288.8,396.2
X$19707 432 1252 1293 16 22 1336 MUX2_X1
* cell instance $19709 m0 *1 291.65,396.2
X$19709 1321 1219 1293 16 22 1177 MUX2_X1
* cell instance $19715 r0 *1 300.01,396.2
X$19715 16 1634 1297 1295 1275 22 DFF_X1
* cell instance $19717 m0 *1 300.39,396.2
X$19717 432 1214 1297 16 22 1295 MUX2_X1
* cell instance $19718 m0 *1 301.72,396.2
X$19718 1352 1219 1297 16 22 1261 MUX2_X1
* cell instance $19722 r0 *1 304.38,396.2
X$19722 572 1214 1323 16 22 1324 MUX2_X1
* cell instance $19727 r0 *1 309.7,396.2
X$19727 1298 1027 1339 16 22 1340 MUX2_X1
* cell instance $19731 m0 *1 311.79,396.2
X$19731 1298 16 22 649 BUF_X2
* cell instance $19735 r0 *1 313.69,396.2
X$19735 1298 1112 1337 16 22 1338 MUX2_X1
* cell instance $19738 r0 *1 316.73,396.2
X$19738 1335 16 22 385 BUF_X2
* cell instance $19740 r0 *1 318.25,396.2
X$19740 1335 1027 1326 16 22 1333 MUX2_X1
* cell instance $19744 r0 *1 320.72,396.2
X$19744 385 1214 1330 16 22 1331 MUX2_X1
* cell instance $19745 r0 *1 322.05,396.2
X$19745 16 1576 1330 1331 1325 22 DFF_X1
* cell instance $19752 r0 *1 332.5,396.2
X$19752 16 1604 1300 1301 1299 22 DFF_X1
* cell instance $19753 m0 *1 332.5,396.2
X$19753 1280 1242 1300 16 22 1301 MUX2_X1
* cell instance $20062 r0 *1 358.91,320.6
X$20062 32 16 22 34 INV_X4
* cell instance $20065 m0 *1 360.05,320.6
X$20065 33 32 22 42 16 XOR2_X2
* cell instance $20070 m0 *1 361.95,320.6
X$20070 38 16 22 24 INV_X4
* cell instance $20079 m0 *1 383.42,320.6
X$20079 16 39 22 37 BUF_X8
* cell instance $20370 r0 *1 358.15,323.4
X$20370 46 16 22 31 INV_X4
* cell instance $20373 m0 *1 358.91,323.4
X$20373 33 16 22 45 INV_X1
* cell instance $20374 r0 *1 359.1,323.4
X$20374 36 32 45 46 22 16 50 AND4_X1
* cell instance $20375 m0 *1 359.29,323.4
X$20375 31 33 34 36 16 22 43 NOR4_X1
* cell instance $20377 m0 *1 360.24,323.4
X$20377 36 34 33 31 16 22 47 OR4_X1
* cell instance $20380 m0 *1 361.38,323.4
X$20380 48 36 22 38 16 XOR2_X2
* cell instance $20381 r0 *1 361.38,323.4
X$20381 51 48 47 16 22 49 MUX2_X1
* cell instance $20382 r0 *1 362.71,323.4
X$20382 50 43 48 22 16 96 MUX2_X2
* cell instance $20385 r0 *1 365.18,323.4
X$20385 16 41 22 49 BUF_X8
* cell instance $20680 r0 *1 357.77,326.2
X$20680 52 60 16 22 46 XNOR2_X2
* cell instance $20683 m0 *1 359.48,326.2
X$20683 46 45 32 36 16 22 51 NAND4_X1
* cell instance $20705 r0 *1 400.52,326.2
X$20705 16 1555 57 58 55 22 DFF_X1
* cell instance $23399 m0 *1 316.92,413
X$23399 1384 16 22 1298 CLKBUF_X2
* cell instance $23404 m0 *1 322.62,413
X$23404 1387 16 22 1335 CLKBUF_X2
* cell instance $68077 r0 *1 270.75,379.4
X$68077 1057 1141 1129 16 22 1167 MUX2_X1
* cell instance $68079 r0 *1 273.6,379.4
X$68079 16 1543 1116 1169 864 22 DFF_X1
* cell instance $68080 m0 *1 275.12,379.4
X$68080 1121 16 22 864 CLKBUF_X3
* cell instance $68081 m0 *1 274.36,379.4
X$68081 1057 16 22 740 BUF_X2
* cell instance $68082 m0 *1 276.07,379.4
X$68082 864 16 22 1685 INV_X1
* cell instance $68085 r0 *1 276.83,379.4
X$68085 1116 653 1142 16 22 1170 MUX2_X1
* cell instance $68086 r0 *1 278.16,379.4
X$68086 1170 1037 16 22 1059 NOR2_X1
* cell instance $68087 m0 *1 278.54,379.4
X$68087 1060 1037 16 22 1030 NOR2_X1
* cell instance $68095 r0 *1 279.68,379.4
X$68095 1131 1054 16 22 1061 NOR2_X1
* cell instance $68096 r0 *1 280.25,379.4
X$68096 1286 1117 16 22 1031 NOR2_X1
* cell instance $68099 r0 *1 281.77,379.4
X$68099 1171 1117 16 22 1010 NOR2_X1
* cell instance $68102 r0 *1 284.05,379.4
X$68102 1117 16 22 949 CLKBUF_X3
* cell instance $68103 m0 *1 286.14,379.4
X$68103 16 1476 1062 1093 864 22 DFF_X1
* cell instance $68104 m0 *1 284.81,379.4
X$68104 1057 1112 1062 16 22 1093 MUX2_X1
* cell instance $68111 r0 *1 289.37,379.4
X$68111 1054 16 22 1117 INV_X2
* cell instance $68113 m0 *1 291.46,379.4
X$68113 1095 1037 16 22 1096 NOR2_X1
* cell instance $68117 m0 *1 295.83,379.4
X$68117 1062 947 1063 16 22 1097 MUX2_X1
* cell instance $68120 m0 *1 298.87,379.4
X$68120 435 1029 16 22 1135 NOR2_X1
* cell instance $68123 r0 *1 294.5,379.4
X$68123 740 1214 1063 16 22 1145 MUX2_X1
* cell instance $68126 m0 *1 300.01,379.4
X$68126 1097 1069 16 22 1064 NOR2_X1
* cell instance $68128 m0 *1 300.58,379.4
X$68128 1134 1065 16 22 1099 NOR2_X1
* cell instance $68129 m0 *1 301.15,379.4
X$68129 1133 1065 16 22 1067 NOR2_X1
* cell instance $68134 r0 *1 300.58,379.4
X$68134 1176 949 16 22 1180 NOR2_X1
* cell instance $68135 r0 *1 301.15,379.4
X$68135 1178 1069 16 22 1066 NOR2_X1
* cell instance $68136 r0 *1 301.72,379.4
X$68136 1098 1146 1135 1034 1147 1181 16 22 1137 OAI33_X1
* cell instance $68137 r0 *1 303.05,379.4
X$68137 1098 1180 1014 1034 1179 1184 16 22 1101 OAI33_X1
* cell instance $68138 r0 *1 304.38,379.4
X$68138 1118 1069 16 22 1179 NOR2_X1
* cell instance $68140 r0 *1 305.14,379.4
X$68140 1183 1065 16 22 1120 NOR2_X1
* cell instance $68144 m0 *1 306.66,379.4
X$68144 1102 1029 16 22 1119 NOR2_X1
* cell instance $68147 r0 *1 306.66,379.4
X$68147 1098 1186 1119 1034 1148 1120 16 22 1103 OAI33_X1
* cell instance $68150 r0 *1 309.13,379.4
X$68150 1241 1037 16 22 1035 NOR2_X1
* cell instance $68153 m0 *1 309.89,379.4
X$68153 1068 1029 16 22 987 NOR2_X1
* cell instance $68156 m0 *1 315.78,379.4
X$68156 1139 1037 16 22 1105 NOR2_X1
* cell instance $68159 r0 *1 310.65,379.4
X$68159 894 16 22 1394 INV_X2
* cell instance $68160 r0 *1 311.22,379.4
X$68160 1121 16 22 894 CLKBUF_X3
* cell instance $68161 r0 *1 312.17,379.4
X$68161 1098 1190 1140 1034 1122 1192 16 22 990 OAI33_X1
* cell instance $68162 r0 *1 313.5,379.4
X$68162 1151 1037 16 22 1190 NOR2_X1
* cell instance $68165 m0 *1 316.73,379.4
X$68165 1106 1029 16 22 1104 NOR2_X1
* cell instance $68169 r0 *1 320.34,379.4
X$68169 1098 1198 1199 1034 1200 1197 16 22 1138 OAI33_X1
* cell instance $68172 r0 *1 322.62,379.4
X$68172 1117 16 22 1065 CLKBUF_X3
* cell instance $68173 r0 *1 323.57,379.4
X$68173 1117 16 22 1037 CLKBUF_X3
* cell instance $68174 m0 *1 325.47,379.4
X$68174 993 1069 16 22 1123 NOR2_X1
* cell instance $68175 m0 *1 324.52,379.4
X$68175 1054 16 22 1069 CLKBUF_X3
* cell instance $68179 r0 *1 324.9,379.4
X$68179 1245 1117 16 22 1202 NOR2_X1
* cell instance $68181 r0 *1 325.66,379.4
X$68181 1202 1136 1034 1123 1154 1098 16 22 1053 OAI33_X1
* cell instance $68185 m0 *1 327.94,379.4
X$68185 1110 1065 16 22 1109 NOR2_X1
* cell instance $68186 r0 *1 328.13,379.4
X$68186 1203 1054 16 22 1136 NOR2_X1
* cell instance $68187 r0 *1 328.7,379.4
X$68187 1038 1124 16 22 1034 NAND2_X2
* cell instance $68188 m0 *1 329.08,379.4
X$68188 1075 1072 16 981 22 NAND2_X4
* cell instance $68194 m0 *1 342.19,379.4
X$68194 1132 1073 743 16 482 22 AOI21_X1
* cell instance $68197 r0 *1 329.65,379.4
X$68197 1075 1124 16 22 1098 NAND2_X2
* cell instance $68201 r0 *1 331.93,379.4
X$68201 1204 1073 946 22 16 1141 OAI21_X4
* cell instance $68204 r0 *1 338.96,379.4
X$68204 1072 947 1069 770 16 22 1206 NAND4_X1
* cell instance $68205 r0 *1 339.91,379.4
X$68205 1206 1073 743 16 1126 22 AOI21_X1
* cell instance $68207 r0 *1 342.19,379.4
X$68207 1074 1038 1072 770 16 22 1132 NAND4_X1
* cell instance $68208 r0 *1 343.14,379.4
X$68208 1074 770 16 22 1205 NAND2_X1
* cell instance $68209 r0 *1 343.71,379.4
X$68209 1072 16 22 1124 INV_X1
* cell instance $68210 r0 *1 344.09,379.4
X$68210 109 1124 16 22 1156 NOR2_X1
* cell instance $68211 m0 *1 344.28,379.4
X$68211 1038 16 22 1075 INV_X2
* cell instance $68215 m0 *1 347.13,379.4
X$68215 259 1038 16 22 1076 NOR2_X1
* cell instance $68216 m0 *1 347.7,379.4
X$68216 16 1020 1115 1077 1078 22 DFF_X1
* cell instance $68217 m0 *1 350.93,379.4
X$68217 1115 16 22 1038 CLKBUF_X3
* cell instance $68225 r0 *1 345.04,379.4
X$68225 259 1072 16 22 1196 NOR2_X1
* cell instance $68227 r0 *1 346.37,379.4
X$68227 109 1075 16 22 1157 NOR2_X1
* cell instance $68228 r0 *1 346.94,379.4
X$68228 1157 1126 1076 16 22 1077 MUX2_X1
* cell instance $68235 r0 *1 361.95,379.4
X$68235 749 16 22 1078 CLKBUF_X3
* cell instance $68236 r0 *1 362.9,379.4
X$68236 1078 16 22 1396 INV_X2
* cell instance $68241 r0 *1 376.58,379.4
X$68241 16 1566 1079 1130 1078 22 DFF_X1
* cell instance $68243 m0 *1 377.34,379.4
X$68243 876 637 1079 16 22 1130 MUX2_X1
* cell instance $68248 m0 *1 383.61,379.4
X$68248 1018 255 1188 16 22 660 MUX2_X1
* cell instance $68250 m0 *1 387.22,379.4
X$68250 16 1513 1113 1114 1041 22 DFF_X1
* cell instance $68251 m0 *1 390.45,379.4
X$68251 960 225 1080 16 22 1128 MUX2_X1
* cell instance $68252 m0 *1 391.78,379.4
X$68252 749 16 22 1041 CLKBUF_X3
* cell instance $68253 m0 *1 392.73,379.4
X$68253 1041 16 22 CLKBUF_X1
* cell instance $68257 m0 *1 402.61,379.4
X$68257 16 1439 1107 1081 1162 22 DFF_X1
* cell instance $68264 r0 *1 388.36,379.4
X$68264 16 1565 1080 1128 1041 22 DFF_X1
* cell instance $68269 m0 *1 408.5,379.4
X$68269 16 1441 1082 1083 1162 22 DFF_X1
* cell instance $68271 m0 *1 419.33,379.4
X$68271 16 1470 1045 1044 838 22 DFF_X1
* cell instance $68273 m0 *1 422.75,379.4
X$68273 879 225 1084 16 22 1127 MUX2_X1
* cell instance $68276 m0 *1 427.31,379.4
X$68276 960 637 1094 16 22 1166 MUX2_X1