* CDL Netlist generated by OpenROAD

*.BUSDELIMITER [

.SUBCKT bidirectional_fifo a_almost_empty a_almost_full a_empty
+ a_full a_rd_data[0] a_rd_data[1] a_rd_data[2] a_rd_data[3]
+ a_rd_data[4] a_rd_data[5] a_rd_data[6] a_rd_data[7] a_rd_en
+ a_to_b_count[0] a_to_b_count[1] a_to_b_count[2] a_to_b_count[3]
+ a_to_b_count[4] a_wr_data[0] a_wr_data[1] a_wr_data[2] a_wr_data[3]
+ a_wr_data[4] a_wr_data[5] a_wr_data[6] a_wr_data[7] a_wr_en
+ b_almost_empty b_almost_full b_empty b_full b_rd_data[0] b_rd_data[1]
+ b_rd_data[2] b_rd_data[3] b_rd_data[4] b_rd_data[5] b_rd_data[6]
+ b_rd_data[7] b_rd_en b_to_a_count[0] b_to_a_count[1] b_to_a_count[2]
+ b_to_a_count[3] b_to_a_count[4] b_wr_data[0] b_wr_data[1]
+ b_wr_data[2] b_wr_data[3] b_wr_data[4] b_wr_data[5] b_wr_data[6]
+ b_wr_data[7] b_wr_en clk rst_n
X_1257_ _1226_ _0787_ VDD VSS BUF_X2
X_1258_ _1231_ _1228_ _0788_ VDD VSS AND2_X1
X_1259_ _1253_ _1214_ VDD VSS INV_X1
X_1260_ _1230_ _0788_ _1214_ _1227_ _1231_ _0789_ VDD VSS
+ AOI221_X2
X_1261_ _0787_ _0789_ _0790_ VDD VSS XOR2_X2
X_1262_ _0790_ net16 VDD VSS INV_X4
X_1263_ _0787_ _1231_ _0791_ VDD VSS AND2_X1
X_1264_ _1225_ _1230_ _0787_ _1215_ _0791_ _0792_ VDD VSS
+ AOI221_X2
X_1265_ a_wr_ptr\[4\] b_rd_ptr\[4\] _0793_ VDD VSS XNOR2_X2
X_1266_ _0792_ _0793_ _0794_ VDD VSS XOR2_X2
X_1267_ _0794_ _0795_ VDD VSS INV_X8
Xclone1 net43 net42 VDD VSS INV_X4
X_1270_ _1254_ net13 VDD VSS INV_X4
X_1271_ _1215_ _1231_ _0797_ VDD VSS XNOR2_X2
X_1272_ _0797_ net15 VDD VSS INV_X4
X_1273_ _1256_ net30 VDD VSS INV_X4
X_1274_ _1218_ _1234_ _0798_ VDD VSS XNOR2_X2
X_1275_ _0798_ net32 VDD VSS INV_X4
X_1276_ _1221_ _0799_ VDD VSS BUF_X2
X_1277_ _1234_ _1223_ _0800_ VDD VSS AND2_X1
X_1278_ _1255_ _1217_ VDD VSS INV_X1
X_1279_ _1233_ _0800_ _1217_ _1222_ _1234_ _0801_ VDD VSS
+ AOI221_X2
X_1280_ _0799_ _0801_ _0802_ VDD VSS XOR2_X2
X_1281_ _0802_ net33 VDD VSS INV_X4
X_1282_ _0799_ _1234_ _0803_ VDD VSS AND2_X1
X_1283_ _1220_ _1233_ _0799_ net38 _0803_ _0804_ VDD VSS AOI221_X2
X_1284_ b_wr_ptr\[4\] a_rd_ptr\[4\] _0805_ VDD VSS XNOR2_X1
X_1285_ _0805_ _0804_ _0806_ VDD VSS XOR2_X2
X_1286_ _0806_ _0807_ VDD VSS INV_X4
X_1287_ _0807_ _0808_ VDD VSS BUF_X8
X_1288_ _0808_ net34 VDD VSS BUF_X8
X_1289_ net37 _0809_ VDD VSS BUF_X8
X_1290_ _0809_ _0810_ VDD VSS BUF_X8
X_1291_ net14 _0811_ VDD VSS CLKBUF_X2
X_1292_ _0811_ _0812_ VDD VSS INV_X1
X_1293_ _0787_ _1254_ _0812_ _0797_ _0813_ VDD VSS NAND4_X1
X_1294_ _0787_ net13 _0811_ net15 _0814_ VDD VSS OR4_X1
X_1295_ _0813_ _0814_ _0789_ _0815_ VDD VSS MUX2_X1
X_1296_ _0815_ _0816_ VDD VSS BUF_X8
X_1297_ _0816_ _0817_ VDD VSS BUF_X8
X_1298_ _0810_ _0817_ net21 VDD VSS NOR2_X1
X_1299_ _0806_ _0818_ VDD VSS BUF_X8
X_1300_ _0818_ _0819_ VDD VSS BUF_X4
X_1301_ net31 _0820_ VDD VSS CLKBUF_X2
X_1302_ _0820_ _0821_ VDD VSS INV_X1
X_1303_ _0799_ _1256_ _0821_ _0798_ _0822_ VDD VSS NAND4_X1
X_1304_ _0799_ net30 _0820_ net32 _0823_ VDD VSS OR4_X1
X_1305_ _0822_ _0823_ _0801_ _0824_ VDD VSS MUX2_X1
X_1306_ _0824_ _0825_ VDD VSS BUF_X8
Xrebuffer6 net14 net40 VDD VSS BUF_X1
X_1308_ _0819_ _0825_ net4 VDD VSS NOR2_X4
X_1309_ _0825_ net34 net3 VDD VSS NOR2_X4
X_1310_ _0795_ _0817_ net20 VDD VSS NOR2_X1
X_1311_ a_wr_data[0] _0827_ VDD VSS BUF_X1
X_1312_ _0827_ _0828_ VDD VSS BUF_X2
X_1313_ a_wr_ptr\[2\] _0829_ VDD VSS INV_X4
X_1314_ a_wr_en _0830_ VDD VSS BUF_X2
X_1315_ _0830_ _0831_ VDD VSS INV_X4
X_1316_ a_wr_ptr\[3\] _0832_ VDD VSS BUF_X4
X_1317_ _0831_ _0832_ _0833_ VDD VSS NOR2_X4
X_1318_ _0829_ _1246_ _0833_ _0834_ VDD VSS NAND3_X2
X_1319_ _0787_ _1254_ _0812_ _0797_ _0835_ VDD VSS AND4_X1
X_1320_ _0787_ net13 _0811_ net15 _0836_ VDD VSS NOR4_X1
X_1321_ _0835_ _0836_ _0789_ _0837_ VDD VSS MUX2_X2
X_1322_ _0837_ _0838_ VDD VSS BUF_X8
X_1323_ _0834_ _0838_ _0795_ _0839_ VDD VSS AOI21_X4
X_1324_ a_to_b_mem\[0\]\[0\] _0828_ _0839_ _0021_ VDD VSS
+ MUX2_X1
X_1325_ a_wr_data[1] _0840_ VDD VSS CLKBUF_X2
X_1326_ _0840_ _0841_ VDD VSS BUF_X2
X_1327_ a_to_b_mem\[0\]\[1\] _0841_ _0839_ _0022_ VDD VSS
+ MUX2_X1
X_1328_ a_wr_data[2] _0842_ VDD VSS CLKBUF_X2
X_1329_ _0842_ _0843_ VDD VSS BUF_X2
X_1330_ a_to_b_mem\[0\]\[2\] _0843_ _0839_ _0023_ VDD VSS
+ MUX2_X1
X_1331_ a_wr_data[3] _0844_ VDD VSS CLKBUF_X2
X_1332_ _0844_ _0845_ VDD VSS BUF_X2
X_1333_ a_to_b_mem\[0\]\[3\] _0845_ _0839_ _0024_ VDD VSS
+ MUX2_X1
X_1334_ a_wr_data[4] _0846_ VDD VSS CLKBUF_X2
X_1335_ _0846_ _0847_ VDD VSS BUF_X2
X_1336_ a_to_b_mem\[0\]\[4\] _0847_ _0839_ _0025_ VDD VSS
+ MUX2_X1
X_1337_ a_wr_data[5] _0848_ VDD VSS CLKBUF_X2
X_1338_ _0848_ _0849_ VDD VSS BUF_X2
X_1339_ a_to_b_mem\[0\]\[5\] _0849_ _0839_ _0026_ VDD VSS
+ MUX2_X1
X_1340_ a_wr_data[6] _0850_ VDD VSS CLKBUF_X2
X_1341_ _0850_ _0851_ VDD VSS BUF_X2
X_1342_ a_to_b_mem\[0\]\[6\] _0851_ _0839_ _0027_ VDD VSS
+ MUX2_X1
X_1343_ a_wr_data[7] _0852_ VDD VSS CLKBUF_X2
X_1344_ _0852_ _0853_ VDD VSS BUF_X2
X_1345_ a_to_b_mem\[0\]\[7\] _0853_ _0839_ _0028_ VDD VSS
+ MUX2_X1
X_1346_ a_wr_ptr\[2\] _0854_ VDD VSS BUF_X4
X_1347_ _1247_ _0855_ VDD VSS INV_X1
X_1348_ _0830_ _0832_ _0856_ VDD VSS NAND2_X1
X_1349_ _0854_ _0855_ _0856_ _0857_ VDD VSS NOR3_X2
X_1350_ _0857_ _0816_ _0809_ _0858_ VDD VSS OAI21_X4
X_1351_ _0828_ a_to_b_mem\[10\]\[0\] _0858_ _0029_ VDD VSS
+ MUX2_X1
X_1352_ _0841_ a_to_b_mem\[10\]\[1\] _0858_ _0030_ VDD VSS
+ MUX2_X1
X_1353_ _0843_ a_to_b_mem\[10\]\[2\] _0858_ _0031_ VDD VSS
+ MUX2_X1
X_1354_ _0845_ a_to_b_mem\[10\]\[3\] _0858_ _0032_ VDD VSS
+ MUX2_X1
X_1355_ _0847_ a_to_b_mem\[10\]\[4\] _0858_ _0033_ VDD VSS
+ MUX2_X1
X_1356_ _0849_ a_to_b_mem\[10\]\[5\] _0858_ _0034_ VDD VSS
+ MUX2_X1
X_1357_ _0851_ a_to_b_mem\[10\]\[6\] _0858_ _0035_ VDD VSS
+ MUX2_X1
X_1358_ _0853_ a_to_b_mem\[10\]\[7\] _0858_ _0036_ VDD VSS
+ MUX2_X1
X_1359_ _1251_ _0859_ VDD VSS INV_X1
X_1360_ _0854_ _0859_ _0856_ _0860_ VDD VSS NOR3_X2
X_1361_ _0860_ _0816_ _0809_ _0861_ VDD VSS OAI21_X4
X_1362_ _0828_ a_to_b_mem\[11\]\[0\] _0861_ _0037_ VDD VSS
+ MUX2_X1
X_1363_ _0841_ a_to_b_mem\[11\]\[1\] _0861_ _0038_ VDD VSS
+ MUX2_X1
X_1364_ _0843_ a_to_b_mem\[11\]\[2\] _0861_ _0039_ VDD VSS
+ MUX2_X1
X_1365_ _0845_ a_to_b_mem\[11\]\[3\] _0861_ _0040_ VDD VSS
+ MUX2_X1
X_1366_ _0847_ a_to_b_mem\[11\]\[4\] _0861_ _0041_ VDD VSS
+ MUX2_X1
X_1367_ _0849_ a_to_b_mem\[11\]\[5\] _0861_ _0042_ VDD VSS
+ MUX2_X1
X_1368_ _0851_ a_to_b_mem\[11\]\[6\] _0861_ _0043_ VDD VSS
+ MUX2_X1
X_1369_ _0853_ a_to_b_mem\[11\]\[7\] _0861_ _0044_ VDD VSS
+ MUX2_X1
X_1370_ _0830_ _0832_ _0862_ VDD VSS AND2_X2
X_1371_ _0854_ _1246_ _0862_ _0863_ VDD VSS NAND3_X2
X_1372_ _0863_ _0838_ _0795_ _0864_ VDD VSS AOI21_X4
X_1373_ a_to_b_mem\[12\]\[0\] _0828_ _0864_ _0045_ VDD VSS
+ MUX2_X1
X_1374_ a_to_b_mem\[12\]\[1\] _0841_ _0864_ _0046_ VDD VSS
+ MUX2_X1
X_1375_ a_to_b_mem\[12\]\[2\] _0843_ _0864_ _0047_ VDD VSS
+ MUX2_X1
X_1376_ a_to_b_mem\[12\]\[3\] _0845_ _0864_ _0048_ VDD VSS
+ MUX2_X1
X_1377_ a_to_b_mem\[12\]\[4\] _0847_ _0864_ _0049_ VDD VSS
+ MUX2_X1
X_1378_ a_to_b_mem\[12\]\[5\] _0849_ _0864_ _0050_ VDD VSS
+ MUX2_X1
X_1379_ a_to_b_mem\[12\]\[6\] _0851_ _0864_ _0051_ VDD VSS
+ MUX2_X1
X_1380_ a_to_b_mem\[12\]\[7\] _0853_ _0864_ _0052_ VDD VSS
+ MUX2_X1
X_1381_ _0854_ _1249_ _0862_ _0865_ VDD VSS NAND3_X2
X_1382_ _0865_ _0838_ _0795_ _0866_ VDD VSS AOI21_X4
X_1383_ a_to_b_mem\[13\]\[0\] _0828_ _0866_ _0053_ VDD VSS
+ MUX2_X1
X_1384_ a_to_b_mem\[13\]\[1\] _0841_ _0866_ _0054_ VDD VSS
+ MUX2_X1
X_1385_ a_to_b_mem\[13\]\[2\] _0843_ _0866_ _0055_ VDD VSS
+ MUX2_X1
X_1386_ a_to_b_mem\[13\]\[3\] _0845_ _0866_ _0056_ VDD VSS
+ MUX2_X1
X_1387_ a_to_b_mem\[13\]\[4\] _0847_ _0866_ _0057_ VDD VSS
+ MUX2_X1
X_1388_ a_to_b_mem\[13\]\[5\] _0849_ _0866_ _0058_ VDD VSS
+ MUX2_X1
X_1389_ a_to_b_mem\[13\]\[6\] _0851_ _0866_ _0059_ VDD VSS
+ MUX2_X1
X_1390_ a_to_b_mem\[13\]\[7\] _0853_ _0866_ _0060_ VDD VSS
+ MUX2_X1
X_1391_ _0854_ _1247_ _0862_ _0867_ VDD VSS NAND3_X2
X_1392_ _0867_ _0838_ _0795_ _0868_ VDD VSS AOI21_X4
X_1393_ a_to_b_mem\[14\]\[0\] _0828_ _0868_ _0061_ VDD VSS
+ MUX2_X1
X_1394_ a_to_b_mem\[14\]\[1\] _0841_ _0868_ _0062_ VDD VSS
+ MUX2_X1
X_1395_ a_to_b_mem\[14\]\[2\] _0843_ _0868_ _0063_ VDD VSS
+ MUX2_X1
X_1396_ a_to_b_mem\[14\]\[3\] _0845_ _0868_ _0064_ VDD VSS
+ MUX2_X1
X_1397_ a_to_b_mem\[14\]\[4\] _0847_ _0868_ _0065_ VDD VSS
+ MUX2_X1
X_1398_ a_to_b_mem\[14\]\[5\] _0849_ _0868_ _0066_ VDD VSS
+ MUX2_X1
X_1399_ a_to_b_mem\[14\]\[6\] _0851_ _0868_ _0067_ VDD VSS
+ MUX2_X1
X_1400_ a_to_b_mem\[14\]\[7\] _0853_ _0868_ _0068_ VDD VSS
+ MUX2_X1
X_1401_ _0854_ _1251_ _0862_ _0869_ VDD VSS NAND3_X1
X_1402_ _0869_ _0837_ _0795_ _0870_ VDD VSS AOI21_X4
X_1403_ a_to_b_mem\[15\]\[0\] _0828_ _0870_ _0069_ VDD VSS
+ MUX2_X1
X_1404_ a_to_b_mem\[15\]\[1\] _0841_ _0870_ _0070_ VDD VSS
+ MUX2_X1
X_1405_ a_to_b_mem\[15\]\[2\] _0843_ _0870_ _0071_ VDD VSS
+ MUX2_X1
X_1406_ a_to_b_mem\[15\]\[3\] _0845_ _0870_ _0072_ VDD VSS
+ MUX2_X1
X_1407_ a_to_b_mem\[15\]\[4\] _0847_ _0870_ _0073_ VDD VSS
+ MUX2_X1
X_1408_ a_to_b_mem\[15\]\[5\] _0849_ _0870_ _0074_ VDD VSS
+ MUX2_X1
X_1409_ a_to_b_mem\[15\]\[6\] _0851_ _0870_ _0075_ VDD VSS
+ MUX2_X1
X_1410_ a_to_b_mem\[15\]\[7\] _0853_ _0870_ _0076_ VDD VSS
+ MUX2_X1
X_1411_ _0829_ _1249_ _0833_ _0871_ VDD VSS NAND3_X1
X_1412_ _0871_ _0838_ _0795_ _0872_ VDD VSS AOI21_X4
X_1413_ a_to_b_mem\[1\]\[0\] _0828_ _0872_ _0077_ VDD VSS
+ MUX2_X1
X_1414_ a_to_b_mem\[1\]\[1\] _0841_ _0872_ _0078_ VDD VSS
+ MUX2_X1
X_1415_ a_to_b_mem\[1\]\[2\] _0843_ _0872_ _0079_ VDD VSS
+ MUX2_X1
X_1416_ a_to_b_mem\[1\]\[3\] _0845_ _0872_ _0080_ VDD VSS
+ MUX2_X1
X_1417_ a_to_b_mem\[1\]\[4\] _0847_ _0872_ _0081_ VDD VSS
+ MUX2_X1
X_1418_ a_to_b_mem\[1\]\[5\] _0849_ _0872_ _0082_ VDD VSS
+ MUX2_X1
X_1419_ a_to_b_mem\[1\]\[6\] _0851_ _0872_ _0083_ VDD VSS
+ MUX2_X1
X_1420_ a_to_b_mem\[1\]\[7\] _0853_ _0872_ _0084_ VDD VSS
+ MUX2_X1
X_1421_ _0829_ _1247_ _0833_ _0873_ VDD VSS NAND3_X2
X_1422_ _0873_ _0838_ net42 _0874_ VDD VSS AOI21_X4
X_1423_ a_to_b_mem\[2\]\[0\] _0828_ _0874_ _0085_ VDD VSS
+ MUX2_X1
X_1424_ a_to_b_mem\[2\]\[1\] _0841_ _0874_ _0086_ VDD VSS
+ MUX2_X1
X_1425_ a_to_b_mem\[2\]\[2\] _0843_ _0874_ _0087_ VDD VSS
+ MUX2_X1
X_1426_ a_to_b_mem\[2\]\[3\] _0845_ _0874_ _0088_ VDD VSS
+ MUX2_X1
X_1427_ a_to_b_mem\[2\]\[4\] _0847_ _0874_ _0089_ VDD VSS
+ MUX2_X1
X_1428_ a_to_b_mem\[2\]\[5\] _0849_ _0874_ _0090_ VDD VSS
+ MUX2_X1
X_1429_ a_to_b_mem\[2\]\[6\] _0851_ _0874_ _0091_ VDD VSS
+ MUX2_X1
X_1430_ a_to_b_mem\[2\]\[7\] _0853_ _0874_ _0092_ VDD VSS
+ MUX2_X1
X_1431_ _0829_ _1251_ _0833_ _0875_ VDD VSS NAND3_X1
X_1432_ _0875_ _0837_ net42 _0876_ VDD VSS AOI21_X4
X_1433_ a_to_b_mem\[3\]\[0\] _0828_ _0876_ _0093_ VDD VSS
+ MUX2_X1
X_1434_ a_to_b_mem\[3\]\[1\] _0841_ _0876_ _0094_ VDD VSS
+ MUX2_X1
X_1435_ a_to_b_mem\[3\]\[2\] _0843_ _0876_ _0095_ VDD VSS
+ MUX2_X1
X_1436_ a_to_b_mem\[3\]\[3\] _0845_ _0876_ _0096_ VDD VSS
+ MUX2_X1
X_1437_ a_to_b_mem\[3\]\[4\] _0847_ _0876_ _0097_ VDD VSS
+ MUX2_X1
X_1438_ a_to_b_mem\[3\]\[5\] _0849_ _0876_ _0098_ VDD VSS
+ MUX2_X1
X_1439_ a_to_b_mem\[3\]\[6\] _0851_ _0876_ _0099_ VDD VSS
+ MUX2_X1
X_1440_ a_to_b_mem\[3\]\[7\] _0853_ _0876_ _0100_ VDD VSS
+ MUX2_X1
X_1441_ _0854_ _1246_ _0833_ _0877_ VDD VSS AND3_X1
X_1442_ _0877_ _0816_ _0809_ _0878_ VDD VSS OAI21_X4
X_1443_ _0827_ a_to_b_mem\[4\]\[0\] _0878_ _0101_ VDD VSS
+ MUX2_X1
X_1444_ _0840_ a_to_b_mem\[4\]\[1\] _0878_ _0102_ VDD VSS
+ MUX2_X1
X_1445_ _0842_ a_to_b_mem\[4\]\[2\] _0878_ _0103_ VDD VSS
+ MUX2_X1
X_1446_ _0844_ a_to_b_mem\[4\]\[3\] _0878_ _0104_ VDD VSS
+ MUX2_X1
X_1447_ _0846_ a_to_b_mem\[4\]\[4\] _0878_ _0105_ VDD VSS
+ MUX2_X1
X_1448_ _0848_ a_to_b_mem\[4\]\[5\] _0878_ _0106_ VDD VSS
+ MUX2_X1
X_1449_ _0850_ a_to_b_mem\[4\]\[6\] _0878_ _0107_ VDD VSS
+ MUX2_X1
X_1450_ _0852_ a_to_b_mem\[4\]\[7\] _0878_ _0108_ VDD VSS
+ MUX2_X1
X_1451_ _0854_ _1249_ _0833_ _0879_ VDD VSS AND3_X1
X_1452_ _0879_ _0816_ _0809_ _0880_ VDD VSS OAI21_X4
X_1453_ _0827_ a_to_b_mem\[5\]\[0\] _0880_ _0109_ VDD VSS
+ MUX2_X1
X_1454_ _0840_ a_to_b_mem\[5\]\[1\] _0880_ _0110_ VDD VSS
+ MUX2_X1
X_1455_ _0842_ a_to_b_mem\[5\]\[2\] _0880_ _0111_ VDD VSS
+ MUX2_X1
X_1456_ _0844_ a_to_b_mem\[5\]\[3\] _0880_ _0112_ VDD VSS
+ MUX2_X1
X_1457_ _0846_ a_to_b_mem\[5\]\[4\] _0880_ _0113_ VDD VSS
+ MUX2_X1
X_1458_ _0848_ a_to_b_mem\[5\]\[5\] _0880_ _0114_ VDD VSS
+ MUX2_X1
X_1459_ _0850_ a_to_b_mem\[5\]\[6\] _0880_ _0115_ VDD VSS
+ MUX2_X1
X_1460_ _0852_ a_to_b_mem\[5\]\[7\] _0880_ _0116_ VDD VSS
+ MUX2_X1
X_1461_ _0831_ _0832_ _0829_ _0855_ _0881_ VDD VSS NOR4_X4
X_1462_ _0881_ _0816_ _0809_ _0882_ VDD VSS OAI21_X4
X_1463_ _0827_ a_to_b_mem\[6\]\[0\] _0882_ _0117_ VDD VSS
+ MUX2_X1
X_1464_ _0840_ a_to_b_mem\[6\]\[1\] _0882_ _0118_ VDD VSS
+ MUX2_X1
X_1465_ _0842_ a_to_b_mem\[6\]\[2\] _0882_ _0119_ VDD VSS
+ MUX2_X1
X_1466_ _0844_ a_to_b_mem\[6\]\[3\] _0882_ _0120_ VDD VSS
+ MUX2_X1
X_1467_ _0846_ a_to_b_mem\[6\]\[4\] _0882_ _0121_ VDD VSS
+ MUX2_X1
X_1468_ _0848_ a_to_b_mem\[6\]\[5\] _0882_ _0122_ VDD VSS
+ MUX2_X1
X_1469_ _0850_ a_to_b_mem\[6\]\[6\] _0882_ _0123_ VDD VSS
+ MUX2_X1
X_1470_ _0852_ a_to_b_mem\[6\]\[7\] _0882_ _0124_ VDD VSS
+ MUX2_X1
X_1471_ _0831_ _0832_ _0829_ _0859_ _0883_ VDD VSS NOR4_X4
X_1472_ _0883_ _0816_ _0809_ _0884_ VDD VSS OAI21_X4
X_1473_ _0827_ a_to_b_mem\[7\]\[0\] _0884_ _0125_ VDD VSS
+ MUX2_X1
X_1474_ _0840_ a_to_b_mem\[7\]\[1\] _0884_ _0126_ VDD VSS
+ MUX2_X1
X_1475_ _0842_ a_to_b_mem\[7\]\[2\] _0884_ _0127_ VDD VSS
+ MUX2_X1
X_1476_ _0844_ a_to_b_mem\[7\]\[3\] _0884_ _0128_ VDD VSS
+ MUX2_X1
X_1477_ _0846_ a_to_b_mem\[7\]\[4\] _0884_ _0129_ VDD VSS
+ MUX2_X1
X_1478_ _0848_ a_to_b_mem\[7\]\[5\] _0884_ _0130_ VDD VSS
+ MUX2_X1
X_1479_ _0850_ a_to_b_mem\[7\]\[6\] _0884_ _0131_ VDD VSS
+ MUX2_X1
X_1480_ _0852_ a_to_b_mem\[7\]\[7\] _0884_ _0132_ VDD VSS
+ MUX2_X1
X_1481_ _0829_ _1246_ _0862_ _0885_ VDD VSS AND3_X1
X_1482_ _0885_ _0816_ net37 _0886_ VDD VSS OAI21_X4
X_1483_ _0827_ a_to_b_mem\[8\]\[0\] _0886_ _0133_ VDD VSS
+ MUX2_X1
X_1484_ _0840_ a_to_b_mem\[8\]\[1\] _0886_ _0134_ VDD VSS
+ MUX2_X1
X_1485_ _0842_ a_to_b_mem\[8\]\[2\] _0886_ _0135_ VDD VSS
+ MUX2_X1
X_1486_ _0844_ a_to_b_mem\[8\]\[3\] _0886_ _0136_ VDD VSS
+ MUX2_X1
X_1487_ _0846_ a_to_b_mem\[8\]\[4\] _0886_ _0137_ VDD VSS
+ MUX2_X1
X_1488_ _0848_ a_to_b_mem\[8\]\[5\] _0886_ _0138_ VDD VSS
+ MUX2_X1
X_1489_ _0850_ a_to_b_mem\[8\]\[6\] _0886_ _0139_ VDD VSS
+ MUX2_X1
X_1490_ _0852_ a_to_b_mem\[8\]\[7\] _0886_ _0140_ VDD VSS
+ MUX2_X1
X_1491_ _0829_ _1249_ _0862_ _0887_ VDD VSS AND3_X1
X_1492_ _0887_ _0816_ net37 _0888_ VDD VSS OAI21_X4
X_1493_ _0827_ a_to_b_mem\[9\]\[0\] _0888_ _0141_ VDD VSS
+ MUX2_X1
X_1494_ _0840_ a_to_b_mem\[9\]\[1\] _0888_ _0142_ VDD VSS
+ MUX2_X1
X_1495_ _0842_ a_to_b_mem\[9\]\[2\] _0888_ _0143_ VDD VSS
+ MUX2_X1
X_1496_ _0844_ a_to_b_mem\[9\]\[3\] _0888_ _0144_ VDD VSS
+ MUX2_X1
X_1497_ _0846_ a_to_b_mem\[9\]\[4\] _0888_ _0145_ VDD VSS
+ MUX2_X1
X_1498_ _0848_ a_to_b_mem\[9\]\[5\] _0888_ _0146_ VDD VSS
+ MUX2_X1
X_1499_ _0850_ a_to_b_mem\[9\]\[6\] _0888_ _0147_ VDD VSS
+ MUX2_X1
X_1500_ _0852_ a_to_b_mem\[9\]\[7\] _0888_ _0148_ VDD VSS
+ MUX2_X1
X_1501_ b_wr_data[0] _0889_ VDD VSS CLKBUF_X2
X_1502_ _0889_ _0890_ VDD VSS BUF_X2
X_1503_ b_wr_ptr\[2\] _0891_ VDD VSS INV_X4
X_1504_ b_wr_en _0892_ VDD VSS BUF_X2
X_1505_ _0892_ _0893_ VDD VSS INV_X4
X_1506_ b_wr_ptr\[3\] _0894_ VDD VSS BUF_X4
X_1507_ _0893_ _0894_ _0895_ VDD VSS NOR2_X4
X_1508_ _0891_ _1237_ _0895_ _0896_ VDD VSS NAND3_X2
X_1509_ _0799_ _1256_ _0821_ _0798_ _0897_ VDD VSS AND4_X1
X_1510_ _0799_ net30 _0820_ net32 _0898_ VDD VSS NOR4_X1
X_1511_ _0897_ _0898_ _0801_ _0899_ VDD VSS MUX2_X2
X_1512_ _0899_ _0900_ VDD VSS BUF_X8
X_1513_ _0896_ _0900_ _0808_ _0901_ VDD VSS AOI21_X4
X_1514_ b_to_a_mem\[0\]\[0\] _0890_ _0901_ _0167_ VDD VSS
+ MUX2_X1
X_1515_ b_wr_data[1] _0902_ VDD VSS CLKBUF_X2
X_1516_ _0902_ _0903_ VDD VSS BUF_X2
X_1517_ b_to_a_mem\[0\]\[1\] _0903_ _0901_ _0168_ VDD VSS
+ MUX2_X1
X_1518_ b_wr_data[2] _0904_ VDD VSS CLKBUF_X2
X_1519_ _0904_ _0905_ VDD VSS BUF_X2
X_1520_ b_to_a_mem\[0\]\[2\] _0905_ _0901_ _0169_ VDD VSS
+ MUX2_X1
X_1521_ b_wr_data[3] _0906_ VDD VSS CLKBUF_X2
X_1522_ _0906_ _0907_ VDD VSS BUF_X2
X_1523_ b_to_a_mem\[0\]\[3\] _0907_ _0901_ _0170_ VDD VSS
+ MUX2_X1
X_1524_ b_wr_data[4] _0908_ VDD VSS BUF_X2
X_1525_ _0908_ _0909_ VDD VSS BUF_X2
X_1526_ b_to_a_mem\[0\]\[4\] _0909_ _0901_ _0171_ VDD VSS
+ MUX2_X1
X_1527_ b_wr_data[5] _0910_ VDD VSS BUF_X2
X_1528_ _0910_ _0911_ VDD VSS BUF_X2
X_1529_ b_to_a_mem\[0\]\[5\] _0911_ _0901_ _0172_ VDD VSS
+ MUX2_X1
X_1530_ b_wr_data[6] _0912_ VDD VSS BUF_X2
X_1531_ _0912_ _0913_ VDD VSS BUF_X2
X_1532_ b_to_a_mem\[0\]\[6\] _0913_ _0901_ _0173_ VDD VSS
+ MUX2_X1
X_1533_ b_wr_data[7] _0914_ VDD VSS CLKBUF_X2
X_1534_ _0914_ _0915_ VDD VSS BUF_X2
X_1535_ b_to_a_mem\[0\]\[7\] _0915_ _0901_ _0174_ VDD VSS
+ MUX2_X1
X_1536_ b_wr_ptr\[2\] _0916_ VDD VSS BUF_X4
X_1537_ _1238_ _0917_ VDD VSS INV_X1
X_1538_ _0892_ _0894_ _0918_ VDD VSS NAND2_X1
X_1539_ _0916_ _0917_ _0918_ _0919_ VDD VSS NOR3_X2
X_1540_ _0919_ _0825_ _0818_ _0920_ VDD VSS OAI21_X4
X_1541_ _0890_ b_to_a_mem\[10\]\[0\] _0920_ _0175_ VDD VSS
+ MUX2_X1
X_1542_ _0903_ b_to_a_mem\[10\]\[1\] _0920_ _0176_ VDD VSS
+ MUX2_X1
X_1543_ _0905_ b_to_a_mem\[10\]\[2\] _0920_ _0177_ VDD VSS
+ MUX2_X1
X_1544_ _0907_ b_to_a_mem\[10\]\[3\] _0920_ _0178_ VDD VSS
+ MUX2_X1
X_1545_ _0909_ b_to_a_mem\[10\]\[4\] _0920_ _0179_ VDD VSS
+ MUX2_X1
X_1546_ _0911_ b_to_a_mem\[10\]\[5\] _0920_ _0180_ VDD VSS
+ MUX2_X1
X_1547_ _0913_ b_to_a_mem\[10\]\[6\] _0920_ _0181_ VDD VSS
+ MUX2_X1
X_1548_ _0915_ b_to_a_mem\[10\]\[7\] _0920_ _0182_ VDD VSS
+ MUX2_X1
X_1549_ _1242_ _0921_ VDD VSS INV_X1
X_1550_ _0916_ _0921_ _0918_ _0922_ VDD VSS NOR3_X2
X_1551_ _0922_ _0825_ _0818_ _0923_ VDD VSS OAI21_X4
X_1552_ _0890_ b_to_a_mem\[11\]\[0\] _0923_ _0183_ VDD VSS
+ MUX2_X1
X_1553_ _0903_ b_to_a_mem\[11\]\[1\] _0923_ _0184_ VDD VSS
+ MUX2_X1
X_1554_ _0905_ b_to_a_mem\[11\]\[2\] _0923_ _0185_ VDD VSS
+ MUX2_X1
X_1555_ _0907_ b_to_a_mem\[11\]\[3\] _0923_ _0186_ VDD VSS
+ MUX2_X1
X_1556_ _0909_ b_to_a_mem\[11\]\[4\] _0923_ _0187_ VDD VSS
+ MUX2_X1
X_1557_ _0911_ b_to_a_mem\[11\]\[5\] _0923_ _0188_ VDD VSS
+ MUX2_X1
X_1558_ _0913_ b_to_a_mem\[11\]\[6\] _0923_ _0189_ VDD VSS
+ MUX2_X1
X_1559_ _0915_ b_to_a_mem\[11\]\[7\] _0923_ _0190_ VDD VSS
+ MUX2_X1
X_1560_ _0892_ _0894_ _0924_ VDD VSS AND2_X2
X_1561_ _0916_ _1237_ _0924_ _0925_ VDD VSS NAND3_X2
X_1562_ _0925_ _0900_ _0808_ _0926_ VDD VSS AOI21_X4
X_1563_ b_to_a_mem\[12\]\[0\] _0890_ _0926_ _0191_ VDD VSS
+ MUX2_X1
X_1564_ b_to_a_mem\[12\]\[1\] _0903_ _0926_ _0192_ VDD VSS
+ MUX2_X1
X_1565_ b_to_a_mem\[12\]\[2\] _0905_ _0926_ _0193_ VDD VSS
+ MUX2_X1
X_1566_ b_to_a_mem\[12\]\[3\] _0907_ _0926_ _0194_ VDD VSS
+ MUX2_X1
X_1567_ b_to_a_mem\[12\]\[4\] _0909_ _0926_ _0195_ VDD VSS
+ MUX2_X1
X_1568_ b_to_a_mem\[12\]\[5\] _0911_ _0926_ _0196_ VDD VSS
+ MUX2_X1
X_1569_ b_to_a_mem\[12\]\[6\] _0913_ _0926_ _0197_ VDD VSS
+ MUX2_X1
X_1570_ b_to_a_mem\[12\]\[7\] _0915_ _0926_ _0198_ VDD VSS
+ MUX2_X1
X_1571_ _0916_ _1240_ _0924_ _0927_ VDD VSS NAND3_X2
X_1572_ _0927_ _0900_ _0808_ _0928_ VDD VSS AOI21_X4
X_1573_ b_to_a_mem\[13\]\[0\] _0890_ _0928_ _0199_ VDD VSS
+ MUX2_X1
X_1574_ b_to_a_mem\[13\]\[1\] _0903_ _0928_ _0200_ VDD VSS
+ MUX2_X1
X_1575_ b_to_a_mem\[13\]\[2\] _0905_ _0928_ _0201_ VDD VSS
+ MUX2_X1
X_1576_ b_to_a_mem\[13\]\[3\] _0907_ _0928_ _0202_ VDD VSS
+ MUX2_X1
X_1577_ b_to_a_mem\[13\]\[4\] _0909_ _0928_ _0203_ VDD VSS
+ MUX2_X1
X_1578_ b_to_a_mem\[13\]\[5\] _0911_ _0928_ _0204_ VDD VSS
+ MUX2_X1
X_1579_ b_to_a_mem\[13\]\[6\] _0913_ _0928_ _0205_ VDD VSS
+ MUX2_X1
X_1580_ b_to_a_mem\[13\]\[7\] _0915_ _0928_ _0206_ VDD VSS
+ MUX2_X1
X_1581_ _0916_ _1238_ _0924_ _0929_ VDD VSS NAND3_X2
X_1582_ _0929_ _0900_ _0808_ _0930_ VDD VSS AOI21_X4
X_1583_ b_to_a_mem\[14\]\[0\] _0890_ _0930_ _0207_ VDD VSS
+ MUX2_X1
X_1584_ b_to_a_mem\[14\]\[1\] _0903_ _0930_ _0208_ VDD VSS
+ MUX2_X1
X_1585_ b_to_a_mem\[14\]\[2\] _0905_ _0930_ _0209_ VDD VSS
+ MUX2_X1
X_1586_ b_to_a_mem\[14\]\[3\] _0907_ _0930_ _0210_ VDD VSS
+ MUX2_X1
X_1587_ b_to_a_mem\[14\]\[4\] _0909_ _0930_ _0211_ VDD VSS
+ MUX2_X1
X_1588_ b_to_a_mem\[14\]\[5\] _0911_ _0930_ _0212_ VDD VSS
+ MUX2_X1
X_1589_ b_to_a_mem\[14\]\[6\] _0913_ _0930_ _0213_ VDD VSS
+ MUX2_X1
X_1590_ b_to_a_mem\[14\]\[7\] _0915_ _0930_ _0214_ VDD VSS
+ MUX2_X1
X_1591_ _0916_ _1242_ _0924_ _0931_ VDD VSS NAND3_X1
X_1592_ _0931_ _0899_ _0807_ _0932_ VDD VSS AOI21_X4
X_1593_ b_to_a_mem\[15\]\[0\] _0890_ _0932_ _0215_ VDD VSS
+ MUX2_X1
X_1594_ b_to_a_mem\[15\]\[1\] _0903_ _0932_ _0216_ VDD VSS
+ MUX2_X1
X_1595_ b_to_a_mem\[15\]\[2\] _0905_ _0932_ _0217_ VDD VSS
+ MUX2_X1
X_1596_ b_to_a_mem\[15\]\[3\] _0907_ _0932_ _0218_ VDD VSS
+ MUX2_X1
X_1597_ b_to_a_mem\[15\]\[4\] _0909_ _0932_ _0219_ VDD VSS
+ MUX2_X1
X_1598_ b_to_a_mem\[15\]\[5\] _0911_ _0932_ _0220_ VDD VSS
+ MUX2_X1
X_1599_ b_to_a_mem\[15\]\[6\] _0913_ _0932_ _0221_ VDD VSS
+ MUX2_X1
X_1600_ b_to_a_mem\[15\]\[7\] _0915_ _0932_ _0222_ VDD VSS
+ MUX2_X1
X_1601_ _0891_ _1240_ _0895_ _0300_ VDD VSS NAND3_X2
X_1602_ _0300_ _0900_ _0807_ _0301_ VDD VSS AOI21_X4
X_1603_ b_to_a_mem\[1\]\[0\] _0890_ _0301_ _0223_ VDD VSS
+ MUX2_X1
X_1604_ b_to_a_mem\[1\]\[1\] _0903_ _0301_ _0224_ VDD VSS
+ MUX2_X1
X_1605_ b_to_a_mem\[1\]\[2\] _0905_ _0301_ _0225_ VDD VSS
+ MUX2_X1
X_1606_ b_to_a_mem\[1\]\[3\] _0907_ _0301_ _0226_ VDD VSS
+ MUX2_X1
X_1607_ b_to_a_mem\[1\]\[4\] _0909_ _0301_ _0227_ VDD VSS
+ MUX2_X1
X_1608_ b_to_a_mem\[1\]\[5\] _0911_ _0301_ _0228_ VDD VSS
+ MUX2_X1
X_1609_ b_to_a_mem\[1\]\[6\] _0913_ _0301_ _0229_ VDD VSS
+ MUX2_X1
X_1610_ b_to_a_mem\[1\]\[7\] _0915_ _0301_ _0230_ VDD VSS
+ MUX2_X1
X_1611_ _0891_ _1238_ _0895_ _0302_ VDD VSS NAND3_X1
X_1612_ _0302_ _0900_ _0807_ _0303_ VDD VSS AOI21_X4
X_1613_ b_to_a_mem\[2\]\[0\] _0890_ _0303_ _0231_ VDD VSS
+ MUX2_X1
X_1614_ b_to_a_mem\[2\]\[1\] _0903_ _0303_ _0232_ VDD VSS
+ MUX2_X1
X_1615_ b_to_a_mem\[2\]\[2\] _0905_ _0303_ _0233_ VDD VSS
+ MUX2_X1
X_1616_ b_to_a_mem\[2\]\[3\] _0907_ _0303_ _0234_ VDD VSS
+ MUX2_X1
X_1617_ b_to_a_mem\[2\]\[4\] _0909_ _0303_ _0235_ VDD VSS
+ MUX2_X1
X_1618_ b_to_a_mem\[2\]\[5\] _0911_ _0303_ _0236_ VDD VSS
+ MUX2_X1
X_1619_ b_to_a_mem\[2\]\[6\] _0913_ _0303_ _0237_ VDD VSS
+ MUX2_X1
X_1620_ b_to_a_mem\[2\]\[7\] _0915_ _0303_ _0238_ VDD VSS
+ MUX2_X1
X_1621_ _0891_ _1242_ _0895_ _0304_ VDD VSS NAND3_X2
X_1622_ _0304_ _0899_ _0807_ _0305_ VDD VSS AOI21_X4
X_1623_ b_to_a_mem\[3\]\[0\] _0890_ _0305_ _0239_ VDD VSS
+ MUX2_X1
X_1624_ b_to_a_mem\[3\]\[1\] _0903_ _0305_ _0240_ VDD VSS
+ MUX2_X1
X_1625_ b_to_a_mem\[3\]\[2\] _0905_ _0305_ _0241_ VDD VSS
+ MUX2_X1
X_1626_ b_to_a_mem\[3\]\[3\] _0907_ _0305_ _0242_ VDD VSS
+ MUX2_X1
X_1627_ b_to_a_mem\[3\]\[4\] _0909_ _0305_ _0243_ VDD VSS
+ MUX2_X1
X_1628_ b_to_a_mem\[3\]\[5\] _0911_ _0305_ _0244_ VDD VSS
+ MUX2_X1
X_1629_ b_to_a_mem\[3\]\[6\] _0913_ _0305_ _0245_ VDD VSS
+ MUX2_X1
X_1630_ b_to_a_mem\[3\]\[7\] _0915_ _0305_ _0246_ VDD VSS
+ MUX2_X1
X_1631_ _0916_ _1237_ _0895_ _0306_ VDD VSS AND3_X1
X_1632_ _0306_ _0825_ _0818_ _0307_ VDD VSS OAI21_X4
X_1633_ _0889_ b_to_a_mem\[4\]\[0\] _0307_ _0247_ VDD VSS
+ MUX2_X1
X_1634_ _0902_ b_to_a_mem\[4\]\[1\] _0307_ _0248_ VDD VSS
+ MUX2_X1
X_1635_ _0904_ b_to_a_mem\[4\]\[2\] _0307_ _0249_ VDD VSS
+ MUX2_X1
X_1636_ _0906_ b_to_a_mem\[4\]\[3\] _0307_ _0250_ VDD VSS
+ MUX2_X1
X_1637_ _0908_ b_to_a_mem\[4\]\[4\] _0307_ _0251_ VDD VSS
+ MUX2_X1
X_1638_ _0910_ b_to_a_mem\[4\]\[5\] _0307_ _0252_ VDD VSS
+ MUX2_X1
X_1639_ _0912_ b_to_a_mem\[4\]\[6\] _0307_ _0253_ VDD VSS
+ MUX2_X1
X_1640_ _0914_ b_to_a_mem\[4\]\[7\] _0307_ _0254_ VDD VSS
+ MUX2_X1
X_1641_ _0916_ _1240_ _0895_ _0308_ VDD VSS AND3_X1
X_1642_ _0308_ _0825_ _0818_ _0309_ VDD VSS OAI21_X4
X_1643_ _0889_ b_to_a_mem\[5\]\[0\] _0309_ _0255_ VDD VSS
+ MUX2_X1
X_1644_ _0902_ b_to_a_mem\[5\]\[1\] _0309_ _0256_ VDD VSS
+ MUX2_X1
X_1645_ _0904_ b_to_a_mem\[5\]\[2\] _0309_ _0257_ VDD VSS
+ MUX2_X1
X_1646_ _0906_ b_to_a_mem\[5\]\[3\] _0309_ _0258_ VDD VSS
+ MUX2_X1
X_1647_ _0908_ b_to_a_mem\[5\]\[4\] _0309_ _0259_ VDD VSS
+ MUX2_X1
X_1648_ _0910_ b_to_a_mem\[5\]\[5\] _0309_ _0260_ VDD VSS
+ MUX2_X1
X_1649_ _0912_ b_to_a_mem\[5\]\[6\] _0309_ _0261_ VDD VSS
+ MUX2_X1
X_1650_ _0914_ b_to_a_mem\[5\]\[7\] _0309_ _0262_ VDD VSS
+ MUX2_X1
X_1651_ _0893_ _0894_ _0891_ _0917_ _0310_ VDD VSS NOR4_X4
X_1652_ _0310_ _0825_ _0818_ _0311_ VDD VSS OAI21_X4
X_1653_ _0889_ b_to_a_mem\[6\]\[0\] _0311_ _0263_ VDD VSS
+ MUX2_X1
X_1654_ _0902_ b_to_a_mem\[6\]\[1\] _0311_ _0264_ VDD VSS
+ MUX2_X1
X_1655_ _0904_ b_to_a_mem\[6\]\[2\] _0311_ _0265_ VDD VSS
+ MUX2_X1
X_1656_ _0906_ b_to_a_mem\[6\]\[3\] _0311_ _0266_ VDD VSS
+ MUX2_X1
X_1657_ _0908_ b_to_a_mem\[6\]\[4\] _0311_ _0267_ VDD VSS
+ MUX2_X1
X_1658_ _0910_ b_to_a_mem\[6\]\[5\] _0311_ _0268_ VDD VSS
+ MUX2_X1
X_1659_ _0912_ b_to_a_mem\[6\]\[6\] _0311_ _0269_ VDD VSS
+ MUX2_X1
X_1660_ _0914_ b_to_a_mem\[6\]\[7\] _0311_ _0270_ VDD VSS
+ MUX2_X1
X_1661_ _0893_ _0894_ _0891_ _0921_ _0312_ VDD VSS NOR4_X4
X_1662_ _0312_ _0825_ _0818_ _0313_ VDD VSS OAI21_X4
X_1663_ _0889_ b_to_a_mem\[7\]\[0\] _0313_ _0271_ VDD VSS
+ MUX2_X1
X_1664_ _0902_ b_to_a_mem\[7\]\[1\] _0313_ _0272_ VDD VSS
+ MUX2_X1
X_1665_ _0904_ b_to_a_mem\[7\]\[2\] _0313_ _0273_ VDD VSS
+ MUX2_X1
X_1666_ _0906_ b_to_a_mem\[7\]\[3\] _0313_ _0274_ VDD VSS
+ MUX2_X1
X_1667_ _0908_ b_to_a_mem\[7\]\[4\] _0313_ _0275_ VDD VSS
+ MUX2_X1
X_1668_ _0910_ b_to_a_mem\[7\]\[5\] _0313_ _0276_ VDD VSS
+ MUX2_X1
X_1669_ _0912_ b_to_a_mem\[7\]\[6\] _0313_ _0277_ VDD VSS
+ MUX2_X1
X_1670_ _0914_ b_to_a_mem\[7\]\[7\] _0313_ _0278_ VDD VSS
+ MUX2_X1
X_1671_ _0891_ _1237_ _0924_ _0314_ VDD VSS AND3_X1
X_1672_ _0314_ _0825_ net36 _0315_ VDD VSS OAI21_X4
X_1673_ _0889_ b_to_a_mem\[8\]\[0\] _0315_ _0279_ VDD VSS
+ MUX2_X1
X_1674_ _0902_ b_to_a_mem\[8\]\[1\] _0315_ _0280_ VDD VSS
+ MUX2_X1
X_1675_ _0904_ b_to_a_mem\[8\]\[2\] _0315_ _0281_ VDD VSS
+ MUX2_X1
X_1676_ _0906_ b_to_a_mem\[8\]\[3\] _0315_ _0282_ VDD VSS
+ MUX2_X1
X_1677_ _0908_ b_to_a_mem\[8\]\[4\] _0315_ _0283_ VDD VSS
+ MUX2_X1
X_1678_ _0910_ b_to_a_mem\[8\]\[5\] _0315_ _0284_ VDD VSS
+ MUX2_X1
X_1679_ _0912_ b_to_a_mem\[8\]\[6\] _0315_ _0285_ VDD VSS
+ MUX2_X1
X_1680_ _0914_ b_to_a_mem\[8\]\[7\] _0315_ _0286_ VDD VSS
+ MUX2_X1
X_1681_ _0891_ _1240_ _0924_ _0316_ VDD VSS AND3_X1
X_1682_ _0316_ _0825_ net36 _0317_ VDD VSS OAI21_X4
X_1683_ _0889_ b_to_a_mem\[9\]\[0\] _0317_ _0287_ VDD VSS
+ MUX2_X1
X_1684_ _0902_ b_to_a_mem\[9\]\[1\] _0317_ _0288_ VDD VSS
+ MUX2_X1
X_1685_ _0904_ b_to_a_mem\[9\]\[2\] _0317_ _0289_ VDD VSS
+ MUX2_X1
X_1686_ _0906_ b_to_a_mem\[9\]\[3\] _0317_ _0290_ VDD VSS
+ MUX2_X1
X_1687_ _0908_ b_to_a_mem\[9\]\[4\] _0317_ _0291_ VDD VSS
+ MUX2_X1
X_1688_ _0910_ b_to_a_mem\[9\]\[5\] _0317_ _0292_ VDD VSS
+ MUX2_X1
X_1689_ _0912_ b_to_a_mem\[9\]\[6\] _0317_ _0293_ VDD VSS
+ MUX2_X1
X_1690_ _0914_ b_to_a_mem\[9\]\[7\] _0317_ _0294_ VDD VSS
+ MUX2_X1
X_1691_ a_rd_en _0318_ VDD VSS CLKBUF_X3
X_1692_ _0318_ _0319_ VDD VSS INV_X2
X_1693_ rst_n _0320_ VDD VSS BUF_X2
X_1694_ _0320_ _0321_ VDD VSS INV_X2
X_1695_ _0319_ _0321_ _0322_ VDD VSS NOR2_X4
X_1696_ a_rd_ptr\[0\] _0323_ VDD VSS BUF_X2
X_1697_ _0323_ _0324_ VDD VSS CLKBUF_X3
X_1698_ a_rd_ptr\[1\] _0325_ VDD VSS BUF_X2
X_1699_ _0325_ _0326_ VDD VSS BUF_X4
X_1700_ _0326_ _0327_ VDD VSS BUF_X4
X_1701_ b_to_a_mem\[4\]\[0\] b_to_a_mem\[6\]\[0\] _0327_ _0328_
+ VDD VSS MUX2_X1
X_1702_ _0324_ _0328_ _0329_ VDD VSS NOR2_X1
X_1703_ _0323_ _0330_ VDD VSS INV_X2
X_1704_ _0330_ _0331_ VDD VSS CLKBUF_X3
X_1705_ b_to_a_mem\[5\]\[0\] b_to_a_mem\[7\]\[0\] _0327_ _0332_
+ VDD VSS MUX2_X1
X_1706_ _0331_ _0332_ _0333_ VDD VSS NOR2_X1
X_1707_ a_rd_ptr\[2\] _0334_ VDD VSS CLKBUF_X3
X_1708_ a_rd_ptr\[3\] _0335_ VDD VSS CLKBUF_X3
X_1709_ _0335_ _0336_ VDD VSS INV_X2
X_1710_ _0334_ _0336_ _0337_ VDD VSS NAND2_X4
X_1711_ _0334_ _0335_ _0338_ VDD VSS NAND2_X4
X_1712_ _0325_ _0339_ VDD VSS BUF_X4
X_1713_ b_to_a_mem\[12\]\[0\] b_to_a_mem\[14\]\[0\] _0339_
+ _0340_ VDD VSS MUX2_X1
X_1714_ _0323_ _0340_ _0341_ VDD VSS NOR2_X1
X_1715_ _0330_ _0342_ VDD VSS CLKBUF_X3
X_1716_ _0325_ _0343_ VDD VSS BUF_X4
X_1717_ b_to_a_mem\[13\]\[0\] b_to_a_mem\[15\]\[0\] _0343_
+ _0344_ VDD VSS MUX2_X1
X_1718_ _0342_ _0344_ _0345_ VDD VSS NOR2_X1
X_1719_ _0329_ _0333_ _0337_ _0338_ _0341_ _0345_ _0346_ VDD
+ VSS OAI33_X1
X_1720_ b_to_a_mem\[0\]\[0\] b_to_a_mem\[2\]\[0\] _0327_ _0347_
+ VDD VSS MUX2_X1
X_1721_ _0324_ _0347_ _0348_ VDD VSS NOR2_X1
X_1722_ _0326_ _0349_ VDD VSS BUF_X4
X_1723_ b_to_a_mem\[1\]\[0\] b_to_a_mem\[3\]\[0\] _0349_ _0350_
+ VDD VSS MUX2_X1
X_1724_ _0331_ _0350_ _0351_ VDD VSS NOR2_X1
X_1725_ _0334_ _0352_ VDD VSS INV_X2
X_1726_ _0352_ _0336_ _0353_ VDD VSS NAND2_X4
X_1727_ _0352_ _0335_ _0354_ VDD VSS NAND2_X4
X_1728_ b_to_a_mem\[8\]\[0\] b_to_a_mem\[10\]\[0\] _0343_
+ _0355_ VDD VSS MUX2_X1
X_1729_ _0323_ _0355_ _0356_ VDD VSS NOR2_X1
X_1730_ b_to_a_mem\[9\]\[0\] b_to_a_mem\[11\]\[0\] _0326_
+ _0357_ VDD VSS MUX2_X1
X_1731_ _0330_ _0357_ _0358_ VDD VSS NOR2_X1
X_1732_ _0348_ _0351_ _0353_ _0354_ _0356_ _0358_ _0359_ VDD
+ VSS OAI33_X1
X_1733_ _0322_ _0346_ _0359_ net34 _0825_ _0360_ VDD VSS OAI221_X1
X_1734_ _0320_ _0361_ VDD VSS CLKBUF_X3
X_1735_ _0899_ _0362_ VDD VSS CLKBUF_X3
X_1736_ net5 _0361_ _0819_ _0362_ _0363_ VDD VSS NAND4_X1
X_1737_ _0320_ _0364_ VDD VSS CLKBUF_X3
X_1738_ _0364_ _0365_ VDD VSS CLKBUF_X3
X_1739_ _0319_ net5 _0365_ _0366_ VDD VSS NAND3_X1
X_1740_ _0360_ _0363_ _0366_ _0008_ VDD VSS NAND3_X1
X_1741_ b_to_a_mem\[8\]\[1\] b_to_a_mem\[10\]\[1\] _0327_
+ _0367_ VDD VSS MUX2_X1
X_1742_ _0324_ _0367_ _0368_ VDD VSS NOR2_X1
X_1743_ b_to_a_mem\[9\]\[1\] b_to_a_mem\[11\]\[1\] _0349_
+ _0369_ VDD VSS MUX2_X1
X_1744_ _0331_ _0369_ _0370_ VDD VSS NOR2_X1
X_1745_ _0323_ _0371_ VDD VSS CLKBUF_X3
X_1746_ _0326_ _0372_ VDD VSS BUF_X4
X_1747_ b_to_a_mem\[0\]\[1\] b_to_a_mem\[2\]\[1\] _0372_ _0373_
+ VDD VSS MUX2_X1
X_1748_ _0371_ _0373_ _0374_ VDD VSS NOR2_X1
X_1749_ _0330_ _0375_ VDD VSS CLKBUF_X3
X_1750_ b_to_a_mem\[1\]\[1\] b_to_a_mem\[3\]\[1\] _0339_ _0376_
+ VDD VSS MUX2_X1
X_1751_ _0375_ _0376_ _0377_ VDD VSS NOR2_X1
X_1752_ _0354_ _0368_ _0370_ _0374_ _0377_ _0353_ _0378_ VDD
+ VSS OAI33_X1
X_1753_ b_to_a_mem\[12\]\[1\] b_to_a_mem\[14\]\[1\] _0372_
+ _0379_ VDD VSS MUX2_X1
X_1754_ _0371_ _0379_ _0380_ VDD VSS NOR2_X1