* CDL Netlist generated by OpenROAD

*.BUSDELIMITER [

.SUBCKT parameterized_fft busy clk data_in_imag[0] data_in_imag[10]
+ data_in_imag[11] data_in_imag[12] data_in_imag[13] data_in_imag[14]
+ data_in_imag[15] data_in_imag[1] data_in_imag[2] data_in_imag[3]
+ data_in_imag[4] data_in_imag[5] data_in_imag[6] data_in_imag[7]
+ data_in_imag[8] data_in_imag[9] data_in_real[0] data_in_real[10]
+ data_in_real[11] data_in_real[12] data_in_real[13] data_in_real[14]
+ data_in_real[15] data_in_real[1] data_in_real[2] data_in_real[3]
+ data_in_real[4] data_in_real[5] data_in_real[6] data_in_real[7]
+ data_in_real[8] data_in_real[9] data_out_imag[0] data_out_imag[100]
+ data_out_imag[101] data_out_imag[102] data_out_imag[103] data_out_imag[104]
+ data_out_imag[105] data_out_imag[106] data_out_imag[107] data_out_imag[108]
+ data_out_imag[109] data_out_imag[10] data_out_imag[110] data_out_imag[111]
+ data_out_imag[112] data_out_imag[113] data_out_imag[114] data_out_imag[115]
+ data_out_imag[116] data_out_imag[117] data_out_imag[118] data_out_imag[119]
+ data_out_imag[11] data_out_imag[120] data_out_imag[121] data_out_imag[122]
+ data_out_imag[123] data_out_imag[124] data_out_imag[125] data_out_imag[126]
+ data_out_imag[127] data_out_imag[12] data_out_imag[13] data_out_imag[14]
+ data_out_imag[15] data_out_imag[16] data_out_imag[17] data_out_imag[18]
+ data_out_imag[19] data_out_imag[1] data_out_imag[20] data_out_imag[21]
+ data_out_imag[22] data_out_imag[23] data_out_imag[24] data_out_imag[25]
+ data_out_imag[26] data_out_imag[27] data_out_imag[28] data_out_imag[29]
+ data_out_imag[2] data_out_imag[30] data_out_imag[31] data_out_imag[32]
+ data_out_imag[33] data_out_imag[34] data_out_imag[35] data_out_imag[36]
+ data_out_imag[37] data_out_imag[38] data_out_imag[39] data_out_imag[3]
+ data_out_imag[40] data_out_imag[41] data_out_imag[42] data_out_imag[43]
+ data_out_imag[44] data_out_imag[45] data_out_imag[46] data_out_imag[47]
+ data_out_imag[48] data_out_imag[49] data_out_imag[4] data_out_imag[50]
+ data_out_imag[51] data_out_imag[52] data_out_imag[53] data_out_imag[54]
+ data_out_imag[55] data_out_imag[56] data_out_imag[57] data_out_imag[58]
+ data_out_imag[59] data_out_imag[5] data_out_imag[60] data_out_imag[61]
+ data_out_imag[62] data_out_imag[63] data_out_imag[64] data_out_imag[65]
+ data_out_imag[66] data_out_imag[67] data_out_imag[68] data_out_imag[69]
+ data_out_imag[6] data_out_imag[70] data_out_imag[71] data_out_imag[72]
+ data_out_imag[73] data_out_imag[74] data_out_imag[75] data_out_imag[76]
+ data_out_imag[77] data_out_imag[78] data_out_imag[79] data_out_imag[7]
+ data_out_imag[80] data_out_imag[81] data_out_imag[82] data_out_imag[83]
+ data_out_imag[84] data_out_imag[85] data_out_imag[86] data_out_imag[87]
+ data_out_imag[88] data_out_imag[89] data_out_imag[8] data_out_imag[90]
+ data_out_imag[91] data_out_imag[92] data_out_imag[93] data_out_imag[94]
+ data_out_imag[95] data_out_imag[96] data_out_imag[97] data_out_imag[98]
+ data_out_imag[99] data_out_imag[9] data_out_real[0] data_out_real[100]
+ data_out_real[101] data_out_real[102] data_out_real[103] data_out_real[104]
+ data_out_real[105] data_out_real[106] data_out_real[107] data_out_real[108]
+ data_out_real[109] data_out_real[10] data_out_real[110] data_out_real[111]
+ data_out_real[112] data_out_real[113] data_out_real[114] data_out_real[115]
+ data_out_real[116] data_out_real[117] data_out_real[118] data_out_real[119]
+ data_out_real[11] data_out_real[120] data_out_real[121] data_out_real[122]
+ data_out_real[123] data_out_real[124] data_out_real[125] data_out_real[126]
+ data_out_real[127] data_out_real[12] data_out_real[13] data_out_real[14]
+ data_out_real[15] data_out_real[16] data_out_real[17] data_out_real[18]
+ data_out_real[19] data_out_real[1] data_out_real[20] data_out_real[21]
+ data_out_real[22] data_out_real[23] data_out_real[24] data_out_real[25]
+ data_out_real[26] data_out_real[27] data_out_real[28] data_out_real[29]
+ data_out_real[2] data_out_real[30] data_out_real[31] data_out_real[32]
+ data_out_real[33] data_out_real[34] data_out_real[35] data_out_real[36]
+ data_out_real[37] data_out_real[38] data_out_real[39] data_out_real[3]
+ data_out_real[40] data_out_real[41] data_out_real[42] data_out_real[43]
+ data_out_real[44] data_out_real[45] data_out_real[46] data_out_real[47]
+ data_out_real[48] data_out_real[49] data_out_real[4] data_out_real[50]
+ data_out_real[51] data_out_real[52] data_out_real[53] data_out_real[54]
+ data_out_real[55] data_out_real[56] data_out_real[57] data_out_real[58]
+ data_out_real[59] data_out_real[5] data_out_real[60] data_out_real[61]
+ data_out_real[62] data_out_real[63] data_out_real[64] data_out_real[65]
+ data_out_real[66] data_out_real[67] data_out_real[68] data_out_real[69]
+ data_out_real[6] data_out_real[70] data_out_real[71] data_out_real[72]
+ data_out_real[73] data_out_real[74] data_out_real[75] data_out_real[76]
+ data_out_real[77] data_out_real[78] data_out_real[79] data_out_real[7]
+ data_out_real[80] data_out_real[81] data_out_real[82] data_out_real[83]
+ data_out_real[84] data_out_real[85] data_out_real[86] data_out_real[87]
+ data_out_real[88] data_out_real[89] data_out_real[8] data_out_real[90]
+ data_out_real[91] data_out_real[92] data_out_real[93] data_out_real[94]
+ data_out_real[95] data_out_real[96] data_out_real[97] data_out_real[98]
+ data_out_real[99] data_out_real[9] data_ready data_valid_in
+ data_valid_out rst_n start
X_08311_ state\[3\] _00563_ VDD VSS gf180mcu_fd_sc_mcu9t5v0__buf_12
X_08312_ _00563_ _00564_ VDD VSS gf180mcu_fd_sc_mcu9t5v0__clkinv_2
X_08313_ net82 _00565_ VDD VSS gf180mcu_fd_sc_mcu9t5v0__inv_2
X_08314_ state\[0\] _00565_ _00566_ VDD VSS gf180mcu_fd_sc_mcu9t5v0__nand2_2
X_08315_ _00564_ _00566_ _00004_ VDD VSS gf180mcu_fd_sc_mcu9t5v0__nand2_2
X_08316_ stage\[2\] _07787_ VDD VSS gf180mcu_fd_sc_mcu9t5v0__clkinv_8
X_08317_ _07775_ _07787_ _07076_ VDD VSS gf180mcu_fd_sc_mcu9t5v0__nand2_4
X_08318_ stage\[2\] _00567_ VDD VSS gf180mcu_fd_sc_mcu9t5v0__buf_8
X_08319_ _00567_ _07779_ _07136_ VDD VSS gf180mcu_fd_sc_mcu9t5v0__nand2_4
X_08320_ _07136_ _07664_ VDD VSS gf180mcu_fd_sc_mcu9t5v0__inv_2
X_08321_ _00567_ _07781_ _07123_ VDD VSS gf180mcu_fd_sc_mcu9t5v0__nand2_4
X_08322_ _07123_ _07668_ VDD VSS gf180mcu_fd_sc_mcu9t5v0__clkinv_2
X_08323_ _00567_ _07775_ _07103_ VDD VSS gf180mcu_fd_sc_mcu9t5v0__nand2_4
X_08324_ _07103_ _07672_ VDD VSS gf180mcu_fd_sc_mcu9t5v0__inv_3
X_08325_ _07787_ _07779_ _07680_ VDD VSS gf180mcu_fd_sc_mcu9t5v0__and2_4
X_08326_ _07787_ _07781_ _05877_ VDD VSS gf180mcu_fd_sc_mcu9t5v0__and2_4
X_08327_ _07794_ _00568_ VDD VSS gf180mcu_fd_sc_mcu9t5v0__clkinv_2
X_08328_ _00568_ _00569_ VDD VSS gf180mcu_fd_sc_mcu9t5v0__buf_4
X_08329_ _00569_ _00570_ VDD VSS gf180mcu_fd_sc_mcu9t5v0__buf_4
X_08330_ _00570_ _00571_ VDD VSS gf180mcu_fd_sc_mcu9t5v0__clkbuf_8
X_08331_ _00571_ _00572_ VDD VSS gf180mcu_fd_sc_mcu9t5v0__buf_4
X_08332_ _00572_ _00573_ VDD VSS gf180mcu_fd_sc_mcu9t5v0__buf_4
X_08333_ _00573_ _00574_ VDD VSS gf180mcu_fd_sc_mcu9t5v0__buf_4
X_08334_ _00574_ _00575_ VDD VSS gf180mcu_fd_sc_mcu9t5v0__buf_4
X_08335_ _00575_ _07177_ VDD VSS gf180mcu_fd_sc_mcu9t5v0__buf_8
X_08336_ _07775_ _07781_ _00576_ VDD VSS gf180mcu_fd_sc_mcu9t5v0__or2_2
X_08337_ _07794_ _00577_ VDD VSS gf180mcu_fd_sc_mcu9t5v0__clkbuf_4
X_08338_ _07779_ _07791_ _00577_ _00578_ VDD VSS gf180mcu_fd_sc_mcu9t5v0__or3_2
X_08339_ _00567_ _00576_ _00578_ _00579_ VDD VSS gf180mcu_fd_sc_mcu9t5v0__aoi21_4
X_08340_ _00579_ _00580_ VDD VSS gf180mcu_fd_sc_mcu9t5v0__clkinv_2
X_08341_ butterfly_count\[2\] _00581_ VDD VSS gf180mcu_fd_sc_mcu9t5v0__inv_4
X_08342_ _07660_ _00582_ VDD VSS gf180mcu_fd_sc_mcu9t5v0__clkinv_4
X_08343_ _00582_ _00583_ VDD VSS gf180mcu_fd_sc_mcu9t5v0__clkbuf_12
X_08344_ _07779_ _07781_ stage\[2\] _00584_ VDD VSS gf180mcu_fd_sc_mcu9t5v0__oai21_4
X_08345_ _00581_ _00584_ _07769_ _00583_ _00585_ VDD VSS gf180mcu_fd_sc_mcu9t5v0__nand4_4
X_08346_ _07672_ _07676_ _07680_ _00585_ _00586_ VDD VSS gf180mcu_fd_sc_mcu9t5v0__or4_4
X_08347_ _07775_ _07781_ _00587_ VDD VSS gf180mcu_fd_sc_mcu9t5v0__nor2_2
X_08348_ _00567_ _00587_ _07078_ _00588_ VDD VSS gf180mcu_fd_sc_mcu9t5v0__oai21_4
X_08349_ _00586_ _00580_ _00588_ _07079_ VDD VSS gf180mcu_fd_sc_mcu9t5v0__aoi21_2
X_08350_ net1 _07637_ VDD VSS gf180mcu_fd_sc_mcu9t5v0__clkinv_2
X_08351_ _07080_ _00589_ VDD VSS gf180mcu_fd_sc_mcu9t5v0__clkinv_4
X_08352_ _07775_ _00590_ VDD VSS gf180mcu_fd_sc_mcu9t5v0__clkinv_2
X_08353_ _00567_ _00589_ _00590_ _00578_ _07086_ VDD VSS gf180mcu_fd_sc_mcu9t5v0__nor4_4
X_08354_ _00581_ _07769_ _00591_ VDD VSS gf180mcu_fd_sc_mcu9t5v0__and2_2
X_08355_ _07260_ _07252_ _07255_ _07258_ _00592_ VDD VSS gf180mcu_fd_sc_mcu9t5v0__and4_2
X_08356_ _07243_ _07246_ _00593_ VDD VSS gf180mcu_fd_sc_mcu9t5v0__and2_2
X_08357_ _07249_ _00591_ _00592_ _00593_ _00594_ VDD VSS gf180mcu_fd_sc_mcu9t5v0__and4_2
X_08358_ _07158_ _00595_ VDD VSS gf180mcu_fd_sc_mcu9t5v0__clkinv_2
X_08359_ _07162_ _07164_ _00596_ VDD VSS gf180mcu_fd_sc_mcu9t5v0__and2_2
X_08360_ _07161_ _00596_ _07159_ _00597_ VDD VSS gf180mcu_fd_sc_mcu9t5v0__oai21_2
X_08361_ _00597_ _00595_ _00598_ VDD VSS gf180mcu_fd_sc_mcu9t5v0__and2_2
X_08362_ _07176_ _07175_ _07174_ _00599_ VDD VSS gf180mcu_fd_sc_mcu9t5v0__oai21_2
X_08363_ _07170_ _07173_ _00600_ VDD VSS gf180mcu_fd_sc_mcu9t5v0__nor2_2
X_08364_ _07170_ _07171_ _07168_ _00601_ VDD VSS gf180mcu_fd_sc_mcu9t5v0__oai21_2
X_08365_ _00599_ _00600_ _00601_ _00602_ VDD VSS gf180mcu_fd_sc_mcu9t5v0__aoi21_4
X_08366_ _07162_ _07159_ _07165_ _00603_ VDD VSS gf180mcu_fd_sc_mcu9t5v0__and3_4
X_08367_ _00602_ _07167_ _00603_ _00604_ VDD VSS gf180mcu_fd_sc_mcu9t5v0__oai21_4
X_08368_ _00604_ _00598_ _00605_ VDD VSS gf180mcu_fd_sc_mcu9t5v0__and2_4
X_08369_ _00581_ _00582_ _07769_ _00584_ _00606_ VDD VSS gf180mcu_fd_sc_mcu9t5v0__and4_2
X_08370_ _07117_ _07106_ _07109_ _07112_ _00607_ VDD VSS gf180mcu_fd_sc_mcu9t5v0__and4_2
X_08371_ _07115_ _00607_ _00608_ VDD VSS gf180mcu_fd_sc_mcu9t5v0__and2_4
X_08372_ _07108_ _00609_ VDD VSS gf180mcu_fd_sc_mcu9t5v0__clkinv_2
X_08373_ _07112_ _07111_ _07109_ _00610_ VDD VSS gf180mcu_fd_sc_mcu9t5v0__oai21_2
X_08374_ _07117_ _07116_ _07115_ _00611_ VDD VSS gf180mcu_fd_sc_mcu9t5v0__oai21_4
X_08375_ _07108_ _07111_ _07114_ _00612_ VDD VSS gf180mcu_fd_sc_mcu9t5v0__nor3_2
X_08376_ _00609_ _00610_ _00611_ _00612_ _00613_ VDD VSS gf180mcu_fd_sc_mcu9t5v0__aoi22_4
X_08377_ _07106_ _00568_ _00584_ _00614_ VDD VSS gf180mcu_fd_sc_mcu9t5v0__and3_2
X_08378_ _07105_ _00569_ _00584_ _00615_ VDD VSS gf180mcu_fd_sc_mcu9t5v0__and3_2
X_08379_ _00608_ _00606_ _00613_ _00614_ _00615_ _00616_ VDD
+ VSS gf180mcu_fd_sc_mcu9t5v0__aoi221_4
X_08380_ _07122_ _07121_ _07135_ _07120_ _00617_ VDD VSS gf180mcu_fd_sc_mcu9t5v0__oai211_4
X_08381_ _07135_ _07119_ _07134_ _00618_ VDD VSS gf180mcu_fd_sc_mcu9t5v0__aoi21_4
X_08382_ _00617_ _00618_ _00619_ VDD VSS gf180mcu_fd_sc_mcu9t5v0__nand2_2
X_08383_ stage\[2\] _07779_ _07794_ _00620_ VDD VSS gf180mcu_fd_sc_mcu9t5v0__aoi21_4
X_08384_ _07126_ _07129_ _07132_ _00620_ _00621_ VDD VSS gf180mcu_fd_sc_mcu9t5v0__and4_2
X_08385_ _07126_ _07131_ _07129_ _00622_ VDD VSS gf180mcu_fd_sc_mcu9t5v0__and3_4
X_08386_ _00620_ _00622_ _00623_ VDD VSS gf180mcu_fd_sc_mcu9t5v0__and2_4
X_08387_ _07126_ _07128_ _07125_ _00624_ VDD VSS gf180mcu_fd_sc_mcu9t5v0__aoi21_2
X_08388_ _00577_ _07664_ _00624_ _00625_ VDD VSS gf180mcu_fd_sc_mcu9t5v0__nor3_4
X_08389_ _00619_ _00621_ _00625_ _00623_ _00626_ VDD VSS gf180mcu_fd_sc_mcu9t5v0__aoi211_4
X_08390_ net26 _07779_ _07781_ _00577_ _00627_ VDD VSS gf180mcu_fd_sc_mcu9t5v0__or4_2
X_08391_ _00567_ _00577_ _00628_ VDD VSS gf180mcu_fd_sc_mcu9t5v0__or2_2
X_08392_ _07090_ _07089_ _07085_ _07088_ _00629_ VDD VSS gf180mcu_fd_sc_mcu9t5v0__oai211_4
X_08393_ _07085_ _07087_ _07084_ _00630_ VDD VSS gf180mcu_fd_sc_mcu9t5v0__aoi21_4
X_08394_ _07676_ _07090_ _00631_ VDD VSS gf180mcu_fd_sc_mcu9t5v0__or2_2
X_08395_ _00627_ _00628_ _00629_ _00630_ _00631_ _07098_ VDD
+ VSS gf180mcu_fd_sc_mcu9t5v0__aoi221_4
X_08396_ _07775_ _07779_ _07781_ stage\[2\] _00632_ VDD VSS
+ gf180mcu_fd_sc_mcu9t5v0__oai31_2
X_08397_ _07102_ _07101_ _07100_ _00633_ VDD VSS gf180mcu_fd_sc_mcu9t5v0__oai21_4
X_08398_ _07102_ _07100_ _07101_ _00634_ VDD VSS gf180mcu_fd_sc_mcu9t5v0__or3_2
X_08399_ _00569_ _00632_ _00633_ _00634_ _00635_ VDD VSS gf180mcu_fd_sc_mcu9t5v0__and4_2
X_08400_ _07093_ _07096_ _07099_ _00636_ VDD VSS gf180mcu_fd_sc_mcu9t5v0__nor3_4
X_08401_ _07093_ _07097_ _07096_ _00637_ VDD VSS gf180mcu_fd_sc_mcu9t5v0__nor3_4
X_08402_ _07093_ _07094_ _00638_ VDD VSS gf180mcu_fd_sc_mcu9t5v0__nor2_4
X_08403_ _00633_ _00636_ _00638_ _00637_ _00639_ VDD VSS gf180mcu_fd_sc_mcu9t5v0__aoi211_4
X_08404_ _07098_ _00635_ _00639_ _07110_ VDD VSS gf180mcu_fd_sc_mcu9t5v0__mux2_2
X_08405_ net5 _07110_ _00626_ _00640_ VDD VSS gf180mcu_fd_sc_mcu9t5v0__and3_4
X_08406_ _00617_ _00618_ _00641_ VDD VSS gf180mcu_fd_sc_mcu9t5v0__and2_2
X_08407_ _07126_ _07129_ _07132_ _00620_ _00642_ VDD VSS gf180mcu_fd_sc_mcu9t5v0__nand4_2
X_08408_ _07126_ _07128_ _00643_ VDD VSS gf180mcu_fd_sc_mcu9t5v0__and2_2
X_08409_ _07125_ _00643_ _00622_ _00620_ _00644_ VDD VSS gf180mcu_fd_sc_mcu9t5v0__oai31_4
X_08410_ _00641_ _00642_ _00644_ _00645_ VDD VSS gf180mcu_fd_sc_mcu9t5v0__oai21_4
X_08411_ _07114_ _00646_ VDD VSS gf180mcu_fd_sc_mcu9t5v0__clkinv_2
X_08412_ _00646_ _00611_ _00647_ VDD VSS gf180mcu_fd_sc_mcu9t5v0__nand2_2
X_08413_ _07112_ _00647_ _00648_ VDD VSS gf180mcu_fd_sc_mcu9t5v0__xnor2_2
X_08414_ net5 _00645_ _00648_ _00649_ VDD VSS gf180mcu_fd_sc_mcu9t5v0__nor3_4
X_08415_ _07138_ _00650_ VDD VSS gf180mcu_fd_sc_mcu9t5v0__clkinv_3
X_08416_ _07142_ _07145_ _07148_ _00651_ VDD VSS gf180mcu_fd_sc_mcu9t5v0__nand3_4
X_08417_ _07156_ _07139_ _07151_ _07154_ _00652_ VDD VSS gf180mcu_fd_sc_mcu9t5v0__and4_2
X_08418_ _00581_ _00583_ _07769_ _00652_ _00653_ VDD VSS gf180mcu_fd_sc_mcu9t5v0__nand4_4
X_08419_ _00650_ net36 _00651_ _00653_ _00654_ VDD VSS gf180mcu_fd_sc_mcu9t5v0__oai22_4
X_08420_ _07139_ _00655_ VDD VSS gf180mcu_fd_sc_mcu9t5v0__clkinv_2
X_08421_ _07142_ _07147_ _07145_ _00656_ VDD VSS gf180mcu_fd_sc_mcu9t5v0__and3_4
X_08422_ _07142_ _07144_ _00657_ VDD VSS gf180mcu_fd_sc_mcu9t5v0__and2_2
X_08423_ _07141_ _00656_ _00657_ _00658_ VDD VSS gf180mcu_fd_sc_mcu9t5v0__nor3_4
X_08424_ _00577_ _00651_ _00655_ _00659_ VDD VSS gf180mcu_fd_sc_mcu9t5v0__or3_4
X_08425_ _07156_ _07155_ _07154_ _07151_ _00660_ VDD VSS gf180mcu_fd_sc_mcu9t5v0__oai211_4
X_08426_ _07151_ _07153_ _07150_ _00661_ VDD VSS gf180mcu_fd_sc_mcu9t5v0__aoi21_2
X_08427_ _00660_ _00661_ _00662_ VDD VSS gf180mcu_fd_sc_mcu9t5v0__and2_2
X_08428_ _00658_ net36 _00655_ _00659_ _00662_ _00663_ VDD
+ VSS gf180mcu_fd_sc_mcu9t5v0__oai32_4
X_08429_ _07132_ _00664_ VDD VSS gf180mcu_fd_sc_mcu9t5v0__clkinv_2
X_08430_ _00617_ _00618_ _00664_ _00665_ VDD VSS gf180mcu_fd_sc_mcu9t5v0__aoi21_2
X_08431_ _00664_ _00617_ _00618_ _00666_ VDD VSS gf180mcu_fd_sc_mcu9t5v0__and3_2
X_08432_ _00665_ _00644_ _00666_ _00667_ VDD VSS gf180mcu_fd_sc_mcu9t5v0__nor3_2
X_08433_ _00654_ _00663_ _00667_ _00668_ VDD VSS gf180mcu_fd_sc_mcu9t5v0__or3_2
X_08434_ _00640_ _00649_ _00668_ _00669_ VDD VSS gf180mcu_fd_sc_mcu9t5v0__nor3_4
X_08435_ _00663_ _00654_ _00670_ VDD VSS gf180mcu_fd_sc_mcu9t5v0__or2_4
X_08436_ _07148_ _00671_ VDD VSS gf180mcu_fd_sc_mcu9t5v0__clkinv_2
X_08437_ _00660_ _00661_ _00671_ _00672_ VDD VSS gf180mcu_fd_sc_mcu9t5v0__aoi21_2
X_08438_ _07147_ _00672_ _00673_ VDD VSS gf180mcu_fd_sc_mcu9t5v0__or2_2
X_08439_ _07145_ _00673_ _00674_ VDD VSS gf180mcu_fd_sc_mcu9t5v0__xnor2_2
X_08440_ _00674_ _00670_ _00675_ VDD VSS gf180mcu_fd_sc_mcu9t5v0__and2_4
X_08441_ _00669_ _00675_ _07160_ VDD VSS gf180mcu_fd_sc_mcu9t5v0__nor2_4
X_08442_ _00660_ _00661_ _00651_ _00676_ VDD VSS gf180mcu_fd_sc_mcu9t5v0__aoi21_2
X_08443_ _07141_ _00656_ _00657_ _00677_ VDD VSS gf180mcu_fd_sc_mcu9t5v0__or3_2
X_08444_ _00676_ _00677_ _07139_ _00678_ VDD VSS gf180mcu_fd_sc_mcu9t5v0__oai21_4
X_08445_ _07122_ _07121_ _07120_ _00679_ VDD VSS gf180mcu_fd_sc_mcu9t5v0__oai21_2
X_08446_ _07119_ _07134_ _00680_ VDD VSS gf180mcu_fd_sc_mcu9t5v0__nor2_2
X_08447_ _07135_ _07134_ _07129_ _07132_ _00681_ VDD VSS gf180mcu_fd_sc_mcu9t5v0__oai211_2
X_08448_ _00679_ _00680_ _00681_ _00682_ VDD VSS gf180mcu_fd_sc_mcu9t5v0__aoi21_2
X_08449_ _07129_ _07131_ _00683_ VDD VSS gf180mcu_fd_sc_mcu9t5v0__and2_2
X_08450_ _07128_ _00683_ _00684_ VDD VSS gf180mcu_fd_sc_mcu9t5v0__or2_2
X_08451_ _07126_ _00682_ _00684_ _00685_ VDD VSS gf180mcu_fd_sc_mcu9t5v0__or3_2
X_08452_ _00682_ _00684_ _07126_ _00686_ VDD VSS gf180mcu_fd_sc_mcu9t5v0__oai21_2
X_08453_ _07125_ _00620_ _00685_ _00686_ _00687_ VDD VSS gf180mcu_fd_sc_mcu9t5v0__nand4_4
X_08454_ _00651_ _00653_ _00650_ _00688_ VDD VSS gf180mcu_fd_sc_mcu9t5v0__oai21_4
X_08455_ _07139_ _00676_ _00677_ _00689_ VDD VSS gf180mcu_fd_sc_mcu9t5v0__or3_2
X_08456_ _00689_ _00688_ _00690_ VDD VSS gf180mcu_fd_sc_mcu9t5v0__nand2_2
X_08457_ _00687_ _00688_ _00690_ _00691_ VDD VSS gf180mcu_fd_sc_mcu9t5v0__oai21_2
X_08458_ _00570_ _00678_ _00691_ _00692_ VDD VSS gf180mcu_fd_sc_mcu9t5v0__nand3_2
X_08459_ _00616_ _00693_ VDD VSS gf180mcu_fd_sc_mcu9t5v0__clkinv_3
X_08460_ _00569_ _00632_ _00694_ VDD VSS gf180mcu_fd_sc_mcu9t5v0__and2_2
X_08461_ _00639_ _00694_ _00695_ VDD VSS gf180mcu_fd_sc_mcu9t5v0__and2_2
X_08462_ _00567_ _07080_ _00590_ _00696_ VDD VSS gf180mcu_fd_sc_mcu9t5v0__or3_2
X_08463_ _00579_ _00696_ _00697_ VDD VSS gf180mcu_fd_sc_mcu9t5v0__and2_2
X_08464_ _07081_ _00698_ VDD VSS gf180mcu_fd_sc_mcu9t5v0__clkinv_4
X_08465_ _00698_ _00589_ _00699_ VDD VSS gf180mcu_fd_sc_mcu9t5v0__nand2_4
X_08466_ _07077_ _07080_ _00698_ _00700_ VDD VSS gf180mcu_fd_sc_mcu9t5v0__nand3_4
X_08467_ _07077_ _00698_ _00588_ _00699_ _00700_ _00701_ VDD
+ VSS gf180mcu_fd_sc_mcu9t5v0__oai221_4
X_08468_ _00588_ _00579_ _00702_ VDD VSS gf180mcu_fd_sc_mcu9t5v0__nor2_2
X_08469_ _07676_ _07672_ _07680_ _00585_ _00703_ VDD VSS gf180mcu_fd_sc_mcu9t5v0__nor4_4
X_08470_ _07676_ _07091_ VDD VSS gf180mcu_fd_sc_mcu9t5v0__inv_16
X_08471_ _00569_ _00632_ _00704_ VDD VSS gf180mcu_fd_sc_mcu9t5v0__nand2_2
X_08472_ _00630_ _00629_ _00705_ VDD VSS gf180mcu_fd_sc_mcu9t5v0__and2_4
X_08473_ _07088_ _07085_ _07090_ _00706_ VDD VSS gf180mcu_fd_sc_mcu9t5v0__and3_4
X_08474_ _07103_ _00706_ _00707_ VDD VSS gf180mcu_fd_sc_mcu9t5v0__nand2_4
X_08475_ _00705_ _00704_ _00585_ _00707_ _00708_ VDD VSS gf180mcu_fd_sc_mcu9t5v0__oai22_4
X_08476_ _00697_ _00701_ _00702_ _00703_ _07091_ _00708_ _00709_
+ VDD VSS gf180mcu_fd_sc_mcu9t5v0__aoi222_4
X_08477_ _07090_ _07089_ _00710_ VDD VSS gf180mcu_fd_sc_mcu9t5v0__or2_2
X_08478_ _07088_ _00710_ _07087_ _00711_ VDD VSS gf180mcu_fd_sc_mcu9t5v0__aoi21_2
X_08479_ _07085_ _00711_ _00712_ VDD VSS gf180mcu_fd_sc_mcu9t5v0__xor2_2
X_08480_ _07091_ _00708_ _00712_ _00713_ VDD VSS gf180mcu_fd_sc_mcu9t5v0__and3_4
X_08481_ _07099_ _00714_ VDD VSS gf180mcu_fd_sc_mcu9t5v0__clkinv_2
X_08482_ _07097_ _00715_ VDD VSS gf180mcu_fd_sc_mcu9t5v0__clkinv_2
X_08483_ _00714_ _00633_ _00715_ _00716_ VDD VSS gf180mcu_fd_sc_mcu9t5v0__aoi21_2
X_08484_ _07096_ _00716_ _07094_ _00717_ VDD VSS gf180mcu_fd_sc_mcu9t5v0__oai21_2
X_08485_ _07094_ _07096_ _00716_ _00718_ VDD VSS gf180mcu_fd_sc_mcu9t5v0__or3_2
X_08486_ _07093_ _00694_ _00717_ _00718_ _00719_ VDD VSS gf180mcu_fd_sc_mcu9t5v0__nand4_2
X_08487_ _00713_ _00709_ _00695_ _00719_ _07104_ VDD VSS gf180mcu_fd_sc_mcu9t5v0__oai31_4
X_08488_ _00569_ _00678_ _00720_ VDD VSS gf180mcu_fd_sc_mcu9t5v0__nand2_2
X_08489_ _07106_ _00613_ _00721_ VDD VSS gf180mcu_fd_sc_mcu9t5v0__xor2_2
X_08490_ net5 _00721_ _00626_ _00722_ VDD VSS gf180mcu_fd_sc_mcu9t5v0__oai21_2
X_08491_ _00688_ _00720_ _00722_ _00723_ VDD VSS gf180mcu_fd_sc_mcu9t5v0__nor3_2
X_08492_ _00693_ _07104_ _00723_ _00724_ VDD VSS gf180mcu_fd_sc_mcu9t5v0__oai21_2
X_08493_ _00605_ _07160_ _00692_ _00724_ _00725_ VDD VSS gf180mcu_fd_sc_mcu9t5v0__nand4_2
X_08494_ _07164_ _00726_ VDD VSS gf180mcu_fd_sc_mcu9t5v0__clkinv_2
X_08495_ _00602_ _07167_ _07165_ _00727_ VDD VSS gf180mcu_fd_sc_mcu9t5v0__oai21_4
X_08496_ _07162_ _00728_ VDD VSS gf180mcu_fd_sc_mcu9t5v0__clkinv_2
X_08497_ _00727_ _00726_ _00728_ _00729_ VDD VSS gf180mcu_fd_sc_mcu9t5v0__aoi21_4
X_08498_ _00727_ _00726_ _00728_ _00730_ VDD VSS gf180mcu_fd_sc_mcu9t5v0__and3_4
X_08499_ _00729_ _00730_ _00731_ VDD VSS gf180mcu_fd_sc_mcu9t5v0__or2_2
X_08500_ net36 _00731_ _00732_ VDD VSS gf180mcu_fd_sc_mcu9t5v0__or2_2
X_08501_ _07159_ _07161_ _00733_ VDD VSS gf180mcu_fd_sc_mcu9t5v0__and2_2
X_08502_ _07158_ _00733_ _00734_ VDD VSS gf180mcu_fd_sc_mcu9t5v0__nor2_2
X_08503_ _00729_ _00730_ _07660_ _00734_ _00735_ VDD VSS gf180mcu_fd_sc_mcu9t5v0__or4_4
X_08504_ _00654_ _00663_ _00645_ _00736_ VDD VSS gf180mcu_fd_sc_mcu9t5v0__or3_4
X_08505_ _00693_ _00736_ _00737_ VDD VSS gf180mcu_fd_sc_mcu9t5v0__nor2_4
X_08506_ _07106_ _00613_ _00738_ VDD VSS gf180mcu_fd_sc_mcu9t5v0__xnor2_2
X_08507_ net5 _00738_ _00739_ VDD VSS gf180mcu_fd_sc_mcu9t5v0__or2_2
X_08508_ _00569_ _00678_ _00689_ _00688_ _00740_ VDD VSS gf180mcu_fd_sc_mcu9t5v0__nand4_2
X_08509_ _00670_ _00687_ _00739_ _00736_ _00740_ _00741_ VDD
+ VSS gf180mcu_fd_sc_mcu9t5v0__oai221_4
X_08510_ _07104_ _00737_ _00741_ _00742_ VDD VSS gf180mcu_fd_sc_mcu9t5v0__aoi21_4
X_08511_ _00732_ _00735_ _00742_ _00743_ VDD VSS gf180mcu_fd_sc_mcu9t5v0__mux2_2
X_08512_ _07182_ _00744_ VDD VSS gf180mcu_fd_sc_mcu9t5v0__clkinv_2
X_08513_ _07186_ _00745_ VDD VSS gf180mcu_fd_sc_mcu9t5v0__clkinv_2
X_08514_ _07191_ _07189_ _07188_ _00746_ VDD VSS gf180mcu_fd_sc_mcu9t5v0__aoi21_4
X_08515_ _07185_ _00747_ VDD VSS gf180mcu_fd_sc_mcu9t5v0__clkinv_2
X_08516_ _00746_ _00745_ _00747_ _00748_ VDD VSS gf180mcu_fd_sc_mcu9t5v0__oai21_4
X_08517_ _07183_ _00748_ _00749_ VDD VSS gf180mcu_fd_sc_mcu9t5v0__nand2_2
X_08518_ _07197_ _00750_ VDD VSS gf180mcu_fd_sc_mcu9t5v0__clkinv_2
X_08519_ _07200_ _07199_ _07198_ _00751_ VDD VSS gf180mcu_fd_sc_mcu9t5v0__oai21_2
X_08520_ _07195_ _00752_ VDD VSS gf180mcu_fd_sc_mcu9t5v0__clkinv_2
X_08521_ _00750_ _00751_ _00752_ _00753_ VDD VSS gf180mcu_fd_sc_mcu9t5v0__aoi21_4
X_08522_ _07183_ _07186_ _07189_ _07192_ _00754_ VDD VSS gf180mcu_fd_sc_mcu9t5v0__and4_2
X_08523_ _07194_ _00753_ _00754_ _00755_ VDD VSS gf180mcu_fd_sc_mcu9t5v0__oai21_2
X_08524_ _00744_ _00749_ _00755_ _00756_ VDD VSS gf180mcu_fd_sc_mcu9t5v0__nand3_2
X_08525_ _07180_ _00756_ _07179_ _00757_ VDD VSS gf180mcu_fd_sc_mcu9t5v0__aoi21_4
X_08526_ net18 _00569_ _00758_ VDD VSS gf180mcu_fd_sc_mcu9t5v0__and2_4
X_08527_ _00598_ _00604_ _00758_ _00759_ VDD VSS gf180mcu_fd_sc_mcu9t5v0__and3_2
X_08528_ _00598_ _00604_ net18 _00760_ VDD VSS gf180mcu_fd_sc_mcu9t5v0__aoi21_2
X_08529_ _00759_ _00760_ _00761_ VDD VSS gf180mcu_fd_sc_mcu9t5v0__or2_2
X_08530_ _00757_ _00761_ _00762_ VDD VSS gf180mcu_fd_sc_mcu9t5v0__and2_4
X_08531_ _07186_ _07189_ _07192_ _00763_ VDD VSS gf180mcu_fd_sc_mcu9t5v0__and3_2
X_08532_ _07194_ _00753_ _00763_ _00764_ VDD VSS gf180mcu_fd_sc_mcu9t5v0__oai21_2
X_08533_ _00748_ _07182_ _07179_ _00765_ VDD VSS gf180mcu_fd_sc_mcu9t5v0__nor3_4
X_08534_ _07179_ _07183_ _07182_ _00766_ VDD VSS gf180mcu_fd_sc_mcu9t5v0__or3_4
X_08535_ _07179_ _07180_ _00766_ _00767_ VDD VSS gf180mcu_fd_sc_mcu9t5v0__oai21_4
X_08536_ _00765_ _00764_ _00767_ _00768_ VDD VSS gf180mcu_fd_sc_mcu9t5v0__aoi21_4
X_08537_ _00569_ _00678_ _00689_ _00688_ _00769_ VDD VSS gf180mcu_fd_sc_mcu9t5v0__and4_2
X_08538_ _00769_ _00768_ _00770_ VDD VSS gf180mcu_fd_sc_mcu9t5v0__or2_4
X_08539_ _00670_ _00687_ _00739_ _00736_ _00771_ VDD VSS gf180mcu_fd_sc_mcu9t5v0__oai22_4
X_08540_ _07104_ _00737_ _00771_ _00770_ _00772_ VDD VSS gf180mcu_fd_sc_mcu9t5v0__aoi211_4
X_08541_ _00762_ _00772_ _00773_ VDD VSS gf180mcu_fd_sc_mcu9t5v0__nor2_4
X_08542_ _07660_ _00774_ VDD VSS gf180mcu_fd_sc_mcu9t5v0__buf_8
X_08543_ _00725_ _00743_ _00773_ _00774_ _00775_ VDD VSS gf180mcu_fd_sc_mcu9t5v0__aoi211_4
X_08544_ _07183_ _00748_ _00776_ VDD VSS gf180mcu_fd_sc_mcu9t5v0__nor2_2
X_08545_ _00764_ _00776_ _00777_ VDD VSS gf180mcu_fd_sc_mcu9t5v0__nand2_2
X_08546_ _00749_ _00755_ _00777_ _00778_ VDD VSS gf180mcu_fd_sc_mcu9t5v0__and3_2
X_08547_ _07211_ _00779_ VDD VSS gf180mcu_fd_sc_mcu9t5v0__clkinv_2
X_08548_ _07217_ _00780_ VDD VSS gf180mcu_fd_sc_mcu9t5v0__clkinv_2
X_08549_ _07220_ _07219_ _07218_ _00781_ VDD VSS gf180mcu_fd_sc_mcu9t5v0__oai21_4
X_08550_ _07215_ _00782_ VDD VSS gf180mcu_fd_sc_mcu9t5v0__clkinv_3
X_08551_ _00780_ _00781_ _00782_ _00783_ VDD VSS gf180mcu_fd_sc_mcu9t5v0__aoi21_4
X_08552_ _07214_ _00783_ _07212_ _00784_ VDD VSS gf180mcu_fd_sc_mcu9t5v0__oai21_4
X_08553_ _07209_ _07206_ _00785_ VDD VSS gf180mcu_fd_sc_mcu9t5v0__nand2_2
X_08554_ _00779_ _00784_ _00785_ _00786_ VDD VSS gf180mcu_fd_sc_mcu9t5v0__aoi21_4
X_08555_ _07206_ _07208_ _00787_ VDD VSS gf180mcu_fd_sc_mcu9t5v0__and2_2
X_08556_ _07205_ _00786_ _07202_ _00787_ _00788_ VDD VSS gf180mcu_fd_sc_mcu9t5v0__or4_4
X_08557_ _07203_ _00789_ VDD VSS gf180mcu_fd_sc_mcu9t5v0__clkinv_2
X_08558_ _07202_ _00790_ VDD VSS gf180mcu_fd_sc_mcu9t5v0__clkinv_2
X_08559_ _00789_ _00790_ _00569_ _00791_ VDD VSS gf180mcu_fd_sc_mcu9t5v0__aoi21_2
X_08560_ _00791_ _00788_ _00792_ VDD VSS gf180mcu_fd_sc_mcu9t5v0__and2_4
X_08561_ _00583_ _00793_ VDD VSS gf180mcu_fd_sc_mcu9t5v0__buf_8
X_08562_ _00757_ _00778_ _00792_ _00793_ _00794_ VDD VSS gf180mcu_fd_sc_mcu9t5v0__oai22_4
X_08563_ net18 _00734_ _00795_ VDD VSS gf180mcu_fd_sc_mcu9t5v0__or2_2
X_08564_ _00729_ _00730_ _00795_ _00760_ _00759_ _00796_ VDD
+ VSS gf180mcu_fd_sc_mcu9t5v0__oai32_2
X_08565_ _00778_ _00761_ _00796_ _00768_ _00797_ VDD VSS gf180mcu_fd_sc_mcu9t5v0__oai22_2
X_08566_ _00640_ _00649_ _00668_ _00798_ VDD VSS gf180mcu_fd_sc_mcu9t5v0__or3_2
X_08567_ _00670_ _00674_ net18 _00799_ VDD VSS gf180mcu_fd_sc_mcu9t5v0__aoi21_2
X_08568_ _00798_ _00799_ _00768_ _00800_ VDD VSS gf180mcu_fd_sc_mcu9t5v0__aoi21_2
X_08569_ _00797_ _00800_ _00742_ _00801_ VDD VSS gf180mcu_fd_sc_mcu9t5v0__mux2_2
X_08570_ _00762_ _00772_ _00802_ VDD VSS gf180mcu_fd_sc_mcu9t5v0__or2_4
X_08571_ _00778_ _00803_ VDD VSS gf180mcu_fd_sc_mcu9t5v0__clkinv_2
X_08572_ _07205_ _00786_ _00787_ _07203_ _00804_ VDD VSS gf180mcu_fd_sc_mcu9t5v0__oai31_4
X_08573_ net36 _00805_ VDD VSS gf180mcu_fd_sc_mcu9t5v0__buf_4
X_08574_ _00790_ _00804_ _00805_ _00806_ VDD VSS gf180mcu_fd_sc_mcu9t5v0__aoi21_4
X_08575_ _00803_ _00806_ _00807_ VDD VSS gf180mcu_fd_sc_mcu9t5v0__nand2_2
X_08576_ _00794_ _00801_ net33 _00807_ _00808_ VDD VSS gf180mcu_fd_sc_mcu9t5v0__oai22_4
X_08577_ _00605_ _07160_ _00692_ _00724_ _00809_ VDD VSS gf180mcu_fd_sc_mcu9t5v0__and4_4
X_08578_ net36 _00731_ _00810_ VDD VSS gf180mcu_fd_sc_mcu9t5v0__nor2_2
X_08579_ _00583_ _00669_ _00675_ _00735_ _00811_ VDD VSS gf180mcu_fd_sc_mcu9t5v0__oai31_4
X_08580_ _00810_ _00811_ _00742_ _00812_ VDD VSS gf180mcu_fd_sc_mcu9t5v0__mux2_4
X_08581_ _00742_ _00731_ _00795_ _00806_ _00813_ VDD VSS gf180mcu_fd_sc_mcu9t5v0__oai31_2
X_08582_ _00813_ _00773_ _00812_ _00809_ _00814_ VDD VSS gf180mcu_fd_sc_mcu9t5v0__nor4_4
X_08583_ _00775_ _00808_ _00814_ _00815_ VDD VSS gf180mcu_fd_sc_mcu9t5v0__or3_4
X_08584_ _00815_ _00816_ VDD VSS gf180mcu_fd_sc_mcu9t5v0__buf_4
X_08585_ _07161_ _00729_ _00817_ VDD VSS gf180mcu_fd_sc_mcu9t5v0__nor2_2
X_08586_ _07159_ _00805_ _00742_ _00817_ _00818_ VDD VSS gf180mcu_fd_sc_mcu9t5v0__or4_2
X_08587_ _00629_ _00630_ _00819_ VDD VSS gf180mcu_fd_sc_mcu9t5v0__nand2_2
X_08588_ _07103_ _00706_ _00820_ VDD VSS gf180mcu_fd_sc_mcu9t5v0__and2_4
X_08589_ _00694_ _00819_ _00606_ _00820_ _00821_ VDD VSS gf180mcu_fd_sc_mcu9t5v0__aoi22_4
X_08590_ _07088_ _00710_ _00822_ VDD VSS gf180mcu_fd_sc_mcu9t5v0__xnor2_2
X_08591_ _07091_ _07103_ _00706_ _00823_ VDD VSS gf180mcu_fd_sc_mcu9t5v0__nand3_2
X_08592_ _00585_ _00823_ _07086_ _00824_ VDD VSS gf180mcu_fd_sc_mcu9t5v0__oai21_2
X_08593_ _07091_ _00694_ _00819_ _00825_ VDD VSS gf180mcu_fd_sc_mcu9t5v0__and3_2
X_08594_ _00821_ _07676_ _00822_ _00824_ _00825_ _07095_ VDD
+ VSS gf180mcu_fd_sc_mcu9t5v0__oai32_4
X_08595_ _00694_ _00639_ _00826_ VDD VSS gf180mcu_fd_sc_mcu9t5v0__nand2_2
X_08596_ _00616_ _00826_ _00827_ VDD VSS gf180mcu_fd_sc_mcu9t5v0__and2_2
X_08597_ _07111_ _07114_ _00828_ VDD VSS gf180mcu_fd_sc_mcu9t5v0__nor2_2
X_08598_ _07112_ _07111_ _00829_ VDD VSS gf180mcu_fd_sc_mcu9t5v0__nor2_2
X_08599_ _00611_ _00828_ _00829_ _00830_ VDD VSS gf180mcu_fd_sc_mcu9t5v0__aoi21_2
X_08600_ _07109_ _00830_ _00831_ VDD VSS gf180mcu_fd_sc_mcu9t5v0__xor2_2
X_08601_ _07094_ _07096_ _07093_ _00832_ VDD VSS gf180mcu_fd_sc_mcu9t5v0__aoi21_2
X_08602_ _00715_ _00714_ _00633_ _00833_ VDD VSS gf180mcu_fd_sc_mcu9t5v0__and3_2
X_08603_ _00704_ _00716_ _00832_ _00833_ _00834_ VDD VSS gf180mcu_fd_sc_mcu9t5v0__nor4_2
X_08604_ _00831_ _00834_ _00616_ _00835_ VDD VSS gf180mcu_fd_sc_mcu9t5v0__mux2_2
X_08605_ _07095_ _00827_ _00835_ _00836_ VDD VSS gf180mcu_fd_sc_mcu9t5v0__aoi21_4
X_08606_ _07129_ _07131_ _00665_ _00837_ VDD VSS gf180mcu_fd_sc_mcu9t5v0__or3_2
X_08607_ _07131_ _00665_ _07129_ _00838_ VDD VSS gf180mcu_fd_sc_mcu9t5v0__oai21_2
X_08608_ _00625_ _00837_ _00838_ _00839_ VDD VSS gf180mcu_fd_sc_mcu9t5v0__nand3_2
X_08609_ _07142_ _00840_ VDD VSS gf180mcu_fd_sc_mcu9t5v0__clkinv_2
X_08610_ _00840_ _07144_ _07147_ _00672_ _00841_ VDD VSS gf180mcu_fd_sc_mcu9t5v0__or4_2
X_08611_ _00840_ _07145_ _00672_ _00842_ VDD VSS gf180mcu_fd_sc_mcu9t5v0__nand3_2
X_08612_ _00840_ _07145_ _07147_ _00843_ VDD VSS gf180mcu_fd_sc_mcu9t5v0__and3_2
X_08613_ _00840_ _07145_ _07144_ _00844_ VDD VSS gf180mcu_fd_sc_mcu9t5v0__nor3_2
X_08614_ _00840_ _07144_ _00843_ _00844_ _00845_ VDD VSS gf180mcu_fd_sc_mcu9t5v0__aoi211_2
X_08615_ _00841_ _00842_ _00845_ _00846_ VDD VSS gf180mcu_fd_sc_mcu9t5v0__and3_2
X_08616_ _00839_ _00846_ _00670_ _00847_ VDD VSS gf180mcu_fd_sc_mcu9t5v0__mux2_2
X_08617_ _00736_ _00836_ _00847_ _07157_ VDD VSS gf180mcu_fd_sc_mcu9t5v0__oai21_4
X_08618_ _07159_ _07162_ _00848_ VDD VSS gf180mcu_fd_sc_mcu9t5v0__nand2_2
X_08619_ _00726_ _00727_ _00848_ _00849_ VDD VSS gf180mcu_fd_sc_mcu9t5v0__aoi21_2
X_08620_ _00733_ _00849_ _00850_ VDD VSS gf180mcu_fd_sc_mcu9t5v0__or2_2
X_08621_ _00742_ _00851_ VDD VSS gf180mcu_fd_sc_mcu9t5v0__buf_4
X_08622_ _07158_ _07157_ _00850_ _00805_ _00851_ _00852_ VDD
+ VSS gf180mcu_fd_sc_mcu9t5v0__oai32_2
X_08623_ _07159_ _00817_ _00853_ VDD VSS gf180mcu_fd_sc_mcu9t5v0__nand2_2