
* cell async_fifo
* pin wr_en
* pin full
* pin wr_count[0]
* pin wr_count[3]
* pin wr_count[4]
* pin almost_full
* pin wr_count[2]
* pin PWELL
* pin NWELL
* pin wr_count[1]
* pin wr_rst_n
* pin pointer_wraparound_flag
* pin wr_data[0]
* pin wr_data[3]
* pin wr_data[2]
* pin rd_data[0]
* pin rd_data[2]
* pin rd_clk
* pin rd_data[3]
* pin rd_rst_n
* pin wr_data[7]
* pin rd_data[7]
* pin rd_count[4]
* pin almost_empty
* pin rd_count[3]
* pin rd_count[2]
* pin rd_count[1]
* pin rd_count[0]
* pin wr_data[6]
* pin wr_data[5]
* pin wr_clk
* pin sync_error_flag
* pin wr_data[4]
* pin wr_data[1]
* pin rd_data[6]
* pin rd_data[5]
* pin rd_data[4]
* pin rd_data[1]
* pin rd_en
* pin empty
.SUBCKT async_fifo 1 2 3 4 5 6 7 14 21 77 78 220 271 302 369 383 399 400 401
+ 421 465 469 569 582 583 584 610 611 647 669 680 686 700 701 704 705 706 707
+ 708 709
* net 1 wr_en
* net 2 full
* net 3 wr_count[0]
* net 4 wr_count[3]
* net 5 wr_count[4]
* net 6 almost_full
* net 7 wr_count[2]
* net 14 PWELL
* net 21 NWELL
* net 77 wr_count[1]
* net 78 wr_rst_n
* net 220 pointer_wraparound_flag
* net 271 wr_data[0]
* net 302 wr_data[3]
* net 369 wr_data[2]
* net 383 rd_data[0]
* net 399 rd_data[2]
* net 400 rd_clk
* net 401 rd_data[3]
* net 421 rd_rst_n
* net 465 wr_data[7]
* net 469 rd_data[7]
* net 569 rd_count[4]
* net 582 almost_empty
* net 583 rd_count[3]
* net 584 rd_count[2]
* net 610 rd_count[1]
* net 611 rd_count[0]
* net 647 wr_data[6]
* net 669 wr_data[5]
* net 680 wr_clk
* net 686 sync_error_flag
* net 700 wr_data[4]
* net 701 wr_data[1]
* net 704 rd_data[6]
* net 705 rd_data[5]
* net 706 rd_data[4]
* net 707 rd_data[1]
* net 708 rd_en
* net 709 empty
* cell instance $2 r0 *1 40.47,1.4
X$2 1 14 21 26 BUF_X1
* cell instance $8 m0 *1 41.23,4.2
X$8 30 14 21 2 BUF_X1
* cell instance $15 r0 *1 47.12,1.4
X$15 17 14 21 3 BUF_X1
* cell instance $21 r0 *1 48.26,1.4
X$21 27 14 21 4 BUF_X1
* cell instance $25 r0 *1 47.69,1.4
X$25 12 14 21 5 BUF_X1
* cell instance $32 r0 *1 48.83,1.4
X$32 25 14 21 6 BUF_X1
* cell instance $39 r0 *1 51.68,1.4
X$39 23 14 21 7 BUF_X1
* cell instance $44 m0 *1 16.91,4.2
X$44 8 36 34 14 21 22 MUX2_X1
* cell instance $46 r0 *1 15.01,1.4
X$46 14 8 22 9 21 DFF_X1
* cell instance $48 r0 *1 16.72,4.2
X$48 35 70 8 14 21 91 MUX2_X1
* cell instance $50 r0 *1 1.33,51.8
X$50 14 680 9 21 BUF_X32
* cell instance $180 r0 *1 2.09,40.6
X$180 14 532 538 9 21 DFF_X1
* cell instance $182 r0 *1 4.75,37.8
X$182 14 498 508 9 21 DFF_X1
* cell instance $185 r0 *1 6.65,43.4
X$185 14 560 572 9 21 DFF_X1
* cell instance $188 r0 *1 33.44,49
X$188 14 604 679 9 21 DFF_X1
* cell instance $191 m0 *1 10.83,43.4
X$191 14 542 556 9 21 DFF_X1
* cell instance $193 r0 *1 9.88,43.4
X$193 14 573 588 9 21 DFF_X1
* cell instance $195 r0 *1 10.64,35
X$195 14 483 494 9 21 DFF_X1
* cell instance $198 r0 *1 5.7,35
X$198 14 466 470 9 21 DFF_X1
* cell instance $201 r0 *1 12.54,37.8
X$201 14 499 519 9 21 DFF_X1
* cell instance $203 r0 *1 24.51,35
X$203 14 480 468 9 21 DFF_X1
* cell instance $206 r0 *1 19.57,35
X$206 14 467 476 9 21 DFF_X1
* cell instance $209 r0 *1 25.65,37.8
X$209 14 502 503 9 21 DFF_X1
* cell instance $211 m0 *1 24.32,40.6
X$211 14 513 527 9 21 DFF_X1
* cell instance $213 m0 *1 50.35,9.8
X$213 14 9 47 138 218 74 21 DFFR_X1
* cell instance $216 m0 *1 16.53,32.2
X$216 14 415 424 9 21 DFF_X1
* cell instance $218 r0 *1 13.87,29.4
X$218 14 404 406 9 21 DFF_X1
* cell instance $220 r0 *1 16.15,37.8
X$220 14 500 523 9 21 DFF_X1
* cell instance $222 r0 *1 18.24,29.4
X$222 14 393 392 9 21 DFF_X1
* cell instance $224 m0 *1 16.34,37.8
X$224 14 485 495 9 21 DFF_X1
* cell instance $226 r0 *1 16.34,40.6
X$226 14 512 521 9 21 DFF_X1
* cell instance $228 m0 *1 49.02,12.6
X$228 14 9 65 164 183 74 21 DFFR_X1
* cell instance $230 r0 *1 1.9,35
X$230 14 490 489 9 21 DFF_X1
* cell instance $233 r0 *1 5.13,29.4
X$233 14 371 403 9 21 DFF_X1
* cell instance $236 m0 *1 2.85,32.2
X$236 14 370 402 9 21 DFF_X1
* cell instance $239 m0 *1 1.9,35
X$239 14 450 458 9 21 DFF_X1
* cell instance $242 r0 *1 8.55,29.4
X$242 14 414 389 9 21 DFF_X1
* cell instance $245 r0 *1 8.17,32.2
X$245 14 425 422 9 21 DFF_X1
* cell instance $247 r0 *1 28.69,29.4
X$247 14 376 413 9 21 DFF_X1
* cell instance $249 r0 *1 21.09,49
X$249 14 667 649 9 21 DFF_X1
* cell instance $251 r0 *1 22.42,51.8
X$251 14 672 685 9 21 DFF_X1
* cell instance $254 m0 *1 25.84,51.8
X$254 14 673 691 9 21 DFF_X1
* cell instance $256 m0 *1 27.17,32.2
X$256 14 431 418 9 21 DFF_X1
* cell instance $259 r0 *1 26.03,49
X$259 14 627 644 9 21 DFF_X1
* cell instance $261 r0 *1 30.78,32.2
X$261 14 433 432 9 21 DFF_X1
* cell instance $263 r0 *1 15.2,46.2
X$263 14 543 641 9 21 DFF_X1
* cell instance $265 m0 *1 15.2,46.2
X$265 14 562 590 9 21 DFF_X1
* cell instance $267 r0 *1 44.84,12.6
X$267 14 9 739 137 217 74 21 DFFR_X1
* cell instance $270 m0 *1 16.91,54.6
X$270 14 689 697 9 21 DFF_X1
* cell instance $272 r0 *1 18.43,51.8
X$272 14 671 684 9 21 DFF_X1
* cell instance $274 m0 *1 13.49,51.8
X$274 14 683 688 9 21 DFF_X1
* cell instance $276 r0 *1 13.49,49
X$276 14 666 665 9 21 DFF_X1
* cell instance $278 m0 *1 41.8,4.2
X$278 14 9 712 30 53 74 21 DFFR_X1
* cell instance $281 m0 *1 42.37,9.8
X$281 14 9 122 74 108 121 21 DFFR_X2
* cell instance $284 m0 *1 27.17,46.2
X$284 14 575 621 9 21 DFF_X1
* cell instance $286 m0 *1 33.06,49
X$286 14 630 668 9 21 DFF_X1
* cell instance $288 r0 *1 4.94,46.2
X$288 14 636 613 9 21 DFF_X1
* cell instance $290 m0 *1 42.37,12.6
X$290 14 9 727 181 160 74 21 DFFR_X1
* cell instance $292 m0 *1 46.55,9.8
X$292 14 9 124 123 168 74 21 DFFR_X1
* cell instance $295 r0 *1 4.37,49
X$295 14 660 637 9 21 DFF_X1
* cell instance $297 m0 *1 27.74,43.4
X$297 14 548 557 9 21 DFF_X1
* cell instance $299 r0 *1 33.25,43.4
X$299 14 566 597 9 21 DFF_X1
* cell instance $301 m0 *1 29.07,51.8
X$301 14 629 628 9 21 DFF_X1
* cell instance $303 r0 *1 1.9,43.4
X$303 14 559 585 9 21 DFF_X1
* cell instance $306 r0 *1 29.45,49
X$306 14 651 650 9 21 DFF_X1
* cell instance $309 m0 *1 1.9,49
X$309 14 601 634 9 21 DFF_X1
* cell instance $312 r0 *1 49.59,9.8
X$312 14 9 46 161 165 74 21 DFFR_X1
* cell instance $315 m0 *1 1.33,43.4
X$315 14 541 586 9 21 DFF_X1
* cell instance $318 r0 *1 35.53,37.8
X$318 14 505 531 9 21 DFF_X1
* cell instance $320 m0 *1 27.74,37.8
X$320 14 504 509 9 21 DFF_X1
* cell instance $322 m0 *1 32.3,40.6
X$322 14 529 528 9 21 DFF_X1
* cell instance $324 r0 *1 30.02,35
X$324 14 496 481 9 21 DFF_X1
* cell instance $326 m0 *1 17.48,43.4
X$326 14 546 545 9 21 DFF_X1
* cell instance $329 m0 *1 34.01,43.4
X$329 14 554 555 9 21 DFF_X1
* cell instance $331 m0 *1 33.44,32.2
X$331 14 435 419 9 21 DFF_X1
* cell instance $333 r0 *1 8.93,49
X$333 14 662 663 9 21 DFF_X1
* cell instance $335 m0 *1 9.5,51.8
X$335 14 681 687 9 21 DFF_X1
* cell instance $338 m0 *1 6.27,51.8
X$338 14 670 677 9 21 DFF_X1
* cell instance $340 m0 *1 21.85,43.4
X$340 14 547 558 9 21 DFF_X1
* cell instance $343 r0 *1 22.04,43.4
X$343 14 563 593 9 21 DFF_X1
* cell instance $345 m0 *1 4.56,18.2
X$345 14 214 256 9 21 DFF_X1
* cell instance $347 m0 *1 3.23,21
X$347 14 261 274 9 21 DFF_X1
* cell instance $349 r0 *1 35.91,26.6
X$349 14 342 363 9 21 DFF_X1
* cell instance $352 m0 *1 1.33,18.2
X$352 14 255 273 9 21 DFF_X1
* cell instance $354 m0 *1 31.92,9.8
X$354 14 135 144 9 21 DFF_X1
* cell instance $357 r0 *1 1.9,26.6
X$357 14 347 384 9 21 DFF_X1
* cell instance $360 m0 *1 2.66,26.6
X$360 14 348 359 9 21 DFF_X1
* cell instance $362 r0 *1 36.67,21
X$362 14 309 308 9 21 DFF_X1
* cell instance $365 r0 *1 50.54,18.2
X$365 14 9 732 272 254 74 21 DFFR_X1
* cell instance $367 r0 *1 10.26,15.4
X$367 14 244 215 9 21 DFF_X1
* cell instance $370 m0 *1 6.84,15.4
X$370 14 223 210 9 21 DFF_X1
* cell instance $373 m0 *1 11.02,18.2
X$373 14 245 259 9 21 DFF_X1
* cell instance $375 r0 *1 33.44,21
X$375 14 298 290 9 21 DFF_X1
* cell instance $378 m0 *1 10.45,21
X$378 14 243 278 9 21 DFF_X1
* cell instance $381 r0 *1 33.06,9.8
X$381 14 158 157 9 21 DFF_X1
* cell instance $383 r0 *1 1.33,15.4
X$383 14 228 221 9 21 DFF_X1
* cell instance $385 m0 *1 50.54,15.4
X$385 14 9 731 222 209 74 21 DFFR_X1
* cell instance $387 m0 *1 29.07,23.8
X$387 14 315 301 9 21 DFF_X1
* cell instance $390 r0 *1 26.6,23.8
X$390 14 316 330 9 21 DFF_X1
* cell instance $392 m0 *1 41.23,7
X$392 14 9 728 32 73 74 21 DFFR_X1
* cell instance $395 m0 *1 22.23,18.2
X$395 14 248 260 9 21 DFF_X1
* cell instance $397 m0 *1 28.5,21
X$397 14 300 299 9 21 DFF_X1
* cell instance $399 m0 *1 22.04,21
X$399 14 265 283 9 21 DFF_X1
* cell instance $402 r0 *1 24.32,15.4
X$402 14 230 226 9 21 DFF_X1
* cell instance $404 r0 *1 30.4,26.6
X$404 14 335 367 9 21 DFF_X1
* cell instance $407 r0 *1 2.66,21
X$407 14 285 293 9 21 DFF_X1
* cell instance $409 r0 *1 8.36,23.8
X$409 14 303 327 9 21 DFF_X1
* cell instance $411 m0 *1 39.52,23.8
X$411 14 9 723 282 268 74 21 DFFR_X1
* cell instance $413 r0 *1 40.66,21
X$413 14 9 733 291 297 74 21 DFFR_X1
* cell instance $416 m0 *1 12.35,23.8
X$416 14 312 304 9 21 DFF_X1
* cell instance $418 r0 *1 7.79,21
X$418 14 286 295 9 21 DFF_X1
* cell instance $420 r0 *1 7.41,26.6
X$420 14 361 360 9 21 DFF_X1
* cell instance $422 m0 *1 24.13,7
X$422 14 92 104 9 21 DFF_X1
* cell instance $424 r0 *1 25.46,9.8
X$424 14 132 171 9 21 DFF_X1
* cell instance $427 m0 *1 25.46,4.2
X$427 14 58 38 9 21 DFF_X1
* cell instance $429 m0 *1 26.41,12.6
X$429 14 154 153 9 21 DFF_X1
* cell instance $431 r0 *1 24.89,7
X$431 14 119 127 9 21 DFF_X1
* cell instance $433 r0 *1 13.68,7
X$433 14 116 114 9 21 DFF_X1
* cell instance $436 r0 *1 28.88,4.2
X$436 14 72 87 9 21 DFF_X1
* cell instance $438 r0 *1 19.95,12.6
X$438 14 188 187 9 21 DFF_X1
* cell instance $440 m0 *1 21.09,4.2
X$440 14 37 50 9 21 DFF_X1
* cell instance $443 m0 *1 30.4,4.2
X$443 14 39 54 9 21 DFF_X1
* cell instance $445 m0 *1 12.92,7
X$445 14 89 102 9 21 DFF_X1
* cell instance $447 r0 *1 24.7,1.4
X$447 14 10 52 9 21 DFF_X1
* cell instance $449 r0 *1 19.38,9.8
X$449 14 169 129 9 21 DFF_X1
* cell instance $452 r0 *1 19.38,4.2
X$452 14 56 84 9 21 DFF_X1
* cell instance $454 m0 *1 15.2,12.6
X$454 14 166 167 9 21 DFF_X1
* cell instance $456 r0 *1 9.5,9.8
X$456 14 151 163 9 21 DFF_X1
* cell instance $458 m0 *1 47.12,18.2
X$458 14 9 726 182 325 74 21 DFFR_X1
* cell instance $460 r0 *1 48.45,15.4
X$460 14 9 754 234 294 74 21 DFFR_X1
* cell instance $463 m0 *1 3.99,9.8
X$463 14 115 139 9 21 DFF_X1
* cell instance $465 r0 *1 44.08,23.8
X$465 14 9 734 325 381 74 21 DFFR_X1
* cell instance $467 r0 *1 45.41,21
X$467 14 9 747 294 387 74 21 DFFR_X1
* cell instance $470 r0 *1 6.46,7
X$470 14 110 111 9 21 DFF_X1
* cell instance $472 m0 *1 42.75,21
X$472 14 9 718 270 277 74 21 DFFR_X1
* cell instance $475 r0 *1 42.37,15.4
X$475 14 9 745 217 216 74 21 DFFR_X1
* cell instance $477 r0 *1 43.51,18.2
X$477 14 9 253 74 276 233 21 DFFR_X2
* cell instance $479 r0 *1 6.27,12.6
X$479 14 148 184 9 21 DFF_X1
* cell instance $481 r0 *1 10.64,12.6
X$481 14 152 175 9 21 DFF_X1
* cell instance $484 r0 *1 50.92,21
X$484 14 9 737 254 292 74 21 DFFR_X1
* cell instance $486 m0 *1 3.23,12.6
X$486 14 147 162 9 21 DFF_X1
* cell instance $488 r0 *1 38.38,4.2
X$488 14 9 746 85 62 74 21 DFFR_X1
* cell instance $490 r0 *1 34.39,1.4
X$490 14 60 11 9 21 DFF_X1
* cell instance $492 m0 *1 9.12,4.2
X$492 14 33 45 9 21 DFF_X1
* cell instance $494 m0 *1 50.92,23.8
X$494 14 9 716 310 324 74 21 DFFR_X1
* cell instance $496 r0 *1 5.7,4.2
X$496 14 68 67 9 21 DFF_X1
* cell instance $499 m0 *1 12.35,4.2
X$499 14 35 48 9 21 DFF_X1
* cell instance $501 m0 *1 34.2,4.2
X$501 14 61 29 9 21 DFF_X1
* cell instance $503 r0 *1 47.88,23.8
X$503 14 9 740 324 326 74 21 DFFR_X1
* cell instance $506 r0 *1 2.47,4.2
X$506 14 66 79 9 21 DFF_X1
* cell instance $508 r0 *1 9.12,4.2
X$508 14 101 80 9 21 DFF_X1
* cell instance $511 m0 *1 48.45,26.6
X$511 14 9 719 292 343 74 21 DFFR_X1
* cell instance $513 m0 *1 12.73,26.6
X$513 14 332 365 9 21 DFF_X1
* cell instance $515 r0 *1 38.38,9.8
X$515 14 9 136 74 172 43 21 DFFR_X2
* cell instance $517 r0 *1 17.29,21
X$517 14 305 296 9 21 DFF_X1
* cell instance $519 m0 *1 20.9,23.8
X$519 14 288 313 9 21 DFF_X1
* cell instance $521 m0 *1 26.41,26.6
X$521 14 334 368 9 21 DFF_X1
* cell instance $523 r0 *1 20.71,23.8
X$523 14 328 329 9 21 DFF_X1
* cell instance $526 m0 *1 21.47,26.6
X$526 14 353 333 9 21 DFF_X1
* cell instance $528 r0 *1 20.71,32.2
X$528 14 444 443 9 21 DFF_X1
* cell instance $531 m0 *1 14.06,15.4
X$531 14 186 199 9 21 DFF_X1
* cell instance $534 m0 *1 15.2,21
X$534 14 246 279 9 21 DFF_X1
* cell instance $536 r0 *1 18.43,18.2
X$536 14 247 264 9 21 DFF_X1
* cell instance $538 m0 *1 27.17,18.2
X$538 14 249 250 9 21 DFF_X1
* cell instance $540 r0 *1 24.32,4.2
X$540 10 15 57 14 21 52 MUX2_X1
* cell instance $544 r0 *1 27.36,4.2
X$544 10 70 58 14 21 71 MUX2_X1
* cell instance $547 r0 *1 34.2,4.2
X$547 60 15 59 14 21 11 MUX2_X1
* cell instance $550 r0 *1 46.74,1.4
X$550 31 14 21 12 INV_X1
* cell instance $553 r0 *1 54.15,4.2
X$553 13 14 21 77 BUF_X1
* cell instance $555 r0 *1 51.11,4.2
X$555 14 43 18 13 81 46 21 FA_X1
* cell instance $557 r0 *1 52.44,1.4
X$557 23 13 14 21 20 NAND2_X1
* cell instance $558 m0 *1 6.46,12.6
X$558 148 88 128 14 21 184 MUX2_X1
* cell instance $559 m0 *1 7.79,12.6
X$559 147 100 148 14 21 150 MUX2_X1
* cell instance $560 m0 *1 9.12,12.6
X$560 151 88 149 14 21 163 MUX2_X1
* cell instance $562 m0 *1 11.21,12.6
X$562 152 69 149 14 21 175 MUX2_X1
* cell instance $564 m0 *1 13.3,12.6
X$564 152 100 151 14 21 185 MUX2_X1
* cell instance $582 r0 *1 15.39,12.6
X$582 186 15 128 14 21 199 MUX2_X1
* cell instance $584 r0 *1 17.1,12.6
X$584 186 70 166 14 21 192 MUX2_X1
* cell instance $586 r0 *1 18.62,12.6
X$586 188 15 149 14 21 187 MUX2_X1
* cell instance $588 m0 *1 19.57,12.6
X$588 169 36 149 14 21 129 MUX2_X1
* cell instance $591 m0 *1 22.04,12.6
X$591 188 70 169 14 21 189 MUX2_X1
* cell instance $593 m0 *1 25.08,12.6
X$593 132 69 155 14 21 171 MUX2_X1
* cell instance $596 r0 *1 23.37,12.6
X$596 185 117 189 14 21 213 MUX2_X1
* cell instance $600 r0 *1 27.17,12.6
X$600 154 88 155 14 21 153 MUX2_X1
* cell instance $601 r0 *1 28.5,12.6
X$601 132 202 154 14 21 203 MUX2_X1
* cell instance $603 m0 *1 30.21,12.6
X$603 134 130 14 21 191 NAND2_X1
* cell instance $609 m0 *1 31.16,12.6
X$609 176 156 69 14 21 NOR2_X4
* cell instance $610 r0 *1 31.16,12.6
X$610 204 176 88 14 21 NOR2_X4
* cell instance $611 r0 *1 32.87,12.6
X$611 107 177 14 21 204 NAND2_X2
* cell instance $612 m0 *1 34.58,12.6
X$612 173 176 36 14 21 NOR2_X4
* cell instance $613 m0 *1 33.25,12.6
X$613 158 15 155 14 21 157 MUX2_X1
* cell instance $614 m0 *1 36.29,12.6
X$614 174 14 21 177 BUF_X2
* cell instance $616 m0 *1 37.24,12.6
X$616 121 43 760 21 14 178 HA_X1
* cell instance $617 m0 *1 39.14,12.6
X$617 121 172 761 21 14 190 HA_X1
* cell instance $618 m0 *1 41.04,12.6
X$618 121 43 14 21 179 NAND2_X1
* cell instance $623 r0 *1 33.82,12.6
X$623 194 176 15 14 21 NOR2_X4
* cell instance $624 r0 *1 35.53,12.6
X$624 158 202 135 14 21 195 MUX2_X1
* cell instance $626 r0 *1 37.24,12.6
X$626 190 14 21 201 BUF_X2
* cell instance $627 r0 *1 38,12.6
X$627 93 14 21 196 INV_X2
* cell instance $628 r0 *1 38.57,12.6
X$628 196 105 14 176 21 NAND2_X4
* cell instance $629 r0 *1 40.28,12.6
X$629 105 14 21 197 INV_X2
* cell instance $631 r0 *1 41.04,12.6
X$631 180 14 21 206 CLKBUF_X3
* cell instance $632 r0 *1 41.99,12.6
X$632 181 120 159 14 21 160 MUX2_X1
* cell instance $636 m0 *1 52.82,12.6
X$636 164 138 123 161 14 21 219 NOR4_X1
* cell instance $641 r0 *1 49.78,12.6
X$641 183 182 21 165 14 XOR2_X2
* cell instance $645 m0 *1 36.86,35
X$645 437 377 70 14 21 479 MUX2_X1
* cell instance $648 m0 *1 38.38,35
X$648 453 452 437 21 14 454 HA_X1
* cell instance $649 m0 *1 40.28,35
X$649 454 337 321 14 21 463 NAND3_X1
* cell instance $650 m0 *1 41.04,35
X$650 460 454 21 438 14 XOR2_X2
* cell instance $651 m0 *1 42.75,35
X$651 439 462 21 14 445 XNOR2_X1
* cell instance $652 m0 *1 43.89,35
X$652 343 463 14 21 462 XOR2_X1
* cell instance $655 m0 *1 45.98,35
X$655 14 355 722 455 461 380 21 DFFR_X1
* cell instance $656 m0 *1 49.78,35
X$656 457 459 396 14 471 21 AOI21_X1
* cell instance $657 m0 *1 50.54,35
X$657 14 355 725 456 471 380 21 DFFR_X1
* cell instance $658 m0 *1 54.34,35
X$658 456 14 21 459 INV_X1
* cell instance $661 r0 *1 36.86,35
X$661 14 355 479 380 472 452 21 DFFR_X2
* cell instance $662 r0 *1 41.04,35
X$662 439 377 337 14 21 493 MUX2_X1
* cell instance $663 r0 *1 42.37,35
X$663 487 21 337 14 BUF_X4
* cell instance $664 r0 *1 43.7,35
X$664 463 377 14 21 491 NOR2_X1
* cell instance $666 r0 *1 44.65,35
X$666 14 355 749 488 233 380 21 DFFR_X1
* cell instance $671 r0 *1 54.15,35
X$671 456 14 21 469 BUF_X1
* cell instance $677 m0 *1 5.32,23.8
X$677 285 241 261 14 21 311 MUX2_X1
* cell instance $681 m0 *1 10.64,23.8
X$681 303 205 28 14 21 327 MUX2_X1
* cell instance $689 r0 *1 3.04,23.8
X$689 302 14 21 317 CLKBUF_X2
* cell instance $692 r0 *1 7.22,23.8
X$692 317 14 21 28 BUF_X2
* cell instance $696 r0 *1 12.16,23.8
X$696 317 238 312 14 21 304 MUX2_X1
* cell instance $701 r0 *1 14.63,23.8
X$701 312 321 332 14 21 344 MUX2_X1
* cell instance $704 m0 *1 19,23.8
X$704 59 240 305 14 21 296 MUX2_X1
* cell instance $706 r0 *1 19.38,23.8
X$706 28 284 328 14 21 329 MUX2_X1
* cell instance $711 r0 *1 24.13,23.8
X$711 14 241 21 318 BUF_X8
* cell instance $712 m0 *1 26.22,23.8
X$712 251 239 316 14 21 330 MUX2_X1
* cell instance $714 m0 *1 27.55,23.8
X$714 251 238 334 14 21 368 MUX2_X1
* cell instance $717 m0 *1 35.34,23.8
X$717 298 202 309 14 21 307 MUX2_X1
* cell instance $718 m0 *1 36.67,23.8
X$718 251 237 309 14 21 308 MUX2_X1
* cell instance $723 r0 *1 29.83,23.8
X$723 316 318 315 14 21 319 MUX2_X1
* cell instance $724 r0 *1 31.16,23.8
X$724 319 100 346 14 21 320 MUX2_X1
* cell instance $725 r0 *1 32.49,23.8
X$725 320 323 314 14 21 336 MUX2_X1
* cell instance $727 r0 *1 34.2,23.8
X$727 321 14 21 322 INV_X1
* cell instance $728 r0 *1 34.58,23.8
X$728 322 337 21 14 130 AND2_X2
* cell instance $729 r0 *1 35.53,23.8
X$729 338 322 323 14 21 339 NOR3_X1
* cell instance $730 r0 *1 36.29,23.8
X$730 307 322 117 14 21 340 NOR3_X1
* cell instance $731 r0 *1 37.05,23.8
X$731 195 321 323 14 21 341 NOR3_X1
* cell instance $744 m0 *1 17.29,15.4
X$744 150 117 192 14 21 212 MUX2_X1
* cell instance $753 r0 *1 4.56,15.4
X$753 90 240 228 14 21 221 MUX2_X1
* cell instance $756 r0 *1 6.46,15.4
X$756 214 229 128 14 21 256 MUX2_X1
* cell instance $757 r0 *1 7.79,15.4
X$757 223 229 90 14 21 210 MUX2_X1
* cell instance $765 r0 *1 22.42,15.4
X$765 212 130 14 21 351 NAND2_X1
* cell instance $769 m0 *1 24.51,15.4
X$769 213 130 14 21 225 NAND2_X1
* cell instance $773 m0 *1 25.46,15.4
X$773 230 205 155 14 21 226 MUX2_X1
* cell instance $776 r0 *1 27.93,15.4
X$776 193 156 229 14 21 NOR2_X4
* cell instance $777 m0 *1 30.4,15.4
X$777 193 173 289 14 21 NOR2_X4
* cell instance $778 m0 *1 28.69,15.4
X$778 193 204 205 14 21 NOR2_X4
* cell instance $780 m0 *1 32.3,15.4
X$780 107 206 14 21 156 NAND2_X2
* cell instance $781 m0 *1 33.25,15.4
X$781 107 201 14 21 194 NAND2_X2
* cell instance $783 m0 *1 34.96,15.4
X$783 107 207 14 173 21 NAND2_X4
* cell instance $786 r0 *1 29.83,15.4
X$786 193 194 231 14 21 NOR2_X4
* cell instance $788 r0 *1 31.92,15.4
X$788 252 177 107 14 262 21 NAND3_X4
* cell instance $790 r0 *1 34.77,15.4
X$790 120 177 227 14 237 21 NAND3_X4
* cell instance $791 m0 *1 38.76,15.4
X$791 178 21 207 14 BUF_X4
* cell instance $792 m0 *1 37.05,15.4
X$792 93 197 14 193 21 NAND2_X4
* cell instance $793 m0 *1 40.09,15.4
X$793 211 196 105 21 198 14 OAI21_X1
* cell instance $794 m0 *1 40.85,15.4
X$794 207 140 21 14 200 XNOR2_X1
* cell instance $796 m0 *1 42.18,15.4
X$796 93 200 21 14 208 XNOR2_X1
* cell instance $802 r0 *1 37.81,15.4
X$802 196 197 227 14 21 NOR2_X4
* cell instance $803 r0 *1 39.52,15.4
X$803 93 105 252 14 21 NOR2_X4
* cell instance $804 r0 *1 41.23,15.4
X$804 179 93 14 21 232 NAND2_X1
* cell instance $810 r0 *1 52.25,15.4
X$810 224 219 14 21 209 NOR2_X1
* cell instance $814 r0 *1 54.15,15.4
X$814 222 14 21 220 BUF_X1
* cell instance $820 m0 *1 5.13,7
X$820 66 69 28 14 21 79 MUX2_X1
* cell instance $821 m0 *1 6.46,7
X$821 68 88 28 14 21 67 MUX2_X1
* cell instance $822 m0 *1 7.79,7
X$822 66 100 68 14 21 83 MUX2_X1
* cell instance $825 m0 *1 10.07,7
X$825 101 88 34 14 21 80 MUX2_X1
* cell instance $827 m0 *1 11.59,7
X$827 33 100 101 14 21 82 MUX2_X1
* cell instance $828 m0 *1 16.15,7
X$828 89 15 90 14 21 102 MUX2_X1
* cell instance $829 m0 *1 17.48,7
X$829 82 117 91 14 21 125 MUX2_X1
* cell instance $832 m0 *1 22.04,7
X$832 83 117 103 14 21 118 MUX2_X1
* cell instance $834 m0 *1 27.36,7
X$834 92 88 57 14 21 104 MUX2_X1
* cell instance $838 m0 *1 31.16,7
X$838 72 88 59 14 21 87 MUX2_X1
* cell instance $839 m0 *1 32.49,7
X$839 39 70 72 14 21 106 MUX2_X1
* cell instance $847 r0 *1 5.13,7
X$847 110 69 90 14 21 111 MUX2_X1
* cell instance $851 r0 *1 16.91,7
X$851 116 36 90 14 21 114 MUX2_X1
* cell instance $856 m0 *1 34.39,7
X$856 61 36 59 14 21 29 MUX2_X1
* cell instance $860 m0 *1 38,7
X$860 93 173 21 14 62 XNOR2_X1
* cell instance $863 m0 *1 40.09,7
X$863 105 112 21 14 73 XNOR2_X1
* cell instance $864 m0 *1 45.03,7
X$864 32 14 21 105 CLKBUF_X3
* cell instance $867 m0 *1 46.93,7
X$867 109 14 21 17 INV_X1
* cell instance $869 m0 *1 48.07,7
X$869 40 14 21 94 INV_X1
* cell instance $870 m0 *1 48.45,7
X$870 95 14 21 19 BUF_X1
* cell instance $871 m0 *1 49.02,7
X$871 94 96 41 21 51 14 OAI21_X1
* cell instance $872 m0 *1 49.78,7
X$872 75 19 18 14 96 21 AOI21_X1
* cell instance $873 m0 *1 50.54,7
X$873 75 19 97 14 42 21 AOI21_X1
* cell instance $874 m0 *1 51.3,7
X$874 76 99 98 21 97 14 OAI21_X1
* cell instance $877 r0 *1 34.39,7
X$877 106 117 113 14 21 143 MUX2_X1
* cell instance $881 r0 *1 39.9,7
X$881 120 121 43 93 14 21 112 NAND4_X1
* cell instance $884 r0 *1 41.42,7
X$884 121 120 108 14 21 122 MUX2_X1
* cell instance $888 r0 *1 46.93,7
X$888 124 121 109 21 14 759 HA_X1
* cell instance $890 r0 *1 49.59,7
X$890 123 108 763 21 14 99 HA_X1
* cell instance $893 r0 *1 52.06,7
X$893 14 74 21 78 BUF_X8
* cell instance $894 m0 *1 52.63,7
X$894 99 14 21 81 INV_X1
* cell instance $898 m0 *1 53.96,7
X$898 44 14 21 98 INV_X1
* cell instance $907 m0 *1 25.65,54.6
X$907 701 14 21 486 CLKBUF_X2
* cell instance $911 m0 *1 37.05,54.6
X$911 702 14 21 705 BUF_X1
* cell instance $912 m0 *1 37.62,54.6
X$912 693 14 21 706 BUF_X1
* cell instance $913 m0 *1 38.19,54.6
X$913 14 355 710 698 654 380 21 DFFR_X1
* cell instance $914 m0 *1 41.99,54.6
X$914 698 14 21 707 BUF_X1
* cell instance $915 m0 *1 42.56,54.6
X$915 708 14 21 703 BUF_X1
* cell instance $919 r0 *1 41.04,1.4
X$919 26 14 21 16 INV_X1
* cell instance $923 r0 *1 49.4,1.4
X$923 94 42 21 14 24 XNOR2_X1
* cell instance $924 r0 *1 50.54,1.4
X$924 19 18 14 21 23 XOR2_X1
* cell instance $930 m0 *1 3.23,37.8
X$930 482 239 490 14 21 489 MUX2_X1
* cell instance $931 m0 *1 4.75,37.8
X$931 490 350 450 14 21 492 MUX2_X1
* cell instance $933 m0 *1 6.84,37.8
X$933 482 262 466 14 21 470 MUX2_X1
* cell instance $934 m0 *1 8.17,37.8
X$934 466 350 498 14 21 474 MUX2_X1
* cell instance $937 m0 *1 11.21,37.8
X$937 482 14 21 90 BUF_X2
* cell instance $938 m0 *1 11.97,37.8
X$938 482 238 483 14 21 494 MUX2_X1
* cell instance $939 m0 *1 13.3,37.8
X$939 483 331 499 14 21 484 MUX2_X1
* cell instance $942 m0 *1 19.57,37.8
X$942 500 350 485 14 21 497 MUX2_X1
* cell instance $946 m0 *1 2.09,37.8
X$946 465 14 21 482 CLKBUF_X2
* cell instance $954 r0 *1 7.98,37.8
X$954 498 205 90 14 21 508 MUX2_X1
* cell instance $957 r0 *1 11.21,37.8
X$957 499 289 90 14 21 519 MUX2_X1
* cell instance $959 r0 *1 19.38,37.8
X$959 486 239 500 14 21 523 MUX2_X1
* cell instance $961 m0 *1 21.47,37.8
X$961 394 349 497 14 21 511 MUX2_X1
* cell instance $965 m0 *1 23.75,37.8
X$965 482 306 480 14 21 468 MUX2_X1
* cell instance $968 r0 *1 21.85,37.8
X$968 524 349 525 14 21 510 MUX2_X1
* cell instance $969 r0 *1 23.18,37.8
X$969 391 511 408 510 14 21 501 AOI22_X1
* cell instance $970 r0 *1 24.13,37.8
X$970 513 321 502 14 21 525 MUX2_X1
* cell instance $972 m0 *1 25.46,37.8
X$972 502 289 59 14 21 503 MUX2_X1
* cell instance $974 m0 *1 30.97,37.8
X$974 482 235 496 14 21 481 MUX2_X1
* cell instance $979 r0 *1 29.26,37.8
X$979 482 237 504 14 21 509 MUX2_X1
* cell instance $981 r0 *1 30.97,37.8
X$981 504 514 496 14 21 451 MUX2_X1
* cell instance $984 r0 *1 32.87,37.8
X$984 59 284 529 14 21 528 MUX2_X1
* cell instance $985 r0 *1 34.2,37.8
X$985 486 306 505 14 21 531 MUX2_X1
* cell instance $987 m0 *1 34.2,37.8
X$987 486 14 21 59 BUF_X2
* cell instance $991 m0 *1 37.62,37.8
X$991 321 70 352 14 21 526 NAND3_X1
* cell instance $992 m0 *1 38.95,37.8
X$992 14 355 493 380 506 487 21 DFFR_X2
* cell instance $994 m0 *1 43.13,37.8
X$994 343 491 14 21 522 XOR2_X1
* cell instance $997 m0 *1 48.07,37.8
X$997 14 355 721 507 488 380 21 DFFR_X1
* cell instance $1005 r0 *1 41.61,37.8
X$1005 526 506 21 439 14 XOR2_X2
* cell instance $1006 r0 *1 43.32,37.8
X$1006 14 355 522 380 755 343 21 DFFR_X2
* cell instance $1009 r0 *1 48.45,37.8
X$1009 455 507 21 518 14 XOR2_X2
* cell instance $1010 r0 *1 50.16,37.8
X$1010 14 355 517 765 507 380 21 DFFR_X1
* cell instance $1017 m0 *1 1.52,51.8
X$1017 669 14 21 600 CLKBUF_X2
* cell instance $1023 m0 *1 17.48,51.8
X$1023 689 331 671 14 21 624 MUX2_X1
* cell instance $1024 m0 *1 18.81,51.8
X$1024 671 289 57 14 21 684 MUX2_X1
* cell instance $1026 m0 *1 23.18,51.8
X$1026 600 306 672 14 21 685 MUX2_X1
* cell instance $1027 m0 *1 24.51,51.8
X$1027 603 306 673 14 21 691 MUX2_X1
* cell instance $1028 m0 *1 32.3,51.8
X$1028 600 235 604 14 21 679 MUX2_X1
* cell instance $1029 m0 *1 33.63,51.8
X$1029 600 237 630 14 21 668 MUX2_X1
* cell instance $1038 r0 *1 11.21,51.8
X$1038 681 289 128 14 21 687 MUX2_X1
* cell instance $1039 r0 *1 12.54,51.8
X$1039 662 331 681 14 21 682 MUX2_X1
* cell instance $1041 r0 *1 14.25,51.8
X$1041 603 262 683 14 21 688 MUX2_X1
* cell instance $1043 r0 *1 16.34,51.8
X$1043 603 238 689 14 21 697 MUX2_X1
* cell instance $1051 r0 *1 36.86,51.8
X$1051 702 14 21 675 INV_X1
* cell instance $1052 m0 *1 37.24,51.8
X$1052 14 355 713 693 652 380 21 DFFR_X1
* cell instance $1053 m0 *1 36.86,51.8
X$1053 693 14 21 674 INV_X1
* cell instance $1055 r0 *1 37.24,51.8
X$1055 14 355 736 702 653 380 21 DFFR_X1
* cell instance $1057 m0 *1 41.61,51.8
X$1057 698 14 21 678 INV_X1
* cell instance $1061 r0 *1 41.8,51.8
X$1061 592 14 21 704 BUF_X1
* cell instance $1063 r0 *1 42.56,51.8
X$1063 695 703 14 21 429 NAND2_X2
* cell instance $1064 m0 *1 43.32,51.8
X$1064 14 355 717 696 291 380 21 DFFR_X1
* cell instance $1067 r0 *1 43.51,51.8
X$1067 692 14 21 695 INV_X1
* cell instance $1071 r0 *1 46.36,51.8
X$1071 14 355 742 694 696 380 21 DFFR_X1
* cell instance $1073 m0 *1 47.5,51.8
X$1073 520 694 21 656 14 XOR2_X2
* cell instance $1077 m0 *1 50.54,51.8
X$1077 14 692 676 355 380 21 DFFS_X1
* cell instance $1079 r0 *1 50.35,51.8
X$1079 14 355 753 690 699 380 21 DFFR_X1
* cell instance $1080 r0 *1 54.15,51.8
X$1080 690 14 21 686 BUF_X1
* cell instance $1088 m0 *1 5.89,26.6
X$1088 348 231 28 14 21 359 MUX2_X1
* cell instance $1091 m0 *1 8.93,26.6
X$1091 317 262 361 14 21 360 MUX2_X1
* cell instance $1092 m0 *1 10.26,26.6
X$1092 361 331 303 14 21 364 MUX2_X1
* cell instance $1104 r0 *1 5.13,26.6
X$1104 347 350 348 14 21 362 MUX2_X1
* cell instance $1109 r0 *1 11.78,26.6
X$1109 287 349 362 14 21 372 MUX2_X1
* cell instance $1110 m0 *1 15.96,26.6
X$1110 332 289 28 14 21 365 MUX2_X1
* cell instance $1113 m0 *1 18.24,26.6
X$1113 241 14 21 350 CLKBUF_X3
* cell instance $1114 m0 *1 19.19,26.6
X$1114 241 14 21 331 CLKBUF_X3
* cell instance $1115 m0 *1 20.14,26.6
X$1115 305 350 288 14 21 394 MUX2_X1
* cell instance $1116 m0 *1 24.7,26.6
X$1116 241 14 21 321 CLKBUF_X3
* cell instance $1118 m0 *1 29.64,26.6
X$1118 334 318 300 14 21 346 MUX2_X1
* cell instance $1120 m0 *1 31.73,26.6
X$1120 203 321 352 14 21 345 NOR3_X1
* cell instance $1121 m0 *1 32.49,26.6
X$1121 251 306 335 14 21 367 MUX2_X1
* cell instance $1124 r0 *1 13.49,26.6
X$1124 364 349 344 14 21 405 MUX2_X1
* cell instance $1129 r0 *1 22.23,26.6
X$1129 317 306 353 14 21 333 MUX2_X1
* cell instance $1130 r0 *1 23.56,26.6
X$1130 328 352 353 14 21 374 MUX2_X1
* cell instance $1134 r0 *1 26.98,26.6
X$1134 202 14 21 100 CLKBUF_X3
* cell instance $1139 r0 *1 34.01,26.6
X$1139 336 337 366 14 21 358 MUX2_X1
* cell instance $1140 m0 *1 35.53,26.6
X$1140 339 345 341 340 14 21 366 NOR4_X1
* cell instance $1141 m0 *1 34.2,26.6
X$1141 335 202 342 14 21 338 MUX2_X1
* cell instance $1142 m0 *1 36.48,26.6
X$1142 352 14 21 323 INV_X1
* cell instance $1146 m0 *1 37.43,26.6
X$1146 251 235 342 14 21 363 MUX2_X1
* cell instance $1151 r0 *1 39.33,26.6
X$1151 14 355 738 216 378 380 21 DFFR_X1
* cell instance $1152 m0 *1 40.09,26.6
X$1152 379 21 318 14 BUF_X4
* cell instance $1162 r0 *1 43.32,26.6
X$1162 14 355 748 387 354 380 21 DFFR_X1
* cell instance $1165 r0 *1 49.02,26.6
X$1165 358 396 356 14 21 357 MUX2_X1
* cell instance $1166 r0 *1 50.35,26.6
X$1166 14 355 752 356 357 380 21 DFFR_X1
* cell instance $1167 r0 *1 54.15,26.6
X$1167 356 14 21 383 BUF_X1
* cell instance $1170 m0 *1 7.79,18.2
X$1170 228 241 223 14 21 242 MUX2_X1
* cell instance $1178 r0 *1 4.56,18.2
X$1178 128 240 255 14 21 273 MUX2_X1
* cell instance $1180 r0 *1 6.08,18.2
X$1180 255 241 214 14 21 275 MUX2_X1
* cell instance $1182 m0 *1 9.69,18.2
X$1182 34 240 244 14 21 215 MUX2_X1
* cell instance $1184 m0 *1 14.25,18.2
X$1184 245 229 34 14 21 259 MUX2_X1
* cell instance $1188 r0 *1 11.21,18.2
X$1188 243 229 28 14 21 278 MUX2_X1
* cell instance $1189 r0 *1 12.54,18.2
X$1189 244 241 245 14 21 263 MUX2_X1
* cell instance $1192 r0 *1 14.82,18.2
X$1192 246 229 57 14 21 279 MUX2_X1
* cell instance $1194 r0 *1 16.53,18.2
X$1194 247 241 246 14 21 281 MUX2_X1
* cell instance $1199 m0 *1 25.46,18.2
X$1199 248 229 155 14 21 260 MUX2_X1
* cell instance $1203 r0 *1 24.13,18.2
X$1203 155 240 265 14 21 283 MUX2_X1
* cell instance $1204 r0 *1 25.46,18.2
X$1204 249 241 230 14 21 267 MUX2_X1
* cell instance $1206 r0 *1 26.98,18.2
X$1206 251 262 249 14 21 250 MUX2_X1
* cell instance $1207 m0 *1 30.4,18.2