
* cell sequence_detector_fsm
* pin clk
* pin config_pattern[3]
* pin config_pattern[1]
* pin config_pattern[2]
* pin load_pattern
* pin serial_in
* pin enable
* pin rst_n
* pin pattern_detected
* pin config_pattern[0]
.SUBCKT sequence_detector_fsm 1 2 3 4 5 6 79 81 82 83
* net 1 clk
* net 2 config_pattern[3]
* net 3 config_pattern[1]
* net 4 config_pattern[2]
* net 5 load_pattern
* net 6 serial_in
* net 79 enable
* net 81 rst_n
* net 82 pattern_detected
* net 83 config_pattern[0]
* cell instance $6 r0 *1 57.5,19.04
X$6 7 1 46 15 15 7 sky130_fd_sc_hd__clkbuf_16
* cell instance $10 r0 *1 47.38,2.72
X$10 15 2 16 7 15 7 sky130_fd_sc_hd__clkbuf_1
* cell instance $12 r0 *1 50.6,2.72
X$12 15 3 11 7 15 7 sky130_fd_sc_hd__clkbuf_1
* cell instance $16 r0 *1 57.04,2.72
X$16 15 4 9 7 15 7 sky130_fd_sc_hd__clkbuf_1
* cell instance $19 r0 *1 48.76,2.72
X$19 15 5 10 7 15 7 sky130_fd_sc_hd__clkbuf_1
* cell instance $22 r0 *1 64.86,2.72
X$22 15 6 17 7 15 7 sky130_fd_sc_hd__clkbuf_1
* cell instance $63 r0 *1 52.44,2.72
X$63 7 19 9 8 10 15 15 7 sky130_fd_sc_hd__mux2_1
* cell instance $70 r0 *1 67.62,2.72
X$70 15 13 12 20 7 15 7 sky130_fd_sc_hd__nor2_1
* cell instance $116 m0 *1 47.38,8.16
X$116 7 18 8 42 19 15 15 7 sky130_fd_sc_hd__dfrtp_1
* cell instance $118 m0 *1 57.04,8.16
X$118 7 18 23 14 21 15 15 7 sky130_fd_sc_hd__dfrtp_1
* cell instance $119 m0 *1 66.24,8.16
X$119 7 18 26 14 20 15 15 7 sky130_fd_sc_hd__dfrtp_1
* cell instance $165 r0 *1 47.84,8.16
X$165 7 30 16 25 10 15 15 7 sky130_fd_sc_hd__mux2_1
* cell instance $166 r0 *1 51.98,8.16
X$166 15 10 15 7 13 7 sky130_fd_sc_hd__buf_4
* cell instance $168 r0 *1 58.42,8.16
X$168 15 13 22 21 7 15 7 sky130_fd_sc_hd__nor2_1
* cell instance $170 r0 *1 60.72,8.16
X$170 7 22 23 26 24 15 15 7 sky130_fd_sc_hd__mux2i_1
* cell instance $171 r0 *1 64.4,8.16
X$171 7 29 27 17 24 15 15 7 sky130_fd_sc_hd__mux2i_1
* cell instance $172 r0 *1 68.08,8.16
X$172 15 8 26 23 28 15 7 7 sky130_fd_sc_hd__nand3_1
* cell instance $178 r0 *1 70.84,8.16
X$178 7 18 27 14 31 15 15 7 sky130_fd_sc_hd__dfrtp_1
* cell instance $210 m0 *1 43.7,13.6
X$210 7 45 25 42 30 15 15 7 sky130_fd_sc_hd__dfstp_1
* cell instance $217 m0 *1 59.34,13.6
X$217 15 8 26 39 7 15 7 sky130_fd_sc_hd__nor2_1
* cell instance $218 m0 *1 60.72,13.6
X$218 15 23 25 15 32 7 7 sky130_fd_sc_hd__xor2_1
* cell instance $219 m0 *1 63.94,13.6
X$219 15 35 27 40 7 15 7 sky130_fd_sc_hd__nor2_1
* cell instance $220 m0 *1 65.32,13.6
X$220 15 17 41 15 33 7 7 sky130_fd_sc_hd__xor2_1
* cell instance $221 m0 *1 68.54,13.6
X$221 15 13 29 31 7 15 7 sky130_fd_sc_hd__nor2_1
* cell instance $222 m0 *1 69.92,13.6
X$222 7 12 26 27 24 15 15 7 sky130_fd_sc_hd__mux2i_1
* cell instance $223 m0 *1 73.6,13.6
X$223 15 26 8 38 15 7 7 sky130_fd_sc_hd__xnor2_1
* cell instance $258 r0 *1 45.08,13.6
X$258 7 46 42 15 15 7 sky130_fd_sc_hd__clkbuf_16
* cell instance $259 r0 *1 54.28,13.6
X$259 7 48 11 35 13 15 15 7 sky130_fd_sc_hd__mux2_1
* cell instance $261 r0 *1 58.88,13.6
X$261 15 26 8 41 34 7 15 7 sky130_fd_sc_hd__and3b_1
* cell instance $262 r0 *1 62.1,13.6
X$262 15 34 39 40 15 36 7 7 sky130_fd_sc_hd__o21ai_0
* cell instance $264 r0 *1 64.86,13.6
X$264 15 32 33 37 36 15 43 7 7 sky130_fd_sc_hd__a211o_1
* cell instance $266 r0 *1 68.54,13.6
X$266 15 35 27 38 37 15 7 7 sky130_fd_sc_hd__nand3_1
* cell instance $269 r0 *1 70.84,13.6
X$269 15 14 15 7 7 sky130_fd_sc_hd__clkinv_1
* cell instance $302 m0 *1 44.62,19.04
X$302 7 45 35 42 48 15 15 7 sky130_fd_sc_hd__dfstp_1
* cell instance $308 m0 *1 61.18,19.04
X$308 7 17 44 27 51 15 15 35 7 sky130_fd_sc_hd__or4b_1
* cell instance $310 m0 *1 65.32,19.04
X$310 15 74 44 28 47 7 15 7 sky130_fd_sc_hd__nor3_1
* cell instance $311 m0 *1 67.16,19.04
X$311 7 46 14 15 15 7 sky130_fd_sc_hd__clkbuf_16
* cell instance $356 r0 *1 45.54,19.04
X$356 15 45 7 18 15 7 sky130_fd_sc_hd__clkbuf_4
* cell instance $357 r0 *1 48.3,19.04
X$357 7 18 51 42 50 15 15 7 sky130_fd_sc_hd__dfrtp_1
* cell instance $358 r0 *1 66.7,19.04
X$358 15 49 47 41 25 55 15 7 7 sky130_fd_sc_hd__o211ai_1
* cell instance $364 r0 *1 70.84,19.04
X$364 15 8 35 49 7 15 7 sky130_fd_sc_hd__nor2b_1
* cell instance $396 m0 *1 43.24,24.48
X$396 7 45 41 42 58 15 15 7 sky130_fd_sc_hd__dfstp_1
* cell instance $399 m0 *1 55.2,24.48
X$399 15 13 52 50 7 15 7 sky130_fd_sc_hd__nor2_1
* cell instance $404 m0 *1 60.26,24.48
X$404 15 57 51 15 52 7 7 sky130_fd_sc_hd__xor2_1
* cell instance $405 m0 *1 63.48,24.48
X$405 15 13 63 24 56 7 15 7 sky130_fd_sc_hd__nand3b_1
* cell instance $406 m0 *1 66.24,24.48
X$406 15 56 43 55 7 15 53 7 sky130_fd_sc_hd__a21oi_1
* cell instance $408 m0 *1 69,24.48
X$408 7 18 54 14 53 15 15 7 sky130_fd_sc_hd__dfrtp_1
* cell instance $445 r0 *1 46,24.48
X$445 7 58 59 41 13 15 15 7 sky130_fd_sc_hd__mux2_1
* cell instance $450 r0 *1 62.1,24.48
X$450 15 51 60 62 15 7 7 sky130_fd_sc_hd__nand2_1
* cell instance $452 r0 *1 63.94,24.48
X$452 15 41 25 49 62 61 15 63 7 7 sky130_fd_sc_hd__o2111ai_1
* cell instance $494 m0 *1 47.38,29.92
X$494 7 18 64 42 73 15 15 7 sky130_fd_sc_hd__dfrtp_1
* cell instance $497 m0 *1 57.96,29.92
X$497 7 84 60 64 77 15 15 7 sky130_fd_sc_hd__ha_1
* cell instance $498 m0 *1 62.56,29.92
X$498 15 64 24 61 66 15 57 7 7 sky130_fd_sc_hd__nand4_1
* cell instance $500 m0 *1 66.7,29.92
X$500 15 69 61 15 65 7 7 sky130_fd_sc_hd__xor2_1
* cell instance $545 r0 *1 51.06,29.92
X$545 7 18 66 42 76 15 15 7 sky130_fd_sc_hd__dfrtp_1
* cell instance $546 r0 *1 60.26,29.92
X$546 7 85 67 64 66 15 15 7 sky130_fd_sc_hd__ha_1
* cell instance $549 r0 *1 67.16,29.92
X$549 15 24 67 69 15 7 7 sky130_fd_sc_hd__nand2_1
* cell instance $550 r0 *1 68.54,29.92
X$550 15 13 65 68 7 15 7 sky130_fd_sc_hd__nor2_1
* cell instance $554 r0 *1 70.84,29.92
X$554 7 18 61 14 68 15 15 7 sky130_fd_sc_hd__dfrtp_1
* cell instance $588 m0 *1 48.76,35.36
X$588 15 13 70 73 7 15 7 sky130_fd_sc_hd__nor2_1
* cell instance $591 m0 *1 52.44,35.36
X$591 15 13 71 76 7 15 7 sky130_fd_sc_hd__nor2_1
* cell instance $595 m0 *1 57.04,35.36
X$595 15 64 24 70 15 7 7 sky130_fd_sc_hd__xnor2_1
* cell instance $596 m0 *1 60.26,35.36
X$596 7 78 72 75 66 15 15 7 sky130_fd_sc_hd__ha_1
* cell instance $597 m0 *1 64.86,35.36
X$597 15 64 15 7 75 7 sky130_fd_sc_hd__inv_1
* cell instance $598 m0 *1 66.24,35.36
X$598 7 74 67 72 61 15 15 7 sky130_fd_sc_hd__mux2i_1
* cell instance $667 r0 *1 56.58,35.36
X$667 7 71 78 77 24 15 15 7 sky130_fd_sc_hd__mux2_1
* cell instance $670 r0 *1 60.72,35.36
X$670 15 66 15 7 77 7 sky130_fd_sc_hd__inv_1
* cell instance $686 m0 *1 74.98,40.8
X$686 15 79 15 7 24 7 sky130_fd_sc_hd__buf_4
* cell instance $814 m0 *1 1.38,51.68
X$814 15 81 15 80 7 7 sky130_fd_sc_hd__dlygate4sd3_1
* cell instance $815 m0 *1 5.06,51.68
X$815 15 80 15 7 45 7 sky130_fd_sc_hd__clkbuf_2
* cell instance $896 m0 *1 101.2,51.68
X$896 15 54 82 7 15 7 sky130_fd_sc_hd__clkbuf_1
* cell instance $907 r0 *1 1.38,51.68
X$907 7 59 83 15 15 7 sky130_fd_sc_hd__dlymetal6s2s_1
.ENDS sequence_detector_fsm

* cell sky130_fd_sc_hd__a21oi_1
* pin VPB
* pin B1
* pin A1
* pin A2
* pin VGND
* pin VPWR
* pin Y
* pin 
.SUBCKT sky130_fd_sc_hd__a21oi_1 1 2 3 4 5 7 8 9
* net 1 VPB
* net 2 B1
* net 3 A1
* net 4 A2
* net 5 VGND
* net 7 VPWR
* net 8 Y
* device instance $1 r0 *1 0.49,1.985 pfet_01v8_hvt
M$1 6 2 8 1 pfet_01v8_hvt L=150000U W=1000000U AS=265000000000P
+ AD=140000000000P PS=2530000U PD=1280000U
* device instance $2 r0 *1 0.92,1.985 pfet_01v8_hvt
M$2 7 3 6 1 pfet_01v8_hvt L=150000U W=1000000U AS=140000000000P
+ AD=147500000000P PS=1280000U PD=1295000U
* device instance $3 r0 *1 1.365,1.985 pfet_01v8_hvt
M$3 6 4 7 1 pfet_01v8_hvt L=150000U W=1000000U AS=147500000000P
+ AD=265000000000P PS=1295000U PD=2530000U
* device instance $4 r0 *1 0.49,0.56 nfet_01v8
M$4 8 2 5 9 nfet_01v8 L=150000U W=650000U AS=172250000000P AD=91000000000P
+ PS=1830000U PD=930000U
* device instance $5 r0 *1 0.92,0.56 nfet_01v8
M$5 10 3 8 9 nfet_01v8 L=150000U W=650000U AS=91000000000P AD=95875000000P
+ PS=930000U PD=945000U
* device instance $6 r0 *1 1.365,0.56 nfet_01v8
M$6 5 4 10 9 nfet_01v8 L=150000U W=650000U AS=95875000000P AD=172250000000P
+ PS=945000U PD=1830000U
.ENDS sky130_fd_sc_hd__a21oi_1

* cell sky130_fd_sc_hd__nand3b_1
* pin VPB
* pin A_N
* pin C
* pin B
* pin Y
* pin VGND
* pin VPWR
* pin 
.SUBCKT sky130_fd_sc_hd__nand3b_1 1 2 3 4 5 7 8 9
* net 1 VPB
* net 2 A_N
* net 3 C
* net 4 B
* net 5 Y
* net 7 VGND
* net 8 VPWR
* device instance $1 r0 *1 0.6,1.695 pfet_01v8_hvt
M$1 8 2 6 1 pfet_01v8_hvt L=150000U W=420000U AS=109200000000P AD=145750000000P
+ PS=1360000U PD=1335000U
* device instance $2 r0 *1 1.085,1.985 pfet_01v8_hvt
M$2 5 3 8 1 pfet_01v8_hvt L=150000U W=1000000U AS=145750000000P
+ AD=135000000000P PS=1335000U PD=1270000U
* device instance $3 r0 *1 1.505,1.985 pfet_01v8_hvt
M$3 8 4 5 1 pfet_01v8_hvt L=150000U W=1000000U AS=135000000000P
+ AD=192500000000P PS=1270000U PD=1385000U
* device instance $4 r0 *1 2.04,1.985 pfet_01v8_hvt
M$4 5 6 8 1 pfet_01v8_hvt L=150000U W=1000000U AS=192500000000P
+ AD=280000000000P PS=1385000U PD=2560000U
* device instance $5 r0 *1 0.6,0.675 nfet_01v8
M$5 6 2 7 9 nfet_01v8 L=150000U W=420000U AS=100250000000P AD=109200000000P
+ PS=985000U PD=1360000U
* device instance $6 r0 *1 1.085,0.56 nfet_01v8
M$6 11 3 7 9 nfet_01v8 L=150000U W=650000U AS=100250000000P AD=87750000000P
+ PS=985000U PD=920000U
* device instance $7 r0 *1 1.505,0.56 nfet_01v8
M$7 10 4 11 9 nfet_01v8 L=150000U W=650000U AS=87750000000P AD=125125000000P
+ PS=920000U PD=1035000U
* device instance $8 r0 *1 2.04,0.56 nfet_01v8
M$8 5 6 10 9 nfet_01v8 L=150000U W=650000U AS=125125000000P AD=182000000000P
+ PS=1035000U PD=1860000U
.ENDS sky130_fd_sc_hd__nand3b_1

* cell sky130_fd_sc_hd__o2111ai_1
* pin VPB
* pin D1
* pin C1
* pin B1
* pin A2
* pin A1
* pin VPWR
* pin Y
* pin VGND
* pin 
.SUBCKT sky130_fd_sc_hd__o2111ai_1 1 2 3 4 5 6 8 9 10 11
* net 1 VPB
* net 2 D1
* net 3 C1
* net 4 B1
* net 5 A2
* net 6 A1
* net 8 VPWR
* net 9 Y
* net 10 VGND
* device instance $1 r0 *1 0.67,1.985 pfet_01v8_hvt
M$1 9 2 8 1 pfet_01v8_hvt L=150000U W=1000000U AS=265000000000P
+ AD=140000000000P PS=2530000U PD=1280000U
* device instance $2 r0 *1 1.1,1.985 pfet_01v8_hvt
M$2 8 3 9 1 pfet_01v8_hvt L=150000U W=1000000U AS=140000000000P
+ AD=195000000000P PS=1280000U PD=1390000U
* device instance $3 r0 *1 1.64,1.985 pfet_01v8_hvt
M$3 9 4 8 1 pfet_01v8_hvt L=150000U W=1000000U AS=195000000000P
+ AD=202500000000P PS=1390000U PD=1405000U
* device instance $4 r0 *1 2.195,1.985 pfet_01v8_hvt
M$4 12 5 9 1 pfet_01v8_hvt L=150000U W=1000000U AS=202500000000P
+ AD=195000000000P PS=1405000U PD=1390000U
* device instance $5 r0 *1 2.735,1.985 pfet_01v8_hvt
M$5 8 6 12 1 pfet_01v8_hvt L=150000U W=1000000U AS=195000000000P
+ AD=265000000000P PS=1390000U PD=2530000U
* device instance $6 r0 *1 0.74,0.56 nfet_01v8
M$6 14 2 9 11 nfet_01v8 L=150000U W=650000U AS=172250000000P AD=68250000000P
+ PS=1830000U PD=860000U
* device instance $7 r0 *1 1.1,0.56 nfet_01v8
M$7 13 3 14 11 nfet_01v8 L=150000U W=650000U AS=68250000000P AD=126750000000P
+ PS=860000U PD=1040000U
* device instance $8 r0 *1 1.64,0.56 nfet_01v8
M$8 7 4 13 11 nfet_01v8 L=150000U W=650000U AS=126750000000P AD=131625000000P
+ PS=1040000U PD=1055000U
* device instance $9 r0 *1 2.195,0.56 nfet_01v8
M$9 10 5 7 11 nfet_01v8 L=150000U W=650000U AS=131625000000P AD=126750000000P
+ PS=1055000U PD=1040000U
* device instance $10 r0 *1 2.735,0.56 nfet_01v8
M$10 7 6 10 11 nfet_01v8 L=150000U W=650000U AS=126750000000P AD=172250000000P
+ PS=1040000U PD=1830000U
.ENDS sky130_fd_sc_hd__o2111ai_1

* cell sky130_fd_sc_hd__o211ai_1
* pin VPB
* pin A1
* pin A2
* pin B1
* pin C1
* pin Y
* pin VPWR
* pin VGND
* pin 
.SUBCKT sky130_fd_sc_hd__o211ai_1 1 2 3 4 5 7 8 9 10
* net 1 VPB
* net 2 A1
* net 3 A2
* net 4 B1
* net 5 C1
* net 7 Y
* net 8 VPWR
* net 9 VGND
* device instance $1 r0 *1 0.475,1.985 pfet_01v8_hvt
M$1 11 2 8 1 pfet_01v8_hvt L=150000U W=1000000U AS=265000000000P
+ AD=105000000000P PS=2530000U PD=1210000U
* device instance $2 r0 *1 0.835,1.985 pfet_01v8_hvt
M$2 7 3 11 1 pfet_01v8_hvt L=150000U W=1000000U AS=105000000000P
+ AD=195000000000P PS=1210000U PD=1390000U
* device instance $3 r0 *1 1.375,1.985 pfet_01v8_hvt
M$3 8 4 7 1 pfet_01v8_hvt L=150000U W=1000000U AS=195000000000P
+ AD=195000000000P PS=1390000U PD=1390000U
* device instance $4 r0 *1 1.915,1.985 pfet_01v8_hvt
M$4 7 5 8 1 pfet_01v8_hvt L=150000U W=1000000U AS=195000000000P
+ AD=635000000000P PS=1390000U PD=3270000U
* device instance $5 r0 *1 0.475,0.56 nfet_01v8
M$5 9 2 6 10 nfet_01v8 L=150000U W=650000U AS=172250000000P AD=126750000000P
+ PS=1830000U PD=1040000U
* device instance $6 r0 *1 1.015,0.56 nfet_01v8
M$6 6 3 9 10 nfet_01v8 L=150000U W=650000U AS=126750000000P AD=126750000000P
+ PS=1040000U PD=1040000U
* device instance $7 r0 *1 1.555,0.56 nfet_01v8
M$7 12 4 6 10 nfet_01v8 L=150000U W=650000U AS=126750000000P AD=68250000000P
+ PS=1040000U PD=860000U
* device instance $8 r0 *1 1.915,0.56 nfet_01v8
M$8 7 5 12 10 nfet_01v8 L=150000U W=650000U AS=68250000000P AD=393250000000P
+ PS=860000U PD=2510000U
.ENDS sky130_fd_sc_hd__o211ai_1

* cell sky130_fd_sc_hd__nand4_1
* pin VPB
* pin C
* pin A
* pin B
* pin D
* pin VPWR
* pin Y
* pin VGND
* pin 
.SUBCKT sky130_fd_sc_hd__nand4_1 1 2 3 4 5 6 7 8 9
* net 1 VPB
* net 2 C
* net 3 A
* net 4 B
* net 5 D
* net 6 VPWR
* net 7 Y
* net 8 VGND
* device instance $1 r0 *1 0.47,1.985 pfet_01v8_hvt
M$1 7 5 6 1 pfet_01v8_hvt L=150000U W=1000000U AS=260000000000P
+ AD=135000000000P PS=2520000U PD=1270000U
* device instance $2 r0 *1 0.89,1.985 pfet_01v8_hvt
M$2 6 2 7 1 pfet_01v8_hvt L=150000U W=1000000U AS=135000000000P
+ AD=135000000000P PS=1270000U PD=1270000U
* device instance $3 r0 *1 1.31,1.985 pfet_01v8_hvt
M$3 7 4 6 1 pfet_01v8_hvt L=150000U W=1000000U AS=135000000000P
+ AD=165000000000P PS=1270000U PD=1330000U
* device instance $4 r0 *1 1.79,1.985 pfet_01v8_hvt
M$4 6 3 7 1 pfet_01v8_hvt L=150000U W=1000000U AS=165000000000P
+ AD=300000000000P PS=1330000U PD=2600000U
* device instance $5 r0 *1 0.47,0.56 nfet_01v8
M$5 12 5 8 9 nfet_01v8 L=150000U W=650000U AS=169000000000P AD=87750000000P
+ PS=1820000U PD=920000U
* device instance $6 r0 *1 0.89,0.56 nfet_01v8
M$6 11 2 12 9 nfet_01v8 L=150000U W=650000U AS=87750000000P AD=87750000000P
+ PS=920000U PD=920000U
* device instance $7 r0 *1 1.31,0.56 nfet_01v8
M$7 10 4 11 9 nfet_01v8 L=150000U W=650000U AS=87750000000P AD=107250000000P
+ PS=920000U PD=980000U
* device instance $8 r0 *1 1.79,0.56 nfet_01v8
M$8 7 3 10 9 nfet_01v8 L=150000U W=650000U AS=107250000000P AD=195000000000P
+ PS=980000U PD=1900000U
.ENDS sky130_fd_sc_hd__nand4_1

* cell sky130_fd_sc_hd__xor2_1
* pin VPB
* pin B
* pin A
* pin VPWR
* pin X
* pin VGND
* pin 
.SUBCKT sky130_fd_sc_hd__xor2_1 1 2 3 6 7 8 9
* net 1 VPB
* net 2 B
* net 3 A
* net 6 VPWR
* net 7 X
* net 8 VGND
* device instance $1 r0 *1 2.71,1.985 pfet_01v8_hvt
M$1 7 4 5 1 pfet_01v8_hvt L=150000U W=1000000U AS=260000000000P
+ AD=300000000000P PS=2520000U PD=2600000U
* device instance $2 r0 *1 0.51,1.985 pfet_01v8_hvt
M$2 10 2 4 1 pfet_01v8_hvt L=150000U W=1000000U AS=260000000000P
+ AD=135000000000P PS=2520000U PD=1270000U
* device instance $3 r0 *1 0.93,1.985 pfet_01v8_hvt
M$3 6 3 10 1 pfet_01v8_hvt L=150000U W=1000000U AS=135000000000P
+ AD=135000000000P PS=1270000U PD=1270000U
* device instance $4 r0 *1 1.35,1.985 pfet_01v8_hvt
M$4 5 3 6 1 pfet_01v8_hvt L=150000U W=1000000U AS=135000000000P
+ AD=135000000000P PS=1270000U PD=1270000U
* device instance $5 r0 *1 1.77,1.985 pfet_01v8_hvt
M$5 6 2 5 1 pfet_01v8_hvt L=150000U W=1000000U AS=135000000000P
+ AD=260000000000P PS=1270000U PD=2520000U
* device instance $6 r0 *1 0.51,0.56 nfet_01v8
M$6 4 2 8 9 nfet_01v8 L=150000U W=650000U AS=169000000000P AD=87750000000P
+ PS=1820000U PD=920000U
* device instance $7 r0 *1 0.93,0.56 nfet_01v8
M$7 8 3 4 9 nfet_01v8 L=150000U W=650000U AS=87750000000P AD=87750000000P
+ PS=920000U PD=920000U
* device instance $8 r0 *1 1.35,0.56 nfet_01v8
M$8 11 3 8 9 nfet_01v8 L=150000U W=650000U AS=87750000000P AD=87750000000P
+ PS=920000U PD=920000U
* device instance $9 r0 *1 1.77,0.56 nfet_01v8
M$9 7 2 11 9 nfet_01v8 L=150000U W=650000U AS=87750000000P AD=250250000000P
+ PS=920000U PD=1420000U
* device instance $10 r0 *1 2.69,0.56 nfet_01v8
M$10 8 4 7 9 nfet_01v8 L=150000U W=650000U AS=250250000000P AD=208000000000P
+ PS=1420000U PD=1940000U
.ENDS sky130_fd_sc_hd__xor2_1

* cell sky130_fd_sc_hd__clkinv_1
* pin VPB
* pin A
* pin VPWR
* pin VGND
* pin 
.SUBCKT sky130_fd_sc_hd__clkinv_1 1 2 3 4 6
* net 1 VPB
* net 2 A
* net 3 VPWR
* net 4 VGND
* net 5 Y
* device instance $1 r0 *1 0.47,2.065 pfet_01v8_hvt
M$1 5 2 3 1 pfet_01v8_hvt L=150000U W=1680000U AS=331800000000P
+ AD=348600000000P PS=3310000U PD=3350000U
* device instance $3 r0 *1 0.885,0.445 nfet_01v8
M$3 4 2 5 6 nfet_01v8 L=150000U W=420000U AS=109200000000P AD=119700000000P
+ PS=1360000U PD=1410000U
.ENDS sky130_fd_sc_hd__clkinv_1

* cell sky130_fd_sc_hd__nor3_1
* pin VPB
* pin A
* pin B
* pin C
* pin Y
* pin VGND
* pin VPWR
* pin 
.SUBCKT sky130_fd_sc_hd__nor3_1 1 2 3 4 5 6 7 8
* net 1 VPB
* net 2 A
* net 3 B
* net 4 C
* net 5 Y
* net 6 VGND
* net 7 VPWR
* device instance $1 r0 *1 0.47,1.985 pfet_01v8_hvt
M$1 10 4 5 1 pfet_01v8_hvt L=150000U W=1000000U AS=260000000000P
+ AD=135000000000P PS=2520000U PD=1270000U
* device instance $2 r0 *1 0.89,1.985 pfet_01v8_hvt
M$2 9 3 10 1 pfet_01v8_hvt L=150000U W=1000000U AS=135000000000P
+ AD=135000000000P PS=1270000U PD=1270000U
* device instance $3 r0 *1 1.31,1.985 pfet_01v8_hvt
M$3 7 2 9 1 pfet_01v8_hvt L=150000U W=1000000U AS=135000000000P
+ AD=260000000000P PS=1270000U PD=2520000U
* device instance $4 r0 *1 0.47,0.56 nfet_01v8
M$4 6 4 5 8 nfet_01v8 L=150000U W=650000U AS=169000000000P AD=87750000000P
+ PS=1820000U PD=920000U
* device instance $5 r0 *1 0.89,0.56 nfet_01v8
M$5 5 3 6 8 nfet_01v8 L=150000U W=650000U AS=87750000000P AD=87750000000P
+ PS=920000U PD=920000U
* device instance $6 r0 *1 1.31,0.56 nfet_01v8
M$6 6 2 5 8 nfet_01v8 L=150000U W=650000U AS=87750000000P AD=169000000000P
+ PS=920000U PD=1820000U
.ENDS sky130_fd_sc_hd__nor3_1

* cell sky130_fd_sc_hd__or4b_1
* pin VGND
* pin D_N
* pin X
* pin C
* pin A
* pin VPWR
* pin VPB
* pin B
* pin 
.SUBCKT sky130_fd_sc_hd__or4b_1 1 2 5 6 7 8 9 10 14
* net 1 VGND
* net 2 D_N
* net 5 X
* net 6 C
* net 7 A
* net 8 VPWR
* net 9 VPB
* net 10 B
* device instance $1 r0 *1 1.41,1.695 pfet_01v8_hvt
M$1 11 3 4 9 pfet_01v8_hvt L=150000U W=420000U AS=109200000000P AD=68250000000P
+ PS=1360000U PD=745000U
* device instance $2 r0 *1 1.885,1.695 pfet_01v8_hvt
M$2 13 6 11 9 pfet_01v8_hvt L=150000U W=420000U AS=68250000000P AD=45150000000P
+ PS=745000U PD=635000U
* device instance $3 r0 *1 2.25,1.695 pfet_01v8_hvt
M$3 12 10 13 9 pfet_01v8_hvt L=150000U W=420000U AS=45150000000P
+ AD=64050000000P PS=635000U PD=725000U
* device instance $4 r0 *1 2.705,1.695 pfet_01v8_hvt
M$4 8 7 12 9 pfet_01v8_hvt L=150000U W=420000U AS=64050000000P AD=148250000000P
+ PS=725000U PD=1340000U
* device instance $5 r0 *1 3.195,1.985 pfet_01v8_hvt
M$5 5 4 8 9 pfet_01v8_hvt L=150000U W=1000000U AS=148250000000P
+ AD=275000000000P PS=1340000U PD=2550000U
* device instance $6 r0 *1 0.47,1.695 pfet_01v8_hvt
M$6 3 2 8 9 pfet_01v8_hvt L=150000U W=420000U AS=109200000000P AD=109200000000P
+ PS=1360000U PD=1360000U
* device instance $7 r0 *1 1.41,0.475 nfet_01v8
M$7 4 3 1 14 nfet_01v8 L=150000U W=420000U AS=109200000000P AD=64050000000P
+ PS=1360000U PD=725000U
* device instance $8 r0 *1 1.865,0.475 nfet_01v8
M$8 1 6 4 14 nfet_01v8 L=150000U W=420000U AS=64050000000P AD=56700000000P
+ PS=725000U PD=690000U
* device instance $9 r0 *1 2.285,0.475 nfet_01v8
M$9 4 10 1 14 nfet_01v8 L=150000U W=420000U AS=56700000000P AD=56700000000P
+ PS=690000U PD=690000U
* device instance $10 r0 *1 2.705,0.475 nfet_01v8
M$10 4 7 1 14 nfet_01v8 L=150000U W=420000U AS=101875000000P AD=56700000000P
+ PS=990000U PD=690000U
* device instance $11 r0 *1 3.195,0.56 nfet_01v8
M$11 5 4 1 14 nfet_01v8 L=150000U W=650000U AS=101875000000P AD=178750000000P
+ PS=990000U PD=1850000U
* device instance $12 r0 *1 0.47,0.475 nfet_01v8
M$12 3 2 1 14 nfet_01v8 L=150000U W=420000U AS=109200000000P AD=109200000000P
+ PS=1360000U PD=1360000U
.ENDS sky130_fd_sc_hd__or4b_1

* cell sky130_fd_sc_hd__nor2b_1
* pin VPB
* pin A
* pin B_N
* pin Y
* pin VGND
* pin VPWR
* pin 
.SUBCKT sky130_fd_sc_hd__nor2b_1 1 2 3 4 6 7 8
* net 1 VPB
* net 2 A
* net 3 B_N
* net 4 Y
* net 6 VGND
* net 7 VPWR
* device instance $1 r0 *1 0.71,1.695 pfet_01v8_hvt
M$1 7 3 5 1 pfet_01v8_hvt L=150000U W=420000U AS=109200000000P AD=157300000000P
+ PS=1360000U PD=1390000U
* device instance $2 r0 *1 1.25,1.985 pfet_01v8_hvt
M$2 9 2 7 1 pfet_01v8_hvt L=150000U W=1000000U AS=157300000000P
+ AD=105000000000P PS=1390000U PD=1210000U
* device instance $3 r0 *1 1.61,1.985 pfet_01v8_hvt
M$3 4 5 9 1 pfet_01v8_hvt L=150000U W=1000000U AS=105000000000P
+ AD=260000000000P PS=1210000U PD=2520000U
* device instance $4 r0 *1 0.705,0.445 nfet_01v8
M$4 6 3 5 8 nfet_01v8 L=150000U W=420000U AS=109200000000P AD=100250000000P
+ PS=1360000U PD=985000U
* device instance $5 r0 *1 1.19,0.56 nfet_01v8
M$5 4 2 6 8 nfet_01v8 L=150000U W=650000U AS=100250000000P AD=87750000000P
+ PS=985000U PD=920000U
* device instance $6 r0 *1 1.61,0.56 nfet_01v8
M$6 6 5 4 8 nfet_01v8 L=150000U W=650000U AS=87750000000P AD=169000000000P
+ PS=920000U PD=1820000U
.ENDS sky130_fd_sc_hd__nor2b_1

* cell sky130_fd_sc_hd__a211o_1
* pin VPB
* pin B1
* pin C1
* pin A1
* pin A2
* pin VPWR
* pin X
* pin VGND
* pin 
.SUBCKT sky130_fd_sc_hd__a211o_1 1 2 3 4 5 7 8 9 11
* net 1 VPB
* net 2 B1
* net 3 C1
* net 4 A1
* net 5 A2
* net 7 VPWR
* net 8 X
* net 9 VGND
* device instance $1 r0 *1 1.425,1.985 pfet_01v8_hvt
M$1 7 5 10 1 pfet_01v8_hvt L=150000U W=1000000U AS=265000000000P
+ AD=140000000000P PS=2530000U PD=1280000U
* device instance $2 r0 *1 1.855,1.985 pfet_01v8_hvt
M$2 10 4 7 1 pfet_01v8_hvt L=150000U W=1000000U AS=140000000000P
+ AD=140000000000P PS=1280000U PD=1280000U
* device instance $3 r0 *1 2.285,1.985 pfet_01v8_hvt
M$3 12 2 10 1 pfet_01v8_hvt L=150000U W=1000000U AS=140000000000P
+ AD=155000000000P PS=1280000U PD=1310000U
* device instance $4 r0 *1 2.745,1.985 pfet_01v8_hvt
M$4 6 3 12 1 pfet_01v8_hvt L=150000U W=1000000U AS=155000000000P
+ AD=265000000000P PS=1310000U PD=2530000U
* device instance $5 r0 *1 0.475,1.985 pfet_01v8_hvt
M$5 7 6 8 1 pfet_01v8_hvt L=150000U W=1000000U AS=265000000000P
+ AD=265000000000P PS=2530000U PD=2530000U
* device instance $6 r0 *1 0.475,0.56 nfet_01v8
M$6 9 6 8 11 nfet_01v8 L=150000U W=650000U AS=172250000000P AD=260000000000P
+ PS=1830000U PD=1450000U
* device instance $7 r0 *1 1.425,0.56 nfet_01v8
M$7 13 5 9 11 nfet_01v8 L=150000U W=650000U AS=260000000000P AD=91000000000P
+ PS=1450000U PD=930000U
* device instance $8 r0 *1 1.855,0.56 nfet_01v8
M$8 6 4 13 11 nfet_01v8 L=150000U W=650000U AS=91000000000P AD=91000000000P
+ PS=930000U PD=930000U
* device instance $9 r0 *1 2.285,0.56 nfet_01v8
M$9 9 2 6 11 nfet_01v8 L=150000U W=650000U AS=91000000000P AD=100750000000P
+ PS=930000U PD=960000U
* device instance $10 r0 *1 2.745,0.56 nfet_01v8
M$10 6 3 9 11 nfet_01v8 L=150000U W=650000U AS=100750000000P AD=172250000000P
+ PS=960000U PD=1830000U
.ENDS sky130_fd_sc_hd__a211o_1

* cell sky130_fd_sc_hd__o21ai_0
* pin VPB
* pin A1
* pin A2
* pin B1
* pin VPWR
* pin Y
* pin VGND
* pin 
.SUBCKT sky130_fd_sc_hd__o21ai_0 1 2 3 4 5 6 8 9
* net 1 VPB
* net 2 A1
* net 3 A2
* net 4 B1
* net 5 VPWR
* net 6 Y
* net 8 VGND
* device instance $1 r0 *1 0.525,2.165 pfet_01v8_hvt
M$1 10 2 5 1 pfet_01v8_hvt L=150000U W=640000U AS=169600000000P AD=76800000000P
+ PS=1810000U PD=880000U
* device instance $2 r0 *1 0.915,2.165 pfet_01v8_hvt
M$2 6 3 10 1 pfet_01v8_hvt L=150000U W=640000U AS=76800000000P AD=89600000000P
+ PS=880000U PD=920000U
* device instance $3 r0 *1 1.345,2.165 pfet_01v8_hvt
M$3 5 4 6 1 pfet_01v8_hvt L=150000U W=640000U AS=89600000000P AD=182400000000P
+ PS=920000U PD=1850000U
* device instance $4 r0 *1 0.5,0.445 nfet_01v8
M$4 8 2 7 9 nfet_01v8 L=150000U W=420000U AS=111300000000P AD=58800000000P
+ PS=1370000U PD=700000U
* device instance $5 r0 *1 0.93,0.445 nfet_01v8
M$5 7 3 8 9 nfet_01v8 L=150000U W=420000U AS=58800000000P AD=58800000000P
+ PS=700000U PD=700000U
* device instance $6 r0 *1 1.36,0.445 nfet_01v8
M$6 6 4 7 9 nfet_01v8 L=150000U W=420000U AS=58800000000P AD=111300000000P
+ PS=700000U PD=1370000U
.ENDS sky130_fd_sc_hd__o21ai_0

* cell sky130_fd_sc_hd__and3b_1
* pin VPB
* pin C
* pin B
* pin A_N
* pin X
* pin VGND
* pin VPWR
* pin 
.SUBCKT sky130_fd_sc_hd__and3b_1 1 2 3 5 7 8 9 10
* net 1 VPB
* net 2 C
* net 3 B
* net 5 A_N
* net 7 X
* net 8 VGND
* net 9 VPWR
* device instance $1 r0 *1 2.275,1.695 pfet_01v8_hvt
M$1 9 2 6 1 pfet_01v8_hvt L=150000U W=420000U AS=74375000000P AD=142225000000P
+ PS=815000U PD=1335000U
* device instance $2 r0 *1 1.38,1.765 pfet_01v8_hvt
M$2 9 4 6 1 pfet_01v8_hvt L=150000U W=420000U AS=108500000000P AD=56700000000P
+ PS=1360000U PD=690000U
* device instance $3 r0 *1 1.8,1.765 pfet_01v8_hvt
M$3 9 3 6 1 pfet_01v8_hvt L=150000U W=420000U AS=74375000000P AD=56700000000P
+ PS=815000U PD=690000U
* device instance $4 r0 *1 2.75,1.985 pfet_01v8_hvt
M$4 7 6 9 1 pfet_01v8_hvt L=150000U W=1000000U AS=142225000000P
+ AD=260000000000P PS=1335000U PD=2520000U
* device instance $5 r0 *1 0.47,2.275 pfet_01v8_hvt
M$5 4 5 9 1 pfet_01v8_hvt L=150000U W=420000U AS=109200000000P AD=108700000000P
+ PS=1360000U PD=1360000U
* device instance $6 r0 *1 1.405,0.475 nfet_01v8
M$6 12 4 6 10 nfet_01v8 L=150000U W=420000U AS=107825000000P AD=44100000000P
+ PS=1360000U PD=630000U
* device instance $7 r0 *1 1.765,0.475 nfet_01v8
M$7 11 3 12 10 nfet_01v8 L=150000U W=420000U AS=44100000000P AD=53550000000P
+ PS=630000U PD=675000U
* device instance $8 r0 *1 2.17,0.475 nfet_01v8
M$8 11 2 8 10 nfet_01v8 L=150000U W=420000U AS=122275000000P AD=53550000000P
+ PS=1080000U PD=675000U
* device instance $9 r0 *1 2.75,0.56 nfet_01v8
M$9 7 6 8 10 nfet_01v8 L=150000U W=650000U AS=122275000000P AD=169000000000P
+ PS=1080000U PD=1820000U
* device instance $10 r0 *1 0.47,0.675 nfet_01v8
M$10 4 5 8 10 nfet_01v8 L=150000U W=420000U AS=109200000000P AD=107850000000P
+ PS=1360000U PD=1360000U
.ENDS sky130_fd_sc_hd__and3b_1

* cell sky130_fd_sc_hd__nand3_1
* pin VPB
* pin A
* pin B
* pin C
* pin Y
* pin VPWR
* pin VGND
* pin 
.SUBCKT sky130_fd_sc_hd__nand3_1 1 2 3 4 5 6 7 8
* net 1 VPB
* net 2 A
* net 3 B
* net 4 C
* net 5 Y
* net 6 VPWR
* net 7 VGND
* device instance $1 r0 *1 0.47,1.985 pfet_01v8_hvt
M$1 5 4 6 1 pfet_01v8_hvt L=150000U W=1000000U AS=260000000000P
+ AD=135000000000P PS=2520000U PD=1270000U
* device instance $2 r0 *1 0.89,1.985 pfet_01v8_hvt
M$2 6 3 5 1 pfet_01v8_hvt L=150000U W=1000000U AS=135000000000P
+ AD=165000000000P PS=1270000U PD=1330000U
* device instance $3 r0 *1 1.37,1.985 pfet_01v8_hvt
M$3 5 2 6 1 pfet_01v8_hvt L=150000U W=1000000U AS=165000000000P
+ AD=260000000000P PS=1330000U PD=2520000U
* device instance $4 r0 *1 0.47,0.56 nfet_01v8
M$4 10 4 7 8 nfet_01v8 L=150000U W=650000U AS=169000000000P AD=87750000000P
+ PS=1820000U PD=920000U
* device instance $5 r0 *1 0.89,0.56 nfet_01v8
M$5 9 3 10 8 nfet_01v8 L=150000U W=650000U AS=87750000000P AD=107250000000P
+ PS=920000U PD=980000U
* device instance $6 r0 *1 1.37,0.56 nfet_01v8
M$6 5 2 9 8 nfet_01v8 L=150000U W=650000U AS=107250000000P AD=169000000000P
+ PS=980000U PD=1820000U
.ENDS sky130_fd_sc_hd__nand3_1

* cell sky130_fd_sc_hd__inv_1
* pin VPB
* pin A
* pin VPWR
* pin VGND
* pin Y
* pin 
.SUBCKT sky130_fd_sc_hd__inv_1 1 2 3 4 5 6
* net 1 VPB
* net 2 A
* net 3 VPWR
* net 4 VGND
* net 5 Y
* device instance $1 r0 *1 0.675,1.985 pfet_01v8_hvt
M$1 5 2 3 1 pfet_01v8_hvt L=150000U W=1000000U AS=260000000000P
+ AD=260000000000P PS=2520000U PD=2520000U
* device instance $2 r0 *1 0.675,0.56 nfet_01v8
M$2 5 2 4 6 nfet_01v8 L=150000U W=650000U AS=169000000000P AD=169000000000P
+ PS=1820000U PD=1820000U
.ENDS sky130_fd_sc_hd__inv_1

* cell sky130_fd_sc_hd__mux2i_1
* pin VGND
* pin Y
* pin A0
* pin A1
* pin S
* pin VPWR
* pin VPB
* pin 
.SUBCKT sky130_fd_sc_hd__mux2i_1 1 3 6 7 8 10 11 13
* net 1 VGND
* net 3 Y
* net 6 A0
* net 7 A1
* net 8 S
* net 10 VPWR
* net 11 VPB
* device instance $1 r0 *1 3.21,1.985 pfet_01v8_hvt
M$1 10 8 5 11 pfet_01v8_hvt L=150000U W=1000000U AS=290000000000P
+ AD=260000000000P PS=2580000U PD=2520000U
* device instance $2 r0 *1 0.49,1.985 pfet_01v8_hvt
M$2 3 6 9 11 pfet_01v8_hvt L=150000U W=1000000U AS=280000000000P
+ AD=152500000000P PS=2560000U PD=1305000U
* device instance $3 r0 *1 0.945,1.985 pfet_01v8_hvt
M$3 12 7 3 11 pfet_01v8_hvt L=150000U W=1000000U AS=152500000000P
+ AD=197500000000P PS=1305000U PD=1395000U
* device instance $4 r0 *1 1.49,1.985 pfet_01v8_hvt
M$4 10 5 12 11 pfet_01v8_hvt L=150000U W=1000000U AS=197500000000P
+ AD=300000000000P PS=1395000U PD=1600000U
* device instance $5 r0 *1 2.24,1.985 pfet_01v8_hvt
M$5 9 8 10 11 pfet_01v8_hvt L=150000U W=1000000U AS=300000000000P
+ AD=260000000000P PS=1600000U PD=2520000U
* device instance $6 r0 *1 3.21,0.56 nfet_01v8
M$6 1 8 5 13 nfet_01v8 L=150000U W=650000U AS=169000000000P AD=169000000000P
+ PS=1820000U PD=1820000U
* device instance $7 r0 *1 1.85,0.56 nfet_01v8
M$7 1 5 2 13 nfet_01v8 L=150000U W=650000U AS=169000000000P AD=87750000000P
+ PS=1820000U PD=920000U
* device instance $8 r0 *1 2.27,0.56 nfet_01v8
M$8 4 8 1 13 nfet_01v8 L=150000U W=650000U AS=87750000000P AD=169000000000P
+ PS=920000U PD=1820000U
* device instance $9 r0 *1 0.47,0.56 nfet_01v8
M$9 3 6 2 13 nfet_01v8 L=150000U W=650000U AS=169000000000P AD=87750000000P
+ PS=1820000U PD=920000U
* device instance $10 r0 *1 0.89,0.56 nfet_01v8
M$10 4 7 3 13 nfet_01v8 L=150000U W=650000U AS=87750000000P AD=182000000000P
+ PS=920000U PD=1860000U
.ENDS sky130_fd_sc_hd__mux2i_1

* cell sky130_fd_sc_hd__nand2_1
* pin VPB
* pin A
* pin B
* pin Y
* pin VPWR
* pin VGND
* pin 
.SUBCKT sky130_fd_sc_hd__nand2_1 1 2 3 4 5 6 7
* net 1 VPB
* net 2 A
* net 3 B
* net 4 Y
* net 5 VPWR
* net 6 VGND
* device instance $1 r0 *1 0.49,1.985 pfet_01v8_hvt
M$1 4 3 5 1 pfet_01v8_hvt L=150000U W=1000000U AS=260000000000P