
* cell circular_buffer_fifo
* pin wr_data[0]
* pin rd_data[1]
* pin rd_data[3]
* pin wr_data[5]
* pin wr_data[6]
* pin rd_data[5]
* pin rd_data[6]
* pin rst_n
* pin rd_en
* pin fifo_count[4]
* pin almost_full
* pin empty
* pin full
* pin almost_empty
* pin rd_data[7]
* pin fifo_count[0]
* pin fifo_count[3]
* pin rd_data[2]
* pin clk
* pin rd_data[0]
* pin rd_data[4]
* pin fifo_count[2]
* pin wr_en
* pin fifo_count[1]
* pin wr_data[1]
* pin peek_addr[3]
* pin peek_data[1]
* pin peek_data[0]
* pin peek_data[4]
* pin peek_data[3]
* pin peek_data[2]
* pin peek_data[7]
* pin peek_en
* pin peek_data[6]
* pin peek_data[5]
* pin peek_addr[0]
* pin wr_data[2]
* pin peek_addr[2]
* pin peek_addr[1]
* pin wr_data[4]
* pin wr_data[3]
* pin wr_data[7]
.SUBCKT circular_buffer_fifo 1 2 3 4 108 117 128 129 182 183 191 192 211 212
+ 213 232 233 234 247 255 260 266 267 290 309 315 325 331 344 345 346 350 351
+ 352 369 383 390 395 396 480 495 497
* net 1 wr_data[0]
* net 2 rd_data[1]
* net 3 rd_data[3]
* net 4 wr_data[5]
* net 108 wr_data[6]
* net 117 rd_data[5]
* net 128 rd_data[6]
* net 129 rst_n
* net 182 rd_en
* net 183 fifo_count[4]
* net 191 almost_full
* net 192 empty
* net 211 full
* net 212 almost_empty
* net 213 rd_data[7]
* net 232 fifo_count[0]
* net 233 fifo_count[3]
* net 234 rd_data[2]
* net 247 clk
* net 255 rd_data[0]
* net 260 rd_data[4]
* net 266 fifo_count[2]
* net 267 wr_en
* net 290 fifo_count[1]
* net 309 wr_data[1]
* net 315 peek_addr[3]
* net 325 peek_data[1]
* net 331 peek_data[0]
* net 344 peek_data[4]
* net 345 peek_data[3]
* net 346 peek_data[2]
* net 350 peek_data[7]
* net 351 peek_en
* net 352 peek_data[6]
* net 369 peek_data[5]
* net 383 peek_addr[0]
* net 390 wr_data[2]
* net 395 peek_addr[2]
* net 396 peek_addr[1]
* net 480 wr_data[4]
* net 495 wr_data[3]
* net 497 wr_data[7]
* cell instance $3 r0 *1 57.04,2.72
X$3 10 1 10 5 7 5 sky130_fd_sc_hd__buf_4
* cell instance $5 m0 *1 58.88,8.16
X$5 10 14 2 5 10 5 sky130_fd_sc_hd__clkbuf_1
* cell instance $9 r0 *1 60.26,2.72
X$9 10 45 3 5 10 5 sky130_fd_sc_hd__clkbuf_1
* cell instance $12 r0 *1 81.42,2.72
X$12 10 4 10 5 6 5 sky130_fd_sc_hd__buf_4
* cell instance $115 m0 *1 35.42,8.16
X$115 5 8 13 11 16 10 10 5 sky130_fd_sc_hd__edfxtp_1
* cell instance $130 m0 *1 71.76,8.16
X$130 5 8 12 9 6 10 10 5 sky130_fd_sc_hd__edfxtp_1
* cell instance $170 r0 *1 31.74,8.16
X$170 5 21 23 17 16 10 10 5 sky130_fd_sc_hd__edfxtp_1
* cell instance $178 r0 *1 48.3,8.16
X$178 5 18 24 17 16 10 10 5 sky130_fd_sc_hd__edfxtp_1
* cell instance $179 r0 *1 59.34,8.16
X$179 5 15 25 17 6 10 10 5 sky130_fd_sc_hd__edfxtp_1
* cell instance $190 r0 *1 86.94,8.16
X$190 5 8 22 9 19 10 10 5 sky130_fd_sc_hd__edfxtp_1
* cell instance $195 r0 *1 98.44,8.16
X$195 5 15 20 27 19 10 10 5 sky130_fd_sc_hd__edfxtp_1
* cell instance $215 m0 *1 17.94,13.6
X$215 5 15 32 11 16 10 10 5 sky130_fd_sc_hd__edfxtp_1
* cell instance $220 m0 *1 34.5,13.6
X$220 5 33 28 11 16 10 10 5 sky130_fd_sc_hd__edfxtp_1
* cell instance $221 m0 *1 45.54,13.6
X$221 5 26 29 17 16 10 10 5 sky130_fd_sc_hd__edfxtp_1
* cell instance $226 m0 *1 62.1,13.6
X$226 5 26 35 9 6 10 10 5 sky130_fd_sc_hd__edfxtp_1
* cell instance $227 m0 *1 73.14,13.6
X$227 5 18 34 9 6 10 10 5 sky130_fd_sc_hd__edfxtp_1
* cell instance $231 m0 *1 86.94,13.6
X$231 5 21 30 9 19 10 10 5 sky130_fd_sc_hd__edfxtp_1
* cell instance $234 m0 *1 100.74,13.6
X$234 5 26 31 27 19 10 10 5 sky130_fd_sc_hd__edfxtp_1
* cell instance $252 r0 *1 21.16,13.6
X$252 5 40 36 11 16 10 10 5 sky130_fd_sc_hd__edfxtp_1
* cell instance $254 r0 *1 33.12,13.6
X$254 5 41 49 28 13 23 36 42 10 10 5 sky130_fd_sc_hd__mux4_1
* cell instance $259 r0 *1 46,13.6
X$259 5 43 51 29 24 28 13 37 10 10 5 sky130_fd_sc_hd__mux4_1
* cell instance $266 r0 *1 70.84,13.6
X$266 5 33 46 9 6 10 10 5 sky130_fd_sc_hd__edfxtp_1
* cell instance $270 r0 *1 86.94,13.6
X$270 5 33 39 9 19 10 10 5 sky130_fd_sc_hd__edfxtp_1
* cell instance $274 r0 *1 100.28,13.6
X$274 5 18 38 27 19 10 10 5 sky130_fd_sc_hd__edfxtp_1
* cell instance $275 r0 *1 111.32,13.6
X$275 5 43 61 31 38 39 22 37 10 10 5 sky130_fd_sc_hd__mux4_1
* cell instance $305 m0 *1 30.82,19.04
X$305 5 43 54 32 52 23 36 63 10 10 5 sky130_fd_sc_hd__mux4_1
* cell instance $306 m0 *1 40.48,19.04
X$306 5 47 69 29 24 32 52 55 10 10 5 sky130_fd_sc_hd__mux4_1
* cell instance $308 m0 *1 53.82,19.04
X$308 10 51 65 54 44 50 5 10 5 sky130_fd_sc_hd__o22ai_1
* cell instance $311 m0 *1 57.04,19.04
X$311 5 67 45 17 66 10 10 5 sky130_fd_sc_hd__dfrtp_1
* cell instance $315 m0 *1 74.52,19.04
X$315 5 43 68 35 34 46 12 37 10 10 5 sky130_fd_sc_hd__mux4_1
* cell instance $319 m0 *1 86.94,19.04
X$319 5 40 48 9 19 10 10 5 sky130_fd_sc_hd__edfxtp_1
* cell instance $322 m0 *1 100.28,19.04
X$322 5 41 64 39 22 30 48 42 10 10 5 sky130_fd_sc_hd__mux4_1
* cell instance $325 m0 *1 112.24,19.04
X$325 5 47 60 31 38 20 62 55 10 10 5 sky130_fd_sc_hd__mux4_1
* cell instance $328 m0 *1 124.2,19.04
X$328 5 67 57 27 58 10 10 5 sky130_fd_sc_hd__dfrtp_1
* cell instance $342 r0 *1 30.36,19.04
X$342 5 59 52 11 16 10 10 5 sky130_fd_sc_hd__edfxtp_1
* cell instance $349 r0 *1 44.62,19.04
X$349 5 49 75 69 53 10 10 5 sky130_fd_sc_hd__mux2i_4
* cell instance $350 r0 *1 52.9,19.04
X$350 5 67 14 17 76 10 10 5 sky130_fd_sc_hd__dfrtp_1
* cell instance $356 r0 *1 70.84,19.04
X$356 5 47 71 35 34 25 78 55 10 10 5 sky130_fd_sc_hd__mux4_1
* cell instance $357 r0 *1 80.5,19.04
X$357 5 41 100 46 12 70 77 42 10 10 5 sky130_fd_sc_hd__mux4_1
* cell instance $366 r0 *1 103.5,19.04
X$366 5 73 56 20 62 30 48 63 10 10 5 sky130_fd_sc_hd__mux4_1
* cell instance $369 r0 *1 115.46,19.04
X$369 10 61 65 56 44 74 5 10 5 sky130_fd_sc_hd__o22ai_1
* cell instance $400 m0 *1 30.82,24.48
X$400 5 11 503 10 10 5 sky130_fd_sc_hd__clkbuf_8
* cell instance $401 m0 *1 35.88,24.48
X$401 5 33 94 11 79 10 10 5 sky130_fd_sc_hd__edfxtp_1
* cell instance $402 m0 *1 46.92,24.48
X$402 10 17 10 5 505 5 sky130_fd_sc_hd__clkinvlp_4
* cell instance $405 m0 *1 52.44,24.48
X$405 5 76 14 103 80 10 10 5 sky130_fd_sc_hd__mux2_1
* cell instance $407 m0 *1 57.04,24.48
X$407 10 50 83 95 5 10 5 sky130_fd_sc_hd__nor2_1
* cell instance $409 m0 *1 58.88,24.48
X$409 5 66 45 95 80 10 10 5 sky130_fd_sc_hd__mux2_1
* cell instance $413 m0 *1 74.06,24.48
X$413 5 43 72 25 78 70 77 63 10 10 5 sky130_fd_sc_hd__mux4_1
* cell instance $416 m0 *1 84.64,24.48
X$416 10 68 65 72 44 87 5 10 5 sky130_fd_sc_hd__o22ai_1
* cell instance $419 m0 *1 89.24,24.48
X$419 5 59 62 27 19 10 10 5 sky130_fd_sc_hd__edfxtp_1
* cell instance $420 m0 *1 100.28,24.48
X$420 5 86 27 10 10 5 sky130_fd_sc_hd__clkbuf_16
* cell instance $424 m0 *1 112.24,24.48
X$424 5 53 64 60 10 82 10 5 sky130_fd_sc_hd__mux2i_2
* cell instance $425 m0 *1 117.3,24.48
X$425 10 73 10 5 43 5 sky130_fd_sc_hd__buf_4
* cell instance $428 m0 *1 124.2,24.48
X$428 5 67 89 27 81 10 10 5 sky130_fd_sc_hd__dfrtp_1
* cell instance $441 r0 *1 22.08,24.48
X$441 5 59 85 11 79 10 10 5 sky130_fd_sc_hd__edfxtp_1
* cell instance $442 r0 *1 33.12,24.48
X$442 5 43 102 84 85 97 92 63 10 10 5 sky130_fd_sc_hd__mux4_1
* cell instance $446 r0 *1 46.92,24.48
X$446 5 86 17 10 10 5 sky130_fd_sc_hd__clkbuf_16
* cell instance $450 r0 *1 59.34,24.48
X$450 5 59 78 17 6 10 10 5 sky130_fd_sc_hd__edfxtp_1
* cell instance $455 r0 *1 72.22,24.48
X$455 5 21 70 9 6 10 10 5 sky130_fd_sc_hd__edfxtp_1
* cell instance $456 r0 *1 83.26,24.48
X$456 5 86 9 10 10 5 sky130_fd_sc_hd__clkbuf_16
* cell instance $459 r0 *1 94.76,24.48
X$459 10 27 10 5 5 sky130_fd_sc_hd__clkinv_2
* cell instance $466 r0 *1 99.82,24.48
X$466 5 18 93 27 7 10 10 5 sky130_fd_sc_hd__edfxtp_1
* cell instance $469 r0 *1 115,24.48
X$469 10 87 160 90 5 10 5 sky130_fd_sc_hd__nor2_1
* cell instance $472 r0 *1 117.76,24.48
X$472 10 74 91 88 5 10 5 sky130_fd_sc_hd__nor2_1
* cell instance $475 r0 *1 121.44,24.48
X$475 5 81 89 90 80 10 10 5 sky130_fd_sc_hd__mux2_1
* cell instance $478 r0 *1 126.04,24.48
X$478 5 58 57 88 80 10 10 5 sky130_fd_sc_hd__mux2_1
* cell instance $496 m0 *1 17.94,29.92
X$496 5 40 92 11 79 10 10 5 sky130_fd_sc_hd__edfxtp_1
* cell instance $500 m0 *1 33.58,29.92
X$500 5 41 110 94 96 97 92 42 10 10 5 sky130_fd_sc_hd__mux4_1
* cell instance $501 m0 *1 43.24,29.92
X$501 5 99 111 112 98 94 96 37 10 10 5 sky130_fd_sc_hd__mux4_1
* cell instance $503 m0 *1 54.74,29.92
X$503 10 122 104 103 5 10 5 sky130_fd_sc_hd__nor2_1
* cell instance $511 m0 *1 72.68,29.92
X$511 5 40 77 9 6 10 10 5 sky130_fd_sc_hd__edfxtp_1
* cell instance $514 m0 *1 84.64,29.92
X$514 5 9 502 10 10 5 sky130_fd_sc_hd__clkbuf_8
* cell instance $515 m0 *1 89.7,29.92
X$515 5 100 101 71 53 10 10 5 sky130_fd_sc_hd__mux2i_4
* cell instance $517 m0 *1 98.44,29.92
X$517 5 26 109 27 7 10 10 5 sky130_fd_sc_hd__edfxtp_1
* cell instance $524 m0 *1 118.22,29.92
X$524 5 67 106 27 107 10 10 5 sky130_fd_sc_hd__dfrtp_1
* cell instance $537 r0 *1 20.7,29.92
X$537 5 21 97 11 79 10 10 5 sky130_fd_sc_hd__edfxtp_1
* cell instance $538 r0 *1 31.74,29.92
X$538 5 8 96 11 79 10 10 5 sky130_fd_sc_hd__edfxtp_1
* cell instance $542 r0 *1 44.16,29.92
X$542 5 114 110 113 10 120 10 5 sky130_fd_sc_hd__mux2i_2
* cell instance $543 r0 *1 49.22,29.92
X$543 10 111 65 102 44 122 5 10 5 sky130_fd_sc_hd__o22ai_1
* cell instance $544 r0 *1 51.52,29.92
X$544 5 18 98 9 79 10 10 5 sky130_fd_sc_hd__edfxtp_1
* cell instance $556 r0 *1 86.94,29.92
X$556 5 8 123 115 7 10 10 5 sky130_fd_sc_hd__edfxtp_1
* cell instance $559 r0 *1 98.44,29.92
X$559 5 41 119 109 93 105 121 42 10 10 5 sky130_fd_sc_hd__mux4_1
* cell instance $562 r0 *1 112.24,29.92
X$562 5 73 99 10 10 5 sky130_fd_sc_hd__buf_6
* cell instance $563 r0 *1 116.38,29.92
X$563 5 67 131 27 118 10 10 5 sky130_fd_sc_hd__dfrtp_1
* cell instance $566 r0 *1 126.04,29.92
X$566 10 132 106 10 107 5 5 sky130_fd_sc_hd__xor2_1
* cell instance $567 r0 *1 129.26,29.92
X$567 10 108 10 5 19 5 sky130_fd_sc_hd__buf_4
* cell instance $569 r0 *1 132.94,29.92
X$569 10 89 117 5 10 5 sky130_fd_sc_hd__clkbuf_1
* cell instance $590 m0 *1 29.44,35.36
X$590 5 15 84 11 79 10 10 5 sky130_fd_sc_hd__edfxtp_1
* cell instance $591 m0 *1 40.48,35.36
X$591 5 41 113 112 98 84 85 42 10 10 5 sky130_fd_sc_hd__mux4_1
* cell instance $598 m0 *1 62.56,35.36
X$598 5 53 114 10 10 5 sky130_fd_sc_hd__buf_6
* cell instance $608 m0 *1 86.94,35.36
X$608 5 59 121 115 7 10 10 5 sky130_fd_sc_hd__edfxtp_1
* cell instance $609 m0 *1 97.98,35.36
X$609 5 33 125 124 7 10 10 5 sky130_fd_sc_hd__edfxtp_1
* cell instance $616 m0 *1 118.22,35.36
X$616 10 163 131 118 10 5 5 sky130_fd_sc_hd__xnor2_1
* cell instance $617 m0 *1 121.44,35.36
X$617 5 116 131 106 10 10 5 sky130_fd_sc_hd__xnor2_2
* cell instance $619 m0 *1 131.1,35.36
X$619 10 129 10 130 5 5 sky130_fd_sc_hd__dlygate4sd3_1
* cell instance $633 r0 *1 33.12,35.36
X$633 5 86 11 10 10 5 sky130_fd_sc_hd__clkbuf_16
* cell instance $640 r0 *1 51.06,35.36
X$640 5 26 112 17 79 10 10 5 sky130_fd_sc_hd__edfxtp_1
* cell instance $651 r0 *1 84.64,35.36
X$651 5 40 127 115 7 10 10 5 sky130_fd_sc_hd__edfxtp_1
* cell instance $656 r0 *1 98.44,35.36
X$656 5 41 133 125 123 135 127 42 10 10 5 sky130_fd_sc_hd__mux4_1
* cell instance $657 r0 *1 108.1,35.36
X$657 5 73 139 109 93 125 123 63 10 10 5 sky130_fd_sc_hd__mux4_1
* cell instance $665 r0 *1 127.42,35.36
X$665 5 130 67 10 10 5 sky130_fd_sc_hd__buf_8
* cell instance $666 r0 *1 132.94,35.36
X$666 10 57 128 5 10 5 sky130_fd_sc_hd__clkbuf_1
* cell instance $687 m0 *1 45.54,40.8
X$687 5 18 144 140 142 10 10 5 sky130_fd_sc_hd__edfxtp_1
* cell instance $692 m0 *1 63.48,40.8
X$692 5 8 145 140 134 10 10 5 sky130_fd_sc_hd__edfxtp_1
* cell instance $702 m0 *1 86.94,40.8
X$702 5 21 135 115 7 10 10 5 sky130_fd_sc_hd__edfxtp_1
* cell instance $706 m0 *1 98.44,40.8
X$706 5 126 136 105 121 135 127 37 10 10 5 sky130_fd_sc_hd__mux4_1
* cell instance $707 m0 *1 108.1,40.8
X$707 10 44 136 65 139 141 5 10 5 sky130_fd_sc_hd__o22ai_1
* cell instance $717 m0 *1 124.2,40.8
X$717 5 67 137 124 138 10 10 5 sky130_fd_sc_hd__dfrtp_1
* cell instance $729 r0 *1 17.94,40.8
X$729 5 15 143 146 142 10 10 5 sky130_fd_sc_hd__edfxtp_1
* cell instance $732 r0 *1 31.74,40.8
X$732 5 33 149 146 142 10 10 5 sky130_fd_sc_hd__edfxtp_1
* cell instance $736 r0 *1 44.16,40.8
X$736 5 47 157 148 144 143 156 55 10 10 5 sky130_fd_sc_hd__mux4_1
* cell instance $744 r0 *1 70.84,40.8
X$744 5 33 155 115 134 10 10 5 sky130_fd_sc_hd__edfxtp_1
* cell instance $747 r0 *1 86.02,40.8
X$747 5 18 154 124 134 10 10 5 sky130_fd_sc_hd__edfxtp_1
* cell instance $751 r0 *1 98.44,40.8
X$751 5 124 10 10 5 sky130_fd_sc_hd__bufinv_16
* cell instance $752 r0 *1 109.48,40.8
X$752 5 114 133 119 10 153 10 5 sky130_fd_sc_hd__mux2i_2
* cell instance $754 r0 *1 115,40.8
X$754 5 67 150 124 152 10 10 5 sky130_fd_sc_hd__dfrtp_4
* cell instance $758 r0 *1 126.5,40.8
X$758 5 138 137 151 80 10 10 5 sky130_fd_sc_hd__mux2_1
* cell instance $773 m0 *1 6.9,46.24
X$773 5 21 147 146 142 10 10 5 sky130_fd_sc_hd__edfxtp_1
* cell instance $774 m0 *1 17.94,46.24
X$774 5 59 156 146 142 10 10 5 sky130_fd_sc_hd__edfxtp_1
* cell instance $778 m0 *1 31.74,46.24
X$778 5 8 158 140 142 10 10 5 sky130_fd_sc_hd__edfxtp_1
* cell instance $779 m0 *1 42.78,46.24
X$779 5 43 166 148 144 149 158 37 10 10 5 sky130_fd_sc_hd__mux4_1
* cell instance $780 m0 *1 52.44,46.24
X$780 10 166 65 165 44 293 5 10 5 sky130_fd_sc_hd__o22ai_1
* cell instance $787 m0 *1 69,46.24
X$787 5 26 159 115 134 10 10 5 sky130_fd_sc_hd__edfxtp_1
* cell instance $791 m0 *1 84.64,46.24
X$791 5 115 10 10 5 sky130_fd_sc_hd__bufinv_16
* cell instance $794 m0 *1 97.06,46.24
X$794 5 15 105 124 7 10 10 5 sky130_fd_sc_hd__edfxtp_1
* cell instance $795 m0 *1 108.1,46.24
X$795 10 141 174 151 5 10 5 sky130_fd_sc_hd__nor2_1
* cell instance $800 m0 *1 113.16,46.24
X$800 5 73 126 10 10 5 sky130_fd_sc_hd__buf_6
* cell instance $802 m0 *1 117.76,46.24
X$802 10 164 150 152 10 5 5 sky130_fd_sc_hd__xnor2_1
* cell instance $806 m0 *1 124.2,46.24
X$806 5 67 161 124 162 10 10 5 sky130_fd_sc_hd__dfrtp_1
* cell instance $819 r0 *1 22.08,46.24
X$819 5 40 167 146 142 10 10 5 sky130_fd_sc_hd__edfxtp_1
* cell instance $820 r0 *1 33.12,46.24
X$820 5 43 165 143 156 147 167 63 10 10 5 sky130_fd_sc_hd__mux4_1
* cell instance $823 r0 *1 43.24,46.24
X$823 5 86 140 10 10 5 sky130_fd_sc_hd__clkbuf_16
* cell instance $824 r0 *1 52.44,46.24
X$824 5 53 176 157 10 177 10 5 sky130_fd_sc_hd__mux2i_2
* cell instance $834 r0 *1 76.82,46.24
X$834 5 43 175 159 154 155 145 63 10 10 5 sky130_fd_sc_hd__mux4_1
* cell instance $835 r0 *1 86.48,46.24
X$835 5 86 115 10 10 5 sky130_fd_sc_hd__clkbuf_16
* cell instance $840 r0 *1 98.44,46.24
X$840 5 86 124 10 10 5 sky130_fd_sc_hd__clkbuf_16
* cell instance $846 r0 *1 118.22,46.24
X$846 10 173 172 169 10 5 163 5 sky130_fd_sc_hd__o21ai_1
* cell instance $849 r0 *1 121.44,46.24
X$849 5 162 161 168 80 10 10 5 sky130_fd_sc_hd__mux2_1
* cell instance $852 r0 *1 126.04,46.24
X$852 5 169 170 171 80 10 10 5 sky130_fd_sc_hd__o21ai_4
* cell instance $877 m0 *1 35.88,51.68
X$877 5 41 176 149 158 147 167 42 10 10 5 sky130_fd_sc_hd__mux4_1
* cell instance $878 m0 *1 45.54,51.68
X$878 5 26 148 140 142 10 10 5 sky130_fd_sc_hd__edfxtp_1
* cell instance $883 m0 *1 62.1,51.68
X$883 5 21 178 140 134 10 10 5 sky130_fd_sc_hd__edfxtp_1
* cell instance $884 m0 *1 73.14,51.68
X$884 5 40 179 115 134 10 10 5 sky130_fd_sc_hd__edfxtp_1
* cell instance $897 m0 *1 113.16,51.68
X$897 10 196 10 5 63 5 sky130_fd_sc_hd__buf_4
* cell instance $899 m0 *1 116.38,51.68
X$899 10 185 37 150 170 5 10 172 5 sky130_fd_sc_hd__and4_1
* cell instance $901 m0 *1 120.06,51.68
X$901 5 116 184 171 10 10 5 sky130_fd_sc_hd__xnor2_4
* cell instance $902 m0 *1 130.18,51.68
X$902 10 182 10 5 170 5 sky130_fd_sc_hd__clkbuf_2
* cell instance $904 m0 *1 132.94,51.68
X$904 10 173 183 5 10 5 sky130_fd_sc_hd__clkbuf_1
* cell instance $919 r0 *1 29.9,51.68
X$919 5 86 146 10 10 5 sky130_fd_sc_hd__clkbuf_16
* cell instance $923 r0 *1 43.24,51.68
X$923 10 140 10 5 507 5 sky130_fd_sc_hd__clkinvlp_4
* cell instance $936 r0 *1 75.44,51.68
X$936 5 41 202 155 145 178 179 42 10 10 5 sky130_fd_sc_hd__mux4_1
* cell instance $939 r0 *1 86.48,51.68
X$939 10 175 65 201 44 180 5 10 5 sky130_fd_sc_hd__o22ai_1
* cell instance $942 r0 *1 91.08,51.68
X$942 5 187 18 204 203 10 10 5 sky130_fd_sc_hd__and3_4
* cell instance $949 r0 *1 99.82,51.68
X$949 10 180 181 168 5 10 5 sky130_fd_sc_hd__nor2_1
* cell instance $951 r0 *1 102.12,51.68
X$951 5 67 199 124 200 10 10 5 sky130_fd_sc_hd__dfrtp_2
* cell instance $953 r0 *1 113.62,51.68
X$953 10 189 37 198 10 5 5 sky130_fd_sc_hd__xnor2_1
* cell instance $954 r0 *1 116.84,51.68
X$954 10 173 169 170 185 189 10 5 5 sky130_fd_sc_hd__o211ai_1
* cell instance $955 r0 *1 119.6,51.68
X$955 10 150 10 5 197 5 sky130_fd_sc_hd__clkinvlp_4
* cell instance $956 r0 *1 122.36,51.68
X$956 10 173 169 195 10 164 5 5 sky130_fd_sc_hd__o21ai_0
* cell instance $963 r0 *1 127.42,51.68
X$963 10 171 10 5 173 5 sky130_fd_sc_hd__buf_4
* cell instance $964 r0 *1 130.18,51.68
X$964 10 193 191 5 10 5 sky130_fd_sc_hd__clkbuf_1
* cell instance $965 r0 *1 131.56,51.68
X$965 10 173 169 190 5 10 5 sky130_fd_sc_hd__nor2_1
* cell instance $967 r0 *1 133.4,51.68
X$967 10 190 192 5 10 5 sky130_fd_sc_hd__clkbuf_1
* cell instance $980 m0 *1 6.9,57.12
X$980 5 21 206 146 186 10 10 5 sky130_fd_sc_hd__edfxtp_1
* cell instance $987 m0 *1 31.74,57.12
X$987 5 8 205 146 186 10 10 5 sky130_fd_sc_hd__edfxtp_1
* cell instance $988 m0 *1 42.78,57.12
X$988 5 18 207 140 186 10 10 5 sky130_fd_sc_hd__edfxtp_1
* cell instance $995 m0 *1 62.1,57.12
X$995 5 15 208 140 134 10 10 5 sky130_fd_sc_hd__edfxtp_1
* cell instance $997 m0 *1 74.06,57.12
X$997 5 73 201 208 218 178 179 63 10 10 5 sky130_fd_sc_hd__mux4_1
* cell instance $1001 m0 *1 85.1,57.12
X$1001 5 53 202 219 10 217 10 5 sky130_fd_sc_hd__mux2i_2
* cell instance $1002 m0 *1 90.16,57.12
X$1002 5 187 8 204 188 10 10 5 sky130_fd_sc_hd__and3_4
* cell instance $1003 m0 *1 94.3,57.12
X$1003 10 199 226 188 5 10 5 sky130_fd_sc_hd__nor2b_1
* cell instance $1004 m0 *1 96.6,57.12
X$1004 5 67 226 124 243 10 10 5 sky130_fd_sc_hd__dfrtp_2
* cell instance $1009 m0 *1 113.16,57.12
X$1009 5 67 196 124 198 10 10 5 sky130_fd_sc_hd__dfrtp_1
* cell instance $1010 m0 *1 122.36,57.12
X$1010 10 170 126 216 10 5 5 sky130_fd_sc_hd__nand2_1
* cell instance $1011 m0 *1 123.74,57.12
X$1011 10 173 209 215 10 5 5 sky130_fd_sc_hd__and2_0
* cell instance $1012 m0 *1 126.04,57.12
X$1012 10 215 211 5 10 5 sky130_fd_sc_hd__clkbuf_1
* cell instance $1014 m0 *1 127.88,57.12
X$1014 10 173 236 194 10 193 5 5 sky130_fd_sc_hd__o21ai_0
* cell instance $1015 m0 *1 129.72,57.12
X$1015 10 173 169 194 10 5 5 sky130_fd_sc_hd__nand2_1
* cell instance $1017 m0 *1 132.02,57.12
X$1017 10 214 212 5 10 5 sky130_fd_sc_hd__clkbuf_1
* cell instance $1018 m0 *1 133.4,57.12
X$1018 10 161 213 5 10 5 sky130_fd_sc_hd__clkbuf_1
* cell instance $1028 r0 *1 19.78,57.12
X$1028 5 59 237 146 186 10 10 5 sky130_fd_sc_hd__edfxtp_1
* cell instance $1029 r0 *1 30.82,57.12
X$1029 5 33 223 146 186 10 10 5 sky130_fd_sc_hd__edfxtp_1
* cell instance $1034 r0 *1 44.16,57.12
X$1034 5 242 241 240 53 10 10 5 sky130_fd_sc_hd__mux2i_1
* cell instance $1035 r0 *1 47.84,57.12
X$1035 5 99 224 269 207 223 205 37 10 10 5 sky130_fd_sc_hd__mux4_1
* cell instance $1042 r0 *1 70.84,57.12
X$1042 5 59 218 115 134 10 10 5 sky130_fd_sc_hd__edfxtp_1
* cell instance $1043 r0 *1 81.88,57.12
X$1043 5 47 219 159 154 208 218 55 10 10 5 sky130_fd_sc_hd__mux4_1
* cell instance $1044 r0 *1 91.54,57.12
X$1044 5 187 33 227 188 10 10 5 sky130_fd_sc_hd__and3_4
* cell instance $1047 r0 *1 96.6,57.12
X$1047 10 199 226 203 5 10 5 sky130_fd_sc_hd__nor2_1
* cell instance $1049 r0 *1 98.44,57.12
X$1049 5 187 26 227 203 10 10 5 sky130_fd_sc_hd__and3_4
* cell instance $1051 r0 *1 104.42,57.12
X$1051 10 228 199 10 200 5 5 sky130_fd_sc_hd__xor2_1
* cell instance $1052 r0 *1 107.64,57.12
X$1052 10 276 173 209 5 10 228 5 sky130_fd_sc_hd__a21oi_1
* cell instance $1054 r0 *1 111.32,57.12
X$1054 5 196 37 10 10 5 sky130_fd_sc_hd__buf_6
* cell instance $1055 r0 *1 115.46,57.12
X$1055 10 63 10 5 239 5 sky130_fd_sc_hd__clkinvlp_4
* cell instance $1056 r0 *1 118.22,57.12
X$1056 5 210 65 197 10 10 5 sky130_fd_sc_hd__nand2_4
* cell instance $1059 r0 *1 123.28,57.12
X$1059 10 210 239 216 195 5 10 5 sky130_fd_sc_hd__nor3_1
* cell instance $1063 r0 *1 129.72,57.12
X$1063 10 235 229 231 173 5 214 10 5 sky130_fd_sc_hd__nor4_1
* cell instance $1064 r0 *1 132.02,57.12
X$1064 10 231 233 5 10 5 sky130_fd_sc_hd__clkbuf_1
* cell instance $1065 r0 *1 133.4,57.12
X$1065 10 265 232 5 10 5 sky130_fd_sc_hd__clkbuf_1
* cell instance $1076 m0 *1 1.38,62.56
X$1076 10 220 234 5 10 5 sky130_fd_sc_hd__clkbuf_1
* cell instance $1078 m0 *1 4.6,62.56
X$1078 5 67 220 146 221 10 10 5 sky130_fd_sc_hd__dfrtp_1
* cell instance $1079 m0 *1 13.8,62.56
X$1079 5 221 220 256 80 10 10 5 sky130_fd_sc_hd__mux2_1
* cell instance $1080 m0 *1 17.94,62.56
X$1080 5 40 222 146 186 10 10 5 sky130_fd_sc_hd__edfxtp_1
* cell instance $1083 m0 *1 30.36,62.56
X$1083 5 43 225 248 237 206 222 63 10 10 5 sky130_fd_sc_hd__mux4_1
* cell instance $1084 m0 *1 40.02,62.56
X$1084 5 41 241 223 205 206 222 42 10 10 5 sky130_fd_sc_hd__mux4_1
* cell instance $1085 m0 *1 49.68,62.56
X$1085 10 224 65 225 44 257 5 10 5 sky130_fd_sc_hd__o22ai_1
* cell instance $1091 m0 *1 59.34,62.56
X$1091 10 300 10 5 42 5 sky130_fd_sc_hd__buf_4
* cell instance $1093 m0 *1 65.78,62.56
X$1093 5 247 86 10 10 5 sky130_fd_sc_hd__clkbuf_16
* cell instance $1101 m0 *1 87.86,62.56
X$1101 5 187 40 245 188 10 10 5 sky130_fd_sc_hd__and3_4
* cell instance $1102 m0 *1 92,62.56
X$1102 5 187 59 245 203 10 10 5 sky130_fd_sc_hd__and3_4
* cell instance $1103 m0 *1 96.14,62.56
X$1103 10 244 226 10 243 5 5 sky130_fd_sc_hd__xor2_1
* cell instance $1104 m0 *1 99.36,62.56
X$1104 5 132 259 209 171 10 10 5 sky130_fd_sc_hd__a21oi_4
* cell instance $1107 m0 *1 107.64,62.56
X$1107 5 283 44 197 10 10 5 sky130_fd_sc_hd__nand2_4
* cell instance $1111 m0 *1 114.54,62.56
X$1111 5 250 238 199 197 10 10 5 sky130_fd_sc_hd__ha_2
* cell instance $1112 m0 *1 120.06,62.56
X$1112 10 250 238 258 10 184 5 5 sky130_fd_sc_hd__a21oi_2
* cell instance $1115 m0 *1 126.04,62.56
X$1115 10 251 252 231 5 10 5 sky130_fd_sc_hd__nor2_1
* cell instance $1116 m0 *1 127.42,62.56
X$1116 10 230 231 229 236 10 5 5 sky130_fd_sc_hd__nand3_1
* cell instance $1117 m0 *1 129.26,62.56
X$1117 10 230 254 10 235 5 5 sky130_fd_sc_hd__xor2_1
* cell instance $1119 m0 *1 132.94,62.56
X$1119 10 137 255 5 10 5 sky130_fd_sc_hd__clkbuf_1
* cell instance $1121 r0 *1 1.38,62.56
X$1121 10 246 260 5 10 5 sky130_fd_sc_hd__clkbuf_1
* cell instance $1123 r0 *1 4.6,62.56
X$1123 5 67 246 146 268 10 10 5 sky130_fd_sc_hd__dfrtp_1
* cell instance $1131 r0 *1 22.08,62.56
X$1131 5 15 248 146 186 10 10 5 sky130_fd_sc_hd__edfxtp_1
* cell instance $1132 r0 *1 33.12,62.56
X$1132 5 47 240 269 207 248 237 55 10 10 5 sky130_fd_sc_hd__mux4_1
* cell instance $1137 r0 *1 47.38,62.56
X$1137 10 257 249 256 5 10 5 sky130_fd_sc_hd__nor2_1
* cell instance $1138 r0 *1 48.76,62.56
X$1138 5 26 269 140 186 10 10 5 sky130_fd_sc_hd__edfxtp_1
* cell instance $1152 r0 *1 88.32,62.56
X$1152 10 244 188 5 21 10 5 sky130_fd_sc_hd__and2_4
* cell instance $1154 r0 *1 92.46,62.56
X$1154 10 244 203 5 15 10 5 sky130_fd_sc_hd__and2_4
* cell instance $1155 r0 *1 95.68,62.56
X$1155 10 226 199 262 5 10 5 sky130_fd_sc_hd__nor2b_1
* cell instance $1159 r0 *1 99.36,62.56
X$1159 10 199 226 263 10 5 5 sky130_fd_sc_hd__and2_0
* cell instance $1161 r0 *1 103.5,62.56
X$1161 5 209 171 244 274 275 10 10 5 sky130_fd_sc_hd__a211oi_4
* cell instance $1163 r0 *1 111.78,62.56
X$1163 5 37 150 10 272 10 5 sky130_fd_sc_hd__nand2_8
* cell instance $1164 r0 *1 119.14,62.56
X$1164 10 267 270 5 10 5 sky130_fd_sc_hd__clkbuf_1
* cell instance $1166 r0 *1 122.36,62.56
X$1166 10 253 252 251 5 10 209 5 sky130_fd_sc_hd__o21a_2
* cell instance $1170 r0 *1 126.96,62.56
X$1170 5 252 253 251 169 10 10 5 sky130_fd_sc_hd__o21ai_4
* cell instance $1172 r0 *1 133.4,62.56
X$1172 10 254 10 5 265 5 sky130_fd_sc_hd__inv_1
* cell instance $1185 m0 *1 8.74,68
X$1185 5 268 246 261 80 10 10 5 sky130_fd_sc_hd__mux2_1
* cell instance $1199 m0 *1 49.68,68
X$1199 10 293 291 261 5 10 5 sky130_fd_sc_hd__nor2_1
* cell instance $1205 m0 *1 61.18,68
X$1205 5 279 41 10 10 5 sky130_fd_sc_hd__clkbuf_8
* cell instance $1206 m0 *1 66.24,68
X$1206 5 132 282 115 7 10 10 5 sky130_fd_sc_hd__edfxtp_1
* cell instance $1215 m0 *1 87.86,68
X$1215 10 244 262 5 271 10 5 sky130_fd_sc_hd__and2_4
* cell instance $1218 m0 *1 96.6,68
X$1218 5 498 227 285 278 10 10 5 sky130_fd_sc_hd__ha_1
* cell instance $1219 m0 *1 101.2,68
X$1219 10 270 264 263 259 10 5 5 sky130_fd_sc_hd__nand3_1
* cell instance $1220 m0 *1 103.04,68
X$1220 10 171 274 209 10 277 5 5 sky130_fd_sc_hd__a21oi_2
* cell instance $1221 m0 *1 106.26,68
X$1221 10 297 270 226 285 10 276 5 5 sky130_fd_sc_hd__nand4_1
* cell instance $1222 m0 *1 108.56,68
X$1222 10 264 10 5 275 5 sky130_fd_sc_hd__inv_1
* cell instance $1223 m0 *1 109.94,68
X$1223 10 270 10 5 274 5 sky130_fd_sc_hd__inv_1
* cell instance $1227 m0 *1 112.7,68
X$1227 5 239 150 10 273 10 5 sky130_fd_sc_hd__nand2_8
* cell instance $1229 m0 *1 120.52,68
X$1229 10 286 288 287 5 10 258 5 sky130_fd_sc_hd__a21o_1
* cell instance $1231 m0 *1 123.74,68
X$1231 5 250 252 329 292 10 10 5 sky130_fd_sc_hd__nor3_2
* cell instance $1233 m0 *1 128.34,68
X$1233 10 265 230 229 253 5 10 5 sky130_fd_sc_hd__nor3_1
* cell instance $1235 m0 *1 131.1,68
X$1235 10 229 266 5 10 5 sky130_fd_sc_hd__clkbuf_1
* cell instance $1237 m0 *1 133.4,68
X$1237 10 230 290 5 10 5 sky130_fd_sc_hd__clkbuf_1
* cell instance $1248 r0 *1 16.1,68
X$1248 5 271 304 299 79 10 10 5 sky130_fd_sc_hd__edfxtp_1
* cell instance $1261 r0 *1 48.3,68
X$1261 5 132 305 280 79 10 10 5 sky130_fd_sc_hd__edfxtp_1
* cell instance $1262 r0 *1 59.34,68
X$1262 5 294 281 280 7 10 10 5 sky130_fd_sc_hd__edfxtp_1
* cell instance $1269 r0 *1 74.98,68
X$1269 5 126 308 302 295 282 281 283 10 10 5 sky130_fd_sc_hd__mux4_1
* cell instance $1272 r0 *1 87.4,68
X$1272 5 187 306 227 262 10 10 5 sky130_fd_sc_hd__and3_4
* cell instance $1274 r0 *1 92,68
X$1274 5 307 204 284 278 10 10 5 sky130_fd_sc_hd__ha_1
* cell instance $1278 r0 *1 96.6,68
X$1278 10 297 10 5 278 5 sky130_fd_sc_hd__inv_1
* cell instance $1280 r0 *1 98.44,68
X$1280 5 263 298 227 277 10 10 5 sky130_fd_sc_hd__and3_4
* cell instance $1281 r0 *1 102.58,68
X$1281 5 263 296 204 277 10 10 5 sky130_fd_sc_hd__and3_4
* cell instance $1284 r0 *1 114.08,68
X$1284 5 286 287 226 239 10 10 5 sky130_fd_sc_hd__ha_2
* cell instance $1285 r0 *1 119.6,68
X$1285 5 286 288 229 10 10 5 sky130_fd_sc_hd__xor2_2
* cell instance $1290 r0 *1 126.04,68
X$1290 5 250 251 289 314 10 10 5 sky130_fd_sc_hd__a21boi_2
* cell instance $1298 m0 *1 17.94,73.44
X$1298 5 306 316 299 79 10 10 5 sky130_fd_sc_hd__edfxtp_1
* cell instance $1301 m0 *1 30.36,73.44
X$1301 5 126 301 316 333 304 317 283 10 10 5 sky130_fd_sc_hd__mux4_1
* cell instance $1306 m0 *1 46.92,73.44
X$1306 5 279 321 318 312 305 320 300 10 10 5 sky130_fd_sc_hd__mux4_1
* cell instance $1308 m0 *1 57.04,73.44
X$1308 5 301 104 273 322 272 10 10 5 sky130_fd_sc_hd__o22ai_2
* cell instance $1310 m0 *1 63.48,73.44
X$1310 5 298 302 323 7 10 10 5 sky130_fd_sc_hd__edfxtp_1
* cell instance $1311 m0 *1 74.52,73.44
X$1311 5 279 324 302 295 282 281 300 10 10 5 sky130_fd_sc_hd__mux4_1
* cell instance $1314 m0 *1 85.1,73.44
X$1314 5 272 174 308 273 374 10 10 5 sky130_fd_sc_hd__o22ai_2
* cell instance $1316 m0 *1 90.16,73.44
X$1316 5 343 307 297 277 10 10 5 sky130_fd_sc_hd__mux2_1
* cell instance $1317 m0 *1 94.3,73.44
X$1317 10 277 5 187 10 5 sky130_fd_sc_hd__buf_2
* cell instance $1318 m0 *1 96.14,73.44
X$1318 5 499 245 284 297 10 10 5 sky130_fd_sc_hd__ha_1
* cell instance $1319 m0 *1 100.74,73.44
X$1319 5 263 294 245 277 10 10 5 sky130_fd_sc_hd__and3_4
* cell instance $1320 m0 *1 104.88,73.44
X$1320 5 500 264 285 297 10 10 5 sky130_fd_sc_hd__ha_1
* cell instance $1326 m0 *1 113.62,73.44
X$1326 5 319 313 210 297 10 10 5 sky130_fd_sc_hd__ha_1
* cell instance $1327 m0 *1 118.22,73.44
X$1327 10 286 287 313 10 289 5 5 sky130_fd_sc_hd__a21oi_2
* cell instance $1328 m0 *1 121.44,73.44
X$1328 10 286 313 287 5 10 292 5 sky130_fd_sc_hd__a21o_1
* cell instance $1330 m0 *1 124.66,73.44
X$1330 5 288 303 230 210 297 10 10 5 sky130_fd_sc_hd__fa_2
* cell instance $1331 m0 *1 132.94,73.44
X$1331 10 315 10 5 330 5 sky130_fd_sc_hd__clkbuf_2
* cell instance $1334 r0 *1 4.14,73.44
X$1334 10 326 325 5 10 5 sky130_fd_sc_hd__clkbuf_1
* cell instance $1338 r0 *1 8.74,73.44
X$1338 10 309 10 5 79 5 sky130_fd_sc_hd__buf_4
* cell instance $1347 r0 *1 23.92,73.44
X$1347 5 332 317 299 79 10 10 5 sky130_fd_sc_hd__edfxtp_1
* cell instance $1355 r0 *1 43.24,73.44
X$1355 10 355 114 310 336 5 335 10 5 sky130_fd_sc_hd__a211oi_1
* cell instance $1356 r0 *1 46,73.44
X$1356 10 120 310 311 335 5 326 10 5 sky130_fd_sc_hd__a211oi_1
* cell instance $1357 r0 *1 48.76,73.44
X$1357 10 53 321 336 5 10 5 sky130_fd_sc_hd__nor2b_1
* cell instance $1358 r0 *1 51.06,73.44
X$1358 5 99 322 318 312 305 320 339 10 10 5 sky130_fd_sc_hd__mux4_1
* cell instance $1368 r0 *1 71.76,73.44
X$1368 5 296 295 323 7 10 10 5 sky130_fd_sc_hd__edfxtp_1
* cell instance $1371 r0 *1 87.4,73.44
X$1371 5 67 297 341 343 10 10 5 sky130_fd_sc_hd__dfrtp_2
* cell instance $1377 r0 *1 98.44,73.44
X$1377 5 67 285 341 340 10 10 5 sky130_fd_sc_hd__dfrtp_1
* cell instance $1378 r0 *1 107.64,73.44
X$1378 10 285 10 5 284 5 sky130_fd_sc_hd__inv_1
* cell instance $1382 r0 *1 112.24,73.44
X$1382 5 254 328 337 284 10 10 5 sky130_fd_sc_hd__ha_1
* cell instance $1383 r0 *1 116.84,73.44
X$1383 5 314 328 286 319 10 10 5 sky130_fd_sc_hd__nand3b_2
* cell instance $1384 r0 *1 120.98,73.44
X$1384 10 286 319 328 329 5 10 5 sky130_fd_sc_hd__and3b_1
* cell instance $1388 r0 *1 124.2,73.44
X$1388 10 328 10 5 303 5 sky130_fd_sc_hd__inv_1
* cell instance $1390 r0 *1 126.04,73.44
X$1390 10 292 329 250 330 5 357 10 5 sky130_fd_sc_hd__nor4b_1
* cell instance $1392 r0 *1 130.18,73.44
X$1392 5 334 330 250 314 289 10 10 5 sky130_fd_sc_hd__a211oi_2
* cell instance $1397 m0 *1 10.12,78.88
X$1397 10 327 344 5 10 5 sky130_fd_sc_hd__clkbuf_1
* cell instance $1401 m0 *1 17.94,78.88