
* cell uart
* pin s_axis_tdata[1]
* pin s_axis_tdata[0]
* pin rxd
* pin m_axis_tdata[7]
* pin m_axis_tdata[6]
* pin rx_frame_error
* pin m_axis_tdata[5]
* pin m_axis_tdata[4]
* pin m_axis_tdata[3]
* pin s_axis_tdata[3]
* pin s_axis_tdata[2]
* pin s_axis_tdata[4]
* pin m_axis_tdata[2]
* pin s_axis_tdata[5]
* pin m_axis_tdata[1]
* pin m_axis_tdata[0]
* pin s_axis_tdata[6]
* pin m_axis_tvalid
* pin s_axis_tdata[7]
* pin m_axis_tready
* pin txd
* pin s_axis_tready
* pin rst
* pin rx_overrun_error
* pin s_axis_tvalid
* pin tx_busy
* pin rx_busy
* pin prescale[1]
* pin prescale[0]
* pin prescale[2]
* pin clk
* pin prescale[5]
* pin prescale[11]
* pin prescale[9]
* pin prescale[4]
* pin prescale[15]
* pin prescale[14]
* pin prescale[6]
* pin prescale[13]
* pin prescale[7]
* pin prescale[12]
* pin prescale[8]
* pin prescale[10]
* pin prescale[3]
.SUBCKT uart 1 2 3 4 5 6 7 8 38 49 62 63 74 101 109 123 139 142 148 156 165 166
+ 174 175 194 202 211 270 283 306 317 578 585 586 587 588 589 590 591 592 593
+ 594 595 596
* net 1 s_axis_tdata[1]
* net 2 s_axis_tdata[0]
* net 3 rxd
* net 4 m_axis_tdata[7]
* net 5 m_axis_tdata[6]
* net 6 rx_frame_error
* net 7 m_axis_tdata[5]
* net 8 m_axis_tdata[4]
* net 38 m_axis_tdata[3]
* net 49 s_axis_tdata[3]
* net 62 s_axis_tdata[2]
* net 63 s_axis_tdata[4]
* net 74 m_axis_tdata[2]
* net 101 s_axis_tdata[5]
* net 109 m_axis_tdata[1]
* net 123 m_axis_tdata[0]
* net 139 s_axis_tdata[6]
* net 142 m_axis_tvalid
* net 148 s_axis_tdata[7]
* net 156 m_axis_tready
* net 165 txd
* net 166 s_axis_tready
* net 174 rst
* net 175 rx_overrun_error
* net 194 s_axis_tvalid
* net 202 tx_busy
* net 211 rx_busy
* net 270 prescale[1]
* net 283 prescale[0]
* net 306 prescale[2]
* net 317 clk
* net 578 prescale[5]
* net 585 prescale[11]
* net 586 prescale[9]
* net 587 prescale[4]
* net 588 prescale[15]
* net 589 prescale[14]
* net 590 prescale[6]
* net 591 prescale[13]
* net 592 prescale[7]
* net 593 prescale[12]
* net 594 prescale[8]
* net 595 prescale[10]
* net 596 prescale[3]
* cell instance $3 m0 *1 26.22,10.88
X$3 17 1 23 12 17 12 sky130_fd_sc_hd__clkbuf_1
* cell instance $6 r0 *1 29.44,5.44
X$6 17 2 56 12 17 12 sky130_fd_sc_hd__clkbuf_1
* cell instance $9 m0 *1 49.22,10.88
X$9 17 3 25 12 17 12 sky130_fd_sc_hd__clkbuf_1
* cell instance $12 r0 *1 66.24,5.44
X$12 17 19 4 12 17 12 sky130_fd_sc_hd__clkbuf_1
* cell instance $14 r0 *1 76.36,5.44
X$14 17 15 5 12 17 12 sky130_fd_sc_hd__clkbuf_1
* cell instance $18 r0 *1 85.1,5.44
X$18 17 18 6 12 17 12 sky130_fd_sc_hd__clkbuf_1
* cell instance $21 r0 *1 86.48,5.44
X$21 17 16 7 12 17 12 sky130_fd_sc_hd__clkbuf_1
* cell instance $24 r0 *1 93.84,5.44
X$24 17 24 8 12 17 12 sky130_fd_sc_hd__clkbuf_1
* cell instance $26 r0 *1 64.86,5.44
X$26 17 13 9 27 12 17 12 sky130_fd_sc_hd__nor2_1
* cell instance $28 r0 *1 67.62,5.44
X$28 12 9 19 30 10 17 17 12 sky130_fd_sc_hd__mux2i_1
* cell instance $38 m0 *1 104.88,32.64
X$38 12 108 96 97 10 17 17 12 sky130_fd_sc_hd__mux2i_1
* cell instance $40 m0 *1 82.34,10.88
X$40 12 21 16 35 10 17 17 12 sky130_fd_sc_hd__mux2i_1
* cell instance $42 r0 *1 102.12,16.32
X$42 12 37 34 46 10 17 17 12 sky130_fd_sc_hd__mux2i_1
* cell instance $45 m0 *1 76.82,10.88
X$45 12 11 15 45 10 17 17 12 sky130_fd_sc_hd__mux2i_1
* cell instance $49 r0 *1 92.92,10.88
X$49 12 22 24 33 10 17 17 12 sky130_fd_sc_hd__mux2i_1
* cell instance $52 r0 *1 103.96,21.76
X$52 12 59 67 66 10 17 17 12 sky130_fd_sc_hd__mux2i_1
* cell instance $54 r0 *1 102.12,27.2
X$54 12 112 88 87 10 17 17 12 sky130_fd_sc_hd__mux2i_1
* cell instance $57 r0 *1 74.98,27.2
X$57 12 122 92 10 17 17 12 sky130_fd_sc_hd__nor2_8
* cell instance $62 r0 *1 71.3,5.44
X$62 17 13 11 20 12 17 12 sky130_fd_sc_hd__nor2_1
* cell instance $152 m0 *1 61.64,10.88
X$152 12 19 14 27 17 17 12 sky130_fd_sc_hd__dfxtp_1
* cell instance $154 m0 *1 69.46,10.88
X$154 12 15 14 20 17 17 12 sky130_fd_sc_hd__dfxtp_1
* cell instance $158 m0 *1 80.96,10.88
X$158 17 13 21 28 12 17 12 sky130_fd_sc_hd__nor2_1
* cell instance $161 m0 *1 88.32,10.88
X$161 12 24 29 26 17 17 12 sky130_fd_sc_hd__dfxtp_1
* cell instance $201 r0 *1 80.04,10.88
X$201 12 16 29 28 17 17 12 sky130_fd_sc_hd__dfxtp_1
* cell instance $204 r0 *1 91.54,10.88
X$204 17 13 22 26 12 17 12 sky130_fd_sc_hd__nor2_1
* cell instance $238 m0 *1 64.86,16.32
X$238 17 30 31 40 17 12 12 sky130_fd_sc_hd__and2_0
* cell instance $242 m0 *1 72.22,16.32
X$242 12 36 35 14 41 17 17 12 sky130_fd_sc_hd__edfxtp_1
* cell instance $245 m0 *1 83.26,16.32
X$245 17 35 31 32 17 12 12 sky130_fd_sc_hd__and2_0
* cell instance $246 m0 *1 85.56,16.32
X$246 17 33 31 42 17 12 12 sky130_fd_sc_hd__and2_0
* cell instance $248 m0 *1 88.32,16.32
X$248 12 36 33 29 32 17 17 12 sky130_fd_sc_hd__edfxtp_1
* cell instance $249 m0 *1 99.36,16.32
X$249 12 34 29 39 17 17 12 sky130_fd_sc_hd__dfxtp_1
* cell instance $253 m0 *1 108.56,16.32
X$253 17 34 38 12 17 12 sky130_fd_sc_hd__clkbuf_1
* cell instance $256 r0 *1 7.36,16.32
X$256 12 43 52 47 48 17 17 12 sky130_fd_sc_hd__edfxtp_1
* cell instance $263 r0 *1 24.38,16.32
X$263 12 55 23 54 44 17 17 12 sky130_fd_sc_hd__mux2_1
* cell instance $279 r0 *1 63.02,16.32
X$279 12 36 45 14 40 17 17 12 sky130_fd_sc_hd__edfxtp_1
* cell instance $282 r0 *1 74.52,16.32
X$282 17 45 31 41 17 12 12 sky130_fd_sc_hd__and2_0
* cell instance $287 r0 *1 85.56,16.32
X$287 12 36 46 29 42 17 17 12 sky130_fd_sc_hd__edfxtp_1
* cell instance $290 r0 *1 100.28,16.32
X$290 17 13 37 39 12 17 12 sky130_fd_sc_hd__nor2_1
* cell instance $296 m0 *1 6.44,21.76
X$296 17 49 50 12 17 12 sky130_fd_sc_hd__clkbuf_1
* cell instance $300 m0 *1 16.1,21.76
X$300 12 43 54 47 51 17 17 12 sky130_fd_sc_hd__edfxtp_1
* cell instance $303 m0 *1 27.14,21.76
X$303 12 89 56 61 44 17 17 12 sky130_fd_sc_hd__mux2_1
* cell instance $321 m0 *1 62.1,21.76
X$321 12 36 30 14 53 17 17 12 sky130_fd_sc_hd__edfxtp_1
* cell instance $330 m0 *1 88.78,21.76
X$330 17 46 31 68 17 12 12 sky130_fd_sc_hd__and2_0
* cell instance $339 r0 *1 5.06,21.76
X$339 12 43 69 47 57 17 17 12 sky130_fd_sc_hd__edfxtp_1
* cell instance $342 r0 *1 17.48,21.76
X$342 17 62 77 12 17 12 sky130_fd_sc_hd__clkbuf_1
* cell instance $347 r0 *1 22.08,21.76
X$347 12 43 61 47 55 17 17 12 sky130_fd_sc_hd__edfxtp_1
* cell instance $358 r0 *1 50.14,21.76
X$358 17 25 58 70 12 17 12 sky130_fd_sc_hd__or2_0
* cell instance $362 r0 *1 60.26,21.76
X$362 17 58 12 13 17 12 sky130_fd_sc_hd__clkbuf_4
* cell instance $370 r0 *1 79.12,21.76
X$370 12 18 29 60 17 17 12 sky130_fd_sc_hd__dfxtp_1
* cell instance $373 r0 *1 89.24,21.76
X$373 12 36 66 29 68 17 17 12 sky130_fd_sc_hd__edfxtp_1
* cell instance $379 r0 *1 102.58,21.76
X$379 17 13 59 78 12 17 12 sky130_fd_sc_hd__nor2_1
* cell instance $383 m0 *1 5.52,27.2
X$383 17 63 75 12 17 12 sky130_fd_sc_hd__clkbuf_1
* cell instance $385 m0 *1 7.36,27.2
X$385 12 57 75 76 44 17 17 12 sky130_fd_sc_hd__mux2_1
* cell instance $386 m0 *1 11.5,27.2
X$386 12 48 50 69 44 17 17 12 sky130_fd_sc_hd__mux2_1
* cell instance $388 m0 *1 16.1,27.2
X$388 12 51 77 52 44 17 17 12 sky130_fd_sc_hd__mux2_1
* cell instance $406 m0 *1 52.9,27.2
X$406 12 83 14 70 17 17 12 sky130_fd_sc_hd__dfxtp_1
* cell instance $410 m0 *1 62.1,27.2
X$410 17 73 31 53 17 12 12 sky130_fd_sc_hd__and2_0
* cell instance $416 m0 *1 73.6,27.2
X$416 17 82 81 64 65 17 12 12 sky130_fd_sc_hd__nand3_1
* cell instance $418 m0 *1 79.12,27.2
X$418 17 81 73 94 64 17 92 12 12 sky130_fd_sc_hd__nand4_1
* cell instance $419 m0 *1 81.42,27.2
X$419 17 73 80 65 60 12 17 12 sky130_fd_sc_hd__nor3_1
* cell instance $424 m0 *1 90.16,27.2
X$424 17 66 31 79 17 12 12 sky130_fd_sc_hd__and2_0
* cell instance $431 m0 *1 101.2,27.2
X$431 12 67 29 78 17 17 12 sky130_fd_sc_hd__dfxtp_1
* cell instance $432 m0 *1 108.56,27.2
X$432 17 67 74 12 17 12 sky130_fd_sc_hd__clkbuf_1
* cell instance $433 r0 *1 5.06,27.2
X$433 12 43 76 47 71 17 17 12 sky130_fd_sc_hd__edfxtp_1
* cell instance $440 r0 *1 23.92,27.2
X$440 12 43 98 126 89 17 17 12 sky130_fd_sc_hd__edfxtp_1
* cell instance $450 r0 *1 50.14,27.2
X$450 12 85 14 72 17 17 12 sky130_fd_sc_hd__dfxtp_1
* cell instance $451 r0 *1 57.5,27.2
X$451 17 13 90 72 12 17 12 sky130_fd_sc_hd__nor2_1
* cell instance $452 r0 *1 58.88,27.2
X$452 17 13 84 99 12 17 12 sky130_fd_sc_hd__nor2_1
* cell instance $454 r0 *1 60.72,27.2
X$454 17 85 17 12 95 12 sky130_fd_sc_hd__inv_1
* cell instance $457 r0 *1 63.48,27.2
X$457 17 83 12 73 17 12 sky130_fd_sc_hd__clkbuf_4
* cell instance $460 r0 *1 67.62,27.2
X$460 12 86 14 17 17 12 sky130_fd_sc_hd__clkbuf_8
* cell instance $462 r0 *1 72.68,27.2
X$462 17 91 93 81 12 17 12 sky130_fd_sc_hd__nor2_1
* cell instance $466 r0 *1 82.8,27.2
X$466 12 86 29 17 17 12 sky130_fd_sc_hd__clkbuf_8
* cell instance $468 r0 *1 88.32,27.2
X$468 12 36 87 29 79 17 17 12 sky130_fd_sc_hd__edfxtp_1
* cell instance $475 r0 *1 107.18,27.2
X$475 17 88 109 12 17 12 sky130_fd_sc_hd__clkbuf_1
* cell instance $486 m0 *1 5.06,32.64
X$486 17 101 102 12 17 12 sky130_fd_sc_hd__clkbuf_1
* cell instance $487 m0 *1 6.44,32.64
X$487 12 71 102 110 44 17 17 12 sky130_fd_sc_hd__mux2_1
* cell instance $501 m0 *1 49.22,32.64
X$501 12 94 14 99 17 17 12 sky130_fd_sc_hd__dfxtp_1
* cell instance $502 m0 *1 56.58,32.64
X$502 12 84 94 135 114 17 17 12 sky130_fd_sc_hd__mux2i_1
* cell instance $505 m0 *1 61.18,32.64
X$505 12 597 82 94 95 17 17 12 sky130_fd_sc_hd__ha_1
* cell instance $506 m0 *1 65.78,32.64
X$506 17 64 83 104 12 17 100 12 sky130_fd_sc_hd__a21oi_1
* cell instance $507 m0 *1 67.62,32.64
X$507 12 14 17 17 12 sky130_fd_sc_hd__bufinv_16
* cell instance $508 m0 *1 78.66,32.64
X$508 12 129 80 36 17 17 12 sky130_fd_sc_hd__nor2_8
* cell instance $512 m0 *1 88.78,32.64
X$512 17 87 31 115 17 12 12 sky130_fd_sc_hd__and2_0
* cell instance $513 m0 *1 91.08,32.64
X$513 12 36 97 29 115 17 17 12 sky130_fd_sc_hd__edfxtp_1
* cell instance $514 m0 *1 102.12,32.64
X$514 17 13 112 113 12 17 12 sky130_fd_sc_hd__nor2_1
* cell instance $515 m0 *1 103.5,32.64
X$515 17 13 108 125 12 17 12 sky130_fd_sc_hd__nor2_1
* cell instance $516 m0 *1 108.56,32.64
X$516 17 96 123 12 17 12 sky130_fd_sc_hd__clkbuf_1
* cell instance $519 r0 *1 7.82,32.64
X$519 12 43 110 47 124 17 17 12 sky130_fd_sc_hd__edfxtp_1
* cell instance $527 r0 *1 33.12,32.64
X$527 12 103 126 117 17 17 12 sky130_fd_sc_hd__dfxtp_2
* cell instance $528 r0 *1 40.94,32.64
X$528 17 118 103 127 111 12 17 12 sky130_fd_sc_hd__nor3_1
* cell instance $529 r0 *1 42.78,32.64
X$529 17 118 103 134 12 17 12 sky130_fd_sc_hd__nor2b_1
* cell instance $536 r0 *1 54.28,32.64
X$536 12 598 137 119 95 17 17 12 sky130_fd_sc_hd__ha_1
* cell instance $537 r0 *1 58.88,32.64
X$537 12 138 104 119 95 17 17 12 sky130_fd_sc_hd__ha_1
* cell instance $538 r0 *1 63.48,32.64
X$538 17 104 95 119 12 17 120 12 sky130_fd_sc_hd__a21oi_1
* cell instance $539 r0 *1 65.32,32.64
X$539 17 93 120 136 12 17 12 sky130_fd_sc_hd__nor2_1
* cell instance $541 r0 *1 67.62,32.64
X$541 17 85 104 82 105 17 12 116 12 sky130_fd_sc_hd__o31ai_1
* cell instance $542 r0 *1 70.38,32.64
X$542 17 73 104 105 17 12 12 sky130_fd_sc_hd__nand2_1
* cell instance $543 r0 *1 71.76,32.64
X$543 17 91 121 106 17 12 12 sky130_fd_sc_hd__and2_0
* cell instance $546 r0 *1 74.52,32.64
X$546 12 114 122 116 81 17 17 12 sky130_fd_sc_hd__a21oi_4
* cell instance $547 r0 *1 80.5,32.64
X$547 17 73 106 132 17 12 12 sky130_fd_sc_hd__nand2_1
* cell instance $550 r0 *1 86.02,32.64
X$550 12 131 29 107 17 17 12 sky130_fd_sc_hd__dfxtp_1
* cell instance $556 r0 *1 102.12,32.64
X$556 12 96 29 125 17 17 12 sky130_fd_sc_hd__dfxtp_1
* cell instance $569 m0 *1 8.28,38.08
X$569 17 139 160 12 17 12 sky130_fd_sc_hd__clkbuf_1
* cell instance $572 m0 *1 12.42,38.08
X$572 12 124 160 144 150 17 17 12 sky130_fd_sc_hd__mux2_1
* cell instance $573 m0 *1 16.56,38.08
X$573 12 43 144 126 143 17 17 12 sky130_fd_sc_hd__edfxtp_1
* cell instance $578 m0 *1 33.12,38.08
X$578 17 98 111 161 12 17 12 sky130_fd_sc_hd__nand2b_1
* cell instance $579 m0 *1 35.42,38.08
X$579 17 140 162 117 12 17 12 sky130_fd_sc_hd__nor2_1
* cell instance $581 m0 *1 37.72,38.08
X$581 17 188 127 118 133 12 163 17 12 sky130_fd_sc_hd__nor4_1
* cell instance $582 m0 *1 40.02,38.08
X$582 12 146 118 134 147 17 17 12 sky130_fd_sc_hd__mux2i_1
* cell instance $585 m0 *1 45.08,38.08
X$585 17 140 146 128 12 17 12 sky130_fd_sc_hd__nor2_1
* cell instance $586 m0 *1 46.46,38.08
X$586 12 118 14 128 17 17 12 sky130_fd_sc_hd__dfxtp_2
* cell instance $588 m0 *1 54.74,38.08
X$588 17 94 208 135 12 17 12 sky130_fd_sc_hd__nor2_1
* cell instance $589 m0 *1 56.12,38.08
X$589 12 90 85 164 114 17 17 12 sky130_fd_sc_hd__mux2i_1
* cell instance $593 m0 *1 61.18,38.08
X$593 17 94 17 12 119 12 sky130_fd_sc_hd__inv_1
* cell instance $595 m0 *1 63.48,38.08
X$595 12 121 93 82 137 17 17 12 sky130_fd_sc_hd__o21bai_2
* cell instance $596 m0 *1 67.62,38.08
X$596 17 93 85 94 132 17 12 184 12 sky130_fd_sc_hd__o31ai_1
* cell instance $597 m0 *1 70.38,38.08
X$597 17 91 114 136 12 17 182 12 sky130_fd_sc_hd__a21oi_1
* cell instance $598 m0 *1 72.22,38.08
X$598 17 81 73 82 64 17 141 12 12 sky130_fd_sc_hd__nand4_1
* cell instance $599 m0 *1 74.52,38.08
X$599 12 91 129 93 100 17 17 12 sky130_fd_sc_hd__nor3_4
* cell instance $601 m0 *1 81.42,38.08
X$601 12 80 154 106 155 17 17 12 sky130_fd_sc_hd__or3_4
* cell instance $603 m0 *1 86.02,38.08
X$603 17 130 80 141 145 12 17 12 sky130_fd_sc_hd__nor3_1
* cell instance $605 m0 *1 88.32,38.08
X$605 17 140 159 107 12 17 12 sky130_fd_sc_hd__nor2_1
* cell instance $607 m0 *1 90.62,38.08
X$607 17 131 17 12 130 12 sky130_fd_sc_hd__inv_1
* cell instance $609 m0 *1 92.92,38.08
X$609 12 158 29 145 17 17 12 sky130_fd_sc_hd__dfxtp_1
* cell instance $610 m0 *1 100.28,38.08
X$610 12 88 29 113 17 17 12 sky130_fd_sc_hd__dfxtp_1
* cell instance $611 m0 *1 107.64,38.08
X$611 17 131 142 12 17 12 sky130_fd_sc_hd__clkbuf_1
* cell instance $613 r0 *1 5.06,38.08
X$613 17 167 166 12 17 12 sky130_fd_sc_hd__clkbuf_1
* cell instance $615 r0 *1 6.9,38.08
X$615 17 148 157 12 17 12 sky130_fd_sc_hd__clkbuf_1
* cell instance $616 r0 *1 8.28,38.08
X$616 17 149 167 44 168 17 12 12 sky130_fd_sc_hd__nand3_1
* cell instance $617 r0 *1 10.12,38.08
X$617 17 167 44 168 17 177 12 12 sky130_fd_sc_hd__o21ai_0
* cell instance $619 r0 *1 12.42,38.08
X$619 12 143 157 176 150 17 17 12 sky130_fd_sc_hd__mux2_1
* cell instance $620 r0 *1 16.56,38.08
X$620 17 151 165 12 17 12 sky130_fd_sc_hd__clkbuf_1
* cell instance $626 r0 *1 19.32,38.08
X$626 17 150 12 44 17 12 sky130_fd_sc_hd__clkbuf_4
* cell instance $630 r0 *1 25.3,38.08
X$630 12 151 126 178 17 17 12 sky130_fd_sc_hd__dfxtp_1
* cell instance $631 r0 *1 32.66,38.08
X$631 17 103 149 179 12 17 12 sky130_fd_sc_hd__nor2b_1
* cell instance $632 r0 *1 34.96,38.08
X$632 12 162 103 179 163 17 17 12 sky130_fd_sc_hd__mux2i_1
* cell instance $633 r0 *1 38.64,38.08
X$633 12 127 150 118 103 133 17 17 12 sky130_fd_sc_hd__nor4_4
* cell instance $638 r0 *1 46.92,38.08
X$638 12 183 118 103 127 133 17 17 12 sky130_fd_sc_hd__nor4b_2
* cell instance $640 r0 *1 56.12,38.08
X$640 17 138 152 185 17 164 12 12 sky130_fd_sc_hd__o21ai_0
* cell instance $641 r0 *1 57.96,38.08
X$641 17 137 152 170 17 171 12 12 sky130_fd_sc_hd__o21ai_0
* cell instance $642 r0 *1 59.8,38.08
X$642 17 93 137 114 31 17 187 12 12 sky130_fd_sc_hd__nand4b_1
* cell instance $644 r0 *1 63.94,38.08
X$644 17 91 93 104 186 17 12 12 sky130_fd_sc_hd__or3b_1
* cell instance $645 r0 *1 67.16,38.08
X$645 17 85 104 64 12 17 12 sky130_fd_sc_hd__nor2_1
* cell instance $648 r0 *1 69.92,38.08
X$648 17 184 170 182 91 58 17 153 12 12 sky130_fd_sc_hd__a311oi_1
* cell instance $654 r0 *1 74.52,38.08
X$654 12 181 14 153 17 17 12 sky130_fd_sc_hd__dfxtp_1
* cell instance $655 r0 *1 81.88,38.08
X$655 17 155 12 122 17 12 sky130_fd_sc_hd__buf_2
* cell instance $656 r0 *1 83.72,38.08
X$656 12 159 180 106 141 130 172 17 17 12 sky130_fd_sc_hd__o32a_1
* cell instance $667 r0 *1 102.12,38.08
X$667 17 158 175 12 17 12 sky130_fd_sc_hd__clkbuf_1
* cell instance $668 r0 *1 103.5,38.08
X$668 17 156 172 12 17 12 sky130_fd_sc_hd__clkbuf_1
* cell instance $669 r0 *1 104.88,38.08
X$669 12 154 174 17 17 12 sky130_fd_sc_hd__dlymetal6s2s_1
* cell instance $671 m0 *1 5.06,43.52
X$671 12 190 176 47 44 17 17 12 sky130_fd_sc_hd__edfxtp_1
* cell instance $672 m0 *1 16.1,43.52
X$672 12 86 47 17 17 12 sky130_fd_sc_hd__clkbuf_8
* cell instance $675 m0 *1 25.3,43.52
X$675 17 150 149 193 12 17 12 sky130_fd_sc_hd__nand2b_1
* cell instance $677 m0 *1 29.44,43.52
X$677 17 126 17 12 12 sky130_fd_sc_hd__inv_6
* cell instance $679 m0 *1 33.12,43.52
X$679 12 86 126 17 17 12 sky130_fd_sc_hd__clkbuf_8
* cell instance $681 m0 *1 38.64,43.52
X$681 17 127 133 150 188 215 17 12 12 sky130_fd_sc_hd__or4_1
* cell instance $683 m0 *1 42.32,43.52
X$683 12 127 126 189 17 17 12 sky130_fd_sc_hd__dfxtp_2
* cell instance $685 m0 *1 51.06,43.52
X$685 12 217 14 169 17 17 12 sky130_fd_sc_hd__dfxtp_1
* cell instance $686 m0 *1 58.42,43.52
X$686 17 140 199 187 12 17 169 12 sky130_fd_sc_hd__a21oi_1
* cell instance $690 m0 *1 63.48,43.52
X$690 12 91 152 73 121 17 17 12 sky130_fd_sc_hd__and3_1
* cell instance $692 m0 *1 66.24,43.52
X$692 17 186 12 196 17 12 sky130_fd_sc_hd__buf_2
* cell instance $693 m0 *1 68.08,43.52
X$693 12 91 93 192 104 17 17 12 sky130_fd_sc_hd__nor3b_4
* cell instance $696 m0 *1 76.36,43.52
X$696 17 181 12 91 17 12 sky130_fd_sc_hd__clkbuf_4
* cell instance $698 m0 *1 79.58,43.52
X$698 17 73 155 196 191 17 12 12 sky130_fd_sc_hd__or3_1
* cell instance $702 m0 *1 85.1,43.52
X$702 17 140 191 197 12 17 173 12 sky130_fd_sc_hd__a21oi_1
* cell instance $705 m0 *1 88.32,43.52
X$705 12 210 29 173 17 17 12 sky130_fd_sc_hd__dfxtp_1
* cell instance $714 r0 *1 6.44,43.52
X$714 12 149 194 17 17 12 sky130_fd_sc_hd__dlymetal6s2s_1
* cell instance $715 r0 *1 11.04,43.52
X$715 12 190 43 17 17 12 sky130_fd_sc_hd__buf_6
* cell instance $716 r0 *1 15.18,43.52
X$716 17 47 17 12 12 sky130_fd_sc_hd__clkinv_2
* cell instance $717 r0 *1 17.02,43.52
X$717 17 200 203 177 226 12 17 12 sky130_fd_sc_hd__nor3_1
* cell instance $722 r0 *1 21.62,43.52
X$722 17 212 44 213 12 17 228 12 sky130_fd_sc_hd__a21oi_1
* cell instance $724 r0 *1 23.92,43.52
X$724 17 193 213 205 17 12 12 sky130_fd_sc_hd__nand2_1
* cell instance $725 r0 *1 25.3,43.52
X$725 17 150 149 12 17 195 12 sky130_fd_sc_hd__nor2b_2
* cell instance $727 r0 *1 29.44,43.52
X$727 17 206 58 151 205 17 178 12 12 sky130_fd_sc_hd__a211o_1
* cell instance $728 r0 *1 32.66,43.52
X$728 17 58 12 200 17 12 sky130_fd_sc_hd__clkbuf_4
* cell instance $729 r0 *1 35.42,43.52
X$729 12 12 111 214 133 17 17 sky130_fd_sc_hd__nand2_2
* cell instance $731 r0 *1 38.18,43.52
X$731 17 133 203 127 17 201 12 12 sky130_fd_sc_hd__o21ai_0
* cell instance $732 r0 *1 40.02,43.52
X$732 17 140 201 215 12 17 189 12 sky130_fd_sc_hd__a21oi_1
* cell instance $734 r0 *1 42.78,43.52
X$734 17 127 133 188 147 12 17 12 sky130_fd_sc_hd__nor3_1
* cell instance $743 r0 *1 57.5,43.52
X$743 17 217 12 93 17 12 sky130_fd_sc_hd__buf_2
* cell instance $744 r0 *1 59.34,43.52
X$744 17 93 171 199 17 12 12 sky130_fd_sc_hd__nand2_1
* cell instance $745 r0 *1 60.72,43.52
X$745 17 196 12 185 17 12 sky130_fd_sc_hd__buf_2
* cell instance $747 r0 *1 66.24,43.52
X$747 12 121 91 73 198 192 17 17 12 sky130_fd_sc_hd__a31oi_4
* cell instance $750 r0 *1 74.52,43.52
X$750 17 192 73 91 121 216 17 12 12 sky130_fd_sc_hd__a31o_2
* cell instance $752 r0 *1 78.66,43.52
X$752 17 196 12 31 17 12 sky130_fd_sc_hd__buf_2
* cell instance $753 r0 *1 80.5,43.52
X$753 12 155 209 17 17 12 sky130_fd_sc_hd__buf_6
* cell instance $754 r0 *1 84.64,43.52
X$754 17 209 31 210 17 197 12 12 sky130_fd_sc_hd__o21ai_0
* cell instance $758 r0 *1 95.68,43.52
X$758 17 210 211 12 17 12 sky130_fd_sc_hd__clkbuf_1
* cell instance $774 m0 *1 5.06,48.96
X$774 17 212 202 12 17 12 sky130_fd_sc_hd__clkbuf_1
* cell instance $776 m0 *1 6.9,48.96
X$776 12 167 47 226 17 17 12 sky130_fd_sc_hd__dfxtp_1
* cell instance $777 m0 *1 14.26,48.96
X$777 12 212 126 227 17 17 12 sky130_fd_sc_hd__dfxtp_1
* cell instance $778 m0 *1 21.62,48.96
X$778 17 204 228 227 12 17 12 sky130_fd_sc_hd__nor2_1
* cell instance $780 m0 *1 23.46,48.96
X$780 17 188 12 203 17 12 sky130_fd_sc_hd__buf_2
* cell instance $781 m0 *1 25.3,48.96
X$781 12 200 190 207 205 17 17 12 sky130_fd_sc_hd__nor3_4
* cell instance $785 m0 *1 33.12,48.96
X$785 17 203 214 161 12 17 206 12 sky130_fd_sc_hd__a21oi_1
* cell instance $788 m0 *1 37.26,48.96
X$788 12 251 231 203 133 17 17 12 sky130_fd_sc_hd__mux2i_1
* cell instance $791 m0 *1 45.54,48.96
X$791 17 234 12 133 17 12 sky130_fd_sc_hd__buf_2
* cell instance $794 m0 *1 51.52,48.96
X$794 17 183 12 207 17 12 sky130_fd_sc_hd__clkbuf_4
* cell instance $795 m0 *1 54.28,48.96
X$795 17 58 12 140 17 12 sky130_fd_sc_hd__clkbuf_4
* cell instance $801 m0 *1 62.56,48.96
X$801 12 229 220 233 17 17 12 sky130_fd_sc_hd__dfxtp_1
* cell instance $804 m0 *1 71.3,48.96
X$804 17 216 12 208 17 12 sky130_fd_sc_hd__clkbuf_4
* cell instance $807 m0 *1 78.2,48.96
X$807 17 154 12 58 17 12 sky130_fd_sc_hd__clkbuf_4
* cell instance $808 m0 *1 80.96,48.96
X$808 17 209 132 225 12 17 12 sky130_fd_sc_hd__nor2_1
* cell instance $821 r0 *1 5.98,48.96
X$821 12 218 47 245 17 17 12 sky130_fd_sc_hd__dfxtp_1
* cell instance $824 r0 *1 14.72,48.96
X$824 17 218 17 12 247 12 sky130_fd_sc_hd__inv_1
* cell instance $832 r0 *1 27.6,48.96
X$832 12 237 126 230 17 17 12 sky130_fd_sc_hd__dfxtp_1
* cell instance $835 r0 *1 37.72,48.96
X$835 17 140 251 232 12 17 12 sky130_fd_sc_hd__nor2_1
* cell instance $836 r0 *1 39.1,48.96
X$836 12 234 126 232 17 17 12 sky130_fd_sc_hd__dfxtp_1
* cell instance $843 r0 *1 61.64,48.96
X$843 17 170 240 219 17 255 12 12 sky130_fd_sc_hd__o21ai_0
* cell instance $846 r0 *1 65.78,48.96
X$846 17 242 229 240 17 12 12 sky130_fd_sc_hd__xnor2_1
* cell instance $848 r0 *1 69.46,48.96
X$848 17 243 221 250 17 12 12 sky130_fd_sc_hd__xnor2_1
* cell instance $850 r0 *1 72.68,48.96
X$850 17 243 222 242 17 12 12 sky130_fd_sc_hd__nand2_1
* cell instance $852 r0 *1 74.52,48.96
X$852 12 229 223 249 221 17 17 12 sky130_fd_sc_hd__nor3_2
* cell instance $854 r0 *1 78.66,48.96
X$854 17 129 295 154 12 17 260 12 sky130_fd_sc_hd__a21o_1
* cell instance $857 r0 *1 83.72,48.96
X$857 12 244 246 224 17 17 12 sky130_fd_sc_hd__dfxtp_1
* cell instance $871 m0 *1 10.12,54.4
X$871 17 235 259 203 12 17 245 12 sky130_fd_sc_hd__a21oi_1
* cell instance $872 m0 *1 11.96,54.4
X$872 17 285 235 314 12 17 12 sky130_fd_sc_hd__nor2_1
* cell instance $873 m0 *1 13.34,54.4
X$873 12 259 261 297 247 17 17 12 sky130_fd_sc_hd__ha_1
* cell instance $874 m0 *1 17.94,54.4
X$874 12 274 47 263 17 17 12 sky130_fd_sc_hd__dfxtp_1
* cell instance $879 m0 *1 28.06,54.4
X$879 17 236 231 237 273 12 264 17 12 sky130_fd_sc_hd__a211oi_1
* cell instance $884 m0 *1 37.26,54.4
X$884 17 253 214 266 17 12 12 sky130_fd_sc_hd__nand2_1
* cell instance $887 m0 *1 41.4,54.4
X$887 17 269 207 268 17 236 12 12 sky130_fd_sc_hd__o21ai_0
* cell instance $894 m0 *1 56.12,54.4
X$894 17 267 277 208 269 185 219 17 12 12 sky130_fd_sc_hd__o221ai_1
* cell instance $897 m0 *1 60.72,54.4
X$897 17 239 238 241 12 17 12 sky130_fd_sc_hd__nor2_1
* cell instance $898 m0 *1 62.1,54.4
X$898 17 239 255 233 12 17 12 sky130_fd_sc_hd__nor2_1
* cell instance $899 m0 *1 63.48,54.4
X$899 12 249 220 241 17 17 12 sky130_fd_sc_hd__dfxtp_1
* cell instance $900 m0 *1 70.84,54.4
X$900 12 221 220 257 17 17 12 sky130_fd_sc_hd__dfxtp_1
* cell instance $904 m0 *1 78.66,54.4
X$904 12 260 248 17 17 12 sky130_fd_sc_hd__buf_6
* cell instance $905 m0 *1 82.8,54.4
X$905 17 256 284 225 248 12 224 17 12 sky130_fd_sc_hd__a211oi_1
* cell instance $921 r0 *1 7.82,54.4
X$921 17 283 17 12 253 12 sky130_fd_sc_hd__clkbuf_2
* cell instance $922 r0 *1 9.66,54.4
X$922 12 288 47 271 17 17 12 sky130_fd_sc_hd__dfxtp_1
* cell instance $923 r0 *1 17.02,54.4
X$923 17 235 203 299 12 17 271 12 sky130_fd_sc_hd__a21oi_1
* cell instance $926 r0 *1 19.32,54.4
X$926 17 218 288 285 262 17 12 12 sky130_fd_sc_hd__or3_1
* cell instance $927 r0 *1 21.62,54.4
X$927 12 307 273 261 188 17 17 12 sky130_fd_sc_hd__and3_1
* cell instance $928 r0 *1 23.92,54.4
X$928 17 274 237 272 12 17 12 sky130_fd_sc_hd__nor2_1
* cell instance $929 r0 *1 25.3,54.4
X$929 12 301 274 213 262 265 237 17 17 12 sky130_fd_sc_hd__o41ai_1
* cell instance $930 r0 *1 28.52,54.4
X$930 17 273 237 200 264 12 230 17 12 sky130_fd_sc_hd__a211oi_1
* cell instance $932 r0 *1 32.2,54.4
X$932 17 195 188 286 12 17 12 sky130_fd_sc_hd__nor2_1
* cell instance $933 r0 *1 33.58,54.4
X$933 17 275 265 200 305 12 304 17 12 sky130_fd_sc_hd__a211oi_1
* cell instance $935 r0 *1 37.26,54.4
X$935 17 266 252 275 286 265 17 305 12 12 sky130_fd_sc_hd__a311oi_1
* cell instance $937 r0 *1 40.94,54.4
X$937 17 254 207 252 17 12 12 sky130_fd_sc_hd__nand2_1
* cell instance $938 r0 *1 42.32,54.4
X$938 17 276 207 268 17 12 12 sky130_fd_sc_hd__nand2_1
* cell instance $941 r0 *1 45.08,54.4
X$941 17 276 17 12 287 12 sky130_fd_sc_hd__inv_1
* cell instance $944 r0 *1 46.92,54.4
X$944 12 269 293 254 287 17 17 12 sky130_fd_sc_hd__ha_1
* cell instance $946 r0 *1 53.36,54.4
X$946 17 253 17 12 254 12 sky130_fd_sc_hd__inv_1
* cell instance $947 r0 *1 54.74,54.4
X$947 17 208 253 185 269 278 12 17 12 sky130_fd_sc_hd__o22ai_1
* cell instance $948 r0 *1 57.04,54.4
X$948 17 152 192 277 302 12 17 12 sky130_fd_sc_hd__nor3_1
* cell instance $951 r0 *1 61.64,54.4
X$951 17 192 254 209 198 12 300 17 12 sky130_fd_sc_hd__a211oi_1
* cell instance $954 r0 *1 65.78,54.4
X$954 17 256 278 279 17 238 12 12 sky130_fd_sc_hd__o21ai_0
* cell instance $955 r0 *1 67.62,54.4
X$955 17 280 249 17 279 12 12 sky130_fd_sc_hd__xor2_1
* cell instance $956 r0 *1 70.84,54.4
X$956 17 250 256 248 300 12 257 17 12 sky130_fd_sc_hd__a211oi_1
* cell instance $960 r0 *1 74.52,54.4
X$960 17 249 221 222 12 17 12 sky130_fd_sc_hd__nor2_1
* cell instance $962 r0 *1 76.82,54.4
X$962 17 209 208 281 12 17 12 sky130_fd_sc_hd__nor2_1
* cell instance $963 r0 *1 78.2,54.4
X$963 17 221 244 258 280 12 17 12 sky130_fd_sc_hd__nor3_1
* cell instance $964 r0 *1 80.04,54.4
X$964 17 281 282 256 12 17 298 12 sky130_fd_sc_hd__a21oi_1
* cell instance $965 r0 *1 81.88,54.4
X$965 12 284 243 282 296 17 17 12 sky130_fd_sc_hd__ha_1
* cell instance $966 r0 *1 86.48,54.4
X$966 17 258 17 12 282 12 sky130_fd_sc_hd__inv_1
* cell instance $986 m0 *1 5.98,59.84
X$986 12 285 47 314 17 17 12 sky130_fd_sc_hd__dfxtp_1
* cell instance $987 m0 *1 13.34,59.84
X$987 17 285 17 12 297 12 sky130_fd_sc_hd__inv_1
* cell instance $989 m0 *1 15.64,59.84
X$989 17 261 288 299 17 12 12 sky130_fd_sc_hd__xnor2_1
* cell instance $990 m0 *1 18.86,59.84
X$990 17 218 285 289 12 17 12 sky130_fd_sc_hd__nor2_1
* cell instance $992 m0 *1 20.7,59.84
X$992 17 265 288 307 12 17 12 sky130_fd_sc_hd__nor2_1
* cell instance $993 m0 *1 22.08,59.84
X$993 12 289 290 272 307 17 17 12 sky130_fd_sc_hd__and3_1
* cell instance $994 m0 *1 24.38,59.84
X$994 17 200 301 291 12 17 263 12 sky130_fd_sc_hd__a21oi_1
* cell instance $995 m0 *1 26.22,59.84
X$995 17 292 231 290 203 17 291 12 12 sky130_fd_sc_hd__a22oi_1
* cell instance $996 m0 *1 28.98,59.84
X$996 17 262 338 275 12 17 12 sky130_fd_sc_hd__nor2_1
* cell instance $1000 m0 *1 33.12,59.84
X$1000 12 265 341 304 17 17 12 sky130_fd_sc_hd__dfxtp_1
* cell instance $1001 m0 *1 40.48,59.84
X$1001 17 303 308 292 17 12 12 sky130_fd_sc_hd__xnor2_1
* cell instance $1003 m0 *1 44.16,59.84
X$1003 17 293 214 303 17 12 12 sky130_fd_sc_hd__nand2_1
* cell instance $1007 m0 *1 50.6,59.84
X$1007 17 293 308 277 17 12 12 sky130_fd_sc_hd__xnor2_1
* cell instance $1008 m0 *1 53.82,59.84
X$1008 12 317 86 17 17 12 sky130_fd_sc_hd__clkbuf_8
* cell instance $1012 m0 *1 60.72,59.84
X$1012 17 302 196 318 17 12 311 12 sky130_fd_sc_hd__o21bai_1
* cell instance $1018 m0 *1 77.28,59.84
X$1018 17 129 180 294 12 17 12 sky130_fd_sc_hd__nor2_1
* cell instance $1019 m0 *1 78.66,59.84
X$1019 17 129 295 312 12 17 315 12 sky130_fd_sc_hd__a21o_1
* cell instance $1020 m0 *1 81.42,59.84
X$1020 17 296 282 223 312 17 12 12 sky130_fd_sc_hd__nand3_1
* cell instance $1022 m0 *1 83.72,59.84
X$1022 17 244 17 12 296 12 sky130_fd_sc_hd__inv_1
* cell instance $1023 m0 *1 85.1,59.84
X$1023 17 239 298 313 12 17 12 sky130_fd_sc_hd__nor2_1
* cell instance $1027 m0 *1 88.32,59.84
X$1027 12 258 246 313 17 17 12 sky130_fd_sc_hd__dfxtp_1
* cell instance $1036 r0 *1 6.44,59.84
X$1036 17 270 17 12 276 12 sky130_fd_sc_hd__clkbuf_2
* cell instance $1040 r0 *1 14.72,59.84
X$1040 17 306 12 308 17 12 sky130_fd_sc_hd__buf_2
* cell instance $1048 r0 *1 20.24,59.84
X$1048 17 261 272 307 337 17 12 12 sky130_fd_sc_hd__nand3_1
* cell instance $1049 r0 *1 22.08,59.84
X$1049 12 272 336 261 307 17 17 12 sky130_fd_sc_hd__and3_1
* cell instance $1053 r0 *1 32.66,59.84
X$1053 17 286 12 231 17 12 sky130_fd_sc_hd__buf_2
* cell instance $1057 r0 *1 40.48,59.84
X$1057 12 253 322 308 276 17 17 12 sky130_fd_sc_hd__nor3_4
* cell instance $1064 r0 *1 49.22,59.84
X$1064 12 316 308 323 293 17 17 12 sky130_fd_sc_hd__nor3b_2
* cell instance $1066 r0 *1 57.5,59.84
X$1066 17 322 323 318 17 12 12 sky130_fd_sc_hd__xnor2_1
* cell instance $1068 r0 *1 61.18,59.84
X$1068 17 239 334 333 12 17 12 sky130_fd_sc_hd__nor2_1
* cell instance $1070 r0 *1 66.24,59.84
X$1070 17 325 324 17 332 12 12 sky130_fd_sc_hd__xor2_1
* cell instance $1071 r0 *1 69.46,59.84
X$1071 17 295 12 170 17 12 sky130_fd_sc_hd__buf_2
* cell instance $1072 r0 *1 71.3,59.84
X$1072 17 239 330 331 12 17 12 sky130_fd_sc_hd__nor2_1
* cell instance $1080 r0 *1 74.98,59.84
X$1080 17 140 309 329 12 17 12 sky130_fd_sc_hd__nor2_1
* cell instance $1081 r0 *1 76.36,59.84
X$1081 12 309 315 294 310 326 311 17 17 12 sky130_fd_sc_hd__a221oi_1
* cell instance $1082 r0 *1 79.58,59.84
X$1082 17 223 243 326 325 12 17 12 sky130_fd_sc_hd__and3b_1
* cell instance $1083 r0 *1 82.8,59.84
X$1083 17 326 244 258 328 12 17 12 sky130_fd_sc_hd__nor3_1
* cell instance $1103 m0 *1 21.16,65.28
X$1103 12 335 307 289 272 17 319 17 12 sky130_fd_sc_hd__nand4_2
* cell instance $1104 m0 *1 25.76,65.28
X$1104 17 338 337 344 12 17 12 sky130_fd_sc_hd__nor2_1
* cell instance $1105 m0 *1 27.14,65.28
X$1105 17 338 12 213 17 12 sky130_fd_sc_hd__buf_2
* cell instance $1107 m0 *1 29.44,65.28
X$1107 17 193 339 340 12 17 12 sky130_fd_sc_hd__nor2_1
* cell instance $1108 m0 *1 30.82,65.28