* CDL Netlist generated by OpenROAD

*.BUSDELIMITER [

.SUBCKT uart clk m_axis_tdata[0] m_axis_tdata[1] m_axis_tdata[2]
+ m_axis_tdata[3] m_axis_tdata[4] m_axis_tdata[5] m_axis_tdata[6]
+ m_axis_tdata[7] m_axis_tready m_axis_tvalid prescale[0] prescale[10]
+ prescale[11] prescale[12] prescale[13] prescale[14] prescale[15]
+ prescale[1] prescale[2] prescale[3] prescale[4] prescale[5]
+ prescale[6] prescale[7] prescale[8] prescale[9] rst rx_busy
+ rx_frame_error rx_overrun_error rxd s_axis_tdata[0] s_axis_tdata[1]
+ s_axis_tdata[2] s_axis_tdata[3] s_axis_tdata[4] s_axis_tdata[5]
+ s_axis_tdata[6] s_axis_tdata[7] s_axis_tready s_axis_tvalid
+ tx_busy txd
X_431_ uart_tx_inst.bit_cnt\[0\] VSS VSS VDD VDD _081_ sky130_fd_sc_hd__buf_2
X_432_ uart_tx_inst.bit_cnt\[2\] uart_tx_inst.bit_cnt\[3\]
+ uart_tx_inst.bit_cnt\[1\] _081_ VSS VSS VDD VDD _082_ sky130_fd_sc_hd__nor4_4
X_433_ _082_ VSS VSS VDD VDD _002_ sky130_fd_sc_hd__clkbuf_4
X_434_ uart_rx_inst.bit_cnt\[3\] VSS VSS VDD VDD _083_ sky130_fd_sc_hd__clkbuf_4
X_435_ uart_rx_inst.bit_cnt\[2\] VSS VSS VDD VDD _084_ sky130_fd_sc_hd__buf_2
X_436_ uart_rx_inst.bit_cnt\[1\] _421_ VSS VSS VDD VDD _085_
+ sky130_fd_sc_hd__nor2_1
X_437_ uart_rx_inst.rxd_reg _421_ _085_ VSS VSS VDD VDD _086_
+ sky130_fd_sc_hd__a21oi_1
X_438_ _083_ _084_ _086_ VSS VSS VDD VDD _087_ sky130_fd_sc_hd__nor3_4
X_439_ uart_rx_inst.prescale_reg\[11\] uart_rx_inst.prescale_reg\[13\]
+ uart_rx_inst.prescale_reg\[12\] uart_rx_inst.prescale_reg\[10\]
+ VSS VSS VDD VDD _088_ sky130_fd_sc_hd__or4_4
X_440_ uart_rx_inst.prescale_reg\[15\] uart_rx_inst.prescale_reg\[14\]
+ _088_ VSS VSS VDD VDD _089_ sky130_fd_sc_hd__or3_4
X_441_ uart_rx_inst.prescale_reg\[17\] uart_rx_inst.prescale_reg\[18\]
+ uart_rx_inst.prescale_reg\[16\] VSS VSS VDD VDD _090_ sky130_fd_sc_hd__or3_1
X_442_ uart_rx_inst.prescale_reg\[4\] uart_rx_inst.prescale_reg\[3\]
+ uart_rx_inst.prescale_reg\[2\] VSS VSS VDD VDD _091_ sky130_fd_sc_hd__nor3_2
X_443_ uart_rx_inst.prescale_reg\[5\] uart_rx_inst.prescale_reg\[1\]
+ uart_rx_inst.prescale_reg\[0\] VSS VSS VDD VDD _092_ sky130_fd_sc_hd__nor3_1
X_444_ uart_rx_inst.prescale_reg\[9\] uart_rx_inst.prescale_reg\[7\]
+ uart_rx_inst.prescale_reg\[8\] uart_rx_inst.prescale_reg\[6\]
+ VSS VSS VDD VDD _093_ sky130_fd_sc_hd__nor4_2
X_445_ _091_ _092_ _093_ VSS VSS VDD VDD _094_ sky130_fd_sc_hd__nand3_2
X_446_ _090_ _094_ _089_ VSS VSS VDD VDD _095_ sky130_fd_sc_hd__or3_4
Xrebuffer2 _095_ VSS VSS VDD VDD net41 sky130_fd_sc_hd__buf_2
X_448_ _423_ _425_ _084_ VSS VSS VDD VDD _097_ sky130_fd_sc_hd__o21bai_2
X_449_ _083_ _097_ VSS VSS VDD VDD _098_ sky130_fd_sc_hd__and2_0
X_450_ _095_ _098_ net14 VSS VSS VDD VDD _099_ sky130_fd_sc_hd__or3_4
X_451_ _087_ _099_ VSS VSS VDD VDD _001_ sky130_fd_sc_hd__nor2_8
X_452_ net14 VSS VSS VDD VDD _100_ sky130_fd_sc_hd__clkbuf_4
X_453_ _100_ VSS VSS VDD VDD _101_ sky130_fd_sc_hd__clkbuf_4
X_454_ net24 _082_ VSS VSS VDD VDD _102_ sky130_fd_sc_hd__nand2b_1
X_455_ uart_tx_inst.prescale_reg\[5\] uart_tx_inst.prescale_reg\[4\]
+ VSS VSS VDD VDD _103_ sky130_fd_sc_hd__nor2_1
X_456_ uart_tx_inst.prescale_reg\[1\] uart_tx_inst.prescale_reg\[0\]
+ VSS VSS VDD VDD _104_ sky130_fd_sc_hd__nor2_1
X_457_ uart_tx_inst.prescale_reg\[3\] uart_tx_inst.prescale_reg\[2\]
+ VSS VSS VDD VDD _105_ sky130_fd_sc_hd__nor2_1
X_458_ uart_tx_inst.prescale_reg\[8\] uart_tx_inst.prescale_reg\[7\]
+ uart_tx_inst.prescale_reg\[6\] VSS VSS VDD VDD _106_ sky130_fd_sc_hd__nor3_2
X_459_ _103_ _104_ _105_ _106_ VSS VSS VDD VDD _107_ sky130_fd_sc_hd__nand4_2
X_460_ uart_tx_inst.prescale_reg\[17\] uart_tx_inst.prescale_reg\[15\]
+ uart_tx_inst.prescale_reg\[16\] uart_tx_inst.prescale_reg\[14\]
+ VSS VSS VDD VDD _108_ sky130_fd_sc_hd__nor4_2
X_461_ uart_tx_inst.prescale_reg\[11\] uart_tx_inst.prescale_reg\[10\]
+ uart_tx_inst.prescale_reg\[9\] VSS VSS VDD VDD _109_ sky130_fd_sc_hd__nor3_1
X_462_ uart_tx_inst.prescale_reg\[13\] uart_tx_inst.prescale_reg\[12\]
+ VSS VSS VDD VDD _110_ sky130_fd_sc_hd__nor2_1
X_463_ uart_tx_inst.prescale_reg\[18\] _108_ _109_ _110_ VSS
+ VSS VDD VDD _111_ sky130_fd_sc_hd__nand4b_1
X_464_ _107_ _111_ VSS VSS VDD VDD _112_ sky130_fd_sc_hd__nor2_1
X_465_ _112_ VSS VSS VDD VDD _113_ sky130_fd_sc_hd__buf_2
X_466_ _102_ _113_ VSS VSS VDD VDD _114_ sky130_fd_sc_hd__nand2_1
X_467_ uart_tx_inst.bit_cnt\[2\] uart_tx_inst.bit_cnt\[3\]
+ uart_tx_inst.bit_cnt\[1\] _081_ VSS VSS VDD VDD _115_ sky130_fd_sc_hd__nor4b_2
X_468_ _115_ VSS VSS VDD VDD _116_ sky130_fd_sc_hd__clkbuf_4
X_469_ _101_ _116_ _114_ VSS VSS VDD VDD _000_ sky130_fd_sc_hd__nor3_4
X_470_ uart_tx_inst.data_reg\[1\] net16 _002_ VSS VSS VDD
+ VDD _003_ sky130_fd_sc_hd__mux2_1
X_471_ uart_tx_inst.data_reg\[2\] net17 _002_ VSS VSS VDD
+ VDD _004_ sky130_fd_sc_hd__mux2_1
X_472_ uart_tx_inst.data_reg\[3\] net18 _002_ VSS VSS VDD
+ VDD _005_ sky130_fd_sc_hd__mux2_1
X_473_ uart_tx_inst.data_reg\[4\] net19 _002_ VSS VSS VDD
+ VDD _006_ sky130_fd_sc_hd__mux2_1
X_474_ uart_tx_inst.data_reg\[5\] net20 _002_ VSS VSS VDD
+ VDD _007_ sky130_fd_sc_hd__mux2_1
X_475_ uart_tx_inst.data_reg\[6\] net21 _002_ VSS VSS VDD
+ VDD _008_ sky130_fd_sc_hd__mux2_1
X_476_ uart_tx_inst.data_reg\[7\] net22 _082_ VSS VSS VDD
+ VDD _009_ sky130_fd_sc_hd__mux2_1
X_477_ uart_tx_inst.data_reg\[8\] net23 _082_ VSS VSS VDD
+ VDD _010_ sky130_fd_sc_hd__mux2_1
X_478_ uart_rx_inst.prescale_reg\[0\] VSS VSS VDD VDD _411_
+ sky130_fd_sc_hd__inv_1
X_479_ net3 VSS VSS VDD VDD _415_ sky130_fd_sc_hd__inv_1
X_480_ uart_tx_inst.prescale_reg\[0\] VSS VSS VDD VDD _427_
+ sky130_fd_sc_hd__inv_1
X_481_ uart_rx_inst.bit_cnt\[0\] VSS VSS VDD VDD _419_ sky130_fd_sc_hd__inv_1
X_482_ uart_rx_inst.prescale_reg\[1\] VSS VSS VDD VDD _412_
+ sky130_fd_sc_hd__inv_1
X_483_ net9 VSS VSS VDD VDD _416_ sky130_fd_sc_hd__inv_1
X_484_ uart_rx_inst.bit_cnt\[1\] VSS VSS VDD VDD _420_ sky130_fd_sc_hd__inv_1
X_485_ uart_tx_inst.prescale_reg\[1\] VSS VSS VDD VDD _428_
+ sky130_fd_sc_hd__inv_1
X_486_ _100_ VSS VSS VDD VDD _117_ sky130_fd_sc_hd__clkbuf_4
X_487_ uart_rx_inst.rxd_reg VSS VSS VDD VDD _118_ sky130_fd_sc_hd__clkbuf_4
X_488_ _083_ _084_ _421_ VSS VSS VDD VDD _119_ sky130_fd_sc_hd__nor3b_4
X_489_ _118_ _083_ _097_ _119_ VSS VSS VDD VDD _120_ sky130_fd_sc_hd__a31o_2
X_490_ _120_ VSS VSS VDD VDD _121_ sky130_fd_sc_hd__clkbuf_4
X_491_ uart_rx_inst.bit_cnt\[0\] _121_ VSS VSS VDD VDD _122_
+ sky130_fd_sc_hd__nor2_1
X_492_ _083_ _084_ VSS VSS VDD VDD _123_ sky130_fd_sc_hd__nor2_1
X_493_ _118_ _421_ VSS VSS VDD VDD _124_ sky130_fd_sc_hd__nand2_1
X_494_ uart_rx_inst.bit_cnt\[1\] _421_ _425_ _124_ VSS VSS
+ VDD VDD _125_ sky130_fd_sc_hd__o31ai_1
X_495_ _123_ _125_ net41 VSS VSS VDD VDD _126_ sky130_fd_sc_hd__a21oi_4
X_496_ uart_rx_inst.bit_cnt\[0\] _122_ _126_ VSS VSS VDD VDD
+ _127_ sky130_fd_sc_hd__mux2i_1
X_497_ _117_ _127_ VSS VSS VDD VDD _011_ sky130_fd_sc_hd__nor2_1
X_498_ _118_ _083_ _097_ VSS VSS VDD VDD _128_ sky130_fd_sc_hd__and3_1
X_499_ _083_ _084_ _421_ VSS VSS VDD VDD _129_ sky130_fd_sc_hd__or3b_1
X_500_ _129_ VSS VSS VDD VDD _130_ sky130_fd_sc_hd__buf_2
X_501_ _130_ VSS VSS VDD VDD _131_ sky130_fd_sc_hd__buf_2
X_502_ _422_ _128_ _131_ VSS VSS VDD VDD _132_ sky130_fd_sc_hd__o21ai_0
X_503_ uart_rx_inst.bit_cnt\[1\] _132_ _126_ VSS VSS VDD VDD
+ _133_ sky130_fd_sc_hd__mux2i_1
X_504_ _117_ _133_ VSS VSS VDD VDD _012_ sky130_fd_sc_hd__nor2_1
X_505_ _094_ _090_ net40 VSS VSS VDD VDD _134_ sky130_fd_sc_hd__nor3_4
X_506_ _134_ VSS VSS VDD VDD _135_ sky130_fd_sc_hd__buf_6
X_507_ _423_ _128_ net46 VSS VSS VDD VDD _136_ sky130_fd_sc_hd__o21ai_0
X_508_ _084_ _136_ VSS VSS VDD VDD _137_ sky130_fd_sc_hd__nand2_1
X_509_ _130_ VSS VSS VDD VDD _138_ sky130_fd_sc_hd__buf_2
X_510_ _084_ _423_ _126_ _138_ VSS VSS VDD VDD _139_ sky130_fd_sc_hd__nand4b_1
X_511_ _100_ VSS VSS VDD VDD _140_ sky130_fd_sc_hd__clkbuf_4
X_512_ _137_ _139_ _140_ VSS VSS VDD VDD _013_ sky130_fd_sc_hd__a21oi_1
X_513_ _118_ _098_ VSS VSS VDD VDD _141_ sky130_fd_sc_hd__nand2_1
X_514_ _084_ uart_rx_inst.bit_cnt\[1\] uart_rx_inst.bit_cnt\[0\]
+ _141_ VSS VSS VDD VDD _142_ sky130_fd_sc_hd__o31ai_1
X_515_ _420_ _419_ _421_ VSS VSS VDD VDD _143_ sky130_fd_sc_hd__a21oi_1
X_516_ _084_ _143_ VSS VSS VDD VDD _144_ sky130_fd_sc_hd__nor2_1
X_517_ _126_ _144_ _083_ VSS VSS VDD VDD _145_ sky130_fd_sc_hd__a21oi_1
X_518_ _083_ net46 _142_ _145_ _100_ VSS VSS VDD VDD _014_
+ sky130_fd_sc_hd__a311oi_1
X_519_ _118_ _095_ _130_ VSS VSS VDD VDD _146_ sky130_fd_sc_hd__or3_1
X_520_ _095_ VSS VSS VDD VDD _147_ sky130_fd_sc_hd__buf_6
X_521_ _147_ _138_ net34 VSS VSS VDD VDD _148_ sky130_fd_sc_hd__o21ai_0
X_522_ _146_ _148_ _140_ VSS VSS VDD VDD _015_ sky130_fd_sc_hd__a21oi_1
X_523_ uart_rx_inst.data_reg\[1\] _138_ VSS VSS VDD VDD _016_
+ sky130_fd_sc_hd__and2_0
X_524_ uart_rx_inst.data_reg\[2\] _138_ VSS VSS VDD VDD _017_
+ sky130_fd_sc_hd__and2_0
X_525_ uart_rx_inst.data_reg\[3\] _138_ VSS VSS VDD VDD _018_
+ sky130_fd_sc_hd__and2_0
X_526_ uart_rx_inst.data_reg\[4\] _138_ VSS VSS VDD VDD _019_
+ sky130_fd_sc_hd__and2_0
X_527_ uart_rx_inst.data_reg\[5\] _138_ VSS VSS VDD VDD _020_
+ sky130_fd_sc_hd__and2_0
X_528_ uart_rx_inst.data_reg\[6\] _138_ VSS VSS VDD VDD _021_
+ sky130_fd_sc_hd__and2_0
X_529_ uart_rx_inst.data_reg\[7\] _138_ VSS VSS VDD VDD _022_
+ sky130_fd_sc_hd__and2_0
X_530_ _118_ _138_ VSS VSS VDD VDD _023_ sky130_fd_sc_hd__and2_0
X_531_ _425_ _123_ _085_ VSS VSS VDD VDD _149_ sky130_fd_sc_hd__nand3_1
X_532_ _118_ _099_ _149_ VSS VSS VDD VDD _024_ sky130_fd_sc_hd__nor3_1
X_533_ _118_ uart_rx_inst.bit_cnt\[0\] _123_ _085_ VSS VSS
+ VDD VDD _150_ sky130_fd_sc_hd__nand4_1
X_534_ net41 _150_ VSS VSS VDD VDD _151_ sky130_fd_sc_hd__nor2_8
X_535_ net25 uart_rx_inst.data_reg\[0\] _151_ VSS VSS VDD
+ VDD _152_ sky130_fd_sc_hd__mux2i_1
X_536_ _117_ _152_ VSS VSS VDD VDD _025_ sky130_fd_sc_hd__nor2_1
X_537_ net26 uart_rx_inst.data_reg\[1\] _151_ VSS VSS VDD
+ VDD _153_ sky130_fd_sc_hd__mux2i_1
X_538_ _117_ _153_ VSS VSS VDD VDD _026_ sky130_fd_sc_hd__nor2_1
X_539_ net27 uart_rx_inst.data_reg\[2\] _151_ VSS VSS VDD
+ VDD _154_ sky130_fd_sc_hd__mux2i_1
X_540_ _117_ _154_ VSS VSS VDD VDD _027_ sky130_fd_sc_hd__nor2_1
X_541_ net28 uart_rx_inst.data_reg\[3\] _151_ VSS VSS VDD
+ VDD _155_ sky130_fd_sc_hd__mux2i_1
X_542_ _117_ _155_ VSS VSS VDD VDD _028_ sky130_fd_sc_hd__nor2_1
X_543_ net29 uart_rx_inst.data_reg\[4\] _151_ VSS VSS VDD
+ VDD _156_ sky130_fd_sc_hd__mux2i_1
X_544_ _117_ _156_ VSS VSS VDD VDD _029_ sky130_fd_sc_hd__nor2_1
X_545_ net30 uart_rx_inst.data_reg\[5\] _151_ VSS VSS VDD
+ VDD _157_ sky130_fd_sc_hd__mux2i_1
X_546_ _117_ _157_ VSS VSS VDD VDD _030_ sky130_fd_sc_hd__nor2_1
X_547_ net31 uart_rx_inst.data_reg\[6\] _151_ VSS VSS VDD
+ VDD _158_ sky130_fd_sc_hd__mux2i_1
X_548_ _117_ _158_ VSS VSS VDD VDD _031_ sky130_fd_sc_hd__nor2_1
X_549_ net32 uart_rx_inst.data_reg\[7\] _151_ VSS VSS VDD
+ VDD _159_ sky130_fd_sc_hd__mux2i_1
X_550_ _117_ _159_ VSS VSS VDD VDD _032_ sky130_fd_sc_hd__nor2_1
X_551_ _118_ _425_ _123_ _085_ VSS VSS VDD VDD _160_ sky130_fd_sc_hd__nand4_1
X_552_ net33 VSS VSS VDD VDD _161_ sky130_fd_sc_hd__inv_1
X_553_ net2 _098_ _160_ net1 _161_ VSS VSS VDD VDD _162_ sky130_fd_sc_hd__o32a_1
X_554_ _140_ _162_ VSS VSS VDD VDD _033_ sky130_fd_sc_hd__nor2_1
X_555_ _161_ _099_ _160_ VSS VSS VDD VDD _034_ sky130_fd_sc_hd__nor3_1
X_556_ _087_ _134_ net14 VSS VSS VDD VDD _163_ sky130_fd_sc_hd__a21o_1
X_557_ _163_ VSS VSS VDD VDD _164_ sky130_fd_sc_hd__buf_6
X_558_ _164_ VSS VSS VDD VDD _165_ sky130_fd_sc_hd__buf_8
X_559_ net2 VSS VSS VDD VDD _166_ sky130_fd_sc_hd__clkbuf_4
X_560_ _147_ _121_ VSS VSS VDD VDD _167_ sky130_fd_sc_hd__nor2_1
X_561_ _411_ _166_ _167_ VSS VSS VDD VDD _168_ sky130_fd_sc_hd__a21oi_1
X_562_ _165_ _168_ VSS VSS VDD VDD _035_ sky130_fd_sc_hd__nor2_1
X_563_ uart_rx_inst.prescale_reg\[5\] _413_ _091_ VSS VSS
+ VDD VDD _169_ sky130_fd_sc_hd__and3b_1
X_564_ _093_ _169_ VSS VSS VDD VDD _170_ sky130_fd_sc_hd__nand2_2
X_565_ uart_rx_inst.prescale_reg\[10\] _170_ VSS VSS VDD VDD
+ _171_ sky130_fd_sc_hd__xor2_1
X_566_ prescale[4] VSS VSS VDD VDD _172_ sky130_fd_sc_hd__clkbuf_4
X_567_ prescale[5] VSS VSS VDD VDD _173_ sky130_fd_sc_hd__buf_2
X_568_ prescale[3] VSS VSS VDD VDD _174_ sky130_fd_sc_hd__buf_2
X_569_ net10 _174_ _417_ VSS VSS VDD VDD _175_ sky130_fd_sc_hd__or3b_4
X_570_ _175_ _173_ _172_ VSS VSS VDD VDD _176_ sky130_fd_sc_hd__nor3_4
X_571_ prescale[6] VSS VSS VDD VDD _177_ sky130_fd_sc_hd__buf_2
X_572_ _177_ net11 VSS VSS VDD VDD _178_ sky130_fd_sc_hd__nor2_1
X_573_ _176_ _178_ VSS VSS VDD VDD _179_ sky130_fd_sc_hd__nand2_1
X_574_ net12 _179_ VSS VSS VDD VDD _180_ sky130_fd_sc_hd__xor2_1
X_575_ _174_ _172_ _173_ VSS VSS VDD VDD _181_ sky130_fd_sc_hd__nor3_2
X_576_ net3 net10 net9 VSS VSS VDD VDD _182_ sky130_fd_sc_hd__nor3_4
X_577_ _181_ _182_ VSS VSS VDD VDD _183_ sky130_fd_sc_hd__nand2_1
X_578_ _177_ _183_ VSS VSS VDD VDD _184_ sky130_fd_sc_hd__nor2_1
X_579_ net11 _184_ VSS VSS VDD VDD _185_ sky130_fd_sc_hd__xnor2_1
X_580_ _130_ _180_ _185_ _120_ net47 VSS VSS VDD VDD _186_
+ sky130_fd_sc_hd__o221a_1
X_581_ _166_ _171_ _186_ _165_ VSS VSS VDD VDD _036_ sky130_fd_sc_hd__a211oi_1
X_582_ uart_rx_inst.prescale_reg\[10\] _094_ VSS VSS VDD VDD
+ _187_ sky130_fd_sc_hd__nor2_1
X_583_ net43 _187_ VSS VSS VDD VDD _188_ sky130_fd_sc_hd__xnor2_1
X_584_ net12 _181_ _178_ _182_ VSS VSS VDD VDD _189_ sky130_fd_sc_hd__nand4b_1
X_585_ net13 _189_ VSS VSS VDD VDD _190_ sky130_fd_sc_hd__xor2_1
X_586_ _120_ _180_ _190_ _131_ _135_ VSS VSS VDD VDD _191_
+ sky130_fd_sc_hd__o221a_1
X_587_ _164_ _188_ _191_ VSS VSS VDD VDD _037_ sky130_fd_sc_hd__nor3_1
X_588_ net44 uart_rx_inst.prescale_reg\[10\] _170_ VSS VSS
+ VDD VDD _192_ sky130_fd_sc_hd__nor3_1
X_589_ uart_rx_inst.prescale_reg\[12\] _192_ VSS VSS VDD VDD
+ _193_ sky130_fd_sc_hd__xnor2_1
X_590_ net10 _174_ _417_ VSS VSS VDD VDD _194_ sky130_fd_sc_hd__nor3b_2
X_591_ _172_ _173_ VSS VSS VDD VDD _195_ sky130_fd_sc_hd__nor2_1
X_592_ _177_ net11 net12 net13 VSS VSS VDD VDD _196_ sky130_fd_sc_hd__nor4_4
X_593_ _194_ _195_ _196_ VSS VSS VDD VDD _197_ sky130_fd_sc_hd__nand3_1
X_594_ net4 _197_ VSS VSS VDD VDD _198_ sky130_fd_sc_hd__xor2_1
X_595_ _120_ _190_ _198_ _131_ VSS VSS VDD VDD _199_ sky130_fd_sc_hd__o22ai_1
X_596_ _147_ _199_ VSS VSS VDD VDD _200_ sky130_fd_sc_hd__nor2_1
X_597_ _166_ _193_ _200_ _164_ VSS VSS VDD VDD _038_ sky130_fd_sc_hd__a211oi_1
X_598_ net49 uart_rx_inst.prescale_reg\[12\] uart_rx_inst.prescale_reg\[10\]
+ _094_ VSS VSS VDD VDD _201_ sky130_fd_sc_hd__nor4_1
X_599_ net42 _201_ VSS VSS VDD VDD _202_ sky130_fd_sc_hd__xnor2_1
X_600_ prescale[11] VSS VSS VDD VDD _203_ sky130_fd_sc_hd__clkbuf_2
X_601_ net4 _181_ _182_ _196_ VSS VSS VDD VDD _204_ sky130_fd_sc_hd__nand4b_4
X_602_ _203_ _204_ VSS VSS VDD VDD _205_ sky130_fd_sc_hd__xor2_1
X_603_ _121_ _198_ _205_ _131_ VSS VSS VDD VDD _206_ sky130_fd_sc_hd__o22ai_1
X_604_ _166_ _206_ VSS VSS VDD VDD _207_ sky130_fd_sc_hd__nor2_1
X_605_ _164_ _202_ _207_ VSS VSS VDD VDD _039_ sky130_fd_sc_hd__nor3_1
X_606_ _088_ _170_ VSS VSS VDD VDD _208_ sky130_fd_sc_hd__nor2_1
X_607_ uart_rx_inst.prescale_reg\[14\] _208_ VSS VSS VDD VDD
+ _209_ sky130_fd_sc_hd__xnor2_1
X_608_ net4 _203_ VSS VSS VDD VDD _210_ sky130_fd_sc_hd__nor2_1
X_609_ _194_ _195_ _196_ _210_ VSS VSS VDD VDD _211_ sky130_fd_sc_hd__nand4_1
X_610_ net5 _211_ VSS VSS VDD VDD _212_ sky130_fd_sc_hd__xor2_1
X_611_ _120_ _205_ _212_ _131_ VSS VSS VDD VDD _213_ sky130_fd_sc_hd__o22ai_1
X_612_ _147_ _213_ VSS VSS VDD VDD _214_ sky130_fd_sc_hd__nor2_1
X_613_ _166_ _209_ _214_ _164_ VSS VSS VDD VDD _040_ sky130_fd_sc_hd__a211oi_1
X_614_ net4 _203_ net5 VSS VSS VDD VDD _215_ sky130_fd_sc_hd__nor3_1
X_615_ _181_ _182_ _196_ _215_ VSS VSS VDD VDD _216_ sky130_fd_sc_hd__nand4_1
X_616_ net6 _216_ VSS VSS VDD VDD _217_ sky130_fd_sc_hd__xnor2_1
X_617_ _119_ _217_ _090_ VSS VSS VDD VDD _218_ sky130_fd_sc_hd__a21oi_1
X_618_ uart_rx_inst.prescale_reg\[14\] _088_ _094_ VSS VSS
+ VDD VDD _219_ sky130_fd_sc_hd__or3_1
X_619_ uart_rx_inst.prescale_reg\[15\] _218_ _219_ VSS VSS
+ VDD VDD _220_ sky130_fd_sc_hd__or3_1
X_620_ _147_ _121_ _212_ VSS VSS VDD VDD _221_ sky130_fd_sc_hd__nor3_1
X_621_ uart_rx_inst.prescale_reg\[15\] _219_ _221_ VSS VSS
+ VDD VDD _222_ sky130_fd_sc_hd__a21oi_1
X_622_ _220_ _222_ _165_ VSS VSS VDD VDD _041_ sky130_fd_sc_hd__a21oi_1
X_623_ _089_ _170_ VSS VSS VDD VDD _223_ sky130_fd_sc_hd__nor2_1
X_624_ uart_rx_inst.prescale_reg\[16\] _223_ VSS VSS VDD VDD
+ _224_ sky130_fd_sc_hd__xnor2_1
X_625_ net4 _196_ VSS VSS VDD VDD _225_ sky130_fd_sc_hd__nor2b_1
X_626_ _203_ net5 net6 VSS VSS VDD VDD _226_ sky130_fd_sc_hd__nor3_1
X_627_ _176_ _225_ _226_ VSS VSS VDD VDD _227_ sky130_fd_sc_hd__nand3_1
X_628_ net7 _227_ VSS VSS VDD VDD _228_ sky130_fd_sc_hd__xor2_1
X_629_ _087_ net2 VSS VSS VDD VDD _229_ sky130_fd_sc_hd__nor2_1
X_630_ _130_ _228_ _229_ VSS VSS VDD VDD _230_ sky130_fd_sc_hd__o21a_1
X_631_ _118_ _083_ _097_ _119_ VSS VSS VDD VDD _231_ sky130_fd_sc_hd__a31oi_4
X_632_ _231_ _217_ VSS VSS VDD VDD _232_ sky130_fd_sc_hd__nand2_1
X_633_ _166_ _224_ _230_ _232_ _164_ VSS VSS VDD VDD _042_
+ sky130_fd_sc_hd__a221oi_1
X_634_ uart_rx_inst.prescale_reg\[17\] uart_rx_inst.prescale_reg\[18\]
+ VSS VSS VDD VDD _233_ sky130_fd_sc_hd__nor2b_1
X_635_ uart_rx_inst.prescale_reg\[16\] _089_ _094_ VSS VSS
+ VDD VDD _234_ sky130_fd_sc_hd__or3_1
X_636_ _233_ uart_rx_inst.prescale_reg\[17\] _234_ VSS VSS
+ VDD VDD _235_ sky130_fd_sc_hd__mux2i_1
X_637_ net7 _226_ VSS VSS VDD VDD _236_ sky130_fd_sc_hd__nand2b_1
X_638_ _204_ _236_ net8 VSS VSS VDD VDD _237_ sky130_fd_sc_hd__o21ai_0
X_639_ net8 _204_ _236_ VSS VSS VDD VDD _238_ sky130_fd_sc_hd__or3_1
X_640_ _237_ _238_ net2 _130_ VSS VSS VDD VDD _239_ sky130_fd_sc_hd__a211o_1
X_641_ uart_rx_inst.prescale_reg\[17\] _120_ _228_ _234_ VSS
+ VSS VDD VDD _240_ sky130_fd_sc_hd__or4_1
X_642_ _235_ _239_ _240_ _165_ VSS VSS VDD VDD _043_ sky130_fd_sc_hd__a31oi_1
X_643_ _176_ _225_ VSS VSS VDD VDD _241_ sky130_fd_sc_hd__nand2_1
X_644_ net8 _130_ _241_ _236_ VSS VSS VDD VDD _242_ sky130_fd_sc_hd__nor4_1
X_645_ _237_ _238_ _121_ VSS VSS VDD VDD _243_ sky130_fd_sc_hd__a21oi_1
X_646_ _242_ _243_ net46 VSS VSS VDD VDD _244_ sky130_fd_sc_hd__o21ai_1
X_647_ _091_ _092_ _093_ uart_rx_inst.prescale_reg\[18\] VSS
+ VSS VDD VDD _245_ sky130_fd_sc_hd__a31oi_1
X_648_ uart_rx_inst.prescale_reg\[17\] uart_rx_inst.prescale_reg\[16\]
+ _089_ _170_ VSS VSS VDD VDD _246_ sky130_fd_sc_hd__nor4_1
X_649_ uart_rx_inst.prescale_reg\[18\] _245_ _246_ VSS VSS
+ VDD VDD _247_ sky130_fd_sc_hd__mux2i_1
X_650_ _244_ _247_ _165_ VSS VSS VDD VDD _044_ sky130_fd_sc_hd__a21oi_1
X_651_ _147_ _141_ VSS VSS VDD VDD _248_ sky130_fd_sc_hd__nor2_1
X_652_ _414_ _166_ _164_ _248_ VSS VSS VDD VDD _045_ sky130_fd_sc_hd__a211oi_1
X_653_ uart_rx_inst.prescale_reg\[2\] _413_ VSS VSS VDD VDD
+ _249_ sky130_fd_sc_hd__xnor2_1
X_654_ _415_ _119_ _231_ _147_ VSS VSS VDD VDD _250_ sky130_fd_sc_hd__a211oi_1
X_655_ _166_ _249_ _250_ _164_ VSS VSS VDD VDD _046_ sky130_fd_sc_hd__a211oi_1
X_656_ _418_ _131_ _121_ net3 VSS VSS VDD VDD _251_ sky130_fd_sc_hd__o22ai_1
X_657_ uart_rx_inst.prescale_reg\[2\] uart_rx_inst.prescale_reg\[1\]
+ uart_rx_inst.prescale_reg\[0\] VSS VSS VDD VDD _252_ sky130_fd_sc_hd__nor3_1
X_658_ uart_rx_inst.prescale_reg\[3\] _252_ VSS VSS VDD VDD
+ _253_ sky130_fd_sc_hd__xor2_1
X_659_ _166_ _251_ _253_ VSS VSS VDD VDD _254_ sky130_fd_sc_hd__o21ai_0
X_660_ _165_ _254_ VSS VSS VDD VDD _047_ sky130_fd_sc_hd__nor2_1
X_661_ uart_rx_inst.prescale_reg\[3\] uart_rx_inst.prescale_reg\[2\]
+ VSS VSS VDD VDD _255_ sky130_fd_sc_hd__nor2_1
X_662_ _413_ _255_ VSS VSS VDD VDD _256_ sky130_fd_sc_hd__nand2_1
X_663_ uart_rx_inst.prescale_reg\[4\] _256_ VSS VSS VDD VDD
+ _257_ sky130_fd_sc_hd__xnor2_1
X_664_ net10 _417_ VSS VSS VDD VDD _258_ sky130_fd_sc_hd__xnor2_1
X_665_ _418_ _121_ _258_ _131_ _135_ VSS VSS VDD VDD _259_
+ sky130_fd_sc_hd__o221ai_1
X_666_ net46 _257_ _259_ VSS VSS VDD VDD _260_ sky130_fd_sc_hd__o21ai_0
X_667_ _165_ _260_ VSS VSS VDD VDD _048_ sky130_fd_sc_hd__nor2_1
X_668_ _174_ _182_ VSS VSS VDD VDD _261_ sky130_fd_sc_hd__xnor2_1
X_669_ _128_ _119_ _258_ VSS VSS VDD VDD _262_ sky130_fd_sc_hd__nor3_1
X_670_ _130_ _261_ _262_ VSS VSS VDD VDD _263_ sky130_fd_sc_hd__o21bai_1
X_671_ _412_ _411_ _091_ VSS VSS VDD VDD _264_ sky130_fd_sc_hd__nand3_1
X_672_ _087_ _134_ _264_ VSS VSS VDD VDD _265_ sky130_fd_sc_hd__a21o_1
X_673_ _091_ _092_ VSS VSS VDD VDD _266_ sky130_fd_sc_hd__nand2_1
X_674_ _266_ _135_ VSS VSS VDD VDD _267_ sky130_fd_sc_hd__nor2_1
X_675_ _229_ _263_ _265_ uart_rx_inst.prescale_reg\[5\] _267_
+ VSS VSS VDD VDD _268_ sky130_fd_sc_hd__a221oi_1
X_676_ _140_ _268_ VSS VSS VDD VDD _049_ sky130_fd_sc_hd__nor2_1
X_677_ uart_rx_inst.prescale_reg\[6\] _169_ VSS VSS VDD VDD
+ _269_ sky130_fd_sc_hd__xor2_1
X_678_ _172_ _194_ VSS VSS VDD VDD _270_ sky130_fd_sc_hd__xnor2_1
X_679_ _121_ _261_ _270_ _131_ _135_ VSS VSS VDD VDD _271_
+ sky130_fd_sc_hd__o221ai_1
X_680_ net46 _269_ _271_ VSS VSS VDD VDD _272_ sky130_fd_sc_hd__o21ai_0
X_681_ _165_ _272_ VSS VSS VDD VDD _050_ sky130_fd_sc_hd__nor2_1
X_682_ _174_ _172_ VSS VSS VDD VDD _273_ sky130_fd_sc_hd__nor2_1
X_683_ _273_ _182_ VSS VSS VDD VDD _274_ sky130_fd_sc_hd__nand2_1
X_684_ _173_ _274_ VSS VSS VDD VDD _275_ sky130_fd_sc_hd__xor2_1
X_685_ _121_ _270_ _275_ _131_ VSS VSS VDD VDD _276_ sky130_fd_sc_hd__o22ai_1
X_686_ uart_rx_inst.prescale_reg\[6\] _266_ VSS VSS VDD VDD
+ _277_ sky130_fd_sc_hd__nor2_1
X_687_ uart_rx_inst.prescale_reg\[7\] _277_ VSS VSS VDD VDD
+ _278_ sky130_fd_sc_hd__xor2_1
X_688_ _166_ _276_ _278_ VSS VSS VDD VDD _279_ sky130_fd_sc_hd__o21ai_0
X_689_ _165_ _279_ VSS VSS VDD VDD _051_ sky130_fd_sc_hd__nor2_1
X_690_ uart_rx_inst.prescale_reg\[7\] uart_rx_inst.prescale_reg\[6\]
+ VSS VSS VDD VDD _280_ sky130_fd_sc_hd__nor2_1
X_691_ _280_ _169_ VSS VSS VDD VDD _281_ sky130_fd_sc_hd__nand2_1
X_692_ uart_rx_inst.prescale_reg\[8\] _281_ VSS VSS VDD VDD
+ _282_ sky130_fd_sc_hd__xnor2_1
X_693_ _147_ _121_ _275_ VSS VSS VDD VDD _283_ sky130_fd_sc_hd__nor3_1
X_694_ _177_ net48 VSS VSS VDD VDD _284_ sky130_fd_sc_hd__xnor2_1
X_695_ _147_ _131_ _284_ VSS VSS VDD VDD _285_ sky130_fd_sc_hd__nor3_1
X_696_ _147_ _282_ _283_ _285_ VSS VSS VDD VDD _286_ sky130_fd_sc_hd__a211oi_1
X_697_ _165_ _286_ VSS VSS VDD VDD _052_ sky130_fd_sc_hd__nor2_1
X_698_ _194_ _195_ VSS VSS VDD VDD _287_ sky130_fd_sc_hd__nand2_1
X_699_ net11 _130_ _183_ _287_ _120_ VSS VSS VDD VDD _288_
+ sky130_fd_sc_hd__o32a_1
X_700_ _177_ VSS VSS VDD VDD _289_ sky130_fd_sc_hd__inv_1
X_701_ net11 VSS VSS VDD VDD _290_ sky130_fd_sc_hd__inv_1
X_702_ _289_ _181_ _182_ _290_ _130_ VSS VSS VDD VDD _291_
+ sky130_fd_sc_hd__a311oi_1
X_703_ _177_ _231_ _287_ _291_ VSS VSS VDD VDD _292_ sky130_fd_sc_hd__a31oi_1
X_704_ _177_ _288_ _292_ VSS VSS VDD VDD _293_ sky130_fd_sc_hd__o21ai_0
X_705_ uart_rx_inst.prescale_reg\[7\] uart_rx_inst.prescale_reg\[8\]
+ uart_rx_inst.prescale_reg\[6\] _266_ uart_rx_inst.prescale_reg\[9\]
+ VSS VSS VDD VDD _294_ sky130_fd_sc_hd__o41ai_1
X_706_ _094_ _135_ _294_ VSS VSS VDD VDD _295_ sky130_fd_sc_hd__o21ai_0
X_707_ _229_ _293_ _295_ VSS VSS VDD VDD _296_ sky130_fd_sc_hd__a21oi_1
X_708_ _140_ _296_ VSS VSS VDD VDD _053_ sky130_fd_sc_hd__nor2_1
X_709_ _100_ net15 VSS VSS VDD VDD _054_ sky130_fd_sc_hd__or2_0
X_710_ net24 _082_ VSS VSS VDD VDD _297_ sky130_fd_sc_hd__nor2b_2
X_711_ _107_ _111_ VSS VSS VDD VDD _298_ sky130_fd_sc_hd__or2_0
X_712_ _298_ VSS VSS VDD VDD _299_ sky130_fd_sc_hd__buf_2
X_713_ _297_ _299_ VSS VSS VDD VDD _300_ sky130_fd_sc_hd__nor2_1
X_714_ _300_ VSS VSS VDD VDD _301_ sky130_fd_sc_hd__buf_2
X_715_ _299_ VSS VSS VDD VDD _302_ sky130_fd_sc_hd__buf_2
X_716_ _301_ _302_ _081_ VSS VSS VDD VDD _303_ sky130_fd_sc_hd__mux2i_1
X_717_ _140_ _303_ VSS VSS VDD VDD _055_ sky130_fd_sc_hd__nor2_1
X_718_ _081_ _302_ uart_tx_inst.bit_cnt\[1\] VSS VSS VDD VDD
+ _304_ sky130_fd_sc_hd__o21ai_0
X_719_ uart_tx_inst.bit_cnt\[1\] _081_ _082_ _299_ VSS VSS
+ VDD VDD _305_ sky130_fd_sc_hd__or4_1
X_720_ _304_ _305_ _140_ VSS VSS VDD VDD _056_ sky130_fd_sc_hd__a21oi_1
X_721_ uart_tx_inst.bit_cnt\[2\] uart_tx_inst.bit_cnt\[3\]
+ VSS VSS VDD VDD _306_ sky130_fd_sc_hd__nor2b_1
X_722_ uart_tx_inst.bit_cnt\[1\] _081_ _299_ VSS VSS VDD VDD
+ _307_ sky130_fd_sc_hd__nor3_1
X_723_ uart_tx_inst.bit_cnt\[2\] _306_ _307_ VSS VSS VDD VDD
+ _308_ sky130_fd_sc_hd__mux2i_1
X_724_ _140_ _308_ VSS VSS VDD VDD _057_ sky130_fd_sc_hd__nor2_1
X_725_ uart_tx_inst.bit_cnt\[3\] net24 VSS VSS VDD VDD _309_
+ sky130_fd_sc_hd__nor2b_1
X_726_ uart_tx_inst.bit_cnt\[2\] uart_tx_inst.bit_cnt\[1\]
+ _081_ _299_ VSS VSS VDD VDD _310_ sky130_fd_sc_hd__nor4_1
X_727_ uart_tx_inst.bit_cnt\[3\] _309_ _310_ VSS VSS VDD VDD
+ _311_ sky130_fd_sc_hd__mux2i_1
X_728_ _140_ _311_ VSS VSS VDD VDD _058_ sky130_fd_sc_hd__nor2_1
X_729_ _297_ _113_ _100_ VSS VSS VDD VDD _312_ sky130_fd_sc_hd__a21o_2
X_730_ _002_ _113_ net38 VSS VSS VDD VDD _313_ sky130_fd_sc_hd__a21oi_1
X_731_ _312_ _313_ VSS VSS VDD VDD _059_ sky130_fd_sc_hd__nor2_1
X_732_ uart_tx_inst.bit_cnt\[2\] uart_tx_inst.bit_cnt\[3\]
+ uart_tx_inst.bit_cnt\[1\] VSS VSS VDD VDD _314_ sky130_fd_sc_hd__nor3_1
X_733_ _081_ _314_ VSS VSS VDD VDD _315_ sky130_fd_sc_hd__nand2_2
X_734_ _297_ _113_ _100_ VSS VSS VDD VDD _316_ sky130_fd_sc_hd__a21oi_1
X_735_ _299_ _315_ _316_ VSS VSS VDD VDD _317_ sky130_fd_sc_hd__o21ai_2
X_736_ uart_tx_inst.prescale_reg\[0\] _317_ VSS VSS VDD VDD
+ _060_ sky130_fd_sc_hd__nor2_1
X_737_ _429_ _103_ _105_ VSS VSS VDD VDD _318_ sky130_fd_sc_hd__and3_1
X_738_ _106_ _318_ VSS VSS VDD VDD _319_ sky130_fd_sc_hd__nand2_1
X_739_ uart_tx_inst.prescale_reg\[9\] _319_ uart_tx_inst.prescale_reg\[10\]
+ VSS VSS VDD VDD _320_ sky130_fd_sc_hd__o21ai_0
X_740_ uart_tx_inst.prescale_reg\[10\] uart_tx_inst.prescale_reg\[9\]
+ _112_ _319_ VSS VSS VDD VDD _321_ sky130_fd_sc_hd__or4_1
X_741_ _177_ _116_ _183_ VSS VSS VDD VDD _322_ sky130_fd_sc_hd__nor3_1
X_742_ _290_ _322_ VSS VSS VDD VDD _323_ sky130_fd_sc_hd__xnor2_1
X_743_ _301_ _323_ VSS VSS VDD VDD _324_ sky130_fd_sc_hd__nand2_1
X_744_ _320_ _321_ _324_ _101_ VSS VSS VDD VDD _061_ sky130_fd_sc_hd__a31oi_1
X_745_ _172_ _173_ _115_ _175_ VSS VSS VDD VDD _325_ sky130_fd_sc_hd__nor4_4
X_746_ _178_ _325_ VSS VSS VDD VDD _326_ sky130_fd_sc_hd__nand2_1
X_747_ net12 _326_ VSS VSS VDD VDD _327_ sky130_fd_sc_hd__xnor2_1
X_748_ _301_ _327_ VSS VSS VDD VDD _328_ sky130_fd_sc_hd__nand2_1
X_749_ uart_tx_inst.prescale_reg\[10\] uart_tx_inst.prescale_reg\[9\]
+ _107_ VSS VSS VDD VDD _329_ sky130_fd_sc_hd__or3_1
X_750_ _329_ _299_ VSS VSS VDD VDD _330_ sky130_fd_sc_hd__nand2b_1
X_751_ uart_tx_inst.prescale_reg\[11\] _330_ VSS VSS VDD VDD
+ _331_ sky130_fd_sc_hd__xor2_1
X_752_ _328_ _331_ _140_ VSS VSS VDD VDD _062_ sky130_fd_sc_hd__a21oi_1
X_753_ _106_ _318_ VSS VSS VDD VDD _332_ sky130_fd_sc_hd__and2_0
X_754_ _109_ _299_ _332_ _300_ uart_tx_inst.prescale_reg\[12\]
+ VSS VSS VDD VDD _333_ sky130_fd_sc_hd__a311o_1
X_755_ _189_ _315_ VSS VSS VDD VDD _334_ sky130_fd_sc_hd__nand2b_1
X_756_ net13 _334_ VSS VSS VDD VDD _335_ sky130_fd_sc_hd__xor2_1
X_757_ _301_ _335_ VSS VSS VDD VDD _336_ sky130_fd_sc_hd__nand2_1
X_758_ uart_tx_inst.prescale_reg\[12\] _109_ _332_ _100_ VSS
+ VSS VDD VDD _337_ sky130_fd_sc_hd__a31oi_1
X_759_ _333_ _336_ _337_ VSS VSS VDD VDD _063_ sky130_fd_sc_hd__and3_1
X_760_ _103_ _104_ _105_ VSS VSS VDD VDD _338_ sky130_fd_sc_hd__and3_1
X_761_ _109_ _110_ VSS VSS VDD VDD _339_ sky130_fd_sc_hd__and2_0
X_762_ _338_ _106_ _339_ VSS VSS VDD VDD _340_ sky130_fd_sc_hd__nand3_1
X_763_ uart_tx_inst.prescale_reg\[12\] uart_tx_inst.prescale_reg\[11\]
+ _329_ uart_tx_inst.prescale_reg\[13\] VSS VSS VDD VDD _341_
+ sky130_fd_sc_hd__o31ai_1
X_764_ _196_ _325_ VSS VSS VDD VDD _342_ sky130_fd_sc_hd__nand2_1
X_765_ net4 _342_ VSS VSS VDD VDD _343_ sky130_fd_sc_hd__xor2_1
X_766_ _340_ _341_ _343_ _301_ _312_ VSS VSS VDD VDD _064_
+ sky130_fd_sc_hd__a221oi_1
X_767_ _116_ _204_ VSS VSS VDD VDD _344_ sky130_fd_sc_hd__nor2_1
X_768_ _203_ _344_ VSS VSS VDD VDD _345_ sky130_fd_sc_hd__xor2_1
X_769_ _301_ _345_ VSS VSS VDD VDD _346_ sky130_fd_sc_hd__nand2_1
X_770_ _106_ _339_ _318_ VSS VSS VDD VDD _347_ sky130_fd_sc_hd__nand3_1
X_771_ uart_tx_inst.prescale_reg\[14\] _113_ _347_ VSS VSS
+ VDD VDD _348_ sky130_fd_sc_hd__nor3_1
X_772_ uart_tx_inst.prescale_reg\[14\] _347_ _348_ VSS VSS
+ VDD VDD _349_ sky130_fd_sc_hd__a21oi_1
X_773_ _346_ _349_ _101_ VSS VSS VDD VDD _065_ sky130_fd_sc_hd__a21oi_1
X_774_ uart_tx_inst.prescale_reg\[15\] uart_tx_inst.prescale_reg\[14\]
+ _340_ VSS VSS VDD VDD _350_ sky130_fd_sc_hd__nor3_1
X_775_ uart_tx_inst.prescale_reg\[18\] uart_tx_inst.prescale_reg\[17\]
+ uart_tx_inst.prescale_reg\[16\] _297_ _350_ VSS VSS VDD VDD
+ _351_ sky130_fd_sc_hd__o41ai_1
X_776_ uart_tx_inst.prescale_reg\[14\] _340_ uart_tx_inst.prescale_reg\[15\]
+ VSS VSS VDD VDD _352_ sky130_fd_sc_hd__o21ai_0
X_777_ _196_ _210_ _325_ VSS VSS VDD VDD _353_ sky130_fd_sc_hd__nand3_1
X_778_ net5 _353_ VSS VSS VDD VDD _354_ sky130_fd_sc_hd__xnor2_1
X_779_ _113_ _354_ VSS VSS VDD VDD _355_ sky130_fd_sc_hd__nand2_1
X_780_ _351_ _352_ _355_ _312_ VSS VSS VDD VDD _066_ sky130_fd_sc_hd__a31oi_1
X_781_ uart_tx_inst.prescale_reg\[15\] uart_tx_inst.prescale_reg\[14\]
+ _347_ VSS VSS VDD VDD _356_ sky130_fd_sc_hd__nor3_1
X_782_ uart_tx_inst.prescale_reg\[16\] _356_ VSS VSS VDD VDD
+ _357_ sky130_fd_sc_hd__xnor2_1
X_783_ _113_ _316_ VSS VSS VDD VDD _358_ sky130_fd_sc_hd__nand2_1
X_784_ _203_ net5 _116_ _204_ VSS VSS VDD VDD _359_ sky130_fd_sc_hd__nor4_1
X_785_ net6 _359_ VSS VSS VDD VDD _360_ sky130_fd_sc_hd__xnor2_1
X_786_ _100_ _113_ _357_ _358_ _360_ VSS VSS VDD VDD _067_
+ sky130_fd_sc_hd__o32ai_1
X_787_ uart_tx_inst.prescale_reg\[18\] _297_ VSS VSS VDD VDD
+ _361_ sky130_fd_sc_hd__nor2_1
X_788_ uart_tx_inst.prescale_reg\[17\] _361_ VSS VSS VDD VDD
+ _362_ sky130_fd_sc_hd__nor2_1
X_789_ uart_tx_inst.prescale_reg\[15\] uart_tx_inst.prescale_reg\[16\]
+ uart_tx_inst.prescale_reg\[14\] _340_ VSS VSS VDD VDD _363_
+ sky130_fd_sc_hd__nor4_1
X_790_ uart_tx_inst.prescale_reg\[17\] _362_ _363_ VSS VSS
+ VDD VDD _364_ sky130_fd_sc_hd__mux2i_1
X_791_ _225_ _226_ _325_ VSS VSS VDD VDD _365_ sky130_fd_sc_hd__nand3_1
X_792_ net7 _365_ VSS VSS VDD VDD _366_ sky130_fd_sc_hd__xnor2_1