* CDL Netlist generated by OpenROAD

*.BUSDELIMITER [

.SUBCKT fifo clk din[0] din[1] din[2] din[3] din[4] din[5]
+ din[6] din[7] dout[0] dout[1] dout[2] dout[3] dout[4] dout[5]
+ dout[6] dout[7] empty full rd_en rst_n wr_en
X_541_ rd_ptr\[4\] _150_ VDD VSS BUF_X2
X_542_ wr_ptr\[4\] _150_ _151_ VDD VSS XNOR2_X2
X_543_ rd_ptr\[0\] _152_ VDD VSS BUF_X4
X_544_ _152_ wr_ptr\[0\] _153_ VDD VSS XNOR2_X2
X_545_ rd_ptr\[1\] _154_ VDD VSS BUF_X2
X_546_ _154_ wr_ptr\[1\] _155_ VDD VSS XNOR2_X2
X_547_ rd_ptr\[2\] _156_ VDD VSS BUF_X4
X_548_ wr_ptr\[2\] _157_ VDD VSS BUF_X4
X_549_ _156_ _157_ _158_ VDD VSS XNOR2_X2
X_550_ rd_ptr\[3\] _159_ VDD VSS BUF_X2
X_551_ wr_ptr\[3\] _160_ VDD VSS BUF_X4
X_552_ _159_ _160_ _161_ VDD VSS XNOR2_X2
X_553_ _153_ _155_ _158_ _161_ _162_ VDD VSS NAND4_X4
X_554_ _151_ _162_ _163_ VDD VSS OR2_X1
X_555_ _163_ _164_ VDD VSS BUF_X8
X_556_ _164_ _165_ VDD VSS BUF_X16
X_557_ _165_ net12 VDD VSS INV_X2
X_558_ wr_ptr\[4\] _150_ _166_ VDD VSS XOR2_X2
X_559_ _166_ _162_ net11 VDD VSS NOR2_X4
X_560_ din[0] _167_ VDD VSS BUF_X2
X_561_ _167_ _168_ VDD VSS BUF_X2
X_562_ _533_ _169_ VDD VSS BUF_X4
X_563_ rst_n _170_ VDD VSS CLKBUF_X3
X_564_ _170_ net2 _171_ VDD VSS NAND2_X4
X_565_ _160_ _157_ _171_ _172_ VDD VSS NOR3_X4
X_566_ _169_ _165_ _172_ _173_ VDD VSS NAND3_X4
X_567_ _168_ mem\[0\]\[0\] _173_ _012_ VDD VSS MUX2_X1
X_568_ din[1] _174_ VDD VSS BUF_X2
X_569_ _174_ _175_ VDD VSS BUF_X2
X_570_ _175_ mem\[0\]\[1\] _173_ _013_ VDD VSS MUX2_X1
X_571_ din[2] _176_ VDD VSS CLKBUF_X2
X_572_ _176_ _177_ VDD VSS BUF_X2
X_573_ _177_ mem\[0\]\[2\] _173_ _014_ VDD VSS MUX2_X1
X_574_ din[3] _178_ VDD VSS BUF_X2
X_575_ _178_ _179_ VDD VSS BUF_X2
X_576_ _179_ mem\[0\]\[3\] _173_ _015_ VDD VSS MUX2_X1
X_577_ din[4] _180_ VDD VSS CLKBUF_X2
X_578_ _180_ _181_ VDD VSS BUF_X2
X_579_ _181_ mem\[0\]\[4\] _173_ _016_ VDD VSS MUX2_X1
X_580_ din[5] _182_ VDD VSS BUF_X2
X_581_ _182_ _183_ VDD VSS CLKBUF_X3
X_582_ _183_ mem\[0\]\[5\] _173_ _017_ VDD VSS MUX2_X1
X_583_ din[6] _184_ VDD VSS CLKBUF_X2
X_584_ _184_ _185_ VDD VSS BUF_X2
X_585_ _185_ mem\[0\]\[6\] _173_ _018_ VDD VSS MUX2_X1
X_586_ din[7] _186_ VDD VSS CLKBUF_X2
X_587_ _186_ _187_ VDD VSS BUF_X2
X_588_ _187_ mem\[0\]\[7\] _173_ _019_ VDD VSS MUX2_X1
X_589_ _534_ _188_ VDD VSS BUF_X4
X_590_ _160_ _189_ VDD VSS INV_X1
X_591_ _189_ _157_ _190_ VDD VSS OR2_X2
X_592_ _171_ _190_ _191_ VDD VSS NOR2_X4
X_593_ _188_ _165_ _191_ _192_ VDD VSS NAND3_X4
X_594_ _168_ mem\[10\]\[0\] _192_ _020_ VDD VSS MUX2_X1
X_595_ _175_ mem\[10\]\[1\] _192_ _021_ VDD VSS MUX2_X1
X_596_ _177_ mem\[10\]\[2\] _192_ _022_ VDD VSS MUX2_X1
X_597_ _179_ mem\[10\]\[3\] _192_ _023_ VDD VSS MUX2_X1
X_598_ _181_ mem\[10\]\[4\] _192_ _024_ VDD VSS MUX2_X1
X_599_ _183_ mem\[10\]\[5\] _192_ _025_ VDD VSS MUX2_X1
X_600_ _185_ mem\[10\]\[6\] _192_ _026_ VDD VSS MUX2_X1
X_601_ _187_ mem\[10\]\[7\] _192_ _027_ VDD VSS MUX2_X1
X_602_ _538_ _193_ VDD VSS INV_X1
X_603_ _193_ _171_ _194_ VDD VSS NOR2_X1
X_604_ _194_ _162_ _151_ _195_ VDD VSS OAI21_X4
X_605_ _190_ _195_ _196_ VDD VSS NOR2_X4
X_606_ mem\[11\]\[0\] _168_ _196_ _028_ VDD VSS MUX2_X1
X_607_ mem\[11\]\[1\] _175_ _196_ _029_ VDD VSS MUX2_X1
X_608_ mem\[11\]\[2\] _177_ _196_ _030_ VDD VSS MUX2_X1
X_609_ mem\[11\]\[3\] _179_ _196_ _031_ VDD VSS MUX2_X1
X_610_ mem\[11\]\[4\] _181_ _196_ _032_ VDD VSS MUX2_X1
X_611_ mem\[11\]\[5\] _183_ _196_ _033_ VDD VSS MUX2_X1
X_612_ mem\[11\]\[6\] _185_ _196_ _034_ VDD VSS MUX2_X1
X_613_ mem\[11\]\[7\] _187_ _196_ _035_ VDD VSS MUX2_X1
X_614_ _160_ _157_ _197_ VDD VSS NAND2_X2
X_615_ _171_ _197_ _198_ VDD VSS NOR2_X4
X_616_ _169_ _165_ _198_ _199_ VDD VSS NAND3_X4
X_617_ _168_ mem\[12\]\[0\] _199_ _036_ VDD VSS MUX2_X1
X_618_ _175_ mem\[12\]\[1\] _199_ _037_ VDD VSS MUX2_X1
X_619_ _177_ mem\[12\]\[2\] _199_ _038_ VDD VSS MUX2_X1
X_620_ _179_ mem\[12\]\[3\] _199_ _039_ VDD VSS MUX2_X1
X_621_ _181_ mem\[12\]\[4\] _199_ _040_ VDD VSS MUX2_X1
X_622_ _183_ mem\[12\]\[5\] _199_ _041_ VDD VSS MUX2_X1
X_623_ _185_ mem\[12\]\[6\] _199_ _042_ VDD VSS MUX2_X1
X_624_ _187_ mem\[12\]\[7\] _199_ _043_ VDD VSS MUX2_X1
X_625_ _536_ _200_ VDD VSS BUF_X4
X_626_ _200_ _165_ _198_ _201_ VDD VSS NAND3_X4
X_627_ _168_ mem\[13\]\[0\] _201_ _044_ VDD VSS MUX2_X1
X_628_ _175_ mem\[13\]\[1\] _201_ _045_ VDD VSS MUX2_X1
X_629_ _177_ mem\[13\]\[2\] _201_ _046_ VDD VSS MUX2_X1
X_630_ _179_ mem\[13\]\[3\] _201_ _047_ VDD VSS MUX2_X1
X_631_ _181_ mem\[13\]\[4\] _201_ _048_ VDD VSS MUX2_X1
X_632_ _183_ mem\[13\]\[5\] _201_ _049_ VDD VSS MUX2_X1
X_633_ _185_ mem\[13\]\[6\] _201_ _050_ VDD VSS MUX2_X1
X_634_ _187_ mem\[13\]\[7\] _201_ _051_ VDD VSS MUX2_X1
X_635_ _188_ _165_ _198_ _202_ VDD VSS NAND3_X4
X_636_ _168_ mem\[14\]\[0\] _202_ _052_ VDD VSS MUX2_X1
X_637_ _175_ mem\[14\]\[1\] _202_ _053_ VDD VSS MUX2_X1
X_638_ _177_ mem\[14\]\[2\] _202_ _054_ VDD VSS MUX2_X1
X_639_ _179_ mem\[14\]\[3\] _202_ _055_ VDD VSS MUX2_X1
X_640_ _181_ mem\[14\]\[4\] _202_ _056_ VDD VSS MUX2_X1
X_641_ _183_ mem\[14\]\[5\] _202_ _057_ VDD VSS MUX2_X1
X_642_ _185_ mem\[14\]\[6\] _202_ _058_ VDD VSS MUX2_X1
X_643_ _187_ mem\[14\]\[7\] _202_ _059_ VDD VSS MUX2_X1
X_644_ _195_ _197_ _203_ VDD VSS NOR2_X4
X_645_ mem\[15\]\[0\] _168_ _203_ _060_ VDD VSS MUX2_X1
X_646_ mem\[15\]\[1\] _175_ _203_ _061_ VDD VSS MUX2_X1
X_647_ mem\[15\]\[2\] _177_ _203_ _062_ VDD VSS MUX2_X1
X_648_ mem\[15\]\[3\] _179_ _203_ _063_ VDD VSS MUX2_X1
X_649_ mem\[15\]\[4\] _181_ _203_ _064_ VDD VSS MUX2_X1
X_650_ mem\[15\]\[5\] _183_ _203_ _065_ VDD VSS MUX2_X1
X_651_ mem\[15\]\[6\] _185_ _203_ _066_ VDD VSS MUX2_X1
X_652_ mem\[15\]\[7\] _187_ _203_ _067_ VDD VSS MUX2_X1
X_653_ _200_ _165_ _172_ _204_ VDD VSS NAND3_X4
X_654_ _168_ mem\[1\]\[0\] _204_ _068_ VDD VSS MUX2_X1
X_655_ _175_ mem\[1\]\[1\] _204_ _069_ VDD VSS MUX2_X1
X_656_ _177_ mem\[1\]\[2\] _204_ _070_ VDD VSS MUX2_X1
X_657_ _179_ mem\[1\]\[3\] _204_ _071_ VDD VSS MUX2_X1
X_658_ _181_ mem\[1\]\[4\] _204_ _072_ VDD VSS MUX2_X1
X_659_ _183_ mem\[1\]\[5\] _204_ _073_ VDD VSS MUX2_X1
X_660_ _185_ mem\[1\]\[6\] _204_ _074_ VDD VSS MUX2_X1
X_661_ _187_ mem\[1\]\[7\] _204_ _075_ VDD VSS MUX2_X1
X_662_ _188_ _165_ _172_ _205_ VDD VSS NAND3_X4
X_663_ _167_ mem\[2\]\[0\] _205_ _076_ VDD VSS MUX2_X1
X_664_ _174_ mem\[2\]\[1\] _205_ _077_ VDD VSS MUX2_X1
X_665_ _176_ mem\[2\]\[2\] _205_ _078_ VDD VSS MUX2_X1
X_666_ _178_ mem\[2\]\[3\] _205_ _079_ VDD VSS MUX2_X1
X_667_ _180_ mem\[2\]\[4\] _205_ _080_ VDD VSS MUX2_X1
X_668_ _182_ mem\[2\]\[5\] _205_ _081_ VDD VSS MUX2_X1
X_669_ _184_ mem\[2\]\[6\] _205_ _082_ VDD VSS MUX2_X1
X_670_ _186_ mem\[2\]\[7\] _205_ _083_ VDD VSS MUX2_X1
X_671_ _160_ _157_ _195_ _206_ VDD VSS NOR3_X4
X_672_ mem\[3\]\[0\] _168_ _206_ _084_ VDD VSS MUX2_X1
X_673_ mem\[3\]\[1\] _175_ _206_ _085_ VDD VSS MUX2_X1
X_674_ mem\[3\]\[2\] _177_ _206_ _086_ VDD VSS MUX2_X1
X_675_ mem\[3\]\[3\] _179_ _206_ _087_ VDD VSS MUX2_X1
X_676_ mem\[3\]\[4\] _181_ _206_ _088_ VDD VSS MUX2_X1
X_677_ mem\[3\]\[5\] _183_ _206_ _089_ VDD VSS MUX2_X1
X_678_ mem\[3\]\[6\] _185_ _206_ _090_ VDD VSS MUX2_X1
X_679_ mem\[3\]\[7\] _187_ _206_ _091_ VDD VSS MUX2_X1
X_680_ _189_ _157_ _207_ VDD VSS NAND2_X2
X_681_ _171_ _207_ _208_ VDD VSS NOR2_X4
X_682_ _169_ _165_ _208_ _209_ VDD VSS NAND3_X4
X_683_ _167_ mem\[4\]\[0\] _209_ _092_ VDD VSS MUX2_X1
X_684_ _174_ mem\[4\]\[1\] _209_ _093_ VDD VSS MUX2_X1
X_685_ _176_ mem\[4\]\[2\] _209_ _094_ VDD VSS MUX2_X1
X_686_ _178_ mem\[4\]\[3\] _209_ _095_ VDD VSS MUX2_X1
X_687_ _180_ mem\[4\]\[4\] _209_ _096_ VDD VSS MUX2_X1
X_688_ _182_ mem\[4\]\[5\] _209_ _097_ VDD VSS MUX2_X1
X_689_ _184_ mem\[4\]\[6\] _209_ _098_ VDD VSS MUX2_X1
X_690_ _186_ mem\[4\]\[7\] _209_ _099_ VDD VSS MUX2_X1
X_691_ _200_ _165_ _208_ _210_ VDD VSS NAND3_X4
X_692_ _167_ mem\[5\]\[0\] _210_ _100_ VDD VSS MUX2_X1
X_693_ _174_ mem\[5\]\[1\] _210_ _101_ VDD VSS MUX2_X1
X_694_ _176_ mem\[5\]\[2\] _210_ _102_ VDD VSS MUX2_X1
X_695_ _178_ mem\[5\]\[3\] _210_ _103_ VDD VSS MUX2_X1
X_696_ _180_ mem\[5\]\[4\] _210_ _104_ VDD VSS MUX2_X1
X_697_ _182_ mem\[5\]\[5\] _210_ _105_ VDD VSS MUX2_X1
X_698_ _184_ mem\[5\]\[6\] _210_ _106_ VDD VSS MUX2_X1
X_699_ _186_ mem\[5\]\[7\] _210_ _107_ VDD VSS MUX2_X1
X_700_ _188_ _164_ _208_ _211_ VDD VSS NAND3_X4
X_701_ _167_ mem\[6\]\[0\] _211_ _108_ VDD VSS MUX2_X1
X_702_ _174_ mem\[6\]\[1\] _211_ _109_ VDD VSS MUX2_X1
X_703_ _176_ mem\[6\]\[2\] _211_ _110_ VDD VSS MUX2_X1
X_704_ _178_ mem\[6\]\[3\] _211_ _111_ VDD VSS MUX2_X1
X_705_ _180_ mem\[6\]\[4\] _211_ _112_ VDD VSS MUX2_X1
X_706_ _182_ mem\[6\]\[5\] _211_ _113_ VDD VSS MUX2_X1
X_707_ _184_ mem\[6\]\[6\] _211_ _114_ VDD VSS MUX2_X1
X_708_ _186_ mem\[6\]\[7\] _211_ _115_ VDD VSS MUX2_X1
X_709_ _195_ _207_ _212_ VDD VSS NOR2_X4
X_710_ mem\[7\]\[0\] _168_ _212_ _116_ VDD VSS MUX2_X1
X_711_ mem\[7\]\[1\] _175_ _212_ _117_ VDD VSS MUX2_X1
X_712_ mem\[7\]\[2\] _177_ _212_ _118_ VDD VSS MUX2_X1
X_713_ mem\[7\]\[3\] _179_ _212_ _119_ VDD VSS MUX2_X1
X_714_ mem\[7\]\[4\] _181_ _212_ _120_ VDD VSS MUX2_X1
X_715_ mem\[7\]\[5\] _183_ _212_ _121_ VDD VSS MUX2_X1
X_716_ mem\[7\]\[6\] _185_ _212_ _122_ VDD VSS MUX2_X1
X_717_ mem\[7\]\[7\] _187_ _212_ _123_ VDD VSS MUX2_X1
X_718_ _169_ _164_ _191_ _213_ VDD VSS NAND3_X4
X_719_ _167_ mem\[8\]\[0\] _213_ _124_ VDD VSS MUX2_X1
X_720_ _174_ mem\[8\]\[1\] _213_ _125_ VDD VSS MUX2_X1
X_721_ _176_ mem\[8\]\[2\] _213_ _126_ VDD VSS MUX2_X1
X_722_ _178_ mem\[8\]\[3\] _213_ _127_ VDD VSS MUX2_X1
X_723_ _180_ mem\[8\]\[4\] _213_ _128_ VDD VSS MUX2_X1
X_724_ _182_ mem\[8\]\[5\] _213_ _129_ VDD VSS MUX2_X1
X_725_ _184_ mem\[8\]\[6\] _213_ _130_ VDD VSS MUX2_X1
X_726_ _186_ mem\[8\]\[7\] _213_ _131_ VDD VSS MUX2_X1
X_727_ _200_ _164_ _191_ _214_ VDD VSS NAND3_X4
X_728_ _167_ mem\[9\]\[0\] _214_ _132_ VDD VSS MUX2_X1
X_729_ _174_ mem\[9\]\[1\] _214_ _133_ VDD VSS MUX2_X1
X_730_ _176_ mem\[9\]\[2\] _214_ _134_ VDD VSS MUX2_X1
X_731_ _178_ mem\[9\]\[3\] _214_ _135_ VDD VSS MUX2_X1
X_732_ _180_ mem\[9\]\[4\] _214_ _136_ VDD VSS MUX2_X1
X_733_ _182_ mem\[9\]\[5\] _214_ _137_ VDD VSS MUX2_X1
X_734_ _184_ mem\[9\]\[6\] _214_ _138_ VDD VSS MUX2_X1
X_735_ _186_ mem\[9\]\[7\] _214_ _139_ VDD VSS MUX2_X1
X_736_ _170_ _215_ VDD VSS CLKBUF_X3
X_737_ net1 _166_ _162_ _216_ VDD VSS OAI21_X4
X_738_ _216_ _217_ VDD VSS BUF_X4
X_739_ _215_ net3 _217_ _218_ VDD VSS NAND3_X1
X_740_ _170_ _219_ VDD VSS INV_X2
X_741_ _219_ _216_ _220_ VDD VSS OR2_X1
X_742_ _220_ _221_ VDD VSS CLKBUF_X3
X_743_ _154_ _222_ VDD VSS BUF_X4
X_744_ _222_ _223_ VDD VSS BUF_X4
X_745_ mem\[8\]\[0\] mem\[10\]\[0\] _223_ _224_ VDD VSS MUX2_X1
X_746_ mem\[9\]\[0\] mem\[11\]\[0\] _223_ _225_ VDD VSS MUX2_X1
X_747_ _152_ _226_ VDD VSS BUF_X4
X_748_ _224_ _225_ _226_ _227_ VDD VSS MUX2_X1
X_749_ _159_ _228_ VDD VSS INV_X1
X_750_ _156_ _228_ _229_ VDD VSS NOR2_X4
X_751_ mem\[12\]\[0\] mem\[14\]\[0\] _222_ _230_ VDD VSS MUX2_X1
X_752_ mem\[13\]\[0\] mem\[15\]\[0\] _222_ _231_ VDD VSS MUX2_X1
X_753_ _230_ _231_ _152_ _232_ VDD VSS MUX2_X1
X_754_ _156_ _159_ _233_ VDD VSS AND2_X1
X_755_ _233_ _234_ VDD VSS BUF_X4
X_756_ _227_ _229_ _232_ _234_ _235_ VDD VSS AOI22_X1
X_757_ _222_ _236_ VDD VSS BUF_X4
X_758_ mem\[0\]\[0\] mem\[2\]\[0\] _236_ _237_ VDD VSS MUX2_X1
X_759_ mem\[1\]\[0\] mem\[3\]\[0\] _236_ _238_ VDD VSS MUX2_X1
X_760_ _152_ _239_ VDD VSS BUF_X4
X_761_ _237_ _238_ _239_ _240_ VDD VSS MUX2_X1
X_762_ _156_ _159_ _241_ VDD VSS NOR2_X4
X_763_ mem\[4\]\[0\] mem\[6\]\[0\] _222_ _242_ VDD VSS MUX2_X1
X_764_ mem\[5\]\[0\] mem\[7\]\[0\] _222_ _243_ VDD VSS MUX2_X1
X_765_ _242_ _243_ _152_ _244_ VDD VSS MUX2_X1
X_766_ _156_ _228_ _245_ VDD VSS AND2_X1
X_767_ _245_ _246_ VDD VSS CLKBUF_X3
X_768_ _240_ _241_ _244_ _246_ _247_ VDD VSS AOI22_X1
X_769_ _235_ _247_ _248_ VDD VSS AND2_X1
X_770_ _218_ _221_ _248_ _004_ VDD VSS OAI21_X1
X_771_ _215_ net4 _217_ _249_ VDD VSS NAND3_X1
X_772_ _222_ _250_ VDD VSS BUF_X4
X_773_ mem\[8\]\[1\] mem\[10\]\[1\] _250_ _251_ VDD VSS MUX2_X1
X_774_ mem\[9\]\[1\] mem\[11\]\[1\] _250_ _252_ VDD VSS MUX2_X1
X_775_ _251_ _252_ _226_ _253_ VDD VSS MUX2_X1
X_776_ _154_ _254_ VDD VSS BUF_X4
X_777_ mem\[12\]\[1\] mem\[14\]\[1\] _254_ _255_ VDD VSS MUX2_X1
X_778_ mem\[13\]\[1\] mem\[15\]\[1\] _236_ _256_ VDD VSS MUX2_X1
X_779_ _255_ _256_ _239_ _257_ VDD VSS MUX2_X1
X_780_ _229_ _253_ _257_ _234_ _258_ VDD VSS AOI22_X1
X_781_ _222_ _259_ VDD VSS BUF_X4
X_782_ mem\[0\]\[1\] mem\[2\]\[1\] _259_ _260_ VDD VSS MUX2_X1
X_783_ mem\[1\]\[1\] mem\[3\]\[1\] _223_ _261_ VDD VSS MUX2_X1
X_784_ _260_ _261_ _239_ _262_ VDD VSS MUX2_X1
X_785_ _154_ _263_ VDD VSS BUF_X4
X_786_ mem\[4\]\[1\] mem\[6\]\[1\] _263_ _264_ VDD VSS MUX2_X1
X_787_ mem\[5\]\[1\] mem\[7\]\[1\] _254_ _265_ VDD VSS MUX2_X1
X_788_ _152_ _266_ VDD VSS BUF_X4
X_789_ _264_ _265_ _266_ _267_ VDD VSS MUX2_X1
X_790_ _241_ _262_ _267_ _246_ _268_ VDD VSS AOI22_X1
X_791_ _258_ _268_ _269_ VDD VSS AND2_X1
X_792_ _249_ _269_ _221_ _005_ VDD VSS OAI21_X1
X_793_ _215_ net5 _217_ _270_ VDD VSS NAND3_X1
X_794_ mem\[8\]\[2\] mem\[10\]\[2\] _223_ _271_ VDD VSS MUX2_X1
X_795_ mem\[9\]\[2\] mem\[11\]\[2\] _250_ _272_ VDD VSS MUX2_X1
X_796_ _271_ _272_ _226_ _273_ VDD VSS MUX2_X1
X_797_ mem\[12\]\[2\] mem\[14\]\[2\] _254_ _274_ VDD VSS MUX2_X1
X_798_ mem\[13\]\[2\] mem\[15\]\[2\] _236_ _275_ VDD VSS MUX2_X1
X_799_ _274_ _275_ _239_ _276_ VDD VSS MUX2_X1
X_800_ _229_ _273_ _276_ _234_ _277_ VDD VSS AOI22_X1
X_801_ mem\[0\]\[2\] mem\[2\]\[2\] _259_ _278_ VDD VSS MUX2_X1
X_802_ mem\[1\]\[2\] mem\[3\]\[2\] _223_ _279_ VDD VSS MUX2_X1
X_803_ _278_ _279_ _239_ _280_ VDD VSS MUX2_X1
X_804_ mem\[4\]\[2\] mem\[6\]\[2\] _263_ _281_ VDD VSS MUX2_X1
X_805_ mem\[5\]\[2\] mem\[7\]\[2\] _254_ _282_ VDD VSS MUX2_X1
X_806_ _281_ _282_ _266_ _283_ VDD VSS MUX2_X1
X_807_ _241_ _280_ _283_ _246_ _284_ VDD VSS AOI22_X1
X_808_ _277_ _284_ _285_ VDD VSS AND2_X1
X_809_ _270_ _285_ _221_ _006_ VDD VSS OAI21_X1
X_810_ _215_ net6 _217_ _286_ VDD VSS NAND3_X1
X_811_ mem\[8\]\[3\] mem\[10\]\[3\] _223_ _287_ VDD VSS MUX2_X1
X_812_ mem\[9\]\[3\] mem\[11\]\[3\] _250_ _288_ VDD VSS MUX2_X1
X_813_ _287_ _288_ _226_ _289_ VDD VSS MUX2_X1
X_814_ mem\[12\]\[3\] mem\[14\]\[3\] _254_ _290_ VDD VSS MUX2_X1
X_815_ mem\[13\]\[3\] mem\[15\]\[3\] _236_ _291_ VDD VSS MUX2_X1
X_816_ _290_ _291_ _266_ _292_ VDD VSS MUX2_X1
X_817_ _229_ _289_ _292_ _234_ _293_ VDD VSS AOI22_X1
X_818_ mem\[0\]\[3\] mem\[2\]\[3\] _259_ _294_ VDD VSS MUX2_X1
X_819_ mem\[1\]\[3\] mem\[3\]\[3\] _259_ _295_ VDD VSS MUX2_X1
X_820_ _294_ _295_ _239_ _296_ VDD VSS MUX2_X1
X_821_ mem\[4\]\[3\] mem\[6\]\[3\] _263_ _297_ VDD VSS MUX2_X1
X_822_ mem\[5\]\[3\] mem\[7\]\[3\] _263_ _298_ VDD VSS MUX2_X1
X_823_ _297_ _298_ _266_ _299_ VDD VSS MUX2_X1
X_824_ _241_ _296_ _299_ _246_ _300_ VDD VSS AOI22_X1
X_825_ _293_ _300_ _301_ VDD VSS AND2_X1
X_826_ _286_ _301_ _221_ _007_ VDD VSS OAI21_X1
X_827_ _215_ net7 _217_ _302_ VDD VSS NAND3_X1
X_828_ mem\[8\]\[4\] mem\[10\]\[4\] _223_ _303_ VDD VSS MUX2_X1
X_829_ mem\[9\]\[4\] mem\[11\]\[4\] _250_ _304_ VDD VSS MUX2_X1
X_830_ _303_ _304_ _226_ _305_ VDD VSS MUX2_X1
X_831_ mem\[12\]\[4\] mem\[14\]\[4\] _254_ _306_ VDD VSS MUX2_X1
X_832_ mem\[13\]\[4\] mem\[15\]\[4\] _236_ _307_ VDD VSS MUX2_X1
X_833_ _306_ _307_ _266_ _308_ VDD VSS MUX2_X1
X_834_ _229_ _305_ _308_ _234_ _309_ VDD VSS AOI22_X1
X_835_ mem\[0\]\[4\] mem\[2\]\[4\] _259_ _310_ VDD VSS MUX2_X1
X_836_ mem\[1\]\[4\] mem\[3\]\[4\] _259_ _311_ VDD VSS MUX2_X1
X_837_ _310_ _311_ _239_ _312_ VDD VSS MUX2_X1
X_838_ mem\[4\]\[4\] mem\[6\]\[4\] _263_ _313_ VDD VSS MUX2_X1
X_839_ mem\[5\]\[4\] mem\[7\]\[4\] _263_ _314_ VDD VSS MUX2_X1
X_840_ _313_ _314_ _266_ _315_ VDD VSS MUX2_X1
X_841_ _241_ _312_ _315_ _246_ _316_ VDD VSS AOI22_X1
X_842_ _309_ _316_ _317_ VDD VSS AND2_X1
X_843_ _302_ _317_ _221_ _008_ VDD VSS OAI21_X1
X_844_ _215_ net8 _217_ _318_ VDD VSS NAND3_X1
X_845_ mem\[8\]\[5\] mem\[10\]\[5\] _223_ _319_ VDD VSS MUX2_X1
X_846_ mem\[9\]\[5\] mem\[11\]\[5\] _250_ _320_ VDD VSS MUX2_X1
X_847_ _319_ _320_ _226_ _321_ VDD VSS MUX2_X1
X_848_ mem\[12\]\[5\] mem\[14\]\[5\] _254_ _322_ VDD VSS MUX2_X1
X_849_ mem\[13\]\[5\] mem\[15\]\[5\] _236_ _323_ VDD VSS MUX2_X1
X_850_ _322_ _323_ _266_ _324_ VDD VSS MUX2_X1
X_851_ _229_ _321_ _324_ _234_ _325_ VDD VSS AOI22_X1
X_852_ mem\[0\]\[5\] mem\[2\]\[5\] _259_ _326_ VDD VSS MUX2_X1
X_853_ mem\[1\]\[5\] mem\[3\]\[5\] _259_ _327_ VDD VSS MUX2_X1
X_854_ _326_ _327_ _239_ _328_ VDD VSS MUX2_X1
X_855_ mem\[4\]\[5\] mem\[6\]\[5\] _263_ _329_ VDD VSS MUX2_X1
X_856_ mem\[5\]\[5\] mem\[7\]\[5\] _263_ _330_ VDD VSS MUX2_X1
X_857_ _329_ _330_ _266_ _331_ VDD VSS MUX2_X1
X_858_ _241_ _328_ _331_ _246_ _332_ VDD VSS AOI22_X1
X_859_ _325_ _332_ _333_ VDD VSS AND2_X1
X_860_ _318_ _333_ _221_ _009_ VDD VSS OAI21_X1
X_861_ _170_ net9 _217_ _334_ VDD VSS NAND3_X1
X_862_ mem\[8\]\[6\] mem\[10\]\[6\] _223_ _335_ VDD VSS MUX2_X1
X_863_ mem\[9\]\[6\] mem\[11\]\[6\] _250_ _336_ VDD VSS MUX2_X1
X_864_ _335_ _336_ _226_ _337_ VDD VSS MUX2_X1
X_865_ mem\[12\]\[6\] mem\[14\]\[6\] _254_ _338_ VDD VSS MUX2_X1
X_866_ mem\[13\]\[6\] mem\[15\]\[6\] _236_ _339_ VDD VSS MUX2_X1
X_867_ _338_ _339_ _266_ _340_ VDD VSS MUX2_X1
X_868_ _229_ _337_ _340_ _234_ _341_ VDD VSS AOI22_X1
X_869_ mem\[0\]\[6\] mem\[2\]\[6\] _236_ _342_ VDD VSS MUX2_X1
X_870_ mem\[1\]\[6\] mem\[3\]\[6\] _259_ _343_ VDD VSS MUX2_X1
X_871_ _342_ _343_ _239_ _344_ VDD VSS MUX2_X1
X_872_ mem\[4\]\[6\] mem\[6\]\[6\] _222_ _345_ VDD VSS MUX2_X1
X_873_ mem\[5\]\[6\] mem\[7\]\[6\] _263_ _346_ VDD VSS MUX2_X1
X_874_ _345_ _346_ _152_ _347_ VDD VSS MUX2_X1
X_875_ _241_ _344_ _347_ _246_ _348_ VDD VSS AOI22_X1
X_876_ _341_ _348_ _349_ VDD VSS AND2_X1
X_877_ _334_ _349_ _221_ _010_ VDD VSS OAI21_X1
X_878_ _170_ net10 _217_ _350_ VDD VSS NAND3_X1
X_879_ mem\[8\]\[7\] mem\[10\]\[7\] _223_ _351_ VDD VSS MUX2_X1
X_880_ mem\[9\]\[7\] mem\[11\]\[7\] _250_ _352_ VDD VSS MUX2_X1
X_881_ _351_ _352_ _226_ _353_ VDD VSS MUX2_X1
X_882_ mem\[12\]\[7\] mem\[14\]\[7\] _254_ _354_ VDD VSS MUX2_X1
X_883_ mem\[13\]\[7\] mem\[15\]\[7\] _254_ _355_ VDD VSS MUX2_X1
X_884_ _354_ _355_ _266_ _356_ VDD VSS MUX2_X1
X_885_ _229_ _353_ _356_ _234_ _357_ VDD VSS AOI22_X1
X_886_ mem\[0\]\[7\] mem\[2\]\[7\] _236_ _358_ VDD VSS MUX2_X1
X_887_ mem\[1\]\[7\] mem\[3\]\[7\] _259_ _359_ VDD VSS MUX2_X1
X_888_ _358_ _359_ _239_ _360_ VDD VSS MUX2_X1
X_889_ mem\[4\]\[7\] mem\[6\]\[7\] _222_ _361_ VDD VSS MUX2_X1
X_890_ mem\[5\]\[7\] mem\[7\]\[7\] _263_ _362_ VDD VSS MUX2_X1
X_891_ _361_ _362_ _152_ _363_ VDD VSS MUX2_X1
X_892_ _241_ _360_ _363_ _246_ _364_ VDD VSS AOI22_X1
X_893_ _357_ _364_ _365_ VDD VSS AND2_X1
X_894_ _350_ _365_ _221_ _011_ VDD VSS OAI21_X1
X_895_ _002_ _226_ _216_ _366_ VDD VSS MUX2_X1
X_896_ _215_ _366_ _140_ VDD VSS AND2_X1
X_897_ _003_ _250_ _216_ _367_ VDD VSS MUX2_X1
X_898_ _215_ _367_ _141_ VDD VSS AND2_X1
X_899_ _540_ _368_ VDD VSS INV_X1
X_900_ _156_ _368_ _216_ _369_ VDD VSS OAI21_X1
X_901_ _156_ _368_ _216_ _370_ VDD VSS OR3_X1
X_902_ _219_ _369_ _370_ _142_ VDD VSS AOI21_X1
X_903_ _156_ _226_ _250_ _371_ VDD VSS NAND3_X1
X_904_ _159_ _217_ _371_ _372_ VDD VSS OAI21_X1
X_905_ _159_ _216_ _371_ _373_ VDD VSS OR3_X1
X_906_ _219_ _372_ _373_ _143_ VDD VSS AOI21_X1
X_907_ _540_ _234_ _374_ VDD VSS NAND2_X1
X_908_ _150_ _217_ _374_ _375_ VDD VSS OAI21_X1
X_909_ _150_ _216_ _374_ _376_ VDD VSS OR3_X1
X_910_ _219_ _375_ _376_ _144_ VDD VSS AOI21_X1
X_911_ net2 _151_ _162_ _377_ VDD VSS OAI21_X2
X_912_ _000_ wr_ptr\[0\] _377_ _378_ VDD VSS MUX2_X1
X_913_ _215_ _378_ _145_ VDD VSS AND2_X1
X_914_ _001_ wr_ptr\[1\] _377_ _379_ VDD VSS MUX2_X1
X_915_ _215_ _379_ _146_ VDD VSS AND2_X1
X_916_ _157_ _193_ _377_ _380_ VDD VSS OAI21_X1
X_917_ _157_ _193_ _377_ _381_ VDD VSS OR3_X1
X_918_ _219_ _380_ _381_ _147_ VDD VSS AOI21_X1
X_919_ _157_ wr_ptr\[1\] wr_ptr\[0\] _382_ VDD VSS NAND3_X1
X_920_ _160_ _377_ _382_ _383_ VDD VSS OAI21_X1
X_921_ _160_ _377_ _382_ _384_ VDD VSS OR3_X1
X_922_ _219_ _383_ _384_ _148_ VDD VSS AOI21_X1
X_923_ net2 _385_ VDD VSS INV_X1
X_924_ _193_ _385_ _197_ _386_ VDD VSS NOR3_X1
X_925_ _386_ _162_ _151_ _387_ VDD VSS OAI21_X1
X_926_ wr_ptr\[4\] _387_ _388_ VDD VSS XOR2_X1
X_927_ _219_ _388_ _149_ VDD VSS NOR2_X1
X_928_ _000_ _532_ _533_ _001_ VDD VSS HA_X1
X_929_ _000_ wr_ptr\[1\] _534_ _535_ VDD VSS HA_X1
X_930_ wr_ptr\[0\] _532_ _536_ _537_ VDD VSS HA_X1
X_931_ wr_ptr\[0\] wr_ptr\[1\] _538_ _539_ VDD VSS HA_X1
X_932_ rd_ptr\[0\] rd_ptr\[1\] _540_ _003_ VDD VSS HA_X1
Xdout\[0\]$_SDFFE_PN0P_ _004_ clknet_4_14_0_clk net3 _531_
+ VDD VSS DFF_X2
Xdout\[1\]$_SDFFE_PN0P_ _005_ clknet_4_11_0_clk net4 _530_
+ VDD VSS DFF_X2
Xdout\[2\]$_SDFFE_PN0P_ _006_ clknet_4_6_0_clk net5 _529_
+ VDD VSS DFF_X2
Xdout\[3\]$_SDFFE_PN0P_ _007_ clknet_4_7_0_clk net6 _528_
+ VDD VSS DFF_X2
Xdout\[4\]$_SDFFE_PN0P_ _008_ clknet_4_7_0_clk net7 _527_
+ VDD VSS DFF_X2
Xdout\[5\]$_SDFFE_PN0P_ _009_ clknet_4_6_0_clk net8 _526_
+ VDD VSS DFF_X2
Xdout\[6\]$_SDFFE_PN0P_ _010_ clknet_4_14_0_clk net9 _525_
+ VDD VSS DFF_X2
Xdout\[7\]$_SDFFE_PN0P_ _011_ clknet_4_14_0_clk net10 _524_
+ VDD VSS DFF_X2
Xmem\[0\]\[0\]$_DFFE_PP_ _012_ clknet_4_14_0_clk mem\[0\]\[0\]
+ _523_ VDD VSS DFF_X1
Xmem\[0\]\[1\]$_DFFE_PP_ _013_ clknet_4_6_0_clk mem\[0\]\[1\]
+ _522_ VDD VSS DFF_X1
Xmem\[0\]\[2\]$_DFFE_PP_ _014_ clknet_4_6_0_clk mem\[0\]\[2\]
+ _521_ VDD VSS DFF_X1
Xmem\[0\]\[3\]$_DFFE_PP_ _015_ clknet_4_13_0_clk mem\[0\]\[3\]
+ _520_ VDD VSS DFF_X1
Xmem\[0\]\[4\]$_DFFE_PP_ _016_ clknet_4_7_0_clk mem\[0\]\[4\]
+ _519_ VDD VSS DFF_X1
Xmem\[0\]\[5\]$_DFFE_PP_ _017_ clknet_4_7_0_clk mem\[0\]\[5\]
+ _518_ VDD VSS DFF_X1
Xmem\[0\]\[6\]$_DFFE_PP_ _018_ clknet_4_15_0_clk mem\[0\]\[6\]
+ _517_ VDD VSS DFF_X1
Xmem\[0\]\[7\]$_DFFE_PP_ _019_ clknet_4_15_0_clk mem\[0\]\[7\]
+ _516_ VDD VSS DFF_X1
Xmem\[10\]\[0\]$_DFFE_PP_ _020_ clknet_4_11_0_clk mem\[10\]\[0\]
+ _515_ VDD VSS DFF_X1
Xmem\[10\]\[1\]$_DFFE_PP_ _021_ clknet_4_1_0_clk mem\[10\]\[1\]
+ _514_ VDD VSS DFF_X1
Xmem\[10\]\[2\]$_DFFE_PP_ _022_ clknet_4_4_0_clk mem\[10\]\[2\]
+ _513_ VDD VSS DFF_X1
Xmem\[10\]\[3\]$_DFFE_PP_ _023_ clknet_4_12_0_clk mem\[10\]\[3\]
+ _512_ VDD VSS DFF_X1
Xmem\[10\]\[4\]$_DFFE_PP_ _024_ clknet_4_4_0_clk mem\[10\]\[4\]
+ _511_ VDD VSS DFF_X1
Xmem\[10\]\[5\]$_DFFE_PP_ _025_ clknet_4_4_0_clk mem\[10\]\[5\]
+ _510_ VDD VSS DFF_X1
Xmem\[10\]\[6\]$_DFFE_PP_ _026_ clknet_4_14_0_clk mem\[10\]\[6\]
+ _509_ VDD VSS DFF_X1
Xmem\[10\]\[7\]$_DFFE_PP_ _027_ clknet_4_14_0_clk mem\[10\]\[7\]
+ _508_ VDD VSS DFF_X1
Xmem\[11\]\[0\]$_DFFE_PP_ _028_ clknet_4_9_0_clk mem\[11\]\[0\]
+ _507_ VDD VSS DFF_X1
Xmem\[11\]\[1\]$_DFFE_PP_ _029_ clknet_4_0_0_clk mem\[11\]\[1\]
+ _506_ VDD VSS DFF_X1
Xmem\[11\]\[2\]$_DFFE_PP_ _030_ clknet_4_1_0_clk mem\[11\]\[2\]
+ _505_ VDD VSS DFF_X1
Xmem\[11\]\[3\]$_DFFE_PP_ _031_ clknet_4_13_0_clk mem\[11\]\[3\]
+ _504_ VDD VSS DFF_X1
Xmem\[11\]\[4\]$_DFFE_PP_ _032_ clknet_4_4_0_clk mem\[11\]\[4\]
+ _503_ VDD VSS DFF_X1
Xmem\[11\]\[5\]$_DFFE_PP_ _033_ clknet_4_6_0_clk mem\[11\]\[5\]
+ _502_ VDD VSS DFF_X1
Xmem\[11\]\[6\]$_DFFE_PP_ _034_ clknet_4_12_0_clk mem\[11\]\[6\]
+ _501_ VDD VSS DFF_X1
Xmem\[11\]\[7\]$_DFFE_PP_ _035_ clknet_4_12_0_clk mem\[11\]\[7\]
+ _500_ VDD VSS DFF_X1
Xmem\[12\]\[0\]$_DFFE_PP_ _036_ clknet_4_11_0_clk mem\[12\]\[0\]
+ _499_ VDD VSS DFF_X1
Xmem\[12\]\[1\]$_DFFE_PP_ _037_ clknet_4_2_0_clk mem\[12\]\[1\]
+ _498_ VDD VSS DFF_X1
Xmem\[12\]\[2\]$_DFFE_PP_ _038_ clknet_4_0_0_clk mem\[12\]\[2\]
+ _497_ VDD VSS DFF_X1
Xmem\[12\]\[3\]$_DFFE_PP_ _039_ clknet_4_8_0_clk mem\[12\]\[3\]
+ _496_ VDD VSS DFF_X1
Xmem\[12\]\[4\]$_DFFE_PP_ _040_ clknet_4_0_0_clk mem\[12\]\[4\]
+ _495_ VDD VSS DFF_X1
Xmem\[12\]\[5\]$_DFFE_PP_ _041_ clknet_4_9_0_clk mem\[12\]\[5\]
+ _494_ VDD VSS DFF_X1
Xmem\[12\]\[6\]$_DFFE_PP_ _042_ clknet_4_10_0_clk mem\[12\]\[6\]
+ _493_ VDD VSS DFF_X1
Xmem\[12\]\[7\]$_DFFE_PP_ _043_ clknet_4_10_0_clk mem\[12\]\[7\]
+ _492_ VDD VSS DFF_X1
Xmem\[13\]\[0\]$_DFFE_PP_ _044_ clknet_4_10_0_clk mem\[13\]\[0\]
+ _491_ VDD VSS DFF_X1
Xmem\[13\]\[1\]$_DFFE_PP_ _045_ clknet_4_8_0_clk mem\[13\]\[1\]
+ _490_ VDD VSS DFF_X1
Xmem\[13\]\[2\]$_DFFE_PP_ _046_ clknet_4_3_0_clk mem\[13\]\[2\]
+ _489_ VDD VSS DFF_X1
Xmem\[13\]\[3\]$_DFFE_PP_ _047_ clknet_4_8_0_clk mem\[13\]\[3\]
+ _488_ VDD VSS DFF_X1
Xmem\[13\]\[4\]$_DFFE_PP_ _048_ clknet_4_3_0_clk mem\[13\]\[4\]
+ _487_ VDD VSS DFF_X1
Xmem\[13\]\[5\]$_DFFE_PP_ _049_ clknet_4_8_0_clk mem\[13\]\[5\]
+ _486_ VDD VSS DFF_X1
Xmem\[13\]\[6\]$_DFFE_PP_ _050_ clknet_4_10_0_clk mem\[13\]\[6\]
+ _485_ VDD VSS DFF_X1
Xmem\[13\]\[7\]$_DFFE_PP_ _051_ clknet_4_10_0_clk mem\[13\]\[7\]
+ _484_ VDD VSS DFF_X1
Xmem\[14\]\[0\]$_DFFE_PP_ _052_ clknet_4_11_0_clk mem\[14\]\[0\]
+ _483_ VDD VSS DFF_X1
Xmem\[14\]\[1\]$_DFFE_PP_ _053_ clknet_4_2_0_clk mem\[14\]\[1\]
+ _482_ VDD VSS DFF_X1
Xmem\[14\]\[2\]$_DFFE_PP_ _054_ clknet_4_3_0_clk mem\[14\]\[2\]
+ _481_ VDD VSS DFF_X1
Xmem\[14\]\[3\]$_DFFE_PP_ _055_ clknet_4_8_0_clk mem\[14\]\[3\]
+ _480_ VDD VSS DFF_X1
Xmem\[14\]\[4\]$_DFFE_PP_ _056_ clknet_4_3_0_clk mem\[14\]\[4\]
+ _479_ VDD VSS DFF_X1
Xmem\[14\]\[5\]$_DFFE_PP_ _057_ clknet_4_9_0_clk mem\[14\]\[5\]
+ _478_ VDD VSS DFF_X1
Xmem\[14\]\[6\]$_DFFE_PP_ _058_ clknet_4_10_0_clk mem\[14\]\[6\]
+ _477_ VDD VSS DFF_X1
Xmem\[14\]\[7\]$_DFFE_PP_ _059_ clknet_4_10_0_clk mem\[14\]\[7\]
+ _476_ VDD VSS DFF_X1
Xmem\[15\]\[0\]$_DFFE_PP_ _060_ clknet_4_10_0_clk mem\[15\]\[0\]
+ _475_ VDD VSS DFF_X1
Xmem\[15\]\[1\]$_DFFE_PP_ _061_ clknet_4_8_0_clk mem\[15\]\[1\]
+ _474_ VDD VSS DFF_X1
Xmem\[15\]\[2\]$_DFFE_PP_ _062_ clknet_4_2_0_clk mem\[15\]\[2\]
+ _473_ VDD VSS DFF_X1
Xmem\[15\]\[3\]$_DFFE_PP_ _063_ clknet_4_8_0_clk mem\[15\]\[3\]
+ _472_ VDD VSS DFF_X1
Xmem\[15\]\[4\]$_DFFE_PP_ _064_ clknet_4_3_0_clk mem\[15\]\[4\]
+ _471_ VDD VSS DFF_X1
Xmem\[15\]\[5\]$_DFFE_PP_ _065_ clknet_4_8_0_clk mem\[15\]\[5\]
+ _470_ VDD VSS DFF_X1
Xmem\[15\]\[6\]$_DFFE_PP_ _066_ clknet_4_10_0_clk mem\[15\]\[6\]
+ _469_ VDD VSS DFF_X1
Xmem\[15\]\[7\]$_DFFE_PP_ _067_ clknet_4_10_0_clk mem\[15\]\[7\]
+ _468_ VDD VSS DFF_X1
Xmem\[1\]\[0\]$_DFFE_PP_ _068_ clknet_4_12_0_clk mem\[1\]\[0\]
+ _467_ VDD VSS DFF_X1
Xmem\[1\]\[1\]$_DFFE_PP_ _069_ clknet_4_12_0_clk mem\[1\]\[1\]
+ _466_ VDD VSS DFF_X1
Xmem\[1\]\[2\]$_DFFE_PP_ _070_ clknet_4_6_0_clk mem\[1\]\[2\]
+ _465_ VDD VSS DFF_X1
Xmem\[1\]\[3\]$_DFFE_PP_ _071_ clknet_4_7_0_clk mem\[1\]\[3\]
+ _464_ VDD VSS DFF_X1
Xmem\[1\]\[4\]$_DFFE_PP_ _072_ clknet_4_7_0_clk mem\[1\]\[4\]
+ _463_ VDD VSS DFF_X1
Xmem\[1\]\[5\]$_DFFE_PP_ _073_ clknet_4_7_0_clk mem\[1\]\[5\]
+ _462_ VDD VSS DFF_X1
Xmem\[1\]\[6\]$_DFFE_PP_ _074_ clknet_4_13_0_clk mem\[1\]\[6\]
+ _461_ VDD VSS DFF_X1
Xmem\[1\]\[7\]$_DFFE_PP_ _075_ clknet_4_13_0_clk mem\[1\]\[7\]
+ _460_ VDD VSS DFF_X1
Xmem\[2\]\[0\]$_DFFE_PP_ _076_ clknet_4_14_0_clk mem\[2\]\[0\]
+ _459_ VDD VSS DFF_X1
Xmem\[2\]\[1\]$_DFFE_PP_ _077_ clknet_4_12_0_clk mem\[2\]\[1\]
+ _458_ VDD VSS DFF_X1
Xmem\[2\]\[2\]$_DFFE_PP_ _078_ clknet_4_1_0_clk mem\[2\]\[2\]
+ _457_ VDD VSS DFF_X1
Xmem\[2\]\[3\]$_DFFE_PP_ _079_ clknet_4_13_0_clk mem\[2\]\[3\]
+ _456_ VDD VSS DFF_X1
Xmem\[2\]\[4\]$_DFFE_PP_ _080_ clknet_4_7_0_clk mem\[2\]\[4\]
+ _455_ VDD VSS DFF_X1
Xmem\[2\]\[5\]$_DFFE_PP_ _081_ clknet_4_7_0_clk mem\[2\]\[5\]
+ _454_ VDD VSS DFF_X1
Xmem\[2\]\[6\]$_DFFE_PP_ _082_ clknet_4_15_0_clk mem\[2\]\[6\]
+ _453_ VDD VSS DFF_X1
Xmem\[2\]\[7\]$_DFFE_PP_ _083_ clknet_4_15_0_clk mem\[2\]\[7\]
+ _452_ VDD VSS DFF_X1
Xmem\[3\]\[0\]$_DFFE_PP_ _084_ clknet_4_12_0_clk mem\[3\]\[0\]
+ _451_ VDD VSS DFF_X1
Xmem\[3\]\[1\]$_DFFE_PP_ _085_ clknet_4_12_0_clk mem\[3\]\[1\]
+ _450_ VDD VSS DFF_X1
Xmem\[3\]\[2\]$_DFFE_PP_ _086_ clknet_4_6_0_clk mem\[3\]\[2\]
+ _449_ VDD VSS DFF_X1
Xmem\[3\]\[3\]$_DFFE_PP_ _087_ clknet_4_13_0_clk mem\[3\]\[3\]
+ _448_ VDD VSS DFF_X1
Xmem\[3\]\[4\]$_DFFE_PP_ _088_ clknet_4_6_0_clk mem\[3\]\[4\]
+ _447_ VDD VSS DFF_X1
Xmem\[3\]\[5\]$_DFFE_PP_ _089_ clknet_4_7_0_clk mem\[3\]\[5\]
+ _446_ VDD VSS DFF_X1
Xmem\[3\]\[6\]$_DFFE_PP_ _090_ clknet_4_13_0_clk mem\[3\]\[6\]
+ _445_ VDD VSS DFF_X1
Xmem\[3\]\[7\]$_DFFE_PP_ _091_ clknet_4_13_0_clk mem\[3\]\[7\]
+ _444_ VDD VSS DFF_X1
Xmem\[4\]\[0\]$_DFFE_PP_ _092_ clknet_4_11_0_clk mem\[4\]\[0\]
+ _443_ VDD VSS DFF_X1
Xmem\[4\]\[1\]$_DFFE_PP_ _093_ clknet_4_1_0_clk mem\[4\]\[1\]
+ _442_ VDD VSS DFF_X1
Xmem\[4\]\[2\]$_DFFE_PP_ _094_ clknet_4_4_0_clk mem\[4\]\[2\]
+ _441_ VDD VSS DFF_X1
Xmem\[4\]\[3\]$_DFFE_PP_ _095_ clknet_4_5_0_clk mem\[4\]\[3\]
+ _440_ VDD VSS DFF_X1
Xmem\[4\]\[4\]$_DFFE_PP_ _096_ clknet_4_5_0_clk mem\[4\]\[4\]
+ _439_ VDD VSS DFF_X1
Xmem\[4\]\[5\]$_DFFE_PP_ _097_ clknet_4_5_0_clk mem\[4\]\[5\]
+ _438_ VDD VSS DFF_X1
Xmem\[4\]\[6\]$_DFFE_PP_ _098_ clknet_4_15_0_clk mem\[4\]\[6\]
+ _437_ VDD VSS DFF_X1
Xmem\[4\]\[7\]$_DFFE_PP_ _099_ clknet_4_14_0_clk mem\[4\]\[7\]
+ _436_ VDD VSS DFF_X1
Xmem\[5\]\[0\]$_DFFE_PP_ _100_ clknet_4_11_0_clk mem\[5\]\[0\]
+ _435_ VDD VSS DFF_X1
Xmem\[5\]\[1\]$_DFFE_PP_ _101_ clknet_4_9_0_clk mem\[5\]\[1\]
+ _434_ VDD VSS DFF_X1
Xmem\[5\]\[2\]$_DFFE_PP_ _102_ clknet_4_1_0_clk mem\[5\]\[2\]
+ _433_ VDD VSS DFF_X1
Xmem\[5\]\[3\]$_DFFE_PP_ _103_ clknet_4_7_0_clk mem\[5\]\[3\]
+ _432_ VDD VSS DFF_X1
Xmem\[5\]\[4\]$_DFFE_PP_ _104_ clknet_4_5_0_clk mem\[5\]\[4\]
+ _431_ VDD VSS DFF_X1
Xmem\[5\]\[5\]$_DFFE_PP_ _105_ clknet_4_5_0_clk mem\[5\]\[5\]
+ _430_ VDD VSS DFF_X1
Xmem\[5\]\[6\]$_DFFE_PP_ _106_ clknet_4_15_0_clk mem\[5\]\[6\]
+ _429_ VDD VSS DFF_X1
Xmem\[5\]\[7\]$_DFFE_PP_ _107_ clknet_4_15_0_clk mem\[5\]\[7\]
+ _428_ VDD VSS DFF_X1
Xmem\[6\]\[0\]$_DFFE_PP_ _108_ clknet_4_11_0_clk mem\[6\]\[0\]
+ _427_ VDD VSS DFF_X1
Xmem\[6\]\[1\]$_DFFE_PP_ _109_ clknet_4_1_0_clk mem\[6\]\[1\]
+ _426_ VDD VSS DFF_X1
Xmem\[6\]\[2\]$_DFFE_PP_ _110_ clknet_4_4_0_clk mem\[6\]\[2\]
+ _425_ VDD VSS DFF_X1
Xmem\[6\]\[3\]$_DFFE_PP_ _111_ clknet_4_5_0_clk mem\[6\]\[3\]
+ _424_ VDD VSS DFF_X1
Xmem\[6\]\[4\]$_DFFE_PP_ _112_ clknet_4_5_0_clk mem\[6\]\[4\]
+ _423_ VDD VSS DFF_X1
Xmem\[6\]\[5\]$_DFFE_PP_ _113_ clknet_4_5_0_clk mem\[6\]\[5\]
+ _422_ VDD VSS DFF_X1
Xmem\[6\]\[6\]$_DFFE_PP_ _114_ clknet_4_15_0_clk mem\[6\]\[6\]
+ _421_ VDD VSS DFF_X1
Xmem\[6\]\[7\]$_DFFE_PP_ _115_ clknet_4_14_0_clk mem\[6\]\[7\]
+ _420_ VDD VSS DFF_X1
Xmem\[7\]\[0\]$_DFFE_PP_ _116_ clknet_4_11_0_clk mem\[7\]\[0\]
+ _419_ VDD VSS DFF_X1
Xmem\[7\]\[1\]$_DFFE_PP_ _117_ clknet_4_9_0_clk mem\[7\]\[1\]
+ _418_ VDD VSS DFF_X1