
* cell barrel_rotator
* pin data_in[1]
* pin data_in[4]
* pin data_in[0]
* pin data_in[5]
* pin data_out[5]
* pin PWELL
* pin NWELL
* pin data_in[6]
* pin data_in[3]
* pin data_in[7]
* pin direction
* pin data_out[6]
* pin data_out[4]
* pin data_in[2]
* pin rotate_amount[1]
* pin data_out[2]
* pin rotate_amount[2]
* pin data_out[0]
* pin data_out[3]
* pin rotate_amount[0]
* pin data_out[1]
* pin data_out[7]
.SUBCKT barrel_rotator 1 2 3 4 5 6 7 17 23 26 38 58 70 75 81 106 112 134 158
+ 165 178 179
* net 1 data_in[1]
* net 2 data_in[4]
* net 3 data_in[0]
* net 4 data_in[5]
* net 5 data_out[5]
* net 6 PWELL
* net 7 NWELL
* net 17 data_in[6]
* net 23 data_in[3]
* net 26 data_in[7]
* net 38 direction
* net 58 data_out[6]
* net 70 data_out[4]
* net 75 data_in[2]
* net 81 rotate_amount[1]
* net 106 data_out[2]
* net 112 rotate_amount[2]
* net 134 data_out[0]
* net 158 data_out[3]
* net 165 rotate_amount[0]
* net 178 data_out[1]
* net 179 data_out[7]
* cell instance $5 m0 *1 21.66,15.4
X$5 1 6 7 8 BUF_X2
* cell instance $11 m0 *1 22.23,18.2
X$11 2 6 7 13 BUF_X2
* cell instance $17 m0 *1 22.8,15.4
X$17 3 6 7 9 BUF_X2
* cell instance $24 m0 *1 23.56,15.4
X$24 4 6 7 10 BUF_X2
* cell instance $29 r0 *1 24.32,1.4
X$29 15 6 7 5 BUF_X1
* cell instance $44 m0 *1 20.33,32.2
X$44 97 29 116 6 107 7 AOI21_X1
* cell instance $45 m0 *1 21.85,32.2
X$45 99 60 6 7 85 NAND2_X1
* cell instance $46 m0 *1 22.42,32.2
X$46 108 98 117 50 6 7 119 NAND4_X1
* cell instance $48 r0 *1 20.33,32.2
X$48 131 118 16 6 7 125 NOR3_X1
* cell instance $51 r0 *1 21.66,32.2
X$51 60 125 107 21 53 14 6 7 126 OAI33_X1
* cell instance $52 r0 *1 22.99,32.2
X$52 126 60 136 6 114 7 AOI21_X1
* cell instance $53 m0 *1 23.94,32.2
X$53 80 29 16 6 7 117 NAND3_X1
* cell instance $58 r0 *1 24.51,32.2
X$58 37 54 21 6 7 120 NOR3_X1
* cell instance $60 r0 *1 25.65,32.2
X$60 100 118 60 7 129 6 OAI21_X1
* cell instance $61 r0 *1 26.41,32.2
X$61 141 47 109 6 128 7 AOI21_X1
* cell instance $63 m0 *1 26.6,32.2
X$63 54 37 77 7 109 6 OAI21_X1
* cell instance $65 r0 *1 27.36,32.2
X$65 129 127 100 128 6 7 124 AOI22_X1
* cell instance $67 m0 *1 27.74,32.2
X$67 50 13 16 21 7 6 110 OAI22_X1
* cell instance $68 m0 *1 30.21,32.2
X$68 13 28 6 7 111 NAND2_X1
* cell instance $71 r0 *1 28.5,32.2
X$71 110 54 6 7 127 NAND2_X1
* cell instance $74 r0 *1 30.97,32.2
X$74 123 124 133 7 121 6 OAI21_X1
* cell instance $76 m0 *1 31.16,32.2
X$76 111 14 50 16 101 7 6 122 OAI221_X1
* cell instance $77 m0 *1 32.49,32.2
X$77 100 76 29 6 113 7 AOI21_X1
* cell instance $81 r0 *1 32.49,32.2
X$81 122 100 102 6 123 7 AOI21_X1
* cell instance $84 m0 *1 34.39,32.2
X$84 113 6 7 103 INV_X1
* cell instance $98 r0 *1 55.86,32.2
X$98 121 6 7 134 BUF_X1
* cell instance $106 m0 *1 33.63,63
X$106 177 6 7 179 BUF_X1
* cell instance $127 m0 *1 5.7,32.2
X$127 114 6 7 106 BUF_X1
* cell instance $130 m0 *1 7.79,32.2
X$130 112 6 7 95 BUF_X1
* cell instance $138 m0 *1 17.29,32.2
X$138 95 7 82 6 BUF_X4
* cell instance $140 m0 *1 18.62,32.2
X$140 83 100 105 6 115 7 AOI21_X2
* cell instance $142 r0 *1 18.05,32.2
X$142 8 82 10 6 7 96 MUX2_X1
* cell instance $143 r0 *1 19.38,32.2
X$143 96 130 6 7 118 NOR2_X1
* cell instance $286 m0 *1 24.89,40.6
X$286 169 173 167 6 7 172 NOR3_X1
* cell instance $290 m0 *1 28.88,40.6
X$290 6 60 168 177 175 176 147 132 7 AOI222_X2
* cell instance $322 r0 *1 19.57,21
X$322 8 11 9 6 7 41 MUX2_X1
* cell instance $325 r0 *1 22.04,21
X$325 11 7 12 6 BUF_X4
* cell instance $327 r0 *1 23.75,21
X$327 13 12 10 6 7 20 MUX2_X1
* cell instance $331 r0 *1 26.03,21
X$331 9 12 8 6 7 44 MUX2_X1
* cell instance $609 r0 *1 14.82,35
X$609 6 11 7 137 BUF_X8
* cell instance $611 r0 *1 18.05,35
X$611 37 11 13 6 7 145 MUX2_X1
* cell instance $612 m0 *1 19.38,35
X$612 18 11 138 6 7 131 NOR3_X1
* cell instance $617 r0 *1 20.33,35
X$617 138 6 7 47 CLKBUF_X3
* cell instance $618 m0 *1 21.85,35
X$618 138 8 139 7 99 6 OAI21_X1
* cell instance $619 m0 *1 20.52,35
X$619 18 11 27 6 7 144 MUX2_X1
* cell instance $622 m0 *1 23.56,35
X$622 144 47 6 7 141 NOR2_X1
* cell instance $623 m0 *1 24.13,35
X$623 65 140 135 7 136 6 OAI21_X1
* cell instance $624 m0 *1 24.89,35
X$624 120 141 65 7 135 6 OAI21_X1
* cell instance $628 m0 *1 29.64,35
X$628 47 9 139 7 92 6 OAI21_X1
* cell instance $630 m0 *1 31.16,35
X$630 132 9 6 7 133 NAND2_X1
* cell instance $639 r0 *1 21.28,35
X$639 82 6 7 138 INV_X1
* cell instance $640 r0 *1 21.66,35
X$640 13 82 9 6 7 146 MUX2_X1
* cell instance $641 r0 *1 22.99,35
X$641 76 54 146 6 7 140 MUX2_X1
* cell instance $642 r0 *1 24.32,35
X$642 130 6 7 54 CLKBUF_X3
* cell instance $645 r0 *1 26.41,35
X$645 12 82 27 6 150 7 AOI21_X1
* cell instance $650 r0 *1 30.02,35
X$650 27 6 7 147 INV_X1
* cell instance $651 r0 *1 30.4,35
X$651 76 29 80 6 7 157 MUX2_X1
* cell instance $652 r0 *1 31.73,35
X$652 12 76 6 7 142 OR2_X1
* cell instance $654 r0 *1 33.25,35
X$654 50 37 132 6 143 7 AOI21_X1
* cell instance $680 r0 *1 3.23,37.8
X$680 165 7 137 6 BUF_X4
* cell instance $684 m0 *1 15.96,37.8
X$684 8 137 53 6 7 151 MUX2_X1
* cell instance $685 m0 *1 14.63,37.8
X$685 10 137 18 6 7 160 MUX2_X1
* cell instance $687 m0 *1 17.48,37.8
X$687 151 82 160 6 7 161 MUX2_X1
* cell instance $688 m0 *1 18.81,37.8
X$688 9 130 28 6 7 152 NOR3_X1
* cell instance $689 m0 *1 19.57,37.8
X$689 145 138 6 7 153 NOR2_X1
* cell instance $691 m0 *1 20.33,37.8
X$691 53 82 18 6 7 170 MUX2_X1
* cell instance $692 m0 *1 21.66,37.8
X$692 138 10 6 7 154 OR2_X1
* cell instance $693 m0 *1 22.42,37.8
X$693 130 46 6 7 90 NOR2_X2
* cell instance $694 m0 *1 23.37,37.8
X$694 130 65 6 7 14 NAND2_X2
* cell instance $695 m0 *1 24.32,37.8
X$695 130 146 6 7 149 OR2_X1
* cell instance $698 r0 *1 15.58,37.8
X$698 137 46 6 7 139 NOR2_X2
* cell instance $700 r0 *1 17.29,37.8
X$700 137 6 7 130 INV_X2
* cell instance $703 r0 *1 18.43,37.8
X$703 65 161 166 7 168 6 OAI21_X1
* cell instance $704 r0 *1 19.19,37.8
X$704 152 153 65 7 166 6 OAI21_X1
* cell instance $705 r0 *1 19.95,37.8
X$705 46 6 7 100 CLKBUF_X3
* cell instance $706 r0 *1 20.9,37.8
X$706 46 6 7 65 INV_X4
* cell instance $707 r0 *1 21.85,37.8
X$707 119 139 154 6 169 7 AOI21_X1
* cell instance $708 r0 *1 22.61,37.8
X$708 154 139 50 90 170 6 7 162 AOI221_X1
* cell instance $710 r0 *1 24.51,37.8
X$710 174 162 7 6 173 AND2_X1
* cell instance $712 m0 *1 25.65,37.8
X$712 14 8 21 6 7 167 NOR3_X1
* cell instance $715 m0 *1 26.6,37.8
X$715 28 155 150 7 171 6 OAI21_X1
* cell instance $717 m0 *1 27.55,37.8
X$717 37 6 7 155 INV_X1
* cell instance $718 m0 *1 27.93,37.8
X$718 150 100 6 7 164 NOR2_X1
* cell instance $723 r0 *1 26.6,37.8
X$723 149 171 100 6 7 174 NAND3_X1
* cell instance $727 r0 *1 28.69,37.8
X$727 80 90 60 139 156 176 7 6 AOI221_X2
* cell instance $729 m0 *1 29.64,37.8
X$729 155 28 6 7 156 NAND2_X1
* cell instance $732 r0 *1 31.16,37.8
X$732 100 157 164 149 6 7 163 AOI22_X2
* cell instance $733 m0 *1 32.3,37.8
X$733 60 37 132 6 159 7 AOI21_X1
* cell instance $734 m0 *1 31.35,37.8
X$734 14 21 6 7 132 NOR2_X2
* cell instance $736 r0 *1 32.87,37.8
X$736 142 149 100 6 7 175 NAND3_X1
* cell instance $738 m0 *1 33.63,37.8
X$738 115 159 143 163 6 7 148 AOI22_X2
* cell instance $748 m0 *1 55.67,37.8
X$748 148 6 7 158 BUF_X1
* cell instance $834 m0 *1 12.73,23.8
X$834 17 6 7 18 CLKBUF_X2
* cell instance $844 r0 *1 9.31,23.8
X$844 26 6 7 27 BUF_X2
* cell instance $847 r0 *1 16.91,23.8
X$847 27 11 18 6 7 48 MUX2_X1
* cell instance $848 m0 *1 17.1,23.8
X$848 18 11 10 6 7 39 MUX2_X1
* cell instance $850 m0 *1 18.43,23.8
X$850 39 28 16 6 7 25 NAND3_X1
* cell instance $851 m0 *1 19.19,23.8
X$851 9 11 27 6 7 24 MUX2_X1
* cell instance $853 m0 *1 20.71,23.8
X$853 41 28 6 7 30 NAND2_X1
* cell instance $855 m0 *1 21.47,23.8
X$855 16 30 19 6 42 7 AOI21_X1
* cell instance $856 m0 *1 22.23,23.8
X$856 31 43 42 21 10 14 6 7 32 OAI33_X1
* cell instance $857 m0 *1 23.56,23.8
X$857 32 91 6 7 15 NOR2_X1
* cell instance $861 r0 *1 19,23.8
X$861 48 28 46 6 7 49 NAND3_X1
* cell instance $862 r0 *1 19.76,23.8
X$862 11 6 7 29 CLKBUF_X3
* cell instance $863 r0 *1 20.71,23.8
X$863 13 29 47 6 7 19 NAND3_X1
* cell instance $864 r0 *1 21.47,23.8
X$864 49 50 6 7 31 NAND2_X1
* cell instance $865 r0 *1 22.04,23.8
X$865 53 12 46 6 7 52 NAND3_X1
* cell instance $866 r0 *1 22.8,23.8
X$866 21 63 52 6 43 7 AOI21_X1
* cell instance $870 r0 *1 24.89,23.8
X$870 25 50 6 7 33 NAND2_X1
* cell instance $872 m0 *1 25.27,23.8
X$872 20 21 6 7 51 NAND2_X1
* cell instance $873 m0 *1 26.6,23.8
X$873 24 28 6 7 22 NAND2_X1
* cell instance $874 m0 *1 27.17,23.8
X$874 44 47 6 7 45 NAND2_X1
* cell instance $878 r0 *1 26.6,23.8
X$878 73 45 51 6 7 62 NAND3_X1
* cell instance $879 r0 *1 27.36,23.8
X$879 8 29 16 6 7 55 NAND3_X1
* cell instance $880 m0 *1 28.31,23.8
X$880 16 34 22 6 35 7 AOI21_X1
* cell instance $882 m0 *1 29.07,23.8
X$882 40 47 6 7 36 NAND2_X1
* cell instance $883 m0 *1 29.64,23.8
X$883 13 12 37 6 7 40 MUX2_X1
* cell instance $884 m0 *1 30.97,23.8
X$884 28 7 21 6 BUF_X4
* cell instance $886 m0 *1 33.82,23.8
X$886 23 7 37 6 BUF_X4
* cell instance $893 r0 *1 28.12,23.8
X$893 37 12 47 6 7 34 NAND3_X1
* cell instance $894 r0 *1 28.88,23.8
X$894 56 36 22 6 7 61 NAND3_X1
* cell instance $898 r0 *1 33.63,23.8
X$898 38 7 50 6 BUF_X4
* cell instance $924 r0 *1 3.99,26.6
X$924 75 6 7 53 BUF_X2
* cell instance $931 r0 *1 16.72,26.6
X$931 18 53 82 7 6 80 MUX2_X2
* cell instance $932 m0 *1 18.62,26.6
X$932 48 28 6 7 64 NAND2_X1
* cell instance $935 m0 *1 19.95,26.6
X$935 53 29 47 6 7 79 NAND3_X1
* cell instance $937 r0 *1 18.43,26.6
X$937 16 79 64 6 83 7 AOI21_X1
* cell instance $939 r0 *1 19.38,26.6
X$939 10 8 82 7 6 76 MUX2_X2
* cell instance $941 m0 *1 21.28,26.6
X$941 46 6 7 16 CLKBUF_X3
* cell instance $944 m0 *1 22.42,26.6
X$944 65 37 54 7 63 6 OAI21_X1
* cell instance $949 r0 *1 26.41,26.6
X$949 78 54 65 47 77 7 6 73 OAI221_X1
* cell instance $950 m0 *1 26.79,26.6
X$950 65 53 54 7 74 6 OAI21_X1
* cell instance $953 m0 *1 27.74,26.6
X$953 21 74 55 6 66 7 AOI21_X1
* cell instance $954 m0 *1 28.5,26.6
X$954 35 33 66 21 13 14 6 7 67 OAI33_X1
* cell instance $955 m0 *1 29.83,26.6
X$955 62 60 6 7 71 NAND2_X1
* cell instance $957 r0 *1 27.55,26.6
X$957 76 54 65 47 77 7 6 56 OAI221_X1
* cell instance $960 r0 *1 29.26,26.6
X$960 76 60 78 6 7 88 MUX2_X1
* cell instance $961 r0 *1 30.59,26.6
X$961 88 86 14 80 7 6 72 OAI22_X1
* cell instance $962 m0 *1 31.35,26.6
X$962 72 68 71 6 59 7 AOI21_X1
* cell instance $963 m0 *1 30.78,26.6
X$963 61 50 6 7 68 NAND2_X1
* cell instance $964 m0 *1 32.11,26.6
X$964 50 6 7 60 INV_X4
* cell instance $969 m0 *1 34.2,26.6
X$969 67 69 6 7 57 NOR2_X1
* cell instance $974 m0 *1 56.24,26.6
X$974 59 6 7 58 BUF_X1
* cell instance $975 m0 *1 56.81,26.6
X$975 57 6 7 70 BUF_X1
* cell instance $990 m0 *1 2.47,29.4
X$990 81 7 46 6 BUF_X4
* cell instance $993 m0 *1 17.48,29.4
X$993 82 6 7 28 CLKBUF_X3
* cell instance $994 m0 *1 18.43,29.4
X$994 9 82 13 6 7 84 MUX2_X1
* cell instance $995 m0 *1 19.76,29.4
X$995 78 11 84 6 7 89 MUX2_X1
* cell instance $997 m0 *1 21.85,29.4
X$997 89 16 85 90 80 91 7 6 AOI221_X2
* cell instance $1012 r0 *1 17.48,29.4
X$1012 27 37 95 7 6 78 MUX2_X2
* cell instance $1013 r0 *1 19.19,29.4
X$1013 96 29 84 6 7 105 MUX2_X1
* cell instance $1014 r0 *1 20.52,29.4
X$1014 78 6 7 116 INV_X1
* cell instance $1015 r0 *1 20.9,29.4
X$1015 84 12 46 7 97 6 OAI21_X1
* cell instance $1016 r0 *1 21.66,29.4
X$1016 84 12 65 6 7 98 NAND3_X1
* cell instance $1017 r0 *1 22.42,29.4
X$1017 78 54 46 6 7 108 NAND3_X1
* cell instance $1020 r0 *1 26.6,29.4
X$1020 12 53 6 7 77 OR2_X1
* cell instance $1022 r0 *1 30.4,29.4
X$1022 80 54 6 7 104 NAND2_X1
* cell instance $1024 m0 *1 30.59,29.4
X$1024 90 6 7 86 INV_X1
* cell instance $1029 r0 *1 31.54,29.4
X$1029 78 29 6 7 101 NAND2_X1
* cell instance $1030 r0 *1 32.11,29.4
X$1030 92 60 6 7 93 NAND2_X1
* cell instance $1031 m0 *1 32.3,29.4
X$1031 76 29 6 7 87 NAND2_X1
* cell instance $1041 r0 *1 32.68,29.4
X$1041 104 87 6 7 102 NAND2_X1
* cell instance $1042 r0 *1 33.25,29.4
X$1042 101 104 100 6 7 94 NAND3_X1
* cell instance $1043 r0 *1 34.01,29.4
X$1043 93 94 103 6 69 7 AOI21_X1
* cell instance $1064 m0 *1 27.93,63
X$1064 172 6 7 178 BUF_X1
.ENDS barrel_rotator

* cell CLKBUF_X2
* pin A
* pin PWELL,VSS
* pin NWELL,VDD
* pin Z
.SUBCKT CLKBUF_X2 1 3 4 5
* net 1 A
* net 3 PWELL,VSS
* net 4 NWELL,VDD
* net 5 Z
* device instance $1 r0 *1 0.17,0.995 PMOS_VTL
M$1 4 1 2 4 PMOS_VTL L=0.05U W=0.63U AS=0.06615P AD=0.0441P PS=1.47U PD=0.77U
* device instance $2 r0 *1 0.36,0.995 PMOS_VTL
M$2 5 2 4 4 PMOS_VTL L=0.05U W=1.26U AS=0.0882P AD=0.11025P PS=1.54U PD=2.24U
* device instance $4 r0 *1 0.17,0.1875 NMOS_VTL
M$4 3 1 2 3 NMOS_VTL L=0.05U W=0.195U AS=0.020475P AD=0.01365P PS=0.6U PD=0.335U
* device instance $5 r0 *1 0.36,0.1875 NMOS_VTL
M$5 5 2 3 3 NMOS_VTL L=0.05U W=0.39U AS=0.0273P AD=0.034125P PS=0.67U PD=0.935U
.ENDS CLKBUF_X2

* cell MUX2_X2
* pin A
* pin B
* pin S
* pin NWELL,VDD
* pin PWELL,VSS
* pin Z
.SUBCKT MUX2_X2 1 2 3 6 7 8
* net 1 A
* net 2 B
* net 3 S
* net 6 NWELL,VDD
* net 7 PWELL,VSS
* net 8 Z
* device instance $1 r0 *1 1.16,0.995 PMOS_VTL
M$1 8 4 6 6 PMOS_VTL L=0.05U W=1.26U AS=0.11025P AD=0.077175P PS=2.24U PD=1.54U
* device instance $3 r0 *1 1.54,1.1525 PMOS_VTL
M$3 9 3 6 6 PMOS_VTL L=0.05U W=0.315U AS=0.033075P AD=0.033075P PS=0.77U
+ PD=0.84U
* device instance $4 r0 *1 0.215,0.995 PMOS_VTL
M$4 6 1 5 6 PMOS_VTL L=0.05U W=0.63U AS=0.06615P AD=0.0441P PS=1.47U PD=0.77U
* device instance $5 r0 *1 0.405,0.995 PMOS_VTL
M$5 5 9 6 6 PMOS_VTL L=0.05U W=0.63U AS=0.0441P AD=0.0441P PS=0.77U PD=0.77U
* device instance $6 r0 *1 0.595,0.995 PMOS_VTL
M$6 4 2 5 6 PMOS_VTL L=0.05U W=0.63U AS=0.0441P AD=0.045675P PS=0.77U PD=0.775U
* device instance $7 r0 *1 0.79,0.995 PMOS_VTL
M$7 5 3 4 6 PMOS_VTL L=0.05U W=0.63U AS=0.045675P AD=0.0693P PS=0.775U PD=1.48U
* device instance $8 r0 *1 1.54,0.195 NMOS_VTL
M$8 9 3 7 7 NMOS_VTL L=0.05U W=0.21U AS=0.021875P AD=0.02205P PS=0.555U PD=0.63U
* device instance $9 r0 *1 1.16,0.2975 NMOS_VTL
M$9 8 4 7 7 NMOS_VTL L=0.05U W=0.83U AS=0.072625P AD=0.050925P PS=1.595U
+ PD=1.11U
* device instance $11 r0 *1 0.215,0.2975 NMOS_VTL
M$11 11 1 4 7 NMOS_VTL L=0.05U W=0.415U AS=0.043575P AD=0.02905P PS=1.04U
+ PD=0.555U
* device instance $12 r0 *1 0.405,0.2975 NMOS_VTL
M$12 7 9 11 7 NMOS_VTL L=0.05U W=0.415U AS=0.02905P AD=0.02905P PS=0.555U
+ PD=0.555U
* device instance $13 r0 *1 0.595,0.2975 NMOS_VTL
M$13 10 2 7 7 NMOS_VTL L=0.05U W=0.415U AS=0.02905P AD=0.0300875P PS=0.555U
+ PD=0.56U
* device instance $14 r0 *1 0.79,0.2975 NMOS_VTL
M$14 4 3 10 7 NMOS_VTL L=0.05U W=0.415U AS=0.0300875P AD=0.043575P PS=0.56U
+ PD=1.04U
.ENDS MUX2_X2

* cell BUF_X2
* pin A
* pin PWELL,VSS
* pin NWELL,VDD
* pin Z
.SUBCKT BUF_X2 1 3 4 5
* net 1 A
* net 3 PWELL,VSS
* net 4 NWELL,VDD
* net 5 Z
* device instance $1 r0 *1 0.21,0.995 PMOS_VTL
M$1 4 1 2 4 PMOS_VTL L=0.05U W=0.63U AS=0.06615P AD=0.0441P PS=1.47U PD=0.77U
* device instance $2 r0 *1 0.4,0.995 PMOS_VTL
M$2 5 2 4 4 PMOS_VTL L=0.05U W=1.26U AS=0.0882P AD=0.11025P PS=1.54U PD=2.24U
* device instance $4 r0 *1 0.21,0.2975 NMOS_VTL
M$4 3 1 2 3 NMOS_VTL L=0.05U W=0.415U AS=0.043575P AD=0.02905P PS=1.04U
+ PD=0.555U
* device instance $5 r0 *1 0.4,0.2975 NMOS_VTL
M$5 5 2 3 3 NMOS_VTL L=0.05U W=0.83U AS=0.0581P AD=0.072625P PS=1.11U PD=1.595U
.ENDS BUF_X2

* cell AOI222_X2
* pin PWELL,VSS
* pin C2
* pin C1
* pin ZN
* pin B2
* pin B1
* pin A1
* pin A2
* pin NWELL,VDD
.SUBCKT AOI222_X2 1 2 3 4 5 6 8 9 16
* net 1 PWELL,VSS
* net 2 C2
* net 3 C1
* net 4 ZN
* net 5 B2
* net 6 B1
* net 8 A1
* net 9 A2
* net 16 NWELL,VDD
* device instance $1 r0 *1 0.17,0.995 PMOS_VTL
M$1 16 2 15 16 PMOS_VTL L=0.05U W=1.26U AS=0.11025P AD=0.0882P PS=2.24U PD=1.54U
* device instance $2 r0 *1 0.36,0.995 PMOS_VTL
M$2 15 3 16 16 PMOS_VTL L=0.05U W=1.26U AS=0.0882P AD=0.0882P PS=1.54U PD=1.54U
* device instance $5 r0 *1 0.93,0.995 PMOS_VTL
M$5 17 5 15 16 PMOS_VTL L=0.05U W=1.26U AS=0.0882P AD=0.11025P PS=1.54U PD=2.24U
* device instance $6 r0 *1 1.12,0.995 PMOS_VTL
M$6 15 6 17 16 PMOS_VTL L=0.05U W=1.26U AS=0.0882P AD=0.0882P PS=1.54U PD=1.54U
* device instance $9 r0 *1 1.875,0.995 PMOS_VTL
M$9 4 8 17 16 PMOS_VTL L=0.05U W=1.26U AS=0.11025P AD=0.0882P PS=2.24U PD=1.54U
* device instance $11 r0 *1 2.255,0.995 PMOS_VTL
M$11 4 9 17 16 PMOS_VTL L=0.05U W=1.26U AS=0.0882P AD=0.11025P PS=1.54U PD=2.24U
* device instance $13 r0 *1 0.17,0.2975 NMOS_VTL
M$13 10 2 1 1 NMOS_VTL L=0.05U W=0.415U AS=0.043575P AD=0.02905P PS=1.04U
+ PD=0.555U
* device instance $14 r0 *1 0.36,0.2975 NMOS_VTL
M$14 4 3 10 1 NMOS_VTL L=0.05U W=0.415U AS=0.02905P AD=0.02905P PS=0.555U
+ PD=0.555U
* device instance $15 r0 *1 0.55,0.2975 NMOS_VTL
M$15 12 3 4 1 NMOS_VTL L=0.05U W=0.415U AS=0.02905P AD=0.02905P PS=0.555U
+ PD=0.555U
* device instance $16 r0 *1 0.74,0.2975 NMOS_VTL
M$16 1 2 12 1 NMOS_VTL L=0.05U W=0.415U AS=0.02905P AD=0.02905P PS=0.555U
+ PD=0.555U
* device instance $17 r0 *1 0.93,0.2975 NMOS_VTL
M$17 13 5 1 1 NMOS_VTL L=0.05U W=0.415U AS=0.02905P AD=0.02905P PS=0.555U
+ PD=0.555U
* device instance $18 r0 *1 1.12,0.2975 NMOS_VTL
M$18 4 6 13 1 NMOS_VTL L=0.05U W=0.415U AS=0.02905P AD=0.02905P PS=0.555U
+ PD=0.555U
* device instance $19 r0 *1 1.31,0.2975 NMOS_VTL
M$19 14 6 4 1 NMOS_VTL L=0.05U W=0.415U AS=0.02905P AD=0.02905P PS=0.555U
+ PD=0.555U
* device instance $20 r0 *1 1.5,0.2975 NMOS_VTL
M$20 1 5 14 1 NMOS_VTL L=0.05U W=0.415U AS=0.02905P AD=0.043575P PS=0.555U
+ PD=1.04U
* device instance $21 r0 *1 1.875,0.2975 NMOS_VTL
M$21 4 8 7 1 NMOS_VTL L=0.05U W=0.415U AS=0.043575P AD=0.02905P PS=1.04U
+ PD=0.555U
* device instance $22 r0 *1 2.065,0.2975 NMOS_VTL
M$22 11 8 4 1 NMOS_VTL L=0.05U W=0.415U AS=0.02905P AD=0.02905P PS=0.555U
+ PD=0.555U
* device instance $23 r0 *1 2.255,0.2975 NMOS_VTL
M$23 1 9 11 1 NMOS_VTL L=0.05U W=0.415U AS=0.02905P AD=0.02905P PS=0.555U
+ PD=0.555U
* device instance $24 r0 *1 2.445,0.2975 NMOS_VTL
M$24 7 9 1 1 NMOS_VTL L=0.05U W=0.415U AS=0.02905P AD=0.043575P PS=0.555U
+ PD=1.04U
.ENDS AOI222_X2

* cell AOI221_X2
* pin B1
* pin B2
* pin A
* pin C2
* pin C1
* pin ZN
* pin NWELL,VDD
* pin PWELL,VSS
.SUBCKT AOI221_X2 1 2 3 4 5 6 8 9
* net 1 B1
* net 2 B2
* net 3 A
* net 4 C2
* net 5 C1
* net 6 ZN
* net 8 NWELL,VDD
* net 9 PWELL,VSS
* device instance $1 r0 *1 0.17,0.995 PMOS_VTL
M$1 7 3 10 8 PMOS_VTL L=0.05U W=1.26U AS=0.11025P AD=0.09135P PS=2.24U PD=1.55U
* device instance $2 r0 *1 0.36,0.995 PMOS_VTL
M$2 8 1 7 8 PMOS_VTL L=0.05U W=1.26U AS=0.0882P AD=0.0882P PS=1.54U PD=1.54U
* device instance $3 r0 *1 0.55,0.995 PMOS_VTL
M$3 7 2 8 8 PMOS_VTL L=0.05U W=1.26U AS=0.0882P AD=0.0882P PS=1.54U PD=1.54U
* device instance $7 r0 *1 1.32,0.995 PMOS_VTL
M$7 6 4 10 8 PMOS_VTL L=0.05U W=1.26U AS=0.09135P AD=0.11025P PS=1.55U PD=2.24U
* device instance $8 r0 *1 1.51,0.995 PMOS_VTL
M$8 10 5 6 8 PMOS_VTL L=0.05U W=1.26U AS=0.0882P AD=0.0882P PS=1.54U PD=1.54U
* device instance $11 r0 *1 0.17,0.2975 NMOS_VTL
M$11 6 3 9 9 NMOS_VTL L=0.05U W=0.83U AS=0.072625P AD=0.060175P PS=1.595U
+ PD=1.12U
* device instance $12 r0 *1 0.36,0.2975 NMOS_VTL
M$12 14 1 6 9 NMOS_VTL L=0.05U W=0.415U AS=0.02905P AD=0.02905P PS=0.555U
+ PD=0.555U
* device instance $13 r0 *1 0.55,0.2975 NMOS_VTL
M$13 9 2 14 9 NMOS_VTL L=0.05U W=0.415U AS=0.02905P AD=0.02905P PS=0.555U
+ PD=0.555U
* device instance $14 r0 *1 0.74,0.2975 NMOS_VTL
M$14 13 2 9 9 NMOS_VTL L=0.05U W=0.415U AS=0.02905P AD=0.02905P PS=0.555U
+ PD=0.555U
* device instance $15 r0 *1 0.93,0.2975 NMOS_VTL
M$15 6 1 13 9 NMOS_VTL L=0.05U W=0.415U AS=0.02905P AD=0.02905P PS=0.555U
+ PD=0.555U
* device instance $17 r0 *1 1.32,0.2975 NMOS_VTL
M$17 12 4 9 9 NMOS_VTL L=0.05U W=0.415U AS=0.031125P AD=0.02905P PS=0.565U
+ PD=0.555U
* device instance $18 r0 *1 1.51,0.2975 NMOS_VTL
M$18 6 5 12 9 NMOS_VTL L=0.05U W=0.415U AS=0.02905P AD=0.02905P PS=0.555U
+ PD=0.555U
* device instance $19 r0 *1 1.7,0.2975 NMOS_VTL
M$19 11 5 6 9 NMOS_VTL L=0.05U W=0.415U AS=0.02905P AD=0.02905P PS=0.555U
+ PD=0.555U
* device instance $20 r0 *1 1.89,0.2975 NMOS_VTL
M$20 9 4 11 9 NMOS_VTL L=0.05U W=0.415U AS=0.02905P AD=0.043575P PS=0.555U
+ PD=1.04U
.ENDS AOI221_X2

* cell AND2_X1
* pin A1
* pin A2
* pin NWELL,VDD
* pin PWELL,VSS
* pin ZN
.SUBCKT AND2_X1 1 2 4 5 6
* net 1 A1
* net 2 A2
* net 4 NWELL,VDD
* net 5 PWELL,VSS
* net 6 ZN
* device instance $1 r0 *1 0.17,1.1525 PMOS_VTL
M$1 3 1 4 4 PMOS_VTL L=0.05U W=0.315U AS=0.033075P AD=0.02205P PS=0.84U
+ PD=0.455U
* device instance $2 r0 *1 0.36,1.1525 PMOS_VTL
M$2 3 2 4 4 PMOS_VTL L=0.05U W=0.315U AS=0.033075P AD=0.02205P PS=0.77U
+ PD=0.455U
* device instance $3 r0 *1 0.55,0.995 PMOS_VTL
M$3 6 3 4 4 PMOS_VTL L=0.05U W=0.63U AS=0.033075P AD=0.06615P PS=0.77U PD=1.47U
* device instance $4 r0 *1 0.17,0.195 NMOS_VTL
M$4 7 1 3 5 NMOS_VTL L=0.05U W=0.21U AS=0.02205P AD=0.0147P PS=0.63U PD=0.35U
* device instance $5 r0 *1 0.36,0.195 NMOS_VTL
M$5 5 2 7 5 NMOS_VTL L=0.05U W=0.21U AS=0.0147P AD=0.021875P PS=0.35U PD=0.555U
* device instance $6 r0 *1 0.55,0.2975 NMOS_VTL
M$6 6 3 5 5 NMOS_VTL L=0.05U W=0.415U AS=0.021875P AD=0.043575P PS=0.555U
+ PD=1.04U
.ENDS AND2_X1

* cell AOI221_X1
* pin B2
* pin B1
* pin A
* pin C2
* pin C1
* pin PWELL,VSS
* pin NWELL,VDD
* pin ZN
.SUBCKT AOI221_X1 1 2 3 4 5 6 8 9
* net 1 B2
* net 2 B1
* net 3 A
* net 4 C2
* net 5 C1
* net 6 PWELL,VSS
* net 8 NWELL,VDD
* net 9 ZN
* device instance $1 r0 *1 0.17,0.995 PMOS_VTL
M$1 8 1 7 8 PMOS_VTL L=0.05U W=0.63U AS=0.06615P AD=0.0441P PS=1.47U PD=0.77U
* device instance $2 r0 *1 0.36,0.995 PMOS_VTL
M$2 7 2 8 8 PMOS_VTL L=0.05U W=0.63U AS=0.0441P AD=0.0441P PS=0.77U PD=0.77U
* device instance $3 r0 *1 0.55,0.995 PMOS_VTL
M$3 10 3 7 8 PMOS_VTL L=0.05U W=0.63U AS=0.0441P AD=0.0441P PS=0.77U PD=0.77U
* device instance $4 r0 *1 0.74,0.995 PMOS_VTL
M$4 9 4 10 8 PMOS_VTL L=0.05U W=0.63U AS=0.0441P AD=0.0441P PS=0.77U PD=0.77U
* device instance $5 r0 *1 0.93,0.995 PMOS_VTL
M$5 10 5 9 8 PMOS_VTL L=0.05U W=0.63U AS=0.0441P AD=0.06615P PS=0.77U PD=1.47U
* device instance $6 r0 *1 0.17,0.2975 NMOS_VTL
M$6 12 1 6 6 NMOS_VTL L=0.05U W=0.415U AS=0.043575P AD=0.02905P PS=1.04U
+ PD=0.555U
* device instance $7 r0 *1 0.36,0.2975 NMOS_VTL
M$7 9 2 12 6 NMOS_VTL L=0.05U W=0.415U AS=0.02905P AD=0.02905P PS=0.555U
+ PD=0.555U
* device instance $8 r0 *1 0.55,0.2975 NMOS_VTL
M$8 6 3 9 6 NMOS_VTL L=0.05U W=0.415U AS=0.02905P AD=0.02905P PS=0.555U
+ PD=0.555U
* device instance $9 r0 *1 0.74,0.2975 NMOS_VTL
M$9 11 4 6 6 NMOS_VTL L=0.05U W=0.415U AS=0.02905P AD=0.02905P PS=0.555U
+ PD=0.555U
* device instance $10 r0 *1 0.93,0.2975 NMOS_VTL
M$10 9 5 11 6 NMOS_VTL L=0.05U W=0.415U AS=0.02905P AD=0.043575P PS=0.555U
+ PD=1.04U
.ENDS AOI221_X1

* cell NAND2_X2
* pin A2
* pin A1
* pin PWELL,VSS
* pin NWELL,VDD
* pin ZN
.SUBCKT NAND2_X2 1 2 3 4 5
* net 1 A2
* net 2 A1
* net 3 PWELL,VSS
* net 4 NWELL,VDD
* net 5 ZN
* device instance $1 r0 *1 0.195,0.995 PMOS_VTL
M$1 5 1 4 4 PMOS_VTL L=0.05U W=1.26U AS=0.11025P AD=0.11025P PS=2.24U PD=2.24U
* device instance $2 r0 *1 0.385,0.995 PMOS_VTL
M$2 4 2 5 4 PMOS_VTL L=0.05U W=1.26U AS=0.0882P AD=0.0882P PS=1.54U PD=1.54U
* device instance $5 r0 *1 0.195,0.2975 NMOS_VTL
M$5 7 1 3 3 NMOS_VTL L=0.05U W=0.415U AS=0.043575P AD=0.02905P PS=1.04U
+ PD=0.555U
* device instance $6 r0 *1 0.385,0.2975 NMOS_VTL
M$6 5 2 7 3 NMOS_VTL L=0.05U W=0.415U AS=0.02905P AD=0.02905P PS=0.555U
+ PD=0.555U
* device instance $7 r0 *1 0.575,0.2975 NMOS_VTL
M$7 6 2 5 3 NMOS_VTL L=0.05U W=0.415U AS=0.02905P AD=0.02905P PS=0.555U
+ PD=0.555U
* device instance $8 r0 *1 0.765,0.2975 NMOS_VTL
M$8 3 1 6 3 NMOS_VTL L=0.05U W=0.415U AS=0.02905P AD=0.043575P PS=0.555U
+ PD=1.04U
.ENDS NAND2_X2

* cell INV_X2
* pin A
* pin PWELL,VSS
* pin NWELL,VDD
* pin ZN
.SUBCKT INV_X2 1 2 3 4
* net 1 A
* net 2 PWELL,VSS
* net 3 NWELL,VDD
* net 4 ZN
* device instance $1 r0 *1 0.185,0.995 PMOS_VTL
M$1 4 1 3 3 PMOS_VTL L=0.05U W=1.26U AS=0.11025P AD=0.11025P PS=2.24U PD=2.24U
* device instance $3 r0 *1 0.185,0.2975 NMOS_VTL
M$3 4 1 2 2 NMOS_VTL L=0.05U W=0.83U AS=0.072625P AD=0.072625P PS=1.595U
+ PD=1.595U
.ENDS INV_X2

* cell CLKBUF_X3
* pin A
* pin PWELL,VSS
* pin NWELL,VDD
* pin Z
.SUBCKT CLKBUF_X3 1 3 4 5
* net 1 A
* net 3 PWELL,VSS
* net 4 NWELL,VDD
* net 5 Z
* device instance $1 r0 *1 0.17,0.995 PMOS_VTL
M$1 4 1 2 4 PMOS_VTL L=0.05U W=0.63U AS=0.06615P AD=0.0441P PS=1.47U PD=0.77U
* device instance $2 r0 *1 0.36,0.995 PMOS_VTL
M$2 5 2 4 4 PMOS_VTL L=0.05U W=1.89U AS=0.1323P AD=0.15435P PS=2.31U PD=3.01U
* device instance $5 r0 *1 0.17,0.1875 NMOS_VTL
M$5 3 1 2 3 NMOS_VTL L=0.05U W=0.195U AS=0.020475P AD=0.01365P PS=0.6U PD=0.335U
* device instance $6 r0 *1 0.36,0.1875 NMOS_VTL
M$6 5 2 3 3 NMOS_VTL L=0.05U W=0.585U AS=0.04095P AD=0.047775P PS=1.005U
+ PD=1.27U
.ENDS CLKBUF_X3

* cell BUF_X8
* pin PWELL,VSS
* pin Z
* pin NWELL,VDD
* pin A
.SUBCKT BUF_X8 1 3 4 5
* net 1 PWELL,VSS
* net 3 Z
* net 4 NWELL,VDD
* net 5 A
* device instance $1 r0 *1 0.17,0.995 PMOS_VTL
M$1 2 5 4 4 PMOS_VTL L=0.05U W=2.52U AS=0.19845P AD=0.1764P PS=3.78U PD=3.08U
* device instance $5 r0 *1 0.93,0.995 PMOS_VTL
M$5 3 2 4 4 PMOS_VTL L=0.05U W=5.04U AS=0.3528P AD=0.37485P PS=6.16U PD=6.86U
* device instance $13 r0 *1 0.17,0.2975 NMOS_VTL
M$13 2 5 1 1 NMOS_VTL L=0.05U W=1.66U AS=0.130725P AD=0.1162P PS=2.705U PD=2.22U
* device instance $17 r0 *1 0.93,0.2975 NMOS_VTL
M$17 3 2 1 1 NMOS_VTL L=0.05U W=3.32U AS=0.2324P AD=0.246925P PS=4.44U PD=4.925U
.ENDS BUF_X8

* cell BUF_X1
* pin A
* pin PWELL,VSS
* pin NWELL,VDD
* pin Z
.SUBCKT BUF_X1 1 3 4 5
* net 1 A
* net 3 PWELL,VSS
* net 4 NWELL,VDD
* net 5 Z
* device instance $1 r0 *1 0.17,1.1525 PMOS_VTL
M$1 2 1 4 4 PMOS_VTL L=0.05U W=0.315U AS=0.033075P AD=0.033075P PS=0.77U
+ PD=0.84U
* device instance $2 r0 *1 0.36,0.995 PMOS_VTL
M$2 5 2 4 4 PMOS_VTL L=0.05U W=0.63U AS=0.033075P AD=0.06615P PS=0.77U PD=1.47U
* device instance $3 r0 *1 0.17,0.195 NMOS_VTL
M$3 3 1 2 3 NMOS_VTL L=0.05U W=0.21U AS=0.02205P AD=0.021875P PS=0.63U PD=0.555U
* device instance $4 r0 *1 0.36,0.2975 NMOS_VTL
M$4 5 2 3 3 NMOS_VTL L=0.05U W=0.415U AS=0.021875P AD=0.043575P PS=0.555U
+ PD=1.04U
.ENDS BUF_X1

* cell AOI21_X2
* pin A
* pin B2
* pin B1
* pin PWELL,VSS
* pin ZN
* pin NWELL,VDD
.SUBCKT AOI21_X2 1 2 3 4 6 7
* net 1 A
* net 2 B2
* net 3 B1
* net 4 PWELL,VSS
* net 6 ZN
* net 7 NWELL,VDD
* device instance $1 r0 *1 0.21,0.995 PMOS_VTL
M$1 7 1 5 7 PMOS_VTL L=0.05U W=1.26U AS=0.11025P AD=0.0882P PS=2.24U PD=1.54U
* device instance $3 r0 *1 0.59,0.995 PMOS_VTL
M$3 6 2 5 7 PMOS_VTL L=0.05U W=1.26U AS=0.0882P AD=0.11025P PS=1.54U PD=2.24U
* device instance $4 r0 *1 0.78,0.995 PMOS_VTL
M$4 5 3 6 7 PMOS_VTL L=0.05U W=1.26U AS=0.0882P AD=0.0882P PS=1.54U PD=1.54U
* device instance $7 r0 *1 0.21,0.2975 NMOS_VTL
M$7 6 1 4 4 NMOS_VTL L=0.05U W=0.83U AS=0.072625P AD=0.0581P PS=1.595U PD=1.11U
* device instance $9 r0 *1 0.59,0.2975 NMOS_VTL
M$9 9 2 4 4 NMOS_VTL L=0.05U W=0.415U AS=0.02905P AD=0.02905P PS=0.555U
+ PD=0.555U
* device instance $10 r0 *1 0.78,0.2975 NMOS_VTL
M$10 6 3 9 4 NMOS_VTL L=0.05U W=0.415U AS=0.02905P AD=0.02905P PS=0.555U
+ PD=0.555U
* device instance $11 r0 *1 0.97,0.2975 NMOS_VTL
M$11 8 3 6 4 NMOS_VTL L=0.05U W=0.415U AS=0.02905P AD=0.02905P PS=0.555U
+ PD=0.555U
* device instance $12 r0 *1 1.16,0.2975 NMOS_VTL
M$12 4 2 8 4 NMOS_VTL L=0.05U W=0.415U AS=0.02905P AD=0.043575P PS=0.555U
+ PD=1.04U
.ENDS AOI21_X2

* cell AOI22_X2
* pin B2
* pin B1
* pin A2
* pin A1
* pin PWELL,VSS
* pin NWELL,VDD
* pin ZN
.SUBCKT AOI22_X2 1 2 3 4 5 7 8
* net 1 B2
* net 2 B1
* net 3 A2
* net 4 A1
* net 5 PWELL,VSS
* net 7 NWELL,VDD
* net 8 ZN
* device instance $1 r0 *1 0.175,0.995 PMOS_VTL
M$1 7 1 6 7 PMOS_VTL L=0.05U W=1.26U AS=0.11025P AD=0.0882P PS=2.24U PD=1.54U
* device instance $2 r0 *1 0.365,0.995 PMOS_VTL
M$2 6 2 7 7 PMOS_VTL L=0.05U W=1.26U AS=0.0882P AD=0.0882P PS=1.54U PD=1.54U
* device instance $5 r0 *1 0.935,0.995 PMOS_VTL
M$5 8 3 6 7 PMOS_VTL L=0.05U W=1.26U AS=0.0882P AD=0.11025P PS=1.54U PD=2.24U
* device instance $6 r0 *1 1.125,0.995 PMOS_VTL
M$6 6 4 8 7 PMOS_VTL L=0.05U W=1.26U AS=0.0882P AD=0.0882P PS=1.54U PD=1.54U
* device instance $9 r0 *1 0.175,0.2975 NMOS_VTL
M$9 12 1 5 5 NMOS_VTL L=0.05U W=0.415U AS=0.043575P AD=0.02905P PS=1.04U
+ PD=0.555U
* device instance $10 r0 *1 0.365,0.2975 NMOS_VTL
M$10 8 2 12 5 NMOS_VTL L=0.05U W=0.415U AS=0.02905P AD=0.02905P PS=0.555U
+ PD=0.555U
* device instance $11 r0 *1 0.555,0.2975 NMOS_VTL
M$11 10 2 8 5 NMOS_VTL L=0.05U W=0.415U AS=0.02905P AD=0.02905P PS=0.555U
+ PD=0.555U
* device instance $12 r0 *1 0.745,0.2975 NMOS_VTL
M$12 5 1 10 5 NMOS_VTL L=0.05U W=0.415U AS=0.02905P AD=0.02905P PS=0.555U
+ PD=0.555U
* device instance $13 r0 *1 0.935,0.2975 NMOS_VTL
M$13 11 3 5 5 NMOS_VTL L=0.05U W=0.415U AS=0.02905P AD=0.02905P PS=0.555U
+ PD=0.555U
* device instance $14 r0 *1 1.125,0.2975 NMOS_VTL
M$14 8 4 11 5 NMOS_VTL L=0.05U W=0.415U AS=0.02905P AD=0.02905P PS=0.555U
+ PD=0.555U
* device instance $15 r0 *1 1.315,0.2975 NMOS_VTL
M$15 9 4 8 5 NMOS_VTL L=0.05U W=0.415U AS=0.02905P AD=0.02905P PS=0.555U
+ PD=0.555U
* device instance $16 r0 *1 1.505,0.2975 NMOS_VTL
M$16 5 3 9 5 NMOS_VTL L=0.05U W=0.415U AS=0.02905P AD=0.043575P PS=0.555U
+ PD=1.04U
.ENDS AOI22_X2

* cell OAI33_X1
* pin B3
* pin B2
* pin B1
* pin A1
* pin A2
* pin A3
* pin PWELL,VSS
* pin NWELL,VDD
* pin ZN
.SUBCKT OAI33_X1 1 2 3 4 5 6 7 8 10
* net 1 B3
* net 2 B2
* net 3 B1
* net 4 A1
* net 5 A2
* net 6 A3
* net 7 PWELL,VSS
* net 8 NWELL,VDD
* net 10 ZN
* device instance $1 r0 *1 0.185,0.995 PMOS_VTL
M$1 14 1 8 8 PMOS_VTL L=0.05U W=0.63U AS=0.06615P AD=0.0441P PS=1.47U PD=0.77U
* device instance $2 r0 *1 0.375,0.995 PMOS_VTL
M$2 13 2 14 8 PMOS_VTL L=0.05U W=0.63U AS=0.0441P AD=0.0441P PS=0.77U PD=0.77U
* device instance $3 r0 *1 0.565,0.995 PMOS_VTL
M$3 10 3 13 8 PMOS_VTL L=0.05U W=0.63U AS=0.0441P AD=0.0441P PS=0.77U PD=0.77U
* device instance $4 r0 *1 0.755,0.995 PMOS_VTL
M$4 12 4 10 8 PMOS_VTL L=0.05U W=0.63U AS=0.0441P AD=0.0441P PS=0.77U PD=0.77U
* device instance $5 r0 *1 0.945,0.995 PMOS_VTL
M$5 11 5 12 8 PMOS_VTL L=0.05U W=0.63U AS=0.0441P AD=0.0441P PS=0.77U PD=0.77U
* device instance $6 r0 *1 1.135,0.995 PMOS_VTL
M$6 8 6 11 8 PMOS_VTL L=0.05U W=0.63U AS=0.0441P AD=0.06615P PS=0.77U PD=1.47U
* device instance $7 r0 *1 0.185,0.2975 NMOS_VTL