
* cell jtag_controller
* pin dr_out[15]
* pin dr_in[15]
* pin dr_in[14]
* pin dr_out[14]
* pin dr_in[13]
* pin dr_in[11]
* pin dr_in[12]
* pin dr_in[10]
* pin dr_out[12]
* pin dr_in[0]
* pin dr_out[13]
* pin tdi
* pin instruction[4]
* pin instruction[3]
* pin instruction[2]
* pin trst_n
* pin instruction[1]
* pin dr_out[16]
* pin tms
* pin dr_out[17]
* pin instruction[0]
* pin dr_in[16]
* pin dr_in[17]
* pin dr_out[18]
* pin dr_out[11]
* pin dr_in[18]
* pin dr_out[19]
* pin dr_shift_en
* pin tdo
* pin dr_in[19]
* pin dr_out[1]
* pin dr_out[20]
* pin dr_out[0]
* pin dr_out[10]
* pin dr_out[21]
* pin dr_out[9]
* pin dr_in[9]
* pin dr_in[20]
* pin dr_in[21]
* pin dr_in[8]
* pin dr_out[8]
* pin dr_out[22]
* pin dr_out[31]
* pin dr_in[7]
* pin dr_out[23]
* pin dr_in[22]
* pin dr_in[6]
* pin dr_out[7]
* pin dr_in[23]
* pin dr_in[24]
* pin dr_out[6]
* pin dr_out[24]
* pin tck
* pin dr_in[25]
* pin dr_in[2]
* pin dr_out[5]
* pin dr_out[2]
* pin dr_in[29]
* pin update_dr
* pin dr_out[25]
* pin dr_out[26]
* pin dr_in[26]
* pin dr_out[27]
* pin dr_in[1]
* pin dr_in[27]
* pin dr_out[28]
* pin dr_in[30]
* pin dr_in[28]
* pin dr_out[30]
* pin dr_out[29]
* pin dr_in[31]
* pin dr_out[3]
* pin dr_in[3]
* pin dr_out[4]
* pin dr_in[4]
* pin dr_in[5]
.SUBCKT jtag_controller 1 2 3 4 5 6 7 8 9 10 11 12 13 14 15 33 47 76 108 117
+ 123 129 141 152 163 169 174 183 191 193 194 204 206 215 218 223 224 227 241
+ 249 250 261 264 270 273 274 287 293 304 318 325 347 371 372 373 374 380 383
+ 384 385 386 387 388 389 390 391 392 393 394 395 396 397 398 399 400 401
* net 1 dr_out[15]
* net 2 dr_in[15]
* net 3 dr_in[14]
* net 4 dr_out[14]
* net 5 dr_in[13]
* net 6 dr_in[11]
* net 7 dr_in[12]
* net 8 dr_in[10]
* net 9 dr_out[12]
* net 10 dr_in[0]
* net 11 dr_out[13]
* net 12 tdi
* net 13 instruction[4]
* net 14 instruction[3]
* net 15 instruction[2]
* net 33 trst_n
* net 47 instruction[1]
* net 76 dr_out[16]
* net 108 tms
* net 117 dr_out[17]
* net 123 instruction[0]
* net 129 dr_in[16]
* net 141 dr_in[17]
* net 152 dr_out[18]
* net 163 dr_out[11]
* net 169 dr_in[18]
* net 174 dr_out[19]
* net 183 dr_shift_en
* net 191 tdo
* net 193 dr_in[19]
* net 194 dr_out[1]
* net 204 dr_out[20]
* net 206 dr_out[0]
* net 215 dr_out[10]
* net 218 dr_out[21]
* net 223 dr_out[9]
* net 224 dr_in[9]
* net 227 dr_in[20]
* net 241 dr_in[21]
* net 249 dr_in[8]
* net 250 dr_out[8]
* net 261 dr_out[22]
* net 264 dr_out[31]
* net 270 dr_in[7]
* net 273 dr_out[23]
* net 274 dr_in[22]
* net 287 dr_in[6]
* net 293 dr_out[7]
* net 304 dr_in[23]
* net 318 dr_in[24]
* net 325 dr_out[6]
* net 347 dr_out[24]
* net 371 tck
* net 372 dr_in[25]
* net 373 dr_in[2]
* net 374 dr_out[5]
* net 380 dr_out[2]
* net 383 dr_in[29]
* net 384 update_dr
* net 385 dr_out[25]
* net 386 dr_out[26]
* net 387 dr_in[26]
* net 388 dr_out[27]
* net 389 dr_in[1]
* net 390 dr_in[27]
* net 391 dr_out[28]
* net 392 dr_in[30]
* net 393 dr_in[28]
* net 394 dr_out[30]
* net 395 dr_out[29]
* net 396 dr_in[31]
* net 397 dr_out[3]
* net 398 dr_in[3]
* net 399 dr_out[4]
* net 400 dr_in[4]
* net 401 dr_in[5]
* cell instance $2 r0 *1 10.58,2.72
X$2 35 17 1 16 35 16 sky130_fd_sc_hd__clkbuf_1
* cell instance $6 r0 *1 13.8,2.72
X$6 35 2 44 16 35 16 sky130_fd_sc_hd__clkbuf_1
* cell instance $9 r0 *1 19.32,2.72
X$9 35 3 73 16 35 16 sky130_fd_sc_hd__clkbuf_1
* cell instance $11 r0 *1 24.84,2.72
X$11 35 27 4 16 35 16 sky130_fd_sc_hd__clkbuf_1
* cell instance $14 r0 *1 27.6,2.72
X$14 35 5 24 16 35 16 sky130_fd_sc_hd__clkbuf_1
* cell instance $20 r0 *1 26.22,2.72
X$20 35 6 39 16 35 16 sky130_fd_sc_hd__clkbuf_1
* cell instance $23 m0 *1 31.28,8.16
X$23 35 7 75 16 35 16 sky130_fd_sc_hd__clkbuf_1
* cell instance $26 r0 *1 33.12,2.72
X$26 35 8 42 16 35 16 sky130_fd_sc_hd__clkbuf_1
* cell instance $29 r0 *1 43.24,2.72
X$29 35 93 9 16 35 16 sky130_fd_sc_hd__clkbuf_1
* cell instance $32 r0 *1 40.94,2.72
X$32 35 10 40 16 35 16 sky130_fd_sc_hd__clkbuf_1
* cell instance $34 r0 *1 39.56,2.72
X$34 35 19 11 16 35 16 sky130_fd_sc_hd__clkbuf_1
* cell instance $37 r0 *1 46,2.72
X$37 35 12 78 16 35 16 sky130_fd_sc_hd__clkbuf_1
* cell instance $41 r0 *1 49.22,2.72
X$41 35 38 13 16 35 16 sky130_fd_sc_hd__clkbuf_1
* cell instance $44 r0 *1 55.2,2.72
X$44 35 22 14 16 35 16 sky130_fd_sc_hd__clkbuf_1
* cell instance $47 m0 *1 66.7,8.16
X$47 35 32 15 16 35 16 sky130_fd_sc_hd__clkbuf_1
* cell instance $57 r0 *1 1.38,2.72
X$57 16 21 17 25 34 35 35 16 sky130_fd_sc_hd__dfrtn_1
* cell instance $62 r0 *1 20.7,2.72
X$62 16 37 18 27 28 35 35 16 sky130_fd_sc_hd__mux2_1
* cell instance $64 r0 *1 29.44,2.72
X$64 16 29 18 24 30 35 35 16 sky130_fd_sc_hd__mux2i_1
* cell instance $66 r0 *1 35.42,2.72
X$66 16 41 23 19 28 35 35 16 sky130_fd_sc_hd__mux2_1
* cell instance $76 r0 *1 57.04,2.72
X$76 16 20 22 51 26 35 35 16 sky130_fd_sc_hd__mux2_1
* cell instance $77 r0 *1 61.18,2.72
X$77 16 21 22 25 20 35 35 16 sky130_fd_sc_hd__dfrtn_1
* cell instance $80 r0 *1 70.84,2.72
X$80 16 21 54 25 57 35 35 16 sky130_fd_sc_hd__dfrtn_1
* cell instance $88 m0 *1 5.06,8.16
X$88 16 34 43 17 28 35 35 16 sky130_fd_sc_hd__mux2_1
* cell instance $89 m0 *1 9.2,8.16
X$89 16 21 43 25 69 35 35 16 sky130_fd_sc_hd__dfrtp_1
* cell instance $90 m0 *1 18.4,8.16
X$90 16 21 27 25 37 35 35 16 sky130_fd_sc_hd__dfrtn_1
* cell instance $91 m0 *1 27.6,8.16
X$91 35 23 45 48 16 35 16 sky130_fd_sc_hd__nor2_1
* cell instance $93 m0 *1 29.44,8.16
X$93 35 48 58 29 16 35 46 16 sky130_fd_sc_hd__a21oi_1
* cell instance $94 m0 *1 32.66,8.16
X$94 16 21 19 25 41 35 35 16 sky130_fd_sc_hd__dfrtn_1
* cell instance $95 m0 *1 41.86,8.16
X$95 16 21 38 25 31 35 35 16 sky130_fd_sc_hd__dfrtn_1
* cell instance $96 m0 *1 51.06,8.16
X$96 16 31 38 49 26 35 35 16 sky130_fd_sc_hd__mux2_1
* cell instance $101 m0 *1 57.5,8.16
X$101 16 21 32 25 36 35 35 16 sky130_fd_sc_hd__dfrtn_1
* cell instance $103 m0 *1 69.92,8.16
X$103 16 33 21 35 35 16 sky130_fd_sc_hd__buf_16
* cell instance $107 r0 *1 4.6,8.16
X$107 16 79 61 55 28 35 35 16 sky130_fd_sc_hd__mux2_1
* cell instance $109 r0 *1 9.66,8.16
X$109 35 59 58 50 16 35 69 16 sky130_fd_sc_hd__a21oi_1
* cell instance $110 r0 *1 11.5,8.16
X$110 35 43 45 59 16 35 16 sky130_fd_sc_hd__nor2_1
* cell instance $117 r0 *1 17.02,8.16
X$117 35 18 45 71 16 35 16 sky130_fd_sc_hd__nor2_1
* cell instance $118 r0 *1 18.4,8.16
X$118 16 62 43 73 30 35 35 16 sky130_fd_sc_hd__mux2i_1
* cell instance $122 r0 *1 28.52,8.16
X$122 16 21 23 25 46 35 35 16 sky130_fd_sc_hd__dfrtp_1
* cell instance $131 r0 *1 51.52,8.16
X$131 16 21 51 25 74 35 35 16 sky130_fd_sc_hd__dfrtp_1
* cell instance $133 r0 *1 61.18,8.16
X$133 35 53 72 91 35 70 16 16 sky130_fd_sc_hd__o21ai_0
* cell instance $135 r0 *1 63.94,8.16
X$135 16 36 32 60 26 35 35 16 sky130_fd_sc_hd__mux2_1
* cell instance $136 r0 *1 68.08,8.16
X$136 35 52 60 68 16 35 16 sky130_fd_sc_hd__nor2_1
* cell instance $140 r0 *1 70.84,8.16
X$140 35 53 68 66 35 67 16 16 sky130_fd_sc_hd__o21ai_0
* cell instance $141 r0 *1 72.68,8.16
X$141 35 56 53 66 35 16 16 sky130_fd_sc_hd__nand2_1
* cell instance $142 r0 *1 74.06,8.16
X$142 16 57 54 56 26 35 35 16 sky130_fd_sc_hd__mux2_1
* cell instance $144 r0 *1 78.66,8.16
X$144 35 54 47 16 35 16 sky130_fd_sc_hd__clkbuf_1
* cell instance $151 m0 *1 1.38,13.6
X$151 16 21 55 25 79 35 35 16 sky130_fd_sc_hd__dfrtn_1
* cell instance $153 m0 *1 11.04,13.6
X$153 35 61 45 80 16 35 16 sky130_fd_sc_hd__nor2_1
* cell instance $154 m0 *1 12.42,13.6
X$154 16 50 61 44 30 35 35 16 sky130_fd_sc_hd__mux2i_1
* cell instance $155 m0 *1 16.1,13.6
X$155 35 71 58 62 16 35 63 16 sky130_fd_sc_hd__a21oi_1
* cell instance $156 m0 *1 17.94,13.6
X$156 16 21 18 25 63 35 35 16 sky130_fd_sc_hd__dfrtp_1
* cell instance $157 m0 *1 27.14,13.6
X$157 35 81 58 64 16 35 77 16 sky130_fd_sc_hd__a21oi_1
* cell instance $160 m0 *1 31.28,13.6
X$160 16 64 23 75 30 35 35 16 sky130_fd_sc_hd__mux2i_1
* cell instance $166 m0 *1 51.52,13.6
X$166 35 49 53 83 35 16 16 sky130_fd_sc_hd__nand2_1
* cell instance $167 m0 *1 52.9,13.6
X$167 35 53 65 82 35 74 16 16 sky130_fd_sc_hd__o21ai_0
* cell instance $168 m0 *1 54.74,13.6
X$168 35 52 49 65 16 35 16 sky130_fd_sc_hd__nor2_1
* cell instance $171 m0 *1 57.04,13.6
X$171 35 51 53 82 35 16 16 sky130_fd_sc_hd__nand2_1
* cell instance $172 m0 *1 58.42,13.6
X$172 35 52 51 72 16 35 16 sky130_fd_sc_hd__nor2_1
* cell instance $173 m0 *1 59.8,13.6
X$173 16 21 60 25 70 35 35 16 sky130_fd_sc_hd__dfrtp_1
* cell instance $175 m0 *1 69.46,13.6
X$175 16 21 56 25 67 35 35 16 sky130_fd_sc_hd__dfrtp_1
* cell instance $179 r0 *1 5.06,13.6
X$179 35 55 76 16 35 16 sky130_fd_sc_hd__clkbuf_1
* cell instance $182 r0 *1 9.2,13.6
X$182 35 80 58 84 16 35 102 16 sky130_fd_sc_hd__a21oi_1
* cell instance $183 r0 *1 11.04,13.6
X$183 16 84 107 89 90 35 35 16 sky130_fd_sc_hd__mux2i_1
* cell instance $192 r0 *1 23.92,13.6
X$192 16 21 95 25 77 35 35 16 sky130_fd_sc_hd__dfrtp_1
* cell instance $193 r0 *1 33.12,13.6
X$193 16 21 93 25 105 35 35 16 sky130_fd_sc_hd__dfrtn_1
* cell instance $199 r0 *1 43.24,13.6
X$199 16 21 49 25 85 35 35 16 sky130_fd_sc_hd__dfrtp_1
* cell instance $200 r0 *1 52.44,13.6
X$200 35 53 92 83 35 85 16 16 sky130_fd_sc_hd__o21ai_0
* cell instance $206 r0 *1 64.86,13.6
X$206 35 60 53 91 35 16 16 sky130_fd_sc_hd__nand2_1
* cell instance $208 r0 *1 67.16,13.6
X$208 35 52 56 86 16 35 16 sky130_fd_sc_hd__nor2_1
* cell instance $209 r0 *1 68.54,13.6
X$209 35 53 86 88 35 100 16 16 sky130_fd_sc_hd__o21ai_0
* cell instance $214 r0 *1 70.84,13.6
X$214 35 87 53 88 35 16 16 sky130_fd_sc_hd__nand2_1
* cell instance $221 m0 *1 9.2,19.04
X$221 16 21 61 25 102 35 35 16 sky130_fd_sc_hd__dfrtp_1
* cell instance $222 m0 *1 18.4,19.04
X$222 16 21 107 25 94 35 35 16 sky130_fd_sc_hd__dfrtp_1
* cell instance $223 m0 *1 27.6,19.04
X$223 35 95 45 81 16 35 16 sky130_fd_sc_hd__nor2_1
* cell instance $226 m0 *1 29.9,19.04
X$226 16 111 95 39 30 35 35 16 sky130_fd_sc_hd__mux2i_1
* cell instance $228 m0 *1 34.04,19.04
X$228 16 105 95 93 28 35 35 16 sky130_fd_sc_hd__mux2_1
* cell instance $229 m0 *1 38.18,19.04
X$229 16 21 115 25 104 35 35 16 sky130_fd_sc_hd__dfrtp_1
* cell instance $231 m0 *1 49.22,19.04
X$231 35 97 78 92 35 16 16 sky130_fd_sc_hd__nand2_1
* cell instance $233 m0 *1 51.06,19.04
X$233 35 97 112 96 116 35 16 16 sky130_fd_sc_hd__nand3_1
* cell instance $234 m0 *1 52.9,19.04
X$234 35 97 113 96 103 114 35 16 16 sky130_fd_sc_hd__o211ai_1
* cell instance $239 m0 *1 58.42,19.04
X$239 35 97 35 16 52 16 sky130_fd_sc_hd__clkinvlp_4
* cell instance $241 m0 *1 61.64,19.04
X$241 35 99 16 96 35 16 sky130_fd_sc_hd__buf_2
* cell instance $243 m0 *1 63.94,19.04
X$243 35 101 103 135 110 16 35 16 sky130_fd_sc_hd__nor3_1
* cell instance $245 m0 *1 66.24,19.04
X$245 35 99 35 16 109 16 sky130_fd_sc_hd__inv_1
* cell instance $247 m0 *1 68.54,19.04
X$247 35 108 99 16 35 16 sky130_fd_sc_hd__clkbuf_1
* cell instance $248 m0 *1 69.92,19.04
X$248 16 21 87 25 100 35 35 16 sky130_fd_sc_hd__dfstp_1
* cell instance $250 r0 *1 1.38,19.04
X$250 16 21 106 25 118 35 35 16 sky130_fd_sc_hd__dfrtn_1
* cell instance $251 r0 *1 10.58,19.04
X$251 16 118 107 106 28 35 35 16 sky130_fd_sc_hd__mux2_1
* cell instance $257 r0 *1 19.78,19.04
X$257 35 107 45 136 16 35 16 sky130_fd_sc_hd__nor2_1
* cell instance $260 r0 *1 25.76,19.04
X$260 16 21 125 25 137 35 35 16 sky130_fd_sc_hd__dfrtp_1
* cell instance $268 r0 *1 46,19.04
X$268 35 115 16 126 35 16 sky130_fd_sc_hd__clkbuf_4
* cell instance $269 r0 *1 48.76,19.04
X$269 35 98 96 116 35 140 16 16 sky130_fd_sc_hd__o21ai_0
* cell instance $271 r0 *1 51.52,19.04
X$271 35 101 112 139 114 35 16 128 16 sky130_fd_sc_hd__o31ai_1
* cell instance $272 r0 *1 54.28,19.04
X$272 35 128 98 119 16 35 104 16 sky130_fd_sc_hd__a21oi_1
* cell instance $273 r0 *1 56.12,19.04
X$273 35 127 52 96 113 119 16 35 16 sky130_fd_sc_hd__o22ai_1
* cell instance $274 r0 *1 58.42,19.04
X$274 35 96 112 103 131 16 35 120 16 sky130_fd_sc_hd__a31oi_1
* cell instance $275 r0 *1 60.72,19.04
X$275 35 52 121 120 35 130 16 16 sky130_fd_sc_hd__o21ai_0
* cell instance $277 r0 *1 63.48,19.04
X$277 35 110 109 122 16 35 121 16 sky130_fd_sc_hd__a21oi_1
* cell instance $279 r0 *1 65.78,19.04
X$279 16 16 122 53 101 35 35 sky130_fd_sc_hd__nand2_2
* cell instance $282 r0 *1 69,19.04
X$282 35 25 35 16 134 16 sky130_fd_sc_hd__inv_1
* cell instance $285 r0 *1 74.52,19.04
X$285 16 132 124 87 26 35 35 16 sky130_fd_sc_hd__mux2_1
* cell instance $286 r0 *1 78.66,19.04
X$286 35 124 123 16 35 16 sky130_fd_sc_hd__clkbuf_1
* cell instance $293 m0 *1 1.38,24.48
X$293 35 106 117 16 35 16 sky130_fd_sc_hd__clkbuf_1
* cell instance $294 m0 *1 2.76,24.48
X$294 35 129 89 16 35 16 sky130_fd_sc_hd__clkbuf_1
* cell instance $295 m0 *1 4.14,24.48
X$295 35 141 146 16 35 16 sky130_fd_sc_hd__clkbuf_1
* cell instance $298 m0 *1 6.9,24.48
X$298 16 133 142 147 28 35 35 16 sky130_fd_sc_hd__mux2_1
* cell instance $299 m0 *1 11.04,24.48
X$299 16 21 142 25 157 35 35 16 sky130_fd_sc_hd__dfrtp_1
* cell instance $300 m0 *1 20.24,24.48
X$300 35 136 58 143 16 35 94 16 sky130_fd_sc_hd__a21oi_1
* cell instance $303 m0 *1 27.6,24.48
X$303 35 125 45 149 16 35 16 sky130_fd_sc_hd__nor2_1
* cell instance $305 m0 *1 29.44,24.48
X$305 35 149 58 111 16 35 137 16 sky130_fd_sc_hd__a21oi_1
* cell instance $306 m0 *1 31.28,24.48
X$306 16 150 125 42 30 35 35 16 sky130_fd_sc_hd__mux2i_1
* cell instance $309 m0 *1 39.1,24.48
X$309 16 21 165 25 130 35 35 16 sky130_fd_sc_hd__dfrtp_4
* cell instance $310 m0 *1 49.68,24.48
X$310 35 97 98 96 151 35 16 16 sky130_fd_sc_hd__nand3_1
* cell instance $312 m0 *1 52.44,24.48
X$312 35 96 97 103 16 35 139 16 sky130_fd_sc_hd__a21oi_1
* cell instance $313 m0 *1 54.28,24.48
X$313 35 126 16 97 35 16 sky130_fd_sc_hd__buf_2
* cell instance $318 m0 *1 58.42,24.48
X$318 35 96 113 138 101 97 35 131 16 16 sky130_fd_sc_hd__a311oi_1
* cell instance $319 m0 *1 61.64,24.48
X$319 35 96 112 135 35 16 16 sky130_fd_sc_hd__xnor2_1
* cell instance $320 m0 *1 64.86,24.48
X$320 35 109 52 112 16 35 144 16 sky130_fd_sc_hd__a21oi_1
* cell instance $321 m0 *1 66.7,24.48
X$321 35 101 97 109 16 35 145 16 sky130_fd_sc_hd__a21oi_1
* cell instance $322 m0 *1 68.54,24.48
X$322 35 87 122 148 35 16 16 sky130_fd_sc_hd__nand2_1
* cell instance $324 m0 *1 70.38,24.48
X$324 16 21 124 134 132 35 35 16 sky130_fd_sc_hd__dfstp_1
* cell instance $325 r0 *1 1.38,24.48
X$325 16 21 147 25 133 35 35 16 sky130_fd_sc_hd__dfrtn_1
* cell instance $327 r0 *1 11.5,24.48
X$327 35 142 45 167 16 35 16 sky130_fd_sc_hd__nor2_1
* cell instance $333 r0 *1 17.48,24.48
X$333 16 143 142 146 90 35 35 16 sky130_fd_sc_hd__mux2i_1
* cell instance $336 r0 *1 23.92,24.48
X$336 16 158 125 159 28 35 35 16 sky130_fd_sc_hd__mux2_1
* cell instance $345 r0 *1 48.76,24.48
X$345 35 140 101 161 162 16 210 35 16 sky130_fd_sc_hd__a211oi_1
* cell instance $346 r0 *1 51.52,24.48
X$346 16 112 101 103 126 35 26 35 16 sky130_fd_sc_hd__nand4_4
* cell instance $347 r0 *1 59.34,24.48
X$347 35 101 103 96 16 35 138 16 sky130_fd_sc_hd__a21oi_1
* cell instance $348 r0 *1 61.18,24.48
X$348 35 112 101 109 16 35 127 16 sky130_fd_sc_hd__a21oi_1
* cell instance $349 r0 *1 63.02,24.48
X$349 16 156 26 144 103 155 112 35 35 16 sky130_fd_sc_hd__o221a_1
* cell instance $350 r0 *1 67.16,24.48
X$350 35 145 97 98 16 35 155 16 sky130_fd_sc_hd__a21oi_1
* cell instance $365 m0 *1 5.06,29.92
X$365 35 147 152 16 35 16 sky130_fd_sc_hd__clkbuf_1
* cell instance $369 m0 *1 12.42,29.92
X$369 35 167 58 164 16 35 157 16 sky130_fd_sc_hd__a21oi_1
* cell instance $370 m0 *1 14.26,29.92
X$370 35 159 163 16 35 16 sky130_fd_sc_hd__clkbuf_1
* cell instance $373 m0 *1 19.78,29.92
X$373 16 21 159 25 158 35 35 16 sky130_fd_sc_hd__dfrtn_1
* cell instance $376 m0 *1 31.28,29.92
X$376 35 160 45 168 16 35 16 sky130_fd_sc_hd__nor2_1
* cell instance $377 m0 *1 32.66,29.92
X$377 35 168 58 150 16 35 153 16 sky130_fd_sc_hd__a21oi_1
* cell instance $378 m0 *1 34.5,29.92
X$378 16 21 160 25 153 35 35 16 sky130_fd_sc_hd__dfrtp_1
* cell instance $382 m0 *1 49.68,29.92
X$382 35 165 16 101 35 16 sky130_fd_sc_hd__buf_2
* cell instance $383 m0 *1 51.52,29.92
X$383 35 101 112 151 16 35 162 16 sky130_fd_sc_hd__a21oi_1
* cell instance $384 m0 *1 53.36,29.92
X$384 35 97 103 112 161 16 35 16 sky130_fd_sc_hd__nor3_1
* cell instance $389 m0 *1 57.5,29.92
X$389 35 154 35 16 113 16 sky130_fd_sc_hd__inv_1
* cell instance $392 m0 *1 60.26,29.92
X$392 35 154 16 112 35 16 sky130_fd_sc_hd__buf_2
* cell instance $393 m0 *1 62.1,29.92
X$393 35 154 103 122 16 35 16 sky130_fd_sc_hd__nor2b_1
* cell instance $395 m0 *1 64.86,29.92
X$395 16 21 166 25 156 35 35 16 sky130_fd_sc_hd__dfrtp_2
* cell instance $398 r0 *1 1.38,29.92
X$398 35 170 174 16 35 16 sky130_fd_sc_hd__clkbuf_1
* cell instance $399 r0 *1 2.76,29.92
X$399 35 169 180 16 35 16 sky130_fd_sc_hd__clkbuf_1
* cell instance $401 r0 *1 5.06,29.92
X$401 16 184 171 170 28 35 35 16 sky130_fd_sc_hd__mux2_1
* cell instance $403 r0 *1 10.12,29.92
X$403 35 171 45 185 16 35 16 sky130_fd_sc_hd__nor2_1
* cell instance $404 r0 *1 11.5,29.92
X$404 16 164 171 180 90 35 35 16 sky130_fd_sc_hd__mux2i_1
* cell instance $412 r0 *1 29.44,29.92
X$412 35 173 16 45 35 16 sky130_fd_sc_hd__clkbuf_4
* cell instance $413 r0 *1 32.2,29.92
X$413 35 173 16 58 35 16 sky130_fd_sc_hd__clkbuf_4
* cell instance $417 r0 *1 40.02,29.92
X$417 35 40 30 202 35 16 16 sky130_fd_sc_hd__nand2_1
* cell instance $423 r0 *1 46.92,29.92
X$423 35 165 126 154 181 35 16 16 sky130_fd_sc_hd__or3b_1
* cell instance $427 r0 *1 53.36,29.92
X$427 16 166 172 165 126 113 35 35 16 sky130_fd_sc_hd__nor4_4
* cell instance $430 r0 *1 63.48,29.92
X$430 35 166 16 103 35 16 sky130_fd_sc_hd__buf_2
* cell instance $437 r0 *1 71.3,29.92
X$437 35 172 183 16 35 16 sky130_fd_sc_hd__clkbuf_1
* cell instance $446 m0 *1 1.38,35.36
X$446 16 21 170 25 184 35 35 16 sky130_fd_sc_hd__dfrtn_1
* cell instance $448 m0 *1 11.04,35.36
X$448 35 185 58 201 16 35 175 16 sky130_fd_sc_hd__a21oi_1
* cell instance $449 m0 *1 12.88,35.36
X$449 16 21 171 25 175 35 35 16 sky130_fd_sc_hd__dfrtp_1
* cell instance $458 m0 *1 37.72,35.36
X$458 16 21 176 25 192 35 35 16 sky130_fd_sc_hd__dfrtp_1
* cell instance $459 m0 *1 46.92,35.36
X$459 35 154 165 126 186 16 35 16 sky130_fd_sc_hd__nand3b_1
* cell instance $460 m0 *1 49.68,35.36
X$460 35 181 103 186 35 173 16 16 sky130_fd_sc_hd__a21oi_2
* cell instance $463 m0 *1 55.2,35.36
X$463 35 165 126 177 35 16 16 sky130_fd_sc_hd__nand2_1
* cell instance $466 m0 *1 58.88,35.36
X$466 35 166 98 35 16 16 sky130_fd_sc_hd__clkinv_2
* cell instance $469 m0 *1 66.24,35.36
X$469 35 176 172 178 35 16 16 sky130_fd_sc_hd__nand2_1
* cell instance $470 m0 *1 67.62,35.36
X$470 35 177 148 178 35 179 16 16 sky130_fd_sc_hd__o21ai_0
* cell instance $471 m0 *1 69.46,35.36
X$471 16 21 182 25 179 35 35 16 sky130_fd_sc_hd__dfrtn_1
* cell instance $472 m0 *1 78.66,35.36
X$472 35 182 191 16 35 16 sky130_fd_sc_hd__clkbuf_1
* cell instance $475 r0 *1 5.98,35.36
X$475 35 187 194 16 35 16 sky130_fd_sc_hd__clkbuf_1
* cell instance $476 r0 *1 7.36,35.36
X$476 35 193 199 16 35 16 sky130_fd_sc_hd__clkbuf_1
* cell instance $479 r0 *1 11.5,35.36
X$479 16 201 200 199 90 35 35 16 sky130_fd_sc_hd__mux2i_1
* cell instance $486 r0 *1 21.16,35.36
X$486 16 21 187 25 195 35 35 16 sky130_fd_sc_hd__dfrtn_1
* cell instance $487 r0 *1 30.36,35.36
X$487 16 195 197 187 28 35 35 16 sky130_fd_sc_hd__mux2_1
* cell instance $489 r0 *1 38.18,35.36
X$489 35 30 188 202 35 192 16 16 sky130_fd_sc_hd__o21ai_0
* cell instance $496 r0 *1 43.24,35.36
X$496 16 188 176 197 172 35 35 16 sky130_fd_sc_hd__mux2i_1
* cell instance $498 r0 *1 47.38,35.36
X$498 16 98 196 165 126 154 35 35 16 sky130_fd_sc_hd__nor4_4
* cell instance $500 r0 *1 55.66,35.36
X$500 35 203 35 16 154 16 sky130_fd_sc_hd__buf_4
* cell instance $502 r0 *1 58.88,35.36
X$502 16 166 189 154 177 35 35 16 sky130_fd_sc_hd__nor3_4
* cell instance $504 r0 *1 65.32,35.36
X$504 16 209 176 190 198 35 35 16 sky130_fd_sc_hd__mux2_1
* cell instance $510 r0 *1 70.84,35.36
X$510 16 21 205 25 208 35 35 16 sky130_fd_sc_hd__dfrtn_1
* cell instance $511 m0 *1 1.38,40.8
X$511 35 207 204 16 35 16 sky130_fd_sc_hd__clkbuf_1
* cell instance $513 m0 *1 6.44,40.8
X$513 16 216 200 207 196 35 35 16 sky130_fd_sc_hd__mux2_1
* cell instance $521 m0 *1 30.36,40.8
X$521 16 196 28 35 35 16 sky130_fd_sc_hd__buf_6
* cell instance $523 m0 *1 34.96,40.8
X$523 16 189 30 35 35 16 sky130_fd_sc_hd__buf_6
* cell instance $527 m0 *1 47.38,40.8
X$527 16 21 203 25 210 35 35 16 sky130_fd_sc_hd__dfrtp_1
* cell instance $533 m0 *1 63.94,40.8
X$533 16 21 190 25 209 35 35 16 sky130_fd_sc_hd__dfrtn_1
* cell instance $534 m0 *1 73.14,40.8
X$534 16 208 160 205 198 35 35 16 sky130_fd_sc_hd__mux2_1
* cell instance $535 m0 *1 77.28,40.8
X$535 35 190 206 16 35 16 sky130_fd_sc_hd__clkbuf_1
* cell instance $536 m0 *1 78.66,40.8
X$536 35 205 215 16 35 16 sky130_fd_sc_hd__clkbuf_1
* cell instance $537 r0 *1 1.38,40.8
X$537 35 211 218 16 35 16 sky130_fd_sc_hd__clkbuf_1
* cell instance $538 r0 *1 2.76,40.8
X$538 16 21 207 25 216 35 35 16 sky130_fd_sc_hd__dfrtn_1
* cell instance $540 r0 *1 12.42,40.8
X$540 35 230 212 225 16 35 219 16 sky130_fd_sc_hd__a21oi_1
* cell instance $545 r0 *1 15.64,40.8
X$545 16 21 200 25 219 35 35 16 sky130_fd_sc_hd__dfrtp_1
* cell instance $549 r0 *1 30.82,40.8
X$549 35 173 16 212 35 16 sky130_fd_sc_hd__buf_2
* cell instance $551 r0 *1 33.12,40.8
X$551 16 189 90 35 35 16 sky130_fd_sc_hd__buf_6
* cell instance $559 r0 *1 47.84,40.8
X$559 35 173 16 221 35 16 sky130_fd_sc_hd__buf_2
* cell instance $560 r0 *1 49.68,40.8
X$560 35 173 16 238 35 16 sky130_fd_sc_hd__buf_2
* cell instance $565 r0 *1 60.26,40.8
X$565 35 213 221 217 16 35 16 sky130_fd_sc_hd__nor2_1
* cell instance $566 r0 *1 61.64,40.8
X$566 35 217 238 222 16 35 233 16 sky130_fd_sc_hd__a21oi_1
* cell instance $568 r0 *1 63.94,40.8
X$568 16 222 160 226 189 35 35 16 sky130_fd_sc_hd__mux2i_1
* cell instance $576 r0 *1 72.22,40.8
X$576 16 232 213 214 198 35 35 16 sky130_fd_sc_hd__mux2_1
* cell instance $579 r0 *1 78.66,40.8
X$579 35 214 223 16 35 16 sky130_fd_sc_hd__clkbuf_1
* cell instance $583 m0 *1 1.38,46.24
X$583 16 21 211 25 228 35 35 16 sky130_fd_sc_hd__dfrtn_1
* cell instance $584 m0 *1 10.58,46.24
X$584 16 228 229 211 196 35 35 16 sky130_fd_sc_hd__mux2_1
* cell instance $585 m0 *1 14.72,46.24
X$585 35 200 220 230 16 35 16 sky130_fd_sc_hd__nor2_1
* cell instance $587 m0 *1 17.02,46.24
X$587 35 229 220 239 16 35 16 sky130_fd_sc_hd__nor2_1
* cell instance $588 m0 *1 18.4,46.24
X$588 16 21 229 25 231 35 35 16 sky130_fd_sc_hd__dfrtp_1
* cell instance $593 m0 *1 30.36,46.24
X$593 35 173 16 220 35 16 sky130_fd_sc_hd__buf_2
* cell instance $596 m0 *1 36.34,46.24
X$596 16 21 234 25 240 35 35 16 sky130_fd_sc_hd__dfrtp_1
* cell instance $599 m0 *1 49.68,46.24
X$599 16 196 198 35 35 16 sky130_fd_sc_hd__buf_6
* cell instance $604 m0 *1 57.5,46.24
X$604 16 21 213 25 233 35 35 16 sky130_fd_sc_hd__dfrtp_1
* cell instance $607 m0 *1 69.46,46.24
X$607 35 224 226 16 35 16 sky130_fd_sc_hd__clkbuf_1
* cell instance $608 m0 *1 70.84,46.24
X$608 16 21 214 25 232 35 35 16 sky130_fd_sc_hd__dfrtn_1
* cell instance $609 r0 *1 1.38,46.24
X$609 35 241 242 16 35 16 sky130_fd_sc_hd__clkbuf_1
* cell instance $612 r0 *1 5.52,46.24
X$612 35 227 235 16 35 16 sky130_fd_sc_hd__clkbuf_1
* cell instance $613 r0 *1 6.9,46.24
X$613 16 251 243 252 196 35 35 16 sky130_fd_sc_hd__mux2_1
* cell instance $615 r0 *1 11.5,46.24
X$615 16 225 229 235 90 35 35 16 sky130_fd_sc_hd__mux2i_1
* cell instance $620 r0 *1 17.94,46.24
X$620 35 239 212 244 16 35 231 16 sky130_fd_sc_hd__a21oi_1
* cell instance $625 r0 *1 28.52,46.24
X$625 16 21 197 25 256 35 35 16 sky130_fd_sc_hd__dfrtp_1
* cell instance $626 r0 *1 37.72,46.24
X$626 35 30 236 258 35 240 16 16 sky130_fd_sc_hd__o21ai_0
* cell instance $627 r0 *1 39.56,46.24
X$627 35 382 30 258 35 16 16 sky130_fd_sc_hd__nand2_1
* cell instance $632 r0 *1 43.7,46.24
X$632 16 236 234 237 172 35 35 16 sky130_fd_sc_hd__mux2i_1
* cell instance $633 r0 *1 47.38,46.24
X$633 35 237 221 260 16 35 16 sky130_fd_sc_hd__nor2_1
* cell instance $636 r0 *1 51.06,46.24
X$636 16 21 246 25 259 35 35 16 sky130_fd_sc_hd__dfrtn_1
* cell instance $640 r0 *1 63.48,46.24
X$640 35 255 238 247 16 35 257 16 sky130_fd_sc_hd__a21oi_1
* cell instance $642 r0 *1 65.78,46.24
X$642 16 247 213 254 189 35 35 16 sky130_fd_sc_hd__mux2i_1
* cell instance $647 r0 *1 72.68,46.24
X$647 35 249 254 16 35 16 sky130_fd_sc_hd__clkbuf_1
* cell instance $657 m0 *1 1.38,51.68
X$657 16 21 252 25 251 35 35 16 sky130_fd_sc_hd__dfrtn_1
* cell instance $658 m0 *1 10.58,51.68
X$658 16 244 243 242 90 35 35 16 sky130_fd_sc_hd__mux2i_1
* cell instance $659 m0 *1 14.26,51.68
X$659 16 21 243 25 263 35 35 16 sky130_fd_sc_hd__dfrtp_1
* cell instance $663 m0 *1 29.44,51.68
X$663 35 197 220 267 16 35 16 sky130_fd_sc_hd__nor2_1
* cell instance $664 m0 *1 30.82,51.68
X$664 35 267 212 299 16 35 256 16 sky130_fd_sc_hd__a21oi_1
* cell instance $668 m0 *1 38.64,51.68
X$668 16 21 237 25 245 35 35 16 sky130_fd_sc_hd__dfrtp_1
* cell instance $669 m0 *1 47.84,51.68
X$669 35 260 238 268 16 35 245 16 sky130_fd_sc_hd__a21oi_1
* cell instance $672 m0 *1 51.98,51.68
X$672 16 259 237 246 198 35 35 16 sky130_fd_sc_hd__mux2_1
* cell instance $676 m0 *1 60.72,51.68
X$676 16 21 253 25 257 35 35 16 sky130_fd_sc_hd__dfrtp_1
* cell instance $679 m0 *1 72.22,51.68
X$679 16 266 253 248 198 35 35 16 sky130_fd_sc_hd__mux2_1
* cell instance $682 m0 *1 78.66,51.68
X$682 35 248 250 16 35 16 sky130_fd_sc_hd__clkbuf_1
* cell instance $683 r0 *1 1.38,51.68
X$683 35 275 273 16 35 16 sky130_fd_sc_hd__clkbuf_1
* cell instance $685 r0 *1 3.22,51.68
X$685 35 252 261 16 35 16 sky130_fd_sc_hd__clkbuf_1
* cell instance $686 r0 *1 4.6,51.68
X$686 16 21 275 25 262 35 35 16 sky130_fd_sc_hd__dfrtn_1
* cell instance $687 r0 *1 13.8,51.68
X$687 35 243 220 265 16 35 16 sky130_fd_sc_hd__nor2_1
* cell instance $690 r0 *1 15.64,51.68
X$690 35 265 212 271 16 35 263 16 sky130_fd_sc_hd__a21oi_1
* cell instance $696 r0 *1 34.04,51.68
X$696 16 189 269 35 35 16 sky130_fd_sc_hd__buf_6
* cell instance $698 r0 *1 38.64,51.68
X$698 16 196 272 35 35 16 sky130_fd_sc_hd__buf_6
* cell instance $702 r0 *1 46.92,51.68
X$702 16 268 78 282 269 35 35 16 sky130_fd_sc_hd__mux2i_1
* cell instance $708 r0 *1 63.94,51.68
X$708 35 253 221 255 16 35 16 sky130_fd_sc_hd__nor2_1
* cell instance $710 r0 *1 65.78,51.68
X$710 16 279 253 278 189 35 35 16 sky130_fd_sc_hd__mux2i_1
* cell instance $714 r0 *1 70.84,51.68
X$714 16 21 248 25 266 35 35 16 sky130_fd_sc_hd__dfrtn_1
* cell instance $723 m0 *1 4.14,57.12
X$723 35 274 294 16 35 16 sky130_fd_sc_hd__clkbuf_1
* cell instance $724 m0 *1 5.52,57.12
X$724 16 262 284 275 272 35 35 16 sky130_fd_sc_hd__mux2_1
* cell instance $726 m0 *1 10.12,57.12
X$726 16 21 284 25 288 35 35 16 sky130_fd_sc_hd__dfrtp_1
* cell instance $728 m0 *1 19.78,57.12
X$728 16 21 290 25 296 35 35 16 sky130_fd_sc_hd__dfrtn_1
* cell instance $734 m0 *1 36.34,57.12
X$734 16 21 300 25 281 35 35 16 sky130_fd_sc_hd__dfrtn_1
* cell instance $735 m0 *1 45.54,57.12
X$735 16 21 285 25 283 35 35 16 sky130_fd_sc_hd__dfrtp_1
* cell instance $740 m0 *1 62.56,57.12
X$740 35 289 238 279 16 35 280 16 sky130_fd_sc_hd__a21oi_1
* cell instance $741 m0 *1 64.4,57.12
X$741 35 277 221 289 16 35 16 sky130_fd_sc_hd__nor2_1
* cell instance $743 m0 *1 66.24,57.12
X$743 16 276 277 301 189 35 35 16 sky130_fd_sc_hd__mux2i_1
* cell instance $746 m0 *1 71.3,57.12
X$746 35 246 264 16 35 16 sky130_fd_sc_hd__clkbuf_1
* cell instance $747 m0 *1 72.68,57.12
X$747 16 297 277 286 198 35 35 16 sky130_fd_sc_hd__mux2_1
* cell instance $749 m0 *1 78.66,57.12
X$749 35 270 278 16 35 16 sky130_fd_sc_hd__clkbuf_1
* cell instance $754 r0 *1 11.04,57.12
X$754 35 295 212 307 16 35 288 16 sky130_fd_sc_hd__a21oi_1
* cell instance $755 r0 *1 12.88,57.12
X$755 35 284 220 295 16 35 16 sky130_fd_sc_hd__nor2_1
* cell instance $761 r0 *1 17.02,57.12
X$761 16 271 284 294 90 35 35 16 sky130_fd_sc_hd__mux2i_1
* cell instance $765 r0 *1 27.14,57.12
X$765 16 296 285 290 272 35 35 16 sky130_fd_sc_hd__mux2_1
* cell instance $766 r0 *1 31.28,57.12
X$766 16 299 285 298 90 35 35 16 sky130_fd_sc_hd__mux2i_1
* cell instance $772 r0 *1 43.24,57.12
X$772 16 281 234 300 272 35 35 16 sky130_fd_sc_hd__mux2_1
* cell instance $774 r0 *1 47.84,57.12
X$774 35 285 221 302 16 35 16 sky130_fd_sc_hd__nor2_1
* cell instance $776 r0 *1 50.14,57.12
X$776 35 302 238 303 16 35 283 16 sky130_fd_sc_hd__a21oi_1
* cell instance $780 r0 *1 57.96,57.12
X$780 16 21 277 25 280 35 35 16 sky130_fd_sc_hd__dfrtp_1
* cell instance $783 r0 *1 68.54,57.12
X$783 35 287 301 16 35 16 sky130_fd_sc_hd__clkbuf_1
* cell instance $787 r0 *1 70.84,57.12
X$787 16 21 286 25 297 35 35 16 sky130_fd_sc_hd__dfrtn_1
* cell instance $797 m0 *1 7.82,62.56
X$797 35 304 291 16 35 16 sky130_fd_sc_hd__clkbuf_1
* cell instance $800 m0 *1 10.58,62.56
X$800 16 307 308 291 90 35 35 16 sky130_fd_sc_hd__mux2i_1
* cell instance $803 m0 *1 17.02,62.56
X$803 16 21 310 25 309 35 35 16 sky130_fd_sc_hd__dfrtp_1
* cell instance $814 m0 *1 51.98,62.56
X$814 16 303 311 381 269 35 35 16 sky130_fd_sc_hd__mux2i_1
* cell instance $819 m0 *1 59.34,62.56
X$819 35 305 221 306 16 35 16 sky130_fd_sc_hd__nor2_1
* cell instance $820 m0 *1 60.72,62.56
X$820 35 306 238 276 16 35 292 16 sky130_fd_sc_hd__a21oi_1
* cell instance $821 m0 *1 62.56,62.56
X$821 16 21 305 25 292 35 35 16 sky130_fd_sc_hd__dfrtp_1
* cell instance $826 m0 *1 78.66,62.56
X$826 35 286 293 16 35 16 sky130_fd_sc_hd__clkbuf_1
* cell instance $827 r0 *1 1.38,62.56
X$827 16 21 308 25 326 35 35 16 sky130_fd_sc_hd__dfrtp_1
* cell instance $828 r0 *1 10.58,62.56
X$828 16 334 313 312 90 35 35 16 sky130_fd_sc_hd__mux2i_1
* cell instance $833 r0 *1 19.32,62.56
X$833 35 313 220 336 16 35 16 sky130_fd_sc_hd__nor2_1
* cell instance $835 r0 *1 21.16,62.56
X$835 16 21 320 25 316 35 35 16 sky130_fd_sc_hd__dfrtp_1
* cell instance $836 r0 *1 30.36,62.56
X$836 16 21 321 25 317 35 35 16 sky130_fd_sc_hd__dfrtp_1
* cell instance $843 r0 *1 43.7,62.56
X$843 16 315 234 369 269 35 35 16 sky130_fd_sc_hd__mux2i_1
* cell instance $844 r0 *1 47.38,62.56
X$844 16 21 311 25 314 35 35 16 sky130_fd_sc_hd__dfrtp_1
* cell instance $847 r0 *1 61.18,62.56
X$847 16 21 323 25 355 35 35 16 sky130_fd_sc_hd__dfrtp_1