* CDL Netlist generated by OpenROAD

*.BUSDELIMITER [

.SUBCKT register_file clk read_addr1[0] read_addr1[1] read_addr1[2]
+ read_addr1[3] read_addr1[4] read_addr2[0] read_addr2[1] read_addr2[2]
+ read_addr2[3] read_addr2[4] read_data1[0] read_data1[10] read_data1[11]
+ read_data1[12] read_data1[13] read_data1[14] read_data1[15]
+ read_data1[16] read_data1[17] read_data1[18] read_data1[19]
+ read_data1[1] read_data1[20] read_data1[21] read_data1[22]
+ read_data1[23] read_data1[24] read_data1[25] read_data1[26]
+ read_data1[27] read_data1[28] read_data1[29] read_data1[2]
+ read_data1[30] read_data1[31] read_data1[3] read_data1[4]
+ read_data1[5] read_data1[6] read_data1[7] read_data1[8] read_data1[9]
+ read_data2[0] read_data2[10] read_data2[11] read_data2[12]
+ read_data2[13] read_data2[14] read_data2[15] read_data2[16]
+ read_data2[17] read_data2[18] read_data2[19] read_data2[1]
+ read_data2[20] read_data2[21] read_data2[22] read_data2[23]
+ read_data2[24] read_data2[25] read_data2[26] read_data2[27]
+ read_data2[28] read_data2[29] read_data2[2] read_data2[30]
+ read_data2[31] read_data2[3] read_data2[4] read_data2[5] read_data2[6]
+ read_data2[7] read_data2[8] read_data2[9] read_en1 read_en2
+ rst_n write_addr[0] write_addr[1] write_addr[2] write_addr[3]
+ write_addr[4] write_data[0] write_data[10] write_data[11]
+ write_data[12] write_data[13] write_data[14] write_data[15]
+ write_data[16] write_data[17] write_data[18] write_data[19]
+ write_data[1] write_data[20] write_data[21] write_data[22]
+ write_data[23] write_data[24] write_data[25] write_data[26]
+ write_data[27] write_data[28] write_data[29] write_data[2]
+ write_data[30] write_data[31] write_data[3] write_data[4]
+ write_data[5] write_data[6] write_data[7] write_data[8] write_data[9]
+ write_en
X_4178_ net39 _1088_ VDD VSS gf180mcu_fd_sc_mcu9t5v0__buf_4
X_4179_ net9 _1089_ VDD VSS gf180mcu_fd_sc_mcu9t5v0__clkbuf_12
X_4180_ _1089_ _1090_ VDD VSS gf180mcu_fd_sc_mcu9t5v0__clkbuf_12
X_4181_ _1090_ _1091_ VDD VSS gf180mcu_fd_sc_mcu9t5v0__buf_4
X_4182_ _1091_ registers\[29\]\[31\] _1092_ VDD VSS gf180mcu_fd_sc_mcu9t5v0__and2_2
X_4183_ net13 net14 net12 _1093_ VDD VSS gf180mcu_fd_sc_mcu9t5v0__and3_2
X_4184_ net9 net10 net47 _1094_ VDD VSS gf180mcu_fd_sc_mcu9t5v0__nand3_2
X_4185_ net11 _1094_ _1095_ VDD VSS gf180mcu_fd_sc_mcu9t5v0__nor2_4
X_4186_ _1093_ _1095_ _1096_ VDD VSS gf180mcu_fd_sc_mcu9t5v0__nand2_4
X_4187_ _1096_ _1097_ VDD VSS gf180mcu_fd_sc_mcu9t5v0__buf_8
X_4188_ _1088_ _1092_ _1097_ _0001_ VDD VSS gf180mcu_fd_sc_mcu9t5v0__mux2_2
X_4189_ net40 _1098_ VDD VSS gf180mcu_fd_sc_mcu9t5v0__clkbuf_4
X_4190_ _1091_ registers\[29\]\[3\] _1099_ VDD VSS gf180mcu_fd_sc_mcu9t5v0__and2_2
X_4191_ _1098_ _1099_ _1097_ _0002_ VDD VSS gf180mcu_fd_sc_mcu9t5v0__mux2_2
X_4192_ net41 _1100_ VDD VSS gf180mcu_fd_sc_mcu9t5v0__buf_4
X_4193_ _1091_ registers\[29\]\[4\] _1101_ VDD VSS gf180mcu_fd_sc_mcu9t5v0__and2_2
X_4194_ _1100_ _1101_ _1097_ _0003_ VDD VSS gf180mcu_fd_sc_mcu9t5v0__mux2_2
X_4195_ net42 _1102_ VDD VSS gf180mcu_fd_sc_mcu9t5v0__buf_4
X_4196_ _1091_ registers\[29\]\[5\] _1103_ VDD VSS gf180mcu_fd_sc_mcu9t5v0__and2_2
X_4197_ _1102_ _1103_ _1097_ _0004_ VDD VSS gf180mcu_fd_sc_mcu9t5v0__mux2_2
X_4198_ net43 _1104_ VDD VSS gf180mcu_fd_sc_mcu9t5v0__buf_4
X_4199_ _1091_ registers\[29\]\[6\] _1105_ VDD VSS gf180mcu_fd_sc_mcu9t5v0__and2_2
X_4200_ _1104_ _1105_ _1097_ _0005_ VDD VSS gf180mcu_fd_sc_mcu9t5v0__mux2_2
X_4201_ net44 _1106_ VDD VSS gf180mcu_fd_sc_mcu9t5v0__buf_4
X_4202_ _1091_ registers\[29\]\[7\] _1107_ VDD VSS gf180mcu_fd_sc_mcu9t5v0__and2_2
X_4203_ _1106_ _1107_ _1097_ _0006_ VDD VSS gf180mcu_fd_sc_mcu9t5v0__mux2_2
X_4204_ net45 _1108_ VDD VSS gf180mcu_fd_sc_mcu9t5v0__buf_4
X_4205_ _1091_ registers\[29\]\[8\] _1109_ VDD VSS gf180mcu_fd_sc_mcu9t5v0__and2_2
X_4206_ _1108_ _1109_ _1097_ _0007_ VDD VSS gf180mcu_fd_sc_mcu9t5v0__mux2_2
X_4207_ net46 _1110_ VDD VSS gf180mcu_fd_sc_mcu9t5v0__buf_4
X_4208_ _1091_ registers\[29\]\[9\] _1111_ VDD VSS gf180mcu_fd_sc_mcu9t5v0__and2_2
X_4209_ _1110_ _1111_ _1097_ _0008_ VDD VSS gf180mcu_fd_sc_mcu9t5v0__mux2_2
X_4210_ _1089_ _1112_ VDD VSS gf180mcu_fd_sc_mcu9t5v0__buf_8
X_4211_ _1112_ _1113_ VDD VSS gf180mcu_fd_sc_mcu9t5v0__buf_4
X_4212_ _1113_ registers\[2\]\[0\] _1114_ VDD VSS gf180mcu_fd_sc_mcu9t5v0__and2_2
X_4213_ net15 _1115_ VDD VSS gf180mcu_fd_sc_mcu9t5v0__clkbuf_4
X_4214_ net13 net14 net12 _1116_ VDD VSS gf180mcu_fd_sc_mcu9t5v0__nor3_4
X_4215_ net9 net47 _1117_ VDD VSS gf180mcu_fd_sc_mcu9t5v0__nand2_2
X_4216_ net10 _1117_ _1118_ VDD VSS gf180mcu_fd_sc_mcu9t5v0__nor2_2
X_4217_ net11 _1118_ _1119_ VDD VSS gf180mcu_fd_sc_mcu9t5v0__and2_4
X_4218_ _1116_ _1119_ _1120_ VDD VSS gf180mcu_fd_sc_mcu9t5v0__and2_4
X_4219_ _1120_ _1121_ VDD VSS gf180mcu_fd_sc_mcu9t5v0__clkbuf_8
X_4220_ _1114_ _1115_ _1121_ _0009_ VDD VSS gf180mcu_fd_sc_mcu9t5v0__mux2_2
X_4221_ _1113_ registers\[2\]\[10\] _1122_ VDD VSS gf180mcu_fd_sc_mcu9t5v0__and2_2
X_4222_ net16 _1123_ VDD VSS gf180mcu_fd_sc_mcu9t5v0__buf_4
X_4223_ _1122_ _1123_ _1121_ _0010_ VDD VSS gf180mcu_fd_sc_mcu9t5v0__mux2_2
X_4224_ _1113_ registers\[2\]\[11\] _1124_ VDD VSS gf180mcu_fd_sc_mcu9t5v0__and2_2
X_4225_ net17 _1125_ VDD VSS gf180mcu_fd_sc_mcu9t5v0__clkbuf_4
X_4226_ _1124_ _1125_ _1121_ _0011_ VDD VSS gf180mcu_fd_sc_mcu9t5v0__mux2_2
X_4227_ _1113_ registers\[2\]\[12\] _1126_ VDD VSS gf180mcu_fd_sc_mcu9t5v0__and2_2
X_4228_ net18 _1127_ VDD VSS gf180mcu_fd_sc_mcu9t5v0__clkbuf_4
X_4229_ _1126_ _1127_ _1121_ _0012_ VDD VSS gf180mcu_fd_sc_mcu9t5v0__mux2_2
X_4230_ _1113_ registers\[2\]\[13\] _1128_ VDD VSS gf180mcu_fd_sc_mcu9t5v0__and2_2
X_4231_ net19 _1129_ VDD VSS gf180mcu_fd_sc_mcu9t5v0__clkbuf_4
X_4232_ _1128_ _1129_ _1121_ _0013_ VDD VSS gf180mcu_fd_sc_mcu9t5v0__mux2_2
X_4233_ _1113_ registers\[2\]\[14\] _1130_ VDD VSS gf180mcu_fd_sc_mcu9t5v0__and2_2
X_4234_ net20 _1131_ VDD VSS gf180mcu_fd_sc_mcu9t5v0__clkbuf_4
X_4235_ _1130_ _1131_ _1121_ _0014_ VDD VSS gf180mcu_fd_sc_mcu9t5v0__mux2_2
X_4236_ _1113_ registers\[2\]\[15\] _1132_ VDD VSS gf180mcu_fd_sc_mcu9t5v0__and2_2
X_4237_ net21 _1133_ VDD VSS gf180mcu_fd_sc_mcu9t5v0__buf_4
X_4238_ _1132_ _1133_ _1121_ _0015_ VDD VSS gf180mcu_fd_sc_mcu9t5v0__mux2_2
X_4239_ _1113_ registers\[2\]\[16\] _1134_ VDD VSS gf180mcu_fd_sc_mcu9t5v0__and2_2
X_4240_ net22 _1135_ VDD VSS gf180mcu_fd_sc_mcu9t5v0__buf_4
X_4241_ _1134_ _1135_ _1121_ _0016_ VDD VSS gf180mcu_fd_sc_mcu9t5v0__mux2_2
X_4242_ _1113_ registers\[2\]\[17\] _1136_ VDD VSS gf180mcu_fd_sc_mcu9t5v0__and2_2
X_4243_ net23 _1137_ VDD VSS gf180mcu_fd_sc_mcu9t5v0__buf_4
X_4244_ _1136_ _1137_ _1121_ _0017_ VDD VSS gf180mcu_fd_sc_mcu9t5v0__mux2_2
X_4245_ _1113_ registers\[2\]\[18\] _1138_ VDD VSS gf180mcu_fd_sc_mcu9t5v0__and2_2
X_4246_ net24 _1139_ VDD VSS gf180mcu_fd_sc_mcu9t5v0__clkbuf_4
X_4247_ _1138_ _1139_ _1121_ _0018_ VDD VSS gf180mcu_fd_sc_mcu9t5v0__mux2_2
X_4248_ _1112_ _1140_ VDD VSS gf180mcu_fd_sc_mcu9t5v0__clkbuf_8
X_4249_ _1140_ registers\[2\]\[19\] _1141_ VDD VSS gf180mcu_fd_sc_mcu9t5v0__and2_2
X_4250_ net25 _1142_ VDD VSS gf180mcu_fd_sc_mcu9t5v0__buf_4
X_4251_ _1120_ _1143_ VDD VSS gf180mcu_fd_sc_mcu9t5v0__buf_8
X_4252_ _1141_ _1142_ _1143_ _0019_ VDD VSS gf180mcu_fd_sc_mcu9t5v0__mux2_2
X_4253_ _1140_ registers\[2\]\[1\] _1144_ VDD VSS gf180mcu_fd_sc_mcu9t5v0__and2_2
X_4254_ net26 _1145_ VDD VSS gf180mcu_fd_sc_mcu9t5v0__buf_4
X_4255_ _1144_ _1145_ _1143_ _0020_ VDD VSS gf180mcu_fd_sc_mcu9t5v0__mux2_2
X_4256_ _1140_ registers\[2\]\[20\] _1146_ VDD VSS gf180mcu_fd_sc_mcu9t5v0__and2_2
X_4257_ net27 _1147_ VDD VSS gf180mcu_fd_sc_mcu9t5v0__clkbuf_4
X_4258_ _1146_ _1147_ _1143_ _0021_ VDD VSS gf180mcu_fd_sc_mcu9t5v0__mux2_2
X_4259_ _1140_ registers\[2\]\[21\] _1148_ VDD VSS gf180mcu_fd_sc_mcu9t5v0__and2_2
X_4260_ net28 _1149_ VDD VSS gf180mcu_fd_sc_mcu9t5v0__buf_4
X_4261_ _1148_ _1149_ _1143_ _0022_ VDD VSS gf180mcu_fd_sc_mcu9t5v0__mux2_2
X_4262_ _1140_ registers\[2\]\[22\] _1150_ VDD VSS gf180mcu_fd_sc_mcu9t5v0__and2_2
X_4263_ net29 _1151_ VDD VSS gf180mcu_fd_sc_mcu9t5v0__buf_4
X_4264_ _1150_ _1151_ _1143_ _0023_ VDD VSS gf180mcu_fd_sc_mcu9t5v0__mux2_2
X_4265_ _1140_ registers\[2\]\[23\] _1152_ VDD VSS gf180mcu_fd_sc_mcu9t5v0__and2_2
X_4266_ net30 _1153_ VDD VSS gf180mcu_fd_sc_mcu9t5v0__buf_4
X_4267_ _1152_ _1153_ _1143_ _0024_ VDD VSS gf180mcu_fd_sc_mcu9t5v0__mux2_2
X_4268_ _1140_ registers\[2\]\[24\] _1154_ VDD VSS gf180mcu_fd_sc_mcu9t5v0__and2_2
X_4269_ net31 _1155_ VDD VSS gf180mcu_fd_sc_mcu9t5v0__clkbuf_4
X_4270_ _1154_ _1155_ _1143_ _0025_ VDD VSS gf180mcu_fd_sc_mcu9t5v0__mux2_2
X_4271_ _1140_ registers\[2\]\[25\] _1156_ VDD VSS gf180mcu_fd_sc_mcu9t5v0__and2_2
X_4272_ net32 _1157_ VDD VSS gf180mcu_fd_sc_mcu9t5v0__buf_4
X_4273_ _1156_ _1157_ _1143_ _0026_ VDD VSS gf180mcu_fd_sc_mcu9t5v0__mux2_2
X_4274_ _1140_ registers\[2\]\[26\] _1158_ VDD VSS gf180mcu_fd_sc_mcu9t5v0__and2_2
X_4275_ net33 _1159_ VDD VSS gf180mcu_fd_sc_mcu9t5v0__buf_4
X_4276_ _1158_ _1159_ _1143_ _0027_ VDD VSS gf180mcu_fd_sc_mcu9t5v0__mux2_2
X_4277_ _1140_ registers\[2\]\[27\] _1160_ VDD VSS gf180mcu_fd_sc_mcu9t5v0__and2_2
X_4278_ net34 _1161_ VDD VSS gf180mcu_fd_sc_mcu9t5v0__clkbuf_4
X_4279_ _1160_ _1161_ _1143_ _0028_ VDD VSS gf180mcu_fd_sc_mcu9t5v0__mux2_2
X_4280_ _1112_ _1162_ VDD VSS gf180mcu_fd_sc_mcu9t5v0__clkbuf_4
X_4281_ _1162_ registers\[2\]\[28\] _1163_ VDD VSS gf180mcu_fd_sc_mcu9t5v0__and2_2
X_4282_ net35 _1164_ VDD VSS gf180mcu_fd_sc_mcu9t5v0__buf_4
X_4283_ _1120_ _1165_ VDD VSS gf180mcu_fd_sc_mcu9t5v0__clkbuf_8
X_4284_ _1163_ _1164_ _1165_ _0029_ VDD VSS gf180mcu_fd_sc_mcu9t5v0__mux2_2
X_4285_ _1162_ registers\[2\]\[29\] _1166_ VDD VSS gf180mcu_fd_sc_mcu9t5v0__and2_2
X_4286_ net36 _1167_ VDD VSS gf180mcu_fd_sc_mcu9t5v0__buf_4
X_4287_ _1166_ _1167_ _1165_ _0030_ VDD VSS gf180mcu_fd_sc_mcu9t5v0__mux2_2
X_4288_ _1162_ registers\[2\]\[2\] _1168_ VDD VSS gf180mcu_fd_sc_mcu9t5v0__and2_2
X_4289_ net37 _1169_ VDD VSS gf180mcu_fd_sc_mcu9t5v0__buf_4
X_4290_ _1168_ _1169_ _1165_ _0031_ VDD VSS gf180mcu_fd_sc_mcu9t5v0__mux2_2
X_4291_ _1162_ registers\[2\]\[30\] _1170_ VDD VSS gf180mcu_fd_sc_mcu9t5v0__and2_2
X_4292_ net38 _1171_ VDD VSS gf180mcu_fd_sc_mcu9t5v0__buf_4
X_4293_ _1170_ _1171_ _1165_ _0032_ VDD VSS gf180mcu_fd_sc_mcu9t5v0__mux2_2
X_4294_ _1162_ registers\[2\]\[31\] _1172_ VDD VSS gf180mcu_fd_sc_mcu9t5v0__and2_2
X_4295_ net39 _1173_ VDD VSS gf180mcu_fd_sc_mcu9t5v0__clkbuf_4
X_4296_ _1172_ _1173_ _1165_ _0033_ VDD VSS gf180mcu_fd_sc_mcu9t5v0__mux2_2
X_4297_ _1162_ registers\[2\]\[3\] _1174_ VDD VSS gf180mcu_fd_sc_mcu9t5v0__and2_2
X_4298_ net40 _1175_ VDD VSS gf180mcu_fd_sc_mcu9t5v0__clkbuf_4
X_4299_ _1174_ _1175_ _1165_ _0034_ VDD VSS gf180mcu_fd_sc_mcu9t5v0__mux2_2
X_4300_ _1162_ registers\[2\]\[4\] _1176_ VDD VSS gf180mcu_fd_sc_mcu9t5v0__and2_2
X_4301_ net41 _1177_ VDD VSS gf180mcu_fd_sc_mcu9t5v0__clkbuf_4
X_4302_ _1176_ _1177_ _1165_ _0035_ VDD VSS gf180mcu_fd_sc_mcu9t5v0__mux2_2
X_4303_ _1162_ registers\[2\]\[5\] _1178_ VDD VSS gf180mcu_fd_sc_mcu9t5v0__and2_2
X_4304_ net42 _1179_ VDD VSS gf180mcu_fd_sc_mcu9t5v0__clkbuf_4
X_4305_ _1178_ _1179_ _1165_ _0036_ VDD VSS gf180mcu_fd_sc_mcu9t5v0__mux2_2
X_4306_ _1162_ registers\[2\]\[6\] _1180_ VDD VSS gf180mcu_fd_sc_mcu9t5v0__and2_2
X_4307_ net43 _1181_ VDD VSS gf180mcu_fd_sc_mcu9t5v0__buf_4
X_4308_ _1180_ _1181_ _1165_ _0037_ VDD VSS gf180mcu_fd_sc_mcu9t5v0__mux2_2
X_4309_ _1162_ registers\[2\]\[7\] _1182_ VDD VSS gf180mcu_fd_sc_mcu9t5v0__and2_2
X_4310_ net44 _1183_ VDD VSS gf180mcu_fd_sc_mcu9t5v0__buf_4
X_4311_ _1182_ _1183_ _1165_ _0038_ VDD VSS gf180mcu_fd_sc_mcu9t5v0__mux2_2
X_4312_ _1112_ _1184_ VDD VSS gf180mcu_fd_sc_mcu9t5v0__buf_4
X_4313_ _1184_ registers\[2\]\[8\] _1185_ VDD VSS gf180mcu_fd_sc_mcu9t5v0__and2_2
X_4314_ net45 _1186_ VDD VSS gf180mcu_fd_sc_mcu9t5v0__buf_4
X_4315_ _1185_ _1186_ _1120_ _0039_ VDD VSS gf180mcu_fd_sc_mcu9t5v0__mux2_2
X_4316_ _1184_ registers\[2\]\[9\] _1187_ VDD VSS gf180mcu_fd_sc_mcu9t5v0__and2_2
X_4317_ net46 _1188_ VDD VSS gf180mcu_fd_sc_mcu9t5v0__buf_4
X_4318_ _1187_ _1188_ _1120_ _0040_ VDD VSS gf180mcu_fd_sc_mcu9t5v0__mux2_2
X_4319_ _1184_ registers\[30\]\[0\] _1189_ VDD VSS gf180mcu_fd_sc_mcu9t5v0__and2_2
X_4320_ _1093_ _1119_ _1190_ VDD VSS gf180mcu_fd_sc_mcu9t5v0__and2_4
X_4321_ _1190_ _1191_ VDD VSS gf180mcu_fd_sc_mcu9t5v0__buf_8
X_4322_ _1189_ _1115_ _1191_ _0041_ VDD VSS gf180mcu_fd_sc_mcu9t5v0__mux2_2
X_4323_ _1184_ registers\[30\]\[10\] _1192_ VDD VSS gf180mcu_fd_sc_mcu9t5v0__and2_2
X_4324_ _1192_ _1123_ _1191_ _0042_ VDD VSS gf180mcu_fd_sc_mcu9t5v0__mux2_2
X_4325_ _1184_ registers\[30\]\[11\] _1193_ VDD VSS gf180mcu_fd_sc_mcu9t5v0__and2_2
X_4326_ _1193_ _1125_ _1191_ _0043_ VDD VSS gf180mcu_fd_sc_mcu9t5v0__mux2_2
X_4327_ _1184_ registers\[30\]\[12\] _1194_ VDD VSS gf180mcu_fd_sc_mcu9t5v0__and2_2
X_4328_ _1194_ _1127_ _1191_ _0044_ VDD VSS gf180mcu_fd_sc_mcu9t5v0__mux2_2
X_4329_ _1184_ registers\[30\]\[13\] _1195_ VDD VSS gf180mcu_fd_sc_mcu9t5v0__and2_2
X_4330_ _1195_ _1129_ _1191_ _0045_ VDD VSS gf180mcu_fd_sc_mcu9t5v0__mux2_2
X_4331_ _1184_ registers\[30\]\[14\] _1196_ VDD VSS gf180mcu_fd_sc_mcu9t5v0__and2_2
X_4332_ _1196_ _1131_ _1191_ _0046_ VDD VSS gf180mcu_fd_sc_mcu9t5v0__mux2_2
X_4333_ _1184_ registers\[30\]\[15\] _1197_ VDD VSS gf180mcu_fd_sc_mcu9t5v0__and2_2
X_4334_ _1197_ _1133_ _1191_ _0047_ VDD VSS gf180mcu_fd_sc_mcu9t5v0__mux2_2
X_4335_ _1184_ registers\[30\]\[16\] _1198_ VDD VSS gf180mcu_fd_sc_mcu9t5v0__and2_2
X_4336_ _1198_ _1135_ _1191_ _0048_ VDD VSS gf180mcu_fd_sc_mcu9t5v0__mux2_2
X_4337_ _1112_ _1199_ VDD VSS gf180mcu_fd_sc_mcu9t5v0__buf_4
X_4338_ _1199_ registers\[30\]\[17\] _1200_ VDD VSS gf180mcu_fd_sc_mcu9t5v0__and2_2
X_4339_ _1200_ _1137_ _1191_ _0049_ VDD VSS gf180mcu_fd_sc_mcu9t5v0__mux2_2
X_4340_ _1199_ registers\[30\]\[18\] _1201_ VDD VSS gf180mcu_fd_sc_mcu9t5v0__and2_2
X_4341_ _1201_ _1139_ _1191_ _0050_ VDD VSS gf180mcu_fd_sc_mcu9t5v0__mux2_2
X_4342_ _1199_ registers\[30\]\[19\] _1202_ VDD VSS gf180mcu_fd_sc_mcu9t5v0__and2_2
X_4343_ _1190_ _1203_ VDD VSS gf180mcu_fd_sc_mcu9t5v0__buf_8
X_4344_ _1202_ _1142_ _1203_ _0051_ VDD VSS gf180mcu_fd_sc_mcu9t5v0__mux2_2
X_4345_ _1199_ registers\[30\]\[1\] _1204_ VDD VSS gf180mcu_fd_sc_mcu9t5v0__and2_2
X_4346_ _1204_ _1145_ _1203_ _0052_ VDD VSS gf180mcu_fd_sc_mcu9t5v0__mux2_2
X_4347_ _1199_ registers\[30\]\[20\] _1205_ VDD VSS gf180mcu_fd_sc_mcu9t5v0__and2_2
X_4348_ _1205_ _1147_ _1203_ _0053_ VDD VSS gf180mcu_fd_sc_mcu9t5v0__mux2_2
X_4349_ _1199_ registers\[30\]\[21\] _1206_ VDD VSS gf180mcu_fd_sc_mcu9t5v0__and2_2
X_4350_ _1206_ _1149_ _1203_ _0054_ VDD VSS gf180mcu_fd_sc_mcu9t5v0__mux2_2
X_4351_ _1199_ registers\[30\]\[22\] _1207_ VDD VSS gf180mcu_fd_sc_mcu9t5v0__and2_2
X_4352_ _1207_ _1151_ _1203_ _0055_ VDD VSS gf180mcu_fd_sc_mcu9t5v0__mux2_2
X_4353_ _1199_ registers\[30\]\[23\] _1208_ VDD VSS gf180mcu_fd_sc_mcu9t5v0__and2_2
X_4354_ _1208_ _1153_ _1203_ _0056_ VDD VSS gf180mcu_fd_sc_mcu9t5v0__mux2_2
X_4355_ _1199_ registers\[30\]\[24\] _1209_ VDD VSS gf180mcu_fd_sc_mcu9t5v0__and2_2
X_4356_ _1209_ _1155_ _1203_ _0057_ VDD VSS gf180mcu_fd_sc_mcu9t5v0__mux2_2
X_4357_ _1199_ registers\[30\]\[25\] _1210_ VDD VSS gf180mcu_fd_sc_mcu9t5v0__and2_2
X_4358_ _1210_ _1157_ _1203_ _0058_ VDD VSS gf180mcu_fd_sc_mcu9t5v0__mux2_2
X_4359_ _1112_ _1211_ VDD VSS gf180mcu_fd_sc_mcu9t5v0__buf_4
X_4360_ _1211_ registers\[30\]\[26\] _1212_ VDD VSS gf180mcu_fd_sc_mcu9t5v0__and2_2
X_4361_ _1212_ _1159_ _1203_ _0059_ VDD VSS gf180mcu_fd_sc_mcu9t5v0__mux2_2
X_4362_ _1211_ registers\[30\]\[27\] _1213_ VDD VSS gf180mcu_fd_sc_mcu9t5v0__and2_2
X_4363_ _1213_ _1161_ _1203_ _0060_ VDD VSS gf180mcu_fd_sc_mcu9t5v0__mux2_2
X_4364_ _1211_ registers\[30\]\[28\] _1214_ VDD VSS gf180mcu_fd_sc_mcu9t5v0__and2_2
X_4365_ _1190_ _1215_ VDD VSS gf180mcu_fd_sc_mcu9t5v0__clkbuf_8
X_4366_ _1214_ _1164_ _1215_ _0061_ VDD VSS gf180mcu_fd_sc_mcu9t5v0__mux2_2
X_4367_ _1211_ registers\[30\]\[29\] _1216_ VDD VSS gf180mcu_fd_sc_mcu9t5v0__and2_2
X_4368_ _1216_ _1167_ _1215_ _0062_ VDD VSS gf180mcu_fd_sc_mcu9t5v0__mux2_2
X_4369_ _1211_ registers\[30\]\[2\] _1217_ VDD VSS gf180mcu_fd_sc_mcu9t5v0__and2_2
X_4370_ _1217_ _1169_ _1215_ _0063_ VDD VSS gf180mcu_fd_sc_mcu9t5v0__mux2_2
X_4371_ _1211_ registers\[30\]\[30\] _1218_ VDD VSS gf180mcu_fd_sc_mcu9t5v0__and2_2
X_4372_ _1218_ _1171_ _1215_ _0064_ VDD VSS gf180mcu_fd_sc_mcu9t5v0__mux2_2
X_4373_ _1211_ registers\[30\]\[31\] _1219_ VDD VSS gf180mcu_fd_sc_mcu9t5v0__and2_2
X_4374_ _1219_ _1173_ _1215_ _0065_ VDD VSS gf180mcu_fd_sc_mcu9t5v0__mux2_2
X_4375_ _1211_ registers\[30\]\[3\] _1220_ VDD VSS gf180mcu_fd_sc_mcu9t5v0__and2_2
X_4376_ _1220_ _1175_ _1215_ _0066_ VDD VSS gf180mcu_fd_sc_mcu9t5v0__mux2_2
X_4377_ _1211_ registers\[30\]\[4\] _1221_ VDD VSS gf180mcu_fd_sc_mcu9t5v0__and2_2
X_4378_ _1221_ _1177_ _1215_ _0067_ VDD VSS gf180mcu_fd_sc_mcu9t5v0__mux2_2
X_4379_ _1211_ registers\[30\]\[5\] _1222_ VDD VSS gf180mcu_fd_sc_mcu9t5v0__and2_2
X_4380_ _1222_ _1179_ _1215_ _0068_ VDD VSS gf180mcu_fd_sc_mcu9t5v0__mux2_2
X_4381_ _1089_ _1223_ VDD VSS gf180mcu_fd_sc_mcu9t5v0__buf_8
X_4382_ _1223_ _1224_ VDD VSS gf180mcu_fd_sc_mcu9t5v0__clkbuf_8
X_4383_ _1224_ registers\[30\]\[6\] _1225_ VDD VSS gf180mcu_fd_sc_mcu9t5v0__and2_2
X_4384_ _1225_ _1181_ _1215_ _0069_ VDD VSS gf180mcu_fd_sc_mcu9t5v0__mux2_2
X_4385_ _1224_ registers\[30\]\[7\] _1226_ VDD VSS gf180mcu_fd_sc_mcu9t5v0__and2_2
X_4386_ _1226_ _1183_ _1215_ _0070_ VDD VSS gf180mcu_fd_sc_mcu9t5v0__mux2_2
X_4387_ _1224_ registers\[30\]\[8\] _1227_ VDD VSS gf180mcu_fd_sc_mcu9t5v0__and2_2
X_4388_ _1227_ _1186_ _1190_ _0071_ VDD VSS gf180mcu_fd_sc_mcu9t5v0__mux2_2
X_4389_ _1224_ registers\[30\]\[9\] _1228_ VDD VSS gf180mcu_fd_sc_mcu9t5v0__and2_2
X_4390_ _1228_ _1188_ _1190_ _0072_ VDD VSS gf180mcu_fd_sc_mcu9t5v0__mux2_2
X_4391_ net15 _1229_ VDD VSS gf180mcu_fd_sc_mcu9t5v0__buf_4
X_4392_ _1090_ _1230_ VDD VSS gf180mcu_fd_sc_mcu9t5v0__buf_4
X_4393_ _1230_ registers\[31\]\[0\] _1231_ VDD VSS gf180mcu_fd_sc_mcu9t5v0__and2_2
X_4394_ net9 net10 net11 net47 _1232_ VDD VSS gf180mcu_fd_sc_mcu9t5v0__and4_4
X_4395_ _1093_ _1232_ _1233_ VDD VSS gf180mcu_fd_sc_mcu9t5v0__nand2_4
X_4396_ _1233_ _1234_ VDD VSS gf180mcu_fd_sc_mcu9t5v0__clkbuf_8
X_4397_ _1229_ _1231_ _1234_ _0073_ VDD VSS gf180mcu_fd_sc_mcu9t5v0__mux2_2
X_4398_ net16 _1235_ VDD VSS gf180mcu_fd_sc_mcu9t5v0__buf_4
X_4399_ _1230_ registers\[31\]\[10\] _1236_ VDD VSS gf180mcu_fd_sc_mcu9t5v0__and2_2
X_4400_ _1235_ _1236_ _1234_ _0074_ VDD VSS gf180mcu_fd_sc_mcu9t5v0__mux2_2
X_4401_ net17 _1237_ VDD VSS gf180mcu_fd_sc_mcu9t5v0__buf_4
X_4402_ _1230_ registers\[31\]\[11\] _1238_ VDD VSS gf180mcu_fd_sc_mcu9t5v0__and2_2
X_4403_ _1237_ _1238_ _1234_ _0075_ VDD VSS gf180mcu_fd_sc_mcu9t5v0__mux2_2
X_4404_ net18 _1239_ VDD VSS gf180mcu_fd_sc_mcu9t5v0__clkbuf_4
X_4405_ _1230_ registers\[31\]\[12\] _1240_ VDD VSS gf180mcu_fd_sc_mcu9t5v0__and2_2
X_4406_ _1239_ _1240_ _1234_ _0076_ VDD VSS gf180mcu_fd_sc_mcu9t5v0__mux2_2
X_4407_ net19 _1241_ VDD VSS gf180mcu_fd_sc_mcu9t5v0__buf_4
X_4408_ _1230_ registers\[31\]\[13\] _1242_ VDD VSS gf180mcu_fd_sc_mcu9t5v0__and2_2
X_4409_ _1241_ _1242_ _1234_ _0077_ VDD VSS gf180mcu_fd_sc_mcu9t5v0__mux2_2
X_4410_ net20 _1243_ VDD VSS gf180mcu_fd_sc_mcu9t5v0__clkbuf_4
X_4411_ _1230_ registers\[31\]\[14\] _1244_ VDD VSS gf180mcu_fd_sc_mcu9t5v0__and2_2
X_4412_ _1243_ _1244_ _1234_ _0078_ VDD VSS gf180mcu_fd_sc_mcu9t5v0__mux2_2
X_4413_ net21 _1245_ VDD VSS gf180mcu_fd_sc_mcu9t5v0__buf_4
X_4414_ _1230_ registers\[31\]\[15\] _1246_ VDD VSS gf180mcu_fd_sc_mcu9t5v0__and2_2
X_4415_ _1245_ _1246_ _1234_ _0079_ VDD VSS gf180mcu_fd_sc_mcu9t5v0__mux2_2
X_4416_ net22 _1247_ VDD VSS gf180mcu_fd_sc_mcu9t5v0__buf_4
X_4417_ _1230_ registers\[31\]\[16\] _1248_ VDD VSS gf180mcu_fd_sc_mcu9t5v0__and2_2
X_4418_ _1247_ _1248_ _1234_ _0080_ VDD VSS gf180mcu_fd_sc_mcu9t5v0__mux2_2
X_4419_ net23 _1249_ VDD VSS gf180mcu_fd_sc_mcu9t5v0__buf_4
X_4420_ _1230_ registers\[31\]\[17\] _1250_ VDD VSS gf180mcu_fd_sc_mcu9t5v0__and2_2
X_4421_ _1249_ _1250_ _1234_ _0081_ VDD VSS gf180mcu_fd_sc_mcu9t5v0__mux2_2
X_4422_ net24 _1251_ VDD VSS gf180mcu_fd_sc_mcu9t5v0__buf_4
X_4423_ _1230_ registers\[31\]\[18\] _1252_ VDD VSS gf180mcu_fd_sc_mcu9t5v0__and2_2
X_4424_ _1251_ _1252_ _1234_ _0082_ VDD VSS gf180mcu_fd_sc_mcu9t5v0__mux2_2
X_4425_ net25 _1253_ VDD VSS gf180mcu_fd_sc_mcu9t5v0__buf_4
X_4426_ _1090_ _1254_ VDD VSS gf180mcu_fd_sc_mcu9t5v0__buf_4
X_4427_ _1254_ registers\[31\]\[19\] _1255_ VDD VSS gf180mcu_fd_sc_mcu9t5v0__and2_2
X_4428_ _1233_ _1256_ VDD VSS gf180mcu_fd_sc_mcu9t5v0__buf_8
X_4429_ _1253_ _1255_ _1256_ _0083_ VDD VSS gf180mcu_fd_sc_mcu9t5v0__mux2_2
X_4430_ net26 _1257_ VDD VSS gf180mcu_fd_sc_mcu9t5v0__clkbuf_4
X_4431_ _1254_ registers\[31\]\[1\] _1258_ VDD VSS gf180mcu_fd_sc_mcu9t5v0__and2_2
X_4432_ _1257_ _1258_ _1256_ _0084_ VDD VSS gf180mcu_fd_sc_mcu9t5v0__mux2_2
X_4433_ net27 _1259_ VDD VSS gf180mcu_fd_sc_mcu9t5v0__clkbuf_4
X_4434_ _1254_ registers\[31\]\[20\] _1260_ VDD VSS gf180mcu_fd_sc_mcu9t5v0__and2_2
X_4435_ _1259_ _1260_ _1256_ _0085_ VDD VSS gf180mcu_fd_sc_mcu9t5v0__mux2_2
X_4436_ net28 _1261_ VDD VSS gf180mcu_fd_sc_mcu9t5v0__clkbuf_4
X_4437_ _1254_ registers\[31\]\[21\] _1262_ VDD VSS gf180mcu_fd_sc_mcu9t5v0__and2_2
X_4438_ _1261_ _1262_ _1256_ _0086_ VDD VSS gf180mcu_fd_sc_mcu9t5v0__mux2_2
X_4439_ net29 _1263_ VDD VSS gf180mcu_fd_sc_mcu9t5v0__clkbuf_4
X_4440_ _1254_ registers\[31\]\[22\] _1264_ VDD VSS gf180mcu_fd_sc_mcu9t5v0__and2_2
X_4441_ _1263_ _1264_ _1256_ _0087_ VDD VSS gf180mcu_fd_sc_mcu9t5v0__mux2_2
X_4442_ net30 _1265_ VDD VSS gf180mcu_fd_sc_mcu9t5v0__buf_4
X_4443_ _1254_ registers\[31\]\[23\] _1266_ VDD VSS gf180mcu_fd_sc_mcu9t5v0__and2_2
X_4444_ _1265_ _1266_ _1256_ _0088_ VDD VSS gf180mcu_fd_sc_mcu9t5v0__mux2_2
X_4445_ net31 _1267_ VDD VSS gf180mcu_fd_sc_mcu9t5v0__clkbuf_4
X_4446_ _1254_ registers\[31\]\[24\] _1268_ VDD VSS gf180mcu_fd_sc_mcu9t5v0__and2_2
X_4447_ _1267_ _1268_ _1256_ _0089_ VDD VSS gf180mcu_fd_sc_mcu9t5v0__mux2_2
X_4448_ net32 _1269_ VDD VSS gf180mcu_fd_sc_mcu9t5v0__clkbuf_4
X_4449_ _1254_ registers\[31\]\[25\] _1270_ VDD VSS gf180mcu_fd_sc_mcu9t5v0__and2_2
X_4450_ _1269_ _1270_ _1256_ _0090_ VDD VSS gf180mcu_fd_sc_mcu9t5v0__mux2_2
X_4451_ net33 _1271_ VDD VSS gf180mcu_fd_sc_mcu9t5v0__clkbuf_4
X_4452_ _1254_ registers\[31\]\[26\] _1272_ VDD VSS gf180mcu_fd_sc_mcu9t5v0__and2_2
X_4453_ _1271_ _1272_ _1256_ _0091_ VDD VSS gf180mcu_fd_sc_mcu9t5v0__mux2_2
X_4454_ net34 _1273_ VDD VSS gf180mcu_fd_sc_mcu9t5v0__clkbuf_4
X_4455_ _1254_ registers\[31\]\[27\] _1274_ VDD VSS gf180mcu_fd_sc_mcu9t5v0__and2_2
X_4456_ _1273_ _1274_ _1256_ _0092_ VDD VSS gf180mcu_fd_sc_mcu9t5v0__mux2_2
X_4457_ net35 _1275_ VDD VSS gf180mcu_fd_sc_mcu9t5v0__buf_4
X_4458_ _1090_ _1276_ VDD VSS gf180mcu_fd_sc_mcu9t5v0__buf_4
X_4459_ _1276_ registers\[31\]\[28\] _1277_ VDD VSS gf180mcu_fd_sc_mcu9t5v0__and2_2
X_4460_ _1233_ _1278_ VDD VSS gf180mcu_fd_sc_mcu9t5v0__clkbuf_8
X_4461_ _1275_ _1277_ _1278_ _0093_ VDD VSS gf180mcu_fd_sc_mcu9t5v0__mux2_2
X_4462_ net36 _1279_ VDD VSS gf180mcu_fd_sc_mcu9t5v0__buf_4
X_4463_ _1276_ registers\[31\]\[29\] _1280_ VDD VSS gf180mcu_fd_sc_mcu9t5v0__and2_2
X_4464_ _1279_ _1280_ _1278_ _0094_ VDD VSS gf180mcu_fd_sc_mcu9t5v0__mux2_2
X_4465_ net37 _1281_ VDD VSS gf180mcu_fd_sc_mcu9t5v0__buf_4
X_4466_ _1276_ registers\[31\]\[2\] _1282_ VDD VSS gf180mcu_fd_sc_mcu9t5v0__and2_2
X_4467_ _1281_ _1282_ _1278_ _0095_ VDD VSS gf180mcu_fd_sc_mcu9t5v0__mux2_2
X_4468_ net38 _1283_ VDD VSS gf180mcu_fd_sc_mcu9t5v0__buf_4
X_4469_ _1276_ registers\[31\]\[30\] _1284_ VDD VSS gf180mcu_fd_sc_mcu9t5v0__and2_2
X_4470_ _1283_ _1284_ _1278_ _0096_ VDD VSS gf180mcu_fd_sc_mcu9t5v0__mux2_2
X_4471_ _1276_ registers\[31\]\[31\] _1285_ VDD VSS gf180mcu_fd_sc_mcu9t5v0__and2_2
X_4472_ _1088_ _1285_ _1278_ _0097_ VDD VSS gf180mcu_fd_sc_mcu9t5v0__mux2_2
X_4473_ _1276_ registers\[31\]\[3\] _1286_ VDD VSS gf180mcu_fd_sc_mcu9t5v0__and2_2
X_4474_ _1098_ _1286_ _1278_ _0098_ VDD VSS gf180mcu_fd_sc_mcu9t5v0__mux2_2
X_4475_ _1276_ registers\[31\]\[4\] _1287_ VDD VSS gf180mcu_fd_sc_mcu9t5v0__and2_2
X_4476_ _1100_ _1287_ _1278_ _0099_ VDD VSS gf180mcu_fd_sc_mcu9t5v0__mux2_2
X_4477_ _1276_ registers\[31\]\[5\] _1288_ VDD VSS gf180mcu_fd_sc_mcu9t5v0__and2_2
X_4478_ _1102_ _1288_ _1278_ _0100_ VDD VSS gf180mcu_fd_sc_mcu9t5v0__mux2_2
X_4479_ _1276_ registers\[31\]\[6\] _1289_ VDD VSS gf180mcu_fd_sc_mcu9t5v0__and2_2
X_4480_ _1104_ _1289_ _1278_ _0101_ VDD VSS gf180mcu_fd_sc_mcu9t5v0__mux2_2
X_4481_ _1276_ registers\[31\]\[7\] _1290_ VDD VSS gf180mcu_fd_sc_mcu9t5v0__and2_2
X_4482_ _1106_ _1290_ _1278_ _0102_ VDD VSS gf180mcu_fd_sc_mcu9t5v0__mux2_2
X_4483_ _1090_ _1291_ VDD VSS gf180mcu_fd_sc_mcu9t5v0__clkbuf_8
X_4484_ _1291_ registers\[31\]\[8\] _1292_ VDD VSS gf180mcu_fd_sc_mcu9t5v0__and2_2
X_4485_ _1108_ _1292_ _1233_ _0103_ VDD VSS gf180mcu_fd_sc_mcu9t5v0__mux2_2
X_4486_ _1291_ registers\[31\]\[9\] _1293_ VDD VSS gf180mcu_fd_sc_mcu9t5v0__and2_2
X_4487_ _1110_ _1293_ _1233_ _0104_ VDD VSS gf180mcu_fd_sc_mcu9t5v0__mux2_2
X_4488_ _1291_ registers\[3\]\[0\] _1294_ VDD VSS gf180mcu_fd_sc_mcu9t5v0__and2_2
X_4489_ _1116_ _1232_ _1295_ VDD VSS gf180mcu_fd_sc_mcu9t5v0__nand2_4
X_4490_ _1295_ _1296_ VDD VSS gf180mcu_fd_sc_mcu9t5v0__clkbuf_8
X_4491_ _1229_ _1294_ _1296_ _0105_ VDD VSS gf180mcu_fd_sc_mcu9t5v0__mux2_2
X_4492_ _1291_ registers\[3\]\[10\] _1297_ VDD VSS gf180mcu_fd_sc_mcu9t5v0__and2_2
X_4493_ _1235_ _1297_ _1296_ _0106_ VDD VSS gf180mcu_fd_sc_mcu9t5v0__mux2_2
X_4494_ _1291_ registers\[3\]\[11\] _1298_ VDD VSS gf180mcu_fd_sc_mcu9t5v0__and2_2
X_4495_ _1237_ _1298_ _1296_ _0107_ VDD VSS gf180mcu_fd_sc_mcu9t5v0__mux2_2
X_4496_ _1291_ registers\[3\]\[12\] _1299_ VDD VSS gf180mcu_fd_sc_mcu9t5v0__and2_2
X_4497_ _1239_ _1299_ _1296_ _0108_ VDD VSS gf180mcu_fd_sc_mcu9t5v0__mux2_2
X_4498_ _1291_ registers\[3\]\[13\] _1300_ VDD VSS gf180mcu_fd_sc_mcu9t5v0__and2_2
X_4499_ _1241_ _1300_ _1296_ _0109_ VDD VSS gf180mcu_fd_sc_mcu9t5v0__mux2_2
X_4500_ _1291_ registers\[3\]\[14\] _1301_ VDD VSS gf180mcu_fd_sc_mcu9t5v0__and2_2
X_4501_ _1243_ _1301_ _1296_ _0110_ VDD VSS gf180mcu_fd_sc_mcu9t5v0__mux2_2
X_4502_ _1291_ registers\[3\]\[15\] _1302_ VDD VSS gf180mcu_fd_sc_mcu9t5v0__and2_2
X_4503_ _1245_ _1302_ _1296_ _0111_ VDD VSS gf180mcu_fd_sc_mcu9t5v0__mux2_2
X_4504_ _1291_ registers\[3\]\[16\] _1303_ VDD VSS gf180mcu_fd_sc_mcu9t5v0__and2_2
X_4505_ _1247_ _1303_ _1296_ _0112_ VDD VSS gf180mcu_fd_sc_mcu9t5v0__mux2_2
X_4506_ _1090_ _1304_ VDD VSS gf180mcu_fd_sc_mcu9t5v0__clkbuf_8
X_4507_ _1304_ registers\[3\]\[17\] _1305_ VDD VSS gf180mcu_fd_sc_mcu9t5v0__and2_2
X_4508_ _1249_ _1305_ _1296_ _0113_ VDD VSS gf180mcu_fd_sc_mcu9t5v0__mux2_2
X_4509_ _1304_ registers\[3\]\[18\] _1306_ VDD VSS gf180mcu_fd_sc_mcu9t5v0__and2_2
X_4510_ _1251_ _1306_ _1296_ _0114_ VDD VSS gf180mcu_fd_sc_mcu9t5v0__mux2_2
X_4511_ _1304_ registers\[3\]\[19\] _1307_ VDD VSS gf180mcu_fd_sc_mcu9t5v0__and2_2
X_4512_ _1295_ _1308_ VDD VSS gf180mcu_fd_sc_mcu9t5v0__buf_8
X_4513_ _1253_ _1307_ _1308_ _0115_ VDD VSS gf180mcu_fd_sc_mcu9t5v0__mux2_2
X_4514_ _1304_ registers\[3\]\[1\] _1309_ VDD VSS gf180mcu_fd_sc_mcu9t5v0__and2_2
X_4515_ _1257_ _1309_ _1308_ _0116_ VDD VSS gf180mcu_fd_sc_mcu9t5v0__mux2_2
X_4516_ _1304_ registers\[3\]\[20\] _1310_ VDD VSS gf180mcu_fd_sc_mcu9t5v0__and2_2
X_4517_ _1259_ _1310_ _1308_ _0117_ VDD VSS gf180mcu_fd_sc_mcu9t5v0__mux2_2
X_4518_ _1304_ registers\[3\]\[21\] _1311_ VDD VSS gf180mcu_fd_sc_mcu9t5v0__and2_2
X_4519_ _1261_ _1311_ _1308_ _0118_ VDD VSS gf180mcu_fd_sc_mcu9t5v0__mux2_2
X_4520_ _1304_ registers\[3\]\[22\] _1312_ VDD VSS gf180mcu_fd_sc_mcu9t5v0__and2_2
X_4521_ _1263_ _1312_ _1308_ _0119_ VDD VSS gf180mcu_fd_sc_mcu9t5v0__mux2_2
X_4522_ _1304_ registers\[3\]\[23\] _1313_ VDD VSS gf180mcu_fd_sc_mcu9t5v0__and2_2
X_4523_ _1265_ _1313_ _1308_ _0120_ VDD VSS gf180mcu_fd_sc_mcu9t5v0__mux2_2
X_4524_ _1304_ registers\[3\]\[24\] _1314_ VDD VSS gf180mcu_fd_sc_mcu9t5v0__and2_2
X_4525_ _1267_ _1314_ _1308_ _0121_ VDD VSS gf180mcu_fd_sc_mcu9t5v0__mux2_2
X_4526_ _1304_ registers\[3\]\[25\] _1315_ VDD VSS gf180mcu_fd_sc_mcu9t5v0__and2_2
X_4527_ _1269_ _1315_ _1308_ _0122_ VDD VSS gf180mcu_fd_sc_mcu9t5v0__mux2_2
X_4528_ _1090_ _1316_ VDD VSS gf180mcu_fd_sc_mcu9t5v0__buf_4
X_4529_ _1316_ registers\[3\]\[26\] _1317_ VDD VSS gf180mcu_fd_sc_mcu9t5v0__and2_2
X_4530_ _1271_ _1317_ _1308_ _0123_ VDD VSS gf180mcu_fd_sc_mcu9t5v0__mux2_2
X_4531_ _1316_ registers\[3\]\[27\] _1318_ VDD VSS gf180mcu_fd_sc_mcu9t5v0__and2_2
X_4532_ _1273_ _1318_ _1308_ _0124_ VDD VSS gf180mcu_fd_sc_mcu9t5v0__mux2_2
X_4533_ _1316_ registers\[3\]\[28\] _1319_ VDD VSS gf180mcu_fd_sc_mcu9t5v0__and2_2
X_4534_ _1295_ _1320_ VDD VSS gf180mcu_fd_sc_mcu9t5v0__clkbuf_8
X_4535_ _1275_ _1319_ _1320_ _0125_ VDD VSS gf180mcu_fd_sc_mcu9t5v0__mux2_2
X_4536_ _1316_ registers\[3\]\[29\] _1321_ VDD VSS gf180mcu_fd_sc_mcu9t5v0__and2_2
X_4537_ _1279_ _1321_ _1320_ _0126_ VDD VSS gf180mcu_fd_sc_mcu9t5v0__mux2_2
X_4538_ _1316_ registers\[3\]\[2\] _1322_ VDD VSS gf180mcu_fd_sc_mcu9t5v0__and2_2
X_4539_ _1281_ _1322_ _1320_ _0127_ VDD VSS gf180mcu_fd_sc_mcu9t5v0__mux2_2
X_4540_ _1316_ registers\[3\]\[30\] _1323_ VDD VSS gf180mcu_fd_sc_mcu9t5v0__and2_2
X_4541_ _1283_ _1323_ _1320_ _0128_ VDD VSS gf180mcu_fd_sc_mcu9t5v0__mux2_2
X_4542_ _1316_ registers\[3\]\[31\] _1324_ VDD VSS gf180mcu_fd_sc_mcu9t5v0__and2_2
X_4543_ _1088_ _1324_ _1320_ _0129_ VDD VSS gf180mcu_fd_sc_mcu9t5v0__mux2_2
X_4544_ _1316_ registers\[3\]\[3\] _1325_ VDD VSS gf180mcu_fd_sc_mcu9t5v0__and2_2
X_4545_ _1098_ _1325_ _1320_ _0130_ VDD VSS gf180mcu_fd_sc_mcu9t5v0__mux2_2
X_4546_ _1316_ registers\[3\]\[4\] _1326_ VDD VSS gf180mcu_fd_sc_mcu9t5v0__and2_2
X_4547_ _1100_ _1326_ _1320_ _0131_ VDD VSS gf180mcu_fd_sc_mcu9t5v0__mux2_2
X_4548_ _1316_ registers\[3\]\[5\] _1327_ VDD VSS gf180mcu_fd_sc_mcu9t5v0__and2_2
X_4549_ _1102_ _1327_ _1320_ _0132_ VDD VSS gf180mcu_fd_sc_mcu9t5v0__mux2_2
X_4550_ _1089_ _1328_ VDD VSS gf180mcu_fd_sc_mcu9t5v0__buf_8
X_4551_ _1328_ _1329_ VDD VSS gf180mcu_fd_sc_mcu9t5v0__buf_4
X_4552_ _1329_ registers\[3\]\[6\] _1330_ VDD VSS gf180mcu_fd_sc_mcu9t5v0__and2_2
X_4553_ _1104_ _1330_ _1320_ _0133_ VDD VSS gf180mcu_fd_sc_mcu9t5v0__mux2_2
X_4554_ _1329_ registers\[3\]\[7\] _1331_ VDD VSS gf180mcu_fd_sc_mcu9t5v0__and2_2