
* cell register_file
* pin clk
* pin write_data[30]
* pin write_data[31]
* pin write_data[2]
* pin write_data[28]
* pin write_data[3]
* pin write_data[29]
* pin read_data2[3]
* pin read_data1[4]
* pin write_data[4]
* pin read_addr2[0]
* pin read_data2[4]
* pin read_data2[5]
* pin read_addr2[4]
* pin read_data1[5]
* pin write_data[5]
* pin read_data2[6]
* pin read_data2[7]
* pin write_data[7]
* pin write_data[6]
* pin read_data1[6]
* pin read_addr1[4]
* pin read_data1[7]
* pin write_data[8]
* pin read_addr1[3]
* pin read_data1[8]
* pin read_data2[9]
* pin read_data2[8]
* pin write_data[9]
* pin read_data1[9]
* pin read_data1[3]
* pin read_data2[30]
* pin read_data1[30]
* pin read_data1[31]
* pin read_data1[2]
* pin read_data1[29]
* pin read_data2[29]
* pin read_data1[28]
* pin read_data2[31]
* pin read_data2[28]
* pin read_data2[2]
* pin write_data[0]
* pin write_data[10]
* pin read_data1[10]
* pin read_data1[0]
* pin write_data[12]
* pin read_addr1[2]
* pin read_addr2[2]
* pin write_data[11]
* pin read_data2[10]
* pin read_data2[0]
* pin read_addr2[3]
* pin write_addr[2]
* pin write_addr[4]
* pin write_addr[3]
* pin read_en2
* pin read_en1
* pin read_data2[12]
* pin read_data2[27]
* pin read_data2[26]
* pin read_data1[26]
* pin read_data2[11]
* pin read_data1[11]
* pin write_addr[1]
* pin write_addr[0]
* pin read_data1[27]
* pin read_addr1[0]
* pin read_addr1[1]
* pin read_data1[12]
* pin write_data[26]
* pin write_data[27]
* pin read_addr2[1]
* pin read_data2[25]
* pin write_data[13]
* pin write_data[25]
* pin read_data2[13]
* pin read_data1[13]
* pin read_data1[25]
* pin read_data2[14]
* pin read_data1[14]
* pin write_data[14]
* pin read_data1[24]
* pin read_data2[24]
* pin write_data[24]
* pin read_data1[23]
* pin read_data1[22]
* pin read_data2[16]
* pin read_data2[15]
* pin read_data2[18]
* pin read_data2[17]
* pin read_data2[22]
* pin read_data1[15]
* pin write_data[16]
* pin write_data[15]
* pin write_data[1]
* pin read_data1[18]
* pin read_data1[1]
* pin read_data1[21]
* pin read_data2[19]
* pin write_data[21]
* pin read_data2[23]
* pin write_data[23]
* pin write_data[22]
* pin read_data2[21]
* pin read_data1[20]
* pin write_data[20]
* pin read_data2[20]
* pin read_data1[19]
* pin read_data2[1]
* pin write_data[19]
* pin rst_n
* pin write_en
* pin read_data1[16]
* pin read_data1[17]
* pin write_data[17]
* pin write_data[18]
* pin PWELL,gf180mcu_gnd
* pin NWELL
.SUBCKT register_file 1 2 3 4 5 6 7 8 9 10 11 12 13 14 15 16 17 18 19 20 21 22
+ 23 24 25 26 27 28 29 30 1353 1420 1478 1531 1532 1533 1599 1664 1665 1720
+ 1783 2171 2221 2391 2392 2435 2493 2494 2577 2679 2680 2681 2773 2820 2822
+ 2852 2853 2854 2941 2942 2998 3027 3076 3077 3132 3150 3191 3257 3275 3293
+ 3376 3451 3539 3682 3700 3809 3810 3828 3859 3911 3949 3966 4127 4227 4338
+ 4384 4411 4413 4462 4463 4492 4740 5141 5142 5480 5483 5486 5488 5489 5491
+ 5492 5493 5494 5495 5496 5497 5498 5499 5500 5501 5502 5503 5504 5505 5506
+ 5507 5510 5511
* net 1 clk
* net 2 write_data[30]
* net 3 write_data[31]
* net 4 write_data[2]
* net 5 write_data[28]
* net 6 write_data[3]
* net 7 write_data[29]
* net 8 read_data2[3]
* net 9 read_data1[4]
* net 10 write_data[4]
* net 11 read_addr2[0]
* net 12 read_data2[4]
* net 13 read_data2[5]
* net 14 read_addr2[4]
* net 15 read_data1[5]
* net 16 write_data[5]
* net 17 read_data2[6]
* net 18 read_data2[7]
* net 19 write_data[7]
* net 20 write_data[6]
* net 21 read_data1[6]
* net 22 read_addr1[4]
* net 23 read_data1[7]
* net 24 write_data[8]
* net 25 read_addr1[3]
* net 26 read_data1[8]
* net 27 read_data2[9]
* net 28 read_data2[8]
* net 29 write_data[9]
* net 30 read_data1[9]
* net 1353 read_data1[3]
* net 1420 read_data2[30]
* net 1478 read_data1[30]
* net 1531 read_data1[31]
* net 1532 read_data1[2]
* net 1533 read_data1[29]
* net 1599 read_data2[29]
* net 1664 read_data1[28]
* net 1665 read_data2[31]
* net 1720 read_data2[28]
* net 1783 read_data2[2]
* net 2171 write_data[0]
* net 2221 write_data[10]
* net 2391 read_data1[10]
* net 2392 read_data1[0]
* net 2435 write_data[12]
* net 2493 read_addr1[2]
* net 2494 read_addr2[2]
* net 2577 write_data[11]
* net 2679 read_data2[10]
* net 2680 read_data2[0]
* net 2681 read_addr2[3]
* net 2773 write_addr[2]
* net 2820 write_addr[4]
* net 2822 write_addr[3]
* net 2852 read_en2
* net 2853 read_en1
* net 2854 read_data2[12]
* net 2941 read_data2[27]
* net 2942 read_data2[26]
* net 2998 read_data1[26]
* net 3027 read_data2[11]
* net 3076 read_data1[11]
* net 3077 write_addr[1]
* net 3132 write_addr[0]
* net 3150 read_data1[27]
* net 3191 read_addr1[0]
* net 3257 read_addr1[1]
* net 3275 read_data1[12]
* net 3293 write_data[26]
* net 3376 write_data[27]
* net 3451 read_addr2[1]
* net 3539 read_data2[25]
* net 3682 write_data[13]
* net 3700 write_data[25]
* net 3809 read_data2[13]
* net 3810 read_data1[13]
* net 3828 read_data1[25]
* net 3859 read_data2[14]
* net 3911 read_data1[14]
* net 3949 write_data[14]
* net 3966 read_data1[24]
* net 4127 read_data2[24]
* net 4227 write_data[24]
* net 4338 read_data1[23]
* net 4384 read_data1[22]
* net 4411 read_data2[16]
* net 4413 read_data2[15]
* net 4462 read_data2[18]
* net 4463 read_data2[17]
* net 4492 read_data2[22]
* net 4740 read_data1[15]
* net 5141 write_data[16]
* net 5142 write_data[15]
* net 5480 write_data[1]
* net 5483 read_data1[18]
* net 5486 read_data1[1]
* net 5488 read_data1[21]
* net 5489 read_data2[19]
* net 5491 write_data[21]
* net 5492 read_data2[23]
* net 5493 write_data[23]
* net 5494 write_data[22]
* net 5495 read_data2[21]
* net 5496 read_data1[20]
* net 5497 write_data[20]
* net 5498 read_data2[20]
* net 5499 read_data1[19]
* net 5500 read_data2[1]
* net 5501 write_data[19]
* net 5502 rst_n
* net 5503 write_en
* net 5504 read_data1[16]
* net 5505 read_data1[17]
* net 5506 write_data[17]
* net 5507 write_data[18]
* net 5510 PWELL,gf180mcu_gnd
* net 5511 NWELL
* cell instance $2 m0 *1 409.92,378
X$2 5510 1 1595 5511 gf180mcu_fd_sc_mcu9t5v0__clkbuf_16
* cell instance $8 r0 *1 110.88,15.12
X$8 5510 147 2 5511 gf180mcu_fd_sc_mcu9t5v0__dlyc_2
* cell instance $15 r0 *1 127.12,15.12
X$15 5510 179 3 5511 gf180mcu_fd_sc_mcu9t5v0__dlyc_2
* cell instance $19 r0 *1 117.04,5.04
X$19 5510 32 4 5511 gf180mcu_fd_sc_mcu9t5v0__dlyc_2
* cell instance $22 m0 *1 126.56,25.2
X$22 5510 148 5 5511 gf180mcu_fd_sc_mcu9t5v0__dlyc_2
* cell instance $26 r0 *1 143.36,5.04
X$26 5510 90 6 5511 gf180mcu_fd_sc_mcu9t5v0__dlyc_2
* cell instance $31 r0 *1 131.04,5.04
X$31 5510 40 7 5511 gf180mcu_fd_sc_mcu9t5v0__dlyc_2
* cell instance $34 r0 *1 273.84,5.04
X$34 68 5511 5510 8 gf180mcu_fd_sc_mcu9t5v0__dlyb_2
* cell instance $39 m0 *1 325.36,15.12
X$39 124 5511 5510 9 gf180mcu_fd_sc_mcu9t5v0__dlyb_2
* cell instance $43 r0 *1 336.56,5.04
X$43 5510 55 10 5511 gf180mcu_fd_sc_mcu9t5v0__dlyc_2
* cell instance $47 r0 *1 348.88,5.04
X$47 5510 11 315 5511 gf180mcu_fd_sc_mcu9t5v0__buf_8
* cell instance $50 r0 *1 350.56,15.12
X$50 137 5511 5510 12 gf180mcu_fd_sc_mcu9t5v0__dlyb_2
* cell instance $54 r0 *1 372.96,5.04
X$54 74 5511 5510 13 gf180mcu_fd_sc_mcu9t5v0__dlyb_2
* cell instance $59 m0 *1 388.08,15.12
X$59 5510 5511 14 142 gf180mcu_fd_sc_mcu9t5v0__buf_4
* cell instance $62 r0 *1 391.44,5.04
X$62 54 5511 5510 15 gf180mcu_fd_sc_mcu9t5v0__dlyb_2
* cell instance $66 r0 *1 400.96,5.04
X$66 5510 53 16 5511 gf180mcu_fd_sc_mcu9t5v0__dlyc_2
* cell instance $70 r0 *1 420,5.04
X$70 76 5511 5510 17 gf180mcu_fd_sc_mcu9t5v0__dlyb_2
* cell instance $75 r0 *1 428.96,5.04
X$75 78 5511 5510 18 gf180mcu_fd_sc_mcu9t5v0__dlyb_2
* cell instance $79 r0 *1 454.16,5.04
X$79 5510 48 19 5511 gf180mcu_fd_sc_mcu9t5v0__dlyc_2
* cell instance $83 r0 *1 441.84,5.04
X$83 5510 49 20 5511 gf180mcu_fd_sc_mcu9t5v0__dlyc_2
* cell instance $86 r0 *1 479.36,5.04
X$86 79 5511 5510 21 gf180mcu_fd_sc_mcu9t5v0__dlyb_2
* cell instance $90 r0 *1 467.04,5.04
X$90 5510 47 22 5511 gf180mcu_fd_sc_mcu9t5v0__dlyc_2
* cell instance $95 r0 *1 487.76,5.04
X$95 81 5511 5510 23 gf180mcu_fd_sc_mcu9t5v0__dlyb_2
* cell instance $99 r0 *1 547.12,5.04
X$99 5510 46 24 5511 gf180mcu_fd_sc_mcu9t5v0__dlyc_2
* cell instance $103 m0 *1 533.12,15.12
X$103 5510 5511 25 252 gf180mcu_fd_sc_mcu9t5v0__clkbuf_4
* cell instance $106 r0 *1 538.72,5.04
X$106 85 5511 5510 26 gf180mcu_fd_sc_mcu9t5v0__dlyb_2
* cell instance $110 m0 *1 548.24,15.12
X$110 113 5511 5510 27 gf180mcu_fd_sc_mcu9t5v0__dlyb_2
* cell instance $114 m0 *1 558.32,15.12
X$114 114 5511 5510 28 gf180mcu_fd_sc_mcu9t5v0__dlyb_2
* cell instance $118 r0 *1 560,5.04
X$118 5510 116 29 5511 gf180mcu_fd_sc_mcu9t5v0__dlyc_2
* cell instance $122 m0 *1 566.72,15.12
X$122 115 5511 5510 30 gf180mcu_fd_sc_mcu9t5v0__dlyb_2
* cell instance $126 r0 *1 445.76,45.36
X$126 5510 247 31 5511 gf180mcu_fd_sc_mcu9t5v0__clkbuf_8
* cell instance $128 r0 *1 140,15.12
X$128 5510 5511 89 149 31 117 gf180mcu_fd_sc_mcu9t5v0__mux2_2
* cell instance $130 r0 *1 102.48,45.36
X$130 5510 5511 287 200 31 288 gf180mcu_fd_sc_mcu9t5v0__mux2_2
* cell instance $132 r0 *1 101.92,25.2
X$132 5510 5511 186 154 31 223 gf180mcu_fd_sc_mcu9t5v0__mux2_2
* cell instance $134 r0 *1 338.8,15.12
X$134 5510 5511 97 96 31 122 gf180mcu_fd_sc_mcu9t5v0__mux2_2
* cell instance $136 r0 *1 290.64,5.04
X$136 5510 5511 88 69 31 39 gf180mcu_fd_sc_mcu9t5v0__mux2_2
* cell instance $139 r0 *1 236.32,5.04
X$139 5510 5511 65 66 31 38 gf180mcu_fd_sc_mcu9t5v0__mux2_2
* cell instance $141 r0 *1 92.4,5.04
X$141 5510 5511 86 56 31 175 gf180mcu_fd_sc_mcu9t5v0__mux2_2
* cell instance $143 m0 *1 442.96,35.28
X$143 5510 5511 215 151 31 201 gf180mcu_fd_sc_mcu9t5v0__mux2_2
* cell instance $145 m0 *1 400.96,15.12
X$145 5510 5511 100 75 31 51 gf180mcu_fd_sc_mcu9t5v0__mux2_2
* cell instance $147 m0 *1 446.32,25.2
X$147 5510 5511 106 152 31 180 gf180mcu_fd_sc_mcu9t5v0__mux2_2
* cell instance $160 r0 *1 103.04,15.12
X$160 5510 5511 32 56 gf180mcu_fd_sc_mcu9t5v0__clkbuf_3
* cell instance $165 r0 *1 482.16,55.44
X$165 5510 254 33 5511 gf180mcu_fd_sc_mcu9t5v0__clkbuf_8
* cell instance $167 r0 *1 430.08,15.12
X$167 5510 5511 143 104 33 102 gf180mcu_fd_sc_mcu9t5v0__mux2_2
* cell instance $169 r0 *1 108.64,5.04
X$169 5510 5511 50 59 33 60 gf180mcu_fd_sc_mcu9t5v0__mux2_2
* cell instance $171 r0 *1 162.96,5.04
X$171 5510 5511 41 62 33 34 gf180mcu_fd_sc_mcu9t5v0__mux2_2
* cell instance $173 m0 *1 126.56,55.44
X$173 5510 5511 333 334 33 299 gf180mcu_fd_sc_mcu9t5v0__mux2_2
* cell instance $175 r0 *1 146.72,55.44
X$175 5510 5511 406 375 33 302 gf180mcu_fd_sc_mcu9t5v0__mux2_2
* cell instance $178 r0 *1 314.72,5.04
X$178 5510 5511 71 72 33 94 gf180mcu_fd_sc_mcu9t5v0__mux2_2
* cell instance $180 m0 *1 259.84,15.12
X$180 5510 5511 44 93 33 67 gf180mcu_fd_sc_mcu9t5v0__mux2_2
* cell instance $182 r0 *1 376.88,15.12
X$182 5510 5511 140 141 33 123 gf180mcu_fd_sc_mcu9t5v0__mux2_2
* cell instance $184 m0 *1 483.28,45.36
X$184 5510 5511 274 217 33 245 gf180mcu_fd_sc_mcu9t5v0__mux2_2
* cell instance $186 r0 *1 484.96,15.12
X$186 5510 5511 109 150 33 111 gf180mcu_fd_sc_mcu9t5v0__mux2_2
* cell instance $200 r0 *1 181.44,5.04
X$200 5510 5511 42 43 103 34 gf180mcu_fd_sc_mcu9t5v0__mux2_2
* cell instance $203 m0 *1 103.04,25.2
X$203 5510 5511 56 34 gf180mcu_fd_sc_mcu9t5v0__buf_4
* cell instance $205 m0 *1 150.08,35.28
X$205 5510 5511 202 203 125 34 gf180mcu_fd_sc_mcu9t5v0__mux2_2
* cell instance $207 r0 *1 114.8,176.4
X$207 5510 5511 1124 1164 1121 34 gf180mcu_fd_sc_mcu9t5v0__mux2_2
* cell instance $210 m0 *1 223.44,35.28
X$210 5510 5511 212 213 193 34 gf180mcu_fd_sc_mcu9t5v0__mux2_2
* cell instance $212 r0 *1 220.08,15.12
X$212 5510 5511 91 120 64 34 gf180mcu_fd_sc_mcu9t5v0__mux2_2
* cell instance $216 m0 *1 214.48,35.28
X$216 5510 5511 189 34 192 191 gf180mcu_fd_sc_mcu9t5v0__mux2_2
* cell instance $218 r0 *1 175.28,186.48
X$218 5510 5511 1246 34 1247 1337 gf180mcu_fd_sc_mcu9t5v0__mux2_2
* cell instance $220 m0 *1 115.36,126
X$220 5510 5511 760 34 527 801 gf180mcu_fd_sc_mcu9t5v0__mux2_2
* cell instance $222 r0 *1 103.6,136.08
X$222 5510 5511 875 34 456 876 gf180mcu_fd_sc_mcu9t5v0__mux2_2
* cell instance $241 m0 *1 231.84,15.12
X$241 5510 35 37 65 5511 gf180mcu_fd_sc_mcu9t5v0__dffq_2
* cell instance $243 r0 *1 252.56,25.2
X$243 5510 194 158 161 160 164 35 45 5511 gf180mcu_fd_sc_mcu9t5v0__mux4_2
* cell instance $245 m0 *1 252,25.2
X$245 5510 234 132 161 160 157 35 45 5511 gf180mcu_fd_sc_mcu9t5v0__mux4_2
* cell instance $247 r0 *1 244.72,5.04
X$247 5511 36 35 5510 38 gf180mcu_fd_sc_mcu9t5v0__and2_2
* cell instance $251 m0 *1 151.2,15.12
X$251 5511 36 61 5510 117 gf180mcu_fd_sc_mcu9t5v0__and2_2
* cell instance $253 r0 *1 108.08,35.28
X$253 5511 36 207 5510 223 gf180mcu_fd_sc_mcu9t5v0__and2_2
* cell instance $255 r0 *1 111.44,45.36
X$255 5511 36 259 5510 288 gf180mcu_fd_sc_mcu9t5v0__and2_2
* cell instance $257 m0 *1 442.96,55.44
X$257 5510 5511 413 36 gf180mcu_fd_sc_mcu9t5v0__buf_4
* cell instance $259 m0 *1 451.36,35.28
X$259 5511 36 199 5510 201 gf180mcu_fd_sc_mcu9t5v0__and2_2
* cell instance $261 r0 *1 413.28,5.04
X$261 5511 36 52 5510 51 gf180mcu_fd_sc_mcu9t5v0__and2_2
* cell instance $263 r0 *1 301.28,5.04
X$263 5511 36 70 5510 39 gf180mcu_fd_sc_mcu9t5v0__and2_2
* cell instance $267 m0 *1 351.12,15.12
X$267 5511 36 73 5510 122 gf180mcu_fd_sc_mcu9t5v0__and2_2
* cell instance $270 r0 *1 112.56,25.2
X$270 5511 36 58 5510 175 gf180mcu_fd_sc_mcu9t5v0__and2_2
* cell instance $272 r0 *1 448.56,25.2
X$272 5511 36 107 5510 180 gf180mcu_fd_sc_mcu9t5v0__and2_2
* cell instance $286 m0 *1 334.32,15.12
X$286 5510 73 37 97 5511 gf180mcu_fd_sc_mcu9t5v0__dffq_2
* cell instance $289 r0 *1 235.76,25.2
X$289 5510 160 37 181 5511 gf180mcu_fd_sc_mcu9t5v0__dffq_2
* cell instance $291 m0 *1 308.56,15.12
X$291 5510 95 37 71 5511 gf180mcu_fd_sc_mcu9t5v0__dffq_2
* cell instance $294 r0 *1 219.52,35.28
X$294 5510 233 37 212 5511 gf180mcu_fd_sc_mcu9t5v0__dffq_2
* cell instance $296 m0 *1 314.72,25.2
X$296 5510 165 37 135 5511 gf180mcu_fd_sc_mcu9t5v0__dffq_2
* cell instance $298 m0 *1 318.64,45.36
X$298 5510 269 37 237 5511 gf180mcu_fd_sc_mcu9t5v0__dffq_2
* cell instance $300 m0 *1 287.28,15.12
X$300 5510 70 37 88 5511 gf180mcu_fd_sc_mcu9t5v0__dffq_2
* cell instance $303 r0 *1 254.8,5.04
X$303 5510 45 37 44 5511 gf180mcu_fd_sc_mcu9t5v0__dffq_2
* cell instance $306 m0 *1 308,105.84
X$306 5510 564 37 600 5511 gf180mcu_fd_sc_mcu9t5v0__dffq_2
* cell instance $308 m0 *1 271.04,25.2
X$308 5510 161 37 133 5511 gf180mcu_fd_sc_mcu9t5v0__dffq_2
* cell instance $310 m0 *1 267.68,45.36
X$310 5510 265 37 235 5511 gf180mcu_fd_sc_mcu9t5v0__dffq_2
* cell instance $313 r0 *1 283.36,45.36
X$313 5510 267 37 266 5511 gf180mcu_fd_sc_mcu9t5v0__dffq_2
* cell instance $315 r0 *1 283.36,25.2
X$315 5510 195 37 162 5511 gf180mcu_fd_sc_mcu9t5v0__dffq_2
* cell instance $317 m0 *1 277.2,65.52
X$317 5510 342 37 419 5511 gf180mcu_fd_sc_mcu9t5v0__dffq_2
* cell instance $319 r0 *1 223.44,75.6
X$319 5510 472 37 452 5511 gf180mcu_fd_sc_mcu9t5v0__dffq_2
* cell instance $321 m0 *1 311.36,95.76
X$321 5510 602 37 565 5511 gf180mcu_fd_sc_mcu9t5v0__dffq_2
* cell instance $323 m0 *1 338.24,55.44
X$323 5510 314 37 313 5511 gf180mcu_fd_sc_mcu9t5v0__dffq_2
* cell instance $325 m0 *1 281.12,95.76
X$325 5510 559 37 560 5511 gf180mcu_fd_sc_mcu9t5v0__dffq_2
* cell instance $327 m0 *1 245.28,95.76
X$327 5510 599 37 598 5511 gf180mcu_fd_sc_mcu9t5v0__dffq_2
* cell instance $329 m0 *1 294.56,75.6
X$329 5510 311 37 478 5511 gf180mcu_fd_sc_mcu9t5v0__dffq_2
* cell instance $331 r0 *1 240.24,45.36
X$331 5510 308 37 264 5511 gf180mcu_fd_sc_mcu9t5v0__dffq_2
* cell instance $333 r0 *1 225.68,95.76
X$333 5510 634 37 658 5511 gf180mcu_fd_sc_mcu9t5v0__dffq_2
* cell instance $335 m0 *1 333.2,65.52
X$335 5510 316 37 387 5511 gf180mcu_fd_sc_mcu9t5v0__dffq_2
* cell instance $337 r0 *1 240.24,65.52
X$337 5510 309 37 381 5511 gf180mcu_fd_sc_mcu9t5v0__dffq_2
* cell instance $339 r0 *1 207.2,95.76
X$339 5510 595 37 596 5511 gf180mcu_fd_sc_mcu9t5v0__dffq_2
* cell instance $342 r0 *1 310.24,65.52
X$342 5510 312 37 422 5511 gf180mcu_fd_sc_mcu9t5v0__dffq_2
* cell instance $344 m0 *1 252,85.68
X$344 5510 485 37 475 5511 gf180mcu_fd_sc_mcu9t5v0__dffq_2
* cell instance $346 m0 *1 274.4,75.6
X$346 5510 477 37 476 5511 gf180mcu_fd_sc_mcu9t5v0__dffq_2
* cell instance $348 m0 *1 277.76,55.44
X$348 5510 226 37 5511 gf180mcu_fd_sc_mcu9t5v0__clkbuf_20
* cell instance $354 r0 *1 221.76,85.68
X$354 5510 557 37 524 5511 gf180mcu_fd_sc_mcu9t5v0__dffq_2
* cell instance $388 m0 *1 110.88,25.2
X$388 5510 5511 40 149 gf180mcu_fd_sc_mcu9t5v0__clkbuf_3
* cell instance $393 m0 *1 157.36,15.12
X$393 5510 128 57 41 5511 gf180mcu_fd_sc_mcu9t5v0__dffq_2
* cell instance $396 m0 *1 175.84,15.12
X$396 5510 129 57 42 5511 gf180mcu_fd_sc_mcu9t5v0__dffq_2
* cell instance $399 r0 *1 181.44,15.12
X$399 5511 139 129 5510 43 gf180mcu_fd_sc_mcu9t5v0__and2_2
* cell instance $404 r0 *1 267.68,15.12
X$404 5511 127 45 5510 93 gf180mcu_fd_sc_mcu9t5v0__and2_2
* cell instance $411 r0 *1 549.36,15.12
X$411 5510 5511 46 253 gf180mcu_fd_sc_mcu9t5v0__clkbuf_3
* cell instance $416 m0 *1 464.24,15.12
X$416 5510 47 87 5511 gf180mcu_fd_sc_mcu9t5v0__clkbuf_8
* cell instance $421 m0 *1 456.96,15.12
X$421 48 5511 5510 151 gf180mcu_fd_sc_mcu9t5v0__buf_2
* cell instance $426 r0 *1 437.36,5.04
X$426 49 5511 5510 152 gf180mcu_fd_sc_mcu9t5v0__buf_2
* cell instance $431 m0 *1 113.68,15.12
X$431 5510 187 57 50 5511 gf180mcu_fd_sc_mcu9t5v0__dffq_2
* cell instance $440 r0 *1 393.12,15.12
X$440 5510 52 153 100 5511 gf180mcu_fd_sc_mcu9t5v0__dffq_2
* cell instance $444 r0 *1 405.44,25.2
X$444 5510 319 197 77 196 126 52 171 5511 gf180mcu_fd_sc_mcu9t5v0__mux4_2
* cell instance $446 m0 *1 404.88,35.28
X$446 5510 229 243 77 196 168 52 171 5511 gf180mcu_fd_sc_mcu9t5v0__mux4_2
* cell instance $449 r0 *1 386.96,5.04
X$449 53 5511 5510 75 gf180mcu_fd_sc_mcu9t5v0__buf_2
* cell instance $454 m0 *1 393.68,156.24
X$454 5510 5511 54 1019 915 gf180mcu_fd_sc_mcu9t5v0__nand2_2
* cell instance $457 m0 *1 400.96,156.24
X$457 5510 54 105 990 5511 gf180mcu_fd_sc_mcu9t5v0__dffq_2
* cell instance $463 r0 *1 332.08,5.04
X$463 55 5511 5510 96 gf180mcu_fd_sc_mcu9t5v0__buf_2
* cell instance $469 r0 *1 113.68,146.16
X$469 5510 5511 56 897 gf180mcu_fd_sc_mcu9t5v0__buf_4
* cell instance $471 r0 *1 87.92,65.52
X$471 5510 5511 56 416 gf180mcu_fd_sc_mcu9t5v0__buf_4
* cell instance $474 m0 *1 84.56,136.08
X$474 5510 5511 844 56 791 846 gf180mcu_fd_sc_mcu9t5v0__mux2_2
* cell instance $483 m0 *1 93.52,45.36
X$483 5510 259 57 287 5511 gf180mcu_fd_sc_mcu9t5v0__dffq_2
* cell instance $485 m0 *1 140.56,65.52
X$485 5510 377 57 406 5511 gf180mcu_fd_sc_mcu9t5v0__dffq_2
* cell instance $487 r0 *1 141.68,25.2
X$487 5510 156 57 202 5511 gf180mcu_fd_sc_mcu9t5v0__dffq_2
* cell instance $490 m0 *1 147.84,55.44
X$490 5510 335 57 300 5511 gf180mcu_fd_sc_mcu9t5v0__dffq_2
* cell instance $492 m0 *1 139.44,35.28
X$492 5510 5511 57 gf180mcu_fd_sc_mcu9t5v0__clkinv_8
* cell instance $494 m0 *1 78.96,35.28
X$494 5510 185 57 183 5511 gf180mcu_fd_sc_mcu9t5v0__dffq_2
* cell instance $497 m0 *1 95.76,35.28
X$497 5510 207 57 186 5511 gf180mcu_fd_sc_mcu9t5v0__dffq_2
* cell instance $501 r0 *1 107.52,55.44
X$501 5510 373 57 333 5511 gf180mcu_fd_sc_mcu9t5v0__dffq_2
* cell instance $504 r0 *1 192.08,35.28
X$504 5510 228 57 227 5511 gf180mcu_fd_sc_mcu9t5v0__dffq_2
* cell instance $507 r0 *1 175.28,35.28
X$507 5510 305 57 210 5511 gf180mcu_fd_sc_mcu9t5v0__dffq_2
* cell instance $510 r0 *1 168.56,45.36
X$510 5510 361 57 304 5511 gf180mcu_fd_sc_mcu9t5v0__dffq_2
* cell instance $512 m0 *1 94.64,15.12
X$512 5510 58 57 86 5511 gf180mcu_fd_sc_mcu9t5v0__dffq_2
* cell instance $517 m0 *1 134.4,15.12
X$517 5510 61 57 89 5511 gf180mcu_fd_sc_mcu9t5v0__dffq_2
* cell instance $519 r0 *1 195.44,15.12
X$519 5510 130 57 119 5511 gf180mcu_fd_sc_mcu9t5v0__dffq_2
* cell instance $522 r0 *1 117.6,45.36
X$522 5510 297 57 290 5511 gf180mcu_fd_sc_mcu9t5v0__dffq_2
* cell instance $524 r0 *1 139.44,35.28
X$524 5510 226 57 5511 gf180mcu_fd_sc_mcu9t5v0__clkbuf_20
* cell instance $528 m0 *1 84.56,65.52
X$528 5510 370 57 404 5511 gf180mcu_fd_sc_mcu9t5v0__dffq_2
* cell instance $531 m0 *1 215.04,15.12
X$531 5510 92 57 91 5511 gf180mcu_fd_sc_mcu9t5v0__dffq_2
* cell instance $533 r0 *1 208.32,25.2
X$533 5510 190 57 189 5511 gf180mcu_fd_sc_mcu9t5v0__dffq_2
* cell instance $535 r0 *1 117.6,25.2
X$535 5510 188 57 178 5511 gf180mcu_fd_sc_mcu9t5v0__dffq_2
* cell instance $538 r0 *1 67.76,95.76
X$538 5510 553 57 622 5511 gf180mcu_fd_sc_mcu9t5v0__dffq_2
* cell instance $564 r0 *1 158.48,25.2
X$564 5510 336 132 129 156 157 58 128 5511 gf180mcu_fd_sc_mcu9t5v0__mux4_2
* cell instance $566 m0 *1 157.92,25.2
X$566 5510 303 197 129 156 126 58 128 5511 gf180mcu_fd_sc_mcu9t5v0__mux4_2
* cell instance $573 m0 *1 133.28,35.28
X$573 5511 127 187 5510 59 gf180mcu_fd_sc_mcu9t5v0__and2_2
* cell instance $577 r0 *1 90.16,25.2
X$577 5510 5511 183 184 125 60 gf180mcu_fd_sc_mcu9t5v0__mux2_2
* cell instance $579 m0 *1 86.8,15.12
X$579 5510 5511 154 60 gf180mcu_fd_sc_mcu9t5v0__buf_4
* cell instance $582 m0 *1 138.88,25.2
X$582 5510 5511 178 155 103 60 gf180mcu_fd_sc_mcu9t5v0__mux2_2
* cell instance $584 r0 *1 89.6,176.4
X$584 5510 5511 1230 1190 1121 60 gf180mcu_fd_sc_mcu9t5v0__mux2_2
* cell instance $587 m0 *1 202.72,15.12
X$587 5510 5511 119 63 64 60 gf180mcu_fd_sc_mcu9t5v0__mux2_2
* cell instance $589 m0 *1 182,35.28
X$589 5510 5511 210 60 192 231 gf180mcu_fd_sc_mcu9t5v0__mux2_2
* cell instance $591 r0 *1 115.36,85.68
X$591 5510 5511 552 60 527 625 gf180mcu_fd_sc_mcu9t5v0__mux2_2
* cell instance $594 r0 *1 101.92,85.68
X$594 5510 5511 581 60 456 521 gf180mcu_fd_sc_mcu9t5v0__mux2_2
* cell instance $597 m0 *1 201.6,35.28
X$597 5510 5511 227 211 193 60 gf180mcu_fd_sc_mcu9t5v0__mux2_2
* cell instance $599 m0 *1 192.08,206.64
X$599 5510 5511 1363 60 1247 1408 gf180mcu_fd_sc_mcu9t5v0__mux2_2
* cell instance $622 m0 *1 138.88,75.6
X$622 5510 515 205 335 446 255 61 377 5511 gf180mcu_fd_sc_mcu9t5v0__mux4_2
* cell instance $624 r0 *1 141.68,75.6
X$624 5510 481 482 335 446 126 61 377 5511 gf180mcu_fd_sc_mcu9t5v0__mux4_2
* cell instance $633 r0 *1 165.76,15.12
X$633 5511 127 128 5510 62 gf180mcu_fd_sc_mcu9t5v0__and2_2
* cell instance $637 r0 *1 212.24,15.12
X$637 5511 131 130 5510 63 gf180mcu_fd_sc_mcu9t5v0__and2_2
* cell instance $642 r0 *1 539.84,75.6
X$642 5510 466 64 5511 gf180mcu_fd_sc_mcu9t5v0__clkbuf_8
* cell instance $644 m0 *1 540.96,45.36
X$644 5510 5511 275 292 64 245 gf180mcu_fd_sc_mcu9t5v0__mux2_2
* cell instance $646 m0 *1 512.4,15.12
X$646 5510 5511 83 84 64 111 gf180mcu_fd_sc_mcu9t5v0__mux2_2
* cell instance $648 r0 *1 371.28,35.28
X$648 5510 5511 240 241 64 123 gf180mcu_fd_sc_mcu9t5v0__mux2_2
* cell instance $650 r0 *1 322.56,35.28
X$650 5510 5511 237 238 64 94 gf180mcu_fd_sc_mcu9t5v0__mux2_2
* cell instance $654 r0 *1 272.72,35.28
X$654 5510 5511 235 236 64 67 gf180mcu_fd_sc_mcu9t5v0__mux2_2
* cell instance $656 m0 *1 225.68,85.68
X$656 5510 5511 524 525 64 302 gf180mcu_fd_sc_mcu9t5v0__mux2_2
* cell instance $658 m0 *1 226.24,75.6
X$658 5510 5511 452 453 64 299 gf180mcu_fd_sc_mcu9t5v0__mux2_2
* cell instance $660 m0 *1 426.72,45.36
X$660 5510 5511 271 272 64 102 gf180mcu_fd_sc_mcu9t5v0__mux2_2
* cell instance $676 r0 *1 240.24,15.12
X$676 5510 5511 66 67 gf180mcu_fd_sc_mcu9t5v0__clkbuf_4
* cell instance $678 r0 *1 239.12,146.16
X$678 5510 5511 66 780 gf180mcu_fd_sc_mcu9t5v0__clkbuf_4
* cell instance $680 m0 *1 240.8,75.6
X$680 5510 5511 66 420 gf180mcu_fd_sc_mcu9t5v0__buf_4
* cell instance $682 m0 *1 147.28,25.2
X$682 5510 5511 179 66 gf180mcu_fd_sc_mcu9t5v0__clkbuf_3
* cell instance $685 m0 *1 224,156.24
X$685 5510 5511 940 66 791 974 gf180mcu_fd_sc_mcu9t5v0__mux2_2
* cell instance $693 r0 *1 272.72,15.12
X$693 5510 5511 133 134 103 67 gf180mcu_fd_sc_mcu9t5v0__mux2_2
* cell instance $696 m0 *1 235.76,176.4
X$696 5510 5511 1171 1127 1121 67 gf180mcu_fd_sc_mcu9t5v0__mux2_2
* cell instance $699 m0 *1 272.72,236.88
X$699 5510 5511 1675 1676 1302 67 gf180mcu_fd_sc_mcu9t5v0__mux2_2
* cell instance $703 r0 *1 249.2,95.76
X$703 5510 5511 598 67 527 628 gf180mcu_fd_sc_mcu9t5v0__mux2_2
* cell instance $705 m0 *1 260.4,75.6
X$705 5510 5511 475 67 456 455 gf180mcu_fd_sc_mcu9t5v0__mux2_2
* cell instance $708 m0 *1 242.48,25.2
X$708 5510 5511 181 159 125 67 gf180mcu_fd_sc_mcu9t5v0__mux2_2
* cell instance $711 m0 *1 244.72,45.36
X$711 5510 5511 264 67 192 293 gf180mcu_fd_sc_mcu9t5v0__mux2_2
* cell instance $713 r0 *1 247.52,206.64
X$713 5510 5511 1432 67 1247 1433 gf180mcu_fd_sc_mcu9t5v0__mux2_2
* cell instance $727 m0 *1 286.72,166.32
X$727 5510 5511 68 1083 911 gf180mcu_fd_sc_mcu9t5v0__nand2_2
* cell instance $729 r0 *1 283.36,166.32
X$729 5510 68 745 1082 5511 gf180mcu_fd_sc_mcu9t5v0__dffq_2
* cell instance $738 m0 *1 268.8,156.24
X$738 69 5511 5510 977 gf180mcu_fd_sc_mcu9t5v0__buf_3
* cell instance $741 r0 *1 286.72,15.12
X$741 5510 5511 69 94 gf180mcu_fd_sc_mcu9t5v0__clkbuf_4
* cell instance $744 r0 *1 292.32,75.6
X$744 5510 5511 69 457 gf180mcu_fd_sc_mcu9t5v0__clkbuf_4
* cell instance $747 r0 *1 151.76,15.12
X$747 5510 5511 90 69 gf180mcu_fd_sc_mcu9t5v0__clkbuf_3
* cell instance $751 m0 *1 243.04,156.24
X$751 5510 5511 941 69 791 976 gf180mcu_fd_sc_mcu9t5v0__mux2_2
* cell instance $764 r0 *1 301.28,25.2
X$764 5510 386 158 165 195 164 70 95 5511 gf180mcu_fd_sc_mcu9t5v0__mux4_2
* cell instance $766 m0 *1 300.72,35.28
X$766 5510 295 205 165 195 168 70 95 5511 gf180mcu_fd_sc_mcu9t5v0__mux4_2
* cell instance $770 r0 *1 314.72,15.12
X$770 5511 127 95 5510 72 gf180mcu_fd_sc_mcu9t5v0__and2_2
* cell instance $776 m0 *1 352.8,25.2
X$776 5510 239 132 99 138 157 73 169 5511 gf180mcu_fd_sc_mcu9t5v0__mux4_2
* cell instance $778 r0 *1 353.92,25.2
X$778 5510 230 204 99 138 164 73 169 5511 gf180mcu_fd_sc_mcu9t5v0__mux4_2
* cell instance $782 m0 *1 376.32,156.24
X$782 5510 5511 74 909 911 gf180mcu_fd_sc_mcu9t5v0__nand2_2
* cell instance $784 r0 *1 371.84,146.16
X$784 5510 74 153 933 5511 gf180mcu_fd_sc_mcu9t5v0__dffq_2
* cell instance $789 m0 *1 409.92,75.6
X$789 5510 5511 75 393 gf180mcu_fd_sc_mcu9t5v0__buf_4
* cell instance $792 m0 *1 400.96,25.2
X$792 5510 5511 75 102 gf180mcu_fd_sc_mcu9t5v0__clkbuf_4
* cell instance $794 m0 *1 400.96,126
X$794 5510 5511 75 631 gf180mcu_fd_sc_mcu9t5v0__clkbuf_4
* cell instance $796 m0 *1 400.96,136.08
X$796 5510 5511 856 75 791 892 gf180mcu_fd_sc_mcu9t5v0__mux2_2
* cell instance $809 r0 *1 405.44,226.8
X$809 5510 76 1368 1621 5511 gf180mcu_fd_sc_mcu9t5v0__dffq_2
* cell instance $812 m0 *1 419.44,226.8
X$812 5510 5511 76 1620 911 gf180mcu_fd_sc_mcu9t5v0__nand2_2
* cell instance $816 m0 *1 411.04,15.12
X$816 5510 77 105 101 5511 gf180mcu_fd_sc_mcu9t5v0__dffq_2
* cell instance $818 r0 *1 414.4,15.12
X$818 5511 139 77 5510 118 gf180mcu_fd_sc_mcu9t5v0__and2_2
* cell instance $825 m0 *1 424.48,146.16
X$825 5510 5511 78 912 911 gf180mcu_fd_sc_mcu9t5v0__nand2_2
* cell instance $828 m0 *1 423.36,156.24
X$828 5510 78 105 949 5511 gf180mcu_fd_sc_mcu9t5v0__dffq_2
* cell instance $838 m0 *1 456.96,146.16
X$838 5510 5511 79 860 915 gf180mcu_fd_sc_mcu9t5v0__nand2_2
* cell instance $841 r0 *1 456.96,136.08
X$841 5510 79 862 861 5511 gf180mcu_fd_sc_mcu9t5v0__dffq_2
* cell instance $851 m0 *1 495.04,85.68
X$851 5510 501 80 520 5511 gf180mcu_fd_sc_mcu9t5v0__dffq_2
* cell instance $853 m0 *1 534.8,105.84
X$853 5510 617 80 654 5511 gf180mcu_fd_sc_mcu9t5v0__dffq_2
* cell instance $856 r0 *1 529.76,115.92
X$856 5510 616 80 754 5511 gf180mcu_fd_sc_mcu9t5v0__dffq_2
* cell instance $858 m0 *1 550.48,115.92
X$858 5510 714 80 713 5511 gf180mcu_fd_sc_mcu9t5v0__dffq_2
* cell instance $860 m0 *1 558.88,136.08
X$860 5510 867 80 832 5511 gf180mcu_fd_sc_mcu9t5v0__dffq_2
* cell instance $862 m0 *1 582.4,105.84
X$862 5510 647 80 689 5511 gf180mcu_fd_sc_mcu9t5v0__dffq_2
* cell instance $865 r0 *1 560,105.84
X$865 5510 680 80 679 5511 gf180mcu_fd_sc_mcu9t5v0__dffq_2
* cell instance $867 r0 *1 519.68,75.6
X$867 5510 325 80 463 5511 gf180mcu_fd_sc_mcu9t5v0__dffq_2
* cell instance $870 m0 *1 549.36,85.68
X$870 5510 505 80 503 5511 gf180mcu_fd_sc_mcu9t5v0__dffq_2
* cell instance $872 m0 *1 582.4,75.6
X$872 5510 465 80 433 5511 gf180mcu_fd_sc_mcu9t5v0__dffq_2
* cell instance $875 m0 *1 582.4,55.44
X$875 5510 356 80 357 5511 gf180mcu_fd_sc_mcu9t5v0__dffq_2
* cell instance $877 m0 *1 556.08,45.36
X$877 5510 279 80 277 5511 gf180mcu_fd_sc_mcu9t5v0__dffq_2
* cell instance $879 m0 *1 582.4,45.36
X$879 5510 281 80 280 5511 gf180mcu_fd_sc_mcu9t5v0__dffq_2
* cell instance $881 r0 *1 507.36,35.28
X$881 5510 221 80 220 5511 gf180mcu_fd_sc_mcu9t5v0__dffq_2
* cell instance $883 m0 *1 540.96,75.6
X$883 5510 533 80 5511 gf180mcu_fd_sc_mcu9t5v0__clkbuf_20
* cell instance $889 r0 *1 539.28,45.36
X$889 5510 276 80 275 5511 gf180mcu_fd_sc_mcu9t5v0__dffq_2
* cell instance $892 m0 *1 553.28,65.52
X$892 5510 398 80 409 5511 gf180mcu_fd_sc_mcu9t5v0__dffq_2
* cell instance $894 m0 *1 520.8,35.28
X$894 5510 251 80 224 5511 gf180mcu_fd_sc_mcu9t5v0__dffq_2
* cell instance $897 r0 *1 508.48,15.12
X$897 5510 112 80 83 5511 gf180mcu_fd_sc_mcu9t5v0__dffq_2
* cell instance $899 m0 *1 486.64,65.52
X$899 5510 351 80 427 5511 gf180mcu_fd_sc_mcu9t5v0__dffq_2
* cell instance $901 m0 *1 500.08,75.6
X$901 5510 352 80 428 5511 gf180mcu_fd_sc_mcu9t5v0__dffq_2
* cell instance $903 m0 *1 494.48,25.2
X$903 5510 146 80 82 5511 gf180mcu_fd_sc_mcu9t5v0__dffq_2
* cell instance $905 r0 *1 591.92,85.68
X$905 5510 508 80 537 5511 gf180mcu_fd_sc_mcu9t5v0__dffq_2
* cell instance $907 m0 *1 492.24,35.28
X$907 5510 216 80 218 5511 gf180mcu_fd_sc_mcu9t5v0__dffq_2
* cell instance $910 r0 *1 477.68,45.36
X$910 5510 248 80 274 5511 gf180mcu_fd_sc_mcu9t5v0__dffq_2
* cell instance $913 r0 *1 534.24,65.52
X$913 5510 353 80 434 5511 gf180mcu_fd_sc_mcu9t5v0__dffq_2
* cell instance $915 r0 *1 537.6,75.6
X$915 5510 5511 80 gf180mcu_fd_sc_mcu9t5v0__clkinv_1
* cell instance $918 m0 *1 561.12,95.76
X$918 5510 507 80 573 5511 gf180mcu_fd_sc_mcu9t5v0__dffq_2
* cell instance $920 m0 *1 478.8,15.12
X$920 5510 108 80 109 5511 gf180mcu_fd_sc_mcu9t5v0__dffq_2
* cell instance $944 r0 *1 465.36,146.16
X$944 5510 81 862 954 5511 gf180mcu_fd_sc_mcu9t5v0__dffq_2
* cell instance $947 r0 *1 460.32,146.16
X$947 5510 5511 81 953 915 gf180mcu_fd_sc_mcu9t5v0__nand2_2