* CDL Netlist generated by OpenROAD

*.BUSDELIMITER [

.SUBCKT performance_counter all_counts[0] all_counts[100]
+ all_counts[101] all_counts[102] all_counts[103] all_counts[104]
+ all_counts[105] all_counts[106] all_counts[107] all_counts[108]
+ all_counts[109] all_counts[10] all_counts[110] all_counts[111]
+ all_counts[112] all_counts[113] all_counts[114] all_counts[115]
+ all_counts[116] all_counts[117] all_counts[118] all_counts[119]
+ all_counts[11] all_counts[120] all_counts[121] all_counts[122]
+ all_counts[123] all_counts[124] all_counts[125] all_counts[126]
+ all_counts[127] all_counts[128] all_counts[129] all_counts[12]
+ all_counts[130] all_counts[131] all_counts[132] all_counts[133]
+ all_counts[134] all_counts[135] all_counts[136] all_counts[137]
+ all_counts[138] all_counts[139] all_counts[13] all_counts[140]
+ all_counts[141] all_counts[142] all_counts[143] all_counts[144]
+ all_counts[145] all_counts[146] all_counts[147] all_counts[148]
+ all_counts[149] all_counts[14] all_counts[150] all_counts[151]
+ all_counts[152] all_counts[153] all_counts[154] all_counts[155]
+ all_counts[156] all_counts[157] all_counts[158] all_counts[159]
+ all_counts[15] all_counts[160] all_counts[161] all_counts[162]
+ all_counts[163] all_counts[164] all_counts[165] all_counts[166]
+ all_counts[167] all_counts[168] all_counts[169] all_counts[16]
+ all_counts[170] all_counts[171] all_counts[172] all_counts[173]
+ all_counts[174] all_counts[175] all_counts[176] all_counts[177]
+ all_counts[178] all_counts[179] all_counts[17] all_counts[180]
+ all_counts[181] all_counts[182] all_counts[183] all_counts[184]
+ all_counts[185] all_counts[186] all_counts[187] all_counts[188]
+ all_counts[189] all_counts[18] all_counts[190] all_counts[191]
+ all_counts[192] all_counts[193] all_counts[194] all_counts[195]
+ all_counts[196] all_counts[197] all_counts[198] all_counts[199]
+ all_counts[19] all_counts[1] all_counts[200] all_counts[201]
+ all_counts[202] all_counts[203] all_counts[204] all_counts[205]
+ all_counts[206] all_counts[207] all_counts[208] all_counts[209]
+ all_counts[20] all_counts[210] all_counts[211] all_counts[212]
+ all_counts[213] all_counts[214] all_counts[215] all_counts[216]
+ all_counts[217] all_counts[218] all_counts[219] all_counts[21]
+ all_counts[220] all_counts[221] all_counts[222] all_counts[223]
+ all_counts[224] all_counts[225] all_counts[226] all_counts[227]
+ all_counts[228] all_counts[229] all_counts[22] all_counts[230]
+ all_counts[231] all_counts[232] all_counts[233] all_counts[234]
+ all_counts[235] all_counts[236] all_counts[237] all_counts[238]
+ all_counts[239] all_counts[23] all_counts[240] all_counts[241]
+ all_counts[242] all_counts[243] all_counts[244] all_counts[245]
+ all_counts[246] all_counts[247] all_counts[248] all_counts[249]
+ all_counts[24] all_counts[250] all_counts[251] all_counts[252]
+ all_counts[253] all_counts[254] all_counts[255] all_counts[25]
+ all_counts[26] all_counts[27] all_counts[28] all_counts[29]
+ all_counts[2] all_counts[30] all_counts[31] all_counts[32]
+ all_counts[33] all_counts[34] all_counts[35] all_counts[36]
+ all_counts[37] all_counts[38] all_counts[39] all_counts[3]
+ all_counts[40] all_counts[41] all_counts[42] all_counts[43]
+ all_counts[44] all_counts[45] all_counts[46] all_counts[47]
+ all_counts[48] all_counts[49] all_counts[4] all_counts[50]
+ all_counts[51] all_counts[52] all_counts[53] all_counts[54]
+ all_counts[55] all_counts[56] all_counts[57] all_counts[58]
+ all_counts[59] all_counts[5] all_counts[60] all_counts[61]
+ all_counts[62] all_counts[63] all_counts[64] all_counts[65]
+ all_counts[66] all_counts[67] all_counts[68] all_counts[69]
+ all_counts[6] all_counts[70] all_counts[71] all_counts[72]
+ all_counts[73] all_counts[74] all_counts[75] all_counts[76]
+ all_counts[77] all_counts[78] all_counts[79] all_counts[7]
+ all_counts[80] all_counts[81] all_counts[82] all_counts[83]
+ all_counts[84] all_counts[85] all_counts[86] all_counts[87]
+ all_counts[88] all_counts[89] all_counts[8] all_counts[90]
+ all_counts[91] all_counts[92] all_counts[93] all_counts[94]
+ all_counts[95] all_counts[96] all_counts[97] all_counts[98]
+ all_counts[99] all_counts[9] clear clk count_value[0] count_value[10]
+ count_value[11] count_value[12] count_value[13] count_value[14]
+ count_value[15] count_value[16] count_value[17] count_value[18]
+ count_value[19] count_value[1] count_value[20] count_value[21]
+ count_value[22] count_value[23] count_value[24] count_value[25]
+ count_value[26] count_value[27] count_value[28] count_value[29]
+ count_value[2] count_value[30] count_value[31] count_value[3]
+ count_value[4] count_value[5] count_value[6] count_value[7]
+ count_value[8] count_value[9] counter_sel[0] counter_sel[1]
+ counter_sel[2] counter_sel[3] counter_sel[4] counter_sel[5]
+ counter_sel[6] counter_sel[7] enable event_inc[0] event_inc[1]
+ event_inc[2] event_inc[3] event_inc[4] event_inc[5] event_inc[6]
+ event_inc[7] rst_n
X_1458_ net1 _1126_ VDD VSS gf180mcu_fd_sc_mcu9t5v0__inv_4
X_1459_ _1126_ _1127_ VDD VSS gf180mcu_fd_sc_mcu9t5v0__buf_4
X_1460_ _1127_ _1128_ VDD VSS gf180mcu_fd_sc_mcu9t5v0__clkbuf_4
X_1461_ prev_event_inc\[0\] _1129_ VDD VSS gf180mcu_fd_sc_mcu9t5v0__clkinv_2
X_1462_ net6 net7 _1130_ VDD VSS gf180mcu_fd_sc_mcu9t5v0__and2_2
X_1463_ _1129_ _1130_ _1131_ VDD VSS gf180mcu_fd_sc_mcu9t5v0__and2_2
X_1464_ net16 _1131_ _1132_ VDD VSS gf180mcu_fd_sc_mcu9t5v0__xor2_2
X_1465_ _1128_ _1132_ _0000_ VDD VSS gf180mcu_fd_sc_mcu9t5v0__and2_2
X_1466_ net6 _1133_ VDD VSS gf180mcu_fd_sc_mcu9t5v0__clkbuf_8
X_1467_ prev_event_inc\[3\] _1134_ VDD VSS gf180mcu_fd_sc_mcu9t5v0__clkinv_2
X_1468_ net269 net270 _1454_ _1135_ VDD VSS gf180mcu_fd_sc_mcu9t5v0__and3_2
X_1469_ _1133_ net10 _1134_ _1135_ _1136_ VDD VSS gf180mcu_fd_sc_mcu9t5v0__and4_2
X_1470_ _1136_ _1137_ VDD VSS gf180mcu_fd_sc_mcu9t5v0__buf_4
X_1471_ net17 _1137_ _1138_ VDD VSS gf180mcu_fd_sc_mcu9t5v0__xor2_2
X_1472_ _1128_ _1138_ _0001_ VDD VSS gf180mcu_fd_sc_mcu9t5v0__and2_2
X_1473_ net267 net268 net269 net270 _1139_ VDD VSS gf180mcu_fd_sc_mcu9t5v0__and4_2
X_1474_ _1133_ net10 _1134_ _1139_ _1140_ VDD VSS gf180mcu_fd_sc_mcu9t5v0__and4_4
X_1475_ net17 _1140_ _1141_ VDD VSS gf180mcu_fd_sc_mcu9t5v0__nand2_2
X_1476_ net18 _1141_ _1142_ VDD VSS gf180mcu_fd_sc_mcu9t5v0__xnor2_2
X_1477_ _1128_ _1142_ _0002_ VDD VSS gf180mcu_fd_sc_mcu9t5v0__and2_2
X_1478_ net1 _1143_ VDD VSS gf180mcu_fd_sc_mcu9t5v0__clkbuf_8
X_1479_ net17 net18 _1137_ _1144_ VDD VSS gf180mcu_fd_sc_mcu9t5v0__nand3_2
X_1480_ net19 _1144_ _1145_ VDD VSS gf180mcu_fd_sc_mcu9t5v0__xor2_2
X_1481_ _1143_ _1145_ _0003_ VDD VSS gf180mcu_fd_sc_mcu9t5v0__nor2_2
X_1482_ net17 net18 net19 _1146_ VDD VSS gf180mcu_fd_sc_mcu9t5v0__and3_2
X_1483_ _1140_ _1146_ _1147_ VDD VSS gf180mcu_fd_sc_mcu9t5v0__nand2_2
X_1484_ net20 _1147_ _1148_ VDD VSS gf180mcu_fd_sc_mcu9t5v0__xnor2_2
X_1485_ _1128_ _1148_ _0004_ VDD VSS gf180mcu_fd_sc_mcu9t5v0__and2_2
X_1486_ net20 _1137_ _1146_ _1149_ VDD VSS gf180mcu_fd_sc_mcu9t5v0__and3_2
X_1487_ net21 _1149_ _1150_ VDD VSS gf180mcu_fd_sc_mcu9t5v0__xor2_2
X_1488_ _1128_ _1150_ _0005_ VDD VSS gf180mcu_fd_sc_mcu9t5v0__and2_2
X_1489_ net20 net21 _1151_ VDD VSS gf180mcu_fd_sc_mcu9t5v0__and2_2
X_1490_ _1140_ _1146_ _1151_ _1152_ VDD VSS gf180mcu_fd_sc_mcu9t5v0__and3_2
X_1491_ net22 _1152_ _1153_ VDD VSS gf180mcu_fd_sc_mcu9t5v0__xor2_2
X_1492_ _1128_ _1153_ _0006_ VDD VSS gf180mcu_fd_sc_mcu9t5v0__and2_2
X_1493_ net22 _1137_ _1146_ _1151_ _1154_ VDD VSS gf180mcu_fd_sc_mcu9t5v0__and4_2
X_1494_ net23 _1154_ _1155_ VDD VSS gf180mcu_fd_sc_mcu9t5v0__xor2_2
X_1495_ _1128_ _1155_ _0007_ VDD VSS gf180mcu_fd_sc_mcu9t5v0__and2_2
X_1496_ net20 net21 net22 net23 _1156_ VDD VSS gf180mcu_fd_sc_mcu9t5v0__and4_2
X_1497_ _1140_ _1146_ _1156_ _1157_ VDD VSS gf180mcu_fd_sc_mcu9t5v0__and3_2
X_1498_ net24 _1157_ _1158_ VDD VSS gf180mcu_fd_sc_mcu9t5v0__xor2_2
X_1499_ _1128_ _1158_ _0008_ VDD VSS gf180mcu_fd_sc_mcu9t5v0__and2_2
X_1500_ net24 _1137_ _1146_ _1156_ _1159_ VDD VSS gf180mcu_fd_sc_mcu9t5v0__and4_2
X_1501_ net25 _1159_ _1160_ VDD VSS gf180mcu_fd_sc_mcu9t5v0__xor2_2
X_1502_ _1128_ _1160_ _0009_ VDD VSS gf180mcu_fd_sc_mcu9t5v0__and2_2
X_1503_ net24 net25 _1161_ VDD VSS gf180mcu_fd_sc_mcu9t5v0__and2_2
X_1504_ _1156_ _1161_ _1162_ VDD VSS gf180mcu_fd_sc_mcu9t5v0__and2_2
X_1505_ _1140_ _1146_ _1162_ _1163_ VDD VSS gf180mcu_fd_sc_mcu9t5v0__and3_2
X_1506_ net26 _1163_ _1164_ VDD VSS gf180mcu_fd_sc_mcu9t5v0__xor2_2
X_1507_ _1128_ _1164_ _0010_ VDD VSS gf180mcu_fd_sc_mcu9t5v0__and2_2
X_1508_ _1127_ _1165_ VDD VSS gf180mcu_fd_sc_mcu9t5v0__buf_3
X_1509_ _1129_ _1444_ net194 _1130_ _1166_ VDD VSS gf180mcu_fd_sc_mcu9t5v0__and4_2
X_1510_ _1166_ _1167_ VDD VSS gf180mcu_fd_sc_mcu9t5v0__buf_4
X_1511_ net205 net216 net227 net238 _1168_ VDD VSS gf180mcu_fd_sc_mcu9t5v0__and4_2
X_1512_ net249 net260 _1168_ _1169_ VDD VSS gf180mcu_fd_sc_mcu9t5v0__and3_2
X_1513_ _1169_ _1170_ VDD VSS gf180mcu_fd_sc_mcu9t5v0__clkbuf_8
X_1514_ net271 _1167_ _1170_ _1171_ VDD VSS gf180mcu_fd_sc_mcu9t5v0__and3_2
X_1515_ net27 _1171_ _1172_ VDD VSS gf180mcu_fd_sc_mcu9t5v0__xor2_2
X_1516_ _1165_ _1172_ _0011_ VDD VSS gf180mcu_fd_sc_mcu9t5v0__and2_2
X_1517_ net26 _1137_ _1146_ _1162_ _1173_ VDD VSS gf180mcu_fd_sc_mcu9t5v0__and4_2
X_1518_ net28 _1173_ _1174_ VDD VSS gf180mcu_fd_sc_mcu9t5v0__xor2_2
X_1519_ _1165_ _1174_ _0012_ VDD VSS gf180mcu_fd_sc_mcu9t5v0__and2_2
X_1520_ net26 net28 _1175_ VDD VSS gf180mcu_fd_sc_mcu9t5v0__and2_2
X_1521_ _1146_ _1156_ _1161_ _1175_ _1176_ VDD VSS gf180mcu_fd_sc_mcu9t5v0__and4_2
X_1522_ _1176_ _1177_ VDD VSS gf180mcu_fd_sc_mcu9t5v0__clkbuf_4
X_1523_ _1140_ _1177_ _1178_ VDD VSS gf180mcu_fd_sc_mcu9t5v0__nand2_2
X_1524_ net29 _1178_ _1179_ VDD VSS gf180mcu_fd_sc_mcu9t5v0__xnor2_2
X_1525_ _1165_ _1179_ _0013_ VDD VSS gf180mcu_fd_sc_mcu9t5v0__and2_2
X_1526_ _1146_ _1175_ _1180_ VDD VSS gf180mcu_fd_sc_mcu9t5v0__and2_2
X_1527_ net29 _1136_ _1162_ _1180_ _1181_ VDD VSS gf180mcu_fd_sc_mcu9t5v0__and4_2
X_1528_ net30 _1181_ _1182_ VDD VSS gf180mcu_fd_sc_mcu9t5v0__xor2_2
X_1529_ _1165_ _1182_ _0014_ VDD VSS gf180mcu_fd_sc_mcu9t5v0__and2_2
X_1530_ net29 net30 _1183_ VDD VSS gf180mcu_fd_sc_mcu9t5v0__and2_2
X_1531_ _1140_ _1162_ _1180_ _1183_ _1184_ VDD VSS gf180mcu_fd_sc_mcu9t5v0__and4_2
X_1532_ net31 _1184_ _1185_ VDD VSS gf180mcu_fd_sc_mcu9t5v0__xor2_2
X_1533_ _1165_ _1185_ _0015_ VDD VSS gf180mcu_fd_sc_mcu9t5v0__and2_2
X_1534_ net31 _1136_ _1177_ _1183_ _1186_ VDD VSS gf180mcu_fd_sc_mcu9t5v0__and4_2
X_1535_ net32 _1186_ _1187_ VDD VSS gf180mcu_fd_sc_mcu9t5v0__xor2_2
X_1536_ _1165_ _1187_ _0016_ VDD VSS gf180mcu_fd_sc_mcu9t5v0__and2_2
X_1537_ net29 net30 net31 net32 _1188_ VDD VSS gf180mcu_fd_sc_mcu9t5v0__and4_2
X_1538_ _1140_ _1177_ _1188_ _1189_ VDD VSS gf180mcu_fd_sc_mcu9t5v0__and3_2
X_1539_ net33 _1189_ _1190_ VDD VSS gf180mcu_fd_sc_mcu9t5v0__xor2_2
X_1540_ _1165_ _1190_ _0017_ VDD VSS gf180mcu_fd_sc_mcu9t5v0__and2_2
X_1541_ net33 _1136_ _1177_ _1188_ _1191_ VDD VSS gf180mcu_fd_sc_mcu9t5v0__and4_2
X_1542_ net34 _1191_ _1192_ VDD VSS gf180mcu_fd_sc_mcu9t5v0__xor2_2
X_1543_ _1165_ _1192_ _0018_ VDD VSS gf180mcu_fd_sc_mcu9t5v0__and2_2
X_1544_ net33 net34 _1188_ _1193_ VDD VSS gf180mcu_fd_sc_mcu9t5v0__and3_2
X_1545_ _1140_ _1176_ _1193_ _1194_ VDD VSS gf180mcu_fd_sc_mcu9t5v0__and3_2
X_1546_ net35 _1194_ _1195_ VDD VSS gf180mcu_fd_sc_mcu9t5v0__xor2_2
X_1547_ _1165_ _1195_ _0019_ VDD VSS gf180mcu_fd_sc_mcu9t5v0__and2_2
X_1548_ net35 _1136_ _1177_ _1193_ _1196_ VDD VSS gf180mcu_fd_sc_mcu9t5v0__and4_2
X_1549_ net36 _1196_ _1197_ VDD VSS gf180mcu_fd_sc_mcu9t5v0__xor2_2
X_1550_ _1165_ _1197_ _0020_ VDD VSS gf180mcu_fd_sc_mcu9t5v0__and2_2
X_1551_ _1126_ _1198_ VDD VSS gf180mcu_fd_sc_mcu9t5v0__buf_4
X_1552_ _1198_ net37 _1199_ VDD VSS gf180mcu_fd_sc_mcu9t5v0__and2_2
X_1553_ net1 _1200_ VDD VSS gf180mcu_fd_sc_mcu9t5v0__clkbuf_8
X_1554_ _1200_ net37 _1201_ VDD VSS gf180mcu_fd_sc_mcu9t5v0__nor2_2
X_1555_ net35 net36 _1194_ _1202_ VDD VSS gf180mcu_fd_sc_mcu9t5v0__and3_2
X_1556_ _1199_ _1201_ _1202_ _0021_ VDD VSS gf180mcu_fd_sc_mcu9t5v0__mux2_2
X_1557_ _1127_ _1203_ VDD VSS gf180mcu_fd_sc_mcu9t5v0__buf_3
X_1558_ net16 net127 _1204_ VDD VSS gf180mcu_fd_sc_mcu9t5v0__and2_2
X_1559_ _1129_ net194 _1130_ _1204_ _1205_ VDD VSS gf180mcu_fd_sc_mcu9t5v0__and4_2
X_1560_ net271 net27 _1169_ _1205_ _1206_ VDD VSS gf180mcu_fd_sc_mcu9t5v0__and4_2
X_1561_ net38 _1206_ _1207_ VDD VSS gf180mcu_fd_sc_mcu9t5v0__xor2_2
X_1562_ _1203_ _1207_ _0022_ VDD VSS gf180mcu_fd_sc_mcu9t5v0__and2_2
X_1563_ net35 net36 net37 _1208_ VDD VSS gf180mcu_fd_sc_mcu9t5v0__and3_2
X_1564_ _1137_ _1177_ _1193_ _1208_ _1209_ VDD VSS gf180mcu_fd_sc_mcu9t5v0__and4_2
X_1565_ net39 _1209_ _1210_ VDD VSS gf180mcu_fd_sc_mcu9t5v0__xor2_2
X_1566_ _1203_ _1210_ _0023_ VDD VSS gf180mcu_fd_sc_mcu9t5v0__and2_2
X_1567_ _1198_ net40 _1211_ VDD VSS gf180mcu_fd_sc_mcu9t5v0__and2_2
X_1568_ _1200_ net40 _1212_ VDD VSS gf180mcu_fd_sc_mcu9t5v0__nor2_2
X_1569_ net35 net36 net37 net39 _1213_ VDD VSS gf180mcu_fd_sc_mcu9t5v0__and4_2
X_1570_ _1194_ _1213_ _1214_ VDD VSS gf180mcu_fd_sc_mcu9t5v0__and2_2
X_1571_ _1211_ _1212_ _1214_ _0024_ VDD VSS gf180mcu_fd_sc_mcu9t5v0__mux2_2
X_1572_ net40 _1213_ _1215_ VDD VSS gf180mcu_fd_sc_mcu9t5v0__and2_2
X_1573_ _1137_ _1177_ _1193_ _1215_ _1216_ VDD VSS gf180mcu_fd_sc_mcu9t5v0__and4_2
X_1574_ net41 _1216_ _1217_ VDD VSS gf180mcu_fd_sc_mcu9t5v0__xor2_2
X_1575_ _1203_ _1217_ _0025_ VDD VSS gf180mcu_fd_sc_mcu9t5v0__and2_2
X_1576_ net40 net41 _1213_ _1218_ VDD VSS gf180mcu_fd_sc_mcu9t5v0__and3_2
X_1577_ _1140_ _1177_ _1193_ _1218_ _1219_ VDD VSS gf180mcu_fd_sc_mcu9t5v0__and4_2
X_1578_ net42 _1219_ _1220_ VDD VSS gf180mcu_fd_sc_mcu9t5v0__xor2_2
X_1579_ _1203_ _1220_ _0026_ VDD VSS gf180mcu_fd_sc_mcu9t5v0__and2_2
X_1580_ net40 net41 net42 _1213_ _1221_ VDD VSS gf180mcu_fd_sc_mcu9t5v0__and4_2
X_1581_ _1137_ _1177_ _1193_ _1221_ _1222_ VDD VSS gf180mcu_fd_sc_mcu9t5v0__and4_2
X_1582_ net43 _1222_ _1223_ VDD VSS gf180mcu_fd_sc_mcu9t5v0__xor2_2
X_1583_ _1203_ _1223_ _0027_ VDD VSS gf180mcu_fd_sc_mcu9t5v0__and2_2
X_1584_ _1200_ net44 _1224_ VDD VSS gf180mcu_fd_sc_mcu9t5v0__nor2_2
X_1585_ _1126_ net44 _1225_ VDD VSS gf180mcu_fd_sc_mcu9t5v0__and2_2
X_1586_ net43 _1194_ _1221_ _1226_ VDD VSS gf180mcu_fd_sc_mcu9t5v0__nand3_2
X_1587_ _1224_ _1225_ _1226_ _0028_ VDD VSS gf180mcu_fd_sc_mcu9t5v0__mux2_2
X_1588_ net40 net41 net42 net43 _1227_ VDD VSS gf180mcu_fd_sc_mcu9t5v0__and4_2
X_1589_ net44 _1213_ _1227_ _1228_ VDD VSS gf180mcu_fd_sc_mcu9t5v0__and3_2
X_1590_ _1137_ _1177_ _1193_ _1228_ _1229_ VDD VSS gf180mcu_fd_sc_mcu9t5v0__and4_2
X_1591_ net45 _1229_ _1230_ VDD VSS gf180mcu_fd_sc_mcu9t5v0__xor2_2
X_1592_ _1203_ _1230_ _0029_ VDD VSS gf180mcu_fd_sc_mcu9t5v0__and2_2
X_1593_ _1198_ net46 _1231_ VDD VSS gf180mcu_fd_sc_mcu9t5v0__and2_2
X_1594_ _1200_ net46 _1232_ VDD VSS gf180mcu_fd_sc_mcu9t5v0__nor2_2
X_1595_ net45 _1194_ _1228_ _1233_ VDD VSS gf180mcu_fd_sc_mcu9t5v0__and3_2
X_1596_ _1231_ _1232_ _1233_ _0030_ VDD VSS gf180mcu_fd_sc_mcu9t5v0__mux2_2
X_1597_ net47 _1234_ VDD VSS gf180mcu_fd_sc_mcu9t5v0__clkinv_2
X_1598_ prev_event_inc\[4\] _1235_ VDD VSS gf180mcu_fd_sc_mcu9t5v0__clkinv_2
X_1599_ net6 net11 _1236_ VDD VSS gf180mcu_fd_sc_mcu9t5v0__and2_2
X_1600_ _1235_ _1236_ _1237_ VDD VSS gf180mcu_fd_sc_mcu9t5v0__and2_2
X_1601_ _1234_ _1237_ _1238_ VDD VSS gf180mcu_fd_sc_mcu9t5v0__xnor2_2
X_1602_ _1203_ _1238_ _0031_ VDD VSS gf180mcu_fd_sc_mcu9t5v0__and2_2
X_1603_ net48 _1453_ _1237_ _1239_ VDD VSS gf180mcu_fd_sc_mcu9t5v0__mux2_2
X_1604_ _1203_ _1239_ _0032_ VDD VSS gf180mcu_fd_sc_mcu9t5v0__and2_2
X_1605_ net271 net27 net38 _1240_ VDD VSS gf180mcu_fd_sc_mcu9t5v0__and3_4
X_1606_ _1167_ _1170_ _1240_ _1241_ VDD VSS gf180mcu_fd_sc_mcu9t5v0__and3_2
X_1607_ net49 _1241_ _1242_ VDD VSS gf180mcu_fd_sc_mcu9t5v0__xor2_2
X_1608_ _1203_ _1242_ _0033_ VDD VSS gf180mcu_fd_sc_mcu9t5v0__and2_2
X_1609_ net50 _1243_ VDD VSS gf180mcu_fd_sc_mcu9t5v0__clkinv_2
X_1610_ _1452_ _1237_ _1244_ VDD VSS gf180mcu_fd_sc_mcu9t5v0__and2_2
X_1611_ _1243_ _1244_ _1245_ VDD VSS gf180mcu_fd_sc_mcu9t5v0__xnor2_2
X_1612_ _1203_ _1245_ _0034_ VDD VSS gf180mcu_fd_sc_mcu9t5v0__and2_2
X_1613_ _1127_ _1246_ VDD VSS gf180mcu_fd_sc_mcu9t5v0__clkbuf_4
X_1614_ net51 _1247_ VDD VSS gf180mcu_fd_sc_mcu9t5v0__clkinv_2
X_1615_ net47 net48 net50 _1248_ VDD VSS gf180mcu_fd_sc_mcu9t5v0__and3_2
X_1616_ _1235_ _1236_ _1248_ _1249_ VDD VSS gf180mcu_fd_sc_mcu9t5v0__and3_2
X_1617_ _1247_ _1249_ _1250_ VDD VSS gf180mcu_fd_sc_mcu9t5v0__xnor2_2
X_1618_ _1246_ _1250_ _0035_ VDD VSS gf180mcu_fd_sc_mcu9t5v0__and2_2
X_1619_ net52 _1251_ VDD VSS gf180mcu_fd_sc_mcu9t5v0__clkinv_2
X_1620_ _1235_ net50 _1452_ _1236_ _1252_ VDD VSS gf180mcu_fd_sc_mcu9t5v0__and4_2
X_1621_ _1252_ _1253_ VDD VSS gf180mcu_fd_sc_mcu9t5v0__clkbuf_4
X_1622_ net51 _1253_ _1254_ VDD VSS gf180mcu_fd_sc_mcu9t5v0__and2_2
X_1623_ _1251_ _1254_ _1255_ VDD VSS gf180mcu_fd_sc_mcu9t5v0__xnor2_2
X_1624_ _1246_ _1255_ _0036_ VDD VSS gf180mcu_fd_sc_mcu9t5v0__and2_2
X_1625_ net53 _1256_ VDD VSS gf180mcu_fd_sc_mcu9t5v0__clkinv_2
X_1626_ net51 net52 _1249_ _1257_ VDD VSS gf180mcu_fd_sc_mcu9t5v0__nand3_2
X_1627_ _1256_ _1257_ _1258_ VDD VSS gf180mcu_fd_sc_mcu9t5v0__xnor2_2
X_1628_ _1143_ _1258_ _0037_ VDD VSS gf180mcu_fd_sc_mcu9t5v0__nor2_2
X_1629_ net54 _1259_ VDD VSS gf180mcu_fd_sc_mcu9t5v0__clkinv_2
X_1630_ net51 net52 net53 _1260_ VDD VSS gf180mcu_fd_sc_mcu9t5v0__and3_2
X_1631_ _1253_ _1260_ _1261_ VDD VSS gf180mcu_fd_sc_mcu9t5v0__and2_2
X_1632_ _1259_ _1261_ _1262_ VDD VSS gf180mcu_fd_sc_mcu9t5v0__xnor2_2
X_1633_ _1246_ _1262_ _0038_ VDD VSS gf180mcu_fd_sc_mcu9t5v0__and2_2
X_1634_ net55 _1263_ VDD VSS gf180mcu_fd_sc_mcu9t5v0__clkinv_2
X_1635_ net51 net52 net53 net54 _1264_ VDD VSS gf180mcu_fd_sc_mcu9t5v0__and4_2
X_1636_ _1235_ _1236_ _1248_ _1264_ _1265_ VDD VSS gf180mcu_fd_sc_mcu9t5v0__and4_2
X_1637_ _1263_ _1265_ _1266_ VDD VSS gf180mcu_fd_sc_mcu9t5v0__xnor2_2
X_1638_ _1246_ _1266_ _0039_ VDD VSS gf180mcu_fd_sc_mcu9t5v0__and2_2
X_1639_ net56 _1267_ VDD VSS gf180mcu_fd_sc_mcu9t5v0__clkinv_2
X_1640_ net55 _1253_ _1264_ _1268_ VDD VSS gf180mcu_fd_sc_mcu9t5v0__and3_2
X_1641_ _1267_ _1268_ _1269_ VDD VSS gf180mcu_fd_sc_mcu9t5v0__xnor2_2
X_1642_ _1246_ _1269_ _0040_ VDD VSS gf180mcu_fd_sc_mcu9t5v0__and2_2
X_1643_ net57 _1270_ VDD VSS gf180mcu_fd_sc_mcu9t5v0__clkinv_2
X_1644_ net55 net56 _1271_ VDD VSS gf180mcu_fd_sc_mcu9t5v0__and2_2
X_1645_ _1265_ _1271_ _1272_ VDD VSS gf180mcu_fd_sc_mcu9t5v0__and2_2
X_1646_ _1270_ _1272_ _1273_ VDD VSS gf180mcu_fd_sc_mcu9t5v0__xnor2_2
X_1647_ _1246_ _1273_ _0041_ VDD VSS gf180mcu_fd_sc_mcu9t5v0__and2_2
X_1648_ net58 _1274_ VDD VSS gf180mcu_fd_sc_mcu9t5v0__clkinv_2
X_1649_ net57 _1252_ _1264_ _1271_ _1275_ VDD VSS gf180mcu_fd_sc_mcu9t5v0__and4_2
X_1650_ _1274_ _1275_ _1276_ VDD VSS gf180mcu_fd_sc_mcu9t5v0__xnor2_2
X_1651_ _1246_ _1276_ _0042_ VDD VSS gf180mcu_fd_sc_mcu9t5v0__and2_2
X_1652_ net59 _1277_ VDD VSS gf180mcu_fd_sc_mcu9t5v0__clkinv_2
X_1653_ net55 net56 net57 net58 _1278_ VDD VSS gf180mcu_fd_sc_mcu9t5v0__and4_2
X_1654_ _1265_ _1278_ _1279_ VDD VSS gf180mcu_fd_sc_mcu9t5v0__and2_2
X_1655_ _1277_ _1279_ _1280_ VDD VSS gf180mcu_fd_sc_mcu9t5v0__xnor2_2
X_1656_ _1246_ _1280_ _0043_ VDD VSS gf180mcu_fd_sc_mcu9t5v0__and2_2
X_1657_ _1129_ net194 _1130_ _1281_ VDD VSS gf180mcu_fd_sc_mcu9t5v0__and3_2
X_1658_ net16 net127 net260 _1282_ VDD VSS gf180mcu_fd_sc_mcu9t5v0__and3_2
X_1659_ net249 _1168_ _1240_ _1282_ _1283_ VDD VSS gf180mcu_fd_sc_mcu9t5v0__and4_2
X_1660_ net49 _1281_ _1283_ _1284_ VDD VSS gf180mcu_fd_sc_mcu9t5v0__and3_2
X_1661_ net60 _1284_ _1285_ VDD VSS gf180mcu_fd_sc_mcu9t5v0__xor2_2
X_1662_ _1246_ _1285_ _0044_ VDD VSS gf180mcu_fd_sc_mcu9t5v0__and2_2
X_1663_ net61 _1286_ VDD VSS gf180mcu_fd_sc_mcu9t5v0__clkinv_2
X_1664_ net59 _1252_ _1264_ _1278_ _1287_ VDD VSS gf180mcu_fd_sc_mcu9t5v0__and4_2
X_1665_ _1286_ _1287_ _1288_ VDD VSS gf180mcu_fd_sc_mcu9t5v0__xnor2_2
X_1666_ _1246_ _1288_ _0045_ VDD VSS gf180mcu_fd_sc_mcu9t5v0__and2_2
X_1667_ _1127_ _1289_ VDD VSS gf180mcu_fd_sc_mcu9t5v0__clkbuf_4
X_1668_ net62 _1290_ VDD VSS gf180mcu_fd_sc_mcu9t5v0__clkinv_2
X_1669_ net59 net61 _1265_ _1278_ _1291_ VDD VSS gf180mcu_fd_sc_mcu9t5v0__and4_2
X_1670_ _1290_ _1291_ _1292_ VDD VSS gf180mcu_fd_sc_mcu9t5v0__xnor2_2
X_1671_ _1289_ _1292_ _0046_ VDD VSS gf180mcu_fd_sc_mcu9t5v0__and2_2
X_1672_ net63 _1293_ VDD VSS gf180mcu_fd_sc_mcu9t5v0__clkinv_2
X_1673_ net54 net59 net61 net62 _1294_ VDD VSS gf180mcu_fd_sc_mcu9t5v0__and4_2
X_1674_ _1260_ _1278_ _1294_ _1295_ VDD VSS gf180mcu_fd_sc_mcu9t5v0__and3_2
X_1675_ _1253_ _1295_ _1296_ VDD VSS gf180mcu_fd_sc_mcu9t5v0__and2_2
X_1676_ _1293_ _1296_ _1297_ VDD VSS gf180mcu_fd_sc_mcu9t5v0__xnor2_2
X_1677_ _1289_ _1297_ _0047_ VDD VSS gf180mcu_fd_sc_mcu9t5v0__and2_2
X_1678_ net64 _1298_ VDD VSS gf180mcu_fd_sc_mcu9t5v0__clkinv_2
X_1679_ net59 net61 net62 _1299_ VDD VSS gf180mcu_fd_sc_mcu9t5v0__and3_2
X_1680_ net63 _1265_ _1278_ _1299_ _1300_ VDD VSS gf180mcu_fd_sc_mcu9t5v0__and4_2
X_1681_ _1298_ _1300_ _1301_ VDD VSS gf180mcu_fd_sc_mcu9t5v0__xnor2_2
X_1682_ _1289_ _1301_ _0048_ VDD VSS gf180mcu_fd_sc_mcu9t5v0__and2_2
X_1683_ net65 _1302_ VDD VSS gf180mcu_fd_sc_mcu9t5v0__clkinv_2
X_1684_ net63 net64 _1252_ _1295_ _1303_ VDD VSS gf180mcu_fd_sc_mcu9t5v0__and4_2
X_1685_ _1302_ _1303_ _1304_ VDD VSS gf180mcu_fd_sc_mcu9t5v0__xnor2_2
X_1686_ _1289_ _1304_ _0049_ VDD VSS gf180mcu_fd_sc_mcu9t5v0__and2_2
X_1687_ net66 _1305_ VDD VSS gf180mcu_fd_sc_mcu9t5v0__clkinv_2
X_1688_ net63 net64 net65 _1306_ VDD VSS gf180mcu_fd_sc_mcu9t5v0__and3_2
X_1689_ _1265_ _1278_ _1299_ _1306_ _1307_ VDD VSS gf180mcu_fd_sc_mcu9t5v0__and4_2
X_1690_ _1305_ _1307_ _1308_ VDD VSS gf180mcu_fd_sc_mcu9t5v0__xnor2_2
X_1691_ _1289_ _1308_ _0050_ VDD VSS gf180mcu_fd_sc_mcu9t5v0__and2_2
X_1692_ net67 _1309_ VDD VSS gf180mcu_fd_sc_mcu9t5v0__clkinv_2
X_1693_ net63 net64 net65 net66 _1310_ VDD VSS gf180mcu_fd_sc_mcu9t5v0__and4_2
X_1694_ _1253_ _1295_ _1310_ _1311_ VDD VSS gf180mcu_fd_sc_mcu9t5v0__and3_2
X_1695_ _1309_ _1311_ _1312_ VDD VSS gf180mcu_fd_sc_mcu9t5v0__xnor2_2
X_1696_ _1289_ _1312_ _0051_ VDD VSS gf180mcu_fd_sc_mcu9t5v0__and2_2
X_1697_ net68 _1313_ VDD VSS gf180mcu_fd_sc_mcu9t5v0__clkinv_2
X_1698_ net67 _1310_ _1314_ VDD VSS gf180mcu_fd_sc_mcu9t5v0__and2_2
X_1699_ _1265_ _1278_ _1299_ _1314_ _1315_ VDD VSS gf180mcu_fd_sc_mcu9t5v0__and4_2
X_1700_ _1313_ _1315_ _1316_ VDD VSS gf180mcu_fd_sc_mcu9t5v0__xnor2_2
X_1701_ _1289_ _1316_ _0052_ VDD VSS gf180mcu_fd_sc_mcu9t5v0__and2_2
X_1702_ net69 _1317_ VDD VSS gf180mcu_fd_sc_mcu9t5v0__clkinv_2
X_1703_ _1314_ _1318_ VDD VSS gf180mcu_fd_sc_mcu9t5v0__clkbuf_3
X_1704_ net68 _1260_ _1278_ _1294_ _1319_ VDD VSS gf180mcu_fd_sc_mcu9t5v0__and4_2
X_1705_ _1253_ _1318_ _1319_ _1320_ VDD VSS gf180mcu_fd_sc_mcu9t5v0__and3_2
X_1706_ _1317_ _1320_ _1321_ VDD VSS gf180mcu_fd_sc_mcu9t5v0__xnor2_2
X_1707_ _1289_ _1321_ _0053_ VDD VSS gf180mcu_fd_sc_mcu9t5v0__and2_2
X_1708_ net70 _1322_ VDD VSS gf180mcu_fd_sc_mcu9t5v0__clkinv_2
X_1709_ net69 _1249_ _1314_ _1319_ _1323_ VDD VSS gf180mcu_fd_sc_mcu9t5v0__and4_2
X_1710_ _1322_ _1323_ _1324_ VDD VSS gf180mcu_fd_sc_mcu9t5v0__xnor2_2
X_1711_ _1289_ _1324_ _0054_ VDD VSS gf180mcu_fd_sc_mcu9t5v0__and2_2
X_1712_ net49 net60 _1325_ VDD VSS gf180mcu_fd_sc_mcu9t5v0__and2_2
X_1713_ _1167_ _1170_ _1240_ _1325_ _1326_ VDD VSS gf180mcu_fd_sc_mcu9t5v0__and4_2
X_1714_ net71 _1326_ _1327_ VDD VSS gf180mcu_fd_sc_mcu9t5v0__xor2_2
X_1715_ _1289_ _1327_ _0055_ VDD VSS gf180mcu_fd_sc_mcu9t5v0__and2_2
X_1716_ _1127_ _1328_ VDD VSS gf180mcu_fd_sc_mcu9t5v0__clkbuf_4
X_1717_ net72 _1329_ VDD VSS gf180mcu_fd_sc_mcu9t5v0__clkinv_2
X_1718_ net69 net70 _1330_ VDD VSS gf180mcu_fd_sc_mcu9t5v0__and2_2
X_1719_ _1253_ _1318_ _1319_ _1330_ _1331_ VDD VSS gf180mcu_fd_sc_mcu9t5v0__and4_2
X_1720_ _1329_ _1331_ _1332_ VDD VSS gf180mcu_fd_sc_mcu9t5v0__xnor2_2
X_1721_ _1328_ _1332_ _0056_ VDD VSS gf180mcu_fd_sc_mcu9t5v0__and2_2
X_1722_ net73 _1333_ VDD VSS gf180mcu_fd_sc_mcu9t5v0__clkinv_2
X_1723_ net68 net69 net70 net72 _1334_ VDD VSS gf180mcu_fd_sc_mcu9t5v0__and4_2
X_1724_ _1260_ _1278_ _1294_ _1334_ _1335_ VDD VSS gf180mcu_fd_sc_mcu9t5v0__and4_2
X_1725_ _1249_ _1318_ _1335_ _1336_ VDD VSS gf180mcu_fd_sc_mcu9t5v0__and3_2
X_1726_ _1333_ _1336_ _1337_ VDD VSS gf180mcu_fd_sc_mcu9t5v0__xnor2_2
X_1727_ _1328_ _1337_ _0057_ VDD VSS gf180mcu_fd_sc_mcu9t5v0__and2_2
X_1728_ net74 _1338_ VDD VSS gf180mcu_fd_sc_mcu9t5v0__clkinv_2
X_1729_ net73 _1252_ _1314_ _1335_ _1339_ VDD VSS gf180mcu_fd_sc_mcu9t5v0__and4_2
X_1730_ _1338_ _1339_ _1340_ VDD VSS gf180mcu_fd_sc_mcu9t5v0__xnor2_2
X_1731_ _1328_ _1340_ _0058_ VDD VSS gf180mcu_fd_sc_mcu9t5v0__and2_2
X_1732_ net75 _1341_ VDD VSS gf180mcu_fd_sc_mcu9t5v0__clkinv_2
X_1733_ net73 net74 _1342_ VDD VSS gf180mcu_fd_sc_mcu9t5v0__and2_2
X_1734_ _1249_ _1318_ _1335_ _1342_ _1343_ VDD VSS gf180mcu_fd_sc_mcu9t5v0__and4_2
X_1735_ _1341_ _1343_ _1344_ VDD VSS gf180mcu_fd_sc_mcu9t5v0__xnor2_2
X_1736_ _1328_ _1344_ _0059_ VDD VSS gf180mcu_fd_sc_mcu9t5v0__and2_2
X_1737_ net76 _1345_ VDD VSS gf180mcu_fd_sc_mcu9t5v0__clkinv_2
X_1738_ net75 _1342_ _1346_ VDD VSS gf180mcu_fd_sc_mcu9t5v0__and2_2
X_1739_ _1253_ _1318_ _1335_ _1346_ _1347_ VDD VSS gf180mcu_fd_sc_mcu9t5v0__and4_2
X_1740_ _1345_ _1347_ _1348_ VDD VSS gf180mcu_fd_sc_mcu9t5v0__xnor2_2
X_1741_ _1328_ _1348_ _0060_ VDD VSS gf180mcu_fd_sc_mcu9t5v0__and2_2
X_1742_ net77 _1349_ VDD VSS gf180mcu_fd_sc_mcu9t5v0__clkinv_2
X_1743_ net73 net74 net75 net76 _1350_ VDD VSS gf180mcu_fd_sc_mcu9t5v0__and4_2
X_1744_ _1249_ _1318_ _1335_ _1350_ _1351_ VDD VSS gf180mcu_fd_sc_mcu9t5v0__and4_2
X_1745_ _1349_ _1351_ _1352_ VDD VSS gf180mcu_fd_sc_mcu9t5v0__xnor2_2
X_1746_ _1328_ _1352_ _0061_ VDD VSS gf180mcu_fd_sc_mcu9t5v0__and2_2
X_1747_ net78 _1353_ VDD VSS gf180mcu_fd_sc_mcu9t5v0__clkinv_2
X_1748_ net77 _1350_ _1354_ VDD VSS gf180mcu_fd_sc_mcu9t5v0__and2_2
X_1749_ _1253_ _1318_ _1335_ _1354_ _1355_ VDD VSS gf180mcu_fd_sc_mcu9t5v0__and4_2
X_1750_ _1353_ _1355_ _1356_ VDD VSS gf180mcu_fd_sc_mcu9t5v0__xnor2_2
X_1751_ _1328_ _1356_ _0062_ VDD VSS gf180mcu_fd_sc_mcu9t5v0__and2_2
X_1752_ net79 _1357_ VDD VSS gf180mcu_fd_sc_mcu9t5v0__clkinv_2
X_1753_ net77 net78 _1350_ _1358_ VDD VSS gf180mcu_fd_sc_mcu9t5v0__and3_2
X_1754_ _1249_ _1318_ _1335_ _1358_ _1359_ VDD VSS gf180mcu_fd_sc_mcu9t5v0__and4_2
X_1755_ _1357_ _1359_ _1360_ VDD VSS gf180mcu_fd_sc_mcu9t5v0__xnor2_2
X_1756_ _1328_ _1360_ _0063_ VDD VSS gf180mcu_fd_sc_mcu9t5v0__and2_2
X_1757_ net80 _1361_ VDD VSS gf180mcu_fd_sc_mcu9t5v0__clkinv_2
X_1758_ net77 net78 _1362_ VDD VSS gf180mcu_fd_sc_mcu9t5v0__and2_2
X_1759_ net79 _1350_ _1362_ _1363_ VDD VSS gf180mcu_fd_sc_mcu9t5v0__and3_2
X_1760_ _1253_ _1318_ _1335_ _1363_ _1364_ VDD VSS gf180mcu_fd_sc_mcu9t5v0__and4_2
X_1761_ _1361_ _1364_ _1365_ VDD VSS gf180mcu_fd_sc_mcu9t5v0__xnor2_2
X_1762_ _1328_ _1365_ _0064_ VDD VSS gf180mcu_fd_sc_mcu9t5v0__and2_2
X_1763_ net81 _1366_ VDD VSS gf180mcu_fd_sc_mcu9t5v0__clkinv_2
X_1764_ net79 net80 _1350_ _1362_ _1367_ VDD VSS gf180mcu_fd_sc_mcu9t5v0__and4_2
X_1765_ _1249_ _1318_ _1335_ _1367_ _1368_ VDD VSS gf180mcu_fd_sc_mcu9t5v0__and4_2
X_1766_ _1366_ _1368_ _1369_ VDD VSS gf180mcu_fd_sc_mcu9t5v0__xnor2_2
X_1767_ _1328_ _1369_ _0065_ VDD VSS gf180mcu_fd_sc_mcu9t5v0__and2_2
X_1768_ _1127_ _1370_ VDD VSS gf180mcu_fd_sc_mcu9t5v0__buf_4
X_1769_ net71 _1281_ _1283_ _1325_ _1371_ VDD VSS gf180mcu_fd_sc_mcu9t5v0__and4_2
X_1770_ net82 _1371_ _1372_ VDD VSS gf180mcu_fd_sc_mcu9t5v0__xor2_2
X_1771_ _1370_ _1372_ _0066_ VDD VSS gf180mcu_fd_sc_mcu9t5v0__and2_2
X_1772_ prev_event_inc\[5\] _1373_ VDD VSS gf180mcu_fd_sc_mcu9t5v0__clkinv_2
X_1773_ net6 net12 _1374_ VDD VSS gf180mcu_fd_sc_mcu9t5v0__and2_2
X_1774_ _1373_ _1374_ _1375_ VDD VSS gf180mcu_fd_sc_mcu9t5v0__and2_2
X_1775_ net83 _1375_ _1376_ VDD VSS gf180mcu_fd_sc_mcu9t5v0__xor2_2
X_1776_ _1370_ _1376_ _0067_ VDD VSS gf180mcu_fd_sc_mcu9t5v0__and2_2
X_1777_ net84 _1451_ _1375_ _1377_ VDD VSS gf180mcu_fd_sc_mcu9t5v0__mux2_2
X_1778_ _1370_ _1377_ _0068_ VDD VSS gf180mcu_fd_sc_mcu9t5v0__and2_2
X_1779_ _1450_ _1375_ _1378_ VDD VSS gf180mcu_fd_sc_mcu9t5v0__nand2_2
X_1780_ net85 _1378_ _1379_ VDD VSS gf180mcu_fd_sc_mcu9t5v0__xnor2_2
X_1781_ _1370_ _1379_ _0069_ VDD VSS gf180mcu_fd_sc_mcu9t5v0__and2_2
X_1782_ net83 net84 _1380_ VDD VSS gf180mcu_fd_sc_mcu9t5v0__and2_2
X_1783_ _1373_ net85 _1374_ _1380_ _1381_ VDD VSS gf180mcu_fd_sc_mcu9t5v0__and4_2
X_1784_ _1381_ _1382_ VDD VSS gf180mcu_fd_sc_mcu9t5v0__buf_4
X_1785_ net86 _1382_ _1383_ VDD VSS gf180mcu_fd_sc_mcu9t5v0__xor2_2
X_1786_ _1370_ _1383_ _0070_ VDD VSS gf180mcu_fd_sc_mcu9t5v0__and2_2
X_1787_ _1373_ net85 _1450_ _1374_ _1384_ VDD VSS gf180mcu_fd_sc_mcu9t5v0__and4_2
X_1788_ _1384_ _1385_ VDD VSS gf180mcu_fd_sc_mcu9t5v0__clkbuf_4
X_1789_ net86 _1385_ _1386_ VDD VSS gf180mcu_fd_sc_mcu9t5v0__nand2_2
X_1790_ net87 _1386_ _1387_ VDD VSS gf180mcu_fd_sc_mcu9t5v0__xnor2_2
X_1791_ _1370_ _1387_ _0071_ VDD VSS gf180mcu_fd_sc_mcu9t5v0__and2_2
X_1792_ net86 net87 _1382_ _1388_ VDD VSS gf180mcu_fd_sc_mcu9t5v0__and3_2
X_1793_ net88 _1388_ _1389_ VDD VSS gf180mcu_fd_sc_mcu9t5v0__xor2_2
X_1794_ _1370_ _1389_ _0072_ VDD VSS gf180mcu_fd_sc_mcu9t5v0__and2_2
X_1795_ net86 net87 net88 _1390_ VDD VSS gf180mcu_fd_sc_mcu9t5v0__and3_2
X_1796_ _1385_ _1390_ _1391_ VDD VSS gf180mcu_fd_sc_mcu9t5v0__nand2_2
X_1797_ net89 _1391_ _1392_ VDD VSS gf180mcu_fd_sc_mcu9t5v0__xnor2_2
X_1798_ _1370_ _1392_ _0073_ VDD VSS gf180mcu_fd_sc_mcu9t5v0__and2_2
X_1799_ net89 _1390_ _1393_ VDD VSS gf180mcu_fd_sc_mcu9t5v0__and2_2
X_1800_ _1382_ _1393_ _1394_ VDD VSS gf180mcu_fd_sc_mcu9t5v0__nand2_2
X_1801_ net90 _1394_ _1395_ VDD VSS gf180mcu_fd_sc_mcu9t5v0__xnor2_2
X_1802_ _1370_ _1395_ _0074_ VDD VSS gf180mcu_fd_sc_mcu9t5v0__and2_2
X_1803_ net90 _1385_ _1393_ _1396_ VDD VSS gf180mcu_fd_sc_mcu9t5v0__and3_2
X_1804_ net91 _1396_ _1397_ VDD VSS gf180mcu_fd_sc_mcu9t5v0__xor2_2
X_1805_ _1370_ _1397_ _0075_ VDD VSS gf180mcu_fd_sc_mcu9t5v0__and2_2
X_1806_ _1127_ _1398_ VDD VSS gf180mcu_fd_sc_mcu9t5v0__clkbuf_4
X_1807_ net90 net91 _1399_ VDD VSS gf180mcu_fd_sc_mcu9t5v0__and2_2
X_1808_ _1382_ _1393_ _1399_ _1400_ VDD VSS gf180mcu_fd_sc_mcu9t5v0__and3_2
X_1809_ net92 _1400_ _1401_ VDD VSS gf180mcu_fd_sc_mcu9t5v0__xor2_2