
* cell register_file
* pin write_data[18]
* pin write_data[15]
* pin write_data[16]
* pin write_data[13]
* pin write_data[14]
* pin write_data[17]
* pin write_data[12]
* pin read_addr1[1]
* pin write_data[10]
* pin write_data[11]
* pin write_data[0]
* pin read_data2[16]
* pin read_data2[13]
* pin read_data2[18]
* pin read_data1[18]
* pin read_data1[16]
* pin read_data1[13]
* pin read_data2[11]
* pin read_data1[11]
* pin read_data2[0]
* pin read_data1[0]
* pin read_data1[12]
* pin read_data1[14]
* pin read_data2[12]
* pin read_data2[14]
* pin read_data2[15]
* pin read_data1[15]
* pin read_data2[10]
* pin read_data2[17]
* pin read_data1[17]
* pin read_data1[10]
* pin write_data[19]
* pin read_data2[1]
* pin write_data[1]
* pin read_data1[19]
* pin read_data1[1]
* pin read_data2[19]
* pin write_addr[2]
* pin read_data2[20]
* pin write_data[20]
* pin write_addr[4]
* pin rst_n
* pin write_en
* pin write_addr[3]
* pin read_en2
* pin read_en1
* pin write_data[21]
* pin read_data2[21]
* pin write_addr[0]
* pin read_addr1[2]
* pin read_data1[21]
* pin write_addr[1]
* pin read_data1[20]
* pin write_data[22]
* pin read_data1[22]
* pin read_addr2[2]
* pin read_addr2[1]
* pin read_data2[22]
* pin read_data1[9]
* pin read_data2[9]
* pin read_addr1[0]
* pin read_addr2[0]
* pin write_data[9]
* pin read_data2[23]
* pin clk
* pin write_data[23]
* pin read_data1[23]
* pin read_addr2[3]
* pin read_addr1[3]
* pin write_data[24]
* pin read_data1[24]
* pin read_data2[24]
* pin write_data[8]
* pin write_data[25]
* pin read_data1[25]
* pin read_data2[25]
* pin write_data[26]
* pin read_addr1[4]
* pin write_data[27]
* pin read_addr2[4]
* pin write_data[7]
* pin write_data[29]
* pin read_data2[3]
* pin read_data2[27]
* pin read_data1[7]
* pin read_data2[29]
* pin read_data1[27]
* pin read_data1[29]
* pin read_data2[30]
* pin write_data[4]
* pin read_data1[6]
* pin read_data1[28]
* pin read_data2[4]
* pin read_data1[31]
* pin read_data1[26]
* pin read_data1[3]
* pin read_data1[5]
* pin write_data[30]
* pin write_data[31]
* pin read_data2[5]
* pin write_data[28]
* pin write_data[5]
* pin read_data1[30]
* pin read_data2[26]
* pin read_data1[2]
* pin read_data2[28]
* pin read_data2[6]
* pin read_data1[4]
* pin read_data2[8]
* pin read_data1[8]
* pin write_data[2]
* pin write_data[3]
* pin write_data[6]
* pin read_data2[7]
* pin read_data2[2]
* pin read_data2[31]
.SUBCKT register_file 1 2 3 4 5 6 7 8 9 10 11 12 13 14 15 16 17 18 19 20 21 22
+ 23 24 25 26 27 28 29 30 31 681 1442 1472 1498 1550 1551 1599 1649 1674 1690
+ 1692 1731 1732 1769 1770 1795 1810 1811 1840 1848 1849 1851 1982 1996 2023
+ 2063 2076 2077 2107 2108 2118 2150 2169 2196 2198 2221 2251 2329 2362 2374
+ 2375 2397 2576 2587 2588 2649 2713 2790 2791 2838 3107 3910 3912 3942 3944
+ 3945 3952 3953 3963 3965 3968 3969 3970 3971 3972 3973 3974 3975 3976 3977
+ 3978 3979 3980 3981 3982 3983 3984 3985 3986 3987 3988 3989 3990 3991 3992
* net 1 write_data[18]
* net 2 write_data[15]
* net 3 write_data[16]
* net 4 write_data[13]
* net 5 write_data[14]
* net 6 write_data[17]
* net 7 write_data[12]
* net 8 read_addr1[1]
* net 9 write_data[10]
* net 10 write_data[11]
* net 11 write_data[0]
* net 12 read_data2[16]
* net 13 read_data2[13]
* net 14 read_data2[18]
* net 15 read_data1[18]
* net 16 read_data1[16]
* net 17 read_data1[13]
* net 18 read_data2[11]
* net 19 read_data1[11]
* net 20 read_data2[0]
* net 21 read_data1[0]
* net 22 read_data1[12]
* net 23 read_data1[14]
* net 24 read_data2[12]
* net 25 read_data2[14]
* net 26 read_data2[15]
* net 27 read_data1[15]
* net 28 read_data2[10]
* net 29 read_data2[17]
* net 30 read_data1[17]
* net 31 read_data1[10]
* net 681 write_data[19]
* net 1442 read_data2[1]
* net 1472 write_data[1]
* net 1498 read_data1[19]
* net 1550 read_data1[1]
* net 1551 read_data2[19]
* net 1599 write_addr[2]
* net 1649 read_data2[20]
* net 1674 write_data[20]
* net 1690 write_addr[4]
* net 1692 rst_n
* net 1731 write_en
* net 1732 write_addr[3]
* net 1769 read_en2
* net 1770 read_en1
* net 1795 write_data[21]
* net 1810 read_data2[21]
* net 1811 write_addr[0]
* net 1840 read_addr1[2]
* net 1848 read_data1[21]
* net 1849 write_addr[1]
* net 1851 read_data1[20]
* net 1982 write_data[22]
* net 1996 read_data1[22]
* net 2023 read_addr2[2]
* net 2063 read_addr2[1]
* net 2076 read_data2[22]
* net 2077 read_data1[9]
* net 2107 read_data2[9]
* net 2108 read_addr1[0]
* net 2118 read_addr2[0]
* net 2150 write_data[9]
* net 2169 read_data2[23]
* net 2196 clk
* net 2198 write_data[23]
* net 2221 read_data1[23]
* net 2251 read_addr2[3]
* net 2329 read_addr1[3]
* net 2362 write_data[24]
* net 2374 read_data1[24]
* net 2375 read_data2[24]
* net 2397 write_data[8]
* net 2576 write_data[25]
* net 2587 read_data1[25]
* net 2588 read_data2[25]
* net 2649 write_data[26]
* net 2713 read_addr1[4]
* net 2790 write_data[27]
* net 2791 read_addr2[4]
* net 2838 write_data[7]
* net 3107 write_data[29]
* net 3910 read_data2[3]
* net 3912 read_data2[27]
* net 3942 read_data1[7]
* net 3944 read_data2[29]
* net 3945 read_data1[27]
* net 3952 read_data1[29]
* net 3953 read_data2[30]
* net 3963 write_data[4]
* net 3965 read_data1[6]
* net 3968 read_data1[28]
* net 3969 read_data2[4]
* net 3970 read_data1[31]
* net 3971 read_data1[26]
* net 3972 read_data1[3]
* net 3973 read_data1[5]
* net 3974 write_data[30]
* net 3975 write_data[31]
* net 3976 read_data2[5]
* net 3977 write_data[28]
* net 3978 write_data[5]
* net 3979 read_data1[30]
* net 3980 read_data2[26]
* net 3981 read_data1[2]
* net 3982 read_data2[28]
* net 3983 read_data2[6]
* net 3984 read_data1[4]
* net 3985 read_data2[8]
* net 3986 read_data1[8]
* net 3987 write_data[2]
* net 3988 write_data[3]
* net 3989 write_data[6]
* net 3990 read_data2[7]
* net 3991 read_data2[2]
* net 3992 read_data2[31]
* cell instance $3 r0 *1 34.96,2.72
X$3 66 1 66 48 34 34 sky130_fd_sc_hd__dlygate4sd3_1
* cell instance $5 r0 *1 38.64,2.72
X$5 66 2 66 36 34 34 sky130_fd_sc_hd__dlygate4sd3_1
* cell instance $9 r0 *1 43.24,2.72
X$9 66 3 66 35 34 34 sky130_fd_sc_hd__dlygate4sd3_1
* cell instance $12 m0 *1 58.88,8.16
X$12 66 4 66 37 34 34 sky130_fd_sc_hd__dlygate4sd3_1
* cell instance $15 r0 *1 60.26,2.72
X$15 66 5 66 38 34 34 sky130_fd_sc_hd__dlygate4sd3_1
* cell instance $18 r0 *1 63.94,2.72
X$18 66 6 66 51 34 34 sky130_fd_sc_hd__dlygate4sd3_1
* cell instance $21 r0 *1 80.5,2.72
X$21 66 7 66 39 34 34 sky130_fd_sc_hd__dlygate4sd3_1
* cell instance $24 m0 *1 85.1,8.16
X$24 34 8 97 66 66 34 sky130_fd_sc_hd__buf_8
* cell instance $27 m0 *1 112.7,8.16
X$27 66 9 66 56 34 34 sky130_fd_sc_hd__dlygate4sd3_1
* cell instance $29 r0 *1 113.62,2.72
X$29 66 10 66 102 34 34 sky130_fd_sc_hd__dlygate4sd3_1
* cell instance $33 r0 *1 117.3,2.72
X$33 66 11 66 55 34 34 sky130_fd_sc_hd__dlygate4sd3_1
* cell instance $36 r0 *1 224.02,2.72
X$36 66 54 12 34 66 34 sky130_fd_sc_hd__clkbuf_1
* cell instance $39 r0 *1 225.4,2.72
X$39 66 41 13 34 66 34 sky130_fd_sc_hd__clkbuf_1
* cell instance $42 r0 *1 228.16,2.72
X$42 66 71 14 34 66 34 sky130_fd_sc_hd__clkbuf_1
* cell instance $45 r0 *1 230.46,2.72
X$45 66 42 15 34 66 34 sky130_fd_sc_hd__clkbuf_1
* cell instance $48 r0 *1 232.3,2.72
X$48 66 103 16 34 66 34 sky130_fd_sc_hd__clkbuf_1
* cell instance $53 m0 *1 233.68,8.16
X$53 66 101 17 34 66 34 sky130_fd_sc_hd__clkbuf_1
* cell instance $55 r0 *1 233.68,2.72
X$55 66 193 18 34 66 34 sky130_fd_sc_hd__clkbuf_1
* cell instance $58 m0 *1 235.06,8.16
X$58 66 87 19 34 66 34 sky130_fd_sc_hd__clkbuf_1
* cell instance $64 m0 *1 247.48,8.16
X$64 66 96 20 34 66 34 sky130_fd_sc_hd__clkbuf_1
* cell instance $67 r0 *1 236.44,2.72
X$67 66 32 21 34 66 34 sky130_fd_sc_hd__clkbuf_1
* cell instance $71 r0 *1 253,2.72
X$71 66 45 22 34 66 34 sky130_fd_sc_hd__clkbuf_1
* cell instance $75 m0 *1 250.24,8.16
X$75 66 655 23 34 66 34 sky130_fd_sc_hd__clkbuf_1
* cell instance $79 m0 *1 251.62,8.16
X$79 66 88 24 34 66 34 sky130_fd_sc_hd__clkbuf_1
* cell instance $83 r0 *1 250.24,2.72
X$83 66 49 25 34 66 34 sky130_fd_sc_hd__clkbuf_1
* cell instance $88 m0 *1 254.38,8.16
X$88 66 94 26 34 66 34 sky130_fd_sc_hd__clkbuf_1
* cell instance $91 r0 *1 254.38,2.72
X$91 66 46 27 34 66 34 sky130_fd_sc_hd__clkbuf_1
* cell instance $95 r0 *1 255.76,2.72
X$95 66 44 28 34 66 34 sky130_fd_sc_hd__clkbuf_1
* cell instance $99 r0 *1 251.62,2.72
X$99 66 43 29 34 66 34 sky130_fd_sc_hd__clkbuf_1
* cell instance $102 m0 *1 253,8.16
X$102 66 149 30 34 66 34 sky130_fd_sc_hd__clkbuf_1
* cell instance $105 m0 *1 256.68,8.16
X$105 66 189 31 34 66 34 sky130_fd_sc_hd__clkbuf_1
* cell instance $111 m0 *1 235.98,51.68
X$111 34 130 32 435 697 66 66 34 sky130_fd_sc_hd__edfxtp_1
* cell instance $116 r0 *1 236.44,51.68
X$116 34 33 730 690 465 715 66 66 34 sky130_fd_sc_hd__a31oi_2
* cell instance $119 r0 *1 238.74,2.72
X$119 34 40 49 52 33 66 66 34 sky130_fd_sc_hd__edfxtp_1
* cell instance $279 r0 *1 33.12,2.72
X$279 66 36 66 34 47 34 sky130_fd_sc_hd__clkbuf_2
* cell instance $283 r0 *1 46.92,2.72
X$283 66 35 66 34 50 34 sky130_fd_sc_hd__clkbuf_2
* cell instance $290 r0 *1 58.42,2.72
X$290 66 37 66 34 111 34 sky130_fd_sc_hd__clkbuf_2
* cell instance $291 r0 *1 67.62,2.72
X$291 66 38 66 34 60 34 sky130_fd_sc_hd__clkbuf_2
* cell instance $300 r0 *1 84.64,2.72
X$300 66 39 34 53 66 34 sky130_fd_sc_hd__clkbuf_4
* cell instance $312 r0 *1 109.94,2.72
X$312 66 56 66 34 57 34 sky130_fd_sc_hd__clkbuf_2
* cell instance $422 m0 *1 34.04,8.16
X$422 66 48 66 34 90 34 sky130_fd_sc_hd__clkbuf_2
* cell instance $423 m0 *1 35.88,8.16
X$423 66 47 59 91 66 34 34 sky130_fd_sc_hd__and2_0
* cell instance $424 m0 *1 38.18,8.16
X$424 34 92 69 183 91 66 66 34 sky130_fd_sc_hd__edfxtp_1
* cell instance $427 m0 *1 49.22,8.16
X$427 66 70 59 93 66 34 34 sky130_fd_sc_hd__and2_0
* cell instance $435 m0 *1 63.94,8.16
X$435 66 51 34 70 66 34 sky130_fd_sc_hd__buf_2
* cell instance $441 m0 *1 69,8.16
X$441 66 60 59 95 66 34 34 sky130_fd_sc_hd__and2_0
* cell instance $442 m0 *1 71.3,8.16
X$442 34 92 72 128 95 66 66 34 sky130_fd_sc_hd__edfxtp_1
* cell instance $446 m0 *1 90.62,8.16
X$446 34 61 77 98 100 66 66 34 sky130_fd_sc_hd__edfxtp_1
* cell instance $452 m0 *1 109.94,8.16
X$452 66 102 66 34 333 34 sky130_fd_sc_hd__clkbuf_2
* cell instance $456 m0 *1 117.3,8.16
X$456 66 55 34 502 66 34 sky130_fd_sc_hd__buf_2
* cell instance $458 m0 *1 119.6,8.16
X$458 34 61 78 113 81 66 66 34 sky130_fd_sc_hd__edfxtp_1
* cell instance $466 m0 *1 139.84,8.16
X$466 34 82 62 116 106 66 66 34 sky130_fd_sc_hd__edfxtp_1
* cell instance $469 m0 *1 150.88,8.16
X$469 34 216 75 62 76 170 108 169 66 66 34 sky130_fd_sc_hd__mux4_1
* cell instance $476 m0 *1 171.58,8.16
X$476 34 84 74 109 107 66 66 34 sky130_fd_sc_hd__edfxtp_1
* cell instance $489 m0 *1 206.08,8.16
X$489 34 105 73 63 86 66 66 34 sky130_fd_sc_hd__edfxtp_1
* cell instance $494 m0 *1 222.64,8.16
X$494 34 40 71 63 104 66 66 34 sky130_fd_sc_hd__edfxtp_1
* cell instance $497 m0 *1 236.44,8.16
X$497 34 40 43 52 99 66 66 34 sky130_fd_sc_hd__edfxtp_1
* cell instance $502 m0 *1 258.52,8.16
X$502 34 65 67 68 64 66 66 34 sky130_fd_sc_hd__edfxtp_1
* cell instance $541 r0 *1 31.74,8.16
X$541 34 92 148 183 125 66 66 34 sky130_fd_sc_hd__edfxtp_1
* cell instance $544 r0 *1 43.24,8.16
X$544 66 50 59 187 66 34 34 sky130_fd_sc_hd__and2_0
* cell instance $546 r0 *1 47.38,8.16
X$546 34 92 150 128 93 66 66 34 sky130_fd_sc_hd__edfxtp_1
* cell instance $549 r0 *1 61.18,8.16
X$549 66 111 59 191 66 34 34 sky130_fd_sc_hd__and2_0
* cell instance $550 r0 *1 63.48,8.16
X$550 66 50 66 34 110 34 sky130_fd_sc_hd__buf_4
* cell instance $551 r0 *1 66.24,8.16
X$551 66 90 66 34 58 34 sky130_fd_sc_hd__buf_4
* cell instance $558 r0 *1 78.2,8.16
X$558 34 61 155 167 132 66 66 34 sky130_fd_sc_hd__edfxtp_1
* cell instance $560 r0 *1 90.16,8.16
X$560 66 140 79 100 66 34 34 sky130_fd_sc_hd__and2_0
* cell instance $565 r0 *1 98.44,8.16
X$565 66 50 34 112 66 34 sky130_fd_sc_hd__clkbuf_4
* cell instance $566 r0 *1 101.2,8.16
X$566 66 112 79 136 66 34 34 sky130_fd_sc_hd__and2_0
* cell instance $567 r0 *1 103.5,8.16
X$567 66 112 80 159 66 34 34 sky130_fd_sc_hd__and2_0
* cell instance $570 r0 *1 107.18,8.16
X$570 34 61 162 113 136 66 66 34 sky130_fd_sc_hd__edfxtp_1
* cell instance $573 r0 *1 119.6,8.16
X$573 66 90 34 114 66 34 sky130_fd_sc_hd__clkbuf_4
* cell instance $576 r0 *1 123.28,8.16
X$576 66 114 80 137 66 34 34 sky130_fd_sc_hd__and2_0
* cell instance $578 r0 *1 126.04,8.16
X$578 34 82 160 113 137 66 66 34 sky130_fd_sc_hd__edfxtp_1
* cell instance $579 r0 *1 137.08,8.16
X$579 66 115 79 135 66 34 34 sky130_fd_sc_hd__and2_0
* cell instance $580 r0 *1 139.38,8.16
X$580 66 115 80 106 66 34 34 sky130_fd_sc_hd__and2_0
* cell instance $582 r0 *1 142.14,8.16
X$582 34 61 108 116 135 66 66 34 sky130_fd_sc_hd__edfxtp_1
* cell instance $588 r0 *1 161.92,8.16
X$588 34 83 157 109 134 66 66 34 sky130_fd_sc_hd__edfxtp_1
* cell instance $589 r0 *1 172.96,8.16
X$589 66 118 117 107 66 34 34 sky130_fd_sc_hd__and2_0
* cell instance $597 r0 *1 186.3,8.16
X$597 34 119 152 109 133 66 66 34 sky130_fd_sc_hd__edfxtp_1
* cell instance $598 r0 *1 197.34,8.16
X$598 34 119 120 63 85 66 66 34 sky130_fd_sc_hd__edfxtp_1
* cell instance $603 r0 *1 211.6,8.16
X$603 34 40 54 63 121 66 66 34 sky130_fd_sc_hd__edfxtp_1
* cell instance $604 r0 *1 222.64,8.16
X$604 34 130 103 131 122 66 66 34 sky130_fd_sc_hd__edfxtp_1
* cell instance $609 r0 *1 236.44,8.16
X$609 34 40 88 52 129 66 66 34 sky130_fd_sc_hd__edfxtp_1
* cell instance $610 r0 *1 247.48,8.16
X$610 34 40 44 52 127 66 66 34 sky130_fd_sc_hd__edfxtp_1
* cell instance $611 r0 *1 258.52,8.16
X$611 66 112 123 64 66 34 34 sky130_fd_sc_hd__and2_0
* cell instance $616 r0 *1 264.04,8.16
X$616 34 89 147 68 126 66 66 34 sky130_fd_sc_hd__edfxtp_1
* cell instance $617 r0 *1 275.08,8.16
X$617 34 65 145 68 124 66 66 34 sky130_fd_sc_hd__edfxtp_1
* cell instance $667 m0 *1 25.3,13.6
X$667 66 110 146 181 66 34 34 sky130_fd_sc_hd__and2_0
* cell instance $671 m0 *1 29.44,13.6
X$671 66 110 164 182 66 34 34 sky130_fd_sc_hd__and2_0
* cell instance $672 m0 *1 31.74,13.6
X$672 66 58 146 277 66 34 34 sky130_fd_sc_hd__and2_0
* cell instance $674 m0 *1 35.88,13.6
X$674 66 90 59 125 66 34 34 sky130_fd_sc_hd__and2_0
* cell instance $675 m0 *1 38.18,13.6
X$675 34 92 166 183 187 66 66 34 sky130_fd_sc_hd__edfxtp_1
* cell instance $677 m0 *1 52.9,13.6
X$677 66 47 66 34 118 34 sky130_fd_sc_hd__buf_4
* cell instance $682 m0 *1 62.56,13.6
X$682 34 92 151 128 191 66 66 34 sky130_fd_sc_hd__edfxtp_1
* cell instance $685 m0 *1 76.36,13.6
X$685 66 138 79 132 66 34 34 sky130_fd_sc_hd__and2_0
* cell instance $686 m0 *1 78.66,13.6
X$686 66 138 139 196 66 34 34 sky130_fd_sc_hd__and2_0
* cell instance $688 m0 *1 81.42,13.6
X$688 66 47 66 34 138 34 sky130_fd_sc_hd__buf_4
* cell instance $690 m0 *1 84.64,13.6
X$690 66 60 66 34 140 34 sky130_fd_sc_hd__buf_4
* cell instance $691 m0 *1 87.4,13.6
X$691 66 140 80 199 66 34 34 sky130_fd_sc_hd__and2_0
* cell instance $692 m0 *1 89.7,13.6
X$692 34 201 202 98 200 66 66 34 sky130_fd_sc_hd__edfxtp_1
* cell instance $693 m0 *1 100.74,13.6
X$693 34 141 168 113 203 66 66 34 sky130_fd_sc_hd__edfxtp_1
* cell instance $697 m0 *1 113.62,13.6
X$697 34 216 161 239 168 163 162 169 66 66 34 sky130_fd_sc_hd__mux4_1
* cell instance $699 m0 *1 125.12,13.6
X$699 34 141 208 113 207 66 66 34 sky130_fd_sc_hd__edfxtp_1
* cell instance $701 m0 *1 136.62,13.6
X$701 66 53 66 34 115 34 sky130_fd_sc_hd__buf_4
* cell instance $703 m0 *1 139.84,13.6
X$703 66 115 210 142 66 34 34 sky130_fd_sc_hd__and2_0
* cell instance $704 m0 *1 142.14,13.6
X$704 66 115 139 158 66 34 34 sky130_fd_sc_hd__and2_0
* cell instance $705 m0 *1 144.44,13.6
X$705 34 201 170 116 142 66 66 34 sky130_fd_sc_hd__edfxtp_1
* cell instance $707 m0 *1 155.94,13.6
X$707 34 83 206 109 209 66 66 34 sky130_fd_sc_hd__edfxtp_1
* cell instance $710 m0 *1 167.9,13.6
X$710 66 58 117 263 66 34 34 sky130_fd_sc_hd__and2_0
* cell instance $711 m0 *1 170.2,13.6
X$711 34 84 156 109 205 66 66 34 sky130_fd_sc_hd__edfxtp_1
* cell instance $712 m0 *1 181.24,13.6
X$712 34 84 154 109 204 66 66 34 sky130_fd_sc_hd__edfxtp_1
* cell instance $716 m0 *1 195.04,13.6
X$716 34 119 153 63 175 66 66 34 sky130_fd_sc_hd__edfxtp_1
* cell instance $717 m0 *1 206.08,13.6
X$717 34 105 197 63 198 66 66 34 sky130_fd_sc_hd__edfxtp_1
* cell instance $722 m0 *1 222.64,13.6
X$722 34 130 42 131 195 66 66 34 sky130_fd_sc_hd__edfxtp_1
* cell instance $726 m0 *1 236.9,13.6
X$726 34 130 149 52 192 66 66 34 sky130_fd_sc_hd__edfxtp_1
* cell instance $732 m0 *1 256.68,13.6
X$732 66 112 143 188 66 34 34 sky130_fd_sc_hd__and2_0
* cell instance $733 m0 *1 258.98,13.6
X$733 34 144 184 68 188 66 66 34 sky130_fd_sc_hd__edfxtp_1
* cell instance $736 m0 *1 272.32,13.6
X$736 66 114 143 179 66 34 34 sky130_fd_sc_hd__and2_0
* cell instance $737 m0 *1 274.62,13.6
X$737 66 114 123 124 66 34 34 sky130_fd_sc_hd__and2_0
* cell instance $740 m0 *1 277.84,13.6
X$740 34 180 68 66 66 34 sky130_fd_sc_hd__clkbuf_16
* cell instance $763 r0 *1 20.24,13.6
X$763 66 58 164 223 66 34 34 sky130_fd_sc_hd__and2_0
* cell instance $764 r0 *1 22.54,13.6
X$764 34 224 183 66 66 34 sky130_fd_sc_hd__clkbuf_16
* cell instance $765 r0 *1 31.74,13.6
X$765 34 165 227 183 181 66 66 34 sky130_fd_sc_hd__edfxtp_1
* cell instance $768 r0 *1 43.24,13.6
X$768 34 211 232 227 166 269 214 229 66 66 34 sky130_fd_sc_hd__mux4_1
* cell instance $772 r0 *1 58.88,13.6
X$772 34 165 233 128 190 66 66 34 sky130_fd_sc_hd__edfxtp_1
* cell instance $778 r0 *1 73.14,13.6
X$778 66 111 34 173 66 34 sky130_fd_sc_hd__clkbuf_4
* cell instance $779 r0 *1 75.9,13.6
X$779 34 141 235 167 196 66 66 34 sky130_fd_sc_hd__edfxtp_1
* cell instance $780 r0 *1 86.94,13.6
X$780 34 82 236 98 199 66 66 34 sky130_fd_sc_hd__edfxtp_1
* cell instance $783 r0 *1 98.44,13.6
X$783 66 140 139 237 66 34 34 sky130_fd_sc_hd__and2_0
* cell instance $784 r0 *1 100.74,13.6
X$784 66 112 139 203 66 34 34 sky130_fd_sc_hd__and2_0
* cell instance $786 r0 *1 103.96,13.6
X$786 66 50 66 34 215 34 sky130_fd_sc_hd__buf_4
* cell instance $787 r0 *1 106.72,13.6
X$787 34 82 239 113 159 66 66 34 sky130_fd_sc_hd__edfxtp_1
* cell instance $788 r0 *1 117.76,13.6
X$788 66 90 66 34 217 34 sky130_fd_sc_hd__buf_4
* cell instance $790 r0 *1 120.98,13.6
X$790 66 114 79 81 66 34 34 sky130_fd_sc_hd__and2_0
* cell instance $795 r0 *1 126.04,13.6
X$795 66 114 139 207 66 34 34 sky130_fd_sc_hd__and2_0
* cell instance $796 r0 *1 128.34,13.6
X$796 34 216 240 160 208 243 78 169 66 66 34 sky130_fd_sc_hd__mux4_1
* cell instance $799 r0 *1 142.14,13.6
X$799 34 141 76 116 158 66 66 34 sky130_fd_sc_hd__edfxtp_1
* cell instance $805 r0 *1 156.86,13.6
X$805 66 177 171 209 66 34 34 sky130_fd_sc_hd__and2_0
* cell instance $806 r0 *1 159.16,13.6
X$806 66 217 171 134 66 34 34 sky130_fd_sc_hd__and2_0
* cell instance $807 r0 *1 161.46,13.6
X$807 34 83 218 109 172 66 66 34 sky130_fd_sc_hd__edfxtp_1
* cell instance $808 r0 *1 172.5,13.6
X$808 66 110 117 205 66 34 34 sky130_fd_sc_hd__and2_0
* cell instance $809 r0 *1 174.8,13.6
X$809 66 109 66 34 34 sky130_fd_sc_hd__clkinv_1
* cell instance $813 r0 *1 178.48,13.6
X$813 66 173 117 204 66 34 34 sky130_fd_sc_hd__and2_0
* cell instance $816 r0 *1 183.08,13.6
X$816 66 118 174 85 66 34 34 sky130_fd_sc_hd__and2_0
* cell instance $817 r0 *1 185.38,13.6
X$817 66 173 174 133 66 34 34 sky130_fd_sc_hd__and2_0
* cell instance $818 r0 *1 187.68,13.6
X$818 66 58 174 175 66 34 34 sky130_fd_sc_hd__and2_0
* cell instance $819 r0 *1 189.98,13.6
X$819 34 119 219 109 238 66 66 34 sky130_fd_sc_hd__edfxtp_1
* cell instance $820 r0 *1 201.02,13.6
X$820 66 215 176 258 66 34 34 sky130_fd_sc_hd__and2_0
* cell instance $821 r0 *1 203.32,13.6
X$821 66 217 176 198 66 34 34 sky130_fd_sc_hd__and2_0
* cell instance $824 r0 *1 206.08,13.6
X$824 66 177 176 86 66 34 34 sky130_fd_sc_hd__and2_0
* cell instance $827 r0 *1 212.52,13.6
X$827 34 40 41 63 234 66 66 34 sky130_fd_sc_hd__edfxtp_1
* cell instance $829 r0 *1 224.02,13.6
X$829 34 40 193 131 194 66 66 34 sky130_fd_sc_hd__edfxtp_1
* cell instance $837 r0 *1 245.18,13.6
X$837 66 177 178 253 66 34 34 sky130_fd_sc_hd__and2_0
* cell instance $838 r0 *1 247.48,13.6
X$838 34 130 189 52 231 66 66 34 sky130_fd_sc_hd__edfxtp_1
* cell instance $842 r0 *1 260.82,13.6
X$842 66 215 273 186 66 34 34 sky130_fd_sc_hd__and2_0
* cell instance $845 r0 *1 264.04,13.6
X$845 34 185 228 68 186 66 66 34 sky130_fd_sc_hd__edfxtp_1
* cell instance $846 r0 *1 275.08,13.6
X$846 34 144 226 68 179 66 66 34 sky130_fd_sc_hd__edfxtp_1
* cell instance $849 r0 *1 287.96,13.6
X$849 66 138 123 225 66 34 34 sky130_fd_sc_hd__and2_0
* cell instance $894 m0 *1 17.94,19.04
X$894 34 241 212 183 223 66 66 34 sky130_fd_sc_hd__edfxtp_1
* cell instance $896 m0 *1 29.44,19.04
X$896 34 241 214 183 182 66 66 34 sky130_fd_sc_hd__edfxtp_1
* cell instance $897 m0 *1 40.48,19.04
X$897 34 211 230 278 148 301 212 229 66 66 34 sky130_fd_sc_hd__mux4_1
* cell instance $898 m0 *1 50.14,19.04
X$898 66 90 213 385 66 34 34 sky130_fd_sc_hd__and2_0
* cell instance $899 m0 *1 52.44,19.04
X$899 66 50 213 252 66 34 34 sky130_fd_sc_hd__and2_0
* cell instance $903 m0 *1 58.88,19.04
X$903 34 128 66 66 34 sky130_fd_sc_hd__bufinv_16
* cell instance $904 m0 *1 69.92,19.04
X$904 34 224 128 66 66 34 sky130_fd_sc_hd__clkbuf_16
* cell instance $905 m0 *1 79.12,19.04
X$905 66 138 80 286 66 34 34 sky130_fd_sc_hd__and2_0
* cell instance $906 m0 *1 81.42,19.04
X$906 66 47 66 34 242 34 sky130_fd_sc_hd__buf_4
* cell instance $911 m0 *1 89.7,19.04
X$911 66 140 210 200 66 34 34 sky130_fd_sc_hd__and2_0
* cell instance $913 m0 *1 92.46,19.04
X$913 34 141 256 98 237 66 66 34 sky130_fd_sc_hd__edfxtp_1
* cell instance $916 m0 *1 104.88,19.04
X$916 66 112 210 289 66 34 34 sky130_fd_sc_hd__and2_0
* cell instance $923 m0 *1 118.68,19.04
X$923 66 114 210 261 66 34 34 sky130_fd_sc_hd__and2_0
* cell instance $924 m0 *1 120.98,19.04
X$924 34 201 243 113 261 66 66 34 sky130_fd_sc_hd__edfxtp_1
* cell instance $927 m0 *1 136.62,19.04
X$927 66 111 66 34 177 34 sky130_fd_sc_hd__buf_4
* cell instance $931 m0 *1 147.2,19.04
X$931 34 244 265 62 76 170 108 266 66 66 34 sky130_fd_sc_hd__mux4_1
* cell instance $934 m0 *1 159.62,19.04
X$934 66 215 171 264 66 34 34 sky130_fd_sc_hd__and2_0
* cell instance $935 m0 *1 161.92,19.04
X$935 66 242 171 172 66 34 34 sky130_fd_sc_hd__and2_0
* cell instance $941 m0 *1 171.58,19.04
X$941 34 84 262 109 263 66 66 34 sky130_fd_sc_hd__edfxtp_1
* cell instance $942 m0 *1 182.62,19.04
X$942 34 180 109 66 66 34 sky130_fd_sc_hd__clkbuf_16
* cell instance $943 m0 *1 191.82,19.04
X$943 66 110 174 238 66 34 34 sky130_fd_sc_hd__and2_0
* cell instance $946 m0 *1 195.04,19.04
X$946 34 260 74 218 259 66 66 34 sky130_fd_sc_hd__mux2i_1
* cell instance $947 m0 *1 198.72,19.04
X$947 34 105 257 63 258 66 66 34 sky130_fd_sc_hd__edfxtp_1
* cell instance $948 m0 *1 209.76,19.04
X$948 34 180 63 66 66 34 sky130_fd_sc_hd__clkbuf_16
* cell instance $949 m0 *1 218.96,19.04
X$949 66 242 176 245 66 34 34 sky130_fd_sc_hd__and2_0
* cell instance $952 m0 *1 222.64,19.04
X$952 34 130 101 131 255 66 66 34 sky130_fd_sc_hd__edfxtp_1
* cell instance $953 m0 *1 233.68,19.04
X$953 34 130 87 52 254 66 66 34 sky130_fd_sc_hd__edfxtp_1
* cell instance $954 m0 *1 244.72,19.04
X$954 66 220 143 221 66 34 34 sky130_fd_sc_hd__and2_0
* cell instance $955 m0 *1 247.02,19.04
X$955 66 220 123 290 66 34 34 sky130_fd_sc_hd__and2_0
* cell instance $958 m0 *1 250.24,19.04
X$958 34 89 251 52 253 66 66 34 sky130_fd_sc_hd__edfxtp_1
* cell instance $959 m0 *1 261.28,19.04
X$959 34 144 250 68 221 66 66 34 sky130_fd_sc_hd__edfxtp_1
* cell instance $960 m0 *1 272.32,19.04
X$960 66 68 66 34 34 sky130_fd_sc_hd__clkinv_1
* cell instance $963 m0 *1 275.08,19.04
X$963 66 217 178 249 66 34 34 sky130_fd_sc_hd__and2_0
* cell instance $965 m0 *1 277.84,19.04
X$965 34 89 248 68 249 66 66 34 sky130_fd_sc_hd__edfxtp_1
* cell instance $967 m0 *1 289.34,19.04
X$967 34 65 246 247 225 66 66 34 sky130_fd_sc_hd__edfxtp_1
* cell instance $988 r0 *1 28.06,19.04
X$988 66 183 66 34 34 sky130_fd_sc_hd__clkinv_1
* cell instance $989 r0 *1 29.44,19.04
X$989 34 165 278 183 277 66 66 34 sky130_fd_sc_hd__edfxtp_1
* cell instance $990 r0 *1 40.48,19.04
X$990 66 47 213 267 66 34 34 sky130_fd_sc_hd__and2_0
* cell instance $993 r0 *1 43.24,19.04
X$993 34 268 281 227 166 269 214 280 66 66 34 sky130_fd_sc_hd__mux4_1
* cell instance $996 r0 *1 57.04,19.04
X$996 66 173 146 190 66 34 34 sky130_fd_sc_hd__and2_0
* cell instance $997 r0 *1 59.34,19.04
X$997 34 241 285 128 284 66 66 34 sky130_fd_sc_hd__edfxtp_1
* cell instance $1002 r0 *1 78.2,19.04
X$1002 34 82 287 167 286 66 66 34 sky130_fd_sc_hd__edfxtp_1
* cell instance $1004 r0 *1 89.7,19.04
X$1004 34 97 211 66 66 34 sky130_fd_sc_hd__buf_6
* cell instance $1007 r0 *1 95.22,19.04
X$1007 66 98 66 34 34 sky130_fd_sc_hd__clkinv_1
* cell instance $1016 r0 *1 105.34,19.04
X$1016 34 201 163 113 289 66 66 34 sky130_fd_sc_hd__edfxtp_1
* cell instance $1017 r0 *1 116.38,19.04
X$1017 34 224 113 66 66 34 sky130_fd_sc_hd__clkbuf_16
* cell instance $1022 r0 *1 128.34,19.04
X$1022 34 244 293 160 208 243 78 266 66 66 34 sky130_fd_sc_hd__mux4_1
* cell instance $1024 r0 *1 139.84,19.04
X$1024 66 220 139 294 66 34 34 sky130_fd_sc_hd__and2_0
* cell instance $1025 r0 *1 142.14,19.04
X$1025 34 141 295 116 294 66 66 34 sky130_fd_sc_hd__edfxtp_1
* cell instance $1031 r0 *1 161.92,19.04
X$1031 34 83 298 109 264 66 66 34 sky130_fd_sc_hd__edfxtp_1
* cell instance $1037 r0 *1 181.24,19.04
X$1037 34 328 262 157 271 66 66 34 sky130_fd_sc_hd__mux2i_1
* cell instance $1038 r0 *1 184.92,19.04
X$1038 34 299 262 157 259 66 66 34 sky130_fd_sc_hd__mux2i_1
* cell instance $1040 r0 *1 189.52,19.04
X$1040 34 297 154 206 259 66 66 34 sky130_fd_sc_hd__mux2i_1
* cell instance $1041 r0 *1 193.2,19.04
X$1041 34 296 154 206 271 66 66 34 sky130_fd_sc_hd__mux2i_1
* cell instance $1047 r0 *1 205.62,19.04
X$1047 66 63 66 34 34 sky130_fd_sc_hd__clkinv_1
* cell instance $1055 r0 *1 215.74,19.04
X$1055 34 105 291 63 245 66 66 34 sky130_fd_sc_hd__edfxtp_1
* cell instance $1063 r0 *1 241.04,19.04
X$1063 34 180 52 66 66 34 sky130_fd_sc_hd__clkbuf_16
* cell instance $1064 r0 *1 250.24,19.04
X$1064 34 65 288 52 290 66 66 34 sky130_fd_sc_hd__edfxtp_1
* cell instance $1066 r0 *1 261.28,19.04
X$1066 66 215 178 126 66 34 34 sky130_fd_sc_hd__and2_0
* cell instance $1070 r0 *1 266.34,19.04
X$1070 34 274 471 228 147 184 67 222 66 66 34 sky130_fd_sc_hd__mux4_1
* cell instance $1071 r0 *1 276,19.04
X$1071 34 185 282 68 283 66 66 34 sky130_fd_sc_hd__edfxtp_1
* cell instance $1074 r0 *1 288.88,19.04
X$1074 66 138 143 279 66 34 34 sky130_fd_sc_hd__and2_0
* cell instance $1076 r0 *1 291.64,19.04
X$1076 34 144 275 247 279 66 66 34 sky130_fd_sc_hd__edfxtp_1
* cell instance $1077 r0 *1 302.68,19.04
X$1077 34 274 473 276 309 275 246 222 66 66 34 sky130_fd_sc_hd__mux4_1
* cell instance $1118 m0 *1 29.44,24.48
X$1118 34 300 301 183 310 66 66 34 sky130_fd_sc_hd__edfxtp_1
* cell instance $1122 m0 *1 45.54,24.48
X$1122 34 302 312 128 252 66 66 34 sky130_fd_sc_hd__edfxtp_1
* cell instance $1126 m0 *1 59.34,24.48
X$1126 66 173 164 284 66 34 34 sky130_fd_sc_hd__and2_0
* cell instance $1127 m0 *1 61.64,24.48
X$1127 66 111 213 303 66 34 34 sky130_fd_sc_hd__and2_0
* cell instance $1128 m0 *1 63.94,24.48
X$1128 34 302 313 167 303 66 66 34 sky130_fd_sc_hd__edfxtp_1
* cell instance $1135 m0 *1 86.02,24.48
X$1135 34 201 316 98 314 66 66 34 sky130_fd_sc_hd__edfxtp_1
* cell instance $1136 m0 *1 97.06,24.48
X$1136 34 211 534 270 561 202 236 229 66 66 34 sky130_fd_sc_hd__mux4_1
* cell instance $1143 m0 *1 113.62,24.48
X$1143 34 244 318 239 168 163 162 266 66 66 34 sky130_fd_sc_hd__mux4_1
* cell instance $1147 m0 *1 134.32,24.48
X$1147 66 111 34 220 66 34 sky130_fd_sc_hd__clkbuf_4
* cell instance $1148 m0 *1 137.08,24.48
X$1148 66 220 210 322 66 34 34 sky130_fd_sc_hd__and2_0
* cell instance $1150 m0 *1 139.84,24.48
X$1150 34 201 324 116 322 66 66 34 sky130_fd_sc_hd__edfxtp_1
* cell instance $1162 m0 *1 178.94,24.48
X$1162 34 329 156 298 271 66 66 34 sky130_fd_sc_hd__mux2i_1
* cell instance $1163 m0 *1 182.62,24.48
X$1163 34 327 156 298 259 66 66 34 sky130_fd_sc_hd__mux2i_1
* cell instance $1166 m0 *1 190.9,24.48
X$1166 34 326 74 218 271 66 66 34 sky130_fd_sc_hd__mux2i_1
* cell instance $1173 m0 *1 207.46,24.48
X$1173 34 323 321 342 152 272 73 362 66 66 34 sky130_fd_sc_hd__mux4_1
* cell instance $1175 m0 *1 217.58,24.48
X$1175 66 131 66 34 34 sky130_fd_sc_hd__clkinv_2
* cell instance $1187 m0 *1 247.48,24.48
X$1187 66 177 273 317 66 34 34 sky130_fd_sc_hd__and2_0
* cell instance $1190 m0 *1 250.7,24.48
X$1190 34 185 306 52 317 66 66 34 sky130_fd_sc_hd__edfxtp_1
* cell instance $1191 m0 *1 261.74,24.48
X$1191 34 308 315 306 251 250 288 307 66 66 34 sky130_fd_sc_hd__mux4_1
* cell instance $1194 m0 *1 274.16,24.48
X$1194 66 217 273 283 66 34 34 sky130_fd_sc_hd__and2_0
* cell instance $1199 m0 *1 280.6,24.48
X$1199 34 274 429 282 248 226 145 222 66 66 34 sky130_fd_sc_hd__mux4_1
* cell instance $1202 m0 *1 291.64,24.48
X$1202 66 242 273 311 66 34 34 sky130_fd_sc_hd__and2_0
* cell instance $1203 m0 *1 293.94,24.48
X$1203 34 185 276 247 311 66 66 34 sky130_fd_sc_hd__edfxtp_1
* cell instance $1205 m0 *1 305.44,24.48
X$1205 34 308 474 276 309 275 246 307 66 66 34 sky130_fd_sc_hd__mux4_1
* cell instance $1220 r0 *1 23.92,24.48
X$1220 34 300 269 183 330 66 66 34 sky130_fd_sc_hd__edfxtp_1
* cell instance $1227 r0 *1 44.16,24.48
X$1227 34 268 347 278 148 301 212 280 66 66 34 sky130_fd_sc_hd__mux4_1
* cell instance $1231 r0 *1 57.04,24.48
X$1231 66 173 331 348 66 34 34 sky130_fd_sc_hd__and2_0
* cell instance $1235 r0 *1 68.54,24.48
X$1235 66 167 4019 34 66 34 sky130_fd_sc_hd__clkbuf_1
* cell instance $1239 r0 *1 70.84,24.48
X$1239 34 224 167 66 66 34 sky130_fd_sc_hd__clkbuf_16
* cell instance $1240 r0 *1 80.04,24.48
X$1240 34 350 337 351 399 66 66 34 sky130_fd_sc_hd__mux2i_4
* cell instance $1241 r0 *1 88.32,24.48
X$1241 34 216 578 236 256 202 77 169 66 66 34 sky130_fd_sc_hd__mux4_1
* cell instance $1244 r0 *1 98.44,24.48
X$1244 34 354 357 98 355 66 66 34 sky130_fd_sc_hd__edfxtp_1
* cell instance $1248 r0 *1 115.46,24.48
X$1248 34 360 363 358 581 361 335 336 66 66 34 sky130_fd_sc_hd__mux4_1