* CDL Netlist generated by OpenROAD

*.BUSDELIMITER [

.SUBCKT register_file clk read_addr1[0] read_addr1[1] read_addr1[2]
+ read_addr1[3] read_addr1[4] read_addr2[0] read_addr2[1] read_addr2[2]
+ read_addr2[3] read_addr2[4] read_data1[0] read_data1[10] read_data1[11]
+ read_data1[12] read_data1[13] read_data1[14] read_data1[15]
+ read_data1[16] read_data1[17] read_data1[18] read_data1[19]
+ read_data1[1] read_data1[20] read_data1[21] read_data1[22]
+ read_data1[23] read_data1[24] read_data1[25] read_data1[26]
+ read_data1[27] read_data1[28] read_data1[29] read_data1[2]
+ read_data1[30] read_data1[31] read_data1[3] read_data1[4]
+ read_data1[5] read_data1[6] read_data1[7] read_data1[8] read_data1[9]
+ read_data2[0] read_data2[10] read_data2[11] read_data2[12]
+ read_data2[13] read_data2[14] read_data2[15] read_data2[16]
+ read_data2[17] read_data2[18] read_data2[19] read_data2[1]
+ read_data2[20] read_data2[21] read_data2[22] read_data2[23]
+ read_data2[24] read_data2[25] read_data2[26] read_data2[27]
+ read_data2[28] read_data2[29] read_data2[2] read_data2[30]
+ read_data2[31] read_data2[3] read_data2[4] read_data2[5] read_data2[6]
+ read_data2[7] read_data2[8] read_data2[9] read_en1 read_en2
+ rst_n write_addr[0] write_addr[1] write_addr[2] write_addr[3]
+ write_addr[4] write_data[0] write_data[10] write_data[11]
+ write_data[12] write_data[13] write_data[14] write_data[15]
+ write_data[16] write_data[17] write_data[18] write_data[19]
+ write_data[1] write_data[20] write_data[21] write_data[22]
+ write_data[23] write_data[24] write_data[25] write_data[26]
+ write_data[27] write_data[28] write_data[29] write_data[2]
+ write_data[30] write_data[31] write_data[3] write_data[4]
+ write_data[5] write_data[6] write_data[7] write_data[8] write_data[9]
+ write_en
X_2566_ _1828_ _1910_ _1911_ _1832_ _1833_ VSS VSS VDD VDD
+ _1912_ sky130_fd_sc_hd__a221oi_2
X_2567_ _1800_ _1909_ _1912_ VSS VSS VDD VDD _1913_ sky130_fd_sc_hd__o21ai_0
X_2568_ registers\[24\]\[15\] registers\[26\]\[15\] registers\[28\]\[15\]
+ registers\[30\]\[15\] _1764_ _1877_ VSS VSS VDD VDD _1914_
+ sky130_fd_sc_hd__mux4_1
X_2569_ registers\[25\]\[15\] registers\[27\]\[15\] registers\[29\]\[15\]
+ registers\[31\]\[15\] _1839_ _1879_ VSS VSS VDD VDD _1915_
+ sky130_fd_sc_hd__mux4_1
X_2570_ _1836_ _1914_ _1915_ _1812_ VSS VSS VDD VDD _1916_
+ sky130_fd_sc_hd__a22oi_2
X_2571_ registers\[8\]\[15\] registers\[9\]\[15\] registers\[10\]\[15\]
+ registers\[11\]\[15\] _1900_ _1901_ VSS VSS VDD VDD _1917_
+ sky130_fd_sc_hd__mux4_1
X_2572_ registers\[12\]\[15\] registers\[13\]\[15\] registers\[14\]\[15\]
+ registers\[15\]\[15\] _1862_ _1816_ VSS VSS VDD VDD _1918_
+ sky130_fd_sc_hd__mux4_1
X_2573_ _1917_ _1918_ _1845_ VSS VSS VDD VDD _1919_ sky130_fd_sc_hd__mux2i_2
X_2574_ registers\[1\]\[15\] registers\[3\]\[15\] registers\[5\]\[15\]
+ registers\[7\]\[15\] _1865_ _1885_ VSS VSS VDD VDD _1920_
+ sky130_fd_sc_hd__mux4_1
X_2575_ registers\[0\]\[15\] registers\[2\]\[15\] registers\[4\]\[15\]
+ registers\[6\]\[15\] _1848_ _1867_ VSS VSS VDD VDD _1921_
+ sky130_fd_sc_hd__mux4_1
X_2576_ _1920_ _1921_ _1750_ VSS VSS VDD VDD _1922_ sky130_fd_sc_hd__mux2i_1
X_2577_ _1792_ VSS VSS VDD VDD _1923_ sky130_fd_sc_hd__buf_8
X_2578_ _1785_ _1919_ _1922_ _1923_ _1798_ VSS VSS VDD VDD
+ _1924_ sky130_fd_sc_hd__a221o_2
X_2579_ _1746_ _1913_ _1916_ _1924_ VSS VSS VDD VDD _0072_
+ sky130_fd_sc_hd__a31oi_1
X_2580_ registers\[17\]\[16\] registers\[19\]\[16\] registers\[21\]\[16\]
+ registers\[23\]\[16\] _1801_ _1871_ VSS VSS VDD VDD _1925_
+ sky130_fd_sc_hd__mux4_1
X_2581_ registers\[18\]\[16\] registers\[22\]\[16\] _1829_
+ VSS VSS VDD VDD _1926_ sky130_fd_sc_hd__mux2i_1
X_2582_ registers\[16\]\[16\] registers\[20\]\[16\] _1776_
+ VSS VSS VDD VDD _1927_ sky130_fd_sc_hd__mux2i_1
X_2583_ _1828_ _1926_ _1927_ _1832_ _1833_ VSS VSS VDD VDD
+ _1928_ sky130_fd_sc_hd__a221oi_1
X_2584_ _1800_ _1925_ _1928_ VSS VSS VDD VDD _1929_ sky130_fd_sc_hd__o21ai_0
X_2585_ registers\[24\]\[16\] registers\[26\]\[16\] registers\[28\]\[16\]
+ registers\[30\]\[16\] _1764_ _1877_ VSS VSS VDD VDD _1930_
+ sky130_fd_sc_hd__mux4_1
X_2586_ registers\[25\]\[16\] registers\[27\]\[16\] registers\[29\]\[16\]
+ registers\[31\]\[16\] _1839_ _1879_ VSS VSS VDD VDD _1931_
+ sky130_fd_sc_hd__mux4_1
X_2587_ _1836_ _1930_ _1931_ _1812_ VSS VSS VDD VDD _1932_
+ sky130_fd_sc_hd__a22oi_2
X_2588_ registers\[0\]\[16\] registers\[1\]\[16\] registers\[2\]\[16\]
+ registers\[3\]\[16\] _1900_ _1901_ VSS VSS VDD VDD _1933_
+ sky130_fd_sc_hd__mux4_1
X_2589_ registers\[4\]\[16\] registers\[5\]\[16\] registers\[6\]\[16\]
+ registers\[7\]\[16\] _1862_ _1816_ VSS VSS VDD VDD _1934_
+ sky130_fd_sc_hd__mux4_1
X_2590_ _1933_ _1934_ _1845_ VSS VSS VDD VDD _1935_ sky130_fd_sc_hd__mux2i_1
X_2591_ registers\[9\]\[16\] registers\[11\]\[16\] registers\[13\]\[16\]
+ registers\[15\]\[16\] _1865_ _1885_ VSS VSS VDD VDD _1936_
+ sky130_fd_sc_hd__mux4_1
X_2592_ registers\[8\]\[16\] registers\[10\]\[16\] registers\[12\]\[16\]
+ registers\[14\]\[16\] _1848_ _1867_ VSS VSS VDD VDD _1937_
+ sky130_fd_sc_hd__mux4_1
X_2593_ _1749_ VSS VSS VDD VDD _1938_ sky130_fd_sc_hd__buf_16
X_2594_ _1936_ _1937_ _1938_ VSS VSS VDD VDD _1939_ sky130_fd_sc_hd__mux2i_4
X_2595_ _1793_ _1935_ _1939_ _1825_ _1798_ VSS VSS VDD VDD
+ _1940_ sky130_fd_sc_hd__a221o_2
X_2596_ _1746_ _1929_ _1932_ _1940_ VSS VSS VDD VDD _0073_
+ sky130_fd_sc_hd__a31oi_1
X_2597_ registers\[17\]\[17\] registers\[19\]\[17\] registers\[21\]\[17\]
+ registers\[23\]\[17\] _1801_ _1871_ VSS VSS VDD VDD _1941_
+ sky130_fd_sc_hd__mux4_1
X_2598_ registers\[18\]\[17\] registers\[22\]\[17\] _1829_
+ VSS VSS VDD VDD _1942_ sky130_fd_sc_hd__mux2i_1
X_2599_ _1819_ VSS VSS VDD VDD _1943_ sky130_fd_sc_hd__buf_6
X_2600_ registers\[16\]\[17\] registers\[20\]\[17\] _1943_
+ VSS VSS VDD VDD _1944_ sky130_fd_sc_hd__mux2i_1
X_2601_ _1828_ _1942_ _1944_ _1832_ _1833_ VSS VSS VDD VDD
+ _1945_ sky130_fd_sc_hd__a221oi_2
X_2602_ _1800_ _1941_ _1945_ VSS VSS VDD VDD _1946_ sky130_fd_sc_hd__o21ai_0
X_2603_ registers\[24\]\[17\] registers\[26\]\[17\] registers\[28\]\[17\]
+ registers\[30\]\[17\] _1764_ _1877_ VSS VSS VDD VDD _1947_
+ sky130_fd_sc_hd__mux4_1
X_2604_ registers\[25\]\[17\] registers\[27\]\[17\] registers\[29\]\[17\]
+ registers\[31\]\[17\] _1839_ _1879_ VSS VSS VDD VDD _1948_
+ sky130_fd_sc_hd__mux4_1
X_2605_ _1836_ _1947_ _1948_ _1812_ VSS VSS VDD VDD _1949_
+ sky130_fd_sc_hd__a22oi_2
X_2606_ registers\[8\]\[17\] registers\[9\]\[17\] registers\[10\]\[17\]
+ registers\[11\]\[17\] _1900_ _1901_ VSS VSS VDD VDD _1950_
+ sky130_fd_sc_hd__mux4_1
X_2607_ registers\[12\]\[17\] registers\[13\]\[17\] registers\[14\]\[17\]
+ registers\[15\]\[17\] _1862_ _1816_ VSS VSS VDD VDD _1951_
+ sky130_fd_sc_hd__mux4_1
X_2608_ _1950_ _1951_ _1845_ VSS VSS VDD VDD _1952_ sky130_fd_sc_hd__mux2i_2
X_2609_ registers\[1\]\[17\] registers\[3\]\[17\] registers\[5\]\[17\]
+ registers\[7\]\[17\] _1865_ _1885_ VSS VSS VDD VDD _1953_
+ sky130_fd_sc_hd__mux4_1
X_2610_ registers\[0\]\[17\] registers\[2\]\[17\] registers\[4\]\[17\]
+ registers\[6\]\[17\] _1848_ _1867_ VSS VSS VDD VDD _1954_
+ sky130_fd_sc_hd__mux4_1
X_2611_ _1953_ _1954_ _1938_ VSS VSS VDD VDD _1955_ sky130_fd_sc_hd__mux2i_1
X_2612_ _1785_ _1952_ _1955_ _1923_ _1798_ VSS VSS VDD VDD
+ _1956_ sky130_fd_sc_hd__a221o_2
X_2613_ _1746_ _1946_ _1949_ _1956_ VSS VSS VDD VDD _0074_
+ sky130_fd_sc_hd__a31oi_2
X_2614_ registers\[17\]\[18\] registers\[19\]\[18\] registers\[21\]\[18\]
+ registers\[23\]\[18\] _1801_ _1871_ VSS VSS VDD VDD _1957_
+ sky130_fd_sc_hd__mux4_1
X_2615_ registers\[18\]\[18\] registers\[22\]\[18\] _1829_
+ VSS VSS VDD VDD _1958_ sky130_fd_sc_hd__mux2i_1
X_2616_ registers\[16\]\[18\] registers\[20\]\[18\] _1943_
+ VSS VSS VDD VDD _1959_ sky130_fd_sc_hd__mux2i_1
X_2617_ _1828_ _1958_ _1959_ _1832_ _1833_ VSS VSS VDD VDD
+ _1960_ sky130_fd_sc_hd__a221oi_1
X_2618_ _1800_ _1957_ _1960_ VSS VSS VDD VDD _1961_ sky130_fd_sc_hd__o21ai_0
X_2619_ _1753_ VSS VSS VDD VDD _1962_ sky130_fd_sc_hd__buf_8
X_2620_ registers\[24\]\[18\] registers\[26\]\[18\] registers\[28\]\[18\]
+ registers\[30\]\[18\] _1962_ _1877_ VSS VSS VDD VDD _1963_
+ sky130_fd_sc_hd__mux4_1
X_2621_ registers\[25\]\[18\] registers\[27\]\[18\] registers\[29\]\[18\]
+ registers\[31\]\[18\] _1839_ _1879_ VSS VSS VDD VDD _1964_
+ sky130_fd_sc_hd__mux4_1
X_2622_ _1836_ _1963_ _1964_ _1812_ VSS VSS VDD VDD _1965_
+ sky130_fd_sc_hd__a22oi_4
X_2623_ registers\[0\]\[18\] registers\[1\]\[18\] registers\[2\]\[18\]
+ registers\[3\]\[18\] _1900_ _1901_ VSS VSS VDD VDD _1966_
+ sky130_fd_sc_hd__mux4_1
X_2624_ registers\[4\]\[18\] registers\[5\]\[18\] registers\[6\]\[18\]
+ registers\[7\]\[18\] _1862_ _1816_ VSS VSS VDD VDD _1967_
+ sky130_fd_sc_hd__mux4_1
X_2625_ _1966_ _1967_ _1845_ VSS VSS VDD VDD _1968_ sky130_fd_sc_hd__mux2i_1
X_2626_ registers\[9\]\[18\] registers\[11\]\[18\] registers\[13\]\[18\]
+ registers\[15\]\[18\] _1865_ _1885_ VSS VSS VDD VDD _1969_
+ sky130_fd_sc_hd__mux4_1
X_2627_ registers\[8\]\[18\] registers\[10\]\[18\] registers\[12\]\[18\]
+ registers\[14\]\[18\] _1848_ _1867_ VSS VSS VDD VDD _1970_
+ sky130_fd_sc_hd__mux4_1
X_2628_ _1969_ _1970_ _1938_ VSS VSS VDD VDD _1971_ sky130_fd_sc_hd__mux2i_4
X_2629_ _1793_ _1968_ _1971_ _1825_ _1798_ VSS VSS VDD VDD
+ _1972_ sky130_fd_sc_hd__a221o_1
X_2630_ _1746_ _1961_ _1965_ _1972_ VSS VSS VDD VDD _0075_
+ sky130_fd_sc_hd__a31oi_1
X_2631_ _1745_ VSS VSS VDD VDD _1973_ sky130_fd_sc_hd__buf_8
X_2632_ registers\[25\]\[19\] registers\[27\]\[19\] registers\[29\]\[19\]
+ registers\[31\]\[19\] _1754_ _1757_ VSS VSS VDD VDD _1974_
+ sky130_fd_sc_hd__mux4_1
X_2633_ registers\[24\]\[19\] registers\[28\]\[19\] _1840_
+ VSS VSS VDD VDD _1975_ sky130_fd_sc_hd__mux2i_1
X_2634_ _1766_ _1975_ VSS VSS VDD VDD _1976_ sky130_fd_sc_hd__nand2_1
X_2635_ registers\[26\]\[19\] registers\[30\]\[19\] _1760_
+ VSS VSS VDD VDD _1977_ sky130_fd_sc_hd__mux2i_1
X_2636_ _1770_ _1977_ VSS VSS VDD VDD _1978_ sky130_fd_sc_hd__nand2_1
X_2637_ _1751_ _1974_ _1976_ _1978_ _1773_ VSS VSS VDD VDD
+ _1979_ sky130_fd_sc_hd__o2111ai_4
X_2638_ registers\[16\]\[19\] registers\[18\]\[19\] registers\[20\]\[19\]
+ registers\[22\]\[19\] _1962_ _1877_ VSS VSS VDD VDD _1980_
+ sky130_fd_sc_hd__mux4_1
X_2639_ registers\[17\]\[19\] registers\[19\]\[19\] registers\[21\]\[19\]
+ registers\[23\]\[19\] _1839_ _1879_ VSS VSS VDD VDD _1981_
+ sky130_fd_sc_hd__mux4_1
X_2640_ _1778_ _1980_ _1981_ _1779_ VSS VSS VDD VDD _1982_
+ sky130_fd_sc_hd__a22oi_1
X_2641_ registers\[8\]\[19\] registers\[9\]\[19\] registers\[10\]\[19\]
+ registers\[11\]\[19\] _1900_ _1901_ VSS VSS VDD VDD _1983_
+ sky130_fd_sc_hd__mux4_1
X_2642_ registers\[12\]\[19\] registers\[13\]\[19\] registers\[14\]\[19\]
+ registers\[15\]\[19\] _1862_ _1816_ VSS VSS VDD VDD _1984_
+ sky130_fd_sc_hd__mux4_1
X_2643_ _1983_ _1984_ _1845_ VSS VSS VDD VDD _1985_ sky130_fd_sc_hd__mux2i_2
X_2644_ registers\[1\]\[19\] registers\[3\]\[19\] registers\[5\]\[19\]
+ registers\[7\]\[19\] _1865_ _1885_ VSS VSS VDD VDD _1986_
+ sky130_fd_sc_hd__mux4_1
X_2645_ registers\[0\]\[19\] registers\[2\]\[19\] registers\[4\]\[19\]
+ registers\[6\]\[19\] _1848_ _1867_ VSS VSS VDD VDD _1987_
+ sky130_fd_sc_hd__mux4_1
X_2646_ _1986_ _1987_ _1938_ VSS VSS VDD VDD _1988_ sky130_fd_sc_hd__mux2i_1
X_2647_ _1797_ VSS VSS VDD VDD _1989_ sky130_fd_sc_hd__buf_6
X_2648_ _1785_ _1985_ _1988_ _1923_ _1989_ VSS VSS VDD VDD
+ _1990_ sky130_fd_sc_hd__a221o_4
X_2649_ _1973_ _1979_ _1982_ _1990_ VSS VSS VDD VDD _0076_
+ sky130_fd_sc_hd__a31oi_2
X_2650_ registers\[17\]\[1\] registers\[19\]\[1\] registers\[21\]\[1\]
+ registers\[23\]\[1\] _1801_ _1871_ VSS VSS VDD VDD _1991_
+ sky130_fd_sc_hd__mux4_1
X_2651_ registers\[18\]\[1\] registers\[22\]\[1\] _1829_ VSS
+ VSS VDD VDD _1992_ sky130_fd_sc_hd__mux2i_1
X_2652_ registers\[16\]\[1\] registers\[20\]\[1\] _1943_ VSS
+ VSS VDD VDD _1993_ sky130_fd_sc_hd__mux2i_1
X_2653_ _1828_ _1992_ _1993_ _1832_ _1833_ VSS VSS VDD VDD
+ _1994_ sky130_fd_sc_hd__a221oi_2
X_2654_ _1800_ _1991_ _1994_ VSS VSS VDD VDD _1995_ sky130_fd_sc_hd__o21ai_1
X_2655_ registers\[24\]\[1\] registers\[26\]\[1\] registers\[28\]\[1\]
+ registers\[30\]\[1\] _1962_ _1877_ VSS VSS VDD VDD _1996_
+ sky130_fd_sc_hd__mux4_1
X_2656_ registers\[25\]\[1\] registers\[27\]\[1\] registers\[29\]\[1\]
+ registers\[31\]\[1\] _1839_ _1879_ VSS VSS VDD VDD _1997_
+ sky130_fd_sc_hd__mux4_1
X_2657_ _1836_ _1996_ _1997_ _1812_ VSS VSS VDD VDD _1998_
+ sky130_fd_sc_hd__a22oi_4
X_2658_ registers\[8\]\[1\] registers\[9\]\[1\] registers\[10\]\[1\]
+ registers\[11\]\[1\] _1900_ _1901_ VSS VSS VDD VDD _1999_
+ sky130_fd_sc_hd__mux4_1
X_2659_ _1753_ VSS VSS VDD VDD _2000_ sky130_fd_sc_hd__buf_6
X_2660_ registers\[12\]\[1\] registers\[13\]\[1\] registers\[14\]\[1\]
+ registers\[15\]\[1\] _1862_ _2000_ VSS VSS VDD VDD _2001_
+ sky130_fd_sc_hd__mux4_1
X_2661_ _1999_ _2001_ _1845_ VSS VSS VDD VDD _2002_ sky130_fd_sc_hd__mux2i_2
X_2662_ registers\[1\]\[1\] registers\[3\]\[1\] registers\[5\]\[1\]
+ registers\[7\]\[1\] _1865_ _1885_ VSS VSS VDD VDD _2003_ sky130_fd_sc_hd__mux4_1
X_2663_ registers\[0\]\[1\] registers\[2\]\[1\] registers\[4\]\[1\]
+ registers\[6\]\[1\] _1848_ _1867_ VSS VSS VDD VDD _2004_ sky130_fd_sc_hd__mux4_1
X_2664_ _2003_ _2004_ _1938_ VSS VSS VDD VDD _2005_ sky130_fd_sc_hd__mux2i_1
X_2665_ _1785_ _2002_ _2005_ _1923_ _1989_ VSS VSS VDD VDD
+ _2006_ sky130_fd_sc_hd__a221o_4
X_2666_ _1973_ _1995_ _1998_ _2006_ VSS VSS VDD VDD _0077_
+ sky130_fd_sc_hd__a31oi_4
X_2667_ registers\[17\]\[20\] registers\[19\]\[20\] registers\[21\]\[20\]
+ registers\[23\]\[20\] _1801_ _1871_ VSS VSS VDD VDD _2007_
+ sky130_fd_sc_hd__mux4_1
X_2668_ registers\[18\]\[20\] registers\[22\]\[20\] _1829_
+ VSS VSS VDD VDD _2008_ sky130_fd_sc_hd__mux2i_1
X_2669_ registers\[16\]\[20\] registers\[20\]\[20\] _1943_
+ VSS VSS VDD VDD _2009_ sky130_fd_sc_hd__mux2i_1
X_2670_ _1828_ _2008_ _2009_ _1832_ _1833_ VSS VSS VDD VDD
+ _2010_ sky130_fd_sc_hd__a221oi_2
X_2671_ _1800_ _2007_ _2010_ VSS VSS VDD VDD _2011_ sky130_fd_sc_hd__o21ai_1
X_2672_ registers\[24\]\[20\] registers\[26\]\[20\] registers\[28\]\[20\]
+ registers\[30\]\[20\] _1962_ _1877_ VSS VSS VDD VDD _2012_
+ sky130_fd_sc_hd__mux4_1
X_2673_ _1763_ VSS VSS VDD VDD _2013_ sky130_fd_sc_hd__buf_8
X_2674_ registers\[25\]\[20\] registers\[27\]\[20\] registers\[29\]\[20\]
+ registers\[31\]\[20\] _2013_ _1879_ VSS VSS VDD VDD _2014_
+ sky130_fd_sc_hd__mux4_1
X_2675_ _1836_ _2012_ _2014_ _1812_ VSS VSS VDD VDD _2015_
+ sky130_fd_sc_hd__a22oi_4
X_2676_ registers\[0\]\[20\] registers\[1\]\[20\] registers\[2\]\[20\]
+ registers\[3\]\[20\] _1900_ _1901_ VSS VSS VDD VDD _2016_
+ sky130_fd_sc_hd__mux4_1
X_2677_ registers\[4\]\[20\] registers\[5\]\[20\] registers\[6\]\[20\]
+ registers\[7\]\[20\] _1862_ _2000_ VSS VSS VDD VDD _2017_
+ sky130_fd_sc_hd__mux4_1
X_2678_ _1819_ VSS VSS VDD VDD _2018_ sky130_fd_sc_hd__buf_8
X_2679_ _2016_ _2017_ _2018_ VSS VSS VDD VDD _2019_ sky130_fd_sc_hd__mux2i_1
X_2680_ registers\[9\]\[20\] registers\[11\]\[20\] registers\[13\]\[20\]
+ registers\[15\]\[20\] _1865_ _1885_ VSS VSS VDD VDD _2020_
+ sky130_fd_sc_hd__mux4_1
X_2681_ _1752_ VSS VSS VDD VDD _2021_ sky130_fd_sc_hd__buf_6
X_2682_ registers\[8\]\[20\] registers\[10\]\[20\] registers\[12\]\[20\]
+ registers\[14\]\[20\] _2021_ _1867_ VSS VSS VDD VDD _2022_
+ sky130_fd_sc_hd__mux4_1
X_2683_ _2020_ _2022_ _1938_ VSS VSS VDD VDD _2023_ sky130_fd_sc_hd__mux2i_4
X_2684_ _1793_ _2019_ _2023_ _1825_ _1989_ VSS VSS VDD VDD
+ _2024_ sky130_fd_sc_hd__a221o_2
X_2685_ _1973_ _2011_ _2015_ _2024_ VSS VSS VDD VDD _0078_
+ sky130_fd_sc_hd__a31oi_4
X_2686_ registers\[17\]\[21\] registers\[19\]\[21\] registers\[21\]\[21\]
+ registers\[23\]\[21\] _1801_ _1871_ VSS VSS VDD VDD _2025_
+ sky130_fd_sc_hd__mux4_1
X_2687_ registers\[18\]\[21\] registers\[22\]\[21\] _1829_
+ VSS VSS VDD VDD _2026_ sky130_fd_sc_hd__mux2i_1
X_2688_ registers\[16\]\[21\] registers\[20\]\[21\] _1943_
+ VSS VSS VDD VDD _2027_ sky130_fd_sc_hd__mux2i_1
X_2689_ _1828_ _2026_ _2027_ _1832_ _1833_ VSS VSS VDD VDD
+ _2028_ sky130_fd_sc_hd__a221oi_2
X_2690_ _1800_ _2025_ _2028_ VSS VSS VDD VDD _2029_ sky130_fd_sc_hd__o21ai_1
X_2691_ registers\[24\]\[21\] registers\[26\]\[21\] registers\[28\]\[21\]
+ registers\[30\]\[21\] _1962_ _1877_ VSS VSS VDD VDD _2030_
+ sky130_fd_sc_hd__mux4_1
X_2692_ registers\[25\]\[21\] registers\[27\]\[21\] registers\[29\]\[21\]
+ registers\[31\]\[21\] _2013_ _1879_ VSS VSS VDD VDD _2031_
+ sky130_fd_sc_hd__mux4_1
X_2693_ _1836_ _2030_ _2031_ _1812_ VSS VSS VDD VDD _2032_
+ sky130_fd_sc_hd__a22oi_4
X_2694_ registers\[0\]\[21\] registers\[1\]\[21\] registers\[2\]\[21\]
+ registers\[3\]\[21\] _1900_ _1901_ VSS VSS VDD VDD _2033_
+ sky130_fd_sc_hd__mux4_1
X_2695_ _1747_ VSS VSS VDD VDD _2034_ sky130_fd_sc_hd__buf_6
X_2696_ registers\[4\]\[21\] registers\[5\]\[21\] registers\[6\]\[21\]
+ registers\[7\]\[21\] _2034_ _2000_ VSS VSS VDD VDD _2035_
+ sky130_fd_sc_hd__mux4_1
X_2697_ _2033_ _2035_ _2018_ VSS VSS VDD VDD _2036_ sky130_fd_sc_hd__mux2i_2
X_2698_ _1752_ VSS VSS VDD VDD _2037_ sky130_fd_sc_hd__buf_6
X_2699_ registers\[9\]\[21\] registers\[11\]\[21\] registers\[13\]\[21\]
+ registers\[15\]\[21\] _2037_ _1885_ VSS VSS VDD VDD _2038_
+ sky130_fd_sc_hd__mux4_1
X_2700_ _1755_ VSS VSS VDD VDD _2039_ sky130_fd_sc_hd__buf_4
X_2701_ registers\[8\]\[21\] registers\[10\]\[21\] registers\[12\]\[21\]
+ registers\[14\]\[21\] _2021_ _2039_ VSS VSS VDD VDD _2040_
+ sky130_fd_sc_hd__mux4_1
X_2702_ _2038_ _2040_ _1938_ VSS VSS VDD VDD _2041_ sky130_fd_sc_hd__mux2i_4
X_2703_ _1793_ _2036_ _2041_ _1825_ _1989_ VSS VSS VDD VDD
+ _2042_ sky130_fd_sc_hd__a221o_4
X_2704_ _1973_ _2029_ _2032_ _2042_ VSS VSS VDD VDD _0079_
+ sky130_fd_sc_hd__a31oi_4
X_2705_ registers\[25\]\[22\] registers\[27\]\[22\] registers\[29\]\[22\]
+ registers\[31\]\[22\] _1754_ _1757_ VSS VSS VDD VDD _2043_
+ sky130_fd_sc_hd__mux4_1
X_2706_ registers\[24\]\[22\] registers\[28\]\[22\] _1840_
+ VSS VSS VDD VDD _2044_ sky130_fd_sc_hd__mux2i_1
X_2707_ _1766_ _2044_ VSS VSS VDD VDD _2045_ sky130_fd_sc_hd__nand2_1
X_2708_ registers\[26\]\[22\] registers\[30\]\[22\] _1760_
+ VSS VSS VDD VDD _2046_ sky130_fd_sc_hd__mux2i_1
X_2709_ _1770_ _2046_ VSS VSS VDD VDD _2047_ sky130_fd_sc_hd__nand2_1
X_2710_ _1751_ _2043_ _2045_ _2047_ _1773_ VSS VSS VDD VDD
+ _2048_ sky130_fd_sc_hd__o2111ai_4
X_2711_ _1819_ VSS VSS VDD VDD _2049_ sky130_fd_sc_hd__buf_6
X_2712_ registers\[16\]\[22\] registers\[18\]\[22\] registers\[20\]\[22\]
+ registers\[22\]\[22\] _1962_ _2049_ VSS VSS VDD VDD _2050_
+ sky130_fd_sc_hd__mux4_1
X_2713_ _1759_ VSS VSS VDD VDD _2051_ sky130_fd_sc_hd__buf_6
X_2714_ registers\[17\]\[22\] registers\[19\]\[22\] registers\[21\]\[22\]
+ registers\[23\]\[22\] _2013_ _2051_ VSS VSS VDD VDD _2052_
+ sky130_fd_sc_hd__mux4_1
X_2715_ _1778_ _2050_ _2052_ _1779_ VSS VSS VDD VDD _2053_
+ sky130_fd_sc_hd__a22oi_1
X_2716_ _1792_ VSS VSS VDD VDD _2054_ sky130_fd_sc_hd__buf_6
X_2717_ registers\[0\]\[22\] registers\[1\]\[22\] registers\[2\]\[22\]
+ registers\[3\]\[22\] _1900_ _1901_ VSS VSS VDD VDD _2055_
+ sky130_fd_sc_hd__mux4_1
X_2718_ registers\[4\]\[22\] registers\[5\]\[22\] registers\[6\]\[22\]
+ registers\[7\]\[22\] _2034_ _2000_ VSS VSS VDD VDD _2056_
+ sky130_fd_sc_hd__mux4_1
X_2719_ _2055_ _2056_ _2018_ VSS VSS VDD VDD _2057_ sky130_fd_sc_hd__mux2i_1
X_2720_ _1756_ VSS VSS VDD VDD _2058_ sky130_fd_sc_hd__buf_6
X_2721_ registers\[9\]\[22\] registers\[11\]\[22\] registers\[13\]\[22\]
+ registers\[15\]\[22\] _2037_ _2058_ VSS VSS VDD VDD _2059_
+ sky130_fd_sc_hd__mux4_1
X_2722_ registers\[8\]\[22\] registers\[10\]\[22\] registers\[12\]\[22\]
+ registers\[14\]\[22\] _2021_ _2039_ VSS VSS VDD VDD _2060_
+ sky130_fd_sc_hd__mux4_1
X_2723_ _2059_ _2060_ _1938_ VSS VSS VDD VDD _2061_ sky130_fd_sc_hd__mux2i_2
X_2724_ _1784_ VSS VSS VDD VDD _2062_ sky130_fd_sc_hd__buf_6
X_2725_ _2054_ _2057_ _2061_ _2062_ _1989_ VSS VSS VDD VDD
+ _2063_ sky130_fd_sc_hd__a221o_4
X_2726_ _1973_ _2048_ _2053_ _2063_ VSS VSS VDD VDD _0080_
+ sky130_fd_sc_hd__a31oi_2
X_2727_ _1748_ VSS VSS VDD VDD _2064_ sky130_fd_sc_hd__buf_4
X_2728_ _1763_ VSS VSS VDD VDD _2065_ sky130_fd_sc_hd__buf_4
X_2729_ registers\[17\]\[23\] registers\[19\]\[23\] registers\[21\]\[23\]
+ registers\[23\]\[23\] _2065_ _1871_ VSS VSS VDD VDD _2066_
+ sky130_fd_sc_hd__mux4_1
X_2730_ registers\[18\]\[23\] registers\[22\]\[23\] _1829_
+ VSS VSS VDD VDD _2067_ sky130_fd_sc_hd__mux2i_2
X_2731_ registers\[16\]\[23\] registers\[20\]\[23\] _1943_
+ VSS VSS VDD VDD _2068_ sky130_fd_sc_hd__mux2i_2
X_2732_ _1828_ _2067_ _2068_ _1832_ _1833_ VSS VSS VDD VDD
+ _2069_ sky130_fd_sc_hd__a221oi_4
X_2733_ _2064_ _2066_ _2069_ VSS VSS VDD VDD _2070_ sky130_fd_sc_hd__o21ai_1
X_2734_ registers\[24\]\[23\] registers\[26\]\[23\] registers\[28\]\[23\]
+ registers\[30\]\[23\] _1962_ _2049_ VSS VSS VDD VDD _2071_
+ sky130_fd_sc_hd__mux4_1
X_2735_ registers\[25\]\[23\] registers\[27\]\[23\] registers\[29\]\[23\]
+ registers\[31\]\[23\] _2013_ _2051_ VSS VSS VDD VDD _2072_
+ sky130_fd_sc_hd__mux4_1
X_2736_ _1811_ VSS VSS VDD VDD _2073_ sky130_fd_sc_hd__buf_8
X_2737_ _1836_ _2071_ _2072_ _2073_ VSS VSS VDD VDD _2074_
+ sky130_fd_sc_hd__a22oi_4
X_2738_ _1747_ VSS VSS VDD VDD _2075_ sky130_fd_sc_hd__buf_6
X_2739_ _1763_ VSS VSS VDD VDD _2076_ sky130_fd_sc_hd__buf_6
X_2740_ registers\[0\]\[23\] registers\[1\]\[23\] registers\[2\]\[23\]
+ registers\[3\]\[23\] _2075_ _2076_ VSS VSS VDD VDD _2077_
+ sky130_fd_sc_hd__mux4_1
X_2741_ registers\[4\]\[23\] registers\[5\]\[23\] registers\[6\]\[23\]
+ registers\[7\]\[23\] _2034_ _2000_ VSS VSS VDD VDD _2078_
+ sky130_fd_sc_hd__mux4_1
X_2742_ _2077_ _2078_ _2018_ VSS VSS VDD VDD _2079_ sky130_fd_sc_hd__mux2i_1
X_2743_ registers\[9\]\[23\] registers\[11\]\[23\] registers\[13\]\[23\]
+ registers\[15\]\[23\] _2037_ _2058_ VSS VSS VDD VDD _2080_
+ sky130_fd_sc_hd__mux4_1
X_2744_ registers\[8\]\[23\] registers\[10\]\[23\] registers\[12\]\[23\]
+ registers\[14\]\[23\] _2021_ _2039_ VSS VSS VDD VDD _2081_
+ sky130_fd_sc_hd__mux4_1
X_2745_ _2080_ _2081_ _1938_ VSS VSS VDD VDD _2082_ sky130_fd_sc_hd__mux2i_2
X_2746_ _2054_ _2079_ _2082_ _2062_ _1989_ VSS VSS VDD VDD
+ _2083_ sky130_fd_sc_hd__a221o_4
X_2747_ _1973_ _2070_ _2074_ _2083_ VSS VSS VDD VDD _0081_
+ sky130_fd_sc_hd__a31oi_4
X_2748_ registers\[25\]\[24\] registers\[27\]\[24\] registers\[29\]\[24\]
+ registers\[31\]\[24\] _1754_ _1757_ VSS VSS VDD VDD _2084_
+ sky130_fd_sc_hd__mux4_1
X_2749_ registers\[24\]\[24\] registers\[28\]\[24\] _1840_
+ VSS VSS VDD VDD _2085_ sky130_fd_sc_hd__mux2i_1
X_2750_ _1766_ _2085_ VSS VSS VDD VDD _2086_ sky130_fd_sc_hd__nand2_1
X_2751_ registers\[26\]\[24\] registers\[30\]\[24\] _1760_
+ VSS VSS VDD VDD _2087_ sky130_fd_sc_hd__mux2i_1
X_2752_ _1770_ _2087_ VSS VSS VDD VDD _2088_ sky130_fd_sc_hd__nand2_1
X_2753_ _1751_ _2084_ _2086_ _2088_ _1773_ VSS VSS VDD VDD
+ _2089_ sky130_fd_sc_hd__o2111ai_4
X_2754_ registers\[16\]\[24\] registers\[18\]\[24\] registers\[20\]\[24\]
+ registers\[22\]\[24\] _1962_ _2049_ VSS VSS VDD VDD _2090_
+ sky130_fd_sc_hd__mux4_2
X_2755_ registers\[17\]\[24\] registers\[19\]\[24\] registers\[21\]\[24\]
+ registers\[23\]\[24\] _2013_ _2051_ VSS VSS VDD VDD _2091_
+ sky130_fd_sc_hd__mux4_1
X_2756_ _1778_ _2090_ _2091_ _1779_ VSS VSS VDD VDD _2092_
+ sky130_fd_sc_hd__a22oi_2
X_2757_ registers\[0\]\[24\] registers\[1\]\[24\] registers\[2\]\[24\]
+ registers\[3\]\[24\] _2075_ _2076_ VSS VSS VDD VDD _2093_
+ sky130_fd_sc_hd__mux4_1
X_2758_ registers\[4\]\[24\] registers\[5\]\[24\] registers\[6\]\[24\]
+ registers\[7\]\[24\] _2034_ _2000_ VSS VSS VDD VDD _2094_
+ sky130_fd_sc_hd__mux4_1
X_2759_ _2093_ _2094_ _2018_ VSS VSS VDD VDD _2095_ sky130_fd_sc_hd__mux2i_1
X_2760_ registers\[9\]\[24\] registers\[11\]\[24\] registers\[13\]\[24\]
+ registers\[15\]\[24\] _2037_ _2058_ VSS VSS VDD VDD _2096_
+ sky130_fd_sc_hd__mux4_1
X_2761_ registers\[8\]\[24\] registers\[10\]\[24\] registers\[12\]\[24\]
+ registers\[14\]\[24\] _2021_ _2039_ VSS VSS VDD VDD _2097_
+ sky130_fd_sc_hd__mux4_1
X_2762_ _2096_ _2097_ _1938_ VSS VSS VDD VDD _2098_ sky130_fd_sc_hd__mux2i_4
X_2763_ _2054_ _2095_ _2098_ _2062_ _1989_ VSS VSS VDD VDD
+ _2099_ sky130_fd_sc_hd__a221o_4
X_2764_ _1973_ _2089_ _2092_ _2099_ VSS VSS VDD VDD _0082_
+ sky130_fd_sc_hd__a31oi_4
X_2765_ registers\[17\]\[25\] registers\[19\]\[25\] registers\[21\]\[25\]
+ registers\[23\]\[25\] _2065_ _1871_ VSS VSS VDD VDD _2100_
+ sky130_fd_sc_hd__mux4_1
X_2766_ _1769_ VSS VSS VDD VDD _2101_ sky130_fd_sc_hd__buf_4
X_2767_ _1756_ VSS VSS VDD VDD _2102_ sky130_fd_sc_hd__buf_6
X_2768_ registers\[18\]\[25\] registers\[22\]\[25\] _2102_
+ VSS VSS VDD VDD _2103_ sky130_fd_sc_hd__mux2i_1
X_2769_ registers\[16\]\[25\] registers\[20\]\[25\] _1943_
+ VSS VSS VDD VDD _2104_ sky130_fd_sc_hd__mux2i_1
X_2770_ _1765_ VSS VSS VDD VDD _2105_ sky130_fd_sc_hd__buf_6
X_2771_ _1772_ VSS VSS VDD VDD _2106_ sky130_fd_sc_hd__buf_4
X_2772_ _2101_ _2103_ _2104_ _2105_ _2106_ VSS VSS VDD VDD
+ _2107_ sky130_fd_sc_hd__a221oi_2
X_2773_ _2064_ _2100_ _2107_ VSS VSS VDD VDD _2108_ sky130_fd_sc_hd__o21ai_1
X_2774_ _1809_ VSS VSS VDD VDD _2109_ sky130_fd_sc_hd__buf_8
X_2775_ registers\[24\]\[25\] registers\[26\]\[25\] registers\[28\]\[25\]
+ registers\[30\]\[25\] _1962_ _2049_ VSS VSS VDD VDD _2110_
+ sky130_fd_sc_hd__mux4_1
X_2776_ registers\[25\]\[25\] registers\[27\]\[25\] registers\[29\]\[25\]
+ registers\[31\]\[25\] _2013_ _2051_ VSS VSS VDD VDD _2111_
+ sky130_fd_sc_hd__mux4_1
X_2777_ _2109_ _2110_ _2111_ _2073_ VSS VSS VDD VDD _2112_
+ sky130_fd_sc_hd__a22oi_4
X_2778_ registers\[8\]\[25\] registers\[9\]\[25\] registers\[10\]\[25\]
+ registers\[11\]\[25\] _2075_ _2076_ VSS VSS VDD VDD _2113_
+ sky130_fd_sc_hd__mux4_1
X_2779_ registers\[12\]\[25\] registers\[13\]\[25\] registers\[14\]\[25\]
+ registers\[15\]\[25\] _2034_ _2000_ VSS VSS VDD VDD _2114_
+ sky130_fd_sc_hd__mux4_1
X_2780_ _2113_ _2114_ _2018_ VSS VSS VDD VDD _2115_ sky130_fd_sc_hd__mux2i_2
X_2781_ registers\[1\]\[25\] registers\[3\]\[25\] registers\[5\]\[25\]
+ registers\[7\]\[25\] _2037_ _2058_ VSS VSS VDD VDD _2116_
+ sky130_fd_sc_hd__mux4_1
X_2782_ registers\[0\]\[25\] registers\[2\]\[25\] registers\[4\]\[25\]
+ registers\[6\]\[25\] _2021_ _2039_ VSS VSS VDD VDD _2117_
+ sky130_fd_sc_hd__mux4_1
X_2783_ _1749_ VSS VSS VDD VDD _2118_ sky130_fd_sc_hd__buf_8
X_2784_ _2116_ _2117_ _2118_ VSS VSS VDD VDD _2119_ sky130_fd_sc_hd__mux2i_1
X_2785_ _1785_ _2115_ _2119_ _1923_ _1989_ VSS VSS VDD VDD
+ _2120_ sky130_fd_sc_hd__a221o_4
X_2786_ _1973_ _2108_ _2112_ _2120_ VSS VSS VDD VDD _0083_
+ sky130_fd_sc_hd__a31oi_4
X_2787_ _1759_ VSS VSS VDD VDD _2121_ sky130_fd_sc_hd__buf_4
X_2788_ registers\[17\]\[26\] registers\[19\]\[26\] registers\[21\]\[26\]
+ registers\[23\]\[26\] _2065_ _2121_ VSS VSS VDD VDD _2122_
+ sky130_fd_sc_hd__mux4_1
X_2789_ registers\[18\]\[26\] registers\[22\]\[26\] _2102_
+ VSS VSS VDD VDD _2123_ sky130_fd_sc_hd__mux2i_1
X_2790_ registers\[16\]\[26\] registers\[20\]\[26\] _1943_
+ VSS VSS VDD VDD _2124_ sky130_fd_sc_hd__mux2i_1
X_2791_ _2101_ _2123_ _2124_ _2105_ _2106_ VSS VSS VDD VDD
+ _2125_ sky130_fd_sc_hd__a221oi_2
X_2792_ _2064_ _2122_ _2125_ VSS VSS VDD VDD _2126_ sky130_fd_sc_hd__o21ai_1
X_2793_ registers\[24\]\[26\] registers\[26\]\[26\] registers\[28\]\[26\]
+ registers\[30\]\[26\] _1962_ _2049_ VSS VSS VDD VDD _2127_
+ sky130_fd_sc_hd__mux4_1
X_2794_ registers\[25\]\[26\] registers\[27\]\[26\] registers\[29\]\[26\]
+ registers\[31\]\[26\] _2013_ _2051_ VSS VSS VDD VDD _2128_
+ sky130_fd_sc_hd__mux4_1
X_2795_ _2109_ _2127_ _2128_ _2073_ VSS VSS VDD VDD _2129_
+ sky130_fd_sc_hd__a22oi_4
X_2796_ registers\[0\]\[26\] registers\[1\]\[26\] registers\[2\]\[26\]
+ registers\[3\]\[26\] _2075_ _2076_ VSS VSS VDD VDD _2130_
+ sky130_fd_sc_hd__mux4_1
X_2797_ registers\[4\]\[26\] registers\[5\]\[26\] registers\[6\]\[26\]
+ registers\[7\]\[26\] _2034_ _2000_ VSS VSS VDD VDD _2131_
+ sky130_fd_sc_hd__mux4_1
X_2798_ _2130_ _2131_ _2018_ VSS VSS VDD VDD _2132_ sky130_fd_sc_hd__mux2i_1
X_2799_ registers\[9\]\[26\] registers\[11\]\[26\] registers\[13\]\[26\]
+ registers\[15\]\[26\] _2037_ _2058_ VSS VSS VDD VDD _2133_
+ sky130_fd_sc_hd__mux4_1
X_2800_ registers\[8\]\[26\] registers\[10\]\[26\] registers\[12\]\[26\]
+ registers\[14\]\[26\] _2021_ _2039_ VSS VSS VDD VDD _2134_
+ sky130_fd_sc_hd__mux4_1
X_2801_ _2133_ _2134_ _2118_ VSS VSS VDD VDD _2135_ sky130_fd_sc_hd__mux2i_4
X_2802_ _2054_ _2132_ _2135_ _2062_ _1989_ VSS VSS VDD VDD
+ _2136_ sky130_fd_sc_hd__a221o_2
X_2803_ _1973_ _2126_ _2129_ _2136_ VSS VSS VDD VDD _0084_
+ sky130_fd_sc_hd__a31oi_4
X_2804_ registers\[17\]\[27\] registers\[19\]\[27\] registers\[21\]\[27\]
+ registers\[23\]\[27\] _2065_ _2121_ VSS VSS VDD VDD _2137_
+ sky130_fd_sc_hd__mux4_1
X_2805_ registers\[18\]\[27\] registers\[22\]\[27\] _2102_
+ VSS VSS VDD VDD _2138_ sky130_fd_sc_hd__mux2i_1
X_2806_ registers\[16\]\[27\] registers\[20\]\[27\] _1943_
+ VSS VSS VDD VDD _2139_ sky130_fd_sc_hd__mux2i_1
X_2807_ _2101_ _2138_ _2139_ _2105_ _2106_ VSS VSS VDD VDD
+ _2140_ sky130_fd_sc_hd__a221oi_2
X_2808_ _2064_ _2137_ _2140_ VSS VSS VDD VDD _2141_ sky130_fd_sc_hd__o21ai_1
X_2809_ _1753_ VSS VSS VDD VDD _2142_ sky130_fd_sc_hd__buf_6
X_2810_ registers\[24\]\[27\] registers\[26\]\[27\] registers\[28\]\[27\]
+ registers\[30\]\[27\] _2142_ _2049_ VSS VSS VDD VDD _2143_
+ sky130_fd_sc_hd__mux4_1
X_2811_ registers\[25\]\[27\] registers\[27\]\[27\] registers\[29\]\[27\]
+ registers\[31\]\[27\] _2013_ _2051_ VSS VSS VDD VDD _2144_
+ sky130_fd_sc_hd__mux4_1
X_2812_ _2109_ _2143_ _2144_ _2073_ VSS VSS VDD VDD _2145_
+ sky130_fd_sc_hd__a22oi_4
X_2813_ registers\[8\]\[27\] registers\[9\]\[27\] registers\[10\]\[27\]
+ registers\[11\]\[27\] _2075_ _2076_ VSS VSS VDD VDD _2146_
+ sky130_fd_sc_hd__mux4_1
X_2814_ registers\[12\]\[27\] registers\[13\]\[27\] registers\[14\]\[27\]
+ registers\[15\]\[27\] _2034_ _2000_ VSS VSS VDD VDD _2147_
+ sky130_fd_sc_hd__mux4_1
X_2815_ _2146_ _2147_ _2018_ VSS VSS VDD VDD _2148_ sky130_fd_sc_hd__mux2i_2
X_2816_ registers\[1\]\[27\] registers\[3\]\[27\] registers\[5\]\[27\]
+ registers\[7\]\[27\] _2037_ _2058_ VSS VSS VDD VDD _2149_
+ sky130_fd_sc_hd__mux4_1