
* cell parameterized_uart_rx
* pin data_valid
* pin frame_error
* pin rst_n
* pin rx
* pin PWELL
* pin NWELL
* pin data_out[5]
* pin parity_error
* pin data_out[1]
* pin data_out[7]
* pin data_out[3]
* pin data_out[4]
* pin data_out[6]
* pin data_out[0]
* pin data_out[2]
* pin clk
.SUBCKT parameterized_uart_rx 1 2 3 4 6 12 72 97 109 154 193 215 245 276 277 285
* net 1 data_valid
* net 2 frame_error
* net 3 rst_n
* net 4 rx
* net 6 PWELL
* net 12 NWELL
* net 72 data_out[5]
* net 97 parity_error
* net 109 data_out[1]
* net 154 data_out[7]
* net 193 data_out[3]
* net 215 data_out[4]
* net 245 data_out[6]
* net 276 data_out[0]
* net 277 data_out[2]
* net 285 clk
* cell instance $2 r0 *1 17.67,1.4
X$2 18 6 12 1 BUF_X1
* cell instance $8 r0 *1 21.47,1.4
X$8 17 6 12 2 BUF_X1
* cell instance $14 r0 *1 25.65,1.4
X$14 3 6 12 7 BUF_X2
* cell instance $21 r0 *1 25.08,1.4
X$21 4 6 12 8 BUF_X1
* cell instance $26 m0 *1 18.05,7
X$26 7 6 12 5 INV_X2
* cell instance $39 m0 *1 26.79,4.2
X$39 5 10 6 12 31 OR2_X1
* cell instance $41 r0 *1 43.7,7
X$41 5 88 70 6 42 12 AOI21_X1
* cell instance $43 m0 *1 18.24,12.6
X$43 101 100 5 6 12 117 NOR3_X1
* cell instance $46 m0 *1 19,12.6
X$46 101 99 5 80 34 6 12 102 AOI221_X1
* cell instance $49 r0 *1 16.15,18.2
X$49 218 5 146 6 12 182 NOR3_X1
* cell instance $51 r0 *1 40.09,18.2
X$51 5 174 175 6 176 12 AOI21_X1
* cell instance $54 m0 *1 43.13,15.4
X$54 5 130 159 6 158 12 AOI21_X1
* cell instance $56 m0 *1 23.56,7
X$56 5 6 12 23 CLKBUF_X3
* cell instance $58 r0 *1 24.13,1.4
X$58 5 8 6 12 9 OR2_X1
* cell instance $63 m0 *1 21.47,26.6
X$63 6 253 255 257 268 101 12 NOR4_X4
* cell instance $64 m0 *1 18.81,26.6
X$64 6 254 253 255 62 12 NOR3_X4
* cell instance $65 m0 *1 24.89,26.6
X$65 250 240 6 12 268 NAND2_X1
* cell instance $66 m0 *1 25.46,26.6
X$66 259 6 12 240 INV_X1
* cell instance $70 r0 *1 19,26.6
X$70 202 212 256 225 12 267 6 NOR4_X2
* cell instance $74 r0 *1 22.04,26.6
X$74 261 6 12 256 INV_X1
* cell instance $75 r0 *1 22.42,26.6
X$75 6 284 259 256 258 254 12 NAND4_X4
* cell instance $76 r0 *1 25.84,26.6
X$76 258 267 12 6 271 XNOR2_X1
* cell instance $78 r0 *1 27.36,26.6
X$78 285 6 12 148 CLKBUF_X3
* cell instance $80 m0 *1 27.93,26.6
X$80 213 259 266 265 6 260 12 NAND4_X2
* cell instance $83 r0 *1 28.31,26.6
X$83 253 272 286 260 12 241 6 OR4_X2
* cell instance $84 r0 *1 29.64,26.6
X$84 258 261 6 12 265 NOR2_X1
* cell instance $86 m0 *1 36.29,26.6
X$86 6 457 243 242 192 12 DFF_X1
* cell instance $94 r0 *1 40.47,26.6
X$94 262 113 243 6 12 273 MUX2_X1
* cell instance $95 r0 *1 41.8,26.6
X$95 29 273 12 6 274 AND2_X1
* cell instance $97 m0 *1 42.18,26.6
X$97 34 133 263 6 12 264 MUX2_X1
* cell instance $104 r0 *1 45.03,26.6
X$104 29 264 12 6 283 AND2_X1
* cell instance $107 m0 *1 6.46,32.2
X$107 303 74 6 12 289 NOR2_X1
* cell instance $110 m0 *1 8.55,32.2
X$110 239 304 12 6 303 XNOR2_X1
* cell instance $111 m0 *1 9.69,32.2
X$111 297 161 162 6 12 304 NOR3_X1
* cell instance $114 m0 *1 13.68,32.2
X$114 185 211 307 6 12 298 NAND3_X1
* cell instance $115 m0 *1 14.44,32.2
X$115 249 248 6 12 308 NAND2_X1
* cell instance $117 m0 *1 15.2,32.2
X$117 6 296 313 248 249 306 12 NAND4_X4
* cell instance $130 r0 *1 6.65,32.2
X$130 307 316 12 6 330 XNOR2_X1
* cell instance $132 r0 *1 8.17,32.2
X$132 317 166 161 226 6 12 316 NOR4_X1
* cell instance $135 r0 *1 9.69,32.2
X$135 185 6 12 317 INV_X1
* cell instance $139 r0 *1 12.73,32.2
X$139 185 307 270 6 12 336 NAND3_X1
* cell instance $140 r0 *1 13.49,32.2
X$140 270 307 185 12 6 313 AND3_X1
* cell instance $141 r0 *1 14.44,32.2
X$141 298 308 270 12 320 6 OAI21_X1
* cell instance $142 r0 *1 15.2,32.2
X$142 270 308 298 6 12 321 OR3_X1
* cell instance $143 r0 *1 16.15,32.2
X$143 312 321 320 6 311 12 AOI21_X1
* cell instance $145 r0 *1 17.1,32.2
X$145 314 12 270 6 BUF_X4
* cell instance $147 m0 *1 20.33,32.2
X$147 219 6 12 299 CLKBUF_X3
* cell instance $148 m0 *1 19,32.2
X$148 219 12 312 6 BUF_X4
* cell instance $154 m0 *1 22.42,32.2
X$154 161 162 6 12 305 NOR2_X1
* cell instance $155 m0 *1 24.51,32.2
X$155 287 299 6 12 319 NOR2_X1
* cell instance $156 m0 *1 25.08,32.2
X$156 261 305 12 6 300 XNOR2_X1
* cell instance $158 m0 *1 26.98,32.2
X$158 300 299 6 12 292 NOR2_X1
* cell instance $159 m0 *1 27.55,32.2
X$159 6 448 302 292 301 12 DFF_X1
* cell instance $160 m0 *1 30.78,32.2
X$160 302 6 12 261 BUF_X2
* cell instance $167 r0 *1 22.8,32.2
X$167 259 258 261 6 12 322 NAND3_X1
* cell instance $168 r0 *1 23.56,32.2
X$168 261 258 266 259 12 6 315 AND4_X2
* cell instance $169 r0 *1 24.89,32.2
X$169 6 473 318 319 325 12 DFF_X1
* cell instance $170 r0 *1 28.12,32.2
X$170 318 6 12 259 BUF_X2
* cell instance $173 r0 *1 35.72,32.2
X$173 6 468 328 309 275 12 DFF_X1
* cell instance $176 r0 *1 40.66,32.2
X$176 148 6 12 275 CLKBUF_X3
* cell instance $177 r0 *1 41.61,32.2
X$177 275 6 12 INV_X4
* cell instance $185 m0 *1 6.46,49
X$185 6 451 389 417 310 12 DFF_X1
* cell instance $188 m0 *1 10.45,49
X$188 410 312 6 12 397 NOR2_X1
* cell instance $203 m0 *1 22.04,49
X$203 6 463 400 418 325 12 DFF_X1
* cell instance $205 m0 *1 31.54,49
X$205 412 306 411 6 12 420 OR3_X1
* cell instance $206 m0 *1 32.49,49
X$206 411 306 412 12 413 6 OAI21_X1
* cell instance $208 m0 *1 33.44,49
X$208 401 306 402 6 12 414 OR3_X1
* cell instance $209 m0 *1 34.39,49
X$209 402 306 401 12 415 6 OAI21_X1
* cell instance $215 r0 *1 28.69,49
X$215 6 419 301 435 412 12 DFF_X2
* cell instance $216 r0 *1 32.3,49
X$216 312 420 413 6 419 12 AOI21_X1
* cell instance $220 r0 *1 34.39,49
X$220 312 414 415 6 416 12 AOI21_X1
* cell instance $223 r0 *1 36.1,49
X$223 421 6 12 401 BUF_X2
* cell instance $234 m0 *1 49.4,26.6
X$234 6 453 244 247 192 12 DFF_X1
* cell instance $238 r0 *1 49.21,26.6
X$238 278 113 263 6 12 281 MUX2_X1
* cell instance $242 r0 *1 51.87,26.6
X$242 262 6 12 277 BUF_X1
* cell instance $244 r0 *1 52.82,26.6
X$244 278 6 12 276 BUF_X1
* cell instance $250 m0 *1 3.8,15.4
X$250 6 442 156 155 19 12 DFF_X1
* cell instance $251 m0 *1 7.03,15.4
X$251 141 74 6 12 155 NOR2_X1
* cell instance $255 m0 *1 10.07,15.4
X$255 122 169 12 6 134 XNOR2_X1
* cell instance $266 r0 *1 6.65,15.4
X$266 142 208 12 6 141 XNOR2_X1
* cell instance $267 r0 *1 7.79,15.4
X$267 156 6 12 142 BUF_X2
* cell instance $271 r0 *1 11.02,15.4
X$271 6 470 146 157 19 12 DFF_X1
* cell instance $274 m0 *1 18.43,15.4
X$274 115 90 99 21 12 147 6 OR4_X2
* cell instance $279 r0 *1 20.9,15.4
X$279 148 6 12 13 CLKBUF_X3
* cell instance $280 r0 *1 21.85,15.4
X$280 13 6 12 422 INV_X2
* cell instance $283 m0 *1 29.45,15.4
X$283 6 455 103 124 25 12 DFF_X1
* cell instance $285 m0 *1 32.68,15.4
X$285 51 53 67 6 12 205 NAND3_X1
* cell instance $290 r0 *1 36.48,15.4
X$290 30 6 12 93 INV_X1
* cell instance $292 m0 *1 37.05,15.4
X$292 127 129 118 115 6 12 137 NAND4_X1
* cell instance $293 m0 *1 38,15.4
X$293 127 126 118 67 6 12 135 NAND4_X1
* cell instance $297 m0 *1 41.04,15.4
X$297 105 126 51 67 6 12 160 NAND4_X1
* cell instance $298 m0 *1 40.09,15.4
X$298 129 128 51 67 6 12 133 NAND4_X1
* cell instance $299 m0 *1 41.99,15.4
X$299 105 129 51 67 6 12 130 NAND4_X1
* cell instance $302 m0 *1 44.08,15.4
X$302 57 131 151 12 159 6 OAI21_X1
* cell instance $304 m0 *1 45.03,15.4
X$304 6 454 151 158 25 12 DFF_X1
* cell instance $307 m0 *1 49.97,15.4
X$307 29 132 12 6 152 AND2_X1
* cell instance $308 m0 *1 48.64,15.4
X$308 153 113 151 6 12 132 MUX2_X1
* cell instance $314 r0 *1 49.59,15.4
X$314 6 479 153 152 192 12 DFF_X1
* cell instance $315 r0 *1 52.82,15.4
X$315 153 6 12 154 BUF_X1
* cell instance $327 m0 *1 7.22,35
X$327 330 74 6 12 329 NOR2_X1
* cell instance $328 m0 *1 3.99,35
X$328 6 462 331 329 310 12 DFF_X1
* cell instance $329 m0 *1 7.79,35
X$329 315 6 12 323 INV_X1
* cell instance $335 r0 *1 7.03,35
X$335 331 6 12 307 BUF_X2
* cell instance $336 r0 *1 7.79,35
X$336 323 161 162 6 12 332 NOR3_X1
* cell instance $339 m0 *1 10.07,35
X$339 6 161 297 279 336 337 12 NOR4_X4
* cell instance $340 m0 *1 14.25,35
X$340 6 445 314 311 325 12 DFF_X1
* cell instance $347 r0 *1 15.96,35
X$347 148 6 12 310 CLKBUF_X3
* cell instance $348 r0 *1 16.91,35
X$348 310 6 12 425 INV_X1
* cell instance $350 r0 *1 17.48,35
X$350 225 226 172 343 12 335 6 NOR4_X2
* cell instance $354 m0 *1 20.14,35
X$354 322 225 226 172 6 12 324 NOR4_X1
* cell instance $358 m0 *1 31.92,35
X$358 6 334 301 431 326 12 DFF_X2
* cell instance $359 m0 *1 35.53,35
X$359 333 299 6 12 334 NOR2_X1
* cell instance $362 m0 *1 37.05,35
X$362 328 6 12 340 BUF_X2
* cell instance $368 r0 *1 20.52,35
X$368 266 324 12 6 351 XNOR2_X1
* cell instance $372 r0 *1 26.6,35
X$372 266 6 12 338 INV_X1
* cell instance $375 r0 *1 28.12,35
X$375 345 347 6 12 272 NAND2_X2
* cell instance $379 r0 *1 33.82,35
X$379 340 335 12 6 342 XNOR2_X1
* cell instance $380 r0 *1 34.96,35
X$380 326 327 6 12 333 XOR2_X1
* cell instance $381 r0 *1 36.1,35
X$381 342 299 6 12 309 NOR2_X1
* cell instance $396 m0 *1 6.84,40.6
X$396 352 312 6 12 369 NOR2_X1
* cell instance $397 m0 *1 3.23,40.6
X$397 6 369 310 432 269 12 DFF_X2
* cell instance $402 r0 *1 7.03,40.6
X$402 365 332 12 6 364 XNOR2_X1
* cell instance $403 m0 *1 7.98,40.6
X$403 315 365 6 12 355 NAND2_X1
* cell instance $405 m0 *1 8.55,40.6
X$405 346 365 315 358 12 6 238 AND4_X2
* cell instance $406 m0 *1 9.88,40.6
X$406 6 315 358 346 365 297 12 NAND4_X4
* cell instance $411 r0 *1 9.88,40.6
X$411 315 269 365 346 6 12 357 NAND4_X1
* cell instance $412 r0 *1 10.83,40.6
X$412 378 269 12 6 358 AND2_X1
* cell instance $416 r0 *1 16.34,40.6
X$416 374 74 6 12 379 NOR2_X1
* cell instance $417 m0 *1 16.91,40.6
X$417 366 359 12 6 374 XNOR2_X1
* cell instance $422 m0 *1 21.66,40.6
X$422 6 366 350 368 367 348 12 NOR4_X4
* cell instance $424 m0 *1 25.08,40.6
X$424 366 350 368 367 12 286 6 OR4_X2
* cell instance $431 r0 *1 25.08,40.6
X$431 366 350 368 367 12 6 361 AND4_X1
* cell instance $436 r0 *1 31.35,40.6
X$436 6 375 301 434 341 12 DFF_X2
* cell instance $437 m0 *1 33.82,40.6
X$437 312 373 370 6 375 12 AOI21_X1
* cell instance $439 m0 *1 34.58,40.6
X$439 341 306 360 6 12 373 OR3_X1
* cell instance $448 r0 *1 35.53,40.6
X$448 361 337 6 12 372 NAND2_X1
* cell instance $449 r0 *1 36.1,40.6
X$449 362 372 6 12 371 XOR2_X1
* cell instance $450 r0 *1 37.24,40.6
X$450 371 299 6 12 384 NOR2_X1
* cell instance $468 m0 *1 4.94,23.8
X$468 231 6 12 223 BUF_X2
* cell instance $469 m0 *1 1.71,23.8
X$469 6 461 231 214 19 12 DFF_X1
* cell instance $475 r0 *1 5.13,23.8
X$475 223 246 12 6 232 XNOR2_X1
* cell instance $477 m0 *1 6.08,23.8
X$477 232 74 6 12 214 NOR2_X1
* cell instance $478 m0 *1 6.84,23.8
X$478 224 161 226 210 6 12 209 NOR4_X1
* cell instance $479 m0 *1 7.79,23.8
X$479 223 6 12 210 INV_X1
* cell instance $485 r0 *1 6.65,23.8
X$485 225 226 172 237 12 208 6 NOR4_X2
* cell instance $486 r0 *1 8.36,23.8
X$486 224 225 226 172 6 12 246 NOR4_X1
* cell instance $488 r0 *1 9.69,23.8
X$488 234 238 6 12 166 NAND2_X2
* cell instance $494 r0 *1 16.53,23.8
X$494 225 212 6 12 249 NOR2_X2
* cell instance $495 r0 *1 17.48,23.8
X$495 202 12 162 6 BUF_X4
* cell instance $497 m0 *1 18.43,23.8
X$497 212 12 172 6 BUF_X4
* cell instance $500 r0 *1 18.81,23.8
X$500 202 12 226 6 BUF_X4
* cell instance $503 m0 *1 27.93,23.8
X$503 7 6 12 29 BUF_X2
* cell instance $509 r0 *1 30.02,23.8
X$509 6 54 12 241 BUF_X8
* cell instance $512 m0 *1 36.67,23.8
X$512 7 235 12 6 242 AND2_X1
* cell instance $513 m0 *1 35.91,23.8
X$513 7 217 12 6 236 AND2_X1
* cell instance $517 m0 *1 42.18,23.8
X$517 229 113 201 6 12 228 MUX2_X1
* cell instance $518 m0 *1 43.51,23.8
X$518 6 450 229 233 192 12 DFF_X1
* cell instance $521 r0 *1 36.67,23.8
X$521 6 476 227 236 192 12 DFF_X1
* cell instance $524 r0 *1 43.7,23.8
X$524 29 228 12 6 233 AND2_X1
* cell instance $526 m0 *1 47.31,23.8
X$526 229 6 12 215 BUF_X1
* cell instance $534 r0 *1 49.02,23.8
X$534 244 113 227 6 12 230 MUX2_X1
* cell instance $535 r0 *1 50.35,23.8
X$535 29 230 12 6 247 AND2_X1
* cell instance $538 r0 *1 52.25,23.8
X$538 244 6 12 245 BUF_X1
* cell instance $554 r0 *1 6.27,43.4
X$554 6 467 377 376 310 12 DFF_X1
* cell instance $556 m0 *1 7.03,43.4
X$556 364 312 6 12 376 NOR2_X1
* cell instance $558 m0 *1 8.93,43.4
X$558 377 6 12 365 CLKBUF_X3
* cell instance $564 m0 *1 11.02,43.4
X$564 6 346 365 378 381 252 12 NOR4_X4
* cell instance $565 m0 *1 15.96,43.4
X$565 6 449 386 379 310 12 DFF_X1
* cell instance $566 m0 *1 19.19,43.4
X$566 386 6 12 366 BUF_X2
* cell instance $571 r0 *1 15.77,43.4
X$571 350 337 12 6 391 XNOR2_X1
* cell instance $575 r0 *1 21.85,43.4
X$575 6 395 325 437 368 12 DFF_X2
* cell instance $576 r0 *1 25.46,43.4
X$576 380 306 368 12 392 6 OAI21_X1
* cell instance $579 r0 *1 28.12,43.4
X$579 6 388 301 436 381 12 DFF_X2
* cell instance $580 m0 *1 29.64,43.4
X$580 387 299 6 12 388 NOR2_X1
* cell instance $585 m0 *1 31.35,43.4
X$585 381 396 6 12 387 XOR2_X1
* cell instance $587 m0 *1 34.77,43.4
X$587 341 6 12 382 INV_X1
* cell instance $589 m0 *1 35.34,43.4
X$589 6 384 301 433 362 12 DFF_X2
* cell instance $598 r0 *1 34.39,43.4
X$598 360 394 382 6 12 385 NOR3_X1
* cell instance $599 r0 *1 35.15,43.4
X$599 360 382 6 12 393 NOR2_X1
* cell instance $600 r0 *1 35.72,43.4
X$600 393 337 6 12 383 NAND2_X1
* cell instance $601 r0 *1 36.29,43.4
X$601 394 383 12 6 407 XNOR2_X1
* cell instance $611 m0 *1 6.65,46.2
X$611 312 12 74 6 BUF_X4
* cell instance $612 m0 *1 7.98,46.2
X$612 346 356 12 6 404 XNOR2_X1
* cell instance $614 m0 *1 9.31,46.2
X$614 389 6 12 346 CLKBUF_X3
* cell instance $616 m0 *1 10.45,46.2
X$616 378 390 12 6 410 XNOR2_X1
* cell instance $619 m0 *1 16.15,46.2
X$619 391 74 6 12 398 NOR2_X1
* cell instance $630 r0 *1 7.03,46.2
X$630 404 312 6 12 417 NOR2_X1
* cell instance $633 r0 *1 9.5,46.2
X$633 6 397 310 440 378 12 DFF_X2
* cell instance $637 r0 *1 15.77,46.2
X$637 6 482 399 398 310 12 DFF_X1
* cell instance $639 m0 *1 18.62,46.2
X$639 399 6 12 350 BUF_X2
* cell instance $645 r0 *1 23.18,46.2
X$645 406 299 6 12 418 NOR2_X1
* cell instance $646 m0 *1 24.32,46.2
X$646 367 350 366 6 12 380 NAND3_X1
* cell instance $647 m0 *1 23.56,46.2
X$647 337 350 366 6 12 408 NAND3_X1
* cell instance $648 m0 *1 25.08,46.2
X$648 312 409 392 6 395 12 AOI21_X1
* cell instance $650 m0 *1 26.03,46.2
X$650 368 306 380 6 12 409 OR3_X1
* cell instance $654 r0 *1 23.75,46.2
X$654 367 408 6 12 406 XOR2_X1
* cell instance $655 r0 *1 24.89,46.2
X$655 400 6 12 367 BUF_X2
* cell instance $659 m0 *1 31.92,46.2
X$659 385 337 401 6 12 396 NAND3_X1
* cell instance $660 m0 *1 32.87,46.2
X$660 6 362 401 403 412 347 12 NOR4_X4
* cell instance $662 m0 *1 36.48,46.2
X$662 403 6 12 394 INV_X1
* cell instance $664 m0 *1 37.05,46.2
X$664 407 299 6 12 405 NOR2_X1
* cell instance $669 r0 *1 32.11,46.2
X$669 385 381 401 6 12 411 NAND3_X1
* cell instance $672 r0 *1 34.77,46.2
X$672 393 403 6 12 402 NAND2_X1
* cell instance $675 r0 *1 37.62,46.2
X$675 6 405 275 439 403 12 DFF_X2
* cell instance $684 m0 *1 5.13,21
X$684 183 6 12 184 CLKBUF_X3
* cell instance $687 m0 *1 9.31,21
X$687 6 142 184 122 89 282 12 NOR4_X4
* cell instance $699 r0 *1 6.46,21
X$699 184 209 12 6 195 XNOR2_X1
* cell instance $704 r0 *1 12.73,21
X$704 89 248 249 211 12 6 169 AND4_X1
* cell instance $705 r0 *1 13.87,21
X$705 200 234 238 6 12 218 NAND3_X1
* cell instance $708 m0 *1 17.1,21
X$708 164 202 6 12 220 OR2_X1
* cell instance $710 m0 *1 17.86,21
X$710 164 80 6 12 221 NAND2_X1
* cell instance $712 r0 *1 16.91,21
X$712 220 123 202 221 7 219 6 12 OAI221_X2
* cell instance $714 m0 *1 18.81,21
X$714 147 80 6 12 212 NOR2_X2
* cell instance $715 m0 *1 19.95,21
X$715 186 150 6 225 12 NAND2_X4
* cell instance $717 m0 *1 21.85,21
X$717 23 187 189 6 188 12 AOI21_X1
* cell instance $718 m0 *1 22.61,21
X$718 162 172 186 12 189 6 OAI21_X1
* cell instance $723 r0 *1 21.09,21
X$723 6 188 13 222 186 12 DFF_X2
* cell instance $725 m0 *1 23.75,21
X$725 190 222 207 12 6 250 HA_X1
* cell instance $729 m0 *1 31.16,21
X$729 6 206 204 191 192 12 DFF_X1
* cell instance $730 m0 *1 34.39,21
X$730 54 206 113 6 12 NOR2_X4
* cell instance $734 m0 *1 40.09,21
X$734 6 447 201 176 192 12 DFF_X1
* cell instance $738 m0 *1 48.64,21
X$738 196 113 177 6 12 197 MUX2_X1
* cell instance $739 m0 *1 49.97,21
X$739 29 197 12 6 216 AND2_X1
* cell instance $741 m0 *1 52.25,21
X$741 196 6 12 193 BUF_X1
* cell instance $743 r0 *1 24.7,21
X$743 150 222 429 12 6 284 HA_X1
* cell instance $744 r0 *1 26.6,21
X$744 190 186 427 12 6 213 HA_X1
* cell instance $748 r0 *1 35.72,21
X$748 93 137 227 6 12 217 MUX2_X1
* cell instance $749 r0 *1 37.05,21
X$749 93 135 243 6 12 235 MUX2_X1
* cell instance $753 r0 *1 41.99,21
X$753 148 6 12 192 CLKBUF_X3
* cell instance $755 r0 *1 49.02,21
X$755 6 471 196 216 192 12 DFF_X1
* cell instance $767 r0 *1 1.52,9.8
X$767 110 6 12 LOGIC0_X1
* cell instance $768 r0 *1 1.9,9.8
X$768 110 6 12 97 BUF_X1
* cell instance $771 m0 *1 5.51,9.8
X$771 73 12 89 6 BUF_X4
* cell instance $777 r0 *1 6.46,9.8
X$777 89 111 12 6 48 XNOR2_X1
* cell instance $780 m0 *1 15.77,9.8
X$780 6 459 81 79 13 12 DFF_X1
* cell instance $782 m0 *1 19,9.8
X$782 81 6 12 80 BUF_X2
* cell instance $788 r0 *1 18.05,9.8
X$788 117 45 6 12 98 OR2_X1
* cell instance $790 r0 *1 19.19,9.8
X$790 114 102 6 12 79 NAND2_X1
* cell instance $793 r0 *1 20.33,9.8
X$793 62 93 90 6 12 114 NAND3_X1
* cell instance $794 m0 *1 21.09,9.8
X$794 90 6 12 63 INV_X2
* cell instance $798 m0 *1 23.37,9.8
X$798 6 63 65 35 66 62 12 AOI22_X4
* cell instance $799 m0 *1 26.6,9.8
X$799 83 23 6 12 91 NOR2_X1
* cell instance $804 m0 *1 32.68,9.8
X$804 52 53 55 54 6 12 84 OR4_X1
* cell instance $806 m0 *1 39.9,9.8
X$806 11 6 12 56 INV_X1
* cell instance $807 m0 *1 40.28,9.8
X$807 55 34 6 12 69 NAND2_X1
* cell instance $810 m0 *1 42.56,9.8
X$810 56 71 69 6 12 85 OR3_X1
* cell instance $815 r0 *1 24.7,9.8
X$815 6 478 92 91 13 12 DFF_X1
* cell instance $816 r0 *1 27.93,9.8
X$816 92 6 12 115 CLKBUF_X3
* cell instance $821 r0 *1 31.73,9.8
X$821 115 6 12 52 INV_X1
* cell instance $826 r0 *1 37.24,9.8
X$826 94 37 6 12 116 NOR2_X1
* cell instance $827 r0 *1 37.81,9.8
X$827 116 56 55 6 12 127 NOR3_X1
* cell instance $828 r0 *1 38.57,9.8
X$828 55 11 116 6 12 104 OR3_X1
* cell instance $829 r0 *1 39.52,9.8
X$829 11 94 37 55 6 12 128 NOR4_X1
* cell instance $830 r0 *1 40.47,9.8
X$830 69 11 6 12 105 NOR2_X1
* cell instance $832 m0 *1 44.65,9.8
X$832 71 40 96 12 95 6 OAI21_X1
* cell instance $833 m0 *1 43.89,9.8
X$833 23 85 95 6 82 12 AOI21_X1
* cell instance $834 m0 *1 45.41,9.8
X$834 6 441 96 82 192 12 DFF_X1
* cell instance $841 r0 *1 49.4,9.8
X$841 108 113 96 6 12 107 MUX2_X1
* cell instance $842 r0 *1 50.73,9.8
X$842 29 107 12 6 112 AND2_X1
* cell instance $852 m0 *1 29.26,7
X$852 24 6 12 34 BUF_X2
* cell instance $856 r0 *1 23.75,7
X$856 52 22 6 12 65 NAND2_X1
* cell instance $857 r0 *1 24.32,7
X$857 63 34 6 12 66 NOR2_X2
* cell instance $859 r0 *1 26.03,7
X$859 61 62 66 6 83 12 AOI21_X1
* cell instance $861 r0 *1 27.17,7
X$861 52 51 53 6 61 12 AOI21_X1
* cell instance $864 r0 *1 31.35,7
X$864 52 53 56 54 6 12 36 OR4_X1
* cell instance $866 m0 *1 32.11,7
X$866 37 6 12 47 INV_X1
* cell instance $867 m0 *1 32.49,7
X$867 36 35 47 6 12 38 MUX2_X1
* cell instance $868 m0 *1 33.82,7
X$868 23 46 38 6 15 12 AOI21_X1
* cell instance $871 m0 *1 36.29,7
X$871 6 16 28 39 25 12 DFF_X1
* cell instance $872 m0 *1 39.52,7
X$872 28 37 426 12 6 106 HA_X1
* cell instance $874 m0 *1 44.46,7
X$874 44 6 12 40 INV_X1
* cell instance $876 m0 *1 45.6,7
X$876 6 458 78 42 25 12 DFF_X1
* cell instance $878 r0 *1 32.49,7
X$878 54 37 67 6 12 46 NAND3_X1
* cell instance $880 r0 *1 33.44,7
X$880 84 35 68 6 12 87 MUX2_X1
* cell instance $881 r0 *1 34.77,7
X$881 55 6 12 68 INV_X1
* cell instance $883 r0 *1 35.34,7
X$883 54 55 67 6 12 86 NAND3_X1
* cell instance $885 r0 *1 36.29,7
X$885 23 86 87 6 39 12 AOI21_X1
* cell instance $889 r0 *1 39.71,7
X$889 28 6 12 55 CLKBUF_X2
* cell instance $892 r0 *1 42.75,7
X$892 56 57 69 6 12 88 OR3_X1
* cell instance $893 r0 *1 44.46,7
X$893 57 40 78 12 70 6 OAI21_X1
* cell instance $895 r0 *1 48.26,7
X$895 59 113 78 6 12 41 MUX2_X1
* cell instance $897 m0 *1 49.4,7
X$897 29 41 12 6 58 AND2_X1
* cell instance $901 r0 *1 49.59,7
X$901 6 464 59 58 25 12 DFF_X1
* cell instance $902 r0 *1 52.82,7
X$902 59 6 12 72 BUF_X1
* cell instance $930 r0 *1 16.15,4.2
X$930 6 477 18 45 13 12 DFF_X1
* cell instance $933 r0 *1 20.14,4.2
X$933 6 465 17 14 13 12 DFF_X1
* cell instance $937 m0 *1 23.56,4.2
X$937 6 456 10 9 13 12 DFF_X1
* cell instance $939 r0 *1 26.6,4.2
X$939 6 30 24 31 25 12 DFF_X1
* cell instance $945 r0 *1 32.68,4.2
X$945 6 15 25 26 37 12 DFF_X2
* cell instance $950 r0 *1 37.62,4.2
X$950 16 26 11 12 6 27 HA_X1
* cell instance $954 r0 *1 40.66,4.2
X$954 28 26 430 12 6 44 HA_X1
* cell instance $970 m0 *1 8.36,7
X$970 6 460 49 43 19 12 DFF_X1
* cell instance $976 r0 *1 2.47,7
X$976 6 480 73 60 19 12 DFF_X1
* cell instance $979 r0 *1 6.65,7
X$979 48 74 6 12 60 NOR2_X1
* cell instance $983 r0 *1 8.55,7
X$983 49 143 12 6 32 XNOR2_X1
* cell instance $984 r0 *1 9.69,7
X$984 32 74 6 12 43 NOR2_X1
* cell instance $988 r0 *1 13.87,7
X$988 6 75 19 76 90 12 DFF_X2
* cell instance $989 r0 *1 17.48,7
X$989 50 76 6 12 77 OR2_X2
* cell instance $992 m0 *1 20.9,7
X$992 23 20 33 6 14 12 AOI21_X1
* cell instance $993 m0 *1 21.66,7
X$993 22 21 17 12 33 6 OAI21_X1
* cell instance $996 r0 *1 18.43,7
X$996 7 21 51 12 6 45 AND3_X1
* cell instance $997 r0 *1 19.38,7
X$997 34 6 12 50 INV_X1
* cell instance $999 r0 *1 20.14,7
X$999 51 21 50 6 12 20 NAND3_X1
* cell instance $1001 r0 *1 21.09,7
X$1001 80 6 12 22 INV_X1
* cell instance $1002 r0 *1 21.47,7
X$1002 62 63 22 34 12 6 64 OAI22_X1
* cell instance $1003 r0 *1 22.42,7
X$1003 29 64 12 6 75 AND2_X1
* cell instance $1012 m0 *1 16.53,37.8
X$1012 313 234 238 350 6 12 344 NAND4_X1
* cell instance $1013 m0 *1 17.48,37.8
X$1013 339 313 234 238 6 12 343 NAND4_X1
* cell instance $1024 r0 *1 5.7,37.8
X$1024 269 353 12 6 352 XNOR2_X1
* cell instance $1025 r0 *1 6.84,37.8
X$1025 355 161 226 354 6 12 353 NOR4_X1
* cell instance $1026 r0 *1 7.79,37.8
X$1026 346 6 12 354 INV_X1
* cell instance $1027 r0 *1 8.17,37.8
X$1027 225 355 226 172 6 12 356 NOR4_X1
* cell instance $1029 r0 *1 10.64,37.8
X$1029 225 357 226 172 6 12 390 NOR4_X1
* cell instance $1034 r0 *1 17.1,37.8
X$1034 344 225 226 172 6 12 359 NOR4_X1
* cell instance $1037 r0 *1 19.76,37.8
X$1037 6 472 349 363 325 12 DFF_X1
* cell instance $1038 m0 *1 20.9,37.8
X$1038 148 6 12 325 CLKBUF_X3
* cell instance $1039 m0 *1 20.33,37.8
X$1039 351 299 6 12 363 NOR2_X1
* cell instance $1040 m0 *1 21.85,37.8
X$1040 325 6 12 INV_X4
* cell instance $1041 m0 *1 22.8,37.8
X$1041 349 6 12 266 CLKBUF_X2
* cell instance $1043 m0 *1 26.6,37.8
X$1043 6 345 348 338 347 255 12 NAND4_X4
* cell instance $1048 m0 *1 32.3,37.8
X$1048 6 307 340 341 326 345 12 NOR4_X4
* cell instance $1049 m0 *1 31.92,37.8
X$1049 301 6 12 423 INV_X1
* cell instance $1050 m0 *1 35.72,37.8
X$1050 339 337 340 6 12 327 NAND3_X1
* cell instance $1058 r0 *1 32.49,37.8
X$1058 362 361 12 6 339 AND2_X1
* cell instance $1059 r0 *1 33.25,37.8
X$1059 148 6 12 301 CLKBUF_X3
* cell instance $1062 r0 *1 34.77,37.8
X$1062 326 362 340 361 6 360 12 NAND4_X2
* cell instance $1063 r0 *1 36.48,37.8
X$1063 360 306 341 12 370 6 OAI21_X1
* cell instance $1078 r0 *1 4.37,29.4
X$1078 6 474 290 289 310 12 DFF_X1
* cell instance $1079 r0 *1 7.6,29.4
X$1079 290 12 239 6 BUF_X4
* cell instance $1080 m0 *1 9.5,29.4
X$1080 184 142 223 6 12 280 NAND3_X1
* cell instance $1081 m0 *1 7.79,29.4
X$1081 142 239 223 184 6 279 12 NAND4_X2
* cell instance $1083 m0 *1 10.45,29.4
X$1083 239 223 269 270 12 251 6 NOR4_X2
* cell instance $1090 r0 *1 10.07,29.4
X$1090 239 6 12 294 INV_X1
* cell instance $1092 r0 *1 10.64,29.4
X$1092 280 297 294 12 296 6 NOR3_X2
* cell instance $1093 r0 *1 11.97,29.4
X$1093 279 297 6 12 211 NOR2_X1
* cell instance $1098 r0 *1 22.8,29.4
X$1098 161 162 257 6 12 295 NOR3_X1
* cell instance $1099 m0 *1 23.37,29.4
X$1099 258 261 6 12 257 NAND2_X1
* cell instance $1103 m0 *1 26.22,29.4
X$1103 6 253 272 286 260 118 12 NOR4_X4
* cell instance $1107 m0 *1 42.56,29.4
X$1107 6 446 262 274 275 12 DFF_X1
* cell instance $1108 m0 *1 45.79,29.4
X$1108 6 452 263 283 275 12 DFF_X1
* cell instance $1111 r0 *1 23.56,29.4
X$1111 259 295 12 6 287 XNOR2_X1
* cell instance $1114 r0 *1 26.41,29.4
X$1114 271 299 6 12 293 NOR2_X1
* cell instance $1115 r0 *1 26.98,29.4
X$1115 6 469 291 293 301 12 DFF_X1
* cell instance $1116 r0 *1 30.21,29.4
X$1116 291 6 12 258 BUF_X2
* cell instance $1121 r0 *1 49.59,29.4
X$1121 6 481 278 288 275 12 DFF_X1
* cell instance $1123 m0 *1 50.16,29.4
X$1123 29 281 12 6 288 AND2_X1
* cell instance $1139 m0 *1 34.2,51.8
X$1139 6 443 421 416 301 12 DFF_X1
* cell instance $1162 m0 *1 7.41,26.6
X$1162 238 184 239 223 6 12 237 NAND4_X1
* cell instance $1163 m0 *1 8.36,26.6
X$1163 238 239 6 12 224 NAND2_X1
* cell instance $1173 m0 *1 9.5,26.6
X$1173 223 239 142 184 12 6 234 AND4_X2
* cell instance $1178 m0 *1 16.34,26.6
X$1178 254 253 255 77 12 248 6 OR4_X2
* cell instance $1182 r0 *1 9.88,26.6
X$1182 6 251 252 198 282 253 12 NAND4_X4
* cell instance $1185 r0 *1 15.01,26.6
X$1185 6 254 253 255 77 202 12 NOR4_X4
* cell instance $1190 m0 *1 7.6,18.2
X$1190 166 161 162 6 12 111 NOR3_X1
* cell instance $1192 m0 *1 8.55,18.2
X$1192 166 161 162 170 12 143 6 NOR4_X2
* cell instance $1197 r0 *1 2.28,18.2
X$1197 6 466 183 194 19 12 DFF_X1
* cell instance $1203 r0 *1 6.08,18.2
X$1203 195 74 6 12 194 NOR2_X1
* cell instance $1208 r0 *1 9.5,18.2
X$1208 49 146 6 12 198 NOR2_X1
* cell instance $1209 r0 *1 10.07,18.2
X$1209 122 89 146 49 12 6 185 AND4_X1
* cell instance $1211 m0 *1 10.64,18.2
X$1211 89 122 6 12 170 NAND2_X1
* cell instance $1213 m0 *1 12.92,18.2
X$1213 162 172 6 12 144 NOR2_X1
* cell instance $1214 m0 *1 13.49,18.2
X$1214 144 171 145 12 157 6 OAI21_X1
* cell instance $1215 m0 *1 14.25,18.2
X$1215 163 123 182 181 145 6 12 OAI211_X2
* cell instance $1218 r0 *1 11.21,18.2
X$1218 49 6 12 199 INV_X1
* cell instance $1219 r0 *1 11.59,18.2
X$1219 170 225 199 6 12 200 NOR3_X1
* cell instance $1222 r0 *1 13.49,18.2
X$1222 171 211 200 6 181 12 AOI21_X1
* cell instance $1223 r0 *1 14.25,18.2
X$1223 7 146 6 12 171 NAND2_X1
* cell instance $1225 r0 *1 15.2,18.2
X$1225 148 6 12 19 CLKBUF_X3
* cell instance $1226 r0 *1 16.91,18.2
X$1226 19 6 12 CLKBUF_X1
* cell instance $1227 m0 *1 17.29,18.2
X$1227 162 164 6 12 163 NOR2_X2
* cell instance $1231 m0 *1 21.47,18.2
X$1231 163 149 180 6 12 167 NAND3_X1
* cell instance $1232 m0 *1 22.23,18.2
X$1232 150 6 12 180 INV_X1
* cell instance $1233 m0 *1 22.61,18.2
X$1233 162 172 150 12 168 6 OAI21_X1
* cell instance $1234 m0 *1 23.37,18.2
X$1234 23 167 168 6 179 12 AOI21_X1
* cell instance $1237 r0 *1 17.67,18.2
X$1237 203 80 147 12 6 161 OAI21_X4
* cell instance $1238 r0 *1 20.14,18.2
X$1238 150 186 428 12 6 203 HA_X1
* cell instance $1239 r0 *1 22.04,18.2
X$1239 123 163 207 6 12 187 NAND3_X1
* cell instance $1242 m0 *1 24.51,18.2
X$1242 6 179 13 190 150 12 DFF_X2
* cell instance $1245 m0 *1 32.11,18.2
X$1245 54 21 6 12 173 NAND2_X1
* cell instance $1247 m0 *1 33.44,18.2
X$1247 204 6 12 21 BUF_X2
* cell instance $1252 r0 *1 32.11,18.2
X$1252 23 205 173 6 191 12 AOI21_X1
* cell instance $1254 m0 *1 37.81,18.2
X$1254 25 6 12 424 INV_X1
* cell instance $1256 m0 *1 38.19,18.2
X$1256 148 6 12 25 CLKBUF_X3
* cell instance $1257 m0 *1 39.14,18.2
X$1257 30 71 104 6 12 174 OR3_X1
* cell instance $1262 m0 *1 40.47,18.2
X$1262 104 71 201 12 175 6 OAI21_X1
* cell instance $1266 m0 *1 43.32,18.2
X$1266 23 160 165 6 178 12 AOI21_X1
* cell instance $1269 m0 *1 44.27,18.2
X$1269 71 131 177 12 165 6 OAI21_X1
* cell instance $1275 r0 *1 43.51,18.2
X$1275 6 475 177 178 192 12 DFF_X1
* cell instance $1285 m0 *1 9.88,12.6
X$1285 134 74 6 12 120 NOR2_X1
* cell instance $1288 m0 *1 13.68,12.6
X$1288 6 98 19 121 99 12 DFF_X2
* cell instance $1296 r0 *1 8.17,12.6
X$1296 6 120 19 438 122 12 DFF_X2
* cell instance $1300 r0 *1 15.96,12.6
X$1300 6 115 90 99 21 164 12 NOR4_X4
* cell instance $1302 m0 *1 17.67,12.6
X$1302 99 6 12 100 INV_X1
* cell instance $1303 m0 *1 20.14,12.6
X$1303 6 101 100 51 136 63 62 149 12 OAI222_X2
* cell instance $1306 m0 *1 31.92,12.6
X$1306 54 94 67 6 12 119 NAND3_X1
* cell instance $1309 r0 *1 20.14,12.6
X$1309 21 115 6 12 136 NOR2_X1
* cell instance $1310 r0 *1 20.71,12.6
X$1310 6 101 121 118 136 63 62 123 12 OAI222_X2
* cell instance $1312 r0 *1 26.41,12.6
X$1312 118 6 12 51 CLKBUF_X3
* cell instance $1317 r0 *1 30.21,12.6
X$1317 23 119 139 6 124 12 AOI21_X1
* cell instance $1318 r0 *1 30.97,12.6
X$1318 138 35 125 6 12 139 MUX2_X1
* cell instance $1319 r0 *1 32.3,12.6
X$1319 94 6 12 125 INV_X1
* cell instance $1321 r0 *1 32.87,12.6
X$1321 51 140 67 6 12 138 NAND3_X1
* cell instance $1323 m0 *1 33.06,12.6
X$1323 103 106 140 12 6 53 HA_X1
* cell instance $1325 r0 *1 33.63,12.6
X$1325 103 6 12 94 BUF_X2
* cell instance $1328 r0 *1 36.29,12.6
X$1328 115 6 12 67 BUF_X2
* cell instance $1329 r0 *1 37.05,12.6
X$1329 126 118 115 6 12 71 NAND3_X2
* cell instance $1331 m0 *1 38.57,12.6
X$1331 27 94 12 129 6 XOR2_X2
* cell instance $1335 m0 *1 49.59,12.6
X$1335 6 444 108 112 25 12 DFF_X1
* cell instance $1336 m0 *1 52.82,12.6
X$1336 108 6 12 109 BUF_X1
* cell instance $1339 r0 *1 38.57,12.6
X$1339 94 27 6 12 126 XNOR2_X2
* cell instance $1341 r0 *1 41.99,12.6
X$1341 129 51 67 6 12 57 NAND3_X1
* cell instance $1342 r0 *1 42.75,12.6
X$1342 106 6 12 131 INV_X1
.ENDS parameterized_uart_rx

* cell OR4_X1
* pin A1
* pin A2
* pin A3
* pin A4
* pin PWELL,VSS
* pin NWELL,VDD
* pin ZN
.SUBCKT OR4_X1 1 2 3 4 5 7 8
* net 1 A1
* net 2 A2
* net 3 A3
* net 4 A4
* net 5 PWELL,VSS
* net 7 NWELL,VDD
* net 8 ZN
* device instance $1 r0 *1 0.17,1.1525 PMOS_VTL
M$1 10 1 6 7 PMOS_VTL L=0.05U W=0.315U AS=0.033075P AD=0.02205P PS=0.84U
+ PD=0.455U
* device instance $2 r0 *1 0.36,1.1525 PMOS_VTL
M$2 9 2 10 7 PMOS_VTL L=0.05U W=0.315U AS=0.02205P AD=0.02205P PS=0.455U
+ PD=0.455U
* device instance $3 r0 *1 0.55,1.1525 PMOS_VTL
M$3 11 3 9 7 PMOS_VTL L=0.05U W=0.315U AS=0.02205P AD=0.02205P PS=0.455U
+ PD=0.455U
* device instance $4 r0 *1 0.74,1.1525 PMOS_VTL
M$4 11 4 7 7 PMOS_VTL L=0.05U W=0.315U AS=0.033075P AD=0.02205P PS=0.77U
+ PD=0.455U