
* cell simple_spi_master
* pin rx_data[3]
* pin rx_data[7]
* pin rx_data[1]
* pin rx_data[5]
* pin rx_data[2]
* pin spi_miso
* pin rx_data[4]
* pin rx_data[6]
* pin clk
* pin rx_data[0]
* pin tx_data[1]
* pin tx_data[2]
* pin tx_data[0]
* pin rx_valid
* pin tx_data[3]
* pin spi_clk
* pin tx_data[4]
* pin tx_valid
* pin tx_ready
* pin tx_data[6]
* pin rst_n
* pin spi_cs_n
* pin spi_mosi
* pin tx_data[7]
* pin tx_data[5]
* pin NWELL
* pin PWELL,gf180mcu_gnd
.SUBCKT simple_spi_master 1 2 17 21 45 58 68 83 99 105 113 117 118 127 139 145
+ 155 182 184 186 187 188 189 190 191 192 193
* net 1 rx_data[3]
* net 2 rx_data[7]
* net 17 rx_data[1]
* net 21 rx_data[5]
* net 45 rx_data[2]
* net 58 spi_miso
* net 68 rx_data[4]
* net 83 rx_data[6]
* net 99 clk
* net 105 rx_data[0]
* net 113 tx_data[1]
* net 117 tx_data[2]
* net 118 tx_data[0]
* net 127 rx_valid
* net 139 tx_data[3]
* net 145 spi_clk
* net 155 tx_data[4]
* net 182 tx_valid
* net 184 tx_ready
* net 186 tx_data[6]
* net 187 rst_n
* net 188 spi_cs_n
* net 189 spi_mosi
* net 190 tx_data[7]
* net 191 tx_data[5]
* net 192 NWELL
* net 193 PWELL,gf180mcu_gnd
* cell instance $3 r0 *1 40.32,5.04
X$3 5 192 193 1 gf180mcu_fd_sc_mcu9t5v0__dlyb_2
* cell instance $7 r0 *1 64.96,5.04
X$7 3 192 193 2 gf180mcu_fd_sc_mcu9t5v0__dlyb_2
* cell instance $11 m0 *1 63.84,25.2
X$11 193 192 19 3 15 12 gf180mcu_fd_sc_mcu9t5v0__mux2_2
* cell instance $13 r0 *1 57.68,15.12
X$13 193 11 3 7 19 192 gf180mcu_fd_sc_mcu9t5v0__dffrnq_2
* cell instance $17 r0 *1 116.48,5.04
X$17 193 192 4 6 15 23 gf180mcu_fd_sc_mcu9t5v0__mux2_2
* cell instance $19 m0 *1 113.68,15.12
X$19 193 11 6 8 4 192 gf180mcu_fd_sc_mcu9t5v0__dffrnq_2
* cell instance $23 m0 *1 41.44,15.12
X$23 193 192 9 5 15 10 gf180mcu_fd_sc_mcu9t5v0__mux2_2
* cell instance $26 m0 *1 22.4,15.12
X$26 193 11 5 7 9 192 gf180mcu_fd_sc_mcu9t5v0__dffrnq_2
* cell instance $31 m0 *1 128.24,25.2
X$31 6 192 193 21 gf180mcu_fd_sc_mcu9t5v0__dlyb_2
* cell instance $37 m0 *1 51.52,15.12
X$37 193 11 12 7 22 192 gf180mcu_fd_sc_mcu9t5v0__dffrnq_2
* cell instance $40 m0 *1 31.36,25.2
X$40 193 11 10 7 37 192 gf180mcu_fd_sc_mcu9t5v0__dffrnq_2
* cell instance $43 r0 *1 55.44,35.28
X$43 193 192 46 7 gf180mcu_fd_sc_mcu9t5v0__clkbuf_3
* cell instance $46 m0 *1 27.44,55.44
X$46 193 11 62 7 73 192 gf180mcu_fd_sc_mcu9t5v0__dffrnq_2
* cell instance $48 r0 *1 17.92,45.36
X$48 193 11 47 7 61 192 gf180mcu_fd_sc_mcu9t5v0__dffrnq_2
* cell instance $50 m0 *1 53.76,45.36
X$50 193 11 39 7 48 192 gf180mcu_fd_sc_mcu9t5v0__dffrnq_2
* cell instance $53 r0 *1 58.24,45.36
X$53 193 192 7 gf180mcu_fd_sc_mcu9t5v0__clkinv_3
* cell instance $61 r0 *1 101.92,35.28
X$61 193 11 43 8 42 192 gf180mcu_fd_sc_mcu9t5v0__dffrnq_2
* cell instance $63 m0 *1 109.2,25.2
X$63 193 11 16 8 28 192 gf180mcu_fd_sc_mcu9t5v0__dffrnq_2
* cell instance $66 m0 *1 115.92,65.52
X$66 193 11 82 8 81 192 gf180mcu_fd_sc_mcu9t5v0__dffrnq_2
* cell instance $68 m0 *1 98.56,55.44
X$68 193 11 66 8 65 192 gf180mcu_fd_sc_mcu9t5v0__dffrnq_2
* cell instance $71 r0 *1 101.92,55.44
X$71 193 11 78 8 86 192 gf180mcu_fd_sc_mcu9t5v0__dffrnq_2
* cell instance $73 m0 *1 117.6,55.44
X$73 193 11 67 8 57 192 gf180mcu_fd_sc_mcu9t5v0__dffrnq_2
* cell instance $76 m0 *1 87.92,25.2
X$76 193 11 23 8 25 192 gf180mcu_fd_sc_mcu9t5v0__dffrnq_2
* cell instance $78 m0 *1 87.36,15.12
X$78 193 11 14 8 13 192 gf180mcu_fd_sc_mcu9t5v0__dffrnq_2
* cell instance $80 r0 *1 87.36,45.36
X$80 193 192 46 8 gf180mcu_fd_sc_mcu9t5v0__clkbuf_3
* cell instance $89 m0 *1 115.92,35.28
X$89 193 11 44 8 40 192 gf180mcu_fd_sc_mcu9t5v0__dffrnq_2
* cell instance $97 m0 *1 48.72,35.28
X$97 192 10 193 38 20 39 29 gf180mcu_fd_sc_mcu9t5v0__oai31_2
* cell instance $99 m0 *1 14.56,85.68
X$99 193 11 101 108 107 192 gf180mcu_fd_sc_mcu9t5v0__dffrnq_4
* cell instance $102 m0 *1 48.72,126
X$102 193 157 11 192 gf180mcu_fd_sc_mcu9t5v0__buf_12
* cell instance $130 r0 *1 112,115.92
X$130 193 11 169 104 163 192 gf180mcu_fd_sc_mcu9t5v0__dffrnq_2
* cell instance $134 r0 *1 67.2,85.68
X$134 193 11 94 108 120 192 gf180mcu_fd_sc_mcu9t5v0__dffrnq_2
* cell instance $141 m0 *1 104.16,95.76
X$141 193 11 132 104 143 192 gf180mcu_fd_sc_mcu9t5v0__dffrnq_2
* cell instance $144 m0 *1 15.12,95.76
X$144 193 11 123 108 141 192 gf180mcu_fd_sc_mcu9t5v0__dffrnq_4
* cell instance $146 r0 *1 105.84,85.68
X$146 193 11 126 104 125 192 gf180mcu_fd_sc_mcu9t5v0__dffrnq_2
* cell instance $148 r0 *1 3.92,85.68
X$148 193 11 122 108 121 192 gf180mcu_fd_sc_mcu9t5v0__dffrnq_2
* cell instance $153 m0 *1 97.44,75.6
X$153 193 11 96 104 95 192 gf180mcu_fd_sc_mcu9t5v0__dffrnq_2
* cell instance $156 m0 *1 107.52,126
X$156 193 11 168 104 167 192 gf180mcu_fd_sc_mcu9t5v0__dffrnq_2
* cell instance $160 m0 *1 85.12,115.92
X$160 193 11 159 104 171 192 gf180mcu_fd_sc_mcu9t5v0__dffrnq_2
* cell instance $162 m0 *1 108.08,105.84
X$162 193 11 151 104 150 192 gf180mcu_fd_sc_mcu9t5v0__dffrnq_2
* cell instance $164 r0 *1 77.28,115.92
X$164 193 11 166 104 172 192 gf180mcu_fd_sc_mcu9t5v0__dffrnq_2
* cell instance $172 r0 *1 115.36,75.6
X$172 193 11 98 104 97 192 gf180mcu_fd_sc_mcu9t5v0__dffrnq_2
* cell instance $178 r0 *1 17.36,105.84
X$178 193 11 124 108 146 192 gf180mcu_fd_sc_mcu9t5v0__dffrnq_2
* cell instance $181 m0 *1 70,126
X$181 193 11 173 104 176 192 gf180mcu_fd_sc_mcu9t5v0__dffrnq_2
* cell instance $188 r0 *1 54.88,25.2
X$188 192 12 193 30 31 39 29 gf180mcu_fd_sc_mcu9t5v0__oai31_2
* cell instance $190 r0 *1 81.76,15.12
X$190 192 193 27 20 18 24 13 26 gf180mcu_fd_sc_mcu9t5v0__oai32_2
* cell instance $193 r0 *1 113.68,15.12
X$193 193 192 28 16 15 14 gf180mcu_fd_sc_mcu9t5v0__mux2_2
* cell instance $196 r0 *1 103.04,15.12
X$196 193 192 14 24 gf180mcu_fd_sc_mcu9t5v0__clkinv_2
* cell instance $209 r0 *1 119.84,45.36
X$209 193 192 57 67 15 66 gf180mcu_fd_sc_mcu9t5v0__mux2_2
* cell instance $213 m0 *1 47.04,75.6
X$213 192 193 101 15 102 gf180mcu_fd_sc_mcu9t5v0__nand2_4
* cell instance $216 m0 *1 117.6,75.6
X$216 193 192 97 98 15 96 gf180mcu_fd_sc_mcu9t5v0__mux2_2
* cell instance $218 r0 *1 120.96,55.44
X$218 193 192 81 82 15 78 gf180mcu_fd_sc_mcu9t5v0__mux2_2
* cell instance $220 r0 *1 120.96,35.28
X$220 193 192 40 44 15 43 gf180mcu_fd_sc_mcu9t5v0__mux2_2
* cell instance $225 r0 *1 128.24,15.12
X$225 16 192 193 17 gf180mcu_fd_sc_mcu9t5v0__dlyb_2
* cell instance $232 m0 *1 75.6,25.2
X$232 192 193 27 31 18 35 25 34 gf180mcu_fd_sc_mcu9t5v0__oai32_2
* cell instance $235 m0 *1 53.76,25.2
X$235 192 30 193 22 18 31 29 gf180mcu_fd_sc_mcu9t5v0__oai31_2
* cell instance $237 r0 *1 44.8,25.2
X$237 192 38 193 37 18 20 29 gf180mcu_fd_sc_mcu9t5v0__oai31_2
* cell instance $243 m0 *1 74.48,55.44
X$243 193 56 50 18 55 192 gf180mcu_fd_sc_mcu9t5v0__nand3_4
* cell instance $250 r0 *1 72.8,45.36
X$250 39 192 20 54 193 64 gf180mcu_fd_sc_mcu9t5v0__and3_2
* cell instance $252 r0 *1 81.76,25.2
X$252 32 20 33 36 193 192 34 gf180mcu_fd_sc_mcu9t5v0__and4_2
* cell instance $254 m0 *1 88.48,55.44
X$254 32 20 36 41 193 192 72 gf180mcu_fd_sc_mcu9t5v0__and4_2
* cell instance $265 r0 *1 40.32,55.44
X$265 192 20 193 74 69 61 75 gf180mcu_fd_sc_mcu9t5v0__oai22_2
* cell instance $267 m0 *1 36.4,45.36
X$267 193 20 60 47 192 gf180mcu_fd_sc_mcu9t5v0__xnor2_4
* cell instance $278 r0 *1 94.08,25.2
X$278 193 192 23 35 gf180mcu_fd_sc_mcu9t5v0__clkinv_2
* cell instance $297 m0 *1 80.64,35.28
X$297 32 31 33 36 193 192 26 gf180mcu_fd_sc_mcu9t5v0__and4_2
* cell instance $299 r0 *1 76.72,25.2
X$299 193 192 32 27 36 gf180mcu_fd_sc_mcu9t5v0__nand2_2
* cell instance $311 m0 *1 45.36,85.68
X$311 102 101 109 93 192 193 29 gf180mcu_fd_sc_mcu9t5v0__or4_2
* cell instance $320 r0 *1 89.6,35.28
X$320 32 31 36 41 193 192 52 gf180mcu_fd_sc_mcu9t5v0__and4_2
* cell instance $325 m0 *1 88.48,45.36
X$325 63 31 36 41 193 192 59 gf180mcu_fd_sc_mcu9t5v0__and4_2
* cell instance $333 r0 *1 36.96,45.36
X$333 47 193 60 192 31 gf180mcu_fd_sc_mcu9t5v0__xor2_2
* cell instance $339 r0 *1 81.2,55.44
X$339 193 192 32 63 gf180mcu_fd_sc_mcu9t5v0__clkinv_2
* cell instance $352 r0 *1 50.4,65.52
X$352 193 32 88 192 93 gf180mcu_fd_sc_mcu9t5v0__or2_2
* cell instance $354 r0 *1 46.48,45.36
X$354 193 60 32 39 62 192 gf180mcu_fd_sc_mcu9t5v0__addh_2
* cell instance $360 r0 *1 67.76,45.36
X$360 192 53 49 193 33 gf180mcu_fd_sc_mcu9t5v0__and2_2
* cell instance $373 r0 *1 39.76,75.6
X$373 193 36 101 88 109 102 192 gf180mcu_fd_sc_mcu9t5v0__nor4_4
* cell instance $396 r0 *1 80.08,45.36
X$396 39 54 56 55 193 192 41 gf180mcu_fd_sc_mcu9t5v0__and4_2
* cell instance $398 r0 *1 62.72,45.36
X$398 193 192 39 49 gf180mcu_fd_sc_mcu9t5v0__clkinv_2
* cell instance $420 m0 *1 100.24,45.36
X$420 193 192 42 51 52 43 gf180mcu_fd_sc_mcu9t5v0__mux2_2
* cell instance $432 m0 *1 128.24,45.36
X$432 44 192 193 45 gf180mcu_fd_sc_mcu9t5v0__dlyb_2
* cell instance $440 m0 *1 62.16,75.6
X$440 193 192 99 46 gf180mcu_fd_sc_mcu9t5v0__clkbuf_3
* cell instance $443 r0 *1 85.68,95.76
X$443 193 192 46 104 gf180mcu_fd_sc_mcu9t5v0__clkbuf_3
* cell instance $446 r0 *1 49.28,95.76
X$446 193 192 46 108 gf180mcu_fd_sc_mcu9t5v0__clkbuf_3
* cell instance $455 r0 *1 36.4,55.44
X$455 193 192 47 75 gf180mcu_fd_sc_mcu9t5v0__clkinv_2
* cell instance $465 m0 *1 38.64,65.52
X$465 193 84 53 192 47 60 gf180mcu_fd_sc_mcu9t5v0__nand3_2
* cell instance $468 m0 *1 56.56,55.44
X$468 192 77 193 69 48 49 gf180mcu_fd_sc_mcu9t5v0__oai21_2
* cell instance $472 m0 *1 57.12,65.52
X$472 193 192 49 77 91 gf180mcu_fd_sc_mcu9t5v0__nand2_2
* cell instance $474 r0 *1 54.88,55.44
X$474 75 193 49 76 192 79 gf180mcu_fd_sc_mcu9t5v0__or3_2
* cell instance $477 m0 *1 72.8,45.36
X$477 49 192 51 54 193 50 gf180mcu_fd_sc_mcu9t5v0__and3_2
* cell instance $495 r0 *1 92.4,55.44
X$495 193 192 86 51 72 78 gf180mcu_fd_sc_mcu9t5v0__mux2_2
* cell instance $498 m0 *1 115.92,45.36
X$498 58 192 193 51 gf180mcu_fd_sc_mcu9t5v0__clkbuf_2
* cell instance $500 r0 *1 101.92,45.36
X$500 193 192 65 51 59 66 gf180mcu_fd_sc_mcu9t5v0__mux2_2
* cell instance $502 r0 *1 101.92,65.52
X$502 193 192 95 51 90 96 gf180mcu_fd_sc_mcu9t5v0__mux2_2
* cell instance $508 r0 *1 61.6,55.44
X$508 194 193 192 53 84 70 gf180mcu_fd_sc_mcu9t5v0__addh_1
* cell instance $510 m0 *1 62.16,65.52
X$510 193 87 88 53 79 192 gf180mcu_fd_sc_mcu9t5v0__addh_2
* cell instance $512 m0 *1 71.12,95.76
X$512 193 192 94 53 gf180mcu_fd_sc_mcu9t5v0__inv_3
* cell instance $515 r0 *1 71.68,55.44
X$515 80 193 192 53 89 71 gf180mcu_fd_sc_mcu9t5v0__addh_1
* cell instance $517 m0 *1 35.84,85.68
X$517 100 193 192 53 84 195 gf180mcu_fd_sc_mcu9t5v0__addh_1
* cell instance $519 r0 *1 72.24,95.76
X$519 137 193 192 53 130 198 gf180mcu_fd_sc_mcu9t5v0__addh_1
* cell instance $521 r0 *1 35.84,95.76
X$521 193 192 136 140 53 gf180mcu_fd_sc_mcu9t5v0__nand2_2
* cell instance $533 r0 *1 59.36,85.68
X$533 192 111 193 69 120 53 gf180mcu_fd_sc_mcu9t5v0__oai21_2
* cell instance $539 m0 *1 69.44,85.68
X$539 193 192 54 119 103 gf180mcu_fd_sc_mcu9t5v0__nor2_2
* cell instance $544 m0 *1 73.92,65.52
X$544 193 192 55 70 71 gf180mcu_fd_sc_mcu9t5v0__nor2_2
* cell instance $550 m0 *1 81.2,65.52
X$550 192 87 80 193 56 gf180mcu_fd_sc_mcu9t5v0__and2_2
* cell instance $572 r0 *1 50.96,55.44
X$572 193 192 62 76 gf180mcu_fd_sc_mcu9t5v0__clkinv_2
* cell instance $579 m0 *1 67.2,55.44
X$579 70 71 63 92 193 192 85 gf180mcu_fd_sc_mcu9t5v0__and4_2
* cell instance $583 m0 *1 46.48,55.44
X$583 192 63 193 74 69 73 76 gf180mcu_fd_sc_mcu9t5v0__oai22_2
* cell instance $590 r0 *1 73.92,65.52
X$590 88 91 64 85 193 192 90 gf180mcu_fd_sc_mcu9t5v0__and4_2
* cell instance $603 r0 *1 128.24,45.36
X$603 67 192 193 68 gf180mcu_fd_sc_mcu9t5v0__dlyb_2
* cell instance $610 m0 *1 39.2,95.76
X$610 193 69 129 128 101 192 gf180mcu_fd_sc_mcu9t5v0__aoi21_4
* cell instance $639 r0 *1 34.16,75.6
X$639 193 192 107 100 74 gf180mcu_fd_sc_mcu9t5v0__nor2_2
* cell instance $648 r0 *1 45.36,85.68
X$648 193 192 110 74 114 gf180mcu_fd_sc_mcu9t5v0__nand2_2
* cell instance $675 r0 *1 62.72,65.52
X$675 193 94 79 192 89 gf180mcu_fd_sc_mcu9t5v0__or2_2
* cell instance $681 r0 *1 68.32,65.52
X$681 193 192 92 87 80 gf180mcu_fd_sc_mcu9t5v0__nor2_2
* cell instance $691 r0 *1 128.24,65.52
X$691 82 192 193 83 gf180mcu_fd_sc_mcu9t5v0__dlyb_2
* cell instance $696 r0 *1 71.12,75.6
X$696 103 193 192 94 84 197 gf180mcu_fd_sc_mcu9t5v0__addh_1
* cell instance $704 m0 *1 76.16,85.68
X$704 193 192 84 130 gf180mcu_fd_sc_mcu9t5v0__clkinv_2
* cell instance $722 m0 *1 57.12,85.68
X$722 193 192 88 111 91 gf180mcu_fd_sc_mcu9t5v0__nand2_2
* cell instance $745 m0 *1 54.32,95.76
X$745 123 192 136 110 193 91 gf180mcu_fd_sc_mcu9t5v0__and3_2
* cell instance $754 m0 *1 75.6,95.76
X$754 119 193 192 94 130 196 gf180mcu_fd_sc_mcu9t5v0__addh_1
* cell instance $756 m0 *1 54.88,105.84
X$756 192 94 193 144 154 149 123 gf180mcu_fd_sc_mcu9t5v0__oai22_2
* cell instance $768 r0 *1 43.68,95.76
X$768 193 192 110 94 124 gf180mcu_fd_sc_mcu9t5v0__nor2_2
* cell instance $771 r0 *1 50.4,85.68
X$771 193 94 124 192 109 gf180mcu_fd_sc_mcu9t5v0__or2_2
* cell instance $788 m0 *1 128.24,75.6
X$788 98 192 193 105 gf180mcu_fd_sc_mcu9t5v0__dlyb_2
* cell instance $796 r0 *1 30.24,85.68
X$796 192 123 193 109 142 100 gf180mcu_fd_sc_mcu9t5v0__oai21_2
* cell instance $800 r0 *1 6.72,95.76
X$800 193 192 121 122 123 101 gf180mcu_fd_sc_mcu9t5v0__mux2_2
* cell instance $804 r0 *1 57.12,95.76
X$804 193 192 101 136 gf180mcu_fd_sc_mcu9t5v0__clkinv_4
* cell instance $807 r0 *1 26.32,95.76
X$807 193 101 192 141 142 129 gf180mcu_fd_sc_mcu9t5v0__aoi21_2
* cell instance $819 m0 *1 40.32,105.84
X$819 193 192 102 129 147 gf180mcu_fd_sc_mcu9t5v0__nand2_2
* cell instance $823 m0 *1 51.52,115.92
X$823 193 192 102 158 136 gf180mcu_fd_sc_mcu9t5v0__nand2_2
* cell instance $826 m0 *1 35.84,105.84
X$826 193 192 123 102 gf180mcu_fd_sc_mcu9t5v0__inv_3
* cell instance $835 m0 *1 43.12,115.92
X$835 193 192 162 161 102 180 gf180mcu_fd_sc_mcu9t5v0__mux2_2
* cell instance $867 r0 *1 133.28,85.68
X$867 193 192 116 106 gf180mcu_fd_sc_mcu9t5v0__clkinv_2
* cell instance $869 m0 *1 114.24,85.68
X$869 193 192 131 106 114 gf180mcu_fd_sc_mcu9t5v0__nor2_2
* cell instance $877 m0 *1 45.36,105.84
X$877 193 192 108 gf180mcu_fd_sc_mcu9t5v0__clkinv_3
* cell instance $879 r0 *1 35.84,126
X$879 193 180 108 162 157 192 gf180mcu_fd_sc_mcu9t5v0__dffsnq_2
* cell instance $881 r0 *1 36.4,115.92
X$881 193 165 108 164 157 192 gf180mcu_fd_sc_mcu9t5v0__dffsnq_2
* cell instance $910 r0 *1 40.32,85.68
X$910 193 192 123 128 110 gf180mcu_fd_sc_mcu9t5v0__nand2_2
* cell instance $916 m0 *1 123.2,95.76
X$916 193 192 133 132 114 112 gf180mcu_fd_sc_mcu9t5v0__mux2_2
* cell instance $918 m0 *1 119.84,85.68
X$918 113 192 193 112 gf180mcu_fd_sc_mcu9t5v0__dlyb_2
* cell instance $924 m0 *1 128.24,115.92
X$924 193 192 160 151 114 156 gf180mcu_fd_sc_mcu9t5v0__mux2_2
* cell instance $933 r0 *1 124.88,85.68
X$933 193 192 134 126 114 115 gf180mcu_fd_sc_mcu9t5v0__mux2_2
* cell instance $935 r0 *1 101.92,115.92
X$935 193 192 170 168 114 174 gf180mcu_fd_sc_mcu9t5v0__mux2_2
* cell instance $938 r0 *1 128.24,126
X$938 193 192 185 169 114 175 gf180mcu_fd_sc_mcu9t5v0__mux2_2
* cell instance $940 r0 *1 101.92,126
X$940 193 192 178 159 114 179 gf180mcu_fd_sc_mcu9t5v0__mux2_2
* cell instance $943 r0 *1 45.36,105.84
X$943 193 192 148 114 gf180mcu_fd_sc_mcu9t5v0__buf_4
* cell instance $946 r0 *1 83.44,126
X$946 193 192 177 166 114 181 gf180mcu_fd_sc_mcu9t5v0__mux2_2
* cell instance $950 m0 *1 128.24,105.84
X$950 117 192 193 115 gf180mcu_fd_sc_mcu9t5v0__dlyb_2
* cell instance $953 m0 *1 128.24,85.68
X$953 118 192 193 116 gf180mcu_fd_sc_mcu9t5v0__dlyb_2
* cell instance $973 m0 *1 4.48,95.76
X$973 122 192 193 127 gf180mcu_fd_sc_mcu9t5v0__dlyb_2
* cell instance $976 m0 *1 49.84,105.84
X$976 193 192 123 144 124 gf180mcu_fd_sc_mcu9t5v0__nand2_2
* cell instance $979 r0 *1 40.32,105.84
X$979 192 123 136 193 148 gf180mcu_fd_sc_mcu9t5v0__and2_2
* cell instance $983 m0 *1 20.72,105.84
X$983 192 123 135 193 146 gf180mcu_fd_sc_mcu9t5v0__and2_2
* cell instance $999 r0 *1 15.12,95.76
X$999 192 124 140 193 135 gf180mcu_fd_sc_mcu9t5v0__xnor2_2
* cell instance $1007 m0 *1 11.76,105.84
X$1007 124 192 193 145 gf180mcu_fd_sc_mcu9t5v0__dlyb_2
* cell instance $1014 r0 *1 120.96,95.76
X$1014 193 192 125 133 138 126 gf180mcu_fd_sc_mcu9t5v0__mux2_2
* cell instance $1034 r0 *1 112.56,95.76
X$1034 193 192 143 131 138 132 gf180mcu_fd_sc_mcu9t5v0__mux2_2
* cell instance $1047 r0 *1 115.36,105.84
X$1047 193 192 150 134 138 151 gf180mcu_fd_sc_mcu9t5v0__mux2_2
* cell instance $1053 r0 *1 72.24,105.84
X$1053 192 149 136 138 193 gf180mcu_fd_sc_mcu9t5v0__and2_4
* cell instance $1056 m0 *1 38.08,115.92
X$1056 193 192 136 161 147 gf180mcu_fd_sc_mcu9t5v0__nand2_2
* cell instance $1067 m0 *1 64.96,105.84
X$1067 192 144 152 153 149 136 193 gf180mcu_fd_sc_mcu9t5v0__oai211_2
* cell instance $1069 r0 *1 68.32,95.76
X$1069 193 192 137 153 gf180mcu_fd_sc_mcu9t5v0__clkinv_2
* cell instance $1081 m0 *1 117.6,115.92
X$1081 193 192 163 160 138 169 gf180mcu_fd_sc_mcu9t5v0__mux2_2
* cell instance $1085 m0 *1 97.44,126
X$1085 193 192 171 170 138 159 gf180mcu_fd_sc_mcu9t5v0__mux2_2
* cell instance $1089 m0 *1 89.04,126
X$1089 193 192 172 178 138 166 gf180mcu_fd_sc_mcu9t5v0__mux2_2
* cell instance $1092 r0 *1 113.68,126
X$1092 193 192 167 185 138 168 gf180mcu_fd_sc_mcu9t5v0__mux2_2
* cell instance $1095 r0 *1 128.24,105.84
X$1095 139 192 193 156 gf180mcu_fd_sc_mcu9t5v0__dlyb_2
* cell instance $1123 r0 *1 56,105.84
X$1123 193 192 147 154 gf180mcu_fd_sc_mcu9t5v0__clkinv_2
* cell instance $1132 m0 *1 45.36,136.08
X$1132 182 192 193 147 gf180mcu_fd_sc_mcu9t5v0__clkbuf_2
* cell instance $1152 r0 *1 74.48,126
X$1152 193 192 176 173 152 177 gf180mcu_fd_sc_mcu9t5v0__mux2_2
* cell instance $1162 m0 *1 40.32,126
X$1162 193 192 164 165 158 154 gf180mcu_fd_sc_mcu9t5v0__mux2_2
* cell instance $1166 m0 *1 128.24,126
X$1166 155 192 193 175 gf180mcu_fd_sc_mcu9t5v0__dlyb_2
* cell instance $1171 m0 *1 49.84,136.08
X$1171 183 192 193 157 gf180mcu_fd_sc_mcu9t5v0__buf_2
* cell instance $1204 r0 *1 56.56,126
X$1204 165 192 193 184 gf180mcu_fd_sc_mcu9t5v0__dlyb_2
* cell instance $1240 m0 *1 76.16,136.08
X$1240 173 192 193 189 gf180mcu_fd_sc_mcu9t5v0__dlyb_2
* cell instance $1244 m0 *1 101.92,136.08
X$1244 191 192 193 174 gf180mcu_fd_sc_mcu9t5v0__dlyb_2
* cell instance $1262 r0 *1 91.84,126
X$1262 186 192 193 179 gf180mcu_fd_sc_mcu9t5v0__dlyb_2
* cell instance $1269 m0 *1 66.64,136.08
X$1269 180 192 193 188 gf180mcu_fd_sc_mcu9t5v0__dlyb_2
* cell instance $1272 m0 *1 85.12,136.08
X$1272 190 192 193 181 gf180mcu_fd_sc_mcu9t5v0__dlyb_2
* cell instance $1736 m0 *1 54.32,136.08
X$1736 193 183 187 192 gf180mcu_fd_sc_mcu9t5v0__dlyc_2
.ENDS simple_spi_master

* cell gf180mcu_fd_sc_mcu9t5v0__oai32_2
* pin NWELL,VDD
* pin PWELL,VSS,gf180mcu_gnd
* pin A2
* pin A1
* pin A3
* pin B2
* pin ZN
* pin B1
.SUBCKT gf180mcu_fd_sc_mcu9t5v0__oai32_2 1 2 3 4 5 7 8 9
* net 1 NWELL,VDD
* net 2 PWELL,VSS,gf180mcu_gnd
* net 3 A2
* net 4 A1
* net 5 A3
* net 7 B2
* net 8 ZN
* net 9 B1
* device instance $1 r0 *1 0.97,3.78 pmos_5p0
M$1 15 5 1 1 pmos_5p0 L=0.5U W=1.83U AS=0.8052P AD=0.52155P PS=4.54U PD=2.4U
* device instance $2 r0 *1 2.04,3.78 pmos_5p0
M$2 14 3 15 1 pmos_5p0 L=0.5U W=1.83U AS=0.52155P AD=0.5673P PS=2.4U PD=2.45U
* device instance $3 r0 *1 3.16,3.78 pmos_5p0
M$3 8 4 14 1 pmos_5p0 L=0.5U W=1.83U AS=0.5673P AD=0.5673P PS=2.45U PD=2.45U
* device instance $4 r0 *1 4.28,3.78 pmos_5p0
M$4 13 4 8 1 pmos_5p0 L=0.5U W=1.83U AS=0.5673P AD=0.52155P PS=2.45U PD=2.4U
* device instance $5 r0 *1 5.35,3.78 pmos_5p0
M$5 11 3 13 1 pmos_5p0 L=0.5U W=1.83U AS=0.52155P AD=0.5673P PS=2.4U PD=2.45U
* device instance $6 r0 *1 6.47,3.78 pmos_5p0
M$6 1 5 11 1 pmos_5p0 L=0.5U W=1.83U AS=0.5673P AD=0.6588P PS=2.45U PD=2.55U
* device instance $7 r0 *1 7.69,3.78 pmos_5p0
M$7 12 7 1 1 pmos_5p0 L=0.5U W=1.83U AS=0.6588P AD=0.52155P PS=2.55U PD=2.4U
* device instance $8 r0 *1 8.76,3.78 pmos_5p0
M$8 8 9 12 1 pmos_5p0 L=0.5U W=1.83U AS=0.52155P AD=0.5673P PS=2.4U PD=2.45U
* device instance $9 r0 *1 9.88,3.78 pmos_5p0
M$9 10 9 8 1 pmos_5p0 L=0.5U W=1.83U AS=0.5673P AD=0.52155P PS=2.45U PD=2.4U
* device instance $10 r0 *1 10.95,3.78 pmos_5p0
M$10 1 7 10 1 pmos_5p0 L=0.5U W=1.83U AS=0.52155P AD=0.8052P PS=2.4U PD=4.54U
* device instance $11 r0 *1 0.92,1.005 nmos_5p0
M$11 2 5 6 2 nmos_5p0 L=0.6U W=2.64U AS=0.924P AD=0.6864P PS=5.36U PD=3.68U
* device instance $12 r0 *1 2.04,1.005 nmos_5p0
M$12 6 3 2 2 nmos_5p0 L=0.6U W=2.64U AS=0.6864P AD=0.6864P PS=3.68U PD=3.68U
* device instance $13 r0 *1 3.16,1.005 nmos_5p0
M$13 2 4 6 2 nmos_5p0 L=0.6U W=2.64U AS=0.6864P AD=0.6864P PS=3.68U PD=3.68U
* device instance $17 r0 *1 7.64,1.005 nmos_5p0
M$17 8 7 6 2 nmos_5p0 L=0.6U W=2.64U AS=0.6864P AD=1.2408P PS=3.68U PD=5.84U
* device instance $18 r0 *1 8.76,1.005 nmos_5p0
M$18 6 9 8 2 nmos_5p0 L=0.6U W=2.64U AS=0.6864P AD=0.6864P PS=3.68U PD=3.68U
.ENDS gf180mcu_fd_sc_mcu9t5v0__oai32_2

* cell gf180mcu_fd_sc_mcu9t5v0__nand3_4
* pin PWELL,VSS,gf180mcu_gnd
* pin A1
* pin A3
* pin ZN
* pin A2
* pin NWELL,VDD
.SUBCKT gf180mcu_fd_sc_mcu9t5v0__nand3_4 1 2 4 5 11 12
* net 1 PWELL,VSS,gf180mcu_gnd
* net 2 A1
* net 4 A3
* net 5 ZN
* net 11 A2
* net 12 NWELL,VDD
* device instance $1 r0 *1 0.87,3.965 pmos_5p0
M$1 5 11 12 12 pmos_5p0 L=0.5U W=5.84U AS=1.8542P AD=1.5914P PS=9.84U PD=8.02U
* device instance $2 r0 *1 1.89,3.965 pmos_5p0
M$2 12 4 5 12 pmos_5p0 L=0.5U W=5.84U AS=1.6644P AD=1.6644P PS=8.12U PD=8.12U
* device instance $9 r0 *1 9.33,3.965 pmos_5p0
M$9 5 2 12 12 pmos_5p0 L=0.5U W=5.84U AS=1.7374P AD=2.0002P PS=8.22U PD=10.04U
* device instance $13 r0 *1 0.92,1.005 nmos_5p0
M$13 6 11 3 1 nmos_5p0 L=0.6U W=1.32U AS=0.5808P AD=0.2772P PS=3.52U PD=1.74U
* device instance $14 r0 *1 1.94,1.005 nmos_5p0
M$14 1 4 6 1 nmos_5p0 L=0.6U W=1.32U AS=0.2772P AD=0.3432P PS=1.74U PD=1.84U
* device instance $15 r0 *1 3.06,1.005 nmos_5p0
M$15 7 4 1 1 nmos_5p0 L=0.6U W=1.32U AS=0.3432P AD=0.2772P PS=1.84U PD=1.74U
* device instance $16 r0 *1 4.08,1.005 nmos_5p0
M$16 3 11 7 1 nmos_5p0 L=0.6U W=1.32U AS=0.2772P AD=0.3432P PS=1.74U PD=1.84U
* device instance $17 r0 *1 5.2,1.005 nmos_5p0
M$17 9 11 3 1 nmos_5p0 L=0.6U W=1.32U AS=0.3432P AD=0.2772P PS=1.84U PD=1.74U
* device instance $18 r0 *1 6.22,1.005 nmos_5p0
M$18 1 4 9 1 nmos_5p0 L=0.6U W=1.32U AS=0.2772P AD=0.3432P PS=1.74U PD=1.84U
* device instance $19 r0 *1 7.34,1.005 nmos_5p0
M$19 8 4 1 1 nmos_5p0 L=0.6U W=1.32U AS=0.3432P AD=0.2772P PS=1.84U PD=1.74U
* device instance $20 r0 *1 8.36,1.005 nmos_5p0
M$20 10 11 8 1 nmos_5p0 L=0.6U W=1.32U AS=0.2772P AD=0.2772P PS=1.74U PD=1.74U
* device instance $21 r0 *1 9.38,1.005 nmos_5p0
M$21 5 2 10 1 nmos_5p0 L=0.6U W=1.32U AS=0.2772P AD=0.3432P PS=1.74U PD=1.84U
* device instance $22 r0 *1 10.5,1.005 nmos_5p0
M$22 3 2 5 1 nmos_5p0 L=0.6U W=3.96U AS=1.0296P AD=1.2672P PS=5.52U PD=7.2U
.ENDS gf180mcu_fd_sc_mcu9t5v0__nand3_4

* cell gf180mcu_fd_sc_mcu9t5v0__or3_2
* pin A1
* pin PWELL,VSS,gf180mcu_gnd
* pin A2
* pin A3
* pin NWELL,VDD
* pin Z
.SUBCKT gf180mcu_fd_sc_mcu9t5v0__or3_2 2 3 4 5 6 7
* net 2 A1
* net 3 PWELL,VSS,gf180mcu_gnd
* net 4 A2
* net 5 A3
* net 6 NWELL,VDD
* net 7 Z
* device instance $1 r0 *1 0.97,3.78 pmos_5p0
M$1 9 2 1 6 pmos_5p0 L=0.5U W=1.83U AS=0.8052P AD=0.52155P PS=4.54U PD=2.4U
* device instance $2 r0 *1 2.04,3.78 pmos_5p0
M$2 8 4 9 6 pmos_5p0 L=0.5U W=1.83U AS=0.52155P AD=0.5673P PS=2.4U PD=2.45U
* device instance $3 r0 *1 3.16,3.78 pmos_5p0
M$3 6 5 8 6 pmos_5p0 L=0.5U W=1.83U AS=0.5673P AD=0.732P PS=2.45U PD=2.63U
* device instance $4 r0 *1 4.46,3.78 pmos_5p0
M$4 7 1 6 6 pmos_5p0 L=0.5U W=3.66U AS=1.25355P AD=1.32675P PS=5.03U PD=6.94U
* device instance $6 r0 *1 0.92,0.87 nmos_5p0
M$6 3 2 1 3 nmos_5p0 L=0.6U W=1.05U AS=0.462P AD=0.273P PS=2.98U PD=1.57U
* device instance $7 r0 *1 2.04,0.87 nmos_5p0
M$7 1 4 3 3 nmos_5p0 L=0.6U W=1.05U AS=0.273P AD=0.273P PS=1.57U PD=1.57U
* device instance $8 r0 *1 3.16,0.87 nmos_5p0
M$8 3 5 1 3 nmos_5p0 L=0.6U W=1.05U AS=0.273P AD=0.4215P PS=1.57U PD=2.02U
* device instance $9 r0 *1 4.46,1.005 nmos_5p0
M$9 7 1 3 3 nmos_5p0 L=0.6U W=2.64U AS=0.7647P AD=0.924P PS=3.86U PD=5.36U
.ENDS gf180mcu_fd_sc_mcu9t5v0__or3_2

* cell gf180mcu_fd_sc_mcu9t5v0__nand3_2
* pin PWELL,VSS,gf180mcu_gnd
* pin ZN
* pin A1
* pin NWELL,VDD
* pin A2
* pin A3
.SUBCKT gf180mcu_fd_sc_mcu9t5v0__nand3_2 1 2 3 4 5 6
* net 1 PWELL,VSS,gf180mcu_gnd
* net 2 ZN
* net 3 A1
* net 4 NWELL,VDD
* net 5 A2
* net 6 A3
* device instance $1 r0 *1 0.87,3.85 pmos_5p0
M$1 2 6 4 4 pmos_5p0 L=0.5U W=2.92U AS=1.022P AD=1.022P PS=5.78U PD=5.78U
* device instance $2 r0 *1 1.89,3.85 pmos_5p0
M$2 4 5 2 4 pmos_5p0 L=0.5U W=2.92U AS=0.7592P AD=0.7592P PS=3.96U PD=3.96U
* device instance $3 r0 *1 2.91,3.85 pmos_5p0
M$3 2 3 4 4 pmos_5p0 L=0.5U W=2.92U AS=0.7592P AD=0.7592P PS=3.96U PD=3.96U
* device instance $7 r0 *1 1.06,1 nmos_5p0
M$7 10 6 1 1 nmos_5p0 L=0.6U W=1.32U AS=0.5808P AD=0.1848P PS=3.52U PD=1.6U
* device instance $8 r0 *1 1.94,1 nmos_5p0
M$8 9 5 10 1 nmos_5p0 L=0.6U W=1.32U AS=0.1848P AD=0.2112P PS=1.6U PD=1.64U
* device instance $9 r0 *1 2.86,1 nmos_5p0
M$9 2 3 9 1 nmos_5p0 L=0.6U W=1.32U AS=0.2112P AD=0.3432P PS=1.64U PD=1.84U
* device instance $10 r0 *1 3.98,1 nmos_5p0
M$10 8 3 2 1 nmos_5p0 L=0.6U W=1.32U AS=0.3432P AD=0.2112P PS=1.84U PD=1.64U
* device instance $11 r0 *1 4.9,1 nmos_5p0
M$11 7 5 8 1 nmos_5p0 L=0.6U W=1.32U AS=0.2112P AD=0.2772P PS=1.64U PD=1.74U
* device instance $12 r0 *1 5.92,1 nmos_5p0
M$12 1 6 7 1 nmos_5p0 L=0.6U W=1.32U AS=0.2772P AD=0.5808P PS=1.74U PD=3.52U
.ENDS gf180mcu_fd_sc_mcu9t5v0__nand3_2

* cell gf180mcu_fd_sc_mcu9t5v0__oai31_2
* pin NWELL,VDD
* pin B
* pin PWELL,VSS,gf180mcu_gnd
* pin ZN
* pin A2
* pin A1
* pin A3
.SUBCKT gf180mcu_fd_sc_mcu9t5v0__oai31_2 1 2 3 4 5 6 7
* net 1 NWELL,VDD
* net 2 B
* net 3 PWELL,VSS,gf180mcu_gnd
* net 4 ZN
* net 5 A2
* net 6 A1
* net 7 A3
* device instance $1 r0 *1 0.92,3.872 pmos_5p0
M$1 4 2 1 1 pmos_5p0 L=0.5U W=3.29U AS=1.353P AD=0.93765P PS=6.72U PD=4.43U
* device instance $3 r0 *1 3.21,3.78 pmos_5p0
M$3 12 7 1 1 pmos_5p0 L=0.5U W=1.83U AS=0.6292P AD=0.52155P PS=2.55U PD=2.4U
* device instance $4 r0 *1 4.28,3.78 pmos_5p0
M$4 11 5 12 1 pmos_5p0 L=0.5U W=1.83U AS=0.52155P AD=0.5673P PS=2.4U PD=2.45U
* device instance $5 r0 *1 5.4,3.78 pmos_5p0
M$5 4 6 11 1 pmos_5p0 L=0.5U W=1.83U AS=0.5673P AD=0.5673P PS=2.45U PD=2.45U
* device instance $6 r0 *1 6.52,3.78 pmos_5p0
M$6 10 6 4 1 pmos_5p0 L=0.5U W=1.83U AS=0.5673P AD=0.5673P PS=2.45U PD=2.45U
* device instance $7 r0 *1 7.64,3.78 pmos_5p0
M$7 9 5 10 1 pmos_5p0 L=0.5U W=1.83U AS=0.5673P AD=0.52155P PS=2.45U PD=2.4U
* device instance $8 r0 *1 8.71,3.78 pmos_5p0
M$8 1 7 9 1 pmos_5p0 L=0.5U W=1.83U AS=0.52155P AD=0.8052P PS=2.4U PD=4.54U
* device instance $9 r0 *1 0.92,1.005 nmos_5p0
M$9 3 2 8 3 nmos_5p0 L=0.6U W=2.64U AS=0.924P AD=0.6864P PS=5.36U PD=3.68U
* device instance $11 r0 *1 3.16,1.005 nmos_5p0
M$11 4 7 8 3 nmos_5p0 L=0.6U W=2.64U AS=0.6864P AD=1.2342P PS=3.68U PD=5.83U
* device instance $12 r0 *1 4.28,1.005 nmos_5p0
M$12 8 5 4 3 nmos_5p0 L=0.6U W=2.64U AS=0.6864P AD=0.6864P PS=3.68U PD=3.68U
* device instance $13 r0 *1 5.4,1.005 nmos_5p0
M$13 4 6 8 3 nmos_5p0 L=0.6U W=2.64U AS=0.6864P AD=0.6864P PS=3.68U PD=3.68U
.ENDS gf180mcu_fd_sc_mcu9t5v0__oai31_2

* cell gf180mcu_fd_sc_mcu9t5v0__xor2_2
* pin A1
* pin PWELL,VSS,gf180mcu_gnd
* pin A2
* pin NWELL,VDD
* pin Z
.SUBCKT gf180mcu_fd_sc_mcu9t5v0__xor2_2 1 2 6 7 8
* net 1 A1
* net 2 PWELL,VSS,gf180mcu_gnd
* net 6 A2
* net 7 NWELL,VDD
* net 8 Z
* device instance $1 r0 *1 0.87,3.947 pmos_5p0
M$1 3 6 7 7 pmos_5p0 L=0.5U W=0.915U AS=0.4026P AD=0.2379P PS=2.71U PD=1.435U
* device instance $2 r0 *1 1.89,3.947 pmos_5p0
M$2 3 1 7 7 pmos_5p0 L=0.5U W=0.915U AS=0.526125P AD=0.2379P PS=2.58U PD=1.435U
* device instance $3 r0 *1 3.14,3.785 pmos_5p0
M$3 5 3 7 7 pmos_5p0 L=0.5U W=1.83U AS=0.526125P AD=0.61305P PS=2.58U PD=2.5U
* device instance $4 r0 *1 4.31,3.785 pmos_5p0
M$4 10 1 5 7 pmos_5p0 L=0.5U W=1.83U AS=0.61305P AD=0.4758P PS=2.5U PD=2.35U
* device instance $5 r0 *1 5.33,3.785 pmos_5p0
M$5 7 6 10 7 pmos_5p0 L=0.5U W=1.83U AS=0.4758P AD=0.8052P PS=2.35U PD=4.54U
* device instance $6 r0 *1 7.27,3.78 pmos_5p0
M$6 8 5 7 7 pmos_5p0 L=0.5U W=3.66U AS=1.281P AD=1.281P PS=6.89U PD=6.89U
* device instance $8 r0 *1 7.22,1.005 nmos_5p0
M$8 8 5 2 2 nmos_5p0 L=0.6U W=2.64U AS=0.924P AD=0.924P PS=5.36U PD=5.36U
* device instance $10 r0 *1 0.92,1.16 nmos_5p0
M$10 9 6 3 2 nmos_5p0 L=0.6U W=0.66U AS=0.2904P AD=0.1056P PS=2.2U PD=0.98U
* device instance $11 r0 *1 1.84,1.16 nmos_5p0
M$11 9 1 2 2 nmos_5p0 L=0.6U W=0.66U AS=0.363P AD=0.1056P PS=2.02U PD=0.98U
* device instance $12 r0 *1 3.14,1.005 nmos_5p0
M$12 4 3 2 2 nmos_5p0 L=0.6U W=1.32U AS=0.363P AD=0.3432P PS=2.02U PD=1.84U
* device instance $13 r0 *1 4.26,1.005 nmos_5p0
M$13 5 1 4 2 nmos_5p0 L=0.6U W=1.32U AS=0.3432P AD=0.3432P PS=1.84U PD=1.84U
* device instance $14 r0 *1 5.38,1.005 nmos_5p0
M$14 4 6 5 2 nmos_5p0 L=0.6U W=1.32U AS=0.3432P AD=0.5808P PS=1.84U PD=3.52U
.ENDS gf180mcu_fd_sc_mcu9t5v0__xor2_2

* cell gf180mcu_fd_sc_mcu9t5v0__xnor2_4
* pin PWELL,VSS,gf180mcu_gnd
* pin ZN
* pin A2
* pin A1
* pin NWELL,VDD
.SUBCKT gf180mcu_fd_sc_mcu9t5v0__xnor2_4 1 4 5 6 8
* net 1 PWELL,VSS,gf180mcu_gnd
* net 4 ZN
* net 5 A2
* net 6 A1
* net 8 NWELL,VDD
* device instance $1 r0 *1 7.27,3.78 pmos_5p0
M$1 4 3 8 8 pmos_5p0 L=0.5U W=7.32U AS=2.4156P AD=2.4156P PS=11.79U PD=11.79U
* device instance $5 r0 *1 0.92,3.112 pmos_5p0
M$5 10 5 2 8 pmos_5p0 L=0.5U W=0.495U AS=0.2178P AD=0.15345P PS=1.87U PD=1.115U
* device instance $6 r0 *1 2.04,3.112 pmos_5p0
M$6 8 6 10 8 pmos_5p0 L=0.5U W=0.495U AS=0.15345P AD=0.479325P PS=1.115U
+ PD=2.58U
* device instance $7 r0 *1 3.29,3.78 pmos_5p0
M$7 9 2 8 8 pmos_5p0 L=0.5U W=1.83U AS=0.479325P AD=0.5673P PS=2.58U PD=2.45U
* device instance $8 r0 *1 4.41,3.78 pmos_5p0
M$8 3 6 9 8 pmos_5p0 L=0.5U W=1.83U AS=0.5673P AD=0.4758P PS=2.45U PD=2.35U
* device instance $9 r0 *1 5.43,3.78 pmos_5p0
M$9 9 5 3 8 pmos_5p0 L=0.5U W=1.83U AS=0.4758P AD=0.8052P PS=2.35U PD=4.54U
* device instance $10 r0 *1 7.22,1.005 nmos_5p0
M$10 4 3 1 1 nmos_5p0 L=0.6U W=5.28U AS=1.6104P AD=1.6104P PS=9.04U PD=9.04U
* device instance $14 r0 *1 0.92,0.85 nmos_5p0
M$14 2 5 1 1 nmos_5p0 L=0.6U W=0.36U AS=0.1584P AD=0.0936P PS=1.6U PD=0.88U
* device instance $15 r0 *1 2.04,0.85 nmos_5p0