
* cell configurable_conditional_sum_adder
* pin sum[0]
* pin b[6]
* pin sum[6]
* pin sum[5]
* pin a[6]
* pin b[5]
* pin a[5]
* pin a[3]
* pin b[7]
* pin sum[7]
* pin a[7]
* pin b[4]
* pin sum[4]
* pin a[4]
* pin b[14]
* pin b[15]
* pin sum[15]
* pin sum[14]
* pin a[15]
* pin a[14]
* pin a[13]
* pin b[13]
* pin sum[13]
* pin a[0]
* pin b[0]
* pin cin
* pin a[12]
* pin b[12]
* pin b[1]
* pin a[1]
* pin sum[12]
* pin sum[1]
* pin a[2]
* pin sum[2]
* pin b[8]
* pin b[2]
* pin b[3]
* pin sum[3]
* pin sum[8]
* pin a[9]
* pin a[8]
* pin a[25]
* pin sum[25]
* pin sum[9]
* pin b[25]
* pin sum[26]
* pin b[9]
* pin a[26]
* pin b[26]
* pin a[17]
* pin b[17]
* pin a[24]
* pin sum[16]
* pin sum[17]
* pin b[10]
* pin sum[24]
* pin b[24]
* pin a[10]
* pin sum[10]
* pin b[16]
* pin a[16]
* pin sum[11]
* pin b[18]
* pin b[27]
* pin sum[18]
* pin sum[27]
* pin b[11]
* pin a[11]
* pin b[31]
* pin a[18]
* pin a[27]
* pin sum[29]
* pin b[29]
* pin a[29]
* pin sum[30]
* pin sum[19]
* pin sum[20]
* pin sum[28]
* pin sum[31]
* pin a[30]
* pin a[28]
* pin b[19]
* pin b[30]
* pin b[28]
* pin cout
* pin b[23]
* pin a[23]
* pin sum[23]
* pin b[22]
* pin sum[22]
* pin a[22]
* pin b[21]
* pin sum[21]
* pin a[21]
* pin b[20]
* pin a[19]
* pin a[20]
* pin a[31]
.SUBCKT configurable_conditional_sum_adder 1 2 3 4 5 6 7 8 9 10 11 12 13 14 15
+ 16 17 18 19 20 21 22 23 41 65 85 94 95 111 112 117 125 133 140 145 149 165
+ 166 170 172 173 179 191 195 196 197 200 212 213 216 217 229 230 235 236 255
+ 256 258 259 274 275 280 281 298 301 306 308 319 320 321 323 326 346 347 354
+ 356 369 372 378 390 395 401 403 410 421 422 424 425 426 427 428 429 430 431
+ 432 433 434 435
* net 1 sum[0]
* net 2 b[6]
* net 3 sum[6]
* net 4 sum[5]
* net 5 a[6]
* net 6 b[5]
* net 7 a[5]
* net 8 a[3]
* net 9 b[7]
* net 10 sum[7]
* net 11 a[7]
* net 12 b[4]
* net 13 sum[4]
* net 14 a[4]
* net 15 b[14]
* net 16 b[15]
* net 17 sum[15]
* net 18 sum[14]
* net 19 a[15]
* net 20 a[14]
* net 21 a[13]
* net 22 b[13]
* net 23 sum[13]
* net 41 a[0]
* net 65 b[0]
* net 85 cin
* net 94 a[12]
* net 95 b[12]
* net 111 b[1]
* net 112 a[1]
* net 117 sum[12]
* net 125 sum[1]
* net 133 a[2]
* net 140 sum[2]
* net 145 b[8]
* net 149 b[2]
* net 165 b[3]
* net 166 sum[3]
* net 170 sum[8]
* net 172 a[9]
* net 173 a[8]
* net 179 a[25]
* net 191 sum[25]
* net 195 sum[9]
* net 196 b[25]
* net 197 sum[26]
* net 200 b[9]
* net 212 a[26]
* net 213 b[26]
* net 216 a[17]
* net 217 b[17]
* net 229 a[24]
* net 230 sum[16]
* net 235 sum[17]
* net 236 b[10]
* net 255 sum[24]
* net 256 b[24]
* net 258 a[10]
* net 259 sum[10]
* net 274 b[16]
* net 275 a[16]
* net 280 sum[11]
* net 281 b[18]
* net 298 b[27]
* net 301 sum[18]
* net 306 sum[27]
* net 308 b[11]
* net 319 a[11]
* net 320 b[31]
* net 321 a[18]
* net 323 a[27]
* net 326 sum[29]
* net 346 b[29]
* net 347 a[29]
* net 354 sum[30]
* net 356 sum[19]
* net 369 sum[20]
* net 372 sum[28]
* net 378 sum[31]
* net 390 a[30]
* net 395 a[28]
* net 401 b[19]
* net 403 b[30]
* net 410 b[28]
* net 421 cout
* net 422 b[23]
* net 424 a[23]
* net 425 sum[23]
* net 426 b[22]
* net 427 sum[22]
* net 428 a[22]
* net 429 b[21]
* net 430 sum[21]
* net 431 a[21]
* net 432 b[20]
* net 433 a[19]
* net 434 a[20]
* net 435 a[31]
* cell instance $2 r0 *1 7.36,2.72
X$2 58 99 1 31 58 31 sky130_fd_sc_hd__clkbuf_1
* cell instance $5 r0 *1 15.64,8.16
X$5 58 2 53 31 58 31 sky130_fd_sc_hd__clkbuf_1
* cell instance $9 r0 *1 11.04,2.72
X$9 58 62 3 31 58 31 sky130_fd_sc_hd__clkbuf_1
* cell instance $12 r0 *1 13.8,2.72
X$12 58 45 4 31 58 31 sky130_fd_sc_hd__clkbuf_1
* cell instance $17 r0 *1 12.42,2.72
X$17 58 5 44 31 58 31 sky130_fd_sc_hd__clkbuf_1
* cell instance $21 r0 *1 9.66,2.72
X$21 58 6 24 31 58 31 sky130_fd_sc_hd__clkbuf_1
* cell instance $25 r0 *1 23.92,2.72
X$25 58 7 34 31 58 31 sky130_fd_sc_hd__clkbuf_1
* cell instance $28 r0 *1 22.54,2.72
X$28 58 8 114 31 58 31 sky130_fd_sc_hd__clkbuf_1
* cell instance $30 m0 *1 26.68,8.16
X$30 58 9 83 31 58 31 sky130_fd_sc_hd__clkbuf_1
* cell instance $34 r0 *1 27.6,2.72
X$34 58 50 10 31 58 31 sky130_fd_sc_hd__clkbuf_1
* cell instance $37 r0 *1 29.44,2.72
X$37 58 11 51 31 58 31 sky130_fd_sc_hd__clkbuf_1
* cell instance $40 r0 *1 30.82,2.72
X$40 58 12 55 31 58 31 sky130_fd_sc_hd__clkbuf_1
* cell instance $43 r0 *1 33.58,2.72
X$43 58 35 13 31 58 31 sky130_fd_sc_hd__clkbuf_1
* cell instance $45 r0 *1 32.2,2.72
X$45 58 14 52 31 58 31 sky130_fd_sc_hd__clkbuf_1
* cell instance $49 r0 *1 39.56,2.72
X$49 58 15 36 31 58 31 sky130_fd_sc_hd__clkbuf_1
* cell instance $52 r0 *1 41.4,2.72
X$52 58 16 71 31 58 31 sky130_fd_sc_hd__clkbuf_1
* cell instance $56 r0 *1 38.18,2.72
X$56 58 110 17 31 58 31 sky130_fd_sc_hd__clkbuf_1
* cell instance $59 r0 *1 43.24,2.72
X$59 58 63 18 31 58 31 sky130_fd_sc_hd__clkbuf_1
* cell instance $63 r0 *1 46,2.72
X$63 58 19 73 31 58 31 sky130_fd_sc_hd__clkbuf_1
* cell instance $66 r0 *1 44.62,2.72
X$66 58 20 32 31 58 31 sky130_fd_sc_hd__clkbuf_1
* cell instance $69 r0 *1 49.22,2.72
X$69 58 21 29 31 58 31 sky130_fd_sc_hd__clkbuf_1
* cell instance $72 r0 *1 47.84,13.6
X$72 58 22 30 31 58 31 sky130_fd_sc_hd__clkbuf_1
* cell instance $75 r0 *1 46,13.6
X$75 58 61 23 31 58 31 sky130_fd_sc_hd__clkbuf_1
* cell instance $79 r0 *1 15.64,2.72
X$79 31 46 47 34 24 58 58 31 sky130_fd_sc_hd__ha_1
* cell instance $81 r0 *1 20.24,2.72
X$81 58 24 34 48 31 58 31 sky130_fd_sc_hd__or2_0
* cell instance $83 m0 *1 20.7,8.16
X$83 31 44 54 53 24 34 58 58 31 sky130_fd_sc_hd__o22ai_2
* cell instance $88 r0 *1 34.96,2.72
X$88 58 70 25 35 58 31 31 sky130_fd_sc_hd__xnor2_1
* cell instance $90 r0 *1 31.74,8.16
X$90 31 25 115 82 56 58 58 31 sky130_fd_sc_hd__ha_1
* cell instance $94 r0 *1 47.38,2.72
X$94 58 37 27 26 31 58 49 31 sky130_fd_sc_hd__a21oi_1
* cell instance $96 m0 *1 53.82,8.16
X$96 58 29 30 74 58 26 31 31 sky130_fd_sc_hd__o21ai_0
* cell instance $99 m0 *1 46,13.6
X$99 58 37 27 116 31 58 93 31 sky130_fd_sc_hd__a21oi_1
* cell instance $103 r0 *1 50.6,2.72
X$103 58 38 58 31 27 31 sky130_fd_sc_hd__inv_1
* cell instance $107 r0 *1 44.62,13.6
X$107 58 28 107 128 31 58 31 sky130_fd_sc_hd__nor2_1
* cell instance $109 r0 *1 51.98,2.72
X$109 58 29 30 28 31 58 31 sky130_fd_sc_hd__nor2_1
* cell instance $115 m0 *1 47.84,13.6
X$115 58 102 29 30 58 31 116 31 sky130_fd_sc_hd__o21bai_1
* cell instance $119 m0 *1 49.22,8.16
X$119 31 76 38 29 30 58 58 31 sky130_fd_sc_hd__ha_1
* cell instance $135 r0 *1 2.76,2.72
X$135 31 445 43 33 42 58 58 31 sky130_fd_sc_hd__ha_1
* cell instance $136 r0 *1 1.38,2.72
X$136 58 41 33 31 58 31 sky130_fd_sc_hd__clkbuf_1
* cell instance $147 r0 *1 54.28,2.72
X$147 58 39 58 31 40 31 sky130_fd_sc_hd__inv_1
* cell instance $155 m0 *1 1.38,8.16
X$155 58 65 42 31 58 31 sky130_fd_sc_hd__clkbuf_1
* cell instance $156 m0 *1 2.76,8.16
X$156 58 42 58 31 59 31 sky130_fd_sc_hd__inv_1
* cell instance $157 m0 *1 4.14,8.16
X$157 58 33 58 31 60 31 sky130_fd_sc_hd__inv_1
* cell instance $158 m0 *1 5.52,8.16
X$158 31 98 100 60 59 58 58 31 sky130_fd_sc_hd__ha_1
* cell instance $160 m0 *1 11.04,8.16
X$160 58 104 77 62 58 31 31 sky130_fd_sc_hd__xnor2_1
* cell instance $161 m0 *1 14.26,8.16
X$161 31 77 67 44 53 58 58 31 sky130_fd_sc_hd__ha_1
* cell instance $162 m0 *1 18.86,8.16
X$162 58 44 53 47 58 79 31 31 sky130_fd_sc_hd__o21ai_0
* cell instance $163 m0 *1 25.3,8.16
X$163 58 54 58 31 80 31 sky130_fd_sc_hd__inv_1
* cell instance $166 m0 *1 29.44,8.16
X$166 31 442 64 52 55 58 58 31 sky130_fd_sc_hd__ha_1
* cell instance $167 m0 *1 34.04,8.16
X$167 58 55 58 31 56 31 sky130_fd_sc_hd__inv_1
* cell instance $168 m0 *1 35.42,8.16
X$168 58 52 58 31 82 31 sky130_fd_sc_hd__inv_1
* cell instance $169 m0 *1 36.8,8.16
X$169 31 81 72 32 36 58 58 31 sky130_fd_sc_hd__ha_1
* cell instance $170 m0 *1 41.4,8.16
X$170 58 57 81 63 58 31 31 sky130_fd_sc_hd__xnor2_1
* cell instance $171 m0 *1 44.62,8.16
X$171 58 32 36 37 31 58 31 sky130_fd_sc_hd__nor2_1
* cell instance $172 m0 *1 46,8.16
X$172 58 107 76 61 58 31 31 sky130_fd_sc_hd__xnor2_1
* cell instance $176 r0 *1 1.38,8.16
X$176 58 85 66 31 58 31 sky130_fd_sc_hd__clkbuf_1
* cell instance $177 r0 *1 2.76,8.16
X$177 58 112 96 31 58 31 sky130_fd_sc_hd__clkbuf_1
* cell instance $178 r0 *1 4.14,8.16
X$178 58 98 66 58 99 31 31 sky130_fd_sc_hd__xor2_1
* cell instance $179 r0 *1 7.36,8.16
X$179 58 43 66 31 58 101 31 sky130_fd_sc_hd__or2b_1
* cell instance $181 r0 *1 10.58,8.16
X$181 58 66 100 89 31 58 31 sky130_fd_sc_hd__nand2b_1
* cell instance $190 r0 *1 18.4,8.16
X$190 58 47 48 68 31 58 104 31 sky130_fd_sc_hd__a21oi_1
* cell instance $191 r0 *1 20.24,8.16
X$191 58 79 67 69 31 58 31 sky130_fd_sc_hd__nand2b_1
* cell instance $193 r0 *1 23.46,8.16
X$193 58 69 80 68 31 58 91 31 sky130_fd_sc_hd__a21oi_1
* cell instance $194 r0 *1 25.3,8.16
X$194 58 91 132 50 58 31 31 sky130_fd_sc_hd__xnor2_1
* cell instance $195 r0 *1 28.52,8.16
X$195 58 64 58 31 84 31 sky130_fd_sc_hd__inv_1
* cell instance $196 r0 *1 29.9,8.16
X$196 58 64 70 123 58 31 31 sky130_fd_sc_hd__nand2_1
* cell instance $198 r0 *1 36.34,8.16
X$198 58 92 109 58 110 31 31 sky130_fd_sc_hd__xor2_1
* cell instance $200 r0 *1 40.02,8.16
X$200 58 72 37 57 58 31 92 31 sky130_fd_sc_hd__o21bai_1
* cell instance $205 r0 *1 43.24,8.16
X$205 58 72 49 71 73 78 31 58 31 sky130_fd_sc_hd__o22a_1
* cell instance $207 r0 *1 46.92,8.16
X$207 31 107 74 105 129 58 58 31 sky130_fd_sc_hd__mux2i_1
* cell instance $208 r0 *1 50.6,8.16
X$208 58 102 58 31 105 31 sky130_fd_sc_hd__inv_1
* cell instance $209 r0 *1 51.98,8.16
X$209 58 75 58 31 103 31 sky130_fd_sc_hd__inv_1
* cell instance $210 r0 *1 53.36,8.16
X$210 31 443 74 39 75 58 58 31 sky130_fd_sc_hd__ha_1
* cell instance $211 m0 *1 1.38,13.6
X$211 58 111 87 31 58 31 sky130_fd_sc_hd__clkbuf_1
* cell instance $212 m0 *1 2.76,13.6
X$212 58 119 118 87 96 86 31 58 31 sky130_fd_sc_hd__o22ai_1
* cell instance $213 m0 *1 5.06,13.6
X$213 58 96 87 88 31 58 31 sky130_fd_sc_hd__nor2_1
* cell instance $214 m0 *1 6.44,13.6
X$214 58 113 88 97 31 58 31 sky130_fd_sc_hd__nor2_1
* cell instance $216 m0 *1 8.74,13.6
X$216 58 86 89 101 31 58 90 31 sky130_fd_sc_hd__a21oi_1
* cell instance $218 m0 *1 11.5,13.6
X$218 58 89 101 113 58 31 31 sky130_fd_sc_hd__and2_0
* cell instance $219 m0 *1 13.8,13.6
X$219 58 68 46 58 45 31 31 sky130_fd_sc_hd__xor2_1
* cell instance $222 m0 *1 21.62,13.6
X$222 58 120 106 69 58 121 31 31 sky130_fd_sc_hd__o21a_1
* cell instance $223 m0 *1 24.38,13.6
X$223 58 115 54 106 31 58 31 sky130_fd_sc_hd__nor2_1
* cell instance $224 m0 *1 25.76,13.6
X$224 58 84 54 122 31 58 31 sky130_fd_sc_hd__nor2_1
* cell instance $225 m0 *1 27.14,13.6
X$225 58 115 123 70 58 31 68 31 sky130_fd_sc_hd__o21ai_1
* cell instance $231 m0 *1 38.18,13.6
X$231 31 109 108 73 71 58 58 31 sky130_fd_sc_hd__ha_1
* cell instance $232 m0 *1 42.78,13.6
X$232 58 72 93 71 73 124 31 58 31 sky130_fd_sc_hd__o22a_1
* cell instance $233 m0 *1 50.6,13.6
X$233 31 131 102 40 103 58 58 31 sky130_fd_sc_hd__ha_1
* cell instance $234 m0 *1 55.2,13.6
X$234 58 95 75 31 58 31 sky130_fd_sc_hd__clkbuf_1
* cell instance $237 r0 *1 1.38,13.6
X$237 58 133 119 31 58 31 sky130_fd_sc_hd__clkbuf_1
* cell instance $238 r0 *1 2.76,13.6
X$238 31 127 137 96 87 58 58 31 sky130_fd_sc_hd__ha_1
* cell instance $239 r0 *1 7.36,13.6
X$239 58 126 125 31 58 31 sky130_fd_sc_hd__clkbuf_1
* cell instance $240 r0 *1 8.74,13.6
X$240 58 113 127 126 58 31 31 sky130_fd_sc_hd__xnor2_1
* cell instance $250 r0 *1 23,13.6
X$250 58 69 122 83 51 139 31 58 31 sky130_fd_sc_hd__o22a_1
* cell instance $251 r0 *1 26.22,13.6
X$251 31 132 142 51 83 58 58 31 sky130_fd_sc_hd__ha_1
* cell instance $260 r0 *1 43.24,13.6
X$260 58 38 128 57 31 58 31 sky130_fd_sc_hd__nor2_1
* cell instance $263 r0 *1 49.68,13.6
X$263 58 129 131 58 130 31 31 sky130_fd_sc_hd__xor2_1
* cell instance $264 r0 *1 52.9,13.6
X$264 58 130 117 31 58 31 sky130_fd_sc_hd__clkbuf_1
* cell instance $266 r0 *1 56.12,13.6
X$266 58 94 39 31 58 31 sky130_fd_sc_hd__clkbuf_1
* cell instance $268 m0 *1 1.38,19.04
X$268 58 149 118 31 58 31 sky130_fd_sc_hd__clkbuf_1
* cell instance $271 m0 *1 5.52,19.04
X$271 58 137 97 157 31 58 31 sky130_fd_sc_hd__nor2_1
* cell instance $273 m0 *1 7.36,19.04
X$273 58 137 118 119 58 146 31 31 sky130_fd_sc_hd__o21a_1
* cell instance $275 m0 *1 10.58,19.04
X$275 31 171 151 119 118 58 58 31 sky130_fd_sc_hd__ha_1
* cell instance $277 m0 *1 16.1,19.04
X$277 58 152 147 58 138 31 31 sky130_fd_sc_hd__xor2_1
* cell instance $278 m0 *1 19.32,19.04
X$278 31 147 141 114 160 58 58 31 sky130_fd_sc_hd__ha_1
* cell instance $279 m0 *1 23.92,19.04
X$279 58 141 153 83 51 120 31 58 31 sky130_fd_sc_hd__o22a_1
* cell instance $282 m0 *1 29.44,19.04
X$282 58 142 58 31 164 31 sky130_fd_sc_hd__inv_1
* cell instance $284 m0 *1 31.28,19.04
X$284 58 121 142 148 31 58 31 sky130_fd_sc_hd__or2_0
* cell instance $287 m0 *1 37.72,19.04
X$287 58 108 134 124 163 31 58 31 sky130_fd_sc_hd__nor3_1
* cell instance $288 m0 *1 39.56,19.04
X$288 58 108 135 124 161 31 58 31 sky130_fd_sc_hd__nor3_1
* cell instance $290 m0 *1 42.32,19.04
X$290 31 143 135 134 58 129 58 31 sky130_fd_sc_hd__mux2i_2
* cell instance $293 m0 *1 48.76,19.04
X$293 58 143 159 136 58 31 31 sky130_fd_sc_hd__xnor2_1
* cell instance $294 m0 *1 51.98,19.04
X$294 58 144 58 31 158 31 sky130_fd_sc_hd__inv_1
* cell instance $295 m0 *1 53.36,19.04
X$295 58 145 144 31 58 31 sky130_fd_sc_hd__clkbuf_1
* cell instance $297 m0 *1 55.2,19.04
X$297 58 136 170 31 58 31 sky130_fd_sc_hd__clkbuf_1
* cell instance $300 r0 *1 1.38,19.04
X$300 58 150 140 31 58 31 sky130_fd_sc_hd__clkbuf_1
* cell instance $303 r0 *1 5.06,19.04
X$303 58 157 171 150 58 31 31 sky130_fd_sc_hd__xnor2_1
* cell instance $306 r0 *1 11.04,19.04
X$306 58 138 166 31 58 31 sky130_fd_sc_hd__clkbuf_1
* cell instance $309 r0 *1 13.8,19.04
X$309 58 165 160 31 58 31 sky130_fd_sc_hd__clkbuf_1
* cell instance $313 r0 *1 16.56,19.04
X$313 58 151 90 146 153 58 31 162 31 sky130_fd_sc_hd__o31ai_1
* cell instance $315 r0 *1 21.16,19.04
X$315 31 70 141 152 153 58 58 31 sky130_fd_sc_hd__a21oi_4
* cell instance $317 r0 *1 27.6,19.04
X$317 58 139 142 121 168 58 154 31 31 sky130_fd_sc_hd__a211o_1
* cell instance $318 r0 *1 30.82,19.04
X$318 58 139 121 168 31 58 175 31 sky130_fd_sc_hd__a21oi_1
* cell instance $320 r0 *1 33.58,19.04
X$320 58 70 148 154 31 143 58 31 sky130_fd_sc_hd__o21ai_2
* cell instance $321 r0 *1 36.8,19.04
X$321 58 78 108 134 180 31 58 31 sky130_fd_sc_hd__nor3b_1
* cell instance $322 r0 *1 39.56,19.04
X$322 58 78 108 135 178 31 58 31 sky130_fd_sc_hd__nor3b_1
* cell instance $328 r0 *1 46,19.04
X$328 58 182 143 177 58 31 31 sky130_fd_sc_hd__nand2_1
* cell instance $329 r0 *1 47.38,19.04
X$329 58 155 177 143 58 31 176 31 sky130_fd_sc_hd__o21ai_1
* cell instance $330 r0 *1 49.22,19.04
X$330 31 159 155 174 158 58 58 31 sky130_fd_sc_hd__ha_1
* cell instance $331 r0 *1 53.82,19.04
X$331 58 156 58 31 174 31 sky130_fd_sc_hd__inv_1
* cell instance $332 r0 *1 55.2,19.04
X$332 58 173 156 31 58 31 sky130_fd_sc_hd__clkbuf_1
* cell instance $333 r0 *1 56.58,19.04
X$333 58 172 184 31 58 31 sky130_fd_sc_hd__clkbuf_1
* cell instance $338 m0 *1 1.38,24.48
X$338 58 186 191 31 58 31 sky130_fd_sc_hd__clkbuf_1
* cell instance $339 m0 *1 2.76,24.48
X$339 58 179 167 31 58 31 sky130_fd_sc_hd__clkbuf_1
* cell instance $341 m0 *1 4.6,24.48
X$341 31 202 193 167 192 58 58 31 sky130_fd_sc_hd__ha_1
* cell instance $345 m0 *1 15.64,24.48
X$345 58 90 151 146 58 31 152 31 sky130_fd_sc_hd__or3_2
* cell instance $346 m0 *1 18.4,24.48
X$346 58 141 151 90 146 168 58 31 31 sky130_fd_sc_hd__or4_1
* cell instance $347 m0 *1 21.16,24.48
X$347 58 160 114 153 31 58 31 sky130_fd_sc_hd__or2_1
* cell instance $348 m0 *1 23.46,24.48
X$348 58 141 58 31 187 31 sky130_fd_sc_hd__inv_1
* cell instance $349 m0 *1 24.84,24.48
X$349 58 121 187 162 31 58 169 31 sky130_fd_sc_hd__a21oi_1
* cell instance $354 m0 *1 29.9,24.48
X$354 31 164 208 163 180 175 169 58 58 31 sky130_fd_sc_hd__o221ai_2
* cell instance $355 m0 *1 35.42,24.48
X$355 31 154 190 161 178 70 148 58 58 31 sky130_fd_sc_hd__o221ai_2
* cell instance $358 m0 *1 46.46,24.48
X$358 58 155 58 31 189 31 sky130_fd_sc_hd__inv_1
* cell instance $359 m0 *1 47.84,24.48
X$359 58 181 182 183 31 58 188 31 sky130_fd_sc_hd__a21oi_1
* cell instance $360 m0 *1 49.68,24.48
X$360 31 440 182 156 144 58 58 31 sky130_fd_sc_hd__ha_1
* cell instance $361 m0 *1 54.28,24.48
X$361 58 185 184 183 31 58 31 sky130_fd_sc_hd__or2_0
* cell instance $364 r0 *1 1.38,24.48
X$364 58 196 192 31 58 31 sky130_fd_sc_hd__clkbuf_1
* cell instance $365 r0 *1 2.76,24.48
X$365 58 201 197 31 58 31 sky130_fd_sc_hd__clkbuf_1
* cell instance $367 r0 *1 4.6,24.48
X$367 58 199 202 186 58 31 31 sky130_fd_sc_hd__xnor2_1
* cell instance $368 r0 *1 7.82,24.48
X$368 58 167 192 194 31 58 31 sky130_fd_sc_hd__nor2_1
* cell instance $370 r0 *1 9.66,24.48
X$370 58 193 199 194 203 58 31 31 sky130_fd_sc_hd__o21ba_1
* cell instance $386 r0 *1 46.92,24.48
X$386 58 209 188 210 58 134 31 31 sky130_fd_sc_hd__o21a_1
* cell instance $387 r0 *1 49.68,24.48
X$387 58 181 183 176 31 58 206 31 sky130_fd_sc_hd__a21oi_1
* cell instance $389 r0 *1 51.98,24.48
X$389 31 205 181 184 185 58 58 31 sky130_fd_sc_hd__ha_1
* cell instance $390 r0 *1 56.58,24.48
X$390 58 200 185 31 58 31 sky130_fd_sc_hd__clkbuf_1
* cell instance $395 m0 *1 1.38,29.92
X$395 58 212 207 31 58 31 sky130_fd_sc_hd__clkbuf_1
* cell instance $397 m0 *1 3.22,29.92
X$397 58 203 218 201 58 31 31 sky130_fd_sc_hd__xnor2_1
* cell instance $399 m0 *1 6.9,29.92
X$399 31 218 269 207 198 58 58 31 sky130_fd_sc_hd__ha_1
* cell instance $400 m0 *1 11.5,29.92
X$400 58 193 214 198 207 283 31 58 31 sky130_fd_sc_hd__o22a_1
* cell instance $401 m0 *1 14.72,29.92
X$401 58 215 194 214 31 58 31 sky130_fd_sc_hd__nor2_1
* cell instance $407 m0 *1 29.44,29.92
X$407 58 190 208 219 58 31 31 sky130_fd_sc_hd__and2_0
* cell instance $411 m0 *1 37.72,29.92
X$411 58 251 228 220 58 31 31 sky130_fd_sc_hd__xnor2_1
* cell instance $415 m0 *1 46.92,29.92
X$415 58 209 204 210 58 135 31 31 sky130_fd_sc_hd__o21a_1
* cell instance $416 m0 *1 49.68,29.92
X$416 58 181 189 183 31 58 204 31 sky130_fd_sc_hd__a21oi_1
* cell instance $417 m0 *1 51.52,29.92
X$417 58 176 205 58 211 31 31 sky130_fd_sc_hd__xor2_1
* cell instance $419 m0 *1 55.2,29.92
X$419 58 211 195 31 58 31 sky130_fd_sc_hd__clkbuf_1
* cell instance $422 r0 *1 1.38,29.92
X$422 58 213 198 31 58 31 sky130_fd_sc_hd__clkbuf_1
* cell instance $423 r0 *1 2.76,29.92
X$423 58 229 231 31 58 31 sky130_fd_sc_hd__clkbuf_1
* cell instance $424 r0 *1 4.14,29.92
X$424 31 444 221 231 237 58 58 31 sky130_fd_sc_hd__ha_1
* cell instance $425 r0 *1 8.74,29.92
X$425 31 238 232 221 58 199 58 31 sky130_fd_sc_hd__mux2i_2
* cell instance $426 r0 *1 13.8,29.92
X$426 58 215 58 31 232 31 sky130_fd_sc_hd__inv_1
* cell instance $431 r0 *1 18.4,29.92
X$431 58 233 242 58 241 31 31 sky130_fd_sc_hd__xor2_1
* cell instance $433 r0 *1 22.54,29.92
X$433 31 242 222 253 252 58 58 31 sky130_fd_sc_hd__ha_1
* cell instance $435 r0 *1 28.06,29.92
X$435 31 219 233 58 58 31 sky130_fd_sc_hd__buf_6
* cell instance $436 r0 *1 32.2,29.92
X$436 58 222 190 208 266 58 31 31 sky130_fd_sc_hd__nand3_1
* cell instance $438 r0 *1 35.88,29.92
X$438 58 224 223 244 58 243 31 31 sky130_fd_sc_hd__o21ai_0
* cell instance $439 r0 *1 37.72,29.92
X$439 31 228 265 224 223 58 58 31 sky130_fd_sc_hd__ha_1
* cell instance $443 r0 *1 43.24,29.92
X$443 58 224 223 248 31 58 31 sky130_fd_sc_hd__nor2_1
* cell instance $444 r0 *1 44.62,29.92
X$444 58 220 235 31 58 31 sky130_fd_sc_hd__clkbuf_1
* cell instance $446 r0 *1 46.92,29.92
X$446 58 217 223 31 58 31 sky130_fd_sc_hd__clkbuf_1
* cell instance $447 r0 *1 48.3,29.92
X$447 58 239 225 240 31 58 31 sky130_fd_sc_hd__nor2_1
* cell instance $449 r0 *1 50.14,29.92
X$449 58 226 206 225 31 58 31 sky130_fd_sc_hd__nor2_1
* cell instance $451 r0 *1 52.44,29.92
X$451 58 227 234 226 31 58 31 sky130_fd_sc_hd__nor2_1
* cell instance $454 r0 *1 55.2,29.92
X$454 58 216 224 31 58 31 sky130_fd_sc_hd__clkbuf_1
* cell instance $455 r0 *1 56.58,29.92
X$455 58 236 234 31 58 31 sky130_fd_sc_hd__clkbuf_1
* cell instance $461 m0 *1 1.84,35.36
X$461 58 256 237 31 58 31 sky130_fd_sc_hd__clkbuf_1
* cell instance $463 m0 *1 3.68,35.36
X$463 58 231 58 31 260 31 sky130_fd_sc_hd__inv_1
* cell instance $465 m0 *1 5.52,35.36
X$465 31 261 215 260 273 58 58 31 sky130_fd_sc_hd__ha_1
* cell instance $467 m0 *1 10.58,35.36
X$467 58 193 245 198 207 262 31 58 31 sky130_fd_sc_hd__o22a_1
* cell instance $468 m0 *1 13.8,35.36
X$468 58 241 230 31 58 31 sky130_fd_sc_hd__clkbuf_1
* cell instance $469 m0 *1 15.18,35.36
X$469 58 194 221 245 31 58 31 sky130_fd_sc_hd__nor2b_1
* cell instance $472 m0 *1 18.86,35.36
X$472 31 441 244 246 257 58 58 31 sky130_fd_sc_hd__ha_1
* cell instance $473 m0 *1 23.46,35.36
X$473 58 257 58 31 252 31 sky130_fd_sc_hd__inv_1
* cell instance $474 m0 *1 24.84,35.36
X$474 58 246 58 31 253 31 sky130_fd_sc_hd__inv_1
* cell instance $478 m0 *1 29.44,35.36
X$478 58 190 208 264 293 58 31 31 sky130_fd_sc_hd__nand3_1
* cell instance $481 m0 *1 32.66,35.36
X$481 58 244 266 233 58 31 251 31 sky130_fd_sc_hd__o21ai_1
* cell instance $484 m0 *1 35.88,35.36
X$484 58 267 247 243 31 58 254 31 sky130_fd_sc_hd__a21oi_1
* cell instance $485 m0 *1 37.72,35.36
X$485 58 248 222 289 31 58 31 sky130_fd_sc_hd__or2_0
* cell instance $486 m0 *1 40.02,35.36
X$486 58 247 251 248 58 279 31 31 sky130_fd_sc_hd__o21a_1
* cell instance $488 m0 *1 43.7,35.36
X$488 58 265 58 31 247 31 sky130_fd_sc_hd__inv_1
* cell instance $489 m0 *1 45.08,35.36
X$489 58 206 263 250 58 31 31 sky130_fd_sc_hd__xnor2_1
* cell instance $490 m0 *1 48.3,35.36
X$490 31 263 239 227 234 58 58 31 sky130_fd_sc_hd__ha_1
* cell instance $491 m0 *1 52.9,35.36
X$491 58 227 249 234 58 31 210 31 sky130_fd_sc_hd__o21ai_1
* cell instance $492 m0 *1 54.74,35.36
X$492 58 272 239 249 31 58 209 31 sky130_fd_sc_hd__a21oi_1
* cell instance $495 r0 *1 1.38,35.36
X$495 58 268 255 31 58 31 sky130_fd_sc_hd__clkbuf_1
* cell instance $496 r0 *1 2.76,35.36
X$496 58 274 257 31 58 31 sky130_fd_sc_hd__clkbuf_1
* cell instance $497 r0 *1 4.14,35.36
X$497 58 238 261 268 58 31 31 sky130_fd_sc_hd__xnor2_1
* cell instance $498 r0 *1 7.36,35.36
X$498 58 237 58 31 273 31 sky130_fd_sc_hd__inv_1
* cell instance $500 r0 *1 9.66,35.36
X$500 58 269 262 282 31 58 31 sky130_fd_sc_hd__nor2_1
* cell instance $502 r0 *1 11.5,35.36
X$502 58 269 283 284 31 58 31 sky130_fd_sc_hd__nor2_1
* cell instance $504 r0 *1 13.8,35.36
X$504 58 275 246 31 58 31 sky130_fd_sc_hd__clkbuf_1
* cell instance $510 r0 *1 22.08,35.36
X$510 58 287 276 304 58 31 31 sky130_fd_sc_hd__nand2_1
* cell instance $514 r0 *1 29.44,35.36
X$514 58 288 300 264 31 58 31 sky130_fd_sc_hd__nor2_1
* cell instance $517 r0 *1 34.96,35.36
X$517 58 290 254 297 278 277 31 58 31 sky130_fd_sc_hd__o22a_1
* cell instance $518 r0 *1 38.18,35.36
X$518 58 267 247 289 31 58 291 31 sky130_fd_sc_hd__a21oi_1
* cell instance $519 r0 *1 40.02,35.36
X$519 58 267 279 294 31 58 31 sky130_fd_sc_hd__nor2_1
* cell instance $524 r0 *1 43.24,35.36
X$524 58 279 296 336 58 31 31 sky130_fd_sc_hd__xnor2_1
* cell instance $526 r0 *1 47.38,35.36
X$526 58 240 270 271 58 31 31 sky130_fd_sc_hd__xnor2_1
* cell instance $527 r0 *1 50.6,35.36
X$527 58 271 280 31 58 31 sky130_fd_sc_hd__clkbuf_1
* cell instance $528 r0 *1 51.98,35.36
X$528 31 270 272 285 286 58 58 31 sky130_fd_sc_hd__ha_1
* cell instance $529 r0 *1 56.58,35.36
X$529 58 258 227 31 58 31 sky130_fd_sc_hd__clkbuf_1
* cell instance $534 m0 *1 1.38,40.8
X$534 58 292 306 31 58 31 sky130_fd_sc_hd__clkbuf_1
* cell instance $535 m0 *1 2.76,40.8
X$535 58 302 309 58 292 31 31 sky130_fd_sc_hd__xor2_1
* cell instance $539 m0 *1 11.96,40.8
X$539 31 302 284 282 238 58 58 31 sky130_fd_sc_hd__mux2i_1
* cell instance $542 m0 *1 20.24,40.8
X$542 58 311 304 233 31 58 310 31 sky130_fd_sc_hd__a21o_1
* cell instance $543 m0 *1 23,40.8
X$543 31 314 288 277 233 293 299 58 58 31 sky130_fd_sc_hd__o311ai_2
* cell instance $545 m0 *1 29.44,40.8
X$545 58 305 264 299 313 31 58 31 sky130_fd_sc_hd__nor3_1
* cell instance $546 m0 *1 31.28,40.8
X$546 31 359 288 277 233 293 58 58 31 sky130_fd_sc_hd__o31a_1
* cell instance $547 m0 *1 34.5,40.8
X$547 58 290 291 297 278 300 31 58 31 sky130_fd_sc_hd__o22a_1
* cell instance $548 m0 *1 37.72,40.8
X$548 58 290 294 312 31 58 31 sky130_fd_sc_hd__nor2_1
* cell instance $549 m0 *1 39.1,40.8
X$549 31 322 288 278 297 58 58 31 sky130_fd_sc_hd__ha_1
* cell instance $550 m0 *1 43.7,40.8
X$550 58 303 295 267 31 58 31 sky130_fd_sc_hd__nor2_1
* cell instance $551 m0 *1 45.08,40.8
X$551 31 296 290 303 295 58 58 31 sky130_fd_sc_hd__ha_1
* cell instance $552 m0 *1 49.68,40.8
X$552 58 250 259 31 58 31 sky130_fd_sc_hd__clkbuf_1
* cell instance $556 m0 *1 54.28,40.8
X$556 58 286 285 249 31 58 31 sky130_fd_sc_hd__or2_0
* cell instance $559 r0 *1 1.38,40.8
X$559 58 323 324 31 58 31 sky130_fd_sc_hd__clkbuf_1
* cell instance $560 r0 *1 2.76,40.8
X$560 58 298 327 31 58 31 sky130_fd_sc_hd__clkbuf_1
* cell instance $561 r0 *1 4.14,40.8
X$561 31 309 315 324 327 58 58 31 sky130_fd_sc_hd__ha_1
* cell instance $562 r0 *1 8.74,40.8
X$562 58 315 307 284 328 58 31 31 sky130_fd_sc_hd__o21ba_1
* cell instance $563 r0 *1 12.42,40.8
X$563 58 315 307 282 58 31 329 31 sky130_fd_sc_hd__o21bai_1
* cell instance $569 r0 *1 16.1,40.8
X$569 58 307 282 330 31 58 31 sky130_fd_sc_hd__nor2_1
* cell instance $572 r0 *1 19.78,40.8
X$572 58 316 310 332 58 31 31 sky130_fd_sc_hd__nand2_1
* cell instance $573 r0 *1 21.16,40.8
X$573 58 305 287 299 311 58 31 31 sky130_fd_sc_hd__or3_1
* cell instance $575 r0 *1 23.92,40.8
X$575 58 288 277 287 31 58 31 sky130_fd_sc_hd__nor2_1
* cell instance $576 r0 *1 25.3,40.8
X$576 58 305 317 276 31 58 31 sky130_fd_sc_hd__nor2_1
* cell instance $577 r0 *1 26.68,40.8
X$577 58 300 305 288 317 31 333 58 31 sky130_fd_sc_hd__nor4_1
* cell instance $579 r0 *1 29.9,40.8
X$579 58 313 233 333 58 31 316 31 sky130_fd_sc_hd__o21ai_1
* cell instance $582 r0 *1 36.34,40.8
X$582 58 312 322 355 58 31 31 sky130_fd_sc_hd__xnor2_1
* cell instance $592 r0 *1 44.62,40.8
X$592 58 321 303 31 58 31 sky130_fd_sc_hd__clkbuf_1
* cell instance $593 r0 *1 46,40.8
X$593 58 281 295 31 58 31 sky130_fd_sc_hd__clkbuf_1
* cell instance $594 r0 *1 47.38,40.8
X$594 58 320 402 31 58 31 sky130_fd_sc_hd__clkbuf_1
* cell instance $595 r0 *1 48.76,40.8
X$595 58 345 339 58 318 31 31 sky130_fd_sc_hd__xor2_1
* cell instance $596 r0 *1 51.98,40.8
X$596 58 435 331 31 58 31 sky130_fd_sc_hd__clkbuf_1
* cell instance $597 r0 *1 53.36,40.8
X$597 58 318 326 31 58 31 sky130_fd_sc_hd__clkbuf_1
* cell instance $598 r0 *1 54.74,40.8
X$598 58 308 286 31 58 31 sky130_fd_sc_hd__clkbuf_1
* cell instance $600 r0 *1 56.58,40.8
X$600 58 319 285 31 58 31 sky130_fd_sc_hd__clkbuf_1
* cell instance $603 m0 *1 5.52,46.24
X$603 58 324 327 307 31 58 31 sky130_fd_sc_hd__nor2_1
* cell instance $604 m0 *1 6.9,46.24
X$604 31 348 328 334 238 58 58 31 sky130_fd_sc_hd__mux2i_1
* cell instance $605 m0 *1 10.58,46.24
X$605 58 315 330 334 31 58 31 sky130_fd_sc_hd__nor2_1
* cell instance $606 m0 *1 11.96,46.24
X$606 58 343 335 349 31 58 31 sky130_fd_sc_hd__nor2_1
* cell instance $608 m0 *1 14.26,46.24
X$608 58 342 335 340 58 31 352 31 sky130_fd_sc_hd__o21ai_1
* cell instance $609 m0 *1 16.1,46.24
X$609 31 335 310 316 238 343 58 58 31 sky130_fd_sc_hd__a31oi_4
* cell instance $617 m0 *1 38.64,46.24
X$617 58 355 356 31 58 31 sky130_fd_sc_hd__clkbuf_1
* cell instance $620 m0 *1 42.32,46.24
X$620 58 353 354 31 58 31 sky130_fd_sc_hd__clkbuf_1
* cell instance $621 m0 *1 43.7,46.24
X$621 58 336 301 31 58 31 sky130_fd_sc_hd__clkbuf_1
* cell instance $622 m0 *1 45.08,46.24
X$622 58 351 362 363 325 31 350 58 31 sky130_fd_sc_hd__nor4_1
* cell instance $623 m0 *1 47.38,46.24
X$623 58 337 338 351 31 58 31 sky130_fd_sc_hd__or2_0
* cell instance $624 m0 *1 49.68,46.24
X$624 31 339 325 338 337 58 58 31 sky130_fd_sc_hd__ha_1
* cell instance $626 m0 *1 54.74,46.24
X$626 58 346 337 31 58 31 sky130_fd_sc_hd__clkbuf_1
* cell instance $632 r0 *1 5.52,46.24
X$632 58 329 349 387 58 31 31 sky130_fd_sc_hd__nand2_1
* cell instance $633 r0 *1 6.9,46.24
X$633 58 349 334 343 328 31 341 58 31 sky130_fd_sc_hd__a22o_1
* cell instance $634 r0 *1 10.12,46.24
X$634 58 366 329 357 31 58 31 sky130_fd_sc_hd__nor2_1
* cell instance $635 r0 *1 11.5,46.24
X$635 31 379 329 305 343 357 367 58 58 31 sky130_fd_sc_hd__a2111oi_1
* cell instance $638 r0 *1 15.64,46.24
X$638 31 332 352 375 358 58 345 58 31 sky130_fd_sc_hd__o211ai_4
* cell instance $639 r0 *1 23.46,46.24
X$639 31 358 382 379 314 359 58 58 31 sky130_fd_sc_hd__o211ai_2
* cell instance $640 r0 *1 28.06,46.24
X$640 58 344 393 376 370 299 31 58 31 sky130_fd_sc_hd__o22a_1
* cell instance $642 r0 *1 32.2,46.24
X$642 58 371 58 31 384 31 sky130_fd_sc_hd__inv_1
* cell instance $643 r0 *1 33.58,46.24
X$643 31 385 360 384 359 58 58 31 sky130_fd_sc_hd__mux2i_1
* cell instance $644 r0 *1 37.26,46.24
X$644 58 359 386 58 361 31 31 sky130_fd_sc_hd__xor2_1
* cell instance $645 r0 *1 40.48,46.24
X$645 58 361 369 31 58 31 sky130_fd_sc_hd__clkbuf_1
* cell instance $649 r0 *1 43.24,46.24
X$649 58 325 351 345 31 58 400 31 sky130_fd_sc_hd__a21oi_1
* cell instance $650 r0 *1 45.08,46.24
X$650 58 345 351 363 377 364 58 383 31 31 sky130_fd_sc_hd__o2111ai_1
* cell instance $651 r0 *1 48.3,46.24
X$651 58 362 363 350 381 31 380 58 31 sky130_fd_sc_hd__a211oi_1
* cell instance $652 r0 *1 51.06,46.24
X$652 31 381 368 362 363 377 364 58 58 31 sky130_fd_sc_hd__o41ai_1
* cell instance $653 r0 *1 54.28,46.24
X$653 58 365 378 31 58 31 sky130_fd_sc_hd__clkbuf_1
* cell instance $655 r0 *1 56.58,46.24
X$655 58 347 338 31 58 31 sky130_fd_sc_hd__clkbuf_1
* cell instance $660 m0 *1 1.38,51.68
X$660 58 373 372 31 58 31 sky130_fd_sc_hd__clkbuf_1
* cell instance $661 m0 *1 2.76,51.68
X$661 58 348 391 58 373 31 31 sky130_fd_sc_hd__xor2_1
* cell instance $664 m0 *1 7.36,51.68
X$664 31 391 367 404 417 58 58 31 sky130_fd_sc_hd__ha_1
* cell instance $665 m0 *1 11.96,51.68
X$665 58 367 405 387 31 58 374 31 sky130_fd_sc_hd__a21oi_1
* cell instance $666 m0 *1 13.8,51.68
X$666 58 374 366 341 31 58 375 31 sky130_fd_sc_hd__a21oi_1
* cell instance $667 m0 *1 15.64,51.68
X$667 58 367 328 340 31 58 31 sky130_fd_sc_hd__nor2_1
* cell instance $669 m0 *1 18.86,51.68