
* cell leading_zero_counter
* pin data_in[25]
* pin data_in[24]
* pin data_in[27]
* pin data_in[26]
* pin data_in[28]
* pin data_in[29]
* pin data_in[30]
* pin data_in[31]
* pin valid_input
* pin zero_count[5]
* pin PWELL
* pin NWELL
* pin data_in[20]
* pin data_in[22]
* pin zero_count[4]
* pin data_in[23]
* pin data_in[21]
* pin zero_count[3]
* pin data_in[18]
* pin data_in[19]
* pin zero_count[2]
* pin data_in[1]
* pin data_in[17]
* pin data_in[0]
* pin data_in[16]
* pin data_in[3]
* pin data_in[4]
* pin data_in[2]
* pin data_in[13]
* pin data_in[6]
* pin zero_count[1]
* pin zero_count[0]
* pin data_in[9]
* pin data_in[14]
* pin data_in[15]
* pin data_in[7]
* pin data_in[8]
* pin data_in[5]
* pin data_in[12]
* pin data_in[10]
* pin data_in[11]
.SUBCKT leading_zero_counter 1 2 3 4 5 6 7 8 9 10 15 23 37 38 42 44 46 49 58 59
+ 64 65 68 76 82 87 92 93 129 133 136 137 138 139 140 141 142 143 144 145 146
* net 1 data_in[25]
* net 2 data_in[24]
* net 3 data_in[27]
* net 4 data_in[26]
* net 5 data_in[28]
* net 6 data_in[29]
* net 7 data_in[30]
* net 8 data_in[31]
* net 9 valid_input
* net 10 zero_count[5]
* net 15 PWELL
* net 23 NWELL
* net 37 data_in[20]
* net 38 data_in[22]
* net 42 zero_count[4]
* net 44 data_in[23]
* net 46 data_in[21]
* net 49 zero_count[3]
* net 58 data_in[18]
* net 59 data_in[19]
* net 64 zero_count[2]
* net 65 data_in[1]
* net 68 data_in[17]
* net 76 data_in[0]
* net 82 data_in[16]
* net 87 data_in[3]
* net 92 data_in[4]
* net 93 data_in[2]
* net 129 data_in[13]
* net 133 data_in[6]
* net 136 zero_count[1]
* net 137 zero_count[0]
* net 138 data_in[9]
* net 139 data_in[14]
* net 140 data_in[15]
* net 141 data_in[7]
* net 142 data_in[8]
* net 143 data_in[5]
* net 144 data_in[12]
* net 145 data_in[10]
* net 146 data_in[11]
* cell instance $6 r0 *1 16.91,1.4
X$6 1 15 23 11 BUF_X1
* cell instance $12 r0 *1 17.48,1.4
X$12 2 15 23 17 BUF_X1
* cell instance $18 r0 *1 18.05,1.4
X$18 3 15 23 16 BUF_X1
* cell instance $20 r0 *1 19.19,1.4
X$20 4 15 23 12 BUF_X1
* cell instance $30 r0 *1 20.71,1.4
X$30 5 15 23 13 BUF_X1
* cell instance $36 r0 *1 21.28,1.4
X$36 6 15 23 19 BUF_X1
* cell instance $42 r0 *1 21.85,1.4
X$42 7 15 23 22 BUF_X1
* cell instance $48 r0 *1 22.42,1.4
X$48 8 15 23 20 BUF_X1
* cell instance $50 r0 *1 23.56,1.4
X$50 14 15 23 9 BUF_X1
* cell instance $56 r0 *1 22.99,1.4
X$56 32 15 23 10 BUF_X1
* cell instance $62 r0 *1 17.48,12.6
X$62 17 11 15 23 33 NOR2_X1
* cell instance $64 r0 *1 17.29,4.2
X$64 16 17 11 12 23 29 15 NOR4_X2
* cell instance $66 m0 *1 17.86,4.2
X$66 16 18 11 21 30 51 23 15 AOI221_X2
* cell instance $71 r0 *1 18.62,1.4
X$71 12 15 23 18 INV_X1
* cell instance $73 m0 *1 19.95,4.2
X$73 13 12 15 23 21 NOR2_X1
* cell instance $75 r0 *1 19.76,1.4
X$75 12 16 15 23 24 NOR2_X1
* cell instance $79 m0 *1 20.52,4.2
X$79 19 13 24 23 25 15 OAI21_X1
* cell instance $82 m0 *1 22.42,4.2
X$82 22 20 13 19 15 23 31 NOR4_X1
* cell instance $90 m0 *1 23.18,7
X$90 31 29 27 28 15 23 14 NAND4_X1
* cell instance $94 m0 *1 2.28,23.8
X$94 68 15 23 60 BUF_X1
* cell instance $98 m0 *1 5.32,23.8
X$98 58 15 23 83 BUF_X1
* cell instance $100 m0 *1 6.08,23.8
X$100 59 15 23 66 BUF_X1
* cell instance $110 r0 *1 8.17,23.8
X$110 82 15 23 70 BUF_X1
* cell instance $116 r0 *1 14.63,23.8
X$116 96 60 66 15 23 69 OR3_X1
* cell instance $117 m0 *1 14.82,23.8
X$117 61 83 66 15 23 79 NOR3_X1
* cell instance $121 m0 *1 17.86,23.8
X$121 71 35 79 15 81 23 AOI21_X1
* cell instance $124 m0 *1 20.33,23.8
X$124 54 80 15 23 67 NAND2_X1
* cell instance $128 r0 *1 15.58,23.8
X$128 83 66 70 60 15 23 62 NOR4_X1
* cell instance $129 r0 *1 16.53,23.8
X$129 60 15 23 94 INV_X1
* cell instance $130 r0 *1 16.91,23.8
X$130 70 94 83 15 111 23 AOI21_X1
* cell instance $131 r0 *1 17.67,23.8
X$131 70 15 23 84 INV_X1
* cell instance $132 r0 *1 18.05,23.8
X$132 110 84 94 15 23 71 NAND3_X1
* cell instance $135 m0 *1 23.56,23.8
X$135 80 72 15 23 63 NAND2_X1
* cell instance $137 m0 *1 25.08,23.8
X$137 85 72 67 15 78 23 AOI21_X1
* cell instance $138 m0 *1 25.84,23.8
X$138 73 75 74 78 15 23 77 OR4_X1
* cell instance $143 r0 *1 25.65,23.8
X$143 75 73 15 23 98 NOR2_X1
* cell instance $144 r0 *1 26.22,23.8
X$144 86 90 15 23 74 OR2_X1
* cell instance $145 r0 *1 26.98,23.8
X$145 73 95 86 15 91 23 AOI21_X1
* cell instance $146 r0 *1 27.74,23.8
X$146 90 15 23 95 INV_X1
* cell instance $149 m0 *1 34.2,23.8
X$149 65 15 23 73 BUF_X1
* cell instance $153 r0 *1 35.15,23.8
X$153 87 15 23 86 BUF_X1
* cell instance $155 m0 *1 36.1,23.8
X$155 77 15 23 64 BUF_X1
* cell instance $159 m0 *1 37.62,23.8
X$159 76 15 23 75 BUF_X1
* cell instance $163 r0 *1 35.91,23.8
X$163 92 15 23 102 BUF_X1
* cell instance $171 m0 *1 20.52,40.6
X$171 105 15 23 137 BUF_X1
* cell instance $172 m0 *1 21.85,40.6
X$172 145 15 23 123 BUF_X1
* cell instance $173 m0 *1 22.42,40.6
X$173 146 15 23 130 BUF_X1
* cell instance $175 m0 *1 23.18,40.6
X$175 114 15 23 136 BUF_X1
* cell instance $178 m0 *1 17.86,40.6
X$178 140 15 23 96 BUF_X1
* cell instance $181 m0 *1 18.62,40.6
X$181 139 15 23 125 BUF_X1
* cell instance $183 m0 *1 25.08,40.6
X$183 138 15 23 127 BUF_X1
* cell instance $186 m0 *1 26.22,40.6
X$186 143 15 23 100 BUF_X1
* cell instance $188 m0 *1 26.79,40.6
X$188 142 15 23 131 BUF_X1
* cell instance $190 m0 *1 27.55,40.6
X$190 141 15 23 108 BUF_X1
* cell instance $202 m0 *1 19.57,40.6
X$202 144 15 23 121 BUF_X1
* cell instance $215 r0 *1 5.51,18.2
X$215 44 15 23 48 BUF_X1
* cell instance $218 m0 *1 7.22,18.2
X$218 38 15 23 40 BUF_X1
* cell instance $221 r0 *1 7.03,18.2
X$221 46 15 23 47 BUF_X1
* cell instance $224 m0 *1 8.17,18.2
X$224 37 15 23 34 BUF_X1
* cell instance $227 r0 *1 14.44,18.2
X$227 40 48 15 23 45 NOR2_X1
* cell instance $229 r0 *1 15.2,18.2
X$229 41 48 69 52 47 50 23 15 AOI221_X2
* cell instance $230 m0 *1 15.39,18.2
X$230 40 34 15 23 41 NOR2_X1
* cell instance $234 m0 *1 16.34,18.2
X$234 34 15 23 52 INV_X1
* cell instance $236 m0 *1 17.29,18.2
X$236 34 40 17 15 23 43 OR3_X1
* cell instance $240 m0 *1 33.44,18.2
X$240 39 15 23 42 BUF_X1
* cell instance $244 r0 *1 17.29,18.2
X$244 47 34 48 40 15 23 53 OR4_X1
* cell instance $247 r0 *1 19,18.2
X$247 51 43 50 23 88 15 OAI21_X1
* cell instance $251 r0 *1 34.96,18.2
X$251 57 15 23 49 BUF_X1
* cell instance $275 r0 *1 19,37.8
X$275 129 15 23 122 BUF_X1
* cell instance $282 r0 *1 26.98,37.8
X$282 133 15 23 117 CLKBUF_X2
* cell instance $372 m0 *1 18.81,29.4
X$372 96 125 110 23 119 15 OAI21_X1
* cell instance $382 r0 *1 18.62,29.4
X$382 121 122 15 23 110 NOR2_X1
* cell instance $383 r0 *1 19.19,29.4
X$383 96 121 122 125 23 80 15 NOR4_X2
* cell instance $384 r0 *1 20.9,29.4
X$384 125 121 123 15 23 112 NOR3_X1
* cell instance $388 m0 *1 23.18,29.4
X$388 119 106 124 126 15 23 97 NAND4_X1
* cell instance $390 m0 *1 24.13,29.4
X$390 103 120 23 15 107 AND2_X1
* cell instance $393 r0 *1 22.99,29.4
X$393 123 15 23 124 INV_X1
* cell instance $395 m0 *1 26.79,29.4
X$395 108 15 23 116 INV_X1
* cell instance $396 m0 *1 26.03,29.4
X$396 103 118 116 15 23 85 NAND3_X1
* cell instance $397 m0 *1 27.17,29.4
X$397 117 15 23 118 INV_X1
* cell instance $403 r0 *1 26.79,29.4
X$403 117 116 131 15 101 23 AOI21_X1
* cell instance $434 m0 *1 19.38,26.6
X$434 96 111 112 23 104 15 OAI21_X1
* cell instance $438 m0 *1 21.28,26.6
X$438 104 99 15 23 113 NOR2_X1
* cell instance $439 m0 *1 20.52,26.6
X$439 89 88 113 15 105 23 AOI21_X1
* cell instance $442 m0 *1 23.56,26.6
X$442 97 81 98 74 107 23 15 114 OAI221_X1
* cell instance $443 m0 *1 24.7,26.6
X$443 115 99 75 91 23 15 89 OAI22_X1
* cell instance $448 r0 *1 23.94,26.6
X$448 103 98 106 15 23 56 NAND3_X1
* cell instance $451 r0 *1 25.84,26.6
X$451 108 90 86 117 23 106 15 NOR4_X2
* cell instance $453 m0 *1 26.03,26.6
X$453 102 100 15 23 103 NOR2_X1
* cell instance $454 m0 *1 26.79,26.6
X$454 100 101 109 23 99 15 OAI21_X1
* cell instance $455 m0 *1 27.55,26.6
X$455 102 90 75 15 23 109 NOR3_X1
* cell instance $460 m0 *1 36.86,26.6
X$460 93 15 23 90 BUF_X1
* cell instance $477 m0 *1 20.14,32.2
X$477 122 15 23 132 INV_X1
* cell instance $482 m0 *1 22.42,32.2
X$482 121 132 126 23 134 15 OAI21_X1
* cell instance $484 r0 *1 22.99,32.2
X$484 130 15 23 126 INV_X1
* cell instance $487 m0 *1 23.56,32.2
X$487 128 124 134 15 115 23 AOI21_X1
* cell instance $488 r0 *1 23.56,32.2
X$488 130 131 127 123 23 72 15 NOR4_X2
* cell instance $489 m0 *1 24.89,32.2
X$489 127 131 135 23 120 15 OAI21_X1
* cell instance $491 m0 *1 25.65,32.2
X$491 100 108 127 15 23 128 OR3_X1
* cell instance $492 m0 *1 26.6,32.2
X$492 117 108 15 23 135 NOR2_X1
* cell instance $520 m0 *1 21.28,4.2
X$520 22 26 15 23 30 NAND2_X1
* cell instance $521 m0 *1 21.85,4.2
X$521 19 15 23 26 INV_X1
* cell instance $543 m0 *1 22.04,7
X$543 28 27 29 31 23 15 32 AND4_X1
* cell instance $567 m0 *1 17.48,15.4
X$567 25 33 36 15 23 35 NAND3_X1
* cell instance $583 r0 *1 24.13,15.4
X$583 39 15 23 28 INV_X1
* cell instance $597 m0 *1 14.44,21
X$597 45 34 47 15 23 61 NOR3_X1
* cell instance $608 m0 *1 17.1,21
X$608 34 47 15 23 36 NOR2_X1
* cell instance $610 m0 *1 18.05,21
X$610 62 36 45 23 15 27 AND3_X1
* cell instance $612 m0 *1 19.38,21
X$612 29 53 62 23 54 15 OAI21_X1
* cell instance $614 m0 *1 23.37,21
X$614 63 27 55 23 57 15 OAI21_X1
* cell instance $615 m0 *1 24.13,21
X$615 63 56 15 23 39 OR2_X1
* cell instance $616 m0 *1 24.89,21
X$616 56 15 23 55 INV_X1
.ENDS leading_zero_counter

* cell AND4_X1
* pin A1
* pin A2
* pin A3
* pin A4
* pin NWELL,VDD
* pin PWELL,VSS
* pin ZN
.SUBCKT AND4_X1 1 2 3 4 6 7 8
* net 1 A1
* net 2 A2
* net 3 A3
* net 4 A4
* net 6 NWELL,VDD
* net 7 PWELL,VSS
* net 8 ZN
* device instance $1 r0 *1 0.17,1.1525 PMOS_VTL
M$1 5 1 6 6 PMOS_VTL L=0.05U W=0.315U AS=0.033075P AD=0.02205P PS=0.84U
+ PD=0.455U
* device instance $2 r0 *1 0.36,1.1525 PMOS_VTL
M$2 6 2 5 6 PMOS_VTL L=0.05U W=0.315U AS=0.02205P AD=0.02205P PS=0.455U
+ PD=0.455U
* device instance $3 r0 *1 0.55,1.1525 PMOS_VTL
M$3 5 3 6 6 PMOS_VTL L=0.05U W=0.315U AS=0.02205P AD=0.02205P PS=0.455U
+ PD=0.455U
* device instance $4 r0 *1 0.74,1.1525 PMOS_VTL
M$4 5 4 6 6 PMOS_VTL L=0.05U W=0.315U AS=0.033075P AD=0.02205P PS=0.77U
+ PD=0.455U
* device instance $5 r0 *1 0.93,0.995 PMOS_VTL
M$5 8 5 6 6 PMOS_VTL L=0.05U W=0.63U AS=0.033075P AD=0.06615P PS=0.77U PD=1.47U
* device instance $6 r0 *1 0.17,0.195 NMOS_VTL
M$6 10 1 5 7 NMOS_VTL L=0.05U W=0.21U AS=0.02205P AD=0.0147P PS=0.63U PD=0.35U
* device instance $7 r0 *1 0.36,0.195 NMOS_VTL
M$7 11 2 10 7 NMOS_VTL L=0.05U W=0.21U AS=0.0147P AD=0.0147P PS=0.35U PD=0.35U
* device instance $8 r0 *1 0.55,0.195 NMOS_VTL
M$8 9 3 11 7 NMOS_VTL L=0.05U W=0.21U AS=0.0147P AD=0.0147P PS=0.35U PD=0.35U
* device instance $9 r0 *1 0.74,0.195 NMOS_VTL
M$9 7 4 9 7 NMOS_VTL L=0.05U W=0.21U AS=0.0147P AD=0.021875P PS=0.35U PD=0.555U
* device instance $10 r0 *1 0.93,0.2975 NMOS_VTL
M$10 8 5 7 7 NMOS_VTL L=0.05U W=0.415U AS=0.021875P AD=0.043575P PS=0.555U
+ PD=1.04U
.ENDS AND4_X1

* cell AOI221_X2
* pin B1
* pin B2
* pin A
* pin C2
* pin C1
* pin ZN
* pin NWELL,VDD
* pin PWELL,VSS
.SUBCKT AOI221_X2 1 2 3 4 5 6 8 9
* net 1 B1
* net 2 B2
* net 3 A
* net 4 C2
* net 5 C1
* net 6 ZN
* net 8 NWELL,VDD
* net 9 PWELL,VSS
* device instance $1 r0 *1 0.17,0.995 PMOS_VTL
M$1 7 3 10 8 PMOS_VTL L=0.05U W=1.26U AS=0.11025P AD=0.09135P PS=2.24U PD=1.55U
* device instance $2 r0 *1 0.36,0.995 PMOS_VTL
M$2 8 1 7 8 PMOS_VTL L=0.05U W=1.26U AS=0.0882P AD=0.0882P PS=1.54U PD=1.54U
* device instance $3 r0 *1 0.55,0.995 PMOS_VTL
M$3 7 2 8 8 PMOS_VTL L=0.05U W=1.26U AS=0.0882P AD=0.0882P PS=1.54U PD=1.54U
* device instance $7 r0 *1 1.32,0.995 PMOS_VTL
M$7 6 4 10 8 PMOS_VTL L=0.05U W=1.26U AS=0.09135P AD=0.11025P PS=1.55U PD=2.24U
* device instance $8 r0 *1 1.51,0.995 PMOS_VTL
M$8 10 5 6 8 PMOS_VTL L=0.05U W=1.26U AS=0.0882P AD=0.0882P PS=1.54U PD=1.54U
* device instance $11 r0 *1 0.17,0.2975 NMOS_VTL
M$11 6 3 9 9 NMOS_VTL L=0.05U W=0.83U AS=0.072625P AD=0.060175P PS=1.595U
+ PD=1.12U
* device instance $12 r0 *1 0.36,0.2975 NMOS_VTL
M$12 14 1 6 9 NMOS_VTL L=0.05U W=0.415U AS=0.02905P AD=0.02905P PS=0.555U
+ PD=0.555U
* device instance $13 r0 *1 0.55,0.2975 NMOS_VTL
M$13 9 2 14 9 NMOS_VTL L=0.05U W=0.415U AS=0.02905P AD=0.02905P PS=0.555U
+ PD=0.555U
* device instance $14 r0 *1 0.74,0.2975 NMOS_VTL
M$14 13 2 9 9 NMOS_VTL L=0.05U W=0.415U AS=0.02905P AD=0.02905P PS=0.555U
+ PD=0.555U
* device instance $15 r0 *1 0.93,0.2975 NMOS_VTL
M$15 6 1 13 9 NMOS_VTL L=0.05U W=0.415U AS=0.02905P AD=0.02905P PS=0.555U
+ PD=0.555U
* device instance $17 r0 *1 1.32,0.2975 NMOS_VTL
M$17 12 4 9 9 NMOS_VTL L=0.05U W=0.415U AS=0.031125P AD=0.02905P PS=0.565U
+ PD=0.555U
* device instance $18 r0 *1 1.51,0.2975 NMOS_VTL
M$18 6 5 12 9 NMOS_VTL L=0.05U W=0.415U AS=0.02905P AD=0.02905P PS=0.555U
+ PD=0.555U
* device instance $19 r0 *1 1.7,0.2975 NMOS_VTL
M$19 11 5 6 9 NMOS_VTL L=0.05U W=0.415U AS=0.02905P AD=0.02905P PS=0.555U
+ PD=0.555U
* device instance $20 r0 *1 1.89,0.2975 NMOS_VTL
M$20 9 4 11 9 NMOS_VTL L=0.05U W=0.415U AS=0.02905P AD=0.043575P PS=0.555U
+ PD=1.04U
.ENDS AOI221_X2

* cell NOR4_X1
* pin A4
* pin A3
* pin A2
* pin A1
* pin PWELL,VSS
* pin NWELL,VDD
* pin ZN
.SUBCKT NOR4_X1 1 2 3 4 5 6 7
* net 1 A4
* net 2 A3
* net 3 A2
* net 4 A1
* net 5 PWELL,VSS
* net 6 NWELL,VDD
* net 7 ZN
* device instance $1 r0 *1 0.17,0.995 PMOS_VTL
M$1 10 1 6 6 PMOS_VTL L=0.05U W=0.63U AS=0.06615P AD=0.0441P PS=1.47U PD=0.77U
* device instance $2 r0 *1 0.36,0.995 PMOS_VTL
M$2 9 2 10 6 PMOS_VTL L=0.05U W=0.63U AS=0.0441P AD=0.0441P PS=0.77U PD=0.77U
* device instance $3 r0 *1 0.55,0.995 PMOS_VTL
M$3 8 3 9 6 PMOS_VTL L=0.05U W=0.63U AS=0.0441P AD=0.0441P PS=0.77U PD=0.77U
* device instance $4 r0 *1 0.74,0.995 PMOS_VTL
M$4 7 4 8 6 PMOS_VTL L=0.05U W=0.63U AS=0.0441P AD=0.06615P PS=0.77U PD=1.47U
* device instance $5 r0 *1 0.17,0.2975 NMOS_VTL
M$5 7 1 5 5 NMOS_VTL L=0.05U W=0.415U AS=0.043575P AD=0.02905P PS=1.04U
+ PD=0.555U
* device instance $6 r0 *1 0.36,0.2975 NMOS_VTL
M$6 5 2 7 5 NMOS_VTL L=0.05U W=0.415U AS=0.02905P AD=0.02905P PS=0.555U
+ PD=0.555U
* device instance $7 r0 *1 0.55,0.2975 NMOS_VTL
M$7 7 3 5 5 NMOS_VTL L=0.05U W=0.415U AS=0.02905P AD=0.02905P PS=0.555U
+ PD=0.555U
* device instance $8 r0 *1 0.74,0.2975 NMOS_VTL
M$8 5 4 7 5 NMOS_VTL L=0.05U W=0.415U AS=0.02905P AD=0.043575P PS=0.555U
+ PD=1.04U
.ENDS NOR4_X1

* cell OR4_X1
* pin A1
* pin A2
* pin A3
* pin A4
* pin PWELL,VSS
* pin NWELL,VDD
* pin ZN
.SUBCKT OR4_X1 1 2 3 4 5 7 8
* net 1 A1
* net 2 A2
* net 3 A3
* net 4 A4
* net 5 PWELL,VSS
* net 7 NWELL,VDD
* net 8 ZN
* device instance $1 r0 *1 0.17,1.1525 PMOS_VTL
M$1 10 1 6 7 PMOS_VTL L=0.05U W=0.315U AS=0.033075P AD=0.02205P PS=0.84U
+ PD=0.455U
* device instance $2 r0 *1 0.36,1.1525 PMOS_VTL
M$2 9 2 10 7 PMOS_VTL L=0.05U W=0.315U AS=0.02205P AD=0.02205P PS=0.455U
+ PD=0.455U
* device instance $3 r0 *1 0.55,1.1525 PMOS_VTL
M$3 11 3 9 7 PMOS_VTL L=0.05U W=0.315U AS=0.02205P AD=0.02205P PS=0.455U
+ PD=0.455U
* device instance $4 r0 *1 0.74,1.1525 PMOS_VTL
M$4 11 4 7 7 PMOS_VTL L=0.05U W=0.315U AS=0.033075P AD=0.02205P PS=0.77U
+ PD=0.455U
* device instance $5 r0 *1 0.93,0.995 PMOS_VTL
M$5 8 6 7 7 PMOS_VTL L=0.05U W=0.63U AS=0.033075P AD=0.06615P PS=0.77U PD=1.47U
* device instance $6 r0 *1 0.17,0.195 NMOS_VTL
M$6 6 1 5 5 NMOS_VTL L=0.05U W=0.21U AS=0.02205P AD=0.0147P PS=0.63U PD=0.35U
* device instance $7 r0 *1 0.36,0.195 NMOS_VTL
M$7 5 2 6 5 NMOS_VTL L=0.05U W=0.21U AS=0.0147P AD=0.0147P PS=0.35U PD=0.35U
* device instance $8 r0 *1 0.55,0.195 NMOS_VTL
M$8 6 3 5 5 NMOS_VTL L=0.05U W=0.21U AS=0.0147P AD=0.0147P PS=0.35U PD=0.35U
* device instance $9 r0 *1 0.74,0.195 NMOS_VTL
M$9 5 4 6 5 NMOS_VTL L=0.05U W=0.21U AS=0.0147P AD=0.021875P PS=0.35U PD=0.555U
* device instance $10 r0 *1 0.93,0.2975 NMOS_VTL
M$10 8 6 5 5 NMOS_VTL L=0.05U W=0.415U AS=0.021875P AD=0.043575P PS=0.555U
+ PD=1.04U
.ENDS OR4_X1

* cell OAI221_X1
* pin B2
* pin B1
* pin A
* pin C2
* pin C1
* pin NWELL,VDD
* pin PWELL,VSS
* pin ZN
.SUBCKT OAI221_X1 1 2 3 4 5 7 8 9
* net 1 B2
* net 2 B1
* net 3 A
* net 4 C2
* net 5 C1
* net 7 NWELL,VDD
* net 8 PWELL,VSS
* net 9 ZN
* device instance $1 r0 *1 0.17,0.995 PMOS_VTL
M$1 12 1 7 7 PMOS_VTL L=0.05U W=0.63U AS=0.06615P AD=0.0441P PS=1.47U PD=0.77U
* device instance $2 r0 *1 0.36,0.995 PMOS_VTL
M$2 9 2 12 7 PMOS_VTL L=0.05U W=0.63U AS=0.0441P AD=0.0441P PS=0.77U PD=0.77U
* device instance $3 r0 *1 0.55,0.995 PMOS_VTL
M$3 7 3 9 7 PMOS_VTL L=0.05U W=0.63U AS=0.0441P AD=0.0441P PS=0.77U PD=0.77U
* device instance $4 r0 *1 0.74,0.995 PMOS_VTL
M$4 11 4 7 7 PMOS_VTL L=0.05U W=0.63U AS=0.0441P AD=0.0441P PS=0.77U PD=0.77U
* device instance $5 r0 *1 0.93,0.995 PMOS_VTL
M$5 9 5 11 7 PMOS_VTL L=0.05U W=0.63U AS=0.0441P AD=0.06615P PS=0.77U PD=1.47U
* device instance $6 r0 *1 0.17,0.2975 NMOS_VTL
M$6 8 1 6 8 NMOS_VTL L=0.05U W=0.415U AS=0.043575P AD=0.02905P PS=1.04U
+ PD=0.555U
* device instance $7 r0 *1 0.36,0.2975 NMOS_VTL
M$7 6 2 8 8 NMOS_VTL L=0.05U W=0.415U AS=0.02905P AD=0.02905P PS=0.555U
+ PD=0.555U
* device instance $8 r0 *1 0.55,0.2975 NMOS_VTL
M$8 10 3 6 8 NMOS_VTL L=0.05U W=0.415U AS=0.02905P AD=0.02905P PS=0.555U
+ PD=0.555U
* device instance $9 r0 *1 0.74,0.2975 NMOS_VTL
M$9 9 4 10 8 NMOS_VTL L=0.05U W=0.415U AS=0.02905P AD=0.02905P PS=0.555U
+ PD=0.555U
* device instance $10 r0 *1 0.93,0.2975 NMOS_VTL
M$10 10 5 9 8 NMOS_VTL L=0.05U W=0.415U AS=0.02905P AD=0.043575P PS=0.555U
+ PD=1.04U
.ENDS OAI221_X1

* cell AND2_X1
* pin A1
* pin A2
* pin NWELL,VDD
* pin PWELL,VSS
* pin ZN
.SUBCKT AND2_X1 1 2 4 5 6
* net 1 A1
* net 2 A2
* net 4 NWELL,VDD
* net 5 PWELL,VSS
* net 6 ZN
* device instance $1 r0 *1 0.17,1.1525 PMOS_VTL
M$1 3 1 4 4 PMOS_VTL L=0.05U W=0.315U AS=0.033075P AD=0.02205P PS=0.84U
+ PD=0.455U
* device instance $2 r0 *1 0.36,1.1525 PMOS_VTL
M$2 3 2 4 4 PMOS_VTL L=0.05U W=0.315U AS=0.033075P AD=0.02205P PS=0.77U
+ PD=0.455U
* device instance $3 r0 *1 0.55,0.995 PMOS_VTL
M$3 6 3 4 4 PMOS_VTL L=0.05U W=0.63U AS=0.033075P AD=0.06615P PS=0.77U PD=1.47U
* device instance $4 r0 *1 0.17,0.195 NMOS_VTL
M$4 7 1 3 5 NMOS_VTL L=0.05U W=0.21U AS=0.02205P AD=0.0147P PS=0.63U PD=0.35U
* device instance $5 r0 *1 0.36,0.195 NMOS_VTL
M$5 5 2 7 5 NMOS_VTL L=0.05U W=0.21U AS=0.0147P AD=0.021875P PS=0.35U PD=0.555U
* device instance $6 r0 *1 0.55,0.2975 NMOS_VTL
M$6 6 3 5 5 NMOS_VTL L=0.05U W=0.415U AS=0.021875P AD=0.043575P PS=0.555U
+ PD=1.04U
.ENDS AND2_X1

* cell OAI22_X1
* pin B2
* pin B1
* pin A1
* pin A2
* pin NWELL,VDD
* pin PWELL,VSS
* pin ZN
.SUBCKT OAI22_X1 1 2 3 4 6 7 8
* net 1 B2
* net 2 B1
* net 3 A1
* net 4 A2
* net 6 NWELL,VDD
* net 7 PWELL,VSS
* net 8 ZN
* device instance $1 r0 *1 0.185,0.995 PMOS_VTL
M$1 10 1 6 6 PMOS_VTL L=0.05U W=0.63U AS=0.06615P AD=0.0441P PS=1.47U PD=0.77U
* device instance $2 r0 *1 0.375,0.995 PMOS_VTL
M$2 8 2 10 6 PMOS_VTL L=0.05U W=0.63U AS=0.0441P AD=0.0441P PS=0.77U PD=0.77U
* device instance $3 r0 *1 0.565,0.995 PMOS_VTL
M$3 9 3 8 6 PMOS_VTL L=0.05U W=0.63U AS=0.0441P AD=0.0441P PS=0.77U PD=0.77U
* device instance $4 r0 *1 0.755,0.995 PMOS_VTL
M$4 6 4 9 6 PMOS_VTL L=0.05U W=0.63U AS=0.0441P AD=0.06615P PS=0.77U PD=1.47U
* device instance $5 r0 *1 0.185,0.2975 NMOS_VTL
M$5 7 1 5 7 NMOS_VTL L=0.05U W=0.415U AS=0.043575P AD=0.02905P PS=1.04U
+ PD=0.555U
* device instance $6 r0 *1 0.375,0.2975 NMOS_VTL
M$6 5 2 7 7 NMOS_VTL L=0.05U W=0.415U AS=0.02905P AD=0.02905P PS=0.555U
+ PD=0.555U
* device instance $7 r0 *1 0.565,0.2975 NMOS_VTL
M$7 8 3 5 7 NMOS_VTL L=0.05U W=0.415U AS=0.02905P AD=0.02905P PS=0.555U
+ PD=0.555U
* device instance $8 r0 *1 0.755,0.2975 NMOS_VTL
M$8 5 4 8 7 NMOS_VTL L=0.05U W=0.415U AS=0.02905P AD=0.043575P PS=0.555U
+ PD=1.04U
.ENDS OAI22_X1

* cell NAND2_X1
* pin A2
* pin A1
* pin PWELL,VSS
* pin NWELL,VDD
* pin ZN
.SUBCKT NAND2_X1 1 2 3 4 5
* net 1 A2
* net 2 A1
* net 3 PWELL,VSS
* net 4 NWELL,VDD
* net 5 ZN
* device instance $1 r0 *1 0.185,0.995 PMOS_VTL
M$1 5 1 4 4 PMOS_VTL L=0.05U W=0.63U AS=0.06615P AD=0.0441P PS=1.47U PD=0.77U
* device instance $2 r0 *1 0.375,0.995 PMOS_VTL
M$2 4 2 5 4 PMOS_VTL L=0.05U W=0.63U AS=0.0441P AD=0.06615P PS=0.77U PD=1.47U
* device instance $3 r0 *1 0.185,0.2975 NMOS_VTL
M$3 6 1 3 3 NMOS_VTL L=0.05U W=0.415U AS=0.043575P AD=0.02905P PS=1.04U
+ PD=0.555U
* device instance $4 r0 *1 0.375,0.2975 NMOS_VTL
M$4 5 2 6 3 NMOS_VTL L=0.05U W=0.415U AS=0.02905P AD=0.043575P PS=0.555U
+ PD=1.04U
.ENDS NAND2_X1

* cell NAND4_X1
* pin A4
* pin A3
* pin A2
* pin A1
* pin PWELL,VSS
* pin NWELL,VDD
* pin ZN
.SUBCKT NAND4_X1 1 2 3 4 5 6 7
* net 1 A4
* net 2 A3
* net 3 A2
* net 4 A1
* net 5 PWELL,VSS
* net 6 NWELL,VDD
* net 7 ZN
* device instance $1 r0 *1 0.17,0.995 PMOS_VTL
M$1 7 1 6 6 PMOS_VTL L=0.05U W=0.63U AS=0.06615P AD=0.0441P PS=1.47U PD=0.77U
* device instance $2 r0 *1 0.36,0.995 PMOS_VTL
M$2 6 2 7 6 PMOS_VTL L=0.05U W=0.63U AS=0.0441P AD=0.0441P PS=0.77U PD=0.77U
* device instance $3 r0 *1 0.55,0.995 PMOS_VTL
M$3 7 3 6 6 PMOS_VTL L=0.05U W=0.63U AS=0.0441P AD=0.0441P PS=0.77U PD=0.77U
* device instance $4 r0 *1 0.74,0.995 PMOS_VTL
M$4 6 4 7 6 PMOS_VTL L=0.05U W=0.63U AS=0.0441P AD=0.06615P PS=0.77U PD=1.47U
* device instance $5 r0 *1 0.17,0.2975 NMOS_VTL
M$5 10 1 5 5 NMOS_VTL L=0.05U W=0.415U AS=0.043575P AD=0.02905P PS=1.04U
+ PD=0.555U
* device instance $6 r0 *1 0.36,0.2975 NMOS_VTL
M$6 9 2 10 5 NMOS_VTL L=0.05U W=0.415U AS=0.02905P AD=0.02905P PS=0.555U
+ PD=0.555U
* device instance $7 r0 *1 0.55,0.2975 NMOS_VTL
M$7 8 3 9 5 NMOS_VTL L=0.05U W=0.415U AS=0.02905P AD=0.02905P PS=0.555U
+ PD=0.555U
* device instance $8 r0 *1 0.74,0.2975 NMOS_VTL
M$8 7 4 8 5 NMOS_VTL L=0.05U W=0.415U AS=0.02905P AD=0.043575P PS=0.555U
+ PD=1.04U
.ENDS NAND4_X1

* cell NAND3_X1
* pin A3
* pin A2
* pin A1
* pin PWELL,VSS
* pin NWELL,VDD
* pin ZN
.SUBCKT NAND3_X1 1 2 3 4 5 6
* net 1 A3
* net 2 A2
* net 3 A1
* net 4 PWELL,VSS
* net 5 NWELL,VDD
* net 6 ZN
* device instance $1 r0 *1 0.17,0.995 PMOS_VTL
M$1 6 1 5 5 PMOS_VTL L=0.05U W=0.63U AS=0.06615P AD=0.0441P PS=1.47U PD=0.77U
* device instance $2 r0 *1 0.36,0.995 PMOS_VTL
M$2 5 2 6 5 PMOS_VTL L=0.05U W=0.63U AS=0.0441P AD=0.0441P PS=0.77U PD=0.77U
* device instance $3 r0 *1 0.55,0.995 PMOS_VTL
M$3 6 3 5 5 PMOS_VTL L=0.05U W=0.63U AS=0.0441P AD=0.06615P PS=0.77U PD=1.47U
* device instance $4 r0 *1 0.17,0.2975 NMOS_VTL
M$4 8 1 4 4 NMOS_VTL L=0.05U W=0.415U AS=0.043575P AD=0.02905P PS=1.04U
+ PD=0.555U
* device instance $5 r0 *1 0.36,0.2975 NMOS_VTL
M$5 7 2 8 4 NMOS_VTL L=0.05U W=0.415U AS=0.02905P AD=0.02905P PS=0.555U
+ PD=0.555U
* device instance $6 r0 *1 0.55,0.2975 NMOS_VTL
M$6 6 3 7 4 NMOS_VTL L=0.05U W=0.415U AS=0.02905P AD=0.043575P PS=0.555U
+ PD=1.04U
.ENDS NAND3_X1

* cell CLKBUF_X2
* pin A
* pin PWELL,VSS
* pin NWELL,VDD
* pin Z
.SUBCKT CLKBUF_X2 1 3 4 5
* net 1 A
* net 3 PWELL,VSS
* net 4 NWELL,VDD
* net 5 Z
* device instance $1 r0 *1 0.17,0.995 PMOS_VTL
M$1 4 1 2 4 PMOS_VTL L=0.05U W=0.63U AS=0.06615P AD=0.0441P PS=1.47U PD=0.77U
* device instance $2 r0 *1 0.36,0.995 PMOS_VTL
M$2 5 2 4 4 PMOS_VTL L=0.05U W=1.26U AS=0.0882P AD=0.11025P PS=1.54U PD=2.24U
* device instance $4 r0 *1 0.17,0.1875 NMOS_VTL
M$4 3 1 2 3 NMOS_VTL L=0.05U W=0.195U AS=0.020475P AD=0.01365P PS=0.6U PD=0.335U
* device instance $5 r0 *1 0.36,0.1875 NMOS_VTL
M$5 5 2 3 3 NMOS_VTL L=0.05U W=0.39U AS=0.0273P AD=0.034125P PS=0.67U PD=0.935U
.ENDS CLKBUF_X2

* cell NOR4_X2
* pin A3
* pin A2
* pin A1
* pin A4
* pin NWELL,VDD
* pin ZN
* pin PWELL,VSS
.SUBCKT NOR4_X2 1 2 3 4 5 6 7
* net 1 A3
* net 2 A2
* net 3 A1
* net 4 A4
* net 5 NWELL,VDD
* net 6 ZN
* net 7 PWELL,VSS
* device instance $1 r0 *1 0.21,0.995 PMOS_VTL
M$1 12 4 5 5 PMOS_VTL L=0.05U W=0.63U AS=0.06615P AD=0.0441P PS=1.47U PD=0.77U
* device instance $2 r0 *1 0.4,0.995 PMOS_VTL
M$2 11 1 12 5 PMOS_VTL L=0.05U W=0.63U AS=0.0441P AD=0.0441P PS=0.77U PD=0.77U
* device instance $3 r0 *1 0.59,0.995 PMOS_VTL
M$3 10 2 11 5 PMOS_VTL L=0.05U W=0.63U AS=0.0441P AD=0.0441P PS=0.77U PD=0.77U
* device instance $4 r0 *1 0.78,0.995 PMOS_VTL
M$4 6 3 10 5 PMOS_VTL L=0.05U W=0.63U AS=0.0441P AD=0.0441P PS=0.77U PD=0.77U
* device instance $5 r0 *1 0.97,0.995 PMOS_VTL
M$5 9 3 6 5 PMOS_VTL L=0.05U W=0.63U AS=0.0441P AD=0.0441P PS=0.77U PD=0.77U
* device instance $6 r0 *1 1.16,0.995 PMOS_VTL
M$6 13 2 9 5 PMOS_VTL L=0.05U W=0.63U AS=0.0441P AD=0.0441P PS=0.77U PD=0.77U
* device instance $7 r0 *1 1.35,0.995 PMOS_VTL
M$7 8 1 13 5 PMOS_VTL L=0.05U W=0.63U AS=0.0441P AD=0.0441P PS=0.77U PD=0.77U
* device instance $8 r0 *1 1.54,0.995 PMOS_VTL
M$8 5 4 8 5 PMOS_VTL L=0.05U W=0.63U AS=0.0441P AD=0.06615P PS=0.77U PD=1.47U
* device instance $9 r0 *1 0.21,0.2975 NMOS_VTL
M$9 6 4 7 7 NMOS_VTL L=0.05U W=0.83U AS=0.072625P AD=0.072625P PS=1.595U
+ PD=1.595U
* device instance $10 r0 *1 0.4,0.2975 NMOS_VTL
M$10 7 1 6 7 NMOS_VTL L=0.05U W=0.83U AS=0.0581P AD=0.0581P PS=1.11U PD=1.11U
* device instance $11 r0 *1 0.59,0.2975 NMOS_VTL
M$11 6 2 7 7 NMOS_VTL L=0.05U W=0.83U AS=0.0581P AD=0.0581P PS=1.11U PD=1.11U
* device instance $12 r0 *1 0.78,0.2975 NMOS_VTL
M$12 7 3 6 7 NMOS_VTL L=0.05U W=0.83U AS=0.0581P AD=0.0581P PS=1.11U PD=1.11U
.ENDS NOR4_X2

* cell OR3_X1
* pin A1
* pin A2
* pin A3
* pin PWELL,VSS
* pin NWELL,VDD
* pin ZN
.SUBCKT OR3_X1 1 2 3 5 6 7
* net 1 A1
* net 2 A2
* net 3 A3
* net 5 PWELL,VSS
* net 6 NWELL,VDD
* net 7 ZN
* device instance $1 r0 *1 0.17,1.1525 PMOS_VTL
M$1 9 1 4 6 PMOS_VTL L=0.05U W=0.315U AS=0.033075P AD=0.02205P PS=0.84U
+ PD=0.455U
* device instance $2 r0 *1 0.36,1.1525 PMOS_VTL
M$2 8 2 9 6 PMOS_VTL L=0.05U W=0.315U AS=0.02205P AD=0.02205P PS=0.455U
+ PD=0.455U
* device instance $3 r0 *1 0.55,1.1525 PMOS_VTL
M$3 8 3 6 6 PMOS_VTL L=0.05U W=0.315U AS=0.033075P AD=0.02205P PS=0.77U
+ PD=0.455U
* device instance $4 r0 *1 0.74,0.995 PMOS_VTL
M$4 7 4 6 6 PMOS_VTL L=0.05U W=0.63U AS=0.033075P AD=0.06615P PS=0.77U PD=1.47U
* device instance $5 r0 *1 0.17,0.195 NMOS_VTL
M$5 5 1 4 5 NMOS_VTL L=0.05U W=0.21U AS=0.02205P AD=0.0147P PS=0.63U PD=0.35U
* device instance $6 r0 *1 0.36,0.195 NMOS_VTL
M$6 4 2 5 5 NMOS_VTL L=0.05U W=0.21U AS=0.0147P AD=0.0147P PS=0.35U PD=0.35U
* device instance $7 r0 *1 0.55,0.195 NMOS_VTL
M$7 5 3 4 5 NMOS_VTL L=0.05U W=0.21U AS=0.0147P AD=0.021875P PS=0.35U PD=0.555U
* device instance $8 r0 *1 0.74,0.2975 NMOS_VTL
M$8 7 4 5 5 NMOS_VTL L=0.05U W=0.415U AS=0.021875P AD=0.043575P PS=0.555U
+ PD=1.04U
.ENDS OR3_X1

* cell OAI21_X1
* pin B2
* pin B1
* pin A
* pin NWELL,VDD
* pin ZN
* pin PWELL,VSS
.SUBCKT OAI21_X1 1 2 3 5 6 7
* net 1 B2
* net 2 B1
* net 3 A
* net 5 NWELL,VDD
* net 6 ZN
* net 7 PWELL,VSS
* device instance $1 r0 *1 0.195,0.995 PMOS_VTL
M$1 8 1 5 5 PMOS_VTL L=0.05U W=0.63U AS=0.06615P AD=0.0441P PS=1.47U PD=0.77U
* device instance $2 r0 *1 0.385,0.995 PMOS_VTL
M$2 6 2 8 5 PMOS_VTL L=0.05U W=0.63U AS=0.0441P AD=0.0441P PS=0.77U PD=0.77U
* device instance $3 r0 *1 0.575,0.995 PMOS_VTL
M$3 5 3 6 5 PMOS_VTL L=0.05U W=0.63U AS=0.0441P AD=0.06615P PS=0.77U PD=1.47U
* device instance $4 r0 *1 0.195,0.2975 NMOS_VTL
M$4 6 1 4 7 NMOS_VTL L=0.05U W=0.415U AS=0.043575P AD=0.02905P PS=1.04U
+ PD=0.555U
* device instance $5 r0 *1 0.385,0.2975 NMOS_VTL
M$5 4 2 6 7 NMOS_VTL L=0.05U W=0.415U AS=0.02905P AD=0.02905P PS=0.555U
+ PD=0.555U
* device instance $6 r0 *1 0.575,0.2975 NMOS_VTL
M$6 7 3 4 7 NMOS_VTL L=0.05U W=0.415U AS=0.02905P AD=0.043575P PS=0.555U
+ PD=1.04U
.ENDS OAI21_X1

* cell NOR3_X1
* pin A3
* pin A2
* pin A1
* pin PWELL,VSS
* pin NWELL,VDD
* pin ZN
.SUBCKT NOR3_X1 1 2 3 4 5 6
* net 1 A3
* net 2 A2
* net 3 A1
* net 4 PWELL,VSS
* net 5 NWELL,VDD
* net 6 ZN
* device instance $1 r0 *1 0.17,0.995 PMOS_VTL
M$1 8 1 5 5 PMOS_VTL L=0.05U W=0.63U AS=0.06615P AD=0.0441P PS=1.47U PD=0.77U
* device instance $2 r0 *1 0.36,0.995 PMOS_VTL
M$2 7 2 8 5 PMOS_VTL L=0.05U W=0.63U AS=0.0441P AD=0.0441P PS=0.77U PD=0.77U
* device instance $3 r0 *1 0.55,0.995 PMOS_VTL
M$3 6 3 7 5 PMOS_VTL L=0.05U W=0.63U AS=0.0441P AD=0.06615P PS=0.77U PD=1.47U
* device instance $4 r0 *1 0.17,0.2975 NMOS_VTL
M$4 6 1 4 4 NMOS_VTL L=0.05U W=0.415U AS=0.043575P AD=0.02905P PS=1.04U
+ PD=0.555U
* device instance $5 r0 *1 0.36,0.2975 NMOS_VTL
M$5 4 2 6 4 NMOS_VTL L=0.05U W=0.415U AS=0.02905P AD=0.02905P PS=0.555U
+ PD=0.555U
* device instance $6 r0 *1 0.55,0.2975 NMOS_VTL
M$6 6 3 4 4 NMOS_VTL L=0.05U W=0.415U AS=0.02905P AD=0.043575P PS=0.555U
+ PD=1.04U
.ENDS NOR3_X1

* cell AOI21_X1
* pin A
* pin B2
* pin B1
* pin PWELL,VSS
* pin ZN
* pin NWELL,VDD
.SUBCKT AOI21_X1 1 2 3 4 6 7
* net 1 A
* net 2 B2
* net 3 B1
* net 4 PWELL,VSS
* net 6 ZN
* net 7 NWELL,VDD
* device instance $1 r0 *1 0.21,0.995 PMOS_VTL
M$1 6 2 5 7 PMOS_VTL L=0.05U W=0.63U AS=0.06615P AD=0.0441P PS=1.47U PD=0.77U
* device instance $2 r0 *1 0.4,0.995 PMOS_VTL
M$2 5 3 6 7 PMOS_VTL L=0.05U W=0.63U AS=0.0441P AD=0.0441P PS=0.77U PD=0.77U
* device instance $3 r0 *1 0.59,0.995 PMOS_VTL
M$3 7 1 5 7 PMOS_VTL L=0.05U W=0.63U AS=0.0441P AD=0.06615P PS=0.77U PD=1.47U
* device instance $4 r0 *1 0.21,0.2975 NMOS_VTL
M$4 8 2 4 4 NMOS_VTL L=0.05U W=0.415U AS=0.043575P AD=0.02905P PS=1.04U
+ PD=0.555U
* device instance $5 r0 *1 0.4,0.2975 NMOS_VTL
M$5 6 3 8 4 NMOS_VTL L=0.05U W=0.415U AS=0.02905P AD=0.02905P PS=0.555U
+ PD=0.555U
* device instance $6 r0 *1 0.59,0.2975 NMOS_VTL
M$6 4 1 6 4 NMOS_VTL L=0.05U W=0.415U AS=0.02905P AD=0.043575P PS=0.555U
+ PD=1.04U
.ENDS AOI21_X1

* cell AND3_X1
* pin A1
* pin A2
* pin A3
* pin NWELL,VDD
* pin PWELL,VSS
* pin ZN
.SUBCKT AND3_X1 1 2 3 5 6 7
* net 1 A1
* net 2 A2
* net 3 A3
* net 5 NWELL,VDD
* net 6 PWELL,VSS
* net 7 ZN
* device instance $1 r0 *1 0.17,1.1525 PMOS_VTL
M$1 5 1 4 5 PMOS_VTL L=0.05U W=0.315U AS=0.033075P AD=0.02205P PS=0.84U
+ PD=0.455U
* device instance $2 r0 *1 0.36,1.1525 PMOS_VTL
M$2 4 2 5 5 PMOS_VTL L=0.05U W=0.315U AS=0.02205P AD=0.02205P PS=0.455U
+ PD=0.455U
* device instance $3 r0 *1 0.55,1.1525 PMOS_VTL
M$3 4 3 5 5 PMOS_VTL L=0.05U W=0.315U AS=0.033075P AD=0.02205P PS=0.77U
+ PD=0.455U
* device instance $4 r0 *1 0.74,0.995 PMOS_VTL
M$4 7 4 5 5 PMOS_VTL L=0.05U W=0.63U AS=0.033075P AD=0.06615P PS=0.77U PD=1.47U
* device instance $5 r0 *1 0.17,0.195 NMOS_VTL
M$5 8 1 4 6 NMOS_VTL L=0.05U W=0.21U AS=0.02205P AD=0.0147P PS=0.63U PD=0.35U
* device instance $6 r0 *1 0.36,0.195 NMOS_VTL
M$6 9 2 8 6 NMOS_VTL L=0.05U W=0.21U AS=0.0147P AD=0.0147P PS=0.35U PD=0.35U