
* cell dual_clock_fifo
* pin wr_rst_n
* pin almost_full
* pin wr_en
* pin rd_clk
* pin rd_rst_n
* pin rd_en
* pin fifo_count[1]
* pin fifo_count[3]
* pin fifo_count[2]
* pin almost_empty
* pin fifo_count[0]
* pin empty
* pin fifo_count[4]
* pin wr_data[4]
* pin rd_data[0]
* pin rd_data[4]
* pin rd_data[1]
* pin wr_data[3]
* pin rd_data[3]
* pin rd_data[2]
* pin rd_data[7]
* pin rd_data[6]
* pin rd_data[5]
* pin full
* pin wr_data[0]
* pin wr_data[6]
* pin wr_data[7]
* pin wr_data[1]
* pin wr_clk
* pin wr_data[2]
* pin wr_data[5]
.SUBCKT dual_clock_fifo 1 2 3 4 5 6 110 113 126 153 154 168 169 235 236 262 268
+ 276 289 305 306 311 312 340 379 387 415 420 421 427 429
* net 1 wr_rst_n
* net 2 almost_full
* net 3 wr_en
* net 4 rd_clk
* net 5 rd_rst_n
* net 6 rd_en
* net 110 fifo_count[1]
* net 113 fifo_count[3]
* net 126 fifo_count[2]
* net 153 almost_empty
* net 154 fifo_count[0]
* net 168 empty
* net 169 fifo_count[4]
* net 235 wr_data[4]
* net 236 rd_data[0]
* net 262 rd_data[4]
* net 268 rd_data[1]
* net 276 wr_data[3]
* net 289 rd_data[3]
* net 305 rd_data[2]
* net 306 rd_data[7]
* net 311 rd_data[6]
* net 312 rd_data[5]
* net 340 full
* net 379 wr_data[0]
* net 387 wr_data[6]
* net 415 wr_data[7]
* net 420 wr_data[1]
* net 421 wr_clk
* net 427 wr_data[2]
* net 429 wr_data[5]
* cell instance $3 r0 *1 16.1,2.72
X$3 7 1 9 19 19 7 sky130_fd_sc_hd__buf_6
* cell instance $5 r0 *1 27.6,2.72
X$5 19 8 2 7 19 7 sky130_fd_sc_hd__clkbuf_1
* cell instance $9 m0 *1 33.58,8.16
X$9 19 3 7 39 19 7 sky130_fd_sc_hd__buf_2
* cell instance $12 r0 *1 70.84,2.72
X$12 7 4 10 19 19 7 sky130_fd_sc_hd__buf_6
* cell instance $15 m0 *1 62.56,8.16
X$15 7 5 26 19 19 7 sky130_fd_sc_hd__buf_6
* cell instance $18 r0 *1 89.7,2.72
X$18 19 6 19 7 20 7 sky130_fd_sc_hd__clkbuf_2
* cell instance $45 r0 *1 24.84,2.72
X$45 19 31 21 14 15 8 19 7 7 sky130_fd_sc_hd__o211ai_1
* cell instance $48 r0 *1 33.12,2.72
X$48 7 9 22 16 11 19 19 7 sky130_fd_sc_hd__dfrtp_2
* cell instance $53 r0 *1 44.62,2.72
X$53 7 9 11 16 13 19 19 7 sky130_fd_sc_hd__dfrtp_1
* cell instance $59 r0 *1 61.18,2.72
X$59 7 26 23 10 12 19 19 7 sky130_fd_sc_hd__dfrtp_1
* cell instance $62 r0 *1 74.98,2.72
X$62 7 26 17 10 65 19 19 7 sky130_fd_sc_hd__dfrtp_1
* cell instance $74 r0 *1 102.58,2.72
X$74 7 26 18 10 35 19 19 7 sky130_fd_sc_hd__dfrtp_1
* cell instance $87 m0 *1 6.9,8.16
X$87 7 9 12 16 59 19 19 7 sky130_fd_sc_hd__dfrtp_4
* cell instance $89 m0 *1 19.32,8.16
X$89 19 24 29 14 19 7 7 sky130_fd_sc_hd__xnor2_1
* cell instance $90 m0 *1 22.54,8.16
X$90 19 30 36 19 25 7 7 sky130_fd_sc_hd__xor2_1
* cell instance $91 m0 *1 25.76,8.16
X$91 19 25 29 82 7 19 15 7 sky130_fd_sc_hd__a21oi_1
* cell instance $97 m0 *1 35.42,8.16
X$97 7 12 22 29 19 19 7 sky130_fd_sc_hd__xor2_4
* cell instance $99 m0 *1 47.38,8.16
X$99 7 9 40 16 17 19 19 7 sky130_fd_sc_hd__dfrtp_1
* cell instance $106 m0 *1 72.68,8.16
X$106 7 26 38 10 23 19 19 7 sky130_fd_sc_hd__dfrtp_2
* cell instance $111 m0 *1 89.24,8.16
X$111 7 26 13 10 28 19 19 7 sky130_fd_sc_hd__dfrtp_4
* cell instance $114 m0 *1 101.2,8.16
X$114 19 46 56 78 19 7 7 sky130_fd_sc_hd__nand2_1
* cell instance $115 m0 *1 102.58,8.16
X$115 7 26 46 10 27 19 19 7 sky130_fd_sc_hd__dfrtp_1
* cell instance $117 m0 *1 112.24,8.16
X$117 19 18 7 34 19 7 sky130_fd_sc_hd__buf_2
* cell instance $123 r0 *1 10.12,8.16
X$123 19 233 12 19 59 7 7 sky130_fd_sc_hd__xor2_1
* cell instance $128 r0 *1 16.1,8.16
X$128 7 72 74 47 60 19 19 7 sky130_fd_sc_hd__ha_1
* cell instance $129 r0 *1 20.7,8.16
X$129 19 36 30 41 7 19 43 7 sky130_fd_sc_hd__a21o_1
* cell instance $130 r0 *1 23.46,8.16
X$130 19 41 42 48 21 7 19 7 sky130_fd_sc_hd__nor3b_1
* cell instance $131 r0 *1 26.22,8.16
X$131 19 41 19 7 37 7 sky130_fd_sc_hd__inv_1
* cell instance $133 r0 *1 28.06,8.16
X$133 19 32 42 43 7 19 24 7 sky130_fd_sc_hd__a21oi_1
* cell instance $136 r0 *1 31.28,8.16
X$136 7 42 32 94 50 19 19 7 sky130_fd_sc_hd__ha_1
* cell instance $138 r0 *1 36.8,8.16
X$138 7 50 44 22 19 19 7 sky130_fd_sc_hd__xnor2_2
* cell instance $142 r0 *1 43.7,8.16
X$142 7 9 33 16 64 19 19 7 sky130_fd_sc_hd__dfrtp_1
* cell instance $143 r0 *1 52.9,8.16
X$143 19 44 33 19 66 7 7 sky130_fd_sc_hd__xor2_1
* cell instance $147 r0 *1 61.18,8.16
X$147 7 26 49 10 33 19 19 7 sky130_fd_sc_hd__dfrtp_1
* cell instance $151 r0 *1 71.76,8.16
X$151 7 26 63 10 49 19 19 7 sky130_fd_sc_hd__dfrtp_1
* cell instance $154 r0 *1 86.48,8.16
X$154 7 38 13 53 19 19 7 sky130_fd_sc_hd__xor2_4
* cell instance $159 r0 *1 98.44,8.16
X$159 19 62 13 28 19 7 7 sky130_fd_sc_hd__xnor2_1
* cell instance $160 r0 *1 101.66,8.16
X$160 19 45 34 19 55 7 7 sky130_fd_sc_hd__xor2_1
* cell instance $161 r0 *1 104.88,8.16
X$161 19 61 34 35 19 7 7 sky130_fd_sc_hd__xnor2_1
* cell instance $164 r0 *1 109.48,8.16
X$164 19 34 46 45 7 19 58 7 sky130_fd_sc_hd__a21boi_0
* cell instance $179 m0 *1 16.56,13.6
X$179 19 67 72 51 7 19 7 sky130_fd_sc_hd__nor2b_1
* cell instance $180 m0 *1 18.86,13.6
X$180 19 67 19 7 73 7 sky130_fd_sc_hd__inv_1
* cell instance $182 m0 *1 20.7,13.6
X$182 19 74 51 36 19 48 7 7 sky130_fd_sc_hd__o21ai_0
* cell instance $184 m0 *1 24.38,13.6
X$184 19 42 37 48 7 19 31 7 sky130_fd_sc_hd__a21boi_0
* cell instance $190 m0 *1 37.26,13.6
X$190 19 105 12 75 19 7 7 sky130_fd_sc_hd__xnor2_1
* cell instance $193 m0 *1 43.24,13.6
X$193 7 64 75 33 77 19 19 7 sky130_fd_sc_hd__mux2_1
* cell instance $194 m0 *1 47.38,13.6
X$194 7 9 44 16 40 19 19 7 sky130_fd_sc_hd__dfrtp_1
* cell instance $198 m0 *1 58.42,13.6
X$198 7 9 80 16 52 19 19 7 sky130_fd_sc_hd__dfrtp_1
* cell instance $204 m0 *1 80.04,13.6
X$204 7 65 17 68 87 19 19 7 sky130_fd_sc_hd__mux2_1
* cell instance $206 m0 *1 84.64,13.6
X$206 19 17 63 81 19 7 7 sky130_fd_sc_hd__xnor2_1
* cell instance $207 m0 *1 87.86,13.6
X$207 19 38 63 19 96 7 7 sky130_fd_sc_hd__xor2_1
* cell instance $208 m0 *1 91.08,13.6
X$208 19 100 13 68 19 7 7 sky130_fd_sc_hd__xnor2_1
* cell instance $209 m0 *1 94.3,13.6
X$209 19 34 79 19 7 7 sky130_fd_sc_hd__inv_6
* cell instance $211 m0 *1 97.98,13.6
X$211 19 20 45 92 54 53 19 62 7 7 sky130_fd_sc_hd__o2111ai_1
* cell instance $212 m0 *1 101.2,13.6
X$212 19 78 55 76 19 7 7 sky130_fd_sc_hd__xnor2_1
* cell instance $213 m0 *1 104.42,13.6
X$213 19 53 54 57 20 61 19 7 7 sky130_fd_sc_hd__o211ai_1
* cell instance $214 m0 *1 107.18,13.6
X$214 19 70 56 57 7 19 7 sky130_fd_sc_hd__nor2_1
* cell instance $216 m0 *1 109.02,13.6
X$216 19 45 46 34 71 7 19 7 sky130_fd_sc_hd__nand3b_1
* cell instance $229 r0 *1 16.1,13.6
X$229 7 30 432 47 60 73 19 19 7 sky130_fd_sc_hd__fa_1
* cell instance $230 r0 *1 23.46,13.6
X$230 7 36 41 89 83 19 19 7 sky130_fd_sc_hd__ha_1
* cell instance $232 r0 *1 28.98,13.6
X$232 7 77 39 82 29 19 19 7 sky130_fd_sc_hd__a21boi_4
* cell instance $235 r0 *1 38.64,13.6
X$235 7 102 91 84 77 19 19 7 sky130_fd_sc_hd__mux2_1
* cell instance $240 r0 *1 43.24,13.6
X$240 7 85 50 83 19 19 7 sky130_fd_sc_hd__xor2_2
* cell instance $242 r0 *1 49.68,13.6
X$242 19 85 84 19 119 7 7 sky130_fd_sc_hd__xor2_1
* cell instance $243 r0 *1 52.9,13.6
X$243 7 9 85 16 80 19 19 7 sky130_fd_sc_hd__dfrtp_1
* cell instance $253 r0 *1 75.44,13.6
X$253 7 26 52 10 86 19 19 7 sky130_fd_sc_hd__dfrtp_1
* cell instance $254 r0 *1 84.64,13.6
X$254 7 86 52 76 87 19 19 7 sky130_fd_sc_hd__mux2_1
* cell instance $258 r0 *1 92,13.6
X$258 7 54 20 53 87 19 19 7 sky130_fd_sc_hd__o21ai_4
* cell instance $264 r0 *1 98.9,13.6
X$264 19 70 79 92 7 19 7 sky130_fd_sc_hd__nor2_1
* cell instance $266 r0 *1 100.74,13.6
X$266 7 69 46 34 97 88 19 19 7 sky130_fd_sc_hd__o211a_1
* cell instance $268 r0 *1 104.88,13.6
X$268 19 101 90 27 19 7 7 sky130_fd_sc_hd__xnor2_1
* cell instance $269 r0 *1 108.1,13.6
X$269 19 69 71 56 58 19 100 7 7 sky130_fd_sc_hd__a22oi_1
* cell instance $270 r0 *1 110.86,13.6
X$270 19 46 19 7 70 7 sky130_fd_sc_hd__inv_1
* cell instance $271 r0 *1 112.24,13.6
X$271 19 53 54 98 7 19 7 sky130_fd_sc_hd__nor2_1
* cell instance $278 m0 *1 14.26,19.04
X$278 7 433 67 114 99 19 19 7 sky130_fd_sc_hd__ha_1
* cell instance $280 m0 *1 19.32,19.04
X$280 19 60 123 99 19 7 7 sky130_fd_sc_hd__xnor2_1
* cell instance $282 m0 *1 23,19.04
X$282 7 93 83 60 19 19 7 sky130_fd_sc_hd__xor2_2
* cell instance $285 m0 *1 29.9,19.04
X$285 19 103 104 89 117 7 19 7 sky130_fd_sc_hd__nand3b_1
* cell instance $287 m0 *1 33.58,19.04
X$287 19 94 89 103 7 19 118 7 sky130_fd_sc_hd__a21boi_0
* cell instance $289 m0 *1 37.26,19.04
X$289 7 9 84 16 102 19 19 7 sky130_fd_sc_hd__dfrtp_1
* cell instance $291 m0 *1 47.38,19.04
X$291 7 119 82 131 132 66 19 19 7 sky130_fd_sc_hd__nor4_4
* cell instance $299 m0 *1 63.94,19.04
X$299 7 26 106 10 84 19 19 7 sky130_fd_sc_hd__dfrtp_1
* cell instance $300 m0 *1 73.14,19.04
X$300 7 26 95 10 106 19 19 7 sky130_fd_sc_hd__dfrtp_1
* cell instance $303 m0 *1 84.64,19.04
X$303 19 52 95 130 19 7 7 sky130_fd_sc_hd__xnor2_1
* cell instance $305 m0 *1 91.54,19.04
X$305 19 96 95 116 19 7 7 sky130_fd_sc_hd__xnor2_1
* cell instance $307 m0 *1 98.44,19.04
X$307 19 97 88 56 19 7 7 sky130_fd_sc_hd__nand2_1
* cell instance $308 m0 *1 99.82,19.04
X$308 7 108 107 79 96 19 19 7 sky130_fd_sc_hd__ha_1
* cell instance $309 m0 *1 104.42,19.04
X$309 19 53 54 20 45 101 19 7 7 sky130_fd_sc_hd__o211ai_1
* cell instance $310 m0 *1 107.18,19.04
X$310 19 46 19 7 90 7 sky130_fd_sc_hd__buf_4
* cell instance $311 m0 *1 109.94,19.04
X$311 19 109 113 7 19 7 sky130_fd_sc_hd__clkbuf_1
* cell instance $315 m0 *1 112.7,19.04
X$315 19 112 126 7 19 7 sky130_fd_sc_hd__clkbuf_1
* cell instance $317 m0 *1 114.54,19.04
X$317 19 111 110 7 19 7 sky130_fd_sc_hd__clkbuf_1
* cell instance $320 r0 *1 5.52,19.04
X$320 7 9 120 16 141 19 19 7 sky130_fd_sc_hd__dfrtp_2
* cell instance $323 r0 *1 15.64,19.04
X$323 19 77 114 141 19 7 7 sky130_fd_sc_hd__xnor2_1
* cell instance $324 r0 *1 18.86,19.04
X$324 19 170 104 19 142 7 7 sky130_fd_sc_hd__xor2_1
* cell instance $325 r0 *1 22.08,19.04
X$325 19 47 39 115 120 19 143 7 7 sky130_fd_sc_hd__nand4_1
* cell instance $328 r0 *1 27.14,19.04
X$328 7 128 94 89 47 120 19 19 7 sky130_fd_sc_hd__o211a_1
* cell instance $329 r0 *1 30.82,19.04
X$329 19 128 117 121 118 19 105 7 7 sky130_fd_sc_hd__a22oi_1
* cell instance $330 r0 *1 33.58,19.04
X$330 19 115 121 122 19 7 7 sky130_fd_sc_hd__nand2_1
* cell instance $332 r0 *1 35.42,19.04
X$332 19 122 147 91 19 7 7 sky130_fd_sc_hd__xnor2_1
* cell instance $338 r0 *1 45.08,19.04
X$338 19 93 135 19 131 7 7 sky130_fd_sc_hd__xor2_1
* cell instance $339 r0 *1 48.3,19.04
X$339 19 123 133 19 132 7 7 sky130_fd_sc_hd__xor2_1
* cell instance $342 r0 *1 56.12,19.04
X$342 7 9 93 16 148 19 19 7 sky130_fd_sc_hd__dfrtp_2
* cell instance $348 r0 *1 72.68,19.04
X$348 7 26 134 10 146 19 19 7 sky130_fd_sc_hd__dfrtp_1
* cell instance $352 r0 *1 86.94,19.04
X$352 7 81 145 130 179 19 54 19 7 sky130_fd_sc_hd__nand4_4
* cell instance $353 r0 *1 94.76,19.04
X$353 19 116 19 7 129 7 sky130_fd_sc_hd__inv_1
* cell instance $358 r0 *1 98.9,19.04
X$358 7 138 124 70 129 19 19 7 sky130_fd_sc_hd__ha_1
* cell instance $359 r0 *1 103.5,19.04
X$359 19 108 107 144 7 19 7 sky130_fd_sc_hd__nor2_1
* cell instance $361 r0 *1 105.34,19.04
X$361 19 107 124 157 7 19 7 sky130_fd_sc_hd__nor2_1
* cell instance $362 r0 *1 106.72,19.04
X$362 19 190 108 19 109 7 7 sky130_fd_sc_hd__xor2_1
* cell instance $363 r0 *1 109.94,19.04
X$363 7 54 125 53 127 140 109 19 19 7 sky130_fd_sc_hd__o32ai_1
* cell instance $365 r0 *1 113.62,19.04
X$365 19 125 153 7 19 7 sky130_fd_sc_hd__clkbuf_1
* cell instance $377 m0 *1 5.52,24.48
X$377 7 9 47 16 155 19 19 7 sky130_fd_sc_hd__dfrtp_4
* cell instance $379 m0 *1 16.56,24.48
X$379 19 120 19 7 114 7 sky130_fd_sc_hd__inv_1
* cell instance $381 m0 *1 18.4,24.48
X$381 7 9 94 16 142 19 19 7 sky130_fd_sc_hd__dfrtp_1
* cell instance $386 m0 *1 30.36,24.48
X$386 19 47 120 121 19 7 7 sky130_fd_sc_hd__nand2_1
* cell instance $388 m0 *1 32.2,24.48
X$388 19 94 19 7 104 7 sky130_fd_sc_hd__buf_4
* cell instance $389 m0 *1 34.96,24.48
X$389 19 103 104 19 147 7 7 sky130_fd_sc_hd__xor2_1
* cell instance $390 m0 *1 38.18,24.48
X$390 7 9 133 16 161 19 19 7 sky130_fd_sc_hd__dfrtp_1
* cell instance $391 m0 *1 47.38,24.48
X$391 7 9 148 16 136 19 19 7 sky130_fd_sc_hd__dfrtp_1
* cell instance $394 m0 *1 57.5,24.48
X$394 7 9 123 16 162 19 19 7 sky130_fd_sc_hd__dfrtp_1
* cell instance $395 m0 *1 66.7,24.48
X$395 7 26 146 10 135 19 19 7 sky130_fd_sc_hd__dfrtp_1
* cell instance $401 m0 *1 86.48,24.48
X$401 19 136 134 145 19 7 7 sky130_fd_sc_hd__xnor2_1
* cell instance $403 m0 *1 91.54,24.48
X$403 7 134 116 152 19 19 7 sky130_fd_sc_hd__xor2_2
* cell instance $404 m0 *1 97.52,24.48
X$404 19 88 19 7 158 7 sky130_fd_sc_hd__inv_1
* cell instance $406 m0 *1 99.36,24.48
X$406 7 160 173 158 159 19 19 7 sky130_fd_sc_hd__ha_1
* cell instance $407 m0 *1 103.96,24.48
X$407 19 144 156 157 7 19 139 7 sky130_fd_sc_hd__a21oi_1
* cell instance $409 m0 *1 106.26,24.48
X$409 19 138 137 156 7 19 7 sky130_fd_sc_hd__nand2b_1
* cell instance $410 m0 *1 108.56,24.48
X$410 19 138 137 112 19 7 7 sky130_fd_sc_hd__xnor2_1
* cell instance $412 m0 *1 112.24,24.48
X$412 19 139 53 140 19 7 7 sky130_fd_sc_hd__xnor2_1
* cell instance $418 r0 *1 11.04,24.48
X$418 7 155 149 47 77 19 19 7 sky130_fd_sc_hd__mux2_1
* cell instance $421 r0 *1 15.64,24.48
X$421 7 431 103 47 120 19 19 7 sky130_fd_sc_hd__ha_2
* cell instance $422 r0 *1 21.16,24.48
X$422 19 143 29 82 7 19 170 7 sky130_fd_sc_hd__a21oi_1
* cell instance $423 r0 *1 23,24.48
X$423 19 89 19 7 115 7 sky130_fd_sc_hd__buf_4
* cell instance $427 r0 *1 28.98,24.48
X$427 19 149 120 150 19 7 7 sky130_fd_sc_hd__xnor2_1
* cell instance $428 r0 *1 32.2,24.48
X$428 19 149 103 164 19 7 7 sky130_fd_sc_hd__xnor2_1
* cell instance $429 r0 *1 35.42,24.48
X$429 19 164 115 177 19 7 7 sky130_fd_sc_hd__xnor2_1
* cell instance $430 r0 *1 38.64,24.48
X$430 7 161 150 133 77 19 19 7 sky130_fd_sc_hd__mux2_1
* cell instance $433 r0 *1 43.24,24.48
X$433 7 176 177 135 77 19 19 7 sky130_fd_sc_hd__mux2_1
* cell instance $437 r0 *1 53.82,24.48
X$437 7 9 162 16 180 19 19 7 sky130_fd_sc_hd__dfrtp_1
* cell instance $444 r0 *1 78.2,24.48
X$444 7 26 136 10 165 19 19 7 sky130_fd_sc_hd__dfrtp_1
* cell instance $445 r0 *1 87.4,24.48
X$445 7 165 136 151 87 19 19 7 sky130_fd_sc_hd__mux2_1
* cell instance $446 r0 *1 91.54,24.48
X$446 19 166 90 151 19 7 7 sky130_fd_sc_hd__xnor2_1
* cell instance $447 r0 *1 94.76,24.48
X$447 19 178 45 166 19 7 7 sky130_fd_sc_hd__xnor2_1
* cell instance $452 r0 *1 99.82,24.48
X$452 19 152 19 7 159 7 sky130_fd_sc_hd__inv_1
* cell instance $453 r0 *1 101.2,24.48
X$453 19 138 160 186 19 7 7 sky130_fd_sc_hd__nand2_1
* cell instance $455 r0 *1 103.04,24.48
X$455 19 124 138 173 7 19 174 7 sky130_fd_sc_hd__a21oi_1
* cell instance $456 r0 *1 104.88,24.48
X$456 7 137 111 195 152 167 19 19 7 sky130_fd_sc_hd__fa_1
* cell instance $457 r0 *1 112.24,24.48
X$457 19 112 196 111 19 127 7 7 sky130_fd_sc_hd__o21a_1
* cell instance $472 m0 *1 15.18,29.92
X$472 7 149 187 114 163 19 19 7 sky130_fd_sc_hd__ha_1
* cell instance $473 m0 *1 19.78,29.92
X$473 19 47 19 7 163 7 sky130_fd_sc_hd__inv_1
* cell instance $474 m0 *1 21.16,29.92
X$474 7 434 181 120 163 19 19 7 sky130_fd_sc_hd__ha_1
* cell instance $475 m0 *1 25.76,29.92
X$475 7 7 181 171 39 19 19 sky130_fd_sc_hd__nand2_2
* cell instance $479 m0 *1 30.36,29.92
X$479 7 103 182 39 19 19 7 sky130_fd_sc_hd__nand2_4
* cell instance $480 m0 *1 34.5,29.92
X$480 7 115 175 104 19 19 7 sky130_fd_sc_hd__nand2b_4
* cell instance $482 m0 *1 41.4,29.92
X$482 7 9 135 16 176 19 19 7 sky130_fd_sc_hd__dfrtp_1
* cell instance $491 m0 *1 63.94,29.92
X$491 7 26 183 10 133 19 19 7 sky130_fd_sc_hd__dfrtp_1
* cell instance $493 m0 *1 74.98,29.92
X$493 7 26 184 10 183 19 19 7 sky130_fd_sc_hd__dfrtp_1
* cell instance $497 m0 *1 88.78,29.92
X$497 19 180 184 179 19 7 7 sky130_fd_sc_hd__xnor2_1
* cell instance $502 m0 *1 102.12,29.92
X$502 19 152 184 19 172 7 7 sky130_fd_sc_hd__xor2_1
* cell instance $503 m0 *1 105.34,29.92
X$503 19 167 186 174 19 190 7 7 sky130_fd_sc_hd__o21ai_0
* cell instance $504 m0 *1 107.18,29.92
X$504 7 189 167 188 172 19 19 7 sky130_fd_sc_hd__ha_1
* cell instance $506 m0 *1 112.24,29.92
X$506 19 98 168 7 19 7 sky130_fd_sc_hd__clkbuf_1
* cell instance $508 m0 *1 114.54,29.92
X$508 19 140 169 7 19 7 sky130_fd_sc_hd__clkbuf_1
* cell instance $513 r0 *1 11.04,29.92
X$513 7 77 244 201 191 19 19 7 sky130_fd_sc_hd__and3_4
* cell instance $518 r0 *1 17.02,29.92
X$518 7 77 199 181 191 19 19 7 sky130_fd_sc_hd__and3_4
* cell instance $520 r0 *1 21.62,29.92
X$520 19 39 103 191 204 19 7 7 sky130_fd_sc_hd__nand3_1
* cell instance $521 r0 *1 23.46,29.92
X$521 19 104 89 191 19 7 7 sky130_fd_sc_hd__and2_0
* cell instance $524 r0 *1 27.14,29.92
X$524 7 9 89 16 192 19 19 7 sky130_fd_sc_hd__dfrtp_1
* cell instance $526 r0 *1 36.8,29.92
X$526 7 193 206 200 175 19 19 7 sky130_fd_sc_hd__nor3_4
* cell instance $533 r0 *1 51.98,29.92
X$533 7 97 205 229 198 231 197 88 19 19 7 sky130_fd_sc_hd__mux4_1
* cell instance $543 r0 *1 74.06,29.92
X$543 7 26 180 10 194 19 19 7 sky130_fd_sc_hd__dfrtp_1
* cell instance $544 r0 *1 83.26,29.92
X$544 7 194 180 185 87 19 19 7 sky130_fd_sc_hd__mux2_1
* cell instance $546 r0 *1 87.86,29.92
X$546 19 178 97 185 19 7 7 sky130_fd_sc_hd__xnor2_1
* cell instance $549 r0 *1 92.46,29.92
X$549 7 202 88 178 87 19 19 7 sky130_fd_sc_hd__mux2_1
* cell instance $557 r0 *1 104.88,29.92
X$557 7 178 45 195 188 19 19 7 sky130_fd_sc_hd__ha_2
* cell instance $560 r0 *1 113.16,29.92
X$560 19 189 19 7 196 7 sky130_fd_sc_hd__inv_1
* cell instance $561 r0 *1 114.54,29.92
X$561 19 196 154 7 19 7 sky130_fd_sc_hd__clkbuf_1
* cell instance $570 m0 *1 1.38,35.36
X$570 7 199 214 16 212 19 19 7 sky130_fd_sc_hd__edfxtp_1
* cell instance $571 m0 *1 12.42,35.36
X$571 7 435 201 114 47 19 19 7 sky130_fd_sc_hd__ha_1
* cell instance $572 m0 *1 17.02,35.36
X$572 7 7 187 200 39 19 19 sky130_fd_sc_hd__nand2_2
* cell instance $573 m0 *1 19.32,35.36
X$573 7 233 204 82 29 19 19 7 sky130_fd_sc_hd__a21oi_4
* cell instance $574 m0 *1 25.3,35.36
X$574 19 216 115 19 192 7 7 sky130_fd_sc_hd__xor2_1
* cell instance $577 m0 *1 29.44,35.36
X$577 19 29 82 19 209 7 7 sky130_fd_sc_hd__and2_2
* cell instance $578 m0 *1 32.2,35.36
X$578 7 209 219 104 115 171 19 19 7 sky130_fd_sc_hd__nor4_4
* cell instance $579 m0 *1 40.02,35.36
X$579 7 193 217 182 175 19 19 7 sky130_fd_sc_hd__nor3_4
* cell instance $589 m0 *1 62.1,35.36
X$589 7 206 203 16 211 19 19 7 sky130_fd_sc_hd__edfxtp_1
* cell instance $590 m0 *1 73.14,35.36
X$590 7 210 215 16 211 19 19 7 sky130_fd_sc_hd__edfxtp_1
* cell instance $594 m0 *1 92,35.36
X$594 7 26 195 10 202 19 19 7 sky130_fd_sc_hd__dfrtp_1
* cell instance $597 m0 *1 102.58,35.36
X$597 7 26 188 10 213 19 19 7 sky130_fd_sc_hd__dfrtp_1
* cell instance $600 r0 *1 1.38,35.36
X$600 7 207 226 16 212 19 19 7 sky130_fd_sc_hd__edfxtp_1
* cell instance $602 r0 *1 12.88,35.36
X$602 7 7 201 220 39 19 19 sky130_fd_sc_hd__nand2_2
* cell instance $606 r0 *1 16.56,35.36
X$606 7 77 207 187 191 19 19 7 sky130_fd_sc_hd__and3_4
* cell instance $607 r0 *1 20.7,35.36
X$607 7 209 208 104 115 220 19 19 7 sky130_fd_sc_hd__nor4_4
* cell instance $608 r0 *1 28.52,35.36
X$608 19 182 29 82 7 19 216 7 sky130_fd_sc_hd__a21oi_1
* cell instance $610 r0 *1 30.82,35.36
X$610 7 209 193 19 19 7 sky130_fd_sc_hd__buf_6
* cell instance $611 r0 *1 34.96,35.36
X$611 7 209 218 104 115 182 19 19 7 sky130_fd_sc_hd__nor4_4
* cell instance $617 r0 *1 46.46,35.36
X$617 7 210 197 16 212 19 19 7 sky130_fd_sc_hd__edfxtp_1
* cell instance $627 r0 *1 75.9,35.36
X$627 7 97 261 230 203 228 215 88 19 19 7 sky130_fd_sc_hd__mux4_1
* cell instance $630 r0 *1 86.94,35.36
X$630 7 218 227 16 211 19 19 7 sky130_fd_sc_hd__edfxtp_1
* cell instance $634 r0 *1 98.9,35.36
X$634 19 195 7 234 19 7 sky130_fd_sc_hd__clkbuf_4
* cell instance $635 r0 *1 101.66,35.36
X$635 19 87 97 213 19 7 7 sky130_fd_sc_hd__xnor2_1
* cell instance $636 r0 *1 104.88,35.36
X$636 7 225 224 10 222 19 19 7 sky130_fd_sc_hd__edfxtp_1
* cell instance $647 m0 *1 5.98,40.8
X$647 7 233 237 16 212 19 19 7 sky130_fd_sc_hd__edfxtp_1
* cell instance $648 m0 *1 17.02,40.8
X$648 7 193 210 220 175 19 19 7 sky130_fd_sc_hd__nor3_4
* cell instance $649 m0 *1 23,40.8
X$649 7 193 232 171 175 19 19 7 sky130_fd_sc_hd__nor3_4
* cell instance $651 m0 *1 29.44,40.8
X$651 7 104 221 115 19 19 7 sky130_fd_sc_hd__nand2b_4
* cell instance $652 m0 *1 34.5,40.8
X$652 7 232 229 16 212 19 19 7 sky130_fd_sc_hd__edfxtp_1
* cell instance $653 m0 *1 45.54,40.8
X$653 7 217 231 16 212 19 19 7 sky130_fd_sc_hd__edfxtp_1
* cell instance $656 m0 *1 60.72,40.8
X$656 7 232 230 16 211 19 19 7 sky130_fd_sc_hd__edfxtp_1
* cell instance $657 m0 *1 71.76,40.8
X$657 7 217 228 16 211 19 19 7 sky130_fd_sc_hd__edfxtp_1
* cell instance $663 m0 *1 86.94,40.8
X$663 7 243 241 16 211 19 19 7 sky130_fd_sc_hd__edfxtp_1
* cell instance $664 m0 *1 97.98,40.8
X$664 7 223 238 240 241 227 239 234 19 19 7 sky130_fd_sc_hd__mux4_1
* cell instance $665 m0 *1 107.64,40.8
X$665 7 188 223 19 19 7 sky130_fd_sc_hd__buf_6
* cell instance $668 m0 *1 113.16,40.8
X$668 19 235 19 7 211 7 sky130_fd_sc_hd__buf_4
* cell instance $676 r0 *1 15.64,40.8
X$676 7 252 245 214 226 237 249 253 19 19 7 sky130_fd_sc_hd__mux4_1
* cell instance $677 r0 *1 25.3,40.8
X$677 7 193 243 104 115 200 19 19 7 sky130_fd_sc_hd__nor4_4
* cell instance $679 r0 *1 34.04,40.8
X$679 7 193 242 221 200 19 19 7 sky130_fd_sc_hd__nor3_4
* cell instance $684 r0 *1 43.24,40.8
X$684 7 206 198 16 212 19 19 7 sky130_fd_sc_hd__edfxtp_1
* cell instance $685 r0 *1 54.28,40.8
X$685 7 79 222 251 246 205 245 90 19 19 7 sky130_fd_sc_hd__mux4_1
* cell instance $687 r0 *1 64.86,40.8
X$687 19 234 7 88 19 7 sky130_fd_sc_hd__clkbuf_4
* cell instance $698 r0 *1 86.94,40.8
X$698 7 219 240 16 211 19 19 7 sky130_fd_sc_hd__edfxtp_1
* cell instance $704 r0 *1 101.66,40.8
X$704 19 87 7 19 225 7 sky130_fd_sc_hd__inv_2
* cell instance $706 r0 *1 104.88,40.8
X$706 7 225 247 10 248 19 19 7 sky130_fd_sc_hd__edfxtp_1
* cell instance $717 m0 *1 6.9,46.24
X$717 7 244 249 16 212 19 19 7 sky130_fd_sc_hd__edfxtp_1
* cell instance $718 m0 *1 17.94,46.24
X$718 7 233 258 16 211 19 19 7 sky130_fd_sc_hd__edfxtp_1
* cell instance $720 m0 *1 29.44,46.24
X$720 7 193 259 221 220 19 19 7 sky130_fd_sc_hd__nor3_4
* cell instance $721 m0 *1 35.42,46.24
X$721 7 219 250 16 212 19 19 7 sky130_fd_sc_hd__edfxtp_1
* cell instance $725 m0 *1 49.68,46.24
X$725 19 234 19 7 253 7 sky130_fd_sc_hd__buf_4
* cell instance $740 m0 *1 88.32,46.24
X$740 7 208 239 16 211 19 19 7 sky130_fd_sc_hd__edfxtp_1
* cell instance $749 m0 *1 114.54,46.24
X$749 19 224 236 7 19 7 sky130_fd_sc_hd__clkbuf_1
* cell instance $758 r0 *1 17.48,46.24
X$758 7 244 257 16 211 19 19 7 sky130_fd_sc_hd__edfxtp_1
* cell instance $759 r0 *1 28.52,46.24
X$759 7 257 260 254 252 258 253 264 19 19 7 sky130_fd_sc_hd__mux4_2
* cell instance $760 r0 *1 36.8,46.24
X$760 7 193 362 221 182 19 19 7 sky130_fd_sc_hd__nor3_4
* cell instance $765 r0 *1 44.62,46.24
X$765 7 208 266 16 212 19 19 7 sky130_fd_sc_hd__edfxtp_1
* cell instance $767 r0 *1 59.34,46.24
X$767 7 210 265 16 255 19 19 7 sky130_fd_sc_hd__edfxtp_1
* cell instance $782 r0 *1 100.28,46.24
X$782 7 223 97 19 19 7 sky130_fd_sc_hd__buf_6
* cell instance $783 r0 *1 104.42,46.24
X$783 7 225 263 10 256 19 19 7 sky130_fd_sc_hd__edfxtp_1
* cell instance $795 m0 *1 5.52,51.68
X$795 7 207 269 16 255 19 19 7 sky130_fd_sc_hd__edfxtp_1
* cell instance $798 m0 *1 17.94,51.68
X$798 7 199 264 16 211 19 19 7 sky130_fd_sc_hd__edfxtp_1
* cell instance $802 m0 *1 33.58,51.68
X$802 7 243 274 16 212 19 19 7 sky130_fd_sc_hd__edfxtp_1
* cell instance $803 m0 *1 44.62,51.68
X$803 7 252 251 250 274 267 266 253 19 19 7 sky130_fd_sc_hd__mux4_1
* cell instance $810 m0 *1 62.1,51.68
X$810 7 217 273 16 255 19 19 7 sky130_fd_sc_hd__edfxtp_1
* cell instance $816 m0 *1 86.48,51.68
X$816 7 243 271 16 255 19 19 7 sky130_fd_sc_hd__edfxtp_1
* cell instance $817 m0 *1 97.52,51.68
X$817 7 79 248 238 270 261 254 90 19 19 7 sky130_fd_sc_hd__mux4_1
* cell instance $822 m0 *1 113.16,51.68
X$822 19 263 268 7 19 7 sky130_fd_sc_hd__clkbuf_1
* cell instance $823 m0 *1 114.54,51.68
X$823 19 247 262 7 19 7 sky130_fd_sc_hd__clkbuf_1
* cell instance $826 r0 *1 4.14,51.68
X$826 7 244 278 16 255 19 19 7 sky130_fd_sc_hd__edfxtp_1
* cell instance $831 r0 *1 23,51.68
X$831 7 207 260 16 211 19 19 7 sky130_fd_sc_hd__edfxtp_1
* cell instance $832 r0 *1 34.04,51.68
X$832 7 193 272 221 171 19 19 7 sky130_fd_sc_hd__nor3_4
* cell instance $838 r0 *1 46.92,51.68
X$838 7 218 267 16 212 19 19 7 sky130_fd_sc_hd__edfxtp_1
* cell instance $841 r0 *1 59.34,51.68
X$841 7 232 286 16 255 19 19 7 sky130_fd_sc_hd__edfxtp_1
* cell instance $850 r0 *1 86.94,51.68
X$850 7 218 282 16 255 19 19 7 sky130_fd_sc_hd__edfxtp_1
* cell instance $854 r0 *1 102.12,51.68
X$854 19 276 19 7 255 7 sky130_fd_sc_hd__buf_4
* cell instance $855 r0 *1 104.88,51.68
X$855 7 225 277 10 281 19 19 7 sky130_fd_sc_hd__edfxtp_1
* cell instance $864 m0 *1 1.38,57.12
X$864 7 199 275 16 255 19 19 7 sky130_fd_sc_hd__edfxtp_1
* cell instance $865 m0 *1 12.42,57.12
X$865 7 278 269 285 252 279 253 275 19 19 7 sky130_fd_sc_hd__mux4_2
* cell instance $877 m0 *1 47.38,57.12
X$877 7 223 252 19 19 7 sky130_fd_sc_hd__buf_8
* cell instance $882 m0 *1 58.42,57.12
X$882 7 206 287 16 255 19 19 7 sky130_fd_sc_hd__edfxtp_1
* cell instance $883 m0 *1 69.46,57.12
X$883 7 97 288 286 287 273 265 88 19 19 7 sky130_fd_sc_hd__mux4_1
* cell instance $889 m0 *1 85.56,57.12
X$889 7 219 284 16 255 19 19 7 sky130_fd_sc_hd__edfxtp_1
* cell instance $890 m0 *1 96.6,57.12
X$890 7 223 280 284 271 282 283 234 19 19 7 sky130_fd_sc_hd__mux4_1
* cell instance $896 m0 *1 114.54,57.12
X$896 19 277 289 7 19 7 sky130_fd_sc_hd__clkbuf_1
* cell instance $899 r0 *1 4.14,57.12
X$899 7 233 279 16 255 19 19 7 sky130_fd_sc_hd__edfxtp_1
* cell instance $908 r0 *1 31.74,57.12
X$908 7 219 292 16 291 19 19 7 sky130_fd_sc_hd__edfxtp_1
* cell instance $913 r0 *1 48.76,57.12
X$913 7 217 293 16 291 19 19 7 sky130_fd_sc_hd__edfxtp_1
* cell instance $927 r0 *1 86.94,57.12
X$927 7 208 283 16 255 19 19 7 sky130_fd_sc_hd__edfxtp_1
* cell instance $930 r0 *1 98.44,57.12
X$930 7 79 281 280 290 288 285 90 19 19 7 sky130_fd_sc_hd__mux4_1
* cell instance $937 m0 *1 12.42,62.56
X$937 7 233 307 16 295 19 19 7 sky130_fd_sc_hd__edfxtp_1
* cell instance $944 m0 *1 31.28,62.56
X$944 7 208 294 16 291 19 19 7 sky130_fd_sc_hd__edfxtp_1
* cell instance $947 m0 *1 42.32,62.56
X$947 7 252 310 292 309 302 294 253 19 19 7 sky130_fd_sc_hd__mux4_1
* cell instance $953 m0 *1 62.56,62.56
X$953 7 206 300 16 295 19 19 7 sky130_fd_sc_hd__edfxtp_1
* cell instance $957 m0 *1 74.52,62.56
X$957 7 97 297 301 300 325 299 88 19 19 7 sky130_fd_sc_hd__mux4_1
* cell instance $961 m0 *1 86.94,62.56
X$961 7 208 308 16 295 19 19 7 sky130_fd_sc_hd__edfxtp_1
* cell instance $964 m0 *1 97.98,62.56
X$964 7 225 296 10 298 19 19 7 sky130_fd_sc_hd__edfxtp_1
* cell instance $967 m0 *1 110.4,62.56
X$967 19 296 305 7 19 7 sky130_fd_sc_hd__clkbuf_1
* cell instance $972 r0 *1 4.14,62.56
X$972 7 244 315 16 291 19 19 7 sky130_fd_sc_hd__edfxtp_1
* cell instance $976 r0 *1 16.1,62.56
X$976 7 199 318 16 295 19 19 7 sky130_fd_sc_hd__edfxtp_1
* cell instance $979 r0 *1 31.74,62.56
X$979 7 243 309 16 291 19 19 7 sky130_fd_sc_hd__edfxtp_1
* cell instance $985 r0 *1 48.3,62.56
X$985 7 210 324 16 291 19 19 7 sky130_fd_sc_hd__edfxtp_1
* cell instance $986 r0 *1 59.34,62.56
X$986 7 232 301 16 295 19 19 7 sky130_fd_sc_hd__edfxtp_1
* cell instance $989 r0 *1 70.84,62.56
X$989 7 210 299 16 295 19 19 7 sky130_fd_sc_hd__edfxtp_1
* cell instance $990 r0 *1 81.88,62.56
X$990 7 243 322 16 295 19 19 7 sky130_fd_sc_hd__edfxtp_1
* cell instance $997 r0 *1 99.36,62.56
X$997 7 79 316 330 304 297 303 90 19 19 7 sky130_fd_sc_hd__mux4_1
* cell instance $1014 m0 *1 8.28,68
X$1014 7 244 317 16 295 19 19 7 sky130_fd_sc_hd__edfxtp_1
* cell instance $1017 m0 *1 20.7,68
X$1017 7 317 320 303 252 307 253 318 19 19 7 sky130_fd_sc_hd__mux4_2
* cell instance $1020 m0 *1 33.12,68
X$1020 7 218 302 16 291 19 19 7 sky130_fd_sc_hd__edfxtp_1
* cell instance $1023 m0 *1 45.54,68
X$1023 7 232 323 16 291 19 19 7 sky130_fd_sc_hd__edfxtp_1
* cell instance $1025 m0 *1 57.04,68
X$1025 7 97 326 323 332 293 324 88 19 19 7 sky130_fd_sc_hd__mux4_1
* cell instance $1028 m0 *1 69.46,68
X$1028 7 217 325 16 295 19 19 7 sky130_fd_sc_hd__edfxtp_1
* cell instance $1033 m0 *1 86.02,68
X$1033 7 218 321 16 295 19 19 7 sky130_fd_sc_hd__edfxtp_1
* cell instance $1035 m0 *1 100.74,68
X$1035 7 225 314 10 319 19 19 7 sky130_fd_sc_hd__edfxtp_1
* cell instance $1037 m0 *1 112.24,68
X$1037 19 314 306 7 19 7 sky130_fd_sc_hd__clkbuf_1
* cell instance $1039 m0 *1 114.54,68
X$1039 19 313 312 7 19 7 sky130_fd_sc_hd__clkbuf_1
* cell instance $1042 r0 *1 4.14,68
X$1042 7 233 329 16 291 19 19 7 sky130_fd_sc_hd__edfxtp_1
* cell instance $1049 r0 *1 22.54,68
X$1049 7 207 320 16 295 19 19 7 sky130_fd_sc_hd__edfxtp_1
* cell instance $1057 r0 *1 47.84,68
X$1057 7 206 332 16 291 19 19 7 sky130_fd_sc_hd__edfxtp_1
* cell instance $1058 r0 *1 58.88,68
X$1058 7 79 256 310 327 326 333 90 19 19 7 sky130_fd_sc_hd__mux4_1
* cell instance $1065 r0 *1 78.66,68
X$1065 7 219 331 16 295 19 19 7 sky130_fd_sc_hd__edfxtp_1
* cell instance $1074 r0 *1 103.5,68
X$1074 7 225 313 10 316 19 19 7 sky130_fd_sc_hd__edfxtp_1
* cell instance $1075 r0 *1 114.54,68
X$1075 19 328 311 7 19 7 sky130_fd_sc_hd__clkbuf_1
* cell instance $1084 m0 *1 1.38,73.44
X$1084 7 207 337 16 291 19 19 7 sky130_fd_sc_hd__edfxtp_1
* cell instance $1085 m0 *1 12.42,73.44
X$1085 7 252 333 335 337 329 315 253 19 19 7 sky130_fd_sc_hd__mux4_1
* cell instance $1105 m0 *1 63.94,73.44
X$1105 7 206 338 16 334 19 19 7 sky130_fd_sc_hd__edfxtp_1
* cell instance $1113 m0 *1 91.08,73.44
X$1113 7 223 330 331 322 321 308 234 19 19 7 sky130_fd_sc_hd__mux4_1
* cell instance $1114 m0 *1 100.74,73.44
X$1114 7 225 328 10 336 19 19 7 sky130_fd_sc_hd__edfxtp_1
* cell instance $1117 r0 *1 1.38,73.44
X$1117 7 199 335 16 291 19 19 7 sky130_fd_sc_hd__edfxtp_1
* cell instance $1120 r0 *1 13.8,73.44
X$1120 19 193 340 7 19 7 sky130_fd_sc_hd__clkbuf_1
* cell instance $1123 r0 *1 15.64,73.44
X$1123 7 244 345 16 334 19 19 7 sky130_fd_sc_hd__edfxtp_1
* cell instance $1133 r0 *1 43.7,73.44