
* cell pipelined_fifo
* pin clk
* pin rst_n
* pin wr_en
* pin full
* pin rd_data[11]
* pin rd_data[24]
* pin rd_data[26]
* pin rd_data[4]
* pin rd_data[2]
* pin rd_data[21]
* pin rd_data[13]
* pin PWELL
* pin NWELL
* pin rd_data[16]
* pin rd_data[8]
* pin rd_en
* pin rd_data[15]
* pin rd_data[17]
* pin rd_data[20]
* pin rd_data[18]
* pin rd_data[23]
* pin rd_data[9]
* pin rd_data[12]
* pin rd_data[7]
* pin rd_data[14]
* pin rd_data[1]
* pin rd_data[25]
* pin rd_data[5]
* pin rd_data[6]
* pin rd_data[31]
* pin rd_data[10]
* pin rd_data[22]
* pin rd_data[0]
* pin rd_data[27]
* pin rd_data[28]
* pin rd_data[29]
* pin rd_data[30]
* pin rd_data[19]
* pin rd_data[3]
* pin data_count[1]
* pin data_count[0]
* pin data_count[4]
* pin almost_empty
* pin empty
* pin almost_full
* pin data_count[3]
* pin data_count[2]
.SUBCKT pipelined_fifo 1 2 3 4 9 10 11 12 13 14 15 22 23 26 27 30 34 35 42 60
+ 61 67 68 79 80 89 90 96 97 98 99 100 111 120 128 129 137 148 149 168 169 261
+ 262 263 264 265 266
* net 1 clk
* net 2 rst_n
* net 3 wr_en
* net 4 full
* net 9 rd_data[11]
* net 10 rd_data[24]
* net 11 rd_data[26]
* net 12 rd_data[4]
* net 13 rd_data[2]
* net 14 rd_data[21]
* net 15 rd_data[13]
* net 22 PWELL
* net 23 NWELL
* net 26 rd_data[16]
* net 27 rd_data[8]
* net 30 rd_en
* net 34 rd_data[15]
* net 35 rd_data[17]
* net 42 rd_data[20]
* net 60 rd_data[18]
* net 61 rd_data[23]
* net 67 rd_data[9]
* net 68 rd_data[12]
* net 79 rd_data[7]
* net 80 rd_data[14]
* net 89 rd_data[1]
* net 90 rd_data[25]
* net 96 rd_data[5]
* net 97 rd_data[6]
* net 98 rd_data[31]
* net 99 rd_data[10]
* net 100 rd_data[22]
* net 111 rd_data[0]
* net 120 rd_data[27]
* net 128 rd_data[28]
* net 129 rd_data[29]
* net 137 rd_data[30]
* net 148 rd_data[19]
* net 149 rd_data[3]
* net 168 data_count[1]
* net 169 data_count[0]
* net 261 data_count[4]
* net 262 almost_empty
* net 263 empty
* net 264 almost_full
* net 265 data_count[3]
* net 266 data_count[2]
* cell instance $3 m0 *1 24.51,37.8
X$3 1 22 23 103 CLKBUF_X3
* cell instance $8 r0 *1 20.9,1.4
X$8 2 22 23 5 BUF_X1
* cell instance $15 m0 *1 29.45,4.2
X$15 3 22 23 16 BUF_X1
* cell instance $20 r0 *1 29.83,1.4
X$20 6 22 23 4 BUF_X1
* cell instance $27 r0 *1 20.71,23.8
X$27 5 22 23 37 INV_X1
* cell instance $30 r0 *1 19.95,21
X$30 5 22 23 32 BUF_X2
* cell instance $32 r0 *1 21.09,23.8
X$32 63 5 23 22 69 AND2_X1
* cell instance $35 m0 *1 19,23.8
X$35 43 5 23 22 55 AND2_X1
* cell instance $37 r0 *1 29.45,21
X$37 52 7 22 23 6 NAND2_X1
* cell instance $45 r0 *1 28.5,51.8
X$45 240 7 22 23 260 NAND2_X1
* cell instance $48 m0 *1 28.88,23.8
X$48 7 16 22 23 39 NAND2_X2
* cell instance $51 m0 *1 29.83,23.8
X$51 16 7 23 22 40 AND2_X1
* cell instance $54 m0 *1 24.7,32.2
X$54 110 109 23 7 22 XOR2_X2
* cell instance $58 r0 *1 26.41,51.8
X$58 7 258 23 22 255 XNOR2_X1
* cell instance $61 m0 *1 28.5,43.4
X$61 186 7 197 22 23 213 NAND3_X1
* cell instance $64 r0 *1 54.72,21
X$64 8 22 23 LOGIC0_X1
* cell instance $66 m0 *1 54.53,21
X$66 8 22 23 14 BUF_X1
* cell instance $68 m0 *1 54.34,18.2
X$68 18 22 23 9 BUF_X1
* cell instance $73 r0 *1 54.53,18.2
X$73 17 22 23 10 BUF_X1
* cell instance $78 r0 *1 53.2,18.2
X$78 20 22 23 11 BUF_X1
* cell instance $83 m0 *1 52.63,21
X$83 21 22 23 12 BUF_X1
* cell instance $88 r0 *1 53.58,21
X$88 28 22 23 13 BUF_X1
* cell instance $97 m0 *1 53.77,21
X$97 19 22 23 15 BUF_X1
* cell instance $110 r0 *1 54.15,18.2
X$110 17 22 23 LOGIC0_X1
* cell instance $113 m0 *1 53.96,18.2
X$113 18 22 23 LOGIC0_X1
* cell instance $117 m0 *1 53.2,21
X$117 19 22 23 LOGIC0_X1
* cell instance $119 r0 *1 52.82,18.2
X$119 20 22 23 LOGIC0_X1
* cell instance $122 m0 *1 52.25,21
X$122 21 22 23 LOGIC0_X1
* cell instance $124 m0 *1 27.74,46.2
X$124 230 65 22 23 239 NOR2_X1
* cell instance $126 m0 *1 28.31,46.2
X$126 213 217 161 22 23 234 NOR3_X1
* cell instance $127 m0 *1 29.07,46.2
X$127 223 233 23 22 230 XNOR2_X1
* cell instance $128 m0 *1 30.21,46.2
X$128 188 241 235 223 22 23 217 OR4_X1
* cell instance $130 m0 *1 32.87,46.2
X$130 219 232 187 22 243 23 AOI21_X1
* cell instance $134 m0 *1 37.62,46.2
X$134 231 147 22 23 233 NOR2_X1
* cell instance $135 m0 *1 38.19,46.2
X$135 203 220 22 23 224 XOR2_X1
* cell instance $136 m0 *1 39.33,46.2
X$136 235 167 220 23 22 226 HA_X1
* cell instance $137 m0 *1 41.23,46.2
X$137 226 220 214 22 225 23 AOI21_X1
* cell instance $138 m0 *1 41.99,46.2
X$138 226 203 220 22 228 23 AOI21_X1
* cell instance $139 m0 *1 42.75,46.2
X$139 237 22 23 229 INV_X1
* cell instance $140 m0 *1 43.13,46.2
X$140 229 228 227 23 221 22 OAI21_X1
* cell instance $142 m0 *1 44.08,46.2
X$142 238 22 23 227 INV_X1
* cell instance $165 r0 *1 24.7,46.2
X$165 22 273 223 239 160 23 DFF_X1
* cell instance $170 r0 *1 38.19,46.2
X$170 224 147 235 22 23 236 MUX2_X1
* cell instance $174 r0 *1 40.85,46.2
X$174 237 225 23 22 244 XNOR2_X1
* cell instance $175 r0 *1 41.99,46.2
X$175 241 167 237 23 22 238 HA_X1
* cell instance $191 m0 *1 28.12,54.6
X$191 234 22 23 263 BUF_X1
* cell instance $192 m0 *1 27.55,54.6
X$192 215 22 23 262 BUF_X1
* cell instance $193 m0 *1 28.69,54.6
X$193 260 22 23 264 BUF_X1
* cell instance $195 m0 *1 29.83,54.6
X$195 256 22 23 265 BUF_X1
* cell instance $257 m0 *1 17.29,32.2
X$257 22 114 115 126 75 23 DFF_X1
* cell instance $267 r0 *1 13.68,32.2
X$267 124 62 22 23 121 NAND2_X1
* cell instance $269 r0 *1 14.44,32.2
X$269 121 91 123 23 122 22 OAI21_X1
* cell instance $270 r0 *1 15.2,32.2
X$270 115 123 124 62 22 23 94 NAND4_X1
* cell instance $271 r0 *1 16.15,32.2
X$271 115 32 23 22 153 AND2_X1
* cell instance $273 r0 *1 17.29,32.2
X$273 65 115 22 23 125 NOR2_X1
* cell instance $276 m0 *1 21.85,32.2
X$276 114 63 116 23 22 108 HA_X1
* cell instance $285 m0 *1 52.25,32.2
X$285 113 22 23 LOGIC0_X1
* cell instance $286 m0 *1 52.63,32.2
X$286 113 22 23 100 BUF_X1
* cell instance $287 m0 *1 53.2,32.2
X$287 112 22 23 LOGIC0_X1
* cell instance $289 m0 *1 53.77,32.2
X$289 112 22 23 96 BUF_X1
* cell instance $290 m0 *1 54.34,32.2
X$290 119 22 23 111 BUF_X1
* cell instance $295 r0 *1 22.99,32.2
X$295 116 23 135 22 BUF_X4
* cell instance $297 r0 *1 24.7,32.2
X$297 109 110 23 22 132 XNOR2_X1
* cell instance $298 r0 *1 25.84,32.2
X$298 22 133 127 117 50 23 NOR3_X4
* cell instance $299 r0 *1 28.5,32.2
X$299 133 127 117 22 23 52 OR3_X2
* cell instance $303 r0 *1 38,32.2
X$303 154 95 118 23 22 171 HA_X1
* cell instance $307 r0 *1 52.82,32.2
X$307 131 22 23 LOGIC0_X1
* cell instance $308 r0 *1 53.2,32.2
X$308 131 22 23 129 BUF_X1
* cell instance $309 r0 *1 53.77,32.2
X$309 130 22 23 LOGIC0_X1
* cell instance $310 r0 *1 54.15,32.2
X$310 119 22 23 LOGIC0_X1
* cell instance $311 r0 *1 54.53,32.2
X$311 130 22 23 120 BUF_X1
* cell instance $317 m0 *1 13.68,35
X$317 123 91 121 22 23 150 OR3_X1
* cell instance $319 m0 *1 14.82,35
X$319 65 150 122 22 139 23 AOI21_X1
* cell instance $328 r0 *1 13.87,35
X$328 22 156 123 139 75 23 DFF_X1
* cell instance $330 m0 *1 15.96,35
X$330 62 22 23 134 INV_X1
* cell instance $331 m0 *1 16.53,35
X$331 153 140 125 22 23 126 MUX2_X1
* cell instance $335 r0 *1 17.29,35
X$335 141 91 134 22 23 140 NOR3_X1
* cell instance $337 m0 *1 19.95,35
X$337 91 65 134 22 23 138 NOR3_X1
* cell instance $340 m0 *1 21.47,35
X$340 156 31 157 23 22 159 HA_X1
* cell instance $341 m0 *1 23.37,35
X$341 157 22 23 136 BUF_X2
* cell instance $342 m0 *1 24.13,35
X$342 159 135 108 176 158 109 23 22 AOI221_X2
* cell instance $343 m0 *1 26.22,35
X$343 135 136 23 22 158 AND2_X1
* cell instance $348 r0 *1 25.46,35
X$348 22 145 159 136 142 23 AOI21_X4
* cell instance $350 m0 *1 27.55,35
X$350 127 133 22 23 161 NOR2_X2
* cell instance $351 m0 *1 28.5,35
X$351 22 133 143 145 144 23 AOI21_X4
* cell instance $355 r0 *1 28.12,35
X$355 135 22 23 143 INV_X1
* cell instance $357 r0 *1 28.69,35
X$357 145 144 143 22 23 164 NAND3_X1
* cell instance $358 r0 *1 29.45,35
X$358 145 22 23 173 INV_X1
* cell instance $360 m0 *1 33.06,35
X$360 22 154 277 138 160 23 DFF_X1
* cell instance $362 m0 *1 36.29,35
X$362 32 172 23 22 146 AND2_X1
* cell instance $366 r0 *1 36.1,35
X$366 22 146 160 165 166 23 DFF_X2
* cell instance $367 m0 *1 38.38,35
X$367 118 22 23 147 BUF_X2
* cell instance $372 r0 *1 39.71,35
X$372 171 22 23 167 INV_X2
* cell instance $375 m0 *1 51.87,35
X$375 155 22 23 LOGIC0_X1
* cell instance $377 m0 *1 52.25,35
X$377 155 22 23 148 BUF_X1
* cell instance $378 m0 *1 52.82,35
X$378 152 22 23 LOGIC0_X1
* cell instance $379 m0 *1 53.2,35
X$379 152 22 23 149 BUF_X1
* cell instance $380 m0 *1 53.77,35
X$380 151 22 23 LOGIC0_X1
* cell instance $382 m0 *1 54.34,35
X$382 151 22 23 128 BUF_X1
* cell instance $387 r0 *1 54.15,35
X$387 170 22 23 LOGIC0_X1
* cell instance $388 r0 *1 54.53,35
X$388 170 22 23 137 BUF_X1
* cell instance $431 r0 *1 20.33,26.6
X$431 22 71 75 268 63 23 DFF_X2
* cell instance $433 m0 *1 21.47,26.6
X$433 69 70 93 22 23 71 MUX2_X1
* cell instance $437 r0 *1 24.7,26.6
X$437 22 76 64 83 75 23 DFF_X1
* cell instance $438 m0 *1 25.65,26.6
X$438 64 41 31 22 23 74 NAND3_X1
* cell instance $440 m0 *1 26.41,26.6
X$440 74 39 50 22 23 70 NOR3_X1
* cell instance $446 m0 *1 52.25,26.6
X$446 73 22 23 LOGIC0_X1
* cell instance $447 m0 *1 52.63,26.6
X$447 73 22 23 60 BUF_X1
* cell instance $448 m0 *1 53.2,26.6
X$448 72 22 23 LOGIC0_X1
* cell instance $449 m0 *1 53.58,26.6
X$449 72 22 23 67 BUF_X1
* cell instance $451 m0 *1 54.34,26.6
X$451 66 22 23 68 BUF_X1
* cell instance $454 r0 *1 27.93,26.6
X$454 39 50 64 23 77 22 OAI21_X1
* cell instance $455 r0 *1 28.69,26.6
X$455 65 77 84 22 83 23 AOI21_X1
* cell instance $456 r0 *1 29.45,26.6
X$456 40 52 76 22 23 84 NAND3_X1
* cell instance $459 r0 *1 31.16,26.6
X$459 39 50 65 22 23 85 NOR3_X1
* cell instance $461 r0 *1 32.11,26.6
X$461 22 276 78 85 75 23 DFF_X1
* cell instance $462 r0 *1 35.34,26.6
X$462 32 78 23 22 87 AND2_X1
* cell instance $468 r0 *1 52.25,26.6
X$468 82 22 23 LOGIC0_X1
* cell instance $471 r0 *1 53.2,26.6
X$471 82 22 23 80 BUF_X1
* cell instance $472 r0 *1 53.77,26.6
X$472 66 22 23 LOGIC0_X1
* cell instance $473 r0 *1 54.15,26.6
X$473 81 22 23 LOGIC0_X1
* cell instance $474 r0 *1 54.53,26.6
X$474 81 22 23 79 BUF_X1
* cell instance $515 m0 *1 19.76,23.8
X$515 37 43 22 23 36 NOR2_X1
* cell instance $522 r0 *1 7.6,23.8
X$522 30 22 23 62 BUF_X1
* cell instance $526 r0 *1 16.15,23.8
X$526 22 274 43 56 75 23 DFF_X1
* cell instance $527 r0 *1 19.38,23.8
X$527 55 47 36 22 23 56 MUX2_X1
* cell instance $528 m0 *1 21.66,23.8
X$528 37 31 22 23 24 NOR2_X1
* cell instance $531 m0 *1 22.42,23.8
X$531 24 45 38 22 23 25 MUX2_X1
* cell instance $533 m0 *1 23.94,23.8
X$533 31 32 23 22 38 AND2_X1
* cell instance $537 r0 *1 21.85,23.8
X$537 37 22 23 65 CLKBUF_X3
* cell instance $541 r0 *1 25.27,23.8
X$541 63 31 51 22 23 58 NAND3_X1
* cell instance $543 r0 *1 26.22,23.8
X$543 58 39 50 22 23 47 NOR3_X1
* cell instance $545 r0 *1 27.17,23.8
X$545 64 41 49 23 22 51 HA_X1
* cell instance $552 r0 *1 29.26,23.8
X$552 40 52 51 22 23 45 NAND3_X1
* cell instance $554 r0 *1 30.21,23.8
X$554 40 52 49 22 23 57 NAND3_X1
* cell instance $556 r0 *1 31.16,23.8
X$556 39 50 41 23 59 22 OAI21_X1
* cell instance $558 r0 *1 32.11,23.8
X$558 65 59 57 22 48 23 AOI21_X1
* cell instance $560 r0 *1 33.06,23.8
X$560 22 48 75 271 41 23 DFF_X2
* cell instance $565 m0 *1 52.63,23.8
X$565 44 22 23 26 BUF_X1
* cell instance $566 m0 *1 52.25,23.8
X$566 44 22 23 LOGIC0_X1
* cell instance $567 m0 *1 53.2,23.8
X$567 46 22 23 LOGIC0_X1
* cell instance $569 m0 *1 53.77,23.8
X$569 46 22 23 34 BUF_X1
* cell instance $571 m0 *1 54.53,23.8
X$571 33 22 23 35 BUF_X1
* cell instance $574 r0 *1 52.82,23.8
X$574 54 22 23 LOGIC0_X1
* cell instance $575 r0 *1 53.2,23.8
X$575 54 22 23 61 BUF_X1
* cell instance $576 r0 *1 53.77,23.8
X$576 53 22 23 LOGIC0_X1
* cell instance $577 r0 *1 54.15,23.8
X$577 53 22 23 42 BUF_X1
* cell instance $578 r0 *1 54.72,23.8
X$578 33 22 23 LOGIC0_X1
* cell instance $586 m0 *1 16.53,40.6
X$586 191 32 23 22 185 AND2_X1
* cell instance $587 m0 *1 17.29,40.6
X$587 175 32 23 22 192 AND2_X1
* cell instance $590 m0 *1 24.89,40.6
X$590 182 41 178 23 22 142 HA_X1
* cell instance $593 m0 *1 27.74,40.6
X$593 181 22 23 177 INV_X1
* cell instance $595 m0 *1 28.31,40.6
X$595 179 22 23 199 INV_X1
* cell instance $598 m0 *1 30.97,40.6
X$598 166 199 189 23 22 187 HA_X1
* cell instance $610 r0 *1 15.77,40.6
X$610 162 32 23 22 207 AND2_X1
* cell instance $611 r0 *1 16.53,40.6
X$611 192 184 185 22 23 208 MUX2_X1
* cell instance $613 r0 *1 18.62,40.6
X$613 22 182 175 208 160 23 DFF_X1
* cell instance $616 r0 *1 25.08,40.6
X$616 22 41 176 200 177 182 23 FA_X1
* cell instance $618 r0 *1 28.31,40.6
X$618 160 22 23 278 INV_X1
* cell instance $619 r0 *1 28.69,40.6
X$619 103 22 23 160 CLKBUF_X3
* cell instance $621 r0 *1 29.83,40.6
X$621 166 199 200 22 23 186 NOR3_X1
* cell instance $625 r0 *1 32.68,40.6
X$625 194 65 22 23 195 NOR2_X1
* cell instance $626 r0 *1 33.25,40.6
X$626 187 22 23 201 INV_X1
* cell instance $627 r0 *1 33.63,40.6
X$627 22 195 160 212 188 23 DFF_X2
* cell instance $628 r0 *1 37.24,40.6
X$628 202 188 147 22 194 23 AOI21_X1
* cell instance $629 r0 *1 38,40.6
X$629 147 211 22 23 202 NOR2_X1
* cell instance $632 r0 *1 39.14,40.6
X$632 22 188 203 211 167 166 23 FA_X1
* cell instance $633 m0 *1 40.28,40.6
X$633 188 167 193 23 22 190 HA_X1
* cell instance $635 m0 *1 42.18,40.6
X$635 190 166 193 22 210 23 AOI21_X1
* cell instance $639 m0 *1 48.26,40.6
X$639 204 22 23 183 INV_X1
* cell instance $648 m0 *1 32.3,54.6
X$648 259 22 23 266 BUF_X1
* cell instance $677 r0 *1 23.37,21
X$677 22 25 75 269 31 23 DFF_X2
* cell instance $687 r0 *1 52.25,21
X$687 29 22 23 LOGIC0_X1
* cell instance $690 r0 *1 53.2,21
X$690 28 22 23 LOGIC0_X1
* cell instance $691 r0 *1 54.15,21
X$691 29 22 23 27 BUF_X1
* cell instance $701 m0 *1 12.16,43.4
X$701 22 205 160 206 162 23 DFF_X2
* cell instance $702 m0 *1 15.77,43.4
X$702 206 32 23 22 209 AND2_X1
* cell instance $704 m0 *1 16.72,43.4
X$704 207 184 209 22 23 205 MUX2_X1
* cell instance $708 m0 *1 25.84,43.4
X$708 136 176 22 23 197 XNOR2_X2
* cell instance $709 m0 *1 27.74,43.4
X$709 197 196 179 22 222 23 AOI21_X1
* cell instance $710 m0 *1 29.26,43.4
X$710 216 186 22 23 180 NAND2_X1
* cell instance $711 m0 *1 29.83,43.4
X$711 198 200 22 23 117 NAND2_X2
* cell instance $712 m0 *1 30.78,43.4
X$712 200 22 23 196 INV_X1
* cell instance $726 r0 *1 28.12,43.4
X$726 222 132 217 161 22 23 215 NOR4_X1
* cell instance $727 r0 *1 29.07,43.4
X$727 217 198 22 23 216 NOR2_X1
* cell instance $728 r0 *1 29.64,43.4
X$728 197 22 23 198 INV_X1
* cell instance $731 r0 *1 31.92,43.4
X$731 188 200 232 23 22 219 HA_X1
* cell instance $733 m0 *1 33.06,43.4
X$733 22 196 218 204 201 212 23 FA_X1
* cell instance $737 m0 *1 41.61,43.4
X$737 210 22 23 214 INV_X1
* cell instance $745 r0 *1 40.09,43.4
X$745 167 221 23 22 231 XNOR2_X1
* cell instance $815 m0 *1 26.6,54.6
X$815 255 22 23 261 BUF_X1
* cell instance $827 m0 *1 27.36,51.8
X$827 223 251 23 22 258 XNOR2_X1
* cell instance $828 m0 *1 28.5,51.8
X$828 241 161 252 23 22 248 HA_X1
* cell instance $829 m0 *1 30.4,51.8
X$829 248 252 254 22 251 23 AOI21_X1
* cell instance $844 r0 *1 29.64,51.8
X$844 252 257 22 23 256 XOR2_X1
* cell instance $846 m0 *1 32.68,51.8
X$846 253 218 249 23 254 22 OAI21_X1
* cell instance $847 m0 *1 31.54,51.8
X$847 246 218 23 22 259 XNOR2_X1
* cell instance $848 m0 *1 33.44,51.8
X$848 253 243 249 23 257 22 OAI21_X1
* cell instance $851 m0 *1 35.15,51.8
X$851 32 245 23 22 250 AND2_X1
* cell instance $852 m0 *1 35.91,51.8
X$852 22 250 160 267 241 23 DFF_X2
* cell instance $870 m0 *1 36.29,49
X$870 32 236 23 22 247 AND2_X1
* cell instance $872 m0 *1 38.57,49
X$872 244 147 241 22 23 245 MUX2_X1
* cell instance $887 r0 *1 28.88,49
X$887 161 198 22 23 240 NAND2_X1
* cell instance $890 r0 *1 30.59,49
X$890 235 198 246 23 22 242 HA_X1
* cell instance $891 r0 *1 32.49,49
X$891 246 22 23 253 INV_X1
* cell instance $892 r0 *1 32.87,49
X$892 242 22 23 249 INV_X1
* cell instance $896 r0 *1 35.91,49
X$896 22 247 160 270 235 23 DFF_X2
* cell instance $915 r0 *1 15.2,29.4
X$915 22 275 86 102 75 23 DFF_X1
* cell instance $917 m0 *1 15.58,29.4
X$917 86 91 94 22 23 101 OR3_X1
* cell instance $918 m0 *1 16.53,29.4
X$918 65 101 92 22 102 23 AOI21_X1
* cell instance $920 m0 *1 17.48,29.4
X$920 94 91 86 23 92 22 OAI21_X1
* cell instance $923 m0 *1 22.04,29.4
X$923 65 63 22 23 93 NOR2_X1
* cell instance $928 r0 *1 18.62,29.4
X$928 43 86 22 23 110 XNOR2_X2
* cell instance $931 r0 *1 25.08,29.4
X$931 103 22 23 75 CLKBUF_X3
* cell instance $934 m0 *1 35.34,29.4
X$934 22 272 95 87 75 23 DFF_X1
* cell instance $939 m0 *1 52.25,29.4
X$939 106 22 23 LOGIC0_X1
* cell instance $940 m0 *1 52.63,29.4
X$940 106 22 23 89 BUF_X1
* cell instance $942 m0 *1 53.39,29.4
X$942 107 22 23 LOGIC0_X1
* cell instance $943 m0 *1 53.77,29.4
X$943 107 22 23 99 BUF_X1
* cell instance $945 m0 *1 54.53,29.4
X$945 88 22 23 90 BUF_X1
* cell instance $951 r0 *1 52.63,29.4
X$951 105 22 23 LOGIC0_X1
* cell instance $953 r0 *1 53.2,29.4
X$953 105 22 23 98 BUF_X1
* cell instance $954 r0 *1 53.77,29.4
X$954 104 22 23 LOGIC0_X1
* cell instance $955 r0 *1 54.15,29.4
X$955 104 22 23 97 BUF_X1
* cell instance $956 r0 *1 54.72,29.4
X$956 88 22 23 LOGIC0_X1
* cell instance $991 m0 *1 15.96,37.8
X$991 91 134 22 23 184 NOR2_X1
* cell instance $992 m0 *1 16.53,37.8
X$992 162 175 123 22 23 141 NAND3_X1
* cell instance $1006 r0 *1 16.34,37.8
X$1006 162 175 191 23 22 124 HA_X1
* cell instance $1009 m0 *1 25.46,37.8
X$1009 22 135 163 173 127 23 NOR3_X4
* cell instance $1010 m0 *1 28.12,37.8
X$1010 173 163 135 23 174 22 OAI21_X1
* cell instance $1011 m0 *1 28.88,37.8
X$1011 174 164 180 132 22 23 91 AOI211_X4
* cell instance $1016 r0 *1 25.46,37.8
X$1016 136 177 178 23 22 163 AND3_X1
* cell instance $1017 r0 *1 26.41,37.8
X$1017 178 177 136 22 23 144 NAND3_X2
* cell instance $1018 r0 *1 27.74,37.8
X$1018 162 76 179 23 22 181 HA_X1
* cell instance $1021 m0 *1 38.38,37.8
X$1021 165 147 166 22 23 172 MUX2_X1
* cell instance $1029 r0 *1 47.88,37.8
X$1029 189 22 23 169 BUF_X1
* cell instance $1032 r0 *1 49.4,37.8
X$1032 183 22 23 168 BUF_X1
.ENDS pipelined_fifo

* cell NAND4_X1
* pin A4
* pin A3
* pin A2
* pin A1
* pin PWELL,VSS
* pin NWELL,VDD
* pin ZN
.SUBCKT NAND4_X1 1 2 3 4 5 6 7
* net 1 A4
* net 2 A3
* net 3 A2
* net 4 A1
* net 5 PWELL,VSS
* net 6 NWELL,VDD
* net 7 ZN
* device instance $1 r0 *1 0.17,0.995 PMOS_VTL
M$1 7 1 6 6 PMOS_VTL L=0.05U W=0.63U AS=0.06615P AD=0.0441P PS=1.47U PD=0.77U
* device instance $2 r0 *1 0.36,0.995 PMOS_VTL
M$2 6 2 7 6 PMOS_VTL L=0.05U W=0.63U AS=0.0441P AD=0.0441P PS=0.77U PD=0.77U
* device instance $3 r0 *1 0.55,0.995 PMOS_VTL
M$3 7 3 6 6 PMOS_VTL L=0.05U W=0.63U AS=0.0441P AD=0.0441P PS=0.77U PD=0.77U
* device instance $4 r0 *1 0.74,0.995 PMOS_VTL
M$4 6 4 7 6 PMOS_VTL L=0.05U W=0.63U AS=0.0441P AD=0.06615P PS=0.77U PD=1.47U
* device instance $5 r0 *1 0.17,0.2975 NMOS_VTL
M$5 10 1 5 5 NMOS_VTL L=0.05U W=0.415U AS=0.043575P AD=0.02905P PS=1.04U
+ PD=0.555U
* device instance $6 r0 *1 0.36,0.2975 NMOS_VTL
M$6 9 2 10 5 NMOS_VTL L=0.05U W=0.415U AS=0.02905P AD=0.02905P PS=0.555U
+ PD=0.555U
* device instance $7 r0 *1 0.55,0.2975 NMOS_VTL
M$7 8 3 9 5 NMOS_VTL L=0.05U W=0.415U AS=0.02905P AD=0.02905P PS=0.555U
+ PD=0.555U
* device instance $8 r0 *1 0.74,0.2975 NMOS_VTL
M$8 7 4 8 5 NMOS_VTL L=0.05U W=0.415U AS=0.02905P AD=0.043575P PS=0.555U
+ PD=1.04U
.ENDS NAND4_X1

* cell AND3_X1
* pin A1
* pin A2
* pin A3
* pin NWELL,VDD
* pin PWELL,VSS
* pin ZN
.SUBCKT AND3_X1 1 2 3 5 6 7
* net 1 A1
* net 2 A2
* net 3 A3
* net 5 NWELL,VDD
* net 6 PWELL,VSS
* net 7 ZN
* device instance $1 r0 *1 0.17,1.1525 PMOS_VTL
M$1 5 1 4 5 PMOS_VTL L=0.05U W=0.315U AS=0.033075P AD=0.02205P PS=0.84U
+ PD=0.455U
* device instance $2 r0 *1 0.36,1.1525 PMOS_VTL
M$2 4 2 5 5 PMOS_VTL L=0.05U W=0.315U AS=0.02205P AD=0.02205P PS=0.455U
+ PD=0.455U
* device instance $3 r0 *1 0.55,1.1525 PMOS_VTL
M$3 4 3 5 5 PMOS_VTL L=0.05U W=0.315U AS=0.033075P AD=0.02205P PS=0.77U
+ PD=0.455U
* device instance $4 r0 *1 0.74,0.995 PMOS_VTL
M$4 7 4 5 5 PMOS_VTL L=0.05U W=0.63U AS=0.033075P AD=0.06615P PS=0.77U PD=1.47U
* device instance $5 r0 *1 0.17,0.195 NMOS_VTL
M$5 8 1 4 6 NMOS_VTL L=0.05U W=0.21U AS=0.02205P AD=0.0147P PS=0.63U PD=0.35U
* device instance $6 r0 *1 0.36,0.195 NMOS_VTL
M$6 9 2 8 6 NMOS_VTL L=0.05U W=0.21U AS=0.0147P AD=0.0147P PS=0.35U PD=0.35U
* device instance $7 r0 *1 0.55,0.195 NMOS_VTL
M$7 6 3 9 6 NMOS_VTL L=0.05U W=0.21U AS=0.0147P AD=0.021875P PS=0.35U PD=0.555U
* device instance $8 r0 *1 0.74,0.2975 NMOS_VTL
M$8 7 4 6 6 NMOS_VTL L=0.05U W=0.415U AS=0.021875P AD=0.043575P PS=0.555U
+ PD=1.04U
.ENDS AND3_X1

* cell NAND3_X2
* pin A3
* pin A2
* pin A1
* pin PWELL,VSS
* pin NWELL,VDD
* pin ZN
.SUBCKT NAND3_X2 1 2 3 4 5 6
* net 1 A3
* net 2 A2
* net 3 A1
* net 4 PWELL,VSS
* net 5 NWELL,VDD
* net 6 ZN
* device instance $1 r0 *1 0.21,0.995 PMOS_VTL
M$1 6 1 5 5 PMOS_VTL L=0.05U W=1.26U AS=0.11025P AD=0.11025P PS=2.24U PD=2.24U
* device instance $2 r0 *1 0.4,0.995 PMOS_VTL
M$2 5 2 6 5 PMOS_VTL L=0.05U W=1.26U AS=0.0882P AD=0.0882P PS=1.54U PD=1.54U
* device instance $3 r0 *1 0.59,0.995 PMOS_VTL
M$3 6 3 5 5 PMOS_VTL L=0.05U W=1.26U AS=0.0882P AD=0.0882P PS=1.54U PD=1.54U
* device instance $7 r0 *1 0.21,0.2975 NMOS_VTL
M$7 10 1 4 4 NMOS_VTL L=0.05U W=0.415U AS=0.043575P AD=0.02905P PS=1.04U
+ PD=0.555U
* device instance $8 r0 *1 0.4,0.2975 NMOS_VTL
M$8 9 2 10 4 NMOS_VTL L=0.05U W=0.415U AS=0.02905P AD=0.02905P PS=0.555U
+ PD=0.555U
* device instance $9 r0 *1 0.59,0.2975 NMOS_VTL
M$9 6 3 9 4 NMOS_VTL L=0.05U W=0.415U AS=0.02905P AD=0.02905P PS=0.555U
+ PD=0.555U
* device instance $10 r0 *1 0.78,0.2975 NMOS_VTL
M$10 8 3 6 4 NMOS_VTL L=0.05U W=0.415U AS=0.02905P AD=0.02905P PS=0.555U
+ PD=0.555U
* device instance $11 r0 *1 0.97,0.2975 NMOS_VTL
M$11 7 2 8 4 NMOS_VTL L=0.05U W=0.415U AS=0.02905P AD=0.02905P PS=0.555U
+ PD=0.555U
* device instance $12 r0 *1 1.16,0.2975 NMOS_VTL
M$12 4 1 7 4 NMOS_VTL L=0.05U W=0.415U AS=0.02905P AD=0.043575P PS=0.555U
+ PD=1.04U
.ENDS NAND3_X2

* cell BUF_X4
* pin A
* pin NWELL,VDD
* pin Z
* pin PWELL,VSS
.SUBCKT BUF_X4 1 3 4 5
* net 1 A
* net 3 NWELL,VDD
* net 4 Z
* net 5 PWELL,VSS
* device instance $1 r0 *1 0.17,0.995 PMOS_VTL
M$1 2 1 3 3 PMOS_VTL L=0.05U W=1.26U AS=0.11025P AD=0.0882P PS=2.24U PD=1.54U
* device instance $3 r0 *1 0.55,0.995 PMOS_VTL
M$3 4 2 3 3 PMOS_VTL L=0.05U W=2.52U AS=0.1764P AD=0.19845P PS=3.08U PD=3.78U
* device instance $7 r0 *1 0.17,0.2975 NMOS_VTL
M$7 2 1 5 5 NMOS_VTL L=0.05U W=0.83U AS=0.072625P AD=0.0581P PS=1.595U PD=1.11U
* device instance $9 r0 *1 0.55,0.2975 NMOS_VTL
M$9 4 2 5 5 NMOS_VTL L=0.05U W=1.66U AS=0.1162P AD=0.130725P PS=2.22U PD=2.705U
.ENDS BUF_X4

* cell XOR2_X2
* pin B
* pin A
* pin NWELL,VDD
* pin Z
* pin PWELL,VSS
.SUBCKT XOR2_X2 1 2 4 5 7
* net 1 B
* net 2 A
* net 4 NWELL,VDD
* net 5 Z
* net 7 PWELL,VSS
* device instance $1 r0 *1 0.2,0.995 PMOS_VTL
M$1 8 2 3 4 PMOS_VTL L=0.05U W=0.63U AS=0.06615P AD=0.0441P PS=1.47U PD=0.77U
* device instance $2 r0 *1 0.39,0.995 PMOS_VTL
M$2 4 1 8 4 PMOS_VTL L=0.05U W=0.63U AS=0.0441P AD=0.0441P PS=0.77U PD=0.77U
* device instance $3 r0 *1 0.58,0.995 PMOS_VTL
M$3 6 3 4 4 PMOS_VTL L=0.05U W=1.26U AS=0.0882P AD=0.11025P PS=1.54U PD=2.24U
* device instance $4 r0 *1 0.77,0.995 PMOS_VTL
M$4 5 2 6 4 PMOS_VTL L=0.05U W=1.26U AS=0.0882P AD=0.0882P PS=1.54U PD=1.54U
* device instance $5 r0 *1 0.96,0.995 PMOS_VTL
M$5 6 1 5 4 PMOS_VTL L=0.05U W=1.26U AS=0.0882P AD=0.0882P PS=1.54U PD=1.54U
* device instance $9 r0 *1 0.2,0.2975 NMOS_VTL
M$9 3 2 7 7 NMOS_VTL L=0.05U W=0.415U AS=0.043575P AD=0.02905P PS=1.04U
+ PD=0.555U
* device instance $10 r0 *1 0.39,0.2975 NMOS_VTL
M$10 7 1 3 7 NMOS_VTL L=0.05U W=0.415U AS=0.02905P AD=0.02905P PS=0.555U
+ PD=0.555U
* device instance $11 r0 *1 0.58,0.2975 NMOS_VTL
M$11 5 3 7 7 NMOS_VTL L=0.05U W=0.83U AS=0.0581P AD=0.072625P PS=1.11U PD=1.595U
* device instance $12 r0 *1 0.77,0.2975 NMOS_VTL
M$12 10 2 5 7 NMOS_VTL L=0.05U W=0.415U AS=0.02905P AD=0.02905P PS=0.555U
+ PD=0.555U
* device instance $13 r0 *1 0.96,0.2975 NMOS_VTL
M$13 7 1 10 7 NMOS_VTL L=0.05U W=0.415U AS=0.02905P AD=0.02905P PS=0.555U
+ PD=0.555U
* device instance $14 r0 *1 1.15,0.2975 NMOS_VTL
M$14 9 1 7 7 NMOS_VTL L=0.05U W=0.415U AS=0.02905P AD=0.02905P PS=0.555U
+ PD=0.555U
* device instance $15 r0 *1 1.34,0.2975 NMOS_VTL
M$15 5 2 9 7 NMOS_VTL L=0.05U W=0.415U AS=0.02905P AD=0.02905P PS=0.555U
+ PD=0.555U
.ENDS XOR2_X2

* cell AOI221_X2
* pin B1
* pin B2
* pin A
* pin C2
* pin C1
* pin ZN
* pin NWELL,VDD
* pin PWELL,VSS
.SUBCKT AOI221_X2 1 2 3 4 5 6 8 9
* net 1 B1
* net 2 B2
* net 3 A
* net 4 C2
* net 5 C1
* net 6 ZN
* net 8 NWELL,VDD
* net 9 PWELL,VSS
* device instance $1 r0 *1 0.17,0.995 PMOS_VTL
M$1 7 3 10 8 PMOS_VTL L=0.05U W=1.26U AS=0.11025P AD=0.09135P PS=2.24U PD=1.55U
* device instance $2 r0 *1 0.36,0.995 PMOS_VTL
M$2 8 1 7 8 PMOS_VTL L=0.05U W=1.26U AS=0.0882P AD=0.0882P PS=1.54U PD=1.54U
* device instance $3 r0 *1 0.55,0.995 PMOS_VTL
M$3 7 2 8 8 PMOS_VTL L=0.05U W=1.26U AS=0.0882P AD=0.0882P PS=1.54U PD=1.54U
* device instance $7 r0 *1 1.32,0.995 PMOS_VTL
M$7 6 4 10 8 PMOS_VTL L=0.05U W=1.26U AS=0.09135P AD=0.11025P PS=1.55U PD=2.24U
* device instance $8 r0 *1 1.51,0.995 PMOS_VTL
M$8 10 5 6 8 PMOS_VTL L=0.05U W=1.26U AS=0.0882P AD=0.0882P PS=1.54U PD=1.54U
* device instance $11 r0 *1 0.17,0.2975 NMOS_VTL
M$11 6 3 9 9 NMOS_VTL L=0.05U W=0.83U AS=0.072625P AD=0.060175P PS=1.595U
+ PD=1.12U
* device instance $12 r0 *1 0.36,0.2975 NMOS_VTL
M$12 14 1 6 9 NMOS_VTL L=0.05U W=0.415U AS=0.02905P AD=0.02905P PS=0.555U
+ PD=0.555U
* device instance $13 r0 *1 0.55,0.2975 NMOS_VTL
M$13 9 2 14 9 NMOS_VTL L=0.05U W=0.415U AS=0.02905P AD=0.02905P PS=0.555U
+ PD=0.555U
* device instance $14 r0 *1 0.74,0.2975 NMOS_VTL
M$14 13 2 9 9 NMOS_VTL L=0.05U W=0.415U AS=0.02905P AD=0.02905P PS=0.555U
+ PD=0.555U
* device instance $15 r0 *1 0.93,0.2975 NMOS_VTL
M$15 6 1 13 9 NMOS_VTL L=0.05U W=0.415U AS=0.02905P AD=0.02905P PS=0.555U
+ PD=0.555U
* device instance $17 r0 *1 1.32,0.2975 NMOS_VTL
M$17 12 4 9 9 NMOS_VTL L=0.05U W=0.415U AS=0.031125P AD=0.02905P PS=0.565U
+ PD=0.555U
* device instance $18 r0 *1 1.51,0.2975 NMOS_VTL
M$18 6 5 12 9 NMOS_VTL L=0.05U W=0.415U AS=0.02905P AD=0.02905P PS=0.555U
+ PD=0.555U
* device instance $19 r0 *1 1.7,0.2975 NMOS_VTL
M$19 11 5 6 9 NMOS_VTL L=0.05U W=0.415U AS=0.02905P AD=0.02905P PS=0.555U
+ PD=0.555U
* device instance $20 r0 *1 1.89,0.2975 NMOS_VTL
M$20 9 4 11 9 NMOS_VTL L=0.05U W=0.415U AS=0.02905P AD=0.043575P PS=0.555U
+ PD=1.04U
.ENDS AOI221_X2

* cell XNOR2_X2
* pin A
* pin B
* pin PWELL,VSS
* pin NWELL,VDD
* pin ZN
.SUBCKT XNOR2_X2 2 3 4 5 7
* net 2 A
* net 3 B
* net 4 PWELL,VSS
* net 5 NWELL,VDD
* net 7 ZN
* device instance $1 r0 *1 1.135,0.995 PMOS_VTL
M$1 7 2 8 5 PMOS_VTL L=0.05U W=0.63U AS=0.06615P AD=0.0441P PS=1.47U PD=0.77U
* device instance $2 r0 *1 1.325,0.995 PMOS_VTL
M$2 9 2 7 5 PMOS_VTL L=0.05U W=0.63U AS=0.0441P AD=0.0441P PS=0.77U PD=0.77U
* device instance $3 r0 *1 1.515,0.995 PMOS_VTL
M$3 5 3 9 5 PMOS_VTL L=0.05U W=0.63U AS=0.0441P AD=0.0441P PS=0.77U PD=0.77U
* device instance $4 r0 *1 1.705,0.995 PMOS_VTL
M$4 8 3 5 5 PMOS_VTL L=0.05U W=0.63U AS=0.0441P AD=0.06615P PS=0.77U PD=1.47U
* device instance $5 r0 *1 0.18,0.995 PMOS_VTL
M$5 7 1 5 5 PMOS_VTL L=0.05U W=1.26U AS=0.11025P AD=0.0882P PS=2.24U PD=1.54U
* device instance $7 r0 *1 0.56,0.995 PMOS_VTL
M$7 1 3 5 5 PMOS_VTL L=0.05U W=0.63U AS=0.0441P AD=0.0441P PS=0.77U PD=0.77U
* device instance $8 r0 *1 0.75,0.995 PMOS_VTL
M$8 5 2 1 5 PMOS_VTL L=0.05U W=0.63U AS=0.0441P AD=0.06615P PS=0.77U PD=1.47U
* device instance $9 r0 *1 1.135,0.2975 NMOS_VTL
M$9 6 2 7 4 NMOS_VTL L=0.05U W=0.83U AS=0.072625P AD=0.0581P PS=1.595U PD=1.11U
* device instance $11 r0 *1 1.515,0.2975 NMOS_VTL
M$11 6 3 7 4 NMOS_VTL L=0.05U W=0.83U AS=0.0581P AD=0.072625P PS=1.11U PD=1.595U
* device instance $13 r0 *1 0.18,0.2975 NMOS_VTL
M$13 6 1 4 4 NMOS_VTL L=0.05U W=0.83U AS=0.072625P AD=0.0581P PS=1.595U PD=1.11U
* device instance $15 r0 *1 0.56,0.2975 NMOS_VTL
M$15 10 3 4 4 NMOS_VTL L=0.05U W=0.415U AS=0.02905P AD=0.02905P PS=0.555U
+ PD=0.555U
* device instance $16 r0 *1 0.75,0.2975 NMOS_VTL
M$16 1 2 10 4 NMOS_VTL L=0.05U W=0.415U AS=0.02905P AD=0.043575P PS=0.555U
+ PD=1.04U
.ENDS XNOR2_X2

* cell INV_X2
* pin A
* pin PWELL,VSS
* pin NWELL,VDD
* pin ZN
.SUBCKT INV_X2 1 2 3 4
* net 1 A
* net 2 PWELL,VSS
* net 3 NWELL,VDD
* net 4 ZN
* device instance $1 r0 *1 0.185,0.995 PMOS_VTL
M$1 4 1 3 3 PMOS_VTL L=0.05U W=1.26U AS=0.11025P AD=0.11025P PS=2.24U PD=2.24U
* device instance $3 r0 *1 0.185,0.2975 NMOS_VTL
M$3 4 1 2 2 NMOS_VTL L=0.05U W=0.83U AS=0.072625P AD=0.072625P PS=1.595U
+ PD=1.595U
.ENDS INV_X2

* cell OR3_X2
* pin A1
* pin A2
* pin A3
* pin PWELL,VSS
* pin NWELL,VDD
* pin ZN
.SUBCKT OR3_X2 1 2 3 5 6 7
* net 1 A1
* net 2 A2
* net 3 A3
* net 5 PWELL,VSS
* net 6 NWELL,VDD
* net 7 ZN
* device instance $1 r0 *1 0.17,0.995 PMOS_VTL
M$1 9 1 4 6 PMOS_VTL L=0.05U W=0.63U AS=0.06615P AD=0.0441P PS=1.47U PD=0.77U
* device instance $2 r0 *1 0.36,0.995 PMOS_VTL
M$2 8 2 9 6 PMOS_VTL L=0.05U W=0.63U AS=0.0441P AD=0.0441P PS=0.77U PD=0.77U
* device instance $3 r0 *1 0.55,0.995 PMOS_VTL
M$3 6 3 8 6 PMOS_VTL L=0.05U W=0.63U AS=0.0441P AD=0.0441P PS=0.77U PD=0.77U
* device instance $4 r0 *1 0.74,0.995 PMOS_VTL
M$4 7 4 6 6 PMOS_VTL L=0.05U W=1.26U AS=0.0882P AD=0.11025P PS=1.54U PD=2.24U
* device instance $6 r0 *1 0.17,0.2975 NMOS_VTL
M$6 5 1 4 5 NMOS_VTL L=0.05U W=0.415U AS=0.043575P AD=0.02905P PS=1.04U
+ PD=0.555U
* device instance $7 r0 *1 0.36,0.2975 NMOS_VTL
M$7 4 2 5 5 NMOS_VTL L=0.05U W=0.415U AS=0.02905P AD=0.02905P PS=0.555U
+ PD=0.555U
* device instance $8 r0 *1 0.55,0.2975 NMOS_VTL
M$8 5 3 4 5 NMOS_VTL L=0.05U W=0.415U AS=0.02905P AD=0.02905P PS=0.555U
+ PD=0.555U
* device instance $9 r0 *1 0.74,0.2975 NMOS_VTL
M$9 7 4 5 5 NMOS_VTL L=0.05U W=0.83U AS=0.0581P AD=0.072625P PS=1.11U PD=1.595U
.ENDS OR3_X2

* cell AOI21_X4
* pin PWELL,VSS
* pin ZN
* pin A
* pin B2
* pin B1
* pin NWELL,VDD
.SUBCKT AOI21_X4 1 2 3 4 5 11
* net 1 PWELL,VSS
* net 2 ZN
* net 3 A
* net 4 B2
* net 5 B1
* net 11 NWELL,VDD
* device instance $1 r0 *1 0.185,0.995 PMOS_VTL