
* cell bist_controller
* pin mem_write
* pin bist_start
* pin mem_enable
* pin bist_done
* pin mem_wdata[31]
* pin mem_addr[4]
* pin mem_addr[0]
* pin mem_addr[2]
* pin mem_addr[3]
* pin mem_wdata[29]
* pin mem_wdata[18]
* pin mem_wdata[1]
* pin mem_wdata[3]
* pin mem_wdata[8]
* pin mem_addr[1]
* pin mem_wdata[0]
* pin mem_wdata[20]
* pin mem_wdata[19]
* pin mem_wdata[7]
* pin mem_wdata[6]
* pin mem_wdata[16]
* pin mem_wdata[11]
* pin mem_wdata[14]
* pin mem_wdata[30]
* pin mem_wdata[2]
* pin mem_wdata[5]
* pin mem_wdata[26]
* pin mem_rdata[28]
* pin error_addr[3]
* pin error_addr[1]
* pin mem_rdata[17]
* pin mem_wdata[13]
* pin mem_rdata[31]
* pin mem_rdata[23]
* pin mem_wdata[25]
* pin mem_rdata[25]
* pin mem_rdata[19]
* pin mem_wdata[17]
* pin mem_rdata[20]
* pin mem_wdata[22]
* pin error_addr[2]
* pin mem_rdata[30]
* pin mem_rdata[27]
* pin mem_rdata[26]
* pin mem_rdata[18]
* pin mem_rdata[24]
* pin mem_rdata[22]
* pin error_addr[4]
* pin mem_wdata[10]
* pin mem_wdata[4]
* pin mem_rdata[29]
* pin mem_rdata[21]
* pin mem_wdata[21]
* pin mem_rdata[16]
* pin mem_wdata[28]
* pin mem_wdata[12]
* pin bist_pass
* pin mem_rdata[0]
* pin mem_rdata[3]
* pin mem_wdata[24]
* pin mem_rdata[1]
* pin mem_rdata[5]
* pin mem_wdata[15]
* pin mem_wdata[27]
* pin mem_wdata[23]
* pin mem_wdata[9]
* pin mem_rdata[7]
* pin mem_rdata[2]
* pin error_addr[0]
* pin mem_rdata[4]
* pin mem_rdata[12]
* pin mem_rdata[6]
* pin mem_rdata[15]
* pin mem_rdata[14]
* pin mem_rdata[8]
* pin mem_rdata[9]
* pin mem_rdata[11]
* pin mem_rdata[13]
* pin error_count[28]
* pin mem_rdata[10]
* pin rst_n
* pin clk
* pin error_count[29]
* pin error_count[27]
* pin error_count[7]
* pin error_count[6]
* pin error_count[8]
* pin error_count[26]
* pin error_count[5]
* pin error_count[25]
* pin error_count[2]
* pin error_count[24]
* pin error_count[23]
* pin error_count[3]
* pin error_count[4]
* pin error_count[18]
* pin error_count[10]
* pin error_count[13]
* pin error_count[1]
* pin error_count[17]
* pin error_count[11]
* pin error_count[12]
* pin error_count[21]
* pin error_count[14]
* pin error_count[22]
* pin error_count[9]
* pin error_count[20]
* pin error_count[15]
* pin error_count[30]
* pin error_count[0]
* pin error_count[16]
* pin error_count[31]
* pin error_count[19]
* pin NWELL
* pin PWELL,gf180mcu_gnd
.SUBCKT bist_controller 1 2 3 4 5 6 7 8 9 10 11 12 13 14 15 16 40 56 69 84 106
+ 107 120 122 123 159 161 164 170 187 193 198 201 202 210 213 214 222 225 231
+ 233 235 236 245 246 247 248 255 256 258 262 263 267 272 278 279 281 284 285
+ 290 293 294 301 302 303 304 310 311 318 319 326 327 328 329 337 338 339 340
+ 347 349 359 361 371 399 403 415 424 431 437 450 453 463 464 471 472 581 588
+ 591 592 593 594 595 596 597 598 599 600 601 602 603 604 605 606 607 608
* net 1 mem_write
* net 2 bist_start
* net 3 mem_enable
* net 4 bist_done
* net 5 mem_wdata[31]
* net 6 mem_addr[4]
* net 7 mem_addr[0]
* net 8 mem_addr[2]
* net 9 mem_addr[3]
* net 10 mem_wdata[29]
* net 11 mem_wdata[18]
* net 12 mem_wdata[1]
* net 13 mem_wdata[3]
* net 14 mem_wdata[8]
* net 15 mem_addr[1]
* net 16 mem_wdata[0]
* net 40 mem_wdata[20]
* net 56 mem_wdata[19]
* net 69 mem_wdata[7]
* net 84 mem_wdata[6]
* net 106 mem_wdata[16]
* net 107 mem_wdata[11]
* net 120 mem_wdata[14]
* net 122 mem_wdata[30]
* net 123 mem_wdata[2]
* net 159 mem_wdata[5]
* net 161 mem_wdata[26]
* net 164 mem_rdata[28]
* net 170 error_addr[3]
* net 187 error_addr[1]
* net 193 mem_rdata[17]
* net 198 mem_wdata[13]
* net 201 mem_rdata[31]
* net 202 mem_rdata[23]
* net 210 mem_wdata[25]
* net 213 mem_rdata[25]
* net 214 mem_rdata[19]
* net 222 mem_wdata[17]
* net 225 mem_rdata[20]
* net 231 mem_wdata[22]
* net 233 error_addr[2]
* net 235 mem_rdata[30]
* net 236 mem_rdata[27]
* net 245 mem_rdata[26]
* net 246 mem_rdata[18]
* net 247 mem_rdata[24]
* net 248 mem_rdata[22]
* net 255 error_addr[4]
* net 256 mem_wdata[10]
* net 258 mem_wdata[4]
* net 262 mem_rdata[29]
* net 263 mem_rdata[21]
* net 267 mem_wdata[21]
* net 272 mem_rdata[16]
* net 278 mem_wdata[28]
* net 279 mem_wdata[12]
* net 281 bist_pass
* net 284 mem_rdata[0]
* net 285 mem_rdata[3]
* net 290 mem_wdata[24]
* net 293 mem_rdata[1]
* net 294 mem_rdata[5]
* net 301 mem_wdata[15]
* net 302 mem_wdata[27]
* net 303 mem_wdata[23]
* net 304 mem_wdata[9]
* net 310 mem_rdata[7]
* net 311 mem_rdata[2]
* net 318 error_addr[0]
* net 319 mem_rdata[4]
* net 326 mem_rdata[12]
* net 327 mem_rdata[6]
* net 328 mem_rdata[15]
* net 329 mem_rdata[14]
* net 337 mem_rdata[8]
* net 338 mem_rdata[9]
* net 339 mem_rdata[11]
* net 340 mem_rdata[13]
* net 347 error_count[28]
* net 349 mem_rdata[10]
* net 359 rst_n
* net 361 clk
* net 371 error_count[29]
* net 399 error_count[27]
* net 403 error_count[7]
* net 415 error_count[6]
* net 424 error_count[8]
* net 431 error_count[26]
* net 437 error_count[5]
* net 450 error_count[25]
* net 453 error_count[2]
* net 463 error_count[24]
* net 464 error_count[23]
* net 471 error_count[3]
* net 472 error_count[4]
* net 581 error_count[18]
* net 588 error_count[10]
* net 591 error_count[13]
* net 592 error_count[1]
* net 593 error_count[17]
* net 594 error_count[11]
* net 595 error_count[12]
* net 596 error_count[21]
* net 597 error_count[14]
* net 598 error_count[22]
* net 599 error_count[9]
* net 600 error_count[20]
* net 601 error_count[15]
* net 602 error_count[30]
* net 603 error_count[0]
* net 604 error_count[16]
* net 605 error_count[31]
* net 606 error_count[19]
* net 607 NWELL
* net 608 PWELL,gf180mcu_gnd
* cell instance $3 r0 *1 47.04,5.04
X$3 23 607 608 1 gf180mcu_fd_sc_mcu9t5v0__dlyb_2
* cell instance $7 r0 *1 82.32,5.04
X$7 2 607 608 88 gf180mcu_fd_sc_mcu9t5v0__buf_2
* cell instance $11 r0 *1 91.28,5.04
X$11 24 607 608 3 gf180mcu_fd_sc_mcu9t5v0__dlyb_2
* cell instance $16 m0 *1 114.8,15.12
X$16 18 607 608 4 gf180mcu_fd_sc_mcu9t5v0__dlyb_2
* cell instance $19 r0 *1 122.08,5.04
X$19 20 607 608 5 gf180mcu_fd_sc_mcu9t5v0__dlyb_2
* cell instance $23 m0 *1 123.76,15.12
X$23 28 607 608 6 gf180mcu_fd_sc_mcu9t5v0__dlyb_2
* cell instance $27 m0 *1 155.12,15.12
X$27 29 607 608 7 gf180mcu_fd_sc_mcu9t5v0__dlyb_2
* cell instance $32 r0 *1 148.96,5.04
X$32 26 607 608 8 gf180mcu_fd_sc_mcu9t5v0__dlyb_2
* cell instance $35 r0 *1 140.56,5.04
X$35 19 607 608 9 gf180mcu_fd_sc_mcu9t5v0__dlyb_2
* cell instance $39 r0 *1 181.44,5.04
X$39 22 607 608 10 gf180mcu_fd_sc_mcu9t5v0__dlyb_2
* cell instance $43 r0 *1 173.04,15.12
X$43 42 607 608 11 gf180mcu_fd_sc_mcu9t5v0__dlyb_2
* cell instance $47 m0 *1 180.32,15.12
X$47 30 607 608 12 gf180mcu_fd_sc_mcu9t5v0__dlyb_2
* cell instance $51 r0 *1 194.88,15.12
X$51 55 607 608 13 gf180mcu_fd_sc_mcu9t5v0__dlyb_2
* cell instance $55 r0 *1 190.4,5.04
X$55 21 607 608 14 gf180mcu_fd_sc_mcu9t5v0__dlyb_2
* cell instance $59 r0 *1 184.24,15.12
X$59 68 607 608 15 gf180mcu_fd_sc_mcu9t5v0__dlyb_2
* cell instance $63 m0 *1 188.72,15.12
X$63 41 607 608 16 gf180mcu_fd_sc_mcu9t5v0__dlyb_2
* cell instance $66 m0 *1 39.2,85.68
X$66 608 25 206 17 250 607 gf180mcu_fd_sc_mcu9t5v0__dffrnq_2
* cell instance $68 m0 *1 86.24,15.12
X$68 608 25 61 17 43 607 gf180mcu_fd_sc_mcu9t5v0__dffrnq_4
* cell instance $71 r0 *1 73.36,65.52
X$71 608 25 93 17 207 607 gf180mcu_fd_sc_mcu9t5v0__dffrnq_4
* cell instance $74 r0 *1 105.84,65.52
X$74 608 17 607 gf180mcu_fd_sc_mcu9t5v0__clkbuf_12
* cell instance $79 r0 *1 29.68,65.52
X$79 608 25 47 17 223 607 gf180mcu_fd_sc_mcu9t5v0__dffrnq_4
* cell instance $82 r0 *1 75.04,95.76
X$82 608 25 288 17 251 607 gf180mcu_fd_sc_mcu9t5v0__dffrnq_2
* cell instance $84 m0 *1 99.68,85.68
X$84 608 25 218 17 270 607 gf180mcu_fd_sc_mcu9t5v0__dffrnq_4
* cell instance $86 r0 *1 32.48,45.36
X$86 608 25 23 17 136 607 gf180mcu_fd_sc_mcu9t5v0__dffrnq_2
* cell instance $88 r0 *1 140.56,65.52
X$88 608 25 28 17 224 607 gf180mcu_fd_sc_mcu9t5v0__dffrnq_2
* cell instance $99 m0 *1 103.6,75.6
X$99 608 607 230 17 gf180mcu_fd_sc_mcu9t5v0__clkbuf_4
* cell instance $101 r0 *1 101.92,5.04
X$101 608 25 18 17 58 607 gf180mcu_fd_sc_mcu9t5v0__dffrnq_2
* cell instance $103 m0 *1 111.44,15.12
X$103 608 607 18 34 gf180mcu_fd_sc_mcu9t5v0__clkinv_2
* cell instance $110 r0 *1 187.04,45.36
X$110 608 607 157 158 169 19 gf180mcu_fd_sc_mcu9t5v0__mux2_2
* cell instance $112 m0 *1 137.2,15.12
X$112 607 36 608 45 26 19 27 gf180mcu_fd_sc_mcu9t5v0__oai31_2
* cell instance $115 r0 *1 152.88,35.28
X$115 608 607 19 115 gf180mcu_fd_sc_mcu9t5v0__clkinv_2
* cell instance $121 m0 *1 147.28,15.12
X$121 19 26 27 28 607 608 44 gf180mcu_fd_sc_mcu9t5v0__or4_2
* cell instance $124 m0 *1 174.16,45.36
X$124 608 25 19 96 108 607 gf180mcu_fd_sc_mcu9t5v0__dffrnq_2
* cell instance $149 m0 *1 206.64,35.28
X$149 20 607 608 97 gf180mcu_fd_sc_mcu9t5v0__dlyb_2
* cell instance $151 r0 *1 198.24,55.44
X$151 20 607 608 132 gf180mcu_fd_sc_mcu9t5v0__dlyb_2
* cell instance $153 r0 *1 204.4,15.12
X$153 20 607 608 105 gf180mcu_fd_sc_mcu9t5v0__dlyb_2
* cell instance $157 r0 *1 206.64,45.36
X$157 20 607 608 160 gf180mcu_fd_sc_mcu9t5v0__dlyb_2
* cell instance $159 r0 *1 206.64,55.44
X$159 20 607 608 197 gf180mcu_fd_sc_mcu9t5v0__dlyb_2
* cell instance $161 m0 *1 210,45.36
X$161 20 607 608 121 gf180mcu_fd_sc_mcu9t5v0__dlyb_2
* cell instance $163 r0 *1 201.6,5.04
X$163 20 607 608 21 gf180mcu_fd_sc_mcu9t5v0__dlyb_2
* cell instance $166 r0 *1 215.04,5.04
X$166 20 607 608 31 gf180mcu_fd_sc_mcu9t5v0__dlyb_2
* cell instance $169 m0 *1 201.6,15.12
X$169 20 607 608 41 gf180mcu_fd_sc_mcu9t5v0__dlyb_2
* cell instance $171 m0 *1 171.92,15.12
X$171 20 607 608 42 gf180mcu_fd_sc_mcu9t5v0__dlyb_2
* cell instance $173 m0 *1 183.68,35.28
X$173 20 607 608 104 gf180mcu_fd_sc_mcu9t5v0__dlyb_2
* cell instance $175 r0 *1 184.8,25.2
X$175 20 607 608 87 gf180mcu_fd_sc_mcu9t5v0__dlyb_2
* cell instance $178 m0 *1 190.4,25.2
X$178 20 607 608 55 gf180mcu_fd_sc_mcu9t5v0__dlyb_2
* cell instance $180 r0 *1 164.64,5.04
X$180 20 607 608 22 gf180mcu_fd_sc_mcu9t5v0__dlyb_2
* cell instance $183 m0 *1 210,105.84
X$183 20 607 608 323 gf180mcu_fd_sc_mcu9t5v0__dlyb_2
* cell instance $185 r0 *1 173.04,5.04
X$185 20 607 608 30 gf180mcu_fd_sc_mcu9t5v0__dlyb_2
* cell instance $188 m0 *1 210,95.76
X$188 20 607 608 280 gf180mcu_fd_sc_mcu9t5v0__dlyb_2
* cell instance $190 m0 *1 201.6,95.76
X$190 20 607 608 254 gf180mcu_fd_sc_mcu9t5v0__dlyb_2
* cell instance $192 r0 *1 201.6,95.76
X$192 20 607 608 307 gf180mcu_fd_sc_mcu9t5v0__dlyb_2
* cell instance $194 m0 *1 206.64,85.68
X$194 20 607 608 257 gf180mcu_fd_sc_mcu9t5v0__dlyb_2
* cell instance $197 r0 *1 198.24,45.36
X$197 20 607 608 119 gf180mcu_fd_sc_mcu9t5v0__dlyb_2
* cell instance $199 r0 *1 202.72,65.52
X$199 20 607 608 209 gf180mcu_fd_sc_mcu9t5v0__dlyb_2
* cell instance $201 m0 *1 206.64,75.6
X$201 20 607 608 232 gf180mcu_fd_sc_mcu9t5v0__dlyb_2
* cell instance $203 m0 *1 187.04,105.84
X$203 20 607 608 317 gf180mcu_fd_sc_mcu9t5v0__dlyb_2
* cell instance $205 r0 *1 194.32,65.52
X$205 20 607 608 188 gf180mcu_fd_sc_mcu9t5v0__dlyb_2
* cell instance $207 r0 *1 189.28,85.68
X$207 20 607 608 289 gf180mcu_fd_sc_mcu9t5v0__clkbuf_2
* cell instance $209 r0 *1 196,85.68
X$209 20 607 608 253 gf180mcu_fd_sc_mcu9t5v0__clkbuf_2
* cell instance $211 r0 *1 201.6,25.2
X$211 20 607 608 85 gf180mcu_fd_sc_mcu9t5v0__dlyb_2
* cell instance $214 m0 *1 215.04,75.6
X$214 20 607 608 221 gf180mcu_fd_sc_mcu9t5v0__dlyb_2
* cell instance $216 m0 *1 206.64,25.2
X$216 20 607 608 57 gf180mcu_fd_sc_mcu9t5v0__dlyb_2
* cell instance $218 m0 *1 196,85.68
X$218 20 607 608 266 gf180mcu_fd_sc_mcu9t5v0__clkbuf_2
* cell instance $220 r0 *1 117.04,85.68
X$220 607 608 33 20 217 gf180mcu_fd_sc_mcu9t5v0__nand2_4
* cell instance $230 m0 *1 49.28,55.44
X$230 607 608 173 165 191 23 133 174 gf180mcu_fd_sc_mcu9t5v0__oai32_2
* cell instance $232 m0 *1 71.12,55.44
X$232 608 95 607 176 23 153 gf180mcu_fd_sc_mcu9t5v0__aoi21_2
* cell instance $234 r0 *1 73.92,25.2
X$234 608 607 93 78 23 gf180mcu_fd_sc_mcu9t5v0__nand2_2
* cell instance $236 m0 *1 66.08,35.28
X$236 608 607 23 92 gf180mcu_fd_sc_mcu9t5v0__clkinv_2
* cell instance $238 m0 *1 57.68,45.36
X$238 608 607 23 138 76 gf180mcu_fd_sc_mcu9t5v0__nand2_2
* cell instance $248 m0 *1 58.24,25.2
X$248 75 608 23 76 607 70 gf180mcu_fd_sc_mcu9t5v0__or3_2
* cell instance $250 r0 *1 71.68,15.12
X$250 608 607 46 47 93 23 gf180mcu_fd_sc_mcu9t5v0__mux2_2
* cell instance $252 m0 *1 86.24,75.6
X$252 607 94 608 128 24 217 gf180mcu_fd_sc_mcu9t5v0__oai21_2
* cell instance $259 r0 *1 188.72,115.92
X$259 608 360 25 607 gf180mcu_fd_sc_mcu9t5v0__buf_20
* cell instance $316 m0 *1 145.6,216.72
X$316 608 25 507 398 579 607 gf180mcu_fd_sc_mcu9t5v0__dffrnq_2
* cell instance $319 r0 *1 194.32,146.16
X$319 608 25 443 398 465 607 gf180mcu_fd_sc_mcu9t5v0__dffrnq_2
* cell instance $321 m0 *1 180.88,115.92
X$321 608 25 346 96 345 607 gf180mcu_fd_sc_mcu9t5v0__dffrnq_2
* cell instance $324 r0 *1 182.56,126
X$324 608 25 386 398 387 607 gf180mcu_fd_sc_mcu9t5v0__dffrnq_2
* cell instance $326 m0 *1 70.56,176.4
X$326 608 25 502 336 521 607 gf180mcu_fd_sc_mcu9t5v0__dffrnq_2
* cell instance $329 m0 *1 181.44,166.32
X$329 608 25 461 398 488 607 gf180mcu_fd_sc_mcu9t5v0__dffrnq_2
* cell instance $334 m0 *1 118.16,216.72
X$334 608 25 529 398 589 607 gf180mcu_fd_sc_mcu9t5v0__dffrnq_2
* cell instance $336 r0 *1 142.8,85.68
X$336 608 25 277 96 271 607 gf180mcu_fd_sc_mcu9t5v0__dffrnq_2
* cell instance $339 r0 *1 141.68,115.92
X$339 608 25 356 96 357 607 gf180mcu_fd_sc_mcu9t5v0__dffrnq_2
* cell instance $342 r0 *1 38.08,105.84
X$342 608 25 344 336 362 607 gf180mcu_fd_sc_mcu9t5v0__dffrnq_2
* cell instance $344 r0 *1 22.96,206.64
X$344 608 25 533 336 586 607 gf180mcu_fd_sc_mcu9t5v0__dffrnq_2
* cell instance $347 r0 *1 152.32,206.64
X$347 608 25 528 398 565 607 gf180mcu_fd_sc_mcu9t5v0__dffrnq_2
* cell instance $350 r0 *1 42,206.64
X$350 608 25 539 336 575 607 gf180mcu_fd_sc_mcu9t5v0__dffrnq_2
* cell instance $354 r0 *1 188.72,196.56
X$354 608 25 530 398 568 607 gf180mcu_fd_sc_mcu9t5v0__dffrnq_2
* cell instance $356 m0 *1 181.44,55.44
X$356 608 25 158 96 157 607 gf180mcu_fd_sc_mcu9t5v0__dffrnq_2
* cell instance $358 m0 *1 52.64,216.72
X$358 608 25 537 336 569 607 gf180mcu_fd_sc_mcu9t5v0__dffrnq_2
* cell instance $360 r0 *1 171.36,206.64
X$360 608 25 517 398 580 607 gf180mcu_fd_sc_mcu9t5v0__dffrnq_2
* cell instance $363 m0 *1 47.04,176.4
X$363 608 25 456 336 490 607 gf180mcu_fd_sc_mcu9t5v0__dffrnq_2
* cell instance $366 m0 *1 61.04,126
X$366 608 25 373 336 381 607 gf180mcu_fd_sc_mcu9t5v0__dffrnq_2
* cell instance $368 m0 *1 97.44,216.72
X$368 608 25 549 336 577 607 gf180mcu_fd_sc_mcu9t5v0__dffrnq_2
* cell instance $370 m0 *1 71.68,216.72
X$370 608 25 540 336 587 607 gf180mcu_fd_sc_mcu9t5v0__dffrnq_2
* cell instance $372 r0 *1 162.4,25.2
X$372 608 25 68 96 82 607 gf180mcu_fd_sc_mcu9t5v0__dffrnq_2
* cell instance $374 r0 *1 190.96,176.4
X$374 608 25 462 398 494 607 gf180mcu_fd_sc_mcu9t5v0__dffrnq_2
* cell instance $376 r0 *1 19.6,156.24
X$376 608 25 447 336 481 607 gf180mcu_fd_sc_mcu9t5v0__dffrnq_2
* cell instance $379 r0 *1 192.64,136.08
X$379 608 25 423 398 432 607 gf180mcu_fd_sc_mcu9t5v0__dffrnq_2
* cell instance $381 m0 *1 18.48,186.48
X$381 608 25 523 336 531 607 gf180mcu_fd_sc_mcu9t5v0__dffrnq_2
* cell instance $383 m0 *1 156.8,95.76
X$383 608 25 300 96 309 607 gf180mcu_fd_sc_mcu9t5v0__dffrnq_2
* cell instance $385 m0 *1 173.04,65.52
X$385 608 25 172 96 186 607 gf180mcu_fd_sc_mcu9t5v0__dffrnq_2
* cell instance $387 m0 *1 173.04,85.68
X$387 608 25 241 96 252 607 gf180mcu_fd_sc_mcu9t5v0__dffrnq_2
* cell instance $389 r0 *1 81.76,136.08
X$389 608 25 419 336 417 607 gf180mcu_fd_sc_mcu9t5v0__dffrnq_2
* cell instance $392 m0 *1 166.88,75.6
X$392 608 25 208 96 220 607 gf180mcu_fd_sc_mcu9t5v0__dffrnq_2
* cell instance $395 m0 *1 80.64,126
X$395 608 25 375 336 374 607 gf180mcu_fd_sc_mcu9t5v0__dffrnq_2
* cell instance $397 r0 *1 124.32,146.16
X$397 608 25 420 398 436 607 gf180mcu_fd_sc_mcu9t5v0__dffrnq_2
* cell instance $400 m0 *1 63.28,146.16
X$400 608 25 406 336 434 607 gf180mcu_fd_sc_mcu9t5v0__dffrnq_2
* cell instance $403 m0 *1 146.16,65.52
X$403 608 25 26 96 168 607 gf180mcu_fd_sc_mcu9t5v0__dffrnq_2
* cell instance $405 r0 *1 106.4,126
X$405 608 25 396 336 402 607 gf180mcu_fd_sc_mcu9t5v0__dffrnq_2
* cell instance $407 m0 *1 147.84,75.6
X$407 608 25 29 96 118 607 gf180mcu_fd_sc_mcu9t5v0__dffrnq_2
* cell instance $410 r0 *1 145.04,156.24
X$410 608 25 411 398 499 607 gf180mcu_fd_sc_mcu9t5v0__dffrnq_2
* cell instance $412 m0 *1 21.28,136.08
X$412 608 25 393 336 413 607 gf180mcu_fd_sc_mcu9t5v0__dffrnq_2
* cell instance $418 m0 *1 106.96,186.48
X$418 608 25 503 398 514 607 gf180mcu_fd_sc_mcu9t5v0__dffrnq_2
* cell instance $420 r0 *1 109.2,156.24
X$420 608 25 470 398 459 607 gf180mcu_fd_sc_mcu9t5v0__dffrnq_2
* cell instance $422 r0 *1 167.44,65.52
X$422 608 607 220 208 169 26 gf180mcu_fd_sc_mcu9t5v0__mux2_2
* cell instance $426 r0 *1 141.68,35.28
X$426 608 607 26 116 gf180mcu_fd_sc_mcu9t5v0__clkinv_2
* cell instance $429 r0 *1 146.16,45.36
X$429 26 607 144 135 608 149 gf180mcu_fd_sc_mcu9t5v0__and3_2
* cell instance $432 m0 *1 159.04,55.44
X$432 26 607 29 68 608 145 gf180mcu_fd_sc_mcu9t5v0__and3_2
* cell instance $443 r0 *1 142.24,25.2
X$443 607 26 608 91 117 50 gf180mcu_fd_sc_mcu9t5v0__oai21_2
* cell instance $445 r0 *1 164.08,55.44
X$445 26 608 29 68 607 175 gf180mcu_fd_sc_mcu9t5v0__or3_2
* cell instance $449 r0 *1 151.76,15.12
X$449 608 607 37 27 gf180mcu_fd_sc_mcu9t5v0__clkinv_2
* cell instance $452 m0 *1 134.4,45.36
X$452 607 608 144 89 152 27 131 51 gf180mcu_fd_sc_mcu9t5v0__oai32_2
* cell instance $454 m0 *1 139.44,25.2
X$454 608 607 27 101 36 gf180mcu_fd_sc_mcu9t5v0__nand2_2
* cell instance $462 r0 *1 175.84,75.6
X$462 608 607 252 241 169 28 gf180mcu_fd_sc_mcu9t5v0__mux2_2
* cell instance $464 m0 *1 136.08,65.52
X$464 608 607 28 196 gf180mcu_fd_sc_mcu9t5v0__clkinv_2
* cell instance $477 m0 *1 117.04,55.44
X$477 608 114 28 179 607 gf180mcu_fd_sc_mcu9t5v0__addh_2
* cell instance $479 m0 *1 163.52,15.12
X$479 608 607 29 39 gf180mcu_fd_sc_mcu9t5v0__clkinv_2
* cell instance $482 m0 *1 148.96,35.28
X$482 607 110 608 118 109 29 67 gf180mcu_fd_sc_mcu9t5v0__oai31_2
* cell instance $485 m0 *1 152.88,45.36
X$485 134 608 607 29 68 611 gf180mcu_fd_sc_mcu9t5v0__addh_1
* cell instance $498 r0 *1 158.48,95.76
X$498 608 607 309 300 324 29 gf180mcu_fd_sc_mcu9t5v0__mux2_2
* cell instance $500 r0 *1 150.08,25.2
X$500 607 29 608 100 110 50 gf180mcu_fd_sc_mcu9t5v0__oai21_2
* cell instance $509 m0 *1 215.04,15.12
X$509 31 607 608 40 gf180mcu_fd_sc_mcu9t5v0__dlyb_2
* cell instance $513 m0 *1 79.52,15.12
X$513 607 33 73 608 32 gf180mcu_fd_sc_mcu9t5v0__and2_2
* cell instance $515 r0 *1 82.88,15.12
X$515 608 607 43 32 74 61 gf180mcu_fd_sc_mcu9t5v0__mux2_2
* cell instance $519 r0 *1 123.2,15.12
X$519 608 50 607 38 49 33 gf180mcu_fd_sc_mcu9t5v0__aoi21_2
* cell instance $522 r0 *1 130.48,15.12
X$522 608 50 607 35 59 33 gf180mcu_fd_sc_mcu9t5v0__aoi21_2
* cell instance $525 r0 *1 84,85.68
X$525 608 607 94 288 33 gf180mcu_fd_sc_mcu9t5v0__nor2_4
* cell instance $530 m0 *1 81.76,95.76
X$530 608 607 98 308 33 gf180mcu_fd_sc_mcu9t5v0__nand2_2
* cell instance $536 m0 *1 108.08,25.2
X$536 607 90 608 80 58 34 gf180mcu_fd_sc_mcu9t5v0__oai21_2
* cell instance $540 r0 *1 128.24,65.52
X$540 607 608 67 165 219 196 224 35 gf180mcu_fd_sc_mcu9t5v0__oai32_2
* cell instance $543 r0 *1 115.92,25.2
X$543 95 607 66 36 608 89 gf180mcu_fd_sc_mcu9t5v0__nor3_4
* cell instance $549 r0 *1 140.56,15.12
X$549 607 608 44 51 36 gf180mcu_fd_sc_mcu9t5v0__nand2_4
* cell instance $552 r0 *1 158.48,15.12
X$552 37 608 607 39 52 71 gf180mcu_fd_sc_mcu9t5v0__addh_1
* cell instance $557 m0 *1 157.36,25.2
X$557 607 52 608 38 72 82 67 gf180mcu_fd_sc_mcu9t5v0__oai22_2
* cell instance $559 r0 *1 156.8,35.28
X$559 607 67 608 124 38 108 115 gf180mcu_fd_sc_mcu9t5v0__oai22_2
* cell instance $583 m0 *1 132.16,15.12
X$583 608 607 48 59 45 gf180mcu_fd_sc_mcu9t5v0__nand2_2
* cell instance $586 m0 *1 67.2,25.2
X$586 608 607 60 62 46 gf180mcu_fd_sc_mcu9t5v0__nand2_2
* cell instance $590 r0 *1 53.2,85.68
X$590 608 607 47 127 gf180mcu_fd_sc_mcu9t5v0__clkinv_4
* cell instance $593 m0 *1 89.04,45.36
X$593 608 94 607 111 129 75 47 gf180mcu_fd_sc_mcu9t5v0__aoi22_2
* cell instance $595 r0 *1 102.48,95.76
X$595 608 47 607 291 316 142 217 gf180mcu_fd_sc_mcu9t5v0__aoi22_2
* cell instance $607 m0 *1 58.8,35.28
X$607 608 102 47 607 98 77 gf180mcu_fd_sc_mcu9t5v0__nand3_2
* cell instance $610 m0 *1 43.68,75.6
X$610 607 205 608 184 223 47 gf180mcu_fd_sc_mcu9t5v0__oai21_2
* cell instance $612 m0 *1 44.8,65.52
X$612 607 47 608 185 205 165 gf180mcu_fd_sc_mcu9t5v0__oai21_2
* cell instance $614 r0 *1 134.96,25.2
X$614 608 81 607 91 101 48 gf180mcu_fd_sc_mcu9t5v0__aoi21_2
* cell instance $616 r0 *1 119.84,15.12
X$616 608 607 48 49 gf180mcu_fd_sc_mcu9t5v0__clkinv_2
* cell instance $622 m0 *1 134.4,35.28
X$622 608 81 607 100 53 48 gf180mcu_fd_sc_mcu9t5v0__aoi21_2
* cell instance $624 m0 *1 115.92,25.2
X$624 608 61 66 607 48 gf180mcu_fd_sc_mcu9t5v0__or2_2
* cell instance $627 m0 *1 122.64,25.2
X$627 608 49 81 50 607 67 gf180mcu_fd_sc_mcu9t5v0__or3_4
* cell instance $641 m0 *1 90.16,25.2
X$641 65 608 64 79 607 50 gf180mcu_fd_sc_mcu9t5v0__or3_2
* cell instance $648 r0 *1 168,15.12
X$648 607 53 51 608 54 gf180mcu_fd_sc_mcu9t5v0__and2_2
* cell instance $650 m0 *1 159.04,35.28
X$650 607 51 83 608 109 gf180mcu_fd_sc_mcu9t5v0__and2_2
* cell instance $653 m0 *1 94.64,55.44
X$653 608 51 178 156 155 607 gf180mcu_fd_sc_mcu9t5v0__nand3_4
* cell instance $663 m0 *1 85.68,55.44
X$663 608 177 51 77 98 607 155 gf180mcu_fd_sc_mcu9t5v0__nand4_2
* cell instance $665 m0 *1 166.32,45.36
X$665 607 53 608 146 147 51 gf180mcu_fd_sc_mcu9t5v0__oai21_2
* cell instance $671 r0 *1 155.12,15.12
X$671 608 607 68 52 gf180mcu_fd_sc_mcu9t5v0__clkinv_2
* cell instance $678 m0 *1 115.36,45.36
X$678 608 53 114 607 66 142 gf180mcu_fd_sc_mcu9t5v0__nand3_2
* cell instance $686 m0 *1 167.44,25.2
X$686 608 607 72 83 71 54 gf180mcu_fd_sc_mcu9t5v0__mux2_2
* cell instance $691 r0 *1 193.2,25.2
X$691 87 607 608 56 gf180mcu_fd_sc_mcu9t5v0__dlyb_2
* cell instance $694 r0 *1 215.04,15.12
X$694 57 607 608 69 gf180mcu_fd_sc_mcu9t5v0__dlyb_2
* cell instance $702 r0 *1 78.96,55.44
X$702 608 607 199 177 95 60 gf180mcu_fd_sc_mcu9t5v0__mux2_2
* cell instance $704 m0 *1 61.6,55.44
X$704 60 75 112 174 165 607 608 gf180mcu_fd_sc_mcu9t5v0__aoi211_2
* cell instance $706 r0 *1 66.08,65.52
X$706 608 607 75 227 60 gf180mcu_fd_sc_mcu9t5v0__nand2_2
* cell instance $709 m0 *1 63.28,45.36
X$709 607 92 60 608 125 gf180mcu_fd_sc_mcu9t5v0__and2_2
* cell instance $712 r0 *1 56,25.2
X$712 607 60 86 92 102 75 608 gf180mcu_fd_sc_mcu9t5v0__oai211_2
* cell instance $720 r0 *1 58.24,65.52
X$720 607 206 218 608 60 gf180mcu_fd_sc_mcu9t5v0__and2_2
* cell instance $723 r0 *1 78.96,25.2
X$723 608 60 78 607 99 gf180mcu_fd_sc_mcu9t5v0__or2_2
* cell instance $726 r0 *1 58.24,55.44
X$726 608 607 77 190 61 gf180mcu_fd_sc_mcu9t5v0__nand2_2
* cell instance $730 m0 *1 78.4,55.44
X$730 608 607 61 140 gf180mcu_fd_sc_mcu9t5v0__clkinv_2
* cell instance $732 r0 *1 65.52,25.2
X$732 608 607 63 92 75 61 gf180mcu_fd_sc_mcu9t5v0__mux2_2
* cell instance $734 r0 *1 108.08,45.36
X$734 114 61 89 141 95 607 608 gf180mcu_fd_sc_mcu9t5v0__aoi211_2
* cell instance $736 r0 *1 58.24,15.12
X$736 608 61 607 65 86 70 gf180mcu_fd_sc_mcu9t5v0__aoi21_2
* cell instance $746 r0 *1 50.4,55.44
X$746 165 61 137 185 607 608 184 gf180mcu_fd_sc_mcu9t5v0__or4_2
* cell instance $750 r0 *1 104.16,35.28
X$750 607 61 608 114 113 93 gf180mcu_fd_sc_mcu9t5v0__oai21_2
* cell instance $753 m0 *1 72.24,25.2
X$753 607 608 63 98 62 77 73 78 gf180mcu_fd_sc_mcu9t5v0__oai221_2
* cell instance $757 r0 *1 84.56,25.2
X$757 608 89 607 79 99 62 gf180mcu_fd_sc_mcu9t5v0__aoi21_2
* cell instance $765 m0 *1 84.56,25.2
X$765 608 607 74 65 64 gf180mcu_fd_sc_mcu9t5v0__nor2_2
* cell instance $769 m0 *1 76.72,45.36
X$769 607 608 126 127 128 98 64 129 gf180mcu_fd_sc_mcu9t5v0__oai221_2
* cell instance $778 m0 *1 109.76,65.52
X$778 608 607 218 98 66 gf180mcu_fd_sc_mcu9t5v0__nor2_4
* cell instance $784 m0 *1 108.64,55.44
X$784 607 66 608 166 178 141 gf180mcu_fd_sc_mcu9t5v0__oai21_2
* cell instance $787 r0 *1 117.6,45.36
X$787 114 607 66 142 608 150 gf180mcu_fd_sc_mcu9t5v0__and3_2
* cell instance $800 m0 *1 145.6,55.44
X$800 607 117 608 163 168 67 gf180mcu_fd_sc_mcu9t5v0__oai21_2
* cell instance $812 r0 *1 181.44,55.44
X$812 608 607 186 172 169 68 gf180mcu_fd_sc_mcu9t5v0__mux2_2
* cell instance $835 m0 *1 98.56,25.2
X$835 608 607 93 75 gf180mcu_fd_sc_mcu9t5v0__buf_4
* cell instance $837 r0 *1 71.12,55.44
X$837 608 607 75 195 156 gf180mcu_fd_sc_mcu9t5v0__nand2_2
* cell instance $842 r0 *1 84.56,45.36
X$842 98 607 75 140 608 151 gf180mcu_fd_sc_mcu9t5v0__and3_2
* cell instance $846 m0 *1 102.48,45.36
X$846 153 608 75 114 607 130 gf180mcu_fd_sc_mcu9t5v0__or3_2
* cell instance $862 r0 *1 54.88,45.36
X$862 608 125 607 137 138 75 gf180mcu_fd_sc_mcu9t5v0__aoi21_2
* cell instance $868 m0 *1 70.56,75.6
X$868 607 95 76 608 229 gf180mcu_fd_sc_mcu9t5v0__and2_2
* cell instance $875 m0 *1 57.12,75.6
X$875 608 607 206 76 218 gf180mcu_fd_sc_mcu9t5v0__nand2_2
* cell instance $878 m0 *1 68.32,45.36
X$878 608 607 126 76 95 77 gf180mcu_fd_sc_mcu9t5v0__mux2_2
* cell instance $882 m0 *1 122.08,75.6
X$882 77 607 95 212 608 234 gf180mcu_fd_sc_mcu9t5v0__and3_2
* cell instance $885 m0 *1 111.44,75.6
X$885 608 607 218 77 gf180mcu_fd_sc_mcu9t5v0__buf_4
* cell instance $888 m0 *1 119.84,65.52
X$888 98 608 77 95 607 143 gf180mcu_fd_sc_mcu9t5v0__or3_2
* cell instance $891 r0 *1 101.92,45.36
X$891 607 77 113 608 162 gf180mcu_fd_sc_mcu9t5v0__and2_2
* cell instance $896 m0 *1 95.2,75.6
X$896 217 77 165 156 607 608 260 gf180mcu_fd_sc_mcu9t5v0__or4_2
* cell instance $911 r0 *1 92.96,75.6
X$911 607 77 608 261 239 156 gf180mcu_fd_sc_mcu9t5v0__oai21_2
* cell instance $920 r0 *1 76.72,75.6
X$920 608 607 251 244 128 80 gf180mcu_fd_sc_mcu9t5v0__mux2_2
* cell instance $926 m0 *1 103.04,65.52
X$926 607 88 103 608 80 gf180mcu_fd_sc_mcu9t5v0__and2_2
* cell instance $933 r0 *1 105.28,25.2
X$933 608 89 94 607 81 gf180mcu_fd_sc_mcu9t5v0__or2_2
* cell instance $943 r0 *1 166.88,35.28
X$943 608 607 135 83 gf180mcu_fd_sc_mcu9t5v0__clkinv_2
* cell instance $946 m0 *1 215.04,25.2
X$946 85 607 608 84 gf180mcu_fd_sc_mcu9t5v0__dlyb_2
* cell instance $963 m0 *1 76.72,75.6
X$963 608 93 607 228 88 153 gf180mcu_fd_sc_mcu9t5v0__aoi21_2
* cell instance $965 r0 *1 108.08,55.44
X$965 89 607 95 88 608 166 gf180mcu_fd_sc_mcu9t5v0__and3_2
* cell instance $967 r0 *1 90.16,35.28
X$967 608 607 88 111 gf180mcu_fd_sc_mcu9t5v0__clkinv_2
* cell instance $977 r0 *1 124.88,75.6
X$977 607 103 608 88 240 165 gf180mcu_fd_sc_mcu9t5v0__oai21_2
* cell instance $982 m0 *1 126.56,45.36
X$982 608 89 607 135 130 143 gf180mcu_fd_sc_mcu9t5v0__aoi21_2
* cell instance $985 m0 *1 86.8,105.84
X$985 608 607 288 89 gf180mcu_fd_sc_mcu9t5v0__buf_4
* cell instance $987 r0 *1 80.64,105.84
X$987 608 607 229 89 330 gf180mcu_fd_sc_mcu9t5v0__nor2_4
* cell instance $992 m0 *1 120.96,85.68
X$992 608 607 89 165 gf180mcu_fd_sc_mcu9t5v0__buf_4
* cell instance $1009 r0 *1 90.72,105.84
X$1009 608 229 89 607 331 gf180mcu_fd_sc_mcu9t5v0__or2_4
* cell instance $1015 r0 *1 134.4,85.68
X$1015 607 276 608 292 271 90 gf180mcu_fd_sc_mcu9t5v0__oai21_2
* cell instance $1017 r0 *1 119.84,75.6
X$1017 608 607 165 90 103 gf180mcu_fd_sc_mcu9t5v0__nand2_2
* cell instance $1035 r0 *1 91.84,25.2
X$1035 608 607 93 95 gf180mcu_fd_sc_mcu9t5v0__inv_4
* cell instance $1041 r0 *1 68.32,95.76
X$1041 608 607 217 299 93 gf180mcu_fd_sc_mcu9t5v0__nand2_2
* cell instance $1043 m0 *1 104.16,95.76
X$1043 607 128 93 608 142 gf180mcu_fd_sc_mcu9t5v0__and2_2
* cell instance $1045 r0 *1 105.28,75.6
X$1045 218 607 93 103 608 98 gf180mcu_fd_sc_mcu9t5v0__nor3_4
* cell instance $1047 m0 *1 84.56,85.68
X$1047 608 607 93 218 94 gf180mcu_fd_sc_mcu9t5v0__nor2_4
* cell instance $1097 r0 *1 149.52,75.6
X$1097 608 607 230 96 gf180mcu_fd_sc_mcu9t5v0__clkbuf_4
* cell instance $1100 r0 *1 145.04,75.6
X$1100 608 607 96 609 gf180mcu_fd_sc_mcu9t5v0__inv_3
* cell instance $1128 r0 *1 213.36,25.2
X$1128 97 607 608 123 gf180mcu_fd_sc_mcu9t5v0__dlyb_2
* cell instance $1132 m0 *1 58.24,85.68
X$1132 608 607 206 98 gf180mcu_fd_sc_mcu9t5v0__buf_4
* cell instance $1146 m0 *1 71.12,85.68
X$1146 607 98 608 228 229 265 127 gf180mcu_fd_sc_mcu9t5v0__oai22_2
* cell instance $1181 r0 *1 93.52,35.28
X$1181 607 111 103 608 112 gf180mcu_fd_sc_mcu9t5v0__and2_2
* cell instance $1185 m0 *1 192.08,35.28
X$1185 104 607 608 107 gf180mcu_fd_sc_mcu9t5v0__dlyb_2
* cell instance $1187 m0 *1 215.04,35.28
X$1187 105 607 608 106 gf180mcu_fd_sc_mcu9t5v0__dlyb_2
* cell instance $1212 r0 *1 90.72,45.36
X$1212 607 128 608 155 151 162 112 gf180mcu_fd_sc_mcu9t5v0__oai31_2
* cell instance $1232 m0 *1 165.2,55.44
X$1232 607 115 175 608 146 gf180mcu_fd_sc_mcu9t5v0__xnor2_2
* cell instance $1239 r0 *1 165.2,45.36
X$1239 607 115 145 608 148 gf180mcu_fd_sc_mcu9t5v0__xnor2_2
* cell instance $1241 m0 *1 138.88,55.44
X$1241 115 608 116 144 607 167 gf180mcu_fd_sc_mcu9t5v0__or3_2
* cell instance $1243 r0 *1 133.84,45.36
X$1243 131 116 149 163 150 607 608 gf180mcu_fd_sc_mcu9t5v0__aoi211_2
* cell instance $1255 r0 *1 206.64,35.28
X$1255 119 607 608 120 gf180mcu_fd_sc_mcu9t5v0__dlyb_2
* cell instance $1259 r0 *1 215.04,35.28
X$1259 121 607 608 122 gf180mcu_fd_sc_mcu9t5v0__dlyb_2
* cell instance $1267 r0 *1 174.72,45.36
X$1267 608 147 607 124 148 135 gf180mcu_fd_sc_mcu9t5v0__aoi21_2
* cell instance $1271 r0 *1 66.64,45.36
X$1271 608 139 176 125 127 140 607 gf180mcu_fd_sc_mcu9t5v0__oai211_4
* cell instance $1283 m0 *1 49.28,95.76
X$1283 608 127 607 305 306 283 gf180mcu_fd_sc_mcu9t5v0__aoi21_2
* cell instance $1290 m0 *1 63.28,75.6
X$1290 608 229 607 191 227 127 gf180mcu_fd_sc_mcu9t5v0__aoi21_2
* cell instance $1295 r0 *1 87.92,75.6
X$1295 607 217 128 608 261 gf180mcu_fd_sc_mcu9t5v0__and2_2
* cell instance $1298 m0 *1 87.36,95.76
X$1298 608 607 288 128 gf180mcu_fd_sc_mcu9t5v0__inv_3
* cell instance $1312 m0 *1 63.84,95.76
X$1312 608 315 308 291 265 128 607 gf180mcu_fd_sc_mcu9t5v0__oai211_4
* cell instance $1318 r0 *1 128.8,45.36
X$1318 607 143 130 608 152 gf180mcu_fd_sc_mcu9t5v0__and2_2
* cell instance $1327 m0 *1 201.6,45.36