* CDL Netlist generated by OpenROAD

*.BUSDELIMITER [

.SUBCKT parameterized_fft busy clk data_in_imag[0] data_in_imag[10]
+ data_in_imag[11] data_in_imag[12] data_in_imag[13] data_in_imag[14]
+ data_in_imag[15] data_in_imag[1] data_in_imag[2] data_in_imag[3]
+ data_in_imag[4] data_in_imag[5] data_in_imag[6] data_in_imag[7]
+ data_in_imag[8] data_in_imag[9] data_in_real[0] data_in_real[10]
+ data_in_real[11] data_in_real[12] data_in_real[13] data_in_real[14]
+ data_in_real[15] data_in_real[1] data_in_real[2] data_in_real[3]
+ data_in_real[4] data_in_real[5] data_in_real[6] data_in_real[7]
+ data_in_real[8] data_in_real[9] data_out_imag[0] data_out_imag[100]
+ data_out_imag[101] data_out_imag[102] data_out_imag[103] data_out_imag[104]
+ data_out_imag[105] data_out_imag[106] data_out_imag[107] data_out_imag[108]
+ data_out_imag[109] data_out_imag[10] data_out_imag[110] data_out_imag[111]
+ data_out_imag[112] data_out_imag[113] data_out_imag[114] data_out_imag[115]
+ data_out_imag[116] data_out_imag[117] data_out_imag[118] data_out_imag[119]
+ data_out_imag[11] data_out_imag[120] data_out_imag[121] data_out_imag[122]
+ data_out_imag[123] data_out_imag[124] data_out_imag[125] data_out_imag[126]
+ data_out_imag[127] data_out_imag[12] data_out_imag[13] data_out_imag[14]
+ data_out_imag[15] data_out_imag[16] data_out_imag[17] data_out_imag[18]
+ data_out_imag[19] data_out_imag[1] data_out_imag[20] data_out_imag[21]
+ data_out_imag[22] data_out_imag[23] data_out_imag[24] data_out_imag[25]
+ data_out_imag[26] data_out_imag[27] data_out_imag[28] data_out_imag[29]
+ data_out_imag[2] data_out_imag[30] data_out_imag[31] data_out_imag[32]
+ data_out_imag[33] data_out_imag[34] data_out_imag[35] data_out_imag[36]
+ data_out_imag[37] data_out_imag[38] data_out_imag[39] data_out_imag[3]
+ data_out_imag[40] data_out_imag[41] data_out_imag[42] data_out_imag[43]
+ data_out_imag[44] data_out_imag[45] data_out_imag[46] data_out_imag[47]
+ data_out_imag[48] data_out_imag[49] data_out_imag[4] data_out_imag[50]
+ data_out_imag[51] data_out_imag[52] data_out_imag[53] data_out_imag[54]
+ data_out_imag[55] data_out_imag[56] data_out_imag[57] data_out_imag[58]
+ data_out_imag[59] data_out_imag[5] data_out_imag[60] data_out_imag[61]
+ data_out_imag[62] data_out_imag[63] data_out_imag[64] data_out_imag[65]
+ data_out_imag[66] data_out_imag[67] data_out_imag[68] data_out_imag[69]
+ data_out_imag[6] data_out_imag[70] data_out_imag[71] data_out_imag[72]
+ data_out_imag[73] data_out_imag[74] data_out_imag[75] data_out_imag[76]
+ data_out_imag[77] data_out_imag[78] data_out_imag[79] data_out_imag[7]
+ data_out_imag[80] data_out_imag[81] data_out_imag[82] data_out_imag[83]
+ data_out_imag[84] data_out_imag[85] data_out_imag[86] data_out_imag[87]
+ data_out_imag[88] data_out_imag[89] data_out_imag[8] data_out_imag[90]
+ data_out_imag[91] data_out_imag[92] data_out_imag[93] data_out_imag[94]
+ data_out_imag[95] data_out_imag[96] data_out_imag[97] data_out_imag[98]
+ data_out_imag[99] data_out_imag[9] data_out_real[0] data_out_real[100]
+ data_out_real[101] data_out_real[102] data_out_real[103] data_out_real[104]
+ data_out_real[105] data_out_real[106] data_out_real[107] data_out_real[108]
+ data_out_real[109] data_out_real[10] data_out_real[110] data_out_real[111]
+ data_out_real[112] data_out_real[113] data_out_real[114] data_out_real[115]
+ data_out_real[116] data_out_real[117] data_out_real[118] data_out_real[119]
+ data_out_real[11] data_out_real[120] data_out_real[121] data_out_real[122]
+ data_out_real[123] data_out_real[124] data_out_real[125] data_out_real[126]
+ data_out_real[127] data_out_real[12] data_out_real[13] data_out_real[14]
+ data_out_real[15] data_out_real[16] data_out_real[17] data_out_real[18]
+ data_out_real[19] data_out_real[1] data_out_real[20] data_out_real[21]
+ data_out_real[22] data_out_real[23] data_out_real[24] data_out_real[25]
+ data_out_real[26] data_out_real[27] data_out_real[28] data_out_real[29]
+ data_out_real[2] data_out_real[30] data_out_real[31] data_out_real[32]
+ data_out_real[33] data_out_real[34] data_out_real[35] data_out_real[36]
+ data_out_real[37] data_out_real[38] data_out_real[39] data_out_real[3]
+ data_out_real[40] data_out_real[41] data_out_real[42] data_out_real[43]
+ data_out_real[44] data_out_real[45] data_out_real[46] data_out_real[47]
+ data_out_real[48] data_out_real[49] data_out_real[4] data_out_real[50]
+ data_out_real[51] data_out_real[52] data_out_real[53] data_out_real[54]
+ data_out_real[55] data_out_real[56] data_out_real[57] data_out_real[58]
+ data_out_real[59] data_out_real[5] data_out_real[60] data_out_real[61]
+ data_out_real[62] data_out_real[63] data_out_real[64] data_out_real[65]
+ data_out_real[66] data_out_real[67] data_out_real[68] data_out_real[69]
+ data_out_real[6] data_out_real[70] data_out_real[71] data_out_real[72]
+ data_out_real[73] data_out_real[74] data_out_real[75] data_out_real[76]
+ data_out_real[77] data_out_real[78] data_out_real[79] data_out_real[7]
+ data_out_real[80] data_out_real[81] data_out_real[82] data_out_real[83]
+ data_out_real[84] data_out_real[85] data_out_real[86] data_out_real[87]
+ data_out_real[88] data_out_real[89] data_out_real[8] data_out_real[90]
+ data_out_real[91] data_out_real[92] data_out_real[93] data_out_real[94]
+ data_out_real[95] data_out_real[96] data_out_real[97] data_out_real[98]
+ data_out_real[99] data_out_real[9] data_ready data_valid_in
+ data_valid_out rst_n start
X_08341_ net93 VSS VSS VDD VDD _00557_ sky130_fd_sc_hd__inv_1
X_08342_ state\[3\] VSS VSS VDD VDD _00558_ sky130_fd_sc_hd__buf_8
X_08343_ _00558_ VSS VSS VDD VDD _00559_ sky130_fd_sc_hd__buf_6
X_08344_ _00559_ VSS VSS VDD VDD _00560_ sky130_fd_sc_hd__clkbuf_4
X_08345_ state\[0\] _00557_ _00560_ VSS VSS VDD VDD _00004_
+ sky130_fd_sc_hd__a21o_1
X_08346_ stage\[2\] VSS VSS VDD VDD _00561_ sky130_fd_sc_hd__buf_4
X_08347_ _00561_ _07805_ VSS VSS VDD VDD _07667_ sky130_fd_sc_hd__nor2b_4
X_08348_ _07667_ VSS VSS VDD VDD _07106_ sky130_fd_sc_hd__clkinv_8
X_08349_ _00561_ VSS VSS VDD VDD _00562_ sky130_fd_sc_hd__buf_6
X_08350_ _07809_ VSS VSS VDD VDD _00563_ sky130_fd_sc_hd__buf_6
X_08351_ _00562_ _00563_ VSS VSS VDD VDD _07166_ sky130_fd_sc_hd__nand2_8
X_08352_ _07166_ VSS VSS VDD VDD _07694_ sky130_fd_sc_hd__inv_1
X_08353_ _00562_ _07811_ VSS VSS VDD VDD _07153_ sky130_fd_sc_hd__nand2_8
X_08354_ _07153_ VSS VSS VDD VDD _07698_ sky130_fd_sc_hd__inv_1
X_08355_ _00561_ _07805_ VSS VSS VDD VDD _07133_ sky130_fd_sc_hd__nand2_8
X_08356_ _07133_ VSS VSS VDD VDD _07702_ sky130_fd_sc_hd__clkinv_2
X_08357_ _00562_ VSS VSS VDD VDD _07817_ sky130_fd_sc_hd__inv_4
X_08358_ _07817_ _00563_ VSS VSS VDD VDD _07112_ sky130_fd_sc_hd__nand2_8
X_08359_ _07112_ VSS VSS VDD VDD _07710_ sky130_fd_sc_hd__inv_1
X_08360_ _07817_ _07811_ VSS VSS VDD VDD _05892_ sky130_fd_sc_hd__nand2_8
X_08361_ _05892_ VSS VSS VDD VDD _05907_ sky130_fd_sc_hd__inv_1
X_08362_ _07824_ VSS VSS VDD VDD _00564_ sky130_fd_sc_hd__buf_4
X_08363_ _00564_ VSS VSS VDD VDD _00565_ sky130_fd_sc_hd__inv_6
X_08364_ _00565_ VSS VSS VDD VDD _00566_ sky130_fd_sc_hd__buf_4
X_08365_ _00566_ VSS VSS VDD VDD _00567_ sky130_fd_sc_hd__buf_4
X_08366_ _00567_ VSS VSS VDD VDD _00568_ sky130_fd_sc_hd__buf_6
X_08367_ _00568_ VSS VSS VDD VDD _00569_ sky130_fd_sc_hd__buf_4
X_08368_ _00569_ VSS VSS VDD VDD _07207_ sky130_fd_sc_hd__clkbuf_16
X_08369_ _07805_ _07811_ _00561_ VSS VSS VDD VDD _00570_ sky130_fd_sc_hd__o21ai_1
Xclone9 _00810_ VSS VSS VDD VDD net9 sky130_fd_sc_hd__clkbuf_2
X_08371_ _07821_ _00563_ _00564_ VSS VSS VDD VDD _00572_ sky130_fd_sc_hd__nor3_2
X_08372_ _00570_ _00572_ VSS VSS VDD VDD _00573_ sky130_fd_sc_hd__nand2_1
X_08373_ _07706_ VSS VSS VDD VDD _07121_ sky130_fd_sc_hd__clkinv_16
X_08374_ butterfly_count\[2\] _07690_ _07799_ VSS VSS VDD
+ VDD _00574_ sky130_fd_sc_hd__nor3b_2
X_08375_ _00563_ _07811_ _00561_ VSS VSS VDD VDD _00575_ sky130_fd_sc_hd__o21ai_4
X_08376_ _00563_ _07805_ _00561_ VSS VSS VDD VDD _00576_ sky130_fd_sc_hd__mux2i_1
X_08377_ _07121_ _00574_ _00575_ _00576_ VSS VSS VDD VDD _00577_
+ sky130_fd_sc_hd__nand4_2
X_08378_ _07805_ _07811_ _00562_ VSS VSS VDD VDD _00578_ sky130_fd_sc_hd__o21bai_1
X_08379_ _07108_ _00578_ VSS VSS VDD VDD _00579_ sky130_fd_sc_hd__nand2_4
X_08380_ _00573_ _00577_ _00579_ VSS VSS VDD VDD _07109_ sky130_fd_sc_hd__a21oi_4
X_08381_ _07817_ _07110_ _07805_ _00572_ VSS VSS VDD VDD _07116_
+ sky130_fd_sc_hd__and4_1
X_08382_ _07532_ _07531_ _07550_ VSS VSS VDD VDD _00580_ sky130_fd_sc_hd__o21a_1
X_08383_ _00580_ _07549_ _07547_ VSS VSS VDD VDD _00581_ sky130_fd_sc_hd__o21a_1
X_08384_ _07546_ _00581_ _07544_ VSS VSS VDD VDD _00582_ sky130_fd_sc_hd__o21a_1
X_08385_ _07543_ _00582_ _07541_ VSS VSS VDD VDD _00583_ sky130_fd_sc_hd__o21a_1
X_08386_ _00583_ _07540_ _07538_ VSS VSS VDD VDD _00584_ sky130_fd_sc_hd__o21a_1
X_08387_ _07370_ _07369_ _07368_ VSS VSS VDD VDD _00585_ sky130_fd_sc_hd__o21a_1
X_08388_ _07367_ _00585_ _07365_ VSS VSS VDD VDD _00586_ sky130_fd_sc_hd__o21a_1
X_08389_ _07364_ _00586_ _07362_ VSS VSS VDD VDD _00587_ sky130_fd_sc_hd__o21a_1
X_08390_ _00587_ _07361_ _07359_ VSS VSS VDD VDD _00588_ sky130_fd_sc_hd__o21a_1
X_08391_ _07358_ _00588_ _07356_ VSS VSS VDD VDD _00589_ sky130_fd_sc_hd__o21a_1
X_08392_ _00589_ _07355_ VSS VSS VDD VDD _00590_ sky130_fd_sc_hd__nor2_4
X_08393_ _00590_ VSS VSS VDD VDD _00591_ sky130_fd_sc_hd__inv_2
X_08394_ _00591_ _07353_ _07352_ VSS VSS VDD VDD _00592_ sky130_fd_sc_hd__a21oi_4
X_08395_ _07690_ VSS VSS VDD VDD _00593_ sky130_fd_sc_hd__buf_6
X_08396_ _00593_ VSS VSS VDD VDD _00594_ sky130_fd_sc_hd__buf_6
X_08397_ _00592_ _00567_ _00594_ VSS VSS VDD VDD _00595_ sky130_fd_sc_hd__o21ai_4
X_08398_ _00564_ VSS VSS VDD VDD _00596_ sky130_fd_sc_hd__buf_4
X_08399_ _00596_ VSS VSS VDD VDD _00597_ sky130_fd_sc_hd__clkbuf_4
X_08400_ _00597_ VSS VSS VDD VDD _00598_ sky130_fd_sc_hd__buf_4
X_08401_ _00598_ VSS VSS VDD VDD _00599_ sky130_fd_sc_hd__buf_4
X_08402_ _00599_ _00592_ VSS VSS VDD VDD _00600_ sky130_fd_sc_hd__nor2_2
X_08403_ _07250_ _07249_ _07248_ VSS VSS VDD VDD _00601_ sky130_fd_sc_hd__o21a_1
X_08404_ _07247_ _00601_ _07245_ VSS VSS VDD VDD _00602_ sky130_fd_sc_hd__o21ai_2
X_08405_ _07244_ _00602_ VSS VSS VDD VDD _00603_ sky130_fd_sc_hd__nand2b_1
X_08406_ _07242_ _00603_ VSS VSS VDD VDD _00604_ sky130_fd_sc_hd__and2_0
X_08407_ _07241_ _00604_ _07239_ VSS VSS VDD VDD _00605_ sky130_fd_sc_hd__o21a_1
X_08408_ butterfly_count\[2\] _07690_ _07799_ VSS VSS VDD
+ VDD _00606_ sky130_fd_sc_hd__or3b_4
X_08409_ _07172_ _07175_ _07178_ VSS VSS VDD VDD _00607_ sky130_fd_sc_hd__nand3_2
X_08410_ _07169_ _07186_ _07181_ _07184_ VSS VSS VDD VDD _00608_
+ sky130_fd_sc_hd__nand4_2
X_08411_ _00606_ _00607_ _00608_ _00596_ VSS VSS VDD VDD _00609_
+ sky130_fd_sc_hd__o31ai_1
X_08412_ _07169_ _07168_ _00609_ VSS VSS VDD VDD _00610_ sky130_fd_sc_hd__nand3b_1
X_08413_ _00564_ _07168_ VSS VSS VDD VDD _00611_ sky130_fd_sc_hd__nand2b_1
X_08414_ _00606_ _00608_ _00607_ _00611_ VSS VSS VDD VDD _00612_
+ sky130_fd_sc_hd__o31ai_4
X_08415_ _07169_ _00612_ VSS VSS VDD VDD _00613_ sky130_fd_sc_hd__nand2_1
X_08416_ _07172_ _07175_ VSS VSS VDD VDD _00614_ sky130_fd_sc_hd__and2_4
X_08417_ _07186_ _07185_ _07184_ _07181_ VSS VSS VDD VDD _00615_
+ sky130_fd_sc_hd__o211ai_4
X_08418_ _07181_ _07183_ _07180_ VSS VSS VDD VDD _00616_ sky130_fd_sc_hd__a21oi_2
X_08419_ _00615_ _00616_ VSS VSS VDD VDD _00617_ sky130_fd_sc_hd__nand2_2
X_08420_ _07172_ _07174_ _00614_ _07177_ _07171_ VSS VSS VDD
+ VDD _00618_ sky130_fd_sc_hd__a221o_2
X_08421_ _07178_ _00614_ _00617_ _00618_ VSS VSS VDD VDD _00619_
+ sky130_fd_sc_hd__a31oi_4
X_08422_ _00610_ _00613_ _00619_ VSS VSS VDD VDD _00620_ sky130_fd_sc_hd__mux2i_4
X_08423_ _07805_ _00563_ _07811_ _00562_ VSS VSS VDD VDD _00621_
+ sky130_fd_sc_hd__o31a_1
X_08424_ _00564_ _00621_ VSS VSS VDD VDD _00622_ sky130_fd_sc_hd__nor2_2
X_08425_ _07132_ _07131_ _07130_ VSS VSS VDD VDD _00623_ sky130_fd_sc_hd__o21a_1
X_08426_ _07129_ _00623_ _07127_ VSS VSS VDD VDD _00624_ sky130_fd_sc_hd__o21a_1
X_08427_ _07126_ _00624_ _07124_ VSS VSS VDD VDD _00625_ sky130_fd_sc_hd__o21ai_1
X_08428_ _07124_ _07126_ _00624_ VSS VSS VDD VDD _00626_ sky130_fd_sc_hd__or3_1
X_08429_ _07123_ _00622_ _00625_ _00626_ VSS VSS VDD VDD _00627_
+ sky130_fd_sc_hd__nand4_4
X_08430_ _00570_ _00572_ VSS VSS VDD VDD _00628_ sky130_fd_sc_hd__and2_0
X_08431_ _07110_ _07106_ _00570_ _00572_ VSS VSS VDD VDD _00629_
+ sky130_fd_sc_hd__o211ai_2
X_08432_ _07111_ _07110_ VSS VSS VDD VDD _00630_ sky130_fd_sc_hd__nor2_1
X_08433_ _07107_ _07111_ VSS VSS VDD VDD _00631_ sky130_fd_sc_hd__nor2b_4
X_08434_ _07111_ _07110_ _07107_ VSS VSS VDD VDD _00632_ sky130_fd_sc_hd__and3b_1
X_08435_ _07108_ _00578_ _00630_ _00632_ _00631_ VSS VSS VDD
+ VDD _00633_ sky130_fd_sc_hd__a311oi_2
X_08436_ _00579_ _00628_ _00577_ _00633_ _00629_ VSS VSS VDD
+ VDD _07113_ sky130_fd_sc_hd__o32ai_4
X_08437_ _07120_ _07119_ _07115_ _07118_ VSS VSS VDD VDD _00634_
+ sky130_fd_sc_hd__o211a_1
X_08438_ _07117_ _07115_ _07114_ VSS VSS VDD VDD _00635_ sky130_fd_sc_hd__a21o_1
X_08439_ _07805_ _00563_ _07811_ _00562_ VSS VSS VDD VDD _00636_
+ sky130_fd_sc_hd__o31ai_4
X_08440_ _00634_ _00635_ _00565_ _00636_ VSS VSS VDD VDD _00637_
+ sky130_fd_sc_hd__o211a_4
X_08441_ _07118_ _07120_ _07115_ VSS VSS VDD VDD _00638_ sky130_fd_sc_hd__nand3_4
X_08442_ _00638_ _00606_ _07702_ _00575_ VSS VSS VDD VDD _00639_
+ sky130_fd_sc_hd__nor4b_4
X_08443_ _00639_ _00637_ _07121_ VSS VSS VDD VDD _00640_ sky130_fd_sc_hd__o21a_1
X_08444_ _07120_ _07119_ _07118_ VSS VSS VDD VDD _00641_ sky130_fd_sc_hd__o21a_1
X_08445_ _07117_ _07115_ _00641_ VSS VSS VDD VDD _00642_ sky130_fd_sc_hd__nor3_1
X_08446_ _07117_ _00641_ _07115_ VSS VSS VDD VDD _00643_ sky130_fd_sc_hd__o21a_1
X_08447_ _00639_ _00637_ _00642_ _00643_ _07121_ VSS VSS VDD
+ VDD _00644_ sky130_fd_sc_hd__o221ai_4
X_08448_ _07129_ _07126_ _07123_ VSS VSS VDD VDD _00645_ sky130_fd_sc_hd__or3_1
X_08449_ _07127_ _07123_ _07126_ VSS VSS VDD VDD _00646_ sky130_fd_sc_hd__or3_1
X_08450_ _07124_ _07123_ _00623_ _00645_ _00646_ VSS VSS VDD
+ VDD _00647_ sky130_fd_sc_hd__o221a_4
X_08451_ _00622_ _00647_ VSS VSS VDD VDD _00648_ sky130_fd_sc_hd__nand2_1
X_08452_ _07113_ _00640_ _00644_ _00648_ VSS VSS VDD VDD _00649_
+ sky130_fd_sc_hd__o211ai_4
X_08453_ _07169_ _07168_ _07178_ _07175_ _07172_ VSS VSS VDD
+ VDD _00650_ sky130_fd_sc_hd__o2111ai_1
X_08454_ _00615_ _00616_ _00564_ _00650_ VSS VSS VDD VDD _00651_
+ sky130_fd_sc_hd__a211oi_2
X_08455_ _07169_ _00565_ _00618_ _00612_ _00651_ VSS VSS VDD
+ VDD _00652_ sky130_fd_sc_hd__a311o_4
X_08456_ _00561_ _00563_ _00564_ VSS VSS VDD VDD _00653_ sky130_fd_sc_hd__a21oi_4
X_08457_ _07165_ _07164_ _07162_ VSS VSS VDD VDD _00654_ sky130_fd_sc_hd__o21a_1
X_08458_ _07149_ _07161_ _07164_ VSS VSS VDD VDD _00655_ sky130_fd_sc_hd__or3_1
X_08459_ _07152_ _07151_ _07150_ VSS VSS VDD VDD _00656_ sky130_fd_sc_hd__o21a_1
X_08460_ _07161_ _00654_ _00656_ _00655_ VSS VSS VDD VDD _00657_
+ sky130_fd_sc_hd__o22a_4
X_08461_ _07158_ _07156_ _07155_ VSS VSS VDD VDD _00658_ sky130_fd_sc_hd__a21oi_2
X_08462_ _00658_ _00653_ VSS VSS VDD VDD _00659_ sky130_fd_sc_hd__and2b_2
X_08463_ _00657_ _07159_ _00653_ _07156_ _00659_ VSS VSS VDD
+ VDD _00660_ sky130_fd_sc_hd__a41o_4
Xclone36 _00657_ _07159_ _00653_ _07156_ _00659_ VSS VSS VDD
+ VDD net36 sky130_fd_sc_hd__a41o_1
X_08465_ _07141_ _07142_ _07139_ VSS VSS VDD VDD _00662_ sky130_fd_sc_hd__o21a_1
X_08466_ _07147_ _07146_ _07145_ VSS VSS VDD VDD _00663_ sky130_fd_sc_hd__o21a_1
X_08467_ _07138_ _07144_ _07141_ VSS VSS VDD VDD _00664_ sky130_fd_sc_hd__or3_1
X_08468_ _07138_ _00662_ _00664_ _00663_ VSS VSS VDD VDD _00665_
+ sky130_fd_sc_hd__o22ai_2
X_08469_ _07136_ _00565_ _00575_ VSS VSS VDD VDD _00666_ sky130_fd_sc_hd__nand3_1
X_08470_ _07147_ _07136_ _07139_ _07142_ VSS VSS VDD VDD _00667_
+ sky130_fd_sc_hd__and4_1
X_08471_ _07145_ _00574_ _00575_ _00667_ VSS VSS VDD VDD _00668_
+ sky130_fd_sc_hd__nand4_1
X_08472_ _07135_ _00565_ _00575_ VSS VSS VDD VDD _00669_ sky130_fd_sc_hd__nand3_1
X_08473_ _00666_ _00665_ _00668_ _00669_ VSS VSS VDD VDD _00670_
+ sky130_fd_sc_hd__o211ai_2
X_08474_ _00652_ net36 _00670_ VSS VSS VDD VDD _00671_ sky130_fd_sc_hd__nor3_1
X_08475_ _00627_ _00649_ _00671_ VSS VSS VDD VDD _00672_ sky130_fd_sc_hd__a21boi_4
X_08476_ _07156_ _07159_ _00653_ _00657_ _00659_ VSS VSS VDD
+ VDD _00673_ sky130_fd_sc_hd__a41oi_4
X_08477_ _07136_ _00665_ VSS VSS VDD VDD _00674_ sky130_fd_sc_hd__xnor2_1
X_08478_ _00670_ VSS VSS VDD VDD _00675_ sky130_fd_sc_hd__buf_6
X_08479_ _00673_ _00674_ net6 VSS VSS VDD VDD _00676_ sky130_fd_sc_hd__nand3_2
X_08480_ _07155_ _00653_ VSS VSS VDD VDD _00677_ sky130_fd_sc_hd__nand2_1
X_08481_ _07156_ _00677_ VSS VSS VDD VDD _00678_ sky130_fd_sc_hd__nor2_1
X_08482_ _07156_ _07155_ _00653_ VSS VSS VDD VDD _00679_ sky130_fd_sc_hd__and3_1
X_08483_ _00657_ _07159_ _07158_ VSS VSS VDD VDD _00680_ sky130_fd_sc_hd__a21oi_2
X_08484_ _00678_ _00679_ _00680_ VSS VSS VDD VDD _00681_ sky130_fd_sc_hd__mux2i_4
X_08485_ _00676_ _00681_ _00652_ VSS VSS VDD VDD _00682_ sky130_fd_sc_hd__a21oi_4
X_08486_ _00620_ _00672_ _00682_ VSS VSS VDD VDD _00683_ sky130_fd_sc_hd__nor3_4
X_08487_ _00634_ _00635_ _00565_ _00636_ VSS VSS VDD VDD _00684_
+ sky130_fd_sc_hd__o211ai_4
X_08488_ _07121_ _07133_ _00574_ _00575_ VSS VSS VDD VDD _00685_
+ sky130_fd_sc_hd__nand4_1
X_08489_ _07706_ _00684_ _00638_ _00685_ _07116_ VSS VSS VDD
+ VDD _00686_ sky130_fd_sc_hd__o221ai_4
X_08490_ _07118_ _07120_ _07119_ VSS VSS VDD VDD _00687_ sky130_fd_sc_hd__nor3_1
X_08491_ _07706_ _00641_ _00687_ VSS VSS VDD VDD _00688_ sky130_fd_sc_hd__nor3_1
X_08492_ _00637_ _00639_ _00688_ VSS VSS VDD VDD _00689_ sky130_fd_sc_hd__o21ai_2
X_08493_ _00622_ _00647_ _00686_ _00689_ _00675_ VSS VSS VDD
+ VDD _00690_ sky130_fd_sc_hd__a221oi_2
X_08494_ _07124_ _07126_ _07123_ VSS VSS VDD VDD _00691_ sky130_fd_sc_hd__a21oi_1
X_08495_ _07127_ _07129_ _00623_ VSS VSS VDD VDD _00692_ sky130_fd_sc_hd__nor3_1
X_08496_ _00624_ _00691_ _00692_ _00622_ VSS VSS VDD VDD _00693_
+ sky130_fd_sc_hd__or4b_1
X_08497_ _07141_ _07144_ VSS VSS VDD VDD _00694_ sky130_fd_sc_hd__or2_0
X_08498_ _07142_ _07141_ _00663_ _00694_ VSS VSS VDD VDD _00695_
+ sky130_fd_sc_hd__o22ai_1
X_08499_ _07139_ _00695_ VSS VSS VDD VDD _00696_ sky130_fd_sc_hd__xor2_1
X_08500_ _00693_ _00696_ net6 VSS VSS VDD VDD _00697_ sky130_fd_sc_hd__mux2i_4
X_08501_ _00652_ VSS VSS VDD VDD _00698_ sky130_fd_sc_hd__buf_6
X_08502_ _07206_ _07205_ _07204_ _07201_ VSS VSS VDD VDD _00699_
+ sky130_fd_sc_hd__o211ai_2
X_08503_ _07201_ _07203_ _07200_ VSS VSS VDD VDD _00700_ sky130_fd_sc_hd__a21oi_2
X_08504_ _07195_ _07192_ _07198_ _07189_ VSS VSS VDD VDD _00701_
+ sky130_fd_sc_hd__nand4_4
X_08505_ _00699_ _00700_ _00701_ VSS VSS VDD VDD _00702_ sky130_fd_sc_hd__a21o_1
X_08506_ _07189_ _07192_ _07194_ VSS VSS VDD VDD _00703_ sky130_fd_sc_hd__nand3_1
X_08507_ _07189_ _07191_ _07188_ VSS VSS VDD VDD _00704_ sky130_fd_sc_hd__a21oi_2
X_08508_ _07189_ _07192_ _07195_ _07197_ VSS VSS VDD VDD _00705_
+ sky130_fd_sc_hd__nand4_4
X_08509_ _00703_ _00704_ _00705_ VSS VSS VDD VDD _00706_ sky130_fd_sc_hd__and3_4
X_08510_ _00702_ _00706_ _07690_ VSS VSS VDD VDD _00707_ sky130_fd_sc_hd__a21oi_4
X_08511_ net26 net36 _00707_ VSS VSS VDD VDD _00708_ sky130_fd_sc_hd__nor3_1
X_08512_ _00690_ _00697_ _00708_ VSS VSS VDD VDD _00709_ sky130_fd_sc_hd__o21ai_1
X_08513_ _00618_ _00565_ _07169_ _00612_ _00651_ VSS VSS VDD
+ VDD _00710_ sky130_fd_sc_hd__a311oi_4
X_08514_ _07175_ _07177_ VSS VSS VDD VDD _00711_ sky130_fd_sc_hd__and2_0
X_08515_ _07175_ _07178_ VSS VSS VDD VDD _00712_ sky130_fd_sc_hd__nand2_1
X_08516_ _00615_ _00616_ _00712_ VSS VSS VDD VDD _00713_ sky130_fd_sc_hd__a21oi_1
X_08517_ _07174_ _00711_ _00713_ _07172_ VSS VSS VDD VDD _00714_
+ sky130_fd_sc_hd__o31a_1
X_08518_ _07172_ _07174_ _00711_ _00713_ VSS VSS VDD VDD _00715_
+ sky130_fd_sc_hd__nor4_1
X_08519_ _00710_ _00714_ _00715_ VSS VSS VDD VDD _00716_ sky130_fd_sc_hd__nor3_2
X_08520_ _07159_ _00657_ VSS VSS VDD VDD _00717_ sky130_fd_sc_hd__xor2_1
X_08521_ _00710_ net36 _00717_ VSS VSS VDD VDD _00718_ sky130_fd_sc_hd__and3_1
X_08522_ _07192_ _07195_ _07198_ VSS VSS VDD VDD _00719_ sky130_fd_sc_hd__nand3_1
X_08523_ _00699_ _00700_ _00719_ VSS VSS VDD VDD _00720_ sky130_fd_sc_hd__a21oi_1
X_08524_ _07195_ _07197_ _07194_ VSS VSS VDD VDD _00721_ sky130_fd_sc_hd__a21oi_1
X_08525_ _00721_ _07192_ VSS VSS VDD VDD _00722_ sky130_fd_sc_hd__nor2b_1
X_08526_ _07191_ _00720_ _00722_ _07189_ VSS VSS VDD VDD _00723_
+ sky130_fd_sc_hd__o31a_1
X_08527_ _07189_ _07191_ _00720_ _00722_ VSS VSS VDD VDD _00724_
+ sky130_fd_sc_hd__nor4_1
X_08528_ _00723_ _00724_ _00707_ VSS VSS VDD VDD _00725_ sky130_fd_sc_hd__o21ai_0
X_08529_ _00707_ _00716_ _00718_ _00725_ VSS VSS VDD VDD _00726_
+ sky130_fd_sc_hd__o31ai_1
X_08530_ _07230_ _07229_ _07228_ VSS VSS VDD VDD _00727_ sky130_fd_sc_hd__o21ai_2
X_08531_ _07224_ _07227_ VSS VSS VDD VDD _00728_ sky130_fd_sc_hd__nor2_1
X_08532_ _07225_ _07224_ VSS VSS VDD VDD _00729_ sky130_fd_sc_hd__nor2_2
X_08533_ _07216_ _07219_ _07222_ VSS VSS VDD VDD _00730_ sky130_fd_sc_hd__nand3_1
X_08534_ _00727_ _00728_ _00729_ _00730_ VSS VSS VDD VDD _00731_
+ sky130_fd_sc_hd__a211oi_4
X_08535_ _07219_ _07221_ _07218_ VSS VSS VDD VDD _00732_ sky130_fd_sc_hd__a21o_1
X_08536_ _00732_ _07216_ _07215_ VSS VSS VDD VDD _00733_ sky130_fd_sc_hd__a21o_1
X_08537_ _07213_ _07212_ _07210_ VSS VSS VDD VDD _00734_ sky130_fd_sc_hd__o21ai_0
X_08538_ _07209_ _00734_ VSS VSS VDD VDD _00735_ sky130_fd_sc_hd__or2b_1
X_08539_ _07209_ _07212_ _00733_ _00731_ _00735_ VSS VSS VDD
+ VDD _00736_ sky130_fd_sc_hd__o41ai_4
X_08540_ _00709_ _00726_ _00736_ VSS VSS VDD VDD _00737_ sky130_fd_sc_hd__a21boi_1
X_08541_ _00610_ _00613_ _00619_ VSS VSS VDD VDD _00738_ sky130_fd_sc_hd__mux2_2
X_08542_ _00670_ _00660_ VSS VSS VDD VDD _00739_ sky130_fd_sc_hd__or2_4
X_08543_ _00627_ _00649_ _00739_ _00698_ VSS VSS VDD VDD _00740_
+ sky130_fd_sc_hd__a211o_2
X_08544_ _00676_ _00681_ _00698_ VSS VSS VDD VDD _00741_ sky130_fd_sc_hd__a21o_1
X_08545_ _07213_ _07216_ _07219_ _07222_ VSS VSS VDD VDD _00742_
+ sky130_fd_sc_hd__and4_1
X_08546_ _00727_ _00728_ _00729_ VSS VSS VDD VDD _00743_ sky130_fd_sc_hd__a21oi_2
X_08547_ _07213_ _00733_ _00742_ _00743_ _07212_ VSS VSS VDD
+ VDD _00744_ sky130_fd_sc_hd__a221oi_1
X_08548_ _07210_ _00744_ VSS VSS VDD VDD _00745_ sky130_fd_sc_hd__xor2_1
X_08549_ _07690_ VSS VSS VDD VDD _00746_ sky130_fd_sc_hd__clkinv_8
X_08550_ _00702_ _00706_ _00746_ VSS VSS VDD VDD _00747_ sky130_fd_sc_hd__a21oi_2
X_08551_ _07690_ _00596_ VSS VSS VDD VDD _00748_ sky130_fd_sc_hd__nor2_4
X_08552_ _00702_ _00706_ _00748_ VSS VSS VDD VDD _00749_ sky130_fd_sc_hd__and3_1
X_08553_ _00747_ _00749_ VSS VSS VDD VDD _00750_ sky130_fd_sc_hd__or2_1
X_08554_ _00747_ _00749_ _00736_ VSS VSS VDD VDD _00751_ sky130_fd_sc_hd__o21a_1
X_08555_ _00723_ _00724_ VSS VSS VDD VDD _00752_ sky130_fd_sc_hd__nor2_1
X_08556_ _00745_ _00750_ _00751_ _00752_ VSS VSS VDD VDD _00753_
+ sky130_fd_sc_hd__a2bb2oi_1
X_08557_ _00738_ _00740_ _00741_ _00753_ VSS VSS VDD VDD _00754_
+ sky130_fd_sc_hd__a31oi_2
X_08558_ _00736_ _00745_ VSS VSS VDD VDD _00755_ sky130_fd_sc_hd__nor2_1
X_08559_ _00683_ _00737_ _00754_ _00755_ VSS VSS VDD VDD _00756_
+ sky130_fd_sc_hd__a211oi_4
X_08560_ _00603_ _07236_ _07239_ _07242_ VSS VSS VDD VDD _00757_
+ sky130_fd_sc_hd__and4_4
X_08561_ _07236_ _07239_ _07241_ VSS VSS VDD VDD _00758_ sky130_fd_sc_hd__nand3_1
X_08562_ _07236_ _07238_ VSS VSS VDD VDD _00759_ sky130_fd_sc_hd__nand2_1
X_08563_ _00758_ _00759_ VSS VSS VDD VDD _00760_ sky130_fd_sc_hd__nand2_1
X_08564_ _07235_ _00760_ _00757_ VSS VSS VDD VDD _00761_ sky130_fd_sc_hd__or3_4
X_08565_ _00761_ _07233_ _07232_ VSS VSS VDD VDD _00762_ sky130_fd_sc_hd__a21oi_4
X_08566_ _00596_ _00762_ VSS VSS VDD VDD _00763_ sky130_fd_sc_hd__nor2_2
X_08567_ _00565_ _00762_ _07690_ VSS VSS VDD VDD _00764_ sky130_fd_sc_hd__o21ai_2
X_08568_ _07706_ _07120_ _00684_ VSS VSS VDD VDD _07128_ sky130_fd_sc_hd__nor3_4
X_08569_ _07132_ _07130_ _07131_ VSS VSS VDD VDD _00765_ sky130_fd_sc_hd__nor3_1
X_08570_ _00564_ _00621_ _00623_ _00765_ VSS VSS VDD VDD _00766_
+ sky130_fd_sc_hd__nor4_1
X_08571_ _07128_ _00766_ _00647_ VSS VSS VDD VDD _00767_ sky130_fd_sc_hd__mux2i_4
X_08572_ _07149_ _00656_ _07165_ VSS VSS VDD VDD _00768_ sky130_fd_sc_hd__o21ai_1
X_08573_ _07164_ _00768_ VSS VSS VDD VDD _00769_ sky130_fd_sc_hd__or2b_1
X_08574_ _07162_ _00769_ VSS VSS VDD VDD _00770_ sky130_fd_sc_hd__xnor2_1
X_08575_ _07144_ _00663_ VSS VSS VDD VDD _00771_ sky130_fd_sc_hd__nor2_1
X_08576_ _07142_ _00771_ VSS VSS VDD VDD _00772_ sky130_fd_sc_hd__xnor2_1
X_08577_ _00673_ net6 _00772_ VSS VSS VDD VDD _00773_ sky130_fd_sc_hd__nand3_1
X_08578_ _00767_ _00739_ _00770_ _00673_ _00773_ VSS VSS VDD
+ VDD _07173_ sky130_fd_sc_hd__o221ai_4
X_08579_ _07178_ _00617_ _07177_ _07175_ VSS VSS VDD VDD _00774_
+ sky130_fd_sc_hd__a211oi_1
X_08580_ _00711_ _00713_ _00774_ _00652_ VSS VSS VDD VDD _00775_
+ sky130_fd_sc_hd__o31a_1
X_08581_ _00707_ _00775_ VSS VSS VDD VDD _00776_ sky130_fd_sc_hd__nor2_1
X_08582_ _00699_ _00700_ _00701_ VSS VSS VDD VDD _00777_ sky130_fd_sc_hd__a21oi_4
X_08583_ _00703_ _00704_ _00705_ VSS VSS VDD VDD _00778_ sky130_fd_sc_hd__nand3_2
X_08584_ _00778_ _00777_ _00746_ VSS VSS VDD VDD _00779_ sky130_fd_sc_hd__o21ai_4
X_08585_ _07206_ _07205_ _07204_ _07201_ VSS VSS VDD VDD _00780_
+ sky130_fd_sc_hd__o211a_1
X_08586_ _07201_ _07203_ _07200_ VSS VSS VDD VDD _00781_ sky130_fd_sc_hd__a21o_1
X_08587_ _00780_ _00781_ _07198_ VSS VSS VDD VDD _00782_ sky130_fd_sc_hd__o21ai_0
X_08588_ _07192_ _07194_ _07197_ VSS VSS VDD VDD _00783_ sky130_fd_sc_hd__nor3_1
X_08589_ _00782_ _00783_ _00722_ _00720_ VSS VSS VDD VDD _00784_
+ sky130_fd_sc_hd__a211oi_2
X_08590_ _07192_ _07195_ _07194_ VSS VSS VDD VDD _00785_ sky130_fd_sc_hd__or3_1
X_08591_ _00784_ _00785_ VSS VSS VDD VDD _00786_ sky130_fd_sc_hd__nand2_2
X_08592_ _00779_ _00786_ VSS VSS VDD VDD _00787_ sky130_fd_sc_hd__nor2_2
X_08593_ net26 _00707_ _07173_ _00776_ _00787_ VSS VSS VDD
+ VDD _00788_ sky130_fd_sc_hd__o32ai_4
X_08594_ _00731_ _00733_ VSS VSS VDD VDD _00789_ sky130_fd_sc_hd__nor2_1
X_08595_ _07213_ _00789_ VSS VSS VDD VDD _00790_ sky130_fd_sc_hd__xnor2_2
X_08596_ _00565_ _00747_ _00784_ _00785_ VSS VSS VDD VDD _00791_
+ sky130_fd_sc_hd__o211ai_1
X_08597_ _00750_ _00790_ _00791_ _00751_ VSS VSS VDD VDD _00792_
+ sky130_fd_sc_hd__a2bb2oi_1
X_08598_ _00738_ _00740_ _00741_ _00792_ VSS VSS VDD VDD _00793_
+ sky130_fd_sc_hd__a31oi_2
X_08599_ _00736_ _00790_ VSS VSS VDD VDD _00794_ sky130_fd_sc_hd__nor2_1
X_08600_ _00736_ _00683_ _00788_ _00793_ _00794_ VSS VSS VDD
+ VDD _00795_ sky130_fd_sc_hd__a311oi_4
X_08601_ _00763_ _00764_ _00795_ VSS VSS VDD VDD _00796_ sky130_fd_sc_hd__mux2i_4
X_08602_ _00738_ _00740_ _00741_ VSS VSS VDD VDD _00797_ sky130_fd_sc_hd__nand3_2
X_08603_ _00627_ _00649_ _00739_ _00786_ net26 VSS VSS VDD
+ VDD _00798_ sky130_fd_sc_hd__a2111oi_0
X_08604_ _00676_ _00681_ _00786_ net26 VSS VSS VDD VDD _00799_
+ sky130_fd_sc_hd__a211oi_1
X_08605_ _00738_ _00786_ VSS VSS VDD VDD _00800_ sky130_fd_sc_hd__nor2_1
X_08606_ _00596_ _00798_ _00799_ _00800_ VSS VSS VDD VDD _00801_
+ sky130_fd_sc_hd__nor4_1
X_08607_ _00797_ _00788_ _00801_ VSS VSS VDD VDD _00802_ sky130_fd_sc_hd__o21ai_0
X_08608_ _00736_ _00750_ VSS VSS VDD VDD _00803_ sky130_fd_sc_hd__nor2_1
X_08609_ _00620_ _00672_ _00682_ _00803_ VSS VSS VDD VDD _00804_
+ sky130_fd_sc_hd__o31a_1
X_08610_ _00804_ VSS VSS VDD VDD _00805_ sky130_fd_sc_hd__buf_4
X_08611_ _00596_ _00683_ _00787_ _00805_ VSS VSS VDD VDD _00806_
+ sky130_fd_sc_hd__a31oi_1
X_08612_ _00738_ net26 _00750_ VSS VSS VDD VDD _00807_ sky130_fd_sc_hd__a21o_1
X_08613_ _00738_ _00736_ _00676_ _00681_ VSS VSS VDD VDD _00808_
+ sky130_fd_sc_hd__nand4_1
X_08614_ _00627_ _00649_ _00739_ VSS VSS VDD VDD _00809_ sky130_fd_sc_hd__a21oi_1
X_08615_ _00736_ _00807_ _00809_ _00808_ VSS VSS VDD VDD _00810_
+ sky130_fd_sc_hd__o2bb2ai_4
X_08616_ butterfly_count\[2\] VSS VSS VDD VDD _00811_ sky130_fd_sc_hd__inv_1
X_08617_ _00811_ _07799_ VSS VSS VDD VDD _00812_ sky130_fd_sc_hd__nand2_4
X_08618_ _07242_ _07236_ _07239_ _07245_ VSS VSS VDD VDD _00813_
+ sky130_fd_sc_hd__nand4_1
X_08619_ _07248_ _07250_ _07233_ VSS VSS VDD VDD _00814_ sky130_fd_sc_hd__nand3_1
X_08620_ _00812_ _00813_ _00814_ VSS VSS VDD VDD _00815_ sky130_fd_sc_hd__nor3_2
X_08621_ _00810_ _00815_ _00805_ VSS VSS VDD VDD _00816_ sky130_fd_sc_hd__a21oi_1
X_08622_ _00802_ _00806_ _00816_ VSS VSS VDD VDD _00817_ sky130_fd_sc_hd__a21o_2
X_08623_ _00756_ _00817_ _00796_ VSS VSS VDD VDD _00818_ sky130_fd_sc_hd__and3_4
X_08624_ _00818_ VSS VSS VDD VDD _00819_ sky130_fd_sc_hd__buf_8
X_08625_ _00819_ VSS VSS VDD VDD _00820_ sky130_fd_sc_hd__buf_8
X_08626_ _07239_ _07241_ _00604_ VSS VSS VDD VDD _00821_ sky130_fd_sc_hd__nor3_1
X_08627_ _00810_ VSS VSS VDD VDD _00822_ sky130_fd_sc_hd__buf_6
X_08628_ _07222_ _00743_ VSS VSS VDD VDD _00823_ sky130_fd_sc_hd__xnor2_1
X_08629_ _00620_ _00672_ _00682_ _00565_ VSS VSS VDD VDD _00824_
+ sky130_fd_sc_hd__o31ai_2
X_08630_ _00797_ _00779_ _00824_ VSS VSS VDD VDD _00825_ sky130_fd_sc_hd__o21ai_2
X_08631_ _07206_ _07205_ _07204_ VSS VSS VDD VDD _00826_ sky130_fd_sc_hd__o21a_1
X_08632_ _07203_ _00826_ VSS VSS VDD VDD _00827_ sky130_fd_sc_hd__nor2_1
X_08633_ _07201_ _00827_ VSS VSS VDD VDD _00828_ sky130_fd_sc_hd__xor2_1
X_08634_ _07186_ _07185_ _07184_ VSS VSS VDD VDD _00829_ sky130_fd_sc_hd__o21a_1
X_08635_ _07186_ _07184_ _07185_ VSS VSS VDD VDD _00830_ sky130_fd_sc_hd__nor3_1
X_08636_ _07152_ _00673_ VSS VSS VDD VDD _07182_ sky130_fd_sc_hd__nor2_1
X_08637_ _00710_ _07182_ VSS VSS VDD VDD _00831_ sky130_fd_sc_hd__nand2_1
X_08638_ _00829_ _00710_ _00830_ _00831_ VSS VSS VDD VDD _07199_
+ sky130_fd_sc_hd__o31ai_1
X_08639_ _00825_ _07199_ VSS VSS VDD VDD _00832_ sky130_fd_sc_hd__nor2_1
X_08640_ _00825_ _00828_ _00832_ VSS VSS VDD VDD _07220_ sky130_fd_sc_hd__a21oi_1
X_08641_ _00822_ _07220_ VSS VSS VDD VDD _00833_ sky130_fd_sc_hd__nand2_1
X_08642_ _00822_ _00823_ _00833_ VSS VSS VDD VDD _07237_ sky130_fd_sc_hd__o21ai_1
X_08643_ net30 _07237_ VSS VSS VDD VDD _00834_ sky130_fd_sc_hd__nand2_2