* CDL Netlist generated by OpenROAD

*.BUSDELIMITER [

.SUBCKT cordic_core x_in[0] x_in[10] x_in[11] x_in[12] x_in[13]
+ x_in[14] x_in[15] x_in[1] x_in[2] x_in[3] x_in[4] x_in[5]
+ x_in[6] x_in[7] x_in[8] x_in[9] x_out[0] x_out[10] x_out[11]
+ x_out[12] x_out[13] x_out[14] x_out[15] x_out[1] x_out[2]
+ x_out[3] x_out[4] x_out[5] x_out[6] x_out[7] x_out[8] x_out[9]
+ y_in[0] y_in[10] y_in[11] y_in[12] y_in[13] y_in[14] y_in[15]
+ y_in[1] y_in[2] y_in[3] y_in[4] y_in[5] y_in[6] y_in[7] y_in[8]
+ y_in[9] y_out[0] y_out[10] y_out[11] y_out[12] y_out[13] y_out[14]
+ y_out[15] y_out[1] y_out[2] y_out[3] y_out[4] y_out[5] y_out[6]
+ y_out[7] y_out[8] y_out[9] z_in[0] z_in[10] z_in[11] z_in[12]
+ z_in[13] z_in[14] z_in[15] z_in[1] z_in[2] z_in[3] z_in[4]
+ z_in[5] z_in[6] z_in[7] z_in[8] z_in[9]
X_4186_ net63 _4123_ VDD VSS gf180mcu_fd_sc_mcu9t5v0__inv_4
X_4187_ _4124_ _0000_ VDD VSS gf180mcu_fd_sc_mcu9t5v0__inv_3
X_4188_ net62 _4122_ VDD VSS gf180mcu_fd_sc_mcu9t5v0__inv_3
X_4189_ _4123_ _4126_ _0000_ _4122_ _0001_ VDD VSS gf180mcu_fd_sc_mcu9t5v0__oai211_2
X_4190_ net65 net64 net57 _0002_ VDD VSS gf180mcu_fd_sc_mcu9t5v0__or3_4
X_4191_ net69 net68 net67 net66 _0003_ VDD VSS gf180mcu_fd_sc_mcu9t5v0__or4_4
X_4192_ net61 net60 net59 net58 _0004_ VDD VSS gf180mcu_fd_sc_mcu9t5v0__or4_4
X_4193_ net72 net71 net70 _0005_ VDD VSS gf180mcu_fd_sc_mcu9t5v0__or3_4
X_4194_ _0002_ _0003_ _0004_ _0005_ _0006_ VDD VSS gf180mcu_fd_sc_mcu9t5v0__or4_4
X_4195_ _4123_ _0000_ _0006_ _0001_ _0007_ VDD VSS gf180mcu_fd_sc_mcu9t5v0__oai22_4
X_4196_ _0007_ _0008_ VDD VSS gf180mcu_fd_sc_mcu9t5v0__clkinv_8
X_4197_ _0008_ _0009_ VDD VSS gf180mcu_fd_sc_mcu9t5v0__clkbuf_20
X_4198_ _0009_ _2530_ VDD VSS gf180mcu_fd_sc_mcu9t5v0__buf_16
X_4199_ _0007_ _0010_ VDD VSS gf180mcu_fd_sc_mcu9t5v0__clkbuf_8
X_4200_ _0010_ _0011_ VDD VSS gf180mcu_fd_sc_mcu9t5v0__buf_4
X_4201_ _0011_ _0012_ VDD VSS gf180mcu_fd_sc_mcu9t5v0__buf_4
X_4202_ _0012_ _0013_ VDD VSS gf180mcu_fd_sc_mcu9t5v0__buf_4
X_4203_ _2520_ _2524_ _0013_ _2646_ VDD VSS gf180mcu_fd_sc_mcu9t5v0__mux2_2
X_4204_ _2646_ _2535_ VDD VSS gf180mcu_fd_sc_mcu9t5v0__clkinv_2
X_4205_ _2650_ _0014_ VDD VSS gf180mcu_fd_sc_mcu9t5v0__inv_4
X_4206_ _2658_ _0015_ VDD VSS gf180mcu_fd_sc_mcu9t5v0__clkinv_8
X_4207_ _2658_ _2640_ _0016_ VDD VSS gf180mcu_fd_sc_mcu9t5v0__nor2_2
X_4208_ _2644_ _0015_ _2638_ _0016_ _2662_ _0017_ VDD VSS
+ gf180mcu_fd_sc_mcu9t5v0__aoi221_4
X_4209_ _0014_ _0017_ _0018_ VDD VSS gf180mcu_fd_sc_mcu9t5v0__xnor2_2
X_4210_ _2650_ _0019_ VDD VSS gf180mcu_fd_sc_mcu9t5v0__clkbuf_8
X_4211_ _2658_ _0020_ VDD VSS gf180mcu_fd_sc_mcu9t5v0__clkbuf_8
X_4212_ _2640_ _0021_ VDD VSS gf180mcu_fd_sc_mcu9t5v0__clkinv_4
X_4213_ _2641_ _0022_ VDD VSS gf180mcu_fd_sc_mcu9t5v0__clkinv_2
X_4214_ _0021_ _2525_ _0022_ _0023_ VDD VSS gf180mcu_fd_sc_mcu9t5v0__oai21_2
X_4215_ _0020_ _0023_ _2657_ _0024_ VDD VSS gf180mcu_fd_sc_mcu9t5v0__aoi21_2
X_4216_ _0019_ _0024_ _0025_ VDD VSS gf180mcu_fd_sc_mcu9t5v0__xnor2_2
X_4217_ _0018_ _0025_ _0012_ _2711_ VDD VSS gf180mcu_fd_sc_mcu9t5v0__mux2_2
X_4218_ _2526_ _0026_ VDD VSS gf180mcu_fd_sc_mcu9t5v0__inv_2
X_4219_ _2523_ _0026_ _0012_ _0027_ VDD VSS gf180mcu_fd_sc_mcu9t5v0__mux2_2
X_4220_ _0020_ _0027_ _2670_ VDD VSS gf180mcu_fd_sc_mcu9t5v0__xnor2_2
X_4221_ _2670_ _2715_ VDD VSS gf180mcu_fd_sc_mcu9t5v0__clkinv_2
X_4222_ _2524_ _2527_ _0013_ _2540_ VDD VSS gf180mcu_fd_sc_mcu9t5v0__mux2_2
X_4223_ _2540_ _2544_ VDD VSS gf180mcu_fd_sc_mcu9t5v0__clkinv_2
X_4224_ _0002_ _0003_ _0028_ VDD VSS gf180mcu_fd_sc_mcu9t5v0__or2_2
X_4225_ net60 net59 net58 _0029_ VDD VSS gf180mcu_fd_sc_mcu9t5v0__or3_2
X_4226_ _4126_ _0030_ VDD VSS gf180mcu_fd_sc_mcu9t5v0__clkinv_2
X_4227_ net63 _0030_ _4124_ _0031_ VDD VSS gf180mcu_fd_sc_mcu9t5v0__aoi21_4
X_4228_ _0028_ _0029_ _0005_ _0031_ _0032_ VDD VSS gf180mcu_fd_sc_mcu9t5v0__oai31_2
X_4229_ net61 _0032_ _2528_ VDD VSS gf180mcu_fd_sc_mcu9t5v0__xnor2_2
X_4230_ _2528_ _2723_ VDD VSS gf180mcu_fd_sc_mcu9t5v0__clkinv_2
X_4231_ _2523_ _0033_ VDD VSS gf180mcu_fd_sc_mcu9t5v0__clkinv_2
X_4232_ _2519_ _0033_ _0012_ _0034_ VDD VSS gf180mcu_fd_sc_mcu9t5v0__mux2_2
X_4233_ _0015_ _0034_ _2718_ VDD VSS gf180mcu_fd_sc_mcu9t5v0__xnor2_2
X_4234_ _2718_ _2666_ VDD VSS gf180mcu_fd_sc_mcu9t5v0__clkinv_2
X_4235_ _2531_ _0035_ VDD VSS gf180mcu_fd_sc_mcu9t5v0__clkinv_8
X_4236_ _0035_ _2550_ VDD VSS gf180mcu_fd_sc_mcu9t5v0__clkbuf_16
X_4237_ _2672_ _2715_ _2550_ _2673_ VDD VSS gf180mcu_fd_sc_mcu9t5v0__mux2_2
X_4238_ _2673_ _2534_ VDD VSS gf180mcu_fd_sc_mcu9t5v0__clkinv_2
X_4239_ _2669_ _2536_ _2676_ VDD VSS gf180mcu_fd_sc_mcu9t5v0__xnor2_2
X_4240_ _2676_ _2867_ VDD VSS gf180mcu_fd_sc_mcu9t5v0__clkinv_2
X_4241_ _2644_ _0036_ VDD VSS gf180mcu_fd_sc_mcu9t5v0__clkinv_2
X_4242_ _2638_ _2522_ VDD VSS gf180mcu_fd_sc_mcu9t5v0__clkinv_2
X_4243_ _2658_ _2640_ _0037_ VDD VSS gf180mcu_fd_sc_mcu9t5v0__or2_2
X_4244_ _2662_ _0038_ VDD VSS gf180mcu_fd_sc_mcu9t5v0__clkinv_2
X_4245_ _0036_ _0020_ _2522_ _0037_ _0038_ _0039_ VDD VSS
+ gf180mcu_fd_sc_mcu9t5v0__oai221_4
X_4246_ _2680_ _0040_ VDD VSS gf180mcu_fd_sc_mcu9t5v0__clkinv_2
X_4247_ _0040_ _0041_ VDD VSS gf180mcu_fd_sc_mcu9t5v0__clkbuf_4
X_4248_ _2654_ _0041_ _2692_ _0042_ VDD VSS gf180mcu_fd_sc_mcu9t5v0__or3_2
X_4249_ _0014_ _0039_ _0042_ _0043_ VDD VSS gf180mcu_fd_sc_mcu9t5v0__aoi21_2
X_4250_ _2688_ _0044_ VDD VSS gf180mcu_fd_sc_mcu9t5v0__inv_4
X_4251_ _0014_ _0044_ _0041_ _0039_ _0045_ VDD VSS gf180mcu_fd_sc_mcu9t5v0__and4_2
X_4252_ _2680_ _0046_ VDD VSS gf180mcu_fd_sc_mcu9t5v0__buf_4
X_4253_ _2692_ _0047_ VDD VSS gf180mcu_fd_sc_mcu9t5v0__inv_3
X_4254_ _0044_ _0041_ _2692_ _0048_ VDD VSS gf180mcu_fd_sc_mcu9t5v0__or3_2
X_4255_ _2654_ _0049_ VDD VSS gf180mcu_fd_sc_mcu9t5v0__inv_3
X_4256_ _2688_ _0050_ VDD VSS gf180mcu_fd_sc_mcu9t5v0__clkbuf_8
X_4257_ _0049_ _0050_ _0046_ _0051_ VDD VSS gf180mcu_fd_sc_mcu9t5v0__or3_2
X_4258_ _0046_ _0047_ _0048_ _0051_ _0052_ VDD VSS gf180mcu_fd_sc_mcu9t5v0__oai211_4
X_4259_ _0043_ _0045_ _0052_ _0053_ VDD VSS gf180mcu_fd_sc_mcu9t5v0__nor3_2
X_4260_ _2657_ _0054_ VDD VSS gf180mcu_fd_sc_mcu9t5v0__clkinv_4
X_4261_ _0021_ _2525_ _0054_ _0022_ _0055_ VDD VSS gf180mcu_fd_sc_mcu9t5v0__oai211_4
X_4262_ _0015_ _0054_ _0014_ _0056_ VDD VSS gf180mcu_fd_sc_mcu9t5v0__aoi21_2
X_4263_ _0055_ _0056_ _2649_ _0057_ VDD VSS gf180mcu_fd_sc_mcu9t5v0__aoi21_2
X_4264_ _0050_ _0041_ _0058_ VDD VSS gf180mcu_fd_sc_mcu9t5v0__nand2_2
X_4265_ _2525_ _0059_ VDD VSS gf180mcu_fd_sc_mcu9t5v0__clkinv_2
X_4266_ _2640_ _0059_ _2657_ _2641_ _0060_ VDD VSS gf180mcu_fd_sc_mcu9t5v0__aoi211_4
X_4267_ _0020_ _2657_ _0019_ _0061_ VDD VSS gf180mcu_fd_sc_mcu9t5v0__oai21_2
X_4268_ _2687_ _0062_ VDD VSS gf180mcu_fd_sc_mcu9t5v0__clkinv_2
X_4269_ _0046_ _0062_ _0063_ VDD VSS gf180mcu_fd_sc_mcu9t5v0__and2_2
X_4270_ _2649_ _0064_ VDD VSS gf180mcu_fd_sc_mcu9t5v0__clkinv_3
X_4271_ _0060_ _0061_ _0063_ _0064_ _0065_ VDD VSS gf180mcu_fd_sc_mcu9t5v0__oai211_2
X_4272_ _0044_ _0046_ _0066_ VDD VSS gf180mcu_fd_sc_mcu9t5v0__nand2_2
X_4273_ _0046_ _0066_ _0062_ _0067_ VDD VSS gf180mcu_fd_sc_mcu9t5v0__mux2_2
X_4274_ _0057_ _0058_ _0065_ _0067_ _0068_ VDD VSS gf180mcu_fd_sc_mcu9t5v0__oai211_2
X_4275_ _0053_ _0068_ _0013_ _2703_ VDD VSS gf180mcu_fd_sc_mcu9t5v0__mux2_2
X_4276_ _2696_ _0069_ VDD VSS gf180mcu_fd_sc_mcu9t5v0__clkinv_4
X_4277_ _2519_ _0070_ VDD VSS gf180mcu_fd_sc_mcu9t5v0__clkinv_2
X_4278_ _2658_ _0070_ _2652_ _2660_ _0071_ VDD VSS gf180mcu_fd_sc_mcu9t5v0__aoi211_4
X_4279_ _0019_ _2652_ _2688_ _0072_ VDD VSS gf180mcu_fd_sc_mcu9t5v0__oai21_4
X_4280_ _2690_ _2682_ _0073_ VDD VSS gf180mcu_fd_sc_mcu9t5v0__nor2_4
X_4281_ _0071_ _0072_ _0073_ _0074_ VDD VSS gf180mcu_fd_sc_mcu9t5v0__oai21_2
X_4282_ _0046_ _2682_ _0074_ _0075_ VDD VSS gf180mcu_fd_sc_mcu9t5v0__oai21_2
X_4283_ _0069_ _0075_ _0076_ VDD VSS gf180mcu_fd_sc_mcu9t5v0__xnor2_2
X_4284_ _2696_ _0077_ VDD VSS gf180mcu_fd_sc_mcu9t5v0__buf_4
X_4285_ _0041_ _0077_ _0078_ VDD VSS gf180mcu_fd_sc_mcu9t5v0__nand2_2
X_4286_ _2684_ _2696_ _0079_ VDD VSS gf180mcu_fd_sc_mcu9t5v0__nor2_2
X_4287_ _0049_ _0050_ _0047_ _0079_ _0080_ VDD VSS gf180mcu_fd_sc_mcu9t5v0__oai211_2
X_4288_ _2658_ _2523_ _0081_ VDD VSS gf180mcu_fd_sc_mcu9t5v0__nor2_4
X_4289_ _2662_ _0081_ _0014_ _0044_ _0082_ VDD VSS gf180mcu_fd_sc_mcu9t5v0__oai211_4
X_4290_ _0078_ _0080_ _0082_ _0083_ VDD VSS gf180mcu_fd_sc_mcu9t5v0__mux2_2
X_4291_ _0049_ _0050_ _0047_ _0084_ VDD VSS gf180mcu_fd_sc_mcu9t5v0__oai21_2
X_4292_ _0041_ _2696_ _0085_ VDD VSS gf180mcu_fd_sc_mcu9t5v0__and2_2
X_4293_ _2684_ _0086_ VDD VSS gf180mcu_fd_sc_mcu9t5v0__inv_2
X_4294_ _2680_ _0086_ _0069_ _0087_ VDD VSS gf180mcu_fd_sc_mcu9t5v0__and3_2
X_4295_ _2684_ _0077_ _0084_ _0085_ _0087_ _0088_ VDD VSS
+ gf180mcu_fd_sc_mcu9t5v0__aoi221_4
X_4296_ _0010_ _0083_ _0088_ _0089_ VDD VSS gf180mcu_fd_sc_mcu9t5v0__and3_2
X_4297_ _2530_ _0076_ _0089_ _2831_ VDD VSS gf180mcu_fd_sc_mcu9t5v0__aoi21_2
X_4298_ _2642_ _0090_ VDD VSS gf180mcu_fd_sc_mcu9t5v0__clkinv_2
X_4299_ _2660_ _0091_ VDD VSS gf180mcu_fd_sc_mcu9t5v0__clkinv_4
X_4300_ _0021_ _2518_ _0090_ _0091_ _0092_ VDD VSS gf180mcu_fd_sc_mcu9t5v0__oai211_4
X_4301_ _0015_ _0091_ _0014_ _0093_ VDD VSS gf180mcu_fd_sc_mcu9t5v0__aoi21_4
X_4302_ _0041_ _2690_ _2652_ _0094_ VDD VSS gf180mcu_fd_sc_mcu9t5v0__or3_2
X_4303_ _0092_ _0093_ _0094_ _0095_ VDD VSS gf180mcu_fd_sc_mcu9t5v0__aoi21_2
X_4304_ _0050_ _0041_ _0092_ _0093_ _0096_ VDD VSS gf180mcu_fd_sc_mcu9t5v0__and4_2
X_4305_ _2652_ _0097_ VDD VSS gf180mcu_fd_sc_mcu9t5v0__clkinv_3
X_4306_ _0041_ _2690_ _0098_ VDD VSS gf180mcu_fd_sc_mcu9t5v0__nand2_2
X_4307_ _0097_ _0058_ _0066_ _2690_ _0098_ _0099_ VDD VSS
+ gf180mcu_fd_sc_mcu9t5v0__oai221_2
X_4308_ _0007_ _0095_ _0096_ _0099_ _0100_ VDD VSS gf180mcu_fd_sc_mcu9t5v0__or4_2
X_4309_ _0043_ _0045_ _0052_ _0010_ _0101_ VDD VSS gf180mcu_fd_sc_mcu9t5v0__oai31_2
X_4310_ _0100_ _0101_ _2835_ VDD VSS gf180mcu_fd_sc_mcu9t5v0__and2_2
X_4311_ _0015_ _2519_ _0097_ _0091_ _0102_ VDD VSS gf180mcu_fd_sc_mcu9t5v0__oai211_4
X_4312_ _0072_ _0103_ VDD VSS gf180mcu_fd_sc_mcu9t5v0__clkinv_2
X_4313_ _0102_ _0103_ _0104_ VDD VSS gf180mcu_fd_sc_mcu9t5v0__and2_2
X_4314_ _0015_ _2519_ _0091_ _0105_ VDD VSS gf180mcu_fd_sc_mcu9t5v0__oai21_2
X_4315_ _0019_ _0105_ _2652_ _0050_ _0106_ VDD VSS gf180mcu_fd_sc_mcu9t5v0__aoi211_4
X_4316_ _0104_ _0106_ _0107_ VDD VSS gf180mcu_fd_sc_mcu9t5v0__nor2_2
X_4317_ _2662_ _0081_ _0014_ _0108_ VDD VSS gf180mcu_fd_sc_mcu9t5v0__oai21_2
X_4318_ _0049_ _0108_ _0044_ _0109_ VDD VSS gf180mcu_fd_sc_mcu9t5v0__aoi21_2
X_4319_ _0049_ _0044_ _0108_ _0110_ VDD VSS gf180mcu_fd_sc_mcu9t5v0__and3_2
X_4320_ _0109_ _0110_ _0111_ VDD VSS gf180mcu_fd_sc_mcu9t5v0__or2_2
X_4321_ _0107_ _0111_ _0013_ _2839_ VDD VSS gf180mcu_fd_sc_mcu9t5v0__mux2_2
X_4322_ _0092_ _0093_ _0112_ VDD VSS gf180mcu_fd_sc_mcu9t5v0__and2_2
X_4323_ _0021_ _2518_ _0090_ _0113_ VDD VSS gf180mcu_fd_sc_mcu9t5v0__oai21_2
X_4324_ _0020_ _0113_ _2660_ _0019_ _0114_ VDD VSS gf180mcu_fd_sc_mcu9t5v0__aoi211_4
X_4325_ _0112_ _0114_ _0115_ VDD VSS gf180mcu_fd_sc_mcu9t5v0__nor2_2
X_4326_ _0018_ _0115_ _2530_ _2756_ VDD VSS gf180mcu_fd_sc_mcu9t5v0__mux2_2
X_4327_ _2658_ _2519_ _0116_ VDD VSS gf180mcu_fd_sc_mcu9t5v0__xnor2_2
X_4328_ _2520_ _0116_ _0117_ VDD VSS gf180mcu_fd_sc_mcu9t5v0__or2_2
X_4329_ _0104_ _0106_ _0114_ _0112_ _0118_ VDD VSS gf180mcu_fd_sc_mcu9t5v0__oai22_2
X_4330_ _0020_ _2523_ _0119_ VDD VSS gf180mcu_fd_sc_mcu9t5v0__and2_2
X_4331_ _2524_ _0120_ VDD VSS gf180mcu_fd_sc_mcu9t5v0__clkinv_2
X_4332_ _0081_ _0119_ _0120_ _0121_ VDD VSS gf180mcu_fd_sc_mcu9t5v0__oai21_2
X_4333_ _0018_ _0109_ _0110_ _0121_ _0122_ VDD VSS gf180mcu_fd_sc_mcu9t5v0__or4_2
X_4334_ _0100_ _0117_ _0118_ _0122_ _0101_ _0123_ VDD VSS
+ gf180mcu_fd_sc_mcu9t5v0__oai32_2
X_4335_ net9 _0123_ _0124_ VDD VSS gf180mcu_fd_sc_mcu9t5v0__nor2_2
X_4336_ _2831_ _0124_ _2702_ VDD VSS gf180mcu_fd_sc_mcu9t5v0__xnor2_2
X_4337_ _0015_ _2526_ _0054_ _0125_ VDD VSS gf180mcu_fd_sc_mcu9t5v0__oai21_2
X_4338_ _0019_ _0125_ _2649_ _0126_ VDD VSS gf180mcu_fd_sc_mcu9t5v0__aoi21_2
X_4339_ _0050_ _0126_ _0127_ VDD VSS gf180mcu_fd_sc_mcu9t5v0__xnor2_2
X_4340_ _0111_ _0127_ _0013_ _2707_ VDD VSS gf180mcu_fd_sc_mcu9t5v0__mux2_2
X_4341_ net1 _0128_ VDD VSS gf180mcu_fd_sc_mcu9t5v0__buf_4
X_4342_ _0018_ _0111_ _0129_ VDD VSS gf180mcu_fd_sc_mcu9t5v0__nor2_2
X_4343_ _0012_ _0129_ _0130_ VDD VSS gf180mcu_fd_sc_mcu9t5v0__nand2_2
X_4344_ _0012_ _0118_ _0130_ _0131_ VDD VSS gf180mcu_fd_sc_mcu9t5v0__oai21_2
X_4345_ _2719_ _0131_ _0132_ VDD VSS gf180mcu_fd_sc_mcu9t5v0__nand2_2
X_4346_ _0128_ _0132_ _0133_ VDD VSS gf180mcu_fd_sc_mcu9t5v0__and2_2
X_4347_ _2835_ _0133_ _2706_ VDD VSS gf180mcu_fd_sc_mcu9t5v0__xnor2_2
X_4348_ _2520_ _0013_ _0134_ VDD VSS gf180mcu_fd_sc_mcu9t5v0__nor2_2
X_4349_ _0120_ _2523_ _0135_ VDD VSS gf180mcu_fd_sc_mcu9t5v0__and2_2
X_4350_ _0070_ _0134_ _0135_ _0013_ _0015_ _0136_ VDD VSS
+ gf180mcu_fd_sc_mcu9t5v0__aoi221_2
X_4351_ _0120_ _0033_ _0137_ VDD VSS gf180mcu_fd_sc_mcu9t5v0__and2_2
X_4352_ _2519_ _0134_ _0137_ _0013_ _0020_ _0138_ VDD VSS
+ gf180mcu_fd_sc_mcu9t5v0__aoi221_2
X_4353_ net1 _0139_ VDD VSS gf180mcu_fd_sc_mcu9t5v0__buf_4
X_4354_ _2756_ _0136_ _0138_ _0139_ _0140_ VDD VSS gf180mcu_fd_sc_mcu9t5v0__oai31_2
X_4355_ _2839_ _0140_ _2710_ VDD VSS gf180mcu_fd_sc_mcu9t5v0__xor2_2
X_4356_ net9 _2719_ _0141_ VDD VSS gf180mcu_fd_sc_mcu9t5v0__nor2_2
X_4357_ _2756_ _0141_ _2714_ VDD VSS gf180mcu_fd_sc_mcu9t5v0__xnor2_2
X_4358_ _2720_ _0142_ VDD VSS gf180mcu_fd_sc_mcu9t5v0__clkinv_2
X_4359_ _0142_ _2718_ net9 _2539_ VDD VSS gf180mcu_fd_sc_mcu9t5v0__mux2_2
X_4360_ _2543_ _2538_ VDD VSS gf180mcu_fd_sc_mcu9t5v0__clkinv_2
X_4361_ _2722_ _0143_ VDD VSS gf180mcu_fd_sc_mcu9t5v0__clkinv_2
X_4362_ _2721_ _0144_ VDD VSS gf180mcu_fd_sc_mcu9t5v0__clkinv_2
X_4363_ _0143_ _2543_ _0144_ _0145_ VDD VSS gf180mcu_fd_sc_mcu9t5v0__oai21_2
X_4364_ _2717_ _0145_ _2716_ _0146_ VDD VSS gf180mcu_fd_sc_mcu9t5v0__aoi21_2
X_4365_ _2713_ _0146_ _2859_ VDD VSS gf180mcu_fd_sc_mcu9t5v0__xnor2_2
X_4366_ _2859_ _2767_ VDD VSS gf180mcu_fd_sc_mcu9t5v0__clkinv_2
X_4367_ _2717_ _2541_ _2766_ VDD VSS gf180mcu_fd_sc_mcu9t5v0__xnor2_2
X_4368_ _2766_ _2863_ VDD VSS gf180mcu_fd_sc_mcu9t5v0__clkinv_2
X_4369_ _2705_ _0147_ VDD VSS gf180mcu_fd_sc_mcu9t5v0__clkinv_3
X_4370_ _2722_ _2538_ _2716_ _2721_ _0148_ VDD VSS gf180mcu_fd_sc_mcu9t5v0__aoi211_4
X_4371_ _2717_ _2716_ _2713_ _0149_ VDD VSS gf180mcu_fd_sc_mcu9t5v0__oai21_2
X_4372_ _2712_ _0150_ VDD VSS gf180mcu_fd_sc_mcu9t5v0__clkinv_2
X_4373_ _0148_ _0149_ _0150_ _0151_ VDD VSS gf180mcu_fd_sc_mcu9t5v0__oai21_2
X_4374_ _2709_ _0151_ _2708_ _0152_ VDD VSS gf180mcu_fd_sc_mcu9t5v0__aoi21_2
X_4375_ _0147_ _0152_ _0153_ VDD VSS gf180mcu_fd_sc_mcu9t5v0__xnor2_2
X_4376_ _0153_ _2851_ VDD VSS gf180mcu_fd_sc_mcu9t5v0__clkinv_2
X_4377_ net57 _0154_ VDD VSS gf180mcu_fd_sc_mcu9t5v0__clkbuf_20
X_4378_ _0154_ _2561_ VDD VSS gf180mcu_fd_sc_mcu9t5v0__clkinv_20
X_4379_ net65 _0155_ VDD VSS gf180mcu_fd_sc_mcu9t5v0__clkinv_2
X_4380_ net63 _0030_ _4124_ _2911_ _0156_ VDD VSS gf180mcu_fd_sc_mcu9t5v0__aoi211_2
X_4381_ _0155_ _0156_ _2545_ VDD VSS gf180mcu_fd_sc_mcu9t5v0__xnor2_2
X_4382_ _2545_ _2549_ VDD VSS gf180mcu_fd_sc_mcu9t5v0__clkinv_2
X_4383_ _2752_ _2754_ _0157_ VDD VSS gf180mcu_fd_sc_mcu9t5v0__nand2_2
X_4384_ _2752_ _2753_ _2751_ _0158_ VDD VSS gf180mcu_fd_sc_mcu9t5v0__aoi21_2
X_4385_ _2549_ _0157_ _0158_ _0159_ VDD VSS gf180mcu_fd_sc_mcu9t5v0__oai21_2
X_4386_ _2749_ _0159_ _2748_ _0160_ VDD VSS gf180mcu_fd_sc_mcu9t5v0__aoi21_4
X_4387_ _2737_ _2743_ _2746_ _2740_ _0161_ VDD VSS gf180mcu_fd_sc_mcu9t5v0__and4_2
X_4388_ _0161_ _0162_ VDD VSS gf180mcu_fd_sc_mcu9t5v0__clkinv_2
X_4389_ _2739_ _0163_ VDD VSS gf180mcu_fd_sc_mcu9t5v0__clkinv_2
X_4390_ _2745_ _2743_ _0164_ VDD VSS gf180mcu_fd_sc_mcu9t5v0__and2_2
X_4391_ _0164_ _2742_ _2740_ _0165_ VDD VSS gf180mcu_fd_sc_mcu9t5v0__oai21_2
X_4392_ _0165_ _0163_ _0166_ VDD VSS gf180mcu_fd_sc_mcu9t5v0__nand2_2
X_4393_ _2737_ _0166_ _2736_ _0167_ VDD VSS gf180mcu_fd_sc_mcu9t5v0__aoi21_4
X_4394_ _2733_ _0168_ VDD VSS gf180mcu_fd_sc_mcu9t5v0__clkinv_2
X_4395_ _0160_ _0162_ _0167_ _0168_ _0169_ VDD VSS gf180mcu_fd_sc_mcu9t5v0__oai211_4
X_4396_ _2734_ _0170_ VDD VSS gf180mcu_fd_sc_mcu9t5v0__clkinv_2
X_4397_ _0170_ _0168_ _0171_ VDD VSS gf180mcu_fd_sc_mcu9t5v0__nand2_2
X_4398_ _2731_ _0169_ _0171_ _0172_ VDD VSS gf180mcu_fd_sc_mcu9t5v0__nand3_4
X_4399_ _2664_ _2727_ _2730_ _0173_ VDD VSS gf180mcu_fd_sc_mcu9t5v0__nor3_4
X_4400_ _2531_ _2532_ _0174_ VDD VSS gf180mcu_fd_sc_mcu9t5v0__xor2_2
X_4401_ _2728_ _2727_ _0175_ VDD VSS gf180mcu_fd_sc_mcu9t5v0__or2_2
X_4402_ _2725_ _0174_ _0175_ _0176_ VDD VSS gf180mcu_fd_sc_mcu9t5v0__and3_2
X_4403_ _2664_ _0176_ _0177_ VDD VSS gf180mcu_fd_sc_mcu9t5v0__or2_2
X_4404_ _0177_ _0178_ VDD VSS gf180mcu_fd_sc_mcu9t5v0__clkinv_2
X_4405_ _0173_ _0172_ _0178_ _0179_ VDD VSS gf180mcu_fd_sc_mcu9t5v0__aoi21_4
X_4406_ _0179_ _0180_ VDD VSS gf180mcu_fd_sc_mcu9t5v0__clkinv_4
X_4407_ _0180_ _0181_ VDD VSS gf180mcu_fd_sc_mcu9t5v0__clkbuf_12
X_4408_ _0181_ _2882_ VDD VSS gf180mcu_fd_sc_mcu9t5v0__clkbuf_16
X_4409_ _2668_ _0182_ VDD VSS gf180mcu_fd_sc_mcu9t5v0__clkinv_2
X_4410_ _2669_ _0183_ VDD VSS gf180mcu_fd_sc_mcu9t5v0__clkinv_4
X_4411_ _2675_ _2770_ _2674_ _0184_ VDD VSS gf180mcu_fd_sc_mcu9t5v0__aoi21_2
X_4412_ _0183_ _0184_ _0185_ VDD VSS gf180mcu_fd_sc_mcu9t5v0__or2_2
X_4413_ _0182_ _0185_ _0186_ VDD VSS gf180mcu_fd_sc_mcu9t5v0__and2_2
X_4414_ _2758_ _0186_ _2759_ VDD VSS gf180mcu_fd_sc_mcu9t5v0__xnor2_2
X_4415_ _2759_ _2866_ VDD VSS gf180mcu_fd_sc_mcu9t5v0__clkinv_2
X_4416_ _2765_ _0187_ VDD VSS gf180mcu_fd_sc_mcu9t5v0__clkinv_2
X_4417_ _2551_ _2772_ _2771_ _0188_ VDD VSS gf180mcu_fd_sc_mcu9t5v0__aoi21_2
X_4418_ _2764_ _0189_ VDD VSS gf180mcu_fd_sc_mcu9t5v0__clkinv_2
X_4419_ _0187_ _0188_ _0189_ _0190_ VDD VSS gf180mcu_fd_sc_mcu9t5v0__oai21_2
X_4420_ _2762_ _0190_ _3085_ VDD VSS gf180mcu_fd_sc_mcu9t5v0__xnor2_2
X_4421_ _2688_ _0047_ _0191_ VDD VSS gf180mcu_fd_sc_mcu9t5v0__and2_2
X_4422_ _0040_ _0069_ _0192_ VDD VSS gf180mcu_fd_sc_mcu9t5v0__nand2_2
X_4423_ _0019_ _0017_ _0191_ _0192_ _0193_ VDD VSS gf180mcu_fd_sc_mcu9t5v0__nor4_4
X_4424_ _0049_ _0050_ _0086_ _0047_ _0194_ VDD VSS gf180mcu_fd_sc_mcu9t5v0__oai211_4
X_4425_ _2680_ _0086_ _2696_ _0195_ VDD VSS gf180mcu_fd_sc_mcu9t5v0__aoi21_4
X_4426_ _0194_ _0195_ _0196_ VDD VSS gf180mcu_fd_sc_mcu9t5v0__and2_2
X_4427_ _2780_ _0197_ VDD VSS gf180mcu_fd_sc_mcu9t5v0__buf_4
X_4428_ _2700_ _0193_ _0196_ _0197_ _0198_ VDD VSS gf180mcu_fd_sc_mcu9t5v0__oai31_2
X_4429_ _2700_ _0197_ _0193_ _0196_ _0199_ VDD VSS gf180mcu_fd_sc_mcu9t5v0__or4_2
X_4430_ _0198_ _0199_ _0200_ VDD VSS gf180mcu_fd_sc_mcu9t5v0__and2_2
X_4431_ _0050_ _2687_ _2696_ _0046_ _0201_ VDD VSS gf180mcu_fd_sc_mcu9t5v0__oai211_2
X_4432_ _0077_ _2679_ _2695_ _0202_ VDD VSS gf180mcu_fd_sc_mcu9t5v0__aoi21_2
X_4433_ _0201_ _0202_ _0203_ VDD VSS gf180mcu_fd_sc_mcu9t5v0__and2_2
X_4434_ _2649_ _2687_ _2679_ _2695_ _0204_ VDD VSS gf180mcu_fd_sc_mcu9t5v0__or4_2
X_4435_ _0055_ _0056_ _0204_ _0205_ VDD VSS gf180mcu_fd_sc_mcu9t5v0__aoi21_4
X_4436_ _0203_ _0205_ _0197_ _0206_ VDD VSS gf180mcu_fd_sc_mcu9t5v0__oai21_2
X_4437_ _0197_ _0203_ _0205_ _0207_ VDD VSS gf180mcu_fd_sc_mcu9t5v0__or3_2
X_4438_ _0011_ _0206_ _0207_ _0208_ VDD VSS gf180mcu_fd_sc_mcu9t5v0__and3_2
X_4439_ _2530_ _0200_ _0208_ _2795_ VDD VSS gf180mcu_fd_sc_mcu9t5v0__aoi21_2
X_4440_ _2788_ _0209_ VDD VSS gf180mcu_fd_sc_mcu9t5v0__buf_4
X_4441_ _2700_ _0210_ VDD VSS gf180mcu_fd_sc_mcu9t5v0__clkinv_2
X_4442_ _0041_ _2684_ _0069_ _0211_ VDD VSS gf180mcu_fd_sc_mcu9t5v0__oai21_2
X_4443_ _0210_ _0211_ _2780_ _0212_ VDD VSS gf180mcu_fd_sc_mcu9t5v0__aoi21_2
X_4444_ _2654_ _0044_ _2692_ _0213_ VDD VSS gf180mcu_fd_sc_mcu9t5v0__aoi21_4
X_4445_ _2684_ _2700_ _2784_ _0214_ VDD VSS gf180mcu_fd_sc_mcu9t5v0__nor3_4
X_4446_ _0082_ _0213_ _0214_ _0215_ VDD VSS gf180mcu_fd_sc_mcu9t5v0__nand3_4
X_4447_ _2784_ _0212_ _0215_ _0010_ _0216_ VDD VSS gf180mcu_fd_sc_mcu9t5v0__oai211_2
X_4448_ _2780_ _2698_ _2782_ _0217_ VDD VSS gf180mcu_fd_sc_mcu9t5v0__aoi21_4
X_4449_ _2680_ _2682_ _2696_ _2780_ _0218_ VDD VSS gf180mcu_fd_sc_mcu9t5v0__oai211_2
X_4450_ _0217_ _0218_ _0219_ VDD VSS gf180mcu_fd_sc_mcu9t5v0__and2_2
X_4451_ _0073_ _0217_ _0220_ VDD VSS gf180mcu_fd_sc_mcu9t5v0__nand2_2
X_4452_ _0102_ _0103_ _0220_ _0221_ VDD VSS gf180mcu_fd_sc_mcu9t5v0__aoi21_4
X_4453_ _0219_ _0221_ _0008_ _0222_ VDD VSS gf180mcu_fd_sc_mcu9t5v0__oai21_2
X_4454_ _0209_ _0216_ _0222_ _0223_ VDD VSS gf180mcu_fd_sc_mcu9t5v0__and3_2
X_4455_ _0216_ _0222_ _0209_ _0224_ VDD VSS gf180mcu_fd_sc_mcu9t5v0__aoi21_2
X_4456_ _0223_ _0224_ _0225_ VDD VSS gf180mcu_fd_sc_mcu9t5v0__or2_2
X_4457_ _0225_ _2823_ VDD VSS gf180mcu_fd_sc_mcu9t5v0__clkinv_2
X_4458_ _0197_ _0226_ VDD VSS gf180mcu_fd_sc_mcu9t5v0__clkinv_2
X_4459_ _2518_ _0227_ VDD VSS gf180mcu_fd_sc_mcu9t5v0__clkinv_2
X_4460_ _2640_ _0227_ _2642_ _2660_ _0228_ VDD VSS gf180mcu_fd_sc_mcu9t5v0__aoi211_4
X_4461_ _2658_ _2660_ _0019_ _0229_ VDD VSS gf180mcu_fd_sc_mcu9t5v0__oai21_2
X_4462_ _0228_ _0229_ _0097_ _0073_ _0230_ VDD VSS gf180mcu_fd_sc_mcu9t5v0__oai211_4
X_4463_ _2682_ _0231_ VDD VSS gf180mcu_fd_sc_mcu9t5v0__clkinv_2
X_4464_ _2688_ _2690_ _2680_ _0232_ VDD VSS gf180mcu_fd_sc_mcu9t5v0__oai21_2
X_4465_ _0231_ _0232_ _0233_ VDD VSS gf180mcu_fd_sc_mcu9t5v0__nand2_2
X_4466_ _0077_ _0233_ _0234_ VDD VSS gf180mcu_fd_sc_mcu9t5v0__and2_2
X_4467_ _0230_ _0234_ _2698_ _0235_ VDD VSS gf180mcu_fd_sc_mcu9t5v0__aoi21_2
X_4468_ _0226_ _0235_ _0236_ VDD VSS gf180mcu_fd_sc_mcu9t5v0__xnor2_2
X_4469_ _0012_ _0200_ _0237_ VDD VSS gf180mcu_fd_sc_mcu9t5v0__and2_2
X_4470_ _2530_ _0236_ _0237_ _2827_ VDD VSS gf180mcu_fd_sc_mcu9t5v0__aoi21_2
X_4471_ _0089_ _0198_ _0199_ _0238_ VDD VSS gf180mcu_fd_sc_mcu9t5v0__and3_2
X_4472_ _2698_ _0233_ _0239_ VDD VSS gf180mcu_fd_sc_mcu9t5v0__nor2_2
X_4473_ _2690_ _2682_ _2652_ _2698_ _0240_ VDD VSS gf180mcu_fd_sc_mcu9t5v0__or4_2
X_4474_ _0092_ _0093_ _0240_ _0241_ VDD VSS gf180mcu_fd_sc_mcu9t5v0__aoi21_2
X_4475_ _0226_ _0239_ _0241_ _0242_ VDD VSS gf180mcu_fd_sc_mcu9t5v0__or3_2
X_4476_ _0239_ _0241_ _0226_ _0243_ VDD VSS gf180mcu_fd_sc_mcu9t5v0__oai21_2
X_4477_ _0077_ _0008_ _0244_ VDD VSS gf180mcu_fd_sc_mcu9t5v0__nand2_2
X_4478_ _0242_ _0243_ _0244_ _0075_ _0245_ VDD VSS gf180mcu_fd_sc_mcu9t5v0__aoi211_2
X_4479_ _2780_ _2698_ _0246_ VDD VSS gf180mcu_fd_sc_mcu9t5v0__xnor2_2
X_4480_ _0069_ net127 _0075_ _0246_ _0247_ VDD VSS gf180mcu_fd_sc_mcu9t5v0__and4_2
X_4481_ _0238_ _0245_ _0247_ _0123_ _0248_ VDD VSS gf180mcu_fd_sc_mcu9t5v0__oai31_2
X_4482_ _0128_ _0248_ _0249_ VDD VSS gf180mcu_fd_sc_mcu9t5v0__and2_2
X_4483_ _2823_ _0249_ _2794_ VDD VSS gf180mcu_fd_sc_mcu9t5v0__xnor2_2
X_4484_ _0083_ _0088_ _0250_ VDD VSS gf180mcu_fd_sc_mcu9t5v0__nand2_2
X_4485_ _0015_ _2526_ _0064_ _0054_ _0251_ VDD VSS gf180mcu_fd_sc_mcu9t5v0__oai211_4
X_4486_ _0014_ _0064_ _0044_ _0252_ VDD VSS gf180mcu_fd_sc_mcu9t5v0__aoi21_2
X_4487_ _0251_ _0252_ _2687_ _0253_ VDD VSS gf180mcu_fd_sc_mcu9t5v0__aoi21_2
X_4488_ _0046_ _0069_ _0254_ VDD VSS gf180mcu_fd_sc_mcu9t5v0__nand2_2
X_4489_ _0020_ _0026_ _2649_ _2657_ _0255_ VDD VSS gf180mcu_fd_sc_mcu9t5v0__aoi211_4
X_4490_ _0019_ _2649_ _0050_ _0256_ VDD VSS gf180mcu_fd_sc_mcu9t5v0__oai21_2
X_4491_ _2679_ _0257_ VDD VSS gf180mcu_fd_sc_mcu9t5v0__clkinv_2
X_4492_ _0077_ _0257_ _0258_ VDD VSS gf180mcu_fd_sc_mcu9t5v0__and2_2
X_4493_ _0255_ _0256_ _0258_ _0062_ _0259_ VDD VSS gf180mcu_fd_sc_mcu9t5v0__oai211_2
X_4494_ _0077_ _0078_ _0257_ _0260_ VDD VSS gf180mcu_fd_sc_mcu9t5v0__mux2_2
X_4495_ _0253_ _0254_ _0259_ _0260_ _0261_ VDD VSS gf180mcu_fd_sc_mcu9t5v0__oai211_2
X_4496_ _0250_ _0261_ _0013_ _2799_ VDD VSS gf180mcu_fd_sc_mcu9t5v0__mux2_2
X_4497_ _2831_ _2835_ _0132_ _0262_ VDD VSS gf180mcu_fd_sc_mcu9t5v0__or3_2
X_4498_ _0128_ _0262_ _0263_ VDD VSS gf180mcu_fd_sc_mcu9t5v0__and2_2
X_4499_ _2827_ _0263_ _2798_ VDD VSS gf180mcu_fd_sc_mcu9t5v0__xnor2_2
X_4500_ _2801_ _0264_ VDD VSS gf180mcu_fd_sc_mcu9t5v0__clkinv_2
X_4501_ _2708_ _0265_ VDD VSS gf180mcu_fd_sc_mcu9t5v0__clkinv_2
X_4502_ _0148_ _0149_ _0265_ _0150_ _0266_ VDD VSS gf180mcu_fd_sc_mcu9t5v0__oai211_2
X_4503_ _2709_ _2708_ _0267_ VDD VSS gf180mcu_fd_sc_mcu9t5v0__or2_2
X_4504_ _2705_ _0267_ _0268_ VDD VSS gf180mcu_fd_sc_mcu9t5v0__and2_2
X_4505_ _0266_ _0268_ _2704_ _0269_ VDD VSS gf180mcu_fd_sc_mcu9t5v0__aoi21_2
X_4506_ _2800_ _0270_ VDD VSS gf180mcu_fd_sc_mcu9t5v0__clkinv_2
X_4507_ _0264_ _0269_ _0270_ _0271_ VDD VSS gf180mcu_fd_sc_mcu9t5v0__oai21_2
X_4508_ _2797_ _0271_ _0272_ VDD VSS gf180mcu_fd_sc_mcu9t5v0__xnor2_2
X_4509_ _0272_ _2843_ VDD VSS gf180mcu_fd_sc_mcu9t5v0__clkinv_2
X_4510_ _2804_ _0273_ VDD VSS gf180mcu_fd_sc_mcu9t5v0__inv_4
X_4511_ _2784_ _0274_ VDD VSS gf180mcu_fd_sc_mcu9t5v0__inv_2
X_4512_ _2812_ _0275_ VDD VSS gf180mcu_fd_sc_mcu9t5v0__buf_4
X_4513_ _2780_ _0274_ _2788_ _0275_ _0276_ VDD VSS gf180mcu_fd_sc_mcu9t5v0__aoi211_4
X_4514_ _0069_ _2700_ _2784_ _0277_ VDD VSS gf180mcu_fd_sc_mcu9t5v0__or3_2
X_4515_ _2680_ _0214_ _0278_ VDD VSS gf180mcu_fd_sc_mcu9t5v0__nand2_2
X_4516_ _0276_ _0277_ _0278_ _0279_ VDD VSS gf180mcu_fd_sc_mcu9t5v0__and3_2
X_4517_ _2792_ _0280_ VDD VSS gf180mcu_fd_sc_mcu9t5v0__clkinv_2
X_4518_ _2816_ _0281_ VDD VSS gf180mcu_fd_sc_mcu9t5v0__clkinv_2
X_4519_ _0280_ _0275_ _0281_ _0282_ VDD VSS gf180mcu_fd_sc_mcu9t5v0__oai21_2
X_4520_ _0215_ _0279_ _0282_ _0283_ VDD VSS gf180mcu_fd_sc_mcu9t5v0__aoi21_2
X_4521_ _2687_ _2679_ _2779_ _0284_ VDD VSS gf180mcu_fd_sc_mcu9t5v0__or3_2
X_4522_ _0197_ _2695_ _0251_ _0252_ _0284_ _0285_ VDD VSS
+ gf180mcu_fd_sc_mcu9t5v0__aoi221_4
X_4523_ _2788_ _0275_ _0286_ VDD VSS gf180mcu_fd_sc_mcu9t5v0__and2_2
X_4524_ _0046_ _2679_ _0197_ _0077_ _0287_ VDD VSS gf180mcu_fd_sc_mcu9t5v0__oai211_2
X_4525_ _0197_ _2695_ _2779_ _0288_ VDD VSS gf180mcu_fd_sc_mcu9t5v0__aoi21_2
X_4526_ _0287_ _0288_ _0289_ VDD VSS gf180mcu_fd_sc_mcu9t5v0__nand2_2
X_4527_ _0286_ _0289_ _0290_ VDD VSS gf180mcu_fd_sc_mcu9t5v0__nand2_2
X_4528_ _0275_ _2787_ _2811_ _0291_ VDD VSS gf180mcu_fd_sc_mcu9t5v0__aoi21_2
X_4529_ _0285_ _0290_ _0291_ _0292_ VDD VSS gf180mcu_fd_sc_mcu9t5v0__oai21_2
X_4530_ _0283_ _0292_ _0011_ _0293_ VDD VSS gf180mcu_fd_sc_mcu9t5v0__mux2_2
X_4531_ _0273_ _0293_ _3009_ VDD VSS gf180mcu_fd_sc_mcu9t5v0__xnor2_2
X_4532_ _2812_ _0294_ VDD VSS gf180mcu_fd_sc_mcu9t5v0__clkinv_4
X_4533_ _2654_ _0044_ _2684_ _2692_ _0295_ VDD VSS gf180mcu_fd_sc_mcu9t5v0__aoi211_4
X_4534_ _0209_ _0296_ VDD VSS gf180mcu_fd_sc_mcu9t5v0__inv_2
X_4535_ _2784_ _0296_ _2792_ _0297_ VDD VSS gf180mcu_fd_sc_mcu9t5v0__aoi21_4
X_4536_ _0295_ _0211_ _0297_ _0210_ _0298_ VDD VSS gf180mcu_fd_sc_mcu9t5v0__oai211_2
X_4537_ _2780_ _0209_ _0299_ VDD VSS gf180mcu_fd_sc_mcu9t5v0__or2_2
X_4538_ _0297_ _0299_ _0300_ VDD VSS gf180mcu_fd_sc_mcu9t5v0__nand2_2
X_4539_ _0193_ _0298_ _0300_ _0301_ VDD VSS gf180mcu_fd_sc_mcu9t5v0__oai21_2
X_4540_ _0197_ _0209_ _0302_ VDD VSS gf180mcu_fd_sc_mcu9t5v0__nand2_2
X_4541_ _0209_ _2779_ _2787_ _0303_ VDD VSS gf180mcu_fd_sc_mcu9t5v0__aoi21_2
X_4542_ _0203_ _0205_ _0302_ _0303_ _0304_ VDD VSS gf180mcu_fd_sc_mcu9t5v0__oai31_2
X_4543_ _0301_ _0304_ _0011_ _0305_ VDD VSS gf180mcu_fd_sc_mcu9t5v0__mux2_2
X_4544_ _0294_ _0305_ _2941_ VDD VSS gf180mcu_fd_sc_mcu9t5v0__xnor2_4
X_4545_ _2784_ _0212_ _0215_ _0306_ VDD VSS gf180mcu_fd_sc_mcu9t5v0__oai21_2
X_4546_ _0197_ _2695_ _0284_ _0307_ VDD VSS gf180mcu_fd_sc_mcu9t5v0__aoi21_2
X_4547_ _0255_ _0256_ _0307_ _0308_ VDD VSS gf180mcu_fd_sc_mcu9t5v0__oai21_2
X_4548_ _0011_ _0308_ _0289_ _0309_ VDD VSS gf180mcu_fd_sc_mcu9t5v0__and3_2
X_4549_ _0009_ _0306_ _0309_ _0310_ VDD VSS gf180mcu_fd_sc_mcu9t5v0__aoi21_2
X_4550_ _0209_ _0310_ _2945_ VDD VSS gf180mcu_fd_sc_mcu9t5v0__xnor2_2
X_4551_ _0274_ _0209_ _0280_ _0311_ VDD VSS gf180mcu_fd_sc_mcu9t5v0__oai21_4
X_4552_ _0194_ _0195_ _0311_ _2700_ _0312_ VDD VSS gf180mcu_fd_sc_mcu9t5v0__aoi211_4
X_4553_ _0019_ _0017_ _0191_ _0192_ _0313_ VDD VSS gf180mcu_fd_sc_mcu9t5v0__or4_2
X_4554_ _0297_ _0299_ _0312_ _0313_ _0008_ _0314_ VDD VSS
+ gf180mcu_fd_sc_mcu9t5v0__aoi221_4
X_4555_ _0077_ _2780_ _0209_ _0233_ _0315_ VDD VSS gf180mcu_fd_sc_mcu9t5v0__and4_2
X_4556_ _2790_ _0316_ VDD VSS gf180mcu_fd_sc_mcu9t5v0__clkinv_2
X_4557_ _0296_ _0217_ _0316_ _0317_ VDD VSS gf180mcu_fd_sc_mcu9t5v0__oai21_2
X_4558_ _0230_ _0315_ _0317_ _0010_ _0318_ VDD VSS gf180mcu_fd_sc_mcu9t5v0__aoi211_2
X_4559_ _0314_ _0318_ _0275_ _0319_ VDD VSS gf180mcu_fd_sc_mcu9t5v0__oai21_2
X_4560_ _0275_ _0314_ _0318_ _0320_ VDD VSS gf180mcu_fd_sc_mcu9t5v0__or3_2
X_4561_ _0319_ _0320_ _2818_ VDD VSS gf180mcu_fd_sc_mcu9t5v0__nand2_2
X_4562_ _2833_ _2832_ _0321_ VDD VSS gf180mcu_fd_sc_mcu9t5v0__or2_2
X_4563_ _2669_ _2758_ _0322_ VDD VSS gf180mcu_fd_sc_mcu9t5v0__nand2_2
X_4564_ _2758_ _2668_ _2757_ _0323_ VDD VSS gf180mcu_fd_sc_mcu9t5v0__aoi21_4
X_4565_ _2832_ _2836_ _2840_ _0324_ VDD VSS gf180mcu_fd_sc_mcu9t5v0__nor3_2
X_4566_ _0184_ _0322_ _0323_ _0324_ _0325_ VDD VSS gf180mcu_fd_sc_mcu9t5v0__oai211_2
X_4567_ _2832_ _2836_ _0326_ VDD VSS gf180mcu_fd_sc_mcu9t5v0__nor2_2
X_4568_ _2841_ _2840_ _2837_ _0327_ VDD VSS gf180mcu_fd_sc_mcu9t5v0__oai21_2
X_4569_ _0326_ _0327_ _0328_ VDD VSS gf180mcu_fd_sc_mcu9t5v0__nand2_2
X_4570_ _0321_ _0325_ _0328_ _0329_ VDD VSS gf180mcu_fd_sc_mcu9t5v0__and3_2
X_4571_ _2825_ _2829_ _0330_ VDD VSS gf180mcu_fd_sc_mcu9t5v0__and2_2
X_4572_ _2825_ _2828_ _0331_ VDD VSS gf180mcu_fd_sc_mcu9t5v0__and2_2
X_4573_ _0329_ _0330_ _2824_ _0331_ _0332_ VDD VSS gf180mcu_fd_sc_mcu9t5v0__aoi211_2
X_4574_ _2821_ _0332_ _3033_ VDD VSS gf180mcu_fd_sc_mcu9t5v0__xnor2_2
X_4575_ _0183_ _2536_ _0182_ _0333_ VDD VSS gf180mcu_fd_sc_mcu9t5v0__oai21_4
X_4576_ _2758_ _2837_ _2841_ _0334_ VDD VSS gf180mcu_fd_sc_mcu9t5v0__and3_2
X_4577_ _2837_ _0335_ VDD VSS gf180mcu_fd_sc_mcu9t5v0__clkinv_2
X_4578_ _2841_ _2757_ _2840_ _0336_ VDD VSS gf180mcu_fd_sc_mcu9t5v0__aoi21_2
X_4579_ _0335_ _0336_ _0337_ VDD VSS gf180mcu_fd_sc_mcu9t5v0__nor2_2
X_4580_ _2832_ _2836_ _0338_ VDD VSS gf180mcu_fd_sc_mcu9t5v0__or2_2
X_4581_ _0333_ _0334_ _0337_ _0338_ _0339_ VDD VSS gf180mcu_fd_sc_mcu9t5v0__aoi211_4
X_4582_ _2829_ _0321_ _0340_ VDD VSS gf180mcu_fd_sc_mcu9t5v0__nand2_2
X_4583_ _2828_ _0341_ VDD VSS gf180mcu_fd_sc_mcu9t5v0__clkinv_2
X_4584_ _0339_ _0340_ _0341_ _0342_ VDD VSS gf180mcu_fd_sc_mcu9t5v0__oai21_2
X_4585_ _2825_ _0342_ _3037_ VDD VSS gf180mcu_fd_sc_mcu9t5v0__xor2_2
X_4586_ _2829_ _0329_ _3041_ VDD VSS gf180mcu_fd_sc_mcu9t5v0__xor2_2