
* cell cordic_core
* pin x_in[15]
* pin y_in[15]
* pin x_in[0]
* pin y_in[0]
* pin x_in[1]
* pin y_in[1]
* pin x_in[2]
* pin y_in[2]
* pin y_in[3]
* pin x_in[3]
* pin x_out[0]
* pin x_in[4]
* pin y_in[4]
* pin y_in[5]
* pin x_in[5]
* pin x_out[4]
* pin x_out[1]
* pin x_out[6]
* pin x_out[3]
* pin y_out[4]
* pin y_out[6]
* pin x_out[2]
* pin y_out[8]
* pin y_out[15]
* pin x_in[9]
* pin y_in[10]
* pin x_in[6]
* pin x_in[11]
* pin x_in[13]
* pin z_in[11]
* pin z_in[15]
* pin y_out[9]
* pin y_out[12]
* pin y_out[5]
* pin y_out[0]
* pin x_out[13]
* pin x_out[9]
* pin x_out[10]
* pin x_out[12]
* pin x_out[14]
* pin x_out[15]
* pin y_out[14]
* pin y_out[13]
* pin y_out[3]
* pin y_out[11]
* pin z_in[13]
* pin z_in[10]
* pin z_in[1]
* pin z_in[8]
* pin z_in[0]
* pin z_in[6]
* pin z_in[4]
* pin y_in[6]
* pin y_in[7]
* pin x_in[7]
* pin y_in[8]
* pin x_in[8]
* pin y_in[9]
* pin x_in[10]
* pin y_in[11]
* pin y_in[12]
* pin x_in[12]
* pin y_in[13]
* pin x_in[14]
* pin y_in[14]
* pin z_in[9]
* pin z_in[12]
* pin z_in[7]
* pin z_in[5]
* pin z_in[3]
* pin z_in[14]
* pin z_in[2]
* pin y_out[2]
* pin y_out[10]
* pin y_out[1]
* pin y_out[7]
* pin x_out[11]
* pin x_out[8]
* pin x_out[7]
* pin x_out[5]
* pin VDD
* pin VSS,gf180mcu_gnd
.SUBCKT cordic_core 2068 2114 2155 2156 2462 2603 3076 3077 3272 3273 3494 3555
+ 3556 3683 3684 4033 4074 4098 4129 4161 4195 4208 4217 4221 4225 4226 4235
+ 4237 4240 4241 4245 4246 4247 4248 4250 4251 4253 4254 4255 4256 4257 4258
+ 4259 4260 4261 4262 4263 4264 4265 4266 4267 4268 4269 4270 4271 4272 4273
+ 4274 4275 4276 4277 4278 4279 4280 4281 4282 4283 4284 4285 4286 4287 4288
+ 4289 4290 4291 4292 4293 4294 4295 4296 4297 4298
* net 2068 x_in[15]
* net 2114 y_in[15]
* net 2155 x_in[0]
* net 2156 y_in[0]
* net 2462 x_in[1]
* net 2603 y_in[1]
* net 3076 x_in[2]
* net 3077 y_in[2]
* net 3272 y_in[3]
* net 3273 x_in[3]
* net 3494 x_out[0]
* net 3555 x_in[4]
* net 3556 y_in[4]
* net 3683 y_in[5]
* net 3684 x_in[5]
* net 4033 x_out[4]
* net 4074 x_out[1]
* net 4098 x_out[6]
* net 4129 x_out[3]
* net 4161 y_out[4]
* net 4195 y_out[6]
* net 4208 x_out[2]
* net 4217 y_out[8]
* net 4221 y_out[15]
* net 4225 x_in[9]
* net 4226 y_in[10]
* net 4235 x_in[6]
* net 4237 x_in[11]
* net 4240 x_in[13]
* net 4241 z_in[11]
* net 4245 z_in[15]
* net 4246 y_out[9]
* net 4247 y_out[12]
* net 4248 y_out[5]
* net 4250 y_out[0]
* net 4251 x_out[13]
* net 4253 x_out[9]
* net 4254 x_out[10]
* net 4255 x_out[12]
* net 4256 x_out[14]
* net 4257 x_out[15]
* net 4258 y_out[14]
* net 4259 y_out[13]
* net 4260 y_out[3]
* net 4261 y_out[11]
* net 4262 z_in[13]
* net 4263 z_in[10]
* net 4264 z_in[1]
* net 4265 z_in[8]
* net 4266 z_in[0]
* net 4267 z_in[6]
* net 4268 z_in[4]
* net 4269 y_in[6]
* net 4270 y_in[7]
* net 4271 x_in[7]
* net 4272 y_in[8]
* net 4273 x_in[8]
* net 4274 y_in[9]
* net 4275 x_in[10]
* net 4276 y_in[11]
* net 4277 y_in[12]
* net 4278 x_in[12]
* net 4279 y_in[13]
* net 4280 x_in[14]
* net 4281 y_in[14]
* net 4282 z_in[9]
* net 4283 z_in[12]
* net 4284 z_in[7]
* net 4285 z_in[5]
* net 4286 z_in[3]
* net 4287 z_in[14]
* net 4288 z_in[2]
* net 4289 y_out[2]
* net 4290 y_out[10]
* net 4291 y_out[1]
* net 4292 y_out[7]
* net 4293 x_out[11]
* net 4294 x_out[8]
* net 4295 x_out[7]
* net 4296 x_out[5]
* net 4297 VDD
* net 4298 VSS,gf180mcu_gnd
* cell instance $2 r0 *1 309.68,55.44
X$2 4298 33 16 19 1 4297 gf180mcu_fd_sc_mcu9t5v0__xor3_2
* cell instance $4 r0 *1 314.72,45.36
X$4 2 3 8 1 9 4297 4298 gf180mcu_fd_sc_mcu9t5v0__aoi211_2
* cell instance $9 m0 *1 330.4,55.44
X$9 4298 2 4297 18 10 4 gf180mcu_fd_sc_mcu9t5v0__aoi21_2
* cell instance $11 r0 *1 324.24,45.36
X$11 2 4298 4297 17 106 4 gf180mcu_fd_sc_mcu9t5v0__addh_1
* cell instance $19 r0 *1 333.76,45.36
X$19 3 4297 4 5 4298 8 gf180mcu_fd_sc_mcu9t5v0__and3_2
* cell instance $22 m0 *1 337.68,55.44
X$22 3 4298 18 4297 11 gf180mcu_fd_sc_mcu9t5v0__xor2_2
* cell instance $25 m0 *1 319.76,55.44
X$25 9 4298 4297 28 30 3 gf180mcu_fd_sc_mcu9t5v0__addh_1
* cell instance $31 r0 *1 340.48,55.44
X$31 4297 4 5 4298 22 gf180mcu_fd_sc_mcu9t5v0__xnor2_2
* cell instance $37 m0 *1 329.84,65.52
X$37 20 4298 36 46 4297 5 gf180mcu_fd_sc_mcu9t5v0__or3_2
* cell instance $53 m0 *1 416.64,105.84
X$53 4298 6 4297 254 244 39 gf180mcu_fd_sc_mcu9t5v0__aoi21_2
* cell instance $56 r0 *1 411.6,105.84
X$56 4298 4297 256 6 gf180mcu_fd_sc_mcu9t5v0__inv_4
* cell instance $58 m0 *1 325.92,327.6
X$58 4298 4297 1704 1911 1948 6 gf180mcu_fd_sc_mcu9t5v0__mux2_2
* cell instance $60 m0 *1 421.68,95.76
X$60 4298 6 4297 191 182 12 gf180mcu_fd_sc_mcu9t5v0__aoi21_2
* cell instance $62 m0 *1 431.76,55.44
X$62 4298 6 4297 27 14 11 gf180mcu_fd_sc_mcu9t5v0__aoi21_2
* cell instance $65 r0 *1 420,65.52
X$65 4298 6 4297 62 13 39 gf180mcu_fd_sc_mcu9t5v0__aoi21_2
* cell instance $67 r0 *1 436.8,55.44
X$67 4298 4297 15 27 16 6 gf180mcu_fd_sc_mcu9t5v0__mux2_2
* cell instance $69 r0 *1 437.92,75.6
X$69 4298 4297 157 91 63 6 gf180mcu_fd_sc_mcu9t5v0__mux2_2
* cell instance $71 m0 *1 439.04,75.6
X$71 4298 4297 76 91 63 6 gf180mcu_fd_sc_mcu9t5v0__mux2_2
* cell instance $74 m0 *1 440.72,55.44
X$74 4298 4297 43 6 14 gf180mcu_fd_sc_mcu9t5v0__nor2_2
* cell instance $76 r0 *1 428.4,45.36
X$76 4298 4297 7 6 29 gf180mcu_fd_sc_mcu9t5v0__nor2_2
* cell instance $79 r0 *1 468.16,55.44
X$79 4298 4297 7 25 gf180mcu_fd_sc_mcu9t5v0__clkinv_2
* cell instance $82 r0 *1 455.28,55.44
X$82 4298 114 7 16 4297 gf180mcu_fd_sc_mcu9t5v0__xor2_4
* cell instance $93 r0 *1 331.52,55.44
X$93 4298 20 21 4297 10 gf180mcu_fd_sc_mcu9t5v0__or2_2
* cell instance $98 r0 *1 420.56,55.44
X$98 39 11 22 13 4298 4297 29 gf180mcu_fd_sc_mcu9t5v0__and4_2
* cell instance $101 r0 *1 445.2,55.44
X$101 4298 4297 11 40 gf180mcu_fd_sc_mcu9t5v0__clkinv_2
* cell instance $112 m0 *1 405.44,115.92
X$112 4298 363 4297 308 242 12 gf180mcu_fd_sc_mcu9t5v0__aoi21_2
* cell instance $114 m0 *1 422.8,55.44
X$114 22 4297 12 13 4298 14 gf180mcu_fd_sc_mcu9t5v0__and3_2
* cell instance $117 r0 *1 391.44,146.16
X$117 4298 363 4297 510 481 12 gf180mcu_fd_sc_mcu9t5v0__aoi21_2
* cell instance $119 r0 *1 393.12,166.32
X$119 4297 662 611 4298 12 gf180mcu_fd_sc_mcu9t5v0__and2_2
* cell instance $122 m0 *1 421.12,75.6
X$122 4297 74 182 4298 13 gf180mcu_fd_sc_mcu9t5v0__and2_2
* cell instance $135 r0 *1 476.56,105.84
X$135 4298 4297 15 273 gf180mcu_fd_sc_mcu9t5v0__clkinv_2
* cell instance $137 r0 *1 474.88,85.68
X$137 4298 4297 15 166 gf180mcu_fd_sc_mcu9t5v0__clkinv_2
* cell instance $139 r0 *1 474.88,75.6
X$139 4298 63 15 115 116 4297 gf180mcu_fd_sc_mcu9t5v0__xnor3_2
* cell instance $148 m0 *1 473.2,65.52
X$148 4298 4297 41 25 16 26 gf180mcu_fd_sc_mcu9t5v0__mux2_4
* cell instance $150 r0 *1 474.88,55.44
X$150 4298 4297 24 25 16 26 gf180mcu_fd_sc_mcu9t5v0__mux2_2
* cell instance $154 m0 *1 455.84,65.52
X$154 4298 16 42 95 54 4297 gf180mcu_fd_sc_mcu9t5v0__xor3_2
* cell instance $157 m0 *1 315.84,55.44
X$157 4298 4297 19 17 gf180mcu_fd_sc_mcu9t5v0__clkinv_2
* cell instance $170 r0 *1 291.76,65.52
X$170 4298 4297 19 37 48 49 gf180mcu_fd_sc_mcu9t5v0__mux2_2
* cell instance $175 m0 *1 312.48,65.52
X$175 20 4298 4297 34 64 47 gf180mcu_fd_sc_mcu9t5v0__addh_1
* cell instance $179 r0 *1 331.52,65.52
X$179 4297 50 73 4298 21 gf180mcu_fd_sc_mcu9t5v0__and2_2
* cell instance $184 r0 *1 427.84,55.44
X$184 4298 4297 22 23 gf180mcu_fd_sc_mcu9t5v0__clkinv_2
* cell instance $191 r0 *1 429.52,65.52
X$191 4297 23 62 4298 135 gf180mcu_fd_sc_mcu9t5v0__xnor2_2
* cell instance $193 r0 *1 452.48,75.6
X$193 111 4298 4297 139 23 136 gf180mcu_fd_sc_mcu9t5v0__addh_1
* cell instance $198 r0 *1 477.68,95.76
X$198 223 4298 4297 24 214 249 gf180mcu_fd_sc_mcu9t5v0__addh_1
* cell instance $220 m0 *1 393.12,115.92
X$220 4298 4297 26 324 267 gf180mcu_fd_sc_mcu9t5v0__nand2_2
* cell instance $222 r0 *1 381.92,126
X$222 4297 26 4298 355 404 342 gf180mcu_fd_sc_mcu9t5v0__oai21_2
* cell instance $225 m0 *1 394.8,105.84
X$225 4298 4297 26 257 241 gf180mcu_fd_sc_mcu9t5v0__nand2_2
* cell instance $228 r0 *1 401.52,85.68
X$228 4298 4297 26 181 154 gf180mcu_fd_sc_mcu9t5v0__nand2_2
* cell instance $232 r0 *1 320.88,347.76
X$232 2126 4298 4297 2154 26 2127 gf180mcu_fd_sc_mcu9t5v0__addh_1
* cell instance $235 m0 *1 320.88,367.92
X$235 2256 4298 4297 2276 26 2291 gf180mcu_fd_sc_mcu9t5v0__addh_1
* cell instance $237 r0 *1 409.92,75.6
X$237 4298 4297 26 134 90 gf180mcu_fd_sc_mcu9t5v0__nand2_2
* cell instance $239 r0 *1 416.08,75.6
X$239 4297 26 140 4298 91 gf180mcu_fd_sc_mcu9t5v0__and2_2
* cell instance $241 m0 *1 429.52,75.6
X$241 4298 4297 95 96 63 26 gf180mcu_fd_sc_mcu9t5v0__mux2_2
* cell instance $243 m0 *1 412.16,75.6
X$243 4297 26 4298 90 96 75 gf180mcu_fd_sc_mcu9t5v0__oai21_2
* cell instance $245 m0 *1 393.12,146.16
X$245 480 4298 540 528 4297 26 gf180mcu_fd_sc_mcu9t5v0__or3_2
* cell instance $255 m0 *1 297.36,65.52
X$255 4298 4297 28 31 48 32 gf180mcu_fd_sc_mcu9t5v0__mux2_4
* cell instance $269 m0 *1 348.88,75.6
X$269 30 4298 86 4297 343 gf180mcu_fd_sc_mcu9t5v0__xor2_2
* cell instance $271 r0 *1 345.52,75.6
X$271 4297 37 4298 87 106 30 153 gf180mcu_fd_sc_mcu9t5v0__oai31_2
* cell instance $273 m0 *1 343.84,65.52
X$273 4297 37 4298 45 38 30 gf180mcu_fd_sc_mcu9t5v0__oai21_2
* cell instance $275 m0 *1 245.28,75.6
X$275 4297 66 93 4298 30 gf180mcu_fd_sc_mcu9t5v0__xnor2_2
* cell instance $292 m0 *1 280,388.08
X$292 2434 4298 4297 2839 31 2482 gf180mcu_fd_sc_mcu9t5v0__addh_1
* cell instance $294 r0 *1 289.52,186.48
X$294 4298 31 4297 723 567 657 gf180mcu_fd_sc_mcu9t5v0__aoi21_2
* cell instance $296 r0 *1 288.4,156.24
X$296 4298 31 4297 595 567 573 gf180mcu_fd_sc_mcu9t5v0__aoi21_2
* cell instance $298 r0 *1 284.48,196.56
X$298 4298 4297 864 829 31 gf180mcu_fd_sc_mcu9t5v0__nor2_2
* cell instance $300 m0 *1 301.28,408.24
X$300 2574 4298 4297 3051 31 2602 gf180mcu_fd_sc_mcu9t5v0__addh_1
* cell instance $304 m0 *1 286.72,65.52
X$304 4298 4297 34 31 48 32 gf180mcu_fd_sc_mcu9t5v0__mux2_4
* cell instance $307 r0 *1 288.4,75.6
X$307 4298 31 4297 32 129 105 gf180mcu_fd_sc_mcu9t5v0__aoi21_2
* cell instance $309 m0 *1 293.44,287.28
X$309 4298 1622 31 4297 gf180mcu_fd_sc_mcu9t5v0__buf_8
* cell instance $311 m0 *1 301.28,176.4
X$311 4298 605 31 4297 679 gf180mcu_fd_sc_mcu9t5v0__or2_2
* cell instance $313 r0 *1 290.08,115.92
X$313 4298 4297 351 31 208 gf180mcu_fd_sc_mcu9t5v0__nor2_2
* cell instance $316 m0 *1 291.76,85.68
X$316 4298 4297 150 31 129 gf180mcu_fd_sc_mcu9t5v0__nor2_2
* cell instance $319 r0 *1 294.56,105.84
X$319 4298 4297 278 31 287 gf180mcu_fd_sc_mcu9t5v0__nor2_2
* cell instance $321 r0 *1 310.24,146.16
X$321 4298 4297 507 31 379 gf180mcu_fd_sc_mcu9t5v0__nor2_2
* cell instance $323 m0 *1 316.4,126
X$323 4298 31 289 4297 369 gf180mcu_fd_sc_mcu9t5v0__or2_2
* cell instance $325 m0 *1 314.16,166.32
X$325 4298 31 607 4297 628 gf180mcu_fd_sc_mcu9t5v0__or2_2
* cell instance $336 r0 *1 356.72,75.6
X$336 4297 33 87 4298 255 gf180mcu_fd_sc_mcu9t5v0__xnor2_2
* cell instance $339 m0 *1 358.96,75.6
X$339 4298 4297 52 87 33 37 gf180mcu_fd_sc_mcu9t5v0__mux2_2
* cell instance $341 r0 *1 357.84,65.52
X$341 4298 4297 51 38 33 37 gf180mcu_fd_sc_mcu9t5v0__mux2_2
* cell instance $343 m0 *1 357.84,65.52
X$343 4298 4297 44 38 33 37 gf180mcu_fd_sc_mcu9t5v0__mux2_2
* cell instance $346 r0 *1 246.4,65.52
X$346 4298 61 59 33 58 4297 gf180mcu_fd_sc_mcu9t5v0__xnor3_2
* cell instance $353 r0 *1 310.8,65.52
X$353 4337 4298 4297 34 64 50 gf180mcu_fd_sc_mcu9t5v0__addh_1
* cell instance $356 r0 *1 325.92,75.6
X$356 4298 4297 35 107 gf180mcu_fd_sc_mcu9t5v0__clkinv_2
* cell instance $358 m0 *1 322.56,65.52
X$358 4297 47 35 4298 46 gf180mcu_fd_sc_mcu9t5v0__and2_2
* cell instance $360 m0 *1 320.88,75.6
X$360 35 4298 4297 80 85 71 gf180mcu_fd_sc_mcu9t5v0__addh_1
* cell instance $363 m0 *1 330.4,75.6
X$363 71 4297 50 72 4298 36 gf180mcu_fd_sc_mcu9t5v0__and3_2
* cell instance $379 r0 *1 309.68,95.76
X$379 4297 37 209 4298 176 gf180mcu_fd_sc_mcu9t5v0__and2_2
* cell instance $381 r0 *1 315.84,105.84
X$381 4297 37 151 4298 280 gf180mcu_fd_sc_mcu9t5v0__and2_2
* cell instance $384 r0 *1 321.44,115.92
X$384 4298 367 37 318 341 4297 gf180mcu_fd_sc_mcu9t5v0__oai21_4
* cell instance $386 r0 *1 305.76,115.92
X$386 4297 37 238 4298 316 gf180mcu_fd_sc_mcu9t5v0__and2_2
* cell instance $391 m0 *1 294.56,146.16
X$391 4297 37 4298 474 497 340 gf180mcu_fd_sc_mcu9t5v0__oai21_2
* cell instance $394 r0 *1 290.64,166.32
X$394 4297 37 4298 535 658 340 gf180mcu_fd_sc_mcu9t5v0__oai21_2
* cell instance $400 m0 *1 292.88,75.6
X$400 4297 37 4298 84 49 70 gf180mcu_fd_sc_mcu9t5v0__oai21_2
* cell instance $403 r0 *1 347.76,85.68
X$403 4297 37 153 4298 152 gf180mcu_fd_sc_mcu9t5v0__and2_2
* cell instance $405 r0 *1 305.76,75.6
X$405 4297 37 4298 86 64 106 209 gf180mcu_fd_sc_mcu9t5v0__oai31_2
* cell instance $417 r0 *1 399.84,126
X$417 4298 363 4297 384 383 39 gf180mcu_fd_sc_mcu9t5v0__aoi21_2
* cell instance $423 m0 *1 394.24,166.32
X$423 4298 4297 581 39 363 gf180mcu_fd_sc_mcu9t5v0__nor2_2
* cell instance $425 m0 *1 388.08,176.4
X$425 4298 39 639 611 662 4297 gf180mcu_fd_sc_mcu9t5v0__addh_2
* cell instance $429 r0 *1 444.08,65.52
X$429 60 4298 4297 76 40 53 gf180mcu_fd_sc_mcu9t5v0__addh_1
* cell instance $431 m0 *1 441.28,65.52
X$431 4297 40 43 4298 215 gf180mcu_fd_sc_mcu9t5v0__xnor2_2
* cell instance $434 r0 *1 474.32,65.52
X$434 57 4298 4297 75 41 137 gf180mcu_fd_sc_mcu9t5v0__addh_1
* cell instance $441 m0 *1 562.24,166.32
X$441 4297 42 457 4298 622 gf180mcu_fd_sc_mcu9t5v0__xnor2_2
* cell instance $443 m0 *1 560,136.08
X$443 4298 4297 425 457 42 331 gf180mcu_fd_sc_mcu9t5v0__mux2_2
* cell instance $445 r0 *1 557.76,156.24
X$445 4298 4297 561 589 42 331 gf180mcu_fd_sc_mcu9t5v0__mux2_2
* cell instance $448 m0 *1 514.08,146.16
X$448 4298 4297 452 457 42 331 gf180mcu_fd_sc_mcu9t5v0__mux2_2
* cell instance $450 m0 *1 549.36,156.24
X$450 4298 4297 560 589 42 331 gf180mcu_fd_sc_mcu9t5v0__mux2_2
* cell instance $454 r0 *1 525.84,156.24
X$454 4298 4297 592 589 42 331 gf180mcu_fd_sc_mcu9t5v0__mux2_2
* cell instance $457 m0 *1 510.16,176.4
X$457 4298 42 964 672 712 4297 gf180mcu_fd_sc_mcu9t5v0__xor3_2
* cell instance $463 m0 *1 367.36,75.6
X$463 77 4298 4297 44 70 89 gf180mcu_fd_sc_mcu9t5v0__addh_1
* cell instance $467 m0 *1 351.68,65.52
X$467 4298 4297 86 45 gf180mcu_fd_sc_mcu9t5v0__clkinv_2
* cell instance $487 m0 *1 310.8,75.6
X$487 4297 48 49 4298 80 gf180mcu_fd_sc_mcu9t5v0__xnor2_2
* cell instance $490 r0 *1 375.76,65.52
X$490 4298 52 63 48 99 4297 gf180mcu_fd_sc_mcu9t5v0__xor3_2
* cell instance $492 m0 *1 248.64,95.76
X$492 4298 147 175 48 230 4297 gf180mcu_fd_sc_mcu9t5v0__xnor3_2
* cell instance $507 m0 *1 339.36,75.6
X$507 4297 50 73 4298 74 gf180mcu_fd_sc_mcu9t5v0__xnor2_2
* cell instance $509 m0 *1 357.84,95.76
X$509 197 4298 4297 51 195 178 gf180mcu_fd_sc_mcu9t5v0__addh_1
* cell instance $513 r0 *1 370.72,75.6
X$513 88 4298 4297 52 117 108 gf180mcu_fd_sc_mcu9t5v0__addh_1
* cell instance $520 m0 *1 467.04,85.68
X$520 4297 53 138 4298 167 gf180mcu_fd_sc_mcu9t5v0__xnor2_2
* cell instance $522 r0 *1 458.08,65.52
X$522 4298 60 4297 54 55 53 gf180mcu_fd_sc_mcu9t5v0__aoi21_2
* cell instance $530 r0 *1 462,75.6
X$530 4298 4297 112 55 113 gf180mcu_fd_sc_mcu9t5v0__nand2_2
* cell instance $532 r0 *1 490.56,75.6
X$532 4298 4297 56 116 164 gf180mcu_fd_sc_mcu9t5v0__nand2_2
* cell instance $534 r0 *1 486.08,65.52
X$534 4298 4297 57 56 gf180mcu_fd_sc_mcu9t5v0__clkinv_2
* cell instance $541 r0 *1 234.64,65.52
X$541 4298 94 4297 58 79 66 gf180mcu_fd_sc_mcu9t5v0__aoi21_2
* cell instance $546 m0 *1 232.96,75.6
X$546 82 4298 4297 59 146 65 gf180mcu_fd_sc_mcu9t5v0__addh_1
* cell instance $548 m0 *1 238,105.84
X$548 4298 4297 59 234 175 233 gf180mcu_fd_sc_mcu9t5v0__mux2_2
* cell instance $560 m0 *1 248.08,105.84
X$560 4298 4297 147 253 61 233 gf180mcu_fd_sc_mcu9t5v0__mux2_2
* cell instance $562 r0 *1 246.4,115.92
X$562 4298 4297 338 312 61 285 gf180mcu_fd_sc_mcu9t5v0__mux2_4
* cell instance $564 m0 *1 250.88,115.92
X$564 4297 61 312 4298 275 gf180mcu_fd_sc_mcu9t5v0__xnor2_2
* cell instance $566 r0 *1 239.12,307.44
X$566 4297 1781 1809 4298 61 gf180mcu_fd_sc_mcu9t5v0__xnor2_2
* cell instance $580 r0 *1 422.24,75.6
X$580 4297 63 91 4298 110 gf180mcu_fd_sc_mcu9t5v0__xnor2_2
* cell instance $599 m0 *1 229.04,85.68
X$599 4297 125 101 4298 64 gf180mcu_fd_sc_mcu9t5v0__xnor2_2
* cell instance $601 r0 *1 315.84,85.68
X$601 64 4298 85 151 4297 153 gf180mcu_fd_sc_mcu9t5v0__or3_2
* cell instance $603 m0 *1 310.8,95.76
X$603 4297 64 176 4298 317 gf180mcu_fd_sc_mcu9t5v0__xnor2_2
* cell instance $607 r0 *1 194.88,75.6
X$607 4298 4297 65 92 gf180mcu_fd_sc_mcu9t5v0__clkinv_2
* cell instance $610 r0 *1 202.16,75.6
X$610 4297 65 143 4298 106 gf180mcu_fd_sc_mcu9t5v0__xnor2_2
* cell instance $615 m0 *1 220.08,75.6
X$615 4298 82 4297 93 81 65 gf180mcu_fd_sc_mcu9t5v0__aoi21_2
* cell instance $620 r0 *1 231.28,75.6
X$620 94 4298 4297 145 103 66 gf180mcu_fd_sc_mcu9t5v0__addh_1
* cell instance $624 r0 *1 265.44,105.84
X$624 4298 4297 67 260 gf180mcu_fd_sc_mcu9t5v0__clkinv_2
* cell instance $626 m0 *1 268.8,95.76
X$626 83 4298 69 67 4297 192 gf180mcu_fd_sc_mcu9t5v0__or3_2
* cell instance $628 r0 *1 268.8,105.84
X$628 67 4298 4297 275 315 126 gf180mcu_fd_sc_mcu9t5v0__addh_1
* cell instance $631 r0 *1 267.68,75.6
X$631 126 83 69 67 4297 4298 118 gf180mcu_fd_sc_mcu9t5v0__or4_2
* cell instance $633 m0 *1 268.24,75.6
X$633 4298 68 97 4297 83 67 gf180mcu_fd_sc_mcu9t5v0__nand3_2
* cell instance $637 r0 *1 275.52,75.6
X$637 4297 118 68 4298 104 gf180mcu_fd_sc_mcu9t5v0__and2_2
* cell instance $642 r0 *1 254.24,95.76
X$642 69 203 252 230 229 4297 4298 gf180mcu_fd_sc_mcu9t5v0__aoi211_2
* cell instance $646 m0 *1 255.36,85.68
X$646 69 4298 4297 141 204 97 gf180mcu_fd_sc_mcu9t5v0__addh_1
* cell instance $649 m0 *1 267.12,85.68
X$649 97 4298 83 69 4297 127 gf180mcu_fd_sc_mcu9t5v0__or3_2
* cell instance $652 m0 *1 275.52,75.6
X$652 4298 4297 83 128 69 gf180mcu_fd_sc_mcu9t5v0__nand2_2
* cell instance $656 r0 *1 295.68,75.6
X$656 4298 4297 105 70 gf180mcu_fd_sc_mcu9t5v0__clkinv_2
* cell instance $663 m0 *1 334.32,85.68
X$663 4298 4297 71 119 gf180mcu_fd_sc_mcu9t5v0__clkinv_2
* cell instance $666 r0 *1 333.76,85.68
X$666 4297 71 72 4298 168 gf180mcu_fd_sc_mcu9t5v0__xnor2_2
* cell instance $671 r0 *1 333.2,95.76
X$671 4297 210 4298 211 72 212 gf180mcu_fd_sc_mcu9t5v0__oai21_2
* cell instance $679 r0 *1 329.84,75.6
X$679 4297 107 4298 130 73 119 gf180mcu_fd_sc_mcu9t5v0__oai21_2
* cell instance $686 r0 *1 424.48,85.68
X$686 4298 4297 74 183 gf180mcu_fd_sc_mcu9t5v0__clkinv_2
* cell instance $696 r0 *1 386.96,75.6
X$696 4297 89 109 4298 75 gf180mcu_fd_sc_mcu9t5v0__xnor2_2
* cell instance $700 m0 *1 409.36,85.68
X$700 4297 75 134 4298 155 gf180mcu_fd_sc_mcu9t5v0__xnor2_2
* cell instance $702 m0 *1 400.96,85.68
X$702 133 4298 75 154 4297 140 gf180mcu_fd_sc_mcu9t5v0__or3_2
* cell instance $708 m0 *1 377.44,75.6
X$708 88 89 77 99 98 4297 4298 gf180mcu_fd_sc_mcu9t5v0__aoi211_2
* cell instance $714 r0 *1 185.36,75.6
X$714 188 120 142 78 92 4297 4298 gf180mcu_fd_sc_mcu9t5v0__aoi211_2
* cell instance $716 m0 *1 227.36,75.6
X$716 4298 82 78 4297 79 gf180mcu_fd_sc_mcu9t5v0__or2_2
* cell instance $728 r0 *1 217.28,75.6
X$728 4297 100 4298 101 81 102 gf180mcu_fd_sc_mcu9t5v0__oai21_2
* cell instance $741 r0 *1 273.84,85.68
X$741 4298 149 97 4297 126 83 gf180mcu_fd_sc_mcu9t5v0__nand3_2
* cell instance $744 m0 *1 264.32,95.76
X$744 4298 4297 203 83 gf180mcu_fd_sc_mcu9t5v0__clkinv_2
* cell instance $754 m0 *1 294.56,105.84
X$754 4298 84 262 235 207 4297 236 gf180mcu_fd_sc_mcu9t5v0__nand4_2
* cell instance $761 r0 *1 324.24,105.84
X$761 4297 85 280 4298 263 gf180mcu_fd_sc_mcu9t5v0__xnor2_2
* cell instance $764 m0 *1 303.52,105.84
X$764 85 4298 237 238 4297 209 gf180mcu_fd_sc_mcu9t5v0__or3_2
* cell instance $767 r0 *1 209.44,85.68
X$767 144 4298 123 4297 85 gf180mcu_fd_sc_mcu9t5v0__xor2_2
* cell instance $783 m0 *1 378.56,85.68
X$783 4298 88 4297 109 132 108 gf180mcu_fd_sc_mcu9t5v0__aoi21_2
* cell instance $789 r0 *1 380.24,75.6
X$789 108 4297 89 131 4298 98 gf180mcu_fd_sc_mcu9t5v0__and3_2
* cell instance $801 r0 *1 395.92,95.76
X$801 133 4298 214 241 4297 90 gf180mcu_fd_sc_mcu9t5v0__or3_2
* cell instance $824 m0 *1 437.36,85.68
X$824 4298 4297 95 156 gf180mcu_fd_sc_mcu9t5v0__clkinv_2
* cell instance $827 m0 *1 454.72,85.68
X$827 4298 4297 95 139 gf180mcu_fd_sc_mcu9t5v0__clkinv_2
* cell instance $840 r0 *1 269.92,95.76
X$840 4297 97 205 4298 207 gf180mcu_fd_sc_mcu9t5v0__xnor2_2
* cell instance $843 r0 *1 263.76,95.76
X$843 97 4297 203 205 4298 229 gf180mcu_fd_sc_mcu9t5v0__and3_2
* cell instance $855 r0 *1 213.92,75.6
X$855 4298 4297 121 100 gf180mcu_fd_sc_mcu9t5v0__clkinv_2
* cell instance $861 r0 *1 206.64,95.76
X$861 4298 202 4297 201 172 170 101 144 gf180mcu_fd_sc_mcu9t5v0__aoi221_2
* cell instance $865 m0 *1 220.64,85.68
X$865 4298 4297 125 102 gf180mcu_fd_sc_mcu9t5v0__clkinv_2
* cell instance $870 r0 *1 235.76,126
X$870 4297 103 393 4298 428 gf180mcu_fd_sc_mcu9t5v0__xnor2_2
* cell instance $873 m0 *1 231.28,136.08
X$873 436 103 146 464 4297 4298 347 gf180mcu_fd_sc_mcu9t5v0__or4_2
* cell instance $875 m0 *1 239.12,136.08
X$875 4298 4297 397 103 gf180mcu_fd_sc_mcu9t5v0__clkinv_2
* cell instance $878 m0 *1 273.84,85.68
X$878 148 104 127 128 4298 4297 105 gf180mcu_fd_sc_mcu9t5v0__and4_2
* cell instance $884 r0 *1 290.64,85.68
X$884 4297 105 150 4298 169 gf180mcu_fd_sc_mcu9t5v0__xnor2_2
* cell instance $896 m0 *1 348.32,95.76
X$896 4297 106 152 4298 470 gf180mcu_fd_sc_mcu9t5v0__xnor2_2
* cell instance $904 m0 *1 385.84,85.68
X$904 108 4298 131 4297 133 gf180mcu_fd_sc_mcu9t5v0__xor2_2
* cell instance $915 m0 *1 425.6,115.92
X$915 4298 294 295 110 268 4297 gf180mcu_fd_sc_mcu9t5v0__addh_2
* cell instance $918 r0 *1 449.12,75.6
X$918 4298 4297 111 112 gf180mcu_fd_sc_mcu9t5v0__clkinv_2
* cell instance $923 m0 *1 460.32,85.68
X$923 4297 112 158 4298 138 gf180mcu_fd_sc_mcu9t5v0__and2_2
* cell instance $928 r0 *1 460.32,85.68
X$928 4298 4297 136 113 159 gf180mcu_fd_sc_mcu9t5v0__nand2_2
* cell instance $931 r0 *1 458.64,126
X$931 410 4298 4297 114 328 411 gf180mcu_fd_sc_mcu9t5v0__addh_1
* cell instance $933 r0 *1 462,115.92
X$933 4298 4304 329 114 328 4297 gf180mcu_fd_sc_mcu9t5v0__addh_2
* cell instance $944 m0 *1 491.68,166.32
X$944 4298 4297 734 554 115 420 gf180mcu_fd_sc_mcu9t5v0__mux2_4
* cell instance $946 m0 *1 492.8,156.24
X$946 4298 4297 700 554 115 420 gf180mcu_fd_sc_mcu9t5v0__mux2_4
* cell instance $948 r0 *1 510.16,146.16
X$948 4298 776 452 115 524 4297 gf180mcu_fd_sc_mcu9t5v0__xor3_4
* cell instance $950 m0 *1 502.88,166.32
X$950 4298 4297 625 554 115 420 gf180mcu_fd_sc_mcu9t5v0__mux2_4
* cell instance $952 m0 *1 481.6,176.4
X$952 4298 4297 733 641 115 420 gf180mcu_fd_sc_mcu9t5v0__mux2_4
* cell instance $954 r0 *1 485.52,166.32
X$954 4297 115 641 4298 642 gf180mcu_fd_sc_mcu9t5v0__xnor2_2
* cell instance $957 m0 *1 498.96,176.4
X$957 4298 4297 672 641 115 420 gf180mcu_fd_sc_mcu9t5v0__mux2_2
* cell instance $964 m0 *1 329.84,95.76
X$964 4298 4297 207 117 gf180mcu_fd_sc_mcu9t5v0__clkinv_2
* cell instance $976 m0 *1 185.92,105.84
X$976 4298 4297 258 231 120 gf180mcu_fd_sc_mcu9t5v0__nand2_2
* cell instance $978 m0 *1 176.96,136.08
X$978 4298 120 500 344 395 463 370 4297 gf180mcu_fd_sc_mcu9t5v0__aoi221_4
* cell instance $986 m0 *1 201.6,85.68
X$986 123 124 121 143 122 4297 4298 gf180mcu_fd_sc_mcu9t5v0__aoi211_2
* cell instance $989 m0 *1 187.04,85.68
X$989 165 124 121 142 122 4297 4298 gf180mcu_fd_sc_mcu9t5v0__aoi211_2
* cell instance $991 m0 *1 184.8,95.76
X$991 4298 188 122 4297 199 121 170 gf180mcu_fd_sc_mcu9t5v0__nor4_2
* cell instance $993 m0 *1 217.28,95.76
X$993 121 4298 4297 174 173 189 gf180mcu_fd_sc_mcu9t5v0__addh_1
* cell instance $1003 m0 *1 208.88,95.76
X$1003 4297 189 172 4298 122 gf180mcu_fd_sc_mcu9t5v0__and2_2
* cell instance $1009 m0 *1 194.88,95.76
X$1009 4298 170 171 4297 123 gf180mcu_fd_sc_mcu9t5v0__or2_2
* cell instance $1016 m0 *1 215.6,85.68
X$1016 4297 144 125 4298 124 gf180mcu_fd_sc_mcu9t5v0__and2_2
* cell instance $1026 r0 *1 218.96,85.68
X$1026 4336 4298 4297 174 173 125 gf180mcu_fd_sc_mcu9t5v0__addh_1
* cell instance $1032 m0 *1 273.84,115.92
X$1032 4298 4297 126 309 gf180mcu_fd_sc_mcu9t5v0__clkinv_2
* cell instance $1034 r0 *1 278.32,105.84
X$1034 4297 126 206 4298 235 gf180mcu_fd_sc_mcu9t5v0__xnor2_2
* cell instance $1046 r0 *1 289.52,95.76
X$1046 207 4297 235 208 4298 129 gf180mcu_fd_sc_mcu9t5v0__and3_2
* cell instance $1050 m0 *1 333.2,95.76
X$1050 4298 177 4297 130 239 196 gf180mcu_fd_sc_mcu9t5v0__aoi21_2
* cell instance $1058 m0 *1 371.28,95.76
X$1058 4297 228 131 198 227 179 4298 gf180mcu_fd_sc_mcu9t5v0__oai211_2
* cell instance $1060 m0 *1 380.8,95.76
X$1060 4297 179 4298 180 132 194 gf180mcu_fd_sc_mcu9t5v0__oai21_2
* cell instance $1067 m0 *1 403.2,95.76
X$1067 4297 133 181 4298 193 gf180mcu_fd_sc_mcu9t5v0__xnor2_2
* cell instance $1069 r0 *1 478.24,85.68
X$1069 161 4298 4297 166 133 162 gf180mcu_fd_sc_mcu9t5v0__addh_1
* cell instance $1078 m0 *1 437.92,146.16
X$1078 484 4298 4297 135 479 526 gf180mcu_fd_sc_mcu9t5v0__addh_1
* cell instance $1085 r0 *1 465.92,95.76
X$1085 4297 136 159 4298 224 gf180mcu_fd_sc_mcu9t5v0__xnor2_2
* cell instance $1088 m0 *1 459.76,95.76
X$1088 4297 136 4298 186 158 187 gf180mcu_fd_sc_mcu9t5v0__oai21_2
* cell instance $1092 m0 *1 488.32,85.68
X$1092 4297 137 4298 160 164 161 gf180mcu_fd_sc_mcu9t5v0__oai21_2
* cell instance $1095 m0 *1 496.16,85.68
X$1095 4298 222 163 137 4297 gf180mcu_fd_sc_mcu9t5v0__xor2_4
* cell instance $1111 m0 *1 252,85.68
X$1111 4298 4297 147 141 gf180mcu_fd_sc_mcu9t5v0__clkinv_2
* cell instance $1122 m0 *1 208.32,105.84
X$1122 4297 144 200 4298 202 gf180mcu_fd_sc_mcu9t5v0__and2_2
* cell instance $1124 m0 *1 213.36,105.84
X$1124 172 4298 4297 251 375 144 gf180mcu_fd_sc_mcu9t5v0__addh_1
* cell instance $1129 m0 *1 233.52,95.76
X$1129 4298 4297 145 190 175 233 gf180mcu_fd_sc_mcu9t5v0__mux2_2
* cell instance $1138 m0 *1 235.2,146.16
X$1138 146 4298 494 4297 495 gf180mcu_fd_sc_mcu9t5v0__xor2_2
* cell instance $1140 m0 *1 231.28,267.12
X$1140 4297 1399 1398 4298 146 gf180mcu_fd_sc_mcu9t5v0__xnor2_2
* cell instance $1142 r0 *1 226.24,156.24
X$1142 4298 362 630 533 146 173 4297 gf180mcu_fd_sc_mcu9t5v0__nor4_4
* cell instance $1150 m0 *1 275.52,95.76
X$1150 4298 4297 148 149 206 192 gf180mcu_fd_sc_mcu9t5v0__mux2_2
* cell instance $1158 m0 *1 314.72,115.92
X$1158 4298 151 311 4297 288 289 gf180mcu_fd_sc_mcu9t5v0__nand3_2
* cell instance $1172 r0 *1 397.04,105.84
X$1172 266 4298 214 267 4297 154 gf180mcu_fd_sc_mcu9t5v0__or3_2
* cell instance $1174 m0 *1 413.84,126
X$1174 356 4298 4297 155 325 361 gf180mcu_fd_sc_mcu9t5v0__addh_1
* cell instance $1177 m0 *1 435.12,105.84
X$1177 217 4298 4297 156 245 270 gf180mcu_fd_sc_mcu9t5v0__addh_1
* cell instance $1180 r0 *1 439.6,85.68
X$1180 4335 4298 4297 157 183 184 gf180mcu_fd_sc_mcu9t5v0__addh_1
* cell instance $1182 m0 *1 439.04,95.76
X$1182 187 4298 4297 157 183 185 gf180mcu_fd_sc_mcu9t5v0__addh_1
* cell instance $1188 r0 *1 456.96,95.76
X$1188 4298 4297 225 159 226 gf180mcu_fd_sc_mcu9t5v0__nand2_2
* cell instance $1195 m0 *1 492.24,95.76
X$1195 4297 162 248 4298 160 gf180mcu_fd_sc_mcu9t5v0__and2_2
* cell instance $1198 r0 *1 492.24,85.68
X$1198 4298 161 4297 163 221 162 gf180mcu_fd_sc_mcu9t5v0__aoi21_2
* cell instance $1210 m0 *1 500.08,115.92
X$1210 162 4298 250 4297 300 gf180mcu_fd_sc_mcu9t5v0__xor2_2
* cell instance $1219 r0 *1 192.64,95.76
X$1219 4298 200 170 4297 165 gf180mcu_fd_sc_mcu9t5v0__or2_2
* cell instance $1231 r0 *1 507.92,166.32
X$1231 648 4298 4297 167 625 673 gf180mcu_fd_sc_mcu9t5v0__addh_1
* cell instance $1234 r0 *1 532.56,176.4
X$1234 4297 167 710 4298 707 gf180mcu_fd_sc_mcu9t5v0__xnor2_2
* cell instance $1238 r0 *1 524.72,166.32
X$1238 4297 331 4298 643 589 167 gf180mcu_fd_sc_mcu9t5v0__oai21_2
* cell instance $1240 r0 *1 477.68,166.32
X$1240 4297 331 4298 640 457 167 gf180mcu_fd_sc_mcu9t5v0__oai21_2
* cell instance $1245 r0 *1 423.92,95.76
X$1245 4298 4297 168 245 gf180mcu_fd_sc_mcu9t5v0__clkinv_2
* cell instance $1248 m0 *1 416.64,95.76
X$1248 4297 168 244 4298 182 gf180mcu_fd_sc_mcu9t5v0__and2_2
* cell instance $1253 r0 *1 319.76,95.76
X$1253 177 4298 4297 169 237 196 gf180mcu_fd_sc_mcu9t5v0__addh_1
* cell instance $1262 m0 *1 202.16,115.92
X$1262 170 4298 4297 305 472 200 gf180mcu_fd_sc_mcu9t5v0__addh_1
* cell instance $1267 m0 *1 190.96,105.84
X$1267 4297 200 231 4298 171 gf180mcu_fd_sc_mcu9t5v0__and2_2
* cell instance $1277 m0 *1 236.88,156.24
X$1277 4297 173 626 4298 593 gf180mcu_fd_sc_mcu9t5v0__xnor2_2
* cell instance $1281 r0 *1 227.92,146.16
X$1281 4298 173 533 4297 464 gf180mcu_fd_sc_mcu9t5v0__or2_2
* cell instance $1283 r0 *1 219.52,257.04
X$1283 4297 1396 1395 4298 173 gf180mcu_fd_sc_mcu9t5v0__xnor2_2
* cell instance $1288 r0 *1 232.4,95.76
X$1288 4297 175 190 4298 174 gf180mcu_fd_sc_mcu9t5v0__xnor2_2
* cell instance $1299 m0 *1 231.84,337.68
X$1299 4298 2061 175 1868 2122 4297 gf180mcu_fd_sc_mcu9t5v0__xor3_2
* cell instance $1305 r0 *1 329.84,95.76
X$1305 4298 4297 177 210 gf180mcu_fd_sc_mcu9t5v0__clkinv_2
* cell instance $1313 r0 *1 384.16,95.76
X$1313 4297 178 180 4298 214 gf180mcu_fd_sc_mcu9t5v0__xnor2_2
* cell instance $1315 m0 *1 388.64,95.76
X$1315 4298 4297 178 194 gf180mcu_fd_sc_mcu9t5v0__clkinv_2
* cell instance $1317 r0 *1 375.76,95.76
X$1317 4298 4297 178 227 240 gf180mcu_fd_sc_mcu9t5v0__nand2_2
* cell instance $1319 r0 *1 370.72,95.76
X$1319 4298 4297 213 228 178 gf180mcu_fd_sc_mcu9t5v0__nand2_2
* cell instance $1325 m0 *1 367.36,95.76
X$1325 4298 4297 197 179 gf180mcu_fd_sc_mcu9t5v0__clkinv_2
* cell instance $1331 m0 *1 369.04,105.84
X$1331 4298 240 4297 180 293 213 gf180mcu_fd_sc_mcu9t5v0__aoi21_2
* cell instance $1345 m0 *1 429.52,95.76
X$1345 4297 183 191 4298 306 gf180mcu_fd_sc_mcu9t5v0__xnor2_2
* cell instance $1354 r0 *1 459.76,105.84
X$1354 4297 184 271 4298 186 gf180mcu_fd_sc_mcu9t5v0__and2_2
* cell instance $1357 m0 *1 458.64,115.92
X$1357 184 4298 271 4297 297 gf180mcu_fd_sc_mcu9t5v0__xor2_2
* cell instance $1361 r0 *1 446.88,95.76
X$1361 4297 185 4298 216 226 217 gf180mcu_fd_sc_mcu9t5v0__oai21_2
* cell instance $1368 r0 *1 462.56,95.76
X$1368 4298 4297 187 225 gf180mcu_fd_sc_mcu9t5v0__clkinv_2
* cell instance $1383 m0 *1 231.28,115.92