* CDL Netlist generated by OpenROAD

*.BUSDELIMITER [

.SUBCKT cordic_core x_in[0] x_in[10] x_in[11] x_in[12] x_in[13]
+ x_in[14] x_in[15] x_in[1] x_in[2] x_in[3] x_in[4] x_in[5]
+ x_in[6] x_in[7] x_in[8] x_in[9] x_out[0] x_out[10] x_out[11]
+ x_out[12] x_out[13] x_out[14] x_out[15] x_out[1] x_out[2]
+ x_out[3] x_out[4] x_out[5] x_out[6] x_out[7] x_out[8] x_out[9]
+ y_in[0] y_in[10] y_in[11] y_in[12] y_in[13] y_in[14] y_in[15]
+ y_in[1] y_in[2] y_in[3] y_in[4] y_in[5] y_in[6] y_in[7] y_in[8]
+ y_in[9] y_out[0] y_out[10] y_out[11] y_out[12] y_out[13] y_out[14]
+ y_out[15] y_out[1] y_out[2] y_out[3] y_out[4] y_out[5] y_out[6]
+ y_out[7] y_out[8] y_out[9] z_in[0] z_in[10] z_in[11] z_in[12]
+ z_in[13] z_in[14] z_in[15] z_in[1] z_in[2] z_in[3] z_in[4]
+ z_in[5] z_in[6] z_in[7] z_in[8] z_in[9] VSS VDD
X_4069_ net39 _1545_ VDD VSS gf180mcu_fd_sc_mcu9t5v0__clkinv_8
X_4070_ _1546_ _1607_ VDD VSS gf180mcu_fd_sc_mcu9t5v0__clkinv_2
X_4071_ net38 _1544_ VDD VSS gf180mcu_fd_sc_mcu9t5v0__clkinv_3
X_4072_ _1545_ _1548_ _1607_ _1544_ _1608_ VDD VSS gf180mcu_fd_sc_mcu9t5v0__oai211_2
X_4073_ net41 net40 net207 _1609_ VDD VSS gf180mcu_fd_sc_mcu9t5v0__or3_4
X_4074_ net45 net44 net43 net42 _1610_ VDD VSS gf180mcu_fd_sc_mcu9t5v0__or4_4
X_4075_ net37 net36 net35 net34 _1611_ VDD VSS gf180mcu_fd_sc_mcu9t5v0__or4_4
X_4076_ net47 net48 net46 _1612_ VDD VSS gf180mcu_fd_sc_mcu9t5v0__or3_4
X_4077_ _1609_ _1610_ _1611_ _1612_ _1613_ VDD VSS gf180mcu_fd_sc_mcu9t5v0__or4_4
X_4078_ _1545_ _1607_ _1613_ _1608_ _1614_ VDD VSS gf180mcu_fd_sc_mcu9t5v0__oai22_4
X_4079_ net81 _1615_ VDD VSS gf180mcu_fd_sc_mcu9t5v0__clkinv_20
Xoutput49 net49 x_out[0] VDD VSS gf180mcu_fd_sc_mcu9t5v0__clkbuf_4
Xinput48 z_in[9] net48 VDD VSS gf180mcu_fd_sc_mcu9t5v0__buf_2
X_4082_ _0007_ _0003_ _1615_ _0018_ VDD VSS gf180mcu_fd_sc_mcu9t5v0__mux2_2
X_4083_ _0120_ _1617_ VDD VSS gf180mcu_fd_sc_mcu9t5v0__inv_3
Xinput47 z_in[8] net47 VDD VSS gf180mcu_fd_sc_mcu9t5v0__buf_2
X_4085_ _0113_ _1619_ VDD VSS gf180mcu_fd_sc_mcu9t5v0__clkinv_2
X_4086_ _1619_ _0112_ _0116_ _1620_ VDD VSS gf180mcu_fd_sc_mcu9t5v0__aoi21_2
X_4087_ _0129_ _1621_ VDD VSS gf180mcu_fd_sc_mcu9t5v0__clkinv_2
X_4088_ net170 _1620_ _1621_ _1622_ VDD VSS gf180mcu_fd_sc_mcu9t5v0__oai21_2
X_4089_ _0114_ _1623_ VDD VSS gf180mcu_fd_sc_mcu9t5v0__clkinv_2
X_4090_ _1619_ _0008_ _1623_ _1624_ VDD VSS gf180mcu_fd_sc_mcu9t5v0__oai21_2
X_4091_ net170 _1624_ _0125_ _1625_ VDD VSS gf180mcu_fd_sc_mcu9t5v0__aoi21_2
Xinput46 z_in[7] net46 VDD VSS gf180mcu_fd_sc_mcu9t5v0__buf_2
Xinput45 z_in[6] net45 VDD VSS gf180mcu_fd_sc_mcu9t5v0__buf_2
Xinput44 z_in[5] net44 VDD VSS gf180mcu_fd_sc_mcu9t5v0__buf_2
X_4095_ _1622_ _1625_ net122 _1629_ VDD VSS gf180mcu_fd_sc_mcu9t5v0__mux2_2
X_4096_ _1617_ _1629_ _1630_ VDD VSS gf180mcu_fd_sc_mcu9t5v0__xnor2_2
X_4097_ _1630_ _0169_ VDD VSS gf180mcu_fd_sc_mcu9t5v0__clkinv_2
X_4098_ _0009_ _1631_ VDD VSS gf180mcu_fd_sc_mcu9t5v0__clkinv_2
X_4099_ net204 _1631_ net121 _1632_ VDD VSS gf180mcu_fd_sc_mcu9t5v0__mux2_2
X_4100_ net170 _1632_ _0135_ VDD VSS gf180mcu_fd_sc_mcu9t5v0__xnor2_2
X_4101_ _0135_ _0173_ VDD VSS gf180mcu_fd_sc_mcu9t5v0__clkinv_2
Xinput43 z_in[4] net43 VDD VSS gf180mcu_fd_sc_mcu9t5v0__buf_2
X_4103_ _0007_ _0010_ net122 _0027_ VDD VSS gf180mcu_fd_sc_mcu9t5v0__mux2_2
X_4104_ _1609_ _1610_ _1634_ VDD VSS gf180mcu_fd_sc_mcu9t5v0__or2_2
X_4105_ net36 net35 net34 _1635_ VDD VSS gf180mcu_fd_sc_mcu9t5v0__or3_2
X_4106_ _1548_ _1636_ VDD VSS gf180mcu_fd_sc_mcu9t5v0__clkinv_2
X_4107_ _1636_ net39 _1546_ _1637_ VDD VSS gf180mcu_fd_sc_mcu9t5v0__aoi21_4
X_4108_ _1634_ _1635_ net142 _1637_ _1638_ VDD VSS gf180mcu_fd_sc_mcu9t5v0__oai31_2
X_4109_ net37 _1638_ _0011_ VDD VSS gf180mcu_fd_sc_mcu9t5v0__xnor2_2
X_4110_ _0011_ _0181_ VDD VSS gf180mcu_fd_sc_mcu9t5v0__clkinv_2
X_4111_ _0002_ _1639_ VDD VSS gf180mcu_fd_sc_mcu9t5v0__clkinv_2
X_4112_ _1639_ net204 net122 _1640_ VDD VSS gf180mcu_fd_sc_mcu9t5v0__mux2_2
X_4113_ net170 _1640_ _0176_ VDD VSS gf180mcu_fd_sc_mcu9t5v0__xnor2_2
X_4114_ _0176_ _0131_ VDD VSS gf180mcu_fd_sc_mcu9t5v0__clkinv_2
X_4115_ _0014_ _0032_ VDD VSS gf180mcu_fd_sc_mcu9t5v0__clkinv_8
X_4116_ _0137_ _0173_ net123 _0138_ VDD VSS gf180mcu_fd_sc_mcu9t5v0__mux2_2
X_4117_ _0138_ _0017_ VDD VSS gf180mcu_fd_sc_mcu9t5v0__clkinv_2
X_4118_ _0134_ _0019_ _0141_ VDD VSS gf180mcu_fd_sc_mcu9t5v0__xnor2_2
X_4119_ _0141_ _0315_ VDD VSS gf180mcu_fd_sc_mcu9t5v0__clkinv_2
Xinput42 z_in[3] net42 VDD VSS gf180mcu_fd_sc_mcu9t5v0__buf_2
X_4121_ net82 _1642_ VDD VSS gf180mcu_fd_sc_mcu9t5v0__clkinv_2
X_4122_ _0153_ _1643_ VDD VSS gf180mcu_fd_sc_mcu9t5v0__clkinv_2
X_4123_ _0112_ _0005_ VDD VSS gf180mcu_fd_sc_mcu9t5v0__clkinv_3
X_4124_ _0116_ _1644_ VDD VSS gf180mcu_fd_sc_mcu9t5v0__clkinv_2
X_4125_ _0113_ _0005_ _1621_ _1644_ _1645_ VDD VSS gf180mcu_fd_sc_mcu9t5v0__oai211_2
Xinput41 z_in[2] net41 VDD VSS gf180mcu_fd_sc_mcu9t5v0__buf_2
X_4127_ net170 _1621_ net203 _1647_ VDD VSS gf180mcu_fd_sc_mcu9t5v0__aoi21_2
X_4128_ _1645_ _1647_ _0123_ _1648_ VDD VSS gf180mcu_fd_sc_mcu9t5v0__aoi21_2
X_4129_ _0150_ _1649_ VDD VSS gf180mcu_fd_sc_mcu9t5v0__inv_3
Xinput40 z_in[1] net40 VDD VSS gf180mcu_fd_sc_mcu9t5v0__clkbuf_20
X_4131_ _1649_ net82 _1651_ VDD VSS gf180mcu_fd_sc_mcu9t5v0__nand2_2
X_4132_ _1642_ _1643_ _1648_ _1651_ _1652_ VDD VSS gf180mcu_fd_sc_mcu9t5v0__oai22_2
X_4133_ _1619_ _0112_ _0129_ _0116_ _1653_ VDD VSS gf180mcu_fd_sc_mcu9t5v0__aoi211_4
X_4134_ _0126_ _1654_ VDD VSS gf180mcu_fd_sc_mcu9t5v0__inv_3
X_4135_ _1654_ _0129_ _1617_ _1655_ VDD VSS gf180mcu_fd_sc_mcu9t5v0__oai21_2
X_4136_ _0123_ _1656_ VDD VSS gf180mcu_fd_sc_mcu9t5v0__clkinv_2
X_4137_ _1653_ _1655_ _1656_ _1657_ VDD VSS gf180mcu_fd_sc_mcu9t5v0__oai21_2
X_4138_ _1649_ _1657_ _0153_ net82 _1658_ VDD VSS gf180mcu_fd_sc_mcu9t5v0__aoi211_2
X_4139_ _1652_ _1658_ _1659_ VDD VSS gf180mcu_fd_sc_mcu9t5v0__or2_2
X_4140_ _0008_ _1660_ VDD VSS gf180mcu_fd_sc_mcu9t5v0__clkinv_2
X_4141_ _0113_ _1660_ _0114_ _1661_ VDD VSS gf180mcu_fd_sc_mcu9t5v0__aoi21_2
X_4142_ _1654_ _1617_ _1649_ _1662_ VDD VSS gf180mcu_fd_sc_mcu9t5v0__or3_4
X_4143_ net202 _0125_ _0119_ _1663_ VDD VSS gf180mcu_fd_sc_mcu9t5v0__aoi21_2
X_4144_ _1649_ _1663_ _1664_ VDD VSS gf180mcu_fd_sc_mcu9t5v0__or2_2
X_4145_ _0149_ _1665_ VDD VSS gf180mcu_fd_sc_mcu9t5v0__clkinv_2
X_4146_ _1661_ _1662_ _1664_ _1665_ _1666_ VDD VSS gf180mcu_fd_sc_mcu9t5v0__oai211_2
X_4147_ _1642_ _1666_ _1667_ VDD VSS gf180mcu_fd_sc_mcu9t5v0__xnor2_2
X_4148_ _1659_ _1667_ net122 _0161_ VDD VSS gf180mcu_fd_sc_mcu9t5v0__mux2_2
X_4149_ _0156_ _1668_ VDD VSS gf180mcu_fd_sc_mcu9t5v0__clkinv_2
X_4150_ net170 _1639_ _0122_ _0128_ _1669_ VDD VSS gf180mcu_fd_sc_mcu9t5v0__aoi211_4
Xinput39 z_in[15] net39 VDD VSS gf180mcu_fd_sc_mcu9t5v0__buf_3
X_4152_ net203 _0122_ _1671_ VDD VSS gf180mcu_fd_sc_mcu9t5v0__or2_2
X_4153_ net172 net82 _1671_ _1672_ VDD VSS gf180mcu_fd_sc_mcu9t5v0__nand3_2
X_4154_ net82 _0152_ _0146_ _1673_ VDD VSS gf180mcu_fd_sc_mcu9t5v0__aoi21_2
X_4155_ _1669_ _1672_ _1673_ _1674_ VDD VSS gf180mcu_fd_sc_mcu9t5v0__oai21_4
X_4156_ net172 net82 _1675_ VDD VSS gf180mcu_fd_sc_mcu9t5v0__nor2_2
X_4157_ _1642_ _0153_ _1675_ _0123_ _0147_ _1676_ VDD VSS
+ gf180mcu_fd_sc_mcu9t5v0__aoi221_2
X_4158_ net170 _0006_ _1677_ VDD VSS gf180mcu_fd_sc_mcu9t5v0__nor2_2
X_4159_ _0129_ _1677_ _1675_ _1617_ _1678_ VDD VSS gf180mcu_fd_sc_mcu9t5v0__oai211_2
X_4160_ _1676_ _1678_ _1679_ VDD VSS gf180mcu_fd_sc_mcu9t5v0__and2_2
X_4161_ _1674_ _1679_ net121 _1680_ VDD VSS gf180mcu_fd_sc_mcu9t5v0__mux2_2
X_4162_ _1668_ _1680_ _0279_ VDD VSS gf180mcu_fd_sc_mcu9t5v0__xnor2_2
X_4163_ net170 net203 net172 _1681_ VDD VSS gf180mcu_fd_sc_mcu9t5v0__and3_2
X_4164_ _0115_ _1682_ VDD VSS gf180mcu_fd_sc_mcu9t5v0__clkinv_2
X_4165_ _1619_ _0001_ _1682_ _1683_ VDD VSS gf180mcu_fd_sc_mcu9t5v0__oai21_2
X_4166_ net203 _0128_ _0122_ _1684_ VDD VSS gf180mcu_fd_sc_mcu9t5v0__aoi21_2
X_4167_ _0152_ _1685_ VDD VSS gf180mcu_fd_sc_mcu9t5v0__clkinv_2
X_4168_ _1649_ _1684_ _1685_ _1686_ VDD VSS gf180mcu_fd_sc_mcu9t5v0__oai21_2
X_4169_ _1681_ _1683_ _1686_ _1687_ VDD VSS gf180mcu_fd_sc_mcu9t5v0__aoi21_2
X_4170_ net82 _1687_ _1688_ VDD VSS gf180mcu_fd_sc_mcu9t5v0__xnor2_2
X_4171_ _1659_ _1688_ _1615_ _0283_ VDD VSS gf180mcu_fd_sc_mcu9t5v0__mux2_2
X_4172_ _0128_ _1689_ VDD VSS gf180mcu_fd_sc_mcu9t5v0__clkinv_2
X_4173_ _1654_ _0002_ _1689_ _1690_ VDD VSS gf180mcu_fd_sc_mcu9t5v0__oai21_2
X_4174_ net203 _1690_ _0122_ _1691_ VDD VSS gf180mcu_fd_sc_mcu9t5v0__aoi21_2
X_4175_ net172 _1691_ _1692_ VDD VSS gf180mcu_fd_sc_mcu9t5v0__xnor2_2
X_4176_ net170 _0006_ _1693_ VDD VSS gf180mcu_fd_sc_mcu9t5v0__or2_2
X_4177_ _1621_ _1693_ net203 _1694_ VDD VSS gf180mcu_fd_sc_mcu9t5v0__aoi21_4
X_4178_ _0123_ _1694_ net172 _1695_ VDD VSS gf180mcu_fd_sc_mcu9t5v0__oai21_2
X_4179_ _0123_ net172 _1694_ _1696_ VDD VSS gf180mcu_fd_sc_mcu9t5v0__or3_2
X_4180_ _1695_ _1696_ _1697_ VDD VSS gf180mcu_fd_sc_mcu9t5v0__nand2_2
X_4181_ _1692_ _1697_ net122 _0287_ VDD VSS gf180mcu_fd_sc_mcu9t5v0__mux2_2
X_4182_ net170 _1683_ _0128_ _1698_ VDD VSS gf180mcu_fd_sc_mcu9t5v0__aoi21_2
X_4183_ _1622_ _1698_ _1615_ _1699_ VDD VSS gf180mcu_fd_sc_mcu9t5v0__mux2_2
X_4184_ net203 _1699_ _0214_ VDD VSS gf180mcu_fd_sc_mcu9t5v0__xnor2_2
X_4185_ net203 _1698_ _1700_ VDD VSS gf180mcu_fd_sc_mcu9t5v0__xnor2_2
X_4186_ net122 _1688_ _1692_ _1700_ _1701_ VDD VSS gf180mcu_fd_sc_mcu9t5v0__or4_2
X_4187_ _1645_ _1647_ _1702_ VDD VSS gf180mcu_fd_sc_mcu9t5v0__and2_2
X_4188_ _0113_ _0005_ _1644_ _1703_ VDD VSS gf180mcu_fd_sc_mcu9t5v0__oai21_2
X_4189_ _1654_ _1703_ _0129_ _1617_ _1704_ VDD VSS gf180mcu_fd_sc_mcu9t5v0__aoi211_2
X_4190_ _1702_ _1704_ _1696_ _1695_ _1705_ VDD VSS gf180mcu_fd_sc_mcu9t5v0__oai211_2
X_4191_ _1615_ _1652_ _1658_ _1705_ _1706_ VDD VSS gf180mcu_fd_sc_mcu9t5v0__or4_2
X_4192_ net170 _0002_ _1707_ VDD VSS gf180mcu_fd_sc_mcu9t5v0__xor2_2
X_4193_ _0003_ _1707_ _1708_ VDD VSS gf180mcu_fd_sc_mcu9t5v0__and2_2
X_4194_ _1708_ _1709_ VDD VSS gf180mcu_fd_sc_mcu9t5v0__clkinv_2
X_4195_ net170 _0006_ _1710_ VDD VSS gf180mcu_fd_sc_mcu9t5v0__xnor2_2
X_4196_ _0007_ _1710_ _1711_ VDD VSS gf180mcu_fd_sc_mcu9t5v0__and2_2
X_4197_ _1711_ _1712_ VDD VSS gf180mcu_fd_sc_mcu9t5v0__clkinv_2
X_4198_ _1709_ _1712_ net122 _1713_ VDD VSS gf180mcu_fd_sc_mcu9t5v0__mux2_2
X_4199_ _1701_ _1706_ _1713_ _1714_ VDD VSS gf180mcu_fd_sc_mcu9t5v0__aoi21_2
X_4200_ net123 _1714_ _1715_ VDD VSS gf180mcu_fd_sc_mcu9t5v0__or2_2
X_4201_ _0279_ _1715_ _0160_ VDD VSS gf180mcu_fd_sc_mcu9t5v0__xor2_2
X_4202_ _1631_ net170 _0125_ _1716_ VDD VSS gf180mcu_fd_sc_mcu9t5v0__aoi21_4
X_4203_ _0119_ _1717_ VDD VSS gf180mcu_fd_sc_mcu9t5v0__clkinv_2
X_4204_ _1617_ _1716_ _1717_ _1718_ VDD VSS gf180mcu_fd_sc_mcu9t5v0__oai21_2
X_4205_ _1649_ _1718_ _1719_ VDD VSS gf180mcu_fd_sc_mcu9t5v0__xnor2_2
X_4206_ net122 _1719_ _1720_ VDD VSS gf180mcu_fd_sc_mcu9t5v0__and2_2
X_4207_ _1615_ _1697_ _1720_ _1721_ VDD VSS gf180mcu_fd_sc_mcu9t5v0__aoi21_4
X_4208_ _1721_ _0165_ VDD VSS gf180mcu_fd_sc_mcu9t5v0__clkinv_2
X_4209_ net122 _1692_ _1700_ _1722_ VDD VSS gf180mcu_fd_sc_mcu9t5v0__or3_2
X_4210_ _1615_ _1705_ _1722_ _1723_ VDD VSS gf180mcu_fd_sc_mcu9t5v0__oai21_2
X_4211_ _0177_ _1723_ net123 _1724_ VDD VSS gf180mcu_fd_sc_mcu9t5v0__aoi21_2
X_4212_ _0283_ _1724_ _0164_ VDD VSS gf180mcu_fd_sc_mcu9t5v0__xnor2_2
Xinput38 z_in[14] net38 VDD VSS gf180mcu_fd_sc_mcu9t5v0__buf_2
X_4214_ _0214_ _1713_ net93 _1726_ VDD VSS gf180mcu_fd_sc_mcu9t5v0__oai21_2
X_4215_ _0287_ _1726_ _0168_ VDD VSS gf180mcu_fd_sc_mcu9t5v0__xor2_2
X_4216_ net123 _0177_ _1727_ VDD VSS gf180mcu_fd_sc_mcu9t5v0__nor2_2
X_4217_ _0214_ _1727_ _0172_ VDD VSS gf180mcu_fd_sc_mcu9t5v0__xnor2_2
X_4218_ _0178_ _1728_ VDD VSS gf180mcu_fd_sc_mcu9t5v0__clkinv_2
X_4219_ _1728_ _0176_ net123 _0022_ VDD VSS gf180mcu_fd_sc_mcu9t5v0__mux2_2
X_4220_ _0026_ _0021_ VDD VSS gf180mcu_fd_sc_mcu9t5v0__clkinv_2
X_4221_ _0180_ _1729_ VDD VSS gf180mcu_fd_sc_mcu9t5v0__clkinv_2
X_4222_ _0179_ _1730_ VDD VSS gf180mcu_fd_sc_mcu9t5v0__clkinv_2
X_4223_ _1729_ _0026_ _1730_ _1731_ VDD VSS gf180mcu_fd_sc_mcu9t5v0__oai21_2
X_4224_ _0175_ _1731_ _0174_ _1732_ VDD VSS gf180mcu_fd_sc_mcu9t5v0__aoi21_2
X_4225_ _0171_ _1732_ _0307_ VDD VSS gf180mcu_fd_sc_mcu9t5v0__xnor2_2
X_4226_ _0307_ _0225_ VDD VSS gf180mcu_fd_sc_mcu9t5v0__clkinv_2
X_4227_ _0175_ _0024_ _0311_ VDD VSS gf180mcu_fd_sc_mcu9t5v0__xor2_2
X_4228_ _0311_ _0224_ VDD VSS gf180mcu_fd_sc_mcu9t5v0__clkinv_2
X_4229_ _0166_ _1733_ VDD VSS gf180mcu_fd_sc_mcu9t5v0__clkinv_2
X_4230_ _0171_ _0174_ _0170_ _1734_ VDD VSS gf180mcu_fd_sc_mcu9t5v0__aoi21_2
X_4231_ _1734_ _1735_ VDD VSS gf180mcu_fd_sc_mcu9t5v0__clkinv_2
X_4232_ _0175_ _0171_ _0167_ _1736_ VDD VSS gf180mcu_fd_sc_mcu9t5v0__and3_2
X_4233_ _0167_ _1735_ _1736_ _1731_ _1737_ VDD VSS gf180mcu_fd_sc_mcu9t5v0__aoi22_2
X_4234_ _1733_ _1737_ _1738_ VDD VSS gf180mcu_fd_sc_mcu9t5v0__and2_2
X_4235_ _0163_ _1738_ _0299_ VDD VSS gf180mcu_fd_sc_mcu9t5v0__xnor2_2
X_4236_ net33 _0043_ VDD VSS gf180mcu_fd_sc_mcu9t5v0__clkinv_20
X_4237_ net41 _1739_ VDD VSS gf180mcu_fd_sc_mcu9t5v0__clkinv_3
X_4238_ net39 _1636_ _1546_ _0359_ _1740_ VDD VSS gf180mcu_fd_sc_mcu9t5v0__aoi211_2
X_4239_ _1739_ _1740_ _0028_ VDD VSS gf180mcu_fd_sc_mcu9t5v0__xnor2_2
X_4240_ _0028_ _0031_ VDD VSS gf180mcu_fd_sc_mcu9t5v0__clkinv_2
X_4241_ net93 _0015_ _1741_ VDD VSS gf180mcu_fd_sc_mcu9t5v0__xor2_2
X_4242_ _0183_ _1741_ _1742_ VDD VSS gf180mcu_fd_sc_mcu9t5v0__and2_2
X_4243_ _0186_ _1743_ VDD VSS gf180mcu_fd_sc_mcu9t5v0__clkinv_2
X_4244_ _0210_ _1744_ VDD VSS gf180mcu_fd_sc_mcu9t5v0__clkinv_2
X_4245_ _0212_ _0028_ _0211_ _1745_ VDD VSS gf180mcu_fd_sc_mcu9t5v0__aoi21_2
X_4246_ _0209_ _1746_ VDD VSS gf180mcu_fd_sc_mcu9t5v0__clkinv_2
X_4247_ _1744_ _1745_ _1746_ _1747_ VDD VSS gf180mcu_fd_sc_mcu9t5v0__oai21_2
X_4248_ _0194_ _1748_ VDD VSS gf180mcu_fd_sc_mcu9t5v0__clkinv_2
X_4249_ _0198_ _0197_ _0195_ _1749_ VDD VSS gf180mcu_fd_sc_mcu9t5v0__oai21_2
X_4250_ _0192_ _1750_ VDD VSS gf180mcu_fd_sc_mcu9t5v0__clkinv_3
X_4251_ _1749_ _1748_ _1750_ _1751_ VDD VSS gf180mcu_fd_sc_mcu9t5v0__aoi21_2
X_4252_ _1751_ _0191_ _1752_ VDD VSS gf180mcu_fd_sc_mcu9t5v0__or2_2
X_4253_ _0201_ _0204_ _1753_ VDD VSS gf180mcu_fd_sc_mcu9t5v0__and2_2
X_4254_ _0207_ _0189_ _1752_ _1753_ _1754_ VDD VSS gf180mcu_fd_sc_mcu9t5v0__and4_2
X_4255_ _0192_ _0194_ _0197_ _0191_ _1755_ VDD VSS gf180mcu_fd_sc_mcu9t5v0__aoi211_2
X_4256_ _0204_ _0206_ _1756_ VDD VSS gf180mcu_fd_sc_mcu9t5v0__and2_2
X_4257_ _0203_ _1756_ _1757_ VDD VSS gf180mcu_fd_sc_mcu9t5v0__or2_2
X_4258_ _0201_ _1757_ _0200_ _1758_ VDD VSS gf180mcu_fd_sc_mcu9t5v0__aoi21_2
X_4259_ _1752_ _0189_ _1759_ VDD VSS gf180mcu_fd_sc_mcu9t5v0__nand2_2
X_4260_ _1755_ _1758_ _1759_ _1760_ VDD VSS gf180mcu_fd_sc_mcu9t5v0__aoi21_2
X_4261_ _1747_ _1754_ _1760_ _0188_ _1761_ VDD VSS gf180mcu_fd_sc_mcu9t5v0__aoi211_2
X_4262_ _0185_ _1762_ VDD VSS gf180mcu_fd_sc_mcu9t5v0__clkinv_2
X_4263_ _1761_ _1743_ _1762_ _1763_ VDD VSS gf180mcu_fd_sc_mcu9t5v0__oai21_2
X_4264_ _1763_ _1742_ _1764_ VDD VSS gf180mcu_fd_sc_mcu9t5v0__and2_4
X_4265_ _1764_ _0130_ _1765_ VDD VSS gf180mcu_fd_sc_mcu9t5v0__or2_4
X_4266_ net132 _1766_ VDD VSS gf180mcu_fd_sc_mcu9t5v0__clkinv_20
Xinput37 z_in[13] net37 VDD VSS gf180mcu_fd_sc_mcu9t5v0__buf_2
X_4268_ _0216_ _1767_ VDD VSS gf180mcu_fd_sc_mcu9t5v0__clkinv_2
X_4269_ _0134_ _1768_ VDD VSS gf180mcu_fd_sc_mcu9t5v0__clkinv_2
X_4270_ _0140_ _0228_ _0139_ _1769_ VDD VSS gf180mcu_fd_sc_mcu9t5v0__aoi21_2
X_4271_ _0133_ _1770_ VDD VSS gf180mcu_fd_sc_mcu9t5v0__clkinv_2
X_4272_ _1768_ _1769_ _1770_ _1771_ VDD VSS gf180mcu_fd_sc_mcu9t5v0__oai21_2
X_4273_ _1767_ _1771_ _0217_ VDD VSS gf180mcu_fd_sc_mcu9t5v0__xnor2_2
X_4274_ _0217_ _0314_ VDD VSS gf180mcu_fd_sc_mcu9t5v0__clkinv_2
X_4275_ _0223_ _1772_ VDD VSS gf180mcu_fd_sc_mcu9t5v0__clkinv_2
X_4276_ _0033_ _0230_ _0229_ _1773_ VDD VSS gf180mcu_fd_sc_mcu9t5v0__aoi21_2
X_4277_ _0222_ _1774_ VDD VSS gf180mcu_fd_sc_mcu9t5v0__clkinv_2
X_4278_ _1772_ _1773_ _1774_ _1775_ VDD VSS gf180mcu_fd_sc_mcu9t5v0__oai21_2
X_4279_ _0220_ _1775_ _0523_ VDD VSS gf180mcu_fd_sc_mcu9t5v0__xnor2_2
Xinput36 z_in[12] net36 VDD VSS gf180mcu_fd_sc_mcu9t5v0__buf_2
Xinput35 z_in[11] net35 VDD VSS gf180mcu_fd_sc_mcu9t5v0__buf_2
X_4282_ _0147_ _1668_ _0159_ _1778_ VDD VSS gf180mcu_fd_sc_mcu9t5v0__aoi21_2
Xinput34 z_in[10] net34 VDD VSS gf180mcu_fd_sc_mcu9t5v0__buf_2
X_4284_ net82 _0156_ _1780_ VDD VSS gf180mcu_fd_sc_mcu9t5v0__nor2_2
X_4285_ _1649_ _0153_ _1780_ _1781_ VDD VSS gf180mcu_fd_sc_mcu9t5v0__oai21_2
X_4286_ _1778_ _1781_ _1782_ VDD VSS gf180mcu_fd_sc_mcu9t5v0__nand2_2
X_4287_ _1656_ _1643_ _1783_ VDD VSS gf180mcu_fd_sc_mcu9t5v0__and2_2
X_4288_ _1653_ _1655_ _1778_ _1783_ _1784_ VDD VSS gf180mcu_fd_sc_mcu9t5v0__oai211_2
X_4289_ _1615_ _1782_ _1784_ _1785_ VDD VSS gf180mcu_fd_sc_mcu9t5v0__and3_2
X_4290_ net82 _0156_ _1786_ VDD VSS gf180mcu_fd_sc_mcu9t5v0__and2_2
X_4291_ _0156_ _0143_ _1787_ VDD VSS gf180mcu_fd_sc_mcu9t5v0__and2_2
X_4292_ _0155_ _1787_ _1788_ VDD VSS gf180mcu_fd_sc_mcu9t5v0__or2_2
X_4293_ _1666_ _1786_ _1788_ _1615_ _1789_ VDD VSS gf180mcu_fd_sc_mcu9t5v0__aoi211_2
X_4294_ _0236_ _1785_ _1789_ _1790_ VDD VSS gf180mcu_fd_sc_mcu9t5v0__or3_4
X_4295_ _1785_ _1789_ _0236_ _1791_ VDD VSS gf180mcu_fd_sc_mcu9t5v0__oai21_2
X_4296_ _1790_ _1791_ _1792_ VDD VSS gf180mcu_fd_sc_mcu9t5v0__and2_2
X_4297_ _1792_ _0247_ VDD VSS gf180mcu_fd_sc_mcu9t5v0__clkinv_2
X_4298_ _0123_ _1675_ _1793_ VDD VSS gf180mcu_fd_sc_mcu9t5v0__and2_2
X_4299_ _0147_ _1794_ VDD VSS gf180mcu_fd_sc_mcu9t5v0__clkinv_2
X_4300_ net82 _1643_ _1794_ _1795_ VDD VSS gf180mcu_fd_sc_mcu9t5v0__oai21_2
X_4301_ net203 net172 net82 _1796_ VDD VSS gf180mcu_fd_sc_mcu9t5v0__or3_2
X_4302_ _1621_ _1693_ _1796_ _1797_ VDD VSS gf180mcu_fd_sc_mcu9t5v0__aoi21_2
X_4303_ _0236_ _1798_ VDD VSS gf180mcu_fd_sc_mcu9t5v0__clkinv_2
X_4304_ _1668_ _1798_ _1799_ VDD VSS gf180mcu_fd_sc_mcu9t5v0__and2_2
X_4305_ _1793_ _1795_ _1797_ _1799_ _1800_ VDD VSS gf180mcu_fd_sc_mcu9t5v0__oai31_2
X_4306_ _0159_ _1798_ _0239_ _1801_ VDD VSS gf180mcu_fd_sc_mcu9t5v0__aoi21_2
X_4307_ _1800_ _1801_ net141 _1802_ VDD VSS gf180mcu_fd_sc_mcu9t5v0__aoi21_2
X_4308_ _0156_ _0236_ _1803_ VDD VSS gf180mcu_fd_sc_mcu9t5v0__and2_2
X_4309_ _0236_ _0158_ _1804_ VDD VSS gf180mcu_fd_sc_mcu9t5v0__and2_2
X_4310_ _0238_ _1804_ _1805_ VDD VSS gf180mcu_fd_sc_mcu9t5v0__or2_2
X_4311_ _1674_ _1803_ _1805_ net121 _1806_ VDD VSS gf180mcu_fd_sc_mcu9t5v0__aoi211_2
Xinput33 z_in[0] net33 VDD VSS gf180mcu_fd_sc_mcu9t5v0__buf_20
X_4313_ _1802_ _1806_ _0242_ _1808_ VDD VSS gf180mcu_fd_sc_mcu9t5v0__oai21_2
X_4314_ _0242_ _1802_ _1806_ _1809_ VDD VSS gf180mcu_fd_sc_mcu9t5v0__or3_2
X_4315_ _1808_ _1809_ _0271_ VDD VSS gf180mcu_fd_sc_mcu9t5v0__nand2_2
X_4316_ _1782_ _1784_ _1810_ VDD VSS gf180mcu_fd_sc_mcu9t5v0__nand2_2
X_4317_ net82 _0156_ _1811_ VDD VSS gf180mcu_fd_sc_mcu9t5v0__nand2_2
X_4318_ _0146_ _0156_ _0158_ _1812_ VDD VSS gf180mcu_fd_sc_mcu9t5v0__aoi21_2
X_4319_ _1687_ _1811_ _1812_ _1813_ VDD VSS gf180mcu_fd_sc_mcu9t5v0__oai21_2
X_4320_ _1810_ _1813_ _1615_ _1814_ VDD VSS gf180mcu_fd_sc_mcu9t5v0__mux2_2
X_4321_ _0236_ _1814_ _1815_ VDD VSS gf180mcu_fd_sc_mcu9t5v0__xnor2_2
X_4322_ _1815_ _0275_ VDD VSS gf180mcu_fd_sc_mcu9t5v0__clkinv_2
Xinput32 y_in[9] net32 VDD VSS gf180mcu_fd_sc_mcu9t5v0__dlyb_2
X_4324_ _1708_ _1813_ _1817_ VDD VSS gf180mcu_fd_sc_mcu9t5v0__and2_2
X_4325_ _1711_ _1810_ _1818_ VDD VSS gf180mcu_fd_sc_mcu9t5v0__and2_2
X_4326_ _1709_ _1813_ _1819_ VDD VSS gf180mcu_fd_sc_mcu9t5v0__nor2_2
X_4327_ _1712_ _1810_ _1820_ VDD VSS gf180mcu_fd_sc_mcu9t5v0__nor2_2
X_4328_ _1817_ _1818_ _1819_ _1820_ net122 _1798_ _1821_ VDD
+ VSS gf180mcu_fd_sc_mcu9t5v0__mux4_2
X_4329_ _1701_ _1706_ _0279_ _1822_ VDD VSS gf180mcu_fd_sc_mcu9t5v0__aoi21_4
X_4330_ _1821_ _1822_ _1823_ VDD VSS gf180mcu_fd_sc_mcu9t5v0__nand2_2
X_4331_ net84 _1823_ _1824_ VDD VSS gf180mcu_fd_sc_mcu9t5v0__and2_2
X_4332_ _0271_ _1824_ _0246_ VDD VSS gf180mcu_fd_sc_mcu9t5v0__xnor2_2
X_4333_ net82 _0143_ net203 net172 _1825_ VDD VSS gf180mcu_fd_sc_mcu9t5v0__oai211_2
X_4334_ net172 _0119_ _0149_ _1826_ VDD VSS gf180mcu_fd_sc_mcu9t5v0__aoi21_2
X_4335_ _1642_ _1826_ _1827_ VDD VSS gf180mcu_fd_sc_mcu9t5v0__or2_2
X_4336_ _0143_ _1828_ VDD VSS gf180mcu_fd_sc_mcu9t5v0__clkinv_2
X_4337_ _1716_ _1825_ _1827_ _1828_ _1829_ VDD VSS gf180mcu_fd_sc_mcu9t5v0__oai211_4
X_4338_ _1679_ _1829_ net121 _1830_ VDD VSS gf180mcu_fd_sc_mcu9t5v0__mux2_2
X_4339_ _0156_ _1830_ _1831_ VDD VSS gf180mcu_fd_sc_mcu9t5v0__xnor2_2
X_4340_ _1831_ _0251_ VDD VSS gf180mcu_fd_sc_mcu9t5v0__clkinv_2
X_4341_ _0177_ _1822_ _1832_ VDD VSS gf180mcu_fd_sc_mcu9t5v0__nand2_2
X_4342_ net93 _1832_ _1833_ VDD VSS gf180mcu_fd_sc_mcu9t5v0__and2_2
X_4343_ _0275_ _1833_ _0250_ VDD VSS gf180mcu_fd_sc_mcu9t5v0__xnor2_2
X_4344_ _0249_ _1834_ VDD VSS gf180mcu_fd_sc_mcu9t5v0__clkinv_2
X_4345_ _0162_ _0166_ _0252_ _1835_ VDD VSS gf180mcu_fd_sc_mcu9t5v0__nor3_2
X_4346_ _0163_ _0162_ _1836_ VDD VSS gf180mcu_fd_sc_mcu9t5v0__or2_2
X_4347_ _0253_ _1836_ _1837_ VDD VSS gf180mcu_fd_sc_mcu9t5v0__and2_2
X_4348_ _0252_ _1837_ _1838_ VDD VSS gf180mcu_fd_sc_mcu9t5v0__nor2_2
X_4349_ _1737_ _1835_ _1838_ _1839_ VDD VSS gf180mcu_fd_sc_mcu9t5v0__aoi21_2
X_4350_ _1834_ _1839_ _0291_ VDD VSS gf180mcu_fd_sc_mcu9t5v0__xnor2_2
Xinput31 y_in[8] net31 VDD VSS gf180mcu_fd_sc_mcu9t5v0__dlyb_2
X_4352_ _0242_ _1841_ VDD VSS gf180mcu_fd_sc_mcu9t5v0__clkinv_2
X_4353_ _0262_ _1842_ VDD VSS gf180mcu_fd_sc_mcu9t5v0__clkinv_2
X_4354_ _1798_ _0239_ _1841_ _1842_ _1843_ VDD VSS gf180mcu_fd_sc_mcu9t5v0__oai211_2
X_4355_ _0159_ _1844_ VDD VSS gf180mcu_fd_sc_mcu9t5v0__clkinv_2
X_4356_ _0239_ _1845_ VDD VSS gf180mcu_fd_sc_mcu9t5v0__clkinv_2
X_4357_ _0156_ _1844_ _1845_ _1846_ VDD VSS gf180mcu_fd_sc_mcu9t5v0__and3_2
X_4358_ _0245_ _1842_ _0265_ _1847_ VDD VSS gf180mcu_fd_sc_mcu9t5v0__aoi21_2
X_4359_ _1843_ _1846_ _1847_ _1848_ VDD VSS gf180mcu_fd_sc_mcu9t5v0__oai21_2
X_4360_ _1844_ _1845_ _1849_ VDD VSS gf180mcu_fd_sc_mcu9t5v0__and2_2
X_4361_ _1676_ _1678_ _1847_ _1849_ _1850_ VDD VSS gf180mcu_fd_sc_mcu9t5v0__nand4_2
X_4362_ _1615_ _1848_ _1850_ _1851_ VDD VSS gf180mcu_fd_sc_mcu9t5v0__nand3_2
X_4363_ _0242_ _0262_ _1803_ _1852_ VDD VSS gf180mcu_fd_sc_mcu9t5v0__and3_2
X_4364_ _0236_ _0155_ _0235_ _1853_ VDD VSS gf180mcu_fd_sc_mcu9t5v0__aoi21_2
X_4365_ _0242_ _0262_ _1854_ VDD VSS gf180mcu_fd_sc_mcu9t5v0__nand2_2
X_4366_ _0262_ _0241_ _0261_ _1855_ VDD VSS gf180mcu_fd_sc_mcu9t5v0__aoi21_2
X_4367_ _1853_ _1854_ _1855_ _1856_ VDD VSS gf180mcu_fd_sc_mcu9t5v0__oai21_2
X_4368_ _1829_ _1852_ _1856_ _1857_ VDD VSS gf180mcu_fd_sc_mcu9t5v0__aoi21_2
X_4369_ net121 _1857_ _1858_ VDD VSS gf180mcu_fd_sc_mcu9t5v0__nand2_2
X_4370_ _1851_ _1858_ _1859_ VDD VSS gf180mcu_fd_sc_mcu9t5v0__nand2_2
X_4371_ _0256_ _1859_ _0447_ VDD VSS gf180mcu_fd_sc_mcu9t5v0__xnor2_2
X_4372_ _1653_ _1655_ _1783_ _1860_ VDD VSS gf180mcu_fd_sc_mcu9t5v0__oai21_2
X_4373_ net172 _1643_ _1861_ VDD VSS gf180mcu_fd_sc_mcu9t5v0__nand2_2
X_4374_ _0236_ _0242_ _1862_ VDD VSS gf180mcu_fd_sc_mcu9t5v0__nor2_2
X_4375_ _1861_ _1780_ _1862_ _1863_ VDD VSS gf180mcu_fd_sc_mcu9t5v0__and3_2
X_4376_ _0239_ _1841_ _0245_ _1864_ VDD VSS gf180mcu_fd_sc_mcu9t5v0__aoi21_2
X_4377_ _0236_ _0242_ _1778_ _1864_ _1865_ VDD VSS gf180mcu_fd_sc_mcu9t5v0__oai31_2
X_4378_ _1860_ _1863_ net121 _1865_ _1866_ VDD VSS gf180mcu_fd_sc_mcu9t5v0__aoi211_2
X_4379_ net82 _0143_ _0236_ _0156_ _1867_ VDD VSS gf180mcu_fd_sc_mcu9t5v0__oai211_2
X_4380_ _1853_ _1867_ _1841_ _1868_ VDD VSS gf180mcu_fd_sc_mcu9t5v0__aoi21_2
X_4381_ _0241_ _1868_ _1869_ VDD VSS gf180mcu_fd_sc_mcu9t5v0__or2_2
X_4382_ _0156_ _0143_ _0155_ _1870_ VDD VSS gf180mcu_fd_sc_mcu9t5v0__aoi21_2
X_4383_ _0242_ _0235_ _0241_ _1871_ VDD VSS gf180mcu_fd_sc_mcu9t5v0__aoi21_2
X_4384_ _1665_ _1870_ _1871_ _1872_ VDD VSS gf180mcu_fd_sc_mcu9t5v0__and3_2
X_4385_ _1661_ _1662_ _1664_ _1872_ _1873_ VDD VSS gf180mcu_fd_sc_mcu9t5v0__oai211_2
X_4386_ net121 _1869_ _1873_ _1874_ VDD VSS gf180mcu_fd_sc_mcu9t5v0__and3_2
X_4387_ _0262_ _1866_ _1874_ _1875_ VDD VSS gf180mcu_fd_sc_mcu9t5v0__or3_4
X_4388_ _1866_ _1874_ _0262_ _1876_ VDD VSS gf180mcu_fd_sc_mcu9t5v0__oai21_2
X_4389_ _1875_ _1876_ _0387_ VDD VSS gf180mcu_fd_sc_mcu9t5v0__and2_2
X_4390_ _1800_ _1801_ _1877_ VDD VSS gf180mcu_fd_sc_mcu9t5v0__nand2_2
X_4391_ _1853_ _1878_ VDD VSS gf180mcu_fd_sc_mcu9t5v0__clkinv_2
X_4392_ _1803_ _1829_ _1878_ _1615_ _1879_ VDD VSS gf180mcu_fd_sc_mcu9t5v0__aoi211_2
X_4393_ _1615_ _1877_ _1879_ _1880_ VDD VSS gf180mcu_fd_sc_mcu9t5v0__aoi21_2
X_4394_ _0242_ _1880_ _1881_ VDD VSS gf180mcu_fd_sc_mcu9t5v0__xnor2_2
X_4395_ _1881_ _0391_ VDD VSS gf180mcu_fd_sc_mcu9t5v0__clkinv_2
X_4396_ _1860_ _1863_ net141 _1865_ _1882_ VDD VSS gf180mcu_fd_sc_mcu9t5v0__aoi211_2
X_4397_ _0236_ _0242_ _1883_ VDD VSS gf180mcu_fd_sc_mcu9t5v0__nand2_2
X_4398_ net82 _0146_ _1884_ VDD VSS gf180mcu_fd_sc_mcu9t5v0__or2_2
X_4399_ _0156_ _1884_ _0158_ _1885_ VDD VSS gf180mcu_fd_sc_mcu9t5v0__aoi21_2
X_4400_ _0238_ _0242_ _0244_ _1886_ VDD VSS gf180mcu_fd_sc_mcu9t5v0__aoi21_2
X_4401_ _1883_ _1885_ _1886_ _1887_ VDD VSS gf180mcu_fd_sc_mcu9t5v0__oai21_2
X_4402_ _0001_ _1888_ VDD VSS gf180mcu_fd_sc_mcu9t5v0__clkinv_2
X_4403_ _0113_ _1888_ _0115_ _1889_ VDD VSS gf180mcu_fd_sc_mcu9t5v0__aoi21_2
X_4404_ _1649_ _1684_ _1890_ VDD VSS gf180mcu_fd_sc_mcu9t5v0__or2_2
X_4405_ _1685_ _1812_ _1886_ _1891_ VDD VSS gf180mcu_fd_sc_mcu9t5v0__and3_2
X_4406_ _1662_ _1889_ _1890_ _1891_ _1892_ VDD VSS gf180mcu_fd_sc_mcu9t5v0__oai211_2
X_4407_ net141 _1887_ _1892_ _1893_ VDD VSS gf180mcu_fd_sc_mcu9t5v0__and3_2
X_4408_ _1842_ _1882_ _1893_ _1894_ VDD VSS gf180mcu_fd_sc_mcu9t5v0__or3_4
X_4409_ _1882_ _1893_ _1842_ _1895_ VDD VSS gf180mcu_fd_sc_mcu9t5v0__oai21_2
X_4410_ _1894_ _1895_ _0266_ VDD VSS gf180mcu_fd_sc_mcu9t5v0__nand2_2
X_4411_ _0276_ _1896_ VDD VSS gf180mcu_fd_sc_mcu9t5v0__clkinv_2
X_4412_ _0281_ _0280_ _0277_ _1897_ VDD VSS gf180mcu_fd_sc_mcu9t5v0__oai21_2
X_4413_ _0273_ _1898_ VDD VSS gf180mcu_fd_sc_mcu9t5v0__clkinv_2
X_4414_ _1896_ _1897_ _1898_ _1899_ VDD VSS gf180mcu_fd_sc_mcu9t5v0__aoi21_2
X_4415_ _0285_ _0288_ _1900_ VDD VSS gf180mcu_fd_sc_mcu9t5v0__and2_2
X_4416_ _0276_ _0280_ _0284_ _1901_ VDD VSS gf180mcu_fd_sc_mcu9t5v0__or3_2
X_4417_ _0272_ _1900_ _1901_ _1902_ VDD VSS gf180mcu_fd_sc_mcu9t5v0__or3_2
X_4418_ _0285_ _0289_ _1903_ VDD VSS gf180mcu_fd_sc_mcu9t5v0__nand2_2
X_4419_ _0133_ _0216_ _0215_ _1904_ VDD VSS gf180mcu_fd_sc_mcu9t5v0__aoi21_4
X_4420_ _0134_ _0216_ _0285_ _0289_ _1905_ VDD VSS gf180mcu_fd_sc_mcu9t5v0__nand4_2
X_4421_ _1903_ net125 _1905_ _1769_ _1906_ VDD VSS gf180mcu_fd_sc_mcu9t5v0__oai22_2
X_4422_ _0272_ _1899_ _1902_ _1906_ _1907_ VDD VSS gf180mcu_fd_sc_mcu9t5v0__oai22_2
X_4423_ _0269_ _1907_ _0471_ VDD VSS gf180mcu_fd_sc_mcu9t5v0__xnor2_2
X_4424_ _0277_ _1908_ VDD VSS gf180mcu_fd_sc_mcu9t5v0__clkinv_2
X_4425_ _0276_ _0280_ _1909_ VDD VSS gf180mcu_fd_sc_mcu9t5v0__nor2_2
X_4426_ _0285_ _0284_ _0281_ _1910_ VDD VSS gf180mcu_fd_sc_mcu9t5v0__oai21_2
X_4427_ _1908_ _1896_ _1909_ _1910_ _1911_ VDD VSS gf180mcu_fd_sc_mcu9t5v0__aoi22_2
X_4428_ _0019_ _1912_ VDD VSS gf180mcu_fd_sc_mcu9t5v0__clkinv_2
X_4429_ _0134_ _1912_ _0133_ _0215_ _1913_ VDD VSS gf180mcu_fd_sc_mcu9t5v0__aoi211_2
X_4430_ _0216_ _0215_ _0289_ _1914_ VDD VSS gf180mcu_fd_sc_mcu9t5v0__oai21_2
X_4431_ _0288_ _1915_ VDD VSS gf180mcu_fd_sc_mcu9t5v0__clkinv_2
X_4432_ _1901_ _1916_ VDD VSS gf180mcu_fd_sc_mcu9t5v0__clkinv_2
X_4433_ _1913_ _1914_ _1915_ _1916_ _1917_ VDD VSS gf180mcu_fd_sc_mcu9t5v0__oai211_2
X_4434_ _1911_ _1917_ _1918_ VDD VSS gf180mcu_fd_sc_mcu9t5v0__nand2_2
X_4435_ _0273_ _1918_ _0475_ VDD VSS gf180mcu_fd_sc_mcu9t5v0__xnor2_2
X_4436_ _1768_ _1767_ _1769_ _1904_ _1919_ VDD VSS gf180mcu_fd_sc_mcu9t5v0__oai31_4
X_4437_ _0280_ _0284_ _1920_ VDD VSS gf180mcu_fd_sc_mcu9t5v0__nor2_2
X_4438_ _0277_ _1920_ _1921_ VDD VSS gf180mcu_fd_sc_mcu9t5v0__nand2_2
X_4439_ _0288_ _1919_ _1921_ _1922_ VDD VSS gf180mcu_fd_sc_mcu9t5v0__or3_2
X_4440_ _0281_ _1923_ VDD VSS gf180mcu_fd_sc_mcu9t5v0__clkinv_2
X_4441_ _0289_ _0288_ _0285_ _1924_ VDD VSS gf180mcu_fd_sc_mcu9t5v0__oai21_2
X_4442_ _0277_ _1923_ _1924_ _1925_ VDD VSS gf180mcu_fd_sc_mcu9t5v0__nor3_2
X_4443_ _0288_ _1919_ _1925_ _1926_ VDD VSS gf180mcu_fd_sc_mcu9t5v0__oai21_2
X_4444_ _0277_ _1920_ _1924_ _1927_ VDD VSS gf180mcu_fd_sc_mcu9t5v0__nand3_2
X_4445_ _0284_ _1928_ VDD VSS gf180mcu_fd_sc_mcu9t5v0__clkinv_2
X_4446_ _0277_ _1923_ _1928_ _1929_ VDD VSS gf180mcu_fd_sc_mcu9t5v0__or3_2
X_4447_ _1908_ _0281_ _0280_ _1930_ VDD VSS gf180mcu_fd_sc_mcu9t5v0__or3_2
X_4448_ _1927_ _1929_ _1930_ _1931_ VDD VSS gf180mcu_fd_sc_mcu9t5v0__and3_2
X_4449_ _1908_ _0280_ _1932_ VDD VSS gf180mcu_fd_sc_mcu9t5v0__nand2_2
X_4450_ _1922_ _1926_ _1931_ _1932_ _0479_ VDD VSS gf180mcu_fd_sc_mcu9t5v0__nand4_2
X_4451_ _0215_ _1933_ VDD VSS gf180mcu_fd_sc_mcu9t5v0__clkinv_2
X_4452_ _1768_ _0019_ _1770_ _1933_ _1934_ VDD VSS gf180mcu_fd_sc_mcu9t5v0__oai211_2
X_4453_ _0289_ _1935_ VDD VSS gf180mcu_fd_sc_mcu9t5v0__clkinv_2
X_4454_ _1767_ _1933_ _1935_ _1936_ VDD VSS gf180mcu_fd_sc_mcu9t5v0__aoi21_2
X_4455_ _1934_ _1936_ _0288_ _1937_ VDD VSS gf180mcu_fd_sc_mcu9t5v0__aoi21_2
X_4456_ _1923_ net205 _1938_ VDD VSS gf180mcu_fd_sc_mcu9t5v0__nand2_2
X_4457_ _0281_ _1928_ _1939_ VDD VSS gf180mcu_fd_sc_mcu9t5v0__and2_2
X_4458_ _1913_ _1914_ _1939_ _1915_ _1940_ VDD VSS gf180mcu_fd_sc_mcu9t5v0__oai211_2
X_4459_ _1923_ net211 _1941_ VDD VSS gf180mcu_fd_sc_mcu9t5v0__or2_2
X_4460_ _0281_ _1941_ _1928_ _1942_ VDD VSS gf180mcu_fd_sc_mcu9t5v0__mux2_2
X_4461_ _1937_ _1938_ _1940_ _1942_ _0483_ VDD VSS gf180mcu_fd_sc_mcu9t5v0__oai211_4
X_4462_ _0289_ _1919_ _0288_ _1943_ VDD VSS gf180mcu_fd_sc_mcu9t5v0__aoi21_2
X_4463_ net205 _1943_ _0487_ VDD VSS gf180mcu_fd_sc_mcu9t5v0__xnor2_2
Xinput30 y_in[7] net30 VDD VSS gf180mcu_fd_sc_mcu9t5v0__dlyb_2
X_4465_ _0479_ _0483_ _0487_ _1945_ VDD VSS gf180mcu_fd_sc_mcu9t5v0__or3_4
X_4466_ _1767_ _0289_ _1933_ _1946_ VDD VSS gf180mcu_fd_sc_mcu9t5v0__and3_2
X_4467_ _1935_ _0133_ _0215_ _1947_ VDD VSS gf180mcu_fd_sc_mcu9t5v0__or3_2
X_4468_ _0019_ _1947_ _0134_ _1948_ VDD VSS gf180mcu_fd_sc_mcu9t5v0__aoi21_2
X_4469_ _0216_ _1935_ _0019_ _1949_ VDD VSS gf180mcu_fd_sc_mcu9t5v0__aoi21_2
X_4470_ _0289_ net125 _1949_ _1768_ _1950_ VDD VSS gf180mcu_fd_sc_mcu9t5v0__oai22_2
X_4471_ _0217_ _1946_ _1948_ _1950_ _1951_ VDD VSS gf180mcu_fd_sc_mcu9t5v0__or4_2
X_4472_ _0475_ _1945_ _1951_ _1952_ VDD VSS gf180mcu_fd_sc_mcu9t5v0__or3_2