
* cell parameterized_updown_counter
* pin count[0]
* pin overflow
* pin rst_n
* pin clk
* pin count[3]
* pin count[2]
* pin count[1]
* pin up_down
* pin enable
.SUBCKT parameterized_updown_counter 1 2 3 23 35 36 49 50 51
* net 1 count[0]
* net 2 overflow
* net 3 rst_n
* net 23 clk
* net 35 count[3]
* net 36 count[2]
* net 49 count[1]
* net 50 up_down
* net 51 enable
* cell instance $3 r0 *1 24.38,2.72
X$3 7 6 1 4 7 4 sky130_fd_sc_hd__clkbuf_1
* cell instance $5 r0 *1 31.28,2.72
X$5 7 5 2 4 7 4 sky130_fd_sc_hd__clkbuf_1
* cell instance $8 m0 *1 35.88,8.16
X$8 7 3 7 8 4 4 sky130_fd_sc_hd__dlygate4sd3_1
* cell instance $94 r0 *1 35.42,8.16
X$94 7 8 7 4 11 4 sky130_fd_sc_hd__clkbuf_2
* cell instance $136 m0 *1 24.84,19.04
X$136 7 13 5 15 4 7 4 sky130_fd_sc_hd__nor2_1
* cell instance $139 r0 *1 27.14,13.6
X$139 4 11 5 9 10 7 7 4 sky130_fd_sc_hd__dfrtp_1
* cell instance $142 m0 *1 29.44,19.04
X$142 4 11 6 9 16 7 7 4 sky130_fd_sc_hd__dfrtp_2
* cell instance $176 r0 *1 26.22,19.04
X$176 7 9 53 4 7 4 sky130_fd_sc_hd__clkbuf_1
* cell instance $177 r0 *1 27.6,19.04
X$177 7 15 12 18 4 7 10 4 sky130_fd_sc_hd__a21oi_1
* cell instance $178 r0 *1 29.44,19.04
X$178 7 14 4 9 7 4 sky130_fd_sc_hd__clkbuf_4
* cell instance $179 r0 *1 32.2,19.04
X$179 7 17 6 12 4 7 16 4 sky130_fd_sc_hd__a21oi_1
* cell instance $204 m0 *1 29.9,24.48
X$204 4 17 6 18 13 7 7 4 sky130_fd_sc_hd__mux2i_1
* cell instance $207 m0 *1 34.96,24.48
X$207 7 23 4 14 7 4 sky130_fd_sc_hd__clkbuf_4
* cell instance $231 r0 *1 30.36,24.48
X$231 7 20 6 27 7 4 4 sky130_fd_sc_hd__nand2_1
* cell instance $232 r0 *1 31.74,24.48
X$232 7 29 26 7 4 4 sky130_fd_sc_hd__clkinv_2
* cell instance $233 r0 *1 33.58,24.48
X$233 4 22 26 21 27 13 19 7 7 4 sky130_fd_sc_hd__o311a_1
* cell instance $234 r0 *1 37.26,24.48
X$234 7 21 19 24 28 4 7 4 sky130_fd_sc_hd__nor3_1
* cell instance $236 r0 *1 39.56,24.48
X$236 7 21 13 19 37 4 7 4 sky130_fd_sc_hd__and3b_1
* cell instance $241 r0 *1 43.24,24.48
X$241 4 11 21 25 32 7 7 4 sky130_fd_sc_hd__dfrtp_2
* cell instance $253 m0 *1 29.44,29.92
X$253 7 33 20 6 4 7 30 4 sky130_fd_sc_hd__a21oi_1
* cell instance $254 m0 *1 31.28,29.92
X$254 7 33 29 21 19 7 18 4 4 sky130_fd_sc_hd__nand4_1
* cell instance $255 m0 *1 33.58,29.92
X$255 7 26 30 21 7 34 4 4 sky130_fd_sc_hd__o21ai_0
* cell instance $256 m0 *1 35.42,29.92
X$256 4 32 22 12 31 34 28 7 7 4 sky130_fd_sc_hd__a221oi_1
* cell instance $257 m0 *1 38.64,29.92
X$257 7 24 37 13 21 7 31 4 4 sky130_fd_sc_hd__o2bb2ai_1
* cell instance $261 m0 *1 48.3,29.92
X$261 7 29 36 4 7 4 sky130_fd_sc_hd__clkbuf_1
* cell instance $264 m0 *1 52.44,29.92
X$264 7 21 35 4 7 4 sky130_fd_sc_hd__clkbuf_1
* cell instance $280 r0 *1 27.6,29.92
X$280 4 52 33 6 20 7 7 4 sky130_fd_sc_hd__ha_1
* cell instance $281 r0 *1 32.2,29.92
X$281 7 33 19 40 7 4 4 sky130_fd_sc_hd__nand2_1
* cell instance $282 r0 *1 33.58,29.92
X$282 7 29 20 6 24 4 7 4 sky130_fd_sc_hd__nor3_1
* cell instance $283 r0 *1 35.42,29.92
X$283 4 12 29 21 38 13 7 7 4 sky130_fd_sc_hd__o31a_1
* cell instance $285 r0 *1 39.1,29.92
X$285 7 41 29 39 7 4 4 sky130_fd_sc_hd__xnor2_1
* cell instance $309 m0 *1 32.66,35.36
X$309 7 6 7 4 43 4 sky130_fd_sc_hd__inv_1
* cell instance $312 m0 *1 35.42,35.36
X$312 4 13 41 38 40 7 7 4 sky130_fd_sc_hd__a21bo_1
* cell instance $314 m0 *1 40.02,35.36
X$314 4 11 29 25 39 7 7 4 sky130_fd_sc_hd__dfrtp_2
* cell instance $335 r0 *1 26.22,35.36
X$335 4 11 20 25 42 7 7 4 sky130_fd_sc_hd__dfrtp_2
* cell instance $337 r0 *1 37.72,35.36
X$337 7 14 4 25 7 4 sky130_fd_sc_hd__clkbuf_4
* cell instance $357 m0 *1 27.14,40.8
X$357 7 44 13 46 7 42 4 4 sky130_fd_sc_hd__o21ai_0
* cell instance $359 m0 *1 29.44,40.8
X$359 7 20 7 4 44 4 sky130_fd_sc_hd__inv_1
* cell instance $360 m0 *1 30.82,40.8
X$360 4 47 45 43 44 7 7 4 sky130_fd_sc_hd__ha_1
* cell instance $361 m0 *1 35.42,40.8
X$361 7 45 19 38 4 7 4 sky130_fd_sc_hd__nand2b_1
* cell instance $384 r0 *1 29.44,40.8
X$384 7 13 48 46 7 4 4 sky130_fd_sc_hd__nand2_1
* cell instance $385 r0 *1 30.82,40.8
X$385 7 47 19 48 7 4 4 sky130_fd_sc_hd__xnor2_1
* cell instance $424 r0 *1 35.88,46.24
X$424 7 51 4 13 7 4 sky130_fd_sc_hd__buf_2
* cell instance $473 r0 *1 34.5,51.68
X$473 7 50 7 4 19 4 sky130_fd_sc_hd__clkbuf_2
* cell instance $511 m0 *1 33.12,57.12
X$511 7 20 49 4 7 4 sky130_fd_sc_hd__clkbuf_1
.ENDS parameterized_updown_counter

* cell sky130_fd_sc_hd__dlygate4sd3_1
* pin VPB
* pin A
* pin VPWR
* pin X
* pin VGND
* pin 
.SUBCKT sky130_fd_sc_hd__dlygate4sd3_1 1 3 5 7 8 9
* net 1 VPB
* net 3 A
* net 5 VPWR
* net 7 X
* net 8 VGND
* device instance $1 r0 *1 2.465,2.275 pfet_01v8_hvt
M$1 6 2 5 1 pfet_01v8_hvt L=500000U W=420000U AS=140750000000P AD=109200000000P
+ PS=1325000U PD=1360000U
* device instance $2 r0 *1 3.115,1.985 pfet_01v8_hvt
M$2 7 6 5 1 pfet_01v8_hvt L=150000U W=1000000U AS=140750000000P
+ AD=260000000000P PS=1325000U PD=2520000U
* device instance $3 r0 *1 0.58,2.275 pfet_01v8_hvt
M$3 5 3 4 1 pfet_01v8_hvt L=150000U W=420000U AS=109200000000P AD=56700000000P
+ PS=1360000U PD=690000U
* device instance $4 r0 *1 1.175,2.275 pfet_01v8_hvt
M$4 2 4 5 1 pfet_01v8_hvt L=500000U W=420000U AS=56700000000P AD=109200000000P
+ PS=690000U PD=1360000U
* device instance $5 r0 *1 2.465,0.445 nfet_01v8
M$5 8 2 6 9 nfet_01v8 L=500000U W=420000U AS=109200000000P AD=97000000000P
+ PS=1360000U PD=975000U
* device instance $6 r0 *1 3.115,0.56 nfet_01v8
M$6 7 6 8 9 nfet_01v8 L=150000U W=650000U AS=97000000000P AD=169000000000P
+ PS=975000U PD=1820000U
* device instance $7 r0 *1 0.58,0.445 nfet_01v8
M$7 8 3 4 9 nfet_01v8 L=150000U W=420000U AS=109200000000P AD=56700000000P
+ PS=1360000U PD=690000U
* device instance $8 r0 *1 1.175,0.445 nfet_01v8
M$8 2 4 8 9 nfet_01v8 L=500000U W=420000U AS=56700000000P AD=109200000000P
+ PS=690000U PD=1360000U
.ENDS sky130_fd_sc_hd__dlygate4sd3_1

* cell sky130_fd_sc_hd__and3b_1
* pin VPB
* pin C
* pin B
* pin A_N
* pin X
* pin VGND
* pin VPWR
* pin 
.SUBCKT sky130_fd_sc_hd__and3b_1 1 2 3 5 7 8 9 10
* net 1 VPB
* net 2 C
* net 3 B
* net 5 A_N
* net 7 X
* net 8 VGND
* net 9 VPWR
* device instance $1 r0 *1 2.275,1.695 pfet_01v8_hvt
M$1 9 2 6 1 pfet_01v8_hvt L=150000U W=420000U AS=74375000000P AD=142225000000P
+ PS=815000U PD=1335000U
* device instance $2 r0 *1 1.38,1.765 pfet_01v8_hvt
M$2 9 4 6 1 pfet_01v8_hvt L=150000U W=420000U AS=108500000000P AD=56700000000P
+ PS=1360000U PD=690000U
* device instance $3 r0 *1 1.8,1.765 pfet_01v8_hvt
M$3 9 3 6 1 pfet_01v8_hvt L=150000U W=420000U AS=74375000000P AD=56700000000P
+ PS=815000U PD=690000U
* device instance $4 r0 *1 2.75,1.985 pfet_01v8_hvt
M$4 7 6 9 1 pfet_01v8_hvt L=150000U W=1000000U AS=142225000000P
+ AD=260000000000P PS=1335000U PD=2520000U
* device instance $5 r0 *1 0.47,2.275 pfet_01v8_hvt
M$5 4 5 9 1 pfet_01v8_hvt L=150000U W=420000U AS=109200000000P AD=108700000000P
+ PS=1360000U PD=1360000U
* device instance $6 r0 *1 1.405,0.475 nfet_01v8
M$6 12 4 6 10 nfet_01v8 L=150000U W=420000U AS=107825000000P AD=44100000000P
+ PS=1360000U PD=630000U
* device instance $7 r0 *1 1.765,0.475 nfet_01v8
M$7 11 3 12 10 nfet_01v8 L=150000U W=420000U AS=44100000000P AD=53550000000P
+ PS=630000U PD=675000U
* device instance $8 r0 *1 2.17,0.475 nfet_01v8
M$8 11 2 8 10 nfet_01v8 L=150000U W=420000U AS=122275000000P AD=53550000000P
+ PS=1080000U PD=675000U
* device instance $9 r0 *1 2.75,0.56 nfet_01v8
M$9 7 6 8 10 nfet_01v8 L=150000U W=650000U AS=122275000000P AD=169000000000P
+ PS=1080000U PD=1820000U
* device instance $10 r0 *1 0.47,0.675 nfet_01v8
M$10 4 5 8 10 nfet_01v8 L=150000U W=420000U AS=109200000000P AD=107850000000P
+ PS=1360000U PD=1360000U
.ENDS sky130_fd_sc_hd__and3b_1

* cell sky130_fd_sc_hd__o311a_1
* pin VGND
* pin X
* pin A1
* pin A2
* pin A3
* pin B1
* pin C1
* pin VPWR
* pin VPB
* pin 
.SUBCKT sky130_fd_sc_hd__o311a_1 1 2 5 6 7 8 9 11 12 15
* net 1 VGND
* net 2 X
* net 5 A1
* net 6 A2
* net 7 A3
* net 8 B1
* net 9 C1
* net 11 VPWR
* net 12 VPB
* device instance $1 r0 *1 0.48,1.985 pfet_01v8_hvt
M$1 11 4 2 12 pfet_01v8_hvt L=150000U W=1000000U AS=260000000000P
+ AD=312500000000P PS=2520000U PD=1625000U
* device instance $2 r0 *1 1.255,1.985 pfet_01v8_hvt
M$2 14 5 11 12 pfet_01v8_hvt L=150000U W=1000000U AS=312500000000P
+ AD=180000000000P PS=1625000U PD=1360000U
* device instance $3 r0 *1 1.765,1.985 pfet_01v8_hvt
M$3 13 6 14 12 pfet_01v8_hvt L=150000U W=1000000U AS=180000000000P
+ AD=210000000000P PS=1360000U PD=1420000U
* device instance $4 r0 *1 2.335,1.985 pfet_01v8_hvt
M$4 4 7 13 12 pfet_01v8_hvt L=150000U W=1000000U AS=210000000000P
+ AD=137500000000P PS=1420000U PD=1275000U
* device instance $5 r0 *1 2.76,1.985 pfet_01v8_hvt
M$5 11 8 4 12 pfet_01v8_hvt L=150000U W=1000000U AS=137500000000P
+ AD=150000000000P PS=1275000U PD=1300000U
* device instance $6 r0 *1 3.21,1.985 pfet_01v8_hvt
M$6 4 9 11 12 pfet_01v8_hvt L=150000U W=1000000U AS=150000000000P
+ AD=260000000000P PS=1300000U PD=2520000U
* device instance $7 r0 *1 0.48,0.56 nfet_01v8
M$7 1 4 2 15 nfet_01v8 L=150000U W=650000U AS=169000000000P AD=203125000000P
+ PS=1820000U PD=1275000U
* device instance $8 r0 *1 1.255,0.56 nfet_01v8
M$8 3 5 1 15 nfet_01v8 L=150000U W=650000U AS=203125000000P AD=117000000000P
+ PS=1275000U PD=1010000U
* device instance $9 r0 *1 1.765,0.56 nfet_01v8
M$9 1 6 3 15 nfet_01v8 L=150000U W=650000U AS=117000000000P AD=136500000000P
+ PS=1010000U PD=1070000U
* device instance $10 r0 *1 2.335,0.56 nfet_01v8
M$10 3 7 1 15 nfet_01v8 L=150000U W=650000U AS=136500000000P AD=118625000000P
+ PS=1070000U PD=1015000U
* device instance $11 r0 *1 2.85,0.56 nfet_01v8
M$11 10 8 3 15 nfet_01v8 L=150000U W=650000U AS=118625000000P AD=68250000000P
+ PS=1015000U PD=860000U
* device instance $12 r0 *1 3.21,0.56 nfet_01v8
M$12 4 9 10 15 nfet_01v8 L=150000U W=650000U AS=68250000000P AD=169000000000P
+ PS=860000U PD=1820000U
.ENDS sky130_fd_sc_hd__o311a_1

* cell sky130_fd_sc_hd__clkinv_2
* pin VPB
* pin A
* pin Y
* pin VPWR
* pin VGND
* pin 
.SUBCKT sky130_fd_sc_hd__clkinv_2 1 2 3 4 5 6
* net 1 VPB
* net 2 A
* net 3 Y
* net 4 VPWR
* net 5 VGND
* device instance $1 r0 *1 0.495,1.985 pfet_01v8_hvt
M$1 4 2 3 1 pfet_01v8_hvt L=150000U W=3000000U AS=545000000000P
+ AD=545000000000P PS=5090000U PD=5090000U
* device instance $4 r0 *1 0.94,0.445 nfet_01v8
M$4 3 2 5 6 nfet_01v8 L=150000U W=840000U AS=170100000000P AD=168000000000P
+ PS=2070000U PD=2060000U
.ENDS sky130_fd_sc_hd__clkinv_2

* cell sky130_fd_sc_hd__mux2i_1
* pin VGND
* pin Y
* pin A0
* pin A1
* pin S
* pin VPWR
* pin VPB
* pin 
.SUBCKT sky130_fd_sc_hd__mux2i_1 1 3 6 7 8 10 11 13
* net 1 VGND
* net 3 Y
* net 6 A0
* net 7 A1
* net 8 S
* net 10 VPWR
* net 11 VPB
* device instance $1 r0 *1 3.21,1.985 pfet_01v8_hvt
M$1 10 8 5 11 pfet_01v8_hvt L=150000U W=1000000U AS=290000000000P
+ AD=260000000000P PS=2580000U PD=2520000U
* device instance $2 r0 *1 0.49,1.985 pfet_01v8_hvt
M$2 3 6 9 11 pfet_01v8_hvt L=150000U W=1000000U AS=280000000000P
+ AD=152500000000P PS=2560000U PD=1305000U
* device instance $3 r0 *1 0.945,1.985 pfet_01v8_hvt
M$3 12 7 3 11 pfet_01v8_hvt L=150000U W=1000000U AS=152500000000P
+ AD=197500000000P PS=1305000U PD=1395000U
* device instance $4 r0 *1 1.49,1.985 pfet_01v8_hvt
M$4 10 5 12 11 pfet_01v8_hvt L=150000U W=1000000U AS=197500000000P
+ AD=300000000000P PS=1395000U PD=1600000U
* device instance $5 r0 *1 2.24,1.985 pfet_01v8_hvt
M$5 9 8 10 11 pfet_01v8_hvt L=150000U W=1000000U AS=300000000000P
+ AD=260000000000P PS=1600000U PD=2520000U
* device instance $6 r0 *1 3.21,0.56 nfet_01v8
M$6 1 8 5 13 nfet_01v8 L=150000U W=650000U AS=169000000000P AD=169000000000P
+ PS=1820000U PD=1820000U
* device instance $7 r0 *1 1.85,0.56 nfet_01v8
M$7 1 5 2 13 nfet_01v8 L=150000U W=650000U AS=169000000000P AD=87750000000P
+ PS=1820000U PD=920000U
* device instance $8 r0 *1 2.27,0.56 nfet_01v8
M$8 4 8 1 13 nfet_01v8 L=150000U W=650000U AS=87750000000P AD=169000000000P
+ PS=920000U PD=1820000U
* device instance $9 r0 *1 0.47,0.56 nfet_01v8
M$9 3 6 2 13 nfet_01v8 L=150000U W=650000U AS=169000000000P AD=87750000000P
+ PS=1820000U PD=920000U
* device instance $10 r0 *1 0.89,0.56 nfet_01v8
M$10 4 7 3 13 nfet_01v8 L=150000U W=650000U AS=87750000000P AD=182000000000P
+ PS=920000U PD=1860000U
.ENDS sky130_fd_sc_hd__mux2i_1

* cell sky130_fd_sc_hd__nor2_1
* pin VPB
* pin A
* pin B
* pin Y
* pin VGND
* pin VPWR
* pin 
.SUBCKT sky130_fd_sc_hd__nor2_1 1 2 3 4 5 6 7
* net 1 VPB
* net 2 A
* net 3 B
* net 4 Y
* net 5 VGND
* net 6 VPWR
* device instance $1 r0 *1 0.47,1.985 pfet_01v8_hvt
M$1 8 3 4 1 pfet_01v8_hvt L=150000U W=1000000U AS=260000000000P
+ AD=105000000000P PS=2520000U PD=1210000U
* device instance $2 r0 *1 0.83,1.985 pfet_01v8_hvt
M$2 6 2 8 1 pfet_01v8_hvt L=150000U W=1000000U AS=105000000000P
+ AD=260000000000P PS=1210000U PD=2520000U
* device instance $3 r0 *1 0.47,0.56 nfet_01v8
M$3 4 3 5 7 nfet_01v8 L=150000U W=650000U AS=169000000000P AD=87750000000P
+ PS=1820000U PD=920000U
* device instance $4 r0 *1 0.89,0.56 nfet_01v8
M$4 5 2 4 7 nfet_01v8 L=150000U W=650000U AS=87750000000P AD=169000000000P
+ PS=920000U PD=1820000U
.ENDS sky130_fd_sc_hd__nor2_1

* cell sky130_fd_sc_hd__nand2b_1
* pin VPB
* pin B
* pin A_N
* pin Y
* pin VGND
* pin VPWR
* pin 
.SUBCKT sky130_fd_sc_hd__nand2b_1 1 2 4 5 6 7 8
* net 1 VPB
* net 2 B
* net 4 A_N
* net 5 Y
* net 6 VGND
* net 7 VPWR
* device instance $1 r0 *1 0.47,1.695 pfet_01v8_hvt
M$1 7 4 3 1 pfet_01v8_hvt L=150000U W=420000U AS=109200000000P AD=145750000000P
+ PS=1360000U PD=1335000U
* device instance $2 r0 *1 0.955,1.985 pfet_01v8_hvt
M$2 5 2 7 1 pfet_01v8_hvt L=150000U W=1000000U AS=145750000000P
+ AD=135000000000P PS=1335000U PD=1270000U
* device instance $3 r0 *1 1.375,1.985 pfet_01v8_hvt
M$3 7 3 5 1 pfet_01v8_hvt L=150000U W=1000000U AS=135000000000P
+ AD=265000000000P PS=1270000U PD=2530000U
* device instance $4 r0 *1 0.47,0.675 nfet_01v8
M$4 3 4 6 8 nfet_01v8 L=150000U W=420000U AS=100250000000P AD=109200000000P
+ PS=985000U PD=1360000U
* device instance $5 r0 *1 0.955,0.56 nfet_01v8
M$5 9 2 6 8 nfet_01v8 L=150000U W=650000U AS=100250000000P AD=87750000000P
+ PS=985000U PD=920000U
* device instance $6 r0 *1 1.375,0.56 nfet_01v8
M$6 5 3 9 8 nfet_01v8 L=150000U W=650000U AS=87750000000P AD=169000000000P
+ PS=920000U PD=1820000U
.ENDS sky130_fd_sc_hd__nand2b_1

* cell sky130_fd_sc_hd__a21bo_1
* pin VGND
* pin B1_N
* pin X
* pin A1
* pin A2
* pin VPWR
* pin VPB
* pin 
.SUBCKT sky130_fd_sc_hd__a21bo_1 1 2 5 6 7 9 11 12
* net 1 VGND
* net 2 B1_N
* net 5 X
* net 6 A1
* net 7 A2
* net 9 VPWR
* net 11 VPB
* device instance $1 r0 *1 1.415,1.985 pfet_01v8_hvt
M$1 10 3 4 11 pfet_01v8_hvt L=150000U W=1000000U AS=265000000000P
+ AD=135000000000P PS=2530000U PD=1270000U
* device instance $2 r0 *1 1.835,1.985 pfet_01v8_hvt
M$2 9 6 10 11 pfet_01v8_hvt L=150000U W=1000000U AS=135000000000P
+ AD=140000000000P PS=1270000U PD=1280000U
* device instance $3 r0 *1 2.265,1.985 pfet_01v8_hvt
M$3 10 7 9 11 pfet_01v8_hvt L=150000U W=1000000U AS=140000000000P
+ AD=265000000000P PS=1280000U PD=2530000U
* device instance $4 r0 *1 3.21,1.985 pfet_01v8_hvt
M$4 5 4 9 11 pfet_01v8_hvt L=150000U W=1000000U AS=260000000000P
+ AD=260000000000P PS=2520000U PD=2520000U
* device instance $5 r0 *1 0.47,2.275 pfet_01v8_hvt
M$5 9 2 3 11 pfet_01v8_hvt L=150000U W=420000U AS=109200000000P
+ AD=109200000000P PS=1360000U PD=1360000U
* device instance $6 r0 *1 0.815,0.445 nfet_01v8
M$6 1 2 3 12 nfet_01v8 L=150000U W=420000U AS=111300000000P AD=135900000000P
+ PS=1370000U PD=1100000U
* device instance $7 r0 *1 1.415,0.56 nfet_01v8
M$7 4 3 1 12 nfet_01v8 L=150000U W=650000U AS=135900000000P AD=87750000000P
+ PS=1100000U PD=920000U
* device instance $8 r0 *1 1.835,0.56 nfet_01v8
M$8 8 6 4 12 nfet_01v8 L=150000U W=650000U AS=87750000000P AD=91000000000P
+ PS=920000U PD=930000U
* device instance $9 r0 *1 2.265,0.56 nfet_01v8
M$9 1 7 8 12 nfet_01v8 L=150000U W=650000U AS=91000000000P AD=258375000000P
+ PS=930000U PD=1445000U
* device instance $10 r0 *1 3.21,0.56 nfet_01v8
M$10 5 4 1 12 nfet_01v8 L=150000U W=650000U AS=258375000000P AD=169000000000P
+ PS=1445000U PD=1820000U
.ENDS sky130_fd_sc_hd__a21bo_1

* cell sky130_fd_sc_hd__clkbuf_2
* pin VPB
* pin A
* pin VPWR
* pin VGND
* pin X
* pin 
.SUBCKT sky130_fd_sc_hd__clkbuf_2 1 2 3 4 6 7
* net 1 VPB
* net 2 A
* net 3 VPWR
* net 4 VGND
* net 6 X
* device instance $1 r0 *1 0.475,1.985 pfet_01v8_hvt
M$1 3 2 5 1 pfet_01v8_hvt L=150000U W=1000000U AS=265000000000P
+ AD=162500000000P PS=2530000U PD=1325000U
* device instance $2 r0 *1 0.95,1.985 pfet_01v8_hvt
M$2 6 5 3 1 pfet_01v8_hvt L=150000U W=2000000U AS=297500000000P
+ AD=395000000000P PS=2595000U PD=3790000U
* device instance $4 r0 *1 0.475,0.445 nfet_01v8
M$4 4 2 5 7 nfet_01v8 L=150000U W=420000U AS=111300000000P AD=68250000000P
+ PS=1370000U PD=745000U
* device instance $5 r0 *1 0.95,0.445 nfet_01v8
M$5 6 5 4 7 nfet_01v8 L=150000U W=840000U AS=124950000000P AD=165900000000P
+ PS=1435000U PD=2050000U
.ENDS sky130_fd_sc_hd__clkbuf_2

* cell sky130_fd_sc_hd__buf_2
* pin VPB
* pin A
* pin VGND
* pin X
* pin VPWR
* pin 
.SUBCKT sky130_fd_sc_hd__buf_2 1 3 4 5 6 7
* net 1 VPB
* net 3 A
* net 4 VGND
* net 5 X
* net 6 VPWR
* device instance $1 r0 *1 0.47,2.125 pfet_01v8_hvt
M$1 2 3 6 1 pfet_01v8_hvt L=150000U W=640000U AS=149000000000P AD=166400000000P
+ PS=1325000U PD=1800000U
* device instance $2 r0 *1 0.945,1.985 pfet_01v8_hvt
M$2 5 2 6 1 pfet_01v8_hvt L=150000U W=2000000U AS=284000000000P
+ AD=400000000000P PS=2595000U PD=3800000U
* device instance $4 r0 *1 0.47,0.445 nfet_01v8
M$4 4 3 2 7 nfet_01v8 L=150000U W=420000U AS=109200000000P AD=97000000000P
+ PS=1360000U PD=975000U
* device instance $5 r0 *1 0.945,0.56 nfet_01v8
M$5 5 2 4 7 nfet_01v8 L=150000U W=1300000U AS=184750000000P AD=260000000000P
+ PS=1895000U PD=2750000U
.ENDS sky130_fd_sc_hd__buf_2

* cell sky130_fd_sc_hd__dfrtp_1
* pin VGND
* pin RESET_B
* pin Q
* pin CLK
* pin D
* pin VPWR
* pin VPB
* pin 
.SUBCKT sky130_fd_sc_hd__dfrtp_1 1 6 9 14 15 17 18 21
* net 1 VGND
* net 6 RESET_B
* net 9 Q
* net 14 CLK
* net 15 D
* net 17 VPWR
* net 18 VPB
* device instance $1 r0 *1 8.73,1.985 pfet_01v8_hvt
M$1 9 8 17 18 pfet_01v8_hvt L=150000U W=1000000U AS=301200000000P
+ AD=260000000000P PS=2660000U PD=2520000U
* device instance $2 r0 *1 5.35,2.065 pfet_01v8_hvt
M$2 16 5 17 18 pfet_01v8_hvt L=150000U W=840000U AS=218400000000P
+ AD=129150000000P PS=2200000U PD=1185000U
* device instance $3 r0 *1 5.845,2.275 pfet_01v8_hvt
M$3 7 2 16 18 pfet_01v8_hvt L=150000U W=420000U AS=129150000000P
+ AD=58800000000P PS=1185000U PD=700000U
* device instance $4 r0 *1 6.275,2.275 pfet_01v8_hvt
M$4 20 3 7 18 pfet_01v8_hvt L=150000U W=420000U AS=58800000000P AD=56700000000P
+ PS=700000U PD=690000U
* device instance $5 r0 *1 6.695,2.275 pfet_01v8_hvt
M$5 17 8 20 18 pfet_01v8_hvt L=150000U W=420000U AS=56700000000P
+ AD=81900000000P PS=690000U PD=810000U
* device instance $6 r0 *1 7.235,2.275 pfet_01v8_hvt
M$6 8 6 17 18 pfet_01v8_hvt L=150000U W=420000U AS=81900000000P AD=56700000000P
+ PS=810000U PD=690000U
* device instance $7 r0 *1 7.655,2.275 pfet_01v8_hvt
M$7 17 7 8 18 pfet_01v8_hvt L=150000U W=420000U AS=56700000000P
+ AD=113400000000P PS=690000U PD=1380000U
* device instance $8 r0 *1 2.225,2.275 pfet_01v8_hvt
M$8 4 15 17 18 pfet_01v8_hvt L=150000U W=420000U AS=109200000000P
+ AD=65100000000P PS=1360000U PD=730000U
* device instance $9 r0 *1 2.685,2.275 pfet_01v8_hvt
M$9 5 3 4 18 pfet_01v8_hvt L=150000U W=420000U AS=65100000000P AD=72450000000P
+ PS=730000U PD=765000U
* device instance $10 r0 *1 3.18,2.275 pfet_01v8_hvt
M$10 19 2 5 18 pfet_01v8_hvt L=150000U W=420000U AS=72450000000P
+ AD=115500000000P PS=765000U PD=970000U
* device instance $11 r0 *1 3.88,2.275 pfet_01v8_hvt
M$11 17 16 19 18 pfet_01v8_hvt L=150000U W=420000U AS=115500000000P
+ AD=70350000000P PS=970000U PD=755000U
* device instance $12 r0 *1 4.365,2.275 pfet_01v8_hvt
M$12 19 6 17 18 pfet_01v8_hvt L=150000U W=420000U AS=70350000000P
+ AD=109200000000P PS=755000U PD=1360000U
* device instance $13 r0 *1 0.47,2.135 pfet_01v8_hvt
M$13 17 14 2 18 pfet_01v8_hvt L=150000U W=640000U AS=166400000000P
+ AD=86400000000P PS=1800000U PD=910000U
* device instance $14 r0 *1 0.89,2.135 pfet_01v8_hvt
M$14 3 2 17 18 pfet_01v8_hvt L=150000U W=640000U AS=86400000000P
+ AD=166400000000P PS=910000U PD=1800000U
* device instance $15 r0 *1 8.73,0.56 nfet_01v8
M$15 9 8 1 21 nfet_01v8 L=150000U W=650000U AS=208700000000P AD=169000000000P
+ PS=2020000U PD=1820000U
* device instance $16 r0 *1 0.47,0.445 nfet_01v8
M$16 1 14 2 21 nfet_01v8 L=150000U W=420000U AS=109200000000P AD=56700000000P
+ PS=1360000U PD=690000U
* device instance $17 r0 *1 0.89,0.445 nfet_01v8
M$17 3 2 1 21 nfet_01v8 L=150000U W=420000U AS=56700000000P AD=109200000000P
+ PS=690000U PD=1360000U
* device instance $18 r0 *1 2.64,0.415 nfet_01v8
M$18 5 2 4 21 nfet_01v8 L=150000U W=360000U AS=66000000000P AD=59400000000P
+ PS=745000U PD=690000U
* device instance $19 r0 *1 3.12,0.415 nfet_01v8
M$19 12 3 5 21 nfet_01v8 L=150000U W=360000U AS=59400000000P AD=140100000000P
+ PS=690000U PD=1100000U
* device instance $20 r0 *1 5.465,0.415 nfet_01v8
M$20 7 3 16 21 nfet_01v8 L=150000U W=360000U AS=99900000000P AD=71100000000P
+ PS=985000U PD=755000U
* device instance $21 r0 *1 6.01,0.415 nfet_01v8
M$21 11 2 7 21 nfet_01v8 L=150000U W=360000U AS=71100000000P AD=66900000000P
+ PS=755000U PD=750000U
* device instance $22 r0 *1 2.165,0.445 nfet_01v8
M$22 4 15 1 21 nfet_01v8 L=150000U W=420000U AS=220500000000P AD=66000000000P
+ PS=1890000U PD=745000U
* device instance $23 r0 *1 3.95,0.445 nfet_01v8
M$23 13 16 12 21 nfet_01v8 L=150000U W=420000U AS=140100000000P AD=44100000000P
+ PS=1100000U PD=630000U
* device instance $24 r0 *1 4.31,0.445 nfet_01v8
M$24 1 6 13 21 nfet_01v8 L=150000U W=420000U AS=44100000000P AD=134600000000P
+ PS=630000U PD=1150000U
* device instance $25 r0 *1 6.49,0.445 nfet_01v8
M$25 1 8 11 21 nfet_01v8 L=150000U W=420000U AS=66900000000P AD=124950000000P
+ PS=750000U PD=1015000U
* device instance $26 r0 *1 7.235,0.445 nfet_01v8
M$26 10 6 1 21 nfet_01v8 L=150000U W=420000U AS=124950000000P AD=64050000000P
+ PS=1015000U PD=725000U
* device instance $27 r0 *1 7.69,0.445 nfet_01v8
M$27 8 7 10 21 nfet_01v8 L=150000U W=420000U AS=64050000000P AD=109200000000P
+ PS=725000U PD=1360000U
* device instance $28 r0 *1 4.97,0.555 nfet_01v8
M$28 16 5 1 21 nfet_01v8 L=150000U W=640000U AS=134600000000P AD=99900000000P
+ PS=1150000U PD=985000U
.ENDS sky130_fd_sc_hd__dfrtp_1

* cell sky130_fd_sc_hd__dfrtp_2
* pin VGND
* pin RESET_B
* pin Q
* pin CLK
* pin D
* pin VPWR
* pin VPB
* pin 
.SUBCKT sky130_fd_sc_hd__dfrtp_2 1 6 9 14 15 17 18 21
* net 1 VGND
* net 6 RESET_B
* net 9 Q
* net 14 CLK
* net 15 D
* net 17 VPWR
* net 18 VPB
* device instance $1 r0 *1 8.73,1.985 pfet_01v8_hvt
M$1 9 8 17 18 pfet_01v8_hvt L=150000U W=2000000U AS=436200000000P
+ AD=395000000000P PS=3930000U PD=3790000U
* device instance $3 r0 *1 5.35,2.065 pfet_01v8_hvt
M$3 16 5 17 18 pfet_01v8_hvt L=150000U W=840000U AS=218400000000P
+ AD=129150000000P PS=2200000U PD=1185000U
* device instance $4 r0 *1 5.845,2.275 pfet_01v8_hvt
M$4 7 2 16 18 pfet_01v8_hvt L=150000U W=420000U AS=129150000000P
+ AD=58800000000P PS=1185000U PD=700000U
* device instance $5 r0 *1 6.275,2.275 pfet_01v8_hvt
M$5 20 3 7 18 pfet_01v8_hvt L=150000U W=420000U AS=58800000000P AD=56700000000P
+ PS=700000U PD=690000U
* device instance $6 r0 *1 6.695,2.275 pfet_01v8_hvt
M$6 17 8 20 18 pfet_01v8_hvt L=150000U W=420000U AS=56700000000P
+ AD=81900000000P PS=690000U PD=810000U
* device instance $7 r0 *1 7.235,2.275 pfet_01v8_hvt
M$7 8 6 17 18 pfet_01v8_hvt L=150000U W=420000U AS=81900000000P AD=56700000000P
+ PS=810000U PD=690000U
* device instance $8 r0 *1 7.655,2.275 pfet_01v8_hvt
M$8 17 7 8 18 pfet_01v8_hvt L=150000U W=420000U AS=56700000000P
+ AD=113400000000P PS=690000U PD=1380000U
* device instance $9 r0 *1 2.225,2.275 pfet_01v8_hvt
M$9 4 15 17 18 pfet_01v8_hvt L=150000U W=420000U AS=109200000000P
+ AD=65100000000P PS=1360000U PD=730000U
* device instance $10 r0 *1 2.685,2.275 pfet_01v8_hvt
M$10 5 3 4 18 pfet_01v8_hvt L=150000U W=420000U AS=65100000000P AD=72450000000P
+ PS=730000U PD=765000U
* device instance $11 r0 *1 3.18,2.275 pfet_01v8_hvt
M$11 19 2 5 18 pfet_01v8_hvt L=150000U W=420000U AS=72450000000P
+ AD=115500000000P PS=765000U PD=970000U
* device instance $12 r0 *1 3.88,2.275 pfet_01v8_hvt
M$12 17 16 19 18 pfet_01v8_hvt L=150000U W=420000U AS=115500000000P
+ AD=70350000000P PS=970000U PD=755000U
* device instance $13 r0 *1 4.365,2.275 pfet_01v8_hvt
M$13 19 6 17 18 pfet_01v8_hvt L=150000U W=420000U AS=70350000000P
+ AD=109200000000P PS=755000U PD=1360000U
* device instance $14 r0 *1 0.47,2.135 pfet_01v8_hvt
M$14 17 14 2 18 pfet_01v8_hvt L=150000U W=640000U AS=166400000000P
+ AD=86400000000P PS=1800000U PD=910000U
* device instance $15 r0 *1 0.89,2.135 pfet_01v8_hvt
M$15 3 2 17 18 pfet_01v8_hvt L=150000U W=640000U AS=86400000000P
+ AD=166400000000P PS=910000U PD=1800000U
* device instance $16 r0 *1 8.73,0.56 nfet_01v8
M$16 9 8 1 21 nfet_01v8 L=150000U W=1300000U AS=296450000000P AD=256750000000P
+ PS=2940000U PD=2740000U
* device instance $18 r0 *1 0.47,0.445 nfet_01v8
M$18 1 14 2 21 nfet_01v8 L=150000U W=420000U AS=109200000000P AD=56700000000P
+ PS=1360000U PD=690000U
* device instance $19 r0 *1 0.89,0.445 nfet_01v8
M$19 3 2 1 21 nfet_01v8 L=150000U W=420000U AS=56700000000P AD=109200000000P
+ PS=690000U PD=1360000U
* device instance $20 r0 *1 2.64,0.415 nfet_01v8
M$20 5 2 4 21 nfet_01v8 L=150000U W=360000U AS=66000000000P AD=59400000000P
+ PS=745000U PD=690000U
* device instance $21 r0 *1 3.12,0.415 nfet_01v8
M$21 11 3 5 21 nfet_01v8 L=150000U W=360000U AS=59400000000P AD=140100000000P
+ PS=690000U PD=1100000U
* device instance $22 r0 *1 5.465,0.415 nfet_01v8
M$22 7 3 16 21 nfet_01v8 L=150000U W=360000U AS=99900000000P AD=71100000000P
+ PS=985000U PD=755000U
* device instance $23 r0 *1 6.01,0.415 nfet_01v8
M$23 12 2 7 21 nfet_01v8 L=150000U W=360000U AS=71100000000P AD=66900000000P
+ PS=755000U PD=750000U
* device instance $24 r0 *1 2.165,0.445 nfet_01v8
M$24 4 15 1 21 nfet_01v8 L=150000U W=420000U AS=220500000000P AD=66000000000P
+ PS=1890000U PD=745000U
* device instance $25 r0 *1 3.95,0.445 nfet_01v8
M$25 13 16 11 21 nfet_01v8 L=150000U W=420000U AS=140100000000P AD=44100000000P
+ PS=1100000U PD=630000U
* device instance $26 r0 *1 4.31,0.445 nfet_01v8
M$26 1 6 13 21 nfet_01v8 L=150000U W=420000U AS=44100000000P AD=134600000000P
+ PS=630000U PD=1150000U
* device instance $27 r0 *1 6.49,0.445 nfet_01v8
M$27 1 8 12 21 nfet_01v8 L=150000U W=420000U AS=66900000000P AD=124950000000P
+ PS=750000U PD=1015000U
* device instance $28 r0 *1 7.235,0.445 nfet_01v8
M$28 10 6 1 21 nfet_01v8 L=150000U W=420000U AS=124950000000P AD=64050000000P
+ PS=1015000U PD=725000U
* device instance $29 r0 *1 7.69,0.445 nfet_01v8
M$29 8 7 10 21 nfet_01v8 L=150000U W=420000U AS=64050000000P AD=109200000000P
+ PS=725000U PD=1360000U
* device instance $30 r0 *1 4.97,0.555 nfet_01v8
M$30 16 5 1 21 nfet_01v8 L=150000U W=640000U AS=134600000000P AD=99900000000P
+ PS=1150000U PD=985000U
.ENDS sky130_fd_sc_hd__dfrtp_2

* cell sky130_fd_sc_hd__clkbuf_1
* pin VPB
* pin A
* pin X
* pin VGND
* pin VPWR
* pin 
.SUBCKT sky130_fd_sc_hd__clkbuf_1 1 3 4 5 6 7
* net 1 VPB
* net 3 A
* net 4 X
* net 5 VGND
* net 6 VPWR
* device instance $1 r0 *1 0.47,2.09 pfet_01v8_hvt
M$1 6 2 4 1 pfet_01v8_hvt L=150000U W=790000U AS=205400000000P AD=114550000000P
+ PS=2100000U PD=1080000U
* device instance $2 r0 *1 0.91,2.09 pfet_01v8_hvt
M$2 2 3 6 1 pfet_01v8_hvt L=150000U W=790000U AS=114550000000P AD=205400000000P
+ PS=1080000U PD=2100000U
* device instance $3 r0 *1 0.47,0.495 nfet_01v8
M$3 5 2 4 7 nfet_01v8 L=150000U W=520000U AS=135200000000P AD=75400000000P
+ PS=1560000U PD=810000U
* device instance $4 r0 *1 0.91,0.495 nfet_01v8
M$4 2 3 5 7 nfet_01v8 L=150000U W=520000U AS=75400000000P AD=135200000000P
+ PS=810000U PD=1560000U
.ENDS sky130_fd_sc_hd__clkbuf_1

* cell sky130_fd_sc_hd__clkbuf_4
* pin VPB
* pin A
* pin VGND
* pin X
* pin VPWR
* pin 
.SUBCKT sky130_fd_sc_hd__clkbuf_4 1 3 4 5 6 7
* net 1 VPB
* net 3 A
* net 4 VGND
* net 5 X
* net 6 VPWR
* device instance $1 r0 *1 0.475,1.985 pfet_01v8_hvt
M$1 6 3 2 1 pfet_01v8_hvt L=150000U W=1000000U AS=265000000000P
+ AD=165000000000P PS=2530000U PD=1330000U
* device instance $2 r0 *1 0.955,1.985 pfet_01v8_hvt
M$2 5 2 6 1 pfet_01v8_hvt L=150000U W=4000000U AS=585000000000P
+ AD=720000000000P PS=5170000U PD=6440000U
* device instance $6 r0 *1 0.475,0.445 nfet_01v8
M$6 4 3 2 7 nfet_01v8 L=150000U W=420000U AS=111300000000P AD=70350000000P
+ PS=1370000U PD=755000U
* device instance $7 r0 *1 0.96,0.445 nfet_01v8
M$7 5 2 4 7 nfet_01v8 L=150000U W=1680000U AS=246750000000P AD=298200000000P
+ PS=2855000U PD=3520000U
.ENDS sky130_fd_sc_hd__clkbuf_4

* cell sky130_fd_sc_hd__ha_1
* pin VGND
* pin SUM
* pin COUT
* pin A
* pin B
* pin VPWR
* pin VPB
* pin 
.SUBCKT sky130_fd_sc_hd__ha_1 1 2 5 8 9 10 11 13
* net 1 VGND
* net 2 SUM
* net 5 COUT
* net 8 A
* net 9 B
* net 10 VPWR
* net 11 VPB
* device instance $1 r0 *1 0.47,1.985 pfet_01v8_hvt
M$1 10 3 2 11 pfet_01v8_hvt L=150000U W=1000000U AS=260000000000P
+ AD=236050000000P PS=2520000U PD=1765000U
* device instance $2 r0 *1 1.385,2.275 pfet_01v8_hvt
M$2 3 7 10 11 pfet_01v8_hvt L=150000U W=420000U AS=236050000000P
+ AD=56700000000P PS=1765000U PD=690000U
* device instance $3 r0 *1 1.805,2.275 pfet_01v8_hvt
M$3 12 9 3 11 pfet_01v8_hvt L=150000U W=420000U AS=56700000000P AD=84000000000P
+ PS=690000U PD=820000U
* device instance $4 r0 *1 2.355,2.275 pfet_01v8_hvt
M$4 10 8 12 11 pfet_01v8_hvt L=150000U W=420000U AS=84000000000P
+ AD=149100000000P PS=820000U PD=1130000U
* device instance $5 r0 *1 3.215,2.275 pfet_01v8_hvt
M$5 7 9 10 11 pfet_01v8_hvt L=150000U W=420000U AS=149100000000P
+ AD=60900000000P PS=1130000U PD=710000U
* device instance $6 r0 *1 3.655,2.275 pfet_01v8_hvt
M$6 7 8 10 11 pfet_01v8_hvt L=150000U W=420000U AS=140750000000P
+ AD=60900000000P PS=1325000U PD=710000U
* device instance $7 r0 *1 4.13,1.985 pfet_01v8_hvt
M$7 5 7 10 11 pfet_01v8_hvt L=150000U W=1000000U AS=140750000000P
+ AD=260000000000P PS=1325000U PD=2520000U