
* cell parameterized_loadable_counter
* pin clk
* pin rst_n
* pin data_in[4]
* pin data_in[1]
* pin count[1]
* pin enable
* pin count[0]
* pin data_in[0]
* pin data_in[2]
* pin count[2]
* pin count[4]
* pin count[3]
* pin data_in[6]
* pin count[6]
* pin count[7]
* pin load
* pin data_in[5]
* pin data_in[3]
* pin count[5]
* pin data_in[7]
.SUBCKT parameterized_loadable_counter 1 2 3 4 5 6 26 27 41 42 47 51 57 62 78
+ 79 81 83 84 85
* net 1 clk
* net 2 rst_n
* net 3 data_in[4]
* net 4 data_in[1]
* net 5 count[1]
* net 6 enable
* net 26 count[0]
* net 27 data_in[0]
* net 41 data_in[2]
* net 42 count[2]
* net 47 count[4]
* net 51 count[3]
* net 57 data_in[6]
* net 62 count[6]
* net 78 count[7]
* net 79 load
* net 81 data_in[5]
* net 83 data_in[3]
* net 84 count[5]
* net 85 data_in[7]
* cell instance $6 r0 *1 46,29.92
X$6 7 1 14 9 9 7 sky130_fd_sc_hd__clkbuf_8
* cell instance $10 r0 *1 31.28,2.72
X$10 9 2 9 11 7 7 sky130_fd_sc_hd__dlygate4sd3_1
* cell instance $13 r0 *1 36.34,2.72
X$13 9 3 8 7 9 7 sky130_fd_sc_hd__clkbuf_1
* cell instance $16 r0 *1 34.96,2.72
X$16 9 4 18 7 9 7 sky130_fd_sc_hd__clkbuf_1
* cell instance $19 r0 *1 43.24,2.72
X$19 9 22 5 7 9 7 sky130_fd_sc_hd__clkbuf_1
* cell instance $22 m0 *1 42.78,19.04
X$22 9 6 9 7 12 7 sky130_fd_sc_hd__buf_4
* cell instance $70 m0 *1 34.5,8.16
X$70 9 11 7 10 9 7 sky130_fd_sc_hd__clkbuf_4
* cell instance $207 r0 *1 34.96,19.04
X$207 9 13 18 19 9 7 7 sky130_fd_sc_hd__nand2_1
* cell instance $208 r0 *1 36.34,19.04
X$208 9 13 20 19 9 21 7 7 sky130_fd_sc_hd__o21ai_0
* cell instance $218 r0 *1 46.46,19.04
X$218 7 14 15 9 9 7 sky130_fd_sc_hd__clkbuf_8
* cell instance $222 r0 *1 56.58,19.04
X$222 7 10 16 15 17 9 9 7 sky130_fd_sc_hd__dfrtp_1
* cell instance $236 m0 *1 35.42,24.48
X$236 7 10 22 15 21 9 9 7 sky130_fd_sc_hd__dfrtp_1
* cell instance $237 m0 *1 44.62,24.48
X$237 7 20 22 28 12 9 9 7 sky130_fd_sc_hd__mux2i_1
* cell instance $241 m0 *1 51.52,24.48
X$241 9 16 12 23 9 7 7 sky130_fd_sc_hd__xnor2_1
* cell instance $242 m0 *1 54.74,24.48
X$242 9 13 23 24 9 17 7 7 sky130_fd_sc_hd__o21ai_0
* cell instance $246 m0 *1 58.42,24.48
X$246 9 13 25 24 9 7 7 sky130_fd_sc_hd__nand2_1
* cell instance $247 m0 *1 59.8,24.48
X$247 9 27 25 7 9 7 sky130_fd_sc_hd__clkbuf_1
* cell instance $249 m0 *1 64.86,24.48
X$249 9 16 26 7 9 7 sky130_fd_sc_hd__clkbuf_1
* cell instance $264 r0 *1 34.04,24.48
X$264 9 13 8 31 9 7 7 sky130_fd_sc_hd__nand2_1
* cell instance $270 r0 *1 45.08,24.48
X$270 7 28 34 16 22 9 9 7 sky130_fd_sc_hd__ha_1
* cell instance $271 r0 *1 49.68,24.48
X$271 7 22 29 16 12 9 33 9 7 sky130_fd_sc_hd__nand4_2
* cell instance $273 r0 *1 55.2,24.48
X$273 7 10 29 15 32 9 9 7 sky130_fd_sc_hd__dfrtp_1
* cell instance $290 m0 *1 34.04,29.92
X$290 9 35 37 31 9 43 7 7 sky130_fd_sc_hd__o21ai_0
* cell instance $292 m0 *1 36.34,29.92
X$292 7 10 49 15 43 9 9 7 sky130_fd_sc_hd__dfrtp_1
* cell instance $295 m0 *1 45.54,29.92
X$295 9 29 12 34 44 9 53 7 7 sky130_fd_sc_hd__nand4_1
* cell instance $296 m0 *1 47.84,29.92
X$296 9 12 34 29 45 9 7 7 sky130_fd_sc_hd__nand3_1
* cell instance $297 m0 *1 49.68,29.92
X$297 9 12 34 39 9 7 7 sky130_fd_sc_hd__nand2_1
* cell instance $299 m0 *1 51.98,29.92
X$299 9 39 29 9 30 7 7 sky130_fd_sc_hd__xor2_1
* cell instance $303 m0 *1 57.04,29.92
X$303 9 35 30 36 9 32 7 7 sky130_fd_sc_hd__o21ai_0
* cell instance $304 m0 *1 58.88,29.92
X$304 9 13 40 36 9 7 7 sky130_fd_sc_hd__nand2_1
* cell instance $306 m0 *1 62.1,29.92
X$306 9 41 40 7 9 7 sky130_fd_sc_hd__clkbuf_1
* cell instance $309 m0 *1 66.24,29.92
X$309 9 29 42 7 9 7 sky130_fd_sc_hd__clkbuf_1
* cell instance $330 r0 *1 51.06,29.92
X$330 9 35 46 45 38 55 9 7 7 sky130_fd_sc_hd__or4_1
* cell instance $333 r0 *1 55.2,29.92
X$333 9 35 46 48 7 9 7 sky130_fd_sc_hd__nor2b_1
* cell instance $334 r0 *1 57.5,29.92
X$334 9 45 38 48 9 50 7 7 sky130_fd_sc_hd__o21ai_0
* cell instance $335 r0 *1 59.34,29.92
X$335 9 44 51 7 9 7 sky130_fd_sc_hd__clkbuf_1
* cell instance $336 r0 *1 60.72,29.92
X$336 9 49 47 7 9 7 sky130_fd_sc_hd__clkbuf_1
* cell instance $352 m0 *1 34.96,35.36
X$352 7 10 44 52 58 9 9 7 sky130_fd_sc_hd__dfrtp_2
* cell instance $355 m0 *1 44.62,35.36
X$355 9 53 49 9 37 7 7 sky130_fd_sc_hd__xor2_1
* cell instance $359 m0 *1 54.28,35.36
X$359 9 54 50 55 64 9 7 7 sky130_fd_sc_hd__nand3_1
* cell instance $379 r0 *1 34.04,35.36
X$379 9 13 63 56 9 7 7 sky130_fd_sc_hd__nand2_1
* cell instance $381 r0 *1 36.34,35.36
X$381 9 35 59 56 9 58 7 7 sky130_fd_sc_hd__o21ai_0
* cell instance $384 r0 *1 39.56,35.36
X$384 9 33 44 9 59 7 7 sky130_fd_sc_hd__xor2_1
* cell instance $388 r0 *1 43.7,35.36
X$388 9 44 49 66 9 7 7 sky130_fd_sc_hd__nand2_1
* cell instance $391 r0 *1 49.68,35.36
X$391 9 44 49 60 38 9 7 7 sky130_fd_sc_hd__nand3_1
* cell instance $392 r0 *1 51.52,35.36
X$392 9 60 44 49 46 9 65 7 7 sky130_fd_sc_hd__nand4_1
* cell instance $394 r0 *1 54.74,35.36
X$394 7 10 46 52 64 9 9 7 sky130_fd_sc_hd__dfrtp_1
* cell instance $395 r0 *1 63.94,35.36
X$395 9 46 62 7 9 7 sky130_fd_sc_hd__clkbuf_1
* cell instance $397 r0 *1 66.24,35.36
X$397 9 57 61 7 9 7 sky130_fd_sc_hd__clkbuf_1
* cell instance $415 m0 *1 38.18,40.8
X$415 9 33 66 75 9 68 7 7 sky130_fd_sc_hd__o21ai_0
* cell instance $416 m0 *1 40.02,40.8
X$416 9 35 60 33 66 70 9 7 7 sky130_fd_sc_hd__or4_1
* cell instance $417 m0 *1 42.78,40.8
X$417 7 10 60 52 71 9 9 7 sky130_fd_sc_hd__dfrtp_1
* cell instance $418 m0 *1 51.98,40.8
X$418 9 33 65 80 9 69 7 7 sky130_fd_sc_hd__o21ai_0
* cell instance $419 m0 *1 53.82,40.8
X$419 9 35 74 33 65 72 9 7 7 sky130_fd_sc_hd__or4_1
* cell instance $423 m0 *1 58.42,40.8
X$423 9 13 61 54 9 7 7 sky130_fd_sc_hd__nand2_1
* cell instance $441 r0 *1 36.34,40.8
X$441 9 13 82 67 9 7 7 sky130_fd_sc_hd__nand2_1
* cell instance $442 r0 *1 37.72,40.8
X$442 9 35 60 75 7 9 7 sky130_fd_sc_hd__nor2b_1
* cell instance $444 r0 *1 40.94,40.8
X$444 9 67 68 70 71 9 7 7 sky130_fd_sc_hd__nand3_1
* cell instance $449 r0 *1 47.84,40.8
X$449 9 13 76 77 9 7 7 sky130_fd_sc_hd__nand2_1
* cell instance $452 r0 *1 50.6,40.8
X$452 9 69 72 77 73 9 7 7 sky130_fd_sc_hd__nand3_1
* cell instance $453 r0 *1 52.44,40.8
X$453 7 10 74 52 73 9 9 7 sky130_fd_sc_hd__dfrtp_1
* cell instance $454 r0 *1 61.64,40.8
X$454 9 35 9 7 13 7 sky130_fd_sc_hd__buf_4
* cell instance $456 r0 *1 64.86,40.8
X$456 9 74 78 7 9 7 sky130_fd_sc_hd__clkbuf_1
* cell instance $478 m0 *1 45.54,46.24
X$478 9 52 86 7 9 7 sky130_fd_sc_hd__clkbuf_1
* cell instance $479 m0 *1 46.92,46.24
X$479 7 14 52 9 9 7 sky130_fd_sc_hd__clkbuf_8
* cell instance $480 m0 *1 51.98,46.24
X$480 9 35 74 80 7 9 7 sky130_fd_sc_hd__nor2b_1
* cell instance $487 m0 *1 62.1,46.24
X$487 9 79 7 35 9 7 sky130_fd_sc_hd__buf_2
* cell instance $625 m0 *1 36.34,62.56
X$625 9 81 82 7 9 7 sky130_fd_sc_hd__clkbuf_1
* cell instance $671 r0 *1 32.66,62.56
X$671 9 83 63 7 9 7 sky130_fd_sc_hd__clkbuf_1
* cell instance $673 r0 *1 37.72,62.56
X$673 9 60 84 7 9 7 sky130_fd_sc_hd__clkbuf_1
* cell instance $681 r0 *1 45.54,62.56
X$681 9 85 76 7 9 7 sky130_fd_sc_hd__clkbuf_1
.ENDS parameterized_loadable_counter

* cell sky130_fd_sc_hd__mux2i_1
* pin VGND
* pin Y
* pin A0
* pin A1
* pin S
* pin VPWR
* pin VPB
* pin 
.SUBCKT sky130_fd_sc_hd__mux2i_1 1 3 6 7 8 10 11 13
* net 1 VGND
* net 3 Y
* net 6 A0
* net 7 A1
* net 8 S
* net 10 VPWR
* net 11 VPB
* device instance $1 r0 *1 3.21,1.985 pfet_01v8_hvt
M$1 10 8 5 11 pfet_01v8_hvt L=150000U W=1000000U AS=290000000000P
+ AD=260000000000P PS=2580000U PD=2520000U
* device instance $2 r0 *1 0.49,1.985 pfet_01v8_hvt
M$2 3 6 9 11 pfet_01v8_hvt L=150000U W=1000000U AS=280000000000P
+ AD=152500000000P PS=2560000U PD=1305000U
* device instance $3 r0 *1 0.945,1.985 pfet_01v8_hvt
M$3 12 7 3 11 pfet_01v8_hvt L=150000U W=1000000U AS=152500000000P
+ AD=197500000000P PS=1305000U PD=1395000U
* device instance $4 r0 *1 1.49,1.985 pfet_01v8_hvt
M$4 10 5 12 11 pfet_01v8_hvt L=150000U W=1000000U AS=197500000000P
+ AD=300000000000P PS=1395000U PD=1600000U
* device instance $5 r0 *1 2.24,1.985 pfet_01v8_hvt
M$5 9 8 10 11 pfet_01v8_hvt L=150000U W=1000000U AS=300000000000P
+ AD=260000000000P PS=1600000U PD=2520000U
* device instance $6 r0 *1 3.21,0.56 nfet_01v8
M$6 1 8 5 13 nfet_01v8 L=150000U W=650000U AS=169000000000P AD=169000000000P
+ PS=1820000U PD=1820000U
* device instance $7 r0 *1 1.85,0.56 nfet_01v8
M$7 1 5 2 13 nfet_01v8 L=150000U W=650000U AS=169000000000P AD=87750000000P
+ PS=1820000U PD=920000U
* device instance $8 r0 *1 2.27,0.56 nfet_01v8
M$8 4 8 1 13 nfet_01v8 L=150000U W=650000U AS=87750000000P AD=169000000000P
+ PS=920000U PD=1820000U
* device instance $9 r0 *1 0.47,0.56 nfet_01v8
M$9 3 6 2 13 nfet_01v8 L=150000U W=650000U AS=169000000000P AD=87750000000P
+ PS=1820000U PD=920000U
* device instance $10 r0 *1 0.89,0.56 nfet_01v8
M$10 4 7 3 13 nfet_01v8 L=150000U W=650000U AS=87750000000P AD=182000000000P
+ PS=920000U PD=1860000U
.ENDS sky130_fd_sc_hd__mux2i_1

* cell sky130_fd_sc_hd__ha_1
* pin VGND
* pin SUM
* pin COUT
* pin A
* pin B
* pin VPWR
* pin VPB
* pin 
.SUBCKT sky130_fd_sc_hd__ha_1 1 2 5 8 9 10 11 13
* net 1 VGND
* net 2 SUM
* net 5 COUT
* net 8 A
* net 9 B
* net 10 VPWR
* net 11 VPB
* device instance $1 r0 *1 0.47,1.985 pfet_01v8_hvt
M$1 10 3 2 11 pfet_01v8_hvt L=150000U W=1000000U AS=260000000000P
+ AD=236050000000P PS=2520000U PD=1765000U
* device instance $2 r0 *1 1.385,2.275 pfet_01v8_hvt
M$2 3 7 10 11 pfet_01v8_hvt L=150000U W=420000U AS=236050000000P
+ AD=56700000000P PS=1765000U PD=690000U
* device instance $3 r0 *1 1.805,2.275 pfet_01v8_hvt
M$3 12 9 3 11 pfet_01v8_hvt L=150000U W=420000U AS=56700000000P AD=84000000000P
+ PS=690000U PD=820000U
* device instance $4 r0 *1 2.355,2.275 pfet_01v8_hvt
M$4 10 8 12 11 pfet_01v8_hvt L=150000U W=420000U AS=84000000000P
+ AD=149100000000P PS=820000U PD=1130000U
* device instance $5 r0 *1 3.215,2.275 pfet_01v8_hvt
M$5 7 9 10 11 pfet_01v8_hvt L=150000U W=420000U AS=149100000000P
+ AD=60900000000P PS=1130000U PD=710000U
* device instance $6 r0 *1 3.655,2.275 pfet_01v8_hvt
M$6 7 8 10 11 pfet_01v8_hvt L=150000U W=420000U AS=140750000000P
+ AD=60900000000P PS=1325000U PD=710000U
* device instance $7 r0 *1 4.13,1.985 pfet_01v8_hvt
M$7 5 7 10 11 pfet_01v8_hvt L=150000U W=1000000U AS=140750000000P
+ AD=260000000000P PS=1325000U PD=2520000U
* device instance $8 r0 *1 3.295,0.445 nfet_01v8
M$8 6 9 7 13 nfet_01v8 L=150000U W=420000U AS=109200000000P AD=44100000000P
+ PS=1360000U PD=630000U
* device instance $9 r0 *1 3.655,0.445 nfet_01v8
M$9 1 8 6 13 nfet_01v8 L=150000U W=420000U AS=44100000000P AD=97000000000P
+ PS=630000U PD=975000U
* device instance $10 r0 *1 4.13,0.56 nfet_01v8
M$10 5 7 1 13 nfet_01v8 L=150000U W=650000U AS=97000000000P AD=169000000000P
+ PS=975000U PD=1820000U
* device instance $11 r0 *1 1.41,0.445 nfet_01v8
M$11 4 7 3 13 nfet_01v8 L=150000U W=420000U AS=109200000000P AD=56700000000P
+ PS=1360000U PD=690000U
* device instance $12 r0 *1 1.83,0.445 nfet_01v8
M$12 1 9 4 13 nfet_01v8 L=150000U W=420000U AS=56700000000P AD=56700000000P
+ PS=690000U PD=690000U
* device instance $13 r0 *1 2.25,0.445 nfet_01v8
M$13 4 8 1 13 nfet_01v8 L=150000U W=420000U AS=56700000000P AD=109200000000P
+ PS=690000U PD=1360000U
* device instance $14 r0 *1 0.47,0.56 nfet_01v8
M$14 1 3 2 13 nfet_01v8 L=150000U W=650000U AS=169000000000P AD=169000000000P
+ PS=1820000U PD=1820000U
.ENDS sky130_fd_sc_hd__ha_1

* cell sky130_fd_sc_hd__xnor2_1
* pin VPB
* pin B
* pin A
* pin Y
* pin VPWR
* pin VGND
* pin 
.SUBCKT sky130_fd_sc_hd__xnor2_1 1 2 3 4 5 7 9
* net 1 VPB
* net 2 B
* net 3 A
* net 4 Y
* net 5 VPWR
* net 7 VGND
* device instance $1 r0 *1 0.51,1.985 pfet_01v8_hvt
M$1 8 2 5 1 pfet_01v8_hvt L=150000U W=1000000U AS=300000000000P
+ AD=135000000000P PS=2600000U PD=1270000U
* device instance $2 r0 *1 0.93,1.985 pfet_01v8_hvt
M$2 5 3 8 1 pfet_01v8_hvt L=150000U W=1000000U AS=135000000000P
+ AD=365000000000P PS=1270000U PD=1730000U
* device instance $3 r0 *1 1.81,1.985 pfet_01v8_hvt
M$3 10 3 5 1 pfet_01v8_hvt L=150000U W=1000000U AS=365000000000P
+ AD=105000000000P PS=1730000U PD=1210000U
* device instance $4 r0 *1 2.17,1.985 pfet_01v8_hvt
M$4 4 2 10 1 pfet_01v8_hvt L=150000U W=1000000U AS=105000000000P
+ AD=165000000000P PS=1210000U PD=1330000U
* device instance $5 r0 *1 2.65,1.985 pfet_01v8_hvt
M$5 5 8 4 1 pfet_01v8_hvt L=150000U W=1000000U AS=165000000000P
+ AD=360000000000P PS=1330000U PD=2720000U
* device instance $6 r0 *1 2.29,0.56 nfet_01v8
M$6 6 2 7 9 nfet_01v8 L=150000U W=650000U AS=169000000000P AD=87750000000P
+ PS=1820000U PD=920000U
* device instance $7 r0 *1 2.71,0.56 nfet_01v8
M$7 4 8 6 9 nfet_01v8 L=150000U W=650000U AS=87750000000P AD=195000000000P
+ PS=920000U PD=1900000U
* device instance $8 r0 *1 0.57,0.56 nfet_01v8
M$8 11 2 8 9 nfet_01v8 L=150000U W=650000U AS=169000000000P AD=68250000000P
+ PS=1820000U PD=860000U
* device instance $9 r0 *1 0.93,0.56 nfet_01v8
M$9 7 3 11 9 nfet_01v8 L=150000U W=650000U AS=68250000000P AD=87750000000P
+ PS=860000U PD=920000U
* device instance $10 r0 *1 1.35,0.56 nfet_01v8
M$10 6 3 7 9 nfet_01v8 L=150000U W=650000U AS=87750000000P AD=169000000000P
+ PS=920000U PD=1820000U
.ENDS sky130_fd_sc_hd__xnor2_1

* cell sky130_fd_sc_hd__nand4_2
* pin VGND
* pin D
* pin C
* pin B
* pin A
* pin VPWR
* pin Y
* pin VPB
* pin 
.SUBCKT sky130_fd_sc_hd__nand4_2 1 5 6 7 8 9 10 11 12
* net 1 VGND
* net 5 D
* net 6 C
* net 7 B
* net 8 A
* net 9 VPWR
* net 10 Y
* net 11 VPB
* device instance $1 r0 *1 0.47,1.985 pfet_01v8_hvt
M$1 10 5 9 11 pfet_01v8_hvt L=150000U W=2000000U AS=395000000000P
+ AD=270000000000P PS=3790000U PD=2540000U
* device instance $3 r0 *1 1.31,1.985 pfet_01v8_hvt
M$3 10 6 9 11 pfet_01v8_hvt L=150000U W=2000000U AS=270000000000P
+ AD=350000000000P PS=2540000U PD=2700000U
* device instance $5 r0 *1 2.31,1.985 pfet_01v8_hvt
M$5 10 7 9 11 pfet_01v8_hvt L=150000U W=2000000U AS=350000000000P
+ AD=470000000000P PS=2700000U PD=2940000U
* device instance $7 r0 *1 3.55,1.985 pfet_01v8_hvt
M$7 10 8 9 11 pfet_01v8_hvt L=150000U W=2000000U AS=470000000000P
+ AD=555000000000P PS=2940000U PD=4110000U
* device instance $9 r0 *1 2.71,0.56 nfet_01v8
M$9 3 7 4 12 nfet_01v8 L=150000U W=1300000U AS=269750000000P AD=175500000000P
+ PS=2780000U PD=1840000U
* device instance $11 r0 *1 3.55,0.56 nfet_01v8
M$11 10 8 4 12 nfet_01v8 L=150000U W=1300000U AS=175500000000P AD=321750000000P
+ PS=1840000U PD=2940000U
* device instance $13 r0 *1 0.47,0.56 nfet_01v8
M$13 1 5 2 12 nfet_01v8 L=150000U W=1300000U AS=256750000000P AD=175500000000P
+ PS=2740000U PD=1840000U
* device instance $15 r0 *1 1.31,0.56 nfet_01v8
M$15 3 6 2 12 nfet_01v8 L=150000U W=1300000U AS=175500000000P AD=269750000000P
+ PS=1840000U PD=2780000U
.ENDS sky130_fd_sc_hd__nand4_2

* cell sky130_fd_sc_hd__buf_4
* pin VPB
* pin A
* pin VPWR
* pin VGND
* pin X
* pin 
.SUBCKT sky130_fd_sc_hd__buf_4 1 3 4 5 6 7
* net 1 VPB
* net 3 A
* net 4 VPWR
* net 5 VGND
* net 6 X
* device instance $1 r0 *1 0.47,1.985 pfet_01v8_hvt
M$1 4 3 2 1 pfet_01v8_hvt L=150000U W=1000000U AS=260000000000P
+ AD=135000000000P PS=2520000U PD=1270000U
* device instance $2 r0 *1 0.89,1.985 pfet_01v8_hvt
M$2 6 2 4 1 pfet_01v8_hvt L=150000U W=4000000U AS=540000000000P
+ AD=665000000000P PS=5080000U PD=6330000U
* device instance $6 r0 *1 0.47,0.56 nfet_01v8
M$6 5 3 2 7 nfet_01v8 L=150000U W=650000U AS=169000000000P AD=87750000000P
+ PS=1820000U PD=920000U
* device instance $7 r0 *1 0.89,0.56 nfet_01v8
M$7 6 2 5 7 nfet_01v8 L=150000U W=2600000U AS=351000000000P AD=432250000000P
+ PS=3680000U PD=4580000U
.ENDS sky130_fd_sc_hd__buf_4

* cell sky130_fd_sc_hd__buf_2
* pin VPB
* pin A
* pin VGND
* pin X
* pin VPWR
* pin 
.SUBCKT sky130_fd_sc_hd__buf_2 1 3 4 5 6 7
* net 1 VPB
* net 3 A
* net 4 VGND
* net 5 X
* net 6 VPWR
* device instance $1 r0 *1 0.47,2.125 pfet_01v8_hvt
M$1 2 3 6 1 pfet_01v8_hvt L=150000U W=640000U AS=149000000000P AD=166400000000P
+ PS=1325000U PD=1800000U
* device instance $2 r0 *1 0.945,1.985 pfet_01v8_hvt
M$2 5 2 6 1 pfet_01v8_hvt L=150000U W=2000000U AS=284000000000P
+ AD=400000000000P PS=2595000U PD=3800000U
* device instance $4 r0 *1 0.47,0.445 nfet_01v8
M$4 4 3 2 7 nfet_01v8 L=150000U W=420000U AS=109200000000P AD=97000000000P
+ PS=1360000U PD=975000U
* device instance $5 r0 *1 0.945,0.56 nfet_01v8
M$5 5 2 4 7 nfet_01v8 L=150000U W=1300000U AS=184750000000P AD=260000000000P
+ PS=1895000U PD=2750000U
.ENDS sky130_fd_sc_hd__buf_2

* cell sky130_fd_sc_hd__nand4_1
* pin VPB
* pin C
* pin A
* pin B
* pin D
* pin VPWR
* pin Y
* pin VGND
* pin 
.SUBCKT sky130_fd_sc_hd__nand4_1 1 2 3 4 5 6 7 8 9
* net 1 VPB
* net 2 C
* net 3 A
* net 4 B
* net 5 D
* net 6 VPWR
* net 7 Y
* net 8 VGND
* device instance $1 r0 *1 0.47,1.985 pfet_01v8_hvt
M$1 7 5 6 1 pfet_01v8_hvt L=150000U W=1000000U AS=260000000000P
+ AD=135000000000P PS=2520000U PD=1270000U
* device instance $2 r0 *1 0.89,1.985 pfet_01v8_hvt
M$2 6 2 7 1 pfet_01v8_hvt L=150000U W=1000000U AS=135000000000P
+ AD=135000000000P PS=1270000U PD=1270000U
* device instance $3 r0 *1 1.31,1.985 pfet_01v8_hvt
M$3 7 4 6 1 pfet_01v8_hvt L=150000U W=1000000U AS=135000000000P
+ AD=165000000000P PS=1270000U PD=1330000U
* device instance $4 r0 *1 1.79,1.985 pfet_01v8_hvt
M$4 6 3 7 1 pfet_01v8_hvt L=150000U W=1000000U AS=165000000000P
+ AD=300000000000P PS=1330000U PD=2600000U
* device instance $5 r0 *1 0.47,0.56 nfet_01v8
M$5 12 5 8 9 nfet_01v8 L=150000U W=650000U AS=169000000000P AD=87750000000P
+ PS=1820000U PD=920000U
* device instance $6 r0 *1 0.89,0.56 nfet_01v8
M$6 11 2 12 9 nfet_01v8 L=150000U W=650000U AS=87750000000P AD=87750000000P
+ PS=920000U PD=920000U
* device instance $7 r0 *1 1.31,0.56 nfet_01v8
M$7 10 4 11 9 nfet_01v8 L=150000U W=650000U AS=87750000000P AD=107250000000P
+ PS=920000U PD=980000U
* device instance $8 r0 *1 1.79,0.56 nfet_01v8
M$8 7 3 10 9 nfet_01v8 L=150000U W=650000U AS=107250000000P AD=195000000000P
+ PS=980000U PD=1900000U
.ENDS sky130_fd_sc_hd__nand4_1

* cell sky130_fd_sc_hd__or4_1
* pin VPB
* pin A
* pin B
* pin C
* pin D
* pin X
* pin VPWR
* pin VGND
* pin 
.SUBCKT sky130_fd_sc_hd__or4_1 1 2 3 4 5 7 8 9 10
* net 1 VPB
* net 2 A
* net 3 B
* net 4 C
* net 5 D
* net 7 X
* net 8 VPWR
* net 9 VGND
* device instance $1 r0 *1 0.47,1.695 pfet_01v8_hvt
M$1 13 5 6 1 pfet_01v8_hvt L=150000U W=420000U AS=109200000000P AD=69300000000P
+ PS=1360000U PD=750000U
* device instance $2 r0 *1 0.95,1.695 pfet_01v8_hvt
M$2 12 4 13 1 pfet_01v8_hvt L=150000U W=420000U AS=69300000000P AD=44100000000P
+ PS=750000U PD=630000U
* device instance $3 r0 *1 1.31,1.695 pfet_01v8_hvt
M$3 11 3 12 1 pfet_01v8_hvt L=150000U W=420000U AS=44100000000P AD=69300000000P
+ PS=630000U PD=750000U
* device instance $4 r0 *1 1.79,1.695 pfet_01v8_hvt
M$4 8 2 11 1 pfet_01v8_hvt L=150000U W=420000U AS=69300000000P AD=148250000000P
+ PS=750000U PD=1340000U
* device instance $5 r0 *1 2.28,1.985 pfet_01v8_hvt
M$5 7 6 8 1 pfet_01v8_hvt L=150000U W=1000000U AS=148250000000P
+ AD=270000000000P PS=1340000U PD=2540000U
* device instance $6 r0 *1 0.47,0.475 nfet_01v8
M$6 6 5 9 10 nfet_01v8 L=150000U W=420000U AS=109200000000P AD=69300000000P
+ PS=1360000U PD=750000U
* device instance $7 r0 *1 0.95,0.475 nfet_01v8
M$7 9 4 6 10 nfet_01v8 L=150000U W=420000U AS=69300000000P AD=56700000000P
+ PS=750000U PD=690000U
* device instance $8 r0 *1 1.37,0.475 nfet_01v8
M$8 6 3 9 10 nfet_01v8 L=150000U W=420000U AS=56700000000P AD=56700000000P
+ PS=690000U PD=690000U
* device instance $9 r0 *1 1.79,0.475 nfet_01v8
M$9 6 2 9 10 nfet_01v8 L=150000U W=420000U AS=101875000000P AD=56700000000P
+ PS=990000U PD=690000U
* device instance $10 r0 *1 2.28,0.56 nfet_01v8
M$10 7 6 9 10 nfet_01v8 L=150000U W=650000U AS=101875000000P AD=175500000000P
+ PS=990000U PD=1840000U
.ENDS sky130_fd_sc_hd__or4_1

* cell sky130_fd_sc_hd__nor2b_1
* pin VPB
* pin A
* pin B_N
* pin Y
* pin VGND
* pin VPWR
* pin 
.SUBCKT sky130_fd_sc_hd__nor2b_1 1 2 3 4 6 7 8
* net 1 VPB
* net 2 A
* net 3 B_N
* net 4 Y
* net 6 VGND
* net 7 VPWR
* device instance $1 r0 *1 0.71,1.695 pfet_01v8_hvt
M$1 7 3 5 1 pfet_01v8_hvt L=150000U W=420000U AS=109200000000P AD=157300000000P
+ PS=1360000U PD=1390000U
* device instance $2 r0 *1 1.25,1.985 pfet_01v8_hvt
M$2 9 2 7 1 pfet_01v8_hvt L=150000U W=1000000U AS=157300000000P
+ AD=105000000000P PS=1390000U PD=1210000U
* device instance $3 r0 *1 1.61,1.985 pfet_01v8_hvt
M$3 4 5 9 1 pfet_01v8_hvt L=150000U W=1000000U AS=105000000000P
+ AD=260000000000P PS=1210000U PD=2520000U
* device instance $4 r0 *1 0.705,0.445 nfet_01v8
M$4 6 3 5 8 nfet_01v8 L=150000U W=420000U AS=109200000000P AD=100250000000P
+ PS=1360000U PD=985000U
* device instance $5 r0 *1 1.19,0.56 nfet_01v8
M$5 4 2 6 8 nfet_01v8 L=150000U W=650000U AS=100250000000P AD=87750000000P
+ PS=985000U PD=920000U
* device instance $6 r0 *1 1.61,0.56 nfet_01v8
M$6 6 5 4 8 nfet_01v8 L=150000U W=650000U AS=87750000000P AD=169000000000P
+ PS=920000U PD=1820000U
.ENDS sky130_fd_sc_hd__nor2b_1

* cell sky130_fd_sc_hd__clkbuf_1
* pin VPB
* pin A
* pin X
* pin VGND
* pin VPWR
* pin 
.SUBCKT sky130_fd_sc_hd__clkbuf_1 1 3 4 5 6 7
* net 1 VPB
* net 3 A
* net 4 X
* net 5 VGND
* net 6 VPWR
* device instance $1 r0 *1 0.47,2.09 pfet_01v8_hvt
M$1 6 2 4 1 pfet_01v8_hvt L=150000U W=790000U AS=205400000000P AD=114550000000P
+ PS=2100000U PD=1080000U
* device instance $2 r0 *1 0.91,2.09 pfet_01v8_hvt
M$2 2 3 6 1 pfet_01v8_hvt L=150000U W=790000U AS=114550000000P AD=205400000000P
+ PS=1080000U PD=2100000U
* device instance $3 r0 *1 0.47,0.495 nfet_01v8
M$3 5 2 4 7 nfet_01v8 L=150000U W=520000U AS=135200000000P AD=75400000000P
+ PS=1560000U PD=810000U
* device instance $4 r0 *1 0.91,0.495 nfet_01v8
M$4 2 3 5 7 nfet_01v8 L=150000U W=520000U AS=75400000000P AD=135200000000P
+ PS=810000U PD=1560000U
.ENDS sky130_fd_sc_hd__clkbuf_1

* cell sky130_fd_sc_hd__dfrtp_1
* pin VGND
* pin RESET_B
* pin Q
* pin CLK
* pin D
* pin VPWR
* pin VPB
* pin 
.SUBCKT sky130_fd_sc_hd__dfrtp_1 1 6 9 14 15 17 18 21
* net 1 VGND
* net 6 RESET_B
* net 9 Q
* net 14 CLK
* net 15 D
* net 17 VPWR
* net 18 VPB
* device instance $1 r0 *1 8.73,1.985 pfet_01v8_hvt
M$1 9 8 17 18 pfet_01v8_hvt L=150000U W=1000000U AS=301200000000P
+ AD=260000000000P PS=2660000U PD=2520000U
* device instance $2 r0 *1 5.35,2.065 pfet_01v8_hvt
M$2 16 5 17 18 pfet_01v8_hvt L=150000U W=840000U AS=218400000000P
+ AD=129150000000P PS=2200000U PD=1185000U
* device instance $3 r0 *1 5.845,2.275 pfet_01v8_hvt
M$3 7 2 16 18 pfet_01v8_hvt L=150000U W=420000U AS=129150000000P
+ AD=58800000000P PS=1185000U PD=700000U
* device instance $4 r0 *1 6.275,2.275 pfet_01v8_hvt
M$4 20 3 7 18 pfet_01v8_hvt L=150000U W=420000U AS=58800000000P AD=56700000000P
+ PS=700000U PD=690000U
* device instance $5 r0 *1 6.695,2.275 pfet_01v8_hvt
M$5 17 8 20 18 pfet_01v8_hvt L=150000U W=420000U AS=56700000000P
+ AD=81900000000P PS=690000U PD=810000U
* device instance $6 r0 *1 7.235,2.275 pfet_01v8_hvt
M$6 8 6 17 18 pfet_01v8_hvt L=150000U W=420000U AS=81900000000P AD=56700000000P
+ PS=810000U PD=690000U
* device instance $7 r0 *1 7.655,2.275 pfet_01v8_hvt
M$7 17 7 8 18 pfet_01v8_hvt L=150000U W=420000U AS=56700000000P
+ AD=113400000000P PS=690000U PD=1380000U
* device instance $8 r0 *1 2.225,2.275 pfet_01v8_hvt
M$8 4 15 17 18 pfet_01v8_hvt L=150000U W=420000U AS=109200000000P
+ AD=65100000000P PS=1360000U PD=730000U
* device instance $9 r0 *1 2.685,2.275 pfet_01v8_hvt
M$9 5 3 4 18 pfet_01v8_hvt L=150000U W=420000U AS=65100000000P AD=72450000000P
+ PS=730000U PD=765000U
* device instance $10 r0 *1 3.18,2.275 pfet_01v8_hvt
M$10 19 2 5 18 pfet_01v8_hvt L=150000U W=420000U AS=72450000000P
+ AD=115500000000P PS=765000U PD=970000U
* device instance $11 r0 *1 3.88,2.275 pfet_01v8_hvt
M$11 17 16 19 18 pfet_01v8_hvt L=150000U W=420000U AS=115500000000P
+ AD=70350000000P PS=970000U PD=755000U
* device instance $12 r0 *1 4.365,2.275 pfet_01v8_hvt
M$12 19 6 17 18 pfet_01v8_hvt L=150000U W=420000U AS=70350000000P
+ AD=109200000000P PS=755000U PD=1360000U
* device instance $13 r0 *1 0.47,2.135 pfet_01v8_hvt
M$13 17 14 2 18 pfet_01v8_hvt L=150000U W=640000U AS=166400000000P
+ AD=86400000000P PS=1800000U PD=910000U
* device instance $14 r0 *1 0.89,2.135 pfet_01v8_hvt
M$14 3 2 17 18 pfet_01v8_hvt L=150000U W=640000U AS=86400000000P
+ AD=166400000000P PS=910000U PD=1800000U
* device instance $15 r0 *1 8.73,0.56 nfet_01v8
M$15 9 8 1 21 nfet_01v8 L=150000U W=650000U AS=208700000000P AD=169000000000P
+ PS=2020000U PD=1820000U
* device instance $16 r0 *1 0.47,0.445 nfet_01v8
M$16 1 14 2 21 nfet_01v8 L=150000U W=420000U AS=109200000000P AD=56700000000P
+ PS=1360000U PD=690000U
* device instance $17 r0 *1 0.89,0.445 nfet_01v8
M$17 3 2 1 21 nfet_01v8 L=150000U W=420000U AS=56700000000P AD=109200000000P
+ PS=690000U PD=1360000U
* device instance $18 r0 *1 2.64,0.415 nfet_01v8
M$18 5 2 4 21 nfet_01v8 L=150000U W=360000U AS=66000000000P AD=59400000000P
+ PS=745000U PD=690000U
* device instance $19 r0 *1 3.12,0.415 nfet_01v8
M$19 12 3 5 21 nfet_01v8 L=150000U W=360000U AS=59400000000P AD=140100000000P
+ PS=690000U PD=1100000U
* device instance $20 r0 *1 5.465,0.415 nfet_01v8
M$20 7 3 16 21 nfet_01v8 L=150000U W=360000U AS=99900000000P AD=71100000000P
+ PS=985000U PD=755000U
* device instance $21 r0 *1 6.01,0.415 nfet_01v8
M$21 11 2 7 21 nfet_01v8 L=150000U W=360000U AS=71100000000P AD=66900000000P
+ PS=755000U PD=750000U
* device instance $22 r0 *1 2.165,0.445 nfet_01v8
M$22 4 15 1 21 nfet_01v8 L=150000U W=420000U AS=220500000000P AD=66000000000P
+ PS=1890000U PD=745000U
* device instance $23 r0 *1 3.95,0.445 nfet_01v8
M$23 13 16 12 21 nfet_01v8 L=150000U W=420000U AS=140100000000P AD=44100000000P
+ PS=1100000U PD=630000U
* device instance $24 r0 *1 4.31,0.445 nfet_01v8
M$24 1 6 13 21 nfet_01v8 L=150000U W=420000U AS=44100000000P AD=134600000000P
+ PS=630000U PD=1150000U
* device instance $25 r0 *1 6.49,0.445 nfet_01v8
M$25 1 8 11 21 nfet_01v8 L=150000U W=420000U AS=66900000000P AD=124950000000P
+ PS=750000U PD=1015000U
* device instance $26 r0 *1 7.235,0.445 nfet_01v8
M$26 10 6 1 21 nfet_01v8 L=150000U W=420000U AS=124950000000P AD=64050000000P
+ PS=1015000U PD=725000U
* device instance $27 r0 *1 7.69,0.445 nfet_01v8
M$27 8 7 10 21 nfet_01v8 L=150000U W=420000U AS=64050000000P AD=109200000000P
+ PS=725000U PD=1360000U
* device instance $28 r0 *1 4.97,0.555 nfet_01v8
M$28 16 5 1 21 nfet_01v8 L=150000U W=640000U AS=134600000000P AD=99900000000P
+ PS=1150000U PD=985000U
.ENDS sky130_fd_sc_hd__dfrtp_1

* cell sky130_fd_sc_hd__clkbuf_8
* pin VGND
* pin A
* pin X
* pin VPWR
* pin VPB
* pin 
.SUBCKT sky130_fd_sc_hd__clkbuf_8 1 2 4 5 6 7
* net 1 VGND
* net 2 A
* net 4 X
* net 5 VPWR
* net 6 VPB
* device instance $1 r0 *1 0.475,1.985 pfet_01v8_hvt
M$1 3 2 5 6 pfet_01v8_hvt L=150000U W=2000000U AS=405000000000P
+ AD=280000000000P PS=3810000U PD=2560000U
* device instance $3 r0 *1 1.335,1.985 pfet_01v8_hvt
M$3 4 3 5 6 pfet_01v8_hvt L=150000U W=8000000U AS=1.12e+12P AD=1.245e+12P
+ PS=10240000U PD=11490000U
* device instance $11 r0 *1 0.475,0.445 nfet_01v8
M$11 3 2 1 7 nfet_01v8 L=150000U W=840000U AS=170100000000P AD=117600000000P
+ PS=2070000U PD=1400000U
* device instance $13 r0 *1 1.335,0.445 nfet_01v8
M$13 4 3 1 7 nfet_01v8 L=150000U W=3360000U AS=470400000000P AD=525000000000P
+ PS=5600000U PD=6280000U
.ENDS sky130_fd_sc_hd__clkbuf_8

* cell sky130_fd_sc_hd__dlygate4sd3_1
* pin VPB
* pin A
* pin VPWR
* pin X
* pin VGND
* pin 
.SUBCKT sky130_fd_sc_hd__dlygate4sd3_1 1 3 5 7 8 9
* net 1 VPB
* net 3 A
* net 5 VPWR
* net 7 X
* net 8 VGND
* device instance $1 r0 *1 2.465,2.275 pfet_01v8_hvt
M$1 6 2 5 1 pfet_01v8_hvt L=500000U W=420000U AS=140750000000P AD=109200000000P
+ PS=1325000U PD=1360000U
* device instance $2 r0 *1 3.115,1.985 pfet_01v8_hvt
M$2 7 6 5 1 pfet_01v8_hvt L=150000U W=1000000U AS=140750000000P
+ AD=260000000000P PS=1325000U PD=2520000U
* device instance $3 r0 *1 0.58,2.275 pfet_01v8_hvt
M$3 5 3 4 1 pfet_01v8_hvt L=150000U W=420000U AS=109200000000P AD=56700000000P
+ PS=1360000U PD=690000U
* device instance $4 r0 *1 1.175,2.275 pfet_01v8_hvt
M$4 2 4 5 1 pfet_01v8_hvt L=500000U W=420000U AS=56700000000P AD=109200000000P
+ PS=690000U PD=1360000U
* device instance $5 r0 *1 2.465,0.445 nfet_01v8
M$5 8 2 6 9 nfet_01v8 L=500000U W=420000U AS=109200000000P AD=97000000000P
+ PS=1360000U PD=975000U
* device instance $6 r0 *1 3.115,0.56 nfet_01v8
M$6 7 6 8 9 nfet_01v8 L=150000U W=650000U AS=97000000000P AD=169000000000P
+ PS=975000U PD=1820000U
* device instance $7 r0 *1 0.58,0.445 nfet_01v8
M$7 8 3 4 9 nfet_01v8 L=150000U W=420000U AS=109200000000P AD=56700000000P
+ PS=1360000U PD=690000U
* device instance $8 r0 *1 1.175,0.445 nfet_01v8
M$8 2 4 8 9 nfet_01v8 L=500000U W=420000U AS=56700000000P AD=109200000000P
+ PS=690000U PD=1360000U
.ENDS sky130_fd_sc_hd__dlygate4sd3_1

* cell sky130_fd_sc_hd__clkbuf_4
* pin VPB
* pin A
* pin VGND
* pin X
* pin VPWR
* pin 
.SUBCKT sky130_fd_sc_hd__clkbuf_4 1 3 4 5 6 7
* net 1 VPB
* net 3 A
* net 4 VGND
* net 5 X
* net 6 VPWR
* device instance $1 r0 *1 0.475,1.985 pfet_01v8_hvt
M$1 6 3 2 1 pfet_01v8_hvt L=150000U W=1000000U AS=265000000000P
+ AD=165000000000P PS=2530000U PD=1330000U
* device instance $2 r0 *1 0.955,1.985 pfet_01v8_hvt
M$2 5 2 6 1 pfet_01v8_hvt L=150000U W=4000000U AS=585000000000P
+ AD=720000000000P PS=5170000U PD=6440000U
* device instance $6 r0 *1 0.475,0.445 nfet_01v8
M$6 4 3 2 7 nfet_01v8 L=150000U W=420000U AS=111300000000P AD=70350000000P
+ PS=1370000U PD=755000U
* device instance $7 r0 *1 0.96,0.445 nfet_01v8
M$7 5 2 4 7 nfet_01v8 L=150000U W=1680000U AS=246750000000P AD=298200000000P
+ PS=2855000U PD=3520000U
.ENDS sky130_fd_sc_hd__clkbuf_4

* cell sky130_fd_sc_hd__dfrtp_2
* pin VGND
* pin RESET_B
* pin Q
* pin CLK
* pin D
* pin VPWR
* pin VPB
* pin 
.SUBCKT sky130_fd_sc_hd__dfrtp_2 1 6 9 14 15 17 18 21
* net 1 VGND
* net 6 RESET_B
* net 9 Q
* net 14 CLK
* net 15 D
* net 17 VPWR
* net 18 VPB
* device instance $1 r0 *1 8.73,1.985 pfet_01v8_hvt
M$1 9 8 17 18 pfet_01v8_hvt L=150000U W=2000000U AS=436200000000P
+ AD=395000000000P PS=3930000U PD=3790000U
* device instance $3 r0 *1 5.35,2.065 pfet_01v8_hvt
M$3 16 5 17 18 pfet_01v8_hvt L=150000U W=840000U AS=218400000000P
+ AD=129150000000P PS=2200000U PD=1185000U
* device instance $4 r0 *1 5.845,2.275 pfet_01v8_hvt