
* cell universal_shift_register
* pin rst_n
* pin parallel_out[4]
* pin parallel_in[3]
* pin parallel_in[4]
* pin parallel_out[3]
* pin parallel_in[0]
* pin parallel_out[0]
* pin parallel_in[7]
* pin parallel_in[6]
* pin parallel_out[7]
* pin enable
* pin parallel_out[6]
* pin load
* pin parallel_out[2]
* pin parallel_in[2]
* pin parallel_out[5]
* pin parallel_in[5]
* pin parallel_in[1]
* pin serial_in_right
* pin parallel_out[1]
* pin clk
* pin direction[1]
* pin direction[0]
.SUBCKT universal_shift_register 1 2 3 4 5 6 7 8 9 30 42 55 79 84 85 89 90 104
+ 108 113 117 123 127
* net 1 rst_n
* net 2 parallel_out[4]
* net 3 parallel_in[3]
* net 4 parallel_in[4]
* net 5 parallel_out[3]
* net 6 parallel_in[0]
* net 7 parallel_out[0]
* net 8 parallel_in[7]
* net 9 parallel_in[6]
* net 30 parallel_out[7]
* net 42 enable
* net 55 parallel_out[6]
* net 79 load
* net 84 parallel_out[2]
* net 85 parallel_in[2]
* net 89 parallel_out[5]
* net 90 parallel_in[5]
* net 104 parallel_in[1]
* net 108 serial_in_right
* net 113 parallel_out[1]
* net 117 clk
* net 123 direction[1]
* net 127 direction[0]
* cell instance $3 m0 *1 31.74,13.6
X$3 15 1 15 18 10 10 sky130_fd_sc_hd__dlygate4sd3_1
* cell instance $6 r0 *1 38.18,2.72
X$6 15 11 2 10 15 10 sky130_fd_sc_hd__clkbuf_1
* cell instance $9 m0 *1 39.1,8.16
X$9 15 3 16 10 15 10 sky130_fd_sc_hd__clkbuf_1
* cell instance $11 r0 *1 39.56,2.72
X$11 15 4 14 10 15 10 sky130_fd_sc_hd__clkbuf_1
* cell instance $14 m0 *1 45.08,8.16
X$14 15 17 5 10 15 10 sky130_fd_sc_hd__clkbuf_1
* cell instance $17 r0 *1 46.92,2.72
X$17 15 6 25 10 15 10 sky130_fd_sc_hd__clkbuf_1
* cell instance $21 r0 *1 51.98,2.72
X$21 15 22 7 10 15 10 sky130_fd_sc_hd__clkbuf_1
* cell instance $24 r0 *1 53.82,2.72
X$24 15 8 13 10 15 10 sky130_fd_sc_hd__clkbuf_1
* cell instance $27 r0 *1 57.5,2.72
X$27 15 9 12 10 15 10 sky130_fd_sc_hd__clkbuf_1
* cell instance $290 r0 *1 31.28,19.04
X$290 15 18 15 10 19 10 sky130_fd_sc_hd__buf_4
* cell instance $295 m0 *1 40.48,24.48
X$295 10 19 17 21 23 15 15 10 sky130_fd_sc_hd__dfrtp_1
* cell instance $356 r0 *1 39.56,24.48
X$356 15 20 16 24 15 10 10 sky130_fd_sc_hd__nand2_1
* cell instance $363 r0 *1 46.92,24.48
X$363 15 20 25 26 15 10 10 sky130_fd_sc_hd__nand2_1
* cell instance $364 r0 *1 48.3,24.48
X$364 10 19 22 21 27 15 15 10 sky130_fd_sc_hd__dfrtp_1
* cell instance $365 r0 *1 57.5,24.48
X$365 15 20 13 38 15 10 10 sky130_fd_sc_hd__nand2_1
* cell instance $396 m0 *1 43.7,29.92
X$396 15 24 64 32 44 10 15 23 10 sky130_fd_sc_hd__a31oi_1
* cell instance $404 m0 *1 58.88,29.92
X$404 15 20 12 57 15 10 10 sky130_fd_sc_hd__nand2_1
* cell instance $405 m0 *1 60.26,29.92
X$405 10 19 29 28 31 15 15 10 sky130_fd_sc_hd__dfrtp_1
* cell instance $409 m0 *1 75.9,29.92
X$409 15 29 30 10 15 10 sky130_fd_sc_hd__clkbuf_1
* cell instance $432 r0 *1 33.58,29.92
X$432 10 19 11 21 43 15 15 10 sky130_fd_sc_hd__dfrtp_1
* cell instance $437 r0 *1 45.54,29.92
X$437 15 17 33 34 10 15 44 10 sky130_fd_sc_hd__a21oi_1
* cell instance $440 r0 *1 50.14,29.92
X$440 15 26 32 102 35 10 15 27 10 sky130_fd_sc_hd__a31oi_1
* cell instance $441 r0 *1 52.44,29.92
X$441 15 22 33 34 10 15 35 10 sky130_fd_sc_hd__a21oi_1
* cell instance $442 r0 *1 54.28,29.92
X$442 15 36 34 32 15 10 10 sky130_fd_sc_hd__and2_1
* cell instance $445 r0 *1 57.96,29.92
X$445 15 38 45 32 37 10 15 31 10 sky130_fd_sc_hd__a31oi_1
* cell instance $448 r0 *1 61.64,29.92
X$448 15 29 36 34 10 15 37 10 sky130_fd_sc_hd__a21oi_1
* cell instance $476 m0 *1 38.64,35.36
X$476 15 50 14 34 33 49 15 10 10 sky130_fd_sc_hd__o211ai_1
* cell instance $477 m0 *1 41.4,35.36
X$477 15 11 51 49 39 15 43 10 10 sky130_fd_sc_hd__o2bb2ai_1
* cell instance $480 m0 *1 44.62,35.36
X$480 15 36 34 51 15 10 10 sky130_fd_sc_hd__nand2_1
* cell instance $481 m0 *1 46,35.36
X$481 15 47 53 94 10 15 39 10 sky130_fd_sc_hd__a21oi_1
* cell instance $482 m0 *1 47.84,35.36
X$482 15 52 17 54 10 15 47 10 sky130_fd_sc_hd__a21o_1
* cell instance $483 m0 *1 50.6,35.36
X$483 15 20 52 22 10 15 46 10 sky130_fd_sc_hd__a21oi_1
* cell instance $484 m0 *1 52.44,35.36
X$484 15 36 10 33 15 10 sky130_fd_sc_hd__buf_2
* cell instance $486 m0 *1 54.74,35.36
X$486 15 52 10 15 53 10 sky130_fd_sc_hd__inv_2
* cell instance $489 m0 *1 57.04,35.36
X$489 15 53 40 101 50 45 15 10 10 sky130_fd_sc_hd__o211ai_1
* cell instance $490 m0 *1 59.8,35.36
X$490 15 57 56 32 48 10 15 41 10 sky130_fd_sc_hd__a31oi_1
* cell instance $491 m0 *1 62.1,35.36
X$491 15 40 33 34 10 15 48 10 sky130_fd_sc_hd__a21oi_1
* cell instance $493 m0 *1 64.4,35.36
X$493 10 19 40 28 41 15 15 10 sky130_fd_sc_hd__dfrtp_1
* cell instance $498 m0 *1 76.36,35.36
X$498 15 42 15 10 36 10 sky130_fd_sc_hd__clkbuf_2
* cell instance $504 m0 *1 85.1,35.36
X$504 15 40 55 10 15 10 sky130_fd_sc_hd__clkbuf_1
* cell instance $521 r0 *1 28.06,35.36
X$521 10 19 58 21 69 15 15 10 sky130_fd_sc_hd__dfrtp_1
* cell instance $523 r0 *1 37.72,35.36
X$523 10 61 21 15 15 10 sky130_fd_sc_hd__clkbuf_8
* cell instance $528 r0 *1 43.24,35.36
X$528 15 52 58 74 10 15 10 sky130_fd_sc_hd__nand2b_1
* cell instance $531 r0 *1 47.84,35.36
X$531 10 73 52 59 75 46 15 15 10 sky130_fd_sc_hd__o31a_1
* cell instance $532 r0 *1 51.06,35.36
X$532 15 54 15 10 50 10 sky130_fd_sc_hd__clkinvlp_4
* cell instance $533 r0 *1 53.82,35.36
X$533 15 53 11 62 50 71 15 10 10 sky130_fd_sc_hd__o211ai_1
* cell instance $534 r0 *1 56.58,35.36
X$534 15 54 10 20 15 10 sky130_fd_sc_hd__clkbuf_4
* cell instance $535 r0 *1 59.34,35.36
X$535 15 67 54 53 59 15 56 10 10 sky130_fd_sc_hd__a211o_1
* cell instance $536 r0 *1 62.56,35.36
X$536 15 20 60 88 15 10 10 sky130_fd_sc_hd__nand2_1
* cell instance $552 m0 *1 3.22,40.8
X$552 15 58 84 10 15 10 sky130_fd_sc_hd__clkbuf_1
* cell instance $563 m0 *1 30.36,40.8
X$563 15 58 51 70 76 15 69 10 10 sky130_fd_sc_hd__o2bb2ai_1
* cell instance $564 m0 *1 33.58,40.8
X$564 15 50 80 34 33 70 15 10 10 sky130_fd_sc_hd__o211ai_1
* cell instance $566 m0 *1 36.8,40.8
X$566 15 63 51 98 73 15 72 10 10 sky130_fd_sc_hd__o2bb2ai_1
* cell instance $568 m0 *1 40.48,40.8
X$568 15 20 52 63 10 15 81 10 sky130_fd_sc_hd__a21oi_1
* cell instance $569 m0 *1 42.32,40.8
X$569 15 52 82 74 50 64 15 10 10 sky130_fd_sc_hd__o211ai_1
* cell instance $570 m0 *1 45.08,40.8
X$570 15 65 77 92 15 10 10 sky130_fd_sc_hd__and2_0
* cell instance $572 m0 *1 49.22,40.8
X$572 15 65 66 83 10 15 10 sky130_fd_sc_hd__nor2b_1
* cell instance $573 m0 *1 51.52,40.8
X$573 15 66 65 75 10 15 10 sky130_fd_sc_hd__nor2b_1
* cell instance $574 m0 *1 53.82,40.8
X$574 15 66 65 78 62 15 10 10 sky130_fd_sc_hd__or3_1
* cell instance $578 m0 *1 57.96,40.8
X$578 10 78 52 15 15 10 sky130_fd_sc_hd__buf_6
* cell instance $579 m0 *1 62.1,40.8
X$579 15 68 33 34 10 15 91 10 sky130_fd_sc_hd__a21oi_1
* cell instance $580 m0 *1 63.94,40.8
X$580 10 19 68 28 99 15 15 10 sky130_fd_sc_hd__dfrtp_1
* cell instance $583 m0 *1 77.74,40.8
X$583 15 90 60 10 15 10 sky130_fd_sc_hd__clkbuf_1
* cell instance $586 m0 *1 80.5,40.8
X$586 15 79 15 10 54 10 sky130_fd_sc_hd__clkbuf_2
* cell instance $592 r0 *1 1.38,40.8
X$592 15 85 80 10 15 10 sky130_fd_sc_hd__clkbuf_1
* cell instance $605 r0 *1 28.98,40.8
X$605 10 19 63 21 72 15 15 10 sky130_fd_sc_hd__dfrtp_1
* cell instance $608 r0 *1 39.56,40.8
X$608 10 76 52 100 92 81 15 15 10 sky130_fd_sc_hd__o31a_1
* cell instance $612 r0 *1 44.16,40.8
X$612 15 93 77 59 10 15 10 sky130_fd_sc_hd__nor2b_1
* cell instance $613 r0 *1 46.46,40.8
X$613 10 117 61 15 15 10 sky130_fd_sc_hd__clkbuf_8
* cell instance $614 r0 *1 51.52,40.8
X$614 10 102 52 103 83 86 50 15 15 10 sky130_fd_sc_hd__o311ai_1
* cell instance $616 r0 *1 55.2,40.8
X$616 15 65 78 87 101 15 10 10 sky130_fd_sc_hd__or3_1
* cell instance $618 r0 *1 57.96,40.8
X$618 15 52 97 86 10 15 10 sky130_fd_sc_hd__nand2b_1
* cell instance $619 r0 *1 60.26,40.8
X$619 15 88 71 32 91 10 15 99 10 sky130_fd_sc_hd__a31oi_1
* cell instance $621 r0 *1 63.02,40.8
X$621 15 68 78 67 10 15 10 sky130_fd_sc_hd__nor2b_1
* cell instance $629 r0 *1 78.2,40.8
X$629 15 68 89 10 15 10 sky130_fd_sc_hd__clkbuf_1
* cell instance $639 m0 *1 1.38,46.24
X$639 15 104 95 10 15 10 sky130_fd_sc_hd__clkbuf_1
* cell instance $652 m0 *1 34.5,46.24
X$652 15 50 95 34 33 98 15 10 10 sky130_fd_sc_hd__o211ai_1
* cell instance $654 m0 *1 40.94,46.24
X$654 15 65 110 100 10 15 10 sky130_fd_sc_hd__nor2_1
* cell instance $655 m0 *1 42.32,46.24
X$655 10 82 87 106 93 15 15 10 sky130_fd_sc_hd__mux2_1
* cell instance $656 m0 *1 46.46,46.24
X$656 10 94 106 112 65 15 15 10 sky130_fd_sc_hd__mux2i_1
* cell instance $658 m0 *1 50.6,46.24
X$658 15 106 65 103 10 15 10 sky130_fd_sc_hd__nor2b_1
* cell instance $661 m0 *1 55.2,46.24
X$661 15 28 137 10 15 10 sky130_fd_sc_hd__clkbuf_1
* cell instance $664 m0 *1 57.5,46.24
X$664 10 61 28 15 15 10 sky130_fd_sc_hd__clkbuf_8
* cell instance $667 m0 *1 63.94,46.24
X$667 15 107 10 34 15 10 sky130_fd_sc_hd__buf_2
* cell instance $668 m0 *1 65.78,46.24
X$668 15 111 54 107 10 15 10 sky130_fd_sc_hd__nand2b_1
* cell instance $669 m0 *1 68.08,46.24
X$669 10 111 78 109 96 15 15 10 sky130_fd_sc_hd__ha_1
* cell instance $673 m0 *1 75.9,46.24
X$673 15 108 97 10 15 10 sky130_fd_sc_hd__clkbuf_1
* cell instance $682 r0 *1 1.38,46.24
X$682 15 63 113 10 15 10 sky130_fd_sc_hd__clkbuf_1
* cell instance $696 r0 *1 35.88,46.24
X$696 10 136 110 105 87 15 15 10 sky130_fd_sc_hd__ha_1
* cell instance $697 r0 *1 40.48,46.24
X$697 15 116 20 105 33 114 10 15 10 sky130_fd_sc_hd__o22ai_1
* cell instance $700 r0 *1 43.24,46.24
X$700 15 106 15 10 105 10 sky130_fd_sc_hd__inv_1
* cell instance $702 r0 *1 45.54,46.24
X$702 10 77 112 105 118 15 15 10 sky130_fd_sc_hd__ha_1
* cell instance $703 r0 *1 50.14,46.24
X$703 10 93 65 15 15 10 sky130_fd_sc_hd__buf_6
* cell instance $713 r0 *1 71.3,46.24
X$713 15 115 15 10 109 10 sky130_fd_sc_hd__inv_1
* cell instance $734 m0 *1 33.58,51.68
X$734 10 19 106 21 114 15 15 10 sky130_fd_sc_hd__dfrtp_1
* cell instance $737 m0 *1 42.78,51.68
X$737 15 77 119 87 120 15 124 10 10 sky130_fd_sc_hd__a22oi_1
* cell instance $739 m0 *1 46.46,51.68
X$739 10 133 66 106 118 15 15 10 sky130_fd_sc_hd__ha_1
* cell instance $741 m0 *1 51.98,51.68
X$741 10 129 121 93 128 15 15 10 sky130_fd_sc_hd__ha_1
* cell instance $743 m0 *1 57.04,51.68
X$743 15 36 122 121 119 10 15 10 sky130_fd_sc_hd__and3b_1
* cell instance $744 m0 *1 60.26,51.68
X$744 15 122 121 120 10 15 10 sky130_fd_sc_hd__nand2b_1
* cell instance $748 m0 *1 68.54,51.68
X$748 10 134 122 115 125 15 15 10 sky130_fd_sc_hd__ha_1
* cell instance $751 m0 *1 73.14,51.68
X$751 15 96 15 10 125 10 sky130_fd_sc_hd__inv_1
* cell instance $755 m0 *1 82.8,51.68
X$755 15 127 115 10 15 10 sky130_fd_sc_hd__clkbuf_1
* cell instance $758 m0 *1 86.48,51.68
X$758 15 123 96 10 15 10 sky130_fd_sc_hd__clkbuf_1
* cell instance $779 r0 *1 43.24,51.68
X$779 10 116 120 119 105 15 15 10 sky130_fd_sc_hd__mux2i_1
* cell instance $780 r0 *1 46.92,51.68
X$780 15 124 20 118 33 130 10 15 10 sky130_fd_sc_hd__o22ai_1
* cell instance $781 r0 *1 49.22,51.68
X$781 15 87 15 10 118 10 sky130_fd_sc_hd__inv_1
* cell instance $782 r0 *1 50.6,51.68
X$782 10 135 128 106 87 15 15 10 sky130_fd_sc_hd__ha_1
* cell instance $784 r0 *1 55.66,51.68
X$784 15 129 119 65 120 15 131 10 10 sky130_fd_sc_hd__a22oi_1
* cell instance $785 r0 *1 58.42,51.68
X$785 15 65 15 10 126 10 sky130_fd_sc_hd__inv_1
* cell instance $786 r0 *1 59.8,51.68
X$786 15 131 20 126 33 132 10 15 10 sky130_fd_sc_hd__o22ai_1
* cell instance $818 m0 *1 46.46,57.12
X$818 10 19 87 28 130 15 15 10 sky130_fd_sc_hd__dfrtp_1
* cell instance $824 m0 *1 60.26,57.12
X$824 10 19 93 28 132 15 15 10 sky130_fd_sc_hd__dfrtp_1
.ENDS universal_shift_register

* cell sky130_fd_sc_hd__clkbuf_4
* pin VPB
* pin A
* pin VGND
* pin X
* pin VPWR
* pin 
.SUBCKT sky130_fd_sc_hd__clkbuf_4 1 3 4 5 6 7
* net 1 VPB
* net 3 A
* net 4 VGND
* net 5 X
* net 6 VPWR
* device instance $1 r0 *1 0.475,1.985 pfet_01v8_hvt
M$1 6 3 2 1 pfet_01v8_hvt L=150000U W=1000000U AS=265000000000P
+ AD=165000000000P PS=2530000U PD=1330000U
* device instance $2 r0 *1 0.955,1.985 pfet_01v8_hvt
M$2 5 2 6 1 pfet_01v8_hvt L=150000U W=4000000U AS=585000000000P
+ AD=720000000000P PS=5170000U PD=6440000U
* device instance $6 r0 *1 0.475,0.445 nfet_01v8
M$6 4 3 2 7 nfet_01v8 L=150000U W=420000U AS=111300000000P AD=70350000000P
+ PS=1370000U PD=755000U
* device instance $7 r0 *1 0.96,0.445 nfet_01v8
M$7 5 2 4 7 nfet_01v8 L=150000U W=1680000U AS=246750000000P AD=298200000000P
+ PS=2855000U PD=3520000U
.ENDS sky130_fd_sc_hd__clkbuf_4

* cell sky130_fd_sc_hd__and2_1
* pin VPB
* pin A
* pin B
* pin X
* pin VPWR
* pin VGND
* pin 
.SUBCKT sky130_fd_sc_hd__and2_1 1 2 3 4 5 7 8
* net 1 VPB
* net 2 A
* net 3 B
* net 4 X
* net 5 VPWR
* net 7 VGND
* device instance $1 r0 *1 0.65,2.065 pfet_01v8_hvt
M$1 6 2 5 1 pfet_01v8_hvt L=150000U W=420000U AS=117600000000P AD=56700000000P
+ PS=1400000U PD=690000U
* device instance $2 r0 *1 1.07,2.065 pfet_01v8_hvt
M$2 6 3 5 1 pfet_01v8_hvt L=150000U W=420000U AS=166550000000P AD=56700000000P
+ PS=1390000U PD=690000U
* device instance $3 r0 *1 1.61,1.985 pfet_01v8_hvt
M$3 4 6 5 1 pfet_01v8_hvt L=150000U W=1000000U AS=166550000000P
+ AD=475000000000P PS=1390000U PD=2950000U
* device instance $4 r0 *1 0.65,0.585 nfet_01v8
M$4 9 2 6 8 nfet_01v8 L=150000U W=420000U AS=117600000000P AD=56700000000P
+ PS=1400000U PD=690000U
* device instance $5 r0 *1 1.07,0.585 nfet_01v8
M$5 9 3 7 8 nfet_01v8 L=150000U W=420000U AS=111800000000P AD=56700000000P
+ PS=1040000U PD=690000U
* device instance $6 r0 *1 1.61,0.56 nfet_01v8
M$6 4 6 7 8 nfet_01v8 L=150000U W=650000U AS=111800000000P AD=182000000000P
+ PS=1040000U PD=1860000U
.ENDS sky130_fd_sc_hd__and2_1

* cell sky130_fd_sc_hd__o311ai_1
* pin VGND
* pin Y
* pin A1
* pin A2
* pin A3
* pin B1
* pin C1
* pin VPWR
* pin VPB
* pin 
.SUBCKT sky130_fd_sc_hd__o311ai_1 1 3 4 5 6 7 8 10 11 14
* net 1 VGND
* net 3 Y
* net 4 A1
* net 5 A2
* net 6 A3
* net 7 B1
* net 8 C1
* net 10 VPWR
* net 11 VPB
* device instance $1 r0 *1 0.615,1.985 pfet_01v8_hvt
M$1 12 4 10 11 pfet_01v8_hvt L=150000U W=1000000U AS=280000000000P
+ AD=135000000000P PS=2560000U PD=1270000U
* device instance $2 r0 *1 1.035,1.985 pfet_01v8_hvt
M$2 13 5 12 11 pfet_01v8_hvt L=150000U W=1000000U AS=135000000000P
+ AD=135000000000P PS=1270000U PD=1270000U
* device instance $3 r0 *1 1.455,1.985 pfet_01v8_hvt
M$3 3 6 13 11 pfet_01v8_hvt L=150000U W=1000000U AS=135000000000P
+ AD=225000000000P PS=1270000U PD=1450000U
* device instance $4 r0 *1 2.055,1.985 pfet_01v8_hvt
M$4 10 7 3 11 pfet_01v8_hvt L=150000U W=1000000U AS=225000000000P
+ AD=185000000000P PS=1450000U PD=1370000U
* device instance $5 r0 *1 2.575,1.985 pfet_01v8_hvt
M$5 3 8 10 11 pfet_01v8_hvt L=150000U W=1000000U AS=185000000000P
+ AD=310000000000P PS=1370000U PD=2620000U
* device instance $6 r0 *1 0.615,0.56 nfet_01v8
M$6 2 4 1 14 nfet_01v8 L=150000U W=650000U AS=182000000000P AD=87750000000P
+ PS=1860000U PD=920000U
* device instance $7 r0 *1 1.035,0.56 nfet_01v8
M$7 1 5 2 14 nfet_01v8 L=150000U W=650000U AS=87750000000P AD=87750000000P
+ PS=920000U PD=920000U
* device instance $8 r0 *1 1.455,0.56 nfet_01v8
M$8 2 6 1 14 nfet_01v8 L=150000U W=650000U AS=87750000000P AD=198250000000P
+ PS=920000U PD=1260000U
* device instance $9 r0 *1 2.215,0.56 nfet_01v8
M$9 9 7 2 14 nfet_01v8 L=150000U W=650000U AS=198250000000P AD=68250000000P
+ PS=1260000U PD=860000U
* device instance $10 r0 *1 2.575,0.56 nfet_01v8
M$10 3 8 9 14 nfet_01v8 L=150000U W=650000U AS=68250000000P AD=182000000000P
+ PS=860000U PD=1860000U
.ENDS sky130_fd_sc_hd__o311ai_1

* cell sky130_fd_sc_hd__clkinvlp_4
* pin VPB
* pin A
* pin VPWR
* pin VGND
* pin Y
* pin 
.SUBCKT sky130_fd_sc_hd__clkinvlp_4 1 2 3 4 5 6
* net 1 VPB
* net 2 A
* net 3 VPWR
* net 4 VGND
* net 5 Y
* device instance $1 r0 *1 0.525,1.985 pfet_01v8_hvt
M$1 5 2 3 1 pfet_01v8_hvt L=250000U W=4000000U AS=685000000000P
+ AD=685000000000P PS=6370000U PD=6370000U
* device instance $5 r0 *1 0.475,0.51 nfet_01v8
M$5 8 2 4 6 nfet_01v8 L=150000U W=550000U AS=145750000000P AD=57750000000P
+ PS=1630000U PD=760000U
* device instance $6 r0 *1 0.835,0.51 nfet_01v8
M$6 5 2 8 6 nfet_01v8 L=150000U W=550000U AS=57750000000P AD=77000000000P
+ PS=760000U PD=830000U
* device instance $7 r0 *1 1.265,0.51 nfet_01v8
M$7 7 2 5 6 nfet_01v8 L=150000U W=550000U AS=77000000000P AD=57750000000P
+ PS=830000U PD=760000U
* device instance $8 r0 *1 1.625,0.51 nfet_01v8
M$8 4 2 7 6 nfet_01v8 L=150000U W=550000U AS=57750000000P AD=145750000000P
+ PS=760000U PD=1630000U
.ENDS sky130_fd_sc_hd__clkinvlp_4

* cell sky130_fd_sc_hd__a211o_1
* pin VPB
* pin B1
* pin C1
* pin A1
* pin A2
* pin VPWR
* pin X
* pin VGND
* pin 
.SUBCKT sky130_fd_sc_hd__a211o_1 1 2 3 4 5 7 8 9 11
* net 1 VPB
* net 2 B1
* net 3 C1
* net 4 A1
* net 5 A2
* net 7 VPWR
* net 8 X
* net 9 VGND
* device instance $1 r0 *1 1.425,1.985 pfet_01v8_hvt
M$1 7 5 10 1 pfet_01v8_hvt L=150000U W=1000000U AS=265000000000P
+ AD=140000000000P PS=2530000U PD=1280000U
* device instance $2 r0 *1 1.855,1.985 pfet_01v8_hvt
M$2 10 4 7 1 pfet_01v8_hvt L=150000U W=1000000U AS=140000000000P
+ AD=140000000000P PS=1280000U PD=1280000U
* device instance $3 r0 *1 2.285,1.985 pfet_01v8_hvt
M$3 12 2 10 1 pfet_01v8_hvt L=150000U W=1000000U AS=140000000000P
+ AD=155000000000P PS=1280000U PD=1310000U
* device instance $4 r0 *1 2.745,1.985 pfet_01v8_hvt
M$4 6 3 12 1 pfet_01v8_hvt L=150000U W=1000000U AS=155000000000P
+ AD=265000000000P PS=1310000U PD=2530000U
* device instance $5 r0 *1 0.475,1.985 pfet_01v8_hvt
M$5 7 6 8 1 pfet_01v8_hvt L=150000U W=1000000U AS=265000000000P
+ AD=265000000000P PS=2530000U PD=2530000U
* device instance $6 r0 *1 0.475,0.56 nfet_01v8
M$6 9 6 8 11 nfet_01v8 L=150000U W=650000U AS=172250000000P AD=260000000000P
+ PS=1830000U PD=1450000U
* device instance $7 r0 *1 1.425,0.56 nfet_01v8
M$7 13 5 9 11 nfet_01v8 L=150000U W=650000U AS=260000000000P AD=91000000000P
+ PS=1450000U PD=930000U
* device instance $8 r0 *1 1.855,0.56 nfet_01v8
M$8 6 4 13 11 nfet_01v8 L=150000U W=650000U AS=91000000000P AD=91000000000P
+ PS=930000U PD=930000U
* device instance $9 r0 *1 2.285,0.56 nfet_01v8
M$9 9 2 6 11 nfet_01v8 L=150000U W=650000U AS=91000000000P AD=100750000000P
+ PS=930000U PD=960000U
* device instance $10 r0 *1 2.745,0.56 nfet_01v8
M$10 6 3 9 11 nfet_01v8 L=150000U W=650000U AS=100750000000P AD=172250000000P
+ PS=960000U PD=1830000U
.ENDS sky130_fd_sc_hd__a211o_1

* cell sky130_fd_sc_hd__or3_1
* pin VPB
* pin A
* pin B
* pin C
* pin X
* pin VPWR
* pin VGND
* pin 
.SUBCKT sky130_fd_sc_hd__or3_1 1 2 3 4 5 6 7 9
* net 1 VPB
* net 2 A
* net 3 B
* net 4 C
* net 5 X
* net 6 VPWR
* net 7 VGND
* device instance $1 r0 *1 0.48,1.695 pfet_01v8_hvt
M$1 11 4 8 1 pfet_01v8_hvt L=150000U W=420000U AS=109200000000P AD=44100000000P
+ PS=1360000U PD=630000U
* device instance $2 r0 *1 0.84,1.695 pfet_01v8_hvt
M$2 10 3 11 1 pfet_01v8_hvt L=150000U W=420000U AS=44100000000P AD=69300000000P
+ PS=630000U PD=750000U
* device instance $3 r0 *1 1.32,1.695 pfet_01v8_hvt
M$3 6 2 10 1 pfet_01v8_hvt L=150000U W=420000U AS=69300000000P AD=148250000000P
+ PS=750000U PD=1340000U
* device instance $4 r0 *1 1.81,1.985 pfet_01v8_hvt
M$4 5 8 6 1 pfet_01v8_hvt L=150000U W=1000000U AS=148250000000P
+ AD=280000000000P PS=1340000U PD=2560000U
* device instance $5 r0 *1 0.48,0.475 nfet_01v8
M$5 7 4 8 9 nfet_01v8 L=150000U W=420000U AS=109200000000P AD=56700000000P
+ PS=1360000U PD=690000U
* device instance $6 r0 *1 0.9,0.475 nfet_01v8
M$6 8 3 7 9 nfet_01v8 L=150000U W=420000U AS=56700000000P AD=56700000000P
+ PS=690000U PD=690000U
* device instance $7 r0 *1 1.32,0.475 nfet_01v8
M$7 8 2 7 9 nfet_01v8 L=150000U W=420000U AS=101875000000P AD=56700000000P
+ PS=990000U PD=690000U
* device instance $8 r0 *1 1.81,0.56 nfet_01v8
M$8 5 8 7 9 nfet_01v8 L=150000U W=650000U AS=101875000000P AD=182000000000P
+ PS=990000U PD=1860000U
.ENDS sky130_fd_sc_hd__or3_1

* cell sky130_fd_sc_hd__a21o_1
* pin VPB
* pin A1
* pin A2
* pin B1
* pin VGND
* pin VPWR
* pin X
* pin 
.SUBCKT sky130_fd_sc_hd__a21o_1 1 2 3 4 5 7 9 10
* net 1 VPB
* net 2 A1
* net 3 A2
* net 4 B1
* net 5 VGND
* net 7 VPWR
* net 9 X
* device instance $1 r0 *1 1.42,1.985 pfet_01v8_hvt
M$1 6 4 8 1 pfet_01v8_hvt L=150000U W=1000000U AS=260000000000P
+ AD=137500000000P PS=2520000U PD=1275000U
* device instance $2 r0 *1 1.845,1.985 pfet_01v8_hvt
M$2 7 2 6 1 pfet_01v8_hvt L=150000U W=1000000U AS=137500000000P
+ AD=140000000000P PS=1275000U PD=1280000U
* device instance $3 r0 *1 2.275,1.985 pfet_01v8_hvt
M$3 6 3 7 1 pfet_01v8_hvt L=150000U W=1000000U AS=140000000000P
+ AD=265000000000P PS=1280000U PD=2530000U
* device instance $4 r0 *1 0.48,1.985 pfet_01v8_hvt
M$4 7 8 9 1 pfet_01v8_hvt L=150000U W=1000000U AS=260000000000P
+ AD=260000000000P PS=2520000U PD=2520000U
* device instance $5 r0 *1 0.48,0.56 nfet_01v8
M$5 5 8 9 10 nfet_01v8 L=150000U W=650000U AS=169000000000P AD=256750000000P
+ PS=1820000U PD=1440000U
* device instance $6 r0 *1 1.42,0.56 nfet_01v8
M$6 8 4 5 10 nfet_01v8 L=150000U W=650000U AS=256750000000P AD=89375000000P
+ PS=1440000U PD=925000U
* device instance $7 r0 *1 1.845,0.56 nfet_01v8
M$7 11 2 8 10 nfet_01v8 L=150000U W=650000U AS=89375000000P AD=91000000000P
+ PS=925000U PD=930000U
* device instance $8 r0 *1 2.275,0.56 nfet_01v8
M$8 5 3 11 10 nfet_01v8 L=150000U W=650000U AS=91000000000P AD=172250000000P
+ PS=930000U PD=1830000U
.ENDS sky130_fd_sc_hd__a21o_1

* cell sky130_fd_sc_hd__inv_2
* pin VPB
* pin A
* pin VGND
* pin VPWR
* pin Y
* pin 
.SUBCKT sky130_fd_sc_hd__inv_2 1 2 3 4 5 6
* net 1 VPB
* net 2 A
* net 3 VGND
* net 4 VPWR
* net 5 Y
* device instance $1 r0 *1 0.48,1.985 pfet_01v8_hvt
M$1 5 2 4 1 pfet_01v8_hvt L=150000U W=2000000U AS=395000000000P
+ AD=395000000000P PS=3790000U PD=3790000U
* device instance $3 r0 *1 0.48,0.56 nfet_01v8
M$3 5 2 3 6 nfet_01v8 L=150000U W=1300000U AS=256750000000P AD=256750000000P
+ PS=2740000U PD=2740000U
.ENDS sky130_fd_sc_hd__inv_2

* cell sky130_fd_sc_hd__clkbuf_2
* pin VPB
* pin A
* pin VPWR
* pin VGND
* pin X
* pin 
.SUBCKT sky130_fd_sc_hd__clkbuf_2 1 2 3 4 6 7
* net 1 VPB
* net 2 A
* net 3 VPWR
* net 4 VGND
* net 6 X
* device instance $1 r0 *1 0.475,1.985 pfet_01v8_hvt
M$1 3 2 5 1 pfet_01v8_hvt L=150000U W=1000000U AS=265000000000P
+ AD=162500000000P PS=2530000U PD=1325000U
* device instance $2 r0 *1 0.95,1.985 pfet_01v8_hvt
M$2 6 5 3 1 pfet_01v8_hvt L=150000U W=2000000U AS=297500000000P
+ AD=395000000000P PS=2595000U PD=3790000U
* device instance $4 r0 *1 0.475,0.445 nfet_01v8
M$4 4 2 5 7 nfet_01v8 L=150000U W=420000U AS=111300000000P AD=68250000000P
+ PS=1370000U PD=745000U
* device instance $5 r0 *1 0.95,0.445 nfet_01v8
M$5 6 5 4 7 nfet_01v8 L=150000U W=840000U AS=124950000000P AD=165900000000P
+ PS=1435000U PD=2050000U
.ENDS sky130_fd_sc_hd__clkbuf_2

* cell sky130_fd_sc_hd__dlygate4sd3_1
* pin VPB
* pin A
* pin VPWR
* pin X
* pin VGND
* pin 
.SUBCKT sky130_fd_sc_hd__dlygate4sd3_1 1 3 5 7 8 9
* net 1 VPB
* net 3 A
* net 5 VPWR
* net 7 X
* net 8 VGND
* device instance $1 r0 *1 2.465,2.275 pfet_01v8_hvt
M$1 6 2 5 1 pfet_01v8_hvt L=500000U W=420000U AS=140750000000P AD=109200000000P
+ PS=1325000U PD=1360000U
* device instance $2 r0 *1 3.115,1.985 pfet_01v8_hvt
M$2 7 6 5 1 pfet_01v8_hvt L=150000U W=1000000U AS=140750000000P
+ AD=260000000000P PS=1325000U PD=2520000U
* device instance $3 r0 *1 0.58,2.275 pfet_01v8_hvt
M$3 5 3 4 1 pfet_01v8_hvt L=150000U W=420000U AS=109200000000P AD=56700000000P
+ PS=1360000U PD=690000U
* device instance $4 r0 *1 1.175,2.275 pfet_01v8_hvt
M$4 2 4 5 1 pfet_01v8_hvt L=500000U W=420000U AS=56700000000P AD=109200000000P
+ PS=690000U PD=1360000U
* device instance $5 r0 *1 2.465,0.445 nfet_01v8
M$5 8 2 6 9 nfet_01v8 L=500000U W=420000U AS=109200000000P AD=97000000000P
+ PS=1360000U PD=975000U
* device instance $6 r0 *1 3.115,0.56 nfet_01v8
M$6 7 6 8 9 nfet_01v8 L=150000U W=650000U AS=97000000000P AD=169000000000P
+ PS=975000U PD=1820000U
* device instance $7 r0 *1 0.58,0.445 nfet_01v8
M$7 8 3 4 9 nfet_01v8 L=150000U W=420000U AS=109200000000P AD=56700000000P
+ PS=1360000U PD=690000U
* device instance $8 r0 *1 1.175,0.445 nfet_01v8
M$8 2 4 8 9 nfet_01v8 L=500000U W=420000U AS=56700000000P AD=109200000000P
+ PS=690000U PD=1360000U
.ENDS sky130_fd_sc_hd__dlygate4sd3_1

* cell sky130_fd_sc_hd__buf_4
* pin VPB
* pin A
* pin VPWR
* pin VGND
* pin X
* pin 
.SUBCKT sky130_fd_sc_hd__buf_4 1 3 4 5 6 7
* net 1 VPB
* net 3 A
* net 4 VPWR
* net 5 VGND
* net 6 X
* device instance $1 r0 *1 0.47,1.985 pfet_01v8_hvt
M$1 4 3 2 1 pfet_01v8_hvt L=150000U W=1000000U AS=260000000000P
+ AD=135000000000P PS=2520000U PD=1270000U
* device instance $2 r0 *1 0.89,1.985 pfet_01v8_hvt
M$2 6 2 4 1 pfet_01v8_hvt L=150000U W=4000000U AS=540000000000P
+ AD=665000000000P PS=5080000U PD=6330000U
* device instance $6 r0 *1 0.47,0.56 nfet_01v8
M$6 5 3 2 7 nfet_01v8 L=150000U W=650000U AS=169000000000P AD=87750000000P
+ PS=1820000U PD=920000U
* device instance $7 r0 *1 0.89,0.56 nfet_01v8
M$7 6 2 5 7 nfet_01v8 L=150000U W=2600000U AS=351000000000P AD=432250000000P
+ PS=3680000U PD=4580000U
.ENDS sky130_fd_sc_hd__buf_4

* cell sky130_fd_sc_hd__o2bb2ai_1
* pin VPB
* pin A1_N
* pin A2_N
* pin B2
* pin B1
* pin VPWR
* pin Y
* pin VGND
* pin 
.SUBCKT sky130_fd_sc_hd__o2bb2ai_1 1 2 3 4 5 6 8 10 11
* net 1 VPB
* net 2 A1_N
* net 3 A2_N
* net 4 B2
* net 5 B1
* net 6 VPWR
* net 8 Y
* net 10 VGND
* device instance $1 r0 *1 0.485,1.985 pfet_01v8_hvt
M$1 7 2 6 1 pfet_01v8_hvt L=150000U W=1000000U AS=275000000000P
+ AD=135000000000P PS=2550000U PD=1270000U
* device instance $2 r0 *1 0.905,1.985 pfet_01v8_hvt
M$2 6 3 7 1 pfet_01v8_hvt L=150000U W=1000000U AS=135000000000P
+ AD=420000000000P PS=1270000U PD=1840000U
* device instance $3 r0 *1 1.895,1.985 pfet_01v8_hvt
M$3 8 7 6 1 pfet_01v8_hvt L=150000U W=1000000U AS=420000000000P
+ AD=135000000000P PS=1840000U PD=1270000U
* device instance $4 r0 *1 2.315,1.985 pfet_01v8_hvt
M$4 12 4 8 1 pfet_01v8_hvt L=150000U W=1000000U AS=135000000000P
+ AD=135000000000P PS=1270000U PD=1270000U
* device instance $5 r0 *1 2.735,1.985 pfet_01v8_hvt
M$5 6 5 12 1 pfet_01v8_hvt L=150000U W=1000000U AS=135000000000P
+ AD=275000000000P PS=1270000U PD=2550000U
* device instance $6 r0 *1 1.895,0.56 nfet_01v8
M$6 9 7 8 11 nfet_01v8 L=150000U W=650000U AS=169000000000P AD=87750000000P
+ PS=1820000U PD=920000U
* device instance $7 r0 *1 2.315,0.56 nfet_01v8
M$7 10 4 9 11 nfet_01v8 L=150000U W=650000U AS=87750000000P AD=87750000000P
+ PS=920000U PD=920000U
* device instance $8 r0 *1 2.735,0.56 nfet_01v8
M$8 9 5 10 11 nfet_01v8 L=150000U W=650000U AS=87750000000P AD=169000000000P
+ PS=920000U PD=1820000U
* device instance $9 r0 *1 0.485,0.56 nfet_01v8
M$9 13 2 10 11 nfet_01v8 L=150000U W=650000U AS=178750000000P AD=68250000000P
+ PS=1850000U PD=860000U
* device instance $10 r0 *1 0.845,0.56 nfet_01v8
M$10 7 3 13 11 nfet_01v8 L=150000U W=650000U AS=68250000000P AD=240500000000P
+ PS=860000U PD=2040000U
.ENDS sky130_fd_sc_hd__o2bb2ai_1

* cell sky130_fd_sc_hd__o31a_1
* pin VGND
* pin X
* pin A1
* pin A2
* pin A3
* pin B1
* pin VPWR
* pin VPB
* pin 
.SUBCKT sky130_fd_sc_hd__o31a_1 1 2 5 6 7 8 9 10 13
* net 1 VGND
* net 2 X
* net 5 A1
* net 6 A2
* net 7 A3
* net 8 B1
* net 9 VPWR
* net 10 VPB
* device instance $1 r0 *1 0.65,1.985 pfet_01v8_hvt
M$1 9 4 2 10 pfet_01v8_hvt L=150000U W=1000000U AS=360000000000P
+ AD=195000000000P PS=2720000U PD=1390000U
* device instance $2 r0 *1 1.19,1.985 pfet_01v8_hvt
M$2 12 5 9 10 pfet_01v8_hvt L=150000U W=1000000U AS=195000000000P
+ AD=135000000000P PS=1390000U PD=1270000U
* device instance $3 r0 *1 1.61,1.985 pfet_01v8_hvt
M$3 11 6 12 10 pfet_01v8_hvt L=150000U W=1000000U AS=135000000000P
+ AD=165000000000P PS=1270000U PD=1330000U
* device instance $4 r0 *1 2.09,1.985 pfet_01v8_hvt
M$4 4 7 11 10 pfet_01v8_hvt L=150000U W=1000000U AS=165000000000P
+ AD=212500000000P PS=1330000U PD=1425000U
* device instance $5 r0 *1 2.665,1.985 pfet_01v8_hvt
M$5 9 8 4 10 pfet_01v8_hvt L=150000U W=1000000U AS=212500000000P
+ AD=345000000000P PS=1425000U PD=2690000U
* device instance $6 r0 *1 0.65,0.56 nfet_01v8
M$6 1 4 2 13 nfet_01v8 L=150000U W=650000U AS=234000000000P AD=126750000000P
+ PS=2020000U PD=1040000U
* device instance $7 r0 *1 1.19,0.56 nfet_01v8
M$7 3 5 1 13 nfet_01v8 L=150000U W=650000U AS=126750000000P AD=87750000000P
+ PS=1040000U PD=920000U
* device instance $8 r0 *1 1.61,0.56 nfet_01v8
M$8 1 6 3 13 nfet_01v8 L=150000U W=650000U AS=87750000000P AD=107250000000P
+ PS=920000U PD=980000U
* device instance $9 r0 *1 2.09,0.56 nfet_01v8
M$9 3 7 1 13 nfet_01v8 L=150000U W=650000U AS=107250000000P AD=107250000000P
+ PS=980000U PD=980000U
* device instance $10 r0 *1 2.57,0.56 nfet_01v8
M$10 4 8 3 13 nfet_01v8 L=150000U W=650000U AS=107250000000P AD=201500000000P
+ PS=980000U PD=1920000U
.ENDS sky130_fd_sc_hd__o31a_1

* cell sky130_fd_sc_hd__a22oi_1
* pin VPB
* pin B2
* pin B1
* pin A1
* pin A2
* pin VPWR
* pin Y
* pin VGND
* pin 
.SUBCKT sky130_fd_sc_hd__a22oi_1 1 2 3 4 5 7 8 9 10
* net 1 VPB
* net 2 B2
* net 3 B1
* net 4 A1
* net 5 A2
* net 7 VPWR
* net 8 Y
* net 9 VGND
* device instance $1 r0 *1 1.83,1.985 pfet_01v8_hvt
M$1 6 4 7 1 pfet_01v8_hvt L=150000U W=1000000U AS=260000000000P
+ AD=135000000000P PS=2520000U PD=1270000U
* device instance $2 r0 *1 2.25,1.985 pfet_01v8_hvt
M$2 7 5 6 1 pfet_01v8_hvt L=150000U W=1000000U AS=135000000000P
+ AD=300000000000P PS=1270000U PD=2600000U
* device instance $3 r0 *1 0.47,1.985 pfet_01v8_hvt
M$3 6 2 8 1 pfet_01v8_hvt L=150000U W=1000000U AS=260000000000P
+ AD=135000000000P PS=2520000U PD=1270000U
* device instance $4 r0 *1 0.89,1.985 pfet_01v8_hvt
M$4 8 3 6 1 pfet_01v8_hvt L=150000U W=1000000U AS=135000000000P
+ AD=260000000000P PS=1270000U PD=2520000U
* device instance $5 r0 *1 1.83,0.56 nfet_01v8
M$5 11 4 8 10 nfet_01v8 L=150000U W=650000U AS=169000000000P AD=68250000000P
+ PS=1820000U PD=860000U
* device instance $6 r0 *1 2.19,0.56 nfet_01v8
M$6 9 5 11 10 nfet_01v8 L=150000U W=650000U AS=68250000000P AD=234000000000P
+ PS=860000U PD=2020000U
* device instance $7 r0 *1 0.47,0.56 nfet_01v8
M$7 12 2 9 10 nfet_01v8 L=150000U W=650000U AS=169000000000P AD=74750000000P
+ PS=1820000U PD=880000U
* device instance $8 r0 *1 0.85,0.56 nfet_01v8