* CDL Netlist generated by OpenROAD

*.BUSDELIMITER [

.SUBCKT clock_domain_crossing_fifo rd_almost_empty rd_clk
+ rd_count[0] rd_count[1] rd_count[2] rd_count[3] rd_count[4]
+ rd_data[0] rd_data[10] rd_data[11] rd_data[12] rd_data[13]
+ rd_data[14] rd_data[15] rd_data[16] rd_data[17] rd_data[18]
+ rd_data[19] rd_data[1] rd_data[20] rd_data[21] rd_data[22]
+ rd_data[23] rd_data[24] rd_data[25] rd_data[26] rd_data[27]
+ rd_data[28] rd_data[29] rd_data[2] rd_data[30] rd_data[31]
+ rd_data[3] rd_data[4] rd_data[5] rd_data[6] rd_data[7] rd_data[8]
+ rd_data[9] rd_empty rd_en rd_rst_n wr_almost_full wr_clk wr_count[0]
+ wr_count[1] wr_count[2] wr_count[3] wr_count[4] wr_data[0]
+ wr_data[10] wr_data[11] wr_data[12] wr_data[13] wr_data[14]
+ wr_data[15] wr_data[16] wr_data[17] wr_data[18] wr_data[19]
+ wr_data[1] wr_data[20] wr_data[21] wr_data[22] wr_data[23]
+ wr_data[24] wr_data[25] wr_data[26] wr_data[27] wr_data[28]
+ wr_data[29] wr_data[2] wr_data[30] wr_data[31] wr_data[3]
+ wr_data[4] wr_data[5] wr_data[6] wr_data[7] wr_data[8] wr_data[9]
+ wr_en wr_full wr_rst_n
X_0889_ rd_ptr_gray_sync2\[3\] rd_ptr_gray_sync2\[4\] VSS
+ VSS VDD VDD _0856_ sky130_fd_sc_hd__xnor2_1
X_0890_ rd_ptr_gray_sync2\[2\] _0856_ VSS VSS VDD VDD _0853_
+ sky130_fd_sc_hd__xor2_1
X_0891_ rd_ptr_gray_sync2\[1\] _0853_ VSS VSS VDD VDD _0846_
+ sky130_fd_sc_hd__xor2_1
X_0892_ _0888_ VSS VSS VDD VDD net79 sky130_fd_sc_hd__inv_1
X_0893_ rd_ptr_gray_sync2\[4\] wr_ptr_bin\[4\] VSS VSS VDD
+ VDD _0590_ sky130_fd_sc_hd__xnor2_4
X_0894_ _0858_ _0855_ _0852_ _0888_ VSS VSS VDD VDD _0591_
+ sky130_fd_sc_hd__nand4_2
X_0895_ _0590_ _0591_ VSS VSS VDD VDD net84 sky130_fd_sc_hd__nor2_1
X_0896_ wr_ptr_bin\[2\] VSS VSS VDD VDD _0592_ sky130_fd_sc_hd__clkbuf_4
X_0897_ wr_ptr_bin\[3\] VSS VSS VDD VDD _0593_ sky130_fd_sc_hd__clkbuf_4
X_0898_ net84 net37 VSS VSS VDD VDD _0594_ sky130_fd_sc_hd__nor2b_1
X_0899_ _0594_ VSS VSS VDD VDD _0595_ sky130_fd_sc_hd__clkbuf_4
X_0900_ _0592_ _0593_ _0595_ VSS VSS VDD VDD _0596_ sky130_fd_sc_hd__nand3_4
X_0901_ net38 _0872_ VSS VSS VDD VDD _0597_ sky130_fd_sc_hd__nand2_8
X_0902_ _0596_ _0597_ VSS VSS VDD VDD _0001_ sky130_fd_sc_hd__nor2_8
X_0903_ _0842_ VSS VSS VDD VDD _0598_ sky130_fd_sc_hd__inv_1
X_0904_ _0598_ _0852_ _0851_ VSS VSS VDD VDD _0599_ sky130_fd_sc_hd__a21o_1
X_0905_ _0855_ _0599_ _0854_ VSS VSS VDD VDD _0600_ sky130_fd_sc_hd__a21oi_1
X_0906_ _0858_ _0600_ VSS VSS VDD VDD net82 sky130_fd_sc_hd__xnor2_1
X_0907_ _0844_ VSS VSS VDD VDD _0601_ sky130_fd_sc_hd__inv_1
X_0908_ _0601_ _0855_ _0854_ VSS VSS VDD VDD _0602_ sky130_fd_sc_hd__a21o_1
X_0909_ _0858_ _0602_ _0857_ VSS VSS VDD VDD _0603_ sky130_fd_sc_hd__a21oi_1
X_0910_ _0590_ _0603_ VSS VSS VDD VDD net83 sky130_fd_sc_hd__xnor2_1
X_0911_ net38 _0871_ VSS VSS VDD VDD _0604_ sky130_fd_sc_hd__nand2_8
X_0912_ _0590_ _0591_ net37 VSS VSS VDD VDD _0605_ sky130_fd_sc_hd__o21ai_4
X_0913_ _0592_ _0593_ _0605_ VSS VSS VDD VDD _0606_ sky130_fd_sc_hd__or3_4
X_0914_ _0604_ _0606_ VSS VSS VDD VDD _0015_ sky130_fd_sc_hd__nor2_8
X_0915_ net38 _0874_ VSS VSS VDD VDD _0607_ sky130_fd_sc_hd__nand2_8
X_0916_ _0606_ _0607_ VSS VSS VDD VDD _0014_ sky130_fd_sc_hd__nor2_8
X_0917_ _0597_ _0606_ VSS VSS VDD VDD _0013_ sky130_fd_sc_hd__nor2_8
X_0918_ _0876_ VSS VSS VDD VDD _0608_ sky130_fd_sc_hd__clkbuf_4
X_0919_ net38 _0608_ VSS VSS VDD VDD _0609_ sky130_fd_sc_hd__nand2_8
X_0920_ _0606_ _0609_ VSS VSS VDD VDD _0012_ sky130_fd_sc_hd__nor2_8
X_0921_ _0593_ _0595_ _0592_ VSS VSS VDD VDD _0610_ sky130_fd_sc_hd__nand3b_4
X_0922_ _0604_ _0610_ VSS VSS VDD VDD _0011_ sky130_fd_sc_hd__nor2_8
X_0923_ _0607_ _0610_ VSS VSS VDD VDD _0010_ sky130_fd_sc_hd__nor2_8
X_0924_ _0597_ _0610_ VSS VSS VDD VDD _0009_ sky130_fd_sc_hd__nor2_8
X_0925_ _0609_ _0610_ VSS VSS VDD VDD _0008_ sky130_fd_sc_hd__nor2_8
X_0926_ _0592_ _0593_ _0595_ VSS VSS VDD VDD _0611_ sky130_fd_sc_hd__nand3b_4
X_0927_ _0604_ _0611_ VSS VSS VDD VDD _0007_ sky130_fd_sc_hd__nor2_8
X_0928_ _0607_ _0611_ VSS VSS VDD VDD _0006_ sky130_fd_sc_hd__nor2_8
X_0929_ _0597_ _0611_ VSS VSS VDD VDD _0005_ sky130_fd_sc_hd__nor2_8
X_0930_ _0609_ _0611_ VSS VSS VDD VDD _0004_ sky130_fd_sc_hd__nor2_8
X_0931_ _0596_ _0604_ VSS VSS VDD VDD _0003_ sky130_fd_sc_hd__nor2_8
X_0932_ _0596_ _0609_ VSS VSS VDD VDD _0000_ sky130_fd_sc_hd__nor2_8
X_0933_ _0596_ _0607_ VSS VSS VDD VDD _0002_ sky130_fd_sc_hd__nor2_8
X_0934_ wr_ptr_gray_sync2\[3\] wr_ptr_gray_sync2\[4\] VSS
+ VSS VDD VDD _0864_ sky130_fd_sc_hd__xor2_1
X_0935_ wr_ptr_gray_sync2\[2\] _0864_ VSS VSS VDD VDD _0612_
+ sky130_fd_sc_hd__xnor2_1
X_0936_ wr_ptr_gray_sync2\[1\] _0612_ VSS VSS VDD VDD _0848_
+ sky130_fd_sc_hd__xor2_2
X_0937_ _0850_ VSS VSS VDD VDD net41 sky130_fd_sc_hd__inv_1
X_0938_ _0849_ _0870_ VSS VSS VDD VDD net42 sky130_fd_sc_hd__xnor2_1
X_0939_ _0847_ VSS VSS VDD VDD _0613_ sky130_fd_sc_hd__inv_1
X_0940_ _0862_ _0613_ _0861_ VSS VSS VDD VDD _0614_ sky130_fd_sc_hd__a21o_1
X_0941_ _0870_ _0614_ _0869_ VSS VSS VDD VDD _0615_ sky130_fd_sc_hd__a21oi_1
X_0942_ _0866_ _0615_ VSS VSS VDD VDD net43 sky130_fd_sc_hd__xnor2_1
X_0943_ wr_ptr_gray_sync2\[4\] rd_ptr_bin\[4\] VSS VSS VDD
+ VDD _0616_ sky130_fd_sc_hd__xor2_1
X_0944_ _0849_ VSS VSS VDD VDD _0617_ sky130_fd_sc_hd__inv_1
X_0945_ _0617_ _0870_ _0869_ VSS VSS VDD VDD _0618_ sky130_fd_sc_hd__a21o_1
X_0946_ _0866_ _0618_ _0865_ VSS VSS VDD VDD _0619_ sky130_fd_sc_hd__a21oi_1
X_0947_ _0616_ _0619_ VSS VSS VDD VDD net44 sky130_fd_sc_hd__xor2_1
X_0948_ wr_ptr_gray_sync2\[2\] rd_ptr_gray\[2\] VSS VSS VDD
+ VDD _0620_ sky130_fd_sc_hd__xor2_1
X_0949_ wr_ptr_gray_sync2\[1\] rd_ptr_gray\[1\] VSS VSS VDD
+ VDD _0621_ sky130_fd_sc_hd__xor2_1
X_0950_ wr_ptr_gray_sync2\[0\] rd_ptr_gray\[0\] VSS VSS VDD
+ VDD _0622_ sky130_fd_sc_hd__xor2_1
X_0951_ wr_ptr_gray_sync2\[3\] rd_ptr_gray\[3\] VSS VSS VDD
+ VDD _0623_ sky130_fd_sc_hd__xor2_1
X_0952_ _0616_ _0622_ _0623_ VSS VSS VDD VDD _0624_ sky130_fd_sc_hd__or3_1
X_0953_ _0620_ _0621_ _0624_ VSS VSS VDD VDD _0625_ sky130_fd_sc_hd__or3_1
X_0954_ _0625_ VSS VSS VDD VDD net77 sky130_fd_sc_hd__inv_1
X_0955_ rd_ptr_bin\[2\] VSS VSS VDD VDD _0626_ sky130_fd_sc_hd__buf_4
X_0956_ _0626_ VSS VSS VDD VDD _0627_ sky130_fd_sc_hd__inv_2
X_0957_ _0627_ VSS VSS VDD VDD _0628_ sky130_fd_sc_hd__clkbuf_4
X_0958_ _0628_ VSS VSS VDD VDD _0867_ sky130_fd_sc_hd__clkbuf_8
X_0959_ rd_ptr_bin\[3\] VSS VSS VDD VDD _0629_ sky130_fd_sc_hd__buf_4
X_0960_ _0629_ VSS VSS VDD VDD _0630_ sky130_fd_sc_hd__clkinv_2
X_0961_ _0630_ VSS VSS VDD VDD _0863_ sky130_fd_sc_hd__buf_6
X_0962_ _0846_ VSS VSS VDD VDD _0843_ sky130_fd_sc_hd__inv_1
X_0963_ wr_ptr_bin\[0\] VSS VSS VDD VDD _0631_ sky130_fd_sc_hd__clkbuf_2
X_0964_ _0631_ VSS VSS VDD VDD _0016_ sky130_fd_sc_hd__inv_1
X_0965_ rd_ptr_bin\[0\] VSS VSS VDD VDD _0018_ sky130_fd_sc_hd__inv_1
X_0966_ _0848_ VSS VSS VDD VDD _0860_ sky130_fd_sc_hd__inv_1
X_0967_ _0612_ VSS VSS VDD VDD _0868_ sky130_fd_sc_hd__inv_1
X_0968_ wr_ptr_bin\[1\] VSS VSS VDD VDD _0841_ sky130_fd_sc_hd__clkinvlp_4
X_0969_ rd_ptr_bin\[1\] VSS VSS VDD VDD _0859_ sky130_fd_sc_hd__inv_1
X_0970_ wr_ptr_gray_sync2\[0\] _0848_ VSS VSS VDD VDD _0885_
+ sky130_fd_sc_hd__xor2_1
X_0971_ rd_ptr_gray_sync2\[0\] _0846_ VSS VSS VDD VDD _0887_
+ sky130_fd_sc_hd__xnor2_1
X_0972_ _0886_ VSS VSS VDD VDD net40 sky130_fd_sc_hd__inv_1
X_0973_ _0620_ _0621_ _0624_ net2 VSS VSS VDD VDD _0632_ sky130_fd_sc_hd__o31ai_4
X_0974_ _0632_ VSS VSS VDD VDD _0633_ sky130_fd_sc_hd__buf_6
X_0975_ _0878_ VSS VSS VDD VDD _0634_ sky130_fd_sc_hd__clkbuf_4
X_0976_ rd_ptr_bin\[3\] rd_ptr_bin\[2\] _0634_ VSS VSS VDD
+ VDD _0635_ sky130_fd_sc_hd__o21ai_2
X_0977_ _0635_ VSS VSS VDD VDD _0636_ sky130_fd_sc_hd__buf_4
X_0978_ _0883_ VSS VSS VDD VDD _0637_ sky130_fd_sc_hd__clkbuf_4
X_0979_ _0881_ VSS VSS VDD VDD _0638_ sky130_fd_sc_hd__buf_4
X_0980_ _0637_ _0879_ _0638_ VSS VSS VDD VDD _0639_ sky130_fd_sc_hd__nor3_2
X_0981_ _0639_ VSS VSS VDD VDD _0640_ sky130_fd_sc_hd__buf_4
X_0982_ _0636_ _0640_ VSS VSS VDD VDD _0641_ sky130_fd_sc_hd__nand2_2
X_0983_ mem\[0\]\[0\] _0641_ VSS VSS VDD VDD _0642_ sky130_fd_sc_hd__nor2_1
X_0984_ _0633_ _0642_ VSS VSS VDD VDD _0643_ sky130_fd_sc_hd__nor2_1
X_0985_ _0629_ VSS VSS VDD VDD _0644_ sky130_fd_sc_hd__clkbuf_8
X_0986_ _0644_ VSS VSS VDD VDD _0645_ sky130_fd_sc_hd__buf_4
X_0987_ _0879_ VSS VSS VDD VDD _0646_ sky130_fd_sc_hd__buf_4
X_0988_ _0646_ VSS VSS VDD VDD _0647_ sky130_fd_sc_hd__buf_4
X_0989_ _0626_ VSS VSS VDD VDD _0648_ sky130_fd_sc_hd__buf_6
X_0990_ _0648_ VSS VSS VDD VDD _0649_ sky130_fd_sc_hd__clkbuf_4
X_0991_ mem\[10\]\[0\] _0647_ _0649_ VSS VSS VDD VDD _0650_
+ sky130_fd_sc_hd__a21oi_1
X_0992_ _0634_ VSS VSS VDD VDD _0651_ sky130_fd_sc_hd__clkbuf_8
X_0993_ _0638_ VSS VSS VDD VDD _0652_ sky130_fd_sc_hd__buf_4
X_0994_ mem\[12\]\[0\] _0651_ _0652_ mem\[13\]\[0\] VSS VSS
+ VDD VDD _0653_ sky130_fd_sc_hd__a22oi_1
X_0995_ _0648_ VSS VSS VDD VDD _0654_ sky130_fd_sc_hd__buf_4
X_0996_ _0654_ VSS VSS VDD VDD _0655_ sky130_fd_sc_hd__buf_4
X_0997_ _0626_ _0637_ VSS VSS VDD VDD _0656_ sky130_fd_sc_hd__nor2b_1
X_0998_ _0656_ VSS VSS VDD VDD _0657_ sky130_fd_sc_hd__buf_6
X_0999_ _0657_ VSS VSS VDD VDD _0658_ sky130_fd_sc_hd__buf_6
X_1000_ _0629_ VSS VSS VDD VDD _0659_ sky130_fd_sc_hd__clkbuf_4
X_1001_ _0659_ VSS VSS VDD VDD _0660_ sky130_fd_sc_hd__buf_4
X_1002_ mem\[3\]\[0\] _0658_ _0660_ VSS VSS VDD VDD _0661_
+ sky130_fd_sc_hd__a21oi_1
X_1003_ _0645_ _0650_ _0653_ _0655_ _0661_ VSS VSS VDD VDD
+ _0662_ sky130_fd_sc_hd__a221o_1
X_1004_ _0644_ VSS VSS VDD VDD _0663_ sky130_fd_sc_hd__buf_6
X_1005_ _0663_ VSS VSS VDD VDD _0664_ sky130_fd_sc_hd__clkbuf_4
X_1006_ _0649_ VSS VSS VDD VDD _0665_ sky130_fd_sc_hd__buf_4
X_1007_ _0879_ VSS VSS VDD VDD _0666_ sky130_fd_sc_hd__clkbuf_8
X_1008_ _0666_ VSS VSS VDD VDD _0667_ sky130_fd_sc_hd__clkbuf_4
X_1009_ mem\[2\]\[0\] _0667_ VSS VSS VDD VDD _0668_ sky130_fd_sc_hd__nand2_1
X_1010_ _0634_ VSS VSS VDD VDD _0669_ sky130_fd_sc_hd__buf_4
X_1011_ _0669_ VSS VSS VDD VDD _0670_ sky130_fd_sc_hd__buf_4
X_1012_ _0665_ mem\[4\]\[0\] _0670_ VSS VSS VDD VDD _0671_
+ sky130_fd_sc_hd__nand3_1
X_1013_ _0665_ _0668_ _0671_ VSS VSS VDD VDD _0672_ sky130_fd_sc_hd__o21ai_0
X_1014_ _0649_ VSS VSS VDD VDD _0673_ sky130_fd_sc_hd__buf_4
X_1015_ _0638_ VSS VSS VDD VDD _0674_ sky130_fd_sc_hd__clkbuf_4
X_1016_ _0674_ VSS VSS VDD VDD _0675_ sky130_fd_sc_hd__buf_4
X_1017_ mem\[9\]\[0\] _0675_ VSS VSS VDD VDD _0676_ sky130_fd_sc_hd__nand2_1
X_1018_ _0646_ VSS VSS VDD VDD _0677_ sky130_fd_sc_hd__buf_6
X_1019_ _0677_ VSS VSS VDD VDD _0678_ sky130_fd_sc_hd__buf_4
X_1020_ _0665_ mem\[14\]\[0\] _0678_ VSS VSS VDD VDD _0679_
+ sky130_fd_sc_hd__nand3_1
X_1021_ _0673_ _0676_ _0679_ _0664_ VSS VSS VDD VDD _0680_
+ sky130_fd_sc_hd__o211ai_1
X_1022_ _0664_ _0672_ _0680_ VSS VSS VDD VDD _0681_ sky130_fd_sc_hd__o21ai_0
X_1023_ _0630_ VSS VSS VDD VDD _0682_ sky130_fd_sc_hd__buf_4
X_1024_ _0646_ VSS VSS VDD VDD _0683_ sky130_fd_sc_hd__buf_4
X_1025_ rd_ptr_bin\[3\] _0637_ VSS VSS VDD VDD _0684_ sky130_fd_sc_hd__and2_0
X_1026_ _0684_ VSS VSS VDD VDD _0685_ sky130_fd_sc_hd__dlymetal6s2s_1
X_1027_ _0685_ VSS VSS VDD VDD _0686_ sky130_fd_sc_hd__buf_4
X_1028_ _0682_ mem\[6\]\[0\] _0683_ _0686_ mem\[15\]\[0\]
+ VSS VSS VDD VDD _0687_ sky130_fd_sc_hd__a32o_1
X_1029_ _0663_ VSS VSS VDD VDD _0688_ sky130_fd_sc_hd__buf_4
X_1030_ mem\[1\]\[0\] _0675_ VSS VSS VDD VDD _0689_ sky130_fd_sc_hd__nand2_1
X_1031_ _0645_ mem\[8\]\[0\] _0670_ VSS VSS VDD VDD _0690_
+ sky130_fd_sc_hd__nand3_1
X_1032_ _0688_ _0689_ _0690_ _0867_ VSS VSS VDD VDD _0691_
+ sky130_fd_sc_hd__o211ai_1
X_1033_ _0867_ _0687_ _0691_ VSS VSS VDD VDD _0692_ sky130_fd_sc_hd__o21ai_0
X_1034_ _0629_ _0648_ _0638_ VSS VSS VDD VDD _0693_ sky130_fd_sc_hd__and3b_1
X_1035_ _0693_ VSS VSS VDD VDD _0694_ sky130_fd_sc_hd__clkbuf_8
X_1036_ _0629_ _0626_ VSS VSS VDD VDD _0695_ sky130_fd_sc_hd__nor2b_1
X_1037_ _0626_ _0629_ VSS VSS VDD VDD _0696_ sky130_fd_sc_hd__nor2b_4
X_1038_ mem\[7\]\[0\] _0695_ _0696_ mem\[11\]\[0\] VSS VSS
+ VDD VDD _0697_ sky130_fd_sc_hd__a22o_1
X_1039_ _0637_ VSS VSS VDD VDD _0698_ sky130_fd_sc_hd__buf_4
X_1040_ _0635_ _0639_ VSS VSS VDD VDD _0699_ sky130_fd_sc_hd__and2_0
X_1041_ mem\[5\]\[0\] _0694_ _0697_ _0698_ _0699_ VSS VSS
+ VDD VDD _0700_ sky130_fd_sc_hd__a221oi_1
X_1042_ _0662_ _0681_ _0692_ _0700_ VSS VSS VDD VDD _0701_
+ sky130_fd_sc_hd__nand4_1
X_1043_ net45 _0633_ _0643_ _0701_ VSS VSS VDD VDD _0020_
+ sky130_fd_sc_hd__a22o_1
X_1044_ _0632_ VSS VSS VDD VDD _0702_ sky130_fd_sc_hd__buf_4
X_1045_ _0648_ VSS VSS VDD VDD _0703_ sky130_fd_sc_hd__clkbuf_4
X_1046_ _0703_ VSS VSS VDD VDD _0704_ sky130_fd_sc_hd__clkbuf_4
X_1047_ _0698_ mem\[15\]\[10\] mem\[14\]\[10\] _0647_ VSS
+ VSS VDD VDD _0705_ sky130_fd_sc_hd__a22oi_1
X_1048_ _0646_ VSS VSS VDD VDD _0706_ sky130_fd_sc_hd__buf_4
X_1049_ _0698_ mem\[7\]\[10\] mem\[6\]\[10\] _0706_ _0663_
+ VSS VSS VDD VDD _0707_ sky130_fd_sc_hd__a221oi_1
X_1050_ _0660_ _0705_ _0707_ VSS VSS VDD VDD _0708_ sky130_fd_sc_hd__a21oi_1
X_1051_ _0634_ VSS VSS VDD VDD _0709_ sky130_fd_sc_hd__buf_4
X_1052_ _0638_ VSS VSS VDD VDD _0710_ sky130_fd_sc_hd__buf_4
X_1053_ _0629_ VSS VSS VDD VDD _0711_ sky130_fd_sc_hd__buf_4
X_1054_ _0626_ VSS VSS VDD VDD _0712_ sky130_fd_sc_hd__clkbuf_4
X_1055_ _0711_ _0712_ VSS VSS VDD VDD _0713_ sky130_fd_sc_hd__nand2_4
X_1056_ mem\[12\]\[10\] _0709_ _0710_ mem\[13\]\[10\] _0713_
+ VSS VSS VDD VDD _0714_ sky130_fd_sc_hd__a221oi_1
X_1057_ _0629_ _0648_ VSS VSS VDD VDD _0715_ sky130_fd_sc_hd__nand2b_2
X_1058_ mem\[4\]\[10\] _0709_ _0710_ mem\[5\]\[10\] _0715_
+ VSS VSS VDD VDD _0716_ sky130_fd_sc_hd__a221oi_1
X_1059_ _0638_ VSS VSS VDD VDD _0717_ sky130_fd_sc_hd__buf_4
X_1060_ mem\[10\]\[10\] _0646_ _0717_ mem\[9\]\[10\] VSS VSS
+ VDD VDD _0718_ sky130_fd_sc_hd__a22oi_1
X_1061_ _0637_ VSS VSS VDD VDD _0719_ sky130_fd_sc_hd__buf_6
X_1062_ _0719_ mem\[3\]\[10\] mem\[2\]\[10\] _0666_ VSS VSS
+ VDD VDD _0720_ sky130_fd_sc_hd__a22oi_1
X_1063_ _0644_ _0648_ VSS VSS VDD VDD _0721_ sky130_fd_sc_hd__nor2_4
X_1064_ _0696_ _0718_ _0720_ _0721_ VSS VSS VDD VDD _0722_
+ sky130_fd_sc_hd__a22o_1
X_1065_ _0714_ _0716_ _0722_ VSS VSS VDD VDD _0723_ sky130_fd_sc_hd__nor3_1
X_1066_ _0682_ mem\[1\]\[10\] _0652_ _0686_ mem\[11\]\[10\]
+ VSS VSS VDD VDD _0724_ sky130_fd_sc_hd__a32oi_1
X_1067_ _0660_ mem\[8\]\[10\] _0670_ VSS VSS VDD VDD _0725_
+ sky130_fd_sc_hd__nand3_1
X_1068_ _0724_ _0725_ _0673_ VSS VSS VDD VDD _0726_ sky130_fd_sc_hd__a21oi_1
X_1069_ _0699_ VSS VSS VDD VDD _0727_ sky130_fd_sc_hd__clkbuf_8
X_1070_ _0704_ _0708_ _0723_ _0726_ _0727_ VSS VSS VDD VDD
+ _0728_ sky130_fd_sc_hd__a2111oi_0
X_1071_ _0641_ VSS VSS VDD VDD _0729_ sky130_fd_sc_hd__buf_4
X_1072_ mem\[0\]\[10\] _0729_ VSS VSS VDD VDD _0730_ sky130_fd_sc_hd__nor2_1
X_1073_ _0633_ VSS VSS VDD VDD _0731_ sky130_fd_sc_hd__buf_4
X_1074_ net46 _0731_ VSS VSS VDD VDD _0732_ sky130_fd_sc_hd__nand2_1
X_1075_ _0702_ _0728_ _0730_ _0732_ VSS VSS VDD VDD _0021_
+ sky130_fd_sc_hd__o31ai_1
X_1076_ _0657_ VSS VSS VDD VDD _0733_ sky130_fd_sc_hd__buf_6
X_1077_ _0644_ VSS VSS VDD VDD _0734_ sky130_fd_sc_hd__clkbuf_4
X_1078_ mem\[3\]\[11\] _0733_ _0734_ VSS VSS VDD VDD _0735_
+ sky130_fd_sc_hd__a21oi_1
X_1079_ _0637_ VSS VSS VDD VDD _0736_ sky130_fd_sc_hd__buf_6
X_1080_ _0646_ VSS VSS VDD VDD _0737_ sky130_fd_sc_hd__buf_4
X_1081_ _0736_ mem\[7\]\[11\] mem\[4\]\[11\] _0669_ _0737_
+ mem\[6\]\[11\] VSS VSS VDD VDD _0738_ sky130_fd_sc_hd__a222oi_1
X_1082_ rd_ptr_bin\[2\] _0879_ VSS VSS VDD VDD _0739_ sky130_fd_sc_hd__nor2b_1
X_1083_ _0739_ VSS VSS VDD VDD _0740_ sky130_fd_sc_hd__buf_2
X_1084_ _0740_ VSS VSS VDD VDD _0741_ sky130_fd_sc_hd__clkbuf_4
X_1085_ _0630_ VSS VSS VDD VDD _0742_ sky130_fd_sc_hd__buf_4
X_1086_ mem\[10\]\[11\] _0741_ _0742_ VSS VSS VDD VDD _0743_
+ sky130_fd_sc_hd__a21oi_1
X_1087_ _0638_ VSS VSS VDD VDD _0744_ sky130_fd_sc_hd__clkbuf_4
X_1088_ mem\[14\]\[11\] _0677_ _0744_ mem\[13\]\[11\] mem\[12\]\[11\]
+ _0651_ VSS VSS VDD VDD _0745_ sky130_fd_sc_hd__a222oi_1
X_1089_ _0735_ _0738_ _0743_ _0745_ VSS VSS VDD VDD _0746_
+ sky130_fd_sc_hd__a22oi_1
X_1090_ _0735_ _0743_ _0867_ VSS VSS VDD VDD _0747_ sky130_fd_sc_hd__o21ai_0
X_1091_ _0630_ VSS VSS VDD VDD _0748_ sky130_fd_sc_hd__buf_4
X_1092_ _0685_ VSS VSS VDD VDD _0749_ sky130_fd_sc_hd__buf_4
X_1093_ _0748_ mem\[1\]\[11\] _0652_ _0749_ mem\[11\]\[11\]
+ VSS VSS VDD VDD _0750_ sky130_fd_sc_hd__a32oi_1
X_1094_ _0628_ VSS VSS VDD VDD _0751_ sky130_fd_sc_hd__clkbuf_4
X_1095_ _0626_ VSS VSS VDD VDD _0752_ sky130_fd_sc_hd__buf_4
X_1096_ _0638_ VSS VSS VDD VDD _0753_ sky130_fd_sc_hd__buf_2
X_1097_ _0752_ mem\[5\]\[11\] _0753_ VSS VSS VDD VDD _0754_
+ sky130_fd_sc_hd__and3_1
X_1098_ _0751_ mem\[2\]\[11\] _0683_ _0754_ VSS VSS VDD VDD
+ _0755_ sky130_fd_sc_hd__a31oi_1
X_1099_ _0665_ _0750_ _0755_ _0664_ VSS VSS VDD VDD _0756_
+ sky130_fd_sc_hd__o22ai_1
X_1100_ _0629_ _0627_ VSS VSS VDD VDD _0757_ sky130_fd_sc_hd__nand2_4
X_1101_ _0757_ VSS VSS VDD VDD _0758_ sky130_fd_sc_hd__buf_4
X_1102_ _0634_ VSS VSS VDD VDD _0759_ sky130_fd_sc_hd__buf_4
X_1103_ _0759_ VSS VSS VDD VDD _0760_ sky130_fd_sc_hd__buf_6
X_1104_ mem\[8\]\[11\] _0760_ _0675_ mem\[9\]\[11\] VSS VSS
+ VDD VDD _0761_ sky130_fd_sc_hd__a22oi_1
X_1105_ _0629_ _0626_ _0637_ VSS VSS VDD VDD _0762_ sky130_fd_sc_hd__and3_1
X_1106_ _0762_ VSS VSS VDD VDD _0763_ sky130_fd_sc_hd__buf_4
X_1107_ _0763_ VSS VSS VDD VDD _0764_ sky130_fd_sc_hd__buf_4
X_1108_ mem\[15\]\[11\] _0764_ VSS VSS VDD VDD _0765_ sky130_fd_sc_hd__nand2_1
X_1109_ _0758_ _0761_ _0765_ VSS VSS VDD VDD _0766_ sky130_fd_sc_hd__o21ai_0
X_1110_ _0746_ _0747_ _0727_ _0756_ _0766_ VSS VSS VDD VDD
+ _0767_ sky130_fd_sc_hd__a2111oi_1
X_1111_ mem\[0\]\[11\] _0729_ VSS VSS VDD VDD _0768_ sky130_fd_sc_hd__nor2_1
X_1112_ net47 _0731_ VSS VSS VDD VDD _0769_ sky130_fd_sc_hd__nand2_1
X_1113_ _0702_ _0767_ _0768_ _0769_ VSS VSS VDD VDD _0022_
+ sky130_fd_sc_hd__o31ai_1
X_1114_ _0644_ VSS VSS VDD VDD _0770_ sky130_fd_sc_hd__buf_4
X_1115_ _0770_ _0703_ mem\[14\]\[12\] VSS VSS VDD VDD _0771_
+ sky130_fd_sc_hd__and3_1
X_1116_ _0663_ _0649_ mem\[2\]\[12\] VSS VSS VDD VDD _0772_
+ sky130_fd_sc_hd__nor3b_1
X_1117_ _0771_ _0772_ _0678_ VSS VSS VDD VDD _0773_ sky130_fd_sc_hd__o21ai_0
X_1118_ _0770_ mem\[12\]\[12\] _0709_ VSS VSS VDD VDD _0774_
+ sky130_fd_sc_hd__and3_1
X_1119_ _0711_ mem\[6\]\[12\] _0677_ VSS VSS VDD VDD _0775_
+ sky130_fd_sc_hd__and3b_1
X_1120_ _0774_ _0775_ _0673_ VSS VSS VDD VDD _0776_ sky130_fd_sc_hd__o21ai_0
X_1121_ mem\[1\]\[12\] _0675_ _0721_ _0636_ _0640_ VSS VSS
+ VDD VDD _0777_ sky130_fd_sc_hd__a32oi_1
X_1122_ _0711_ _0703_ mem\[7\]\[12\] VSS VSS VDD VDD _0778_
+ sky130_fd_sc_hd__and3b_1
X_1123_ _0703_ mem\[11\]\[12\] _0659_ VSS VSS VDD VDD _0779_
+ sky130_fd_sc_hd__and3b_1
X_1124_ _0778_ _0779_ _0698_ VSS VSS VDD VDD _0780_ sky130_fd_sc_hd__o21ai_0
X_1125_ _0773_ _0776_ _0777_ _0780_ VSS VSS VDD VDD _0781_
+ sky130_fd_sc_hd__nand4_1
X_1126_ mem\[8\]\[12\] _0670_ _0675_ mem\[9\]\[12\] VSS VSS
+ VDD VDD _0782_ sky130_fd_sc_hd__a22oi_1
X_1127_ _0752_ VSS VSS VDD VDD _0783_ sky130_fd_sc_hd__buf_4
X_1128_ _0783_ mem\[4\]\[12\] _0760_ _0658_ mem\[3\]\[12\]
+ VSS VSS VDD VDD _0784_ sky130_fd_sc_hd__a32oi_1
X_1129_ mem\[15\]\[12\] _0764_ VSS VSS VDD VDD _0785_ sky130_fd_sc_hd__nand2_1
X_1130_ _0758_ _0782_ _0784_ _0664_ _0785_ VSS VSS VDD VDD
+ _0786_ sky130_fd_sc_hd__o221ai_1
X_1131_ mem\[10\]\[12\] _0683_ VSS VSS VDD VDD _0787_ sky130_fd_sc_hd__nand2_1
X_1132_ _0649_ mem\[13\]\[12\] _0652_ VSS VSS VDD VDD _0788_
+ sky130_fd_sc_hd__nand3_1
X_1133_ _0783_ _0787_ _0788_ VSS VSS VDD VDD _0789_ sky130_fd_sc_hd__o21ai_0
X_1134_ mem\[5\]\[12\] _0694_ _0789_ _0664_ VSS VSS VDD VDD
+ _0790_ sky130_fd_sc_hd__a22o_1
X_1135_ _0781_ _0786_ _0790_ VSS VSS VDD VDD _0791_ sky130_fd_sc_hd__nor3_1
X_1136_ mem\[0\]\[12\] _0729_ VSS VSS VDD VDD _0792_ sky130_fd_sc_hd__nor2_1
X_1137_ net48 _0731_ VSS VSS VDD VDD _0793_ sky130_fd_sc_hd__nand2_1
X_1138_ _0702_ _0791_ _0792_ _0793_ VSS VSS VDD VDD _0023_
+ sky130_fd_sc_hd__o31ai_1
X_1139_ mem\[3\]\[13\] _0733_ _0734_ VSS VSS VDD VDD _0794_
+ sky130_fd_sc_hd__a21oi_1
X_1140_ _0736_ mem\[7\]\[13\] mem\[4\]\[13\] _0669_ _0737_
+ mem\[6\]\[13\] VSS VSS VDD VDD _0795_ sky130_fd_sc_hd__a222oi_1
X_1141_ mem\[10\]\[13\] _0741_ _0742_ VSS VSS VDD VDD _0796_
+ sky130_fd_sc_hd__a21oi_1
X_1142_ mem\[14\]\[13\] _0677_ _0744_ mem\[13\]\[13\] mem\[12\]\[13\]
+ _0651_ VSS VSS VDD VDD _0797_ sky130_fd_sc_hd__a222oi_1
X_1143_ _0794_ _0795_ _0796_ _0797_ VSS VSS VDD VDD _0798_
+ sky130_fd_sc_hd__a22oi_1
X_1144_ _0794_ _0796_ _0867_ VSS VSS VDD VDD _0799_ sky130_fd_sc_hd__o21ai_0
X_1145_ _0748_ mem\[1\]\[13\] _0652_ _0749_ mem\[11\]\[13\]
+ VSS VSS VDD VDD _0800_ sky130_fd_sc_hd__a32oi_1
X_1146_ _0752_ mem\[5\]\[13\] _0753_ VSS VSS VDD VDD _0801_
+ sky130_fd_sc_hd__and3_1
X_1147_ _0751_ mem\[2\]\[13\] _0683_ _0801_ VSS VSS VDD VDD
+ _0802_ sky130_fd_sc_hd__a31oi_1
X_1148_ _0665_ _0800_ _0802_ _0664_ VSS VSS VDD VDD _0803_
+ sky130_fd_sc_hd__o22ai_1
X_1149_ mem\[8\]\[13\] _0760_ _0675_ mem\[9\]\[13\] VSS VSS
+ VDD VDD _0804_ sky130_fd_sc_hd__a22oi_1
X_1150_ mem\[15\]\[13\] _0764_ VSS VSS VDD VDD _0805_ sky130_fd_sc_hd__nand2_1
X_1151_ _0758_ _0804_ _0805_ VSS VSS VDD VDD _0806_ sky130_fd_sc_hd__o21ai_0
X_1152_ _0798_ _0799_ _0727_ _0803_ _0806_ VSS VSS VDD VDD
+ _0807_ sky130_fd_sc_hd__a2111oi_1
X_1153_ mem\[0\]\[13\] _0729_ VSS VSS VDD VDD _0808_ sky130_fd_sc_hd__nor2_1
X_1154_ net49 _0731_ VSS VSS VDD VDD _0809_ sky130_fd_sc_hd__nand2_1
X_1155_ _0702_ _0807_ _0808_ _0809_ VSS VSS VDD VDD _0024_
+ sky130_fd_sc_hd__o31ai_1
X_1156_ _0682_ mem\[6\]\[14\] _0647_ _0686_ mem\[15\]\[14\]
+ VSS VSS VDD VDD _0810_ sky130_fd_sc_hd__a32o_1
X_1157_ _0711_ VSS VSS VDD VDD _0811_ sky130_fd_sc_hd__clkbuf_4
X_1158_ _0811_ mem\[8\]\[14\] _0670_ VSS VSS VDD VDD _0812_
+ sky130_fd_sc_hd__nand3_1
X_1159_ _0638_ VSS VSS VDD VDD _0813_ sky130_fd_sc_hd__buf_2
X_1160_ _0813_ VSS VSS VDD VDD _0814_ sky130_fd_sc_hd__clkbuf_4
X_1161_ _0863_ mem\[1\]\[14\] _0814_ VSS VSS VDD VDD _0815_
+ sky130_fd_sc_hd__nand3_1
X_1162_ _0649_ VSS VSS VDD VDD _0816_ sky130_fd_sc_hd__clkbuf_4
X_1163_ _0812_ _0815_ _0816_ VSS VSS VDD VDD _0817_ sky130_fd_sc_hd__a21oi_1
X_1164_ _0813_ VSS VSS VDD VDD _0818_ sky130_fd_sc_hd__clkbuf_4
X_1165_ _0783_ mem\[13\]\[14\] _0818_ VSS VSS VDD VDD _0819_
+ sky130_fd_sc_hd__nand3_1
X_1166_ _0628_ VSS VSS VDD VDD _0820_ sky130_fd_sc_hd__buf_4
X_1167_ _0820_ mem\[10\]\[14\] _0667_ VSS VSS VDD VDD _0821_
+ sky130_fd_sc_hd__nand3_1
X_1168_ _0626_ VSS VSS VDD VDD _0822_ sky130_fd_sc_hd__clkbuf_4
X_1169_ _0634_ VSS VSS VDD VDD _0823_ sky130_fd_sc_hd__clkbuf_4
X_1170_ _0822_ mem\[4\]\[14\] _0823_ VSS VSS VDD VDD _0824_
+ sky130_fd_sc_hd__and3_1
X_1171_ _0711_ VSS VSS VDD VDD _0825_ sky130_fd_sc_hd__clkbuf_4
X_1172_ mem\[3\]\[14\] _0658_ _0824_ _0825_ VSS VSS VDD VDD
+ _0826_ sky130_fd_sc_hd__a211oi_1
X_1173_ _0688_ _0819_ _0821_ _0826_ VSS VSS VDD VDD _0827_
+ sky130_fd_sc_hd__a31oi_1
X_1174_ _0736_ VSS VSS VDD VDD _0828_ sky130_fd_sc_hd__inv_1
X_1175_ _0828_ VSS VSS VDD VDD _0829_ sky130_fd_sc_hd__buf_8
X_1176_ _0695_ VSS VSS VDD VDD _0830_ sky130_fd_sc_hd__buf_6
X_1177_ _0696_ VSS VSS VDD VDD _0831_ sky130_fd_sc_hd__buf_6
X_1178_ mem\[7\]\[14\] _0830_ _0831_ mem\[11\]\[14\] VSS VSS
+ VDD VDD _0832_ sky130_fd_sc_hd__a22oi_4
X_1179_ _0626_ VSS VSS VDD VDD _0833_ sky130_fd_sc_hd__buf_2
X_1180_ _0711_ _0833_ mem\[14\]\[14\] VSS VSS VDD VDD _0834_
+ sky130_fd_sc_hd__and3_1
X_1181_ _0770_ _0654_ mem\[2\]\[14\] VSS VSS VDD VDD _0835_
+ sky130_fd_sc_hd__nor3b_1
X_1182_ _0834_ _0835_ _0678_ VSS VSS VDD VDD _0836_ sky130_fd_sc_hd__o21ai_1
X_1183_ _0636_ _0640_ _0694_ mem\[5\]\[14\] VSS VSS VDD VDD
+ _0837_ sky130_fd_sc_hd__a22oi_2
X_1184_ _0703_ mem\[12\]\[14\] _0759_ VSS VSS VDD VDD _0838_
+ sky130_fd_sc_hd__and3_1
X_1185_ _0712_ mem\[9\]\[14\] _0674_ VSS VSS VDD VDD _0839_
+ sky130_fd_sc_hd__and3b_1
X_1186_ _0838_ _0839_ _0645_ VSS VSS VDD VDD _0840_ sky130_fd_sc_hd__o21ai_1
X_1187_ _0829_ _0832_ _0836_ _0837_ _0840_ VSS VSS VDD VDD
+ _0070_ sky130_fd_sc_hd__o2111ai_4
X_1188_ _0704_ _0810_ _0817_ _0827_ _0070_ VSS VSS VDD VDD
+ _0071_ sky130_fd_sc_hd__a2111oi_0
X_1189_ mem\[0\]\[14\] _0729_ VSS VSS VDD VDD _0072_ sky130_fd_sc_hd__nor2_1
X_1190_ net50 _0731_ VSS VSS VDD VDD _0073_ sky130_fd_sc_hd__nand2_1
X_1191_ _0702_ _0071_ _0072_ _0073_ VSS VSS VDD VDD _0025_
+ sky130_fd_sc_hd__o31ai_1
X_1192_ mem\[3\]\[15\] _0733_ _0734_ VSS VSS VDD VDD _0074_
+ sky130_fd_sc_hd__a21oi_1
X_1193_ _0736_ mem\[7\]\[15\] mem\[4\]\[15\] _0669_ _0737_
+ mem\[6\]\[15\] VSS VSS VDD VDD _0075_ sky130_fd_sc_hd__a222oi_1
X_1194_ mem\[10\]\[15\] _0741_ _0742_ VSS VSS VDD VDD _0076_
+ sky130_fd_sc_hd__a21oi_1
X_1195_ _0646_ VSS VSS VDD VDD _0077_ sky130_fd_sc_hd__buf_4
X_1196_ mem\[14\]\[15\] _0077_ _0744_ mem\[13\]\[15\] mem\[12\]\[15\]
+ _0651_ VSS VSS VDD VDD _0078_ sky130_fd_sc_hd__a222oi_1
X_1197_ _0074_ _0075_ _0076_ _0078_ VSS VSS VDD VDD _0079_
+ sky130_fd_sc_hd__a22oi_1
X_1198_ _0074_ _0076_ _0867_ VSS VSS VDD VDD _0080_ sky130_fd_sc_hd__o21ai_0
X_1199_ _0630_ VSS VSS VDD VDD _0081_ sky130_fd_sc_hd__clkbuf_4
X_1200_ _0081_ mem\[1\]\[15\] _0652_ _0749_ mem\[11\]\[15\]
+ VSS VSS VDD VDD _0082_ sky130_fd_sc_hd__a32oi_1
X_1201_ _0752_ mem\[5\]\[15\] _0753_ VSS VSS VDD VDD _0083_
+ sky130_fd_sc_hd__and3_1
X_1202_ _0751_ mem\[2\]\[15\] _0683_ _0083_ VSS VSS VDD VDD
+ _0084_ sky130_fd_sc_hd__a31oi_1
X_1203_ _0665_ _0082_ _0084_ _0664_ VSS VSS VDD VDD _0085_
+ sky130_fd_sc_hd__o22ai_1
X_1204_ _0759_ VSS VSS VDD VDD _0086_ sky130_fd_sc_hd__buf_4
X_1205_ mem\[8\]\[15\] _0086_ _0675_ mem\[9\]\[15\] VSS VSS
+ VDD VDD _0087_ sky130_fd_sc_hd__a22oi_1
X_1206_ mem\[15\]\[15\] _0764_ VSS VSS VDD VDD _0088_ sky130_fd_sc_hd__nand2_1
X_1207_ _0758_ _0087_ _0088_ VSS VSS VDD VDD _0089_ sky130_fd_sc_hd__o21ai_0
X_1208_ _0079_ _0080_ _0727_ _0085_ _0089_ VSS VSS VDD VDD
+ _0090_ sky130_fd_sc_hd__a2111oi_0
X_1209_ mem\[0\]\[15\] _0729_ VSS VSS VDD VDD _0091_ sky130_fd_sc_hd__nor2_1
X_1210_ net51 _0731_ VSS VSS VDD VDD _0092_ sky130_fd_sc_hd__nand2_1
X_1211_ _0702_ _0090_ _0091_ _0092_ VSS VSS VDD VDD _0026_
+ sky130_fd_sc_hd__o31ai_1
X_1212_ _0698_ mem\[15\]\[16\] mem\[14\]\[16\] _0647_ VSS
+ VSS VDD VDD _0093_ sky130_fd_sc_hd__a22oi_1
X_1213_ _0698_ mem\[7\]\[16\] mem\[6\]\[16\] _0706_ _0663_
+ VSS VSS VDD VDD _0094_ sky130_fd_sc_hd__a221oi_1
X_1214_ _0660_ _0093_ _0094_ VSS VSS VDD VDD _0095_ sky130_fd_sc_hd__a21oi_1
X_1215_ mem\[12\]\[16\] _0709_ _0710_ mem\[13\]\[16\] _0713_
+ VSS VSS VDD VDD _0096_ sky130_fd_sc_hd__a221oi_1
X_1216_ mem\[4\]\[16\] _0709_ _0710_ mem\[5\]\[16\] _0715_
+ VSS VSS VDD VDD _0097_ sky130_fd_sc_hd__a221oi_1
X_1217_ mem\[10\]\[16\] _0646_ _0717_ mem\[9\]\[16\] VSS VSS
+ VDD VDD _0098_ sky130_fd_sc_hd__a22oi_1
X_1218_ _0719_ mem\[3\]\[16\] mem\[2\]\[16\] _0666_ VSS VSS
+ VDD VDD _0099_ sky130_fd_sc_hd__a22oi_1
X_1219_ _0696_ _0098_ _0099_ _0721_ VSS VSS VDD VDD _0100_
+ sky130_fd_sc_hd__a22o_1
X_1220_ _0096_ _0097_ _0100_ VSS VSS VDD VDD _0101_ sky130_fd_sc_hd__nor3_1
X_1221_ _0682_ mem\[1\]\[16\] _0652_ _0686_ mem\[11\]\[16\]
+ VSS VSS VDD VDD _0102_ sky130_fd_sc_hd__a32oi_1
X_1222_ _0660_ mem\[8\]\[16\] _0670_ VSS VSS VDD VDD _0103_
+ sky130_fd_sc_hd__nand3_1
X_1223_ _0102_ _0103_ _0673_ VSS VSS VDD VDD _0104_ sky130_fd_sc_hd__a21oi_1
X_1224_ _0704_ _0095_ _0101_ _0104_ _0727_ VSS VSS VDD VDD
+ _0105_ sky130_fd_sc_hd__a2111oi_0
X_1225_ mem\[0\]\[16\] _0729_ VSS VSS VDD VDD _0106_ sky130_fd_sc_hd__nor2_1
X_1226_ net52 _0731_ VSS VSS VDD VDD _0107_ sky130_fd_sc_hd__nand2_1
X_1227_ _0702_ _0105_ _0106_ _0107_ VSS VSS VDD VDD _0027_
+ sky130_fd_sc_hd__o31ai_1
X_1228_ mem\[3\]\[17\] _0733_ _0734_ VSS VSS VDD VDD _0108_
+ sky130_fd_sc_hd__a21oi_1
X_1229_ _0736_ mem\[7\]\[17\] mem\[4\]\[17\] _0669_ _0737_
+ mem\[6\]\[17\] VSS VSS VDD VDD _0109_ sky130_fd_sc_hd__a222oi_1
X_1230_ mem\[10\]\[17\] _0741_ _0742_ VSS VSS VDD VDD _0110_
+ sky130_fd_sc_hd__a21oi_1
X_1231_ mem\[14\]\[17\] _0077_ _0744_ mem\[13\]\[17\] mem\[12\]\[17\]
+ _0651_ VSS VSS VDD VDD _0111_ sky130_fd_sc_hd__a222oi_1
X_1232_ _0108_ _0109_ _0110_ _0111_ VSS VSS VDD VDD _0112_
+ sky130_fd_sc_hd__a22oi_1
X_1233_ _0108_ _0110_ _0867_ VSS VSS VDD VDD _0113_ sky130_fd_sc_hd__o21ai_0
X_1234_ _0081_ mem\[1\]\[17\] _0652_ _0749_ mem\[11\]\[17\]
+ VSS VSS VDD VDD _0114_ sky130_fd_sc_hd__a32oi_1
X_1235_ _0752_ mem\[5\]\[17\] _0753_ VSS VSS VDD VDD _0115_
+ sky130_fd_sc_hd__and3_1
X_1236_ _0751_ mem\[2\]\[17\] _0683_ _0115_ VSS VSS VDD VDD
+ _0116_ sky130_fd_sc_hd__a31oi_1
X_1237_ _0665_ _0114_ _0116_ _0664_ VSS VSS VDD VDD _0117_
+ sky130_fd_sc_hd__o22ai_1
X_1238_ mem\[8\]\[17\] _0086_ _0675_ mem\[9\]\[17\] VSS VSS
+ VDD VDD _0118_ sky130_fd_sc_hd__a22oi_1
X_1239_ mem\[15\]\[17\] _0764_ VSS VSS VDD VDD _0119_ sky130_fd_sc_hd__nand2_1
X_1240_ _0758_ _0118_ _0119_ VSS VSS VDD VDD _0120_ sky130_fd_sc_hd__o21ai_0
X_1241_ _0112_ _0113_ _0727_ _0117_ _0120_ VSS VSS VDD VDD
+ _0121_ sky130_fd_sc_hd__a2111oi_0
X_1242_ mem\[0\]\[17\] _0729_ VSS VSS VDD VDD _0122_ sky130_fd_sc_hd__nor2_1
X_1243_ net53 _0731_ VSS VSS VDD VDD _0123_ sky130_fd_sc_hd__nand2_1
X_1244_ _0702_ _0121_ _0122_ _0123_ VSS VSS VDD VDD _0028_
+ sky130_fd_sc_hd__o31ai_1
X_1245_ _0698_ mem\[15\]\[18\] mem\[14\]\[18\] _0647_ VSS
+ VSS VDD VDD _0124_ sky130_fd_sc_hd__a22oi_1
X_1246_ _0698_ mem\[7\]\[18\] mem\[6\]\[18\] _0706_ _0663_
+ VSS VSS VDD VDD _0125_ sky130_fd_sc_hd__a221oi_1
X_1247_ _0660_ _0124_ _0125_ VSS VSS VDD VDD _0126_ sky130_fd_sc_hd__a21oi_1
X_1248_ mem\[12\]\[18\] _0709_ _0710_ mem\[13\]\[18\] _0713_
+ VSS VSS VDD VDD _0127_ sky130_fd_sc_hd__a221oi_1
X_1249_ mem\[4\]\[18\] _0709_ _0710_ mem\[5\]\[18\] _0715_
+ VSS VSS VDD VDD _0128_ sky130_fd_sc_hd__a221oi_1
X_1250_ mem\[10\]\[18\] _0646_ _0717_ mem\[9\]\[18\] VSS VSS
+ VDD VDD _0129_ sky130_fd_sc_hd__a22oi_1
X_1251_ _0637_ mem\[3\]\[18\] mem\[2\]\[18\] _0666_ VSS VSS
+ VDD VDD _0130_ sky130_fd_sc_hd__a22oi_1
X_1252_ _0696_ _0129_ _0130_ _0721_ VSS VSS VDD VDD _0131_
+ sky130_fd_sc_hd__a22o_1
X_1253_ _0127_ _0128_ _0131_ VSS VSS VDD VDD _0132_ sky130_fd_sc_hd__nor3_1
X_1254_ _0682_ mem\[1\]\[18\] _0652_ _0686_ mem\[11\]\[18\]
+ VSS VSS VDD VDD _0133_ sky130_fd_sc_hd__a32oi_1
X_1255_ _0811_ mem\[8\]\[18\] _0670_ VSS VSS VDD VDD _0134_
+ sky130_fd_sc_hd__nand3_1