
* cell clock_domain_crossing_fifo
* pin wr_data[27]
* pin wr_data[25]
* pin wr_data[23]
* pin rd_data[25]
* pin rd_data[27]
* pin rd_data[29]
* pin rd_data[31]
* pin wr_data[21]
* pin rd_data[23]
* pin wr_data[1]
* pin rd_data[21]
* pin wr_data[19]
* pin rd_data[1]
* pin wr_data[15]
* pin wr_data[17]
* pin rd_data[19]
* pin rd_data[15]
* pin wr_data[13]
* pin wr_data[11]
* pin wr_en
* pin wr_count[0]
* pin wr_count[2]
* pin wr_almost_full
* pin wr_count[3]
* pin wr_count[1]
* pin wr_count[4]
* pin wr_full
* pin wr_rst_n
* pin rd_clk
* pin rd_rst_n
* pin rd_data[17]
* pin rd_data[13]
* pin rd_data[11]
* pin wr_data[31]
* pin rd_empty
* pin wr_data[29]
* pin rd_count[3]
* pin rd_almost_empty
* pin rd_count[4]
* pin rd_en
* pin rd_count[2]
* pin wr_data[3]
* pin rd_count[1]
* pin rd_data[3]
* pin rd_count[0]
* pin rd_data[12]
* pin rd_data[5]
* pin rd_data[9]
* pin rd_data[0]
* pin wr_data[5]
* pin wr_data[0]
* pin wr_data[18]
* pin rd_data[7]
* pin wr_data[16]
* pin wr_data[30]
* pin wr_data[9]
* pin wr_data[7]
* pin wr_data[10]
* pin rd_data[8]
* pin rd_data[30]
* pin rd_data[16]
* pin rd_data[18]
* pin rd_data[10]
* pin wr_clk
* pin wr_data[2]
* pin wr_data[28]
* pin wr_data[26]
* pin wr_data[4]
* pin wr_data[6]
* pin wr_data[12]
* pin wr_data[24]
* pin wr_data[8]
* pin wr_data[22]
* pin wr_data[14]
* pin wr_data[20]
* pin rd_data[2]
* pin rd_data[28]
* pin rd_data[26]
* pin rd_data[4]
* pin rd_data[22]
* pin rd_data[20]
* pin rd_data[6]
* pin rd_data[24]
* pin rd_data[14]
.SUBCKT clock_domain_crossing_fifo 1 2 3 4 5 6 7 8 9 10 11 12 13 14 15 16 17 18
+ 19 20 21 22 23 24 25 26 27 243 466 467 497 511 512 616 643 661 669 670 691
+ 710 711 724 731 747 755 780 796 845 859 873 878 895 962 997 1019 1054 1087
+ 1092 1144 1161 1229 1343 1344 1567 1581 1582 1583 1585 1587 1588 1589 1590
+ 1592 1596 1597 1598 1599 1600 1601 1602 1603 1604 1605 1606
* net 1 wr_data[27]
* net 2 wr_data[25]
* net 3 wr_data[23]
* net 4 rd_data[25]
* net 5 rd_data[27]
* net 6 rd_data[29]
* net 7 rd_data[31]
* net 8 wr_data[21]
* net 9 rd_data[23]
* net 10 wr_data[1]
* net 11 rd_data[21]
* net 12 wr_data[19]
* net 13 rd_data[1]
* net 14 wr_data[15]
* net 15 wr_data[17]
* net 16 rd_data[19]
* net 17 rd_data[15]
* net 18 wr_data[13]
* net 19 wr_data[11]
* net 20 wr_en
* net 21 wr_count[0]
* net 22 wr_count[2]
* net 23 wr_almost_full
* net 24 wr_count[3]
* net 25 wr_count[1]
* net 26 wr_count[4]
* net 27 wr_full
* net 243 wr_rst_n
* net 466 rd_clk
* net 467 rd_rst_n
* net 497 rd_data[17]
* net 511 rd_data[13]
* net 512 rd_data[11]
* net 616 wr_data[31]
* net 643 rd_empty
* net 661 wr_data[29]
* net 669 rd_count[3]
* net 670 rd_almost_empty
* net 691 rd_count[4]
* net 710 rd_en
* net 711 rd_count[2]
* net 724 wr_data[3]
* net 731 rd_count[1]
* net 747 rd_data[3]
* net 755 rd_count[0]
* net 780 rd_data[12]
* net 796 rd_data[5]
* net 845 rd_data[9]
* net 859 rd_data[0]
* net 873 wr_data[5]
* net 878 wr_data[0]
* net 895 wr_data[18]
* net 962 rd_data[7]
* net 997 wr_data[16]
* net 1019 wr_data[30]
* net 1054 wr_data[9]
* net 1087 wr_data[7]
* net 1092 wr_data[10]
* net 1144 rd_data[8]
* net 1161 rd_data[30]
* net 1229 rd_data[16]
* net 1343 rd_data[18]
* net 1344 rd_data[10]
* net 1567 wr_clk
* net 1581 wr_data[2]
* net 1582 wr_data[28]
* net 1583 wr_data[26]
* net 1585 wr_data[4]
* net 1587 wr_data[6]
* net 1588 wr_data[12]
* net 1589 wr_data[24]
* net 1590 wr_data[8]
* net 1592 wr_data[22]
* net 1596 wr_data[14]
* net 1597 wr_data[20]
* net 1598 rd_data[2]
* net 1599 rd_data[28]
* net 1600 rd_data[26]
* net 1601 rd_data[4]
* net 1602 rd_data[22]
* net 1603 rd_data[20]
* net 1604 rd_data[6]
* net 1605 rd_data[24]
* net 1606 rd_data[14]
* cell instance $3 r0 *1 29.9,2.72
X$3 56 1 56 28 33 28 sky130_fd_sc_hd__buf_4
* cell instance $6 r0 *1 43.24,2.72
X$6 56 2 28 71 56 28 sky130_fd_sc_hd__clkbuf_4
* cell instance $9 r0 *1 63.02,2.72
X$9 56 3 28 39 56 28 sky130_fd_sc_hd__clkbuf_4
* cell instance $12 r0 *1 71.76,2.72
X$12 56 40 4 28 56 28 sky130_fd_sc_hd__clkbuf_1
* cell instance $15 r0 *1 73.14,2.72
X$15 56 34 5 28 56 28 sky130_fd_sc_hd__clkbuf_1
* cell instance $17 m0 *1 77.28,8.16
X$17 56 77 6 28 56 28 sky130_fd_sc_hd__clkbuf_1
* cell instance $21 m0 *1 74.98,8.16
X$21 56 108 7 28 56 28 sky130_fd_sc_hd__clkbuf_1
* cell instance $24 m0 *1 79.12,8.16
X$24 56 8 28 62 56 28 sky130_fd_sc_hd__clkbuf_4
* cell instance $26 r0 *1 84.64,2.72
X$26 56 35 9 28 56 28 sky130_fd_sc_hd__clkbuf_1
* cell instance $30 r0 *1 86.02,2.72
X$30 56 10 28 42 56 28 sky130_fd_sc_hd__clkbuf_4
* cell instance $33 r0 *1 96.6,2.72
X$33 56 84 11 28 56 28 sky130_fd_sc_hd__clkbuf_1
* cell instance $36 r0 *1 98.9,2.72
X$36 56 12 28 45 56 28 sky130_fd_sc_hd__clkbuf_4
* cell instance $39 m0 *1 110.4,8.16
X$39 56 47 13 28 56 28 sky130_fd_sc_hd__clkbuf_1
* cell instance $42 r0 *1 116.38,2.72
X$42 56 14 28 49 56 28 sky130_fd_sc_hd__clkbuf_4
* cell instance $45 r0 *1 130.18,2.72
X$45 56 15 28 50 56 28 sky130_fd_sc_hd__clkbuf_4
* cell instance $48 r0 *1 132.94,2.72
X$48 56 51 16 28 56 28 sky130_fd_sc_hd__clkbuf_1
* cell instance $51 r0 *1 135.24,2.72
X$51 56 48 17 28 56 28 sky130_fd_sc_hd__clkbuf_1
* cell instance $54 r0 *1 172.5,2.72
X$54 56 18 56 28 46 28 sky130_fd_sc_hd__buf_4
* cell instance $57 r0 *1 178.02,2.72
X$57 56 19 56 28 65 28 sky130_fd_sc_hd__buf_4
* cell instance $59 r0 *1 188.6,2.72
X$59 56 20 124 28 56 28 sky130_fd_sc_hd__clkbuf_1
* cell instance $63 r0 *1 192.74,2.72
X$63 56 41 21 28 56 28 sky130_fd_sc_hd__clkbuf_1
* cell instance $66 r0 *1 196.42,2.72
X$66 56 31 22 28 56 28 sky130_fd_sc_hd__clkbuf_1
* cell instance $68 r0 *1 197.8,2.72
X$68 56 32 23 28 56 28 sky130_fd_sc_hd__clkbuf_1
* cell instance $72 r0 *1 195.04,2.72
X$72 56 36 24 28 56 28 sky130_fd_sc_hd__clkbuf_1
* cell instance $75 r0 *1 202.4,2.72
X$75 56 37 25 28 56 28 sky130_fd_sc_hd__clkbuf_1
* cell instance $78 r0 *1 202.86,13.6
X$78 56 38 26 28 56 28 sky130_fd_sc_hd__clkbuf_1
* cell instance $81 m0 *1 189.06,8.16
X$81 56 69 27 28 56 28 sky130_fd_sc_hd__clkbuf_1
* cell instance $166 r0 *1 74.98,2.72
X$166 28 29 35 43 93 56 56 28 sky130_fd_sc_hd__dfrtp_1
* cell instance $174 r0 *1 101.66,2.72
X$174 28 29 47 43 44 56 56 28 sky130_fd_sc_hd__dfrtp_1
* cell instance $214 r0 *1 191.36,2.72
X$214 56 30 56 28 41 28 sky130_fd_sc_hd__inv_1
* cell instance $217 r0 *1 199.18,2.72
X$217 28 32 31 36 37 38 56 56 28 sky130_fd_sc_hd__a31o_1
* cell instance $245 m0 *1 34.5,8.16
X$245 28 60 73 75 71 56 56 28 sky130_fd_sc_hd__edfxtp_1
* cell instance $246 m0 *1 45.54,8.16
X$246 28 61 52 75 33 56 56 28 sky130_fd_sc_hd__edfxtp_1
* cell instance $248 m0 *1 57.04,8.16
X$248 56 52 82 58 28 56 28 sky130_fd_sc_hd__nor2_1
* cell instance $249 m0 *1 58.42,8.16
X$249 56 53 57 104 79 56 28 91 28 sky130_fd_sc_hd__o31ai_1
* cell instance $250 m0 *1 61.18,8.16
X$250 56 53 54 58 81 56 28 80 28 sky130_fd_sc_hd__o31ai_1
* cell instance $251 m0 *1 63.94,8.16
X$251 28 61 92 75 39 56 56 28 sky130_fd_sc_hd__edfxtp_1
* cell instance $255 m0 *1 82.34,8.16
X$255 56 35 63 94 56 28 28 sky130_fd_sc_hd__nand2_1
* cell instance $258 m0 *1 84.64,8.16
X$258 28 61 83 75 62 56 56 28 sky130_fd_sc_hd__edfxtp_1
* cell instance $259 m0 *1 95.68,8.16
X$259 28 61 76 55 42 56 56 28 sky130_fd_sc_hd__edfxtp_1
* cell instance $262 m0 *1 109.02,8.16
X$262 56 47 63 85 56 28 28 sky130_fd_sc_hd__nand2_1
* cell instance $264 m0 *1 112.24,8.16
X$264 28 60 59 55 45 56 56 28 sky130_fd_sc_hd__edfxtp_1
* cell instance $268 m0 *1 128.34,8.16
X$268 28 64 74 55 49 56 56 28 sky130_fd_sc_hd__edfxtp_1
* cell instance $270 m0 *1 139.84,8.16
X$270 28 64 72 55 50 56 56 28 sky130_fd_sc_hd__edfxtp_1
* cell instance $271 m0 *1 150.88,8.16
X$271 28 60 70 55 65 56 56 28 sky130_fd_sc_hd__edfxtp_1
* cell instance $286 m0 *1 191.82,8.16
X$286 56 68 56 28 90 28 sky130_fd_sc_hd__inv_1
* cell instance $290 m0 *1 195.04,8.16
X$290 56 66 68 31 56 28 28 sky130_fd_sc_hd__xnor2_1
* cell instance $291 m0 *1 198.26,8.16
X$291 56 100 67 36 56 28 28 sky130_fd_sc_hd__xnor2_1
* cell instance $309 r0 *1 31.74,8.16
X$309 28 78 101 75 71 56 56 28 sky130_fd_sc_hd__edfxtp_1
* cell instance $317 r0 *1 49.68,8.16
X$317 28 61 105 75 71 56 56 28 sky130_fd_sc_hd__edfxtp_1
* cell instance $319 r0 *1 61.18,8.16
X$319 28 29 34 43 80 56 56 28 sky130_fd_sc_hd__dfrtp_1
* cell instance $325 r0 *1 71.3,8.16
X$325 56 34 63 81 56 28 28 sky130_fd_sc_hd__nand2_1
* cell instance $327 r0 *1 73.14,8.16
X$327 56 92 82 107 28 56 28 sky130_fd_sc_hd__nor2_1
* cell instance $328 r0 *1 74.52,8.16
X$328 56 53 109 107 94 56 28 93 28 sky130_fd_sc_hd__o31ai_1
* cell instance $330 r0 *1 77.74,8.16
X$330 28 60 111 75 62 56 56 28 sky130_fd_sc_hd__edfxtp_1
* cell instance $333 r0 *1 94.3,8.16
X$333 56 83 82 95 28 56 28 sky130_fd_sc_hd__nor2_1
* cell instance $338 r0 *1 96.6,8.16
X$338 56 84 63 131 56 28 28 sky130_fd_sc_hd__nand2_1
* cell instance $342 r0 *1 101.2,8.16
X$342 56 53 115 114 85 56 28 44 28 sky130_fd_sc_hd__o31ai_1
* cell instance $343 r0 *1 103.96,8.16
X$343 56 76 82 114 28 56 28 sky130_fd_sc_hd__nor2_1
* cell instance $345 r0 *1 107.18,8.16
X$345 28 78 116 55 45 56 56 28 sky130_fd_sc_hd__edfxtp_1
* cell instance $352 r0 *1 126.04,8.16
X$352 28 78 117 55 49 56 56 28 sky130_fd_sc_hd__edfxtp_1
* cell instance $353 r0 *1 137.08,8.16
X$353 28 78 113 55 50 56 56 28 sky130_fd_sc_hd__edfxtp_1
* cell instance $361 r0 *1 153.64,8.16
X$361 28 60 110 55 46 56 56 28 sky130_fd_sc_hd__edfxtp_1
* cell instance $362 r0 *1 164.68,8.16
X$362 28 64 106 55 65 56 56 28 sky130_fd_sc_hd__edfxtp_1
* cell instance $373 r0 *1 189.06,8.16
X$373 56 86 99 69 28 56 28 sky130_fd_sc_hd__nor2_1
* cell instance $374 r0 *1 190.44,8.16
X$374 28 30 87 66 67 56 99 56 28 sky130_fd_sc_hd__nand4_2
* cell instance $375 r0 *1 195.04,8.16
X$375 56 90 66 88 28 56 103 28 sky130_fd_sc_hd__a21o_1
* cell instance $376 r0 *1 197.8,8.16
X$376 56 88 66 143 28 56 100 28 sky130_fd_sc_hd__a21oi_1
* cell instance $377 r0 *1 199.64,8.16
X$377 56 102 86 38 56 28 28 sky130_fd_sc_hd__xnor2_1
* cell instance $378 r0 *1 202.86,8.16
X$378 56 89 56 28 37 28 sky130_fd_sc_hd__inv_1
* cell instance $392 m0 *1 39.1,13.6
X$392 28 64 127 75 71 56 56 28 sky130_fd_sc_hd__edfxtp_1
* cell instance $399 m0 *1 59.34,13.6
X$399 56 105 82 104 28 56 28 sky130_fd_sc_hd__nor2_1
* cell instance $400 m0 *1 60.72,13.6
X$400 28 29 40 43 91 56 56 28 sky130_fd_sc_hd__dfrtp_1
* cell instance $401 m0 *1 69.92,13.6
X$401 56 40 63 79 56 28 28 sky130_fd_sc_hd__nand2_1
* cell instance $407 m0 *1 84.64,13.6
X$407 28 64 130 75 62 56 56 28 sky130_fd_sc_hd__edfxtp_1
* cell instance $408 m0 *1 95.68,13.6
X$408 56 53 112 95 131 56 28 132 28 sky130_fd_sc_hd__o31ai_1
* cell instance $409 m0 *1 98.44,13.6
X$409 28 29 84 43 132 56 56 28 sky130_fd_sc_hd__dfrtp_1
* cell instance $413 m0 *1 112.24,13.6
X$413 28 64 133 55 45 56 56 28 sky130_fd_sc_hd__edfxtp_1
* cell instance $414 m0 *1 123.28,13.6
X$414 28 60 97 55 49 56 56 28 sky130_fd_sc_hd__edfxtp_1
* cell instance $415 m0 *1 134.32,13.6
X$415 28 118 96 117 120 97 121 74 56 56 28 sky130_fd_sc_hd__a222oi_1
* cell instance $422 m0 *1 144.9,13.6
X$422 28 78 122 55 65 56 56 28 sky130_fd_sc_hd__edfxtp_1
* cell instance $425 m0 *1 157.32,13.6
X$425 28 129 96 122 120 70 121 106 56 56 28 sky130_fd_sc_hd__a222oi_1
* cell instance $433 m0 *1 172.5,13.6
X$433 56 128 56 28 123 28 sky130_fd_sc_hd__clkbuf_2
* cell instance $438 m0 *1 186.3,13.6
X$438 56 69 124 144 28 56 28 sky130_fd_sc_hd__nor2b_1
* cell instance $439 m0 *1 188.6,13.6
X$439 28 99 124 86 98 56 56 28 sky130_fd_sc_hd__o21ai_4
* cell instance $441 m0 *1 195.04,13.6
X$441 56 126 67 103 28 56 102 28 sky130_fd_sc_hd__a21oi_1
* cell instance $442 m0 *1 196.88,13.6
X$442 28 68 89 125 151 152 56 56 28 sky130_fd_sc_hd__fa_1
* cell instance $456 r0 *1 26.22,13.6
X$456 28 134 154 75 33 56 56 28 sky130_fd_sc_hd__edfxtp_1
* cell instance $465 r0 *1 48.3,13.6
X$465 28 261 96 101 120 73 135 127 56 56 28 sky130_fd_sc_hd__a222oi_1
* cell instance $466 r0 *1 51.98,13.6
X$466 28 119 157 75 39 56 56 28 sky130_fd_sc_hd__edfxtp_1
* cell instance $475 r0 *1 75.9,13.6
X$475 28 78 136 75 62 56 56 28 sky130_fd_sc_hd__edfxtp_1
* cell instance $477 r0 *1 87.86,13.6
X$477 28 159 96 136 120 111 121 130 56 56 28 sky130_fd_sc_hd__a222oi_1
* cell instance $490 r0 *1 117.3,13.6
X$490 28 163 96 116 120 59 121 133 56 56 28 sky130_fd_sc_hd__a222oi_1
* cell instance $499 r0 *1 134.32,13.6
X$499 28 60 137 55 50 56 56 28 sky130_fd_sc_hd__edfxtp_1
* cell instance $501 r0 *1 147.2,13.6
X$501 28 310 96 113 120 137 121 72 56 56 28 sky130_fd_sc_hd__a222oi_1
* cell instance $508 r0 *1 154.1,13.6
X$508 28 64 164 55 46 56 56 28 sky130_fd_sc_hd__edfxtp_1
* cell instance $509 r0 *1 165.14,13.6
X$509 56 125 140 162 56 138 28 28 sky130_fd_sc_hd__o21ai_0
* cell instance $510 r0 *1 166.98,13.6
X$510 56 98 123 160 56 28 28 sky130_fd_sc_hd__xnor2_1
* cell instance $511 r0 *1 170.2,13.6
X$511 28 147 139 55 138 56 56 28 sky130_fd_sc_hd__dfrtp_4
* cell instance $515 r0 *1 181.24,13.6
X$515 56 139 141 123 140 56 183 28 28 sky130_fd_sc_hd__nand4_1
* cell instance $517 r0 *1 184.46,13.6
X$517 56 144 28 140 56 28 sky130_fd_sc_hd__clkbuf_4
* cell instance $520 r0 *1 189.52,13.6
X$520 28 67 126 149 156 56 56 28 sky130_fd_sc_hd__ha_1
* cell instance $521 r0 *1 194.12,13.6
X$521 28 87 150 139 155 56 56 28 sky130_fd_sc_hd__ha_1
* cell instance $522 r0 *1 198.72,13.6
X$522 56 142 87 150 28 56 143 28 sky130_fd_sc_hd__a21o_1
* cell instance $523 r0 *1 201.48,13.6
X$523 56 152 56 28 142 28 sky130_fd_sc_hd__inv_1
* cell instance $544 m0 *1 39.56,19.04
X$544 28 134 168 75 71 56 56 28 sky130_fd_sc_hd__edfxtp_1
* cell instance $553 m0 *1 63.94,19.04
X$553 28 78 170 75 39 56 56 28 sky130_fd_sc_hd__edfxtp_1
* cell instance $561 m0 *1 95.68,19.04
X$561 28 64 172 55 42 56 56 28 sky130_fd_sc_hd__edfxtp_1
* cell instance $572 m0 *1 128.34,19.04
X$572 28 134 171 55 49 56 56 28 sky130_fd_sc_hd__edfxtp_1
* cell instance $578 m0 *1 152.72,19.04
X$578 28 78 169 55 46 56 56 28 sky130_fd_sc_hd__edfxtp_1
* cell instance $580 m0 *1 165.6,19.04
X$580 56 161 140 162 56 28 28 sky130_fd_sc_hd__nand2_1
* cell instance $583 m0 *1 168.36,19.04
X$583 28 161 146 145 125 56 56 28 sky130_fd_sc_hd__ha_1
* cell instance $584 m0 *1 172.96,19.04
X$584 28 146 147 56 148 56 28 sky130_fd_sc_hd__nand2_8
* cell instance $585 m0 *1 180.32,19.04
X$585 28 147 149 55 158 56 56 28 sky130_fd_sc_hd__dfrtp_1
* cell instance $586 m0 *1 189.52,19.04
X$586 56 149 28 167 56 28 sky130_fd_sc_hd__clkbuf_4
* cell instance $590 m0 *1 195.04,19.04
X$590 28 30 152 145 153 56 56 28 sky130_fd_sc_hd__ha_1
* cell instance $591 m0 *1 199.64,19.04
X$591 56 155 56 28 151 28 sky130_fd_sc_hd__inv_1
* cell instance $605 r0 *1 20.7,19.04
X$605 28 175 173 75 33 56 56 28 sky130_fd_sc_hd__edfxtp_1
* cell instance $606 r0 *1 31.74,19.04
X$606 28 119 196 75 71 56 56 28 sky130_fd_sc_hd__edfxtp_1
* cell instance $614 r0 *1 53.82,19.04
X$614 28 134 199 75 39 56 56 28 sky130_fd_sc_hd__edfxtp_1
* cell instance $621 r0 *1 72.22,19.04
X$621 28 218 96 170 120 174 121 184 56 56 28 sky130_fd_sc_hd__a222oi_1
* cell instance $622 r0 *1 75.9,19.04
X$622 28 175 203 75 62 56 56 28 sky130_fd_sc_hd__edfxtp_1
* cell instance $623 r0 *1 86.94,19.04
X$623 28 78 176 55 42 56 56 28 sky130_fd_sc_hd__edfxtp_1
* cell instance $627 r0 *1 102.12,19.04
X$627 28 316 96 176 120 165 121 172 56 56 28 sky130_fd_sc_hd__a222oi_1
* cell instance $628 r0 *1 105.8,19.04
X$628 28 119 187 55 45 56 56 28 sky130_fd_sc_hd__edfxtp_1
* cell instance $635 r0 *1 126.04,19.04
X$635 28 175 204 55 49 56 56 28 sky130_fd_sc_hd__edfxtp_1
* cell instance $636 r0 *1 137.08,19.04
X$636 28 134 201 55 50 56 56 28 sky130_fd_sc_hd__edfxtp_1
* cell instance $645 r0 *1 156.86,19.04
X$645 28 386 166 177 186 178 179 185 56 56 28 sky130_fd_sc_hd__a222oi_1
* cell instance $647 r0 *1 161,19.04
X$647 28 180 96 169 120 110 121 164 56 56 28 sky130_fd_sc_hd__a222oi_1
* cell instance $650 r0 *1 166.06,19.04
X$650 28 147 128 55 160 56 56 28 sky130_fd_sc_hd__dfrtp_1
* cell instance $651 r0 *1 175.26,19.04
X$651 28 1609 211 128 139 56 56 28 sky130_fd_sc_hd__ha_1
* cell instance $655 r0 *1 181.24,19.04
X$655 56 183 167 158 56 28 28 sky130_fd_sc_hd__xnor2_1
* cell instance $656 r0 *1 184.46,19.04
X$656 56 139 56 28 125 28 sky130_fd_sc_hd__clkinvlp_4
* cell instance $657 r0 *1 187.22,19.04
X$657 56 123 56 28 145 28 sky130_fd_sc_hd__inv_1
* cell instance $658 r0 *1 188.6,19.04
X$658 56 181 28 141 56 28 sky130_fd_sc_hd__clkbuf_4
* cell instance $659 r0 *1 191.36,19.04
X$659 56 123 181 167 139 56 192 28 28 sky130_fd_sc_hd__nand4_1
* cell instance $660 r0 *1 193.66,19.04
X$660 28 66 88 181 191 56 56 28 sky130_fd_sc_hd__ha_1
* cell instance $661 r0 *1 198.26,19.04
X$661 56 155 182 153 56 28 28 sky130_fd_sc_hd__xnor2_1
* cell instance $683 m0 *1 15.18,24.48
X$683 28 64 193 75 33 56 56 28 sky130_fd_sc_hd__edfxtp_1
* cell instance $690 m0 *1 38.64,24.48
X$690 28 175 195 75 71 56 56 28 sky130_fd_sc_hd__edfxtp_1
* cell instance $699 m0 *1 62.1,24.48
X$699 28 60 174 75 39 56 56 28 sky130_fd_sc_hd__edfxtp_1
* cell instance $700 m0 *1 73.14,24.48
X$700 28 119 202 75 62 56 56 28 sky130_fd_sc_hd__edfxtp_1
* cell instance $703 m0 *1 85.56,24.48
X$703 28 213 202 188 203 178 189 190 56 56 28 sky130_fd_sc_hd__a222oi_1
* cell instance $706 m0 *1 94.76,24.48
X$706 28 60 165 55 42 56 56 28 sky130_fd_sc_hd__edfxtp_1
* cell instance $711 m0 *1 112.24,24.48
X$711 28 134 214 55 45 56 56 28 sky130_fd_sc_hd__edfxtp_1
* cell instance $712 m0 *1 123.28,24.48
X$712 28 119 205 55 49 56 56 28 sky130_fd_sc_hd__edfxtp_1
* cell instance $713 m0 *1 134.32,24.48
X$713 28 215 205 177 204 178 171 190 56 56 28 sky130_fd_sc_hd__a222oi_1
* cell instance $717 m0 *1 139.84,24.48
X$717 28 175 200 55 50 56 56 28 sky130_fd_sc_hd__edfxtp_1
* cell instance $718 m0 *1 150.88,24.48
X$718 28 119 166 55 65 56 56 28 sky130_fd_sc_hd__edfxtp_1
* cell instance $720 m0 *1 162.38,24.48
X$720 28 1608 212 128 125 56 56 28 sky130_fd_sc_hd__ha_1
* cell instance $722 m0 *1 167.44,24.48
X$722 28 140 167 198 141 56 56 28 sky130_fd_sc_hd__nand3b_4
* cell instance $723 m0 *1 174.8,24.48
X$723 56 161 194 56 197 28 28 sky130_fd_sc_hd__xor2_1
* cell instance $724 m0 *1 178.02,24.48
X$724 56 161 123 56 409 28 28 sky130_fd_sc_hd__xor2_1
* cell instance $726 m0 *1 182.16,24.48
X$726 28 147 181 55 210 56 56 28 sky130_fd_sc_hd__dfrtp_1
* cell instance $727 m0 *1 191.36,24.48
X$727 56 194 192 167 141 208 28 56 28 sky130_fd_sc_hd__o22ai_1
* cell instance $733 m0 *1 198.26,24.48
X$733 56 191 244 56 155 28 28 sky130_fd_sc_hd__xor2_1
* cell instance $738 r0 *1 4.14,24.48
X$738 28 78 225 75 33 56 56 28 sky130_fd_sc_hd__edfxtp_1
* cell instance $745 r0 *1 22.54,24.48
X$745 28 119 209 75 33 56 56 28 sky130_fd_sc_hd__edfxtp_1
* cell instance $747 r0 *1 34.5,24.48
X$747 28 227 209 188 173 178 154 190 56 56 28 sky130_fd_sc_hd__a222oi_1
* cell instance $753 r0 *1 46.92,24.48
X$753 28 228 196 188 195 178 168 190 56 56 28 sky130_fd_sc_hd__a222oi_1
* cell instance $756 r0 *1 52.9,24.48
X$756 28 175 206 75 39 56 56 28 sky130_fd_sc_hd__edfxtp_1
* cell instance $757 r0 *1 63.94,24.48
X$757 28 217 157 188 206 178 199 190 56 56 28 sky130_fd_sc_hd__a222oi_1
* cell instance $762 r0 *1 70.84,24.48
X$762 28 64 184 75 39 56 56 28 sky130_fd_sc_hd__edfxtp_1
* cell instance $763 r0 *1 81.88,24.48
X$763 28 134 189 75 62 56 56 28 sky130_fd_sc_hd__edfxtp_1
* cell instance $772 r0 *1 107.64,24.48
X$772 28 175 230 55 45 56 56 28 sky130_fd_sc_hd__edfxtp_1
* cell instance $782 r0 *1 132.48,24.48
X$782 28 119 207 55 50 56 56 28 sky130_fd_sc_hd__edfxtp_1
* cell instance $783 r0 *1 143.52,24.48
X$783 28 229 207 177 200 178 201 190 56 56 28 sky130_fd_sc_hd__a222oi_1
* cell instance $789 r0 *1 153.64,24.48
X$789 28 134 179 55 65 56 56 28 sky130_fd_sc_hd__edfxtp_1
* cell instance $790 r0 *1 164.68,24.48
X$790 28 212 147 56 219 56 28 sky130_fd_sc_hd__nand2_8
* cell instance $791 r0 *1 172.04,24.48
X$791 28 1610 226 145 139 56 56 28 sky130_fd_sc_hd__ha_1
* cell instance $792 r0 *1 176.64,24.48
X$792 56 194 140 224 56 28 28 sky130_fd_sc_hd__nand2_1
* cell instance $794 r0 *1 178.02,24.48
X$794 56 211 28 194 56 28 sky130_fd_sc_hd__clkbuf_4
* cell instance $796 r0 *1 181.24,24.48
X$796 56 224 141 210 56 28 28 sky130_fd_sc_hd__xnor2_1
* cell instance $797 r0 *1 184.46,24.48
X$797 28 194 147 56 223 56 28 sky130_fd_sc_hd__nand2_8
* cell instance $798 r0 *1 191.82,24.48
X$798 56 246 208 222 28 56 28 sky130_fd_sc_hd__nor2_1
* cell instance $799 r0 *1 193.2,24.48
X$799 28 147 182 242 220 56 56 28 sky130_fd_sc_hd__dfrtp_1
* cell instance $820 m0 *1 13.8,29.92
X$820 28 60 232 75 33 56 56 28 sky130_fd_sc_hd__edfxtp_1
* cell instance $821 m0 *1 24.84,29.92
X$821 28 233 96 225 245 232 135 193 56 56 28 sky130_fd_sc_hd__a222oi_1
* cell instance $826 m0 *1 30.82,29.92
X$826 28 216 249 75 33 56 56 28 sky130_fd_sc_hd__edfxtp_1
* cell instance $829 m0 *1 43.24,29.92
X$829 28 216 250 75 71 56 56 28 sky130_fd_sc_hd__edfxtp_1
* cell instance $836 m0 *1 63.02,29.92
X$836 28 216 251 75 39 56 56 28 sky130_fd_sc_hd__edfxtp_1
* cell instance $837 m0 *1 74.06,29.92
X$837 56 217 236 264 218 56 231 28 28 sky130_fd_sc_hd__a22oi_1
* cell instance $843 m0 *1 92,29.92
X$843 28 119 254 55 42 56 56 28 sky130_fd_sc_hd__edfxtp_1
* cell instance $850 m0 *1 115.92,29.92
X$850 28 255 187 177 230 178 214 190 56 56 28 sky130_fd_sc_hd__a222oi_1
* cell instance $853 m0 *1 120.98,29.92
X$853 28 239 252 55 49 56 56 28 sky130_fd_sc_hd__edfxtp_1
* cell instance $860 m0 *1 145.82,29.92
X$860 56 240 56 28 190 28 sky130_fd_sc_hd__buf_4
* cell instance $861 m0 *1 148.58,29.92
X$861 28 175 186 55 65 56 56 28 sky130_fd_sc_hd__edfxtp_1
* cell instance $862 m0 *1 159.62,29.92
X$862 28 241 219 175 56 56 28 sky130_fd_sc_hd__nor2_8
* cell instance $864 m0 *1 167.44,29.92
X$864 56 240 56 28 96 28 sky130_fd_sc_hd__buf_4
* cell instance $865 m0 *1 170.2,29.92
X$865 28 226 147 56 337 56 28 sky130_fd_sc_hd__nand2_8
* cell instance $867 m0 *1 178.02,29.92
X$867 28 241 148 119 56 56 28 sky130_fd_sc_hd__nor2_8
* cell instance $868 m0 *1 185.38,29.92
X$868 28 147 220 242 248 56 56 28 sky130_fd_sc_hd__dfrtp_1
* cell instance $870 m0 *1 195.04,29.92
X$870 56 123 139 221 56 28 28 sky130_fd_sc_hd__nand2_1
* cell instance $872 m0 *1 196.88,29.92
X$872 28 243 147 56 56 28 sky130_fd_sc_hd__buf_12
* cell instance $885 r0 *1 28.06,29.92
X$885 28 239 275 75 33 56 56 28 sky130_fd_sc_hd__edfxtp_1
* cell instance $886 r0 *1 39.1,29.92
X$886 56 227 256 234 233 56 274 28 28 sky130_fd_sc_hd__a22oi_1
* cell instance $890 r0 *1 43.24,29.92
X$890 28 239 277 75 71 56 56 28 sky130_fd_sc_hd__edfxtp_1
* cell instance $891 r0 *1 54.28,29.92
X$891 56 235 250 257 28 56 260 28 sky130_fd_sc_hd__a21oi_1
* cell instance $903 r0 *1 74.06,29.92
X$903 28 109 304 281 282 265 231 56 56 28 sky130_fd_sc_hd__a2111oi_1
* cell instance $905 r0 *1 79.58,29.92
X$905 28 216 237 75 62 56 56 28 sky130_fd_sc_hd__edfxtp_1
* cell instance $906 r0 *1 90.62,29.92
X$906 56 235 237 257 28 56 284 28 sky130_fd_sc_hd__a21oi_1
* cell instance $914 r0 *1 104.42,29.92
X$914 28 286 254 188 287 178 238 190 56 56 28 sky130_fd_sc_hd__a222oi_1
* cell instance $915 r0 *1 108.1,29.92
X$915 28 239 285 55 45 56 56 28 sky130_fd_sc_hd__edfxtp_1
* cell instance $924 r0 *1 129.26,29.92
X$924 56 215 253 295 118 56 417 28 28 sky130_fd_sc_hd__a22oi_1
* cell instance $927 r0 *1 133.4,29.92
X$927 28 216 279 55 50 56 56 28 sky130_fd_sc_hd__edfxtp_1
* cell instance $934 r0 *1 153.64,29.92
X$934 28 240 185 56 56 28 sky130_fd_sc_hd__buf_6
* cell instance $935 r0 *1 157.78,29.92
X$935 28 134 276 55 46 56 56 28 sky130_fd_sc_hd__edfxtp_1
* cell instance $936 r0 *1 168.82,29.92
X$936 28 223 198 64 56 56 28 sky130_fd_sc_hd__nor2_8
* cell instance $938 r0 *1 177.1,29.92
X$938 56 197 141 400 56 28 28 sky130_fd_sc_hd__xnor2_1
* cell instance $942 r0 *1 181.24,29.92
X$942 28 148 271 61 56 56 28 sky130_fd_sc_hd__nor2_8
* cell instance $943 r0 *1 188.6,29.92
X$943 56 221 167 247 28 56 246 28 sky130_fd_sc_hd__a21boi_0
* cell instance $944 r0 *1 191.36,29.92
X$944 56 181 194 247 56 28 28 sky130_fd_sc_hd__nand2_1
* cell instance $946 r0 *1 193.2,29.92
X$946 28 147 244 242 272 56 56 28 sky130_fd_sc_hd__dfrtp_1
* cell instance $967 m0 *1 13.8,35.36
X$967 28 299 301 75 33 56 56 28 sky130_fd_sc_hd__edfxtp_1
* cell instance $974 m0 *1 37.72,35.36
X$974 28 54 273 324 265 274 289 56 56 28 sky130_fd_sc_hd__a2111oi_2
* cell instance $975 m0 *1 43.24,35.36
X$975 56 235 249 257 28 56 256 28 sky130_fd_sc_hd__a21oi_1
* cell instance $976 m0 *1 45.08,35.36
X$976 56 258 275 290 28 56 234 28 sky130_fd_sc_hd__a21oi_1
* cell instance $979 m0 *1 48.3,35.36
X$979 56 228 260 262 261 56 259 28 28 sky130_fd_sc_hd__a22oi_1
* cell instance $980 m0 *1 51.06,35.36
X$980 56 258 277 290 28 56 262 28 sky130_fd_sc_hd__a21oi_1
* cell instance $983 m0 *1 54.28,35.36
X$983 56 262 260 263 56 302 28 28 sky130_fd_sc_hd__o21ai_0
* cell instance $987 m0 *1 57.5,35.36
X$987 28 299 278 75 39 56 56 28 sky130_fd_sc_hd__edfxtp_1
* cell instance $988 m0 *1 68.54,35.36
X$988 28 239 266 75 39 56 56 28 sky130_fd_sc_hd__edfxtp_1
* cell instance $989 m0 *1 79.58,35.36
X$989 56 258 266 267 28 56 264 28 sky130_fd_sc_hd__a21oi_1
* cell instance $995 m0 *1 86.94,35.36
X$995 56 213 284 268 159 56 291 28 28 sky130_fd_sc_hd__a22oi_1
* cell instance $996 m0 *1 89.7,35.36
X$996 56 258 306 267 28 56 268 28 sky130_fd_sc_hd__a21oi_1
* cell instance $997 m0 *1 91.54,35.36
X$997 56 268 284 263 56 307 28 28 sky130_fd_sc_hd__o21ai_0
* cell instance $1000 m0 *1 95.68,35.36
X$1000 28 175 287 55 42 56 56 28 sky130_fd_sc_hd__edfxtp_1
* cell instance $1005 m0 *1 112.24,35.36
X$1005 28 216 283 55 45 56 56 28 sky130_fd_sc_hd__edfxtp_1
* cell instance $1006 m0 *1 123.28,35.36
X$1006 28 216 269 55 49 56 56 28 sky130_fd_sc_hd__edfxtp_1
* cell instance $1007 m0 *1 134.32,35.36
X$1007 56 270 269 257 28 56 253 28 sky130_fd_sc_hd__a21oi_1
* cell instance $1013 m0 *1 140.76,35.36
X$1013 56 270 279 257 28 56 280 28 sky130_fd_sc_hd__a21oi_1
* cell instance $1014 m0 *1 142.6,35.36
X$1014 56 229 280 317 310 56 439 28 28 sky130_fd_sc_hd__a22oi_1
* cell instance $1017 m0 *1 146.74,35.36
X$1017 28 119 309 55 46 56 56 28 sky130_fd_sc_hd__edfxtp_1
* cell instance $1023 m0 *1 168.36,35.36
X$1023 28 167 141 305 140 56 56 28 sky130_fd_sc_hd__nand3b_4
* cell instance $1024 m0 *1 175.72,35.36
X$1024 28 241 223 288 56 56 28 sky130_fd_sc_hd__nor2_8
* cell instance $1025 m0 *1 183.08,35.36
X$1025 56 194 141 167 140 56 357 28 28 sky130_fd_sc_hd__nand4_1
* cell instance $1026 m0 *1 185.38,35.36
X$1026 28 147 272 242 296 56 56 28 sky130_fd_sc_hd__dfrtp_1
* cell instance $1028 m0 *1 195.04,35.36
X$1028 28 147 297 242 298 56 56 28 sky130_fd_sc_hd__dfrtp_1
* cell instance $1041 r0 *1 21.62,35.36
X$1041 28 288 323 75 33 56 56 28 sky130_fd_sc_hd__edfxtp_1
* cell instance $1045 r0 *1 40.94,35.36
X$1045 56 234 256 263 56 289 28 28 sky130_fd_sc_hd__o21ai_0
* cell instance $1053 r0 *1 54.28,35.36
X$1053 28 57 302 326 328 265 259 56 56 28 sky130_fd_sc_hd__a2111oi_1
* cell instance $1056 r0 *1 59.34,35.36
X$1056 28 303 330 75 39 56 56 28 sky130_fd_sc_hd__edfxtp_1
* cell instance $1063 r0 *1 73.6,35.36
X$1063 56 235 251 257 28 56 236 28 sky130_fd_sc_hd__a21oi_1
* cell instance $1064 r0 *1 75.44,35.36
X$1064 56 264 236 263 56 304 28 28 sky130_fd_sc_hd__o21ai_0
* cell instance $1066 r0 *1 79.12,35.36
X$1066 28 239 306 75 62 56 56 28 sky130_fd_sc_hd__edfxtp_1
* cell instance $1067 r0 *1 90.16,35.36
X$1067 28 112 307 367 331 265 291 56 56 28 sky130_fd_sc_hd__a2111oi_1
* cell instance $1074 r0 *1 98.44,35.36
X$1074 28 134 238 55 42 56 56 28 sky130_fd_sc_hd__edfxtp_1
* cell instance $1077 r0 *1 115,35.36
X$1077 56 258 285 267 28 56 292 28 sky130_fd_sc_hd__a21oi_1
* cell instance $1078 r0 *1 116.84,35.36
X$1078 56 255 293 292 163 56 374 28 28 sky130_fd_sc_hd__a22oi_1
* cell instance $1079 r0 *1 119.6,35.36
X$1079 56 292 293 294 56 393 28 28 sky130_fd_sc_hd__o21ai_0
* cell instance $1080 r0 *1 121.44,35.36
X$1080 56 270 283 257 28 56 293 28 sky130_fd_sc_hd__a21oi_1
* cell instance $1088 r0 *1 129.72,35.36
X$1088 56 295 253 294 56 452 28 28 sky130_fd_sc_hd__o21ai_0
* cell instance $1089 r0 *1 131.56,35.36
X$1089 56 258 252 267 28 56 295 28 sky130_fd_sc_hd__a21oi_1
* cell instance $1091 r0 *1 133.86,35.36
X$1091 28 239 329 55 50 56 56 28 sky130_fd_sc_hd__edfxtp_1
* cell instance $1093 r0 *1 145.82,35.36
X$1093 28 148 198 60 56 56 28 sky130_fd_sc_hd__nor2_8
* cell instance $1100 r0 *1 155.94,35.36
X$1100 28 325 309 177 308 178 276 185 56 56 28 sky130_fd_sc_hd__a222oi_1
* cell instance $1101 r0 *1 159.62,35.36
X$1101 28 219 305 303 56 56 28 sky130_fd_sc_hd__nor2_8
* cell instance $1102 r0 *1 166.98,35.36
X$1102 28 271 223 239 56 56 28 sky130_fd_sc_hd__nor2_8
* cell instance $1103 r0 *1 174.34,35.36
X$1103 28 140 167 141 56 241 56 28 sky130_fd_sc_hd__nand3_4
* cell instance $1108 r0 *1 181.24,35.36
X$1108 56 319 318 321 56 28 28 sky130_fd_sc_hd__xnor2_1
* cell instance $1109 r0 *1 184.46,35.36
X$1109 56 194 167 318 56 28 28 sky130_fd_sc_hd__xnor2_1
* cell instance $1110 r0 *1 187.68,35.36
X$1110 28 147 298 242 300 56 56 28 sky130_fd_sc_hd__dfrtp_1
* cell instance $1113 r0 *1 198.26,35.36
X$1113 56 156 297 56 191 28 28 sky130_fd_sc_hd__xor2_1
* cell instance $1119 m0 *1 12.42,40.8
X$1119 28 303 341 75 33 56 56 28 sky130_fd_sc_hd__edfxtp_1
* cell instance $1121 m0 *1 24.38,40.8
X$1121 56 341 333 301 311 56 320 28 28 sky130_fd_sc_hd__a22oi_1
* cell instance $1125 m0 *1 29.9,40.8
X$1125 56 342 322 320 56 28 324 28 sky130_fd_sc_hd__o21ai_1
* cell instance $1126 m0 *1 31.74,40.8
X$1126 56 323 312 322 56 28 28 sky130_fd_sc_hd__nand2_1
* cell instance $1128 m0 *1 33.58,40.8
X$1128 56 245 56 28 311 28 sky130_fd_sc_hd__buf_4
* cell instance $1132 m0 *1 42.78,40.8
X$1132 28 288 334 75 71 56 56 28 sky130_fd_sc_hd__edfxtp_1
* cell instance $1133 m0 *1 53.82,40.8
X$1133 56 313 344 327 56 326 28 28 sky130_fd_sc_hd__o21ai_0
* cell instance $1136 m0 *1 57.04,40.8
X$1136 56 334 312 327 56 28 28 sky130_fd_sc_hd__nand2_1
* cell instance $1141 m0 *1 68.54,40.8
X$1141 56 330 333 278 311 56 314 28 28 sky130_fd_sc_hd__a22oi_1
* cell instance $1143 m0 *1 71.76,40.8
X$1143 56 313 314 346 56 281 28 28 sky130_fd_sc_hd__o21ai_0
* cell instance $1156 m0 *1 103.96,40.8