
* cell parameterized_uart_rx
* pin clk
* pin parity_error
* pin data_out[4]
* pin data_out[2]
* pin data_valid
* pin data_out[1]
* pin rx
* pin rst_n
* pin data_out[6]
* pin data_out[0]
* pin frame_error
* pin data_out[7]
* pin data_out[3]
* pin data_out[5]
.SUBCKT parameterized_uart_rx 284 300 320 355 361 383 393 411 412 413 414 415
+ 416 417
* net 284 clk
* net 300 parity_error
* net 320 data_out[4]
* net 355 data_out[2]
* net 361 data_valid
* net 383 data_out[1]
* net 393 rx
* net 411 rst_n
* net 412 data_out[6]
* net 413 data_out[0]
* net 414 frame_error
* net 415 data_out[7]
* net 416 data_out[3]
* net 417 data_out[5]
* cell instance $24 r0 *1 29.9,2.72
X$24 1 2 8 6 51 11 11 1 sky130_fd_sc_hd__dfrtp_1
* cell instance $35 r0 *1 60.72,2.72
X$35 1 2 4 7 3 11 11 1 sky130_fd_sc_hd__dfrtp_2
* cell instance $45 m0 *1 7.36,8.16
X$45 1 2 17 6 24 11 11 1 sky130_fd_sc_hd__dfrtp_2
* cell instance $48 m0 *1 17.02,8.16
X$48 1 2 20 6 27 11 11 1 sky130_fd_sc_hd__dfrtp_1
* cell instance $55 m0 *1 37.72,8.16
X$55 1 2 21 7 12 11 11 1 sky130_fd_sc_hd__dfrtp_1
* cell instance $58 m0 *1 46.92,8.16
X$58 1 2 23 7 28 11 11 1 sky130_fd_sc_hd__dfrtp_2
* cell instance $60 m0 *1 57.04,8.16
X$60 11 5 15 9 11 26 1 1 sky130_fd_sc_hd__o21ai_0
* cell instance $62 m0 *1 60.72,8.16
X$62 11 14 11 1 10 1 sky130_fd_sc_hd__buf_4
* cell instance $66 m0 *1 68.54,8.16
X$66 1 2 13 7 25 11 11 1 sky130_fd_sc_hd__dfrtp_1
* cell instance $69 m0 *1 77.74,8.16
X$69 11 13 11 1 48 1 sky130_fd_sc_hd__buf_4
* cell instance $74 r0 *1 10.12,8.16
X$74 11 16 35 29 11 24 1 1 sky130_fd_sc_hd__o21ai_0
* cell instance $75 r0 *1 11.96,8.16
X$75 11 16 67 30 11 74 1 1 sky130_fd_sc_hd__o21ai_0
* cell instance $76 r0 *1 13.8,8.16
X$76 11 17 11 1 16 1 sky130_fd_sc_hd__inv_1
* cell instance $79 r0 *1 15.64,8.16
X$79 11 17 18 37 1 11 1 sky130_fd_sc_hd__nor2_1
* cell instance $81 r0 *1 17.94,8.16
X$81 11 18 19 20 11 39 1 1 sky130_fd_sc_hd__o21ai_0
* cell instance $82 r0 *1 19.78,8.16
X$82 11 17 30 19 11 1 1 sky130_fd_sc_hd__nand2_1
* cell instance $83 r0 *1 21.16,8.16
X$83 11 20 18 19 42 1 11 1 sky130_fd_sc_hd__nor3_1
* cell instance $84 r0 *1 23,8.16
X$84 1 2 31 6 40 11 11 1 sky130_fd_sc_hd__dfrtp_1
* cell instance $87 r0 *1 33.58,8.16
X$87 11 76 52 40 11 1 1 sky130_fd_sc_hd__nand2_1
* cell instance $89 r0 *1 35.42,8.16
X$89 11 53 21 32 11 1 1 sky130_fd_sc_hd__xnor2_1
* cell instance $90 r0 *1 38.64,8.16
X$90 11 32 33 21 22 1 12 11 1 sky130_fd_sc_hd__a22o_1
* cell instance $94 r0 *1 43.24,8.16
X$94 1 93 31 8 21 11 11 1 sky130_fd_sc_hd__nand3_2
* cell instance $95 r0 *1 46.92,8.16
X$95 11 34 33 23 22 1 28 11 1 sky130_fd_sc_hd__a22o_1
* cell instance $96 r0 *1 50.14,8.16
X$96 11 50 23 11 34 1 1 sky130_fd_sc_hd__xor2_1
* cell instance $97 r0 *1 53.36,8.16
X$97 1 2 14 7 38 11 11 1 sky130_fd_sc_hd__dfrtp_1
* cell instance $99 r0 *1 63.48,8.16
X$99 11 4 11 1 36 1 sky130_fd_sc_hd__inv_1
* cell instance $114 m0 *1 1.38,13.6
X$114 1 2 30 6 64 11 11 1 sky130_fd_sc_hd__dfrtp_1
* cell instance $116 m0 *1 11.5,13.6
X$116 11 83 46 35 75 74 64 11 1 1 sky130_fd_sc_hd__o221ai_1
* cell instance $117 m0 *1 14.72,13.6
X$117 11 55 37 15 5 29 1 11 1 sky130_fd_sc_hd__o22ai_1
* cell instance $118 m0 *1 17.02,13.6
X$118 11 46 39 56 41 27 11 1 1 sky130_fd_sc_hd__o211ai_1
* cell instance $119 m0 *1 19.78,13.6
X$119 1 20 130 17 30 11 11 1 sky130_fd_sc_hd__and3_1
* cell instance $120 m0 *1 22.08,13.6
X$120 11 5 15 42 11 41 1 1 sky130_fd_sc_hd__o21ai_0
* cell instance $127 m0 *1 30.82,13.6
X$127 11 43 35 66 11 51 1 1 sky130_fd_sc_hd__o21ai_0
* cell instance $128 m0 *1 32.66,13.6
X$128 11 69 63 31 11 52 1 1 sky130_fd_sc_hd__o21ai_0
* cell instance $129 m0 *1 34.5,13.6
X$129 11 43 57 54 11 1 1 sky130_fd_sc_hd__and2_0
* cell instance $131 m0 *1 37.26,13.6
X$131 11 31 8 57 53 11 1 1 sky130_fd_sc_hd__nand3_1
* cell instance $133 m0 *1 40.02,13.6
X$133 11 8 11 1 43 1 sky130_fd_sc_hd__inv_1
* cell instance $135 m0 *1 42.32,13.6
X$135 1 120 31 8 17 21 11 11 1 sky130_fd_sc_hd__nor4_2
* cell instance $137 m0 *1 47.38,13.6
X$137 11 58 10 49 1 11 1 sky130_fd_sc_hd__nor2b_1
* cell instance $138 m0 *1 49.68,13.6
X$138 1 10 50 4 58 11 11 1 sky130_fd_sc_hd__and3_1
* cell instance $139 m0 *1 51.98,13.6
X$139 11 60 59 38 11 1 1 sky130_fd_sc_hd__nand2_1
* cell instance $140 m0 *1 53.36,13.6
X$140 11 82 61 10 65 1 44 11 1 sky130_fd_sc_hd__nor4_1
* cell instance $143 m0 *1 57.04,13.6
X$143 11 62 61 70 45 1 11 1 sky130_fd_sc_hd__nor3_1
* cell instance $144 m0 *1 58.88,13.6
X$144 11 45 10 48 36 1 11 9 1 sky130_fd_sc_hd__a31oi_1
* cell instance $145 m0 *1 61.18,13.6
X$145 11 26 46 35 36 47 3 11 1 1 sky130_fd_sc_hd__o221ai_1
* cell instance $146 m0 *1 64.4,13.6
X$146 11 10 48 36 45 11 47 1 1 sky130_fd_sc_hd__nand4_1
* cell instance $149 m0 *1 69.46,13.6
X$149 11 69 63 48 11 71 1 1 sky130_fd_sc_hd__o21ai_0
* cell instance $150 m0 *1 71.3,13.6
X$150 11 100 73 72 11 1 1 sky130_fd_sc_hd__nand2_1
* cell instance $151 m0 *1 72.68,13.6
X$151 11 98 71 25 11 1 1 sky130_fd_sc_hd__nand2_1
* cell instance $160 r0 *1 11.96,13.6
X$160 11 16 106 55 1 11 1 sky130_fd_sc_hd__nor2_1
* cell instance $161 r0 *1 13.34,13.6
X$161 11 30 11 1 75 1 sky130_fd_sc_hd__inv_1
* cell instance $167 r0 *1 15.64,13.6
X$167 11 17 75 78 102 84 11 83 1 1 sky130_fd_sc_hd__o2111ai_1
* cell instance $170 r0 *1 20.24,13.6
X$170 1 6 427 11 11 1 sky130_fd_sc_hd__clkbuf_8
* cell instance $171 r0 *1 25.3,13.6
X$171 11 20 30 104 1 11 1 sky130_fd_sc_hd__nor2_1
* cell instance $173 r0 *1 27.14,13.6
X$173 11 31 68 77 1 11 1 sky130_fd_sc_hd__nand2b_1
* cell instance $174 r0 *1 29.44,13.6
X$174 11 68 31 87 1 11 1 sky130_fd_sc_hd__nand2b_1
* cell instance $176 r0 *1 32.2,13.6
X$176 11 87 77 79 80 11 76 1 1 sky130_fd_sc_hd__o2bb2ai_1
* cell instance $178 r0 *1 35.88,13.6
X$178 11 54 81 79 80 66 1 11 1 sky130_fd_sc_hd__o22ai_1
* cell instance $179 r0 *1 38.18,13.6
X$179 11 94 70 43 95 1 68 11 1 sky130_fd_sc_hd__nor4_1
* cell instance $180 r0 *1 40.48,13.6
X$180 11 43 57 81 1 11 1 sky130_fd_sc_hd__nor2_1
* cell instance $188 r0 *1 47.38,13.6
X$188 11 69 63 10 11 59 1 1 sky130_fd_sc_hd__o21ai_0
* cell instance $189 r0 *1 49.22,13.6
X$189 11 95 65 61 82 1 57 11 1 sky130_fd_sc_hd__nor4_1
* cell instance $190 r0 *1 51.52,13.6
X$190 11 61 65 82 58 1 11 1 sky130_fd_sc_hd__nor3_1
* cell instance $191 r0 *1 53.36,13.6
X$191 1 7 428 11 11 1 sky130_fd_sc_hd__clkbuf_8
* cell instance $192 r0 *1 58.42,13.6
X$192 11 49 44 79 80 60 1 11 1 sky130_fd_sc_hd__o22ai_1
* cell instance $193 r0 *1 60.72,13.6
X$193 11 70 62 48 61 1 86 11 1 sky130_fd_sc_hd__nor4_1
* cell instance $194 r0 *1 63.02,13.6
X$194 11 45 48 85 1 11 1 sky130_fd_sc_hd__nor2b_1
* cell instance $195 r0 *1 65.32,13.6
X$195 11 86 85 79 80 98 1 11 1 sky130_fd_sc_hd__o22ai_1
* cell instance $196 r0 *1 67.62,13.6
X$196 11 69 63 101 11 73 1 1 sky130_fd_sc_hd__o21ai_0
* cell instance $203 r0 *1 71.3,13.6
X$203 1 2 97 7 72 11 11 1 sky130_fd_sc_hd__dfrtp_1
* cell instance $204 m0 *1 1.38,19.04
X$204 1 2 105 6 88 11 11 1 sky130_fd_sc_hd__dfrtp_1
* cell instance $205 m0 *1 10.58,19.04
X$205 11 114 35 89 11 88 1 1 sky130_fd_sc_hd__o21ai_0
* cell instance $206 m0 *1 12.42,19.04
X$206 11 111 124 15 5 89 1 11 1 sky130_fd_sc_hd__o22ai_1
* cell instance $209 m0 *1 17.48,19.04
X$209 11 91 90 20 11 56 1 1 sky130_fd_sc_hd__o21ai_0
* cell instance $211 m0 *1 20.24,19.04
X$211 1 107 6 11 11 1 sky130_fd_sc_hd__clkbuf_8
* cell instance $212 m0 *1 25.3,19.04
X$212 11 112 126 15 5 92 1 11 1 sky130_fd_sc_hd__o22ai_1
* cell instance $217 m0 *1 30.36,19.04
X$217 1 90 35 91 11 11 1 sky130_fd_sc_hd__nor2_4
* cell instance $220 m0 *1 35.88,19.04
X$220 11 93 95 65 94 1 108 11 1 sky130_fd_sc_hd__nor4_1
* cell instance $223 m0 *1 39.56,19.04
X$223 1 106 70 95 94 93 11 11 1 sky130_fd_sc_hd__nor4_2
* cell instance $226 m0 *1 45.54,19.04
X$226 11 109 103 10 23 1 119 11 1 sky130_fd_sc_hd__nor4_1
* cell instance $227 m0 *1 47.84,19.04
X$227 1 23 4 103 10 11 95 11 1 sky130_fd_sc_hd__nand4_4
* cell instance $230 m0 *1 57.04,19.04
X$230 1 107 7 11 11 1 sky130_fd_sc_hd__clkbuf_8
* cell instance $231 m0 *1 62.1,19.04
X$231 1 1 101 61 110 11 11 sky130_fd_sc_hd__nand2_2
* cell instance $235 m0 *1 67.62,19.04
X$235 11 97 1 101 11 1 sky130_fd_sc_hd__buf_2
* cell instance $236 m0 *1 69.46,19.04
X$236 11 101 65 96 11 1 1 sky130_fd_sc_hd__and2_0
* cell instance $237 m0 *1 71.76,19.04
X$237 11 99 96 79 80 100 1 11 1 sky130_fd_sc_hd__o22ai_1
* cell instance $238 m0 *1 74.06,19.04
X$238 11 101 65 99 1 11 1 sky130_fd_sc_hd__nor2_1
* cell instance $245 r0 *1 7.36,19.04
X$245 11 105 11 1 114 1 sky130_fd_sc_hd__inv_1
* cell instance $246 r0 *1 8.74,19.04
X$246 11 113 115 106 114 1 11 111 1 sky130_fd_sc_hd__a31oi_1
* cell instance $247 r0 *1 11.04,19.04
X$247 11 113 115 106 114 1 11 124 1 sky130_fd_sc_hd__and4_1
* cell instance $253 r0 *1 15.64,19.04
X$253 11 129 91 90 134 1 11 1 sky130_fd_sc_hd__nor3_1
* cell instance $255 r0 *1 17.94,19.04
X$255 11 115 117 106 116 11 135 1 1 sky130_fd_sc_hd__nand4_1
* cell instance $256 r0 *1 20.24,19.04
X$256 11 116 115 78 118 1 11 126 1 sky130_fd_sc_hd__and4_1
* cell instance $258 r0 *1 24.38,19.04
X$258 1 2 117 6 137 11 11 1 sky130_fd_sc_hd__dfrtp_1
* cell instance $261 r0 *1 34.96,19.04
X$261 1 94 78 65 95 93 11 11 1 sky130_fd_sc_hd__nor4_4
* cell instance $267 r0 *1 44.16,19.04
X$267 1 143 104 119 120 11 138 11 1 sky130_fd_sc_hd__nand4_4
* cell instance $268 r0 *1 51.98,19.04
X$268 11 48 121 82 11 1 1 sky130_fd_sc_hd__nand2_1
* cell instance $270 r0 *1 55.2,19.04
X$270 11 121 61 65 136 1 11 1 sky130_fd_sc_hd__nor3_1
* cell instance $271 r0 *1 57.04,19.04
X$271 1 10 122 4 23 11 11 1 sky130_fd_sc_hd__and3_1
* cell instance $272 r0 *1 59.34,19.04
X$272 1 101 151 110 121 11 11 1 sky130_fd_sc_hd__and3_1
* cell instance $274 r0 *1 62.56,19.04
X$274 1 121 110 48 97 11 94 11 1 sky130_fd_sc_hd__nand4_4
* cell instance $280 r0 *1 71.76,19.04
X$280 11 146 125 79 80 133 1 11 1 sky130_fd_sc_hd__o22ai_1
* cell instance $281 r0 *1 74.06,19.04
X$281 11 123 1 110 11 1 sky130_fd_sc_hd__buf_2
* cell instance $284 m0 *1 1.38,24.48
X$284 1 2 127 139 128 11 11 1 sky130_fd_sc_hd__dfrtp_1
* cell instance $285 m0 *1 10.58,24.48
X$285 11 113 140 127 105 1 11 116 1 sky130_fd_sc_hd__and4_1
* cell instance $286 m0 *1 13.8,24.48
X$286 11 127 11 1 129 1 sky130_fd_sc_hd__inv_1
* cell instance $287 m0 *1 15.18,24.48
X$287 11 149 134 129 141 11 128 1 1 sky130_fd_sc_hd__a22oi_1
* cell instance $288 m0 *1 17.94,24.48
X$288 11 117 11 1 118 1 sky130_fd_sc_hd__inv_1
* cell instance $289 m0 *1 19.32,24.48
X$289 11 130 1 142 11 1 sky130_fd_sc_hd__buf_2
* cell instance $290 m0 *1 21.16,24.48
X$290 11 116 115 78 118 1 11 112 1 sky130_fd_sc_hd__a31oi_1
* cell instance $292 m0 *1 23.92,24.48
X$292 11 18 167 109 11 152 1 1 sky130_fd_sc_hd__o21ai_0
* cell instance $293 m0 *1 25.76,24.48
X$293 11 118 35 92 11 137 1 1 sky130_fd_sc_hd__o21ai_0
* cell instance $301 m0 *1 36.34,24.48
X$301 11 93 94 95 65 1 11 67 1 sky130_fd_sc_hd__or4_2
* cell instance $302 m0 *1 39.56,24.48
X$302 11 70 95 94 93 155 11 1 1 sky130_fd_sc_hd__or4_1
* cell instance $305 m0 *1 44.62,24.48
X$305 11 143 119 120 104 1 11 156 1 sky130_fd_sc_hd__and4_1
* cell instance $306 m0 *1 47.84,24.48
X$306 11 103 131 165 11 1 1 sky130_fd_sc_hd__nand2_1
* cell instance $307 m0 *1 49.22,24.48
X$307 11 117 121 48 4 1 143 11 1 sky130_fd_sc_hd__nor4_1
* cell instance $312 m0 *1 57.04,24.48
X$312 11 121 11 1 62 1 sky130_fd_sc_hd__inv_1
* cell instance $313 m0 *1 58.42,24.48
X$313 11 136 132 15 5 154 1 11 1 sky130_fd_sc_hd__o22ai_1
* cell instance $314 m0 *1 60.72,24.48
X$314 11 151 48 150 122 11 131 1 1 sky130_fd_sc_hd__nand4_1
* cell instance $317 m0 *1 65.78,24.48
X$317 11 101 150 144 11 1 1 sky130_fd_sc_hd__nand2_1
* cell instance $318 m0 *1 67.16,24.48
X$318 11 110 144 125 11 1 1 sky130_fd_sc_hd__and2_0
* cell instance $319 m0 *1 69.46,24.48
X$319 11 69 63 110 11 147 1 1 sky130_fd_sc_hd__o21ai_0
* cell instance $320 m0 *1 71.3,24.48
X$320 1 2 123 7 145 11 11 1 sky130_fd_sc_hd__dfrtp_1
* cell instance $324 r0 *1 9.2,24.48
X$324 11 140 11 1 159 1 sky130_fd_sc_hd__inv_1
* cell instance $325 r0 *1 10.58,24.48
X$325 11 84 102 158 11 149 1 1 sky130_fd_sc_hd__o21ai_0
* cell instance $326 r0 *1 12.42,24.48
X$326 11 148 67 140 160 1 162 11 1 sky130_fd_sc_hd__nor4_1
* cell instance $331 r0 *1 16.56,24.48
X$331 1 107 139 11 11 1 sky130_fd_sc_hd__clkbuf_8
* cell instance $332 r0 *1 21.62,24.48
X$332 11 158 84 102 11 1 141 1 sky130_fd_sc_hd__o21bai_1
* cell instance $333 r0 *1 24.38,24.48
X$333 1 2 109 139 168 11 11 1 sky130_fd_sc_hd__dfrtp_1
* cell instance $336 r0 *1 34.96,24.48
X$336 11 142 108 169 166 1 11 1 sky130_fd_sc_hd__and3b_1
* cell instance $337 r0 *1 38.18,24.48
X$337 11 91 90 22 11 1 1 sky130_fd_sc_hd__or2_2
* cell instance $343 r0 *1 45.08,24.48
X$343 1 2 103 177 164 11 11 1 sky130_fd_sc_hd__dfrtp_2
* cell instance $345 r0 *1 55.66,24.48
X$345 11 62 35 154 11 153 1 1 sky130_fd_sc_hd__o21ai_0
* cell instance $346 r0 *1 57.5,24.48
X$346 1 2 121 177 153 11 11 1 sky130_fd_sc_hd__dfrtp_2
* cell instance $352 r0 *1 70.84,24.48
X$352 11 110 144 146 1 11 1 sky130_fd_sc_hd__nor2_1
* cell instance $353 r0 *1 72.22,24.48
X$353 11 133 147 145 11 1 1 sky130_fd_sc_hd__nand2_1
* cell instance $367 m0 *1 9.66,29.92
X$367 11 159 35 157 11 170 1 1 sky130_fd_sc_hd__o21ai_0
* cell instance $368 m0 *1 11.5,29.92
X$368 11 162 180 15 5 157 1 11 1 sky130_fd_sc_hd__o22ai_1
* cell instance $369 m0 *1 13.8,29.92
X$369 11 159 155 160 148 158 11 1 1 sky130_fd_sc_hd__or4_1
* cell instance $370 m0 *1 16.56,29.92
X$370 1 139 11 11 1 sky130_fd_sc_hd__bufinv_16
* cell instance $371 m0 *1 27.6,29.92
X$371 11 169 142 167 11 1 1 sky130_fd_sc_hd__nand2_1
* cell instance $373 m0 *1 29.44,29.92
X$373 11 46 152 183 182 168 11 1 1 sky130_fd_sc_hd__o211ai_1
* cell instance $375 m0 *1 33.12,29.92
X$375 1 2 169 177 188 11 11 1 sky130_fd_sc_hd__dfrtp_1
* cell instance $378 m0 *1 45.08,29.92
X$378 11 91 90 103 11 172 1 1 sky130_fd_sc_hd__o21ai_0
* cell instance $379 m0 *1 46.92,29.92
X$379 11 46 165 161 172 164 11 1 1 sky130_fd_sc_hd__o211ai_1
* cell instance $380 m0 *1 49.68,29.92
X$380 11 5 15 181 11 161 1 1 sky130_fd_sc_hd__o21ai_0
* cell instance $381 m0 *1 51.52,29.92
X$381 11 103 131 181 1 11 1 sky130_fd_sc_hd__nor2_1
* cell instance $385 m0 *1 58.88,29.92
X$385 11 110 101 173 11 1 1 sky130_fd_sc_hd__and2_1
* cell instance $386 m0 *1 61.18,29.92
X$386 11 174 173 175 62 1 11 132 1 sky130_fd_sc_hd__a31oi_1
* cell instance $388 m0 *1 63.94,29.92
X$388 11 178 179 176 163 1 11 150 1 sky130_fd_sc_hd__and4_1
* cell instance $391 m0 *1 69.92,29.92
X$391 1 2 163 177 187 11 11 1 sky130_fd_sc_hd__dfrtp_4
* cell instance $392 r0 *1 1.38,29.92
X$392 1 2 140 139 170 11 11 1 sky130_fd_sc_hd__dfrtp_1
* cell instance $393 r0 *1 10.58,29.92
X$393 11 105 113 148 11 1 1 sky130_fd_sc_hd__nand2_1
* cell instance $394 r0 *1 11.96,29.92
X$394 1 180 67 160 148 140 11 11 1 sky130_fd_sc_hd__o31a_1
* cell instance $401 r0 *1 22.54,29.92
X$401 11 155 1 18 11 1 sky130_fd_sc_hd__buf_2
* cell instance $402 r0 *1 24.38,29.92
X$402 11 84 102 185 11 183 1 1 sky130_fd_sc_hd__o21ai_0
* cell instance $403 r0 *1 26.22,29.92
X$403 11 109 18 167 185 1 11 1 sky130_fd_sc_hd__nor3_1
* cell instance $406 r0 *1 29.44,29.92
X$406 11 91 90 109 11 182 1 1 sky130_fd_sc_hd__o21ai_0
* cell instance $407 r0 *1 31.28,29.92
X$407 11 69 63 169 11 171 1 1 sky130_fd_sc_hd__o21ai_0
* cell instance $408 r0 *1 33.12,29.92
X$408 11 189 171 188 11 1 1 sky130_fd_sc_hd__nand2_1
* cell instance $410 r0 *1 34.96,29.92
X$410 11 169 108 142 1 11 190 1 sky130_fd_sc_hd__a21boi_0
* cell instance $411 r0 *1 37.72,29.92
X$411 11 190 166 79 80 189 1 11 1 sky130_fd_sc_hd__o22ai_1
* cell instance $419 r0 *1 49.68,29.92
X$419 1 2 178 177 209 11 11 1 sky130_fd_sc_hd__dfrtp_2
* cell instance $421 r0 *1 60.26,29.92
X$421 1 178 163 179 176 11 70 11 1 sky130_fd_sc_hd__nand4_4
* cell instance $426 r0 *1 70.84,29.92
X$426 1 175 176 163 11 65 11 1 sky130_fd_sc_hd__nand3_4
* cell instance $437 m0 *1 3.22,35.36
X$437 1 2 194 139 184 11 11 1 sky130_fd_sc_hd__dfrtp_1
* cell instance $439 m0 *1 13.34,35.36
X$439 11 5 15 193 11 191 1 1 sky130_fd_sc_hd__o21ai_0
* cell instance $440 m0 *1 15.18,35.36
X$440 11 191 46 35 192 208 184 11 1 1 sky130_fd_sc_hd__o221ai_1
* cell instance $441 m0 *1 18.4,35.36
X$441 11 215 155 194 160 1 193 11 1 sky130_fd_sc_hd__nor4_1
* cell instance $442 m0 *1 20.7,35.36
X$442 11 200 194 169 105 1 210 11 1 sky130_fd_sc_hd__nor4_1
* cell instance $444 m0 *1 26.68,35.36
X$444 1 169 202 109 195 11 11 1 sky130_fd_sc_hd__and3_1
* cell instance $449 m0 *1 34.5,35.36
X$449 11 78 109 169 142 11 211 1 1 sky130_fd_sc_hd__nand4_1
* cell instance $450 m0 *1 36.8,35.36
X$450 11 211 195 203 11 1 1 sky130_fd_sc_hd__xnor2_1
* cell instance $453 m0 *1 41.4,35.36
X$453 1 2 195 177 196 11 11 1 sky130_fd_sc_hd__dfrtp_1
* cell instance $456 m0 *1 52.9,35.36
X$456 11 177 419 1 11 1 sky130_fd_sc_hd__clkbuf_1
* cell instance $460 m0 *1 57.04,35.36
X$460 1 107 177 11 11 1 sky130_fd_sc_hd__clkbuf_8
* cell instance $461 m0 *1 62.1,35.36
X$461 11 163 176 174 11 1 1 sky130_fd_sc_hd__and2_0
* cell instance $463 m0 *1 64.86,35.36
X$463 1 420 175 179 178 11 11 1 sky130_fd_sc_hd__ha_1
* cell instance $465 m0 *1 69.92,35.36
X$465 11 69 63 163 11 197 1 1 sky130_fd_sc_hd__o21ai_0
* cell instance $466 m0 *1 71.76,35.36
X$466 11 186 197 187 11 1 1 sky130_fd_sc_hd__nand2_1
* cell instance $468 m0 *1 73.6,35.36
X$468 11 175 176 199 1 11 1 sky130_fd_sc_hd__nor2b_1
* cell instance $470 m0 *1 76.36,35.36
X$470 11 198 205 79 80 186 1 11 1 sky130_fd_sc_hd__o22ai_1
* cell instance $477 r0 *1 11.96,35.36
X$477 11 200 206 194 220 1 11 113 1 sky130_fd_sc_hd__and4_1
* cell instance $480 r0 *1 15.64,35.36
X$480 11 18 160 215 194 11 1 208 1 sky130_fd_sc_hd__o31ai_1
* cell instance $481 r0 *1 18.4,35.36
X$481 11 192 215 222 1 11 1 sky130_fd_sc_hd__nor2_1
* cell instance $482 r0 *1 19.78,35.36
X$482 11 194 11 1 192 1 sky130_fd_sc_hd__inv_1
* cell instance $485 r0 *1 22.54,35.36
X$485 11 202 142 223 201 1 11 115 1 sky130_fd_sc_hd__and4_1
* cell instance $487 r0 *1 26.22,35.36
X$487 11 220 18 160 212 1 11 1 sky130_fd_sc_hd__nor3_1
* cell instance $489 r0 *1 28.52,35.36
X$489 11 142 202 224 11 1 1 sky130_fd_sc_hd__nand2_1
* cell instance $491 r0 *1 30.82,35.36
X$491 11 80 79 212 11 216 1 1 sky130_fd_sc_hd__o21ai_0
* cell instance $493 r0 *1 33.58,35.36
X$493 1 2 200 177 229 11 11 1 sky130_fd_sc_hd__dfrtp_1
* cell instance $496 r0 *1 43.24,35.36
X$496 11 203 33 195 22 1 196 11 1 sky130_fd_sc_hd__a22o_1
* cell instance $497 r0 *1 46.46,35.36
X$497 11 219 1 80 11 1 sky130_fd_sc_hd__clkbuf_4
* cell instance $499 r0 *1 51.06,35.36
X$499 11 228 33 178 22 1 209 11 1 sky130_fd_sc_hd__a22o_1
* cell instance $502 r0 *1 55.66,35.36
X$502 1 423 232 179 226 11 11 1 sky130_fd_sc_hd__ha_1
* cell instance $503 r0 *1 60.26,35.36
X$503 11 110 176 163 225 1 11 1 sky130_fd_sc_hd__nor3b_1
* cell instance $506 r0 *1 67.62,35.36
X$506 11 176 179 178 204 11 1 1 sky130_fd_sc_hd__nand3_1
* cell instance $511 r0 *1 71.76,35.36
X$511 11 176 175 207 1 11 1 sky130_fd_sc_hd__nor2b_1
* cell instance $512 r0 *1 74.06,35.36
X$512 11 207 199 79 80 221 1 11 1 sky130_fd_sc_hd__o22ai_1
* cell instance $513 r0 *1 76.36,35.36
X$513 11 163 204 198 1 11 1 sky130_fd_sc_hd__nor2_1
* cell instance $515 r0 *1 78.2,35.36
X$515 11 163 204 205 11 1 1 sky130_fd_sc_hd__and2_0
* cell instance $525 m0 *1 4.6,40.8
X$525 1 2 220 139 213 11 11 1 sky130_fd_sc_hd__dfrtp_1
* cell instance $526 m0 *1 13.8,40.8
X$526 11 220 18 102 84 160 214 11 1 1 sky130_fd_sc_hd__o221ai_1
* cell instance $527 m0 *1 17.02,40.8
X$527 11 216 214 246 213 11 1 1 sky130_fd_sc_hd__nand3_1
* cell instance $528 m0 *1 18.86,40.8
X$528 1 142 237 201 202 11 11 1 sky130_fd_sc_hd__and3_1
* cell instance $529 m0 *1 21.16,40.8
X$529 1 202 201 142 223 11 160 11 1 sky130_fd_sc_hd__nand4_4
* cell instance $531 m0 *1 29.44,40.8
X$531 11 201 18 224 217 1 11 1 sky130_fd_sc_hd__nor3_1
* cell instance $532 m0 *1 31.28,40.8
X$532 11 69 63 201 11 239 1 1 sky130_fd_sc_hd__o21ai_0
* cell instance $533 m0 *1 33.12,40.8
X$533 11 5 15 217 11 227 1 1 sky130_fd_sc_hd__o21ai_0
* cell instance $534 m0 *1 34.96,40.8
X$534 11 200 241 218 1 11 1 sky130_fd_sc_hd__nor2_1
* cell instance $535 m0 *1 36.34,40.8
X$535 1 33 200 229 243 218 22 11 11 1 sky130_fd_sc_hd__a221o_1
* cell instance $536 m0 *1 40.02,40.8
X$536 11 219 1 5 11 1 sky130_fd_sc_hd__clkbuf_4
* cell instance $537 m0 *1 42.78,40.8
X$537 11 240 1 15 11 1 sky130_fd_sc_hd__clkbuf_4
* cell instance $538 m0 *1 45.54,40.8
X$538 11 240 1 79 11 1 sky130_fd_sc_hd__clkbuf_4
* cell instance $540 m0 *1 51.98,40.8
X$540 1 228 230 231 226 11 11 1 sky130_fd_sc_hd__ha_1
* cell instance $542 m0 *1 57.04,40.8
X$542 11 178 11 1 226 1 sky130_fd_sc_hd__inv_1
* cell instance $544 m0 *1 58.88,40.8
X$544 11 179 11 1 231 1 sky130_fd_sc_hd__inv_1
* cell instance $545 m0 *1 60.26,40.8
X$545 11 163 176 263 1 11 1 sky130_fd_sc_hd__nor2_1
* cell instance $546 m0 *1 61.64,40.8
X$546 11 101 110 230 238 1 11 1 sky130_fd_sc_hd__nor3b_1
* cell instance $547 m0 *1 64.4,40.8
X$547 1 2 179 177 236 11 11 1 sky130_fd_sc_hd__dfrtp_2
* cell instance $548 m0 *1 74.06,40.8
X$548 11 69 63 176 11 233 1 1 sky130_fd_sc_hd__o21ai_0
* cell instance $549 m0 *1 75.9,40.8
X$549 11 221 233 235 11 1 1 sky130_fd_sc_hd__nand2_1
* cell instance $551 m0 *1 77.74,40.8
X$551 11 234 1 176 11 1 sky130_fd_sc_hd__clkbuf_4
* cell instance $555 r0 *1 10.58,40.8
X$555 11 251 127 206 140 1 249 11 1 sky130_fd_sc_hd__nor4_1
* cell instance $556 r0 *1 12.88,40.8
X$556 11 220 78 115 252 11 1 1 sky130_fd_sc_hd__nand3_1
* cell instance $560 r0 *1 15.64,40.8
X$560 11 91 90 220 11 246 1 1 sky130_fd_sc_hd__o21ai_0
* cell instance $561 r0 *1 17.48,40.8
X$561 11 220 206 215 11 1 1 sky130_fd_sc_hd__nand2_1
* cell instance $563 r0 *1 19.78,40.8
X$563 11 78 237 267 11 1 1 sky130_fd_sc_hd__nand2_1
* cell instance $565 r0 *1 22.08,40.8
X$565 11 237 223 78 222 11 241 1 1 sky130_fd_sc_hd__nand4_1
* cell instance $567 r0 *1 25.3,40.8
X$567 11 223 195 201 220 1 264 11 1 sky130_fd_sc_hd__nor4_1
* cell instance $569 r0 *1 28.06,40.8
X$569 11 201 18 102 84 224 242 11 1 1 sky130_fd_sc_hd__o221ai_1
* cell instance $570 r0 *1 31.28,40.8
X$570 11 242 227 239 250 11 1 1 sky130_fd_sc_hd__nand3_1
* cell instance $571 r0 *1 33.12,40.8
X$571 1 243 219 240 241 200 11 11 1 sky130_fd_sc_hd__o211a_1
* cell instance $572 r0 *1 36.8,40.8
X$572 1 284 107 11 11 1 sky130_fd_sc_hd__clkbuf_8
* cell instance $576 r0 *1 43.24,40.8
X$576 11 219 240 33 11 1 1 sky130_fd_sc_hd__or2_2
* cell instance $579 r0 *1 51.06,40.8
X$579 11 248 1 63 11 1 sky130_fd_sc_hd__clkbuf_4
* cell instance $580 r0 *1 53.82,40.8
X$580 1 424 255 231 178 11 11 1 sky130_fd_sc_hd__ha_1
* cell instance $582 r0 *1 59.34,40.8
X$582 11 101 232 225 276 11 1 1 sky130_fd_sc_hd__nand3_1
* cell instance $583 r0 *1 61.18,40.8
X$583 11 232 101 247 225 11 254 1 1 sky130_fd_sc_hd__nand4_1
* cell instance $584 r0 *1 63.48,40.8
X$584 11 231 69 63 244 1 11 1 sky130_fd_sc_hd__nor3_1
* cell instance $585 r0 *1 65.32,40.8
X$585 11 244 231 46 1 11 236 1 sky130_fd_sc_hd__a21oi_1
* cell instance $592 r0 *1 71.3,40.8
X$592 1 2 234 245 235 11 11 1 sky130_fd_sc_hd__dfrtp_1
* cell instance $600 m0 *1 2.3,46.24
X$600 1 2 251 285 260 11 11 1 sky130_fd_sc_hd__dfrtp_1
* cell instance $603 m0 *1 12.88,46.24
X$603 11 251 11 1 257 1 sky130_fd_sc_hd__inv_1
* cell instance $605 m0 *1 15.18,46.24
X$605 11 256 272 257 258 11 260 1 1 sky130_fd_sc_hd__a22oi_1
* cell instance $606 m0 *1 17.94,46.24
X$606 11 84 102 135 11 256 1 1 sky130_fd_sc_hd__o21ai_0
* cell instance $608 m0 *1 20.7,46.24
X$608 11 135 219 240 11 1 258 1 sky130_fd_sc_hd__o21bai_1
* cell instance $610 m0 *1 23.92,46.24
X$610 1 210 266 249 264 11 11 1 sky130_fd_sc_hd__and3_1
* cell instance $612 m0 *1 27.14,46.24
X$612 11 240 1 102 11 1 sky130_fd_sc_hd__buf_2
* cell instance $616 m0 *1 33.58,46.24
X$616 1 2 201 245 250 11 11 1 sky130_fd_sc_hd__dfrtp_2
* cell instance $618 m0 *1 44.16,46.24
X$618 11 265 1 69 11 1 sky130_fd_sc_hd__clkbuf_4
* cell instance $621 m0 *1 49.22,46.24
X$621 11 248 1 90 11 1 sky130_fd_sc_hd__clkbuf_4
* cell instance $622 m0 *1 51.98,46.24
X$622 11 262 1 219 11 1 sky130_fd_sc_hd__buf_2
* cell instance $626 m0 *1 57.04,46.24
X$626 1 173 280 255 263 11 11 1 sky130_fd_sc_hd__and3_1
* cell instance $630 m0 *1 62.56,46.24
X$630 11 259 174 238 261 11 1 1 sky130_fd_sc_hd__nand3_1
* cell instance $640 r0 *1 12.42,46.24
X$640 11 84 102 252 206 278 11 1 1 sky130_fd_sc_hd__o211ai_1
* cell instance $645 r0 *1 15.64,46.24
X$645 11 257 91 90 272 1 11 1 sky130_fd_sc_hd__nor3_1
* cell instance $647 r0 *1 18.4,46.24
X$647 11 84 102 267 11 281 1 1 sky130_fd_sc_hd__o21ai_0
* cell instance $648 r0 *1 20.24,46.24
X$648 11 267 84 102 11 1 301 1 sky130_fd_sc_hd__o21bai_1
* cell instance $649 r0 *1 23,46.24
X$649 1 268 249 210 264 11 11 1 sky130_fd_sc_hd__nand3_2
* cell instance $651 r0 *1 27.6,46.24
X$651 11 219 1 84 11 1 sky130_fd_sc_hd__buf_2
* cell instance $652 r0 *1 29.44,46.24
X$652 1 219 240 46 11 11 1 sky130_fd_sc_hd__nor2_8
* cell instance $662 r0 *1 44.62,46.24
X$662 1 266 156 240 283 265 11 11 1 sky130_fd_sc_hd__a211oi_4
* cell instance $664 r0 *1 52.44,46.24
X$664 11 253 268 138 276 1 248 11 1 sky130_fd_sc_hd__nor4_1
* cell instance $665 r0 *1 54.74,46.24
X$665 1 282 255 173 263 11 11 1 sky130_fd_sc_hd__nand3_2
* cell instance $666 r0 *1 58.42,46.24
X$666 11 307 269 263 173 255 270 1 11 1 sky130_fd_sc_hd__a32oi_1
* cell instance $667 r0 *1 61.64,46.24
X$667 1 262 261 254 298 270 11 11 1 sky130_fd_sc_hd__a31o_1
* cell instance $668 r0 *1 64.86,46.24
X$668 11 259 11 1 247 1 sky130_fd_sc_hd__inv_1
* cell instance $677 r0 *1 74.98,46.24
X$677 11 271 1 259 11 1 sky130_fd_sc_hd__buf_2
* cell instance $681 m0 *1 3.68,51.68
X$681 1 2 206 285 273 11 11 1 sky130_fd_sc_hd__dfrtp_1
* cell instance $682 m0 *1 12.88,51.68
X$682 11 252 206 279 1 11 1 sky130_fd_sc_hd__or2_0
* cell instance $683 m0 *1 15.18,51.68
X$683 11 46 279 278 274 273 11 1 1 sky130_fd_sc_hd__o211ai_1
* cell instance $684 m0 *1 17.94,51.68
X$684 11 91 90 206 11 274 1 1 sky130_fd_sc_hd__o21ai_0
* cell instance $685 m0 *1 19.78,51.68
X$685 11 281 292 293 301 11 291 1 1 sky130_fd_sc_hd__a22oi_1
* cell instance $686 m0 *1 22.54,51.68
X$686 11 293 91 90 292 1 11 1 sky130_fd_sc_hd__nor3_1
* cell instance $687 m0 *1 24.38,51.68
X$687 11 223 11 1 293 1 sky130_fd_sc_hd__inv_1
* cell instance $697 m0 *1 42.78,51.68
X$697 11 286 280 266 156 1 11 304 1 sky130_fd_sc_hd__and4_1
* cell instance $698 m0 *1 46,51.68
X$698 11 280 156 266 286 11 290 1 1 sky130_fd_sc_hd__nand4_1
* cell instance $699 m0 *1 48.3,51.68
X$699 11 277 307 286 1 11 1 sky130_fd_sc_hd__nor2_1
* cell instance $701 m0 *1 50.6,51.68
X$701 1 138 275 268 282 11 11 1 sky130_fd_sc_hd__nor3_2
* cell instance $702 m0 *1 54.28,51.68
X$702 11 138 268 296 1 11 1 sky130_fd_sc_hd__nor2_1
* cell instance $705 m0 *1 57.04,51.68
X$705 1 289 277 282 276 308 297 11 11 1 sky130_fd_sc_hd__o32ai_2
* cell instance $706 m0 *1 63.02,51.68
X$706 11 174 277 296 238 11 287 1 1 sky130_fd_sc_hd__nand4_1
* cell instance $707 m0 *1 65.32,51.68
X$707 1 302 259 299 288 287 275 11 11 1 sky130_fd_sc_hd__a32o_1
* cell instance $708 m0 *1 69,51.68
X$708 1 2 271 245 302 11 11 1 sky130_fd_sc_hd__dfrtp_1
* cell instance $710 m0 *1 79.12,51.68
X$710 11 311 300 1 11 1 sky130_fd_sc_hd__clkbuf_1
* cell instance $713 r0 *1 4.14,51.68
X$713 1 2 314 285 312 11 11 1 sky130_fd_sc_hd__dfrtp_1
* cell instance $720 r0 *1 16.56,51.68
X$720 1 2 223 285 291 11 11 1 sky130_fd_sc_hd__dfrtp_2
* cell instance $721 r0 *1 26.22,51.68
X$721 1 2 318 285 316 11 11 1 sky130_fd_sc_hd__dfrtp_4
* cell instance $722 r0 *1 36.8,51.68
X$722 1 317 294 326 295 11 11 1 sky130_fd_sc_hd__mux2i_1
* cell instance $724 r0 *1 41.4,51.68
X$724 11 303 286 294 11 1 1 sky130_fd_sc_hd__nand2_1
* cell instance $729 r0 *1 43.24,51.68
X$729 11 265 1 91 11 1 sky130_fd_sc_hd__clkbuf_4
* cell instance $731 r0 *1 47.84,51.68
X$731 1 282 319 138 268 269 11 11 1 sky130_fd_sc_hd__nor4_4
* cell instance $732 r0 *1 55.66,51.68
X$732 1 289 296 247 295 283 11 11 1 sky130_fd_sc_hd__a31oi_4
* cell instance $733 r0 *1 63.48,51.68
X$733 11 297 305 298 1 11 1 sky130_fd_sc_hd__nor2b_1
* cell instance $734 r0 *1 65.78,51.68
X$734 1 1 265 11 299 247 11 sky130_fd_sc_hd__nor2_2
* cell instance $735 r0 *1 68.08,51.68
X$735 11 309 275 277 311 1 11 315 1 sky130_fd_sc_hd__a31oi_1
* cell instance $741 r0 *1 71.3,51.68
X$741 1 2 311 245 313 11 11 1 sky130_fd_sc_hd__dfrtp_1
* cell instance $743 m0 *1 2.3,57.12
X$743 11 314 320 1 11 1 sky130_fd_sc_hd__clkbuf_1
* cell instance $748 m0 *1 10.58,57.12
X$748 1 312 322 314 319 11 11 1 sky130_fd_sc_hd__mux2_1
* cell instance $751 m0 *1 17.48,57.12
X$751 1 107 285 11 11 1 sky130_fd_sc_hd__clkbuf_8
* cell instance $752 m0 *1 22.54,57.12
X$752 1 285 425 11 11 1 sky130_fd_sc_hd__clkbuf_8
* cell instance $753 m0 *1 27.6,57.12
X$753 11 318 306 325 1 11 1 sky130_fd_sc_hd__nor2_1
* cell instance $755 m0 *1 29.44,57.12
X$755 1 316 318 325 295 11 11 1 sky130_fd_sc_hd__mux2_1
* cell instance $757 m0 *1 34.04,57.12
X$757 1 2 321 285 317 11 11 1 sky130_fd_sc_hd__dfrtp_4
* cell instance $761 m0 *1 49.68,57.12
X$761 11 307 327 288 1 11 1 sky130_fd_sc_hd__nor2_1
* cell instance $762 m0 *1 51.06,57.12
X$762 11 277 330 307 306 11 1 1 sky130_fd_sc_hd__or3_1
* cell instance $763 m0 *1 53.36,57.12
X$763 11 297 305 259 269 11 1 1 sky130_fd_sc_hd__or3b_1
* cell instance $765 m0 *1 57.04,57.12
X$765 1 107 245 11 11 1 sky130_fd_sc_hd__clkbuf_8
* cell instance $766 m0 *1 62.1,57.12
X$766 1 245 426 11 11 1 sky130_fd_sc_hd__clkbuf_8
* cell instance $767 m0 *1 67.16,57.12
X$767 11 259 308 309 1 11 1 sky130_fd_sc_hd__nor2b_1
* cell instance $768 m0 *1 69.46,57.12
X$768 11 297 277 309 328 1 11 1 sky130_fd_sc_hd__nor3_1
* cell instance $769 m0 *1 71.3,57.12
X$769 11 299 315 310 11 313 1 1 sky130_fd_sc_hd__o21ai_0
* cell instance $770 m0 *1 73.14,57.12
X$770 11 277 259 311 11 310 1 1 sky130_fd_sc_hd__o21ai_0
* cell instance $771 m0 *1 74.98,57.12
X$771 11 305 1 277 11 1 sky130_fd_sc_hd__buf_2
* cell instance $775 r0 *1 5.98,57.12
X$775 1 2 322 285 331 11 11 1 sky130_fd_sc_hd__dfrtp_1
* cell instance $781 r0 *1 18.86,57.12