
* cell clock_domain_crossing_fifo
* pin rd_data[5]
* pin rd_data[7]
* pin wr_data[28]
* pin rd_data[28]
* pin wr_data[2]
* pin wr_data[31]
* pin rd_data[2]
* pin wr_data[4]
* pin rd_data[4]
* pin rd_data[31]
* pin wr_data[6]
* pin wr_data[9]
* pin rd_data[9]
* pin rd_data[6]
* pin wr_data[8]
* pin wr_en
* pin wr_rst_n
* pin rd_data[8]
* pin wr_full
* pin wr_count[2]
* pin wr_count[0]
* pin wr_count[3]
* pin wr_almost_full
* pin wr_count[4]
* pin wr_count[1]
* pin PWELL
* pin NWELL
* pin wr_data[7]
* pin rd_rst_n
* pin rd_clk
* pin wr_data[5]
* pin rd_en
* pin rd_empty
* pin rd_count[4]
* pin rd_count[3]
* pin wr_data[3]
* pin rd_count[1]
* pin rd_almost_empty
* pin rd_count[2]
* pin rd_count[0]
* pin rd_data[3]
* pin wr_data[30]
* pin rd_data[30]
* pin rd_data[29]
* pin rd_data[10]
* pin rd_data[14]
* pin wr_data[29]
* pin wr_data[10]
* pin wr_data[14]
* pin wr_data[22]
* pin wr_clk
* pin wr_data[20]
* pin wr_data[26]
* pin rd_data[18]
* pin wr_data[0]
* pin wr_data[18]
* pin wr_data[27]
* pin wr_data[12]
* pin rd_data[0]
* pin rd_data[12]
* pin rd_data[27]
* pin wr_data[24]
* pin wr_data[17]
* pin wr_data[25]
* pin rd_data[13]
* pin wr_data[11]
* pin wr_data[13]
* pin wr_data[23]
* pin wr_data[21]
* pin wr_data[1]
* pin rd_data[20]
* pin wr_data[15]
* pin wr_data[19]
* pin wr_data[16]
* pin rd_data[25]
* pin rd_data[23]
* pin rd_data[21]
* pin rd_data[22]
* pin rd_data[1]
* pin rd_data[26]
* pin rd_data[24]
* pin rd_data[19]
* pin rd_data[17]
* pin rd_data[16]
* pin rd_data[15]
* pin rd_data[11]
.SUBCKT clock_domain_crossing_fifo 1 2 3 4 5 6 7 8 9 10 11 12 13 14 15 16 17 18
+ 19 20 21 22 23 24 25 29 52 231 302 303 320 504 505 552 553 564 592 593 640
+ 641 649 734 781 829 1007 1008 1025 1046 1083 1132 1206 1207 1267 1318 1319
+ 1360 1407 1483 1516 1610 1627 1760 1761 1780 1793 2161 2166 2185 2187 2190
+ 2191 2192 2193 2195 2196 2197 2198 2199 2200 2201 2202 2203 2204 2205 2206
+ 2207
* net 1 rd_data[5]
* net 2 rd_data[7]
* net 3 wr_data[28]
* net 4 rd_data[28]
* net 5 wr_data[2]
* net 6 wr_data[31]
* net 7 rd_data[2]
* net 8 wr_data[4]
* net 9 rd_data[4]
* net 10 rd_data[31]
* net 11 wr_data[6]
* net 12 wr_data[9]
* net 13 rd_data[9]
* net 14 rd_data[6]
* net 15 wr_data[8]
* net 16 wr_en
* net 17 wr_rst_n
* net 18 rd_data[8]
* net 19 wr_full
* net 20 wr_count[2]
* net 21 wr_count[0]
* net 22 wr_count[3]
* net 23 wr_almost_full
* net 24 wr_count[4]
* net 25 wr_count[1]
* net 29 PWELL
* net 52 NWELL
* net 231 wr_data[7]
* net 302 rd_rst_n
* net 303 rd_clk
* net 320 wr_data[5]
* net 504 rd_en
* net 505 rd_empty
* net 552 rd_count[4]
* net 553 rd_count[3]
* net 564 wr_data[3]
* net 592 rd_count[1]
* net 593 rd_almost_empty
* net 640 rd_count[2]
* net 641 rd_count[0]
* net 649 rd_data[3]
* net 734 wr_data[30]
* net 781 rd_data[30]
* net 829 rd_data[29]
* net 1007 rd_data[10]
* net 1008 rd_data[14]
* net 1025 wr_data[29]
* net 1046 wr_data[10]
* net 1083 wr_data[14]
* net 1132 wr_data[22]
* net 1206 wr_clk
* net 1207 wr_data[20]
* net 1267 wr_data[26]
* net 1318 rd_data[18]
* net 1319 wr_data[0]
* net 1360 wr_data[18]
* net 1407 wr_data[27]
* net 1483 wr_data[12]
* net 1516 rd_data[0]
* net 1610 rd_data[12]
* net 1627 rd_data[27]
* net 1760 wr_data[24]
* net 1761 wr_data[17]
* net 1780 wr_data[25]
* net 1793 rd_data[13]
* net 2161 wr_data[11]
* net 2166 wr_data[13]
* net 2185 wr_data[23]
* net 2187 wr_data[21]
* net 2190 wr_data[1]
* net 2191 rd_data[20]
* net 2192 wr_data[15]
* net 2193 wr_data[19]
* net 2195 wr_data[16]
* net 2196 rd_data[25]
* net 2197 rd_data[23]
* net 2198 rd_data[21]
* net 2199 rd_data[22]
* net 2200 rd_data[1]
* net 2201 rd_data[26]
* net 2202 rd_data[24]
* net 2203 rd_data[19]
* net 2204 rd_data[17]
* net 2205 rd_data[16]
* net 2206 rd_data[15]
* net 2207 rd_data[11]
* cell instance $2 r0 *1 25.84,1.4
X$2 124 29 52 1 BUF_X1
* cell instance $10 m0 *1 26.6,4.2
X$10 34 29 52 2 BUF_X1
* cell instance $14 r0 *1 27.93,1.4
X$14 3 29 52 35 BUF_X1
* cell instance $20 r0 *1 34.58,1.4
X$20 112 29 52 4 BUF_X1
* cell instance $26 r0 *1 35.15,1.4
X$26 5 29 52 36 BUF_X1
* cell instance $33 m0 *1 39.71,4.2
X$33 6 29 52 68 BUF_X2
* cell instance $38 r0 *1 39.33,1.4
X$38 131 29 52 7 BUF_X1
* cell instance $44 r0 *1 42.37,1.4
X$44 8 29 52 97 BUF_X1
* cell instance $50 r0 *1 45.41,1.4
X$50 132 29 52 9 BUF_X1
* cell instance $56 r0 *1 47.12,1.4
X$56 98 29 52 10 BUF_X1
* cell instance $62 r0 *1 50.35,1.4
X$62 11 29 52 40 BUF_X1
* cell instance $72 r0 *1 52.63,1.4
X$72 12 29 52 72 CLKBUF_X2
* cell instance $74 r0 *1 53.39,1.4
X$74 152 29 52 13 BUF_X1
* cell instance $80 r0 *1 54.34,1.4
X$80 171 29 52 14 BUF_X1
* cell instance $86 r0 *1 57.38,1.4
X$86 15 29 52 136 BUF_X1
* cell instance $92 r0 *1 64.98,1.4
X$92 16 29 52 41 BUF_X1
* cell instance $99 r0 *1 67.45,1.4
X$99 17 29 52 31 CLKBUF_X1
* cell instance $104 m0 *1 71.44,4.2
X$104 43 29 52 18 BUF_X1
* cell instance $110 r0 *1 74.48,1.4
X$110 62 29 52 19 BUF_X1
* cell instance $116 r0 *1 80.56,1.4
X$116 27 29 52 20 BUF_X1
* cell instance $122 r0 *1 78.47,1.4
X$122 61 29 52 21 BUF_X1
* cell instance $128 r0 *1 84.55,1.4
X$128 56 29 52 22 BUF_X1
* cell instance $134 r0 *1 81.13,1.4
X$134 57 29 52 23 BUF_X1
* cell instance $140 r0 *1 83.6,1.4
X$140 53 29 52 24 BUF_X1
* cell instance $146 r0 *1 82.46,1.4
X$146 50 29 52 25 BUF_X1
* cell instance $152 m0 *1 77.71,7
X$152 149 103 147 52 26 29 OAI21_X1
* cell instance $154 r0 *1 79.04,1.4
X$154 30 75 26 29 47 52 AOI21_X1
* cell instance $156 m0 *1 78.47,7
X$156 103 46 52 29 27 XNOR2_X1
* cell instance $160 m0 *1 81.51,4.2
X$160 27 50 29 52 48 NAND2_X1
* cell instance $166 r0 *1 81.7,1.4
X$166 28 48 49 52 57 29 OAI21_X1
* cell instance $169 r0 *1 84.17,1.4
X$169 28 29 52 56 INV_X1
* cell instance $172 m0 *1 77.9,4.2
X$172 88 75 52 28 29 XOR2_X2
* cell instance $173 m0 *1 96.33,26.6
X$173 588 638 29 52 590 OR2_X1
* cell instance $175 m0 *1 97.09,26.6
X$175 588 29 52 640 BUF_X1
* cell instance $176 m0 *1 97.66,26.6
X$176 591 29 52 593 BUF_X1
* cell instance $177 m0 *1 98.23,26.6
X$177 639 29 52 592 BUF_X1
* cell instance $179 r0 *1 96.14,26.6
X$179 636 637 29 52 638 NOR2_X1
* cell instance $180 r0 *1 96.71,26.6
X$180 636 29 52 639 INV_X1
* cell instance $181 r0 *1 97.09,26.6
X$181 637 29 52 677 INV_X1
* cell instance $184 r0 *1 98.04,26.6
X$184 677 29 52 641 BUF_X1
* cell instance $189 m0 *1 23.18,9.8
X$189 29 122 2225 34 158 159 52 DFFR_X1
* cell instance $191 m0 *1 26.98,9.8
X$191 130 34 29 52 200 NAND2_X1
* cell instance $195 r0 *1 23.18,9.8
X$195 162 393 189 52 123 29 OAI21_X1
* cell instance $197 r0 *1 24.7,9.8
X$197 162 190 200 52 158 29 OAI21_X1
* cell instance $198 r0 *1 25.46,9.8
X$198 130 124 29 52 189 NAND2_X1
* cell instance $201 r0 *1 27.74,9.8
X$201 35 29 52 205 BUF_X2
* cell instance $202 r0 *1 28.5,9.8
X$202 205 191 192 29 52 221 MUX2_X1
* cell instance $204 r0 *1 30.02,9.8
X$204 29 192 221 206 52 DFF_X1
* cell instance $205 m0 *1 34.77,9.8
X$205 130 112 29 52 173 NAND2_X1
* cell instance $206 m0 *1 30.97,9.8
X$206 29 122 2232 112 172 159 52 DFFR_X1
* cell instance $208 m0 *1 36.86,9.8
X$208 29 122 2229 131 183 159 52 DFFR_X1
* cell instance $210 m0 *1 40.85,9.8
X$210 29 193 174 39 52 DFF_X1
* cell instance $211 m0 *1 44.08,9.8
X$211 160 29 52 39 CLKBUF_X3
* cell instance $212 m0 *1 45.03,9.8
X$212 210 229 184 52 169 29 OAI21_X1
* cell instance $213 m0 *1 45.79,9.8
X$213 130 132 29 52 184 NAND2_X1
* cell instance $216 r0 *1 33.44,9.8
X$216 325 222 173 52 172 29 OAI21_X1
* cell instance $218 r0 *1 34.39,9.8
X$218 192 194 202 52 222 29 OAI21_X1
* cell instance $220 r0 *1 35.53,9.8
X$220 29 226 224 82 52 DFF_X1
* cell instance $224 r0 *1 41.42,9.8
X$224 209 191 193 29 52 174 MUX2_X1
* cell instance $227 r0 *1 43.7,9.8
X$227 193 194 202 52 229 29 OAI21_X1
* cell instance $229 m0 *1 46.93,9.8
X$229 162 185 186 52 161 29 OAI21_X1
* cell instance $234 m0 *1 50.16,9.8
X$234 110 29 52 2287 INV_X1
* cell instance $235 m0 *1 50.54,9.8
X$235 156 29 52 110 CLKBUF_X3
* cell instance $236 m0 *1 51.49,9.8
X$236 188 52 55 29 BUF_X4
* cell instance $239 r0 *1 50.54,9.8
X$239 187 52 111 29 BUF_X4
* cell instance $240 r0 *1 51.87,9.8
X$240 211 52 96 29 BUF_X4
* cell instance $242 r0 *1 53.39,9.8
X$242 195 29 52 130 CLKBUF_X3
* cell instance $243 m0 *1 54.72,9.8
X$243 195 152 29 52 163 NAND2_X1
* cell instance $244 m0 *1 53.96,9.8
X$244 162 175 163 52 135 29 OAI21_X1
* cell instance $248 m0 *1 59.28,9.8
X$248 136 187 164 29 52 138 MUX2_X1
* cell instance $253 r0 *1 58.52,9.8
X$253 177 196 29 211 52 NAND2_X4
* cell instance $258 r0 *1 60.42,9.8
X$258 170 196 29 187 52 NAND2_X4
* cell instance $260 m0 *1 60.99,9.8
X$260 29 153 134 201 127 164 113 139 52 AOI222_X2
* cell instance $262 m0 *1 64.6,9.8
X$262 157 44 176 52 29 170 AND3_X2
* cell instance $263 m0 *1 65.74,9.8
X$263 32 41 52 176 29 AND2_X4
* cell instance $265 m0 *1 68.21,9.8
X$265 182 44 176 52 29 177 AND3_X2
* cell instance $267 m0 *1 69.54,9.8
X$267 154 92 52 29 181 XNOR2_X1
* cell instance $269 m0 *1 70.87,9.8
X$269 180 199 52 166 29 XOR2_X2
* cell instance $272 r0 *1 62.51,9.8
X$272 44 157 176 29 246 52 NAND3_X4
* cell instance $273 r0 *1 64.98,9.8
X$273 99 44 176 52 29 230 AND3_X2
* cell instance $275 r0 *1 66.31,9.8
X$275 44 182 176 29 407 52 NAND3_X4
* cell instance $276 r0 *1 68.78,9.8
X$276 197 142 52 29 253 AND2_X1
* cell instance $278 r0 *1 69.92,9.8
X$278 29 178 228 51 199 197 52 DFFR_X2
* cell instance $279 m0 *1 73.15,9.8
X$279 92 166 52 29 214 XNOR2_X1
* cell instance $281 m0 *1 74.29,9.8
X$281 29 178 216 51 2282 215 52 DFFR_X2
* cell instance $284 m0 *1 80.75,9.8
X$284 179 168 29 52 143 XNOR2_X2
* cell instance $287 m0 *1 83.6,9.8
X$287 29 78 2238 167 515 51 52 DFFR_X1
* cell instance $293 r0 *1 74.1,9.8
X$293 166 223 52 29 217 XNOR2_X1
* cell instance $296 r0 *1 79.04,9.8
X$296 215 218 52 100 29 XOR2_X2
* cell instance $297 r0 *1 80.75,9.8
X$297 220 218 29 52 168 XNOR2_X2
* cell instance $298 r0 *1 82.65,9.8
X$298 29 78 2274 179 198 51 52 DFFR_X1
* cell instance $299 r0 *1 86.45,9.8
X$299 29 78 2264 198 219 51 52 DFFR_X1
* cell instance $307 m0 *1 29.26,54.6
X$307 29 1273 1243 1256 52 DFF_X1
* cell instance $311 r0 *1 29.26,54.6
X$311 1275 1146 1273 29 52 1243 MUX2_X1
* cell instance $312 r0 *1 30.59,54.6
X$312 1255 29 52 1330 INV_X1
* cell instance $314 r0 *1 31.35,54.6
X$314 1273 29 52 1274 INV_X1
* cell instance $315 r0 *1 31.73,54.6
X$315 1275 1272 1276 29 52 1297 MUX2_X1
* cell instance $316 m0 *1 33.06,54.6
X$316 1275 1200 1231 29 52 1212 MUX2_X1
* cell instance $319 r0 *1 33.06,54.6
X$319 29 1276 1297 1256 52 DFF_X1
* cell instance $321 m0 *1 34.77,54.6
X$321 932 127 1231 29 1244 52 AOI21_X1
* cell instance $327 r0 *1 36.86,54.6
X$327 1267 29 52 1145 BUF_X1
* cell instance $329 r0 *1 38.95,54.6
X$329 1145 1272 1306 29 52 1334 MUX2_X1
* cell instance $331 m0 *1 41.42,54.6
X$331 29 1245 1299 1177 52 DFF_X1
* cell instance $336 m0 *1 48.64,54.6
X$336 1246 1200 1279 29 52 1262 MUX2_X1
* cell instance $339 r0 *1 41.8,54.6
X$339 1145 1200 1245 29 52 1299 MUX2_X1
* cell instance $340 r0 *1 43.13,54.6
X$340 932 327 1245 29 1277 52 AOI21_X1
* cell instance $342 r0 *1 44.27,54.6
X$342 1213 328 362 52 1278 29 OAI21_X1
* cell instance $346 r0 *1 46.36,54.6
X$346 29 1279 1262 1308 52 DFF_X1
* cell instance $347 r0 *1 49.59,54.6
X$347 932 327 1279 29 1280 52 AOI21_X1
* cell instance $349 m0 *1 51.3,54.6
X$349 1246 1179 1236 29 52 1235 MUX2_X1
* cell instance $351 m0 *1 52.63,54.6
X$351 1246 1144 1264 29 52 1263 MUX2_X1
* cell instance $352 m0 *1 53.96,54.6
X$352 1246 1241 1265 29 52 1266 MUX2_X1
* cell instance $353 m0 *1 55.29,54.6
X$353 29 1265 1266 1281 52 DFF_X1
* cell instance $355 m0 *1 58.71,54.6
X$355 368 52 1030 29 BUF_X4
* cell instance $356 m0 *1 60.04,54.6
X$356 29 1248 1247 1180 52 DFF_X1
* cell instance $357 m0 *1 63.27,54.6
X$357 932 127 1248 29 1301 52 AOI21_X1
* cell instance $361 r0 *1 52.44,54.6
X$361 29 1264 1263 1281 52 DFF_X1
* cell instance $363 r0 *1 56.43,54.6
X$363 1281 29 52 2295 INV_X1
* cell instance $366 r0 *1 58.71,54.6
X$366 932 52 357 29 BUF_X4
* cell instance $372 r0 *1 61.75,54.6
X$372 1181 1016 1248 29 52 1247 MUX2_X1
* cell instance $374 r0 *1 63.46,54.6
X$374 1180 29 52 2300 INV_X1
* cell instance $375 r0 *1 63.84,54.6
X$375 1300 878 1185 29 52 1336 MUX2_X1
* cell instance $377 m0 *1 64.41,54.6
X$377 1215 1301 396 487 1249 1260 52 29 AOI221_X2
* cell instance $379 m0 *1 69.73,54.6
X$379 1261 328 362 52 1234 29 OAI21_X1
* cell instance $381 m0 *1 71.25,54.6
X$381 1234 1260 1258 1250 52 1221 29 NOR4_X2
* cell instance $383 r0 *1 65.17,54.6
X$383 1292 29 52 1180 CLKBUF_X3
* cell instance $384 r0 *1 66.12,54.6
X$384 1300 540 29 52 1249 NAND2_X1
* cell instance $386 r0 *1 66.88,54.6
X$386 1354 1110 1185 29 52 1335 MUX2_X1
* cell instance $389 r0 *1 68.78,54.6
X$389 1282 1119 1185 29 52 1283 MUX2_X1
* cell instance $392 r0 *1 71.25,54.6
X$392 741 1298 1314 29 1250 52 AOI21_X1
* cell instance $395 r0 *1 72.58,54.6
X$395 29 1331 1296 1199 52 DFF_X1
* cell instance $396 m0 *1 74.67,54.6
X$396 1259 419 29 52 1258 NOR2_X1
* cell instance $397 m0 *1 73.34,54.6
X$397 1229 940 1216 29 52 1259 MUX2_X1
* cell instance $399 m0 *1 75.43,54.6
X$399 668 52 1257 29 BUF_X4
* cell instance $405 r0 *1 76.38,54.6
X$405 1199 29 52 2323 CLKBUF_X1
* cell instance $406 r0 *1 76.95,54.6
X$406 1222 1016 1294 29 52 1328 MUX2_X1
* cell instance $407 r0 *1 78.28,54.6
X$407 1292 29 52 1199 CLKBUF_X3
* cell instance $408 r0 *1 79.23,54.6
X$408 1294 327 52 29 1327 AND2_X1
* cell instance $410 r0 *1 80.18,54.6
X$410 1316 1111 1251 29 52 1325 MUX2_X1
* cell instance $412 r0 *1 82.27,54.6
X$412 1284 1119 1251 29 52 1293 MUX2_X1
* cell instance $413 r0 *1 83.6,54.6
X$413 29 1284 1293 1187 52 DFF_X1
* cell instance $415 m0 *1 84.74,54.6
X$415 889 1097 1224 29 52 1324 OR3_X1
* cell instance $416 m0 *1 86.26,54.6
X$416 790 52 1252 29 BUF_X4
* cell instance $420 r0 *1 86.83,54.6
X$420 1285 1043 1251 29 52 1322 MUX2_X1
* cell instance $423 r0 *1 89.11,54.6
X$423 1187 29 52 2331 CLKBUF_X1
* cell instance $424 m0 *1 89.68,54.6
X$424 1222 853 1189 29 52 1188 MUX2_X1
* cell instance $428 m0 *1 93.29,54.6
X$428 1360 29 52 1181 CLKBUF_X2
* cell instance $429 m0 *1 94.05,54.6
X$429 1288 194 202 52 1220 29 OAI21_X1
* cell instance $430 m0 *1 94.81,54.6
X$430 1221 1220 1218 52 1253 29 OAI21_X1
* cell instance $432 r0 *1 89.68,54.6
X$432 1292 29 52 1187 CLKBUF_X3
* cell instance $433 r0 *1 90.63,54.6
X$433 1185 1088 1288 29 52 1289 MUX2_X1
* cell instance $434 r0 *1 91.96,54.6
X$434 29 1288 1289 1187 52 DFF_X1
* cell instance $435 r0 *1 95.19,54.6
X$435 29 122 2259 1286 1253 159 52 DFFR_X1
* cell instance $436 m0 *1 96.14,54.6
X$436 1045 1286 29 52 1218 NAND2_X1
* cell instance $444 m0 *1 45.79,79.8
X$444 29 1811 1787 1705 52 DFF_X1
* cell instance $447 m0 *1 50.54,79.8
X$447 1819 1310 1767 29 52 1818 MUX2_X1
* cell instance $448 m0 *1 51.87,79.8
X$448 1769 1096 1767 29 52 1809 MUX2_X1
* cell instance $449 m0 *1 53.2,79.8
X$449 29 1769 1809 1735 52 DFF_X1
* cell instance $450 m0 *1 56.43,79.8
X$450 29 1788 1805 1735 52 DFF_X1
* cell instance $452 r0 *1 45.6,79.8
X$452 29 1872 1169 1845 1135 1883 764 1811 52 AOI222_X2
* cell instance $456 r0 *1 50.73,79.8
X$456 29 1819 1818 1735 52 DFF_X1
* cell instance $459 r0 *1 57.38,79.8
X$459 1735 29 52 2328 CLKBUF_X1
* cell instance $461 r0 *1 58.33,79.8
X$461 1842 1133 1850 29 52 1820 MUX2_X1
* cell instance $465 r0 *1 59.66,79.8
X$465 452 1820 729 1844 52 29 2081 OAI22_X1
* cell instance $467 m0 *1 60.04,79.8
X$467 29 1788 1169 1844 1135 1736 764 1770 52 AOI222_X2
* cell instance $470 r0 *1 60.8,79.8
X$470 29 1843 1866 1735 52 DFF_X1
* cell instance $471 m0 *1 64.03,79.8
X$471 29 1789 1801 1592 52 DFF_X1
* cell instance $473 m0 *1 67.26,79.8
X$473 1821 1042 1737 29 52 1822 MUX2_X1
* cell instance $474 m0 *1 68.59,79.8
X$474 561 29 52 1690 CLKBUF_X3
* cell instance $477 m0 *1 73.34,79.8
X$477 29 1076 1776 1834 1740 1252 1790 1095 52 AOI222_X2
* cell instance $478 m0 *1 76,79.8
X$478 1790 1042 1711 29 52 1775 MUX2_X1
* cell instance $481 m0 *1 81.13,79.8
X$481 29 1796 787 1831 745 1741 764 1772 52 AOI222_X2
* cell instance $485 r0 *1 64.41,79.8
X$485 29 1076 1789 1842 1843 1252 1821 1095 52 AOI222_X2
* cell instance $487 r0 *1 67.45,79.8
X$487 29 1821 1822 1771 52 DFF_X1
* cell instance $490 r0 *1 71.25,79.8
X$490 452 1835 729 1838 52 29 1823 OAI22_X1
* cell instance $493 r0 *1 72.77,79.8
X$493 1834 1133 1864 29 52 1835 MUX2_X1
* cell instance $496 r0 *1 80.37,79.8
X$496 452 1832 729 1831 52 29 1912 OAI22_X1
* cell instance $498 r0 *1 81.7,79.8
X$498 1829 1133 1862 29 52 1832 MUX2_X1
* cell instance $501 r0 *1 84.74,79.8
X$501 29 1824 1830 1742 52 DFF_X1
* cell instance $502 m0 *1 86.26,79.8
X$502 1824 1043 1748 29 52 1830 MUX2_X1
* cell instance $503 m0 *1 85.69,79.8
X$503 1060 1891 29 52 1795 NAND2_X1
* cell instance $506 m0 *1 89.3,79.8
X$506 29 1825 1791 1742 52 DFF_X1
* cell instance $510 r0 *1 87.97,79.8
X$510 29 1076 1824 1829 1858 1252 1825 1095 52 AOI222_X2
* cell instance $513 r0 *1 93.86,79.8
X$513 29 122 2263 1792 1855 159 52 DFFR_X1
* cell instance $514 m0 *1 97.66,79.8
X$514 1792 29 52 1793 BUF_X1
* cell instance $521 m0 *1 45.98,85.4
X$521 29 1958 1934 1705 52 DFF_X1
* cell instance $525 m0 *1 50.16,85.4
X$525 1965 1241 1905 29 52 1928 MUX2_X1
* cell instance $529 r0 *1 45.79,85.4
X$529 1965 1200 1958 29 52 1934 MUX2_X1
* cell instance $531 r0 *1 47.31,85.4
X$531 1767 1131 1959 29 52 1981 MUX2_X1
* cell instance $534 r0 *1 49.21,85.4
X$534 1958 966 1959 938 29 52 1982 AOI22_X1
* cell instance $537 r0 *1 53.39,85.4
X$537 1690 29 52 1884 CLKBUF_X3
* cell instance $538 r0 *1 54.34,85.4
X$538 1884 29 52 2332 CLKBUF_X1
* cell instance $540 m0 *1 55.86,85.4
X$540 29 1906 1962 1884 52 DFF_X1
* cell instance $542 m0 *1 59.09,85.4
X$542 1906 966 1907 938 29 52 1936 AOI22_X1
* cell instance $543 m0 *1 60.04,85.4
X$543 29 1907 1887 1771 52 DFF_X1
* cell instance $547 r0 *1 56.62,85.4
X$547 467 29 52 1143 CLKBUF_X3
* cell instance $548 r0 *1 57.57,85.4
X$548 1935 1016 1906 29 52 1962 MUX2_X1
* cell instance $549 r0 *1 58.9,85.4
X$549 1143 1936 29 52 1966 OR2_X1
* cell instance $554 m0 *1 68.4,85.4
X$554 1711 947 1908 29 52 1957 MUX2_X1
* cell instance $555 m0 *1 65.17,85.4
X$555 29 1960 1961 1771 52 DFF_X1
* cell instance $560 r0 *1 66.12,85.4
X$560 1923 1016 1960 29 52 1961 MUX2_X1
* cell instance $563 r0 *1 68.4,85.4
X$563 1960 966 1908 938 29 52 1980 AOI22_X1
* cell instance $564 r0 *1 69.35,85.4
X$564 29 1908 1957 2001 52 DFF_X1
* cell instance $565 m0 *1 72.58,85.4
X$565 29 1921 1922 1771 52 DFF_X1
* cell instance $570 r0 *1 73.53,85.4
X$570 1937 814 1967 29 52 1977 MUX2_X1
* cell instance $572 r0 *1 75.24,85.4
X$572 1921 966 1910 938 29 52 1938 AOI22_X1
* cell instance $573 m0 *1 76.38,85.4
X$573 1853 496 1909 938 29 52 1951 AOI22_X1
* cell instance $577 r0 *1 76.19,85.4
X$577 1143 1938 29 52 1939 OR2_X1
* cell instance $578 r0 *1 76.95,85.4
X$578 1949 1975 1939 356 29 52 1940 NAND4_X1
* cell instance $579 r0 *1 77.9,85.4
X$579 1143 1951 29 52 1941 OR2_X1
* cell instance $580 m0 *1 79.8,85.4
X$580 29 1910 1914 1911 52 DFF_X1
* cell instance $581 m0 *1 78.47,85.4
X$581 1748 947 1910 29 52 1914 MUX2_X1
* cell instance $588 r0 *1 78.66,85.4
X$588 1971 1561 29 52 1949 NAND2_X1
* cell instance $590 r0 *1 79.99,85.4
X$590 1912 1940 2008 1942 1542 1494 29 52 1943 OAI33_X1
* cell instance $594 r0 *1 88.54,85.4
X$594 1690 29 52 1890 CLKBUF_X3
* cell instance $600 m0 *1 11.4,68.6
X$600 1531 388 1577 29 52 1582 MUX2_X1
* cell instance $604 m0 *1 14.44,68.6
X$604 29 1559 1579 1532 52 DFF_X1
* cell instance $607 m0 *1 9.5,68.6
X$607 1425 1146 1577 29 52 1576 MUX2_X1
* cell instance $610 r0 *1 9.31,68.6
X$610 29 1577 1576 1596 52 DFF_X1
* cell instance $611 r0 *1 12.54,68.6
X$611 29 1597 1613 1596 52 DFF_X1
* cell instance $612 r0 *1 15.77,68.6
X$612 1425 1200 1597 29 52 1613 MUX2_X1
* cell instance $614 r0 *1 17.48,68.6
X$614 1597 966 1559 347 29 52 1642 AOI22_X1
* cell instance $615 r0 *1 18.43,68.6
X$615 29 1562 1560 1532 52 DFF_X1
* cell instance $616 m0 *1 20.14,68.6
X$616 1582 1561 29 52 1615 NAND2_X1
* cell instance $617 m0 *1 18.81,68.6
X$617 1464 1563 1562 29 52 1560 MUX2_X1
* cell instance $619 m0 *1 20.9,68.6
X$619 1580 1583 1548 1562 518 521 29 52 1584 OAI33_X1
* cell instance $622 m0 *1 24.51,68.6
X$622 464 29 52 1631 CLKBUF_X3
* cell instance $626 r0 *1 21.66,68.6
X$626 1615 1598 1616 651 29 52 1583 NAND4_X1
* cell instance $631 r0 *1 28.12,68.6
X$631 1600 1535 1140 29 52 1618 MUX2_X1
* cell instance $632 r0 *1 29.45,68.6
X$632 29 1600 1618 1599 52 DFF_X1
* cell instance $634 r0 *1 32.87,68.6
X$634 741 1650 1619 29 1536 52 AOI21_X1
* cell instance $636 r0 *1 34.01,68.6
X$636 1600 982 1601 900 29 52 1619 AOI22_X1
* cell instance $637 m0 *1 35.15,68.6
X$637 1379 1563 1587 29 52 1564 MUX2_X1
* cell instance $639 m0 *1 36.48,68.6
X$639 1587 194 202 52 1565 29 OAI21_X1
* cell instance $643 r0 *1 35.34,68.6
X$643 29 1587 1564 1528 52 DFF_X1
* cell instance $645 r0 *1 38.95,68.6
X$645 1341 29 52 1528 CLKBUF_X3
* cell instance $646 m0 *1 42.37,68.6
X$646 1566 1535 1348 29 52 1589 MUX2_X1
* cell instance $647 m0 *1 39.14,68.6
X$647 29 1566 1589 1528 52 DFF_X1
* cell instance $650 m0 *1 46.93,68.6
X$650 1591 1476 1413 29 52 1567 MUX2_X1
* cell instance $652 m0 *1 49.02,68.6
X$652 1537 982 1591 900 29 52 1594 AOI22_X1
* cell instance $653 m0 *1 49.97,68.6
X$653 741 1593 1594 29 1387 52 AOI21_X1
* cell instance $655 m0 *1 51.49,68.6
X$655 257 52 1563 29 BUF_X4
* cell instance $657 r0 *1 39.9,68.6
X$657 1528 29 52 2213 INV_X2
* cell instance $660 r0 *1 41.04,68.6
X$660 1602 1476 1348 29 52 1621 MUX2_X1
* cell instance $662 r0 *1 43.13,68.6
X$662 1566 982 1602 900 29 52 1622 AOI22_X1
* cell instance $663 r0 *1 44.08,68.6
X$663 741 1672 1622 29 1385 52 AOI21_X1
* cell instance $666 r0 *1 46.74,68.6
X$666 29 1591 1567 1506 52 DFF_X1
* cell instance $669 m0 *1 53.39,68.6
X$669 29 1539 1595 1508 52 DFF_X1
* cell instance $671 m0 *1 56.62,68.6
X$671 1403 811 1539 29 52 1595 MUX2_X1
* cell instance $674 r0 *1 53.39,68.6
X$674 195 52 162 29 BUF_X4
* cell instance $675 r0 *1 54.72,68.6
X$675 1292 29 52 1508 CLKBUF_X3
* cell instance $682 m0 *1 59.09,68.6
X$682 29 1590 1554 1592 52 DFF_X1
* cell instance $684 m0 *1 64.03,68.6
X$684 29 1076 1569 1553 1603 134 1541 1095 52 AOI222_X2
* cell instance $685 m0 *1 66.69,68.6
X$685 1569 1043 1419 29 52 1588 MUX2_X1
* cell instance $688 m0 *1 70.3,68.6
X$688 29 1605 1620 1430 52 DFF_X1
* cell instance $689 m0 *1 73.53,68.6
X$689 741 1643 1570 29 1586 52 AOI21_X1
* cell instance $690 m0 *1 74.29,68.6
X$690 29 1525 1585 1430 52 DFF_X1
* cell instance $691 m0 *1 77.52,68.6
X$691 1525 878 1571 29 52 1585 MUX2_X1
* cell instance $693 m0 *1 79.04,68.6
X$693 1578 452 29 52 1572 NOR2_X1
* cell instance $696 r0 *1 59.66,68.6
X$696 1556 1568 1625 1590 1542 1494 29 52 1626 OAI33_X1
* cell instance $697 r0 *1 60.99,68.6
X$697 29 1603 1624 1592 52 DFF_X1
* cell instance $698 r0 *1 64.22,68.6
X$698 1603 884 1419 29 52 1624 MUX2_X1
* cell instance $699 r0 *1 65.55,68.6
X$699 29 1569 1588 1313 52 DFF_X1
* cell instance $702 r0 *1 69.92,68.6
X$702 29 1604 1623 1313 52 DFF_X1
* cell instance $703 r0 *1 73.15,68.6
X$703 1604 982 1605 900 29 52 1570 AOI22_X1
* cell instance $705 r0 *1 74.48,68.6
X$705 1605 1119 1571 29 52 1620 MUX2_X1
* cell instance $709 r0 *1 77.9,68.6
X$709 1572 1523 1586 1641 1542 1494 29 52 1612 OAI33_X1
* cell instance $712 m0 *1 79.99,68.6
X$712 29 1513 1581 1573 52 DFF_X1
* cell instance $714 m0 *1 85.5,68.6
X$714 1575 354 1489 29 52 1578 MUX2_X1
* cell instance $717 r0 *1 80.75,68.6
X$717 1571 947 1512 29 52 1617 MUX2_X1
* cell instance $718 r0 *1 82.08,68.6
X$718 29 1512 1617 1546 52 DFF_X1
* cell instance $719 r0 *1 85.31,68.6
X$719 29 1606 1614 1546 52 DFF_X1
* cell instance $721 m0 *1 87.97,68.6
X$721 29 1076 1606 1575 1574 134 1607 327 52 AOI222_X2
* cell instance $722 m0 *1 90.82,68.6
X$722 195 52 1045 29 BUF_X4
* cell instance $727 r0 *1 88.54,68.6
X$727 1606 1043 1571 29 52 1614 MUX2_X1
* cell instance $729 r0 *1 90.63,68.6
X$729 29 1574 1608 1391 52 DFF_X1
* cell instance $731 r0 *1 94.62,68.6
X$731 1543 1612 1611 52 1639 29 OAI21_X1
* cell instance $734 r0 *1 97.66,68.6
X$734 1045 1609 29 52 1611 NAND2_X1
* cell instance $736 r0 *1 98.42,68.6
X$736 1609 29 52 1610 BUF_X1
* cell instance $739 m0 *1 4.94,21
X$739 432 388 366 29 52 435 MUX2_X1
* cell instance $742 m0 *1 6.46,21
X$742 282 29 52 304 BUF_X2
* cell instance $743 m0 *1 7.22,21
X$743 29 389 462 343 52 DFF_X1
* cell instance $744 m0 *1 10.45,21
X$744 389 433 323 29 52 462 MUX2_X1
* cell instance $747 m0 *1 12.73,21
X$747 29 391 463 390 52 DFF_X1
* cell instance $748 m0 *1 15.96,21
X$748 282 242 391 29 52 463 MUX2_X1
* cell instance $749 m0 *1 17.29,21
X$749 282 111 420 29 52 392 MUX2_X1
* cell instance $756 r0 *1 1.52,21
X$756 29 432 506 343 52 DFF_X1
* cell instance $760 r0 *1 4.75,21
X$760 432 433 304 29 52 506 MUX2_X1
* cell instance $762 r0 *1 6.46,21
X$762 29 434 461 343 52 DFF_X1
* cell instance $763 r0 *1 9.69,21
X$763 434 367 304 29 52 461 MUX2_X1
* cell instance $765 r0 *1 11.21,21
X$765 259 486 434 29 52 510 MUX2_X1
* cell instance $768 r0 *1 13.68,21
X$768 260 486 346 29 52 436 MUX2_X1
* cell instance $770 r0 *1 15.39,21
X$770 487 436 279 437 29 52 441 AOI22_X1
* cell instance $771 r0 *1 16.34,21
X$771 487 510 391 437 29 52 509 AOI22_X1
* cell instance $774 r0 *1 18.43,21
X$774 435 438 29 52 468 NAND2_X1
* cell instance $775 r0 *1 19,21
X$775 345 438 29 52 439 NAND2_X1
* cell instance $776 m0 *1 19.76,21
X$776 464 465 281 29 52 440 NAND3_X1
* cell instance $777 m0 *1 19,21
X$777 464 465 420 29 52 466 NAND3_X1
* cell instance $778 m0 *1 20.52,21
X$778 467 321 29 52 469 OR2_X1
* cell instance $782 r0 *1 19.76,21
X$782 439 440 442 513 29 52 519 NAND4_X1
* cell instance $783 r0 *1 20.71,21
X$783 468 466 469 513 29 52 470 NAND4_X1
* cell instance $784 r0 *1 21.66,21
X$784 441 516 29 52 474 NOR2_X1
* cell instance $785 r0 *1 22.23,21
X$785 509 516 29 52 517 NOR2_X1
* cell instance $787 m0 *1 22.42,21
X$787 236 29 52 2309 CLKBUF_X1
* cell instance $788 m0 *1 23.75,21
X$788 304 191 394 29 52 476 MUX2_X1
* cell instance $789 m0 *1 25.08,21
X$789 29 394 476 236 52 DFF_X1
* cell instance $792 r0 *1 22.8,21
X$792 514 470 517 394 518 521 29 52 393 OAI33_X1
* cell instance $794 r0 *1 24.32,21
X$794 520 519 474 349 518 521 29 52 190 OAI33_X1
* cell instance $796 m0 *1 33.06,21
X$796 444 477 479 478 29 52 325 NOR4_X1
* cell instance $797 m0 *1 31.73,21
X$797 490 396 207 29 52 443 MUX2_X1
* cell instance $802 r0 *1 33.06,21
X$802 443 419 29 52 478 NOR2_X1
* cell instance $804 r0 *1 33.82,21
X$804 29 447 480 445 52 DFF_X1
* cell instance $805 m0 *1 35.53,21
X$805 447 367 241 29 52 480 MUX2_X1
* cell instance $806 m0 *1 34.39,21
X$806 353 341 354 357 395 29 52 479 AOI221_X1
* cell instance $810 m0 *1 37.24,21
X$810 447 448 29 52 425 NAND2_X1
* cell instance $812 m0 *1 38.76,21
X$812 426 419 29 52 428 NOR2_X1
* cell instance $816 m0 *1 40.66,21
X$816 29 527 481 340 52 DFF_X1
* cell instance $818 m0 *1 43.89,21
X$818 483 396 133 29 52 484 MUX2_X1
* cell instance $819 m0 *1 45.22,21
X$819 484 419 29 52 360 NOR2_X1
* cell instance $821 r0 *1 41.61,21
X$821 527 367 209 29 52 481 MUX2_X1
* cell instance $822 r0 *1 42.94,21
X$822 326 327 288 29 397 52 AOI21_X1
* cell instance $823 r0 *1 43.7,21
X$823 527 448 29 52 429 NAND2_X1
* cell instance $825 r0 *1 45.03,21
X$825 156 29 52 340 CLKBUF_X3
* cell instance $826 r0 *1 45.98,21
X$826 340 29 52 2285 CLKBUF_X2
* cell instance $828 m0 *1 46.17,21
X$828 485 367 330 29 52 449 MUX2_X1
* cell instance $830 m0 *1 49.78,21
X$830 326 327 266 29 399 52 AOI21_X1
* cell instance $831 m0 *1 50.54,21
X$831 485 448 29 52 431 NAND2_X1
* cell instance $834 r0 *1 46.93,21
X$834 29 485 449 340 52 DFF_X1
* cell instance $836 m0 *1 52.82,21
X$836 400 331 379 450 29 52 290 NOR4_X1
* cell instance $837 m0 *1 51.49,21
X$837 497 396 120 29 52 430 MUX2_X1
* cell instance $838 m0 *1 53.77,21
X$838 430 452 29 52 450 NOR2_X1
* cell instance $844 r0 *1 54.53,21
X$844 363 29 52 2286 CLKBUF_X2
* cell instance $845 r0 *1 55.29,21
X$845 156 29 52 363 CLKBUF_X3
* cell instance $846 m0 *1 55.67,21
X$846 29 451 482 363 52 DFF_X1
* cell instance $851 r0 *1 56.43,21
X$851 72 188 451 29 52 482 MUX2_X1
* cell instance $858 r0 *1 59.09,21
X$858 451 486 539 29 52 534 MUX2_X1
* cell instance $860 r0 *1 60.61,21
X$860 487 534 499 437 29 52 579 AOI22_X1
* cell instance $862 m0 *1 64.41,21
X$862 333 257 409 29 52 405 MUX2_X1
* cell instance $863 m0 *1 62.32,21
X$863 402 372 354 357 475 471 52 29 AOI221_X2
* cell instance $864 m0 *1 65.74,21
X$864 500 396 201 29 52 473 MUX2_X1
* cell instance $865 m0 *1 67.07,21
X$865 473 452 29 52 408 NOR2_X1
* cell instance $866 m0 *1 67.64,21
X$866 717 423 471 408 29 52 421 NOR4_X1
* cell instance $868 m0 *1 68.78,21
X$868 409 362 332 52 369 29 OAI21_X1
* cell instance $869 m0 *1 69.54,21
X$869 314 29 52 2291 INV_X1
* cell instance $872 r0 *1 63.08,21
X$872 529 472 333 29 52 531 MUX2_X1
* cell instance $873 r0 *1 64.41,21
X$873 529 448 29 52 475 NAND2_X1
* cell instance $874 r0 *1 64.98,21
X$874 403 52 328 29 BUF_X4
* cell instance $876 r0 *1 66.5,21
X$876 297 406 472 29 52 NOR2_X4
* cell instance $878 r0 *1 68.59,21
X$878 513 52 362 29 BUF_X4
* cell instance $882 r0 *1 71.25,21
X$882 362 52 194 29 BUF_X4
* cell instance $884 m0 *1 74.67,21
X$884 29 122 2224 522 299 159 52 DFFR_X1
* cell instance $885 m0 *1 73.34,21
X$885 452 52 419 29 BUF_X4
* cell instance $887 m0 *1 79.99,21
X$887 29 122 2236 453 418 159 52 DFFR_X1
* cell instance $892 r0 *1 79.23,21
X$892 29 122 2255 455 522 159 52 DFFR_X1
* cell instance $896 m0 *1 43.51,74.2
X$896 1348 1563 1703 29 52 1706 MUX2_X1
* cell instance $897 m0 *1 40.28,74.2
X$897 29 1685 1683 1528 52 DFF_X1
* cell instance $900 m0 *1 46.55,74.2
X$900 1703 194 202 52 1707 29 OAI21_X1
* cell instance $901 m0 *1 47.31,74.2
X$901 29 1637 1674 1508 52 DFF_X1
* cell instance $904 m0 *1 52.82,74.2
X$904 1401 1730 1686 52 1729 29 OAI21_X1
* cell instance $906 m0 *1 56.62,74.2
X$906 29 1671 1687 1508 52 DFF_X1
* cell instance $907 m0 *1 59.85,74.2
X$907 29 1656 1731 1592 52 DFF_X1