* CDL Netlist generated by OpenROAD

*.BUSDELIMITER [

.SUBCKT clock_domain_crossing_fifo rd_almost_empty rd_clk
+ rd_count[0] rd_count[1] rd_count[2] rd_count[3] rd_count[4]
+ rd_data[0] rd_data[10] rd_data[11] rd_data[12] rd_data[13]
+ rd_data[14] rd_data[15] rd_data[16] rd_data[17] rd_data[18]
+ rd_data[19] rd_data[1] rd_data[20] rd_data[21] rd_data[22]
+ rd_data[23] rd_data[24] rd_data[25] rd_data[26] rd_data[27]
+ rd_data[28] rd_data[29] rd_data[2] rd_data[30] rd_data[31]
+ rd_data[3] rd_data[4] rd_data[5] rd_data[6] rd_data[7] rd_data[8]
+ rd_data[9] rd_empty rd_en rd_rst_n wr_almost_full wr_clk wr_count[0]
+ wr_count[1] wr_count[2] wr_count[3] wr_count[4] wr_data[0]
+ wr_data[10] wr_data[11] wr_data[12] wr_data[13] wr_data[14]
+ wr_data[15] wr_data[16] wr_data[17] wr_data[18] wr_data[19]
+ wr_data[1] wr_data[20] wr_data[21] wr_data[22] wr_data[23]
+ wr_data[24] wr_data[25] wr_data[26] wr_data[27] wr_data[28]
+ wr_data[29] wr_data[2] wr_data[30] wr_data[31] wr_data[3]
+ wr_data[4] wr_data[5] wr_data[6] wr_data[7] wr_data[8] wr_data[9]
+ wr_en wr_full wr_rst_n
X_2012_ rd_ptr_gray_sync2\[3\] rd_ptr_gray_sync2\[4\] _1979_
+ VDD VSS XNOR2_X2
X_2013_ rd_ptr_gray_sync2\[2\] _1979_ _0568_ VDD VSS XNOR2_X2
X_2014_ rd_ptr_gray_sync2\[1\] _0568_ _1969_ VDD VSS XNOR2_X2
X_2015_ _2011_ net46 VDD VSS INV_X1
X_2016_ _0568_ _1976_ VDD VSS INV_X1
X_2017_ _1978_ _0569_ VDD VSS BUF_X2
X_2018_ rd_ptr_gray_sync2\[4\] wr_ptr_bin\[4\] _0570_ VDD
+ VSS XOR2_X2
X_2019_ _1975_ _2011_ _0571_ VDD VSS AND2_X1
X_2020_ _1981_ _0569_ _0570_ _0571_ _0572_ VDD VSS NAND4_X4
X_2021_ _0572_ net51 VDD VSS INV_X1
X_2022_ _1974_ _0573_ VDD VSS INV_X1
X_2023_ _1975_ _0574_ VDD VSS INV_X1
X_2024_ _0573_ _1965_ _0574_ _0575_ VDD VSS OAI21_X1
X_2025_ _1977_ _0569_ _0575_ _0576_ VDD VSS AOI21_X1
X_2026_ _1981_ _0576_ _0577_ VDD VSS XOR2_X2
X_2027_ _0577_ net49 VDD VSS INV_X1
X_2028_ _1977_ _0578_ VDD VSS INV_X1
X_2029_ _0569_ _0579_ VDD VSS INV_X1
X_2030_ _0578_ _1967_ _0579_ _0580_ VDD VSS OAI21_X1
X_2031_ _1980_ _0580_ _1981_ _0581_ VDD VSS AOI21_X1
X_2032_ _0570_ _0581_ _0582_ VDD VSS XNOR2_X1
X_2033_ _0582_ net50 VDD VSS INV_X1
X_2034_ wr_ptr_gray_sync2\[3\] wr_ptr_gray_sync2\[4\] _1987_
+ VDD VSS XOR2_X2
X_2035_ wr_ptr_gray_sync2\[2\] _1987_ _1991_ VDD VSS XOR2_X2
X_2036_ wr_ptr_gray_sync2\[1\] _1991_ _1971_ VDD VSS XNOR2_X2
X_2037_ _1973_ net8 VDD VSS INV_X1
X_2038_ _1972_ _1993_ net9 VDD VSS XNOR2_X1
X_2039_ _1992_ _0583_ VDD VSS INV_X1
X_2040_ _1970_ _0584_ VDD VSS INV_X1
X_2041_ _1984_ _0584_ _1985_ _0585_ VDD VSS AOI21_X1
X_2042_ _1993_ _0586_ VDD VSS INV_X1
X_2043_ _0583_ _0585_ _0586_ _0587_ VDD VSS OAI21_X1
X_2044_ _1989_ _0587_ net10 VDD VSS XOR2_X1
X_2045_ wr_ptr_gray_sync2\[4\] rd_ptr_bin\[4\] _0588_ VDD
+ VSS XNOR2_X2
X_2046_ _0583_ _0586_ _1972_ _0589_ VDD VSS OAI21_X1
X_2047_ _1988_ _0589_ _1989_ _0590_ VDD VSS AOI21_X1
X_2048_ _0588_ _0590_ net11 VDD VSS XNOR2_X1
X_2049_ _0588_ _0591_ VDD VSS INV_X1
X_2050_ wr_ptr_gray_sync2\[3\] rd_ptr_gray\[3\] _0592_ VDD
+ VSS XNOR2_X1
X_2051_ wr_ptr_gray_sync2\[0\] rd_ptr_gray\[0\] _0593_ VDD
+ VSS XNOR2_X1
X_2052_ wr_ptr_gray_sync2\[1\] rd_ptr_gray\[1\] _0594_ VDD
+ VSS XNOR2_X1
X_2053_ wr_ptr_gray_sync2\[2\] rd_ptr_gray\[2\] _0595_ VDD
+ VSS XNOR2_X1
X_2054_ _0592_ _0593_ _0594_ _0595_ _0596_ VDD VSS NAND4_X2
X_2055_ _0591_ _0596_ net44 VDD VSS NOR2_X1
X_2056_ _1969_ _1966_ VDD VSS INV_X1
X_2057_ _1971_ _1983_ VDD VSS INV_X1
X_2058_ wr_ptr_gray_sync2\[0\] _1971_ _2008_ VDD VSS XOR2_X2
X_2059_ rd_ptr_gray_sync2\[0\] _1969_ _2010_ VDD VSS XNOR2_X1
X_2060_ _2009_ net7 VDD VSS INV_X1
X_2061_ wr_data[0] _0597_ VDD VSS CLKBUF_X2
X_2062_ _0597_ _0598_ VDD VSS BUF_X2
X_2063_ wr_ptr_bin\[2\] _0599_ VDD VSS BUF_X2
X_2064_ wr_ptr_bin\[3\] _0599_ _0600_ VDD VSS NOR2_X4
X_2065_ net4 net5 _0601_ VDD VSS AND2_X4
X_2066_ _1994_ _0572_ _0601_ _0602_ VDD VSS AND3_X2
X_2067_ _0600_ _0602_ _0603_ VDD VSS NAND2_X4
X_2068_ _0603_ _0604_ VDD VSS BUF_X4
X_2069_ _0598_ mem\[0\]\[0\] _0604_ _0006_ VDD VSS MUX2_X1
X_2070_ wr_data[10] _0605_ VDD VSS CLKBUF_X2
X_2071_ _0605_ _0606_ VDD VSS BUF_X2
X_2072_ _0606_ mem\[0\]\[10\] _0604_ _0007_ VDD VSS MUX2_X1
X_2073_ wr_data[11] _0607_ VDD VSS CLKBUF_X2
X_2074_ _0607_ _0608_ VDD VSS BUF_X2
X_2075_ _0608_ mem\[0\]\[11\] _0604_ _0008_ VDD VSS MUX2_X1
X_2076_ wr_data[12] _0609_ VDD VSS BUF_X1
X_2077_ _0609_ _0610_ VDD VSS CLKBUF_X2
X_2078_ _0610_ mem\[0\]\[12\] _0604_ _0009_ VDD VSS MUX2_X1
X_2079_ wr_data[13] _0611_ VDD VSS CLKBUF_X2
X_2080_ _0611_ _0612_ VDD VSS BUF_X2
X_2081_ _0612_ mem\[0\]\[13\] _0604_ _0010_ VDD VSS MUX2_X1
X_2082_ wr_data[14] _0613_ VDD VSS CLKBUF_X2
X_2083_ _0613_ _0614_ VDD VSS BUF_X2
X_2084_ _0614_ mem\[0\]\[14\] _0604_ _0011_ VDD VSS MUX2_X1
X_2085_ wr_data[15] _0615_ VDD VSS CLKBUF_X2
X_2086_ _0615_ _0616_ VDD VSS BUF_X2
X_2087_ _0616_ mem\[0\]\[15\] _0604_ _0012_ VDD VSS MUX2_X1
X_2088_ wr_data[16] _0617_ VDD VSS BUF_X1
X_2089_ _0617_ _0618_ VDD VSS BUF_X2
X_2090_ _0618_ mem\[0\]\[16\] _0604_ _0013_ VDD VSS MUX2_X1
X_2091_ wr_data[17] _0619_ VDD VSS BUF_X1
X_2092_ _0619_ _0620_ VDD VSS BUF_X2
X_2093_ _0620_ mem\[0\]\[17\] _0604_ _0014_ VDD VSS MUX2_X1
X_2094_ wr_data[18] _0621_ VDD VSS CLKBUF_X2
X_2095_ _0621_ _0622_ VDD VSS BUF_X2
X_2096_ _0622_ mem\[0\]\[18\] _0604_ _0015_ VDD VSS MUX2_X1
X_2097_ wr_data[19] _0623_ VDD VSS BUF_X1
X_2098_ _0623_ _0624_ VDD VSS BUF_X2
X_2099_ _0603_ _0625_ VDD VSS BUF_X4
X_2100_ _0624_ mem\[0\]\[19\] _0625_ _0016_ VDD VSS MUX2_X1
X_2101_ wr_data[1] _0626_ VDD VSS BUF_X1
X_2102_ _0626_ _0627_ VDD VSS CLKBUF_X2
X_2103_ _0627_ mem\[0\]\[1\] _0625_ _0017_ VDD VSS MUX2_X1
X_2104_ wr_data[20] _0628_ VDD VSS CLKBUF_X2
X_2105_ _0628_ _0629_ VDD VSS CLKBUF_X2
X_2106_ _0629_ mem\[0\]\[20\] _0625_ _0018_ VDD VSS MUX2_X1
X_2107_ wr_data[21] _0630_ VDD VSS BUF_X1
X_2108_ _0630_ _0631_ VDD VSS BUF_X2
X_2109_ _0631_ mem\[0\]\[21\] _0625_ _0019_ VDD VSS MUX2_X1
X_2110_ wr_data[22] _0632_ VDD VSS CLKBUF_X2
X_2111_ _0632_ _0633_ VDD VSS BUF_X2
X_2112_ _0633_ mem\[0\]\[22\] _0625_ _0020_ VDD VSS MUX2_X1
X_2113_ wr_data[23] _0634_ VDD VSS CLKBUF_X2
X_2114_ _0634_ _0635_ VDD VSS BUF_X2
X_2115_ _0635_ mem\[0\]\[23\] _0625_ _0021_ VDD VSS MUX2_X1
X_2116_ wr_data[24] _0636_ VDD VSS BUF_X1
X_2117_ _0636_ _0637_ VDD VSS CLKBUF_X2
X_2118_ _0637_ mem\[0\]\[24\] _0625_ _0022_ VDD VSS MUX2_X1
X_2119_ wr_data[25] _0638_ VDD VSS CLKBUF_X2
X_2120_ _0638_ _0639_ VDD VSS BUF_X2
X_2121_ _0639_ mem\[0\]\[25\] _0625_ _0023_ VDD VSS MUX2_X1
X_2122_ wr_data[26] _0640_ VDD VSS BUF_X1
X_2123_ _0640_ _0641_ VDD VSS CLKBUF_X2
X_2124_ _0641_ mem\[0\]\[26\] _0625_ _0024_ VDD VSS MUX2_X1
X_2125_ wr_data[27] _0642_ VDD VSS CLKBUF_X2
X_2126_ _0642_ _0643_ VDD VSS BUF_X2
X_2127_ _0643_ mem\[0\]\[27\] _0625_ _0025_ VDD VSS MUX2_X1
X_2128_ wr_data[28] _0644_ VDD VSS BUF_X1
X_2129_ _0644_ _0645_ VDD VSS BUF_X2
X_2130_ _0603_ _0646_ VDD VSS BUF_X4
X_2131_ _0645_ mem\[0\]\[28\] _0646_ _0026_ VDD VSS MUX2_X1
X_2132_ wr_data[29] _0647_ VDD VSS CLKBUF_X2
X_2133_ _0647_ _0648_ VDD VSS BUF_X2
X_2134_ _0648_ mem\[0\]\[29\] _0646_ _0027_ VDD VSS MUX2_X1
X_2135_ wr_data[2] _0649_ VDD VSS BUF_X1
X_2136_ _0649_ _0650_ VDD VSS BUF_X2
X_2137_ _0650_ mem\[0\]\[2\] _0646_ _0028_ VDD VSS MUX2_X1
X_2138_ wr_data[30] _0651_ VDD VSS BUF_X1
X_2139_ _0651_ _0652_ VDD VSS BUF_X2
X_2140_ _0652_ mem\[0\]\[30\] _0646_ _0029_ VDD VSS MUX2_X1
X_2141_ wr_data[31] _0653_ VDD VSS BUF_X2
X_2142_ _0653_ _0654_ VDD VSS BUF_X2
X_2143_ _0654_ mem\[0\]\[31\] _0646_ _0030_ VDD VSS MUX2_X1
X_2144_ wr_data[3] _0655_ VDD VSS BUF_X1
X_2145_ _0655_ _0656_ VDD VSS BUF_X2
X_2146_ _0656_ mem\[0\]\[3\] _0646_ _0031_ VDD VSS MUX2_X1
X_2147_ wr_data[4] _0657_ VDD VSS BUF_X1
X_2148_ _0657_ _0658_ VDD VSS BUF_X2
X_2149_ _0658_ mem\[0\]\[4\] _0646_ _0032_ VDD VSS MUX2_X1
X_2150_ wr_data[5] _0659_ VDD VSS CLKBUF_X2
X_2151_ _0659_ _0660_ VDD VSS BUF_X2
X_2152_ _0660_ mem\[0\]\[5\] _0646_ _0033_ VDD VSS MUX2_X1
X_2153_ wr_data[6] _0661_ VDD VSS BUF_X1
X_2154_ _0661_ _0662_ VDD VSS BUF_X2
X_2155_ _0662_ mem\[0\]\[6\] _0646_ _0034_ VDD VSS MUX2_X1
X_2156_ wr_data[7] _0663_ VDD VSS BUF_X1
X_2157_ _0663_ _0664_ VDD VSS BUF_X2
X_2158_ _0664_ mem\[0\]\[7\] _0646_ _0035_ VDD VSS MUX2_X1
X_2159_ wr_data[8] _0665_ VDD VSS BUF_X1
X_2160_ _0665_ _0666_ VDD VSS BUF_X2
X_2161_ _0666_ mem\[0\]\[8\] _0603_ _0036_ VDD VSS MUX2_X1
X_2162_ wr_data[9] _0667_ VDD VSS CLKBUF_X2
X_2163_ _0667_ _0668_ VDD VSS BUF_X2
X_2164_ _0668_ mem\[0\]\[9\] _0603_ _0037_ VDD VSS MUX2_X1
X_2165_ _0599_ _0669_ VDD VSS INV_X1
X_2166_ wr_ptr_bin\[3\] _0669_ _0670_ VDD VSS NAND2_X4
X_2167_ _1995_ _0572_ _0601_ _0671_ VDD VSS NAND3_X4
X_2168_ _0670_ _0671_ _0672_ VDD VSS NOR2_X4
X_2169_ _0672_ _0673_ VDD VSS BUF_X4
X_2170_ mem\[10\]\[0\] _0598_ _0673_ _0038_ VDD VSS MUX2_X1
X_2171_ mem\[10\]\[10\] _0606_ _0673_ _0039_ VDD VSS MUX2_X1
X_2172_ mem\[10\]\[11\] _0608_ _0673_ _0040_ VDD VSS MUX2_X1
X_2173_ mem\[10\]\[12\] _0610_ _0673_ _0041_ VDD VSS MUX2_X1
X_2174_ mem\[10\]\[13\] _0612_ _0673_ _0042_ VDD VSS MUX2_X1
X_2175_ mem\[10\]\[14\] _0614_ _0673_ _0043_ VDD VSS MUX2_X1
X_2176_ mem\[10\]\[15\] _0616_ _0673_ _0044_ VDD VSS MUX2_X1
X_2177_ mem\[10\]\[16\] _0618_ _0673_ _0045_ VDD VSS MUX2_X1
X_2178_ mem\[10\]\[17\] _0620_ _0673_ _0046_ VDD VSS MUX2_X1
X_2179_ mem\[10\]\[18\] _0622_ _0673_ _0047_ VDD VSS MUX2_X1
X_2180_ _0672_ _0674_ VDD VSS BUF_X4
X_2181_ mem\[10\]\[19\] _0624_ _0674_ _0048_ VDD VSS MUX2_X1
X_2182_ mem\[10\]\[1\] _0627_ _0674_ _0049_ VDD VSS MUX2_X1
X_2183_ mem\[10\]\[20\] _0629_ _0674_ _0050_ VDD VSS MUX2_X1
X_2184_ mem\[10\]\[21\] _0631_ _0674_ _0051_ VDD VSS MUX2_X1
X_2185_ mem\[10\]\[22\] _0633_ _0674_ _0052_ VDD VSS MUX2_X1
X_2186_ mem\[10\]\[23\] _0635_ _0674_ _0053_ VDD VSS MUX2_X1
X_2187_ mem\[10\]\[24\] _0637_ _0674_ _0054_ VDD VSS MUX2_X1
X_2188_ mem\[10\]\[25\] _0639_ _0674_ _0055_ VDD VSS MUX2_X1
X_2189_ mem\[10\]\[26\] _0641_ _0674_ _0056_ VDD VSS MUX2_X1
X_2190_ mem\[10\]\[27\] _0643_ _0674_ _0057_ VDD VSS MUX2_X1
X_2191_ _0672_ _0675_ VDD VSS BUF_X4
X_2192_ mem\[10\]\[28\] _0645_ _0675_ _0058_ VDD VSS MUX2_X1
X_2193_ mem\[10\]\[29\] _0648_ _0675_ _0059_ VDD VSS MUX2_X1
X_2194_ mem\[10\]\[2\] _0650_ _0675_ _0060_ VDD VSS MUX2_X1
X_2195_ mem\[10\]\[30\] _0652_ _0675_ _0061_ VDD VSS MUX2_X1
X_2196_ mem\[10\]\[31\] _0654_ _0675_ _0062_ VDD VSS MUX2_X1
X_2197_ mem\[10\]\[3\] _0656_ _0675_ _0063_ VDD VSS MUX2_X1
X_2198_ mem\[10\]\[4\] _0658_ _0675_ _0064_ VDD VSS MUX2_X1
X_2199_ mem\[10\]\[5\] _0660_ _0675_ _0065_ VDD VSS MUX2_X1
X_2200_ mem\[10\]\[6\] _0662_ _0675_ _0066_ VDD VSS MUX2_X1
X_2201_ mem\[10\]\[7\] _0664_ _0675_ _0067_ VDD VSS MUX2_X1
X_2202_ mem\[10\]\[8\] _0666_ _0672_ _0068_ VDD VSS MUX2_X1
X_2203_ mem\[10\]\[9\] _0668_ _0672_ _0069_ VDD VSS MUX2_X1
X_2204_ _1999_ _0572_ _0601_ _0676_ VDD VSS NAND3_X4
X_2205_ _0670_ _0676_ _0677_ VDD VSS NOR2_X4
X_2206_ _0677_ _0678_ VDD VSS BUF_X4
X_2207_ mem\[11\]\[0\] _0598_ _0678_ _0070_ VDD VSS MUX2_X1
X_2208_ mem\[11\]\[10\] _0606_ _0678_ _0071_ VDD VSS MUX2_X1
X_2209_ mem\[11\]\[11\] _0608_ _0678_ _0072_ VDD VSS MUX2_X1
X_2210_ mem\[11\]\[12\] _0610_ _0678_ _0073_ VDD VSS MUX2_X1
X_2211_ mem\[11\]\[13\] _0612_ _0678_ _0074_ VDD VSS MUX2_X1
X_2212_ mem\[11\]\[14\] _0614_ _0678_ _0075_ VDD VSS MUX2_X1
X_2213_ mem\[11\]\[15\] _0616_ _0678_ _0076_ VDD VSS MUX2_X1
X_2214_ mem\[11\]\[16\] _0618_ _0678_ _0077_ VDD VSS MUX2_X1
X_2215_ mem\[11\]\[17\] _0620_ _0678_ _0078_ VDD VSS MUX2_X1
X_2216_ mem\[11\]\[18\] _0622_ _0678_ _0079_ VDD VSS MUX2_X1
X_2217_ _0677_ _0679_ VDD VSS BUF_X4
X_2218_ mem\[11\]\[19\] _0624_ _0679_ _0080_ VDD VSS MUX2_X1
X_2219_ mem\[11\]\[1\] _0627_ _0679_ _0081_ VDD VSS MUX2_X1
X_2220_ mem\[11\]\[20\] _0629_ _0679_ _0082_ VDD VSS MUX2_X1
X_2221_ mem\[11\]\[21\] _0631_ _0679_ _0083_ VDD VSS MUX2_X1
X_2222_ mem\[11\]\[22\] _0633_ _0679_ _0084_ VDD VSS MUX2_X1
X_2223_ mem\[11\]\[23\] _0635_ _0679_ _0085_ VDD VSS MUX2_X1
X_2224_ mem\[11\]\[24\] _0637_ _0679_ _0086_ VDD VSS MUX2_X1
X_2225_ mem\[11\]\[25\] _0639_ _0679_ _0087_ VDD VSS MUX2_X1
X_2226_ mem\[11\]\[26\] _0641_ _0679_ _0088_ VDD VSS MUX2_X1
X_2227_ mem\[11\]\[27\] _0643_ _0679_ _0089_ VDD VSS MUX2_X1
X_2228_ _0677_ _0680_ VDD VSS BUF_X4
X_2229_ mem\[11\]\[28\] _0645_ _0680_ _0090_ VDD VSS MUX2_X1
X_2230_ mem\[11\]\[29\] _0648_ _0680_ _0091_ VDD VSS MUX2_X1
X_2231_ mem\[11\]\[2\] _0650_ _0680_ _0092_ VDD VSS MUX2_X1
X_2232_ mem\[11\]\[30\] _0652_ _0680_ _0093_ VDD VSS MUX2_X1
X_2233_ mem\[11\]\[31\] _0654_ _0680_ _0094_ VDD VSS MUX2_X1
X_2234_ mem\[11\]\[3\] _0656_ _0680_ _0095_ VDD VSS MUX2_X1
X_2235_ mem\[11\]\[4\] _0658_ _0680_ _0096_ VDD VSS MUX2_X1
X_2236_ mem\[11\]\[5\] _0660_ _0680_ _0097_ VDD VSS MUX2_X1
X_2237_ mem\[11\]\[6\] _0662_ _0680_ _0098_ VDD VSS MUX2_X1
X_2238_ mem\[11\]\[7\] _0664_ _0680_ _0099_ VDD VSS MUX2_X1
X_2239_ mem\[11\]\[8\] _0666_ _0677_ _0100_ VDD VSS MUX2_X1
X_2240_ mem\[11\]\[9\] _0668_ _0677_ _0101_ VDD VSS MUX2_X1
X_2241_ wr_ptr_bin\[3\] _0599_ _0681_ VDD VSS AND2_X1
X_2242_ _0681_ _0682_ VDD VSS BUF_X4
X_2243_ _0602_ _0682_ _0683_ VDD VSS NAND2_X4
X_2244_ _0683_ _0684_ VDD VSS BUF_X4
X_2245_ _0598_ mem\[12\]\[0\] _0684_ _0102_ VDD VSS MUX2_X1
X_2246_ _0606_ mem\[12\]\[10\] _0684_ _0103_ VDD VSS MUX2_X1
X_2247_ _0608_ mem\[12\]\[11\] _0684_ _0104_ VDD VSS MUX2_X1
X_2248_ _0610_ mem\[12\]\[12\] _0684_ _0105_ VDD VSS MUX2_X1
X_2249_ _0612_ mem\[12\]\[13\] _0684_ _0106_ VDD VSS MUX2_X1
X_2250_ _0614_ mem\[12\]\[14\] _0684_ _0107_ VDD VSS MUX2_X1
X_2251_ _0616_ mem\[12\]\[15\] _0684_ _0108_ VDD VSS MUX2_X1
X_2252_ _0618_ mem\[12\]\[16\] _0684_ _0109_ VDD VSS MUX2_X1
X_2253_ _0620_ mem\[12\]\[17\] _0684_ _0110_ VDD VSS MUX2_X1
X_2254_ _0622_ mem\[12\]\[18\] _0684_ _0111_ VDD VSS MUX2_X1
X_2255_ _0683_ _0685_ VDD VSS BUF_X4
X_2256_ _0624_ mem\[12\]\[19\] _0685_ _0112_ VDD VSS MUX2_X1
X_2257_ _0627_ mem\[12\]\[1\] _0685_ _0113_ VDD VSS MUX2_X1
X_2258_ _0629_ mem\[12\]\[20\] _0685_ _0114_ VDD VSS MUX2_X1
X_2259_ _0631_ mem\[12\]\[21\] _0685_ _0115_ VDD VSS MUX2_X1
X_2260_ _0633_ mem\[12\]\[22\] _0685_ _0116_ VDD VSS MUX2_X1
X_2261_ _0635_ mem\[12\]\[23\] _0685_ _0117_ VDD VSS MUX2_X1
X_2262_ _0637_ mem\[12\]\[24\] _0685_ _0118_ VDD VSS MUX2_X1
X_2263_ _0639_ mem\[12\]\[25\] _0685_ _0119_ VDD VSS MUX2_X1
X_2264_ _0641_ mem\[12\]\[26\] _0685_ _0120_ VDD VSS MUX2_X1
X_2265_ _0643_ mem\[12\]\[27\] _0685_ _0121_ VDD VSS MUX2_X1
X_2266_ _0683_ _0686_ VDD VSS BUF_X4
X_2267_ _0645_ mem\[12\]\[28\] _0686_ _0122_ VDD VSS MUX2_X1
X_2268_ _0648_ mem\[12\]\[29\] _0686_ _0123_ VDD VSS MUX2_X1
X_2269_ _0650_ mem\[12\]\[2\] _0686_ _0124_ VDD VSS MUX2_X1
X_2270_ _0652_ mem\[12\]\[30\] _0686_ _0125_ VDD VSS MUX2_X1
X_2271_ _0654_ mem\[12\]\[31\] _0686_ _0126_ VDD VSS MUX2_X1
X_2272_ _0656_ mem\[12\]\[3\] _0686_ _0127_ VDD VSS MUX2_X1
X_2273_ _0658_ mem\[12\]\[4\] _0686_ _0128_ VDD VSS MUX2_X1
X_2274_ _0660_ mem\[12\]\[5\] _0686_ _0129_ VDD VSS MUX2_X1
X_2275_ _0662_ mem\[12\]\[6\] _0686_ _0130_ VDD VSS MUX2_X1
X_2276_ _0664_ mem\[12\]\[7\] _0686_ _0131_ VDD VSS MUX2_X1
X_2277_ _0666_ mem\[12\]\[8\] _0683_ _0132_ VDD VSS MUX2_X1
X_2278_ _0668_ mem\[12\]\[9\] _0683_ _0133_ VDD VSS MUX2_X1
X_2279_ _1997_ _0572_ _0601_ _0687_ VDD VSS AND3_X2
X_2280_ _0682_ _0687_ _0688_ VDD VSS NAND2_X4
X_2281_ _0688_ _0689_ VDD VSS BUF_X4
X_2282_ _0597_ mem\[13\]\[0\] _0689_ _0134_ VDD VSS MUX2_X1
X_2283_ _0605_ mem\[13\]\[10\] _0689_ _0135_ VDD VSS MUX2_X1
X_2284_ _0607_ mem\[13\]\[11\] _0689_ _0136_ VDD VSS MUX2_X1
X_2285_ _0609_ mem\[13\]\[12\] _0689_ _0137_ VDD VSS MUX2_X1
X_2286_ _0611_ mem\[13\]\[13\] _0689_ _0138_ VDD VSS MUX2_X1
X_2287_ _0613_ mem\[13\]\[14\] _0689_ _0139_ VDD VSS MUX2_X1
X_2288_ _0615_ mem\[13\]\[15\] _0689_ _0140_ VDD VSS MUX2_X1
X_2289_ _0617_ mem\[13\]\[16\] _0689_ _0141_ VDD VSS MUX2_X1
X_2290_ _0619_ mem\[13\]\[17\] _0689_ _0142_ VDD VSS MUX2_X1
X_2291_ _0621_ mem\[13\]\[18\] _0689_ _0143_ VDD VSS MUX2_X1
X_2292_ _0688_ _0690_ VDD VSS BUF_X4
X_2293_ _0623_ mem\[13\]\[19\] _0690_ _0144_ VDD VSS MUX2_X1
X_2294_ _0626_ mem\[13\]\[1\] _0690_ _0145_ VDD VSS MUX2_X1
X_2295_ _0628_ mem\[13\]\[20\] _0690_ _0146_ VDD VSS MUX2_X1
X_2296_ _0630_ mem\[13\]\[21\] _0690_ _0147_ VDD VSS MUX2_X1
X_2297_ _0632_ mem\[13\]\[22\] _0690_ _0148_ VDD VSS MUX2_X1
X_2298_ _0634_ mem\[13\]\[23\] _0690_ _0149_ VDD VSS MUX2_X1
X_2299_ _0636_ mem\[13\]\[24\] _0690_ _0150_ VDD VSS MUX2_X1
X_2300_ _0638_ mem\[13\]\[25\] _0690_ _0151_ VDD VSS MUX2_X1
X_2301_ _0640_ mem\[13\]\[26\] _0690_ _0152_ VDD VSS MUX2_X1
X_2302_ _0642_ mem\[13\]\[27\] _0690_ _0153_ VDD VSS MUX2_X1
X_2303_ _0688_ _0691_ VDD VSS BUF_X4
X_2304_ _0644_ mem\[13\]\[28\] _0691_ _0154_ VDD VSS MUX2_X1
X_2305_ _0647_ mem\[13\]\[29\] _0691_ _0155_ VDD VSS MUX2_X1
X_2306_ _0649_ mem\[13\]\[2\] _0691_ _0156_ VDD VSS MUX2_X1
X_2307_ _0651_ mem\[13\]\[30\] _0691_ _0157_ VDD VSS MUX2_X1
X_2308_ _0653_ mem\[13\]\[31\] _0691_ _0158_ VDD VSS MUX2_X1
X_2309_ _0655_ mem\[13\]\[3\] _0691_ _0159_ VDD VSS MUX2_X1
X_2310_ _0657_ mem\[13\]\[4\] _0691_ _0160_ VDD VSS MUX2_X1
X_2311_ _0659_ mem\[13\]\[5\] _0691_ _0161_ VDD VSS MUX2_X1
X_2312_ _0661_ mem\[13\]\[6\] _0691_ _0162_ VDD VSS MUX2_X1
X_2313_ _0663_ mem\[13\]\[7\] _0691_ _0163_ VDD VSS MUX2_X1
X_2314_ _0665_ mem\[13\]\[8\] _0688_ _0164_ VDD VSS MUX2_X1
X_2315_ _0667_ mem\[13\]\[9\] _0688_ _0165_ VDD VSS MUX2_X1
X_2316_ _1995_ _0572_ _0601_ _0692_ VDD VSS AND3_X2
X_2317_ _0692_ _0682_ _0693_ VDD VSS NAND2_X4
X_2318_ _0693_ _0694_ VDD VSS BUF_X4
X_2319_ _0597_ mem\[14\]\[0\] _0694_ _0166_ VDD VSS MUX2_X1
X_2320_ _0605_ mem\[14\]\[10\] _0694_ _0167_ VDD VSS MUX2_X1
X_2321_ _0607_ mem\[14\]\[11\] _0694_ _0168_ VDD VSS MUX2_X1
X_2322_ _0609_ mem\[14\]\[12\] _0694_ _0169_ VDD VSS MUX2_X1
X_2323_ _0611_ mem\[14\]\[13\] _0694_ _0170_ VDD VSS MUX2_X1
X_2324_ _0613_ mem\[14\]\[14\] _0694_ _0171_ VDD VSS MUX2_X1
X_2325_ _0615_ mem\[14\]\[15\] _0694_ _0172_ VDD VSS MUX2_X1
X_2326_ _0617_ mem\[14\]\[16\] _0694_ _0173_ VDD VSS MUX2_X1
X_2327_ _0619_ mem\[14\]\[17\] _0694_ _0174_ VDD VSS MUX2_X1
X_2328_ _0621_ mem\[14\]\[18\] _0694_ _0175_ VDD VSS MUX2_X1
X_2329_ _0693_ _0695_ VDD VSS BUF_X4
X_2330_ _0623_ mem\[14\]\[19\] _0695_ _0176_ VDD VSS MUX2_X1
X_2331_ _0626_ mem\[14\]\[1\] _0695_ _0177_ VDD VSS MUX2_X1
X_2332_ _0628_ mem\[14\]\[20\] _0695_ _0178_ VDD VSS MUX2_X1
X_2333_ _0630_ mem\[14\]\[21\] _0695_ _0179_ VDD VSS MUX2_X1
X_2334_ _0632_ mem\[14\]\[22\] _0695_ _0180_ VDD VSS MUX2_X1
X_2335_ _0634_ mem\[14\]\[23\] _0695_ _0181_ VDD VSS MUX2_X1
X_2336_ _0636_ mem\[14\]\[24\] _0695_ _0182_ VDD VSS MUX2_X1
X_2337_ _0638_ mem\[14\]\[25\] _0695_ _0183_ VDD VSS MUX2_X1
X_2338_ _0640_ mem\[14\]\[26\] _0695_ _0184_ VDD VSS MUX2_X1
X_2339_ _0642_ mem\[14\]\[27\] _0695_ _0185_ VDD VSS MUX2_X1
X_2340_ _0693_ _0696_ VDD VSS BUF_X4
X_2341_ _0644_ mem\[14\]\[28\] _0696_ _0186_ VDD VSS MUX2_X1
X_2342_ _0647_ mem\[14\]\[29\] _0696_ _0187_ VDD VSS MUX2_X1
X_2343_ _0649_ mem\[14\]\[2\] _0696_ _0188_ VDD VSS MUX2_X1
X_2344_ _0651_ mem\[14\]\[30\] _0696_ _0189_ VDD VSS MUX2_X1
X_2345_ _0653_ mem\[14\]\[31\] _0696_ _0190_ VDD VSS MUX2_X1
X_2346_ _0655_ mem\[14\]\[3\] _0696_ _0191_ VDD VSS MUX2_X1
X_2347_ _0657_ mem\[14\]\[4\] _0696_ _0192_ VDD VSS MUX2_X1
X_2348_ _0659_ mem\[14\]\[5\] _0696_ _0193_ VDD VSS MUX2_X1
X_2349_ _0661_ mem\[14\]\[6\] _0696_ _0194_ VDD VSS MUX2_X1
X_2350_ _0663_ mem\[14\]\[7\] _0696_ _0195_ VDD VSS MUX2_X1
X_2351_ _0665_ mem\[14\]\[8\] _0693_ _0196_ VDD VSS MUX2_X1
X_2352_ _0667_ mem\[14\]\[9\] _0693_ _0197_ VDD VSS MUX2_X1
X_2353_ _1999_ _0572_ _0601_ _0697_ VDD VSS AND3_X2
X_2354_ _0697_ _0682_ _0698_ VDD VSS NAND2_X4
X_2355_ _0698_ _0699_ VDD VSS BUF_X4
X_2356_ _0597_ mem\[15\]\[0\] _0699_ _0198_ VDD VSS MUX2_X1
X_2357_ _0605_ mem\[15\]\[10\] _0699_ _0199_ VDD VSS MUX2_X1
X_2358_ _0607_ mem\[15\]\[11\] _0699_ _0200_ VDD VSS MUX2_X1
X_2359_ _0609_ mem\[15\]\[12\] _0699_ _0201_ VDD VSS MUX2_X1
X_2360_ _0611_ mem\[15\]\[13\] _0699_ _0202_ VDD VSS MUX2_X1
X_2361_ _0613_ mem\[15\]\[14\] _0699_ _0203_ VDD VSS MUX2_X1
X_2362_ _0615_ mem\[15\]\[15\] _0699_ _0204_ VDD VSS MUX2_X1
X_2363_ _0617_ mem\[15\]\[16\] _0699_ _0205_ VDD VSS MUX2_X1
X_2364_ _0619_ mem\[15\]\[17\] _0699_ _0206_ VDD VSS MUX2_X1
X_2365_ _0621_ mem\[15\]\[18\] _0699_ _0207_ VDD VSS MUX2_X1
X_2366_ _0698_ _0700_ VDD VSS BUF_X4
X_2367_ _0623_ mem\[15\]\[19\] _0700_ _0208_ VDD VSS MUX2_X1
X_2368_ _0626_ mem\[15\]\[1\] _0700_ _0209_ VDD VSS MUX2_X1
X_2369_ _0628_ mem\[15\]\[20\] _0700_ _0210_ VDD VSS MUX2_X1
X_2370_ _0630_ mem\[15\]\[21\] _0700_ _0211_ VDD VSS MUX2_X1
X_2371_ _0632_ mem\[15\]\[22\] _0700_ _0212_ VDD VSS MUX2_X1
X_2372_ _0634_ mem\[15\]\[23\] _0700_ _0213_ VDD VSS MUX2_X1
X_2373_ _0636_ mem\[15\]\[24\] _0700_ _0214_ VDD VSS MUX2_X1
X_2374_ _0638_ mem\[15\]\[25\] _0700_ _0215_ VDD VSS MUX2_X1
X_2375_ _0640_ mem\[15\]\[26\] _0700_ _0216_ VDD VSS MUX2_X1
X_2376_ _0642_ mem\[15\]\[27\] _0700_ _0217_ VDD VSS MUX2_X1
X_2377_ _0698_ _0701_ VDD VSS BUF_X4
X_2378_ _0644_ mem\[15\]\[28\] _0701_ _0218_ VDD VSS MUX2_X1
X_2379_ _0647_ mem\[15\]\[29\] _0701_ _0219_ VDD VSS MUX2_X1
X_2380_ _0649_ mem\[15\]\[2\] _0701_ _0220_ VDD VSS MUX2_X1
X_2381_ _0651_ mem\[15\]\[30\] _0701_ _0221_ VDD VSS MUX2_X1
X_2382_ _0653_ mem\[15\]\[31\] _0701_ _0222_ VDD VSS MUX2_X1
X_2383_ _0655_ mem\[15\]\[3\] _0701_ _0223_ VDD VSS MUX2_X1
X_2384_ _0657_ mem\[15\]\[4\] _0701_ _0224_ VDD VSS MUX2_X1
X_2385_ _0659_ mem\[15\]\[5\] _0701_ _0225_ VDD VSS MUX2_X1
X_2386_ _0661_ mem\[15\]\[6\] _0701_ _0226_ VDD VSS MUX2_X1
X_2387_ _0663_ mem\[15\]\[7\] _0701_ _0227_ VDD VSS MUX2_X1
X_2388_ _0665_ mem\[15\]\[8\] _0698_ _0228_ VDD VSS MUX2_X1
X_2389_ _0667_ mem\[15\]\[9\] _0698_ _0229_ VDD VSS MUX2_X1
X_2390_ _0600_ _0687_ _0702_ VDD VSS NAND2_X4
X_2391_ _0702_ _0703_ VDD VSS BUF_X4
X_2392_ _0597_ mem\[1\]\[0\] _0703_ _0230_ VDD VSS MUX2_X1
X_2393_ _0605_ mem\[1\]\[10\] _0703_ _0231_ VDD VSS MUX2_X1
X_2394_ _0607_ mem\[1\]\[11\] _0703_ _0232_ VDD VSS MUX2_X1
X_2395_ _0609_ mem\[1\]\[12\] _0703_ _0233_ VDD VSS MUX2_X1
X_2396_ _0611_ mem\[1\]\[13\] _0703_ _0234_ VDD VSS MUX2_X1
X_2397_ _0613_ mem\[1\]\[14\] _0703_ _0235_ VDD VSS MUX2_X1
X_2398_ _0615_ mem\[1\]\[15\] _0703_ _0236_ VDD VSS MUX2_X1
X_2399_ _0617_ mem\[1\]\[16\] _0703_ _0237_ VDD VSS MUX2_X1
X_2400_ _0619_ mem\[1\]\[17\] _0703_ _0238_ VDD VSS MUX2_X1
X_2401_ _0621_ mem\[1\]\[18\] _0703_ _0239_ VDD VSS MUX2_X1
X_2402_ _0702_ _0704_ VDD VSS BUF_X4
X_2403_ _0623_ mem\[1\]\[19\] _0704_ _0240_ VDD VSS MUX2_X1
X_2404_ _0626_ mem\[1\]\[1\] _0704_ _0241_ VDD VSS MUX2_X1
X_2405_ _0628_ mem\[1\]\[20\] _0704_ _0242_ VDD VSS MUX2_X1
X_2406_ _0630_ mem\[1\]\[21\] _0704_ _0243_ VDD VSS MUX2_X1
X_2407_ _0632_ mem\[1\]\[22\] _0704_ _0244_ VDD VSS MUX2_X1
X_2408_ _0634_ mem\[1\]\[23\] _0704_ _0245_ VDD VSS MUX2_X1
X_2409_ _0636_ mem\[1\]\[24\] _0704_ _0246_ VDD VSS MUX2_X1
X_2410_ _0638_ mem\[1\]\[25\] _0704_ _0247_ VDD VSS MUX2_X1
X_2411_ _0640_ mem\[1\]\[26\] _0704_ _0248_ VDD VSS MUX2_X1
X_2412_ _0642_ mem\[1\]\[27\] _0704_ _0249_ VDD VSS MUX2_X1
X_2413_ _0702_ _0705_ VDD VSS BUF_X4
X_2414_ _0644_ mem\[1\]\[28\] _0705_ _0250_ VDD VSS MUX2_X1
X_2415_ _0647_ mem\[1\]\[29\] _0705_ _0251_ VDD VSS MUX2_X1
X_2416_ _0649_ mem\[1\]\[2\] _0705_ _0252_ VDD VSS MUX2_X1
X_2417_ _0651_ mem\[1\]\[30\] _0705_ _0253_ VDD VSS MUX2_X1
X_2418_ _0653_ mem\[1\]\[31\] _0705_ _0254_ VDD VSS MUX2_X1
X_2419_ _0655_ mem\[1\]\[3\] _0705_ _0255_ VDD VSS MUX2_X1
X_2420_ _0657_ mem\[1\]\[4\] _0705_ _0256_ VDD VSS MUX2_X1
X_2421_ _0659_ mem\[1\]\[5\] _0705_ _0257_ VDD VSS MUX2_X1
X_2422_ _0661_ mem\[1\]\[6\] _0705_ _0258_ VDD VSS MUX2_X1
X_2423_ _0663_ mem\[1\]\[7\] _0705_ _0259_ VDD VSS MUX2_X1
X_2424_ _0665_ mem\[1\]\[8\] _0702_ _0260_ VDD VSS MUX2_X1
X_2425_ _0667_ mem\[1\]\[9\] _0702_ _0261_ VDD VSS MUX2_X1
X_2426_ _0600_ _0692_ _0706_ VDD VSS NAND2_X4
X_2427_ _0706_ _0707_ VDD VSS BUF_X4
X_2428_ _0597_ mem\[2\]\[0\] _0707_ _0262_ VDD VSS MUX2_X1
X_2429_ _0605_ mem\[2\]\[10\] _0707_ _0263_ VDD VSS MUX2_X1
X_2430_ _0607_ mem\[2\]\[11\] _0707_ _0264_ VDD VSS MUX2_X1
X_2431_ _0609_ mem\[2\]\[12\] _0707_ _0265_ VDD VSS MUX2_X1
X_2432_ _0611_ mem\[2\]\[13\] _0707_ _0266_ VDD VSS MUX2_X1
X_2433_ _0613_ mem\[2\]\[14\] _0707_ _0267_ VDD VSS MUX2_X1
X_2434_ _0615_ mem\[2\]\[15\] _0707_ _0268_ VDD VSS MUX2_X1
X_2435_ _0617_ mem\[2\]\[16\] _0707_ _0269_ VDD VSS MUX2_X1
X_2436_ _0619_ mem\[2\]\[17\] _0707_ _0270_ VDD VSS MUX2_X1
X_2437_ _0621_ mem\[2\]\[18\] _0707_ _0271_ VDD VSS MUX2_X1
X_2438_ _0706_ _0708_ VDD VSS BUF_X4
X_2439_ _0623_ mem\[2\]\[19\] _0708_ _0272_ VDD VSS MUX2_X1
X_2440_ _0626_ mem\[2\]\[1\] _0708_ _0273_ VDD VSS MUX2_X1
X_2441_ _0628_ mem\[2\]\[20\] _0708_ _0274_ VDD VSS MUX2_X1
X_2442_ _0630_ mem\[2\]\[21\] _0708_ _0275_ VDD VSS MUX2_X1
X_2443_ _0632_ mem\[2\]\[22\] _0708_ _0276_ VDD VSS MUX2_X1
X_2444_ _0634_ mem\[2\]\[23\] _0708_ _0277_ VDD VSS MUX2_X1
X_2445_ _0636_ mem\[2\]\[24\] _0708_ _0278_ VDD VSS MUX2_X1
X_2446_ _0638_ mem\[2\]\[25\] _0708_ _0279_ VDD VSS MUX2_X1
X_2447_ _0640_ mem\[2\]\[26\] _0708_ _0280_ VDD VSS MUX2_X1
X_2448_ _0642_ mem\[2\]\[27\] _0708_ _0281_ VDD VSS MUX2_X1
X_2449_ _0706_ _0709_ VDD VSS BUF_X4
X_2450_ _0644_ mem\[2\]\[28\] _0709_ _0282_ VDD VSS MUX2_X1
X_2451_ _0647_ mem\[2\]\[29\] _0709_ _0283_ VDD VSS MUX2_X1
X_2452_ _0649_ mem\[2\]\[2\] _0709_ _0284_ VDD VSS MUX2_X1
X_2453_ _0651_ mem\[2\]\[30\] _0709_ _0285_ VDD VSS MUX2_X1
X_2454_ _0653_ mem\[2\]\[31\] _0709_ _0286_ VDD VSS MUX2_X1
X_2455_ _0655_ mem\[2\]\[3\] _0709_ _0287_ VDD VSS MUX2_X1
X_2456_ _0657_ mem\[2\]\[4\] _0709_ _0288_ VDD VSS MUX2_X1
X_2457_ _0659_ mem\[2\]\[5\] _0709_ _0289_ VDD VSS MUX2_X1
X_2458_ _0661_ mem\[2\]\[6\] _0709_ _0290_ VDD VSS MUX2_X1
X_2459_ _0663_ mem\[2\]\[7\] _0709_ _0291_ VDD VSS MUX2_X1
X_2460_ _0665_ mem\[2\]\[8\] _0706_ _0292_ VDD VSS MUX2_X1
X_2461_ _0667_ mem\[2\]\[9\] _0706_ _0293_ VDD VSS MUX2_X1
X_2462_ _0600_ _0697_ _0710_ VDD VSS NAND2_X4
X_2463_ _0710_ _0711_ VDD VSS BUF_X4
X_2464_ _0597_ mem\[3\]\[0\] _0711_ _0294_ VDD VSS MUX2_X1
X_2465_ _0605_ mem\[3\]\[10\] _0711_ _0295_ VDD VSS MUX2_X1
X_2466_ _0607_ mem\[3\]\[11\] _0711_ _0296_ VDD VSS MUX2_X1
X_2467_ _0609_ mem\[3\]\[12\] _0711_ _0297_ VDD VSS MUX2_X1
X_2468_ _0611_ mem\[3\]\[13\] _0711_ _0298_ VDD VSS MUX2_X1
X_2469_ _0613_ mem\[3\]\[14\] _0711_ _0299_ VDD VSS MUX2_X1
X_2470_ _0615_ mem\[3\]\[15\] _0711_ _0300_ VDD VSS MUX2_X1
X_2471_ _0617_ mem\[3\]\[16\] _0711_ _0301_ VDD VSS MUX2_X1
X_2472_ _0619_ mem\[3\]\[17\] _0711_ _0302_ VDD VSS MUX2_X1
X_2473_ _0621_ mem\[3\]\[18\] _0711_ _0303_ VDD VSS MUX2_X1
X_2474_ _0710_ _0712_ VDD VSS BUF_X4
X_2475_ _0623_ mem\[3\]\[19\] _0712_ _0304_ VDD VSS MUX2_X1
X_2476_ _0626_ mem\[3\]\[1\] _0712_ _0305_ VDD VSS MUX2_X1
X_2477_ _0628_ mem\[3\]\[20\] _0712_ _0306_ VDD VSS MUX2_X1
X_2478_ _0630_ mem\[3\]\[21\] _0712_ _0307_ VDD VSS MUX2_X1
X_2479_ _0632_ mem\[3\]\[22\] _0712_ _0308_ VDD VSS MUX2_X1
X_2480_ _0634_ mem\[3\]\[23\] _0712_ _0309_ VDD VSS MUX2_X1
X_2481_ _0636_ mem\[3\]\[24\] _0712_ _0310_ VDD VSS MUX2_X1
X_2482_ _0638_ mem\[3\]\[25\] _0712_ _0311_ VDD VSS MUX2_X1
X_2483_ _0640_ mem\[3\]\[26\] _0712_ _0312_ VDD VSS MUX2_X1
X_2484_ _0642_ mem\[3\]\[27\] _0712_ _0313_ VDD VSS MUX2_X1
X_2485_ _0710_ _0713_ VDD VSS BUF_X4
X_2486_ _0644_ mem\[3\]\[28\] _0713_ _0314_ VDD VSS MUX2_X1
X_2487_ _0647_ mem\[3\]\[29\] _0713_ _0315_ VDD VSS MUX2_X1
X_2488_ _0649_ mem\[3\]\[2\] _0713_ _0316_ VDD VSS MUX2_X1
X_2489_ _0651_ mem\[3\]\[30\] _0713_ _0317_ VDD VSS MUX2_X1
X_2490_ _0653_ mem\[3\]\[31\] _0713_ _0318_ VDD VSS MUX2_X1
X_2491_ _0655_ mem\[3\]\[3\] _0713_ _0319_ VDD VSS MUX2_X1
X_2492_ _0657_ mem\[3\]\[4\] _0713_ _0320_ VDD VSS MUX2_X1
X_2493_ _0659_ mem\[3\]\[5\] _0713_ _0321_ VDD VSS MUX2_X1
X_2494_ _0661_ mem\[3\]\[6\] _0713_ _0322_ VDD VSS MUX2_X1
X_2495_ _0663_ mem\[3\]\[7\] _0713_ _0323_ VDD VSS MUX2_X1
X_2496_ _0665_ mem\[3\]\[8\] _0710_ _0324_ VDD VSS MUX2_X1
X_2497_ _0667_ mem\[3\]\[9\] _0710_ _0325_ VDD VSS MUX2_X1
X_2498_ _1994_ _0572_ _0601_ _0714_ VDD VSS NAND3_X4
X_2499_ wr_ptr_bin\[3\] _0669_ _0715_ VDD VSS OR2_X1
X_2500_ _0715_ _0716_ VDD VSS BUF_X4
X_2501_ _0714_ _0716_ _0717_ VDD VSS NOR2_X4
X_2502_ _0717_ _0718_ VDD VSS BUF_X4
X_2503_ mem\[4\]\[0\] _0598_ _0718_ _0326_ VDD VSS MUX2_X1
X_2504_ mem\[4\]\[10\] _0606_ _0718_ _0327_ VDD VSS MUX2_X1
X_2505_ mem\[4\]\[11\] _0608_ _0718_ _0328_ VDD VSS MUX2_X1
X_2506_ mem\[4\]\[12\] _0610_ _0718_ _0329_ VDD VSS MUX2_X1
X_2507_ mem\[4\]\[13\] _0612_ _0718_ _0330_ VDD VSS MUX2_X1
X_2508_ mem\[4\]\[14\] _0614_ _0718_ _0331_ VDD VSS MUX2_X1
X_2509_ mem\[4\]\[15\] _0616_ _0718_ _0332_ VDD VSS MUX2_X1
X_2510_ mem\[4\]\[16\] _0618_ _0718_ _0333_ VDD VSS MUX2_X1
X_2511_ mem\[4\]\[17\] _0620_ _0718_ _0334_ VDD VSS MUX2_X1
X_2512_ mem\[4\]\[18\] _0622_ _0718_ _0335_ VDD VSS MUX2_X1
X_2513_ _0717_ _0719_ VDD VSS BUF_X4
X_2514_ mem\[4\]\[19\] _0624_ _0719_ _0336_ VDD VSS MUX2_X1
X_2515_ mem\[4\]\[1\] _0627_ _0719_ _0337_ VDD VSS MUX2_X1
X_2516_ mem\[4\]\[20\] _0629_ _0719_ _0338_ VDD VSS MUX2_X1
X_2517_ mem\[4\]\[21\] _0631_ _0719_ _0339_ VDD VSS MUX2_X1
X_2518_ mem\[4\]\[22\] _0633_ _0719_ _0340_ VDD VSS MUX2_X1
X_2519_ mem\[4\]\[23\] _0635_ _0719_ _0341_ VDD VSS MUX2_X1
X_2520_ mem\[4\]\[24\] _0637_ _0719_ _0342_ VDD VSS MUX2_X1
X_2521_ mem\[4\]\[25\] _0639_ _0719_ _0343_ VDD VSS MUX2_X1
X_2522_ mem\[4\]\[26\] _0641_ _0719_ _0344_ VDD VSS MUX2_X1
X_2523_ mem\[4\]\[27\] _0643_ _0719_ _0345_ VDD VSS MUX2_X1
X_2524_ _0717_ _0720_ VDD VSS BUF_X4
X_2525_ mem\[4\]\[28\] _0645_ _0720_ _0346_ VDD VSS MUX2_X1
X_2526_ mem\[4\]\[29\] _0648_ _0720_ _0347_ VDD VSS MUX2_X1
X_2527_ mem\[4\]\[2\] _0650_ _0720_ _0348_ VDD VSS MUX2_X1
X_2528_ mem\[4\]\[30\] _0652_ _0720_ _0349_ VDD VSS MUX2_X1
X_2529_ mem\[4\]\[31\] _0654_ _0720_ _0350_ VDD VSS MUX2_X1
X_2530_ mem\[4\]\[3\] _0656_ _0720_ _0351_ VDD VSS MUX2_X1
X_2531_ mem\[4\]\[4\] _0658_ _0720_ _0352_ VDD VSS MUX2_X1
X_2532_ mem\[4\]\[5\] _0660_ _0720_ _0353_ VDD VSS MUX2_X1
X_2533_ mem\[4\]\[6\] _0662_ _0720_ _0354_ VDD VSS MUX2_X1
X_2534_ mem\[4\]\[7\] _0664_ _0720_ _0355_ VDD VSS MUX2_X1
X_2535_ mem\[4\]\[8\] _0666_ _0717_ _0356_ VDD VSS MUX2_X1
X_2536_ mem\[4\]\[9\] _0668_ _0717_ _0357_ VDD VSS MUX2_X1
X_2537_ _1997_ _0572_ _0601_ _0721_ VDD VSS NAND3_X4
X_2538_ _0721_ _0716_ _0722_ VDD VSS NOR2_X4
X_2539_ _0722_ _0723_ VDD VSS BUF_X4