
* cell configurable_lfsr
* pin parallel_out[5]
* pin parallel_out[6]
* pin tap_pattern[5]
* pin tap_pattern[3]
* pin tap_pattern[4]
* pin seed[6]
* pin tap_pattern[6]
* pin seed[5]
* pin seed[4]
* pin parallel_out[7]
* pin seed[7]
* pin tap_pattern[7]
* pin parallel_out[4]
* pin enable
* pin seed[3]
* pin tap_pattern[2]
* pin parallel_out[3]
* pin tap_pattern[1]
* pin seed[2]
* pin parallel_out[1]
* pin tap_pattern[0]
* pin serial_out
* pin load_seed
* pin clk
* pin rst_n
* pin parallel_out[0]
* pin seed[1]
* pin seed[0]
* pin parallel_out[2]
* pin NWELL
* pin PWELL,gf180mcu_gnd
.SUBCKT configurable_lfsr 1 2 3 4 5 6 7 25 36 40 41 48 52 54 55 57 64 67 70 75
+ 76 77 79 81 82 84 90 91 92 93 94
* net 1 parallel_out[5]
* net 2 parallel_out[6]
* net 3 tap_pattern[5]
* net 4 tap_pattern[3]
* net 5 tap_pattern[4]
* net 6 seed[6]
* net 7 tap_pattern[6]
* net 25 seed[5]
* net 36 seed[4]
* net 40 parallel_out[7]
* net 41 seed[7]
* net 48 tap_pattern[7]
* net 52 parallel_out[4]
* net 54 enable
* net 55 seed[3]
* net 57 tap_pattern[2]
* net 64 parallel_out[3]
* net 67 tap_pattern[1]
* net 70 seed[2]
* net 75 parallel_out[1]
* net 76 tap_pattern[0]
* net 77 serial_out
* net 79 load_seed
* net 81 clk
* net 82 rst_n
* net 84 parallel_out[0]
* net 90 seed[1]
* net 91 seed[0]
* net 92 parallel_out[2]
* net 93 NWELL
* net 94 PWELL,gf180mcu_gnd
* cell instance $3 r0 *1 34.72,5.04
X$3 9 93 94 1 gf180mcu_fd_sc_mcu9t5v0__dlyb_2
* cell instance $7 m0 *1 41.44,15.12
X$7 10 93 94 2 gf180mcu_fd_sc_mcu9t5v0__dlyb_2
* cell instance $12 r0 *1 43.12,5.04
X$12 3 93 94 8 gf180mcu_fd_sc_mcu9t5v0__dlyb_2
* cell instance $16 m0 *1 49.84,15.12
X$16 4 93 94 11 gf180mcu_fd_sc_mcu9t5v0__dlyb_2
* cell instance $20 r0 *1 51.52,5.04
X$20 5 93 94 20 gf180mcu_fd_sc_mcu9t5v0__dlyb_2
* cell instance $23 r0 *1 53.2,15.12
X$23 6 93 94 19 gf180mcu_fd_sc_mcu9t5v0__dlyb_2
* cell instance $28 r0 *1 59.92,5.04
X$28 7 93 94 12 gf180mcu_fd_sc_mcu9t5v0__dlyb_2
* cell instance $30 m0 *1 36.4,15.12
X$30 93 9 8 94 13 gf180mcu_fd_sc_mcu9t5v0__and2_2
* cell instance $37 r0 *1 32.48,35.28
X$37 94 93 24 10 31 9 gf180mcu_fd_sc_mcu9t5v0__mux2_2
* cell instance $39 r0 *1 30.8,45.36
X$39 94 93 42 9 31 18 gf180mcu_fd_sc_mcu9t5v0__mux2_2
* cell instance $41 m0 *1 19.6,45.36
X$41 94 34 9 43 27 93 gf180mcu_fd_sc_mcu9t5v0__dffrnq_2
* cell instance $43 r0 *1 61.6,15.12
X$43 93 10 12 94 16 gf180mcu_fd_sc_mcu9t5v0__and2_2
* cell instance $49 r0 *1 57.68,45.36
X$49 94 93 37 45 31 10 gf180mcu_fd_sc_mcu9t5v0__mux2_2
* cell instance $51 m0 *1 45.36,45.36
X$51 94 34 10 38 28 93 gf180mcu_fd_sc_mcu9t5v0__dffrnq_2
* cell instance $55 r0 *1 38.64,15.12
X$55 93 44 11 94 17 gf180mcu_fd_sc_mcu9t5v0__and2_2
* cell instance $62 r0 *1 43.68,15.12
X$62 93 13 17 94 14 gf180mcu_fd_sc_mcu9t5v0__xnor2_2
* cell instance $67 m0 *1 52.08,25.2
X$67 94 16 14 15 21 93 gf180mcu_fd_sc_mcu9t5v0__xnor3_2
* cell instance $70 r0 *1 65.52,35.28
X$70 93 15 32 94 29 gf180mcu_fd_sc_mcu9t5v0__xnor2_2
* cell instance $86 r0 *1 12.32,55.44
X$86 94 93 47 18 31 44 gf180mcu_fd_sc_mcu9t5v0__mux2_2
* cell instance $89 r0 *1 10.64,45.36
X$89 94 34 18 43 26 93 gf180mcu_fd_sc_mcu9t5v0__dffrnq_2
* cell instance $92 r0 *1 2.24,55.44
X$92 18 93 94 52 gf180mcu_fd_sc_mcu9t5v0__dlyb_2
* cell instance $95 r0 *1 52.64,25.2
X$95 93 18 20 94 21 gf180mcu_fd_sc_mcu9t5v0__and2_2
* cell instance $97 r0 *1 52.08,35.28
X$97 94 93 28 19 23 37 gf180mcu_fd_sc_mcu9t5v0__mux2_2
* cell instance $106 r0 *1 10.64,35.28
X$106 25 93 94 22 gf180mcu_fd_sc_mcu9t5v0__dlyb_2
* cell instance $108 r0 *1 20.72,35.28
X$108 94 93 27 22 23 24 gf180mcu_fd_sc_mcu9t5v0__mux2_2
* cell instance $112 m0 *1 9.52,45.36
X$112 94 93 26 33 23 42 gf180mcu_fd_sc_mcu9t5v0__mux2_2
* cell instance $115 m0 *1 67.76,55.44
X$115 94 45 93 51 35 46 23 gf180mcu_fd_sc_mcu9t5v0__aoi22_2
* cell instance $117 m0 *1 16.24,85.68
X$117 94 93 79 23 gf180mcu_fd_sc_mcu9t5v0__buf_4
* cell instance $128 m0 *1 67.2,45.36
X$128 93 35 94 39 30 23 29 gf180mcu_fd_sc_mcu9t5v0__oai31_2
* cell instance $132 m0 *1 70,85.68
X$132 94 93 61 87 23 80 gf180mcu_fd_sc_mcu9t5v0__mux2_2
* cell instance $134 m0 *1 62.16,55.44
X$134 94 93 51 23 31 gf180mcu_fd_sc_mcu9t5v0__nor2_2
* cell instance $137 m0 *1 61.6,85.68
X$137 94 93 72 89 23 86 gf180mcu_fd_sc_mcu9t5v0__mux2_2
* cell instance $139 m0 *1 10.64,75.6
X$139 94 93 65 68 23 69 gf180mcu_fd_sc_mcu9t5v0__mux2_2
* cell instance $142 r0 *1 7.28,65.52
X$142 94 93 56 60 23 47 gf180mcu_fd_sc_mcu9t5v0__mux2_2
* cell instance $161 r0 *1 75.04,35.28
X$161 94 93 31 30 gf180mcu_fd_sc_mcu9t5v0__clkinv_2
* cell instance $164 r0 *1 15.68,65.52
X$164 94 93 54 31 gf180mcu_fd_sc_mcu9t5v0__buf_4
* cell instance $178 r0 *1 79.52,75.6
X$178 94 93 80 66 31 73 gf180mcu_fd_sc_mcu9t5v0__mux2_2
* cell instance $180 m0 *1 78.4,85.68
X$180 94 93 86 71 31 66 gf180mcu_fd_sc_mcu9t5v0__mux2_2
* cell instance $183 m0 *1 20.16,75.6
X$183 94 93 69 44 31 71 gf180mcu_fd_sc_mcu9t5v0__mux2_2
* cell instance $189 m0 *1 101.36,65.52
X$189 94 53 59 32 58 93 gf180mcu_fd_sc_mcu9t5v0__xnor3_2
* cell instance $192 r0 *1 2.24,45.36
X$192 36 93 94 33 gf180mcu_fd_sc_mcu9t5v0__dlyb_2
* cell instance $201 r0 *1 66.08,45.36
X$201 94 34 45 38 39 93 gf180mcu_fd_sc_mcu9t5v0__dffrnq_2
* cell instance $206 m0 *1 65.52,75.6
X$206 94 34 73 38 61 93 gf180mcu_fd_sc_mcu9t5v0__dffrnq_2
* cell instance $209 r0 *1 60.48,75.6
X$209 94 34 66 38 72 93 gf180mcu_fd_sc_mcu9t5v0__dffrnq_2
* cell instance $211 r0 *1 11.2,75.6
X$211 94 34 71 43 65 93 gf180mcu_fd_sc_mcu9t5v0__dffrnq_2
* cell instance $213 m0 *1 7.28,65.52
X$213 94 34 44 43 56 93 gf180mcu_fd_sc_mcu9t5v0__dffrnq_2
* cell instance $215 m0 *1 10.64,85.68
X$215 88 93 94 34 gf180mcu_fd_sc_mcu9t5v0__buf_3
* cell instance $232 m0 *1 63.28,65.52
X$232 94 93 50 38 gf180mcu_fd_sc_mcu9t5v0__clkbuf_3
* cell instance $237 r0 *1 110.32,45.36
X$237 45 93 94 40 gf180mcu_fd_sc_mcu9t5v0__dlyb_2
* cell instance $240 r0 *1 92.4,45.36
X$240 41 93 94 46 gf180mcu_fd_sc_mcu9t5v0__dlyb_2
* cell instance $252 m0 *1 15.12,55.44
X$252 94 93 50 43 gf180mcu_fd_sc_mcu9t5v0__clkbuf_3
* cell instance $266 r0 *1 2.24,75.6
X$266 44 93 94 64 gf180mcu_fd_sc_mcu9t5v0__dlyb_2
* cell instance $269 r0 *1 105.28,55.44
X$269 93 45 49 94 53 gf180mcu_fd_sc_mcu9t5v0__and2_2
* cell instance $285 r0 *1 110.32,55.44
X$285 48 93 94 49 gf180mcu_fd_sc_mcu9t5v0__dlyb_2
* cell instance $297 m0 *1 38.08,65.52
X$297 94 93 81 50 gf180mcu_fd_sc_mcu9t5v0__clkbuf_3
* cell instance $311 m0 *1 2.24,75.6
X$311 55 93 94 60 gf180mcu_fd_sc_mcu9t5v0__dlyb_2
* cell instance $315 r0 *1 110.32,65.52
X$315 57 93 94 63 gf180mcu_fd_sc_mcu9t5v0__dlyb_2
* cell instance $321 r0 *1 105.28,65.52
X$321 93 71 63 94 58 gf180mcu_fd_sc_mcu9t5v0__and2_2
* cell instance $326 m0 *1 104.16,75.6
X$326 93 74 62 94 59 gf180mcu_fd_sc_mcu9t5v0__xnor2_2
* cell instance $333 m0 *1 105.28,85.68
X$333 93 85 73 94 62 gf180mcu_fd_sc_mcu9t5v0__and2_2
* cell instance $343 r0 *1 103.6,75.6
X$343 93 66 78 94 74 gf180mcu_fd_sc_mcu9t5v0__and2_2
* cell instance $353 m0 *1 95.76,75.6
X$353 66 93 94 75 gf180mcu_fd_sc_mcu9t5v0__dlyb_2
* cell instance $356 r0 *1 110.32,75.6
X$356 67 93 94 78 gf180mcu_fd_sc_mcu9t5v0__dlyb_2
* cell instance $361 m0 *1 2.24,85.68
X$361 70 93 94 68 gf180mcu_fd_sc_mcu9t5v0__dlyb_2
* cell instance $375 m0 *1 80.08,115.92
X$375 71 93 94 92 gf180mcu_fd_sc_mcu9t5v0__dlyb_2
* cell instance $391 m0 *1 95.76,85.68
X$391 73 93 94 83 gf180mcu_fd_sc_mcu9t5v0__dlyb_2
* cell instance $393 r0 *1 110.32,85.68
X$393 73 93 94 77 gf180mcu_fd_sc_mcu9t5v0__dlyb_2
* cell instance $400 m0 *1 110.32,85.68
X$400 76 93 94 85 gf180mcu_fd_sc_mcu9t5v0__dlyb_2
* cell instance $415 r0 *1 5.6,85.68
X$415 94 88 82 93 gf180mcu_fd_sc_mcu9t5v0__dlyc_2
* cell instance $417 r0 *1 101.92,85.68
X$417 83 93 94 84 gf180mcu_fd_sc_mcu9t5v0__dlyb_2
* cell instance $431 m0 *1 71.68,115.92
X$431 91 93 94 87 gf180mcu_fd_sc_mcu9t5v0__dlyb_2
* cell instance $438 r0 *1 58.8,105.84
X$438 90 93 94 89 gf180mcu_fd_sc_mcu9t5v0__dlyb_2
.ENDS configurable_lfsr

* cell gf180mcu_fd_sc_mcu9t5v0__oai31_2
* pin NWELL,VDD
* pin B
* pin PWELL,VSS,gf180mcu_gnd
* pin ZN
* pin A2
* pin A1
* pin A3
.SUBCKT gf180mcu_fd_sc_mcu9t5v0__oai31_2 1 2 3 4 5 6 7
* net 1 NWELL,VDD
* net 2 B
* net 3 PWELL,VSS,gf180mcu_gnd
* net 4 ZN
* net 5 A2
* net 6 A1
* net 7 A3
* device instance $1 r0 *1 0.92,3.872 pmos_5p0
M$1 4 2 1 1 pmos_5p0 L=0.5U W=3.29U AS=1.353P AD=0.93765P PS=6.72U PD=4.43U
* device instance $3 r0 *1 3.21,3.78 pmos_5p0
M$3 12 7 1 1 pmos_5p0 L=0.5U W=1.83U AS=0.6292P AD=0.52155P PS=2.55U PD=2.4U
* device instance $4 r0 *1 4.28,3.78 pmos_5p0
M$4 11 5 12 1 pmos_5p0 L=0.5U W=1.83U AS=0.52155P AD=0.5673P PS=2.4U PD=2.45U
* device instance $5 r0 *1 5.4,3.78 pmos_5p0
M$5 4 6 11 1 pmos_5p0 L=0.5U W=1.83U AS=0.5673P AD=0.5673P PS=2.45U PD=2.45U
* device instance $6 r0 *1 6.52,3.78 pmos_5p0
M$6 10 6 4 1 pmos_5p0 L=0.5U W=1.83U AS=0.5673P AD=0.5673P PS=2.45U PD=2.45U
* device instance $7 r0 *1 7.64,3.78 pmos_5p0
M$7 9 5 10 1 pmos_5p0 L=0.5U W=1.83U AS=0.5673P AD=0.52155P PS=2.45U PD=2.4U
* device instance $8 r0 *1 8.71,3.78 pmos_5p0
M$8 1 7 9 1 pmos_5p0 L=0.5U W=1.83U AS=0.52155P AD=0.8052P PS=2.4U PD=4.54U
* device instance $9 r0 *1 0.92,1.005 nmos_5p0
M$9 3 2 8 3 nmos_5p0 L=0.6U W=2.64U AS=0.924P AD=0.6864P PS=5.36U PD=3.68U
* device instance $11 r0 *1 3.16,1.005 nmos_5p0
M$11 4 7 8 3 nmos_5p0 L=0.6U W=2.64U AS=0.6864P AD=1.2342P PS=3.68U PD=5.83U
* device instance $12 r0 *1 4.28,1.005 nmos_5p0
M$12 8 5 4 3 nmos_5p0 L=0.6U W=2.64U AS=0.6864P AD=0.6864P PS=3.68U PD=3.68U
* device instance $13 r0 *1 5.4,1.005 nmos_5p0
M$13 4 6 8 3 nmos_5p0 L=0.6U W=2.64U AS=0.6864P AD=0.6864P PS=3.68U PD=3.68U
.ENDS gf180mcu_fd_sc_mcu9t5v0__oai31_2

* cell gf180mcu_fd_sc_mcu9t5v0__aoi22_2
* pin PWELL,VSS,gf180mcu_gnd
* pin B2
* pin NWELL,VDD
* pin B1
* pin ZN
* pin A2
* pin A1
.SUBCKT gf180mcu_fd_sc_mcu9t5v0__aoi22_2 1 2 3 4 5 7 8
* net 1 PWELL,VSS,gf180mcu_gnd
* net 2 B2
* net 3 NWELL,VDD
* net 4 B1
* net 5 ZN
* net 7 A2
* net 8 A1
* device instance $1 r0 *1 0.87,3.78 pmos_5p0
M$1 3 2 6 3 pmos_5p0 L=0.5U W=3.66U AS=1.281P AD=0.9516P PS=6.89U PD=4.7U
* device instance $2 r0 *1 1.89,3.78 pmos_5p0
M$2 6 4 3 3 pmos_5p0 L=0.5U W=3.66U AS=0.9516P AD=0.9516P PS=4.7U PD=4.7U
* device instance $5 r0 *1 4.95,3.78 pmos_5p0
M$5 5 7 6 3 pmos_5p0 L=0.5U W=3.66U AS=0.9516P AD=1.281P PS=4.7U PD=6.89U
* device instance $6 r0 *1 5.97,3.78 pmos_5p0
M$6 6 8 5 3 pmos_5p0 L=0.5U W=3.66U AS=0.9516P AD=0.9516P PS=4.7U PD=4.7U
* device instance $9 r0 *1 0.92,1.005 nmos_5p0
M$9 12 2 1 1 nmos_5p0 L=0.6U W=1.32U AS=0.5808P AD=0.2112P PS=3.52U PD=1.64U
* device instance $10 r0 *1 1.84,1.005 nmos_5p0
M$10 5 4 12 1 nmos_5p0 L=0.6U W=1.32U AS=0.2112P AD=0.3663P PS=1.64U PD=1.875U
* device instance $11 r0 *1 2.995,1.005 nmos_5p0
M$11 11 4 5 1 nmos_5p0 L=0.6U W=1.32U AS=0.3663P AD=0.1881P PS=1.875U PD=1.605U
* device instance $12 r0 *1 3.88,1.005 nmos_5p0
M$12 1 2 11 1 nmos_5p0 L=0.6U W=1.32U AS=0.1881P AD=0.3432P PS=1.605U PD=1.84U
* device instance $13 r0 *1 5,1.005 nmos_5p0
M$13 10 7 1 1 nmos_5p0 L=0.6U W=1.32U AS=0.3432P AD=0.2112P PS=1.84U PD=1.64U
* device instance $14 r0 *1 5.92,1.005 nmos_5p0
M$14 5 8 10 1 nmos_5p0 L=0.6U W=1.32U AS=0.2112P AD=0.3432P PS=1.64U PD=1.84U
* device instance $15 r0 *1 7.04,1.005 nmos_5p0
M$15 9 8 5 1 nmos_5p0 L=0.6U W=1.32U AS=0.3432P AD=0.2112P PS=1.84U PD=1.64U
* device instance $16 r0 *1 7.96,1.005 nmos_5p0
M$16 1 7 9 1 nmos_5p0 L=0.6U W=1.32U AS=0.2112P AD=0.5808P PS=1.64U PD=3.52U
.ENDS gf180mcu_fd_sc_mcu9t5v0__aoi22_2

* cell gf180mcu_fd_sc_mcu9t5v0__nor2_2
* pin PWELL,VSS,gf180mcu_gnd
* pin NWELL,VDD
* pin ZN
* pin A1
* pin A2
.SUBCKT gf180mcu_fd_sc_mcu9t5v0__nor2_2 1 2 3 4 5
* net 1 PWELL,VSS,gf180mcu_gnd
* net 2 NWELL,VDD
* net 3 ZN
* net 4 A1
* net 5 A2
* device instance $1 r0 *1 0.92,3.78 pmos_5p0
M$1 7 5 2 2 pmos_5p0 L=0.5U W=1.83U AS=0.8052P AD=0.5673P PS=4.54U PD=2.45U
* device instance $2 r0 *1 2.04,3.78 pmos_5p0
M$2 3 4 7 2 pmos_5p0 L=0.5U W=1.83U AS=0.5673P AD=0.52155P PS=2.45U PD=2.4U
* device instance $3 r0 *1 3.11,3.78 pmos_5p0
M$3 6 4 3 2 pmos_5p0 L=0.5U W=1.83U AS=0.52155P AD=0.61305P PS=2.4U PD=2.5U
* device instance $4 r0 *1 4.28,3.78 pmos_5p0
M$4 2 5 6 2 pmos_5p0 L=0.5U W=1.83U AS=0.61305P AD=0.8052P PS=2.5U PD=4.54U
* device instance $5 r0 *1 0.92,1.04 nmos_5p0
M$5 3 5 1 1 nmos_5p0 L=0.6U W=1.84U AS=0.644P AD=0.644P PS=4.16U PD=4.16U
* device instance $6 r0 *1 2.04,1.04 nmos_5p0
M$6 1 4 3 1 nmos_5p0 L=0.6U W=1.84U AS=0.4784P AD=0.4784P PS=2.88U PD=2.88U
.ENDS gf180mcu_fd_sc_mcu9t5v0__nor2_2

* cell gf180mcu_fd_sc_mcu9t5v0__clkinv_2
* pin PWELL,VSS,gf180mcu_gnd
* pin NWELL,VDD
* pin I
* pin ZN
.SUBCKT gf180mcu_fd_sc_mcu9t5v0__clkinv_2 1 2 3 4
* net 1 PWELL,VSS,gf180mcu_gnd
* net 2 NWELL,VDD
* net 3 I
* net 4 ZN
* device instance $1 r0 *1 0.87,3.78 pmos_5p0
M$1 4 3 2 2 pmos_5p0 L=0.5U W=3.66U AS=1.3725P AD=1.3725P PS=6.99U PD=6.99U
* device instance $3 r0 *1 0.92,1.3 nmos_5p0
M$3 4 3 1 1 nmos_5p0 L=0.6U W=1.46U AS=0.511P AD=0.511P PS=3.59U PD=3.59U
.ENDS gf180mcu_fd_sc_mcu9t5v0__clkinv_2

* cell gf180mcu_fd_sc_mcu9t5v0__buf_4
* pin PWELL,VSS,gf180mcu_gnd
* pin NWELL,VDD
* pin I
* pin Z
.SUBCKT gf180mcu_fd_sc_mcu9t5v0__buf_4 1 2 3 5
* net 1 PWELL,VSS,gf180mcu_gnd
* net 2 NWELL,VDD
* net 3 I
* net 5 Z
* device instance $1 r0 *1 0.87,3.78 pmos_5p0
M$1 4 3 2 2 pmos_5p0 L=0.5U W=3.66U AS=1.3725P AD=1.1346P PS=6.99U PD=4.9U
* device instance $3 r0 *1 3.11,3.78 pmos_5p0
M$3 5 4 2 2 pmos_5p0 L=0.5U W=7.32U AS=2.2692P AD=2.5071P PS=9.8U PD=11.89U
* device instance $7 r0 *1 0.92,1.005 nmos_5p0
M$7 4 3 1 1 nmos_5p0 L=0.6U W=2.64U AS=0.924P AD=0.6864P PS=5.36U PD=3.68U
* device instance $9 r0 *1 3.16,1.005 nmos_5p0
M$9 5 4 1 1 nmos_5p0 L=0.6U W=5.28U AS=1.3728P AD=1.6104P PS=7.36U PD=9.04U
.ENDS gf180mcu_fd_sc_mcu9t5v0__buf_4

* cell gf180mcu_fd_sc_mcu9t5v0__dlyc_2
* pin PWELL,VSS,gf180mcu_gnd
* pin Z
* pin I
* pin NWELL,VDD
.SUBCKT gf180mcu_fd_sc_mcu9t5v0__dlyc_2 1 7 11 13
* net 1 PWELL,VSS,gf180mcu_gnd
* net 7 Z
* net 11 I
* net 13 NWELL,VDD
* device instance $1 r0 *1 8.34,3.365 pmos_5p0
M$1 6 5 17 13 pmos_5p0 L=0.5U W=0.36U AS=0.27P AD=0.1584P PS=1.98U PD=1.6U
* device instance $2 r0 *1 8.34,4.085 pmos_5p0
M$2 17 5 13 13 pmos_5p0 L=0.5U W=0.36U AS=0.528P AD=0.27P PS=3.13U PD=1.98U
* device instance $3 r0 *1 10.14,3.785 pmos_5p0
M$3 7 6 13 13 pmos_5p0 L=0.5U W=3.66U AS=1.14105P AD=1.41825P PS=5.63U PD=7.04U
* device instance $5 r0 *1 4.34,3.365 pmos_5p0
M$5 4 3 14 13 pmos_5p0 L=0.5U W=0.36U AS=0.27P AD=0.1584P PS=1.98U PD=1.6U
* device instance $6 r0 *1 6.18,3.365 pmos_5p0
M$6 16 4 5 13 pmos_5p0 L=0.5U W=0.36U AS=0.1584P AD=0.27P PS=1.6U PD=1.98U
* device instance $7 r0 *1 4.34,4.085 pmos_5p0
M$7 13 3 14 13 pmos_5p0 L=0.5U W=0.36U AS=0.27P AD=0.2412P PS=1.98U PD=1.7U
* device instance $8 r0 *1 6.18,4.085 pmos_5p0
M$8 13 4 16 13 pmos_5p0 L=0.5U W=0.36U AS=0.27P AD=0.2412P PS=1.98U PD=1.7U
* device instance $9 r0 *1 2.18,3.365 pmos_5p0
M$9 15 2 3 13 pmos_5p0 L=0.5U W=0.36U AS=0.1584P AD=0.27P PS=1.6U PD=1.98U
* device instance $10 r0 *1 0.87,4.085 pmos_5p0
M$10 13 11 2 13 pmos_5p0 L=0.5U W=0.36U AS=0.1584P AD=0.1458P PS=1.6U PD=1.17U
* device instance $11 r0 *1 2.18,4.085 pmos_5p0
M$11 13 2 15 13 pmos_5p0 L=0.5U W=0.36U AS=0.27P AD=0.1458P PS=1.98U PD=1.17U
* device instance $12 r0 *1 0.92,0.795 nmos_5p0
M$12 1 11 2 1 nmos_5p0 L=0.6U W=0.36U AS=0.1584P AD=0.1278P PS=1.6U PD=1.07U
* device instance $13 r0 *1 2.23,0.795 nmos_5p0
M$13 12 2 1 1 nmos_5p0 L=0.6U W=0.36U AS=0.1278P AD=0.27P PS=1.07U PD=1.98U
* device instance $14 r0 *1 2.23,1.515 nmos_5p0
M$14 3 2 12 1 nmos_5p0 L=0.6U W=0.36U AS=0.27P AD=0.1584P PS=1.98U PD=1.6U
* device instance $15 r0 *1 4.39,0.52 nmos_5p0
M$15 1 3 8 1 nmos_5p0 L=0.6U W=0.36U AS=0.27P AD=0.2232P PS=1.98U PD=1.6U
* device instance $16 r0 *1 6.23,0.52 nmos_5p0
M$16 10 4 1 1 nmos_5p0 L=0.6U W=0.36U AS=0.2232P AD=0.27P PS=1.6U PD=1.98U
* device instance $17 r0 *1 4.39,1.24 nmos_5p0
M$17 4 3 8 1 nmos_5p0 L=0.6U W=0.36U AS=0.27P AD=0.1584P PS=1.98U PD=1.6U
* device instance $18 r0 *1 6.23,1.24 nmos_5p0
M$18 5 4 10 1 nmos_5p0 L=0.6U W=0.36U AS=0.27P AD=0.1584P PS=1.98U PD=1.6U
* device instance $19 r0 *1 8.39,0.525 nmos_5p0
M$19 1 5 9 1 nmos_5p0 L=0.6U W=0.36U AS=0.27P AD=0.408P PS=1.98U PD=2.52U
* device instance $20 r0 *1 8.39,1.245 nmos_5p0
M$20 6 5 9 1 nmos_5p0 L=0.6U W=0.36U AS=0.27P AD=0.1584P PS=1.98U PD=1.6U
* device instance $21 r0 *1 10.19,1.005 nmos_5p0
M$21 7 6 1 1 nmos_5p0 L=0.6U W=2.64U AS=0.7512P AD=0.924P PS=4.36U PD=5.36U
.ENDS gf180mcu_fd_sc_mcu9t5v0__dlyc_2

* cell gf180mcu_fd_sc_mcu9t5v0__buf_3
* pin I
* pin NWELL,VDD
* pin PWELL,VSS,gf180mcu_gnd
* pin Z
.SUBCKT gf180mcu_fd_sc_mcu9t5v0__buf_3 1 2 3 5
* net 1 I
* net 2 NWELL,VDD
* net 3 PWELL,VSS,gf180mcu_gnd
* net 5 Z
* device instance $1 r0 *1 0.87,3.78 pmos_5p0
M$1 2 1 4 2 pmos_5p0 L=0.5U W=1.83U AS=0.8052P AD=0.74115P PS=4.54U PD=2.64U
* device instance $2 r0 *1 2.18,3.78 pmos_5p0
M$2 5 4 2 2 pmos_5p0 L=0.5U W=5.49U AS=1.87575P AD=1.9398P PS=7.54U PD=9.44U
* device instance $5 r0 *1 0.92,1.005 nmos_5p0
M$5 3 1 4 3 nmos_5p0 L=0.6U W=1.32U AS=0.5808P AD=0.4686P PS=3.52U PD=2.03U
* device instance $6 r0 *1 2.23,1.005 nmos_5p0
M$6 5 4 3 3 nmos_5p0 L=0.6U W=3.96U AS=1.155P AD=1.2672P PS=5.71U PD=7.2U
.ENDS gf180mcu_fd_sc_mcu9t5v0__buf_3

* cell gf180mcu_fd_sc_mcu9t5v0__xnor2_2
* pin NWELL,VDD
* pin A1
* pin A2
* pin PWELL,VSS,gf180mcu_gnd
* pin ZN
.SUBCKT gf180mcu_fd_sc_mcu9t5v0__xnor2_2 1 5 6 7 8
* net 1 NWELL,VDD
* net 5 A1
* net 6 A2
* net 7 PWELL,VSS,gf180mcu_gnd
* net 8 ZN
* device instance $1 r0 *1 0.97,3.327 pmos_5p0
M$1 10 6 2 1 pmos_5p0 L=0.5U W=0.915U AS=0.4026P AD=0.260775P PS=2.71U PD=1.485U
* device instance $2 r0 *1 2.04,3.327 pmos_5p0
M$2 1 5 10 1 pmos_5p0 L=0.5U W=0.915U AS=0.260775P AD=0.571875P PS=1.485U
+ PD=2.68U
* device instance $3 r0 *1 3.39,3.785 pmos_5p0
M$3 4 2 1 1 pmos_5p0 L=0.5U W=1.83U AS=0.571875P AD=0.4758P PS=2.68U PD=2.35U
* device instance $4 r0 *1 4.41,3.785 pmos_5p0
M$4 3 5 4 1 pmos_5p0 L=0.5U W=1.83U AS=0.4758P AD=0.4758P PS=2.35U PD=2.35U
* device instance $5 r0 *1 5.43,3.785 pmos_5p0
M$5 4 6 3 1 pmos_5p0 L=0.5U W=1.83U AS=0.4758P AD=0.8052P PS=2.35U PD=4.54U
* device instance $6 r0 *1 7.17,3.78 pmos_5p0
M$6 8 3 1 1 pmos_5p0 L=0.5U W=3.66U AS=1.3725P AD=1.3725P PS=6.99U PD=6.99U
* device instance $8 r0 *1 7.22,1.005 nmos_5p0
M$8 8 3 7 7 nmos_5p0 L=0.6U W=2.64U AS=0.924P AD=0.924P PS=5.36U PD=5.36U
* device instance $10 r0 *1 0.92,0.675 nmos_5p0
M$10 2 6 7 7 nmos_5p0 L=0.6U W=0.66U AS=0.2904P AD=0.1716P PS=2.2U PD=1.18U
* device instance $11 r0 *1 2.04,0.675 nmos_5p0
M$11 7 5 2 7 nmos_5p0 L=0.6U W=0.66U AS=0.1716P AD=0.363P PS=1.18U PD=2.02U
* device instance $12 r0 *1 3.34,1.005 nmos_5p0
M$12 3 2 7 7 nmos_5p0 L=0.6U W=1.32U AS=0.363P AD=0.3432P PS=2.02U PD=1.84U
* device instance $13 r0 *1 4.46,1.005 nmos_5p0
M$13 9 5 3 7 nmos_5p0 L=0.6U W=1.32U AS=0.3432P AD=0.2112P PS=1.84U PD=1.64U
* device instance $14 r0 *1 5.38,1.005 nmos_5p0
M$14 7 6 9 7 nmos_5p0 L=0.6U W=1.32U AS=0.2112P AD=0.5808P PS=1.64U PD=3.52U
.ENDS gf180mcu_fd_sc_mcu9t5v0__xnor2_2

* cell gf180mcu_fd_sc_mcu9t5v0__dffrnq_2
* pin PWELL,VSS,gf180mcu_gnd
* pin RN
* pin Q
* pin CLK
* pin D
* pin NWELL,VDD
.SUBCKT gf180mcu_fd_sc_mcu9t5v0__dffrnq_2 1 2 11 15 16 17
* net 1 PWELL,VSS,gf180mcu_gnd
* net 2 RN
* net 11 Q
* net 15 CLK
* net 16 D
* net 17 NWELL,VDD
* device instance $1 r0 *1 17.05,3.78 pmos_5p0
M$1 11 3 17 17 pmos_5p0 L=0.5U W=3.66U AS=1.281P AD=1.281P PS=6.89U PD=6.89U
* device instance $3 r0 *1 9.67,3.64 pmos_5p0
M$3 8 6 17 17 pmos_5p0 L=0.5U W=1U AS=0.44P AD=0.26P PS=2.88U PD=1.52U
* device instance $4 r0 *1 10.69,3.64 pmos_5p0
M$4 9 4 8 17 pmos_5p0 L=0.5U W=1U AS=0.26P AD=0.26P PS=1.52U PD=1.52U
* device instance $5 r0 *1 11.71,3.64 pmos_5p0
M$5 10 7 9 17 pmos_5p0 L=0.5U W=1U AS=0.26P AD=0.26P PS=1.52U PD=1.52U
* device instance $6 r0 *1 12.73,3.64 pmos_5p0
M$6 10 3 17 17 pmos_5p0 L=0.5U W=1U AS=0.5471P AD=0.26P PS=2.57U PD=1.52U
* device instance $7 r0 *1 13.97,3.78 pmos_5p0
M$7 3 2 17 17 pmos_5p0 L=0.5U W=1.83U AS=0.5471P AD=0.4758P PS=2.57U PD=2.35U
* device instance $8 r0 *1 14.99,3.78 pmos_5p0
M$8 17 9 3 17 pmos_5p0 L=0.5U W=1.83U AS=0.4758P AD=0.8052P PS=2.35U PD=4.54U
* device instance $9 r0 *1 3.85,3.465 pmos_5p0
M$9 5 16 17 17 pmos_5p0 L=0.5U W=1U AS=0.44P AD=0.26P PS=2.88U PD=1.52U
* device instance $10 r0 *1 4.87,3.465 pmos_5p0
M$10 6 7 5 17 pmos_5p0 L=0.5U W=1U AS=0.26P AD=0.26P PS=1.52U PD=1.52U
* device instance $11 r0 *1 5.89,3.465 pmos_5p0
M$11 18 4 6 17 pmos_5p0 L=0.5U W=1U AS=0.26P AD=0.26P PS=1.52U PD=1.52U
* device instance $12 r0 *1 6.91,3.465 pmos_5p0
M$12 17 8 18 17 pmos_5p0 L=0.5U W=1U AS=0.26P AD=0.26P PS=1.52U PD=1.52U
* device instance $13 r0 *1 7.93,3.465 pmos_5p0
M$13 18 2 17 17 pmos_5p0 L=0.5U W=1U AS=0.26P AD=0.44P PS=1.52U PD=2.88U
* device instance $14 r0 *1 0.97,3.555 pmos_5p0
M$14 17 15 4 17 pmos_5p0 L=0.5U W=1.38U AS=0.6072P AD=0.3588P PS=3.64U PD=1.9U
* device instance $15 r0 *1 1.99,3.555 pmos_5p0
M$15 7 4 17 17 pmos_5p0 L=0.5U W=1.38U AS=0.3588P AD=0.6072P PS=1.9U PD=3.64U
* device instance $16 r0 *1 0.92,1.245 nmos_5p0
M$16 1 15 4 1 nmos_5p0 L=0.6U W=0.79U AS=0.3476P AD=0.2054P PS=2.46U PD=1.31U
* device instance $17 r0 *1 2.04,1.245 nmos_5p0
M$17 7 4 1 1 nmos_5p0 L=0.6U W=0.79U AS=0.2054P AD=0.3476P PS=1.31U PD=2.46U
* device instance $18 r0 *1 17,1.04 nmos_5p0
M$18 11 3 1 1 nmos_5p0 L=0.6U W=2.5U AS=0.875P AD=0.875P PS=5.15U PD=5.15U
* device instance $20 r0 *1 3.88,1.195 nmos_5p0
M$20 5 16 1 1 nmos_5p0 L=0.6U W=0.7U AS=0.308P AD=0.182P PS=2.28U PD=1.22U
* device instance $21 r0 *1 5,1.195 nmos_5p0
M$21 6 4 5 1 nmos_5p0 L=0.6U W=0.7U AS=0.182P AD=0.182P PS=1.22U PD=1.22U
* device instance $22 r0 *1 6.12,1.195 nmos_5p0
M$22 13 7 6 1 nmos_5p0 L=0.6U W=0.7U AS=0.182P AD=0.084P PS=1.22U PD=0.94U
* device instance $23 r0 *1 6.96,1.195 nmos_5p0
M$23 12 8 13 1 nmos_5p0 L=0.6U W=0.7U AS=0.084P AD=0.147P PS=0.94U PD=1.12U
* device instance $24 r0 *1 7.98,1.195 nmos_5p0
M$24 1 2 12 1 nmos_5p0 L=0.6U W=0.7U AS=0.147P AD=0.259P PS=1.12U PD=1.44U
* device instance $25 r0 *1 9.32,1.195 nmos_5p0
M$25 8 6 1 1 nmos_5p0 L=0.6U W=0.7U AS=0.259P AD=0.1855P PS=1.44U PD=1.23U
* device instance $26 r0 *1 10.45,1.195 nmos_5p0
M$26 9 7 8 1 nmos_5p0 L=0.6U W=0.7U AS=0.1855P AD=0.182P PS=1.23U PD=1.22U
* device instance $27 r0 *1 11.57,1.195 nmos_5p0
M$27 10 4 9 1 nmos_5p0 L=0.6U W=0.7U AS=0.182P AD=0.182P PS=1.22U PD=1.22U
* device instance $28 r0 *1 12.69,1.195 nmos_5p0
M$28 1 3 10 1 nmos_5p0 L=0.6U W=0.7U AS=0.182P AD=0.182P PS=1.22U PD=1.22U
* device instance $29 r0 *1 13.81,1.195 nmos_5p0
M$29 1 2 14 1 nmos_5p0 L=0.6U W=0.7U AS=0.341P AD=0.182P PS=1.88U PD=1.22U
* device instance $30 r0 *1 15.11,0.955 nmos_5p0
M$30 3 9 14 1 nmos_5p0 L=0.6U W=1.18U AS=0.341P AD=0.5192P PS=1.88U PD=3.24U
.ENDS gf180mcu_fd_sc_mcu9t5v0__dffrnq_2

* cell gf180mcu_fd_sc_mcu9t5v0__clkbuf_3
* pin PWELL,VSS,gf180mcu_gnd
* pin NWELL,VDD
* pin I
* pin Z
.SUBCKT gf180mcu_fd_sc_mcu9t5v0__clkbuf_3 1 2 3 5
* net 1 PWELL,VSS,gf180mcu_gnd
* net 2 NWELL,VDD
* net 3 I
* net 5 Z
* device instance $1 r0 *1 0.87,3.552 pmos_5p0
M$1 4 3 2 2 pmos_5p0 L=0.5U W=2.75U AS=1.03125P AD=0.97625P PS=5.625U PD=4.17U
* device instance $3 r0 *1 3.29,3.552 pmos_5p0
M$3 5 4 2 2 pmos_5p0 L=0.5U W=5.5U AS=1.82875P AD=1.88375P PS=8.16U PD=9.615U
* device instance $7 r0 *1 0.92,1.34 nmos_5p0
M$7 4 3 1 1 nmos_5p0 L=0.6U W=1.1U AS=0.385P AD=0.3455P PS=3.05U PD=2.37U
* device instance $9 r0 *1 3.34,1.365 nmos_5p0
M$9 5 4 1 1 nmos_5p0 L=0.6U W=2.4U AS=0.6705P AD=0.732P PS=4.66U PD=5.44U
.ENDS gf180mcu_fd_sc_mcu9t5v0__clkbuf_3

* cell gf180mcu_fd_sc_mcu9t5v0__dlyb_2
* pin I
* pin NWELL,VDD
* pin PWELL,VSS,gf180mcu_gnd
* pin Z
.SUBCKT gf180mcu_fd_sc_mcu9t5v0__dlyb_2 1 2 3 7
* net 1 I
* net 2 NWELL,VDD
* net 3 PWELL,VSS,gf180mcu_gnd
* net 7 Z
* device instance $1 r0 *1 4.34,3.365 pmos_5p0
M$1 6 4 10 2 pmos_5p0 L=0.5U W=0.36U AS=0.27P AD=0.1584P PS=1.98U PD=1.6U
* device instance $2 r0 *1 4.34,4.085 pmos_5p0
M$2 10 4 2 2 pmos_5p0 L=0.5U W=0.36U AS=0.528P AD=0.27P PS=3.13U PD=1.98U
* device instance $3 r0 *1 6.14,3.785 pmos_5p0
M$3 7 6 2 2 pmos_5p0 L=0.5U W=3.66U AS=1.14105P AD=1.41825P PS=5.63U PD=7.04U
* device instance $5 r0 *1 2.18,3.365 pmos_5p0
M$5 11 5 4 2 pmos_5p0 L=0.5U W=0.36U AS=0.1584P AD=0.27P PS=1.6U PD=1.98U
* device instance $6 r0 *1 0.87,4.085 pmos_5p0
M$6 2 1 5 2 pmos_5p0 L=0.5U W=0.36U AS=0.1584P AD=0.1458P PS=1.6U PD=1.17U
* device instance $7 r0 *1 2.18,4.085 pmos_5p0
M$7 2 5 11 2 pmos_5p0 L=0.5U W=0.36U AS=0.27P AD=0.1458P PS=1.98U PD=1.17U
* device instance $8 r0 *1 0.92,0.795 nmos_5p0
M$8 3 1 5 3 nmos_5p0 L=0.6U W=0.36U AS=0.1584P AD=0.1278P PS=1.6U PD=1.07U
* device instance $9 r0 *1 2.23,0.795 nmos_5p0
M$9 8 5 3 3 nmos_5p0 L=0.6U W=0.36U AS=0.1278P AD=0.27P PS=1.07U PD=1.98U
* device instance $10 r0 *1 2.23,1.515 nmos_5p0
M$10 4 5 8 3 nmos_5p0 L=0.6U W=0.36U AS=0.27P AD=0.1584P PS=1.98U PD=1.6U
* device instance $11 r0 *1 4.39,0.525 nmos_5p0
M$11 3 4 9 3 nmos_5p0 L=0.6U W=0.36U AS=0.27P AD=0.408P PS=1.98U PD=2.52U
* device instance $12 r0 *1 4.39,1.245 nmos_5p0
M$12 6 4 9 3 nmos_5p0 L=0.6U W=0.36U AS=0.27P AD=0.1584P PS=1.98U PD=1.6U
* device instance $13 r0 *1 6.19,1.005 nmos_5p0
M$13 7 6 3 3 nmos_5p0 L=0.6U W=2.64U AS=0.7512P AD=0.924P PS=4.36U PD=5.36U
.ENDS gf180mcu_fd_sc_mcu9t5v0__dlyb_2

* cell gf180mcu_fd_sc_mcu9t5v0__xnor3_2
* pin PWELL,VSS,gf180mcu_gnd
* pin A2
* pin A1
* pin ZN
* pin A3
* pin NWELL,VDD
.SUBCKT gf180mcu_fd_sc_mcu9t5v0__xnor3_2 1 3 4 8 11 12
* net 1 PWELL,VSS,gf180mcu_gnd
* net 3 A2
* net 4 A1
* net 8 ZN
* net 11 A3
* net 12 NWELL,VDD
* device instance $1 r0 *1 13.64,3.78 pmos_5p0
M$1 12 7 8 12 pmos_5p0 L=0.5U W=3.66U AS=1.3725P AD=1.3725P PS=6.99U PD=6.99U
* device instance $3 r0 *1 1.09,3.772 pmos_5p0
M$3 15 3 2 12 pmos_5p0 L=0.5U W=0.495U AS=0.2178P AD=0.15345P PS=1.87U PD=1.115U
* device instance $4 r0 *1 2.21,3.772 pmos_5p0
M$4 15 4 12 12 pmos_5p0 L=0.5U W=0.495U AS=0.282P AD=0.15345P PS=1.715U
+ PD=1.115U
* device instance $5 r0 *1 3.51,3.967 pmos_5p0
M$5 13 2 12 12 pmos_5p0 L=0.5U W=0.915U AS=0.282P AD=0.2379P PS=1.715U PD=1.435U
* device instance $6 r0 *1 4.53,3.967 pmos_5p0
M$6 5 4 13 12 pmos_5p0 L=0.5U W=0.915U AS=0.2379P AD=0.2379P PS=1.435U PD=1.435U
* device instance $7 r0 *1 5.55,3.967 pmos_5p0
M$7 13 3 5 12 pmos_5p0 L=0.5U W=0.915U AS=0.2379P AD=0.4026P PS=1.435U PD=2.71U
* device instance $8 r0 *1 7.39,3.977 pmos_5p0
M$8 16 5 6 12 pmos_5p0 L=0.5U W=0.915U AS=0.4026P AD=0.2379P PS=2.71U PD=1.435U
* device instance $9 r0 *1 8.41,3.977 pmos_5p0
M$9 16 11 12 12 pmos_5p0 L=0.5U W=0.915U AS=0.571875P AD=0.2379P PS=2.68U
+ PD=1.435U
* device instance $10 r0 *1 9.76,3.78 pmos_5p0
M$10 14 6 12 12 pmos_5p0 L=0.5U W=1.83U AS=0.571875P AD=0.52155P PS=2.68U
+ PD=2.4U
* device instance $11 r0 *1 10.83,3.78 pmos_5p0
M$11 7 11 14 12 pmos_5p0 L=0.5U W=1.83U AS=0.52155P AD=0.4758P PS=2.4U PD=2.35U
* device instance $12 r0 *1 11.85,3.78 pmos_5p0
M$12 14 5 7 12 pmos_5p0 L=0.5U W=1.83U AS=0.4758P AD=0.8052P PS=2.35U PD=4.54U
* device instance $13 r0 *1 1.04,1.015 nmos_5p0
M$13 2 3 1 1 nmos_5p0 L=0.6U W=0.36U AS=0.1584P AD=0.0936P PS=1.6U PD=0.88U
* device instance $14 r0 *1 2.16,1.015 nmos_5p0
M$14 1 4 2 1 nmos_5p0 L=0.6U W=0.36U AS=0.0936P AD=0.186P PS=0.88U PD=1.36U
* device instance $15 r0 *1 3.46,1.165 nmos_5p0
M$15 5 2 1 1 nmos_5p0 L=0.6U W=0.66U AS=0.186P AD=0.1716P PS=1.36U PD=1.18U
* device instance $16 r0 *1 4.58,1.165 nmos_5p0
M$16 9 4 5 1 nmos_5p0 L=0.6U W=0.66U AS=0.1716P AD=0.1056P PS=1.18U PD=0.98U
* device instance $17 r0 *1 5.5,1.165 nmos_5p0
M$17 1 3 9 1 nmos_5p0 L=0.6U W=0.66U AS=0.1056P AD=0.2904P PS=0.98U PD=2.2U
* device instance $18 r0 *1 13.64,1.005 nmos_5p0
M$18 1 7 8 1 nmos_5p0 L=0.6U W=2.64U AS=0.924P AD=0.924P PS=5.36U PD=5.36U
* device instance $20 r0 *1 7.34,1.165 nmos_5p0
M$20 6 5 1 1 nmos_5p0 L=0.6U W=0.66U AS=0.2904P AD=0.1716P PS=2.2U PD=1.18U
* device instance $21 r0 *1 8.46,1.165 nmos_5p0
M$21 6 11 1 1 nmos_5p0 L=0.6U W=0.66U AS=0.363P AD=0.1716P PS=2.02U PD=1.18U
* device instance $22 r0 *1 9.76,1 nmos_5p0
M$22 7 6 1 1 nmos_5p0 L=0.6U W=1.32U AS=0.363P AD=0.3432P PS=2.02U PD=1.84U
* device instance $23 r0 *1 10.88,1 nmos_5p0
M$23 10 11 7 1 nmos_5p0 L=0.6U W=1.32U AS=0.3432P AD=0.2112P PS=1.84U PD=1.64U
* device instance $24 r0 *1 11.8,1 nmos_5p0
M$24 1 5 10 1 nmos_5p0 L=0.6U W=1.32U AS=0.2112P AD=0.5808P PS=1.64U PD=3.52U
.ENDS gf180mcu_fd_sc_mcu9t5v0__xnor3_2

* cell gf180mcu_fd_sc_mcu9t5v0__and2_2
* pin NWELL,VDD
* pin A1
* pin A2
* pin PWELL,VSS,gf180mcu_gnd
* pin Z
.SUBCKT gf180mcu_fd_sc_mcu9t5v0__and2_2 2 3 4 5 6
* net 2 NWELL,VDD
* net 3 A1
* net 4 A2
* net 5 PWELL,VSS,gf180mcu_gnd
* net 6 Z
* device instance $1 r0 *1 0.885,3.685 pmos_5p0
M$1 1 3 2 2 pmos_5p0 L=0.5U W=1.64U AS=0.7216P AD=0.4264P PS=4.16U PD=2.16U
* device instance $2 r0 *1 1.905,3.685 pmos_5p0
M$2 2 4 1 2 pmos_5p0 L=0.5U W=1.64U AS=0.4264P AD=0.6486P PS=2.16U PD=2.57U
* device instance $3 r0 *1 3.145,3.78 pmos_5p0
M$3 6 1 2 2 pmos_5p0 L=0.5U W=3.66U AS=1.1244P AD=1.281P PS=4.92U PD=6.89U
* device instance $5 r0 *1 0.935,1.005 nmos_5p0
M$5 7 3 1 5 nmos_5p0 L=0.6U W=1.32U AS=0.5808P AD=0.2112P PS=3.52U PD=1.64U
* device instance $6 r0 *1 1.855,1.005 nmos_5p0
M$6 5 4 7 5 nmos_5p0 L=0.6U W=1.32U AS=0.2112P AD=0.3432P PS=1.64U PD=1.84U
* device instance $7 r0 *1 2.975,1.005 nmos_5p0
M$7 6 1 5 5 nmos_5p0 L=0.6U W=2.64U AS=0.6864P AD=0.924P PS=3.68U PD=5.36U
.ENDS gf180mcu_fd_sc_mcu9t5v0__and2_2

* cell gf180mcu_fd_sc_mcu9t5v0__mux2_2
* pin PWELL,VSS,gf180mcu_gnd
* pin NWELL,VDD
* pin Z
* pin I1
* pin S
* pin I0
.SUBCKT gf180mcu_fd_sc_mcu9t5v0__mux2_2 1 2 3 4 5 7
* net 1 PWELL,VSS,gf180mcu_gnd
* net 2 NWELL,VDD
* net 3 Z
* net 4 I1
* net 5 S
* net 7 I0
* device instance $1 r0 *1 0.92,3.78 pmos_5p0
M$1 3 6 2 2 pmos_5p0 L=0.5U W=3.66U AS=1.32675P AD=1.18035P PS=6.94U PD=4.95U
* device instance $3 r0 *1 3.21,3.78 pmos_5p0
M$3 12 4 2 2 pmos_5p0 L=0.5U W=1.83U AS=0.6588P AD=0.7137P PS=2.55U PD=2.61U
* device instance $4 r0 *1 4.49,3.78 pmos_5p0
M$4 6 8 12 2 pmos_5p0 L=0.5U W=1.83U AS=0.7137P AD=0.4758P PS=2.61U PD=2.35U
* device instance $5 r0 *1 5.51,3.78 pmos_5p0
M$5 11 5 6 2 pmos_5p0 L=0.5U W=1.83U AS=0.4758P AD=0.2196P PS=2.35U PD=2.07U