* CDL Netlist generated by OpenROAD

*.BUSDELIMITER [

.SUBCKT aes_cipher_top clk done key[0] key[100] key[101] key[102]
+ key[103] key[104] key[105] key[106] key[107] key[108] key[109]
+ key[10] key[110] key[111] key[112] key[113] key[114] key[115]
+ key[116] key[117] key[118] key[119] key[11] key[120] key[121]
+ key[122] key[123] key[124] key[125] key[126] key[127] key[12]
+ key[13] key[14] key[15] key[16] key[17] key[18] key[19] key[1]
+ key[20] key[21] key[22] key[23] key[24] key[25] key[26] key[27]
+ key[28] key[29] key[2] key[30] key[31] key[32] key[33] key[34]
+ key[35] key[36] key[37] key[38] key[39] key[3] key[40] key[41]
+ key[42] key[43] key[44] key[45] key[46] key[47] key[48] key[49]
+ key[4] key[50] key[51] key[52] key[53] key[54] key[55] key[56]
+ key[57] key[58] key[59] key[5] key[60] key[61] key[62] key[63]
+ key[64] key[65] key[66] key[67] key[68] key[69] key[6] key[70]
+ key[71] key[72] key[73] key[74] key[75] key[76] key[77] key[78]
+ key[79] key[7] key[80] key[81] key[82] key[83] key[84] key[85]
+ key[86] key[87] key[88] key[89] key[8] key[90] key[91] key[92]
+ key[93] key[94] key[95] key[96] key[97] key[98] key[99] key[9]
+ ld rst text_in[0] text_in[100] text_in[101] text_in[102] text_in[103]
+ text_in[104] text_in[105] text_in[106] text_in[107] text_in[108]
+ text_in[109] text_in[10] text_in[110] text_in[111] text_in[112]
+ text_in[113] text_in[114] text_in[115] text_in[116] text_in[117]
+ text_in[118] text_in[119] text_in[11] text_in[120] text_in[121]
+ text_in[122] text_in[123] text_in[124] text_in[125] text_in[126]
+ text_in[127] text_in[12] text_in[13] text_in[14] text_in[15]
+ text_in[16] text_in[17] text_in[18] text_in[19] text_in[1]
+ text_in[20] text_in[21] text_in[22] text_in[23] text_in[24]
+ text_in[25] text_in[26] text_in[27] text_in[28] text_in[29]
+ text_in[2] text_in[30] text_in[31] text_in[32] text_in[33]
+ text_in[34] text_in[35] text_in[36] text_in[37] text_in[38]
+ text_in[39] text_in[3] text_in[40] text_in[41] text_in[42]
+ text_in[43] text_in[44] text_in[45] text_in[46] text_in[47]
+ text_in[48] text_in[49] text_in[4] text_in[50] text_in[51]
+ text_in[52] text_in[53] text_in[54] text_in[55] text_in[56]
+ text_in[57] text_in[58] text_in[59] text_in[5] text_in[60]
+ text_in[61] text_in[62] text_in[63] text_in[64] text_in[65]
+ text_in[66] text_in[67] text_in[68] text_in[69] text_in[6]
+ text_in[70] text_in[71] text_in[72] text_in[73] text_in[74]
+ text_in[75] text_in[76] text_in[77] text_in[78] text_in[79]
+ text_in[7] text_in[80] text_in[81] text_in[82] text_in[83]
+ text_in[84] text_in[85] text_in[86] text_in[87] text_in[88]
+ text_in[89] text_in[8] text_in[90] text_in[91] text_in[92]
+ text_in[93] text_in[94] text_in[95] text_in[96] text_in[97]
+ text_in[98] text_in[99] text_in[9] text_out[0] text_out[100]
+ text_out[101] text_out[102] text_out[103] text_out[104] text_out[105]
+ text_out[106] text_out[107] text_out[108] text_out[109] text_out[10]
+ text_out[110] text_out[111] text_out[112] text_out[113] text_out[114]
+ text_out[115] text_out[116] text_out[117] text_out[118] text_out[119]
+ text_out[11] text_out[120] text_out[121] text_out[122] text_out[123]
+ text_out[124] text_out[125] text_out[126] text_out[127] text_out[12]
+ text_out[13] text_out[14] text_out[15] text_out[16] text_out[17]
+ text_out[18] text_out[19] text_out[1] text_out[20] text_out[21]
+ text_out[22] text_out[23] text_out[24] text_out[25] text_out[26]
+ text_out[27] text_out[28] text_out[29] text_out[2] text_out[30]
+ text_out[31] text_out[32] text_out[33] text_out[34] text_out[35]
+ text_out[36] text_out[37] text_out[38] text_out[39] text_out[3]
+ text_out[40] text_out[41] text_out[42] text_out[43] text_out[44]
+ text_out[45] text_out[46] text_out[47] text_out[48] text_out[49]
+ text_out[4] text_out[50] text_out[51] text_out[52] text_out[53]
+ text_out[54] text_out[55] text_out[56] text_out[57] text_out[58]
+ text_out[59] text_out[5] text_out[60] text_out[61] text_out[62]
+ text_out[63] text_out[64] text_out[65] text_out[66] text_out[67]
+ text_out[68] text_out[69] text_out[6] text_out[70] text_out[71]
+ text_out[72] text_out[73] text_out[74] text_out[75] text_out[76]
+ text_out[77] text_out[78] text_out[79] text_out[7] text_out[80]
+ text_out[81] text_out[82] text_out[83] text_out[84] text_out[85]
+ text_out[86] text_out[87] text_out[88] text_out[89] text_out[8]
+ text_out[90] text_out[91] text_out[92] text_out[93] text_out[94]
+ text_out[95] text_out[96] text_out[97] text_out[98] text_out[99]
+ text_out[9]
X_16211_ u0.w\[0\]\[19\] u0.w\[2\]\[19\] _07232_ VDD VSS gf180mcu_fd_sc_mcu9t5v0__xnor2_2
X_16212_ u0.w\[1\]\[19\] u0.subword\[19\] _07243_ VDD VSS
+ gf180mcu_fd_sc_mcu9t5v0__xor2_2
X_16213_ u0.tmp_w\[19\] _07243_ _07254_ VDD VSS gf180mcu_fd_sc_mcu9t5v0__xor2_2
X_16214_ _07232_ _07254_ _07265_ VDD VSS gf180mcu_fd_sc_mcu9t5v0__xor2_2
X_16215_ net216 _07276_ VDD VSS gf180mcu_fd_sc_mcu9t5v0__inv_3
X_16216_ _07276_ _07286_ VDD VSS gf180mcu_fd_sc_mcu9t5v0__buf_8
X_16217_ _07265_ _07286_ _07297_ VDD VSS gf180mcu_fd_sc_mcu9t5v0__nand2_2
X_16218_ _07276_ net126 _07308_ VDD VSS gf180mcu_fd_sc_mcu9t5v0__or2_2
X_16219_ _07297_ _07308_ _07319_ VDD VSS gf180mcu_fd_sc_mcu9t5v0__nand2_4
X_16220_ _07319_ _07330_ VDD VSS gf180mcu_fd_sc_mcu9t5v0__clkinv_4
X_16221_ _07330_ _07341_ VDD VSS gf180mcu_fd_sc_mcu9t5v0__clkbuf_8
X_16222_ _07341_ _00390_ VDD VSS gf180mcu_fd_sc_mcu9t5v0__buf_4
X_16223_ u0.w\[0\]\[16\] u0.w\[2\]\[16\] _07361_ VDD VSS gf180mcu_fd_sc_mcu9t5v0__xnor2_2
X_16224_ u0.subword\[16\] u0.w\[1\]\[16\] _07372_ VDD VSS
+ gf180mcu_fd_sc_mcu9t5v0__xor2_2
X_16225_ u0.tmp_w\[16\] _07372_ _07383_ VDD VSS gf180mcu_fd_sc_mcu9t5v0__xor2_2
X_16226_ _07361_ _07383_ _07394_ VDD VSS gf180mcu_fd_sc_mcu9t5v0__xor2_2
X_16227_ _07286_ _07404_ VDD VSS gf180mcu_fd_sc_mcu9t5v0__buf_8
X_16228_ _07394_ _07404_ _07415_ VDD VSS gf180mcu_fd_sc_mcu9t5v0__nand2_2
X_16229_ net123 _07426_ VDD VSS gf180mcu_fd_sc_mcu9t5v0__clkinv_2
X_16230_ net216 _07437_ VDD VSS gf180mcu_fd_sc_mcu9t5v0__buf_8
X_16231_ _07426_ _07437_ _07448_ VDD VSS gf180mcu_fd_sc_mcu9t5v0__and2_2
X_16232_ _07448_ _07458_ VDD VSS gf180mcu_fd_sc_mcu9t5v0__clkinv_2
X_16233_ _07458_ _07415_ _15543_ VDD VSS gf180mcu_fd_sc_mcu9t5v0__nand2_4
X_16234_ u0.w\[0\]\[17\] u0.w\[2\]\[17\] _07463_ VDD VSS gf180mcu_fd_sc_mcu9t5v0__xnor2_2
X_16235_ u0.w\[1\]\[17\] u0.subword\[17\] _07464_ VDD VSS
+ gf180mcu_fd_sc_mcu9t5v0__xor2_2
X_16236_ u0.tmp_w\[17\] _07464_ _07465_ VDD VSS gf180mcu_fd_sc_mcu9t5v0__xor2_2
X_16237_ _07465_ _07463_ _07466_ VDD VSS gf180mcu_fd_sc_mcu9t5v0__xor2_2
X_16238_ _07276_ _07467_ VDD VSS gf180mcu_fd_sc_mcu9t5v0__clkbuf_12
X_16239_ _07467_ _07468_ VDD VSS gf180mcu_fd_sc_mcu9t5v0__buf_12
X_16240_ _07468_ _07466_ _07469_ VDD VSS gf180mcu_fd_sc_mcu9t5v0__nand2_2
X_16241_ net124 _07470_ VDD VSS gf180mcu_fd_sc_mcu9t5v0__clkinv_2
X_16242_ _07470_ _07437_ _07471_ VDD VSS gf180mcu_fd_sc_mcu9t5v0__and2_2
X_16243_ _07471_ _07472_ VDD VSS gf180mcu_fd_sc_mcu9t5v0__clkinv_2
X_16244_ _07472_ _07469_ _15548_ VDD VSS gf180mcu_fd_sc_mcu9t5v0__nand2_4
X_16245_ u0.w\[0\]\[21\] u0.w\[2\]\[21\] _07473_ VDD VSS gf180mcu_fd_sc_mcu9t5v0__xnor2_2
X_16246_ u0.w\[1\]\[21\] u0.subword\[21\] _07475_ VDD VSS
+ gf180mcu_fd_sc_mcu9t5v0__xor2_2
X_16247_ u0.tmp_w\[21\] _07475_ _07477_ VDD VSS gf180mcu_fd_sc_mcu9t5v0__xor2_2
X_16248_ _07473_ _07477_ _07479_ VDD VSS gf180mcu_fd_sc_mcu9t5v0__xor2_2
X_16249_ _07479_ _07404_ _07481_ VDD VSS gf180mcu_fd_sc_mcu9t5v0__and2_2
X_16250_ _07468_ net129 _07482_ VDD VSS gf180mcu_fd_sc_mcu9t5v0__nor2_2
X_16251_ _07481_ _07482_ _07484_ VDD VSS gf180mcu_fd_sc_mcu9t5v0__nor2_4
X_16252_ _07484_ _07486_ VDD VSS gf180mcu_fd_sc_mcu9t5v0__clkbuf_8
X_16253_ _07486_ _00392_ VDD VSS gf180mcu_fd_sc_mcu9t5v0__clkbuf_8
X_16254_ u0.w\[0\]\[20\] u0.w\[2\]\[20\] _07489_ VDD VSS gf180mcu_fd_sc_mcu9t5v0__xnor2_2
X_16255_ u0.w\[1\]\[20\] u0.subword\[20\] _07491_ VDD VSS
+ gf180mcu_fd_sc_mcu9t5v0__xor2_2
X_16256_ u0.tmp_w\[20\] _07491_ _07493_ VDD VSS gf180mcu_fd_sc_mcu9t5v0__xor2_2
X_16257_ _07489_ _07493_ _07495_ VDD VSS gf180mcu_fd_sc_mcu9t5v0__xor2_2
X_16258_ _07495_ _07286_ _07497_ VDD VSS gf180mcu_fd_sc_mcu9t5v0__and2_2
X_16259_ net128 _07498_ VDD VSS gf180mcu_fd_sc_mcu9t5v0__clkinv_2
X_16260_ _07498_ _07437_ _07504_ VDD VSS gf180mcu_fd_sc_mcu9t5v0__and2_2
X_16261_ _07497_ _07504_ _07513_ VDD VSS gf180mcu_fd_sc_mcu9t5v0__nor2_4
X_16262_ _07513_ _00391_ VDD VSS gf180mcu_fd_sc_mcu9t5v0__buf_4
X_16263_ u0.w\[0\]\[18\] u0.w\[2\]\[18\] _07526_ VDD VSS gf180mcu_fd_sc_mcu9t5v0__xor2_2
X_16264_ u0.subword\[18\] u0.w\[1\]\[18\] _07531_ VDD VSS
+ gf180mcu_fd_sc_mcu9t5v0__xor2_2
X_16265_ u0.tmp_w\[18\] _07531_ _07532_ VDD VSS gf180mcu_fd_sc_mcu9t5v0__xor2_2
X_16266_ _07526_ _07532_ _07533_ VDD VSS gf180mcu_fd_sc_mcu9t5v0__xor2_2
X_16267_ _07533_ _07276_ _07534_ VDD VSS gf180mcu_fd_sc_mcu9t5v0__nand2_4
X_16268_ net216 net125 _07535_ VDD VSS gf180mcu_fd_sc_mcu9t5v0__nand2_4
X_16269_ _07534_ _07535_ _07536_ VDD VSS gf180mcu_fd_sc_mcu9t5v0__nand2_4
X_16270_ _07536_ _07537_ VDD VSS gf180mcu_fd_sc_mcu9t5v0__buf_8
X_16271_ _07537_ _15562_ VDD VSS gf180mcu_fd_sc_mcu9t5v0__clkbuf_8
X_16272_ u0.w\[0\]\[0\] u0.w\[2\]\[0\] _07538_ VDD VSS gf180mcu_fd_sc_mcu9t5v0__xnor2_2
X_16273_ u0.subword\[0\] u0.w\[1\]\[0\] _07539_ VDD VSS gf180mcu_fd_sc_mcu9t5v0__xor2_2
X_16274_ u0.tmp_w\[0\] _07539_ _07540_ VDD VSS gf180mcu_fd_sc_mcu9t5v0__xor2_2
X_16275_ _07540_ _07538_ _07541_ VDD VSS gf180mcu_fd_sc_mcu9t5v0__xor2_4
X_16276_ _07467_ _07542_ VDD VSS gf180mcu_fd_sc_mcu9t5v0__clkbuf_12
X_16277_ _07541_ _07542_ _07543_ VDD VSS gf180mcu_fd_sc_mcu9t5v0__nand2_2
X_16278_ net45 _07544_ VDD VSS gf180mcu_fd_sc_mcu9t5v0__clkinv_2
X_16279_ _07544_ _07437_ _07545_ VDD VSS gf180mcu_fd_sc_mcu9t5v0__and2_2
X_16280_ _07545_ _07546_ VDD VSS gf180mcu_fd_sc_mcu9t5v0__clkinv_2
X_16281_ _07546_ _07543_ _15611_ VDD VSS gf180mcu_fd_sc_mcu9t5v0__nand2_4
X_16282_ u0.w\[0\]\[1\] u0.w\[2\]\[1\] _07547_ VDD VSS gf180mcu_fd_sc_mcu9t5v0__xnor2_2
X_16283_ u0.subword\[1\] u0.w\[1\]\[1\] _07548_ VDD VSS gf180mcu_fd_sc_mcu9t5v0__xor2_2
X_16284_ u0.tmp_w\[1\] _07548_ _07549_ VDD VSS gf180mcu_fd_sc_mcu9t5v0__xor2_2
X_16285_ _07549_ _07547_ _07550_ VDD VSS gf180mcu_fd_sc_mcu9t5v0__xor2_2
X_16286_ _07550_ _07404_ _07551_ VDD VSS gf180mcu_fd_sc_mcu9t5v0__nand2_2
X_16287_ net127 _07552_ VDD VSS gf180mcu_fd_sc_mcu9t5v0__inv_2
X_16288_ _07552_ _07437_ _07553_ VDD VSS gf180mcu_fd_sc_mcu9t5v0__and2_2
X_16289_ _07553_ _07554_ VDD VSS gf180mcu_fd_sc_mcu9t5v0__clkinv_2
X_16290_ _07554_ _07551_ _15616_ VDD VSS gf180mcu_fd_sc_mcu9t5v0__nand2_4
X_16291_ u0.w\[0\]\[2\] u0.w\[2\]\[2\] _07555_ VDD VSS gf180mcu_fd_sc_mcu9t5v0__xnor2_2
X_16292_ u0.tmp_w\[2\] _07556_ VDD VSS gf180mcu_fd_sc_mcu9t5v0__clkinv_4
X_16293_ u0.subword\[2\] u0.w\[1\]\[2\] _07557_ VDD VSS gf180mcu_fd_sc_mcu9t5v0__xor2_2
X_16294_ _07556_ _07557_ _07558_ VDD VSS gf180mcu_fd_sc_mcu9t5v0__xor2_2
X_16295_ _07555_ _07558_ _07559_ VDD VSS gf180mcu_fd_sc_mcu9t5v0__xor2_4
X_16296_ _07559_ _07467_ _07560_ VDD VSS gf180mcu_fd_sc_mcu9t5v0__nand2_2
X_16297_ net216 net138 _07561_ VDD VSS gf180mcu_fd_sc_mcu9t5v0__and2_2
X_16298_ _07561_ _07562_ VDD VSS gf180mcu_fd_sc_mcu9t5v0__clkinv_2
X_16299_ _07560_ _07562_ _07563_ VDD VSS gf180mcu_fd_sc_mcu9t5v0__nand2_4
X_16300_ _07563_ _15630_ VDD VSS gf180mcu_fd_sc_mcu9t5v0__clkbuf_8
X_16301_ u0.w\[0\]\[3\] u0.w\[2\]\[3\] _07564_ VDD VSS gf180mcu_fd_sc_mcu9t5v0__xnor2_2
X_16302_ u0.w\[1\]\[3\] u0.subword\[3\] _07565_ VDD VSS gf180mcu_fd_sc_mcu9t5v0__xor2_2
X_16303_ u0.tmp_w\[3\] _07565_ _07566_ VDD VSS gf180mcu_fd_sc_mcu9t5v0__xor2_2
X_16304_ _07564_ _07566_ _07567_ VDD VSS gf180mcu_fd_sc_mcu9t5v0__xor2_2
X_16305_ _07567_ _07467_ _07568_ VDD VSS gf180mcu_fd_sc_mcu9t5v0__nand2_2
X_16306_ _07286_ net149 _07569_ VDD VSS gf180mcu_fd_sc_mcu9t5v0__or2_2
X_16307_ _07568_ _07569_ _07570_ VDD VSS gf180mcu_fd_sc_mcu9t5v0__nand2_2
X_16308_ _07570_ _07571_ VDD VSS gf180mcu_fd_sc_mcu9t5v0__clkinv_2
X_16309_ _07571_ _07572_ VDD VSS gf180mcu_fd_sc_mcu9t5v0__buf_4
X_16310_ _07572_ _00400_ VDD VSS gf180mcu_fd_sc_mcu9t5v0__clkbuf_8
X_16311_ u0.w\[0\]\[4\] u0.w\[2\]\[4\] _07573_ VDD VSS gf180mcu_fd_sc_mcu9t5v0__xnor2_2
X_16312_ u0.w\[1\]\[4\] u0.subword\[4\] _07574_ VDD VSS gf180mcu_fd_sc_mcu9t5v0__xor2_2
X_16313_ u0.tmp_w\[4\] _07574_ _07575_ VDD VSS gf180mcu_fd_sc_mcu9t5v0__xor2_2
X_16314_ _07573_ _07575_ _07576_ VDD VSS gf180mcu_fd_sc_mcu9t5v0__xor2_2
X_16315_ _07286_ net160 _07577_ VDD VSS gf180mcu_fd_sc_mcu9t5v0__nor2_2
X_16316_ _07576_ _07467_ _07577_ _07578_ VDD VSS gf180mcu_fd_sc_mcu9t5v0__aoi21_4
X_16317_ _07578_ _07579_ VDD VSS gf180mcu_fd_sc_mcu9t5v0__buf_4
X_16318_ _07579_ _00401_ VDD VSS gf180mcu_fd_sc_mcu9t5v0__buf_4
X_16319_ u0.w\[0\]\[5\] u0.w\[2\]\[5\] _07580_ VDD VSS gf180mcu_fd_sc_mcu9t5v0__xnor2_2
X_16320_ u0.w\[1\]\[5\] u0.subword\[5\] _07581_ VDD VSS gf180mcu_fd_sc_mcu9t5v0__xor2_2
X_16321_ u0.tmp_w\[5\] _07581_ _07582_ VDD VSS gf180mcu_fd_sc_mcu9t5v0__xor2_2
X_16322_ _07580_ _07582_ _07583_ VDD VSS gf180mcu_fd_sc_mcu9t5v0__xor2_2
X_16323_ _07583_ _07404_ _07584_ VDD VSS gf180mcu_fd_sc_mcu9t5v0__and2_2
X_16324_ _07468_ net171 _07585_ VDD VSS gf180mcu_fd_sc_mcu9t5v0__nor2_2
X_16325_ _07584_ _07585_ _07586_ VDD VSS gf180mcu_fd_sc_mcu9t5v0__nor2_4
X_16326_ _07586_ _00402_ VDD VSS gf180mcu_fd_sc_mcu9t5v0__buf_4
X_16327_ u0.w\[1\]\[6\] u0.subword\[6\] _07587_ VDD VSS gf180mcu_fd_sc_mcu9t5v0__xor2_2
X_16328_ u0.w\[0\]\[6\] u0.w\[2\]\[6\] _07588_ VDD VSS gf180mcu_fd_sc_mcu9t5v0__xnor2_2
X_16329_ u0.tmp_w\[6\] _07587_ _07588_ _07589_ VDD VSS gf180mcu_fd_sc_mcu9t5v0__xor3_2
X_16330_ _07589_ _07542_ _07590_ VDD VSS gf180mcu_fd_sc_mcu9t5v0__and2_2
X_16331_ _07542_ net182 _07591_ VDD VSS gf180mcu_fd_sc_mcu9t5v0__nor2_2
X_16332_ _07590_ _07591_ _00403_ VDD VSS gf180mcu_fd_sc_mcu9t5v0__nor2_4
X_16333_ u0.w\[1\]\[7\] u0.subword\[7\] _07592_ VDD VSS gf180mcu_fd_sc_mcu9t5v0__xor2_2
X_16334_ u0.w\[0\]\[7\] u0.w\[2\]\[7\] _07593_ VDD VSS gf180mcu_fd_sc_mcu9t5v0__xnor2_2
X_16335_ u0.tmp_w\[7\] _07592_ _07593_ _07594_ VDD VSS gf180mcu_fd_sc_mcu9t5v0__xor3_2
X_16336_ _07594_ _07542_ _07595_ VDD VSS gf180mcu_fd_sc_mcu9t5v0__and2_2
X_16337_ _07468_ _07596_ VDD VSS gf180mcu_fd_sc_mcu9t5v0__buf_4
X_16338_ _07596_ net193 _07597_ VDD VSS gf180mcu_fd_sc_mcu9t5v0__nor2_4
X_16339_ _07595_ _07597_ _00404_ VDD VSS gf180mcu_fd_sc_mcu9t5v0__nor2_4
X_16340_ u0.w\[0\]\[8\] u0.w\[2\]\[8\] _07598_ VDD VSS gf180mcu_fd_sc_mcu9t5v0__xnor2_2
X_16341_ u0.subword\[8\] u0.w\[1\]\[8\] _07599_ VDD VSS gf180mcu_fd_sc_mcu9t5v0__xor2_2
X_16342_ u0.tmp_w\[8\] _07599_ _07600_ VDD VSS gf180mcu_fd_sc_mcu9t5v0__xor2_2
X_16343_ _07600_ _07598_ _07601_ VDD VSS gf180mcu_fd_sc_mcu9t5v0__xor2_4
X_16344_ _07601_ _07468_ _07602_ VDD VSS gf180mcu_fd_sc_mcu9t5v0__nand2_2
X_16345_ net204 _07603_ VDD VSS gf180mcu_fd_sc_mcu9t5v0__clkinv_2
X_16346_ _07603_ net216 _07604_ VDD VSS gf180mcu_fd_sc_mcu9t5v0__and2_2
X_16347_ _07604_ _07605_ VDD VSS gf180mcu_fd_sc_mcu9t5v0__clkinv_2
X_16348_ _07605_ _07602_ _15577_ VDD VSS gf180mcu_fd_sc_mcu9t5v0__nand2_4
X_16349_ u0.w\[0\]\[9\] u0.w\[2\]\[9\] _07606_ VDD VSS gf180mcu_fd_sc_mcu9t5v0__xnor2_2
X_16350_ u0.subword\[9\] u0.w\[1\]\[9\] _07607_ VDD VSS gf180mcu_fd_sc_mcu9t5v0__xor2_2
X_16351_ u0.tmp_w\[9\] _07607_ _07608_ VDD VSS gf180mcu_fd_sc_mcu9t5v0__xor2_2
X_16352_ _07608_ _07606_ _07609_ VDD VSS gf180mcu_fd_sc_mcu9t5v0__xor2_4
X_16353_ _07404_ _07609_ _07610_ VDD VSS gf180mcu_fd_sc_mcu9t5v0__nand2_2
X_16354_ net215 _07611_ VDD VSS gf180mcu_fd_sc_mcu9t5v0__clkinv_2
X_16355_ _07611_ _07437_ _07612_ VDD VSS gf180mcu_fd_sc_mcu9t5v0__and2_2
X_16356_ _07612_ _07613_ VDD VSS gf180mcu_fd_sc_mcu9t5v0__clkinv_2
X_16357_ _07613_ _07610_ _15582_ VDD VSS gf180mcu_fd_sc_mcu9t5v0__nand2_4
X_16358_ u0.w\[0\]\[10\] u0.w\[2\]\[10\] _07614_ VDD VSS gf180mcu_fd_sc_mcu9t5v0__xnor2_2
X_16359_ u0.tmp_w\[10\] _07615_ VDD VSS gf180mcu_fd_sc_mcu9t5v0__inv_4
X_16360_ u0.w\[1\]\[10\] u0.subword\[10\] _07616_ VDD VSS
+ gf180mcu_fd_sc_mcu9t5v0__xor2_2
X_16361_ _07615_ _07616_ _07617_ VDD VSS gf180mcu_fd_sc_mcu9t5v0__xor2_2
X_16362_ _07617_ _07614_ _07618_ VDD VSS gf180mcu_fd_sc_mcu9t5v0__xor2_4
X_16363_ _07618_ _07286_ _07619_ VDD VSS gf180mcu_fd_sc_mcu9t5v0__nand2_2
X_16364_ net216 net99 _07620_ VDD VSS gf180mcu_fd_sc_mcu9t5v0__and2_2
X_16365_ _07620_ _07621_ VDD VSS gf180mcu_fd_sc_mcu9t5v0__clkinv_2
X_16366_ _07621_ _07619_ _07622_ VDD VSS gf180mcu_fd_sc_mcu9t5v0__nand2_4
X_16367_ _07622_ _15596_ VDD VSS gf180mcu_fd_sc_mcu9t5v0__buf_8
X_16368_ u0.w\[0\]\[11\] u0.w\[2\]\[11\] _07623_ VDD VSS gf180mcu_fd_sc_mcu9t5v0__xnor2_2
X_16369_ u0.w\[1\]\[11\] u0.subword\[11\] _07624_ VDD VSS
+ gf180mcu_fd_sc_mcu9t5v0__xor2_2
X_16370_ u0.tmp_w\[11\] _07624_ _07625_ VDD VSS gf180mcu_fd_sc_mcu9t5v0__xor2_2
X_16371_ _07623_ _07625_ _07626_ VDD VSS gf180mcu_fd_sc_mcu9t5v0__xor2_2
X_16372_ _07626_ _07286_ _07627_ VDD VSS gf180mcu_fd_sc_mcu9t5v0__nand2_2
X_16373_ _07276_ net110 _07628_ VDD VSS gf180mcu_fd_sc_mcu9t5v0__or2_2
X_16374_ _07627_ _07628_ _07629_ VDD VSS gf180mcu_fd_sc_mcu9t5v0__nand2_4
X_16375_ _07629_ _07630_ VDD VSS gf180mcu_fd_sc_mcu9t5v0__clkinv_8
X_16376_ _07630_ _07631_ VDD VSS gf180mcu_fd_sc_mcu9t5v0__clkbuf_8
X_16377_ _07631_ _00385_ VDD VSS gf180mcu_fd_sc_mcu9t5v0__buf_4
X_16378_ u0.w\[0\]\[12\] u0.w\[2\]\[12\] _07632_ VDD VSS gf180mcu_fd_sc_mcu9t5v0__xnor2_2
X_16379_ u0.w\[1\]\[12\] u0.subword\[12\] _07633_ VDD VSS
+ gf180mcu_fd_sc_mcu9t5v0__xor2_2
X_16380_ u0.tmp_w\[12\] _07633_ _07634_ VDD VSS gf180mcu_fd_sc_mcu9t5v0__xor2_2
X_16381_ _07632_ _07634_ _07635_ VDD VSS gf180mcu_fd_sc_mcu9t5v0__xor2_2
X_16382_ net119 _07636_ VDD VSS gf180mcu_fd_sc_mcu9t5v0__clkinv_2
X_16383_ _07635_ _07636_ net216 _07637_ VDD VSS gf180mcu_fd_sc_mcu9t5v0__mux2_2
X_16384_ _07637_ _07638_ VDD VSS gf180mcu_fd_sc_mcu9t5v0__buf_4
X_16385_ _07638_ _07639_ VDD VSS gf180mcu_fd_sc_mcu9t5v0__inv_2
X_16386_ _07639_ _07640_ VDD VSS gf180mcu_fd_sc_mcu9t5v0__clkbuf_8
X_16387_ _07640_ _00386_ VDD VSS gf180mcu_fd_sc_mcu9t5v0__clkbuf_8
X_16388_ u0.w\[0\]\[13\] u0.w\[2\]\[13\] _07641_ VDD VSS gf180mcu_fd_sc_mcu9t5v0__xnor2_2
X_16389_ u0.w\[1\]\[13\] u0.subword\[13\] _07642_ VDD VSS
+ gf180mcu_fd_sc_mcu9t5v0__xor2_2
X_16390_ u0.tmp_w\[13\] _07642_ _07643_ VDD VSS gf180mcu_fd_sc_mcu9t5v0__xor2_2
X_16391_ _07641_ _07643_ _07644_ VDD VSS gf180mcu_fd_sc_mcu9t5v0__xor2_2
X_16392_ _07644_ _07404_ _07645_ VDD VSS gf180mcu_fd_sc_mcu9t5v0__and2_2
X_16393_ _07468_ net120 _07646_ VDD VSS gf180mcu_fd_sc_mcu9t5v0__nor2_2
X_16394_ _07645_ _07646_ _07647_ VDD VSS gf180mcu_fd_sc_mcu9t5v0__nor2_4
X_16395_ _07647_ _00387_ VDD VSS gf180mcu_fd_sc_mcu9t5v0__clkbuf_8
X_16396_ u0.w\[0\]\[14\] u0.w\[2\]\[14\] _07648_ VDD VSS gf180mcu_fd_sc_mcu9t5v0__xnor2_2
X_16397_ u0.w\[1\]\[14\] u0.subword\[14\] _07649_ VDD VSS
+ gf180mcu_fd_sc_mcu9t5v0__xor2_2
X_16398_ u0.tmp_w\[14\] _07649_ _07650_ VDD VSS gf180mcu_fd_sc_mcu9t5v0__xor2_2
X_16399_ _07648_ _07650_ _07651_ VDD VSS gf180mcu_fd_sc_mcu9t5v0__xor2_2
X_16400_ _07651_ _07542_ _07652_ VDD VSS gf180mcu_fd_sc_mcu9t5v0__and2_2
X_16401_ _07596_ net121 _07653_ VDD VSS gf180mcu_fd_sc_mcu9t5v0__nor2_2
X_16402_ _07652_ _07653_ _07654_ VDD VSS gf180mcu_fd_sc_mcu9t5v0__nor2_4
X_16403_ _07654_ _00388_ VDD VSS gf180mcu_fd_sc_mcu9t5v0__clkbuf_8
X_16404_ u0.w\[1\]\[15\] u0.subword\[15\] _07655_ VDD VSS
+ gf180mcu_fd_sc_mcu9t5v0__xor2_2
X_16405_ u0.w\[0\]\[15\] u0.w\[2\]\[15\] _07656_ VDD VSS gf180mcu_fd_sc_mcu9t5v0__xnor2_2
X_16406_ u0.tmp_w\[15\] _07655_ _07656_ _07657_ VDD VSS gf180mcu_fd_sc_mcu9t5v0__xor3_2
X_16407_ _07657_ _07596_ _07658_ VDD VSS gf180mcu_fd_sc_mcu9t5v0__and2_2
X_16408_ _07596_ net122 _07659_ VDD VSS gf180mcu_fd_sc_mcu9t5v0__nor2_2
X_16409_ _07658_ _07659_ _07660_ VDD VSS gf180mcu_fd_sc_mcu9t5v0__nor2_4
X_16410_ _07660_ _00389_ VDD VSS gf180mcu_fd_sc_mcu9t5v0__clkbuf_8
X_16411_ u0.w\[1\]\[22\] u0.subword\[22\] _07661_ VDD VSS
+ gf180mcu_fd_sc_mcu9t5v0__xor2_2
X_16412_ u0.w\[0\]\[22\] u0.w\[2\]\[22\] _07662_ VDD VSS gf180mcu_fd_sc_mcu9t5v0__xnor2_2
X_16413_ u0.tmp_w\[22\] _07661_ _07662_ _07663_ VDD VSS gf180mcu_fd_sc_mcu9t5v0__xor3_2
X_16414_ _07663_ _07542_ _07664_ VDD VSS gf180mcu_fd_sc_mcu9t5v0__and2_2
X_16415_ _07542_ net130 _07665_ VDD VSS gf180mcu_fd_sc_mcu9t5v0__nor2_2
X_16416_ _07664_ _07665_ _07666_ VDD VSS gf180mcu_fd_sc_mcu9t5v0__nor2_4
X_16417_ _07666_ _00393_ VDD VSS gf180mcu_fd_sc_mcu9t5v0__clkbuf_8
X_16418_ u0.w\[1\]\[23\] u0.subword\[23\] _07667_ VDD VSS
+ gf180mcu_fd_sc_mcu9t5v0__xor2_2
X_16419_ u0.w\[0\]\[23\] u0.w\[2\]\[23\] _07668_ VDD VSS gf180mcu_fd_sc_mcu9t5v0__xnor2_2
X_16420_ u0.tmp_w\[23\] _07667_ _07668_ _07669_ VDD VSS gf180mcu_fd_sc_mcu9t5v0__xor3_2
X_16421_ _07669_ _07596_ _07670_ VDD VSS gf180mcu_fd_sc_mcu9t5v0__and2_2
X_16422_ _07596_ net131 _07671_ VDD VSS gf180mcu_fd_sc_mcu9t5v0__nor2_2
X_16423_ _07670_ _07671_ _00394_ VDD VSS gf180mcu_fd_sc_mcu9t5v0__nor2_4
X_16424_ u0.w\[0\]\[24\] _07672_ VDD VSS gf180mcu_fd_sc_mcu9t5v0__inv_4
X_16425_ u0.r0.out\[24\] u0.w\[2\]\[24\] _07673_ VDD VSS gf180mcu_fd_sc_mcu9t5v0__xor2_2
X_16426_ _07672_ _07673_ _07674_ VDD VSS gf180mcu_fd_sc_mcu9t5v0__xor2_2
X_16427_ u0.w\[1\]\[24\] u0.subword\[24\] _07675_ VDD VSS
+ gf180mcu_fd_sc_mcu9t5v0__xor2_2
X_16428_ _07675_ u0.tmp_w\[24\] _07676_ VDD VSS gf180mcu_fd_sc_mcu9t5v0__xor2_2
X_16429_ _07676_ _07674_ _07677_ VDD VSS gf180mcu_fd_sc_mcu9t5v0__or2_4
X_16430_ _07674_ _07676_ _07678_ VDD VSS gf180mcu_fd_sc_mcu9t5v0__nand2_2
X_16431_ _07677_ _07678_ _07679_ VDD VSS gf180mcu_fd_sc_mcu9t5v0__nand2_4
X_16432_ _07437_ net132 _07680_ VDD VSS gf180mcu_fd_sc_mcu9t5v0__and2_2
X_16433_ net764 _07542_ _07680_ _15645_ VDD VSS gf180mcu_fd_sc_mcu9t5v0__aoi21_4
X_16434_ u0.w\[2\]\[25\] u0.w\[0\]\[25\] _07681_ VDD VSS gf180mcu_fd_sc_mcu9t5v0__xor2_2
X_16435_ u0.r0.out\[25\] _07681_ _07682_ VDD VSS gf180mcu_fd_sc_mcu9t5v0__xor2_2
X_16436_ u0.tmp_w\[25\] u0.w\[1\]\[25\] _07683_ VDD VSS gf180mcu_fd_sc_mcu9t5v0__xor2_2
X_16437_ u0.subword\[25\] _07683_ _07684_ VDD VSS gf180mcu_fd_sc_mcu9t5v0__xor2_2
X_16438_ _07682_ _07684_ _07685_ VDD VSS gf180mcu_fd_sc_mcu9t5v0__and2_4
X_16439_ _07682_ _07684_ _07686_ VDD VSS gf180mcu_fd_sc_mcu9t5v0__nor2_4
X_16440_ _07685_ _07686_ _07467_ _07687_ VDD VSS gf180mcu_fd_sc_mcu9t5v0__oai21_4
X_16441_ _07467_ net133 _07688_ VDD VSS gf180mcu_fd_sc_mcu9t5v0__or2_2
X_16442_ _07687_ _07688_ _15650_ VDD VSS gf180mcu_fd_sc_mcu9t5v0__nand2_4
X_16443_ u0.w\[0\]\[26\] _07689_ VDD VSS gf180mcu_fd_sc_mcu9t5v0__inv_2
X_16444_ u0.w\[2\]\[26\] u0.r0.out\[26\] _07690_ VDD VSS gf180mcu_fd_sc_mcu9t5v0__xor2_2
X_16445_ _07689_ _07690_ _07691_ VDD VSS gf180mcu_fd_sc_mcu9t5v0__xor2_2
X_16446_ u0.w\[1\]\[26\] u0.subword\[26\] _07692_ VDD VSS
+ gf180mcu_fd_sc_mcu9t5v0__xor2_2
X_16447_ u0.tmp_w\[26\] _07692_ _07693_ VDD VSS gf180mcu_fd_sc_mcu9t5v0__xor2_2
X_16448_ _07693_ _07691_ _07694_ VDD VSS gf180mcu_fd_sc_mcu9t5v0__xor2_2
X_16449_ _07694_ _07286_ _07695_ VDD VSS gf180mcu_fd_sc_mcu9t5v0__nand2_4
X_16450_ _07286_ net134 _07696_ VDD VSS gf180mcu_fd_sc_mcu9t5v0__or2_2
X_16451_ _07696_ _07695_ _07697_ VDD VSS gf180mcu_fd_sc_mcu9t5v0__nand2_4
X_16452_ _07697_ _15664_ VDD VSS gf180mcu_fd_sc_mcu9t5v0__buf_8
X_16453_ u0.w\[0\]\[27\] u0.w\[2\]\[27\] _07698_ VDD VSS gf180mcu_fd_sc_mcu9t5v0__xor2_2
X_16454_ u0.r0.out\[27\] _07698_ _07699_ VDD VSS gf180mcu_fd_sc_mcu9t5v0__xor2_2
X_16455_ u0.tmp_w\[27\] u0.w\[1\]\[27\] _07700_ VDD VSS gf180mcu_fd_sc_mcu9t5v0__xor2_2
X_16456_ u0.subword\[27\] _07700_ _07701_ VDD VSS gf180mcu_fd_sc_mcu9t5v0__xor2_2
X_16457_ _07699_ _07701_ _07702_ VDD VSS gf180mcu_fd_sc_mcu9t5v0__and2_2
X_16458_ _07699_ _07701_ _07703_ VDD VSS gf180mcu_fd_sc_mcu9t5v0__nor2_2
X_16459_ _07702_ net216 _07703_ _07704_ VDD VSS gf180mcu_fd_sc_mcu9t5v0__or3_2
X_16460_ net216 net135 _07705_ VDD VSS gf180mcu_fd_sc_mcu9t5v0__nand2_4
X_16461_ _07705_ _07704_ _07706_ VDD VSS gf180mcu_fd_sc_mcu9t5v0__nand2_4
X_16462_ net825 _07707_ VDD VSS gf180mcu_fd_sc_mcu9t5v0__clkbuf_8
X_16463_ _07707_ _00395_ VDD VSS gf180mcu_fd_sc_mcu9t5v0__buf_4
X_16464_ u0.w\[0\]\[28\] u0.w\[2\]\[28\] _07708_ VDD VSS gf180mcu_fd_sc_mcu9t5v0__xor2_2
X_16465_ u0.r0.out\[28\] _07708_ _07709_ VDD VSS gf180mcu_fd_sc_mcu9t5v0__xor2_2
X_16466_ u0.tmp_w\[28\] u0.w\[1\]\[28\] _07710_ VDD VSS gf180mcu_fd_sc_mcu9t5v0__xor2_2
X_16467_ u0.subword\[28\] _07710_ _07711_ VDD VSS gf180mcu_fd_sc_mcu9t5v0__xor2_2
X_16468_ _07709_ _07711_ _07712_ VDD VSS gf180mcu_fd_sc_mcu9t5v0__and2_2
X_16469_ _07709_ _07711_ _07713_ VDD VSS gf180mcu_fd_sc_mcu9t5v0__nor2_2
X_16470_ _07712_ _07713_ _07404_ _07714_ VDD VSS gf180mcu_fd_sc_mcu9t5v0__oai21_2
X_16471_ _07467_ net136 _07715_ VDD VSS gf180mcu_fd_sc_mcu9t5v0__or2_2
X_16472_ _07714_ _07715_ _07716_ VDD VSS gf180mcu_fd_sc_mcu9t5v0__nand2_4
X_16473_ _07716_ _07717_ VDD VSS gf180mcu_fd_sc_mcu9t5v0__inv_3
X_16474_ _07717_ _00396_ VDD VSS gf180mcu_fd_sc_mcu9t5v0__buf_4
X_16475_ u0.w\[0\]\[29\] u0.w\[2\]\[29\] _07718_ VDD VSS gf180mcu_fd_sc_mcu9t5v0__xor2_2
X_16476_ u0.r0.out\[29\] _07718_ _07719_ VDD VSS gf180mcu_fd_sc_mcu9t5v0__xor2_2
X_16477_ u0.tmp_w\[29\] u0.w\[1\]\[29\] _07720_ VDD VSS gf180mcu_fd_sc_mcu9t5v0__xor2_2
X_16478_ u0.subword\[29\] _07720_ _07721_ VDD VSS gf180mcu_fd_sc_mcu9t5v0__xor2_2
X_16479_ _07719_ _07721_ _07722_ VDD VSS gf180mcu_fd_sc_mcu9t5v0__and2_2
X_16480_ _07719_ _07721_ _07723_ VDD VSS gf180mcu_fd_sc_mcu9t5v0__nor2_2
X_16481_ _07722_ _07723_ _07468_ _07724_ VDD VSS gf180mcu_fd_sc_mcu9t5v0__oai21_2
X_16482_ _07404_ net137 _07725_ VDD VSS gf180mcu_fd_sc_mcu9t5v0__or2_2
X_16483_ _07724_ _07725_ _07726_ VDD VSS gf180mcu_fd_sc_mcu9t5v0__nand2_4
X_16484_ _07726_ _07727_ VDD VSS gf180mcu_fd_sc_mcu9t5v0__inv_3
X_16485_ _07727_ _00397_ VDD VSS gf180mcu_fd_sc_mcu9t5v0__clkbuf_8
X_16486_ u0.w\[0\]\[30\] u0.w\[2\]\[30\] u0.r0.out\[30\] _07728_
+ VDD VSS gf180mcu_fd_sc_mcu9t5v0__xor3_2
X_16487_ u0.w\[1\]\[30\] _07729_ VDD VSS gf180mcu_fd_sc_mcu9t5v0__clkinv_3
X_16488_ u0.tmp_w\[30\] u0.subword\[30\] _07729_ _07730_ VDD
+ VSS gf180mcu_fd_sc_mcu9t5v0__xor3_2
X_16489_ _07728_ _07730_ _07731_ VDD VSS gf180mcu_fd_sc_mcu9t5v0__xor2_2
X_16490_ net139 _07732_ VDD VSS gf180mcu_fd_sc_mcu9t5v0__clkinv_2
X_16491_ _07437_ _07733_ VDD VSS gf180mcu_fd_sc_mcu9t5v0__buf_8
X_16492_ _07732_ _07733_ _07734_ VDD VSS gf180mcu_fd_sc_mcu9t5v0__and2_2
X_16493_ _07731_ _07542_ _07734_ _07735_ VDD VSS gf180mcu_fd_sc_mcu9t5v0__aoi21_4
X_16494_ _07735_ _00398_ VDD VSS gf180mcu_fd_sc_mcu9t5v0__buf_4
X_16495_ u0.w\[0\]\[31\] u0.w\[2\]\[31\] _07736_ VDD VSS gf180mcu_fd_sc_mcu9t5v0__xor2_2
X_16496_ u0.r0.out\[31\] _07736_ _07737_ VDD VSS gf180mcu_fd_sc_mcu9t5v0__xor2_2
X_16497_ u0.w\[1\]\[31\] u0.subword\[31\] _07737_ _07738_
+ VDD VSS gf180mcu_fd_sc_mcu9t5v0__xor3_2
X_16498_ u0.tmp_w\[31\] _07739_ VDD VSS gf180mcu_fd_sc_mcu9t5v0__inv_4
X_16499_ _07738_ _07739_ _07740_ VDD VSS gf180mcu_fd_sc_mcu9t5v0__or2_2
X_16500_ _07738_ _07739_ _07741_ VDD VSS gf180mcu_fd_sc_mcu9t5v0__nand2_2
X_16501_ _07740_ _07596_ _07741_ _07742_ VDD VSS gf180mcu_fd_sc_mcu9t5v0__and3_2
X_16502_ _07596_ net140 _07743_ VDD VSS gf180mcu_fd_sc_mcu9t5v0__nor2_2
X_16503_ _07742_ _07743_ _07744_ VDD VSS gf180mcu_fd_sc_mcu9t5v0__or2_2
X_16504_ _07744_ _00399_ VDD VSS gf180mcu_fd_sc_mcu9t5v0__clkinv_4
X_16505_ _07539_ _07538_ _07745_ VDD VSS gf180mcu_fd_sc_mcu9t5v0__xnor2_2
X_16506_ _07733_ _07746_ VDD VSS gf180mcu_fd_sc_mcu9t5v0__buf_8
X_16507_ _07746_ _07747_ VDD VSS gf180mcu_fd_sc_mcu9t5v0__buf_8
X_16508_ _07745_ net141 _07747_ _00353_ VDD VSS gf180mcu_fd_sc_mcu9t5v0__mux2_2
X_16509_ _07548_ _07547_ _07748_ VDD VSS gf180mcu_fd_sc_mcu9t5v0__xnor2_2
X_16510_ _07748_ net142 _07747_ _00364_ VDD VSS gf180mcu_fd_sc_mcu9t5v0__mux2_2
X_16511_ _07557_ _07555_ _07749_ VDD VSS gf180mcu_fd_sc_mcu9t5v0__xnor2_2
X_16512_ _07749_ net143 _07747_ _00375_ VDD VSS gf180mcu_fd_sc_mcu9t5v0__mux2_2
X_16513_ _07565_ _07564_ _07750_ VDD VSS gf180mcu_fd_sc_mcu9t5v0__xnor2_2
X_16514_ _07746_ _07751_ VDD VSS gf180mcu_fd_sc_mcu9t5v0__buf_8
X_16515_ _07750_ net144 _07751_ _00378_ VDD VSS gf180mcu_fd_sc_mcu9t5v0__mux2_2
X_16516_ _07574_ _07573_ _07752_ VDD VSS gf180mcu_fd_sc_mcu9t5v0__xnor2_2
X_16517_ _07752_ net145 _07751_ _00379_ VDD VSS gf180mcu_fd_sc_mcu9t5v0__mux2_2
X_16518_ _07581_ _07580_ _07753_ VDD VSS gf180mcu_fd_sc_mcu9t5v0__xnor2_2
X_16519_ _07753_ net146 _07751_ _00380_ VDD VSS gf180mcu_fd_sc_mcu9t5v0__mux2_2
X_16520_ _07587_ _07588_ _07754_ VDD VSS gf180mcu_fd_sc_mcu9t5v0__xnor2_2
X_16521_ _07754_ net147 _07751_ _00381_ VDD VSS gf180mcu_fd_sc_mcu9t5v0__mux2_2
X_16522_ _07592_ _07593_ _07755_ VDD VSS gf180mcu_fd_sc_mcu9t5v0__xnor2_2
X_16523_ _07755_ net148 _07751_ _00382_ VDD VSS gf180mcu_fd_sc_mcu9t5v0__mux2_2
X_16524_ _07599_ _07598_ _07756_ VDD VSS gf180mcu_fd_sc_mcu9t5v0__xnor2_2
X_16525_ _07756_ net150 _07751_ _00383_ VDD VSS gf180mcu_fd_sc_mcu9t5v0__mux2_2
X_16526_ _07607_ _07606_ _07757_ VDD VSS gf180mcu_fd_sc_mcu9t5v0__xnor2_2
X_16527_ _07757_ net151 _07751_ _00384_ VDD VSS gf180mcu_fd_sc_mcu9t5v0__mux2_2
X_16528_ _07616_ _07614_ _07758_ VDD VSS gf180mcu_fd_sc_mcu9t5v0__xnor2_2
X_16529_ _07758_ net152 _07751_ _00354_ VDD VSS gf180mcu_fd_sc_mcu9t5v0__mux2_2
X_16530_ _07624_ _07623_ _07759_ VDD VSS gf180mcu_fd_sc_mcu9t5v0__xnor2_2
X_16531_ _07759_ net153 _07751_ _00355_ VDD VSS gf180mcu_fd_sc_mcu9t5v0__mux2_2
X_16532_ _07633_ _07632_ _07760_ VDD VSS gf180mcu_fd_sc_mcu9t5v0__xnor2_2
X_16533_ _07760_ net154 _07751_ _00356_ VDD VSS gf180mcu_fd_sc_mcu9t5v0__mux2_2
X_16534_ _07642_ _07641_ _07761_ VDD VSS gf180mcu_fd_sc_mcu9t5v0__xnor2_2
X_16535_ _07746_ _07762_ VDD VSS gf180mcu_fd_sc_mcu9t5v0__clkbuf_8
X_16536_ _07761_ net155 _07762_ _00357_ VDD VSS gf180mcu_fd_sc_mcu9t5v0__mux2_2
X_16537_ _07649_ _07648_ _07763_ VDD VSS gf180mcu_fd_sc_mcu9t5v0__xnor2_2
X_16538_ _07763_ net156 _07762_ _00358_ VDD VSS gf180mcu_fd_sc_mcu9t5v0__mux2_2
X_16539_ _07655_ _07656_ _07764_ VDD VSS gf180mcu_fd_sc_mcu9t5v0__xnor2_2
X_16540_ _07764_ net157 _07762_ _00359_ VDD VSS gf180mcu_fd_sc_mcu9t5v0__mux2_2
X_16541_ _07372_ _07361_ _07765_ VDD VSS gf180mcu_fd_sc_mcu9t5v0__xnor2_2
X_16542_ _07765_ net158 _07762_ _00360_ VDD VSS gf180mcu_fd_sc_mcu9t5v0__mux2_2
X_16543_ _07464_ _07463_ _07766_ VDD VSS gf180mcu_fd_sc_mcu9t5v0__xnor2_2
X_16544_ _07766_ net159 _07762_ _00361_ VDD VSS gf180mcu_fd_sc_mcu9t5v0__mux2_2