
* cell gray_counter
* pin binary_out[1]
* pin enable
* pin binary_out[2]
* pin binary_out[0]
* pin direction
* pin load
* pin data_in[1]
* pin data_in[0]
* pin gray_out[1]
* pin data_in[2]
* pin binary_out[3]
* pin clk
* pin gray_out[3]
* pin rst_n
* pin gray_out[0]
* pin data_in[3]
* pin gray_out[2]
.SUBCKT gray_counter 1 2 3 17 23 26 37 38 47 50 58 69 77 83 84 85 86
* net 1 binary_out[1]
* net 2 enable
* net 3 binary_out[2]
* net 17 binary_out[0]
* net 23 direction
* net 26 load
* net 37 data_in[1]
* net 38 data_in[0]
* net 47 gray_out[1]
* net 50 data_in[2]
* net 58 binary_out[3]
* net 69 clk
* net 77 gray_out[3]
* net 83 rst_n
* net 84 gray_out[0]
* net 85 data_in[3]
* net 86 gray_out[2]
* cell instance $3 r0 *1 45.54,2.72
X$3 4 7 1 5 4 5 sky130_fd_sc_hd__clkbuf_1
* cell instance $6 m0 *1 50.14,40.8
X$6 4 2 5 13 4 5 sky130_fd_sc_hd__buf_2
* cell instance $8 r0 *1 52.44,2.72
X$8 4 6 3 5 4 5 sky130_fd_sc_hd__clkbuf_1
* cell instance $19 r0 *1 1.84,46.24
X$19 4 26 4 5 28 5 sky130_fd_sc_hd__clkbuf_2
* cell instance $24 r0 *1 6.9,46.24
X$24 5 33 37 4 4 5 sky130_fd_sc_hd__dlymetal6s2s_1
* cell instance $30 r0 *1 24.84,46.24
X$30 4 28 33 42 4 5 5 sky130_fd_sc_hd__nand2_1
* cell instance $31 r0 *1 26.22,46.24
X$31 4 28 29 42 4 19 5 5 sky130_fd_sc_hd__o21ai_0
* cell instance $32 r0 *1 28.06,46.24
X$32 4 28 30 40 4 34 5 5 sky130_fd_sc_hd__o21ai_0
* cell instance $33 r0 *1 29.9,46.24
X$33 5 35 10 4 4 5 sky130_fd_sc_hd__clkbuf_8
* cell instance $36 r0 *1 36.34,46.24
X$36 4 18 13 30 4 5 5 sky130_fd_sc_hd__xnor2_1
* cell instance $43 r0 *1 44.62,46.24
X$43 4 13 31 4 5 5 sky130_fd_sc_hd__clkinv_2
* cell instance $44 r0 *1 46.46,46.24
X$44 4 36 31 6 5 4 44 5 sky130_fd_sc_hd__a21oi_1
* cell instance $45 r0 *1 48.3,46.24
X$45 4 31 21 36 5 4 5 sky130_fd_sc_hd__nor2_1
* cell instance $48 r0 *1 52.44,46.24
X$48 4 9 4 5 32 5 sky130_fd_sc_hd__inv_1
* cell instance $49 r0 *1 53.82,46.24
X$49 4 32 27 20 5 4 43 5 sky130_fd_sc_hd__a21oi_1
* cell instance $70 m0 *1 14.26,51.68
X$70 4 38 45 5 4 5 sky130_fd_sc_hd__clkbuf_1
* cell instance $75 m0 *1 25.76,51.68
X$75 4 39 33 4 54 5 5 sky130_fd_sc_hd__xor2_1
* cell instance $78 m0 *1 29.44,51.68
X$78 4 28 45 40 4 5 5 sky130_fd_sc_hd__nand2_1
* cell instance $79 m0 *1 30.82,51.68
X$79 4 28 49 4 5 5 sky130_fd_sc_hd__clkinv_2
* cell instance $82 m0 *1 35.42,51.68
X$82 4 28 39 41 4 5 5 sky130_fd_sc_hd__nand2_1
* cell instance $83 m0 *1 36.8,51.68
X$83 4 28 44 41 4 11 5 5 sky130_fd_sc_hd__o21ai_0
* cell instance $85 m0 *1 42.32,51.68
X$85 4 21 22 56 4 5 5 sky130_fd_sc_hd__xnor2_1
* cell instance $90 m0 *1 54.28,51.68
X$90 5 27 46 32 20 4 4 5 sky130_fd_sc_hd__and3_1
* cell instance $117 r0 *1 6.44,51.68
X$117 4 48 47 5 4 5 sky130_fd_sc_hd__clkbuf_1
* cell instance $119 r0 *1 9.66,51.68
X$119 4 50 4 5 39 5 sky130_fd_sc_hd__clkbuf_2
* cell instance $126 r0 *1 25.3,51.68
X$126 4 33 45 4 59 5 5 sky130_fd_sc_hd__xor2_1
* cell instance $128 r0 *1 29.44,51.68
X$128 4 49 54 55 5 4 5 sky130_fd_sc_hd__nor2_1
* cell instance $129 r0 *1 30.82,51.68
X$129 4 55 49 51 5 4 60 5 sky130_fd_sc_hd__a21oi_1
* cell instance $132 r0 *1 34.04,51.68
X$132 5 51 48 56 13 4 4 5 sky130_fd_sc_hd__mux2i_1
* cell instance $133 r0 *1 37.72,51.68
X$133 5 69 35 4 4 5 sky130_fd_sc_hd__clkbuf_8
* cell instance $135 r0 *1 43.24,51.68
X$135 4 31 24 62 5 4 5 sky130_fd_sc_hd__nor2_1
* cell instance $137 r0 *1 45.08,51.68
X$137 4 49 13 52 46 43 4 64 5 5 sky130_fd_sc_hd__o2111ai_1
* cell instance $138 r0 *1 48.3,51.68
X$138 4 21 53 52 4 5 5 sky130_fd_sc_hd__xnor2_1
* cell instance $139 r0 *1 51.52,51.68
X$139 4 31 53 43 46 75 4 5 5 sky130_fd_sc_hd__or4_1
* cell instance $154 r0 *1 94.76,51.68
X$154 4 53 58 5 4 5 sky130_fd_sc_hd__clkbuf_1
* cell instance $168 m0 *1 29.44,57.12
X$168 5 12 48 10 60 4 4 5 sky130_fd_sc_hd__dfrtp_1
* cell instance $172 m0 *1 41.86,57.12
X$172 4 62 31 63 5 4 61 5 sky130_fd_sc_hd__a21oi_1
* cell instance $175 m0 *1 45.08,57.12
X$175 4 57 64 68 76 4 5 5 sky130_fd_sc_hd__nand3_1
* cell instance $176 m0 *1 46.92,57.12
X$176 4 43 46 65 52 57 4 5 5 sky130_fd_sc_hd__or4_1
* cell instance $177 m0 *1 49.68,57.12
X$177 4 49 13 65 4 5 5 sky130_fd_sc_hd__nand2_1
* cell instance $180 m0 *1 53.36,57.12
X$180 4 31 43 46 53 4 5 67 5 sky130_fd_sc_hd__o31ai_1
* cell instance $199 m0 *1 94.76,57.12
X$199 4 53 72 5 4 5 sky130_fd_sc_hd__clkbuf_1
* cell instance $380 r0 *1 41.4,62.56
X$380 4 74 87 5 4 5 sky130_fd_sc_hd__clkbuf_1
* cell instance $382 r0 *1 43.24,62.56
X$382 5 35 74 4 4 5 sky130_fd_sc_hd__clkbuf_8
* cell instance $416 m0 *1 38.64,68
X$416 4 82 5 12 4 5 sky130_fd_sc_hd__buf_2
* cell instance $455 r0 *1 34.04,57.12
X$455 4 49 59 73 5 4 5 sky130_fd_sc_hd__nor2_1
* cell instance $457 r0 *1 36.34,57.12
X$457 4 73 49 61 5 4 78 5 sky130_fd_sc_hd__a21oi_1
* cell instance $460 r0 *1 39.56,57.12
X$460 4 70 39 80 4 5 5 sky130_fd_sc_hd__xnor2_1
* cell instance $462 r0 *1 43.24,57.12
X$462 4 66 31 49 79 5 4 68 5 sky130_fd_sc_hd__a31oi_1
* cell instance $463 r0 *1 45.54,57.12
X$463 5 12 66 74 76 4 4 5 sky130_fd_sc_hd__dfrtp_1
* cell instance $464 r0 *1 54.74,57.12
X$464 4 75 67 49 71 5 4 81 5 sky130_fd_sc_hd__a31oi_1
* cell instance $465 r0 *1 57.04,57.12
X$465 4 49 70 71 5 4 5 sky130_fd_sc_hd__nor2_1
* cell instance $479 r0 *1 94.3,57.12
X$479 4 72 77 5 4 5 sky130_fd_sc_hd__clkbuf_1
* cell instance $496 m0 *1 34.96,62.56
X$496 5 12 63 74 78 4 4 5 sky130_fd_sc_hd__dfrtp_1
* cell instance $498 m0 *1 44.62,62.56
X$498 4 49 80 79 5 4 5 sky130_fd_sc_hd__nor2_1
* cell instance $500 m0 *1 46.92,62.56
X$500 5 12 53 74 81 4 4 5 sky130_fd_sc_hd__dfrtp_2
* cell instance $817 m0 *1 53.36,95.2
X$817 4 66 86 5 4 5 sky130_fd_sc_hd__clkbuf_1
* cell instance $861 r0 *1 46.46,95.2
X$861 4 63 84 5 4 5 sky130_fd_sc_hd__clkbuf_1
* cell instance $864 r0 *1 51.98,95.2
X$864 5 70 85 4 4 5 sky130_fd_sc_hd__dlymetal6s2s_1
* cell instance $908 r0 *1 39.1,84.32
X$908 4 83 4 82 5 5 sky130_fd_sc_hd__dlygate4sd3_1
* cell instance $1228 r0 *1 28.06,40.8
X$1228 5 12 7 10 19 4 4 5 sky130_fd_sc_hd__dfrtp_2
* cell instance $1234 r0 *1 45.08,40.8
X$1234 5 21 25 16 4 4 5 sky130_fd_sc_hd__xnor2_2
* cell instance $1235 r0 *1 51.06,40.8
X$1235 5 16 14 6 9 4 4 5 sky130_fd_sc_hd__ha_1
* cell instance $1236 r0 *1 55.66,40.8
X$1236 4 14 16 15 5 4 20 5 sky130_fd_sc_hd__a21oi_1
* cell instance $1246 r0 *1 82.8,40.8
X$1246 4 18 17 5 4 5 sky130_fd_sc_hd__clkbuf_1
* cell instance $1266 m0 *1 29.44,46.24
X$1266 5 12 18 10 34 4 4 5 sky130_fd_sc_hd__dfrtp_4
* cell instance $1267 m0 *1 40.02,46.24
X$1267 4 22 18 4 24 5 5 sky130_fd_sc_hd__xor2_1
* cell instance $1269 m0 *1 43.7,46.24
X$1269 5 29 7 22 13 4 4 5 sky130_fd_sc_hd__mux2i_1
* cell instance $1270 m0 *1 47.38,46.24
X$1270 5 25 9 22 18 7 4 4 5 sky130_fd_sc_hd__fa_2
* cell instance $1276 m0 *1 57.04,46.24
X$1276 4 18 16 8 27 4 5 5 sky130_fd_sc_hd__nand3_1
* cell instance $1292 m0 *1 86.94,46.24
X$1292 4 23 4 5 9 5 sky130_fd_sc_hd__clkbuf_2
* cell instance $1401 m0 *1 36.8,40.8
X$1401 5 12 6 10 11 4 4 5 sky130_fd_sc_hd__dfrtp_1
* cell instance $1411 m0 *1 51.98,40.8
X$1411 5 8 15 7 9 4 4 5 sky130_fd_sc_hd__ha_1
.ENDS gray_counter

* cell sky130_fd_sc_hd__ha_1
* pin VGND
* pin SUM
* pin COUT
* pin A
* pin B
* pin VPWR
* pin VPB
* pin 
.SUBCKT sky130_fd_sc_hd__ha_1 1 2 5 8 9 10 11 13
* net 1 VGND
* net 2 SUM
* net 5 COUT
* net 8 A
* net 9 B
* net 10 VPWR
* net 11 VPB
* device instance $1 r0 *1 0.47,1.985 pfet_01v8_hvt
M$1 10 3 2 11 pfet_01v8_hvt L=150000U W=1000000U AS=260000000000P
+ AD=236050000000P PS=2520000U PD=1765000U
* device instance $2 r0 *1 1.385,2.275 pfet_01v8_hvt
M$2 3 7 10 11 pfet_01v8_hvt L=150000U W=420000U AS=236050000000P
+ AD=56700000000P PS=1765000U PD=690000U
* device instance $3 r0 *1 1.805,2.275 pfet_01v8_hvt
M$3 12 9 3 11 pfet_01v8_hvt L=150000U W=420000U AS=56700000000P AD=84000000000P
+ PS=690000U PD=820000U
* device instance $4 r0 *1 2.355,2.275 pfet_01v8_hvt
M$4 10 8 12 11 pfet_01v8_hvt L=150000U W=420000U AS=84000000000P
+ AD=149100000000P PS=820000U PD=1130000U
* device instance $5 r0 *1 3.215,2.275 pfet_01v8_hvt
M$5 7 9 10 11 pfet_01v8_hvt L=150000U W=420000U AS=149100000000P
+ AD=60900000000P PS=1130000U PD=710000U
* device instance $6 r0 *1 3.655,2.275 pfet_01v8_hvt
M$6 7 8 10 11 pfet_01v8_hvt L=150000U W=420000U AS=140750000000P
+ AD=60900000000P PS=1325000U PD=710000U
* device instance $7 r0 *1 4.13,1.985 pfet_01v8_hvt
M$7 5 7 10 11 pfet_01v8_hvt L=150000U W=1000000U AS=140750000000P
+ AD=260000000000P PS=1325000U PD=2520000U
* device instance $8 r0 *1 3.295,0.445 nfet_01v8
M$8 6 9 7 13 nfet_01v8 L=150000U W=420000U AS=109200000000P AD=44100000000P
+ PS=1360000U PD=630000U
* device instance $9 r0 *1 3.655,0.445 nfet_01v8
M$9 1 8 6 13 nfet_01v8 L=150000U W=420000U AS=44100000000P AD=97000000000P
+ PS=630000U PD=975000U
* device instance $10 r0 *1 4.13,0.56 nfet_01v8
M$10 5 7 1 13 nfet_01v8 L=150000U W=650000U AS=97000000000P AD=169000000000P
+ PS=975000U PD=1820000U
* device instance $11 r0 *1 1.41,0.445 nfet_01v8
M$11 4 7 3 13 nfet_01v8 L=150000U W=420000U AS=109200000000P AD=56700000000P
+ PS=1360000U PD=690000U
* device instance $12 r0 *1 1.83,0.445 nfet_01v8
M$12 1 9 4 13 nfet_01v8 L=150000U W=420000U AS=56700000000P AD=56700000000P
+ PS=690000U PD=690000U
* device instance $13 r0 *1 2.25,0.445 nfet_01v8
M$13 4 8 1 13 nfet_01v8 L=150000U W=420000U AS=56700000000P AD=109200000000P
+ PS=690000U PD=1360000U
* device instance $14 r0 *1 0.47,0.56 nfet_01v8
M$14 1 3 2 13 nfet_01v8 L=150000U W=650000U AS=169000000000P AD=169000000000P
+ PS=1820000U PD=1820000U
.ENDS sky130_fd_sc_hd__ha_1

* cell sky130_fd_sc_hd__inv_1
* pin VPB
* pin A
* pin VPWR
* pin VGND
* pin Y
* pin 
.SUBCKT sky130_fd_sc_hd__inv_1 1 2 3 4 5 6
* net 1 VPB
* net 2 A
* net 3 VPWR
* net 4 VGND
* net 5 Y
* device instance $1 r0 *1 0.675,1.985 pfet_01v8_hvt
M$1 5 2 3 1 pfet_01v8_hvt L=150000U W=1000000U AS=260000000000P
+ AD=260000000000P PS=2520000U PD=2520000U
* device instance $2 r0 *1 0.675,0.56 nfet_01v8
M$2 5 2 4 6 nfet_01v8 L=150000U W=650000U AS=169000000000P AD=169000000000P
+ PS=1820000U PD=1820000U
.ENDS sky130_fd_sc_hd__inv_1

* cell sky130_fd_sc_hd__dfrtp_4
* pin VGND
* pin RESET_B
* pin Q
* pin CLK
* pin D
* pin VPB
* pin VPWR
* pin 
.SUBCKT sky130_fd_sc_hd__dfrtp_4 1 6 9 14 15 17 18 21
* net 1 VGND
* net 6 RESET_B
* net 9 Q
* net 14 CLK
* net 15 D
* net 17 VPB
* net 18 VPWR
* device instance $1 r0 *1 8.63,1.985 pfet_01v8_hvt
M$1 9 8 18 17 pfet_01v8_hvt L=150000U W=4000000U AS=665000000000P
+ AD=710000000000P PS=6330000U PD=6420000U
* device instance $5 r0 *1 5.35,2.065 pfet_01v8_hvt
M$5 16 5 18 17 pfet_01v8_hvt L=150000U W=840000U AS=218400000000P
+ AD=129150000000P PS=2200000U PD=1185000U
* device instance $6 r0 *1 5.845,2.275 pfet_01v8_hvt
M$6 7 2 16 17 pfet_01v8_hvt L=150000U W=420000U AS=129150000000P
+ AD=58800000000P PS=1185000U PD=700000U
* device instance $7 r0 *1 6.275,2.275 pfet_01v8_hvt
M$7 20 3 7 17 pfet_01v8_hvt L=150000U W=420000U AS=58800000000P AD=56700000000P
+ PS=700000U PD=690000U
* device instance $8 r0 *1 6.695,2.275 pfet_01v8_hvt
M$8 18 8 20 17 pfet_01v8_hvt L=150000U W=420000U AS=56700000000P
+ AD=81900000000P PS=690000U PD=810000U
* device instance $9 r0 *1 7.235,2.275 pfet_01v8_hvt
M$9 8 6 18 17 pfet_01v8_hvt L=150000U W=420000U AS=81900000000P AD=56700000000P
+ PS=810000U PD=690000U
* device instance $10 r0 *1 7.655,2.275 pfet_01v8_hvt
M$10 18 7 8 17 pfet_01v8_hvt L=150000U W=420000U AS=56700000000P
+ AD=113400000000P PS=690000U PD=1380000U
* device instance $11 r0 *1 2.225,2.275 pfet_01v8_hvt
M$11 4 15 18 17 pfet_01v8_hvt L=150000U W=420000U AS=109200000000P
+ AD=65100000000P PS=1360000U PD=730000U
* device instance $12 r0 *1 2.685,2.275 pfet_01v8_hvt
M$12 5 3 4 17 pfet_01v8_hvt L=150000U W=420000U AS=65100000000P AD=72450000000P
+ PS=730000U PD=765000U
* device instance $13 r0 *1 3.18,2.275 pfet_01v8_hvt
M$13 19 2 5 17 pfet_01v8_hvt L=150000U W=420000U AS=72450000000P
+ AD=115500000000P PS=765000U PD=970000U
* device instance $14 r0 *1 3.88,2.275 pfet_01v8_hvt
M$14 18 16 19 17 pfet_01v8_hvt L=150000U W=420000U AS=115500000000P
+ AD=70350000000P PS=970000U PD=755000U
* device instance $15 r0 *1 4.365,2.275 pfet_01v8_hvt
M$15 19 6 18 17 pfet_01v8_hvt L=150000U W=420000U AS=70350000000P
+ AD=109200000000P PS=755000U PD=1360000U
* device instance $16 r0 *1 0.47,2.135 pfet_01v8_hvt
M$16 18 14 2 17 pfet_01v8_hvt L=150000U W=640000U AS=166400000000P
+ AD=86400000000P PS=1800000U PD=910000U
* device instance $17 r0 *1 0.89,2.135 pfet_01v8_hvt
M$17 3 2 18 17 pfet_01v8_hvt L=150000U W=640000U AS=86400000000P
+ AD=166400000000P PS=910000U PD=1800000U
* device instance $18 r0 *1 8.63,0.56 nfet_01v8
M$18 9 8 1 21 nfet_01v8 L=150000U W=2600000U AS=432250000000P AD=445250000000P
+ PS=4580000U PD=4620000U
* device instance $22 r0 *1 0.47,0.445 nfet_01v8
M$22 1 14 2 21 nfet_01v8 L=150000U W=420000U AS=109200000000P AD=56700000000P
+ PS=1360000U PD=690000U
* device instance $23 r0 *1 0.89,0.445 nfet_01v8
M$23 3 2 1 21 nfet_01v8 L=150000U W=420000U AS=56700000000P AD=109200000000P
+ PS=690000U PD=1360000U
* device instance $24 r0 *1 2.64,0.415 nfet_01v8
M$24 5 2 4 21 nfet_01v8 L=150000U W=360000U AS=66000000000P AD=59400000000P
+ PS=745000U PD=690000U
* device instance $25 r0 *1 3.12,0.415 nfet_01v8
M$25 10 3 5 21 nfet_01v8 L=150000U W=360000U AS=59400000000P AD=140100000000P
+ PS=690000U PD=1100000U
* device instance $26 r0 *1 5.465,0.415 nfet_01v8
M$26 7 3 16 21 nfet_01v8 L=150000U W=360000U AS=99900000000P AD=71100000000P
+ PS=985000U PD=755000U
* device instance $27 r0 *1 6.01,0.415 nfet_01v8
M$27 13 2 7 21 nfet_01v8 L=150000U W=360000U AS=71100000000P AD=66900000000P
+ PS=755000U PD=750000U
* device instance $28 r0 *1 2.165,0.445 nfet_01v8
M$28 4 15 1 21 nfet_01v8 L=150000U W=420000U AS=220500000000P AD=66000000000P
+ PS=1890000U PD=745000U
* device instance $29 r0 *1 3.95,0.445 nfet_01v8
M$29 11 16 10 21 nfet_01v8 L=150000U W=420000U AS=140100000000P AD=44100000000P
+ PS=1100000U PD=630000U
* device instance $30 r0 *1 4.31,0.445 nfet_01v8
M$30 1 6 11 21 nfet_01v8 L=150000U W=420000U AS=44100000000P AD=134600000000P
+ PS=630000U PD=1150000U
* device instance $31 r0 *1 6.49,0.445 nfet_01v8
M$31 1 8 13 21 nfet_01v8 L=150000U W=420000U AS=66900000000P AD=124950000000P
+ PS=750000U PD=1015000U
* device instance $32 r0 *1 7.235,0.445 nfet_01v8
M$32 12 6 1 21 nfet_01v8 L=150000U W=420000U AS=124950000000P AD=64050000000P
+ PS=1015000U PD=725000U
* device instance $33 r0 *1 7.69,0.445 nfet_01v8
M$33 8 7 12 21 nfet_01v8 L=150000U W=420000U AS=64050000000P AD=109200000000P
+ PS=725000U PD=1360000U
* device instance $34 r0 *1 4.97,0.555 nfet_01v8
M$34 16 5 1 21 nfet_01v8 L=150000U W=640000U AS=134600000000P AD=99900000000P
+ PS=1150000U PD=985000U
.ENDS sky130_fd_sc_hd__dfrtp_4

* cell sky130_fd_sc_hd__clkbuf_8
* pin VGND
* pin A
* pin X
* pin VPWR
* pin VPB
* pin 
.SUBCKT sky130_fd_sc_hd__clkbuf_8 1 2 4 5 6 7
* net 1 VGND
* net 2 A
* net 4 X
* net 5 VPWR
* net 6 VPB
* device instance $1 r0 *1 0.475,1.985 pfet_01v8_hvt
M$1 3 2 5 6 pfet_01v8_hvt L=150000U W=2000000U AS=405000000000P
+ AD=280000000000P PS=3810000U PD=2560000U
* device instance $3 r0 *1 1.335,1.985 pfet_01v8_hvt
M$3 4 3 5 6 pfet_01v8_hvt L=150000U W=8000000U AS=1.12e+12P AD=1.245e+12P
+ PS=10240000U PD=11490000U
* device instance $11 r0 *1 0.475,0.445 nfet_01v8
M$11 3 2 1 7 nfet_01v8 L=150000U W=840000U AS=170100000000P AD=117600000000P
+ PS=2070000U PD=1400000U
* device instance $13 r0 *1 1.335,0.445 nfet_01v8
M$13 4 3 1 7 nfet_01v8 L=150000U W=3360000U AS=470400000000P AD=525000000000P
+ PS=5600000U PD=6280000U
.ENDS sky130_fd_sc_hd__clkbuf_8

* cell sky130_fd_sc_hd__o2111ai_1
* pin VPB
* pin D1
* pin C1
* pin B1
* pin A2
* pin A1
* pin VPWR
* pin Y
* pin VGND
* pin 
.SUBCKT sky130_fd_sc_hd__o2111ai_1 1 2 3 4 5 6 8 9 10 11
* net 1 VPB
* net 2 D1
* net 3 C1
* net 4 B1
* net 5 A2
* net 6 A1
* net 8 VPWR
* net 9 Y
* net 10 VGND
* device instance $1 r0 *1 0.67,1.985 pfet_01v8_hvt
M$1 9 2 8 1 pfet_01v8_hvt L=150000U W=1000000U AS=265000000000P
+ AD=140000000000P PS=2530000U PD=1280000U
* device instance $2 r0 *1 1.1,1.985 pfet_01v8_hvt
M$2 8 3 9 1 pfet_01v8_hvt L=150000U W=1000000U AS=140000000000P
+ AD=195000000000P PS=1280000U PD=1390000U
* device instance $3 r0 *1 1.64,1.985 pfet_01v8_hvt
M$3 9 4 8 1 pfet_01v8_hvt L=150000U W=1000000U AS=195000000000P
+ AD=202500000000P PS=1390000U PD=1405000U
* device instance $4 r0 *1 2.195,1.985 pfet_01v8_hvt
M$4 12 5 9 1 pfet_01v8_hvt L=150000U W=1000000U AS=202500000000P
+ AD=195000000000P PS=1405000U PD=1390000U
* device instance $5 r0 *1 2.735,1.985 pfet_01v8_hvt
M$5 8 6 12 1 pfet_01v8_hvt L=150000U W=1000000U AS=195000000000P
+ AD=265000000000P PS=1390000U PD=2530000U
* device instance $6 r0 *1 0.74,0.56 nfet_01v8
M$6 14 2 9 11 nfet_01v8 L=150000U W=650000U AS=172250000000P AD=68250000000P
+ PS=1830000U PD=860000U
* device instance $7 r0 *1 1.1,0.56 nfet_01v8
M$7 13 3 14 11 nfet_01v8 L=150000U W=650000U AS=68250000000P AD=126750000000P
+ PS=860000U PD=1040000U
* device instance $8 r0 *1 1.64,0.56 nfet_01v8
M$8 7 4 13 11 nfet_01v8 L=150000U W=650000U AS=126750000000P AD=131625000000P
+ PS=1040000U PD=1055000U
* device instance $9 r0 *1 2.195,0.56 nfet_01v8
M$9 10 5 7 11 nfet_01v8 L=150000U W=650000U AS=131625000000P AD=126750000000P
+ PS=1055000U PD=1040000U
* device instance $10 r0 *1 2.735,0.56 nfet_01v8
M$10 7 6 10 11 nfet_01v8 L=150000U W=650000U AS=126750000000P AD=172250000000P
+ PS=1040000U PD=1830000U
.ENDS sky130_fd_sc_hd__o2111ai_1

* cell sky130_fd_sc_hd__nand3_1
* pin VPB
* pin A
* pin B
* pin C
* pin Y
* pin VPWR
* pin VGND
* pin 
.SUBCKT sky130_fd_sc_hd__nand3_1 1 2 3 4 5 6 7 8
* net 1 VPB
* net 2 A
* net 3 B
* net 4 C
* net 5 Y
* net 6 VPWR
* net 7 VGND
* device instance $1 r0 *1 0.47,1.985 pfet_01v8_hvt
M$1 5 4 6 1 pfet_01v8_hvt L=150000U W=1000000U AS=260000000000P
+ AD=135000000000P PS=2520000U PD=1270000U
* device instance $2 r0 *1 0.89,1.985 pfet_01v8_hvt
M$2 6 3 5 1 pfet_01v8_hvt L=150000U W=1000000U AS=135000000000P
+ AD=165000000000P PS=1270000U PD=1330000U
* device instance $3 r0 *1 1.37,1.985 pfet_01v8_hvt
M$3 5 2 6 1 pfet_01v8_hvt L=150000U W=1000000U AS=165000000000P
+ AD=260000000000P PS=1330000U PD=2520000U
* device instance $4 r0 *1 0.47,0.56 nfet_01v8
M$4 10 4 7 8 nfet_01v8 L=150000U W=650000U AS=169000000000P AD=87750000000P
+ PS=1820000U PD=920000U
* device instance $5 r0 *1 0.89,0.56 nfet_01v8
M$5 9 3 10 8 nfet_01v8 L=150000U W=650000U AS=87750000000P AD=107250000000P
+ PS=920000U PD=980000U
* device instance $6 r0 *1 1.37,0.56 nfet_01v8
M$6 5 2 9 8 nfet_01v8 L=150000U W=650000U AS=107250000000P AD=169000000000P
+ PS=980000U PD=1820000U
.ENDS sky130_fd_sc_hd__nand3_1

* cell sky130_fd_sc_hd__a21oi_1
* pin VPB
* pin B1
* pin A1
* pin A2
* pin VGND
* pin VPWR
* pin Y
* pin 
.SUBCKT sky130_fd_sc_hd__a21oi_1 1 2 3 4 5 7 8 9
* net 1 VPB
* net 2 B1
* net 3 A1
* net 4 A2
* net 5 VGND
* net 7 VPWR
* net 8 Y
* device instance $1 r0 *1 0.49,1.985 pfet_01v8_hvt
M$1 6 2 8 1 pfet_01v8_hvt L=150000U W=1000000U AS=265000000000P
+ AD=140000000000P PS=2530000U PD=1280000U
* device instance $2 r0 *1 0.92,1.985 pfet_01v8_hvt
M$2 7 3 6 1 pfet_01v8_hvt L=150000U W=1000000U AS=140000000000P
+ AD=147500000000P PS=1280000U PD=1295000U
* device instance $3 r0 *1 1.365,1.985 pfet_01v8_hvt
M$3 6 4 7 1 pfet_01v8_hvt L=150000U W=1000000U AS=147500000000P
+ AD=265000000000P PS=1295000U PD=2530000U
* device instance $4 r0 *1 0.49,0.56 nfet_01v8
M$4 8 2 5 9 nfet_01v8 L=150000U W=650000U AS=172250000000P AD=91000000000P
+ PS=1830000U PD=930000U
* device instance $5 r0 *1 0.92,0.56 nfet_01v8
M$5 10 3 8 9 nfet_01v8 L=150000U W=650000U AS=91000000000P AD=95875000000P
+ PS=930000U PD=945000U
* device instance $6 r0 *1 1.365,0.56 nfet_01v8
M$6 5 4 10 9 nfet_01v8 L=150000U W=650000U AS=95875000000P AD=172250000000P
+ PS=945000U PD=1830000U
.ENDS sky130_fd_sc_hd__a21oi_1

* cell sky130_fd_sc_hd__mux2i_1
* pin VGND
* pin Y
* pin A0
* pin A1
* pin S
* pin VPWR
* pin VPB
* pin 
.SUBCKT sky130_fd_sc_hd__mux2i_1 1 3 6 7 8 10 11 13
* net 1 VGND
* net 3 Y
* net 6 A0
* net 7 A1
* net 8 S
* net 10 VPWR
* net 11 VPB
* device instance $1 r0 *1 3.21,1.985 pfet_01v8_hvt
M$1 10 8 5 11 pfet_01v8_hvt L=150000U W=1000000U AS=290000000000P
+ AD=260000000000P PS=2580000U PD=2520000U
* device instance $2 r0 *1 0.49,1.985 pfet_01v8_hvt
M$2 3 6 9 11 pfet_01v8_hvt L=150000U W=1000000U AS=280000000000P
+ AD=152500000000P PS=2560000U PD=1305000U
* device instance $3 r0 *1 0.945,1.985 pfet_01v8_hvt
M$3 12 7 3 11 pfet_01v8_hvt L=150000U W=1000000U AS=152500000000P
+ AD=197500000000P PS=1305000U PD=1395000U
* device instance $4 r0 *1 1.49,1.985 pfet_01v8_hvt
M$4 10 5 12 11 pfet_01v8_hvt L=150000U W=1000000U AS=197500000000P
+ AD=300000000000P PS=1395000U PD=1600000U
* device instance $5 r0 *1 2.24,1.985 pfet_01v8_hvt
M$5 9 8 10 11 pfet_01v8_hvt L=150000U W=1000000U AS=300000000000P
+ AD=260000000000P PS=1600000U PD=2520000U
* device instance $6 r0 *1 3.21,0.56 nfet_01v8
M$6 1 8 5 13 nfet_01v8 L=150000U W=650000U AS=169000000000P AD=169000000000P
+ PS=1820000U PD=1820000U
* device instance $7 r0 *1 1.85,0.56 nfet_01v8
M$7 1 5 2 13 nfet_01v8 L=150000U W=650000U AS=169000000000P AD=87750000000P
+ PS=1820000U PD=920000U
* device instance $8 r0 *1 2.27,0.56 nfet_01v8
M$8 4 8 1 13 nfet_01v8 L=150000U W=650000U AS=87750000000P AD=169000000000P
+ PS=920000U PD=1820000U
* device instance $9 r0 *1 0.47,0.56 nfet_01v8
M$9 3 6 2 13 nfet_01v8 L=150000U W=650000U AS=169000000000P AD=87750000000P
+ PS=1820000U PD=920000U
* device instance $10 r0 *1 0.89,0.56 nfet_01v8
M$10 4 7 3 13 nfet_01v8 L=150000U W=650000U AS=87750000000P AD=182000000000P
+ PS=920000U PD=1860000U
.ENDS sky130_fd_sc_hd__mux2i_1

* cell sky130_fd_sc_hd__clkbuf_2
* pin VPB
* pin A
* pin VPWR
* pin VGND
* pin X
* pin 
.SUBCKT sky130_fd_sc_hd__clkbuf_2 1 2 3 4 6 7
* net 1 VPB
* net 2 A
* net 3 VPWR
* net 4 VGND
* net 6 X
* device instance $1 r0 *1 0.475,1.985 pfet_01v8_hvt
M$1 3 2 5 1 pfet_01v8_hvt L=150000U W=1000000U AS=265000000000P
+ AD=162500000000P PS=2530000U PD=1325000U
* device instance $2 r0 *1 0.95,1.985 pfet_01v8_hvt
M$2 6 5 3 1 pfet_01v8_hvt L=150000U W=2000000U AS=297500000000P
+ AD=395000000000P PS=2595000U PD=3790000U
* device instance $4 r0 *1 0.475,0.445 nfet_01v8
M$4 4 2 5 7 nfet_01v8 L=150000U W=420000U AS=111300000000P AD=68250000000P
+ PS=1370000U PD=745000U
* device instance $5 r0 *1 0.95,0.445 nfet_01v8
M$5 6 5 4 7 nfet_01v8 L=150000U W=840000U AS=124950000000P AD=165900000000P
+ PS=1435000U PD=2050000U
.ENDS sky130_fd_sc_hd__clkbuf_2

* cell sky130_fd_sc_hd__dlygate4sd3_1
* pin VPB
* pin A
* pin VPWR
* pin X
* pin VGND
* pin 
.SUBCKT sky130_fd_sc_hd__dlygate4sd3_1 1 3 5 7 8 9
* net 1 VPB
* net 3 A
* net 5 VPWR
* net 7 X
* net 8 VGND
* device instance $1 r0 *1 2.465,2.275 pfet_01v8_hvt
M$1 6 2 5 1 pfet_01v8_hvt L=500000U W=420000U AS=140750000000P AD=109200000000P
+ PS=1325000U PD=1360000U
* device instance $2 r0 *1 3.115,1.985 pfet_01v8_hvt
M$2 7 6 5 1 pfet_01v8_hvt L=150000U W=1000000U AS=140750000000P
+ AD=260000000000P PS=1325000U PD=2520000U
* device instance $3 r0 *1 0.58,2.275 pfet_01v8_hvt
M$3 5 3 4 1 pfet_01v8_hvt L=150000U W=420000U AS=109200000000P AD=56700000000P
+ PS=1360000U PD=690000U
* device instance $4 r0 *1 1.175,2.275 pfet_01v8_hvt
M$4 2 4 5 1 pfet_01v8_hvt L=500000U W=420000U AS=56700000000P AD=109200000000P
+ PS=690000U PD=1360000U
* device instance $5 r0 *1 2.465,0.445 nfet_01v8
M$5 8 2 6 9 nfet_01v8 L=500000U W=420000U AS=109200000000P AD=97000000000P
+ PS=1360000U PD=975000U
* device instance $6 r0 *1 3.115,0.56 nfet_01v8
M$6 7 6 8 9 nfet_01v8 L=150000U W=650000U AS=97000000000P AD=169000000000P
+ PS=975000U PD=1820000U
* device instance $7 r0 *1 0.58,0.445 nfet_01v8
M$7 8 3 4 9 nfet_01v8 L=150000U W=420000U AS=109200000000P AD=56700000000P
+ PS=1360000U PD=690000U
* device instance $8 r0 *1 1.175,0.445 nfet_01v8
M$8 2 4 8 9 nfet_01v8 L=500000U W=420000U AS=56700000000P AD=109200000000P
+ PS=690000U PD=1360000U
.ENDS sky130_fd_sc_hd__dlygate4sd3_1

* cell sky130_fd_sc_hd__a31oi_1
* pin VPB
* pin A3
* pin A2
* pin A1
* pin B1
* pin VGND
* pin VPWR
* pin Y
* pin 
.SUBCKT sky130_fd_sc_hd__a31oi_1 1 2 3 4 5 6 8 9 10
* net 1 VPB
* net 2 A3
* net 3 A2
* net 4 A1
* net 5 B1
* net 6 VGND
* net 8 VPWR
* net 9 Y
* device instance $1 r0 *1 0.47,1.985 pfet_01v8_hvt
M$1 7 2 8 1 pfet_01v8_hvt L=150000U W=1000000U AS=260000000000P
+ AD=135000000000P PS=2520000U PD=1270000U
* device instance $2 r0 *1 0.89,1.985 pfet_01v8_hvt
M$2 8 3 7 1 pfet_01v8_hvt L=150000U W=1000000U AS=135000000000P
+ AD=152500000000P PS=1270000U PD=1305000U
* device instance $3 r0 *1 1.345,1.985 pfet_01v8_hvt
M$3 7 4 8 1 pfet_01v8_hvt L=150000U W=1000000U AS=152500000000P
+ AD=162500000000P PS=1305000U PD=1325000U
* device instance $4 r0 *1 1.82,1.985 pfet_01v8_hvt
M$4 9 5 7 1 pfet_01v8_hvt L=150000U W=1000000U AS=162500000000P
+ AD=270000000000P PS=1325000U PD=2540000U
* device instance $5 r0 *1 0.47,0.56 nfet_01v8
M$5 12 2 6 10 nfet_01v8 L=150000U W=650000U AS=169000000000P AD=68250000000P
+ PS=1820000U PD=860000U
* device instance $6 r0 *1 0.83,0.56 nfet_01v8
M$6 11 3 12 10 nfet_01v8 L=150000U W=650000U AS=68250000000P AD=118625000000P
+ PS=860000U PD=1015000U
* device instance $7 r0 *1 1.345,0.56 nfet_01v8
M$7 9 4 11 10 nfet_01v8 L=150000U W=650000U AS=118625000000P AD=105625000000P
+ PS=1015000U PD=975000U
* device instance $8 r0 *1 1.82,0.56 nfet_01v8
M$8 6 5 9 10 nfet_01v8 L=150000U W=650000U AS=105625000000P AD=175500000000P
+ PS=975000U PD=1840000U
.ENDS sky130_fd_sc_hd__a31oi_1

* cell sky130_fd_sc_hd__or4_1
* pin VPB
* pin A
* pin B
* pin C
* pin D
* pin X
* pin VPWR
* pin VGND
* pin 
.SUBCKT sky130_fd_sc_hd__or4_1 1 2 3 4 5 7 8 9 10
* net 1 VPB
* net 2 A
* net 3 B
* net 4 C
* net 5 D
* net 7 X
* net 8 VPWR
* net 9 VGND
* device instance $1 r0 *1 0.47,1.695 pfet_01v8_hvt
M$1 13 5 6 1 pfet_01v8_hvt L=150000U W=420000U AS=109200000000P AD=69300000000P
+ PS=1360000U PD=750000U
* device instance $2 r0 *1 0.95,1.695 pfet_01v8_hvt
M$2 12 4 13 1 pfet_01v8_hvt L=150000U W=420000U AS=69300000000P AD=44100000000P
+ PS=750000U PD=630000U
* device instance $3 r0 *1 1.31,1.695 pfet_01v8_hvt
M$3 11 3 12 1 pfet_01v8_hvt L=150000U W=420000U AS=44100000000P AD=69300000000P
+ PS=630000U PD=750000U
* device instance $4 r0 *1 1.79,1.695 pfet_01v8_hvt
M$4 8 2 11 1 pfet_01v8_hvt L=150000U W=420000U AS=69300000000P AD=148250000000P
+ PS=750000U PD=1340000U
* device instance $5 r0 *1 2.28,1.985 pfet_01v8_hvt
M$5 7 6 8 1 pfet_01v8_hvt L=150000U W=1000000U AS=148250000000P
+ AD=270000000000P PS=1340000U PD=2540000U
* device instance $6 r0 *1 0.47,0.475 nfet_01v8
M$6 6 5 9 10 nfet_01v8 L=150000U W=420000U AS=109200000000P AD=69300000000P
+ PS=1360000U PD=750000U
* device instance $7 r0 *1 0.95,0.475 nfet_01v8
M$7 9 4 6 10 nfet_01v8 L=150000U W=420000U AS=69300000000P AD=56700000000P
+ PS=750000U PD=690000U
* device instance $8 r0 *1 1.37,0.475 nfet_01v8
M$8 6 3 9 10 nfet_01v8 L=150000U W=420000U AS=56700000000P AD=56700000000P
+ PS=690000U PD=690000U
* device instance $9 r0 *1 1.79,0.475 nfet_01v8
M$9 6 2 9 10 nfet_01v8 L=150000U W=420000U AS=101875000000P AD=56700000000P
+ PS=990000U PD=690000U
* device instance $10 r0 *1 2.28,0.56 nfet_01v8
M$10 7 6 9 10 nfet_01v8 L=150000U W=650000U AS=101875000000P AD=175500000000P
+ PS=990000U PD=1840000U
.ENDS sky130_fd_sc_hd__or4_1

* cell sky130_fd_sc_hd__o31ai_1
* pin VPB
* pin A1
* pin A2
* pin A3
* pin B1
* pin VPWR
* pin VGND
* pin Y
* pin 
.SUBCKT sky130_fd_sc_hd__o31ai_1 1 2 3 4 5 6 7 9 10
* net 1 VPB
* net 2 A1
* net 3 A2
* net 4 A3
* net 5 B1
* net 6 VPWR
* net 7 VGND
* net 9 Y
* device instance $1 r0 *1 0.47,1.985 pfet_01v8_hvt
M$1 12 2 6 1 pfet_01v8_hvt L=150000U W=1000000U AS=260000000000P
+ AD=135000000000P PS=2520000U PD=1270000U
* device instance $2 r0 *1 0.89,1.985 pfet_01v8_hvt
M$2 11 3 12 1 pfet_01v8_hvt L=150000U W=1000000U AS=135000000000P
+ AD=135000000000P PS=1270000U PD=1270000U
* device instance $3 r0 *1 1.31,1.985 pfet_01v8_hvt
M$3 9 4 11 1 pfet_01v8_hvt L=150000U W=1000000U AS=135000000000P
+ AD=392500000000P PS=1270000U PD=1785000U
* device instance $4 r0 *1 2.245,1.985 pfet_01v8_hvt
M$4 6 5 9 1 pfet_01v8_hvt L=150000U W=1000000U AS=392500000000P
+ AD=300000000000P PS=1785000U PD=2600000U
* device instance $5 r0 *1 0.47,0.56 nfet_01v8
M$5 8 2 7 10 nfet_01v8 L=150000U W=650000U AS=169000000000P AD=87750000000P
+ PS=1820000U PD=920000U
* device instance $6 r0 *1 0.89,0.56 nfet_01v8
M$6 7 3 8 10 nfet_01v8 L=150000U W=650000U AS=87750000000P AD=87750000000P
+ PS=920000U PD=920000U
* device instance $7 r0 *1 1.31,0.56 nfet_01v8
M$7 8 4 7 10 nfet_01v8 L=150000U W=650000U AS=87750000000P AD=198250000000P
+ PS=920000U PD=1260000U
* device instance $8 r0 *1 2.07,0.56 nfet_01v8
M$8 9 5 8 10 nfet_01v8 L=150000U W=650000U AS=198250000000P AD=221000000000P
+ PS=1260000U PD=1980000U
.ENDS sky130_fd_sc_hd__o31ai_1

* cell sky130_fd_sc_hd__nor2_1
* pin VPB
* pin A
* pin B
* pin Y
* pin VGND
* pin VPWR
* pin 
.SUBCKT sky130_fd_sc_hd__nor2_1 1 2 3 4 5 6 7
* net 1 VPB
* net 2 A
* net 3 B
* net 4 Y
* net 5 VGND
* net 6 VPWR
* device instance $1 r0 *1 0.47,1.985 pfet_01v8_hvt
M$1 8 3 4 1 pfet_01v8_hvt L=150000U W=1000000U AS=260000000000P
+ AD=105000000000P PS=2520000U PD=1210000U
* device instance $2 r0 *1 0.83,1.985 pfet_01v8_hvt
M$2 6 2 8 1 pfet_01v8_hvt L=150000U W=1000000U AS=105000000000P
+ AD=260000000000P PS=1210000U PD=2520000U
* device instance $3 r0 *1 0.47,0.56 nfet_01v8
M$3 4 3 5 7 nfet_01v8 L=150000U W=650000U AS=169000000000P AD=87750000000P
+ PS=1820000U PD=920000U
* device instance $4 r0 *1 0.89,0.56 nfet_01v8
M$4 5 2 4 7 nfet_01v8 L=150000U W=650000U AS=87750000000P AD=169000000000P
+ PS=920000U PD=1820000U
.ENDS sky130_fd_sc_hd__nor2_1

* cell sky130_fd_sc_hd__dlymetal6s2s_1
* pin VGND
* pin X
* pin A
* pin VPWR
* pin VPB
* pin 
.SUBCKT sky130_fd_sc_hd__dlymetal6s2s_1 1 3 8 9 10 11
* net 1 VGND
* net 3 X
* net 8 A
* net 9 VPWR
* net 10 VPB
* device instance $1 r0 *1 3.655,2.275 pfet_01v8_hvt
M$1 6 5 9 10 pfet_01v8_hvt L=150000U W=420000U AS=140750000000P
+ AD=109200000000P PS=1325000U PD=1360000U