
* cell barrel_shifter
* pin shift_amount[4]
* pin data_out[14]
* pin data_out[21]
* pin shift_amount[3]
* pin data_out[22]
* pin data_out[10]
* pin shift_amount[2]
* pin data_out[11]
* pin rotate
* pin data_out[6]
* pin data_out[26]
* pin data_out[27]
* pin shift_amount[0]
* pin shift_amount[1]
* pin data_in[27]
* pin data_in[30]
* pin data_in[29]
* pin data_out[31]
* pin data_out[30]
* pin shift_direction
* pin data_in[15]
* pin data_out[17]
* pin data_in[10]
* pin data_in[11]
* pin data_out[1]
* pin data_out[24]
* pin data_in[13]
* pin data_in[17]
* pin data_out[7]
* pin data_in[18]
* pin data_out[23]
* pin data_in[16]
* pin data_out[8]
* pin data_in[12]
* pin data_in[14]
* pin data_in[19]
* pin data_out[18]
* pin data_out[29]
* pin data_out[25]
* pin data_out[0]
* pin data_out[3]
* pin data_out[28]
* pin data_out[2]
* pin data_in[24]
* pin data_out[16]
* pin data_in[21]
* pin data_in[20]
* pin data_in[23]
* pin data_in[22]
* pin data_out[4]
* pin data_out[19]
* pin data_out[20]
* pin data_out[13]
* pin data_out[5]
* pin data_out[12]
* pin data_out[9]
* pin data_out[15]
* pin data_in[26]
* pin data_in[31]
* pin data_in[28]
* pin data_in[1]
* pin data_in[8]
* pin data_in[7]
* pin data_in[4]
* pin data_in[3]
* pin data_in[6]
* pin data_in[5]
* pin data_in[2]
* pin data_in[0]
* pin data_in[25]
* pin data_in[9]
* pin NWELL
* pin PWELL,gf180mcu_gnd
.SUBCKT barrel_shifter 1 2 3 4 5 6 7 8 9 10 11 12 13 29 75 76 77 171 172 281
+ 304 323 373 374 380 417 436 466 476 496 505 529 537 552 553 554 560 561 599
+ 600 601 602 603 623 633 660 661 686 687 691 692 721 774 802 803 830 831 940
+ 941 942 943 944 945 946 947 948 949 950 951 952 953 954 955
* net 1 shift_amount[4]
* net 2 data_out[14]
* net 3 data_out[21]
* net 4 shift_amount[3]
* net 5 data_out[22]
* net 6 data_out[10]
* net 7 shift_amount[2]
* net 8 data_out[11]
* net 9 rotate
* net 10 data_out[6]
* net 11 data_out[26]
* net 12 data_out[27]
* net 13 shift_amount[0]
* net 29 shift_amount[1]
* net 75 data_in[27]
* net 76 data_in[30]
* net 77 data_in[29]
* net 171 data_out[31]
* net 172 data_out[30]
* net 281 shift_direction
* net 304 data_in[15]
* net 323 data_out[17]
* net 373 data_in[10]
* net 374 data_in[11]
* net 380 data_out[1]
* net 417 data_out[24]
* net 436 data_in[13]
* net 466 data_in[17]
* net 476 data_out[7]
* net 496 data_in[18]
* net 505 data_out[23]
* net 529 data_in[16]
* net 537 data_out[8]
* net 552 data_in[12]
* net 553 data_in[14]
* net 554 data_in[19]
* net 560 data_out[18]
* net 561 data_out[29]
* net 599 data_out[25]
* net 600 data_out[0]
* net 601 data_out[3]
* net 602 data_out[28]
* net 603 data_out[2]
* net 623 data_in[24]
* net 633 data_out[16]
* net 660 data_in[21]
* net 661 data_in[20]
* net 686 data_in[23]
* net 687 data_in[22]
* net 691 data_out[4]
* net 692 data_out[19]
* net 721 data_out[20]
* net 774 data_out[13]
* net 802 data_out[5]
* net 803 data_out[12]
* net 830 data_out[9]
* net 831 data_out[15]
* net 940 data_in[26]
* net 941 data_in[31]
* net 942 data_in[28]
* net 943 data_in[1]
* net 944 data_in[8]
* net 945 data_in[7]
* net 946 data_in[4]
* net 947 data_in[3]
* net 948 data_in[6]
* net 949 data_in[5]
* net 950 data_in[2]
* net 951 data_in[0]
* net 952 data_in[25]
* net 953 data_in[9]
* net 954 NWELL
* net 955 PWELL,gf180mcu_gnd
* cell instance $3 r0 *1 1151.92,5.04
X$3 955 1 22 954 gf180mcu_fd_sc_mcu9t5v0__clkbuf_12
* cell instance $7 r0 *1 1175.44,5.04
X$7 14 954 955 2 gf180mcu_fd_sc_mcu9t5v0__dlyb_2
* cell instance $11 r0 *1 1218.56,5.04
X$11 16 954 955 3 gf180mcu_fd_sc_mcu9t5v0__dlyb_2
* cell instance $15 r0 *1 1243.76,5.04
X$15 955 4 23 954 gf180mcu_fd_sc_mcu9t5v0__buf_8
* cell instance $19 m0 *1 1246,25.2
X$19 20 954 955 5 gf180mcu_fd_sc_mcu9t5v0__dlyb_2
* cell instance $23 m0 *1 1239.28,15.12
X$23 17 954 955 6 gf180mcu_fd_sc_mcu9t5v0__dlyb_2
* cell instance $27 r0 *1 1266.72,5.04
X$27 955 7 27 954 gf180mcu_fd_sc_mcu9t5v0__clkbuf_8
* cell instance $31 m0 *1 1235.92,25.2
X$31 19 954 955 8 gf180mcu_fd_sc_mcu9t5v0__dlyb_2
* cell instance $36 m0 *1 1252.16,15.12
X$36 955 9 26 954 gf180mcu_fd_sc_mcu9t5v0__clkbuf_8
* cell instance $39 r0 *1 1246,15.12
X$39 18 954 955 10 gf180mcu_fd_sc_mcu9t5v0__dlyb_2
* cell instance $43 m0 *1 1257.2,25.2
X$43 21 954 955 11 gf180mcu_fd_sc_mcu9t5v0__dlyb_2
* cell instance $47 r0 *1 1258.32,5.04
X$47 15 954 955 12 gf180mcu_fd_sc_mcu9t5v0__dlyb_2
* cell instance $52 r0 *1 1401.12,1113.84
X$52 955 13 47 954 gf180mcu_fd_sc_mcu9t5v0__buf_8
* cell instance $55 r0 *1 1174.88,1164.24
X$55 955 14 110 85 86 111 954 gf180mcu_fd_sc_mcu9t5v0__aoi211_4
* cell instance $60 r0 *1 1240.96,1164.24
X$60 955 15 334 96 119 954 gf180mcu_fd_sc_mcu9t5v0__aoi21_4
* cell instance $65 r0 *1 1204.56,1224.72
X$65 955 16 286 473 411 954 gf180mcu_fd_sc_mcu9t5v0__aoi21_4
* cell instance $68 r0 *1 1233.68,1134
X$68 954 39 50 17 955 gf180mcu_fd_sc_mcu9t5v0__and2_4
* cell instance $71 m0 *1 1243.76,1184.4
X$71 955 954 205 252 18 gf180mcu_fd_sc_mcu9t5v0__nor2_4
* cell instance $78 r0 *1 1224.16,1265.04
X$78 955 450 19 502 728 536 954 gf180mcu_fd_sc_mcu9t5v0__aoi22_4
* cell instance $83 r0 *1 1231.44,1174.32
X$83 955 20 150 184 169 222 954 gf180mcu_fd_sc_mcu9t5v0__oai211_4
* cell instance $88 m0 *1 1255.52,1164.24
X$88 955 21 140 121 120 954 gf180mcu_fd_sc_mcu9t5v0__aoi21_4
* cell instance $97 m0 *1 1257.2,1134
X$97 955 22 23 954 24 gf180mcu_fd_sc_mcu9t5v0__or2_2
* cell instance $110 m0 *1 1150.8,1335.6
X$110 955 22 674 954 gf180mcu_fd_sc_mcu9t5v0__clkbuf_8
* cell instance $113 r0 *1 1150.8,1335.6
X$113 955 954 22 754 gf180mcu_fd_sc_mcu9t5v0__clkinv_2
* cell instance $115 m0 *1 1249.36,1144.08
X$115 955 41 22 33 28 23 954 gf180mcu_fd_sc_mcu9t5v0__oai31_4
* cell instance $117 r0 *1 1244.88,1123.92
X$117 955 40 23 27 30 22 954 gf180mcu_fd_sc_mcu9t5v0__nor4_4
* cell instance $120 m0 *1 1167.04,1325.52
X$120 954 22 665 955 673 gf180mcu_fd_sc_mcu9t5v0__and2_2
* cell instance $122 m0 *1 1304.24,1134
X$122 23 28 47 49 954 955 45 gf180mcu_fd_sc_mcu9t5v0__or4_2
* cell instance $135 r0 *1 1248.8,1134
X$135 955 23 141 954 gf180mcu_fd_sc_mcu9t5v0__buf_8
* cell instance $138 r0 *1 1298.08,1134
X$138 955 49 23 48 47 28 954 gf180mcu_fd_sc_mcu9t5v0__oai31_4
* cell instance $145 r0 *1 1248.8,1144.08
X$145 955 24 41 28 954 34 gf180mcu_fd_sc_mcu9t5v0__or3_4
* cell instance $147 m0 *1 1242.64,1134
X$147 955 26 36 24 31 954 gf180mcu_fd_sc_mcu9t5v0__oai21_4
* cell instance $150 r0 *1 1255.52,1305.36
X$150 648 955 24 649 954 547 gf180mcu_fd_sc_mcu9t5v0__or3_2
* cell instance $152 m0 *1 1262.8,1134
X$152 955 954 26 25 gf180mcu_fd_sc_mcu9t5v0__clkinv_2
* cell instance $154 m0 *1 1252.16,1154.16
X$154 955 32 65 40 25 954 gf180mcu_fd_sc_mcu9t5v0__aoi21_4
* cell instance $162 r0 *1 1268.4,1134
X$162 27 955 43 954 44 gf180mcu_fd_sc_mcu9t5v0__xor2_2
* cell instance $167 r0 *1 1266.16,1123.92
X$167 955 27 28 954 gf180mcu_fd_sc_mcu9t5v0__clkbuf_8
* cell instance $170 r0 *1 1279.04,1154.16
X$170 955 70 43 28 954 gf180mcu_fd_sc_mcu9t5v0__xnor2_4
* cell instance $179 r0 *1 1298.08,1295.28
X$179 28 955 618 619 954 31 gf180mcu_fd_sc_mcu9t5v0__or3_2
* cell instance $181 m0 *1 1270.64,1315.44
X$181 955 954 28 679 gf180mcu_fd_sc_mcu9t5v0__inv_4
* cell instance $183 m0 *1 1276.8,1305.36
X$183 955 28 43 954 617 gf180mcu_fd_sc_mcu9t5v0__or2_2
* cell instance $195 m0 *1 1284.08,1315.44
X$195 955 954 740 28 637 gf180mcu_fd_sc_mcu9t5v0__nor2_4
* cell instance $197 m0 *1 1283.52,1305.36
X$197 955 954 28 616 gf180mcu_fd_sc_mcu9t5v0__buf_4
* cell instance $201 m0 *1 2526.16,1134
X$201 955 29 30 954 gf180mcu_fd_sc_mcu9t5v0__clkbuf_12
* cell instance $211 m0 *1 1382.08,1315.44
X$211 955 30 619 954 gf180mcu_fd_sc_mcu9t5v0__clkbuf_8
* cell instance $214 m0 *1 1401.68,1315.44
X$214 955 954 30 685 gf180mcu_fd_sc_mcu9t5v0__buf_4
* cell instance $217 r0 *1 1414,1305.36
X$217 955 30 740 954 gf180mcu_fd_sc_mcu9t5v0__clkbuf_8
* cell instance $219 r0 *1 1326.08,1134
X$219 955 30 49 954 gf180mcu_fd_sc_mcu9t5v0__clkbuf_8
* cell instance $228 r0 *1 1265.6,1295.28
X$228 955 954 31 141 572 gf180mcu_fd_sc_mcu9t5v0__nor2_4
* cell instance $231 m0 *1 1181.6,1154.16
X$231 32 954 33 34 955 112 gf180mcu_fd_sc_mcu9t5v0__and3_2
* cell instance $233 m0 *1 1209.6,1184.4
X$233 954 955 91 185 32 gf180mcu_fd_sc_mcu9t5v0__nand2_4
* cell instance $235 m0 *1 1200.08,1164.24
X$235 954 32 955 55 53 54 89 gf180mcu_fd_sc_mcu9t5v0__oai31_2
* cell instance $238 m0 *1 1182.16,1174.32
X$238 954 32 955 139 78 122 123 gf180mcu_fd_sc_mcu9t5v0__oai31_2
* cell instance $241 r0 *1 1156.4,1184.4
X$241 954 32 955 177 53 122 211 gf180mcu_fd_sc_mcu9t5v0__oai31_2
* cell instance $243 m0 *1 1169.28,1174.32
X$243 954 955 122 213 32 gf180mcu_fd_sc_mcu9t5v0__nand2_4
* cell instance $251 m0 *1 1158.08,1184.4
X$251 955 32 143 954 gf180mcu_fd_sc_mcu9t5v0__buf_8
* cell instance $255 m0 *1 1213.52,1154.16
X$255 954 955 34 91 33 gf180mcu_fd_sc_mcu9t5v0__nand2_4
* cell instance $263 r0 *1 1242.64,1144.08
X$263 33 954 34 66 955 64 gf180mcu_fd_sc_mcu9t5v0__and3_2
* cell instance $265 m0 *1 1183.84,1144.08
X$265 955 35 33 34 36 954 gf180mcu_fd_sc_mcu9t5v0__aoi21_4
* cell instance $267 m0 *1 1188.88,1154.16
X$267 954 33 34 955 54 gf180mcu_fd_sc_mcu9t5v0__and2_2
* cell instance $272 r0 *1 1181.04,1144.08
X$272 955 51 34 33 37 36 954 gf180mcu_fd_sc_mcu9t5v0__aoi211_4
* cell instance $288 m0 *1 1153.6,1214.64
X$288 954 35 955 258 306 259 gf180mcu_fd_sc_mcu9t5v0__oai21_2
* cell instance $290 r0 *1 1262.8,1214.64
X$290 954 35 955 293 349 258 gf180mcu_fd_sc_mcu9t5v0__oai21_2
* cell instance $292 r0 *1 1195.6,1234.8
X$292 35 954 37 341 955 377 gf180mcu_fd_sc_mcu9t5v0__and3_2
* cell instance $308 m0 *1 1230.32,1154.16
X$308 35 954 60 79 955 62 gf180mcu_fd_sc_mcu9t5v0__and3_2
* cell instance $310 r0 *1 1150.8,1275.12
X$310 954 35 542 955 507 gf180mcu_fd_sc_mcu9t5v0__and2_2
* cell instance $312 r0 *1 1145.2,1265.04
X$312 954 35 443 955 506 gf180mcu_fd_sc_mcu9t5v0__and2_2
* cell instance $315 m0 *1 1169.84,1224.72
X$315 955 35 954 284 347 51 285 gf180mcu_fd_sc_mcu9t5v0__aoi22_2
* cell instance $318 r0 *1 1146.32,1174.32
X$318 955 35 138 954 gf180mcu_fd_sc_mcu9t5v0__clkbuf_8
* cell instance $320 r0 *1 1221.92,1285.2
X$320 543 954 35 220 955 597 gf180mcu_fd_sc_mcu9t5v0__and3_2
* cell instance $322 m0 *1 1223.04,1144.08
X$322 954 81 50 36 42 38 955 gf180mcu_fd_sc_mcu9t5v0__oai211_2
* cell instance $327 r0 *1 1221.36,1174.32
X$327 115 955 36 168 954 169 gf180mcu_fd_sc_mcu9t5v0__or3_2
* cell instance $333 r0 *1 1266.72,1254.96
X$333 955 954 475 429 37 456 gf180mcu_fd_sc_mcu9t5v0__mux2_2
* cell instance $337 m0 *1 1248.24,1254.96
X$337 955 954 391 350 37 359 gf180mcu_fd_sc_mcu9t5v0__mux2_2
* cell instance $339 r0 *1 1183.28,1174.32
X$339 955 954 166 147 37 123 gf180mcu_fd_sc_mcu9t5v0__mux2_2
* cell instance $357 r0 *1 1221.36,1154.16
X$357 955 954 82 58 37 59 gf180mcu_fd_sc_mcu9t5v0__mux2_2
* cell instance $359 m0 *1 1235.92,1265.04
X$359 955 954 452 129 37 228 gf180mcu_fd_sc_mcu9t5v0__mux2_2
* cell instance $361 m0 *1 1290.24,1144.08
X$361 954 48 45 37 955 gf180mcu_fd_sc_mcu9t5v0__and2_4
* cell instance $363 m0 *1 1182.16,1164.24
X$363 955 954 37 53 gf180mcu_fd_sc_mcu9t5v0__buf_4
* cell instance $369 m0 *1 1228.64,1174.32
X$369 955 954 38 127 62 gf180mcu_fd_sc_mcu9t5v0__nor2_2
* cell instance $371 m0 *1 1232.56,1194.48
X$371 954 253 39 185 206 128 955 gf180mcu_fd_sc_mcu9t5v0__oai211_2
* cell instance $381 m0 *1 1168.16,1194.48
X$381 955 202 167 40 174 115 181 954 gf180mcu_fd_sc_mcu9t5v0__aoi221_4
* cell instance $383 r0 *1 1149.12,1305.36
X$383 955 184 954 582 40 608 gf180mcu_fd_sc_mcu9t5v0__aoi21_2
* cell instance $385 r0 *1 1136.8,1244.88
X$385 955 382 416 40 174 128 330 954 gf180mcu_fd_sc_mcu9t5v0__aoi221_4
* cell instance $390 m0 *1 1134,1194.48
X$390 955 175 164 40 174 115 176 954 gf180mcu_fd_sc_mcu9t5v0__aoi221_4
* cell instance $396 r0 *1 1265.6,1144.08
X$396 955 954 43 41 gf180mcu_fd_sc_mcu9t5v0__inv_4
* cell instance $399 m0 *1 1256.08,1315.44
X$399 616 955 41 650 954 645 gf180mcu_fd_sc_mcu9t5v0__or3_2
* cell instance $401 r0 *1 1263.36,1305.36
X$401 589 954 955 41 616 650 gf180mcu_fd_sc_mcu9t5v0__nor3_2
* cell instance $413 m0 *1 1264.48,1305.36
X$413 954 616 41 955 573 gf180mcu_fd_sc_mcu9t5v0__and2_2
* cell instance $416 m0 *1 1259.44,1295.28
X$416 955 141 258 572 663 41 954 gf180mcu_fd_sc_mcu9t5v0__aoi22_4
* cell instance $419 r0 *1 1250.48,1305.36
X$419 955 954 648 647 41 gf180mcu_fd_sc_mcu9t5v0__nand2_2
* cell instance $424 r0 *1 1248.24,1315.44
X$424 955 954 513 42 677 gf180mcu_fd_sc_mcu9t5v0__nand2_2
* cell instance $434 m0 *1 1349.6,1285.2
X$434 955 549 98 580 43 954 gf180mcu_fd_sc_mcu9t5v0__addh_4
* cell instance $438 m0 *1 1255.52,1325.52
X$438 665 955 679 43 954 632 gf180mcu_fd_sc_mcu9t5v0__or3_2
* cell instance $455 m0 *1 1271.2,1305.36
X$455 955 954 616 651 43 gf180mcu_fd_sc_mcu9t5v0__nand2_2
* cell instance $458 r0 *1 1259.44,1295.28
X$458 954 43 572 955 590 gf180mcu_fd_sc_mcu9t5v0__and2_2
* cell instance $460 r0 *1 1254.4,1285.2
X$460 954 955 572 280 43 gf180mcu_fd_sc_mcu9t5v0__nand2_4
* cell instance $463 r0 *1 1275.12,1144.08
X$463 955 44 68 954 gf180mcu_fd_sc_mcu9t5v0__clkbuf_8
* cell instance $465 m0 *1 1275.68,1144.08
X$465 955 44 69 954 gf180mcu_fd_sc_mcu9t5v0__clkbuf_8
* cell instance $468 r0 *1 1289.68,1164.24
X$468 955 118 98 954 45 48 gf180mcu_fd_sc_mcu9t5v0__nand3_2
* cell instance $470 m0 *1 1299.76,1144.08
X$470 954 955 48 46 45 gf180mcu_fd_sc_mcu9t5v0__nand2_4
* cell instance $478 r0 *1 1298.64,1164.24
X$478 45 954 48 69 955 94 gf180mcu_fd_sc_mcu9t5v0__and3_2
* cell instance $482 r0 *1 1288.56,1174.32
X$482 955 954 152 154 46 131 gf180mcu_fd_sc_mcu9t5v0__mux2_2
* cell instance $484 r0 *1 1285.76,1254.96
X$484 955 954 151 457 46 95 gf180mcu_fd_sc_mcu9t5v0__mux2_2
* cell instance $486 m0 *1 1293.6,1194.48
X$486 955 954 191 157 46 192 gf180mcu_fd_sc_mcu9t5v0__mux2_2
* cell instance $488 m0 *1 1291.36,1265.04
X$488 955 954 503 485 46 154 gf180mcu_fd_sc_mcu9t5v0__mux2_2
* cell instance $491 r0 *1 1263.36,1244.88
X$491 955 954 393 429 46 357 gf180mcu_fd_sc_mcu9t5v0__mux2_2
* cell instance $493 r0 *1 1160.88,1275.12
X$493 955 954 542 510 46 508 gf180mcu_fd_sc_mcu9t5v0__mux2_2
* cell instance $508 r0 *1 1186.64,1265.04
X$508 954 46 481 955 422 gf180mcu_fd_sc_mcu9t5v0__and2_2
* cell instance $510 m0 *1 1281.84,1204.56
X$510 955 954 225 226 46 259 gf180mcu_fd_sc_mcu9t5v0__mux2_2
* cell instance $512 r0 *1 1298.08,1144.08
X$512 955 46 66 954 gf180mcu_fd_sc_mcu9t5v0__clkbuf_8
* cell instance $515 m0 *1 1165.36,1164.24
X$515 955 46 83 954 gf180mcu_fd_sc_mcu9t5v0__clkbuf_8
* cell instance $517 m0 *1 1300.32,1184.4
X$517 955 954 181 156 47 103 gf180mcu_fd_sc_mcu9t5v0__mux2_4
* cell instance $531 r0 *1 1407.84,1295.28
X$531 955 47 618 954 gf180mcu_fd_sc_mcu9t5v0__clkbuf_12
* cell instance $533 m0 *1 1403.92,1275.12
X$533 955 482 954 494 47 527 269 303 528 gf180mcu_fd_sc_mcu9t5v0__mux4_4
* cell instance $536 r0 *1 1300.88,1275.12
X$536 955 481 954 103 47 156 241 100 71 gf180mcu_fd_sc_mcu9t5v0__mux4_4
* cell instance $538 m0 *1 1361.92,1295.28
X$538 955 954 47 575 gf180mcu_fd_sc_mcu9t5v0__inv_4
* cell instance $541 m0 *1 1382.08,1295.28
X$541 955 47 376 954 gf180mcu_fd_sc_mcu9t5v0__clkbuf_8
* cell instance $546 m0 *1 1401.12,1174.32
X$546 955 47 72 954 gf180mcu_fd_sc_mcu9t5v0__buf_8
* cell instance $548 r0 *1 1398.32,1164.24
X$548 955 47 101 954 gf180mcu_fd_sc_mcu9t5v0__buf_8
* cell instance $560 m0 *1 1322.16,1446.48
X$560 955 954 936 938 49 937 gf180mcu_fd_sc_mcu9t5v0__mux2_2
* cell instance $562 r0 *1 1323.28,1335.6
X$562 955 954 744 100 49 74 gf180mcu_fd_sc_mcu9t5v0__mux2_2
* cell instance $564 r0 *1 1319.36,1345.68
X$564 955 954 681 103 49 745 gf180mcu_fd_sc_mcu9t5v0__mux2_2
* cell instance $566 r0 *1 1330,1345.68
X$566 955 954 705 745 49 767 gf180mcu_fd_sc_mcu9t5v0__mux2_2
* cell instance $568 m0 *1 1328.32,1335.6
X$568 955 954 708 74 49 714 gf180mcu_fd_sc_mcu9t5v0__mux2_2
* cell instance $571 r0 *1 1318.8,1315.44
X$571 955 954 682 156 49 100 gf180mcu_fd_sc_mcu9t5v0__mux2_2
* cell instance $574 m0 *1 1308.72,1305.36
X$574 955 954 620 470 49 459 gf180mcu_fd_sc_mcu9t5v0__mux2_2
* cell instance $576 r0 *1 1298.08,1436.4
X$576 955 954 652 487 49 932 gf180mcu_fd_sc_mcu9t5v0__mux2_2
* cell instance $609 r0 *1 1183.84,1214.64
X$609 954 51 315 955 316 gf180mcu_fd_sc_mcu9t5v0__and2_2
* cell instance $613 r0 *1 1166.48,1154.16
X$613 955 51 84 954 gf180mcu_fd_sc_mcu9t5v0__clkbuf_8
* cell instance $616 m0 *1 1207.92,1345.68
X$616 955 52 761 954 759 gf180mcu_fd_sc_mcu9t5v0__or2_2
* cell instance $618 r0 *1 1252.16,1355.76
X$618 955 954 789 828 52 790 gf180mcu_fd_sc_mcu9t5v0__mux2_2
* cell instance $620 r0 *1 1221.36,1305.36
X$620 52 955 642 597 954 664 gf180mcu_fd_sc_mcu9t5v0__or3_2
* cell instance $622 m0 *1 1149.12,1355.76
X$622 955 954 777 52 804 gf180mcu_fd_sc_mcu9t5v0__nor2_2
* cell instance $624 r0 *1 1144.08,1275.12
X$624 52 955 479 506 954 541 gf180mcu_fd_sc_mcu9t5v0__or3_2
* cell instance $626 r0 *1 1188.88,1154.16
X$626 954 52 955 56 88 55 87 gf180mcu_fd_sc_mcu9t5v0__oai31_2
* cell instance $628 m0 *1 1244.88,1315.44
X$628 954 52 955 646 644 649 gf180mcu_fd_sc_mcu9t5v0__oai21_2
* cell instance $641 r0 *1 1172.64,1184.4
X$641 955 201 52 180 113 139 954 gf180mcu_fd_sc_mcu9t5v0__oai31_4
* cell instance $643 r0 *1 1136.24,1335.6
X$643 955 52 221 954 gf180mcu_fd_sc_mcu9t5v0__buf_8
* cell instance $646 r0 *1 1141.28,1325.52
X$646 955 52 282 954 gf180mcu_fd_sc_mcu9t5v0__buf_8
* cell instance $648 m0 *1 1131.76,1234.8
X$648 955 305 52 954 gf180mcu_fd_sc_mcu9t5v0__clkbuf_8
* cell instance $651 r0 *1 1209.6,1244.88
X$651 955 954 424 413 53 361 gf180mcu_fd_sc_mcu9t5v0__mux2_2
* cell instance $666 r0 *1 1215.2,1204.56
X$666 955 53 954 261 192 60 gf180mcu_fd_sc_mcu9t5v0__aoi21_2
* cell instance $668 r0 *1 1220.24,1254.96
X$668 954 138 53 955 449 gf180mcu_fd_sc_mcu9t5v0__and2_2
* cell instance $670 m0 *1 1219.68,1234.8
X$670 955 954 353 354 53 332 gf180mcu_fd_sc_mcu9t5v0__mux2_2
* cell instance $672 r0 *1 1160.32,1194.48
X$672 54 955 53 211 954 247 gf180mcu_fd_sc_mcu9t5v0__or3_2
* cell instance $674 m0 *1 1172.64,1184.4
X$674 201 954 955 53 122 144 gf180mcu_fd_sc_mcu9t5v0__nor3_2
* cell instance $676 r0 *1 1213.52,1234.8
X$676 955 53 954 378 357 60 gf180mcu_fd_sc_mcu9t5v0__aoi21_2
* cell instance $679 r0 *1 1204.56,1234.8
X$679 954 955 53 352 114 gf180mcu_fd_sc_mcu9t5v0__nand2_4
* cell instance $686 r0 *1 1187.76,1244.88
X$686 955 954 421 422 54 440 gf180mcu_fd_sc_mcu9t5v0__mux2_2
* cell instance $698 r0 *1 1160.32,1164.24
X$698 955 54 122 954 gf180mcu_fd_sc_mcu9t5v0__clkbuf_8
* cell instance $700 r0 *1 1202.32,1164.24
X$700 87 954 955 83 54 59 gf180mcu_fd_sc_mcu9t5v0__nor3_2
* cell instance $703 r0 *1 1192.24,1184.4
X$703 55 955 88 87 954 124 gf180mcu_fd_sc_mcu9t5v0__or3_2
* cell instance $714 m0 *1 1192.24,1174.32
X$714 955 954 56 110 146 gf180mcu_fd_sc_mcu9t5v0__nand2_2
* cell instance $726 m0 *1 1210.16,1164.24
X$726 955 91 954 88 57 90 gf180mcu_fd_sc_mcu9t5v0__aoi21_2
* cell instance $729 m0 *1 1182.72,1224.72
X$729 955 954 329 311 57 gf180mcu_fd_sc_mcu9t5v0__nand2_2
* cell instance $731 m0 *1 1190,1164.24
X$731 955 114 954 113 57 116 gf180mcu_fd_sc_mcu9t5v0__aoi21_2
* cell instance $734 m0 *1 1245.44,1305.36
X$734 955 57 645 665 615 632 954 gf180mcu_fd_sc_mcu9t5v0__oai211_4
* cell instance $738 r0 *1 1226.96,1164.24
X$738 954 63 90 955 58 gf180mcu_fd_sc_mcu9t5v0__and2_2
* cell instance $742 r0 *1 1254.96,1164.24
X$742 955 954 59 67 68 93 gf180mcu_fd_sc_mcu9t5v0__mux2_2
* cell instance $752 r0 *1 1246.56,1244.88
X$752 955 954 426 393 60 428 gf180mcu_fd_sc_mcu9t5v0__mux2_2
* cell instance $754 r0 *1 1254.96,1244.88
X$754 955 954 416 428 60 475 gf180mcu_fd_sc_mcu9t5v0__mux2_2
* cell instance $756 m0 *1 1218.56,1214.64
X$756 954 122 955 261 319 288 60 gf180mcu_fd_sc_mcu9t5v0__oai22_2
* cell instance $761 r0 *1 1222.48,1234.8
X$761 954 122 955 378 356 355 60 gf180mcu_fd_sc_mcu9t5v0__oai22_2
* cell instance $764 r0 *1 1246,1214.64
X$764 955 954 321 322 60 266 gf180mcu_fd_sc_mcu9t5v0__mux2_2
* cell instance $780 m0 *1 1218,1204.56
X$780 955 216 220 60 262 78 954 gf180mcu_fd_sc_mcu9t5v0__aoi211_4
* cell instance $782 m0 *1 1205.68,1174.32
X$782 955 99 60 954 gf180mcu_fd_sc_mcu9t5v0__clkbuf_8
* cell instance $787 m0 *1 1204,1265.04
X$787 955 954 60 447 482 gf180mcu_fd_sc_mcu9t5v0__nand2_2
* cell instance $789 m0 *1 1225.28,1164.24
X$789 91 954 92 152 955 61 gf180mcu_fd_sc_mcu9t5v0__and3_2
* cell instance $791 r0 *1 1229.76,1154.16
X$791 955 61 954 81 64 80 gf180mcu_fd_sc_mcu9t5v0__aoi21_2
* cell instance $797 r0 *1 1314.88,1154.16
X$797 955 69 63 954 gf180mcu_fd_sc_mcu9t5v0__clkbuf_8
* cell instance $799 r0 *1 1363.04,1204.56
X$799 955 954 275 238 63 272 gf180mcu_fd_sc_mcu9t5v0__mux2_2
* cell instance $801 m0 *1 1223.04,1224.72
X$801 955 954 332 259 63 333 gf180mcu_fd_sc_mcu9t5v0__mux2_2
* cell instance $804 m0 *1 1206.24,1224.72
X$804 955 954 287 289 63 329 gf180mcu_fd_sc_mcu9t5v0__mux2_2
* cell instance $807 m0 *1 1251.6,1244.88
X$807 954 63 394 955 415 gf180mcu_fd_sc_mcu9t5v0__and2_2
* cell instance $827 r0 *1 1347.92,1164.24
X$827 955 63 92 954 gf180mcu_fd_sc_mcu9t5v0__clkbuf_8
* cell instance $830 r0 *1 1188.88,1254.96
X$830 63 954 454 445 955 443 gf180mcu_fd_sc_mcu9t5v0__and3_2
* cell instance $832 r0 *1 1365.28,1194.48
X$832 955 153 63 239 197 233 196 238 954 gf180mcu_fd_sc_mcu9t5v0__mux4_2
* cell instance $834 m0 *1 1235.92,1164.24
X$834 955 954 80 93 63 90 gf180mcu_fd_sc_mcu9t5v0__mux2_2
* cell instance $836 r0 *1 1195.04,1174.32
X$836 954 63 116 955 147 gf180mcu_fd_sc_mcu9t5v0__and2_2
* cell instance $845 m0 *1 1229.76,1214.64
X$845 955 114 954 226 319 291 64 gf180mcu_fd_sc_mcu9t5v0__aoi22_2
* cell instance $847 r0 *1 1239.84,1184.4
X$847 955 114 954 203 168 188 64 gf180mcu_fd_sc_mcu9t5v0__aoi22_2
* cell instance $851 m0 *1 1236.48,1234.8
X$851 955 64 954 389 356 359 114 gf180mcu_fd_sc_mcu9t5v0__aoi22_2
* cell instance $853 r0 *1 1380.4,1375.92
X$853 955 954 875 877 65 622 gf180mcu_fd_sc_mcu9t5v0__mux2_2
* cell instance $856 m0 *1 1378.72,1386
X$856 955 954 874 876 65 878 gf180mcu_fd_sc_mcu9t5v0__mux2_2
* cell instance $858 r0 *1 1376.48,1254.96
X$858 955 954 432 463 65 464 gf180mcu_fd_sc_mcu9t5v0__mux2_2
* cell instance $861 m0 *1 1322.72,1325.52
X$861 955 954 683 655 65 708 gf180mcu_fd_sc_mcu9t5v0__mux2_2
* cell instance $864 m0 *1 1309.28,1436.4
X$864 955 954 864 936 65 933 gf180mcu_fd_sc_mcu9t5v0__mux2_2
* cell instance $866 m0 *1 1288.56,1426.32
X$866 955 954 922 927 65 652 gf180mcu_fd_sc_mcu9t5v0__mux2_2
* cell instance $868 m0 *1 1317.68,1436.4
X$868 955 954 923 935 65 936 gf180mcu_fd_sc_mcu9t5v0__mux2_2
* cell instance $891 m0 *1 1379.84,1265.04
X$891 955 954 268 491 65 492 gf180mcu_fd_sc_mcu9t5v0__mux2_2
* cell instance $893 m0 *1 1337.84,1265.04
X$893 955 954 458 490 65 434 gf180mcu_fd_sc_mcu9t5v0__mux2_2
* cell instance $895 m0 *1 1363.6,1305.36
X$895 955 575 65 954 gf180mcu_fd_sc_mcu9t5v0__buf_8
* cell instance $898 r0 *1 1282.4,1204.56
X$898 955 954 266 248 66 292 gf180mcu_fd_sc_mcu9t5v0__mux2_2
* cell instance $900 m0 *1 1288,1254.96
X$900 955 954 428 438 66 359 gf180mcu_fd_sc_mcu9t5v0__mux2_2
* cell instance $902 r0 *1 1277.36,1254.96
X$902 955 954 453 472 66 455 gf180mcu_fd_sc_mcu9t5v0__mux2_2
* cell instance $904 r0 *1 1280.72,1184.4
X$904 955 954 203 153 66 190 gf180mcu_fd_sc_mcu9t5v0__mux2_2
* cell instance $906 r0 *1 1299.76,1184.4
X$906 955 954 155 199 66 226 gf180mcu_fd_sc_mcu9t5v0__mux2_2
* cell instance $908 m0 *1 1259.44,1214.64
X$908 955 954 322 224 66 293 gf180mcu_fd_sc_mcu9t5v0__mux2_2
* cell instance $911 r0 *1 1263.36,1164.24
X$911 955 954 79 95 66 67 gf180mcu_fd_sc_mcu9t5v0__mux2_2
* cell instance $929 r0 *1 1261.68,1154.16
X$929 955 66 78 954 gf180mcu_fd_sc_mcu9t5v0__clkbuf_8
* cell instance $932 r0 *1 1300.88,1174.32
X$932 955 954 163 162 66 157 gf180mcu_fd_sc_mcu9t5v0__mux2_2
* cell instance $934 r0 *1 1375.92,1164.24
X$934 955 67 102 109 108 101 107 136 954 gf180mcu_fd_sc_mcu9t5v0__mux4_2
* cell instance $936 m0 *1 1268.96,1164.24
X$936 955 954 97 67 99 131 gf180mcu_fd_sc_mcu9t5v0__mux2_2
* cell instance $945 r0 *1 1305.92,1254.96
X$945 955 954 392 458 68 432 gf180mcu_fd_sc_mcu9t5v0__mux2_2
* cell instance $947 m0 *1 1314.32,1204.56
X$947 955 954 144 268 68 230 gf180mcu_fd_sc_mcu9t5v0__mux2_2
* cell instance $949 r0 *1 1314.32,1254.96
X$949 955 954 455 432 68 268 gf180mcu_fd_sc_mcu9t5v0__mux2_2
* cell instance $952 r0 *1 1254.4,1214.64
X$952 955 954 315 224 68 292 gf180mcu_fd_sc_mcu9t5v0__mux2_2
* cell instance $954 m0 *1 1265.04,1174.32
X$954 955 954 89 95 68 131 gf180mcu_fd_sc_mcu9t5v0__mux2_2
* cell instance $958 r0 *1 1250.48,1254.96
X$958 955 954 444 394 68 454 gf180mcu_fd_sc_mcu9t5v0__mux2_2
* cell instance $983 m0 *1 1312.64,1234.8
X$983 955 341 194 368 369 68 296 297 954 gf180mcu_fd_sc_mcu9t5v0__mux4_2
* cell instance $985 m0 *1 1312.64,1265.04
X$985 955 954 472 498 68 458 gf180mcu_fd_sc_mcu9t5v0__mux2_2
* cell instance $987 r0 *1 1315.44,1174.32
X$987 955 954 68 158 gf180mcu_fd_sc_mcu9t5v0__buf_4
* cell instance $991 r0 *1 1338.4,1204.56
X$991 955 954 270 239 69 271 gf180mcu_fd_sc_mcu9t5v0__mux2_2
* cell instance $993 m0 *1 1336.16,1214.64
X$993 955 954 231 298 69 296 gf180mcu_fd_sc_mcu9t5v0__mux2_2
* cell instance $995 m0 *1 1298.08,1204.56
X$995 955 954 228 230 69 133 gf180mcu_fd_sc_mcu9t5v0__mux2_2
* cell instance $997 m0 *1 1297.52,1224.72
X$997 955 954 336 294 69 339 gf180mcu_fd_sc_mcu9t5v0__mux2_2
* cell instance $1000 m0 *1 1277.36,1174.32
X$1000 955 954 129 132 69 116 gf180mcu_fd_sc_mcu9t5v0__mux2_2
* cell instance $1003 m0 *1 1182.72,1275.12
X$1003 955 954 510 482 69 512 gf180mcu_fd_sc_mcu9t5v0__mux2_2
* cell instance $1005 r0 *1 1176,1265.04
X$1005 955 954 508 480 69 481 gf180mcu_fd_sc_mcu9t5v0__mux2_2
* cell instance $1023 r0 *1 1301.44,1234.8
X$1023 955 954 335 369 69 367 gf180mcu_fd_sc_mcu9t5v0__mux2_2
* cell instance $1028 m0 *1 1289.12,1234.8
X$1028 955 954 365 366 70 368 gf180mcu_fd_sc_mcu9t5v0__mux2_2
* cell instance $1031 r0 *1 1285.76,1194.48
X$1031 955 954 190 218 70 227 gf180mcu_fd_sc_mcu9t5v0__mux2_2
* cell instance $1033 r0 *1 1299.2,1214.64
X$1033 955 954 320 338 70 295 gf180mcu_fd_sc_mcu9t5v0__mux2_2
* cell instance $1036 m0 *1 1297.52,1174.32
X$1036 955 954 123 132 70 133 gf180mcu_fd_sc_mcu9t5v0__mux2_2
* cell instance $1039 m0 *1 1269.52,1234.8
X$1039 955 954 362 70 363 gf180mcu_fd_sc_mcu9t5v0__nor2_2
* cell instance $1047 m0 *1 1291.36,1164.24
X$1047 955 70 99 954 gf180mcu_fd_sc_mcu9t5v0__clkbuf_8
* cell instance $1052 r0 *1 1316.56,1164.24
X$1052 955 132 102 74 100 101 103 71 954 gf180mcu_fd_sc_mcu9t5v0__mux4_2
* cell instance $1055 m0 *1 1337.84,1234.8
X$1055 955 363 73 107 74 376 71 104 954 gf180mcu_fd_sc_mcu9t5v0__mux4_2
* cell instance $1058 m0 *1 1326.64,1164.24
X$1058 955 93 73 104 71 72 100 74 954 gf180mcu_fd_sc_mcu9t5v0__mux4_2
* cell instance $1060 m0 *1 1315.44,1184.4
X$1060 955 162 73 156 100 200 71 103 954 gf180mcu_fd_sc_mcu9t5v0__mux4_2
* cell instance $1062 m0 *1 1354.08,1164.24
X$1062 955 954 106 71 73 103 gf180mcu_fd_sc_mcu9t5v0__mux2_2
* cell instance $1064 m0 *1 1318.24,1345.68
X$1064 955 773 709 156 100 523 71 103 954 gf180mcu_fd_sc_mcu9t5v0__mux4_2
* cell instance $1066 m0 *1 1344.56,1345.68
X$1066 955 954 768 71 750 103 gf180mcu_fd_sc_mcu9t5v0__mux2_2
* cell instance $1068 r0 *1 1336.72,1335.6
X$1068 745 954 955 71 gf180mcu_fd_sc_mcu9t5v0__buf_3
* cell instance $1083 r0 *1 1337.84,1164.24
X$1083 955 954 159 104 73 71 gf180mcu_fd_sc_mcu9t5v0__mux2_2
* cell instance $1086 r0 *1 1342.32,1335.6
X$1086 955 954 746 104 740 71 gf180mcu_fd_sc_mcu9t5v0__mux2_2
* cell instance $1092 m0 *1 1324.96,1426.32
X$1092 955 925 709 431 433 72 398 397 954 gf180mcu_fd_sc_mcu9t5v0__mux4_2
* cell instance $1107 m0 *1 1346.8,1416.24
X$1107 955 920 797 400 401 72 435 399 954 gf180mcu_fd_sc_mcu9t5v0__mux4_2
* cell instance $1110 r0 *1 1326.64,1416.24
X$1110 955 924 709 397 398 72 400 433 954 gf180mcu_fd_sc_mcu9t5v0__mux4_2
* cell instance $1113 m0 *1 1370.32,1416.24
X$1113 955 914 797 371 401 72 399 435 954 gf180mcu_fd_sc_mcu9t5v0__mux4_2
* cell instance $1116 r0 *1 1388.8,1375.92
X$1116 955 873 797 302 303 72 242 340 954 gf180mcu_fd_sc_mcu9t5v0__mux4_2
* cell instance $1118 m0 *1 1373.68,1406.16
X$1118 955 915 797 371 372 72 302 402 954 gf180mcu_fd_sc_mcu9t5v0__mux4_2
* cell instance $1120 m0 *1 1399.44,1204.56
X$1120 955 131 954 243 72 240 73 273 242 gf180mcu_fd_sc_mcu9t5v0__mux4_4
* cell instance $1122 m0 *1 1357.44,1375.92
X$1122 955 844 797 372 371 72 435 402 954 gf180mcu_fd_sc_mcu9t5v0__mux4_2
* cell instance $1124 m0 *1 1377.6,1355.76
X$1124 955 796 709 273 240 72 109 243 954 gf180mcu_fd_sc_mcu9t5v0__mux4_2
* cell instance $1130 r0 *1 1365.84,1164.24
X$1130 955 954 135 136 73 107 gf180mcu_fd_sc_mcu9t5v0__mux2_2
* cell instance $1132 r0 *1 1328.32,1254.96
X$1132 955 954 460 459 73 470 gf180mcu_fd_sc_mcu9t5v0__mux2_2
* cell instance $1134 m0 *1 1345.68,1164.24
X$1134 955 954 105 74 73 100 gf180mcu_fd_sc_mcu9t5v0__mux2_2
* cell instance $1148 m0 *1 1374.24,1244.88
X$1148 955 350 954 136 376 108 73 109 240 gf180mcu_fd_sc_mcu9t5v0__mux4_4
* cell instance $1150 m0 *1 1372,1224.72
X$1150 955 954 241 73 gf180mcu_fd_sc_mcu9t5v0__buf_4
* cell instance $1163 m0 *1 1354.08,1345.68
X$1163 955 954 748 74 750 100 gf180mcu_fd_sc_mcu9t5v0__mux2_2
* cell instance $1166 r0 *1 1361.92,1295.28
X$1166 955 480 954 104 618 74 269 107 578 gf180mcu_fd_sc_mcu9t5v0__mux4_4
* cell instance $1180 m0 *1 1351.84,1184.4
X$1180 955 954 195 107 102 74 gf180mcu_fd_sc_mcu9t5v0__mux2_2
* cell instance $1185 r0 *1 1355.2,1335.6
X$1185 955 954 747 107 740 74 gf180mcu_fd_sc_mcu9t5v0__mux2_2
* cell instance $1188 m0 *1 2545.2,1164.24
X$1188 955 75 74 954 gf180mcu_fd_sc_mcu9t5v0__buf_8
* cell instance $1193 r0 *1 2530.64,1164.24
X$1193 955 76 103 954 gf180mcu_fd_sc_mcu9t5v0__buf_8
* cell instance $1196 m0 *1 2530.64,1164.24
X$1196 955 77 100 954 gf180mcu_fd_sc_mcu9t5v0__buf_8
* cell instance $1200 r0 *1 1274,1174.32
X$1200 955 954 167 161 78 153 gf180mcu_fd_sc_mcu9t5v0__mux2_2
* cell instance $1202 r0 *1 1210.72,1275.12
X$1202 955 954 544 514 78 287 gf180mcu_fd_sc_mcu9t5v0__mux2_2
* cell instance $1205 m0 *1 1163.68,1224.72
X$1205 955 954 326 78 328 gf180mcu_fd_sc_mcu9t5v0__nor2_2