* CDL Netlist generated by OpenROAD

*.BUSDELIMITER [

.SUBCKT barrel_shifter data_in[0] data_in[10] data_in[11]
+ data_in[12] data_in[13] data_in[14] data_in[15] data_in[16]
+ data_in[17] data_in[18] data_in[19] data_in[1] data_in[20]
+ data_in[21] data_in[22] data_in[23] data_in[24] data_in[25]
+ data_in[26] data_in[27] data_in[28] data_in[29] data_in[2]
+ data_in[30] data_in[31] data_in[3] data_in[4] data_in[5] data_in[6]
+ data_in[7] data_in[8] data_in[9] data_out[0] data_out[10]
+ data_out[11] data_out[12] data_out[13] data_out[14] data_out[15]
+ data_out[16] data_out[17] data_out[18] data_out[19] data_out[1]
+ data_out[20] data_out[21] data_out[22] data_out[23] data_out[24]
+ data_out[25] data_out[26] data_out[27] data_out[28] data_out[29]
+ data_out[2] data_out[30] data_out[31] data_out[3] data_out[4]
+ data_out[5] data_out[6] data_out[7] data_out[8] data_out[9]
+ rotate shift_amount[0] shift_amount[1] shift_amount[2] shift_amount[3]
+ shift_amount[4] shift_direction
X_0812_ shift_amount[0] _0641_ VDD VSS gf180mcu_fd_sc_mcu9t5v0__buf_8
X_0813_ _0641_ _0651_ VDD VSS gf180mcu_fd_sc_mcu9t5v0__inv_4
X_0814_ _0651_ _0662_ VDD VSS gf180mcu_fd_sc_mcu9t5v0__clkbuf_8
X_0815_ _0662_ _0672_ VDD VSS gf180mcu_fd_sc_mcu9t5v0__buf_8
X_0816_ _0672_ _0808_ VDD VSS gf180mcu_fd_sc_mcu9t5v0__clkbuf_8
X_0817_ net34 _0692_ VDD VSS gf180mcu_fd_sc_mcu9t5v0__clkbuf_8
X_0818_ _0692_ _0809_ VDD VSS gf180mcu_fd_sc_mcu9t5v0__inv_3
X_0819_ net35 _0711_ VDD VSS gf180mcu_fd_sc_mcu9t5v0__clkbuf_8
X_0820_ _0810_ _0721_ VDD VSS gf180mcu_fd_sc_mcu9t5v0__inv_4
X_0821_ net36 _0711_ _0721_ net37 _0732_ VDD VSS gf180mcu_fd_sc_mcu9t5v0__oai31_4
X_0822_ net37 net36 _0742_ VDD VSS gf180mcu_fd_sc_mcu9t5v0__or2_2
X_0823_ _0711_ _0721_ _0742_ _0752_ VDD VSS gf180mcu_fd_sc_mcu9t5v0__or3_4
X_0824_ _0641_ _0762_ VDD VSS gf180mcu_fd_sc_mcu9t5v0__clkbuf_12
X_0825_ net34 _0772_ VDD VSS gf180mcu_fd_sc_mcu9t5v0__clkbuf_8
X_0826_ _0711_ _0762_ _0772_ _0782_ VDD VSS gf180mcu_fd_sc_mcu9t5v0__or3_2
X_0827_ _0782_ _0742_ net33 _0792_ VDD VSS gf180mcu_fd_sc_mcu9t5v0__oai21_4
X_0828_ _0732_ _0752_ _0792_ _0800_ VDD VSS gf180mcu_fd_sc_mcu9t5v0__aoi21_4
X_0829_ _0800_ _0801_ VDD VSS gf180mcu_fd_sc_mcu9t5v0__clkbuf_8
X_0830_ _0801_ _0802_ VDD VSS gf180mcu_fd_sc_mcu9t5v0__clkbuf_8
X_0831_ net5 _0803_ VDD VSS gf180mcu_fd_sc_mcu9t5v0__buf_3
X_0832_ _0811_ _0804_ VDD VSS gf180mcu_fd_sc_mcu9t5v0__clkbuf_8
X_0833_ _0804_ _0805_ VDD VSS gf180mcu_fd_sc_mcu9t5v0__clkbuf_8
X_0834_ _0803_ net7 _0805_ _0806_ VDD VSS gf180mcu_fd_sc_mcu9t5v0__mux2_2
X_0835_ net4 net6 _0804_ _0807_ VDD VSS gf180mcu_fd_sc_mcu9t5v0__mux2_2
X_0836_ _0651_ _0000_ VDD VSS gf180mcu_fd_sc_mcu9t5v0__clkbuf_8
X_0837_ _0000_ _0001_ VDD VSS gf180mcu_fd_sc_mcu9t5v0__clkbuf_8
X_0838_ _0806_ _0807_ _0001_ _0002_ VDD VSS gf180mcu_fd_sc_mcu9t5v0__mux2_2
X_0839_ net32 _0003_ VDD VSS gf180mcu_fd_sc_mcu9t5v0__buf_3
X_0840_ net3 _0004_ VDD VSS gf180mcu_fd_sc_mcu9t5v0__clkbuf_3
X_0841_ _0003_ _0004_ _0805_ _0005_ VDD VSS gf180mcu_fd_sc_mcu9t5v0__mux2_2
X_0842_ net31 _0006_ VDD VSS gf180mcu_fd_sc_mcu9t5v0__buf_3
X_0843_ _0804_ _0007_ VDD VSS gf180mcu_fd_sc_mcu9t5v0__clkbuf_8
X_0844_ _0006_ net2 _0007_ _0008_ VDD VSS gf180mcu_fd_sc_mcu9t5v0__mux2_2
X_0845_ _0005_ _0008_ _0001_ _0009_ VDD VSS gf180mcu_fd_sc_mcu9t5v0__mux2_2
X_0846_ net35 _0810_ _0010_ VDD VSS gf180mcu_fd_sc_mcu9t5v0__xor2_2
X_0847_ _0010_ _0011_ VDD VSS gf180mcu_fd_sc_mcu9t5v0__clkbuf_8
X_0848_ _0011_ _0012_ VDD VSS gf180mcu_fd_sc_mcu9t5v0__buf_4
X_0849_ _0002_ _0009_ _0012_ _0013_ VDD VSS gf180mcu_fd_sc_mcu9t5v0__mux2_2
X_0850_ net28 _0014_ VDD VSS gf180mcu_fd_sc_mcu9t5v0__clkbuf_4
X_0851_ net30 _0015_ VDD VSS gf180mcu_fd_sc_mcu9t5v0__buf_3
X_0852_ _0007_ _0016_ VDD VSS gf180mcu_fd_sc_mcu9t5v0__clkbuf_8
X_0853_ _0014_ _0015_ _0016_ _0017_ VDD VSS gf180mcu_fd_sc_mcu9t5v0__mux2_2
X_0854_ net27 _0018_ VDD VSS gf180mcu_fd_sc_mcu9t5v0__clkbuf_4
X_0855_ net29 _0019_ VDD VSS gf180mcu_fd_sc_mcu9t5v0__clkbuf_4
X_0856_ _0018_ _0019_ _0007_ _0020_ VDD VSS gf180mcu_fd_sc_mcu9t5v0__mux2_2
X_0857_ net26 _0021_ VDD VSS gf180mcu_fd_sc_mcu9t5v0__buf_3
X_0858_ net12 _0021_ _0016_ _0022_ VDD VSS gf180mcu_fd_sc_mcu9t5v0__mux2_2
X_0859_ _0804_ _0023_ VDD VSS gf180mcu_fd_sc_mcu9t5v0__clkbuf_8
X_0860_ _0023_ _0024_ VDD VSS gf180mcu_fd_sc_mcu9t5v0__buf_4
X_0861_ net1 net23 _0024_ _0025_ VDD VSS gf180mcu_fd_sc_mcu9t5v0__mux2_2
X_0862_ _0010_ _0026_ VDD VSS gf180mcu_fd_sc_mcu9t5v0__clkbuf_8
X_0863_ _0026_ _0027_ VDD VSS gf180mcu_fd_sc_mcu9t5v0__clkbuf_8
X_0864_ _0027_ _0028_ VDD VSS gf180mcu_fd_sc_mcu9t5v0__clkbuf_8
X_0865_ _0017_ _0020_ _0022_ _0025_ _0808_ _0028_ _0029_ VDD
+ VSS gf180mcu_fd_sc_mcu9t5v0__mux4_2
X_0866_ net34 _0030_ VDD VSS gf180mcu_fd_sc_mcu9t5v0__clkbuf_8
X_0867_ net36 _0711_ _0641_ _0030_ _0031_ VDD VSS gf180mcu_fd_sc_mcu9t5v0__or4_2
X_0868_ _0711_ _0641_ _0030_ net36 _0032_ VDD VSS gf180mcu_fd_sc_mcu9t5v0__oai31_4
X_0869_ _0031_ _0032_ _0033_ VDD VSS gf180mcu_fd_sc_mcu9t5v0__nand2_4
X_0870_ _0033_ _0034_ VDD VSS gf180mcu_fd_sc_mcu9t5v0__clkbuf_8
X_0871_ _0034_ _0035_ VDD VSS gf180mcu_fd_sc_mcu9t5v0__clkbuf_8
X_0872_ _0013_ _0029_ _0035_ _0036_ VDD VSS gf180mcu_fd_sc_mcu9t5v0__mux2_2
X_0873_ _0651_ _0037_ VDD VSS gf180mcu_fd_sc_mcu9t5v0__buf_8
X_0874_ net37 net36 net35 net34 _0038_ VDD VSS gf180mcu_fd_sc_mcu9t5v0__nor4_4
X_0875_ net33 _0039_ VDD VSS gf180mcu_fd_sc_mcu9t5v0__clkinv_2
X_0876_ _0037_ _0038_ _0039_ _0040_ VDD VSS gf180mcu_fd_sc_mcu9t5v0__aoi21_4
X_0877_ _0040_ _0732_ _0752_ _0041_ VDD VSS gf180mcu_fd_sc_mcu9t5v0__and3_2
X_0878_ _0041_ _0042_ VDD VSS gf180mcu_fd_sc_mcu9t5v0__clkbuf_8
X_0879_ net21 _0043_ VDD VSS gf180mcu_fd_sc_mcu9t5v0__buf_3
X_0880_ _0043_ net22 net24 net25 _0641_ _0023_ _0044_ VDD
+ VSS gf180mcu_fd_sc_mcu9t5v0__mux4_4
X_0881_ net18 _0045_ VDD VSS gf180mcu_fd_sc_mcu9t5v0__buf_3
X_0882_ net19 _0046_ VDD VSS gf180mcu_fd_sc_mcu9t5v0__buf_3
X_0883_ _0804_ _0047_ VDD VSS gf180mcu_fd_sc_mcu9t5v0__clkbuf_8
X_0884_ net17 _0045_ _0046_ net20 _0762_ _0047_ _0048_ VDD
+ VSS gf180mcu_fd_sc_mcu9t5v0__mux4_4
X_0885_ _0044_ _0048_ _0026_ _0049_ VDD VSS gf180mcu_fd_sc_mcu9t5v0__mux2_2
X_0886_ net13 net14 net15 net16 _0762_ _0047_ _0050_ VDD VSS
+ gf180mcu_fd_sc_mcu9t5v0__mux4_4
X_0887_ net9 _0051_ VDD VSS gf180mcu_fd_sc_mcu9t5v0__clkbuf_3
X_0888_ net8 _0051_ net10 net11 _0641_ _0047_ _0052_ VDD VSS
+ gf180mcu_fd_sc_mcu9t5v0__mux4_4
X_0889_ _0050_ _0052_ _0026_ _0053_ VDD VSS gf180mcu_fd_sc_mcu9t5v0__mux2_2
X_0890_ _0049_ _0053_ _0033_ _0054_ VDD VSS gf180mcu_fd_sc_mcu9t5v0__mux2_2
X_0891_ _0802_ _0036_ _0042_ _0054_ _0055_ VDD VSS gf180mcu_fd_sc_mcu9t5v0__aoi22_2
X_0892_ net1 _0000_ _0056_ VDD VSS gf180mcu_fd_sc_mcu9t5v0__and2_2
X_0893_ net38 _0057_ VDD VSS gf180mcu_fd_sc_mcu9t5v0__inv_2
X_0894_ _0057_ _0058_ VDD VSS gf180mcu_fd_sc_mcu9t5v0__clkbuf_8
X_0895_ _0058_ _0059_ VDD VSS gf180mcu_fd_sc_mcu9t5v0__clkbuf_8
X_0896_ _0056_ _0038_ _0059_ _0060_ VDD VSS gf180mcu_fd_sc_mcu9t5v0__aoi21_2
X_0897_ _0023_ _0061_ VDD VSS gf180mcu_fd_sc_mcu9t5v0__inv_4
X_0898_ net36 _0062_ VDD VSS gf180mcu_fd_sc_mcu9t5v0__buf_8
X_0899_ _0062_ _0782_ _0063_ VDD VSS gf180mcu_fd_sc_mcu9t5v0__nor2_4
X_0900_ _0810_ _0063_ _0064_ VDD VSS gf180mcu_fd_sc_mcu9t5v0__nand2_4
X_0901_ _0711_ _0065_ VDD VSS gf180mcu_fd_sc_mcu9t5v0__buf_4
X_0902_ _0065_ _0721_ _0066_ VDD VSS gf180mcu_fd_sc_mcu9t5v0__and2_2
X_0903_ _0641_ _0067_ VDD VSS gf180mcu_fd_sc_mcu9t5v0__buf_8
X_0904_ _0067_ _0692_ _0068_ VDD VSS gf180mcu_fd_sc_mcu9t5v0__nor2_4
X_0905_ _0065_ _0721_ _0068_ _0069_ VDD VSS gf180mcu_fd_sc_mcu9t5v0__nor3_2
X_0906_ _0066_ _0069_ _0062_ _0070_ VDD VSS gf180mcu_fd_sc_mcu9t5v0__oai21_4
X_0907_ _0064_ _0070_ _0071_ VDD VSS gf180mcu_fd_sc_mcu9t5v0__nand2_2
X_0908_ _0061_ _0071_ _0801_ _0072_ VDD VSS gf180mcu_fd_sc_mcu9t5v0__and3_4
X_0909_ net38 _0073_ VDD VSS gf180mcu_fd_sc_mcu9t5v0__clkbuf_8
X_0910_ _0073_ _0074_ VDD VSS gf180mcu_fd_sc_mcu9t5v0__buf_8
X_0911_ net18 net20 _0030_ _0075_ VDD VSS gf180mcu_fd_sc_mcu9t5v0__mux2_2
X_0912_ net17 _0046_ _0772_ _0076_ VDD VSS gf180mcu_fd_sc_mcu9t5v0__mux2_2
X_0913_ _0075_ _0076_ _0037_ _0077_ VDD VSS gf180mcu_fd_sc_mcu9t5v0__mux2_2
X_0914_ net22 net25 _0030_ _0078_ VDD VSS gf180mcu_fd_sc_mcu9t5v0__mux2_2
X_0915_ net21 net24 _0030_ _0079_ VDD VSS gf180mcu_fd_sc_mcu9t5v0__mux2_2
X_0916_ _0078_ _0079_ _0651_ _0080_ VDD VSS gf180mcu_fd_sc_mcu9t5v0__mux2_4
X_0917_ _0077_ _0080_ _0065_ _0081_ VDD VSS gf180mcu_fd_sc_mcu9t5v0__mux2_4
X_0918_ net13 _0082_ VDD VSS gf180mcu_fd_sc_mcu9t5v0__clkbuf_3
X_0919_ net14 _0083_ VDD VSS gf180mcu_fd_sc_mcu9t5v0__clkbuf_3
X_0920_ net15 _0084_ VDD VSS gf180mcu_fd_sc_mcu9t5v0__clkbuf_3
X_0921_ net16 _0085_ VDD VSS gf180mcu_fd_sc_mcu9t5v0__clkbuf_3
X_0922_ _0641_ _0086_ VDD VSS gf180mcu_fd_sc_mcu9t5v0__clkbuf_8
X_0923_ _0692_ _0087_ VDD VSS gf180mcu_fd_sc_mcu9t5v0__buf_4
X_0924_ _0082_ _0083_ _0084_ _0085_ _0086_ _0087_ _0088_ VDD
+ VSS gf180mcu_fd_sc_mcu9t5v0__mux4_4
X_0925_ net8 _0089_ VDD VSS gf180mcu_fd_sc_mcu9t5v0__buf_3
X_0926_ net10 _0090_ VDD VSS gf180mcu_fd_sc_mcu9t5v0__buf_3
X_0927_ net11 _0091_ VDD VSS gf180mcu_fd_sc_mcu9t5v0__clkbuf_3
X_0928_ _0089_ _0051_ _0090_ _0091_ _0086_ _0087_ _0092_ VDD
+ VSS gf180mcu_fd_sc_mcu9t5v0__mux4_4
X_0929_ _0711_ _0093_ VDD VSS gf180mcu_fd_sc_mcu9t5v0__inv_4
X_0930_ _0093_ _0094_ VDD VSS gf180mcu_fd_sc_mcu9t5v0__buf_4
X_0931_ _0088_ _0092_ _0094_ _0095_ VDD VSS gf180mcu_fd_sc_mcu9t5v0__mux2_2
X_0932_ _0062_ _0096_ VDD VSS gf180mcu_fd_sc_mcu9t5v0__clkinv_8
X_0933_ _0081_ _0095_ _0096_ _0097_ VDD VSS gf180mcu_fd_sc_mcu9t5v0__mux2_2
X_0934_ net4 _0098_ VDD VSS gf180mcu_fd_sc_mcu9t5v0__buf_3
X_0935_ net6 _0099_ VDD VSS gf180mcu_fd_sc_mcu9t5v0__buf_3
X_0936_ _0641_ _0100_ VDD VSS gf180mcu_fd_sc_mcu9t5v0__buf_8
X_0937_ _0098_ _0803_ _0099_ net7 _0100_ _0087_ _0101_ VDD
+ VSS gf180mcu_fd_sc_mcu9t5v0__mux4_2
X_0938_ net2 _0102_ VDD VSS gf180mcu_fd_sc_mcu9t5v0__clkbuf_3
X_0939_ _0006_ _0003_ _0102_ _0004_ _0100_ _0087_ _0103_ VDD
+ VSS gf180mcu_fd_sc_mcu9t5v0__mux4_2
X_0940_ _0101_ _0103_ _0094_ _0104_ VDD VSS gf180mcu_fd_sc_mcu9t5v0__mux2_2
X_0941_ _0692_ _0105_ VDD VSS gf180mcu_fd_sc_mcu9t5v0__buf_4
X_0942_ _0018_ _0014_ _0019_ _0015_ _0100_ _0105_ _0106_ VDD
+ VSS gf180mcu_fd_sc_mcu9t5v0__mux4_2
X_0943_ _0762_ _0107_ VDD VSS gf180mcu_fd_sc_mcu9t5v0__clkbuf_8
X_0944_ net1 net12 net23 _0021_ _0107_ _0105_ _0108_ VDD VSS
+ gf180mcu_fd_sc_mcu9t5v0__mux4_2
X_0945_ _0093_ _0109_ VDD VSS gf180mcu_fd_sc_mcu9t5v0__buf_4
X_0946_ _0106_ _0108_ _0109_ _0110_ VDD VSS gf180mcu_fd_sc_mcu9t5v0__mux2_2
X_0947_ _0096_ _0111_ VDD VSS gf180mcu_fd_sc_mcu9t5v0__clkbuf_8
X_0948_ _0104_ _0110_ _0111_ _0112_ VDD VSS gf180mcu_fd_sc_mcu9t5v0__mux2_2
X_0949_ net37 _0113_ VDD VSS gf180mcu_fd_sc_mcu9t5v0__clkinv_2
X_0950_ _0113_ _0114_ VDD VSS gf180mcu_fd_sc_mcu9t5v0__clkbuf_8
X_0951_ _0097_ _0112_ _0114_ _0115_ VDD VSS gf180mcu_fd_sc_mcu9t5v0__mux2_2
X_0952_ _0056_ _0072_ _0074_ _0115_ _0116_ VDD VSS gf180mcu_fd_sc_mcu9t5v0__aoi211_4
X_0953_ _0055_ _0060_ _0116_ net39 VDD VSS gf180mcu_fd_sc_mcu9t5v0__aoi21_4
X_0954_ net24 net25 _0641_ _0117_ VDD VSS gf180mcu_fd_sc_mcu9t5v0__mux2_4
X_0955_ _0061_ _0117_ _0118_ VDD VSS gf180mcu_fd_sc_mcu9t5v0__and2_2
X_0956_ _0046_ net20 _0043_ net22 _0100_ _0024_ _0119_ VDD
+ VSS gf180mcu_fd_sc_mcu9t5v0__mux4_2
X_0957_ _0118_ _0119_ _0027_ _0120_ VDD VSS gf180mcu_fd_sc_mcu9t5v0__mux2_2
X_0958_ _0033_ _0121_ VDD VSS gf180mcu_fd_sc_mcu9t5v0__clkbuf_8
X_0959_ _0732_ _0752_ _0121_ _0122_ VDD VSS gf180mcu_fd_sc_mcu9t5v0__and3_2
X_0960_ _0732_ _0752_ _0123_ VDD VSS gf180mcu_fd_sc_mcu9t5v0__nand2_4
X_0961_ _0090_ _0091_ _0082_ _0083_ _0100_ _0024_ _0124_ VDD
+ VSS gf180mcu_fd_sc_mcu9t5v0__mux4_4
X_0962_ net3 net5 _0804_ _0125_ VDD VSS gf180mcu_fd_sc_mcu9t5v0__mux2_2
X_0963_ _0102_ _0098_ _0805_ _0126_ VDD VSS gf180mcu_fd_sc_mcu9t5v0__mux2_2
X_0964_ _0651_ _0127_ VDD VSS gf180mcu_fd_sc_mcu9t5v0__clkbuf_8
X_0965_ _0125_ _0126_ _0127_ _0128_ VDD VSS gf180mcu_fd_sc_mcu9t5v0__mux2_2
X_0966_ _0124_ _0128_ _0033_ _0129_ VDD VSS gf180mcu_fd_sc_mcu9t5v0__mux2_2
X_0967_ _0123_ _0028_ _0129_ _0130_ VDD VSS gf180mcu_fd_sc_mcu9t5v0__and3_2
X_0968_ _0120_ _0122_ _0130_ _0131_ VDD VSS gf180mcu_fd_sc_mcu9t5v0__aoi21_2
X_0969_ _0114_ _0132_ VDD VSS gf180mcu_fd_sc_mcu9t5v0__buf_8
X_0970_ _0065_ _0133_ VDD VSS gf180mcu_fd_sc_mcu9t5v0__buf_4
X_0971_ _0021_ _0134_ VDD VSS gf180mcu_fd_sc_mcu9t5v0__clkinv_2
X_0972_ _0018_ _0135_ VDD VSS gf180mcu_fd_sc_mcu9t5v0__clkinv_2
X_0973_ _0014_ _0136_ VDD VSS gf180mcu_fd_sc_mcu9t5v0__clkinv_2
X_0974_ _0019_ _0137_ VDD VSS gf180mcu_fd_sc_mcu9t5v0__clkinv_2
X_0975_ _0134_ _0135_ _0136_ _0137_ _0127_ _0809_ _0138_ VDD
+ VSS gf180mcu_fd_sc_mcu9t5v0__mux4_2
X_0976_ net34 _0139_ VDD VSS gf180mcu_fd_sc_mcu9t5v0__buf_4
X_0977_ _0139_ _0140_ VDD VSS gf180mcu_fd_sc_mcu9t5v0__buf_4
X_0978_ _0102_ _0003_ _0006_ _0015_ _0086_ _0140_ _0141_ VDD
+ VSS gf180mcu_fd_sc_mcu9t5v0__mux4_2
X_0979_ _0133_ _0141_ _0142_ VDD VSS gf180mcu_fd_sc_mcu9t5v0__nor2_2
X_0980_ _0133_ _0138_ _0142_ _0143_ VDD VSS gf180mcu_fd_sc_mcu9t5v0__aoi21_2
X_0981_ net23 net1 _0030_ _0144_ VDD VSS gf180mcu_fd_sc_mcu9t5v0__mux2_2
X_0982_ net12 _0107_ _0145_ VDD VSS gf180mcu_fd_sc_mcu9t5v0__and2_2
X_0983_ _0672_ _0144_ _0145_ _0809_ _0146_ VDD VSS gf180mcu_fd_sc_mcu9t5v0__aoi22_4
X_0984_ _0133_ _0146_ _0147_ VDD VSS gf180mcu_fd_sc_mcu9t5v0__nor2_2
X_0985_ _0143_ _0147_ _0062_ _0148_ VDD VSS gf180mcu_fd_sc_mcu9t5v0__mux2_2
X_0986_ _0132_ _0148_ _0149_ VDD VSS gf180mcu_fd_sc_mcu9t5v0__nand2_2
X_0987_ _0711_ _0810_ _0150_ VDD VSS gf180mcu_fd_sc_mcu9t5v0__xnor2_4
X_0988_ _0150_ _0151_ VDD VSS gf180mcu_fd_sc_mcu9t5v0__clkbuf_8
X_0989_ _0151_ _0152_ VDD VSS gf180mcu_fd_sc_mcu9t5v0__clkbuf_8
X_0990_ net17 _0153_ VDD VSS gf180mcu_fd_sc_mcu9t5v0__clkbuf_3
X_0991_ _0084_ _0085_ _0153_ _0045_ _0067_ _0016_ _0154_ VDD
+ VSS gf180mcu_fd_sc_mcu9t5v0__mux4_2
X_0992_ net7 net9 _0804_ _0155_ VDD VSS gf180mcu_fd_sc_mcu9t5v0__mux2_2
X_0993_ _0099_ _0089_ _0007_ _0156_ VDD VSS gf180mcu_fd_sc_mcu9t5v0__mux2_2
X_0994_ _0155_ _0156_ _0662_ _0157_ VDD VSS gf180mcu_fd_sc_mcu9t5v0__mux2_2
X_0995_ _0154_ _0157_ _0121_ _0158_ VDD VSS gf180mcu_fd_sc_mcu9t5v0__mux2_2
X_0996_ _0800_ _0152_ _0158_ _0159_ VDD VSS gf180mcu_fd_sc_mcu9t5v0__and3_2
X_0997_ _0058_ _0159_ _0160_ VDD VSS gf180mcu_fd_sc_mcu9t5v0__nor2_2
X_0998_ _0792_ _0131_ _0149_ _0160_ _0161_ VDD VSS gf180mcu_fd_sc_mcu9t5v0__oai211_2
X_0999_ _0040_ _0123_ _0162_ VDD VSS gf180mcu_fd_sc_mcu9t5v0__nand2_4
X_1000_ net23 net1 _0023_ _0163_ VDD VSS gf180mcu_fd_sc_mcu9t5v0__mux2_2
X_1001_ _0001_ _0163_ _0164_ VDD VSS gf180mcu_fd_sc_mcu9t5v0__nand2_2
X_1002_ _0061_ _0145_ _0165_ VDD VSS gf180mcu_fd_sc_mcu9t5v0__nand2_2
X_1003_ _0164_ _0165_ _0166_ VDD VSS gf180mcu_fd_sc_mcu9t5v0__nand2_4
X_1004_ _0031_ _0032_ _0026_ _0167_ VDD VSS gf180mcu_fd_sc_mcu9t5v0__and3_2
X_1005_ net2 _0006_ _0007_ _0168_ VDD VSS gf180mcu_fd_sc_mcu9t5v0__mux2_2
X_1006_ _0019_ _0018_ _0047_ _0169_ VDD VSS gf180mcu_fd_sc_mcu9t5v0__mux2_2
X_1007_ _0168_ _0169_ _0150_ _0170_ VDD VSS gf180mcu_fd_sc_mcu9t5v0__mux2_2
X_1008_ _0014_ _0021_ _0023_ _0171_ VDD VSS gf180mcu_fd_sc_mcu9t5v0__mux2_2
X_1009_ _0003_ _0015_ _0805_ _0172_ VDD VSS gf180mcu_fd_sc_mcu9t5v0__mux2_2
X_1010_ _0171_ _0172_ _0026_ _0173_ VDD VSS gf180mcu_fd_sc_mcu9t5v0__mux2_2
X_1011_ _0762_ _0174_ VDD VSS gf180mcu_fd_sc_mcu9t5v0__clkbuf_8
X_1012_ _0174_ _0175_ VDD VSS gf180mcu_fd_sc_mcu9t5v0__clkbuf_8
X_1013_ _0170_ _0173_ _0175_ _0176_ VDD VSS gf180mcu_fd_sc_mcu9t5v0__mux2_2
X_1014_ _0121_ _0177_ VDD VSS gf180mcu_fd_sc_mcu9t5v0__clkbuf_8
X_1015_ _0166_ _0167_ _0176_ _0177_ _0178_ VDD VSS gf180mcu_fd_sc_mcu9t5v0__aoi22_2
X_1016_ _0084_ _0085_ _0153_ _0045_ _0762_ _0692_ _0179_ VDD
+ VSS gf180mcu_fd_sc_mcu9t5v0__mux4_2
X_1017_ _0090_ _0091_ _0082_ _0083_ _0762_ _0692_ _0180_ VDD
+ VSS gf180mcu_fd_sc_mcu9t5v0__mux4_2
X_1018_ _0179_ _0180_ _0093_ _0181_ VDD VSS gf180mcu_fd_sc_mcu9t5v0__mux2_2
X_1019_ _0099_ net7 _0089_ _0051_ _0762_ _0140_ _0182_ VDD
+ VSS gf180mcu_fd_sc_mcu9t5v0__mux4_2
X_1020_ _0102_ _0004_ _0098_ _0803_ _0762_ _0140_ _0183_ VDD
+ VSS gf180mcu_fd_sc_mcu9t5v0__mux4_2
X_1021_ _0182_ _0183_ _0093_ _0184_ VDD VSS gf180mcu_fd_sc_mcu9t5v0__mux2_2
X_1022_ _0096_ _0185_ VDD VSS gf180mcu_fd_sc_mcu9t5v0__buf_4
X_1023_ _0181_ _0184_ _0185_ _0186_ VDD VSS gf180mcu_fd_sc_mcu9t5v0__mux2_2
X_1024_ net19 net21 _0030_ _0187_ VDD VSS gf180mcu_fd_sc_mcu9t5v0__mux2_2
X_1025_ net20 net22 _0030_ _0188_ VDD VSS gf180mcu_fd_sc_mcu9t5v0__mux2_2
X_1026_ _0187_ _0188_ _0067_ _0189_ VDD VSS gf180mcu_fd_sc_mcu9t5v0__mux2_2
X_1027_ _0809_ _0117_ _0190_ VDD VSS gf180mcu_fd_sc_mcu9t5v0__and2_2
X_1028_ _0189_ _0190_ _0065_ _0191_ VDD VSS gf180mcu_fd_sc_mcu9t5v0__mux2_2
X_1029_ net37 _0096_ _0192_ VDD VSS gf180mcu_fd_sc_mcu9t5v0__and2_2
X_1030_ _0192_ _0193_ VDD VSS gf180mcu_fd_sc_mcu9t5v0__clkbuf_8
X_1031_ _0132_ _0186_ _0191_ _0193_ _0194_ VDD VSS gf180mcu_fd_sc_mcu9t5v0__aoi22_2
X_1032_ _0058_ _0195_ VDD VSS gf180mcu_fd_sc_mcu9t5v0__buf_8
X_1033_ _0162_ _0178_ _0194_ _0195_ _0196_ VDD VSS gf180mcu_fd_sc_mcu9t5v0__oai211_2
X_1034_ _0161_ _0196_ net40 VDD VSS gf180mcu_fd_sc_mcu9t5v0__and2_4
X_1035_ _0132_ _0197_ VDD VSS gf180mcu_fd_sc_mcu9t5v0__clkbuf_8
X_1036_ net29 _0018_ _0772_ _0198_ VDD VSS gf180mcu_fd_sc_mcu9t5v0__mux2_2
X_1037_ net30 net28 _0030_ _0199_ VDD VSS gf180mcu_fd_sc_mcu9t5v0__mux2_2
X_1038_ _0198_ _0199_ _0037_ _0200_ VDD VSS gf180mcu_fd_sc_mcu9t5v0__mux2_2
X_1039_ _0004_ _0102_ _0003_ _0006_ _0086_ _0087_ _0201_ VDD
+ VSS gf180mcu_fd_sc_mcu9t5v0__mux4_2
X_1040_ _0200_ _0201_ _0094_ _0202_ VDD VSS gf180mcu_fd_sc_mcu9t5v0__mux2_2
X_1041_ _0093_ _0203_ VDD VSS gf180mcu_fd_sc_mcu9t5v0__buf_4
X_1042_ net26 net12 _0030_ _0204_ VDD VSS gf180mcu_fd_sc_mcu9t5v0__mux2_2
X_1043_ _0144_ _0204_ _0651_ _0205_ VDD VSS gf180mcu_fd_sc_mcu9t5v0__mux2_4
X_1044_ _0203_ _0205_ _0206_ VDD VSS gf180mcu_fd_sc_mcu9t5v0__and2_2
X_1045_ _0202_ _0206_ _0062_ _0207_ VDD VSS gf180mcu_fd_sc_mcu9t5v0__mux2_2
X_1046_ _0031_ _0032_ _0208_ VDD VSS gf180mcu_fd_sc_mcu9t5v0__and2_4
X_1047_ _0208_ _0209_ VDD VSS gf180mcu_fd_sc_mcu9t5v0__buf_4
X_1048_ _0801_ _0209_ _0210_ VDD VSS gf180mcu_fd_sc_mcu9t5v0__and2_2
X_1049_ _0085_ _0153_ _0045_ _0046_ _0067_ _0016_ _0211_ VDD
+ VSS gf180mcu_fd_sc_mcu9t5v0__mux4_2
X_1050_ _0091_ _0082_ _0083_ _0084_ _0067_ _0016_ _0212_ VDD
+ VSS gf180mcu_fd_sc_mcu9t5v0__mux4_2
X_1051_ _0211_ _0212_ _0026_ _0213_ VDD VSS gf180mcu_fd_sc_mcu9t5v0__mux2_2
X_1052_ _0197_ _0207_ _0210_ _0213_ _0195_ _0214_ VDD VSS
+ gf180mcu_fd_sc_mcu9t5v0__aoi221_4
X_1053_ _0040_ _0215_ VDD VSS gf180mcu_fd_sc_mcu9t5v0__buf_8
X_1054_ _0127_ net25 _0061_ _0216_ VDD VSS gf180mcu_fd_sc_mcu9t5v0__and3_2
X_1055_ net20 _0043_ net22 net24 _0067_ _0016_ _0217_ VDD
+ VSS gf180mcu_fd_sc_mcu9t5v0__mux4_2
X_1056_ _0216_ _0217_ _0026_ _0218_ VDD VSS gf180mcu_fd_sc_mcu9t5v0__mux2_2
X_1057_ _0089_ net10 _0007_ _0219_ VDD VSS gf180mcu_fd_sc_mcu9t5v0__mux2_2
X_1058_ _0219_ _0155_ _0037_ _0220_ VDD VSS gf180mcu_fd_sc_mcu9t5v0__mux2_2
X_1059_ _0807_ _0125_ _0037_ _0221_ VDD VSS gf180mcu_fd_sc_mcu9t5v0__mux2_2
X_1060_ _0220_ _0221_ _0011_ _0222_ VDD VSS gf180mcu_fd_sc_mcu9t5v0__mux2_2
X_1061_ _0123_ _0223_ VDD VSS gf180mcu_fd_sc_mcu9t5v0__clkbuf_8
X_1062_ _0218_ _0222_ _0223_ _0224_ VDD VSS gf180mcu_fd_sc_mcu9t5v0__mux2_2
X_1063_ _0215_ _0035_ _0224_ _0225_ VDD VSS gf180mcu_fd_sc_mcu9t5v0__nand3_2
X_1064_ _0085_ _0153_ _0045_ _0046_ _0174_ _0105_ _0226_ VDD
+ VSS gf180mcu_fd_sc_mcu9t5v0__mux4_2
X_1065_ _0091_ _0082_ _0083_ _0084_ _0100_ _0105_ _0227_ VDD
+ VSS gf180mcu_fd_sc_mcu9t5v0__mux4_2
X_1066_ _0093_ _0228_ VDD VSS gf180mcu_fd_sc_mcu9t5v0__buf_4
X_1067_ _0228_ _0229_ VDD VSS gf180mcu_fd_sc_mcu9t5v0__buf_4
X_1068_ _0226_ _0227_ _0229_ _0230_ VDD VSS gf180mcu_fd_sc_mcu9t5v0__mux2_2
X_1069_ net7 _0089_ _0051_ _0090_ _0100_ _0087_ _0231_ VDD
+ VSS gf180mcu_fd_sc_mcu9t5v0__mux4_2
X_1070_ _0004_ _0098_ _0803_ _0099_ _0107_ _0105_ _0232_ VDD
+ VSS gf180mcu_fd_sc_mcu9t5v0__mux4_2
X_1071_ _0231_ _0232_ _0203_ _0233_ VDD VSS gf180mcu_fd_sc_mcu9t5v0__mux2_2
X_1072_ _0096_ _0234_ VDD VSS gf180mcu_fd_sc_mcu9t5v0__buf_4
X_1073_ _0234_ _0235_ VDD VSS gf180mcu_fd_sc_mcu9t5v0__clkbuf_8
X_1074_ _0230_ _0233_ _0235_ _0236_ VDD VSS gf180mcu_fd_sc_mcu9t5v0__mux2_2
X_1075_ _0809_ net25 _0237_ VDD VSS gf180mcu_fd_sc_mcu9t5v0__and2_2
X_1076_ _0188_ _0237_ _0133_ _0238_ VDD VSS gf180mcu_fd_sc_mcu9t5v0__mux2_2
X_1077_ _0203_ _0079_ _0239_ VDD VSS gf180mcu_fd_sc_mcu9t5v0__and2_2
X_1078_ _0238_ _0239_ _0175_ _0240_ VDD VSS gf180mcu_fd_sc_mcu9t5v0__mux2_4
X_1079_ _0197_ _0236_ _0240_ _0193_ _0241_ VDD VSS gf180mcu_fd_sc_mcu9t5v0__aoi22_2
X_1080_ _0015_ _0014_ _0047_ _0242_ VDD VSS gf180mcu_fd_sc_mcu9t5v0__mux2_2
X_1081_ _0169_ _0242_ _0000_ _0243_ VDD VSS gf180mcu_fd_sc_mcu9t5v0__mux2_2
X_1082_ net3 _0003_ _0007_ _0244_ VDD VSS gf180mcu_fd_sc_mcu9t5v0__mux2_2
X_1083_ _0168_ _0244_ _0127_ _0245_ VDD VSS gf180mcu_fd_sc_mcu9t5v0__mux2_2
X_1084_ _0243_ _0245_ _0027_ _0246_ VDD VSS gf180mcu_fd_sc_mcu9t5v0__mux2_2
X_1085_ _0021_ net12 _0805_ _0247_ VDD VSS gf180mcu_fd_sc_mcu9t5v0__mux2_2
X_1086_ _0163_ _0247_ _0000_ _0248_ VDD VSS gf180mcu_fd_sc_mcu9t5v0__mux2_2
X_1087_ _0012_ _0248_ _0249_ VDD VSS gf180mcu_fd_sc_mcu9t5v0__and2_2
X_1088_ _0246_ _0249_ _0209_ _0250_ VDD VSS gf180mcu_fd_sc_mcu9t5v0__mux2_2
X_1089_ _0802_ _0250_ _0074_ _0251_ VDD VSS gf180mcu_fd_sc_mcu9t5v0__aoi21_2
X_1090_ _0214_ _0225_ _0241_ _0251_ net41 VDD VSS gf180mcu_fd_sc_mcu9t5v0__aoi22_4
X_1091_ _0801_ _0252_ VDD VSS gf180mcu_fd_sc_mcu9t5v0__clkbuf_12
X_1092_ net1 _0000_ _0061_ _0253_ VDD VSS gf180mcu_fd_sc_mcu9t5v0__and3_2
X_1093_ _0711_ _0692_ _0254_ VDD VSS gf180mcu_fd_sc_mcu9t5v0__nor2_4
X_1094_ _0062_ _0254_ _0255_ VDD VSS gf180mcu_fd_sc_mcu9t5v0__xnor2_2
X_1095_ _0151_ _0253_ _0255_ _0256_ VDD VSS gf180mcu_fd_sc_mcu9t5v0__and3_2
X_1096_ _0018_ net23 _0805_ _0257_ VDD VSS gf180mcu_fd_sc_mcu9t5v0__mux2_2
X_1097_ _0247_ _0257_ _0000_ _0258_ VDD VSS gf180mcu_fd_sc_mcu9t5v0__mux2_2
X_1098_ _0027_ _0258_ _0259_ VDD VSS gf180mcu_fd_sc_mcu9t5v0__and2_2
X_1099_ _0006_ _0019_ _0023_ _0260_ VDD VSS gf180mcu_fd_sc_mcu9t5v0__mux2_2
X_1100_ _0098_ _0102_ _0047_ _0261_ VDD VSS gf180mcu_fd_sc_mcu9t5v0__mux2_2
X_1101_ _0242_ _0244_ _0260_ _0261_ _0011_ _0001_ _0262_ VDD
+ VSS gf180mcu_fd_sc_mcu9t5v0__mux4_2
X_1102_ _0259_ _0262_ _0034_ _0263_ VDD VSS gf180mcu_fd_sc_mcu9t5v0__mux2_2
X_1103_ _0256_ _0263_ _0264_ VDD VSS gf180mcu_fd_sc_mcu9t5v0__or2_2
X_1104_ _0229_ _0193_ _0265_ VDD VSS gf180mcu_fd_sc_mcu9t5v0__and2_2
X_1105_ net38 _0266_ VDD VSS gf180mcu_fd_sc_mcu9t5v0__buf_8
X_1106_ _0252_ _0264_ _0265_ _0080_ _0266_ _0267_ VDD VSS
+ gf180mcu_fd_sc_mcu9t5v0__aoi221_4
X_1107_ _0077_ _0088_ _0229_ _0268_ VDD VSS gf180mcu_fd_sc_mcu9t5v0__mux2_2
X_1108_ _0092_ _0101_ _0203_ _0269_ VDD VSS gf180mcu_fd_sc_mcu9t5v0__mux2_2
X_1109_ _0268_ _0269_ _0235_ _0270_ VDD VSS gf180mcu_fd_sc_mcu9t5v0__mux2_2
X_1110_ _0197_ _0270_ _0271_ VDD VSS gf180mcu_fd_sc_mcu9t5v0__nand2_2
X_1111_ _0223_ _0209_ _0272_ VDD VSS gf180mcu_fd_sc_mcu9t5v0__nand2_4
X_1112_ _0048_ _0050_ _0028_ _0273_ VDD VSS gf180mcu_fd_sc_mcu9t5v0__mux2_2
X_1113_ _0033_ _0044_ _0274_ VDD VSS gf180mcu_fd_sc_mcu9t5v0__and2_2
X_1114_ _0732_ _0752_ _0275_ VDD VSS gf180mcu_fd_sc_mcu9t5v0__and2_2
X_1115_ _0002_ _0274_ _0275_ _0276_ VDD VSS gf180mcu_fd_sc_mcu9t5v0__mux2_2
X_1116_ _0028_ _0276_ _0277_ VDD VSS gf180mcu_fd_sc_mcu9t5v0__and2_2
X_1117_ _0152_ _0052_ _0278_ VDD VSS gf180mcu_fd_sc_mcu9t5v0__nand2_2
X_1118_ _0275_ _0279_ VDD VSS gf180mcu_fd_sc_mcu9t5v0__clkbuf_8
X_1119_ _0035_ _0278_ _0279_ _0280_ VDD VSS gf180mcu_fd_sc_mcu9t5v0__aoi21_2
X_1120_ _0272_ _0273_ _0277_ _0280_ _0215_ _0281_ VDD VSS
+ gf180mcu_fd_sc_mcu9t5v0__oai221_4
X_1121_ net1 _0068_ _0282_ VDD VSS gf180mcu_fd_sc_mcu9t5v0__and2_2
X_1122_ net27 net23 _0772_ _0283_ VDD VSS gf180mcu_fd_sc_mcu9t5v0__mux2_2
X_1123_ _0204_ _0283_ _0037_ _0284_ VDD VSS gf180mcu_fd_sc_mcu9t5v0__mux2_2
X_1124_ _0282_ _0284_ _0094_ _0285_ VDD VSS gf180mcu_fd_sc_mcu9t5v0__mux2_2
X_1125_ net31 _0019_ _0772_ _0286_ VDD VSS gf180mcu_fd_sc_mcu9t5v0__mux2_2
X_1126_ _0199_ _0286_ _0037_ _0287_ VDD VSS gf180mcu_fd_sc_mcu9t5v0__mux2_2
X_1127_ _0098_ _0004_ _0102_ _0003_ _0100_ _0087_ _0288_ VDD
+ VSS gf180mcu_fd_sc_mcu9t5v0__mux4_2
X_1128_ _0287_ _0288_ _0228_ _0289_ VDD VSS gf180mcu_fd_sc_mcu9t5v0__mux2_2
X_1129_ _0285_ _0289_ _0234_ _0290_ VDD VSS gf180mcu_fd_sc_mcu9t5v0__mux2_2
X_1130_ _0197_ _0290_ _0059_ _0291_ VDD VSS gf180mcu_fd_sc_mcu9t5v0__aoi21_2
X_1131_ _0267_ _0271_ _0281_ _0291_ net42 VDD VSS gf180mcu_fd_sc_mcu9t5v0__aoi22_4
X_1132_ _0083_ _0084_ _0085_ _0153_ _0086_ _0024_ _0292_ VDD
+ VSS gf180mcu_fd_sc_mcu9t5v0__mux4_4
X_1133_ _0045_ _0046_ net20 _0043_ _0086_ _0024_ _0293_ VDD
+ VSS gf180mcu_fd_sc_mcu9t5v0__mux4_2
X_1134_ _0292_ _0293_ _0151_ _0294_ VDD VSS gf180mcu_fd_sc_mcu9t5v0__mux2_2
X_1135_ _0806_ _0156_ _0107_ _0295_ VDD VSS gf180mcu_fd_sc_mcu9t5v0__mux2_2
X_1136_ net22 net25 _0047_ _0296_ VDD VSS gf180mcu_fd_sc_mcu9t5v0__mux2_2
X_1137_ _0174_ net24 _0297_ VDD VSS gf180mcu_fd_sc_mcu9t5v0__and2_2
X_1138_ _0672_ _0296_ _0297_ _0061_ _0298_ VDD VSS gf180mcu_fd_sc_mcu9t5v0__aoi22_4
X_1139_ _0298_ _0299_ VDD VSS gf180mcu_fd_sc_mcu9t5v0__clkinv_2
X_1140_ _0223_ _0295_ _0299_ _0122_ _0300_ VDD VSS gf180mcu_fd_sc_mcu9t5v0__aoi22_2
X_1141_ _0051_ _0090_ _0091_ _0082_ _0067_ _0016_ _0301_ VDD
+ VSS gf180mcu_fd_sc_mcu9t5v0__mux4_4
X_1142_ _0152_ _0301_ _0209_ _0302_ VDD VSS gf180mcu_fd_sc_mcu9t5v0__aoi21_2
X_1143_ _0152_ _0300_ _0302_ _0279_ _0303_ VDD VSS gf180mcu_fd_sc_mcu9t5v0__oai22_2
X_1144_ _0272_ _0294_ _0303_ _0215_ _0304_ VDD VSS gf180mcu_fd_sc_mcu9t5v0__oai211_4
X_1145_ _0014_ _0021_ _0772_ _0305_ VDD VSS gf180mcu_fd_sc_mcu9t5v0__mux2_2
X_1146_ _0305_ _0283_ _0107_ _0306_ VDD VSS gf180mcu_fd_sc_mcu9t5v0__mux2_2
X_1147_ net12 net1 _0762_ _0307_ VDD VSS gf180mcu_fd_sc_mcu9t5v0__mux2_4
X_1148_ _0809_ _0307_ _0308_ VDD VSS gf180mcu_fd_sc_mcu9t5v0__and2_2
X_1149_ _0306_ _0308_ _0065_ _0309_ VDD VSS gf180mcu_fd_sc_mcu9t5v0__mux2_2
X_1150_ net32 _0015_ _0772_ _0310_ VDD VSS gf180mcu_fd_sc_mcu9t5v0__mux2_2
X_1151_ _0310_ _0286_ _0107_ _0311_ VDD VSS gf180mcu_fd_sc_mcu9t5v0__mux2_2
X_1152_ _0803_ _0098_ _0004_ _0102_ _0067_ _0140_ _0312_ VDD
+ VSS gf180mcu_fd_sc_mcu9t5v0__mux4_2
X_1153_ _0311_ _0312_ _0094_ _0313_ VDD VSS gf180mcu_fd_sc_mcu9t5v0__mux2_2
X_1154_ _0309_ _0313_ _0111_ _0314_ VDD VSS gf180mcu_fd_sc_mcu9t5v0__mux2_2
X_1155_ _0197_ _0314_ _0059_ _0315_ VDD VSS gf180mcu_fd_sc_mcu9t5v0__aoi21_2
X_1156_ _0061_ _0307_ _0316_ VDD VSS gf180mcu_fd_sc_mcu9t5v0__and2_2
X_1157_ _0171_ _0257_ _0174_ _0317_ VDD VSS gf180mcu_fd_sc_mcu9t5v0__mux2_2
X_1158_ _0316_ _0317_ _0027_ _0318_ VDD VSS gf180mcu_fd_sc_mcu9t5v0__mux2_2
X_1159_ _0803_ _0004_ _0023_ _0319_ VDD VSS gf180mcu_fd_sc_mcu9t5v0__mux2_2
X_1160_ _0172_ _0260_ _0319_ _0261_ _0175_ _0012_ _0320_ VDD
+ VSS gf180mcu_fd_sc_mcu9t5v0__mux4_4
X_1161_ _0318_ _0320_ _0177_ _0321_ VDD VSS gf180mcu_fd_sc_mcu9t5v0__mux2_2
X_1162_ _0051_ _0090_ _0091_ _0082_ _0086_ _0140_ _0322_ VDD
+ VSS gf180mcu_fd_sc_mcu9t5v0__mux4_4
X_1163_ _0803_ _0099_ net7 _0089_ _0086_ _0087_ _0323_ VDD
+ VSS gf180mcu_fd_sc_mcu9t5v0__mux4_2
X_1164_ _0322_ _0323_ _0203_ _0324_ VDD VSS gf180mcu_fd_sc_mcu9t5v0__mux2_2
X_1165_ _0809_ net24 _0325_ VDD VSS gf180mcu_fd_sc_mcu9t5v0__and2_2
X_1166_ _0078_ _0325_ _0175_ _0326_ VDD VSS gf180mcu_fd_sc_mcu9t5v0__mux2_2
X_1167_ _0229_ _0326_ _0327_ VDD VSS gf180mcu_fd_sc_mcu9t5v0__and2_2
X_1168_ net37 _0328_ VDD VSS gf180mcu_fd_sc_mcu9t5v0__clkbuf_8
X_1169_ _0324_ _0327_ _0328_ _0329_ VDD VSS gf180mcu_fd_sc_mcu9t5v0__mux2_2
X_1170_ _0062_ _0330_ VDD VSS gf180mcu_fd_sc_mcu9t5v0__buf_4
X_1171_ _0083_ _0084_ _0085_ _0153_ _0086_ _0140_ _0331_ VDD
+ VSS gf180mcu_fd_sc_mcu9t5v0__mux4_2
X_1172_ _0075_ _0187_ _0174_ _0332_ VDD VSS gf180mcu_fd_sc_mcu9t5v0__mux2_2
X_1173_ _0331_ _0332_ _0133_ _0333_ VDD VSS gf180mcu_fd_sc_mcu9t5v0__mux2_2
X_1174_ _0114_ _0330_ _0333_ _0334_ VDD VSS gf180mcu_fd_sc_mcu9t5v0__and3_2
X_1175_ _0073_ _0334_ _0335_ VDD VSS gf180mcu_fd_sc_mcu9t5v0__or2_2
X_1176_ _0252_ _0321_ _0329_ _0235_ _0335_ _0336_ VDD VSS
+ gf180mcu_fd_sc_mcu9t5v0__aoi221_4
X_1177_ _0304_ _0315_ _0336_ net43 VDD VSS gf180mcu_fd_sc_mcu9t5v0__aoi21_4
X_1178_ _0328_ _0337_ VDD VSS gf180mcu_fd_sc_mcu9t5v0__buf_8
X_1179_ _0124_ _0157_ _0011_ _0338_ VDD VSS gf180mcu_fd_sc_mcu9t5v0__mux2_2
X_1180_ _0275_ _0209_ _0338_ _0040_ _0339_ VDD VSS gf180mcu_fd_sc_mcu9t5v0__oai31_2
X_1181_ _0065_ _0721_ _0068_ _0340_ VDD VSS gf180mcu_fd_sc_mcu9t5v0__or3_2
X_1182_ _0328_ _0068_ _0341_ VDD VSS gf180mcu_fd_sc_mcu9t5v0__nand2_2
X_1183_ _0096_ _0093_ _0810_ _0342_ VDD VSS gf180mcu_fd_sc_mcu9t5v0__or3_2
X_1184_ _0096_ _0340_ _0341_ _0342_ _0343_ VDD VSS gf180mcu_fd_sc_mcu9t5v0__oai211_4
X_1185_ _0118_ _0343_ _0123_ _0344_ VDD VSS gf180mcu_fd_sc_mcu9t5v0__aoi21_2
X_1186_ _0119_ _0154_ _0011_ _0345_ VDD VSS gf180mcu_fd_sc_mcu9t5v0__mux2_2
X_1187_ _0275_ _0034_ _0345_ _0346_ VDD VSS gf180mcu_fd_sc_mcu9t5v0__nor3_2
X_1188_ _0339_ _0344_ _0346_ _0073_ _0347_ VDD VSS gf180mcu_fd_sc_mcu9t5v0__oai31_2
X_1189_ _0169_ _0171_ _0175_ _0348_ VDD VSS gf180mcu_fd_sc_mcu9t5v0__mux2_2
X_1190_ _0012_ _0348_ _0349_ VDD VSS gf180mcu_fd_sc_mcu9t5v0__and2_2
X_1191_ _0152_ _0166_ _0349_ _0177_ _0350_ VDD VSS gf180mcu_fd_sc_mcu9t5v0__aoi211_4
X_1192_ _0099_ _0098_ _0007_ _0351_ VDD VSS gf180mcu_fd_sc_mcu9t5v0__mux2_2
X_1193_ _0319_ _0351_ _0000_ _0352_ VDD VSS gf180mcu_fd_sc_mcu9t5v0__mux2_2
X_1194_ _0064_ _0070_ _0352_ _0353_ VDD VSS gf180mcu_fd_sc_mcu9t5v0__aoi21_2
X_1195_ _0168_ _0172_ _0174_ _0354_ VDD VSS gf180mcu_fd_sc_mcu9t5v0__mux2_2
X_1196_ _0711_ _0810_ _0355_ VDD VSS gf180mcu_fd_sc_mcu9t5v0__or2_2
X_1197_ _0065_ _0810_ _0356_ VDD VSS gf180mcu_fd_sc_mcu9t5v0__nand2_2
X_1198_ _0068_ _0355_ _0356_ _0357_ VDD VSS gf180mcu_fd_sc_mcu9t5v0__oai21_2
X_1199_ _0721_ _0063_ _0357_ _0062_ _0358_ VDD VSS gf180mcu_fd_sc_mcu9t5v0__aoi22_4
X_1200_ _0354_ _0358_ _0801_ _0359_ VDD VSS gf180mcu_fd_sc_mcu9t5v0__oai21_2
X_1201_ _0254_ _0192_ _0360_ VDD VSS gf180mcu_fd_sc_mcu9t5v0__and2_2
X_1202_ _0117_ _0360_ net38 _0361_ VDD VSS gf180mcu_fd_sc_mcu9t5v0__aoi21_2
X_1203_ _0350_ _0353_ _0359_ _0361_ _0362_ VDD VSS gf180mcu_fd_sc_mcu9t5v0__oai31_2