
* cell showahead_fifo
* pin PWELL
* pin NWELL
* pin clk
* pin data_count[3]
* pin almost_empty
* pin almost_full
* pin full
* pin data_count[2]
* pin data_count[0]
* pin data_count[1]
* pin wr_data[0]
* pin rst_n
* pin wr_data[1]
* pin empty
* pin data_count[4]
* pin rd_data[5]
* pin rd_data[3]
* pin rd_data[1]
* pin rd_data[4]
* pin rd_data[2]
* pin rd_data[0]
* pin rd_en
* pin wr_en
* pin wr_data[2]
* pin wr_data[3]
* pin wr_data[4]
* pin wr_data[6]
* pin wr_data[7]
* pin wr_data[5]
* pin rd_data[7]
* pin valid
* pin rd_data[6]
.SUBCKT showahead_fifo 1 2 3 64 65 66 81 82 103 176 271 281 295 333 334 335 360
+ 361 362 389 390 437 446 703 711 712 732 734 748 749 750 751
* net 1 PWELL
* net 2 NWELL
* net 3 clk
* net 64 data_count[3]
* net 65 almost_empty
* net 66 almost_full
* net 81 full
* net 82 data_count[2]
* net 103 data_count[0]
* net 176 data_count[1]
* net 271 wr_data[0]
* net 281 rst_n
* net 295 wr_data[1]
* net 333 empty
* net 334 data_count[4]
* net 335 rd_data[5]
* net 360 rd_data[3]
* net 361 rd_data[1]
* net 362 rd_data[4]
* net 389 rd_data[2]
* net 390 rd_data[0]
* net 437 rd_en
* net 446 wr_en
* net 703 wr_data[2]
* net 711 wr_data[3]
* net 712 wr_data[4]
* net 732 wr_data[6]
* net 734 wr_data[7]
* net 748 wr_data[5]
* net 749 rd_data[7]
* net 750 valid
* net 751 rd_data[6]
* cell instance $1 m0 *1 241.3,242.2
X$1 211 107 124 2 1 71 OAI21_X4
* cell instance $10 m0 *1 273.41,242.2
X$10 192 1 2 28 CLKBUF_X3
* cell instance $17 m0 *1 238.64,242.2
X$17 218 159 1 2 211 NOR2_X1
* cell instance $20 r0 *1 238.83,242.2
X$20 218 231 1 2 232 NOR2_X1
* cell instance $21 r0 *1 239.4,242.2
X$21 191 231 1 2 233 NOR2_X1
* cell instance $22 r0 *1 239.97,242.2
X$22 232 217 124 2 1 193 OAI21_X4
* cell instance $24 r0 *1 242.63,242.2
X$24 233 217 124 2 1 196 OAI21_X4
* cell instance $27 r0 *1 247,242.2
X$27 84 196 230 1 2 251 MUX2_X1
* cell instance $32 r0 *1 253.84,242.2
X$32 33 193 255 1 2 219 MUX2_X1
* cell instance $37 r0 *1 274.17,242.2
X$37 192 1 2 220 CLKBUF_X3
* cell instance $38 r0 *1 275.12,242.2
X$38 220 1 2 764 INV_X2
* cell instance $39 r0 *1 275.69,242.2
X$39 51 193 252 1 2 253 MUX2_X1
* cell instance $42 r0 *1 289.18,242.2
X$42 1 248 227 226 222 2 DFF_X1
* cell instance $44 m0 *1 290.7,242.2
X$44 116 193 227 1 2 226 MUX2_X1
* cell instance $45 m0 *1 292.22,242.2
X$45 192 1 2 222 CLKBUF_X3
* cell instance $52 r0 *1 299.06,242.2
X$52 23 196 243 1 2 244 MUX2_X1
* cell instance $53 r0 *1 300.39,242.2
X$53 1 241 195 194 222 2 DFF_X1
* cell instance $54 m0 *1 300.58,242.2
X$54 116 196 195 1 2 194 MUX2_X1
* cell instance $142 m0 *1 5.7,242.2
X$142 177 1 2 176 BUF_X1
* cell instance $222 m0 *1 207.48,242.2
X$222 179 198 166 178 1 2 224 NAND4_X1
* cell instance $223 m0 *1 208.43,242.2
X$223 179 198 166 153 1 2 223 NAND4_X1
* cell instance $227 r0 *1 209,242.2
X$227 223 169 224 1 2 245 MUX2_X1
* cell instance $229 m0 *1 209.95,242.2
X$229 1 187 180 177 200 213 2 FA_X1
* cell instance $230 m0 *1 212.99,242.2
X$230 201 200 181 182 228 169 2 1 AOI221_X2
* cell instance $232 m0 *1 215.84,242.2
X$232 181 153 204 180 183 207 2 1 AOI221_X2
* cell instance $233 m0 *1 217.93,242.2
X$233 258 129 182 2 1 181 HA_X1
* cell instance $236 m0 *1 224.39,242.2
X$236 186 122 128 1 184 2 AOI21_X1
* cell instance $237 m0 *1 225.15,242.2
X$237 260 187 129 189 1 2 186 NAND4_X1
* cell instance $240 m0 *1 227.05,242.2
X$240 260 187 757 2 1 188 HA_X1
* cell instance $243 m0 *1 230.66,242.2
X$243 188 189 1 2 191 NAND2_X1
* cell instance $244 m0 *1 231.23,242.2
X$244 190 188 189 1 2 130 NAND3_X2
* cell instance $245 m0 *1 232.56,242.2
X$245 126 158 1 2 231 NAND2_X2
* cell instance $246 m0 *1 233.51,242.2
X$246 129 158 1 2 229 NAND2_X2
* cell instance $251 r0 *1 211.09,242.2
X$251 182 225 2 1 201 AND2_X1
* cell instance $253 r0 *1 212.04,242.2
X$253 213 187 225 2 1 228 HA_X1
* cell instance $259 r0 *1 219.83,242.2
X$259 83 320 2 1 214 XNOR2_X1
* cell instance $260 r0 *1 220.97,242.2
X$260 214 207 2 215 1 XOR2_X2
* cell instance $262 r0 *1 223.06,242.2
X$262 1 107 2 215 BUF_X8
* cell instance $265 r0 *1 229.33,242.2
X$265 1 217 2 215 BUF_X8
* cell instance $269 r0 *1 233.13,242.2
X$269 190 234 189 1 2 216 NAND3_X2
* cell instance $288 m0 *1 300.58,264.6
X$288 608 326 577 1 2 581 MUX2_X1
* cell instance $323 m0 *1 295.64,264.6
X$323 413 1 2 CLKBUF_X1
* cell instance $326 r0 *1 295.64,264.6
X$326 192 1 2 413 CLKBUF_X3
* cell instance $327 r0 *1 296.59,264.6
X$327 192 1 2 605 CLKBUF_X3
* cell instance $330 r0 *1 298.11,264.6
X$330 607 348 116 1 2 606 MUX2_X1
* cell instance $381 m0 *1 253.65,236.6
X$381 1 152 97 98 8 2 DFF_X1
* cell instance $382 m0 *1 252.32,236.6
X$382 97 11 33 1 2 98 MUX2_X1
* cell instance $386 m0 *1 260.87,236.6
X$386 86 11 49 1 2 120 MUX2_X1
* cell instance $392 m0 *1 283.67,236.6
X$392 1 72 94 78 5 2 DFF_X1
* cell instance $397 m0 *1 292.41,236.6
X$397 116 21 93 1 2 87 MUX2_X1
* cell instance $399 m0 *1 242.63,236.6
X$399 84 71 99 1 2 121 MUX2_X1
* cell instance $404 r0 *1 242.63,236.6
X$404 1 146 99 121 8 2 DFF_X1
* cell instance $405 m0 *1 246.43,236.6
X$405 1 102 101 100 8 2 DFF_X1
* cell instance $406 m0 *1 245.1,236.6
X$406 101 24 84 1 2 100 MUX2_X1
* cell instance $412 r0 *1 247,236.6
X$412 146 85 80 1 2 131 MUX2_X1
* cell instance $418 r0 *1 254.22,236.6
X$418 33 71 151 1 2 150 MUX2_X1
* cell instance $419 r0 *1 255.55,236.6
X$419 132 85 152 1 2 112 MUX2_X1
* cell instance $420 r0 *1 256.88,236.6
X$420 112 73 96 1 2 262 MUX2_X1
* cell instance $422 r0 *1 258.59,236.6
X$422 1 119 86 120 28 2 DFF_X1
* cell instance $423 r0 *1 261.82,236.6
X$423 148 85 119 1 2 113 MUX2_X1
* cell instance $424 r0 *1 263.15,236.6
X$424 113 73 69 1 2 147 MUX2_X1
* cell instance $426 r0 *1 267.52,236.6
X$426 1 114 115 144 28 2 DFF_X1
* cell instance $427 r0 *1 270.75,236.6
X$427 115 11 38 1 2 144 MUX2_X1
* cell instance $432 r0 *1 291.84,236.6
X$432 1 117 93 87 5 2 DFF_X1
* cell instance $433 m0 *1 294.31,236.6
X$433 89 24 116 1 2 91 MUX2_X1
* cell instance $435 m0 *1 295.64,236.6
X$435 1 90 89 91 5 2 DFF_X1
* cell instance $471 r0 *1 296.21,236.6
X$471 117 10 90 1 2 139 MUX2_X1
* cell instance $799 m0 *1 2.09,236.6
X$799 92 1 2 82 BUF_X1
* cell instance $839 r0 *1 1.52,236.6
X$839 118 1 2 66 BUF_X1
* cell instance $840 r0 *1 2.09,236.6
X$840 104 1 2 103 BUF_X1
* cell instance $842 r0 *1 2.85,236.6
X$842 105 1 2 81 BUF_X1
* cell instance $845 r0 *1 3.99,236.6
X$845 137 1 2 65 BUF_X1
* cell instance $885 r0 *1 205.77,236.6
X$885 123 107 1 118 2 NAND2_X4
* cell instance $886 r0 *1 207.48,236.6
X$886 106 1 2 198 INV_X1
* cell instance $887 r0 *1 207.86,236.6
X$887 179 1 2 92 INV_X4
* cell instance $892 m0 *1 216.6,236.6
X$892 1 772 83 95 109 2 DFF_X1
* cell instance $899 r0 *1 217.17,236.6
X$899 83 154 2 1 108 AND2_X1
* cell instance $901 r0 *1 218.12,236.6
X$901 125 83 1 2 67 NOR2_X1
* cell instance $906 r0 *1 229.52,236.6
X$906 125 129 1 2 111 NOR2_X1
* cell instance $907 r0 *1 230.09,236.6
X$907 127 110 111 1 2 145 MUX2_X1
* cell instance $909 r0 *1 231.61,236.6
X$909 1 145 109 756 129 2 DFF_X2
* cell instance $932 m0 *1 6.65,247.8
X$932 281 2 154 1 BUF_X4
* cell instance $973 r0 *1 3.61,247.8
X$973 122 1 2 334 BUF_X1
* cell instance $1014 r0 *1 215.65,247.8
X$1014 154 1 2 282 BUF_X2
* cell instance $1015 r0 *1 216.41,247.8
X$1015 337 350 339 1 2 340 MUX2_X1
* cell instance $1016 r0 *1 217.74,247.8
X$1016 125 320 1 2 339 NOR2_X1
* cell instance $1017 r0 *1 218.31,247.8
X$1017 320 282 2 1 337 AND2_X1
* cell instance $1018 r0 *1 219.07,247.8
X$1018 1 774 320 340 321 2 DFF_X1
* cell instance $1020 m0 *1 221.92,247.8
X$1020 259 282 2 1 302 AND2_X1
* cell instance $1021 r0 *1 222.3,247.8
X$1021 124 107 189 2 283 1 OAI21_X1
* cell instance $1022 m0 *1 224.39,247.8
X$1022 305 282 2 1 304 AND2_X1
* cell instance $1023 m0 *1 223.06,247.8
X$1023 302 283 284 1 2 300 MUX2_X1
* cell instance $1027 r0 *1 223.06,247.8
X$1027 260 282 2 1 284 AND2_X1
* cell instance $1028 r0 *1 223.82,247.8
X$1028 304 283 285 1 2 343 MUX2_X1
* cell instance $1029 r0 *1 225.15,247.8
X$1029 1 343 321 344 187 2 DFF_X2
* cell instance $1030 m0 *1 228,247.8
X$1030 259 344 305 2 1 286 HA_X1
* cell instance $1033 m0 *1 230.66,247.8
X$1033 192 1 2 109 CLKBUF_X3
* cell instance $1034 m0 *1 231.61,247.8
X$1034 109 1 2 768 INV_X4
* cell instance $1036 m0 *1 238.64,247.8
X$1036 309 217 287 2 1 293 OAI21_X4
* cell instance $1040 m0 *1 243.01,247.8
X$1040 1 288 310 311 109 2 DFF_X1
* cell instance $1042 m0 *1 247.76,247.8
X$1042 235 1 2 762 INV_X2
* cell instance $1043 m0 *1 248.33,247.8
X$1043 254 55 312 1 2 289 MUX2_X1
* cell instance $1044 m0 *1 249.66,247.8
X$1044 192 1 2 235 CLKBUF_X3
* cell instance $1051 m0 *1 268.28,247.8
X$1051 325 2 10 1 BUF_X4
* cell instance $1054 r0 *1 228.76,247.8
X$1054 260 344 758 2 1 345 HA_X1
* cell instance $1055 r0 *1 230.66,247.8
X$1055 192 1 2 321 CLKBUF_X3
* cell instance $1056 r0 *1 231.61,247.8
X$1056 321 1 2 769 INV_X4
* cell instance $1057 r0 *1 232.56,247.8
X$1057 190 286 189 1 2 347 NAND3_X1
* cell instance $1058 r0 *1 233.32,247.8
X$1058 1 348 347 122 128 2 AOI21_X4
* cell instance $1062 r0 *1 245.67,247.8
X$1062 288 239 397 1 2 349 MUX2_X1
* cell instance $1064 r0 *1 247.76,247.8
X$1064 349 326 289 1 2 370 MUX2_X1
* cell instance $1067 r0 *1 255.36,247.8
X$1067 322 239 323 1 2 324 MUX2_X1
* cell instance $1073 r0 *1 267.14,247.8
X$1073 325 2 55 1 BUF_X4
* cell instance $1075 r0 *1 268.85,247.8
X$1075 316 239 403 1 2 327 MUX2_X1
* cell instance $1076 r0 *1 270.18,247.8
X$1076 327 326 319 1 2 328 MUX2_X1
* cell instance $1077 m0 *1 270.94,247.8
X$1077 318 55 291 1 2 319 MUX2_X1
* cell instance $1081 m0 *1 276.83,247.8
X$1081 51 196 315 1 2 317 MUX2_X1
* cell instance $1084 m0 *1 285,247.8
X$1084 1 292 313 314 222 2 DFF_X1
* cell instance $1088 r0 *1 271.89,247.8
X$1088 328 351 346 1 2 411 MUX2_X1
* cell instance $1092 r0 *1 278.54,247.8
X$1092 267 55 342 1 2 329 MUX2_X1
* cell instance $1096 m0 *1 290.13,247.8
X$1096 1 341 308 269 222 2 DFF_X1
* cell instance $1100 r0 *1 293.93,247.8
X$1100 341 239 386 1 2 338 MUX2_X1
* cell instance $1103 r0 *1 295.83,247.8
X$1103 338 73 303 1 2 330 MUX2_X1
* cell instance $1105 m0 *1 296.78,247.8
X$1105 306 351 221 1 2 307 MUX2_X1
* cell instance $1109 m0 *1 300.96,247.8
X$1109 240 10 298 1 2 303 MUX2_X1
* cell instance $1111 m0 *1 302.29,247.8
X$1111 270 293 294 1 2 301 MUX2_X1
* cell instance $1112 m0 *1 303.62,247.8
X$1112 299 293 297 1 2 296 MUX2_X1
* cell instance $1113 m0 *1 304.95,247.8
X$1113 1 298 297 296 222 2 DFF_X1
* cell instance $1115 m0 *1 308.94,247.8
X$1115 295 1 2 299 CLKBUF_X2
* cell instance $1187 r0 *1 493.24,247.8
X$1187 336 331 1 2 332 NOR2_X1
* cell instance $1190 r0 *1 494.38,247.8
X$1190 331 1 2 333 BUF_X1
* cell instance $1191 r0 *1 494.95,247.8
X$1191 332 1 2 335 BUF_X1
* cell instance $1224 m0 *1 4.37,239.4
X$1224 138 122 92 75 1 2 137 NOR4_X1
* cell instance $1298 m0 *1 201.78,239.4
X$1298 106 166 2 138 1 XOR2_X2
* cell instance $1302 m0 *1 204.82,239.4
X$1302 92 75 106 1 2 123 NAND3_X2
* cell instance $1303 m0 *1 206.15,239.4
X$1303 166 1 2 104 INV_X2
* cell instance $1306 r0 *1 205.58,239.4
X$1306 177 1 2 106 BUF_X2
* cell instance $1307 r0 *1 206.34,239.4
X$1307 153 169 1 2 75 XNOR2_X2
* cell instance $1308 m0 *1 208.05,239.4
X$1308 92 106 104 153 1 2 141 NOR4_X1
* cell instance $1309 m0 *1 207.1,239.4
X$1309 92 106 104 178 1 2 140 NOR4_X1
* cell instance $1311 m0 *1 209.19,239.4
X$1311 140 169 141 1 2 143 MUX2_X1
* cell instance $1312 m0 *1 210.52,239.4
X$1312 1 128 2 143 BUF_X8
* cell instance $1316 m0 *1 220.02,239.4
X$1316 124 107 105 1 2 NOR2_X4
* cell instance $1319 r0 *1 208.24,239.4
X$1319 153 1 2 178 INV_X1
* cell instance $1322 r0 *1 209.19,239.4
X$1322 182 180 1 2 179 XNOR2_X2
* cell instance $1326 r0 *1 216.03,239.4
X$1326 154 1 2 125 INV_X2
* cell instance $1329 r0 *1 217.17,239.4
X$1329 153 182 2 1 183 AND2_X1
* cell instance $1331 r0 *1 218.12,239.4
X$1331 205 2 153 1 BUF_X4
* cell instance $1334 r0 *1 220.4,239.4
X$1334 155 157 205 2 1 204 HA_X1
* cell instance $1336 m0 *1 223.82,239.4
X$1336 1 156 109 755 157 2 DFF_X2
* cell instance $1340 m0 *1 229.71,239.4
X$1340 125 126 1 2 127 NOR2_X1
* cell instance $1341 m0 *1 230.28,239.4
X$1341 191 122 128 1 110 2 AOI21_X1
* cell instance $1344 r0 *1 224.01,239.4
X$1344 209 184 185 1 2 156 MUX2_X1
* cell instance $1345 r0 *1 225.34,239.4
X$1345 125 157 1 2 185 NOR2_X1
* cell instance $1348 r0 *1 226.86,239.4
X$1348 125 158 1 2 209 NOR2_X1
* cell instance $1351 r0 *1 229.14,239.4
X$1351 157 1 2 158 INV_X2
* cell instance $1352 r0 *1 229.71,239.4
X$1352 126 157 1 2 159 NAND2_X2
* cell instance $1355 m0 *1 231.42,239.4
X$1355 129 1 2 126 INV_X2
* cell instance $1356 m0 *1 232.18,239.4
X$1356 1 24 130 122 128 2 AOI21_X4
* cell instance $1360 r0 *1 231.8,239.4
X$1360 126 158 1 2 190 NOR2_X2
* cell instance $1364 r0 *1 234.08,239.4
X$1364 1 11 216 122 128 2 AOI21_X4
* cell instance $1367 r0 *1 238.83,239.4
X$1367 191 159 1 2 212 NOR2_X1
* cell instance $1368 r0 *1 239.4,239.4
X$1368 212 107 124 2 1 21 OAI21_X4
* cell instance $1376 r0 *1 246.43,239.4
X$1376 1 174 175 210 8 2 DFF_X1
* cell instance $1377 m0 *1 247.19,239.4
X$1377 84 21 175 1 2 210 MUX2_X1
* cell instance $1379 m0 *1 248.52,239.4
X$1379 131 73 149 1 2 290 MUX2_X1
* cell instance $1380 m0 *1 249.85,239.4
X$1380 174 10 102 1 2 149 MUX2_X1
* cell instance $1383 m0 *1 253.46,239.4
X$1383 1 132 151 150 8 2 DFF_X1
* cell instance $1388 m0 *1 260.3,239.4
X$1388 1 148 160 173 28 2 DFF_X1
* cell instance $1392 m0 *1 266.76,239.4
X$1392 1 134 133 172 28 2 DFF_X1
* cell instance $1393 m0 *1 269.99,239.4
X$1393 134 85 114 1 2 135 MUX2_X1
* cell instance $1395 m0 *1 271.51,239.4
X$1395 135 73 50 1 2 346 MUX2_X1
* cell instance $1400 r0 *1 262.77,239.4
X$1400 49 71 160 1 2 173 MUX2_X1
* cell instance $1404 r0 *1 267.71,239.4
X$1404 38 71 133 1 2 172 MUX2_X1
* cell instance $1408 r0 *1 272.65,239.4
X$1408 1 208 206 171 28 2 DFF_X1
* cell instance $1409 m0 *1 277.97,239.4
X$1409 136 11 51 1 2 142 MUX2_X1
* cell instance $1410 m0 *1 274.74,239.4
X$1410 1 161 136 142 28 2 DFF_X1
* cell instance $1414 r0 *1 275.88,239.4
X$1414 51 71 206 1 2 171 MUX2_X1
* cell instance $1416 r0 *1 277.4,239.4
X$1416 208 55 161 1 2 203 MUX2_X1
* cell instance $1419 r0 *1 280.63,239.4
X$1419 203 73 162 1 2 202 MUX2_X1
* cell instance $1422 m0 *1 281.96,239.4
X$1422 170 11 116 1 2 163 MUX2_X1
* cell instance $1425 m0 *1 285.76,239.4
X$1425 116 71 168 1 2 164 MUX2_X1
* cell instance $1429 r0 *1 282.15,239.4
X$1429 1 199 170 163 5 2 DFF_X1
* cell instance $1431 r0 *1 285.57,239.4
X$1431 1 167 168 164 5 2 DFF_X1
* cell instance $1432 r0 *1 288.8,239.4
X$1432 167 55 199 1 2 197 MUX2_X1
* cell instance $1434 m0 *1 289.75,239.4
X$1434 192 1 2 5 CLKBUF_X3
* cell instance $1471 r0 *1 295.26,239.4
X$1471 197 73 139 1 2 221 MUX2_X1
* cell instance $11161 m0 *1 243.77,281.4
X$11161 734 1 2 477 CLKBUF_X2
* cell instance $11214 r0 *1 254.03,281.4
X$11214 748 1 2 454 CLKBUF_X2
* cell instance $13807 m0 *1 232.37,264.6
X$13807 192 1 2 494 CLKBUF_X3
* cell instance $13808 m0 *1 233.32,264.6
X$13808 494 1 2 767 INV_X4
* cell instance $13811 m0 *1 235.22,264.6
X$13811 1 585 597 583 496 2 DFF_X1
* cell instance $13873 r0 *1 237.69,264.6
X$13873 597 348 84 1 2 583 MUX2_X1
* cell instance $13874 m0 *1 239.02,264.6
X$13874 586 542 585 1 2 589 MUX2_X1
* cell instance $13876 m0 *1 240.35,264.6
X$13876 496 1 2 763 INV_X2
* cell instance $13884 r0 *1 241.68,264.6
X$13884 654 539 590 1 2 610 MUX2_X1
* cell instance $13885 r0 *1 243.01,264.6
X$13885 610 369 410 2 1 611 MUX2_X2
* cell instance $13887 m0 *1 243.2,264.6
X$13887 589 572 533 1 2 590 MUX2_X1
* cell instance $13891 m0 *1 255.93,264.6
X$13891 1 593 592 571 517 2 DFF_X1
* cell instance $13897 r0 *1 249.47,264.6
X$13897 614 1 2 770 INV_X1
* cell instance $13898 r0 *1 249.85,264.6
X$13898 192 1 2 614 CLKBUF_X3
* cell instance $13900 r0 *1 250.99,264.6
X$13900 663 539 599 1 2 616 MUX2_X1
* cell instance $13903 r0 *1 252.89,264.6
X$13903 616 516 410 2 1 617 MUX2_X2
* cell instance $13906 r0 *1 258.4,264.6
X$13906 1 619 573 618 517 2 DFF_X1
* cell instance $13908 m0 *1 260.3,264.6
X$13908 593 542 619 1 2 574 MUX2_X1
* cell instance $13913 r0 *1 261.63,264.6
X$13913 573 348 49 1 2 618 MUX2_X1
* cell instance $13918 r0 *1 267.33,264.6
X$13918 600 348 38 1 2 638 MUX2_X1
* cell instance $13922 r0 *1 271.13,264.6
X$13922 1 594 576 615 498 2 DFF_X1
* cell instance $13923 r0 *1 274.36,264.6
X$13923 576 348 51 1 2 615 MUX2_X1
* cell instance $13926 r0 *1 276.83,264.6
X$13926 1 613 645 612 602 2 DFF_X1
* cell instance $13927 m0 *1 278.16,264.6
X$13927 613 471 594 1 2 595 MUX2_X1
* cell instance $13932 m0 *1 292.41,264.6
X$13932 604 539 581 1 2 435 MUX2_X1
* cell instance $13941 r0 *1 289.94,264.6
X$13941 116 501 652 1 2 603 MUX2_X1
* cell instance $13944 r0 *1 294.5,264.6
X$13944 270 1 2 116 BUF_X2
* cell instance $14048 r0 *1 232.94,278.6
X$14048 732 1 2 420 CLKBUF_X2
* cell instance $14057 m0 *1 246.24,278.6
X$14057 477 526 737 1 2 728 MUX2_X1
* cell instance $14062 m0 *1 257.07,278.6
X$14062 1 740 739 738 614 2 DFF_X1
* cell instance $14067 m0 *1 269.99,278.6
X$14067 1 699 744 743 602 2 DFF_X1
* cell instance $14071 m0 *1 277.02,278.6
X$14071 1 700 730 746 602 2 DFF_X1
* cell instance $14072 m0 *1 280.25,278.6
X$14072 445 526 730 1 2 746 MUX2_X1
* cell instance $14075 m0 *1 284.81,278.6
X$14075 1 733 735 745 602 2 DFF_X1
* cell instance $14269 r0 *1 234.27,270.2
X$14269 1 677 662 660 496 2 DFF_X1
* cell instance $14270 m0 *1 235.98,270.2
X$14270 84 491 662 1 2 660 MUX2_X1
* cell instance $14281 r0 *1 237.5,270.2
X$14281 677 325 653 1 2 679 MUX2_X1
* cell instance $14284 r0 *1 240.54,270.2
X$14284 679 400 680 1 2 654 MUX2_X1
* cell instance $14285 r0 *1 241.87,270.2
X$14285 681 542 664 1 2 680 MUX2_X1
* cell instance $14289 r0 *1 248.14,270.2
X$14289 325 2 542 1 BUF_X4
* cell instance $14292 r0 *1 250.04,270.2
X$14292 682 400 655 1 2 663 MUX2_X1
* cell instance $14297 r0 *1 256.88,270.2
X$14297 49 491 685 1 2 686 MUX2_X1
* cell instance $14299 r0 *1 258.97,270.2
X$14299 665 325 740 1 2 687 MUX2_X1
* cell instance $14300 m0 *1 259.35,270.2
X$14300 454 1 2 49 BUF_X2
* cell instance $14308 r0 *1 261.25,270.2
X$14308 49 501 690 1 2 688 MUX2_X1
* cell instance $14314 r0 *1 268.47,270.2
X$14314 325 2 471 1 BUF_X4
* cell instance $14315 m0 *1 269.04,270.2
X$14315 450 1 2 38 BUF_X2
* cell instance $14320 m0 *1 277.59,270.2
X$14320 51 491 659 1 2 661 MUX2_X1
* cell instance $14321 m0 *1 278.92,270.2
X$14321 51 501 657 1 2 693 MUX2_X1
* cell instance $14363 r0 *1 276.64,270.2
X$14363 1 656 659 661 602 2 DFF_X1
* cell instance $14371 r0 *1 296.59,270.2
X$14371 658 348 4 1 2 678 MUX2_X1
* cell instance $14375 r0 *1 299.25,270.2
X$14375 676 471 673 1 2 608 MUX2_X1
* cell instance $14377 r0 *1 302.1,270.2
X$14377 1 676 674 675 605 2 DFF_X1
* cell instance $14672 m0 *1 239.4,267.4
X$14672 420 1 2 84 BUF_X2
* cell instance $14725 r0 *1 239.4,267.4
X$14725 1 681 620 631 496 2 DFF_X1
* cell instance $14726 r0 *1 242.63,267.4
X$14726 84 501 620 1 2 631 MUX2_X1
* cell instance $14729 r0 *1 244.91,267.4
X$14729 400 2 572 1 BUF_X4
* cell instance $14730 m0 *1 249.47,267.4
X$14730 632 542 634 1 2 598 MUX2_X1
* cell instance $14731 m0 *1 246.24,267.4
X$14731 1 632 633 621 517 2 DFF_X1
* cell instance $14732 m0 *1 250.8,267.4
X$14732 598 572 515 1 2 599 MUX2_X1
* cell instance $14733 m0 *1 252.13,267.4
X$14733 192 1 2 517 CLKBUF_X3
* cell instance $14734 m0 *1 253.08,267.4
X$14734 517 1 2 761 INV_X2
* cell instance $14739 m0 *1 265.05,267.4
X$14739 1 640 600 638 498 2 DFF_X1
* cell instance $14742 r0 *1 246.24,267.4
X$14742 477 438 633 1 2 621 MUX2_X1
* cell instance $14743 r0 *1 247.57,267.4
X$14743 1 634 622 635 614 2 DFF_X1
* cell instance $14744 r0 *1 250.8,267.4
X$14744 622 348 33 1 2 635 MUX2_X1
* cell instance $14750 r0 *1 268.28,267.4
X$14750 1 641 643 642 498 2 DFF_X1
* cell instance $14752 m0 *1 269.42,267.4
X$14752 641 471 640 1 2 601 MUX2_X1
* cell instance $14755 r0 *1 271.51,267.4
X$14755 450 438 643 1 2 642 MUX2_X1
* cell instance $14759 r0 *1 277.02,267.4
X$14759 498 1 2 766 INV_X2
* cell instance $14760 r0 *1 277.59,267.4
X$14760 192 1 2 498 CLKBUF_X3
* cell instance $14761 m0 *1 278.16,267.4
X$14761 445 438 645 1 2 612 MUX2_X1
* cell instance $14766 m0 *1 284.81,267.4
X$14766 1 625 626 651 498 2 DFF_X1
* cell instance $14767 m0 *1 288.04,267.4
X$14767 270 500 626 1 2 651 MUX2_X1
* cell instance $14769 m0 *1 289.56,267.4
X$14769 1 637 652 603 605 2 DFF_X1
* cell instance $14770 m0 *1 292.79,267.4
X$14770 650 572 609 1 2 557 MUX2_X1
* cell instance $14771 m0 *1 294.12,267.4
X$14771 637 471 636 1 2 609 MUX2_X1
* cell instance $14772 m0 *1 295.45,267.4
X$14772 605 1 2 760 INV_X2
* cell instance $14775 m0 *1 297.73,267.4
X$14775 1 629 607 606 605 2 DFF_X1
* cell instance $14776 m0 *1 300.96,267.4
X$14776 628 471 629 1 2 580 MUX2_X1
* cell instance $14814 r0 *1 278.54,267.4
X$14814 192 1 2 602 CLKBUF_X3
* cell instance $14816 r0 *1 282.53,267.4
X$14816 116 491 648 1 2 647 MUX2_X1
* cell instance $14817 r0 *1 283.86,267.4
X$14817 1 649 648 647 602 2 DFF_X1
* cell instance $14818 r0 *1 287.09,267.4
X$14818 649 542 625 1 2 650 MUX2_X1
* cell instance $14822 r0 *1 292.03,267.4
X$14822 270 526 644 1 2 639 MUX2_X1
* cell instance $14823 r0 *1 293.36,267.4
X$14823 1 636 644 639 605 2 DFF_X1
* cell instance $14828 r0 *1 300.96,267.4
X$14828 1 628 627 630 605 2 DFF_X1
* cell instance $14829 r0 *1 304.19,267.4
X$14829 270 438 627 1 2 630 MUX2_X1
* cell instance $14980 r0 *1 236.36,273
X$14980 420 500 714 1 2 713 MUX2_X1
* cell instance $14983 r0 *1 239.4,273
X$14983 1 664 715 694 614 2 DFF_X1
* cell instance $14991 r0 *1 247.57,273
X$14991 33 501 695 1 2 696 MUX2_X1
* cell instance $14994 r0 *1 250.61,273
X$14994 1 684 707 706 614 2 DFF_X1
* cell instance $14996 m0 *1 250.8,273
X$14996 684 325 683 1 2 682 MUX2_X1
* cell instance $14998 r0 *1 253.84,273
X$14998 33 491 707 1 2 706 MUX2_X1
* cell instance $15000 m0 *1 255.74,273
X$15000 1 665 685 686 614 2 DFF_X1
* cell instance $15004 m0 *1 263.34,273
X$15004 687 572 667 1 2 623 MUX2_X1
* cell instance $15005 m0 *1 260.11,273
X$15005 1 666 690 688 614 2 DFF_X1
* cell instance $15009 r0 *1 261.44,273
X$15009 666 542 720 1 2 667 MUX2_X1
* cell instance $15011 r0 *1 264.29,273
X$15011 1 697 668 692 602 2 DFF_X1
* cell instance $15012 m0 *1 266.76,273
X$15012 38 491 668 1 2 692 MUX2_X1
* cell instance $15017 m0 *1 270.56,273
X$15017 691 572 669 1 2 624 MUX2_X1
* cell instance $15022 r0 *1 267.71,273
X$15022 697 325 698 1 2 691 MUX2_X1
* cell instance $15025 r0 *1 269.99,273
X$15025 38 501 724 1 2 725 MUX2_X1
* cell instance $15027 r0 *1 271.51,273
X$15027 726 471 699 1 2 669 MUX2_X1
* cell instance $15029 m0 *1 280.06,273
X$15029 656 542 705 1 2 671 MUX2_X1
* cell instance $15030 m0 *1 276.83,273
X$15030 1 670 657 693 602 2 DFF_X1
* cell instance $15031 m0 *1 281.39,273
X$15031 671 572 689 1 2 646 MUX2_X1
* cell instance $15038 r0 *1 279.49,273
X$15038 670 471 700 1 2 689 MUX2_X1
* cell instance $15043 r0 *1 283.67,273
X$15043 4 491 723 1 2 701 MUX2_X1
* cell instance $15048 r0 *1 290.13,273
X$15048 4 501 719 1 2 731 MUX2_X1
* cell instance $15050 m0 *1 291.46,273
X$15050 704 572 672 1 2 604 MUX2_X1
* cell instance $15052 m0 *1 294.5,273
X$15052 434 1 2 4 BUF_X2
* cell instance $15055 m0 *1 297.54,273
X$15055 1 673 658 678 605 2 DFF_X1
* cell instance $15060 r0 *1 292.41,273
X$15060 702 471 717 1 2 672 MUX2_X1
* cell instance $15064 m0 *1 304.19,273
X$15064 434 438 674 1 2 675 MUX2_X1
* cell instance $15288 m0 *1 235.22,275.8
X$15288 1 653 714 713 496 2 DFF_X1
* cell instance $15293 m0 *1 239.78,275.8
X$15293 420 526 715 1 2 694 MUX2_X1
* cell instance $15298 m0 *1 245.86,275.8
X$15298 1 708 695 696 614 2 DFF_X1
* cell instance $15299 m0 *1 249.09,275.8
X$15299 708 542 718 1 2 655 MUX2_X1
* cell instance $15307 r0 *1 246.43,275.8
X$15307 1 718 737 728 614 2 DFF_X1
* cell instance $15308 r0 *1 249.66,275.8
X$15308 1 683 709 736 614 2 DFF_X1
* cell instance $15309 r0 *1 252.89,275.8
X$15309 477 500 709 1 2 736 MUX2_X1
* cell instance $15312 r0 *1 258.02,275.8
X$15312 454 500 739 1 2 738 MUX2_X1
* cell instance $15313 m0 *1 259.35,275.8
X$15313 454 526 722 1 2 729 MUX2_X1
* cell instance $15319 r0 *1 259.54,275.8
X$15319 1 720 722 729 614 2 DFF_X1
* cell instance $15323 r0 *1 265.43,275.8
X$15323 1 698 742 741 602 2 DFF_X1
* cell instance $15324 r0 *1 268.66,275.8
X$15324 450 500 742 1 2 741 MUX2_X1
* cell instance $15326 m0 *1 270.37,275.8
X$15326 1 726 724 725 602 2 DFF_X1
* cell instance $15331 m0 *1 276.07,275.8
X$15331 712 1 2 450 CLKBUF_X2
* cell instance $15335 r0 *1 270.94,275.8
X$15335 450 526 744 1 2 743 MUX2_X1
* cell instance $15339 m0 *1 278.73,275.8
X$15339 1 705 747 727 602 2 DFF_X1
* cell instance $15341 m0 *1 284.24,275.8
X$15341 1 721 723 701 602 2 DFF_X1
* cell instance $15342 m0 *1 287.47,275.8
X$15342 721 542 733 1 2 704 MUX2_X1
* cell instance $15348 r0 *1 279.68,275.8
X$15348 445 500 747 1 2 727 MUX2_X1
* cell instance $15351 r0 *1 282.15,275.8
X$15351 711 1 2 445 CLKBUF_X2
* cell instance $15359 r0 *1 285.76,275.8
X$15359 434 500 735 1 2 745 MUX2_X1
* cell instance $15361 r0 *1 290.13,275.8
X$15361 1 702 719 731 605 2 DFF_X1
* cell instance $15363 m0 *1 291.46,275.8
X$15363 1 717 710 716 605 2 DFF_X1
* cell instance $15366 m0 *1 307.61,275.8
X$15366 703 1 2 434 BUF_X2
* cell instance $15403 r0 *1 293.36,275.8
X$15403 434 526 710 1 2 716 MUX2_X1
* cell instance $15531 m0 *1 213.75,259
X$15531 376 457 480 1 2 485 MUX2_X1
* cell instance $15532 m0 *1 215.27,259
X$15532 376 457 493 1 2 503 MUX2_X1
* cell instance $15533 m0 *1 216.6,259
X$15533 1 258 427 495 494 2 DFF_X1
* cell instance $15534 m0 *1 219.83,259
X$15534 488 458 481 1 2 495 MUX2_X1
* cell instance $15540 r0 *1 221.92,259
X$15540 1 773 549 429 494 2 DFF_X1
* cell instance $15542 m0 *1 226.29,259
X$15542 1 771 505 503 494 2 DFF_X1
* cell instance $15546 m0 *1 230.47,259
X$15546 505 1 2 400 CLKBUF_X3
* cell instance $15551 r0 *1 231.61,259
X$15551 1 776 530 495 494 2 DFF_X1
* cell instance $15553 r0 *1 235.03,259
X$15553 530 2 325 1 BUF_X4
* cell instance $15559 m0 *1 241.68,259
X$15559 1 509 492 483 496 2 DFF_X1
* cell instance $15562 m0 *1 249.66,259
X$15562 477 462 513 1 2 512 MUX2_X1
* cell instance $15565 r0 *1 242.44,259
X$15565 531 368 84 1 2 555 MUX2_X1
* cell instance $15568 r0 *1 245.48,259
X$15568 509 239 556 1 2 533 MUX2_X1
* cell instance $15571 r0 *1 248.71,259
X$15571 1 534 513 512 517 2 DFF_X1
* cell instance $15572 r0 *1 251.94,259
X$15572 534 239 514 1 2 515 MUX2_X1
* cell instance $15573 m0 *1 252.32,259
X$15573 325 2 85 1 BUF_X4
* cell instance $15578 m0 *1 257.64,259
X$15578 454 462 497 1 2 536 MUX2_X1
* cell instance $15582 m0 *1 267.33,259
X$15582 1 499 484 511 498 2 DFF_X1
* cell instance $15586 m0 *1 274.55,259
X$15586 510 368 51 1 2 535 MUX2_X1
* cell instance $15591 r0 *1 255.55,259
X$15591 1 561 497 536 517 2 DFF_X1
* cell instance $15593 r0 *1 260.3,259
X$15593 1 562 518 537 517 2 DFF_X1
* cell instance $15594 r0 *1 263.53,259
X$15594 518 368 49 1 2 537 MUX2_X1
* cell instance $15597 r0 *1 268.66,259
X$15597 567 368 38 1 2 566 MUX2_X1
* cell instance $15601 r0 *1 273.6,259
X$15601 1 532 510 535 498 2 DFF_X1
* cell instance $15602 r0 *1 276.83,259
X$15602 1 570 508 519 498 2 DFF_X1
* cell instance $15604 m0 *1 277.78,259
X$15604 445 462 508 1 2 519 MUX2_X1
* cell instance $15611 r0 *1 282.91,259
X$15611 23 491 569 1 2 521 MUX2_X1
* cell instance $15612 r0 *1 284.24,259
X$15612 1 522 523 507 413 2 DFF_X1
* cell instance $15614 m0 *1 286.33,259
X$15614 299 500 523 1 2 507 MUX2_X1
* cell instance $15617 m0 *1 290.13,259
X$15617 23 501 506 1 2 524 MUX2_X1
* cell instance $15622 r0 *1 289.37,259
X$15622 1 525 506 524 413 2 DFF_X1
* cell instance $15623 r0 *1 292.6,259
X$15623 1 559 529 504 413 2 DFF_X1
* cell instance $15625 m0 *1 293.36,259
X$15625 299 526 529 1 2 504 MUX2_X1
* cell instance $15628 m0 *1 305.33,259
X$15628 270 462 502 1 2 528 MUX2_X1
* cell instance $15664 r0 *1 304.38,259
X$15664 1 548 502 528 413 2 DFF_X1
* cell instance $15770 m0 *1 212.04,256.2
X$15770 456 128 107 1 457 2 AOI21_X2
* cell instance $15772 m0 *1 219.45,256.2
X$15772 428 107 128 1 458 2 AOI21_X1
* cell instance $15819 r0 *1 211.09,256.2
X$15819 1 485 494 486 375 2 DFF_X2
* cell instance $15822 r0 *1 215.27,256.2
X$15822 486 282 2 1 480 AND2_X1
* cell instance $15823 r0 *1 216.03,256.2
X$15823 125 375 1 2 493 NOR2_X1
* cell instance $15828 r0 *1 219.45,256.2
X$15828 125 427 1 2 481 NOR2_X1
* cell instance $15829 r0 *1 220.02,256.2
X$15829 427 282 2 1 488 AND2_X1
* cell instance $15830 m0 *1 221.35,256.2
X$15830 125 430 1 2 459 NOR2_X1
* cell instance $15831 m0 *1 220.59,256.2
X$15831 469 107 128 1 487 2 AOI21_X1
* cell instance $15834 r0 *1 220.97,256.2
X$15834 489 487 459 1 2 429 MUX2_X1
* cell instance $15836 m0 *1 222.3,256.2
X$15836 430 282 2 1 489 AND2_X1
* cell instance $15837 m0 *1 224.58,256.2
X$15837 1 287 124 2 BUF_X16
* cell instance $15845 r0 *1 231.8,256.2
X$15845 490 107 124 2 1 491 OAI21_X4
* cell instance $15846 m0 *1 233.7,256.2
X$15846 229 377 1 2 482 NOR2_X1
* cell instance $15849 m0 *1 234.46,256.2
X$15849 460 217 287 2 1 438 OAI21_X4
* cell instance $15852 m0 *1 238.64,256.2
X$15852 461 217 287 2 1 526 OAI21_X4
* cell instance $15854 m0 *1 241.3,256.2
X$15854 475 217 124 2 1 501 OAI21_X4
* cell instance $15857 m0 *1 247.57,256.2
X$15857 477 1 2 33 BUF_X2
* cell instance $15861 m0 *1 253.08,256.2
X$15861 477 357 479 1 2 478 MUX2_X1
* cell instance $15865 r0 *1 234.27,256.2
X$15865 482 217 124 2 1 500 OAI21_X4
* cell instance $15869 r0 *1 241.49,256.2
X$15869 420 462 492 1 2 483 MUX2_X1
* cell instance $15873 m0 *1 259.54,256.2
X$15873 3 1 2 192 CLKBUF_X3
* cell instance $15886 r0 *1 268.09,256.2
X$15886 325 2 239 1 BUF_X4
* cell instance $15887 r0 *1 269.42,256.2
X$15887 450 462 484 1 2 511 MUX2_X1
* cell instance $15891 r0 *1 277.78,256.2
X$15891 445 1 2 51 BUF_X2
* cell instance $15897 m0 *1 295.07,256.2
X$15897 527 351 470 1 2 474 MUX2_X1
* cell instance $15900 m0 *1 298.49,256.2
X$15900 472 368 23 1 2 473 MUX2_X1