* CDL Netlist generated by OpenROAD

*.BUSDELIMITER [

.SUBCKT showahead_fifo almost_empty almost_full clk data_count[0]
+ data_count[1] data_count[2] data_count[3] data_count[4] empty
+ full peek_en rd_data[0] rd_data[1] rd_data[2] rd_data[3] rd_data[4]
+ rd_data[5] rd_data[6] rd_data[7] rd_en rst_n valid wr_data[0]
+ wr_data[1] wr_data[2] wr_data[3] wr_data[4] wr_data[5] wr_data[6]
+ wr_data[7] wr_en
X_558_ _557_ _275_ VDD VSS CLKBUF_X2
X_559_ _275_ net5 VDD VSS INV_X2
X_560_ _541_ _276_ VDD VSS BUF_X4
X_561_ _546_ _543_ _277_ VDD VSS AND2_X1
X_562_ _556_ _537_ VDD VSS INV_X1
X_563_ _545_ _277_ _537_ _542_ _546_ _278_ VDD VSS AOI221_X2
X_564_ _276_ _278_ net8 VDD VSS XNOR2_X2
X_565_ _546_ _538_ _279_ VDD VSS XNOR2_X2
X_566_ _279_ net7 VDD VSS INV_X4
X_567_ _276_ _546_ _280_ VDD VSS AND2_X1
X_568_ _540_ _545_ _276_ _280_ _538_ _281_ VDD VSS AOI221_X2
X_569_ wr_ptr\[4\] rd_ptr\[4\] _282_ VDD VSS XNOR2_X1
X_570_ _281_ _282_ _283_ VDD VSS XOR2_X2
X_571_ _283_ _284_ VDD VSS BUF_X8
X_572_ _284_ net9 VDD VSS INV_X8
X_573_ _283_ _285_ VDD VSS BUF_X8
X_574_ net6 _286_ VDD VSS BUF_X2
X_575_ _286_ _287_ VDD VSS INV_X1
X_576_ _276_ _275_ _287_ _279_ _288_ VDD VSS NAND4_X1
X_577_ _276_ _289_ VDD VSS INV_X1
X_578_ _289_ _275_ _287_ _279_ _290_ VDD VSS NAND4_X1
X_579_ _288_ _290_ _278_ _291_ VDD VSS MUX2_X1
X_580_ _291_ _292_ VDD VSS BUF_X8
X_581_ _292_ _293_ VDD VSS BUF_X16
X_582_ _285_ _293_ net11 VDD VSS NOR2_X4
X_583_ net9 _293_ net10 VDD VSS NOR2_X4
X_584_ wr_data[0] _294_ VDD VSS BUF_X2
X_585_ _294_ _295_ VDD VSS BUF_X2
X_586_ wr_ptr\[3\] _296_ VDD VSS INV_X2
X_587_ wr_ptr\[2\] _297_ VDD VSS INV_X2
X_588_ _296_ _297_ _298_ VDD VSS NAND2_X2
X_589_ wr_en _299_ VDD VSS CLKBUF_X3
X_590_ _299_ _549_ _300_ VDD VSS NAND2_X1
X_591_ _298_ _300_ _301_ VDD VSS NOR2_X1
X_592_ _301_ _293_ _285_ _302_ VDD VSS OAI21_X4
X_593_ _295_ mem\[0\]\[0\] _302_ _140_ VDD VSS MUX2_X1
X_594_ wr_data[1] _303_ VDD VSS CLKBUF_X2
X_595_ _303_ _304_ VDD VSS BUF_X2
X_596_ _304_ mem\[0\]\[1\] _302_ _141_ VDD VSS MUX2_X1
X_597_ wr_data[2] _305_ VDD VSS BUF_X2
X_598_ _305_ _306_ VDD VSS BUF_X2
X_599_ _306_ mem\[0\]\[2\] _302_ _142_ VDD VSS MUX2_X1
X_600_ wr_data[3] _307_ VDD VSS CLKBUF_X2
X_601_ _307_ _308_ VDD VSS BUF_X2
X_602_ _308_ mem\[0\]\[3\] _302_ _143_ VDD VSS MUX2_X1
X_603_ wr_data[4] _309_ VDD VSS CLKBUF_X2
X_604_ _309_ _310_ VDD VSS BUF_X2
X_605_ _310_ mem\[0\]\[4\] _302_ _144_ VDD VSS MUX2_X1
X_606_ wr_data[5] _311_ VDD VSS CLKBUF_X2
X_607_ _311_ _312_ VDD VSS BUF_X2
X_608_ _312_ mem\[0\]\[5\] _302_ _145_ VDD VSS MUX2_X1
X_609_ wr_data[6] _313_ VDD VSS CLKBUF_X2
X_610_ _313_ _314_ VDD VSS BUF_X2
X_611_ _314_ mem\[0\]\[6\] _302_ _146_ VDD VSS MUX2_X1
X_612_ wr_data[7] _315_ VDD VSS CLKBUF_X2
X_613_ _315_ _316_ VDD VSS BUF_X2
X_614_ _316_ mem\[0\]\[7\] _302_ _147_ VDD VSS MUX2_X1
X_615_ wr_ptr\[3\] _297_ _317_ VDD VSS NAND2_X2
X_616_ _299_ _550_ _318_ VDD VSS NAND2_X1
X_617_ _317_ _318_ _319_ VDD VSS NOR2_X1
X_618_ _319_ _293_ _285_ _320_ VDD VSS OAI21_X4
X_619_ _295_ mem\[10\]\[0\] _320_ _148_ VDD VSS MUX2_X1
X_620_ _304_ mem\[10\]\[1\] _320_ _149_ VDD VSS MUX2_X1
X_621_ _306_ mem\[10\]\[2\] _320_ _150_ VDD VSS MUX2_X1
X_622_ _308_ mem\[10\]\[3\] _320_ _151_ VDD VSS MUX2_X1
X_623_ _310_ mem\[10\]\[4\] _320_ _152_ VDD VSS MUX2_X1
X_624_ _312_ mem\[10\]\[5\] _320_ _153_ VDD VSS MUX2_X1
X_625_ _314_ mem\[10\]\[6\] _320_ _154_ VDD VSS MUX2_X1
X_626_ _316_ mem\[10\]\[7\] _320_ _155_ VDD VSS MUX2_X1
X_627_ _299_ _554_ _321_ VDD VSS NAND2_X1
X_628_ _317_ _321_ _322_ VDD VSS NOR2_X1
X_629_ _322_ _293_ _285_ _323_ VDD VSS OAI21_X4
X_630_ _295_ mem\[11\]\[0\] _323_ _156_ VDD VSS MUX2_X1
X_631_ _304_ mem\[11\]\[1\] _323_ _157_ VDD VSS MUX2_X1
X_632_ _306_ mem\[11\]\[2\] _323_ _158_ VDD VSS MUX2_X1
X_633_ _308_ mem\[11\]\[3\] _323_ _159_ VDD VSS MUX2_X1
X_634_ _310_ mem\[11\]\[4\] _323_ _160_ VDD VSS MUX2_X1
X_635_ _312_ mem\[11\]\[5\] _323_ _161_ VDD VSS MUX2_X1
X_636_ _314_ mem\[11\]\[6\] _323_ _162_ VDD VSS MUX2_X1
X_637_ _316_ mem\[11\]\[7\] _323_ _163_ VDD VSS MUX2_X1
X_638_ _296_ _297_ _324_ VDD VSS NOR2_X2
X_639_ _299_ _549_ _324_ _325_ VDD VSS NAND3_X1
X_640_ _289_ net5 _286_ net7 _326_ VDD VSS NOR4_X1
X_641_ _276_ net5 _286_ net7 _327_ VDD VSS NOR4_X1
X_642_ _326_ _327_ _278_ _328_ VDD VSS MUX2_X1
X_643_ _328_ _329_ VDD VSS BUF_X8
X_644_ _325_ _329_ net9 _330_ VDD VSS AOI21_X4
X_645_ mem\[12\]\[0\] _295_ _330_ _164_ VDD VSS MUX2_X1
X_646_ mem\[12\]\[1\] _304_ _330_ _165_ VDD VSS MUX2_X1
X_647_ mem\[12\]\[2\] _306_ _330_ _166_ VDD VSS MUX2_X1
X_648_ mem\[12\]\[3\] _308_ _330_ _167_ VDD VSS MUX2_X1
X_649_ mem\[12\]\[4\] _310_ _330_ _168_ VDD VSS MUX2_X1
X_650_ mem\[12\]\[5\] _312_ _330_ _169_ VDD VSS MUX2_X1
X_651_ mem\[12\]\[6\] _314_ _330_ _170_ VDD VSS MUX2_X1
X_652_ mem\[12\]\[7\] _316_ _330_ _171_ VDD VSS MUX2_X1
X_653_ _299_ _552_ _324_ _331_ VDD VSS NAND3_X1
X_654_ _331_ _329_ net9 _332_ VDD VSS AOI21_X4
X_655_ mem\[13\]\[0\] _295_ _332_ _172_ VDD VSS MUX2_X1
X_656_ mem\[13\]\[1\] _304_ _332_ _173_ VDD VSS MUX2_X1
X_657_ mem\[13\]\[2\] _306_ _332_ _174_ VDD VSS MUX2_X1
X_658_ mem\[13\]\[3\] _308_ _332_ _175_ VDD VSS MUX2_X1
X_659_ mem\[13\]\[4\] _310_ _332_ _176_ VDD VSS MUX2_X1
X_660_ mem\[13\]\[5\] _312_ _332_ _177_ VDD VSS MUX2_X1
X_661_ mem\[13\]\[6\] _314_ _332_ _178_ VDD VSS MUX2_X1
X_662_ mem\[13\]\[7\] _316_ _332_ _179_ VDD VSS MUX2_X1
X_663_ _299_ _550_ _324_ _333_ VDD VSS NAND3_X2
X_664_ _333_ _329_ net9 _334_ VDD VSS AOI21_X4
X_665_ mem\[14\]\[0\] _295_ _334_ _180_ VDD VSS MUX2_X1
X_666_ mem\[14\]\[1\] _304_ _334_ _181_ VDD VSS MUX2_X1
X_667_ mem\[14\]\[2\] _306_ _334_ _182_ VDD VSS MUX2_X1
X_668_ mem\[14\]\[3\] _308_ _334_ _183_ VDD VSS MUX2_X1
X_669_ mem\[14\]\[4\] _310_ _334_ _184_ VDD VSS MUX2_X1
X_670_ mem\[14\]\[5\] _312_ _334_ _185_ VDD VSS MUX2_X1
X_671_ mem\[14\]\[6\] _314_ _334_ _186_ VDD VSS MUX2_X1
X_672_ mem\[14\]\[7\] _316_ _334_ _187_ VDD VSS MUX2_X1
X_673_ _299_ _554_ _324_ _335_ VDD VSS NAND3_X2
X_674_ _335_ _329_ net9 _336_ VDD VSS AOI21_X4
X_675_ mem\[15\]\[0\] _295_ _336_ _188_ VDD VSS MUX2_X1
X_676_ mem\[15\]\[1\] _304_ _336_ _189_ VDD VSS MUX2_X1
X_677_ mem\[15\]\[2\] _306_ _336_ _190_ VDD VSS MUX2_X1
X_678_ mem\[15\]\[3\] _308_ _336_ _191_ VDD VSS MUX2_X1
X_679_ mem\[15\]\[4\] _310_ _336_ _192_ VDD VSS MUX2_X1
X_680_ mem\[15\]\[5\] _312_ _336_ _193_ VDD VSS MUX2_X1
X_681_ mem\[15\]\[6\] _314_ _336_ _194_ VDD VSS MUX2_X1
X_682_ mem\[15\]\[7\] _316_ _336_ _195_ VDD VSS MUX2_X1
X_683_ _299_ _552_ _337_ VDD VSS NAND2_X1
X_684_ _298_ _337_ _338_ VDD VSS NOR2_X1
X_685_ _338_ _293_ _284_ _339_ VDD VSS OAI21_X4
X_686_ _295_ mem\[1\]\[0\] _339_ _196_ VDD VSS MUX2_X1
X_687_ _304_ mem\[1\]\[1\] _339_ _197_ VDD VSS MUX2_X1
X_688_ _306_ mem\[1\]\[2\] _339_ _198_ VDD VSS MUX2_X1
X_689_ _308_ mem\[1\]\[3\] _339_ _199_ VDD VSS MUX2_X1
X_690_ _310_ mem\[1\]\[4\] _339_ _200_ VDD VSS MUX2_X1
X_691_ _312_ mem\[1\]\[5\] _339_ _201_ VDD VSS MUX2_X1
X_692_ _314_ mem\[1\]\[6\] _339_ _202_ VDD VSS MUX2_X1
X_693_ _316_ mem\[1\]\[7\] _339_ _203_ VDD VSS MUX2_X1
X_694_ _298_ _318_ _340_ VDD VSS NOR2_X1
X_695_ _340_ _293_ _284_ _341_ VDD VSS OAI21_X4
X_696_ _295_ mem\[2\]\[0\] _341_ _204_ VDD VSS MUX2_X1
X_697_ _304_ mem\[2\]\[1\] _341_ _205_ VDD VSS MUX2_X1
X_698_ _306_ mem\[2\]\[2\] _341_ _206_ VDD VSS MUX2_X1
X_699_ _308_ mem\[2\]\[3\] _341_ _207_ VDD VSS MUX2_X1
X_700_ _310_ mem\[2\]\[4\] _341_ _208_ VDD VSS MUX2_X1
X_701_ _312_ mem\[2\]\[5\] _341_ _209_ VDD VSS MUX2_X1
X_702_ _314_ mem\[2\]\[6\] _341_ _210_ VDD VSS MUX2_X1
X_703_ _316_ mem\[2\]\[7\] _341_ _211_ VDD VSS MUX2_X1
X_704_ _298_ _321_ _342_ VDD VSS NOR2_X1
X_705_ _342_ _293_ _284_ _343_ VDD VSS OAI21_X4
X_706_ _295_ mem\[3\]\[0\] _343_ _212_ VDD VSS MUX2_X1
X_707_ _304_ mem\[3\]\[1\] _343_ _213_ VDD VSS MUX2_X1
X_708_ _306_ mem\[3\]\[2\] _343_ _214_ VDD VSS MUX2_X1
X_709_ _308_ mem\[3\]\[3\] _343_ _215_ VDD VSS MUX2_X1
X_710_ _310_ mem\[3\]\[4\] _343_ _216_ VDD VSS MUX2_X1
X_711_ _312_ mem\[3\]\[5\] _343_ _217_ VDD VSS MUX2_X1
X_712_ _314_ mem\[3\]\[6\] _343_ _218_ VDD VSS MUX2_X1
X_713_ _316_ mem\[3\]\[7\] _343_ _219_ VDD VSS MUX2_X1
X_714_ _296_ wr_ptr\[2\] _344_ VDD VSS NAND2_X2
X_715_ _300_ _344_ _345_ VDD VSS NOR2_X1
X_716_ _345_ _293_ _284_ _346_ VDD VSS OAI21_X4
X_717_ _294_ mem\[4\]\[0\] _346_ _220_ VDD VSS MUX2_X1
X_718_ _303_ mem\[4\]\[1\] _346_ _221_ VDD VSS MUX2_X1
X_719_ _305_ mem\[4\]\[2\] _346_ _222_ VDD VSS MUX2_X1
X_720_ _307_ mem\[4\]\[3\] _346_ _223_ VDD VSS MUX2_X1
X_721_ _309_ mem\[4\]\[4\] _346_ _224_ VDD VSS MUX2_X1
X_722_ _311_ mem\[4\]\[5\] _346_ _225_ VDD VSS MUX2_X1
X_723_ _313_ mem\[4\]\[6\] _346_ _226_ VDD VSS MUX2_X1
X_724_ _315_ mem\[4\]\[7\] _346_ _227_ VDD VSS MUX2_X1
X_725_ _337_ _344_ _347_ VDD VSS NOR2_X1
X_726_ _347_ _292_ _284_ _348_ VDD VSS OAI21_X4
X_727_ _294_ mem\[5\]\[0\] _348_ _228_ VDD VSS MUX2_X1
X_728_ _303_ mem\[5\]\[1\] _348_ _229_ VDD VSS MUX2_X1
X_729_ _305_ mem\[5\]\[2\] _348_ _230_ VDD VSS MUX2_X1
X_730_ _307_ mem\[5\]\[3\] _348_ _231_ VDD VSS MUX2_X1
X_731_ _309_ mem\[5\]\[4\] _348_ _232_ VDD VSS MUX2_X1
X_732_ _311_ mem\[5\]\[5\] _348_ _233_ VDD VSS MUX2_X1
X_733_ _313_ mem\[5\]\[6\] _348_ _234_ VDD VSS MUX2_X1
X_734_ _315_ mem\[5\]\[7\] _348_ _235_ VDD VSS MUX2_X1
X_735_ _318_ _344_ _349_ VDD VSS NOR2_X1
X_736_ _349_ _292_ _284_ _350_ VDD VSS OAI21_X4
X_737_ _294_ mem\[6\]\[0\] _350_ _236_ VDD VSS MUX2_X1
X_738_ _303_ mem\[6\]\[1\] _350_ _237_ VDD VSS MUX2_X1
X_739_ _305_ mem\[6\]\[2\] _350_ _238_ VDD VSS MUX2_X1
X_740_ _307_ mem\[6\]\[3\] _350_ _239_ VDD VSS MUX2_X1
X_741_ _309_ mem\[6\]\[4\] _350_ _240_ VDD VSS MUX2_X1
X_742_ _311_ mem\[6\]\[5\] _350_ _241_ VDD VSS MUX2_X1
X_743_ _313_ mem\[6\]\[6\] _350_ _242_ VDD VSS MUX2_X1
X_744_ _315_ mem\[6\]\[7\] _350_ _243_ VDD VSS MUX2_X1
X_745_ _321_ _344_ _351_ VDD VSS NOR2_X1
X_746_ _351_ _292_ _284_ _352_ VDD VSS OAI21_X4
X_747_ _294_ mem\[7\]\[0\] _352_ _244_ VDD VSS MUX2_X1
X_748_ _303_ mem\[7\]\[1\] _352_ _245_ VDD VSS MUX2_X1
X_749_ _305_ mem\[7\]\[2\] _352_ _246_ VDD VSS MUX2_X1
X_750_ _307_ mem\[7\]\[3\] _352_ _247_ VDD VSS MUX2_X1
X_751_ _309_ mem\[7\]\[4\] _352_ _248_ VDD VSS MUX2_X1
X_752_ _311_ mem\[7\]\[5\] _352_ _249_ VDD VSS MUX2_X1
X_753_ _313_ mem\[7\]\[6\] _352_ _250_ VDD VSS MUX2_X1
X_754_ _315_ mem\[7\]\[7\] _352_ _251_ VDD VSS MUX2_X1
X_755_ _300_ _317_ _353_ VDD VSS NOR2_X1
X_756_ _353_ _292_ _284_ _354_ VDD VSS OAI21_X4
X_757_ _294_ mem\[8\]\[0\] _354_ _252_ VDD VSS MUX2_X1
X_758_ _303_ mem\[8\]\[1\] _354_ _253_ VDD VSS MUX2_X1
X_759_ _305_ mem\[8\]\[2\] _354_ _254_ VDD VSS MUX2_X1
X_760_ _307_ mem\[8\]\[3\] _354_ _255_ VDD VSS MUX2_X1
X_761_ _309_ mem\[8\]\[4\] _354_ _256_ VDD VSS MUX2_X1
X_762_ _311_ mem\[8\]\[5\] _354_ _257_ VDD VSS MUX2_X1
X_763_ _313_ mem\[8\]\[6\] _354_ _258_ VDD VSS MUX2_X1
X_764_ _315_ mem\[8\]\[7\] _354_ _259_ VDD VSS MUX2_X1
X_765_ _317_ _337_ _355_ VDD VSS NOR2_X1
X_766_ _355_ _292_ _284_ _356_ VDD VSS OAI21_X4
X_767_ _294_ mem\[9\]\[0\] _356_ _260_ VDD VSS MUX2_X1
X_768_ _303_ mem\[9\]\[1\] _356_ _261_ VDD VSS MUX2_X1
X_769_ _305_ mem\[9\]\[2\] _356_ _262_ VDD VSS MUX2_X1
X_770_ _307_ mem\[9\]\[3\] _356_ _263_ VDD VSS MUX2_X1
X_771_ _309_ mem\[9\]\[4\] _356_ _264_ VDD VSS MUX2_X1
X_772_ _311_ mem\[9\]\[5\] _356_ _265_ VDD VSS MUX2_X1
X_773_ _313_ mem\[9\]\[6\] _356_ _266_ VDD VSS MUX2_X1
X_774_ _315_ mem\[9\]\[7\] _356_ _267_ VDD VSS MUX2_X1
X_775_ rd_ptr\[0\] net2 _357_ VDD VSS AND2_X1
X_776_ net2 _358_ VDD VSS INV_X2
X_777_ rd_ptr\[0\] _358_ _359_ VDD VSS NOR2_X1
X_778_ net1 _360_ VDD VSS INV_X1
X_779_ _360_ _285_ _329_ _361_ VDD VSS AOI21_X2
X_780_ _357_ _359_ _361_ _136_ VDD VSS MUX2_X1
X_781_ net2 _362_ VDD VSS BUF_X2
X_782_ rd_ptr\[1\] _362_ _363_ VDD VSS AND2_X1
X_783_ _135_ _362_ _364_ VDD VSS AND2_X1
X_784_ _363_ _364_ _361_ _137_ VDD VSS MUX2_X1
X_785_ rd_ptr\[2\] _362_ _365_ VDD VSS AND2_X1
X_786_ rd_ptr\[2\] _358_ _366_ VDD VSS NOR2_X1
X_787_ net1 _547_ _367_ VDD VSS NAND2_X1
X_788_ _367_ _329_ _285_ _368_ VDD VSS AOI21_X1
X_789_ _365_ _366_ _368_ _138_ VDD VSS MUX2_X1
X_790_ rd_ptr\[3\] _362_ _369_ VDD VSS AND2_X1
X_791_ rd_ptr\[3\] _358_ _370_ VDD VSS NOR2_X1
X_792_ net1 rd_ptr\[0\] rd_ptr\[2\] rd_ptr\[1\] _371_ VDD
+ VSS NAND4_X1
X_793_ _371_ _329_ _285_ _372_ VDD VSS AOI21_X1
X_794_ _369_ _370_ _372_ _139_ VDD VSS MUX2_X1
X_795_ _134_ _362_ _373_ VDD VSS AND2_X1
X_796_ _357_ _373_ _361_ _268_ VDD VSS MUX2_X1
X_797_ rd_ptr\[4\] _362_ _374_ VDD VSS AND2_X1
X_798_ rd_ptr\[4\] _358_ _375_ VDD VSS NOR2_X1
X_799_ net1 _547_ rd_ptr\[2\] rd_ptr\[3\] _376_ VDD VSS NAND4_X1
X_800_ _376_ _329_ _285_ _377_ VDD VSS AOI21_X1
X_801_ _374_ _375_ _377_ _269_ VDD VSS MUX2_X1
X_802_ _132_ _362_ _378_ VDD VSS AND2_X1
X_803_ wr_ptr\[0\] _362_ _379_ VDD VSS AND2_X1
X_804_ _299_ _285_ _293_ _380_ VDD VSS OAI21_X1
X_805_ _378_ _379_ _380_ _270_ VDD VSS MUX2_X1
X_806_ _133_ _362_ _381_ VDD VSS AND2_X1
X_807_ wr_ptr\[1\] _362_ _382_ VDD VSS AND2_X1
X_808_ _381_ _382_ _380_ _271_ VDD VSS MUX2_X1
X_809_ _297_ _358_ _383_ VDD VSS NOR2_X1
X_810_ wr_ptr\[2\] _358_ _384_ VDD VSS NOR2_X1
X_811_ _321_ _329_ net9 _385_ VDD VSS AOI21_X1
X_812_ _383_ _384_ _385_ _272_ VDD VSS MUX2_X1
X_813_ _296_ _358_ _386_ VDD VSS NOR2_X1
X_814_ wr_ptr\[3\] _358_ _387_ VDD VSS NOR2_X1
X_815_ _299_ wr_ptr\[2\] wr_ptr\[1\] wr_ptr\[0\] _388_ VDD
+ VSS NAND4_X1
X_816_ _388_ _329_ net9 _389_ VDD VSS AOI21_X1
X_817_ _386_ _387_ _389_ _273_ VDD VSS MUX2_X1
X_818_ wr_ptr\[4\] net2 _390_ VDD VSS AND2_X1
X_819_ wr_ptr\[4\] _358_ _391_ VDD VSS NOR2_X1
X_820_ _390_ _391_ _336_ _274_ VDD VSS MUX2_X1
X_821_ net10 net20 VDD VSS INV_X1
X_822_ _275_ _286_ _392_ VDD VSS XOR2_X2
X_823_ net8 net7 net9 _392_ net3 VDD VSS NOR4_X1
X_824_ _286_ net8 net7 _393_ VDD VSS NAND3_X2
X_825_ _285_ _393_ net4 VDD VSS NAND2_X4
X_826_ _002_ _394_ VDD VSS BUF_X4
X_827_ _394_ _395_ VDD VSS BUF_X4
X_828_ _004_ _008_ _395_ _396_ VDD VSS MUX2_X1
X_829_ _394_ _397_ VDD VSS BUF_X4
X_830_ _005_ _009_ _397_ _398_ VDD VSS MUX2_X1
X_831_ _000_ _399_ VDD VSS CLKBUF_X3
X_832_ _399_ _400_ VDD VSS BUF_X4
X_833_ _396_ _398_ _400_ _401_ VDD VSS MUX2_X1
X_834_ _012_ _016_ _397_ _402_ VDD VSS MUX2_X1
X_835_ _394_ _403_ VDD VSS BUF_X4
X_836_ _013_ _017_ _403_ _404_ VDD VSS MUX2_X1
X_837_ _399_ _405_ VDD VSS BUF_X4
X_838_ _402_ _404_ _405_ _406_ VDD VSS MUX2_X1
X_839_ _003_ _407_ VDD VSS CLKBUF_X3
X_840_ _407_ _408_ VDD VSS BUF_X4
X_841_ _401_ _406_ _408_ _409_ VDD VSS MUX2_X1
X_842_ _394_ _410_ VDD VSS BUF_X4
X_843_ _006_ _010_ _410_ _411_ VDD VSS MUX2_X1
X_844_ _394_ _412_ VDD VSS BUF_X4
X_845_ _007_ _011_ _412_ _413_ VDD VSS MUX2_X1
X_846_ _399_ _414_ VDD VSS BUF_X4
X_847_ _411_ _413_ _414_ _415_ VDD VSS MUX2_X1
X_848_ _394_ _416_ VDD VSS BUF_X4
X_849_ _014_ _018_ _416_ _417_ VDD VSS MUX2_X1
X_850_ _015_ _019_ _412_ _418_ VDD VSS MUX2_X1
X_851_ _417_ _418_ _414_ _419_ VDD VSS MUX2_X1
X_852_ _415_ _419_ _408_ _420_ VDD VSS MUX2_X1
X_853_ _001_ _421_ VDD VSS BUF_X4
X_854_ _409_ _420_ _421_ _422_ VDD VSS MUX2_X2
X_855_ net10 _422_ net12 VDD VSS NOR2_X1
X_856_ _020_ _024_ _395_ _423_ VDD VSS MUX2_X1
X_857_ _021_ _025_ _397_ _424_ VDD VSS MUX2_X1
X_858_ _423_ _424_ _400_ _425_ VDD VSS MUX2_X1
X_859_ _028_ _032_ _397_ _426_ VDD VSS MUX2_X1
X_860_ _029_ _033_ _403_ _427_ VDD VSS MUX2_X1
X_861_ _426_ _427_ _405_ _428_ VDD VSS MUX2_X1
X_862_ _425_ _428_ _408_ _429_ VDD VSS MUX2_X1
X_863_ _022_ _026_ _410_ _430_ VDD VSS MUX2_X1
X_864_ _023_ _027_ _412_ _431_ VDD VSS MUX2_X1
X_865_ _430_ _431_ _414_ _432_ VDD VSS MUX2_X1
X_866_ _030_ _034_ _416_ _433_ VDD VSS MUX2_X1
X_867_ _031_ _035_ _412_ _434_ VDD VSS MUX2_X1
X_868_ _433_ _434_ _414_ _435_ VDD VSS MUX2_X1
X_869_ _432_ _435_ _408_ _436_ VDD VSS MUX2_X1
X_870_ _429_ _436_ _421_ _437_ VDD VSS MUX2_X2
X_871_ net10 _437_ net13 VDD VSS NOR2_X1
X_872_ _036_ _040_ _395_ _438_ VDD VSS MUX2_X1
X_873_ _037_ _041_ _397_ _439_ VDD VSS MUX2_X1
X_874_ _438_ _439_ _400_ _440_ VDD VSS MUX2_X1
X_875_ _044_ _048_ _397_ _441_ VDD VSS MUX2_X1
X_876_ _045_ _049_ _403_ _442_ VDD VSS MUX2_X1
X_877_ _441_ _442_ _405_ _443_ VDD VSS MUX2_X1
X_878_ _440_ _443_ _407_ _444_ VDD VSS MUX2_X1
X_879_ _038_ _042_ _410_ _445_ VDD VSS MUX2_X1
X_880_ _039_ _043_ _416_ _446_ VDD VSS MUX2_X1
X_881_ _445_ _446_ _405_ _447_ VDD VSS MUX2_X1
X_882_ _046_ _050_ _416_ _448_ VDD VSS MUX2_X1
X_883_ _047_ _051_ _412_ _449_ VDD VSS MUX2_X1
X_884_ _448_ _449_ _414_ _450_ VDD VSS MUX2_X1
X_885_ _447_ _450_ _408_ _451_ VDD VSS MUX2_X1
X_886_ _444_ _451_ _421_ _452_ VDD VSS MUX2_X2
X_887_ net10 _452_ net14 VDD VSS NOR2_X1
X_888_ _052_ _056_ _395_ _453_ VDD VSS MUX2_X1
X_889_ _053_ _057_ _397_ _454_ VDD VSS MUX2_X1
X_890_ _453_ _454_ _400_ _455_ VDD VSS MUX2_X1
X_891_ _060_ _064_ _397_ _456_ VDD VSS MUX2_X1
X_892_ _061_ _065_ _403_ _457_ VDD VSS MUX2_X1
X_893_ _456_ _457_ _405_ _458_ VDD VSS MUX2_X1
X_894_ _455_ _458_ _407_ _459_ VDD VSS MUX2_X1
X_895_ _054_ _058_ _410_ _460_ VDD VSS MUX2_X1
X_896_ _055_ _059_ _416_ _461_ VDD VSS MUX2_X1
X_897_ _460_ _461_ _405_ _462_ VDD VSS MUX2_X1
X_898_ _062_ _066_ _416_ _463_ VDD VSS MUX2_X1
X_899_ _063_ _067_ _412_ _464_ VDD VSS MUX2_X1
X_900_ _463_ _464_ _414_ _465_ VDD VSS MUX2_X1
X_901_ _462_ _465_ _408_ _466_ VDD VSS MUX2_X1
X_902_ _459_ _466_ _421_ _467_ VDD VSS MUX2_X2
X_903_ net10 _467_ net15 VDD VSS NOR2_X1
X_904_ _068_ _072_ _394_ _468_ VDD VSS MUX2_X1
X_905_ _069_ _073_ _397_ _469_ VDD VSS MUX2_X1
X_906_ _468_ _469_ _400_ _470_ VDD VSS MUX2_X1
X_907_ _076_ _080_ _397_ _471_ VDD VSS MUX2_X1
X_908_ _077_ _081_ _403_ _472_ VDD VSS MUX2_X1
X_909_ _471_ _472_ _400_ _473_ VDD VSS MUX2_X1
X_910_ _470_ _473_ _407_ _474_ VDD VSS MUX2_X1
X_911_ _070_ _074_ _410_ _475_ VDD VSS MUX2_X1
X_912_ _071_ _075_ _416_ _476_ VDD VSS MUX2_X1
X_913_ _475_ _476_ _405_ _477_ VDD VSS MUX2_X1
X_914_ _078_ _082_ _403_ _478_ VDD VSS MUX2_X1
X_915_ _079_ _083_ _412_ _479_ VDD VSS MUX2_X1
X_916_ _478_ _479_ _414_ _480_ VDD VSS MUX2_X1
X_917_ _477_ _480_ _408_ _481_ VDD VSS MUX2_X1
X_918_ _474_ _481_ _421_ _482_ VDD VSS MUX2_X2
X_919_ net10 _482_ net16 VDD VSS NOR2_X1
X_920_ _084_ _088_ _394_ _483_ VDD VSS MUX2_X1
X_921_ _085_ _089_ _395_ _484_ VDD VSS MUX2_X1
X_922_ _483_ _484_ _400_ _485_ VDD VSS MUX2_X1
X_923_ _092_ _096_ _395_ _486_ VDD VSS MUX2_X1
X_924_ _093_ _097_ _403_ _487_ VDD VSS MUX2_X1
X_925_ _486_ _487_ _400_ _488_ VDD VSS MUX2_X1
X_926_ _485_ _488_ _407_ _489_ VDD VSS MUX2_X1
X_927_ _086_ _090_ _410_ _490_ VDD VSS MUX2_X1
X_928_ _087_ _091_ _416_ _491_ VDD VSS MUX2_X1
X_929_ _490_ _491_ _405_ _492_ VDD VSS MUX2_X1
X_930_ _094_ _098_ _403_ _493_ VDD VSS MUX2_X1
X_931_ _095_ _099_ _412_ _494_ VDD VSS MUX2_X1
X_932_ _493_ _494_ _414_ _495_ VDD VSS MUX2_X1
X_933_ _492_ _495_ _408_ _496_ VDD VSS MUX2_X1
X_934_ _489_ _496_ _421_ _497_ VDD VSS MUX2_X2
X_935_ net10 _497_ net17 VDD VSS NOR2_X1
X_936_ _100_ _104_ _394_ _498_ VDD VSS MUX2_X1
X_937_ _101_ _105_ _395_ _499_ VDD VSS MUX2_X1
X_938_ _498_ _499_ _399_ _500_ VDD VSS MUX2_X1
X_939_ _108_ _112_ _395_ _501_ VDD VSS MUX2_X1
X_940_ _109_ _113_ _410_ _502_ VDD VSS MUX2_X1
X_941_ _501_ _502_ _400_ _503_ VDD VSS MUX2_X1
X_942_ _500_ _503_ _407_ _504_ VDD VSS MUX2_X1
X_943_ _102_ _106_ _410_ _505_ VDD VSS MUX2_X1
X_944_ _103_ _107_ _416_ _506_ VDD VSS MUX2_X1
X_945_ _505_ _506_ _405_ _507_ VDD VSS MUX2_X1
X_946_ _110_ _114_ _403_ _508_ VDD VSS MUX2_X1
X_947_ _111_ _115_ _412_ _509_ VDD VSS MUX2_X1
X_948_ _508_ _509_ _414_ _510_ VDD VSS MUX2_X1
X_949_ _507_ _510_ _408_ _511_ VDD VSS MUX2_X1
X_950_ _504_ _511_ _421_ _512_ VDD VSS MUX2_X2
X_951_ net10 _512_ net18 VDD VSS NOR2_X1
X_952_ _116_ _120_ _394_ _513_ VDD VSS MUX2_X1
X_953_ _117_ _121_ _395_ _514_ VDD VSS MUX2_X1
X_954_ _513_ _514_ _399_ _515_ VDD VSS MUX2_X1
X_955_ _124_ _128_ _395_ _516_ VDD VSS MUX2_X1
X_956_ _125_ _129_ _410_ _517_ VDD VSS MUX2_X1
X_957_ _516_ _517_ _400_ _518_ VDD VSS MUX2_X1
X_958_ _515_ _518_ _407_ _519_ VDD VSS MUX2_X1
X_959_ _118_ _122_ _410_ _520_ VDD VSS MUX2_X1
X_960_ _119_ _123_ _416_ _521_ VDD VSS MUX2_X1
X_961_ _520_ _521_ _405_ _522_ VDD VSS MUX2_X1
X_962_ _126_ _130_ _403_ _523_ VDD VSS MUX2_X1
X_963_ _127_ _131_ _412_ _524_ VDD VSS MUX2_X1
X_964_ _523_ _524_ _414_ _525_ VDD VSS MUX2_X1
X_965_ _522_ _525_ _408_ _526_ VDD VSS MUX2_X1
X_966_ _519_ _526_ _421_ _527_ VDD VSS MUX2_X2
X_967_ net10 _527_ net19 VDD VSS NOR2_X1
X_968_ _536_ wr_ptr\[1\] _537_ _538_ net6 VDD VSS FA_X1
X_969_ _539_ wr_ptr\[3\] _540_ _541_ VDD VSS HA_X1
X_970_ _536_ wr_ptr\[1\] _542_ _543_ VDD VSS HA_X1
X_971_ _544_ wr_ptr\[2\] _545_ _546_ VDD VSS HA_X1
X_972_ rd_ptr\[0\] rd_ptr\[1\] _547_ _135_ VDD VSS HA_X1
X_973_ _132_ _548_ _549_ _133_ VDD VSS HA_X1
X_974_ _132_ wr_ptr\[1\] _550_ _551_ VDD VSS HA_X1
X_975_ wr_ptr\[0\] _548_ _552_ _553_ VDD VSS HA_X1
X_976_ wr_ptr\[0\] wr_ptr\[1\] _554_ _555_ VDD VSS HA_X1
X_977_ rd_ptr\[0\] _132_ _556_ _557_ VDD VSS HA_X1
X_978_ _136_ clknet_4_4_0_clk _000_ _535_ VDD VSS DFF_X1
X_979_ _137_ clknet_4_1_0_clk _001_ _534_ VDD VSS DFF_X1
X_980_ _138_ clknet_4_4_0_clk _002_ _533_ VDD VSS DFF_X1
X_981_ _139_ clknet_4_4_0_clk _003_ _532_ VDD VSS DFF_X1
Xmem\[0\]\[0\]$_DFFE_PP_ _140_ clknet_4_13_0_clk mem\[0\]\[0\]
+ _004_ VDD VSS DFF_X1
Xmem\[0\]\[1\]$_DFFE_PP_ _141_ clknet_4_12_0_clk mem\[0\]\[1\]
+ _020_ VDD VSS DFF_X1
Xmem\[0\]\[2\]$_DFFE_PP_ _142_ clknet_4_13_0_clk mem\[0\]\[2\]
+ _036_ VDD VSS DFF_X1
Xmem\[0\]\[3\]$_DFFE_PP_ _143_ clknet_4_13_0_clk mem\[0\]\[3\]
+ _052_ VDD VSS DFF_X1
Xmem\[0\]\[4\]$_DFFE_PP_ _144_ clknet_4_13_0_clk mem\[0\]\[4\]
+ _068_ VDD VSS DFF_X1
Xmem\[0\]\[5\]$_DFFE_PP_ _145_ clknet_4_7_0_clk mem\[0\]\[5\]
+ _084_ VDD VSS DFF_X1
Xmem\[0\]\[6\]$_DFFE_PP_ _146_ clknet_4_5_0_clk mem\[0\]\[6\]
+ _100_ VDD VSS DFF_X1
Xmem\[0\]\[7\]$_DFFE_PP_ _147_ clknet_4_7_0_clk mem\[0\]\[7\]
+ _116_ VDD VSS DFF_X1
Xmem\[10\]\[0\]$_DFFE_PP_ _148_ clknet_4_10_0_clk mem\[10\]\[0\]
+ _014_ VDD VSS DFF_X1
Xmem\[10\]\[1\]$_DFFE_PP_ _149_ clknet_4_10_0_clk mem\[10\]\[1\]
+ _030_ VDD VSS DFF_X1
Xmem\[10\]\[2\]$_DFFE_PP_ _150_ clknet_4_10_0_clk mem\[10\]\[2\]
+ _046_ VDD VSS DFF_X1
Xmem\[10\]\[3\]$_DFFE_PP_ _151_ clknet_4_8_0_clk mem\[10\]\[3\]
+ _062_ VDD VSS DFF_X1
Xmem\[10\]\[4\]$_DFFE_PP_ _152_ clknet_4_8_0_clk mem\[10\]\[4\]
+ _078_ VDD VSS DFF_X1
Xmem\[10\]\[5\]$_DFFE_PP_ _153_ clknet_4_8_0_clk mem\[10\]\[5\]
+ _094_ VDD VSS DFF_X1
Xmem\[10\]\[6\]$_DFFE_PP_ _154_ clknet_4_2_0_clk mem\[10\]\[6\]
+ _110_ VDD VSS DFF_X1
Xmem\[10\]\[7\]$_DFFE_PP_ _155_ clknet_4_2_0_clk mem\[10\]\[7\]
+ _126_ VDD VSS DFF_X1
Xmem\[11\]\[0\]$_DFFE_PP_ _156_ clknet_4_10_0_clk mem\[11\]\[0\]
+ _015_ VDD VSS DFF_X1
Xmem\[11\]\[1\]$_DFFE_PP_ _157_ clknet_4_10_0_clk mem\[11\]\[1\]
+ _031_ VDD VSS DFF_X1
Xmem\[11\]\[2\]$_DFFE_PP_ _158_ clknet_4_10_0_clk mem\[11\]\[2\]
+ _047_ VDD VSS DFF_X1
Xmem\[11\]\[3\]$_DFFE_PP_ _159_ clknet_4_8_0_clk mem\[11\]\[3\]
+ _063_ VDD VSS DFF_X1
Xmem\[11\]\[4\]$_DFFE_PP_ _160_ clknet_4_8_0_clk mem\[11\]\[4\]
+ _079_ VDD VSS DFF_X1
Xmem\[11\]\[5\]$_DFFE_PP_ _161_ clknet_4_8_0_clk mem\[11\]\[5\]
+ _095_ VDD VSS DFF_X1
Xmem\[11\]\[6\]$_DFFE_PP_ _162_ clknet_4_2_0_clk mem\[11\]\[6\]
+ _111_ VDD VSS DFF_X1
Xmem\[11\]\[7\]$_DFFE_PP_ _163_ clknet_4_2_0_clk mem\[11\]\[7\]
+ _127_ VDD VSS DFF_X1
Xmem\[12\]\[0\]$_DFFE_PP_ _164_ clknet_4_15_0_clk mem\[12\]\[0\]
+ _016_ VDD VSS DFF_X1
Xmem\[12\]\[1\]$_DFFE_PP_ _165_ clknet_4_11_0_clk mem\[12\]\[1\]
+ _032_ VDD VSS DFF_X1
Xmem\[12\]\[2\]$_DFFE_PP_ _166_ clknet_4_15_0_clk mem\[12\]\[2\]
+ _048_ VDD VSS DFF_X1
Xmem\[12\]\[3\]$_DFFE_PP_ _167_ clknet_4_12_0_clk mem\[12\]\[3\]
+ _064_ VDD VSS DFF_X1
Xmem\[12\]\[4\]$_DFFE_PP_ _168_ clknet_4_12_0_clk mem\[12\]\[4\]
+ _080_ VDD VSS DFF_X1
Xmem\[12\]\[5\]$_DFFE_PP_ _169_ clknet_4_6_0_clk mem\[12\]\[5\]
+ _096_ VDD VSS DFF_X1
Xmem\[12\]\[6\]$_DFFE_PP_ _170_ clknet_4_5_0_clk mem\[12\]\[6\]
+ _112_ VDD VSS DFF_X1
Xmem\[12\]\[7\]$_DFFE_PP_ _171_ clknet_4_7_0_clk mem\[12\]\[7\]
+ _128_ VDD VSS DFF_X1
Xmem\[13\]\[0\]$_DFFE_PP_ _172_ clknet_4_14_0_clk mem\[13\]\[0\]
+ _017_ VDD VSS DFF_X1
Xmem\[13\]\[1\]$_DFFE_PP_ _173_ clknet_4_14_0_clk mem\[13\]\[1\]
+ _033_ VDD VSS DFF_X1
Xmem\[13\]\[2\]$_DFFE_PP_ _174_ clknet_4_14_0_clk mem\[13\]\[2\]
+ _049_ VDD VSS DFF_X1
Xmem\[13\]\[3\]$_DFFE_PP_ _175_ clknet_4_12_0_clk mem\[13\]\[3\]
+ _065_ VDD VSS DFF_X1
Xmem\[13\]\[4\]$_DFFE_PP_ _176_ clknet_4_12_0_clk mem\[13\]\[4\]
+ _081_ VDD VSS DFF_X1
Xmem\[13\]\[5\]$_DFFE_PP_ _177_ clknet_4_6_0_clk mem\[13\]\[5\]
+ _097_ VDD VSS DFF_X1
Xmem\[13\]\[6\]$_DFFE_PP_ _178_ clknet_4_5_0_clk mem\[13\]\[6\]
+ _113_ VDD VSS DFF_X1
Xmem\[13\]\[7\]$_DFFE_PP_ _179_ clknet_4_6_0_clk mem\[13\]\[7\]
+ _129_ VDD VSS DFF_X1
Xmem\[14\]\[0\]$_DFFE_PP_ _180_ clknet_4_10_0_clk mem\[14\]\[0\]
+ _018_ VDD VSS DFF_X1
Xmem\[14\]\[1\]$_DFFE_PP_ _181_ clknet_4_10_0_clk mem\[14\]\[1\]
+ _034_ VDD VSS DFF_X1
Xmem\[14\]\[2\]$_DFFE_PP_ _182_ clknet_4_10_0_clk mem\[14\]\[2\]
+ _050_ VDD VSS DFF_X1
Xmem\[14\]\[3\]$_DFFE_PP_ _183_ clknet_4_8_0_clk mem\[14\]\[3\]
+ _066_ VDD VSS DFF_X1
Xmem\[14\]\[4\]$_DFFE_PP_ _184_ clknet_4_8_0_clk mem\[14\]\[4\]
+ _082_ VDD VSS DFF_X1
Xmem\[14\]\[5\]$_DFFE_PP_ _185_ clknet_4_8_0_clk mem\[14\]\[5\]
+ _098_ VDD VSS DFF_X1
Xmem\[14\]\[6\]$_DFFE_PP_ _186_ clknet_4_2_0_clk mem\[14\]\[6\]
+ _114_ VDD VSS DFF_X1
Xmem\[14\]\[7\]$_DFFE_PP_ _187_ clknet_4_2_0_clk mem\[14\]\[7\]
+ _130_ VDD VSS DFF_X1
Xmem\[15\]\[0\]$_DFFE_PP_ _188_ clknet_4_10_0_clk mem\[15\]\[0\]
+ _019_ VDD VSS DFF_X1
Xmem\[15\]\[1\]$_DFFE_PP_ _189_ clknet_4_10_0_clk mem\[15\]\[1\]
+ _035_ VDD VSS DFF_X1
Xmem\[15\]\[2\]$_DFFE_PP_ _190_ clknet_4_10_0_clk mem\[15\]\[2\]
+ _051_ VDD VSS DFF_X1
Xmem\[15\]\[3\]$_DFFE_PP_ _191_ clknet_4_8_0_clk mem\[15\]\[3\]
+ _067_ VDD VSS DFF_X1
Xmem\[15\]\[4\]$_DFFE_PP_ _192_ clknet_4_8_0_clk mem\[15\]\[4\]
+ _083_ VDD VSS DFF_X1
Xmem\[15\]\[5\]$_DFFE_PP_ _193_ clknet_4_8_0_clk mem\[15\]\[5\]
+ _099_ VDD VSS DFF_X1
Xmem\[15\]\[6\]$_DFFE_PP_ _194_ clknet_4_2_0_clk mem\[15\]\[6\]
+ _115_ VDD VSS DFF_X1
Xmem\[15\]\[7\]$_DFFE_PP_ _195_ clknet_4_2_0_clk mem\[15\]\[7\]
+ _131_ VDD VSS DFF_X1
Xmem\[1\]\[0\]$_DFFE_PP_ _196_ clknet_4_15_0_clk mem\[1\]\[0\]
+ _005_ VDD VSS DFF_X1
Xmem\[1\]\[1\]$_DFFE_PP_ _197_ clknet_4_14_0_clk mem\[1\]\[1\]
+ _021_ VDD VSS DFF_X1
Xmem\[1\]\[2\]$_DFFE_PP_ _198_ clknet_4_15_0_clk mem\[1\]\[2\]
+ _037_ VDD VSS DFF_X1
Xmem\[1\]\[3\]$_DFFE_PP_ _199_ clknet_4_13_0_clk mem\[1\]\[3\]
+ _053_ VDD VSS DFF_X1
Xmem\[1\]\[4\]$_DFFE_PP_ _200_ clknet_4_13_0_clk mem\[1\]\[4\]
+ _069_ VDD VSS DFF_X1
Xmem\[1\]\[5\]$_DFFE_PP_ _201_ clknet_4_7_0_clk mem\[1\]\[5\]
+ _085_ VDD VSS DFF_X1
Xmem\[1\]\[6\]$_DFFE_PP_ _202_ clknet_4_5_0_clk mem\[1\]\[6\]
+ _101_ VDD VSS DFF_X1
Xmem\[1\]\[7\]$_DFFE_PP_ _203_ clknet_4_7_0_clk mem\[1\]\[7\]
+ _117_ VDD VSS DFF_X1
Xmem\[2\]\[0\]$_DFFE_PP_ _204_ clknet_4_11_0_clk mem\[2\]\[0\]
+ _006_ VDD VSS DFF_X1
Xmem\[2\]\[1\]$_DFFE_PP_ _205_ clknet_4_11_0_clk mem\[2\]\[1\]
+ _022_ VDD VSS DFF_X1
Xmem\[2\]\[2\]$_DFFE_PP_ _206_ clknet_4_11_0_clk mem\[2\]\[2\]
+ _038_ VDD VSS DFF_X1
Xmem\[2\]\[3\]$_DFFE_PP_ _207_ clknet_4_9_0_clk mem\[2\]\[3\]
+ _054_ VDD VSS DFF_X1
Xmem\[2\]\[4\]$_DFFE_PP_ _208_ clknet_4_9_0_clk mem\[2\]\[4\]
+ _070_ VDD VSS DFF_X1
Xmem\[2\]\[5\]$_DFFE_PP_ _209_ clknet_4_3_0_clk mem\[2\]\[5\]
+ _086_ VDD VSS DFF_X1
Xmem\[2\]\[6\]$_DFFE_PP_ _210_ clknet_4_0_0_clk mem\[2\]\[6\]
+ _102_ VDD VSS DFF_X1
Xmem\[2\]\[7\]$_DFFE_PP_ _211_ clknet_4_3_0_clk mem\[2\]\[7\]
+ _118_ VDD VSS DFF_X1
Xmem\[3\]\[0\]$_DFFE_PP_ _212_ clknet_4_11_0_clk mem\[3\]\[0\]
+ _007_ VDD VSS DFF_X1
Xmem\[3\]\[1\]$_DFFE_PP_ _213_ clknet_4_11_0_clk mem\[3\]\[1\]
+ _023_ VDD VSS DFF_X1
Xmem\[3\]\[2\]$_DFFE_PP_ _214_ clknet_4_11_0_clk mem\[3\]\[2\]
+ _039_ VDD VSS DFF_X1
Xmem\[3\]\[3\]$_DFFE_PP_ _215_ clknet_4_9_0_clk mem\[3\]\[3\]
+ _055_ VDD VSS DFF_X1
Xmem\[3\]\[4\]$_DFFE_PP_ _216_ clknet_4_9_0_clk mem\[3\]\[4\]
+ _071_ VDD VSS DFF_X1
Xmem\[3\]\[5\]$_DFFE_PP_ _217_ clknet_4_9_0_clk mem\[3\]\[5\]
+ _087_ VDD VSS DFF_X1
Xmem\[3\]\[6\]$_DFFE_PP_ _218_ clknet_4_3_0_clk mem\[3\]\[6\]
+ _103_ VDD VSS DFF_X1
Xmem\[3\]\[7\]$_DFFE_PP_ _219_ clknet_4_3_0_clk mem\[3\]\[7\]
+ _119_ VDD VSS DFF_X1
Xmem\[4\]\[0\]$_DFFE_PP_ _220_ clknet_4_12_0_clk mem\[4\]\[0\]
+ _008_ VDD VSS DFF_X1
Xmem\[4\]\[1\]$_DFFE_PP_ _221_ clknet_4_14_0_clk mem\[4\]\[1\]
+ _024_ VDD VSS DFF_X1
Xmem\[4\]\[2\]$_DFFE_PP_ _222_ clknet_4_13_0_clk mem\[4\]\[2\]
+ _040_ VDD VSS DFF_X1
Xmem\[4\]\[3\]$_DFFE_PP_ _223_ clknet_4_13_0_clk mem\[4\]\[3\]
+ _056_ VDD VSS DFF_X1
Xmem\[4\]\[4\]$_DFFE_PP_ _224_ clknet_4_13_0_clk mem\[4\]\[4\]
+ _072_ VDD VSS DFF_X1
Xmem\[4\]\[5\]$_DFFE_PP_ _225_ clknet_4_7_0_clk mem\[4\]\[5\]
+ _088_ VDD VSS DFF_X1
Xmem\[4\]\[6\]$_DFFE_PP_ _226_ clknet_4_5_0_clk mem\[4\]\[6\]
+ _104_ VDD VSS DFF_X1
Xmem\[4\]\[7\]$_DFFE_PP_ _227_ clknet_4_7_0_clk mem\[4\]\[7\]
+ _120_ VDD VSS DFF_X1
Xmem\[5\]\[0\]$_DFFE_PP_ _228_ clknet_4_15_0_clk mem\[5\]\[0\]
+ _009_ VDD VSS DFF_X1
Xmem\[5\]\[1\]$_DFFE_PP_ _229_ clknet_4_14_0_clk mem\[5\]\[1\]
+ _025_ VDD VSS DFF_X1
Xmem\[5\]\[2\]$_DFFE_PP_ _230_ clknet_4_15_0_clk mem\[5\]\[2\]
+ _041_ VDD VSS DFF_X1
Xmem\[5\]\[3\]$_DFFE_PP_ _231_ clknet_4_13_0_clk mem\[5\]\[3\]
+ _057_ VDD VSS DFF_X1
Xmem\[5\]\[4\]$_DFFE_PP_ _232_ clknet_4_13_0_clk mem\[5\]\[4\]
+ _073_ VDD VSS DFF_X1
Xmem\[5\]\[5\]$_DFFE_PP_ _233_ clknet_4_7_0_clk mem\[5\]\[5\]
+ _089_ VDD VSS DFF_X1
Xmem\[5\]\[6\]$_DFFE_PP_ _234_ clknet_4_7_0_clk mem\[5\]\[6\]
+ _105_ VDD VSS DFF_X1
Xmem\[5\]\[7\]$_DFFE_PP_ _235_ clknet_4_7_0_clk mem\[5\]\[7\]
+ _121_ VDD VSS DFF_X1
Xmem\[6\]\[0\]$_DFFE_PP_ _236_ clknet_4_11_0_clk mem\[6\]\[0\]
+ _010_ VDD VSS DFF_X1
Xmem\[6\]\[1\]$_DFFE_PP_ _237_ clknet_4_11_0_clk mem\[6\]\[1\]
+ _026_ VDD VSS DFF_X1
Xmem\[6\]\[2\]$_DFFE_PP_ _238_ clknet_4_11_0_clk mem\[6\]\[2\]
+ _042_ VDD VSS DFF_X1
Xmem\[6\]\[3\]$_DFFE_PP_ _239_ clknet_4_9_0_clk mem\[6\]\[3\]
+ _058_ VDD VSS DFF_X1
Xmem\[6\]\[4\]$_DFFE_PP_ _240_ clknet_4_9_0_clk mem\[6\]\[4\]
+ _074_ VDD VSS DFF_X1
Xmem\[6\]\[5\]$_DFFE_PP_ _241_ clknet_4_3_0_clk mem\[6\]\[5\]
+ _090_ VDD VSS DFF_X1
Xmem\[6\]\[6\]$_DFFE_PP_ _242_ clknet_4_1_0_clk mem\[6\]\[6\]
+ _106_ VDD VSS DFF_X1
Xmem\[6\]\[7\]$_DFFE_PP_ _243_ clknet_4_3_0_clk mem\[6\]\[7\]
+ _122_ VDD VSS DFF_X1
Xmem\[7\]\[0\]$_DFFE_PP_ _244_ clknet_4_11_0_clk mem\[7\]\[0\]
+ _011_ VDD VSS DFF_X1
Xmem\[7\]\[1\]$_DFFE_PP_ _245_ clknet_4_11_0_clk mem\[7\]\[1\]
+ _027_ VDD VSS DFF_X1