
* cell skid_buffer
* pin s_data[2]
* pin s_data[5]
* pin m_data[2]
* pin m_data[5]
* pin m_valid
* pin m_ready
* pin s_ready
* pin s_valid
* pin s_data[4]
* pin m_data[4]
* pin s_data[7]
* pin s_data[3]
* pin clk
* pin m_data[3]
* pin rst_n
* pin s_data[1]
* pin m_data[1]
* pin s_data[6]
* pin s_data[0]
* pin m_data[6]
* pin m_data[0]
* pin m_data[7]
* pin PWELL,gf180mcu_gnd
* pin NWELL
.SUBCKT skid_buffer 1 2 3 4 15 16 26 27 46 52 54 78 83 94 95 104 105 106 107
+ 108 109 110 111 112
* net 1 s_data[2]
* net 2 s_data[5]
* net 3 m_data[2]
* net 4 m_data[5]
* net 15 m_valid
* net 16 m_ready
* net 26 s_ready
* net 27 s_valid
* net 46 s_data[4]
* net 52 m_data[4]
* net 54 s_data[7]
* net 78 s_data[3]
* net 83 clk
* net 94 m_data[3]
* net 95 rst_n
* net 104 s_data[1]
* net 105 m_data[1]
* net 106 s_data[6]
* net 107 s_data[0]
* net 108 m_data[6]
* net 109 m_data[0]
* net 110 m_data[7]
* net 111 PWELL,gf180mcu_gnd
* net 112 NWELL
* cell instance $3 m0 *1 416.64,15.12
X$3 1 112 111 7 gf180mcu_fd_sc_mcu9t5v0__buf_3
* cell instance $7 r0 *1 418.32,5.04
X$7 2 112 111 8 gf180mcu_fd_sc_mcu9t5v0__buf_3
* cell instance $11 r0 *1 435.12,15.12
X$11 6 112 111 3 gf180mcu_fd_sc_mcu9t5v0__dlyb_2
* cell instance $14 r0 *1 435.12,5.04
X$14 5 112 111 4 gf180mcu_fd_sc_mcu9t5v0__dlyb_2
* cell instance $18 m0 *1 435.12,438.48
X$18 111 18 5 17 41 112 gf180mcu_fd_sc_mcu9t5v0__dffrnq_2
* cell instance $21 m0 *1 442.96,428.4
X$21 112 8 111 11 5 42 33 gf180mcu_fd_sc_mcu9t5v0__oai22_2
* cell instance $24 m0 *1 428.96,428.4
X$24 112 111 31 8 40 5 47 32 gf180mcu_fd_sc_mcu9t5v0__oai221_2
* cell instance $29 m0 *1 428.4,408.24
X$29 111 18 6 17 20 112 gf180mcu_fd_sc_mcu9t5v0__dffrnq_2
* cell instance $31 r0 *1 439.6,408.24
X$31 112 7 111 11 6 21 33 gf180mcu_fd_sc_mcu9t5v0__oai22_2
* cell instance $35 r0 *1 427.28,408.24
X$35 112 111 31 7 38 6 39 32 gf180mcu_fd_sc_mcu9t5v0__oai221_2
* cell instance $39 m0 *1 412.16,418.32
X$39 111 112 37 7 35 19 gf180mcu_fd_sc_mcu9t5v0__mux2_2
* cell instance $48 r0 *1 412.72,428.4
X$48 111 112 53 8 35 49 gf180mcu_fd_sc_mcu9t5v0__mux2_2
* cell instance $57 r0 *1 450.24,398.16
X$57 111 18 9 17 13 112 gf180mcu_fd_sc_mcu9t5v0__dffrnq_2
* cell instance $59 r0 *1 480.48,398.16
X$59 112 111 25 10 9 gf180mcu_fd_sc_mcu9t5v0__nand2_4
* cell instance $61 m0 *1 476,408.24
X$61 112 14 111 9 29 23 gf180mcu_fd_sc_mcu9t5v0__oai21_2
* cell instance $63 m0 *1 465.36,408.24
X$63 111 112 9 30 gf180mcu_fd_sc_mcu9t5v0__clkinv_8
* cell instance $66 r0 *1 464.24,408.24
X$66 111 22 9 23 112 31 gf180mcu_fd_sc_mcu9t5v0__or3_4
* cell instance $73 r0 *1 489.44,398.16
X$73 112 10 111 13 24 12 11 gf180mcu_fd_sc_mcu9t5v0__oai31_2
* cell instance $78 r0 *1 869.68,398.16
X$78 10 112 111 26 gf180mcu_fd_sc_mcu9t5v0__dlyb_2
* cell instance $81 r0 *1 456.4,468.72
X$81 112 84 111 11 85 74 33 gf180mcu_fd_sc_mcu9t5v0__oai22_2
* cell instance $86 r0 *1 486.64,428.4
X$86 112 43 111 11 51 45 33 gf180mcu_fd_sc_mcu9t5v0__oai22_2
* cell instance $89 r0 *1 463.68,418.32
X$89 112 111 34 11 33 gf180mcu_fd_sc_mcu9t5v0__nand2_4
* cell instance $91 m0 *1 485.52,468.72
X$91 112 68 111 11 70 62 33 gf180mcu_fd_sc_mcu9t5v0__oai22_2
* cell instance $93 m0 *1 431.2,478.8
X$93 112 76 111 11 79 82 33 gf180mcu_fd_sc_mcu9t5v0__oai22_2
* cell instance $95 m0 *1 484.96,488.88
X$95 112 91 111 11 88 97 33 gf180mcu_fd_sc_mcu9t5v0__oai22_2
* cell instance $97 r0 *1 435.12,458.64
X$97 112 56 111 11 61 59 33 gf180mcu_fd_sc_mcu9t5v0__oai22_2
* cell instance $100 m0 *1 488.88,408.24
X$100 111 112 11 28 29 gf180mcu_fd_sc_mcu9t5v0__nand2_2
* cell instance $111 r0 *1 484.4,408.24
X$111 112 111 14 25 12 gf180mcu_fd_sc_mcu9t5v0__nand2_4
* cell instance $113 m0 *1 483.84,408.24
X$113 111 112 12 23 gf180mcu_fd_sc_mcu9t5v0__clkinv_3
* cell instance $116 r0 *1 853.44,398.16
X$116 111 112 16 12 gf180mcu_fd_sc_mcu9t5v0__clkbuf_4
* cell instance $127 m0 *1 456.96,418.32
X$127 111 22 32 14 30 23 112 gf180mcu_fd_sc_mcu9t5v0__aoi22_4
* cell instance $132 r0 *1 469.28,398.16
X$132 111 112 14 24 gf180mcu_fd_sc_mcu9t5v0__inv_4
* cell instance $134 m0 *1 867.44,398.16
X$134 14 112 111 15 gf180mcu_fd_sc_mcu9t5v0__dlyb_2
* cell instance $137 m0 *1 474.32,418.32
X$137 23 14 30 34 111 112 36 gf180mcu_fd_sc_mcu9t5v0__and4_2
* cell instance $139 m0 *1 493.92,408.24
X$139 111 18 14 17 28 112 gf180mcu_fd_sc_mcu9t5v0__dffrnq_4
* cell instance $151 m0 *1 406,438.48
X$151 111 18 49 17 53 112 gf180mcu_fd_sc_mcu9t5v0__dffrnq_2
* cell instance $154 r0 *1 446.32,428.4
X$154 111 60 17 112 gf180mcu_fd_sc_mcu9t5v0__clkbuf_16
* cell instance $161 m0 *1 455.28,438.48
X$161 111 18 44 17 48 112 gf180mcu_fd_sc_mcu9t5v0__dffrnq_2
* cell instance $164 m0 *1 436.24,448.56
X$164 111 18 61 17 65 112 gf180mcu_fd_sc_mcu9t5v0__dffrnq_2
* cell instance $168 m0 *1 494.48,438.48
X$168 111 18 51 17 63 112 gf180mcu_fd_sc_mcu9t5v0__dffrnq_2
* cell instance $170 r0 *1 403.76,408.24
X$170 111 18 19 17 37 112 gf180mcu_fd_sc_mcu9t5v0__dffrnq_2
* cell instance $178 m0 *1 440.16,498.96
X$178 111 18 73 75 103 112 gf180mcu_fd_sc_mcu9t5v0__dffrnq_2
* cell instance $181 r0 *1 455.28,488.88
X$181 111 18 85 75 96 112 gf180mcu_fd_sc_mcu9t5v0__dffrnq_2
* cell instance $183 m0 *1 473.76,498.96
X$183 111 18 86 75 102 112 gf180mcu_fd_sc_mcu9t5v0__dffrnq_2
* cell instance $188 m0 *1 483.28,458.64
X$188 111 18 70 75 69 112 gf180mcu_fd_sc_mcu9t5v0__dffrnq_2
* cell instance $193 m0 *1 401.52,488.88
X$193 111 18 80 75 98 112 gf180mcu_fd_sc_mcu9t5v0__dffrnq_2
* cell instance $196 m0 *1 420.56,488.88
X$196 111 18 79 75 93 112 gf180mcu_fd_sc_mcu9t5v0__dffrnq_2
* cell instance $199 m0 *1 407.68,458.64
X$199 111 18 57 75 55 112 gf180mcu_fd_sc_mcu9t5v0__dffrnq_2
* cell instance $202 r0 *1 462,458.64
X$202 111 18 67 75 72 112 gf180mcu_fd_sc_mcu9t5v0__dffrnq_2
* cell instance $210 m0 *1 491.12,478.8
X$210 111 18 88 75 89 112 gf180mcu_fd_sc_mcu9t5v0__dffrnq_2
* cell instance $212 m0 *1 385.28,498.96
X$212 111 101 18 112 gf180mcu_fd_sc_mcu9t5v0__buf_8
* cell instance $233 m0 *1 423.36,418.32
X$233 30 111 19 25 112 38 gf180mcu_fd_sc_mcu9t5v0__or3_2
* cell instance $238 m0 *1 432.88,418.32
X$238 111 39 112 20 21 24 gf180mcu_fd_sc_mcu9t5v0__aoi21_2
* cell instance $244 r0 *1 459.2,408.24
X$244 111 112 34 22 gf180mcu_fd_sc_mcu9t5v0__clkinv_3
* cell instance $257 r0 *1 486.64,448.56
X$257 111 71 112 69 62 24 gf180mcu_fd_sc_mcu9t5v0__aoi21_2
* cell instance $261 m0 *1 457.52,488.88
X$261 111 100 112 96 74 24 gf180mcu_fd_sc_mcu9t5v0__aoi21_2
* cell instance $263 r0 *1 489.44,438.48
X$263 111 50 112 63 45 24 gf180mcu_fd_sc_mcu9t5v0__aoi21_2
* cell instance $266 r0 *1 432.88,428.4
X$266 111 47 112 41 42 24 gf180mcu_fd_sc_mcu9t5v0__aoi21_2
* cell instance $269 m0 *1 495.04,488.88
X$269 111 90 112 89 97 24 gf180mcu_fd_sc_mcu9t5v0__aoi21_2
* cell instance $272 r0 *1 435.68,448.56
X$272 111 66 112 65 59 24 gf180mcu_fd_sc_mcu9t5v0__aoi21_2
* cell instance $274 r0 *1 438.48,478.8
X$274 111 92 112 93 82 24 gf180mcu_fd_sc_mcu9t5v0__aoi21_2
* cell instance $284 m0 *1 475.44,468.72
X$284 30 111 67 25 112 77 gf180mcu_fd_sc_mcu9t5v0__or3_2
* cell instance $286 r0 *1 449.68,468.72
X$286 30 111 73 25 112 99 gf180mcu_fd_sc_mcu9t5v0__or3_2
* cell instance $289 r0 *1 426.16,448.56
X$289 30 111 57 25 112 58 gf180mcu_fd_sc_mcu9t5v0__or3_2
* cell instance $291 m0 *1 484.4,478.8
X$291 33 111 86 25 112 87 gf180mcu_fd_sc_mcu9t5v0__or3_2
* cell instance $296 r0 *1 472.64,438.48
X$296 30 111 44 25 112 64 gf180mcu_fd_sc_mcu9t5v0__or3_2
* cell instance $298 m0 *1 422.8,478.8
X$298 30 111 80 25 112 81 gf180mcu_fd_sc_mcu9t5v0__or3_2
* cell instance $300 r0 *1 422.8,428.4
X$300 30 111 49 25 112 40 gf180mcu_fd_sc_mcu9t5v0__or3_2
* cell instance $313 r0 *1 859.04,408.24
X$313 111 112 27 34 gf180mcu_fd_sc_mcu9t5v0__clkbuf_4
* cell instance $332 m0 *1 459.2,448.56
X$332 111 30 33 112 gf180mcu_fd_sc_mcu9t5v0__clkbuf_12
* cell instance $346 r0 *1 482.16,478.8
X$346 112 111 31 91 87 88 90 32 gf180mcu_fd_sc_mcu9t5v0__oai221_2
* cell instance $349 m0 *1 480.48,438.48
X$349 112 111 31 43 64 51 50 32 gf180mcu_fd_sc_mcu9t5v0__oai221_2
* cell instance $351 r0 *1 482.16,458.64
X$351 112 111 31 68 77 70 71 32 gf180mcu_fd_sc_mcu9t5v0__oai221_2
* cell instance $353 r0 *1 453.6,478.8
X$353 112 111 31 84 99 85 100 32 gf180mcu_fd_sc_mcu9t5v0__oai221_2
* cell instance $357 r0 *1 426.16,478.8
X$357 112 111 31 76 81 79 92 32 gf180mcu_fd_sc_mcu9t5v0__oai221_2
* cell instance $362 m0 *1 430.64,458.64
X$362 112 111 31 56 58 61 66 32 gf180mcu_fd_sc_mcu9t5v0__oai221_2
* cell instance $419 r0 *1 478.24,488.88
X$419 111 112 102 91 35 86 gf180mcu_fd_sc_mcu9t5v0__mux2_2
* cell instance $422 m0 *1 471.52,458.64
X$422 111 112 72 68 35 67 gf180mcu_fd_sc_mcu9t5v0__mux2_2
* cell instance $425 m0 *1 465.36,428.4
X$425 111 112 48 43 35 44 gf180mcu_fd_sc_mcu9t5v0__mux2_2
* cell instance $427 r0 *1 410.48,478.8
X$427 111 112 98 76 35 80 gf180mcu_fd_sc_mcu9t5v0__mux2_2
* cell instance $429 r0 *1 476,418.32
X$429 111 36 35 112 gf180mcu_fd_sc_mcu9t5v0__clkbuf_8
* cell instance $433 r0 *1 446.88,488.88
X$433 111 112 103 84 35 73 gf180mcu_fd_sc_mcu9t5v0__mux2_2
* cell instance $436 r0 *1 414.4,448.56
X$436 111 112 55 56 35 57 gf180mcu_fd_sc_mcu9t5v0__mux2_2
* cell instance $465 r0 *1 865.76,428.4
X$465 46 112 111 43 gf180mcu_fd_sc_mcu9t5v0__buf_3
* cell instance $496 r0 *1 871.36,428.4
X$496 51 112 111 52 gf180mcu_fd_sc_mcu9t5v0__dlyb_2
* cell instance $511 r0 *1 11.76,448.56
X$511 54 112 111 56 gf180mcu_fd_sc_mcu9t5v0__buf_3
* cell instance $537 r0 *1 449.12,448.56
X$537 111 83 60 112 gf180mcu_fd_sc_mcu9t5v0__clkbuf_16
* cell instance $541 m0 *1 450.8,478.8
X$541 111 60 75 112 gf180mcu_fd_sc_mcu9t5v0__clkbuf_16
* cell instance $546 m0 *1 450.24,882
X$546 61 112 111 110 gf180mcu_fd_sc_mcu9t5v0__dlyb_2
* cell instance $577 m0 *1 483.28,882
X$577 106 112 111 68 gf180mcu_fd_sc_mcu9t5v0__buf_3
* cell instance $591 r0 *1 491.12,871.92
X$591 70 112 111 108 gf180mcu_fd_sc_mcu9t5v0__dlyb_2
* cell instance $615 m0 *1 447.44,478.8
X$615 75 111 112 gf180mcu_fd_sc_mcu9t5v0__clkbuf_1
* cell instance $644 m0 *1 6.16,478.8
X$644 78 112 111 76 gf180mcu_fd_sc_mcu9t5v0__buf_3
* cell instance $656 r0 *1 10.08,478.8
X$656 79 112 111 94 gf180mcu_fd_sc_mcu9t5v0__dlyb_2
* cell instance $680 r0 *1 451.36,871.92
X$680 104 112 111 84 gf180mcu_fd_sc_mcu9t5v0__buf_3
* cell instance $688 r0 *1 462,871.92
X$688 85 112 111 105 gf180mcu_fd_sc_mcu9t5v0__dlyb_2
* cell instance $703 m0 *1 494.48,871.92
X$703 88 112 111 109 gf180mcu_fd_sc_mcu9t5v0__dlyb_2
* cell instance $714 r0 *1 483.28,871.92
X$714 107 112 111 91 gf180mcu_fd_sc_mcu9t5v0__buf_3
* cell instance $734 r0 *1 193.76,488.88
X$734 111 101 95 112 gf180mcu_fd_sc_mcu9t5v0__dlyc_2
.ENDS skid_buffer

* cell gf180mcu_fd_sc_mcu9t5v0__nand2_2
* pin PWELL,VSS,gf180mcu_gnd
* pin NWELL,VDD
* pin A1
* pin ZN
* pin A2
.SUBCKT gf180mcu_fd_sc_mcu9t5v0__nand2_2 1 2 3 4 5
* net 1 PWELL,VSS,gf180mcu_gnd
* net 2 NWELL,VDD
* net 3 A1
* net 4 ZN
* net 5 A2
* device instance $1 r0 *1 0.87,3.857 pmos_5p0
M$1 4 5 2 2 pmos_5p0 L=0.5U W=3.29U AS=1.1515P AD=1.1515P PS=6.335U PD=6.335U
* device instance $2 r0 *1 1.89,3.857 pmos_5p0
M$2 2 3 4 2 pmos_5p0 L=0.5U W=3.29U AS=0.8554P AD=0.8554P PS=4.33U PD=4.33U
* device instance $5 r0 *1 0.92,1.005 nmos_5p0
M$5 7 5 1 1 nmos_5p0 L=0.6U W=1.32U AS=0.5808P AD=0.2112P PS=3.52U PD=1.64U
* device instance $6 r0 *1 1.84,1.005 nmos_5p0
M$6 4 3 7 1 nmos_5p0 L=0.6U W=1.32U AS=0.2112P AD=0.3432P PS=1.64U PD=1.84U
* device instance $7 r0 *1 2.96,1.005 nmos_5p0
M$7 6 3 4 1 nmos_5p0 L=0.6U W=1.32U AS=0.3432P AD=0.2112P PS=1.84U PD=1.64U
* device instance $8 r0 *1 3.88,1.005 nmos_5p0
M$8 1 5 6 1 nmos_5p0 L=0.6U W=1.32U AS=0.2112P AD=0.5808P PS=1.64U PD=3.52U
.ENDS gf180mcu_fd_sc_mcu9t5v0__nand2_2

* cell gf180mcu_fd_sc_mcu9t5v0__oai21_2
* pin NWELL,VDD
* pin B
* pin PWELL,VSS,gf180mcu_gnd
* pin A2
* pin ZN
* pin A1
.SUBCKT gf180mcu_fd_sc_mcu9t5v0__oai21_2 1 2 3 4 5 6
* net 1 NWELL,VDD
* net 2 B
* net 3 PWELL,VSS,gf180mcu_gnd
* net 4 A2
* net 5 ZN
* net 6 A1
* device instance $1 r0 *1 0.97,3.872 pmos_5p0
M$1 5 2 1 1 pmos_5p0 L=0.5U W=3.29U AS=1.353P AD=0.8554P PS=6.72U PD=4.33U
* device instance $3 r0 *1 3.21,3.78 pmos_5p0
M$3 9 4 1 1 pmos_5p0 L=0.5U W=1.83U AS=0.6292P AD=0.52155P PS=2.55U PD=2.4U
* device instance $4 r0 *1 4.28,3.78 pmos_5p0
M$4 5 6 9 1 pmos_5p0 L=0.5U W=1.83U AS=0.52155P AD=0.5673P PS=2.4U PD=2.45U
* device instance $5 r0 *1 5.4,3.78 pmos_5p0
M$5 8 6 5 1 pmos_5p0 L=0.5U W=1.83U AS=0.5673P AD=0.52155P PS=2.45U PD=2.4U
* device instance $6 r0 *1 6.47,3.78 pmos_5p0
M$6 1 4 8 1 pmos_5p0 L=0.5U W=1.83U AS=0.52155P AD=0.8052P PS=2.4U PD=4.54U
* device instance $7 r0 *1 0.92,1.005 nmos_5p0
M$7 3 2 7 3 nmos_5p0 L=0.6U W=2.64U AS=0.924P AD=0.6864P PS=5.36U PD=3.68U
* device instance $9 r0 *1 3.16,1.005 nmos_5p0
M$9 5 4 7 3 nmos_5p0 L=0.6U W=2.64U AS=0.6864P AD=0.924P PS=3.68U PD=5.36U
* device instance $10 r0 *1 4.28,1.005 nmos_5p0
M$10 7 6 5 3 nmos_5p0 L=0.6U W=2.64U AS=0.6864P AD=0.6864P PS=3.68U PD=3.68U
.ENDS gf180mcu_fd_sc_mcu9t5v0__oai21_2

* cell gf180mcu_fd_sc_mcu9t5v0__clkbuf_8
* pin PWELL,VSS,gf180mcu_gnd
* pin I
* pin Z
* pin NWELL,VDD
.SUBCKT gf180mcu_fd_sc_mcu9t5v0__clkbuf_8 1 2 4 5
* net 1 PWELL,VSS,gf180mcu_gnd
* net 2 I
* net 4 Z
* net 5 NWELL,VDD
* device instance $1 r0 *1 0.87,3.78 pmos_5p0
M$1 3 2 5 5 pmos_5p0 L=0.5U W=7.32U AS=2.5071P AD=2.4339P PS=11.89U PD=9.98U
* device instance $5 r0 *1 5.53,3.78 pmos_5p0
M$5 4 3 5 5 pmos_5p0 L=0.5U W=14.64U AS=4.7031P AD=4.7763P PS=19.78U PD=21.69U
* device instance $13 r0 *1 0.92,1.3 nmos_5p0
M$13 3 2 1 1 nmos_5p0 L=0.6U W=2.92U AS=0.9703P AD=0.7592P PS=6.34U PD=5U
* device instance $17 r0 *1 5.58,1.265 nmos_5p0
M$17 4 3 1 1 nmos_5p0 L=0.6U W=6.4U AS=1.7255P AD=1.808P PS=10.74U PD=11.72U
.ENDS gf180mcu_fd_sc_mcu9t5v0__clkbuf_8

* cell gf180mcu_fd_sc_mcu9t5v0__and4_2
* pin A1
* pin A2
* pin A3
* pin A4
* pin PWELL,VSS,gf180mcu_gnd
* pin NWELL,VDD
* pin Z
.SUBCKT gf180mcu_fd_sc_mcu9t5v0__and4_2 1 2 3 4 5 6 8
* net 1 A1
* net 2 A2
* net 3 A3
* net 4 A4
* net 5 PWELL,VSS,gf180mcu_gnd
* net 6 NWELL,VDD
* net 8 Z
* device instance $1 r0 *1 0.925,4.055 pmos_5p0
M$1 7 1 6 6 pmos_5p0 L=0.5U W=1.28U AS=0.5632P AD=0.3328P PS=3.44U PD=1.8U
* device instance $2 r0 *1 1.945,4.055 pmos_5p0
M$2 6 2 7 6 pmos_5p0 L=0.5U W=1.28U AS=0.3328P AD=0.3328P PS=1.8U PD=1.8U
* device instance $3 r0 *1 2.965,4.055 pmos_5p0
M$3 7 3 6 6 pmos_5p0 L=0.5U W=1.28U AS=0.3328P AD=0.3328P PS=1.8U PD=1.8U
* device instance $4 r0 *1 3.985,4.055 pmos_5p0
M$4 7 4 6 6 pmos_5p0 L=0.5U W=1.28U AS=0.558P AD=0.3328P PS=2.53U PD=1.8U
* device instance $5 r0 *1 5.185,3.78 pmos_5p0
M$5 8 7 6 6 pmos_5p0 L=0.5U W=3.66U AS=1.0338P AD=1.281P PS=4.88U PD=6.89U
* device instance $7 r0 *1 0.975,1.005 nmos_5p0
M$7 11 1 7 5 nmos_5p0 L=0.6U W=1.32U AS=0.5808P AD=0.2112P PS=3.52U PD=1.64U
* device instance $8 r0 *1 1.895,1.005 nmos_5p0
M$8 10 2 11 5 nmos_5p0 L=0.6U W=1.32U AS=0.2112P AD=0.2772P PS=1.64U PD=1.74U
* device instance $9 r0 *1 2.915,1.005 nmos_5p0
M$9 9 3 10 5 nmos_5p0 L=0.6U W=1.32U AS=0.2772P AD=0.2772P PS=1.74U PD=1.74U
* device instance $10 r0 *1 3.935,1.005 nmos_5p0
M$10 5 4 9 5 nmos_5p0 L=0.6U W=1.32U AS=0.2772P AD=0.3432P PS=1.74U PD=1.84U
* device instance $11 r0 *1 5.055,1.005 nmos_5p0
M$11 8 7 5 5 nmos_5p0 L=0.6U W=2.64U AS=0.6864P AD=0.924P PS=3.68U PD=5.36U
.ENDS gf180mcu_fd_sc_mcu9t5v0__and4_2

* cell gf180mcu_fd_sc_mcu9t5v0__or3_4
* pin PWELL,VSS,gf180mcu_gnd
* pin A3
* pin A2
* pin A1
* pin NWELL,VDD
* pin Z
.SUBCKT gf180mcu_fd_sc_mcu9t5v0__or3_4 1 2 4 5 6 7
* net 1 PWELL,VSS,gf180mcu_gnd
* net 2 A3
* net 4 A2
* net 5 A1
* net 6 NWELL,VDD
* net 7 Z
* device instance $1 r0 *1 0.97,3.78 pmos_5p0
M$1 11 2 6 6 pmos_5p0 L=0.5U W=1.83U AS=0.8052P AD=0.52155P PS=4.54U PD=2.4U
* device instance $2 r0 *1 2.04,3.78 pmos_5p0
M$2 10 4 11 6 pmos_5p0 L=0.5U W=1.83U AS=0.52155P AD=0.5673P PS=2.4U PD=2.45U
* device instance $3 r0 *1 3.16,3.78 pmos_5p0
M$3 3 5 10 6 pmos_5p0 L=0.5U W=1.83U AS=0.5673P AD=0.5673P PS=2.45U PD=2.45U
* device instance $4 r0 *1 4.28,3.78 pmos_5p0
M$4 9 5 3 6 pmos_5p0 L=0.5U W=1.83U AS=0.5673P AD=0.5673P PS=2.45U PD=2.45U
* device instance $5 r0 *1 5.4,3.78 pmos_5p0
M$5 8 4 9 6 pmos_5p0 L=0.5U W=1.83U AS=0.5673P AD=0.52155P PS=2.45U PD=2.4U
* device instance $6 r0 *1 6.47,3.78 pmos_5p0
M$6 6 2 8 6 pmos_5p0 L=0.5U W=1.83U AS=0.52155P AD=0.8235P PS=2.4U PD=2.73U
* device instance $7 r0 *1 7.87,3.78 pmos_5p0
M$7 7 3 6 6 pmos_5p0 L=0.5U W=7.32U AS=2.4339P AD=2.4156P PS=9.98U PD=11.79U
* device instance $11 r0 *1 0.92,0.87 nmos_5p0
M$11 3 2 1 1 nmos_5p0 L=0.6U W=2.1U AS=0.735P AD=0.6945P PS=4.55U PD=3.59U
* device instance $12 r0 *1 2.04,0.87 nmos_5p0
M$12 1 4 3 1 nmos_5p0 L=0.6U W=2.1U AS=0.546P AD=0.546P PS=3.14U PD=3.14U
* device instance $13 r0 *1 3.16,0.87 nmos_5p0
M$13 3 5 1 1 nmos_5p0 L=0.6U W=2.1U AS=0.546P AD=0.546P PS=3.14U PD=3.14U
* device instance $17 r0 *1 7.82,1.005 nmos_5p0
M$17 7 3 1 1 nmos_5p0 L=0.6U W=5.28U AS=1.4511P AD=1.6104P PS=7.54U PD=9.04U
.ENDS gf180mcu_fd_sc_mcu9t5v0__or3_4

* cell gf180mcu_fd_sc_mcu9t5v0__aoi22_4
* pin PWELL,VSS,gf180mcu_gnd
* pin B2
* pin ZN
* pin A2
* pin B1
* pin A1
* pin NWELL,VDD
.SUBCKT gf180mcu_fd_sc_mcu9t5v0__aoi22_4 1 2 3 4 13 14 16
* net 1 PWELL,VSS,gf180mcu_gnd
* net 2 B2
* net 3 ZN
* net 4 A2
* net 13 B1
* net 14 A1
* net 16 NWELL,VDD
* device instance $1 r0 *1 0.87,3.78 pmos_5p0
M$1 16 2 15 16 pmos_5p0 L=0.5U W=7.32U AS=2.2326P AD=2.1228P PS=11.59U PD=9.64U
* device instance $2 r0 *1 1.89,3.78 pmos_5p0
M$2 15 13 16 16 pmos_5p0 L=0.5U W=7.32U AS=1.9032P AD=1.9032P PS=9.4U PD=9.4U
* device instance $9 r0 *1 9.27,3.78 pmos_5p0
M$9 3 4 15 16 pmos_5p0 L=0.5U W=7.32U AS=2.1228P AD=2.2326P PS=9.64U PD=11.59U
* device instance $10 r0 *1 10.29,3.78 pmos_5p0
M$10 15 14 3 16 pmos_5p0 L=0.5U W=7.32U AS=1.9032P AD=1.9032P PS=9.4U PD=9.4U
* device instance $17 r0 *1 0.92,1.005 nmos_5p0
M$17 5 2 1 1 nmos_5p0 L=0.6U W=1.32U AS=0.5808P AD=0.2112P PS=3.52U PD=1.64U
* device instance $18 r0 *1 1.84,1.005 nmos_5p0
M$18 3 13 5 1 nmos_5p0 L=0.6U W=1.32U AS=0.2112P AD=0.3432P PS=1.64U PD=1.84U
* device instance $19 r0 *1 2.96,1.005 nmos_5p0
M$19 7 13 3 1 nmos_5p0 L=0.6U W=1.32U AS=0.3432P AD=0.2112P PS=1.84U PD=1.64U
* device instance $20 r0 *1 3.88,1.005 nmos_5p0
M$20 1 2 7 1 nmos_5p0 L=0.6U W=1.32U AS=0.2112P AD=0.3432P PS=1.64U PD=1.84U
* device instance $21 r0 *1 5,1.005 nmos_5p0
M$21 6 2 1 1 nmos_5p0 L=0.6U W=1.32U AS=0.3432P AD=0.2112P PS=1.84U PD=1.64U
* device instance $22 r0 *1 5.92,1.005 nmos_5p0
M$22 3 13 6 1 nmos_5p0 L=0.6U W=1.32U AS=0.2112P AD=0.3432P PS=1.64U PD=1.84U
* device instance $23 r0 *1 7.04,1.005 nmos_5p0
M$23 9 13 3 1 nmos_5p0 L=0.6U W=1.32U AS=0.3432P AD=0.2112P PS=1.84U PD=1.64U
* device instance $24 r0 *1 7.96,1.005 nmos_5p0
M$24 1 2 9 1 nmos_5p0 L=0.6U W=1.32U AS=0.2112P AD=0.5016P PS=1.64U PD=2.08U
* device instance $25 r0 *1 9.32,1.005 nmos_5p0
M$25 12 4 1 1 nmos_5p0 L=0.6U W=1.32U AS=0.5016P AD=0.2112P PS=2.08U PD=1.64U
* device instance $26 r0 *1 10.24,1.005 nmos_5p0
M$26 3 14 12 1 nmos_5p0 L=0.6U W=1.32U AS=0.2112P AD=0.3432P PS=1.64U PD=1.84U
* device instance $27 r0 *1 11.36,1.005 nmos_5p0
M$27 11 14 3 1 nmos_5p0 L=0.6U W=1.32U AS=0.3432P AD=0.2112P PS=1.84U PD=1.64U
* device instance $28 r0 *1 12.28,1.005 nmos_5p0
M$28 1 4 11 1 nmos_5p0 L=0.6U W=1.32U AS=0.2112P AD=0.3432P PS=1.64U PD=1.84U
* device instance $29 r0 *1 13.4,1.005 nmos_5p0
M$29 10 4 1 1 nmos_5p0 L=0.6U W=1.32U AS=0.3432P AD=0.2112P PS=1.84U PD=1.64U
* device instance $30 r0 *1 14.32,1.005 nmos_5p0
M$30 3 14 10 1 nmos_5p0 L=0.6U W=1.32U AS=0.2112P AD=0.3432P PS=1.64U PD=1.84U
* device instance $31 r0 *1 15.44,1.005 nmos_5p0
M$31 8 14 3 1 nmos_5p0 L=0.6U W=1.32U AS=0.3432P AD=0.2112P PS=1.84U PD=1.64U
* device instance $32 r0 *1 16.36,1.005 nmos_5p0
M$32 1 4 8 1 nmos_5p0 L=0.6U W=1.32U AS=0.2112P AD=0.5808P PS=1.64U PD=3.52U
.ENDS gf180mcu_fd_sc_mcu9t5v0__aoi22_4

* cell gf180mcu_fd_sc_mcu9t5v0__clkinv_3
* pin PWELL,VSS,gf180mcu_gnd
* pin NWELL,VDD
* pin I
* pin ZN
.SUBCKT gf180mcu_fd_sc_mcu9t5v0__clkinv_3 1 2 3 4
* net 1 PWELL,VSS,gf180mcu_gnd
* net 2 NWELL,VDD
* net 3 I
* net 4 ZN
* device instance $1 r0 *1 0.87,3.78 pmos_5p0
M$1 4 3 2 2 pmos_5p0 L=0.5U W=5.49U AS=1.9398P AD=1.9398P PS=9.44U PD=9.44U
* device instance $4 r0 *1 0.92,0.995 nmos_5p0
M$4 4 3 1 1 nmos_5p0 L=0.6U W=2.19U AS=0.7008P AD=0.7008P PS=4.84U PD=4.84U
.ENDS gf180mcu_fd_sc_mcu9t5v0__clkinv_3

* cell gf180mcu_fd_sc_mcu9t5v0__clkinv_8
* pin PWELL,VSS,gf180mcu_gnd
* pin NWELL,VDD
* pin I
* pin ZN
.SUBCKT gf180mcu_fd_sc_mcu9t5v0__clkinv_8 1 2 3 4
* net 1 PWELL,VSS,gf180mcu_gnd
* net 2 NWELL,VDD
* net 3 I
* net 4 ZN
* device instance $1 r0 *1 0.87,3.78 pmos_5p0
M$1 4 3 2 2 pmos_5p0 L=0.5U W=14.64U AS=4.7763P AD=4.7763P PS=21.69U PD=21.69U
* device instance $9 r0 *1 0.92,1.3 nmos_5p0
M$9 4 3 1 1 nmos_5p0 L=0.6U W=5.84U AS=1.6498P AD=1.6498P PS=11.09U PD=11.09U
.ENDS gf180mcu_fd_sc_mcu9t5v0__clkinv_8

* cell gf180mcu_fd_sc_mcu9t5v0__inv_4
* pin PWELL,VSS,gf180mcu_gnd
* pin NWELL,VDD
* pin I
* pin ZN
.SUBCKT gf180mcu_fd_sc_mcu9t5v0__inv_4 1 2 3 4
* net 1 PWELL,VSS,gf180mcu_gnd
* net 2 NWELL,VDD
* net 3 I
* net 4 ZN
* device instance $1 r0 *1 0.87,3.78 pmos_5p0
M$1 4 3 2 2 pmos_5p0 L=0.5U W=7.32U AS=2.5071P AD=2.5071P PS=11.89U PD=11.89U
* device instance $5 r0 *1 0.92,1.005 nmos_5p0
M$5 4 3 1 1 nmos_5p0 L=0.6U W=5.28U AS=1.6104P AD=1.6104P PS=9.04U PD=9.04U
.ENDS gf180mcu_fd_sc_mcu9t5v0__inv_4

* cell gf180mcu_fd_sc_mcu9t5v0__nand2_4
* pin NWELL,VDD
* pin PWELL,VSS,gf180mcu_gnd
* pin A2
* pin ZN
* pin A1
.SUBCKT gf180mcu_fd_sc_mcu9t5v0__nand2_4 1 2 3 4 5
* net 1 NWELL,VDD
* net 2 PWELL,VSS,gf180mcu_gnd
* net 3 A2
* net 4 ZN
* net 5 A1
* device instance $1 r0 *1 0.87,3.687 pmos_5p0
M$1 4 3 1 1 pmos_5p0 L=0.5U W=6.58U AS=2.0069P AD=2.0069P PS=10.665U PD=10.665U
* device instance $2 r0 *1 1.89,3.687 pmos_5p0
M$2 1 5 4 1 pmos_5p0 L=0.5U W=6.58U AS=1.7108P AD=1.7108P PS=8.66U PD=8.66U
* device instance $9 r0 *1 1,1.005 nmos_5p0
M$9 9 3 2 2 nmos_5p0 L=0.6U W=1.32U AS=0.5808P AD=0.1584P PS=3.52U PD=1.56U
* device instance $10 r0 *1 1.84,1.005 nmos_5p0
M$10 4 5 9 2 nmos_5p0 L=0.6U W=1.32U AS=0.1584P AD=0.3729P PS=1.56U PD=1.885U
* device instance $11 r0 *1 3.005,1.005 nmos_5p0
M$11 8 5 4 2 nmos_5p0 L=0.6U W=1.32U AS=0.3729P AD=0.1584P PS=1.885U PD=1.56U
* device instance $12 r0 *1 3.845,1.005 nmos_5p0
M$12 2 3 8 2 nmos_5p0 L=0.6U W=1.32U AS=0.1584P AD=0.3663P PS=1.56U PD=1.875U
* device instance $13 r0 *1 5,1.005 nmos_5p0
M$13 7 3 2 2 nmos_5p0 L=0.6U W=1.32U AS=0.3663P AD=0.2112P PS=1.875U PD=1.64U
* device instance $14 r0 *1 5.92,1.005 nmos_5p0
M$14 4 5 7 2 nmos_5p0 L=0.6U W=1.32U AS=0.2112P AD=0.3432P PS=1.64U PD=1.84U
* device instance $15 r0 *1 7.04,1.005 nmos_5p0
M$15 6 5 4 2 nmos_5p0 L=0.6U W=1.32U AS=0.3432P AD=0.2112P PS=1.84U PD=1.64U
* device instance $16 r0 *1 7.96,1.005 nmos_5p0
M$16 2 3 6 2 nmos_5p0 L=0.6U W=1.32U AS=0.2112P AD=0.5808P PS=1.64U PD=3.52U
.ENDS gf180mcu_fd_sc_mcu9t5v0__nand2_4

* cell gf180mcu_fd_sc_mcu9t5v0__dffrnq_4
* pin PWELL,VSS,gf180mcu_gnd
* pin RN
* pin Q
* pin CLK
* pin D
* pin NWELL,VDD
.SUBCKT gf180mcu_fd_sc_mcu9t5v0__dffrnq_4 1 3 4 5 6 17
* net 1 PWELL,VSS,gf180mcu_gnd
* net 3 RN
* net 4 Q
* net 5 CLK
* net 6 D
* net 17 NWELL,VDD
* device instance $1 r0 *1 16.975,3.78 pmos_5p0
M$1 4 13 17 17 pmos_5p0 L=0.5U W=7.32U AS=2.2326P AD=2.2326P PS=11.59U PD=11.59U
* device instance $5 r0 *1 9.55,3.71 pmos_5p0
M$5 10 9 17 17 pmos_5p0 L=0.5U W=1U AS=0.44P AD=0.285P PS=2.88U PD=1.57U
* device instance $6 r0 *1 10.62,3.71 pmos_5p0
M$6 11 2 10 17 pmos_5p0 L=0.5U W=1U AS=0.285P AD=0.26P PS=1.57U PD=1.52U
* device instance $7 r0 *1 11.64,3.71 pmos_5p0
M$7 12 8 11 17 pmos_5p0 L=0.5U W=1U AS=0.26P AD=0.2875P PS=1.52U PD=1.575U
* device instance $8 r0 *1 12.715,3.71 pmos_5p0
M$8 12 13 17 17 pmos_5p0 L=0.5U W=1U AS=0.5457P AD=0.2875P PS=2.57U PD=1.575U
* device instance $9 r0 *1 13.955,3.78 pmos_5p0
M$9 13 3 17 17 pmos_5p0 L=0.5U W=1.83U AS=0.5457P AD=0.4758P PS=2.57U PD=2.35U
* device instance $10 r0 *1 14.975,3.78 pmos_5p0
M$10 17 11 13 17 pmos_5p0 L=0.5U W=1.83U AS=0.4758P AD=0.8052P PS=2.35U PD=4.54U
* device instance $11 r0 *1 3.73,3.41 pmos_5p0
M$11 7 6 17 17 pmos_5p0 L=0.5U W=1U AS=0.44P AD=0.26P PS=2.88U PD=1.52U
* device instance $12 r0 *1 4.75,3.41 pmos_5p0
M$12 9 8 7 17 pmos_5p0 L=0.5U W=1U AS=0.26P AD=0.26P PS=1.52U PD=1.52U
* device instance $13 r0 *1 5.77,3.41 pmos_5p0
M$13 18 2 9 17 pmos_5p0 L=0.5U W=1U AS=0.26P AD=0.26P PS=1.52U PD=1.52U
* device instance $14 r0 *1 6.79,3.41 pmos_5p0
M$14 17 10 18 17 pmos_5p0 L=0.5U W=1U AS=0.26P AD=0.26P PS=1.52U PD=1.52U
* device instance $15 r0 *1 7.81,3.41 pmos_5p0
M$15 18 3 17 17 pmos_5p0 L=0.5U W=1U AS=0.26P AD=0.44P PS=1.52U PD=2.88U
* device instance $16 r0 *1 0.97,3.555 pmos_5p0
M$16 17 5 2 17 pmos_5p0 L=0.5U W=1.38U AS=0.6072P AD=0.3588P PS=3.64U PD=1.9U
* device instance $17 r0 *1 1.99,3.555 pmos_5p0
M$17 8 2 17 17 pmos_5p0 L=0.5U W=1.38U AS=0.3588P AD=0.6072P PS=1.9U PD=3.64U
* device instance $18 r0 *1 16.925,1.005 nmos_5p0
M$18 4 13 1 1 nmos_5p0 L=0.6U W=5.28U AS=1.6104P AD=1.6104P PS=9.04U PD=9.04U
* device instance $22 r0 *1 3.9,1.315 nmos_5p0
M$22 7 6 1 1 nmos_5p0 L=0.6U W=0.59U AS=0.2596P AD=0.1534P PS=2.06U PD=1.11U
* device instance $23 r0 *1 5.02,1.315 nmos_5p0
M$23 9 2 7 1 nmos_5p0 L=0.6U W=0.59U AS=0.1534P AD=0.1534P PS=1.11U PD=1.11U
* device instance $24 r0 *1 6.14,1.315 nmos_5p0
M$24 15 8 9 1 nmos_5p0 L=0.6U W=0.59U AS=0.1534P AD=0.0708P PS=1.11U PD=0.83U
* device instance $25 r0 *1 6.98,1.315 nmos_5p0
M$25 14 10 15 1 nmos_5p0 L=0.6U W=0.59U AS=0.0708P AD=0.0826P PS=0.83U PD=0.87U
* device instance $26 r0 *1 7.86,1.315 nmos_5p0
M$26 1 3 14 1 nmos_5p0 L=0.6U W=0.59U AS=0.0826P AD=0.2124P PS=0.87U PD=1.31U
* device instance $27 r0 *1 9.18,1.315 nmos_5p0
M$27 10 9 1 1 nmos_5p0 L=0.6U W=0.59U AS=0.2124P AD=0.190275P PS=1.31U PD=1.235U
* device instance $28 r0 *1 10.425,1.315 nmos_5p0
M$28 11 8 10 1 nmos_5p0 L=0.6U W=0.59U AS=0.190275P AD=0.1534P PS=1.235U
+ PD=1.11U
* device instance $29 r0 *1 11.545,1.315 nmos_5p0
M$29 12 2 11 1 nmos_5p0 L=0.6U W=0.59U AS=0.1534P AD=0.1534P PS=1.11U PD=1.11U
* device instance $30 r0 *1 12.665,1.315 nmos_5p0
M$30 1 13 12 1 nmos_5p0 L=0.6U W=0.59U AS=0.1534P AD=0.1534P PS=1.11U PD=1.11U
* device instance $31 r0 *1 13.785,1.315 nmos_5p0
M$31 1 3 16 1 nmos_5p0 L=0.6U W=0.59U AS=0.3525P AD=0.1534P PS=2.02U PD=1.11U
* device instance $32 r0 *1 15.085,1.005 nmos_5p0
M$32 13 11 16 1 nmos_5p0 L=0.6U W=1.32U AS=0.3525P AD=0.5808P PS=2.02U PD=3.52U
* device instance $33 r0 *1 0.92,1.27 nmos_5p0
M$33 1 5 2 1 nmos_5p0 L=0.6U W=0.79U AS=0.3476P AD=0.2054P PS=2.46U PD=1.31U
* device instance $34 r0 *1 2.04,1.27 nmos_5p0
M$34 8 2 1 1 nmos_5p0 L=0.6U W=0.79U AS=0.2054P AD=0.3476P PS=1.31U PD=2.46U
.ENDS gf180mcu_fd_sc_mcu9t5v0__dffrnq_4

* cell gf180mcu_fd_sc_mcu9t5v0__oai31_2
* pin NWELL,VDD
* pin B
* pin PWELL,VSS,gf180mcu_gnd
* pin ZN
* pin A2
* pin A1
* pin A3
.SUBCKT gf180mcu_fd_sc_mcu9t5v0__oai31_2 1 2 3 4 5 6 7
* net 1 NWELL,VDD
* net 2 B
* net 3 PWELL,VSS,gf180mcu_gnd
* net 4 ZN
* net 5 A2
* net 6 A1
* net 7 A3
* device instance $1 r0 *1 0.92,3.872 pmos_5p0
M$1 4 2 1 1 pmos_5p0 L=0.5U W=3.29U AS=1.353P AD=0.93765P PS=6.72U PD=4.43U
* device instance $3 r0 *1 3.21,3.78 pmos_5p0
M$3 12 7 1 1 pmos_5p0 L=0.5U W=1.83U AS=0.6292P AD=0.52155P PS=2.55U PD=2.4U
* device instance $4 r0 *1 4.28,3.78 pmos_5p0
M$4 11 5 12 1 pmos_5p0 L=0.5U W=1.83U AS=0.52155P AD=0.5673P PS=2.4U PD=2.45U
* device instance $5 r0 *1 5.4,3.78 pmos_5p0
M$5 4 6 11 1 pmos_5p0 L=0.5U W=1.83U AS=0.5673P AD=0.5673P PS=2.45U PD=2.45U
* device instance $6 r0 *1 6.52,3.78 pmos_5p0
M$6 10 6 4 1 pmos_5p0 L=0.5U W=1.83U AS=0.5673P AD=0.5673P PS=2.45U PD=2.45U
* device instance $7 r0 *1 7.64,3.78 pmos_5p0
M$7 9 5 10 1 pmos_5p0 L=0.5U W=1.83U AS=0.5673P AD=0.52155P PS=2.45U PD=2.4U
* device instance $8 r0 *1 8.71,3.78 pmos_5p0
M$8 1 7 9 1 pmos_5p0 L=0.5U W=1.83U AS=0.52155P AD=0.8052P PS=2.4U PD=4.54U
* device instance $9 r0 *1 0.92,1.005 nmos_5p0
M$9 3 2 8 3 nmos_5p0 L=0.6U W=2.64U AS=0.924P AD=0.6864P PS=5.36U PD=3.68U
* device instance $11 r0 *1 3.16,1.005 nmos_5p0
M$11 4 7 8 3 nmos_5p0 L=0.6U W=2.64U AS=0.6864P AD=1.2342P PS=3.68U PD=5.83U
* device instance $12 r0 *1 4.28,1.005 nmos_5p0
M$12 8 5 4 3 nmos_5p0 L=0.6U W=2.64U AS=0.6864P AD=0.6864P PS=3.68U PD=3.68U
* device instance $13 r0 *1 5.4,1.005 nmos_5p0
M$13 4 6 8 3 nmos_5p0 L=0.6U W=2.64U AS=0.6864P AD=0.6864P PS=3.68U PD=3.68U
.ENDS gf180mcu_fd_sc_mcu9t5v0__oai31_2

* cell gf180mcu_fd_sc_mcu9t5v0__clkbuf_4
* pin PWELL,VSS,gf180mcu_gnd
* pin NWELL,VDD
* pin I
* pin Z
.SUBCKT gf180mcu_fd_sc_mcu9t5v0__clkbuf_4 1 2 3 5
* net 1 PWELL,VSS,gf180mcu_gnd
* net 2 NWELL,VDD
* net 3 I
* net 5 Z
* device instance $1 r0 *1 0.87,3.78 pmos_5p0
M$1 4 3 2 2 pmos_5p0 L=0.5U W=3.66U AS=1.3725P AD=1.2993P PS=6.99U PD=5.08U
* device instance $3 r0 *1 3.29,3.78 pmos_5p0
M$3 5 4 2 2 pmos_5p0 L=0.5U W=7.32U AS=2.4339P AD=2.5071P PS=9.98U PD=11.89U
* device instance $7 r0 *1 0.92,1.23 nmos_5p0
M$7 4 3 1 1 nmos_5p0 L=0.6U W=1.46U AS=0.511P AD=0.4593P PS=3.59U PD=2.75U
* device instance $9 r0 *1 3.34,1.265 nmos_5p0
M$9 5 4 1 1 nmos_5p0 L=0.6U W=3.2U AS=0.8935P AD=0.976P PS=5.46U PD=6.44U
.ENDS gf180mcu_fd_sc_mcu9t5v0__clkbuf_4

* cell gf180mcu_fd_sc_mcu9t5v0__buf_8
* pin PWELL,VSS,gf180mcu_gnd
* pin I
* pin Z
* pin NWELL,VDD
.SUBCKT gf180mcu_fd_sc_mcu9t5v0__buf_8 1 2 4 5
* net 1 PWELL,VSS,gf180mcu_gnd
* net 2 I
* net 4 Z
* net 5 NWELL,VDD
* device instance $1 r0 *1 0.87,3.78 pmos_5p0
M$1 3 2 5 5 pmos_5p0 L=0.5U W=7.32U AS=2.5071P AD=2.2692P PS=11.89U PD=9.8U
* device instance $5 r0 *1 5.35,3.78 pmos_5p0
M$5 4 3 5 5 pmos_5p0 L=0.5U W=14.64U AS=4.5384P AD=4.7763P PS=19.6U PD=21.69U
* device instance $13 r0 *1 0.92,1.005 nmos_5p0
M$13 3 2 1 1 nmos_5p0 L=0.6U W=5.28U AS=1.6104P AD=1.3728P PS=9.04U PD=7.36U
* device instance $17 r0 *1 5.4,1.005 nmos_5p0
M$17 4 3 1 1 nmos_5p0 L=0.6U W=10.56U AS=2.7456P AD=2.9832P PS=14.72U PD=16.4U
.ENDS gf180mcu_fd_sc_mcu9t5v0__buf_8

* cell gf180mcu_fd_sc_mcu9t5v0__dlyc_2
* pin PWELL,VSS,gf180mcu_gnd
* pin Z
* pin I
* pin NWELL,VDD
.SUBCKT gf180mcu_fd_sc_mcu9t5v0__dlyc_2 1 7 11 13
* net 1 PWELL,VSS,gf180mcu_gnd
* net 7 Z
* net 11 I
* net 13 NWELL,VDD