
* cell cordic
* pin x_out[1]
* pin x_out[2]
* pin x_out[0]
* pin x_in[12]
* pin x_in[11]
* pin x_in[10]
* pin x_in[2]
* pin x_in[0]
* pin x_in[1]
* pin x_in[3]
* pin x_in[4]
* pin x_in[6]
* pin x_in[5]
* pin x_out[4]
* pin x_out[5]
* pin x_in[8]
* pin x_in[9]
* pin x_out[3]
* pin x_out[6]
* pin x_in[7]
* pin rst_n
* pin x_out[7]
* pin x_out[8]
* pin x_out[10]
* pin x_out[9]
* pin x_out[11]
* pin x_out[13]
* pin x_out[12]
* pin x_in[13]
* pin y_out[10]
* pin y_in[11]
* pin y_out[11]
* pin x_out[14]
* pin y_in[10]
* pin x_out[15]
* pin y_out[0]
* pin done
* pin x_in[14]
* pin x_in[15]
* pin y_in[12]
* pin y_in[15]
* pin start
* pin z_out[1]
* pin y_in[14]
* pin z_out[2]
* pin y_in[13]
* pin z_in[2]
* pin z_in[1]
* pin clk
* pin z_out[3]
* pin z_in[3]
* pin y_out[15]
* pin y_out[13]
* pin z_in[4]
* pin y_out[12]
* pin y_out[14]
* pin z_out[4]
* pin z_in[6]
* pin z_in[5]
* pin z_out[6]
* pin y_in[4]
* pin y_out[4]
* pin z_out[5]
* pin y_in[5]
* pin y_in[8]
* pin y_in[9]
* pin z_in[7]
* pin y_out[5]
* pin z_out[7]
* pin z_in[8]
* pin z_in[0]
* pin z_in[10]
* pin z_out[0]
* pin y_in[0]
* pin z_in[9]
* pin y_in[7]
* pin y_out[8]
* pin z_in[14]
* pin z_in[13]
* pin z_in[12]
* pin y_out[1]
* pin z_in[15]
* pin z_in[11]
* pin y_in[1]
* pin y_in[2]
* pin z_out[11]
* pin z_out[8]
* pin z_out[9]
* pin z_out[10]
* pin z_out[14]
* pin z_out[12]
* pin y_in[3]
* pin z_out[13]
* pin z_out[15]
* pin y_out[2]
* pin y_out[3]
* pin y_out[7]
* pin y_out[9]
* pin y_in[6]
* pin y_out[6]
.SUBCKT cordic 1 2 3 4 5 6 7 8 9 10 11 12 13 14 15 16 17 18 19 21 106 155 194
+ 206 216 227 243 264 283 292 294 317 325 335 350 363 377 397 431 436 437 443
+ 498 520 531 539 549 550 569 633 634 646 647 706 718 719 735 811 832 833 845
+ 866 921 930 965 966 988 1019 1030 1031 1133 1135 1141 1146 1149 1150 1151
+ 1152 1155 1156 1157 1159 1160 1161 1163 1164 1165 1166 1167 1168 1169 1170
+ 1171 1172 1173 1174 1175 1176 1177 1178
* net 1 x_out[1]
* net 2 x_out[2]
* net 3 x_out[0]
* net 4 x_in[12]
* net 5 x_in[11]
* net 6 x_in[10]
* net 7 x_in[2]
* net 8 x_in[0]
* net 9 x_in[1]
* net 10 x_in[3]
* net 11 x_in[4]
* net 12 x_in[6]
* net 13 x_in[5]
* net 14 x_out[4]
* net 15 x_out[5]
* net 16 x_in[8]
* net 17 x_in[9]
* net 18 x_out[3]
* net 19 x_out[6]
* net 21 x_in[7]
* net 106 rst_n
* net 155 x_out[7]
* net 194 x_out[8]
* net 206 x_out[10]
* net 216 x_out[9]
* net 227 x_out[11]
* net 243 x_out[13]
* net 264 x_out[12]
* net 283 x_in[13]
* net 292 y_out[10]
* net 294 y_in[11]
* net 317 y_out[11]
* net 325 x_out[14]
* net 335 y_in[10]
* net 350 x_out[15]
* net 363 y_out[0]
* net 377 done
* net 397 x_in[14]
* net 431 x_in[15]
* net 436 y_in[12]
* net 437 y_in[15]
* net 443 start
* net 498 z_out[1]
* net 520 y_in[14]
* net 531 z_out[2]
* net 539 y_in[13]
* net 549 z_in[2]
* net 550 z_in[1]
* net 569 clk
* net 633 z_out[3]
* net 634 z_in[3]
* net 646 y_out[15]
* net 647 y_out[13]
* net 706 z_in[4]
* net 718 y_out[12]
* net 719 y_out[14]
* net 735 z_out[4]
* net 811 z_in[6]
* net 832 z_in[5]
* net 833 z_out[6]
* net 845 y_in[4]
* net 866 y_out[4]
* net 921 z_out[5]
* net 930 y_in[5]
* net 965 y_in[8]
* net 966 y_in[9]
* net 988 z_in[7]
* net 1019 y_out[5]
* net 1030 z_out[7]
* net 1031 z_in[8]
* net 1133 z_in[0]
* net 1135 z_in[10]
* net 1141 z_out[0]
* net 1146 y_in[0]
* net 1149 z_in[9]
* net 1150 y_in[7]
* net 1151 y_out[8]
* net 1152 z_in[14]
* net 1155 z_in[13]
* net 1156 z_in[12]
* net 1157 y_out[1]
* net 1159 z_in[15]
* net 1160 z_in[11]
* net 1161 y_in[1]
* net 1163 y_in[2]
* net 1164 z_out[11]
* net 1165 z_out[8]
* net 1166 z_out[9]
* net 1167 z_out[10]
* net 1168 z_out[14]
* net 1169 z_out[12]
* net 1170 y_in[3]
* net 1171 z_out[13]
* net 1172 z_out[15]
* net 1173 y_out[2]
* net 1174 y_out[3]
* net 1175 y_out[7]
* net 1176 y_out[9]
* net 1177 y_in[6]
* net 1178 y_out[6]
* cell instance $2 r0 *1 21.16,8.16
X$2 71 112 1 32 71 32 sky130_fd_sc_hd__clkbuf_1
* cell instance $6 r0 *1 24.84,2.72
X$6 71 22 2 32 71 32 sky130_fd_sc_hd__clkbuf_1
* cell instance $9 r0 *1 13.8,2.72
X$9 71 81 3 32 71 32 sky130_fd_sc_hd__clkbuf_1
* cell instance $12 r0 *1 27.14,2.72
X$12 71 4 46 32 71 32 sky130_fd_sc_hd__clkbuf_1
* cell instance $14 r0 *1 29.44,2.72
X$14 71 5 23 32 71 32 sky130_fd_sc_hd__clkbuf_1
* cell instance $18 r0 *1 32.2,2.72
X$18 71 6 50 32 71 32 sky130_fd_sc_hd__clkbuf_1
* cell instance $21 r0 *1 33.58,2.72
X$21 71 7 51 32 71 32 sky130_fd_sc_hd__clkbuf_1
* cell instance $23 r0 *1 34.96,2.72
X$23 71 8 52 32 71 32 sky130_fd_sc_hd__clkbuf_1
* cell instance $27 r0 *1 40.94,2.72
X$27 71 9 56 32 71 32 sky130_fd_sc_hd__clkbuf_1
* cell instance $30 r0 *1 53.82,2.72
X$30 71 10 27 32 71 32 sky130_fd_sc_hd__clkbuf_1
* cell instance $33 r0 *1 66.7,2.72
X$33 71 11 64 32 71 32 sky130_fd_sc_hd__clkbuf_1
* cell instance $36 r0 *1 73.6,2.72
X$36 71 12 113 32 71 32 sky130_fd_sc_hd__clkbuf_1
* cell instance $39 r0 *1 74.98,2.72
X$39 71 13 110 32 71 32 sky130_fd_sc_hd__clkbuf_1
* cell instance $42 r0 *1 96.6,2.72
X$42 71 42 14 32 71 32 sky130_fd_sc_hd__clkbuf_1
* cell instance $45 r0 *1 101.2,2.72
X$45 71 92 15 32 71 32 sky130_fd_sc_hd__clkbuf_1
* cell instance $48 r0 *1 98.44,2.72
X$48 71 16 29 32 71 32 sky130_fd_sc_hd__clkbuf_1
* cell instance $51 r0 *1 99.82,2.72
X$51 71 17 49 32 71 32 sky130_fd_sc_hd__clkbuf_1
* cell instance $54 r0 *1 112.24,2.72
X$54 71 31 18 32 71 32 sky130_fd_sc_hd__clkbuf_1
* cell instance $57 r0 *1 117.76,2.72
X$57 71 43 19 32 71 32 sky130_fd_sc_hd__clkbuf_1
* cell instance $80 r0 *1 36.8,2.72
X$80 71 20 54 37 53 32 71 32 sky130_fd_sc_hd__nor3_1
* cell instance $83 m0 *1 31.28,8.16
X$83 71 53 20 51 32 71 66 32 sky130_fd_sc_hd__a21oi_1
* cell instance $86 r0 *1 51.98,2.72
X$86 71 60 20 27 32 71 39 32 sky130_fd_sc_hd__a21oi_1
* cell instance $89 m0 *1 25.3,13.6
X$89 71 108 71 32 20 32 sky130_fd_sc_hd__buf_4
* cell instance $92 m0 *1 64.86,111.52
X$92 71 20 1162 1012 71 32 32 sky130_fd_sc_hd__nand2_1
* cell instance $94 r0 *1 52.44,106.08
X$94 71 20 1027 357 992 71 32 32 sky130_fd_sc_hd__nand3_1
* cell instance $96 r0 *1 20.24,51.68
X$96 71 244 414 20 471 32 71 541 32 sky130_fd_sc_hd__a31oi_1
* cell instance $98 m0 *1 13.34,40.8
X$98 71 20 387 388 368 71 32 32 sky130_fd_sc_hd__nand3_1
* cell instance $100 m0 *1 33.58,106.08
X$100 71 954 20 1032 32 71 953 32 sky130_fd_sc_hd__a21oi_1
* cell instance $104 m0 *1 42.32,106.08
X$104 71 20 955 954 32 71 32 sky130_fd_sc_hd__nor2_1
* cell instance $108 r0 *1 27.6,57.12
X$108 71 513 20 244 71 514 32 32 sky130_fd_sc_hd__o21ai_0
* cell instance $112 r0 *1 70.84,2.72
X$112 71 21 90 32 71 32 sky130_fd_sc_hd__clkbuf_1
* cell instance $115 m0 *1 20.24,8.16
X$115 32 72 24 22 65 71 71 32 sky130_fd_sc_hd__mux2_1
* cell instance $117 r0 *1 15.64,2.72
X$117 32 28 22 44 72 71 71 32 sky130_fd_sc_hd__dfrtp_1
* cell instance $123 r0 *1 27.14,19.04
X$123 32 182 23 220 114 71 71 32 sky130_fd_sc_hd__mux2i_1
* cell instance $136 r0 *1 71.3,8.16
X$136 32 131 128 24 111 63 40 122 71 71 32 sky130_fd_sc_hd__mux4_1
* cell instance $139 m0 *1 66.7,13.6
X$139 32 131 139 111 94 40 24 122 71 71 32 sky130_fd_sc_hd__mux4_1
* cell instance $142 r0 *1 43.7,13.6
X$142 32 100 85 24 323 71 71 32 sky130_fd_sc_hd__ha_1
* cell instance $146 r0 *1 22.54,8.16
X$146 32 28 24 44 75 71 71 32 sky130_fd_sc_hd__dfrtp_2
* cell instance $150 r0 *1 30.82,2.72
X$150 71 24 36 48 32 71 32 sky130_fd_sc_hd__nor2_1
* cell instance $152 r0 *1 70.84,24.48
X$152 32 246 404 40 24 98 63 247 71 71 32 sky130_fd_sc_hd__mux4_1
* cell instance $159 r0 *1 38.18,13.6
X$159 32 87 85 132 25 137 71 71 32 sky130_fd_sc_hd__a211oi_2
* cell instance $162 r0 *1 35.42,13.6
X$162 71 25 137 132 32 71 147 32 sky130_fd_sc_hd__a21o_1
* cell instance $165 r0 *1 39.1,2.72
X$165 71 25 71 32 55 32 sky130_fd_sc_hd__inv_1
* cell instance $167 r0 *1 43.24,8.16
X$167 32 130 25 94 203 71 71 32 sky130_fd_sc_hd__ha_1
* cell instance $183 r0 *1 72.22,2.72
X$183 71 30 26 33 32 71 32 sky130_fd_sc_hd__nor2_1
* cell instance $186 r0 *1 113.62,51.68
X$186 71 479 26 501 32 71 32 sky130_fd_sc_hd__nor2_1
* cell instance $188 m0 *1 102.58,19.04
X$188 71 148 26 160 32 71 32 sky130_fd_sc_hd__nor2_1
* cell instance $190 m0 *1 62.56,13.6
X$190 71 98 26 150 32 71 32 sky130_fd_sc_hd__nor2_1
* cell instance $192 m0 *1 55.2,13.6
X$192 71 63 26 102 32 71 32 sky130_fd_sc_hd__nor2_1
* cell instance $196 r0 *1 106.72,13.6
X$196 71 127 26 158 32 71 32 sky130_fd_sc_hd__nor2_1
* cell instance $198 r0 *1 50.6,2.72
X$198 71 40 26 35 32 71 32 sky130_fd_sc_hd__nor2_1
* cell instance $201 m0 *1 66.7,19.04
X$201 71 163 26 170 32 71 32 sky130_fd_sc_hd__nor2_1
* cell instance $204 r0 *1 112.24,35.36
X$204 71 297 26 339 32 71 32 sky130_fd_sc_hd__nor2_1
* cell instance $207 r0 *1 112.24,40.8
X$207 71 337 26 409 32 71 32 sky130_fd_sc_hd__nor2_1
* cell instance $210 r0 *1 49.22,40.8
X$210 71 398 71 32 26 32 sky130_fd_sc_hd__buf_4
* cell instance $213 m0 *1 36.34,89.76
X$213 32 28 360 615 831 71 71 32 sky130_fd_sc_hd__dfrtp_4
* cell instance $214 m0 *1 112.24,111.52
X$214 32 28 734 1044 1041 71 71 32 sky130_fd_sc_hd__dfrtp_4
* cell instance $215 m0 *1 11.5,35.36
X$215 32 28 267 308 367 71 71 32 sky130_fd_sc_hd__dfrtp_4
* cell instance $216 m0 *1 17.02,40.8
X$216 32 28 351 308 389 71 71 32 sky130_fd_sc_hd__dfrtp_4
* cell instance $217 r0 *1 104.42,8.16
X$217 32 28 127 41 159 71 71 32 sky130_fd_sc_hd__dfrtp_4
* cell instance $218 r0 *1 15.64,19.04
X$218 32 28 171 44 218 71 71 32 sky130_fd_sc_hd__dfrtp_4
* cell instance $219 r0 *1 49.68,8.16
X$219 32 28 40 44 59 71 71 32 sky130_fd_sc_hd__dfrtp_4
* cell instance $220 m0 *1 66.24,8.16
X$220 32 28 98 41 133 71 71 32 sky130_fd_sc_hd__dfrtp_2
* cell instance $221 m0 *1 29.44,73.44
X$221 32 28 599 615 625 71 71 32 sky130_fd_sc_hd__dfrtp_2
* cell instance $222 m0 *1 68.54,116.96
X$222 32 28 886 1044 1011 71 71 32 sky130_fd_sc_hd__dfrtp_2
* cell instance $223 m0 *1 112.24,46.24
X$223 32 28 297 314 421 71 71 32 sky130_fd_sc_hd__dfrtp_2
* cell instance $224 r0 *1 72.68,13.6
X$224 32 28 30 41 61 71 71 32 sky130_fd_sc_hd__dfrtp_2
* cell instance $225 r0 *1 57.04,2.72
X$225 32 28 63 41 74 71 71 32 sky130_fd_sc_hd__dfrtp_2
* cell instance $226 r0 *1 115.92,106.08
X$226 32 28 765 651 1040 71 71 32 sky130_fd_sc_hd__dfrtp_2
* cell instance $227 r0 *1 33.12,8.16
X$227 32 28 111 44 115 71 71 32 sky130_fd_sc_hd__dfrtp_2
* cell instance $230 m0 *1 4.14,8.16
X$230 32 28 81 44 80 71 71 32 sky130_fd_sc_hd__dfrtp_1
* cell instance $231 m0 *1 1.38,62.56
X$231 32 28 551 308 558 71 71 32 sky130_fd_sc_hd__dfrtp_1
* cell instance $232 m0 *1 14.72,122.4
X$232 32 28 1119 1015 1124 71 71 32 sky130_fd_sc_hd__dfrtp_1
* cell instance $233 m0 *1 112.24,8.16
X$233 32 28 43 41 93 71 71 32 sky130_fd_sc_hd__dfrtp_1
* cell instance $234 m0 *1 37.26,122.4
X$234 32 28 1112 1015 1129 71 71 32 sky130_fd_sc_hd__dfrtp_1
* cell instance $235 m0 *1 65.32,122.4
X$235 32 28 1120 1044 1127 71 71 32 sky130_fd_sc_hd__dfrtp_1
* cell instance $236 m0 *1 11.5,13.6
X$236 32 28 112 44 143 71 71 32 sky130_fd_sc_hd__dfrtp_1
* cell instance $237 m0 *1 112.24,40.8
X$237 32 28 334 314 390 71 71 32 sky130_fd_sc_hd__dfrtp_1
* cell instance $238 m0 *1 93.84,122.4
X$238 32 28 1113 651 1114 71 71 32 sky130_fd_sc_hd__dfrtp_1
* cell instance $239 m0 *1 1.38,84.32
X$239 32 28 770 615 769 71 71 32 sky130_fd_sc_hd__dfrtp_1
* cell instance $240 r0 *1 1.38,111.52
X$240 32 28 1058 1015 1072 71 71 32 sky130_fd_sc_hd__dfrtp_1
* cell instance $241 r0 *1 21.16,62.56
X$241 32 28 552 308 562 71 71 32 sky130_fd_sc_hd__dfrtp_1
* cell instance $242 r0 *1 15.64,111.52
X$242 32 28 1004 1015 1094 71 71 32 sky130_fd_sc_hd__dfrtp_1
* cell instance $243 r0 *1 83.26,116.96
X$243 32 28 1084 1044 1105 71 71 32 sky130_fd_sc_hd__dfrtp_1
* cell instance $244 r0 *1 98.44,116.96
X$244 32 28 1137 1044 1125 71 71 32 sky130_fd_sc_hd__dfrtp_1
* cell instance $245 r0 *1 107.64,116.96
X$245 32 28 1108 1044 1092 71 71 32 sky130_fd_sc_hd__dfrtp_1
* cell instance $246 r0 *1 23.92,116.96
X$246 32 28 1140 1015 1126 71 71 32 sky130_fd_sc_hd__dfrtp_1
* cell instance $247 r0 *1 29.9,122.4
X$247 32 28 1110 1015 1109 71 71 32 sky130_fd_sc_hd__dfrtp_1
* cell instance $250 m0 *1 19.78,116.96
X$250 32 28 1078 1015 1096 71 71 32 sky130_fd_sc_hd__dfrtp_1
* cell instance $255 m0 *1 98.44,8.16
X$255 32 28 92 41 95 71 71 32 sky130_fd_sc_hd__dfrtp_1
* cell instance $257 r0 *1 102.58,2.72
X$257 32 28 31 41 47 71 71 32 sky130_fd_sc_hd__dfrtp_1
* cell instance $261 r0 *1 5.98,106.08
X$261 32 28 998 1015 967 71 71 32 sky130_fd_sc_hd__dfrtp_1
* cell instance $263 m0 *1 5.52,122.4
X$263 32 28 1123 1015 1122 71 71 32 sky130_fd_sc_hd__dfrtp_1
* cell instance $266 m0 *1 2.76,116.96
X$266 32 28 1014 1015 1093 71 71 32 sky130_fd_sc_hd__dfrtp_1
* cell instance $270 r0 *1 48.76,100.64
X$270 32 28 947 1015 983 71 71 32 sky130_fd_sc_hd__dfrtp_1
* cell instance $272 r0 *1 2.3,78.88
X$272 32 28 736 615 792 71 71 32 sky130_fd_sc_hd__dfrtp_1
* cell instance $274 r0 *1 2.76,73.44
X$274 32 28 660 615 666 71 71 32 sky130_fd_sc_hd__dfrtp_1
* cell instance $277 r0 *1 2.3,89.76
X$277 32 28 819 615 818 71 71 32 sky130_fd_sc_hd__dfrtp_1
* cell instance $279 m0 *1 4.6,95.2
X$279 32 28 835 615 793 71 71 32 sky130_fd_sc_hd__dfrtp_1
* cell instance $282 r0 *1 3.22,68
X$282 32 28 636 615 694 71 71 32 sky130_fd_sc_hd__dfrtp_1
* cell instance $286 r0 *1 2.3,100.64
X$286 32 28 932 615 931 71 71 32 sky130_fd_sc_hd__dfrtp_1
* cell instance $288 r0 *1 5.06,95.2
X$288 32 28 867 615 891 71 71 32 sky130_fd_sc_hd__dfrtp_1
* cell instance $290 m0 *1 116.38,13.6
X$290 32 28 142 41 144 71 71 32 sky130_fd_sc_hd__dfrtp_1
* cell instance $292 m0 *1 99.36,116.96
X$292 32 28 741 651 1102 71 71 32 sky130_fd_sc_hd__dfrtp_4
* cell instance $294 r0 *1 102.12,111.52
X$294 32 28 742 1044 1038 71 71 32 sky130_fd_sc_hd__dfrtp_4
* cell instance $296 m0 *1 60.26,35.36
X$296 32 28 162 314 430 71 71 32 sky130_fd_sc_hd__dfrtp_4
* cell instance $299 r0 *1 102.58,122.4
X$299 32 28 1079 1044 1100 71 71 32 sky130_fd_sc_hd__dfrtp_1
* cell instance $303 m0 *1 116.84,100.64
X$303 32 28 764 651 916 71 71 32 sky130_fd_sc_hd__dfrtp_2
* cell instance $308 r0 *1 116.38,95.2
X$308 32 28 865 651 868 71 71 32 sky130_fd_sc_hd__dfrtp_1
* cell instance $310 r0 *1 59.8,13.6
X$310 32 28 163 41 178 71 71 32 sky130_fd_sc_hd__dfrtp_4
* cell instance $312 r0 *1 74.06,116.96
X$312 32 28 1117 1044 1116 71 71 32 sky130_fd_sc_hd__dfrtp_1
* cell instance $315 r0 *1 71.3,111.52
X$315 32 28 787 1044 1086 71 71 32 sky130_fd_sc_hd__dfrtp_2
* cell instance $318 r0 *1 112.7,111.52
X$318 32 28 780 1044 1071 71 71 32 sky130_fd_sc_hd__dfrtp_4
* cell instance $320 r0 *1 70.84,106.08
X$320 32 28 425 1044 1006 71 71 32 sky130_fd_sc_hd__dfrtp_2
* cell instance $322 m0 *1 84.64,116.96
X$322 32 28 1115 1044 1118 71 71 32 sky130_fd_sc_hd__dfrtp_1
* cell instance $325 m0 *1 84.64,111.52
X$325 32 28 906 651 1063 71 71 32 sky130_fd_sc_hd__dfrtp_2
* cell instance $331 m0 *1 115,29.92
X$331 32 28 276 314 277 71 71 32 sky130_fd_sc_hd__dfrtp_1
* cell instance $335 m0 *1 101.2,13.6
X$335 32 28 148 41 161 71 71 32 sky130_fd_sc_hd__dfrtp_4
* cell instance $338 m0 *1 74.52,122.4
X$338 32 28 1147 1044 1144 71 71 32 sky130_fd_sc_hd__dfrtp_1
* cell instance $341 m0 *1 84.64,122.4
X$341 32 28 1121 1044 1142 71 71 32 sky130_fd_sc_hd__dfrtp_1
* cell instance $343 r0 *1 87.4,2.72
X$343 32 28 42 41 73 71 71 32 sky130_fd_sc_hd__dfrtp_1
* cell instance $345 r0 *1 116.38,73.44
X$345 32 28 614 651 667 71 71 32 sky130_fd_sc_hd__dfrtp_1
* cell instance $347 m0 *1 116.84,73.44
X$347 32 28 616 651 649 71 71 32 sky130_fd_sc_hd__dfrtp_1
* cell instance $350 r0 *1 56.12,116.96
X$350 32 28 1128 1015 1130 71 71 32 sky130_fd_sc_hd__dfrtp_1
* cell instance $353 m0 *1 59.34,116.96
X$353 32 28 1033 1044 1145 71 71 32 sky130_fd_sc_hd__dfrtp_1
* cell instance $355 r0 *1 33.12,116.96
X$355 32 28 1052 1015 1098 71 71 32 sky130_fd_sc_hd__dfrtp_1
* cell instance $357 m0 *1 29.44,111.52
X$357 32 28 956 615 1043 71 71 32 sky130_fd_sc_hd__dfrtp_1
* cell instance $360 m0 *1 47.38,116.96
X$360 32 28 1069 1015 1103 71 71 32 sky130_fd_sc_hd__dfrtp_1
* cell instance $362 r0 *1 55.2,111.52
X$362 32 28 1089 1015 1066 71 71 32 sky130_fd_sc_hd__dfrtp_1
* cell instance $365 m0 *1 116.84,84.32
X$365 32 28 768 651 771 71 71 32 sky130_fd_sc_hd__dfrtp_1
* cell instance $367 m0 *1 115,89.76
X$367 32 28 720 651 797 71 71 32 sky130_fd_sc_hd__dfrtp_1
* cell instance $370 m0 *1 116.84,19.04
X$370 32 28 156 41 174 71 71 32 sky130_fd_sc_hd__dfrtp_1
* cell instance $372 m0 *1 117.76,106.08
X$372 32 28 1057 651 1039 71 71 32 sky130_fd_sc_hd__dfrtp_1
* cell instance $374 r0 *1 116.38,19.04
X$374 32 28 233 41 217 71 71 32 sky130_fd_sc_hd__dfrtp_1
* cell instance $377 m0 *1 116.84,35.36
X$377 32 28 293 314 338 71 71 32 sky130_fd_sc_hd__dfrtp_1
* cell instance $381 r0 *1 115,51.68
X$381 32 28 479 314 500 71 71 32 sky130_fd_sc_hd__dfrtp_4
* cell instance $384 m0 *1 1.84,57.12
X$384 32 28 522 308 521 71 71 32 sky130_fd_sc_hd__dfrtp_1
* cell instance $387 r0 *1 5.98,62.56
X$387 32 28 560 308 586 71 71 32 sky130_fd_sc_hd__dfrtp_1
* cell instance $389 m0 *1 115.92,62.56
X$389 32 28 528 314 538 71 71 32 sky130_fd_sc_hd__dfrtp_4
* cell instance $393 r0 *1 115,57.12
X$393 32 28 463 314 519 71 71 32 sky130_fd_sc_hd__dfrtp_4
* cell instance $396 m0 *1 2.3,24.48
X$396 32 28 234 44 207 71 71 32 sky130_fd_sc_hd__dfrtp_1
* cell instance $399 r0 *1 15.64,13.6
X$399 32 28 136 44 157 71 71 32 sky130_fd_sc_hd__dfrtp_4
* cell instance $401 r0 *1 2.3,19.04
X$401 32 28 196 44 195 71 71 32 sky130_fd_sc_hd__dfrtp_1
* cell instance $403 r0 *1 115.46,40.8
X$403 32 28 337 314 406 71 71 32 sky130_fd_sc_hd__dfrtp_2
* cell instance $407 m0 *1 2.3,19.04
X$407 32 28 151 44 173 71 71 32 sky130_fd_sc_hd__dfrtp_1
* cell instance $409 r0 *1 3.68,24.48
X$409 32 28 278 44 262 71 71 32 sky130_fd_sc_hd__dfrtp_1
* cell instance $414 m0 *1 12.88,62.56
X$414 32 28 524 308 540 71 71 32 sky130_fd_sc_hd__dfrtp_1
* cell instance $416 r0 *1 2.3,29.92
X$416 32 28 266 44 265 71 71 32 sky130_fd_sc_hd__dfrtp_1
* cell instance $420 m0 *1 10.12,29.92
X$420 32 28 236 44 250 71 71 32 sky130_fd_sc_hd__dfrtp_4
* cell instance $423 m0 *1 19.78,57.12
X$423 32 28 490 308 505 71 71 32 sky130_fd_sc_hd__dfrtp_1
* cell instance $427 m0 *1 2.3,35.36
X$427 32 28 318 308 365 71 71 32 sky130_fd_sc_hd__dfrtp_1
* cell instance $429 r0 *1 4.14,35.36
X$429 32 28 336 308 364 71 71 32 sky130_fd_sc_hd__dfrtp_1
* cell instance $431 r0 *1 26.22,13.6
X$431 32 28 94 44 97 71 71 32 sky130_fd_sc_hd__dfrtp_1
* cell instance $439 m0 *1 17.02,19.04
X$439 32 28 121 44 165 71 71 32 sky130_fd_sc_hd__dfrtp_4
* cell instance $441 r0 *1 3.22,46.24
X$441 32 28 415 308 433 71 71 32 sky130_fd_sc_hd__dfrtp_1
* cell instance $445 m0 *1 1.38,51.68
X$445 32 28 438 308 468 71 71 32 sky130_fd_sc_hd__dfrtp_1
* cell instance $448 r0 *1 1.84,8.16
X$448 32 126 28 71 71 32 sky130_fd_sc_hd__buf_16
* cell instance $453 m0 *1 93.84,13.6
X$453 32 141 29 123 114 71 71 32 sky130_fd_sc_hd__mux2i_1
* cell instance $465 r0 *1 113.62,2.72
X$465 32 93 30 43 45 71 71 32 sky130_fd_sc_hd__mux2_1
* cell instance $468 m0 *1 92.92,24.48
X$468 32 239 148 30 232 71 71 32 sky130_fd_sc_hd__mux2_1
* cell instance $470 r0 *1 61.64,19.04
X$470 32 138 103 30 214 71 71 32 sky130_fd_sc_hd__ha_1
* cell instance $472 m0 *1 74.52,29.92
X$472 32 246 281 98 63 163 30 247 71 71 32 sky130_fd_sc_hd__mux4_1
* cell instance $475 m0 *1 84.64,29.92
X$475 32 131 341 63 40 30 98 274 71 71 32 sky130_fd_sc_hd__mux4_1
* cell instance $480 m0 *1 107.64,8.16
X$480 32 47 40 31 45 71 71 32 sky130_fd_sc_hd__mux2_1
* cell instance $523 r0 *1 43.24,2.72
X$523 71 38 57 58 71 32 32 sky130_fd_sc_hd__nand2_1
* cell instance $526 r0 *1 48.76,2.72
X$526 71 35 34 39 32 71 59 32 sky130_fd_sc_hd__a21oi_1
* cell instance $531 r0 *1 68.54,2.72
X$531 71 33 34 62 32 71 61 32 sky130_fd_sc_hd__a21oi_1
* cell instance $563 m0 *1 14.72,8.16
X$563 32 80 94 81 65 71 71 32 sky130_fd_sc_hd__mux2_1
* cell instance $568 m0 *1 25.76,8.16
X$568 71 94 36 96 32 71 32 sky130_fd_sc_hd__nor2_1
* cell instance $569 m0 *1 27.14,8.16
X$569 71 96 34 82 32 71 97 32 sky130_fd_sc_hd__a21oi_1
* cell instance $571 m0 *1 29.44,8.16
X$571 71 48 34 66 32 71 75 32 sky130_fd_sc_hd__a21oi_1
* cell instance $572 m0 *1 33.12,8.16
X$572 71 83 36 67 71 115 32 32 sky130_fd_sc_hd__o21ai_0
* cell instance $573 m0 *1 34.96,8.16
X$573 32 99 57 83 177 55 71 71 32 sky130_fd_sc_hd__fa_1
* cell instance $574 m0 *1 42.32,8.16
X$574 71 38 56 357 58 67 71 32 32 sky130_fd_sc_hd__o211ai_1
* cell instance $575 m0 *1 45.08,8.16
X$575 71 100 85 118 71 86 32 32 sky130_fd_sc_hd__o21ai_0
* cell instance $576 m0 *1 46.92,8.16
X$576 71 87 86 101 32 71 32 sky130_fd_sc_hd__nor2_1
* cell instance $577 m0 *1 48.3,8.16
X$577 71 87 86 68 71 79 32 32 sky130_fd_sc_hd__o21ai_0
* cell instance $578 m0 *1 50.14,8.16
X$578 71 77 69 78 71 32 105 32 sky130_fd_sc_hd__o21ai_1
* cell instance $579 m0 *1 51.98,8.16
X$579 71 103 88 77 76 32 68 71 32 sky130_fd_sc_hd__nor4_1
* cell instance $580 m0 *1 54.28,8.16
X$580 71 69 77 78 104 71 32 32 sky130_fd_sc_hd__or3_1
* cell instance $582 m0 *1 57.04,8.16
X$582 71 88 89 70 71 119 32 32 sky130_fd_sc_hd__o21ai_0
* cell instance $583 m0 *1 58.88,8.16
X$583 71 102 34 117 32 71 74 32 sky130_fd_sc_hd__a21oi_1
* cell instance $584 m0 *1 60.72,8.16
X$584 71 84 64 116 32 71 32 sky130_fd_sc_hd__nor2b_1
* cell instance $585 m0 *1 63.02,8.16
X$585 71 84 90 91 32 71 32 sky130_fd_sc_hd__nor2b_1
* cell instance $593 m0 *1 89.24,8.16
X$593 32 73 63 42 45 71 71 32 sky130_fd_sc_hd__mux2_1
* cell instance $608 r0 *1 16.1,8.16
X$608 32 143 111 112 65 71 71 32 sky130_fd_sc_hd__mux2_1
* cell instance $614 r0 *1 47.84,8.16
X$614 71 108 101 107 60 32 71 32 sky130_fd_sc_hd__nor3_1
* cell instance $615 r0 *1 60.26,8.16
X$615 71 104 105 38 116 32 71 117 32 sky130_fd_sc_hd__a31oi_1
* cell instance $617 r0 *1 63.02,8.16
X$617 32 134 110 109 114 71 71 32 sky130_fd_sc_hd__mux2i_1
* cell instance $618 r0 *1 66.7,8.16
X$618 32 62 113 120 114 71 71 32 sky130_fd_sc_hd__mux2i_1
* cell instance $633 r0 *1 100.28,8.16
X$633 32 95 98 92 45 71 71 32 sky130_fd_sc_hd__mux2_1
* cell instance $649 m0 *1 1.84,13.6
X$649 71 106 71 126 32 32 sky130_fd_sc_hd__dlygate4sd3_1
* cell instance $653 m0 *1 20.7,13.6
X$653 32 84 114 71 71 32 sky130_fd_sc_hd__buf_6
* cell instance $658 m0 *1 30.36,13.6
X$658 71 84 71 32 38 32 sky130_fd_sc_hd__buf_4
* cell instance $659 m0 *1 33.12,13.6
X$659 32 82 52 130 38 71 71 32 sky130_fd_sc_hd__mux2i_1
* cell instance $660 m0 *1 36.8,13.6
X$660 71 99 100 54 32 71 32 sky130_fd_sc_hd__nor2b_1
* cell instance $661 m0 *1 39.1,13.6
X$661 32 137 132 111 145 71 71 32 sky130_fd_sc_hd__ha_1
* cell instance $662 m0 *1 43.7,13.6
X$662 71 147 100 118 85 32 107 71 32 sky130_fd_sc_hd__a211oi_1
* cell instance $663 m0 *1 46.46,13.6
X$663 71 118 54 85 71 78 32 32 sky130_fd_sc_hd__o21a_1
* cell instance $664 m0 *1 49.22,13.6
X$664 71 69 101 77 71 89 32 32 sky130_fd_sc_hd__o21a_1
* cell instance $665 m0 *1 51.98,13.6
X$665 71 224 70 109 71 32 32 sky130_fd_sc_hd__xnor2_1
* cell instance $667 m0 *1 57.04,13.6
X$667 71 119 76 135 32 71 32 sky130_fd_sc_hd__nand2b_1
* cell instance $668 m0 *1 59.34,13.6
X$668 71 105 88 149 32 71 32 sky130_fd_sc_hd__nand2b_1
* cell instance $670 m0 *1 63.94,13.6
X$670 71 150 34 134 32 71 133 32 sky130_fd_sc_hd__a21oi_1
* cell instance $673 m0 *1 76.82,13.6
X$673 32 129 148 121 122 71 71 32 sky130_fd_sc_hd__mux2i_1
* cell instance $677 m0 *1 85.56,13.6
X$677 71 215 146 139 140 32 482 71 32 sky130_fd_sc_hd__a22o_1
* cell instance $681 m0 *1 97.52,13.6
X$681 32 125 49 124 114 71 71 32 sky130_fd_sc_hd__mux2i_1
* cell instance $683 m0 *1 112.24,13.6
X$683 32 144 163 142 45 71 71 32 sky130_fd_sc_hd__mux2_1
* cell instance $684 m0 *1 125.58,13.6
X$684 71 142 155 32 71 32 sky130_fd_sc_hd__clkbuf_1
* cell instance $687 r0 *1 2.76,13.6
X$687 71 151 206 32 71 32 sky130_fd_sc_hd__clkbuf_1
* cell instance $690 r0 *1 6.44,13.6
X$690 32 173 121 151 65 71 71 32 sky130_fd_sc_hd__mux2_1
* cell instance $699 r0 *1 48.76,13.6
X$699 32 118 77 40 181 71 71 32 sky130_fd_sc_hd__ha_1
* cell instance $700 r0 *1 53.36,13.6
X$700 71 152 69 164 32 71 32 sky130_fd_sc_hd__nand2b_1
* cell instance $702 r0 *1 56.12,13.6
X$702 71 103 153 138 135 71 180 32 32 sky130_fd_sc_hd__a211o_1
* cell instance $707 r0 *1 82.34,13.6
X$707 71 140 128 146 176 32 175 71 32 sky130_fd_sc_hd__a22o_1
* cell instance $711 r0 *1 93.84,13.6
X$711 32 162 193 71 71 32 sky130_fd_sc_hd__buf_6
* cell instance $716 r0 *1 102.58,13.6
X$716 71 160 154 141 32 71 161 32 sky130_fd_sc_hd__a21oi_1
* cell instance $717 r0 *1 104.42,13.6
X$717 71 158 154 125 32 71 159 32 sky130_fd_sc_hd__a21oi_1
* cell instance $722 r0 *1 116.38,13.6
X$722 32 174 148 156 45 71 71 32 sky130_fd_sc_hd__mux2_1
* cell instance $740 m0 *1 11.5,19.04
X$740 32 195 136 196 65 71 71 32 sky130_fd_sc_hd__mux2_1
* cell instance $741 m0 *1 15.64,19.04
X$741 71 136 36 197 32 71 32 sky130_fd_sc_hd__nor2_1
* cell instance $742 m0 *1 27.6,19.04
X$742 71 121 36 199 32 71 32 sky130_fd_sc_hd__nor2_1
* cell instance $744 m0 *1 29.44,19.04
X$744 71 199 34 166 32 71 165 32 sky130_fd_sc_hd__a21oi_1
* cell instance $746 m0 *1 31.74,19.04
X$746 32 166 50 221 114 71 71 32 sky130_fd_sc_hd__mux2i_1
* cell instance $748 m0 *1 35.88,19.04
X$748 71 100 99 37 32 71 32 sky130_fd_sc_hd__nor2b_1
* cell instance $750 m0 *1 38.64,19.04
X$750 71 145 71 32 177 32 sky130_fd_sc_hd__inv_1
* cell instance $751 m0 *1 40.02,19.04
X$751 71 184 186 124 71 32 32 sky130_fd_sc_hd__xnor2_1
* cell instance $753 m0 *1 44.16,19.04
X$753 71 189 79 164 167 32 71 32 sky130_fd_sc_hd__nand3b_1
* cell instance $754 m0 *1 46.92,19.04
X$754 71 225 188 123 71 32 32 sky130_fd_sc_hd__xnor2_1
* cell instance $756 m0 *1 50.6,19.04
X$756 71 138 76 70 71 168 32 32 sky130_fd_sc_hd__o21a_1
* cell instance $757 m0 *1 53.36,19.04
X$757 71 103 168 153 71 189 32 32 sky130_fd_sc_hd__o21ai_0
* cell instance $762 m0 *1 57.96,19.04
X$762 71 180 167 38 91 32 71 169 32 sky130_fd_sc_hd__a31oi_1
* cell instance $763 m0 *1 60.26,19.04
X$763 71 179 138 120 71 32 32 sky130_fd_sc_hd__xnor2_1
* cell instance $765 m0 *1 64.4,19.04
X$765 71 170 154 169 32 71 178 32 sky130_fd_sc_hd__a21oi_1
* cell instance $768 m0 *1 69.92,19.04
X$768 32 202 127 136 122 71 71 32 sky130_fd_sc_hd__mux2i_1
* cell instance $769 m0 *1 73.6,19.04
X$769 32 131 176 121 127 171 136 122 71 71 32 sky130_fd_sc_hd__mux4_1
* cell instance $772 m0 *1 84.64,19.04
X$772 71 162 172 32 71 146 32 sky130_fd_sc_hd__nor2b_2
* cell instance $774 m0 *1 88.78,19.04
X$774 32 32 140 71 172 193 71 sky130_fd_sc_hd__nor2_2
* cell instance $778 m0 *1 98.9,19.04
X$778 71 193 129 198 32 71 32 sky130_fd_sc_hd__nor2_1
* cell instance $790 r0 *1 13.34,19.04
X$790 71 197 34 182 32 71 157 32 sky130_fd_sc_hd__a21oi_1
* cell instance $796 r0 *1 30.82,19.04
X$796 71 183 200 71 221 32 32 sky130_fd_sc_hd__xor2_1
* cell instance $798 r0 *1 34.5,19.04
X$798 71 111 71 32 83 32 sky130_fd_sc_hd__inv_1
* cell instance $799 r0 *1 35.88,19.04
X$799 71 185 211 183 32 71 32 sky130_fd_sc_hd__nand2b_1
* cell instance $801 r0 *1 38.64,19.04
X$801 71 201 188 212 32 71 184 32 sky130_fd_sc_hd__a21oi_1
* cell instance $802 r0 *1 40.48,19.04
X$802 71 167 187 212 32 71 32 sky130_fd_sc_hd__nand2b_1
* cell instance $807 r0 *1 43.24,19.04
X$807 32 187 201 190 185 204 71 71 32 sky130_fd_sc_hd__o31ai_2
* cell instance $808 r0 *1 47.84,19.04
X$808 71 205 71 32 203 32 sky130_fd_sc_hd__inv_1
* cell instance $810 r0 *1 50.14,19.04
X$810 32 69 88 63 226 71 71 32 sky130_fd_sc_hd__ha_1
* cell instance $811 r0 *1 54.74,19.04
X$811 32 70 76 98 223 71 71 32 sky130_fd_sc_hd__ha_1
* cell instance $812 r0 *1 59.34,19.04
X$812 71 76 70 149 32 71 179 32 sky130_fd_sc_hd__a21oi_1
* cell instance $823 r0 *1 74.06,19.04
X$823 32 191 202 192 131 71 71 32 sky130_fd_sc_hd__mux2_2
* cell instance $824 r0 *1 78.2,19.04
X$824 32 192 121 171 122 71 71 32 sky130_fd_sc_hd__mux2i_1
* cell instance $849 m0 *1 11.96,24.48
X$849 32 207 236 234 65 71 71 32 sky130_fd_sc_hd__mux2_1
* cell instance $850 m0 *1 16.1,24.48
X$850 71 171 36 235 32 71 32 sky130_fd_sc_hd__nor2_1
* cell instance $852 m0 *1 18.4,24.48
X$852 71 235 34 208 32 71 218 32 sky130_fd_sc_hd__a21oi_1
* cell instance $855 m0 *1 21.62,24.48
X$855 32 208 46 237 114 71 71 32 sky130_fd_sc_hd__mux2i_1
* cell instance $856 m0 *1 25.3,24.48
X$856 71 209 228 220 71 32 32 sky130_fd_sc_hd__xnor2_1
* cell instance $859 m0 *1 29.44,24.48
X$859 32 238 228 229 255 200 210 71 71 32 sky130_fd_sc_hd__a41o_1
* cell instance $860 m0 *1 33.12,24.48
X$860 71 222 200 210 32 71 209 32 sky130_fd_sc_hd__a21oi_1
* cell instance $862 m0 *1 36.8,24.48
X$862 71 211 222 230 241 32 71 32 sky130_fd_sc_hd__nor3_1
* cell instance $863 m0 *1 38.64,24.48
X$863 32 186 211 231 127 71 71 32 sky130_fd_sc_hd__ha_1
* cell instance $864 m0 *1 43.24,24.48
X$864 71 167 257 213 71 210 32 32 sky130_fd_sc_hd__a21oi_2
* cell instance $865 m0 *1 46.46,24.48
X$865 71 187 201 211 213 32 71 32 sky130_fd_sc_hd__nor3_1
* cell instance $866 m0 *1 48.3,24.48
X$866 71 187 190 225 32 71 32 sky130_fd_sc_hd__nor2_1
* cell instance $869 m0 *1 51.06,24.48
X$869 71 189 105 152 32 71 190 32 sky130_fd_sc_hd__a21oi_1
* cell instance $870 m0 *1 52.9,24.48
X$870 71 88 89 224 32 71 32 sky130_fd_sc_hd__nor2_1
* cell instance $872 m0 *1 54.74,24.48
X$872 71 88 76 103 152 32 71 32 sky130_fd_sc_hd__nor3_1
* cell instance $874 m0 *1 57.04,24.48
X$874 32 153 187 163 242 71 71 32 sky130_fd_sc_hd__ha_1
* cell instance $877 m0 *1 69,24.48
X$877 32 219 162 131 71 71 32 sky130_fd_sc_hd__nor2b_4
* cell instance $878 m0 *1 74.06,24.48
X$878 32 121 148 215 246 136 232 127 71 71 32 sky130_fd_sc_hd__mux4_2
* cell instance $879 m0 *1 82.34,24.48
X$879 71 41 1181 71 32 32 sky130_fd_sc_hd__clkinv_2
* cell instance $881 m0 *1 84.64,24.48
X$881 32 163 240 127 232 71 71 32 sky130_fd_sc_hd__mux2i_4
* cell instance $890 m0 *1 118.68,24.48
X$890 32 217 127 233 45 71 71 32 sky130_fd_sc_hd__mux2_1
* cell instance $893 m0 *1 124.2,24.48
X$893 71 233 216 32 71 32 sky130_fd_sc_hd__clkbuf_1
* cell instance $894 m0 *1 125.58,24.48
X$894 71 156 194 32 71 32 sky130_fd_sc_hd__clkbuf_1
* cell instance $895 r0 *1 1.38,24.48
X$895 71 196 227 32 71 32 sky130_fd_sc_hd__clkbuf_1
* cell instance $897 r0 *1 12.88,24.48