* CDL Netlist generated by OpenROAD

*.BUSDELIMITER [

.SUBCKT cordic clk done rst_n start x_in[0] x_in[10] x_in[11]
+ x_in[12] x_in[13] x_in[14] x_in[15] x_in[1] x_in[2] x_in[3]
+ x_in[4] x_in[5] x_in[6] x_in[7] x_in[8] x_in[9] x_out[0] x_out[10]
+ x_out[11] x_out[12] x_out[13] x_out[14] x_out[15] x_out[1]
+ x_out[2] x_out[3] x_out[4] x_out[5] x_out[6] x_out[7] x_out[8]
+ x_out[9] y_in[0] y_in[10] y_in[11] y_in[12] y_in[13] y_in[14]
+ y_in[15] y_in[1] y_in[2] y_in[3] y_in[4] y_in[5] y_in[6] y_in[7]
+ y_in[8] y_in[9] y_out[0] y_out[10] y_out[11] y_out[12] y_out[13]
+ y_out[14] y_out[15] y_out[1] y_out[2] y_out[3] y_out[4] y_out[5]
+ y_out[6] y_out[7] y_out[8] y_out[9] z_in[0] z_in[10] z_in[11]
+ z_in[12] z_in[13] z_in[14] z_in[15] z_in[1] z_in[2] z_in[3]
+ z_in[4] z_in[5] z_in[6] z_in[7] z_in[8] z_in[9] z_out[0] z_out[10]
+ z_out[11] z_out[12] z_out[13] z_out[14] z_out[15] z_out[1]
+ z_out[2] z_out[3] z_out[4] z_out[5] z_out[6] z_out[7] z_out[8]
+ z_out[9]
X_0918_ iteration\[1\] VSS VSS VDD VDD _0266_ sky130_fd_sc_hd__buf_6
X_0919_ _0266_ VSS VSS VDD VDD _0267_ sky130_fd_sc_hd__buf_4
X_0920_ _0267_ VSS VSS VDD VDD _0268_ sky130_fd_sc_hd__buf_4
X_0921_ _0268_ VSS VSS VDD VDD _0764_ sky130_fd_sc_hd__clkinvlp_4
X_0922_ iteration\[3\] VSS VSS VDD VDD _0269_ sky130_fd_sc_hd__buf_6
X_0923_ _0269_ VSS VSS VDD VDD _0270_ sky130_fd_sc_hd__clkbuf_4
X_0924_ iteration\[2\] VSS VSS VDD VDD _0271_ sky130_fd_sc_hd__buf_4
X_0925_ _0271_ VSS VSS VDD VDD _0272_ sky130_fd_sc_hd__buf_4
X_0926_ _0272_ _0268_ VSS VSS VDD VDD _0273_ sky130_fd_sc_hd__nor2_1
X_0927_ _0272_ _0775_ VSS VSS VDD VDD _0274_ sky130_fd_sc_hd__and2_0
X_0928_ _0766_ _0269_ VSS VSS VDD VDD _0275_ sky130_fd_sc_hd__nand2b_1
X_0929_ _0270_ _0273_ _0274_ _0275_ VSS VSS VDD VDD _0746_
+ sky130_fd_sc_hd__o31ai_2
X_0930_ _0746_ VSS VSS VDD VDD _0749_ sky130_fd_sc_hd__inv_1
X_0931_ iteration\[0\] VSS VSS VDD VDD _0276_ sky130_fd_sc_hd__buf_8
X_0932_ _0276_ VSS VSS VDD VDD _0277_ sky130_fd_sc_hd__buf_6
X_0933_ _0277_ VSS VSS VDD VDD _0278_ sky130_fd_sc_hd__buf_4
X_0934_ _0278_ VSS VSS VDD VDD _0763_ sky130_fd_sc_hd__clkinv_4
X_0935_ _0278_ VSS VSS VDD VDD _0279_ sky130_fd_sc_hd__buf_4
X_0936_ _0279_ _0268_ _0273_ _0270_ VSS VSS VDD VDD _0280_
+ sky130_fd_sc_hd__a211oi_1
X_0937_ _0270_ _0771_ _0280_ VSS VSS VDD VDD _0748_ sky130_fd_sc_hd__a21oi_1
X_0938_ _0270_ VSS VSS VDD VDD _0281_ sky130_fd_sc_hd__clkbuf_4
X_0939_ _0269_ _0763_ VSS VSS VDD VDD _0282_ sky130_fd_sc_hd__nand2_1
X_0940_ iteration\[3\] VSS VSS VDD VDD _0283_ sky130_fd_sc_hd__inv_1
X_0941_ _0283_ VSS VSS VDD VDD _0284_ sky130_fd_sc_hd__buf_4
X_0942_ _0284_ VSS VSS VDD VDD _0285_ sky130_fd_sc_hd__buf_4
X_0943_ _0271_ VSS VSS VDD VDD _0286_ sky130_fd_sc_hd__buf_4
X_0944_ _0771_ _0767_ _0286_ VSS VSS VDD VDD _0287_ sky130_fd_sc_hd__mux2i_1
X_0945_ _0285_ _0287_ VSS VSS VDD VDD _0288_ sky130_fd_sc_hd__nand2_1
X_0946_ _0771_ _0767_ _0282_ _0288_ _0773_ VSS VSS VDD VDD
+ _0289_ sky130_fd_sc_hd__o32ai_4
X_0947_ _0750_ _0289_ VSS VSS VDD VDD _0290_ sky130_fd_sc_hd__nand2_1
X_0948_ _0271_ VSS VSS VDD VDD _0291_ sky130_fd_sc_hd__clkinv_2
X_0949_ _0291_ VSS VSS VDD VDD _0292_ sky130_fd_sc_hd__buf_4
X_0950_ _0292_ _0766_ VSS VSS VDD VDD _0293_ sky130_fd_sc_hd__nand2_1
X_0951_ _0286_ _0771_ VSS VSS VDD VDD _0294_ sky130_fd_sc_hd__nand2_1
X_0952_ _0285_ _0767_ VSS VSS VDD VDD _0295_ sky130_fd_sc_hd__nor2_1
X_0953_ _0285_ _0293_ _0294_ _0295_ VSS VSS VDD VDD _0296_
+ sky130_fd_sc_hd__a31oi_2
X_0954_ _0268_ _0779_ _0286_ VSS VSS VDD VDD _0297_ sky130_fd_sc_hd__mux2i_1
X_0955_ _0270_ _0297_ VSS VSS VDD VDD _0298_ sky130_fd_sc_hd__nor2_1
X_0956_ _0270_ _0775_ _0298_ VSS VSS VDD VDD _0299_ sky130_fd_sc_hd__a21oi_2
X_0957_ _0290_ _0296_ _0299_ VSS VSS VDD VDD _0300_ sky130_fd_sc_hd__nor3b_2
X_0958_ z\[15\] VSS VSS VDD VDD _0301_ sky130_fd_sc_hd__buf_4
X_0959_ _0301_ VSS VSS VDD VDD _0302_ sky130_fd_sc_hd__buf_4
X_0960_ _0281_ _0300_ _0302_ VSS VSS VDD VDD _0808_ sky130_fd_sc_hd__a21oi_1
X_0961_ x\[12\] x\[13\] x\[14\] x\[15\] _0276_ _0266_ VSS
+ VSS VDD VDD _0303_ sky130_fd_sc_hd__mux4_4
X_0962_ _0266_ VSS VSS VDD VDD _0304_ sky130_fd_sc_hd__clkbuf_4
X_0963_ x\[4\] x\[5\] x\[6\] x\[7\] _0276_ _0304_ VSS VSS
+ VDD VDD _0305_ sky130_fd_sc_hd__mux4_1
X_0964_ _0303_ _0305_ _0283_ VSS VSS VDD VDD _0306_ sky130_fd_sc_hd__mux2_1
X_0965_ _0266_ VSS VSS VDD VDD _0307_ sky130_fd_sc_hd__buf_4
X_0966_ x\[0\] x\[1\] x\[2\] x\[3\] _0277_ _0307_ VSS VSS
+ VDD VDD _0308_ sky130_fd_sc_hd__mux4_1
X_0967_ _0271_ _0269_ VSS VSS VDD VDD _0309_ sky130_fd_sc_hd__nor2_2
X_0968_ _0271_ iteration\[3\] VSS VSS VDD VDD _0310_ sky130_fd_sc_hd__nor2b_2
X_0969_ x\[8\] x\[9\] x\[10\] x\[11\] _0276_ _0266_ VSS VSS
+ VDD VDD _0311_ sky130_fd_sc_hd__mux4_2
X_0970_ _0308_ _0309_ _0310_ _0311_ VSS VSS VDD VDD _0312_
+ sky130_fd_sc_hd__a22o_1
X_0971_ _0272_ _0306_ _0312_ VSS VSS VDD VDD _0816_ sky130_fd_sc_hd__a21oi_4
X_0972_ _0816_ VSS VSS VDD VDD _0812_ sky130_fd_sc_hd__inv_1
X_0973_ _0286_ VSS VSS VDD VDD _0313_ sky130_fd_sc_hd__clkbuf_4
X_0974_ x\[14\] x\[15\] _0276_ VSS VSS VDD VDD _0314_ sky130_fd_sc_hd__mux2i_2
X_0975_ _0266_ _0314_ VSS VSS VDD VDD _0315_ sky130_fd_sc_hd__or2_2
X_0976_ x\[7\] x\[9\] _0266_ VSS VSS VDD VDD _0316_ sky130_fd_sc_hd__mux2i_4
X_0977_ iteration\[3\] _0277_ VSS VSS VDD VDD _0317_ sky130_fd_sc_hd__nor2b_4
X_0978_ x\[6\] x\[8\] _0266_ VSS VSS VDD VDD _0318_ sky130_fd_sc_hd__mux2_1
X_0979_ iteration\[3\] _0277_ _0318_ VSS VSS VDD VDD _0319_
+ sky130_fd_sc_hd__nor3_1
X_0980_ iteration\[3\] _0315_ _0316_ _0317_ _0319_ VSS VSS
+ VDD VDD _0320_ sky130_fd_sc_hd__a221oi_4
X_0981_ x\[10\] x\[11\] x\[12\] x\[13\] _0276_ _0266_ VSS
+ VSS VDD VDD _0321_ sky130_fd_sc_hd__mux4_4
X_0982_ _0281_ _0321_ VSS VSS VDD VDD _0322_ sky130_fd_sc_hd__nand2_1
X_0983_ x\[2\] x\[3\] x\[4\] x\[5\] _0276_ _0304_ VSS VSS
+ VDD VDD _0323_ sky130_fd_sc_hd__mux4_1
X_0984_ _0285_ _0323_ VSS VSS VDD VDD _0324_ sky130_fd_sc_hd__nand2_1
X_0985_ _0322_ _0324_ _0313_ VSS VSS VDD VDD _0325_ sky130_fd_sc_hd__a21oi_1
X_0986_ _0313_ _0320_ _0325_ VSS VSS VDD VDD _0326_ sky130_fd_sc_hd__a21oi_1
X_0987_ _0301_ VSS VSS VDD VDD _0327_ sky130_fd_sc_hd__buf_4
X_0988_ _0327_ _0817_ VSS VSS VDD VDD _0328_ sky130_fd_sc_hd__nor2_1
X_0989_ _0326_ _0328_ VSS VSS VDD VDD _0821_ sky130_fd_sc_hd__xor2_1
X_0990_ x\[11\] x\[12\] x\[13\] x\[14\] _0276_ _0307_ VSS
+ VSS VDD VDD _0329_ sky130_fd_sc_hd__mux4_4
X_0991_ x\[3\] x\[4\] x\[5\] x\[6\] _0277_ _0267_ VSS VSS
+ VDD VDD _0330_ sky130_fd_sc_hd__mux4_1
X_0992_ _0310_ _0329_ _0330_ _0309_ VSS VSS VDD VDD _0331_
+ sky130_fd_sc_hd__a22oi_2
X_0993_ _0304_ x\[15\] VSS VSS VDD VDD _0332_ sky130_fd_sc_hd__nand2b_1
X_0994_ _0269_ _0332_ _0278_ VSS VSS VDD VDD _0333_ sky130_fd_sc_hd__a21oi_1
X_0995_ x\[8\] x\[10\] _0307_ VSS VSS VDD VDD _0334_ sky130_fd_sc_hd__mux2i_1
X_0996_ _0269_ _0334_ VSS VSS VDD VDD _0335_ sky130_fd_sc_hd__nor2_1
X_0997_ _0269_ _0277_ VSS VSS VDD VDD _0336_ sky130_fd_sc_hd__nor2_4
X_0998_ _0316_ _0336_ _0291_ VSS VSS VDD VDD _0337_ sky130_fd_sc_hd__a21oi_1
X_0999_ _0333_ _0335_ _0337_ VSS VSS VDD VDD _0338_ sky130_fd_sc_hd__o21ai_2
X_1000_ _0331_ _0338_ VSS VSS VDD VDD _0339_ sky130_fd_sc_hd__nand2_2
X_1001_ x\[13\] x\[15\] iteration\[1\] VSS VSS VDD VDD _0340_
+ sky130_fd_sc_hd__mux2_1
X_1002_ x\[5\] x\[7\] net104 VSS VSS VDD VDD _0341_ sky130_fd_sc_hd__mux2_1
X_1003_ _0266_ x\[14\] VSS VSS VDD VDD _0342_ sky130_fd_sc_hd__nor2b_1
X_1004_ _0340_ _0341_ _0342_ _0318_ _0283_ _0278_ VSS VSS
+ VDD VDD _0343_ sky130_fd_sc_hd__mux4_1
X_1005_ x\[9\] x\[10\] x\[11\] x\[12\] _0277_ _0307_ VSS VSS
+ VDD VDD _0344_ sky130_fd_sc_hd__mux4_1
X_1006_ x\[1\] x\[2\] x\[3\] x\[4\] _0277_ _0307_ VSS VSS
+ VDD VDD _0345_ sky130_fd_sc_hd__mux4_1
X_1007_ _0310_ _0344_ _0345_ _0309_ VSS VSS VDD VDD _0346_
+ sky130_fd_sc_hd__a22o_1
X_1008_ _0272_ _0343_ _0346_ VSS VSS VDD VDD _0815_ sky130_fd_sc_hd__a21oi_2
X_1009_ _0301_ VSS VSS VDD VDD _0347_ sky130_fd_sc_hd__buf_4
X_1010_ _0816_ _0326_ _0815_ _0347_ VSS VSS VDD VDD _0348_
+ sky130_fd_sc_hd__a31oi_1
X_1011_ _0339_ _0348_ VSS VSS VDD VDD _0824_ sky130_fd_sc_hd__xnor2_1
X_1012_ _0813_ VSS VSS VDD VDD _0737_ sky130_fd_sc_hd__inv_1
X_1013_ _0301_ VSS VSS VDD VDD _0349_ sky130_fd_sc_hd__buf_4
X_1014_ _0817_ _0326_ _0331_ _0338_ _0349_ VSS VSS VDD VDD
+ _0350_ sky130_fd_sc_hd__a41oi_1
X_1015_ _0271_ _0284_ _0311_ VSS VSS VDD VDD _0351_ sky130_fd_sc_hd__and3_1
X_1016_ _0292_ _0306_ _0351_ VSS VSS VDD VDD _0352_ sky130_fd_sc_hd__a21oi_1
X_1017_ _0350_ _0352_ VSS VSS VDD VDD _0827_ sky130_fd_sc_hd__xor2_1
X_1018_ _0271_ _0284_ VSS VSS VDD VDD _0353_ sky130_fd_sc_hd__nand2_2
X_1019_ x\[9\] x\[11\] _0307_ VSS VSS VDD VDD _0354_ sky130_fd_sc_hd__mux2i_1
X_1020_ x\[10\] x\[12\] _0307_ VSS VSS VDD VDD _0355_ sky130_fd_sc_hd__mux2i_1
X_1021_ _0354_ _0355_ _0277_ VSS VSS VDD VDD _0356_ sky130_fd_sc_hd__mux2_2
X_1022_ _0291_ _0343_ VSS VSS VDD VDD _0357_ sky130_fd_sc_hd__nand2_1
X_1023_ _0353_ _0356_ _0357_ VSS VSS VDD VDD _0358_ sky130_fd_sc_hd__o21ai_2
X_1024_ _0816_ _0815_ VSS VSS VDD VDD _0359_ sky130_fd_sc_hd__nand2_1
X_1025_ _0305_ _0323_ _0309_ VSS VSS VDD VDD _0360_ sky130_fd_sc_hd__o21ai_0
X_1026_ _0303_ _0321_ _0310_ VSS VSS VDD VDD _0361_ sky130_fd_sc_hd__o21ai_0
X_1027_ _0360_ _0361_ VSS VSS VDD VDD _0362_ sky130_fd_sc_hd__nand2_1
X_1028_ _0271_ _0320_ _0351_ _0362_ VSS VSS VDD VDD _0363_
+ sky130_fd_sc_hd__a211o_1
X_1029_ _0301_ VSS VSS VDD VDD _0364_ sky130_fd_sc_hd__clkinv_4
X_1030_ _0339_ _0359_ _0363_ _0364_ VSS VSS VDD VDD _0365_
+ sky130_fd_sc_hd__o31ai_1
X_1031_ _0358_ _0365_ VSS VSS VDD VDD _0830_ sky130_fd_sc_hd__xor2_1
X_1032_ _0291_ _0269_ VSS VSS VDD VDD _0366_ sky130_fd_sc_hd__nor2_4
X_1033_ _0292_ _0320_ _0321_ _0366_ VSS VSS VDD VDD _0367_
+ sky130_fd_sc_hd__a22oi_2
X_1034_ _0339_ _0358_ _0363_ _0817_ VSS VSS VDD VDD _0368_
+ sky130_fd_sc_hd__or4b_1
X_1035_ _0364_ _0368_ VSS VSS VDD VDD _0369_ sky130_fd_sc_hd__nand2_1
X_1036_ _0367_ _0369_ VSS VSS VDD VDD _0833_ sky130_fd_sc_hd__xnor2_1
X_1037_ _0316_ _0336_ _0272_ VSS VSS VDD VDD _0370_ sky130_fd_sc_hd__a21oi_1
X_1038_ _0333_ _0335_ _0370_ VSS VSS VDD VDD _0371_ sky130_fd_sc_hd__o21ai_1
X_1039_ _0366_ _0329_ VSS VSS VDD VDD _0372_ sky130_fd_sc_hd__nand2_1
X_1040_ _0371_ _0372_ VSS VSS VDD VDD _0373_ sky130_fd_sc_hd__nand2_2
X_1041_ _0366_ _0321_ _0351_ _0362_ _0320_ VSS VSS VDD VDD
+ _0374_ sky130_fd_sc_hd__a2111o_1
X_1042_ _0339_ _0359_ _0358_ _0374_ VSS VSS VDD VDD _0375_
+ sky130_fd_sc_hd__nor4_4
X_1043_ _0302_ _0375_ VSS VSS VDD VDD _0376_ sky130_fd_sc_hd__nor2_1
X_1044_ _0373_ _0376_ VSS VSS VDD VDD _0836_ sky130_fd_sc_hd__xnor2_1
X_1045_ _0309_ VSS VSS VDD VDD _0377_ sky130_fd_sc_hd__buf_4
X_1046_ net101 _0366_ _0311_ _0377_ VSS VSS VDD VDD _0378_
+ sky130_fd_sc_hd__a22oi_2
X_1047_ _0378_ VSS VSS VDD VDD _0379_ sky130_fd_sc_hd__inv_1
X_1048_ _0368_ _0367_ VSS VSS VDD VDD _0380_ sky130_fd_sc_hd__nand2b_1
X_1049_ _0373_ _0380_ VSS VSS VDD VDD _0381_ sky130_fd_sc_hd__nor2_1
X_1050_ _0302_ _0381_ VSS VSS VDD VDD _0382_ sky130_fd_sc_hd__nor2_1
X_1051_ _0379_ _0382_ VSS VSS VDD VDD _0839_ sky130_fd_sc_hd__xnor2_1
X_1052_ _0340_ _0342_ _0278_ VSS VSS VDD VDD _0383_ sky130_fd_sc_hd__mux2i_1
X_1053_ _0383_ _0356_ _0291_ VSS VSS VDD VDD _0384_ sky130_fd_sc_hd__mux2i_2
X_1054_ _0285_ _0384_ VSS VSS VDD VDD _0385_ sky130_fd_sc_hd__and2_1
X_1055_ _0373_ _0379_ VSS VSS VDD VDD _0386_ sky130_fd_sc_hd__nor2_1
X_1056_ _0375_ _0386_ _0327_ VSS VSS VDD VDD _0387_ sky130_fd_sc_hd__a21oi_1
X_1057_ _0385_ _0387_ VSS VSS VDD VDD _0842_ sky130_fd_sc_hd__xnor2_1
X_1058_ _0268_ _0314_ VSS VSS VDD VDD _0388_ sky130_fd_sc_hd__nor2_1
X_1059_ _0388_ _0321_ _0292_ VSS VSS VDD VDD _0389_ sky130_fd_sc_hd__mux2i_1
X_1060_ _0270_ _0389_ VSS VSS VDD VDD _0390_ sky130_fd_sc_hd__nor2_1
X_1061_ _0373_ _0379_ _0380_ _0385_ _0364_ VSS VSS VDD VDD
+ _0391_ sky130_fd_sc_hd__o41a_1
X_1062_ _0390_ _0391_ VSS VSS VDD VDD _0845_ sky130_fd_sc_hd__xnor2_1
X_1063_ _0292_ _0329_ VSS VSS VDD VDD _0392_ sky130_fd_sc_hd__nand2_1
X_1064_ _0279_ _0268_ VSS VSS VDD VDD _0393_ sky130_fd_sc_hd__nor2_1
X_1065_ _0286_ x\[15\] _0393_ VSS VSS VDD VDD _0394_ sky130_fd_sc_hd__nand3_2
X_1066_ _0392_ _0394_ _0270_ VSS VSS VDD VDD _0395_ sky130_fd_sc_hd__a21o_2
X_1067_ _0373_ _0379_ _0385_ _0390_ VSS VSS VDD VDD _0396_
+ sky130_fd_sc_hd__nor4_2
X_1068_ _0375_ _0396_ _0301_ VSS VSS VDD VDD _0397_ sky130_fd_sc_hd__a21oi_1
X_1069_ _0395_ _0397_ VSS VSS VDD VDD _0848_ sky130_fd_sc_hd__xor2_1
X_1070_ _0395_ _0396_ VSS VSS VDD VDD _0398_ sky130_fd_sc_hd__nand2_1
X_1071_ _0380_ _0398_ VSS VSS VDD VDD _0399_ sky130_fd_sc_hd__nor2_2
X_1072_ _0347_ _0399_ VSS VSS VDD VDD _0400_ sky130_fd_sc_hd__nor2_1
X_1073_ _0377_ VSS VSS VDD VDD _0401_ sky130_fd_sc_hd__buf_2
X_1074_ net102 _0401_ VSS VSS VDD VDD _0402_ sky130_fd_sc_hd__nand2_1
X_1075_ _0400_ _0402_ VSS VSS VDD VDD _0851_ sky130_fd_sc_hd__xor2_1
X_1076_ _0763_ _0340_ VSS VSS VDD VDD _0403_ sky130_fd_sc_hd__nand2_1
X_1077_ _0279_ _0342_ VSS VSS VDD VDD _0404_ sky130_fd_sc_hd__nand2_1
X_1078_ _0403_ _0404_ VSS VSS VDD VDD _0405_ sky130_fd_sc_hd__nand2_1
X_1079_ _0364_ net102 VSS VSS VDD VDD _0406_ sky130_fd_sc_hd__nand2_1
X_1080_ net102 _0395_ VSS VSS VDD VDD _0407_ sky130_fd_sc_hd__nor2b_1
X_1081_ _0349_ _0407_ _0405_ VSS VSS VDD VDD _0408_ sky130_fd_sc_hd__o21ai_0
X_1082_ _0405_ _0406_ _0408_ _0397_ VSS VSS VDD VDD _0409_
+ sky130_fd_sc_hd__o22ai_1
X_1083_ _0349_ _0395_ VSS VSS VDD VDD _0410_ sky130_fd_sc_hd__nor2_1
X_1084_ _0397_ _0410_ VSS VSS VDD VDD _0411_ sky130_fd_sc_hd__nor2_1
X_1085_ _0401_ _0405_ _0411_ VSS VSS VDD VDD _0412_ sky130_fd_sc_hd__a21oi_1
X_1086_ _0401_ _0409_ _0412_ VSS VSS VDD VDD _0854_ sky130_fd_sc_hd__a21oi_1
X_1087_ net102 _0405_ VSS VSS VDD VDD _0413_ sky130_fd_sc_hd__nor2_1
X_1088_ _0399_ _0413_ _0349_ VSS VSS VDD VDD _0414_ sky130_fd_sc_hd__a21oi_1
X_1089_ _0301_ _0413_ _0315_ VSS VSS VDD VDD _0415_ sky130_fd_sc_hd__o21ai_0
X_1090_ _0349_ _0399_ _0415_ _0401_ VSS VSS VDD VDD _0416_
+ sky130_fd_sc_hd__a2bb2oi_1
X_1091_ _0401_ _0388_ _0414_ _0416_ VSS VSS VDD VDD _0857_
+ sky130_fd_sc_hd__a31o_1
X_1092_ _0313_ VSS VSS VDD VDD _0417_ sky130_fd_sc_hd__clkbuf_4
X_1093_ y\[1\] y\[3\] _0267_ VSS VSS VDD VDD _0418_ sky130_fd_sc_hd__mux2i_4
X_1094_ y\[0\] y\[2\] _0268_ VSS VSS VDD VDD _0419_ sky130_fd_sc_hd__mux2i_2
X_1095_ _0269_ _0278_ VSS VSS VDD VDD _0420_ sky130_fd_sc_hd__nand2_1
X_1096_ y\[9\] y\[11\] _0304_ VSS VSS VDD VDD _0421_ sky130_fd_sc_hd__mux2_1
X_1097_ y\[8\] y\[10\] _0304_ VSS VSS VDD VDD _0422_ sky130_fd_sc_hd__mux2_2
X_1098_ _0420_ _0421_ _0422_ _0282_ VSS VSS VDD VDD _0423_
+ sky130_fd_sc_hd__o22ai_2
X_1099_ _0317_ _0418_ _0419_ _0336_ _0423_ VSS VSS VDD VDD
+ _0424_ sky130_fd_sc_hd__a221oi_4
X_1100_ y\[15\] VSS VSS VDD VDD _0425_ sky130_fd_sc_hd__clkbuf_4
X_1101_ y\[12\] y\[13\] y\[14\] _0425_ _0276_ _0304_ VSS VSS
+ VDD VDD _0426_ sky130_fd_sc_hd__mux4_4
X_1102_ y\[4\] y\[5\] y\[6\] y\[7\] _0276_ _0307_ VSS VSS
+ VDD VDD _0427_ sky130_fd_sc_hd__mux4_2
X_1103_ _0426_ _0427_ _0284_ VSS VSS VDD VDD _0428_ sky130_fd_sc_hd__mux2i_4
X_1104_ _0417_ _0428_ VSS VSS VDD VDD _0429_ sky130_fd_sc_hd__nand2_1
X_1105_ _0417_ _0424_ _0429_ VSS VSS VDD VDD _0863_ sky130_fd_sc_hd__o21ai_2
X_1106_ _0863_ VSS VSS VDD VDD _0860_ sky130_fd_sc_hd__inv_1
X_1107_ y\[13\] _0425_ _0307_ VSS VSS VDD VDD _0430_ sky130_fd_sc_hd__mux2i_1
X_1108_ _0267_ y\[14\] _0278_ VSS VSS VDD VDD _0431_ sky130_fd_sc_hd__nand3b_1
X_1109_ _0278_ _0430_ _0431_ VSS VSS VDD VDD _0432_ sky130_fd_sc_hd__o21ai_2
X_1110_ y\[5\] y\[7\] _0267_ VSS VSS VDD VDD _0433_ sky130_fd_sc_hd__mux2i_1
X_1111_ y\[6\] y\[8\] _0267_ VSS VSS VDD VDD _0434_ sky130_fd_sc_hd__mux2i_2
X_1112_ _0336_ _0433_ _0434_ _0317_ VSS VSS VDD VDD _0435_
+ sky130_fd_sc_hd__a22oi_2
X_1113_ _0284_ _0432_ _0435_ VSS VSS VDD VDD _0436_ sky130_fd_sc_hd__o21ai_2
X_1114_ y\[2\] y\[4\] _0304_ VSS VSS VDD VDD _0437_ sky130_fd_sc_hd__mux2_1
X_1115_ _0763_ _0418_ VSS VSS VDD VDD _0438_ sky130_fd_sc_hd__nand2_1
X_1116_ _0763_ _0437_ _0438_ VSS VSS VDD VDD _0439_ sky130_fd_sc_hd__o21ai_1
X_1117_ y\[10\] y\[12\] _0304_ VSS VSS VDD VDD _0440_ sky130_fd_sc_hd__mux2_2
X_1118_ _0421_ _0440_ _0278_ VSS VSS VDD VDD _0441_ sky130_fd_sc_hd__mux2_1
X_1119_ _0284_ _0441_ VSS VSS VDD VDD _0442_ sky130_fd_sc_hd__nor2_1
X_1120_ _0284_ _0439_ _0442_ VSS VSS VDD VDD _0443_ sky130_fd_sc_hd__a21oi_2
X_1121_ _0417_ _0443_ VSS VSS VDD VDD _0444_ sky130_fd_sc_hd__nor2_1
X_1122_ _0417_ _0436_ _0444_ VSS VSS VDD VDD _0445_ sky130_fd_sc_hd__a21oi_1
X_1123_ _0866_ _0445_ _0349_ VSS VSS VDD VDD _0867_ sky130_fd_sc_hd__mux2_1
X_1124_ _0867_ VSS VSS VDD VDD _0743_ sky130_fd_sc_hd__inv_1
X_1125_ x\[1\] VSS VSS VDD VDD _0741_ sky130_fd_sc_hd__inv_1
X_1126_ _0861_ VSS VSS VDD VDD _0742_ sky130_fd_sc_hd__inv_1
X_1127_ y\[0\] VSS VSS VDD VDD _0811_ sky130_fd_sc_hd__inv_1
X_1128_ _0432_ _0441_ _0292_ VSS VSS VDD VDD _0446_ sky130_fd_sc_hd__mux2_1
X_1129_ _0285_ _0446_ VSS VSS VDD VDD _0447_ sky130_fd_sc_hd__nand2_1
X_1130_ y\[11\] y\[13\] _0304_ VSS VSS VDD VDD _0448_ sky130_fd_sc_hd__mux2_2
X_1131_ y\[3\] y\[5\] _0307_ VSS VSS VDD VDD _0449_ sky130_fd_sc_hd__mux2_1
X_1132_ _0440_ _0437_ _0448_ _0449_ _0284_ _0279_ VSS VSS
+ VDD VDD _0450_ sky130_fd_sc_hd__mux4_4
X_1133_ y\[14\] _0425_ _0277_ VSS VSS VDD VDD _0451_ sky130_fd_sc_hd__mux2i_1
X_1134_ _0267_ _0451_ VSS VSS VDD VDD _0452_ sky130_fd_sc_hd__nor2_1
X_1135_ y\[7\] y\[9\] _0267_ VSS VSS VDD VDD _0453_ sky130_fd_sc_hd__mux2i_2
X_1136_ _0336_ _0434_ _0453_ _0317_ VSS VSS VDD VDD _0454_
+ sky130_fd_sc_hd__a22oi_2
X_1137_ _0284_ _0452_ _0454_ VSS VSS VDD VDD _0455_ sky130_fd_sc_hd__o21ai_2
X_1138_ _0313_ _0428_ _0436_ _0455_ VSS VSS VDD VDD _0456_
+ sky130_fd_sc_hd__nand4_1
X_1139_ _0286_ _0424_ _0443_ _0450_ _0456_ VSS VSS VDD VDD
+ _0457_ sky130_fd_sc_hd__o41ai_4
X_1140_ _0292_ _0285_ VSS VSS VDD VDD _0458_ sky130_fd_sc_hd__nand2_1
X_1141_ _0421_ _0422_ _0763_ VSS VSS VDD VDD _0459_ sky130_fd_sc_hd__mux2i_4
X_1142_ _0366_ _0426_ VSS VSS VDD VDD _0460_ sky130_fd_sc_hd__nand2_1
X_1143_ _0458_ _0459_ _0460_ VSS VSS VDD VDD _0461_ sky130_fd_sc_hd__o21ai_2
X_1144_ _0267_ _0425_ VSS VSS VDD VDD _0462_ sky130_fd_sc_hd__nand2b_1
X_1145_ _0269_ _0462_ _0279_ VSS VSS VDD VDD _0463_ sky130_fd_sc_hd__a21oi_1
X_1146_ _0284_ _0422_ VSS VSS VDD VDD _0464_ sky130_fd_sc_hd__and2_0
X_1147_ _0336_ _0453_ VSS VSS VDD VDD _0465_ sky130_fd_sc_hd__nand2_1
X_1148_ _0463_ _0464_ _0465_ VSS VSS VDD VDD _0466_ sky130_fd_sc_hd__o21ai_0
X_1149_ y\[12\] y\[14\] _0304_ VSS VSS VDD VDD _0467_ sky130_fd_sc_hd__mux2_1
X_1150_ _0467_ _0448_ _0763_ VSS VSS VDD VDD _0468_ sky130_fd_sc_hd__mux2_2
X_1151_ _0366_ _0468_ VSS VSS VDD VDD _0469_ sky130_fd_sc_hd__nand2_1
X_1152_ _0272_ _0466_ _0469_ VSS VSS VDD VDD _0470_ sky130_fd_sc_hd__o21ai_1
X_1153_ _0440_ _0448_ _0279_ VSS VSS VDD VDD _0471_ sky130_fd_sc_hd__mux2i_4
X_1154_ _0286_ _0455_ _0471_ _0353_ VSS VSS VDD VDD _0472_
+ sky130_fd_sc_hd__o22ai_2
X_1155_ _0272_ _0428_ _0459_ _0353_ VSS VSS VDD VDD _0473_
+ sky130_fd_sc_hd__o22a_1
X_1156_ y\[4\] y\[6\] _0267_ VSS VSS VDD VDD _0474_ sky130_fd_sc_hd__mux2i_1
X_1157_ _0279_ _0474_ VSS VSS VDD VDD _0475_ sky130_fd_sc_hd__nand2_1
X_1158_ _0279_ _0449_ _0475_ _0377_ VSS VSS VDD VDD _0476_
+ sky130_fd_sc_hd__o211ai_4
X_1159_ _0463_ _0464_ _0465_ _0272_ VSS VSS VDD VDD _0477_
+ sky130_fd_sc_hd__o211ai_2
X_1160_ _0310_ _0468_ VSS VSS VDD VDD _0478_ sky130_fd_sc_hd__nand2_1
X_1161_ _0473_ _0476_ _0477_ _0478_ VSS VSS VDD VDD _0479_
+ sky130_fd_sc_hd__nand4_1
X_1162_ _0366_ _0441_ VSS VSS VDD VDD _0480_ sky130_fd_sc_hd__nand2_1
X_1163_ _0272_ _0436_ _0480_ VSS VSS VDD VDD _0481_ sky130_fd_sc_hd__o21ai_2
X_1164_ _0470_ _0472_ _0479_ _0481_ VSS VSS VDD VDD _0482_
+ sky130_fd_sc_hd__nor4_2
X_1165_ _0461_ _0482_ VSS VSS VDD VDD _0483_ sky130_fd_sc_hd__and2b_1
X_1166_ _0457_ _0483_ _0327_ VSS VSS VDD VDD _0484_ sky130_fd_sc_hd__a21oi_1
X_1167_ _0447_ _0484_ VSS VSS VDD VDD _0891_ sky130_fd_sc_hd__xnor2_1
X_1168_ _0377_ _0426_ VSS VSS VDD VDD _0485_ sky130_fd_sc_hd__nand2_1
X_1169_ _0286_ _0450_ VSS VSS VDD VDD _0486_ sky130_fd_sc_hd__nor2_1
X_1170_ _0286_ _0455_ _0486_ VSS VSS VDD VDD _0487_ sky130_fd_sc_hd__a21oi_1
X_1171_ _0487_ _0865_ VSS VSS VDD VDD _0488_ sky130_fd_sc_hd__nor2b_2
X_1172_ _0447_ _0483_ _0488_ VSS VSS VDD VDD _0489_ sky130_fd_sc_hd__and3_1
X_1173_ _0278_ y\[14\] VSS VSS VDD VDD _0490_ sky130_fd_sc_hd__nor2b_1
X_1174_ _0425_ _0490_ _0764_ VSS VSS VDD VDD _0491_ sky130_fd_sc_hd__o21ai_0
X_1175_ _0467_ _0440_ _0763_ VSS VSS VDD VDD _0492_ sky130_fd_sc_hd__mux2i_1
X_1176_ _0272_ _0448_ VSS VSS VDD VDD _0493_ sky130_fd_sc_hd__nor2_1
X_1177_ _0286_ _0491_ _0492_ _0493_ _0270_ VSS VSS VDD VDD
+ _0494_ sky130_fd_sc_hd__a221o_2
X_1178_ _0489_ _0494_ _0327_ VSS VSS VDD VDD _0495_ sky130_fd_sc_hd__a21oi_1
X_1179_ _0485_ _0495_ VSS VSS VDD VDD _0900_ sky130_fd_sc_hd__xnor2_1
X_1180_ _0377_ _0432_ VSS VSS VDD VDD _0496_ sky130_fd_sc_hd__nand2_1
X_1181_ _0447_ _0457_ _0483_ VSS VSS VDD VDD _0497_ sky130_fd_sc_hd__and3_1
X_1182_ _0485_ _0494_ _0497_ _0347_ VSS VSS VDD VDD _0498_
+ sky130_fd_sc_hd__a31oi_1
X_1183_ _0496_ _0498_ VSS VSS VDD VDD _0903_ sky130_fd_sc_hd__xnor2_1
X_1184_ state\[0\] VSS VSS VDD VDD _0909_ sky130_fd_sc_hd__inv_1
X_1185_ _0302_ _0751_ VSS VSS VDD VDD _0499_ sky130_fd_sc_hd__nor2_1
X_1186_ _0302_ _0748_ _0499_ VSS VSS VDD VDD _0734_ sky130_fd_sc_hd__a21oi_1
X_1187_ _0285_ _0773_ _0420_ VSS VSS VDD VDD _0500_ sky130_fd_sc_hd__a21boi_1
X_1188_ _0302_ _0750_ VSS VSS VDD VDD _0501_ sky130_fd_sc_hd__nor2_1
X_1189_ _0500_ _0501_ VSS VSS VDD VDD _0754_ sky130_fd_sc_hd__xnor2_1
X_1190_ _0771_ _0767_ _0288_ VSS VSS VDD VDD _0502_ sky130_fd_sc_hd__o21ai_0
X_1191_ _0749_ _0748_ VSS VSS VDD VDD _0503_ sky130_fd_sc_hd__and2_0
X_1192_ _0500_ _0503_ _0327_ VSS VSS VDD VDD _0504_ sky130_fd_sc_hd__a21oi_1
X_1193_ _0502_ _0504_ VSS VSS VDD VDD _0757_ sky130_fd_sc_hd__xnor2_1
X_1194_ _0750_ _0289_ _0327_ VSS VSS VDD VDD _0505_ sky130_fd_sc_hd__a21oi_1
X_1195_ _0299_ _0505_ VSS VSS VDD VDD _0760_ sky130_fd_sc_hd__xnor2_1
X_1196_ _0289_ _0299_ _0503_ _0347_ VSS VSS VDD VDD _0506_
+ sky130_fd_sc_hd__a31oi_1
X_1197_ _0296_ _0506_ VSS VSS VDD VDD _0781_ sky130_fd_sc_hd__xor2_1
X_1198_ _0313_ _0279_ VSS VSS VDD VDD _0507_ sky130_fd_sc_hd__nand2_1
X_1199_ _0293_ _0507_ _0270_ VSS VSS VDD VDD _0508_ sky130_fd_sc_hd__a21oi_1
X_1200_ _0327_ _0300_ VSS VSS VDD VDD _0509_ sky130_fd_sc_hd__nor2_1
X_1201_ _0508_ _0509_ VSS VSS VDD VDD _0784_ sky130_fd_sc_hd__xor2_1
X_1202_ _0296_ _0508_ VSS VSS VDD VDD _0510_ sky130_fd_sc_hd__nor2_1
X_1203_ _0289_ _0299_ _0503_ _0510_ VSS VSS VDD VDD _0511_
+ sky130_fd_sc_hd__nand4_1
X_1204_ _0364_ _0511_ VSS VSS VDD VDD _0512_ sky130_fd_sc_hd__and2_0
X_1205_ _0417_ _0763_ VSS VSS VDD VDD _0513_ sky130_fd_sc_hd__nand2_1
X_1206_ _0293_ _0513_ _0281_ VSS VSS VDD VDD _0514_ sky130_fd_sc_hd__a21oi_1
X_1207_ _0512_ _0514_ VSS VSS VDD VDD _0787_ sky130_fd_sc_hd__xor2_1
X_1208_ _0313_ _0766_ _0285_ VSS VSS VDD VDD _0515_ sky130_fd_sc_hd__o21ai_0
X_1209_ _0300_ _0515_ _0349_ VSS VSS VDD VDD _0516_ sky130_fd_sc_hd__a21oi_2
X_1210_ _0268_ _0773_ _0417_ VSS VSS VDD VDD _0517_ sky130_fd_sc_hd__mux2i_1
X_1211_ _0281_ _0517_ VSS VSS VDD VDD _0518_ sky130_fd_sc_hd__nor2_1
X_1212_ _0516_ _0518_ VSS VSS VDD VDD _0790_ sky130_fd_sc_hd__xor2_1
X_1213_ _0773_ _0765_ _0417_ VSS VSS VDD VDD _0519_ sky130_fd_sc_hd__mux2i_1
X_1214_ _0281_ _0519_ VSS VSS VDD VDD _0520_ sky130_fd_sc_hd__nor2_1
X_1215_ _0512_ _0520_ VSS VSS VDD VDD _0793_ sky130_fd_sc_hd__xor2_1
X_1216_ _0777_ _0401_ VSS VSS VDD VDD _0521_ sky130_fd_sc_hd__nand2_1
X_1217_ _0516_ _0521_ VSS VSS VDD VDD _0796_ sky130_fd_sc_hd__xnor2_1
X_1218_ _0765_ VSS VSS VDD VDD _0522_ sky130_fd_sc_hd__inv_1
X_1219_ _0313_ _0268_ _0777_ VSS VSS VDD VDD _0523_ sky130_fd_sc_hd__nor3_1
X_1220_ _0313_ _0522_ _0523_ VSS VSS VDD VDD _0524_ sky130_fd_sc_hd__a21oi_1
X_1221_ _0773_ _0524_ VSS VSS VDD VDD _0525_ sky130_fd_sc_hd__nor2_1
X_1222_ _0281_ _0525_ VSS VSS VDD VDD _0526_ sky130_fd_sc_hd__nor2_1
X_1223_ _0511_ _0526_ VSS VSS VDD VDD _0527_ sky130_fd_sc_hd__nor2_1
X_1224_ _0349_ _0527_ VSS VSS VDD VDD _0528_ sky130_fd_sc_hd__nor2_1
X_1225_ _0769_ _0401_ VSS VSS VDD VDD _0529_ sky130_fd_sc_hd__nand2_1
X_1226_ _0528_ _0529_ VSS VSS VDD VDD _0799_ sky130_fd_sc_hd__xnor2_1
X_1227_ _0773_ _0401_ VSS VSS VDD VDD _0530_ sky130_fd_sc_hd__nand2_1
X_1228_ _0769_ VSS VSS VDD VDD _0531_ sky130_fd_sc_hd__inv_1
X_1229_ _0364_ _0531_ _0458_ VSS VSS VDD VDD _0532_ sky130_fd_sc_hd__a21oi_1
X_1230_ _0526_ _0532_ VSS VSS VDD VDD _0533_ sky130_fd_sc_hd__nor2_1
X_1231_ _0347_ _0530_ _0533_ VSS VSS VDD VDD _0534_ sky130_fd_sc_hd__a21oi_1
X_1232_ _0302_ _0530_ _0534_ _0516_ VSS VSS VDD VDD _0802_
+ sky130_fd_sc_hd__o22a_1
X_1233_ _0531_ _0527_ _0302_ VSS VSS VDD VDD _0535_ sky130_fd_sc_hd__a21oi_1
X_1234_ _0349_ _0531_ _0522_ VSS VSS VDD VDD _0536_ sky130_fd_sc_hd__o21ai_0
X_1235_ _0401_ _0536_ _0528_ VSS VSS VDD VDD _0537_ sky130_fd_sc_hd__a21oi_1
X_1236_ _0765_ _0401_ _0535_ _0537_ VSS VSS VDD VDD _0805_
+ sky130_fd_sc_hd__a31oi_1
X_1237_ _0364_ _0815_ VSS VSS VDD VDD _0538_ sky130_fd_sc_hd__nor2_1
X_1238_ _0364_ _0818_ _0538_ VSS VSS VDD VDD _0738_ sky130_fd_sc_hd__a21oi_2
X_1239_ _0445_ VSS VSS VDD VDD _0864_ sky130_fd_sc_hd__inv_1
X_1240_ _0327_ _0865_ VSS VSS VDD VDD _0539_ sky130_fd_sc_hd__nor2_1
X_1241_ _0487_ _0539_ VSS VSS VDD VDD _0870_ sky130_fd_sc_hd__xor2_1
X_1242_ _0476_ _0477_ _0478_ VSS VSS VDD VDD _0540_ sky130_fd_sc_hd__nand3_1
X_1243_ _0540_ VSS VSS VDD VDD _0541_ sky130_fd_sc_hd__inv_1
X_1244_ _0302_ _0457_ VSS VSS VDD VDD _0542_ sky130_fd_sc_hd__nor2_1
X_1245_ _0541_ _0542_ VSS VSS VDD VDD _0873_ sky130_fd_sc_hd__xnor2_1
X_1246_ _0541_ _0488_ _0327_ VSS VSS VDD VDD _0543_ sky130_fd_sc_hd__a21oi_1
X_1247_ _0473_ _0543_ VSS VSS VDD VDD _0876_ sky130_fd_sc_hd__xnor2_1
X_1248_ _0457_ _0473_ _0541_ _0347_ VSS VSS VDD VDD _0544_
+ sky130_fd_sc_hd__a31oi_1
X_1249_ _0481_ _0544_ VSS VSS VDD VDD _0879_ sky130_fd_sc_hd__xor2_1
X_1250_ _0479_ _0481_ VSS VSS VDD VDD _0545_ sky130_fd_sc_hd__nor2_1
X_1251_ _0545_ _0488_ _0347_ VSS VSS VDD VDD _0546_ sky130_fd_sc_hd__a21oi_1
X_1252_ _0472_ _0546_ VSS VSS VDD VDD _0882_ sky130_fd_sc_hd__xor2_1
X_1253_ _0472_ _0479_ _0481_ VSS VSS VDD VDD _0547_ sky130_fd_sc_hd__nor3_1
X_1254_ _0457_ _0547_ _0347_ VSS VSS VDD VDD _0548_ sky130_fd_sc_hd__a21oi_1
X_1255_ _0470_ _0548_ VSS VSS VDD VDD _0885_ sky130_fd_sc_hd__xor2_1
X_1256_ _0482_ _0488_ _0347_ VSS VSS VDD VDD _0549_ sky130_fd_sc_hd__a21oi_1
X_1257_ _0461_ _0549_ VSS VSS VDD VDD _0888_ sky130_fd_sc_hd__xor2_1
X_1258_ _0313_ _0452_ VSS VSS VDD VDD _0550_ sky130_fd_sc_hd__nand2_1
X_1259_ _0313_ _0471_ _0550_ VSS VSS VDD VDD _0551_ sky130_fd_sc_hd__o21ai_0
X_1260_ _0285_ _0551_ VSS VSS VDD VDD _0552_ sky130_fd_sc_hd__nand2_1
X_1261_ _0327_ _0489_ VSS VSS VDD VDD _0553_ sky130_fd_sc_hd__nor2_1
X_1262_ _0552_ _0553_ VSS VSS VDD VDD _0894_ sky130_fd_sc_hd__xnor2_1
X_1263_ _0497_ _0552_ _0347_ VSS VSS VDD VDD _0554_ sky130_fd_sc_hd__a21oi_1
X_1264_ _0292_ _0468_ VSS VSS VDD VDD _0555_ sky130_fd_sc_hd__and2_0
X_1265_ _0417_ _0425_ _0393_ _0555_ VSS VSS VDD VDD _0556_
+ sky130_fd_sc_hd__a31oi_1
X_1266_ _0281_ _0556_ VSS VSS VDD VDD _0557_ sky130_fd_sc_hd__nor2_1
X_1267_ _0554_ _0557_ VSS VSS VDD VDD _0897_ sky130_fd_sc_hd__xor2_1
X_1268_ _0377_ _0452_ VSS VSS VDD VDD _0558_ sky130_fd_sc_hd__nand2_1
X_1269_ _0485_ _0489_ _0494_ _0496_ _0349_ VSS VSS VDD VDD
+ _0559_ sky130_fd_sc_hd__a41oi_1
X_1270_ _0558_ _0559_ VSS VSS VDD VDD _0906_ sky130_fd_sc_hd__xnor2_1
X_1271_ state\[1\] VSS VSS VDD VDD _0910_ sky130_fd_sc_hd__inv_1
X_1272_ next_state\[1\] VSS VSS VDD VDD _0560_ sky130_fd_sc_hd__clkbuf_4
X_1273_ _0560_ VSS VSS VDD VDD _0561_ sky130_fd_sc_hd__clkbuf_4
X_1274_ _0914_ VSS VSS VDD VDD _0562_ sky130_fd_sc_hd__buf_4
X_1275_ _0562_ next_state\[1\] VSS VSS VDD VDD _0563_ sky130_fd_sc_hd__nand2_2
X_1276_ _0561_ _0563_ _0763_ VSS VSS VDD VDD _0001_ sky130_fd_sc_hd__mux2i_1
X_1277_ _0562_ VSS VSS VDD VDD _0564_ sky130_fd_sc_hd__buf_4
X_1278_ _0560_ VSS VSS VDD VDD _0565_ sky130_fd_sc_hd__clkbuf_4
X_1279_ _0564_ _0766_ _0565_ VSS VSS VDD VDD _0566_ sky130_fd_sc_hd__nand3_1
X_1280_ _0764_ _0561_ _0566_ VSS VSS VDD VDD _0002_ sky130_fd_sc_hd__o21ai_0
X_1281_ _0292_ _0779_ VSS VSS VDD VDD _0567_ sky130_fd_sc_hd__nand2_1
X_1282_ _0914_ VSS VSS VDD VDD _0568_ sky130_fd_sc_hd__inv_2
X_1283_ _0568_ VSS VSS VDD VDD _0569_ sky130_fd_sc_hd__buf_4
X_1284_ next_state\[1\] VSS VSS VDD VDD _0570_ sky130_fd_sc_hd__clkbuf_4
X_1285_ _0779_ _0569_ _0570_ VSS VSS VDD VDD _0571_ sky130_fd_sc_hd__o21ai_0
X_1286_ _0417_ _0571_ VSS VSS VDD VDD _0572_ sky130_fd_sc_hd__nand2_1
X_1287_ _0563_ _0567_ _0572_ VSS VSS VDD VDD _0003_ sky130_fd_sc_hd__o21ai_0
X_1288_ _0417_ _0279_ _0268_ VSS VSS VDD VDD _0573_ sky130_fd_sc_hd__nand3_1
X_1289_ _0560_ VSS VSS VDD VDD _0574_ sky130_fd_sc_hd__buf_4
X_1290_ _0564_ _0573_ VSS VSS VDD VDD _0575_ sky130_fd_sc_hd__nand2_1
X_1291_ _0574_ _0575_ VSS VSS VDD VDD _0576_ sky130_fd_sc_hd__nand2_1
X_1292_ _0281_ _0576_ VSS VSS VDD VDD _0577_ sky130_fd_sc_hd__nand2_1
X_1293_ _0281_ _0563_ _0573_ _0577_ VSS VSS VDD VDD _0004_
+ sky130_fd_sc_hd__o31ai_1
X_1294_ _0562_ VSS VSS VDD VDD _0578_ sky130_fd_sc_hd__buf_4
X_1295_ net2 _0911_ VSS VSS VDD VDD _0579_ sky130_fd_sc_hd__nor2b_1
X_1296_ _0292_ _0281_ _0779_ VSS VSS VDD VDD _0580_ sky130_fd_sc_hd__nand3_1
X_1297_ _0578_ _0580_ _0579_ VSS VSS VDD VDD _0581_ sky130_fd_sc_hd__a21oi_1
X_1298_ _0578_ _0912_ _0579_ _0581_ state\[0\] VSS VSS VDD
+ VDD _0005_ sky130_fd_sc_hd__o32a_1
X_1299_ _0560_ VSS VSS VDD VDD _0582_ sky130_fd_sc_hd__buf_4
X_1300_ _0582_ _0581_ VSS VSS VDD VDD _0583_ sky130_fd_sc_hd__nand2_1
X_1301_ _0910_ _0581_ _0583_ VSS VSS VDD VDD _0006_ sky130_fd_sc_hd__o21ai_0
X_1302_ _0570_ VSS VSS VDD VDD _0584_ sky130_fd_sc_hd__buf_2
X_1303_ net3 _0862_ _0564_ VSS VSS VDD VDD _0585_ sky130_fd_sc_hd__mux2i_1
X_1304_ x\[0\] _0582_ VSS VSS VDD VDD _0586_ sky130_fd_sc_hd__nor2_1
X_1305_ _0584_ _0585_ _0586_ VSS VSS VDD VDD _0007_ sky130_fd_sc_hd__a21oi_1
X_1306_ _0744_ _0872_ VSS VSS VDD VDD _0587_ sky130_fd_sc_hd__nor2b_1
X_1307_ _0871_ _0587_ _0875_ VSS VSS VDD VDD _0588_ sky130_fd_sc_hd__o21a_1
X_1308_ _0874_ _0588_ _0878_ VSS VSS VDD VDD _0589_ sky130_fd_sc_hd__o21ai_1