
* cell dual_clock_fifo
* pin wr_data[1]
* pin wr_data[0]
* pin wr_data[3]
* pin wr_data[2]
* pin wr_data[4]
* pin wr_data[5]
* pin wr_en
* pin almost_full
* pin PWELL
* pin NWELL
* pin wr_rst_n
* pin full
* pin rd_clk
* pin rd_rst_n
* pin wr_data[6]
* pin wr_data[7]
* pin almost_empty
* pin empty
* pin fifo_count[4]
* pin rd_en
* pin fifo_count[3]
* pin fifo_count[2]
* pin fifo_count[0]
* pin fifo_count[1]
* pin rd_data[7]
* pin wr_clk
* pin rd_data[6]
* pin rd_data[3]
* pin rd_data[2]
* pin rd_data[1]
* pin rd_data[4]
* pin rd_data[5]
* pin rd_data[0]
.SUBCKT dual_clock_fifo 1 2 3 4 5 6 7 8 13 22 46 247 265 278 313 328 363 366
+ 375 396 397 429 430 450 458 671 699 700 701 702 703 704 705
* net 1 wr_data[1]
* net 2 wr_data[0]
* net 3 wr_data[3]
* net 4 wr_data[2]
* net 5 wr_data[4]
* net 6 wr_data[5]
* net 7 wr_en
* net 8 almost_full
* net 13 PWELL
* net 22 NWELL
* net 46 wr_rst_n
* net 247 full
* net 265 rd_clk
* net 278 rd_rst_n
* net 313 wr_data[6]
* net 328 wr_data[7]
* net 363 almost_empty
* net 366 empty
* net 375 fifo_count[4]
* net 396 rd_en
* net 397 fifo_count[3]
* net 429 fifo_count[2]
* net 430 fifo_count[0]
* net 450 fifo_count[1]
* net 458 rd_data[7]
* net 671 wr_clk
* net 699 rd_data[6]
* net 700 rd_data[3]
* net 701 rd_data[2]
* net 702 rd_data[1]
* net 703 rd_data[4]
* net 704 rd_data[5]
* net 705 rd_data[0]
* cell instance $2 r0 *1 7.22,1.4
X$2 1 13 22 25 CLKBUF_X2
* cell instance $8 r0 *1 12.92,1.4
X$8 2 13 22 52 BUF_X1
* cell instance $17 r0 *1 18.05,1.4
X$17 3 13 22 14 BUF_X1
* cell instance $20 r0 *1 23.18,1.4
X$20 4 13 22 17 CLKBUF_X2
* cell instance $29 r0 *1 27.17,1.4
X$29 5 13 22 10 BUF_X1
* cell instance $32 r0 *1 31.16,1.4
X$32 6 13 22 44 BUF_X1
* cell instance $39 m0 *1 38.95,4.2
X$39 7 13 22 34 CLKBUF_X2
* cell instance $43 r0 *1 44.84,1.4
X$43 12 13 22 8 BUF_X1
* cell instance $51 m0 *1 29.07,7
X$51 9 55 43 13 22 153 MUX2_X1
* cell instance $53 r0 *1 27.74,1.4
X$53 9 36 10 13 22 24 MUX2_X1
* cell instance $56 r0 *1 23.94,1.4
X$56 13 9 24 16 22 DFF_X1
* cell instance $66 r0 *1 29.83,4.2
X$66 10 42 43 13 22 51 MUX2_X1
* cell instance $69 r0 *1 29.83,9.8
X$69 10 76 90 13 22 99 MUX2_X1
* cell instance $71 m0 *1 27.74,18.2
X$71 10 88 228 13 22 239 MUX2_X1
* cell instance $73 m0 *1 26.79,15.4
X$73 10 146 176 13 22 170 MUX2_X1
* cell instance $75 r0 *1 26.6,9.8
X$75 97 77 10 13 22 119 MUX2_X1
* cell instance $79 m0 *1 29.07,18.2
X$79 10 13 22 205 BUF_X2
* cell instance $81 m0 *1 41.04,4.2
X$81 13 16 20 45 19 11 22 DFFR_X2
* cell instance $84 r0 *1 41.23,7
X$84 11 67 729 22 13 83 HA_X1
* cell instance $91 m0 *1 40.28,9.8
X$91 11 59 727 22 13 102 HA_X1
* cell instance $94 r0 *1 43.7,1.4
X$94 11 49 22 13 21 XNOR2_X1
* cell instance $96 r0 *1 43.89,9.8
X$96 11 67 104 13 22 141 NAND3_X1
* cell instance $98 m0 *1 39.71,4.2
X$98 11 18 19 13 22 20 MUX2_X1
* cell instance $100 m0 *1 44.84,12.6
X$100 139 135 118 140 13 22 12 NAND4_X1
* cell instance $102 m0 *1 18.62,15.4
X$102 14 13 22 174 BUF_X2
* cell instance $104 m0 *1 19.38,15.4
X$104 150 154 174 13 22 127 MUX2_X1
* cell instance $105 m0 *1 20.71,15.4
X$105 14 146 194 13 22 204 MUX2_X1
* cell instance $106 m0 *1 22.04,15.4
X$106 219 171 194 13 22 196 MUX2_X1
* cell instance $107 m0 *1 23.37,15.4
X$107 195 173 196 13 22 175 MUX2_X1
* cell instance $108 m0 *1 24.7,15.4
X$108 175 151 152 13 22 197 MUX2_X1
* cell instance $110 m0 *1 28.12,15.4
X$110 177 171 176 13 22 198 MUX2_X1
* cell instance $112 m0 *1 16.72,15.4
X$112 190 151 149 13 22 192 MUX2_X1
* cell instance $115 r0 *1 16.53,15.4
X$115 63 147 203 13 22 218 MUX2_X1
* cell instance $119 r0 *1 20.52,15.4
X$119 13 194 204 16 22 DFF_X1
* cell instance $124 r0 *1 26.6,15.4
X$124 13 177 214 16 22 DFF_X1
* cell instance $126 m0 *1 29.83,15.4
X$126 128 173 198 13 22 199 MUX2_X1
* cell instance $127 m0 *1 31.92,15.4
X$127 13 178 169 16 22 DFF_X1
* cell instance $129 m0 *1 35.91,15.4
X$129 129 173 193 13 22 189 MUX2_X1
* cell instance $131 r0 *1 29.83,15.4
X$131 177 215 205 13 22 214 MUX2_X1
* cell instance $132 r0 *1 31.16,15.4
X$132 13 206 225 16 22 DFF_X1
* cell instance $133 r0 *1 34.39,15.4
X$133 206 171 178 13 22 193 MUX2_X1
* cell instance $135 m0 *1 37.81,15.4
X$135 189 151 155 13 22 188 MUX2_X1
* cell instance $139 m0 *1 40.85,15.4
X$139 13 16 165 179 187 45 22 DFFR_X1
* cell instance $140 m0 *1 44.65,15.4
X$140 92 164 22 13 163 XNOR2_X1
* cell instance $143 m0 *1 47.5,15.4
X$143 157 181 22 107 13 XOR2_X2
* cell instance $144 m0 *1 49.21,15.4
X$144 133 29 22 180 13 XOR2_X2
* cell instance $145 m0 *1 50.92,15.4
X$145 13 16 182 45 735 181 22 DFFR_X2
* cell instance $150 r0 *1 40.47,15.4
X$150 104 179 22 13 207 AND2_X1
* cell instance $151 r0 *1 41.23,15.4
X$151 179 22 208 13 BUF_X4
* cell instance $152 r0 *1 42.56,15.4
X$152 208 18 164 13 22 187 MUX2_X1
* cell instance $154 r0 *1 45.41,15.4
X$154 209 18 163 13 22 212 MUX2_X1
* cell instance $155 r0 *1 46.74,15.4
X$155 13 16 717 209 212 45 22 DFFR_X1
* cell instance $156 r0 *1 50.54,15.4
X$156 181 209 22 211 13 XOR2_X2
* cell instance $159 r0 *1 52.82,15.4
X$159 13 16 722 182 210 45 22 DFFR_X1
* cell instance $166 m0 *1 9.88,54.6
X$166 13 672 684 16 22 DFF_X1
* cell instance $167 m0 *1 13.11,54.6
X$167 672 558 124 13 22 684 MUX2_X1
* cell instance $171 m0 *1 16.91,54.6
X$171 685 410 124 13 22 673 MUX2_X1
* cell instance $172 m0 *1 18.24,54.6
X$172 685 485 658 13 22 642 MUX2_X1
* cell instance $174 m0 *1 21.09,54.6
X$174 13 674 687 236 22 DFF_X1
* cell instance $175 m0 *1 24.32,54.6
X$175 674 13 22 675 INV_X1
* cell instance $177 m0 *1 24.89,54.6
X$177 13 677 676 236 22 DFF_X1
* cell instance $187 r0 *1 19.95,54.6
X$187 659 13 22 699 BUF_X1
* cell instance $190 r0 *1 21.66,54.6
X$190 674 13 22 700 BUF_X1
* cell instance $194 r0 *1 25.84,54.6
X$194 677 13 22 660 INV_X1
* cell instance $196 r0 *1 26.41,54.6
X$196 677 13 22 702 BUF_X1
* cell instance $198 r0 *1 27.36,54.6
X$198 690 13 22 701 BUF_X1
* cell instance $201 m0 *1 28.5,54.6
X$201 13 690 670 236 22 DFF_X1
* cell instance $204 r0 *1 29.26,54.6
X$204 678 13 22 703 BUF_X1
* cell instance $205 r0 *1 29.83,54.6
X$205 661 13 22 705 BUF_X1
* cell instance $208 r0 *1 31.54,54.6
X$208 679 13 22 704 BUF_X1
* cell instance $209 m0 *1 35.34,54.6
X$209 13 679 697 236 22 DFF_X1
* cell instance $210 m0 *1 32.11,54.6
X$210 13 678 692 236 22 DFF_X1
* cell instance $215 r0 *1 33.06,54.6
X$215 678 13 22 696 INV_X1
* cell instance $218 r0 *1 35.72,54.6
X$218 679 13 22 695 INV_X1
* cell instance $220 m0 *1 39.9,54.6
X$220 664 558 205 13 22 698 MUX2_X1
* cell instance $226 m0 *1 45.22,54.6
X$226 13 680 686 16 22 DFF_X1
* cell instance $227 m0 *1 43.89,54.6
X$227 680 410 205 13 22 686 MUX2_X1
* cell instance $241 m0 *1 8.17,51.8
X$241 13 641 640 16 22 DFF_X1
* cell instance $242 m0 *1 11.4,51.8
X$242 13 683 682 16 22 DFF_X1
* cell instance $247 r0 *1 2.09,51.8
X$247 13 671 16 22 BUF_X16
* cell instance $254 r0 *1 8.93,51.8
X$254 13 651 681 16 22 DFF_X1
* cell instance $256 r0 *1 12.54,51.8
X$256 683 324 124 13 22 682 MUX2_X1
* cell instance $259 r0 *1 15.01,51.8
X$259 683 485 672 13 22 653 MUX2_X1
* cell instance $260 m0 *1 15.96,51.8
X$260 13 658 667 16 22 DFF_X1
* cell instance $262 m0 *1 19.19,51.8
X$262 658 578 124 13 22 667 MUX2_X1
* cell instance $266 r0 *1 16.53,51.8
X$266 13 685 673 16 22 DFF_X1
* cell instance $269 r0 *1 20.33,51.8
X$269 659 13 22 688 INV_X1
* cell instance $270 r0 *1 20.71,51.8
X$270 13 659 643 236 22 DFF_X1
* cell instance $272 m0 *1 21.66,51.8
X$272 538 688 490 13 643 22 AOI21_X1
* cell instance $273 m0 *1 23.18,51.8
X$273 13 645 644 16 22 DFF_X1
* cell instance $276 m0 *1 27.36,51.8
X$276 557 689 490 13 691 22 AOI21_X1
* cell instance $280 r0 *1 24.32,51.8
X$280 568 675 490 13 687 22 AOI21_X1
* cell instance $283 r0 *1 25.65,51.8
X$283 611 660 490 13 676 22 AOI21_X1
* cell instance $286 r0 *1 26.98,51.8
X$286 13 661 691 236 22 DFF_X1
* cell instance $288 m0 *1 30.02,51.8
X$288 13 634 669 16 22 DFF_X1
* cell instance $290 r0 *1 30.21,51.8
X$290 661 13 22 689 INV_X1
* cell instance $292 r0 *1 30.97,51.8
X$292 690 13 22 694 INV_X1
* cell instance $293 r0 *1 31.35,51.8
X$293 693 694 490 13 670 22 AOI21_X1
* cell instance $296 r0 *1 33.25,51.8
X$296 569 696 490 13 692 22 AOI21_X1
* cell instance $298 m0 *1 38.38,51.8
X$298 662 324 205 13 22 668 MUX2_X1
* cell instance $299 m0 *1 35.15,51.8
X$299 13 662 668 16 22 DFF_X1
* cell instance $300 m0 *1 39.71,51.8
X$300 663 571 647 13 22 638 MUX2_X1
* cell instance $301 m0 *1 41.04,51.8
X$301 13 663 666 16 22 DFF_X1
* cell instance $303 m0 *1 44.46,51.8
X$303 13 648 665 16 22 DFF_X1
* cell instance $309 r0 *1 35.91,51.8
X$309 584 695 490 13 697 22 AOI21_X1
* cell instance $312 r0 *1 37.24,51.8
X$312 662 485 664 13 22 646 MUX2_X1
* cell instance $313 r0 *1 38.57,51.8
X$313 13 664 698 16 22 DFF_X1
* cell instance $315 r0 *1 42.18,51.8
X$315 663 410 144 13 22 666 MUX2_X1
* cell instance $318 r0 *1 44.08,51.8
X$318 648 578 205 13 22 665 MUX2_X1
* cell instance $335 r0 *1 3.8,40.6
X$335 13 526 552 16 22 DFF_X1
* cell instance $336 r0 *1 7.03,40.6
X$336 526 355 216 13 22 552 MUX2_X1
* cell instance $338 m0 *1 7.79,40.6
X$338 13 527 536 16 22 DFF_X1
* cell instance $340 r0 *1 8.36,40.6
X$340 527 414 216 13 22 536 MUX2_X1
* cell instance $341 r0 *1 9.69,40.6
X$341 526 415 527 13 22 537 MUX2_X1
* cell instance $344 m0 *1 12.92,40.6
X$344 13 487 486 16 22 DFF_X1
* cell instance $347 m0 *1 18.62,40.6
X$347 462 502 13 22 528 NOR2_X1
* cell instance $348 m0 *1 19.19,40.6
X$348 488 528 529 13 22 555 NOR3_X1
* cell instance $349 m0 *1 19.95,40.6
X$349 489 542 497 529 339 13 22 510 AOI221_X1
* cell instance $350 m0 *1 21.09,40.6
X$350 580 507 497 529 342 538 22 13 AOI221_X2
* cell instance $351 m0 *1 23.18,40.6
X$351 510 508 490 13 511 22 AOI21_X1
* cell instance $352 m0 *1 23.94,40.6
X$352 537 462 13 22 513 NOR2_X1
* cell instance $356 r0 *1 17.29,40.6
X$356 13 543 553 16 22 DFF_X1
* cell instance $357 r0 *1 20.52,40.6
X$357 545 555 496 529 192 557 22 13 AOI221_X2
* cell instance $361 r0 *1 25.08,40.6
X$361 546 530 496 529 238 611 22 13 AOI221_X2
* cell instance $363 m0 *1 25.65,40.6
X$363 492 513 464 13 22 530 NOR3_X1
* cell instance $364 m0 *1 26.6,40.6
X$364 13 514 493 16 22 DFF_X1
* cell instance $368 r0 *1 28.12,40.6
X$368 13 494 562 16 22 DFF_X1
* cell instance $370 m0 *1 30.21,40.6
X$370 494 355 296 13 22 562 MUX2_X1
* cell instance $371 m0 *1 31.73,40.6
X$371 516 462 13 22 561 NOR2_X1
* cell instance $373 m0 *1 32.49,40.6
X$373 13 531 519 16 22 DFF_X1
* cell instance $375 m0 *1 35.91,40.6
X$375 532 462 13 22 522 NOR2_X1
* cell instance $377 m0 *1 36.67,40.6
X$377 495 355 205 13 22 520 MUX2_X1
* cell instance $378 m0 *1 38,40.6
X$378 469 525 464 13 22 559 NOR3_X1
* cell instance $381 r0 *1 31.73,40.6
X$381 467 561 464 13 22 547 NOR3_X1
* cell instance $383 r0 *1 32.68,40.6
X$383 531 414 205 13 22 519 MUX2_X1
* cell instance $385 r0 *1 34.39,40.6
X$385 495 415 531 13 22 532 MUX2_X1
* cell instance $387 r0 *1 35.91,40.6
X$387 147 151 549 13 22 NOR2_X4
* cell instance $389 r0 *1 37.81,40.6
X$389 471 13 22 151 INV_X4
* cell instance $390 r0 *1 38.76,40.6
X$390 309 22 558 13 BUF_X4
* cell instance $391 m0 *1 39.33,40.6
X$391 521 355 144 13 22 523 MUX2_X1
* cell instance $394 m0 *1 40.85,40.6
X$394 470 414 144 13 22 482 MUX2_X1
* cell instance $397 r0 *1 40.28,40.6
X$397 374 22 578 13 BUF_X4
* cell instance $400 r0 *1 42.18,40.6
X$400 464 22 529 13 BUF_X4
* cell instance $401 m0 *1 43.89,40.6
X$401 13 236 515 480 518 245 22 DFFR_X1
* cell instance $402 m0 *1 42.56,40.6
X$402 515 490 444 13 22 518 MUX2_X1
* cell instance $408 r0 *1 44.84,40.6
X$408 445 490 147 13 22 535 MUX2_X1
* cell instance $411 m0 *1 48.83,40.6
X$411 480 472 445 22 13 579 HA_X1
* cell instance $412 m0 *1 52.25,40.6
X$412 454 13 22 534 INV_X1
* cell instance $413 m0 *1 52.63,40.6
X$413 499 505 534 13 500 22 AOI21_X1
* cell instance $418 r0 *1 49.78,40.6
X$418 445 550 13 22 533 XOR2_X1
* cell instance $419 r0 *1 50.92,40.6
X$419 533 496 112 13 22 551 MUX2_X1
* cell instance $422 r0 *1 52.82,40.6
X$422 13 236 723 112 551 245 22 DFFR_X1
* cell instance $447 r0 *1 3.04,9.8
X$447 13 86 109 16 22 DFF_X1
* cell instance $448 r0 *1 6.27,9.8
X$448 25 76 86 13 22 109 MUX2_X1
* cell instance $450 m0 *1 11.02,9.8
X$450 52 76 75 13 22 82 MUX2_X1
* cell instance $451 m0 *1 7.79,9.8
X$451 13 75 82 16 22 DFF_X1
* cell instance $453 m0 *1 18.43,9.8
X$453 84 77 14 13 22 54 MUX2_X1
* cell instance $454 m0 *1 19.76,9.8
X$454 14 76 65 13 22 64 MUX2_X1
* cell instance $458 r0 *1 8.55,9.8
X$458 111 77 52 13 22 96 MUX2_X1
* cell instance $459 r0 *1 9.88,9.8
X$459 111 89 75 13 22 114 MUX2_X1
* cell instance $462 r0 *1 12.16,9.8
X$462 52 88 87 13 22 115 MUX2_X1
* cell instance $463 r0 *1 13.49,9.8
X$463 13 87 115 16 22 DFF_X1
* cell instance $466 r0 *1 20.52,9.8
X$466 14 88 98 13 22 117 MUX2_X1
* cell instance $468 m0 *1 22.42,9.8
X$468 84 89 65 13 22 195 MUX2_X1
* cell instance $473 m0 *1 26.22,9.8
X$473 13 97 119 16 22 DFF_X1
* cell instance $477 m0 *1 33.44,9.8
X$477 78 77 44 13 22 85 MUX2_X1
* cell instance $478 m0 *1 34.77,9.8
X$478 78 89 79 13 22 129 MUX2_X1
* cell instance $479 m0 *1 36.1,9.8
X$479 44 76 79 13 22 66 MUX2_X1
* cell instance $487 r0 *1 28.5,9.8
X$487 97 89 90 13 22 128 MUX2_X1
* cell instance $491 r0 *1 32.49,9.8
X$491 44 88 101 13 22 120 MUX2_X1
* cell instance $493 r0 *1 34.2,9.8
X$493 13 101 120 16 22 DFF_X1
* cell instance $497 m0 *1 42.94,9.8
X$497 83 13 22 91 BUF_X2
* cell instance $501 r0 *1 40.47,9.8
X$501 121 92 130 22 142 13 OAI21_X1
* cell instance $504 r0 *1 42.18,9.8
X$504 103 91 22 92 13 XOR2_X2
* cell instance $508 r0 *1 45.98,9.8
X$508 105 80 22 13 118 XNOR2_X1
* cell instance $509 m0 *1 46.36,9.8
X$509 106 81 22 13 70 XNOR2_X1
* cell instance $510 m0 *1 47.5,9.8
X$510 13 95 80 706 81 67 22 FA_X1
* cell instance $511 m0 *1 50.54,9.8
X$511 67 81 113 22 13 94 HA_X1
* cell instance $516 r0 *1 47.5,9.8
X$516 93 105 80 13 136 22 AOI21_X1
* cell instance $519 r0 *1 48.83,9.8
X$519 93 13 22 108 INV_X1
* cell instance $522 r0 *1 50.35,9.8
X$522 94 95 113 13 134 22 AOI21_X1
* cell instance $525 r0 *1 52.06,9.8
X$525 13 16 718 110 112 45 22 DFFR_X1
* cell instance $542 r0 *1 7.03,7
X$542 13 111 96 16 22 DFF_X1
* cell instance $544 m0 *1 12.92,7
X$544 52 42 40 13 22 53 MUX2_X1
* cell instance $545 m0 *1 11.59,7
X$545 58 36 52 13 22 72 MUX2_X1
* cell instance $547 m0 *1 15.77,7
X$547 31 55 39 13 22 63 MUX2_X1
* cell instance $551 r0 *1 11.97,7
X$551 13 58 72 16 22 DFF_X1
* cell instance $552 r0 *1 15.2,7
X$552 58 55 40 13 22 126 MUX2_X1
* cell instance $555 m0 *1 19,7
X$555 13 84 54 16 22 DFF_X1
* cell instance $558 r0 *1 19.57,7
X$558 13 65 64 16 22 DFF_X1
* cell instance $561 m0 *1 24.89,7
X$561 13 62 38 16 22 DFF_X1
* cell instance $566 m0 *1 38.76,7
X$566 67 18 49 13 22 56 MUX2_X1
* cell instance $567 m0 *1 40.09,7
X$567 19 59 49 22 13 73 HA_X1
* cell instance $572 r0 *1 27.74,7
X$572 62 55 28 13 22 74 MUX2_X1
* cell instance $574 r0 *1 32.11,7
X$574 13 78 85 16 22 DFF_X1
* cell instance $575 r0 *1 35.34,7
X$575 13 79 66 16 22 DFF_X1
* cell instance $577 r0 *1 39.33,7
X$577 19 67 730 22 13 68 HA_X1
* cell instance $579 m0 *1 45.22,7
X$579 13 16 57 45 731 69 22 DFFR_X2
* cell instance $580 m0 *1 43.89,7
X$580 69 18 21 13 22 57 MUX2_X1
* cell instance $586 r0 *1 46.74,7
X$586 19 70 728 22 13 71 HA_X1
* cell instance $587 r0 *1 48.64,7
X$587 71 13 22 95 INV_X1
* cell instance $597 m0 *1 12.16,4.2
X$597 31 36 25 13 22 32 MUX2_X1
* cell instance $598 m0 *1 13.49,4.2
X$598 13 31 32 16 22 DFF_X1
* cell instance $600 m0 *1 16.91,4.2
X$600 13 26 33 16 22 DFF_X1
* cell instance $601 m0 *1 20.14,4.2
X$601 13 41 15 16 22 DFF_X1
* cell instance $603 m0 *1 23.56,4.2
X$603 13 28 27 16 22 DFF_X1
* cell instance $604 m0 *1 26.79,4.2
X$604 62 36 17 13 22 38 MUX2_X1
* cell instance $607 m0 *1 32.68,4.2
X$607 13 50 37 16 22 DFF_X1
* cell instance $610 m0 *1 45.41,4.2
X$610 13 16 710 29 30 45 22 DFFR_X1
* cell instance $619 r0 *1 8.36,4.2
X$619 13 39 47 16 22 DFF_X1
* cell instance $620 r0 *1 11.59,4.2
X$620 25 42 39 13 22 47 MUX2_X1
* cell instance $621 r0 *1 12.92,4.2
X$621 13 40 53 16 22 DFF_X1
* cell instance $625 r0 *1 18.62,4.2
X$625 26 36 14 13 22 33 MUX2_X1
* cell instance $626 r0 *1 19.95,4.2
X$626 14 42 41 13 22 15 MUX2_X1
* cell instance $627 r0 *1 21.28,4.2
X$627 26 55 41 13 22 60 MUX2_X1
* cell instance $631 r0 *1 23.94,4.2
X$631 17 42 28 13 22 27 MUX2_X1
* cell instance $635 r0 *1 26.6,4.2
X$635 13 43 51 16 22 DFF_X1
* cell instance $638 r0 *1 32.3,4.2
X$638 44 42 50 13 22 37 MUX2_X1
* cell instance $639 r0 *1 33.63,4.2
X$639 23 36 44 13 22 35 MUX2_X1
* cell instance $640 r0 *1 34.96,4.2
X$640 23 55 50 13 22 61 MUX2_X1
* cell instance $645 r0 *1 39.14,4.2
X$645 13 16 56 45 59 67 22 DFFR_X2
* cell instance $646 r0 *1 43.32,4.2
X$646 49 92 22 13 48 XNOR2_X1
* cell instance $648 r0 *1 44.84,4.2
X$648 29 18 48 13 22 30 MUX2_X1
* cell instance $651 r0 *1 55.29,4.2
X$651 46 22 45 13 BUF_X4
* cell instance $662 m0 *1 9.88,46.2
X$662 599 558 314 13 22 603 MUX2_X1
* cell instance $671 r0 *1 7.6,46.2
X$671 13 599 603 16 22 DFF_X1
* cell instance $672 r0 *1 10.83,46.2
X$672 607 324 314 13 22 614 MUX2_X1
* cell instance $674 r0 *1 12.35,46.2
X$674 607 485 599 13 22 618 MUX2_X1
* cell instance $675 m0 *1 13.3,46.2
X$675 13 576 592 16 22 DFF_X1
* cell instance $682 r0 *1 16.15,46.2
X$682 13 609 608 16 22 DFF_X1
* cell instance $684 m0 *1 17.67,46.2
X$684 13 565 594 16 22 DFF_X1
* cell instance $687 r0 *1 19.57,46.2
X$687 618 540 13 22 605 NOR2_X1
* cell instance $689 r0 *1 20.52,46.2
X$689 605 549 620 13 580 22 AOI21_X1
* cell instance $690 r0 *1 21.28,46.2
X$690 610 13 22 620 INV_X1
* cell instance $692 m0 *1 22.99,46.2
X$692 585 410 174 13 22 596 MUX2_X1
* cell instance $694 m0 *1 24.32,46.2
X$694 13 585 596 16 22 DFF_X1
* cell instance $696 m0 *1 27.74,46.2
X$696 585 571 600 13 22 586 MUX2_X1
* cell instance $700 r0 *1 23.75,46.2
X$700 600 578 174 13 22 625 MUX2_X1
* cell instance $701 r0 *1 25.08,46.2
X$701 13 600 625 16 22 DFF_X1
* cell instance $704 m0 *1 29.45,46.2
X$704 13 628 606 16 22 DFF_X1
* cell instance $705 m0 *1 32.87,46.2
X$705 597 558 296 13 22 598 MUX2_X1
* cell instance $708 m0 *1 36.48,46.2
X$708 624 485 587 13 22 588 MUX2_X1
* cell instance $709 m0 *1 37.81,46.2
X$709 588 540 13 22 601 NOR2_X1
* cell instance $710 m0 *1 38.38,46.2
X$710 13 587 604 16 22 DFF_X1
* cell instance $716 r0 *1 30.97,46.2
X$716 628 324 296 13 22 606 MUX2_X1
* cell instance $717 r0 *1 32.3,46.2
X$717 628 485 597 13 22 629 MUX2_X1
* cell instance $718 r0 *1 33.63,46.2
X$718 629 540 13 22 630 NOR2_X1
* cell instance $720 r0 *1 34.58,46.2
X$720 630 549 632 13 583 22 AOI21_X1
* cell instance $721 r0 *1 35.34,46.2
X$721 636 13 22 632 INV_X1
* cell instance $724 r0 *1 36.29,46.2
X$724 587 558 144 13 22 604 MUX2_X1
* cell instance $725 r0 *1 37.62,46.2
X$725 601 549 623 13 589 22 AOI21_X1
* cell instance $729 r0 *1 40.47,46.2
X$729 638 13 22 623 INV_X1
* cell instance $731 m0 *1 45.6,46.2
X$731 13 236 593 245 498 590 22 DFFR_X2
* cell instance $732 m0 *1 44.27,46.2
X$732 496 22 490 13 BUF_X4
* cell instance $736 m0 *1 52.25,46.2
X$736 591 496 210 13 22 616 MUX2_X1
* cell instance $741 r0 *1 48.07,46.2
X$741 572 496 13 22 621 NOR2_X1
* cell instance $743 r0 *1 48.83,46.2
X$743 348 572 13 22 619 XOR2_X1
* cell instance $745 r0 *1 50.16,46.2
X$745 570 619 22 13 602 XNOR2_X1
* cell instance $746 r0 *1 51.3,46.2
X$746 602 496 292 13 22 615 MUX2_X1
* cell instance $748 r0 *1 52.82,46.2
X$748 13 236 616 245 740 210 22 DFFR_X2
* cell instance $751 m0 *1 6.84,15.4
X$751 200 171 172 13 22 201 MUX2_X1
* cell instance $752 m0 *1 5.51,15.4
X$752 25 146 172 13 22 183 MUX2_X1
* cell instance $755 m0 *1 9.88,15.4
X$755 184 215 124 13 22 185 MUX2_X1
* cell instance $756 m0 *1 11.21,15.4
X$756 184 171 137 13 22 186 MUX2_X1
* cell instance $757 m0 *1 12.54,15.4
X$757 114 173 186 13 22 190 MUX2_X1
* cell instance $770 r0 *1 4.37,15.4
X$770 13 172 183 16 22 DFF_X1
* cell instance $771 r0 *1 7.6,15.4
X$771 145 173 201 13 22 191 MUX2_X1
* cell instance $773 r0 *1 9.69,15.4
X$773 13 184 185 16 22 DFF_X1
* cell instance $774 r0 *1 12.92,15.4
X$774 13 202 213 16 22 DFF_X1
* cell instance $776 m0 *1 6.46,18.2
X$776 200 215 216 13 22 223 MUX2_X1
* cell instance $777 m0 *1 3.23,18.2
X$777 13 200 223 16 22 DFF_X1
* cell instance $779 m0 *1 8.55,18.2
X$779 25 13 22 216 BUF_X2
* cell instance $783 m0 *1 11.78,18.2
X$783 25 88 202 13 22 213 MUX2_X1
* cell instance $784 m0 *1 13.11,18.2
X$784 13 217 237 16 22 DFF_X1
* cell instance $787 m0 *1 17.29,18.2
X$787 191 151 218 13 22 238 MUX2_X1
* cell instance $788 m0 *1 18.62,18.2
X$788 13 219 226 16 22 DFF_X1
* cell instance $789 m0 *1 21.85,18.2
X$789 219 215 174 13 22 226 MUX2_X1
* cell instance $792 m0 *1 29.83,18.2
X$792 220 55 228 13 22 227 MUX2_X1
* cell instance $793 m0 *1 31.16,18.2
X$793 153 147 227 13 22 229 MUX2_X1
* cell instance $796 m0 *1 34.2,18.2
X$796 206 215 144 13 22 225 MUX2_X1
* cell instance $797 m0 *1 35.53,18.2
X$797 224 13 22 77 CLKBUF_X3
* cell instance $799 m0 *1 36.67,18.2
X$799 208 102 140 221 22 13 224 AND4_X1
* cell instance $813 r0 *1 5.32,18.2
X$813 253 76 254 13 22 248 MUX2_X1
* cell instance $816 r0 *1 14.25,18.2
X$816 217 154 216 13 22 237 MUX2_X1
* cell instance $817 r0 *1 15.58,18.2
X$817 217 148 202 13 22 203 MUX2_X1
* cell instance $822 r0 *1 26.98,18.2
X$822 13 228 239 16 22 DFF_X1
* cell instance $824 r0 *1 30.4,18.2
X$824 220 154 205 13 22 252 MUX2_X1
* cell instance $825 r0 *1 31.73,18.2
X$825 199 151 229 13 22 230 MUX2_X1
* cell instance $828 r0 *1 36.86,18.2
X$828 208 91 140 221 22 13 251 AND4_X1
* cell instance $830 r0 *1 38.19,18.2
X$830 18 102 240 13 76 22 NAND3_X4
* cell instance $832 m0 *1 40.66,18.2
X$832 104 231 13 22 221 NOR2_X1
* cell instance $833 m0 *1 41.23,18.2
X$833 34 13 22 231 INV_X1
* cell instance $835 m0 *1 43.13,18.2
X$835 164 232 22 13 249 XNOR2_X1
* cell instance $838 m0 *1 45.98,18.2
X$838 106 69 22 222 13 XOR2_X2
* cell instance $841 m0 *1 48.64,18.2
X$841 13 180 211 244 234 22 NOR3_X4
* cell instance $847 r0 *1 40.85,18.2
X$847 207 22 240 13 BUF_X4
* cell instance $849 r0 *1 42.37,18.2
X$849 13 241 231 233 234 22 AOI21_X4
* cell instance $851 r0 *1 45.03,18.2
X$851 233 234 13 22 140 NAND2_X2
* cell instance $853 r0 *1 46.17,18.2
X$853 222 162 13 22 233 NOR2_X2
* cell instance $857 r0 *1 48.45,18.2
X$857 263 235 13 22 157 XNOR2_X2
* cell instance $858 r0 *1 50.35,18.2
X$858 13 236 716 246 209 245 22 DFFR_X1
* cell instance $865 m0 *1 2.66,21
X$865 13 254 248 16 22 DFF_X1
* cell instance $868 m0 *1 6.65,21
X$868 257 76 272 13 22 255 MUX2_X1
* cell instance $871 m0 *1 10.26,21
X$871 13 256 267 16 22 DFF_X1
* cell instance $872 m0 *1 13.49,21
X$872 256 36 257 13 22 267 MUX2_X1
* cell instance $882 r0 *1 1.52,21
X$882 13 271 280 16 22 DFF_X1
* cell instance $887 r0 *1 5.13,21
X$887 270 77 253 13 22 266 MUX2_X1
* cell instance $889 r0 *1 6.84,21
X$889 13 272 255 16 22 DFF_X1
* cell instance $891 r0 *1 10.45,21
X$891 13 274 282 16 22 DFF_X1
* cell instance $892 r0 *1 13.68,21
X$892 257 42 274 13 22 282 MUX2_X1
* cell instance $894 r0 *1 15.77,21
X$894 253 42 275 13 22 283 MUX2_X1
* cell instance $897 r0 *1 17.67,21
X$897 276 36 253 13 22 284 MUX2_X1
* cell instance $898 r0 *1 19,21
X$898 13 276 284 16 22 DFF_X1
* cell instance $901 r0 *1 22.8,21
X$901 13 259 258 16 22 DFF_X1
* cell instance $902 m0 *1 24.89,21
X$902 17 76 260 13 22 269 MUX2_X1
* cell instance $903 m0 *1 23.56,21
X$903 259 77 17 13 22 258 MUX2_X1
* cell instance $904 m0 *1 26.22,21
X$904 13 260 269 16 22 DFF_X1
* cell instance $906 r0 *1 26.03,21
X$906 259 89 260 13 22 295 MUX2_X1
* cell instance $909 m0 *1 29.83,21
X$909 13 220 252 16 22 DFF_X1
* cell instance $911 m0 *1 34.01,21
X$911 251 13 22 215 CLKBUF_X3
* cell instance $912 m0 *1 34.96,21
X$912 268 13 22 154 CLKBUF_X3
* cell instance $914 m0 *1 36.1,21
X$914 208 68 140 221 22 13 268 AND4_X1
* cell instance $915 m0 *1 37.24,21
X$915 18 73 240 13 42 22 NAND3_X4
* cell instance $916 m0 *1 39.71,21
X$916 241 22 18 13 BUF_X4
* cell instance $917 m0 *1 41.04,21
X$917 240 91 13 22 250 NAND2_X1
* cell instance $919 m0 *1 42.37,21
X$919 242 250 13 22 232 XOR2_X1
* cell instance $921 m0 *1 43.7,21
X$921 243 18 249 13 22 261 MUX2_X1
* cell instance $925 r0 *1 33.82,21
X$925 287 13 22 36 CLKBUF_X3
* cell instance $928 r0 *1 37.05,21
X$928 208 73 140 221 22 13 287 AND4_X1
* cell instance $930 r0 *1 38.95,21
X$930 241 91 240 13 146 22 NAND3_X4
* cell instance $933 r0 *1 43.13,21
X$933 140 13 22 262 INV_X4
* cell instance $934 r0 *1 44.08,21
X$934 13 16 720 243 261 45 22 DFFR_X1
* cell instance $935 m0 *1 46.36,21
X$935 242 263 13 22 162 XNOR2_X2
* cell instance $939 m0 *1 49.21,21
X$939 235 243 22 244 13 XOR2_X2
* cell instance $942 r0 *1 48.26,21
X$942 13 236 725 281 29 245 22 DFFR_X1
* cell instance $943 m0 *1 51.49,21
X$943 265 22 236 13 BUF_X4
* cell instance $945 m0 *1 52.82,21
X$945 13 236 246 245 734 362 22 DFFR_X2
* cell instance $947 r0 *1 52.06,21
X$947 262 13 22 247 BUF_X1
* cell instance $949 r0 *1 52.82,21
X$949 13 16 264 45 737 235 22 DFFR_X2
* cell instance $951 m0 *1 3.42,29.4
X$951 13 329 322 16 22 DFF_X1
* cell instance $953 m0 *1 6.65,29.4
X$953 345 215 331 13 22 364 MUX2_X1
* cell instance $957 m0 *1 18.62,29.4
X$957 357 346 314 13 22 365 MUX2_X1
* cell instance $958 m0 *1 19.95,29.4
X$958 13 347 353 16 22 DFF_X1
* cell instance $959 m0 *1 23.18,29.4
X$959 347 346 174 13 22 353 MUX2_X1
* cell instance $963 m0 *1 32.87,29.4
X$963 316 22 148 13 BUF_X4
* cell instance $977 r0 *1 5.51,29.4
X$977 13 345 364 16 22 DFF_X1
* cell instance $980 r0 *1 12.54,29.4
X$980 13 370 377 16 22 DFF_X1
* cell instance $982 r0 *1 16.53,29.4
X$982 371 356 331 13 22 378 MUX2_X1
* cell instance $983 r0 *1 17.86,29.4
X$983 13 357 365 16 22 DFF_X1
* cell instance $987 r0 *1 23.75,29.4
X$987 381 356 174 13 22 373 MUX2_X1
* cell instance $992 r0 *1 32.49,29.4
X$992 13 89 22 316 BUF_X8
* cell instance $995 r0 *1 35.91,29.4
X$995 408 22 173 13 BUF_X4
* cell instance $997 m0 *1 36.86,29.4
X$997 68 13 22 333 INV_X1
* cell instance $998 r0 *1 37.24,29.4
X$998 338 22 356 13 BUF_X4
* cell instance $999 m0 *1 38,29.4
X$999 13 208 354 262 318 355 22 NOR4_X4
* cell instance $1000 m0 *1 37.62,29.4
X$1000 73 13 22 354 INV_X1
* cell instance $1001 m0 *1 41.42,29.4
X$1001 102 13 22 352 INV_X1
* cell instance $1003 m0 *1 43.32,29.4
X$1003 13 16 711 106 369 45 22 DFFR_X1
* cell instance $1004 m0 *1 47.12,29.4
X$1004 13 16 708 351 348 45 22 DFFR_X1
* cell instance $1008 r0 *1 39.52,29.4
X$1008 102 241 290 22 13 374 AND3_X1
* cell instance $1012 r0 *1 41.8,29.4
X$1012 13 16 724 369 439 45 22 DFFR_X1
* cell instance $1014 m0 *1 51.49,29.4
X$1014 358 13 22 366 BUF_X1
* cell instance $1016 m0 *1 52.06,29.4
X$1016 348 350 22 359 13 XOR2_X2
* cell instance $1017 m0 *1 53.77,29.4
X$1017 350 319 22 349 13 XOR2_X2
* cell instance $1020 r0 *1 51.68,29.4
X$1020 368 359 13 22 358 NOR2_X1
* cell instance $1021 r0 *1 52.25,29.4
X$1021 361 360 334 367 13 368 22 NAND4_X2
* cell instance $1022 r0 *1 53.96,29.4
X$1022 279 112 22 13 361 XNOR2_X1
* cell instance $1023 r0 *1 55.1,29.4
X$1023 362 210 13 22 367 XNOR2_X2
* cell instance $1025 m0 *1 32.49,35
X$1025 13 423 441 16 22 DFF_X1
* cell instance $1026 m0 *1 29.26,35
X$1026 13 419 418 16 22 DFF_X1
* cell instance $1027 m0 *1 35.72,35
X$1027 423 356 205 13 22 441 MUX2_X1
* cell instance $1028 m0 *1 37.05,35
X$1028 409 346 144 13 22 403 MUX2_X1
* cell instance $1029 m0 *1 38.38,35
X$1029 13 424 440 16 22 DFF_X1
* cell instance $1030 m0 *1 41.61,35
X$1030 408 22 147 13 BUF_X4
* cell instance $1034 m0 *1 49.97,35
X$1034 389 439 13 22 360 XNOR2_X2
* cell instance $1035 m0 *1 51.87,35
X$1035 411 426 13 22 390 XOR2_X1
* cell instance $1036 m0 *1 53.01,35
X$1036 391 411 412 13 413 22 AOI21_X1
* cell instance $1037 m0 *1 53.77,35
X$1037 279 395 13 22 425 XNOR2_X2
* cell instance $1038 m0 *1 55.67,35
X$1038 392 13 22 375 BUF_X1
* cell instance $1041 r0 *1 29.26,35
X$1041 419 356 296 13 22 418 MUX2_X1
* cell instance $1043 r0 *1 30.97,35
X$1043 380 148 419 13 22 420 MUX2_X1
* cell instance $1046 r0 *1 32.87,35
X$1046 421 346 205 13 22 387 MUX2_X1
* cell instance $1047 r0 *1 34.2,35
X$1047 421 148 423 13 22 422 MUX2_X1
* cell instance $1050 r0 *1 36.48,35
X$1050 409 148 424 13 22 484 MUX2_X1
* cell instance $1052 r0 *1 38,35
X$1052 424 356 144 13 22 440 MUX2_X1
* cell instance $1058 r0 *1 50.92,35
X$1058 425 389 22 438 13 XOR2_X2
* cell instance $1059 r0 *1 52.63,35
X$1059 425 13 22 453 INV_X1
* cell instance $1060 r0 *1 53.01,35
X$1060 427 428 473 22 412 13 OAI21_X1
* cell instance $1061 r0 *1 53.77,35
X$1061 447 395 451 22 13 452 HA_X1
* cell instance $1062 r0 *1 55.67,35
X$1062 449 474 22 13 432 AND2_X1
* cell instance $1066 m0 *1 1.9,37.8
X$1066 465 13 22 458 BUF_X1
* cell instance $1068 m0 *1 2.47,37.8
X$1068 13 459 475 16 22 DFF_X1
* cell instance $1069 m0 *1 5.7,37.8
X$1069 459 355 331 13 22 475 MUX2_X1
* cell instance $1070 m0 *1 7.03,37.8
X$1070 442 414 331 13 22 460 MUX2_X1
* cell instance $1071 m0 *1 8.36,37.8
X$1071 459 415 442 13 22 457 MUX2_X1
* cell instance $1074 m0 *1 11.4,37.8
X$1074 13 476 461 16 22 DFF_X1
* cell instance $1076 m0 *1 14.82,37.8
X$1076 13 478 456 16 22 DFF_X1
* cell instance $1078 m0 *1 18.24,37.8
X$1078 406 415 478 13 22 479 MUX2_X1
* cell instance $1079 m0 *1 19.57,37.8
X$1079 372 443 444 13 22 504 NOR3_X1
* cell instance $1080 m0 *1 20.33,37.8
X$1080 416 462 13 22 463 NOR2_X1
* cell instance $1082 m0 *1 21.09,37.8
X$1082 455 462 13 22 481 NOR2_X1
* cell instance $1083 m0 *1 21.66,37.8
X$1083 386 443 444 13 22 506 NOR3_X1
* cell instance $1095 r0 *1 7.03,37.8
X$1095 13 442 460 16 22 DFF_X1
* cell instance $1097 r0 *1 10.45,37.8
X$1097 476 355 124 13 22 461 MUX2_X1
* cell instance $1100 r0 *1 12.92,37.8
X$1100 487 414 124 13 22 486 MUX2_X1
* cell instance $1102 r0 *1 15.01,37.8
X$1102 476 485 487 13 22 502 MUX2_X1
* cell instance $1106 r0 *1 18.43,37.8
X$1106 457 462 13 22 503 NOR2_X1
* cell instance $1107 r0 *1 19,37.8
X$1107 479 443 444 13 22 488 NOR3_X1
* cell instance $1108 r0 *1 19.76,37.8
X$1108 504 503 464 13 22 489 NOR3_X1
* cell instance $1109 r0 *1 20.52,37.8