* CDL Netlist generated by OpenROAD

*.BUSDELIMITER [

.SUBCKT dual_clock_fifo almost_empty almost_full empty fifo_count[0]
+ fifo_count[1] fifo_count[2] fifo_count[3] fifo_count[4] full
+ rd_clk rd_data[0] rd_data[1] rd_data[2] rd_data[3] rd_data[4]
+ rd_data[5] rd_data[6] rd_data[7] rd_en rd_rst_n wr_clk wr_data[0]
+ wr_data[1] wr_data[2] wr_data[3] wr_data[4] wr_data[5] wr_data[6]
+ wr_data[7] wr_en wr_rst_n
X_0654_ wr_ptr_gray\[1\] rd_ptr_gray_wr_sync2\[1\] _0160_
+ VDD VSS XOR2_X2
X_0655_ wr_ptr_gray\[2\] rd_ptr_gray_wr_sync2\[2\] _0161_
+ VDD VSS XOR2_X2
X_0656_ wr_ptr_gray\[3\] rd_ptr_gray_wr_sync2\[3\] _0162_
+ VDD VSS XOR2_X2
X_0657_ _0160_ _0161_ _0162_ _0163_ VDD VSS NOR3_X4
X_0658_ wr_ptr_bin\[4\] rd_ptr_bin_wr_sync\[4\] _0164_ VDD
+ VSS XNOR2_X2
X_0659_ wr_ptr_gray\[0\] rd_ptr_gray_wr_sync2\[0\] _0165_
+ VDD VSS XOR2_X2
X_0660_ _0164_ _0165_ _0166_ VDD VSS NOR2_X2
X_0661_ _0163_ _0166_ _0167_ VDD VSS NAND2_X2
X_0662_ _0167_ net15 VDD VSS INV_X4
X_0663_ wr_ptr_bin_rd_sync\[4\] rd_ptr_bin\[4\] _0168_ VDD
+ VSS XOR2_X2
X_0664_ wr_ptr_gray_rd_sync2\[3\] rd_ptr_gray\[3\] _0169_
+ VDD VSS XNOR2_X1
X_0665_ wr_ptr_gray_rd_sync2\[0\] rd_ptr_gray\[0\] _0170_
+ VDD VSS XNOR2_X2
X_0666_ wr_ptr_gray_rd_sync2\[1\] rd_ptr_gray\[1\] _0171_
+ VDD VSS XNOR2_X1
X_0667_ wr_ptr_gray_rd_sync2\[2\] rd_ptr_gray\[2\] _0172_
+ VDD VSS XNOR2_X2
X_0668_ _0169_ _0170_ _0171_ _0172_ _0173_ VDD VSS NAND4_X2
X_0669_ _0168_ _0173_ net9 VDD VSS NOR2_X1
X_0670_ wr_ptr_gray_rd_sync2\[3\] wr_ptr_bin_rd_sync\[4\]
+ _0621_ VDD VSS XOR2_X2
X_0671_ wr_ptr_gray_rd_sync2\[2\] _0621_ _0625_ VDD VSS XOR2_X2
X_0672_ wr_ptr_gray_rd_sync2\[1\] _0625_ _0618_ VDD VSS XNOR2_X2
X_0673_ _0626_ _0174_ VDD VSS INV_X1
X_0674_ _0617_ _0175_ VDD VSS INV_X1
X_0675_ _0630_ _0175_ _0631_ _0176_ VDD VSS AOI21_X1
X_0676_ _0627_ _0177_ VDD VSS INV_X1
X_0677_ _0174_ _0176_ _0177_ _0178_ VDD VSS OAI21_X1
X_0678_ _0623_ _0178_ net13 VDD VSS XOR2_X1
X_0679_ _0653_ net10 VDD VSS INV_X1
X_0680_ _0174_ _0177_ _0619_ _0179_ VDD VSS OAI21_X1
X_0681_ _0622_ _0179_ _0623_ _0180_ VDD VSS AOI21_X1
X_0682_ _0168_ _0180_ net14 VDD VSS XOR2_X1
X_0683_ rd_ptr_bin_wr_sync\[4\] rd_ptr_gray_wr_sync2\[3\]
+ _0632_ VDD VSS XNOR2_X2
X_0684_ rd_ptr_gray_wr_sync2\[2\] _0632_ _0635_ VDD VSS XOR2_X2
X_0685_ rd_ptr_gray_wr_sync2\[1\] _0635_ _0614_ VDD VSS XOR2_X2
X_0686_ _0641_ _0613_ VDD VSS INV_X1
X_0687_ _0618_ _0629_ VDD VSS INV_X1
X_0688_ rd_ptr_gray_wr_sync2\[0\] _0614_ _0640_ VDD VSS XNOR2_X1
X_0689_ wr_ptr_gray_rd_sync2\[0\] _0618_ _0652_ VDD VSS XOR2_X2
X_0690_ wr_data[0] _0181_ VDD VSS BUF_X1
X_0691_ _0181_ _0182_ VDD VSS BUF_X2
X_0692_ wr_ptr_bin\[3\] _0183_ VDD VSS BUF_X4
X_0693_ _0645_ _0184_ VDD VSS INV_X1
X_0694_ wr_ptr_bin\[2\] _0185_ VDD VSS INV_X1
X_0695_ net5 _0185_ _0186_ VDD VSS NAND2_X4
X_0696_ _0183_ _0184_ net15 _0186_ _0187_ VDD VSS NOR4_X4
X_0697_ mem\[0\]\[0\] _0182_ _0187_ _0006_ VDD VSS MUX2_X1
X_0698_ wr_data[1] _0188_ VDD VSS CLKBUF_X2
X_0699_ _0188_ _0189_ VDD VSS BUF_X2
X_0700_ mem\[0\]\[1\] _0189_ _0187_ _0007_ VDD VSS MUX2_X1
X_0701_ wr_data[2] _0190_ VDD VSS CLKBUF_X2
X_0702_ _0190_ _0191_ VDD VSS BUF_X2
X_0703_ mem\[0\]\[2\] _0191_ _0187_ _0008_ VDD VSS MUX2_X1
X_0704_ wr_data[3] _0192_ VDD VSS BUF_X1
X_0705_ _0192_ _0193_ VDD VSS BUF_X2
X_0706_ mem\[0\]\[3\] _0193_ _0187_ _0009_ VDD VSS MUX2_X1
X_0707_ wr_data[4] _0194_ VDD VSS BUF_X1
X_0708_ _0194_ _0195_ VDD VSS BUF_X2
X_0709_ mem\[0\]\[4\] _0195_ _0187_ _0010_ VDD VSS MUX2_X1
X_0710_ wr_data[5] _0196_ VDD VSS BUF_X1
X_0711_ _0196_ _0197_ VDD VSS BUF_X2
X_0712_ mem\[0\]\[5\] _0197_ _0187_ _0011_ VDD VSS MUX2_X1
X_0713_ wr_data[6] _0198_ VDD VSS BUF_X1
X_0714_ _0198_ _0199_ VDD VSS BUF_X2
X_0715_ mem\[0\]\[6\] _0199_ _0187_ _0012_ VDD VSS MUX2_X1
X_0716_ wr_data[7] _0200_ VDD VSS BUF_X1
X_0717_ _0200_ _0201_ VDD VSS BUF_X2
X_0718_ mem\[0\]\[7\] _0201_ _0187_ _0013_ VDD VSS MUX2_X1
X_0719_ net5 _0202_ VDD VSS INV_X1
X_0720_ _0202_ wr_ptr_bin\[2\] _0203_ VDD VSS NOR2_X1
X_0721_ _0183_ _0646_ _0167_ _0203_ _0204_ VDD VSS AND4_X1
X_0722_ _0204_ _0205_ VDD VSS CLKBUF_X3
X_0723_ mem\[10\]\[0\] _0182_ _0205_ _0014_ VDD VSS MUX2_X1
X_0724_ mem\[10\]\[1\] _0189_ _0205_ _0015_ VDD VSS MUX2_X1
X_0725_ mem\[10\]\[2\] _0191_ _0205_ _0016_ VDD VSS MUX2_X1
X_0726_ mem\[10\]\[3\] _0193_ _0205_ _0017_ VDD VSS MUX2_X1
X_0727_ mem\[10\]\[4\] _0195_ _0205_ _0018_ VDD VSS MUX2_X1
X_0728_ mem\[10\]\[5\] _0197_ _0205_ _0019_ VDD VSS MUX2_X1
X_0729_ mem\[10\]\[6\] _0199_ _0205_ _0020_ VDD VSS MUX2_X1
X_0730_ mem\[10\]\[7\] _0201_ _0205_ _0021_ VDD VSS MUX2_X1
X_0731_ _0650_ _0206_ VDD VSS BUF_X2
X_0732_ _0183_ _0206_ _0167_ _0203_ _0207_ VDD VSS AND4_X1
X_0733_ _0207_ _0208_ VDD VSS CLKBUF_X3
X_0734_ mem\[11\]\[0\] _0182_ _0208_ _0022_ VDD VSS MUX2_X1
X_0735_ mem\[11\]\[1\] _0189_ _0208_ _0023_ VDD VSS MUX2_X1
X_0736_ mem\[11\]\[2\] _0191_ _0208_ _0024_ VDD VSS MUX2_X1
X_0737_ mem\[11\]\[3\] _0193_ _0208_ _0025_ VDD VSS MUX2_X1
X_0738_ mem\[11\]\[4\] _0195_ _0208_ _0026_ VDD VSS MUX2_X1
X_0739_ mem\[11\]\[5\] _0197_ _0208_ _0027_ VDD VSS MUX2_X1
X_0740_ mem\[11\]\[6\] _0199_ _0208_ _0028_ VDD VSS MUX2_X1
X_0741_ mem\[11\]\[7\] _0201_ _0208_ _0029_ VDD VSS MUX2_X1
X_0742_ _0202_ _0163_ _0166_ _0209_ VDD VSS AOI21_X4
X_0743_ _0209_ _0210_ VDD VSS BUF_X4
X_0744_ wr_ptr_bin\[2\] wr_ptr_bin\[3\] _0211_ VDD VSS AND2_X1
X_0745_ _0211_ _0212_ VDD VSS BUF_X4
X_0746_ _0645_ _0210_ _0212_ _0213_ VDD VSS NAND3_X4
X_0747_ _0181_ mem\[12\]\[0\] _0213_ _0030_ VDD VSS MUX2_X1
X_0748_ _0188_ mem\[12\]\[1\] _0213_ _0031_ VDD VSS MUX2_X1
X_0749_ _0190_ mem\[12\]\[2\] _0213_ _0032_ VDD VSS MUX2_X1
X_0750_ _0192_ mem\[12\]\[3\] _0213_ _0033_ VDD VSS MUX2_X1
X_0751_ _0194_ mem\[12\]\[4\] _0213_ _0034_ VDD VSS MUX2_X1
X_0752_ _0196_ mem\[12\]\[5\] _0213_ _0035_ VDD VSS MUX2_X1
X_0753_ _0198_ mem\[12\]\[6\] _0213_ _0036_ VDD VSS MUX2_X1
X_0754_ _0200_ mem\[12\]\[7\] _0213_ _0037_ VDD VSS MUX2_X1
X_0755_ _0648_ _0210_ _0212_ _0214_ VDD VSS NAND3_X4
X_0756_ _0181_ mem\[13\]\[0\] _0214_ _0038_ VDD VSS MUX2_X1
X_0757_ _0188_ mem\[13\]\[1\] _0214_ _0039_ VDD VSS MUX2_X1
X_0758_ _0190_ mem\[13\]\[2\] _0214_ _0040_ VDD VSS MUX2_X1
X_0759_ _0192_ mem\[13\]\[3\] _0214_ _0041_ VDD VSS MUX2_X1
X_0760_ _0194_ mem\[13\]\[4\] _0214_ _0042_ VDD VSS MUX2_X1
X_0761_ _0196_ mem\[13\]\[5\] _0214_ _0043_ VDD VSS MUX2_X1
X_0762_ _0198_ mem\[13\]\[6\] _0214_ _0044_ VDD VSS MUX2_X1
X_0763_ _0200_ mem\[13\]\[7\] _0214_ _0045_ VDD VSS MUX2_X1
X_0764_ _0646_ _0209_ _0212_ _0215_ VDD VSS NAND3_X4
X_0765_ _0181_ mem\[14\]\[0\] _0215_ _0046_ VDD VSS MUX2_X1
X_0766_ _0188_ mem\[14\]\[1\] _0215_ _0047_ VDD VSS MUX2_X1
X_0767_ _0190_ mem\[14\]\[2\] _0215_ _0048_ VDD VSS MUX2_X1
X_0768_ _0192_ mem\[14\]\[3\] _0215_ _0049_ VDD VSS MUX2_X1
X_0769_ _0194_ mem\[14\]\[4\] _0215_ _0050_ VDD VSS MUX2_X1
X_0770_ _0196_ mem\[14\]\[5\] _0215_ _0051_ VDD VSS MUX2_X1
X_0771_ _0198_ mem\[14\]\[6\] _0215_ _0052_ VDD VSS MUX2_X1
X_0772_ _0200_ mem\[14\]\[7\] _0215_ _0053_ VDD VSS MUX2_X1
X_0773_ _0206_ _0209_ _0212_ _0216_ VDD VSS NAND3_X4
X_0774_ _0181_ mem\[15\]\[0\] _0216_ _0054_ VDD VSS MUX2_X1
X_0775_ _0188_ mem\[15\]\[1\] _0216_ _0055_ VDD VSS MUX2_X1
X_0776_ _0190_ mem\[15\]\[2\] _0216_ _0056_ VDD VSS MUX2_X1
X_0777_ _0192_ mem\[15\]\[3\] _0216_ _0057_ VDD VSS MUX2_X1
X_0778_ _0194_ mem\[15\]\[4\] _0216_ _0058_ VDD VSS MUX2_X1
X_0779_ _0196_ mem\[15\]\[5\] _0216_ _0059_ VDD VSS MUX2_X1
X_0780_ _0198_ mem\[15\]\[6\] _0216_ _0060_ VDD VSS MUX2_X1
X_0781_ _0200_ mem\[15\]\[7\] _0216_ _0061_ VDD VSS MUX2_X1
X_0782_ _0648_ _0217_ VDD VSS INV_X1
X_0783_ _0183_ _0217_ net15 _0186_ _0218_ VDD VSS NOR4_X4
X_0784_ mem\[1\]\[0\] _0182_ _0218_ _0062_ VDD VSS MUX2_X1
X_0785_ mem\[1\]\[1\] _0189_ _0218_ _0063_ VDD VSS MUX2_X1
X_0786_ mem\[1\]\[2\] _0191_ _0218_ _0064_ VDD VSS MUX2_X1
X_0787_ mem\[1\]\[3\] _0193_ _0218_ _0065_ VDD VSS MUX2_X1
X_0788_ mem\[1\]\[4\] _0195_ _0218_ _0066_ VDD VSS MUX2_X1
X_0789_ mem\[1\]\[5\] _0197_ _0218_ _0067_ VDD VSS MUX2_X1
X_0790_ mem\[1\]\[6\] _0199_ _0218_ _0068_ VDD VSS MUX2_X1
X_0791_ mem\[1\]\[7\] _0201_ _0218_ _0069_ VDD VSS MUX2_X1
X_0792_ _0646_ _0219_ VDD VSS INV_X1
X_0793_ _0183_ _0219_ net15 _0186_ _0220_ VDD VSS NOR4_X4
X_0794_ mem\[2\]\[0\] _0182_ _0220_ _0070_ VDD VSS MUX2_X1
X_0795_ mem\[2\]\[1\] _0189_ _0220_ _0071_ VDD VSS MUX2_X1
X_0796_ mem\[2\]\[2\] _0191_ _0220_ _0072_ VDD VSS MUX2_X1
X_0797_ mem\[2\]\[3\] _0193_ _0220_ _0073_ VDD VSS MUX2_X1
X_0798_ mem\[2\]\[4\] _0195_ _0220_ _0074_ VDD VSS MUX2_X1
X_0799_ mem\[2\]\[5\] _0197_ _0220_ _0075_ VDD VSS MUX2_X1
X_0800_ mem\[2\]\[6\] _0199_ _0220_ _0076_ VDD VSS MUX2_X1
X_0801_ mem\[2\]\[7\] _0201_ _0220_ _0077_ VDD VSS MUX2_X1
X_0802_ _0206_ _0221_ VDD VSS INV_X1
X_0803_ _0183_ _0221_ net15 _0186_ _0222_ VDD VSS NOR4_X4
X_0804_ mem\[3\]\[0\] _0182_ _0222_ _0078_ VDD VSS MUX2_X1
X_0805_ mem\[3\]\[1\] _0189_ _0222_ _0079_ VDD VSS MUX2_X1
X_0806_ mem\[3\]\[2\] _0191_ _0222_ _0080_ VDD VSS MUX2_X1
X_0807_ mem\[3\]\[3\] _0193_ _0222_ _0081_ VDD VSS MUX2_X1
X_0808_ mem\[3\]\[4\] _0195_ _0222_ _0082_ VDD VSS MUX2_X1
X_0809_ mem\[3\]\[5\] _0197_ _0222_ _0083_ VDD VSS MUX2_X1
X_0810_ mem\[3\]\[6\] _0199_ _0222_ _0084_ VDD VSS MUX2_X1
X_0811_ mem\[3\]\[7\] _0201_ _0222_ _0085_ VDD VSS MUX2_X1
X_0812_ _0185_ _0183_ _0223_ VDD VSS NOR2_X1
X_0813_ _0645_ _0209_ _0223_ _0224_ VDD VSS AND3_X1
X_0814_ _0224_ _0225_ VDD VSS BUF_X4
X_0815_ mem\[4\]\[0\] _0182_ _0225_ _0086_ VDD VSS MUX2_X1
X_0816_ mem\[4\]\[1\] _0189_ _0225_ _0087_ VDD VSS MUX2_X1
X_0817_ mem\[4\]\[2\] _0191_ _0225_ _0088_ VDD VSS MUX2_X1
X_0818_ mem\[4\]\[3\] _0193_ _0225_ _0089_ VDD VSS MUX2_X1
X_0819_ mem\[4\]\[4\] _0195_ _0225_ _0090_ VDD VSS MUX2_X1
X_0820_ mem\[4\]\[5\] _0197_ _0225_ _0091_ VDD VSS MUX2_X1
X_0821_ mem\[4\]\[6\] _0199_ _0225_ _0092_ VDD VSS MUX2_X1
X_0822_ mem\[4\]\[7\] _0201_ _0225_ _0093_ VDD VSS MUX2_X1
X_0823_ _0648_ _0209_ _0223_ _0226_ VDD VSS AND3_X1
X_0824_ _0226_ _0227_ VDD VSS BUF_X4
X_0825_ mem\[5\]\[0\] _0182_ _0227_ _0094_ VDD VSS MUX2_X1
X_0826_ mem\[5\]\[1\] _0189_ _0227_ _0095_ VDD VSS MUX2_X1
X_0827_ mem\[5\]\[2\] _0191_ _0227_ _0096_ VDD VSS MUX2_X1
X_0828_ mem\[5\]\[3\] _0193_ _0227_ _0097_ VDD VSS MUX2_X1
X_0829_ mem\[5\]\[4\] _0195_ _0227_ _0098_ VDD VSS MUX2_X1
X_0830_ mem\[5\]\[5\] _0197_ _0227_ _0099_ VDD VSS MUX2_X1
X_0831_ mem\[5\]\[6\] _0199_ _0227_ _0100_ VDD VSS MUX2_X1
X_0832_ mem\[5\]\[7\] _0201_ _0227_ _0101_ VDD VSS MUX2_X1
X_0833_ _0646_ _0209_ _0223_ _0228_ VDD VSS AND3_X1
X_0834_ _0228_ _0229_ VDD VSS BUF_X4
X_0835_ mem\[6\]\[0\] _0182_ _0229_ _0102_ VDD VSS MUX2_X1
X_0836_ mem\[6\]\[1\] _0189_ _0229_ _0103_ VDD VSS MUX2_X1
X_0837_ mem\[6\]\[2\] _0191_ _0229_ _0104_ VDD VSS MUX2_X1
X_0838_ mem\[6\]\[3\] _0193_ _0229_ _0105_ VDD VSS MUX2_X1
X_0839_ mem\[6\]\[4\] _0195_ _0229_ _0106_ VDD VSS MUX2_X1
X_0840_ mem\[6\]\[5\] _0197_ _0229_ _0107_ VDD VSS MUX2_X1
X_0841_ mem\[6\]\[6\] _0199_ _0229_ _0108_ VDD VSS MUX2_X1
X_0842_ mem\[6\]\[7\] _0201_ _0229_ _0109_ VDD VSS MUX2_X1
X_0843_ _0206_ _0209_ _0223_ _0230_ VDD VSS AND3_X1
X_0844_ _0230_ _0231_ VDD VSS BUF_X4
X_0845_ mem\[7\]\[0\] _0182_ _0231_ _0110_ VDD VSS MUX2_X1
X_0846_ mem\[7\]\[1\] _0189_ _0231_ _0111_ VDD VSS MUX2_X1
X_0847_ mem\[7\]\[2\] _0191_ _0231_ _0112_ VDD VSS MUX2_X1
X_0848_ mem\[7\]\[3\] _0193_ _0231_ _0113_ VDD VSS MUX2_X1
X_0849_ mem\[7\]\[4\] _0195_ _0231_ _0114_ VDD VSS MUX2_X1
X_0850_ mem\[7\]\[5\] _0197_ _0231_ _0115_ VDD VSS MUX2_X1
X_0851_ mem\[7\]\[6\] _0199_ _0231_ _0116_ VDD VSS MUX2_X1
X_0852_ mem\[7\]\[7\] _0201_ _0231_ _0117_ VDD VSS MUX2_X1
X_0853_ _0183_ _0645_ _0167_ _0203_ _0232_ VDD VSS AND4_X1
X_0854_ _0232_ _0233_ VDD VSS CLKBUF_X3
X_0855_ mem\[8\]\[0\] _0181_ _0233_ _0118_ VDD VSS MUX2_X1
X_0856_ mem\[8\]\[1\] _0188_ _0233_ _0119_ VDD VSS MUX2_X1
X_0857_ mem\[8\]\[2\] _0190_ _0233_ _0120_ VDD VSS MUX2_X1
X_0858_ mem\[8\]\[3\] _0192_ _0233_ _0121_ VDD VSS MUX2_X1
X_0859_ mem\[8\]\[4\] _0194_ _0233_ _0122_ VDD VSS MUX2_X1
X_0860_ mem\[8\]\[5\] _0196_ _0233_ _0123_ VDD VSS MUX2_X1
X_0861_ mem\[8\]\[6\] _0198_ _0233_ _0124_ VDD VSS MUX2_X1
X_0862_ mem\[8\]\[7\] _0200_ _0233_ _0125_ VDD VSS MUX2_X1
X_0863_ _0183_ _0648_ _0167_ _0203_ _0234_ VDD VSS AND4_X1
X_0864_ _0234_ _0235_ VDD VSS CLKBUF_X3
X_0865_ mem\[9\]\[0\] _0181_ _0235_ _0126_ VDD VSS MUX2_X1
X_0866_ mem\[9\]\[1\] _0188_ _0235_ _0127_ VDD VSS MUX2_X1
X_0867_ mem\[9\]\[2\] _0190_ _0235_ _0128_ VDD VSS MUX2_X1
X_0868_ mem\[9\]\[3\] _0192_ _0235_ _0129_ VDD VSS MUX2_X1
X_0869_ mem\[9\]\[4\] _0194_ _0235_ _0130_ VDD VSS MUX2_X1
X_0870_ mem\[9\]\[5\] _0196_ _0235_ _0131_ VDD VSS MUX2_X1
X_0871_ mem\[9\]\[6\] _0198_ _0235_ _0132_ VDD VSS MUX2_X1
X_0872_ mem\[9\]\[7\] _0200_ _0235_ _0133_ VDD VSS MUX2_X1
X_0873_ net2 _0168_ _0173_ _0236_ VDD VSS OAI21_X4
X_0874_ _0236_ _0237_ VDD VSS BUF_X4
X_0875_ rd_ptr_bin\[2\] _0238_ VDD VSS BUF_X4
X_0876_ _0238_ _0239_ VDD VSS BUF_X8
X_0877_ _0239_ _0240_ VDD VSS BUF_X4
X_0878_ mem\[3\]\[0\] mem\[7\]\[0\] _0240_ _0241_ VDD VSS
+ MUX2_X1
X_0879_ rd_ptr_bin\[0\] _0242_ VDD VSS BUF_X2
X_0880_ rd_ptr_bin\[1\] _0243_ VDD VSS BUF_X2
X_0881_ _0243_ _0244_ VDD VSS BUF_X4
X_0882_ _0242_ _0244_ _0245_ VDD VSS NAND2_X4
X_0883_ _0241_ _0245_ _0246_ VDD VSS NOR2_X1
X_0884_ _0242_ _0247_ VDD VSS INV_X4
X_0885_ _0247_ _0244_ _0248_ VDD VSS NOR2_X4
X_0886_ mem\[1\]\[0\] mem\[5\]\[0\] _0240_ _0249_ VDD VSS
+ MUX2_X1
X_0887_ _0249_ _0250_ VDD VSS INV_X1
X_0888_ _0246_ _0248_ _0250_ _0251_ VDD VSS AOI21_X1
X_0889_ rd_ptr_bin\[3\] _0252_ VDD VSS CLKBUF_X3
X_0890_ _0252_ _0253_ VDD VSS BUF_X4
X_0891_ mem\[0\]\[0\] mem\[4\]\[0\] _0240_ _0254_ VDD VSS
+ MUX2_X1
X_0892_ _0242_ _0243_ _0255_ VDD VSS OR2_X1
X_0893_ _0255_ _0256_ VDD VSS BUF_X2
X_0894_ _0254_ _0256_ _0257_ VDD VSS NOR2_X1
X_0895_ _0242_ _0258_ VDD VSS CLKBUF_X3
X_0896_ _0243_ _0259_ VDD VSS INV_X2
X_0897_ _0239_ _0260_ VDD VSS BUF_X8
X_0898_ mem\[2\]\[0\] mem\[6\]\[0\] _0260_ _0261_ VDD VSS
+ MUX2_X1
X_0899_ _0258_ _0259_ _0261_ _0262_ VDD VSS NOR3_X1
X_0900_ _0253_ _0257_ _0262_ _0263_ VDD VSS NOR3_X1
X_0901_ mem\[9\]\[0\] mem\[13\]\[0\] _0239_ _0264_ VDD VSS
+ MUX2_X1
X_0902_ _0238_ _0265_ VDD VSS BUF_X4
X_0903_ mem\[11\]\[0\] mem\[15\]\[0\] _0265_ _0266_ VDD VSS
+ MUX2_X1
X_0904_ _0243_ _0267_ VDD VSS BUF_X4
X_0905_ _0264_ _0266_ _0267_ _0268_ VDD VSS MUX2_X1
X_0906_ _0238_ _0269_ VDD VSS BUF_X4
X_0907_ mem\[8\]\[0\] mem\[12\]\[0\] _0269_ _0270_ VDD VSS
+ MUX2_X1
X_0908_ _0238_ _0271_ VDD VSS BUF_X4
X_0909_ mem\[10\]\[0\] mem\[14\]\[0\] _0271_ _0272_ VDD VSS
+ MUX2_X1
X_0910_ _0270_ _0272_ _0244_ _0273_ VDD VSS MUX2_X1
X_0911_ _0268_ _0273_ _0247_ _0274_ VDD VSS MUX2_X1
X_0912_ _0237_ _0251_ _0263_ _0274_ _0253_ _0275_ VDD VSS
+ AOI221_X2
X_0913_ _0237_ _0276_ VDD VSS BUF_X4
X_0914_ net16 _0277_ VDD VSS INV_X1
X_0915_ _0275_ _0276_ _0277_ _0134_ VDD VSS AOI21_X1
X_0916_ mem\[3\]\[1\] mem\[7\]\[1\] _0240_ _0278_ VDD VSS
+ MUX2_X1
X_0917_ _0245_ _0278_ _0279_ VDD VSS NOR2_X1
X_0918_ _0260_ _0280_ VDD VSS BUF_X8
X_0919_ mem\[1\]\[1\] mem\[5\]\[1\] _0280_ _0281_ VDD VSS
+ MUX2_X1
X_0920_ _0281_ _0282_ VDD VSS INV_X1
X_0921_ _0279_ _0282_ _0248_ _0283_ VDD VSS AOI21_X1
X_0922_ mem\[0\]\[1\] mem\[4\]\[1\] _0260_ _0284_ VDD VSS
+ MUX2_X1
X_0923_ _0256_ _0284_ _0285_ VDD VSS NOR2_X1
X_0924_ mem\[2\]\[1\] mem\[6\]\[1\] _0260_ _0286_ VDD VSS
+ MUX2_X1
X_0925_ _0258_ _0259_ _0286_ _0287_ VDD VSS NOR3_X1
X_0926_ _0252_ _0285_ _0287_ _0288_ VDD VSS NOR3_X1
X_0927_ mem\[9\]\[1\] mem\[13\]\[1\] _0239_ _0289_ VDD VSS
+ MUX2_X1
X_0928_ mem\[11\]\[1\] mem\[15\]\[1\] _0265_ _0290_ VDD VSS
+ MUX2_X1
X_0929_ _0289_ _0290_ _0267_ _0291_ VDD VSS MUX2_X1
X_0930_ mem\[8\]\[1\] mem\[12\]\[1\] _0269_ _0292_ VDD VSS
+ MUX2_X1
X_0931_ mem\[10\]\[1\] mem\[14\]\[1\] _0271_ _0293_ VDD VSS
+ MUX2_X1
X_0932_ _0292_ _0293_ _0244_ _0294_ VDD VSS MUX2_X1
X_0933_ _0291_ _0294_ _0247_ _0295_ VDD VSS MUX2_X1
X_0934_ _0237_ _0283_ _0288_ _0295_ _0253_ _0296_ VDD VSS
+ AOI221_X2
X_0935_ net17 _0297_ VDD VSS INV_X1
X_0936_ _0296_ _0276_ _0297_ _0135_ VDD VSS AOI21_X1
X_0937_ mem\[3\]\[2\] mem\[7\]\[2\] _0240_ _0298_ VDD VSS
+ MUX2_X1
X_0938_ _0245_ _0298_ _0299_ VDD VSS NOR2_X1
X_0939_ mem\[1\]\[2\] mem\[5\]\[2\] _0280_ _0300_ VDD VSS
+ MUX2_X1
X_0940_ _0300_ _0301_ VDD VSS INV_X1
X_0941_ _0299_ _0301_ _0248_ _0302_ VDD VSS AOI21_X1
X_0942_ mem\[0\]\[2\] mem\[4\]\[2\] _0260_ _0303_ VDD VSS
+ MUX2_X1
X_0943_ _0256_ _0303_ _0304_ VDD VSS NOR2_X1
X_0944_ mem\[2\]\[2\] mem\[6\]\[2\] _0271_ _0305_ VDD VSS
+ MUX2_X1
X_0945_ _0258_ _0259_ _0305_ _0306_ VDD VSS NOR3_X1
X_0946_ _0252_ _0304_ _0306_ _0307_ VDD VSS NOR3_X1
X_0947_ mem\[9\]\[2\] mem\[13\]\[2\] _0239_ _0308_ VDD VSS
+ MUX2_X1
X_0948_ mem\[11\]\[2\] mem\[15\]\[2\] _0265_ _0309_ VDD VSS
+ MUX2_X1
X_0949_ _0308_ _0309_ _0267_ _0310_ VDD VSS MUX2_X1
X_0950_ mem\[8\]\[2\] mem\[12\]\[2\] _0269_ _0311_ VDD VSS
+ MUX2_X1
X_0951_ mem\[10\]\[2\] mem\[14\]\[2\] _0271_ _0312_ VDD VSS
+ MUX2_X1
X_0952_ _0311_ _0312_ _0244_ _0313_ VDD VSS MUX2_X1
X_0953_ _0310_ _0313_ _0247_ _0314_ VDD VSS MUX2_X1
X_0954_ _0236_ _0302_ _0307_ _0314_ _0253_ _0315_ VDD VSS
+ AOI221_X2
X_0955_ net18 _0316_ VDD VSS INV_X1
X_0956_ _0315_ _0276_ _0316_ _0136_ VDD VSS AOI21_X1
X_0957_ mem\[3\]\[3\] mem\[7\]\[3\] _0240_ _0317_ VDD VSS
+ MUX2_X1
X_0958_ _0245_ _0317_ _0318_ VDD VSS NOR2_X1
X_0959_ mem\[1\]\[3\] mem\[5\]\[3\] _0280_ _0319_ VDD VSS
+ MUX2_X1
X_0960_ _0319_ _0320_ VDD VSS INV_X1
X_0961_ _0318_ _0320_ _0248_ _0321_ VDD VSS AOI21_X1
X_0962_ mem\[0\]\[3\] mem\[4\]\[3\] _0260_ _0322_ VDD VSS
+ MUX2_X1
X_0963_ _0256_ _0322_ _0323_ VDD VSS NOR2_X1
X_0964_ mem\[2\]\[3\] mem\[6\]\[3\] _0271_ _0324_ VDD VSS
+ MUX2_X1
X_0965_ _0258_ _0259_ _0324_ _0325_ VDD VSS NOR3_X1
X_0966_ _0252_ _0323_ _0325_ _0326_ VDD VSS NOR3_X1
X_0967_ mem\[9\]\[3\] mem\[13\]\[3\] _0239_ _0327_ VDD VSS
+ MUX2_X1
X_0968_ mem\[11\]\[3\] mem\[15\]\[3\] _0265_ _0328_ VDD VSS
+ MUX2_X1
X_0969_ _0327_ _0328_ _0267_ _0329_ VDD VSS MUX2_X1
X_0970_ mem\[8\]\[3\] mem\[12\]\[3\] _0269_ _0330_ VDD VSS
+ MUX2_X1
X_0971_ mem\[10\]\[3\] mem\[14\]\[3\] _0271_ _0331_ VDD VSS
+ MUX2_X1
X_0972_ _0330_ _0331_ _0244_ _0332_ VDD VSS MUX2_X1
X_0973_ _0329_ _0332_ _0247_ _0333_ VDD VSS MUX2_X1
X_0974_ _0236_ _0321_ _0326_ _0333_ _0253_ _0334_ VDD VSS
+ AOI221_X2
X_0975_ net19 _0335_ VDD VSS INV_X1
X_0976_ _0334_ _0276_ _0335_ _0137_ VDD VSS AOI21_X1
X_0977_ mem\[3\]\[4\] mem\[7\]\[4\] _0240_ _0336_ VDD VSS
+ MUX2_X1
X_0978_ _0245_ _0336_ _0337_ VDD VSS NOR2_X1
X_0979_ mem\[1\]\[4\] mem\[5\]\[4\] _0280_ _0338_ VDD VSS
+ MUX2_X1
X_0980_ _0338_ _0339_ VDD VSS INV_X1
X_0981_ _0337_ _0339_ _0248_ _0340_ VDD VSS AOI21_X1
X_0982_ mem\[0\]\[4\] mem\[4\]\[4\] _0260_ _0341_ VDD VSS
+ MUX2_X1
X_0983_ _0256_ _0341_ _0342_ VDD VSS NOR2_X1
X_0984_ mem\[2\]\[4\] mem\[6\]\[4\] _0271_ _0343_ VDD VSS
+ MUX2_X1
X_0985_ _0258_ _0259_ _0343_ _0344_ VDD VSS NOR3_X1
X_0986_ _0252_ _0342_ _0344_ _0345_ VDD VSS NOR3_X1
X_0987_ mem\[9\]\[4\] mem\[13\]\[4\] _0239_ _0346_ VDD VSS
+ MUX2_X1
X_0988_ mem\[11\]\[4\] mem\[15\]\[4\] _0265_ _0347_ VDD VSS
+ MUX2_X1
X_0989_ _0346_ _0347_ _0267_ _0348_ VDD VSS MUX2_X1
X_0990_ mem\[8\]\[4\] mem\[12\]\[4\] _0269_ _0349_ VDD VSS
+ MUX2_X1
X_0991_ mem\[10\]\[4\] mem\[14\]\[4\] _0269_ _0350_ VDD VSS
+ MUX2_X1
X_0992_ _0349_ _0350_ _0244_ _0351_ VDD VSS MUX2_X1
X_0993_ _0348_ _0351_ _0247_ _0352_ VDD VSS MUX2_X1
X_0994_ _0236_ _0340_ _0345_ _0352_ _0253_ _0353_ VDD VSS
+ AOI221_X2
X_0995_ net20 _0354_ VDD VSS INV_X1
X_0996_ _0353_ _0276_ _0354_ _0138_ VDD VSS AOI21_X1
X_0997_ mem\[3\]\[5\] mem\[7\]\[5\] _0240_ _0355_ VDD VSS
+ MUX2_X1
X_0998_ _0245_ _0355_ _0356_ VDD VSS NOR2_X1
X_0999_ mem\[1\]\[5\] mem\[5\]\[5\] _0280_ _0357_ VDD VSS
+ MUX2_X1
X_1000_ _0357_ _0358_ VDD VSS INV_X1
X_1001_ _0356_ _0358_ _0248_ _0359_ VDD VSS AOI21_X1
X_1002_ mem\[0\]\[5\] mem\[4\]\[5\] _0260_ _0360_ VDD VSS
+ MUX2_X1
X_1003_ _0256_ _0360_ _0361_ VDD VSS NOR2_X1
X_1004_ mem\[2\]\[5\] mem\[6\]\[5\] _0271_ _0362_ VDD VSS
+ MUX2_X1
X_1005_ _0258_ _0259_ _0362_ _0363_ VDD VSS NOR3_X1
X_1006_ _0252_ _0361_ _0363_ _0364_ VDD VSS NOR3_X1
X_1007_ mem\[9\]\[5\] mem\[13\]\[5\] _0239_ _0365_ VDD VSS
+ MUX2_X1
X_1008_ mem\[11\]\[5\] mem\[15\]\[5\] _0265_ _0366_ VDD VSS
+ MUX2_X1
X_1009_ _0365_ _0366_ _0267_ _0367_ VDD VSS MUX2_X1
X_1010_ mem\[8\]\[5\] mem\[12\]\[5\] _0269_ _0368_ VDD VSS
+ MUX2_X1
X_1011_ mem\[10\]\[5\] mem\[14\]\[5\] _0269_ _0369_ VDD VSS
+ MUX2_X1
X_1012_ _0368_ _0369_ _0244_ _0370_ VDD VSS MUX2_X1
X_1013_ _0367_ _0370_ _0247_ _0371_ VDD VSS MUX2_X1
X_1014_ _0236_ _0359_ _0364_ _0371_ _0253_ _0372_ VDD VSS
+ AOI221_X2
X_1015_ net21 _0373_ VDD VSS INV_X1
X_1016_ _0372_ _0276_ _0373_ _0139_ VDD VSS AOI21_X1
X_1017_ mem\[3\]\[6\] mem\[7\]\[6\] _0240_ _0374_ VDD VSS
+ MUX2_X1
X_1018_ _0245_ _0374_ _0375_ VDD VSS NOR2_X1
X_1019_ mem\[1\]\[6\] mem\[5\]\[6\] _0280_ _0376_ VDD VSS
+ MUX2_X1
X_1020_ _0376_ _0377_ VDD VSS INV_X1
X_1021_ _0375_ _0377_ _0248_ _0378_ VDD VSS AOI21_X1
X_1022_ mem\[0\]\[6\] mem\[4\]\[6\] _0260_ _0379_ VDD VSS
+ MUX2_X1
X_1023_ _0256_ _0379_ _0380_ VDD VSS NOR2_X1
X_1024_ mem\[2\]\[6\] mem\[6\]\[6\] _0271_ _0381_ VDD VSS
+ MUX2_X1
X_1025_ _0258_ _0259_ _0381_ _0382_ VDD VSS NOR3_X1
X_1026_ _0252_ _0380_ _0382_ _0383_ VDD VSS NOR3_X1
X_1027_ mem\[9\]\[6\] mem\[13\]\[6\] _0239_ _0384_ VDD VSS
+ MUX2_X1
X_1028_ mem\[11\]\[6\] mem\[15\]\[6\] _0265_ _0385_ VDD VSS
+ MUX2_X1
X_1029_ _0384_ _0385_ _0267_ _0386_ VDD VSS MUX2_X1
X_1030_ mem\[8\]\[6\] mem\[12\]\[6\] _0265_ _0387_ VDD VSS
+ MUX2_X1
X_1031_ mem\[10\]\[6\] mem\[14\]\[6\] _0269_ _0388_ VDD VSS
+ MUX2_X1
X_1032_ _0387_ _0388_ _0267_ _0389_ VDD VSS MUX2_X1
X_1033_ _0386_ _0389_ _0247_ _0390_ VDD VSS MUX2_X1
X_1034_ _0236_ _0378_ _0383_ _0390_ _0253_ _0391_ VDD VSS
+ AOI221_X2
X_1035_ net22 _0392_ VDD VSS INV_X1
X_1036_ _0391_ _0276_ _0392_ _0140_ VDD VSS AOI21_X1
X_1037_ mem\[3\]\[7\] mem\[7\]\[7\] _0240_ _0393_ VDD VSS
+ MUX2_X1
X_1038_ _0245_ _0393_ _0394_ VDD VSS NOR2_X1
X_1039_ mem\[1\]\[7\] mem\[5\]\[7\] _0280_ _0395_ VDD VSS
+ MUX2_X1
X_1040_ _0395_ _0396_ VDD VSS INV_X1
X_1041_ _0394_ _0396_ _0248_ _0397_ VDD VSS AOI21_X1
X_1042_ mem\[0\]\[7\] mem\[4\]\[7\] _0260_ _0398_ VDD VSS
+ MUX2_X1
X_1043_ _0256_ _0398_ _0399_ VDD VSS NOR2_X1
X_1044_ mem\[2\]\[7\] mem\[6\]\[7\] _0271_ _0400_ VDD VSS
+ MUX2_X1
X_1045_ _0258_ _0259_ _0400_ _0401_ VDD VSS NOR3_X1
X_1046_ _0252_ _0399_ _0401_ _0402_ VDD VSS NOR3_X1
X_1047_ mem\[9\]\[7\] mem\[13\]\[7\] _0239_ _0403_ VDD VSS
+ MUX2_X1
X_1048_ mem\[11\]\[7\] mem\[15\]\[7\] _0265_ _0404_ VDD VSS
+ MUX2_X1
X_1049_ _0403_ _0404_ _0267_ _0405_ VDD VSS MUX2_X1
X_1050_ mem\[8\]\[7\] mem\[12\]\[7\] _0265_ _0406_ VDD VSS
+ MUX2_X1
X_1051_ mem\[10\]\[7\] mem\[14\]\[7\] _0269_ _0407_ VDD VSS
+ MUX2_X1
X_1052_ _0406_ _0407_ _0267_ _0408_ VDD VSS MUX2_X1
X_1053_ _0405_ _0408_ _0247_ _0409_ VDD VSS MUX2_X1
X_1054_ _0236_ _0397_ _0402_ _0409_ _0253_ _0410_ VDD VSS
+ AOI221_X1
X_1055_ net23 _0411_ VDD VSS INV_X1
X_1056_ _0410_ _0276_ _0411_ _0141_ VDD VSS AOI21_X1
X_1057_ _0004_ _0258_ _0276_ _0142_ VDD VSS MUX2_X1
X_1058_ _0005_ _0244_ _0276_ _0143_ VDD VSS MUX2_X1
X_1059_ _0643_ _0624_ _0412_ VDD VSS XNOR2_X2
X_1060_ _0412_ _0280_ _0237_ _0144_ VDD VSS MUX2_X1
X_1061_ _0242_ _0244_ _0280_ _0413_ VDD VSS NAND3_X1
X_1062_ _0620_ _0413_ _0414_ VDD VSS XOR2_X2
X_1063_ _0414_ _0253_ _0237_ _0145_ VDD VSS MUX2_X1
X_1064_ _0258_ _0005_ _0415_ VDD VSS XNOR2_X1
X_1065_ _0415_ rd_ptr_gray\[0\] _0237_ _0146_ VDD VSS MUX2_X1
X_1066_ _0005_ _0412_ _0416_ VDD VSS XOR2_X1
X_1067_ _0416_ rd_ptr_gray\[1\] _0237_ _0147_ VDD VSS MUX2_X1
X_1068_ _0412_ _0414_ _0417_ VDD VSS XOR2_X1
X_1069_ _0417_ rd_ptr_gray\[2\] _0237_ _0148_ VDD VSS MUX2_X1
X_1070_ _0280_ _0252_ _0643_ _0418_ VDD VSS NAND3_X1
X_1071_ rd_ptr_bin\[4\] _0418_ _0419_ VDD VSS XOR2_X1
X_1072_ _0414_ _0419_ _0420_ VDD VSS XNOR2_X1
X_1073_ _0420_ rd_ptr_gray\[3\] _0237_ _0149_ VDD VSS MUX2_X1
X_1074_ _0237_ _0418_ _0421_ VDD VSS NOR2_X1
X_1075_ rd_ptr_bin\[4\] _0421_ _0150_ VDD VSS XOR2_X1
X_1076_ wr_ptr_bin\[0\] _0002_ _0210_ _0151_ VDD VSS MUX2_X1
X_1077_ wr_ptr_bin\[1\] _0003_ _0210_ _0152_ VDD VSS MUX2_X1
X_1078_ _0185_ _0210_ _0422_ VDD VSS OR2_X1
X_1079_ _0206_ _0001_ _0423_ VDD VSS XOR2_X2
X_1080_ net5 _0167_ _0424_ VDD VSS NAND2_X1
X_1081_ _0422_ _0423_ _0424_ _0153_ VDD VSS OAI21_X1
X_1082_ wr_ptr_bin\[2\] wr_ptr_bin\[1\] wr_ptr_bin\[0\] _0425_
+ VDD VSS NAND3_X1
X_1083_ _0000_ _0425_ _0426_ VDD VSS XOR2_X2
X_1084_ _0183_ _0426_ _0210_ _0154_ VDD VSS MUX2_X1
X_1085_ wr_ptr_bin\[0\] _0003_ _0427_ VDD VSS XNOR2_X1
X_1086_ wr_ptr_gray\[0\] _0427_ _0210_ _0155_ VDD VSS MUX2_X1
X_1087_ _0003_ _0423_ _0428_ VDD VSS XNOR2_X1
X_1088_ wr_ptr_gray\[1\] _0428_ _0210_ _0156_ VDD VSS MUX2_X1
X_1089_ _0423_ _0426_ _0429_ VDD VSS XNOR2_X1
X_1090_ wr_ptr_gray\[2\] _0429_ _0210_ _0157_ VDD VSS MUX2_X1
X_1091_ _0206_ _0212_ _0430_ VDD VSS NAND2_X1
X_1092_ wr_ptr_bin\[4\] _0430_ _0431_ VDD VSS XOR2_X1
X_1093_ _0426_ _0431_ _0432_ VDD VSS XNOR2_X1
X_1094_ wr_ptr_gray\[3\] _0432_ _0210_ _0158_ VDD VSS MUX2_X1
X_1095_ wr_ptr_bin\[4\] _0216_ _0159_ VDD VSS XNOR2_X1
X_1096_ _0169_ _0170_ _0433_ VDD VSS NAND2_X1
X_1097_ _0171_ _0172_ _0434_ VDD VSS NAND2_X1
X_1098_ _0619_ _0627_ net12 VDD VSS XNOR2_X1
X_1099_ net11 net10 _0435_ VDD VSS OR2_X1
X_1100_ net12 _0435_ _0436_ VDD VSS AND2_X1
X_1101_ _0433_ _0168_ _0434_ net13 net14 _0436_ net7 VDD VSS
+ OAI33_X1
X_1102_ _0637_ _0615_ _0437_ VDD VSS XNOR2_X1
X_1103_ _0636_ _0438_ VDD VSS INV_X1
X_1104_ _0638_ _0639_ _0613_ _0439_ VDD VSS AOI21_X1
X_1105_ _0637_ _0440_ VDD VSS INV_X1
X_1106_ _0438_ _0439_ _0440_ _0441_ VDD VSS OAI21_X1
X_1107_ _0634_ _0441_ _0442_ VDD VSS XNOR2_X1
X_1108_ _0636_ _0615_ _0637_ _0443_ VDD VSS AOI21_X1
X_1109_ _0443_ _0444_ VDD VSS INV_X1
X_1110_ _0633_ _0444_ _0634_ _0445_ VDD VSS AOI21_X1
X_1111_ _0164_ _0445_ _0446_ VDD VSS XOR2_X1
X_1112_ _0167_ _0437_ _0442_ _0446_ net8 VDD VSS NAND4_X1
X_1113_ wr_ptr_bin\[1\] _0613_ _0614_ _0615_ _0616_ VDD VSS
+ FA_X1
X_1114_ rd_ptr_bin\[1\] _0617_ _0618_ _0619_ net11 VDD VSS
+ FA_X1
X_1115_ _0620_ _0621_ _0622_ _0623_ VDD VSS HA_X1
X_1116_ _0624_ _0625_ _0626_ _0627_ VDD VSS HA_X1
X_1117_ _0628_ _0629_ _0630_ _0631_ VDD VSS HA_X1
X_1118_ wr_ptr_bin\[3\] _0632_ _0633_ _0634_ VDD VSS HA_X1
X_1119_ wr_ptr_bin\[2\] _0635_ _0636_ _0637_ VDD VSS HA_X1
X_1120_ wr_ptr_bin\[1\] _0614_ _0638_ _0639_ VDD VSS HA_X1
X_1121_ _0002_ _0640_ _0641_ _0642_ VDD VSS HA_X1
X_1122_ rd_ptr_bin\[0\] rd_ptr_bin\[1\] _0643_ _0005_ VDD
+ VSS HA_X1
X_1123_ _0002_ _0644_ _0645_ _0003_ VDD VSS HA_X1
X_1124_ _0002_ wr_ptr_bin\[1\] _0646_ _0647_ VDD VSS HA_X1
X_1125_ wr_ptr_bin\[0\] _0644_ _0648_ _0649_ VDD VSS HA_X1
X_1126_ wr_ptr_bin\[0\] wr_ptr_bin\[1\] _0650_ _0651_ VDD
+ VSS HA_X1
X_1127_ rd_ptr_bin\[0\] _0652_ _0617_ _0653_ VDD VSS HA_X1
Xmem\[0\]\[0\]$_DFFE_PP_ _0006_ net4 mem\[0\]\[0\] _0592_
+ VDD VSS DFF_X1
Xmem\[0\]\[1\]$_DFFE_PP_ _0007_ net4 mem\[0\]\[1\] _0591_
+ VDD VSS DFF_X1
Xmem\[0\]\[2\]$_DFFE_PP_ _0008_ net4 mem\[0\]\[2\] _0590_
+ VDD VSS DFF_X1
Xmem\[0\]\[3\]$_DFFE_PP_ _0009_ net4 mem\[0\]\[3\] _0589_
+ VDD VSS DFF_X1
Xmem\[0\]\[4\]$_DFFE_PP_ _0010_ net4 mem\[0\]\[4\] _0588_
+ VDD VSS DFF_X1
Xmem\[0\]\[5\]$_DFFE_PP_ _0011_ net4 mem\[0\]\[5\] _0587_
+ VDD VSS DFF_X1
Xmem\[0\]\[6\]$_DFFE_PP_ _0012_ net4 mem\[0\]\[6\] _0586_
+ VDD VSS DFF_X1
Xmem\[0\]\[7\]$_DFFE_PP_ _0013_ net4 mem\[0\]\[7\] _0585_
+ VDD VSS DFF_X1
Xmem\[10\]\[0\]$_DFFE_PP_ _0014_ net4 mem\[10\]\[0\] _0584_
+ VDD VSS DFF_X1
Xmem\[10\]\[1\]$_DFFE_PP_ _0015_ net4 mem\[10\]\[1\] _0583_
+ VDD VSS DFF_X1
Xmem\[10\]\[2\]$_DFFE_PP_ _0016_ net4 mem\[10\]\[2\] _0582_
+ VDD VSS DFF_X1
Xmem\[10\]\[3\]$_DFFE_PP_ _0017_ net4 mem\[10\]\[3\] _0581_
+ VDD VSS DFF_X1
Xmem\[10\]\[4\]$_DFFE_PP_ _0018_ net4 mem\[10\]\[4\] _0580_
+ VDD VSS DFF_X1
Xmem\[10\]\[5\]$_DFFE_PP_ _0019_ net4 mem\[10\]\[5\] _0579_
+ VDD VSS DFF_X1
Xmem\[10\]\[6\]$_DFFE_PP_ _0020_ net4 mem\[10\]\[6\] _0578_
+ VDD VSS DFF_X1
Xmem\[10\]\[7\]$_DFFE_PP_ _0021_ net4 mem\[10\]\[7\] _0577_
+ VDD VSS DFF_X1
Xmem\[11\]\[0\]$_DFFE_PP_ _0022_ net4 mem\[11\]\[0\] _0576_
+ VDD VSS DFF_X1
Xmem\[11\]\[1\]$_DFFE_PP_ _0023_ net4 mem\[11\]\[1\] _0575_
+ VDD VSS DFF_X1
Xmem\[11\]\[2\]$_DFFE_PP_ _0024_ net4 mem\[11\]\[2\] _0574_
+ VDD VSS DFF_X1
Xmem\[11\]\[3\]$_DFFE_PP_ _0025_ net4 mem\[11\]\[3\] _0573_
+ VDD VSS DFF_X1
Xmem\[11\]\[4\]$_DFFE_PP_ _0026_ net4 mem\[11\]\[4\] _0572_
+ VDD VSS DFF_X1
Xmem\[11\]\[5\]$_DFFE_PP_ _0027_ net4 mem\[11\]\[5\] _0571_
+ VDD VSS DFF_X1
Xmem\[11\]\[6\]$_DFFE_PP_ _0028_ net4 mem\[11\]\[6\] _0570_
+ VDD VSS DFF_X1
Xmem\[11\]\[7\]$_DFFE_PP_ _0029_ net4 mem\[11\]\[7\] _0569_
+ VDD VSS DFF_X1
Xmem\[12\]\[0\]$_DFFE_PP_ _0030_ net4 mem\[12\]\[0\] _0568_
+ VDD VSS DFF_X1
Xmem\[12\]\[1\]$_DFFE_PP_ _0031_ net4 mem\[12\]\[1\] _0567_
+ VDD VSS DFF_X1
Xmem\[12\]\[2\]$_DFFE_PP_ _0032_ net4 mem\[12\]\[2\] _0566_
+ VDD VSS DFF_X1
Xmem\[12\]\[3\]$_DFFE_PP_ _0033_ net4 mem\[12\]\[3\] _0565_
+ VDD VSS DFF_X1
Xmem\[12\]\[4\]$_DFFE_PP_ _0034_ net4 mem\[12\]\[4\] _0564_
+ VDD VSS DFF_X1
Xmem\[12\]\[5\]$_DFFE_PP_ _0035_ net4 mem\[12\]\[5\] _0563_
+ VDD VSS DFF_X1
Xmem\[12\]\[6\]$_DFFE_PP_ _0036_ net4 mem\[12\]\[6\] _0562_
+ VDD VSS DFF_X1
Xmem\[12\]\[7\]$_DFFE_PP_ _0037_ net4 mem\[12\]\[7\] _0561_
+ VDD VSS DFF_X1
Xmem\[13\]\[0\]$_DFFE_PP_ _0038_ net4 mem\[13\]\[0\] _0560_
+ VDD VSS DFF_X1
Xmem\[13\]\[1\]$_DFFE_PP_ _0039_ net4 mem\[13\]\[1\] _0559_
+ VDD VSS DFF_X1
Xmem\[13\]\[2\]$_DFFE_PP_ _0040_ net4 mem\[13\]\[2\] _0558_
+ VDD VSS DFF_X1
Xmem\[13\]\[3\]$_DFFE_PP_ _0041_ net4 mem\[13\]\[3\] _0557_
+ VDD VSS DFF_X1
Xmem\[13\]\[4\]$_DFFE_PP_ _0042_ net4 mem\[13\]\[4\] _0556_
+ VDD VSS DFF_X1
Xmem\[13\]\[5\]$_DFFE_PP_ _0043_ net4 mem\[13\]\[5\] _0555_
+ VDD VSS DFF_X1
Xmem\[13\]\[6\]$_DFFE_PP_ _0044_ net4 mem\[13\]\[6\] _0554_
+ VDD VSS DFF_X1
Xmem\[13\]\[7\]$_DFFE_PP_ _0045_ net4 mem\[13\]\[7\] _0553_
+ VDD VSS DFF_X1
Xmem\[14\]\[0\]$_DFFE_PP_ _0046_ net4 mem\[14\]\[0\] _0552_
+ VDD VSS DFF_X1
Xmem\[14\]\[1\]$_DFFE_PP_ _0047_ net4 mem\[14\]\[1\] _0551_
+ VDD VSS DFF_X1
Xmem\[14\]\[2\]$_DFFE_PP_ _0048_ net4 mem\[14\]\[2\] _0550_
+ VDD VSS DFF_X1
Xmem\[14\]\[3\]$_DFFE_PP_ _0049_ net4 mem\[14\]\[3\] _0549_
+ VDD VSS DFF_X1
Xmem\[14\]\[4\]$_DFFE_PP_ _0050_ net4 mem\[14\]\[4\] _0548_
+ VDD VSS DFF_X1