
* cell fixed_spi_master
* pin tx_data[3]
* pin tx_data[0]
* pin tx_data[2]
* pin tx_data[1]
* pin rx_data[7]
* pin rx_data[1]
* pin tx_data[4]
* pin rx_valid
* pin rx_data[5]
* pin tx_data[5]
* pin rx_data[2]
* pin spi_mosi
* pin tx_data[7]
* pin tx_data[6]
* pin spi_miso
* pin rx_data[3]
* pin clk
* pin spi_clk
* pin rx_data[6]
* pin tx_valid
* pin spi_cs_n
* pin tx_ready
* pin rx_data[4]
* pin rst_n
* pin rx_data[0]
.SUBCKT fixed_spi_master 1 2 3 4 5 6 40 43 46 52 59 71 79 84 89 107 128 140 147
+ 170 175 181 182 187 199
* net 1 tx_data[3]
* net 2 tx_data[0]
* net 3 tx_data[2]
* net 4 tx_data[1]
* net 5 rx_data[7]
* net 6 rx_data[1]
* net 40 tx_data[4]
* net 43 rx_valid
* net 46 rx_data[5]
* net 52 tx_data[5]
* net 59 rx_data[2]
* net 71 spi_mosi
* net 79 tx_data[7]
* net 84 tx_data[6]
* net 89 spi_miso
* net 107 rx_data[3]
* net 128 clk
* net 140 spi_clk
* net 147 rx_data[6]
* net 170 tx_valid
* net 175 spi_cs_n
* net 181 tx_ready
* net 182 rx_data[4]
* net 187 rst_n
* net 199 rx_data[0]
* cell instance $3 r0 *1 16.1,2.72
X$3 18 1 11 8 18 8 sky130_fd_sc_hd__clkbuf_1
* cell instance $6 r0 *1 17.48,2.72
X$6 18 2 12 8 18 8 sky130_fd_sc_hd__clkbuf_1
* cell instance $9 r0 *1 22.54,2.72
X$9 18 3 7 8 18 8 sky130_fd_sc_hd__clkbuf_1
* cell instance $12 r0 *1 24.84,2.72
X$12 18 4 50 8 18 8 sky130_fd_sc_hd__clkbuf_1
* cell instance $15 r0 *1 37.26,2.72
X$15 18 10 5 8 18 8 sky130_fd_sc_hd__clkbuf_1
* cell instance $18 r0 *1 45.54,2.72
X$18 18 9 6 8 18 8 sky130_fd_sc_hd__clkbuf_1
* cell instance $21 r0 *1 18.86,2.72
X$21 8 17 7 13 14 18 18 8 sky130_fd_sc_hd__mux2i_1
* cell instance $57 m0 *1 2.76,8.16
X$57 8 26 28 24 16 18 18 8 sky130_fd_sc_hd__dfrtp_1
* cell instance $58 m0 *1 11.96,8.16
X$58 18 28 30 15 8 18 8 sky130_fd_sc_hd__nor2_1
* cell instance $59 m0 *1 13.34,8.16
X$59 18 15 23 22 8 18 16 8 sky130_fd_sc_hd__a21oi_1
* cell instance $62 m0 *1 15.18,8.16
X$62 18 21 23 17 8 18 19 8 sky130_fd_sc_hd__a21oi_1
* cell instance $63 m0 *1 17.02,8.16
X$63 18 14 12 30 20 8 18 8 sky130_fd_sc_hd__nand3b_1
* cell instance $64 m0 *1 19.78,8.16
X$64 8 26 13 24 29 18 18 8 sky130_fd_sc_hd__dfrtp_1
* cell instance $69 m0 *1 37.72,8.16
X$69 8 26 9 33 25 18 18 8 sky130_fd_sc_hd__dfrtp_1
* cell instance $82 r0 *1 4.14,8.16
X$82 8 26 31 24 19 18 18 8 sky130_fd_sc_hd__dfrtp_1
* cell instance $83 r0 *1 13.34,8.16
X$83 18 31 30 21 8 18 8 sky130_fd_sc_hd__nor2_1
* cell instance $87 r0 *1 15.64,8.16
X$87 8 22 11 31 14 18 18 8 sky130_fd_sc_hd__mux2i_1
* cell instance $88 r0 *1 19.32,8.16
X$88 18 13 23 38 8 18 8 sky130_fd_sc_hd__nor2_1
* cell instance $89 r0 *1 20.7,8.16
X$89 18 38 23 27 8 18 29 8 sky130_fd_sc_hd__a21oi_1
* cell instance $90 r0 *1 22.54,8.16
X$90 8 26 39 24 32 18 18 8 sky130_fd_sc_hd__dfrtp_1
* cell instance $92 r0 *1 32.2,8.16
X$92 8 26 10 33 44 18 18 8 sky130_fd_sc_hd__dfrtp_1
* cell instance $98 r0 *1 43.7,8.16
X$98 8 25 9 37 34 18 18 8 sky130_fd_sc_hd__mux2_1
* cell instance $102 r0 *1 53.82,8.16
X$102 18 34 18 8 36 8 sky130_fd_sc_hd__inv_1
* cell instance $103 r0 *1 55.2,8.16
X$103 8 26 35 33 36 18 18 8 sky130_fd_sc_hd__dfrtp_1
* cell instance $113 m0 *1 10.12,13.6
X$113 18 40 41 8 18 8 sky130_fd_sc_hd__clkbuf_1
* cell instance $115 m0 *1 12.42,13.6
X$115 8 48 41 28 14 18 18 8 sky130_fd_sc_hd__mux2i_1
* cell instance $118 m0 *1 21.62,13.6
X$118 18 42 23 20 18 32 8 8 sky130_fd_sc_hd__o21ai_0
* cell instance $119 m0 *1 23.46,13.6
X$119 18 39 18 8 42 8 sky130_fd_sc_hd__inv_1
* cell instance $120 m0 *1 24.84,13.6
X$120 8 27 50 39 14 18 18 8 sky130_fd_sc_hd__mux2i_1
* cell instance $126 m0 *1 35.88,13.6
X$126 8 44 10 51 34 18 18 8 sky130_fd_sc_hd__mux2_1
* cell instance $133 m0 *1 57.04,13.6
X$133 8 49 47 70 34 18 18 8 sky130_fd_sc_hd__mux2_1
* cell instance $136 m0 *1 62.56,13.6
X$136 18 47 46 8 18 8 sky130_fd_sc_hd__clkbuf_1
* cell instance $137 m0 *1 63.94,13.6
X$137 18 35 43 8 18 8 sky130_fd_sc_hd__clkbuf_1
* cell instance $139 r0 *1 1.84,13.6
X$139 8 26 53 24 45 18 18 8 sky130_fd_sc_hd__dfrtp_1
* cell instance $140 r0 *1 11.04,13.6
X$140 18 54 23 48 8 18 45 8 sky130_fd_sc_hd__a21oi_1
* cell instance $163 r0 *1 54.28,13.6
X$163 8 26 47 33 49 18 18 8 sky130_fd_sc_hd__dfrtp_1
* cell instance $168 m0 *1 7.82,19.04
X$168 18 52 56 8 18 8 sky130_fd_sc_hd__clkbuf_1
* cell instance $170 m0 *1 10.12,19.04
X$170 18 53 30 54 8 18 8 sky130_fd_sc_hd__nor2_1
* cell instance $171 m0 *1 11.5,19.04
X$171 8 55 56 53 14 18 18 8 sky130_fd_sc_hd__mux2i_1
* cell instance $173 m0 *1 17.02,19.04
X$173 18 30 8 23 18 8 sky130_fd_sc_hd__buf_2
* cell instance $175 m0 *1 19.32,19.04
X$175 8 24 202 18 18 8 sky130_fd_sc_hd__clkbuf_8
* cell instance $182 m0 *1 37.72,19.04
X$182 8 26 37 33 58 18 18 8 sky130_fd_sc_hd__dfrtp_1
* cell instance $195 r0 *1 10.12,19.04
X$195 18 63 23 55 8 18 61 8 sky130_fd_sc_hd__a21oi_1
* cell instance $196 r0 *1 11.96,19.04
X$196 18 62 30 63 8 18 8 sky130_fd_sc_hd__nor2_1
* cell instance $201 r0 *1 19.32,19.04
X$201 8 57 24 18 18 8 sky130_fd_sc_hd__clkbuf_8
* cell instance $203 r0 *1 25.3,19.04
X$203 8 26 66 24 65 18 18 8 sky130_fd_sc_hd__dfrtp_2
* cell instance $209 r0 *1 43.24,19.04
X$209 8 57 33 18 18 8 sky130_fd_sc_hd__clkbuf_8
* cell instance $214 r0 *1 55.2,19.04
X$214 8 26 60 33 64 18 18 8 sky130_fd_sc_hd__dfrtp_1
* cell instance $216 m0 *1 1.38,24.48
X$216 18 72 71 8 18 8 sky130_fd_sc_hd__clkbuf_1
* cell instance $219 m0 *1 4.14,24.48
X$219 18 72 23 73 8 18 8 sky130_fd_sc_hd__nor2_1
* cell instance $220 m0 *1 5.52,24.48
X$220 8 26 62 24 61 18 18 8 sky130_fd_sc_hd__dfrtp_1
* cell instance $223 m0 *1 14.72,24.48
X$223 18 76 30 75 8 18 8 sky130_fd_sc_hd__nor2_1
* cell instance $224 m0 *1 16.1,24.48
X$224 18 75 23 86 8 18 67 8 sky130_fd_sc_hd__a21oi_1
* cell instance $231 m0 *1 32.2,24.48
X$231 8 26 51 33 78 18 18 8 sky130_fd_sc_hd__dfrtp_1
* cell instance $235 m0 *1 41.86,24.48
X$235 18 66 69 68 37 18 8 77 8 sky130_fd_sc_hd__o31ai_1
* cell instance $236 m0 *1 44.62,24.48
X$236 8 26 70 33 85 18 18 8 sky130_fd_sc_hd__dfrtp_1
* cell instance $240 m0 *1 57.04,24.48
X$240 8 64 60 74 34 18 18 8 sky130_fd_sc_hd__mux2_1
* cell instance $243 m0 *1 63.94,24.48
X$243 18 60 59 8 18 8 sky130_fd_sc_hd__clkbuf_1
* cell instance $244 r0 *1 1.38,24.48
X$244 18 84 80 8 18 8 sky130_fd_sc_hd__clkbuf_1
* cell instance $245 r0 *1 2.76,24.48
X$245 18 79 102 8 18 8 sky130_fd_sc_hd__clkbuf_1
* cell instance $246 r0 *1 4.14,24.48
X$246 18 73 23 100 8 18 90 8 sky130_fd_sc_hd__a21oi_1
* cell instance $247 r0 *1 5.98,24.48
X$247 8 26 76 24 67 18 18 8 sky130_fd_sc_hd__dfrtp_1
* cell instance $250 r0 *1 15.64,24.48
X$250 8 86 80 62 81 18 18 8 sky130_fd_sc_hd__mux2i_1
* cell instance $253 r0 *1 20.7,24.48
X$253 18 81 8 14 18 8 sky130_fd_sc_hd__clkbuf_4
* cell instance $256 r0 *1 25.76,24.48
X$256 18 87 82 65 18 8 8 sky130_fd_sc_hd__nand2_1
* cell instance $259 r0 *1 29.44,24.48
X$259 8 26 69 33 94 18 18 8 sky130_fd_sc_hd__dfrtp_2
* cell instance $261 r0 *1 40.94,24.48
X$261 18 68 83 77 18 58 8 8 sky130_fd_sc_hd__o21ai_0
* cell instance $264 r0 *1 43.24,24.48
X$264 18 66 69 93 70 18 8 92 8 sky130_fd_sc_hd__o31ai_1
* cell instance $265 r0 *1 46,24.48
X$265 18 83 93 92 18 85 8 8 sky130_fd_sc_hd__o21ai_0
* cell instance $267 r0 *1 49.68,24.48
X$267 8 26 74 33 91 18 18 8 sky130_fd_sc_hd__dfrtp_1
* cell instance $276 m0 *1 2.3,29.92
X$276 8 26 72 24 90 18 18 8 sky130_fd_sc_hd__dfrtp_1
* cell instance $277 m0 *1 11.5,29.92
X$277 8 100 102 76 14 18 18 8 sky130_fd_sc_hd__mux2i_1
* cell instance $281 m0 *1 20.24,29.92
X$281 18 96 95 81 8 18 8 sky130_fd_sc_hd__nor2b_1
* cell instance $283 m0 *1 23.46,29.92
X$283 18 97 95 116 8 18 8 sky130_fd_sc_hd__nor2b_1
* cell instance $284 m0 *1 25.76,29.92
X$284 18 95 111 103 69 8 94 18 8 sky130_fd_sc_hd__a22o_1
* cell instance $286 m0 *1 29.44,29.92
X$286 18 96 95 101 8 18 8 sky130_fd_sc_hd__nand2b_1
* cell instance $288 m0 *1 32.2,29.92
X$288 18 101 8 34 18 8 sky130_fd_sc_hd__clkbuf_4
* cell instance $291 m0 *1 37.26,29.92
X$291 18 88 99 83 98 18 8 78 8 sky130_fd_sc_hd__o31ai_1
* cell instance $293 m0 *1 40.94,29.92
X$293 8 98 51 99 88 69 66 18 18 8 sky130_fd_sc_hd__o41ai_1
* cell instance $297 m0 *1 50.14,29.92
X$297 8 91 108 74 110 18 18 8 sky130_fd_sc_hd__mux2_1
* cell instance $302 m0 *1 57.5,29.92
X$302 8 109 106 125 34 18 18 8 sky130_fd_sc_hd__mux2_1
* cell instance $304 m0 *1 63.48,29.92
X$304 18 89 18 8 108 8 sky130_fd_sc_hd__clkbuf_2
* cell instance $316 r0 *1 24.38,29.92
X$316 18 103 116 66 18 87 8 8 sky130_fd_sc_hd__o21ai_0
* cell instance $317 r0 *1 26.22,29.92
X$317 18 88 97 14 82 18 8 8 sky130_fd_sc_hd__nand3_1
* cell instance $318 r0 *1 28.06,29.92
X$318 18 103 69 104 8 18 8 sky130_fd_sc_hd__nor2_1
* cell instance $319 r0 *1 29.44,29.92
X$319 18 97 104 119 18 8 8 sky130_fd_sc_hd__nand2_1
* cell instance $321 r0 *1 31.28,29.92
X$321 18 105 97 119 18 111 8 8 sky130_fd_sc_hd__o21ai_0
* cell instance $325 r0 *1 36.34,29.92
X$325 8 112 68 113 88 18 18 114 8 sky130_fd_sc_hd__or4b_1
* cell instance $332 r0 *1 47.38,29.92
X$332 18 68 117 110 8 18 8 sky130_fd_sc_hd__nor2_1
* cell instance $336 r0 *1 55.2,29.92
X$336 8 26 106 33 109 18 18 8 sky130_fd_sc_hd__dfrtp_1
* cell instance $348 m0 *1 23.46,35.36
X$348 18 96 8 103 18 8 sky130_fd_sc_hd__clkbuf_4
* cell instance $354 m0 *1 33.58,35.36
X$354 18 112 114 113 99 18 8 8 sky130_fd_sc_hd__or3b_1
* cell instance $355 m0 *1 36.8,35.36
X$355 8 93 114 112 113 88 18 18 8 sky130_fd_sc_hd__nand4bb_1
* cell instance $358 m0 *1 42.32,35.36
X$358 18 69 18 8 105 8 sky130_fd_sc_hd__inv_1
* cell instance $361 m0 *1 46,35.36
X$361 18 83 18 8 118 8 sky130_fd_sc_hd__inv_1
* cell instance $362 m0 *1 47.38,35.36
X$362 18 117 93 115 8 18 8 sky130_fd_sc_hd__nor2_1
* cell instance $371 m0 *1 63.94,35.36
X$371 18 106 107 8 18 8 sky130_fd_sc_hd__clkbuf_1
* cell instance $375 r0 *1 9.2,35.36
X$375 8 30 103 135 120 18 18 8 sky130_fd_sc_hd__a21oi_4
* cell instance $379 r0 *1 15.64,35.36
X$379 8 26 96 141 136 18 18 8 sky130_fd_sc_hd__dfrtp_1
* cell instance $380 r0 *1 24.84,35.36
X$380 8 142 114 121 130 18 18 96 8 sky130_fd_sc_hd__or4b_1
* cell instance $381 r0 *1 28.52,35.36
X$381 8 128 57 18 18 8 sky130_fd_sc_hd__clkbuf_8
* cell instance $382 r0 *1 33.58,35.36
X$382 8 201 121 66 143 18 18 8 sky130_fd_sc_hd__ha_1
* cell instance $383 r0 *1 38.18,35.36
X$383 18 138 145 121 137 8 127 18 8 sky130_fd_sc_hd__nor4_1
* cell instance $384 r0 *1 40.48,35.36
X$384 18 113 88 112 114 8 123 18 8 sky130_fd_sc_hd__nor4_1
* cell instance $388 r0 *1 43.24,35.36
X$388 18 105 134 127 117 18 8 8 sky130_fd_sc_hd__or3b_1
* cell instance $390 r0 *1 46.92,35.36
X$390 18 125 122 118 123 8 124 18 8 sky130_fd_sc_hd__a22o_1
* cell instance $391 r0 *1 50.14,35.36
X$391 8 26 125 126 124 18 18 8 sky130_fd_sc_hd__dfrtp_1
* cell instance $399 m0 *1 2.76,40.8
X$399 18 130 140 8 18 8 sky130_fd_sc_hd__clkbuf_1
* cell instance $402 m0 *1 6.44,40.8
X$402 18 95 129 149 18 8 8 sky130_fd_sc_hd__and2_0
* cell instance $403 m0 *1 8.74,40.8
X$403 18 103 130 129 18 8 8 sky130_fd_sc_hd__xnor2_1
* cell instance $406 m0 *1 13.34,40.8
X$406 18 130 131 142 135 18 8 8 sky130_fd_sc_hd__nand3_1
* cell instance $408 m0 *1 15.64,40.8
X$408 8 143 14 136 131 130 18 18 8 sky130_fd_sc_hd__and4b_1
* cell instance $412 m0 *1 24.38,40.8
X$412 18 130 121 8 18 97 8 sky130_fd_sc_hd__nor2b_2
* cell instance $417 m0 *1 29.9,40.8
X$417 18 66 18 8 133 8 sky130_fd_sc_hd__inv_1
* cell instance $418 m0 *1 31.28,40.8
X$418 18 132 144 113 18 8 8 sky130_fd_sc_hd__xnor2_1
* cell instance $420 m0 *1 34.96,40.8
X$420 8 138 150 133 139 18 18 8 sky130_fd_sc_hd__ha_1
* cell instance $422 m0 *1 40.48,40.8
X$422 18 133 105 123 122 18 8 8 sky130_fd_sc_hd__nand3_1
* cell instance $424 m0 *1 42.78,40.8
X$424 8 83 134 105 108 127 18 18 8 sky130_fd_sc_hd__nand4b_2
* cell instance $426 m0 *1 49.22,40.8
X$426 18 123 117 184 8 18 8 sky130_fd_sc_hd__nand2b_1
* cell instance $428 m0 *1 52.44,40.8
X$428 8 148 108 155 115 18 18 8 sky130_fd_sc_hd__mux2_1
* cell instance $433 r0 *1 1.38,40.8
X$433 8 26 130 141 149 18 18 8 sky130_fd_sc_hd__dfrtp_2
* cell instance $436 r0 *1 12.42,40.8
X$436 18 151 142 120 8 18 8 sky130_fd_sc_hd__nand2b_1
* cell instance $442 r0 *1 16.1,40.8
X$442 18 131 130 143 157 8 18 8 sky130_fd_sc_hd__nand3b_1
* cell instance $444 r0 *1 20.7,40.8
X$444 18 142 8 95 18 8 sky130_fd_sc_hd__buf_2
* cell instance $445 r0 *1 22.54,40.8
X$445 8 145 131 133 143 18 18 8 sky130_fd_sc_hd__ha_1
* cell instance $446 r0 *1 27.14,40.8
X$446 8 143 66 144 132 18 18 8 sky130_fd_sc_hd__nand3b_2
* cell instance $447 r0 *1 31.28,40.8
X$447 8 88 146 133 167 18 18 8 sky130_fd_sc_hd__ha_1
* cell instance $448 r0 *1 35.88,40.8
X$448 18 145 137 138 156 18 8 8 sky130_fd_sc_hd__nand3_1
* cell instance $450 r0 *1 38.64,40.8
X$450 8 88 152 150 146 18 18 160 8 sky130_fd_sc_hd__or4b_1
* cell instance $456 r0 *1 43.7,40.8
X$456 18 105 153 152 154 18 8 8 sky130_fd_sc_hd__or3_1
* cell instance $457 r0 *1 46,40.8
X$457 18 156 99 154 193 8 18 8 sky130_fd_sc_hd__nor3_1
* cell instance $460 r0 *1 52.44,40.8
X$460 8 26 155 126 148 18 18 8 sky130_fd_sc_hd__dfrtp_1
* cell instance $466 m0 *1 5.52,46.24
X$466 8 26 142 141 158 18 18 8 sky130_fd_sc_hd__dfrtp_1
* cell instance $467 m0 *1 14.72,46.24
X$467 18 103 120 159 8 18 158 8 sky130_fd_sc_hd__a21oi_1
* cell instance $468 m0 *1 16.56,46.24
X$468 18 95 157 159 18 8 8 sky130_fd_sc_hd__nand2_1
* cell instance $469 m0 *1 17.94,46.24
X$469 8 57 141 18 18 8 sky130_fd_sc_hd__clkbuf_8
* cell instance $470 m0 *1 23,46.24
X$470 18 163 18 8 168 8 sky130_fd_sc_hd__inv_1
* cell instance $471 m0 *1 24.38,46.24
X$471 18 103 97 112 179 8 18 8 sky130_fd_sc_hd__nand3b_1
* cell instance $472 m0 *1 27.14,46.24
X$472 18 132 97 14 169 18 8 8 sky130_fd_sc_hd__nand3_1
* cell instance $474 m0 *1 29.44,46.24
X$474 8 112 132 69 163 18 18 8 sky130_fd_sc_hd__ha_1
* cell instance $476 m0 *1 34.5,46.24
X$476 18 143 18 8 162 8 sky130_fd_sc_hd__inv_1
* cell instance $477 m0 *1 35.88,46.24
X$477 8 137 160 133 166 18 18 8 sky130_fd_sc_hd__ha_1
* cell instance $478 m0 *1 40.48,46.24
X$478 18 153 146 160 150 18 134 8 8 sky130_fd_sc_hd__nand4b_1
* cell instance $480 m0 *1 44.16,46.24
X$480 8 200 153 66 162 18 18 8 sky130_fd_sc_hd__ha_1
* cell instance $486 m0 *1 57.5,46.24
X$486 8 164 161 155 34 18 18 8 sky130_fd_sc_hd__mux2_1
* cell instance $489 m0 *1 63.94,46.24
X$489 18 161 147 8 18 8 sky130_fd_sc_hd__clkbuf_1
* cell instance $490 r0 *1 1.38,46.24
X$490 18 171 175 8 18 8 sky130_fd_sc_hd__clkbuf_1
* cell instance $492 r0 *1 3.68,46.24
X$492 18 170 151 8 18 8 sky130_fd_sc_hd__clkbuf_1
* cell instance $494 r0 *1 5.98,46.24
X$494 18 171 95 165 8 18 8 sky130_fd_sc_hd__nor2b_1
* cell instance $495 r0 *1 8.28,46.24
X$495 18 165 151 172 8 18 176 8 sky130_fd_sc_hd__a21oi_1
* cell instance $496 r0 *1 10.12,46.24
X$496 18 95 103 172 8 18 8 sky130_fd_sc_hd__nor2_1
* cell instance $497 r0 *1 11.5,46.24
X$497 18 188 172 177 8 18 8 sky130_fd_sc_hd__nor2_1
* cell instance $505 r0 *1 16.1,46.24
X$505 18 168 97 179 18 178 8 8 sky130_fd_sc_hd__o21ai_0
* cell instance $506 r0 *1 17.94,46.24
X$506 8 141 18 18 8 sky130_fd_sc_hd__bufinv_16
* cell instance $507 r0 *1 28.98,46.24
X$507 18 95 132 97 8 18 180 8 sky130_fd_sc_hd__a21boi_0
* cell instance $508 r0 *1 31.74,46.24
X$508 18 144 69 163 167 18 8 8 sky130_fd_sc_hd__nand3_1
* cell instance $509 r0 *1 33.58,46.24
X$509 18 66 144 132 139 8 18 8 sky130_fd_sc_hd__nand3b_1
* cell instance $511 r0 *1 37.26,46.24
X$511 18 133 167 166 8 18 8 sky130_fd_sc_hd__nand2b_1
* cell instance $519 r0 *1 43.24,46.24
X$519 8 57 126 18 18 8 sky130_fd_sc_hd__clkbuf_8
* cell instance $524 r0 *1 55.2,46.24
X$524 8 26 161 126 164 18 18 8 sky130_fd_sc_hd__dfrtp_1
* cell instance $527 m0 *1 2.3,51.68
X$527 8 189 171 141 176 18 18 8 sky130_fd_sc_hd__dfstp_1
* cell instance $528 m0 *1 11.96,51.68
X$528 18 177 151 172 8 18 185 8 sky130_fd_sc_hd__a21oi_1
* cell instance $531 m0 *1 16.56,51.68
X$531 18 95 178 103 163 8 173 18 8 sky130_fd_sc_hd__a22o_1
* cell instance $532 m0 *1 19.78,51.68
X$532 8 26 163 141 173 18 18 8 sky130_fd_sc_hd__dfrtp_1
* cell instance $534 m0 *1 29.44,51.68
X$534 18 144 169 174 18 186 8 8 sky130_fd_sc_hd__o21ai_0
* cell instance $535 m0 *1 31.28,51.68
X$535 18 103 180 144 18 174 8 8 sky130_fd_sc_hd__o21ai_0
* cell instance $539 m0 *1 41.4,51.68
X$539 8 126 18 18 8 sky130_fd_sc_hd__bufinv_16
* cell instance $540 m0 *1 52.44,51.68
X$540 8 191 183 108 184 18 18 8 sky130_fd_sc_hd__mux2_1
* cell instance $546 r0 *1 2.3,51.68
X$546 8 189 188 141 185 18 18 8 sky130_fd_sc_hd__dfstp_1
* cell instance $556 r0 *1 24.38,51.68
X$556 8 26 144 141 186 18 18 8 sky130_fd_sc_hd__dfrtp_2
* cell instance $564 r0 *1 44.16,51.68
X$564 8 192 108 194 193 18 18 8 sky130_fd_sc_hd__mux2_1
* cell instance $567 r0 *1 49.68,51.68
X$567 8 26 183 126 191 18 18 8 sky130_fd_sc_hd__dfrtp_1
* cell instance $571 r0 *1 63.94,51.68
X$571 18 190 182 8 18 8 sky130_fd_sc_hd__clkbuf_1
* cell instance $572 m0 *1 1.38,57.12
X$572 18 188 181 8 18 8 sky130_fd_sc_hd__clkbuf_1
* cell instance $575 m0 *1 4.14,57.12
X$575 8 189 197 18 18 8 sky130_fd_sc_hd__dlymetal6s2s_1
* cell instance $576 m0 *1 8.74,57.12
X$576 8 189 26 18 18 8 sky130_fd_sc_hd__buf_12
* cell instance $587 m0 *1 37.72,57.12
X$587 8 26 194 126 192 18 18 8 sky130_fd_sc_hd__dfrtp_1
* cell instance $596 m0 *1 57.96,57.12
X$596 8 195 190 183 34 18 18 8 sky130_fd_sc_hd__mux2_1
* cell instance $601 r0 *1 2.3,57.12
X$601 18 187 18 197 8 8 sky130_fd_sc_hd__dlygate4sd3_1
* cell instance $619 r0 *1 44.16,57.12
X$619 8 198 196 194 34 18 18 8 sky130_fd_sc_hd__mux2_1
* cell instance $623 r0 *1 54.74,57.12
X$623 8 26 190 126 195 18 18 8 sky130_fd_sc_hd__dfrtp_1
* cell instance $643 m0 *1 42.32,62.56
X$643 8 26 196 126 198 18 18 8 sky130_fd_sc_hd__dfrtp_1
* cell instance $673 r0 *1 47.38,62.56
X$673 18 196 199 8 18 8 sky130_fd_sc_hd__clkbuf_1
.ENDS fixed_spi_master

* cell sky130_fd_sc_hd__o41ai_1
* pin VGND
* pin Y
* pin B1
* pin A4
* pin A3
* pin A2
* pin A1
* pin VPWR
* pin VPB
* pin 
.SUBCKT sky130_fd_sc_hd__o41ai_1 1 2 4 5 6 7 8 9 10 14
* net 1 VGND
* net 2 Y
* net 4 B1
* net 5 A4
* net 6 A3
* net 7 A2
* net 8 A1
* net 9 VPWR
* net 10 VPB
* device instance $1 r0 *1 0.47,1.985 pfet_01v8_hvt
M$1 2 4 9 10 pfet_01v8_hvt L=150000U W=1000000U AS=260000000000P
+ AD=135000000000P PS=2520000U PD=1270000U
* device instance $2 r0 *1 0.89,1.985 pfet_01v8_hvt
M$2 11 5 2 10 pfet_01v8_hvt L=150000U W=1000000U AS=135000000000P
+ AD=312500000000P PS=1270000U PD=1625000U
* device instance $3 r0 *1 1.665,1.985 pfet_01v8_hvt
M$3 13 6 11 10 pfet_01v8_hvt L=150000U W=1000000U AS=312500000000P
+ AD=135000000000P PS=1625000U PD=1270000U
* device instance $4 r0 *1 2.085,1.985 pfet_01v8_hvt
M$4 12 7 13 10 pfet_01v8_hvt L=150000U W=1000000U AS=135000000000P
+ AD=175000000000P PS=1270000U PD=1350000U
* device instance $5 r0 *1 2.585,1.985 pfet_01v8_hvt
M$5 9 8 12 10 pfet_01v8_hvt L=150000U W=1000000U AS=175000000000P
+ AD=280000000000P PS=1350000U PD=2560000U
* device instance $6 r0 *1 0.47,0.56 nfet_01v8
M$6 3 4 2 14 nfet_01v8 L=150000U W=650000U AS=169000000000P AD=203125000000P
+ PS=1820000U PD=1275000U
* device instance $7 r0 *1 1.245,0.56 nfet_01v8
M$7 1 5 3 14 nfet_01v8 L=150000U W=650000U AS=203125000000P AD=87750000000P
+ PS=1275000U PD=920000U
* device instance $8 r0 *1 1.665,0.56 nfet_01v8
M$8 3 6 1 14 nfet_01v8 L=150000U W=650000U AS=87750000000P AD=87750000000P
+ PS=920000U PD=920000U
* device instance $9 r0 *1 2.085,0.56 nfet_01v8
M$9 1 7 3 14 nfet_01v8 L=150000U W=650000U AS=87750000000P AD=113750000000P
+ PS=920000U PD=1000000U
* device instance $10 r0 *1 2.585,0.56 nfet_01v8
M$10 3 8 1 14 nfet_01v8 L=150000U W=650000U AS=113750000000P AD=182000000000P
+ PS=1000000U PD=1860000U
.ENDS sky130_fd_sc_hd__o41ai_1

* cell sky130_fd_sc_hd__o31ai_1
* pin VPB
* pin A1
* pin A2
* pin A3
* pin B1
* pin VPWR
* pin VGND
* pin Y
* pin 
.SUBCKT sky130_fd_sc_hd__o31ai_1 1 2 3 4 5 6 7 9 10
* net 1 VPB
* net 2 A1
* net 3 A2
* net 4 A3
* net 5 B1
* net 6 VPWR
* net 7 VGND
* net 9 Y
* device instance $1 r0 *1 0.47,1.985 pfet_01v8_hvt
M$1 12 2 6 1 pfet_01v8_hvt L=150000U W=1000000U AS=260000000000P
+ AD=135000000000P PS=2520000U PD=1270000U
* device instance $2 r0 *1 0.89,1.985 pfet_01v8_hvt
M$2 11 3 12 1 pfet_01v8_hvt L=150000U W=1000000U AS=135000000000P
+ AD=135000000000P PS=1270000U PD=1270000U
* device instance $3 r0 *1 1.31,1.985 pfet_01v8_hvt
M$3 9 4 11 1 pfet_01v8_hvt L=150000U W=1000000U AS=135000000000P
+ AD=392500000000P PS=1270000U PD=1785000U
* device instance $4 r0 *1 2.245,1.985 pfet_01v8_hvt
M$4 6 5 9 1 pfet_01v8_hvt L=150000U W=1000000U AS=392500000000P
+ AD=300000000000P PS=1785000U PD=2600000U
* device instance $5 r0 *1 0.47,0.56 nfet_01v8
M$5 8 2 7 10 nfet_01v8 L=150000U W=650000U AS=169000000000P AD=87750000000P
+ PS=1820000U PD=920000U
* device instance $6 r0 *1 0.89,0.56 nfet_01v8
M$6 7 3 8 10 nfet_01v8 L=150000U W=650000U AS=87750000000P AD=87750000000P
+ PS=920000U PD=920000U
* device instance $7 r0 *1 1.31,0.56 nfet_01v8
M$7 8 4 7 10 nfet_01v8 L=150000U W=650000U AS=87750000000P AD=198250000000P
+ PS=920000U PD=1260000U
* device instance $8 r0 *1 2.07,0.56 nfet_01v8
M$8 9 5 8 10 nfet_01v8 L=150000U W=650000U AS=198250000000P AD=221000000000P
+ PS=1260000U PD=1980000U
.ENDS sky130_fd_sc_hd__o31ai_1

* cell sky130_fd_sc_hd__clkbuf_2
* pin VPB
* pin A
* pin VPWR
* pin VGND
* pin X
* pin 
.SUBCKT sky130_fd_sc_hd__clkbuf_2 1 2 3 4 6 7
* net 1 VPB
* net 2 A
* net 3 VPWR
* net 4 VGND
* net 6 X
* device instance $1 r0 *1 0.475,1.985 pfet_01v8_hvt
M$1 3 2 5 1 pfet_01v8_hvt L=150000U W=1000000U AS=265000000000P
+ AD=162500000000P PS=2530000U PD=1325000U
* device instance $2 r0 *1 0.95,1.985 pfet_01v8_hvt
M$2 6 5 3 1 pfet_01v8_hvt L=150000U W=2000000U AS=297500000000P
+ AD=395000000000P PS=2595000U PD=3790000U
* device instance $4 r0 *1 0.475,0.445 nfet_01v8
M$4 4 2 5 7 nfet_01v8 L=150000U W=420000U AS=111300000000P AD=68250000000P
+ PS=1370000U PD=745000U
* device instance $5 r0 *1 0.95,0.445 nfet_01v8
M$5 6 5 4 7 nfet_01v8 L=150000U W=840000U AS=124950000000P AD=165900000000P
+ PS=1435000U PD=2050000U
.ENDS sky130_fd_sc_hd__clkbuf_2

* cell sky130_fd_sc_hd__mux2i_1
* pin VGND
* pin Y
* pin A0
* pin A1
* pin S
* pin VPWR
* pin VPB
* pin 
.SUBCKT sky130_fd_sc_hd__mux2i_1 1 3 6 7 8 10 11 13
* net 1 VGND
* net 3 Y
* net 6 A0
* net 7 A1
* net 8 S
* net 10 VPWR
* net 11 VPB
* device instance $1 r0 *1 3.21,1.985 pfet_01v8_hvt
M$1 10 8 5 11 pfet_01v8_hvt L=150000U W=1000000U AS=290000000000P
+ AD=260000000000P PS=2580000U PD=2520000U
* device instance $2 r0 *1 0.49,1.985 pfet_01v8_hvt
M$2 3 6 9 11 pfet_01v8_hvt L=150000U W=1000000U AS=280000000000P
+ AD=152500000000P PS=2560000U PD=1305000U
* device instance $3 r0 *1 0.945,1.985 pfet_01v8_hvt
M$3 12 7 3 11 pfet_01v8_hvt L=150000U W=1000000U AS=152500000000P
+ AD=197500000000P PS=1305000U PD=1395000U
* device instance $4 r0 *1 1.49,1.985 pfet_01v8_hvt
M$4 10 5 12 11 pfet_01v8_hvt L=150000U W=1000000U AS=197500000000P
+ AD=300000000000P PS=1395000U PD=1600000U
* device instance $5 r0 *1 2.24,1.985 pfet_01v8_hvt
M$5 9 8 10 11 pfet_01v8_hvt L=150000U W=1000000U AS=300000000000P
+ AD=260000000000P PS=1600000U PD=2520000U
* device instance $6 r0 *1 3.21,0.56 nfet_01v8
M$6 1 8 5 13 nfet_01v8 L=150000U W=650000U AS=169000000000P AD=169000000000P
+ PS=1820000U PD=1820000U
* device instance $7 r0 *1 1.85,0.56 nfet_01v8
M$7 1 5 2 13 nfet_01v8 L=150000U W=650000U AS=169000000000P AD=87750000000P
+ PS=1820000U PD=920000U
* device instance $8 r0 *1 2.27,0.56 nfet_01v8
M$8 4 8 1 13 nfet_01v8 L=150000U W=650000U AS=87750000000P AD=169000000000P
+ PS=920000U PD=1820000U
* device instance $9 r0 *1 0.47,0.56 nfet_01v8
M$9 3 6 2 13 nfet_01v8 L=150000U W=650000U AS=169000000000P AD=87750000000P
+ PS=1820000U PD=920000U
* device instance $10 r0 *1 0.89,0.56 nfet_01v8
M$10 4 7 3 13 nfet_01v8 L=150000U W=650000U AS=87750000000P AD=182000000000P
+ PS=920000U PD=1860000U
.ENDS sky130_fd_sc_hd__mux2i_1

* cell sky130_fd_sc_hd__nor2b_2
* pin VPB
* pin B_N
* pin A
* pin VGND
* pin VPWR
* pin Y
* pin 
.SUBCKT sky130_fd_sc_hd__nor2b_2 1 2 4 5 7 8 9
* net 1 VPB
* net 2 B_N
* net 4 A
* net 5 VGND
* net 7 VPWR
* net 8 Y
* device instance $1 r0 *1 2.69,2.275 pfet_01v8_hvt
M$1 7 2 3 1 pfet_01v8_hvt L=150000U W=420000U AS=109200000000P AD=109200000000P
+ PS=1360000U PD=1360000U
* device instance $2 r0 *1 0.49,1.985 pfet_01v8_hvt
M$2 7 4 6 1 pfet_01v8_hvt L=150000U W=2000000U AS=415000000000P
+ AD=270000000000P PS=3830000U PD=2540000U
* device instance $4 r0 *1 1.33,1.985 pfet_01v8_hvt
M$4 8 3 6 1 pfet_01v8_hvt L=150000U W=2000000U AS=270000000000P
+ AD=395000000000P PS=2540000U PD=3790000U
* device instance $6 r0 *1 2.69,0.675 nfet_01v8
M$6 5 2 3 9 nfet_01v8 L=150000U W=420000U AS=109200000000P AD=109200000000P
+ PS=1360000U PD=1360000U
* device instance $7 r0 *1 0.49,0.56 nfet_01v8
M$7 8 4 5 9 nfet_01v8 L=150000U W=1300000U AS=266500000000P AD=175500000000P
+ PS=2770000U PD=1840000U
* device instance $9 r0 *1 1.33,0.56 nfet_01v8
M$9 8 3 5 9 nfet_01v8 L=150000U W=1300000U AS=175500000000P AD=256750000000P
+ PS=1840000U PD=2740000U
.ENDS sky130_fd_sc_hd__nor2b_2

* cell sky130_fd_sc_hd__a21boi_0
* pin VPB
* pin B1_N
* pin A1
* pin A2
* pin VGND
* pin VPWR
* pin Y
* pin 
.SUBCKT sky130_fd_sc_hd__a21boi_0 1 2 3 4 6 8 9 10
* net 1 VPB
* net 2 B1_N
* net 3 A1
* net 4 A2
* net 6 VGND
* net 8 VPWR
* net 9 Y
* device instance $1 r0 *1 1.425,2.165 pfet_01v8_hvt
M$1 5 7 9 1 pfet_01v8_hvt L=150000U W=640000U AS=169600000000P AD=89600000000P
+ PS=1810000U PD=920000U
* device instance $2 r0 *1 1.855,2.165 pfet_01v8_hvt
M$2 8 3 5 1 pfet_01v8_hvt L=150000U W=640000U AS=89600000000P AD=89600000000P
+ PS=920000U PD=920000U
* device instance $3 r0 *1 2.285,2.165 pfet_01v8_hvt
M$3 5 4 8 1 pfet_01v8_hvt L=150000U W=640000U AS=89600000000P AD=169600000000P
+ PS=920000U PD=1810000U
* device instance $4 r0 *1 0.475,2.275 pfet_01v8_hvt
M$4 8 2 7 1 pfet_01v8_hvt L=150000U W=420000U AS=111300000000P AD=111300000000P
+ PS=1370000U PD=1370000U
* device instance $5 r0 *1 0.475,0.445 nfet_01v8
M$5 6 2 7 10 nfet_01v8 L=150000U W=420000U AS=111300000000P AD=130200000000P
+ PS=1370000U PD=1040000U
* device instance $6 r0 *1 1.245,0.445 nfet_01v8
M$6 9 7 6 10 nfet_01v8 L=150000U W=420000U AS=130200000000P AD=111300000000P
+ PS=1040000U PD=950000U
* device instance $7 r0 *1 1.925,0.445 nfet_01v8
M$7 11 3 9 10 nfet_01v8 L=150000U W=420000U AS=111300000000P AD=44100000000P
+ PS=950000U PD=630000U
* device instance $8 r0 *1 2.285,0.445 nfet_01v8
M$8 6 4 11 10 nfet_01v8 L=150000U W=420000U AS=44100000000P AD=111300000000P
+ PS=630000U PD=1370000U
.ENDS sky130_fd_sc_hd__a21boi_0

* cell sky130_fd_sc_hd__nand3b_2
* pin VGND
* pin Y
* pin A_N
* pin C
* pin B
* pin VPWR
* pin VPB
* pin 
.SUBCKT sky130_fd_sc_hd__nand3b_2 1 5 6 7 8 9 10 11
* net 1 VGND
* net 5 Y
* net 6 A_N
* net 7 C
* net 8 B
* net 9 VPWR
* net 10 VPB
* device instance $1 r0 *1 3.215,1.985 pfet_01v8_hvt
M$1 5 2 9 10 pfet_01v8_hvt L=150000U W=2000000U AS=395000000000P
+ AD=395000000000P PS=3790000U PD=3790000U
* device instance $3 r0 *1 0.47,2.275 pfet_01v8_hvt
M$3 2 6 9 10 pfet_01v8_hvt L=150000U W=420000U AS=175750000000P
+ AD=109200000000P PS=1395000U PD=1360000U
* device instance $4 r0 *1 1.015,1.985 pfet_01v8_hvt
M$4 5 7 9 10 pfet_01v8_hvt L=150000U W=2000000U AS=310750000000P
+ AD=270000000000P PS=2665000U PD=2540000U
* device instance $6 r0 *1 1.855,1.985 pfet_01v8_hvt
M$6 5 8 9 10 pfet_01v8_hvt L=150000U W=2000000U AS=270000000000P
+ AD=395000000000P PS=2540000U PD=3790000U
* device instance $8 r0 *1 2.375,0.56 nfet_01v8
M$8 3 8 4 11 nfet_01v8 L=150000U W=1300000U AS=256750000000P AD=175500000000P
+ PS=2740000U PD=1840000U
* device instance $10 r0 *1 3.215,0.56 nfet_01v8
M$10 5 2 4 11 nfet_01v8 L=150000U W=1300000U AS=175500000000P AD=256750000000P
+ PS=1840000U PD=2740000U
* device instance $12 r0 *1 0.47,0.445 nfet_01v8
M$12 1 6 2 11 nfet_01v8 L=150000U W=420000U AS=109200000000P AD=119750000000P
+ PS=1360000U PD=1045000U
* device instance $13 r0 *1 1.015,0.56 nfet_01v8
M$13 3 7 1 11 nfet_01v8 L=150000U W=1300000U AS=207500000000P AD=256750000000P
+ PS=1965000U PD=2740000U
.ENDS sky130_fd_sc_hd__nand3b_2

* cell sky130_fd_sc_hd__buf_2
* pin VPB
* pin A
* pin VGND
* pin X
* pin VPWR
* pin 
.SUBCKT sky130_fd_sc_hd__buf_2 1 3 4 5 6 7
* net 1 VPB
* net 3 A
* net 4 VGND
* net 5 X
* net 6 VPWR
* device instance $1 r0 *1 0.47,2.125 pfet_01v8_hvt
M$1 2 3 6 1 pfet_01v8_hvt L=150000U W=640000U AS=149000000000P AD=166400000000P
+ PS=1325000U PD=1800000U
* device instance $2 r0 *1 0.945,1.985 pfet_01v8_hvt
M$2 5 2 6 1 pfet_01v8_hvt L=150000U W=2000000U AS=284000000000P
+ AD=400000000000P PS=2595000U PD=3800000U
* device instance $4 r0 *1 0.47,0.445 nfet_01v8
M$4 4 3 2 7 nfet_01v8 L=150000U W=420000U AS=109200000000P AD=97000000000P
+ PS=1360000U PD=975000U
* device instance $5 r0 *1 0.945,0.56 nfet_01v8
M$5 5 2 4 7 nfet_01v8 L=150000U W=1300000U AS=184750000000P AD=260000000000P
+ PS=1895000U PD=2750000U
.ENDS sky130_fd_sc_hd__buf_2

* cell sky130_fd_sc_hd__a21oi_4
* pin VGND
* pin Y
* pin B1
* pin A2
* pin A1
* pin VPWR
* pin VPB
* pin 
.SUBCKT sky130_fd_sc_hd__a21oi_4 1 2 4 5 6 7 8 10
* net 1 VGND
* net 2 Y
* net 4 B1
* net 5 A2
* net 6 A1
* net 7 VPWR
* net 8 VPB
* device instance $1 r0 *1 0.475,1.985 pfet_01v8_hvt
M$1 2 4 9 8 pfet_01v8_hvt L=150000U W=4000000U AS=680000000000P
+ AD=575000000000P PS=6360000U PD=5150000U
* device instance $5 r0 *1 2.225,1.985 pfet_01v8_hvt
M$5 7 5 9 8 pfet_01v8_hvt L=150000U W=4000000U AS=575000000000P
+ AD=690000000000P PS=5150000U PD=6380000U
* device instance $6 r0 *1 2.665,1.985 pfet_01v8_hvt
M$6 9 6 7 8 pfet_01v8_hvt L=150000U W=4000000U AS=565000000000P
+ AD=560000000000P PS=5130000U PD=5120000U
* device instance $13 r0 *1 0.475,0.56 nfet_01v8
M$13 2 4 1 10 nfet_01v8 L=150000U W=2600000U AS=445250000000P AD=377000000000P
+ PS=4620000U PD=3760000U
* device instance $17 r0 *1 2.235,0.56 nfet_01v8
M$17 3 5 1 10 nfet_01v8 L=150000U W=2600000U AS=377000000000P AD=445250000000P
+ PS=3760000U PD=4620000U
* device instance $18 r0 *1 2.665,0.56 nfet_01v8
M$18 2 6 3 10 nfet_01v8 L=150000U W=2600000U AS=364000000000P AD=364000000000P
+ PS=3720000U PD=3720000U
.ENDS sky130_fd_sc_hd__a21oi_4

* cell sky130_fd_sc_hd__and2_0
* pin VPB