
* cell fwft_fifo
* pin wr_data[4]
* pin data_count[1]
* pin almost_full
* pin almost_empty
* pin data_count[0]
* pin wr_en
* pin data_count[3]
* pin data_count[4]
* pin full
* pin rd_en
* pin empty
* pin rst_n
* pin data_count[2]
* pin rd_data[3]
* pin rd_data[4]
* pin rd_data[7]
* pin wr_data[2]
* pin rd_data[5]
* pin clk
* pin rd_data[6]
* pin rd_data[1]
* pin rd_data[0]
* pin rd_data[2]
* pin wr_data[7]
* pin wr_data[3]
* pin wr_data[5]
* pin wr_data[6]
* pin wr_data[1]
* pin wr_data[0]
.SUBCKT fwft_fifo 1 2 3 4 5 6 7 8 9 10 11 12 13 63 73 182 219 255 275 283 297
+ 298 299 316 324 341 374 380 381
* net 1 wr_data[4]
* net 2 data_count[1]
* net 3 almost_full
* net 4 almost_empty
* net 5 data_count[0]
* net 6 wr_en
* net 7 data_count[3]
* net 8 data_count[4]
* net 9 full
* net 10 rd_en
* net 11 empty
* net 12 rst_n
* net 13 data_count[2]
* net 63 rd_data[3]
* net 73 rd_data[4]
* net 182 rd_data[7]
* net 219 wr_data[2]
* net 255 rd_data[5]
* net 275 clk
* net 283 rd_data[6]
* net 297 rd_data[1]
* net 298 rd_data[0]
* net 299 rd_data[2]
* net 316 wr_data[7]
* net 324 wr_data[3]
* net 341 wr_data[5]
* net 374 wr_data[6]
* net 380 wr_data[1]
* net 381 wr_data[0]
* cell instance $3 r0 *1 11.5,2.72
X$3 36 1 36 17 24 17 sky130_fd_sc_hd__buf_4
* cell instance $7 r0 *1 37.26,2.72
X$7 36 27 2 17 36 17 sky130_fd_sc_hd__clkbuf_1
* cell instance $12 r0 *1 35.88,2.72
X$12 36 39 3 17 36 17 sky130_fd_sc_hd__clkbuf_1
* cell instance $17 r0 *1 40.02,2.72
X$17 36 18 4 17 36 17 sky130_fd_sc_hd__clkbuf_1
* cell instance $22 r0 *1 41.4,2.72
X$22 36 19 5 17 36 17 sky130_fd_sc_hd__clkbuf_1
* cell instance $26 r0 *1 46.92,2.72
X$26 36 6 30 17 36 17 sky130_fd_sc_hd__clkbuf_1
* cell instance $31 r0 *1 43.24,2.72
X$31 36 22 7 17 36 17 sky130_fd_sc_hd__clkbuf_1
* cell instance $34 r0 *1 48.3,2.72
X$34 36 23 8 17 36 17 sky130_fd_sc_hd__clkbuf_1
* cell instance $37 r0 *1 55.2,2.72
X$37 36 28 9 17 36 17 sky130_fd_sc_hd__clkbuf_1
* cell instance $40 r0 *1 63.94,2.72
X$40 36 10 36 17 15 17 sky130_fd_sc_hd__clkbuf_2
* cell instance $43 r0 *1 81.42,2.72
X$43 36 20 11 17 36 17 sky130_fd_sc_hd__clkbuf_1
* cell instance $45 r0 *1 86.48,2.72
X$45 36 12 36 16 17 17 sky130_fd_sc_hd__dlygate4sd3_1
* cell instance $49 r0 *1 38.64,2.72
X$49 36 14 13 17 36 17 sky130_fd_sc_hd__clkbuf_1
* cell instance $58 r0 *1 36.8,13.6
X$58 17 120 97 14 36 36 17 sky130_fd_sc_hd__xor2_2
* cell instance $61 m0 *1 38.64,8.16
X$61 17 39 14 22 27 23 36 36 17 sky130_fd_sc_hd__a31o_1
* cell instance $63 r0 *1 40.48,8.16
X$63 36 52 14 22 23 17 18 36 17 sky130_fd_sc_hd__nor4_1
* cell instance $65 r0 *1 45.54,8.16
X$65 36 14 19 53 27 17 56 36 17 sky130_fd_sc_hd__nor4_1
* cell instance $68 r0 *1 44.62,2.72
X$68 36 14 19 21 27 17 29 36 17 sky130_fd_sc_hd__nor4_1
* cell instance $74 r0 *1 75.44,8.16
X$74 17 54 60 20 68 15 36 36 17 sky130_fd_sc_hd__o2bb2ai_4
* cell instance $76 r0 *1 75.9,2.72
X$76 36 15 20 40 36 46 17 17 sky130_fd_sc_hd__o21ai_0
* cell instance $81 r0 *1 63.94,8.16
X$81 36 15 60 54 36 17 61 17 sky130_fd_sc_hd__a21boi_1
* cell instance $83 r0 *1 74.52,13.6
X$83 36 50 15 93 99 36 71 17 17 sky130_fd_sc_hd__nand4_1
* cell instance $85 r0 *1 76.82,13.6
X$85 36 82 15 99 98 36 104 17 17 sky130_fd_sc_hd__nand4_1
* cell instance $88 r0 *1 61.18,13.6
X$88 36 15 98 107 36 17 17 sky130_fd_sc_hd__nand2_1
* cell instance $92 r0 *1 85.1,2.72
X$92 36 16 35 17 36 17 sky130_fd_sc_hd__clkbuf_1
* cell instance $124 r0 *1 30.82,2.72
X$124 36 31 32 36 45 17 17 sky130_fd_sc_hd__xor2_1
* cell instance $131 r0 *1 52.9,2.72
X$131 36 23 54 28 36 17 17 sky130_fd_sc_hd__and2_0
* cell instance $145 r0 *1 82.8,2.72
X$145 36 25 36 17 20 17 sky130_fd_sc_hd__inv_1
* cell instance $170 m0 *1 17.94,8.16
X$170 17 31 38 57 24 36 36 17 sky130_fd_sc_hd__edfxtp_1
* cell instance $172 m0 *1 29.44,8.16
X$172 17 41 32 43 45 36 36 17 sky130_fd_sc_hd__dfrtp_1
* cell instance $173 m0 *1 41.86,8.16
X$173 36 33 21 22 36 17 17 sky130_fd_sc_hd__xnor2_1
* cell instance $174 m0 *1 45.08,8.16
X$174 17 131 29 56 33 36 36 17 sky130_fd_sc_hd__mux2_1
* cell instance $176 m0 *1 50.14,8.16
X$176 17 48 26 32 36 36 17 sky130_fd_sc_hd__xnor2_2
* cell instance $181 m0 *1 58.42,8.16
X$181 17 47 51 50 61 36 36 17 sky130_fd_sc_hd__mux2_1
* cell instance $184 m0 *1 63.94,8.16
X$184 17 44 37 34 49 36 36 17 sky130_fd_sc_hd__edfxtp_1
* cell instance $185 m0 *1 74.98,8.16
X$185 17 41 25 34 46 36 36 17 sky130_fd_sc_hd__dfrtp_1
* cell instance $187 m0 *1 84.64,8.16
X$187 17 25 40 44 35 36 36 17 sky130_fd_sc_hd__nor3b_4
* cell instance $188 m0 *1 91.54,8.16
X$188 17 35 41 36 36 17 sky130_fd_sc_hd__buf_8
* cell instance $189 m0 *1 97.06,8.16
X$189 17 41 65 42 85 36 36 17 sky130_fd_sc_hd__dfrtp_1
* cell instance $193 r0 *1 4.14,8.16
X$193 17 31 67 57 64 36 36 17 sky130_fd_sc_hd__edfxtp_1
* cell instance $198 r0 *1 17.94,8.16
X$198 17 58 69 57 24 36 36 17 sky130_fd_sc_hd__edfxtp_1
* cell instance $202 r0 *1 37.26,8.16
X$202 36 27 59 36 52 17 17 sky130_fd_sc_hd__xor2_1
* cell instance $206 r0 *1 43.7,8.16
X$206 36 59 36 17 19 17 sky130_fd_sc_hd__inv_1
* cell instance $208 r0 *1 47.84,8.16
X$208 36 53 36 17 21 17 sky130_fd_sc_hd__inv_1
* cell instance $210 r0 *1 50.14,8.16
X$210 36 60 17 23 36 17 sky130_fd_sc_hd__clkinv_4
* cell instance $211 r0 *1 53.36,8.16
X$211 17 41 50 34 47 36 36 17 sky130_fd_sc_hd__dfrtp_4
* cell instance $217 r0 *1 73.14,8.16
X$217 36 60 54 40 36 17 17 sky130_fd_sc_hd__and2_0
* cell instance $220 r0 *1 86.94,8.16
X$220 17 44 26 42 55 36 36 17 sky130_fd_sc_hd__edfxtp_1
* cell instance $223 r0 *1 98.44,8.16
X$223 36 62 26 36 66 17 17 sky130_fd_sc_hd__xor2_1
* cell instance $226 r0 *1 103.04,8.16
X$226 36 65 63 17 36 17 sky130_fd_sc_hd__clkbuf_1
* cell instance $239 m0 *1 6.9,13.6
X$239 17 58 84 57 64 36 36 17 sky130_fd_sc_hd__edfxtp_1
* cell instance $240 m0 *1 17.94,13.6
X$240 17 86 87 43 64 36 36 17 sky130_fd_sc_hd__edfxtp_1
* cell instance $242 m0 *1 29.44,13.6
X$242 17 79 161 75 89 88 36 36 17 sky130_fd_sc_hd__a22oi_2
* cell instance $246 m0 *1 39.1,13.6
X$246 17 97 78 27 70 77 36 36 17 sky130_fd_sc_hd__fa_2
* cell instance $247 m0 *1 47.38,13.6
X$247 36 80 117 81 36 17 33 17 sky130_fd_sc_hd__o21ai_1
* cell instance $249 m0 *1 50.14,13.6
X$249 36 53 91 116 36 90 17 17 sky130_fd_sc_hd__a21oi_2
* cell instance $250 m0 *1 53.36,13.6
X$250 36 37 17 92 36 17 sky130_fd_sc_hd__clkbuf_4
* cell instance $255 m0 *1 59.34,13.6
X$255 36 93 36 17 49 17 sky130_fd_sc_hd__inv_1
* cell instance $256 m0 *1 60.72,13.6
X$256 36 61 49 94 36 17 17 sky130_fd_sc_hd__xnor2_1
* cell instance $257 m0 *1 63.94,13.6
X$257 17 44 50 34 51 36 36 17 sky130_fd_sc_hd__edfxtp_1
* cell instance $259 m0 *1 75.44,13.6
X$259 36 71 60 54 17 36 76 17 sky130_fd_sc_hd__a21oi_1
* cell instance $260 m0 *1 77.28,13.6
X$260 36 104 60 54 17 36 62 17 sky130_fd_sc_hd__a21oi_1
* cell instance $262 m0 *1 80.96,13.6
X$262 36 83 26 55 36 17 17 sky130_fd_sc_hd__xnor2_1
* cell instance $265 m0 *1 86.48,13.6
X$265 17 41 72 42 74 36 36 17 sky130_fd_sc_hd__dfrtp_1
* cell instance $266 m0 *1 95.68,13.6
X$266 17 41 26 42 66 36 36 17 sky130_fd_sc_hd__dfrtp_2
* cell instance $267 m0 *1 105.34,13.6
X$267 36 72 73 17 36 17 sky130_fd_sc_hd__clkbuf_1
* cell instance $271 r0 *1 4.14,13.6
X$271 17 100 102 57 64 36 36 17 sky130_fd_sc_hd__edfxtp_1
* cell instance $277 r0 *1 23.92,13.6
X$277 17 92 88 69 115 38 95 96 36 36 17 sky130_fd_sc_hd__mux4_1
* cell instance $283 r0 *1 43.24,13.6
X$283 36 80 36 17 78 17 sky130_fd_sc_hd__inv_1
* cell instance $284 r0 *1 44.62,13.6
X$284 17 59 80 37 105 36 36 17 sky130_fd_sc_hd__ha_1
* cell instance $285 r0 *1 49.22,13.6
X$285 17 90 48 60 36 36 17 sky130_fd_sc_hd__xor2_4
* cell instance $286 r0 *1 59.34,13.6
X$286 36 107 60 54 17 36 106 17 sky130_fd_sc_hd__a21oi_1
* cell instance $288 r0 *1 63.02,13.6
X$288 17 51 98 37 50 36 36 17 sky130_fd_sc_hd__ha_1
* cell instance $294 r0 *1 79.12,13.6
X$294 36 99 82 98 83 36 17 17 sky130_fd_sc_hd__nand3_1
* cell instance $295 r0 *1 80.96,13.6
X$295 17 44 82 42 103 36 36 17 sky130_fd_sc_hd__edfxtp_1
* cell instance $297 r0 *1 93.84,13.6
X$297 17 74 72 101 68 36 36 17 sky130_fd_sc_hd__mux2_1
* cell instance $300 r0 *1 98.44,13.6
X$300 17 85 65 123 68 36 36 17 sky130_fd_sc_hd__mux2_1
* cell instance $314 m0 *1 6.44,19.04
X$314 17 100 95 57 24 36 36 17 sky130_fd_sc_hd__edfxtp_1
* cell instance $316 m0 *1 17.94,19.04
X$316 17 86 115 57 24 36 36 17 sky130_fd_sc_hd__edfxtp_1
* cell instance $318 m0 *1 29.44,19.04
X$318 17 108 89 79 114 127 36 36 17 sky130_fd_sc_hd__a22oi_4
* cell instance $321 m0 *1 40.02,19.04
X$321 17 128 109 70 77 36 36 17 sky130_fd_sc_hd__ha_1
* cell instance $322 m0 *1 44.62,19.04
X$322 36 121 120 109 17 36 117 17 sky130_fd_sc_hd__a21oi_1
* cell instance $323 m0 *1 46.46,19.04
X$323 36 120 97 121 17 36 116 17 sky130_fd_sc_hd__a21o_1
* cell instance $325 m0 *1 51.06,19.04
X$325 17 53 91 110 118 36 36 17 sky130_fd_sc_hd__ha_1
* cell instance $328 m0 *1 57.04,19.04
X$328 36 106 140 129 36 17 17 sky130_fd_sc_hd__xnor2_1
* cell instance $329 m0 *1 60.26,19.04
X$329 36 50 17 70 36 17 sky130_fd_sc_hd__clkinv_4
* cell instance $330 m0 *1 63.48,19.04
X$330 36 82 17 36 110 17 sky130_fd_sc_hd__inv_2
* cell instance $331 m0 *1 64.86,19.04
X$331 17 41 37 34 94 36 36 17 sky130_fd_sc_hd__dfrtp_1
* cell instance $333 m0 *1 74.98,19.04
X$333 36 76 110 112 36 17 17 sky130_fd_sc_hd__xnor2_1
* cell instance $334 m0 *1 78.2,19.04
X$334 36 93 50 99 111 36 17 17 sky130_fd_sc_hd__nand3_1
* cell instance $335 m0 *1 80.04,19.04
X$335 36 111 82 103 36 17 17 sky130_fd_sc_hd__xnor2_1
* cell instance $338 m0 *1 84.64,19.04
X$338 17 41 82 42 112 36 36 17 sky130_fd_sc_hd__dfrtp_4
* cell instance $340 m0 *1 95.68,19.04
X$340 17 93 144 125 124 113 122 99 36 36 17 sky130_fd_sc_hd__mux4_1
* cell instance $347 r0 *1 11.96,19.04
X$347 36 57 387 17 36 17 sky130_fd_sc_hd__clkbuf_1
* cell instance $353 r0 *1 18.4,19.04
X$353 17 92 127 84 87 67 102 96 36 36 17 sky130_fd_sc_hd__mux4_1
* cell instance $354 r0 *1 28.06,19.04
X$354 17 119 43 36 36 17 sky130_fd_sc_hd__clkbuf_16
* cell instance $357 r0 *1 40.02,19.04
X$357 36 120 128 81 36 17 17 sky130_fd_sc_hd__nand2_1
* cell instance $363 r0 *1 43.7,19.04
X$363 17 120 121 140 138 36 36 17 sky130_fd_sc_hd__ha_1
* cell instance $366 r0 *1 51.06,19.04
X$366 17 70 82 79 36 36 17 sky130_fd_sc_hd__nor2_8
* cell instance $367 r0 *1 58.42,19.04
X$367 17 41 137 34 129 36 36 17 sky130_fd_sc_hd__dfrtp_1
* cell instance $369 r0 *1 68.54,19.04
X$369 36 34 36 17 17 sky130_fd_sc_hd__clkinv_2
* cell instance $372 r0 *1 70.84,19.04
X$372 17 119 34 36 36 17 sky130_fd_sc_hd__clkbuf_16
* cell instance $373 r0 *1 80.04,19.04
X$373 17 82 132 50 36 36 17 sky130_fd_sc_hd__nor2_4
* cell instance $375 r0 *1 85.1,19.04
X$375 17 126 125 42 64 36 36 17 sky130_fd_sc_hd__edfxtp_1
* cell instance $381 r0 *1 99.82,19.04
X$381 36 135 114 123 36 17 17 sky130_fd_sc_hd__nand2_1
* cell instance $395 m0 *1 3.68,24.48
X$395 17 119 57 36 36 17 sky130_fd_sc_hd__clkbuf_16
* cell instance $396 m0 *1 12.88,24.48
X$396 17 100 145 57 141 36 36 17 sky130_fd_sc_hd__edfxtp_1
* cell instance $399 m0 *1 25.3,24.48
X$399 36 43 17 386 36 17 sky130_fd_sc_hd__clkinv_4
* cell instance $403 m0 *1 31.28,24.48
X$403 17 41 118 43 136 36 36 17 sky130_fd_sc_hd__dfrtp_2
* cell instance $404 m0 *1 40.94,24.48
X$404 36 77 30 138 130 36 147 17 17 sky130_fd_sc_hd__nand4_1
* cell instance $405 m0 *1 43.24,24.48
X$405 17 131 54 36 36 17 sky130_fd_sc_hd__buf_6
* cell instance $406 m0 *1 47.38,24.48
X$406 17 70 110 89 36 36 17 sky130_fd_sc_hd__nor2_8
* cell instance $411 m0 *1 59.34,24.48
X$411 36 99 36 17 140 17 sky130_fd_sc_hd__inv_1
* cell instance $412 m0 *1 60.72,24.48
X$412 17 44 137 34 139 36 36 17 sky130_fd_sc_hd__edfxtp_1
* cell instance $414 m0 *1 72.68,24.48
X$414 17 110 133 50 36 36 17 sky130_fd_sc_hd__nor2_4
* cell instance $418 m0 *1 82.8,24.48
X$418 36 42 36 17 17 sky130_fd_sc_hd__clkinv_1
* cell instance $420 m0 *1 84.64,24.48
X$420 17 119 42 36 36 17 sky130_fd_sc_hd__clkbuf_16
* cell instance $421 m0 *1 93.84,24.48
X$421 36 163 75 101 36 17 17 sky130_fd_sc_hd__nand2_1
* cell instance $424 m0 *1 102.58,24.48
X$424 36 132 144 133 134 36 135 17 17 sky130_fd_sc_hd__a22oi_1
* cell instance $428 r0 *1 4.14,24.48
X$428 17 58 152 57 141 36 36 17 sky130_fd_sc_hd__edfxtp_1
* cell instance $433 r0 *1 19.78,24.48
X$433 17 86 148 43 141 36 36 17 sky130_fd_sc_hd__edfxtp_1
* cell instance $435 r0 *1 31.28,24.48
X$435 17 41 138 43 155 36 36 17 sky130_fd_sc_hd__dfrtp_2
* cell instance $436 r0 *1 40.94,24.48
X$436 36 147 23 54 17 36 156 17 sky130_fd_sc_hd__a21oi_1
* cell instance $440 r0 *1 43.7,24.48
X$440 17 30 146 131 23 36 36 17 sky130_fd_sc_hd__a21boi_2
* cell instance $443 r0 *1 49.22,24.48
X$443 17 31 159 54 23 36 36 17 sky130_fd_sc_hd__a21oi_4
* cell instance $445 r0 *1 55.66,24.48
X$445 36 92 36 17 93 17 sky130_fd_sc_hd__buf_4
* cell instance $448 r0 *1 61.18,24.48
X$448 36 98 99 36 139 17 17 sky130_fd_sc_hd__xor2_1
* cell instance $449 r0 *1 64.4,24.48
X$449 36 137 36 17 266 17 sky130_fd_sc_hd__buf_4
* cell instance $450 r0 *1 67.16,24.48
X$450 36 137 36 17 96 17 sky130_fd_sc_hd__buf_4
* cell instance $456 r0 *1 73.14,24.48
X$456 17 142 153 34 24 36 36 17 sky130_fd_sc_hd__edfxtp_1
* cell instance $459 r0 *1 86.94,24.48
X$459 17 143 124 42 64 36 36 17 sky130_fd_sc_hd__edfxtp_1
* cell instance $476 m0 *1 6.9,29.92
X$476 17 31 149 57 141 36 36 17 sky130_fd_sc_hd__edfxtp_1
* cell instance $477 m0 *1 17.94,29.92
X$477 17 92 186 152 148 149 145 96 36 36 17 sky130_fd_sc_hd__mux4_1
* cell instance $483 m0 *1 36.8,29.92
X$483 36 150 138 36 155 17 17 sky130_fd_sc_hd__xor2_1
* cell instance $484 m0 *1 40.02,29.92
X$484 36 156 118 36 136 17 17 sky130_fd_sc_hd__xor2_1
* cell instance $485 m0 *1 43.24,29.92
X$485 36 23 157 54 36 150 17 17 sky130_fd_sc_hd__a21oi_2
* cell instance $486 m0 *1 46.46,29.92
X$486 36 30 151 157 36 17 17 sky130_fd_sc_hd__nand2_1
* cell instance $488 m0 *1 48.76,29.92
X$488 36 30 151 158 159 36 17 17 sky130_fd_sc_hd__nand3_1
* cell instance $497 m0 *1 65.78,29.92
X$497 36 96 17 99 36 17 sky130_fd_sc_hd__clkbuf_4
* cell instance $499 m0 *1 69.46,29.92
X$499 17 126 154 34 24 36 36 17 sky130_fd_sc_hd__edfxtp_1
* cell instance $502 m0 *1 84.64,29.92
X$502 17 143 162 42 24 36 36 17 sky130_fd_sc_hd__edfxtp_1
* cell instance $503 m0 *1 95.68,29.92
X$503 17 142 122 42 64 36 36 17 sky130_fd_sc_hd__edfxtp_1
* cell instance $507 r0 *1 3.68,29.92
X$507 17 58 175 57 160 36 36 17 sky130_fd_sc_hd__edfxtp_1
* cell instance $513 r0 *1 19.78,29.92
X$513 17 86 176 43 160 36 36 17 sky130_fd_sc_hd__edfxtp_1
* cell instance $520 r0 *1 43.24,29.92
X$520 17 385 151 130 77 36 36 17 sky130_fd_sc_hd__ha_1
* cell instance $523 r0 *1 50.14,29.92
X$523 17 126 177 167 141 36 36 17 sky130_fd_sc_hd__edfxtp_1
* cell instance $532 r0 *1 80.04,29.92
X$532 17 93 166 154 162 170 153 99 36 36 17 sky130_fd_sc_hd__mux4_1
* cell instance $533 r0 *1 89.7,29.92
X$533 36 132 166 133 165 36 163 17 17 sky130_fd_sc_hd__a22oi_1
* cell instance $536 r0 *1 93.84,29.92
X$536 17 174 171 164 68 36 36 17 sky130_fd_sc_hd__mux2_1
* cell instance $554 m0 *1 12.42,35.36
X$554 17 100 185 168 160 36 36 17 sky130_fd_sc_hd__edfxtp_1
* cell instance $555 m0 *1 23.46,35.36
X$555 17 79 250 169 89 186 36 36 17 sky130_fd_sc_hd__a22oi_2
* cell instance $562 m0 *1 40.94,35.36
X$562 36 130 36 17 105 17 sky130_fd_sc_hd__inv_1
* cell instance $564 m0 *1 43.24,35.36
X$564 36 118 138 158 36 17 17 sky130_fd_sc_hd__and2_1
* cell instance $565 m0 *1 45.54,35.36
X$565 17 143 190 179 141 36 36 17 sky130_fd_sc_hd__edfxtp_1
* cell instance $567 m0 *1 57.04,35.36
X$567 17 142 189 167 141 36 36 17 sky130_fd_sc_hd__edfxtp_1
* cell instance $568 m0 *1 68.08,35.36
X$568 36 187 169 164 36 17 17 sky130_fd_sc_hd__nand2_1
* cell instance $575 m0 *1 85.1,35.36
X$575 17 41 171 180 174 36 36 17 sky130_fd_sc_hd__dfrtp_1
* cell instance $576 m0 *1 94.3,35.36
X$576 17 93 172 173 184 205 183 99 36 36 17 sky130_fd_sc_hd__mux4_1
* cell instance $579 m0 *1 105.34,35.36
X$579 36 171 182 17 36 17 sky130_fd_sc_hd__clkbuf_1
* cell instance $581 r0 *1 1.38,35.36
X$581 17 31 178 168 160 36 36 17 sky130_fd_sc_hd__edfxtp_1
* cell instance $588 r0 *1 18.4,35.36
X$588 17 92 195 175 176 178 185 96 36 36 17 sky130_fd_sc_hd__mux4_1
* cell instance $591 r0 *1 32.66,35.36
X$591 17 41 130 179 199 36 36 17 sky130_fd_sc_hd__dfrtp_1
* cell instance $596 r0 *1 45.08,35.36
X$596 36 77 36 17 191 17 sky130_fd_sc_hd__inv_1
* cell instance $599 r0 *1 47.84,35.36
X$599 17 384 200 130 191 36 36 17 sky130_fd_sc_hd__ha_1
* cell instance $600 r0 *1 52.44,35.36
X$600 17 181 198 167 141 36 36 17 sky130_fd_sc_hd__edfxtp_1
* cell instance $603 r0 *1 67.62,35.36
X$603 36 132 196 133 188 36 187 17 17 sky130_fd_sc_hd__a22oi_1
* cell instance $609 r0 *1 74.06,35.36
X$609 17 181 170 180 24 36 36 17 sky130_fd_sc_hd__edfxtp_1
* cell instance $611 r0 *1 86.94,35.36
X$611 17 181 113 180 64 36 36 17 sky130_fd_sc_hd__edfxtp_1
* cell instance $628 m0 *1 2.76,40.8
X$628 17 31 194 168 202 36 36 17 sky130_fd_sc_hd__edfxtp_1
* cell instance $629 m0 *1 13.8,40.8
X$629 17 100 206 168 202 36 36 17 sky130_fd_sc_hd__edfxtp_1
* cell instance $635 m0 *1 30.82,40.8
X$635 17 41 77 179 197 36 36 17 sky130_fd_sc_hd__dfrtp_2
* cell instance $636 m0 *1 40.48,40.8
X$636 36 192 105 199 36 17 17 sky130_fd_sc_hd__xnor2_1
* cell instance $637 m0 *1 43.7,40.8
X$637 17 208 201 105 191 36 36 17 sky130_fd_sc_hd__ha_1
* cell instance $645 m0 *1 60.26,40.8
X$645 17 93 196 177 190 198 189 204 36 36 17 sky130_fd_sc_hd__mux4_1
* cell instance $646 m0 *1 69.92,40.8
X$646 17 143 207 167 160 36 36 17 sky130_fd_sc_hd__edfxtp_1
* cell instance $651 m0 *1 84.64,40.8
X$651 17 143 184 180 193 36 36 17 sky130_fd_sc_hd__edfxtp_1
* cell instance $652 m0 *1 95.68,40.8
X$652 17 142 183 180 193 36 36 17 sky130_fd_sc_hd__edfxtp_1
* cell instance $656 r0 *1 4.14,40.8
X$656 17 58 212 168 202 36 36 17 sky130_fd_sc_hd__edfxtp_1
* cell instance $659 r0 *1 15.64,40.8
X$659 36 168 36 17 17 sky130_fd_sc_hd__clkinv_1
* cell instance $662 r0 *1 21.16,40.8
X$662 17 92 291 212 203 194 206 96 36 36 17 sky130_fd_sc_hd__mux4_1
* cell instance $663 r0 *1 30.82,40.8
X$663 36 179 36 17 17 sky130_fd_sc_hd__clkinv_2
* cell instance $666 r0 *1 38.18,40.8
X$666 17 383 213 105 77 36 36 17 sky130_fd_sc_hd__ha_1
* cell instance $669 r0 *1 43.24,40.8
X$669 17 197 208 77 146 36 36 17 sky130_fd_sc_hd__mux2_1
* cell instance $670 r0 *1 47.38,40.8
X$670 36 118 138 17 36 217 17 sky130_fd_sc_hd__nor2b_2
* cell instance $671 r0 *1 50.6,40.8
X$671 17 216 143 201 146 36 36 17 sky130_fd_sc_hd__and3_4
* cell instance $674 r0 *1 59.34,40.8
X$674 17 126 211 167 160 36 36 17 sky130_fd_sc_hd__edfxtp_1
* cell instance $677 r0 *1 70.84,40.8
X$677 17 119 167 36 36 17 sky130_fd_sc_hd__clkbuf_16
* cell instance $682 r0 *1 86.94,40.8
X$682 17 181 205 180 193 36 36 17 sky130_fd_sc_hd__edfxtp_1
* cell instance $699 m0 *1 6.9,46.24
X$699 17 209 215 168 24 36 36 17 sky130_fd_sc_hd__edfxtp_1
* cell instance $700 m0 *1 17.94,46.24
X$700 17 86 203 179 202 36 36 17 sky130_fd_sc_hd__edfxtp_1
* cell instance $702 m0 *1 29.44,46.24
X$702 17 119 179 36 36 17 sky130_fd_sc_hd__clkbuf_16
* cell instance $703 m0 *1 38.64,46.24
X$703 36 216 150 17 210 36 17 sky130_fd_sc_hd__and2_4
* cell instance $705 m0 *1 42.32,46.24
X$705 17 216 214 213 146 36 36 17 sky130_fd_sc_hd__and3_4
* cell instance $706 m0 *1 46.46,46.24
X$706 17 146 192 36 36 17 sky130_fd_sc_hd__buf_6
* cell instance $707 m0 *1 50.6,46.24
X$707 17 216 126 200 146 36 36 17 sky130_fd_sc_hd__and3_4
* cell instance $714 m0 *1 66.7,46.24
X$714 36 167 36 17 17 sky130_fd_sc_hd__clkinv_1
* cell instance $715 m0 *1 68.08,46.24
X$715 17 181 221 167 160 36 36 17 sky130_fd_sc_hd__edfxtp_1
* cell instance $718 m0 *1 80.5,46.24
X$718 36 180 36 17 17 sky130_fd_sc_hd__clkinv_1
* cell instance $725 m0 *1 87.86,46.24
X$725 17 126 173 180 193 36 36 17 sky130_fd_sc_hd__edfxtp_1
* cell instance $731 r0 *1 4.14,46.24
X$731 17 210 220 168 24 36 36 17 sky130_fd_sc_hd__edfxtp_1
* cell instance $734 r0 *1 15.64,46.24
X$734 17 223 161 220 226 215 228 204 36 36 17 sky130_fd_sc_hd__mux4_1
* cell instance $735 r0 *1 25.3,46.24
X$735 17 58 230 179 193 36 36 17 sky130_fd_sc_hd__edfxtp_1
* cell instance $737 r0 *1 38.18,46.24
X$737 17 192 100 213 158 36 36 17 sky130_fd_sc_hd__and3_4
* cell instance $741 r0 *1 43.24,46.24
X$741 36 118 138 216 17 36 17 sky130_fd_sc_hd__nor2_1
* cell instance $742 r0 *1 44.62,46.24
X$742 36 150 217 17 58 36 17 sky130_fd_sc_hd__and2_4
* cell instance $743 r0 *1 47.84,46.24
X$743 36 150 222 17 209 36 17 sky130_fd_sc_hd__and2_4
* cell instance $744 r0 *1 51.06,46.24
X$744 17 192 181 200 222 36 36 17 sky130_fd_sc_hd__and3_4
* cell instance $745 r0 *1 55.2,46.24
X$745 17 92 223 36 36 17 sky130_fd_sc_hd__buf_6
* cell instance $746 r0 *1 59.34,46.24
X$746 17 142 218 167 160 36 36 17 sky130_fd_sc_hd__edfxtp_1
* cell instance $750 r0 *1 71.76,46.24
X$750 17 93 225 211 207 221 218 204 36 36 17 sky130_fd_sc_hd__mux4_1
* cell instance $751 r0 *1 81.42,46.24
X$751 17 119 180 36 36 17 sky130_fd_sc_hd__clkbuf_16
* cell instance $757 r0 *1 99.36,46.24
X$757 36 219 36 17 193 17 sky130_fd_sc_hd__buf_4
* cell instance $772 m0 *1 7.82,51.68
X$772 17 231 228 168 24 36 36 17 sky130_fd_sc_hd__edfxtp_1
* cell instance $773 m0 *1 18.86,51.68
X$773 17 119 168 36 36 17 sky130_fd_sc_hd__clkbuf_16
* cell instance $776 m0 *1 29.44,51.68
X$776 17 31 238 179 193 36 36 17 sky130_fd_sc_hd__edfxtp_1
* cell instance $777 m0 *1 40.48,51.68
X$777 17 192 231 213 222 36 36 17 sky130_fd_sc_hd__and3_4
* cell instance $778 m0 *1 44.62,51.68
X$778 17 192 86 213 217 36 36 17 sky130_fd_sc_hd__and3_4
* cell instance $779 m0 *1 48.76,51.68
X$779 36 118 138 222 17 36 17 sky130_fd_sc_hd__nor2b_1
* cell instance $781 m0 *1 51.52,51.68
X$781 17 192 142 201 222 36 36 17 sky130_fd_sc_hd__and3_4
* cell instance $787 m0 *1 64.86,51.68
X$787 17 143 229 167 202 36 36 17 sky130_fd_sc_hd__edfxtp_1
* cell instance $791 m0 *1 80.96,51.68
X$791 36 132 225 133 239 36 227 17 17 sky130_fd_sc_hd__a22oi_1
* cell instance $794 m0 *1 84.64,51.68
X$794 17 181 236 180 224 36 36 17 sky130_fd_sc_hd__edfxtp_1
* cell instance $795 m0 *1 95.68,51.68
X$795 17 142 234 180 224 36 36 17 sky130_fd_sc_hd__edfxtp_1
* cell instance $799 r0 *1 4.14,51.68
X$799 17 214 226 168 24 36 36 17 sky130_fd_sc_hd__edfxtp_1
* cell instance $805 r0 *1 20.7,51.68
X$805 17 100 240 179 193 36 36 17 sky130_fd_sc_hd__edfxtp_1
* cell instance $806 r0 *1 31.74,51.68
X$806 17 86 241 179 193 36 36 17 sky130_fd_sc_hd__edfxtp_1
* cell instance $812 r0 *1 48.3,51.68
X$812 36 92 36 17 245 17 sky130_fd_sc_hd__buf_4
* cell instance $813 r0 *1 51.06,51.68
X$813 17 181 244 167 243 36 36 17 sky130_fd_sc_hd__edfxtp_1
* cell instance $820 r0 *1 71.3,51.68
X$820 17 181 242 167 202 36 36 17 sky130_fd_sc_hd__edfxtp_1
* cell instance $821 r0 *1 82.34,51.68
X$821 17 143 237 180 224 36 36 17 sky130_fd_sc_hd__edfxtp_1
* cell instance $826 r0 *1 98.44,51.68
X$826 17 235 233 232 68 36 36 17 sky130_fd_sc_hd__mux2_1
* cell instance $840 m0 *1 12.42,57.12
X$840 17 209 249 168 141 36 36 17 sky130_fd_sc_hd__edfxtp_1
* cell instance $842 m0 *1 24.38,57.12
X$842 17 79 251 246 89 195 36 36 17 sky130_fd_sc_hd__a22oi_2
* cell instance $847 m0 *1 35.42,57.12
X$847 17 245 262 230 241 238 240 96 36 36 17 sky130_fd_sc_hd__mux4_1
* cell instance $849 m0 *1 45.54,57.12
X$849 17 143 253 179 243 36 36 17 sky130_fd_sc_hd__edfxtp_1
* cell instance $855 m0 *1 63.94,57.12
X$855 17 142 252 254 202 36 36 17 sky130_fd_sc_hd__edfxtp_1
* cell instance $857 m0 *1 78.66,57.12
X$857 36 227 246 232 36 17 17 sky130_fd_sc_hd__nand2_1
* cell instance $863 m0 *1 86.94,57.12
X$863 17 126 247 248 224 36 36 17 sky130_fd_sc_hd__edfxtp_1
* cell instance $864 m0 *1 97.98,57.12
X$864 17 41 233 248 235 36 36 17 sky130_fd_sc_hd__dfrtp_1
* cell instance $867 r0 *1 4.14,57.12
X$867 17 210 257 264 141 36 36 17 sky130_fd_sc_hd__edfxtp_1
* cell instance $870 r0 *1 15.64,57.12
X$870 17 223 250 257 286 249 258 204 36 36 17 sky130_fd_sc_hd__mux4_1
* cell instance $871 r0 *1 25.3,57.12
X$871 17 100 260 261 224 36 36 17 sky130_fd_sc_hd__edfxtp_1
* cell instance $878 r0 *1 45.08,57.12
X$878 17 275 119 36 36 17 sky130_fd_sc_hd__clkbuf_16
* cell instance $879 r0 *1 54.28,57.12
X$879 17 142 263 254 243 36 36 17 sky130_fd_sc_hd__edfxtp_1
* cell instance $887 r0 *1 73.6,57.12
X$887 17 93 259 274 229 242 252 204 36 36 17 sky130_fd_sc_hd__mux4_1
* cell instance $891 r0 *1 88.32,57.12
X$891 17 93 256 247 237 236 234 99 36 36 17 sky130_fd_sc_hd__mux4_1
* cell instance $896 r0 *1 105.8,57.12
X$896 36 233 255 17 36 17 sky130_fd_sc_hd__clkbuf_1
* cell instance $907 m0 *1 6.9,62.56
X$907 17 231 258 264 141 36 36 17 sky130_fd_sc_hd__edfxtp_1
* cell instance $908 m0 *1 17.94,62.56
X$908 17 86 273 264 224 36 36 17 sky130_fd_sc_hd__edfxtp_1
* cell instance $911 m0 *1 31.28,62.56
X$911 17 245 278 314 273 329 260 96 36 36 17 sky130_fd_sc_hd__mux4_1
* cell instance $912 m0 *1 40.94,62.56
X$912 17 86 279 261 243 36 36 17 sky130_fd_sc_hd__edfxtp_1
* cell instance $918 m0 *1 59.8,62.56
X$918 17 223 276 265 253 244 263 266 36 36 17 sky130_fd_sc_hd__mux4_1
* cell instance $920 m0 *1 70.38,62.56
X$920 17 126 274 254 202 36 36 17 sky130_fd_sc_hd__edfxtp_1
* cell instance $921 m0 *1 81.42,62.56
X$921 36 132 259 133 268 36 267 17 17 sky130_fd_sc_hd__a22oi_1
* cell instance $923 m0 *1 84.64,62.56
X$923 17 292 282 269 68 36 36 17 sky130_fd_sc_hd__mux2_1
* cell instance $925 m0 *1 92.46,62.56
X$925 17 41 288 248 270 36 36 17 sky130_fd_sc_hd__dfrtp_1
* cell instance $927 m0 *1 102.12,62.56
X$927 36 132 172 133 272 36 287 17 17 sky130_fd_sc_hd__a22oi_1
* cell instance $929 m0 *1 105.8,62.56
X$929 36 271 283 17 36 17 sky130_fd_sc_hd__clkbuf_1
* cell instance $932 r0 *1 4.14,62.56
X$932 17 214 286 264 141 36 36 17 sky130_fd_sc_hd__edfxtp_1
* cell instance $938 r0 *1 26.68,62.56
X$938 17 79 277 293 89 291 36 36 17 sky130_fd_sc_hd__a22oi_2
* cell instance $943 r0 *1 38.18,62.56
X$943 17 79 366 310 89 278 36 36 17 sky130_fd_sc_hd__a22oi_2
* cell instance $948 r0 *1 44.62,62.56
X$948 17 223 307 294 279 323 306 266 36 36 17 sky130_fd_sc_hd__mux4_1
* cell instance $949 r0 *1 54.28,62.56
X$949 17 126 265 254 243 36 36 17 sky130_fd_sc_hd__edfxtp_1
* cell instance $952 r0 *1 67.62,62.56
X$952 36 280 133 276 132 36 308 17 17 sky130_fd_sc_hd__a22oi_1
* cell instance $958 r0 *1 81.88,62.56
X$958 36 267 293 281 36 17 17 sky130_fd_sc_hd__nand2_1
* cell instance $959 r0 *1 83.26,62.56
X$959 17 41 282 248 292 36 36 17 sky130_fd_sc_hd__dfrtp_1
* cell instance $960 r0 *1 92.46,62.56
X$960 17 304 271 281 68 36 36 17 sky130_fd_sc_hd__mux2_1
* cell instance $962 r0 *1 96.6,62.56
X$962 36 287 290 289 36 17 17 sky130_fd_sc_hd__nand2_1
* cell instance $964 r0 *1 98.44,62.56
X$964 17 301 284 289 68 36 36 17 sky130_fd_sc_hd__mux2_1
* cell instance $965 r0 *1 102.58,62.56
X$965 36 132 256 133 285 36 312 17 17 sky130_fd_sc_hd__a22oi_1
* cell instance $967 r0 *1 105.8,62.56
X$967 36 282 298 17 36 17 sky130_fd_sc_hd__clkbuf_1
* cell instance $980 m0 *1 14.26,68
X$980 17 119 264 36 36 17 sky130_fd_sc_hd__clkbuf_16
* cell instance $988 m0 *1 38.18,68
X$988 17 100 306 261 243 36 36 17 sky130_fd_sc_hd__edfxtp_1
* cell instance $989 m0 *1 49.22,68
X$989 17 79 305 290 89 262 36 36 17 sky130_fd_sc_hd__a22oi_2
* cell instance $990 m0 *1 53.82,68
X$990 36 307 89 295 79 36 296 17 17 sky130_fd_sc_hd__a22oi_1
* cell instance $996 m0 *1 65.78,68
X$996 36 96 36 17 204 17 sky130_fd_sc_hd__buf_4
* cell instance $997 m0 *1 68.54,68
X$997 36 308 296 269 36 17 17 sky130_fd_sc_hd__nand2_1
* cell instance $999 m0 *1 70.84,68
X$999 17 119 254 36 36 17 sky130_fd_sc_hd__clkbuf_16
* cell instance $1003 m0 *1 84.64,68
X$1003 36 248 36 17 17 sky130_fd_sc_hd__clkinv_1
* cell instance $1005 m0 *1 86.94,68
X$1005 17 41 271 248 304 36 36 17 sky130_fd_sc_hd__dfrtp_1
* cell instance $1006 m0 *1 96.14,68
X$1006 17 245 134 303 302 332 300 266 36 36 17 sky130_fd_sc_hd__mux4_1
* cell instance $1007 m0 *1 105.8,68
X$1007 36 284 299 17 36 17 sky130_fd_sc_hd__clkbuf_1
* cell instance $1010 r0 *1 4.14,68
X$1010 17 209 309 264 64 36 36 17 sky130_fd_sc_hd__edfxtp_1
* cell instance $1018 r0 *1 20.7,68
X$1018 17 58 314 261 224 36 36 17 sky130_fd_sc_hd__edfxtp_1
* cell instance $1026 r0 *1 43.24,68
X$1026 17 58 294 261 243 36 36 17 sky130_fd_sc_hd__edfxtp_1
* cell instance $1027 r0 *1 54.28,68
X$1027 17 192 311 201 217 36 36 17 sky130_fd_sc_hd__and3_4
* cell instance $1036 r0 *1 70.84,68
X$1036 36 254 36 17 17 sky130_fd_sc_hd__clkinv_2
* cell instance $1040 r0 *1 75.9,68
X$1040 17 311 315 254 24 36 36 17 sky130_fd_sc_hd__edfxtp_1
* cell instance $1041 r0 *1 86.94,68
X$1041 17 311 302 248 64 36 36 17 sky130_fd_sc_hd__edfxtp_1
* cell instance $1046 r0 *1 98.44,68
X$1046 17 270 288 313 68 36 36 17 sky130_fd_sc_hd__mux2_1
* cell instance $1047 r0 *1 102.58,68
X$1047 36 312 310 313 36 17 17 sky130_fd_sc_hd__nand2_1
* cell instance $1049 r0 *1 104.42,68
X$1049 36 288 297 17 36 17 sky130_fd_sc_hd__clkbuf_1
* cell instance $1052 m0 *1 1.38,73.44
X$1052 36 316 36 17 141 17 sky130_fd_sc_hd__buf_4
* cell instance $1057 m0 *1 11.04,73.44
X$1057 36 264 36 17 17 sky130_fd_sc_hd__clkinv_1
* cell instance $1058 m0 *1 12.42,73.44
X$1058 17 214 321 264 64 36 36 17 sky130_fd_sc_hd__edfxtp_1
* cell instance $1061 m0 *1 27.6,73.44
X$1061 36 261 36 17 17 sky130_fd_sc_hd__clkinv_1
* cell instance $1063 m0 *1 29.44,73.44
X$1063 17 119 261 36 36 17 sky130_fd_sc_hd__clkbuf_16
* cell instance $1064 m0 *1 38.64,73.44
X$1064 17 31 323 261 243 36 36 17 sky130_fd_sc_hd__edfxtp_1
* cell instance $1067 m0 *1 52.44,73.44
X$1067 17 192 317 200 217 36 36 17 sky130_fd_sc_hd__and3_4
* cell instance $1069 m0 *1 57.04,73.44
X$1069 17 311 322 254 141 36 36 17 sky130_fd_sc_hd__edfxtp_1
* cell instance $1073 m0 *1 73.14,73.44
X$1073 17 317 320 254 24 36 36 17 sky130_fd_sc_hd__edfxtp_1
* cell instance $1075 m0 *1 84.64,73.44
X$1075 17 245 165 320 315 318 319 266 36 36 17 sky130_fd_sc_hd__mux4_1
* cell instance $1076 m0 *1 94.3,73.44
X$1076 17 119 248 36 36 17 sky130_fd_sc_hd__clkbuf_16
* cell instance $1080 r0 *1 4.14,73.44
X$1080 17 210 328 264 64 36 36 17 sky130_fd_sc_hd__edfxtp_1
* cell instance $1086 r0 *1 22.08,73.44