* CDL Netlist generated by OpenROAD

*.BUSDELIMITER [

.SUBCKT fwft_fifo almost_empty almost_full clk data_count[0]
+ data_count[1] data_count[2] data_count[3] data_count[4] empty
+ full rd_data[0] rd_data[1] rd_data[2] rd_data[3] rd_data[4]
+ rd_data[5] rd_data[6] rd_data[7] rd_en rst_n wr_data[0] wr_data[1]
+ wr_data[2] wr_data[3] wr_data[4] wr_data[5] wr_data[6] wr_data[7]
+ wr_en
X_168_ _151_ VSS VSS VDD VDD _043_ sky130_fd_sc_hd__inv_1
X_169_ _156_ _153_ VSS VSS VDD VDD _044_ sky130_fd_sc_hd__nand2_1
X_170_ _156_ _152_ _155_ VSS VSS VDD VDD _045_ sky130_fd_sc_hd__a21oi_1
X_171_ _166_ _044_ _045_ VSS VSS VDD VDD _046_ sky130_fd_sc_hd__o21ai_1
X_172_ _043_ _046_ VSS VSS VDD VDD net18 sky130_fd_sc_hd__xnor2_1
X_173_ _156_ _148_ VSS VSS VDD VDD net17 sky130_fd_sc_hd__xor2_2
X_174_ _156_ _148_ _155_ VSS VSS VDD VDD _047_ sky130_fd_sc_hd__a21o_1
X_175_ _151_ _047_ _150_ VSS VSS VDD VDD _048_ sky130_fd_sc_hd__a21oi_2
X_176_ wr_ptr\[4\] rd_ptr\[4\] VSS VSS VDD VDD _049_ sky130_fd_sc_hd__xnor2_2
X_177_ _048_ _049_ VSS VSS VDD VDD _050_ sky130_fd_sc_hd__xor2_4
X_178_ _050_ VSS VSS VDD VDD net19 sky130_fd_sc_hd__clkinv_4
X_179_ _167_ VSS VSS VDD VDD net15 sky130_fd_sc_hd__inv_1
X_180_ _151_ net15 net16 net17 VSS VSS VDD VDD _051_ sky130_fd_sc_hd__nor4_1
X_181_ _043_ net15 net16 net17 VSS VSS VDD VDD _052_ sky130_fd_sc_hd__nor4_1
X_182_ _051_ _052_ _046_ VSS VSS VDD VDD _053_ sky130_fd_sc_hd__mux2_1
X_183_ _053_ VSS VSS VDD VDD _054_ sky130_fd_sc_hd__buf_6
X_184_ _050_ _054_ VSS VSS VDD VDD _055_ sky130_fd_sc_hd__and2_0
X_185_ output_valid _055_ net3 VSS VSS VDD VDD _000_ sky130_fd_sc_hd__nor3b_4
X_186_ net19 _054_ VSS VSS VDD VDD net21 sky130_fd_sc_hd__and2_0
X_187_ rd_ptr\[0\] VSS VSS VDD VDD _056_ sky130_fd_sc_hd__clkbuf_4
X_188_ _056_ VSS VSS VDD VDD _057_ sky130_fd_sc_hd__buf_4
X_189_ _057_ VSS VSS VDD VDD _017_ sky130_fd_sc_hd__inv_1
X_190_ wr_ptr\[3\] wr_ptr\[2\] VSS VSS VDD VDD _058_ sky130_fd_sc_hd__nor2_1
X_191_ net19 _053_ net12 VSS VSS VDD VDD _059_ sky130_fd_sc_hd__a21boi_2
X_192_ _158_ _058_ _059_ VSS VSS VDD VDD _001_ sky130_fd_sc_hd__and3_4
X_193_ _161_ _058_ _059_ VSS VSS VDD VDD _008_ sky130_fd_sc_hd__and3_4
X_194_ _159_ _058_ _059_ VSS VSS VDD VDD _009_ sky130_fd_sc_hd__and3_4
X_195_ net12 _163_ VSS VSS VDD VDD _060_ sky130_fd_sc_hd__nand2_1
X_196_ net19 _054_ _060_ VSS VSS VDD VDD _061_ sky130_fd_sc_hd__a21oi_2
X_197_ _058_ _061_ VSS VSS VDD VDD _010_ sky130_fd_sc_hd__and2_4
X_198_ _059_ VSS VSS VDD VDD _062_ sky130_fd_sc_hd__buf_6
X_199_ wr_ptr\[3\] wr_ptr\[2\] VSS VSS VDD VDD _063_ sky130_fd_sc_hd__nor2b_1
X_200_ _158_ _062_ _063_ VSS VSS VDD VDD _011_ sky130_fd_sc_hd__and3_4
X_201_ _161_ _062_ _063_ VSS VSS VDD VDD _012_ sky130_fd_sc_hd__and3_4
X_202_ _159_ _062_ _063_ VSS VSS VDD VDD _013_ sky130_fd_sc_hd__and3_4
X_203_ _061_ _063_ VSS VSS VDD VDD _014_ sky130_fd_sc_hd__and2_4
X_204_ wr_ptr\[2\] wr_ptr\[3\] VSS VSS VDD VDD _064_ sky130_fd_sc_hd__nor2b_2
X_205_ _158_ _062_ _064_ VSS VSS VDD VDD _015_ sky130_fd_sc_hd__and3_4
X_206_ _161_ _062_ _064_ VSS VSS VDD VDD _016_ sky130_fd_sc_hd__and3_4
X_207_ _159_ _062_ _064_ VSS VSS VDD VDD _002_ sky130_fd_sc_hd__and3_4
X_208_ _061_ _064_ VSS VSS VDD VDD _003_ sky130_fd_sc_hd__and2_4
X_209_ wr_ptr\[3\] wr_ptr\[2\] VSS VSS VDD VDD _065_ sky130_fd_sc_hd__and2_1
X_210_ _158_ _062_ _065_ VSS VSS VDD VDD _004_ sky130_fd_sc_hd__and3_4
X_211_ _161_ _062_ _065_ VSS VSS VDD VDD _005_ sky130_fd_sc_hd__and3_4
X_212_ _159_ _062_ _065_ VSS VSS VDD VDD _006_ sky130_fd_sc_hd__and3_4
X_213_ net12 _163_ _065_ VSS VSS VDD VDD _066_ sky130_fd_sc_hd__nand3_1
X_214_ net19 _054_ _066_ VSS VSS VDD VDD _007_ sky130_fd_sc_hd__a21oi_4
X_215_ rd_ptr\[2\] VSS VSS VDD VDD _067_ sky130_fd_sc_hd__buf_4
X_216_ _067_ VSS VSS VDD VDD _068_ sky130_fd_sc_hd__clkbuf_4
X_217_ _068_ _165_ VSS VSS VDD VDD _019_ sky130_fd_sc_hd__xor2_1
X_218_ _057_ rd_ptr\[1\] _068_ VSS VSS VDD VDD _069_ sky130_fd_sc_hd__nand3_1
X_219_ rd_ptr\[3\] _069_ VSS VSS VDD VDD _020_ sky130_fd_sc_hd__xnor2_1
X_220_ _068_ rd_ptr\[3\] _165_ VSS VSS VDD VDD _070_ sky130_fd_sc_hd__nand3_1
X_221_ rd_ptr\[4\] _070_ VSS VSS VDD VDD _021_ sky130_fd_sc_hd__xnor2_1
X_222_ rd_ptr\[3\] VSS VSS VDD VDD _149_ sky130_fd_sc_hd__inv_2
X_223_ rd_ptr\[1\] VSS VSS VDD VDD _146_ sky130_fd_sc_hd__clkinv_4
X_224_ _068_ VSS VSS VDD VDD _154_ sky130_fd_sc_hd__inv_1
X_225_ wr_ptr\[0\] VSS VSS VDD VDD _022_ sky130_fd_sc_hd__inv_1
X_226_ _166_ VSS VSS VDD VDD _147_ sky130_fd_sc_hd__inv_1
X_227_ wr_ptr\[1\] VSS VSS VDD VDD _157_ sky130_fd_sc_hd__inv_1
X_228_ _056_ VSS VSS VDD VDD _071_ sky130_fd_sc_hd__buf_6
X_229_ rd_ptr\[2\] VSS VSS VDD VDD _072_ sky130_fd_sc_hd__buf_4
X_230_ mem\[0\]\[0\] mem\[1\]\[0\] mem\[4\]\[0\] mem\[5\]\[0\]
+ _071_ _072_ VSS VSS VDD VDD _073_ sky130_fd_sc_hd__mux4_1
X_231_ rd_ptr\[1\] rd_ptr\[3\] VSS VSS VDD VDD _074_ sky130_fd_sc_hd__nor2_4
X_232_ rd_ptr\[1\] _149_ VSS VSS VDD VDD _075_ sky130_fd_sc_hd__nor2_4
X_233_ mem\[8\]\[0\] mem\[9\]\[0\] mem\[12\]\[0\] mem\[13\]\[0\]
+ _071_ _072_ VSS VSS VDD VDD _076_ sky130_fd_sc_hd__mux4_1
X_234_ _073_ _074_ _075_ _076_ VSS VSS VDD VDD _077_ sky130_fd_sc_hd__a22oi_1
X_235_ _056_ VSS VSS VDD VDD _078_ sky130_fd_sc_hd__buf_4
X_236_ mem\[2\]\[0\] mem\[3\]\[0\] mem\[6\]\[0\] mem\[7\]\[0\]
+ _078_ _072_ VSS VSS VDD VDD _079_ sky130_fd_sc_hd__mux4_1
X_237_ _146_ rd_ptr\[3\] VSS VSS VDD VDD _080_ sky130_fd_sc_hd__nor2_8
X_238_ _146_ _149_ VSS VSS VDD VDD _081_ sky130_fd_sc_hd__nor2_8
X_239_ mem\[10\]\[0\] mem\[11\]\[0\] mem\[14\]\[0\] mem\[15\]\[0\]
+ _071_ _072_ VSS VSS VDD VDD _082_ sky130_fd_sc_hd__mux4_1
X_240_ _079_ _080_ _081_ _082_ VSS VSS VDD VDD _083_ sky130_fd_sc_hd__a22oi_1
X_241_ _077_ _083_ VSS VSS VDD VDD _084_ sky130_fd_sc_hd__nand2_1
X_242_ output_valid VSS VSS VDD VDD net20 sky130_fd_sc_hd__inv_1
X_243_ _050_ _054_ net2 net20 VSS VSS VDD VDD _085_ sky130_fd_sc_hd__o2bb2ai_4
X_244_ _084_ net22 _085_ VSS VSS VDD VDD _024_ sky130_fd_sc_hd__mux2_1
X_245_ mem\[8\]\[1\] mem\[9\]\[1\] mem\[12\]\[1\] mem\[13\]\[1\]
+ _078_ _072_ VSS VSS VDD VDD _086_ sky130_fd_sc_hd__mux4_1
X_246_ mem\[0\]\[1\] mem\[1\]\[1\] mem\[4\]\[1\] mem\[5\]\[1\]
+ _057_ _068_ VSS VSS VDD VDD _087_ sky130_fd_sc_hd__mux4_1
X_247_ _075_ _086_ _087_ _074_ VSS VSS VDD VDD _088_ sky130_fd_sc_hd__a22oi_1
X_248_ mem\[10\]\[1\] mem\[11\]\[1\] mem\[14\]\[1\] mem\[15\]\[1\]
+ _078_ _067_ VSS VSS VDD VDD _089_ sky130_fd_sc_hd__mux4_1
X_249_ _067_ VSS VSS VDD VDD _090_ sky130_fd_sc_hd__buf_4
X_250_ mem\[2\]\[1\] mem\[3\]\[1\] mem\[6\]\[1\] mem\[7\]\[1\]
+ _071_ _090_ VSS VSS VDD VDD _091_ sky130_fd_sc_hd__mux4_1
X_251_ _081_ _089_ _091_ _080_ VSS VSS VDD VDD _092_ sky130_fd_sc_hd__a22oi_2
X_252_ _088_ _092_ VSS VSS VDD VDD _093_ sky130_fd_sc_hd__nand2_1
X_253_ _093_ net23 _085_ VSS VSS VDD VDD _025_ sky130_fd_sc_hd__mux2_1
X_254_ mem\[8\]\[2\] mem\[9\]\[2\] mem\[12\]\[2\] mem\[13\]\[2\]
+ _078_ _072_ VSS VSS VDD VDD _094_ sky130_fd_sc_hd__mux4_1
X_255_ mem\[0\]\[2\] mem\[1\]\[2\] mem\[4\]\[2\] mem\[5\]\[2\]
+ _057_ _068_ VSS VSS VDD VDD _095_ sky130_fd_sc_hd__mux4_1
X_256_ _075_ _094_ _095_ _074_ VSS VSS VDD VDD _096_ sky130_fd_sc_hd__a22oi_1
X_257_ mem\[10\]\[2\] mem\[11\]\[2\] mem\[14\]\[2\] mem\[15\]\[2\]
+ _078_ _067_ VSS VSS VDD VDD _097_ sky130_fd_sc_hd__mux4_1
X_258_ mem\[2\]\[2\] mem\[3\]\[2\] mem\[6\]\[2\] mem\[7\]\[2\]
+ _071_ _090_ VSS VSS VDD VDD _098_ sky130_fd_sc_hd__mux4_1
X_259_ _081_ _097_ _098_ _080_ VSS VSS VDD VDD _099_ sky130_fd_sc_hd__a22oi_2
X_260_ _096_ _099_ VSS VSS VDD VDD _100_ sky130_fd_sc_hd__nand2_1
X_261_ _100_ net24 _085_ VSS VSS VDD VDD _026_ sky130_fd_sc_hd__mux2_1
X_262_ mem\[8\]\[3\] mem\[9\]\[3\] mem\[12\]\[3\] mem\[13\]\[3\]
+ _078_ _072_ VSS VSS VDD VDD _101_ sky130_fd_sc_hd__mux4_1
X_263_ mem\[0\]\[3\] mem\[1\]\[3\] mem\[4\]\[3\] mem\[5\]\[3\]
+ _057_ _068_ VSS VSS VDD VDD _102_ sky130_fd_sc_hd__mux4_1
X_264_ _075_ _101_ _102_ _074_ VSS VSS VDD VDD _103_ sky130_fd_sc_hd__a22oi_1
X_265_ mem\[10\]\[3\] mem\[11\]\[3\] mem\[14\]\[3\] mem\[15\]\[3\]
+ _056_ _067_ VSS VSS VDD VDD _104_ sky130_fd_sc_hd__mux4_1
X_266_ mem\[2\]\[3\] mem\[3\]\[3\] mem\[6\]\[3\] mem\[7\]\[3\]
+ _071_ _090_ VSS VSS VDD VDD _105_ sky130_fd_sc_hd__mux4_4
X_267_ _081_ _104_ _105_ _080_ VSS VSS VDD VDD _106_ sky130_fd_sc_hd__a22oi_4
X_268_ _103_ _106_ VSS VSS VDD VDD _107_ sky130_fd_sc_hd__nand2_1
X_269_ _107_ net25 _085_ VSS VSS VDD VDD _027_ sky130_fd_sc_hd__mux2_1
X_270_ mem\[8\]\[4\] mem\[9\]\[4\] mem\[12\]\[4\] mem\[13\]\[4\]
+ _078_ _072_ VSS VSS VDD VDD _108_ sky130_fd_sc_hd__mux4_1
X_271_ mem\[0\]\[4\] mem\[1\]\[4\] mem\[4\]\[4\] mem\[5\]\[4\]
+ _057_ _068_ VSS VSS VDD VDD _109_ sky130_fd_sc_hd__mux4_1
X_272_ _075_ _108_ _109_ _074_ VSS VSS VDD VDD _110_ sky130_fd_sc_hd__a22oi_1
X_273_ mem\[10\]\[4\] mem\[11\]\[4\] mem\[14\]\[4\] mem\[15\]\[4\]
+ _056_ _067_ VSS VSS VDD VDD _111_ sky130_fd_sc_hd__mux4_1
X_274_ mem\[2\]\[4\] mem\[3\]\[4\] mem\[6\]\[4\] mem\[7\]\[4\]
+ _071_ _090_ VSS VSS VDD VDD _112_ sky130_fd_sc_hd__mux4_1
X_275_ _081_ _111_ _112_ _080_ VSS VSS VDD VDD _113_ sky130_fd_sc_hd__a22oi_2
X_276_ _110_ _113_ VSS VSS VDD VDD _114_ sky130_fd_sc_hd__nand2_1
X_277_ _114_ net26 _085_ VSS VSS VDD VDD _028_ sky130_fd_sc_hd__mux2_1
X_278_ mem\[8\]\[5\] mem\[9\]\[5\] mem\[12\]\[5\] mem\[13\]\[5\]
+ _078_ _072_ VSS VSS VDD VDD _115_ sky130_fd_sc_hd__mux4_1
X_279_ mem\[0\]\[5\] mem\[1\]\[5\] mem\[4\]\[5\] mem\[5\]\[5\]
+ _057_ _090_ VSS VSS VDD VDD _116_ sky130_fd_sc_hd__mux4_1
X_280_ _075_ _115_ _116_ _074_ VSS VSS VDD VDD _117_ sky130_fd_sc_hd__a22oi_1
X_281_ mem\[10\]\[5\] mem\[11\]\[5\] mem\[14\]\[5\] mem\[15\]\[5\]
+ _056_ _067_ VSS VSS VDD VDD _118_ sky130_fd_sc_hd__mux4_1
X_282_ mem\[2\]\[5\] mem\[3\]\[5\] mem\[6\]\[5\] mem\[7\]\[5\]
+ _071_ _090_ VSS VSS VDD VDD _119_ sky130_fd_sc_hd__mux4_1
X_283_ _081_ _118_ _119_ _080_ VSS VSS VDD VDD _120_ sky130_fd_sc_hd__a22oi_2
X_284_ _117_ _120_ VSS VSS VDD VDD _121_ sky130_fd_sc_hd__nand2_1
X_285_ _121_ net27 _085_ VSS VSS VDD VDD _029_ sky130_fd_sc_hd__mux2_1
X_286_ mem\[8\]\[6\] mem\[9\]\[6\] mem\[12\]\[6\] mem\[13\]\[6\]
+ _078_ _072_ VSS VSS VDD VDD _122_ sky130_fd_sc_hd__mux4_1
X_287_ mem\[0\]\[6\] mem\[1\]\[6\] mem\[4\]\[6\] mem\[5\]\[6\]
+ _057_ _090_ VSS VSS VDD VDD _123_ sky130_fd_sc_hd__mux4_1
X_288_ _075_ _122_ _123_ _074_ VSS VSS VDD VDD _124_ sky130_fd_sc_hd__a22oi_1
X_289_ mem\[10\]\[6\] mem\[11\]\[6\] mem\[14\]\[6\] mem\[15\]\[6\]
+ _056_ _067_ VSS VSS VDD VDD _125_ sky130_fd_sc_hd__mux4_1
X_290_ mem\[2\]\[6\] mem\[3\]\[6\] mem\[6\]\[6\] mem\[7\]\[6\]
+ _071_ _090_ VSS VSS VDD VDD _126_ sky130_fd_sc_hd__mux4_1
X_291_ _081_ _125_ _126_ _080_ VSS VSS VDD VDD _127_ sky130_fd_sc_hd__a22oi_2
X_292_ _124_ _127_ VSS VSS VDD VDD _128_ sky130_fd_sc_hd__nand2_1
X_293_ _128_ net28 _085_ VSS VSS VDD VDD _030_ sky130_fd_sc_hd__mux2_1
X_294_ mem\[8\]\[7\] mem\[9\]\[7\] mem\[12\]\[7\] mem\[13\]\[7\]
+ _078_ _067_ VSS VSS VDD VDD _129_ sky130_fd_sc_hd__mux4_1
X_295_ mem\[0\]\[7\] mem\[1\]\[7\] mem\[4\]\[7\] mem\[5\]\[7\]
+ _057_ _090_ VSS VSS VDD VDD _130_ sky130_fd_sc_hd__mux4_1
X_296_ _075_ _129_ _130_ _074_ VSS VSS VDD VDD _131_ sky130_fd_sc_hd__a22oi_1
X_297_ mem\[10\]\[7\] mem\[11\]\[7\] mem\[14\]\[7\] mem\[15\]\[7\]
+ _056_ _067_ VSS VSS VDD VDD _132_ sky130_fd_sc_hd__mux4_1
X_298_ mem\[2\]\[7\] mem\[3\]\[7\] mem\[6\]\[7\] mem\[7\]\[7\]
+ _071_ _090_ VSS VSS VDD VDD _133_ sky130_fd_sc_hd__mux4_1
X_299_ _081_ _132_ _133_ _080_ VSS VSS VDD VDD _134_ sky130_fd_sc_hd__a22oi_2
X_300_ _131_ _134_ VSS VSS VDD VDD _135_ sky130_fd_sc_hd__nand2_1
X_301_ _135_ net29 _085_ VSS VSS VDD VDD _031_ sky130_fd_sc_hd__mux2_1
X_302_ net2 net20 _055_ VSS VSS VDD VDD _032_ sky130_fd_sc_hd__o21ai_0
X_303_ _050_ _054_ net2 VSS VSS VDD VDD _136_ sky130_fd_sc_hd__a21boi_1
X_304_ _017_ _136_ VSS VSS VDD VDD _033_ sky130_fd_sc_hd__xnor2_1
X_305_ rd_ptr\[1\] _018_ _136_ VSS VSS VDD VDD _034_ sky130_fd_sc_hd__mux2_1
X_306_ net2 _165_ VSS VSS VDD VDD _137_ sky130_fd_sc_hd__nand2_1
X_307_ _050_ _054_ _137_ VSS VSS VDD VDD _138_ sky130_fd_sc_hd__a21oi_1
X_308_ _154_ _138_ VSS VSS VDD VDD _035_ sky130_fd_sc_hd__xnor2_1
X_309_ net2 _057_ rd_ptr\[1\] _068_ VSS VSS VDD VDD _139_
+ sky130_fd_sc_hd__nand4_1
X_310_ _050_ _054_ _139_ VSS VSS VDD VDD _140_ sky130_fd_sc_hd__a21oi_1
X_311_ _149_ _140_ VSS VSS VDD VDD _036_ sky130_fd_sc_hd__xnor2_1
X_312_ net2 _068_ rd_ptr\[3\] _165_ VSS VSS VDD VDD _141_
+ sky130_fd_sc_hd__nand4_1
X_313_ _050_ _054_ _141_ VSS VSS VDD VDD _142_ sky130_fd_sc_hd__a21oi_1
X_314_ rd_ptr\[4\] _142_ VSS VSS VDD VDD _037_ sky130_fd_sc_hd__xor2_1
X_315_ _022_ _062_ VSS VSS VDD VDD _038_ sky130_fd_sc_hd__xnor2_1
X_316_ wr_ptr\[1\] _023_ _059_ VSS VSS VDD VDD _039_ sky130_fd_sc_hd__mux2_1
X_317_ wr_ptr\[2\] _061_ VSS VSS VDD VDD _040_ sky130_fd_sc_hd__xor2_1
X_318_ net12 wr_ptr\[2\] wr_ptr\[1\] wr_ptr\[0\] VSS VSS VDD
+ VDD _143_ sky130_fd_sc_hd__nand4_1
X_319_ net19 _054_ _143_ VSS VSS VDD VDD _144_ sky130_fd_sc_hd__a21oi_1
X_320_ wr_ptr\[3\] _144_ VSS VSS VDD VDD _041_ sky130_fd_sc_hd__xor2_1
X_321_ wr_ptr\[4\] _007_ VSS VSS VDD VDD _042_ sky130_fd_sc_hd__xor2_1
X_322_ _167_ net16 VSS VSS VDD VDD _145_ sky130_fd_sc_hd__xor2_1
X_323_ net18 net17 net19 _145_ VSS VSS VDD VDD net13 sky130_fd_sc_hd__nor4_1
X_324_ net16 net18 net17 net19 VSS VSS VDD VDD net14 sky130_fd_sc_hd__a31o_1
X_325_ _146_ wr_ptr\[1\] _147_ VSS VSS VDD VDD _148_ net16
+ sky130_fd_sc_hd__fa_2
X_326_ _149_ wr_ptr\[3\] VSS VSS VDD VDD _150_ _151_ sky130_fd_sc_hd__ha_1
X_327_ _146_ wr_ptr\[1\] VSS VSS VDD VDD _152_ _153_ sky130_fd_sc_hd__ha_1
X_328_ _154_ wr_ptr\[2\] VSS VSS VDD VDD _155_ _156_ sky130_fd_sc_hd__ha_1
X_329_ _022_ _157_ VSS VSS VDD VDD _158_ _023_ sky130_fd_sc_hd__ha_1
X_330_ _022_ wr_ptr\[1\] VSS VSS VDD VDD _159_ _160_ sky130_fd_sc_hd__ha_1
X_331_ wr_ptr\[0\] _157_ VSS VSS VDD VDD _161_ _162_ sky130_fd_sc_hd__ha_1
X_332_ wr_ptr\[0\] wr_ptr\[1\] VSS VSS VDD VDD _163_ _164_
+ sky130_fd_sc_hd__ha_1
X_333_ rd_ptr\[0\] rd_ptr\[1\] VSS VSS VDD VDD _165_ _018_
+ sky130_fd_sc_hd__ha_1
X_334_ rd_ptr\[0\] _022_ VSS VSS VDD VDD _166_ _167_ sky130_fd_sc_hd__ha_1
Xmem\[0\]\[0\]$_DFFE_PP_ clknet_4_3_0_clk net4 _001_ VSS VSS
+ VDD VDD mem\[0\]\[0\] sky130_fd_sc_hd__edfxtp_1
Xmem\[0\]\[1\]$_DFFE_PP_ clknet_4_7_0_clk net5 _001_ VSS VSS
+ VDD VDD mem\[0\]\[1\] sky130_fd_sc_hd__edfxtp_1
Xmem\[0\]\[2\]$_DFFE_PP_ clknet_4_7_0_clk net6 _001_ VSS VSS
+ VDD VDD mem\[0\]\[2\] sky130_fd_sc_hd__edfxtp_1
Xmem\[0\]\[3\]$_DFFE_PP_ clknet_4_5_0_clk net7 _001_ VSS VSS
+ VDD VDD mem\[0\]\[3\] sky130_fd_sc_hd__edfxtp_1
Xmem\[0\]\[4\]$_DFFE_PP_ clknet_4_5_0_clk net8 _001_ VSS VSS
+ VDD VDD mem\[0\]\[4\] sky130_fd_sc_hd__edfxtp_1
Xmem\[0\]\[5\]$_DFFE_PP_ clknet_4_6_0_clk net9 _001_ VSS VSS
+ VDD VDD mem\[0\]\[5\] sky130_fd_sc_hd__edfxtp_1
Xmem\[0\]\[6\]$_DFFE_PP_ clknet_4_6_0_clk net10 _001_ VSS
+ VSS VDD VDD mem\[0\]\[6\] sky130_fd_sc_hd__edfxtp_1
Xmem\[0\]\[7\]$_DFFE_PP_ clknet_4_3_0_clk net11 _001_ VSS
+ VSS VDD VDD mem\[0\]\[7\] sky130_fd_sc_hd__edfxtp_1
Xmem\[10\]\[0\]$_DFFE_PP_ clknet_4_9_0_clk net4 _002_ VSS
+ VSS VDD VDD mem\[10\]\[0\] sky130_fd_sc_hd__edfxtp_1
Xmem\[10\]\[1\]$_DFFE_PP_ clknet_4_8_0_clk net5 _002_ VSS
+ VSS VDD VDD mem\[10\]\[1\] sky130_fd_sc_hd__edfxtp_1
Xmem\[10\]\[2\]$_DFFE_PP_ clknet_4_3_0_clk net6 _002_ VSS
+ VSS VDD VDD mem\[10\]\[2\] sky130_fd_sc_hd__edfxtp_1
Xmem\[10\]\[3\]$_DFFE_PP_ clknet_4_1_0_clk net7 _002_ VSS
+ VSS VDD VDD mem\[10\]\[3\] sky130_fd_sc_hd__edfxtp_1
Xmem\[10\]\[4\]$_DFFE_PP_ clknet_4_0_0_clk net8 _002_ VSS
+ VSS VDD VDD mem\[10\]\[4\] sky130_fd_sc_hd__edfxtp_1
Xmem\[10\]\[5\]$_DFFE_PP_ clknet_4_1_0_clk net9 _002_ VSS
+ VSS VDD VDD mem\[10\]\[5\] sky130_fd_sc_hd__edfxtp_1
Xmem\[10\]\[6\]$_DFFE_PP_ clknet_4_3_0_clk net10 _002_ VSS
+ VSS VDD VDD mem\[10\]\[6\] sky130_fd_sc_hd__edfxtp_1
Xmem\[10\]\[7\]$_DFFE_PP_ clknet_4_1_0_clk net11 _002_ VSS
+ VSS VDD VDD mem\[10\]\[7\] sky130_fd_sc_hd__edfxtp_1
Xmem\[11\]\[0\]$_DFFE_PP_ clknet_4_9_0_clk net4 _003_ VSS
+ VSS VDD VDD mem\[11\]\[0\] sky130_fd_sc_hd__edfxtp_1
Xmem\[11\]\[1\]$_DFFE_PP_ clknet_4_9_0_clk net5 _003_ VSS
+ VSS VDD VDD mem\[11\]\[1\] sky130_fd_sc_hd__edfxtp_1
Xmem\[11\]\[2\]$_DFFE_PP_ clknet_4_3_0_clk net6 _003_ VSS
+ VSS VDD VDD mem\[11\]\[2\] sky130_fd_sc_hd__edfxtp_1
Xmem\[11\]\[3\]$_DFFE_PP_ clknet_4_0_0_clk net7 _003_ VSS
+ VSS VDD VDD mem\[11\]\[3\] sky130_fd_sc_hd__edfxtp_1
Xmem\[11\]\[4\]$_DFFE_PP_ clknet_4_0_0_clk net8 _003_ VSS
+ VSS VDD VDD mem\[11\]\[4\] sky130_fd_sc_hd__edfxtp_1
Xmem\[11\]\[5\]$_DFFE_PP_ clknet_4_0_0_clk net9 _003_ VSS
+ VSS VDD VDD mem\[11\]\[5\] sky130_fd_sc_hd__edfxtp_1
Xmem\[11\]\[6\]$_DFFE_PP_ clknet_4_2_0_clk net10 _003_ VSS
+ VSS VDD VDD mem\[11\]\[6\] sky130_fd_sc_hd__edfxtp_1
Xmem\[11\]\[7\]$_DFFE_PP_ clknet_4_0_0_clk net11 _003_ VSS
+ VSS VDD VDD mem\[11\]\[7\] sky130_fd_sc_hd__edfxtp_1
Xmem\[12\]\[0\]$_DFFE_PP_ clknet_4_11_0_clk net4 _004_ VSS
+ VSS VDD VDD mem\[12\]\[0\] sky130_fd_sc_hd__edfxtp_1
Xmem\[12\]\[1\]$_DFFE_PP_ clknet_4_15_0_clk net5 _004_ VSS
+ VSS VDD VDD mem\[12\]\[1\] sky130_fd_sc_hd__edfxtp_1
Xmem\[12\]\[2\]$_DFFE_PP_ clknet_4_15_0_clk net6 _004_ VSS
+ VSS VDD VDD mem\[12\]\[2\] sky130_fd_sc_hd__edfxtp_1
Xmem\[12\]\[3\]$_DFFE_PP_ clknet_4_13_0_clk net7 _004_ VSS
+ VSS VDD VDD mem\[12\]\[3\] sky130_fd_sc_hd__edfxtp_1
Xmem\[12\]\[4\]$_DFFE_PP_ clknet_4_13_0_clk net8 _004_ VSS
+ VSS VDD VDD mem\[12\]\[4\] sky130_fd_sc_hd__edfxtp_1
Xmem\[12\]\[5\]$_DFFE_PP_ clknet_4_14_0_clk net9 _004_ VSS
+ VSS VDD VDD mem\[12\]\[5\] sky130_fd_sc_hd__edfxtp_1
Xmem\[12\]\[6\]$_DFFE_PP_ clknet_4_14_0_clk net10 _004_ VSS
+ VSS VDD VDD mem\[12\]\[6\] sky130_fd_sc_hd__edfxtp_1
Xmem\[12\]\[7\]$_DFFE_PP_ clknet_4_14_0_clk net11 _004_ VSS
+ VSS VDD VDD mem\[12\]\[7\] sky130_fd_sc_hd__edfxtp_1
Xmem\[13\]\[0\]$_DFFE_PP_ clknet_4_14_0_clk net4 _005_ VSS
+ VSS VDD VDD mem\[13\]\[0\] sky130_fd_sc_hd__edfxtp_1
Xmem\[13\]\[1\]$_DFFE_PP_ clknet_4_15_0_clk net5 _005_ VSS
+ VSS VDD VDD mem\[13\]\[1\] sky130_fd_sc_hd__edfxtp_1
Xmem\[13\]\[2\]$_DFFE_PP_ clknet_4_15_0_clk net6 _005_ VSS
+ VSS VDD VDD mem\[13\]\[2\] sky130_fd_sc_hd__edfxtp_1
Xmem\[13\]\[3\]$_DFFE_PP_ clknet_4_13_0_clk net7 _005_ VSS
+ VSS VDD VDD mem\[13\]\[3\] sky130_fd_sc_hd__edfxtp_1
Xmem\[13\]\[4\]$_DFFE_PP_ clknet_4_12_0_clk net8 _005_ VSS
+ VSS VDD VDD mem\[13\]\[4\] sky130_fd_sc_hd__edfxtp_1
Xmem\[13\]\[5\]$_DFFE_PP_ clknet_4_14_0_clk net9 _005_ VSS
+ VSS VDD VDD mem\[13\]\[5\] sky130_fd_sc_hd__edfxtp_1
Xmem\[13\]\[6\]$_DFFE_PP_ clknet_4_14_0_clk net10 _005_ VSS
+ VSS VDD VDD mem\[13\]\[6\] sky130_fd_sc_hd__edfxtp_1
Xmem\[13\]\[7\]$_DFFE_PP_ clknet_4_14_0_clk net11 _005_ VSS
+ VSS VDD VDD mem\[13\]\[7\] sky130_fd_sc_hd__edfxtp_1
Xmem\[14\]\[0\]$_DFFE_PP_ clknet_4_9_0_clk net4 _006_ VSS
+ VSS VDD VDD mem\[14\]\[0\] sky130_fd_sc_hd__edfxtp_1
Xmem\[14\]\[1\]$_DFFE_PP_ clknet_4_9_0_clk net5 _006_ VSS
+ VSS VDD VDD mem\[14\]\[1\] sky130_fd_sc_hd__edfxtp_1
Xmem\[14\]\[2\]$_DFFE_PP_ clknet_4_3_0_clk net6 _006_ VSS
+ VSS VDD VDD mem\[14\]\[2\] sky130_fd_sc_hd__edfxtp_1
Xmem\[14\]\[3\]$_DFFE_PP_ clknet_4_0_0_clk net7 _006_ VSS
+ VSS VDD VDD mem\[14\]\[3\] sky130_fd_sc_hd__edfxtp_1
Xmem\[14\]\[4\]$_DFFE_PP_ clknet_4_0_0_clk net8 _006_ VSS
+ VSS VDD VDD mem\[14\]\[4\] sky130_fd_sc_hd__edfxtp_1
Xmem\[14\]\[5\]$_DFFE_PP_ clknet_4_2_0_clk net9 _006_ VSS
+ VSS VDD VDD mem\[14\]\[5\] sky130_fd_sc_hd__edfxtp_1
Xmem\[14\]\[6\]$_DFFE_PP_ clknet_4_2_0_clk net10 _006_ VSS
+ VSS VDD VDD mem\[14\]\[6\] sky130_fd_sc_hd__edfxtp_1
Xmem\[14\]\[7\]$_DFFE_PP_ clknet_4_0_0_clk net11 _006_ VSS
+ VSS VDD VDD mem\[14\]\[7\] sky130_fd_sc_hd__edfxtp_1
Xmem\[15\]\[0\]$_DFFE_PP_ clknet_4_9_0_clk net4 _007_ VSS
+ VSS VDD VDD mem\[15\]\[0\] sky130_fd_sc_hd__edfxtp_1
Xmem\[15\]\[1\]$_DFFE_PP_ clknet_4_9_0_clk net5 _007_ VSS
+ VSS VDD VDD mem\[15\]\[1\] sky130_fd_sc_hd__edfxtp_1
Xmem\[15\]\[2\]$_DFFE_PP_ clknet_4_3_0_clk net6 _007_ VSS
+ VSS VDD VDD mem\[15\]\[2\] sky130_fd_sc_hd__edfxtp_1
Xmem\[15\]\[3\]$_DFFE_PP_ clknet_4_0_0_clk net7 _007_ VSS
+ VSS VDD VDD mem\[15\]\[3\] sky130_fd_sc_hd__edfxtp_1
Xmem\[15\]\[4\]$_DFFE_PP_ clknet_4_0_0_clk net8 _007_ VSS
+ VSS VDD VDD mem\[15\]\[4\] sky130_fd_sc_hd__edfxtp_1
Xmem\[15\]\[5\]$_DFFE_PP_ clknet_4_2_0_clk net9 _007_ VSS
+ VSS VDD VDD mem\[15\]\[5\] sky130_fd_sc_hd__edfxtp_1
Xmem\[15\]\[6\]$_DFFE_PP_ clknet_4_2_0_clk net10 _007_ VSS
+ VSS VDD VDD mem\[15\]\[6\] sky130_fd_sc_hd__edfxtp_1
Xmem\[15\]\[7\]$_DFFE_PP_ clknet_4_0_0_clk net11 _007_ VSS
+ VSS VDD VDD mem\[15\]\[7\] sky130_fd_sc_hd__edfxtp_1
Xmem\[1\]\[0\]$_DFFE_PP_ clknet_4_12_0_clk net4 _008_ VSS
+ VSS VDD VDD mem\[1\]\[0\] sky130_fd_sc_hd__edfxtp_1
Xmem\[1\]\[1\]$_DFFE_PP_ clknet_4_13_0_clk net5 _008_ VSS
+ VSS VDD VDD mem\[1\]\[1\] sky130_fd_sc_hd__edfxtp_1
Xmem\[1\]\[2\]$_DFFE_PP_ clknet_4_7_0_clk net6 _008_ VSS VSS
+ VDD VDD mem\[1\]\[2\] sky130_fd_sc_hd__edfxtp_1
Xmem\[1\]\[3\]$_DFFE_PP_ clknet_4_5_0_clk net7 _008_ VSS VSS
+ VDD VDD mem\[1\]\[3\] sky130_fd_sc_hd__edfxtp_1
Xmem\[1\]\[4\]$_DFFE_PP_ clknet_4_4_0_clk net8 _008_ VSS VSS
+ VDD VDD mem\[1\]\[4\] sky130_fd_sc_hd__edfxtp_1
Xmem\[1\]\[5\]$_DFFE_PP_ clknet_4_6_0_clk net9 _008_ VSS VSS
+ VDD VDD mem\[1\]\[5\] sky130_fd_sc_hd__edfxtp_1
Xmem\[1\]\[6\]$_DFFE_PP_ clknet_4_12_0_clk net10 _008_ VSS
+ VSS VDD VDD mem\[1\]\[6\] sky130_fd_sc_hd__edfxtp_1
Xmem\[1\]\[7\]$_DFFE_PP_ clknet_4_6_0_clk net11 _008_ VSS
+ VSS VDD VDD mem\[1\]\[7\] sky130_fd_sc_hd__edfxtp_1
Xmem\[2\]\[0\]$_DFFE_PP_ clknet_4_11_0_clk net4 _009_ VSS
+ VSS VDD VDD mem\[2\]\[0\] sky130_fd_sc_hd__edfxtp_1
Xmem\[2\]\[1\]$_DFFE_PP_ clknet_4_10_0_clk net5 _009_ VSS
+ VSS VDD VDD mem\[2\]\[1\] sky130_fd_sc_hd__edfxtp_1
Xmem\[2\]\[2\]$_DFFE_PP_ clknet_4_9_0_clk net6 _009_ VSS VSS
+ VDD VDD mem\[2\]\[2\] sky130_fd_sc_hd__edfxtp_1
Xmem\[2\]\[3\]$_DFFE_PP_ clknet_4_8_0_clk net7 _009_ VSS VSS
+ VDD VDD mem\[2\]\[3\] sky130_fd_sc_hd__edfxtp_1
Xmem\[2\]\[4\]$_DFFE_PP_ clknet_4_2_0_clk net8 _009_ VSS VSS
+ VDD VDD mem\[2\]\[4\] sky130_fd_sc_hd__edfxtp_1
Xmem\[2\]\[5\]$_DFFE_PP_ clknet_4_9_0_clk net9 _009_ VSS VSS
+ VDD VDD mem\[2\]\[5\] sky130_fd_sc_hd__edfxtp_1
Xmem\[2\]\[6\]$_DFFE_PP_ clknet_4_10_0_clk net10 _009_ VSS
+ VSS VDD VDD mem\[2\]\[6\] sky130_fd_sc_hd__edfxtp_1
Xmem\[2\]\[7\]$_DFFE_PP_ clknet_4_8_0_clk net11 _009_ VSS
+ VSS VDD VDD mem\[2\]\[7\] sky130_fd_sc_hd__edfxtp_1
Xmem\[3\]\[0\]$_DFFE_PP_ clknet_4_11_0_clk net4 _010_ VSS
+ VSS VDD VDD mem\[3\]\[0\] sky130_fd_sc_hd__edfxtp_1
Xmem\[3\]\[1\]$_DFFE_PP_ clknet_4_10_0_clk net5 _010_ VSS
+ VSS VDD VDD mem\[3\]\[1\] sky130_fd_sc_hd__edfxtp_1
Xmem\[3\]\[2\]$_DFFE_PP_ clknet_4_11_0_clk net6 _010_ VSS
+ VSS VDD VDD mem\[3\]\[2\] sky130_fd_sc_hd__edfxtp_1
Xmem\[3\]\[3\]$_DFFE_PP_ clknet_4_8_0_clk net7 _010_ VSS VSS
+ VDD VDD mem\[3\]\[3\] sky130_fd_sc_hd__edfxtp_1
Xmem\[3\]\[4\]$_DFFE_PP_ clknet_4_2_0_clk net8 _010_ VSS VSS
+ VDD VDD mem\[3\]\[4\] sky130_fd_sc_hd__edfxtp_1
Xmem\[3\]\[5\]$_DFFE_PP_ clknet_4_8_0_clk net9 _010_ VSS VSS
+ VDD VDD mem\[3\]\[5\] sky130_fd_sc_hd__edfxtp_1
Xmem\[3\]\[6\]$_DFFE_PP_ clknet_4_10_0_clk net10 _010_ VSS
+ VSS VDD VDD mem\[3\]\[6\] sky130_fd_sc_hd__edfxtp_1
Xmem\[3\]\[7\]$_DFFE_PP_ clknet_4_8_0_clk net11 _010_ VSS
+ VSS VDD VDD mem\[3\]\[7\] sky130_fd_sc_hd__edfxtp_1
Xmem\[4\]\[0\]$_DFFE_PP_ clknet_4_12_0_clk net4 _011_ VSS
+ VSS VDD VDD mem\[4\]\[0\] sky130_fd_sc_hd__edfxtp_1
Xmem\[4\]\[1\]$_DFFE_PP_ clknet_4_7_0_clk net5 _011_ VSS VSS
+ VDD VDD mem\[4\]\[1\] sky130_fd_sc_hd__edfxtp_1
Xmem\[4\]\[2\]$_DFFE_PP_ clknet_4_7_0_clk net6 _011_ VSS VSS
+ VDD VDD mem\[4\]\[2\] sky130_fd_sc_hd__edfxtp_1
Xmem\[4\]\[3\]$_DFFE_PP_ clknet_4_5_0_clk net7 _011_ VSS VSS
+ VDD VDD mem\[4\]\[3\] sky130_fd_sc_hd__edfxtp_1
Xmem\[4\]\[4\]$_DFFE_PP_ clknet_4_4_0_clk net8 _011_ VSS VSS
+ VDD VDD mem\[4\]\[4\] sky130_fd_sc_hd__edfxtp_1
Xmem\[4\]\[5\]$_DFFE_PP_ clknet_4_6_0_clk net9 _011_ VSS VSS
+ VDD VDD mem\[4\]\[5\] sky130_fd_sc_hd__edfxtp_1
Xmem\[4\]\[6\]$_DFFE_PP_ clknet_4_12_0_clk net10 _011_ VSS
+ VSS VDD VDD mem\[4\]\[6\] sky130_fd_sc_hd__edfxtp_1
Xmem\[4\]\[7\]$_DFFE_PP_ clknet_4_6_0_clk net11 _011_ VSS
+ VSS VDD VDD mem\[4\]\[7\] sky130_fd_sc_hd__edfxtp_1
Xmem\[5\]\[0\]$_DFFE_PP_ clknet_4_6_0_clk net4 _012_ VSS VSS
+ VDD VDD mem\[5\]\[0\] sky130_fd_sc_hd__edfxtp_1
Xmem\[5\]\[1\]$_DFFE_PP_ clknet_4_7_0_clk net5 _012_ VSS VSS
+ VDD VDD mem\[5\]\[1\] sky130_fd_sc_hd__edfxtp_1
Xmem\[5\]\[2\]$_DFFE_PP_ clknet_4_7_0_clk net6 _012_ VSS VSS
+ VDD VDD mem\[5\]\[2\] sky130_fd_sc_hd__edfxtp_1
Xmem\[5\]\[3\]$_DFFE_PP_ clknet_4_7_0_clk net7 _012_ VSS VSS
+ VDD VDD mem\[5\]\[3\] sky130_fd_sc_hd__edfxtp_1
Xmem\[5\]\[4\]$_DFFE_PP_ clknet_4_7_0_clk net8 _012_ VSS VSS
+ VDD VDD mem\[5\]\[4\] sky130_fd_sc_hd__edfxtp_1
Xmem\[5\]\[5\]$_DFFE_PP_ clknet_4_6_0_clk net9 _012_ VSS VSS
+ VDD VDD mem\[5\]\[5\] sky130_fd_sc_hd__edfxtp_1
Xmem\[5\]\[6\]$_DFFE_PP_ clknet_4_6_0_clk net10 _012_ VSS
+ VSS VDD VDD mem\[5\]\[6\] sky130_fd_sc_hd__edfxtp_1
Xmem\[5\]\[7\]$_DFFE_PP_ clknet_4_6_0_clk net11 _012_ VSS
+ VSS VDD VDD mem\[5\]\[7\] sky130_fd_sc_hd__edfxtp_1
Xmem\[6\]\[0\]$_DFFE_PP_ clknet_4_11_0_clk net4 _013_ VSS
+ VSS VDD VDD mem\[6\]\[0\] sky130_fd_sc_hd__edfxtp_1
Xmem\[6\]\[1\]$_DFFE_PP_ clknet_4_11_0_clk net5 _013_ VSS
+ VSS VDD VDD mem\[6\]\[1\] sky130_fd_sc_hd__edfxtp_1
Xmem\[6\]\[2\]$_DFFE_PP_ clknet_4_11_0_clk net6 _013_ VSS
+ VSS VDD VDD mem\[6\]\[2\] sky130_fd_sc_hd__edfxtp_1
Xmem\[6\]\[3\]$_DFFE_PP_ clknet_4_8_0_clk net7 _013_ VSS VSS
+ VDD VDD mem\[6\]\[3\] sky130_fd_sc_hd__edfxtp_1
Xmem\[6\]\[4\]$_DFFE_PP_ clknet_4_2_0_clk net8 _013_ VSS VSS
+ VDD VDD mem\[6\]\[4\] sky130_fd_sc_hd__edfxtp_1
Xmem\[6\]\[5\]$_DFFE_PP_ clknet_4_8_0_clk net9 _013_ VSS VSS
+ VDD VDD mem\[6\]\[5\] sky130_fd_sc_hd__edfxtp_1
Xmem\[6\]\[6\]$_DFFE_PP_ clknet_4_10_0_clk net10 _013_ VSS
+ VSS VDD VDD mem\[6\]\[6\] sky130_fd_sc_hd__edfxtp_1
Xmem\[6\]\[7\]$_DFFE_PP_ clknet_4_8_0_clk net11 _013_ VSS
+ VSS VDD VDD mem\[6\]\[7\] sky130_fd_sc_hd__edfxtp_1
Xmem\[7\]\[0\]$_DFFE_PP_ clknet_4_11_0_clk net4 _014_ VSS
+ VSS VDD VDD mem\[7\]\[0\] sky130_fd_sc_hd__edfxtp_1
Xmem\[7\]\[1\]$_DFFE_PP_ clknet_4_10_0_clk net5 _014_ VSS
+ VSS VDD VDD mem\[7\]\[1\] sky130_fd_sc_hd__edfxtp_1
Xmem\[7\]\[2\]$_DFFE_PP_ clknet_4_9_0_clk net6 _014_ VSS VSS
+ VDD VDD mem\[7\]\[2\] sky130_fd_sc_hd__edfxtp_1
Xmem\[7\]\[3\]$_DFFE_PP_ clknet_4_8_0_clk net7 _014_ VSS VSS
+ VDD VDD mem\[7\]\[3\] sky130_fd_sc_hd__edfxtp_1
Xmem\[7\]\[4\]$_DFFE_PP_ clknet_4_2_0_clk net8 _014_ VSS VSS
+ VDD VDD mem\[7\]\[4\] sky130_fd_sc_hd__edfxtp_1
Xmem\[7\]\[5\]$_DFFE_PP_ clknet_4_10_0_clk net9 _014_ VSS
+ VSS VDD VDD mem\[7\]\[5\] sky130_fd_sc_hd__edfxtp_1
Xmem\[7\]\[6\]$_DFFE_PP_ clknet_4_10_0_clk net10 _014_ VSS
+ VSS VDD VDD mem\[7\]\[6\] sky130_fd_sc_hd__edfxtp_1
Xmem\[7\]\[7\]$_DFFE_PP_ clknet_4_2_0_clk net11 _014_ VSS
+ VSS VDD VDD mem\[7\]\[7\] sky130_fd_sc_hd__edfxtp_1
Xmem\[8\]\[0\]$_DFFE_PP_ clknet_4_11_0_clk net4 _015_ VSS
+ VSS VDD VDD mem\[8\]\[0\] sky130_fd_sc_hd__edfxtp_1
Xmem\[8\]\[1\]$_DFFE_PP_ clknet_4_15_0_clk net5 _015_ VSS
+ VSS VDD VDD mem\[8\]\[1\] sky130_fd_sc_hd__edfxtp_1
Xmem\[8\]\[2\]$_DFFE_PP_ clknet_4_15_0_clk net6 _015_ VSS
+ VSS VDD VDD mem\[8\]\[2\] sky130_fd_sc_hd__edfxtp_1
Xmem\[8\]\[3\]$_DFFE_PP_ clknet_4_13_0_clk net7 _015_ VSS
+ VSS VDD VDD mem\[8\]\[3\] sky130_fd_sc_hd__edfxtp_1
Xmem\[8\]\[4\]$_DFFE_PP_ clknet_4_12_0_clk net8 _015_ VSS
+ VSS VDD VDD mem\[8\]\[4\] sky130_fd_sc_hd__edfxtp_1
Xmem\[8\]\[5\]$_DFFE_PP_ clknet_4_14_0_clk net9 _015_ VSS
+ VSS VDD VDD mem\[8\]\[5\] sky130_fd_sc_hd__edfxtp_1
Xmem\[8\]\[6\]$_DFFE_PP_ clknet_4_14_0_clk net10 _015_ VSS
+ VSS VDD VDD mem\[8\]\[6\] sky130_fd_sc_hd__edfxtp_1
Xmem\[8\]\[7\]$_DFFE_PP_ clknet_4_12_0_clk net11 _015_ VSS
+ VSS VDD VDD mem\[8\]\[7\] sky130_fd_sc_hd__edfxtp_1
Xmem\[9\]\[0\]$_DFFE_PP_ clknet_4_14_0_clk net4 _016_ VSS
+ VSS VDD VDD mem\[9\]\[0\] sky130_fd_sc_hd__edfxtp_1
Xmem\[9\]\[1\]$_DFFE_PP_ clknet_4_15_0_clk net5 _016_ VSS
+ VSS VDD VDD mem\[9\]\[1\] sky130_fd_sc_hd__edfxtp_1
Xmem\[9\]\[2\]$_DFFE_PP_ clknet_4_15_0_clk net6 _016_ VSS
+ VSS VDD VDD mem\[9\]\[2\] sky130_fd_sc_hd__edfxtp_1
Xmem\[9\]\[3\]$_DFFE_PP_ clknet_4_15_0_clk net7 _016_ VSS
+ VSS VDD VDD mem\[9\]\[3\] sky130_fd_sc_hd__edfxtp_1
Xmem\[9\]\[4\]$_DFFE_PP_ clknet_4_12_0_clk net8 _016_ VSS
+ VSS VDD VDD mem\[9\]\[4\] sky130_fd_sc_hd__edfxtp_1
Xmem\[9\]\[5\]$_DFFE_PP_ clknet_4_14_0_clk net9 _016_ VSS
+ VSS VDD VDD mem\[9\]\[5\] sky130_fd_sc_hd__edfxtp_1
Xmem\[9\]\[6\]$_DFFE_PP_ clknet_4_14_0_clk net10 _016_ VSS
+ VSS VDD VDD mem\[9\]\[6\] sky130_fd_sc_hd__edfxtp_1
Xmem\[9\]\[7\]$_DFFE_PP_ clknet_4_12_0_clk net11 _016_ VSS
+ VSS VDD VDD mem\[9\]\[7\] sky130_fd_sc_hd__edfxtp_1
Xoutput_reg\[0\]$_DFFE_PN0P_ clknet_4_13_0_clk _024_ net1
+ VSS VSS VDD VDD net22 sky130_fd_sc_hd__dfrtp_1
Xoutput_reg\[1\]$_DFFE_PN0P_ clknet_4_13_0_clk _025_ net1
+ VSS VSS VDD VDD net23 sky130_fd_sc_hd__dfrtp_1
Xoutput_reg\[2\]$_DFFE_PN0P_ clknet_4_13_0_clk _026_ net1
+ VSS VSS VDD VDD net24 sky130_fd_sc_hd__dfrtp_1
Xoutput_reg\[3\]$_DFFE_PN0P_ clknet_4_5_0_clk _027_ net1 VSS
+ VSS VDD VDD net25 sky130_fd_sc_hd__dfrtp_1
Xoutput_reg\[4\]$_DFFE_PN0P_ clknet_4_5_0_clk _028_ net1 VSS
+ VSS VDD VDD net26 sky130_fd_sc_hd__dfrtp_1
Xoutput_reg\[5\]$_DFFE_PN0P_ clknet_4_13_0_clk _029_ net1
+ VSS VSS VDD VDD net27 sky130_fd_sc_hd__dfrtp_1
Xoutput_reg\[6\]$_DFFE_PN0P_ clknet_4_13_0_clk _030_ net1
+ VSS VSS VDD VDD net28 sky130_fd_sc_hd__dfrtp_1
Xoutput_reg\[7\]$_DFFE_PN0P_ clknet_4_7_0_clk _031_ net1 VSS
+ VSS VDD VDD net29 sky130_fd_sc_hd__dfrtp_1
Xoutput_valid$_DFFE_PN0P_ clknet_4_4_0_clk _032_ net1 VSS
+ VSS VDD VDD output_valid sky130_fd_sc_hd__dfrtp_1
Xrd_ptr\[0\]$_DFFE_PN0P_ clknet_4_4_0_clk _033_ net1 VSS VSS
+ VDD VDD rd_ptr\[0\] sky130_fd_sc_hd__dfrtp_1
Xrd_ptr\[0\]$_DFFE_PP_ clknet_4_4_0_clk _017_ _000_ VSS VSS
+ VDD VDD rd_ptr\[0\] sky130_fd_sc_hd__edfxtp_1
Xrd_ptr\[1\]$_DFFE_PN0P_ clknet_4_4_0_clk _034_ net1 VSS VSS
+ VDD VDD rd_ptr\[1\] sky130_fd_sc_hd__dfrtp_4
Xrd_ptr\[1\]$_DFFE_PP_ clknet_4_4_0_clk _018_ _000_ VSS VSS
+ VDD VDD rd_ptr\[1\] sky130_fd_sc_hd__edfxtp_1
Xrd_ptr\[2\]$_DFFE_PN0P_ clknet_4_4_0_clk _035_ net1 VSS VSS
+ VDD VDD rd_ptr\[2\] sky130_fd_sc_hd__dfrtp_1
Xrd_ptr\[2\]$_DFFE_PP_ clknet_4_4_0_clk _019_ _000_ VSS VSS
+ VDD VDD rd_ptr\[2\] sky130_fd_sc_hd__edfxtp_1