* CDL Netlist generated by OpenROAD

*.BUSDELIMITER [

.SUBCKT network_interface_cdc dest_id[0] dest_id[1] dest_id[2]
+ dest_id[3] dest_id[4] dest_id[5] dest_id[6] dest_id[7] dst_clk
+ dst_rst_n mem_addr[0] mem_addr[10] mem_addr[11] mem_addr[12]
+ mem_addr[13] mem_addr[14] mem_addr[15] mem_addr[16] mem_addr[17]
+ mem_addr[18] mem_addr[19] mem_addr[1] mem_addr[20] mem_addr[21]
+ mem_addr[22] mem_addr[23] mem_addr[24] mem_addr[25] mem_addr[26]
+ mem_addr[27] mem_addr[28] mem_addr[29] mem_addr[2] mem_addr[30]
+ mem_addr[31] mem_addr[3] mem_addr[4] mem_addr[5] mem_addr[6]
+ mem_addr[7] mem_addr[8] mem_addr[9] mem_rdata[0] mem_rdata[10]
+ mem_rdata[11] mem_rdata[12] mem_rdata[13] mem_rdata[14] mem_rdata[15]
+ mem_rdata[16] mem_rdata[17] mem_rdata[18] mem_rdata[19] mem_rdata[1]
+ mem_rdata[20] mem_rdata[21] mem_rdata[22] mem_rdata[23] mem_rdata[24]
+ mem_rdata[25] mem_rdata[26] mem_rdata[27] mem_rdata[28] mem_rdata[29]
+ mem_rdata[2] mem_rdata[30] mem_rdata[31] mem_rdata[3] mem_rdata[4]
+ mem_rdata[5] mem_rdata[6] mem_rdata[7] mem_rdata[8] mem_rdata[9]
+ mem_read mem_ready mem_wdata[0] mem_wdata[10] mem_wdata[11]
+ mem_wdata[12] mem_wdata[13] mem_wdata[14] mem_wdata[15] mem_wdata[16]
+ mem_wdata[17] mem_wdata[18] mem_wdata[19] mem_wdata[1] mem_wdata[20]
+ mem_wdata[21] mem_wdata[22] mem_wdata[23] mem_wdata[24] mem_wdata[25]
+ mem_wdata[26] mem_wdata[27] mem_wdata[28] mem_wdata[29] mem_wdata[2]
+ mem_wdata[30] mem_wdata[31] mem_wdata[3] mem_wdata[4] mem_wdata[5]
+ mem_wdata[6] mem_wdata[7] mem_wdata[8] mem_wdata[9] mem_write
+ msg_type[0] msg_type[1] msg_type[2] router_in_data[0] router_in_data[10]
+ router_in_data[11] router_in_data[12] router_in_data[13] router_in_data[14]
+ router_in_data[15] router_in_data[16] router_in_data[17] router_in_data[18]
+ router_in_data[19] router_in_data[1] router_in_data[20] router_in_data[21]
+ router_in_data[22] router_in_data[23] router_in_data[24] router_in_data[25]
+ router_in_data[26] router_in_data[27] router_in_data[28] router_in_data[29]
+ router_in_data[2] router_in_data[30] router_in_data[31] router_in_data[3]
+ router_in_data[4] router_in_data[5] router_in_data[6] router_in_data[7]
+ router_in_data[8] router_in_data[9] router_in_ready router_in_valid
+ router_out_data[0] router_out_data[10] router_out_data[11]
+ router_out_data[12] router_out_data[13] router_out_data[14]
+ router_out_data[15] router_out_data[16] router_out_data[17]
+ router_out_data[18] router_out_data[19] router_out_data[1]
+ router_out_data[20] router_out_data[21] router_out_data[22]
+ router_out_data[23] router_out_data[24] router_out_data[25]
+ router_out_data[26] router_out_data[27] router_out_data[28]
+ router_out_data[29] router_out_data[2] router_out_data[30]
+ router_out_data[31] router_out_data[3] router_out_data[4]
+ router_out_data[5] router_out_data[6] router_out_data[7] router_out_data[8]
+ router_out_data[9] router_out_ready router_out_valid src_clk
+ src_rst_n
X_300_ src_req_prev src_req_sync _141_ VDD VSS gf180mcu_fd_sc_mcu9t5v0__xor2_2
X_301_ src_data_valid_sync _141_ _142_ VDD VSS gf180mcu_fd_sc_mcu9t5v0__and2_2
X_302_ dst_state\[0\] _142_ _143_ VDD VSS gf180mcu_fd_sc_mcu9t5v0__and2_2
X_303_ net170 net69 _144_ VDD VSS gf180mcu_fd_sc_mcu9t5v0__nand2_2
X_304_ dst_state\[2\] _144_ _145_ VDD VSS gf180mcu_fd_sc_mcu9t5v0__and2_2
X_305_ _143_ _145_ _003_ VDD VSS gf180mcu_fd_sc_mcu9t5v0__or2_2
X_306_ src_is_write_op_flag _146_ VDD VSS gf180mcu_fd_sc_mcu9t5v0__clkinv_2
X_307_ src_state\[1\] _147_ VDD VSS gf180mcu_fd_sc_mcu9t5v0__clkinv_2
X_308_ dst_ack_prev dst_ack_sync _148_ VDD VSS gf180mcu_fd_sc_mcu9t5v0__xnor2_2
X_309_ net65 net32 _149_ VDD VSS gf180mcu_fd_sc_mcu9t5v0__nor2_2
X_310_ src_state\[0\] _149_ src_state\[3\] _150_ VDD VSS gf180mcu_fd_sc_mcu9t5v0__aoi21_2
X_311_ _146_ _147_ _148_ _150_ _005_ VDD VSS gf180mcu_fd_sc_mcu9t5v0__oai31_2
X_312_ src_state\[2\] _151_ VDD VSS gf180mcu_fd_sc_mcu9t5v0__clkinv_2
X_313_ dst_ack_prev dst_ack_sync _152_ VDD VSS gf180mcu_fd_sc_mcu9t5v0__xor2_2
X_314_ dst_data_valid_sync _152_ src_is_write_op_flag _153_
+ VDD VSS gf180mcu_fd_sc_mcu9t5v0__mux2_2
X_315_ _151_ _148_ _153_ _147_ _006_ VDD VSS gf180mcu_fd_sc_mcu9t5v0__oai22_2
X_316_ dst_state\[0\] _154_ VDD VSS gf180mcu_fd_sc_mcu9t5v0__clkinv_2
X_317_ src_data_valid_sync _144_ dst_is_write_op _155_ VDD
+ VSS gf180mcu_fd_sc_mcu9t5v0__mux2_2
X_318_ dst_state\[3\] _156_ VDD VSS gf180mcu_fd_sc_mcu9t5v0__clkinv_2
X_319_ _154_ _142_ _155_ _156_ _001_ VDD VSS gf180mcu_fd_sc_mcu9t5v0__oai22_2
X_320_ dst_state\[2\] _157_ VDD VSS gf180mcu_fd_sc_mcu9t5v0__clkinv_2
X_321_ net102 _142_ dst_is_write_op _158_ VDD VSS gf180mcu_fd_sc_mcu9t5v0__mux2_2
X_322_ dst_state\[1\] _159_ VDD VSS gf180mcu_fd_sc_mcu9t5v0__clkinv_2
X_323_ _157_ _144_ _158_ _159_ _002_ VDD VSS gf180mcu_fd_sc_mcu9t5v0__oai22_2
X_324_ dst_state\[3\] _155_ _160_ VDD VSS gf180mcu_fd_sc_mcu9t5v0__and2_2
X_325_ dst_state\[1\] dst_is_write_op _142_ _161_ VDD VSS
+ gf180mcu_fd_sc_mcu9t5v0__and3_2
X_326_ dst_is_write_op _162_ VDD VSS gf180mcu_fd_sc_mcu9t5v0__clkinv_2
X_327_ dst_state\[1\] _162_ net102 _163_ VDD VSS gf180mcu_fd_sc_mcu9t5v0__and3_2
X_328_ _163_ _164_ VDD VSS gf180mcu_fd_sc_mcu9t5v0__clkbuf_12
X_329_ _164_ _165_ VDD VSS gf180mcu_fd_sc_mcu9t5v0__clkbuf_12
X_330_ _160_ _161_ _165_ _004_ VDD VSS gf180mcu_fd_sc_mcu9t5v0__or3_2
X_331_ net65 net32 _166_ VDD VSS gf180mcu_fd_sc_mcu9t5v0__or2_2
X_332_ src_state\[0\] _166_ _167_ VDD VSS gf180mcu_fd_sc_mcu9t5v0__nand2_2
X_333_ src_state\[2\] _148_ _168_ VDD VSS gf180mcu_fd_sc_mcu9t5v0__nand2_2
X_334_ _167_ _168_ _007_ VDD VSS gf180mcu_fd_sc_mcu9t5v0__nand2_2
X_335_ _156_ _159_ net171 VDD VSS gf180mcu_fd_sc_mcu9t5v0__nand2_4
X_336_ dst_state\[3\] _162_ _169_ VDD VSS gf180mcu_fd_sc_mcu9t5v0__and2_2
X_337_ _165_ _169_ _298_ VDD VSS gf180mcu_fd_sc_mcu9t5v0__or2_2
X_338_ dst_state\[3\] dst_is_write_op _170_ VDD VSS gf180mcu_fd_sc_mcu9t5v0__and2_2
X_339_ _143_ _145_ _161_ _170_ _299_ VDD VSS gf180mcu_fd_sc_mcu9t5v0__or4_2
X_340_ src_state\[1\] _148_ src_state\[2\] _171_ VDD VSS gf180mcu_fd_sc_mcu9t5v0__aoi21_2
X_341_ _146_ _171_ _168_ _167_ _297_ VDD VSS gf180mcu_fd_sc_mcu9t5v0__oai211_2
X_342_ _146_ src_state\[1\] dst_data_valid_sync _172_ VDD
+ VSS gf180mcu_fd_sc_mcu9t5v0__and3_4
X_343_ _172_ _000_ VDD VSS gf180mcu_fd_sc_mcu9t5v0__clkbuf_12
X_344_ dst_state\[0\] dst_is_write_op dst_state\[1\] _173_
+ VDD VSS gf180mcu_fd_sc_mcu9t5v0__mux2_2
X_345_ _142_ _173_ _174_ VDD VSS gf180mcu_fd_sc_mcu9t5v0__and2_4
X_346_ dst_ack _174_ _008_ VDD VSS gf180mcu_fd_sc_mcu9t5v0__xor2_2
X_347_ _174_ _175_ VDD VSS gf180mcu_fd_sc_mcu9t5v0__buf_8
X_348_ net138 src_to_dst_data\[0\] _175_ _009_ VDD VSS gf180mcu_fd_sc_mcu9t5v0__mux2_2
X_349_ net139 src_to_dst_data\[10\] _175_ _010_ VDD VSS gf180mcu_fd_sc_mcu9t5v0__mux2_2
X_350_ net140 src_to_dst_data\[11\] _175_ _011_ VDD VSS gf180mcu_fd_sc_mcu9t5v0__mux2_2
X_351_ net141 src_to_dst_data\[12\] _175_ _012_ VDD VSS gf180mcu_fd_sc_mcu9t5v0__mux2_2
X_352_ net142 src_to_dst_data\[13\] _175_ _013_ VDD VSS gf180mcu_fd_sc_mcu9t5v0__mux2_2
X_353_ net143 src_to_dst_data\[14\] _175_ _014_ VDD VSS gf180mcu_fd_sc_mcu9t5v0__mux2_2
X_354_ net144 src_to_dst_data\[15\] _175_ _015_ VDD VSS gf180mcu_fd_sc_mcu9t5v0__mux2_2
X_355_ net145 src_to_dst_data\[16\] _175_ _016_ VDD VSS gf180mcu_fd_sc_mcu9t5v0__mux2_2
X_356_ net146 src_to_dst_data\[17\] _175_ _017_ VDD VSS gf180mcu_fd_sc_mcu9t5v0__mux2_2
X_357_ net147 src_to_dst_data\[18\] _175_ _018_ VDD VSS gf180mcu_fd_sc_mcu9t5v0__mux2_2
X_358_ _174_ _176_ VDD VSS gf180mcu_fd_sc_mcu9t5v0__clkbuf_8
X_359_ net148 src_to_dst_data\[19\] _176_ _019_ VDD VSS gf180mcu_fd_sc_mcu9t5v0__mux2_2
X_360_ net149 src_to_dst_data\[1\] _176_ _020_ VDD VSS gf180mcu_fd_sc_mcu9t5v0__mux2_2
X_361_ net150 src_to_dst_data\[20\] _176_ _021_ VDD VSS gf180mcu_fd_sc_mcu9t5v0__mux2_2
X_362_ net151 src_to_dst_data\[21\] _176_ _022_ VDD VSS gf180mcu_fd_sc_mcu9t5v0__mux2_2
X_363_ net152 src_to_dst_data\[22\] _176_ _023_ VDD VSS gf180mcu_fd_sc_mcu9t5v0__mux2_2
X_364_ net153 src_to_dst_data\[23\] _176_ _024_ VDD VSS gf180mcu_fd_sc_mcu9t5v0__mux2_2
X_365_ net154 src_to_dst_data\[24\] _176_ _025_ VDD VSS gf180mcu_fd_sc_mcu9t5v0__mux2_2
X_366_ net155 src_to_dst_data\[25\] _176_ _026_ VDD VSS gf180mcu_fd_sc_mcu9t5v0__mux2_2
X_367_ net156 src_to_dst_data\[26\] _176_ _027_ VDD VSS gf180mcu_fd_sc_mcu9t5v0__mux2_2
X_368_ net157 src_to_dst_data\[27\] _176_ _028_ VDD VSS gf180mcu_fd_sc_mcu9t5v0__mux2_2
X_369_ _174_ _177_ VDD VSS gf180mcu_fd_sc_mcu9t5v0__clkbuf_16
X_370_ net158 src_to_dst_data\[28\] _177_ _029_ VDD VSS gf180mcu_fd_sc_mcu9t5v0__mux2_2
X_371_ net159 src_to_dst_data\[29\] _177_ _030_ VDD VSS gf180mcu_fd_sc_mcu9t5v0__mux2_2
X_372_ net160 src_to_dst_data\[2\] _177_ _031_ VDD VSS gf180mcu_fd_sc_mcu9t5v0__mux2_2
X_373_ net161 src_to_dst_data\[30\] _177_ _032_ VDD VSS gf180mcu_fd_sc_mcu9t5v0__mux2_2
X_374_ net162 src_to_dst_data\[31\] _177_ _033_ VDD VSS gf180mcu_fd_sc_mcu9t5v0__mux2_2
X_375_ net163 src_to_dst_data\[3\] _177_ _034_ VDD VSS gf180mcu_fd_sc_mcu9t5v0__mux2_2
X_376_ net164 src_to_dst_data\[4\] _177_ _035_ VDD VSS gf180mcu_fd_sc_mcu9t5v0__mux2_2
X_377_ net165 src_to_dst_data\[5\] _177_ _036_ VDD VSS gf180mcu_fd_sc_mcu9t5v0__mux2_2
X_378_ net166 src_to_dst_data\[6\] _177_ _037_ VDD VSS gf180mcu_fd_sc_mcu9t5v0__mux2_2
X_379_ net167 src_to_dst_data\[7\] _177_ _038_ VDD VSS gf180mcu_fd_sc_mcu9t5v0__mux2_2
X_380_ net168 src_to_dst_data\[8\] _174_ _039_ VDD VSS gf180mcu_fd_sc_mcu9t5v0__mux2_2
X_381_ net169 src_to_dst_data\[9\] _174_ _040_ VDD VSS gf180mcu_fd_sc_mcu9t5v0__mux2_2
X_382_ dst_is_write_op src_is_write_op_sync _143_ _041_ VDD
+ VSS gf180mcu_fd_sc_mcu9t5v0__mux2_2
X_383_ dst_to_src_data\[0\] net70 _165_ _042_ VDD VSS gf180mcu_fd_sc_mcu9t5v0__mux2_2
X_384_ dst_to_src_data\[10\] net71 _165_ _043_ VDD VSS gf180mcu_fd_sc_mcu9t5v0__mux2_2
X_385_ dst_to_src_data\[11\] net72 _165_ _044_ VDD VSS gf180mcu_fd_sc_mcu9t5v0__mux2_2
X_386_ dst_to_src_data\[12\] net73 _165_ _045_ VDD VSS gf180mcu_fd_sc_mcu9t5v0__mux2_2
X_387_ dst_to_src_data\[13\] net74 _165_ _046_ VDD VSS gf180mcu_fd_sc_mcu9t5v0__mux2_2
X_388_ dst_to_src_data\[14\] net75 _165_ _047_ VDD VSS gf180mcu_fd_sc_mcu9t5v0__mux2_2
X_389_ dst_to_src_data\[15\] net76 _165_ _048_ VDD VSS gf180mcu_fd_sc_mcu9t5v0__mux2_2
X_390_ dst_to_src_data\[16\] net77 _165_ _049_ VDD VSS gf180mcu_fd_sc_mcu9t5v0__mux2_2
X_391_ _164_ _178_ VDD VSS gf180mcu_fd_sc_mcu9t5v0__clkbuf_16
X_392_ dst_to_src_data\[17\] net78 _178_ _050_ VDD VSS gf180mcu_fd_sc_mcu9t5v0__mux2_2
X_393_ dst_to_src_data\[18\] net79 _178_ _051_ VDD VSS gf180mcu_fd_sc_mcu9t5v0__mux2_2
X_394_ dst_to_src_data\[19\] net80 _178_ _052_ VDD VSS gf180mcu_fd_sc_mcu9t5v0__mux2_2
X_395_ dst_to_src_data\[1\] net81 _178_ _053_ VDD VSS gf180mcu_fd_sc_mcu9t5v0__mux2_2
X_396_ dst_to_src_data\[20\] net82 _178_ _054_ VDD VSS gf180mcu_fd_sc_mcu9t5v0__mux2_2
X_397_ dst_to_src_data\[21\] net83 _178_ _055_ VDD VSS gf180mcu_fd_sc_mcu9t5v0__mux2_2
X_398_ dst_to_src_data\[22\] net84 _178_ _056_ VDD VSS gf180mcu_fd_sc_mcu9t5v0__mux2_2
X_399_ dst_to_src_data\[23\] net85 _178_ _057_ VDD VSS gf180mcu_fd_sc_mcu9t5v0__mux2_2
X_400_ dst_to_src_data\[24\] net86 _178_ _058_ VDD VSS gf180mcu_fd_sc_mcu9t5v0__mux2_2
X_401_ dst_to_src_data\[25\] net87 _178_ _059_ VDD VSS gf180mcu_fd_sc_mcu9t5v0__mux2_2
X_402_ _164_ _179_ VDD VSS gf180mcu_fd_sc_mcu9t5v0__clkbuf_16
X_403_ dst_to_src_data\[26\] net88 _179_ _060_ VDD VSS gf180mcu_fd_sc_mcu9t5v0__mux2_2
X_404_ dst_to_src_data\[27\] net89 _179_ _061_ VDD VSS gf180mcu_fd_sc_mcu9t5v0__mux2_2
X_405_ dst_to_src_data\[28\] net90 _179_ _062_ VDD VSS gf180mcu_fd_sc_mcu9t5v0__mux2_2
X_406_ dst_to_src_data\[29\] net91 _179_ _063_ VDD VSS gf180mcu_fd_sc_mcu9t5v0__mux2_2
X_407_ dst_to_src_data\[2\] net92 _179_ _064_ VDD VSS gf180mcu_fd_sc_mcu9t5v0__mux2_2
X_408_ dst_to_src_data\[30\] net93 _179_ _065_ VDD VSS gf180mcu_fd_sc_mcu9t5v0__mux2_2
X_409_ dst_to_src_data\[31\] net94 _179_ _066_ VDD VSS gf180mcu_fd_sc_mcu9t5v0__mux2_2
X_410_ dst_to_src_data\[3\] net95 _179_ _067_ VDD VSS gf180mcu_fd_sc_mcu9t5v0__mux2_2
X_411_ dst_to_src_data\[4\] net96 _179_ _068_ VDD VSS gf180mcu_fd_sc_mcu9t5v0__mux2_2
X_412_ dst_to_src_data\[5\] net97 _179_ _069_ VDD VSS gf180mcu_fd_sc_mcu9t5v0__mux2_2
X_413_ dst_to_src_data\[6\] net98 _164_ _070_ VDD VSS gf180mcu_fd_sc_mcu9t5v0__mux2_2
X_414_ dst_to_src_data\[7\] net99 _164_ _071_ VDD VSS gf180mcu_fd_sc_mcu9t5v0__mux2_2
X_415_ dst_to_src_data\[8\] net100 _164_ _072_ VDD VSS gf180mcu_fd_sc_mcu9t5v0__mux2_2
X_416_ dst_to_src_data\[9\] net101 _164_ _073_ VDD VSS gf180mcu_fd_sc_mcu9t5v0__mux2_2
X_417_ net105 dst_to_src_data\[0\] _000_ _074_ VDD VSS gf180mcu_fd_sc_mcu9t5v0__mux2_2
X_418_ net106 dst_to_src_data\[10\] _000_ _075_ VDD VSS gf180mcu_fd_sc_mcu9t5v0__mux2_2
X_419_ net107 dst_to_src_data\[11\] _000_ _076_ VDD VSS gf180mcu_fd_sc_mcu9t5v0__mux2_2
X_420_ net108 dst_to_src_data\[12\] _000_ _077_ VDD VSS gf180mcu_fd_sc_mcu9t5v0__mux2_2
X_421_ net109 dst_to_src_data\[13\] _000_ _078_ VDD VSS gf180mcu_fd_sc_mcu9t5v0__mux2_2
X_422_ net110 dst_to_src_data\[14\] _000_ _079_ VDD VSS gf180mcu_fd_sc_mcu9t5v0__mux2_2
X_423_ net111 dst_to_src_data\[15\] _000_ _080_ VDD VSS gf180mcu_fd_sc_mcu9t5v0__mux2_2
X_424_ net112 dst_to_src_data\[16\] _000_ _081_ VDD VSS gf180mcu_fd_sc_mcu9t5v0__mux2_2
X_425_ net113 dst_to_src_data\[17\] _000_ _082_ VDD VSS gf180mcu_fd_sc_mcu9t5v0__mux2_2
X_426_ _172_ _180_ VDD VSS gf180mcu_fd_sc_mcu9t5v0__clkbuf_8
X_427_ net114 dst_to_src_data\[18\] _180_ _083_ VDD VSS gf180mcu_fd_sc_mcu9t5v0__mux2_2
X_428_ net115 dst_to_src_data\[19\] _180_ _084_ VDD VSS gf180mcu_fd_sc_mcu9t5v0__mux2_2
X_429_ net116 dst_to_src_data\[1\] _180_ _085_ VDD VSS gf180mcu_fd_sc_mcu9t5v0__mux2_2
X_430_ net117 dst_to_src_data\[20\] _180_ _086_ VDD VSS gf180mcu_fd_sc_mcu9t5v0__mux2_2
X_431_ net118 dst_to_src_data\[21\] _180_ _087_ VDD VSS gf180mcu_fd_sc_mcu9t5v0__mux2_2
X_432_ net119 dst_to_src_data\[22\] _180_ _088_ VDD VSS gf180mcu_fd_sc_mcu9t5v0__mux2_2
X_433_ net120 dst_to_src_data\[23\] _180_ _089_ VDD VSS gf180mcu_fd_sc_mcu9t5v0__mux2_2
X_434_ net121 dst_to_src_data\[24\] _180_ _090_ VDD VSS gf180mcu_fd_sc_mcu9t5v0__mux2_2
X_435_ net122 dst_to_src_data\[25\] _180_ _091_ VDD VSS gf180mcu_fd_sc_mcu9t5v0__mux2_2
X_436_ net123 dst_to_src_data\[26\] _180_ _092_ VDD VSS gf180mcu_fd_sc_mcu9t5v0__mux2_2
X_437_ _172_ _181_ VDD VSS gf180mcu_fd_sc_mcu9t5v0__clkbuf_16
X_438_ net124 dst_to_src_data\[27\] _181_ _093_ VDD VSS gf180mcu_fd_sc_mcu9t5v0__mux2_2
X_439_ net125 dst_to_src_data\[28\] _181_ _094_ VDD VSS gf180mcu_fd_sc_mcu9t5v0__mux2_2
X_440_ net126 dst_to_src_data\[29\] _181_ _095_ VDD VSS gf180mcu_fd_sc_mcu9t5v0__mux2_2
X_441_ net127 dst_to_src_data\[2\] _181_ _096_ VDD VSS gf180mcu_fd_sc_mcu9t5v0__mux2_2
X_442_ net128 dst_to_src_data\[30\] _181_ _097_ VDD VSS gf180mcu_fd_sc_mcu9t5v0__mux2_2
X_443_ net129 dst_to_src_data\[31\] _181_ _098_ VDD VSS gf180mcu_fd_sc_mcu9t5v0__mux2_2
X_444_ net130 dst_to_src_data\[3\] _181_ _099_ VDD VSS gf180mcu_fd_sc_mcu9t5v0__mux2_2
X_445_ net131 dst_to_src_data\[4\] _181_ _100_ VDD VSS gf180mcu_fd_sc_mcu9t5v0__mux2_2
X_446_ net132 dst_to_src_data\[5\] _181_ _101_ VDD VSS gf180mcu_fd_sc_mcu9t5v0__mux2_2
X_447_ net133 dst_to_src_data\[6\] _181_ _102_ VDD VSS gf180mcu_fd_sc_mcu9t5v0__mux2_2
X_448_ net134 dst_to_src_data\[7\] _172_ _103_ VDD VSS gf180mcu_fd_sc_mcu9t5v0__mux2_2
X_449_ net135 dst_to_src_data\[8\] _172_ _104_ VDD VSS gf180mcu_fd_sc_mcu9t5v0__mux2_2
X_450_ net136 dst_to_src_data\[9\] _172_ _105_ VDD VSS gf180mcu_fd_sc_mcu9t5v0__mux2_2
X_451_ net137 _182_ VDD VSS gf180mcu_fd_sc_mcu9t5v0__clkinv_2
X_452_ src_state\[3\] src_state\[0\] _183_ VDD VSS gf180mcu_fd_sc_mcu9t5v0__or2_2
X_453_ _182_ _183_ _153_ _184_ VDD VSS gf180mcu_fd_sc_mcu9t5v0__mux2_2
X_454_ _182_ _183_ _184_ _147_ _106_ VDD VSS gf180mcu_fd_sc_mcu9t5v0__oai22_2
X_455_ src_state\[0\] net32 _185_ VDD VSS gf180mcu_fd_sc_mcu9t5v0__nand2_2
X_456_ src_state\[0\] net65 _185_ src_is_write_op_flag _186_
+ VDD VSS gf180mcu_fd_sc_mcu9t5v0__aoi22_2
X_457_ _186_ _107_ VDD VSS gf180mcu_fd_sc_mcu9t5v0__clkinv_2
X_458_ src_is_write_op_flag src_state\[2\] _152_ _187_ VDD
+ VSS gf180mcu_fd_sc_mcu9t5v0__and3_2
X_459_ src_state\[0\] _151_ _188_ VDD VSS gf180mcu_fd_sc_mcu9t5v0__and2_2
X_460_ src_state\[0\] _149_ _189_ VDD VSS gf180mcu_fd_sc_mcu9t5v0__nand2_2
X_461_ _187_ _188_ _189_ _190_ VDD VSS gf180mcu_fd_sc_mcu9t5v0__oai21_4
X_462_ src_req _190_ _108_ VDD VSS gf180mcu_fd_sc_mcu9t5v0__xnor2_2
X_463_ net11 _191_ VDD VSS gf180mcu_fd_sc_mcu9t5v0__clkinv_2
X_464_ _166_ _188_ _192_ VDD VSS gf180mcu_fd_sc_mcu9t5v0__and2_4
X_465_ _192_ _193_ VDD VSS gf180mcu_fd_sc_mcu9t5v0__clkbuf_12
X_466_ _189_ _187_ _194_ VDD VSS gf180mcu_fd_sc_mcu9t5v0__and2_4
X_467_ _194_ _195_ VDD VSS gf180mcu_fd_sc_mcu9t5v0__clkbuf_12
X_468_ net33 _196_ VDD VSS gf180mcu_fd_sc_mcu9t5v0__clkinv_2
X_469_ src_to_dst_data\[0\] _197_ VDD VSS gf180mcu_fd_sc_mcu9t5v0__clkinv_2
X_470_ _190_ _198_ VDD VSS gf180mcu_fd_sc_mcu9t5v0__buf_8
X_471_ _191_ _193_ _195_ _196_ _197_ _198_ _109_ VDD VSS gf180mcu_fd_sc_mcu9t5v0__aoi222_2
X_472_ net12 _199_ VDD VSS gf180mcu_fd_sc_mcu9t5v0__clkinv_2
X_473_ net34 _200_ VDD VSS gf180mcu_fd_sc_mcu9t5v0__clkinv_2
X_474_ src_to_dst_data\[10\] _201_ VDD VSS gf180mcu_fd_sc_mcu9t5v0__clkinv_2
X_475_ _199_ _193_ _195_ _200_ _201_ _198_ _110_ VDD VSS gf180mcu_fd_sc_mcu9t5v0__aoi222_2
X_476_ net13 _202_ VDD VSS gf180mcu_fd_sc_mcu9t5v0__clkinv_2
X_477_ net35 _203_ VDD VSS gf180mcu_fd_sc_mcu9t5v0__clkinv_2
X_478_ src_to_dst_data\[11\] _204_ VDD VSS gf180mcu_fd_sc_mcu9t5v0__clkinv_2
X_479_ _202_ _193_ _195_ _203_ _204_ _198_ _111_ VDD VSS gf180mcu_fd_sc_mcu9t5v0__aoi222_2
X_480_ net14 _205_ VDD VSS gf180mcu_fd_sc_mcu9t5v0__clkinv_2
X_481_ net36 _206_ VDD VSS gf180mcu_fd_sc_mcu9t5v0__clkinv_2
X_482_ src_to_dst_data\[12\] _207_ VDD VSS gf180mcu_fd_sc_mcu9t5v0__clkinv_2
X_483_ _205_ _193_ _195_ _206_ _207_ _198_ _112_ VDD VSS gf180mcu_fd_sc_mcu9t5v0__aoi222_2
X_484_ net15 _208_ VDD VSS gf180mcu_fd_sc_mcu9t5v0__clkinv_2
X_485_ net37 _209_ VDD VSS gf180mcu_fd_sc_mcu9t5v0__clkinv_2
X_486_ src_to_dst_data\[13\] _210_ VDD VSS gf180mcu_fd_sc_mcu9t5v0__clkinv_2
X_487_ _208_ _193_ _195_ _209_ _210_ _198_ _113_ VDD VSS gf180mcu_fd_sc_mcu9t5v0__aoi222_2
X_488_ net16 _211_ VDD VSS gf180mcu_fd_sc_mcu9t5v0__clkinv_2
X_489_ net38 _212_ VDD VSS gf180mcu_fd_sc_mcu9t5v0__clkinv_2
X_490_ src_to_dst_data\[14\] _213_ VDD VSS gf180mcu_fd_sc_mcu9t5v0__clkinv_2
X_491_ _211_ _193_ _195_ _212_ _213_ _198_ _114_ VDD VSS gf180mcu_fd_sc_mcu9t5v0__aoi222_2
X_492_ net17 _214_ VDD VSS gf180mcu_fd_sc_mcu9t5v0__clkinv_2
X_493_ net39 _215_ VDD VSS gf180mcu_fd_sc_mcu9t5v0__clkinv_2
X_494_ src_to_dst_data\[15\] _216_ VDD VSS gf180mcu_fd_sc_mcu9t5v0__clkinv_2
X_495_ _214_ _193_ _195_ _215_ _216_ _198_ _115_ VDD VSS gf180mcu_fd_sc_mcu9t5v0__aoi222_2
X_496_ net18 _217_ VDD VSS gf180mcu_fd_sc_mcu9t5v0__clkinv_2
X_497_ net40 _218_ VDD VSS gf180mcu_fd_sc_mcu9t5v0__clkinv_2
X_498_ src_to_dst_data\[16\] _219_ VDD VSS gf180mcu_fd_sc_mcu9t5v0__clkinv_2
X_499_ _217_ _193_ _195_ _218_ _219_ _198_ _116_ VDD VSS gf180mcu_fd_sc_mcu9t5v0__aoi222_2
X_500_ net19 _220_ VDD VSS gf180mcu_fd_sc_mcu9t5v0__clkinv_2
X_501_ net41 _221_ VDD VSS gf180mcu_fd_sc_mcu9t5v0__clkinv_2
X_502_ src_to_dst_data\[17\] _222_ VDD VSS gf180mcu_fd_sc_mcu9t5v0__clkinv_2
X_503_ _220_ _193_ _195_ _221_ _222_ _198_ _117_ VDD VSS gf180mcu_fd_sc_mcu9t5v0__aoi222_2
X_504_ net20 _223_ VDD VSS gf180mcu_fd_sc_mcu9t5v0__clkinv_2
X_505_ net42 _224_ VDD VSS gf180mcu_fd_sc_mcu9t5v0__clkinv_2
X_506_ src_to_dst_data\[18\] _225_ VDD VSS gf180mcu_fd_sc_mcu9t5v0__clkinv_2
X_507_ _223_ _193_ _195_ _224_ _225_ _198_ _118_ VDD VSS gf180mcu_fd_sc_mcu9t5v0__aoi222_2
X_508_ net21 _226_ VDD VSS gf180mcu_fd_sc_mcu9t5v0__clkinv_2
X_509_ _192_ _227_ VDD VSS gf180mcu_fd_sc_mcu9t5v0__clkbuf_8
X_510_ _194_ _228_ VDD VSS gf180mcu_fd_sc_mcu9t5v0__buf_4
X_511_ net43 _229_ VDD VSS gf180mcu_fd_sc_mcu9t5v0__clkinv_2
X_512_ src_to_dst_data\[19\] _230_ VDD VSS gf180mcu_fd_sc_mcu9t5v0__clkinv_2
X_513_ _190_ _231_ VDD VSS gf180mcu_fd_sc_mcu9t5v0__buf_8
X_514_ _226_ _227_ _228_ _229_ _230_ _231_ _119_ VDD VSS gf180mcu_fd_sc_mcu9t5v0__aoi222_2
X_515_ net22 _232_ VDD VSS gf180mcu_fd_sc_mcu9t5v0__clkinv_2
X_516_ net44 _233_ VDD VSS gf180mcu_fd_sc_mcu9t5v0__clkinv_2
X_517_ src_to_dst_data\[1\] _234_ VDD VSS gf180mcu_fd_sc_mcu9t5v0__clkinv_2
X_518_ _232_ _227_ _228_ _233_ _234_ _231_ _120_ VDD VSS gf180mcu_fd_sc_mcu9t5v0__aoi222_2
X_519_ net65 net23 _235_ VDD VSS gf180mcu_fd_sc_mcu9t5v0__or2_2
X_520_ net45 _235_ _151_ _236_ VDD VSS gf180mcu_fd_sc_mcu9t5v0__mux2_2
X_521_ _236_ src_to_dst_data\[20\] _190_ _121_ VDD VSS gf180mcu_fd_sc_mcu9t5v0__mux2_2
X_522_ net66 _237_ VDD VSS gf180mcu_fd_sc_mcu9t5v0__clkinv_2
X_523_ net46 _238_ VDD VSS gf180mcu_fd_sc_mcu9t5v0__clkinv_2
X_524_ src_to_dst_data\[21\] _239_ VDD VSS gf180mcu_fd_sc_mcu9t5v0__clkinv_2
X_525_ _237_ _227_ _228_ _238_ _239_ _231_ _122_ VDD VSS gf180mcu_fd_sc_mcu9t5v0__aoi222_2
X_526_ net67 _240_ VDD VSS gf180mcu_fd_sc_mcu9t5v0__clkinv_2
X_527_ net47 _241_ VDD VSS gf180mcu_fd_sc_mcu9t5v0__clkinv_2
X_528_ src_to_dst_data\[22\] _242_ VDD VSS gf180mcu_fd_sc_mcu9t5v0__clkinv_2
X_529_ _240_ _227_ _228_ _241_ _242_ _231_ _123_ VDD VSS gf180mcu_fd_sc_mcu9t5v0__aoi222_2
X_530_ net68 _243_ VDD VSS gf180mcu_fd_sc_mcu9t5v0__clkinv_2
X_531_ net48 _244_ VDD VSS gf180mcu_fd_sc_mcu9t5v0__clkinv_2
X_532_ src_to_dst_data\[23\] _245_ VDD VSS gf180mcu_fd_sc_mcu9t5v0__clkinv_2
X_533_ _243_ _227_ _228_ _244_ _245_ _231_ _124_ VDD VSS gf180mcu_fd_sc_mcu9t5v0__aoi222_2
X_534_ net1 _246_ VDD VSS gf180mcu_fd_sc_mcu9t5v0__clkinv_2
X_535_ net49 _247_ VDD VSS gf180mcu_fd_sc_mcu9t5v0__clkinv_2
X_536_ src_to_dst_data\[24\] _248_ VDD VSS gf180mcu_fd_sc_mcu9t5v0__clkinv_2
X_537_ _246_ _227_ _228_ _247_ _248_ _231_ _125_ VDD VSS gf180mcu_fd_sc_mcu9t5v0__aoi222_2
X_538_ net2 _249_ VDD VSS gf180mcu_fd_sc_mcu9t5v0__clkinv_2
X_539_ net50 _250_ VDD VSS gf180mcu_fd_sc_mcu9t5v0__clkinv_2
X_540_ src_to_dst_data\[25\] _251_ VDD VSS gf180mcu_fd_sc_mcu9t5v0__clkinv_2
X_541_ _249_ _227_ _228_ _250_ _251_ _231_ _126_ VDD VSS gf180mcu_fd_sc_mcu9t5v0__aoi222_2
X_542_ net3 _252_ VDD VSS gf180mcu_fd_sc_mcu9t5v0__clkinv_2
X_543_ net51 _253_ VDD VSS gf180mcu_fd_sc_mcu9t5v0__clkinv_2
X_544_ src_to_dst_data\[26\] _254_ VDD VSS gf180mcu_fd_sc_mcu9t5v0__clkinv_2
X_545_ _252_ _227_ _228_ _253_ _254_ _231_ _127_ VDD VSS gf180mcu_fd_sc_mcu9t5v0__aoi222_2
X_546_ net4 _255_ VDD VSS gf180mcu_fd_sc_mcu9t5v0__clkinv_2
X_547_ net52 _256_ VDD VSS gf180mcu_fd_sc_mcu9t5v0__clkinv_2
X_548_ src_to_dst_data\[27\] _257_ VDD VSS gf180mcu_fd_sc_mcu9t5v0__clkinv_2
X_549_ _255_ _227_ _228_ _256_ _257_ _231_ _128_ VDD VSS gf180mcu_fd_sc_mcu9t5v0__aoi222_2
X_550_ net5 _258_ VDD VSS gf180mcu_fd_sc_mcu9t5v0__clkinv_2
X_551_ net53 _259_ VDD VSS gf180mcu_fd_sc_mcu9t5v0__clkinv_2
X_552_ src_to_dst_data\[28\] _260_ VDD VSS gf180mcu_fd_sc_mcu9t5v0__clkinv_2
X_553_ _258_ _227_ _228_ _259_ _260_ _231_ _129_ VDD VSS gf180mcu_fd_sc_mcu9t5v0__aoi222_2
X_554_ net6 _261_ VDD VSS gf180mcu_fd_sc_mcu9t5v0__clkinv_2
X_555_ _192_ _262_ VDD VSS gf180mcu_fd_sc_mcu9t5v0__clkbuf_16
X_556_ _194_ _263_ VDD VSS gf180mcu_fd_sc_mcu9t5v0__clkbuf_16
X_557_ net54 _264_ VDD VSS gf180mcu_fd_sc_mcu9t5v0__clkinv_2
X_558_ src_to_dst_data\[29\] _265_ VDD VSS gf180mcu_fd_sc_mcu9t5v0__clkinv_2
X_559_ _190_ _266_ VDD VSS gf180mcu_fd_sc_mcu9t5v0__clkbuf_16
X_560_ _261_ _262_ _263_ _264_ _265_ _266_ _130_ VDD VSS gf180mcu_fd_sc_mcu9t5v0__aoi222_2
X_561_ net24 _267_ VDD VSS gf180mcu_fd_sc_mcu9t5v0__clkinv_2
X_562_ net55 _268_ VDD VSS gf180mcu_fd_sc_mcu9t5v0__clkinv_2
X_563_ src_to_dst_data\[2\] _269_ VDD VSS gf180mcu_fd_sc_mcu9t5v0__clkinv_2
X_564_ _267_ _262_ _263_ _268_ _269_ _266_ _131_ VDD VSS gf180mcu_fd_sc_mcu9t5v0__aoi222_2
X_565_ net7 _270_ VDD VSS gf180mcu_fd_sc_mcu9t5v0__clkinv_2
X_566_ net56 _271_ VDD VSS gf180mcu_fd_sc_mcu9t5v0__clkinv_2
X_567_ src_to_dst_data\[30\] _272_ VDD VSS gf180mcu_fd_sc_mcu9t5v0__clkinv_2
X_568_ _270_ _262_ _263_ _271_ _272_ _266_ _132_ VDD VSS gf180mcu_fd_sc_mcu9t5v0__aoi222_2
X_569_ net8 _273_ VDD VSS gf180mcu_fd_sc_mcu9t5v0__clkinv_2
X_570_ net57 _274_ VDD VSS gf180mcu_fd_sc_mcu9t5v0__clkinv_2
X_571_ src_to_dst_data\[31\] _275_ VDD VSS gf180mcu_fd_sc_mcu9t5v0__clkinv_2
X_572_ _273_ _262_ _263_ _274_ _275_ _266_ _133_ VDD VSS gf180mcu_fd_sc_mcu9t5v0__aoi222_2
X_573_ net25 _276_ VDD VSS gf180mcu_fd_sc_mcu9t5v0__clkinv_2
X_574_ net58 _277_ VDD VSS gf180mcu_fd_sc_mcu9t5v0__clkinv_2
X_575_ src_to_dst_data\[3\] _278_ VDD VSS gf180mcu_fd_sc_mcu9t5v0__clkinv_2
X_576_ _276_ _262_ _263_ _277_ _278_ _266_ _134_ VDD VSS gf180mcu_fd_sc_mcu9t5v0__aoi222_2
X_577_ net26 _279_ VDD VSS gf180mcu_fd_sc_mcu9t5v0__clkinv_2
X_578_ net59 _280_ VDD VSS gf180mcu_fd_sc_mcu9t5v0__clkinv_2
X_579_ src_to_dst_data\[4\] _281_ VDD VSS gf180mcu_fd_sc_mcu9t5v0__clkinv_2
X_580_ _279_ _262_ _263_ _280_ _281_ _266_ _135_ VDD VSS gf180mcu_fd_sc_mcu9t5v0__aoi222_2
X_581_ net27 _282_ VDD VSS gf180mcu_fd_sc_mcu9t5v0__clkinv_2
X_582_ net60 _283_ VDD VSS gf180mcu_fd_sc_mcu9t5v0__clkinv_2
X_583_ src_to_dst_data\[5\] _284_ VDD VSS gf180mcu_fd_sc_mcu9t5v0__clkinv_2
X_584_ _282_ _262_ _263_ _283_ _284_ _266_ _136_ VDD VSS gf180mcu_fd_sc_mcu9t5v0__aoi222_2
X_585_ net28 _285_ VDD VSS gf180mcu_fd_sc_mcu9t5v0__clkinv_2
X_586_ net61 _286_ VDD VSS gf180mcu_fd_sc_mcu9t5v0__clkinv_2
X_587_ src_to_dst_data\[6\] _287_ VDD VSS gf180mcu_fd_sc_mcu9t5v0__clkinv_2
X_588_ _285_ _262_ _263_ _286_ _287_ _266_ _137_ VDD VSS gf180mcu_fd_sc_mcu9t5v0__aoi222_2
X_589_ net29 _288_ VDD VSS gf180mcu_fd_sc_mcu9t5v0__clkinv_2
X_590_ net62 _289_ VDD VSS gf180mcu_fd_sc_mcu9t5v0__clkinv_2
X_591_ src_to_dst_data\[7\] _290_ VDD VSS gf180mcu_fd_sc_mcu9t5v0__clkinv_2
X_592_ _288_ _262_ _263_ _289_ _290_ _266_ _138_ VDD VSS gf180mcu_fd_sc_mcu9t5v0__aoi222_2
X_593_ net30 _291_ VDD VSS gf180mcu_fd_sc_mcu9t5v0__clkinv_2
X_594_ net63 _292_ VDD VSS gf180mcu_fd_sc_mcu9t5v0__clkinv_2
X_595_ src_to_dst_data\[8\] _293_ VDD VSS gf180mcu_fd_sc_mcu9t5v0__clkinv_2
X_596_ _291_ _262_ _263_ _292_ _293_ _266_ _139_ VDD VSS gf180mcu_fd_sc_mcu9t5v0__aoi222_2
X_597_ net31 _294_ VDD VSS gf180mcu_fd_sc_mcu9t5v0__clkinv_2
X_598_ net64 _295_ VDD VSS gf180mcu_fd_sc_mcu9t5v0__clkinv_2
X_599_ src_to_dst_data\[9\] _296_ VDD VSS gf180mcu_fd_sc_mcu9t5v0__clkinv_2
X_600_ _294_ _192_ _194_ _295_ _296_ _190_ _140_ VDD VSS gf180mcu_fd_sc_mcu9t5v0__aoi222_2
Xdst_ack$_DFFE_PN0P_ _008_ net10 net9 dst_ack VDD VSS gf180mcu_fd_sc_mcu9t5v0__dffrnq_2
Xdst_ack_prev$_DFF_PN0_ dst_ack_sync net104 net103 dst_ack_prev
+ VDD VSS gf180mcu_fd_sc_mcu9t5v0__dffrnq_2
Xdst_ack_sync_reg\[0\]$_DFF_PN0_ dst_ack net104 net103 dst_ack_sync_reg\[0\]
+ VDD VSS gf180mcu_fd_sc_mcu9t5v0__dffrnq_2
Xdst_ack_sync_reg\[1\]$_DFF_PN0_ dst_ack_sync_reg\[0\] net104
+ net103 dst_ack_sync VDD VSS gf180mcu_fd_sc_mcu9t5v0__dffrnq_2
Xdst_data_reg\[0\]$_DFFE_PN0P_ _009_ net10 net9 net138 VDD
+ VSS gf180mcu_fd_sc_mcu9t5v0__dffrnq_2
Xdst_data_reg\[10\]$_DFFE_PN0P_ _010_ net10 net9 net139 VDD
+ VSS gf180mcu_fd_sc_mcu9t5v0__dffrnq_2
Xdst_data_reg\[11\]$_DFFE_PN0P_ _011_ net10 net9 net140 VDD
+ VSS gf180mcu_fd_sc_mcu9t5v0__dffrnq_2
Xdst_data_reg\[12\]$_DFFE_PN0P_ _012_ net10 net9 net141 VDD
+ VSS gf180mcu_fd_sc_mcu9t5v0__dffrnq_2
Xdst_data_reg\[13\]$_DFFE_PN0P_ _013_ net10 net9 net142 VDD
+ VSS gf180mcu_fd_sc_mcu9t5v0__dffrnq_2
Xdst_data_reg\[14\]$_DFFE_PN0P_ _014_ net10 net9 net143 VDD
+ VSS gf180mcu_fd_sc_mcu9t5v0__dffrnq_4
Xdst_data_reg\[15\]$_DFFE_PN0P_ _015_ net10 net9 net144 VDD
+ VSS gf180mcu_fd_sc_mcu9t5v0__dffrnq_4
Xdst_data_reg\[16\]$_DFFE_PN0P_ _016_ net10 net9 net145 VDD
+ VSS gf180mcu_fd_sc_mcu9t5v0__dffrnq_2
Xdst_data_reg\[17\]$_DFFE_PN0P_ _017_ net10 net9 net146 VDD
+ VSS gf180mcu_fd_sc_mcu9t5v0__dffrnq_2
Xdst_data_reg\[18\]$_DFFE_PN0P_ _018_ net10 net9 net147 VDD
+ VSS gf180mcu_fd_sc_mcu9t5v0__dffrnq_2
Xdst_data_reg\[19\]$_DFFE_PN0P_ _019_ net10 net9 net148 VDD
+ VSS gf180mcu_fd_sc_mcu9t5v0__dffrnq_4
Xdst_data_reg\[1\]$_DFFE_PN0P_ _020_ net10 net9 net149 VDD
+ VSS gf180mcu_fd_sc_mcu9t5v0__dffrnq_2
Xdst_data_reg\[20\]$_DFFE_PN0P_ _021_ net10 net9 net150 VDD
+ VSS gf180mcu_fd_sc_mcu9t5v0__dffrnq_2
Xdst_data_reg\[21\]$_DFFE_PN0P_ _022_ net10 net9 net151 VDD
+ VSS gf180mcu_fd_sc_mcu9t5v0__dffrnq_2
Xdst_data_reg\[22\]$_DFFE_PN0P_ _023_ net10 net9 net152 VDD
+ VSS gf180mcu_fd_sc_mcu9t5v0__dffrnq_4
Xdst_data_reg\[23\]$_DFFE_PN0P_ _024_ net10 net9 net153 VDD
+ VSS gf180mcu_fd_sc_mcu9t5v0__dffrnq_2
Xdst_data_reg\[24\]$_DFFE_PN0P_ _025_ net10 net9 net154 VDD
+ VSS gf180mcu_fd_sc_mcu9t5v0__dffrnq_2
Xdst_data_reg\[25\]$_DFFE_PN0P_ _026_ net10 net9 net155 VDD
+ VSS gf180mcu_fd_sc_mcu9t5v0__dffrnq_2
Xdst_data_reg\[26\]$_DFFE_PN0P_ _027_ net10 net9 net156 VDD
+ VSS gf180mcu_fd_sc_mcu9t5v0__dffrnq_4
Xdst_data_reg\[27\]$_DFFE_PN0P_ _028_ net10 net9 net157 VDD
+ VSS gf180mcu_fd_sc_mcu9t5v0__dffrnq_2
Xdst_data_reg\[28\]$_DFFE_PN0P_ _029_ net10 net9 net158 VDD
+ VSS gf180mcu_fd_sc_mcu9t5v0__dffrnq_2
Xdst_data_reg\[29\]$_DFFE_PN0P_ _030_ net10 net9 net159 VDD
+ VSS gf180mcu_fd_sc_mcu9t5v0__dffrnq_4
Xdst_data_reg\[2\]$_DFFE_PN0P_ _031_ net10 net9 net160 VDD
+ VSS gf180mcu_fd_sc_mcu9t5v0__dffrnq_4
Xdst_data_reg\[30\]$_DFFE_PN0P_ _032_ net10 net9 net161 VDD
+ VSS gf180mcu_fd_sc_mcu9t5v0__dffrnq_2
Xdst_data_reg\[31\]$_DFFE_PN0P_ _033_ net10 net9 net162 VDD
+ VSS gf180mcu_fd_sc_mcu9t5v0__dffrnq_2
Xdst_data_reg\[3\]$_DFFE_PN0P_ _034_ net10 net9 net163 VDD
+ VSS gf180mcu_fd_sc_mcu9t5v0__dffrnq_2
Xdst_data_reg\[4\]$_DFFE_PN0P_ _035_ net10 net9 net164 VDD
+ VSS gf180mcu_fd_sc_mcu9t5v0__dffrnq_2
Xdst_data_reg\[5\]$_DFFE_PN0P_ _036_ net10 net9 net165 VDD
+ VSS gf180mcu_fd_sc_mcu9t5v0__dffrnq_4
Xdst_data_reg\[6\]$_DFFE_PN0P_ _037_ net10 net9 net166 VDD
+ VSS gf180mcu_fd_sc_mcu9t5v0__dffrnq_2
Xdst_data_reg\[7\]$_DFFE_PN0P_ _038_ net10 net9 net167 VDD
+ VSS gf180mcu_fd_sc_mcu9t5v0__dffrnq_4
Xdst_data_reg\[8\]$_DFFE_PN0P_ _039_ net10 net9 net168 VDD
+ VSS gf180mcu_fd_sc_mcu9t5v0__dffrnq_2
Xdst_data_reg\[9\]$_DFFE_PN0P_ _040_ net10 net9 net169 VDD
+ VSS gf180mcu_fd_sc_mcu9t5v0__dffrnq_4
Xdst_data_valid$_DFF_PN0_ _298_ net10 net9 dst_data_valid
+ VDD VSS gf180mcu_fd_sc_mcu9t5v0__dffrnq_2
Xdst_data_valid_sync_reg\[0\]$_DFF_PN0_ dst_data_valid net104