* CDL Netlist generated by OpenROAD

*.BUSDELIMITER [

.SUBCKT floating_point_adder a[0] a[10] a[11] a[12] a[13]
+ a[14] a[15] a[16] a[17] a[18] a[19] a[1] a[20] a[21] a[22]
+ a[23] a[24] a[25] a[26] a[27] a[28] a[29] a[2] a[30] a[31]
+ a[3] a[4] a[5] a[6] a[7] a[8] a[9] b[0] b[10] b[11] b[12]
+ b[13] b[14] b[15] b[16] b[17] b[18] b[19] b[1] b[20] b[21]
+ b[22] b[23] b[24] b[25] b[26] b[27] b[28] b[29] b[2] b[30]
+ b[31] b[3] b[4] b[5] b[6] b[7] b[8] b[9] clk inexact invalid_op
+ overflow result[0] result[10] result[11] result[12] result[13]
+ result[14] result[15] result[16] result[17] result[18] result[19]
+ result[1] result[20] result[21] result[22] result[23] result[24]
+ result[25] result[26] result[27] result[28] result[29] result[2]
+ result[30] result[31] result[3] result[4] result[5] result[6]
+ result[7] result[8] result[9] rst_n underflow valid_in valid_out
X_1920_ _1232_ _1322_ _1598_ _1326_ VDD VSS gf180mcu_fd_sc_mcu9t5v0__nor3_2
X_1921_ _1322_ _1598_ _1325_ _1326_ _1327_ VDD VSS gf180mcu_fd_sc_mcu9t5v0__aoi211_4
X_1922_ _1321_ _1323_ _1324_ _1327_ _1328_ VDD VSS gf180mcu_fd_sc_mcu9t5v0__oai211_4
X_1923_ _1611_ _1567_ _1329_ VDD VSS gf180mcu_fd_sc_mcu9t5v0__nand2_2
X_1924_ _1567_ _1330_ VDD VSS gf180mcu_fd_sc_mcu9t5v0__clkinv_2
X_1925_ _1225_ _1330_ _1331_ VDD VSS gf180mcu_fd_sc_mcu9t5v0__nand2_2
X_1926_ _1288_ _1315_ _1329_ _1331_ _1332_ VDD VSS gf180mcu_fd_sc_mcu9t5v0__aoi22_2
X_1927_ _1318_ _1319_ _1605_ _1333_ VDD VSS gf180mcu_fd_sc_mcu9t5v0__aoi21_2
X_1928_ _1232_ _1309_ _1334_ VDD VSS gf180mcu_fd_sc_mcu9t5v0__xnor2_2
X_1929_ _1321_ _1332_ _1333_ _1334_ _1335_ VDD VSS gf180mcu_fd_sc_mcu9t5v0__nor4_4
X_1930_ _1212_ _1223_ _1336_ VDD VSS gf180mcu_fd_sc_mcu9t5v0__nand2_4
X_1931_ _1328_ _1335_ _1336_ _1337_ VDD VSS gf180mcu_fd_sc_mcu9t5v0__or3_4
X_1932_ net3 net5 net35 net37 _1316_ _1337_ _1338_ VDD VSS
+ gf180mcu_fd_sc_mcu9t5v0__mux4_2
X_1933_ _1572_ _1339_ VDD VSS gf180mcu_fd_sc_mcu9t5v0__buf_4
X_1934_ net35 net37 _1339_ _1340_ VDD VSS gf180mcu_fd_sc_mcu9t5v0__mux2_2
X_1935_ _1229_ _1234_ _1341_ VDD VSS gf180mcu_fd_sc_mcu9t5v0__nor2_2
X_1936_ _1589_ _1341_ _1581_ _1342_ VDD VSS gf180mcu_fd_sc_mcu9t5v0__oai21_2
X_1937_ _1611_ _1571_ _1343_ VDD VSS gf180mcu_fd_sc_mcu9t5v0__and2_2
X_1938_ _1613_ _1343_ _1344_ VDD VSS gf180mcu_fd_sc_mcu9t5v0__nor2_2
X_1939_ _1607_ _1345_ VDD VSS gf180mcu_fd_sc_mcu9t5v0__clkinv_2
X_1940_ _1307_ _1344_ _1345_ _1346_ VDD VSS gf180mcu_fd_sc_mcu9t5v0__oai21_4
X_1941_ _1237_ _1346_ _1583_ _1347_ VDD VSS gf180mcu_fd_sc_mcu9t5v0__aoi21_2
X_1942_ _1581_ _1236_ _1348_ VDD VSS gf180mcu_fd_sc_mcu9t5v0__xnor2_2
X_1943_ _1230_ _1344_ _1234_ _1233_ _1349_ VDD VSS gf180mcu_fd_sc_mcu9t5v0__oai211_2
X_1944_ _1229_ _1349_ _1350_ VDD VSS gf180mcu_fd_sc_mcu9t5v0__xnor2_2
X_1945_ _1342_ _1347_ _1348_ _1350_ _1351_ VDD VSS gf180mcu_fd_sc_mcu9t5v0__aoi211_4
X_1946_ _1291_ _1292_ _1351_ _1352_ VDD VSS gf180mcu_fd_sc_mcu9t5v0__and3_4
X_1947_ _1314_ _1338_ _1340_ _1352_ _1353_ VDD VSS gf180mcu_fd_sc_mcu9t5v0__aoi22_4
X_1948_ net30 net32 net62 net64 _1316_ _1337_ _1354_ VDD VSS
+ gf180mcu_fd_sc_mcu9t5v0__mux4_2
X_1949_ net62 net64 _1339_ _1355_ VDD VSS gf180mcu_fd_sc_mcu9t5v0__mux2_2
X_1950_ _1314_ _1354_ _1355_ _1352_ _1356_ VDD VSS gf180mcu_fd_sc_mcu9t5v0__aoi22_2
X_1951_ _1240_ _1246_ _1357_ VDD VSS gf180mcu_fd_sc_mcu9t5v0__nand2_2
X_1952_ _1263_ _1281_ _1358_ VDD VSS gf180mcu_fd_sc_mcu9t5v0__and2_2
X_1953_ _1611_ _1330_ _1359_ VDD VSS gf180mcu_fd_sc_mcu9t5v0__and2_2
X_1954_ _1225_ _1567_ _1360_ VDD VSS gf180mcu_fd_sc_mcu9t5v0__and2_2
X_1955_ _1357_ _1358_ _1359_ _1360_ _1361_ VDD VSS gf180mcu_fd_sc_mcu9t5v0__oai22_2
X_1956_ _1571_ _1362_ VDD VSS gf180mcu_fd_sc_mcu9t5v0__clkinv_2
X_1957_ _1611_ _1362_ _1363_ VDD VSS gf180mcu_fd_sc_mcu9t5v0__and2_2
X_1958_ _1225_ _1571_ _1364_ VDD VSS gf180mcu_fd_sc_mcu9t5v0__and2_2
X_1959_ _1363_ _1364_ _1291_ _1292_ _1365_ VDD VSS gf180mcu_fd_sc_mcu9t5v0__oai211_4
X_1960_ _1361_ _1365_ _1366_ VDD VSS gf180mcu_fd_sc_mcu9t5v0__and2_4
X_1961_ _1366_ _1367_ VDD VSS gf180mcu_fd_sc_mcu9t5v0__clkbuf_8
X_1962_ _1353_ _1356_ _1367_ _1368_ VDD VSS gf180mcu_fd_sc_mcu9t5v0__mux2_2
X_1963_ _1290_ _1368_ _1369_ VDD VSS gf180mcu_fd_sc_mcu9t5v0__nor2_2
X_1964_ _1318_ _1319_ _1370_ VDD VSS gf180mcu_fd_sc_mcu9t5v0__and2_2
X_1965_ _1228_ _1370_ _1283_ _1371_ VDD VSS gf180mcu_fd_sc_mcu9t5v0__mux2_2
X_1966_ _1605_ _1371_ _1372_ VDD VSS gf180mcu_fd_sc_mcu9t5v0__xnor2_4
X_1967_ _1283_ _1373_ VDD VSS gf180mcu_fd_sc_mcu9t5v0__clkinv_3
X_1968_ _1309_ _1346_ _1373_ _1374_ VDD VSS gf180mcu_fd_sc_mcu9t5v0__mux2_2
X_1969_ _1232_ _1374_ _1375_ VDD VSS gf180mcu_fd_sc_mcu9t5v0__xor2_4
X_1970_ _1372_ _1375_ _1376_ VDD VSS gf180mcu_fd_sc_mcu9t5v0__nor2_4
X_1971_ _1369_ _1376_ _1377_ VDD VSS gf180mcu_fd_sc_mcu9t5v0__and2_2
X_1972_ _1572_ _1378_ VDD VSS gf180mcu_fd_sc_mcu9t5v0__clkinv_4
X_1973_ _1225_ _1362_ _1379_ VDD VSS gf180mcu_fd_sc_mcu9t5v0__and2_2
X_1974_ _1378_ _1291_ _1292_ _1379_ _1380_ VDD VSS gf180mcu_fd_sc_mcu9t5v0__and4_2
X_1975_ _1378_ _1291_ _1292_ _1343_ _1381_ VDD VSS gf180mcu_fd_sc_mcu9t5v0__and4_2
X_1976_ _1291_ _1292_ _1329_ _1331_ _1316_ _1382_ VDD VSS
+ gf180mcu_fd_sc_mcu9t5v0__aoi221_2
X_1977_ _1380_ _1381_ _1382_ _1383_ VDD VSS gf180mcu_fd_sc_mcu9t5v0__or3_4
X_1978_ _1314_ _1352_ _1384_ VDD VSS gf180mcu_fd_sc_mcu9t5v0__or2_4
X_1979_ _1298_ _1304_ _1312_ _1385_ VDD VSS gf180mcu_fd_sc_mcu9t5v0__and3_2
X_1980_ _1328_ _1335_ _1336_ _1386_ VDD VSS gf180mcu_fd_sc_mcu9t5v0__nor3_4
X_1981_ _1385_ _1386_ _1387_ VDD VSS gf180mcu_fd_sc_mcu9t5v0__and2_2
X_1982_ _1387_ _1388_ VDD VSS gf180mcu_fd_sc_mcu9t5v0__clkbuf_8
X_1983_ net16 _1204_ _1288_ _1389_ VDD VSS gf180mcu_fd_sc_mcu9t5v0__mux2_2
X_1984_ _1284_ _1388_ _1389_ _1390_ VDD VSS gf180mcu_fd_sc_mcu9t5v0__and3_2
X_1985_ _1213_ _1214_ _1391_ VDD VSS gf180mcu_fd_sc_mcu9t5v0__nor2_2
X_1986_ _1679_ _1391_ _1288_ _1392_ VDD VSS gf180mcu_fd_sc_mcu9t5v0__mux2_2
X_1987_ _1284_ _1388_ _1392_ _1393_ VDD VSS gf180mcu_fd_sc_mcu9t5v0__aoi21_4
X_1988_ _1390_ _1393_ _1394_ VDD VSS gf180mcu_fd_sc_mcu9t5v0__or2_2
X_1989_ _1384_ _1394_ _1395_ VDD VSS gf180mcu_fd_sc_mcu9t5v0__and2_2
X_1990_ _1372_ _1396_ VDD VSS gf180mcu_fd_sc_mcu9t5v0__buf_4
X_1991_ _1232_ _1374_ _1397_ VDD VSS gf180mcu_fd_sc_mcu9t5v0__xnor2_4
X_1992_ _1396_ _1397_ _1398_ VDD VSS gf180mcu_fd_sc_mcu9t5v0__nor2_2
X_1993_ _1383_ _1395_ _1398_ _1399_ VDD VSS gf180mcu_fd_sc_mcu9t5v0__and3_2
X_1994_ _1690_ _1400_ VDD VSS gf180mcu_fd_sc_mcu9t5v0__buf_4
X_1995_ _1400_ _1401_ VDD VSS gf180mcu_fd_sc_mcu9t5v0__clkbuf_8
X_1996_ net43 net46 _1315_ _1402_ VDD VSS gf180mcu_fd_sc_mcu9t5v0__mux2_2
X_1997_ net11 net14 _1315_ _1403_ VDD VSS gf180mcu_fd_sc_mcu9t5v0__mux2_2
X_1998_ _1328_ _1335_ _1336_ _1403_ _1404_ VDD VSS gf180mcu_fd_sc_mcu9t5v0__or4_2
X_1999_ _1386_ _1402_ _1404_ _1385_ _1405_ VDD VSS gf180mcu_fd_sc_mcu9t5v0__oai211_2
X_2000_ net43 net46 _1339_ _1406_ VDD VSS gf180mcu_fd_sc_mcu9t5v0__mux2_2
X_2001_ _1351_ _1406_ _1407_ VDD VSS gf180mcu_fd_sc_mcu9t5v0__nand2_2
X_2002_ _1373_ _1408_ VDD VSS gf180mcu_fd_sc_mcu9t5v0__buf_4
X_2003_ _1405_ _1407_ _1408_ _1409_ VDD VSS gf180mcu_fd_sc_mcu9t5v0__mux2_2
X_2004_ net7 net9 _1315_ _1410_ VDD VSS gf180mcu_fd_sc_mcu9t5v0__mux2_2
X_2005_ net39 net41 _1315_ _1411_ VDD VSS gf180mcu_fd_sc_mcu9t5v0__mux2_2
X_2006_ _1411_ _1412_ VDD VSS gf180mcu_fd_sc_mcu9t5v0__clkinv_2
X_2007_ _1328_ _1335_ _1336_ _1412_ _1413_ VDD VSS gf180mcu_fd_sc_mcu9t5v0__oai31_2
X_2008_ _1337_ _1410_ _1413_ _1385_ _1414_ VDD VSS gf180mcu_fd_sc_mcu9t5v0__oai211_2
X_2009_ net39 net41 _1339_ _1415_ VDD VSS gf180mcu_fd_sc_mcu9t5v0__mux2_2
X_2010_ _1351_ _1415_ _1416_ VDD VSS gf180mcu_fd_sc_mcu9t5v0__nand2_2
X_2011_ _1414_ _1416_ _1408_ _1417_ VDD VSS gf180mcu_fd_sc_mcu9t5v0__mux2_2
X_2012_ _1409_ _1417_ _1366_ _1418_ VDD VSS gf180mcu_fd_sc_mcu9t5v0__mux2_2
X_2013_ _1401_ _1418_ _1419_ VDD VSS gf180mcu_fd_sc_mcu9t5v0__nand2_2
X_2014_ _1378_ _1351_ _1420_ VDD VSS gf180mcu_fd_sc_mcu9t5v0__and2_2
X_2015_ _1315_ _1421_ VDD VSS gf180mcu_fd_sc_mcu9t5v0__clkinv_2
X_2016_ _1421_ _1385_ _1422_ VDD VSS gf180mcu_fd_sc_mcu9t5v0__and2_2
X_2017_ _1420_ _1422_ _1283_ _1423_ VDD VSS gf180mcu_fd_sc_mcu9t5v0__mux2_2
X_2018_ _1423_ _1424_ VDD VSS gf180mcu_fd_sc_mcu9t5v0__buf_8
X_2019_ _1339_ _1351_ _1425_ VDD VSS gf180mcu_fd_sc_mcu9t5v0__and2_2
X_2020_ _1315_ _1385_ _1426_ VDD VSS gf180mcu_fd_sc_mcu9t5v0__and2_2
X_2021_ _1425_ _1426_ _1283_ _1427_ VDD VSS gf180mcu_fd_sc_mcu9t5v0__mux2_2
X_2022_ _1427_ _1428_ VDD VSS gf180mcu_fd_sc_mcu9t5v0__buf_8
X_2023_ _1283_ _1388_ _1429_ VDD VSS gf180mcu_fd_sc_mcu9t5v0__and2_4
X_2024_ net40 _1424_ _1428_ net42 _1429_ _1430_ VDD VSS gf180mcu_fd_sc_mcu9t5v0__aoi221_4
X_2025_ _1373_ _1431_ VDD VSS gf180mcu_fd_sc_mcu9t5v0__clkbuf_8
X_2026_ _1431_ _1432_ VDD VSS gf180mcu_fd_sc_mcu9t5v0__clkbuf_8
X_2027_ _1385_ _1386_ _1433_ VDD VSS gf180mcu_fd_sc_mcu9t5v0__nand2_2
X_2028_ _1433_ _1434_ VDD VSS gf180mcu_fd_sc_mcu9t5v0__clkbuf_8
X_2029_ net8 net10 _1316_ _1435_ VDD VSS gf180mcu_fd_sc_mcu9t5v0__mux2_2
X_2030_ _1432_ _1434_ _1435_ _1436_ VDD VSS gf180mcu_fd_sc_mcu9t5v0__or3_2
X_2031_ _1366_ _1436_ _1437_ VDD VSS gf180mcu_fd_sc_mcu9t5v0__nand2_2
X_2032_ _1361_ _1365_ _1438_ VDD VSS gf180mcu_fd_sc_mcu9t5v0__nand2_4
X_2033_ _1431_ a_exp_larger VDD VSS gf180mcu_fd_sc_mcu9t5v0__clkbuf_8
X_2034_ net12 _1439_ VDD VSS gf180mcu_fd_sc_mcu9t5v0__clkinv_2
X_2035_ net15 _1440_ VDD VSS gf180mcu_fd_sc_mcu9t5v0__clkinv_2
X_2036_ _1439_ _1440_ _1667_ _1682_ _1315_ _1337_ _1441_ VDD
+ VSS gf180mcu_fd_sc_mcu9t5v0__mux4_2
X_2037_ net44 net47 _1339_ _1442_ VDD VSS gf180mcu_fd_sc_mcu9t5v0__mux2_2
X_2038_ _1291_ _1292_ _1351_ _1442_ _1443_ VDD VSS gf180mcu_fd_sc_mcu9t5v0__nand4_2
X_2039_ a_exp_larger _1313_ _1441_ _1443_ _1444_ VDD VSS gf180mcu_fd_sc_mcu9t5v0__oai31_4
X_2040_ _1438_ _1444_ _1445_ VDD VSS gf180mcu_fd_sc_mcu9t5v0__nand2_2
X_2041_ _1430_ _1437_ _1290_ _1445_ _1446_ VDD VSS gf180mcu_fd_sc_mcu9t5v0__oai211_2
X_2042_ _1372_ _1375_ _1447_ VDD VSS gf180mcu_fd_sc_mcu9t5v0__and2_2
X_2043_ _1419_ _1446_ _1447_ _1448_ VDD VSS gf180mcu_fd_sc_mcu9t5v0__and3_2
X_2044_ _1377_ _1399_ _1448_ _1449_ VDD VSS gf180mcu_fd_sc_mcu9t5v0__nor3_2
X_2045_ _1346_ _1450_ VDD VSS gf180mcu_fd_sc_mcu9t5v0__clkinv_2
X_2046_ _1690_ _1378_ _1343_ _1379_ _1451_ VDD VSS gf180mcu_fd_sc_mcu9t5v0__oai22_2
X_2047_ _1307_ _1228_ _1452_ VDD VSS gf180mcu_fd_sc_mcu9t5v0__xnor2_2
X_2048_ _1451_ _1452_ _1453_ VDD VSS gf180mcu_fd_sc_mcu9t5v0__nand2_2
X_2049_ _1322_ _1601_ _1450_ _1453_ _1454_ VDD VSS gf180mcu_fd_sc_mcu9t5v0__oai22_2
X_2050_ _1605_ _1228_ _1607_ _1455_ VDD VSS gf180mcu_fd_sc_mcu9t5v0__aoi21_2
X_2051_ _1346_ _1453_ _1455_ _1593_ _1232_ _1456_ VDD VSS
+ gf180mcu_fd_sc_mcu9t5v0__oai221_2
X_2052_ _1232_ _1454_ _1456_ _1457_ VDD VSS gf180mcu_fd_sc_mcu9t5v0__oai21_2
X_2053_ _1601_ _1458_ VDD VSS gf180mcu_fd_sc_mcu9t5v0__clkinv_2
X_2054_ _1458_ _1455_ _1459_ VDD VSS gf180mcu_fd_sc_mcu9t5v0__nand2_2
X_2055_ _1458_ _1459_ _1593_ _1460_ VDD VSS gf180mcu_fd_sc_mcu9t5v0__mux2_2
X_2056_ _1352_ _1457_ _1460_ _1461_ VDD VSS gf180mcu_fd_sc_mcu9t5v0__nand3_2
X_2057_ _1408_ _1313_ _1328_ _1335_ _1462_ VDD VSS gf180mcu_fd_sc_mcu9t5v0__or4_2
X_2058_ _1461_ _1462_ _1463_ VDD VSS gf180mcu_fd_sc_mcu9t5v0__nand2_4
X_2059_ _1212_ _1432_ _1464_ VDD VSS gf180mcu_fd_sc_mcu9t5v0__and2_2
X_2060_ _1223_ _1464_ _1465_ VDD VSS gf180mcu_fd_sc_mcu9t5v0__and2_2
X_2061_ _1463_ _1465_ _1466_ VDD VSS gf180mcu_fd_sc_mcu9t5v0__nand2_4
X_2062_ _1438_ _1467_ VDD VSS gf180mcu_fd_sc_mcu9t5v0__buf_4
X_2063_ net4 _1468_ VDD VSS gf180mcu_fd_sc_mcu9t5v0__clkinv_2
X_2064_ _1433_ _1469_ VDD VSS gf180mcu_fd_sc_mcu9t5v0__buf_4
X_2065_ _1468_ _1431_ _1469_ _1470_ VDD VSS gf180mcu_fd_sc_mcu9t5v0__or3_2
X_2066_ _1433_ _1471_ VDD VSS gf180mcu_fd_sc_mcu9t5v0__clkbuf_8
X_2067_ _1408_ _1471_ net36 _1472_ VDD VSS gf180mcu_fd_sc_mcu9t5v0__oai21_2
X_2068_ _1378_ _1247_ _1282_ _1351_ _1473_ VDD VSS gf180mcu_fd_sc_mcu9t5v0__and4_2
X_2069_ _1283_ _1422_ _1473_ _1474_ VDD VSS gf180mcu_fd_sc_mcu9t5v0__aoi21_4
X_2070_ _1470_ _1472_ _1474_ _1475_ VDD VSS gf180mcu_fd_sc_mcu9t5v0__aoi21_2
X_2071_ net6 _1476_ VDD VSS gf180mcu_fd_sc_mcu9t5v0__clkinv_2
X_2072_ _1476_ _1431_ _1469_ _1477_ VDD VSS gf180mcu_fd_sc_mcu9t5v0__or3_2
X_2073_ _1408_ _1471_ net38 _1478_ VDD VSS gf180mcu_fd_sc_mcu9t5v0__oai21_2
X_2074_ _1339_ _1247_ _1282_ _1351_ _1479_ VDD VSS gf180mcu_fd_sc_mcu9t5v0__and4_2
X_2075_ _1283_ _1426_ _1479_ _1480_ VDD VSS gf180mcu_fd_sc_mcu9t5v0__aoi21_4
X_2076_ _1477_ _1478_ _1480_ _1481_ VDD VSS gf180mcu_fd_sc_mcu9t5v0__aoi21_2
X_2077_ _1475_ _1481_ _1482_ VDD VSS gf180mcu_fd_sc_mcu9t5v0__nor2_2
X_2078_ net31 _1483_ VDD VSS gf180mcu_fd_sc_mcu9t5v0__clkinv_2
X_2079_ _1483_ _1431_ _1469_ _1484_ VDD VSS gf180mcu_fd_sc_mcu9t5v0__or3_2
X_2080_ _1432_ _1471_ net63 _1485_ VDD VSS gf180mcu_fd_sc_mcu9t5v0__oai21_2
X_2081_ _1484_ _1485_ _1474_ _1486_ VDD VSS gf180mcu_fd_sc_mcu9t5v0__aoi21_2
X_2082_ net33 _1487_ VDD VSS gf180mcu_fd_sc_mcu9t5v0__clkinv_2
X_2083_ _1487_ _1431_ _1469_ _1488_ VDD VSS gf180mcu_fd_sc_mcu9t5v0__or3_2
X_2084_ _1432_ _1471_ net65 _1489_ VDD VSS gf180mcu_fd_sc_mcu9t5v0__oai21_2
X_2085_ _1488_ _1489_ _1480_ _1490_ VDD VSS gf180mcu_fd_sc_mcu9t5v0__aoi21_2
X_2086_ _1467_ _1486_ _1490_ _1491_ VDD VSS gf180mcu_fd_sc_mcu9t5v0__nor3_2
X_2087_ _1467_ _1482_ _1491_ _1401_ _1492_ VDD VSS gf180mcu_fd_sc_mcu9t5v0__aoi211_4
X_2088_ _1372_ _1493_ VDD VSS gf180mcu_fd_sc_mcu9t5v0__clkinv_4
X_2089_ _1493_ _1494_ VDD VSS gf180mcu_fd_sc_mcu9t5v0__buf_4
X_2090_ _1397_ _1463_ _1495_ VDD VSS gf180mcu_fd_sc_mcu9t5v0__and2_2
X_2091_ _1494_ _1495_ _1496_ VDD VSS gf180mcu_fd_sc_mcu9t5v0__and2_2
X_2092_ _1396_ _1495_ _1497_ VDD VSS gf180mcu_fd_sc_mcu9t5v0__and2_2
X_2093_ _1367_ _1498_ VDD VSS gf180mcu_fd_sc_mcu9t5v0__clkbuf_8
X_2094_ _1283_ _1387_ _1499_ VDD VSS gf180mcu_fd_sc_mcu9t5v0__nand2_4
X_2095_ net24 net56 _1499_ _1500_ VDD VSS gf180mcu_fd_sc_mcu9t5v0__mux2_2
X_2096_ net28 net60 _1499_ _1501_ VDD VSS gf180mcu_fd_sc_mcu9t5v0__mux2_2
X_2097_ _1424_ _1500_ _1501_ _1428_ _1290_ _1502_ VDD VSS
+ gf180mcu_fd_sc_mcu9t5v0__aoi221_2
X_2098_ net27 net59 _1499_ _1503_ VDD VSS gf180mcu_fd_sc_mcu9t5v0__mux2_2
X_2099_ net29 net61 _1499_ _1504_ VDD VSS gf180mcu_fd_sc_mcu9t5v0__mux2_4
X_2100_ _1424_ _1503_ _1504_ _1428_ _1401_ _1505_ VDD VSS
+ gf180mcu_fd_sc_mcu9t5v0__aoi221_2
X_2101_ _1288_ _1506_ VDD VSS gf180mcu_fd_sc_mcu9t5v0__buf_4
X_2102_ net45 _1506_ _1507_ VDD VSS gf180mcu_fd_sc_mcu9t5v0__and2_2
X_2103_ net34 _1400_ _1508_ VDD VSS gf180mcu_fd_sc_mcu9t5v0__and2_2
X_2104_ a_exp_larger _1434_ _1507_ _1508_ _1509_ VDD VSS gf180mcu_fd_sc_mcu9t5v0__oai22_2
X_2105_ net13 _1506_ _1510_ VDD VSS gf180mcu_fd_sc_mcu9t5v0__and2_2
X_2106_ net2 _1400_ _1511_ VDD VSS gf180mcu_fd_sc_mcu9t5v0__and2_2
X_2107_ _1510_ _1511_ _1284_ _1388_ _1512_ VDD VSS gf180mcu_fd_sc_mcu9t5v0__oai211_4
X_2108_ _1509_ _1512_ _1480_ _1513_ VDD VSS gf180mcu_fd_sc_mcu9t5v0__aoi21_2
X_2109_ _1498_ _1513_ _1514_ VDD VSS gf180mcu_fd_sc_mcu9t5v0__nand2_2
X_2110_ _1498_ _1502_ _1505_ _1514_ _1515_ VDD VSS gf180mcu_fd_sc_mcu9t5v0__oai31_2
X_2111_ _1492_ _1496_ _1497_ _1515_ _1516_ VDD VSS gf180mcu_fd_sc_mcu9t5v0__aoi22_2
X_2112_ _1465_ _1517_ VDD VSS gf180mcu_fd_sc_mcu9t5v0__clkinv_2
X_2113_ _1449_ _1466_ _1516_ _1517_ _0051_ VDD VSS gf180mcu_fd_sc_mcu9t5v0__oai22_2
X_2114_ net30 net62 _1499_ _1518_ VDD VSS gf180mcu_fd_sc_mcu9t5v0__mux2_2
X_2115_ _1424_ _1501_ _1518_ _1428_ _1519_ VDD VSS gf180mcu_fd_sc_mcu9t5v0__aoi22_4
X_2116_ _1424_ _1503_ _1504_ _1428_ _1290_ _1520_ VDD VSS
+ gf180mcu_fd_sc_mcu9t5v0__aoi221_4
X_2117_ _1290_ _1519_ _1520_ _1498_ _1521_ VDD VSS gf180mcu_fd_sc_mcu9t5v0__aoi211_4
X_2118_ _1316_ _1339_ _1408_ _1522_ VDD VSS gf180mcu_fd_sc_mcu9t5v0__mux2_4
X_2119_ _1499_ _1523_ VDD VSS gf180mcu_fd_sc_mcu9t5v0__clkbuf_8
X_2120_ net13 net24 net45 net56 _1506_ _1523_ _1524_ VDD VSS
+ gf180mcu_fd_sc_mcu9t5v0__mux4_2
X_2121_ _1384_ _1524_ _1525_ VDD VSS gf180mcu_fd_sc_mcu9t5v0__nand2_2
X_2122_ _1522_ _1525_ _1467_ _1526_ VDD VSS gf180mcu_fd_sc_mcu9t5v0__aoi21_2
X_2123_ net2 net34 _1523_ _1527_ VDD VSS gf180mcu_fd_sc_mcu9t5v0__mux2_2
X_2124_ _1506_ _1384_ _1528_ VDD VSS gf180mcu_fd_sc_mcu9t5v0__and2_2
X_2125_ _1527_ _1528_ _1529_ VDD VSS gf180mcu_fd_sc_mcu9t5v0__nand2_2
X_2126_ _1383_ _1529_ _1530_ VDD VSS gf180mcu_fd_sc_mcu9t5v0__nand2_2
X_2127_ _1396_ _1397_ _1531_ VDD VSS gf180mcu_fd_sc_mcu9t5v0__and2_2
X_2128_ _1521_ _1526_ _1530_ _1531_ _1532_ VDD VSS gf180mcu_fd_sc_mcu9t5v0__oai211_4
X_2129_ net16 _1284_ _1388_ _1533_ VDD VSS gf180mcu_fd_sc_mcu9t5v0__and3_2
X_2130_ _1284_ _1388_ _1679_ _1534_ VDD VSS gf180mcu_fd_sc_mcu9t5v0__aoi21_2
X_2131_ _1533_ _1534_ _1522_ _1535_ VDD VSS gf180mcu_fd_sc_mcu9t5v0__oai21_2
X_2132_ net14 _1536_ VDD VSS gf180mcu_fd_sc_mcu9t5v0__clkinv_2
X_2133_ _1536_ _1316_ _1408_ _1469_ _1537_ VDD VSS gf180mcu_fd_sc_mcu9t5v0__or4_2
X_2134_ _1378_ _1291_ _1292_ _1538_ VDD VSS gf180mcu_fd_sc_mcu9t5v0__and3_2
X_2135_ _1291_ _1292_ _1385_ _1386_ _1316_ _1539_ VDD VSS
+ gf180mcu_fd_sc_mcu9t5v0__aoi221_2
X_2136_ _1538_ _1539_ net46 _1540_ VDD VSS gf180mcu_fd_sc_mcu9t5v0__oai21_2
X_2137_ _1537_ _1540_ _1541_ VDD VSS gf180mcu_fd_sc_mcu9t5v0__and2_2
X_2138_ _1535_ _1541_ _1498_ _1542_ VDD VSS gf180mcu_fd_sc_mcu9t5v0__aoi21_2
X_2139_ net9 _1543_ VDD VSS gf180mcu_fd_sc_mcu9t5v0__clkinv_2
X_2140_ net11 _1544_ VDD VSS gf180mcu_fd_sc_mcu9t5v0__clkinv_2
X_2141_ _1543_ _1544_ _1316_ _1545_ VDD VSS gf180mcu_fd_sc_mcu9t5v0__mux2_2
X_2142_ _1432_ _1471_ _1545_ _1546_ VDD VSS gf180mcu_fd_sc_mcu9t5v0__or3_2
X_2143_ net41 _1421_ _1547_ VDD VSS gf180mcu_fd_sc_mcu9t5v0__nand2_2
X_2144_ net43 _1316_ _1548_ VDD VSS gf180mcu_fd_sc_mcu9t5v0__nand2_2
X_2145_ _1291_ _1292_ _1547_ _1548_ _1549_ VDD VSS gf180mcu_fd_sc_mcu9t5v0__aoi22_2
X_2146_ net41 _1378_ _1550_ VDD VSS gf180mcu_fd_sc_mcu9t5v0__nand2_2
X_2147_ net43 _1339_ _1551_ VDD VSS gf180mcu_fd_sc_mcu9t5v0__nand2_2
X_2148_ _1550_ _1551_ _1357_ _1358_ _1552_ VDD VSS gf180mcu_fd_sc_mcu9t5v0__aoi211_4
X_2149_ a_exp_larger _1434_ _1549_ _1552_ _1553_ VDD VSS gf180mcu_fd_sc_mcu9t5v0__oai22_2
X_2150_ _1546_ _1553_ _1467_ _1554_ VDD VSS gf180mcu_fd_sc_mcu9t5v0__aoi21_2
X_2151_ _1542_ _1554_ _1447_ _1528_ _1555_ VDD VSS gf180mcu_fd_sc_mcu9t5v0__oai211_2
X_2152_ _1204_ _1431_ _1469_ _1556_ VDD VSS gf180mcu_fd_sc_mcu9t5v0__or3_2
X_2153_ _1408_ _1471_ _1391_ _1557_ VDD VSS gf180mcu_fd_sc_mcu9t5v0__oai21_2
X_2154_ _1400_ _1384_ _1556_ _1557_ _1558_ VDD VSS gf180mcu_fd_sc_mcu9t5v0__and4_2
X_2155_ _1383_ _1558_ _1559_ VDD VSS gf180mcu_fd_sc_mcu9t5v0__and2_2
X_2156_ _1401_ _1372_ _1375_ _1560_ VDD VSS gf180mcu_fd_sc_mcu9t5v0__and3_2
X_2157_ _1430_ _1437_ _1445_ _1561_ VDD VSS gf180mcu_fd_sc_mcu9t5v0__oai21_2
X_2158_ _1398_ _1559_ _1560_ _1561_ _1562_ VDD VSS gf180mcu_fd_sc_mcu9t5v0__aoi22_2
X_2159_ _1372_ _1375_ _1563_ VDD VSS gf180mcu_fd_sc_mcu9t5v0__or2_2
X_2160_ net3 _1564_ VDD VSS gf180mcu_fd_sc_mcu9t5v0__clkinv_2
X_2161_ _1564_ _1408_ _1469_ _0122_ VDD VSS gf180mcu_fd_sc_mcu9t5v0__or3_2
X_2162_ _1432_ _1434_ net35 _0123_ VDD VSS gf180mcu_fd_sc_mcu9t5v0__oai21_2
X_2163_ _0122_ _0123_ _1480_ _0124_ VDD VSS gf180mcu_fd_sc_mcu9t5v0__aoi21_2
X_2164_ net32 _0125_ VDD VSS gf180mcu_fd_sc_mcu9t5v0__clkinv_2
X_2165_ _0125_ _1431_ _1469_ _0126_ VDD VSS gf180mcu_fd_sc_mcu9t5v0__or3_2
X_2166_ _1432_ _1434_ net64 _0127_ VDD VSS gf180mcu_fd_sc_mcu9t5v0__oai21_2
X_2167_ _0126_ _0127_ _1474_ _0128_ VDD VSS gf180mcu_fd_sc_mcu9t5v0__aoi21_2
X_2168_ _1289_ _1366_ _0129_ VDD VSS gf180mcu_fd_sc_mcu9t5v0__nand2_2
X_2169_ _1506_ _1438_ _0130_ VDD VSS gf180mcu_fd_sc_mcu9t5v0__nand2_2
X_2170_ net7 _0131_ VDD VSS gf180mcu_fd_sc_mcu9t5v0__clkinv_2
X_2171_ _0131_ _1431_ _1469_ _0132_ VDD VSS gf180mcu_fd_sc_mcu9t5v0__or3_2
X_2172_ _1432_ _1471_ net39 _0133_ VDD VSS gf180mcu_fd_sc_mcu9t5v0__oai21_2
X_2173_ _0132_ _0133_ _1480_ _0134_ VDD VSS gf180mcu_fd_sc_mcu9t5v0__aoi21_4
X_2174_ net5 _0135_ VDD VSS gf180mcu_fd_sc_mcu9t5v0__clkinv_2
X_2175_ _0135_ _1431_ _1469_ _0136_ VDD VSS gf180mcu_fd_sc_mcu9t5v0__or3_2
X_2176_ _1432_ _1471_ net37 _0137_ VDD VSS gf180mcu_fd_sc_mcu9t5v0__oai21_2
X_2177_ _0136_ _0137_ _1474_ _0138_ VDD VSS gf180mcu_fd_sc_mcu9t5v0__aoi21_4
X_2178_ _0124_ _0128_ _0129_ _0130_ _0134_ _0138_ _0139_ VDD
+ VSS gf180mcu_fd_sc_mcu9t5v0__oai33_2
X_2179_ _1400_ _1366_ _0140_ VDD VSS gf180mcu_fd_sc_mcu9t5v0__nand2_2
X_2180_ _1400_ _1438_ _0141_ VDD VSS gf180mcu_fd_sc_mcu9t5v0__nand2_2
X_2181_ _0140_ _1486_ _1490_ _0141_ _1481_ _1475_ _0142_ VDD
+ VSS gf180mcu_fd_sc_mcu9t5v0__oai33_2
X_2182_ _1563_ _0139_ _0142_ _0143_ VDD VSS gf180mcu_fd_sc_mcu9t5v0__or3_2
X_2183_ _1555_ _1562_ _0143_ _0144_ VDD VSS gf180mcu_fd_sc_mcu9t5v0__and3_2
X_2184_ _1532_ _0144_ _1466_ _0062_ VDD VSS gf180mcu_fd_sc_mcu9t5v0__aoi21_2
X_2185_ _1484_ _1485_ _0145_ VDD VSS gf180mcu_fd_sc_mcu9t5v0__nand2_2
X_2186_ _1424_ _1504_ _0145_ _1428_ _0146_ VDD VSS gf180mcu_fd_sc_mcu9t5v0__aoi22_4
X_2187_ _1509_ _1512_ _1522_ _0147_ VDD VSS gf180mcu_fd_sc_mcu9t5v0__aoi21_2
X_2188_ net59 _1506_ _0148_ VDD VSS gf180mcu_fd_sc_mcu9t5v0__and2_2
X_2189_ net56 _1400_ _0149_ VDD VSS gf180mcu_fd_sc_mcu9t5v0__and2_2
X_2190_ a_exp_larger _1434_ _0148_ _0149_ _0150_ VDD VSS gf180mcu_fd_sc_mcu9t5v0__oai22_2
X_2191_ net27 _1506_ _0151_ VDD VSS gf180mcu_fd_sc_mcu9t5v0__and2_2
X_2192_ net24 _1400_ _0152_ VDD VSS gf180mcu_fd_sc_mcu9t5v0__and2_2
X_2193_ _0151_ _0152_ _1284_ _1388_ _0153_ VDD VSS gf180mcu_fd_sc_mcu9t5v0__oai211_2
X_2194_ _1421_ _1378_ a_exp_larger _0154_ VDD VSS gf180mcu_fd_sc_mcu9t5v0__mux2_4
X_2195_ _0150_ _0153_ _0154_ _0155_ VDD VSS gf180mcu_fd_sc_mcu9t5v0__aoi21_2
X_2196_ _0147_ _0155_ _1498_ _1384_ _0156_ VDD VSS gf180mcu_fd_sc_mcu9t5v0__oai211_2
X_2197_ _1519_ _0141_ _0146_ _0130_ _0156_ _0157_ VDD VSS
+ gf180mcu_fd_sc_mcu9t5v0__oai221_2
X_2198_ _0124_ _0128_ _1401_ _1367_ _0158_ VDD VSS gf180mcu_fd_sc_mcu9t5v0__oai211_2
X_2199_ _1400_ _1438_ _0159_ VDD VSS gf180mcu_fd_sc_mcu9t5v0__and2_2
X_2200_ _0134_ _0138_ _0159_ _0160_ VDD VSS gf180mcu_fd_sc_mcu9t5v0__oai21_2
X_2201_ _1438_ _0161_ VDD VSS gf180mcu_fd_sc_mcu9t5v0__buf_4
X_2202_ _1488_ _1489_ _1474_ _0162_ VDD VSS gf180mcu_fd_sc_mcu9t5v0__aoi21_2
X_2203_ _1470_ _1472_ _1480_ _0163_ VDD VSS gf180mcu_fd_sc_mcu9t5v0__aoi21_2
X_2204_ net6 net8 net38 net40 _1315_ _1337_ _0164_ VDD VSS
+ gf180mcu_fd_sc_mcu9t5v0__mux4_2
X_2205_ net38 net40 _1339_ _0165_ VDD VSS gf180mcu_fd_sc_mcu9t5v0__mux2_2
X_2206_ _1314_ _0164_ _0165_ _1352_ _0166_ VDD VSS gf180mcu_fd_sc_mcu9t5v0__aoi22_4
X_2207_ _1438_ _0166_ _1400_ _0167_ VDD VSS gf180mcu_fd_sc_mcu9t5v0__aoi21_2
X_2208_ _0161_ _0162_ _0163_ _0167_ _0168_ VDD VSS gf180mcu_fd_sc_mcu9t5v0__oai31_2
X_2209_ _0158_ _0160_ _0168_ _0169_ VDD VSS gf180mcu_fd_sc_mcu9t5v0__nand3_2
X_2210_ _1531_ _0157_ _0169_ _1376_ _0170_ VDD VSS gf180mcu_fd_sc_mcu9t5v0__aoi22_2
X_2211_ _1440_ _1536_ _1682_ _1685_ _1690_ _1523_ _0171_ VDD
+ VSS gf180mcu_fd_sc_mcu9t5v0__mux4_2
X_2212_ _1390_ _1393_ _1522_ _1384_ _0172_ VDD VSS gf180mcu_fd_sc_mcu9t5v0__oai211_2
X_2213_ _1474_ _0171_ _0172_ _0161_ _0173_ VDD VSS gf180mcu_fd_sc_mcu9t5v0__oai211_2
X_2214_ net44 _1506_ _0174_ VDD VSS gf180mcu_fd_sc_mcu9t5v0__nand2_2
X_2215_ net43 _1690_ _0175_ VDD VSS gf180mcu_fd_sc_mcu9t5v0__nand2_2
X_2216_ _1284_ _1388_ _0174_ _0175_ _0176_ VDD VSS gf180mcu_fd_sc_mcu9t5v0__aoi22_2
X_2217_ net12 _1506_ _1284_ _1388_ _0177_ VDD VSS gf180mcu_fd_sc_mcu9t5v0__and4_2
X_2218_ net11 _1690_ _1284_ _1388_ _0178_ VDD VSS gf180mcu_fd_sc_mcu9t5v0__and4_2
X_2219_ _0176_ _0177_ _0178_ _1428_ _0179_ VDD VSS gf180mcu_fd_sc_mcu9t5v0__oai31_2
X_2220_ _1367_ _0179_ _0180_ VDD VSS gf180mcu_fd_sc_mcu9t5v0__nand2_2
X_2221_ net10 _0181_ VDD VSS gf180mcu_fd_sc_mcu9t5v0__clkinv_2
X_2222_ _0181_ _1543_ _1673_ _1676_ _1690_ _1523_ _0182_ VDD
+ VSS gf180mcu_fd_sc_mcu9t5v0__mux4_2
X_2223_ _1383_ _1384_ _0183_ VDD VSS gf180mcu_fd_sc_mcu9t5v0__nand2_2
X_2224_ _0182_ _0183_ _0184_ VDD VSS gf180mcu_fd_sc_mcu9t5v0__nor2_2
X_2225_ _0173_ _0180_ _0184_ _0185_ VDD VSS gf180mcu_fd_sc_mcu9t5v0__aoi21_4
X_2226_ _1494_ _1397_ _1466_ _0186_ VDD VSS gf180mcu_fd_sc_mcu9t5v0__or3_4
X_2227_ net34 _1287_ _0187_ VDD VSS gf180mcu_fd_sc_mcu9t5v0__nand2_2
X_2228_ _1466_ _0170_ _0185_ _0186_ _0187_ _0069_ VDD VSS
+ gf180mcu_fd_sc_mcu9t5v0__oai221_2
X_2229_ net27 net28 net59 net60 _1506_ _1523_ _0188_ VDD VSS
+ gf180mcu_fd_sc_mcu9t5v0__mux4_2
X_2230_ _1424_ _1524_ _0188_ _1428_ _1467_ _0189_ VDD VSS
+ gf180mcu_fd_sc_mcu9t5v0__aoi221_2
X_2231_ _1290_ _1467_ _1356_ _0190_ VDD VSS gf180mcu_fd_sc_mcu9t5v0__and3_2
X_2232_ _0159_ _0146_ _0189_ _0190_ _0191_ VDD VSS gf180mcu_fd_sc_mcu9t5v0__aoi211_2
X_2233_ _1353_ _1417_ _0161_ _0192_ VDD VSS gf180mcu_fd_sc_mcu9t5v0__mux2_2
X_2234_ _0161_ _0166_ _1289_ _0193_ VDD VSS gf180mcu_fd_sc_mcu9t5v0__aoi21_2
X_2235_ _1467_ _0162_ _0163_ _0193_ _0194_ VDD VSS gf180mcu_fd_sc_mcu9t5v0__oai31_2
X_2236_ _1401_ _0192_ _0194_ _0195_ VDD VSS gf180mcu_fd_sc_mcu9t5v0__oai21_2
X_2237_ _1531_ _0191_ _0195_ _1376_ _0196_ VDD VSS gf180mcu_fd_sc_mcu9t5v0__aoi22_2
X_2238_ net15 net16 net47 net48 _1288_ _1523_ _0197_ VDD VSS
+ gf180mcu_fd_sc_mcu9t5v0__mux4_2
X_2239_ _1522_ _1558_ _0197_ _1424_ _0198_ VDD VSS gf180mcu_fd_sc_mcu9t5v0__aoi22_2
X_2240_ _1439_ _1432_ _1471_ _0199_ VDD VSS gf180mcu_fd_sc_mcu9t5v0__or3_2
X_2241_ a_exp_larger _1434_ net44 _0200_ VDD VSS gf180mcu_fd_sc_mcu9t5v0__oai21_2
X_2242_ _0199_ _0200_ _1480_ _0201_ VDD VSS gf180mcu_fd_sc_mcu9t5v0__aoi21_2
X_2243_ _0181_ _1408_ _1471_ _0202_ VDD VSS gf180mcu_fd_sc_mcu9t5v0__or3_2
X_2244_ a_exp_larger _1434_ net42 _0203_ VDD VSS gf180mcu_fd_sc_mcu9t5v0__oai21_2
X_2245_ _0202_ _0203_ _1474_ _0204_ VDD VSS gf180mcu_fd_sc_mcu9t5v0__aoi21_2
X_2246_ _1289_ _1409_ _0205_ VDD VSS gf180mcu_fd_sc_mcu9t5v0__nand2_2
X_2247_ _1289_ _0201_ _0204_ _0205_ _0206_ VDD VSS gf180mcu_fd_sc_mcu9t5v0__oai31_2
X_2248_ _0198_ _0206_ _1367_ _0207_ VDD VSS gf180mcu_fd_sc_mcu9t5v0__mux2_4
X_2249_ net45 _1287_ _0208_ VDD VSS gf180mcu_fd_sc_mcu9t5v0__nand2_2
X_2250_ _1466_ _0196_ _0207_ _0186_ _0208_ _0070_ VDD VSS
+ gf180mcu_fd_sc_mcu9t5v0__oai221_2
X_2251_ _1212_ _1285_ _0209_ VDD VSS gf180mcu_fd_sc_mcu9t5v0__and2_2
X_2252_ _0209_ _0210_ VDD VSS gf180mcu_fd_sc_mcu9t5v0__clkbuf_8
X_2253_ _1465_ _1495_ _0211_ VDD VSS gf180mcu_fd_sc_mcu9t5v0__nand2_2
X_2254_ _0211_ _0212_ VDD VSS gf180mcu_fd_sc_mcu9t5v0__buf_4
X_2255_ _1424_ _1500_ _1501_ _1428_ _0213_ VDD VSS gf180mcu_fd_sc_mcu9t5v0__aoi22_2
X_2256_ _1486_ _1490_ _0214_ VDD VSS gf180mcu_fd_sc_mcu9t5v0__nor2_2
X_2257_ _1424_ _1503_ _1504_ _1428_ _0215_ VDD VSS gf180mcu_fd_sc_mcu9t5v0__aoi22_2
X_2258_ _1356_ _0213_ _0214_ _0215_ _1367_ _1290_ _0216_ VDD
+ VSS gf180mcu_fd_sc_mcu9t5v0__mux4_2
X_2259_ _1643_ _1474_ _1480_ _1673_ _1523_ _0217_ VDD VSS
+ gf180mcu_fd_sc_mcu9t5v0__oai221_4
X_2260_ _0217_ _1436_ _0218_ VDD VSS gf180mcu_fd_sc_mcu9t5v0__nand2_2
X_2261_ _1353_ _1417_ _1482_ _0218_ _0161_ _1289_ _0219_ VDD
+ VSS gf180mcu_fd_sc_mcu9t5v0__mux4_2
X_2262_ _0216_ _0219_ _1493_ _0220_ VDD VSS gf180mcu_fd_sc_mcu9t5v0__mux2_2
X_2263_ _1438_ _0154_ _0221_ VDD VSS gf180mcu_fd_sc_mcu9t5v0__and2_2
X_2264_ _1289_ _1444_ _0222_ VDD VSS gf180mcu_fd_sc_mcu9t5v0__nand2_2
X_2265_ _1289_ _1409_ _0222_ _0223_ VDD VSS gf180mcu_fd_sc_mcu9t5v0__oai21_2
X_2266_ _1395_ _0221_ _0223_ _1498_ _0224_ VDD VSS gf180mcu_fd_sc_mcu9t5v0__aoi22_4
X_2267_ _1628_ _0210_ _0212_ _0220_ _0224_ _0186_ _0071_ VDD
+ VSS gf180mcu_fd_sc_mcu9t5v0__oai222_2
X_2268_ net16 _0225_ VDD VSS gf180mcu_fd_sc_mcu9t5v0__clkinv_2
X_2269_ _0225_ a_exp_larger _1434_ _0226_ VDD VSS gf180mcu_fd_sc_mcu9t5v0__or3_2
X_2270_ a_exp_larger _1434_ net48 _0227_ VDD VSS gf180mcu_fd_sc_mcu9t5v0__oai21_2
X_2271_ _0226_ _0227_ _0154_ _0228_ VDD VSS gf180mcu_fd_sc_mcu9t5v0__aoi21_2
X_2272_ _1537_ _1540_ _0229_ VDD VSS gf180mcu_fd_sc_mcu9t5v0__nand2_2
X_2273_ _0228_ _0229_ _1528_ _0230_ VDD VSS gf180mcu_fd_sc_mcu9t5v0__oai21_2
X_2274_ _1401_ _1444_ _1467_ _0231_ VDD VSS gf180mcu_fd_sc_mcu9t5v0__aoi21_2
X_2275_ _0230_ _0231_ _0232_ VDD VSS gf180mcu_fd_sc_mcu9t5v0__and2_2
X_2276_ _0154_ _1558_ _1498_ _0233_ VDD VSS gf180mcu_fd_sc_mcu9t5v0__aoi21_2
X_2277_ _0232_ _0233_ _0234_ VDD VSS gf180mcu_fd_sc_mcu9t5v0__or2_2
X_2278_ _0215_ _0214_ _0161_ _0235_ VDD VSS gf180mcu_fd_sc_mcu9t5v0__mux2_2
X_2279_ _0218_ _1482_ _1367_ _0236_ VDD VSS gf180mcu_fd_sc_mcu9t5v0__mux2_2
X_2280_ _0124_ _0128_ _0237_ VDD VSS gf180mcu_fd_sc_mcu9t5v0__nor2_2
X_2281_ _1519_ _0237_ _1438_ _0238_ VDD VSS gf180mcu_fd_sc_mcu9t5v0__mux2_2
X_2282_ _0134_ _0138_ _0239_ VDD VSS gf180mcu_fd_sc_mcu9t5v0__or2_2
X_2283_ _1314_ _1352_ _0240_ VDD VSS gf180mcu_fd_sc_mcu9t5v0__nor2_2
X_2284_ _1546_ _1553_ _0240_ _0241_ VDD VSS gf180mcu_fd_sc_mcu9t5v0__aoi21_2
X_2285_ _0161_ _0241_ _0242_ VDD VSS gf180mcu_fd_sc_mcu9t5v0__and2_2
X_2286_ _1498_ _0239_ _0242_ _0243_ VDD VSS gf180mcu_fd_sc_mcu9t5v0__aoi21_2
X_2287_ _0235_ _0236_ _0238_ _0243_ _1493_ _1290_ _0244_ VDD
+ VSS gf180mcu_fd_sc_mcu9t5v0__mux4_4
X_2288_ net59 _1287_ _0245_ VDD VSS gf180mcu_fd_sc_mcu9t5v0__nand2_2
X_2289_ _0186_ _0234_ _0244_ _0212_ _0245_ _0072_ VDD VSS
+ gf180mcu_fd_sc_mcu9t5v0__oai221_2
X_2290_ _1474_ _0182_ _0179_ _0246_ VDD VSS gf180mcu_fd_sc_mcu9t5v0__oai21_2
X_2291_ _1289_ _0134_ _0138_ _0247_ VDD VSS gf180mcu_fd_sc_mcu9t5v0__or3_2
X_2292_ _1289_ _0166_ _0161_ _0248_ VDD VSS gf180mcu_fd_sc_mcu9t5v0__aoi21_2
X_2293_ _1467_ _0246_ _0247_ _0248_ _0249_ VDD VSS gf180mcu_fd_sc_mcu9t5v0__aoi22_2
X_2294_ _0162_ _0163_ _0250_ VDD VSS gf180mcu_fd_sc_mcu9t5v0__nor2_2
X_2295_ _1519_ _0237_ _0146_ _0250_ _0161_ _1290_ _0251_ VDD
+ VSS gf180mcu_fd_sc_mcu9t5v0__mux4_2
X_2296_ _0249_ _0251_ _1396_ _0252_ VDD VSS gf180mcu_fd_sc_mcu9t5v0__mux2_2
X_2297_ _1474_ _0171_ _0172_ _0253_ VDD VSS gf180mcu_fd_sc_mcu9t5v0__oai21_2
X_2298_ _1498_ _0253_ _0254_ VDD VSS gf180mcu_fd_sc_mcu9t5v0__nand2_4
X_2299_ _1640_ _0210_ _0211_ _0252_ _0254_ _0186_ _0073_ VDD
+ VSS gf180mcu_fd_sc_mcu9t5v0__oai222_2
X_2300_ _1366_ _0166_ _0255_ VDD VSS gf180mcu_fd_sc_mcu9t5v0__nand2_2
X_2301_ _1367_ _0201_ _0204_ _0255_ _0256_ VDD VSS gf180mcu_fd_sc_mcu9t5v0__oai31_2
X_2302_ _1418_ _0256_ _1401_ _0257_ VDD VSS gf180mcu_fd_sc_mcu9t5v0__mux2_2
X_2303_ _1353_ _1356_ _0250_ _0146_ _1367_ _1401_ _0258_ VDD
+ VSS gf180mcu_fd_sc_mcu9t5v0__mux4_2
X_2304_ _0257_ _0258_ _1396_ _0259_ VDD VSS gf180mcu_fd_sc_mcu9t5v0__mux2_2