
* cell floating_point_adder
* pin b[28]
* pin a[28]
* pin b[30]
* pin a[30]
* pin b[27]
* pin a[27]
* pin result[29]
* pin result[28]
* pin result[27]
* pin clk
* pin result[26]
* pin result[30]
* pin result[25]
* pin result[24]
* pin overflow
* pin result[23]
* pin result[0]
* pin result[10]
* pin result[4]
* pin result[2]
* pin result[5]
* pin result[3]
* pin result[1]
* pin rst_n
* pin underflow
* pin result[6]
* pin result[7]
* pin result[12]
* pin a[29]
* pin b[29]
* pin result[15]
* pin a[25]
* pin result[31]
* pin a[26]
* pin result[21]
* pin b[26]
* pin b[25]
* pin result[20]
* pin b[31]
* pin a[31]
* pin invalid_op
* pin a[23]
* pin result[22]
* pin b[24]
* pin b[23]
* pin result[19]
* pin a[24]
* pin result[9]
* pin result[18]
* pin result[17]
* pin result[16]
* pin result[14]
* pin b[18]
* pin a[20]
* pin b[20]
* pin result[13]
* pin b[16]
* pin a[21]
* pin b[21]
* pin result[8]
* pin result[11]
* pin a[18]
* pin a[16]
* pin inexact
* pin valid_in
* pin valid_out
* pin a[19]
* pin a[17]
* pin b[19]
* pin a[15]
* pin b[17]
* pin a[13]
* pin b[13]
* pin b[15]
* pin a[14]
* pin b[14]
* pin a[12]
* pin b[12]
* pin b[10]
* pin b[9]
* pin b[11]
* pin a[7]
* pin b[5]
* pin a[10]
* pin b[8]
* pin a[9]
* pin a[8]
* pin b[22]
* pin b[7]
* pin a[4]
* pin a[22]
* pin b[2]
* pin a[11]
* pin a[5]
* pin a[1]
* pin b[3]
* pin b[0]
* pin b[4]
* pin a[6]
* pin b[6]
* pin a[3]
* pin a[2]
* pin b[1]
* pin a[0]
* pin NWELL
* pin PWELL,gf180mcu_gnd
.SUBCKT floating_point_adder 1 2 3 4 5 6 7 8 9 10 11 12 13 14 15 16 17 18 19 20
+ 21 22 23 227 229 266 346 454 467 468 530 541 580 608 630 642 643 662 699 718
+ 719 754 808 825 826 842 879 960 995 1036 1092 1156 1166 1199 1200 1214 1221
+ 1222 1249 1267 1295 1369 1415 1441 1474 1475 1544 1545 1581 1607 1632 1633
+ 1634 1635 1636 1661 1736 1737 1849 1998 2067 2188 2207 2208 2222 2230 2236
+ 2243 2248 2251 2254 2256 2258 2259 2262 2263 2264 2265 2266 2267 2268 2269
+ 2270 2271 2276 2277
* net 1 b[28]
* net 2 a[28]
* net 3 b[30]
* net 4 a[30]
* net 5 b[27]
* net 6 a[27]
* net 7 result[29]
* net 8 result[28]
* net 9 result[27]
* net 10 clk
* net 11 result[26]
* net 12 result[30]
* net 13 result[25]
* net 14 result[24]
* net 15 overflow
* net 16 result[23]
* net 17 result[0]
* net 18 result[10]
* net 19 result[4]
* net 20 result[2]
* net 21 result[5]
* net 22 result[3]
* net 23 result[1]
* net 227 rst_n
* net 229 underflow
* net 266 result[6]
* net 346 result[7]
* net 454 result[12]
* net 467 a[29]
* net 468 b[29]
* net 530 result[15]
* net 541 a[25]
* net 580 result[31]
* net 608 a[26]
* net 630 result[21]
* net 642 b[26]
* net 643 b[25]
* net 662 result[20]
* net 699 b[31]
* net 718 a[31]
* net 719 invalid_op
* net 754 a[23]
* net 808 result[22]
* net 825 b[24]
* net 826 b[23]
* net 842 result[19]
* net 879 a[24]
* net 960 result[9]
* net 995 result[18]
* net 1036 result[17]
* net 1092 result[16]
* net 1156 result[14]
* net 1166 b[18]
* net 1199 a[20]
* net 1200 b[20]
* net 1214 result[13]
* net 1221 b[16]
* net 1222 a[21]
* net 1249 b[21]
* net 1267 result[8]
* net 1295 result[11]
* net 1369 a[18]
* net 1415 a[16]
* net 1441 inexact
* net 1474 valid_in
* net 1475 valid_out
* net 1544 a[19]
* net 1545 a[17]
* net 1581 b[19]
* net 1607 a[15]
* net 1632 b[17]
* net 1633 a[13]
* net 1634 b[13]
* net 1635 b[15]
* net 1636 a[14]
* net 1661 b[14]
* net 1736 a[12]
* net 1737 b[12]
* net 1849 b[10]
* net 1998 b[9]
* net 2067 b[11]
* net 2188 a[7]
* net 2207 b[5]
* net 2208 a[10]
* net 2222 b[8]
* net 2230 a[9]
* net 2236 a[8]
* net 2243 b[22]
* net 2248 b[7]
* net 2251 a[4]
* net 2254 a[22]
* net 2256 b[2]
* net 2258 a[11]
* net 2259 a[5]
* net 2262 a[1]
* net 2263 b[3]
* net 2264 b[0]
* net 2265 b[4]
* net 2266 a[6]
* net 2267 b[6]
* net 2268 a[3]
* net 2269 a[2]
* net 2270 b[1]
* net 2271 a[0]
* net 2276 NWELL
* net 2277 PWELL,gf180mcu_gnd
* cell instance $3 m0 *1 100.24,15.12
X$3 2277 41 1 2276 gf180mcu_fd_sc_mcu9t5v0__dlyc_2
* cell instance $7 r0 *1 104.16,15.12
X$7 2 2276 2277 270 gf180mcu_fd_sc_mcu9t5v0__clkbuf_2
* cell instance $11 r0 *1 105.84,5.04
X$11 2277 34 3 2276 gf180mcu_fd_sc_mcu9t5v0__dlyc_2
* cell instance $15 r0 *1 109.2,15.12
X$15 4 2276 2277 77 gf180mcu_fd_sc_mcu9t5v0__clkbuf_2
* cell instance $19 m0 *1 113.68,15.12
X$19 5 2276 2277 334 gf180mcu_fd_sc_mcu9t5v0__buf_2
* cell instance $23 r0 *1 119.28,5.04
X$23 2277 35 6 2276 gf180mcu_fd_sc_mcu9t5v0__dlyc_2
* cell instance $27 r0 *1 172.48,5.04
X$27 36 2276 2277 7 gf180mcu_fd_sc_mcu9t5v0__dlyb_2
* cell instance $31 r0 *1 180.88,5.04
X$31 38 2276 2277 8 gf180mcu_fd_sc_mcu9t5v0__dlyb_2
* cell instance $35 r0 *1 201.6,5.04
X$35 24 2276 2277 9 gf180mcu_fd_sc_mcu9t5v0__dlyb_2
* cell instance $40 r0 *1 276.64,226.8
X$40 2277 10 234 2276 gf180mcu_fd_sc_mcu9t5v0__clkbuf_12
* cell instance $43 r0 *1 227.92,5.04
X$43 25 2276 2277 11 gf180mcu_fd_sc_mcu9t5v0__dlyb_2
* cell instance $47 r0 *1 252.56,5.04
X$47 26 2276 2277 12 gf180mcu_fd_sc_mcu9t5v0__dlyb_2
* cell instance $51 r0 *1 270.48,5.04
X$51 42 2276 2277 13 gf180mcu_fd_sc_mcu9t5v0__dlyb_2
* cell instance $55 r0 *1 291.76,5.04
X$55 27 2276 2277 14 gf180mcu_fd_sc_mcu9t5v0__dlyb_2
* cell instance $59 r0 *1 306.32,5.04
X$59 40 2276 2277 15 gf180mcu_fd_sc_mcu9t5v0__dlyb_2
* cell instance $63 r0 *1 315.28,5.04
X$63 28 2276 2277 16 gf180mcu_fd_sc_mcu9t5v0__dlyb_2
* cell instance $67 r0 *1 339.92,5.04
X$67 29 2276 2277 17 gf180mcu_fd_sc_mcu9t5v0__dlyb_2
* cell instance $71 r0 *1 361.2,5.04
X$71 30 2276 2277 18 gf180mcu_fd_sc_mcu9t5v0__dlyb_2
* cell instance $75 r0 *1 379.12,5.04
X$75 31 2276 2277 19 gf180mcu_fd_sc_mcu9t5v0__dlyb_2
* cell instance $79 r0 *1 435.68,5.04
X$79 37 2276 2277 20 gf180mcu_fd_sc_mcu9t5v0__dlyb_2
* cell instance $83 r0 *1 444.08,25.2
X$83 85 2276 2277 21 gf180mcu_fd_sc_mcu9t5v0__dlyb_2
* cell instance $87 r0 *1 430.64,15.12
X$87 52 2276 2277 22 gf180mcu_fd_sc_mcu9t5v0__dlyb_2
* cell instance $91 r0 *1 444.08,5.04
X$91 33 2276 2277 23 gf180mcu_fd_sc_mcu9t5v0__dlyb_2
* cell instance $95 r0 *1 187.04,15.12
X$95 2277 47 24 45 44 2276 gf180mcu_fd_sc_mcu9t5v0__dffrnq_2
* cell instance $98 m0 *1 211.68,15.12
X$98 2277 47 25 45 46 2276 gf180mcu_fd_sc_mcu9t5v0__dffrnq_2
* cell instance $101 m0 *1 234.64,15.12
X$101 2277 47 26 45 66 2276 gf180mcu_fd_sc_mcu9t5v0__dffrnq_2
* cell instance $103 m0 *1 274.4,15.12
X$103 2277 47 27 45 48 2276 gf180mcu_fd_sc_mcu9t5v0__dffrnq_2
* cell instance $107 m0 *1 297.92,15.12
X$107 2277 47 28 50 49 2276 gf180mcu_fd_sc_mcu9t5v0__dffrnq_2
* cell instance $109 m0 *1 323.68,15.12
X$109 2277 47 29 50 56 2276 gf180mcu_fd_sc_mcu9t5v0__dffrnq_2
* cell instance $112 m0 *1 345.52,15.12
X$112 2277 47 30 50 57 2276 gf180mcu_fd_sc_mcu9t5v0__dffrnq_2
* cell instance $115 m0 *1 364.56,15.12
X$115 2277 47 31 50 51 2276 gf180mcu_fd_sc_mcu9t5v0__dffrnq_2
* cell instance $118 r0 *1 409.92,5.04
X$118 2277 47 37 32 59 2276 gf180mcu_fd_sc_mcu9t5v0__dffrnq_2
* cell instance $127 m0 *1 431.76,85.68
X$127 2277 47 345 32 344 2276 gf180mcu_fd_sc_mcu9t5v0__dffrnq_2
* cell instance $130 m0 *1 408.24,65.52
X$130 2277 47 230 32 231 2276 gf180mcu_fd_sc_mcu9t5v0__dffrnq_2
* cell instance $132 m0 *1 409.36,75.6
X$132 2277 283 32 282 2276 gf180mcu_fd_sc_mcu9t5v0__dffq_2
* cell instance $134 r0 *1 390.32,75.6
X$134 2277 234 32 2276 gf180mcu_fd_sc_mcu9t5v0__clkbuf_20
* cell instance $141 r0 *1 429.52,65.52
X$141 2277 47 284 32 283 2276 gf180mcu_fd_sc_mcu9t5v0__dffrnq_2
* cell instance $143 m0 *1 414.4,85.68
X$143 2277 344 32 348 2276 gf180mcu_fd_sc_mcu9t5v0__dffq_2
* cell instance $145 r0 *1 389.2,15.12
X$145 2277 59 32 74 2276 gf180mcu_fd_sc_mcu9t5v0__dffq_2
* cell instance $147 r0 *1 390.32,65.52
X$147 2277 32 2283 2276 gf180mcu_fd_sc_mcu9t5v0__clkbuf_12
* cell instance $149 r0 *1 409.36,15.12
X$149 2277 61 32 60 2276 gf180mcu_fd_sc_mcu9t5v0__dffq_2
* cell instance $152 m0 *1 400.96,15.12
X$152 2277 47 52 32 62 2276 gf180mcu_fd_sc_mcu9t5v0__dffrnq_2
* cell instance $155 m0 *1 411.04,35.28
X$155 2277 105 32 104 2276 gf180mcu_fd_sc_mcu9t5v0__dffq_2
* cell instance $157 m0 *1 433.44,25.2
X$157 2277 47 85 32 105 2276 gf180mcu_fd_sc_mcu9t5v0__dffrnq_2
* cell instance $159 m0 *1 427.84,15.12
X$159 2277 47 33 32 61 2276 gf180mcu_fd_sc_mcu9t5v0__dffrnq_2
* cell instance $165 r0 *1 96.32,5.04
X$165 34 2276 2277 259 gf180mcu_fd_sc_mcu9t5v0__buf_2
* cell instance $170 m0 *1 118.16,15.12
X$170 35 2276 2277 332 gf180mcu_fd_sc_mcu9t5v0__buf_2
* cell instance $173 m0 *1 166.88,15.12
X$173 2277 47 36 53 43 2276 gf180mcu_fd_sc_mcu9t5v0__dffrnq_2
* cell instance $183 r0 *1 164.08,15.12
X$183 2277 47 38 53 63 2276 gf180mcu_fd_sc_mcu9t5v0__dffrnq_2
* cell instance $185 m0 *1 253.68,15.12
X$185 2277 47 42 45 39 2276 gf180mcu_fd_sc_mcu9t5v0__dffrnq_2
* cell instance $188 r0 *1 240.8,15.12
X$188 2277 39 45 67 2276 gf180mcu_fd_sc_mcu9t5v0__dffq_2
* cell instance $191 m0 *1 244.72,25.2
X$191 2277 2276 67 81 64 39 gf180mcu_fd_sc_mcu9t5v0__mux2_2
* cell instance $194 m0 *1 287.28,25.2
X$194 2277 47 40 45 70 2276 gf180mcu_fd_sc_mcu9t5v0__dffrnq_2
* cell instance $198 m0 *1 95.76,15.12
X$198 41 2276 2277 269 gf180mcu_fd_sc_mcu9t5v0__buf_2
* cell instance $203 m0 *1 156.24,45.36
X$203 2277 43 53 123 2276 gf180mcu_fd_sc_mcu9t5v0__dffq_2
* cell instance $205 r0 *1 165.76,35.28
X$205 2277 2276 123 141 64 43 gf180mcu_fd_sc_mcu9t5v0__mux2_2
* cell instance $208 m0 *1 189.28,15.12
X$208 2277 2276 54 55 64 44 gf180mcu_fd_sc_mcu9t5v0__mux2_2
* cell instance $210 m0 *1 182.56,25.2
X$210 2277 44 53 54 2276 gf180mcu_fd_sc_mcu9t5v0__dffq_2
* cell instance $222 r0 *1 283.36,15.12
X$222 2277 49 45 69 2276 gf180mcu_fd_sc_mcu9t5v0__dffq_2
* cell instance $230 r0 *1 224,15.12
X$230 2277 66 45 65 2276 gf180mcu_fd_sc_mcu9t5v0__dffq_2
* cell instance $233 r0 *1 264.88,15.12
X$233 2277 48 45 68 2276 gf180mcu_fd_sc_mcu9t5v0__dffq_2
* cell instance $239 r0 *1 206.08,15.12
X$239 2277 46 45 76 2276 gf180mcu_fd_sc_mcu9t5v0__dffq_2
* cell instance $242 r0 *1 210,65.52
X$242 2277 45 2280 2276 gf180mcu_fd_sc_mcu9t5v0__clkbuf_12
* cell instance $244 m0 *1 210,65.52
X$244 2277 234 45 2276 gf180mcu_fd_sc_mcu9t5v0__clkbuf_20
* cell instance $247 m0 *1 209.44,25.2
X$247 2277 2276 76 78 64 46 gf180mcu_fd_sc_mcu9t5v0__mux2_2
* cell instance $255 m0 *1 158.48,105.84
X$255 2277 47 462 392 489 2276 gf180mcu_fd_sc_mcu9t5v0__dffrnq_2
* cell instance $258 m0 *1 433.44,216.72
X$258 2277 47 1155 481 1121 2276 gf180mcu_fd_sc_mcu9t5v0__dffrnq_2
* cell instance $260 m0 *1 162.96,95.76
X$260 2277 47 314 392 461 2276 gf180mcu_fd_sc_mcu9t5v0__dffrnq_2
* cell instance $262 r0 *1 160.16,246.96
X$262 2277 47 1281 1109 1347 2276 gf180mcu_fd_sc_mcu9t5v0__dffrnq_2
* cell instance $264 m0 *1 157.36,236.88
X$264 2277 47 1112 1109 1275 2276 gf180mcu_fd_sc_mcu9t5v0__dffrnq_2
* cell instance $266 m0 *1 159.6,257.04
X$266 2277 47 1256 1109 1377 2276 gf180mcu_fd_sc_mcu9t5v0__dffrnq_2
* cell instance $268 m0 *1 161.84,65.52
X$268 2277 47 203 53 267 2276 gf180mcu_fd_sc_mcu9t5v0__dffrnq_2
* cell instance $270 r0 *1 112.56,105.84
X$270 2277 47 486 392 485 2276 gf180mcu_fd_sc_mcu9t5v0__dffrnq_2
* cell instance $272 r0 *1 162.96,75.6
X$272 2277 47 306 53 323 2276 gf180mcu_fd_sc_mcu9t5v0__dffrnq_2
* cell instance $274 m0 *1 122.64,115.92
X$274 2277 47 485 392 538 2276 gf180mcu_fd_sc_mcu9t5v0__dffrnq_2
* cell instance $276 r0 *1 117.04,166.32
X$276 2277 47 851 392 886 2276 gf180mcu_fd_sc_mcu9t5v0__dffrnq_2
* cell instance $278 r0 *1 171.36,95.76
X$278 2277 47 326 392 420 2276 gf180mcu_fd_sc_mcu9t5v0__dffrnq_2
* cell instance $280 m0 *1 138.32,196.56
X$280 2277 47 934 392 1006 2276 gf180mcu_fd_sc_mcu9t5v0__dffrnq_2
* cell instance $283 m0 *1 135.52,186.48
X$283 2277 47 948 392 1005 2276 gf180mcu_fd_sc_mcu9t5v0__dffrnq_2
* cell instance $285 r0 *1 182,75.6
X$285 2277 47 260 53 306 2276 gf180mcu_fd_sc_mcu9t5v0__dffrnq_2
* cell instance $287 m0 *1 170.24,85.68
X$287 2277 47 324 53 312 2276 gf180mcu_fd_sc_mcu9t5v0__dffrnq_2
* cell instance $290 r0 *1 133.84,156.24
X$290 2277 47 517 392 873 2276 gf180mcu_fd_sc_mcu9t5v0__dffrnq_2
* cell instance $292 r0 *1 136.08,166.32
X$292 2277 47 830 392 887 2276 gf180mcu_fd_sc_mcu9t5v0__dffrnq_2
* cell instance $294 r0 *1 138.32,146.16
X$294 2277 47 729 392 728 2276 gf180mcu_fd_sc_mcu9t5v0__dffrnq_2
* cell instance $296 m0 *1 133.28,156.24
X$296 2277 47 708 392 816 2276 gf180mcu_fd_sc_mcu9t5v0__dffrnq_2
* cell instance $298 m0 *1 433.44,206.64
X$298 2277 47 1066 481 1065 2276 gf180mcu_fd_sc_mcu9t5v0__dffrnq_2
* cell instance $300 m0 *1 139.44,105.84
X$300 2277 47 461 392 460 2276 gf180mcu_fd_sc_mcu9t5v0__dffrnq_2
* cell instance $302 r0 *1 150.64,105.84
X$302 2277 47 420 392 488 2276 gf180mcu_fd_sc_mcu9t5v0__dffrnq_2
* cell instance $305 m0 *1 217.28,418.32
X$305 2277 47 2143 1789 1796 2276 gf180mcu_fd_sc_mcu9t5v0__dffrnq_2
* cell instance $310 r0 *1 135.52,126
X$310 2277 47 590 392 547 2276 gf180mcu_fd_sc_mcu9t5v0__dffrnq_2
* cell instance $312 m0 *1 131.04,136.08
X$312 2277 47 637 392 667 2276 gf180mcu_fd_sc_mcu9t5v0__dffrnq_2
* cell instance $314 m0 *1 145.04,206.64
X$314 2277 47 1025 1109 1127 2276 gf180mcu_fd_sc_mcu9t5v0__dffrnq_2
* cell instance $316 r0 *1 148.4,206.64
X$316 2277 47 1057 1109 1110 2276 gf180mcu_fd_sc_mcu9t5v0__dffrnq_2
* cell instance $318 m0 *1 142.8,126
X$318 2277 47 589 392 545 2276 gf180mcu_fd_sc_mcu9t5v0__dffrnq_2
* cell instance $322 r0 *1 150.08,216.72
X$322 2277 47 1141 1109 1172 2276 gf180mcu_fd_sc_mcu9t5v0__dffrnq_2
* cell instance $324 m0 *1 161.84,126
X$324 2277 47 551 518 574 2276 gf180mcu_fd_sc_mcu9t5v0__dffrnq_2
* cell instance $326 m0 *1 229.6,357.84
X$326 2277 47 1747 1789 1914 2276 gf180mcu_fd_sc_mcu9t5v0__dffrnq_2
* cell instance $328 r0 *1 178.08,277.2
X$328 2277 47 1428 1109 1580 2276 gf180mcu_fd_sc_mcu9t5v0__dffrnq_2
* cell instance $330 m0 *1 165.2,277.2
X$330 2277 47 1348 1109 1506 2276 gf180mcu_fd_sc_mcu9t5v0__dffrnq_2
* cell instance $332 r0 *1 159.6,257.04
X$332 2277 47 1349 1109 1403 2276 gf180mcu_fd_sc_mcu9t5v0__dffrnq_2
* cell instance $334 r0 *1 111.44,75.6
X$334 2277 47 305 53 351 2276 gf180mcu_fd_sc_mcu9t5v0__dffrnq_2
* cell instance $336 m0 *1 121.52,146.16
X$336 2277 47 700 392 637 2276 gf180mcu_fd_sc_mcu9t5v0__dffrnq_2
* cell instance $339 m0 *1 131.04,75.6
X$339 2277 47 288 53 311 2276 gf180mcu_fd_sc_mcu9t5v0__dffrnq_2
* cell instance $342 m0 *1 140,85.68
X$342 2277 47 312 53 352 2276 gf180mcu_fd_sc_mcu9t5v0__dffrnq_2
* cell instance $344 r0 *1 131.04,65.52
X$344 2277 47 267 53 286 2276 gf180mcu_fd_sc_mcu9t5v0__dffrnq_2
* cell instance $346 r0 *1 150.08,65.52
X$346 2277 47 205 53 305 2276 gf180mcu_fd_sc_mcu9t5v0__dffrnq_2
* cell instance $349 r0 *1 311.92,226.8
X$349 2277 47 340 1195 1245 2276 gf180mcu_fd_sc_mcu9t5v0__dffrnq_2
* cell instance $351 m0 *1 152.88,75.6
X$351 2277 47 183 53 288 2276 gf180mcu_fd_sc_mcu9t5v0__dffrnq_2
* cell instance $354 m0 *1 223.44,347.76
X$354 2277 47 1814 1789 1830 2276 gf180mcu_fd_sc_mcu9t5v0__dffrnq_2
* cell instance $357 r0 *1 220.64,327.6
X$357 2277 47 1677 1195 1767 2276 gf180mcu_fd_sc_mcu9t5v0__dffrnq_2
* cell instance $360 m0 *1 225.68,337.68
X$360 2277 47 1768 1731 1766 2276 gf180mcu_fd_sc_mcu9t5v0__dffrnq_2
* cell instance $363 r0 *1 187.6,347.76
X$363 2277 47 1793 1878 1868 2276 gf180mcu_fd_sc_mcu9t5v0__dffrnq_2
* cell instance $366 m0 *1 181.44,408.24
X$366 2277 47 2073 1878 2086 2276 gf180mcu_fd_sc_mcu9t5v0__dffrnq_2
* cell instance $368 m0 *1 333.76,277.2
X$368 2277 47 167 1211 1471 2276 gf180mcu_fd_sc_mcu9t5v0__dffrnq_2
* cell instance $370 m0 *1 201.6,347.76
X$370 2277 47 1790 1789 1831 2276 gf180mcu_fd_sc_mcu9t5v0__dffrnq_2
* cell instance $372 r0 *1 197.68,357.84
X$372 2277 47 1862 1789 1891 2276 gf180mcu_fd_sc_mcu9t5v0__dffrnq_2
* cell instance $374 r0 *1 303.52,206.64
X$374 2277 47 354 743 1116 2276 gf180mcu_fd_sc_mcu9t5v0__dffrnq_2
* cell instance $378 m0 *1 297.36,216.72
X$378 2277 47 448 743 1149 2276 gf180mcu_fd_sc_mcu9t5v0__dffrnq_2
* cell instance $380 r0 *1 433.44,136.08
X$380 2277 47 688 481 661 2276 gf180mcu_fd_sc_mcu9t5v0__dffrnq_2
* cell instance $382 m0 *1 433.44,136.08
X$382 2277 47 631 481 629 2276 gf180mcu_fd_sc_mcu9t5v0__dffrnq_2
* cell instance $384 r0 *1 189.84,367.92
X$384 2277 47 1948 1878 1958 2276 gf180mcu_fd_sc_mcu9t5v0__dffrnq_2
* cell instance $387 r0 *1 189.28,398.16
X$387 2277 47 1925 1878 2066 2276 gf180mcu_fd_sc_mcu9t5v0__dffrnq_2
* cell instance $390 r0 *1 433.44,105.84
X$390 2277 47 484 481 482 2276 gf180mcu_fd_sc_mcu9t5v0__dffrnq_2
* cell instance $392 m0 *1 433.44,115.92
X$392 2277 47 533 481 529 2276 gf180mcu_fd_sc_mcu9t5v0__dffrnq_2
* cell instance $395 m0 *1 202.16,378
X$395 2277 47 1968 1789 1945 2276 gf180mcu_fd_sc_mcu9t5v0__dffrnq_2
* cell instance $397 m0 *1 181.44,378
X$397 2277 47 1902 1878 1967 2276 gf180mcu_fd_sc_mcu9t5v0__dffrnq_2
* cell instance $399 r0 *1 166.88,378
X$399 2277 47 1969 1878 1994 2276 gf180mcu_fd_sc_mcu9t5v0__dffrnq_2
* cell instance $401 m0 *1 181.44,347.76
X$401 2277 47 1818 1671 1820 2276 gf180mcu_fd_sc_mcu9t5v0__dffrnq_2
* cell instance $403 m0 *1 181.44,367.92
X$403 2277 47 1881 1878 1936 2276 gf180mcu_fd_sc_mcu9t5v0__dffrnq_2
* cell instance $405 m0 *1 181.44,357.84
X$405 2277 47 1769 1878 1915 2276 gf180mcu_fd_sc_mcu9t5v0__dffrnq_2
* cell instance $407 m0 *1 180.32,398.16
X$407 2277 47 2044 1878 2037 2276 gf180mcu_fd_sc_mcu9t5v0__dffrnq_2
* cell instance $411 r0 *1 281.12,216.72
X$411 2277 47 605 1195 1196 2276 gf180mcu_fd_sc_mcu9t5v0__dffrnq_2
* cell instance $413 r0 *1 168,428.4
X$413 2277 47 2194 1878 2193 2276 gf180mcu_fd_sc_mcu9t5v0__dffrnq_2
* cell instance $416 m0 *1 338.8,257.04
X$416 2277 47 255 1211 1386 2276 gf180mcu_fd_sc_mcu9t5v0__dffrnq_2
* cell instance $418 r0 *1 281.12,206.64
X$418 2277 47 565 743 1126 2276 gf180mcu_fd_sc_mcu9t5v0__dffrnq_2
* cell instance $420 r0 *1 338.24,226.8
X$420 2277 47 319 1211 1235 2276 gf180mcu_fd_sc_mcu9t5v0__dffrnq_2
* cell instance $422 m0 *1 271.6,206.64
X$422 2277 47 564 518 1091 2276 gf180mcu_fd_sc_mcu9t5v0__dffrnq_2
* cell instance $425 m0 *1 207.2,438.48
X$425 2277 47 2224 1789 2158 2276 gf180mcu_fd_sc_mcu9t5v0__dffrnq_2
* cell instance $427 m0 *1 295.68,196.56
X$427 2277 47 935 743 1049 2276 gf180mcu_fd_sc_mcu9t5v0__dffrnq_2
* cell instance $429 r0 *1 195.44,428.4
X$429 2277 47 2210 1878 2204 2276 gf180mcu_fd_sc_mcu9t5v0__dffrnq_2
* cell instance $434 m0 *1 428.96,156.24
X$434 2277 47 807 481 689 2276 gf180mcu_fd_sc_mcu9t5v0__dffrnq_2
* cell instance $437 m0 *1 202.72,398.16
X$437 2277 47 1950 1789 1984 2276 gf180mcu_fd_sc_mcu9t5v0__dffrnq_2
* cell instance $439 m0 *1 433.44,166.32
X$439 2277 47 841 743 864 2276 gf180mcu_fd_sc_mcu9t5v0__dffrnq_2
* cell instance $443 m0 *1 403.2,267.12
X$443 2277 47 1443 1265 1444 2276 gf180mcu_fd_sc_mcu9t5v0__dffrnq_2
* cell instance $445 r0 *1 420,236.88
X$445 2277 47 1297 1265 1237 2276 gf180mcu_fd_sc_mcu9t5v0__dffrnq_2
* cell instance $447 m0 *1 425.04,236.88
X$447 2277 47 1266 1265 1238 2276 gf180mcu_fd_sc_mcu9t5v0__dffrnq_2
* cell instance $449 r0 *1 433.44,226.8
X$449 2277 47 1215 1265 1213 2276 gf180mcu_fd_sc_mcu9t5v0__dffrnq_2
* cell instance $452 r0 *1 346.64,408.24
X$452 2277 47 1501 1731 2217 2276 gf180mcu_fd_sc_mcu9t5v0__dffrnq_2
* cell instance $456 r0 *1 268.8,196.56
X$456 2277 47 527 518 1063 2276 gf180mcu_fd_sc_mcu9t5v0__dffrnq_2
* cell instance $458 m0 *1 414.4,277.2
X$458 2277 47 1472 1265 1500 2276 gf180mcu_fd_sc_mcu9t5v0__dffrnq_2
* cell instance $460 r0 *1 231.28,136.08
X$460 2277 47 682 518 696 2276 gf180mcu_fd_sc_mcu9t5v0__dffrnq_2
* cell instance $462 r0 *1 232.4,115.92
X$462 2277 47 553 518 641 2276 gf180mcu_fd_sc_mcu9t5v0__dffrnq_2
* cell instance $465 m0 *1 261.52,196.56
X$465 2277 47 655 518 1031 2276 gf180mcu_fd_sc_mcu9t5v0__dffrnq_2
* cell instance $468 r0 *1 259.28,176.4
X$468 2277 47 956 518 972 2276 gf180mcu_fd_sc_mcu9t5v0__dffrnq_2
* cell instance $470 m0 *1 249.76,166.32
X$470 2277 47 658 518 848 2276 gf180mcu_fd_sc_mcu9t5v0__dffrnq_2
* cell instance $472 r0 *1 425.04,267.12
X$472 2277 47 1473 1265 1472 2276 gf180mcu_fd_sc_mcu9t5v0__dffrnq_2
* cell instance $474 m0 *1 433.44,277.2
X$474 2277 47 1499 1265 1473 2276 gf180mcu_fd_sc_mcu9t5v0__dffrnq_2
* cell instance $476 m0 *1 212.24,428.4
X$476 2277 47 2195 1789 2180 2276 gf180mcu_fd_sc_mcu9t5v0__dffrnq_2
* cell instance $478 r0 *1 162.4,307.44
X$478 2277 47 1647 1671 1690 2276 gf180mcu_fd_sc_mcu9t5v0__dffrnq_2
* cell instance $480 m0 *1 177.52,287.28
X$480 2277 47 1429 1195 1579 2276 gf180mcu_fd_sc_mcu9t5v0__dffrnq_2
* cell instance $482 m0 *1 173.04,327.6
X$482 2277 47 1720 1671 1758 2276 gf180mcu_fd_sc_mcu9t5v0__dffrnq_2
* cell instance $484 m0 *1 227.92,438.48
X$484 2277 47 2225 1789 2121 2276 gf180mcu_fd_sc_mcu9t5v0__dffrnq_2
* cell instance $486 m0 *1 181.44,297.36
X$486 2277 47 1524 1109 1679 2276 gf180mcu_fd_sc_mcu9t5v0__dffrnq_2
* cell instance $488 m0 *1 206.64,337.68
X$488 2277 47 1692 1789 1795 2276 gf180mcu_fd_sc_mcu9t5v0__dffrnq_2
* cell instance $490 r0 *1 425.04,176.4
X$490 2277 47 961 743 899 2276 gf180mcu_fd_sc_mcu9t5v0__dffrnq_2
* cell instance $493 r0 *1 186.48,327.6
X$493 2277 47 1745 1671 1819 2276 gf180mcu_fd_sc_mcu9t5v0__dffrnq_2
* cell instance $496 m0 *1 433.44,186.48
X$496 2277 47 959 481 958 2276 gf180mcu_fd_sc_mcu9t5v0__dffrnq_2
* cell instance $499 m0 *1 181.44,317.52
X$499 2277 47 1590 1671 1705 2276 gf180mcu_fd_sc_mcu9t5v0__dffrnq_2
* cell instance $503 m0 *1 209.44,327.6
X$503 2277 47 1648 1671 1744 2276 gf180mcu_fd_sc_mcu9t5v0__dffrnq_2
* cell instance $506 m0 *1 202.72,317.52
X$506 2277 47 1619 1671 1691 2276 gf180mcu_fd_sc_mcu9t5v0__dffrnq_2
* cell instance $509 r0 *1 217.28,428.4
X$509 2277 47 2211 1789 2127 2276 gf180mcu_fd_sc_mcu9t5v0__dffrnq_2
* cell instance $511 m0 *1 333.2,226.8
X$511 2277 47 411 1211 1212 2276 gf180mcu_fd_sc_mcu9t5v0__dffrnq_2
* cell instance $513 m0 *1 432.88,196.56
X$513 2277 47 1011 481 1010 2276 gf180mcu_fd_sc_mcu9t5v0__dffrnq_2
* cell instance $516 r0 *1 190.96,287.28
X$516 2277 47 1525 1195 1614 2276 gf180mcu_fd_sc_mcu9t5v0__dffrnq_2
* cell instance $625 m0 *1 340.48,347.76
X$625 2277 47 224 1731 1839 2276 gf180mcu_fd_sc_mcu9t5v0__dffrnq_4
* cell instance $628 m0 *1 409.36,95.76
X$628 2277 226 47 2276 gf180mcu_fd_sc_mcu9t5v0__buf_20
* cell instance $631 r0 *1 197.12,408.24
X$631 2277 47 1467 1878 1248 2276 gf180mcu_fd_sc_mcu9t5v0__dffrnq_4
* cell instance $633 m0 *1 179.2,105.84
X$633 2277 47 131 518 462 2276 gf180mcu_fd_sc_mcu9t5v0__dffrnq_4
* cell instance $636 r0 *1 307.44,367.92
X$636 2277 47 116 1731 1926 2276 gf180mcu_fd_sc_mcu9t5v0__dffrnq_4
* cell instance $638 r0 *1 308.56,378
X$638 2277 47 197 1731 2020 2276 gf180mcu_fd_sc_mcu9t5v0__dffrnq_4
* cell instance $640 m0 *1 311.92,388.08
X$640 2277 47 235 1731 1990 2276 gf180mcu_fd_sc_mcu9t5v0__dffrnq_4
* cell instance $643 m0 *1 330.4,236.88
X$643 2277 47 194 1211 1264 2276 gf180mcu_fd_sc_mcu9t5v0__dffrnq_4
* cell instance $646 r0 *1 320.88,388.08
X$646 2277 47 166 1731 2018 2276 gf180mcu_fd_sc_mcu9t5v0__dffrnq_4
* cell instance $649 r0 *1 252,156.24
X$649 2277 47 596 518 798 2276 gf180mcu_fd_sc_mcu9t5v0__dffrnq_4
* cell instance $652 r0 *1 211.12,115.92
X$652 2277 47 155 518 519 2276 gf180mcu_fd_sc_mcu9t5v0__dffrnq_4
* cell instance $655 m0 *1 271.04,25.2
X$655 2277 2276 68 82 64 48 gf180mcu_fd_sc_mcu9t5v0__mux2_2
* cell instance $662 r0 *1 291.76,25.2
X$662 2277 2276 69 102 64 49 gf180mcu_fd_sc_mcu9t5v0__mux2_2
* cell instance $676 m0 *1 379.68,25.2
X$676 2277 62 50 88 2276 gf180mcu_fd_sc_mcu9t5v0__dffq_2
* cell instance $678 m0 *1 365.12,75.6
X$678 2277 234 50 2276 gf180mcu_fd_sc_mcu9t5v0__clkbuf_20
* cell instance $680 r0 *1 367.92,75.6
X$680 2277 50 2276 gf180mcu_fd_sc_mcu9t5v0__inv_8
* cell instance $682 r0 *1 361.2,15.12
X$682 2277 51 50 58 2276 gf180mcu_fd_sc_mcu9t5v0__dffq_2
* cell instance $684 r0 *1 338.24,15.12
X$684 2277 57 50 75 2276 gf180mcu_fd_sc_mcu9t5v0__dffq_2
* cell instance $686 m0 *1 315.28,25.2
X$686 2277 56 50 71 2276 gf180mcu_fd_sc_mcu9t5v0__dffq_2
* cell instance $692 m0 *1 362.88,25.2
X$692 2277 2276 58 89 73 51 gf180mcu_fd_sc_mcu9t5v0__mux2_2
* cell instance $726 r0 *1 184.8,55.44
X$726 2277 234 53 2276 gf180mcu_fd_sc_mcu9t5v0__clkbuf_20
* cell instance $729 m0 *1 180.88,65.52
X$729 2277 2276 53 2351 gf180mcu_fd_sc_mcu9t5v0__clkinv_3
* cell instance $733 m0 *1 160.16,25.2
X$733 2277 63 53 87 2276 gf180mcu_fd_sc_mcu9t5v0__dffq_2
* cell instance $743 m0 *1 192.64,35.28
X$743 2276 92 2277 93 55 80 gf180mcu_fd_sc_mcu9t5v0__oai21_2
* cell instance $748 r0 *1 320.88,15.12
X$748 2277 2276 71 72 64 56 gf180mcu_fd_sc_mcu9t5v0__mux2_2
* cell instance $755 m0 *1 344.4,25.2
X$755 2277 2276 75 83 64 57 gf180mcu_fd_sc_mcu9t5v0__mux2_2
* cell instance $762 r0 *1 392,25.2
X$762 2277 2276 74 103 73 59 gf180mcu_fd_sc_mcu9t5v0__mux2_2
* cell instance $767 m0 *1 412.16,25.2
X$767 2277 2276 60 86 73 61 gf180mcu_fd_sc_mcu9t5v0__mux2_2
* cell instance $782 r0 *1 383.04,25.2
X$782 2277 2276 88 84 73 62 gf180mcu_fd_sc_mcu9t5v0__mux2_2
* cell instance $785 r0 *1 168.56,25.2
X$785 2277 2276 87 91 64 63 gf180mcu_fd_sc_mcu9t5v0__mux2_2
* cell instance $797 m0 *1 230.16,25.2
X$797 2277 2276 65 90 64 66 gf180mcu_fd_sc_mcu9t5v0__mux2_2
* cell instance $801 m0 *1 408.8,55.44
X$801 2277 226 64 2276 gf180mcu_fd_sc_mcu9t5v0__clkbuf_8
* cell instance $831 m0 *1 286.72,35.28
X$831 2276 101 96 2277 70 gf180mcu_fd_sc_mcu9t5v0__and2_2
* cell instance $838 m0 *1 322.56,45.36
X$838 2276 148 2277 154 72 136 gf180mcu_fd_sc_mcu9t5v0__oai21_2
* cell instance $842 m0 *1 407.68,136.08
X$842 2277 2276 664 660 73 689 gf180mcu_fd_sc_mcu9t5v0__mux2_2
* cell instance $844 r0 *1 413.28,126
X$844 2277 2276 632 626 73 661 gf180mcu_fd_sc_mcu9t5v0__mux2_2
* cell instance $847 r0 *1 412.72,35.28
X$847 2277 2276 104 140 73 105 gf180mcu_fd_sc_mcu9t5v0__mux2_2
* cell instance $861 r0 *1 417.2,55.44
X$861 2277 2276 226 73 gf180mcu_fd_sc_mcu9t5v0__buf_4
* cell instance $863 m0 *1 418.88,105.84
X$863 2277 2276 453 456 73 482 gf180mcu_fd_sc_mcu9t5v0__mux2_2
* cell instance $865 r0 *1 421.68,126
X$865 2277 2276 627 628 73 629 gf180mcu_fd_sc_mcu9t5v0__mux2_2
* cell instance $867 r0 *1 420,115.92
X$867 2277 2276 536 535 73 529 gf180mcu_fd_sc_mcu9t5v0__mux2_2
* cell instance $877 r0 *1 108.08,65.52
X$877 2277 2276 285 259 296 77 gf180mcu_fd_sc_mcu9t5v0__mux2_2
* cell instance $886 m0 *1 101.36,85.68
X$886 270 332 77 310 2276 2277 350 gf180mcu_fd_sc_mcu9t5v0__or4_2
* cell instance $888 m0 *1 110.88,95.76
X$888 270 332 77 310 2277 2276 497 gf180mcu_fd_sc_mcu9t5v0__and4_2
* cell instance $890 r0 *1 75.6,85.68
X$890 377 2277 2276 77 330 2339 gf180mcu_fd_sc_mcu9t5v0__addh_1
* cell instance $893 r0 *1 85.12,85.68
X$893 2277 2276 77 378 gf180mcu_fd_sc_mcu9t5v0__clkinv_2
* cell instance $895 r0 *1 210.56,25.2
X$895 2276 95 2277 79 78 80 gf180mcu_fd_sc_mcu9t5v0__oai21_2
* cell instance $899 r0 *1 207.76,35.28
X$899 109 2277 108 2276 79 gf180mcu_fd_sc_mcu9t5v0__xor2_2
* cell instance $902 m0 *1 181.44,45.36
X$902 2276 144 2277 145 141 80 gf180mcu_fd_sc_mcu9t5v0__oai21_2
* cell instance $904 r0 *1 178.64,35.28
X$904 2276 124 2277 125 91 80 gf180mcu_fd_sc_mcu9t5v0__oai21_2
* cell instance $908 m0 *1 306.32,45.36
X$908 2277 192 136 2276 80 gf180mcu_fd_sc_mcu9t5v0__or2_4
* cell instance $910 r0 *1 287.84,35.28
X$910 2276 2277 134 120 96 135 102 80 gf180mcu_fd_sc_mcu9t5v0__oai32_2
* cell instance $913 r0 *1 239.12,35.28
X$913 2276 121 2277 110 81 80 gf180mcu_fd_sc_mcu9t5v0__oai21_2
* cell instance $926 m0 *1 269.36,35.28
X$926 2277 2276 80 98 gf180mcu_fd_sc_mcu9t5v0__clkinv_2
* cell instance $928 m0 *1 228.48,45.36
X$928 2276 80 2277 161 128 90 133 gf180mcu_fd_sc_mcu9t5v0__oai22_2
* cell instance $932 r0 *1 274.4,25.2
X$932 2277 2276 99 82 gf180mcu_fd_sc_mcu9t5v0__clkinv_2
* cell instance $936 m0 *1 341.04,85.68
X$936 2276 338 2277 320 83 101 gf180mcu_fd_sc_mcu9t5v0__oai21_2
* cell instance $940 r0 *1 372.96,35.28
X$940 2276 119 2277 138 84 136 gf180mcu_fd_sc_mcu9t5v0__oai21_2
* cell instance $950 r0 *1 394.24,35.28
X$950 2276 139 2277 137 86 136 gf180mcu_fd_sc_mcu9t5v0__oai21_2
* cell instance $961 r0 *1 355.04,35.28
X$961 2276 118 2277 106 89 136 gf180mcu_fd_sc_mcu9t5v0__oai21_2
* cell instance $971 r0 *1 195.44,35.28
X$971 2276 94 2277 126 92 96 gf180mcu_fd_sc_mcu9t5v0__oai21_2
* cell instance $974 m0 *1 190.96,45.36
X$974 2276 184 156 2277 93 gf180mcu_fd_sc_mcu9t5v0__xnor2_2
* cell instance $977 r0 *1 221.76,35.28
X$977 2276 94 2277 122 121 96 gf180mcu_fd_sc_mcu9t5v0__oai21_2
* cell instance $980 m0 *1 208.32,35.28
X$980 2276 94 2277 107 95 96 gf180mcu_fd_sc_mcu9t5v0__oai21_2
* cell instance $983 r0 *1 399.84,115.92
X$983 2277 2276 527 528 94 gf180mcu_fd_sc_mcu9t5v0__nand2_2
* cell instance $999 m0 *1 409.36,85.68
X$999 2277 2276 319 343 94 gf180mcu_fd_sc_mcu9t5v0__nand2_2
* cell instance $1001 m0 *1 400.96,65.52
X$1001 2277 2276 255 233 94 gf180mcu_fd_sc_mcu9t5v0__nand2_2
* cell instance $1003 r0 *1 367.92,35.28
X$1003 2277 2276 116 119 94 gf180mcu_fd_sc_mcu9t5v0__nand2_2
* cell instance $1005 m0 *1 219.52,115.92
X$1005 2277 155 94 2276 gf180mcu_fd_sc_mcu9t5v0__clkbuf_8
* cell instance $1007 r0 *1 352.8,45.36
X$1007 2277 2276 194 118 94 gf180mcu_fd_sc_mcu9t5v0__nand2_2
* cell instance $1009 m0 *1 392,45.36
X$1009 2277 2276 197 139 94 gf180mcu_fd_sc_mcu9t5v0__nand2_2
* cell instance $1012 r0 *1 395.92,55.44
X$1012 2277 2276 224 174 94 gf180mcu_fd_sc_mcu9t5v0__nand2_2
* cell instance $1016 r0 *1 216.16,45.36
X$1016 186 190 203 2277 2276 96 gf180mcu_fd_sc_mcu9t5v0__and3_4
* cell instance $1020 m0 *1 176.96,55.44
X$1020 2276 155 2277 204 144 96 gf180mcu_fd_sc_mcu9t5v0__oai21_2
* cell instance $1022 m0 *1 173.04,45.36
X$1022 2276 155 2277 143 124 96 gf180mcu_fd_sc_mcu9t5v0__oai21_2
* cell instance $1033 m0 *1 257.04,45.36
X$1033 2277 2276 97 131 114 130 gf180mcu_fd_sc_mcu9t5v0__mux2_2
* cell instance $1037 m0 *1 272.72,35.28
X$1037 2277 97 2276 98 99 100 101 gf180mcu_fd_sc_mcu9t5v0__aoi22_2
* cell instance $1050 r0 *1 290.64,176.4
X$1050 2277 2276 877 891 100 892 gf180mcu_fd_sc_mcu9t5v0__mux2_2
* cell instance $1052 m0 *1 300.72,176.4
X$1052 2277 2276 938 892 100 859 gf180mcu_fd_sc_mcu9t5v0__mux2_2
* cell instance $1054 m0 *1 315.28,55.44
X$1054 2277 2276 216 193 100 209 gf180mcu_fd_sc_mcu9t5v0__mux2_2
* cell instance $1056 r0 *1 311.92,166.32
X$1056 2277 2276 860 893 100 769 gf180mcu_fd_sc_mcu9t5v0__mux2_2