
* cell final_spi_master
* pin rst_n
* pin tx_ready
* pin tx_valid
* pin spi_cs_n
* pin tx_data[0]
* pin spi_miso
* pin tx_data[1]
* pin tx_data[2]
* pin tx_data[3]
* pin tx_data[4]
* pin tx_data[5]
* pin tx_data[6]
* pin tx_data[7]
* pin spi_mosi
* pin spi_clk
* pin rx_data[2]
* pin rx_data[6]
* pin clk
* pin rx_data[1]
* pin rx_data[5]
* pin rx_data[7]
* pin rx_valid
* pin rx_data[0]
* pin rx_data[4]
* pin rx_data[3]
* pin NWELL
* pin PWELL,gf180mcu_gnd
.SUBCKT final_spi_master 1 2 3 4 5 6 7 8 9 10 11 21 59 67 90 95 96 124 129 134
+ 172 193 202 203 204 205 206
* net 1 rst_n
* net 2 tx_ready
* net 3 tx_valid
* net 4 spi_cs_n
* net 5 tx_data[0]
* net 6 spi_miso
* net 7 tx_data[1]
* net 8 tx_data[2]
* net 9 tx_data[3]
* net 10 tx_data[4]
* net 11 tx_data[5]
* net 21 tx_data[6]
* net 59 tx_data[7]
* net 67 spi_mosi
* net 90 spi_clk
* net 95 rx_data[2]
* net 96 rx_data[6]
* net 124 clk
* net 129 rx_data[1]
* net 134 rx_data[5]
* net 172 rx_data[7]
* net 193 rx_valid
* net 202 rx_data[0]
* net 203 rx_data[4]
* net 204 rx_data[3]
* net 205 NWELL
* net 206 PWELL,gf180mcu_gnd
* cell instance $3 r0 *1 30.24,5.04
X$3 206 12 1 205 gf180mcu_fd_sc_mcu9t5v0__dlyc_2
* cell instance $7 r0 *1 21.84,5.04
X$7 13 205 206 2 gf180mcu_fd_sc_mcu9t5v0__dlyb_2
* cell instance $11 r0 *1 42.56,5.04
X$11 3 205 206 42 gf180mcu_fd_sc_mcu9t5v0__clkbuf_2
* cell instance $14 m0 *1 39.76,15.12
X$14 31 205 206 4 gf180mcu_fd_sc_mcu9t5v0__dlyb_2
* cell instance $18 r0 *1 48.72,5.04
X$18 5 205 206 24 gf180mcu_fd_sc_mcu9t5v0__dlyb_2
* cell instance $23 r0 *1 59.92,5.04
X$23 6 205 206 70 gf180mcu_fd_sc_mcu9t5v0__dlyb_2
* cell instance $27 r0 *1 71.12,5.04
X$27 7 205 206 15 gf180mcu_fd_sc_mcu9t5v0__dlyb_2
* cell instance $31 r0 *1 81.2,5.04
X$31 8 205 206 26 gf180mcu_fd_sc_mcu9t5v0__dlyb_2
* cell instance $35 m0 *1 90.16,15.12
X$35 9 205 206 35 gf180mcu_fd_sc_mcu9t5v0__dlyb_2
* cell instance $39 r0 *1 101.92,5.04
X$39 10 205 206 17 gf180mcu_fd_sc_mcu9t5v0__dlyb_2
* cell instance $43 r0 *1 110.32,5.04
X$43 11 205 206 14 gf180mcu_fd_sc_mcu9t5v0__dlyb_2
* cell instance $48 r0 *1 17.36,5.04
X$48 12 205 206 23 gf180mcu_fd_sc_mcu9t5v0__buf_2
* cell instance $52 r0 *1 33.04,25.2
X$52 206 205 60 13 57 56 gf180mcu_fd_sc_mcu9t5v0__mux2_2
* cell instance $54 m0 *1 16.8,25.2
X$54 206 13 30 60 23 205 gf180mcu_fd_sc_mcu9t5v0__dffsnq_2
* cell instance $60 r0 *1 118.72,5.04
X$60 206 205 19 20 18 14 gf180mcu_fd_sc_mcu9t5v0__mux2_2
* cell instance $63 m0 *1 67.2,25.2
X$63 206 205 25 32 18 15 gf180mcu_fd_sc_mcu9t5v0__mux2_2
* cell instance $68 m0 *1 50.96,15.12
X$68 206 16 32 30 50 205 gf180mcu_fd_sc_mcu9t5v0__dffrnq_2
* cell instance $71 r0 *1 101.92,15.12
X$71 206 16 20 44 37 205 gf180mcu_fd_sc_mcu9t5v0__dffrnq_2
* cell instance $73 r0 *1 62.72,15.12
X$73 206 16 33 30 40 205 gf180mcu_fd_sc_mcu9t5v0__dffrnq_2
* cell instance $76 m0 *1 90.16,55.44
X$76 206 16 89 44 106 205 gf180mcu_fd_sc_mcu9t5v0__dffrnq_2
* cell instance $78 r0 *1 81.76,15.12
X$78 206 16 36 44 45 205 gf180mcu_fd_sc_mcu9t5v0__dffrnq_2
* cell instance $81 r0 *1 81.76,45.36
X$81 206 16 85 44 80 205 gf180mcu_fd_sc_mcu9t5v0__dffrnq_2
* cell instance $84 r0 *1 70,25.2
X$84 206 16 52 30 55 205 gf180mcu_fd_sc_mcu9t5v0__dffrnq_2
* cell instance $86 r0 *1 117.6,55.44
X$86 206 16 107 44 101 205 gf180mcu_fd_sc_mcu9t5v0__dffrnq_2
* cell instance $88 r0 *1 118.16,35.28
X$88 206 16 66 44 65 205 gf180mcu_fd_sc_mcu9t5v0__dffrnq_2
* cell instance $90 r0 *1 112,45.36
X$90 206 16 81 44 82 205 gf180mcu_fd_sc_mcu9t5v0__dffrnq_2
* cell instance $93 r0 *1 114.24,25.2
X$93 206 16 47 44 58 205 gf180mcu_fd_sc_mcu9t5v0__dffrnq_2
* cell instance $95 m0 *1 112.56,25.2
X$95 206 16 28 44 38 205 gf180mcu_fd_sc_mcu9t5v0__dffrnq_2
* cell instance $97 m0 *1 43.68,126
X$97 206 16 200 118 199 205 gf180mcu_fd_sc_mcu9t5v0__dffrnq_2
* cell instance $99 m0 *1 22.4,105.84
X$99 206 16 161 118 173 205 gf180mcu_fd_sc_mcu9t5v0__dffrnq_2
* cell instance $101 r0 *1 45.92,115.92
X$101 206 16 185 118 195 205 gf180mcu_fd_sc_mcu9t5v0__dffrnq_2
* cell instance $104 r0 *1 112,75.6
X$104 206 16 120 119 122 205 gf180mcu_fd_sc_mcu9t5v0__dffrnq_2
* cell instance $107 m0 *1 5.6,75.6
X$107 206 16 116 118 121 205 gf180mcu_fd_sc_mcu9t5v0__dffrnq_2
* cell instance $109 r0 *1 118.72,115.92
X$109 206 16 194 119 189 205 gf180mcu_fd_sc_mcu9t5v0__dffrnq_2
* cell instance $111 m0 *1 118.72,105.84
X$111 206 16 177 119 176 205 gf180mcu_fd_sc_mcu9t5v0__dffrnq_2
* cell instance $113 r0 *1 6.72,85.68
X$113 206 16 157 118 145 205 gf180mcu_fd_sc_mcu9t5v0__dffrnq_2
* cell instance $116 r0 *1 81.76,105.84
X$116 206 16 181 119 180 205 gf180mcu_fd_sc_mcu9t5v0__dffrnq_2
* cell instance $118 r0 *1 118.72,85.68
X$118 206 16 144 119 143 205 gf180mcu_fd_sc_mcu9t5v0__dffrnq_2
* cell instance $121 m0 *1 73.92,126
X$121 206 16 201 119 196 205 gf180mcu_fd_sc_mcu9t5v0__dffrnq_2
* cell instance $123 m0 *1 109.76,95.76
X$123 206 16 167 119 155 205 gf180mcu_fd_sc_mcu9t5v0__dffrnq_2
* cell instance $125 m0 *1 101.92,85.68
X$125 206 16 142 119 146 205 gf180mcu_fd_sc_mcu9t5v0__dffrnq_2
* cell instance $127 m0 *1 99.68,75.6
X$127 206 16 128 119 123 205 gf180mcu_fd_sc_mcu9t5v0__dffrnq_2
* cell instance $129 r0 *1 73.92,115.92
X$129 206 16 188 119 187 205 gf180mcu_fd_sc_mcu9t5v0__dffrnq_2
* cell instance $132 m0 *1 26.32,55.44
X$132 206 16 87 30 78 205 gf180mcu_fd_sc_mcu9t5v0__dffrnq_2
* cell instance $134 m0 *1 102.48,126
X$134 206 16 198 119 197 205 gf180mcu_fd_sc_mcu9t5v0__dffrnq_2
* cell instance $136 r0 *1 7.84,45.36
X$136 206 16 72 30 77 205 gf180mcu_fd_sc_mcu9t5v0__dffrnq_2
* cell instance $138 r0 *1 8.4,55.44
X$138 206 16 73 118 111 205 gf180mcu_fd_sc_mcu9t5v0__dffrnq_2
* cell instance $140 m0 *1 18.48,15.12
X$140 206 23 16 205 gf180mcu_fd_sc_mcu9t5v0__buf_12
* cell instance $143 r0 *1 51.52,35.28
X$143 206 16 71 30 64 205 gf180mcu_fd_sc_mcu9t5v0__dffrnq_4
* cell instance $179 m0 *1 98.56,15.12
X$179 206 205 29 36 18 17 gf180mcu_fd_sc_mcu9t5v0__mux2_2
* cell instance $181 m0 *1 124.32,15.12
X$181 206 205 39 28 18 22 gf180mcu_fd_sc_mcu9t5v0__mux2_2
* cell instance $183 r0 *1 123.76,15.12
X$183 206 205 46 47 18 48 gf180mcu_fd_sc_mcu9t5v0__mux2_2
* cell instance $186 m0 *1 90.16,25.2
X$186 206 205 53 52 18 35 gf180mcu_fd_sc_mcu9t5v0__mux2_2
* cell instance $189 m0 *1 81.2,15.12
X$189 206 205 34 33 18 26 gf180mcu_fd_sc_mcu9t5v0__mux2_2
* cell instance $192 m0 *1 68.32,35.28
X$192 205 71 63 18 206 gf180mcu_fd_sc_mcu9t5v0__and2_4
* cell instance $201 m0 *1 115.92,15.12
X$201 206 205 38 19 27 28 gf180mcu_fd_sc_mcu9t5v0__mux2_2
* cell instance $206 m0 *1 106.96,15.12
X$206 206 205 37 29 27 20 gf180mcu_fd_sc_mcu9t5v0__mux2_2
* cell instance $210 r0 *1 131.04,5.04
X$210 21 205 206 22 gf180mcu_fd_sc_mcu9t5v0__dlyb_2
* cell instance $217 r0 *1 22.96,15.12
X$217 206 31 30 49 23 205 gf180mcu_fd_sc_mcu9t5v0__dffsnq_2
* cell instance $225 r0 *1 52.64,15.12
X$225 206 43 42 205 24 51 gf180mcu_fd_sc_mcu9t5v0__nand3_2
* cell instance $228 m0 *1 70,15.12
X$228 206 205 40 25 27 33 gf180mcu_fd_sc_mcu9t5v0__mux2_2
* cell instance $238 r0 *1 89.04,25.2
X$238 206 205 45 53 27 36 gf180mcu_fd_sc_mcu9t5v0__mux2_2
* cell instance $241 m0 *1 79.52,25.2
X$241 206 205 55 34 27 52 gf180mcu_fd_sc_mcu9t5v0__mux2_2
* cell instance $243 m0 *1 114.24,35.28
X$243 206 205 58 39 27 47 gf180mcu_fd_sc_mcu9t5v0__mux2_2
* cell instance $248 m0 *1 122.64,35.28
X$248 206 205 65 46 27 66 gf180mcu_fd_sc_mcu9t5v0__mux2_2
* cell instance $251 m0 *1 53.76,25.2
X$251 205 43 206 27 50 54 gf180mcu_fd_sc_mcu9t5v0__oai21_2
* cell instance $253 m0 *1 51.52,35.28
X$253 205 61 63 27 206 gf180mcu_fd_sc_mcu9t5v0__and2_4
* cell instance $278 r0 *1 43.68,35.28
X$278 206 205 110 30 gf180mcu_fd_sc_mcu9t5v0__clkbuf_3
* cell instance $286 r0 *1 44.24,25.2
X$286 206 205 30 211 gf180mcu_fd_sc_mcu9t5v0__clkinv_3
* cell instance $297 r0 *1 43.68,15.12
X$297 206 205 31 41 gf180mcu_fd_sc_mcu9t5v0__clkinv_2
* cell instance $302 m0 *1 61.6,25.2
X$302 206 205 32 54 gf180mcu_fd_sc_mcu9t5v0__clkinv_2
* cell instance $336 m0 *1 39.2,25.2
X$336 206 42 205 51 49 41 71 gf180mcu_fd_sc_mcu9t5v0__aoi22_2
* cell instance $340 r0 *1 48.72,25.2
X$340 206 205 42 56 gf180mcu_fd_sc_mcu9t5v0__clkinv_2
* cell instance $343 m0 *1 43.12,35.28
X$343 206 205 61 62 71 42 gf180mcu_fd_sc_mcu9t5v0__mux2_2
* cell instance $351 m0 *1 96.32,65.52
X$351 206 205 110 44 gf180mcu_fd_sc_mcu9t5v0__clkbuf_3
* cell instance $362 r0 *1 101.92,55.44
X$362 206 205 44 gf180mcu_fd_sc_mcu9t5v0__clkbuf_4
* cell instance $384 m0 *1 131.04,45.36
X$384 59 205 206 48 gf180mcu_fd_sc_mcu9t5v0__dlyb_2
* cell instance $397 r0 *1 33.6,35.28
X$397 205 63 68 206 51 gf180mcu_fd_sc_mcu9t5v0__and2_2
* cell instance $401 r0 *1 39.76,45.36
X$401 206 51 205 78 76 83 gf180mcu_fd_sc_mcu9t5v0__aoi21_2
* cell instance $425 r0 *1 38.64,35.28
X$425 206 205 68 69 56 gf180mcu_fd_sc_mcu9t5v0__nand2_2
* cell instance $431 r0 *1 101.92,95.76
X$431 205 167 57 206 169 gf180mcu_fd_sc_mcu9t5v0__and2_2
* cell instance $433 m0 *1 103.6,95.76
X$433 206 205 142 162 57 gf180mcu_fd_sc_mcu9t5v0__nand2_2
* cell instance $436 r0 *1 104.72,75.6
X$436 206 205 128 135 57 gf180mcu_fd_sc_mcu9t5v0__nand2_2
* cell instance $438 m0 *1 38.08,45.36
X$438 206 73 71 205 57 gf180mcu_fd_sc_mcu9t5v0__or2_2
* cell instance $440 m0 *1 104.16,65.52
X$440 205 89 57 206 102 gf180mcu_fd_sc_mcu9t5v0__and2_2
* cell instance $442 r0 *1 95.76,55.44
X$442 205 85 57 206 103 gf180mcu_fd_sc_mcu9t5v0__and2_2
* cell instance $465 m0 *1 43.68,45.36
X$465 205 72 79 206 62 gf180mcu_fd_sc_mcu9t5v0__and2_2
* cell instance $467 r0 *1 62.16,55.44
X$467 205 63 206 88 105 68 gf180mcu_fd_sc_mcu9t5v0__oai21_2
* cell instance $474 r0 *1 41.44,55.44
X$474 206 205 73 63 gf180mcu_fd_sc_mcu9t5v0__inv_3
* cell instance $476 m0 *1 60.48,55.44
X$476 88 71 63 206 205 98 gf180mcu_fd_sc_mcu9t5v0__and3_4
* cell instance $478 r0 *1 57.68,45.36
X$478 206 70 88 71 63 86 205 gf180mcu_fd_sc_mcu9t5v0__nand4_4
* cell instance $480 m0 *1 48.72,45.36
X$480 63 205 75 69 206 64 gf180mcu_fd_sc_mcu9t5v0__and3_2
* cell instance $493 m0 *1 131.04,35.28
X$493 66 205 206 67 gf180mcu_fd_sc_mcu9t5v0__dlyb_2
* cell instance $501 r0 *1 45.92,55.44
X$501 68 206 72 91 205 75 gf180mcu_fd_sc_mcu9t5v0__or3_2
* cell instance $504 r0 *1 53.2,55.44
X$504 205 206 68 99 73 gf180mcu_fd_sc_mcu9t5v0__nand2_4
* cell instance $507 m0 *1 62.72,45.36
X$507 206 205 71 68 gf180mcu_fd_sc_mcu9t5v0__clkinv_3
* cell instance $526 r0 *1 31.92,45.36
X$526 205 71 74 206 77 gf180mcu_fd_sc_mcu9t5v0__and2_2
* cell instance $541 m0 *1 2.24,55.44
X$541 72 205 206 90 gf180mcu_fd_sc_mcu9t5v0__dlyb_2
* cell instance $544 m0 *1 54.88,55.44
X$544 206 205 88 72 87 gf180mcu_fd_sc_mcu9t5v0__nor2_2
* cell instance $547 m0 *1 24.08,45.36
X$547 205 73 72 206 74 gf180mcu_fd_sc_mcu9t5v0__xnor2_2
* cell instance $550 r0 *1 47.04,45.36
X$550 73 206 72 84 205 76 gf180mcu_fd_sc_mcu9t5v0__or3_2
* cell instance $591 m0 *1 45.36,55.44
X$591 79 206 205 83 91 207 gf180mcu_fd_sc_mcu9t5v0__addh_1
* cell instance $595 m0 *1 80.08,55.44
X$595 205 92 206 80 93 86 97 gf180mcu_fd_sc_mcu9t5v0__oai31_2
* cell instance $597 m0 *1 131.04,55.44
X$597 81 205 206 96 gf180mcu_fd_sc_mcu9t5v0__dlyb_2
* cell instance $601 m0 *1 117.6,55.44
X$601 206 205 82 81 99 85 gf180mcu_fd_sc_mcu9t5v0__mux2_2
* cell instance $609 r0 *1 39.76,75.6
X$609 206 210 138 83 91 205 gf180mcu_fd_sc_mcu9t5v0__addh_2
* cell instance $611 m0 *1 45.36,65.52
X$611 206 205 87 83 gf180mcu_fd_sc_mcu9t5v0__clkinv_3
* cell instance $614 r0 *1 45.36,95.76
X$614 206 205 83 141 163 gf180mcu_fd_sc_mcu9t5v0__nand2_2
* cell instance $616 r0 *1 45.36,85.68
X$616 158 206 205 83 156 159 gf180mcu_fd_sc_mcu9t5v0__addh_1
* cell instance $618 m0 *1 44.8,85.68
X$618 206 148 139 83 137 205 gf180mcu_fd_sc_mcu9t5v0__addh_2
* cell instance $623 r0 *1 66.08,75.6
X$623 206 205 139 84 gf180mcu_fd_sc_mcu9t5v0__clkinv_2
* cell instance $626 r0 *1 80.08,75.6
X$626 206 205 84 108 126 gf180mcu_fd_sc_mcu9t5v0__nand2_2
* cell instance $629 r0 *1 73.36,75.6
X$629 206 205 84 97 131 gf180mcu_fd_sc_mcu9t5v0__nand2_2
* cell instance $644 m0 *1 72.8,95.76
X$644 161 132 166 86 205 206 136 gf180mcu_fd_sc_mcu9t5v0__or4_2
* cell instance $647 r0 *1 73.36,95.76
X$647 171 166 86 140 205 206 184 gf180mcu_fd_sc_mcu9t5v0__or4_2
* cell instance $651 m0 *1 86.24,65.52
X$651 205 94 206 106 108 86 93 gf180mcu_fd_sc_mcu9t5v0__oai31_2
* cell instance $654 m0 *1 54.88,105.84
X$654 165 164 174 86 205 206 186 gf180mcu_fd_sc_mcu9t5v0__or4_2
* cell instance $663 r0 *1 30.8,65.52
X$663 87 206 115 109 205 91 gf180mcu_fd_sc_mcu9t5v0__or3_2
* cell instance $667 r0 *1 39.2,85.68
X$667 206 87 137 205 156 gf180mcu_fd_sc_mcu9t5v0__or2_2
* cell instance $671 r0 *1 47.04,65.52
X$671 117 206 205 87 113 209 gf180mcu_fd_sc_mcu9t5v0__addh_1
* cell instance $675 m0 *1 46.48,75.6
X$675 125 206 205 87 91 208 gf180mcu_fd_sc_mcu9t5v0__addh_1
* cell instance $690 m0 *1 120.4,65.52
X$690 206 205 101 107 99 89 gf180mcu_fd_sc_mcu9t5v0__mux2_2
* cell instance $701 m0 *1 49.84,65.52
X$701 206 205 91 113 gf180mcu_fd_sc_mcu9t5v0__clkinv_2
* cell instance $709 r0 *1 75.6,55.44
X$709 205 103 206 92 93 100 97 gf180mcu_fd_sc_mcu9t5v0__oai31_2
* cell instance $712 r0 *1 59.36,85.68
X$712 206 149 150 151 152 93 205 gf180mcu_fd_sc_mcu9t5v0__nand4_4
* cell instance $716 r0 *1 85.68,55.44
X$716 205 102 206 94 108 100 93 gf180mcu_fd_sc_mcu9t5v0__oai31_2
* cell instance $724 m0 *1 131.04,65.52
X$724 107 205 206 95 gf180mcu_fd_sc_mcu9t5v0__dlyb_2
* cell instance $731 m0 *1 79.52,85.68
X$731 206 147 97 205 141 127 100 gf180mcu_fd_sc_mcu9t5v0__nor4_2
* cell instance $735 m0 *1 89.6,85.68
X$735 205 206 136 127 97 162 146 147 gf180mcu_fd_sc_mcu9t5v0__oai32_2
* cell instance $742 r0 *1 53.2,105.84
X$742 206 205 185 178 98 gf180mcu_fd_sc_mcu9t5v0__nand2_2
* cell instance $744 r0 *1 19.6,75.6
X$744 206 114 115 205 104 98 gf180mcu_fd_sc_mcu9t5v0__nand3_2
* cell instance $746 r0 *1 24.08,95.76
X$746 206 205 173 98 163 100 gf180mcu_fd_sc_mcu9t5v0__mux2_2
* cell instance $748 r0 *1 87.36,95.76
X$748 205 140 175 141 181 98 206 gf180mcu_fd_sc_mcu9t5v0__oai211_2
* cell instance $751 m0 *1 75.6,115.92
X$751 206 205 188 192 98 gf180mcu_fd_sc_mcu9t5v0__nand2_2
* cell instance $753 m0 *1 16.8,65.52
X$753 116 205 104 98 206 111 gf180mcu_fd_sc_mcu9t5v0__and3_2
* cell instance $755 r0 *1 22.96,65.52
X$755 206 100 205 112 98 109 gf180mcu_fd_sc_mcu9t5v0__aoi21_2
* cell instance $759 m0 *1 19.04,95.76
X$759 206 133 205 98 160 100 157 gf180mcu_fd_sc_mcu9t5v0__aoi22_2
* cell instance $773 m0 *1 118.72,75.6
X$773 206 205 122 120 99 128 gf180mcu_fd_sc_mcu9t5v0__mux2_2
* cell instance $775 r0 *1 52.08,126
X$775 206 205 199 200 99 185 gf180mcu_fd_sc_mcu9t5v0__mux2_2
* cell instance $777 r0 *1 75.04,126
X$777 206 205 196 201 99 188 gf180mcu_fd_sc_mcu9t5v0__mux2_2
* cell instance $780 r0 *1 123.76,95.76
X$780 206 205 176 177 99 167 gf180mcu_fd_sc_mcu9t5v0__mux2_2
* cell instance $782 r0 *1 106.96,115.92
X$782 206 205 197 198 99 181 gf180mcu_fd_sc_mcu9t5v0__mux2_2
* cell instance $786 m0 *1 120.96,115.92
X$786 206 205 99 189 gf180mcu_fd_sc_mcu9t5v0__clkinv_2
* cell instance $788 m0 *1 122.64,85.68
X$788 206 205 143 144 99 142 gf180mcu_fd_sc_mcu9t5v0__mux2_2
* cell instance $803 m0 *1 89.04,95.76
X$803 205 169 206 153 141 100 154 gf180mcu_fd_sc_mcu9t5v0__oai31_2
* cell instance $805 m0 *1 95.2,105.84
X$805 206 205 181 182 100 gf180mcu_fd_sc_mcu9t5v0__nand2_2
* cell instance $809 m0 *1 78.4,65.52
X$809 206 205 105 100 gf180mcu_fd_sc_mcu9t5v0__buf_4
* cell instance $812 m0 *1 60.48,115.92
X$812 206 205 185 191 100 gf180mcu_fd_sc_mcu9t5v0__nand2_2
* cell instance $815 m0 *1 85.12,115.92
X$815 206 205 188 179 100 gf180mcu_fd_sc_mcu9t5v0__nand2_2
* cell instance $838 r0 *1 25.76,85.68
X$838 206 104 133 161 157 205 gf180mcu_fd_sc_mcu9t5v0__addh_2
* cell instance $840 r0 *1 29.12,75.6
X$840 205 116 104 206 131 gf180mcu_fd_sc_mcu9t5v0__xnor2_2
* cell instance $845 m0 *1 28.56,65.52
X$845 206 205 104 109 gf180mcu_fd_sc_mcu9t5v0__clkinv_2
* cell instance $850 m0 *1 29.68,85.68
X$850 116 206 104 205 126 gf180mcu_fd_sc_mcu9t5v0__xor2_2
* cell instance $859 m0 *1 84.56,75.6
X$859 206 130 108 205 141 127 105 gf180mcu_fd_sc_mcu9t5v0__nor4_2
* cell instance $877 r0 *1 88.48,75.6
X$877 205 206 108 127 136 130 123 135 gf180mcu_fd_sc_mcu9t5v0__oai32_2
* cell instance $887 r0 *1 101.92,85.68
X$887 206 205 110 119 gf180mcu_fd_sc_mcu9t5v0__clkbuf_3
* cell instance $891 m0 *1 35.28,75.6
X$891 206 205 110 118 gf180mcu_fd_sc_mcu9t5v0__clkbuf_3
* cell instance $894 m0 *1 63.28,75.6
X$894 206 205 124 110 gf180mcu_fd_sc_mcu9t5v0__clkbuf_3
* cell instance $905 r0 *1 15.12,65.52
X$905 205 114 206 112 121 115 gf180mcu_fd_sc_mcu9t5v0__oai21_2
* cell instance $919 m0 *1 28,75.6
X$919 206 205 116 115 gf180mcu_fd_sc_mcu9t5v0__clkinv_2
* cell instance $928 m0 *1 28,95.76
X$928 206 137 116 205 157 161 gf180mcu_fd_sc_mcu9t5v0__nand3_2
* cell instance $939 r0 *1 60.48,75.6
X$939 206 205 152 117 125 gf180mcu_fd_sc_mcu9t5v0__nor2_2
* cell instance $941 r0 *1 52.64,75.6
X$941 206 117 125 205 132 gf180mcu_fd_sc_mcu9t5v0__or2_2
* cell instance $947 m0 *1 39.2,85.68
X$947 206 205 118 gf180mcu_fd_sc_mcu9t5v0__inv_4
* cell instance $988 r0 *1 131.04,75.6
X$988 120 205 206 129 gf180mcu_fd_sc_mcu9t5v0__dlyb_2
* cell instance $1016 r0 *1 76.72,85.68
X$1016 133 206 139 126 205 154 gf180mcu_fd_sc_mcu9t5v0__or3_2
* cell instance $1021 m0 *1 45.92,95.76
X$1021 163 206 126 132 205 164 gf180mcu_fd_sc_mcu9t5v0__or3_2
* cell instance $1028 m0 *1 56.56,85.68
X$1028 206 165 138 205 127 139 gf180mcu_fd_sc_mcu9t5v0__nand3_2
* cell instance $1033 m0 *1 63.84,85.68
X$1033 206 205 133 127 gf180mcu_fd_sc_mcu9t5v0__clkinv_3
* cell instance $1049 m0 *1 69.44,85.68
X$1049 133 206 139 131 205 140 gf180mcu_fd_sc_mcu9t5v0__or3_2
* cell instance $1068 m0 *1 61.6,95.76
X$1068 205 161 133 206 150 gf180mcu_fd_sc_mcu9t5v0__and2_2
* cell instance $1078 m0 *1 131.04,85.68
X$1078 144 205 206 134 gf180mcu_fd_sc_mcu9t5v0__dlyb_2
* cell instance $1085 r0 *1 92.96,85.68
X$1085 205 153 206 154 155 136 gf180mcu_fd_sc_mcu9t5v0__oai21_2
* cell instance $1089 m0 *1 85.68,105.84
X$1089 205 140 180 136 175 182 206 gf180mcu_fd_sc_mcu9t5v0__oai211_2
* cell instance $1103 r0 *1 56.56,95.76
X$1103 206 205 149 138 159 gf180mcu_fd_sc_mcu9t5v0__nor2_2
* cell instance $1109 r0 *1 50.96,95.76
X$1109 205 138 159 206 170 gf180mcu_fd_sc_mcu9t5v0__and2_2
* cell instance $1123 m0 *1 70,105.84
X$1123 183 205 206 166 171 140 gf180mcu_fd_sc_mcu9t5v0__nor3_2
* cell instance $1159 m0 *1 15.12,85.68
X$1159 206 205 160 145 gf180mcu_fd_sc_mcu9t5v0__clkinv_2
* cell instance $1172 m0 *1 40.32,95.76
X$1172 206 205 168 158 148 gf180mcu_fd_sc_mcu9t5v0__nor2_2
* cell instance $1175 m0 *1 35.28,95.76
X$1175 205 158 148 206 151 gf180mcu_fd_sc_mcu9t5v0__and2_2
* cell instance $1178 m0 *1 66.64,95.76
X$1178 206 205 151 166 149 gf180mcu_fd_sc_mcu9t5v0__nand2_2
* cell instance $1181 m0 *1 52.64,95.76
X$1181 206 170 205 168 174 149 151 gf180mcu_fd_sc_mcu9t5v0__aoi22_2
* cell instance $1196 r0 *1 68.32,95.76
X$1196 206 205 161 171 152 gf180mcu_fd_sc_mcu9t5v0__nand2_2
* cell instance $1245 r0 *1 35.28,95.76
X$1245 206 205 161 163 gf180mcu_fd_sc_mcu9t5v0__clkinv_2
* cell instance $1270 m0 *1 47.04,105.84
X$1270 190 205 206 164 165 174 gf180mcu_fd_sc_mcu9t5v0__nor3_2
* cell instance $1302 r0 *1 131.04,105.84
X$1302 177 205 206 172 gf180mcu_fd_sc_mcu9t5v0__dlyb_2
* cell instance $1322 m0 *1 50.96,115.92
X$1322 205 178 195 190 186 191 206 gf180mcu_fd_sc_mcu9t5v0__oai211_2
* cell instance $1325 r0 *1 72.24,105.84
X$1325 205 183 187 192 184 179 206 gf180mcu_fd_sc_mcu9t5v0__oai211_2
* cell instance $1382 m0 *1 131.04,115.92
X$1382 194 205 206 193 gf180mcu_fd_sc_mcu9t5v0__dlyb_2
* cell instance $1397 m0 *1 110.32,136.08
X$1397 198 205 206 204 gf180mcu_fd_sc_mcu9t5v0__dlyb_2
* cell instance $1410 m0 *1 56.56,136.08
X$1410 200 205 206 202 gf180mcu_fd_sc_mcu9t5v0__dlyb_2
* cell instance $1417 m0 *1 82.88,136.08
X$1417 201 205 206 203 gf180mcu_fd_sc_mcu9t5v0__dlyb_2
.ENDS final_spi_master

* cell gf180mcu_fd_sc_mcu9t5v0__buf_4
* pin PWELL,VSS,gf180mcu_gnd
* pin NWELL,VDD
* pin I
* pin Z
.SUBCKT gf180mcu_fd_sc_mcu9t5v0__buf_4 1 2 3 5
* net 1 PWELL,VSS,gf180mcu_gnd
* net 2 NWELL,VDD
* net 3 I
* net 5 Z
* device instance $1 r0 *1 0.87,3.78 pmos_5p0
M$1 4 3 2 2 pmos_5p0 L=0.5U W=3.66U AS=1.3725P AD=1.1346P PS=6.99U PD=4.9U
* device instance $3 r0 *1 3.11,3.78 pmos_5p0
M$3 5 4 2 2 pmos_5p0 L=0.5U W=7.32U AS=2.2692P AD=2.5071P PS=9.8U PD=11.89U
* device instance $7 r0 *1 0.92,1.005 nmos_5p0
M$7 4 3 1 1 nmos_5p0 L=0.6U W=2.64U AS=0.924P AD=0.6864P PS=5.36U PD=3.68U
* device instance $9 r0 *1 3.16,1.005 nmos_5p0
M$9 5 4 1 1 nmos_5p0 L=0.6U W=5.28U AS=1.3728P AD=1.6104P PS=7.36U PD=9.04U
.ENDS gf180mcu_fd_sc_mcu9t5v0__buf_4

* cell gf180mcu_fd_sc_mcu9t5v0__clkbuf_4
* pin PWELL,VSS,gf180mcu_gnd
* pin NWELL,VDD
* pin I
.SUBCKT gf180mcu_fd_sc_mcu9t5v0__clkbuf_4 1 2 3
* net 1 PWELL,VSS,gf180mcu_gnd
* net 2 NWELL,VDD
* net 3 I
* net 5 Z
* device instance $1 r0 *1 0.87,3.78 pmos_5p0
M$1 4 3 2 2 pmos_5p0 L=0.5U W=3.66U AS=1.3725P AD=1.2993P PS=6.99U PD=5.08U
* device instance $3 r0 *1 3.29,3.78 pmos_5p0
M$3 5 4 2 2 pmos_5p0 L=0.5U W=7.32U AS=2.4339P AD=2.5071P PS=9.98U PD=11.89U
* device instance $7 r0 *1 0.92,1.23 nmos_5p0
M$7 4 3 1 1 nmos_5p0 L=0.6U W=1.46U AS=0.511P AD=0.4593P PS=3.59U PD=2.75U
* device instance $9 r0 *1 3.34,1.265 nmos_5p0
M$9 5 4 1 1 nmos_5p0 L=0.6U W=3.2U AS=0.8935P AD=0.976P PS=5.46U PD=6.44U
.ENDS gf180mcu_fd_sc_mcu9t5v0__clkbuf_4

* cell gf180mcu_fd_sc_mcu9t5v0__clkbuf_2
* pin I
* pin NWELL,VDD
* pin PWELL,VSS,gf180mcu_gnd
* pin Z
.SUBCKT gf180mcu_fd_sc_mcu9t5v0__clkbuf_2 1 2 3 5
* net 1 I
* net 2 NWELL,VDD
* net 3 PWELL,VSS,gf180mcu_gnd
* net 5 Z
* device instance $1 r0 *1 0.87,3.78 pmos_5p0
M$1 2 1 4 2 pmos_5p0 L=0.5U W=1.83U AS=0.8052P AD=0.732P PS=4.54U PD=2.63U
* device instance $2 r0 *1 2.17,3.78 pmos_5p0
M$2 5 4 2 2 pmos_5p0 L=0.5U W=3.66U AS=1.2993P AD=1.3725P PS=5.08U PD=6.99U
* device instance $4 r0 *1 0.92,1.23 nmos_5p0
M$4 3 1 4 3 nmos_5p0 L=0.6U W=0.73U AS=0.3212P AD=0.2695P PS=2.34U PD=1.5U
* device instance $5 r0 *1 2.22,1.265 nmos_5p0
M$5 5 4 3 3 nmos_5p0 L=0.6U W=1.6U AS=0.4775P AD=0.56P PS=2.82U PD=3.8U
.ENDS gf180mcu_fd_sc_mcu9t5v0__clkbuf_2

* cell gf180mcu_fd_sc_mcu9t5v0__buf_2
* pin I
* pin NWELL,VDD
* pin PWELL,VSS,gf180mcu_gnd
* pin Z
.SUBCKT gf180mcu_fd_sc_mcu9t5v0__buf_2 1 2 3 5
* net 1 I
* net 2 NWELL,VDD
* net 3 PWELL,VSS,gf180mcu_gnd
* net 5 Z
* device instance $1 r0 *1 0.87,3.78 pmos_5p0
M$1 2 1 4 2 pmos_5p0 L=0.5U W=1.83U AS=0.8052P AD=0.5673P PS=4.54U PD=2.45U
* device instance $2 r0 *1 1.99,3.78 pmos_5p0
M$2 5 4 2 2 pmos_5p0 L=0.5U W=3.66U AS=1.1346P AD=1.3725P PS=4.9U PD=6.99U
* device instance $4 r0 *1 0.92,1.005 nmos_5p0
M$4 3 1 4 3 nmos_5p0 L=0.6U W=1.32U AS=0.5808P AD=0.3432P PS=3.52U PD=1.84U
* device instance $5 r0 *1 2.04,1.005 nmos_5p0
M$5 5 4 3 3 nmos_5p0 L=0.6U W=2.64U AS=0.6864P AD=0.924P PS=3.68U PD=5.36U
.ENDS gf180mcu_fd_sc_mcu9t5v0__buf_2

* cell gf180mcu_fd_sc_mcu9t5v0__nand2_4
* pin NWELL,VDD
* pin PWELL,VSS,gf180mcu_gnd
* pin A2
* pin ZN
* pin A1
.SUBCKT gf180mcu_fd_sc_mcu9t5v0__nand2_4 1 2 3 4 5
* net 1 NWELL,VDD
* net 2 PWELL,VSS,gf180mcu_gnd
* net 3 A2
* net 4 ZN
* net 5 A1
* device instance $1 r0 *1 0.87,3.687 pmos_5p0
M$1 4 3 1 1 pmos_5p0 L=0.5U W=6.58U AS=2.0069P AD=2.0069P PS=10.665U PD=10.665U
* device instance $2 r0 *1 1.89,3.687 pmos_5p0
M$2 1 5 4 1 pmos_5p0 L=0.5U W=6.58U AS=1.7108P AD=1.7108P PS=8.66U PD=8.66U
* device instance $9 r0 *1 1,1.005 nmos_5p0
M$9 9 3 2 2 nmos_5p0 L=0.6U W=1.32U AS=0.5808P AD=0.1584P PS=3.52U PD=1.56U
* device instance $10 r0 *1 1.84,1.005 nmos_5p0
M$10 4 5 9 2 nmos_5p0 L=0.6U W=1.32U AS=0.1584P AD=0.3729P PS=1.56U PD=1.885U
* device instance $11 r0 *1 3.005,1.005 nmos_5p0
M$11 8 5 4 2 nmos_5p0 L=0.6U W=1.32U AS=0.3729P AD=0.1584P PS=1.885U PD=1.56U
* device instance $12 r0 *1 3.845,1.005 nmos_5p0
M$12 2 3 8 2 nmos_5p0 L=0.6U W=1.32U AS=0.1584P AD=0.3663P PS=1.56U PD=1.875U
* device instance $13 r0 *1 5,1.005 nmos_5p0
M$13 7 3 2 2 nmos_5p0 L=0.6U W=1.32U AS=0.3663P AD=0.2112P PS=1.875U PD=1.64U
* device instance $14 r0 *1 5.92,1.005 nmos_5p0
M$14 4 5 7 2 nmos_5p0 L=0.6U W=1.32U AS=0.2112P AD=0.3432P PS=1.64U PD=1.84U
* device instance $15 r0 *1 7.04,1.005 nmos_5p0
M$15 6 5 4 2 nmos_5p0 L=0.6U W=1.32U AS=0.3432P AD=0.2112P PS=1.84U PD=1.64U
* device instance $16 r0 *1 7.96,1.005 nmos_5p0
M$16 2 3 6 2 nmos_5p0 L=0.6U W=1.32U AS=0.2112P AD=0.5808P PS=1.64U PD=3.52U
.ENDS gf180mcu_fd_sc_mcu9t5v0__nand2_4

* cell gf180mcu_fd_sc_mcu9t5v0__and3_2
* pin A1
* pin NWELL,VDD
* pin A2
* pin A3
* pin PWELL,VSS,gf180mcu_gnd
* pin Z
.SUBCKT gf180mcu_fd_sc_mcu9t5v0__and3_2 2 3 4 5 6 7
* net 2 A1
* net 3 NWELL,VDD
* net 4 A2
* net 5 A3
* net 6 PWELL,VSS,gf180mcu_gnd
* net 7 Z
* device instance $1 r0 *1 0.925,3.965 pmos_5p0
M$1 3 2 1 3 pmos_5p0 L=0.5U W=1.46U AS=0.6424P AD=0.3796P PS=3.8U PD=1.98U
* device instance $2 r0 *1 1.945,3.965 pmos_5p0
M$2 1 4 3 3 pmos_5p0 L=0.5U W=1.46U AS=0.3796P AD=0.3796P PS=1.98U PD=1.98U
* device instance $3 r0 *1 2.965,3.965 pmos_5p0
M$3 1 5 3 3 pmos_5p0 L=0.5U W=1.46U AS=0.585P AD=0.3796P PS=2.53U PD=1.98U
* device instance $4 r0 *1 4.165,3.78 pmos_5p0
M$4 7 1 3 3 pmos_5p0 L=0.5U W=3.66U AS=1.0608P AD=1.281P PS=4.88U PD=6.89U
* device instance $6 r0 *1 0.975,1.005 nmos_5p0
M$6 9 2 1 6 nmos_5p0 L=0.6U W=1.32U AS=0.5808P AD=0.2112P PS=3.52U PD=1.64U
* device instance $7 r0 *1 1.895,1.005 nmos_5p0
M$7 8 4 9 6 nmos_5p0 L=0.6U W=1.32U AS=0.2112P AD=0.2772P PS=1.64U PD=1.74U
* device instance $8 r0 *1 2.915,1.005 nmos_5p0
M$8 6 5 8 6 nmos_5p0 L=0.6U W=1.32U AS=0.2772P AD=0.3432P PS=1.74U PD=1.84U
* device instance $9 r0 *1 4.035,1.005 nmos_5p0
M$9 7 1 6 6 nmos_5p0 L=0.6U W=2.64U AS=0.6864P AD=0.924P PS=3.68U PD=5.36U
.ENDS gf180mcu_fd_sc_mcu9t5v0__and3_2

* cell gf180mcu_fd_sc_mcu9t5v0__inv_3
* pin PWELL,VSS,gf180mcu_gnd
* pin NWELL,VDD
* pin I
* pin ZN
.SUBCKT gf180mcu_fd_sc_mcu9t5v0__inv_3 1 2 3 4
* net 1 PWELL,VSS,gf180mcu_gnd
* net 2 NWELL,VDD
* net 3 I
* net 4 ZN
* device instance $1 r0 *1 0.87,3.78 pmos_5p0
M$1 4 3 2 2 pmos_5p0 L=0.5U W=5.49U AS=1.9398P AD=1.9398P PS=9.44U PD=9.44U
* device instance $4 r0 *1 0.92,1.005 nmos_5p0
M$4 4 3 1 1 nmos_5p0 L=0.6U W=3.96U AS=1.2672P AD=1.2672P PS=7.2U PD=7.2U
.ENDS gf180mcu_fd_sc_mcu9t5v0__inv_3

* cell gf180mcu_fd_sc_mcu9t5v0__dffsnq_2
* pin PWELL,VSS,gf180mcu_gnd
* pin Q
* pin CLK
* pin D
* pin SETN
* pin NWELL,VDD
.SUBCKT gf180mcu_fd_sc_mcu9t5v0__dffsnq_2 1 5 7 8 13 17
* net 1 PWELL,VSS,gf180mcu_gnd
* net 5 Q
* net 7 CLK
* net 8 D
* net 13 SETN
* net 17 NWELL,VDD
* device instance $1 r0 *1 18.73,3.78 pmos_5p0
M$1 5 4 17 17 pmos_5p0 L=0.5U W=3.66U AS=1.281P AD=1.281P PS=6.89U PD=6.89U
* device instance $3 r0 *1 14.48,3.365 pmos_5p0
M$3 12 13 17 17 pmos_5p0 L=0.5U W=1U AS=0.44P AD=0.26P PS=2.88U PD=1.52U
* device instance $4 r0 *1 15.5,3.365 pmos_5p0
M$4 17 4 12 17 pmos_5p0 L=0.5U W=1U AS=0.26P AD=0.536P PS=1.52U PD=2.57U
* device instance $5 r0 *1 16.74,3.78 pmos_5p0
M$5 4 3 17 17 pmos_5p0 L=0.5U W=1.83U AS=0.536P AD=0.8052P PS=2.57U PD=4.54U
* device instance $6 r0 *1 0.97,3.555 pmos_5p0
M$6 17 7 6 17 pmos_5p0 L=0.5U W=1.38U AS=0.6072P AD=0.3588P PS=3.64U PD=1.9U
* device instance $7 r0 *1 1.99,3.555 pmos_5p0
M$7 2 6 17 17 pmos_5p0 L=0.5U W=1.38U AS=0.3588P AD=0.6072P PS=1.9U PD=3.64U
* device instance $8 r0 *1 11.4,3.365 pmos_5p0
M$8 3 6 11 17 pmos_5p0 L=0.5U W=1U AS=0.44P AD=0.42P PS=2.88U PD=1.84U
* device instance $9 r0 *1 12.74,3.365 pmos_5p0
M$9 12 2 3 17 pmos_5p0 L=0.5U W=1U AS=0.42P AD=0.44P PS=1.84U PD=2.88U
* device instance $10 r0 *1 3.93,3.465 pmos_5p0
M$10 9 8 17 17 pmos_5p0 L=0.5U W=1U AS=0.44P AD=0.3825P PS=2.88U PD=1.765U
* device instance $11 r0 *1 5.195,3.465 pmos_5p0
M$11 10 2 9 17 pmos_5p0 L=0.5U W=1U AS=0.3825P AD=0.26P PS=1.765U PD=1.52U
* device instance $12 r0 *1 6.215,3.465 pmos_5p0
M$12 18 6 10 17 pmos_5p0 L=0.5U W=1U AS=0.26P AD=0.1825P PS=1.52U PD=1.365U
* device instance $13 r0 *1 7.08,3.465 pmos_5p0
M$13 17 11 18 17 pmos_5p0 L=0.5U W=1U AS=0.1825P AD=0.3P PS=1.365U PD=1.6U
* device instance $14 r0 *1 8.18,3.465 pmos_5p0
M$14 11 10 17 17 pmos_5p0 L=0.5U W=1U AS=0.3P AD=0.29P PS=1.6U PD=1.58U
* device instance $15 r0 *1 9.26,3.465 pmos_5p0
M$15 17 13 11 17 pmos_5p0 L=0.5U W=1U AS=0.29P AD=0.7374P PS=1.58U PD=3.75U
* device instance $16 r0 *1 18.68,1.005 nmos_5p0
M$16 5 4 1 1 nmos_5p0 L=0.6U W=2.64U AS=0.924P AD=0.924P PS=5.36U PD=5.36U
* device instance $18 r0 *1 3.88,1.265 nmos_5p0
M$18 9 8 1 1 nmos_5p0 L=0.6U W=0.59U AS=0.2596P AD=0.1534P PS=2.06U PD=1.11U
* device instance $19 r0 *1 5,1.265 nmos_5p0
M$19 10 6 9 1 nmos_5p0 L=0.6U W=0.59U AS=0.1534P AD=0.1711P PS=1.11U PD=1.17U
* device instance $20 r0 *1 6.18,1.265 nmos_5p0
M$20 14 2 10 1 nmos_5p0 L=0.6U W=0.59U AS=0.1711P AD=0.07375P PS=1.17U PD=0.84U
* device instance $21 r0 *1 7.03,1.265 nmos_5p0
M$21 1 11 14 1 nmos_5p0 L=0.6U W=0.59U AS=0.07375P AD=0.22355P PS=0.84U
+ PD=1.435U
* device instance $22 r0 *1 8.37,1.37 nmos_5p0
M$22 15 10 1 1 nmos_5p0 L=0.6U W=0.59U AS=0.22355P AD=0.0708P PS=1.435U PD=0.83U
* device instance $23 r0 *1 9.21,1.37 nmos_5p0
M$23 11 13 15 1 nmos_5p0 L=0.6U W=0.59U AS=0.0708P AD=0.1534P PS=0.83U PD=1.11U
* device instance $24 r0 *1 10.33,1.37 nmos_5p0
M$24 3 2 11 1 nmos_5p0 L=0.6U W=0.59U AS=0.1534P AD=0.1534P PS=1.11U PD=1.11U
* device instance $25 r0 *1 11.45,1.37 nmos_5p0
M$25 12 6 3 1 nmos_5p0 L=0.6U W=0.59U AS=0.1534P AD=0.2596P PS=1.11U PD=2.06U
* device instance $26 r0 *1 0.92,1.27 nmos_5p0
M$26 1 7 6 1 nmos_5p0 L=0.6U W=0.79U AS=0.3476P AD=0.2054P PS=2.46U PD=1.31U
* device instance $27 r0 *1 2.04,1.27 nmos_5p0
M$27 2 6 1 1 nmos_5p0 L=0.6U W=0.79U AS=0.2054P AD=0.3476P PS=1.31U PD=2.46U
* device instance $28 r0 *1 14.61,1.37 nmos_5p0
M$28 16 13 12 1 nmos_5p0 L=0.6U W=0.59U AS=0.2596P AD=0.0708P PS=2.06U PD=0.83U
* device instance $29 r0 *1 15.45,1.37 nmos_5p0
M$29 16 4 1 1 nmos_5p0 L=0.6U W=0.59U AS=0.3789P AD=0.0708P PS=2.06U PD=0.83U
* device instance $30 r0 *1 16.79,1.005 nmos_5p0
M$30 4 3 1 1 nmos_5p0 L=0.6U W=1.32U AS=0.3789P AD=0.5808P PS=2.06U PD=3.52U
.ENDS gf180mcu_fd_sc_mcu9t5v0__dffsnq_2

* cell gf180mcu_fd_sc_mcu9t5v0__dlyc_2
* pin PWELL,VSS,gf180mcu_gnd
* pin Z
* pin I
* pin NWELL,VDD