* CDL Netlist generated by OpenROAD

*.BUSDELIMITER [

.SUBCKT configurable_mult a[0] a[1] a[2] a[3] a[4] a[5] a[6]
+ a[7] b[0] b[1] b[2] b[3] b[4] b[5] b[6] b[7] product[0] product[10]
+ product[11] product[12] product[13] product[14] product[15]
+ product[1] product[2] product[3] product[4] product[5] product[6]
+ product[7] product[8] product[9] sign_mode
X_538_ b[0] _000_ VDD VSS BUF_X8
X_539_ a[1] _001_ VDD VSS BUF_X8
X_540_ net5 _001_ _415_ VDD VSS AND2_X1
X_541_ a[0] _002_ VDD VSS BUF_X16
X_542_ b[1] _003_ VDD VSS BUF_X16
X_543_ _002_ _003_ _414_ VDD VSS AND2_X1
X_544_ b[2] _004_ VDD VSS BUF_X8
X_545_ _002_ _004_ _139_ VDD VSS NAND2_X1
X_546_ a[3] _005_ VDD VSS BUF_X16
X_547_ net5 _005_ _144_ VDD VSS NAND2_X1
X_548_ a[2] _006_ VDD VSS BUF_X16
X_549_ _003_ _006_ _145_ VDD VSS NAND2_X1
X_550_ _001_ _004_ _146_ VDD VSS NAND2_X1
X_551_ b[3] _007_ VDD VSS BUF_X8
X_552_ _002_ _007_ _149_ VDD VSS NAND2_X1
X_553_ a[4] _008_ VDD VSS BUF_X8
X_554_ _000_ _008_ _153_ VDD VSS NAND2_X1
X_555_ _003_ _005_ _152_ VDD VSS NAND2_X1
X_556_ _006_ _004_ _154_ VDD VSS NAND2_X1
X_557_ _001_ _007_ _424_ VDD VSS AND2_X1
X_558_ b[4] _009_ VDD VSS BUF_X8
X_559_ _002_ _009_ _425_ VDD VSS AND2_X1
X_560_ a[5] _010_ VDD VSS BUF_X8
X_561_ _000_ _010_ _162_ VDD VSS NAND2_X1
X_562_ _003_ _008_ _160_ VDD VSS NAND2_X1
X_563_ _004_ _005_ _161_ VDD VSS NAND2_X1
X_564_ b[5] _011_ VDD VSS BUF_X16
X_565_ _011_ _002_ _167_ VDD VSS NAND2_X4
X_566_ a[6] _012_ VDD VSS BUF_X4
X_567_ _000_ _012_ _179_ VDD VSS NAND2_X1
X_568_ _003_ _010_ _178_ VDD VSS NAND2_X1
X_569_ _004_ _008_ _177_ VDD VSS NAND2_X1
X_570_ _001_ _011_ _182_ VDD VSS NAND2_X1
X_571_ b[6] _013_ VDD VSS BUF_X2
X_572_ _002_ _013_ _436_ VDD VSS AND2_X1
X_573_ _003_ _012_ _201_ VDD VSS NAND2_X1
X_574_ _201_ _442_ VDD VSS INV_X1
X_575_ _004_ _010_ _202_ VDD VSS NAND2_X1
X_576_ _006_ _011_ _205_ VDD VSS NAND2_X2
X_577_ net1 _014_ VDD VSS BUF_X16
X_578_ _003_ net47 _453_ VDD VSS AND2_X1
X_579_ _004_ _012_ _454_ VDD VSS AND2_X1
X_580_ _007_ _010_ _237_ VDD VSS AND2_X2
X_581_ _008_ _009_ _238_ VDD VSS AND2_X2
X_582_ _011_ _005_ _239_ VDD VSS AND2_X4
X_583_ _006_ _013_ _247_ VDD VSS NAND2_X1
X_584_ _247_ _457_ VDD VSS INV_X1
X_585_ b[7] _015_ VDD VSS BUF_X8
X_586_ _015_ _016_ VDD VSS INV_X4
X_587_ _001_ _016_ _460_ VDD VSS NOR2_X1
X_588_ _267_ _264_ VDD VSS INV_X1
X_589_ _004_ net47 _274_ VDD VSS NAND2_X1
X_590_ _274_ _462_ VDD VSS INV_X1
X_591_ _007_ _012_ _268_ VDD VSS AND2_X1
X_592_ _009_ _010_ _269_ VDD VSS AND2_X2
X_593_ _008_ _011_ _270_ VDD VSS AND2_X2
X_594_ _005_ _013_ _278_ VDD VSS NAND2_X1
X_595_ _278_ _463_ VDD VSS INV_X1
X_596_ _006_ _016_ _468_ VDD VSS NOR2_X1
X_597_ _007_ _014_ _304_ VDD VSS NAND2_X4
X_598_ _304_ _343_ VDD VSS INV_X2
X_599_ _008_ _013_ _309_ VDD VSS NAND2_X1
X_600_ _309_ _472_ VDD VSS INV_X1
X_601_ _199_ _194_ VDD VSS INV_X2
X_602_ net5 _003_ net1 _017_ VDD VSS AND3_X1
X_603_ _467_ _017_ _320_ VDD VSS OR2_X1
X_604_ _320_ _348_ VDD VSS INV_X2
X_605_ _005_ _016_ _481_ VDD VSS NOR2_X1
X_606_ _009_ _014_ _344_ VDD VSS AND2_X4
X_607_ _011_ _012_ _345_ VDD VSS AND2_X1
X_608_ _010_ _013_ _336_ VDD VSS NAND2_X1
X_609_ _336_ _491_ VDD VSS INV_X1
X_610_ _008_ _016_ _498_ VDD VSS NOR2_X1
X_611_ _014_ _011_ _374_ VDD VSS AND2_X4
X_612_ _012_ _013_ _365_ VDD VSS AND2_X1
X_613_ _010_ _015_ _366_ VDD VSS AND2_X1
X_614_ _010_ _016_ _507_ VDD VSS NOR2_X1
X_615_ _013_ net47 _513_ VDD VSS AND2_X1
X_616_ _012_ _015_ _512_ VDD VSS AND2_X1
X_617_ _012_ _016_ _520_ VDD VSS NOR2_X1
X_618_ net47 _015_ _525_ VDD VSS AND2_X1
X_619_ _006_ _007_ _165_ VDD VSS NAND2_X4
X_620_ _000_ _014_ _200_ VDD VSS NAND2_X4
X_621_ _002_ _015_ _212_ VDD VSS NAND2_X1
X_622_ _005_ _009_ _206_ VDD VSS NAND2_X1
X_623_ _001_ _015_ _246_ VDD VSS NAND2_X1
X_624_ _455_ _273_ VDD VSS INV_X1
X_625_ _010_ _011_ _303_ VDD VSS NAND2_X1
X_626_ _008_ _015_ _335_ VDD VSS NAND2_X1
X_627_ _001_ _003_ _140_ VDD VSS NAND2_X1
X_628_ _001_ _009_ _166_ VDD VSS NAND2_X2
X_629_ _006_ _009_ _183_ VDD VSS NAND2_X1
X_630_ _198_ _193_ VDD VSS INV_X1
X_631_ _007_ _008_ _207_ VDD VSS NAND2_X1
X_632_ _002_ _016_ _228_ VDD VSS OR2_X1
X_633_ net5 _006_ _141_ VDD VSS NAND2_X1
X_634_ _005_ _007_ _184_ VDD VSS NAND2_X1
X_635_ _001_ _013_ _213_ VDD VSS NAND2_X1
X_636_ _006_ _015_ _280_ VDD VSS NAND2_X1
X_637_ _009_ _012_ _305_ VDD VSS NAND2_X1
X_638_ _005_ _015_ _310_ VDD VSS NAND2_X1
X_639_ net16 _243_ VDD VSS INV_X2
X_640_ _257_ _261_ VDD VSS INV_X2
X_641_ _272_ _275_ VDD VSS INV_X1
X_642_ _290_ _296_ VDD VSS INV_X1
X_643_ _295_ _298_ VDD VSS INV_X1
X_644_ _316_ _317_ VDD VSS INV_X1
X_645_ _322_ _328_ VDD VSS INV_X1
X_646_ _326_ _329_ VDD VSS INV_X1
X_647_ _347_ _349_ VDD VSS INV_X1
X_648_ _356_ _358_ VDD VSS INV_X1
X_649_ _376_ _377_ VDD VSS INV_X2
X_650_ _383_ _384_ VDD VSS INV_X1
X_651_ _397_ _398_ VDD VSS INV_X1
X_652_ _407_ _408_ VDD VSS INV_X1
X_653_ _240_ _279_ VDD VSS INV_X1
X_654_ _256_ _297_ VDD VSS INV_X1
X_655_ _271_ _308_ VDD VSS INV_X1
X_656_ _289_ _327_ VDD VSS INV_X1
X_657_ _294_ _332_ VDD VSS INV_X1
X_658_ _315_ _339_ VDD VSS INV_X1
X_659_ _321_ _357_ VDD VSS INV_X1
X_660_ _325_ _361_ VDD VSS INV_X1
X_661_ _355_ _387_ VDD VSS INV_X1
X_662_ _382_ _401_ VDD VSS INV_X1
X_663_ _396_ _411_ VDD VSS INV_X1
X_664_ _151_ _421_ VDD VSS INV_X1
X_665_ _150_ _427_ VDD VSS INV_X1
X_666_ _158_ _173_ VDD VSS INV_X1
X_667_ _168_ _435_ VDD VSS INV_X1
X_668_ _230_ _449_ VDD VSS INV_X2
X_669_ _190_ _218_ VDD VSS INV_X1
X_670_ _000_ _003_ _018_ VDD VSS XOR2_X2
X_671_ _018_ _014_ _458_ VDD VSS AND2_X4
X_672_ _319_ _473_ VDD VSS INV_X1
X_673_ _252_ _477_ VDD VSS INV_X2
X_674_ _301_ _482_ VDD VSS INV_X1
X_675_ _265_ _486_ VDD VSS INV_X1
X_676_ _342_ _494_ VDD VSS INV_X1
X_677_ _306_ _352_ VDD VSS INV_X1
X_678_ _333_ _499_ VDD VSS INV_X1
X_679_ _337_ _369_ VDD VSS INV_X1
X_680_ _362_ _508_ VDD VSS INV_X1
X_681_ _378_ _517_ VDD VSS INV_X1
X_682_ _388_ _521_ VDD VSS INV_X1
X_683_ net47 _016_ _530_ VDD VSS NOR2_X1
X_684_ _413_ _534_ VDD VSS INV_X1
X_685_ _143_ _418_ VDD VSS INV_X1
X_686_ _159_ _428_ VDD VSS INV_X1
X_687_ _171_ _174_ VDD VSS INV_X2
X_688_ _191_ _438_ VDD VSS INV_X1
X_689_ _217_ _220_ VDD VSS INV_X1
X_690_ _015_ _200_ _446_ VDD VSS XNOR2_X2
X_691_ _185_ _443_ VDD VSS INV_X1
X_692_ _233_ _234_ VDD VSS INV_X2
X_693_ _447_ _019_ VDD VSS INV_X1
X_694_ _019_ _200_ _016_ _255_ VDD VSS OAI21_X1
X_695_ _253_ _464_ VDD VSS INV_X2
X_696_ _459_ _017_ _288_ VDD VSS OR2_X2
X_697_ _266_ _469_ VDD VSS INV_X2
X_698_ _276_ _313_ VDD VSS INV_X1
X_699_ _312_ _314_ VDD VSS INV_X1
X_700_ _285_ _474_ VDD VSS INV_X1
X_701_ _286_ _478_ VDD VSS INV_X2
X_702_ _334_ _483_ VDD VSS INV_X1
X_703_ _302_ _487_ VDD VSS INV_X2
X_704_ _338_ _492_ VDD VSS INV_X1
X_705_ _318_ _495_ VDD VSS INV_X1
X_706_ _363_ _500_ VDD VSS INV_X1
X_707_ _341_ _503_ VDD VSS INV_X1
X_708_ net25 _506_ VDD VSS INV_X1
X_709_ _389_ _509_ VDD VSS INV_X2
X_710_ _403_ _522_ VDD VSS INV_X1
X_711_ _402_ _535_ VDD VSS INV_X1
X_712_ _437_ _189_ VDD VSS INV_X1
X_713_ _448_ _225_ VDD VSS INV_X1
X_714_ net20 _291_ VDD VSS INV_X2
X_715_ _426_ _157_ VDD VSS INV_X1
X_716_ _197_ _192_ VDD VSS INV_X1
X_717_ _450_ _231_ VDD VSS INV_X1
X_718_ _456_ _242_ VDD VSS INV_X1
X_719_ _461_ _258_ VDD VSS INV_X1
X_720_ _493_ _340_ VDD VSS INV_X1
X_721_ net5 _002_ net3 VDD VSS AND2_X2
X_722_ net2 _020_ VDD VSS BUF_X4
XPHY_EDGE_ROW_1_Right_1 VDD VSS TAPCELL_X1
X_724_ net31 _465_ _022_ VDD VSS NAND2_X1
XPHY_EDGE_ROW_2_Right_2 VDD VSS TAPCELL_X1
X_726_ _445_ _466_ _480_ _024_ VDD VSS NAND3_X1
X_727_ _440_ net43 _441_ _025_ VDD VSS AOI21_X4
X_728_ _444_ _026_ VDD VSS INV_X1
X_729_ _466_ _480_ _027_ VDD VSS NAND2_X1
X_730_ _022_ _024_ _025_ _026_ _027_ _028_ VDD VSS OAI221_X2
X_731_ _476_ _028_ _479_ _029_ VDD VSS OAI21_X4
X_732_ _476_ _028_ _479_ _030_ VDD VSS OR3_X2
X_733_ _020_ _030_ _029_ _031_ VDD VSS AOI21_X4
X_734_ _485_ _032_ VDD VSS INV_X1
X_735_ _489_ _033_ VDD VSS BUF_X4
X_736_ _033_ _470_ _034_ VDD VSS NAND2_X4
X_737_ _471_ _035_ VDD VSS BUF_X2
X_738_ _035_ _033_ net40 _036_ VDD VSS NAND3_X2
X_739_ _451_ _037_ VDD VSS INV_X1
X_740_ _035_ _033_ _038_ VDD VSS NAND2_X1
X_741_ _034_ _036_ _025_ _037_ _038_ _039_ VDD VSS OAI221_X2
X_742_ _488_ net35 _040_ VDD VSS NOR2_X4
X_743_ _032_ _040_ _041_ VDD VSS XNOR2_X2
X_744_ _031_ _041_ _020_ net4 VDD VSS AOI21_X4
X_745_ _502_ _042_ VDD VSS BUF_X2
X_746_ _484_ _043_ VDD VSS INV_X1
X_747_ _035_ _033_ _044_ VDD VSS AND2_X2
X_748_ net39 _045_ VDD VSS INV_X2
X_749_ _037_ net49 _045_ _046_ VDD VSS OAI21_X4
X_750_ _488_ _044_ _046_ _470_ _033_ _047_ VDD VSS AOI221_X2
X_751_ _043_ _047_ _032_ _048_ VDD VSS OAI21_X2
X_752_ _048_ _042_ _049_ VDD VSS XOR2_X1
X_753_ _497_ _050_ VDD VSS BUF_X1
X_754_ _475_ _051_ VDD VSS INV_X1
X_755_ net32 net33 _465_ _052_ VDD VSS OAI21_X4
X_756_ _444_ _465_ _053_ VDD VSS NOR2_X1
X_757_ net44 _054_ VDD VSS INV_X1
X_758_ _054_ _195_ _055_ VDD VSS OR2_X2
X_759_ _052_ _055_ _053_ _056_ VDD VSS AOI21_X4
X_760_ _476_ _056_ _479_ _057_ VDD VSS OAI21_X2
X_761_ _057_ _051_ _058_ VDD VSS NAND2_X1
X_762_ _058_ _050_ _059_ VDD VSS XOR2_X1
X_763_ _020_ _060_ VDD VSS INV_X4
X_764_ _049_ _059_ _060_ net6 VDD VSS MUX2_X2
XPHY_EDGE_ROW_0_Right_0 VDD VSS TAPCELL_X1
X_766_ _043_ _040_ _032_ _062_ VDD VSS OAI21_X4
X_767_ _501_ _062_ _042_ _063_ VDD VSS AOI21_X2
X_768_ _063_ net23 _064_ VDD VSS XNOR2_X1
X_769_ _505_ _065_ VDD VSS BUF_X1
X_770_ _051_ _029_ _066_ VDD VSS NAND2_X1
X_771_ _496_ _066_ _050_ _067_ VDD VSS AOI21_X1
X_772_ _065_ _067_ _068_ VDD VSS XNOR2_X1
X_773_ _064_ _068_ _060_ net7 VDD VSS MUX2_X2
X_774_ _516_ _069_ VDD VSS BUF_X1
X_775_ _504_ _496_ _065_ _070_ VDD VSS AOI21_X1
X_776_ _050_ _065_ _071_ VDD VSS NAND2_X1
X_777_ _476_ _475_ _072_ VDD VSS NOR2_X1
X_778_ _070_ _071_ _072_ _073_ VDD VSS OAI21_X1
X_779_ _479_ _074_ VDD VSS INV_X1
X_780_ _051_ _074_ _070_ _075_ VDD VSS NAND3_X1
X_781_ _073_ net41 _075_ _076_ VDD VSS OAI21_X4
X_782_ _076_ _069_ _077_ VDD VSS XNOR2_X2
X_783_ _077_ _060_ _078_ VDD VSS NAND2_X2
Xclone5 b[0] net5 VDD VSS BUF_X8
X_785_ _501_ _510_ _080_ VDD VSS NOR2_X1
X_786_ _042_ _484_ _485_ _081_ VDD VSS OAI21_X1
X_787_ _488_ _082_ VDD VSS INV_X1
X_788_ _043_ _082_ _034_ _083_ VDD VSS NAND3_X2
X_789_ _083_ _046_ _044_ _084_ VDD VSS AOI21_X4
X_790_ _080_ _084_ _081_ _085_ VDD VSS OAI21_X2
X_791_ _085_ _510_ net21 _086_ VDD VSS OAI21_X2
X_792_ _086_ net46 _087_ VDD VSS XOR2_X2
X_793_ _078_ _087_ _060_ net8 VDD VSS OAI21_X4
X_794_ _537_ _088_ VDD VSS INV_X1
X_795_ _524_ _088_ _523_ _089_ VDD VSS NOR3_X1
X_796_ _523_ _090_ VDD VSS INV_X1
X_797_ _537_ _090_ _091_ VDD VSS NOR2_X1
X_798_ _020_ _089_ _091_ _092_ VDD VSS OAI21_X1
X_799_ _529_ _093_ VDD VSS INV_X1
X_800_ _093_ _515_ _094_ VDD VSS NAND2_X1
X_801_ _020_ _093_ _515_ _095_ VDD VSS OR3_X1
X_802_ _092_ _094_ _020_ _069_ _095_ _096_ VDD VSS OAI221_X2
X_803_ _039_ _488_ _097_ VDD VSS OR2_X2
X_804_ _485_ _042_ net21 _098_ VDD VSS AND3_X1
X_805_ _501_ _484_ _042_ _099_ VDD VSS AOI21_X1
X_806_ _099_ _100_ VDD VSS INV_X1
X_807_ _510_ _098_ _097_ _100_ net21 _101_ VDD VSS AOI221_X2
X_808_ net2 net45 _102_ VDD VSS AND2_X1
X_809_ _101_ _102_ _088_ _103_ VDD VSS AOI21_X2
X_810_ _020_ _537_ _090_ _104_ VDD VSS NAND3_X1
X_811_ _103_ _104_ _101_ _105_ VDD VSS AOI21_X2
X_812_ _496_ _475_ _050_ _106_ VDD VSS AOI21_X1
X_813_ _106_ _107_ VDD VSS INV_X1
X_814_ _504_ _107_ _065_ _108_ VDD VSS AOI21_X1
X_815_ _108_ _071_ _029_ _109_ VDD VSS OAI21_X1
X_816_ _060_ _069_ _093_ _109_ _110_ VDD VSS NAND4_X1
X_817_ _110_ _109_ _095_ _111_ VDD VSS OAI21_X1
X_818_ _105_ _096_ _111_ net9 VDD VSS OR3_X4
X_819_ _524_ _510_ net22 _112_ VDD VSS OAI21_X4
X_820_ _088_ _090_ _112_ _113_ VDD VSS AOI21_X4
X_821_ _536_ _113_ _114_ VDD VSS OR2_X4
X_822_ _501_ _510_ _523_ _536_ _115_ VDD VSS NOR4_X2
X_823_ _115_ _081_ _084_ _116_ VDD VSS OAI21_X2
X_824_ _406_ _533_ _117_ VDD VSS XNOR2_X1
X_825_ _409_ _412_ _118_ VDD VSS XNOR2_X1
X_826_ _117_ _118_ _119_ VDD VSS XNOR2_X1
X_827_ _531_ _519_ _120_ VDD VSS XNOR2_X1
X_828_ _119_ _120_ _121_ VDD VSS XNOR2_X1
X_829_ _114_ _116_ _121_ _122_ VDD VSS AND3_X4
X_830_ _121_ _114_ _116_ _123_ VDD VSS AOI21_X4
X_831_ _020_ _123_ _122_ _124_ VDD VSS OAI21_X4
X_832_ _528_ _515_ _529_ _125_ VDD VSS AOI21_X1
X_833_ _069_ _529_ _126_ VDD VSS NAND2_X1
X_834_ _125_ _076_ _126_ _127_ VDD VSS OAI21_X4
X_835_ _127_ _526_ _128_ VDD VSS XNOR2_X2
X_836_ _124_ _020_ _128_ net10 VDD VSS OAI21_X4
X_837_ _417_ net11 VDD VSS BUF_X2
X_838_ _420_ net12 VDD VSS BUF_X2
X_839_ _423_ net13 VDD VSS BUF_X2
X_840_ _432_ net14 VDD VSS BUF_X2
X_841_ _434_ net15 VDD VSS BUF_X2
Xrebuffer7 _241_ net16 VDD VSS BUF_X2
X_843_ net50 net40 _020_ _129_ VDD VSS MUX2_X1
X_844_ _129_ net49 net17 VDD VSS XNOR2_X2
X_845_ _037_ _025_ _045_ _130_ VDD VSS OAI21_X1
X_846_ _035_ _130_ _131_ VDD VSS XOR2_X1
X_847_ _026_ _025_ _054_ _132_ VDD VSS OAI21_X1
X_848_ net34 _132_ _133_ VDD VSS XOR2_X1
X_849_ _131_ _133_ _060_ net18 VDD VSS MUX2_X2
X_850_ _470_ _046_ _035_ _134_ VDD VSS AOI21_X1
X_851_ _033_ _134_ _135_ VDD VSS XNOR2_X1
X_852_ _055_ _026_ _136_ VDD VSS NAND2_X2
X_853_ _465_ _136_ net34 _137_ VDD VSS AOI21_X2
X_854_ _137_ net42 _138_ VDD VSS XNOR2_X1
X_855_ _135_ _138_ _060_ net19 VDD VSS MUX2_X2
X_856_ _139_ _140_ _141_ _142_ _143_ VDD VSS FA_X1
X_857_ _144_ _145_ _146_ _147_ _148_ VDD VSS FA_X1
X_858_ _149_ _142_ _148_ _150_ _151_ VDD VSS FA_X1
X_859_ _152_ _153_ _154_ _155_ _156_ VDD VSS FA_X1
X_860_ _156_ _147_ _157_ _158_ _159_ VDD VSS FA_X1
X_861_ _160_ _161_ _162_ _163_ _164_ VDD VSS FA_X1
X_862_ _165_ _166_ _167_ _168_ _169_ VDD VSS FA_X1
X_863_ _164_ _169_ _155_ _170_ _171_ VDD VSS FA_X1
X_864_ _172_ _173_ _174_ _175_ _176_ VDD VSS FA_X1
X_865_ _177_ _178_ _179_ _180_ _181_ VDD VSS FA_X1
X_866_ _182_ _183_ _184_ _185_ _186_ VDD VSS FA_X1
X_867_ _181_ _186_ _163_ _187_ _188_ VDD VSS FA_X1
X_868_ _189_ _170_ _188_ _190_ _191_ VDD VSS FA_X1
X_869_ _194_ _193_ _192_ _195_ _196_ VDD VSS FA_X1
X_870_ _202_ _201_ _200_ _203_ _204_ VDD VSS FA_X1
X_871_ _205_ _206_ _207_ _208_ _209_ VDD VSS FA_X1
X_872_ _180_ _204_ _209_ _210_ _211_ VDD VSS FA_X1
X_873_ _212_ _213_ _185_ _214_ _215_ VDD VSS FA_X1
X_874_ _215_ _187_ _211_ _216_ _217_ VDD VSS FA_X1
X_875_ _218_ _219_ _220_ _221_ _222_ VDD VSS FA_X1
X_876_ _206_ _202_ _207_ _223_ _224_ VDD VSS FA_X1
X_877_ _180_ _224_ _225_ _226_ _227_ VDD VSS FA_X1
X_878_ _205_ _228_ _213_ _229_ _230_ VDD VSS FA_X1
X_879_ _227_ _187_ _231_ _232_ _233_ VDD VSS FA_X1
X_880_ _218_ _219_ _234_ _235_ _236_ VDD VSS FA_X1
X_881_ _238_ _239_ _237_ _240_ _241_ VDD VSS FA_X1
X_882_ _203_ _242_ _243_ _244_ _245_ VDD VSS FA_X1
X_883_ _246_ _208_ _247_ _248_ _249_ VDD VSS FA_X1
X_884_ _210_ _245_ _249_ _250_ _251_ VDD VSS FA_X1
X_885_ _214_ _251_ _216_ _252_ _253_ VDD VSS FA_X1
X_886_ _254_ _255_ _241_ _256_ _257_ VDD VSS FA_X1
X_887_ _258_ _223_ _229_ _259_ _260_ VDD VSS FA_X1
X_888_ _226_ _261_ _260_ _262_ _263_ VDD VSS FA_X1
X_889_ _264_ _232_ _263_ _265_ _266_ VDD VSS FA_X1
X_890_ _270_ _269_ _268_ _271_ _272_ VDD VSS FA_X1
X_891_ _273_ _274_ _275_ _276_ _277_ VDD VSS FA_X1
X_892_ _278_ _279_ _280_ _281_ _282_ VDD VSS FA_X1
X_893_ _244_ _282_ _277_ _283_ _284_ VDD VSS FA_X1
X_894_ _250_ _248_ _284_ _285_ _286_ VDD VSS FA_X1
X_895_ _288_ _272_ _287_ _289_ _290_ VDD VSS FA_X1
X_896_ _240_ _292_ _293_ _294_ _295_ VDD VSS FA_X1
X_897_ _298_ _297_ _296_ _299_ _300_ VDD VSS FA_X1
X_898_ _262_ _259_ _300_ _301_ _302_ VDD VSS FA_X1
X_899_ _303_ _304_ _305_ _306_ _307_ VDD VSS FA_X1
X_900_ _308_ _309_ _310_ _311_ _312_ VDD VSS FA_X1
X_901_ _307_ _313_ _314_ _315_ _316_ VDD VSS FA_X1
X_902_ _283_ _317_ _281_ _318_ _319_ VDD VSS FA_X1
X_903_ _307_ net20 _320_ _321_ _322_ VDD VSS FA_X1
X_904_ _271_ _323_ _324_ _325_ _326_ VDD VSS FA_X1
X_905_ _327_ _328_ _329_ _330_ _331_ VDD VSS FA_X1
X_906_ _331_ _299_ _332_ _333_ _334_ VDD VSS FA_X1
X_907_ _335_ _306_ _336_ _337_ _338_ VDD VSS FA_X1
X_908_ _311_ _339_ _340_ _341_ _342_ VDD VSS FA_X1
X_909_ _343_ _344_ _345_ _346_ _347_ VDD VSS FA_X1
X_910_ _291_ _348_ _349_ _350_ _351_ VDD VSS FA_X1
X_911_ _352_ _353_ _354_ _355_ _356_ VDD VSS FA_X1
X_912_ _351_ _357_ _358_ _359_ _360_ VDD VSS FA_X1
X_913_ _361_ _330_ _360_ _362_ _363_ VDD VSS FA_X1
X_914_ _364_ _365_ _366_ _367_ _368_ VDD VSS FA_X1
X_915_ _369_ _370_ _371_ _372_ _373_ VDD VSS FA_X1
X_916_ _343_ _374_ _344_ _375_ _376_ VDD VSS FA_X1
X_917_ _348_ _377_ _291_ _378_ _379_ VDD VSS FA_X1
X_918_ _380_ _381_ _346_ _382_ _383_ VDD VSS FA_X1
X_919_ _384_ _350_ _379_ _385_ _386_ VDD VSS FA_X1
X_920_ _387_ _359_ _386_ _388_ _389_ VDD VSS FA_X1
X_921_ _390_ _391_ _367_ _392_ _393_ VDD VSS FA_X1
X_922_ _394_ _375_ _395_ _396_ _397_ VDD VSS FA_X1
X_923_ _378_ net24 _398_ _399_ _400_ VDD VSS FA_X1
X_924_ _385_ _401_ _400_ _402_ _403_ VDD VSS FA_X1
X_925_ _375_ _404_ _405_ _406_ _407_ VDD VSS FA_X1
X_926_ _378_ _408_ net24 _409_ _410_ VDD VSS FA_X1
X_927_ _411_ _410_ _399_ _412_ _413_ VDD VSS FA_X1
X_928_ _414_ _415_ _416_ _417_ VDD VSS HA_X1
X_929_ _416_ _418_ _419_ _420_ VDD VSS HA_X1
X_930_ _421_ _419_ _422_ _423_ VDD VSS HA_X1
X_931_ _424_ _425_ _172_ _426_ VDD VSS HA_X1
X_932_ _427_ _428_ _429_ _430_ VDD VSS HA_X1
X_933_ _430_ _422_ _431_ _432_ VDD VSS HA_X1
X_934_ _429_ _176_ _198_ _433_ VDD VSS HA_X1
X_935_ _433_ _431_ _199_ _434_ VDD VSS HA_X1
X_936_ _435_ _436_ _219_ _437_ VDD VSS HA_X1
X_937_ _175_ _438_ _439_ _197_ VDD VSS HA_X1
X_938_ _197_ _198_ _440_ _441_ VDD VSS HA_X1
X_939_ _439_ _222_ _444_ _445_ VDD VSS HA_X1
X_940_ _442_ _446_ _447_ _448_ VDD VSS HA_X1
X_941_ _449_ _443_ _267_ _450_ VDD VSS HA_X1
X_942_ _236_ _439_ _451_ _452_ VDD VSS HA_X1
X_943_ _453_ _454_ _455_ _456_ VDD VSS HA_X1
X_944_ _454_ _458_ _459_ _254_ VDD VSS HA_X1
X_945_ _457_ _460_ _293_ _461_ VDD VSS HA_X1
X_946_ _221_ _464_ _465_ _466_ VDD VSS HA_X1
X_947_ _458_ _462_ _467_ _287_ VDD VSS HA_X1
X_948_ _463_ _468_ _323_ _292_ VDD VSS HA_X1
X_949_ _235_ _469_ _470_ _471_ VDD VSS HA_X1
X_950_ _473_ _474_ _475_ _476_ VDD VSS HA_X1
X_951_ _478_ _477_ _479_ _480_ VDD VSS HA_X1
X_952_ _472_ _481_ _354_ _324_ VDD VSS HA_X1
X_953_ _482_ _483_ _484_ _485_ VDD VSS HA_X1
X_954_ _486_ _487_ _488_ _489_ VDD VSS HA_X1
X_955_ _344_ _345_ _364_ _490_ VDD VSS HA_X1
X_956_ _490_ _492_ _371_ _493_ VDD VSS HA_X1
X_957_ _494_ _495_ _496_ _497_ VDD VSS HA_X1
X_958_ _491_ _498_ _380_ _353_ VDD VSS HA_X1
X_959_ _499_ _500_ _501_ _502_ VDD VSS HA_X1
X_960_ _368_ net48 _390_ _370_ VDD VSS HA_X1
X_961_ _373_ _503_ _504_ _505_ VDD VSS HA_X1
X_962_ _507_ _365_ _395_ _381_ VDD VSS HA_X1
X_963_ _508_ _509_ _510_ _511_ VDD VSS HA_X1
X_964_ _512_ _513_ _514_ _391_ VDD VSS HA_X1
X_965_ _393_ _372_ _515_ _516_ VDD VSS HA_X1
X_966_ _517_ _506_ _518_ _519_ VDD VSS HA_X1
X_967_ _520_ _513_ _405_ _394_ VDD VSS HA_X1
X_968_ _521_ _522_ _523_ _524_ VDD VSS HA_X1
X_969_ _514_ _525_ _526_ _527_ VDD VSS HA_X1
X_970_ _527_ _392_ _528_ _529_ VDD VSS HA_X1
X_971_ _530_ _513_ _531_ _404_ VDD VSS HA_X1
X_972_ _375_ _404_ _532_ _533_ VDD VSS HA_X1
X_973_ _534_ _535_ _536_ _537_ VDD VSS HA_X1
XPHY_EDGE_ROW_3_Right_3 VDD VSS TAPCELL_X1
XPHY_EDGE_ROW_4_Right_4 VDD VSS TAPCELL_X1
XPHY_EDGE_ROW_5_Right_5 VDD VSS TAPCELL_X1
XPHY_EDGE_ROW_6_Right_6 VDD VSS TAPCELL_X1
XPHY_EDGE_ROW_7_Right_7 VDD VSS TAPCELL_X1
XPHY_EDGE_ROW_8_Right_8 VDD VSS TAPCELL_X1
XPHY_EDGE_ROW_9_Right_9 VDD VSS TAPCELL_X1
XPHY_EDGE_ROW_10_Right_10 VDD VSS TAPCELL_X1
XPHY_EDGE_ROW_11_Right_11 VDD VSS TAPCELL_X1
XPHY_EDGE_ROW_12_Right_12 VDD VSS TAPCELL_X1
XPHY_EDGE_ROW_13_Right_13 VDD VSS TAPCELL_X1
XPHY_EDGE_ROW_14_Right_14 VDD VSS TAPCELL_X1
XPHY_EDGE_ROW_15_Right_15 VDD VSS TAPCELL_X1
XPHY_EDGE_ROW_16_Right_16 VDD VSS TAPCELL_X1
XPHY_EDGE_ROW_17_Right_17 VDD VSS TAPCELL_X1
XPHY_EDGE_ROW_18_Right_18 VDD VSS TAPCELL_X1
XPHY_EDGE_ROW_19_Right_19 VDD VSS TAPCELL_X1
XPHY_EDGE_ROW_20_Right_20 VDD VSS TAPCELL_X1
XPHY_EDGE_ROW_21_Right_21 VDD VSS TAPCELL_X1
XPHY_EDGE_ROW_22_Right_22 VDD VSS TAPCELL_X1
XPHY_EDGE_ROW_23_Right_23 VDD VSS TAPCELL_X1
XPHY_EDGE_ROW_24_Right_24 VDD VSS TAPCELL_X1
XPHY_EDGE_ROW_25_Right_25 VDD VSS TAPCELL_X1
XPHY_EDGE_ROW_26_Right_26 VDD VSS TAPCELL_X1
XPHY_EDGE_ROW_27_Right_27 VDD VSS TAPCELL_X1
XPHY_EDGE_ROW_28_Right_28 VDD VSS TAPCELL_X1
XPHY_EDGE_ROW_29_Right_29 VDD VSS TAPCELL_X1
XPHY_EDGE_ROW_30_Right_30 VDD VSS TAPCELL_X1
XPHY_EDGE_ROW_31_Right_31 VDD VSS TAPCELL_X1
XPHY_EDGE_ROW_32_Right_32 VDD VSS TAPCELL_X1
XPHY_EDGE_ROW_33_Right_33 VDD VSS TAPCELL_X1
XPHY_EDGE_ROW_34_Right_34 VDD VSS TAPCELL_X1
XPHY_EDGE_ROW_35_Right_35 VDD VSS TAPCELL_X1
XPHY_EDGE_ROW_36_Right_36 VDD VSS TAPCELL_X1
XPHY_EDGE_ROW_37_Right_37 VDD VSS TAPCELL_X1
XPHY_EDGE_ROW_38_Right_38 VDD VSS TAPCELL_X1
XPHY_EDGE_ROW_39_Right_39 VDD VSS TAPCELL_X1
XPHY_EDGE_ROW_40_Right_40 VDD VSS TAPCELL_X1
XPHY_EDGE_ROW_41_Right_41 VDD VSS TAPCELL_X1
XPHY_EDGE_ROW_42_Right_42 VDD VSS TAPCELL_X1
XPHY_EDGE_ROW_43_Right_43 VDD VSS TAPCELL_X1
XPHY_EDGE_ROW_44_Right_44 VDD VSS TAPCELL_X1
XPHY_EDGE_ROW_45_Right_45 VDD VSS TAPCELL_X1
XPHY_EDGE_ROW_46_Right_46 VDD VSS TAPCELL_X1
XPHY_EDGE_ROW_47_Right_47 VDD VSS TAPCELL_X1
XPHY_EDGE_ROW_48_Right_48 VDD VSS TAPCELL_X1
XPHY_EDGE_ROW_49_Right_49 VDD VSS TAPCELL_X1
XPHY_EDGE_ROW_50_Right_50 VDD VSS TAPCELL_X1
XPHY_EDGE_ROW_51_Right_51 VDD VSS TAPCELL_X1
XPHY_EDGE_ROW_52_Right_52 VDD VSS TAPCELL_X1
XPHY_EDGE_ROW_53_Right_53 VDD VSS TAPCELL_X1
XPHY_EDGE_ROW_54_Right_54 VDD VSS TAPCELL_X1
XPHY_EDGE_ROW_55_Right_55 VDD VSS TAPCELL_X1
XPHY_EDGE_ROW_56_Right_56 VDD VSS TAPCELL_X1
XPHY_EDGE_ROW_57_Right_57 VDD VSS TAPCELL_X1
XPHY_EDGE_ROW_58_Right_58 VDD VSS TAPCELL_X1
XPHY_EDGE_ROW_59_Right_59 VDD VSS TAPCELL_X1
XPHY_EDGE_ROW_60_Right_60 VDD VSS TAPCELL_X1
XPHY_EDGE_ROW_61_Right_61 VDD VSS TAPCELL_X1
XPHY_EDGE_ROW_62_Right_62 VDD VSS TAPCELL_X1
XPHY_EDGE_ROW_63_Right_63 VDD VSS TAPCELL_X1
XPHY_EDGE_ROW_64_Right_64 VDD VSS TAPCELL_X1
XPHY_EDGE_ROW_65_Right_65 VDD VSS TAPCELL_X1
XPHY_EDGE_ROW_66_Right_66 VDD VSS TAPCELL_X1
XPHY_EDGE_ROW_67_Right_67 VDD VSS TAPCELL_X1
XPHY_EDGE_ROW_68_Right_68 VDD VSS TAPCELL_X1
XPHY_EDGE_ROW_69_Right_69 VDD VSS TAPCELL_X1
XPHY_EDGE_ROW_70_Right_70 VDD VSS TAPCELL_X1
XPHY_EDGE_ROW_71_Right_71 VDD VSS TAPCELL_X1
XPHY_EDGE_ROW_72_Right_72 VDD VSS TAPCELL_X1
XPHY_EDGE_ROW_73_Right_73 VDD VSS TAPCELL_X1
XPHY_EDGE_ROW_74_Right_74 VDD VSS TAPCELL_X1
XPHY_EDGE_ROW_75_Right_75 VDD VSS TAPCELL_X1
XPHY_EDGE_ROW_76_Right_76 VDD VSS TAPCELL_X1
XPHY_EDGE_ROW_77_Right_77 VDD VSS TAPCELL_X1
XPHY_EDGE_ROW_78_Right_78 VDD VSS TAPCELL_X1
XPHY_EDGE_ROW_79_Right_79 VDD VSS TAPCELL_X1
XPHY_EDGE_ROW_80_Right_80 VDD VSS TAPCELL_X1
XPHY_EDGE_ROW_81_Right_81 VDD VSS TAPCELL_X1
XPHY_EDGE_ROW_82_Right_82 VDD VSS TAPCELL_X1
XPHY_EDGE_ROW_83_Right_83 VDD VSS TAPCELL_X1
XPHY_EDGE_ROW_84_Right_84 VDD VSS TAPCELL_X1
XPHY_EDGE_ROW_85_Right_85 VDD VSS TAPCELL_X1
XPHY_EDGE_ROW_86_Right_86 VDD VSS TAPCELL_X1
XPHY_EDGE_ROW_87_Right_87 VDD VSS TAPCELL_X1
XPHY_EDGE_ROW_88_Right_88 VDD VSS TAPCELL_X1
XPHY_EDGE_ROW_89_Right_89 VDD VSS TAPCELL_X1
XPHY_EDGE_ROW_90_Right_90 VDD VSS TAPCELL_X1
XPHY_EDGE_ROW_91_Right_91 VDD VSS TAPCELL_X1
XPHY_EDGE_ROW_92_Right_92 VDD VSS TAPCELL_X1
XPHY_EDGE_ROW_93_Right_93 VDD VSS TAPCELL_X1
XPHY_EDGE_ROW_94_Right_94 VDD VSS TAPCELL_X1
XPHY_EDGE_ROW_95_Right_95 VDD VSS TAPCELL_X1
XPHY_EDGE_ROW_96_Right_96 VDD VSS TAPCELL_X1
XPHY_EDGE_ROW_97_Right_97 VDD VSS TAPCELL_X1
XPHY_EDGE_ROW_98_Right_98 VDD VSS TAPCELL_X1
XPHY_EDGE_ROW_99_Right_99 VDD VSS TAPCELL_X1
XPHY_EDGE_ROW_100_Right_100 VDD VSS TAPCELL_X1
XPHY_EDGE_ROW_101_Right_101 VDD VSS TAPCELL_X1
XPHY_EDGE_ROW_102_Right_102 VDD VSS TAPCELL_X1
XPHY_EDGE_ROW_103_Right_103 VDD VSS TAPCELL_X1
XPHY_EDGE_ROW_104_Right_104 VDD VSS TAPCELL_X1
XPHY_EDGE_ROW_105_Right_105 VDD VSS TAPCELL_X1
XPHY_EDGE_ROW_106_Right_106 VDD VSS TAPCELL_X1
XPHY_EDGE_ROW_107_Right_107 VDD VSS TAPCELL_X1
XPHY_EDGE_ROW_108_Right_108 VDD VSS TAPCELL_X1
XPHY_EDGE_ROW_109_Right_109 VDD VSS TAPCELL_X1
XPHY_EDGE_ROW_110_Right_110 VDD VSS TAPCELL_X1
XPHY_EDGE_ROW_111_Right_111 VDD VSS TAPCELL_X1
XPHY_EDGE_ROW_112_Right_112 VDD VSS TAPCELL_X1
XPHY_EDGE_ROW_113_Right_113 VDD VSS TAPCELL_X1
XPHY_EDGE_ROW_114_Right_114 VDD VSS TAPCELL_X1
XPHY_EDGE_ROW_115_Right_115 VDD VSS TAPCELL_X1
XPHY_EDGE_ROW_116_Right_116 VDD VSS TAPCELL_X1
XPHY_EDGE_ROW_117_Right_117 VDD VSS TAPCELL_X1
XPHY_EDGE_ROW_118_Right_118 VDD VSS TAPCELL_X1
XPHY_EDGE_ROW_119_Right_119 VDD VSS TAPCELL_X1
XPHY_EDGE_ROW_120_Right_120 VDD VSS TAPCELL_X1
XPHY_EDGE_ROW_121_Right_121 VDD VSS TAPCELL_X1
XPHY_EDGE_ROW_122_Right_122 VDD VSS TAPCELL_X1
XPHY_EDGE_ROW_123_Right_123 VDD VSS TAPCELL_X1
XPHY_EDGE_ROW_124_Right_124 VDD VSS TAPCELL_X1
XPHY_EDGE_ROW_125_Right_125 VDD VSS TAPCELL_X1
XPHY_EDGE_ROW_126_Right_126 VDD VSS TAPCELL_X1
XPHY_EDGE_ROW_127_Right_127 VDD VSS TAPCELL_X1
XPHY_EDGE_ROW_128_Right_128 VDD VSS TAPCELL_X1
XPHY_EDGE_ROW_129_Right_129 VDD VSS TAPCELL_X1
XPHY_EDGE_ROW_130_Right_130 VDD VSS TAPCELL_X1
XPHY_EDGE_ROW_131_Right_131 VDD VSS TAPCELL_X1
XPHY_EDGE_ROW_132_Right_132 VDD VSS TAPCELL_X1
XPHY_EDGE_ROW_133_Right_133 VDD VSS TAPCELL_X1
XPHY_EDGE_ROW_134_Right_134 VDD VSS TAPCELL_X1
XPHY_EDGE_ROW_135_Right_135 VDD VSS TAPCELL_X1
XPHY_EDGE_ROW_136_Right_136 VDD VSS TAPCELL_X1
XPHY_EDGE_ROW_137_Right_137 VDD VSS TAPCELL_X1
XPHY_EDGE_ROW_138_Right_138 VDD VSS TAPCELL_X1
XPHY_EDGE_ROW_139_Right_139 VDD VSS TAPCELL_X1
XPHY_EDGE_ROW_140_Right_140 VDD VSS TAPCELL_X1
XPHY_EDGE_ROW_141_Right_141 VDD VSS TAPCELL_X1
XPHY_EDGE_ROW_142_Right_142 VDD VSS TAPCELL_X1
XPHY_EDGE_ROW_143_Right_143 VDD VSS TAPCELL_X1
XPHY_EDGE_ROW_144_Right_144 VDD VSS TAPCELL_X1
XPHY_EDGE_ROW_145_Right_145 VDD VSS TAPCELL_X1
XPHY_EDGE_ROW_146_Right_146 VDD VSS TAPCELL_X1
XPHY_EDGE_ROW_147_Right_147 VDD VSS TAPCELL_X1
XPHY_EDGE_ROW_148_Right_148 VDD VSS TAPCELL_X1
XPHY_EDGE_ROW_149_Right_149 VDD VSS TAPCELL_X1
XPHY_EDGE_ROW_150_Right_150 VDD VSS TAPCELL_X1
XPHY_EDGE_ROW_151_Right_151 VDD VSS TAPCELL_X1
XPHY_EDGE_ROW_152_Right_152 VDD VSS TAPCELL_X1
XPHY_EDGE_ROW_153_Right_153 VDD VSS TAPCELL_X1
XPHY_EDGE_ROW_154_Right_154 VDD VSS TAPCELL_X1
XPHY_EDGE_ROW_155_Right_155 VDD VSS TAPCELL_X1
XPHY_EDGE_ROW_156_Right_156 VDD VSS TAPCELL_X1
XPHY_EDGE_ROW_157_Right_157 VDD VSS TAPCELL_X1
XPHY_EDGE_ROW_158_Right_158 VDD VSS TAPCELL_X1
XPHY_EDGE_ROW_159_Right_159 VDD VSS TAPCELL_X1
XPHY_EDGE_ROW_160_Right_160 VDD VSS TAPCELL_X1
XPHY_EDGE_ROW_161_Right_161 VDD VSS TAPCELL_X1
XPHY_EDGE_ROW_162_Right_162 VDD VSS TAPCELL_X1
XPHY_EDGE_ROW_163_Right_163 VDD VSS TAPCELL_X1
XPHY_EDGE_ROW_164_Right_164 VDD VSS TAPCELL_X1
XPHY_EDGE_ROW_165_Right_165 VDD VSS TAPCELL_X1
XPHY_EDGE_ROW_166_Right_166 VDD VSS TAPCELL_X1
XPHY_EDGE_ROW_167_Right_167 VDD VSS TAPCELL_X1
XPHY_EDGE_ROW_168_Right_168 VDD VSS TAPCELL_X1
XPHY_EDGE_ROW_169_Right_169 VDD VSS TAPCELL_X1
XPHY_EDGE_ROW_170_Right_170 VDD VSS TAPCELL_X1
XPHY_EDGE_ROW_171_Right_171 VDD VSS TAPCELL_X1
XPHY_EDGE_ROW_172_Right_172 VDD VSS TAPCELL_X1
XPHY_EDGE_ROW_173_Right_173 VDD VSS TAPCELL_X1
XPHY_EDGE_ROW_174_Right_174 VDD VSS TAPCELL_X1
XPHY_EDGE_ROW_175_Right_175 VDD VSS TAPCELL_X1
XPHY_EDGE_ROW_176_Right_176 VDD VSS TAPCELL_X1
XPHY_EDGE_ROW_177_Right_177 VDD VSS TAPCELL_X1
XPHY_EDGE_ROW_178_Right_178 VDD VSS TAPCELL_X1
XPHY_EDGE_ROW_179_Right_179 VDD VSS TAPCELL_X1
XPHY_EDGE_ROW_180_Right_180 VDD VSS TAPCELL_X1
XPHY_EDGE_ROW_181_Right_181 VDD VSS TAPCELL_X1
XPHY_EDGE_ROW_182_Right_182 VDD VSS TAPCELL_X1
XPHY_EDGE_ROW_183_Right_183 VDD VSS TAPCELL_X1
XPHY_EDGE_ROW_184_Right_184 VDD VSS TAPCELL_X1
XPHY_EDGE_ROW_185_Right_185 VDD VSS TAPCELL_X1
XPHY_EDGE_ROW_186_Right_186 VDD VSS TAPCELL_X1
XPHY_EDGE_ROW_187_Right_187 VDD VSS TAPCELL_X1
XPHY_EDGE_ROW_188_Right_188 VDD VSS TAPCELL_X1
XPHY_EDGE_ROW_189_Right_189 VDD VSS TAPCELL_X1
XPHY_EDGE_ROW_190_Right_190 VDD VSS TAPCELL_X1
XPHY_EDGE_ROW_191_Right_191 VDD VSS TAPCELL_X1
XPHY_EDGE_ROW_192_Right_192 VDD VSS TAPCELL_X1
XPHY_EDGE_ROW_193_Right_193 VDD VSS TAPCELL_X1
XPHY_EDGE_ROW_194_Right_194 VDD VSS TAPCELL_X1
XPHY_EDGE_ROW_195_Right_195 VDD VSS TAPCELL_X1
XPHY_EDGE_ROW_196_Right_196 VDD VSS TAPCELL_X1
XPHY_EDGE_ROW_197_Right_197 VDD VSS TAPCELL_X1
XPHY_EDGE_ROW_198_Right_198 VDD VSS TAPCELL_X1
XPHY_EDGE_ROW_199_Right_199 VDD VSS TAPCELL_X1
XPHY_EDGE_ROW_200_Right_200 VDD VSS TAPCELL_X1
XPHY_EDGE_ROW_201_Right_201 VDD VSS TAPCELL_X1
XPHY_EDGE_ROW_202_Right_202 VDD VSS TAPCELL_X1
XPHY_EDGE_ROW_203_Right_203 VDD VSS TAPCELL_X1
XPHY_EDGE_ROW_204_Right_204 VDD VSS TAPCELL_X1
XPHY_EDGE_ROW_205_Right_205 VDD VSS TAPCELL_X1
XPHY_EDGE_ROW_206_Right_206 VDD VSS TAPCELL_X1
XPHY_EDGE_ROW_207_Right_207 VDD VSS TAPCELL_X1
XPHY_EDGE_ROW_208_Right_208 VDD VSS TAPCELL_X1
XPHY_EDGE_ROW_209_Right_209 VDD VSS TAPCELL_X1
XPHY_EDGE_ROW_210_Right_210 VDD VSS TAPCELL_X1
XPHY_EDGE_ROW_211_Right_211 VDD VSS TAPCELL_X1
XPHY_EDGE_ROW_212_Right_212 VDD VSS TAPCELL_X1
XPHY_EDGE_ROW_213_Right_213 VDD VSS TAPCELL_X1
XPHY_EDGE_ROW_214_Right_214 VDD VSS TAPCELL_X1
XPHY_EDGE_ROW_215_Right_215 VDD VSS TAPCELL_X1
XPHY_EDGE_ROW_216_Right_216 VDD VSS TAPCELL_X1
XPHY_EDGE_ROW_217_Right_217 VDD VSS TAPCELL_X1
XPHY_EDGE_ROW_218_Right_218 VDD VSS TAPCELL_X1
XPHY_EDGE_ROW_219_Right_219 VDD VSS TAPCELL_X1
XPHY_EDGE_ROW_220_Right_220 VDD VSS TAPCELL_X1
XPHY_EDGE_ROW_221_Right_221 VDD VSS TAPCELL_X1
XPHY_EDGE_ROW_222_Right_222 VDD VSS TAPCELL_X1
XPHY_EDGE_ROW_223_Right_223 VDD VSS TAPCELL_X1
XPHY_EDGE_ROW_224_Right_224 VDD VSS TAPCELL_X1
XPHY_EDGE_ROW_225_Right_225 VDD VSS TAPCELL_X1
XPHY_EDGE_ROW_226_Right_226 VDD VSS TAPCELL_X1
XPHY_EDGE_ROW_227_Right_227 VDD VSS TAPCELL_X1
XPHY_EDGE_ROW_228_Right_228 VDD VSS TAPCELL_X1
XPHY_EDGE_ROW_229_Right_229 VDD VSS TAPCELL_X1
XPHY_EDGE_ROW_230_Right_230 VDD VSS TAPCELL_X1
XPHY_EDGE_ROW_231_Right_231 VDD VSS TAPCELL_X1
XPHY_EDGE_ROW_232_Right_232 VDD VSS TAPCELL_X1
XPHY_EDGE_ROW_233_Right_233 VDD VSS TAPCELL_X1
XPHY_EDGE_ROW_234_Right_234 VDD VSS TAPCELL_X1
XPHY_EDGE_ROW_235_Right_235 VDD VSS TAPCELL_X1
XPHY_EDGE_ROW_236_Right_236 VDD VSS TAPCELL_X1
XPHY_EDGE_ROW_237_Right_237 VDD VSS TAPCELL_X1
XPHY_EDGE_ROW_238_Right_238 VDD VSS TAPCELL_X1
XPHY_EDGE_ROW_239_Right_239 VDD VSS TAPCELL_X1
XPHY_EDGE_ROW_240_Right_240 VDD VSS TAPCELL_X1
XPHY_EDGE_ROW_241_Right_241 VDD VSS TAPCELL_X1
XPHY_EDGE_ROW_242_Right_242 VDD VSS TAPCELL_X1
XPHY_EDGE_ROW_243_Right_243 VDD VSS TAPCELL_X1
XPHY_EDGE_ROW_244_Right_244 VDD VSS TAPCELL_X1
XPHY_EDGE_ROW_245_Right_245 VDD VSS TAPCELL_X1