
* cell fir_filter
* pin data_in[7]
* pin data_out[6]
* pin data_out[8]
* pin data_out[18]
* pin data_out[14]
* pin data_out[16]
* pin data_out[12]
* pin data_out[15]
* pin data_out[13]
* pin data_out[17]
* pin data_in[6]
* pin data_out[11]
* pin data_out[10]
* pin data_out[7]
* pin data_out[9]
* pin data_valid
* pin data_out_valid
* pin data_out[2]
* pin rst_n
* pin data_in[5]
* pin clk
* pin data_out[1]
* pin data_out[0]
* pin data_out[3]
* pin data_out[4]
* pin data_in[0]
* pin data_in[4]
* pin data_in[3]
* pin data_out[5]
* pin data_in[2]
* pin data_in[1]
.SUBCKT fir_filter 1 2 3 4 5 6 7 57 63 74 85 90 103 120 121 130 138 144 145 154
+ 161 169 181 189 198 212 221 265 267 268 271
* net 1 data_in[7]
* net 2 data_out[6]
* net 3 data_out[8]
* net 4 data_out[18]
* net 5 data_out[14]
* net 6 data_out[16]
* net 7 data_out[12]
* net 57 data_out[15]
* net 63 data_out[13]
* net 74 data_out[17]
* net 85 data_in[6]
* net 90 data_out[11]
* net 103 data_out[10]
* net 120 data_out[7]
* net 121 data_out[9]
* net 130 data_valid
* net 138 data_out_valid
* net 144 data_out[2]
* net 145 rst_n
* net 154 data_in[5]
* net 161 clk
* net 169 data_out[1]
* net 181 data_out[0]
* net 189 data_out[3]
* net 198 data_out[4]
* net 212 data_in[0]
* net 221 data_in[4]
* net 265 data_in[3]
* net 267 data_out[5]
* net 268 data_in[2]
* net 271 data_in[1]
* cell instance $2 r0 *1 17.48,2.72
X$2 17 1 10 8 17 8 sky130_fd_sc_hd__clkbuf_1
* cell instance $6 r0 *1 31.74,2.72
X$6 17 19 2 8 17 8 sky130_fd_sc_hd__clkbuf_1
* cell instance $9 r0 *1 43.7,2.72
X$9 17 21 3 8 17 8 sky130_fd_sc_hd__clkbuf_1
* cell instance $12 r0 *1 57.04,2.72
X$12 17 9 4 8 17 8 sky130_fd_sc_hd__clkbuf_1
* cell instance $15 m0 *1 55.2,8.16
X$15 17 16 5 8 17 8 sky130_fd_sc_hd__clkbuf_1
* cell instance $18 m0 *1 51.06,8.16
X$18 17 11 6 8 17 8 sky130_fd_sc_hd__clkbuf_1
* cell instance $21 r0 *1 45.08,2.72
X$21 17 13 7 8 17 8 sky130_fd_sc_hd__clkbuf_1
* cell instance $50 r0 *1 46.46,2.72
X$50 8 26 11 14 12 17 17 8 sky130_fd_sc_hd__dfrtp_1
* cell instance $71 m0 *1 30.82,8.16
X$71 8 30 31 19 15 17 17 8 sky130_fd_sc_hd__mux2_1
* cell instance $74 m0 *1 37.72,8.16
X$74 8 26 21 14 20 17 17 8 sky130_fd_sc_hd__dfrtp_1
* cell instance $78 m0 *1 47.84,8.16
X$78 17 22 13 18 8 17 8 sky130_fd_sc_hd__nor2_1
* cell instance $80 m0 *1 49.68,8.16
X$80 17 22 16 52 8 17 8 sky130_fd_sc_hd__nor2_1
* cell instance $83 m0 *1 53.82,8.16
X$83 17 32 25 33 8 17 8 sky130_fd_sc_hd__nor2_1
* cell instance $87 m0 *1 59.8,8.16
X$87 8 26 23 14 24 17 17 8 sky130_fd_sc_hd__dfrtp_1
* cell instance $99 r0 *1 15.64,8.16
X$99 8 26 37 27 36 17 17 8 sky130_fd_sc_hd__dfrtp_1
* cell instance $102 r0 *1 27.14,8.16
X$102 8 26 19 27 30 17 17 8 sky130_fd_sc_hd__dfrtp_1
* cell instance $103 r0 *1 36.34,8.16
X$103 8 39 34 40 15 17 17 8 sky130_fd_sc_hd__mux2_1
* cell instance $105 r0 *1 41.4,8.16
X$105 17 22 21 46 8 17 8 sky130_fd_sc_hd__nor2_1
* cell instance $108 r0 *1 43.24,8.16
X$108 8 26 13 14 28 17 17 8 sky130_fd_sc_hd__dfrtp_1
* cell instance $109 r0 *1 52.44,8.16
X$109 8 26 9 14 33 17 17 8 sky130_fd_sc_hd__dfrtp_1
* cell instance $110 r0 *1 61.64,8.16
X$110 17 22 29 35 8 17 8 sky130_fd_sc_hd__nor2_1
* cell instance $126 m0 *1 15.64,13.6
X$126 8 36 10 37 73 17 17 8 sky130_fd_sc_hd__mux2_1
* cell instance $127 m0 *1 19.78,13.6
X$127 8 26 34 27 43 17 17 8 sky130_fd_sc_hd__dfrtp_1
* cell instance $129 m0 *1 29.44,13.6
X$129 8 26 40 14 39 17 17 8 sky130_fd_sc_hd__dfrtp_2
* cell instance $132 m0 *1 41.4,13.6
X$132 17 46 22 41 8 17 20 8 sky130_fd_sc_hd__a21oi_1
* cell instance $133 m0 *1 43.24,13.6
X$133 8 26 16 14 42 17 17 8 sky130_fd_sc_hd__dfrtp_1
* cell instance $134 m0 *1 52.44,13.6
X$134 17 22 11 51 8 17 8 sky130_fd_sc_hd__nor2_1
* cell instance $135 m0 *1 53.82,13.6
X$135 17 22 9 25 8 17 8 sky130_fd_sc_hd__nor2_1
* cell instance $139 m0 *1 57.04,13.6
X$139 17 22 65 50 8 17 8 sky130_fd_sc_hd__nor2_1
* cell instance $140 m0 *1 58.42,13.6
X$140 17 22 38 45 8 17 8 sky130_fd_sc_hd__nor2_1
* cell instance $141 m0 *1 59.8,13.6
X$141 17 49 35 44 8 17 8 sky130_fd_sc_hd__nor2_1
* cell instance $142 m0 *1 61.18,13.6
X$142 8 26 29 14 44 17 17 8 sky130_fd_sc_hd__dfrtp_1
* cell instance $152 r0 *1 19.78,13.6
X$152 8 26 47 27 64 17 17 8 sky130_fd_sc_hd__dfrtp_1
* cell instance $153 r0 *1 28.98,13.6
X$153 8 59 66 37 34 47 17 17 8 sky130_fd_sc_hd__fa_1
* cell instance $162 r0 *1 48.3,13.6
X$162 17 32 18 28 8 17 8 sky130_fd_sc_hd__nor2_1
* cell instance $163 r0 *1 49.68,13.6
X$163 17 32 52 42 8 17 8 sky130_fd_sc_hd__nor2_1
* cell instance $164 r0 *1 51.06,13.6
X$164 17 32 51 12 8 17 8 sky130_fd_sc_hd__nor2_1
* cell instance $167 r0 *1 53.82,13.6
X$167 17 53 8 22 17 8 sky130_fd_sc_hd__buf_2
* cell instance $168 r0 *1 55.66,13.6
X$168 17 49 45 58 8 17 8 sky130_fd_sc_hd__nor2_1
* cell instance $169 r0 *1 57.04,13.6
X$169 17 22 23 48 8 17 8 sky130_fd_sc_hd__nor2_1
* cell instance $170 r0 *1 58.42,13.6
X$170 17 49 48 24 8 17 8 sky130_fd_sc_hd__nor2_1
* cell instance $171 r0 *1 59.8,13.6
X$171 8 26 38 14 58 17 17 8 sky130_fd_sc_hd__dfrtp_1
* cell instance $173 r0 *1 69,13.6
X$173 17 38 57 8 17 8 sky130_fd_sc_hd__clkbuf_1
* cell instance $183 m0 *1 7.36,19.04
X$183 8 83 108 78 54 17 17 8 sky130_fd_sc_hd__mux2_1
* cell instance $187 m0 *1 20.7,19.04
X$187 8 64 37 47 54 17 17 8 sky130_fd_sc_hd__mux2_1
* cell instance $188 m0 *1 24.84,19.04
X$188 8 43 47 34 61 17 17 8 sky130_fd_sc_hd__mux2_1
* cell instance $191 m0 *1 31.28,19.04
X$191 8 55 67 40 59 66 17 17 8 sky130_fd_sc_hd__fa_1
* cell instance $192 m0 *1 38.64,19.04
X$192 8 60 62 67 55 17 17 8 sky130_fd_sc_hd__ha_1
* cell instance $193 m0 *1 43.24,19.04
X$193 17 72 56 71 8 17 70 8 sky130_fd_sc_hd__a21oi_1
* cell instance $194 m0 *1 45.08,19.04
X$194 17 62 72 60 77 8 17 8 sky130_fd_sc_hd__nor3b_1
* cell instance $195 m0 *1 47.84,19.04
X$195 17 62 17 8 69 8 sky130_fd_sc_hd__inv_1
* cell instance $196 m0 *1 49.22,19.04
X$196 17 56 17 8 68 8 sky130_fd_sc_hd__inv_1
* cell instance $197 m0 *1 50.6,19.04
X$197 17 60 53 69 17 8 76 8 sky130_fd_sc_hd__o21ai_1
* cell instance $200 m0 *1 53.82,19.04
X$200 17 53 17 8 73 8 sky130_fd_sc_hd__buf_4
* cell instance $204 m0 *1 58.42,19.04
X$204 17 49 50 75 8 17 8 sky130_fd_sc_hd__nor2_1
* cell instance $205 m0 *1 59.8,19.04
X$205 8 26 65 14 75 17 17 8 sky130_fd_sc_hd__dfrtp_1
* cell instance $206 m0 *1 69,19.04
X$206 17 29 74 8 17 8 sky130_fd_sc_hd__clkbuf_1
* cell instance $209 r0 *1 5.98,19.04
X$209 8 26 78 27 83 17 17 8 sky130_fd_sc_hd__dfrtp_1
* cell instance $213 r0 *1 16.56,19.04
X$213 8 91 78 84 61 17 17 8 sky130_fd_sc_hd__mux2_1
* cell instance $215 r0 *1 21.16,19.04
X$215 8 79 92 37 84 78 17 17 8 sky130_fd_sc_hd__fa_1
* cell instance $218 r0 *1 30.82,19.04
X$218 8 80 94 40 79 66 17 17 8 sky130_fd_sc_hd__fa_1
* cell instance $219 r0 *1 38.18,19.04
X$219 8 56 72 67 80 17 17 8 sky130_fd_sc_hd__ha_1
* cell instance $222 r0 *1 43.24,19.04
X$222 17 71 82 111 8 17 87 8 sky130_fd_sc_hd__a21oi_1
* cell instance $223 r0 *1 45.08,19.04
X$223 8 81 14 17 17 8 sky130_fd_sc_hd__clkbuf_8
* cell instance $224 r0 *1 50.14,19.04
X$224 8 32 77 97 88 76 17 17 8 sky130_fd_sc_hd__a31oi_2
* cell instance $225 r0 *1 54.74,19.04
X$225 17 68 77 76 8 17 95 8 sky130_fd_sc_hd__a21o_1
* cell instance $226 r0 *1 57.5,19.04
X$226 17 53 17 8 54 8 sky130_fd_sc_hd__buf_4
* cell instance $227 r0 *1 60.26,19.04
X$227 17 53 17 8 61 8 sky130_fd_sc_hd__buf_4
* cell instance $228 r0 *1 63.02,19.04
X$228 17 53 17 8 15 8 sky130_fd_sc_hd__buf_4
* cell instance $230 r0 *1 67.62,19.04
X$230 17 23 63 8 17 8 sky130_fd_sc_hd__clkbuf_1
* cell instance $232 r0 *1 69,19.04
X$232 17 65 90 8 17 8 sky130_fd_sc_hd__clkbuf_1
* cell instance $241 m0 *1 2.76,24.48
X$241 17 85 98 8 17 8 sky130_fd_sc_hd__clkbuf_1
* cell instance $242 m0 *1 4.14,24.48
X$242 8 26 108 27 113 17 17 8 sky130_fd_sc_hd__dfrtp_1
* cell instance $243 m0 *1 13.34,24.48
X$243 8 26 84 27 91 17 17 8 sky130_fd_sc_hd__dfrtp_1
* cell instance $245 m0 *1 23.46,24.48
X$245 8 81 27 17 17 8 sky130_fd_sc_hd__clkbuf_8
* cell instance $248 m0 *1 29.44,24.48
X$248 8 86 105 40 93 92 17 17 8 sky130_fd_sc_hd__fa_1
* cell instance $249 m0 *1 36.8,24.48
X$249 8 82 71 94 86 17 17 8 sky130_fd_sc_hd__ha_1
* cell instance $250 m0 *1 41.4,24.48
X$250 17 99 82 17 41 8 8 sky130_fd_sc_hd__xor2_1
* cell instance $252 m0 *1 45.54,24.48
X$252 17 60 88 70 8 17 96 8 sky130_fd_sc_hd__a21boi_0
* cell instance $253 m0 *1 48.3,24.48
X$253 8 49 107 87 77 95 17 17 8 sky130_fd_sc_hd__a31oi_2
* cell instance $254 m0 *1 52.9,24.48
X$254 17 101 96 106 100 17 8 104 8 sky130_fd_sc_hd__o31ai_1
* cell instance $257 m0 *1 57.04,24.48
X$257 8 26 102 14 104 17 17 8 sky130_fd_sc_hd__dfrtp_1
* cell instance $258 m0 *1 66.24,24.48
X$258 17 101 102 100 17 8 8 sky130_fd_sc_hd__nand2_1
* cell instance $259 m0 *1 67.62,24.48
X$259 17 89 121 8 17 8 sky130_fd_sc_hd__clkbuf_1
* cell instance $260 m0 *1 69,24.48
X$260 17 102 103 8 17 8 sky130_fd_sc_hd__clkbuf_1
* cell instance $263 r0 *1 5.52,24.48
X$263 8 113 98 108 73 17 17 8 sky130_fd_sc_hd__mux2_1
* cell instance $264 r0 *1 9.66,24.48
X$264 8 132 114 109 54 17 17 8 sky130_fd_sc_hd__mux2_1
* cell instance $269 r0 *1 15.64,24.48
X$269 8 93 148 108 123 109 17 17 8 sky130_fd_sc_hd__fa_1
* cell instance $272 r0 *1 24.38,24.48
X$272 8 124 84 127 15 17 17 8 sky130_fd_sc_hd__mux2_1
* cell instance $275 r0 *1 30.82,24.48
X$275 17 110 136 17 31 8 8 sky130_fd_sc_hd__xor2_1
* cell instance $276 r0 *1 34.04,24.48
X$276 17 126 117 119 8 17 8 sky130_fd_sc_hd__nand2b_1
* cell instance $280 r0 *1 39.56,24.48
X$280 17 111 110 119 17 99 8 8 sky130_fd_sc_hd__o21ai_0
* cell instance $281 r0 *1 41.4,24.48
X$281 17 56 71 97 17 8 8 sky130_fd_sc_hd__nand2_1
* cell instance $284 r0 *1 43.24,24.48
X$284 8 82 88 56 119 110 111 17 17 8 sky130_fd_sc_hd__o2111ai_2
* cell instance $285 r0 *1 48.76,24.48
X$285 17 70 88 60 106 8 17 8 sky130_fd_sc_hd__and3b_1
* cell instance $287 r0 *1 52.44,24.48
X$287 17 53 112 125 8 17 8 sky130_fd_sc_hd__nor2b_1
* cell instance $288 r0 *1 54.74,24.48
X$288 8 26 89 14 116 17 17 8 sky130_fd_sc_hd__dfrtp_1
* cell instance $289 r0 *1 63.94,24.48
X$289 17 101 89 122 17 8 8 sky130_fd_sc_hd__nand2_1
* cell instance $290 r0 *1 65.32,24.48
X$290 17 115 17 8 53 8 sky130_fd_sc_hd__clkbuf_2
* cell instance $292 r0 *1 68.08,24.48
X$292 17 112 120 8 17 8 sky130_fd_sc_hd__clkbuf_1
* cell instance $305 m0 *1 8.28,29.92
X$305 8 26 109 27 132 17 17 8 sky130_fd_sc_hd__dfrtp_1
* cell instance $307 m0 *1 18.4,29.92
X$307 8 26 127 27 124 17 17 8 sky130_fd_sc_hd__dfrtp_1
* cell instance $311 m0 *1 29.44,29.92
X$311 17 27 17 8 8 sky130_fd_sc_hd__clkinvlp_4
* cell instance $313 m0 *1 32.66,29.92
X$313 8 129 117 105 133 17 17 8 sky130_fd_sc_hd__ha_1
* cell instance $315 m0 *1 37.72,29.92
X$315 17 129 118 117 8 17 111 8 sky130_fd_sc_hd__a21o_1
* cell instance $316 m0 *1 40.48,29.92
X$316 17 129 118 128 134 17 8 8 sky130_fd_sc_hd__or3_1
* cell instance $318 m0 *1 43.7,29.92
X$318 8 26 112 14 141 17 17 8 sky130_fd_sc_hd__dfrtp_1
* cell instance $320 m0 *1 53.36,29.92
X$320 17 101 135 153 122 17 8 116 8 sky130_fd_sc_hd__o31ai_1
* cell instance $325 m0 *1 58.42,29.92
X$325 17 15 17 8 101 8 sky130_fd_sc_hd__inv_1
* cell instance $326 m0 *1 59.8,29.92
X$326 8 26 131 14 115 17 17 8 sky130_fd_sc_hd__dfrtp_1
* cell instance $327 m0 *1 69,29.92
X$327 17 130 115 8 17 8 sky130_fd_sc_hd__clkbuf_1
* cell instance $330 r0 *1 5.52,29.92
X$330 8 26 123 27 139 17 17 8 sky130_fd_sc_hd__dfrtp_1
* cell instance $336 r0 *1 17.94,29.92
X$336 8 146 123 147 15 17 17 8 sky130_fd_sc_hd__mux2_1
* cell instance $337 r0 *1 22.08,29.92
X$337 8 133 150 127 149 148 17 17 8 sky130_fd_sc_hd__fa_1
* cell instance $339 r0 *1 30.36,29.92
X$339 8 136 118 150 152 17 17 8 sky130_fd_sc_hd__ha_1
* cell instance $340 r0 *1 34.96,29.92
X$340 17 136 118 129 17 126 8 8 sky130_fd_sc_hd__o21ai_0
* cell instance $343 r0 *1 38.18,29.92
X$343 17 136 129 82 160 17 8 8 sky130_fd_sc_hd__nand3_1
* cell instance $344 r0 *1 40.02,29.92
X$344 17 118 128 129 17 137 8 8 sky130_fd_sc_hd__o21ai_0
* cell instance $349 r0 *1 44.16,29.92
X$349 8 141 134 137 73 125 17 17 8 sky130_fd_sc_hd__a31o_1
* cell instance $353 r0 *1 50.6,29.92
X$353 17 68 87 107 8 17 153 8 sky130_fd_sc_hd__a21oi_1
* cell instance $354 r0 *1 52.44,29.92
X$354 8 87 135 68 107 17 17 8 sky130_fd_sc_hd__and3_1
* cell instance $357 r0 *1 56.12,29.92
X$357 17 151 101 142 17 140 8 8 sky130_fd_sc_hd__o21ai_0
* cell instance $358 r0 *1 57.96,29.92
X$358 8 26 143 14 140 17 17 8 sky130_fd_sc_hd__dfrtp_1
* cell instance $359 r0 *1 67.16,29.92
X$359 17 101 143 142 17 8 8 sky130_fd_sc_hd__nand2_1
* cell instance $362 r0 *1 69,29.92
X$362 17 131 138 8 17 8 sky130_fd_sc_hd__clkbuf_1
* cell instance $371 m0 *1 2.76,35.36
X$371 8 26 114 159 157 17 17 8 sky130_fd_sc_hd__dfrtp_1
* cell instance $373 m0 *1 12.88,35.36
X$373 8 139 109 123 61 17 17 8 sky130_fd_sc_hd__mux2_1
* cell instance $375 m0 *1 17.94,35.36
X$375 8 26 147 159 146 17 17 8 sky130_fd_sc_hd__dfrtp_1
* cell instance $380 m0 *1 32.2,35.36
X$380 8 161 81 17 17 8 sky130_fd_sc_hd__clkbuf_8
* cell instance $383 m0 *1 39.56,35.36
X$383 17 136 155 156 8 17 128 8 sky130_fd_sc_hd__a21boi_0
* cell instance $384 m0 *1 42.32,35.36
X$384 17 155 156 160 8 17 107 8 sky130_fd_sc_hd__a21o_1
* cell instance $390 m0 *1 57.04,35.36
X$390 17 145 17 158 8 8 sky130_fd_sc_hd__dlygate4sd3_1
* cell instance $391 m0 *1 60.72,35.36
X$391 8 158 26 17 17 8 sky130_fd_sc_hd__buf_12
* cell instance $393 m0 *1 69,35.36
X$393 17 143 144 8 17 8 sky130_fd_sc_hd__clkbuf_1
* cell instance $396 r0 *1 4.14,35.36
X$396 17 154 162 8 17 8 sky130_fd_sc_hd__clkbuf_1
* cell instance $397 r0 *1 5.52,35.36
X$397 8 157 162 114 73 17 17 8 sky130_fd_sc_hd__mux2_1
* cell instance $405 r0 *1 21.62,35.36
X$405 8 152 173 147 172 171 17 17 8 sky130_fd_sc_hd__fa_1
* cell instance $406 r0 *1 28.98,35.36
X$406 8 167 163 173 174 17 17 8 sky130_fd_sc_hd__ha_1
* cell instance $410 r0 *1 36.8,35.36
X$410 17 163 167 176 8 17 155 8 sky130_fd_sc_hd__a21oi_1
* cell instance $411 r0 *1 38.64,35.36
X$411 17 164 177 165 17 175 8 8 sky130_fd_sc_hd__o21a_1
* cell instance $416 r0 *1 43.24,35.36
X$416 17 165 177 164 167 156 17 8 8 sky130_fd_sc_hd__o211ai_1
* cell instance $420 r0 *1 55.2,35.36
X$420 8 168 213 166 15 17 17 8 sky130_fd_sc_hd__mux2_1
* cell instance $421 r0 *1 59.34,35.36
X$421 8 26 166 170 168 17 17 8 sky130_fd_sc_hd__dfrtp_1
* cell instance $422 r0 *1 68.54,35.36
X$422 17 166 169 8 17 8 sky130_fd_sc_hd__clkbuf_1
* cell instance $433 m0 *1 5.98,40.8
X$433 8 26 183 159 199 17 17 8 sky130_fd_sc_hd__dfrtp_1
* cell instance $434 m0 *1 15.18,40.8
X$434 8 149 171 114 183 190 17 17 8 sky130_fd_sc_hd__fa_1
* cell instance $437 m0 *1 24.84,40.8
X$437 8 191 192 193 61 17 17 8 sky130_fd_sc_hd__mux2_1
* cell instance $441 m0 *1 34.04,40.8
X$441 17 185 167 214 17 8 8 sky130_fd_sc_hd__xnor2_1
* cell instance $443 m0 *1 37.72,40.8
X$443 17 176 175 185 8 17 8 sky130_fd_sc_hd__nor2_1
* cell instance $445 m0 *1 39.56,40.8
X$445 17 187 165 167 164 178 17 8 8 sky130_fd_sc_hd__o211ai_1
* cell instance $446 m0 *1 42.32,40.8
X$446 17 208 178 155 8 110 17 8 sky130_fd_sc_hd__o21ai_2
* cell instance $447 m0 *1 45.54,40.8
X$447 17 206 164 179 17 8 8 sky130_fd_sc_hd__xnor2_1
* cell instance $449 m0 *1 52.44,40.8
X$449 8 184 179 188 15 17 17 8 sky130_fd_sc_hd__mux2_1
* cell instance $452 m0 *1 57.96,40.8
X$452 8 26 180 170 182 17 17 8 sky130_fd_sc_hd__dfrtp_1
* cell instance $454 m0 *1 69,40.8
X$454 17 180 181 8 17 8 sky130_fd_sc_hd__clkbuf_1
* cell instance $457 r0 *1 5.52,40.8
X$457 8 26 190 159 200 17 17 8 sky130_fd_sc_hd__dfrtp_1
* cell instance $461 r0 *1 15.64,40.8
X$461 8 26 186 159 202 17 17 8 sky130_fd_sc_hd__dfrtp_1
* cell instance $463 r0 *1 25.3,40.8
X$463 8 174 207 186 259 203 17 17 8 sky130_fd_sc_hd__fa_1
* cell instance $465 r0 *1 33.12,40.8
X$465 8 164 176 207 237 17 17 8 sky130_fd_sc_hd__ha_1
* cell instance $468 r0 *1 40.48,40.8
X$468 17 195 187 177 8 17 8 sky130_fd_sc_hd__nor2b_1
* cell instance $472 r0 *1 43.7,40.8
X$472 17 195 187 201 17 8 8 sky130_fd_sc_hd__xnor2_1
* cell instance $474 r0 *1 47.38,40.8
X$474 8 195 151 204 205 215 17 17 8 sky130_fd_sc_hd__fa_1
* cell instance $475 r0 *1 54.74,40.8
X$475 8 26 188 170 184 17 17 8 sky130_fd_sc_hd__dfrtp_1
* cell instance $480 r0 *1 69,40.8
X$480 17 188 198 8 17 8 sky130_fd_sc_hd__clkbuf_1
* cell instance $489 m0 *1 6.9,46.24
X$489 8 200 194 190 54 17 17 8 sky130_fd_sc_hd__mux2_1
* cell instance $490 m0 *1 11.04,46.24
X$490 8 199 190 183 61 17 17 8 sky130_fd_sc_hd__mux2_1
* cell instance $491 m0 *1 15.18,46.24
X$491 8 202 183 186 61 17 17 8 sky130_fd_sc_hd__mux2_1
* cell instance $492 m0 *1 19.32,46.24
X$492 8 172 203 194 192 228 17 17 8 sky130_fd_sc_hd__fa_1
* cell instance $499 m0 *1 32.66,46.24
X$499 8 226 214 227 15 17 17 8 sky130_fd_sc_hd__mux2_1
* cell instance $501 m0 *1 37.26,46.24
X$501 8 187 165 216 217 17 17 8 sky130_fd_sc_hd__ha_1
* cell instance $502 m0 *1 41.86,46.24
X$502 17 197 219 165 196 8 208 17 8 sky130_fd_sc_hd__a211oi_1
* cell instance $503 m0 *1 44.62,46.24
X$503 17 165 187 220 8 17 206 8 sky130_fd_sc_hd__a21oi_1
* cell instance $504 m0 *1 46.46,46.24
X$504 17 219 197 196 8 17 220 8 sky130_fd_sc_hd__a21o_1
* cell instance $505 m0 *1 49.22,46.24
X$505 17 218 17 8 204 8 sky130_fd_sc_hd__inv_1
* cell instance $507 m0 *1 51.06,46.24
X$507 17 197 17 8 205 8 sky130_fd_sc_hd__inv_1
* cell instance $512 m0 *1 57.96,46.24
X$512 8 26 211 170 210 17 17 8 sky130_fd_sc_hd__dfrtp_1
* cell instance $514 m0 *1 69,46.24
X$514 17 211 189 8 17 8 sky130_fd_sc_hd__clkbuf_1
* cell instance $517 r0 *1 3.68,46.24
X$517 8 26 194 159 231 17 17 8 sky130_fd_sc_hd__dfrtp_1
* cell instance $522 r0 *1 15.64,46.24
X$522 8 26 192 159 232 17 17 8 sky130_fd_sc_hd__dfrtp_1
* cell instance $523 r0 *1 24.84,46.24
X$523 8 81 159 17 17 8 sky130_fd_sc_hd__clkbuf_8
* cell instance $524 r0 *1 29.9,46.24
X$524 8 26 227 159 226 17 17 8 sky130_fd_sc_hd__dfrtp_1
* cell instance $528 r0 *1 43.24,46.24
X$528 17 170 274 8 17 8 sky130_fd_sc_hd__clkbuf_1
* cell instance $531 r0 *1 46,46.24
X$531 8 219 196 218 209 17 17 8 sky130_fd_sc_hd__ha_1
* cell instance $532 r0 *1 50.6,46.24
X$532 17 209 17 8 215 8 sky130_fd_sc_hd__inv_1
* cell instance $533 r0 *1 51.98,46.24
X$533 8 223 209 225 224 17 17 8 sky130_fd_sc_hd__ha_1
* cell instance $534 r0 *1 56.58,46.24
X$534 8 213 197 223 236 17 17 8 sky130_fd_sc_hd__ha_1
* cell instance $535 r0 *1 61.18,46.24
X$535 8 182 222 180 15 17 17 8 sky130_fd_sc_hd__mux2_1
* cell instance $536 r0 *1 65.32,46.24
X$536 8 210 201 211 15 17 17 8 sky130_fd_sc_hd__mux2_1
* cell instance $545 m0 *1 1.38,51.68
X$545 17 221 230 8 17 8 sky130_fd_sc_hd__clkbuf_1
* cell instance $548 m0 *1 5.52,51.68
X$548 8 231 230 194 73 17 17 8 sky130_fd_sc_hd__mux2_1
* cell instance $552 m0 *1 15.64,51.68
X$552 8 232 228 192 61 17 17 8 sky130_fd_sc_hd__mux2_1
* cell instance $553 m0 *1 19.78,51.68
X$553 8 26 193 159 191 17 17 8 sky130_fd_sc_hd__dfrtp_1
* cell instance $556 m0 *1 33.12,51.68
X$556 8 237 216 193 238 261 17 17 8 sky130_fd_sc_hd__fa_1
* cell instance $557 m0 *1 40.48,51.68
X$557 8 238 239 253 229 249 17 17 8 sky130_fd_sc_hd__fa_1
* cell instance $558 m0 *1 47.84,51.68
X$558 8 240 229 225 61 17 17 8 sky130_fd_sc_hd__mux2_1
* cell instance $564 m0 *1 61.64,51.68
X$564 8 222 236 235 234 17 17 8 sky130_fd_sc_hd__ha_1
* cell instance $567 m0 *1 67.62,51.68
X$567 17 212 233 8 17 8 sky130_fd_sc_hd__clkbuf_1
* cell instance $578 r0 *1 15.64,51.68
X$578 8 241 242 228 54 17 17 8 sky130_fd_sc_hd__mux2_1
* cell instance $579 r0 *1 19.78,51.68
X$579 8 159 273 17 17 8 sky130_fd_sc_hd__clkbuf_8
* cell instance $580 r0 *1 24.84,51.68
X$580 8 26 248 159 251 17 17 8 sky130_fd_sc_hd__dfrtp_1
* cell instance $582 r0 *1 37.72,51.68
X$582 8 81 170 17 17 8 sky130_fd_sc_hd__clkbuf_8
* cell instance $586 r0 *1 43.24,51.68
X$586 8 217 218 247 246 239 17 17 8 sky130_fd_sc_hd__fa_1
* cell instance $587 r0 *1 50.6,51.68
X$587 8 246 224 258 244 245 17 17 8 sky130_fd_sc_hd__fa_1
* cell instance $588 r0 *1 57.96,51.68
X$588 8 250 244 234 61 17 17 8 sky130_fd_sc_hd__mux2_1
* cell instance $589 r0 *1 62.1,51.68
X$589 8 243 233 235 73 17 17 8 sky130_fd_sc_hd__mux2_1
* cell instance $601 m0 *1 13.34,57.12
X$601 8 26 228 159 241 17 17 8 sky130_fd_sc_hd__dfrtp_1
* cell instance $604 m0 *1 24.84,57.12
X$604 8 251 254 248 54 17 17 8 sky130_fd_sc_hd__mux2_1
* cell instance $609 m0 *1 32.66,57.12
X$609 8 26 247 170 252 17 17 8 sky130_fd_sc_hd__dfrtp_1
* cell instance $610 m0 *1 41.86,57.12
X$610 8 256 249 229 54 17 17 8 sky130_fd_sc_hd__mux2_1
* cell instance $611 m0 *1 46,57.12
X$611 8 26 225 170 240 17 17 8 sky130_fd_sc_hd__dfrtp_1
* cell instance $616 m0 *1 57.5,57.12
X$616 8 26 234 170 250 17 17 8 sky130_fd_sc_hd__dfrtp_1
* cell instance $625 r0 *1 15.64,57.12
X$625 8 257 266 242 73 17 17 8 sky130_fd_sc_hd__mux2_1
* cell instance $629 r0 *1 27.6,57.12
X$629 8 26 253 170 255 17 17 8 sky130_fd_sc_hd__dfrtp_1
* cell instance $630 r0 *1 36.8,57.12
X$630 8 252 248 247 61 17 17 8 sky130_fd_sc_hd__mux2_1
* cell instance $634 r0 *1 43.24,57.12
X$634 8 26 229 170 256 17 17 8 sky130_fd_sc_hd__dfrtp_1
* cell instance $637 r0 *1 56.58,57.12
X$637 8 262 245 244 54 17 17 8 sky130_fd_sc_hd__mux2_1
* cell instance $639 r0 *1 61.18,57.12
X$639 8 26 235 170 243 17 17 8 sky130_fd_sc_hd__dfrtp_1
* cell instance $652 m0 *1 13.8,62.56
X$652 8 26 242 159 257 17 17 8 sky130_fd_sc_hd__dfrtp_1
* cell instance $654 m0 *1 24.84,62.56
X$654 8 263 253 254 54 17 17 8 sky130_fd_sc_hd__mux2_1
* cell instance $656 m0 *1 29.44,62.56
X$656 8 259 261 242 248 254 17 17 8 sky130_fd_sc_hd__fa_1
* cell instance $658 m0 *1 37.72,62.56
X$658 8 26 249 170 260 17 17 8 sky130_fd_sc_hd__dfrtp_1
* cell instance $659 m0 *1 46.92,62.56
X$659 8 26 258 170 270 17 17 8 sky130_fd_sc_hd__dfrtp_1
* cell instance $664 m0 *1 61.18,62.56
X$664 8 264 235 245 73 17 17 8 sky130_fd_sc_hd__mux2_1
* cell instance $679 r0 *1 24.38,62.56
X$679 8 26 254 159 263 17 17 8 sky130_fd_sc_hd__dfrtp_1
* cell instance $680 r0 *1 33.58,62.56
X$680 8 255 269 253 73 17 17 8 sky130_fd_sc_hd__mux2_1
* cell instance $686 r0 *1 43.24,62.56
X$686 8 260 258 249 54 17 17 8 sky130_fd_sc_hd__mux2_1
* cell instance $687 r0 *1 47.38,62.56
X$687 8 270 272 258 73 17 17 8 sky130_fd_sc_hd__mux2_1
* cell instance $689 r0 *1 51.98,62.56
X$689 8 26 244 170 262 17 17 8 sky130_fd_sc_hd__dfrtp_1
* cell instance $690 r0 *1 61.18,62.56
X$690 8 26 245 170 264 17 17 8 sky130_fd_sc_hd__dfrtp_1
* cell instance $705 m0 *1 16.56,68
X$705 17 265 266 8 17 8 sky130_fd_sc_hd__clkbuf_1
* cell instance $711 m0 *1 31.28,68
X$711 17 268 269 8 17 8 sky130_fd_sc_hd__clkbuf_1
* cell instance $712 m0 *1 32.66,68
X$712 17 227 267 8 17 8 sky130_fd_sc_hd__clkbuf_1
* cell instance $721 m0 *1 49.22,68
X$721 17 271 272 8 17 8 sky130_fd_sc_hd__clkbuf_1
.ENDS fir_filter

* cell sky130_fd_sc_hd__buf_2
* pin VPB
* pin A
* pin VGND
* pin X
* pin VPWR
* pin 
.SUBCKT sky130_fd_sc_hd__buf_2 1 3 4 5 6 7
* net 1 VPB
* net 3 A
* net 4 VGND
* net 5 X
* net 6 VPWR
* device instance $1 r0 *1 0.47,2.125 pfet_01v8_hvt
M$1 2 3 6 1 pfet_01v8_hvt L=150000U W=640000U AS=149000000000P AD=166400000000P
+ PS=1325000U PD=1800000U
* device instance $2 r0 *1 0.945,1.985 pfet_01v8_hvt
M$2 5 2 6 1 pfet_01v8_hvt L=150000U W=2000000U AS=284000000000P
+ AD=400000000000P PS=2595000U PD=3800000U
* device instance $4 r0 *1 0.47,0.445 nfet_01v8
M$4 4 3 2 7 nfet_01v8 L=150000U W=420000U AS=109200000000P AD=97000000000P
+ PS=1360000U PD=975000U
* device instance $5 r0 *1 0.945,0.56 nfet_01v8
M$5 5 2 4 7 nfet_01v8 L=150000U W=1300000U AS=184750000000P AD=260000000000P
+ PS=1895000U PD=2750000U
.ENDS sky130_fd_sc_hd__buf_2

* cell sky130_fd_sc_hd__and3b_1
* pin VPB
* pin C
* pin B
* pin A_N
* pin X
* pin VGND
* pin VPWR
* pin 
.SUBCKT sky130_fd_sc_hd__and3b_1 1 2 3 5 7 8 9 10
* net 1 VPB
* net 2 C
* net 3 B
* net 5 A_N
* net 7 X
* net 8 VGND
* net 9 VPWR
* device instance $1 r0 *1 2.275,1.695 pfet_01v8_hvt
M$1 9 2 6 1 pfet_01v8_hvt L=150000U W=420000U AS=74375000000P AD=142225000000P
+ PS=815000U PD=1335000U
* device instance $2 r0 *1 1.38,1.765 pfet_01v8_hvt
M$2 9 4 6 1 pfet_01v8_hvt L=150000U W=420000U AS=108500000000P AD=56700000000P
+ PS=1360000U PD=690000U
* device instance $3 r0 *1 1.8,1.765 pfet_01v8_hvt
M$3 9 3 6 1 pfet_01v8_hvt L=150000U W=420000U AS=74375000000P AD=56700000000P
+ PS=815000U PD=690000U
* device instance $4 r0 *1 2.75,1.985 pfet_01v8_hvt
M$4 7 6 9 1 pfet_01v8_hvt L=150000U W=1000000U AS=142225000000P
+ AD=260000000000P PS=1335000U PD=2520000U
* device instance $5 r0 *1 0.47,2.275 pfet_01v8_hvt
M$5 4 5 9 1 pfet_01v8_hvt L=150000U W=420000U AS=109200000000P AD=108700000000P
+ PS=1360000U PD=1360000U
* device instance $6 r0 *1 1.405,0.475 nfet_01v8
M$6 12 4 6 10 nfet_01v8 L=150000U W=420000U AS=107825000000P AD=44100000000P
+ PS=1360000U PD=630000U
* device instance $7 r0 *1 1.765,0.475 nfet_01v8
M$7 11 3 12 10 nfet_01v8 L=150000U W=420000U AS=44100000000P AD=53550000000P
+ PS=630000U PD=675000U
* device instance $8 r0 *1 2.17,0.475 nfet_01v8
M$8 11 2 8 10 nfet_01v8 L=150000U W=420000U AS=122275000000P AD=53550000000P
+ PS=1080000U PD=675000U
* device instance $9 r0 *1 2.75,0.56 nfet_01v8
M$9 7 6 8 10 nfet_01v8 L=150000U W=650000U AS=122275000000P AD=169000000000P
+ PS=1080000U PD=1820000U
* device instance $10 r0 *1 0.47,0.675 nfet_01v8
M$10 4 5 8 10 nfet_01v8 L=150000U W=420000U AS=109200000000P AD=107850000000P
+ PS=1360000U PD=1360000U
.ENDS sky130_fd_sc_hd__and3b_1

* cell sky130_fd_sc_hd__o2111ai_2
* pin VGND
* pin D1
* pin Y
* pin C1
* pin B1
* pin A2
* pin A1
* pin VPWR
* pin VPB
* pin 
.SUBCKT sky130_fd_sc_hd__o2111ai_2 1 2 4 5 7 9 10 11 13 14
* net 1 VGND
* net 2 D1
* net 4 Y
* net 5 C1
* net 7 B1
* net 9 A2
* net 10 A1
* net 11 VPWR
* net 13 VPB
* device instance $1 r0 *1 3.69,1.985 pfet_01v8_hvt
M$1 4 9 12 13 pfet_01v8_hvt L=150000U W=2000000U AS=435000000000P
+ AD=280000000000P PS=3870000U PD=2560000U
* device instance $3 r0 *1 4.55,1.985 pfet_01v8_hvt
M$3 11 10 12 13 pfet_01v8_hvt L=150000U W=2000000U AS=280000000000P
+ AD=470000000000P PS=2560000U PD=3940000U
* device instance $5 r0 *1 0.555,1.985 pfet_01v8_hvt
M$5 4 2 11 13 pfet_01v8_hvt L=150000U W=2000000U AS=405000000000P
+ AD=280000000000P PS=3810000U PD=2560000U
* device instance $7 r0 *1 1.415,1.985 pfet_01v8_hvt
M$7 4 5 11 13 pfet_01v8_hvt L=150000U W=2000000U AS=280000000000P
+ AD=280000000000P PS=2560000U PD=2560000U
* device instance $9 r0 *1 2.275,1.985 pfet_01v8_hvt
M$9 4 7 11 13 pfet_01v8_hvt L=150000U W=2000000U AS=280000000000P
+ AD=405000000000P PS=2560000U PD=3810000U
* device instance $11 r0 *1 2.83,0.56 nfet_01v8
M$11 6 7 8 14 nfet_01v8 L=150000U W=1300000U AS=266500000000P AD=182000000000P
+ PS=2770000U PD=1860000U
* device instance $13 r0 *1 3.69,0.56 nfet_01v8
M$13 1 9 8 14 nfet_01v8 L=150000U W=1300000U AS=182000000000P AD=182000000000P
+ PS=1860000U PD=1860000U
* device instance $15 r0 *1 4.55,0.56 nfet_01v8
M$15 1 10 8 14 nfet_01v8 L=150000U W=1300000U AS=182000000000P AD=305500000000P
+ PS=1860000U PD=2890000U
* device instance $17 r0 *1 0.555,0.56 nfet_01v8
M$17 4 2 3 14 nfet_01v8 L=150000U W=1300000U AS=315250000000P AD=182000000000P
+ PS=2920000U PD=1860000U
* device instance $19 r0 *1 1.415,0.56 nfet_01v8
M$19 6 5 3 14 nfet_01v8 L=150000U W=1300000U AS=182000000000P AD=282750000000P
+ PS=1860000U PD=2820000U
.ENDS sky130_fd_sc_hd__o2111ai_2

* cell sky130_fd_sc_hd__nand3_1
* pin VPB
* pin A
* pin B
* pin C
* pin Y
* pin VPWR
* pin VGND
* pin 
.SUBCKT sky130_fd_sc_hd__nand3_1 1 2 3 4 5 6 7 8
* net 1 VPB
* net 2 A
* net 3 B
* net 4 C
* net 5 Y
* net 6 VPWR
* net 7 VGND
* device instance $1 r0 *1 0.47,1.985 pfet_01v8_hvt
M$1 5 4 6 1 pfet_01v8_hvt L=150000U W=1000000U AS=260000000000P
+ AD=135000000000P PS=2520000U PD=1270000U
* device instance $2 r0 *1 0.89,1.985 pfet_01v8_hvt
M$2 6 3 5 1 pfet_01v8_hvt L=150000U W=1000000U AS=135000000000P
+ AD=165000000000P PS=1270000U PD=1330000U
* device instance $3 r0 *1 1.37,1.985 pfet_01v8_hvt
M$3 5 2 6 1 pfet_01v8_hvt L=150000U W=1000000U AS=165000000000P
+ AD=260000000000P PS=1330000U PD=2520000U
* device instance $4 r0 *1 0.47,0.56 nfet_01v8
M$4 10 4 7 8 nfet_01v8 L=150000U W=650000U AS=169000000000P AD=87750000000P
+ PS=1820000U PD=920000U
* device instance $5 r0 *1 0.89,0.56 nfet_01v8
M$5 9 3 10 8 nfet_01v8 L=150000U W=650000U AS=87750000000P AD=107250000000P
+ PS=920000U PD=980000U
* device instance $6 r0 *1 1.37,0.56 nfet_01v8
M$6 5 2 9 8 nfet_01v8 L=150000U W=650000U AS=107250000000P AD=169000000000P
+ PS=980000U PD=1820000U
.ENDS sky130_fd_sc_hd__nand3_1

* cell sky130_fd_sc_hd__a31o_1
* pin VGND
* pin X
* pin A3
* pin A2
* pin A1
* pin B1
* pin VPWR
* pin VPB
* pin 
.SUBCKT sky130_fd_sc_hd__a31o_1 1 2 6 7 8 9 11 12 13
* net 1 VGND
* net 2 X
* net 6 A3
* net 7 A2
* net 8 A1
* net 9 B1
* net 11 VPWR
* net 12 VPB
* device instance $1 r0 *1 0.475,1.985 pfet_01v8_hvt
M$1 11 3 2 12 pfet_01v8_hvt L=150000U W=1000000U AS=265000000000P
+ AD=172500000000P PS=2530000U PD=1345000U
* device instance $2 r0 *1 0.97,1.985 pfet_01v8_hvt
M$2 10 6 11 12 pfet_01v8_hvt L=150000U W=1000000U AS=172500000000P
+ AD=160000000000P PS=1345000U PD=1320000U
* device instance $3 r0 *1 1.44,1.985 pfet_01v8_hvt
M$3 11 7 10 12 pfet_01v8_hvt L=150000U W=1000000U AS=160000000000P
+ AD=165000000000P PS=1320000U PD=1330000U
* device instance $4 r0 *1 1.92,1.985 pfet_01v8_hvt
M$4 10 8 11 12 pfet_01v8_hvt L=150000U W=1000000U AS=165000000000P
+ AD=165000000000P PS=1330000U PD=1330000U
* device instance $5 r0 *1 2.4,1.985 pfet_01v8_hvt
M$5 3 9 10 12 pfet_01v8_hvt L=150000U W=1000000U AS=165000000000P
+ AD=320000000000P PS=1330000U PD=2640000U
* device instance $6 r0 *1 0.475,0.56 nfet_01v8
M$6 1 3 2 13 nfet_01v8 L=150000U W=650000U AS=172250000000P AD=112125000000P
+ PS=1830000U PD=995000U
* device instance $7 r0 *1 0.97,0.56 nfet_01v8
M$7 4 6 1 13 nfet_01v8 L=150000U W=650000U AS=112125000000P AD=104000000000P
+ PS=995000U PD=970000U
* device instance $8 r0 *1 1.44,0.56 nfet_01v8
M$8 5 7 4 13 nfet_01v8 L=150000U W=650000U AS=104000000000P AD=107250000000P
+ PS=970000U PD=980000U
* device instance $9 r0 *1 1.92,0.56 nfet_01v8
M$9 3 8 5 13 nfet_01v8 L=150000U W=650000U AS=107250000000P AD=107250000000P
+ PS=980000U PD=980000U