
* cell fifo
* pin wr_en
* pin rst_n
* pin dout[2]
* pin rd_en
* pin full
* pin empty
* pin dout[5]
* pin din[2]
* pin din[5]
* pin dout[0]
* pin din[0]
* pin din[4]
* pin dout[4]
* pin dout[1]
* pin clk
* pin dout[6]
* pin dout[7]
* pin dout[3]
* pin din[7]
* pin din[3]
* pin din[1]
* pin din[6]
* pin NWELL
* pin PWELL,gf180mcu_gnd
.SUBCKT fifo 1 2 3 4 5 6 7 102 168 276 287 333 350 351 357 414 436 453 593 594
+ 595 596 597 598
* net 1 wr_en
* net 2 rst_n
* net 3 dout[2]
* net 4 rd_en
* net 5 full
* net 6 empty
* net 7 dout[5]
* net 102 din[2]
* net 168 din[5]
* net 276 dout[0]
* net 287 din[0]
* net 333 din[4]
* net 350 dout[4]
* net 351 dout[1]
* net 357 clk
* net 414 dout[6]
* net 436 dout[7]
* net 453 dout[3]
* net 593 din[7]
* net 594 din[3]
* net 595 din[1]
* net 596 din[6]
* net 597 NWELL
* net 598 PWELL,gf180mcu_gnd
* cell instance $4 r0 *1 1182.72,5.04
X$4 598 1 17 597 gf180mcu_fd_sc_mcu9t5v0__buf_8
* cell instance $8 r0 *1 1198.4,5.04
X$8 598 9 2 597 gf180mcu_fd_sc_mcu9t5v0__dlyc_2
* cell instance $11 m0 *1 1201.76,15.12
X$11 11 597 598 3 gf180mcu_fd_sc_mcu9t5v0__dlyb_2
* cell instance $16 r0 *1 1234.8,5.04
X$16 598 597 4 8 gf180mcu_fd_sc_mcu9t5v0__buf_4
* cell instance $20 r0 *1 1242.64,5.04
X$20 13 597 598 5 gf180mcu_fd_sc_mcu9t5v0__dlyb_2
* cell instance $24 m0 *1 1234.24,15.12
X$24 12 597 598 6 gf180mcu_fd_sc_mcu9t5v0__dlyb_2
* cell instance $27 r0 *1 1251.04,5.04
X$27 14 597 598 7 gf180mcu_fd_sc_mcu9t5v0__dlyb_2
* cell instance $33 r0 *1 1232.56,1033.2
X$33 597 8 598 69 70 52 68 gf180mcu_fd_sc_mcu9t5v0__oai31_2
* cell instance $40 m0 *1 1182.72,15.12
X$40 598 9 10 597 gf180mcu_fd_sc_mcu9t5v0__clkbuf_8
* cell instance $44 m0 *1 1182.72,992.88
X$44 598 10 19 597 gf180mcu_fd_sc_mcu9t5v0__buf_8
* cell instance $46 m0 *1 1174.88,1013.04
X$46 40 597 17 10 598 35 gf180mcu_fd_sc_mcu9t5v0__and3_2
* cell instance $49 m0 *1 1184.4,1023.12
X$49 16 23 17 10 598 597 47 gf180mcu_fd_sc_mcu9t5v0__and4_2
* cell instance $51 m0 *1 1169.28,1023.12
X$51 598 17 41 23 46 10 597 gf180mcu_fd_sc_mcu9t5v0__and4_4
* cell instance $60 r0 *1 1188.88,1043.28
X$60 598 597 89 11 139 98 gf180mcu_fd_sc_mcu9t5v0__mux2_2
* cell instance $65 r0 *1 1187.2,1053.36
X$65 598 19 11 21 89 597 gf180mcu_fd_sc_mcu9t5v0__dffrnq_4
* cell instance $68 m0 *1 1228.08,1033.2
X$68 70 597 68 12 598 52 gf180mcu_fd_sc_mcu9t5v0__nor3_4
* cell instance $77 r0 *1 1238.16,982.8
X$77 598 597 25 13 gf180mcu_fd_sc_mcu9t5v0__inv_4
* cell instance $89 r0 *1 1228.64,1103.76
X$89 598 597 14 231 139 gf180mcu_fd_sc_mcu9t5v0__nand2_2
* cell instance $92 m0 *1 1229.2,1103.76
X$92 598 19 14 183 214 597 gf180mcu_fd_sc_mcu9t5v0__dffrnq_4
* cell instance $94 r0 *1 1177.12,992.88
X$94 597 16 15 598 29 gf180mcu_fd_sc_mcu9t5v0__xnor2_2
* cell instance $96 r0 *1 1179.92,1002.96
X$96 598 15 17 597 18 25 gf180mcu_fd_sc_mcu9t5v0__nand3_2
* cell instance $111 m0 *1 1178.24,1002.96
X$111 598 19 16 21 29 597 gf180mcu_fd_sc_mcu9t5v0__dffrnq_2
* cell instance $115 m0 *1 1204.56,1043.28
X$115 597 16 132 598 93 gf180mcu_fd_sc_mcu9t5v0__xnor2_2
* cell instance $117 r0 *1 1165.92,1033.2
X$117 16 48 34 35 598 597 99 gf180mcu_fd_sc_mcu9t5v0__and4_2
* cell instance $119 m0 *1 1163.12,1023.12
X$119 598 597 16 41 gf180mcu_fd_sc_mcu9t5v0__clkinv_2
* cell instance $121 r0 *1 1144.08,1033.2
X$121 16 65 34 35 598 597 66 gf180mcu_fd_sc_mcu9t5v0__and4_2
* cell instance $123 m0 *1 1215.2,1023.12
X$123 16 597 23 18 598 50 gf180mcu_fd_sc_mcu9t5v0__and3_2
* cell instance $125 r0 *1 1201.76,1002.96
X$125 27 597 24 16 598 30 gf180mcu_fd_sc_mcu9t5v0__and3_2
* cell instance $128 m0 *1 1145.76,1023.12
X$128 16 37 34 35 598 597 54 gf180mcu_fd_sc_mcu9t5v0__and4_2
* cell instance $130 r0 *1 1154.72,1023.12
X$130 16 18 36 35 598 597 57 gf180mcu_fd_sc_mcu9t5v0__and4_2
* cell instance $136 m0 *1 1221.36,1023.12
X$136 598 51 17 597 25 50 gf180mcu_fd_sc_mcu9t5v0__nand3_2
* cell instance $140 r0 *1 1196.72,992.88
X$140 598 20 17 597 25 30 gf180mcu_fd_sc_mcu9t5v0__nand3_2
* cell instance $142 r0 *1 1220.24,1002.96
X$142 598 597 17 26 25 gf180mcu_fd_sc_mcu9t5v0__nand2_2
* cell instance $153 m0 *1 1210.16,1013.04
X$153 598 18 604 27 24 597 gf180mcu_fd_sc_mcu9t5v0__addh_2
* cell instance $157 r0 *1 1189.44,1023.12
X$157 47 25 18 598 597 67 gf180mcu_fd_sc_mcu9t5v0__and3_4
* cell instance $160 r0 *1 1144.08,1013.04
X$160 41 18 34 35 598 597 39 gf180mcu_fd_sc_mcu9t5v0__and4_2
* cell instance $162 r0 *1 1137.36,1023.12
X$162 598 18 46 44 34 597 gf180mcu_fd_sc_mcu9t5v0__nand3_4
* cell instance $182 m0 *1 1226.4,1093.68
X$182 598 19 94 183 184 597 gf180mcu_fd_sc_mcu9t5v0__dffrnq_2
* cell instance $185 m0 *1 1206.24,1083.6
X$185 598 19 91 21 161 597 gf180mcu_fd_sc_mcu9t5v0__dffrnq_2
* cell instance $187 r0 *1 1229.2,1002.96
X$187 598 19 27 21 28 597 gf180mcu_fd_sc_mcu9t5v0__dffrnq_2
* cell instance $189 r0 *1 1204,992.88
X$189 598 19 24 21 22 597 gf180mcu_fd_sc_mcu9t5v0__dffrnq_2
* cell instance $191 m0 *1 1203.44,1002.96
X$191 598 19 23 21 31 597 gf180mcu_fd_sc_mcu9t5v0__dffrnq_2
* cell instance $193 m0 *1 1216.88,1073.52
X$193 598 19 118 21 141 597 gf180mcu_fd_sc_mcu9t5v0__dffrnq_2
* cell instance $195 m0 *1 1234.8,1043.28
X$195 598 19 71 21 96 597 gf180mcu_fd_sc_mcu9t5v0__dffrnq_2
* cell instance $197 m0 *1 1233.68,1214.64
X$197 598 19 452 346 434 597 gf180mcu_fd_sc_mcu9t5v0__dffrnq_4
* cell instance $200 r0 *1 1234.24,1204.56
X$200 598 19 415 346 435 597 gf180mcu_fd_sc_mcu9t5v0__dffrnq_4
* cell instance $205 r0 *1 1179.36,1113.84
X$205 598 19 132 211 253 597 gf180mcu_fd_sc_mcu9t5v0__dffrnq_4
* cell instance $207 m0 *1 1198.4,1093.68
X$207 598 19 155 183 188 597 gf180mcu_fd_sc_mcu9t5v0__dffrnq_4
* cell instance $210 r0 *1 1232.56,1134
X$210 598 19 275 183 307 597 gf180mcu_fd_sc_mcu9t5v0__dffrnq_4
* cell instance $213 m0 *1 1237.6,1204.56
X$213 598 19 433 346 416 597 gf180mcu_fd_sc_mcu9t5v0__dffrnq_4
* cell instance $215 m0 *1 1234.24,1174.32
X$215 598 19 349 346 353 597 gf180mcu_fd_sc_mcu9t5v0__dffrnq_4
* cell instance $217 r0 *1 1239.84,1154.16
X$217 598 19 325 183 352 597 gf180mcu_fd_sc_mcu9t5v0__dffrnq_4
* cell instance $220 r0 *1 1192.24,1002.96
X$220 597 23 20 598 31 gf180mcu_fd_sc_mcu9t5v0__xnor2_2
* cell instance $238 m0 *1 1176,1073.52
X$238 598 21 597 gf180mcu_fd_sc_mcu9t5v0__clkbuf_12
* cell instance $241 r0 *1 1187.76,1073.52
X$241 598 205 21 597 gf180mcu_fd_sc_mcu9t5v0__clkbuf_20
* cell instance $248 r0 *1 1207.92,1002.96
X$248 598 597 22 24 26 32 gf180mcu_fd_sc_mcu9t5v0__mux2_2
* cell instance $255 r0 *1 1215.76,1043.28
X$255 597 155 23 598 92 gf180mcu_fd_sc_mcu9t5v0__xnor2_2
* cell instance $259 r0 *1 1173.76,1002.96
X$259 598 597 23 40 gf180mcu_fd_sc_mcu9t5v0__clkinv_2
* cell instance $273 m0 *1 1215.76,1043.28
X$273 597 91 24 598 95 gf180mcu_fd_sc_mcu9t5v0__xnor2_2
* cell instance $276 r0 *1 1201.76,1013.04
X$276 598 37 606 38 24 597 gf180mcu_fd_sc_mcu9t5v0__addh_2
* cell instance $279 r0 *1 1201.2,1023.12
X$279 598 597 24 49 gf180mcu_fd_sc_mcu9t5v0__clkinv_2
* cell instance $295 r0 *1 1227.52,1013.04
X$295 598 36 25 597 gf180mcu_fd_sc_mcu9t5v0__clkbuf_8
* cell instance $299 m0 *1 1186.08,1043.28
X$299 47 25 65 598 597 90 gf180mcu_fd_sc_mcu9t5v0__and3_4
* cell instance $301 m0 *1 1186.08,1033.2
X$301 47 25 37 598 597 138 gf180mcu_fd_sc_mcu9t5v0__and3_4
* cell instance $303 r0 *1 1184.4,1033.2
X$303 47 25 48 598 597 73 gf180mcu_fd_sc_mcu9t5v0__and3_4
* cell instance $307 m0 *1 1172.08,1033.2
X$307 598 37 46 55 25 597 gf180mcu_fd_sc_mcu9t5v0__nand3_4
* cell instance $311 m0 *1 1222.48,1002.96
X$311 597 27 26 598 28 gf180mcu_fd_sc_mcu9t5v0__xnor2_2
* cell instance $324 m0 *1 1229.2,1053.36
X$324 597 118 27 598 72 gf180mcu_fd_sc_mcu9t5v0__xnor2_2
* cell instance $326 m0 *1 1198.96,1033.2
X$326 598 65 605 27 49 597 gf180mcu_fd_sc_mcu9t5v0__addh_2
* cell instance $330 m0 *1 1210.16,1023.12
X$330 598 597 27 38 gf180mcu_fd_sc_mcu9t5v0__clkinv_2
* cell instance $349 m0 *1 1198.4,1023.12
X$349 598 48 32 38 49 597 gf180mcu_fd_sc_mcu9t5v0__addh_2
* cell instance $370 r0 *1 1127.84,1013.04
X$370 598 39 33 597 gf180mcu_fd_sc_mcu9t5v0__clkbuf_8
* cell instance $372 r0 *1 1055.6,1275.12
X$372 598 597 560 501 33 561 gf180mcu_fd_sc_mcu9t5v0__mux2_2
* cell instance $374 m0 *1 1035.44,1134
X$374 598 597 279 261 33 263 gf180mcu_fd_sc_mcu9t5v0__mux2_2
* cell instance $377 m0 *1 1042.16,1093.68
X$377 598 597 186 146 33 203 gf180mcu_fd_sc_mcu9t5v0__mux2_2
* cell instance $379 r0 *1 1089.2,1204.56
X$379 598 597 428 423 33 401 gf180mcu_fd_sc_mcu9t5v0__mux2_2
* cell instance $382 r0 *1 1089.2,1043.28
X$382 598 597 82 76 33 83 gf180mcu_fd_sc_mcu9t5v0__mux2_2
* cell instance $384 r0 *1 1089.2,1305.36
X$384 598 597 584 529 33 575 gf180mcu_fd_sc_mcu9t5v0__mux2_2
* cell instance $386 r0 *1 1135.68,1295.28
X$386 598 597 578 564 33 579 gf180mcu_fd_sc_mcu9t5v0__mux2_2
* cell instance $388 r0 *1 1125.04,1154.16
X$388 598 597 318 298 33 320 gf180mcu_fd_sc_mcu9t5v0__mux2_2
* cell instance $399 m0 *1 1134,1043.28
X$399 41 65 34 35 598 597 101 gf180mcu_fd_sc_mcu9t5v0__and4_2
* cell instance $401 m0 *1 1162.56,1043.28
X$401 41 48 34 35 598 597 121 gf180mcu_fd_sc_mcu9t5v0__and4_2
* cell instance $403 r0 *1 1130.08,1033.2
X$403 598 65 46 88 34 597 gf180mcu_fd_sc_mcu9t5v0__nand3_4
* cell instance $405 r0 *1 1151.36,1033.2
X$405 598 48 46 62 34 597 gf180mcu_fd_sc_mcu9t5v0__nand3_4
* cell instance $413 m0 *1 1138.48,1023.12
X$413 41 37 34 35 598 597 45 gf180mcu_fd_sc_mcu9t5v0__and4_2
* cell instance $416 r0 *1 1158.08,1013.04
X$416 598 36 34 597 gf180mcu_fd_sc_mcu9t5v0__clkbuf_8
* cell instance $444 m0 *1 1242.64,1033.2
X$444 598 597 52 36 53 gf180mcu_fd_sc_mcu9t5v0__nand2_2
* cell instance $487 m0 *1 1100.96,1033.2
X$487 598 597 42 43 55 59 gf180mcu_fd_sc_mcu9t5v0__mux2_2
* cell instance $489 r0 *1 1099.28,1023.12
X$489 598 43 63 42 597 gf180mcu_fd_sc_mcu9t5v0__dffq_2
* cell instance $493 r0 *1 1098.72,1053.36
X$493 598 597 43 112 116 gf180mcu_fd_sc_mcu9t5v0__nand2_2
* cell instance $512 m0 *1 1071.84,1033.2
X$512 598 597 74 58 44 59 gf180mcu_fd_sc_mcu9t5v0__mux2_2
* cell instance $514 m0 *1 1134,1214.64
X$514 598 597 442 445 44 406 gf180mcu_fd_sc_mcu9t5v0__mux2_2
* cell instance $516 m0 *1 1064.56,1184.4
X$516 598 597 385 386 44 270 gf180mcu_fd_sc_mcu9t5v0__mux2_2
* cell instance $519 m0 *1 1067.36,1254.96
X$519 598 597 503 526 44 460 gf180mcu_fd_sc_mcu9t5v0__mux2_2
* cell instance $521 m0 *1 1102.08,1234.8
X$521 598 597 497 464 44 469 gf180mcu_fd_sc_mcu9t5v0__mux2_2
* cell instance $524 r0 *1 1108.24,1103.76
X$524 598 597 208 175 44 170 gf180mcu_fd_sc_mcu9t5v0__mux2_2
* cell instance $526 r0 *1 1123.92,1174.32
X$526 598 597 379 342 44 362 gf180mcu_fd_sc_mcu9t5v0__mux2_2
* cell instance $530 m0 *1 1098.16,1144.08
X$530 598 597 292 294 44 238 gf180mcu_fd_sc_mcu9t5v0__mux2_2
* cell instance $533 m0 *1 1137.92,1033.2
X$533 598 45 87 597 gf180mcu_fd_sc_mcu9t5v0__clkbuf_8
* cell instance $568 m0 *1 1225.28,1043.28
X$568 597 71 51 598 96 gf180mcu_fd_sc_mcu9t5v0__xnor2_2
* cell instance $573 r0 *1 1236.48,1043.28
X$573 71 598 94 597 52 gf180mcu_fd_sc_mcu9t5v0__xor2_2
* cell instance $580 m0 *1 1238.72,1053.36
X$580 95 72 92 93 598 597 53 gf180mcu_fd_sc_mcu9t5v0__and4_2
* cell instance $585 m0 *1 1123.92,1023.12
X$585 598 54 56 597 gf180mcu_fd_sc_mcu9t5v0__clkbuf_8
* cell instance $594 r0 *1 1063.44,1234.8
X$594 598 597 482 483 55 460 gf180mcu_fd_sc_mcu9t5v0__mux2_2
* cell instance $597 r0 *1 1065.68,1164.24
X$597 598 597 334 335 55 270 gf180mcu_fd_sc_mcu9t5v0__mux2_2
* cell instance $599 r0 *1 1089.2,1234.8
X$599 598 597 484 462 55 469 gf180mcu_fd_sc_mcu9t5v0__mux2_2
* cell instance $602 r0 *1 1065.12,1134
X$602 598 597 264 291 55 238 gf180mcu_fd_sc_mcu9t5v0__mux2_2
* cell instance $606 m0 *1 1142.4,1214.64
X$606 598 597 443 444 55 406 gf180mcu_fd_sc_mcu9t5v0__mux2_2
* cell instance $610 r0 *1 1165.92,1184.4
X$610 598 597 398 395 55 362 gf180mcu_fd_sc_mcu9t5v0__mux2_2
* cell instance $613 m0 *1 1124.48,1093.68
X$613 598 597 178 179 55 170 gf180mcu_fd_sc_mcu9t5v0__mux2_2
* cell instance $628 r0 *1 1039.36,1184.4
X$628 598 597 399 298 56 384 gf180mcu_fd_sc_mcu9t5v0__mux2_2
* cell instance $632 m0 *1 1030.4,1154.16
X$632 598 597 313 261 56 315 gf180mcu_fd_sc_mcu9t5v0__mux2_2
* cell instance $634 m0 *1 1029.84,1214.64
X$634 598 597 454 423 56 422 gf180mcu_fd_sc_mcu9t5v0__mux2_2
* cell instance $636 r0 *1 1024.24,1073.52
X$636 598 597 162 146 56 147 gf180mcu_fd_sc_mcu9t5v0__mux2_2
* cell instance $638 m0 *1 1071.28,1063.44
X$638 598 597 109 76 56 128 gf180mcu_fd_sc_mcu9t5v0__mux2_2
* cell instance $640 r0 *1 1063.44,1305.36
X$640 598 597 591 501 56 573 gf180mcu_fd_sc_mcu9t5v0__mux2_2
* cell instance $643 m0 *1 1104.32,1315.44
X$643 598 597 585 529 56 586 gf180mcu_fd_sc_mcu9t5v0__mux2_2
* cell instance $645 r0 *1 1127.28,1295.28
X$645 598 597 576 564 56 577 gf180mcu_fd_sc_mcu9t5v0__mux2_2
* cell instance $649 m0 *1 1153.6,1033.2
X$649 598 57 80 597 gf180mcu_fd_sc_mcu9t5v0__clkbuf_8
* cell instance $654 r0 *1 1061.2,1033.2
X$654 598 58 63 74 597 gf180mcu_fd_sc_mcu9t5v0__dffq_2
* cell instance $657 m0 *1 1079.12,1053.36
X$657 598 110 597 61 123 58 85 gf180mcu_fd_sc_mcu9t5v0__aoi22_2
* cell instance $669 m0 *1 1051.68,1063.44
X$669 598 597 142 59 100 127 gf180mcu_fd_sc_mcu9t5v0__mux2_2
* cell instance $671 r0 *1 1135.68,1073.52
X$671 598 597 163 59 158 156 gf180mcu_fd_sc_mcu9t5v0__mux2_2
* cell instance $673 r0 *1 1081.36,1043.28
X$673 76 597 598 59 gf180mcu_fd_sc_mcu9t5v0__buf_3
* cell instance $675 m0 *1 1102.08,1043.28
X$675 598 597 64 59 67 86 gf180mcu_fd_sc_mcu9t5v0__mux2_2
* cell instance $677 m0 *1 1132.88,1063.44
X$677 598 597 145 59 90 115 gf180mcu_fd_sc_mcu9t5v0__mux2_2
* cell instance $680 m0 *1 1144.08,1063.44
X$680 598 597 134 59 73 136 gf180mcu_fd_sc_mcu9t5v0__mux2_2
* cell instance $683 r0 *1 1159.2,1063.44
X$683 598 597 135 59 138 137 gf180mcu_fd_sc_mcu9t5v0__mux2_2
* cell instance $685 m0 *1 1118.32,1053.36
X$685 598 597 125 114 88 59 gf180mcu_fd_sc_mcu9t5v0__mux2_2
* cell instance $688 r0 *1 1078,1033.2
X$688 598 597 60 61 62 59 gf180mcu_fd_sc_mcu9t5v0__mux2_2
* cell instance $692 m0 *1 1065.12,1043.28
X$692 598 61 63 60 597 gf180mcu_fd_sc_mcu9t5v0__dffq_2
* cell instance $713 m0 *1 1117.76,1234.8
X$713 598 597 480 465 62 469 gf180mcu_fd_sc_mcu9t5v0__mux2_2
* cell instance $715 m0 *1 1066.24,1224.72
X$715 598 597 476 459 62 460 gf180mcu_fd_sc_mcu9t5v0__mux2_2
* cell instance $718 r0 *1 1163.68,1134
X$718 598 597 283 268 62 270 gf180mcu_fd_sc_mcu9t5v0__mux2_2
* cell instance $721 r0 *1 1081.92,1113.84
X$721 598 597 257 242 62 170 gf180mcu_fd_sc_mcu9t5v0__mux2_2
* cell instance $724 r0 *1 1148.56,1184.4
X$724 598 597 365 363 62 362 gf180mcu_fd_sc_mcu9t5v0__mux2_2
* cell instance $726 m0 *1 1163.12,1214.64
X$726 598 597 456 448 62 406 gf180mcu_fd_sc_mcu9t5v0__mux2_2
* cell instance $732 m0 *1 1089.76,1144.08
X$732 598 597 281 293 62 238 gf180mcu_fd_sc_mcu9t5v0__mux2_2
* cell instance $746 r0 *1 1075.76,1053.36
X$746 598 128 63 109 597 gf180mcu_fd_sc_mcu9t5v0__dffq_2
* cell instance $748 m0 *1 1079.68,1063.44
X$748 598 205 63 597 gf180mcu_fd_sc_mcu9t5v0__clkbuf_20
* cell instance $751 r0 *1 1058.96,1043.28
X$751 598 107 63 81 597 gf180mcu_fd_sc_mcu9t5v0__dffq_2
* cell instance $754 r0 *1 1112.16,1053.36
X$754 598 114 63 125 597 gf180mcu_fd_sc_mcu9t5v0__dffq_2
* cell instance $757 r0 *1 1098.72,1033.2
X$757 598 86 63 64 597 gf180mcu_fd_sc_mcu9t5v0__dffq_2
* cell instance $759 r0 *1 1076.32,1063.44
X$759 598 63 597 gf180mcu_fd_sc_mcu9t5v0__clkbuf_12
* cell instance $762 m0 *1 1085.28,1043.28
X$762 598 83 63 82 597 gf180mcu_fd_sc_mcu9t5v0__dffq_2
* cell instance $778 m0 *1 1146.88,1043.28
X$778 598 66 78 597 gf180mcu_fd_sc_mcu9t5v0__clkbuf_8
* cell instance $789 r0 *1 1199.52,1123.92
X$789 598 597 252 238 67 246 gf180mcu_fd_sc_mcu9t5v0__mux2_2
* cell instance $791 m0 *1 1088.64,1083.6
X$791 598 597 150 170 67 152 gf180mcu_fd_sc_mcu9t5v0__mux2_2
* cell instance $793 r0 *1 1133.44,1154.16
X$793 598 597 297 270 67 321 gf180mcu_fd_sc_mcu9t5v0__mux2_2
* cell instance $796 r0 *1 1205.12,1174.32
X$796 598 597 370 362 67 371 gf180mcu_fd_sc_mcu9t5v0__mux2_2
* cell instance $798 r0 *1 1190,1275.12
X$798 598 597 566 406 67 554 gf180mcu_fd_sc_mcu9t5v0__mux2_2
* cell instance $801 r0 *1 1227.52,1265.04
X$801 598 597 555 469 67 538 gf180mcu_fd_sc_mcu9t5v0__mux2_2
* cell instance $806 m0 *1 1209.6,1244.88
X$806 598 597 492 460 67 490 gf180mcu_fd_sc_mcu9t5v0__mux2_2
* cell instance $810 r0 *1 1224.72,1033.2
X$810 598 597 92 68 93 gf180mcu_fd_sc_mcu9t5v0__nand2_2
* cell instance $819 m0 *1 1235.92,1073.52
X$819 598 597 69 139 gf180mcu_fd_sc_mcu9t5v0__buf_4
* cell instance $823 m0 *1 1189.44,1083.6
X$823 160 159 149 69 597 598 189 gf180mcu_fd_sc_mcu9t5v0__or4_2
* cell instance $828 r0 *1 1242.64,1033.2
X$828 598 597 95 70 72 gf180mcu_fd_sc_mcu9t5v0__nand2_2
* cell instance $857 r0 *1 1126.16,1275.12
X$857 598 597 569 469 73 563 gf180mcu_fd_sc_mcu9t5v0__mux2_2
* cell instance $859 r0 *1 1172.64,1134
X$859 598 597 272 270 73 300 gf180mcu_fd_sc_mcu9t5v0__mux2_2
* cell instance $861 m0 *1 1125.04,1123.92
X$861 598 597 260 238 73 243 gf180mcu_fd_sc_mcu9t5v0__mux2_2
* cell instance $863 m0 *1 1168.72,1285.2
X$863 598 597 571 460 73 565 gf180mcu_fd_sc_mcu9t5v0__mux2_2
* cell instance $866 r0 *1 1183.28,1174.32
X$866 598 597 368 362 73 369 gf180mcu_fd_sc_mcu9t5v0__mux2_2
* cell instance $868 m0 *1 1165.92,1265.04
X$868 598 597 534 406 73 535 gf180mcu_fd_sc_mcu9t5v0__mux2_2
* cell instance $871 r0 *1 1174.32,1083.6
X$871 598 597 199 170 73 182 gf180mcu_fd_sc_mcu9t5v0__mux2_2
* cell instance $880 r0 *1 1024.24,1053.36
X$880 598 77 103 75 597 gf180mcu_fd_sc_mcu9t5v0__dffq_2
* cell instance $882 r0 *1 1029.84,1043.28
X$882 598 597 75 76 78 77 gf180mcu_fd_sc_mcu9t5v0__mux2_2
* cell instance $889 m0 *1 1047.76,1053.36
X$889 598 597 104 76 87 105 gf180mcu_fd_sc_mcu9t5v0__mux2_2
* cell instance $894 r0 *1 1038.24,1043.28
X$894 598 597 97 76 80 79 gf180mcu_fd_sc_mcu9t5v0__mux2_2
* cell instance $897 m0 *1 1064.56,1053.36
X$897 598 597 81 76 108 107 gf180mcu_fd_sc_mcu9t5v0__mux2_2
* cell instance $905 m0 *1 8.96,1053.36
X$905 598 102 76 597 gf180mcu_fd_sc_mcu9t5v0__clkbuf_8
* cell instance $909 m0 *1 1037.68,1063.44
X$909 598 106 597 77 120 79 85 gf180mcu_fd_sc_mcu9t5v0__aoi22_2
* cell instance $923 r0 *1 1033.2,1224.72
X$923 598 597 474 423 78 457 gf180mcu_fd_sc_mcu9t5v0__mux2_2
* cell instance $926 m0 *1 1036,1254.96
X$926 598 597 525 501 78 502 gf180mcu_fd_sc_mcu9t5v0__mux2_2
* cell instance $929 r0 *1 1019.76,1194.48
X$929 598 597 381 298 78 382 gf180mcu_fd_sc_mcu9t5v0__mux2_2
* cell instance $931 r0 *1 1025.92,1144.08
X$931 598 597 289 261 78 314 gf180mcu_fd_sc_mcu9t5v0__mux2_2
* cell instance $933 r0 *1 1103.2,1275.12
X$933 598 597 548 529 78 549 gf180mcu_fd_sc_mcu9t5v0__mux2_2
* cell instance $935 m0 *1 1019.2,1103.76
X$935 598 597 200 146 78 217 gf180mcu_fd_sc_mcu9t5v0__mux2_2
* cell instance $938 m0 *1 1160.32,1285.2
X$938 598 597 570 564 78 552 gf180mcu_fd_sc_mcu9t5v0__mux2_2
* cell instance $942 m0 *1 1028.72,1053.36
X$942 598 79 103 97 597 gf180mcu_fd_sc_mcu9t5v0__dffq_2
* cell instance $955 r0 *1 1042.72,1214.64
X$955 598 597 455 423 80 425 gf180mcu_fd_sc_mcu9t5v0__mux2_2
* cell instance $957 r0 *1 1038.24,1174.32
X$957 598 597 359 298 80 339 gf180mcu_fd_sc_mcu9t5v0__mux2_2
* cell instance $959 r0 *1 1017.52,1144.08
X$959 598 597 326 261 80 288 gf180mcu_fd_sc_mcu9t5v0__mux2_2
* cell instance $961 r0 *1 1112.16,1275.12
X$961 598 597 562 529 80 531 gf180mcu_fd_sc_mcu9t5v0__mux2_2
* cell instance $963 m0 *1 1044.4,1275.12
X$963 598 597 557 501 80 527 gf180mcu_fd_sc_mcu9t5v0__mux2_2
* cell instance $965 m0 *1 1037.68,1073.52
X$965 598 597 126 146 80 148 gf180mcu_fd_sc_mcu9t5v0__mux2_2
* cell instance $968 m0 *1 1153.6,1305.36
X$968 598 597 590 564 80 580 gf180mcu_fd_sc_mcu9t5v0__mux2_2
* cell instance $978 r0 *1 1092.56,1053.36
X$978 598 597 117 124 83 gf180mcu_fd_sc_mcu9t5v0__nand2_2
* cell instance $989 r0 *1 1089.2,1144.08
X$989 171 598 84 309 597 317 gf180mcu_fd_sc_mcu9t5v0__or3_2
* cell instance $991 m0 *1 1078,1214.64
X$991 598 84 440 597 441 gf180mcu_fd_sc_mcu9t5v0__or2_2
* cell instance $993 m0 *1 1119.44,1073.52
X$993 598 597 155 84 gf180mcu_fd_sc_mcu9t5v0__inv_3
* cell instance $996 m0 *1 1088.08,1053.36
X$996 598 111 84 113 122 149 124 112 597 gf180mcu_fd_sc_mcu9t5v0__mux4_2
* cell instance $998 r0 *1 1105.44,1134
X$998 598 84 192 597 gf180mcu_fd_sc_mcu9t5v0__clkbuf_8
* cell instance $1001 m0 *1 1081.36,1154.16
X$1001 171 597 84 316 598 331 gf180mcu_fd_sc_mcu9t5v0__and3_2
* cell instance $1003 r0 *1 1079.12,1144.08
X$1003 171 597 84 288 598 355 gf180mcu_fd_sc_mcu9t5v0__and3_2
* cell instance $1005 r0 *1 1077.44,1083.6
X$1005 171 597 84 169 598 235 gf180mcu_fd_sc_mcu9t5v0__and3_2
* cell instance $1008 r0 *1 1083.6,1083.6
X$1008 598 167 128 84 171 597 220 gf180mcu_fd_sc_mcu9t5v0__nand4_2
* cell instance $1024 r0 *1 1103.76,1053.36
X$1024 598 597 85 113 86 gf180mcu_fd_sc_mcu9t5v0__nand2_2
* cell instance $1026 r0 *1 1061.76,1083.6
X$1026 598 116 597 147 164 148 85 gf180mcu_fd_sc_mcu9t5v0__aoi22_2
* cell instance $1030 m0 *1 1182.72,1113.84
X$1030 598 85 207 597 gf180mcu_fd_sc_mcu9t5v0__buf_8
* cell instance $1033 m0 *1 1179.92,1063.44
X$1033 598 117 85 597 gf180mcu_fd_sc_mcu9t5v0__buf_8
* cell instance $1037 r0 *1 1195.04,1174.32
X$1037 598 110 597 369 374 371 85 gf180mcu_fd_sc_mcu9t5v0__aoi22_2
* cell instance $1040 r0 *1 1165.36,1204.56
X$1040 598 85 361 597 gf180mcu_fd_sc_mcu9t5v0__clkbuf_8
* cell instance $1042 r0 *1 1129.52,1164.24
X$1042 598 106 597 341 343 342 85 gf180mcu_fd_sc_mcu9t5v0__aoi22_2
* cell instance $1044 m0 *1 1038.24,1214.64
X$1044 598 143 597 422 438 425 85 gf180mcu_fd_sc_mcu9t5v0__aoi22_2
* cell instance $1046 m0 *1 1074.64,1194.48
X$1046 598 597 85 337 386 gf180mcu_fd_sc_mcu9t5v0__nand2_2
* cell instance $1071 m0 *1 1116.64,1204.56
X$1071 598 597 403 423 87 404 gf180mcu_fd_sc_mcu9t5v0__mux2_2
* cell instance $1073 r0 *1 1015.28,1184.4
X$1073 598 597 380 298 87 383 gf180mcu_fd_sc_mcu9t5v0__mux2_2
* cell instance $1075 m0 *1 1046.08,1265.04
X$1075 598 597 524 501 87 516 gf180mcu_fd_sc_mcu9t5v0__mux2_2
* cell instance $1078 m0 *1 1015.84,1093.68
X$1078 598 597 185 146 87 201 gf180mcu_fd_sc_mcu9t5v0__mux2_2
* cell instance $1081 m0 *1 1139.04,1305.36
X$1081 598 597 588 564 87 589 gf180mcu_fd_sc_mcu9t5v0__mux2_2
* cell instance $1085 m0 *1 1081.36,1305.36
X$1085 598 597 583 529 87 574 gf180mcu_fd_sc_mcu9t5v0__mux2_2
* cell instance $1087 m0 *1 1025.92,1134
X$1087 598 597 278 261 87 262 gf180mcu_fd_sc_mcu9t5v0__mux2_2
* cell instance $1099 r0 *1 1065.68,1224.72
X$1099 598 597 475 458 88 460 gf180mcu_fd_sc_mcu9t5v0__mux2_2
* cell instance $1102 r0 *1 1067.92,1103.76
X$1102 598 597 219 221 88 170 gf180mcu_fd_sc_mcu9t5v0__mux2_2
* cell instance $1105 m0 *1 1074.64,1134
X$1105 598 597 280 265 88 238 gf180mcu_fd_sc_mcu9t5v0__mux2_2
* cell instance $1107 r0 *1 1069.6,1174.32
X$1107 598 597 375 360 88 270 gf180mcu_fd_sc_mcu9t5v0__mux2_2
* cell instance $1110 r0 *1 1113.28,1174.32
X$1110 598 597 340 341 88 362 gf180mcu_fd_sc_mcu9t5v0__mux2_2
* cell instance $1113 r0 *1 1082.48,1275.12
X$1113 598 597 546 558 88 469 gf180mcu_fd_sc_mcu9t5v0__mux2_2
* cell instance $1115 r0 *1 1133.44,1254.96
X$1115 598 597 532 533 88 406 gf180mcu_fd_sc_mcu9t5v0__mux2_2
* cell instance $1131 m0 *1 1131.2,1184.4
X$1131 598 597 390 406 90 391 gf180mcu_fd_sc_mcu9t5v0__mux2_2
* cell instance $1135 r0 *1 1129.52,1134
X$1135 598 597 266 238 90 267 gf180mcu_fd_sc_mcu9t5v0__mux2_2
* cell instance $1137 r0 *1 1195.6,1234.8
X$1137 598 597 467 460 90 477 gf180mcu_fd_sc_mcu9t5v0__mux2_2
* cell instance $1139 r0 *1 1183.84,1194.48
X$1139 598 597 419 362 90 407 gf180mcu_fd_sc_mcu9t5v0__mux2_2
* cell instance $1141 r0 *1 1165.92,1083.6
X$1141 598 597 180 170 90 181 gf180mcu_fd_sc_mcu9t5v0__mux2_2
* cell instance $1143 m0 *1 1188.88,1164.24
X$1143 598 597 344 270 90 345 gf180mcu_fd_sc_mcu9t5v0__mux2_2
* cell instance $1146 r0 *1 1187.2,1234.8
X$1146 598 597 493 469 90 491 gf180mcu_fd_sc_mcu9t5v0__mux2_2
* cell instance $1153 m0 *1 1198.96,1073.52
X$1153 598 597 161 91 139 140 gf180mcu_fd_sc_mcu9t5v0__mux2_2
* cell instance $1155 m0 *1 1198.4,1063.44
X$1155 598 117 603 118 91 597 gf180mcu_fd_sc_mcu9t5v0__addh_2
* cell instance $1158 r0 *1 1192.24,1063.44
X$1158 598 160 91 116 597 gf180mcu_fd_sc_mcu9t5v0__addh_4
* cell instance $1161 r0 *1 1220.8,1083.6
X$1161 598 597 91 159 gf180mcu_fd_sc_mcu9t5v0__clkinv_2
* cell instance $1180 r0 *1 1223.04,1093.68
X$1180 597 94 212 598 184 gf180mcu_fd_sc_mcu9t5v0__xnor2_2
* cell instance $1200 r0 *1 1106.56,1083.6
X$1200 598 195 597 98 166 198 gf180mcu_fd_sc_mcu9t5v0__aoi21_2
* cell instance $1203 m0 *1 1169.84,1043.28
X$1203 598 99 108 597 gf180mcu_fd_sc_mcu9t5v0__clkbuf_8
* cell instance $1214 r0 *1 1131.2,1194.48
X$1214 598 597 405 406 100 392 gf180mcu_fd_sc_mcu9t5v0__mux2_2
* cell instance $1217 m0 *1 1074.08,1275.12
X$1217 598 597 545 469 100 547 gf180mcu_fd_sc_mcu9t5v0__mux2_2
* cell instance $1219 m0 *1 1039.36,1123.92
X$1219 598 597 237 238 100 239 gf180mcu_fd_sc_mcu9t5v0__mux2_2
* cell instance $1222 r0 *1 1098.72,1194.48
X$1222 598 597 417 362 100 402 gf180mcu_fd_sc_mcu9t5v0__mux2_2
* cell instance $1225 r0 *1 1141.84,1244.88
X$1225 598 597 519 460 100 507 gf180mcu_fd_sc_mcu9t5v0__mux2_2
* cell instance $1228 r0 *1 1138.48,1043.28
X$1228 598 101 100 597 gf180mcu_fd_sc_mcu9t5v0__clkbuf_8
* cell instance $1231 r0 *1 1051.68,1103.76
X$1231 598 597 215 170 100 218 gf180mcu_fd_sc_mcu9t5v0__mux2_2
* cell instance $1233 r0 *1 1084.16,1174.32
X$1233 598 597 377 270 100 387 gf180mcu_fd_sc_mcu9t5v0__mux2_2
* cell instance $1246 r0 *1 1057.84,1073.52
X$1246 598 103 597 gf180mcu_fd_sc_mcu9t5v0__clkbuf_12
* cell instance $1251 m0 *1 1016.96,1083.6
X$1251 598 147 103 162 597 gf180mcu_fd_sc_mcu9t5v0__dffq_2
* cell instance $1253 r0 *1 1034.88,1073.52
X$1253 598 148 103 126 597 gf180mcu_fd_sc_mcu9t5v0__dffq_2
* cell instance $1256 r0 *1 1043.84,1053.36
X$1256 598 105 103 104 597 gf180mcu_fd_sc_mcu9t5v0__dffq_2
* cell instance $1259 m0 *1 1044.96,1083.6
X$1259 598 169 103 187 597 gf180mcu_fd_sc_mcu9t5v0__dffq_2
* cell instance $1261 r0 *1 1041.6,1063.44
X$1261 598 127 103 142 597 gf180mcu_fd_sc_mcu9t5v0__dffq_2
* cell instance $1263 m0 *1 1057.84,1073.52
X$1263 598 205 103 597 gf180mcu_fd_sc_mcu9t5v0__clkbuf_20
* cell instance $1271 r0 *1 1058.4,1063.44
X$1271 598 127 597 106 129 143 105 gf180mcu_fd_sc_mcu9t5v0__aoi22_2
* cell instance $1290 m0 *1 1057.84,1103.76
X$1290 598 106 177 597 gf180mcu_fd_sc_mcu9t5v0__clkbuf_8
* cell instance $1294 r0 *1 1171.52,1063.44
X$1294 598 119 106 597 gf180mcu_fd_sc_mcu9t5v0__clkbuf_8
* cell instance $1296 r0 *1 1176.56,1103.76
X$1296 598 181 597 106 228 110 182 gf180mcu_fd_sc_mcu9t5v0__aoi22_2
* cell instance $1298 r0 *1 1163.12,1123.92
X$1298 598 597 106 234 gf180mcu_fd_sc_mcu9t5v0__clkinv_3
* cell instance $1301 r0 *1 1168.16,1174.32
X$1301 598 106 366 597 gf180mcu_fd_sc_mcu9t5v0__clkbuf_8
* cell instance $1303 m0 *1 1074.64,1144.08
X$1303 598 265 597 106 309 143 291 gf180mcu_fd_sc_mcu9t5v0__aoi22_2
* cell instance $1308 m0 *1 1037.68,1164.24
X$1308 598 314 597 106 327 143 315 gf180mcu_fd_sc_mcu9t5v0__aoi22_2
* cell instance $1311 m0 *1 1065.68,1174.32
X$1311 598 360 597 106 336 143 335 gf180mcu_fd_sc_mcu9t5v0__aoi22_2
* cell instance $1315 r0 *1 1070.72,1053.36
X$1315 598 597 107 122 110 gf180mcu_fd_sc_mcu9t5v0__nand2_2
* cell instance $1333 m0 *1 1050.56,1214.64
X$1333 598 597 424 423 108 426 gf180mcu_fd_sc_mcu9t5v0__mux2_2
* cell instance $1336 m0 *1 1039.36,1154.16
X$1336 598 597 290 261 108 316 gf180mcu_fd_sc_mcu9t5v0__mux2_2
* cell instance $1339 r0 *1 1048.32,1083.6
X$1339 598 597 187 146 108 169 gf180mcu_fd_sc_mcu9t5v0__mux2_2
* cell instance $1343 r0 *1 1174.88,1295.28
X$1343 598 597 581 564 108 536 gf180mcu_fd_sc_mcu9t5v0__mux2_2
* cell instance $1345 r0 *1 1115.52,1305.36
X$1345 598 597 592 529 108 587 gf180mcu_fd_sc_mcu9t5v0__mux2_2
* cell instance $1347 m0 *1 1066.24,1295.28
X$1347 598 597 582 501 108 572 gf180mcu_fd_sc_mcu9t5v0__mux2_2
* cell instance $1350 r0 *1 1153.04,1144.08
X$1350 598 597 312 298 108 299 gf180mcu_fd_sc_mcu9t5v0__mux2_2
* cell instance $1377 m0 *1 1074.64,1224.72
X$1377 598 458 597 177 440 110 459 gf180mcu_fd_sc_mcu9t5v0__aoi22_2
* cell instance $1381 r0 *1 1144.08,1073.52
X$1381 598 137 597 143 144 110 136 gf180mcu_fd_sc_mcu9t5v0__aoi22_2
* cell instance $1383 r0 *1 1182.72,1083.6
X$1383 598 191 110 597 gf180mcu_fd_sc_mcu9t5v0__clkbuf_8
* cell instance $1385 r0 *1 1148.56,1123.92
X$1385 598 110 222 597 gf180mcu_fd_sc_mcu9t5v0__clkbuf_8
* cell instance $1390 m0 *1 1170.4,1174.32
X$1390 598 597 363 354 110 gf180mcu_fd_sc_mcu9t5v0__nand2_2
* cell instance $1392 m0 *1 1154.16,1224.72
X$1392 598 446 444 110 448 445 220 207 597 gf180mcu_fd_sc_mcu9t5v0__aoi222_2
* cell instance $1395 m0 *1 1058.96,1214.64
X$1395 598 457 597 177 427 110 426 gf180mcu_fd_sc_mcu9t5v0__aoi22_2
* cell instance $1400 m0 *1 1105.44,1083.6
X$1400 154 167 165 111 598 597 198 gf180mcu_fd_sc_mcu9t5v0__and4_2
* cell instance $1411 m0 *1 1124.48,1063.44
X$1411 598 597 131 115 132 114 gf180mcu_fd_sc_mcu9t5v0__mux2_2
* cell instance $1415 r0 *1 1125.04,1063.44
X$1415 598 115 133 145 597 gf180mcu_fd_sc_mcu9t5v0__dffq_2
* cell instance $1427 m0 *1 1067.92,1083.6
X$1427 598 116 143 597 gf180mcu_fd_sc_mcu9t5v0__buf_8
* cell instance $1431 r0 *1 1167.6,1053.36
X$1431 598 597 157 117 116 gf180mcu_fd_sc_mcu9t5v0__nor2_2
* cell instance $1433 m0 *1 1170.4,1083.6
X$1433 598 116 220 597 gf180mcu_fd_sc_mcu9t5v0__clkbuf_8
* cell instance $1453 m0 *1 1207.36,1073.52
X$1453 597 118 139 598 141 gf180mcu_fd_sc_mcu9t5v0__xnor2_2
* cell instance $1456 m0 *1 1187.76,1053.36
X$1456 119 598 597 118 159 gf180mcu_fd_sc_mcu9t5v0__addh_1
* cell instance $1458 m0 *1 1200.08,1083.6
X$1458 598 597 118 160 gf180mcu_fd_sc_mcu9t5v0__clkinv_2
* cell instance $1468 m0 *1 1092.56,1073.52
X$1468 598 166 153 120 129 130 123 144 597 gf180mcu_fd_sc_mcu9t5v0__mux4_2
* cell instance $1470 m0 *1 1165.36,1063.44
X$1470 598 121 158 597 gf180mcu_fd_sc_mcu9t5v0__clkbuf_8
* cell instance $1523 m0 *1 1058.4,1265.04
X$1523 598 597 504 526 130 561 gf180mcu_fd_sc_mcu9t5v0__mux2_2
* cell instance $1525 m0 *1 1064,1244.88
X$1525 598 597 494 483 130 516 gf180mcu_fd_sc_mcu9t5v0__mux2_2