* CDL Netlist generated by OpenROAD

*.BUSDELIMITER [

.SUBCKT mesh_router clk east_in_data[0] east_in_data[10] east_in_data[11]
+ east_in_data[12] east_in_data[13] east_in_data[14] east_in_data[15]
+ east_in_data[16] east_in_data[17] east_in_data[18] east_in_data[19]
+ east_in_data[1] east_in_data[20] east_in_data[21] east_in_data[22]
+ east_in_data[23] east_in_data[24] east_in_data[25] east_in_data[26]
+ east_in_data[27] east_in_data[28] east_in_data[29] east_in_data[2]
+ east_in_data[30] east_in_data[31] east_in_data[3] east_in_data[4]
+ east_in_data[5] east_in_data[6] east_in_data[7] east_in_data[8]
+ east_in_data[9] east_in_ready east_in_valid east_out_data[0]
+ east_out_data[10] east_out_data[11] east_out_data[12] east_out_data[13]
+ east_out_data[14] east_out_data[15] east_out_data[16] east_out_data[17]
+ east_out_data[18] east_out_data[19] east_out_data[1] east_out_data[20]
+ east_out_data[21] east_out_data[22] east_out_data[23] east_out_data[24]
+ east_out_data[25] east_out_data[26] east_out_data[27] east_out_data[28]
+ east_out_data[29] east_out_data[2] east_out_data[30] east_out_data[31]
+ east_out_data[3] east_out_data[4] east_out_data[5] east_out_data[6]
+ east_out_data[7] east_out_data[8] east_out_data[9] east_out_ready
+ east_out_valid local_in_data[0] local_in_data[10] local_in_data[11]
+ local_in_data[12] local_in_data[13] local_in_data[14] local_in_data[15]
+ local_in_data[16] local_in_data[17] local_in_data[18] local_in_data[19]
+ local_in_data[1] local_in_data[20] local_in_data[21] local_in_data[22]
+ local_in_data[23] local_in_data[24] local_in_data[25] local_in_data[26]
+ local_in_data[27] local_in_data[28] local_in_data[29] local_in_data[2]
+ local_in_data[30] local_in_data[31] local_in_data[3] local_in_data[4]
+ local_in_data[5] local_in_data[6] local_in_data[7] local_in_data[8]
+ local_in_data[9] local_in_ready local_in_valid local_out_data[0]
+ local_out_data[10] local_out_data[11] local_out_data[12] local_out_data[13]
+ local_out_data[14] local_out_data[15] local_out_data[16] local_out_data[17]
+ local_out_data[18] local_out_data[19] local_out_data[1] local_out_data[20]
+ local_out_data[21] local_out_data[22] local_out_data[23] local_out_data[24]
+ local_out_data[25] local_out_data[26] local_out_data[27] local_out_data[28]
+ local_out_data[29] local_out_data[2] local_out_data[30] local_out_data[31]
+ local_out_data[3] local_out_data[4] local_out_data[5] local_out_data[6]
+ local_out_data[7] local_out_data[8] local_out_data[9] local_out_ready
+ local_out_valid north_in_data[0] north_in_data[10] north_in_data[11]
+ north_in_data[12] north_in_data[13] north_in_data[14] north_in_data[15]
+ north_in_data[16] north_in_data[17] north_in_data[18] north_in_data[19]
+ north_in_data[1] north_in_data[20] north_in_data[21] north_in_data[22]
+ north_in_data[23] north_in_data[24] north_in_data[25] north_in_data[26]
+ north_in_data[27] north_in_data[28] north_in_data[29] north_in_data[2]
+ north_in_data[30] north_in_data[31] north_in_data[3] north_in_data[4]
+ north_in_data[5] north_in_data[6] north_in_data[7] north_in_data[8]
+ north_in_data[9] north_in_ready north_in_valid north_out_data[0]
+ north_out_data[10] north_out_data[11] north_out_data[12] north_out_data[13]
+ north_out_data[14] north_out_data[15] north_out_data[16] north_out_data[17]
+ north_out_data[18] north_out_data[19] north_out_data[1] north_out_data[20]
+ north_out_data[21] north_out_data[22] north_out_data[23] north_out_data[24]
+ north_out_data[25] north_out_data[26] north_out_data[27] north_out_data[28]
+ north_out_data[29] north_out_data[2] north_out_data[30] north_out_data[31]
+ north_out_data[3] north_out_data[4] north_out_data[5] north_out_data[6]
+ north_out_data[7] north_out_data[8] north_out_data[9] north_out_ready
+ north_out_valid rst_n south_in_data[0] south_in_data[10] south_in_data[11]
+ south_in_data[12] south_in_data[13] south_in_data[14] south_in_data[15]
+ south_in_data[16] south_in_data[17] south_in_data[18] south_in_data[19]
+ south_in_data[1] south_in_data[20] south_in_data[21] south_in_data[22]
+ south_in_data[23] south_in_data[24] south_in_data[25] south_in_data[26]
+ south_in_data[27] south_in_data[28] south_in_data[29] south_in_data[2]
+ south_in_data[30] south_in_data[31] south_in_data[3] south_in_data[4]
+ south_in_data[5] south_in_data[6] south_in_data[7] south_in_data[8]
+ south_in_data[9] south_in_ready south_in_valid south_out_data[0]
+ south_out_data[10] south_out_data[11] south_out_data[12] south_out_data[13]
+ south_out_data[14] south_out_data[15] south_out_data[16] south_out_data[17]
+ south_out_data[18] south_out_data[19] south_out_data[1] south_out_data[20]
+ south_out_data[21] south_out_data[22] south_out_data[23] south_out_data[24]
+ south_out_data[25] south_out_data[26] south_out_data[27] south_out_data[28]
+ south_out_data[29] south_out_data[2] south_out_data[30] south_out_data[31]
+ south_out_data[3] south_out_data[4] south_out_data[5] south_out_data[6]
+ south_out_data[7] south_out_data[8] south_out_data[9] south_out_ready
+ south_out_valid west_in_data[0] west_in_data[10] west_in_data[11]
+ west_in_data[12] west_in_data[13] west_in_data[14] west_in_data[15]
+ west_in_data[16] west_in_data[17] west_in_data[18] west_in_data[19]
+ west_in_data[1] west_in_data[20] west_in_data[21] west_in_data[22]
+ west_in_data[23] west_in_data[24] west_in_data[25] west_in_data[26]
+ west_in_data[27] west_in_data[28] west_in_data[29] west_in_data[2]
+ west_in_data[30] west_in_data[31] west_in_data[3] west_in_data[4]
+ west_in_data[5] west_in_data[6] west_in_data[7] west_in_data[8]
+ west_in_data[9] west_in_ready west_in_valid west_out_data[0]
+ west_out_data[10] west_out_data[11] west_out_data[12] west_out_data[13]
+ west_out_data[14] west_out_data[15] west_out_data[16] west_out_data[17]
+ west_out_data[18] west_out_data[19] west_out_data[1] west_out_data[20]
+ west_out_data[21] west_out_data[22] west_out_data[23] west_out_data[24]
+ west_out_data[25] west_out_data[26] west_out_data[27] west_out_data[28]
+ west_out_data[29] west_out_data[2] west_out_data[30] west_out_data[31]
+ west_out_data[3] west_out_data[4] west_out_data[5] west_out_data[6]
+ west_out_data[7] west_out_data[8] west_out_data[9] west_out_ready
+ west_out_valid
X_1163_ input_buffer_valid\[4\] VSS VSS VDD VDD net203 sky130_fd_sc_hd__inv_1
X_1164_ net203 net68 net104 VSS VSS VDD VDD _0005_ sky130_fd_sc_hd__and3_4
X_1165_ input_buffer_valid\[3\] VSS VSS VDD VDD _0597_ sky130_fd_sc_hd__buf_4
X_1166_ _0597_ VSS VSS VDD VDD net301 sky130_fd_sc_hd__clkinv_2
X_1167_ net104 net301 net171 VSS VSS VDD VDD _0006_ sky130_fd_sc_hd__and3_4
X_1168_ input_buffer_valid\[2\] VSS VSS VDD VDD _0598_ sky130_fd_sc_hd__buf_4
X_1169_ _0598_ VSS VSS VDD VDD _0599_ sky130_fd_sc_hd__buf_2
X_1170_ _0599_ VSS VSS VDD VDD net271 sky130_fd_sc_hd__inv_1
X_1171_ net104 net271 net137 VSS VSS VDD VDD _0007_ sky130_fd_sc_hd__and3_4
X_1172_ input_buffer_valid\[1\] VSS VSS VDD VDD _0600_ sky130_fd_sc_hd__buf_4
X_1173_ _0600_ VSS VSS VDD VDD _0601_ sky130_fd_sc_hd__buf_2
X_1174_ _0601_ VSS VSS VDD VDD _0602_ sky130_fd_sc_hd__buf_2
X_1175_ _0602_ VSS VSS VDD VDD net173 sky130_fd_sc_hd__inv_1
X_1176_ net104 net173 net34 VSS VSS VDD VDD _0008_ sky130_fd_sc_hd__and3_4
X_1177_ input_buffer_valid\[0\] VSS VSS VDD VDD _0603_ sky130_fd_sc_hd__buf_2
X_1178_ _0603_ VSS VSS VDD VDD net237 sky130_fd_sc_hd__clkinvlp_4
X_1179_ net104 net237 net102 VSS VSS VDD VDD _0009_ sky130_fd_sc_hd__and3_4
X_1180_ dest_id\[4\]\[1\] VSS VSS VDD VDD _0604_ sky130_fd_sc_hd__clkbuf_4
X_1181_ dest_id\[4\]\[2\] VSS VSS VDD VDD _0605_ sky130_fd_sc_hd__buf_4
X_1182_ dest_id\[4\]\[0\] VSS VSS VDD VDD _0606_ sky130_fd_sc_hd__clkbuf_4
X_1183_ _0604_ _0605_ _0606_ VSS VSS VDD VDD _0607_ sky130_fd_sc_hd__nor3b_2
X_1184_ dest_id\[4\]\[3\] VSS VSS VDD VDD _0608_ sky130_fd_sc_hd__clkbuf_4
X_1185_ _0606_ _0608_ _0605_ VSS VSS VDD VDD _0609_ sky130_fd_sc_hd__nor3b_2
X_1186_ dest_id\[4\]\[5\] dest_id\[4\]\[4\] dest_id\[4\]\[7\]
+ dest_id\[4\]\[6\] VSS VSS VDD VDD _0610_ sky130_fd_sc_hd__nor4_2
X_1187_ _0607_ _0609_ _0610_ VSS VSS VDD VDD _0611_ sky130_fd_sc_hd__o21ai_2
X_1188_ _0611_ VSS VSS VDD VDD _1159_ sky130_fd_sc_hd__inv_1
X_1189_ dest_id\[4\]\[5\] dest_id\[4\]\[4\] dest_id\[4\]\[7\]
+ dest_id\[4\]\[6\] VSS VSS VDD VDD _0612_ sky130_fd_sc_hd__or4_1
X_1190_ _0612_ VSS VSS VDD VDD _0613_ sky130_fd_sc_hd__clkbuf_4
X_1191_ dest_id\[4\]\[0\] _0608_ _0605_ VSS VSS VDD VDD _0614_
+ sky130_fd_sc_hd__or3b_1
X_1192_ _0614_ VSS VSS VDD VDD _0615_ sky130_fd_sc_hd__buf_4
X_1193_ _0613_ _0615_ VSS VSS VDD VDD _1148_ sky130_fd_sc_hd__nor2_2
X_1194_ _1148_ VSS VSS VDD VDD _1151_ sky130_fd_sc_hd__inv_1
X_1195_ _0605_ _0608_ _0606_ VSS VSS VDD VDD _0616_ sky130_fd_sc_hd__nand3b_1
X_1196_ _0615_ _0616_ _0604_ _0613_ VSS VSS VDD VDD _1147_
+ sky130_fd_sc_hd__a211o_1
X_1197_ _1147_ VSS VSS VDD VDD _1154_ sky130_fd_sc_hd__inv_1
X_1198_ net172 _0609_ _1151_ net138 _1147_ VSS VSS VDD VDD
+ _0617_ sky130_fd_sc_hd__a221oi_1
X_1199_ _0604_ _0605_ dest_id\[4\]\[0\] VSS VSS VDD VDD _0618_
+ sky130_fd_sc_hd__or3b_1
X_1200_ _0618_ VSS VSS VDD VDD _0619_ sky130_fd_sc_hd__buf_2
X_1201_ _0606_ _0604_ _0605_ VSS VSS VDD VDD _0620_ sky130_fd_sc_hd__nand3b_1
X_1202_ _0619_ _0620_ _0608_ _0613_ VSS VSS VDD VDD _0621_
+ sky130_fd_sc_hd__a211oi_2
X_1203_ net103 _1151_ VSS VSS VDD VDD _0622_ sky130_fd_sc_hd__nand2_1
X_1204_ net35 _1148_ VSS VSS VDD VDD _0623_ sky130_fd_sc_hd__nand2_1
X_1205_ _0621_ _0622_ _0623_ VSS VSS VDD VDD _0624_ sky130_fd_sc_hd__and3_1
X_1206_ input_buffer_valid\[4\] VSS VSS VDD VDD _0625_ sky130_fd_sc_hd__buf_4
X_1207_ net69 _1159_ _0625_ VSS VSS VDD VDD _0626_ sky130_fd_sc_hd__o21ai_0
X_1208_ _0617_ _0624_ _0626_ net68 _0625_ VSS VSS VDD VDD
+ _0004_ sky130_fd_sc_hd__o32a_1
X_1209_ dest_id\[3\]\[1\] VSS VSS VDD VDD _0627_ sky130_fd_sc_hd__buf_4
X_1210_ dest_id\[3\]\[2\] VSS VSS VDD VDD _0628_ sky130_fd_sc_hd__buf_4
X_1211_ _0627_ _0628_ dest_id\[3\]\[0\] VSS VSS VDD VDD _0629_
+ sky130_fd_sc_hd__or3b_2
X_1212_ dest_id\[3\]\[0\] dest_id\[3\]\[3\] dest_id\[3\]\[2\]
+ VSS VSS VDD VDD _0630_ sky130_fd_sc_hd__or3b_2
X_1213_ dest_id\[3\]\[5\] dest_id\[3\]\[4\] dest_id\[3\]\[7\]
+ dest_id\[3\]\[6\] VSS VSS VDD VDD _0631_ sky130_fd_sc_hd__or4_2
X_1214_ _0629_ _0630_ _0631_ VSS VSS VDD VDD _1144_ sky130_fd_sc_hd__a21oi_4
X_1215_ _0631_ _0630_ VSS VSS VDD VDD _1133_ sky130_fd_sc_hd__nor2_1
X_1216_ _1133_ VSS VSS VDD VDD _1136_ sky130_fd_sc_hd__inv_1
X_1217_ _0627_ VSS VSS VDD VDD _0632_ sky130_fd_sc_hd__inv_1
X_1218_ dest_id\[3\]\[5\] dest_id\[3\]\[4\] dest_id\[3\]\[7\]
+ dest_id\[3\]\[6\] VSS VSS VDD VDD _0633_ sky130_fd_sc_hd__nor4_4
X_1219_ dest_id\[3\]\[0\] VSS VSS VDD VDD _0634_ sky130_fd_sc_hd__buf_4
X_1220_ _0634_ dest_id\[3\]\[3\] VSS VSS VDD VDD _0635_ sky130_fd_sc_hd__nand2_1
X_1221_ _0628_ _0635_ _0630_ VSS VSS VDD VDD _0636_ sky130_fd_sc_hd__o21ai_0
X_1222_ _0632_ _0633_ _0636_ VSS VSS VDD VDD _1139_ sky130_fd_sc_hd__and3_1
X_1223_ _0597_ VSS VSS VDD VDD _0637_ sky130_fd_sc_hd__buf_2
X_1224_ _1145_ _1134_ _1140_ _1142_ VSS VSS VDD VDD _0638_
+ sky130_fd_sc_hd__nor4_1
X_1225_ net69 _1144_ VSS VSS VDD VDD _0639_ sky130_fd_sc_hd__nor2_1
X_1226_ _1144_ _0638_ _0639_ VSS VSS VDD VDD _0640_ sky130_fd_sc_hd__a21oi_1
X_1227_ net138 _0630_ VSS VSS VDD VDD _0641_ sky130_fd_sc_hd__nand2_1
X_1228_ _0634_ dest_id\[3\]\[3\] _0628_ VSS VSS VDD VDD _0642_
+ sky130_fd_sc_hd__nor3b_4
X_1229_ net172 _0642_ VSS VSS VDD VDD _0643_ sky130_fd_sc_hd__nand2_1
X_1230_ dest_id\[3\]\[3\] _0631_ VSS VSS VDD VDD _0644_ sky130_fd_sc_hd__nor2_1
X_1231_ _0634_ _0628_ VSS VSS VDD VDD _0645_ sky130_fd_sc_hd__nand2b_1
X_1232_ net35 _0632_ _0645_ _0629_ net103 VSS VSS VDD VDD
+ _0646_ sky130_fd_sc_hd__o32ai_1
X_1233_ _1139_ _0641_ _0643_ _0644_ _0646_ VSS VSS VDD VDD
+ _0647_ sky130_fd_sc_hd__a32oi_1
X_1234_ _0637_ net171 VSS VSS VDD VDD _0648_ sky130_fd_sc_hd__nor2_1
X_1235_ _0637_ _0640_ _0647_ _0648_ VSS VSS VDD VDD _0003_
+ sky130_fd_sc_hd__a31oi_1
X_1236_ dest_id\[2\]\[2\] VSS VSS VDD VDD _0649_ sky130_fd_sc_hd__buf_4
X_1237_ dest_id\[2\]\[0\] VSS VSS VDD VDD _0650_ sky130_fd_sc_hd__buf_4
X_1238_ dest_id\[2\]\[1\] _0649_ _0650_ VSS VSS VDD VDD _0651_
+ sky130_fd_sc_hd__nor3b_4
X_1239_ dest_id\[2\]\[3\] VSS VSS VDD VDD _0652_ sky130_fd_sc_hd__clkbuf_4
X_1240_ _0650_ _0652_ _0649_ VSS VSS VDD VDD _0653_ sky130_fd_sc_hd__nor3b_2
X_1241_ dest_id\[2\]\[5\] dest_id\[2\]\[4\] dest_id\[2\]\[7\]
+ dest_id\[2\]\[6\] VSS VSS VDD VDD _0654_ sky130_fd_sc_hd__nor4_4
X_1242_ _0651_ _0653_ _0654_ VSS VSS VDD VDD _0655_ sky130_fd_sc_hd__o21ai_4
X_1243_ _0655_ VSS VSS VDD VDD _1129_ sky130_fd_sc_hd__inv_1
X_1244_ dest_id\[2\]\[5\] dest_id\[2\]\[4\] dest_id\[2\]\[7\]
+ dest_id\[2\]\[6\] VSS VSS VDD VDD _0656_ sky130_fd_sc_hd__or4_4
X_1245_ dest_id\[2\]\[0\] _0652_ dest_id\[2\]\[2\] VSS VSS
+ VDD VDD _0657_ sky130_fd_sc_hd__or3b_1
X_1246_ _0657_ VSS VSS VDD VDD _0658_ sky130_fd_sc_hd__clkbuf_2
X_1247_ _0656_ _0658_ VSS VSS VDD VDD _1118_ sky130_fd_sc_hd__nor2_1
X_1248_ _1118_ VSS VSS VDD VDD _1121_ sky130_fd_sc_hd__inv_1
X_1249_ dest_id\[2\]\[1\] VSS VSS VDD VDD _0659_ sky130_fd_sc_hd__inv_1
X_1250_ _0650_ _0652_ VSS VSS VDD VDD _0660_ sky130_fd_sc_hd__nand2_1
X_1251_ _0649_ _0660_ _0658_ VSS VSS VDD VDD _0661_ sky130_fd_sc_hd__o21ai_0
X_1252_ _0659_ _0654_ _0661_ VSS VSS VDD VDD _1124_ sky130_fd_sc_hd__and3_1
X_1253_ _1130_ _1119_ _1125_ _1127_ VSS VSS VDD VDD _0662_
+ sky130_fd_sc_hd__nor4_1
X_1254_ net69 _0655_ VSS VSS VDD VDD _0663_ sky130_fd_sc_hd__nand2_1
X_1255_ _0655_ _0662_ _0663_ VSS VSS VDD VDD _0664_ sky130_fd_sc_hd__o21ai_0
X_1256_ net138 _0658_ VSS VSS VDD VDD _0665_ sky130_fd_sc_hd__nand2_1
X_1257_ net172 _0653_ VSS VSS VDD VDD _0666_ sky130_fd_sc_hd__nand2_1
X_1258_ _0652_ _0656_ VSS VSS VDD VDD _0667_ sky130_fd_sc_hd__nor2_1
X_1259_ _0650_ _0649_ VSS VSS VDD VDD _0668_ sky130_fd_sc_hd__nand2b_1
X_1260_ dest_id\[2\]\[1\] _0649_ _0650_ VSS VSS VDD VDD _0669_
+ sky130_fd_sc_hd__or3b_2
X_1261_ net35 _0659_ _0668_ _0669_ net103 VSS VSS VDD VDD
+ _0670_ sky130_fd_sc_hd__o32ai_1
X_1262_ _1124_ _0665_ _0666_ _0667_ _0670_ VSS VSS VDD VDD
+ _0671_ sky130_fd_sc_hd__a32oi_1
X_1263_ _0599_ net137 VSS VSS VDD VDD _0672_ sky130_fd_sc_hd__nor2_1
X_1264_ _0599_ _0664_ _0671_ _0672_ VSS VSS VDD VDD _0002_
+ sky130_fd_sc_hd__a31oi_1
X_1265_ dest_id\[1\]\[1\] VSS VSS VDD VDD _0673_ sky130_fd_sc_hd__clkbuf_4
X_1266_ dest_id\[1\]\[2\] VSS VSS VDD VDD _0674_ sky130_fd_sc_hd__clkbuf_4
X_1267_ _0673_ _0674_ dest_id\[1\]\[0\] VSS VSS VDD VDD _0675_
+ sky130_fd_sc_hd__nor3b_2
X_1268_ dest_id\[1\]\[0\] VSS VSS VDD VDD _0676_ sky130_fd_sc_hd__clkbuf_4
X_1269_ dest_id\[1\]\[3\] VSS VSS VDD VDD _0677_ sky130_fd_sc_hd__buf_4
X_1270_ _0676_ _0677_ dest_id\[1\]\[2\] VSS VSS VDD VDD _0678_
+ sky130_fd_sc_hd__nor3b_2
X_1271_ dest_id\[1\]\[5\] dest_id\[1\]\[4\] dest_id\[1\]\[7\]
+ dest_id\[1\]\[6\] VSS VSS VDD VDD _0679_ sky130_fd_sc_hd__nor4_2
X_1272_ _0675_ _0678_ _0679_ VSS VSS VDD VDD _0680_ sky130_fd_sc_hd__o21ai_2
X_1273_ _0680_ VSS VSS VDD VDD _0681_ sky130_fd_sc_hd__clkbuf_4
X_1274_ _0681_ VSS VSS VDD VDD _0682_ sky130_fd_sc_hd__clkbuf_4
X_1275_ _0682_ VSS VSS VDD VDD _1114_ sky130_fd_sc_hd__inv_1
X_1276_ _0679_ VSS VSS VDD VDD _0683_ sky130_fd_sc_hd__buf_4
X_1277_ _0683_ VSS VSS VDD VDD _0684_ sky130_fd_sc_hd__buf_2
X_1278_ _0678_ VSS VSS VDD VDD _0685_ sky130_fd_sc_hd__buf_4
X_1279_ _0685_ VSS VSS VDD VDD _0686_ sky130_fd_sc_hd__buf_2
X_1280_ _0684_ _0686_ VSS VSS VDD VDD _1106_ sky130_fd_sc_hd__nand2_2
X_1281_ _0676_ _0677_ _0674_ VSS VSS VDD VDD _0687_ sky130_fd_sc_hd__or3b_1
X_1282_ _0674_ _0677_ _0676_ VSS VSS VDD VDD _0688_ sky130_fd_sc_hd__nand3b_1
X_1283_ dest_id\[1\]\[5\] dest_id\[1\]\[4\] dest_id\[1\]\[7\]
+ dest_id\[1\]\[6\] VSS VSS VDD VDD _0689_ sky130_fd_sc_hd__or4_2
X_1284_ _0687_ _0688_ _0673_ _0689_ VSS VSS VDD VDD _1102_
+ sky130_fd_sc_hd__a211o_1
X_1285_ _1102_ VSS VSS VDD VDD _1109_ sky130_fd_sc_hd__clkinvlp_4
X_1286_ net35 net172 _1109_ VSS VSS VDD VDD _0690_ sky130_fd_sc_hd__mux2i_1
X_1287_ net103 net138 _1109_ VSS VSS VDD VDD _0691_ sky130_fd_sc_hd__mux2i_1
X_1288_ _0690_ _0691_ _1106_ VSS VSS VDD VDD _0692_ sky130_fd_sc_hd__mux2i_1
X_1289_ _1115_ _1104_ _1110_ _1112_ VSS VSS VDD VDD _0693_
+ sky130_fd_sc_hd__nor4_1
X_1290_ net173 _0682_ _0693_ VSS VSS VDD VDD _0694_ sky130_fd_sc_hd__nor3_1
X_1291_ _0602_ net69 _0682_ VSS VSS VDD VDD _0695_ sky130_fd_sc_hd__nand3_1
X_1292_ _0602_ net34 _0695_ VSS VSS VDD VDD _0696_ sky130_fd_sc_hd__o21ai_0
X_1293_ _0692_ _0694_ _0696_ VSS VSS VDD VDD _0001_ sky130_fd_sc_hd__a21oi_1
X_1294_ dest_id\[0\]\[2\] VSS VSS VDD VDD _0697_ sky130_fd_sc_hd__clkbuf_4
X_1295_ dest_id\[0\]\[0\] dest_id\[0\]\[3\] _0697_ VSS VSS
+ VDD VDD _0698_ sky130_fd_sc_hd__nor3b_4
X_1296_ dest_id\[0\]\[0\] VSS VSS VDD VDD _0699_ sky130_fd_sc_hd__inv_1
X_1297_ dest_id\[0\]\[3\] VSS VSS VDD VDD _0700_ sky130_fd_sc_hd__inv_1
X_1298_ _0699_ _0700_ _0697_ VSS VSS VDD VDD _0701_ sky130_fd_sc_hd__nor3_1
X_1299_ dest_id\[0\]\[5\] dest_id\[0\]\[4\] dest_id\[0\]\[7\]
+ dest_id\[0\]\[6\] VSS VSS VDD VDD _0702_ sky130_fd_sc_hd__nor4_4
X_1300_ dest_id\[0\]\[1\] _0702_ VSS VSS VDD VDD _0703_ sky130_fd_sc_hd__nor2b_2
X_1301_ _0698_ _0701_ _0703_ VSS VSS VDD VDD _1091_ sky130_fd_sc_hd__o21a_2
X_1302_ _0702_ _0698_ VSS VSS VDD VDD _1094_ sky130_fd_sc_hd__nand2_2
X_1303_ net35 net103 _1094_ VSS VSS VDD VDD _0704_ sky130_fd_sc_hd__mux2i_1
X_1304_ net172 net138 _1094_ VSS VSS VDD VDD _0705_ sky130_fd_sc_hd__mux2i_1
X_1305_ _0704_ _0705_ _1091_ VSS VSS VDD VDD _0706_ sky130_fd_sc_hd__mux2i_1
X_1306_ dest_id\[0\]\[1\] _0697_ dest_id\[0\]\[0\] VSS VSS
+ VDD VDD _0707_ sky130_fd_sc_hd__nor3b_4
X_1307_ _0698_ _0707_ _0702_ VSS VSS VDD VDD _0708_ sky130_fd_sc_hd__o21ai_4
X_1308_ _1100_ VSS VSS VDD VDD _0709_ sky130_fd_sc_hd__clkbuf_2
X_1309_ _0709_ VSS VSS VDD VDD _0710_ sky130_fd_sc_hd__buf_4
X_1310_ _1089_ _1092_ _1097_ _0710_ VSS VSS VDD VDD _0711_
+ sky130_fd_sc_hd__nor4_1
X_1311_ net237 _0708_ _0711_ VSS VSS VDD VDD _0712_ sky130_fd_sc_hd__nor3_1
X_1312_ _0603_ VSS VSS VDD VDD _0713_ sky130_fd_sc_hd__buf_4
X_1313_ _0713_ VSS VSS VDD VDD _0714_ sky130_fd_sc_hd__clkbuf_4
X_1314_ _0714_ net69 _0708_ VSS VSS VDD VDD _0715_ sky130_fd_sc_hd__nand3_1
X_1315_ _0714_ net102 _0715_ VSS VSS VDD VDD _0716_ sky130_fd_sc_hd__o21ai_0
X_1316_ _0706_ _0712_ _0716_ VSS VSS VDD VDD _0000_ sky130_fd_sc_hd__a21oi_1
X_1317_ _1094_ VSS VSS VDD VDD _1087_ sky130_fd_sc_hd__inv_1
X_1318_ _1124_ VSS VSS VDD VDD _1117_ sky130_fd_sc_hd__inv_1
X_1319_ _1139_ VSS VSS VDD VDD _1132_ sky130_fd_sc_hd__inv_1
X_1320_ _1091_ VSS VSS VDD VDD _1088_ sky130_fd_sc_hd__inv_1
X_1321_ _0708_ VSS VSS VDD VDD _1099_ sky130_fd_sc_hd__clkinv_2
X_1322_ _1106_ VSS VSS VDD VDD _1103_ sky130_fd_sc_hd__inv_1
X_1323_ _0651_ _0653_ _0598_ _1119_ _0654_ VSS VSS VDD VDD
+ _0717_ sky130_fd_sc_hd__o2111ai_4
X_1324_ _0717_ VSS VSS VDD VDD _0718_ sky130_fd_sc_hd__clkbuf_4
X_1325_ _0718_ VSS VSS VDD VDD _0719_ sky130_fd_sc_hd__clkbuf_4
X_1326_ _0698_ _0707_ _1089_ _0702_ VSS VSS VDD VDD _0720_
+ sky130_fd_sc_hd__o211ai_4
X_1327_ _0720_ VSS VSS VDD VDD _0721_ sky130_fd_sc_hd__clkbuf_4
X_1328_ _0600_ _1104_ VSS VSS VDD VDD _0722_ sky130_fd_sc_hd__and2_0
X_1329_ _0722_ VSS VSS VDD VDD _0723_ sky130_fd_sc_hd__clkbuf_2
X_1330_ _0675_ _0678_ _0723_ _0679_ VSS VSS VDD VDD _0724_
+ sky130_fd_sc_hd__o211a_1
X_1331_ _0724_ VSS VSS VDD VDD _0725_ sky130_fd_sc_hd__buf_2
X_1332_ _0725_ VSS VSS VDD VDD _0726_ sky130_fd_sc_hd__clkbuf_4
X_1333_ _0603_ VSS VSS VDD VDD _0727_ sky130_fd_sc_hd__buf_4
X_1334_ _0727_ input_buffer\[0\]\[0\] VSS VSS VDD VDD _0728_
+ sky130_fd_sc_hd__nand2_1
X_1335_ _0718_ VSS VSS VDD VDD _0729_ sky130_fd_sc_hd__buf_4
X_1336_ _0675_ VSS VSS VDD VDD _0730_ sky130_fd_sc_hd__buf_4
X_1337_ _0730_ VSS VSS VDD VDD _0731_ sky130_fd_sc_hd__buf_2
X_1338_ _0723_ VSS VSS VDD VDD _0732_ sky130_fd_sc_hd__clkbuf_4
X_1339_ _0731_ _0686_ _0732_ _0684_ input_buffer\[1\]\[0\]
+ VSS VSS VDD VDD _0733_ sky130_fd_sc_hd__o2111ai_1
X_1340_ _0721_ _0726_ _0728_ _0729_ _0733_ VSS VSS VDD VDD
+ _0734_ sky130_fd_sc_hd__o311ai_1
X_1341_ _0627_ _0628_ _0634_ VSS VSS VDD VDD _0735_ sky130_fd_sc_hd__nor3b_4
X_1342_ _0735_ _0642_ _0597_ _1134_ _0633_ VSS VSS VDD VDD
+ _0736_ sky130_fd_sc_hd__o2111ai_4
X_1343_ _0736_ VSS VSS VDD VDD _0737_ sky130_fd_sc_hd__clkbuf_4
X_1344_ input_buffer\[2\]\[0\] _0719_ _0734_ _0737_ VSS VSS
+ VDD VDD _0738_ sky130_fd_sc_hd__o211ai_1
X_1345_ _0607_ _0609_ _0625_ _1149_ _0610_ VSS VSS VDD VDD
+ _0739_ sky130_fd_sc_hd__o2111ai_4
X_1346_ _0739_ VSS VSS VDD VDD _0740_ sky130_fd_sc_hd__buf_4
X_1347_ _0740_ VSS VSS VDD VDD _0741_ sky130_fd_sc_hd__buf_4
X_1348_ _0597_ _1134_ _1144_ VSS VSS VDD VDD _0742_ sky130_fd_sc_hd__and3_1
X_1349_ _0742_ VSS VSS VDD VDD _0743_ sky130_fd_sc_hd__buf_4
X_1350_ _0743_ VSS VSS VDD VDD _0744_ sky130_fd_sc_hd__buf_6
X_1351_ input_buffer\[3\]\[0\] _0744_ VSS VSS VDD VDD _0745_
+ sky130_fd_sc_hd__nand2_1
X_1352_ input_buffer\[4\]\[0\] _0741_ VSS VSS VDD VDD _0746_
+ sky130_fd_sc_hd__nor2_1
X_1353_ _0738_ _0741_ _0745_ _0746_ VSS VSS VDD VDD net174
+ sky130_fd_sc_hd__a31oi_2
X_1354_ _0740_ VSS VSS VDD VDD _0747_ sky130_fd_sc_hd__clkbuf_4
X_1355_ _0727_ input_buffer\[0\]\[10\] VSS VSS VDD VDD _0748_
+ sky130_fd_sc_hd__nand2_1
X_1356_ _0731_ _0686_ _0732_ _0684_ input_buffer\[1\]\[10\]
+ VSS VSS VDD VDD _0749_ sky130_fd_sc_hd__o2111ai_1
X_1357_ _0721_ _0726_ _0748_ _0749_ _0729_ VSS VSS VDD VDD
+ _0750_ sky130_fd_sc_hd__o311ai_1
X_1358_ input_buffer\[2\]\[10\] _0719_ _0737_ _0750_ VSS VSS
+ VDD VDD _0751_ sky130_fd_sc_hd__o211ai_1
X_1359_ input_buffer\[3\]\[10\] _0744_ VSS VSS VDD VDD _0752_
+ sky130_fd_sc_hd__nand2_1
X_1360_ input_buffer\[4\]\[10\] _0741_ VSS VSS VDD VDD _0753_
+ sky130_fd_sc_hd__nor2_1
X_1361_ _0747_ _0751_ _0752_ _0753_ VSS VSS VDD VDD net175
+ sky130_fd_sc_hd__a31oi_1
X_1362_ _0603_ VSS VSS VDD VDD _0754_ sky130_fd_sc_hd__buf_4
X_1363_ _0754_ input_buffer\[0\]\[11\] VSS VSS VDD VDD _0755_
+ sky130_fd_sc_hd__nand2_1
X_1364_ _0731_ _0686_ _0732_ _0684_ input_buffer\[1\]\[11\]
+ VSS VSS VDD VDD _0756_ sky130_fd_sc_hd__o2111ai_1
X_1365_ _0721_ _0726_ _0755_ _0756_ _0729_ VSS VSS VDD VDD
+ _0757_ sky130_fd_sc_hd__o311ai_2
X_1366_ input_buffer\[2\]\[11\] _0719_ _0737_ _0757_ VSS VSS
+ VDD VDD _0758_ sky130_fd_sc_hd__o211ai_1
X_1367_ input_buffer\[3\]\[11\] _0744_ VSS VSS VDD VDD _0759_
+ sky130_fd_sc_hd__nand2_1
X_1368_ input_buffer\[4\]\[11\] _0741_ VSS VSS VDD VDD _0760_
+ sky130_fd_sc_hd__nor2_1
X_1369_ _0747_ _0758_ _0759_ _0760_ VSS VSS VDD VDD net176
+ sky130_fd_sc_hd__a31oi_1
X_1370_ _0727_ input_buffer\[0\]\[12\] VSS VSS VDD VDD _0761_
+ sky130_fd_sc_hd__nand2_1
X_1371_ _0731_ _0686_ _0732_ _0684_ input_buffer\[1\]\[12\]
+ VSS VSS VDD VDD _0762_ sky130_fd_sc_hd__o2111ai_1
X_1372_ _0718_ VSS VSS VDD VDD _0763_ sky130_fd_sc_hd__clkbuf_4
X_1373_ _0721_ _0726_ _0761_ _0762_ _0763_ VSS VSS VDD VDD
+ _0764_ sky130_fd_sc_hd__o311ai_1
X_1374_ input_buffer\[2\]\[12\] _0719_ _0737_ _0764_ VSS VSS
+ VDD VDD _0765_ sky130_fd_sc_hd__o211ai_1
X_1375_ input_buffer\[3\]\[12\] _0744_ VSS VSS VDD VDD _0766_
+ sky130_fd_sc_hd__nand2_1
X_1376_ _0739_ VSS VSS VDD VDD _0767_ sky130_fd_sc_hd__buf_4
X_1377_ input_buffer\[4\]\[12\] _0767_ VSS VSS VDD VDD _0768_
+ sky130_fd_sc_hd__nor2_1
X_1378_ _0747_ _0765_ _0766_ _0768_ VSS VSS VDD VDD net177
+ sky130_fd_sc_hd__a31oi_1
X_1379_ _0727_ input_buffer\[0\]\[13\] VSS VSS VDD VDD _0769_
+ sky130_fd_sc_hd__nand2_1
X_1380_ _0731_ _0686_ _0732_ _0684_ input_buffer\[1\]\[13\]
+ VSS VSS VDD VDD _0770_ sky130_fd_sc_hd__o2111ai_1
X_1381_ _0721_ _0726_ _0769_ _0770_ _0763_ VSS VSS VDD VDD
+ _0771_ sky130_fd_sc_hd__o311ai_1
X_1382_ input_buffer\[2\]\[13\] _0719_ _0737_ _0771_ VSS VSS
+ VDD VDD _0772_ sky130_fd_sc_hd__o211ai_1
X_1383_ input_buffer\[3\]\[13\] _0744_ VSS VSS VDD VDD _0773_
+ sky130_fd_sc_hd__nand2_1
X_1384_ input_buffer\[4\]\[13\] _0767_ VSS VSS VDD VDD _0774_
+ sky130_fd_sc_hd__nor2_1
X_1385_ _0747_ _0772_ _0773_ _0774_ VSS VSS VDD VDD net178
+ sky130_fd_sc_hd__a31oi_1
X_1386_ _0724_ VSS VSS VDD VDD _0775_ sky130_fd_sc_hd__clkbuf_4
X_1387_ _0754_ input_buffer\[0\]\[14\] VSS VSS VDD VDD _0776_
+ sky130_fd_sc_hd__nand2_1
X_1388_ _0731_ _0686_ _0732_ _0684_ input_buffer\[1\]\[14\]
+ VSS VSS VDD VDD _0777_ sky130_fd_sc_hd__o2111ai_1
X_1389_ _0721_ _0775_ _0776_ _0777_ _0763_ VSS VSS VDD VDD
+ _0778_ sky130_fd_sc_hd__o311ai_2
X_1390_ input_buffer\[2\]\[14\] _0719_ _0737_ _0778_ VSS VSS
+ VDD VDD _0779_ sky130_fd_sc_hd__o211ai_1
X_1391_ input_buffer\[3\]\[14\] _0744_ VSS VSS VDD VDD _0780_
+ sky130_fd_sc_hd__nand2_1
X_1392_ input_buffer\[4\]\[14\] _0767_ VSS VSS VDD VDD _0781_
+ sky130_fd_sc_hd__nor2_1
X_1393_ _0747_ _0779_ _0780_ _0781_ VSS VSS VDD VDD net179
+ sky130_fd_sc_hd__a31oi_1
X_1394_ _0754_ input_buffer\[0\]\[15\] VSS VSS VDD VDD _0782_
+ sky130_fd_sc_hd__nand2_1
X_1395_ _0731_ _0686_ _0732_ _0684_ input_buffer\[1\]\[15\]
+ VSS VSS VDD VDD _0783_ sky130_fd_sc_hd__o2111ai_1
X_1396_ _0721_ _0775_ _0782_ _0783_ _0763_ VSS VSS VDD VDD
+ _0784_ sky130_fd_sc_hd__o311ai_0
X_1397_ input_buffer\[2\]\[15\] _0719_ _0737_ _0784_ VSS VSS
+ VDD VDD _0785_ sky130_fd_sc_hd__o211ai_1
X_1398_ input_buffer\[3\]\[15\] _0744_ VSS VSS VDD VDD _0786_
+ sky130_fd_sc_hd__nand2_1
X_1399_ input_buffer\[4\]\[15\] _0767_ VSS VSS VDD VDD _0787_
+ sky130_fd_sc_hd__nor2_1
X_1400_ _0747_ _0785_ _0786_ _0787_ VSS VSS VDD VDD net180
+ sky130_fd_sc_hd__a31oi_1
X_1401_ _0754_ input_buffer\[0\]\[16\] VSS VSS VDD VDD _0788_
+ sky130_fd_sc_hd__nand2_1
X_1402_ _0731_ _0686_ _0732_ _0684_ input_buffer\[1\]\[16\]
+ VSS VSS VDD VDD _0789_ sky130_fd_sc_hd__o2111ai_1
X_1403_ _0721_ _0775_ _0788_ _0789_ _0763_ VSS VSS VDD VDD
+ _0790_ sky130_fd_sc_hd__o311ai_0
X_1404_ input_buffer\[2\]\[16\] _0719_ _0737_ _0790_ VSS VSS
+ VDD VDD _0791_ sky130_fd_sc_hd__o211ai_1
X_1405_ input_buffer\[3\]\[16\] _0744_ VSS VSS VDD VDD _0792_
+ sky130_fd_sc_hd__nand2_1
X_1406_ input_buffer\[4\]\[16\] _0767_ VSS VSS VDD VDD _0793_
+ sky130_fd_sc_hd__nor2_1
X_1407_ _0747_ _0791_ _0792_ _0793_ VSS VSS VDD VDD net181
+ sky130_fd_sc_hd__a31oi_1
X_1408_ _0727_ input_buffer\[0\]\[17\] VSS VSS VDD VDD _0794_
+ sky130_fd_sc_hd__nand2_1
X_1409_ _0731_ _0686_ _0732_ _0684_ input_buffer\[1\]\[17\]
+ VSS VSS VDD VDD _0795_ sky130_fd_sc_hd__o2111ai_1
X_1410_ _0721_ _0775_ _0794_ _0795_ _0763_ VSS VSS VDD VDD
+ _0796_ sky130_fd_sc_hd__o311ai_0
X_1411_ input_buffer\[2\]\[17\] _0719_ _0737_ _0796_ VSS VSS
+ VDD VDD _0797_ sky130_fd_sc_hd__o211ai_1
X_1412_ input_buffer\[3\]\[17\] _0744_ VSS VSS VDD VDD _0798_
+ sky130_fd_sc_hd__nand2_1
X_1413_ input_buffer\[4\]\[17\] _0767_ VSS VSS VDD VDD _0799_
+ sky130_fd_sc_hd__nor2_1
X_1414_ _0747_ _0797_ _0798_ _0799_ VSS VSS VDD VDD net182
+ sky130_fd_sc_hd__a31oi_2
X_1415_ _0718_ VSS VSS VDD VDD _0800_ sky130_fd_sc_hd__clkbuf_4
X_1416_ _0736_ VSS VSS VDD VDD _0801_ sky130_fd_sc_hd__clkbuf_4
X_1417_ _0754_ input_buffer\[0\]\[18\] VSS VSS VDD VDD _0802_
+ sky130_fd_sc_hd__nand2_1
X_1418_ _0730_ VSS VSS VDD VDD _0803_ sky130_fd_sc_hd__buf_2
X_1419_ _0685_ VSS VSS VDD VDD _0804_ sky130_fd_sc_hd__buf_2
X_1420_ _0683_ VSS VSS VDD VDD _0805_ sky130_fd_sc_hd__buf_2
X_1421_ _0803_ _0804_ _0732_ _0805_ input_buffer\[1\]\[18\]
+ VSS VSS VDD VDD _0806_ sky130_fd_sc_hd__o2111ai_1
X_1422_ _0721_ _0775_ _0802_ _0806_ _0763_ VSS VSS VDD VDD
+ _0807_ sky130_fd_sc_hd__o311ai_0
X_1423_ input_buffer\[2\]\[18\] _0800_ _0801_ _0807_ VSS VSS
+ VDD VDD _0808_ sky130_fd_sc_hd__o211ai_1
X_1424_ input_buffer\[3\]\[18\] _0744_ VSS VSS VDD VDD _0809_
+ sky130_fd_sc_hd__nand2_1
X_1425_ input_buffer\[4\]\[18\] _0767_ VSS VSS VDD VDD _0810_
+ sky130_fd_sc_hd__nor2_1
X_1426_ _0747_ _0808_ _0809_ _0810_ VSS VSS VDD VDD net183
+ sky130_fd_sc_hd__a31oi_1
X_1427_ _0720_ VSS VSS VDD VDD _0811_ sky130_fd_sc_hd__buf_2
X_1428_ _0727_ input_buffer\[0\]\[19\] VSS VSS VDD VDD _0812_
+ sky130_fd_sc_hd__nand2_1
X_1429_ _0723_ VSS VSS VDD VDD _0813_ sky130_fd_sc_hd__clkbuf_4
X_1430_ _0803_ _0804_ _0813_ _0805_ input_buffer\[1\]\[19\]
+ VSS VSS VDD VDD _0814_ sky130_fd_sc_hd__o2111ai_1
X_1431_ _0811_ _0775_ _0812_ _0814_ _0763_ VSS VSS VDD VDD
+ _0815_ sky130_fd_sc_hd__o311ai_1
X_1432_ input_buffer\[2\]\[19\] _0800_ _0801_ _0815_ VSS VSS
+ VDD VDD _0816_ sky130_fd_sc_hd__o211ai_1
X_1433_ _0743_ VSS VSS VDD VDD _0817_ sky130_fd_sc_hd__buf_6
X_1434_ input_buffer\[3\]\[19\] _0817_ VSS VSS VDD VDD _0818_
+ sky130_fd_sc_hd__nand2_1
X_1435_ input_buffer\[4\]\[19\] _0767_ VSS VSS VDD VDD _0819_
+ sky130_fd_sc_hd__nor2_1
X_1436_ _0747_ _0816_ _0818_ _0819_ VSS VSS VDD VDD net184
+ sky130_fd_sc_hd__a31oi_1
X_1437_ _0740_ VSS VSS VDD VDD _0820_ sky130_fd_sc_hd__buf_4
X_1438_ _0754_ input_buffer\[0\]\[1\] VSS VSS VDD VDD _0821_
+ sky130_fd_sc_hd__nand2_1
X_1439_ _0803_ _0804_ _0813_ _0805_ input_buffer\[1\]\[1\]
+ VSS VSS VDD VDD _0822_ sky130_fd_sc_hd__o2111ai_1
X_1440_ _0811_ _0775_ _0821_ _0822_ _0763_ VSS VSS VDD VDD
+ _0823_ sky130_fd_sc_hd__o311ai_0
X_1441_ input_buffer\[2\]\[1\] _0800_ _0801_ _0823_ VSS VSS
+ VDD VDD _0824_ sky130_fd_sc_hd__o211ai_1
X_1442_ input_buffer\[3\]\[1\] _0817_ VSS VSS VDD VDD _0825_
+ sky130_fd_sc_hd__nand2_1
X_1443_ input_buffer\[4\]\[1\] _0767_ VSS VSS VDD VDD _0826_
+ sky130_fd_sc_hd__nor2_1
X_1444_ _0820_ _0824_ _0825_ _0826_ VSS VSS VDD VDD net185
+ sky130_fd_sc_hd__a31oi_1
X_1445_ _0754_ input_buffer\[0\]\[20\] VSS VSS VDD VDD _0827_
+ sky130_fd_sc_hd__nand2_1
X_1446_ _0803_ _0804_ _0813_ _0805_ input_buffer\[1\]\[20\]
+ VSS VSS VDD VDD _0828_ sky130_fd_sc_hd__o2111ai_1
X_1447_ _0811_ _0775_ _0827_ _0828_ _0763_ VSS VSS VDD VDD
+ _0829_ sky130_fd_sc_hd__o311ai_0
X_1448_ input_buffer\[2\]\[20\] _0800_ _0801_ _0829_ VSS VSS
+ VDD VDD _0830_ sky130_fd_sc_hd__o211ai_1
X_1449_ input_buffer\[3\]\[20\] _0817_ VSS VSS VDD VDD _0831_
+ sky130_fd_sc_hd__nand2_1
X_1450_ input_buffer\[4\]\[20\] _0767_ VSS VSS VDD VDD _0832_
+ sky130_fd_sc_hd__nor2_1
X_1451_ _0820_ _0830_ _0831_ _0832_ VSS VSS VDD VDD net186
+ sky130_fd_sc_hd__a31oi_1
X_1452_ _0713_ input_buffer\[0\]\[21\] VSS VSS VDD VDD _0833_
+ sky130_fd_sc_hd__nand2_1
X_1453_ _0803_ _0804_ _0813_ _0805_ input_buffer\[1\]\[21\]
+ VSS VSS VDD VDD _0834_ sky130_fd_sc_hd__o2111ai_1