
* cell parameterized_loadable_counter
* pin load
* pin data_in[0]
* pin count[0]
* pin count[1]
* pin data_in[1]
* pin data_in[2]
* pin enable
* pin NWELL
* pin PWELL
* pin count[2]
* pin data_in[7]
* pin count[7]
* pin clk
* pin count[3]
* pin data_in[6]
* pin rst_n
* pin count[6]
* pin data_in[5]
* pin data_in[3]
* pin data_in[4]
* pin count[5]
* pin count[4]
.SUBCKT parameterized_loadable_counter 1 2 3 4 5 6 7 12 13 34 43 48 60 63 66 71
+ 75 85 86 87 88 89
* net 1 load
* net 2 data_in[0]
* net 3 count[0]
* net 4 count[1]
* net 5 data_in[1]
* net 6 data_in[2]
* net 7 enable
* net 12 NWELL
* net 13 PWELL
* net 34 count[2]
* net 43 data_in[7]
* net 48 count[7]
* net 60 clk
* net 63 count[3]
* net 66 data_in[6]
* net 71 rst_n
* net 75 count[6]
* net 85 data_in[5]
* net 86 data_in[3]
* net 87 data_in[4]
* net 88 count[5]
* net 89 count[4]
* cell instance $3 m0 *1 19.76,9.8
X$3 1 13 12 15 BUF_X2
* cell instance $8 r0 *1 21.85,1.4
X$8 2 13 12 9 BUF_X1
* cell instance $16 m0 *1 21.47,4.2
X$16 8 13 12 3 BUF_X1
* cell instance $20 r0 *1 22.42,1.4
X$20 10 13 12 4 BUF_X1
* cell instance $26 r0 *1 24.51,1.4
X$26 5 13 12 11 BUF_X1
* cell instance $33 m0 *1 25.46,4.2
X$33 6 13 12 24 BUF_X1
* cell instance $38 m0 *1 29.64,12.6
X$38 7 12 22 13 BUF_X4
* cell instance $50 r0 *1 20.9,21
X$50 49 8 10 13 12 61 NAND3_X1
* cell instance $53 r0 *1 23.75,15.4
X$53 8 10 31 12 13 47 HA_X1
* cell instance $56 m0 *1 18.81,12.6
X$56 13 21 28 23 8 12 DFF_X2
* cell instance $58 r0 *1 20.9,12.6
X$58 8 22 23 13 12 16 MUX2_X1
* cell instance $61 r0 *1 28.12,21
X$61 55 8 10 22 13 12 65 NAND4_X1
* cell instance $64 r0 *1 25.27,21
X$64 8 10 44 22 13 12 52 NAND4_X1
* cell instance $68 m0 *1 22.42,12.6
X$68 9 17 13 12 18 NOR2_X1
* cell instance $80 m0 *1 23.18,15.4
X$80 10 22 31 13 12 32 MUX2_X1
* cell instance $84 m0 *1 25.08,12.6
X$84 13 26 28 91 10 12 DFF_X2
* cell instance $89 m0 *1 24.51,12.6
X$89 11 17 13 12 25 NOR2_X1
* cell instance $94 m0 *1 20.9,23.8
X$94 61 57 13 12 51 NOR2_X1
* cell instance $97 m0 *1 23.37,23.8
X$97 57 50 13 12 64 NOR2_X1
* cell instance $98 m0 *1 23.94,23.8
X$98 60 13 12 27 CLKBUF_X3
* cell instance $101 r0 *1 26.22,21
X$101 53 44 47 22 13 12 54 NAND4_X1
* cell instance $102 r0 *1 27.17,21
X$102 44 53 59 12 13 55 AND3_X1
* cell instance $108 m0 *1 25.27,23.8
X$108 53 52 13 12 56 XOR2_X1
* cell instance $109 m0 *1 26.41,23.8
X$109 58 59 53 44 13 12 57 NAND4_X1
* cell instance $120 r0 *1 4.94,26.6
X$120 66 13 12 77 BUF_X1
* cell instance $125 r0 *1 10.26,26.6
X$125 71 13 12 39 BUF_X2
* cell instance $136 m0 *1 6.08,29.4
X$136 49 13 12 75 BUF_X1
* cell instance $141 m0 *1 18.05,29.4
X$141 13 49 72 62 12 DFF_X1
* cell instance $142 r0 *1 18.43,26.6
X$142 68 17 67 13 72 12 AOI21_X1
* cell instance $144 r0 *1 19.19,26.6
X$144 73 77 39 12 68 13 OAI21_X1
* cell instance $145 r0 *1 19.95,26.6
X$145 73 13 12 17 CLKBUF_X3
* cell instance $146 r0 *1 20.9,26.6
X$146 73 79 39 12 74 13 OAI21_X1
* cell instance $152 m0 *1 22.99,29.4
X$152 74 17 78 13 80 12 AOI21_X1
* cell instance $155 r0 *1 24.32,26.6
X$155 17 81 39 12 69 13 OAI21_X1
* cell instance $156 m0 *1 24.51,29.4
X$156 27 13 12 62 CLKBUF_X3
* cell instance $157 m0 *1 25.46,29.4
X$157 17 82 39 12 84 13 OAI21_X1
* cell instance $158 r0 *1 25.65,26.6
X$158 58 65 13 12 78 XOR2_X1
* cell instance $160 r0 *1 26.79,26.6
X$160 59 54 13 12 76 XOR2_X1
* cell instance $165 m0 *1 26.22,29.4
X$165 84 17 76 13 83 12 AOI21_X1
* cell instance $267 r0 *1 20.52,23.8
X$267 15 13 12 73 INV_X1
* cell instance $271 r0 *1 39.14,23.8
X$271 53 13 12 63 BUF_X1
* cell instance $280 m0 *1 18.43,26.6
X$280 49 64 12 13 67 XNOR2_X1
* cell instance $284 m0 *1 24.51,26.6
X$284 69 17 56 13 70 12 AOI21_X1
* cell instance $285 m0 *1 25.27,26.6
X$285 13 70 62 90 53 12 DFF_X2
* cell instance $336 m0 *1 22.8,32.2
X$336 13 58 80 62 12 DFF_X1
* cell instance $337 r0 *1 25.46,29.4
X$337 13 83 62 92 59 12 DFF_X2
* cell instance $358 r0 *1 26.41,43.4
X$358 58 13 12 88 BUF_X1
* cell instance $371 m0 *1 20.71,46.2
X$371 85 13 12 79 BUF_X1
* cell instance $376 m0 *1 24.13,46.2
X$376 86 13 12 81 BUF_X1
* cell instance $377 m0 *1 24.7,46.2
X$377 87 13 12 82 BUF_X1
* cell instance $380 m0 *1 29.07,46.2
X$380 59 13 12 89 BUF_X1
* cell instance $472 r0 *1 21.28,9.8
X$472 16 15 13 12 14 NOR2_X1
* cell instance $484 m0 *1 22.99,12.6
X$484 14 18 19 13 12 21 NOR3_X1
* cell instance $509 r0 *1 24.51,12.6
X$509 20 25 19 13 12 26 NOR3_X1
* cell instance $513 m0 *1 24.51,15.4
X$513 32 15 13 12 20 NOR2_X1
* cell instance $515 r0 *1 25.84,12.6
X$515 24 17 13 12 29 NOR2_X1
* cell instance $534 r0 *1 7.41,18.2
X$534 43 13 12 40 BUF_X1
* cell instance $538 r0 *1 17.86,18.2
X$538 13 41 38 28 12 DFF_X1
* cell instance $539 r0 *1 21.09,18.2
X$539 41 45 15 40 13 12 42 AOI22_X1
* cell instance $543 r0 *1 24.51,18.2
X$543 44 50 12 13 36 XNOR2_X1
* cell instance $551 m0 *1 1.33,21
X$551 41 13 12 48 BUF_X1
* cell instance $556 m0 *1 20.33,21
X$556 41 51 12 13 46 XNOR2_X1
* cell instance $560 m0 *1 25.08,21
X$560 47 22 13 12 50 NAND2_X1
* cell instance $576 r0 *1 22.8,15.4
X$576 27 13 12 28 CLKBUF_X3
* cell instance $578 r0 *1 25.84,15.4
X$578 35 29 19 13 12 30 NOR3_X1
* cell instance $579 r0 *1 26.6,15.4
X$579 13 37 30 28 12 DFF_X1
* cell instance $590 m0 *1 19.76,18.2
X$590 39 22 17 13 12 33 NAND3_X1
* cell instance $591 m0 *1 20.52,18.2
X$591 46 33 19 42 12 13 38 OAI22_X1
* cell instance $592 m0 *1 21.47,18.2
X$592 22 15 13 12 45 NOR2_X1
* cell instance $595 m0 *1 22.61,18.2
X$595 39 13 12 19 INV_X1
* cell instance $599 m0 *1 25.08,18.2
X$599 36 15 13 12 35 NOR2_X1
* cell instance $602 m0 *1 26.6,18.2
X$602 37 12 44 13 BUF_X4
* cell instance $607 m0 *1 39.33,18.2
X$607 37 13 12 34 BUF_X1
.ENDS parameterized_loadable_counter

* cell NAND2_X1
* pin A2
* pin A1
* pin PWELL,VSS
* pin NWELL,VDD
* pin ZN
.SUBCKT NAND2_X1 1 2 3 4 5
* net 1 A2
* net 2 A1
* net 3 PWELL,VSS
* net 4 NWELL,VDD
* net 5 ZN
* device instance $1 r0 *1 0.185,0.995 PMOS_VTL
M$1 5 1 4 4 PMOS_VTL L=0.05U W=0.63U AS=0.06615P AD=0.0441P PS=1.47U PD=0.77U
* device instance $2 r0 *1 0.375,0.995 PMOS_VTL
M$2 4 2 5 4 PMOS_VTL L=0.05U W=0.63U AS=0.0441P AD=0.06615P PS=0.77U PD=1.47U
* device instance $3 r0 *1 0.185,0.2975 NMOS_VTL
M$3 6 1 3 3 NMOS_VTL L=0.05U W=0.415U AS=0.043575P AD=0.02905P PS=1.04U
+ PD=0.555U
* device instance $4 r0 *1 0.375,0.2975 NMOS_VTL
M$4 5 2 6 3 NMOS_VTL L=0.05U W=0.415U AS=0.02905P AD=0.043575P PS=0.555U
+ PD=1.04U
.ENDS NAND2_X1

* cell AND3_X1
* pin A1
* pin A2
* pin A3
* pin NWELL,VDD
* pin PWELL,VSS
* pin ZN
.SUBCKT AND3_X1 1 2 3 5 6 7
* net 1 A1
* net 2 A2
* net 3 A3
* net 5 NWELL,VDD
* net 6 PWELL,VSS
* net 7 ZN
* device instance $1 r0 *1 0.17,1.1525 PMOS_VTL
M$1 5 1 4 5 PMOS_VTL L=0.05U W=0.315U AS=0.033075P AD=0.02205P PS=0.84U
+ PD=0.455U
* device instance $2 r0 *1 0.36,1.1525 PMOS_VTL
M$2 4 2 5 5 PMOS_VTL L=0.05U W=0.315U AS=0.02205P AD=0.02205P PS=0.455U
+ PD=0.455U
* device instance $3 r0 *1 0.55,1.1525 PMOS_VTL
M$3 4 3 5 5 PMOS_VTL L=0.05U W=0.315U AS=0.033075P AD=0.02205P PS=0.77U
+ PD=0.455U
* device instance $4 r0 *1 0.74,0.995 PMOS_VTL
M$4 7 4 5 5 PMOS_VTL L=0.05U W=0.63U AS=0.033075P AD=0.06615P PS=0.77U PD=1.47U
* device instance $5 r0 *1 0.17,0.195 NMOS_VTL
M$5 8 1 4 6 NMOS_VTL L=0.05U W=0.21U AS=0.02205P AD=0.0147P PS=0.63U PD=0.35U
* device instance $6 r0 *1 0.36,0.195 NMOS_VTL
M$6 9 2 8 6 NMOS_VTL L=0.05U W=0.21U AS=0.0147P AD=0.0147P PS=0.35U PD=0.35U
* device instance $7 r0 *1 0.55,0.195 NMOS_VTL
M$7 6 3 9 6 NMOS_VTL L=0.05U W=0.21U AS=0.0147P AD=0.021875P PS=0.35U PD=0.555U
* device instance $8 r0 *1 0.74,0.2975 NMOS_VTL
M$8 7 4 6 6 NMOS_VTL L=0.05U W=0.415U AS=0.021875P AD=0.043575P PS=0.555U
+ PD=1.04U
.ENDS AND3_X1

* cell BUF_X4
* pin A
* pin NWELL,VDD
* pin Z
* pin PWELL,VSS
.SUBCKT BUF_X4 1 3 4 5
* net 1 A
* net 3 NWELL,VDD
* net 4 Z
* net 5 PWELL,VSS
* device instance $1 r0 *1 0.17,0.995 PMOS_VTL
M$1 2 1 3 3 PMOS_VTL L=0.05U W=1.26U AS=0.11025P AD=0.0882P PS=2.24U PD=1.54U
* device instance $3 r0 *1 0.55,0.995 PMOS_VTL
M$3 4 2 3 3 PMOS_VTL L=0.05U W=2.52U AS=0.1764P AD=0.19845P PS=3.08U PD=3.78U
* device instance $7 r0 *1 0.17,0.2975 NMOS_VTL
M$7 2 1 5 5 NMOS_VTL L=0.05U W=0.83U AS=0.072625P AD=0.0581P PS=1.595U PD=1.11U
* device instance $9 r0 *1 0.55,0.2975 NMOS_VTL
M$9 4 2 5 5 NMOS_VTL L=0.05U W=1.66U AS=0.1162P AD=0.130725P PS=2.22U PD=2.705U
.ENDS BUF_X4

* cell OAI22_X1
* pin B2
* pin B1
* pin A1
* pin A2
* pin NWELL,VDD
* pin PWELL,VSS
* pin ZN
.SUBCKT OAI22_X1 1 2 3 4 6 7 8
* net 1 B2
* net 2 B1
* net 3 A1
* net 4 A2
* net 6 NWELL,VDD
* net 7 PWELL,VSS
* net 8 ZN
* device instance $1 r0 *1 0.185,0.995 PMOS_VTL
M$1 10 1 6 6 PMOS_VTL L=0.05U W=0.63U AS=0.06615P AD=0.0441P PS=1.47U PD=0.77U
* device instance $2 r0 *1 0.375,0.995 PMOS_VTL
M$2 8 2 10 6 PMOS_VTL L=0.05U W=0.63U AS=0.0441P AD=0.0441P PS=0.77U PD=0.77U
* device instance $3 r0 *1 0.565,0.995 PMOS_VTL
M$3 9 3 8 6 PMOS_VTL L=0.05U W=0.63U AS=0.0441P AD=0.0441P PS=0.77U PD=0.77U
* device instance $4 r0 *1 0.755,0.995 PMOS_VTL
M$4 6 4 9 6 PMOS_VTL L=0.05U W=0.63U AS=0.0441P AD=0.06615P PS=0.77U PD=1.47U
* device instance $5 r0 *1 0.185,0.2975 NMOS_VTL
M$5 7 1 5 7 NMOS_VTL L=0.05U W=0.415U AS=0.043575P AD=0.02905P PS=1.04U
+ PD=0.555U
* device instance $6 r0 *1 0.375,0.2975 NMOS_VTL
M$6 5 2 7 7 NMOS_VTL L=0.05U W=0.415U AS=0.02905P AD=0.02905P PS=0.555U
+ PD=0.555U
* device instance $7 r0 *1 0.565,0.2975 NMOS_VTL
M$7 8 3 5 7 NMOS_VTL L=0.05U W=0.415U AS=0.02905P AD=0.02905P PS=0.555U
+ PD=0.555U
* device instance $8 r0 *1 0.755,0.2975 NMOS_VTL
M$8 5 4 8 7 NMOS_VTL L=0.05U W=0.415U AS=0.02905P AD=0.043575P PS=0.555U
+ PD=1.04U
.ENDS OAI22_X1

* cell NAND3_X1
* pin A3
* pin A2
* pin A1
* pin PWELL,VSS
* pin NWELL,VDD
* pin ZN
.SUBCKT NAND3_X1 1 2 3 4 5 6
* net 1 A3
* net 2 A2
* net 3 A1
* net 4 PWELL,VSS
* net 5 NWELL,VDD
* net 6 ZN
* device instance $1 r0 *1 0.17,0.995 PMOS_VTL
M$1 6 1 5 5 PMOS_VTL L=0.05U W=0.63U AS=0.06615P AD=0.0441P PS=1.47U PD=0.77U
* device instance $2 r0 *1 0.36,0.995 PMOS_VTL
M$2 5 2 6 5 PMOS_VTL L=0.05U W=0.63U AS=0.0441P AD=0.0441P PS=0.77U PD=0.77U
* device instance $3 r0 *1 0.55,0.995 PMOS_VTL
M$3 6 3 5 5 PMOS_VTL L=0.05U W=0.63U AS=0.0441P AD=0.06615P PS=0.77U PD=1.47U
* device instance $4 r0 *1 0.17,0.2975 NMOS_VTL
M$4 8 1 4 4 NMOS_VTL L=0.05U W=0.415U AS=0.043575P AD=0.02905P PS=1.04U
+ PD=0.555U
* device instance $5 r0 *1 0.36,0.2975 NMOS_VTL
M$5 7 2 8 4 NMOS_VTL L=0.05U W=0.415U AS=0.02905P AD=0.02905P PS=0.555U
+ PD=0.555U
* device instance $6 r0 *1 0.55,0.2975 NMOS_VTL
M$6 6 3 7 4 NMOS_VTL L=0.05U W=0.415U AS=0.02905P AD=0.043575P PS=0.555U
+ PD=1.04U
.ENDS NAND3_X1

* cell AOI22_X1
* pin B2
* pin B1
* pin A1
* pin A2
* pin PWELL,VSS
* pin NWELL,VDD
* pin ZN
.SUBCKT AOI22_X1 1 2 3 4 5 7 8
* net 1 B2
* net 2 B1
* net 3 A1
* net 4 A2
* net 5 PWELL,VSS
* net 7 NWELL,VDD
* net 8 ZN
* device instance $1 r0 *1 0.185,0.995 PMOS_VTL
M$1 7 1 6 7 PMOS_VTL L=0.05U W=0.63U AS=0.06615P AD=0.0441P PS=1.47U PD=0.77U
* device instance $2 r0 *1 0.375,0.995 PMOS_VTL
M$2 6 2 7 7 PMOS_VTL L=0.05U W=0.63U AS=0.0441P AD=0.0441P PS=0.77U PD=0.77U
* device instance $3 r0 *1 0.565,0.995 PMOS_VTL
M$3 8 3 6 7 PMOS_VTL L=0.05U W=0.63U AS=0.0441P AD=0.0441P PS=0.77U PD=0.77U
* device instance $4 r0 *1 0.755,0.995 PMOS_VTL
M$4 6 4 8 7 PMOS_VTL L=0.05U W=0.63U AS=0.0441P AD=0.06615P PS=0.77U PD=1.47U
* device instance $5 r0 *1 0.185,0.2975 NMOS_VTL
M$5 10 1 5 5 NMOS_VTL L=0.05U W=0.415U AS=0.043575P AD=0.02905P PS=1.04U
+ PD=0.555U
* device instance $6 r0 *1 0.375,0.2975 NMOS_VTL
M$6 8 2 10 5 NMOS_VTL L=0.05U W=0.415U AS=0.02905P AD=0.02905P PS=0.555U
+ PD=0.555U
* device instance $7 r0 *1 0.565,0.2975 NMOS_VTL
M$7 9 3 8 5 NMOS_VTL L=0.05U W=0.415U AS=0.02905P AD=0.02905P PS=0.555U
+ PD=0.555U
* device instance $8 r0 *1 0.755,0.2975 NMOS_VTL
M$8 5 4 9 5 NMOS_VTL L=0.05U W=0.415U AS=0.02905P AD=0.043575P PS=0.555U
+ PD=1.04U
.ENDS AOI22_X1

* cell XNOR2_X1
* pin A
* pin B
* pin NWELL,VDD
* pin PWELL,VSS
* pin ZN
.SUBCKT XNOR2_X1 1 2 4 5 7
* net 1 A
* net 2 B
* net 4 NWELL,VDD
* net 5 PWELL,VSS
* net 7 ZN
* device instance $1 r0 *1 0.18,1.1525 PMOS_VTL
M$1 3 1 4 4 PMOS_VTL L=0.05U W=0.315U AS=0.033075P AD=0.02205P PS=0.84U
+ PD=0.455U
* device instance $2 r0 *1 0.37,1.1525 PMOS_VTL
M$2 3 2 4 4 PMOS_VTL L=0.05U W=0.315U AS=0.0338625P AD=0.02205P PS=0.775U
+ PD=0.455U
* device instance $3 r0 *1 0.565,0.995 PMOS_VTL
M$3 7 3 4 4 PMOS_VTL L=0.05U W=0.63U AS=0.0338625P AD=0.0441P PS=0.775U PD=0.77U
* device instance $4 r0 *1 0.755,0.995 PMOS_VTL
M$4 8 1 7 4 PMOS_VTL L=0.05U W=0.63U AS=0.0441P AD=0.0441P PS=0.77U PD=0.77U
* device instance $5 r0 *1 0.945,0.995 PMOS_VTL
M$5 4 2 8 4 PMOS_VTL L=0.05U W=0.63U AS=0.0441P AD=0.06615P PS=0.77U PD=1.47U
* device instance $6 r0 *1 0.18,0.195 NMOS_VTL
M$6 9 1 3 5 NMOS_VTL L=0.05U W=0.21U AS=0.02205P AD=0.0147P PS=0.63U PD=0.35U
* device instance $7 r0 *1 0.37,0.195 NMOS_VTL
M$7 5 2 9 5 NMOS_VTL L=0.05U W=0.21U AS=0.0147P AD=0.0224P PS=0.35U PD=0.56U
* device instance $8 r0 *1 0.565,0.2975 NMOS_VTL
M$8 6 3 5 5 NMOS_VTL L=0.05U W=0.415U AS=0.0224P AD=0.02905P PS=0.56U PD=0.555U
* device instance $9 r0 *1 0.755,0.2975 NMOS_VTL
M$9 7 1 6 5 NMOS_VTL L=0.05U W=0.415U AS=0.02905P AD=0.02905P PS=0.555U
+ PD=0.555U
* device instance $10 r0 *1 0.945,0.2975 NMOS_VTL
M$10 6 2 7 5 NMOS_VTL L=0.05U W=0.415U AS=0.02905P AD=0.043575P PS=0.555U
+ PD=1.04U
.ENDS XNOR2_X1

* cell BUF_X2
* pin A
* pin PWELL,VSS
* pin NWELL,VDD
* pin Z
.SUBCKT BUF_X2 1 3 4 5
* net 1 A
* net 3 PWELL,VSS
* net 4 NWELL,VDD
* net 5 Z
* device instance $1 r0 *1 0.21,0.995 PMOS_VTL
M$1 4 1 2 4 PMOS_VTL L=0.05U W=0.63U AS=0.06615P AD=0.0441P PS=1.47U PD=0.77U
* device instance $2 r0 *1 0.4,0.995 PMOS_VTL
M$2 5 2 4 4 PMOS_VTL L=0.05U W=1.26U AS=0.0882P AD=0.11025P PS=1.54U PD=2.24U
* device instance $4 r0 *1 0.21,0.2975 NMOS_VTL
M$4 3 1 2 3 NMOS_VTL L=0.05U W=0.415U AS=0.043575P AD=0.02905P PS=1.04U
+ PD=0.555U
* device instance $5 r0 *1 0.4,0.2975 NMOS_VTL
M$5 5 2 3 3 NMOS_VTL L=0.05U W=0.83U AS=0.0581P AD=0.072625P PS=1.11U PD=1.595U
.ENDS BUF_X2

* cell DFF_X2
* pin PWELL,VSS
* pin D
* pin CK
* pin QN
* pin Q
* pin NWELL,VDD
.SUBCKT DFF_X2 1 6 8 10 11 16
* net 1 PWELL,VSS
* net 6 D
* net 8 CK
* net 10 QN
* net 11 Q
* net 16 NWELL,VDD
* device instance $1 r0 *1 2.855,0.995 PMOS_VTL
M$1 10 9 16 16 PMOS_VTL L=0.05U W=1.26U AS=0.11025P AD=0.0882P PS=2.24U PD=1.54U
* device instance $3 r0 *1 3.235,0.995 PMOS_VTL
M$3 11 2 16 16 PMOS_VTL L=0.05U W=1.26U AS=0.0882P AD=0.11025P PS=1.54U PD=2.24U
* device instance $5 r0 *1 0.2,0.9275 PMOS_VTL
M$5 16 7 3 16 PMOS_VTL L=0.05U W=0.315U AS=0.033075P AD=0.014175P PS=0.84U
+ PD=0.455U
* device instance $6 r0 *1 0.39,1.04 PMOS_VTL
M$6 17 4 16 16 PMOS_VTL L=0.05U W=0.09U AS=0.014175P AD=0.0063P PS=0.455U
+ PD=0.23U
* device instance $7 r0 *1 0.58,1.04 PMOS_VTL
M$7 17 7 5 16 PMOS_VTL L=0.05U W=0.09U AS=0.01785P AD=0.0063P PS=0.56U PD=0.23U
* device instance $8 r0 *1 0.77,0.975 PMOS_VTL
M$8 18 3 5 16 PMOS_VTL L=0.05U W=0.42U AS=0.01785P AD=0.0294P PS=0.56U PD=0.56U
* device instance $9 r0 *1 0.96,0.975 PMOS_VTL
M$9 16 6 18 16 PMOS_VTL L=0.05U W=0.42U AS=0.0294P AD=0.025725P PS=0.56U
+ PD=0.56U
* device instance $10 r0 *1 1.15,1.0275 PMOS_VTL
M$10 4 5 16 16 PMOS_VTL L=0.05U W=0.315U AS=0.025725P AD=0.0567P PS=0.56U
+ PD=0.99U
* device instance $11 r0 *1 2.135,0.915 PMOS_VTL
M$11 20 3 9 16 PMOS_VTL L=0.05U W=0.09U AS=0.014175P AD=0.0063P PS=0.455U
+ PD=0.23U
* device instance $12 r0 *1 2.325,0.915 PMOS_VTL
M$12 20 2 16 16 PMOS_VTL L=0.05U W=0.09U AS=0.0252P AD=0.0063P PS=0.77U PD=0.23U
* device instance $13 r0 *1 1.565,1.0275 PMOS_VTL
M$13 16 8 7 16 PMOS_VTL L=0.05U W=0.315U AS=0.033075P AD=0.02205P PS=0.84U
+ PD=0.455U
* device instance $14 r0 *1 1.755,1.0275 PMOS_VTL
M$14 19 5 16 16 PMOS_VTL L=0.05U W=0.315U AS=0.02205P AD=0.02205P PS=0.455U
+ PD=0.455U
* device instance $15 r0 *1 1.945,1.0275 PMOS_VTL
M$15 9 7 19 16 PMOS_VTL L=0.05U W=0.315U AS=0.02205P AD=0.014175P PS=0.455U
+ PD=0.455U
* device instance $16 r0 *1 2.515,0.995 PMOS_VTL
M$16 2 9 16 16 PMOS_VTL L=0.05U W=0.63U AS=0.0252P AD=0.06615P PS=0.77U PD=1.47U
* device instance $17 r0 *1 2.855,0.2975 NMOS_VTL
M$17 10 9 1 1 NMOS_VTL L=0.05U W=0.83U AS=0.072625P AD=0.0581P PS=1.595U
+ PD=1.11U
* device instance $19 r0 *1 3.235,0.2975 NMOS_VTL
M$19 11 2 1 1 NMOS_VTL L=0.05U W=0.83U AS=0.0581P AD=0.072625P PS=1.11U
+ PD=1.595U
* device instance $21 r0 *1 0.39,0.31 NMOS_VTL
M$21 12 4 1 1 NMOS_VTL L=0.05U W=0.09U AS=0.0105P AD=0.0063P PS=0.35U PD=0.23U
* device instance $22 r0 *1 0.58,0.31 NMOS_VTL
M$22 12 3 5 1 NMOS_VTL L=0.05U W=0.09U AS=0.012775P AD=0.0063P PS=0.415U
+ PD=0.23U
* device instance $23 r0 *1 1.15,0.25 NMOS_VTL
M$23 4 5 1 1 NMOS_VTL L=0.05U W=0.21U AS=0.016975P AD=0.02205P PS=0.415U
+ PD=0.63U
* device instance $24 r0 *1 0.77,0.2825 NMOS_VTL
M$24 13 7 5 1 NMOS_VTL L=0.05U W=0.275U AS=0.012775P AD=0.01925P PS=0.415U
+ PD=0.415U
* device instance $25 r0 *1 0.96,0.2825 NMOS_VTL
M$25 1 6 13 1 NMOS_VTL L=0.05U W=0.275U AS=0.01925P AD=0.016975P PS=0.415U
+ PD=0.415U
* device instance $26 r0 *1 0.2,0.37 NMOS_VTL
M$26 1 7 3 1 NMOS_VTL L=0.05U W=0.21U AS=0.02205P AD=0.0105P PS=0.63U PD=0.35U
* device instance $27 r0 *1 1.565,0.35 NMOS_VTL
M$27 1 8 7 1 NMOS_VTL L=0.05U W=0.21U AS=0.02205P AD=0.0147P PS=0.63U PD=0.35U
* device instance $28 r0 *1 1.755,0.35 NMOS_VTL
M$28 14 5 1 1 NMOS_VTL L=0.05U W=0.21U AS=0.0147P AD=0.0147P PS=0.35U PD=0.35U
* device instance $29 r0 *1 1.945,0.35 NMOS_VTL
M$29 9 3 14 1 NMOS_VTL L=0.05U W=0.21U AS=0.0147P AD=0.0105P PS=0.35U PD=0.35U
* device instance $30 r0 *1 2.135,0.41 NMOS_VTL
M$30 15 7 9 1 NMOS_VTL L=0.05U W=0.09U AS=0.0105P AD=0.0063P PS=0.35U PD=0.23U
* device instance $31 r0 *1 2.325,0.41 NMOS_VTL
M$31 15 2 1 1 NMOS_VTL L=0.05U W=0.09U AS=0.017675P AD=0.0063P PS=0.555U
+ PD=0.23U
* device instance $32 r0 *1 2.515,0.2975 NMOS_VTL
M$32 2 9 1 1 NMOS_VTL L=0.05U W=0.415U AS=0.017675P AD=0.043575P PS=0.555U
+ PD=1.04U
.ENDS DFF_X2

* cell OAI21_X1
* pin B2
* pin B1
* pin A
* pin NWELL,VDD
* pin ZN
* pin PWELL,VSS
.SUBCKT OAI21_X1 1 2 3 5 6 7
* net 1 B2
* net 2 B1
* net 3 A
* net 5 NWELL,VDD
* net 6 ZN
* net 7 PWELL,VSS
* device instance $1 r0 *1 0.195,0.995 PMOS_VTL
M$1 8 1 5 5 PMOS_VTL L=0.05U W=0.63U AS=0.06615P AD=0.0441P PS=1.47U PD=0.77U
* device instance $2 r0 *1 0.385,0.995 PMOS_VTL
M$2 6 2 8 5 PMOS_VTL L=0.05U W=0.63U AS=0.0441P AD=0.0441P PS=0.77U PD=0.77U
* device instance $3 r0 *1 0.575,0.995 PMOS_VTL
M$3 5 3 6 5 PMOS_VTL L=0.05U W=0.63U AS=0.0441P AD=0.06615P PS=0.77U PD=1.47U
* device instance $4 r0 *1 0.195,0.2975 NMOS_VTL
M$4 6 1 4 7 NMOS_VTL L=0.05U W=0.415U AS=0.043575P AD=0.02905P PS=1.04U
+ PD=0.555U
* device instance $5 r0 *1 0.385,0.2975 NMOS_VTL
M$5 4 2 6 7 NMOS_VTL L=0.05U W=0.415U AS=0.02905P AD=0.02905P PS=0.555U
+ PD=0.555U
* device instance $6 r0 *1 0.575,0.2975 NMOS_VTL
M$6 7 3 4 7 NMOS_VTL L=0.05U W=0.415U AS=0.02905P AD=0.043575P PS=0.555U
+ PD=1.04U
.ENDS OAI21_X1

* cell BUF_X1
* pin A
* pin PWELL,VSS
* pin NWELL,VDD
* pin Z
.SUBCKT BUF_X1 1 3 4 5
* net 1 A
* net 3 PWELL,VSS
* net 4 NWELL,VDD
* net 5 Z
* device instance $1 r0 *1 0.17,1.1525 PMOS_VTL
M$1 2 1 4 4 PMOS_VTL L=0.05U W=0.315U AS=0.033075P AD=0.033075P PS=0.77U
+ PD=0.84U
* device instance $2 r0 *1 0.36,0.995 PMOS_VTL
M$2 5 2 4 4 PMOS_VTL L=0.05U W=0.63U AS=0.033075P AD=0.06615P PS=0.77U PD=1.47U
* device instance $3 r0 *1 0.17,0.195 NMOS_VTL
M$3 3 1 2 3 NMOS_VTL L=0.05U W=0.21U AS=0.02205P AD=0.021875P PS=0.63U PD=0.555U
* device instance $4 r0 *1 0.36,0.2975 NMOS_VTL
M$4 5 2 3 3 NMOS_VTL L=0.05U W=0.415U AS=0.021875P AD=0.043575P PS=0.555U
+ PD=1.04U
.ENDS BUF_X1

* cell DFF_X1
* pin PWELL,VSS
* pin Q
* pin D
* pin CK
* pin NWELL,VDD
.SUBCKT DFF_X1 1 9 14 15 16
* net 1 PWELL,VSS
* net 8 QN
* net 9 Q
* net 14 D
* net 15 CK
* net 16 NWELL,VDD
* device instance $1 r0 *1 2.85,0.995 PMOS_VTL
M$1 16 6 8 16 PMOS_VTL L=0.05U W=0.63U AS=0.06615P AD=0.0441P PS=1.47U PD=0.77U
* device instance $2 r0 *1 3.04,0.995 PMOS_VTL
M$2 9 7 16 16 PMOS_VTL L=0.05U W=0.63U AS=0.0441P AD=0.06615P PS=0.77U PD=1.47U
* device instance $3 r0 *1 0.185,0.9425 PMOS_VTL
M$3 16 5 2 16 PMOS_VTL L=0.05U W=0.315U AS=0.033075P AD=0.014175P PS=0.84U
+ PD=0.455U
* device instance $4 r0 *1 0.375,1.055 PMOS_VTL
M$4 17 3 16 16 PMOS_VTL L=0.05U W=0.09U AS=0.014175P AD=0.0063P PS=0.455U
+ PD=0.23U
* device instance $5 r0 *1 0.565,1.055 PMOS_VTL
M$5 17 5 4 16 PMOS_VTL L=0.05U W=0.09U AS=0.018075P AD=0.0063P PS=0.565U
+ PD=0.23U
* device instance $6 r0 *1 0.76,0.975 PMOS_VTL
M$6 18 2 4 16 PMOS_VTL L=0.05U W=0.42U AS=0.018075P AD=0.0294P PS=0.565U
+ PD=0.56U
* device instance $7 r0 *1 0.95,0.975 PMOS_VTL
M$7 16 14 18 16 PMOS_VTL L=0.05U W=0.42U AS=0.0294P AD=0.025725P PS=0.56U
+ PD=0.56U
* device instance $8 r0 *1 1.14,1.0275 PMOS_VTL
M$8 3 4 16 16 PMOS_VTL L=0.05U W=0.315U AS=0.025725P AD=0.0567P PS=0.56U
+ PD=0.99U
* device instance $9 r0 *1 1.555,1.0275 PMOS_VTL
M$9 16 15 5 16 PMOS_VTL L=0.05U W=0.315U AS=0.033075P AD=0.02205P PS=0.84U
+ PD=0.455U
* device instance $10 r0 *1 1.745,1.0275 PMOS_VTL
M$10 19 4 16 16 PMOS_VTL L=0.05U W=0.315U AS=0.02205P AD=0.02205P PS=0.455U
+ PD=0.455U
* device instance $11 r0 *1 1.935,1.0275 PMOS_VTL
M$11 6 5 19 16 PMOS_VTL L=0.05U W=0.315U AS=0.02205P AD=0.014175P PS=0.455U
+ PD=0.455U
* device instance $12 r0 *1 2.125,1.14 PMOS_VTL
M$12 20 2 6 16 PMOS_VTL L=0.05U W=0.09U AS=0.014175P AD=0.006525P PS=0.455U
+ PD=0.235U
* device instance $13 r0 *1 2.32,1.14 PMOS_VTL
M$13 20 7 16 16 PMOS_VTL L=0.05U W=0.09U AS=0.014175P AD=0.006525P PS=0.455U
+ PD=0.235U
* device instance $14 r0 *1 2.51,1.0275 PMOS_VTL
M$14 7 6 16 16 PMOS_VTL L=0.05U W=0.315U AS=0.014175P AD=0.033075P PS=0.455U
+ PD=0.84U
* device instance $15 r0 *1 2.85,0.2975 NMOS_VTL
M$15 1 6 8 1 NMOS_VTL L=0.05U W=0.415U AS=0.043575P AD=0.02905P PS=1.04U
+ PD=0.555U
* device instance $16 r0 *1 3.04,0.2975 NMOS_VTL
M$16 9 7 1 1 NMOS_VTL L=0.05U W=0.415U AS=0.02905P AD=0.043575P PS=0.555U
+ PD=1.04U
* device instance $17 r0 *1 2.125,0.345 NMOS_VTL
M$17 12 5 6 1 NMOS_VTL L=0.05U W=0.09U AS=0.0105P AD=0.006525P PS=0.35U
+ PD=0.235U
* device instance $18 r0 *1 2.32,0.345 NMOS_VTL
M$18 12 7 1 1 NMOS_VTL L=0.05U W=0.09U AS=0.0105P AD=0.006525P PS=0.35U
+ PD=0.235U
* device instance $19 r0 *1 1.555,0.36 NMOS_VTL
M$19 1 15 5 1 NMOS_VTL L=0.05U W=0.21U AS=0.02205P AD=0.0147P PS=0.63U PD=0.35U
* device instance $20 r0 *1 1.745,0.36 NMOS_VTL
M$20 13 4 1 1 NMOS_VTL L=0.05U W=0.21U AS=0.0147P AD=0.0147P PS=0.35U PD=0.35U
* device instance $21 r0 *1 1.935,0.36 NMOS_VTL
M$21 6 2 13 1 NMOS_VTL L=0.05U W=0.21U AS=0.0147P AD=0.0105P PS=0.35U PD=0.35U
* device instance $22 r0 *1 2.51,0.36 NMOS_VTL
M$22 7 6 1 1 NMOS_VTL L=0.05U W=0.21U AS=0.0105P AD=0.02205P PS=0.35U PD=0.63U
* device instance $23 r0 *1 0.185,0.285 NMOS_VTL
M$23 1 5 2 1 NMOS_VTL L=0.05U W=0.21U AS=0.02205P AD=0.0105P PS=0.63U PD=0.35U
* device instance $24 r0 *1 0.375,0.345 NMOS_VTL
M$24 10 3 1 1 NMOS_VTL L=0.05U W=0.09U AS=0.0105P AD=0.0063P PS=0.35U PD=0.23U
* device instance $25 r0 *1 0.565,0.345 NMOS_VTL
M$25 10 2 4 1 NMOS_VTL L=0.05U W=0.09U AS=0.013P AD=0.0063P PS=0.42U PD=0.23U
* device instance $26 r0 *1 1.14,0.285 NMOS_VTL
M$26 3 4 1 1 NMOS_VTL L=0.05U W=0.21U AS=0.016975P AD=0.02205P PS=0.415U
+ PD=0.63U
* device instance $27 r0 *1 0.76,0.3175 NMOS_VTL
M$27 11 5 4 1 NMOS_VTL L=0.05U W=0.275U AS=0.013P AD=0.01925P PS=0.42U PD=0.415U
* device instance $28 r0 *1 0.95,0.3175 NMOS_VTL
M$28 1 14 11 1 NMOS_VTL L=0.05U W=0.275U AS=0.01925P AD=0.016975P PS=0.415U
+ PD=0.415U
.ENDS DFF_X1

* cell HA_X1
* pin A
* pin B
* pin S
* pin NWELL,VDD
* pin PWELL,VSS
* pin CO
.SUBCKT HA_X1 1 2 4 5 6 9
* net 1 A
* net 2 B
* net 4 S
* net 5 NWELL,VDD
* net 6 PWELL,VSS
* net 9 CO
* device instance $1 r0 *1 0.785,1.0275 PMOS_VTL
M$1 10 2 5 5 PMOS_VTL L=0.05U W=0.315U AS=0.0338625P AD=0.02205P PS=0.775U
+ PD=0.455U
* device instance $2 r0 *1 0.975,1.0275 PMOS_VTL
M$2 7 1 10 5 PMOS_VTL L=0.05U W=0.315U AS=0.02205P AD=0.033075P PS=0.455U
+ PD=0.84U
* device instance $3 r0 *1 0.21,0.995 PMOS_VTL
M$3 4 2 3 5 PMOS_VTL L=0.05U W=0.63U AS=0.06615P AD=0.0441P PS=1.47U PD=0.77U
* device instance $4 r0 *1 0.4,0.995 PMOS_VTL
M$4 3 1 4 5 PMOS_VTL L=0.05U W=0.63U AS=0.0441P AD=0.0441P PS=0.77U PD=0.77U
* device instance $5 r0 *1 0.59,0.995 PMOS_VTL
M$5 5 7 3 5 PMOS_VTL L=0.05U W=0.63U AS=0.0441P AD=0.0338625P PS=0.77U PD=0.775U
* device instance $6 r0 *1 1.345,1.0275 PMOS_VTL
M$6 8 1 5 5 PMOS_VTL L=0.05U W=0.315U AS=0.033075P AD=0.02205P PS=0.84U
+ PD=0.455U
* device instance $7 r0 *1 1.535,1.0275 PMOS_VTL
M$7 8 2 5 5 PMOS_VTL L=0.05U W=0.315U AS=0.033075P AD=0.02205P PS=0.77U
+ PD=0.455U
* device instance $8 r0 *1 1.725,0.995 PMOS_VTL
M$8 9 8 5 5 PMOS_VTL L=0.05U W=0.63U AS=0.033075P AD=0.06615P PS=0.77U PD=1.47U
* device instance $9 r0 *1 1.345,0.195 NMOS_VTL
M$9 12 1 8 6 NMOS_VTL L=0.05U W=0.21U AS=0.02205P AD=0.0147P PS=0.63U PD=0.35U
* device instance $10 r0 *1 1.535,0.195 NMOS_VTL
M$10 6 2 12 6 NMOS_VTL L=0.05U W=0.21U AS=0.0147P AD=0.021875P PS=0.35U
+ PD=0.555U
* device instance $11 r0 *1 1.725,0.2975 NMOS_VTL
M$11 9 8 6 6 NMOS_VTL L=0.05U W=0.415U AS=0.021875P AD=0.043575P PS=0.555U
+ PD=1.04U
* device instance $12 r0 *1 0.785,0.195 NMOS_VTL
M$12 7 2 6 6 NMOS_VTL L=0.05U W=0.21U AS=0.0224P AD=0.0147P PS=0.56U PD=0.35U
* device instance $13 r0 *1 0.975,0.195 NMOS_VTL
M$13 6 1 7 6 NMOS_VTL L=0.05U W=0.21U AS=0.0147P AD=0.02205P PS=0.35U PD=0.63U
* device instance $14 r0 *1 0.21,0.2975 NMOS_VTL
M$14 11 2 6 6 NMOS_VTL L=0.05U W=0.415U AS=0.043575P AD=0.02905P PS=1.04U
+ PD=0.555U
* device instance $15 r0 *1 0.4,0.2975 NMOS_VTL
M$15 4 1 11 6 NMOS_VTL L=0.05U W=0.415U AS=0.02905P AD=0.02905P PS=0.555U
+ PD=0.555U
* device instance $16 r0 *1 0.59,0.2975 NMOS_VTL
M$16 6 7 4 6 NMOS_VTL L=0.05U W=0.415U AS=0.02905P AD=0.0224P PS=0.555U PD=0.56U
.ENDS HA_X1

* cell AOI21_X1
* pin A
* pin B2
* pin B1
* pin PWELL,VSS
* pin ZN
* pin NWELL,VDD
.SUBCKT AOI21_X1 1 2 3 4 6 7
* net 1 A
* net 2 B2
* net 3 B1
* net 4 PWELL,VSS
* net 6 ZN
* net 7 NWELL,VDD
* device instance $1 r0 *1 0.21,0.995 PMOS_VTL
M$1 6 2 5 7 PMOS_VTL L=0.05U W=0.63U AS=0.06615P AD=0.0441P PS=1.47U PD=0.77U
* device instance $2 r0 *1 0.4,0.995 PMOS_VTL
M$2 5 3 6 7 PMOS_VTL L=0.05U W=0.63U AS=0.0441P AD=0.0441P PS=0.77U PD=0.77U
* device instance $3 r0 *1 0.59,0.995 PMOS_VTL
M$3 7 1 5 7 PMOS_VTL L=0.05U W=0.63U AS=0.0441P AD=0.06615P PS=0.77U PD=1.47U
* device instance $4 r0 *1 0.21,0.2975 NMOS_VTL
M$4 8 2 4 4 NMOS_VTL L=0.05U W=0.415U AS=0.043575P AD=0.02905P PS=1.04U
+ PD=0.555U
* device instance $5 r0 *1 0.4,0.2975 NMOS_VTL
M$5 6 3 8 4 NMOS_VTL L=0.05U W=0.415U AS=0.02905P AD=0.02905P PS=0.555U
+ PD=0.555U
* device instance $6 r0 *1 0.59,0.2975 NMOS_VTL
M$6 4 1 6 4 NMOS_VTL L=0.05U W=0.415U AS=0.02905P AD=0.043575P PS=0.555U
+ PD=1.04U
.ENDS AOI21_X1

* cell XOR2_X1
* pin A
* pin B
* pin PWELL,VSS
* pin NWELL,VDD
* pin Z
.SUBCKT XOR2_X1 1 3 4 5 6
* net 1 A
* net 3 B
* net 4 PWELL,VSS
* net 5 NWELL,VDD
* net 6 Z
* device instance $1 r0 *1 0.17,1.1525 PMOS_VTL
M$1 8 1 2 5 PMOS_VTL L=0.05U W=0.315U AS=0.033075P AD=0.02205P PS=0.84U
+ PD=0.455U
* device instance $2 r0 *1 0.36,1.1525 PMOS_VTL
M$2 8 3 5 5 PMOS_VTL L=0.05U W=0.315U AS=0.0338625P AD=0.02205P PS=0.775U
+ PD=0.455U
* device instance $3 r0 *1 0.555,0.995 PMOS_VTL
M$3 7 2 5 5 PMOS_VTL L=0.05U W=0.63U AS=0.0338625P AD=0.0441P PS=0.775U PD=0.77U
* device instance $4 r0 *1 0.745,0.995 PMOS_VTL
M$4 6 1 7 5 PMOS_VTL L=0.05U W=0.63U AS=0.0441P AD=0.0441P PS=0.77U PD=0.77U
* device instance $5 r0 *1 0.935,0.995 PMOS_VTL
M$5 7 3 6 5 PMOS_VTL L=0.05U W=0.63U AS=0.0441P AD=0.06615P PS=0.77U PD=1.47U
* device instance $6 r0 *1 0.17,0.195 NMOS_VTL
M$6 2 1 4 4 NMOS_VTL L=0.05U W=0.21U AS=0.02205P AD=0.0147P PS=0.63U PD=0.35U
* device instance $7 r0 *1 0.36,0.195 NMOS_VTL
M$7 4 3 2 4 NMOS_VTL L=0.05U W=0.21U AS=0.0147P AD=0.0224P PS=0.35U PD=0.56U
* device instance $8 r0 *1 0.555,0.2975 NMOS_VTL
M$8 6 2 4 4 NMOS_VTL L=0.05U W=0.415U AS=0.0224P AD=0.02905P PS=0.56U PD=0.555U
* device instance $9 r0 *1 0.745,0.2975 NMOS_VTL
M$9 9 1 6 4 NMOS_VTL L=0.05U W=0.415U AS=0.02905P AD=0.02905P PS=0.555U
+ PD=0.555U
* device instance $10 r0 *1 0.935,0.2975 NMOS_VTL
M$10 4 3 9 4 NMOS_VTL L=0.05U W=0.415U AS=0.02905P AD=0.043575P PS=0.555U
+ PD=1.04U
.ENDS XOR2_X1

* cell NAND4_X1
* pin A4
* pin A3
* pin A2
* pin A1
* pin PWELL,VSS
* pin NWELL,VDD
* pin ZN
.SUBCKT NAND4_X1 1 2 3 4 5 6 7
* net 1 A4
* net 2 A3
* net 3 A2
* net 4 A1
* net 5 PWELL,VSS
* net 6 NWELL,VDD
* net 7 ZN
* device instance $1 r0 *1 0.17,0.995 PMOS_VTL
M$1 7 1 6 6 PMOS_VTL L=0.05U W=0.63U AS=0.06615P AD=0.0441P PS=1.47U PD=0.77U
* device instance $2 r0 *1 0.36,0.995 PMOS_VTL
M$2 6 2 7 6 PMOS_VTL L=0.05U W=0.63U AS=0.0441P AD=0.0441P PS=0.77U PD=0.77U
* device instance $3 r0 *1 0.55,0.995 PMOS_VTL
M$3 7 3 6 6 PMOS_VTL L=0.05U W=0.63U AS=0.0441P AD=0.0441P PS=0.77U PD=0.77U
* device instance $4 r0 *1 0.74,0.995 PMOS_VTL
M$4 6 4 7 6 PMOS_VTL L=0.05U W=0.63U AS=0.0441P AD=0.06615P PS=0.77U PD=1.47U
* device instance $5 r0 *1 0.17,0.2975 NMOS_VTL
M$5 10 1 5 5 NMOS_VTL L=0.05U W=0.415U AS=0.043575P AD=0.02905P PS=1.04U
+ PD=0.555U
* device instance $6 r0 *1 0.36,0.2975 NMOS_VTL
M$6 9 2 10 5 NMOS_VTL L=0.05U W=0.415U AS=0.02905P AD=0.02905P PS=0.555U
+ PD=0.555U
* device instance $7 r0 *1 0.55,0.2975 NMOS_VTL
M$7 8 3 9 5 NMOS_VTL L=0.05U W=0.415U AS=0.02905P AD=0.02905P PS=0.555U
+ PD=0.555U
* device instance $8 r0 *1 0.74,0.2975 NMOS_VTL
M$8 7 4 8 5 NMOS_VTL L=0.05U W=0.415U AS=0.02905P AD=0.043575P PS=0.555U
+ PD=1.04U
.ENDS NAND4_X1

* cell NOR3_X1
* pin A3
* pin A2
* pin A1
* pin PWELL,VSS
* pin NWELL,VDD
* pin ZN
.SUBCKT NOR3_X1 1 2 3 4 5 6
* net 1 A3
* net 2 A2
* net 3 A1
* net 4 PWELL,VSS
* net 5 NWELL,VDD
* net 6 ZN
* device instance $1 r0 *1 0.17,0.995 PMOS_VTL
M$1 8 1 5 5 PMOS_VTL L=0.05U W=0.63U AS=0.06615P AD=0.0441P PS=1.47U PD=0.77U
* device instance $2 r0 *1 0.36,0.995 PMOS_VTL
M$2 7 2 8 5 PMOS_VTL L=0.05U W=0.63U AS=0.0441P AD=0.0441P PS=0.77U PD=0.77U
* device instance $3 r0 *1 0.55,0.995 PMOS_VTL
M$3 6 3 7 5 PMOS_VTL L=0.05U W=0.63U AS=0.0441P AD=0.06615P PS=0.77U PD=1.47U
* device instance $4 r0 *1 0.17,0.2975 NMOS_VTL