
* cell showahead_fifo
* pin data_count[2]
* pin almost_full
* pin data_count[0]
* pin almost_empty
* pin data_count[3]
* pin data_count[1]
* pin full
* pin wr_en
* pin rd_en
* pin empty
* pin data_count[4]
* pin rst_n
* pin rd_data[6]
* pin rd_data[7]
* pin wr_data[7]
* pin wr_data[6]
* pin clk
* pin rd_data[5]
* pin rd_data[4]
* pin wr_data[4]
* pin wr_data[5]
* pin wr_data[3]
* pin rd_data[3]
* pin wr_data[2]
* pin wr_data[0]
* pin rd_data[2]
* pin rd_data[0]
* pin wr_data[1]
* pin valid
* pin rd_data[1]
.SUBCKT showahead_fifo 1 2 3 4 5 6 7 8 9 10 11 41 137 190 205 213 235 240 246
+ 253 270 285 287 320 330 335 336 337 338 339
* net 1 data_count[2]
* net 2 almost_full
* net 3 data_count[0]
* net 4 almost_empty
* net 5 data_count[3]
* net 6 data_count[1]
* net 7 full
* net 8 wr_en
* net 9 rd_en
* net 10 empty
* net 11 data_count[4]
* net 41 rst_n
* net 137 rd_data[6]
* net 190 rd_data[7]
* net 205 wr_data[7]
* net 213 wr_data[6]
* net 235 clk
* net 240 rd_data[5]
* net 246 rd_data[4]
* net 253 wr_data[4]
* net 270 wr_data[5]
* net 285 wr_data[3]
* net 287 rd_data[3]
* net 320 wr_data[2]
* net 330 wr_data[0]
* net 335 rd_data[2]
* net 336 rd_data[0]
* net 337 wr_data[1]
* net 338 valid
* net 339 rd_data[1]
* cell instance $3 r0 *1 20.24,2.72
X$3 24 16 1 14 24 14 sky130_fd_sc_hd__clkbuf_1
* cell instance $8 r0 *1 18.86,2.72
X$8 24 39 2 14 24 14 sky130_fd_sc_hd__clkbuf_1
* cell instance $10 r0 *1 23.92,2.72
X$10 24 20 3 14 24 14 sky130_fd_sc_hd__clkbuf_1
* cell instance $14 r0 *1 25.3,2.72
X$14 24 12 4 14 24 14 sky130_fd_sc_hd__clkbuf_1
* cell instance $17 r0 *1 29.44,2.72
X$17 24 15 5 14 24 14 sky130_fd_sc_hd__clkbuf_1
* cell instance $21 r0 *1 34.96,2.72
X$21 24 18 6 14 24 14 sky130_fd_sc_hd__clkbuf_1
* cell instance $25 r0 *1 30.82,2.72
X$25 24 17 7 14 24 14 sky130_fd_sc_hd__clkbuf_1
* cell instance $28 r0 *1 32.2,2.72
X$28 24 8 29 14 24 14 sky130_fd_sc_hd__clkbuf_1
* cell instance $31 r0 *1 44.62,2.72
X$31 24 9 28 14 24 14 sky130_fd_sc_hd__clkbuf_1
* cell instance $34 r0 *1 57.04,2.72
X$34 24 19 10 14 24 14 sky130_fd_sc_hd__clkbuf_1
* cell instance $37 r0 *1 33.58,2.72
X$37 24 13 11 14 24 14 sky130_fd_sc_hd__clkbuf_1
* cell instance $40 r0 *1 21.62,2.72
X$40 24 71 16 15 13 14 12 24 14 sky130_fd_sc_hd__nor4_1
* cell instance $50 r0 *1 33.12,19.04
X$50 14 29 113 30 13 24 24 14 sky130_fd_sc_hd__a21boi_2
* cell instance $53 m0 *1 34.04,19.04
X$53 14 81 111 30 13 24 24 14 sky130_fd_sc_hd__a21oi_4
* cell instance $55 m0 *1 35.42,8.16
X$55 24 21 14 24 13 14 sky130_fd_sc_hd__inv_2
* cell instance $59 r0 *1 26.68,2.72
X$59 24 13 30 17 24 14 14 sky130_fd_sc_hd__and2_0
* cell instance $61 m0 *1 19.78,8.16
X$61 14 39 16 15 18 13 24 24 14 sky130_fd_sc_hd__a31o_1
* cell instance $65 m0 *1 24.84,19.04
X$65 24 101 13 30 14 24 99 14 sky130_fd_sc_hd__a21oi_1
* cell instance $67 m0 *1 30.36,24.48
X$67 24 13 130 30 24 121 14 14 sky130_fd_sc_hd__a21oi_2
* cell instance $121 r0 *1 88.32,2.72
X$121 14 22 151 36 26 92 25 23 24 24 14 sky130_fd_sc_hd__mux4_1
* cell instance $135 m0 *1 1.38,8.16
X$135 24 42 14 35 24 14 sky130_fd_sc_hd__clkbuf_4
* cell instance $136 m0 *1 4.14,8.16
X$136 14 35 31 89 43 24 24 14 sky130_fd_sc_hd__dfrtp_1
* cell instance $137 m0 *1 13.34,8.16
X$137 24 51 31 24 43 14 14 sky130_fd_sc_hd__xor2_1
* cell instance $141 m0 *1 23,8.16
X$141 24 16 20 32 18 14 72 24 14 sky130_fd_sc_hd__nor4_1
* cell instance $142 m0 *1 25.3,8.16
X$142 24 33 32 15 24 14 14 sky130_fd_sc_hd__xnor2_1
* cell instance $145 m0 *1 29.44,8.16
X$145 24 56 24 14 32 14 sky130_fd_sc_hd__inv_1
* cell instance $146 m0 *1 30.82,8.16
X$146 14 56 57 27 40 24 24 14 sky130_fd_sc_hd__ha_1
* cell instance $147 m0 *1 36.8,8.16
X$147 24 34 59 75 14 33 24 14 sky130_fd_sc_hd__o21ai_2
* cell instance $148 m0 *1 40.02,8.16
X$148 14 46 60 16 24 24 14 sky130_fd_sc_hd__xor2_2
* cell instance $149 m0 *1 46,8.16
X$149 24 34 24 14 58 14 sky130_fd_sc_hd__inv_1
* cell instance $152 m0 *1 48.76,8.16
X$152 24 76 21 30 14 24 51 14 sky130_fd_sc_hd__a21oi_1
* cell instance $153 m0 *1 50.6,8.16
X$153 24 80 21 30 14 24 38 14 sky130_fd_sc_hd__a21oi_1
* cell instance $156 m0 *1 53.82,8.16
X$156 24 21 30 55 24 14 14 sky130_fd_sc_hd__and2_0
* cell instance $159 m0 *1 57.04,8.16
X$159 24 55 24 14 19 14 sky130_fd_sc_hd__buf_4
* cell instance $162 m0 *1 65.32,8.16
X$162 14 50 37 52 54 24 24 14 sky130_fd_sc_hd__edfxtp_1
* cell instance $168 m0 *1 85.56,8.16
X$168 14 50 36 52 49 24 24 14 sky130_fd_sc_hd__edfxtp_1
* cell instance $172 r0 *1 1.38,8.16
X$172 24 41 24 42 14 14 sky130_fd_sc_hd__dlygate4sd3_1
* cell instance $174 r0 *1 5.98,8.16
X$174 14 35 69 44 68 24 24 14 sky130_fd_sc_hd__dfrtp_1
* cell instance $180 r0 *1 19.32,8.16
X$180 24 18 70 24 71 14 14 sky130_fd_sc_hd__xor2_1
* cell instance $181 r0 *1 22.54,8.16
X$181 14 33 61 72 30 24 24 14 sky130_fd_sc_hd__mux2_4
* cell instance $183 r0 *1 28.52,8.16
X$183 24 16 20 56 18 14 61 24 14 sky130_fd_sc_hd__nor4_1
* cell instance $186 r0 *1 33.12,8.16
X$186 24 57 56 74 14 24 73 14 sky130_fd_sc_hd__a21oi_1
* cell instance $188 r0 *1 36.8,8.16
X$188 24 46 60 45 14 24 74 14 sky130_fd_sc_hd__a21o_1
* cell instance $189 r0 *1 39.56,8.16
X$189 24 46 63 59 24 14 14 sky130_fd_sc_hd__nand2_1
* cell instance $190 r0 *1 40.94,8.16
X$190 24 45 46 77 14 24 75 14 sky130_fd_sc_hd__a21oi_1
* cell instance $195 r0 *1 43.24,8.16
X$195 14 60 58 18 64 78 24 24 14 sky130_fd_sc_hd__fa_2
* cell instance $197 r0 *1 51.98,8.16
X$197 24 38 79 47 24 14 14 sky130_fd_sc_hd__xnor2_1
* cell instance $198 r0 *1 55.2,8.16
X$198 14 35 48 66 47 24 24 14 sky130_fd_sc_hd__dfrtp_1
* cell instance $199 r0 *1 64.4,8.16
X$199 14 48 23 24 24 14 sky130_fd_sc_hd__buf_6
* cell instance $209 r0 *1 79.58,8.16
X$209 14 53 26 52 49 24 24 14 sky130_fd_sc_hd__edfxtp_1
* cell instance $223 m0 *1 10.12,13.6
X$223 24 81 69 24 68 14 14 sky130_fd_sc_hd__xor2_1
* cell instance $224 m0 *1 13.34,13.6
X$224 24 31 69 62 24 14 14 sky130_fd_sc_hd__xnor2_1
* cell instance $227 m0 *1 22.08,13.6
X$227 24 70 24 14 20 14 sky130_fd_sc_hd__inv_1
* cell instance $233 m0 *1 30.82,13.6
X$233 14 73 62 21 24 24 14 sky130_fd_sc_hd__xor2_2
* cell instance $235 m0 *1 37.26,13.6
X$235 14 46 45 79 115 24 24 14 sky130_fd_sc_hd__ha_1
* cell instance $236 m0 *1 41.86,13.6
X$236 14 63 77 64 78 24 24 14 sky130_fd_sc_hd__ha_1
* cell instance $237 m0 *1 46.46,13.6
X$237 24 83 24 14 64 14 sky130_fd_sc_hd__inv_1
* cell instance $240 m0 *1 49.22,13.6
X$240 24 84 24 14 79 14 sky130_fd_sc_hd__inv_1
* cell instance $243 m0 *1 51.98,13.6
X$243 24 28 65 80 24 14 14 sky130_fd_sc_hd__nand2_1
* cell instance $245 m0 *1 54.28,13.6
X$245 24 86 28 84 65 24 76 14 14 sky130_fd_sc_hd__nand4_1
* cell instance $247 m0 *1 57.04,13.6
X$247 14 35 86 66 88 24 24 14 sky130_fd_sc_hd__dfrtp_1
* cell instance $248 m0 *1 66.24,13.6
X$248 14 53 87 52 54 24 24 14 sky130_fd_sc_hd__edfxtp_1
* cell instance $254 m0 *1 84.64,13.6
X$254 14 67 25 52 49 24 24 14 sky130_fd_sc_hd__edfxtp_1
* cell instance $267 r0 *1 16.1,13.6
X$267 14 35 40 89 94 24 24 14 sky130_fd_sc_hd__dfrtp_2
* cell instance $268 r0 *1 25.76,13.6
X$268 24 99 40 24 94 14 14 sky130_fd_sc_hd__xor2_1
* cell instance $270 r0 *1 30.82,13.6
X$270 24 29 82 149 111 24 14 14 sky130_fd_sc_hd__nand3_1
* cell instance $271 r0 *1 32.66,13.6
X$271 24 29 82 130 24 14 14 sky130_fd_sc_hd__nand2_1
* cell instance $274 r0 *1 38.18,13.6
X$274 14 70 34 100 103 24 24 14 sky130_fd_sc_hd__ha_1
* cell instance $278 r0 *1 46.92,13.6
X$278 24 83 28 90 84 24 85 14 14 sky130_fd_sc_hd__nand4_1
* cell instance $280 r0 *1 50.14,13.6
X$280 24 85 21 30 14 24 91 14 sky130_fd_sc_hd__a21oi_1
* cell instance $282 r0 *1 52.44,13.6
X$282 24 28 21 30 24 14 96 14 sky130_fd_sc_hd__a21boi_1
* cell instance $284 r0 *1 57.04,13.6
X$284 24 91 27 88 24 14 14 sky130_fd_sc_hd__xnor2_1
* cell instance $285 r0 *1 60.26,13.6
X$285 14 100 22 24 24 14 sky130_fd_sc_hd__buf_6
* cell instance $286 r0 *1 64.4,13.6
X$286 24 86 27 24 14 14 sky130_fd_sc_hd__inv_6
* cell instance $291 r0 *1 70.84,13.6
X$291 14 67 95 52 54 24 24 14 sky130_fd_sc_hd__edfxtp_1
* cell instance $293 r0 *1 83.72,13.6
X$293 14 93 92 52 49 24 24 14 sky130_fd_sc_hd__edfxtp_1
* cell instance $312 m0 *1 8.74,19.04
X$312 14 106 108 44 49 24 24 14 sky130_fd_sc_hd__edfxtp_1
* cell instance $316 m0 *1 26.68,19.04
X$316 24 78 29 115 97 24 101 14 14 sky130_fd_sc_hd__nand4_1
* cell instance $318 m0 *1 29.44,19.04
X$318 14 354 82 97 78 24 24 14 sky130_fd_sc_hd__ha_1
* cell instance $321 m0 *1 47.38,19.04
X$321 14 35 100 66 104 24 24 14 sky130_fd_sc_hd__dfrtp_1
* cell instance $326 m0 *1 60.26,19.04
X$326 14 112 65 100 98 24 24 14 sky130_fd_sc_hd__ha_1
* cell instance $328 m0 *1 68.54,19.04
X$328 14 93 110 66 54 24 24 14 sky130_fd_sc_hd__edfxtp_1
* cell instance $335 m0 *1 90.62,19.04
X$335 14 53 105 52 107 24 24 14 sky130_fd_sc_hd__edfxtp_1
* cell instance $340 r0 *1 4.14,19.04
X$340 14 119 120 89 49 24 24 14 sky130_fd_sc_hd__edfxtp_1
* cell instance $345 r0 *1 19.78,19.04
X$345 14 35 97 89 116 24 24 14 sky130_fd_sc_hd__dfrtp_1
* cell instance $346 r0 *1 28.98,19.04
X$346 24 121 115 24 122 14 14 sky130_fd_sc_hd__xor2_1
* cell instance $348 r0 *1 37.26,19.04
X$348 24 102 103 116 24 14 14 sky130_fd_sc_hd__xnor2_1
* cell instance $350 r0 *1 40.94,19.04
X$350 24 97 24 14 103 14 sky130_fd_sc_hd__inv_1
* cell instance $354 r0 *1 43.24,19.04
X$354 14 355 114 97 117 24 24 14 sky130_fd_sc_hd__ha_1
* cell instance $355 r0 *1 47.84,19.04
X$355 24 78 24 14 117 14 sky130_fd_sc_hd__inv_1
* cell instance $357 r0 *1 49.68,19.04
X$357 24 113 24 14 102 14 sky130_fd_sc_hd__buf_4
* cell instance $358 r0 *1 52.44,19.04
X$358 24 96 90 24 104 14 14 sky130_fd_sc_hd__xor2_1
* cell instance $361 r0 *1 57.04,19.04
X$361 14 123 112 83 96 24 24 14 sky130_fd_sc_hd__mux2_1
* cell instance $365 r0 *1 64.4,19.04
X$365 14 23 84 24 24 14 sky130_fd_sc_hd__buf_6
* cell instance $369 r0 *1 70.84,19.04
X$369 14 98 83 24 24 14 sky130_fd_sc_hd__buf_6
* cell instance $371 r0 *1 75.44,19.04
X$371 14 22 109 37 87 110 95 23 24 24 14 sky130_fd_sc_hd__mux4_1
* cell instance $373 r0 *1 86.94,19.04
X$373 14 50 118 52 107 24 24 14 sky130_fd_sc_hd__edfxtp_1
* cell instance $389 m0 *1 5.98,24.48
X$389 14 128 129 89 49 24 24 14 sky130_fd_sc_hd__edfxtp_1
* cell instance $391 m0 *1 18.86,24.48
X$391 14 35 115 44 122 24 24 14 sky130_fd_sc_hd__dfrtp_2
* cell instance $395 m0 *1 33.58,24.48
X$395 14 353 134 103 78 24 24 14 sky130_fd_sc_hd__ha_1
* cell instance $396 m0 *1 38.18,24.48
X$396 14 35 78 66 124 24 24 14 sky130_fd_sc_hd__dfrtp_2
* cell instance $397 m0 *1 47.84,24.48
X$397 14 131 132 103 117 24 24 14 sky130_fd_sc_hd__ha_1
* cell instance $401 m0 *1 57.04,24.48
X$401 14 35 98 66 123 24 24 14 sky130_fd_sc_hd__dfrtp_1
* cell instance $402 m0 *1 66.24,24.48
X$402 14 22 90 24 24 14 sky130_fd_sc_hd__buf_8
* cell instance $405 m0 *1 73.14,24.48
X$405 14 67 125 52 107 24 24 14 sky130_fd_sc_hd__edfxtp_1
* cell instance $410 m0 *1 93.84,24.48
X$410 14 22 126 118 105 127 125 23 24 24 14 sky130_fd_sc_hd__mux4_1
* cell instance $414 r0 *1 4.14,24.48
X$414 14 138 140 44 49 24 24 14 sky130_fd_sc_hd__edfxtp_1
* cell instance $419 r0 *1 21.16,24.48
X$419 14 142 89 24 24 14 sky130_fd_sc_hd__clkbuf_16
* cell instance $421 r0 *1 31.28,24.48
X$421 24 135 121 14 119 24 14 sky130_fd_sc_hd__and2_4
* cell instance $422 r0 *1 34.5,24.48
X$422 24 40 115 141 14 24 14 sky130_fd_sc_hd__nor2b_1
* cell instance $424 r0 *1 37.26,24.48
X$424 14 135 106 134 113 24 24 14 sky130_fd_sc_hd__and3_4
* cell instance $425 r0 *1 41.4,24.48
X$425 24 40 115 135 14 24 14 sky130_fd_sc_hd__nor2_1
* cell instance $428 r0 *1 43.24,24.48
X$428 14 124 131 78 113 24 24 14 sky130_fd_sc_hd__mux2_1
* cell instance $429 r0 *1 47.38,24.48
X$429 14 135 50 114 113 24 24 14 sky130_fd_sc_hd__and3_4
* cell instance $430 r0 *1 51.52,24.48
X$430 14 135 53 132 113 24 24 14 sky130_fd_sc_hd__and3_4
* cell instance $431 r0 *1 55.66,24.48
X$431 14 102 67 132 141 24 24 14 sky130_fd_sc_hd__and3_4
* cell instance $434 r0 *1 61.18,24.48
X$434 14 142 52 24 24 14 sky130_fd_sc_hd__clkbuf_16
* cell instance $439 r0 *1 78.2,24.48
X$439 14 93 127 52 107 24 24 14 sky130_fd_sc_hd__edfxtp_1
* cell instance $443 r0 *1 95.68,24.48
X$443 24 19 139 136 14 24 14 sky130_fd_sc_hd__nor2b_1
* cell instance $447 r0 *1 100.28,24.48
X$447 24 136 137 14 24 14 sky130_fd_sc_hd__clkbuf_1
* cell instance $461 m0 *1 9.2,29.92
X$461 14 119 147 44 107 24 24 14 sky130_fd_sc_hd__edfxtp_1
* cell instance $462 m0 *1 20.24,29.92
X$462 14 129 108 133 90 140 84 120 24 24 14 sky130_fd_sc_hd__mux4_2
* cell instance $465 m0 *1 29.44,29.92
X$465 24 40 115 149 24 14 14 sky130_fd_sc_hd__and2_1
* cell instance $466 m0 *1 31.74,29.92
X$466 24 40 115 14 24 156 14 sky130_fd_sc_hd__nor2b_2
* cell instance $467 m0 *1 34.96,29.92
X$467 24 121 141 14 138 24 14 sky130_fd_sc_hd__and2_4
* cell instance $469 m0 *1 39.1,29.92
X$469 14 119 155 89 54 24 24 14 sky130_fd_sc_hd__edfxtp_1
* cell instance $473 m0 *1 53.36,29.92
X$473 24 66 14 24 14 sky130_fd_sc_hd__clkinv_4
* cell instance $475 m0 *1 57.04,29.92
X$475 14 142 66 24 24 14 sky130_fd_sc_hd__clkbuf_16
* cell instance $477 m0 *1 68.08,29.92
X$477 14 27 173 109 143 165 148 98 24 24 14 sky130_fd_sc_hd__mux4_1
* cell instance $482 m0 *1 84.64,29.92
X$482 14 27 139 151 146 133 145 83 24 24 14 sky130_fd_sc_hd__mux4_1
* cell instance $483 m0 *1 94.3,29.92
X$483 14 22 144 24 24 14 sky130_fd_sc_hd__buf_16
* cell instance $486 r0 *1 4.14,29.92
X$486 14 138 152 44 107 24 24 14 sky130_fd_sc_hd__edfxtp_1
* cell instance $489 r0 *1 15.64,29.92
X$489 14 153 154 159 90 152 84 147 24 24 14 sky130_fd_sc_hd__mux4_4
* cell instance $490 r0 *1 24.84,29.92
X$490 14 128 168 89 54 24 24 14 sky130_fd_sc_hd__edfxtp_1
* cell instance $491 r0 *1 35.88,29.92
X$491 14 102 128 134 141 24 24 14 sky130_fd_sc_hd__and3_4
* cell instance $500 r0 *1 55.2,29.92
X$500 14 102 93 114 141 24 24 14 sky130_fd_sc_hd__and3_4
* cell instance $501 r0 *1 59.34,29.92
X$501 14 50 166 66 167 24 24 14 sky130_fd_sc_hd__edfxtp_1
* cell instance $504 r0 *1 70.84,29.92
X$504 24 52 24 14 14 sky130_fd_sc_hd__clkinv_1
* cell instance $507 r0 *1 76.36,29.92
X$507 14 53 163 52 150 24 24 14 sky130_fd_sc_hd__edfxtp_1
* cell instance $508 r0 *1 87.4,29.92
X$508 14 22 160 162 163 171 161 23 24 24 14 sky130_fd_sc_hd__mux4_1
* cell instance $525 m0 *1 3.68,35.36
X$525 14 128 153 44 107 24 24 14 sky130_fd_sc_hd__edfxtp_1
* cell instance $526 m0 *1 14.72,35.36
X$526 14 106 154 89 107 24 24 14 sky130_fd_sc_hd__edfxtp_1
* cell instance $527 m0 *1 25.76,35.36
X$527 24 44 348 24 14 14 sky130_fd_sc_hd__inv_6
* cell instance $529 m0 *1 29.44,35.36
X$529 24 89 24 14 14 sky130_fd_sc_hd__clkinvlp_4
* cell instance $530 m0 *1 32.2,35.36
X$530 24 121 156 14 164 24 14 sky130_fd_sc_hd__and2_4
* cell instance $532 m0 *1 35.88,35.36
X$532 14 106 175 89 54 24 24 14 sky130_fd_sc_hd__edfxtp_1
* cell instance $533 m0 *1 46.92,35.36
X$533 14 90 165 155 175 177 168 157 24 24 14 sky130_fd_sc_hd__mux4_1
* cell instance $536 m0 *1 60.72,35.36
X$536 14 53 179 169 167 24 24 14 sky130_fd_sc_hd__edfxtp_1
* cell instance $539 m0 *1 73.14,35.36
X$539 14 50 162 158 150 24 24 14 sky130_fd_sc_hd__edfxtp_1
* cell instance $541 m0 *1 84.64,35.36
X$541 14 67 161 158 150 24 24 14 sky130_fd_sc_hd__edfxtp_1
* cell instance $556 r0 *1 20.7,35.36
X$556 14 142 44 24 24 14 sky130_fd_sc_hd__clkbuf_16
* cell instance $559 r0 *1 31.28,35.36
X$559 14 138 177 174 54 24 24 14 sky130_fd_sc_hd__edfxtp_1
* cell instance $569 r0 *1 59.34,35.36
X$569 14 93 170 169 167 24 24 14 sky130_fd_sc_hd__edfxtp_1
* cell instance $572 r0 *1 70.84,35.36
X$572 14 144 176 166 179 170 178 23 24 24 14 sky130_fd_sc_hd__mux4_1
* cell instance $575 r0 *1 81.88,35.36
X$575 14 93 171 158 150 24 24 14 sky130_fd_sc_hd__edfxtp_1
* cell instance $577 r0 *1 93.38,35.36
X$577 24 19 173 172 14 24 14 sky130_fd_sc_hd__nor2b_1
* cell instance $588 m0 *1 12.42,40.8
X$588 14 138 184 182 150 24 24 14 sky130_fd_sc_hd__edfxtp_1
* cell instance $591 m0 *1 23.46,40.8
X$591 24 182 24 14 14 sky130_fd_sc_hd__clkinvlp_4
* cell instance $595 m0 *1 29.44,40.8
X$595 14 128 185 174 180 24 24 14 sky130_fd_sc_hd__edfxtp_1
* cell instance $596 m0 *1 40.48,40.8
X$596 14 119 186 169 180 24 24 14 sky130_fd_sc_hd__edfxtp_1
* cell instance $604 m0 *1 60.72,40.8
X$604 14 67 178 66 167 24 24 14 sky130_fd_sc_hd__edfxtp_1
* cell instance $608 m0 *1 72.68,40.8
X$608 14 142 158 24 24 14 sky130_fd_sc_hd__clkbuf_16
* cell instance $612 m0 *1 84.64,40.8
X$612 24 23 24 14 183 14 sky130_fd_sc_hd__buf_4
* cell instance $616 m0 *1 92.46,40.8
X$616 24 23 24 14 157 14 sky130_fd_sc_hd__buf_4
* cell instance $624 r0 *1 4.14,40.8
X$624 14 128 193 182 150 24 24 14 sky130_fd_sc_hd__edfxtp_1
* cell instance $628 r0 *1 16.1,40.8
X$628 14 106 194 182 150 24 24 14 sky130_fd_sc_hd__edfxtp_1
* cell instance $631 r0 *1 31.74,40.8
X$631 14 106 181 174 180 24 24 14 sky130_fd_sc_hd__edfxtp_1
* cell instance $634 r0 *1 43.24,40.8
X$634 14 185 181 189 90 195 84 186 24 24 14 sky130_fd_sc_hd__mux4_2
* cell instance $637 r0 *1 56.12,40.8
X$637 24 169 349 24 14 14 sky130_fd_sc_hd__inv_6
* cell instance $638 r0 *1 59.34,40.8
X$638 14 142 169 24 24 14 sky130_fd_sc_hd__clkbuf_16
* cell instance $643 r0 *1 72.68,40.8
X$643 24 158 24 14 14 sky130_fd_sc_hd__clkinvlp_4
* cell instance $645 r0 *1 75.9,40.8
X$645 14 53 192 158 180 24 24 14 sky130_fd_sc_hd__edfxtp_1
* cell instance $646 r0 *1 86.94,40.8
X$646 14 50 191 158 180 24 24 14 sky130_fd_sc_hd__edfxtp_1
* cell instance $651 r0 *1 100.74,40.8
X$651 24 172 190 14 24 14 sky130_fd_sc_hd__clkbuf_1
* cell instance $666 m0 *1 8.28,46.24
X$666 14 119 199 182 150 24 24 14 sky130_fd_sc_hd__edfxtp_1
* cell instance $668 m0 *1 19.78,46.24
X$668 14 142 182 24 24 14 sky130_fd_sc_hd__clkbuf_16
* cell instance $671 m0 *1 30.36,46.24
X$671 24 174 347 24 14 14 sky130_fd_sc_hd__inv_6
* cell instance $672 m0 *1 33.58,46.24
X$672 14 142 174 24 24 14 sky130_fd_sc_hd__clkbuf_16
* cell instance $675 m0 *1 45.54,46.24
X$675 14 50 204 174 187 24 24 14 sky130_fd_sc_hd__edfxtp_1
* cell instance $677 m0 *1 57.04,46.24
X$677 14 93 203 169 187 24 24 14 sky130_fd_sc_hd__edfxtp_1
* cell instance $678 m0 *1 68.08,46.24
X$678 14 50 201 169 188 24 24 14 sky130_fd_sc_hd__edfxtp_1
* cell instance $683 m0 *1 84.64,46.24
X$683 14 67 197 158 180 24 24 14 sky130_fd_sc_hd__edfxtp_1
* cell instance $696 r0 *1 16.1,46.24
X$696 14 128 200 182 187 24 24 14 sky130_fd_sc_hd__edfxtp_1
* cell instance $697 r0 *1 27.14,46.24
X$697 14 138 195 174 180 24 24 14 sky130_fd_sc_hd__edfxtp_1
* cell instance $706 r0 *1 55.2,46.24
X$706 14 67 202 169 187 24 24 14 sky130_fd_sc_hd__edfxtp_1
* cell instance $711 r0 *1 70.84,46.24
X$711 14 93 196 158 188 24 24 14 sky130_fd_sc_hd__edfxtp_1
* cell instance $712 r0 *1 81.88,46.24
X$712 14 67 198 158 188 24 24 14 sky130_fd_sc_hd__edfxtp_1
* cell instance $724 m0 *1 6.44,51.68
X$724 14 128 207 182 167 24 24 14 sky130_fd_sc_hd__edfxtp_1
* cell instance $728 m0 *1 17.94,51.68
X$728 14 119 210 182 187 24 24 14 sky130_fd_sc_hd__edfxtp_1
* cell instance $733 m0 *1 34.5,51.68
X$733 14 128 212 174 188 24 24 14 sky130_fd_sc_hd__edfxtp_1
* cell instance $736 m0 *1 45.54,51.68
X$736 14 53 211 174 187 24 24 14 sky130_fd_sc_hd__edfxtp_1
* cell instance $739 m0 *1 57.5,51.68
X$739 14 144 209 204 211 203 202 183 24 24 14 sky130_fd_sc_hd__mux4_1
* cell instance $740 m0 *1 67.16,51.68
X$740 14 53 208 169 188 24 24 14 sky130_fd_sc_hd__edfxtp_1
* cell instance $747 m0 *1 84.64,51.68
X$747 14 93 206 158 180 24 24 14 sky130_fd_sc_hd__edfxtp_1
* cell instance $754 r0 *1 1.38,51.68
X$754 24 213 24 14 49 14 sky130_fd_sc_hd__buf_4
* cell instance $755 r0 *1 4.14,51.68
X$755 14 119 218 182 167 24 24 14 sky130_fd_sc_hd__edfxtp_1
* cell instance $761 r0 *1 21.62,51.68
X$761 14 138 220 182 187 24 24 14 sky130_fd_sc_hd__edfxtp_1
* cell instance $771 r0 *1 52.44,51.68
X$771 14 102 221 132 156 24 24 14 sky130_fd_sc_hd__and3_4
* cell instance $781 r0 *1 78.2,51.68
X$781 14 144 219 201 208 196 198 183 24 24 14 sky130_fd_sc_hd__mux4_1
* cell instance $783 r0 *1 88.32,51.68
X$783 14 144 217 191 192 206 197 183 24 24 14 sky130_fd_sc_hd__mux4_1
* cell instance $799 m0 *1 4.14,57.12
X$799 24 205 24 14 54 14 sky130_fd_sc_hd__buf_4
* cell instance $801 m0 *1 8.74,57.12
X$801 14 106 214 223 167 24 24 14 sky130_fd_sc_hd__edfxtp_1
* cell instance $802 m0 *1 19.78,57.12
X$802 14 193 194 237 90 184 84 199 24 24 14 sky130_fd_sc_hd__mux4_2
* cell instance $805 m0 *1 29.44,57.12
X$805 14 90 222 210 230 220 200 84 24 24 14 sky130_fd_sc_hd__mux4_1
* cell instance $806 m0 *1 39.1,57.12
X$806 14 119 233 215 188 24 24 14 sky130_fd_sc_hd__edfxtp_1
* cell instance $807 m0 *1 50.14,57.12
X$807 14 235 142 24 24 14 sky130_fd_sc_hd__clkbuf_8
* cell instance $811 m0 *1 57.04,57.12
X$811 14 102 225 132 149 24 24 14 sky130_fd_sc_hd__and3_4
* cell instance $813 m0 *1 64.86,57.12
X$813 14 225 232 224 54 24 24 14 sky130_fd_sc_hd__edfxtp_1
* cell instance $818 m0 *1 84.64,57.12
X$818 14 225 226 229 49 24 24 14 sky130_fd_sc_hd__edfxtp_1
* cell instance $820 m0 *1 96.6,57.12
X$820 14 22 216 24 24 14 sky130_fd_sc_hd__buf_8
* cell instance $825 r0 *1 4.14,57.12
X$825 14 138 227 223 167 24 24 14 sky130_fd_sc_hd__edfxtp_1
* cell instance $828 r0 *1 15.64,57.12
X$828 14 207 214 244 90 227 84 218 24 24 14 sky130_fd_sc_hd__mux4_2
* cell instance $831 r0 *1 25.3,57.12
X$831 14 106 230 215 187 24 24 14 sky130_fd_sc_hd__edfxtp_1
* cell instance $837 r0 *1 43.24,57.12
X$837 14 106 234 215 188 24 24 14 sky130_fd_sc_hd__edfxtp_1
* cell instance $839 r0 *1 56.12,57.12
X$839 14 221 243 224 54 24 24 14 sky130_fd_sc_hd__edfxtp_1
* cell instance $847 r0 *1 76.36,57.12
X$847 14 231 228 229 49 24 24 14 sky130_fd_sc_hd__edfxtp_1
* cell instance $849 r0 *1 88.32,57.12
X$849 14 216 146 228 258 241 226 157 24 24 14 sky130_fd_sc_hd__mux4_1
* cell instance $868 m0 *1 13.8,62.56
X$868 14 248 251 223 54 24 24 14 sky130_fd_sc_hd__edfxtp_1
* cell instance $874 m0 *1 34.04,62.56
X$874 14 138 236 215 188 24 24 14 sky130_fd_sc_hd__edfxtp_1
* cell instance $876 m0 *1 45.54,62.56
X$876 14 90 242 233 234 236 212 84 24 24 14 sky130_fd_sc_hd__mux4_1
* cell instance $882 m0 *1 58.42,62.56
X$882 14 142 224 24 24 14 sky130_fd_sc_hd__clkbuf_16
* cell instance $884 m0 *1 68.08,62.56
X$884 14 238 250 224 54 24 24 14 sky130_fd_sc_hd__edfxtp_1
* cell instance $889 m0 *1 84.64,62.56
X$889 14 238 241 229 49 24 24 14 sky130_fd_sc_hd__edfxtp_1
* cell instance $892 m0 *1 97.98,62.56
X$892 24 19 247 239 14 24 14 sky130_fd_sc_hd__nor2b_1
* cell instance $895 m0 *1 101.66,62.56
X$895 24 239 240 14 24 14 sky130_fd_sc_hd__clkbuf_1
* cell instance $898 r0 *1 1.38,62.56
X$898 24 253 24 254 14 14 sky130_fd_sc_hd__dlygate4sd3_1
* cell instance $906 r0 *1 16.56,62.56
X$906 14 249 256 215 54 24 24 14 sky130_fd_sc_hd__edfxtp_1
* cell instance $909 r0 *1 34.96,62.56
X$909 14 102 248 134 156 24 24 14 sky130_fd_sc_hd__and3_4
* cell instance $910 r0 *1 39.1,62.56
X$910 24 134 102 149 14 24 249 14 sky130_fd_sc_hd__and3_2
* cell instance $916 r0 *1 46,62.56
X$916 14 102 231 114 156 24 24 14 sky130_fd_sc_hd__and3_4
* cell instance $917 r0 *1 50.14,62.56
X$917 14 142 229 24 24 14 sky130_fd_sc_hd__clkbuf_16
* cell instance $918 r0 *1 59.34,62.56
X$918 14 231 252 224 54 24 24 14 sky130_fd_sc_hd__edfxtp_1
* cell instance $922 r0 *1 71.76,62.56
X$922 14 216 143 252 243 250 232 157 24 24 14 sky130_fd_sc_hd__mux4_1
* cell instance $927 r0 *1 88.32,62.56
X$927 14 27 247 160 257 237 255 83 24 24 14 sky130_fd_sc_hd__mux4_1
* cell instance $932 r0 *1 103.04,62.56
X$932 24 245 246 14 24 14 sky130_fd_sc_hd__clkbuf_1
* cell instance $941 m0 *1 1.38,68
X$941 14 254 107 24 24 14 sky130_fd_sc_hd__clkbuf_8
* cell instance $942 m0 *1 6.44,68
X$942 14 81 266 223 54 24 24 14 sky130_fd_sc_hd__edfxtp_1
* cell instance $945 m0 *1 19.78,68
X$945 14 142 223 24 24 14 sky130_fd_sc_hd__clkbuf_16
* cell instance $947 m0 *1 29.44,68
X$947 14 256 251 148 144 266 183 267 24 24 14 sky130_fd_sc_hd__mux4_2
* cell instance $949 m0 *1 38.18,68
X$949 14 249 269 215 107 24 24 14 sky130_fd_sc_hd__edfxtp_1
* cell instance $953 m0 *1 52.44,68
X$953 14 102 238 114 149 24 24 14 sky130_fd_sc_hd__and3_4
* cell instance $957 m0 *1 59.8,68
X$957 14 225 268 224 167 24 24 14 sky130_fd_sc_hd__edfxtp_1
* cell instance $958 m0 *1 70.84,68
X$958 14 221 258 229 49 24 24 14 sky130_fd_sc_hd__edfxtp_1
* cell instance $965 m0 *1 92.46,68
X$965 14 27 260 126 263 159 261 83 24 24 14 sky130_fd_sc_hd__mux4_1
* cell instance $966 m0 *1 102.12,68
X$966 24 19 260 245 14 24 14 sky130_fd_sc_hd__nor2b_1
* cell instance $969 r0 *1 4.14,68
X$969 14 164 267 223 54 24 24 14 sky130_fd_sc_hd__edfxtp_1
* cell instance $975 r0 *1 19.32,68
X$975 24 223 352 24 14 14 sky130_fd_sc_hd__inv_6
* cell instance $976 r0 *1 22.54,68
X$976 14 274 271 145 144 265 183 259 24 24 14 sky130_fd_sc_hd__mux4_4
* cell instance $978 r0 *1 33.58,68
X$978 14 142 215 24 24 14 sky130_fd_sc_hd__clkbuf_16
* cell instance $983 r0 *1 43.24,68
X$983 24 215 24 14 14 sky130_fd_sc_hd__clkinvlp_4
* cell instance $987 r0 *1 52.44,68
X$987 14 221 275 224 167 24 24 14 sky130_fd_sc_hd__edfxtp_1
* cell instance $988 r0 *1 63.48,68
X$988 24 224 350 24 14 14 sky130_fd_sc_hd__inv_6
* cell instance $995 r0 *1 71.76,68
X$995 24 229 351 24 14 14 sky130_fd_sc_hd__inv_6
* cell instance $998 r0 *1 77.28,68
X$998 14 221 264 229 150 24 24 14 sky130_fd_sc_hd__edfxtp_1
* cell instance $999 r0 *1 88.32,68
X$999 14 216 257 273 264 272 262 157 24 24 14 sky130_fd_sc_hd__mux4_1
* cell instance $1009 m0 *1 2.76,73.44
X$1009 14 164 259 223 49 24 24 14 sky130_fd_sc_hd__edfxtp_1
* cell instance $1010 m0 *1 13.8,73.44
X$1010 14 249 274 223 49 24 24 14 sky130_fd_sc_hd__edfxtp_1
* cell instance $1014 m0 *1 29.44,73.44
X$1014 14 164 280 215 107 24 24 14 sky130_fd_sc_hd__edfxtp_1
* cell instance $1015 m0 *1 40.48,73.44
X$1015 14 81 282 215 107 24 24 14 sky130_fd_sc_hd__edfxtp_1
* cell instance $1021 m0 *1 57.96,73.44
X$1021 14 238 284 278 167 24 24 14 sky130_fd_sc_hd__edfxtp_1
* cell instance $1024 m0 *1 73.14,73.44
X$1024 14 231 273 229 150 24 24 14 sky130_fd_sc_hd__edfxtp_1
* cell instance $1026 m0 *1 84.64,73.44
X$1026 14 238 272 229 150 24 24 14 sky130_fd_sc_hd__edfxtp_1
* cell instance $1031 r0 *1 1.38,73.44
X$1031 24 270 24 14 150 14 sky130_fd_sc_hd__buf_4
* cell instance $1032 r0 *1 4.14,73.44
X$1032 14 248 271 286 49 24 24 14 sky130_fd_sc_hd__edfxtp_1
* cell instance $1035 r0 *1 15.64,73.44
X$1035 14 81 265 286 49 24 24 14 sky130_fd_sc_hd__edfxtp_1
* cell instance $1039 r0 *1 31.74,73.44
X$1039 14 248 281 215 107 24 24 14 sky130_fd_sc_hd__edfxtp_1
* cell instance $1042 r0 *1 43.24,73.44
X$1042 14 144 261 280 281 282 269 183 24 24 14 sky130_fd_sc_hd__mux4_1
* cell instance $1046 r0 *1 60.72,73.44
X$1046 14 216 289 290 275 284 268 157 24 24 14 sky130_fd_sc_hd__mux4_1
* cell instance $1049 r0 *1 70.84,73.44
X$1049 14 27 288 219 283 242 279 83 24 24 14 sky130_fd_sc_hd__mux4_1
* cell instance $1052 r0 *1 83.26,73.44
X$1052 14 225 262 278 150 24 24 14 sky130_fd_sc_hd__edfxtp_1
* cell instance $1055 r0 *1 95.68,73.44
X$1055 24 19 277 276 14 24 14 sky130_fd_sc_hd__nor2b_1
* cell instance $1058 r0 *1 98.44,73.44
X$1058 24 276 287 14 24 14 sky130_fd_sc_hd__clkbuf_1
* cell instance $1071 m0 *1 4.14,78.88
X$1071 24 285 24 14 167 14 sky130_fd_sc_hd__buf_4
* cell instance $1074 m0 *1 14.26,78.88
X$1074 14 248 298 286 150 24 24 14 sky130_fd_sc_hd__edfxtp_1
* cell instance $1079 m0 *1 33.58,78.88
X$1079 14 248 302 291 188 24 24 14 sky130_fd_sc_hd__edfxtp_1
* cell instance $1080 m0 *1 44.62,78.88
X$1080 14 231 290 291 167 24 24 14 sky130_fd_sc_hd__edfxtp_1
* cell instance $1086 m0 *1 60.26,78.88
X$1086 14 142 278 24 24 14 sky130_fd_sc_hd__clkbuf_16
* cell instance $1087 m0 *1 69.46,78.88
X$1087 14 278 24 24 14 sky130_fd_sc_hd__bufinv_16
* cell instance $1092 m0 *1 89.24,78.88
X$1092 14 225 293 278 107 24 24 14 sky130_fd_sc_hd__edfxtp_1
* cell instance $1097 r0 *1 4.14,78.88
X$1097 14 164 295 286 150 24 24 14 sky130_fd_sc_hd__edfxtp_1
* cell instance $1100 r0 *1 15.64,78.88
X$1100 14 249 296 286 150 24 24 14 sky130_fd_sc_hd__edfxtp_1
* cell instance $1105 r0 *1 33.58,78.88
X$1105 14 142 291 24 24 14 sky130_fd_sc_hd__clkbuf_16
* cell instance $1108 r0 *1 43.24,78.88
X$1108 24 291 24 14 14 sky130_fd_sc_hd__clkinvlp_4
* cell instance $1114 r0 *1 59.34,78.88
X$1114 14 231 300 278 187 24 24 14 sky130_fd_sc_hd__edfxtp_1
* cell instance $1117 r0 *1 70.84,78.88
X$1117 24 301 14 24 14 sky130_fd_sc_hd__clkinv_4
* cell instance $1121 r0 *1 77.28,78.88
X$1121 14 231 297 278 107 24 24 14 sky130_fd_sc_hd__edfxtp_1
* cell instance $1122 r0 *1 88.32,78.88
X$1122 14 216 294 299 331 346 292 157 24 24 14 sky130_fd_sc_hd__mux4_1
* cell instance $1141 m0 *1 17.94,84.32
X$1141 14 81 304 286 150 24 24 14 sky130_fd_sc_hd__edfxtp_1
* cell instance $1143 m0 *1 29.44,84.32
X$1143 14 142 286 24 24 14 sky130_fd_sc_hd__clkbuf_16
* cell instance $1144 m0 *1 38.64,84.32
X$1144 14 249 305 291 188 24 24 14 sky130_fd_sc_hd__edfxtp_1
* cell instance $1152 m0 *1 61.64,84.32
X$1152 14 142 301 24 24 14 sky130_fd_sc_hd__clkbuf_16
* cell instance $1153 m0 *1 70.84,84.32
X$1153 14 27 277 176 289 244 306 83 24 24 14 sky130_fd_sc_hd__mux4_1
* cell instance $1158 m0 *1 86.02,84.32
X$1158 14 221 303 278 107 24 24 14 sky130_fd_sc_hd__edfxtp_1
* cell instance $1171 r0 *1 23.46,84.32
X$1171 14 296 298 255 144 304 183 295 24 24 14 sky130_fd_sc_hd__mux4_2
* cell instance $1172 r0 *1 31.74,84.32
X$1172 14 248 308 291 180 24 24 14 sky130_fd_sc_hd__edfxtp_1
* cell instance $1177 r0 *1 44.62,84.32
X$1177 14 216 279 333 302 310 305 157 24 24 14 sky130_fd_sc_hd__mux4_1
* cell instance $1181 r0 *1 59.34,84.32
X$1181 14 225 311 301 187 24 24 14 sky130_fd_sc_hd__edfxtp_1
* cell instance $1185 r0 *1 71.76,84.32
X$1185 14 225 309 301 188 24 24 14 sky130_fd_sc_hd__edfxtp_1
* cell instance $1188 r0 *1 86.94,84.32
X$1188 14 238 307 278 107 24 24 14 sky130_fd_sc_hd__edfxtp_1
* cell instance $1207 m0 *1 16.56,89.76
X$1207 14 249 313 286 167 24 24 14 sky130_fd_sc_hd__edfxtp_1
* cell instance $1214 m0 *1 38.64,89.76
X$1214 14 249 315 291 180 24 24 14 sky130_fd_sc_hd__edfxtp_1
* cell instance $1222 m0 *1 58.42,89.76
X$1222 14 221 314 301 187 24 24 14 sky130_fd_sc_hd__edfxtp_1
* cell instance $1224 m0 *1 69.92,89.76