* CDL Netlist generated by OpenROAD

*.BUSDELIMITER [

.SUBCKT showahead_fifo almost_empty almost_full clk data_count[0]
+ data_count[1] data_count[2] data_count[3] data_count[4] empty
+ full peek_en rd_data[0] rd_data[1] rd_data[2] rd_data[3] rd_data[4]
+ rd_data[5] rd_data[6] rd_data[7] rd_en rst_n valid wr_data[0]
+ wr_data[1] wr_data[2] wr_data[3] wr_data[4] wr_data[5] wr_data[6]
+ wr_data[7] wr_en
X_131_ _130_ VSS VSS VDD VDD net14 sky130_fd_sc_hd__inv_1
X_132_ _114_ VSS VSS VDD VDD _029_ sky130_fd_sc_hd__inv_1
X_133_ _119_ _116_ VSS VSS VDD VDD _030_ sky130_fd_sc_hd__nand2_1
X_134_ _119_ _115_ _118_ VSS VSS VDD VDD _031_ sky130_fd_sc_hd__a21oi_1
X_135_ _129_ _030_ _031_ VSS VSS VDD VDD _032_ sky130_fd_sc_hd__o21ai_2
X_136_ _029_ _032_ VSS VSS VDD VDD net17 sky130_fd_sc_hd__xnor2_1
X_137_ _119_ _111_ VSS VSS VDD VDD net16 sky130_fd_sc_hd__xor2_2
X_138_ _119_ _111_ _118_ VSS VSS VDD VDD _033_ sky130_fd_sc_hd__a21o_1
X_139_ _114_ _033_ _113_ VSS VSS VDD VDD _034_ sky130_fd_sc_hd__a21oi_1
X_140_ wr_ptr\[4\] rd_ptr\[4\] VSS VSS VDD VDD _035_ sky130_fd_sc_hd__xnor2_1
X_141_ _034_ _035_ VSS VSS VDD VDD _036_ sky130_fd_sc_hd__xor2_2
X_142_ _036_ VSS VSS VDD VDD net18 sky130_fd_sc_hd__inv_2
X_143_ _114_ net14 net15 net16 VSS VSS VDD VDD _037_ sky130_fd_sc_hd__nor4_1
X_144_ _029_ net14 net15 net16 VSS VSS VDD VDD _038_ sky130_fd_sc_hd__nor4_1
X_145_ _037_ _038_ _032_ VSS VSS VDD VDD _039_ sky130_fd_sc_hd__mux2_4
X_146_ net18 _039_ VSS VSS VDD VDD net20 sky130_fd_sc_hd__and2_0
X_147_ _036_ _039_ VSS VSS VDD VDD _040_ sky130_fd_sc_hd__and2_0
X_148_ _040_ VSS VSS VDD VDD net19 sky130_fd_sc_hd__buf_4
X_149_ wr_ptr\[3\] wr_ptr\[2\] VSS VSS VDD VDD _041_ sky130_fd_sc_hd__nor2_1
X_150_ net18 _039_ net11 VSS VSS VDD VDD _042_ sky130_fd_sc_hd__a21boi_2
X_151_ _122_ _041_ _042_ VSS VSS VDD VDD _000_ sky130_fd_sc_hd__and3_4
X_152_ _125_ _041_ _042_ VSS VSS VDD VDD _007_ sky130_fd_sc_hd__and3_4
X_153_ _123_ _041_ _042_ VSS VSS VDD VDD _008_ sky130_fd_sc_hd__and3_4
X_154_ net11 _127_ VSS VSS VDD VDD _043_ sky130_fd_sc_hd__nand2_1
X_155_ net18 _039_ _043_ VSS VSS VDD VDD _044_ sky130_fd_sc_hd__a21oi_2
X_156_ _041_ _044_ VSS VSS VDD VDD _009_ sky130_fd_sc_hd__and2_4
X_157_ _042_ VSS VSS VDD VDD _045_ sky130_fd_sc_hd__buf_4
X_158_ wr_ptr\[3\] wr_ptr\[2\] VSS VSS VDD VDD _046_ sky130_fd_sc_hd__nor2b_1
X_159_ _122_ _045_ _046_ VSS VSS VDD VDD _010_ sky130_fd_sc_hd__and3_4
X_160_ _125_ _045_ _046_ VSS VSS VDD VDD _011_ sky130_fd_sc_hd__and3_4
X_161_ _123_ _045_ _046_ VSS VSS VDD VDD _012_ sky130_fd_sc_hd__and3_4
X_162_ _044_ _046_ VSS VSS VDD VDD _013_ sky130_fd_sc_hd__and2_4
X_163_ wr_ptr\[2\] wr_ptr\[3\] VSS VSS VDD VDD _047_ sky130_fd_sc_hd__nor2b_2
X_164_ _122_ _045_ _047_ VSS VSS VDD VDD _014_ sky130_fd_sc_hd__and3_4
X_165_ _125_ _045_ _047_ VSS VSS VDD VDD _015_ sky130_fd_sc_hd__and3_4
X_166_ _123_ _045_ _047_ VSS VSS VDD VDD _001_ sky130_fd_sc_hd__and3_4
X_167_ _044_ _047_ VSS VSS VDD VDD _002_ sky130_fd_sc_hd__and2_4
X_168_ wr_ptr\[3\] wr_ptr\[2\] VSS VSS VDD VDD _048_ sky130_fd_sc_hd__and2_1
X_169_ _122_ _045_ _048_ VSS VSS VDD VDD _003_ sky130_fd_sc_hd__and3_4
X_170_ _125_ _045_ _048_ VSS VSS VDD VDD _004_ sky130_fd_sc_hd__and3_4
X_171_ _123_ _045_ _048_ VSS VSS VDD VDD _005_ sky130_fd_sc_hd__and3_2
X_172_ net11 _127_ _048_ VSS VSS VDD VDD _049_ sky130_fd_sc_hd__nand3_1
X_173_ net18 _039_ _049_ VSS VSS VDD VDD _006_ sky130_fd_sc_hd__a21oi_4
X_174_ rd_ptr\[3\] VSS VSS VDD VDD _112_ sky130_fd_sc_hd__inv_6
X_175_ rd_ptr\[1\] VSS VSS VDD VDD _050_ sky130_fd_sc_hd__buf_6
X_176_ _050_ VSS VSS VDD VDD _109_ sky130_fd_sc_hd__inv_1
X_177_ _129_ VSS VSS VDD VDD _110_ sky130_fd_sc_hd__inv_1
X_178_ rd_ptr\[2\] VSS VSS VDD VDD _051_ sky130_fd_sc_hd__buf_6
X_179_ _051_ VSS VSS VDD VDD _052_ sky130_fd_sc_hd__buf_6
X_180_ _052_ VSS VSS VDD VDD _117_ sky130_fd_sc_hd__inv_1
X_181_ wr_ptr\[0\] VSS VSS VDD VDD _016_ sky130_fd_sc_hd__inv_1
X_182_ wr_ptr\[1\] VSS VSS VDD VDD _121_ sky130_fd_sc_hd__inv_1
X_183_ rd_ptr\[0\] VSS VSS VDD VDD _053_ sky130_fd_sc_hd__buf_6
X_184_ _053_ VSS VSS VDD VDD _054_ sky130_fd_sc_hd__buf_8
X_185_ _036_ _039_ net2 VSS VSS VDD VDD _055_ sky130_fd_sc_hd__a21boi_1
X_186_ _054_ _055_ VSS VSS VDD VDD _019_ sky130_fd_sc_hd__xor2_1
X_187_ _050_ _018_ _055_ VSS VSS VDD VDD _020_ sky130_fd_sc_hd__mux2_1
X_188_ net2 _120_ VSS VSS VDD VDD _056_ sky130_fd_sc_hd__nand2_1
X_189_ _036_ _039_ _056_ VSS VSS VDD VDD _057_ sky130_fd_sc_hd__a21oi_1
X_190_ _117_ _057_ VSS VSS VDD VDD _021_ sky130_fd_sc_hd__xnor2_1
X_191_ net2 _054_ _050_ _052_ VSS VSS VDD VDD _058_ sky130_fd_sc_hd__nand4_1
X_192_ _036_ _039_ _058_ VSS VSS VDD VDD _059_ sky130_fd_sc_hd__a21oi_1
X_193_ _112_ _059_ VSS VSS VDD VDD _022_ sky130_fd_sc_hd__xnor2_1
X_194_ net2 _052_ rd_ptr\[3\] _120_ VSS VSS VDD VDD _060_
+ sky130_fd_sc_hd__nand4_1
X_195_ _036_ _039_ _060_ VSS VSS VDD VDD _061_ sky130_fd_sc_hd__a21oi_1
X_196_ rd_ptr\[4\] _061_ VSS VSS VDD VDD _023_ sky130_fd_sc_hd__xor2_1
X_197_ _016_ _045_ VSS VSS VDD VDD _024_ sky130_fd_sc_hd__xnor2_1
X_198_ wr_ptr\[1\] _017_ _042_ VSS VSS VDD VDD _025_ sky130_fd_sc_hd__mux2_1
X_199_ wr_ptr\[2\] _044_ VSS VSS VDD VDD _026_ sky130_fd_sc_hd__xor2_1
X_200_ net11 wr_ptr\[2\] wr_ptr\[1\] wr_ptr\[0\] VSS VSS VDD
+ VDD _062_ sky130_fd_sc_hd__nand4_1
X_201_ net18 _039_ _062_ VSS VSS VDD VDD _063_ sky130_fd_sc_hd__a21oi_1
X_202_ wr_ptr\[3\] _063_ VSS VSS VDD VDD _027_ sky130_fd_sc_hd__xor2_1
X_203_ wr_ptr\[4\] _006_ VSS VSS VDD VDD _028_ sky130_fd_sc_hd__xor2_1
X_204_ net19 VSS VSS VDD VDD net29 sky130_fd_sc_hd__inv_1
X_205_ _130_ net15 VSS VSS VDD VDD _064_ sky130_fd_sc_hd__xor2_1
X_206_ net17 net16 net18 _064_ VSS VSS VDD VDD net12 sky130_fd_sc_hd__nor4_1
X_207_ net15 net17 net16 net18 VSS VSS VDD VDD net13 sky130_fd_sc_hd__a31o_1
X_208_ _053_ VSS VSS VDD VDD _065_ sky130_fd_sc_hd__buf_8
X_209_ _051_ VSS VSS VDD VDD _066_ sky130_fd_sc_hd__buf_4
X_210_ mem\[8\]\[0\] mem\[9\]\[0\] mem\[12\]\[0\] mem\[13\]\[0\]
+ _065_ _066_ VSS VSS VDD VDD _067_ sky130_fd_sc_hd__mux4_1
X_211_ _053_ VSS VSS VDD VDD _068_ sky130_fd_sc_hd__buf_16
X_212_ _051_ VSS VSS VDD VDD _069_ sky130_fd_sc_hd__buf_4
X_213_ mem\[0\]\[0\] mem\[1\]\[0\] mem\[4\]\[0\] mem\[5\]\[0\]
+ _068_ _069_ VSS VSS VDD VDD _070_ sky130_fd_sc_hd__mux4_1
X_214_ mem\[10\]\[0\] mem\[11\]\[0\] mem\[14\]\[0\] mem\[15\]\[0\]
+ _065_ _066_ VSS VSS VDD VDD _071_ sky130_fd_sc_hd__mux4_1
X_215_ mem\[2\]\[0\] mem\[3\]\[0\] mem\[6\]\[0\] mem\[7\]\[0\]
+ _054_ _052_ VSS VSS VDD VDD _072_ sky130_fd_sc_hd__mux4_1
X_216_ _067_ _070_ _071_ _072_ _112_ _050_ VSS VSS VDD VDD
+ _073_ sky130_fd_sc_hd__mux4_1
X_217_ net19 _073_ VSS VSS VDD VDD net21 sky130_fd_sc_hd__nor2b_1
X_218_ mem\[8\]\[1\] mem\[9\]\[1\] mem\[12\]\[1\] mem\[13\]\[1\]
+ _065_ _066_ VSS VSS VDD VDD _074_ sky130_fd_sc_hd__mux4_1
X_219_ mem\[0\]\[1\] mem\[1\]\[1\] mem\[4\]\[1\] mem\[5\]\[1\]
+ _068_ _069_ VSS VSS VDD VDD _075_ sky130_fd_sc_hd__mux4_1
X_220_ mem\[10\]\[1\] mem\[11\]\[1\] mem\[14\]\[1\] mem\[15\]\[1\]
+ _065_ _069_ VSS VSS VDD VDD _076_ sky130_fd_sc_hd__mux4_1
X_221_ mem\[2\]\[1\] mem\[3\]\[1\] mem\[6\]\[1\] mem\[7\]\[1\]
+ _054_ _052_ VSS VSS VDD VDD _077_ sky130_fd_sc_hd__mux4_2
X_222_ _074_ _075_ _076_ _077_ _112_ _050_ VSS VSS VDD VDD
+ _078_ sky130_fd_sc_hd__mux4_1
X_223_ net19 _078_ VSS VSS VDD VDD net22 sky130_fd_sc_hd__nor2b_1
X_224_ mem\[8\]\[2\] mem\[9\]\[2\] mem\[12\]\[2\] mem\[13\]\[2\]
+ _065_ _066_ VSS VSS VDD VDD _079_ sky130_fd_sc_hd__mux4_1
X_225_ mem\[0\]\[2\] mem\[1\]\[2\] mem\[4\]\[2\] mem\[5\]\[2\]
+ _068_ _069_ VSS VSS VDD VDD _080_ sky130_fd_sc_hd__mux4_1
X_226_ mem\[10\]\[2\] mem\[11\]\[2\] mem\[14\]\[2\] mem\[15\]\[2\]
+ _068_ _069_ VSS VSS VDD VDD _081_ sky130_fd_sc_hd__mux4_1
X_227_ mem\[2\]\[2\] mem\[3\]\[2\] mem\[6\]\[2\] mem\[7\]\[2\]
+ _054_ _052_ VSS VSS VDD VDD _082_ sky130_fd_sc_hd__mux4_1
X_228_ _079_ _080_ _081_ _082_ _112_ _050_ VSS VSS VDD VDD
+ _083_ sky130_fd_sc_hd__mux4_1
X_229_ net19 _083_ VSS VSS VDD VDD net23 sky130_fd_sc_hd__nor2b_1
X_230_ mem\[8\]\[3\] mem\[9\]\[3\] mem\[12\]\[3\] mem\[13\]\[3\]
+ _065_ _066_ VSS VSS VDD VDD _084_ sky130_fd_sc_hd__mux4_1
X_231_ mem\[0\]\[3\] mem\[1\]\[3\] mem\[4\]\[3\] mem\[5\]\[3\]
+ _068_ _051_ VSS VSS VDD VDD _085_ sky130_fd_sc_hd__mux4_1
X_232_ mem\[10\]\[3\] mem\[11\]\[3\] mem\[14\]\[3\] mem\[15\]\[3\]
+ _068_ _069_ VSS VSS VDD VDD _086_ sky130_fd_sc_hd__mux4_1
X_233_ mem\[2\]\[3\] mem\[3\]\[3\] mem\[6\]\[3\] mem\[7\]\[3\]
+ _054_ _052_ VSS VSS VDD VDD _087_ sky130_fd_sc_hd__mux4_2
X_234_ _084_ _085_ _086_ _087_ _112_ _050_ VSS VSS VDD VDD
+ _088_ sky130_fd_sc_hd__mux4_1
X_235_ net19 _088_ VSS VSS VDD VDD net24 sky130_fd_sc_hd__nor2b_1
X_236_ mem\[8\]\[4\] mem\[9\]\[4\] mem\[12\]\[4\] mem\[13\]\[4\]
+ _065_ _066_ VSS VSS VDD VDD _089_ sky130_fd_sc_hd__mux4_1
X_237_ mem\[0\]\[4\] mem\[1\]\[4\] mem\[4\]\[4\] mem\[5\]\[4\]
+ _053_ _051_ VSS VSS VDD VDD _090_ sky130_fd_sc_hd__mux4_1
X_238_ mem\[10\]\[4\] mem\[11\]\[4\] mem\[14\]\[4\] mem\[15\]\[4\]
+ _068_ _069_ VSS VSS VDD VDD _091_ sky130_fd_sc_hd__mux4_1
X_239_ mem\[2\]\[4\] mem\[3\]\[4\] mem\[6\]\[4\] mem\[7\]\[4\]
+ _054_ _052_ VSS VSS VDD VDD _092_ sky130_fd_sc_hd__mux4_4
X_240_ _089_ _090_ _091_ _092_ _112_ _050_ VSS VSS VDD VDD
+ _093_ sky130_fd_sc_hd__mux4_1
X_241_ net19 _093_ VSS VSS VDD VDD net25 sky130_fd_sc_hd__nor2b_1
X_242_ mem\[8\]\[5\] mem\[9\]\[5\] mem\[12\]\[5\] mem\[13\]\[5\]
+ _065_ _066_ VSS VSS VDD VDD _094_ sky130_fd_sc_hd__mux4_1
X_243_ mem\[0\]\[5\] mem\[1\]\[5\] mem\[4\]\[5\] mem\[5\]\[5\]
+ _053_ _051_ VSS VSS VDD VDD _095_ sky130_fd_sc_hd__mux4_1
X_244_ mem\[10\]\[5\] mem\[11\]\[5\] mem\[14\]\[5\] mem\[15\]\[5\]
+ _068_ _069_ VSS VSS VDD VDD _096_ sky130_fd_sc_hd__mux4_2
X_245_ mem\[2\]\[5\] mem\[3\]\[5\] mem\[6\]\[5\] mem\[7\]\[5\]
+ _054_ _052_ VSS VSS VDD VDD _097_ sky130_fd_sc_hd__mux4_2
X_246_ _094_ _095_ _096_ _097_ _112_ _050_ VSS VSS VDD VDD
+ _098_ sky130_fd_sc_hd__mux4_1
X_247_ net19 _098_ VSS VSS VDD VDD net26 sky130_fd_sc_hd__nor2b_1
X_248_ mem\[8\]\[6\] mem\[9\]\[6\] mem\[12\]\[6\] mem\[13\]\[6\]
+ _065_ _066_ VSS VSS VDD VDD _099_ sky130_fd_sc_hd__mux4_1
X_249_ mem\[0\]\[6\] mem\[1\]\[6\] mem\[4\]\[6\] mem\[5\]\[6\]
+ _053_ _051_ VSS VSS VDD VDD _100_ sky130_fd_sc_hd__mux4_1
X_250_ mem\[10\]\[6\] mem\[11\]\[6\] mem\[14\]\[6\] mem\[15\]\[6\]
+ _068_ _069_ VSS VSS VDD VDD _101_ sky130_fd_sc_hd__mux4_4
X_251_ mem\[2\]\[6\] mem\[3\]\[6\] mem\[6\]\[6\] mem\[7\]\[6\]
+ _054_ _052_ VSS VSS VDD VDD _102_ sky130_fd_sc_hd__mux4_2
X_252_ _099_ _100_ _101_ _102_ _112_ _050_ VSS VSS VDD VDD
+ _103_ sky130_fd_sc_hd__mux4_1
X_253_ net19 _103_ VSS VSS VDD VDD net27 sky130_fd_sc_hd__nor2b_1
X_254_ mem\[8\]\[7\] mem\[9\]\[7\] mem\[12\]\[7\] mem\[13\]\[7\]
+ _065_ _066_ VSS VSS VDD VDD _104_ sky130_fd_sc_hd__mux4_1
X_255_ mem\[0\]\[7\] mem\[1\]\[7\] mem\[4\]\[7\] mem\[5\]\[7\]
+ _053_ _051_ VSS VSS VDD VDD _105_ sky130_fd_sc_hd__mux4_1
X_256_ mem\[10\]\[7\] mem\[11\]\[7\] mem\[14\]\[7\] mem\[15\]\[7\]
+ _068_ _069_ VSS VSS VDD VDD _106_ sky130_fd_sc_hd__mux4_2
X_257_ mem\[2\]\[7\] mem\[3\]\[7\] mem\[6\]\[7\] mem\[7\]\[7\]
+ _054_ _066_ VSS VSS VDD VDD _107_ sky130_fd_sc_hd__mux4_1
X_258_ _104_ _105_ _106_ _107_ _112_ rd_ptr\[1\] VSS VSS VDD
+ VDD _108_ sky130_fd_sc_hd__mux4_1
X_259_ net19 _108_ VSS VSS VDD VDD net28 sky130_fd_sc_hd__nor2b_1
X_260_ _109_ wr_ptr\[1\] _110_ VSS VSS VDD VDD _111_ net15
+ sky130_fd_sc_hd__fa_2
X_261_ _112_ wr_ptr\[3\] VSS VSS VDD VDD _113_ _114_ sky130_fd_sc_hd__ha_1
X_262_ _109_ wr_ptr\[1\] VSS VSS VDD VDD _115_ _116_ sky130_fd_sc_hd__ha_1
X_263_ _117_ wr_ptr\[2\] VSS VSS VDD VDD _118_ _119_ sky130_fd_sc_hd__ha_1
X_264_ rd_ptr\[0\] rd_ptr\[1\] VSS VSS VDD VDD _120_ _018_
+ sky130_fd_sc_hd__ha_1
X_265_ _016_ _121_ VSS VSS VDD VDD _122_ _017_ sky130_fd_sc_hd__ha_1
X_266_ _016_ wr_ptr\[1\] VSS VSS VDD VDD _123_ _124_ sky130_fd_sc_hd__ha_1
X_267_ wr_ptr\[0\] _121_ VSS VSS VDD VDD _125_ _126_ sky130_fd_sc_hd__ha_1
X_268_ wr_ptr\[0\] wr_ptr\[1\] VSS VSS VDD VDD _127_ _128_
+ sky130_fd_sc_hd__ha_1
X_269_ rd_ptr\[0\] _016_ VSS VSS VDD VDD _129_ _130_ sky130_fd_sc_hd__ha_1
Xmem\[0\]\[0\]$_DFFE_PP_ clknet_4_6_0_clk net3 _000_ VSS VSS
+ VDD VDD mem\[0\]\[0\] sky130_fd_sc_hd__edfxtp_1
Xmem\[0\]\[1\]$_DFFE_PP_ clknet_4_7_0_clk net4 _000_ VSS VSS
+ VDD VDD mem\[0\]\[1\] sky130_fd_sc_hd__edfxtp_1
Xmem\[0\]\[2\]$_DFFE_PP_ clknet_4_3_0_clk net5 _000_ VSS VSS
+ VDD VDD mem\[0\]\[2\] sky130_fd_sc_hd__edfxtp_1
Xmem\[0\]\[3\]$_DFFE_PP_ clknet_4_6_0_clk net6 _000_ VSS VSS
+ VDD VDD mem\[0\]\[3\] sky130_fd_sc_hd__edfxtp_1
Xmem\[0\]\[4\]$_DFFE_PP_ clknet_4_5_0_clk net7 _000_ VSS VSS
+ VDD VDD mem\[0\]\[4\] sky130_fd_sc_hd__edfxtp_1
Xmem\[0\]\[5\]$_DFFE_PP_ clknet_4_5_0_clk net8 _000_ VSS VSS
+ VDD VDD mem\[0\]\[5\] sky130_fd_sc_hd__edfxtp_1
Xmem\[0\]\[6\]$_DFFE_PP_ clknet_4_5_0_clk net9 _000_ VSS VSS
+ VDD VDD mem\[0\]\[6\] sky130_fd_sc_hd__edfxtp_1
Xmem\[0\]\[7\]$_DFFE_PP_ clknet_4_5_0_clk net10 _000_ VSS
+ VSS VDD VDD mem\[0\]\[7\] sky130_fd_sc_hd__edfxtp_1
Xmem\[10\]\[0\]$_DFFE_PP_ clknet_4_11_0_clk net3 _001_ VSS
+ VSS VDD VDD mem\[10\]\[0\] sky130_fd_sc_hd__edfxtp_1
Xmem\[10\]\[1\]$_DFFE_PP_ clknet_4_11_0_clk net4 _001_ VSS
+ VSS VDD VDD mem\[10\]\[1\] sky130_fd_sc_hd__edfxtp_1
Xmem\[10\]\[2\]$_DFFE_PP_ clknet_4_10_0_clk net5 _001_ VSS
+ VSS VDD VDD mem\[10\]\[2\] sky130_fd_sc_hd__edfxtp_1
Xmem\[10\]\[3\]$_DFFE_PP_ clknet_4_10_0_clk net6 _001_ VSS
+ VSS VDD VDD mem\[10\]\[3\] sky130_fd_sc_hd__edfxtp_1
Xmem\[10\]\[4\]$_DFFE_PP_ clknet_4_9_0_clk net7 _001_ VSS
+ VSS VDD VDD mem\[10\]\[4\] sky130_fd_sc_hd__edfxtp_1
Xmem\[10\]\[5\]$_DFFE_PP_ clknet_4_10_0_clk net8 _001_ VSS
+ VSS VDD VDD mem\[10\]\[5\] sky130_fd_sc_hd__edfxtp_1
Xmem\[10\]\[6\]$_DFFE_PP_ clknet_4_10_0_clk net9 _001_ VSS
+ VSS VDD VDD mem\[10\]\[6\] sky130_fd_sc_hd__edfxtp_1
Xmem\[10\]\[7\]$_DFFE_PP_ clknet_4_8_0_clk net10 _001_ VSS
+ VSS VDD VDD mem\[10\]\[7\] sky130_fd_sc_hd__edfxtp_1
Xmem\[11\]\[0\]$_DFFE_PP_ clknet_4_11_0_clk net3 _002_ VSS
+ VSS VDD VDD mem\[11\]\[0\] sky130_fd_sc_hd__edfxtp_1
Xmem\[11\]\[1\]$_DFFE_PP_ clknet_4_11_0_clk net4 _002_ VSS
+ VSS VDD VDD mem\[11\]\[1\] sky130_fd_sc_hd__edfxtp_1
Xmem\[11\]\[2\]$_DFFE_PP_ clknet_4_10_0_clk net5 _002_ VSS
+ VSS VDD VDD mem\[11\]\[2\] sky130_fd_sc_hd__edfxtp_1
Xmem\[11\]\[3\]$_DFFE_PP_ clknet_4_10_0_clk net6 _002_ VSS
+ VSS VDD VDD mem\[11\]\[3\] sky130_fd_sc_hd__edfxtp_1
Xmem\[11\]\[4\]$_DFFE_PP_ clknet_4_9_0_clk net7 _002_ VSS
+ VSS VDD VDD mem\[11\]\[4\] sky130_fd_sc_hd__edfxtp_1
Xmem\[11\]\[5\]$_DFFE_PP_ clknet_4_10_0_clk net8 _002_ VSS
+ VSS VDD VDD mem\[11\]\[5\] sky130_fd_sc_hd__edfxtp_1
Xmem\[11\]\[6\]$_DFFE_PP_ clknet_4_8_0_clk net9 _002_ VSS
+ VSS VDD VDD mem\[11\]\[6\] sky130_fd_sc_hd__edfxtp_1
Xmem\[11\]\[7\]$_DFFE_PP_ clknet_4_8_0_clk net10 _002_ VSS
+ VSS VDD VDD mem\[11\]\[7\] sky130_fd_sc_hd__edfxtp_1
Xmem\[12\]\[0\]$_DFFE_PP_ clknet_4_14_0_clk net3 _003_ VSS
+ VSS VDD VDD mem\[12\]\[0\] sky130_fd_sc_hd__edfxtp_1
Xmem\[12\]\[1\]$_DFFE_PP_ clknet_4_15_0_clk net4 _003_ VSS
+ VSS VDD VDD mem\[12\]\[1\] sky130_fd_sc_hd__edfxtp_1
Xmem\[12\]\[2\]$_DFFE_PP_ clknet_4_14_0_clk net5 _003_ VSS
+ VSS VDD VDD mem\[12\]\[2\] sky130_fd_sc_hd__edfxtp_1
Xmem\[12\]\[3\]$_DFFE_PP_ clknet_4_12_0_clk net6 _003_ VSS
+ VSS VDD VDD mem\[12\]\[3\] sky130_fd_sc_hd__edfxtp_1
Xmem\[12\]\[4\]$_DFFE_PP_ clknet_4_15_0_clk net7 _003_ VSS
+ VSS VDD VDD mem\[12\]\[4\] sky130_fd_sc_hd__edfxtp_1
Xmem\[12\]\[5\]$_DFFE_PP_ clknet_4_15_0_clk net8 _003_ VSS
+ VSS VDD VDD mem\[12\]\[5\] sky130_fd_sc_hd__edfxtp_1
Xmem\[12\]\[6\]$_DFFE_PP_ clknet_4_13_0_clk net9 _003_ VSS
+ VSS VDD VDD mem\[12\]\[6\] sky130_fd_sc_hd__edfxtp_1
Xmem\[12\]\[7\]$_DFFE_PP_ clknet_4_12_0_clk net10 _003_ VSS
+ VSS VDD VDD mem\[12\]\[7\] sky130_fd_sc_hd__edfxtp_1
Xmem\[13\]\[0\]$_DFFE_PP_ clknet_4_14_0_clk net3 _004_ VSS
+ VSS VDD VDD mem\[13\]\[0\] sky130_fd_sc_hd__edfxtp_1
Xmem\[13\]\[1\]$_DFFE_PP_ clknet_4_15_0_clk net4 _004_ VSS
+ VSS VDD VDD mem\[13\]\[1\] sky130_fd_sc_hd__edfxtp_1
Xmem\[13\]\[2\]$_DFFE_PP_ clknet_4_14_0_clk net5 _004_ VSS
+ VSS VDD VDD mem\[13\]\[2\] sky130_fd_sc_hd__edfxtp_1
Xmem\[13\]\[3\]$_DFFE_PP_ clknet_4_15_0_clk net6 _004_ VSS
+ VSS VDD VDD mem\[13\]\[3\] sky130_fd_sc_hd__edfxtp_1
Xmem\[13\]\[4\]$_DFFE_PP_ clknet_4_15_0_clk net7 _004_ VSS
+ VSS VDD VDD mem\[13\]\[4\] sky130_fd_sc_hd__edfxtp_1
Xmem\[13\]\[5\]$_DFFE_PP_ clknet_4_13_0_clk net8 _004_ VSS
+ VSS VDD VDD mem\[13\]\[5\] sky130_fd_sc_hd__edfxtp_1
Xmem\[13\]\[6\]$_DFFE_PP_ clknet_4_13_0_clk net9 _004_ VSS
+ VSS VDD VDD mem\[13\]\[6\] sky130_fd_sc_hd__edfxtp_1
Xmem\[13\]\[7\]$_DFFE_PP_ clknet_4_12_0_clk net10 _004_ VSS
+ VSS VDD VDD mem\[13\]\[7\] sky130_fd_sc_hd__edfxtp_1
Xmem\[14\]\[0\]$_DFFE_PP_ clknet_4_11_0_clk net3 _005_ VSS
+ VSS VDD VDD mem\[14\]\[0\] sky130_fd_sc_hd__edfxtp_1
Xmem\[14\]\[1\]$_DFFE_PP_ clknet_4_11_0_clk net4 _005_ VSS
+ VSS VDD VDD mem\[14\]\[1\] sky130_fd_sc_hd__edfxtp_1
Xmem\[14\]\[2\]$_DFFE_PP_ clknet_4_10_0_clk net5 _005_ VSS
+ VSS VDD VDD mem\[14\]\[2\] sky130_fd_sc_hd__edfxtp_1
Xmem\[14\]\[3\]$_DFFE_PP_ clknet_4_10_0_clk net6 _005_ VSS
+ VSS VDD VDD mem\[14\]\[3\] sky130_fd_sc_hd__edfxtp_1
Xmem\[14\]\[4\]$_DFFE_PP_ clknet_4_9_0_clk net7 _005_ VSS
+ VSS VDD VDD mem\[14\]\[4\] sky130_fd_sc_hd__edfxtp_1
Xmem\[14\]\[5\]$_DFFE_PP_ clknet_4_10_0_clk net8 _005_ VSS
+ VSS VDD VDD mem\[14\]\[5\] sky130_fd_sc_hd__edfxtp_1
Xmem\[14\]\[6\]$_DFFE_PP_ clknet_4_8_0_clk net9 _005_ VSS
+ VSS VDD VDD mem\[14\]\[6\] sky130_fd_sc_hd__edfxtp_1
Xmem\[14\]\[7\]$_DFFE_PP_ clknet_4_9_0_clk net10 _005_ VSS
+ VSS VDD VDD mem\[14\]\[7\] sky130_fd_sc_hd__edfxtp_1
Xmem\[15\]\[0\]$_DFFE_PP_ clknet_4_11_0_clk net3 _006_ VSS
+ VSS VDD VDD mem\[15\]\[0\] sky130_fd_sc_hd__edfxtp_1
Xmem\[15\]\[1\]$_DFFE_PP_ clknet_4_11_0_clk net4 _006_ VSS
+ VSS VDD VDD mem\[15\]\[1\] sky130_fd_sc_hd__edfxtp_1
Xmem\[15\]\[2\]$_DFFE_PP_ clknet_4_10_0_clk net5 _006_ VSS
+ VSS VDD VDD mem\[15\]\[2\] sky130_fd_sc_hd__edfxtp_1
Xmem\[15\]\[3\]$_DFFE_PP_ clknet_4_10_0_clk net6 _006_ VSS
+ VSS VDD VDD mem\[15\]\[3\] sky130_fd_sc_hd__edfxtp_1
Xmem\[15\]\[4\]$_DFFE_PP_ clknet_4_9_0_clk net7 _006_ VSS
+ VSS VDD VDD mem\[15\]\[4\] sky130_fd_sc_hd__edfxtp_1
Xmem\[15\]\[5\]$_DFFE_PP_ clknet_4_10_0_clk net8 _006_ VSS
+ VSS VDD VDD mem\[15\]\[5\] sky130_fd_sc_hd__edfxtp_1
Xmem\[15\]\[6\]$_DFFE_PP_ clknet_4_10_0_clk net9 _006_ VSS
+ VSS VDD VDD mem\[15\]\[6\] sky130_fd_sc_hd__edfxtp_1
Xmem\[15\]\[7\]$_DFFE_PP_ clknet_4_8_0_clk net10 _006_ VSS
+ VSS VDD VDD mem\[15\]\[7\] sky130_fd_sc_hd__edfxtp_1
Xmem\[1\]\[0\]$_DFFE_PP_ clknet_4_6_0_clk net3 _007_ VSS VSS
+ VDD VDD mem\[1\]\[0\] sky130_fd_sc_hd__edfxtp_1
Xmem\[1\]\[1\]$_DFFE_PP_ clknet_4_7_0_clk net4 _007_ VSS VSS
+ VDD VDD mem\[1\]\[1\] sky130_fd_sc_hd__edfxtp_1
Xmem\[1\]\[2\]$_DFFE_PP_ clknet_4_3_0_clk net5 _007_ VSS VSS
+ VDD VDD mem\[1\]\[2\] sky130_fd_sc_hd__edfxtp_1
Xmem\[1\]\[3\]$_DFFE_PP_ clknet_4_4_0_clk net6 _007_ VSS VSS
+ VDD VDD mem\[1\]\[3\] sky130_fd_sc_hd__edfxtp_1
Xmem\[1\]\[4\]$_DFFE_PP_ clknet_4_5_0_clk net7 _007_ VSS VSS
+ VDD VDD mem\[1\]\[4\] sky130_fd_sc_hd__edfxtp_1
Xmem\[1\]\[5\]$_DFFE_PP_ clknet_4_7_0_clk net8 _007_ VSS VSS
+ VDD VDD mem\[1\]\[5\] sky130_fd_sc_hd__edfxtp_1
Xmem\[1\]\[6\]$_DFFE_PP_ clknet_4_5_0_clk net9 _007_ VSS VSS
+ VDD VDD mem\[1\]\[6\] sky130_fd_sc_hd__edfxtp_1
Xmem\[1\]\[7\]$_DFFE_PP_ clknet_4_5_0_clk net10 _007_ VSS
+ VSS VDD VDD mem\[1\]\[7\] sky130_fd_sc_hd__edfxtp_1
Xmem\[2\]\[0\]$_DFFE_PP_ clknet_4_9_0_clk net3 _008_ VSS VSS
+ VDD VDD mem\[2\]\[0\] sky130_fd_sc_hd__edfxtp_1
Xmem\[2\]\[1\]$_DFFE_PP_ clknet_4_3_0_clk net4 _008_ VSS VSS
+ VDD VDD mem\[2\]\[1\] sky130_fd_sc_hd__edfxtp_1
Xmem\[2\]\[2\]$_DFFE_PP_ clknet_4_9_0_clk net5 _008_ VSS VSS
+ VDD VDD mem\[2\]\[2\] sky130_fd_sc_hd__edfxtp_1
Xmem\[2\]\[3\]$_DFFE_PP_ clknet_4_8_0_clk net6 _008_ VSS VSS
+ VDD VDD mem\[2\]\[3\] sky130_fd_sc_hd__edfxtp_1
Xmem\[2\]\[4\]$_DFFE_PP_ clknet_4_1_0_clk net7 _008_ VSS VSS
+ VDD VDD mem\[2\]\[4\] sky130_fd_sc_hd__edfxtp_1
Xmem\[2\]\[5\]$_DFFE_PP_ clknet_4_2_0_clk net8 _008_ VSS VSS
+ VDD VDD mem\[2\]\[5\] sky130_fd_sc_hd__edfxtp_1
Xmem\[2\]\[6\]$_DFFE_PP_ clknet_4_0_0_clk net9 _008_ VSS VSS
+ VDD VDD mem\[2\]\[6\] sky130_fd_sc_hd__edfxtp_1
Xmem\[2\]\[7\]$_DFFE_PP_ clknet_4_1_0_clk net10 _008_ VSS
+ VSS VDD VDD mem\[2\]\[7\] sky130_fd_sc_hd__edfxtp_1
Xmem\[3\]\[0\]$_DFFE_PP_ clknet_4_9_0_clk net3 _009_ VSS VSS
+ VDD VDD mem\[3\]\[0\] sky130_fd_sc_hd__edfxtp_1
Xmem\[3\]\[1\]$_DFFE_PP_ clknet_4_6_0_clk net4 _009_ VSS VSS
+ VDD VDD mem\[3\]\[1\] sky130_fd_sc_hd__edfxtp_1
Xmem\[3\]\[2\]$_DFFE_PP_ clknet_4_2_0_clk net5 _009_ VSS VSS
+ VDD VDD mem\[3\]\[2\] sky130_fd_sc_hd__edfxtp_1
Xmem\[3\]\[3\]$_DFFE_PP_ clknet_4_2_0_clk net6 _009_ VSS VSS
+ VDD VDD mem\[3\]\[3\] sky130_fd_sc_hd__edfxtp_1
Xmem\[3\]\[4\]$_DFFE_PP_ clknet_4_0_0_clk net7 _009_ VSS VSS
+ VDD VDD mem\[3\]\[4\] sky130_fd_sc_hd__edfxtp_1
Xmem\[3\]\[5\]$_DFFE_PP_ clknet_4_2_0_clk net8 _009_ VSS VSS
+ VDD VDD mem\[3\]\[5\] sky130_fd_sc_hd__edfxtp_1
Xmem\[3\]\[6\]$_DFFE_PP_ clknet_4_1_0_clk net9 _009_ VSS VSS
+ VDD VDD mem\[3\]\[6\] sky130_fd_sc_hd__edfxtp_1
Xmem\[3\]\[7\]$_DFFE_PP_ clknet_4_1_0_clk net10 _009_ VSS
+ VSS VDD VDD mem\[3\]\[7\] sky130_fd_sc_hd__edfxtp_1
Xmem\[4\]\[0\]$_DFFE_PP_ clknet_4_7_0_clk net3 _010_ VSS VSS
+ VDD VDD mem\[4\]\[0\] sky130_fd_sc_hd__edfxtp_1
Xmem\[4\]\[1\]$_DFFE_PP_ clknet_4_7_0_clk net4 _010_ VSS VSS
+ VDD VDD mem\[4\]\[1\] sky130_fd_sc_hd__edfxtp_1
Xmem\[4\]\[2\]$_DFFE_PP_ clknet_4_6_0_clk net5 _010_ VSS VSS
+ VDD VDD mem\[4\]\[2\] sky130_fd_sc_hd__edfxtp_1
Xmem\[4\]\[3\]$_DFFE_PP_ clknet_4_4_0_clk net6 _010_ VSS VSS
+ VDD VDD mem\[4\]\[3\] sky130_fd_sc_hd__edfxtp_1
Xmem\[4\]\[4\]$_DFFE_PP_ clknet_4_5_0_clk net7 _010_ VSS VSS
+ VDD VDD mem\[4\]\[4\] sky130_fd_sc_hd__edfxtp_1
Xmem\[4\]\[5\]$_DFFE_PP_ clknet_4_7_0_clk net8 _010_ VSS VSS
+ VDD VDD mem\[4\]\[5\] sky130_fd_sc_hd__edfxtp_1
Xmem\[4\]\[6\]$_DFFE_PP_ clknet_4_5_0_clk net9 _010_ VSS VSS
+ VDD VDD mem\[4\]\[6\] sky130_fd_sc_hd__edfxtp_1
Xmem\[4\]\[7\]$_DFFE_PP_ clknet_4_5_0_clk net10 _010_ VSS
+ VSS VDD VDD mem\[4\]\[7\] sky130_fd_sc_hd__edfxtp_1
Xmem\[5\]\[0\]$_DFFE_PP_ clknet_4_7_0_clk net3 _011_ VSS VSS
+ VDD VDD mem\[5\]\[0\] sky130_fd_sc_hd__edfxtp_1
Xmem\[5\]\[1\]$_DFFE_PP_ clknet_4_7_0_clk net4 _011_ VSS VSS
+ VDD VDD mem\[5\]\[1\] sky130_fd_sc_hd__edfxtp_1
Xmem\[5\]\[2\]$_DFFE_PP_ clknet_4_6_0_clk net5 _011_ VSS VSS
+ VDD VDD mem\[5\]\[2\] sky130_fd_sc_hd__edfxtp_1
Xmem\[5\]\[3\]$_DFFE_PP_ clknet_4_6_0_clk net6 _011_ VSS VSS
+ VDD VDD mem\[5\]\[3\] sky130_fd_sc_hd__edfxtp_1
Xmem\[5\]\[4\]$_DFFE_PP_ clknet_4_5_0_clk net7 _011_ VSS VSS
+ VDD VDD mem\[5\]\[4\] sky130_fd_sc_hd__edfxtp_1
Xmem\[5\]\[5\]$_DFFE_PP_ clknet_4_7_0_clk net8 _011_ VSS VSS
+ VDD VDD mem\[5\]\[5\] sky130_fd_sc_hd__edfxtp_1
Xmem\[5\]\[6\]$_DFFE_PP_ clknet_4_5_0_clk net9 _011_ VSS VSS
+ VDD VDD mem\[5\]\[6\] sky130_fd_sc_hd__edfxtp_1
Xmem\[5\]\[7\]$_DFFE_PP_ clknet_4_4_0_clk net10 _011_ VSS
+ VSS VDD VDD mem\[5\]\[7\] sky130_fd_sc_hd__edfxtp_1
Xmem\[6\]\[0\]$_DFFE_PP_ clknet_4_3_0_clk net3 _012_ VSS VSS
+ VDD VDD mem\[6\]\[0\] sky130_fd_sc_hd__edfxtp_1
Xmem\[6\]\[1\]$_DFFE_PP_ clknet_4_3_0_clk net4 _012_ VSS VSS
+ VDD VDD mem\[6\]\[1\] sky130_fd_sc_hd__edfxtp_1
Xmem\[6\]\[2\]$_DFFE_PP_ clknet_4_2_0_clk net5 _012_ VSS VSS
+ VDD VDD mem\[6\]\[2\] sky130_fd_sc_hd__edfxtp_1
Xmem\[6\]\[3\]$_DFFE_PP_ clknet_4_2_0_clk net6 _012_ VSS VSS
+ VDD VDD mem\[6\]\[3\] sky130_fd_sc_hd__edfxtp_1
Xmem\[6\]\[4\]$_DFFE_PP_ clknet_4_0_0_clk net7 _012_ VSS VSS
+ VDD VDD mem\[6\]\[4\] sky130_fd_sc_hd__edfxtp_1
Xmem\[6\]\[5\]$_DFFE_PP_ clknet_4_2_0_clk net8 _012_ VSS VSS
+ VDD VDD mem\[6\]\[5\] sky130_fd_sc_hd__edfxtp_1
Xmem\[6\]\[6\]$_DFFE_PP_ clknet_4_1_0_clk net9 _012_ VSS VSS
+ VDD VDD mem\[6\]\[6\] sky130_fd_sc_hd__edfxtp_1
Xmem\[6\]\[7\]$_DFFE_PP_ clknet_4_1_0_clk net10 _012_ VSS
+ VSS VDD VDD mem\[6\]\[7\] sky130_fd_sc_hd__edfxtp_1
Xmem\[7\]\[0\]$_DFFE_PP_ clknet_4_9_0_clk net3 _013_ VSS VSS
+ VDD VDD mem\[7\]\[0\] sky130_fd_sc_hd__edfxtp_1
Xmem\[7\]\[1\]$_DFFE_PP_ clknet_4_3_0_clk net4 _013_ VSS VSS
+ VDD VDD mem\[7\]\[1\] sky130_fd_sc_hd__edfxtp_1
Xmem\[7\]\[2\]$_DFFE_PP_ clknet_4_2_0_clk net5 _013_ VSS VSS
+ VDD VDD mem\[7\]\[2\] sky130_fd_sc_hd__edfxtp_1
Xmem\[7\]\[3\]$_DFFE_PP_ clknet_4_8_0_clk net6 _013_ VSS VSS
+ VDD VDD mem\[7\]\[3\] sky130_fd_sc_hd__edfxtp_1
Xmem\[7\]\[4\]$_DFFE_PP_ clknet_4_0_0_clk net7 _013_ VSS VSS
+ VDD VDD mem\[7\]\[4\] sky130_fd_sc_hd__edfxtp_1
Xmem\[7\]\[5\]$_DFFE_PP_ clknet_4_2_0_clk net8 _013_ VSS VSS
+ VDD VDD mem\[7\]\[5\] sky130_fd_sc_hd__edfxtp_1
Xmem\[7\]\[6\]$_DFFE_PP_ clknet_4_0_0_clk net9 _013_ VSS VSS
+ VDD VDD mem\[7\]\[6\] sky130_fd_sc_hd__edfxtp_1
Xmem\[7\]\[7\]$_DFFE_PP_ clknet_4_3_0_clk net10 _013_ VSS
+ VSS VDD VDD mem\[7\]\[7\] sky130_fd_sc_hd__edfxtp_1
Xmem\[8\]\[0\]$_DFFE_PP_ clknet_4_14_0_clk net3 _014_ VSS
+ VSS VDD VDD mem\[8\]\[0\] sky130_fd_sc_hd__edfxtp_1
Xmem\[8\]\[1\]$_DFFE_PP_ clknet_4_14_0_clk net4 _014_ VSS
+ VSS VDD VDD mem\[8\]\[1\] sky130_fd_sc_hd__edfxtp_1
Xmem\[8\]\[2\]$_DFFE_PP_ clknet_4_14_0_clk net5 _014_ VSS
+ VSS VDD VDD mem\[8\]\[2\] sky130_fd_sc_hd__edfxtp_1
Xmem\[8\]\[3\]$_DFFE_PP_ clknet_4_12_0_clk net6 _014_ VSS
+ VSS VDD VDD mem\[8\]\[3\] sky130_fd_sc_hd__edfxtp_1
Xmem\[8\]\[4\]$_DFFE_PP_ clknet_4_15_0_clk net7 _014_ VSS
+ VSS VDD VDD mem\[8\]\[4\] sky130_fd_sc_hd__edfxtp_1
Xmem\[8\]\[5\]$_DFFE_PP_ clknet_4_13_0_clk net8 _014_ VSS
+ VSS VDD VDD mem\[8\]\[5\] sky130_fd_sc_hd__edfxtp_1
Xmem\[8\]\[6\]$_DFFE_PP_ clknet_4_13_0_clk net9 _014_ VSS
+ VSS VDD VDD mem\[8\]\[6\] sky130_fd_sc_hd__edfxtp_1
Xmem\[8\]\[7\]$_DFFE_PP_ clknet_4_12_0_clk net10 _014_ VSS
+ VSS VDD VDD mem\[8\]\[7\] sky130_fd_sc_hd__edfxtp_1
Xmem\[9\]\[0\]$_DFFE_PP_ clknet_4_14_0_clk net3 _015_ VSS
+ VSS VDD VDD mem\[9\]\[0\] sky130_fd_sc_hd__edfxtp_1
Xmem\[9\]\[1\]$_DFFE_PP_ clknet_4_15_0_clk net4 _015_ VSS
+ VSS VDD VDD mem\[9\]\[1\] sky130_fd_sc_hd__edfxtp_1
Xmem\[9\]\[2\]$_DFFE_PP_ clknet_4_15_0_clk net5 _015_ VSS
+ VSS VDD VDD mem\[9\]\[2\] sky130_fd_sc_hd__edfxtp_1
Xmem\[9\]\[3\]$_DFFE_PP_ clknet_4_11_0_clk net6 _015_ VSS
+ VSS VDD VDD mem\[9\]\[3\] sky130_fd_sc_hd__edfxtp_1
Xmem\[9\]\[4\]$_DFFE_PP_ clknet_4_15_0_clk net7 _015_ VSS
+ VSS VDD VDD mem\[9\]\[4\] sky130_fd_sc_hd__edfxtp_1
Xmem\[9\]\[5\]$_DFFE_PP_ clknet_4_13_0_clk net8 _015_ VSS
+ VSS VDD VDD mem\[9\]\[5\] sky130_fd_sc_hd__edfxtp_1
Xmem\[9\]\[6\]$_DFFE_PP_ clknet_4_13_0_clk net9 _015_ VSS
+ VSS VDD VDD mem\[9\]\[6\] sky130_fd_sc_hd__edfxtp_1
Xmem\[9\]\[7\]$_DFFE_PP_ clknet_4_12_0_clk net10 _015_ VSS
+ VSS VDD VDD mem\[9\]\[7\] sky130_fd_sc_hd__edfxtp_1
Xrd_ptr\[0\]$_DFFE_PN0P_ clknet_4_4_0_clk _019_ net1 VSS VSS
+ VDD VDD rd_ptr\[0\] sky130_fd_sc_hd__dfrtp_1
Xrd_ptr\[1\]$_DFFE_PN0P_ clknet_4_4_0_clk _020_ net1 VSS VSS
+ VDD VDD rd_ptr\[1\] sky130_fd_sc_hd__dfrtp_1
Xrd_ptr\[2\]$_DFFE_PN0P_ clknet_4_4_0_clk _021_ net1 VSS VSS
+ VDD VDD rd_ptr\[2\] sky130_fd_sc_hd__dfrtp_1
Xrd_ptr\[3\]$_DFFE_PN0P_ clknet_4_4_0_clk _022_ net1 VSS VSS
+ VDD VDD rd_ptr\[3\] sky130_fd_sc_hd__dfrtp_1
Xrd_ptr\[4\]$_DFFE_PN0P_ clknet_4_1_0_clk _023_ net1 VSS VSS
+ VDD VDD rd_ptr\[4\] sky130_fd_sc_hd__dfrtp_1
Xwr_ptr\[0\]$_DFFE_PN0P_ clknet_4_1_0_clk _024_ net1 VSS VSS
+ VDD VDD wr_ptr\[0\] sky130_fd_sc_hd__dfrtp_1
Xwr_ptr\[1\]$_DFFE_PN0P_ clknet_4_4_0_clk _025_ net1 VSS VSS
+ VDD VDD wr_ptr\[1\] sky130_fd_sc_hd__dfrtp_2
Xwr_ptr\[2\]$_DFFE_PN0P_ clknet_4_0_0_clk _026_ net1 VSS VSS
+ VDD VDD wr_ptr\[2\] sky130_fd_sc_hd__dfrtp_2
Xwr_ptr\[3\]$_DFFE_PN0P_ clknet_4_1_0_clk _027_ net1 VSS VSS
+ VDD VDD wr_ptr\[3\] sky130_fd_sc_hd__dfrtp_2
Xwr_ptr\[4\]$_DFFE_PN0P_ clknet_4_0_0_clk _028_ net1 VSS VSS
+ VDD VDD wr_ptr\[4\] sky130_fd_sc_hd__dfrtp_1
Xhold1 net30 VSS VSS VDD VDD net1 sky130_fd_sc_hd__clkbuf_4
XTAP_TAPCELL_ROW_0_0 VSS VDD sky130_fd_sc_hd__tapvpwrvgnd_1
XTAP_TAPCELL_ROW_0_1 VSS VDD sky130_fd_sc_hd__tapvpwrvgnd_1
XTAP_TAPCELL_ROW_0_2 VSS VDD sky130_fd_sc_hd__tapvpwrvgnd_1
XTAP_TAPCELL_ROW_0_3 VSS VDD sky130_fd_sc_hd__tapvpwrvgnd_1
XTAP_TAPCELL_ROW_0_4 VSS VDD sky130_fd_sc_hd__tapvpwrvgnd_1
XTAP_TAPCELL_ROW_0_5 VSS VDD sky130_fd_sc_hd__tapvpwrvgnd_1
XTAP_TAPCELL_ROW_0_6 VSS VDD sky130_fd_sc_hd__tapvpwrvgnd_1
XTAP_TAPCELL_ROW_1_7 VSS VDD sky130_fd_sc_hd__tapvpwrvgnd_1
XTAP_TAPCELL_ROW_1_8 VSS VDD sky130_fd_sc_hd__tapvpwrvgnd_1
XTAP_TAPCELL_ROW_1_9 VSS VDD sky130_fd_sc_hd__tapvpwrvgnd_1
XTAP_TAPCELL_ROW_2_10 VSS VDD sky130_fd_sc_hd__tapvpwrvgnd_1
XTAP_TAPCELL_ROW_2_11 VSS VDD sky130_fd_sc_hd__tapvpwrvgnd_1
XTAP_TAPCELL_ROW_2_12 VSS VDD sky130_fd_sc_hd__tapvpwrvgnd_1
XTAP_TAPCELL_ROW_2_13 VSS VDD sky130_fd_sc_hd__tapvpwrvgnd_1
XTAP_TAPCELL_ROW_3_14 VSS VDD sky130_fd_sc_hd__tapvpwrvgnd_1
XTAP_TAPCELL_ROW_3_15 VSS VDD sky130_fd_sc_hd__tapvpwrvgnd_1
XTAP_TAPCELL_ROW_3_16 VSS VDD sky130_fd_sc_hd__tapvpwrvgnd_1
XTAP_TAPCELL_ROW_4_17 VSS VDD sky130_fd_sc_hd__tapvpwrvgnd_1
XTAP_TAPCELL_ROW_4_18 VSS VDD sky130_fd_sc_hd__tapvpwrvgnd_1
XTAP_TAPCELL_ROW_4_19 VSS VDD sky130_fd_sc_hd__tapvpwrvgnd_1
XTAP_TAPCELL_ROW_4_20 VSS VDD sky130_fd_sc_hd__tapvpwrvgnd_1
XTAP_TAPCELL_ROW_5_21 VSS VDD sky130_fd_sc_hd__tapvpwrvgnd_1
XTAP_TAPCELL_ROW_5_22 VSS VDD sky130_fd_sc_hd__tapvpwrvgnd_1
XTAP_TAPCELL_ROW_5_23 VSS VDD sky130_fd_sc_hd__tapvpwrvgnd_1
XTAP_TAPCELL_ROW_6_24 VSS VDD sky130_fd_sc_hd__tapvpwrvgnd_1
XTAP_TAPCELL_ROW_6_25 VSS VDD sky130_fd_sc_hd__tapvpwrvgnd_1
XTAP_TAPCELL_ROW_6_26 VSS VDD sky130_fd_sc_hd__tapvpwrvgnd_1
XTAP_TAPCELL_ROW_6_27 VSS VDD sky130_fd_sc_hd__tapvpwrvgnd_1
XTAP_TAPCELL_ROW_7_28 VSS VDD sky130_fd_sc_hd__tapvpwrvgnd_1
XTAP_TAPCELL_ROW_7_29 VSS VDD sky130_fd_sc_hd__tapvpwrvgnd_1
XTAP_TAPCELL_ROW_7_30 VSS VDD sky130_fd_sc_hd__tapvpwrvgnd_1
XTAP_TAPCELL_ROW_8_31 VSS VDD sky130_fd_sc_hd__tapvpwrvgnd_1
XTAP_TAPCELL_ROW_8_32 VSS VDD sky130_fd_sc_hd__tapvpwrvgnd_1
XTAP_TAPCELL_ROW_8_33 VSS VDD sky130_fd_sc_hd__tapvpwrvgnd_1
XTAP_TAPCELL_ROW_8_34 VSS VDD sky130_fd_sc_hd__tapvpwrvgnd_1
XTAP_TAPCELL_ROW_9_35 VSS VDD sky130_fd_sc_hd__tapvpwrvgnd_1
XTAP_TAPCELL_ROW_9_36 VSS VDD sky130_fd_sc_hd__tapvpwrvgnd_1
XTAP_TAPCELL_ROW_9_37 VSS VDD sky130_fd_sc_hd__tapvpwrvgnd_1
XTAP_TAPCELL_ROW_10_38 VSS VDD sky130_fd_sc_hd__tapvpwrvgnd_1
XTAP_TAPCELL_ROW_10_39 VSS VDD sky130_fd_sc_hd__tapvpwrvgnd_1
XTAP_TAPCELL_ROW_10_40 VSS VDD sky130_fd_sc_hd__tapvpwrvgnd_1