
* cell parameterized_pwm
* pin div[2]
* pin div[3]
* pin div[6]
* pin div[1]
* pin div[0]
* pin rst_n
* pin NWELL
* pin PWELL
* pin duty[1]
* pin duty[0]
* pin duty[2]
* pin duty[3]
* pin div[15]
* pin pwm_out
* pin clk
* pin div[5]
* pin div[13]
* pin div[12]
* pin div[4]
* pin duty[4]
* pin div[7]
* pin div[14]
* pin div[10]
* pin div[8]
* pin div[11]
* pin div[9]
* pin duty[5]
* pin duty[6]
* pin duty[7]
* pin enable
.SUBCKT parameterized_pwm 1 2 3 4 5 6 8 9 47 54 117 156 201 223 230 232 233 234
+ 235 249 271 272 285 293 305 317 341 342 343 345
* net 1 div[2]
* net 2 div[3]
* net 3 div[6]
* net 4 div[1]
* net 5 div[0]
* net 6 rst_n
* net 8 NWELL
* net 9 PWELL
* net 47 duty[1]
* net 54 duty[0]
* net 117 duty[2]
* net 156 duty[3]
* net 201 div[15]
* net 223 pwm_out
* net 230 clk
* net 232 div[5]
* net 233 div[13]
* net 234 div[12]
* net 235 div[4]
* net 249 duty[4]
* net 271 div[7]
* net 272 div[14]
* net 285 div[10]
* net 293 div[8]
* net 305 div[11]
* net 317 div[9]
* net 341 duty[5]
* net 342 duty[6]
* net 343 duty[7]
* net 345 enable
* cell instance $2 r0 *1 28.69,1.4
X$2 1 9 8 18 BUF_X1
* cell instance $12 r0 *1 31.92,1.4
X$12 2 9 8 16 BUF_X1
* cell instance $15 m0 *1 32.68,4.2
X$15 3 9 8 10 BUF_X1
* cell instance $20 r0 *1 33.06,1.4
X$20 4 9 8 7 BUF_X1
* cell instance $26 r0 *1 34.01,1.4
X$26 5 9 8 11 BUF_X1
* cell instance $33 m0 *1 41.8,18.2
X$33 6 9 8 61 BUF_X2
* cell instance $39 r0 *1 32.11,12.6
X$39 16 11 7 10 8 12 9 NOR4_X2
* cell instance $41 m0 *1 32.68,15.4
X$41 7 9 8 20 INV_X1
* cell instance $42 r0 *1 17.29,35
X$42 304 319 295 9 8 106 OR3_X1
* cell instance $44 r0 *1 18.24,35
X$44 108 295 304 9 8 290 NOR3_X1
* cell instance $47 m0 *1 17.29,37.8
X$47 319 290 8 9 320 XNOR2_X1
* cell instance $48 m0 *1 18.43,37.8
X$48 321 9 8 304 INV_X1
* cell instance $49 m0 *1 18.81,37.8
X$49 304 310 8 9 322 XNOR2_X1
* cell instance $51 r0 *1 19.38,35
X$51 295 145 9 8 310 NOR2_X1
* cell instance $55 m0 *1 19.95,37.8
X$55 200 322 8 9 338 AND2_X1
* cell instance $59 r0 *1 25.84,35
X$59 296 151 102 275 9 295 8 NAND4_X2
* cell instance $62 m0 *1 26.03,37.8
X$62 108 326 9 8 329 NOR2_X1
* cell instance $63 m0 *1 26.6,37.8
X$63 296 151 102 9 8 326 NAND3_X1
* cell instance $65 r0 *1 28.12,35
X$65 296 152 8 9 315 XNOR2_X1
* cell instance $67 r0 *1 29.26,35
X$67 200 315 8 9 323 AND2_X1
* cell instance $71 m0 *1 28.5,37.8
X$71 9 323 45 349 296 8 DFF_X2
* cell instance $75 r0 *1 31.35,35
X$75 297 296 282 8 9 277 HA_X1
* cell instance $89 r0 *1 59.85,35
X$89 291 312 298 8 9 142 AND3_X1
* cell instance $90 r0 *1 59.47,35
X$90 291 9 8 301 INV_X1
* cell instance $91 r0 *1 60.8,35
X$91 301 311 300 8 173 9 OAI21_X1
* cell instance $92 r0 *1 61.56,35
X$92 280 313 291 8 9 299 HA_X1
* cell instance $93 r0 *1 63.46,35
X$93 299 9 8 300 INV_X1
* cell instance $97 m0 *1 60.42,37.8
X$97 281 333 298 8 9 330 HA_X1
* cell instance $98 m0 *1 62.32,37.8
X$98 314 332 312 8 9 331 HA_X1
* cell instance $102 r0 *1 23.37,21
X$102 49 70 8 9 44 AND2_X1
* cell instance $104 r0 *1 24.13,21
X$104 49 73 8 9 50 AND2_X1
* cell instance $105 r0 *1 24.89,21
X$105 22 59 8 9 73 XNOR2_X1
* cell instance $106 r0 *1 26.03,21
X$106 38 75 8 9 70 XNOR2_X1
* cell instance $112 r0 *1 41.8,21
X$112 9 74 46 352 67 8 DFF_X2
* cell instance $115 r0 *1 47.12,21
X$115 72 60 71 9 8 56 MUX2_X1
* cell instance $116 r0 *1 48.45,21
X$116 61 51 8 9 71 AND2_X1
* cell instance $125 r0 *1 3.61,21
X$125 9 359 58 69 45 8 DFF_X1
* cell instance $126 r0 *1 6.84,21
X$126 49 101 8 9 69 AND2_X1
* cell instance $133 m0 *1 4.37,23.8
X$133 49 84 8 9 65 AND2_X1
* cell instance $134 m0 *1 5.13,23.8
X$134 57 85 9 8 84 XOR2_X1
* cell instance $137 m0 *1 9.5,23.8
X$137 9 357 76 86 45 8 DFF_X1
* cell instance $141 m0 *1 25.08,23.8
X$141 78 22 9 8 79 NAND2_X1
* cell instance $143 m0 *1 26.03,23.8
X$143 38 22 78 8 9 89 AND3_X1
* cell instance $146 m0 *1 27.55,23.8
X$146 38 98 102 26 9 59 8 NAND4_X2
* cell instance $151 m0 *1 33.63,23.8
X$151 9 91 46 15 98 8 DFF_X2
* cell instance $152 m0 *1 37.24,23.8
X$152 9 93 46 351 26 8 DFF_X2
* cell instance $156 m0 *1 42.94,23.8
X$156 100 60 92 9 8 74 MUX2_X1
* cell instance $157 m0 *1 44.27,23.8
X$157 61 67 8 9 92 AND2_X1
* cell instance $160 m0 *1 46.74,23.8
X$160 61 90 8 9 72 AND2_X1
* cell instance $161 m0 *1 47.5,23.8
X$161 67 51 90 8 9 88 HA_X1
* cell instance $166 m0 *1 60.42,23.8
X$166 52 62 8 9 82 AND2_X1
* cell instance $167 r0 *1 62.89,21
X$167 68 9 8 64 INV_X1
* cell instance $168 r0 *1 60.99,21
X$168 67 66 62 8 9 63 HA_X1
* cell instance $170 r0 *1 63.46,21
X$170 53 9 8 66 INV_X1
* cell instance $175 m0 *1 61.75,23.8
X$175 52 9 8 87 INV_X1
* cell instance $177 m0 *1 62.32,23.8
X$177 87 63 64 8 83 9 OAI21_X1
* cell instance $189 m0 *1 1.33,32.2
X$189 234 9 8 203 BUF_X1
* cell instance $191 m0 *1 2.66,32.2
X$191 233 9 8 204 BUF_X1
* cell instance $193 m0 *1 3.99,32.2
X$193 201 9 8 236 BUF_X1
* cell instance $194 r0 *1 4.18,29.4
X$194 49 165 8 9 250 AND2_X1
* cell instance $196 r0 *1 4.94,29.4
X$196 49 181 8 9 202 AND2_X1
* cell instance $200 m0 *1 5.13,32.2
X$200 236 203 204 273 9 8 237 NOR4_X1
* cell instance $201 r0 *1 6.27,29.4
X$201 204 9 8 166 INV_X1
* cell instance $203 r0 *1 6.65,29.4
X$203 225 57 193 8 9 192 HA_X1
* cell instance $205 r0 *1 8.74,29.4
X$205 168 193 167 182 8 9 184 AND4_X1
* cell instance $207 r0 *1 10.07,29.4
X$207 9 206 195 194 150 8 AOI21_X4
* cell instance $210 m0 *1 6.84,32.2
X$210 203 9 8 225 INV_X1
* cell instance $213 m0 *1 9.12,32.2
X$213 287 9 8 252 INV_X1
* cell instance $214 m0 *1 9.5,32.2
X$214 252 76 182 8 9 176 HA_X1
* cell instance $215 m0 *1 11.4,32.2
X$215 236 9 8 205 INV_X1
* cell instance $218 r0 *1 13.11,29.4
X$218 206 183 184 207 227 8 9 AOI211_X2
* cell instance $219 r0 *1 14.82,29.4
X$219 184 207 8 9 196 AND2_X1
* cell instance $220 r0 *1 15.58,29.4
X$220 9 183 196 171 206 146 8 NOR4_X4
* cell instance $224 m0 *1 14.25,32.2
X$224 184 253 8 9 211 AND2_X2
* cell instance $228 m0 *1 17.29,32.2
X$228 292 237 12 254 8 9 171 AND4_X2
* cell instance $230 m0 *1 18.81,32.2
X$230 238 251 256 18 9 8 254 NOR4_X1
* cell instance $231 r0 *1 20.33,29.4
X$231 200 9 8 49 BUF_X2
* cell instance $232 r0 *1 19.38,29.4
X$232 186 9 8 45 CLKBUF_X3
* cell instance $233 r0 *1 21.09,29.4
X$233 9 361 228 169 45 8 DFF_X1
* cell instance $235 r0 *1 25.08,29.4
X$235 228 9 8 151 CLKBUF_X2
* cell instance $236 r0 *1 25.84,29.4
X$236 208 78 199 8 9 209 HA_X1
* cell instance $239 m0 *1 19.76,32.2
X$239 256 9 8 257 INV_X1
* cell instance $243 m0 *1 24.32,32.2
X$243 257 228 185 8 9 258 HA_X1
* cell instance $244 m0 *1 26.22,32.2
X$244 251 9 8 208 INV_X1
* cell instance $247 m0 *1 27.55,32.2
X$247 258 185 209 9 260 8 AOI21_X1
* cell instance $250 r0 *1 29.64,29.4
X$250 211 199 185 239 9 197 8 NAND4_X2
* cell instance $251 r0 *1 31.54,29.4
X$251 210 211 9 8 198 NAND2_X1
* cell instance $255 m0 *1 30.21,32.2
X$255 185 199 211 239 8 9 261 AND4_X1
* cell instance $259 m0 *1 31.35,32.2
X$259 9 211 210 140 261 31 8 AOI22_X4
* cell instance $260 r0 *1 34.2,29.4
X$260 99 131 97 9 200 8 AOI21_X2
* cell instance $261 r0 *1 33.25,29.4
X$261 230 9 8 186 CLKBUF_X3
* cell instance $263 r0 *1 41.61,29.4
X$263 137 213 231 9 8 266 OR3_X1
* cell instance $269 m0 *1 38.57,32.2
X$269 171 131 265 8 263 9 OAI21_X1
* cell instance $270 m0 *1 39.33,32.2
X$270 102 212 8 9 265 AND2_X1
* cell instance $273 m0 *1 41.8,32.2
X$273 266 140 146 9 243 8 AOI21_X1
* cell instance $274 m0 *1 42.56,32.2
X$274 60 213 267 99 214 243 9 8 279 OAI33_X1
* cell instance $276 r0 *1 43.7,29.4
X$276 212 215 187 9 231 8 AOI21_X1
* cell instance $278 r0 *1 46.17,29.4
X$278 215 61 9 8 216 NAND2_X1
* cell instance $279 r0 *1 46.74,29.4
X$279 215 9 8 229 INV_X1
* cell instance $281 r0 *1 47.31,29.4
X$281 229 172 187 8 9 217 AND3_X1
* cell instance $283 m0 *1 43.89,32.2
X$283 187 215 214 61 9 8 267 NAND4_X1
* cell instance $287 m0 *1 46.17,32.2
X$287 216 187 130 9 8 270 NOR3_X1
* cell instance $288 m0 *1 46.93,32.2
X$288 171 131 216 9 8 245 OR3_X1
* cell instance $289 m0 *1 47.88,32.2
X$289 171 131 217 8 246 9 OAI21_X1
* cell instance $290 m0 *1 48.64,32.2
X$290 270 215 268 9 269 8 AOI21_X1
* cell instance $292 r0 *1 48.64,29.4
X$292 97 99 9 8 268 NOR2_X1
* cell instance $295 r0 *1 49.59,29.4
X$295 215 188 141 8 9 212 AND3_X1
* cell instance $296 m0 *1 50.92,32.2
X$296 218 140 146 9 255 8 AOI21_X1
* cell instance $298 r0 *1 50.92,29.4
X$298 141 97 9 8 218 NAND2_X1
* cell instance $301 r0 *1 53.39,29.4
X$301 188 99 9 8 220 NOR2_X1
* cell instance $302 r0 *1 52.63,29.4
X$302 61 188 8 9 219 AND2_X1
* cell instance $305 r0 *1 54.91,29.4
X$305 9 190 188 226 46 8 DFF_X1
* cell instance $309 m0 *1 53.2,32.2
X$309 219 255 220 9 8 226 MUX2_X1
* cell instance $311 m0 *1 60.61,32.2
X$311 9 354 248 221 46 8 DFF_X1
* cell instance $312 r0 *1 61.56,29.4
X$312 173 189 9 8 191 NOR2_X1
* cell instance $313 r0 *1 60.8,29.4
X$313 224 175 191 9 221 8 AOI21_X1
* cell instance $315 r0 *1 62.7,29.4
X$315 190 222 115 8 9 189 HA_X1
* cell instance $319 m0 *1 63.84,32.2
X$319 249 9 8 222 BUF_X1
* cell instance $321 m0 *1 64.79,32.2
X$321 248 9 8 223 BUF_X1
* cell instance $323 r0 *1 3.99,35
X$323 293 9 8 307 BUF_X1
* cell instance $326 r0 *1 5.32,35
X$326 285 9 8 273 BUF_X1
* cell instance $328 r0 *1 6.08,35
X$328 273 9 8 306 INV_X1
* cell instance $329 r0 *1 6.46,35
X$329 306 274 288 8 9 316 HA_X1
* cell instance $330 r0 *1 8.36,35
X$330 294 9 8 324 INV_X1
* cell instance $332 r0 *1 8.93,35
X$332 287 294 307 334 9 8 292 NOR4_X1
* cell instance $334 r0 *1 10.07,35
X$334 288 289 9 8 302 NAND2_X1
* cell instance $338 r0 *1 2.85,35
X$338 305 9 8 294 BUF_X1
* cell instance $343 m0 *1 3.04,37.8
X$343 9 355 286 250 45 8 DFF_X1
* cell instance $347 m0 *1 7.6,37.8
X$347 317 9 8 334 BUF_X1
* cell instance $348 m0 *1 8.17,37.8
X$348 324 286 289 8 9 325 HA_X1
* cell instance $349 m0 *1 10.07,37.8
X$349 325 289 316 9 303 8 AOI21_X1
* cell instance $351 m0 *1 11.02,37.8
X$351 336 321 335 8 9 318 HA_X1
* cell instance $352 r0 *1 12.16,35
X$352 302 309 303 8 207 9 OAI21_X1
* cell instance $353 r0 *1 11.02,35
X$353 289 335 308 288 8 9 253 AND4_X1
* cell instance $357 m0 *1 12.92,37.8
X$357 328 308 318 9 309 8 AOI21_X1
* cell instance $364 r0 *1 5.32,23.8
X$364 118 94 9 8 85 NOR2_X1
* cell instance $369 m0 *1 5.13,26.6
X$369 136 104 9 8 118 NAND2_X1
* cell instance $370 m0 *1 5.7,26.6
X$370 135 57 136 104 9 8 103 NAND4_X1
* cell instance $372 r0 *1 6.27,23.8
X$372 58 103 8 9 101 XNOR2_X1
* cell instance $374 r0 *1 10.64,23.8
X$374 49 123 8 9 86 AND2_X1
* cell instance $375 r0 *1 11.4,23.8
X$375 105 94 9 8 122 NOR2_X1
* cell instance $376 r0 *1 11.97,23.8
X$376 95 122 8 9 123 XNOR2_X1
* cell instance $377 r0 *1 13.11,23.8
X$377 76 9 8 95 INV_X1
* cell instance $380 m0 *1 7.03,26.6
X$380 58 57 136 104 9 8 105 NAND4_X1
* cell instance $387 r0 *1 13.87,23.8
X$387 95 106 108 105 9 8 124 OR4_X1
* cell instance $388 r0 *1 15.2,23.8
X$388 96 124 8 9 77 XNOR2_X1
* cell instance $389 r0 *1 16.34,23.8
X$389 49 77 8 9 125 AND2_X1
* cell instance $390 r0 *1 17.1,23.8
X$390 9 358 96 125 45 8 DFF_X1
* cell instance $393 m0 *1 13.87,26.6
X$393 108 106 9 8 135 NOR2_X1
* cell instance $396 m0 *1 20.9,26.6
X$396 9 107 45 346 78 8 DFF_X2
* cell instance $397 r0 *1 21.66,23.8
X$397 49 127 8 9 107 AND2_X1
* cell instance $401 r0 *1 23.75,23.8
X$401 78 128 8 9 127 XNOR2_X1
* cell instance $404 r0 *1 25.08,23.8
X$404 79 59 9 8 161 NOR2_X1
* cell instance $406 r0 *1 25.84,23.8
X$406 22 38 109 97 9 8 128 NAND4_X1
* cell instance $408 r0 *1 26.98,23.8
X$408 109 97 9 8 75 NAND2_X1
* cell instance $410 r0 *1 27.74,23.8
X$410 89 26 98 9 8 108 NAND3_X2
* cell instance $414 r0 *1 31.54,23.8
X$414 98 26 129 8 9 109 HA_X1
* cell instance $422 r0 *1 34.39,23.8
X$422 131 80 132 8 133 9 OAI21_X1
* cell instance $423 r0 *1 33.82,23.8
X$423 129 97 9 8 80 NAND2_X1
* cell instance $424 r0 *1 35.15,23.8
X$424 137 98 131 9 8 110 OR3_X1
* cell instance $425 r0 *1 36.1,23.8
X$425 99 134 110 9 91 8 AOI21_X1
* cell instance $427 r0 *1 37.05,23.8
X$427 61 133 8 9 93 AND2_X1
* cell instance $428 r0 *1 37.81,23.8
X$428 98 137 9 8 134 NAND2_X1
* cell instance $433 r0 *1 43.89,23.8
X$433 130 67 99 9 8 100 NOR3_X1
* cell instance $438 m0 *1 34.77,26.6
X$438 26 137 9 8 132 NAND2_X1
* cell instance $441 m0 *1 36.48,26.6
X$441 102 9 8 137 INV_X1
* cell instance $448 m0 *1 48.83,26.6
X$448 149 61 9 8 138 NAND2_X1
* cell instance $450 r0 *1 50.54,23.8
X$450 88 97 9 8 111 NAND2_X1
* cell instance $451 r0 *1 49.59,23.8
X$451 112 67 51 8 9 148 AND3_X1
* cell instance $454 m0 *1 49.78,26.6
X$454 112 149 88 8 9 141 AND3_X1
* cell instance $455 m0 *1 50.73,26.6
X$455 111 140 146 9 126 8 AOI21_X1
* cell instance $457 r0 *1 53.01,23.8
X$457 112 99 9 8 113 NOR2_X1
* cell instance $458 r0 *1 52.25,23.8
X$458 61 112 8 9 81 AND2_X1
* cell instance $459 r0 *1 53.58,23.8
X$459 81 126 113 9 8 121 MUX2_X1
* cell instance $462 r0 *1 55.29,23.8
X$462 9 120 112 121 46 8 DFF_X1
* cell instance $464 r0 *1 60.8,23.8
X$464 120 119 114 8 9 116 HA_X1
* cell instance $467 m0 *1 60.61,26.6
X$467 82 142 114 115 9 8 143 NAND4_X1
* cell instance $468 m0 *1 61.56,26.6
X$468 116 114 83 9 144 8 AOI21_X1
* cell instance $470 r0 *1 63.27,23.8
X$470 117 9 8 119 BUF_X1
* cell instance $479 r0 *1 5.32,32.2
X$479 235 9 8 251 BUF_X1
* cell instance $482 r0 *1 8.17,32.2
X$482 232 9 8 256 BUF_X1
* cell instance $492 m0 *1 2.28,35
X$492 272 9 8 287 BUF_X1
* cell instance $493 m0 *1 2.85,35
X$493 9 356 274 202 45 8 DFF_X1
* cell instance $494 m0 *1 6.08,35
X$494 286 9 8 136 BUF_X1
* cell instance $495 m0 *1 6.65,35
X$495 274 9 8 104 BUF_X1
* cell instance $497 m0 *1 7.6,35
X$497 271 9 8 238 BUF_X1
* cell instance $502 m0 *1 23.75,35
X$502 238 9 8 283 INV_X1
* cell instance $506 m0 *1 28.31,35
X$506 283 275 276 8 9 284 HA_X1
* cell instance $507 m0 *1 30.21,35
X$507 276 282 8 9 239 AND2_X1
* cell instance $508 m0 *1 30.97,35
X$508 284 276 277 9 240 8 AOI21_X1
* cell instance $512 r0 *1 31.35,32.2
X$512 240 241 260 8 9 210 OAI21_X2
* cell instance $514 r0 *1 32.68,32.2
X$514 10 9 8 297 INV_X1
* cell instance $519 m0 *1 31.73,35
X$519 282 276 9 8 241 NAND2_X1
* cell instance $522 r0 *1 40.09,32.2
X$522 213 99 9 8 264 NOR2_X1
* cell instance $523 r0 *1 38.76,32.2
X$523 262 263 264 9 8 278 MUX2_X1
* cell instance $524 r0 *1 40.66,32.2
X$524 242 99 9 8 262 NOR2_X1
* cell instance $529 m0 *1 39.71,35
X$529 9 314 242 278 46 8 DFF_X1
* cell instance $531 r0 *1 42.37,32.2
X$531 242 9 8 213 INV_X1
* cell instance $532 m0 *1 42.94,35
X$532 9 280 244 279 46 8 DFF_X1
* cell instance $533 r0 *1 43.32,32.2
X$533 244 242 212 8 9 130 AND3_X1
* cell instance $535 r0 *1 44.27,32.2
X$535 244 9 8 214 INV_X1
* cell instance $538 r0 *1 47.88,32.2
X$538 269 245 246 9 8 247 NAND3_X1
* cell instance $544 m0 *1 47.5,35
X$544 9 281 259 247 46 8 DFF_X1
* cell instance $545 r0 *1 49.97,32.2
X$545 259 9 8 215 CLKBUF_X2
* cell instance $563 r0 *1 5.32,26.6
X$563 135 104 9 8 157 NAND2_X1
* cell instance $571 m0 *1 3.8,29.4
X$571 136 157 8 9 165 XNOR2_X1
* cell instance $572 m0 *1 4.94,29.4
X$572 104 94 8 9 181 XNOR2_X1
* cell instance $574 m0 *1 6.27,29.4
X$574 166 58 167 8 9 177 HA_X1
* cell instance $576 m0 *1 8.36,29.4
X$576 192 167 9 8 194 NAND2_X1
* cell instance $578 m0 *1 9.12,29.4
X$578 168 176 182 8 9 195 OAI21_X2
* cell instance $580 m0 *1 10.64,29.4
X$580 177 176 9 8 150 NOR2_X1
* cell instance $582 m0 *1 11.4,29.4
X$582 205 96 168 8 9 183 HA_X1
* cell instance $585 r0 *1 13.87,26.6
X$585 145 106 9 8 94 OR2_X1
* cell instance $592 m0 *1 21.47,29.4
X$592 49 179 8 9 169 AND2_X1
* cell instance $595 r0 *1 24.89,26.6
X$595 151 161 9 8 179 XOR2_X1
* cell instance $596 r0 *1 26.22,26.6
X$596 89 109 9 8 145 NAND2_X1
* cell instance $598 r0 *1 27.36,26.6
X$598 89 151 109 97 9 8 152 NAND4_X1
* cell instance $603 r0 *1 38.95,26.6
X$603 102 9 8 97 CLKBUF_X3
* cell instance $606 r0 *1 41.61,26.6
X$606 61 9 8 170 INV_X1
* cell instance $608 r0 *1 48.07,26.6
X$608 138 131 171 9 8 164 NOR3_X1
* cell instance $610 r0 *1 49.02,26.6
X$610 138 148 130 9 8 139 NOR3_X1
* cell instance $611 r0 *1 49.78,26.6
X$611 153 140 146 9 147 8 AOI21_X1
* cell instance $612 r0 *1 50.54,26.6
X$612 147 164 139 163 9 8 162 OR4_X1
* cell instance $613 r0 *1 51.68,26.6
X$613 178 97 99 9 8 163 NOR3_X1
* cell instance $615 r0 *1 52.63,26.6
X$615 9 159 149 162 46 8 DFF_X1
* cell instance $619 r0 *1 59.85,26.6
X$619 160 9 8 154 INV_X1
* cell instance $620 r0 *1 60.23,26.6
X$620 159 158 160 8 9 174 HA_X1
* cell instance $621 r0 *1 62.13,26.6
X$621 144 154 9 8 155 NOR2_X1
* cell instance $622 r0 *1 62.7,26.6
X$622 156 9 8 158 BUF_X1
* cell instance $628 m0 *1 30.97,29.4
X$628 9 198 227 197 131 180 8 OAI211_X4
* cell instance $634 m0 *1 41.04,29.4
X$634 137 170 9 8 172 NOR2_X1
* cell instance $636 m0 *1 41.8,29.4
X$636 170 9 8 99 CLKBUF_X3
* cell instance $638 m0 *1 43.13,29.4
X$638 97 131 171 8 9 60 OAI21_X2
* cell instance $640 m0 *1 45.98,29.4
X$640 186 9 8 46 CLKBUF_X3
* cell instance $641 m0 *1 46.93,29.4
X$641 46 9 8 INV_X2
* cell instance $644 m0 *1 49.78,29.4
X$644 188 149 148 8 9 187 AND3_X1
* cell instance $645 m0 *1 50.73,29.4
X$645 172 148 178 9 8 153 NAND3_X1
* cell instance $646 m0 *1 51.49,29.4
X$646 149 9 8 178 INV_X1
* cell instance $651 m0 *1 60.61,29.4
X$651 173 142 172 154 143 8 9 224 OAI221_X1
* cell instance $652 m0 *1 61.75,29.4
X$652 155 174 115 8 175 9 OAI21_X1
* cell instance $818 r0 *1 62.51,40.6
X$818 342 9 8 332 BUF_X1
* cell instance $952 r0 *1 10.64,37.8
X$952 307 9 8 336 INV_X1
* cell instance $953 r0 *1 11.02,37.8
X$953 334 9 8 327 INV_X1
* cell instance $954 r0 *1 11.4,37.8
X$954 327 340 308 8 9 328 HA_X1
* cell instance $961 r0 *1 13.68,37.8
X$961 9 362 340 337 45 8 DFF_X1
* cell instance $962 r0 *1 17.1,37.8
X$962 340 9 8 319 INV_X1
* cell instance $963 r0 *1 17.48,37.8
X$963 200 320 8 9 337 AND2_X1
* cell instance $965 r0 *1 18.43,37.8
X$965 9 360 321 338 45 8 DFF_X1
* cell instance $972 m0 *1 24.7,40.6
X$972 9 344 45 348 275 8 DFF_X2
* cell instance $973 r0 *1 25.84,37.8
X$973 275 329 9 8 339 XOR2_X1
* cell instance $974 r0 *1 25.08,37.8
X$974 200 339 8 9 344 AND2_X1
* cell instance $985 r0 *1 38.95,37.8
X$985 345 9 8 102 BUF_X2
* cell instance $996 r0 *1 61.56,37.8
X$996 331 312 330 9 311 8 AOI21_X1
* cell instance $998 r0 *1 62.32,37.8
X$998 343 9 8 313 BUF_X1
* cell instance $999 r0 *1 62.89,37.8
X$999 341 9 8 333 BUF_X1
* cell instance $1114 m0 *1 30.97,15.4
X$1114 16 9 8 13 INV_X1
* cell instance $1115 m0 *1 31.35,15.4
X$1115 24 17 19 9 8 25 NAND3_X1
* cell instance $1126 m0 *1 33.82,15.4
X$1126 11 15 17 8 9 14 HA_X1
* cell instance $1145 r0 *1 24.13,18.2
X$1145 9 50 45 353 22 8 DFF_X2
* cell instance $1147 r0 *1 30.78,18.2
X$1147 39 9 8 43 INV_X1
* cell instance $1148 r0 *1 31.16,18.2
X$1148 43 25 8 9 40 AND2_X1
* cell instance $1149 r0 *1 31.92,18.2
X$1149 36 25 43 9 42 8 AOI21_X1
* cell instance $1150 r0 *1 32.68,18.2
X$1150 42 41 35 9 180 8 AOI21_X2
* cell instance $1163 m0 *1 3.99,21
X$1163 9 65 45 347 57 8 DFF_X2
* cell instance $1169 m0 *1 23.94,21
X$1169 9 44 45 350 38 8 DFF_X2
* cell instance $1175 m0 *1 47.5,21
X$1175 9 55 51 56 46 8 DFF_X1
* cell instance $1181 m0 *1 61.18,21
X$1181 55 48 52 8 9 68 HA_X1
* cell instance $1182 m0 *1 63.08,21
X$1182 47 9 8 48 BUF_X1
* cell instance $1185 m0 *1 64.22,21
X$1185 54 9 8 53 BUF_X1
* cell instance $1225 m0 *1 28.12,18.2
X$1225 23 38 24 8 9 39 HA_X1
* cell instance $1226 r0 *1 28.5,15.4
X$1226 18 9 8 23 INV_X1
* cell instance $1229 r0 *1 29.45,15.4
X$1229 13 22 34 8 9 21 HA_X1
* cell instance $1231 r0 *1 31.35,15.4
X$1231 20 26 19 8 9 27 HA_X1
* cell instance $1232 r0 *1 33.25,15.4
X$1232 19 9 8 28 INV_X1
* cell instance $1233 r0 *1 33.63,15.4
X$1233 27 19 29 9 37 8 AOI21_X1
* cell instance $1234 r0 *1 34.39,15.4
X$1234 21 27 9 8 30 NOR2_X1
* cell instance $1235 r0 *1 34.96,15.4
X$1235 14 9 8 29 INV_X1
* cell instance $1245 m0 *1 30.78,18.2
X$1245 24 34 9 8 32 NAND2_X1
* cell instance $1246 m0 *1 31.35,18.2
X$1246 34 9 8 36 INV_X1
* cell instance $1247 m0 *1 31.73,18.2
X$1247 36 40 32 37 33 31 9 8 OAI221_X2
* cell instance $1248 m0 *1 33.82,18.2
X$1248 32 33 9 8 41 NAND2_X1
* cell instance $1249 m0 *1 34.39,18.2
X$1249 21 9 8 33 INV_X1
* cell instance $1250 m0 *1 34.77,18.2
X$1250 28 14 30 8 35 9 OAI21_X1
.ENDS parameterized_pwm

* cell INV_X2
* pin A
* pin PWELL,VSS
* pin NWELL,VDD
.SUBCKT INV_X2 1 2 3
* net 1 A
* net 2 PWELL,VSS
* net 3 NWELL,VDD
* net 4 ZN
* device instance $1 r0 *1 0.185,0.995 PMOS_VTL
M$1 4 1 3 3 PMOS_VTL L=0.05U W=1.26U AS=0.11025P AD=0.11025P PS=2.24U PD=2.24U
* device instance $3 r0 *1 0.185,0.2975 NMOS_VTL
M$3 4 1 2 2 NMOS_VTL L=0.05U W=0.83U AS=0.072625P AD=0.072625P PS=1.595U
+ PD=1.595U
.ENDS INV_X2

* cell OAI33_X1
* pin B3
* pin B2
* pin B1
* pin A1
* pin A2
* pin A3
* pin PWELL,VSS
* pin NWELL,VDD
* pin ZN
.SUBCKT OAI33_X1 1 2 3 4 5 6 7 8 10
* net 1 B3
* net 2 B2
* net 3 B1
* net 4 A1
* net 5 A2
* net 6 A3
* net 7 PWELL,VSS
* net 8 NWELL,VDD
* net 10 ZN
* device instance $1 r0 *1 0.185,0.995 PMOS_VTL
M$1 14 1 8 8 PMOS_VTL L=0.05U W=0.63U AS=0.06615P AD=0.0441P PS=1.47U PD=0.77U
* device instance $2 r0 *1 0.375,0.995 PMOS_VTL
M$2 13 2 14 8 PMOS_VTL L=0.05U W=0.63U AS=0.0441P AD=0.0441P PS=0.77U PD=0.77U
* device instance $3 r0 *1 0.565,0.995 PMOS_VTL
M$3 10 3 13 8 PMOS_VTL L=0.05U W=0.63U AS=0.0441P AD=0.0441P PS=0.77U PD=0.77U
* device instance $4 r0 *1 0.755,0.995 PMOS_VTL
M$4 12 4 10 8 PMOS_VTL L=0.05U W=0.63U AS=0.0441P AD=0.0441P PS=0.77U PD=0.77U
* device instance $5 r0 *1 0.945,0.995 PMOS_VTL
M$5 11 5 12 8 PMOS_VTL L=0.05U W=0.63U AS=0.0441P AD=0.0441P PS=0.77U PD=0.77U
* device instance $6 r0 *1 1.135,0.995 PMOS_VTL
M$6 8 6 11 8 PMOS_VTL L=0.05U W=0.63U AS=0.0441P AD=0.06615P PS=0.77U PD=1.47U
* device instance $7 r0 *1 0.185,0.2975 NMOS_VTL
M$7 9 1 7 7 NMOS_VTL L=0.05U W=0.415U AS=0.043575P AD=0.02905P PS=1.04U
+ PD=0.555U
* device instance $8 r0 *1 0.375,0.2975 NMOS_VTL
M$8 7 2 9 7 NMOS_VTL L=0.05U W=0.415U AS=0.02905P AD=0.02905P PS=0.555U
+ PD=0.555U
* device instance $9 r0 *1 0.565,0.2975 NMOS_VTL
M$9 9 3 7 7 NMOS_VTL L=0.05U W=0.415U AS=0.02905P AD=0.02905P PS=0.555U
+ PD=0.555U
* device instance $10 r0 *1 0.755,0.2975 NMOS_VTL
M$10 10 4 9 7 NMOS_VTL L=0.05U W=0.415U AS=0.02905P AD=0.02905P PS=0.555U
+ PD=0.555U
* device instance $11 r0 *1 0.945,0.2975 NMOS_VTL
M$11 9 5 10 7 NMOS_VTL L=0.05U W=0.415U AS=0.02905P AD=0.02905P PS=0.555U
+ PD=0.555U
* device instance $12 r0 *1 1.135,0.2975 NMOS_VTL
M$12 10 6 9 7 NMOS_VTL L=0.05U W=0.415U AS=0.02905P AD=0.043575P PS=0.555U
+ PD=1.04U
.ENDS OAI33_X1

* cell OAI221_X1
* pin B2
* pin B1
* pin A
* pin C2
* pin C1
* pin NWELL,VDD
* pin PWELL,VSS
* pin ZN
.SUBCKT OAI221_X1 1 2 3 4 5 7 8 9
* net 1 B2
* net 2 B1
* net 3 A
* net 4 C2
* net 5 C1
* net 7 NWELL,VDD
* net 8 PWELL,VSS
* net 9 ZN
* device instance $1 r0 *1 0.17,0.995 PMOS_VTL
M$1 12 1 7 7 PMOS_VTL L=0.05U W=0.63U AS=0.06615P AD=0.0441P PS=1.47U PD=0.77U
* device instance $2 r0 *1 0.36,0.995 PMOS_VTL
M$2 9 2 12 7 PMOS_VTL L=0.05U W=0.63U AS=0.0441P AD=0.0441P PS=0.77U PD=0.77U
* device instance $3 r0 *1 0.55,0.995 PMOS_VTL
M$3 7 3 9 7 PMOS_VTL L=0.05U W=0.63U AS=0.0441P AD=0.0441P PS=0.77U PD=0.77U
* device instance $4 r0 *1 0.74,0.995 PMOS_VTL
M$4 11 4 7 7 PMOS_VTL L=0.05U W=0.63U AS=0.0441P AD=0.0441P PS=0.77U PD=0.77U
* device instance $5 r0 *1 0.93,0.995 PMOS_VTL
M$5 9 5 11 7 PMOS_VTL L=0.05U W=0.63U AS=0.0441P AD=0.06615P PS=0.77U PD=1.47U
* device instance $6 r0 *1 0.17,0.2975 NMOS_VTL
M$6 8 1 6 8 NMOS_VTL L=0.05U W=0.415U AS=0.043575P AD=0.02905P PS=1.04U
+ PD=0.555U
* device instance $7 r0 *1 0.36,0.2975 NMOS_VTL
M$7 6 2 8 8 NMOS_VTL L=0.05U W=0.415U AS=0.02905P AD=0.02905P PS=0.555U
+ PD=0.555U
* device instance $8 r0 *1 0.55,0.2975 NMOS_VTL
M$8 10 3 6 8 NMOS_VTL L=0.05U W=0.415U AS=0.02905P AD=0.02905P PS=0.555U
+ PD=0.555U
* device instance $9 r0 *1 0.74,0.2975 NMOS_VTL
M$9 9 4 10 8 NMOS_VTL L=0.05U W=0.415U AS=0.02905P AD=0.02905P PS=0.555U
+ PD=0.555U
* device instance $10 r0 *1 0.93,0.2975 NMOS_VTL
M$10 10 5 9 8 NMOS_VTL L=0.05U W=0.415U AS=0.02905P AD=0.043575P PS=0.555U
+ PD=1.04U
.ENDS OAI221_X1

* cell AOI211_X2
* pin B
* pin A
* pin C2
* pin C1
* pin ZN
* pin NWELL,VDD
* pin PWELL,VSS
.SUBCKT AOI211_X2 1 2 3 4 6 7 8
* net 1 B
* net 2 A
* net 3 C2
* net 4 C1
* net 6 ZN
* net 7 NWELL,VDD
* net 8 PWELL,VSS
* device instance $1 r0 *1 0.175,0.995 PMOS_VTL
M$1 10 1 5 7 PMOS_VTL L=0.05U W=0.63U AS=0.06615P AD=0.0441P PS=1.47U PD=0.77U
* device instance $2 r0 *1 0.365,0.995 PMOS_VTL
M$2 7 2 10 7 PMOS_VTL L=0.05U W=0.63U AS=0.0441P AD=0.0441P PS=0.77U PD=0.77U
* device instance $3 r0 *1 0.555,0.995 PMOS_VTL
M$3 9 2 7 7 PMOS_VTL L=0.05U W=0.63U AS=0.0441P AD=0.0441P PS=0.77U PD=0.77U
* device instance $4 r0 *1 0.745,0.995 PMOS_VTL
M$4 5 1 9 7 PMOS_VTL L=0.05U W=0.63U AS=0.0441P AD=0.055125P PS=0.77U PD=0.805U
* device instance $5 r0 *1 0.97,0.995 PMOS_VTL
M$5 6 3 5 7 PMOS_VTL L=0.05U W=1.26U AS=0.099225P AD=0.11025P PS=1.575U PD=2.24U
* device instance $6 r0 *1 1.16,0.995 PMOS_VTL
M$6 5 4 6 7 PMOS_VTL L=0.05U W=1.26U AS=0.0882P AD=0.0882P PS=1.54U PD=1.54U
* device instance $9 r0 *1 0.175,0.2975 NMOS_VTL
M$9 6 1 8 8 NMOS_VTL L=0.05U W=0.83U AS=0.072625P AD=0.0653625P PS=1.595U
+ PD=1.145U
* device instance $10 r0 *1 0.365,0.2975 NMOS_VTL
M$10 8 2 6 8 NMOS_VTL L=0.05U W=0.83U AS=0.0581P AD=0.0581P PS=1.11U PD=1.11U
* device instance $13 r0 *1 0.97,0.2975 NMOS_VTL
M$13 11 3 8 8 NMOS_VTL L=0.05U W=0.415U AS=0.0363125P AD=0.02905P PS=0.59U
+ PD=0.555U
* device instance $14 r0 *1 1.16,0.2975 NMOS_VTL
M$14 6 4 11 8 NMOS_VTL L=0.05U W=0.415U AS=0.02905P AD=0.02905P PS=0.555U
+ PD=0.555U
* device instance $15 r0 *1 1.35,0.2975 NMOS_VTL
M$15 12 4 6 8 NMOS_VTL L=0.05U W=0.415U AS=0.02905P AD=0.02905P PS=0.555U
+ PD=0.555U
* device instance $16 r0 *1 1.54,0.2975 NMOS_VTL
M$16 8 3 12 8 NMOS_VTL L=0.05U W=0.415U AS=0.02905P AD=0.043575P PS=0.555U
+ PD=1.04U
.ENDS AOI211_X2

* cell AND2_X2
* pin A1
* pin A2
* pin NWELL,VDD
* pin PWELL,VSS
* pin ZN
.SUBCKT AND2_X2 1 2 4 5 6
* net 1 A1
* net 2 A2
* net 4 NWELL,VDD
* net 5 PWELL,VSS
* net 6 ZN
* device instance $1 r0 *1 0.17,0.995 PMOS_VTL
M$1 3 1 4 4 PMOS_VTL L=0.05U W=0.63U AS=0.06615P AD=0.0441P PS=1.47U PD=0.77U
* device instance $2 r0 *1 0.36,0.995 PMOS_VTL
M$2 4 2 3 4 PMOS_VTL L=0.05U W=0.63U AS=0.0441P AD=0.0441P PS=0.77U PD=0.77U
* device instance $3 r0 *1 0.55,0.995 PMOS_VTL
M$3 6 3 4 4 PMOS_VTL L=0.05U W=1.26U AS=0.0882P AD=0.11025P PS=1.54U PD=2.24U
* device instance $5 r0 *1 0.17,0.2975 NMOS_VTL
M$5 7 1 3 5 NMOS_VTL L=0.05U W=0.415U AS=0.043575P AD=0.02905P PS=1.04U
+ PD=0.555U
* device instance $6 r0 *1 0.36,0.2975 NMOS_VTL
M$6 5 2 7 5 NMOS_VTL L=0.05U W=0.415U AS=0.02905P AD=0.02905P PS=0.555U
+ PD=0.555U
* device instance $7 r0 *1 0.55,0.2975 NMOS_VTL
M$7 6 3 5 5 NMOS_VTL L=0.05U W=0.83U AS=0.0581P AD=0.072625P PS=1.11U PD=1.595U
.ENDS AND2_X2

* cell AOI21_X4
* pin PWELL,VSS
* pin ZN
* pin A
* pin B2
* pin B1
* pin NWELL,VDD
.SUBCKT AOI21_X4 1 2 3 4 5 11
* net 1 PWELL,VSS
* net 2 ZN
* net 3 A
* net 4 B2
* net 5 B1
* net 11 NWELL,VDD
* device instance $1 r0 *1 0.185,0.995 PMOS_VTL
M$1 11 3 10 11 PMOS_VTL L=0.05U W=2.52U AS=0.19845P AD=0.1764P PS=3.78U PD=3.08U
* device instance $5 r0 *1 0.945,0.995 PMOS_VTL
M$5 2 4 10 11 PMOS_VTL L=0.05U W=2.52U AS=0.1764P AD=0.19845P PS=3.08U PD=3.78U
* device instance $6 r0 *1 1.135,0.995 PMOS_VTL
M$6 10 5 2 11 PMOS_VTL L=0.05U W=2.52U AS=0.1764P AD=0.1764P PS=3.08U PD=3.08U
* device instance $13 r0 *1 0.185,0.2975 NMOS_VTL
M$13 2 3 1 1 NMOS_VTL L=0.05U W=1.66U AS=0.130725P AD=0.1162P PS=2.705U PD=2.22U
* device instance $17 r0 *1 0.945,0.2975 NMOS_VTL
M$17 8 4 1 1 NMOS_VTL L=0.05U W=0.415U AS=0.02905P AD=0.02905P PS=0.555U
+ PD=0.555U
* device instance $18 r0 *1 1.135,0.2975 NMOS_VTL
M$18 2 5 8 1 NMOS_VTL L=0.05U W=0.415U AS=0.02905P AD=0.02905P PS=0.555U
+ PD=0.555U
* device instance $19 r0 *1 1.325,0.2975 NMOS_VTL
M$19 9 5 2 1 NMOS_VTL L=0.05U W=0.415U AS=0.02905P AD=0.02905P PS=0.555U
+ PD=0.555U
* device instance $20 r0 *1 1.515,0.2975 NMOS_VTL
M$20 1 4 9 1 NMOS_VTL L=0.05U W=0.415U AS=0.02905P AD=0.02905P PS=0.555U
+ PD=0.555U
* device instance $21 r0 *1 1.705,0.2975 NMOS_VTL
M$21 6 4 1 1 NMOS_VTL L=0.05U W=0.415U AS=0.02905P AD=0.02905P PS=0.555U
+ PD=0.555U
* device instance $22 r0 *1 1.895,0.2975 NMOS_VTL
M$22 2 5 6 1 NMOS_VTL L=0.05U W=0.415U AS=0.02905P AD=0.02905P PS=0.555U
+ PD=0.555U
* device instance $23 r0 *1 2.085,0.2975 NMOS_VTL
M$23 7 5 2 1 NMOS_VTL L=0.05U W=0.415U AS=0.02905P AD=0.02905P PS=0.555U
+ PD=0.555U
* device instance $24 r0 *1 2.275,0.2975 NMOS_VTL
M$24 1 4 7 1 NMOS_VTL L=0.05U W=0.415U AS=0.02905P AD=0.043575P PS=0.555U
+ PD=1.04U
.ENDS AOI21_X4

* cell OR2_X1
* pin A1
* pin A2
* pin PWELL,VSS
* pin NWELL,VDD
* pin ZN
.SUBCKT OR2_X1 1 2 3 5 6
* net 1 A1
* net 2 A2
* net 3 PWELL,VSS
* net 5 NWELL,VDD
* net 6 ZN
* device instance $1 r0 *1 0.17,1.1525 PMOS_VTL
M$1 7 1 4 5 PMOS_VTL L=0.05U W=0.315U AS=0.033075P AD=0.02205P PS=0.84U
+ PD=0.455U
* device instance $2 r0 *1 0.36,1.1525 PMOS_VTL
M$2 7 2 5 5 PMOS_VTL L=0.05U W=0.315U AS=0.033075P AD=0.02205P PS=0.77U
+ PD=0.455U
* device instance $3 r0 *1 0.55,0.995 PMOS_VTL
M$3 6 4 5 5 PMOS_VTL L=0.05U W=0.63U AS=0.033075P AD=0.06615P PS=0.77U PD=1.47U
* device instance $4 r0 *1 0.17,0.195 NMOS_VTL
M$4 4 1 3 3 NMOS_VTL L=0.05U W=0.21U AS=0.02205P AD=0.0147P PS=0.63U PD=0.35U
* device instance $5 r0 *1 0.36,0.195 NMOS_VTL
M$5 3 2 4 3 NMOS_VTL L=0.05U W=0.21U AS=0.0147P AD=0.021875P PS=0.35U PD=0.555U
* device instance $6 r0 *1 0.55,0.2975 NMOS_VTL
M$6 6 4 3 3 NMOS_VTL L=0.05U W=0.415U AS=0.021875P AD=0.043575P PS=0.555U
+ PD=1.04U
.ENDS OR2_X1

* cell OR4_X1
* pin A1
* pin A2
* pin A3
* pin A4
* pin PWELL,VSS
* pin NWELL,VDD
* pin ZN
.SUBCKT OR4_X1 1 2 3 4 5 7 8
* net 1 A1
* net 2 A2
* net 3 A3
* net 4 A4
* net 5 PWELL,VSS
* net 7 NWELL,VDD
* net 8 ZN
* device instance $1 r0 *1 0.17,1.1525 PMOS_VTL
M$1 10 1 6 7 PMOS_VTL L=0.05U W=0.315U AS=0.033075P AD=0.02205P PS=0.84U
+ PD=0.455U
* device instance $2 r0 *1 0.36,1.1525 PMOS_VTL
M$2 9 2 10 7 PMOS_VTL L=0.05U W=0.315U AS=0.02205P AD=0.02205P PS=0.455U
+ PD=0.455U
* device instance $3 r0 *1 0.55,1.1525 PMOS_VTL