
* cell bidirectional_fifo
* pin b_wr_data[6]
* pin b_wr_data[7]
* pin b_wr_data[2]
* pin b_wr_data[0]
* pin b_wr_data[3]
* pin b_wr_data[4]
* pin a_rd_data[6]
* pin b_wr_en
* pin a_full
* pin a_rd_data[3]
* pin a_rd_data[4]
* pin a_empty
* pin a_rd_en
* pin b_to_a_count[0]
* pin a_almost_full
* pin a_almost_empty
* pin b_to_a_count[3]
* pin b_to_a_count[2]
* pin a_rd_data[0]
* pin b_to_a_count[1]
* pin a_rd_data[2]
* pin a_rd_data[1]
* pin a_rd_data[7]
* pin a_rd_data[5]
* pin b_to_a_count[4]
* pin b_wr_data[5]
* pin b_wr_data[1]
* pin rst_n
* pin clk
* pin a_to_b_count[3]
* pin a_to_b_count[2]
* pin b_almost_empty
* pin b_almost_full
* pin a_to_b_count[1]
* pin a_to_b_count[0]
* pin b_rd_data[6]
* pin b_rd_data[7]
* pin b_rd_data[4]
* pin a_wr_data[7]
* pin a_wr_data[6]
* pin a_wr_data[5]
* pin a_wr_data[2]
* pin b_rd_data[5]
* pin b_rd_en
* pin a_wr_data[1]
* pin a_wr_en
* pin a_wr_data[3]
* pin a_wr_data[4]
* pin b_full
* pin a_to_b_count[4]
* pin b_empty
* pin b_rd_data[2]
* pin b_rd_data[0]
* pin b_rd_data[1]
* pin a_wr_data[0]
* pin b_rd_data[3]
.SUBCKT bidirectional_fifo 1 2 3 4 5 6 7 8 9 10 11 12 13 14 15 16 17 18 19 20
+ 21 22 23 24 25 215 368 376 380 386 387 401 410 411 425 437 438 453 611 612
+ 715 719 721 726 731 733 734 735 736 737 738 739 740 741 742 743
* net 1 b_wr_data[6]
* net 2 b_wr_data[7]
* net 3 b_wr_data[2]
* net 4 b_wr_data[0]
* net 5 b_wr_data[3]
* net 6 b_wr_data[4]
* net 7 a_rd_data[6]
* net 8 b_wr_en
* net 9 a_full
* net 10 a_rd_data[3]
* net 11 a_rd_data[4]
* net 12 a_empty
* net 13 a_rd_en
* net 14 b_to_a_count[0]
* net 15 a_almost_full
* net 16 a_almost_empty
* net 17 b_to_a_count[3]
* net 18 b_to_a_count[2]
* net 19 a_rd_data[0]
* net 20 b_to_a_count[1]
* net 21 a_rd_data[2]
* net 22 a_rd_data[1]
* net 23 a_rd_data[7]
* net 24 a_rd_data[5]
* net 25 b_to_a_count[4]
* net 215 b_wr_data[5]
* net 368 b_wr_data[1]
* net 376 rst_n
* net 380 clk
* net 386 a_to_b_count[3]
* net 387 a_to_b_count[2]
* net 401 b_almost_empty
* net 410 b_almost_full
* net 411 a_to_b_count[1]
* net 425 a_to_b_count[0]
* net 437 b_rd_data[6]
* net 438 b_rd_data[7]
* net 453 b_rd_data[4]
* net 611 a_wr_data[7]
* net 612 a_wr_data[6]
* net 715 a_wr_data[5]
* net 719 a_wr_data[2]
* net 721 b_rd_data[5]
* net 726 b_rd_en
* net 731 a_wr_data[1]
* net 733 a_wr_en
* net 734 a_wr_data[3]
* net 735 a_wr_data[4]
* net 736 b_full
* net 737 a_to_b_count[4]
* net 738 b_empty
* net 739 b_rd_data[2]
* net 740 b_rd_data[0]
* net 741 b_rd_data[1]
* net 742 a_wr_data[0]
* net 743 b_rd_data[3]
* cell instance $3 m0 *1 3.22,8.16
X$3 59 1 59 62 30 30 sky130_fd_sc_hd__dlygate4sd3_1
* cell instance $6 m0 *1 6.9,8.16
X$6 59 2 59 61 30 30 sky130_fd_sc_hd__dlygate4sd3_1
* cell instance $9 r0 *1 26.22,2.72
X$9 59 3 59 30 43 30 sky130_fd_sc_hd__buf_4
* cell instance $12 r0 *1 39.1,2.72
X$12 59 4 59 33 30 30 sky130_fd_sc_hd__dlygate4sd3_1
* cell instance $14 r0 *1 43.24,2.72
X$14 59 5 59 44 30 30 sky130_fd_sc_hd__dlygate4sd3_1
* cell instance $18 r0 *1 46.92,2.72
X$18 59 6 59 30 34 30 sky130_fd_sc_hd__buf_4
* cell instance $20 r0 *1 66.24,2.72
X$20 59 35 7 30 59 30 sky130_fd_sc_hd__clkbuf_1
* cell instance $24 r0 *1 70.84,2.72
X$24 30 51 8 59 59 30 sky130_fd_sc_hd__dlymetal6s2s_1
* cell instance $27 m0 *1 72.68,8.16
X$27 59 80 9 30 59 30 sky130_fd_sc_hd__clkbuf_1
* cell instance $30 r0 *1 69,2.72
X$30 59 26 10 30 59 30 sky130_fd_sc_hd__clkbuf_1
* cell instance $32 r0 *1 75.44,2.72
X$32 59 50 11 30 59 30 sky130_fd_sc_hd__clkbuf_1
* cell instance $36 r0 *1 84.64,2.72
X$36 59 89 12 30 59 30 sky130_fd_sc_hd__clkbuf_1
* cell instance $38 r0 *1 76.82,2.72
X$38 59 13 59 30 49 30 sky130_fd_sc_hd__clkbuf_2
* cell instance $42 m0 *1 76.36,8.16
X$42 59 82 14 30 59 30 sky130_fd_sc_hd__clkbuf_1
* cell instance $45 r0 *1 78.66,2.72
X$45 59 47 15 30 59 30 sky130_fd_sc_hd__clkbuf_1
* cell instance $47 r0 *1 80.04,2.72
X$47 59 104 16 30 59 30 sky130_fd_sc_hd__clkbuf_1
* cell instance $51 r0 *1 81.42,2.72
X$51 59 45 17 30 59 30 sky130_fd_sc_hd__clkbuf_1
* cell instance $54 r0 *1 82.8,2.72
X$54 59 46 18 30 59 30 sky130_fd_sc_hd__clkbuf_1
* cell instance $57 m0 *1 84.64,8.16
X$57 59 79 19 30 59 30 sky130_fd_sc_hd__clkbuf_1
* cell instance $60 r0 *1 86.02,2.72
X$60 59 54 20 30 59 30 sky130_fd_sc_hd__clkbuf_1
* cell instance $63 r0 *1 87.4,2.72
X$63 59 101 21 30 59 30 sky130_fd_sc_hd__clkbuf_1
* cell instance $66 r0 *1 98.44,2.72
X$66 59 28 22 30 59 30 sky130_fd_sc_hd__clkbuf_1
* cell instance $69 m0 *1 87.4,8.16
X$69 59 78 23 30 59 30 sky130_fd_sc_hd__clkbuf_1
* cell instance $72 m0 *1 90.16,8.16
X$72 59 55 24 30 59 30 sky130_fd_sc_hd__clkbuf_1
* cell instance $74 r0 *1 67.62,2.72
X$74 59 27 25 30 59 30 sky130_fd_sc_hd__clkbuf_1
* cell instance $81 r0 *1 57.04,8.16
X$81 30 74 26 52 75 59 59 30 sky130_fd_sc_hd__dfrtp_1
* cell instance $83 m0 *1 59.34,8.16
X$83 30 75 26 76 53 59 59 30 sky130_fd_sc_hd__mux2_1
* cell instance $100 m0 *1 70.38,40.8
X$100 59 298 27 90 30 59 271 30 sky130_fd_sc_hd__a21oi_1
* cell instance $103 m0 *1 70.38,13.6
X$103 59 27 90 80 59 30 30 sky130_fd_sc_hd__and2_0
* cell instance $105 r0 *1 68.54,24.48
X$105 59 27 85 206 59 207 30 30 sky130_fd_sc_hd__o21ai_0
* cell instance $107 m0 *1 65.32,35.36
X$107 59 186 30 27 59 30 sky130_fd_sc_hd__clkbuf_4
* cell instance $110 r0 *1 64.4,35.36
X$110 30 84 244 90 27 59 59 30 sky130_fd_sc_hd__a21oi_4
* cell instance $112 m0 *1 80.96,13.6
X$112 59 119 45 46 27 30 104 59 30 sky130_fd_sc_hd__nor4_1
* cell instance $114 r0 *1 76.82,19.04
X$114 59 27 142 85 59 30 153 30 sky130_fd_sc_hd__o21ai_1
* cell instance $116 m0 *1 80.96,8.16
X$116 30 47 45 46 54 27 59 59 30 sky130_fd_sc_hd__a31o_1
* cell instance $119 r0 *1 84.18,8.16
X$119 59 27 85 89 30 59 30 sky130_fd_sc_hd__nor2_1
* cell instance $122 m0 *1 80.04,24.48
X$122 59 27 85 49 152 161 59 30 30 sky130_fd_sc_hd__o211ai_1
* cell instance $126 r0 *1 88.78,2.72
X$126 30 74 28 67 42 59 59 30 sky130_fd_sc_hd__dfrtp_1
* cell instance $130 m0 *1 87.86,19.04
X$130 30 42 28 150 53 59 59 30 sky130_fd_sc_hd__mux2_1
* cell instance $146 m0 *1 100.74,8.16
X$146 30 29 73 38 43 59 59 30 sky130_fd_sc_hd__edfxtp_1
* cell instance $148 m0 *1 128.34,13.6
X$148 30 29 93 38 64 59 59 30 sky130_fd_sc_hd__edfxtp_1
* cell instance $151 r0 *1 128.34,2.72
X$151 30 29 36 38 34 59 59 30 sky130_fd_sc_hd__edfxtp_1
* cell instance $154 m0 *1 112.24,8.16
X$154 30 29 71 38 37 59 59 30 sky130_fd_sc_hd__edfxtp_1
* cell instance $156 m0 *1 113.16,29.92
X$156 30 29 218 213 41 59 59 30 sky130_fd_sc_hd__edfxtp_1
* cell instance $158 r0 *1 126.04,24.48
X$158 30 29 194 38 167 59 59 30 sky130_fd_sc_hd__edfxtp_1
* cell instance $160 m0 *1 92,35.36
X$160 30 29 236 124 31 59 59 30 sky130_fd_sc_hd__edfxtp_1
* cell instance $162 m0 *1 84.64,46.24
X$162 30 278 29 269 277 59 59 30 sky130_fd_sc_hd__and3_4
* cell instance $164 r0 *1 101.2,40.8
X$164 30 29 279 213 224 59 59 30 sky130_fd_sc_hd__edfxtp_1
* cell instance $190 r0 *1 3.22,2.72
X$190 30 39 40 32 37 59 59 30 sky130_fd_sc_hd__edfxtp_1
* cell instance $195 r0 *1 15.64,2.72
X$195 59 61 59 30 41 30 sky130_fd_sc_hd__buf_4
* cell instance $204 r0 *1 36.34,2.72
X$204 59 33 59 30 31 30 sky130_fd_sc_hd__buf_4
* cell instance $212 r0 *1 57.04,2.72
X$212 30 74 35 52 48 59 59 30 sky130_fd_sc_hd__dfrtp_1
* cell instance $247 m0 *1 11.04,8.16
X$247 30 69 70 32 41 59 59 30 sky130_fd_sc_hd__edfxtp_1
* cell instance $253 m0 *1 29.44,8.16
X$253 30 63 72 83 64 59 59 30 sky130_fd_sc_hd__edfxtp_1
* cell instance $256 m0 *1 41.86,8.16
X$256 59 44 59 30 64 30 sky130_fd_sc_hd__buf_4
* cell instance $264 m0 *1 63.48,8.16
X$264 30 74 50 52 77 59 59 30 sky130_fd_sc_hd__dfrtp_1
* cell instance $265 m0 *1 74.06,8.16
X$265 59 46 82 65 54 30 81 59 30 sky130_fd_sc_hd__nor4_1
* cell instance $266 m0 *1 77.74,8.16
X$266 59 66 65 45 59 30 30 sky130_fd_sc_hd__xnor2_1
* cell instance $272 m0 *1 91.54,8.16
X$272 30 74 55 67 132 59 59 30 sky130_fd_sc_hd__dfrtp_1
* cell instance $276 m0 *1 128.8,8.16
X$276 30 57 60 56 36 110 68 58 59 59 30 sky130_fd_sc_hd__mux4_1
* cell instance $281 r0 *1 1.38,8.16
X$281 59 62 59 30 37 30 sky130_fd_sc_hd__buf_4
* cell instance $282 r0 *1 4.14,8.16
X$282 30 63 95 32 37 59 59 30 sky130_fd_sc_hd__edfxtp_1
* cell instance $287 r0 *1 15.64,8.16
X$287 30 84 97 83 41 59 59 30 sky130_fd_sc_hd__edfxtp_1
* cell instance $289 r0 *1 30.36,8.16
X$289 30 84 100 83 64 59 59 30 sky130_fd_sc_hd__edfxtp_1
* cell instance $296 r0 *1 43.24,8.16
X$296 30 69 103 52 34 59 59 30 sky130_fd_sc_hd__edfxtp_1
* cell instance $299 r0 *1 66.24,8.16
X$299 30 77 50 88 53 59 59 30 sky130_fd_sc_hd__mux2_1
* cell instance $304 r0 *1 70.84,8.16
X$304 30 90 91 81 66 59 59 30 sky130_fd_sc_hd__mux2_2
* cell instance $305 r0 *1 74.98,8.16
X$305 30 74 79 124 105 59 59 30 sky130_fd_sc_hd__dfrtp_1
* cell instance $309 r0 *1 88.78,8.16
X$309 30 74 78 67 115 59 59 30 sky130_fd_sc_hd__dfrtp_1
* cell instance $315 r0 *1 98.9,8.16
X$315 30 87 98 67 43 59 59 30 sky130_fd_sc_hd__edfxtp_1
* cell instance $318 r0 *1 111.32,8.16
X$318 30 86 96 38 37 59 59 30 sky130_fd_sc_hd__edfxtp_1
* cell instance $326 r0 *1 126.04,8.16
X$326 30 86 56 38 34 59 59 30 sky130_fd_sc_hd__edfxtp_1
* cell instance $327 r0 *1 137.08,8.16
X$327 30 57 189 94 93 145 92 58 59 59 30 sky130_fd_sc_hd__mux4_1
* cell instance $332 m0 *1 4.6,13.6
X$332 30 63 112 32 41 59 59 30 sky130_fd_sc_hd__edfxtp_1
* cell instance $333 m0 *1 15.64,13.6
X$333 30 69 113 83 37 59 59 30 sky130_fd_sc_hd__edfxtp_1
* cell instance $339 m0 *1 32.2,13.6
X$339 30 39 102 83 34 59 59 30 sky130_fd_sc_hd__edfxtp_1
* cell instance $340 m0 *1 43.24,13.6
X$340 30 63 114 52 34 59 59 30 sky130_fd_sc_hd__edfxtp_1
* cell instance $344 m0 *1 57.04,13.6
X$344 30 74 106 52 131 59 59 30 sky130_fd_sc_hd__dfrtp_1
* cell instance $345 m0 *1 66.24,13.6
X$345 30 48 35 118 53 59 59 30 sky130_fd_sc_hd__mux2_1
* cell instance $346 m0 *1 72.68,13.6
X$346 30 91 85 81 66 59 59 30 sky130_fd_sc_hd__mux2i_4
* cell instance $350 m0 *1 85.1,13.6
X$350 30 74 101 67 117 59 59 30 sky130_fd_sc_hd__dfrtp_1
* cell instance $351 m0 *1 94.3,13.6
X$351 30 86 99 67 43 59 59 30 sky130_fd_sc_hd__edfxtp_1
* cell instance $356 m0 *1 112.24,13.6
X$356 30 109 111 38 37 59 59 30 sky130_fd_sc_hd__edfxtp_1
* cell instance $365 r0 *1 4.14,13.6
X$365 30 84 120 32 37 59 59 30 sky130_fd_sc_hd__edfxtp_1
* cell instance $369 r0 *1 17.48,13.6
X$369 30 125 128 40 95 120 113 121 59 59 30 sky130_fd_sc_hd__mux4_1
* cell instance $372 r0 *1 31.74,13.6
X$372 30 69 129 83 64 59 59 30 sky130_fd_sc_hd__edfxtp_1
* cell instance $378 r0 *1 48.3,13.6
X$378 30 125 166 102 114 122 103 121 59 59 30 sky130_fd_sc_hd__mux4_1
* cell instance $380 r0 *1 58.88,13.6
X$380 59 84 106 59 131 30 30 sky130_fd_sc_hd__xor2_1
* cell instance $383 r0 *1 64.4,13.6
X$383 30 134 123 106 59 59 30 sky130_fd_sc_hd__xnor2_2
* cell instance $388 r0 *1 73.6,13.6
X$388 59 46 82 107 54 30 91 59 30 sky130_fd_sc_hd__nor4_1
* cell instance $389 r0 *1 75.9,13.6
X$389 59 107 59 30 65 30 sky130_fd_sc_hd__inv_1
* cell instance $390 r0 *1 77.28,13.6
X$390 59 108 59 30 82 30 sky130_fd_sc_hd__inv_1
* cell instance $391 r0 *1 78.66,13.6
X$391 59 54 108 59 119 30 30 sky130_fd_sc_hd__xor2_1
* cell instance $392 r0 *1 81.88,13.6
X$392 30 105 79 136 53 59 59 30 sky130_fd_sc_hd__mux2_1
* cell instance $394 r0 *1 86.94,13.6
X$394 30 117 101 116 53 59 59 30 sky130_fd_sc_hd__mux2_1
* cell instance $395 r0 *1 91.08,13.6
X$395 30 115 78 133 53 59 59 30 sky130_fd_sc_hd__mux2_1
* cell instance $398 r0 *1 96.14,13.6
X$398 59 67 59 30 30 sky130_fd_sc_hd__clkinv_2
* cell instance $400 r0 *1 98.44,13.6
X$400 30 109 130 67 43 59 59 30 sky130_fd_sc_hd__edfxtp_1
* cell instance $401 r0 *1 109.48,13.6
X$401 30 87 127 38 37 59 59 30 sky130_fd_sc_hd__edfxtp_1
* cell instance $409 r0 *1 127.42,13.6
X$409 30 87 110 38 34 59 59 30 sky130_fd_sc_hd__edfxtp_1
* cell instance $427 m0 *1 7.36,19.04
X$427 30 39 126 32 41 59 59 30 sky130_fd_sc_hd__edfxtp_1
* cell instance $429 m0 *1 19.32,19.04
X$429 30 125 146 126 112 97 70 121 59 59 30 sky130_fd_sc_hd__mux4_1
* cell instance $431 m0 *1 29.44,19.04
X$431 30 39 149 83 64 59 59 30 sky130_fd_sc_hd__edfxtp_1
* cell instance $435 m0 *1 45.54,19.04
X$435 30 84 122 52 34 59 59 30 sky130_fd_sc_hd__edfxtp_1
* cell instance $439 m0 *1 64.4,19.04
X$439 30 74 123 124 154 59 59 30 sky130_fd_sc_hd__dfrtp_1
* cell instance $440 m0 *1 73.6,19.04
X$440 59 135 59 30 141 30 sky130_fd_sc_hd__inv_1
* cell instance $448 m0 *1 92,19.04
X$448 30 132 55 148 53 59 59 30 sky130_fd_sc_hd__mux2_1
* cell instance $452 m0 *1 102.12,19.04
X$452 30 125 147 99 73 98 130 58 59 59 30 sky130_fd_sc_hd__mux4_1
* cell instance $455 m0 *1 112.7,19.04
X$455 30 143 38 59 59 30 sky130_fd_sc_hd__clkbuf_16
* cell instance $456 m0 *1 121.9,19.04
X$456 30 109 68 38 34 59 59 30 sky130_fd_sc_hd__edfxtp_1
* cell instance $465 r0 *1 6.9,19.04
X$465 59 32 759 30 59 30 sky130_fd_sc_hd__clkbuf_1
* cell instance $476 r0 *1 24.38,19.04
X$476 30 138 139 157 179 156 59 59 30 sky130_fd_sc_hd__o22ai_2
* cell instance $478 r0 *1 30.82,19.04
X$478 30 137 83 59 59 30 sky130_fd_sc_hd__clkbuf_16
* cell instance $485 r0 *1 50.6,19.04
X$485 30 137 52 59 59 30 sky130_fd_sc_hd__clkbuf_16
* cell instance $488 r0 *1 64.4,19.04
X$488 59 153 123 154 59 30 30 sky130_fd_sc_hd__xnor2_1
* cell instance $493 r0 *1 70.84,19.04
X$493 30 140 155 46 59 59 30 sky130_fd_sc_hd__xor2_2
* cell instance $495 r0 *1 79.58,19.04
X$495 59 152 151 58 49 30 59 142 30 sky130_fd_sc_hd__and4_1
* cell instance $503 r0 *1 98.44,19.04
X$503 30 143 67 59 59 30 sky130_fd_sc_hd__clkbuf_16
* cell instance $507 r0 *1 115.92,19.04
X$507 30 57 163 96 71 127 111 174 59 59 30 sky130_fd_sc_hd__mux4_1
* cell instance $512 r0 *1 130.64,19.04
X$512 30 87 145 38 64 59 59 30 sky130_fd_sc_hd__edfxtp_1
* cell instance $526 m0 *1 2.3,24.48
X$526 30 137 32 59 59 30 sky130_fd_sc_hd__clkbuf_16
* cell instance $527 m0 *1 11.5,24.48
X$527 30 84 178 32 43 59 59 30 sky130_fd_sc_hd__edfxtp_1
* cell instance $529 m0 *1 24.38,24.48
X$529 30 264 164 157 146 156 59 59 30 sky130_fd_sc_hd__o22ai_2
* cell instance $533 m0 *1 30.82,24.48
X$533 30 83 744 59 59 30 sky130_fd_sc_hd__clkbuf_8
* cell instance $535 m0 *1 36.34,24.48
X$535 30 125 180 149 72 100 129 121 59 59 30 sky130_fd_sc_hd__mux4_1
* cell instance $539 m0 *1 54.28,24.48
X$539 59 181 157 166 156 158 30 59 30 sky130_fd_sc_hd__o22ai_1
* cell instance $541 m0 *1 57.04,24.48
X$541 30 182 184 183 53 59 59 30 sky130_fd_sc_hd__mux2_1
* cell instance $542 m0 *1 61.18,24.48
X$542 30 183 152 203 165 59 59 30 sky130_fd_sc_hd__ha_1
* cell instance $544 m0 *1 67.62,24.48
X$544 59 170 159 118 30 59 30 sky130_fd_sc_hd__nor2_1
* cell instance $545 m0 *1 69,24.48
X$545 30 155 141 54 171 160 59 59 30 sky130_fd_sc_hd__fa_2
* cell instance $546 m0 *1 77.28,24.48
X$546 59 140 155 222 30 59 229 30 sky130_fd_sc_hd__a21o_1
* cell instance $551 m0 *1 86.48,24.48
X$551 59 161 58 162 59 30 30 sky130_fd_sc_hd__xnor2_1
* cell instance $552 m0 *1 89.7,24.48
X$552 59 199 139 116 30 59 30 sky130_fd_sc_hd__nor2_1
* cell instance $554 m0 *1 91.54,24.48
X$554 30 74 173 67 162 59 59 30 sky130_fd_sc_hd__dfrtp_1
* cell instance $563 m0 *1 125.12,24.48
X$563 30 86 94 38 64 59 59 30 sky130_fd_sc_hd__edfxtp_1
* cell instance $572 r0 *1 4.14,24.48
X$572 30 39 193 32 43 59 59 30 sky130_fd_sc_hd__edfxtp_1
* cell instance $576 r0 *1 17.48,24.48
X$576 30 125 179 193 192 178 195 121 59 59 30 sky130_fd_sc_hd__mux4_1
* cell instance $578 r0 *1 27.6,24.48
X$578 30 63 197 83 167 59 59 30 sky130_fd_sc_hd__edfxtp_1
* cell instance $579 r0 *1 38.64,24.48
X$579 59 326 157 128 156 159 30 59 30 sky130_fd_sc_hd__o22ai_1
* cell instance $587 r0 *1 51.98,24.48
X$587 59 168 157 180 156 169 30 59 30 sky130_fd_sc_hd__o22ai_1
* cell instance $588 r0 *1 54.28,24.48
X$588 30 74 165 52 182 59 59 30 sky130_fd_sc_hd__dfrtp_1
* cell instance $589 r0 *1 63.48,24.48
X$589 59 190 169 76 30 59 30 sky130_fd_sc_hd__nor2_1
* cell instance $592 r0 *1 67.16,24.48
X$592 59 191 158 88 30 59 30 sky130_fd_sc_hd__nor2_1
* cell instance $595 r0 *1 70.84,24.48
X$595 30 134 254 186 59 59 30 sky130_fd_sc_hd__xnor2_4
* cell instance $596 r0 *1 80.96,24.48
X$596 59 140 187 209 59 30 30 sky130_fd_sc_hd__nand2_1
* cell instance $597 r0 *1 82.34,24.48
X$597 30 187 208 171 160 59 59 30 sky130_fd_sc_hd__ha_1
* cell instance $599 r0 *1 87.4,24.48
X$599 30 151 156 58 59 59 30 sky130_fd_sc_hd__nand2_4
* cell instance $600 r0 *1 91.54,24.48
X$600 59 172 164 133 30 59 30 sky130_fd_sc_hd__nor2_1
* cell instance $602 r0 *1 93.84,24.48
X$602 59 144 205 148 30 59 30 sky130_fd_sc_hd__nor2_1
* cell instance $609 r0 *1 100.74,24.48
X$609 59 173 59 30 58 30 sky130_fd_sc_hd__buf_4
* cell instance $610 r0 *1 103.5,24.48
X$610 59 173 30 174 59 30 sky130_fd_sc_hd__clkbuf_4
* cell instance $613 r0 *1 107.64,24.48
X$613 59 147 175 198 177 199 30 59 30 sky130_fd_sc_hd__o22ai_1
* cell instance $614 r0 *1 109.94,24.48
X$614 30 163 170 175 176 177 59 59 30 sky130_fd_sc_hd__o22ai_2
* cell instance $615 r0 *1 114.54,24.48
X$615 30 87 196 67 41 59 59 30 sky130_fd_sc_hd__edfxtp_1
* cell instance $618 r0 *1 137.08,24.48
X$618 30 60 191 175 351 177 59 59 30 sky130_fd_sc_hd__o22ai_2
* cell instance $632 m0 *1 2.3,29.92
X$632 30 63 192 32 43 59 59 30 sky130_fd_sc_hd__edfxtp_1
* cell instance $634 m0 *1 15.18,29.92
X$634 30 69 195 32 43 59 59 30 sky130_fd_sc_hd__edfxtp_1
* cell instance $638 m0 *1 29.44,29.92
X$638 30 39 210 83 167 59 59 30 sky130_fd_sc_hd__edfxtp_1
* cell instance $640 m0 *1 42.32,29.92
X$640 30 39 219 83 31 59 59 30 sky130_fd_sc_hd__edfxtp_1
* cell instance $641 m0 *1 53.36,29.92
X$641 59 53 185 202 59 30 30 sky130_fd_sc_hd__xnor2_1
* cell instance $643 m0 *1 57.04,29.92
X$643 30 74 203 52 202 59 59 30 sky130_fd_sc_hd__dfrtp_1
* cell instance $644 m0 *1 66.24,29.92
X$644 30 108 135 203 204 59 59 30 sky130_fd_sc_hd__ha_1
* cell instance $645 m0 *1 70.84,29.92
X$645 30 85 49 186 53 59 59 30 sky130_fd_sc_hd__o21ai_4
* cell instance $646 m0 *1 76.82,29.92
X$646 59 49 185 223 59 30 30 sky130_fd_sc_hd__nand2_1
* cell instance $647 m0 *1 78.2,29.92
X$647 30 209 188 135 66 59 59 30 sky130_fd_sc_hd__o21ai_4
* cell instance $649 m0 *1 84.64,29.92
X$649 59 222 140 208 30 59 188 30 sky130_fd_sc_hd__a21oi_1
* cell instance $650 m0 *1 86.48,29.92
X$650 30 237 175 171 59 59 30 sky130_fd_sc_hd__nand2_4
* cell instance $651 m0 *1 90.62,29.92
X$651 30 109 200 124 31 59 59 30 sky130_fd_sc_hd__edfxtp_1
* cell instance $652 m0 *1 101.66,29.92
X$652 30 201 221 212 236 220 200 174 59 59 30 sky130_fd_sc_hd__mux4_1
* cell instance $656 m0 *1 124.2,29.92
X$656 30 86 216 213 167 59 59 30 sky130_fd_sc_hd__edfxtp_1
* cell instance $660 m0 *1 139.84,29.92
X$660 30 189 175 177 214 190 59 59 30 sky130_fd_sc_hd__o22ai_4
* cell instance $672 r0 *1 20.7,29.92
X$672 30 84 235 225 167 59 59 30 sky130_fd_sc_hd__edfxtp_1
* cell instance $673 r0 *1 31.74,29.92
X$673 30 125 226 210 197 235 234 121 59 59 30 sky130_fd_sc_hd__mux4_1
* cell instance $679 r0 *1 43.24,29.92
X$679 30 69 211 52 31 59 59 30 sky130_fd_sc_hd__edfxtp_1
* cell instance $680 r0 *1 54.28,29.92
X$680 30 185 241 219 227 253 211 184 59 59 30 sky130_fd_sc_hd__mux4_1
* cell instance $681 r0 *1 63.94,29.92
X$681 59 165 59 30 121 30 sky130_fd_sc_hd__buf_4
* cell instance $683 r0 *1 67.62,29.92
X$683 59 203 30 201 59 30 sky130_fd_sc_hd__clkbuf_4
* cell instance $688 r0 *1 71.76,29.92
X$688 30 107 240 237 228 59 59 30 sky130_fd_sc_hd__ha_1
* cell instance $689 r0 *1 76.36,29.92
X$689 30 74 151 124 239 59 59 30 sky130_fd_sc_hd__dfrtp_4
* cell instance $690 r0 *1 86.94,29.92
X$690 30 86 212 124 31 59 59 30 sky130_fd_sc_hd__edfxtp_1
* cell instance $695 r0 *1 98.9,29.92
X$695 30 87 220 67 31 59 59 30 sky130_fd_sc_hd__edfxtp_1
* cell instance $698 r0 *1 112.7,29.92
X$698 59 213 59 30 30 sky130_fd_sc_hd__clkinv_2
* cell instance $699 r0 *1 114.54,29.92
X$699 30 109 232 213 41 59 59 30 sky130_fd_sc_hd__edfxtp_1
* cell instance $703 r0 *1 126.04,29.92
X$703 30 217 172 175 337 177 59 59 30 sky130_fd_sc_hd__o22ai_2
* cell instance $706 r0 *1 132.02,29.92
X$706 30 109 92 213 64 59 59 30 sky130_fd_sc_hd__edfxtp_1
* cell instance $708 r0 *1 143.52,29.92
X$708 59 215 59 230 30 30 sky130_fd_sc_hd__dlygate4sd3_1
* cell instance $714 m0 *1 1.38,35.36
X$714 30 63 231 32 224 59 59 30 sky130_fd_sc_hd__edfxtp_1
* cell instance $716 m0 *1 13.34,35.36
X$716 30 69 252 32 224 59 59 30 sky130_fd_sc_hd__edfxtp_1
* cell instance $721 m0 *1 30.36,35.36
X$721 30 69 234 83 167 59 59 30 sky130_fd_sc_hd__edfxtp_1
* cell instance $724 m0 *1 45.54,35.36
X$724 30 63 227 52 31 59 59 30 sky130_fd_sc_hd__edfxtp_1
* cell instance $728 m0 *1 59.8,35.36
X$728 59 372 157 226 156 205 30 59 30 sky130_fd_sc_hd__o22ai_1
* cell instance $730 m0 *1 63.02,35.36
X$730 59 228 238 243 59 30 30 sky130_fd_sc_hd__and2_0
* cell instance $731 m0 *1 68.08,35.36
X$731 59 121 59 30 171 30 sky130_fd_sc_hd__clkinvlp_4
* cell instance $732 m0 *1 70.84,35.36
X$732 59 107 240 229 59 254 30 30 sky130_fd_sc_hd__a21oi_2
* cell instance $733 m0 *1 74.06,35.36
X$733 59 207 151 239 59 30 30 sky130_fd_sc_hd__xnor2_1
* cell instance $735 m0 *1 78.2,35.36
X$735 30 140 222 245 238 59 59 30 sky130_fd_sc_hd__ha_1
* cell instance $739 m0 *1 84.64,35.36
X$739 59 151 59 30 237 30 sky130_fd_sc_hd__clkinvlp_4
* cell instance $741 m0 *1 87.86,35.36
X$741 30 237 177 184 59 59 30 sky130_fd_sc_hd__nand2_4
* cell instance $747 m0 *1 112.24,35.36
X$747 30 86 233 213 41 59 59 30 sky130_fd_sc_hd__edfxtp_1
* cell instance $748 m0 *1 123.28,35.36
X$748 30 57 217 233 218 196 232 174 59 59 30 sky130_fd_sc_hd__mux4_1
* cell instance $755 m0 *1 144.44,35.36
X$755 59 230 59 30 167 30 sky130_fd_sc_hd__buf_4
* cell instance $758 r0 *1 4.14,35.36
X$758 30 39 250 32 224 59 59 30 sky130_fd_sc_hd__edfxtp_1
* cell instance $761 r0 *1 15.64,35.36
X$761 30 125 267 250 231 261 252 121 59 59 30 sky130_fd_sc_hd__mux4_1
* cell instance $762 r0 *1 25.3,35.36
X$762 30 137 225 59 59 30 sky130_fd_sc_hd__clkbuf_16
* cell instance $770 r0 *1 44.62,35.36
X$770 30 84 253 52 31 59 59 30 sky130_fd_sc_hd__edfxtp_1
* cell instance $773 r0 *1 61.18,35.36
X$773 59 51 242 270 59 30 30 sky130_fd_sc_hd__nand2_1
* cell instance $774 r0 *1 62.56,35.36
X$774 59 51 242 243 244 59 30 30 sky130_fd_sc_hd__nand3_1
* cell instance $777 r0 *1 70.84,35.36
X$777 59 156 241 157 317 268 30 59 30 sky130_fd_sc_hd__o22ai_1
* cell instance $778 r0 *1 73.14,35.36
X$778 30 151 157 245 59 59 30 sky130_fd_sc_hd__nand2_4
* cell instance $779 r0 *1 77.28,35.36
X$779 30 246 109 269 258 59 59 30 sky130_fd_sc_hd__and3_4
* cell instance $780 r0 *1 81.42,35.36
X$780 59 171 245 223 206 30 59 30 sky130_fd_sc_hd__nor3_1
* cell instance $782 r0 *1 83.72,35.36
X$782 30 143 124 59 59 30 sky130_fd_sc_hd__clkbuf_16
* cell instance $783 r0 *1 92.92,35.36
X$783 30 201 125 59 59 30 sky130_fd_sc_hd__clkbuf_8
* cell instance $786 r0 *1 98.44,35.36
X$786 59 177 255 175 221 266 30 59 30 sky130_fd_sc_hd__o22ai_1
* cell instance $788 r0 *1 101.66,35.36
X$788 59 265 175 343 177 259 30 59 30 sky130_fd_sc_hd__o22ai_1
* cell instance $791 r0 *1 105.34,35.36
X$791 30 143 213 59 59 30 sky130_fd_sc_hd__clkbuf_16
* cell instance $792 r0 *1 114.54,35.36
X$792 30 109 247 213 167 59 59 30 sky130_fd_sc_hd__edfxtp_1
* cell instance $796 r0 *1 126.5,35.36
X$796 30 57 251 216 194 248 247 58 59 59 30 sky130_fd_sc_hd__mux4_1
* cell instance $799 r0 *1 137.54,35.36
X$799 30 251 144 175 249 177 59 59 30 sky130_fd_sc_hd__o22ai_2
* cell instance $817 m0 *1 8.28,40.8
X$817 30 84 261 225 224 59 59 30 sky130_fd_sc_hd__edfxtp_1
* cell instance $818 m0 *1 19.32,40.8
X$818 30 125 264 273 256 263 284 184 59 59 30 sky130_fd_sc_hd__mux4_1
* cell instance $821 m0 *1 29.9,40.8
X$821 30 364 275 157 267 156 59 59 30 sky130_fd_sc_hd__o22ai_2
* cell instance $829 m0 *1 52.44,40.8
X$829 30 246 69 257 243 59 59 30 sky130_fd_sc_hd__and3_4
* cell instance $831 m0 *1 57.04,40.8
X$831 30 246 63 269 243 59 59 30 sky130_fd_sc_hd__and3_4
* cell instance $832 m0 *1 61.18,40.8
X$832 30 746 257 204 160 59 59 30 sky130_fd_sc_hd__ha_1
* cell instance $833 m0 *1 65.78,40.8
X$833 59 276 59 30 204 30 sky130_fd_sc_hd__inv_1
* cell instance $834 m0 *1 67.16,40.8
X$834 59 186 270 90 59 286 30 30 sky130_fd_sc_hd__a21oi_2
* cell instance $835 m0 *1 72.22,40.8
X$835 30 51 277 90 186 59 59 30 sky130_fd_sc_hd__a21boi_2
* cell instance $836 m0 *1 76.36,40.8
X$836 30 246 87 287 258 59 59 30 sky130_fd_sc_hd__and3_4
* cell instance $838 m0 *1 81.42,40.8
X$838 59 58 59 30 245 30 sky130_fd_sc_hd__inv_1
* cell instance $842 m0 *1 84.64,40.8
X$842 59 266 268 136 30 59 30 sky130_fd_sc_hd__nor2_1
* cell instance $843 m0 *1 86.02,40.8
X$843 59 124 59 30 30 sky130_fd_sc_hd__clkinv_1
* cell instance $846 m0 *1 88.78,40.8
X$846 59 259 275 150 30 59 30 sky130_fd_sc_hd__nor2_1
* cell instance $849 m0 *1 92.46,40.8
X$849 30 125 265 285 279 260 280 58 59 59 30 sky130_fd_sc_hd__mux4_1
* cell instance $855 m0 *1 112.24,40.8
X$855 30 87 248 213 167 59 59 30 sky130_fd_sc_hd__edfxtp_1
* cell instance $857 m0 *1 123.74,40.8
X$857 30 281 282 262 64 59 59 30 sky130_fd_sc_hd__edfxtp_1
* cell instance $865 r0 *1 4.14,40.8
X$865 30 272 284 225 41 59 59 30 sky130_fd_sc_hd__edfxtp_1
* cell instance $869 r0 *1 17.48,40.8
X$869 59 225 30 59 30 sky130_fd_sc_hd__clkinv_4
* cell instance $872 r0 *1 22.08,40.8
X$872 30 274 256 225 41 59 59 30 sky130_fd_sc_hd__edfxtp_1
* cell instance $883 r0 *1 56.12,40.8
X$883 30 246 39 287 243 59 59 30 sky130_fd_sc_hd__and3_4
* cell instance $884 r0 *1 60.26,40.8
X$884 30 749 242 276 160 59 59 30 sky130_fd_sc_hd__ha_1
* cell instance $885 r0 *1 64.86,40.8
X$885 59 160 51 238 276 59 298 30 30 sky130_fd_sc_hd__nand4_1
* cell instance $886 r0 *1 67.16,40.8
X$886 59 271 228 59 297 30 30 sky130_fd_sc_hd__xor2_1
* cell instance $889 r0 *1 70.84,40.8
X$889 30 748 287 276 288 59 59 30 sky130_fd_sc_hd__ha_1
* cell instance $890 r0 *1 75.44,40.8
X$890 59 228 238 258 30 59 30 sky130_fd_sc_hd__nor2b_1
* cell instance $891 r0 *1 77.74,40.8
X$891 30 246 294 257 258 59 59 30 sky130_fd_sc_hd__and3_4
* cell instance $892 r0 *1 81.88,40.8
X$892 30 278 86 287 277 59 59 30 sky130_fd_sc_hd__and3_4
* cell instance $894 r0 *1 86.48,40.8
X$894 30 87 260 124 224 59 59 30 sky130_fd_sc_hd__edfxtp_1
* cell instance $901 r0 *1 114.08,40.8
X$901 30 281 290 213 41 59 59 30 sky130_fd_sc_hd__edfxtp_1
* cell instance $908 r0 *1 132.48,40.8
X$908 30 283 289 262 64 59 59 30 sky130_fd_sc_hd__edfxtp_1
* cell instance $923 m0 *1 4.6,46.24
X$923 30 272 292 299 37 59 59 30 sky130_fd_sc_hd__edfxtp_1
* cell instance $926 m0 *1 17.94,46.24
X$926 30 300 305 225 37 59 59 30 sky130_fd_sc_hd__edfxtp_1
* cell instance $931 m0 *1 37.72,46.24
X$931 30 274 306 293 64 59 59 30 sky130_fd_sc_hd__edfxtp_1
* cell instance $933 m0 *1 52.44,46.24
X$933 30 246 272 257 295 59 59 30 sky130_fd_sc_hd__and3_4
* cell instance $935 m0 *1 57.04,46.24
X$935 30 74 276 301 296 59 59 30 sky130_fd_sc_hd__dfrtp_1
* cell instance $936 m0 *1 66.24,46.24
X$936 30 308 269 204 288 59 59 30 sky130_fd_sc_hd__ha_1
* cell instance $938 m0 *1 71.76,46.24
X$938 30 74 228 124 297 59 59 30 sky130_fd_sc_hd__dfrtp_2
* cell instance $946 m0 *1 95.68,46.24
X$946 30 281 307 124 37 59 59 30 sky130_fd_sc_hd__edfxtp_1
* cell instance $951 m0 *1 112.24,46.24
X$951 30 294 291 213 41 59 59 30 sky130_fd_sc_hd__edfxtp_1
* cell instance $954 m0 *1 127.42,46.24
X$954 30 281 302 262 167 59 59 30 sky130_fd_sc_hd__edfxtp_1
* cell instance $961 r0 *1 4.14,46.24
X$961 30 304 263 299 41 59 59 30 sky130_fd_sc_hd__edfxtp_1
* cell instance $969 r0 *1 20.7,46.24
X$969 30 300 273 225 41 59 59 30 sky130_fd_sc_hd__edfxtp_1
* cell instance $970 r0 *1 31.74,46.24
X$970 30 300 319 293 64 59 59 30 sky130_fd_sc_hd__edfxtp_1
* cell instance $975 r0 *1 43.24,46.24
X$975 30 272 320 52 64 59 59 30 sky130_fd_sc_hd__edfxtp_1
* cell instance $977 r0 *1 54.74,46.24
X$977 30 246 300 287 295 59 59 30 sky130_fd_sc_hd__and3_4
* cell instance $979 r0 *1 60.72,46.24
X$979 30 74 160 301 327 59 59 30 sky130_fd_sc_hd__dfrtp_2
* cell instance $984 r0 *1 70.84,46.24
X$984 30 74 238 301 309 59 59 30 sky130_fd_sc_hd__dfrtp_2
* cell instance $986 r0 *1 81.42,46.24
X$986 59 228 238 278 30 59 30 sky130_fd_sc_hd__nor2_1
* cell instance $987 r0 *1 82.8,46.24
X$987 30 86 285 124 224 59 59 30 sky130_fd_sc_hd__edfxtp_1
* cell instance $994 r0 *1 98.44,46.24
X$994 30 303 316 312 37 59 59 30 sky130_fd_sc_hd__edfxtp_1
* cell instance $995 r0 *1 109.48,46.24
X$995 30 294 313 262 37 59 59 30 sky130_fd_sc_hd__edfxtp_1
* cell instance $1005 r0 *1 128.34,46.24
X$1005 30 303 314 262 64 59 59 30 sky130_fd_sc_hd__edfxtp_1
* cell instance $1012 m0 *1 4.6,51.68
X$1012 30 304 322 299 37 59 59 30 sky130_fd_sc_hd__edfxtp_1
* cell instance $1013 m0 *1 15.64,51.68
X$1013 30 274 325 225 37 59 59 30 sky130_fd_sc_hd__edfxtp_1
* cell instance $1019 m0 *1 32.2,51.68
X$1019 59 121 59 30 184 30 sky130_fd_sc_hd__buf_4
* cell instance $1021 m0 *1 35.42,51.68
X$1021 30 304 310 293 64 59 59 30 sky130_fd_sc_hd__edfxtp_1
* cell instance $1022 m0 *1 46.46,51.68
X$1022 30 185 168 319 306 310 320 184 59 59 30 sky130_fd_sc_hd__mux4_1
* cell instance $1025 m0 *1 57.04,51.68
X$1025 30 246 274 269 295 59 59 30 sky130_fd_sc_hd__and3_4
* cell instance $1026 m0 *1 61.18,51.68
X$1026 59 246 204 296 59 30 30 sky130_fd_sc_hd__xnor2_1
* cell instance $1028 m0 *1 64.86,51.68
X$1028 30 201 317 323 321 311 318 121 59 59 30 sky130_fd_sc_hd__mux4_1
* cell instance $1029 m0 *1 74.52,51.68
X$1029 59 286 238 59 309 30 30 sky130_fd_sc_hd__xor2_1
* cell instance $1031 m0 *1 79.58,51.68
X$1031 30 278 281 257 277 59 59 30 sky130_fd_sc_hd__and3_4
* cell instance $1035 m0 *1 86.48,51.68
X$1035 30 109 280 124 224 59 59 30 sky130_fd_sc_hd__edfxtp_1
* cell instance $1036 m0 *1 97.52,51.68
X$1036 30 283 328 312 37 59 59 30 sky130_fd_sc_hd__edfxtp_1
* cell instance $1041 m0 *1 112.24,51.68
X$1041 30 303 315 312 41 59 59 30 sky130_fd_sc_hd__edfxtp_1
* cell instance $1045 m0 *1 128.34,51.68
X$1045 30 294 324 262 64 59 59 30 sky130_fd_sc_hd__edfxtp_1
* cell instance $1051 r0 *1 5.98,51.68
X$1051 30 299 753 59 59 30 sky130_fd_sc_hd__clkbuf_16
* cell instance $1057 r0 *1 22.08,51.68
X$1057 30 185 326 305 325 322 292 184 59 59 30 sky130_fd_sc_hd__mux4_1
* cell instance $1059 r0 *1 33.58,51.68
X$1059 30 137 293 59 59 30 sky130_fd_sc_hd__clkbuf_16