
* cell clock_domain_crossing_fifo
* pin rd_clk
* pin rd_data[3]
* pin rd_data[29]
* pin rd_data[5]
* pin wr_data[28]
* pin rd_data[28]
* pin wr_data[2]
* pin rd_data[2]
* pin wr_data[4]
* pin rd_data[4]
* pin rd_data[30]
* pin wr_data[6]
* pin wr_data[9]
* pin rd_data[6]
* pin wr_data[8]
* pin rd_data[9]
* pin rd_data[8]
* pin wr_en
* pin wr_rst_n
* pin wr_count[1]
* pin wr_count[0]
* pin wr_count[2]
* pin wr_count[4]
* pin wr_count[3]
* pin wr_almost_full
* pin rd_rst_n
* pin rd_count[4]
* pin rd_en
* pin rd_almost_empty
* pin wr_full
* pin rd_empty
* pin rd_count[3]
* pin rd_count[2]
* pin rd_count[0]
* pin rd_count[1]
* pin rd_data[31]
* pin rd_data[7]
* pin wr_data[30]
* pin wr_data[31]
* pin wr_data[12]
* pin wr_data[14]
* pin wr_data[7]
* pin wr_data[16]
* pin wr_data[3]
* pin wr_data[5]
* pin wr_data[0]
* pin wr_data[29]
* pin wr_clk
* pin rd_data[16]
* pin rd_data[26]
* pin rd_data[27]
* pin wr_data[10]
* pin rd_data[0]
* pin wr_data[27]
* pin wr_data[18]
* pin rd_data[14]
* pin rd_data[12]
* pin rd_data[25]
* pin rd_data[18]
* pin wr_data[25]
* pin rd_data[10]
* pin rd_data[23]
* pin wr_data[23]
* pin rd_data[15]
* pin rd_data[13]
* pin wr_data[21]
* pin rd_data[19]
* pin wr_data[20]
* pin rd_data[21]
* pin rd_data[11]
* pin rd_data[24]
* pin rd_data[1]
* pin rd_data[22]
* pin rd_data[17]
* pin rd_data[20]
* pin wr_data[26]
* pin wr_data[24]
* pin wr_data[1]
* pin wr_data[22]
* pin wr_data[19]
* pin wr_data[17]
* pin wr_data[11]
* pin wr_data[15]
* pin wr_data[13]
* pin NWELL
* pin PWELL,gf180mcu_gnd
.SUBCKT clock_domain_crossing_fifo 1 2 3 4 5 6 7 8 9 10 11 12 13 14 15 16 17 18
+ 19 20 21 22 23 24 25 273 409 431 432 433 458 459 491 580 581 653 707 924 979
+ 996 997 1008 1027 1046 1134 1154 1170 1223 1395 1408 1409 1434 1462 1475 1496
+ 1498 1499 1672 1727 1773 1803 1978 2029 2068 2069 2153 2268 2270 2272 2273
+ 2275 2278 2279 2283 2284 2285 2286 2287 2288 2289 2290 2291 2292 2293 2294
+ 2295
* net 1 rd_clk
* net 2 rd_data[3]
* net 3 rd_data[29]
* net 4 rd_data[5]
* net 5 wr_data[28]
* net 6 rd_data[28]
* net 7 wr_data[2]
* net 8 rd_data[2]
* net 9 wr_data[4]
* net 10 rd_data[4]
* net 11 rd_data[30]
* net 12 wr_data[6]
* net 13 wr_data[9]
* net 14 rd_data[6]
* net 15 wr_data[8]
* net 16 rd_data[9]
* net 17 rd_data[8]
* net 18 wr_en
* net 19 wr_rst_n
* net 20 wr_count[1]
* net 21 wr_count[0]
* net 22 wr_count[2]
* net 23 wr_count[4]
* net 24 wr_count[3]
* net 25 wr_almost_full
* net 273 rd_rst_n
* net 409 rd_count[4]
* net 431 rd_en
* net 432 rd_almost_empty
* net 433 wr_full
* net 458 rd_empty
* net 459 rd_count[3]
* net 491 rd_count[2]
* net 580 rd_count[0]
* net 581 rd_count[1]
* net 653 rd_data[31]
* net 707 rd_data[7]
* net 924 wr_data[30]
* net 979 wr_data[31]
* net 996 wr_data[12]
* net 997 wr_data[14]
* net 1008 wr_data[7]
* net 1027 wr_data[16]
* net 1046 wr_data[3]
* net 1134 wr_data[5]
* net 1154 wr_data[0]
* net 1170 wr_data[29]
* net 1223 wr_clk
* net 1395 rd_data[16]
* net 1408 rd_data[26]
* net 1409 rd_data[27]
* net 1434 wr_data[10]
* net 1462 rd_data[0]
* net 1475 wr_data[27]
* net 1496 wr_data[18]
* net 1498 rd_data[14]
* net 1499 rd_data[12]
* net 1672 rd_data[25]
* net 1727 rd_data[18]
* net 1773 wr_data[25]
* net 1803 rd_data[10]
* net 1978 rd_data[23]
* net 2029 wr_data[23]
* net 2068 rd_data[15]
* net 2069 rd_data[13]
* net 2153 wr_data[21]
* net 2268 rd_data[19]
* net 2270 wr_data[20]
* net 2272 rd_data[21]
* net 2273 rd_data[11]
* net 2275 rd_data[24]
* net 2278 rd_data[1]
* net 2279 rd_data[22]
* net 2283 rd_data[17]
* net 2284 rd_data[20]
* net 2285 wr_data[26]
* net 2286 wr_data[24]
* net 2287 wr_data[1]
* net 2288 wr_data[22]
* net 2289 wr_data[19]
* net 2290 wr_data[17]
* net 2291 wr_data[11]
* net 2292 wr_data[15]
* net 2293 wr_data[13]
* net 2294 NWELL
* net 2295 PWELL,gf180mcu_gnd
* cell instance $4 m0 *1 100.8,15.12
X$4 2295 58 1 2294 gf180mcu_fd_sc_mcu9t5v0__buf_16
* cell instance $7 r0 *1 109.76,15.12
X$7 82 2294 2295 2 gf180mcu_fd_sc_mcu9t5v0__dlyb_2
* cell instance $11 r0 *1 103.04,5.04
X$11 36 2294 2295 3 gf180mcu_fd_sc_mcu9t5v0__dlyb_2
* cell instance $16 m0 *1 128.8,15.12
X$16 59 2294 2295 4 gf180mcu_fd_sc_mcu9t5v0__dlyb_2
* cell instance $20 r0 *1 137.2,5.04
X$20 2295 28 5 2294 gf180mcu_fd_sc_mcu9t5v0__dlyc_2
* cell instance $23 r0 *1 128.8,5.04
X$23 37 2294 2295 6 gf180mcu_fd_sc_mcu9t5v0__dlyb_2
* cell instance $28 r0 *1 183.68,5.04
X$28 2295 29 7 2294 gf180mcu_fd_sc_mcu9t5v0__dlyc_2
* cell instance $32 m0 *1 190.96,15.12
X$32 45 2294 2295 8 gf180mcu_fd_sc_mcu9t5v0__dlyb_2
* cell instance $36 r0 *1 224.56,5.04
X$36 2295 30 9 2294 gf180mcu_fd_sc_mcu9t5v0__dlyc_2
* cell instance $39 r0 *1 236.88,5.04
X$39 38 2294 2295 10 gf180mcu_fd_sc_mcu9t5v0__dlyb_2
* cell instance $43 m0 *1 228.48,15.12
X$43 47 2294 2295 11 gf180mcu_fd_sc_mcu9t5v0__dlyb_2
* cell instance $48 r0 *1 253.12,5.04
X$48 2295 32 12 2294 gf180mcu_fd_sc_mcu9t5v0__dlyc_2
* cell instance $52 r0 *1 278.88,5.04
X$52 2295 33 13 2294 gf180mcu_fd_sc_mcu9t5v0__dlyc_2
* cell instance $56 r0 *1 291.2,5.04
X$56 39 2294 2295 14 gf180mcu_fd_sc_mcu9t5v0__dlyb_2
* cell instance $60 r0 *1 301.28,5.04
X$60 2295 34 15 2294 gf180mcu_fd_sc_mcu9t5v0__dlyc_2
* cell instance $63 m0 *1 351.68,15.12
X$63 68 2294 2295 16 gf180mcu_fd_sc_mcu9t5v0__dlyb_2
* cell instance $67 r0 *1 334.32,5.04
X$67 40 2294 2295 17 gf180mcu_fd_sc_mcu9t5v0__dlyb_2
* cell instance $72 m0 *1 347.2,15.12
X$72 18 2294 2295 53 gf180mcu_fd_sc_mcu9t5v0__clkbuf_2
* cell instance $76 r0 *1 348.88,5.04
X$76 2295 35 19 2294 gf180mcu_fd_sc_mcu9t5v0__dlyc_2
* cell instance $79 r0 *1 390.32,5.04
X$79 69 2294 2295 20 gf180mcu_fd_sc_mcu9t5v0__dlyb_2
* cell instance $83 r0 *1 402.64,5.04
X$83 41 2294 2295 21 gf180mcu_fd_sc_mcu9t5v0__dlyb_2
* cell instance $88 r0 *1 411.04,5.04
X$88 42 2294 2295 22 gf180mcu_fd_sc_mcu9t5v0__dlyb_2
* cell instance $91 r0 *1 441.84,5.04
X$91 43 2294 2295 23 gf180mcu_fd_sc_mcu9t5v0__dlyb_2
* cell instance $96 r0 *1 431.76,5.04
X$96 27 2294 2295 24 gf180mcu_fd_sc_mcu9t5v0__dlyb_2
* cell instance $99 m0 *1 441.28,15.12
X$99 56 2294 2295 25 gf180mcu_fd_sc_mcu9t5v0__dlyb_2
* cell instance $102 m0 *1 350,35.28
X$102 53 2294 26 120 2295 139 gf180mcu_fd_sc_mcu9t5v0__and3_2
* cell instance $104 m0 *1 357.28,25.2
X$104 2295 26 91 2294 gf180mcu_fd_sc_mcu9t5v0__buf_8
* cell instance $107 r0 *1 344.4,5.04
X$107 35 2294 2295 26 gf180mcu_fd_sc_mcu9t5v0__buf_2
* cell instance $109 m0 *1 353.36,45.36
X$109 53 2294 26 158 2295 245 gf180mcu_fd_sc_mcu9t5v0__and3_2
* cell instance $112 r0 *1 350,35.28
X$112 53 2294 26 149 2295 150 gf180mcu_fd_sc_mcu9t5v0__and3_2
* cell instance $117 r0 *1 350,45.36
X$117 53 2294 26 205 2295 243 gf180mcu_fd_sc_mcu9t5v0__and3_2
* cell instance $120 m0 *1 430.08,15.12
X$120 2295 2294 55 27 gf180mcu_fd_sc_mcu9t5v0__clkinv_2
* cell instance $122 m0 *1 139.44,15.12
X$122 2295 2294 28 189 gf180mcu_fd_sc_mcu9t5v0__clkbuf_3
* cell instance $127 m0 *1 183.12,15.12
X$127 2295 2294 29 83 gf180mcu_fd_sc_mcu9t5v0__clkbuf_3
* cell instance $132 r0 *1 220.08,5.04
X$132 30 2294 2295 64 gf180mcu_fd_sc_mcu9t5v0__buf_2
* cell instance $140 m0 *1 282.8,35.28
X$140 31 2294 2295 114 gf180mcu_fd_sc_mcu9t5v0__buf_3
* cell instance $142 r0 *1 248.64,5.04
X$142 32 2294 2295 31 gf180mcu_fd_sc_mcu9t5v0__buf_2
* cell instance $151 r0 *1 271.04,146.16
X$151 2295 2294 706 31 640 664 gf180mcu_fd_sc_mcu9t5v0__mux2_2
* cell instance $154 r0 *1 281.68,35.28
X$154 2295 2294 156 31 134 138 gf180mcu_fd_sc_mcu9t5v0__mux2_2
* cell instance $156 m0 *1 266,115.92
X$156 2295 2294 477 31 474 479 gf180mcu_fd_sc_mcu9t5v0__mux2_2
* cell instance $158 r0 *1 280.56,65.52
X$158 2295 2294 240 31 239 241 gf180mcu_fd_sc_mcu9t5v0__mux2_2
* cell instance $161 m0 *1 255.36,156.24
X$161 2295 2294 663 31 676 642 gf180mcu_fd_sc_mcu9t5v0__mux2_2
* cell instance $163 r0 *1 262.08,85.68
X$163 2295 2294 355 31 349 356 gf180mcu_fd_sc_mcu9t5v0__mux2_2
* cell instance $169 m0 *1 278.32,15.12
X$169 2295 2294 33 52 gf180mcu_fd_sc_mcu9t5v0__clkbuf_3
* cell instance $174 m0 *1 297.36,15.12
X$174 2295 2294 34 79 gf180mcu_fd_sc_mcu9t5v0__clkbuf_3
* cell instance $183 r0 *1 101.92,65.52
X$183 2295 2294 36 274 44 gf180mcu_fd_sc_mcu9t5v0__nand2_2
* cell instance $187 m0 *1 98.56,65.52
X$187 2295 60 36 58 232 2294 gf180mcu_fd_sc_mcu9t5v0__dffrnq_2
* cell instance $190 r0 *1 131.04,55.44
X$190 2295 2294 37 212 44 gf180mcu_fd_sc_mcu9t5v0__nand2_2
* cell instance $196 m0 *1 126.56,55.44
X$196 2295 60 37 58 225 2294 gf180mcu_fd_sc_mcu9t5v0__dffrnq_2
* cell instance $198 m0 *1 240.8,15.12
X$198 2295 2294 38 48 44 gf180mcu_fd_sc_mcu9t5v0__nand2_2
* cell instance $203 m0 *1 244.16,25.2
X$203 2295 60 38 58 87 2294 gf180mcu_fd_sc_mcu9t5v0__dffrnq_2
* cell instance $207 r0 *1 292.88,15.12
X$207 2295 2294 39 80 67 gf180mcu_fd_sc_mcu9t5v0__nand2_2
* cell instance $211 m0 *1 282.8,25.2
X$211 2295 60 39 58 66 2294 gf180mcu_fd_sc_mcu9t5v0__dffrnq_2
* cell instance $214 m0 *1 330.96,55.44
X$214 2295 2294 40 251 67 gf180mcu_fd_sc_mcu9t5v0__nand2_2
* cell instance $219 r0 *1 323.68,55.44
X$219 2295 60 40 58 252 2294 gf180mcu_fd_sc_mcu9t5v0__dffrnq_2
* cell instance $221 m0 *1 404.88,15.12
X$221 2295 2294 72 41 gf180mcu_fd_sc_mcu9t5v0__clkinv_2
* cell instance $224 r0 *1 425.6,15.12
X$224 2295 2294 69 75 42 gf180mcu_fd_sc_mcu9t5v0__nand2_2
* cell instance $228 r0 *1 410.48,15.12
X$228 2294 74 89 2295 42 gf180mcu_fd_sc_mcu9t5v0__xnor2_2
* cell instance $233 m0 *1 437.92,15.12
X$233 2295 2294 76 43 gf180mcu_fd_sc_mcu9t5v0__clkinv_2
* cell instance $236 m0 *1 175.28,25.2
X$236 2295 67 44 2294 gf180mcu_fd_sc_mcu9t5v0__clkbuf_8
* cell instance $241 r0 *1 120.4,65.52
X$241 2295 2294 59 234 44 gf180mcu_fd_sc_mcu9t5v0__nand2_2
* cell instance $244 r0 *1 112,45.36
X$244 2295 2294 82 176 44 gf180mcu_fd_sc_mcu9t5v0__nand2_2
* cell instance $246 m0 *1 106.96,136.08
X$246 2295 2294 626 563 44 gf180mcu_fd_sc_mcu9t5v0__nand2_2
* cell instance $249 r0 *1 128.8,307.44
X$249 2295 2294 1421 1420 44 gf180mcu_fd_sc_mcu9t5v0__nand2_2
* cell instance $252 m0 *1 223.44,15.12
X$252 2295 2294 47 95 44 gf180mcu_fd_sc_mcu9t5v0__nand2_2
* cell instance $257 r0 *1 104.72,307.44
X$257 2295 2294 1377 1418 44 gf180mcu_fd_sc_mcu9t5v0__nand2_2
* cell instance $271 m0 *1 201.6,15.12
X$271 2295 2294 45 46 44 gf180mcu_fd_sc_mcu9t5v0__nand2_2
* cell instance $276 r0 *1 185.36,15.12
X$276 2295 60 45 58 78 2294 gf180mcu_fd_sc_mcu9t5v0__dffrnq_2
* cell instance $281 r0 *1 204.4,15.12
X$281 2294 46 2295 78 62 61 63 gf180mcu_fd_sc_mcu9t5v0__oai31_2
* cell instance $288 r0 *1 221.76,15.12
X$288 2295 60 47 58 112 2294 gf180mcu_fd_sc_mcu9t5v0__dffrnq_2
* cell instance $290 r0 *1 244.72,25.2
X$290 2294 48 2295 87 135 61 113 gf180mcu_fd_sc_mcu9t5v0__oai31_2
* cell instance $306 m0 *1 255.92,15.12
X$306 2295 2294 57 49 50 65 gf180mcu_fd_sc_mcu9t5v0__mux2_2
* cell instance $308 m0 *1 234.64,35.28
X$308 64 2294 2295 49 gf180mcu_fd_sc_mcu9t5v0__buf_3
* cell instance $310 m0 *1 255.92,75.6
X$310 2295 2294 285 49 263 286 gf180mcu_fd_sc_mcu9t5v0__mux2_2
* cell instance $312 m0 *1 232.4,85.68
X$312 2295 2294 307 49 304 308 gf180mcu_fd_sc_mcu9t5v0__mux2_2
* cell instance $314 m0 *1 279.44,105.84
X$314 2295 2294 421 49 372 446 gf180mcu_fd_sc_mcu9t5v0__mux2_2
* cell instance $316 r0 *1 291.76,105.84
X$316 2295 2294 445 49 419 447 gf180mcu_fd_sc_mcu9t5v0__mux2_2
* cell instance $318 m0 *1 245.28,126
X$318 2295 2294 541 49 395 566 gf180mcu_fd_sc_mcu9t5v0__mux2_2
* cell instance $320 r0 *1 248.64,105.84
X$320 2295 2294 464 49 442 444 gf180mcu_fd_sc_mcu9t5v0__mux2_2
* cell instance $322 m0 *1 263.2,35.28
X$322 2295 2294 117 49 115 128 gf180mcu_fd_sc_mcu9t5v0__mux2_2
* cell instance $325 r0 *1 258.72,55.44
X$325 2295 2294 169 49 214 170 gf180mcu_fd_sc_mcu9t5v0__mux2_2
* cell instance $327 m0 *1 246.4,45.36
X$327 2295 2294 184 49 152 168 gf180mcu_fd_sc_mcu9t5v0__mux2_2
* cell instance $329 r0 *1 142.8,136.08
X$329 2295 2294 619 596 50 597 gf180mcu_fd_sc_mcu9t5v0__mux2_2
* cell instance $332 m0 *1 267.68,85.68
X$332 2295 333 50 2294 gf180mcu_fd_sc_mcu9t5v0__clkbuf_8
* cell instance $348 r0 *1 121.52,75.6
X$348 2295 2294 298 299 50 300 gf180mcu_fd_sc_mcu9t5v0__mux2_2
* cell instance $351 r0 *1 109.2,65.52
X$351 2295 2294 233 255 50 187 gf180mcu_fd_sc_mcu9t5v0__mux2_2
* cell instance $353 r0 *1 101.92,126
X$353 2295 2294 552 560 50 534 gf180mcu_fd_sc_mcu9t5v0__mux2_2
* cell instance $355 r0 *1 101.92,75.6
X$355 2295 2294 296 297 50 256 gf180mcu_fd_sc_mcu9t5v0__mux2_2
* cell instance $357 m0 *1 269.92,25.2
X$357 2295 2294 94 114 50 51 gf180mcu_fd_sc_mcu9t5v0__mux2_2
* cell instance $359 r0 *1 222.32,25.2
X$359 2295 2294 99 116 50 100 gf180mcu_fd_sc_mcu9t5v0__mux2_2
* cell instance $361 m0 *1 189.84,25.2
X$361 2295 2294 96 98 50 97 gf180mcu_fd_sc_mcu9t5v0__mux2_2
* cell instance $363 m0 *1 145.6,55.44
X$363 2295 2294 179 162 50 161 gf180mcu_fd_sc_mcu9t5v0__mux2_2
* cell instance $365 r0 *1 262.64,15.12
X$365 2295 51 101 94 2294 gf180mcu_fd_sc_mcu9t5v0__dffq_2
* cell instance $369 m0 *1 272.72,15.12
X$369 2295 2294 81 51 85 gf180mcu_fd_sc_mcu9t5v0__nor2_2
* cell instance $373 m0 *1 280,206.64
X$373 52 2294 2295 888 gf180mcu_fd_sc_mcu9t5v0__buf_3
* cell instance $380 m0 *1 276.08,216.72
X$380 2295 2294 960 52 694 961 gf180mcu_fd_sc_mcu9t5v0__mux2_2
* cell instance $383 r0 *1 290.64,176.4
X$383 2295 2294 798 52 603 799 gf180mcu_fd_sc_mcu9t5v0__mux2_2
* cell instance $385 r0 *1 288.4,186.48
X$385 2295 2294 845 52 746 846 gf180mcu_fd_sc_mcu9t5v0__mux2_2
* cell instance $387 m0 *1 285.6,206.64
X$387 2295 2294 954 52 643 938 gf180mcu_fd_sc_mcu9t5v0__mux2_2
* cell instance $390 r0 *1 273.84,226.8
X$390 2295 2294 1061 52 721 1019 gf180mcu_fd_sc_mcu9t5v0__mux2_2
* cell instance $392 m0 *1 294,206.64
X$392 2295 2294 900 52 749 962 gf180mcu_fd_sc_mcu9t5v0__mux2_2
* cell instance $400 m0 *1 343.84,45.36
X$400 2294 141 53 119 2295 gf180mcu_fd_sc_mcu9t5v0__and2_4
* cell instance $405 m0 *1 418.32,15.12
X$405 2294 54 89 2295 77 gf180mcu_fd_sc_mcu9t5v0__and2_2
* cell instance $407 m0 *1 413.28,15.12
X$407 2295 2294 74 54 gf180mcu_fd_sc_mcu9t5v0__clkinv_2
* cell instance $410 m0 *1 426.72,25.2
X$410 126 2295 109 2294 55 gf180mcu_fd_sc_mcu9t5v0__xor2_2
* cell instance $412 r0 *1 430.64,15.12
X$412 2294 76 2295 75 56 55 gf180mcu_fd_sc_mcu9t5v0__oai21_2
* cell instance $421 r0 *1 245.84,15.12
X$421 2295 65 84 57 2294 gf180mcu_fd_sc_mcu9t5v0__dffq_2
* cell instance $425 r0 *1 267.12,498.96
X$425 2295 60 2246 58 2245 2294 gf180mcu_fd_sc_mcu9t5v0__dffrnq_2
* cell instance $427 r0 *1 145.6,146.16
X$427 2295 60 657 58 648 2294 gf180mcu_fd_sc_mcu9t5v0__dffrnq_2
* cell instance $432 m0 *1 120.4,65.52
X$432 2295 60 59 58 250 2294 gf180mcu_fd_sc_mcu9t5v0__dffrnq_2
* cell instance $435 m0 *1 99.68,146.16
X$435 2295 60 626 58 647 2294 gf180mcu_fd_sc_mcu9t5v0__dffrnq_2
* cell instance $437 r0 *1 270.48,478.8
X$437 2295 60 2196 58 2180 2294 gf180mcu_fd_sc_mcu9t5v0__dffrnq_2
* cell instance $439 m0 *1 293.44,488.88
X$439 2295 60 2197 58 2205 2294 gf180mcu_fd_sc_mcu9t5v0__dffrnq_2
* cell instance $441 m0 *1 490.56,297.36
X$441 2295 60 1368 58 1337 2294 gf180mcu_fd_sc_mcu9t5v0__dffrnq_2
* cell instance $443 r0 *1 439.04,55.44
X$443 2295 60 248 58 173 2294 gf180mcu_fd_sc_mcu9t5v0__dffrnq_2
* cell instance $445 r0 *1 342.72,186.48
X$445 2295 60 68 58 883 2294 gf180mcu_fd_sc_mcu9t5v0__dffrnq_2
* cell instance $447 m0 *1 202.16,498.96
X$447 2295 60 2232 58 2240 2294 gf180mcu_fd_sc_mcu9t5v0__dffrnq_2
* cell instance $450 m0 *1 119.28,438.48
X$450 2295 60 1987 58 1976 2294 gf180mcu_fd_sc_mcu9t5v0__dffrnq_2
* cell instance $452 r0 *1 409.92,136.08
X$452 2295 60 604 58 618 2294 gf180mcu_fd_sc_mcu9t5v0__dffrnq_4
* cell instance $455 r0 *1 453.6,156.24
X$455 2295 60 577 58 699 2294 gf180mcu_fd_sc_mcu9t5v0__dffrnq_2
* cell instance $457 m0 *1 450.8,156.24
X$457 2295 60 608 58 669 2294 gf180mcu_fd_sc_mcu9t5v0__dffrnq_2
* cell instance $459 m0 *1 402.08,166.32
X$459 2295 60 605 58 730 2294 gf180mcu_fd_sc_mcu9t5v0__dffrnq_2
* cell instance $461 m0 *1 122.64,317.52
X$461 2295 60 1421 58 1501 2294 gf180mcu_fd_sc_mcu9t5v0__dffrnq_2
* cell instance $463 m0 *1 114.24,357.84
X$463 2295 60 1622 58 1641 2294 gf180mcu_fd_sc_mcu9t5v0__dffrnq_2
* cell instance $465 m0 *1 504,317.52
X$465 2295 60 1394 58 1463 2294 gf180mcu_fd_sc_mcu9t5v0__dffrnq_2
* cell instance $467 r0 *1 434.56,115.92
X$467 2295 60 387 58 519 2294 gf180mcu_fd_sc_mcu9t5v0__dffrnq_2
* cell instance $470 r0 *1 502.32,317.52
X$470 2295 60 1497 58 1495 2294 gf180mcu_fd_sc_mcu9t5v0__dffrnq_2
* cell instance $473 m0 *1 426.72,95.76
X$473 2295 60 388 58 362 2294 gf180mcu_fd_sc_mcu9t5v0__dffrnq_2
* cell instance $475 m0 *1 421.12,85.68
X$475 2295 60 337 58 270 2294 gf180mcu_fd_sc_mcu9t5v0__dffrnq_2
* cell instance $477 r0 *1 435.12,85.68
X$477 2295 60 364 58 337 2294 gf180mcu_fd_sc_mcu9t5v0__dffrnq_2
* cell instance $479 m0 *1 405.44,95.76
X$479 2295 60 391 58 338 2294 gf180mcu_fd_sc_mcu9t5v0__dffrnq_2
* cell instance $482 r0 *1 412.16,85.68
X$482 2295 60 362 58 336 2294 gf180mcu_fd_sc_mcu9t5v0__dffrnq_2
* cell instance $484 r0 *1 457.52,65.52
X$484 2295 60 272 58 248 2294 gf180mcu_fd_sc_mcu9t5v0__dffrnq_2
* cell instance $486 r0 *1 438.48,65.52
X$486 2295 60 271 58 221 2294 gf180mcu_fd_sc_mcu9t5v0__dffrnq_2
* cell instance $488 r0 *1 452.48,75.6
X$488 2295 60 318 58 271 2294 gf180mcu_fd_sc_mcu9t5v0__dffrnq_2
* cell instance $490 r0 *1 471.52,438.48
X$490 2295 60 2022 58 2001 2294 gf180mcu_fd_sc_mcu9t5v0__dffrnq_2
* cell instance $492 r0 *1 402.64,115.92
X$492 2295 60 461 58 518 2294 gf180mcu_fd_sc_mcu9t5v0__dffrnq_2
* cell instance $495 r0 *1 188.16,498.96
X$495 2295 60 2231 58 2251 2294 gf180mcu_fd_sc_mcu9t5v0__dffrnq_2
* cell instance $497 m0 *1 178.08,498.96
X$497 2295 60 2230 58 2210 2294 gf180mcu_fd_sc_mcu9t5v0__dffrnq_2
* cell instance $499 m0 *1 122.64,498.96
X$499 2295 60 2227 58 2207 2294 gf180mcu_fd_sc_mcu9t5v0__dffrnq_2
* cell instance $501 r0 *1 432.32,468.72
X$501 2295 60 2143 58 2166 2294 gf180mcu_fd_sc_mcu9t5v0__dffrnq_2
* cell instance $508 m0 *1 102.48,317.52
X$508 2295 60 1377 58 1383 2294 gf180mcu_fd_sc_mcu9t5v0__dffrnq_2
* cell instance $510 r0 *1 446.88,166.32
X$510 2295 60 145 58 752 2294 gf180mcu_fd_sc_mcu9t5v0__dffrnq_2
* cell instance $513 r0 *1 442.4,126
X$513 2295 60 363 58 578 2294 gf180mcu_fd_sc_mcu9t5v0__dffrnq_2
* cell instance $515 m0 *1 500.08,357.84
X$515 2295 60 1637 58 1638 2294 gf180mcu_fd_sc_mcu9t5v0__dffrnq_2
* cell instance $582 m0 *1 99.12,45.36
X$582 2295 60 82 58 160 2294 gf180mcu_fd_sc_mcu9t5v0__dffrnq_2
* cell instance $585 r0 *1 427.84,95.76
X$585 2295 60 404 58 391 2294 gf180mcu_fd_sc_mcu9t5v0__dffrnq_2
* cell instance $587 r0 *1 422.24,105.84
X$587 2295 60 386 58 453 2294 gf180mcu_fd_sc_mcu9t5v0__dffrnq_2
* cell instance $589 m0 *1 504,287.28
X$589 2295 60 1277 58 1313 2294 gf180mcu_fd_sc_mcu9t5v0__dffrnq_2
* cell instance $591 r0 *1 473.2,448.56
X$591 2295 60 2067 58 2066 2294 gf180mcu_fd_sc_mcu9t5v0__dffrnq_2
* cell instance $593 r0 *1 475.44,367.92
X$593 2295 60 1700 58 1725 2294 gf180mcu_fd_sc_mcu9t5v0__dffrnq_2
* cell instance $602 m0 *1 489.44,75.6
X$602 2295 273 60 2294 gf180mcu_fd_sc_mcu9t5v0__buf_20
* cell instance $727 r0 *1 170.24,25.2
X$727 2295 67 61 2294 gf180mcu_fd_sc_mcu9t5v0__clkbuf_8
* cell instance $731 r0 *1 282.8,15.12
X$731 2294 80 2295 66 253 61 81 gf180mcu_fd_sc_mcu9t5v0__oai31_2
* cell instance $734 m0 *1 151.76,146.16
X$734 2294 629 2295 648 649 61 630 gf180mcu_fd_sc_mcu9t5v0__oai31_2
* cell instance $736 r0 *1 125.44,65.52
X$736 2294 234 2295 250 257 61 258 gf180mcu_fd_sc_mcu9t5v0__oai31_2
* cell instance $739 m0 *1 99.12,75.6
X$739 2294 274 2295 232 280 61 293 gf180mcu_fd_sc_mcu9t5v0__oai31_2
* cell instance $742 r0 *1 101.92,136.08
X$742 2294 563 2295 647 617 61 595 gf180mcu_fd_sc_mcu9t5v0__oai31_2
* cell instance $745 m0 *1 326.48,65.52
X$745 2294 251 2295 252 497 61 242 gf180mcu_fd_sc_mcu9t5v0__oai31_2
* cell instance $750 m0 *1 234.08,25.2
X$750 2294 95 2295 112 154 61 86 gf180mcu_fd_sc_mcu9t5v0__oai31_2
* cell instance $766 r0 *1 101.92,45.36
X$766 2294 176 2295 160 208 61 186 gf180mcu_fd_sc_mcu9t5v0__oai31_2
* cell instance $773 m0 *1 220.64,85.68
X$773 343 283 463 329 2295 2294 62 gf180mcu_fd_sc_mcu9t5v0__and4_2
* cell instance $775 m0 *1 207.2,25.2
X$775 2295 2294 63 97 85 gf180mcu_fd_sc_mcu9t5v0__nor2_2
* cell instance $788 m0 *1 230.16,95.76
X$788 2295 2294 352 64 349 379 gf180mcu_fd_sc_mcu9t5v0__mux2_2
* cell instance $791 r0 *1 237.44,65.52
X$791 2295 2294 262 64 239 238 gf180mcu_fd_sc_mcu9t5v0__mux2_2
* cell instance $793 r0 *1 228.48,146.16
X$793 2295 2294 662 64 676 636 gf180mcu_fd_sc_mcu9t5v0__mux2_2
* cell instance $795 r0 *1 239.12,136.08
X$795 2295 2294 601 64 640 652 gf180mcu_fd_sc_mcu9t5v0__mux2_2
* cell instance $797 m0 *1 239.12,115.92
X$797 2295 2294 473 64 474 475 gf180mcu_fd_sc_mcu9t5v0__mux2_2
* cell instance $799 r0 *1 228.48,45.36
X$799 2295 2294 185 64 134 155 gf180mcu_fd_sc_mcu9t5v0__mux2_2
* cell instance $803 m0 *1 263.2,25.2
X$803 2295 2294 113 65 85 gf180mcu_fd_sc_mcu9t5v0__nor2_2
* cell instance $809 m0 *1 154.56,156.24
X$809 2295 2294 657 629 67 gf180mcu_fd_sc_mcu9t5v0__nand2_2
* cell instance $815 m0 *1 176.4,65.52
X$815 2295 67 213 2294 gf180mcu_fd_sc_mcu9t5v0__buf_8
* cell instance $819 m0 *1 352.24,196.56
X$819 2295 2294 68 885 67 gf180mcu_fd_sc_mcu9t5v0__nand2_2
* cell instance $821 m0 *1 484.4,347.76
X$821 2295 67 1312 2294 gf180mcu_fd_sc_mcu9t5v0__clkbuf_8
* cell instance $824 r0 *1 464.24,357.84
X$824 2295 67 1669 2294 gf180mcu_fd_sc_mcu9t5v0__buf_8
* cell instance $827 r0 *1 484.96,337.68
X$827 2295 67 873 2294 gf180mcu_fd_sc_mcu9t5v0__clkbuf_8
* cell instance $841 m0 *1 484.96,105.84
X$841 2294 2295 406 67 428 gf180mcu_fd_sc_mcu9t5v0__nand2_4
* cell instance $853 r0 *1 390.32,15.12
X$853 2295 2294 70 69 gf180mcu_fd_sc_mcu9t5v0__clkinv_2
* cell instance $857 r0 *1 393.68,15.12
X$857 2295 104 70 74 73 71 2294 gf180mcu_fd_sc_mcu9t5v0__addf_1
* cell instance $860 m0 *1 402.08,25.2
X$860 2295 2294 105 71 gf180mcu_fd_sc_mcu9t5v0__clkinv_2
* cell instance $862 r0 *1 409.36,35.28
X$862 126 89 88 72 2295 2294 147 gf180mcu_fd_sc_mcu9t5v0__and4_2
* cell instance $868 r0 *1 408.8,25.2
X$868 73 2295 2294 122 125 72 gf180mcu_fd_sc_mcu9t5v0__addh_1
* cell instance $872 m0 *1 407.68,25.2
X$872 2295 2294 73 93 gf180mcu_fd_sc_mcu9t5v0__clkinv_2
* cell instance $887 m0 *1 428.4,35.28
X$887 2294 143 146 2295 76 gf180mcu_fd_sc_mcu9t5v0__xnor2_2
* cell instance $891 r0 *1 420,15.12
X$891 2295 106 77 2294 90 gf180mcu_fd_sc_mcu9t5v0__or2_2
* cell instance $898 r0 *1 334.88,75.6
X$898 79 2294 2295 321 gf180mcu_fd_sc_mcu9t5v0__buf_3
* cell instance $912 r0 *1 339.92,166.32
X$912 2295 2294 779 79 749 748 gf180mcu_fd_sc_mcu9t5v0__mux2_2
* cell instance $914 r0 *1 310.24,156.24
X$914 2295 2294 758 79 721 722 gf180mcu_fd_sc_mcu9t5v0__mux2_2
* cell instance $916 r0 *1 338.8,146.16
X$916 2295 2294 666 79 694 569 gf180mcu_fd_sc_mcu9t5v0__mux2_2
* cell instance $918 m0 *1 353.36,136.08
X$918 2295 2294 621 79 643 570 gf180mcu_fd_sc_mcu9t5v0__mux2_2
* cell instance $921 r0 *1 327.04,136.08
X$921 2295 2294 624 79 603 568 gf180mcu_fd_sc_mcu9t5v0__mux2_2
* cell instance $924 r0 *1 301.28,166.32
X$924 2295 2294 745 79 746 720 gf180mcu_fd_sc_mcu9t5v0__mux2_2
* cell instance $938 m0 *1 201.6,25.2
X$938 83 2294 2295 98 gf180mcu_fd_sc_mcu9t5v0__buf_3
* cell instance $953 r0 *1 185.36,85.68
X$953 2295 2294 348 83 349 350 gf180mcu_fd_sc_mcu9t5v0__mux2_2
* cell instance $955 r0 *1 212.8,146.16
X$955 2295 2294 689 83 640 660 gf180mcu_fd_sc_mcu9t5v0__mux2_2
* cell instance $957 r0 *1 209.44,126
X$957 2295 2294 470 83 474 503 gf180mcu_fd_sc_mcu9t5v0__mux2_2
* cell instance $959 r0 *1 206.64,75.6
X$959 2295 2294 282 83 239 306 gf180mcu_fd_sc_mcu9t5v0__mux2_2
* cell instance $961 m0 *1 192.08,156.24
X$961 2295 2294 687 83 676 688 gf180mcu_fd_sc_mcu9t5v0__mux2_2
* cell instance $963 r0 *1 193.2,35.28
X$963 2295 2294 130 83 134 131 gf180mcu_fd_sc_mcu9t5v0__mux2_2
* cell instance $966 m0 *1 183.68,45.36
X$966 2295 131 84 130 2294 gf180mcu_fd_sc_mcu9t5v0__dffq_2
* cell instance $968 r0 *1 168.56,45.36
X$968 2295 165 84 164 2294 gf180mcu_fd_sc_mcu9t5v0__dffq_2
* cell instance $971 r0 *1 187.04,25.2
X$971 2295 97 84 96 2294 gf180mcu_fd_sc_mcu9t5v0__dffq_2
* cell instance $973 m0 *1 152.88,45.36
X$973 2295 151 84 180 2294 gf180mcu_fd_sc_mcu9t5v0__dffq_2
* cell instance $975 r0 *1 155.12,55.44
X$975 2295 181 84 163 2294 gf180mcu_fd_sc_mcu9t5v0__dffq_2
* cell instance $977 m0 *1 94.08,85.68
X$977 2295 256 84 296 2294 gf180mcu_fd_sc_mcu9t5v0__dffq_2
* cell instance $980 r0 *1 84,85.68
X$980 2295 368 84 367 2294 gf180mcu_fd_sc_mcu9t5v0__dffq_2
* cell instance $982 r0 *1 120.4,126
X$982 2295 564 84 535 2294 gf180mcu_fd_sc_mcu9t5v0__dffq_2
* cell instance $984 r0 *1 105.84,105.84
X$984 2295 397 84 394 2294 gf180mcu_fd_sc_mcu9t5v0__dffq_2
* cell instance $986 m0 *1 114.8,105.84
X$986 2295 416 84 396 2294 gf180mcu_fd_sc_mcu9t5v0__dffq_2
* cell instance $989 m0 *1 116.48,85.68
X$989 2295 300 84 298 2294 gf180mcu_fd_sc_mcu9t5v0__dffq_2
* cell instance $992 r0 *1 128.8,45.36
X$992 2295 161 84 179 2294 gf180mcu_fd_sc_mcu9t5v0__dffq_2
* cell instance $994 m0 *1 111.44,95.76
X$994 2295 374 84 373 2294 gf180mcu_fd_sc_mcu9t5v0__dffq_2
* cell instance $996 m0 *1 156.24,75.6
X$996 2295 275 84 2294 gf180mcu_fd_sc_mcu9t5v0__clkbuf_20
* cell instance $998 m0 *1 140,85.68
X$998 2295 301 84 319 2294 gf180mcu_fd_sc_mcu9t5v0__dffq_2
* cell instance $1001 r0 *1 142.24,85.68
X$1001 2295 347 84 346 2294 gf180mcu_fd_sc_mcu9t5v0__dffq_2
* cell instance $1003 m0 *1 164.64,95.76
X$1003 2295 376 84 375 2294 gf180mcu_fd_sc_mcu9t5v0__dffq_2
* cell instance $1005 r0 *1 150.08,75.6
X$1005 2295 235 84 259 2294 gf180mcu_fd_sc_mcu9t5v0__dffq_2
* cell instance $1007 r0 *1 183.68,65.52
X$1007 2295 261 84 260 2294 gf180mcu_fd_sc_mcu9t5v0__dffq_2
* cell instance $1009 m0 *1 209.44,35.28
X$1009 2295 133 84 132 2294 gf180mcu_fd_sc_mcu9t5v0__dffq_2
* cell instance $1012 r0 *1 203.84,55.44
X$1012 2295 237 84 236 2294 gf180mcu_fd_sc_mcu9t5v0__dffq_2
* cell instance $1014 r0 *1 208.32,45.36
X$1014 2295 166 84 183 2294 gf180mcu_fd_sc_mcu9t5v0__dffq_2
* cell instance $1016 m0 *1 217.28,25.2
X$1016 2295 100 84 99 2294 gf180mcu_fd_sc_mcu9t5v0__dffq_2
* cell instance $1045 m0 *1 140,105.84
X$1045 2295 417 84 398 2294 gf180mcu_fd_sc_mcu9t5v0__dffq_2
* cell instance $1048 m0 *1 140.56,115.92
X$1048 2295 440 84 439 2294 gf180mcu_fd_sc_mcu9t5v0__dffq_2
* cell instance $1050 m0 *1 151.76,75.6
X$1050 2295 2294 84 gf180mcu_fd_sc_mcu9t5v0__inv_3
* cell instance $1052 m0 *1 161.28,55.44
X$1052 2295 190 84 227 2294 gf180mcu_fd_sc_mcu9t5v0__dffq_2
* cell instance $1054 r0 *1 249.2,65.52
X$1054 2295 265 85 2294 gf180mcu_fd_sc_mcu9t5v0__clkbuf_8
* cell instance $1057 m0 *1 139.44,45.36
X$1057 2295 2294 188 161 85 gf180mcu_fd_sc_mcu9t5v0__nor2_2
* cell instance $1061 r0 *1 151.2,136.08
X$1061 2295 2294 630 597 85 gf180mcu_fd_sc_mcu9t5v0__nor2_2
* cell instance $1065 m0 *1 112,126
X$1065 2295 2294 595 534 85 gf180mcu_fd_sc_mcu9t5v0__nor2_2
* cell instance $1068 m0 *1 109.2,75.6
X$1068 2295 2294 293 256 85 gf180mcu_fd_sc_mcu9t5v0__nor2_2
* cell instance $1071 m0 *1 128.24,75.6
X$1071 2295 2294 258 300 85 gf180mcu_fd_sc_mcu9t5v0__nor2_2
* cell instance $1074 m0 *1 110.32,55.44
X$1074 2295 2294 186 187 85 gf180mcu_fd_sc_mcu9t5v0__nor2_2
* cell instance $1078 r0 *1 231.84,25.2
X$1078 2295 2294 86 100 85 gf180mcu_fd_sc_mcu9t5v0__nor2_2
* cell instance $1097 m0 *1 412.16,25.2
X$1097 2294 93 88 2295 111 gf180mcu_fd_sc_mcu9t5v0__and2_2
* cell instance $1101 r0 *1 399.28,25.2
X$1101 110 2295 2294 123 105 88 gf180mcu_fd_sc_mcu9t5v0__addh_1
* cell instance $1106 m0 *1 419.44,25.2
X$1106 2295 106 2294 109 108 89 gf180mcu_fd_sc_mcu9t5v0__aoi21_2
* cell instance $1113 r0 *1 416.64,35.28
X$1113 2295 106 89 148 142 2294 gf180mcu_fd_sc_mcu9t5v0__addh_2
* cell instance $1116 m0 *1 418.88,35.28
X$1116 2295 159 2294 146 90 126 gf180mcu_fd_sc_mcu9t5v0__aoi21_2
* cell instance $1137 r0 *1 380.24,25.2
X$1137 2295 91 123 103 124 2294 gf180mcu_fd_sc_mcu9t5v0__dffrnq_2
* cell instance $1139 r0 *1 361.2,25.2
X$1139 2295 91 121 103 129 2294 gf180mcu_fd_sc_mcu9t5v0__dffrnq_2
* cell instance $1141 m0 *1 445.76,35.28
X$1141 2295 91 127 103 145 2294 gf180mcu_fd_sc_mcu9t5v0__dffrnq_2
* cell instance $1143 m0 *1 419.44,75.6
X$1143 2295 91 223 103 386 2294 gf180mcu_fd_sc_mcu9t5v0__dffrnq_2
* cell instance $1145 m0 *1 410.48,65.52
X$1145 2295 91 206 103 247 2294 gf180mcu_fd_sc_mcu9t5v0__dffrnq_2
* cell instance $1148 r0 *1 388.64,55.44
X$1148 2295 91 221 103 226 2294 gf180mcu_fd_sc_mcu9t5v0__dffrnq_2
* cell instance $1150 r0 *1 412.72,55.44
X$1150 2295 91 222 103 223 2294 gf180mcu_fd_sc_mcu9t5v0__dffrnq_2
* cell instance $1152 r0 *1 446.32,35.28
X$1152 2295 91 144 103 363 2294 gf180mcu_fd_sc_mcu9t5v0__dffrnq_2
* cell instance $1154 m0 *1 439.04,65.52
X$1154 2295 91 249 103 387 2294 gf180mcu_fd_sc_mcu9t5v0__dffrnq_2
* cell instance $1157 m0 *1 444.64,55.44
X$1157 2295 91 207 103 249 2294 gf180mcu_fd_sc_mcu9t5v0__dffrnq_2
* cell instance $1159 m0 *1 402.08,85.68
X$1159 2295 91 336 103 335 2294 gf180mcu_fd_sc_mcu9t5v0__dffrnq_2
* cell instance $1161 r0 *1 383.04,85.68
X$1161 2295 91 338 103 370 2294 gf180mcu_fd_sc_mcu9t5v0__dffrnq_2
* cell instance $1163 r0 *1 395.92,75.6
X$1163 2295 91 247 103 461 2294 gf180mcu_fd_sc_mcu9t5v0__dffrnq_2
* cell instance $1166 r0 *1 402.64,45.36
X$1166 2295 91 173 103 177 2294 gf180mcu_fd_sc_mcu9t5v0__dffrnq_2
* cell instance $1168 m0 *1 453.04,25.2
X$1168 2295 91 92 103 144 2294 gf180mcu_fd_sc_mcu9t5v0__dffrnq_2
* cell instance $1170 r0 *1 452.48,25.2
X$1170 2295 91 107 103 127 2294 gf180mcu_fd_sc_mcu9t5v0__dffrnq_2
* cell instance $1173 r0 *1 369.6,55.44
X$1173 2295 91 174 103 220 2294 gf180mcu_fd_sc_mcu9t5v0__dffrnq_2
* cell instance $1175 m0 *1 380.8,75.6
X$1175 2295 91 270 103 292 2294 gf180mcu_fd_sc_mcu9t5v0__dffrnq_2
* cell instance $1177 m0 *1 356.72,75.6
X$1177 2295 91 148 103 277 2294 gf180mcu_fd_sc_mcu9t5v0__dffrnq_2
* cell instance $1179 m0 *1 409.36,35.28
X$1179 2294 92 105 2295 125 gf180mcu_fd_sc_mcu9t5v0__xnor2_2
* cell instance $1212 m0 *1 192.08,105.84
X$1212 2295 2294 435 98 419 418 gf180mcu_fd_sc_mcu9t5v0__mux2_2
* cell instance $1214 r0 *1 193.2,126