* CDL Netlist generated by OpenROAD

*.BUSDELIMITER [

.SUBCKT clock_domain_crossing_fifo rd_almost_empty rd_clk
+ rd_count[0] rd_count[1] rd_count[2] rd_count[3] rd_count[4]
+ rd_data[0] rd_data[10] rd_data[11] rd_data[12] rd_data[13]
+ rd_data[14] rd_data[15] rd_data[16] rd_data[17] rd_data[18]
+ rd_data[19] rd_data[1] rd_data[20] rd_data[21] rd_data[22]
+ rd_data[23] rd_data[24] rd_data[25] rd_data[26] rd_data[27]
+ rd_data[28] rd_data[29] rd_data[2] rd_data[30] rd_data[31]
+ rd_data[3] rd_data[4] rd_data[5] rd_data[6] rd_data[7] rd_data[8]
+ rd_data[9] rd_empty rd_en rd_rst_n wr_almost_full wr_clk wr_count[0]
+ wr_count[1] wr_count[2] wr_count[3] wr_count[4] wr_data[0]
+ wr_data[10] wr_data[11] wr_data[12] wr_data[13] wr_data[14]
+ wr_data[15] wr_data[16] wr_data[17] wr_data[18] wr_data[19]
+ wr_data[1] wr_data[20] wr_data[21] wr_data[22] wr_data[23]
+ wr_data[24] wr_data[25] wr_data[26] wr_data[27] wr_data[28]
+ wr_data[29] wr_data[2] wr_data[30] wr_data[31] wr_data[3]
+ wr_data[4] wr_data[5] wr_data[6] wr_data[7] wr_data[8] wr_data[9]
+ wr_en wr_full wr_rst_n
X_1525_ rd_ptr_gray_sync2\[3\] rd_ptr_gray_sync2\[4\] _1492_
+ VDD VSS gf180mcu_fd_sc_mcu9t5v0__xnor2_2
X_1526_ rd_ptr_gray_sync2\[2\] _1492_ _1489_ VDD VSS gf180mcu_fd_sc_mcu9t5v0__xor2_2
X_1527_ rd_ptr_gray_sync2\[1\] _1489_ _1482_ VDD VSS gf180mcu_fd_sc_mcu9t5v0__xor2_2
X_1528_ _1524_ net79 VDD VSS gf180mcu_fd_sc_mcu9t5v0__clkinv_2
X_1529_ rd_ptr_gray_sync2\[4\] wr_ptr_bin\[4\] _0566_ VDD
+ VSS gf180mcu_fd_sc_mcu9t5v0__xor2_2
X_1530_ _1494_ _1491_ _1488_ _1524_ _0567_ VDD VSS gf180mcu_fd_sc_mcu9t5v0__and4_2
X_1531_ _0566_ _0567_ _0568_ VDD VSS gf180mcu_fd_sc_mcu9t5v0__nand2_4
X_1532_ _0568_ net84 VDD VSS gf180mcu_fd_sc_mcu9t5v0__clkinv_2
X_1533_ _1478_ _0569_ VDD VSS gf180mcu_fd_sc_mcu9t5v0__clkinv_2
X_1534_ _0569_ _1488_ _0570_ VDD VSS gf180mcu_fd_sc_mcu9t5v0__and2_2
X_1535_ _1487_ _0570_ _0571_ VDD VSS gf180mcu_fd_sc_mcu9t5v0__or2_2
X_1536_ _1491_ _0571_ _1490_ _0572_ VDD VSS gf180mcu_fd_sc_mcu9t5v0__aoi21_2
X_1537_ _1494_ _0572_ _0573_ VDD VSS gf180mcu_fd_sc_mcu9t5v0__xor2_2
X_1538_ _0573_ net82 VDD VSS gf180mcu_fd_sc_mcu9t5v0__clkinv_2
X_1539_ _1480_ _0574_ VDD VSS gf180mcu_fd_sc_mcu9t5v0__clkinv_2
X_1540_ _0574_ _1491_ _0575_ VDD VSS gf180mcu_fd_sc_mcu9t5v0__and2_2
X_1541_ _1490_ _0575_ _0576_ VDD VSS gf180mcu_fd_sc_mcu9t5v0__or2_2
X_1542_ _1494_ _0576_ _1493_ _0577_ VDD VSS gf180mcu_fd_sc_mcu9t5v0__aoi21_2
X_1543_ _0566_ _0577_ _0578_ VDD VSS gf180mcu_fd_sc_mcu9t5v0__xnor2_2
X_1544_ _0578_ net83 VDD VSS gf180mcu_fd_sc_mcu9t5v0__clkinv_2
X_1545_ wr_ptr_gray_sync2\[3\] wr_ptr_gray_sync2\[4\] _1500_
+ VDD VSS gf180mcu_fd_sc_mcu9t5v0__xor2_2
X_1546_ wr_ptr_gray_sync2\[2\] _1500_ _1504_ VDD VSS gf180mcu_fd_sc_mcu9t5v0__xor2_2
X_1547_ wr_ptr_gray_sync2\[1\] _1504_ _1484_ VDD VSS gf180mcu_fd_sc_mcu9t5v0__xnor2_2
X_1548_ _1486_ net41 VDD VSS gf180mcu_fd_sc_mcu9t5v0__clkinv_2
X_1549_ _1485_ _1506_ net42 VDD VSS gf180mcu_fd_sc_mcu9t5v0__xnor2_2
X_1550_ _1483_ _0579_ VDD VSS gf180mcu_fd_sc_mcu9t5v0__clkinv_2
X_1551_ _1498_ _0579_ _0580_ VDD VSS gf180mcu_fd_sc_mcu9t5v0__and2_2
X_1552_ _1497_ _0580_ _0581_ VDD VSS gf180mcu_fd_sc_mcu9t5v0__or2_2
X_1553_ _1506_ _0581_ _1505_ _0582_ VDD VSS gf180mcu_fd_sc_mcu9t5v0__aoi21_2
X_1554_ _1502_ _0582_ net43 VDD VSS gf180mcu_fd_sc_mcu9t5v0__xnor2_2
X_1555_ wr_ptr_gray_sync2\[4\] rd_ptr_bin\[4\] _0583_ VDD
+ VSS gf180mcu_fd_sc_mcu9t5v0__xor2_2
X_1556_ _1485_ _0584_ VDD VSS gf180mcu_fd_sc_mcu9t5v0__clkinv_2
X_1557_ _0584_ _1506_ _0585_ VDD VSS gf180mcu_fd_sc_mcu9t5v0__and2_2
X_1558_ _1505_ _0585_ _0586_ VDD VSS gf180mcu_fd_sc_mcu9t5v0__or2_2
X_1559_ _1502_ _0586_ _1501_ _0587_ VDD VSS gf180mcu_fd_sc_mcu9t5v0__aoi21_2
X_1560_ _0583_ _0587_ net44 VDD VSS gf180mcu_fd_sc_mcu9t5v0__xor2_2
X_1561_ wr_ptr_gray_sync2\[3\] rd_ptr_gray\[3\] _0588_ VDD
+ VSS gf180mcu_fd_sc_mcu9t5v0__xnor2_2
X_1562_ wr_ptr_gray_sync2\[0\] rd_ptr_gray\[0\] _0589_ VDD
+ VSS gf180mcu_fd_sc_mcu9t5v0__xnor2_2
X_1563_ _0588_ _0589_ _0590_ VDD VSS gf180mcu_fd_sc_mcu9t5v0__nand2_2
X_1564_ wr_ptr_gray_sync2\[1\] rd_ptr_gray\[1\] _0591_ VDD
+ VSS gf180mcu_fd_sc_mcu9t5v0__xor2_2
X_1565_ wr_ptr_gray_sync2\[2\] rd_ptr_gray\[2\] _0592_ VDD
+ VSS gf180mcu_fd_sc_mcu9t5v0__xor2_2
X_1566_ _0583_ _0590_ _0591_ _0592_ _0593_ VDD VSS gf180mcu_fd_sc_mcu9t5v0__or4_2
X_1567_ _0593_ net77 VDD VSS gf180mcu_fd_sc_mcu9t5v0__clkinv_2
X_1568_ rd_ptr_bin\[2\] _0594_ VDD VSS gf180mcu_fd_sc_mcu9t5v0__inv_4
X_1569_ _0594_ _0595_ VDD VSS gf180mcu_fd_sc_mcu9t5v0__buf_4
X_1570_ _0595_ _0596_ VDD VSS gf180mcu_fd_sc_mcu9t5v0__clkbuf_8
X_1571_ _0596_ _1503_ VDD VSS gf180mcu_fd_sc_mcu9t5v0__buf_8
X_1572_ rd_ptr_bin\[3\] _0597_ VDD VSS gf180mcu_fd_sc_mcu9t5v0__inv_4
X_1573_ _0597_ _0598_ VDD VSS gf180mcu_fd_sc_mcu9t5v0__clkbuf_8
X_1574_ _0598_ _1499_ VDD VSS gf180mcu_fd_sc_mcu9t5v0__clkbuf_8
X_1575_ _1482_ _1479_ VDD VSS gf180mcu_fd_sc_mcu9t5v0__clkinv_2
X_1576_ wr_ptr_bin\[0\] _0000_ VDD VSS gf180mcu_fd_sc_mcu9t5v0__clkinv_2
X_1577_ rd_ptr_bin\[0\] _0002_ VDD VSS gf180mcu_fd_sc_mcu9t5v0__clkinv_2
X_1578_ _1484_ _1496_ VDD VSS gf180mcu_fd_sc_mcu9t5v0__clkinv_2
X_1579_ wr_ptr_bin\[1\] _1477_ VDD VSS gf180mcu_fd_sc_mcu9t5v0__clkinv_2
X_1580_ rd_ptr_bin\[1\] _1495_ VDD VSS gf180mcu_fd_sc_mcu9t5v0__inv_2
X_1581_ wr_ptr_gray_sync2\[0\] _1484_ _1521_ VDD VSS gf180mcu_fd_sc_mcu9t5v0__xor2_2
X_1582_ rd_ptr_gray_sync2\[0\] _1482_ _1523_ VDD VSS gf180mcu_fd_sc_mcu9t5v0__xnor2_2
X_1583_ _1522_ net40 VDD VSS gf180mcu_fd_sc_mcu9t5v0__clkinv_2
X_1584_ net5 _0599_ VDD VSS gf180mcu_fd_sc_mcu9t5v0__buf_3
X_1585_ wr_ptr_bin\[2\] _0600_ VDD VSS gf180mcu_fd_sc_mcu9t5v0__clkinv_2
X_1586_ wr_ptr_bin\[3\] _0601_ VDD VSS gf180mcu_fd_sc_mcu9t5v0__clkinv_2
X_1587_ _0600_ _0601_ _0602_ VDD VSS gf180mcu_fd_sc_mcu9t5v0__and2_2
X_1588_ net37 net38 _1507_ _0603_ VDD VSS gf180mcu_fd_sc_mcu9t5v0__and3_2
X_1589_ _0568_ _0603_ _0604_ VDD VSS gf180mcu_fd_sc_mcu9t5v0__and2_2
X_1590_ _0602_ _0604_ _0605_ VDD VSS gf180mcu_fd_sc_mcu9t5v0__and2_4
X_1591_ _0605_ _0606_ VDD VSS gf180mcu_fd_sc_mcu9t5v0__buf_8
X_1592_ mem\[0\]\[0\] _0599_ _0606_ _0004_ VDD VSS gf180mcu_fd_sc_mcu9t5v0__mux2_2
X_1593_ net6 _0607_ VDD VSS gf180mcu_fd_sc_mcu9t5v0__buf_3
X_1594_ mem\[0\]\[10\] _0607_ _0606_ _0005_ VDD VSS gf180mcu_fd_sc_mcu9t5v0__mux2_2
X_1595_ net7 _0608_ VDD VSS gf180mcu_fd_sc_mcu9t5v0__buf_3
X_1596_ mem\[0\]\[11\] _0608_ _0606_ _0006_ VDD VSS gf180mcu_fd_sc_mcu9t5v0__mux2_2
X_1597_ net8 _0609_ VDD VSS gf180mcu_fd_sc_mcu9t5v0__buf_3
X_1598_ mem\[0\]\[12\] _0609_ _0606_ _0007_ VDD VSS gf180mcu_fd_sc_mcu9t5v0__mux2_2
X_1599_ net9 _0610_ VDD VSS gf180mcu_fd_sc_mcu9t5v0__buf_3
X_1600_ mem\[0\]\[13\] _0610_ _0606_ _0008_ VDD VSS gf180mcu_fd_sc_mcu9t5v0__mux2_2
X_1601_ net10 _0611_ VDD VSS gf180mcu_fd_sc_mcu9t5v0__buf_3
X_1602_ mem\[0\]\[14\] _0611_ _0606_ _0009_ VDD VSS gf180mcu_fd_sc_mcu9t5v0__mux2_2
X_1603_ net11 _0612_ VDD VSS gf180mcu_fd_sc_mcu9t5v0__buf_3
X_1604_ mem\[0\]\[15\] _0612_ _0606_ _0010_ VDD VSS gf180mcu_fd_sc_mcu9t5v0__mux2_2
X_1605_ net12 _0613_ VDD VSS gf180mcu_fd_sc_mcu9t5v0__clkbuf_4
X_1606_ mem\[0\]\[16\] _0613_ _0606_ _0011_ VDD VSS gf180mcu_fd_sc_mcu9t5v0__mux2_2
X_1607_ net13 _0614_ VDD VSS gf180mcu_fd_sc_mcu9t5v0__clkbuf_3
X_1608_ mem\[0\]\[17\] _0614_ _0606_ _0012_ VDD VSS gf180mcu_fd_sc_mcu9t5v0__mux2_2
X_1609_ net14 _0615_ VDD VSS gf180mcu_fd_sc_mcu9t5v0__buf_3
X_1610_ mem\[0\]\[18\] _0615_ _0606_ _0013_ VDD VSS gf180mcu_fd_sc_mcu9t5v0__mux2_2
X_1611_ net15 _0616_ VDD VSS gf180mcu_fd_sc_mcu9t5v0__clkbuf_3
X_1612_ _0605_ _0617_ VDD VSS gf180mcu_fd_sc_mcu9t5v0__buf_8
X_1613_ mem\[0\]\[19\] _0616_ _0617_ _0014_ VDD VSS gf180mcu_fd_sc_mcu9t5v0__mux2_2
X_1614_ net16 _0618_ VDD VSS gf180mcu_fd_sc_mcu9t5v0__clkbuf_3
X_1615_ mem\[0\]\[1\] _0618_ _0617_ _0015_ VDD VSS gf180mcu_fd_sc_mcu9t5v0__mux2_2
X_1616_ net17 _0619_ VDD VSS gf180mcu_fd_sc_mcu9t5v0__buf_3
X_1617_ mem\[0\]\[20\] _0619_ _0617_ _0016_ VDD VSS gf180mcu_fd_sc_mcu9t5v0__mux2_2
X_1618_ net18 _0620_ VDD VSS gf180mcu_fd_sc_mcu9t5v0__buf_3
X_1619_ mem\[0\]\[21\] _0620_ _0617_ _0017_ VDD VSS gf180mcu_fd_sc_mcu9t5v0__mux2_2
X_1620_ net19 _0621_ VDD VSS gf180mcu_fd_sc_mcu9t5v0__buf_3
X_1621_ mem\[0\]\[22\] _0621_ _0617_ _0018_ VDD VSS gf180mcu_fd_sc_mcu9t5v0__mux2_2
X_1622_ net20 _0622_ VDD VSS gf180mcu_fd_sc_mcu9t5v0__clkbuf_3
X_1623_ mem\[0\]\[23\] _0622_ _0617_ _0019_ VDD VSS gf180mcu_fd_sc_mcu9t5v0__mux2_2
X_1624_ net21 _0623_ VDD VSS gf180mcu_fd_sc_mcu9t5v0__buf_3
X_1625_ mem\[0\]\[24\] _0623_ _0617_ _0020_ VDD VSS gf180mcu_fd_sc_mcu9t5v0__mux2_2
X_1626_ net22 _0624_ VDD VSS gf180mcu_fd_sc_mcu9t5v0__clkbuf_3
X_1627_ mem\[0\]\[25\] _0624_ _0617_ _0021_ VDD VSS gf180mcu_fd_sc_mcu9t5v0__mux2_2
X_1628_ net23 _0625_ VDD VSS gf180mcu_fd_sc_mcu9t5v0__buf_3
X_1629_ mem\[0\]\[26\] _0625_ _0617_ _0022_ VDD VSS gf180mcu_fd_sc_mcu9t5v0__mux2_2
X_1630_ net24 _0626_ VDD VSS gf180mcu_fd_sc_mcu9t5v0__buf_3
X_1631_ mem\[0\]\[27\] _0626_ _0617_ _0023_ VDD VSS gf180mcu_fd_sc_mcu9t5v0__mux2_2
X_1632_ net25 _0627_ VDD VSS gf180mcu_fd_sc_mcu9t5v0__clkbuf_3
X_1633_ _0605_ _0628_ VDD VSS gf180mcu_fd_sc_mcu9t5v0__clkbuf_8
X_1634_ mem\[0\]\[28\] _0627_ _0628_ _0024_ VDD VSS gf180mcu_fd_sc_mcu9t5v0__mux2_2
X_1635_ net26 _0629_ VDD VSS gf180mcu_fd_sc_mcu9t5v0__clkbuf_4
X_1636_ mem\[0\]\[29\] _0629_ _0628_ _0025_ VDD VSS gf180mcu_fd_sc_mcu9t5v0__mux2_2
X_1637_ net27 _0630_ VDD VSS gf180mcu_fd_sc_mcu9t5v0__buf_3
X_1638_ mem\[0\]\[2\] _0630_ _0628_ _0026_ VDD VSS gf180mcu_fd_sc_mcu9t5v0__mux2_2
X_1639_ net28 _0631_ VDD VSS gf180mcu_fd_sc_mcu9t5v0__clkbuf_4
X_1640_ mem\[0\]\[30\] _0631_ _0628_ _0027_ VDD VSS gf180mcu_fd_sc_mcu9t5v0__mux2_2
X_1641_ net29 _0632_ VDD VSS gf180mcu_fd_sc_mcu9t5v0__buf_3
X_1642_ mem\[0\]\[31\] _0632_ _0628_ _0028_ VDD VSS gf180mcu_fd_sc_mcu9t5v0__mux2_2
X_1643_ net30 _0633_ VDD VSS gf180mcu_fd_sc_mcu9t5v0__clkbuf_4
X_1644_ mem\[0\]\[3\] _0633_ _0628_ _0029_ VDD VSS gf180mcu_fd_sc_mcu9t5v0__mux2_2
X_1645_ net31 _0634_ VDD VSS gf180mcu_fd_sc_mcu9t5v0__buf_3
X_1646_ mem\[0\]\[4\] _0634_ _0628_ _0030_ VDD VSS gf180mcu_fd_sc_mcu9t5v0__mux2_2
X_1647_ net32 _0635_ VDD VSS gf180mcu_fd_sc_mcu9t5v0__buf_3
X_1648_ mem\[0\]\[5\] _0635_ _0628_ _0031_ VDD VSS gf180mcu_fd_sc_mcu9t5v0__mux2_2
X_1649_ net33 _0636_ VDD VSS gf180mcu_fd_sc_mcu9t5v0__buf_3
X_1650_ mem\[0\]\[6\] _0636_ _0628_ _0032_ VDD VSS gf180mcu_fd_sc_mcu9t5v0__mux2_2
X_1651_ net34 _0637_ VDD VSS gf180mcu_fd_sc_mcu9t5v0__buf_3
X_1652_ mem\[0\]\[7\] _0637_ _0628_ _0033_ VDD VSS gf180mcu_fd_sc_mcu9t5v0__mux2_2
X_1653_ net35 _0638_ VDD VSS gf180mcu_fd_sc_mcu9t5v0__buf_3
X_1654_ mem\[0\]\[8\] _0638_ _0605_ _0034_ VDD VSS gf180mcu_fd_sc_mcu9t5v0__mux2_2
X_1655_ net36 _0639_ VDD VSS gf180mcu_fd_sc_mcu9t5v0__buf_3
X_1656_ mem\[0\]\[9\] _0639_ _0605_ _0035_ VDD VSS gf180mcu_fd_sc_mcu9t5v0__mux2_2
X_1657_ net37 net38 _1508_ _0640_ VDD VSS gf180mcu_fd_sc_mcu9t5v0__and3_2
X_1658_ _0600_ wr_ptr_bin\[3\] _0568_ _0641_ VDD VSS gf180mcu_fd_sc_mcu9t5v0__and3_2
X_1659_ _0640_ _0641_ _0642_ VDD VSS gf180mcu_fd_sc_mcu9t5v0__and2_4
X_1660_ _0642_ _0643_ VDD VSS gf180mcu_fd_sc_mcu9t5v0__clkbuf_8
X_1661_ mem\[10\]\[0\] _0599_ _0643_ _0036_ VDD VSS gf180mcu_fd_sc_mcu9t5v0__mux2_2
X_1662_ mem\[10\]\[10\] _0607_ _0643_ _0037_ VDD VSS gf180mcu_fd_sc_mcu9t5v0__mux2_2
X_1663_ mem\[10\]\[11\] _0608_ _0643_ _0038_ VDD VSS gf180mcu_fd_sc_mcu9t5v0__mux2_2
X_1664_ mem\[10\]\[12\] _0609_ _0643_ _0039_ VDD VSS gf180mcu_fd_sc_mcu9t5v0__mux2_2
X_1665_ mem\[10\]\[13\] _0610_ _0643_ _0040_ VDD VSS gf180mcu_fd_sc_mcu9t5v0__mux2_2
X_1666_ mem\[10\]\[14\] _0611_ _0643_ _0041_ VDD VSS gf180mcu_fd_sc_mcu9t5v0__mux2_2
X_1667_ mem\[10\]\[15\] _0612_ _0643_ _0042_ VDD VSS gf180mcu_fd_sc_mcu9t5v0__mux2_2
X_1668_ mem\[10\]\[16\] _0613_ _0643_ _0043_ VDD VSS gf180mcu_fd_sc_mcu9t5v0__mux2_2
X_1669_ mem\[10\]\[17\] _0614_ _0643_ _0044_ VDD VSS gf180mcu_fd_sc_mcu9t5v0__mux2_2
X_1670_ mem\[10\]\[18\] _0615_ _0643_ _0045_ VDD VSS gf180mcu_fd_sc_mcu9t5v0__mux2_2
X_1671_ _0642_ _0644_ VDD VSS gf180mcu_fd_sc_mcu9t5v0__buf_8
X_1672_ mem\[10\]\[19\] _0616_ _0644_ _0046_ VDD VSS gf180mcu_fd_sc_mcu9t5v0__mux2_2
X_1673_ mem\[10\]\[1\] _0618_ _0644_ _0047_ VDD VSS gf180mcu_fd_sc_mcu9t5v0__mux2_2
X_1674_ mem\[10\]\[20\] _0619_ _0644_ _0048_ VDD VSS gf180mcu_fd_sc_mcu9t5v0__mux2_2
X_1675_ mem\[10\]\[21\] _0620_ _0644_ _0049_ VDD VSS gf180mcu_fd_sc_mcu9t5v0__mux2_2
X_1676_ mem\[10\]\[22\] _0621_ _0644_ _0050_ VDD VSS gf180mcu_fd_sc_mcu9t5v0__mux2_2
X_1677_ mem\[10\]\[23\] _0622_ _0644_ _0051_ VDD VSS gf180mcu_fd_sc_mcu9t5v0__mux2_2
X_1678_ mem\[10\]\[24\] _0623_ _0644_ _0052_ VDD VSS gf180mcu_fd_sc_mcu9t5v0__mux2_2
X_1679_ mem\[10\]\[25\] _0624_ _0644_ _0053_ VDD VSS gf180mcu_fd_sc_mcu9t5v0__mux2_2
X_1680_ mem\[10\]\[26\] _0625_ _0644_ _0054_ VDD VSS gf180mcu_fd_sc_mcu9t5v0__mux2_2
X_1681_ mem\[10\]\[27\] _0626_ _0644_ _0055_ VDD VSS gf180mcu_fd_sc_mcu9t5v0__mux2_2
X_1682_ _0642_ _0645_ VDD VSS gf180mcu_fd_sc_mcu9t5v0__buf_8
X_1683_ mem\[10\]\[28\] _0627_ _0645_ _0056_ VDD VSS gf180mcu_fd_sc_mcu9t5v0__mux2_2
X_1684_ mem\[10\]\[29\] _0629_ _0645_ _0057_ VDD VSS gf180mcu_fd_sc_mcu9t5v0__mux2_2
X_1685_ mem\[10\]\[2\] _0630_ _0645_ _0058_ VDD VSS gf180mcu_fd_sc_mcu9t5v0__mux2_2
X_1686_ mem\[10\]\[30\] _0631_ _0645_ _0059_ VDD VSS gf180mcu_fd_sc_mcu9t5v0__mux2_2
X_1687_ mem\[10\]\[31\] _0632_ _0645_ _0060_ VDD VSS gf180mcu_fd_sc_mcu9t5v0__mux2_2
X_1688_ mem\[10\]\[3\] _0633_ _0645_ _0061_ VDD VSS gf180mcu_fd_sc_mcu9t5v0__mux2_2
X_1689_ mem\[10\]\[4\] _0634_ _0645_ _0062_ VDD VSS gf180mcu_fd_sc_mcu9t5v0__mux2_2
X_1690_ mem\[10\]\[5\] _0635_ _0645_ _0063_ VDD VSS gf180mcu_fd_sc_mcu9t5v0__mux2_2
X_1691_ mem\[10\]\[6\] _0636_ _0645_ _0064_ VDD VSS gf180mcu_fd_sc_mcu9t5v0__mux2_2
X_1692_ mem\[10\]\[7\] _0637_ _0645_ _0065_ VDD VSS gf180mcu_fd_sc_mcu9t5v0__mux2_2
X_1693_ mem\[10\]\[8\] _0638_ _0642_ _0066_ VDD VSS gf180mcu_fd_sc_mcu9t5v0__mux2_2
X_1694_ mem\[10\]\[9\] _0639_ _0642_ _0067_ VDD VSS gf180mcu_fd_sc_mcu9t5v0__mux2_2
X_1695_ net37 net38 _1512_ _0646_ VDD VSS gf180mcu_fd_sc_mcu9t5v0__and3_2
X_1696_ _0641_ _0646_ _0647_ VDD VSS gf180mcu_fd_sc_mcu9t5v0__and2_4
X_1697_ _0647_ _0648_ VDD VSS gf180mcu_fd_sc_mcu9t5v0__clkbuf_8
X_1698_ mem\[11\]\[0\] _0599_ _0648_ _0068_ VDD VSS gf180mcu_fd_sc_mcu9t5v0__mux2_2
X_1699_ mem\[11\]\[10\] _0607_ _0648_ _0069_ VDD VSS gf180mcu_fd_sc_mcu9t5v0__mux2_2
X_1700_ mem\[11\]\[11\] _0608_ _0648_ _0070_ VDD VSS gf180mcu_fd_sc_mcu9t5v0__mux2_2
X_1701_ mem\[11\]\[12\] _0609_ _0648_ _0071_ VDD VSS gf180mcu_fd_sc_mcu9t5v0__mux2_2
X_1702_ mem\[11\]\[13\] _0610_ _0648_ _0072_ VDD VSS gf180mcu_fd_sc_mcu9t5v0__mux2_2
X_1703_ mem\[11\]\[14\] _0611_ _0648_ _0073_ VDD VSS gf180mcu_fd_sc_mcu9t5v0__mux2_2
X_1704_ mem\[11\]\[15\] _0612_ _0648_ _0074_ VDD VSS gf180mcu_fd_sc_mcu9t5v0__mux2_2
X_1705_ mem\[11\]\[16\] _0613_ _0648_ _0075_ VDD VSS gf180mcu_fd_sc_mcu9t5v0__mux2_2
X_1706_ mem\[11\]\[17\] _0614_ _0648_ _0076_ VDD VSS gf180mcu_fd_sc_mcu9t5v0__mux2_2
X_1707_ mem\[11\]\[18\] _0615_ _0648_ _0077_ VDD VSS gf180mcu_fd_sc_mcu9t5v0__mux2_2
X_1708_ _0647_ _0649_ VDD VSS gf180mcu_fd_sc_mcu9t5v0__clkbuf_8
X_1709_ mem\[11\]\[19\] _0616_ _0649_ _0078_ VDD VSS gf180mcu_fd_sc_mcu9t5v0__mux2_2
X_1710_ mem\[11\]\[1\] _0618_ _0649_ _0079_ VDD VSS gf180mcu_fd_sc_mcu9t5v0__mux2_2
X_1711_ mem\[11\]\[20\] _0619_ _0649_ _0080_ VDD VSS gf180mcu_fd_sc_mcu9t5v0__mux2_2
X_1712_ mem\[11\]\[21\] _0620_ _0649_ _0081_ VDD VSS gf180mcu_fd_sc_mcu9t5v0__mux2_2
X_1713_ mem\[11\]\[22\] _0621_ _0649_ _0082_ VDD VSS gf180mcu_fd_sc_mcu9t5v0__mux2_2
X_1714_ mem\[11\]\[23\] _0622_ _0649_ _0083_ VDD VSS gf180mcu_fd_sc_mcu9t5v0__mux2_2
X_1715_ mem\[11\]\[24\] _0623_ _0649_ _0084_ VDD VSS gf180mcu_fd_sc_mcu9t5v0__mux2_2
X_1716_ mem\[11\]\[25\] _0624_ _0649_ _0085_ VDD VSS gf180mcu_fd_sc_mcu9t5v0__mux2_2
X_1717_ mem\[11\]\[26\] _0625_ _0649_ _0086_ VDD VSS gf180mcu_fd_sc_mcu9t5v0__mux2_2
X_1718_ mem\[11\]\[27\] _0626_ _0649_ _0087_ VDD VSS gf180mcu_fd_sc_mcu9t5v0__mux2_2
X_1719_ _0647_ _0650_ VDD VSS gf180mcu_fd_sc_mcu9t5v0__clkbuf_8
X_1720_ mem\[11\]\[28\] _0627_ _0650_ _0088_ VDD VSS gf180mcu_fd_sc_mcu9t5v0__mux2_2
X_1721_ mem\[11\]\[29\] _0629_ _0650_ _0089_ VDD VSS gf180mcu_fd_sc_mcu9t5v0__mux2_2
X_1722_ mem\[11\]\[2\] _0630_ _0650_ _0090_ VDD VSS gf180mcu_fd_sc_mcu9t5v0__mux2_2
X_1723_ mem\[11\]\[30\] _0631_ _0650_ _0091_ VDD VSS gf180mcu_fd_sc_mcu9t5v0__mux2_2
X_1724_ mem\[11\]\[31\] _0632_ _0650_ _0092_ VDD VSS gf180mcu_fd_sc_mcu9t5v0__mux2_2
X_1725_ mem\[11\]\[3\] _0633_ _0650_ _0093_ VDD VSS gf180mcu_fd_sc_mcu9t5v0__mux2_2
X_1726_ mem\[11\]\[4\] _0634_ _0650_ _0094_ VDD VSS gf180mcu_fd_sc_mcu9t5v0__mux2_2
X_1727_ mem\[11\]\[5\] _0635_ _0650_ _0095_ VDD VSS gf180mcu_fd_sc_mcu9t5v0__mux2_2
X_1728_ mem\[11\]\[6\] _0636_ _0650_ _0096_ VDD VSS gf180mcu_fd_sc_mcu9t5v0__mux2_2
X_1729_ mem\[11\]\[7\] _0637_ _0650_ _0097_ VDD VSS gf180mcu_fd_sc_mcu9t5v0__mux2_2
X_1730_ mem\[11\]\[8\] _0638_ _0647_ _0098_ VDD VSS gf180mcu_fd_sc_mcu9t5v0__mux2_2
X_1731_ mem\[11\]\[9\] _0639_ _0647_ _0099_ VDD VSS gf180mcu_fd_sc_mcu9t5v0__mux2_2
X_1732_ wr_ptr_bin\[2\] wr_ptr_bin\[3\] _0651_ VDD VSS gf180mcu_fd_sc_mcu9t5v0__and2_2
X_1733_ _0604_ _0651_ _0652_ VDD VSS gf180mcu_fd_sc_mcu9t5v0__and2_4
X_1734_ _0652_ _0653_ VDD VSS gf180mcu_fd_sc_mcu9t5v0__buf_8
X_1735_ mem\[12\]\[0\] _0599_ _0653_ _0100_ VDD VSS gf180mcu_fd_sc_mcu9t5v0__mux2_2
X_1736_ mem\[12\]\[10\] _0607_ _0653_ _0101_ VDD VSS gf180mcu_fd_sc_mcu9t5v0__mux2_2
X_1737_ mem\[12\]\[11\] _0608_ _0653_ _0102_ VDD VSS gf180mcu_fd_sc_mcu9t5v0__mux2_2
X_1738_ mem\[12\]\[12\] _0609_ _0653_ _0103_ VDD VSS gf180mcu_fd_sc_mcu9t5v0__mux2_2
X_1739_ mem\[12\]\[13\] _0610_ _0653_ _0104_ VDD VSS gf180mcu_fd_sc_mcu9t5v0__mux2_2
X_1740_ mem\[12\]\[14\] _0611_ _0653_ _0105_ VDD VSS gf180mcu_fd_sc_mcu9t5v0__mux2_2
X_1741_ mem\[12\]\[15\] _0612_ _0653_ _0106_ VDD VSS gf180mcu_fd_sc_mcu9t5v0__mux2_2
X_1742_ mem\[12\]\[16\] _0613_ _0653_ _0107_ VDD VSS gf180mcu_fd_sc_mcu9t5v0__mux2_2
X_1743_ mem\[12\]\[17\] _0614_ _0653_ _0108_ VDD VSS gf180mcu_fd_sc_mcu9t5v0__mux2_2
X_1744_ mem\[12\]\[18\] _0615_ _0653_ _0109_ VDD VSS gf180mcu_fd_sc_mcu9t5v0__mux2_2
X_1745_ _0652_ _0654_ VDD VSS gf180mcu_fd_sc_mcu9t5v0__buf_8
X_1746_ mem\[12\]\[19\] _0616_ _0654_ _0110_ VDD VSS gf180mcu_fd_sc_mcu9t5v0__mux2_2
X_1747_ mem\[12\]\[1\] _0618_ _0654_ _0111_ VDD VSS gf180mcu_fd_sc_mcu9t5v0__mux2_2
X_1748_ mem\[12\]\[20\] _0619_ _0654_ _0112_ VDD VSS gf180mcu_fd_sc_mcu9t5v0__mux2_2
X_1749_ mem\[12\]\[21\] _0620_ _0654_ _0113_ VDD VSS gf180mcu_fd_sc_mcu9t5v0__mux2_2
X_1750_ mem\[12\]\[22\] _0621_ _0654_ _0114_ VDD VSS gf180mcu_fd_sc_mcu9t5v0__mux2_2
X_1751_ mem\[12\]\[23\] _0622_ _0654_ _0115_ VDD VSS gf180mcu_fd_sc_mcu9t5v0__mux2_2
X_1752_ mem\[12\]\[24\] _0623_ _0654_ _0116_ VDD VSS gf180mcu_fd_sc_mcu9t5v0__mux2_2
X_1753_ mem\[12\]\[25\] _0624_ _0654_ _0117_ VDD VSS gf180mcu_fd_sc_mcu9t5v0__mux2_2
X_1754_ mem\[12\]\[26\] _0625_ _0654_ _0118_ VDD VSS gf180mcu_fd_sc_mcu9t5v0__mux2_2
X_1755_ mem\[12\]\[27\] _0626_ _0654_ _0119_ VDD VSS gf180mcu_fd_sc_mcu9t5v0__mux2_2
X_1756_ _0652_ _0655_ VDD VSS gf180mcu_fd_sc_mcu9t5v0__clkbuf_8
X_1757_ mem\[12\]\[28\] _0627_ _0655_ _0120_ VDD VSS gf180mcu_fd_sc_mcu9t5v0__mux2_2
X_1758_ mem\[12\]\[29\] _0629_ _0655_ _0121_ VDD VSS gf180mcu_fd_sc_mcu9t5v0__mux2_2
X_1759_ mem\[12\]\[2\] _0630_ _0655_ _0122_ VDD VSS gf180mcu_fd_sc_mcu9t5v0__mux2_2
X_1760_ mem\[12\]\[30\] _0631_ _0655_ _0123_ VDD VSS gf180mcu_fd_sc_mcu9t5v0__mux2_2
X_1761_ mem\[12\]\[31\] _0632_ _0655_ _0124_ VDD VSS gf180mcu_fd_sc_mcu9t5v0__mux2_2
X_1762_ mem\[12\]\[3\] _0633_ _0655_ _0125_ VDD VSS gf180mcu_fd_sc_mcu9t5v0__mux2_2
X_1763_ mem\[12\]\[4\] _0634_ _0655_ _0126_ VDD VSS gf180mcu_fd_sc_mcu9t5v0__mux2_2
X_1764_ mem\[12\]\[5\] _0635_ _0655_ _0127_ VDD VSS gf180mcu_fd_sc_mcu9t5v0__mux2_2
X_1765_ mem\[12\]\[6\] _0636_ _0655_ _0128_ VDD VSS gf180mcu_fd_sc_mcu9t5v0__mux2_2
X_1766_ mem\[12\]\[7\] _0637_ _0655_ _0129_ VDD VSS gf180mcu_fd_sc_mcu9t5v0__mux2_2
X_1767_ mem\[12\]\[8\] _0638_ _0652_ _0130_ VDD VSS gf180mcu_fd_sc_mcu9t5v0__mux2_2
X_1768_ mem\[12\]\[9\] _0639_ _0652_ _0131_ VDD VSS gf180mcu_fd_sc_mcu9t5v0__mux2_2
X_1769_ net37 net38 _1510_ _0656_ VDD VSS gf180mcu_fd_sc_mcu9t5v0__and3_2
X_1770_ _0568_ _0656_ _0657_ VDD VSS gf180mcu_fd_sc_mcu9t5v0__and2_2
X_1771_ _0651_ _0657_ _0658_ VDD VSS gf180mcu_fd_sc_mcu9t5v0__and2_4
X_1772_ _0658_ _0659_ VDD VSS gf180mcu_fd_sc_mcu9t5v0__buf_8
X_1773_ mem\[13\]\[0\] _0599_ _0659_ _0132_ VDD VSS gf180mcu_fd_sc_mcu9t5v0__mux2_2
X_1774_ mem\[13\]\[10\] _0607_ _0659_ _0133_ VDD VSS gf180mcu_fd_sc_mcu9t5v0__mux2_2
X_1775_ mem\[13\]\[11\] _0608_ _0659_ _0134_ VDD VSS gf180mcu_fd_sc_mcu9t5v0__mux2_2
X_1776_ mem\[13\]\[12\] _0609_ _0659_ _0135_ VDD VSS gf180mcu_fd_sc_mcu9t5v0__mux2_2
X_1777_ mem\[13\]\[13\] _0610_ _0659_ _0136_ VDD VSS gf180mcu_fd_sc_mcu9t5v0__mux2_2
X_1778_ mem\[13\]\[14\] _0611_ _0659_ _0137_ VDD VSS gf180mcu_fd_sc_mcu9t5v0__mux2_2
X_1779_ mem\[13\]\[15\] _0612_ _0659_ _0138_ VDD VSS gf180mcu_fd_sc_mcu9t5v0__mux2_2
X_1780_ mem\[13\]\[16\] _0613_ _0659_ _0139_ VDD VSS gf180mcu_fd_sc_mcu9t5v0__mux2_2
X_1781_ mem\[13\]\[17\] _0614_ _0659_ _0140_ VDD VSS gf180mcu_fd_sc_mcu9t5v0__mux2_2
X_1782_ mem\[13\]\[18\] _0615_ _0659_ _0141_ VDD VSS gf180mcu_fd_sc_mcu9t5v0__mux2_2
X_1783_ _0658_ _0660_ VDD VSS gf180mcu_fd_sc_mcu9t5v0__buf_8
X_1784_ mem\[13\]\[19\] _0616_ _0660_ _0142_ VDD VSS gf180mcu_fd_sc_mcu9t5v0__mux2_2
X_1785_ mem\[13\]\[1\] _0618_ _0660_ _0143_ VDD VSS gf180mcu_fd_sc_mcu9t5v0__mux2_2
X_1786_ mem\[13\]\[20\] _0619_ _0660_ _0144_ VDD VSS gf180mcu_fd_sc_mcu9t5v0__mux2_2
X_1787_ mem\[13\]\[21\] _0620_ _0660_ _0145_ VDD VSS gf180mcu_fd_sc_mcu9t5v0__mux2_2
X_1788_ mem\[13\]\[22\] _0621_ _0660_ _0146_ VDD VSS gf180mcu_fd_sc_mcu9t5v0__mux2_2
X_1789_ mem\[13\]\[23\] _0622_ _0660_ _0147_ VDD VSS gf180mcu_fd_sc_mcu9t5v0__mux2_2
X_1790_ mem\[13\]\[24\] _0623_ _0660_ _0148_ VDD VSS gf180mcu_fd_sc_mcu9t5v0__mux2_2
X_1791_ mem\[13\]\[25\] _0624_ _0660_ _0149_ VDD VSS gf180mcu_fd_sc_mcu9t5v0__mux2_2
X_1792_ mem\[13\]\[26\] _0625_ _0660_ _0150_ VDD VSS gf180mcu_fd_sc_mcu9t5v0__mux2_2
X_1793_ mem\[13\]\[27\] _0626_ _0660_ _0151_ VDD VSS gf180mcu_fd_sc_mcu9t5v0__mux2_2
X_1794_ _0658_ _0661_ VDD VSS gf180mcu_fd_sc_mcu9t5v0__buf_8
X_1795_ mem\[13\]\[28\] _0627_ _0661_ _0152_ VDD VSS gf180mcu_fd_sc_mcu9t5v0__mux2_2
X_1796_ mem\[13\]\[29\] _0629_ _0661_ _0153_ VDD VSS gf180mcu_fd_sc_mcu9t5v0__mux2_2
X_1797_ mem\[13\]\[2\] _0630_ _0661_ _0154_ VDD VSS gf180mcu_fd_sc_mcu9t5v0__mux2_2
X_1798_ mem\[13\]\[30\] _0631_ _0661_ _0155_ VDD VSS gf180mcu_fd_sc_mcu9t5v0__mux2_2
X_1799_ mem\[13\]\[31\] _0632_ _0661_ _0156_ VDD VSS gf180mcu_fd_sc_mcu9t5v0__mux2_2
X_1800_ mem\[13\]\[3\] _0633_ _0661_ _0157_ VDD VSS gf180mcu_fd_sc_mcu9t5v0__mux2_2
X_1801_ mem\[13\]\[4\] _0634_ _0661_ _0158_ VDD VSS gf180mcu_fd_sc_mcu9t5v0__mux2_2
X_1802_ mem\[13\]\[5\] _0635_ _0661_ _0159_ VDD VSS gf180mcu_fd_sc_mcu9t5v0__mux2_2
X_1803_ mem\[13\]\[6\] _0636_ _0661_ _0160_ VDD VSS gf180mcu_fd_sc_mcu9t5v0__mux2_2
X_1804_ mem\[13\]\[7\] _0637_ _0661_ _0161_ VDD VSS gf180mcu_fd_sc_mcu9t5v0__mux2_2
X_1805_ mem\[13\]\[8\] _0638_ _0658_ _0162_ VDD VSS gf180mcu_fd_sc_mcu9t5v0__mux2_2
X_1806_ mem\[13\]\[9\] _0639_ _0658_ _0163_ VDD VSS gf180mcu_fd_sc_mcu9t5v0__mux2_2
X_1807_ _0568_ _0640_ _0662_ VDD VSS gf180mcu_fd_sc_mcu9t5v0__and2_2
X_1808_ _0662_ _0651_ _0663_ VDD VSS gf180mcu_fd_sc_mcu9t5v0__and2_4
X_1809_ _0663_ _0664_ VDD VSS gf180mcu_fd_sc_mcu9t5v0__buf_8
X_1810_ mem\[14\]\[0\] _0599_ _0664_ _0164_ VDD VSS gf180mcu_fd_sc_mcu9t5v0__mux2_2
X_1811_ mem\[14\]\[10\] _0607_ _0664_ _0165_ VDD VSS gf180mcu_fd_sc_mcu9t5v0__mux2_2
X_1812_ mem\[14\]\[11\] _0608_ _0664_ _0166_ VDD VSS gf180mcu_fd_sc_mcu9t5v0__mux2_2
X_1813_ mem\[14\]\[12\] _0609_ _0664_ _0167_ VDD VSS gf180mcu_fd_sc_mcu9t5v0__mux2_2
X_1814_ mem\[14\]\[13\] _0610_ _0664_ _0168_ VDD VSS gf180mcu_fd_sc_mcu9t5v0__mux2_2
X_1815_ mem\[14\]\[14\] _0611_ _0664_ _0169_ VDD VSS gf180mcu_fd_sc_mcu9t5v0__mux2_2
X_1816_ mem\[14\]\[15\] _0612_ _0664_ _0170_ VDD VSS gf180mcu_fd_sc_mcu9t5v0__mux2_2
X_1817_ mem\[14\]\[16\] _0613_ _0664_ _0171_ VDD VSS gf180mcu_fd_sc_mcu9t5v0__mux2_2
X_1818_ mem\[14\]\[17\] _0614_ _0664_ _0172_ VDD VSS gf180mcu_fd_sc_mcu9t5v0__mux2_2
X_1819_ mem\[14\]\[18\] _0615_ _0664_ _0173_ VDD VSS gf180mcu_fd_sc_mcu9t5v0__mux2_2
X_1820_ _0663_ _0665_ VDD VSS gf180mcu_fd_sc_mcu9t5v0__buf_8
X_1821_ mem\[14\]\[19\] _0616_ _0665_ _0174_ VDD VSS gf180mcu_fd_sc_mcu9t5v0__mux2_2
X_1822_ mem\[14\]\[1\] _0618_ _0665_ _0175_ VDD VSS gf180mcu_fd_sc_mcu9t5v0__mux2_2
X_1823_ mem\[14\]\[20\] _0619_ _0665_ _0176_ VDD VSS gf180mcu_fd_sc_mcu9t5v0__mux2_2
X_1824_ mem\[14\]\[21\] _0620_ _0665_ _0177_ VDD VSS gf180mcu_fd_sc_mcu9t5v0__mux2_2
X_1825_ mem\[14\]\[22\] _0621_ _0665_ _0178_ VDD VSS gf180mcu_fd_sc_mcu9t5v0__mux2_2
X_1826_ mem\[14\]\[23\] _0622_ _0665_ _0179_ VDD VSS gf180mcu_fd_sc_mcu9t5v0__mux2_2
X_1827_ mem\[14\]\[24\] _0623_ _0665_ _0180_ VDD VSS gf180mcu_fd_sc_mcu9t5v0__mux2_2
X_1828_ mem\[14\]\[25\] _0624_ _0665_ _0181_ VDD VSS gf180mcu_fd_sc_mcu9t5v0__mux2_2
X_1829_ mem\[14\]\[26\] _0625_ _0665_ _0182_ VDD VSS gf180mcu_fd_sc_mcu9t5v0__mux2_2
X_1830_ mem\[14\]\[27\] _0626_ _0665_ _0183_ VDD VSS gf180mcu_fd_sc_mcu9t5v0__mux2_2
X_1831_ _0663_ _0666_ VDD VSS gf180mcu_fd_sc_mcu9t5v0__clkbuf_8
X_1832_ mem\[14\]\[28\] _0627_ _0666_ _0184_ VDD VSS gf180mcu_fd_sc_mcu9t5v0__mux2_2
X_1833_ mem\[14\]\[29\] _0629_ _0666_ _0185_ VDD VSS gf180mcu_fd_sc_mcu9t5v0__mux2_2
X_1834_ mem\[14\]\[2\] _0630_ _0666_ _0186_ VDD VSS gf180mcu_fd_sc_mcu9t5v0__mux2_2
X_1835_ mem\[14\]\[30\] _0631_ _0666_ _0187_ VDD VSS gf180mcu_fd_sc_mcu9t5v0__mux2_2
X_1836_ mem\[14\]\[31\] _0632_ _0666_ _0188_ VDD VSS gf180mcu_fd_sc_mcu9t5v0__mux2_2
X_1837_ mem\[14\]\[3\] _0633_ _0666_ _0189_ VDD VSS gf180mcu_fd_sc_mcu9t5v0__mux2_2
X_1838_ mem\[14\]\[4\] _0634_ _0666_ _0190_ VDD VSS gf180mcu_fd_sc_mcu9t5v0__mux2_2
X_1839_ mem\[14\]\[5\] _0635_ _0666_ _0191_ VDD VSS gf180mcu_fd_sc_mcu9t5v0__mux2_2
X_1840_ mem\[14\]\[6\] _0636_ _0666_ _0192_ VDD VSS gf180mcu_fd_sc_mcu9t5v0__mux2_2
X_1841_ mem\[14\]\[7\] _0637_ _0666_ _0193_ VDD VSS gf180mcu_fd_sc_mcu9t5v0__mux2_2
X_1842_ mem\[14\]\[8\] _0638_ _0663_ _0194_ VDD VSS gf180mcu_fd_sc_mcu9t5v0__mux2_2
X_1843_ mem\[14\]\[9\] _0639_ _0663_ _0195_ VDD VSS gf180mcu_fd_sc_mcu9t5v0__mux2_2
X_1844_ _0568_ _0646_ _0667_ VDD VSS gf180mcu_fd_sc_mcu9t5v0__and2_2
X_1845_ _0667_ _0651_ _0668_ VDD VSS gf180mcu_fd_sc_mcu9t5v0__and2_4
X_1846_ _0668_ _0669_ VDD VSS gf180mcu_fd_sc_mcu9t5v0__buf_8
X_1847_ mem\[15\]\[0\] _0599_ _0669_ _0196_ VDD VSS gf180mcu_fd_sc_mcu9t5v0__mux2_2
X_1848_ mem\[15\]\[10\] _0607_ _0669_ _0197_ VDD VSS gf180mcu_fd_sc_mcu9t5v0__mux2_2
X_1849_ mem\[15\]\[11\] _0608_ _0669_ _0198_ VDD VSS gf180mcu_fd_sc_mcu9t5v0__mux2_2
X_1850_ mem\[15\]\[12\] _0609_ _0669_ _0199_ VDD VSS gf180mcu_fd_sc_mcu9t5v0__mux2_2
X_1851_ mem\[15\]\[13\] _0610_ _0669_ _0200_ VDD VSS gf180mcu_fd_sc_mcu9t5v0__mux2_2
X_1852_ mem\[15\]\[14\] _0611_ _0669_ _0201_ VDD VSS gf180mcu_fd_sc_mcu9t5v0__mux2_2
X_1853_ mem\[15\]\[15\] _0612_ _0669_ _0202_ VDD VSS gf180mcu_fd_sc_mcu9t5v0__mux2_2
X_1854_ mem\[15\]\[16\] _0613_ _0669_ _0203_ VDD VSS gf180mcu_fd_sc_mcu9t5v0__mux2_2
X_1855_ mem\[15\]\[17\] _0614_ _0669_ _0204_ VDD VSS gf180mcu_fd_sc_mcu9t5v0__mux2_2
X_1856_ mem\[15\]\[18\] _0615_ _0669_ _0205_ VDD VSS gf180mcu_fd_sc_mcu9t5v0__mux2_2
X_1857_ _0668_ _0670_ VDD VSS gf180mcu_fd_sc_mcu9t5v0__buf_8
X_1858_ mem\[15\]\[19\] _0616_ _0670_ _0206_ VDD VSS gf180mcu_fd_sc_mcu9t5v0__mux2_2
X_1859_ mem\[15\]\[1\] _0618_ _0670_ _0207_ VDD VSS gf180mcu_fd_sc_mcu9t5v0__mux2_2
X_1860_ mem\[15\]\[20\] _0619_ _0670_ _0208_ VDD VSS gf180mcu_fd_sc_mcu9t5v0__mux2_2
X_1861_ mem\[15\]\[21\] _0620_ _0670_ _0209_ VDD VSS gf180mcu_fd_sc_mcu9t5v0__mux2_2
X_1862_ mem\[15\]\[22\] _0621_ _0670_ _0210_ VDD VSS gf180mcu_fd_sc_mcu9t5v0__mux2_2
X_1863_ mem\[15\]\[23\] _0622_ _0670_ _0211_ VDD VSS gf180mcu_fd_sc_mcu9t5v0__mux2_2
X_1864_ mem\[15\]\[24\] _0623_ _0670_ _0212_ VDD VSS gf180mcu_fd_sc_mcu9t5v0__mux2_2
X_1865_ mem\[15\]\[25\] _0624_ _0670_ _0213_ VDD VSS gf180mcu_fd_sc_mcu9t5v0__mux2_2
X_1866_ mem\[15\]\[26\] _0625_ _0670_ _0214_ VDD VSS gf180mcu_fd_sc_mcu9t5v0__mux2_2
X_1867_ mem\[15\]\[27\] _0626_ _0670_ _0215_ VDD VSS gf180mcu_fd_sc_mcu9t5v0__mux2_2
X_1868_ _0668_ _0671_ VDD VSS gf180mcu_fd_sc_mcu9t5v0__clkbuf_8
X_1869_ mem\[15\]\[28\] _0627_ _0671_ _0216_ VDD VSS gf180mcu_fd_sc_mcu9t5v0__mux2_2
X_1870_ mem\[15\]\[29\] _0629_ _0671_ _0217_ VDD VSS gf180mcu_fd_sc_mcu9t5v0__mux2_2
X_1871_ mem\[15\]\[2\] _0630_ _0671_ _0218_ VDD VSS gf180mcu_fd_sc_mcu9t5v0__mux2_2
X_1872_ mem\[15\]\[30\] _0631_ _0671_ _0219_ VDD VSS gf180mcu_fd_sc_mcu9t5v0__mux2_2
X_1873_ mem\[15\]\[31\] _0632_ _0671_ _0220_ VDD VSS gf180mcu_fd_sc_mcu9t5v0__mux2_2
X_1874_ mem\[15\]\[3\] _0633_ _0671_ _0221_ VDD VSS gf180mcu_fd_sc_mcu9t5v0__mux2_2
X_1875_ mem\[15\]\[4\] _0634_ _0671_ _0222_ VDD VSS gf180mcu_fd_sc_mcu9t5v0__mux2_2
X_1876_ mem\[15\]\[5\] _0635_ _0671_ _0223_ VDD VSS gf180mcu_fd_sc_mcu9t5v0__mux2_2
X_1877_ mem\[15\]\[6\] _0636_ _0671_ _0224_ VDD VSS gf180mcu_fd_sc_mcu9t5v0__mux2_2
X_1878_ mem\[15\]\[7\] _0637_ _0671_ _0225_ VDD VSS gf180mcu_fd_sc_mcu9t5v0__mux2_2
X_1879_ mem\[15\]\[8\] _0638_ _0668_ _0226_ VDD VSS gf180mcu_fd_sc_mcu9t5v0__mux2_2
X_1880_ mem\[15\]\[9\] _0639_ _0668_ _0227_ VDD VSS gf180mcu_fd_sc_mcu9t5v0__mux2_2
X_1881_ _0602_ _0657_ _0672_ VDD VSS gf180mcu_fd_sc_mcu9t5v0__and2_4
X_1882_ _0672_ _0673_ VDD VSS gf180mcu_fd_sc_mcu9t5v0__clkbuf_8
X_1883_ mem\[1\]\[0\] _0599_ _0673_ _0228_ VDD VSS gf180mcu_fd_sc_mcu9t5v0__mux2_2
X_1884_ mem\[1\]\[10\] _0607_ _0673_ _0229_ VDD VSS gf180mcu_fd_sc_mcu9t5v0__mux2_2
X_1885_ mem\[1\]\[11\] _0608_ _0673_ _0230_ VDD VSS gf180mcu_fd_sc_mcu9t5v0__mux2_2
X_1886_ mem\[1\]\[12\] _0609_ _0673_ _0231_ VDD VSS gf180mcu_fd_sc_mcu9t5v0__mux2_2
X_1887_ mem\[1\]\[13\] _0610_ _0673_ _0232_ VDD VSS gf180mcu_fd_sc_mcu9t5v0__mux2_2
X_1888_ mem\[1\]\[14\] _0611_ _0673_ _0233_ VDD VSS gf180mcu_fd_sc_mcu9t5v0__mux2_2
X_1889_ mem\[1\]\[15\] _0612_ _0673_ _0234_ VDD VSS gf180mcu_fd_sc_mcu9t5v0__mux2_2
X_1890_ mem\[1\]\[16\] _0613_ _0673_ _0235_ VDD VSS gf180mcu_fd_sc_mcu9t5v0__mux2_2
X_1891_ mem\[1\]\[17\] _0614_ _0673_ _0236_ VDD VSS gf180mcu_fd_sc_mcu9t5v0__mux2_2