* CDL Netlist generated by OpenROAD

*.BUSDELIMITER [

.SUBCKT async_fifo almost_empty almost_full empty full pointer_wraparound_flag
+ rd_clk rd_count[0] rd_count[1] rd_count[2] rd_count[3] rd_count[4]
+ rd_data[0] rd_data[1] rd_data[2] rd_data[3] rd_data[4] rd_data[5]
+ rd_data[6] rd_data[7] rd_en rd_rst_n sync_error_flag wr_clk
+ wr_count[0] wr_count[1] wr_count[2] wr_count[3] wr_count[4]
+ wr_data[0] wr_data[1] wr_data[2] wr_data[3] wr_data[4] wr_data[5]
+ wr_data[6] wr_data[7] wr_en wr_rst_n
X_437_ _405_ net20 VDD VSS gf180mcu_fd_sc_mcu9t5v0__inv_4
X_438_ _403_ _405_ _398_ _400_ _169_ VDD VSS gf180mcu_fd_sc_mcu9t5v0__and4_2
X_439_ _395_ _169_ _000_ VDD VSS gf180mcu_fd_sc_mcu9t5v0__and2_2
X_440_ _403_ _389_ _170_ VDD VSS gf180mcu_fd_sc_mcu9t5v0__and2_2
X_441_ _402_ _170_ _171_ VDD VSS gf180mcu_fd_sc_mcu9t5v0__or2_2
X_442_ _395_ _171_ _394_ _172_ VDD VSS gf180mcu_fd_sc_mcu9t5v0__aoi21_2
X_443_ _398_ _172_ net24 VDD VSS gf180mcu_fd_sc_mcu9t5v0__xnor2_4
X_444_ _403_ _389_ net22 VDD VSS gf180mcu_fd_sc_mcu9t5v0__xor2_4
X_445_ _400_ _173_ VDD VSS gf180mcu_fd_sc_mcu9t5v0__clkinv_2
X_446_ _399_ _174_ VDD VSS gf180mcu_fd_sc_mcu9t5v0__clkinv_2
X_447_ _407_ _173_ _174_ _175_ VDD VSS gf180mcu_fd_sc_mcu9t5v0__oai21_2
X_448_ _403_ _175_ _402_ _176_ VDD VSS gf180mcu_fd_sc_mcu9t5v0__aoi21_2
X_449_ _395_ _176_ net23 VDD VSS gf180mcu_fd_sc_mcu9t5v0__xnor2_4
X_450_ _412_ net34 VDD VSS gf180mcu_fd_sc_mcu9t5v0__inv_4
X_451_ _409_ _177_ VDD VSS gf180mcu_fd_sc_mcu9t5v0__clkinv_2
X_452_ _415_ _178_ VDD VSS gf180mcu_fd_sc_mcu9t5v0__clkinv_2
X_453_ _177_ _413_ _178_ _179_ VDD VSS gf180mcu_fd_sc_mcu9t5v0__oai21_2
X_454_ _419_ _179_ _418_ _180_ VDD VSS gf180mcu_fd_sc_mcu9t5v0__aoi21_2
X_455_ _423_ _180_ _181_ VDD VSS gf180mcu_fd_sc_mcu9t5v0__xor2_4
X_456_ _181_ net37 VDD VSS gf180mcu_fd_sc_mcu9t5v0__clkinv_2
X_457_ _422_ _182_ VDD VSS gf180mcu_fd_sc_mcu9t5v0__clkinv_2
X_458_ _419_ _392_ _183_ VDD VSS gf180mcu_fd_sc_mcu9t5v0__and2_2
X_459_ _418_ _183_ _423_ _184_ VDD VSS gf180mcu_fd_sc_mcu9t5v0__oai21_2
X_460_ _182_ _184_ _185_ VDD VSS gf180mcu_fd_sc_mcu9t5v0__nand2_2
X_461_ _427_ _185_ _186_ VDD VSS gf180mcu_fd_sc_mcu9t5v0__xnor2_4
X_462_ _186_ net38 VDD VSS gf180mcu_fd_sc_mcu9t5v0__clkinv_2
X_463_ rd_ptr_sync\[1\] rd_ptr_sync\[0\] rd_ptr_sync\[3\]
+ rd_ptr_sync\[2\] _187_ VDD VSS gf180mcu_fd_sc_mcu9t5v0__or4_2
X_464_ wr_ptr_bin\[3\] _424_ VDD VSS gf180mcu_fd_sc_mcu9t5v0__clkinv_2
X_465_ wr_ptr_bin\[2\] _420_ VDD VSS gf180mcu_fd_sc_mcu9t5v0__clkinv_2
X_466_ _424_ _420_ _188_ VDD VSS gf180mcu_fd_sc_mcu9t5v0__and2_2
X_467_ wr_ptr_bin\[4\] _429_ _187_ _188_ _010_ VDD VSS gf180mcu_fd_sc_mcu9t5v0__and4_2
X_468_ _409_ _423_ _419_ _412_ _189_ VDD VSS gf180mcu_fd_sc_mcu9t5v0__nand4_2
X_469_ _427_ _189_ _001_ VDD VSS gf180mcu_fd_sc_mcu9t5v0__nor2_2
X_470_ rd_ptr_bin\[2\] _401_ VDD VSS gf180mcu_fd_sc_mcu9t5v0__clkinv_8
X_471_ rd_ptr_bin\[3\] _393_ VDD VSS gf180mcu_fd_sc_mcu9t5v0__clkinv_3
X_472_ wr_ptr_gray_sync2\[4\] wr_ptr_gray_sync2\[3\] _005_
+ VDD VSS gf180mcu_fd_sc_mcu9t5v0__xor2_2
X_473_ wr_ptr_gray_sync2\[2\] _005_ _004_ VDD VSS gf180mcu_fd_sc_mcu9t5v0__xor2_2
X_474_ wr_ptr_gray_sync2\[1\] _004_ _003_ VDD VSS gf180mcu_fd_sc_mcu9t5v0__xor2_2
X_475_ wr_ptr_gray_sync2\[0\] _003_ _002_ VDD VSS gf180mcu_fd_sc_mcu9t5v0__xor2_2
X_476_ rd_ptr_gray_sync2\[4\] rd_ptr_gray_sync2\[3\] _009_
+ VDD VSS gf180mcu_fd_sc_mcu9t5v0__xor2_2
X_477_ rd_ptr_gray_sync2\[2\] _009_ _008_ VDD VSS gf180mcu_fd_sc_mcu9t5v0__xor2_2
X_478_ rd_ptr_gray_sync2\[1\] _008_ _007_ VDD VSS gf180mcu_fd_sc_mcu9t5v0__xor2_2
X_479_ rd_ptr_gray_sync2\[0\] _007_ _006_ VDD VSS gf180mcu_fd_sc_mcu9t5v0__xor2_2
X_480_ rd_ptr_bin\[1\] _190_ VDD VSS gf180mcu_fd_sc_mcu9t5v0__clkbuf_8
X_481_ _190_ _191_ VDD VSS gf180mcu_fd_sc_mcu9t5v0__clkbuf_8
X_482_ _191_ _387_ VDD VSS gf180mcu_fd_sc_mcu9t5v0__clkinv_2
X_483_ rd_ptr_bin\[0\] _013_ VDD VSS gf180mcu_fd_sc_mcu9t5v0__clkinv_4
X_484_ rd_ptr_sync\[0\] _410_ VDD VSS gf180mcu_fd_sc_mcu9t5v0__clkinv_2
X_485_ rd_ptr_sync\[1\] _390_ VDD VSS gf180mcu_fd_sc_mcu9t5v0__clkinv_2
X_486_ rd_ptr_sync\[2\] _417_ VDD VSS gf180mcu_fd_sc_mcu9t5v0__clkinv_2
X_487_ rd_ptr_sync\[3\] _421_ VDD VSS gf180mcu_fd_sc_mcu9t5v0__clkinv_2
X_488_ wr_ptr_bin\[0\] _011_ VDD VSS gf180mcu_fd_sc_mcu9t5v0__clkinv_2
X_489_ wr_ptr_sync\[4\] _396_ VDD VSS gf180mcu_fd_sc_mcu9t5v0__clkinv_2
X_490_ _407_ _388_ VDD VSS gf180mcu_fd_sc_mcu9t5v0__clkinv_2
X_491_ wr_ptr_sync\[0\] _406_ VDD VSS gf180mcu_fd_sc_mcu9t5v0__clkinv_2
X_492_ _413_ _391_ VDD VSS gf180mcu_fd_sc_mcu9t5v0__clkinv_2
X_493_ wr_ptr_bin\[4\] _425_ VDD VSS gf180mcu_fd_sc_mcu9t5v0__clkinv_2
X_494_ wr_ptr_bin\[1\] _416_ VDD VSS gf180mcu_fd_sc_mcu9t5v0__clkinv_2
X_495_ net5 _192_ VDD VSS gf180mcu_fd_sc_mcu9t5v0__buf_3
X_496_ net18 _193_ VDD VSS gf180mcu_fd_sc_mcu9t5v0__clkinv_2
X_497_ net13 _193_ _194_ VDD VSS gf180mcu_fd_sc_mcu9t5v0__and2_4
X_498_ _194_ _195_ VDD VSS gf180mcu_fd_sc_mcu9t5v0__clkbuf_8
X_499_ _429_ _188_ _195_ _196_ VDD VSS gf180mcu_fd_sc_mcu9t5v0__and3_4
X_500_ mem\[0\]\[0\] _192_ _196_ _015_ VDD VSS gf180mcu_fd_sc_mcu9t5v0__mux2_2
X_501_ net6 _197_ VDD VSS gf180mcu_fd_sc_mcu9t5v0__clkbuf_3
X_502_ mem\[0\]\[1\] _197_ _196_ _016_ VDD VSS gf180mcu_fd_sc_mcu9t5v0__mux2_2
X_503_ net7 _198_ VDD VSS gf180mcu_fd_sc_mcu9t5v0__buf_3
X_504_ mem\[0\]\[2\] _198_ _196_ _017_ VDD VSS gf180mcu_fd_sc_mcu9t5v0__mux2_2
X_505_ net8 _199_ VDD VSS gf180mcu_fd_sc_mcu9t5v0__buf_4
X_506_ mem\[0\]\[3\] _199_ _196_ _018_ VDD VSS gf180mcu_fd_sc_mcu9t5v0__mux2_2
X_507_ net9 _200_ VDD VSS gf180mcu_fd_sc_mcu9t5v0__clkbuf_4
X_508_ mem\[0\]\[4\] _200_ _196_ _019_ VDD VSS gf180mcu_fd_sc_mcu9t5v0__mux2_2
X_509_ net10 _201_ VDD VSS gf180mcu_fd_sc_mcu9t5v0__clkbuf_4
X_510_ mem\[0\]\[5\] _201_ _196_ _020_ VDD VSS gf180mcu_fd_sc_mcu9t5v0__mux2_2
X_511_ net11 _202_ VDD VSS gf180mcu_fd_sc_mcu9t5v0__buf_3
X_512_ mem\[0\]\[6\] _202_ _196_ _021_ VDD VSS gf180mcu_fd_sc_mcu9t5v0__mux2_2
X_513_ net12 _203_ VDD VSS gf180mcu_fd_sc_mcu9t5v0__clkbuf_4
X_514_ mem\[0\]\[7\] _203_ _196_ _022_ VDD VSS gf180mcu_fd_sc_mcu9t5v0__mux2_2
X_515_ _195_ _204_ VDD VSS gf180mcu_fd_sc_mcu9t5v0__clkbuf_8
X_516_ wr_ptr_bin\[3\] _420_ _205_ VDD VSS gf180mcu_fd_sc_mcu9t5v0__and2_2
X_517_ _430_ _204_ _205_ _206_ VDD VSS gf180mcu_fd_sc_mcu9t5v0__and3_4
X_518_ mem\[10\]\[0\] _192_ _206_ _023_ VDD VSS gf180mcu_fd_sc_mcu9t5v0__mux2_2
X_519_ mem\[10\]\[1\] _197_ _206_ _024_ VDD VSS gf180mcu_fd_sc_mcu9t5v0__mux2_2
X_520_ mem\[10\]\[2\] _198_ _206_ _025_ VDD VSS gf180mcu_fd_sc_mcu9t5v0__mux2_2
X_521_ mem\[10\]\[3\] _199_ _206_ _026_ VDD VSS gf180mcu_fd_sc_mcu9t5v0__mux2_2
X_522_ mem\[10\]\[4\] _200_ _206_ _027_ VDD VSS gf180mcu_fd_sc_mcu9t5v0__mux2_2
X_523_ mem\[10\]\[5\] _201_ _206_ _028_ VDD VSS gf180mcu_fd_sc_mcu9t5v0__mux2_2
X_524_ mem\[10\]\[6\] _202_ _206_ _029_ VDD VSS gf180mcu_fd_sc_mcu9t5v0__mux2_2
X_525_ mem\[10\]\[7\] _203_ _206_ _030_ VDD VSS gf180mcu_fd_sc_mcu9t5v0__mux2_2
X_526_ _434_ _194_ _207_ VDD VSS gf180mcu_fd_sc_mcu9t5v0__and2_2
X_527_ _205_ _207_ _208_ VDD VSS gf180mcu_fd_sc_mcu9t5v0__and2_4
X_528_ mem\[11\]\[0\] _192_ _208_ _031_ VDD VSS gf180mcu_fd_sc_mcu9t5v0__mux2_2
X_529_ mem\[11\]\[1\] _197_ _208_ _032_ VDD VSS gf180mcu_fd_sc_mcu9t5v0__mux2_2
X_530_ mem\[11\]\[2\] _198_ _208_ _033_ VDD VSS gf180mcu_fd_sc_mcu9t5v0__mux2_2
X_531_ mem\[11\]\[3\] _199_ _208_ _034_ VDD VSS gf180mcu_fd_sc_mcu9t5v0__mux2_2
X_532_ mem\[11\]\[4\] _200_ _208_ _035_ VDD VSS gf180mcu_fd_sc_mcu9t5v0__mux2_2
X_533_ mem\[11\]\[5\] _201_ _208_ _036_ VDD VSS gf180mcu_fd_sc_mcu9t5v0__mux2_2
X_534_ mem\[11\]\[6\] _202_ _208_ _037_ VDD VSS gf180mcu_fd_sc_mcu9t5v0__mux2_2
X_535_ mem\[11\]\[7\] _203_ _208_ _038_ VDD VSS gf180mcu_fd_sc_mcu9t5v0__mux2_2
X_536_ wr_ptr_bin\[3\] wr_ptr_bin\[2\] _429_ _195_ _209_ VDD
+ VSS gf180mcu_fd_sc_mcu9t5v0__and4_2
X_537_ _209_ _210_ VDD VSS gf180mcu_fd_sc_mcu9t5v0__buf_4
X_538_ mem\[12\]\[0\] _192_ _210_ _039_ VDD VSS gf180mcu_fd_sc_mcu9t5v0__mux2_2
X_539_ mem\[12\]\[1\] _197_ _210_ _040_ VDD VSS gf180mcu_fd_sc_mcu9t5v0__mux2_2
X_540_ mem\[12\]\[2\] _198_ _210_ _041_ VDD VSS gf180mcu_fd_sc_mcu9t5v0__mux2_2
X_541_ mem\[12\]\[3\] _199_ _210_ _042_ VDD VSS gf180mcu_fd_sc_mcu9t5v0__mux2_2
X_542_ mem\[12\]\[4\] _200_ _210_ _043_ VDD VSS gf180mcu_fd_sc_mcu9t5v0__mux2_2
X_543_ mem\[12\]\[5\] _201_ _210_ _044_ VDD VSS gf180mcu_fd_sc_mcu9t5v0__mux2_2
X_544_ mem\[12\]\[6\] _202_ _210_ _045_ VDD VSS gf180mcu_fd_sc_mcu9t5v0__mux2_2
X_545_ mem\[12\]\[7\] _203_ _210_ _046_ VDD VSS gf180mcu_fd_sc_mcu9t5v0__mux2_2
X_546_ wr_ptr_bin\[3\] wr_ptr_bin\[2\] _432_ _195_ _211_ VDD
+ VSS gf180mcu_fd_sc_mcu9t5v0__and4_2
X_547_ _211_ _212_ VDD VSS gf180mcu_fd_sc_mcu9t5v0__buf_4
X_548_ mem\[13\]\[0\] _192_ _212_ _047_ VDD VSS gf180mcu_fd_sc_mcu9t5v0__mux2_2
X_549_ mem\[13\]\[1\] _197_ _212_ _048_ VDD VSS gf180mcu_fd_sc_mcu9t5v0__mux2_2
X_550_ mem\[13\]\[2\] _198_ _212_ _049_ VDD VSS gf180mcu_fd_sc_mcu9t5v0__mux2_2
X_551_ mem\[13\]\[3\] _199_ _212_ _050_ VDD VSS gf180mcu_fd_sc_mcu9t5v0__mux2_2
X_552_ mem\[13\]\[4\] _200_ _212_ _051_ VDD VSS gf180mcu_fd_sc_mcu9t5v0__mux2_2
X_553_ mem\[13\]\[5\] _201_ _212_ _052_ VDD VSS gf180mcu_fd_sc_mcu9t5v0__mux2_2
X_554_ mem\[13\]\[6\] _202_ _212_ _053_ VDD VSS gf180mcu_fd_sc_mcu9t5v0__mux2_2
X_555_ mem\[13\]\[7\] _203_ _212_ _054_ VDD VSS gf180mcu_fd_sc_mcu9t5v0__mux2_2
X_556_ wr_ptr_bin\[3\] wr_ptr_bin\[2\] _430_ _195_ _213_ VDD
+ VSS gf180mcu_fd_sc_mcu9t5v0__and4_2
X_557_ _213_ _214_ VDD VSS gf180mcu_fd_sc_mcu9t5v0__buf_4
X_558_ mem\[14\]\[0\] _192_ _214_ _055_ VDD VSS gf180mcu_fd_sc_mcu9t5v0__mux2_2
X_559_ mem\[14\]\[1\] _197_ _214_ _056_ VDD VSS gf180mcu_fd_sc_mcu9t5v0__mux2_2
X_560_ mem\[14\]\[2\] _198_ _214_ _057_ VDD VSS gf180mcu_fd_sc_mcu9t5v0__mux2_2
X_561_ mem\[14\]\[3\] _199_ _214_ _058_ VDD VSS gf180mcu_fd_sc_mcu9t5v0__mux2_2
X_562_ mem\[14\]\[4\] _200_ _214_ _059_ VDD VSS gf180mcu_fd_sc_mcu9t5v0__mux2_2
X_563_ mem\[14\]\[5\] _201_ _214_ _060_ VDD VSS gf180mcu_fd_sc_mcu9t5v0__mux2_2
X_564_ mem\[14\]\[6\] _202_ _214_ _061_ VDD VSS gf180mcu_fd_sc_mcu9t5v0__mux2_2
X_565_ mem\[14\]\[7\] _203_ _214_ _062_ VDD VSS gf180mcu_fd_sc_mcu9t5v0__mux2_2
X_566_ wr_ptr_bin\[3\] wr_ptr_bin\[2\] _207_ _215_ VDD VSS
+ gf180mcu_fd_sc_mcu9t5v0__and3_2
X_567_ _215_ _216_ VDD VSS gf180mcu_fd_sc_mcu9t5v0__clkbuf_8
X_568_ mem\[15\]\[0\] _192_ _216_ _063_ VDD VSS gf180mcu_fd_sc_mcu9t5v0__mux2_2
X_569_ mem\[15\]\[1\] _197_ _216_ _064_ VDD VSS gf180mcu_fd_sc_mcu9t5v0__mux2_2
X_570_ mem\[15\]\[2\] _198_ _216_ _065_ VDD VSS gf180mcu_fd_sc_mcu9t5v0__mux2_2
X_571_ mem\[15\]\[3\] _199_ _216_ _066_ VDD VSS gf180mcu_fd_sc_mcu9t5v0__mux2_2
X_572_ mem\[15\]\[4\] _200_ _216_ _067_ VDD VSS gf180mcu_fd_sc_mcu9t5v0__mux2_2
X_573_ mem\[15\]\[5\] _201_ _216_ _068_ VDD VSS gf180mcu_fd_sc_mcu9t5v0__mux2_2
X_574_ mem\[15\]\[6\] _202_ _216_ _069_ VDD VSS gf180mcu_fd_sc_mcu9t5v0__mux2_2
X_575_ mem\[15\]\[7\] _203_ _216_ _070_ VDD VSS gf180mcu_fd_sc_mcu9t5v0__mux2_2
X_576_ _432_ _188_ _195_ _217_ VDD VSS gf180mcu_fd_sc_mcu9t5v0__and3_4
X_577_ mem\[1\]\[0\] _192_ _217_ _071_ VDD VSS gf180mcu_fd_sc_mcu9t5v0__mux2_2
X_578_ mem\[1\]\[1\] _197_ _217_ _072_ VDD VSS gf180mcu_fd_sc_mcu9t5v0__mux2_2
X_579_ mem\[1\]\[2\] _198_ _217_ _073_ VDD VSS gf180mcu_fd_sc_mcu9t5v0__mux2_2
X_580_ mem\[1\]\[3\] _199_ _217_ _074_ VDD VSS gf180mcu_fd_sc_mcu9t5v0__mux2_2
X_581_ mem\[1\]\[4\] _200_ _217_ _075_ VDD VSS gf180mcu_fd_sc_mcu9t5v0__mux2_2
X_582_ mem\[1\]\[5\] _201_ _217_ _076_ VDD VSS gf180mcu_fd_sc_mcu9t5v0__mux2_2
X_583_ mem\[1\]\[6\] _202_ _217_ _077_ VDD VSS gf180mcu_fd_sc_mcu9t5v0__mux2_2
X_584_ mem\[1\]\[7\] _203_ _217_ _078_ VDD VSS gf180mcu_fd_sc_mcu9t5v0__mux2_2
X_585_ _430_ _188_ _195_ _218_ VDD VSS gf180mcu_fd_sc_mcu9t5v0__and3_4
X_586_ mem\[2\]\[0\] _192_ _218_ _079_ VDD VSS gf180mcu_fd_sc_mcu9t5v0__mux2_2
X_587_ mem\[2\]\[1\] _197_ _218_ _080_ VDD VSS gf180mcu_fd_sc_mcu9t5v0__mux2_2
X_588_ mem\[2\]\[2\] _198_ _218_ _081_ VDD VSS gf180mcu_fd_sc_mcu9t5v0__mux2_2
X_589_ mem\[2\]\[3\] _199_ _218_ _082_ VDD VSS gf180mcu_fd_sc_mcu9t5v0__mux2_2
X_590_ mem\[2\]\[4\] _200_ _218_ _083_ VDD VSS gf180mcu_fd_sc_mcu9t5v0__mux2_2
X_591_ mem\[2\]\[5\] _201_ _218_ _084_ VDD VSS gf180mcu_fd_sc_mcu9t5v0__mux2_2
X_592_ mem\[2\]\[6\] _202_ _218_ _085_ VDD VSS gf180mcu_fd_sc_mcu9t5v0__mux2_2
X_593_ mem\[2\]\[7\] _203_ _218_ _086_ VDD VSS gf180mcu_fd_sc_mcu9t5v0__mux2_2
X_594_ _188_ _207_ _219_ VDD VSS gf180mcu_fd_sc_mcu9t5v0__and2_4
X_595_ mem\[3\]\[0\] _192_ _219_ _087_ VDD VSS gf180mcu_fd_sc_mcu9t5v0__mux2_2
X_596_ mem\[3\]\[1\] _197_ _219_ _088_ VDD VSS gf180mcu_fd_sc_mcu9t5v0__mux2_2
X_597_ mem\[3\]\[2\] _198_ _219_ _089_ VDD VSS gf180mcu_fd_sc_mcu9t5v0__mux2_2
X_598_ mem\[3\]\[3\] _199_ _219_ _090_ VDD VSS gf180mcu_fd_sc_mcu9t5v0__mux2_2
X_599_ mem\[3\]\[4\] _200_ _219_ _091_ VDD VSS gf180mcu_fd_sc_mcu9t5v0__mux2_2
X_600_ mem\[3\]\[5\] _201_ _219_ _092_ VDD VSS gf180mcu_fd_sc_mcu9t5v0__mux2_2
X_601_ mem\[3\]\[6\] _202_ _219_ _093_ VDD VSS gf180mcu_fd_sc_mcu9t5v0__mux2_2
X_602_ mem\[3\]\[7\] _203_ _219_ _094_ VDD VSS gf180mcu_fd_sc_mcu9t5v0__mux2_2
X_603_ _424_ wr_ptr_bin\[2\] _220_ VDD VSS gf180mcu_fd_sc_mcu9t5v0__and2_2
X_604_ _429_ _204_ _220_ _221_ VDD VSS gf180mcu_fd_sc_mcu9t5v0__and3_4
X_605_ mem\[4\]\[0\] net5 _221_ _095_ VDD VSS gf180mcu_fd_sc_mcu9t5v0__mux2_2
X_606_ mem\[4\]\[1\] net6 _221_ _096_ VDD VSS gf180mcu_fd_sc_mcu9t5v0__mux2_2
X_607_ mem\[4\]\[2\] net7 _221_ _097_ VDD VSS gf180mcu_fd_sc_mcu9t5v0__mux2_2
X_608_ mem\[4\]\[3\] net8 _221_ _098_ VDD VSS gf180mcu_fd_sc_mcu9t5v0__mux2_2
X_609_ mem\[4\]\[4\] net9 _221_ _099_ VDD VSS gf180mcu_fd_sc_mcu9t5v0__mux2_2
X_610_ mem\[4\]\[5\] net10 _221_ _100_ VDD VSS gf180mcu_fd_sc_mcu9t5v0__mux2_2
X_611_ mem\[4\]\[6\] net11 _221_ _101_ VDD VSS gf180mcu_fd_sc_mcu9t5v0__mux2_2
X_612_ mem\[4\]\[7\] net12 _221_ _102_ VDD VSS gf180mcu_fd_sc_mcu9t5v0__mux2_2
X_613_ _432_ _204_ _220_ _222_ VDD VSS gf180mcu_fd_sc_mcu9t5v0__and3_4
X_614_ mem\[5\]\[0\] net5 _222_ _103_ VDD VSS gf180mcu_fd_sc_mcu9t5v0__mux2_2
X_615_ mem\[5\]\[1\] net6 _222_ _104_ VDD VSS gf180mcu_fd_sc_mcu9t5v0__mux2_2
X_616_ mem\[5\]\[2\] net7 _222_ _105_ VDD VSS gf180mcu_fd_sc_mcu9t5v0__mux2_2
X_617_ mem\[5\]\[3\] net8 _222_ _106_ VDD VSS gf180mcu_fd_sc_mcu9t5v0__mux2_2
X_618_ mem\[5\]\[4\] net9 _222_ _107_ VDD VSS gf180mcu_fd_sc_mcu9t5v0__mux2_2
X_619_ mem\[5\]\[5\] net10 _222_ _108_ VDD VSS gf180mcu_fd_sc_mcu9t5v0__mux2_2
X_620_ mem\[5\]\[6\] net11 _222_ _109_ VDD VSS gf180mcu_fd_sc_mcu9t5v0__mux2_2
X_621_ mem\[5\]\[7\] net12 _222_ _110_ VDD VSS gf180mcu_fd_sc_mcu9t5v0__mux2_2
X_622_ _430_ _204_ _220_ _223_ VDD VSS gf180mcu_fd_sc_mcu9t5v0__and3_4
X_623_ mem\[6\]\[0\] net5 _223_ _111_ VDD VSS gf180mcu_fd_sc_mcu9t5v0__mux2_2
X_624_ mem\[6\]\[1\] net6 _223_ _112_ VDD VSS gf180mcu_fd_sc_mcu9t5v0__mux2_2
X_625_ mem\[6\]\[2\] net7 _223_ _113_ VDD VSS gf180mcu_fd_sc_mcu9t5v0__mux2_2
X_626_ mem\[6\]\[3\] net8 _223_ _114_ VDD VSS gf180mcu_fd_sc_mcu9t5v0__mux2_2
X_627_ mem\[6\]\[4\] net9 _223_ _115_ VDD VSS gf180mcu_fd_sc_mcu9t5v0__mux2_2
X_628_ mem\[6\]\[5\] net10 _223_ _116_ VDD VSS gf180mcu_fd_sc_mcu9t5v0__mux2_2
X_629_ mem\[6\]\[6\] net11 _223_ _117_ VDD VSS gf180mcu_fd_sc_mcu9t5v0__mux2_2
X_630_ mem\[6\]\[7\] net12 _223_ _118_ VDD VSS gf180mcu_fd_sc_mcu9t5v0__mux2_2
X_631_ _207_ _220_ _224_ VDD VSS gf180mcu_fd_sc_mcu9t5v0__and2_4
X_632_ mem\[7\]\[0\] net5 _224_ _119_ VDD VSS gf180mcu_fd_sc_mcu9t5v0__mux2_2
X_633_ mem\[7\]\[1\] net6 _224_ _120_ VDD VSS gf180mcu_fd_sc_mcu9t5v0__mux2_2
X_634_ mem\[7\]\[2\] net7 _224_ _121_ VDD VSS gf180mcu_fd_sc_mcu9t5v0__mux2_2
X_635_ mem\[7\]\[3\] net8 _224_ _122_ VDD VSS gf180mcu_fd_sc_mcu9t5v0__mux2_2
X_636_ mem\[7\]\[4\] net9 _224_ _123_ VDD VSS gf180mcu_fd_sc_mcu9t5v0__mux2_2
X_637_ mem\[7\]\[5\] net10 _224_ _124_ VDD VSS gf180mcu_fd_sc_mcu9t5v0__mux2_2
X_638_ mem\[7\]\[6\] net11 _224_ _125_ VDD VSS gf180mcu_fd_sc_mcu9t5v0__mux2_2
X_639_ mem\[7\]\[7\] net12 _224_ _126_ VDD VSS gf180mcu_fd_sc_mcu9t5v0__mux2_2
X_640_ _429_ _195_ _205_ _225_ VDD VSS gf180mcu_fd_sc_mcu9t5v0__and3_4
X_641_ mem\[8\]\[0\] net5 _225_ _127_ VDD VSS gf180mcu_fd_sc_mcu9t5v0__mux2_2
X_642_ mem\[8\]\[1\] net6 _225_ _128_ VDD VSS gf180mcu_fd_sc_mcu9t5v0__mux2_2
X_643_ mem\[8\]\[2\] net7 _225_ _129_ VDD VSS gf180mcu_fd_sc_mcu9t5v0__mux2_2
X_644_ mem\[8\]\[3\] net8 _225_ _130_ VDD VSS gf180mcu_fd_sc_mcu9t5v0__mux2_2
X_645_ mem\[8\]\[4\] net9 _225_ _131_ VDD VSS gf180mcu_fd_sc_mcu9t5v0__mux2_2
X_646_ mem\[8\]\[5\] net10 _225_ _132_ VDD VSS gf180mcu_fd_sc_mcu9t5v0__mux2_2
X_647_ mem\[8\]\[6\] net11 _225_ _133_ VDD VSS gf180mcu_fd_sc_mcu9t5v0__mux2_2
X_648_ mem\[8\]\[7\] net12 _225_ _134_ VDD VSS gf180mcu_fd_sc_mcu9t5v0__mux2_2
X_649_ _432_ _195_ _205_ _226_ VDD VSS gf180mcu_fd_sc_mcu9t5v0__and3_4
X_650_ mem\[9\]\[0\] net5 _226_ _135_ VDD VSS gf180mcu_fd_sc_mcu9t5v0__mux2_2
X_651_ mem\[9\]\[1\] net6 _226_ _136_ VDD VSS gf180mcu_fd_sc_mcu9t5v0__mux2_2
X_652_ mem\[9\]\[2\] net7 _226_ _137_ VDD VSS gf180mcu_fd_sc_mcu9t5v0__mux2_2
X_653_ mem\[9\]\[3\] net8 _226_ _138_ VDD VSS gf180mcu_fd_sc_mcu9t5v0__mux2_2
X_654_ mem\[9\]\[4\] net9 _226_ _139_ VDD VSS gf180mcu_fd_sc_mcu9t5v0__mux2_2
X_655_ mem\[9\]\[5\] net10 _226_ _140_ VDD VSS gf180mcu_fd_sc_mcu9t5v0__mux2_2
X_656_ mem\[9\]\[6\] net11 _226_ _141_ VDD VSS gf180mcu_fd_sc_mcu9t5v0__mux2_2
X_657_ mem\[9\]\[7\] net12 _226_ _142_ VDD VSS gf180mcu_fd_sc_mcu9t5v0__mux2_2
X_658_ rd_ptr_bin\[0\] _401_ _227_ VDD VSS gf180mcu_fd_sc_mcu9t5v0__nand2_4
X_659_ _227_ _228_ VDD VSS gf180mcu_fd_sc_mcu9t5v0__clkbuf_12
X_660_ _190_ _229_ VDD VSS gf180mcu_fd_sc_mcu9t5v0__clkbuf_8
X_661_ mem\[9\]\[0\] mem\[11\]\[0\] _229_ _230_ VDD VSS gf180mcu_fd_sc_mcu9t5v0__mux2_2
X_662_ rd_ptr_bin\[0\] rd_ptr_bin\[2\] _231_ VDD VSS gf180mcu_fd_sc_mcu9t5v0__nand2_4
X_663_ _231_ _232_ VDD VSS gf180mcu_fd_sc_mcu9t5v0__clkbuf_8
X_664_ rd_ptr_bin\[1\] _233_ VDD VSS gf180mcu_fd_sc_mcu9t5v0__clkbuf_8
X_665_ _233_ _234_ VDD VSS gf180mcu_fd_sc_mcu9t5v0__clkbuf_8
X_666_ mem\[13\]\[0\] mem\[15\]\[0\] _234_ _235_ VDD VSS gf180mcu_fd_sc_mcu9t5v0__mux2_2
X_667_ _013_ rd_ptr_bin\[2\] _236_ VDD VSS gf180mcu_fd_sc_mcu9t5v0__nand2_4
X_668_ _236_ _237_ VDD VSS gf180mcu_fd_sc_mcu9t5v0__clkbuf_8
X_669_ mem\[12\]\[0\] mem\[14\]\[0\] _190_ _238_ VDD VSS gf180mcu_fd_sc_mcu9t5v0__mux2_2
X_670_ _228_ _230_ _232_ _235_ _237_ _238_ _239_ VDD VSS gf180mcu_fd_sc_mcu9t5v0__oai222_2
X_671_ _013_ _401_ _240_ VDD VSS gf180mcu_fd_sc_mcu9t5v0__nand2_4
X_672_ _240_ _241_ VDD VSS gf180mcu_fd_sc_mcu9t5v0__clkbuf_8
X_673_ mem\[8\]\[0\] mem\[10\]\[0\] _191_ _242_ VDD VSS gf180mcu_fd_sc_mcu9t5v0__mux2_2
X_674_ rd_ptr_bin\[3\] _243_ VDD VSS gf180mcu_fd_sc_mcu9t5v0__clkbuf_8
X_675_ net17 _244_ VDD VSS gf180mcu_fd_sc_mcu9t5v0__clkinv_2
X_676_ net2 _244_ _245_ VDD VSS gf180mcu_fd_sc_mcu9t5v0__and2_4
X_677_ _245_ _246_ VDD VSS gf180mcu_fd_sc_mcu9t5v0__clkbuf_8
X_678_ _241_ _242_ _243_ _246_ _247_ VDD VSS gf180mcu_fd_sc_mcu9t5v0__oai211_2
X_679_ net2 _244_ _248_ VDD VSS gf180mcu_fd_sc_mcu9t5v0__nand2_4
X_680_ mem\[0\]\[0\] mem\[2\]\[0\] _190_ _249_ VDD VSS gf180mcu_fd_sc_mcu9t5v0__mux2_2
X_681_ rd_ptr_bin\[1\] _250_ VDD VSS gf180mcu_fd_sc_mcu9t5v0__clkbuf_8
X_682_ mem\[1\]\[0\] mem\[3\]\[0\] _250_ _251_ VDD VSS gf180mcu_fd_sc_mcu9t5v0__mux2_2
X_683_ _241_ _249_ _251_ _228_ _252_ VDD VSS gf180mcu_fd_sc_mcu9t5v0__oai22_2
X_684_ mem\[4\]\[0\] mem\[6\]\[0\] _233_ _253_ VDD VSS gf180mcu_fd_sc_mcu9t5v0__mux2_2
X_685_ rd_ptr_bin\[1\] _254_ VDD VSS gf180mcu_fd_sc_mcu9t5v0__clkbuf_8
X_686_ mem\[5\]\[0\] mem\[7\]\[0\] _254_ _255_ VDD VSS gf180mcu_fd_sc_mcu9t5v0__mux2_2
X_687_ _237_ _253_ _255_ _231_ _256_ VDD VSS gf180mcu_fd_sc_mcu9t5v0__oai22_2
X_688_ _243_ _248_ _252_ _256_ _257_ VDD VSS gf180mcu_fd_sc_mcu9t5v0__or4_2
X_689_ _248_ _258_ VDD VSS gf180mcu_fd_sc_mcu9t5v0__clkbuf_8
X_690_ net25 _258_ _259_ VDD VSS gf180mcu_fd_sc_mcu9t5v0__nand2_2
X_691_ _239_ _247_ _257_ _259_ _143_ VDD VSS gf180mcu_fd_sc_mcu9t5v0__oai211_2
X_692_ mem\[9\]\[1\] mem\[11\]\[1\] _229_ _260_ VDD VSS gf180mcu_fd_sc_mcu9t5v0__mux2_2
X_693_ mem\[13\]\[1\] mem\[15\]\[1\] _229_ _261_ VDD VSS gf180mcu_fd_sc_mcu9t5v0__mux2_2
X_694_ mem\[12\]\[1\] mem\[14\]\[1\] _234_ _262_ VDD VSS gf180mcu_fd_sc_mcu9t5v0__mux2_2
X_695_ _228_ _260_ _261_ _232_ _262_ _237_ _263_ VDD VSS gf180mcu_fd_sc_mcu9t5v0__oai222_2
X_696_ mem\[8\]\[1\] mem\[10\]\[1\] _191_ _264_ VDD VSS gf180mcu_fd_sc_mcu9t5v0__mux2_2
X_697_ _241_ _264_ _243_ _246_ _265_ VDD VSS gf180mcu_fd_sc_mcu9t5v0__oai211_2
X_698_ mem\[5\]\[1\] mem\[7\]\[1\] _190_ _266_ VDD VSS gf180mcu_fd_sc_mcu9t5v0__mux2_2
X_699_ mem\[1\]\[1\] mem\[3\]\[1\] _250_ _267_ VDD VSS gf180mcu_fd_sc_mcu9t5v0__mux2_2
X_700_ _232_ _266_ _267_ _228_ _268_ VDD VSS gf180mcu_fd_sc_mcu9t5v0__oai22_2
X_701_ mem\[4\]\[1\] mem\[6\]\[1\] _233_ _269_ VDD VSS gf180mcu_fd_sc_mcu9t5v0__mux2_2
X_702_ mem\[0\]\[1\] mem\[2\]\[1\] _254_ _270_ VDD VSS gf180mcu_fd_sc_mcu9t5v0__mux2_2
X_703_ _237_ _269_ _270_ _240_ _271_ VDD VSS gf180mcu_fd_sc_mcu9t5v0__oai22_2
X_704_ _243_ _248_ _268_ _271_ _272_ VDD VSS gf180mcu_fd_sc_mcu9t5v0__or4_2
X_705_ net26 _258_ _273_ VDD VSS gf180mcu_fd_sc_mcu9t5v0__nand2_2
X_706_ _263_ _265_ _272_ _273_ _144_ VDD VSS gf180mcu_fd_sc_mcu9t5v0__oai211_2
X_707_ mem\[9\]\[2\] mem\[11\]\[2\] _229_ _274_ VDD VSS gf180mcu_fd_sc_mcu9t5v0__mux2_2
X_708_ mem\[13\]\[2\] mem\[15\]\[2\] _229_ _275_ VDD VSS gf180mcu_fd_sc_mcu9t5v0__mux2_2
X_709_ mem\[12\]\[2\] mem\[14\]\[2\] _234_ _276_ VDD VSS gf180mcu_fd_sc_mcu9t5v0__mux2_2
X_710_ _228_ _274_ _275_ _232_ _276_ _237_ _277_ VDD VSS gf180mcu_fd_sc_mcu9t5v0__oai222_2
X_711_ mem\[8\]\[2\] mem\[10\]\[2\] _191_ _278_ VDD VSS gf180mcu_fd_sc_mcu9t5v0__mux2_2
X_712_ _241_ _278_ _243_ _246_ _279_ VDD VSS gf180mcu_fd_sc_mcu9t5v0__oai211_2
X_713_ mem\[5\]\[2\] mem\[7\]\[2\] _190_ _280_ VDD VSS gf180mcu_fd_sc_mcu9t5v0__mux2_2
X_714_ mem\[1\]\[2\] mem\[3\]\[2\] _250_ _281_ VDD VSS gf180mcu_fd_sc_mcu9t5v0__mux2_2
X_715_ _232_ _280_ _281_ _227_ _282_ VDD VSS gf180mcu_fd_sc_mcu9t5v0__oai22_2
X_716_ mem\[4\]\[2\] mem\[6\]\[2\] _233_ _283_ VDD VSS gf180mcu_fd_sc_mcu9t5v0__mux2_2
X_717_ mem\[0\]\[2\] mem\[2\]\[2\] _254_ _284_ VDD VSS gf180mcu_fd_sc_mcu9t5v0__mux2_2
X_718_ _236_ _283_ _284_ _240_ _285_ VDD VSS gf180mcu_fd_sc_mcu9t5v0__oai22_2
X_719_ rd_ptr_bin\[3\] _248_ _282_ _285_ _286_ VDD VSS gf180mcu_fd_sc_mcu9t5v0__or4_2
X_720_ net27 _258_ _287_ VDD VSS gf180mcu_fd_sc_mcu9t5v0__nand2_2
X_721_ _277_ _279_ _286_ _287_ _145_ VDD VSS gf180mcu_fd_sc_mcu9t5v0__oai211_2
X_722_ mem\[9\]\[3\] mem\[11\]\[3\] _229_ _288_ VDD VSS gf180mcu_fd_sc_mcu9t5v0__mux2_2
X_723_ mem\[13\]\[3\] mem\[15\]\[3\] _234_ _289_ VDD VSS gf180mcu_fd_sc_mcu9t5v0__mux2_2
X_724_ mem\[12\]\[3\] mem\[14\]\[3\] _234_ _290_ VDD VSS gf180mcu_fd_sc_mcu9t5v0__mux2_2
X_725_ _228_ _288_ _289_ _232_ _290_ _237_ _291_ VDD VSS gf180mcu_fd_sc_mcu9t5v0__oai222_2
X_726_ mem\[8\]\[3\] mem\[10\]\[3\] _191_ _292_ VDD VSS gf180mcu_fd_sc_mcu9t5v0__mux2_2
X_727_ _241_ _292_ _243_ _246_ _293_ VDD VSS gf180mcu_fd_sc_mcu9t5v0__oai211_2
X_728_ mem\[5\]\[3\] mem\[7\]\[3\] _233_ _294_ VDD VSS gf180mcu_fd_sc_mcu9t5v0__mux2_2
X_729_ mem\[1\]\[3\] mem\[3\]\[3\] _250_ _295_ VDD VSS gf180mcu_fd_sc_mcu9t5v0__mux2_2
X_730_ _231_ _294_ _295_ _227_ _296_ VDD VSS gf180mcu_fd_sc_mcu9t5v0__oai22_2
X_731_ mem\[4\]\[3\] mem\[6\]\[3\] _233_ _297_ VDD VSS gf180mcu_fd_sc_mcu9t5v0__mux2_2
X_732_ mem\[0\]\[3\] mem\[2\]\[3\] _254_ _298_ VDD VSS gf180mcu_fd_sc_mcu9t5v0__mux2_2
X_733_ _236_ _297_ _298_ _240_ _299_ VDD VSS gf180mcu_fd_sc_mcu9t5v0__oai22_2
X_734_ rd_ptr_bin\[3\] _248_ _296_ _299_ _300_ VDD VSS gf180mcu_fd_sc_mcu9t5v0__or4_2
X_735_ net28 _258_ _301_ VDD VSS gf180mcu_fd_sc_mcu9t5v0__nand2_2
X_736_ _291_ _293_ _300_ _301_ _146_ VDD VSS gf180mcu_fd_sc_mcu9t5v0__oai211_2
X_737_ mem\[9\]\[4\] mem\[11\]\[4\] _229_ _302_ VDD VSS gf180mcu_fd_sc_mcu9t5v0__mux2_2
X_738_ mem\[13\]\[4\] mem\[15\]\[4\] _234_ _303_ VDD VSS gf180mcu_fd_sc_mcu9t5v0__mux2_2
X_739_ mem\[12\]\[4\] mem\[14\]\[4\] _234_ _304_ VDD VSS gf180mcu_fd_sc_mcu9t5v0__mux2_2
X_740_ _228_ _302_ _303_ _232_ _304_ _237_ _305_ VDD VSS gf180mcu_fd_sc_mcu9t5v0__oai222_2
X_741_ mem\[8\]\[4\] mem\[10\]\[4\] _191_ _306_ VDD VSS gf180mcu_fd_sc_mcu9t5v0__mux2_2
X_742_ _241_ _306_ _243_ _246_ _307_ VDD VSS gf180mcu_fd_sc_mcu9t5v0__oai211_2
X_743_ mem\[5\]\[4\] mem\[7\]\[4\] _233_ _308_ VDD VSS gf180mcu_fd_sc_mcu9t5v0__mux2_2
X_744_ mem\[1\]\[4\] mem\[3\]\[4\] _250_ _309_ VDD VSS gf180mcu_fd_sc_mcu9t5v0__mux2_2
X_745_ _231_ _308_ _309_ _227_ _310_ VDD VSS gf180mcu_fd_sc_mcu9t5v0__oai22_2
X_746_ mem\[4\]\[4\] mem\[6\]\[4\] _250_ _311_ VDD VSS gf180mcu_fd_sc_mcu9t5v0__mux2_2
X_747_ mem\[0\]\[4\] mem\[2\]\[4\] _254_ _312_ VDD VSS gf180mcu_fd_sc_mcu9t5v0__mux2_2
X_748_ _236_ _311_ _312_ _240_ _313_ VDD VSS gf180mcu_fd_sc_mcu9t5v0__oai22_2
X_749_ rd_ptr_bin\[3\] _248_ _310_ _313_ _314_ VDD VSS gf180mcu_fd_sc_mcu9t5v0__or4_2
X_750_ net29 _258_ _315_ VDD VSS gf180mcu_fd_sc_mcu9t5v0__nand2_2
X_751_ _305_ _307_ _314_ _315_ _147_ VDD VSS gf180mcu_fd_sc_mcu9t5v0__oai211_2
X_752_ mem\[9\]\[5\] mem\[11\]\[5\] _229_ _316_ VDD VSS gf180mcu_fd_sc_mcu9t5v0__mux2_2
X_753_ mem\[13\]\[5\] mem\[15\]\[5\] _234_ _317_ VDD VSS gf180mcu_fd_sc_mcu9t5v0__mux2_2
X_754_ mem\[12\]\[5\] mem\[14\]\[5\] _190_ _318_ VDD VSS gf180mcu_fd_sc_mcu9t5v0__mux2_2
X_755_ _228_ _316_ _317_ _232_ _318_ _237_ _319_ VDD VSS gf180mcu_fd_sc_mcu9t5v0__oai222_2
X_756_ mem\[8\]\[5\] mem\[10\]\[5\] _191_ _320_ VDD VSS gf180mcu_fd_sc_mcu9t5v0__mux2_2
X_757_ _241_ _320_ _243_ _246_ _321_ VDD VSS gf180mcu_fd_sc_mcu9t5v0__oai211_2
X_758_ mem\[0\]\[5\] mem\[2\]\[5\] _233_ _322_ VDD VSS gf180mcu_fd_sc_mcu9t5v0__mux2_2
X_759_ mem\[1\]\[5\] mem\[3\]\[5\] _250_ _323_ VDD VSS gf180mcu_fd_sc_mcu9t5v0__mux2_2
X_760_ _241_ _322_ _323_ _227_ _324_ VDD VSS gf180mcu_fd_sc_mcu9t5v0__oai22_2
X_761_ mem\[4\]\[5\] mem\[6\]\[5\] _250_ _325_ VDD VSS gf180mcu_fd_sc_mcu9t5v0__mux2_2
X_762_ mem\[5\]\[5\] mem\[7\]\[5\] _254_ _326_ VDD VSS gf180mcu_fd_sc_mcu9t5v0__mux2_2
X_763_ _236_ _325_ _326_ _231_ _327_ VDD VSS gf180mcu_fd_sc_mcu9t5v0__oai22_2
X_764_ rd_ptr_bin\[3\] _248_ _324_ _327_ _328_ VDD VSS gf180mcu_fd_sc_mcu9t5v0__or4_2
X_765_ net30 _258_ _329_ VDD VSS gf180mcu_fd_sc_mcu9t5v0__nand2_2
X_766_ _319_ _321_ _328_ _329_ _148_ VDD VSS gf180mcu_fd_sc_mcu9t5v0__oai211_2
X_767_ mem\[9\]\[6\] mem\[11\]\[6\] _229_ _330_ VDD VSS gf180mcu_fd_sc_mcu9t5v0__mux2_2
X_768_ mem\[13\]\[6\] mem\[15\]\[6\] _234_ _331_ VDD VSS gf180mcu_fd_sc_mcu9t5v0__mux2_2
X_769_ mem\[12\]\[6\] mem\[14\]\[6\] _190_ _332_ VDD VSS gf180mcu_fd_sc_mcu9t5v0__mux2_2
X_770_ _228_ _330_ _331_ _232_ _332_ _237_ _333_ VDD VSS gf180mcu_fd_sc_mcu9t5v0__oai222_2
X_771_ mem\[8\]\[6\] mem\[10\]\[6\] _191_ _334_ VDD VSS gf180mcu_fd_sc_mcu9t5v0__mux2_2
X_772_ _241_ _334_ _243_ _246_ _335_ VDD VSS gf180mcu_fd_sc_mcu9t5v0__oai211_2
X_773_ mem\[5\]\[6\] mem\[7\]\[6\] _233_ _336_ VDD VSS gf180mcu_fd_sc_mcu9t5v0__mux2_2
X_774_ mem\[1\]\[6\] mem\[3\]\[6\] _254_ _337_ VDD VSS gf180mcu_fd_sc_mcu9t5v0__mux2_2
X_775_ _231_ _336_ _337_ _227_ _338_ VDD VSS gf180mcu_fd_sc_mcu9t5v0__oai22_2
X_776_ mem\[4\]\[6\] mem\[6\]\[6\] _250_ _339_ VDD VSS gf180mcu_fd_sc_mcu9t5v0__mux2_2
X_777_ mem\[0\]\[6\] mem\[2\]\[6\] _254_ _340_ VDD VSS gf180mcu_fd_sc_mcu9t5v0__mux2_2
X_778_ _236_ _339_ _340_ _240_ _341_ VDD VSS gf180mcu_fd_sc_mcu9t5v0__oai22_2
X_779_ rd_ptr_bin\[3\] _248_ _338_ _341_ _342_ VDD VSS gf180mcu_fd_sc_mcu9t5v0__or4_2
X_780_ net31 _258_ _343_ VDD VSS gf180mcu_fd_sc_mcu9t5v0__nand2_2
X_781_ _333_ _335_ _342_ _343_ _149_ VDD VSS gf180mcu_fd_sc_mcu9t5v0__oai211_2
X_782_ mem\[9\]\[7\] mem\[11\]\[7\] _229_ _344_ VDD VSS gf180mcu_fd_sc_mcu9t5v0__mux2_2
X_783_ mem\[13\]\[7\] mem\[15\]\[7\] _234_ _345_ VDD VSS gf180mcu_fd_sc_mcu9t5v0__mux2_2
X_784_ mem\[12\]\[7\] mem\[14\]\[7\] _190_ _346_ VDD VSS gf180mcu_fd_sc_mcu9t5v0__mux2_2
X_785_ _228_ _344_ _345_ _232_ _346_ _237_ _347_ VDD VSS gf180mcu_fd_sc_mcu9t5v0__oai222_4
X_786_ mem\[8\]\[7\] mem\[10\]\[7\] _191_ _348_ VDD VSS gf180mcu_fd_sc_mcu9t5v0__mux2_2
X_787_ _241_ _348_ _243_ _246_ _349_ VDD VSS gf180mcu_fd_sc_mcu9t5v0__oai211_2
X_788_ mem\[5\]\[7\] mem\[7\]\[7\] _233_ _350_ VDD VSS gf180mcu_fd_sc_mcu9t5v0__mux2_2
X_789_ mem\[1\]\[7\] mem\[3\]\[7\] _254_ _351_ VDD VSS gf180mcu_fd_sc_mcu9t5v0__mux2_2
X_790_ _231_ _350_ _351_ _227_ _352_ VDD VSS gf180mcu_fd_sc_mcu9t5v0__oai22_2
X_791_ mem\[4\]\[7\] mem\[6\]\[7\] _250_ _353_ VDD VSS gf180mcu_fd_sc_mcu9t5v0__mux2_2
X_792_ mem\[0\]\[7\] mem\[2\]\[7\] _254_ _354_ VDD VSS gf180mcu_fd_sc_mcu9t5v0__mux2_2
X_793_ _236_ _353_ _354_ _240_ _355_ VDD VSS gf180mcu_fd_sc_mcu9t5v0__oai22_2
X_794_ rd_ptr_bin\[3\] _248_ _352_ _355_ _356_ VDD VSS gf180mcu_fd_sc_mcu9t5v0__or4_2
X_795_ net32 _258_ _357_ VDD VSS gf180mcu_fd_sc_mcu9t5v0__nand2_2
X_796_ _347_ _349_ _356_ _357_ _150_ VDD VSS gf180mcu_fd_sc_mcu9t5v0__oai211_2
X_797_ _013_ _245_ _151_ VDD VSS gf180mcu_fd_sc_mcu9t5v0__xnor2_2
X_798_ _191_ _014_ _246_ _152_ VDD VSS gf180mcu_fd_sc_mcu9t5v0__mux2_2
X_799_ _428_ _245_ _358_ VDD VSS gf180mcu_fd_sc_mcu9t5v0__and2_2
X_800_ _401_ _358_ _153_ VDD VSS gf180mcu_fd_sc_mcu9t5v0__xnor2_2
X_801_ rd_ptr_bin\[0\] _190_ rd_ptr_bin\[2\] _245_ _359_ VDD
+ VSS gf180mcu_fd_sc_mcu9t5v0__and4_2
X_802_ _393_ _359_ _154_ VDD VSS gf180mcu_fd_sc_mcu9t5v0__xnor2_2
X_803_ rd_ptr_bin\[0\] _014_ _360_ VDD VSS gf180mcu_fd_sc_mcu9t5v0__xnor2_2
X_804_ rd_ptr_gray\[0\] _360_ _246_ _155_ VDD VSS gf180mcu_fd_sc_mcu9t5v0__mux2_2
X_805_ rd_ptr_bin\[2\] _428_ _014_ _361_ VDD VSS gf180mcu_fd_sc_mcu9t5v0__xor3_2
X_806_ rd_ptr_gray\[1\] _361_ _245_ _156_ VDD VSS gf180mcu_fd_sc_mcu9t5v0__mux2_2
X_807_ rd_ptr_bin\[0\] rd_ptr_bin\[1\] _362_ VDD VSS gf180mcu_fd_sc_mcu9t5v0__nand2_2
X_808_ rd_ptr_bin\[2\] _362_ _363_ VDD VSS gf180mcu_fd_sc_mcu9t5v0__and2_2
X_809_ _393_ _428_ _363_ _364_ VDD VSS gf180mcu_fd_sc_mcu9t5v0__xnor3_2
X_810_ rd_ptr_gray\[2\] _364_ _245_ _157_ VDD VSS gf180mcu_fd_sc_mcu9t5v0__mux2_2
X_811_ _401_ _362_ _393_ _365_ VDD VSS gf180mcu_fd_sc_mcu9t5v0__oai21_2
X_812_ _393_ _428_ _362_ _366_ VDD VSS gf180mcu_fd_sc_mcu9t5v0__nor3_2
X_813_ _428_ _362_ _367_ VDD VSS gf180mcu_fd_sc_mcu9t5v0__and2_2
X_814_ _366_ _367_ rd_ptr_bin\[2\] _368_ VDD VSS gf180mcu_fd_sc_mcu9t5v0__oai21_2
X_815_ rd_ptr_bin\[4\] _369_ VDD VSS gf180mcu_fd_sc_mcu9t5v0__clkinv_2
X_816_ _365_ _368_ _369_ _258_ _370_ VDD VSS gf180mcu_fd_sc_mcu9t5v0__aoi211_2