
* cell async_fifo
* pin wr_en
* pin full
* pin wr_rst_n
* pin wr_count[1]
* pin wr_count[0]
* pin wr_count[2]
* pin almost_full
* pin wr_count[3]
* pin wr_count[4]
* pin pointer_wraparound_flag
* pin rd_clk
* pin rd_rst_n
* pin sync_error_flag
* pin rd_count[1]
* pin almost_empty
* pin rd_data[2]
* pin rd_data[1]
* pin rd_count[4]
* pin rd_count[3]
* pin rd_count[2]
* pin rd_count[0]
* pin rd_data[3]
* pin rd_data[0]
* pin wr_data[0]
* pin rd_data[5]
* pin empty
* pin rd_en
* pin rd_data[7]
* pin rd_data[4]
* pin wr_data[1]
* pin wr_clk
* pin wr_data[6]
* pin wr_data[7]
* pin rd_data[6]
* pin wr_data[2]
* pin wr_data[4]
* pin wr_data[5]
* pin wr_data[3]
* pin NWELL
* pin PWELL,gf180mcu_gnd
.SUBCKT async_fifo 1 2 3 4 5 6 7 8 9 10 153 154 155 293 295 296 297 325 326 327
+ 350 351 382 399 401 402 420 443 444 546 654 674 675 676 677 678 679 680 681
+ 682
* net 1 wr_en
* net 2 full
* net 3 wr_rst_n
* net 4 wr_count[1]
* net 5 wr_count[0]
* net 6 wr_count[2]
* net 7 almost_full
* net 8 wr_count[3]
* net 9 wr_count[4]
* net 10 pointer_wraparound_flag
* net 153 rd_clk
* net 154 rd_rst_n
* net 155 sync_error_flag
* net 293 rd_count[1]
* net 295 almost_empty
* net 296 rd_data[2]
* net 297 rd_data[1]
* net 325 rd_count[4]
* net 326 rd_count[3]
* net 327 rd_count[2]
* net 350 rd_count[0]
* net 351 rd_data[3]
* net 382 rd_data[0]
* net 399 wr_data[0]
* net 401 rd_data[5]
* net 402 empty
* net 420 rd_en
* net 443 rd_data[7]
* net 444 rd_data[4]
* net 546 wr_data[1]
* net 654 wr_clk
* net 674 wr_data[6]
* net 675 wr_data[7]
* net 676 rd_data[6]
* net 677 wr_data[2]
* net 678 wr_data[4]
* net 679 wr_data[5]
* net 680 wr_data[3]
* net 681 NWELL
* net 682 PWELL,gf180mcu_gnd
* cell instance $2 m0 *1 1205.68,15.12
X$2 1 681 682 22 gf180mcu_fd_sc_mcu9t5v0__dlyb_2
* cell instance $6 r0 *1 1221.92,5.04
X$6 15 681 682 2 gf180mcu_fd_sc_mcu9t5v0__dlyb_2
* cell instance $11 m0 *1 1214.08,15.12
X$11 682 3 28 681 gf180mcu_fd_sc_mcu9t5v0__clkbuf_16
* cell instance $14 r0 *1 1247.68,5.04
X$14 13 681 682 4 gf180mcu_fd_sc_mcu9t5v0__dlyb_2
* cell instance $19 r0 *1 1264.48,5.04
X$19 17 681 682 5 gf180mcu_fd_sc_mcu9t5v0__dlyb_2
* cell instance $23 r0 *1 1288.56,5.04
X$23 11 681 682 6 gf180mcu_fd_sc_mcu9t5v0__dlyb_2
* cell instance $26 m0 *1 1281.84,15.12
X$26 21 681 682 7 gf180mcu_fd_sc_mcu9t5v0__dlyb_2
* cell instance $30 m0 *1 1269.52,15.12
X$30 18 681 682 8 gf180mcu_fd_sc_mcu9t5v0__dlyb_2
* cell instance $34 r0 *1 1275.68,5.04
X$34 14 681 682 9 gf180mcu_fd_sc_mcu9t5v0__dlyb_2
* cell instance $38 r0 *1 1305.36,5.04
X$38 12 681 682 10 gf180mcu_fd_sc_mcu9t5v0__dlyb_2
* cell instance $42 r0 *1 1289.12,15.12
X$42 682 681 13 23 11 gf180mcu_fd_sc_mcu9t5v0__nand2_2
* cell instance $45 m0 *1 1314.88,1033.2
X$45 682 11 37 35 681 gf180mcu_fd_sc_mcu9t5v0__xor2_4
* cell instance $50 r0 *1 1305.92,1063.44
X$50 682 28 12 58 62 681 gf180mcu_fd_sc_mcu9t5v0__dffrnq_4
* cell instance $62 r0 *1 1303.12,1043.28
X$62 682 46 13 48 39 37 681 gf180mcu_fd_sc_mcu9t5v0__addf_4
* cell instance $69 m0 *1 1277.92,15.12
X$69 682 681 19 14 gf180mcu_fd_sc_mcu9t5v0__clkinv_2
* cell instance $74 r0 *1 1230.88,15.12
X$74 682 681 15 16 gf180mcu_fd_sc_mcu9t5v0__clkinv_2
* cell instance $77 r0 *1 1225.84,1043.28
X$77 682 28 15 58 56 681 gf180mcu_fd_sc_mcu9t5v0__dffrnq_4
* cell instance $83 r0 *1 1234.24,15.12
X$83 681 16 22 24 682 gf180mcu_fd_sc_mcu9t5v0__and2_4
* cell instance $86 m0 *1 1279.6,1033.2
X$86 682 681 42 17 gf180mcu_fd_sc_mcu9t5v0__inv_4
* cell instance $98 r0 *1 1270.64,15.12
X$98 682 681 20 18 gf180mcu_fd_sc_mcu9t5v0__clkinv_2
* cell instance $101 m0 *1 1284.64,1023.12
X$101 682 19 26 29 681 gf180mcu_fd_sc_mcu9t5v0__xnor2_4
* cell instance $103 r0 *1 1277.36,15.12
X$103 681 19 682 23 21 20 gf180mcu_fd_sc_mcu9t5v0__oai21_2
* cell instance $110 r0 *1 1299.76,1033.2
X$110 682 20 41 30 681 gf180mcu_fd_sc_mcu9t5v0__xor2_4
* cell instance $125 m0 *1 1304.8,1113.84
X$125 681 92 24 682 105 gf180mcu_fd_sc_mcu9t5v0__and2_2
* cell instance $127 r0 *1 1298.64,1103.76
X$127 682 24 104 681 gf180mcu_fd_sc_mcu9t5v0__clkbuf_8
* cell instance $135 m0 *1 1309.84,1043.28
X$135 681 30 682 33 25 31 gf180mcu_fd_sc_mcu9t5v0__oai21_2
* cell instance $137 r0 *1 1288,1013.04
X$137 682 681 27 26 25 gf180mcu_fd_sc_mcu9t5v0__nand2_2
* cell instance $145 m0 *1 1325.52,1053.36
X$145 682 681 57 27 gf180mcu_fd_sc_mcu9t5v0__clkinv_2
* cell instance $151 r0 *1 1444.8,1083.6
X$151 682 28 88 58 87 681 gf180mcu_fd_sc_mcu9t5v0__dffrnq_2
* cell instance $153 r0 *1 1312.08,1123.92
X$153 682 28 49 58 131 681 gf180mcu_fd_sc_mcu9t5v0__dffrnq_2
* cell instance $155 m0 *1 1311.52,1113.84
X$155 682 28 50 58 128 681 gf180mcu_fd_sc_mcu9t5v0__dffrnq_2
* cell instance $157 r0 *1 1318.8,1073.52
X$157 682 28 44 58 59 681 gf180mcu_fd_sc_mcu9t5v0__dffrnq_2
* cell instance $160 m0 *1 1327.2,1083.6
X$160 682 28 48 58 75 681 gf180mcu_fd_sc_mcu9t5v0__dffrnq_2
* cell instance $162 m0 *1 1350.16,1063.44
X$162 682 28 53 58 54 681 gf180mcu_fd_sc_mcu9t5v0__dffrnq_2
* cell instance $164 r0 *1 1364.72,1113.84
X$164 682 28 112 58 109 681 gf180mcu_fd_sc_mcu9t5v0__dffrnq_2
* cell instance $166 m0 *1 1365.28,1123.92
X$166 682 28 113 58 110 681 gf180mcu_fd_sc_mcu9t5v0__dffrnq_2
* cell instance $168 r0 *1 1375.36,1123.92
X$168 682 28 132 58 114 681 gf180mcu_fd_sc_mcu9t5v0__dffrnq_2
* cell instance $170 r0 *1 1393.28,1073.52
X$170 682 28 68 58 91 681 gf180mcu_fd_sc_mcu9t5v0__dffrnq_2
* cell instance $172 r0 *1 1374.24,1073.52
X$172 682 28 66 58 73 681 gf180mcu_fd_sc_mcu9t5v0__dffrnq_2
* cell instance $175 r0 *1 1378.16,1063.44
X$175 682 28 63 58 67 681 gf180mcu_fd_sc_mcu9t5v0__dffrnq_2
* cell instance $177 r0 *1 1369.2,1093.68
X$177 682 28 101 58 82 681 gf180mcu_fd_sc_mcu9t5v0__dffrnq_2
* cell instance $179 r0 *1 1366.4,1083.6
X$179 682 28 80 58 81 681 gf180mcu_fd_sc_mcu9t5v0__dffrnq_2
* cell instance $181 m0 *1 1397.76,1083.6
X$181 682 28 73 58 85 681 gf180mcu_fd_sc_mcu9t5v0__dffrnq_2
* cell instance $183 r0 *1 1387.68,1083.6
X$183 682 28 91 58 84 681 gf180mcu_fd_sc_mcu9t5v0__dffrnq_2
* cell instance $185 r0 *1 1359.12,1063.44
X$185 682 28 52 58 65 681 gf180mcu_fd_sc_mcu9t5v0__dffrnq_2
* cell instance $187 m0 *1 1430.8,1103.76
X$187 682 28 89 58 100 681 gf180mcu_fd_sc_mcu9t5v0__dffrnq_2
* cell instance $189 m0 *1 1435.84,1083.6
X$189 682 28 70 58 88 681 gf180mcu_fd_sc_mcu9t5v0__dffrnq_2
* cell instance $191 r0 *1 1425.76,1083.6
X$191 682 28 90 58 99 681 gf180mcu_fd_sc_mcu9t5v0__dffrnq_2
* cell instance $193 m0 *1 1432.48,1093.68
X$193 682 28 86 58 89 681 gf180mcu_fd_sc_mcu9t5v0__dffrnq_2
* cell instance $195 m0 *1 1421.28,1073.52
X$195 682 28 72 58 70 681 gf180mcu_fd_sc_mcu9t5v0__dffrnq_2
* cell instance $197 r0 *1 1419.6,1073.52
X$197 682 28 71 58 90 681 gf180mcu_fd_sc_mcu9t5v0__dffrnq_2
* cell instance $200 m0 *1 1402.24,1073.52
X$200 682 28 61 58 69 681 gf180mcu_fd_sc_mcu9t5v0__dffrnq_2
* cell instance $233 m0 *1 1290.24,1043.28
X$233 682 681 56 29 43 gf180mcu_fd_sc_mcu9t5v0__nor2_2
* cell instance $235 m0 *1 1356.88,1073.52
X$235 682 689 29 72 64 681 gf180mcu_fd_sc_mcu9t5v0__addh_2
* cell instance $243 m0 *1 1300.32,1043.28
X$243 682 43 35 30 40 681 42 gf180mcu_fd_sc_mcu9t5v0__nand4_2
* cell instance $246 r0 *1 1336.16,1043.28
X$246 682 57 30 51 50 681 gf180mcu_fd_sc_mcu9t5v0__addh_2
* cell instance $250 r0 *1 1311.52,1033.2
X$250 682 31 681 41 36 35 gf180mcu_fd_sc_mcu9t5v0__aoi21_2
* cell instance $253 r0 *1 1330,1053.36
X$253 682 31 35 55 49 681 gf180mcu_fd_sc_mcu9t5v0__addh_2
* cell instance $258 m0 *1 1311.52,1033.2
X$258 682 681 32 34 gf180mcu_fd_sc_mcu9t5v0__clkinv_2
* cell instance $260 m0 *1 1311.52,1053.36
X$260 32 682 681 46 48 40 gf180mcu_fd_sc_mcu9t5v0__addh_1
* cell instance $262 r0 *1 1313.2,1023.12
X$262 681 35 37 682 33 gf180mcu_fd_sc_mcu9t5v0__and2_2
* cell instance $265 m0 *1 1315.44,1063.44
X$265 681 34 682 38 36 47 gf180mcu_fd_sc_mcu9t5v0__oai21_2
* cell instance $288 m0 *1 1317.68,1043.28
X$288 682 681 38 39 gf180mcu_fd_sc_mcu9t5v0__clkinv_2
* cell instance $291 m0 *1 1319.36,1073.52
X$291 682 38 685 53 60 681 gf180mcu_fd_sc_mcu9t5v0__addh_2
* cell instance $297 r0 *1 1318.24,1023.12
X$297 682 681 40 47 gf180mcu_fd_sc_mcu9t5v0__clkinv_2
* cell instance $311 r0 *1 1309.84,1053.36
X$311 682 690 42 45 44 681 gf180mcu_fd_sc_mcu9t5v0__addh_2
* cell instance $321 r0 *1 1322.72,1103.76
X$321 682 94 687 44 95 681 gf180mcu_fd_sc_mcu9t5v0__addh_2
* cell instance $324 m0 *1 1314.32,1103.76
X$324 682 92 686 44 48 681 gf180mcu_fd_sc_mcu9t5v0__addh_2
* cell instance $326 r0 *1 1341.2,1093.68
X$326 682 681 48 97 44 gf180mcu_fd_sc_mcu9t5v0__nand2_2
* cell instance $328 m0 *1 1331.12,1073.52
X$328 682 681 44 60 gf180mcu_fd_sc_mcu9t5v0__clkinv_2
* cell instance $330 r0 *1 1344,1113.84
X$330 681 44 77 682 126 gf180mcu_fd_sc_mcu9t5v0__xnor2_2
* cell instance $332 r0 *1 1329.44,1093.68
X$332 50 49 48 44 682 681 96 gf180mcu_fd_sc_mcu9t5v0__and4_2
* cell instance $334 r0 *1 1314.32,1103.76
X$334 49 48 44 104 682 681 127 gf180mcu_fd_sc_mcu9t5v0__and4_2
* cell instance $347 m0 *1 1314.32,1073.52
X$347 682 681 53 45 gf180mcu_fd_sc_mcu9t5v0__clkinv_2
* cell instance $350 m0 *1 1328.32,1063.44
X$350 682 681 52 46 gf180mcu_fd_sc_mcu9t5v0__clkinv_2
* cell instance $360 m0 *1 1328.88,1103.76
X$360 682 681 48 95 gf180mcu_fd_sc_mcu9t5v0__clkinv_2
* cell instance $362 r0 *1 1331.12,1083.6
X$362 682 681 75 77 78 48 gf180mcu_fd_sc_mcu9t5v0__mux2_2
* cell instance $373 r0 *1 1317.68,1093.68
X$373 682 93 688 60 48 681 gf180mcu_fd_sc_mcu9t5v0__addh_2
* cell instance $383 m0 *1 1321.04,1144.08
X$383 681 106 49 682 141 gf180mcu_fd_sc_mcu9t5v0__and2_2
* cell instance $386 m0 *1 1328.88,1123.92
X$386 682 681 49 107 gf180mcu_fd_sc_mcu9t5v0__clkinv_2
* cell instance $388 m0 *1 1329.44,1144.08
X$388 50 49 76 104 682 681 161 gf180mcu_fd_sc_mcu9t5v0__and4_2
* cell instance $390 m0 *1 1336.72,1144.08
X$390 50 49 93 104 682 681 163 gf180mcu_fd_sc_mcu9t5v0__and4_2
* cell instance $393 r0 *1 1336.16,1134
X$393 50 49 94 104 682 681 164 gf180mcu_fd_sc_mcu9t5v0__and4_2
* cell instance $399 r0 *1 1336.16,1123.92
X$399 50 681 49 105 682 140 gf180mcu_fd_sc_mcu9t5v0__and3_2
* cell instance $402 r0 *1 1334.48,1103.76
X$402 682 49 130 92 77 681 gf180mcu_fd_sc_mcu9t5v0__xor3_2
* cell instance $405 r0 *1 1338.96,1113.84
X$405 681 49 97 682 129 gf180mcu_fd_sc_mcu9t5v0__and2_2
* cell instance $416 m0 *1 1333.92,1123.92
X$416 682 681 50 106 gf180mcu_fd_sc_mcu9t5v0__clkinv_2
* cell instance $423 m0 *1 1334.48,1134
X$423 681 50 107 682 142 gf180mcu_fd_sc_mcu9t5v0__and2_2
* cell instance $429 m0 *1 1330.56,1113.84
X$429 681 50 682 108 103 107 gf180mcu_fd_sc_mcu9t5v0__oai21_2
* cell instance $435 m0 *1 1344,1073.52
X$435 682 681 61 51 gf180mcu_fd_sc_mcu9t5v0__clkinv_2
* cell instance $441 m0 *1 1342.32,1063.44
X$441 52 53 61 63 681 682 74 gf180mcu_fd_sc_mcu9t5v0__or4_2
* cell instance $458 m0 *1 1384.88,1073.52
X$458 66 682 65 681 54 gf180mcu_fd_sc_mcu9t5v0__xor2_2
* cell instance $462 r0 *1 1341.76,1063.44
X$462 682 681 63 55 gf180mcu_fd_sc_mcu9t5v0__clkinv_2
* cell instance $474 r0 *1 1342.88,1184.4
X$474 682 245 58 274 681 gf180mcu_fd_sc_mcu9t5v0__dffq_2
* cell instance $476 m0 *1 1304.24,1375.92
X$476 682 627 58 645 681 gf180mcu_fd_sc_mcu9t5v0__dffq_2
* cell instance $481 r0 *1 1331.68,1406.16
X$481 682 667 58 673 681 gf180mcu_fd_sc_mcu9t5v0__dffq_2
* cell instance $484 m0 *1 1246.56,1295.28
X$484 682 476 58 472 681 gf180mcu_fd_sc_mcu9t5v0__dffq_2
* cell instance $487 r0 *1 1250.48,1285.2
X$487 682 475 58 474 681 gf180mcu_fd_sc_mcu9t5v0__dffq_2
* cell instance $489 m0 *1 1446.48,1355.76
X$489 682 601 58 600 681 gf180mcu_fd_sc_mcu9t5v0__dffq_2
* cell instance $491 r0 *1 1359.12,1194.48
X$491 682 259 58 275 681 gf180mcu_fd_sc_mcu9t5v0__dffq_2
* cell instance $497 r0 *1 1421.84,1386
X$497 682 669 58 651 681 gf180mcu_fd_sc_mcu9t5v0__dffq_2
* cell instance $500 m0 *1 1307.04,1406.16
X$500 682 663 58 671 681 gf180mcu_fd_sc_mcu9t5v0__dffq_2
* cell instance $503 r0 *1 1248.8,1214.64
X$503 682 310 58 329 681 gf180mcu_fd_sc_mcu9t5v0__dffq_2
* cell instance $505 r0 *1 1298.08,1396.08
X$505 682 661 58 660 681 gf180mcu_fd_sc_mcu9t5v0__dffq_2
* cell instance $507 r0 *1 1411.76,1365.84
X$507 682 615 58 613 681 gf180mcu_fd_sc_mcu9t5v0__dffq_2
* cell instance $509 m0 *1 1408.96,1345.68
X$509 682 583 58 582 681 gf180mcu_fd_sc_mcu9t5v0__dffq_2
* cell instance $512 m0 *1 1427.44,1375.92
X$512 682 636 58 635 681 gf180mcu_fd_sc_mcu9t5v0__dffq_2
* cell instance $515 r0 *1 1249.36,1234.8
X$515 682 363 58 384 681 gf180mcu_fd_sc_mcu9t5v0__dffq_2
* cell instance $517 r0 *1 1338.96,1194.48
X$517 682 283 58 307 681 gf180mcu_fd_sc_mcu9t5v0__dffq_2
* cell instance $520 r0 *1 1363.6,1254.96
X$520 682 394 58 422 681 gf180mcu_fd_sc_mcu9t5v0__dffq_2
* cell instance $524 m0 *1 1321.04,1396.08
X$524 682 666 58 665 681 gf180mcu_fd_sc_mcu9t5v0__dffq_2
* cell instance $526 m0 *1 1327.76,1335.6
X$526 682 581 58 579 681 gf180mcu_fd_sc_mcu9t5v0__dffq_2
* cell instance $530 r0 *1 1375.36,1164.24
X$530 682 174 58 173 681 gf180mcu_fd_sc_mcu9t5v0__dffq_2
* cell instance $532 m0 *1 1323.84,1406.16
X$532 682 647 58 664 681 gf180mcu_fd_sc_mcu9t5v0__dffq_2
* cell instance $535 m0 *1 1379.84,1355.76
X$535 682 596 58 622 681 gf180mcu_fd_sc_mcu9t5v0__dffq_2
* cell instance $538 r0 *1 1271.76,1234.8
X$538 682 365 58 385 681 gf180mcu_fd_sc_mcu9t5v0__dffq_2
* cell instance $540 r0 *1 1323.84,1335.6
X$540 682 580 58 577 681 gf180mcu_fd_sc_mcu9t5v0__dffq_2
* cell instance $542 r0 *1 1298.08,1335.6
X$542 682 574 58 590 681 gf180mcu_fd_sc_mcu9t5v0__dffq_2
* cell instance $544 r0 *1 1319.92,1365.84
X$544 682 610 58 628 681 gf180mcu_fd_sc_mcu9t5v0__dffq_2
* cell instance $546 r0 *1 1333.92,1265.04
X$546 682 416 58 414 681 gf180mcu_fd_sc_mcu9t5v0__dffq_2
* cell instance $548 r0 *1 1362.48,1184.4
X$548 682 261 58 225 681 gf180mcu_fd_sc_mcu9t5v0__dffq_2
* cell instance $550 r0 *1 1276.24,1244.88
X$550 682 390 58 389 681 gf180mcu_fd_sc_mcu9t5v0__dffq_2
* cell instance $552 m0 *1 1292.48,1254.96
X$552 682 408 58 391 681 gf180mcu_fd_sc_mcu9t5v0__dffq_2
* cell instance $554 r0 *1 1280.16,1174.32
X$554 682 220 58 219 681 gf180mcu_fd_sc_mcu9t5v0__dffq_2
* cell instance $556 m0 *1 1464.4,1365.84
X$556 682 620 58 618 681 gf180mcu_fd_sc_mcu9t5v0__dffq_2
* cell instance $558 r0 *1 1418.48,1335.6
X$558 682 584 58 599 681 gf180mcu_fd_sc_mcu9t5v0__dffq_2
* cell instance $560 m0 *1 1249.92,1355.76
X$560 682 605 58 603 681 gf180mcu_fd_sc_mcu9t5v0__dffq_2
* cell instance $562 r0 *1 1232.56,1265.04
X$562 682 425 58 445 681 gf180mcu_fd_sc_mcu9t5v0__dffq_2
* cell instance $565 m0 *1 1405.6,1275.12
X$565 682 435 58 449 681 gf180mcu_fd_sc_mcu9t5v0__dffq_2
* cell instance $567 r0 *1 1299.76,1365.84
X$567 682 626 58 638 681 gf180mcu_fd_sc_mcu9t5v0__dffq_2
* cell instance $569 r0 *1 1411.2,1265.04
X$569 682 418 58 421 681 gf180mcu_fd_sc_mcu9t5v0__dffq_2
* cell instance $572 r0 *1 1378.72,1325.52
X$572 682 533 58 591 681 gf180mcu_fd_sc_mcu9t5v0__dffq_2
* cell instance $575 m0 *1 1424.64,1244.88
X$575 682 374 58 396 681 gf180mcu_fd_sc_mcu9t5v0__dffq_2
* cell instance $578 r0 *1 1280.16,1396.08
X$578 682 658 58 657 681 gf180mcu_fd_sc_mcu9t5v0__dffq_2
* cell instance $581 m0 *1 1274,1325.52
X$581 682 524 58 568 681 gf180mcu_fd_sc_mcu9t5v0__dffq_2
* cell instance $583 m0 *1 1264.48,1335.6
X$583 682 571 58 570 681 gf180mcu_fd_sc_mcu9t5v0__dffq_2
* cell instance $585 m0 *1 1467.2,1224.72
X$585 682 349 58 355 681 gf180mcu_fd_sc_mcu9t5v0__dffq_2
* cell instance $588 r0 *1 1447.04,1265.04
X$588 682 438 58 447 681 gf180mcu_fd_sc_mcu9t5v0__dffq_2
* cell instance $591 m0 *1 1402.24,1325.52
X$591 682 562 58 567 681 gf180mcu_fd_sc_mcu9t5v0__dffq_2
* cell instance $594 r0 *1 1442.56,1234.8
X$594 682 376 58 375 681 gf180mcu_fd_sc_mcu9t5v0__dffq_2
* cell instance $596 r0 *1 1434.16,1295.28
X$596 682 489 58 497 681 gf180mcu_fd_sc_mcu9t5v0__dffq_2
* cell instance $598 r0 *1 1451.52,1365.84
X$598 682 617 58 616 681 gf180mcu_fd_sc_mcu9t5v0__dffq_2
* cell instance $600 m0 *1 1439.2,1295.28
X$600 682 461 58 460 681 gf180mcu_fd_sc_mcu9t5v0__dffq_2
* cell instance $605 m0 *1 1281.28,1335.6
X$605 682 573 58 572 681 gf180mcu_fd_sc_mcu9t5v0__dffq_2
* cell instance $607 r0 *1 1233.12,1325.52
X$607 682 549 58 547 681 gf180mcu_fd_sc_mcu9t5v0__dffq_2
* cell instance $611 m0 *1 1297.52,1194.48
X$611 682 222 58 255 681 gf180mcu_fd_sc_mcu9t5v0__dffq_2
* cell instance $613 m0 *1 1422.96,1234.8
X$613 682 373 58 387 681 gf180mcu_fd_sc_mcu9t5v0__dffq_2
* cell instance $616 m0 *1 1302.56,1184.4
X$616 682 221 58 273 681 gf180mcu_fd_sc_mcu9t5v0__dffq_2
* cell instance $618 m0 *1 1301.44,1244.88
X$618 682 386 58 366 681 gf180mcu_fd_sc_mcu9t5v0__dffq_2
* cell instance $620 m0 *1 1241.52,1325.52
X$620 682 520 58 548 681 gf180mcu_fd_sc_mcu9t5v0__dffq_2
* cell instance $622 r0 *1 1280.16,1406.16
X$622 682 659 58 656 681 gf180mcu_fd_sc_mcu9t5v0__dffq_2
* cell instance $625 m0 *1 1452.08,1244.88
X$625 682 346 58 397 681 gf180mcu_fd_sc_mcu9t5v0__dffq_2
* cell instance $628 m0 *1 1257.76,1184.4
X$628 682 214 58 247 681 gf180mcu_fd_sc_mcu9t5v0__dffq_2
* cell instance $630 r0 *1 1473.92,1234.8
X$630 682 378 58 377 681 gf180mcu_fd_sc_mcu9t5v0__dffq_2
* cell instance $632 m0 *1 1344,1406.16
X$632 682 668 58 672 681 gf180mcu_fd_sc_mcu9t5v0__dffq_2
* cell instance $635 m0 *1 1379.84,1254.96
X$635 682 395 58 407 681 gf180mcu_fd_sc_mcu9t5v0__dffq_2
* cell instance $637 m0 *1 1398.88,1375.92
X$637 682 632 58 633 681 gf180mcu_fd_sc_mcu9t5v0__dffq_2
* cell instance $640 m0 *1 1270.08,1214.64
X$640 682 278 58 311 681 gf180mcu_fd_sc_mcu9t5v0__dffq_2
* cell instance $643 r0 *1 1260.56,1275.12
X$643 682 430 58 428 681 gf180mcu_fd_sc_mcu9t5v0__dffq_2
* cell instance $645 m0 *1 1263.36,1285.2
X$645 682 451 58 450 681 gf180mcu_fd_sc_mcu9t5v0__dffq_2
* cell instance $648 r0 *1 1337.28,1214.64
X$648 682 319 58 336 681 gf180mcu_fd_sc_mcu9t5v0__dffq_2
* cell instance $650 m0 *1 1267.84,1275.12
X$650 682 431 58 446 681 gf180mcu_fd_sc_mcu9t5v0__dffq_2
* cell instance $654 m0 *1 1280.16,1285.2
X$654 682 453 58 452 681 gf180mcu_fd_sc_mcu9t5v0__dffq_2
* cell instance $657 m0 *1 1321.04,1265.04
X$657 682 412 58 410 681 gf180mcu_fd_sc_mcu9t5v0__dffq_2
* cell instance $660 r0 *1 1317.12,1265.04
X$660 682 411 58 409 681 gf180mcu_fd_sc_mcu9t5v0__dffq_2
* cell instance $662 r0 *1 1359.68,1154.16
X$662 682 144 58 166 681 gf180mcu_fd_sc_mcu9t5v0__dffq_2
* cell instance $664 m0 *1 1251.6,1194.48
X$664 682 249 58 246 681 gf180mcu_fd_sc_mcu9t5v0__dffq_2
* cell instance $666 m0 *1 1351.28,1355.76
X$666 682 594 58 593 681 gf180mcu_fd_sc_mcu9t5v0__dffq_2
* cell instance $668 r0 *1 1326.08,1254.96
X$668 682 415 58 413 681 gf180mcu_fd_sc_mcu9t5v0__dffq_2
* cell instance $670 r0 *1 1265.6,1214.64
X$670 682 313 58 330 681 gf180mcu_fd_sc_mcu9t5v0__dffq_2
* cell instance $672 m0 *1 1272.88,1386
X$672 682 644 58 642 681 gf180mcu_fd_sc_mcu9t5v0__dffq_2
* cell instance $675 r0 *1 1256.64,1375.92
X$675 682 625 58 624 681 gf180mcu_fd_sc_mcu9t5v0__dffq_2
* cell instance $677 r0 *1 1257.76,1386
X$677 682 655 58 670 681 gf180mcu_fd_sc_mcu9t5v0__dffq_2
* cell instance $679 m0 *1 1379.84,1375.92
X$679 682 631 58 649 681 gf180mcu_fd_sc_mcu9t5v0__dffq_2
* cell instance $682 m0 *1 2.24,1396.08
X$682 682 654 58 681 gf180mcu_fd_sc_mcu9t5v0__buf_20
* cell instance $685 r0 *1 1313.76,1224.72
X$685 682 318 58 333 681 gf180mcu_fd_sc_mcu9t5v0__dffq_2
* cell instance $687 m0 *1 1238.16,1214.64
X$687 682 309 58 276 681 gf180mcu_fd_sc_mcu9t5v0__dffq_2
* cell instance $690 r0 *1 1375.92,1375.92
X$690 682 598 58 648 681 gf180mcu_fd_sc_mcu9t5v0__dffq_2
* cell instance $692 m0 *1 1406.16,1234.8
X$692 682 344 58 372 681 gf180mcu_fd_sc_mcu9t5v0__dffq_2
* cell instance $695 r0 *1 1411.2,1224.72
X$695 682 343 58 341 681 gf180mcu_fd_sc_mcu9t5v0__dffq_2
* cell instance $697 r0 *1 1350.16,1375.92
X$697 682 630 58 653 681 gf180mcu_fd_sc_mcu9t5v0__dffq_2
* cell instance $699 m0 *1 1242.64,1275.12
X$699 682 426 58 423 681 gf180mcu_fd_sc_mcu9t5v0__dffq_2
* cell instance $701 m0 *1 1350.72,1244.88
X$701 682 368 58 367 681 gf180mcu_fd_sc_mcu9t5v0__dffq_2
* cell instance $703 r0 *1 1350.72,1315.44
X$703 682 558 58 557 681 gf180mcu_fd_sc_mcu9t5v0__dffq_2
* cell instance $708 m0 *1 1372.56,1224.72
X$708 682 322 58 340 681 gf180mcu_fd_sc_mcu9t5v0__dffq_2
* cell instance $711 m0 *1 1300.88,1305.36
X$711 682 504 58 503 681 gf180mcu_fd_sc_mcu9t5v0__dffq_2
* cell instance $713 m0 *1 1351.84,1365.84
X$713 682 612 58 611 681 gf180mcu_fd_sc_mcu9t5v0__dffq_2
* cell instance $715 r0 *1 1358,1224.72
X$715 682 334 58 362 681 gf180mcu_fd_sc_mcu9t5v0__dffq_2
* cell instance $717 r0 *1 1262.24,1335.6
X$717 682 551 58 550 681 gf180mcu_fd_sc_mcu9t5v0__dffq_2
* cell instance $719 m0 *1 1333.92,1224.72
X$719 682 339 58 338 681 gf180mcu_fd_sc_mcu9t5v0__dffq_2
* cell instance $721 m0 *1 1262.24,1164.24
X$721 682 168 58 187 681 gf180mcu_fd_sc_mcu9t5v0__dffq_2
* cell instance $724 m0 *1 1321.04,1375.92
X$724 682 609 58 646 681 gf180mcu_fd_sc_mcu9t5v0__dffq_2
* cell instance $726 r0 *1 1457.68,1305.36
X$726 682 511 58 539 681 gf180mcu_fd_sc_mcu9t5v0__dffq_2
* cell instance $728 r0 *1 1258.88,1164.24
X$728 682 195 58 193 681 gf180mcu_fd_sc_mcu9t5v0__dffq_2
* cell instance $730 m0 *1 1454.32,1315.44
X$730 682 510 58 540 681 gf180mcu_fd_sc_mcu9t5v0__dffq_2
* cell instance $732 r0 *1 1236.48,1295.28
X$732 682 473 58 499 681 gf180mcu_fd_sc_mcu9t5v0__dffq_2
* cell instance $735 m0 *1 1353.52,1164.24
X$735 682 172 58 171 681 gf180mcu_fd_sc_mcu9t5v0__dffq_2
* cell instance $738 m0 *1 1235.92,1305.36
X$738 682 500 58 516 681 gf180mcu_fd_sc_mcu9t5v0__dffq_2
* cell instance $743 m0 *1 1303.68,1224.72
X$743 682 337 58 361 681 gf180mcu_fd_sc_mcu9t5v0__dffq_2
* cell instance $745 r0 *1 1339.52,1325.52
X$745 682 556 58 555 681 gf180mcu_fd_sc_mcu9t5v0__dffq_2
* cell instance $750 m0 *1 1364.16,1295.28
X$750 682 485 58 483 681 gf180mcu_fd_sc_mcu9t5v0__dffq_2
* cell instance $752 r0 *1 1371.44,1285.2
X$752 682 457 58 471 681 gf180mcu_fd_sc_mcu9t5v0__dffq_2
* cell instance $754 m0 *1 1364.16,1174.32
X$754 682 200 58 197 681 gf180mcu_fd_sc_mcu9t5v0__dffq_2
* cell instance $756 r0 *1 1340.08,1365.84
X$756 682 629 58 639 681 gf180mcu_fd_sc_mcu9t5v0__dffq_2
* cell instance $759 m0 *1 1419.04,1325.52
X$759 682 563 58 560 681 gf180mcu_fd_sc_mcu9t5v0__dffq_2
* cell instance $762 m0 *1 1370.32,1325.52
X$762 682 531 58 559 681 gf180mcu_fd_sc_mcu9t5v0__dffq_2
* cell instance $764 r0 *1 1350.72,1244.88
X$764 682 369 58 392 681 gf180mcu_fd_sc_mcu9t5v0__dffq_2
* cell instance $768 m0 *1 1276.8,1174.32
X$768 682 217 58 216 681 gf180mcu_fd_sc_mcu9t5v0__dffq_2
* cell instance $770 m0 *1 1282.96,1345.68
X$770 682 592 58 602 681 gf180mcu_fd_sc_mcu9t5v0__dffq_2
* cell instance $772 m0 *1 1433.6,1265.04
X$772 682 419 58 436 681 gf180mcu_fd_sc_mcu9t5v0__dffq_2
* cell instance $774 r0 *1 1248.8,1355.76
X$774 682 606 58 621 681 gf180mcu_fd_sc_mcu9t5v0__dffq_2
* cell instance $776 r0 *1 1298.08,1305.36
X$776 682 527 58 525 681 gf180mcu_fd_sc_mcu9t5v0__dffq_2
* cell instance $778 r0 *1 1411.2,1375.92
X$778 682 634 58 650 681 gf180mcu_fd_sc_mcu9t5v0__dffq_2
* cell instance $780 r0 *1 1438.64,1325.52
X$780 682 564 58 587 681 gf180mcu_fd_sc_mcu9t5v0__dffq_2
* cell instance $782 m0 *1 1256.08,1386
X$782 682 641 58 640 681 gf180mcu_fd_sc_mcu9t5v0__dffq_2
* cell instance $784 r0 *1 1401.12,1315.44
X$784 682 537 58 535 681 gf180mcu_fd_sc_mcu9t5v0__dffq_2
* cell instance $787 r0 *1 1401.12,1325.52
X$787 682 561 58 588 681 gf180mcu_fd_sc_mcu9t5v0__dffq_2
* cell instance $789 r0 *1 1344.56,1295.28
X$789 682 482 58 479 681 gf180mcu_fd_sc_mcu9t5v0__dffq_2
* cell instance $791 m0 *1 1348.48,1305.36
X$791 682 506 58 481 681 gf180mcu_fd_sc_mcu9t5v0__dffq_2
* cell instance $794 r0 *1 1461.04,1335.6
X$794 682 566 58 586 681 gf180mcu_fd_sc_mcu9t5v0__dffq_2
* cell instance $796 m0 *1 1242.64,1244.88
X$796 682 388 58 403 681 gf180mcu_fd_sc_mcu9t5v0__dffq_2
* cell instance $798 m0 *1 1445.92,1375.92
X$798 682 637 58 652 681 gf180mcu_fd_sc_mcu9t5v0__dffq_2
* cell instance $936 m0 *1 1316.56,1083.6
X$936 681 60 78 682 59 gf180mcu_fd_sc_mcu9t5v0__xnor2_2
* cell instance $943 m0 *1 1327.76,1093.68
X$943 682 76 77 60 95 681 gf180mcu_fd_sc_mcu9t5v0__addh_2
* cell instance $957 m0 *1 1339.52,1093.68
X$957 80 76 74 79 682 681 62 gf180mcu_fd_sc_mcu9t5v0__and4_2
* cell instance $966 m0 *1 1359.12,1093.68
X$966 681 64 98 682 81 gf180mcu_fd_sc_mcu9t5v0__xnor2_2
* cell instance $968 r0 *1 1361.92,1083.6
X$968 682 681 80 64 gf180mcu_fd_sc_mcu9t5v0__clkinv_2
* cell instance $970 r0 *1 1359.68,1093.68
X$970 681 64 102 682 83 gf180mcu_fd_sc_mcu9t5v0__xnor2_2
* cell instance $975 r0 *1 1406.72,1063.44
X$975 68 682 67 681 65 gf180mcu_fd_sc_mcu9t5v0__xor2_2
* cell instance $987 m0 *1 1426.32,1083.6
X$987 71 682 69 681 67 gf180mcu_fd_sc_mcu9t5v0__xor2_2
* cell instance $994 r0 *1 1445.36,1073.52
X$994 70 682 86 681 69 gf180mcu_fd_sc_mcu9t5v0__xor2_2
* cell instance $1023 r0 *1 1313.76,1154.16
X$1023 141 78 76 682 681 170 gf180mcu_fd_sc_mcu9t5v0__and3_4
* cell instance $1026 m0 *1 1303.12,1154.16
X$1026 104 79 76 682 681 169 gf180mcu_fd_sc_mcu9t5v0__and3_4
* cell instance $1029 r0 *1 1338.4,1154.16
X$1029 142 104 76 682 681 192 gf180mcu_fd_sc_mcu9t5v0__and3_4
* cell instance $1049 m0 *1 1368.64,1093.68
X$1049 682 681 82 83 78 101 gf180mcu_fd_sc_mcu9t5v0__mux2_2
* cell instance $1051 r0 *1 1325.52,1154.16
X$1051 141 78 94 682 681 256 gf180mcu_fd_sc_mcu9t5v0__and3_4
* cell instance $1053 m0 *1 1338.96,1164.24
X$1053 142 78 93 682 681 213 gf180mcu_fd_sc_mcu9t5v0__and3_4
* cell instance $1055 m0 *1 1320.48,1164.24
X$1055 141 78 93 682 681 248 gf180mcu_fd_sc_mcu9t5v0__and3_4
* cell instance $1057 r0 *1 1321.6,1134
X$1057 682 104 78 681 gf180mcu_fd_sc_mcu9t5v0__clkbuf_8
* cell instance $1061 m0 *1 1366.96,1113.84
X$1061 682 681 109 130 78 112 gf180mcu_fd_sc_mcu9t5v0__mux2_2
* cell instance $1064 r0 *1 1383.76,1113.84
X$1064 682 681 114 126 78 132 gf180mcu_fd_sc_mcu9t5v0__mux2_2
* cell instance $1066 r0 *1 1366.96,1123.92
X$1066 682 681 110 111 78 113 gf180mcu_fd_sc_mcu9t5v0__mux2_2
* cell instance $1080 r0 *1 1302.56,1164.24
X$1080 681 105 79 218 682 gf180mcu_fd_sc_mcu9t5v0__and2_4
* cell instance $1082 m0 *1 1305.36,1164.24
X$1082 104 79 93 682 681 194 gf180mcu_fd_sc_mcu9t5v0__and3_4
* cell instance $1085 r0 *1 1302.56,1154.16
X$1085 104 79 94 682 681 189 gf180mcu_fd_sc_mcu9t5v0__and3_4
* cell instance $1088 m0 *1 1337.84,1103.76
X$1088 682 108 681 96 79 103 102 97 gf180mcu_fd_sc_mcu9t5v0__aoi221_2
* cell instance $1090 r0 *1 1331.12,1123.92
X$1090 681 106 107 682 79 gf180mcu_fd_sc_mcu9t5v0__and2_2
* cell instance $1098 m0 *1 1400,1113.84
X$1098 682 116 124 115 80 681 gf180mcu_fd_sc_mcu9t5v0__dffrnq_2
* cell instance $1116 r0 *1 1405.04,1134
X$1116 682 116 84 115 167 681 gf180mcu_fd_sc_mcu9t5v0__dffrnq_2
* cell instance $1119 r0 *1 1417.92,1144.08
X$1119 682 681 167 146 148 84 gf180mcu_fd_sc_mcu9t5v0__mux2_2
* cell instance $1123 m0 *1 1397.76,1164.24
X$1123 682 681 175 191 228 85 gf180mcu_fd_sc_mcu9t5v0__mux2_2
* cell instance $1125 r0 *1 1389.92,1144.08
X$1125 682 116 85 115 175 681 gf180mcu_fd_sc_mcu9t5v0__dffrnq_2
* cell instance $1133 m0 *1 1472.24,1154.16
X$1133 684 682 681 87 136 236 gf180mcu_fd_sc_mcu9t5v0__addh_1
* cell instance $1135 r0 *1 1455.44,1154.16
X$1135 682 681 87 183 gf180mcu_fd_sc_mcu9t5v0__clkinv_2
* cell instance $1138 r0 *1 1460.48,1154.16
X$1138 682 116 87 115 185 681 gf180mcu_fd_sc_mcu9t5v0__dffrnq_2
* cell instance $1160 m0 *1 1338.4,1113.84
X$1160 682 92 106 111 129 681 gf180mcu_fd_sc_mcu9t5v0__xnor3_2
* cell instance $1163 r0 *1 1335.6,1113.84
X$1163 682 681 92 108 gf180mcu_fd_sc_mcu9t5v0__clkinv_2
* cell instance $1185 m0 *1 1337.28,1154.16
X$1185 142 104 94 682 681 165 gf180mcu_fd_sc_mcu9t5v0__and3_4
* cell instance $1204 r0 *1 1346.8,1123.92
X$1204 682 140 98 681 gf180mcu_fd_sc_mcu9t5v0__clkbuf_8
* cell instance $1207 r0 *1 1363.04,1285.2
X$1207 682 681 483 456 98 485 gf180mcu_fd_sc_mcu9t5v0__mux2_2
* cell instance $1211 r0 *1 1355.2,1164.24
X$1211 682 681 171 143 98 172 gf180mcu_fd_sc_mcu9t5v0__mux2_2
* cell instance $1214 m0 *1 1443.68,1244.88
X$1214 682 681 375 342 98 376 gf180mcu_fd_sc_mcu9t5v0__mux2_2
* cell instance $1217 m0 *1 1453.2,1275.12
X$1217 682 681 447 424 98 438 gf180mcu_fd_sc_mcu9t5v0__mux2_2
* cell instance $1219 r0 *1 1445.92,1285.2
X$1219 682 681 460 429 98 461 gf180mcu_fd_sc_mcu9t5v0__mux2_2
* cell instance $1221 r0 *1 1461.6,1315.44
X$1221 682 681 539 536 98 511 gf180mcu_fd_sc_mcu9t5v0__mux2_2
* cell instance $1223 m0 *1 1364.16,1224.72
X$1223 682 681 362 277 98 334 gf180mcu_fd_sc_mcu9t5v0__mux2_2
* cell instance $1225 m0 *1 1355.76,1295.28
X$1225 682 681 481 480 98 506 gf180mcu_fd_sc_mcu9t5v0__mux2_2
* cell instance $1237 r0 *1 1426.32,1144.08
X$1237 682 681 147 160 148 99 gf180mcu_fd_sc_mcu9t5v0__mux2_2
* cell instance $1239 m0 *1 1417.92,1144.08
X$1239 682 116 99 115 147 681 gf180mcu_fd_sc_mcu9t5v0__dffrnq_2
* cell instance $1242 m0 *1 1444.8,1154.16
X$1242 681 100 149 682 180 gf180mcu_fd_sc_mcu9t5v0__and2_2
* cell instance $1244 r0 *1 1445.36,1144.08
X$1244 682 116 100 115 159 681 gf180mcu_fd_sc_mcu9t5v0__dffrnq_2
* cell instance $1251 r0 *1 1396.08,1103.76
X$1251 682 116 123 115 101 681 gf180mcu_fd_sc_mcu9t5v0__dffrnq_2
* cell instance $1288 r0 *1 1324.4,1164.24
X$1288 681 141 105 257 682 gf180mcu_fd_sc_mcu9t5v0__and2_4
* cell instance $1290 r0 *1 1341.76,1164.24
X$1290 681 105 142 196 682 gf180mcu_fd_sc_mcu9t5v0__and2_4
* cell instance $1294 m0 *1 1308.72,1123.92
X$1294 681 107 105 682 131 gf180mcu_fd_sc_mcu9t5v0__xnor2_2
* cell instance $1301 r0 *1 1318.8,1113.84
X$1301 681 106 127 682 128 gf180mcu_fd_sc_mcu9t5v0__xnor2_2
* cell instance $1339 r0 *1 1394.96,1113.84
X$1339 682 116 117 115 112 681 gf180mcu_fd_sc_mcu9t5v0__dffrnq_2
* cell instance $1345 m0 *1 1400.56,1123.92
X$1345 682 116 125 115 113 681 gf180mcu_fd_sc_mcu9t5v0__dffrnq_2
* cell instance $1355 m0 *1 1468.88,1194.48
X$1355 682 116 177 115 301 681 gf180mcu_fd_sc_mcu9t5v0__dffrnq_4
* cell instance $1357 r0 *1 1400.56,1275.12
X$1357 682 116 434 115 458 681 gf180mcu_fd_sc_mcu9t5v0__dffrnq_4
* cell instance $1360 r0 *1 1451.52,1134
X$1360 682 116 135 115 121 681 gf180mcu_fd_sc_mcu9t5v0__dffrnq_2
* cell instance $1362 r0 *1 1412.32,1123.92
X$1362 682 116 139 115 117 681 gf180mcu_fd_sc_mcu9t5v0__dffrnq_2