
* cell spi_master
* pin spi_clk
* pin tx_valid
* pin rst_n
* pin tx_ready
* pin spi_cs_n
* pin tx_data[0]
* pin tx_data[1]
* pin tx_data[2]
* pin tx_data[3]
* pin tx_data[4]
* pin tx_data[5]
* pin tx_data[6]
* pin tx_data[7]
* pin spi_mosi
* pin rx_valid
* pin clk
* pin rx_data[4]
* pin rx_data[3]
* pin rx_data[7]
* pin rx_data[5]
* pin rx_data[2]
* pin rx_data[1]
* pin spi_miso
* pin rx_data[6]
* pin rx_data[0]
.SUBCKT spi_master 1 2 3 4 5 6 7 8 37 44 70 73 91 103 104 129 144 145 158 196
+ 197 204 219 223 224
* net 1 spi_clk
* net 2 tx_valid
* net 3 rst_n
* net 4 tx_ready
* net 5 spi_cs_n
* net 6 tx_data[0]
* net 7 tx_data[1]
* net 8 tx_data[2]
* net 37 tx_data[3]
* net 44 tx_data[4]
* net 70 tx_data[5]
* net 73 tx_data[6]
* net 91 tx_data[7]
* net 103 spi_mosi
* net 104 rx_valid
* net 129 clk
* net 144 rx_data[4]
* net 145 rx_data[3]
* net 158 rx_data[7]
* net 196 rx_data[5]
* net 197 rx_data[2]
* net 204 rx_data[1]
* net 219 spi_miso
* net 223 rx_data[6]
* net 224 rx_data[0]
* cell instance $2 r0 *1 17.02,2.72
X$2 27 29 1 9 27 9 sky130_fd_sc_hd__clkbuf_1
* cell instance $5 r0 *1 19.78,2.72
X$5 27 2 27 9 11 9 sky130_fd_sc_hd__clkbuf_2
* cell instance $8 m0 *1 29.44,8.16
X$8 27 3 27 22 9 9 sky130_fd_sc_hd__dlygate4sd3_1
* cell instance $11 r0 *1 18.4,2.72
X$11 27 20 4 9 27 9 sky130_fd_sc_hd__clkbuf_1
* cell instance $14 m0 *1 31.74,13.6
X$14 27 52 5 9 27 9 sky130_fd_sc_hd__clkbuf_1
* cell instance $19 r0 *1 36.8,2.72
X$19 27 6 14 9 27 9 sky130_fd_sc_hd__clkbuf_1
* cell instance $22 r0 *1 43.24,2.72
X$22 27 7 12 9 27 9 sky130_fd_sc_hd__clkbuf_1
* cell instance $25 r0 *1 44.62,2.72
X$25 27 8 31 9 27 9 sky130_fd_sc_hd__clkbuf_1
* cell instance $35 r0 *1 5.98,2.72
X$35 9 21 30 15 18 27 27 9 sky130_fd_sc_hd__dfrtp_1
* cell instance $40 r0 *1 21.62,2.72
X$40 9 16 21 27 27 9 sky130_fd_sc_hd__buf_12
* cell instance $43 r0 *1 30.36,2.72
X$43 27 11 14 23 10 27 9 9 sky130_fd_sc_hd__nand3_1
* cell instance $44 r0 *1 32.2,2.72
X$44 9 16 22 27 27 9 sky130_fd_sc_hd__dlymetal6s2s_1
* cell instance $46 r0 *1 39.1,2.72
X$46 9 19 12 34 17 27 27 9 sky130_fd_sc_hd__mux2i_1
* cell instance $49 r0 *1 46,2.72
X$49 9 21 28 13 49 27 27 9 sky130_fd_sc_hd__dfrtp_1
* cell instance $61 m0 *1 9.2,8.16
X$61 9 21 29 15 38 27 27 9 sky130_fd_sc_hd__dfrtp_1
* cell instance $63 m0 *1 19.32,8.16
X$63 9 16 20 15 33 27 27 9 sky130_fd_sc_hd__dfstp_1
* cell instance $65 m0 *1 33.12,8.16
X$65 9 21 32 13 53 27 27 9 sky130_fd_sc_hd__dfrtp_1
* cell instance $67 m0 *1 42.78,8.16
X$67 27 24 36 43 9 27 25 9 sky130_fd_sc_hd__a21oi_1
* cell instance $70 m0 *1 46,8.16
X$70 27 26 39 24 9 27 9 sky130_fd_sc_hd__nor2_1
* cell instance $73 m0 *1 51.52,8.16
X$73 27 37 35 9 27 9 sky130_fd_sc_hd__clkbuf_1
* cell instance $74 m0 *1 52.9,8.16
X$74 9 46 35 26 17 27 27 9 sky130_fd_sc_hd__mux2i_1
* cell instance $80 r0 *1 9.66,8.16
X$80 27 41 59 40 9 27 38 9 sky130_fd_sc_hd__a21boi_0
* cell instance $85 r0 *1 15.64,8.16
X$85 27 30 9 47 27 9 sky130_fd_sc_hd__buf_2
* cell instance $88 r0 *1 18.86,8.16
X$88 9 16 52 15 42 27 27 9 sky130_fd_sc_hd__dfstp_1
* cell instance $89 r0 *1 28.52,8.16
X$89 27 51 11 23 9 27 42 9 sky130_fd_sc_hd__a21oi_1
* cell instance $91 r0 *1 30.82,8.16
X$91 9 21 34 13 62 27 27 9 sky130_fd_sc_hd__dfrtp_1
* cell instance $92 r0 *1 40.02,8.16
X$92 27 61 36 19 9 27 53 9 sky130_fd_sc_hd__a21oi_1
* cell instance $96 r0 *1 43.24,8.16
X$96 9 21 26 13 25 27 27 9 sky130_fd_sc_hd__dfrtp_1
* cell instance $97 r0 *1 52.44,8.16
X$97 27 50 36 46 9 27 49 9 sky130_fd_sc_hd__a21oi_1
* cell instance $98 r0 *1 54.28,8.16
X$98 9 48 45 28 17 27 27 9 sky130_fd_sc_hd__mux2i_1
* cell instance $103 m0 *1 1.38,13.6
X$103 9 21 63 15 71 27 27 9 sky130_fd_sc_hd__dfrtp_2
* cell instance $104 m0 *1 11.04,13.6
X$104 27 47 60 59 54 27 9 68 9 sky130_fd_sc_hd__o31ai_1
* cell instance $105 m0 *1 13.8,13.6
X$105 27 41 68 47 64 9 18 27 9 sky130_fd_sc_hd__a22o_1
* cell instance $106 m0 *1 17.02,13.6
X$106 27 56 55 40 27 9 9 sky130_fd_sc_hd__nand2_1
* cell instance $108 m0 *1 18.86,13.6
X$108 27 29 9 55 27 9 sky130_fd_sc_hd__buf_2
* cell instance $109 m0 *1 20.7,13.6
X$109 27 56 41 11 57 27 9 33 9 sky130_fd_sc_hd__o31ai_1
* cell instance $110 m0 *1 23.46,13.6
X$110 27 56 41 20 27 57 9 9 sky130_fd_sc_hd__o21ai_0
* cell instance $113 m0 *1 26.68,13.6
X$113 27 52 65 51 9 27 9 sky130_fd_sc_hd__nor2b_1
* cell instance $116 m0 *1 30.36,13.6
X$116 27 56 65 23 9 27 9 sky130_fd_sc_hd__nor2_1
* cell instance $118 m0 *1 34.96,13.6
X$118 27 58 36 10 27 62 9 9 sky130_fd_sc_hd__o21ai_0
* cell instance $121 m0 *1 38.18,13.6
X$121 27 34 27 9 58 9 sky130_fd_sc_hd__inv_1
* cell instance $123 m0 *1 40.02,13.6
X$123 27 32 36 61 9 27 9 sky130_fd_sc_hd__nor2_1
* cell instance $124 m0 *1 41.4,13.6
X$124 9 43 31 32 17 27 27 9 sky130_fd_sc_hd__mux2i_1
* cell instance $127 m0 *1 46.46,13.6
X$127 9 21 66 13 75 27 27 9 sky130_fd_sc_hd__dfrtp_1
* cell instance $133 r0 *1 6.9,13.6
X$133 27 55 63 72 27 9 9 sky130_fd_sc_hd__nand2_1
* cell instance $134 r0 *1 8.28,13.6
X$134 27 15 227 9 27 9 sky130_fd_sc_hd__clkbuf_1
* cell instance $135 r0 *1 9.66,13.6
X$135 27 63 59 72 27 82 9 9 sky130_fd_sc_hd__o21ai_0
* cell instance $137 r0 *1 11.96,13.6
X$137 27 84 9 15 27 9 sky130_fd_sc_hd__clkbuf_4
* cell instance $141 r0 *1 15.64,13.6
X$141 27 55 60 47 27 54 9 9 sky130_fd_sc_hd__o21ai_0
* cell instance $145 r0 *1 20.7,13.6
X$145 9 64 56 11 65 27 27 9 sky130_fd_sc_hd__o21bai_2
* cell instance $147 r0 *1 25.76,13.6
X$147 27 65 9 41 27 9 sky130_fd_sc_hd__buf_2
* cell instance $151 r0 *1 35.88,13.6
X$151 27 84 9 13 27 9 sky130_fd_sc_hd__clkbuf_4
* cell instance $152 r0 *1 38.64,13.6
X$152 27 13 27 9 9 sky130_fd_sc_hd__clkinv_2
* cell instance $160 r0 *1 49.22,13.6
X$160 27 67 36 48 9 27 75 9 sky130_fd_sc_hd__a21oi_1
* cell instance $161 r0 *1 51.06,13.6
X$161 27 66 39 67 9 27 9 sky130_fd_sc_hd__nor2_1
* cell instance $162 r0 *1 52.44,13.6
X$162 27 28 39 50 9 27 9 sky130_fd_sc_hd__nor2_1
* cell instance $163 r0 *1 53.82,13.6
X$163 27 70 80 9 27 9 sky130_fd_sc_hd__clkbuf_1
* cell instance $164 r0 *1 55.2,13.6
X$164 27 73 74 9 27 9 sky130_fd_sc_hd__clkbuf_1
* cell instance $165 r0 *1 56.58,13.6
X$165 27 44 45 9 27 9 sky130_fd_sc_hd__clkbuf_1
* cell instance $173 m0 *1 7.82,19.04
X$173 27 63 64 41 82 9 71 27 9 sky130_fd_sc_hd__a22o_1
* cell instance $175 m0 *1 11.5,19.04
X$175 27 55 76 59 9 27 9 sky130_fd_sc_hd__or2_0
* cell instance $179 m0 *1 18.86,19.04
X$179 9 21 77 15 110 27 27 9 sky130_fd_sc_hd__dfrtp_1
* cell instance $184 m0 *1 30.82,19.04
X$184 27 11 77 88 9 27 9 sky130_fd_sc_hd__nand2b_1
* cell instance $185 m0 *1 33.12,19.04
X$185 27 76 9 56 27 9 sky130_fd_sc_hd__buf_2
* cell instance $190 m0 *1 47.84,19.04
X$190 27 83 36 69 9 27 78 9 sky130_fd_sc_hd__a21oi_1
* cell instance $191 m0 *1 49.68,19.04
X$191 27 79 39 83 9 27 9 sky130_fd_sc_hd__nor2_1
* cell instance $192 m0 *1 51.06,19.04
X$192 27 81 36 85 9 27 9 sky130_fd_sc_hd__nor2_1
* cell instance $194 m0 *1 52.9,19.04
X$194 9 69 80 66 17 27 27 9 sky130_fd_sc_hd__mux2i_1
* cell instance $198 r0 *1 1.84,19.04
X$198 9 21 93 15 92 27 27 9 sky130_fd_sc_hd__dfrtp_1
* cell instance $200 r0 *1 11.96,19.04
X$200 27 86 27 9 60 9 sky130_fd_sc_hd__inv_1
* cell instance $201 r0 *1 13.34,19.04
X$201 27 55 27 9 96 9 sky130_fd_sc_hd__inv_1
* cell instance $208 r0 *1 16.56,19.04
X$208 9 76 29 90 77 27 27 9 sky130_fd_sc_hd__nor3b_4
* cell instance $209 r0 *1 23.46,19.04
X$209 9 21 76 15 97 27 27 9 sky130_fd_sc_hd__dfrtp_4
* cell instance $211 r0 *1 34.96,19.04
X$211 27 76 65 87 9 27 9 sky130_fd_sc_hd__nor2b_1
* cell instance $213 r0 *1 38.18,19.04
X$213 27 87 9 17 27 9 sky130_fd_sc_hd__clkbuf_4
* cell instance $219 r0 *1 43.24,19.04
X$219 9 21 79 13 78 27 27 9 sky130_fd_sc_hd__dfrtp_1
* cell instance $220 r0 *1 52.44,19.04
X$220 9 95 74 79 17 27 27 9 sky130_fd_sc_hd__mux2i_1
* cell instance $222 r0 *1 56.58,19.04
X$222 27 91 106 9 27 9 sky130_fd_sc_hd__clkbuf_1
* cell instance $226 m0 *1 7.36,24.48
X$226 27 98 105 89 27 9 9 sky130_fd_sc_hd__nand2_1
* cell instance $227 m0 *1 8.74,24.48
X$227 27 96 115 89 27 107 9 9 sky130_fd_sc_hd__o21ai_0
* cell instance $229 m0 *1 11.04,24.48
X$229 27 41 107 93 64 9 92 27 9 sky130_fd_sc_hd__a22o_1
* cell instance $230 m0 *1 14.26,24.48
X$230 9 225 116 93 100 27 27 9 sky130_fd_sc_hd__ha_1
* cell instance $231 m0 *1 18.86,24.48
X$231 27 109 96 41 64 9 27 110 9 sky130_fd_sc_hd__a31oi_1
* cell instance $233 m0 *1 23,24.48
X$233 27 100 90 97 9 27 9 sky130_fd_sc_hd__nor2b_1
* cell instance $234 m0 *1 25.3,24.48
X$234 27 77 9 65 27 9 sky130_fd_sc_hd__buf_2
* cell instance $239 m0 *1 30.82,24.48
X$239 27 76 77 112 9 27 9 sky130_fd_sc_hd__nand2b_1
* cell instance $240 m0 *1 33.12,24.48
X$240 27 88 76 101 27 39 9 9 sky130_fd_sc_hd__a21oi_2
* cell instance $241 m0 *1 36.34,24.48
X$241 27 118 123 111 27 9 9 sky130_fd_sc_hd__nand2_1
* cell instance $243 m0 *1 41.4,24.48
X$243 27 39 9 36 27 9 sky130_fd_sc_hd__buf_2
* cell instance $244 m0 *1 43.24,24.48
X$244 9 21 94 13 121 27 27 9 sky130_fd_sc_hd__dfrtp_1
* cell instance $245 m0 *1 52.44,24.48
X$245 9 119 106 94 17 27 27 9 sky130_fd_sc_hd__mux2i_1
* cell instance $250 r0 *1 1.84,24.48
X$250 9 21 99 15 113 27 27 9 sky130_fd_sc_hd__dfrtp_1
* cell instance $251 r0 *1 11.04,24.48
X$251 27 41 114 99 64 9 113 27 9 sky130_fd_sc_hd__a22o_1
* cell instance $257 r0 *1 15.64,24.48
X$257 9 226 117 93 109 27 27 9 sky130_fd_sc_hd__ha_1
* cell instance $258 r0 *1 20.24,24.48
X$258 27 100 27 9 109 9 sky130_fd_sc_hd__inv_1
* cell instance $262 r0 *1 24.84,24.48
X$262 27 65 55 124 101 27 9 9 sky130_fd_sc_hd__nand3_1
* cell instance $265 r0 *1 30.82,24.48
X$265 27 112 9 118 27 9 sky130_fd_sc_hd__clkbuf_4
* cell instance $266 r0 *1 33.58,24.48
X$266 9 21 102 122 111 27 27 9 sky130_fd_sc_hd__dfrtp_1
* cell instance $272 r0 *1 44.16,24.48
X$272 27 102 104 9 27 9 sky130_fd_sc_hd__clkbuf_1
* cell instance $275 r0 *1 47.84,24.48
X$275 27 108 36 95 9 27 121 9 sky130_fd_sc_hd__a21oi_1
* cell instance $276 r0 *1 49.68,24.48
X$276 27 94 39 108 9 27 9 sky130_fd_sc_hd__nor2_1
* cell instance $278 r0 *1 51.98,24.48
X$278 27 85 36 119 9 27 120 9 sky130_fd_sc_hd__a21oi_1
* cell instance $283 m0 *1 6.9,29.92
X$283 27 76 55 105 9 27 9 sky130_fd_sc_hd__nor2_1
* cell instance $284 m0 *1 8.28,29.92
X$284 9 127 86 63 99 27 27 9 sky130_fd_sc_hd__ha_1
* cell instance $285 m0 *1 12.88,29.92
X$285 27 93 27 9 115 9 sky130_fd_sc_hd__clkinvlp_4
* cell instance $286 m0 *1 15.64,29.92
X$286 27 47 115 86 100 27 9 9 sky130_fd_sc_hd__nand3_1
* cell instance $289 m0 *1 18.86,29.92
X$289 27 117 116 141 9 27 9 sky130_fd_sc_hd__nor2_1
* cell instance $290 m0 *1 20.24,29.92
X$290 9 125 124 100 115 27 27 9 sky130_fd_sc_hd__ha_2
* cell instance $291 m0 *1 25.76,29.92
X$291 27 129 9 84 27 9 sky130_fd_sc_hd__clkbuf_4
* cell instance $298 m0 *1 36.34,29.92
X$298 27 41 102 123 27 9 9 sky130_fd_sc_hd__nand2_1
* cell instance $301 m0 *1 43.24,29.92
X$301 9 21 81 122 120 27 27 9 sky130_fd_sc_hd__dfrtp_1
* cell instance $302 m0 *1 52.44,29.92
X$302 27 81 103 9 27 9 sky130_fd_sc_hd__clkbuf_1
* cell instance $310 r0 *1 7.82,29.92
X$310 27 105 127 55 99 9 114 27 9 sky130_fd_sc_hd__a22o_1
* cell instance $311 r0 *1 11.04,29.92
X$311 27 47 99 63 135 27 9 9 sky130_fd_sc_hd__nand3_1
* cell instance $316 r0 *1 15.64,29.92
X$316 27 86 47 27 130 9 9 sky130_fd_sc_hd__xor2_1
* cell instance $317 r0 *1 18.86,29.92
X$317 27 116 125 63 117 9 131 27 9 sky130_fd_sc_hd__nor4_1
* cell instance $319 r0 *1 23,29.92
X$319 27 126 56 140 9 27 9 sky130_fd_sc_hd__nand2b_1
* cell instance $320 r0 *1 25.3,29.92
X$320 27 55 127 65 27 126 9 9 sky130_fd_sc_hd__o21ai_0
* cell instance $322 r0 *1 28.98,29.92
X$322 27 56 41 128 27 138 9 9 sky130_fd_sc_hd__o21ai_0
* cell instance $331 r0 *1 45.54,29.92
X$331 9 21 134 122 136 27 27 9 sky130_fd_sc_hd__dfrtp_1
* cell instance $341 m0 *1 6.9,35.36
X$341 9 98 137 115 135 27 27 9 sky130_fd_sc_hd__ha_1
* cell instance $342 m0 *1 11.5,35.36
X$342 27 47 115 86 147 27 9 9 sky130_fd_sc_hd__nand3_1
* cell instance $344 m0 *1 14.26,35.36
X$344 27 86 47 142 27 9 9 sky130_fd_sc_hd__xnor2_1
* cell instance $345 m0 *1 17.48,35.36
X$345 27 63 142 141 139 27 9 9 sky130_fd_sc_hd__nand3_1
* cell instance $346 m0 *1 19.32,35.36
X$346 9 151 125 130 141 63 27 27 9 sky130_fd_sc_hd__nand4b_2
* cell instance $347 m0 *1 24.84,35.36
X$347 27 130 131 132 27 9 9 sky130_fd_sc_hd__nand2_1
* cell instance $348 m0 *1 26.22,35.36
X$348 27 150 132 140 152 9 27 9 sky130_fd_sc_hd__nor3_1
* cell instance $352 m0 *1 29.9,35.36
X$352 27 138 159 156 151 133 9 27 9 sky130_fd_sc_hd__o22ai_1
* cell instance $353 m0 *1 32.2,35.36
X$353 9 21 128 143 133 27 27 9 sky130_fd_sc_hd__dfrtp_1
* cell instance $356 m0 *1 44.16,35.36
X$356 9 136 134 172 118 27 27 9 sky130_fd_sc_hd__mux2_1
* cell instance $358 m0 *1 49.22,35.36
X$358 9 149 146 148 118 27 27 9 sky130_fd_sc_hd__mux2_1
* cell instance $360 m0 *1 55.2,35.36
X$360 27 134 145 9 27 9 sky130_fd_sc_hd__clkbuf_1
* cell instance $366 r0 *1 6.44,35.36
X$366 27 115 135 179 9 27 9 sky130_fd_sc_hd__nand2b_1
* cell instance $367 r0 *1 8.74,35.36
X$367 9 167 153 115 147 27 27 9 sky130_fd_sc_hd__ha_1
* cell instance $368 r0 *1 13.34,35.36
X$368 27 98 153 137 174 9 27 9 sky130_fd_sc_hd__nor3_1
* cell instance $373 r0 *1 15.64,35.36
X$373 27 153 137 164 27 9 9 sky130_fd_sc_hd__and2_0
* cell instance $375 r0 *1 19.78,35.36
X$375 27 142 131 161 27 9 9 sky130_fd_sc_hd__nand2_1
* cell instance $377 r0 *1 23,35.36
X$377 27 65 55 56 9 27 154 9 sky130_fd_sc_hd__a21o_1
* cell instance $379 r0 *1 26.22,35.36
X$379 27 151 154 127 150 9 159 27 9 sky130_fd_sc_hd__nor4_1
* cell instance $381 r0 *1 28.98,35.36
X$381 27 166 155 161 156 157 9 27 9 sky130_fd_sc_hd__o22ai_1
* cell instance $383 r0 *1 31.74,35.36
X$383 27 56 65 148 27 166 9 9 sky130_fd_sc_hd__o21ai_0
* cell instance $384 r0 *1 33.58,35.36
X$384 9 21 148 143 157 27 27 9 sky130_fd_sc_hd__dfrtp_1
* cell instance $391 r0 *1 47.38,35.36
X$391 9 21 146 122 149 27 27 9 sky130_fd_sc_hd__dfrtp_1
* cell instance $392 r0 *1 56.58,35.36
X$392 27 163 144 9 27 9 sky130_fd_sc_hd__clkbuf_1
* cell instance $394 m0 *1 3.22,40.8
X$394 9 160 125 173 167 180 27 27 9 sky130_fd_sc_hd__nor4b_4
* cell instance $397 m0 *1 13.34,40.8
X$397 9 168 174 160 150 137 183 27 27 9 sky130_fd_sc_hd__a32oi_4
* cell instance $399 m0 *1 23.92,40.8
X$399 27 150 140 161 155 9 27 9 sky130_fd_sc_hd__nor3_1
* cell instance $401 m0 *1 26.68,40.8
X$401 27 127 165 150 156 27 9 9 sky130_fd_sc_hd__or3_1
* cell instance $404 m0 *1 30.36,40.8
X$404 27 156 132 152 170 162 9 27 9 sky130_fd_sc_hd__o22ai_1
* cell instance $407 m0 *1 34.04,40.8
X$407 27 56 65 172 27 170 9 9 sky130_fd_sc_hd__o21ai_0
* cell instance $411 m0 *1 42.32,40.8
X$411 9 171 163 128 118 27 27 9 sky130_fd_sc_hd__mux2_1
* cell instance $412 m0 *1 46.46,40.8
X$412 9 21 163 122 171 27 27 9 sky130_fd_sc_hd__dfrtp_1
* cell instance $418 r0 *1 4.14,40.8
X$418 27 98 127 169 9 27 9 sky130_fd_sc_hd__nor2b_1
* cell instance $419 r0 *1 6.44,40.8
X$419 9 173 180 115 179 27 27 9 sky130_fd_sc_hd__ha_1
* cell instance $420 r0 *1 11.04,40.8
X$420 9 167 173 168 180 125 27 27 9 sky130_fd_sc_hd__and4b_2
* cell instance $425 r0 *1 15.64,40.8
X$425 9 160 176 175 181 168 169 27 27 9 sky130_fd_sc_hd__a32oi_4
* cell instance $427 r0 *1 29.44,40.8
X$427 27 165 181 151 178 27 9 9 sky130_fd_sc_hd__or3_1
* cell instance $428 r0 *1 31.74,40.8
X$428 27 177 154 182 27 9 9 sky130_fd_sc_hd__nand2_1
* cell instance $429 r0 *1 33.12,40.8
X$429 9 21 172 143 162 27 27 9 sky130_fd_sc_hd__dfrtp_1
* cell instance $435 r0 *1 43.24,40.8
X$435 27 84 9 122 27 9 sky130_fd_sc_hd__clkbuf_4
* cell instance $441 r0 *1 56.58,40.8
X$441 27 146 158 9 27 9 sky130_fd_sc_hd__clkbuf_1
* cell instance $444 m0 *1 6.9,46.24
X$444 27 127 125 98 189 9 27 9 sky130_fd_sc_hd__nand3b_1
* cell instance $445 m0 *1 9.66,46.24
X$445 9 153 137 176 98 127 27 27 9 sky130_fd_sc_hd__and4b_1
* cell instance $446 m0 *1 13.34,46.24
X$446 27 175 168 160 164 27 184 9 9 sky130_fd_sc_hd__a22oi_1
* cell instance $447 m0 *1 16.1,46.24
X$447 27 153 137 175 9 27 9 sky130_fd_sc_hd__nor2_1
* cell instance $449 m0 *1 18.4,46.24
X$449 27 98 153 183 9 27 9 sky130_fd_sc_hd__nor2b_1
* cell instance $452 m0 *1 23.46,46.24
X$452 9 143 27 27 9 sky130_fd_sc_hd__clkbuf_8
* cell instance $456 m0 *1 31.28,46.24
X$456 27 181 151 177 90 191 27 9 9 sky130_fd_sc_hd__o211ai_1
* cell instance $457 m0 *1 34.04,46.24
X$457 27 182 191 178 186 27 9 9 sky130_fd_sc_hd__nand3_1
* cell instance $458 m0 *1 35.88,46.24
X$458 9 21 177 143 186 27 27 9 sky130_fd_sc_hd__dfrtp_1
* cell instance $459 m0 *1 45.08,46.24
X$459 9 195 187 177 118 27 27 9 sky130_fd_sc_hd__mux2_1
* cell instance $460 m0 *1 49.22,46.24
X$460 9 190 206 188 118 27 27 9 sky130_fd_sc_hd__mux2_1
* cell instance $469 r0 *1 12.42,46.24
X$469 27 184 139 189 165 198 27 9 9 sky130_fd_sc_hd__or4_1
* cell instance $474 r0 *1 15.64,46.24
X$474 27 125 139 165 181 185 27 9 9 sky130_fd_sc_hd__or4_1
* cell instance $475 r0 *1 18.4,46.24
X$475 27 193 192 185 207 27 9 9 sky130_fd_sc_hd__nand3_1
* cell instance $476 r0 *1 20.24,46.24
X$476 9 125 192 194 139 181 90 27 27 9 sky130_fd_sc_hd__o311ai_0
* cell instance $477 r0 *1 23.46,46.24
X$477 27 84 9 143 27 9 sky130_fd_sc_hd__clkbuf_4
* cell instance $478 r0 *1 26.22,46.24
X$478 27 194 154 193 27 9 9 sky130_fd_sc_hd__nand2_1
* cell instance $480 r0 *1 28.52,46.24
X$480 27 165 181 161 200 27 9 9 sky130_fd_sc_hd__or3_1
* cell instance $481 r0 *1 30.82,46.24
X$481 27 181 161 199 90 208 27 9 9 sky130_fd_sc_hd__o211ai_1
* cell instance $490 r0 *1 46.92,46.24
X$490 9 21 187 122 195 27 27 9 sky130_fd_sc_hd__dfrtp_1
* cell instance $492 r0 *1 56.58,46.24
X$492 27 187 197 9 27 9 sky130_fd_sc_hd__clkbuf_1
* cell instance $494 m0 *1 1.84,51.68
X$494 9 21 201 143 205 27 27 9 sky130_fd_sc_hd__dfrtp_1
* cell instance $496 m0 *1 11.5,51.68
X$496 9 184 202 201 139 189 90 27 27 9 sky130_fd_sc_hd__o311ai_0
* cell instance $497 m0 *1 14.72,51.68
X$497 27 202 198 211 205 27 9 9 sky130_fd_sc_hd__nand3_1
* cell instance $499 m0 *1 17.48,51.68
X$499 9 21 194 143 207 27 27 9 sky130_fd_sc_hd__dfrtp_1
* cell instance $500 m0 *1 26.68,51.68
X$500 27 165 181 132 217 27 9 9 sky130_fd_sc_hd__or3_1
* cell instance $502 m0 *1 29.44,51.68
X$502 27 181 132 188 90 212 27 9 9 sky130_fd_sc_hd__o211ai_1
* cell instance $503 m0 *1 32.2,51.68
X$503 27 203 208 200 210 27 9 9 sky130_fd_sc_hd__nand3_1
* cell instance $504 m0 *1 34.04,51.68
X$504 9 21 199 122 210 27 27 9 sky130_fd_sc_hd__dfrtp_1
* cell instance $507 m0 *1 47.38,51.68
X$507 9 21 206 122 190 27 27 9 sky130_fd_sc_hd__dfrtp_1
* cell instance $511 r0 *1 2.3,51.68
X$511 9 21 215 143 220 27 27 9 sky130_fd_sc_hd__dfrtp_1
* cell instance $514 r0 *1 13.8,51.68
X$514 27 201 154 211 27 9 9 sky130_fd_sc_hd__nand2_1
* cell instance $519 r0 *1 17.94,51.68
X$519 27 221 90 165 27 9 9 sky130_fd_sc_hd__nand2_1
* cell instance $520 r0 *1 19.32,51.68
X$520 9 21 218 143 216 27 27 9 sky130_fd_sc_hd__dfrtp_1
* cell instance $521 r0 *1 28.52,51.68
X$521 27 213 212 217 209 27 9 9 sky130_fd_sc_hd__nand3_1
* cell instance $522 r0 *1 30.36,51.68
X$522 27 188 154 213 27 9 9 sky130_fd_sc_hd__nand2_1
* cell instance $523 r0 *1 31.74,51.68
X$523 27 199 154 203 27 9 9 sky130_fd_sc_hd__nand2_1
* cell instance $525 r0 *1 33.58,51.68
X$525 9 21 188 122 209 27 27 9 sky130_fd_sc_hd__dfrtp_1
* cell instance $529 r0 *1 46.92,51.68
X$529 9 21 214 122 222 27 27 9 sky130_fd_sc_hd__dfrtp_1
* cell instance $531 r0 *1 56.58,51.68
X$531 27 206 204 9 27 9 sky130_fd_sc_hd__clkbuf_1
* cell instance $539 m0 *1 7.82,57.12
X$539 9 220 215 201 118 27 27 9 sky130_fd_sc_hd__mux2_1
* cell instance $540 m0 *1 11.96,57.12
X$540 27 215 224 9 27 9 sky130_fd_sc_hd__clkbuf_1
* cell instance $544 m0 *1 19.32,57.12
X$544 27 219 221 9 27 9 sky130_fd_sc_hd__clkbuf_1
* cell instance $547 m0 *1 22.08,57.12
X$547 9 216 218 194 118 27 27 9 sky130_fd_sc_hd__mux2_1
* cell instance $549 m0 *1 27.14,57.12
X$549 27 218 223 9 27 9 sky130_fd_sc_hd__clkbuf_1
* cell instance $560 m0 *1 47.84,57.12
X$560 9 222 214 199 118 27 27 9 sky130_fd_sc_hd__mux2_1
* cell instance $564 m0 *1 55.2,57.12
X$564 27 214 196 9 27 9 sky130_fd_sc_hd__clkbuf_1
.ENDS spi_master

* cell sky130_fd_sc_hd__dlymetal6s2s_1
* pin VGND
* pin X
* pin A
* pin VPWR
* pin VPB
* pin 
.SUBCKT sky130_fd_sc_hd__dlymetal6s2s_1 1 3 8 9 10 11
* net 1 VGND
* net 3 X
* net 8 A
* net 9 VPWR
* net 10 VPB
* device instance $1 r0 *1 3.655,2.275 pfet_01v8_hvt
M$1 6 5 9 10 pfet_01v8_hvt L=150000U W=420000U AS=140750000000P
+ AD=109200000000P PS=1325000U PD=1360000U
* device instance $2 r0 *1 4.13,1.985 pfet_01v8_hvt
M$2 7 6 9 10 pfet_01v8_hvt L=150000U W=1000000U AS=140750000000P
+ AD=260000000000P PS=1325000U PD=2520000U
* device instance $3 r0 *1 2.24,2.275 pfet_01v8_hvt
M$3 4 3 9 10 pfet_01v8_hvt L=150000U W=420000U AS=140750000000P
+ AD=109200000000P PS=1325000U PD=1360000U
* device instance $4 r0 *1 2.715,1.985 pfet_01v8_hvt
M$4 5 4 9 10 pfet_01v8_hvt L=150000U W=1000000U AS=140750000000P
+ AD=260000000000P PS=1325000U PD=2520000U
* device instance $5 r0 *1 0.645,2.275 pfet_01v8_hvt
M$5 2 8 9 10 pfet_01v8_hvt L=150000U W=420000U AS=140750000000P
+ AD=109200000000P PS=1325000U PD=1360000U
* device instance $6 r0 *1 1.12,1.985 pfet_01v8_hvt
M$6 3 2 9 10 pfet_01v8_hvt L=150000U W=1000000U AS=140750000000P
+ AD=260000000000P PS=1325000U PD=2520000U
* device instance $7 r0 *1 3.655,0.445 nfet_01v8
M$7 1 5 6 11 nfet_01v8 L=150000U W=420000U AS=109200000000P AD=97000000000P
+ PS=1360000U PD=975000U
* device instance $8 r0 *1 4.13,0.56 nfet_01v8
M$8 7 6 1 11 nfet_01v8 L=150000U W=650000U AS=97000000000P AD=169000000000P
+ PS=975000U PD=1820000U
* device instance $9 r0 *1 0.645,0.445 nfet_01v8
M$9 1 8 2 11 nfet_01v8 L=150000U W=420000U AS=109200000000P AD=97000000000P
+ PS=1360000U PD=975000U
* device instance $10 r0 *1 1.12,0.56 nfet_01v8
M$10 3 2 1 11 nfet_01v8 L=150000U W=650000U AS=97000000000P AD=169000000000P
+ PS=975000U PD=1820000U
* device instance $11 r0 *1 2.24,0.445 nfet_01v8
M$11 1 3 4 11 nfet_01v8 L=150000U W=420000U AS=109200000000P AD=97000000000P
+ PS=1360000U PD=975000U
* device instance $12 r0 *1 2.715,0.56 nfet_01v8
M$12 5 4 1 11 nfet_01v8 L=150000U W=650000U AS=97000000000P AD=169000000000P
+ PS=975000U PD=1820000U
.ENDS sky130_fd_sc_hd__dlymetal6s2s_1

* cell sky130_fd_sc_hd__a21oi_2
* pin VPB
* pin A1
* pin B1
* pin A2
* pin VPWR
* pin Y
* pin VGND
* pin 
.SUBCKT sky130_fd_sc_hd__a21oi_2 1 2 3 4 5 7 8 9
* net 1 VPB
* net 2 A1
* net 3 B1
* net 4 A2
* net 5 VPWR
* net 7 Y
* net 8 VGND
* device instance $1 r0 *1 0.49,1.985 pfet_01v8_hvt
M$1 5 4 6 1 pfet_01v8_hvt L=150000U W=2000000U AS=415000000000P
+ AD=275000000000P PS=3830000U PD=2550000U
* device instance $2 r0 *1 0.92,1.985 pfet_01v8_hvt
M$2 6 2 5 1 pfet_01v8_hvt L=150000U W=2000000U AS=280000000000P
+ AD=275000000000P PS=2560000U PD=2550000U
* device instance $5 r0 *1 2.19,1.985 pfet_01v8_hvt
M$5 7 3 6 1 pfet_01v8_hvt L=150000U W=2000000U AS=270000000000P
+ AD=495000000000P PS=2540000U PD=3990000U
* device instance $7 r0 *1 0.495,0.56 nfet_01v8
M$7 10 4 8 9 nfet_01v8 L=150000U W=650000U AS=185250000000P AD=89375000000P
+ PS=1870000U PD=925000U
* device instance $8 r0 *1 0.92,0.56 nfet_01v8
M$8 7 2 10 9 nfet_01v8 L=150000U W=650000U AS=89375000000P AD=91000000000P
+ PS=925000U PD=930000U
* device instance $9 r0 *1 1.35,0.56 nfet_01v8
M$9 11 2 7 9 nfet_01v8 L=150000U W=650000U AS=91000000000P AD=68250000000P
+ PS=930000U PD=860000U
* device instance $10 r0 *1 1.71,0.56 nfet_01v8
M$10 8 4 11 9 nfet_01v8 L=150000U W=650000U AS=68250000000P AD=107250000000P
+ PS=860000U PD=980000U
* device instance $11 r0 *1 2.19,0.56 nfet_01v8
M$11 7 3 8 9 nfet_01v8 L=150000U W=1300000U AS=195000000000P AD=347750000000P
+ PS=1900000U PD=3020000U
.ENDS sky130_fd_sc_hd__a21oi_2

* cell sky130_fd_sc_hd__clkinv_2
* pin VPB
* pin A
* pin VPWR
* pin VGND
* pin 
.SUBCKT sky130_fd_sc_hd__clkinv_2 1 2 4 5 6
* net 1 VPB
* net 2 A
* net 3 Y
* net 4 VPWR
* net 5 VGND
* device instance $1 r0 *1 0.495,1.985 pfet_01v8_hvt
M$1 4 2 3 1 pfet_01v8_hvt L=150000U W=3000000U AS=545000000000P
+ AD=545000000000P PS=5090000U PD=5090000U
* device instance $4 r0 *1 0.94,0.445 nfet_01v8
M$4 3 2 5 6 nfet_01v8 L=150000U W=840000U AS=170100000000P AD=168000000000P
+ PS=2070000U PD=2060000U
.ENDS sky130_fd_sc_hd__clkinv_2

* cell sky130_fd_sc_hd__mux2i_1
* pin VGND
* pin Y
* pin A0
* pin A1
* pin S
* pin VPWR
* pin VPB
* pin 
.SUBCKT sky130_fd_sc_hd__mux2i_1 1 3 6 7 8 10 11 13
* net 1 VGND
* net 3 Y
* net 6 A0
* net 7 A1
* net 8 S
* net 10 VPWR
* net 11 VPB
* device instance $1 r0 *1 3.21,1.985 pfet_01v8_hvt
M$1 10 8 5 11 pfet_01v8_hvt L=150000U W=1000000U AS=290000000000P
+ AD=260000000000P PS=2580000U PD=2520000U
* device instance $2 r0 *1 0.49,1.985 pfet_01v8_hvt
M$2 3 6 9 11 pfet_01v8_hvt L=150000U W=1000000U AS=280000000000P
+ AD=152500000000P PS=2560000U PD=1305000U
* device instance $3 r0 *1 0.945,1.985 pfet_01v8_hvt
M$3 12 7 3 11 pfet_01v8_hvt L=150000U W=1000000U AS=152500000000P
+ AD=197500000000P PS=1305000U PD=1395000U
* device instance $4 r0 *1 1.49,1.985 pfet_01v8_hvt
M$4 10 5 12 11 pfet_01v8_hvt L=150000U W=1000000U AS=197500000000P
+ AD=300000000000P PS=1395000U PD=1600000U
* device instance $5 r0 *1 2.24,1.985 pfet_01v8_hvt
M$5 9 8 10 11 pfet_01v8_hvt L=150000U W=1000000U AS=300000000000P
+ AD=260000000000P PS=1600000U PD=2520000U
* device instance $6 r0 *1 3.21,0.56 nfet_01v8
M$6 1 8 5 13 nfet_01v8 L=150000U W=650000U AS=169000000000P AD=169000000000P
+ PS=1820000U PD=1820000U
* device instance $7 r0 *1 1.85,0.56 nfet_01v8
M$7 1 5 2 13 nfet_01v8 L=150000U W=650000U AS=169000000000P AD=87750000000P
+ PS=1820000U PD=920000U
* device instance $8 r0 *1 2.27,0.56 nfet_01v8
M$8 4 8 1 13 nfet_01v8 L=150000U W=650000U AS=87750000000P AD=169000000000P
+ PS=920000U PD=1820000U
* device instance $9 r0 *1 0.47,0.56 nfet_01v8
M$9 3 6 2 13 nfet_01v8 L=150000U W=650000U AS=169000000000P AD=87750000000P
+ PS=1820000U PD=920000U
* device instance $10 r0 *1 0.89,0.56 nfet_01v8
M$10 4 7 3 13 nfet_01v8 L=150000U W=650000U AS=87750000000P AD=182000000000P
+ PS=920000U PD=1860000U
.ENDS sky130_fd_sc_hd__mux2i_1

* cell sky130_fd_sc_hd__dfstp_1
* pin VGND
* pin SET_B
* pin Q
* pin CLK
* pin D
* pin VPB
* pin VPWR
* pin 
.SUBCKT sky130_fd_sc_hd__dfstp_1 1 6 11 17 18 19 20 24
* net 1 VGND
* net 6 SET_B
* net 11 Q
* net 17 CLK
* net 18 D
* net 19 VPB
* net 20 VPWR
* device instance $1 r0 *1 6.925,2.275 pfet_01v8_hvt
M$1 8 6 20 19 pfet_01v8_hvt L=150000U W=420000U AS=122850000000P
+ AD=109200000000P PS=1170000U PD=1360000U
* device instance $2 r0 *1 7.405,2.065 pfet_01v8_hvt
M$2 9 8 20 19 pfet_01v8_hvt L=150000U W=840000U AS=122850000000P
+ AD=218400000000P PS=1170000U PD=2200000U
* device instance $3 r0 *1 0.47,2.135 pfet_01v8_hvt
M$3 20 17 2 19 pfet_01v8_hvt L=150000U W=640000U AS=166400000000P
+ AD=86400000000P PS=1800000U PD=910000U
* device instance $4 r0 *1 0.89,2.135 pfet_01v8_hvt
M$4 3 2 20 19 pfet_01v8_hvt L=150000U W=640000U AS=86400000000P
+ AD=166400000000P PS=910000U PD=1800000U
* device instance $5 r0 *1 1.83,2.065 pfet_01v8_hvt
M$5 4 18 20 19 pfet_01v8_hvt L=150000U W=840000U AS=218400000000P
+ AD=124950000000P PS=2200000U PD=1175000U
* device instance $6 r0 *1 2.315,2.275 pfet_01v8_hvt
M$6 5 3 4 19 pfet_01v8_hvt L=150000U W=420000U AS=124950000000P AD=56700000000P
+ PS=1175000U PD=690000U
* device instance $7 r0 *1 2.735,2.275 pfet_01v8_hvt
M$7 21 2 5 19 pfet_01v8_hvt L=150000U W=420000U AS=56700000000P AD=94500000000P
+ PS=690000U PD=870000U
* device instance $8 r0 *1 3.335,2.275 pfet_01v8_hvt
M$8 20 7 21 19 pfet_01v8_hvt L=150000U W=420000U AS=94500000000P
+ AD=79800000000P PS=870000U PD=800000U
* device instance $9 r0 *1 3.865,2.275 pfet_01v8_hvt
M$9 7 6 20 19 pfet_01v8_hvt L=150000U W=420000U AS=79800000000P AD=56700000000P
+ PS=800000U PD=690000U
* device instance $10 r0 *1 4.285,2.275 pfet_01v8_hvt
M$10 20 5 7 19 pfet_01v8_hvt L=150000U W=420000U AS=56700000000P
+ AD=56700000000P PS=690000U PD=690000U
* device instance $11 r0 *1 4.705,2.275 pfet_01v8_hvt
M$11 22 5 20 19 pfet_01v8_hvt L=150000U W=420000U AS=56700000000P
+ AD=48300000000P PS=690000U PD=650000U
* device instance $12 r0 *1 5.085,2.275 pfet_01v8_hvt
M$12 8 2 22 19 pfet_01v8_hvt L=150000U W=420000U AS=48300000000P
+ AD=81900000000P PS=650000U PD=810000U
* device instance $13 r0 *1 5.625,2.275 pfet_01v8_hvt
M$13 23 3 8 19 pfet_01v8_hvt L=150000U W=420000U AS=81900000000P
+ AD=44100000000P PS=810000U PD=630000U
* device instance $14 r0 *1 5.985,2.275 pfet_01v8_hvt
M$14 20 9 23 19 pfet_01v8_hvt L=150000U W=420000U AS=44100000000P
+ AD=109200000000P PS=630000U PD=1360000U
* device instance $15 r0 *1 8.345,2.165 pfet_01v8_hvt
M$15 10 8 20 19 pfet_01v8_hvt L=150000U W=640000U AS=149000000000P
+ AD=166400000000P PS=1325000U PD=1800000U
* device instance $16 r0 *1 8.82,1.985 pfet_01v8_hvt
M$16 11 10 20 19 pfet_01v8_hvt L=150000U W=1000000U AS=149000000000P
+ AD=260000000000P PS=1325000U PD=2520000U
* device instance $17 r0 *1 8.345,0.445 nfet_01v8
M$17 1 8 10 24 nfet_01v8 L=150000U W=420000U AS=109200000000P AD=97000000000P
+ PS=1360000U PD=975000U
* device instance $18 r0 *1 8.82,0.56 nfet_01v8
M$18 11 10 1 24 nfet_01v8 L=150000U W=650000U AS=97000000000P AD=169000000000P
+ PS=975000U PD=1820000U
* device instance $19 r0 *1 2.305,0.415 nfet_01v8
M$19 5 2 4 24 nfet_01v8 L=150000U W=360000U AS=93500000000P AD=72000000000P
+ PS=965000U PD=760000U
* device instance $20 r0 *1 2.855,0.415 nfet_01v8
M$20 14 3 5 24 nfet_01v8 L=150000U W=360000U AS=72000000000P AD=67050000000P
+ PS=760000U PD=750000U
* device instance $21 r0 *1 3.335,0.445 nfet_01v8
M$21 1 7 14 24 nfet_01v8 L=150000U W=420000U AS=67050000000P AD=88200000000P
+ PS=750000U PD=840000U
* device instance $22 r0 *1 3.905,0.445 nfet_01v8
M$22 16 6 1 24 nfet_01v8 L=150000U W=420000U AS=88200000000P AD=44100000000P
+ PS=840000U PD=630000U
* device instance $23 r0 *1 4.265,0.445 nfet_01v8
M$23 7 5 16 24 nfet_01v8 L=150000U W=420000U AS=44100000000P AD=109200000000P
+ PS=630000U PD=1360000U
* device instance $24 r0 *1 1.83,0.555 nfet_01v8
M$24 4 18 1 24 nfet_01v8 L=150000U W=640000U AS=166400000000P AD=93500000000P
+ PS=1800000U PD=965000U
* device instance $25 r0 *1 0.47,0.445 nfet_01v8