
* cell radix4_booth_multiplier
* pin product[15]
* pin product[13]
* pin start
* pin done
* pin rst_n
* pin product[14]
* pin product[10]
* pin product[11]
* pin product[12]
* pin product[9]
* pin product[8]
* pin product[7]
* pin product[6]
* pin multiplier[6]
* pin multiplier[5]
* pin clk
* pin multiplicand[6]
* pin product[5]
* pin multiplier[4]
* pin multiplicand[5]
* pin product[4]
* pin multiplicand[4]
* pin multiplicand[7]
* pin product[3]
* pin multiplicand[1]
* pin multiplier[3]
* pin multiplicand[0]
* pin multiplier[7]
* pin multiplier[2]
* pin multiplicand[2]
* pin multiplicand[3]
* pin product[2]
* pin multiplier[0]
* pin multiplier[1]
* pin product[1]
* pin product[0]
.SUBCKT radix4_booth_multiplier 1 2 3 4 5 6 45 93 94 132 146 210 267 283 316
+ 322 338 344 374 391 413 423 436 449 485 492 502 503 504 505 506 507 508 509
+ 510 511
* net 1 product[15]
* net 2 product[13]
* net 3 start
* net 4 done
* net 5 rst_n
* net 6 product[14]
* net 45 product[10]
* net 93 product[11]
* net 94 product[12]
* net 132 product[9]
* net 146 product[8]
* net 210 product[7]
* net 267 product[6]
* net 283 multiplier[6]
* net 316 multiplier[5]
* net 322 clk
* net 338 multiplicand[6]
* net 344 product[5]
* net 374 multiplier[4]
* net 391 multiplicand[5]
* net 413 product[4]
* net 423 multiplicand[4]
* net 436 multiplicand[7]
* net 449 product[3]
* net 485 multiplicand[1]
* net 492 multiplier[3]
* net 502 multiplicand[0]
* net 503 multiplier[7]
* net 504 multiplier[2]
* net 505 multiplicand[2]
* net 506 multiplicand[3]
* net 507 product[2]
* net 508 multiplier[0]
* net 509 multiplier[1]
* net 510 product[1]
* net 511 product[0]
* cell instance $3 r0 *1 39.1,2.72
X$3 22 12 1 8 22 8 sky130_fd_sc_hd__clkbuf_1
* cell instance $6 m0 *1 53.82,8.16
X$6 22 35 2 8 22 8 sky130_fd_sc_hd__clkbuf_1
* cell instance $9 r0 *1 57.04,2.72
X$9 22 3 14 8 22 8 sky130_fd_sc_hd__clkbuf_1
* cell instance $12 r0 *1 58.42,2.72
X$12 22 15 4 8 22 8 sky130_fd_sc_hd__clkbuf_1
* cell instance $14 m0 *1 72.68,8.16
X$14 22 5 22 16 8 8 sky130_fd_sc_hd__dlygate4sd3_1
* cell instance $18 r0 *1 68.08,2.72
X$18 22 18 6 8 22 8 sky130_fd_sc_hd__clkbuf_1
* cell instance $21 r0 *1 29.9,2.72
X$21 8 10 12 19 7 22 22 8 sky130_fd_sc_hd__dfrtp_1
* cell instance $23 r0 *1 33.58,8.16
X$23 22 38 65 20 34 8 22 7 8 sky130_fd_sc_hd__a31oi_1
* cell instance $39 r0 *1 11.96,2.72
X$39 22 49 17 29 22 8 8 sky130_fd_sc_hd__xnor2_1
* cell instance $53 r0 *1 43.24,2.72
X$53 8 10 13 19 11 22 22 8 sky130_fd_sc_hd__dfrtp_1
* cell instance $54 r0 *1 52.44,2.72
X$54 8 9 13 14 22 22 8 sky130_fd_sc_hd__nand2b_2
* cell instance $57 r0 *1 59.8,2.72
X$57 22 15 9 30 22 8 8 sky130_fd_sc_hd__nand2_1
* cell instance $66 r0 *1 71.76,2.72
X$66 8 16 10 22 22 8 sky130_fd_sc_hd__buf_12
* cell instance $76 m0 *1 5.06,8.16
X$76 8 27 514 36 41 22 22 8 sky130_fd_sc_hd__ha_1
* cell instance $78 m0 *1 10.58,8.16
X$78 22 29 28 79 22 8 8 sky130_fd_sc_hd__xnor2_1
* cell instance $79 m0 *1 13.8,8.16
X$79 8 17 53 31 23 32 22 22 8 sky130_fd_sc_hd__fa_1
* cell instance $87 m0 *1 35.42,8.16
X$87 22 12 20 34 8 22 8 sky130_fd_sc_hd__nor2_1
* cell instance $88 m0 *1 36.8,8.16
X$88 8 10 24 19 20 22 22 8 sky130_fd_sc_hd__dfrtp_2
* cell instance $89 m0 *1 46.46,8.16
X$89 8 24 9 37 22 22 8 sky130_fd_sc_hd__nor2_8
* cell instance $90 m0 *1 55.2,8.16
X$90 22 24 22 8 21 8 sky130_fd_sc_hd__inv_1
* cell instance $92 m0 *1 57.04,8.16
X$92 8 8 13 25 21 22 22 sky130_fd_sc_hd__nand2_2
* cell instance $93 m0 *1 59.34,8.16
X$93 22 21 13 30 22 33 8 8 sky130_fd_sc_hd__o21ai_0
* cell instance $96 m0 *1 63.94,8.16
X$96 22 25 22 8 26 8 sky130_fd_sc_hd__inv_1
* cell instance $97 m0 *1 65.32,8.16
X$97 22 26 8 20 22 8 sky130_fd_sc_hd__clkbuf_4
* cell instance $103 r0 *1 5.06,8.16
X$103 8 78 48 36 46 41 22 22 8 sky130_fd_sc_hd__fa_1
* cell instance $106 r0 *1 13.8,8.16
X$106 22 48 22 8 23 8 sky130_fd_sc_hd__inv_1
* cell instance $110 r0 *1 16.56,8.16
X$110 22 47 22 8 51 8 sky130_fd_sc_hd__inv_1
* cell instance $111 r0 *1 17.94,8.16
X$111 8 49 54 52 53 51 22 22 8 sky130_fd_sc_hd__fa_1
* cell instance $112 r0 *1 25.3,8.16
X$112 22 54 22 8 55 8 sky130_fd_sc_hd__inv_1
* cell instance $114 r0 *1 27.14,8.16
X$114 8 57 84 55 56 22 22 8 sky130_fd_sc_hd__ha_2
* cell instance $125 r0 *1 51.52,8.16
X$125 8 10 15 19 33 22 22 8 sky130_fd_sc_hd__dfrtp_1
* cell instance $126 r0 *1 60.72,8.16
X$126 8 10 18 44 40 22 22 8 sky130_fd_sc_hd__dfrtp_1
* cell instance $131 r0 *1 71.3,8.16
X$131 8 10 39 44 50 22 22 8 sky130_fd_sc_hd__dfrtp_1
* cell instance $132 r0 *1 80.5,8.16
X$132 22 39 45 8 22 8 sky130_fd_sc_hd__clkbuf_1
* cell instance $142 m0 *1 4.6,13.6
X$142 22 27 78 22 28 8 8 sky130_fd_sc_hd__xor2_1
* cell instance $145 m0 *1 10.58,13.6
X$145 22 80 22 8 66 8 sky130_fd_sc_hd__inv_1
* cell instance $147 m0 *1 12.88,13.6
X$147 22 64 79 42 22 8 8 sky130_fd_sc_hd__xnor2_1
* cell instance $149 m0 *1 17.02,13.6
X$149 22 31 22 8 81 8 sky130_fd_sc_hd__inv_1
* cell instance $150 m0 *1 18.4,13.6
X$150 8 52 83 31 66 32 22 22 8 sky130_fd_sc_hd__fa_1
* cell instance $152 m0 *1 26.22,13.6
X$152 22 82 22 8 56 8 sky130_fd_sc_hd__inv_1
* cell instance $158 m0 *1 32.2,13.6
X$158 22 84 57 86 8 22 43 8 sky130_fd_sc_hd__a21oi_1
* cell instance $159 m0 *1 34.04,13.6
X$159 8 65 43 58 68 42 22 22 8 sky130_fd_sc_hd__a31o_1
* cell instance $160 m0 *1 37.26,13.6
X$160 22 58 42 68 43 22 38 8 8 sky130_fd_sc_hd__nand4_1
* cell instance $164 m0 *1 42.78,13.6
X$164 8 10 35 19 87 22 22 8 sky130_fd_sc_hd__dfrtp_1
* cell instance $168 m0 *1 55.2,13.6
X$168 22 57 72 59 8 22 8 sky130_fd_sc_hd__nor2_1
* cell instance $170 m0 *1 57.04,13.6
X$170 22 25 89 75 8 22 8 sky130_fd_sc_hd__nor2_1
* cell instance $171 m0 *1 58.42,13.6
X$171 8 62 59 63 85 22 22 8 sky130_fd_sc_hd__mux2i_1
* cell instance $172 m0 *1 62.1,13.6
X$172 22 62 71 75 76 40 8 22 8 sky130_fd_sc_hd__o22ai_1
* cell instance $174 m0 *1 65.32,13.6
X$174 22 18 26 76 8 22 8 sky130_fd_sc_hd__nor2_1
* cell instance $178 m0 *1 69.92,13.6
X$178 22 60 111 61 22 50 8 8 sky130_fd_sc_hd__o21ai_0
* cell instance $179 m0 *1 71.76,13.6
X$179 22 39 60 61 22 8 8 sky130_fd_sc_hd__nand2_1
* cell instance $186 r0 *1 5.98,13.6
X$186 8 41 67 113 95 22 22 8 sky130_fd_sc_hd__ha_1
* cell instance $188 r0 *1 11.5,13.6
X$188 22 96 67 64 22 8 8 sky130_fd_sc_hd__xnor2_1
* cell instance $194 r0 *1 15.64,13.6
X$194 8 96 515 81 97 22 22 8 sky130_fd_sc_hd__ha_1
* cell instance $195 r0 *1 20.24,13.6
X$195 22 32 22 8 97 8 sky130_fd_sc_hd__inv_1
* cell instance $196 r0 *1 21.62,13.6
X$196 8 82 99 90 83 122 22 22 8 sky130_fd_sc_hd__fa_1
* cell instance $198 r0 *1 29.9,13.6
X$198 22 99 22 8 100 8 sky130_fd_sc_hd__inv_1
* cell instance $199 r0 *1 31.28,13.6
X$199 8 69 86 100 101 22 22 8 sky130_fd_sc_hd__ha_1
* cell instance $208 r0 *1 43.24,13.6
X$208 22 102 88 70 87 22 8 8 sky130_fd_sc_hd__nand3_1
* cell instance $209 r0 *1 45.08,13.6
X$209 22 69 25 114 109 22 102 8 8 sky130_fd_sc_hd__a211o_1
* cell instance $211 r0 *1 50.14,13.6
X$211 22 35 71 70 22 8 8 sky130_fd_sc_hd__nand2_1
* cell instance $214 r0 *1 54.28,13.6
X$214 22 57 72 92 22 8 8 sky130_fd_sc_hd__nand2_1
* cell instance $215 r0 *1 55.66,13.6
X$215 8 89 92 57 73 22 22 8 sky130_fd_sc_hd__mux2i_1
* cell instance $216 r0 *1 59.34,13.6
X$216 22 74 73 63 8 22 8 sky130_fd_sc_hd__nor2_1
* cell instance $217 r0 *1 60.72,13.6
X$217 22 57 22 8 74 8 sky130_fd_sc_hd__inv_1
* cell instance $219 r0 *1 63.02,13.6
X$219 22 25 8 71 22 8 sky130_fd_sc_hd__clkbuf_4
* cell instance $222 r0 *1 68.54,13.6
X$222 22 25 8 60 22 8 sky130_fd_sc_hd__buf_2
* cell instance $228 r0 *1 72.68,13.6
X$228 22 77 60 98 22 8 8 sky130_fd_sc_hd__nand2_1
* cell instance $232 r0 *1 80.5,13.6
X$232 22 77 94 8 22 8 sky130_fd_sc_hd__clkbuf_1
* cell instance $234 m0 *1 3.22,19.04
X$234 8 47 80 119 36 171 22 22 8 sky130_fd_sc_hd__fa_1
* cell instance $236 m0 *1 11.5,19.04
X$236 22 104 22 8 90 8 sky130_fd_sc_hd__inv_1
* cell instance $240 m0 *1 18.86,19.04
X$240 8 32 165 112 31 105 22 22 8 sky130_fd_sc_hd__fa_4
* cell instance $243 m0 *1 31.28,19.04
X$243 22 124 22 8 101 8 sky130_fd_sc_hd__inv_1
* cell instance $246 m0 *1 38.18,19.04
X$246 22 69 57 125 58 22 8 8 sky130_fd_sc_hd__nand3_1
* cell instance $247 m0 *1 40.02,19.04
X$247 22 86 69 108 8 22 91 8 sky130_fd_sc_hd__a21oi_1
* cell instance $248 m0 *1 41.86,19.04
X$248 22 110 106 107 8 22 8 sky130_fd_sc_hd__nor2b_1
* cell instance $249 m0 *1 44.16,19.04
X$249 22 108 107 109 8 22 8 sky130_fd_sc_hd__nor2_1
* cell instance $251 m0 *1 46,19.04
X$251 22 114 69 20 109 22 88 8 8 sky130_fd_sc_hd__nand4_1
* cell instance $253 m0 *1 48.76,19.04
X$253 22 106 69 103 22 8 8 sky130_fd_sc_hd__nand2_1
* cell instance $254 m0 *1 50.14,19.04
X$254 22 110 91 103 22 8 73 8 sky130_fd_sc_hd__o21ai_1
* cell instance $259 m0 *1 60.72,19.04
X$259 22 85 115 22 111 8 8 sky130_fd_sc_hd__xor2_1
* cell instance $262 m0 *1 69.46,19.04
X$262 22 121 93 8 22 8 sky130_fd_sc_hd__clkbuf_1
* cell instance $263 m0 *1 70.84,19.04
X$263 22 60 118 98 22 120 8 8 sky130_fd_sc_hd__o21ai_0
* cell instance $264 m0 *1 72.68,19.04
X$264 8 10 77 44 120 22 22 8 sky130_fd_sc_hd__dfrtp_1
* cell instance $268 r0 *1 4.6,19.04
X$268 8 119 46 133 113 22 22 8 sky130_fd_sc_hd__ha_1
* cell instance $277 r0 *1 16.56,19.04
X$277 8 122 151 31 135 161 22 22 8 sky130_fd_sc_hd__fa_1
* cell instance $280 r0 *1 29.44,19.04
X$280 22 137 22 8 139 8 sky130_fd_sc_hd__inv_1
* cell instance $281 r0 *1 30.82,19.04
X$281 8 123 108 139 138 22 22 8 sky130_fd_sc_hd__ha_1
* cell instance $282 r0 *1 35.42,19.04
X$282 22 123 22 8 106 8 sky130_fd_sc_hd__clkbuf_2
* cell instance $285 r0 *1 38.64,19.04
X$285 22 106 140 108 8 22 125 8 sky130_fd_sc_hd__a21o_1
* cell instance $294 r0 *1 45.54,19.04
X$294 22 106 128 115 117 116 22 114 8 8 sky130_fd_sc_hd__o2111ai_1
* cell instance $295 r0 *1 48.76,19.04
X$295 22 69 128 106 57 22 153 8 8 sky130_fd_sc_hd__nand4_1
* cell instance $297 r0 *1 51.52,19.04
X$297 22 106 115 128 69 22 72 8 8 sky130_fd_sc_hd__nand4_1
* cell instance $298 r0 *1 53.82,19.04
X$298 22 115 117 116 22 142 8 8 sky130_fd_sc_hd__o21a_1
* cell instance $299 r0 *1 56.58,19.04
X$299 22 180 106 22 118 8 8 sky130_fd_sc_hd__xor2_1
* cell instance $300 r0 *1 59.8,19.04
X$300 22 121 71 136 22 8 8 sky130_fd_sc_hd__nand2_1
* cell instance $309 r0 *1 71.3,19.04
X$309 8 10 131 44 134 22 22 8 sky130_fd_sc_hd__dfrtp_1
* cell instance $310 r0 *1 80.5,19.04
X$310 22 131 132 8 22 8 sky130_fd_sc_hd__clkbuf_1
* cell instance $314 m0 *1 9.66,24.48
X$314 22 147 22 8 135 8 sky130_fd_sc_hd__inv_1
* cell instance $315 m0 *1 11.04,24.48
X$315 8 36 126 143 164 163 22 22 8 sky130_fd_sc_hd__fa_2
* cell instance $316 m0 *1 19.32,24.48
X$316 22 143 22 8 112 8 sky130_fd_sc_hd__inv_1
* cell instance $318 m0 *1 21.62,24.48
X$318 8 124 137 149 150 151 22 22 8 sky130_fd_sc_hd__fa_1
* cell instance $321 m0 *1 29.9,24.48
X$321 22 152 22 8 138 8 sky130_fd_sc_hd__inv_1
* cell instance $325 m0 *1 40.48,24.48
X$325 22 140 128 127 8 22 110 8 sky130_fd_sc_hd__a21oi_1
* cell instance $326 m0 *1 42.32,24.48
X$326 22 19 22 8 8 sky130_fd_sc_hd__inv_6
* cell instance $327 m0 *1 45.54,24.48
X$327 22 116 127 117 144 22 8 68 8 sky130_fd_sc_hd__o31ai_1
* cell instance $328 m0 *1 48.3,24.48
X$328 22 153 129 144 8 22 8 sky130_fd_sc_hd__nor2_1
* cell instance $329 m0 *1 49.68,24.48
X$329 22 115 127 129 8 22 8 sky130_fd_sc_hd__nor2_1
* cell instance $331 m0 *1 51.98,24.48
X$331 22 128 142 127 22 145 8 8 sky130_fd_sc_hd__o21a_1
* cell instance $332 m0 *1 54.74,24.48
X$332 22 128 127 142 141 8 22 8 sky130_fd_sc_hd__nor3_1
* cell instance $334 m0 *1 57.04,24.48
X$334 22 25 141 145 136 22 8 130 8 sky130_fd_sc_hd__o31ai_1
* cell instance $335 m0 *1 59.8,24.48
X$335 8 10 121 44 130 22 22 8 sky130_fd_sc_hd__dfrtp_1
* cell instance $338 m0 *1 71.76,24.48
X$338 22 131 60 148 8 22 134 8 sky130_fd_sc_hd__a21o_1
* cell instance $343 r0 *1 2.76,24.48
X$343 8 104 147 173 172 217 22 22 8 sky130_fd_sc_hd__fa_1
* cell instance $344 r0 *1 10.12,24.48
X$344 22 162 176 95 8 22 8 sky130_fd_sc_hd__nor2_1
* cell instance $346 r0 *1 12.42,24.48
X$346 22 186 220 177 22 8 8 sky130_fd_sc_hd__and2_0
* cell instance $351 r0 *1 17.48,24.48
X$351 22 178 22 8 150 8 sky130_fd_sc_hd__inv_1
* cell instance $354 r0 *1 20.24,24.48
X$354 8 161 199 179 105 165 22 22 8 sky130_fd_sc_hd__fa_1
* cell instance $357 r0 *1 34.96,24.48
X$357 22 184 22 8 185 8 sky130_fd_sc_hd__inv_1
* cell instance $359 r0 *1 36.8,24.48
X$359 8 154 140 185 183 22 22 8 sky130_fd_sc_hd__ha_1
* cell instance $364 r0 *1 43.24,24.48
X$364 8 155 19 22 22 8 sky130_fd_sc_hd__clkbuf_8
* cell instance $365 r0 *1 48.3,24.48
X$365 22 154 22 8 128 8 sky130_fd_sc_hd__clkbuf_2
* cell instance $366 r0 *1 50.14,24.48
X$366 22 115 128 116 166 22 8 8 sky130_fd_sc_hd__nand3_1
* cell instance $367 r0 *1 51.98,24.48
X$367 22 110 166 156 22 8 8 sky130_fd_sc_hd__nand2_1
* cell instance $369 r0 *1 54.28,24.48
X$369 8 115 157 160 128 22 22 8 sky130_fd_sc_hd__and3_1
* cell instance $370 r0 *1 56.58,24.48
X$370 22 156 158 157 8 22 180 8 sky130_fd_sc_hd__a21oi_1
* cell instance $373 r0 *1 61.18,24.48
X$373 22 116 160 158 8 22 85 8 sky130_fd_sc_hd__a21oi_1
* cell instance $374 r0 *1 63.02,24.48
X$374 22 160 167 159 8 22 8 sky130_fd_sc_hd__nor2_1
* cell instance $376 r0 *1 65.32,24.48
X$376 22 159 175 25 117 8 148 22 8 sky130_fd_sc_hd__a211oi_1
* cell instance $382 r0 *1 72.68,24.48
X$382 8 10 194 44 174 22 22 8 sky130_fd_sc_hd__dfrtp_1
* cell instance $390 m0 *1 2.3,29.92
X$390 8 172 171 193 195 22 22 8 sky130_fd_sc_hd__ha_1
* cell instance $391 m0 *1 6.9,29.92
X$391 22 186 176 133 8 22 8 sky130_fd_sc_hd__nor2_1
* cell instance $392 m0 *1 8.28,29.92
X$392 22 187 162 113 22 8 8 sky130_fd_sc_hd__and2_0
* cell instance $394 m0 *1 11.04,29.92
X$394 8 173 197 177 163 164 22 22 8 sky130_fd_sc_hd__fa_1
* cell instance $396 m0 *1 18.86,29.92
X$396 22 197 22 8 179 8 sky130_fd_sc_hd__inv_1
* cell instance $399 m0 *1 21.62,29.92
X$399 8 149 201 198 181 199 22 22 8 sky130_fd_sc_hd__fa_1
* cell instance $401 m0 *1 29.44,29.92
X$401 8 152 200 201 182 202 22 22 8 sky130_fd_sc_hd__fa_1
* cell instance $403 m0 *1 37.26,29.92
X$403 22 200 22 8 183 8 sky130_fd_sc_hd__inv_1
* cell instance $405 m0 *1 39.56,29.92
X$405 22 203 22 8 204 8 sky130_fd_sc_hd__inv_1
* cell instance $406 m0 *1 40.94,29.92
X$406 8 115 127 205 204 22 22 8 sky130_fd_sc_hd__ha_2
* cell instance $407 m0 *1 46.46,29.92
X$407 8 160 116 230 206 22 22 8 sky130_fd_sc_hd__ha_1
* cell instance $409 m0 *1 52.9,29.92
X$409 22 44 22 8 512 8 sky130_fd_sc_hd__clkinvlp_4
* cell instance $415 m0 *1 60.26,29.92
X$415 22 160 167 192 22 190 8 8 sky130_fd_sc_hd__o21a_1
* cell instance $416 m0 *1 63.02,29.92
X$416 8 117 169 167 168 190 22 22 8 sky130_fd_sc_hd__o31a_1
* cell instance $417 m0 *1 66.24,29.92
X$417 22 169 168 192 22 175 8 8 sky130_fd_sc_hd__o21ai_0
* cell instance $419 m0 *1 68.54,29.92
X$419 22 191 192 22 170 8 8 sky130_fd_sc_hd__xor2_1
* cell instance $422 m0 *1 73.14,29.92
X$422 22 60 170 196 22 174 8 8 sky130_fd_sc_hd__o21ai_0
* cell instance $423 m0 *1 74.98,29.92
X$423 22 194 60 196 22 8 8 sky130_fd_sc_hd__nand2_1
* cell instance $426 m0 *1 80.5,29.92
X$426 22 194 146 8 22 8 sky130_fd_sc_hd__clkbuf_1
* cell instance $429 r0 *1 3.68,29.92
X$429 22 186 187 193 22 8 8 sky130_fd_sc_hd__and2_0
* cell instance $431 r0 *1 6.9,29.92
X$431 22 233 176 195 8 22 8 sky130_fd_sc_hd__nor2_1
* cell instance $433 r0 *1 11.96,29.92
X$433 22 220 162 126 22 8 8 sky130_fd_sc_hd__and2_0
* cell instance $437 r0 *1 15.64,29.92
X$437 22 188 162 164 22 8 8 sky130_fd_sc_hd__and2_1
* cell instance $439 r0 *1 19.78,29.92
X$439 22 213 22 8 181 8 sky130_fd_sc_hd__inv_1
* cell instance $441 r0 *1 21.62,29.92
X$441 8 198 228 243 105 165 22 22 8 sky130_fd_sc_hd__fa_1
* cell instance $442 r0 *1 28.98,29.92
X$442 8 202 231 229 228 214 22 22 8 sky130_fd_sc_hd__fa_1
* cell instance $449 r0 *1 45.08,29.92
X$449 22 215 22 8 206 8 sky130_fd_sc_hd__inv_1
* cell instance $453 r0 *1 52.9,29.92
X$453 8 155 44 22 22 8 sky130_fd_sc_hd__clkbuf_8
* cell instance $454 r0 *1 57.96,29.92
X$454 8 192 167 223 227 22 22 8 sky130_fd_sc_hd__ha_1
* cell instance $456 r0 *1 63.48,29.92
X$456 22 167 254 189 22 8 158 8 sky130_fd_sc_hd__o21bai_1
* cell instance $457 r0 *1 66.24,29.92
X$457 22 207 169 192 22 189 8 8 sky130_fd_sc_hd__o21ai_0
* cell instance $458 r0 *1 68.08,29.92
X$458 22 208 207 168 8 22 8 sky130_fd_sc_hd__nor2b_1
* cell instance $461 r0 *1 70.84,29.92
X$461 22 208 207 22 212 8 8 sky130_fd_sc_hd__xor2_1
* cell instance $462 r0 *1 74.06,29.92
X$462 22 60 212 211 22 219 8 8 sky130_fd_sc_hd__o21ai_0
* cell instance $463 r0 *1 75.9,29.92
X$463 22 209 60 211 22 8 8 sky130_fd_sc_hd__nand2_1
* cell instance $467 r0 *1 80.5,29.92
X$467 22 209 210 8 22 8 sky130_fd_sc_hd__clkbuf_1
* cell instance $477 m0 *1 4.6,35.36
X$477 8 216 217 218 251 22 22 8 sky130_fd_sc_hd__ha_1
* cell instance $479 m0 *1 10.12,35.36
X$479 8 178 213 236 221 216 22 22 8 sky130_fd_sc_hd__fa_1
* cell instance $480 m0 *1 17.48,35.36
X$480 22 186 188 222 22 8 8 sky130_fd_sc_hd__and2_0
* cell instance $484 m0 *1 26.22,35.36
X$484 22 224 22 8 182 8 sky130_fd_sc_hd__inv_1
* cell instance $490 m0 *1 31.74,35.36
X$490 22 225 22 8 229 8 sky130_fd_sc_hd__inv_1
* cell instance $493 m0 *1 34.5,35.36
X$493 8 184 232 231 304 246 22 22 8 sky130_fd_sc_hd__fa_1
* cell instance $494 m0 *1 41.86,35.36
X$494 22 232 22 8 205 8 sky130_fd_sc_hd__inv_1
* cell instance $497 m0 *1 47.38,35.36
X$497 8 230 227 244 241 256 22 22 8 sky130_fd_sc_hd__fa_1
* cell instance $500 m0 *1 57.04,35.36
X$500 22 226 22 8 223 8 sky130_fd_sc_hd__inv_1
* cell instance $505 m0 *1 67.16,35.36
X$505 22 169 207 235 8 22 191 8 sky130_fd_sc_hd__a21oi_1
* cell instance $507 m0 *1 72.68,35.36
X$507 8 10 209 44 219 22 22 8 sky130_fd_sc_hd__dfrtp_1
* cell instance $510 r0 *1 5.52,35.36
X$510 22 233 187 218 22 8 8 sky130_fd_sc_hd__and2_0
* cell instance $512 r0 *1 9.66,35.36
X$512 8 234 221 253 291 22 22 8 sky130_fd_sc_hd__ha_1
* cell instance $516 r0 *1 15.64,35.36
X$516 8 236 239 163 242 222 22 22 8 sky130_fd_sc_hd__fa_1
* cell instance $518 r0 *1 23.92,35.36
X$518 22 239 22 8 243 8 sky130_fd_sc_hd__inv_1
* cell instance $519 r0 *1 25.3,35.36
X$519 8 224 225 274 258 234 22 22 8 sky130_fd_sc_hd__fa_1
* cell instance $520 r0 *1 32.66,35.36
X$520 22 247 22 8 246 8 sky130_fd_sc_hd__inv_1
* cell instance $528 r0 *1 45.08,35.36
X$528 8 248 241 257 259 22 22 8 sky130_fd_sc_hd__ha_1
* cell instance $529 r0 *1 49.68,35.36
X$529 22 245 22 8 244 8 sky130_fd_sc_hd__inv_1
* cell instance $532 r0 *1 55.66,35.36
X$532 8 226 240 255 238 275 22 22 8 sky130_fd_sc_hd__fa_1
* cell instance $533 r0 *1 63.02,35.36
X$533 22 240 22 8 237 8 sky130_fd_sc_hd__inv_1
* cell instance $534 r0 *1 64.4,35.36
X$534 8 207 169 237 252 22 22 8 sky130_fd_sc_hd__ha_1
* cell instance $550 m0 *1 6.9,40.8
X$550 22 263 176 251 8 22 8 sky130_fd_sc_hd__nor2_1
* cell instance $552 m0 *1 10.12,40.8
X$552 22 263 187 253 22 8 8 sky130_fd_sc_hd__and2_0
* cell instance $555 m0 *1 17.02,40.8
X$555 22 233 220 242 22 8 8 sky130_fd_sc_hd__and2_0
* cell instance $556 m0 *1 19.32,40.8
X$556 22 270 22 8 258 8 sky130_fd_sc_hd__inv_1
* cell instance $563 m0 *1 30.82,40.8
X$563 8 247 315 277 261 334 22 22 8 sky130_fd_sc_hd__fa_1
* cell instance $564 m0 *1 38.18,40.8
X$564 8 203 215 282 262 260 22 22 8 sky130_fd_sc_hd__fa_1
* cell instance $567 m0 *1 46.92,40.8
X$567 22 281 22 8 257 8 sky130_fd_sc_hd__inv_1
* cell instance $568 m0 *1 48.3,40.8
X$568 22 248 22 8 280 8 sky130_fd_sc_hd__inv_1
* cell instance $569 m0 *1 49.68,40.8
X$569 22 279 22 8 256 8 sky130_fd_sc_hd__inv_1
* cell instance $574 m0 *1 57.5,40.8
X$574 22 276 22 8 238 8 sky130_fd_sc_hd__inv_1
* cell instance $575 m0 *1 58.88,40.8
X$575 22 273 22 8 255 8 sky130_fd_sc_hd__inv_1
* cell instance $579 m0 *1 65.32,40.8
X$579 22 265 271 169 249 8 254 22 8 sky130_fd_sc_hd__a211oi_1
* cell instance $580 m0 *1 68.08,40.8
X$580 22 271 265 249 8 22 235 8 sky130_fd_sc_hd__a21o_1
* cell instance $582 m0 *1 74.52,40.8
X$582 22 288 71 250 22 269 8 8 sky130_fd_sc_hd__o21ai_0
* cell instance $584 m0 *1 76.82,40.8
X$584 22 268 60 250 22 8 8 sky130_fd_sc_hd__nand2_1
* cell instance $587 m0 *1 80.5,40.8
X$587 22 268 267 8 22 8 sky130_fd_sc_hd__clkbuf_1
* cell instance $588 r0 *1 1.38,40.8
X$588 22 283 285 8 22 8 sky130_fd_sc_hd__clkbuf_1
* cell instance $591 r0 *1 4.14,40.8
X$591 8 284 285 187 37 22 22 8 sky130_fd_sc_hd__mux2_1
* cell instance $600 r0 *1 15.64,40.8
X$600 22 264 162 163 22 8 8 sky130_fd_sc_hd__and2_1
* cell instance $601 r0 *1 17.94,40.8
X$601 22 263 220 295 22 8 8 sky130_fd_sc_hd__nand2_1
* cell instance $603 r0 *1 19.78,40.8
X$603 22 186 264 310 22 8 8 sky130_fd_sc_hd__nand2_1
* cell instance $605 r0 *1 21.62,40.8
X$605 8 214 278 299 105 368 22 22 8 sky130_fd_sc_hd__fa_1
* cell instance $607 r0 *1 29.44,40.8
X$607 8 277 274 303 301 22 22 8 sky130_fd_sc_hd__ha_1
* cell instance $609 r0 *1 34.96,40.8
X$609 8 304 262 278 287 302 22 22 8 sky130_fd_sc_hd__fa_1
* cell instance $617 r0 *1 45.54,40.8
X$617 8 279 275 280 300 386 22 22 8 sky130_fd_sc_hd__fa_1
* cell instance $620 r0 *1 55.66,40.8
X$620 8 296 273 298 311 22 22 8 sky130_fd_sc_hd__ha_1
* cell instance $621 r0 *1 60.26,40.8
X$621 22 272 22 8 294 8 sky130_fd_sc_hd__inv_1
* cell instance $624 r0 *1 65.78,40.8
X$624 8 271 249 266 292 22 22 8 sky130_fd_sc_hd__ha_1
* cell instance $630 r0 *1 71.3,40.8
X$630 22 266 22 8 290 8 sky130_fd_sc_hd__inv_1
* cell instance $631 r0 *1 72.68,40.8
X$631 8 10 268 44 269 22 22 8 sky130_fd_sc_hd__dfrtp_1
* cell instance $632 m0 *1 1.38,46.24
X$632 8 10 187 305 284 22 22 8 sky130_fd_sc_hd__dfrtp_2
* cell instance $634 m0 *1 11.5,46.24
X$634 22 286 176 291 8 22 8 sky130_fd_sc_hd__nor2_1
* cell instance $637 m0 *1 17.02,46.24
X$637 8 270 299 295 297 310 22 22 8 sky130_fd_sc_hd__fa_1
* cell instance $641 m0 *1 29.44,46.24
X$641 22 286 187 301 22 8 8 sky130_fd_sc_hd__and2_0
* cell instance $642 m0 *1 31.74,46.24
X$642 22 314 176 303 8 22 8 sky130_fd_sc_hd__nor2_1
* cell instance $645 m0 *1 35.88,46.24
X$645 22 315 22 8 302 8 sky130_fd_sc_hd__inv_1
* cell instance $646 m0 *1 37.26,46.24
X$646 8 322 155 22 22 8 sky130_fd_sc_hd__clkbuf_8
* cell instance $649 m0 *1 46.46,46.24
X$649 22 325 187 298 22 8 8 sky130_fd_sc_hd__and2_0
* cell instance $650 m0 *1 48.76,46.24
X$650 8 300 272 313 307 359 22 22 8 sky130_fd_sc_hd__fa_1
* cell instance $653 m0 *1 57.04,46.24
X$653 8 276 312 296 294 355 22 22 8 sky130_fd_sc_hd__fa_1
* cell instance $654 m0 *1 64.4,46.24
X$654 22 312 22 8 293 8 sky130_fd_sc_hd__inv_1
* cell instance $655 m0 *1 65.78,46.24
X$655 8 292 252 309 293 22 22 8 sky130_fd_sc_hd__ha_1
* cell instance $657 m0 *1 70.84,46.24
X$657 8 208 288 308 289 290 22 22 8 sky130_fd_sc_hd__fa_1
* cell instance $659 r0 *1 1.38,46.24
X$659 8 10 186 305 328 22 22 8 sky130_fd_sc_hd__dfrtp_4
* cell instance $666 r0 *1 19.32,46.24
X$666 22 233 188 297 22 8 8 sky130_fd_sc_hd__nand2_1
* cell instance $671 r0 *1 30.82,46.24
X$671 22 314 187 335 22 8 8 sky130_fd_sc_hd__and2_0
* cell instance $672 r0 *1 33.12,46.24
X$672 22 306 176 321 8 22 8 sky130_fd_sc_hd__nor2_1
* cell instance $676 r0 *1 40.48,46.24
X$676 22 306 187 324 22 8 8 sky130_fd_sc_hd__nand2_1
* cell instance $682 r0 *1 45.54,46.24
X$682 22 220 306 320 22 8 8 sky130_fd_sc_hd__and2_0
* cell instance $683 r0 *1 47.84,46.24
X$683 8 259 313 320 319 333 22 22 8 sky130_fd_sc_hd__fa_1
* cell instance $686 r0 *1 57.5,46.24
X$686 22 318 22 8 311 8 sky130_fd_sc_hd__inv_1
* cell instance $689 r0 *1 64.4,46.24
X$689 22 317 22 8 309 8 sky130_fd_sc_hd__inv_1
* cell instance $695 r0 *1 71.76,46.24
X$695 22 292 22 8 289 8 sky130_fd_sc_hd__inv_1
* cell instance $697 r0 *1 74.06,46.24
X$697 22 265 22 8 308 8 sky130_fd_sc_hd__inv_1
* cell instance $707 m0 *1 1.38,51.68
X$707 22 338 345 8 22 8 sky130_fd_sc_hd__clkbuf_1
* cell instance $708 m0 *1 2.76,51.68
X$708 8 328 345 186 11 22 22 8 sky130_fd_sc_hd__mux2_1
* cell instance $710 m0 *1 7.82,51.68
X$710 8 10 220 305 346 22 22 8 sky130_fd_sc_hd__dfrtp_4
* cell instance $711 m0 *1 18.4,51.68
X$711 8 323 352 351 353 349 22 22 8 sky130_fd_sc_hd__fa_1
* cell instance $712 m0 *1 25.76,51.68
X$712 22 323 22 8 334 8 sky130_fd_sc_hd__inv_1
* cell instance $717 m0 *1 30.82,51.68
X$717 8 336 261 321 335 22 22 8 sky130_fd_sc_hd__ha_1
* cell instance $718 m0 *1 35.42,51.68
X$718 22 336 22 8 356 8 sky130_fd_sc_hd__inv_1
* cell instance $720 m0 *1 37.72,51.68
X$720 8 373 281 337 324 358 22 22 8 sky130_fd_sc_hd__fa_1
* cell instance $723 m0 *1 47.38,51.68
X$723 22 286 264 319 22 8 8 sky130_fd_sc_hd__and2_0
* cell instance $724 m0 *1 49.68,51.68
X$724 22 188 314 333 22 8 8 sky130_fd_sc_hd__and2_0
* cell instance $725 m0 *1 51.98,51.68
X$725 22 220 325 326 22 8 8 sky130_fd_sc_hd__nand2_1
* cell instance $727 m0 *1 55.2,51.68
X$727 22 188 306 332 22 8 8 sky130_fd_sc_hd__nand2_1
* cell instance $729 m0 *1 57.04,51.68
X$729 8 318 354 326 331 332 22 22 8 sky130_fd_sc_hd__fa_1
* cell instance $730 m0 *1 64.4,51.68
X$730 8 317 327 363 330 380 22 22 8 sky130_fd_sc_hd__fa_1
* cell instance $731 m0 *1 71.76,51.68
X$731 8 350 265 348 329 22 22 8 sky130_fd_sc_hd__ha_1
* cell instance $733 m0 *1 76.82,51.68
X$733 22 327 22 8 347 8 sky130_fd_sc_hd__inv_1
* cell instance $736 r0 *1 3.22,51.68
X$736 22 316 339 8 22 8 sky130_fd_sc_hd__clkbuf_1
* cell instance $739 r0 *1 8.74,51.68
X$739 8 346 339 220 37 22 22 8 sky130_fd_sc_hd__mux2_1
* cell instance $748 r0 *1 17.02,51.68
X$748 22 263 188 349 22 8 8 sky130_fd_sc_hd__nand2_1
* cell instance $749 r0 *1 18.4,51.68
X$749 22 286 220 351 22 8 8 sky130_fd_sc_hd__nand2_1
* cell instance $750 r0 *1 19.78,51.68
X$750 22 186 365 366 22 8 8 sky130_fd_sc_hd__and2_0
* cell instance $751 r0 *1 22.08,51.68
X$751 22 233 264 353 22 8 8 sky130_fd_sc_hd__nand2_1
* cell instance $753 r0 *1 24.38,51.68
X$753 8 287 340 352 388 387 22 22 8 sky130_fd_sc_hd__fa_1
* cell instance $755 r0 *1 32.66,51.68
X$755 8 260 369 356 373 402 22 22 8 sky130_fd_sc_hd__fa_1
* cell instance $757 r0 *1 40.48,51.68
X$757 22 314 220 358 22 8 8 sky130_fd_sc_hd__nand2_1
* cell instance $763 r0 *1 43.24,51.68
X$763 8 282 245 340 369 371 22 22 8 sky130_fd_sc_hd__fa_1
* cell instance $764 r0 *1 50.6,51.68
X$764 22 357 22 8 359 8 sky130_fd_sc_hd__inv_1
* cell instance $767 r0 *1 57.5,51.68
X$767 22 264 314 331 22 8 8 sky130_fd_sc_hd__nand2_1
* cell instance $769 r0 *1 59.8,51.68
X$769 8 355 330 354 364 420 22 22 8 sky130_fd_sc_hd__fa_1
* cell instance $774 r0 *1 69,51.68
X$774 22 342 341 362 22 8 8 sky130_fd_sc_hd__nand2_1
* cell instance $776 r0 *1 70.84,51.68
X$776 22 350 20 342 22 8 8 sky130_fd_sc_hd__nand2_1
* cell instance $777 r0 *1 72.22,51.68
X$777 22 343 71 341 22 8 8 sky130_fd_sc_hd__nand2_1
* cell instance $778 r0 *1 73.6,51.68
X$778 8 348 266 347 361 22 22 8 sky130_fd_sc_hd__ha_1
* cell instance $780 r0 *1 79.12,51.68
X$780 22 343 344 8 22 8 sky130_fd_sc_hd__clkbuf_1
* cell instance $785 m0 *1 2.76,57.12
X$785 8 375 397 233 11 22 22 8 sky130_fd_sc_hd__mux2_1
* cell instance $789 m0 *1 10.12,57.12
X$789 8 10 188 305 360 22 22 8 sky130_fd_sc_hd__dfrtp_4
* cell instance $791 m0 *1 21.62,57.12
X$791 8 368 162 394 370 385 22 22 8 sky130_fd_sc_hd__a31oi_2
* cell instance $792 m0 *1 26.22,57.12
X$792 22 370 162 372 22 8 8 sky130_fd_sc_hd__nand2_1
* cell instance $796 m0 *1 29.44,57.12
X$796 8 388 390 176 372 389 22 22 8 sky130_fd_sc_hd__fa_1
* cell instance $799 m0 *1 39.1,57.12
X$799 8 371 386 390 406 405 22 22 8 sky130_fd_sc_hd__fa_1
* cell instance $801 m0 *1 46.92,57.12
X$801 22 370 233 367 22 8 8 sky130_fd_sc_hd__and2_0
* cell instance $802 m0 *1 49.22,57.12
X$802 8 357 382 384 367 383 22 22 8 sky130_fd_sc_hd__fa_1
* cell instance $805 m0 *1 58.88,57.12
X$805 22 382 22 8 364 8 sky130_fd_sc_hd__inv_1
* cell instance $809 m0 *1 65.32,57.12
X$809 22 381 22 8 363 8 sky130_fd_sc_hd__inv_1
* cell instance $811 m0 *1 68.54,57.12
X$811 8 10 343 379 362 22 22 8 sky130_fd_sc_hd__dfrtp_1
* cell instance $815 r0 *1 1.84,57.12
X$815 8 10 392 305 375 22 22 8 sky130_fd_sc_hd__dfrtp_1
* cell instance $816 r0 *1 11.04,57.12
X$816 22 392 8 233 22 8 sky130_fd_sc_hd__buf_2
* cell instance $817 r0 *1 12.88,57.12
X$817 22 374 376 8 22 8 sky130_fd_sc_hd__clkbuf_1
* cell instance $821 r0 *1 15.64,57.12
X$821 8 360 376 188 37 22 22 8 sky130_fd_sc_hd__mux2_1
* cell instance $822 r0 *1 19.78,57.12
X$822 8 377 385 366 400 22 22 8 sky130_fd_sc_hd__ha_1
* cell instance $823 r0 *1 24.38,57.12
X$823 8 155 305 22 22 8 sky130_fd_sc_hd__clkbuf_8
* cell instance $824 r0 *1 29.44,57.12
X$824 22 377 22 8 387 8 sky130_fd_sc_hd__inv_1
* cell instance $826 r0 *1 32.66,57.12
X$826 22 186 394 389 22 8 8 sky130_fd_sc_hd__nand2_1
* cell instance $828 r0 *1 35.88,57.12
X$828 22 286 188 404 22 8 8 sky130_fd_sc_hd__nand2_1
* cell instance $829 r0 *1 37.26,57.12
X$829 22 263 264 403 22 8 8 sky130_fd_sc_hd__nand2_1
* cell instance $830 r0 *1 38.64,57.12
X$830 22 370 186 407 22 8 8 sky130_fd_sc_hd__nand2_1
* cell instance $831 r0 *1 40.02,57.12
X$831 22 379 22 8 513 8 sky130_fd_sc_hd__clkinvlp_4
* cell instance $834 r0 *1 43.24,57.12
X$834 8 155 379 22 22 8 sky130_fd_sc_hd__clkbuf_8
* cell instance $836 r0 *1 48.76,57.12
X$836 22 365 286 384 22 8 8 sky130_fd_sc_hd__and2_0
* cell instance $837 r0 *1 51.06,57.12
X$837 22 394 263 383 22 8 8 sky130_fd_sc_hd__and2_0
* cell instance $838 r0 *1 53.36,57.12
X$838 22 394 233 401 22 8 8 sky130_fd_sc_hd__nand2_1
* cell instance $841 r0 *1 56.12,57.12
X$841 22 188 325 396 22 8 8 sky130_fd_sc_hd__and2_0
* cell instance $842 r0 *1 58.42,57.12
X$842 22 264 306 399 22 8 8 sky130_fd_sc_hd__and2_0
* cell instance $845 r0 *1 62.1,57.12
X$845 8 421 378 396 399 22 22 8 sky130_fd_sc_hd__ha_1
* cell instance $847 r0 *1 67.16,57.12
X$847 22 378 22 8 380 8 sky130_fd_sc_hd__inv_1
* cell instance $860 m0 *1 1.38,62.56
X$860 22 391 397 8 22 8 sky130_fd_sc_hd__clkbuf_1
* cell instance $861 m0 *1 2.76,62.56
X$861 8 10 393 305 414 22 22 8 sky130_fd_sc_hd__dfrtp_1
* cell instance $862 m0 *1 11.96,62.56
X$862 22 393 8 263 22 8 sky130_fd_sc_hd__buf_2
* cell instance $865 m0 *1 18.4,62.56
X$865 22 416 22 8 105 8 sky130_fd_sc_hd__clkinvlp_4
* cell instance $866 m0 *1 21.16,62.56
X$866 8 162 394 370 165 418 22 22 8 sky130_fd_sc_hd__a31oi_4
* cell instance $870 m0 *1 34.04,62.56
X$870 22 233 365 395 22 8 8 sky130_fd_sc_hd__nand2_1