
* cell booth_multiplier
* pin multiplier[4]
* pin multiplier[2]
* pin multiplier[1]
* pin multiplicand[3]
* pin multiplier[0]
* pin multiplicand[4]
* pin multiplier[5]
* pin multiplicand[5]
* pin multiplier[6]
* pin multiplicand[6]
* pin multiplier[7]
* pin multiplicand[7]
* pin multiplier[3]
* pin multiplicand[2]
* pin multiplicand[0]
* pin multiplicand[1]
* pin product[3]
* pin product[1]
* pin product[0]
* pin product[15]
* pin product[2]
* pin product[4]
* pin product[13]
* pin product[5]
* pin product[11]
* pin clk
* pin product[12]
* pin product[6]
* pin product[9]
* pin done
* pin product[7]
* pin rst
* pin product[8]
* pin start
* pin product[10]
* pin product[14]
* pin NWELL
* pin PWELL,gf180mcu_gnd
.SUBCKT booth_multiplier 1 2 3 4 5 6 7 8 9 10 11 12 191 192 223 224 280 281 282
+ 299 311 347 381 387 402 406 420 440 441 442 443 444 445 446 447 448 449 450
* net 1 multiplier[4]
* net 2 multiplier[2]
* net 3 multiplier[1]
* net 4 multiplicand[3]
* net 5 multiplier[0]
* net 6 multiplicand[4]
* net 7 multiplier[5]
* net 8 multiplicand[5]
* net 9 multiplier[6]
* net 10 multiplicand[6]
* net 11 multiplier[7]
* net 12 multiplicand[7]
* net 191 multiplier[3]
* net 192 multiplicand[2]
* net 223 multiplicand[0]
* net 224 multiplicand[1]
* net 280 product[3]
* net 281 product[1]
* net 282 product[0]
* net 299 product[15]
* net 311 product[2]
* net 347 product[4]
* net 381 product[13]
* net 387 product[5]
* net 402 product[11]
* net 406 clk
* net 420 product[12]
* net 440 product[6]
* net 441 product[9]
* net 442 done
* net 443 product[7]
* net 444 rst
* net 445 product[8]
* net 446 start
* net 447 product[10]
* net 448 product[14]
* net 449 NWELL
* net 450 PWELL,gf180mcu_gnd
* cell instance $3 m0 *1 698.32,15.12
X$3 450 1 27 449 gf180mcu_fd_sc_mcu9t5v0__clkbuf_8
* cell instance $6 m0 *1 708.96,25.2
X$6 450 2 31 449 gf180mcu_fd_sc_mcu9t5v0__clkbuf_8
* cell instance $10 r0 *1 706.16,5.04
X$10 450 3 14 449 gf180mcu_fd_sc_mcu9t5v0__clkbuf_8
* cell instance $14 r0 *1 721.84,15.12
X$14 450 4 30 449 gf180mcu_fd_sc_mcu9t5v0__clkbuf_8
* cell instance $19 m0 *1 712.88,15.12
X$19 450 5 28 449 gf180mcu_fd_sc_mcu9t5v0__clkbuf_8
* cell instance $22 r0 *1 720.72,5.04
X$22 450 6 17 449 gf180mcu_fd_sc_mcu9t5v0__clkbuf_8
* cell instance $26 m0 *1 727.44,15.12
X$26 450 7 16 449 gf180mcu_fd_sc_mcu9t5v0__clkbuf_8
* cell instance $31 r0 *1 735.28,5.04
X$31 450 8 13 449 gf180mcu_fd_sc_mcu9t5v0__clkbuf_8
* cell instance $34 r0 *1 751.52,5.04
X$34 450 449 9 15 gf180mcu_fd_sc_mcu9t5v0__buf_4
* cell instance $38 m0 *1 763.84,15.12
X$38 450 10 20 449 gf180mcu_fd_sc_mcu9t5v0__clkbuf_8
* cell instance $42 r0 *1 781.2,5.04
X$42 450 449 11 26 gf180mcu_fd_sc_mcu9t5v0__buf_4
* cell instance $47 m0 *1 784,15.12
X$47 450 12 19 449 gf180mcu_fd_sc_mcu9t5v0__clkbuf_8
* cell instance $50 m0 *1 766.64,690.48
X$50 450 449 25 13 18 gf180mcu_fd_sc_mcu9t5v0__nor2_2
* cell instance $53 r0 *1 712.32,730.8
X$53 450 449 14 122 13 gf180mcu_fd_sc_mcu9t5v0__nand2_2
* cell instance $55 m0 *1 762.72,700.56
X$55 449 13 15 450 37 gf180mcu_fd_sc_mcu9t5v0__and2_2
* cell instance $57 m0 *1 743.68,740.88
X$57 450 449 54 100 13 gf180mcu_fd_sc_mcu9t5v0__nand2_2
* cell instance $59 m0 *1 733.04,740.88
X$59 450 449 31 128 13 gf180mcu_fd_sc_mcu9t5v0__nand2_2
* cell instance $61 m0 *1 763.28,730.8
X$61 449 13 16 450 113 gf180mcu_fd_sc_mcu9t5v0__and2_2
* cell instance $63 r0 *1 708.4,710.64
X$63 450 449 27 88 13 gf180mcu_fd_sc_mcu9t5v0__nand2_2
* cell instance $67 m0 *1 696.64,730.8
X$67 449 28 13 450 111 gf180mcu_fd_sc_mcu9t5v0__and2_2
* cell instance $81 r0 *1 690.48,730.8
X$81 449 14 17 450 141 gf180mcu_fd_sc_mcu9t5v0__and2_2
* cell instance $84 m0 *1 646.24,761.04
X$84 449 147 14 450 184 gf180mcu_fd_sc_mcu9t5v0__and2_2
* cell instance $87 r0 *1 677.6,750.96
X$87 450 449 14 151 30 gf180mcu_fd_sc_mcu9t5v0__nand2_2
* cell instance $90 r0 *1 721.84,690.48
X$90 28 450 14 449 29 gf180mcu_fd_sc_mcu9t5v0__xor2_2
* cell instance $92 m0 *1 722.96,710.64
X$92 28 449 14 19 450 51 gf180mcu_fd_sc_mcu9t5v0__and3_2
* cell instance $94 r0 *1 723.52,720.72
X$94 450 449 14 114 20 gf180mcu_fd_sc_mcu9t5v0__nand2_2
* cell instance $97 m0 *1 656.32,761.04
X$97 450 449 166 150 14 gf180mcu_fd_sc_mcu9t5v0__nand2_2
* cell instance $100 r0 *1 673.12,761.04
X$100 450 449 14 171 149 gf180mcu_fd_sc_mcu9t5v0__nand2_2
* cell instance $117 r0 *1 717.36,781.2
X$117 449 166 15 450 230 gf180mcu_fd_sc_mcu9t5v0__and2_2
* cell instance $119 r0 *1 729.68,771.12
X$119 449 149 15 450 207 gf180mcu_fd_sc_mcu9t5v0__and2_2
* cell instance $123 m0 *1 787.92,690.48
X$123 449 20 15 450 21 gf180mcu_fd_sc_mcu9t5v0__and2_2
* cell instance $126 r0 *1 707.28,781.2
X$126 449 147 15 450 229 gf180mcu_fd_sc_mcu9t5v0__and2_2
* cell instance $128 r0 *1 786.8,680.4
X$128 449 15 19 450 22 gf180mcu_fd_sc_mcu9t5v0__and2_2
* cell instance $132 m0 *1 747.04,761.04
X$132 449 30 15 450 157 gf180mcu_fd_sc_mcu9t5v0__and2_2
* cell instance $134 m0 *1 753.2,750.96
X$134 449 17 15 450 130 gf180mcu_fd_sc_mcu9t5v0__and2_2
* cell instance $149 m0 *1 698.88,761.04
X$149 449 166 16 450 155 gf180mcu_fd_sc_mcu9t5v0__and2_2
* cell instance $151 r0 *1 701.12,710.64
X$151 450 449 17 71 16 gf180mcu_fd_sc_mcu9t5v0__nand2_2
* cell instance $154 r0 *1 710.64,771.12
X$154 449 149 16 450 203 gf180mcu_fd_sc_mcu9t5v0__and2_2
* cell instance $157 m0 *1 775.6,700.56
X$157 449 20 16 450 38 gf180mcu_fd_sc_mcu9t5v0__and2_2
* cell instance $160 m0 *1 780.64,700.56
X$160 449 16 19 450 39 gf180mcu_fd_sc_mcu9t5v0__and2_2
* cell instance $164 r0 *1 686.56,771.12
X$164 450 449 147 246 16 gf180mcu_fd_sc_mcu9t5v0__nand2_2
* cell instance $167 r0 *1 729.68,730.8
X$167 450 449 30 116 16 gf180mcu_fd_sc_mcu9t5v0__nand2_2
* cell instance $177 m0 *1 757.12,700.56
X$177 450 449 36 17 18 gf180mcu_fd_sc_mcu9t5v0__nor2_2
* cell instance $180 m0 *1 686.56,750.96
X$180 450 449 28 153 17 gf180mcu_fd_sc_mcu9t5v0__nand2_2
* cell instance $182 m0 *1 748.72,740.88
X$182 450 449 17 101 27 gf180mcu_fd_sc_mcu9t5v0__nand2_2
* cell instance $186 r0 *1 701.12,730.8
X$186 450 449 31 95 17 gf180mcu_fd_sc_mcu9t5v0__nand2_2
* cell instance $191 m0 *1 722.96,750.96
X$191 450 449 54 125 17 gf180mcu_fd_sc_mcu9t5v0__nand2_2
* cell instance $205 r0 *1 784.56,670.32
X$205 450 449 26 18 gf180mcu_fd_sc_mcu9t5v0__inv_4
* cell instance $207 m0 *1 717.92,730.8
X$207 450 18 96 98 114 73 449 gf180mcu_fd_sc_mcu9t5v0__addf_1
* cell instance $209 m0 *1 718.48,771.12
X$209 450 449 222 166 18 gf180mcu_fd_sc_mcu9t5v0__nor2_2
* cell instance $212 r0 *1 719.6,771.12
X$212 450 449 204 147 18 gf180mcu_fd_sc_mcu9t5v0__nor2_2
* cell instance $217 m0 *1 792.96,690.48
X$217 450 449 23 20 18 gf180mcu_fd_sc_mcu9t5v0__nor2_2
* cell instance $220 m0 *1 792.96,700.56
X$220 450 449 50 19 18 gf180mcu_fd_sc_mcu9t5v0__nor2_2
* cell instance $222 r0 *1 739.76,761.04
X$222 450 449 190 149 18 gf180mcu_fd_sc_mcu9t5v0__nor2_2
* cell instance $224 r0 *1 747.6,750.96
X$224 450 449 165 30 18 gf180mcu_fd_sc_mcu9t5v0__nor2_2
* cell instance $238 r0 *1 741.44,700.56
X$238 449 31 19 450 35 gf180mcu_fd_sc_mcu9t5v0__and2_2
* cell instance $241 r0 *1 752.08,710.64
X$241 449 54 19 450 55 gf180mcu_fd_sc_mcu9t5v0__and2_2
* cell instance $243 m0 *1 768.88,700.56
X$243 449 27 19 450 57 gf180mcu_fd_sc_mcu9t5v0__and2_2
* cell instance $249 m0 *1 727.44,700.56
X$249 449 19 29 450 33 gf180mcu_fd_sc_mcu9t5v0__and2_2
* cell instance $253 r0 *1 722.4,710.64
X$253 450 449 28 73 19 gf180mcu_fd_sc_mcu9t5v0__nand2_2
* cell instance $264 m0 *1 768.32,730.8
X$264 449 27 20 450 85 gf180mcu_fd_sc_mcu9t5v0__and2_2
* cell instance $268 r0 *1 715.68,710.64
X$268 450 449 54 72 20 gf180mcu_fd_sc_mcu9t5v0__nand2_2
* cell instance $271 m0 *1 732.48,700.56
X$271 449 31 20 450 32 gf180mcu_fd_sc_mcu9t5v0__and2_2
* cell instance $274 m0 *1 710.08,730.8
X$274 450 449 28 121 20 gf180mcu_fd_sc_mcu9t5v0__nand2_2
* cell instance $288 r0 *1 790.72,690.48
X$288 46 450 449 21 25 40 gf180mcu_fd_sc_mcu9t5v0__addh_1
* cell instance $292 m0 *1 801.92,700.56
X$292 48 450 449 22 50 43 gf180mcu_fd_sc_mcu9t5v0__addh_1
* cell instance $294 m0 *1 801.36,690.48
X$294 24 450 449 22 23 47 gf180mcu_fd_sc_mcu9t5v0__addh_1
* cell instance $301 m0 *1 811.44,700.56
X$301 450 41 42 44 43 24 449 gf180mcu_fd_sc_mcu9t5v0__addf_1
* cell instance $318 m0 *1 701.12,781.2
X$318 450 449 166 248 27 gf180mcu_fd_sc_mcu9t5v0__nand2_2
* cell instance $321 m0 *1 744.8,750.96
X$321 450 449 30 145 27 gf180mcu_fd_sc_mcu9t5v0__nand2_2
* cell instance $323 m0 *1 710.64,761.04
X$323 449 149 27 450 174 gf180mcu_fd_sc_mcu9t5v0__and2_2
* cell instance $325 r0 *1 675.36,781.2
X$325 449 147 27 450 245 gf180mcu_fd_sc_mcu9t5v0__and2_2
* cell instance $339 m0 *1 636.16,771.12
X$339 449 28 147 450 193 gf180mcu_fd_sc_mcu9t5v0__and2_2
* cell instance $346 r0 *1 638.4,761.04
X$346 449 28 166 450 167 gf180mcu_fd_sc_mcu9t5v0__and2_2
* cell instance $351 m0 *1 651.28,761.04
X$351 450 449 28 169 149 gf180mcu_fd_sc_mcu9t5v0__nand2_2
* cell instance $353 r0 *1 668.08,761.04
X$353 450 449 28 170 30 gf180mcu_fd_sc_mcu9t5v0__nand2_2
* cell instance $369 m0 *1 704.48,761.04
X$369 449 30 54 450 173 gf180mcu_fd_sc_mcu9t5v0__and2_2
* cell instance $371 r0 *1 683.76,730.8
X$371 449 31 30 450 94 gf180mcu_fd_sc_mcu9t5v0__and2_2
* cell instance $391 m0 *1 641.2,761.04
X$391 450 449 147 148 31 gf180mcu_fd_sc_mcu9t5v0__nand2_2
* cell instance $393 m0 *1 672,761.04
X$393 450 449 149 152 31 gf180mcu_fd_sc_mcu9t5v0__nand2_2
* cell instance $402 r0 *1 660.24,761.04
X$402 450 449 166 186 31 gf180mcu_fd_sc_mcu9t5v0__nand2_2
* cell instance $417 r0 *1 731.92,700.56
X$417 52 450 449 32 33 69 gf180mcu_fd_sc_mcu9t5v0__addh_1
* cell instance $422 m0 *1 741.44,700.56
X$422 34 450 449 35 33 91 gf180mcu_fd_sc_mcu9t5v0__addh_1
* cell instance $427 r0 *1 738.64,710.64
X$427 450 449 51 34 58 gf180mcu_fd_sc_mcu9t5v0__nor2_4
* cell instance $431 r0 *1 759.36,700.56
X$431 60 450 449 36 37 56 gf180mcu_fd_sc_mcu9t5v0__addh_1
* cell instance $437 m0 *1 767.76,710.64
X$437 450 55 70 59 38 57 449 gf180mcu_fd_sc_mcu9t5v0__addf_1
* cell instance $440 r0 *1 768.88,700.56
X$440 450 55 68 39 57 41 449 gf180mcu_fd_sc_mcu9t5v0__addf_2
* cell instance $442 r0 *1 787.92,700.56
X$442 450 59 66 65 40 60 449 gf180mcu_fd_sc_mcu9t5v0__addf_1
* cell instance $447 r0 *1 817.04,700.56
X$447 454 450 449 41 43 64 gf180mcu_fd_sc_mcu9t5v0__addh_1
* cell instance $449 r0 *1 804.72,690.48
X$449 450 41 49 45 46 47 449 gf180mcu_fd_sc_mcu9t5v0__addf_1
* cell instance $457 m0 *1 813.12,710.64
X$457 450 449 42 61 gf180mcu_fd_sc_mcu9t5v0__clkinv_2
* cell instance $465 r0 *1 827.12,700.56
X$465 450 64 44 62 63 449 gf180mcu_fd_sc_mcu9t5v0__xnor3_2
* cell instance $470 r0 *1 822.64,690.48
X$470 450 449 45 80 gf180mcu_fd_sc_mcu9t5v0__clkinv_2
* cell instance $482 r0 *1 818.72,710.64
X$482 450 83 48 81 62 449 gf180mcu_fd_sc_mcu9t5v0__xnor3_2
* cell instance $487 r0 *1 811.44,700.56
X$487 450 449 49 105 gf180mcu_fd_sc_mcu9t5v0__clkinv_2
* cell instance $497 r0 *1 733.04,710.64
X$497 450 449 92 52 51 gf180mcu_fd_sc_mcu9t5v0__nor2_2
* cell instance $504 m0 *1 734.72,730.8
X$504 450 97 115 129 53 98 449 gf180mcu_fd_sc_mcu9t5v0__addf_1
* cell instance $506 m0 *1 743.12,710.64
X$506 450 449 69 53 gf180mcu_fd_sc_mcu9t5v0__clkinv_2
* cell instance $511 r0 *1 2.24,771.12
X$511 450 191 54 449 gf180mcu_fd_sc_mcu9t5v0__clkbuf_8
* cell instance $516 m0 *1 694.96,781.2
X$516 450 449 149 247 54 gf180mcu_fd_sc_mcu9t5v0__nand2_2
* cell instance $520 r0 *1 652.4,771.12
X$520 450 449 147 197 54 gf180mcu_fd_sc_mcu9t5v0__nand2_2
* cell instance $524 r0 *1 661.92,781.2
X$524 449 166 54 450 226 gf180mcu_fd_sc_mcu9t5v0__and2_2
* cell instance $540 r0 *1 763.28,720.72
X$540 450 55 89 133 85 113 449 gf180mcu_fd_sc_mcu9t5v0__addf_1
* cell instance $545 r0 *1 764.4,740.88
X$545 450 146 131 143 133 56 449 gf180mcu_fd_sc_mcu9t5v0__addf_1
* cell instance $554 r0 *1 761.6,730.8
X$554 450 58 103 110 112 74 449 gf180mcu_fd_sc_mcu9t5v0__addf_1
* cell instance $557 r0 *1 785.12,730.8
X$557 450 58 134 135 74 75 449 gf180mcu_fd_sc_mcu9t5v0__addf_1
* cell instance $560 r0 *1 782.88,710.64
X$560 450 58 77 74 67 79 449 gf180mcu_fd_sc_mcu9t5v0__addf_4
* cell instance $572 r0 *1 806.96,720.72
X$572 450 77 109 106 79 61 449 gf180mcu_fd_sc_mcu9t5v0__addf_1
* cell instance $580 m0 *1 831.6,730.8
X$580 106 450 107 449 63 gf180mcu_fd_sc_mcu9t5v0__xor2_2
* cell instance $584 r0 *1 812,710.64
X$584 450 449 65 78 gf180mcu_fd_sc_mcu9t5v0__clkinv_2
* cell instance $590 m0 *1 795.2,720.72
X$590 450 449 66 76 gf180mcu_fd_sc_mcu9t5v0__clkinv_2
* cell instance $595 m0 *1 785.12,710.64
X$595 450 449 68 67 gf180mcu_fd_sc_mcu9t5v0__clkinv_2
* cell instance $609 r0 *1 776.16,710.64
X$609 450 449 70 75 gf180mcu_fd_sc_mcu9t5v0__clkinv_2
* cell instance $613 m0 *1 702.8,720.72
X$613 450 71 87 72 88 90 449 gf180mcu_fd_sc_mcu9t5v0__addf_2
* cell instance $621 m0 *1 736.96,720.72
X$621 450 87 93 74 92 86 449 gf180mcu_fd_sc_mcu9t5v0__addf_2
* cell instance $623 r0 *1 756,720.72
X$623 450 449 91 74 gf180mcu_fd_sc_mcu9t5v0__clkinv_3
* cell instance $636 r0 *1 790.72,740.88
X$636 450 77 144 139 135 76 449 gf180mcu_fd_sc_mcu9t5v0__addf_1
* cell instance $642 r0 *1 805.84,730.8
X$642 450 77 136 108 79 105 449 gf180mcu_fd_sc_mcu9t5v0__addf_1
* cell instance $646 m0 *1 807.52,720.72
X$646 450 449 77 84 gf180mcu_fd_sc_mcu9t5v0__clkinv_2
* cell instance $651 r0 *1 807.52,740.88
X$651 450 136 140 137 139 78 449 gf180mcu_fd_sc_mcu9t5v0__addf_1
* cell instance $660 m0 *1 820.4,720.72
X$660 450 449 79 82 gf180mcu_fd_sc_mcu9t5v0__clkinv_2
* cell instance $663 m0 *1 814.8,730.8
X$663 450 108 104 107 80 109 449 gf180mcu_fd_sc_mcu9t5v0__addf_1
* cell instance $667 r0 *1 832.16,791.28
X$667 449 81 267 450 296 gf180mcu_fd_sc_mcu9t5v0__xnor2_2
* cell instance $670 m0 *1 810.88,720.72
X$670 453 450 449 84 82 83 gf180mcu_fd_sc_mcu9t5v0__addh_1
* cell instance $684 r0 *1 766.64,771.12
X$684 450 103 234 212 86 211 449 gf180mcu_fd_sc_mcu9t5v0__addf_1
* cell instance $697 m0 *1 773.92,730.8
X$697 450 449 89 112 gf180mcu_fd_sc_mcu9t5v0__clkinv_2
* cell instance $700 r0 *1 745.92,720.72
X$700 450 449 90 99 gf180mcu_fd_sc_mcu9t5v0__clkinv_2
* cell instance $714 r0 *1 750.4,781.2
X$714 450 93 273 233 129 251 449 gf180mcu_fd_sc_mcu9t5v0__addf_1
* cell instance $719 m0 *1 684.32,740.88
X$719 450 94 138 142 141 111 449 gf180mcu_fd_sc_mcu9t5v0__addf_1
* cell instance $722 m0 *1 703.36,740.88
X$722 450 95 119 126 122 121 449 gf180mcu_fd_sc_mcu9t5v0__addf_1
* cell instance $725 r0 *1 717.36,740.88
X$725 450 96 123 127 126 124 449 gf180mcu_fd_sc_mcu9t5v0__addf_1
* cell instance $728 r0 *1 738.08,730.8
X$728 450 116 97 102 101 100 449 gf180mcu_fd_sc_mcu9t5v0__addf_1
* cell instance $734 r0 *1 760.48,761.04
X$734 450 158 188 183 185 99 449 gf180mcu_fd_sc_mcu9t5v0__addf_1
* cell instance $744 r0 *1 754.88,761.04
X$744 450 449 102 176 gf180mcu_fd_sc_mcu9t5v0__clkinv_2
* cell instance $751 r0 *1 815.36,750.96
X$751 450 449 104 162 gf180mcu_fd_sc_mcu9t5v0__clkinv_2
* cell instance $771 m0 *1 777.84,750.96
X$771 450 132 218 163 110 134 449 gf180mcu_fd_sc_mcu9t5v0__addf_1
* cell instance $792 r0 *1 733.04,791.28
X$792 450 231 310 274 127 115 449 gf180mcu_fd_sc_mcu9t5v0__addf_1
* cell instance $799 r0 *1 700,761.04
X$799 450 155 117 175 174 173 449 gf180mcu_fd_sc_mcu9t5v0__addf_1
* cell instance $802 m0 *1 691.6,750.96
X$802 450 117 199 120 118 119 449 gf180mcu_fd_sc_mcu9t5v0__addf_1
* cell instance $805 r0 *1 700,740.88
X$805 450 449 142 118 gf180mcu_fd_sc_mcu9t5v0__clkinv_2
* cell instance $811 m0 *1 714.56,801.36
X$811 450 120 316 288 123 261 449 gf180mcu_fd_sc_mcu9t5v0__addf_1
* cell instance $823 m0 *1 728,750.96
X$823 450 125 124 156 145 128 449 gf180mcu_fd_sc_mcu9t5v0__addf_1
* cell instance $845 r0 *1 753.2,750.96
X$845 146 450 449 130 165 158 gf180mcu_fd_sc_mcu9t5v0__addh_1
* cell instance $848 m0 *1 767.76,750.96
X$848 450 449 131 132 gf180mcu_fd_sc_mcu9t5v0__clkinv_2
* cell instance $866 r0 *1 822.08,750.96
X$866 450 449 137 181 gf180mcu_fd_sc_mcu9t5v0__clkinv_2
* cell instance $870 r0 *1 684.32,740.88
X$870 450 449 138 200 gf180mcu_fd_sc_mcu9t5v0__clkinv_2
* cell instance $878 m0 *1 802.48,761.04
X$878 450 449 140 159 gf180mcu_fd_sc_mcu9t5v0__clkinv_2
* cell instance $889 m0 *1 794.64,750.96
X$889 450 449 143 164 gf180mcu_fd_sc_mcu9t5v0__clkinv_2
* cell instance $893 r0 *1 793.52,750.96
X$893 450 144 178 160 163 164 449 gf180mcu_fd_sc_mcu9t5v0__addf_1
* cell instance $915 m0 *1 2.24,791.28
X$915 450 223 147 449 gf180mcu_fd_sc_mcu9t5v0__clkbuf_8
* cell instance $930 r0 *1 643.44,761.04
X$930 450 148 168 187 150 169 449 gf180mcu_fd_sc_mcu9t5v0__addf_1
* cell instance $940 m0 *1 16.8,781.2
X$940 450 192 149 449 gf180mcu_fd_sc_mcu9t5v0__clkbuf_8
* cell instance $956 m0 *1 677.04,761.04
X$956 450 151 172 154 153 152 449 gf180mcu_fd_sc_mcu9t5v0__addf_1
* cell instance $966 m0 *1 691.6,771.12
X$966 450 449 154 201 gf180mcu_fd_sc_mcu9t5v0__clkinv_2
* cell instance $971 r0 *1 731.36,781.2
X$971 450 206 231 232 156 209 449 gf180mcu_fd_sc_mcu9t5v0__addf_1
* cell instance $974 r0 *1 745.36,761.04
X$974 185 450 449 190 157 210 gf180mcu_fd_sc_mcu9t5v0__addh_1
* cell instance $978 r0 *1 801.92,761.04
X$978 450 180 241 161 159 449 gf180mcu_fd_sc_mcu9t5v0__addh_2
* cell instance $982 m0 *1 805.84,761.04
X$982 450 449 160 161 gf180mcu_fd_sc_mcu9t5v0__clkinv_2
* cell instance $987 r0 *1 815.36,761.04
X$987 450 179 182 162 181 449 gf180mcu_fd_sc_mcu9t5v0__addh_2
* cell instance $1004 r0 *1 2.24,781.2
X$1004 450 224 166 449 gf180mcu_fd_sc_mcu9t5v0__clkbuf_8
* cell instance $1022 r0 *1 638.96,771.12
X$1022 194 450 449 184 167 244 gf180mcu_fd_sc_mcu9t5v0__addh_1
* cell instance $1025 m0 *1 642.32,771.12
X$1025 450 449 168 195 gf180mcu_fd_sc_mcu9t5v0__clkinv_2
* cell instance $1030 m0 *1 661.36,771.12
X$1030 450 186 219 277 171 170 449 gf180mcu_fd_sc_mcu9t5v0__addf_1
* cell instance $1034 r0 *1 668.64,791.28
X$1034 450 278 275 258 277 172 449 gf180mcu_fd_sc_mcu9t5v0__addf_1
* cell instance $1042 r0 *1 712.88,791.28
X$1042 319 450 449 175 250 260 gf180mcu_fd_sc_mcu9t5v0__addh_1
* cell instance $1045 m0 *1 752.08,771.12
X$1045 450 176 221 220 189 210 449 gf180mcu_fd_sc_mcu9t5v0__addf_1
* cell instance $1047 m0 *1 775.04,771.12
X$1047 450 218 217 216 212 177 449 gf180mcu_fd_sc_mcu9t5v0__addf_1
* cell instance $1049 r0 *1 788.48,761.04
X$1049 450 449 183 177 gf180mcu_fd_sc_mcu9t5v0__clkinv_2
* cell instance $1054 m0 *1 795.2,771.12
X$1054 450 449 178 214 gf180mcu_fd_sc_mcu9t5v0__clkinv_2
* cell instance $1057 m0 *1 815.92,771.12
X$1057 450 179 449 269 180 182 gf180mcu_fd_sc_mcu9t5v0__aoi21_2
* cell instance $1059 m0 *1 806.4,801.36
X$1059 450 295 293 241 265 180 239 449 gf180mcu_fd_sc_mcu9t5v0__aoi221_4
* cell instance $1070 r0 *1 804.16,821.52
X$1070 450 412 327 449 358 182 397 gf180mcu_fd_sc_mcu9t5v0__nor4_2
* cell instance $1072 m0 *1 815.36,811.44
X$1072 182 449 326 331 450 294 gf180mcu_fd_sc_mcu9t5v0__and3_2
* cell instance $1074 r0 *1 813.68,781.2
X$1074 449 242 240 239 241 182 450 gf180mcu_fd_sc_mcu9t5v0__oai211_2
* cell instance $1078 m0 *1 814.24,831.6
X$1078 182 378 358 295 450 449 380 gf180mcu_fd_sc_mcu9t5v0__and4_2
* cell instance $1081 r0 *1 814.24,821.52
X$1081 449 182 327 450 379 gf180mcu_fd_sc_mcu9t5v0__and2_2
* cell instance $1083 m0 *1 821.52,831.6
X$1083 450 449 182 411 gf180mcu_fd_sc_mcu9t5v0__clkinv_2
* cell instance $1104 m0 *1 652.96,781.2
X$1104 450 197 196 257 187 219 449 gf180mcu_fd_sc_mcu9t5v0__addf_1
* cell instance $1111 m0 *1 769.44,771.12
X$1111 450 449 188 211 gf180mcu_fd_sc_mcu9t5v0__clkinv_2
* cell instance $1114 m0 *1 729.12,771.12
X$1114 189 450 449 207 222 208 gf180mcu_fd_sc_mcu9t5v0__addh_1
* cell instance $1127 m0 *1 626.08,791.28
X$1127 450 449 270 193 225 254 gf180mcu_fd_sc_mcu9t5v0__mux2_2
* cell instance $1133 r0 *1 637.28,781.2
X$1133 243 450 449 194 195 271 gf180mcu_fd_sc_mcu9t5v0__addh_1
* cell instance $1138 m0 *1 651.84,791.28
X$1138 450 449 196 255 gf180mcu_fd_sc_mcu9t5v0__clkinv_2
* cell instance $1142 m0 *1 678.16,781.2
X$1142 450 227 198 202 201 200 449 gf180mcu_fd_sc_mcu9t5v0__addf_1
* cell instance $1144 m0 *1 668.64,801.36
X$1144 450 308 314 335 258 198 449 gf180mcu_fd_sc_mcu9t5v0__addf_1
* cell instance $1147 r0 *1 689.36,791.28
X$1147 450 449 199 286 gf180mcu_fd_sc_mcu9t5v0__clkinv_2
* cell instance $1156 m0 *1 685.44,801.36
X$1156 450 202 336 287 309 286 449 gf180mcu_fd_sc_mcu9t5v0__addf_1
* cell instance $1161 m0 *1 711.2,781.2
X$1161 450 203 250 205 204 230 449 gf180mcu_fd_sc_mcu9t5v0__addf_1
* cell instance $1166 m0 *1 729.68,781.2
X$1166 450 449 205 206 gf180mcu_fd_sc_mcu9t5v0__clkinv_2
* cell instance $1173 m0 *1 736.4,781.2
X$1173 450 449 208 209 gf180mcu_fd_sc_mcu9t5v0__clkinv_2
* cell instance $1189 m0 *1 787.92,781.2
X$1189 450 449 217 213 gf180mcu_fd_sc_mcu9t5v0__clkinv_2
* cell instance $1191 m0 *1 785.12,791.28
X$1191 450 237 264 213 236 449 gf180mcu_fd_sc_mcu9t5v0__addh_2
* cell instance $1194 m0 *1 801.36,781.2
X$1194 450 239 238 214 215 449 gf180mcu_fd_sc_mcu9t5v0__addh_2
* cell instance $1199 r0 *1 790.72,771.12
X$1199 450 449 216 215 gf180mcu_fd_sc_mcu9t5v0__clkinv_2
* cell instance $1216 r0 *1 772.8,781.2
X$1216 450 449 220 249 gf180mcu_fd_sc_mcu9t5v0__clkinv_2
* cell instance $1222 r0 *1 753.2,771.12
X$1222 450 449 221 251 gf180mcu_fd_sc_mcu9t5v0__clkinv_2
* cell instance $1233 r0 *1 837.2,801.36
X$1233 450 449 300 296 225 298 gf180mcu_fd_sc_mcu9t5v0__mux2_2
* cell instance $1235 r0 *1 837.76,811.44
X$1235 450 449 328 301 225 329 gf180mcu_fd_sc_mcu9t5v0__mux2_2
* cell instance $1237 r0 *1 627.2,811.44
X$1237 450 449 312 271 225 313 gf180mcu_fd_sc_mcu9t5v0__mux2_2
* cell instance $1239 m0 *1 637.28,801.36
X$1239 450 449 303 244 225 252 gf180mcu_fd_sc_mcu9t5v0__mux2_2
* cell instance $1242 m0 *1 646.8,801.36
X$1242 450 449 304 307 225 284 gf180mcu_fd_sc_mcu9t5v0__mux2_2
* cell instance $1245 m0 *1 834.4,831.6
X$1245 450 449 409 359 225 382 gf180mcu_fd_sc_mcu9t5v0__mux2_2
* cell instance $1249 m0 *1 645.68,821.52
X$1249 450 449 363 362 225 348 gf180mcu_fd_sc_mcu9t5v0__mux2_2
* cell instance $1251 m0 *1 799.68,841.68
X$1251 450 449 410 395 225 396 gf180mcu_fd_sc_mcu9t5v0__mux2_2
* cell instance $1253 m0 *1 799.68,831.6
X$1253 450 378 225 449 gf180mcu_fd_sc_mcu9t5v0__clkbuf_8
* cell instance $1258 m0 *1 836.64,841.68
X$1258 450 449 400 360 225 401 gf180mcu_fd_sc_mcu9t5v0__mux2_2
* cell instance $1265 m0 *1 661.92,791.28
X$1265 256 450 449 245 226 276 gf180mcu_fd_sc_mcu9t5v0__addh_1
* cell instance $1267 r0 *1 682.08,781.2
X$1267 450 246 227 228 248 247 449 gf180mcu_fd_sc_mcu9t5v0__addf_1
* cell instance $1271 m0 *1 700.56,791.28
X$1271 450 449 228 279 gf180mcu_fd_sc_mcu9t5v0__clkinv_2
* cell instance $1274 r0 *1 703.36,791.28
X$1274 259 450 449 229 279 309 gf180mcu_fd_sc_mcu9t5v0__addh_1
* cell instance $1280 r0 *1 749.84,791.28
X$1280 450 232 262 263 274 273 449 gf180mcu_fd_sc_mcu9t5v0__addf_1
* cell instance $1283 m0 *1 768.32,791.28
X$1283 450 233 272 235 249 234 449 gf180mcu_fd_sc_mcu9t5v0__addf_1
* cell instance $1291 r0 *1 786.24,781.2
X$1291 450 449 235 236 gf180mcu_fd_sc_mcu9t5v0__clkinv_2
* cell instance $1297 m0 *1 791.28,801.36
X$1297 450 237 449 292 290 264 gf180mcu_fd_sc_mcu9t5v0__aoi21_2
* cell instance $1299 r0 *1 808.64,781.2
X$1299 449 238 237 450 242 gf180mcu_fd_sc_mcu9t5v0__and2_2
* cell instance $1305 r0 *1 808.08,791.28
X$1305 449 238 241 450 265 gf180mcu_fd_sc_mcu9t5v0__and2_2
* cell instance $1307 m0 *1 809.2,811.44
X$1307 264 449 238 241 450 326 gf180mcu_fd_sc_mcu9t5v0__and3_2
* cell instance $1309 r0 *1 804.16,801.36
X$1309 450 324 449 344 239 293 302 238 gf180mcu_fd_sc_mcu9t5v0__aoi221_2
* cell instance $1311 m0 *1 818.72,821.52
X$1311 238 450 361 449 360 gf180mcu_fd_sc_mcu9t5v0__xor2_2
* cell instance $1313 m0 *1 803.04,811.44
X$1313 291 449 264 238 450 344 gf180mcu_fd_sc_mcu9t5v0__and3_2
* cell instance $1330 m0 *1 815.36,791.28
X$1330 450 449 240 266 269 gf180mcu_fd_sc_mcu9t5v0__nand2_2
* cell instance $1338 r0 *1 817.04,801.36
X$1338 449 241 302 450 301 gf180mcu_fd_sc_mcu9t5v0__xnor2_2
* cell instance $1353 r0 *1 648.48,791.28
X$1353 330 450 449 243 255 307 gf180mcu_fd_sc_mcu9t5v0__addh_1
* cell instance $1388 m0 *1 618.24,801.36
X$1388 450 283 252 253 303 449 gf180mcu_fd_sc_mcu9t5v0__dffrnq_2
* cell instance $1391 m0 *1 27.44,801.36
X$1391 252 449 450 281 gf180mcu_fd_sc_mcu9t5v0__dlyb_2
* cell instance $1396 r0 *1 640.08,801.36
X$1396 450 283 284 253 304 449 gf180mcu_fd_sc_mcu9t5v0__dffrnq_2
* cell instance $1398 m0 *1 699.44,861.84
X$1398 450 283 423 253 415 449 gf180mcu_fd_sc_mcu9t5v0__dffrnq_2
* cell instance $1400 r0 *1 694.4,831.6
X$1400 450 449 253 451 gf180mcu_fd_sc_mcu9t5v0__clkinv_3
* cell instance $1402 r0 *1 638.4,821.52
X$1402 450 283 348 253 363 449 gf180mcu_fd_sc_mcu9t5v0__dffrnq_2
* cell instance $1404 m0 *1 726.32,861.84
X$1404 450 283 424 253 431 449 gf180mcu_fd_sc_mcu9t5v0__dffrnq_2
* cell instance $1407 r0 *1 617.12,791.28
X$1407 450 283 254 253 270 449 gf180mcu_fd_sc_mcu9t5v0__dffrnq_2
* cell instance $1409 m0 *1 674.24,841.68
X$1409 450 283 388 253 403 449 gf180mcu_fd_sc_mcu9t5v0__dffrnq_2
* cell instance $1411 m0 *1 620.48,821.52
X$1411 450 283 313 253 312 449 gf180mcu_fd_sc_mcu9t5v0__dffrnq_2
* cell instance $1414 r0 *1 700,831.6
X$1414 450 394 253 449 gf180mcu_fd_sc_mcu9t5v0__clkbuf_20
* cell instance $1428 m0 *1 10.64,801.36
X$1428 254 449 450 282 gf180mcu_fd_sc_mcu9t5v0__dlyb_2
* cell instance $1436 r0 *1 663.04,791.28
X$1436 450 449 256 308 gf180mcu_fd_sc_mcu9t5v0__clkinv_2
* cell instance $1439 r0 *1 665.84,801.36
X$1439 450 449 257 285 gf180mcu_fd_sc_mcu9t5v0__clkinv_2
* cell instance $1444 r0 *1 705.04,801.36
X$1444 450 449 259 338 gf180mcu_fd_sc_mcu9t5v0__clkinv_2
* cell instance $1447 r0 *1 722.4,791.28
X$1447 450 449 260 261 gf180mcu_fd_sc_mcu9t5v0__clkinv_2
* cell instance $1452 r0 *1 750.96,801.36
X$1452 450 449 262 345 gf180mcu_fd_sc_mcu9t5v0__clkinv_2
* cell instance $1454 r0 *1 767.2,801.36
X$1454 450 449 263 306 gf180mcu_fd_sc_mcu9t5v0__clkinv_2
* cell instance $1457 m0 *1 804.16,821.52
X$1457 449 264 325 450 359 gf180mcu_fd_sc_mcu9t5v0__xnor2_2
* cell instance $1460 m0 *1 793.52,821.52
X$1460 450 449 291 343 264 gf180mcu_fd_sc_mcu9t5v0__nand2_2
* cell instance $1470 r0 *1 817.04,791.28
X$1470 450 266 449 267 294 268 gf180mcu_fd_sc_mcu9t5v0__aoi21_2
* cell instance $1477 r0 *1 774.48,811.44
X$1477 449 356 268 357 322 323 450 gf180mcu_fd_sc_mcu9t5v0__oai211_2
* cell instance $1493 r0 *1 777.84,791.28
X$1493 450 449 272 305 gf180mcu_fd_sc_mcu9t5v0__clkinv_2
* cell instance $1507 m0 *1 663.04,811.44
X$1507 450 449 275 332 gf180mcu_fd_sc_mcu9t5v0__clkinv_2
* cell instance $1512 m0 *1 673.68,791.28
X$1512 450 449 276 278 gf180mcu_fd_sc_mcu9t5v0__clkinv_2
* cell instance $1527 r0 *1 10.08,801.36
X$1527 284 449 450 280 gf180mcu_fd_sc_mcu9t5v0__dlyb_2
* cell instance $1536 r0 *1 834.4,841.68
X$1536 450 283 401 297 400 449 gf180mcu_fd_sc_mcu9t5v0__dffrnq_2
* cell instance $1538 m0 *1 839.44,801.36
X$1538 450 283 298 297 300 449 gf180mcu_fd_sc_mcu9t5v0__dffrnq_2
* cell instance $1540 m0 *1 835.52,821.52
X$1540 450 283 329 297 328 449 gf180mcu_fd_sc_mcu9t5v0__dffrnq_2
* cell instance $1543 r0 *1 805.28,861.84
X$1543 450 283 430 297 434 449 gf180mcu_fd_sc_mcu9t5v0__dffrnq_2
* cell instance $1547 r0 *1 745.36,851.76
X$1547 450 283 418 297 417 449 gf180mcu_fd_sc_mcu9t5v0__dffrnq_2
* cell instance $1550 r0 *1 772.24,871.92
X$1550 450 283 428 297 436 449 gf180mcu_fd_sc_mcu9t5v0__dffrnq_2
* cell instance $1555 m0 *1 770.56,851.76
X$1555 450 283 408 297 393 449 gf180mcu_fd_sc_mcu9t5v0__dffrnq_4
* cell instance $1558 m0 *1 742.56,892.08
X$1558 450 439 283 449 gf180mcu_fd_sc_mcu9t5v0__inv_8
* cell instance $1560 r0 *1 790.16,831.6
X$1560 450 283 396 297 410 449 gf180mcu_fd_sc_mcu9t5v0__dffrnq_4
* cell instance $1562 m0 *1 818.72,851.76
X$1562 450 283 407 297 399 449 gf180mcu_fd_sc_mcu9t5v0__dffrnq_4
* cell instance $1565 r0 *1 832.72,831.6
X$1565 450 283 382 297 409 449 gf180mcu_fd_sc_mcu9t5v0__dffrnq_4
* cell instance $1568 r0 *1 795.2,882
X$1568 450 283 429 297 437 449 gf180mcu_fd_sc_mcu9t5v0__dffrnq_4
* cell instance $1597 r0 *1 661.36,811.44
X$1597 333 450 449 285 332 334 gf180mcu_fd_sc_mcu9t5v0__addh_1
* cell instance $1604 m0 *1 701.68,811.44
X$1604 450 449 287 337 gf180mcu_fd_sc_mcu9t5v0__clkinv_2
* cell instance $1607 r0 *1 732.48,801.36
X$1607 450 449 288 342 gf180mcu_fd_sc_mcu9t5v0__clkinv_2
* cell instance $1609 m0 *1 733.04,801.36
X$1609 450 449 310 289 gf180mcu_fd_sc_mcu9t5v0__clkinv_2
* cell instance $1611 m0 *1 733.04,811.44
X$1611 450 289 318 346 342 319 449 gf180mcu_fd_sc_mcu9t5v0__addf_1
* cell instance $1613 r0 *1 779.52,801.36
X$1613 450 290 291 305 306 449 gf180mcu_fd_sc_mcu9t5v0__addh_2
* cell instance $1616 m0 *1 792.96,811.44
X$1616 450 291 290 449 331 gf180mcu_fd_sc_mcu9t5v0__or2_2
* cell instance $1619 r0 *1 795.2,811.44
X$1619 450 290 449 325 324 291 gf180mcu_fd_sc_mcu9t5v0__aoi21_2
* cell instance $1621 m0 *1 780.64,811.44
X$1621 450 449 290 323 gf180mcu_fd_sc_mcu9t5v0__clkinv_2
* cell instance $1626 r0 *1 794.64,821.52
X$1626 449 291 358 450 395 gf180mcu_fd_sc_mcu9t5v0__xnor2_2
* cell instance $1635 r0 *1 812.56,811.44
X$1635 450 449 291 327 326 gf180mcu_fd_sc_mcu9t5v0__nand2_2
* cell instance $1641 r0 *1 804.72,811.44
X$1641 449 292 450 343 361 358 gf180mcu_fd_sc_mcu9t5v0__oai21_2
* cell instance $1645 m0 *1 803.04,801.36
X$1645 450 449 292 293 gf180mcu_fd_sc_mcu9t5v0__clkinv_2
* cell instance $1656 r0 *1 813.68,831.6
X$1656 450 449 398 379 295 411 gf180mcu_fd_sc_mcu9t5v0__mux2_2
* cell instance $1661 r0 *1 782.88,841.68
X$1661 450 394 297 449 gf180mcu_fd_sc_mcu9t5v0__clkbuf_20
* cell instance $1691 r0 *1 1534.4,801.36
X$1691 298 449 450 299 gf180mcu_fd_sc_mcu9t5v0__dlyb_2
* cell instance $1741 r0 *1 10.64,811.44
X$1741 313 449 450 311 gf180mcu_fd_sc_mcu9t5v0__dlyb_2
* cell instance $1753 r0 *1 670.88,811.44
X$1753 450 449 314 366 gf180mcu_fd_sc_mcu9t5v0__clkinv_2
* cell instance $1755 m0 *1 694.96,811.44
X$1755 450 449 336 315 gf180mcu_fd_sc_mcu9t5v0__clkinv_2
* cell instance $1757 m0 *1 700.56,821.52
X$1757 368 450 449 367 315 351 gf180mcu_fd_sc_mcu9t5v0__addh_1
* cell instance $1761 m0 *1 705.6,811.44
X$1761 450 337 339 341 338 316 449 gf180mcu_fd_sc_mcu9t5v0__addf_1