* CDL Netlist generated by OpenROAD

*.BUSDELIMITER [

.SUBCKT booth_multiplier clk done multiplicand[0] multiplicand[1]
+ multiplicand[2] multiplicand[3] multiplicand[4] multiplicand[5]
+ multiplicand[6] multiplicand[7] multiplier[0] multiplier[1]
+ multiplier[2] multiplier[3] multiplier[4] multiplier[5] multiplier[6]
+ multiplier[7] product[0] product[10] product[11] product[12]
+ product[13] product[14] product[15] product[1] product[2]
+ product[3] product[4] product[5] product[6] product[7] product[8]
+ product[9] rst start
X_375_ state _018_ VDD VSS gf180mcu_fd_sc_mcu9t5v0__clkinv_2
X_376_ _018_ _281_ _019_ VDD VSS gf180mcu_fd_sc_mcu9t5v0__and2_2
X_377_ _019_ _020_ VDD VSS gf180mcu_fd_sc_mcu9t5v0__buf_4
X_378_ _020_ _021_ VDD VSS gf180mcu_fd_sc_mcu9t5v0__clkinv_2
X_379_ _018_ net19 _021_ _374_ VDD VSS gf180mcu_fd_sc_mcu9t5v0__oai21_2
X_380_ net9 net2 _284_ VDD VSS gf180mcu_fd_sc_mcu9t5v0__and2_2
X_381_ net1 net10 _283_ VDD VSS gf180mcu_fd_sc_mcu9t5v0__and2_2
X_382_ net1 net11 _081_ VDD VSS gf180mcu_fd_sc_mcu9t5v0__nand2_2
X_383_ net9 net4 _088_ VDD VSS gf180mcu_fd_sc_mcu9t5v0__nand2_2
X_384_ net10 net3 _087_ VDD VSS gf180mcu_fd_sc_mcu9t5v0__nand2_2
X_385_ net2 net11 _086_ VDD VSS gf180mcu_fd_sc_mcu9t5v0__nand2_2
X_386_ net1 net12 _091_ VDD VSS gf180mcu_fd_sc_mcu9t5v0__nand2_2
X_387_ net9 net5 _095_ VDD VSS gf180mcu_fd_sc_mcu9t5v0__nand2_2
X_388_ net10 net4 _094_ VDD VSS gf180mcu_fd_sc_mcu9t5v0__nand2_2
X_389_ net3 net11 _096_ VDD VSS gf180mcu_fd_sc_mcu9t5v0__nand2_2
X_390_ net2 net12 _294_ VDD VSS gf180mcu_fd_sc_mcu9t5v0__and2_2
X_391_ net1 net13 _293_ VDD VSS gf180mcu_fd_sc_mcu9t5v0__and2_2
X_392_ net9 net7 _104_ VDD VSS gf180mcu_fd_sc_mcu9t5v0__nand2_2
X_393_ net10 net6 _103_ VDD VSS gf180mcu_fd_sc_mcu9t5v0__nand2_2
X_394_ net11 net5 _102_ VDD VSS gf180mcu_fd_sc_mcu9t5v0__nand2_2
X_395_ net10 net5 _116_ VDD VSS gf180mcu_fd_sc_mcu9t5v0__and2_2
X_396_ net11 net4 _115_ VDD VSS gf180mcu_fd_sc_mcu9t5v0__and2_2
X_397_ net4 net12 _109_ VDD VSS gf180mcu_fd_sc_mcu9t5v0__and2_2
X_398_ net3 net13 _108_ VDD VSS gf180mcu_fd_sc_mcu9t5v0__and2_2
X_399_ net2 net14 _107_ VDD VSS gf180mcu_fd_sc_mcu9t5v0__and2_2
X_400_ net1 net15 _303_ VDD VSS gf180mcu_fd_sc_mcu9t5v0__and2_2
X_401_ net10 net7 _142_ VDD VSS gf180mcu_fd_sc_mcu9t5v0__nand2_2
X_402_ net11 net6 _148_ VDD VSS gf180mcu_fd_sc_mcu9t5v0__nand2_2
X_403_ net12 net5 _146_ VDD VSS gf180mcu_fd_sc_mcu9t5v0__nand2_2
X_404_ net4 net13 _147_ VDD VSS gf180mcu_fd_sc_mcu9t5v0__nand2_2
X_405_ net3 net14 _153_ VDD VSS gf180mcu_fd_sc_mcu9t5v0__and2_2
X_406_ net2 net15 _155_ VDD VSS gf180mcu_fd_sc_mcu9t5v0__and2_2
X_407_ net16 _141_ VDD VSS gf180mcu_fd_sc_mcu9t5v0__inv_4
X_408_ net1 _141_ _154_ VDD VSS gf180mcu_fd_sc_mcu9t5v0__nor2_2
X_409_ _165_ _162_ VDD VSS gf180mcu_fd_sc_mcu9t5v0__clkinv_2
X_410_ net11 net7 _319_ VDD VSS gf180mcu_fd_sc_mcu9t5v0__and2_2
X_411_ net12 net6 _168_ VDD VSS gf180mcu_fd_sc_mcu9t5v0__nand2_2
X_412_ net5 net13 _167_ VDD VSS gf180mcu_fd_sc_mcu9t5v0__nand2_2
X_413_ net4 net14 _166_ VDD VSS gf180mcu_fd_sc_mcu9t5v0__nand2_2
X_414_ net3 net15 _323_ VDD VSS gf180mcu_fd_sc_mcu9t5v0__and2_2
X_415_ net2 _141_ _324_ VDD VSS gf180mcu_fd_sc_mcu9t5v0__nor2_2
X_416_ net11 net8 _329_ VDD VSS gf180mcu_fd_sc_mcu9t5v0__and2_2
X_417_ net9 net10 net8 _022_ VDD VSS gf180mcu_fd_sc_mcu9t5v0__and3_2
X_418_ _321_ _022_ _191_ VDD VSS gf180mcu_fd_sc_mcu9t5v0__nor2_2
X_419_ net12 net7 _186_ VDD VSS gf180mcu_fd_sc_mcu9t5v0__nand2_2
X_420_ net13 net6 _187_ VDD VSS gf180mcu_fd_sc_mcu9t5v0__nand2_2
X_421_ net5 net14 _185_ VDD VSS gf180mcu_fd_sc_mcu9t5v0__nand2_2
X_422_ net4 net15 _333_ VDD VSS gf180mcu_fd_sc_mcu9t5v0__and2_2
X_423_ net3 _141_ _332_ VDD VSS gf180mcu_fd_sc_mcu9t5v0__nor2_2
X_424_ _330_ _022_ _209_ VDD VSS gf180mcu_fd_sc_mcu9t5v0__nor2_4
X_425_ net12 net8 _204_ VDD VSS gf180mcu_fd_sc_mcu9t5v0__and2_2
X_426_ net13 net7 _205_ VDD VSS gf180mcu_fd_sc_mcu9t5v0__and2_2
X_427_ net6 net14 _206_ VDD VSS gf180mcu_fd_sc_mcu9t5v0__and2_2
X_428_ net5 net15 _337_ VDD VSS gf180mcu_fd_sc_mcu9t5v0__and2_2
X_429_ net4 _141_ _338_ VDD VSS gf180mcu_fd_sc_mcu9t5v0__nor2_2
X_430_ _314_ _138_ VDD VSS gf180mcu_fd_sc_mcu9t5v0__clkinv_2
X_431_ net13 net8 _225_ VDD VSS gf180mcu_fd_sc_mcu9t5v0__and2_2
X_432_ net7 net14 _224_ VDD VSS gf180mcu_fd_sc_mcu9t5v0__and2_2
X_433_ net6 net15 _344_ VDD VSS gf180mcu_fd_sc_mcu9t5v0__and2_2
X_434_ net5 _141_ _343_ VDD VSS gf180mcu_fd_sc_mcu9t5v0__nor2_2
X_435_ net14 net8 _241_ VDD VSS gf180mcu_fd_sc_mcu9t5v0__and2_2
X_436_ net7 net15 _350_ VDD VSS gf180mcu_fd_sc_mcu9t5v0__and2_2
X_437_ net6 _141_ _351_ VDD VSS gf180mcu_fd_sc_mcu9t5v0__nor2_2
X_438_ net15 net8 _359_ VDD VSS gf180mcu_fd_sc_mcu9t5v0__and2_2
X_439_ net7 _141_ _360_ VDD VSS gf180mcu_fd_sc_mcu9t5v0__nor2_2
X_440_ net17 _000_ VDD VSS gf180mcu_fd_sc_mcu9t5v0__inv_8
X_441_ net1 net14 _120_ VDD VSS gf180mcu_fd_sc_mcu9t5v0__nand2_2
X_442_ _295_ _133_ VDD VSS gf180mcu_fd_sc_mcu9t5v0__clkinv_2
X_443_ net2 net10 _082_ VDD VSS gf180mcu_fd_sc_mcu9t5v0__nand2_2
X_444_ net2 net13 _121_ VDD VSS gf180mcu_fd_sc_mcu9t5v0__nand2_2
X_445_ net9 net3 _083_ VDD VSS gf180mcu_fd_sc_mcu9t5v0__nand2_2
X_446_ net3 net12 _122_ VDD VSS gf180mcu_fd_sc_mcu9t5v0__nand2_2
X_447_ net9 net8 _143_ VDD VSS gf180mcu_fd_sc_mcu9t5v0__nand2_2
X_448_ _119_ _131_ VDD VSS gf180mcu_fd_sc_mcu9t5v0__clkinv_2
X_449_ _129_ _306_ VDD VSS gf180mcu_fd_sc_mcu9t5v0__clkinv_2
X_450_ _198_ _199_ VDD VSS gf180mcu_fd_sc_mcu9t5v0__clkinv_2
X_451_ _208_ _210_ VDD VSS gf180mcu_fd_sc_mcu9t5v0__clkinv_2
X_452_ _217_ _218_ VDD VSS gf180mcu_fd_sc_mcu9t5v0__clkinv_2
X_453_ _227_ _228_ VDD VSS gf180mcu_fd_sc_mcu9t5v0__clkinv_2
X_454_ _234_ _235_ VDD VSS gf180mcu_fd_sc_mcu9t5v0__clkinv_2
X_455_ _243_ _244_ VDD VSS gf180mcu_fd_sc_mcu9t5v0__clkinv_2
X_456_ _250_ _251_ VDD VSS gf180mcu_fd_sc_mcu9t5v0__clkinv_2
X_457_ _260_ _261_ VDD VSS gf180mcu_fd_sc_mcu9t5v0__clkinv_2
X_458_ _270_ _271_ VDD VSS gf180mcu_fd_sc_mcu9t5v0__clkinv_2
X_459_ _118_ _112_ VDD VSS gf180mcu_fd_sc_mcu9t5v0__clkinv_2
X_460_ _128_ _161_ VDD VSS gf180mcu_fd_sc_mcu9t5v0__clkinv_2
X_461_ _156_ _174_ VDD VSS gf180mcu_fd_sc_mcu9t5v0__clkinv_2
X_462_ _197_ _221_ VDD VSS gf180mcu_fd_sc_mcu9t5v0__clkinv_2
X_463_ _216_ _238_ VDD VSS gf180mcu_fd_sc_mcu9t5v0__clkinv_2
X_464_ _233_ _254_ VDD VSS gf180mcu_fd_sc_mcu9t5v0__clkinv_2
X_465_ _249_ _264_ VDD VSS gf180mcu_fd_sc_mcu9t5v0__clkinv_2
X_466_ _259_ _274_ VDD VSS gf180mcu_fd_sc_mcu9t5v0__clkinv_2
X_467_ net18 _277_ VDD VSS gf180mcu_fd_sc_mcu9t5v0__clkinv_2
X_468_ _092_ _297_ VDD VSS gf180mcu_fd_sc_mcu9t5v0__clkinv_2
X_469_ _097_ _130_ VDD VSS gf180mcu_fd_sc_mcu9t5v0__clkinv_2
X_470_ _134_ _305_ VDD VSS gf180mcu_fd_sc_mcu9t5v0__clkinv_2
X_471_ _164_ _316_ VDD VSS gf180mcu_fd_sc_mcu9t5v0__clkinv_2
X_472_ _179_ _180_ VDD VSS gf180mcu_fd_sc_mcu9t5v0__clkinv_2
X_473_ _163_ _326_ VDD VSS gf180mcu_fd_sc_mcu9t5v0__clkinv_2
X_474_ _169_ _194_ VDD VSS gf180mcu_fd_sc_mcu9t5v0__clkinv_2
X_475_ _223_ _339_ VDD VSS gf180mcu_fd_sc_mcu9t5v0__clkinv_2
X_476_ _240_ _345_ VDD VSS gf180mcu_fd_sc_mcu9t5v0__clkinv_2
X_477_ _246_ _349_ VDD VSS gf180mcu_fd_sc_mcu9t5v0__clkinv_2
X_478_ _256_ _352_ VDD VSS gf180mcu_fd_sc_mcu9t5v0__clkinv_2
X_479_ _255_ _361_ VDD VSS gf180mcu_fd_sc_mcu9t5v0__clkinv_2
X_480_ _276_ _369_ VDD VSS gf180mcu_fd_sc_mcu9t5v0__clkinv_2
X_481_ start_r _280_ VDD VSS gf180mcu_fd_sc_mcu9t5v0__clkinv_2
X_482_ _085_ _287_ VDD VSS gf180mcu_fd_sc_mcu9t5v0__clkinv_2
X_483_ _093_ _290_ VDD VSS gf180mcu_fd_sc_mcu9t5v0__clkinv_2
X_484_ _101_ _298_ VDD VSS gf180mcu_fd_sc_mcu9t5v0__clkinv_2
X_485_ net9 net6 _117_ VDD VSS gf180mcu_fd_sc_mcu9t5v0__and2_2
X_486_ _114_ _127_ VDD VSS gf180mcu_fd_sc_mcu9t5v0__clkinv_2
X_487_ _123_ _304_ VDD VSS gf180mcu_fd_sc_mcu9t5v0__clkinv_2
X_488_ _135_ _312_ VDD VSS gf180mcu_fd_sc_mcu9t5v0__clkinv_2
X_489_ _159_ _181_ VDD VSS gf180mcu_fd_sc_mcu9t5v0__clkinv_2
X_490_ net9 net10 _023_ VDD VSS gf180mcu_fd_sc_mcu9t5v0__xor2_2
X_491_ net8 _023_ _320_ VDD VSS gf180mcu_fd_sc_mcu9t5v0__and2_2
X_492_ _203_ _334_ VDD VSS gf180mcu_fd_sc_mcu9t5v0__clkinv_2
X_493_ _188_ _215_ VDD VSS gf180mcu_fd_sc_mcu9t5v0__clkinv_2
X_494_ _202_ _340_ VDD VSS gf180mcu_fd_sc_mcu9t5v0__clkinv_2
X_495_ _222_ _346_ VDD VSS gf180mcu_fd_sc_mcu9t5v0__clkinv_2
X_496_ _239_ _353_ VDD VSS gf180mcu_fd_sc_mcu9t5v0__clkinv_2
X_497_ _245_ _356_ VDD VSS gf180mcu_fd_sc_mcu9t5v0__clkinv_2
X_498_ _266_ _362_ VDD VSS gf180mcu_fd_sc_mcu9t5v0__clkinv_2
X_499_ net8 _141_ _365_ VDD VSS gf180mcu_fd_sc_mcu9t5v0__nor2_2
X_500_ _265_ _370_ VDD VSS gf180mcu_fd_sc_mcu9t5v0__clkinv_2
X_501_ _308_ _137_ VDD VSS gf180mcu_fd_sc_mcu9t5v0__clkinv_2
X_502_ _315_ _158_ VDD VSS gf180mcu_fd_sc_mcu9t5v0__clkinv_2
X_503_ _322_ _171_ VDD VSS gf180mcu_fd_sc_mcu9t5v0__clkinv_2
X_504_ _331_ _190_ VDD VSS gf180mcu_fd_sc_mcu9t5v0__clkinv_3
X_505_ _296_ _099_ VDD VSS gf180mcu_fd_sc_mcu9t5v0__clkinv_2
X_506_ _325_ _175_ VDD VSS gf180mcu_fd_sc_mcu9t5v0__clkinv_2
X_507_ _309_ _136_ VDD VSS gf180mcu_fd_sc_mcu9t5v0__clkinv_2
X_508_ _018_ net19 _279_ _024_ VDD VSS gf180mcu_fd_sc_mcu9t5v0__nand3_2
X_509_ _018_ _278_ _024_ _001_ VDD VSS gf180mcu_fd_sc_mcu9t5v0__oai21_2
X_510_ net9 net1 _025_ VDD VSS gf180mcu_fd_sc_mcu9t5v0__and2_2
X_511_ _020_ _026_ VDD VSS gf180mcu_fd_sc_mcu9t5v0__clkbuf_8
X_512_ net20 _025_ _026_ _002_ VDD VSS gf180mcu_fd_sc_mcu9t5v0__mux2_2
X_513_ _311_ _314_ _310_ _317_ _027_ VDD VSS gf180mcu_fd_sc_mcu9t5v0__aoi211_2
X_514_ _318_ _317_ _328_ _028_ VDD VSS gf180mcu_fd_sc_mcu9t5v0__oai21_2
X_515_ _327_ _029_ VDD VSS gf180mcu_fd_sc_mcu9t5v0__clkinv_2
X_516_ _027_ _028_ _029_ _030_ VDD VSS gf180mcu_fd_sc_mcu9t5v0__oai21_2
X_517_ _336_ _030_ _335_ _031_ VDD VSS gf180mcu_fd_sc_mcu9t5v0__aoi21_4
X_518_ _342_ _031_ _032_ VDD VSS gf180mcu_fd_sc_mcu9t5v0__xnor2_2
X_519_ net21 _032_ _026_ _003_ VDD VSS gf180mcu_fd_sc_mcu9t5v0__mux2_2
X_520_ _139_ _033_ VDD VSS gf180mcu_fd_sc_mcu9t5v0__clkinv_2
X_521_ _318_ _033_ _317_ _327_ _034_ VDD VSS gf180mcu_fd_sc_mcu9t5v0__aoi211_4
X_522_ _328_ _327_ _336_ _035_ VDD VSS gf180mcu_fd_sc_mcu9t5v0__oai21_2
X_523_ _335_ _036_ VDD VSS gf180mcu_fd_sc_mcu9t5v0__clkinv_2
X_524_ _034_ _035_ _036_ _037_ VDD VSS gf180mcu_fd_sc_mcu9t5v0__oai21_2
X_525_ _342_ _037_ _341_ _038_ VDD VSS gf180mcu_fd_sc_mcu9t5v0__aoi21_2
X_526_ _348_ _038_ _039_ VDD VSS gf180mcu_fd_sc_mcu9t5v0__xnor2_2
X_527_ net22 _039_ _026_ _004_ VDD VSS gf180mcu_fd_sc_mcu9t5v0__mux2_2
X_528_ _342_ _348_ _040_ VDD VSS gf180mcu_fd_sc_mcu9t5v0__nand2_2
X_529_ _348_ _341_ _347_ _041_ VDD VSS gf180mcu_fd_sc_mcu9t5v0__aoi21_2
X_530_ _031_ _040_ _041_ _042_ VDD VSS gf180mcu_fd_sc_mcu9t5v0__oai21_2
X_531_ _355_ _042_ _043_ VDD VSS gf180mcu_fd_sc_mcu9t5v0__xor2_2
X_532_ net23 _043_ _026_ _005_ VDD VSS gf180mcu_fd_sc_mcu9t5v0__mux2_2
X_533_ _041_ _044_ VDD VSS gf180mcu_fd_sc_mcu9t5v0__clkinv_2
X_534_ _342_ _348_ _355_ _045_ VDD VSS gf180mcu_fd_sc_mcu9t5v0__and3_2
X_535_ _355_ _044_ _045_ _037_ _354_ _046_ VDD VSS gf180mcu_fd_sc_mcu9t5v0__aoi221_2
X_536_ _364_ _046_ _047_ VDD VSS gf180mcu_fd_sc_mcu9t5v0__xnor2_2
X_537_ net24 _047_ _026_ _006_ VDD VSS gf180mcu_fd_sc_mcu9t5v0__mux2_2
X_538_ _372_ _048_ VDD VSS gf180mcu_fd_sc_mcu9t5v0__clkinv_2
X_539_ _348_ _355_ _364_ _049_ VDD VSS gf180mcu_fd_sc_mcu9t5v0__and3_2
X_540_ _342_ _049_ _050_ VDD VSS gf180mcu_fd_sc_mcu9t5v0__nand2_2
X_541_ _372_ _050_ _051_ VDD VSS gf180mcu_fd_sc_mcu9t5v0__and2_2
X_542_ _355_ _364_ _052_ VDD VSS gf180mcu_fd_sc_mcu9t5v0__and2_2
X_543_ _364_ _354_ _044_ _052_ _363_ _053_ VDD VSS gf180mcu_fd_sc_mcu9t5v0__aoi221_4
X_544_ _048_ _051_ _053_ _054_ VDD VSS gf180mcu_fd_sc_mcu9t5v0__mux2_2
X_545_ net25 _054_ _020_ _055_ VDD VSS gf180mcu_fd_sc_mcu9t5v0__mux2_2
X_546_ _372_ _020_ _031_ _053_ _056_ VDD VSS gf180mcu_fd_sc_mcu9t5v0__and4_2
X_547_ _372_ _021_ _031_ _050_ _057_ VDD VSS gf180mcu_fd_sc_mcu9t5v0__nor4_2
X_548_ _055_ _056_ _057_ _007_ VDD VSS gf180mcu_fd_sc_mcu9t5v0__or3_2
X_549_ _272_ _275_ _058_ VDD VSS gf180mcu_fd_sc_mcu9t5v0__xor2_2
X_550_ _269_ _368_ _058_ _059_ VDD VSS gf180mcu_fd_sc_mcu9t5v0__xnor3_2
X_551_ _366_ _358_ _059_ _060_ VDD VSS gf180mcu_fd_sc_mcu9t5v0__xnor3_2
X_552_ _341_ _061_ VDD VSS gf180mcu_fd_sc_mcu9t5v0__clkinv_2
X_553_ _034_ _035_ _036_ _061_ _062_ VDD VSS gf180mcu_fd_sc_mcu9t5v0__oai211_2
X_554_ _342_ _341_ _063_ VDD VSS gf180mcu_fd_sc_mcu9t5v0__or2_2
X_555_ _372_ _049_ _063_ _064_ VDD VSS gf180mcu_fd_sc_mcu9t5v0__and3_2
X_556_ _355_ _347_ _065_ VDD VSS gf180mcu_fd_sc_mcu9t5v0__and2_2
X_557_ _354_ _065_ _364_ _372_ _066_ VDD VSS gf180mcu_fd_sc_mcu9t5v0__oai211_2
X_558_ _372_ _363_ _371_ _067_ VDD VSS gf180mcu_fd_sc_mcu9t5v0__aoi21_2
X_559_ _066_ _067_ _068_ VDD VSS gf180mcu_fd_sc_mcu9t5v0__nand2_2
X_560_ _062_ _064_ _068_ _069_ VDD VSS gf180mcu_fd_sc_mcu9t5v0__aoi21_2
X_561_ _060_ _069_ _070_ VDD VSS gf180mcu_fd_sc_mcu9t5v0__xnor2_2
X_562_ net26 _070_ _026_ _008_ VDD VSS gf180mcu_fd_sc_mcu9t5v0__mux2_2
X_563_ net27 _286_ _026_ _009_ VDD VSS gf180mcu_fd_sc_mcu9t5v0__mux2_2
X_564_ net28 _289_ _026_ _010_ VDD VSS gf180mcu_fd_sc_mcu9t5v0__mux2_2
X_565_ net29 _292_ _026_ _011_ VDD VSS gf180mcu_fd_sc_mcu9t5v0__mux2_2
X_566_ net30 _302_ _026_ _012_ VDD VSS gf180mcu_fd_sc_mcu9t5v0__mux2_2
X_567_ net31 _373_ _020_ _013_ VDD VSS gf180mcu_fd_sc_mcu9t5v0__mux2_2
X_568_ _140_ _071_ VDD VSS gf180mcu_fd_sc_mcu9t5v0__clkinv_2
X_569_ net32 _071_ _020_ _014_ VDD VSS gf180mcu_fd_sc_mcu9t5v0__mux2_2
X_570_ _318_ _139_ _072_ VDD VSS gf180mcu_fd_sc_mcu9t5v0__xnor2_2
X_571_ net33 _072_ _020_ _015_ VDD VSS gf180mcu_fd_sc_mcu9t5v0__mux2_2
X_572_ _311_ _314_ _073_ VDD VSS gf180mcu_fd_sc_mcu9t5v0__and2_2
X_573_ _310_ _073_ _074_ VDD VSS gf180mcu_fd_sc_mcu9t5v0__or2_2
X_574_ _318_ _074_ _317_ _075_ VDD VSS gf180mcu_fd_sc_mcu9t5v0__aoi21_2
X_575_ _328_ _075_ _076_ VDD VSS gf180mcu_fd_sc_mcu9t5v0__xnor2_2
X_576_ net34 _076_ _020_ _016_ VDD VSS gf180mcu_fd_sc_mcu9t5v0__mux2_2
X_577_ _318_ _033_ _077_ VDD VSS gf180mcu_fd_sc_mcu9t5v0__and2_2
X_578_ _317_ _077_ _328_ _078_ VDD VSS gf180mcu_fd_sc_mcu9t5v0__oai21_2
X_579_ _029_ _078_ _079_ VDD VSS gf180mcu_fd_sc_mcu9t5v0__and2_2
X_580_ _336_ _079_ _080_ VDD VSS gf180mcu_fd_sc_mcu9t5v0__xnor2_2
X_581_ net35 _080_ _020_ _017_ VDD VSS gf180mcu_fd_sc_mcu9t5v0__mux2_2
X_582_ _081_ _082_ _083_ _084_ _085_ VDD VSS gf180mcu_fd_sc_mcu9t5v0__addf_1
X_583_ _086_ _087_ _088_ _089_ _090_ VDD VSS gf180mcu_fd_sc_mcu9t5v0__addf_1
X_584_ _091_ _084_ _090_ _092_ _093_ VDD VSS gf180mcu_fd_sc_mcu9t5v0__addf_1
X_585_ _094_ _095_ _096_ _097_ _098_ VDD VSS gf180mcu_fd_sc_mcu9t5v0__addf_1
X_586_ _099_ _089_ _098_ _100_ _101_ VDD VSS gf180mcu_fd_sc_mcu9t5v0__addf_1
X_587_ _102_ _103_ _104_ _105_ _106_ VDD VSS gf180mcu_fd_sc_mcu9t5v0__addf_1
X_588_ _107_ _108_ _109_ _110_ _111_ VDD VSS gf180mcu_fd_sc_mcu9t5v0__addf_1
X_589_ _111_ _112_ _106_ _113_ _114_ VDD VSS gf180mcu_fd_sc_mcu9t5v0__addf_1
X_590_ _115_ _116_ _117_ _118_ _119_ VDD VSS gf180mcu_fd_sc_mcu9t5v0__addf_1
X_591_ _120_ _121_ _122_ _123_ _124_ VDD VSS gf180mcu_fd_sc_mcu9t5v0__addf_1
X_592_ _125_ _126_ _127_ _128_ _129_ VDD VSS gf180mcu_fd_sc_mcu9t5v0__addf_1
X_593_ _124_ _130_ _131_ _125_ _132_ VDD VSS gf180mcu_fd_sc_mcu9t5v0__addf_1
X_594_ _133_ _100_ _132_ _134_ _135_ VDD VSS gf180mcu_fd_sc_mcu9t5v0__addf_1
X_595_ _136_ _137_ _138_ _139_ _140_ VDD VSS gf180mcu_fd_sc_mcu9t5v0__addf_2
X_596_ _141_ _142_ _143_ _144_ _145_ VDD VSS gf180mcu_fd_sc_mcu9t5v0__addf_1
X_597_ _146_ _147_ _148_ _149_ _150_ VDD VSS gf180mcu_fd_sc_mcu9t5v0__addf_1
X_598_ _145_ _105_ _150_ _151_ _152_ VDD VSS gf180mcu_fd_sc_mcu9t5v0__addf_1
X_599_ _153_ _154_ _155_ _156_ _157_ VDD VSS gf180mcu_fd_sc_mcu9t5v0__addf_1
X_600_ _113_ _152_ _158_ _159_ _160_ VDD VSS gf180mcu_fd_sc_mcu9t5v0__addf_1
X_601_ _161_ _162_ _160_ _163_ _164_ VDD VSS gf180mcu_fd_sc_mcu9t5v0__addf_1
X_602_ _166_ _167_ _168_ _169_ _170_ VDD VSS gf180mcu_fd_sc_mcu9t5v0__addf_1
X_603_ _170_ _171_ _144_ _172_ _173_ VDD VSS gf180mcu_fd_sc_mcu9t5v0__addf_1
X_604_ _174_ _149_ _175_ _176_ _177_ VDD VSS gf180mcu_fd_sc_mcu9t5v0__addf_1
X_605_ _177_ _151_ _173_ _178_ _179_ VDD VSS gf180mcu_fd_sc_mcu9t5v0__addf_1
X_606_ _180_ _181_ _182_ _183_ _184_ VDD VSS gf180mcu_fd_sc_mcu9t5v0__addf_1
X_607_ _185_ _186_ _187_ _188_ _189_ VDD VSS gf180mcu_fd_sc_mcu9t5v0__addf_2
X_608_ _189_ _190_ _191_ _192_ _193_ VDD VSS gf180mcu_fd_sc_mcu9t5v0__addf_2
X_609_ _194_ _195_ _196_ _197_ _198_ VDD VSS gf180mcu_fd_sc_mcu9t5v0__addf_1
X_610_ _193_ _172_ _199_ _200_ _201_ VDD VSS gf180mcu_fd_sc_mcu9t5v0__addf_1
X_611_ _176_ _178_ _201_ _202_ _203_ VDD VSS gf180mcu_fd_sc_mcu9t5v0__addf_1
X_612_ _204_ _205_ _206_ _207_ _208_ VDD VSS gf180mcu_fd_sc_mcu9t5v0__addf_1
X_613_ _209_ _210_ _190_ _211_ _212_ VDD VSS gf180mcu_fd_sc_mcu9t5v0__addf_1
X_614_ _213_ _214_ _215_ _216_ _217_ VDD VSS gf180mcu_fd_sc_mcu9t5v0__addf_1
X_615_ _212_ _192_ _218_ _219_ _220_ VDD VSS gf180mcu_fd_sc_mcu9t5v0__addf_1
X_616_ _200_ _221_ _220_ _222_ _223_ VDD VSS gf180mcu_fd_sc_mcu9t5v0__addf_1
X_617_ _204_ _224_ _225_ _226_ _227_ VDD VSS gf180mcu_fd_sc_mcu9t5v0__addf_1
X_618_ _209_ _190_ _228_ _229_ _230_ VDD VSS gf180mcu_fd_sc_mcu9t5v0__addf_1
X_619_ _231_ _207_ _232_ _233_ _234_ VDD VSS gf180mcu_fd_sc_mcu9t5v0__addf_1
X_620_ _235_ _211_ _230_ _236_ _237_ VDD VSS gf180mcu_fd_sc_mcu9t5v0__addf_1
X_621_ _237_ _219_ _238_ _239_ _240_ VDD VSS gf180mcu_fd_sc_mcu9t5v0__addf_1
X_622_ _204_ _241_ _225_ _242_ _243_ VDD VSS gf180mcu_fd_sc_mcu9t5v0__addf_2
X_623_ _209_ _190_ _244_ _245_ _246_ VDD VSS gf180mcu_fd_sc_mcu9t5v0__addf_4
X_624_ _226_ _247_ _248_ _249_ _250_ VDD VSS gf180mcu_fd_sc_mcu9t5v0__addf_1
X_625_ _246_ _229_ _251_ _252_ _253_ VDD VSS gf180mcu_fd_sc_mcu9t5v0__addf_1
X_626_ _253_ _236_ _254_ _255_ _256_ VDD VSS gf180mcu_fd_sc_mcu9t5v0__addf_1
X_627_ _242_ _257_ _258_ _259_ _260_ VDD VSS gf180mcu_fd_sc_mcu9t5v0__addf_1
X_628_ _246_ _245_ _261_ _262_ _263_ VDD VSS gf180mcu_fd_sc_mcu9t5v0__addf_1
X_629_ _263_ _252_ _264_ _265_ _266_ VDD VSS gf180mcu_fd_sc_mcu9t5v0__addf_1
X_630_ _242_ _267_ _268_ _269_ _270_ VDD VSS gf180mcu_fd_sc_mcu9t5v0__addf_1
X_631_ _246_ _245_ _271_ _272_ _273_ VDD VSS gf180mcu_fd_sc_mcu9t5v0__addf_1
X_632_ _262_ _274_ _273_ _275_ _276_ VDD VSS gf180mcu_fd_sc_mcu9t5v0__addf_1
X_633_ _277_ start_r _278_ _279_ VDD VSS gf180mcu_fd_sc_mcu9t5v0__addh_1
X_634_ net18 _280_ _281_ _282_ VDD VSS gf180mcu_fd_sc_mcu9t5v0__addh_1
X_635_ _283_ _284_ _285_ _286_ VDD VSS gf180mcu_fd_sc_mcu9t5v0__addh_1
X_636_ _285_ _287_ _288_ _289_ VDD VSS gf180mcu_fd_sc_mcu9t5v0__addh_1
X_637_ _288_ _290_ _291_ _292_ VDD VSS gf180mcu_fd_sc_mcu9t5v0__addh_1
X_638_ _293_ _294_ _295_ _296_ VDD VSS gf180mcu_fd_sc_mcu9t5v0__addh_1
X_639_ _297_ _298_ _299_ _300_ VDD VSS gf180mcu_fd_sc_mcu9t5v0__addh_1
X_640_ _291_ _300_ _301_ _302_ VDD VSS gf180mcu_fd_sc_mcu9t5v0__addh_1
X_641_ _303_ _304_ _165_ _126_ VDD VSS gf180mcu_fd_sc_mcu9t5v0__addh_1
X_642_ _305_ _306_ _307_ _308_ VDD VSS gf180mcu_fd_sc_mcu9t5v0__addh_1
X_643_ _309_ _308_ _310_ _311_ VDD VSS gf180mcu_fd_sc_mcu9t5v0__addh_1
X_644_ _299_ _312_ _309_ _313_ VDD VSS gf180mcu_fd_sc_mcu9t5v0__addh_1
X_645_ _110_ _157_ _182_ _315_ VDD VSS gf180mcu_fd_sc_mcu9t5v0__addh_1
X_646_ _316_ _307_ _317_ _318_ VDD VSS gf180mcu_fd_sc_mcu9t5v0__addh_2
X_647_ _319_ _320_ _321_ _322_ VDD VSS gf180mcu_fd_sc_mcu9t5v0__addh_1
X_648_ _323_ _324_ _195_ _325_ VDD VSS gf180mcu_fd_sc_mcu9t5v0__addh_1
X_649_ _326_ _184_ _327_ _328_ VDD VSS gf180mcu_fd_sc_mcu9t5v0__addh_2
X_650_ _329_ _320_ _330_ _331_ VDD VSS gf180mcu_fd_sc_mcu9t5v0__addh_1
X_651_ _332_ _333_ _214_ _196_ VDD VSS gf180mcu_fd_sc_mcu9t5v0__addh_1
X_652_ _183_ _334_ _335_ _336_ VDD VSS gf180mcu_fd_sc_mcu9t5v0__addh_2
X_653_ _337_ _338_ _231_ _213_ VDD VSS gf180mcu_fd_sc_mcu9t5v0__addh_1
X_654_ _339_ _340_ _341_ _342_ VDD VSS gf180mcu_fd_sc_mcu9t5v0__addh_2
X_655_ _343_ _344_ _248_ _232_ VDD VSS gf180mcu_fd_sc_mcu9t5v0__addh_1
X_656_ _345_ _346_ _347_ _348_ VDD VSS gf180mcu_fd_sc_mcu9t5v0__addh_2
X_657_ _350_ _351_ _257_ _247_ VDD VSS gf180mcu_fd_sc_mcu9t5v0__addh_1
X_658_ _352_ _353_ _354_ _355_ VDD VSS gf180mcu_fd_sc_mcu9t5v0__addh_2
X_659_ _349_ _356_ _357_ _358_ VDD VSS gf180mcu_fd_sc_mcu9t5v0__addh_1
X_660_ _359_ _360_ _268_ _258_ VDD VSS gf180mcu_fd_sc_mcu9t5v0__addh_1
X_661_ _361_ _362_ _363_ _364_ VDD VSS gf180mcu_fd_sc_mcu9t5v0__addh_2
X_662_ _359_ _365_ _366_ _267_ VDD VSS gf180mcu_fd_sc_mcu9t5v0__addh_1
X_663_ _242_ _267_ _367_ _368_ VDD VSS gf180mcu_fd_sc_mcu9t5v0__addh_1
X_664_ _369_ _370_ _371_ _372_ VDD VSS gf180mcu_fd_sc_mcu9t5v0__addh_2
X_665_ _301_ _313_ _314_ _373_ VDD VSS gf180mcu_fd_sc_mcu9t5v0__addh_2
Xdone$_DFFE_PP0P_ _001_ _000_ clknet_1_1__leaf_clk net19 VDD
+ VSS gf180mcu_fd_sc_mcu9t5v0__dffrnq_4
Xproduct\[0\]$_DFFE_PP0P_ _002_ _000_ clknet_1_0__leaf_clk
+ net20 VDD VSS gf180mcu_fd_sc_mcu9t5v0__dffrnq_2
Xproduct\[10\]$_DFFE_PP0P_ _003_ _000_ clknet_1_1__leaf_clk
+ net21 VDD VSS gf180mcu_fd_sc_mcu9t5v0__dffrnq_4
Xproduct\[11\]$_DFFE_PP0P_ _004_ _000_ clknet_1_1__leaf_clk
+ net22 VDD VSS gf180mcu_fd_sc_mcu9t5v0__dffrnq_4
Xproduct\[12\]$_DFFE_PP0P_ _005_ _000_ clknet_1_1__leaf_clk
+ net23 VDD VSS gf180mcu_fd_sc_mcu9t5v0__dffrnq_2
Xproduct\[13\]$_DFFE_PP0P_ _006_ _000_ clknet_1_1__leaf_clk
+ net24 VDD VSS gf180mcu_fd_sc_mcu9t5v0__dffrnq_2
Xproduct\[14\]$_DFFE_PP0P_ _007_ _000_ clknet_1_1__leaf_clk
+ net25 VDD VSS gf180mcu_fd_sc_mcu9t5v0__dffrnq_4
Xproduct\[15\]$_DFFE_PP0P_ _008_ _000_ clknet_1_1__leaf_clk
+ net26 VDD VSS gf180mcu_fd_sc_mcu9t5v0__dffrnq_2
Xproduct\[1\]$_DFFE_PP0P_ _009_ _000_ clknet_1_0__leaf_clk
+ net27 VDD VSS gf180mcu_fd_sc_mcu9t5v0__dffrnq_2
Xproduct\[2\]$_DFFE_PP0P_ _010_ _000_ clknet_1_0__leaf_clk
+ net28 VDD VSS gf180mcu_fd_sc_mcu9t5v0__dffrnq_2
Xproduct\[3\]$_DFFE_PP0P_ _011_ _000_ clknet_1_0__leaf_clk
+ net29 VDD VSS gf180mcu_fd_sc_mcu9t5v0__dffrnq_2
Xproduct\[4\]$_DFFE_PP0P_ _012_ _000_ clknet_1_0__leaf_clk
+ net30 VDD VSS gf180mcu_fd_sc_mcu9t5v0__dffrnq_2
Xproduct\[5\]$_DFFE_PP0P_ _013_ _000_ clknet_1_0__leaf_clk
+ net31 VDD VSS gf180mcu_fd_sc_mcu9t5v0__dffrnq_2
Xproduct\[6\]$_DFFE_PP0P_ _014_ _000_ clknet_1_0__leaf_clk
+ net32 VDD VSS gf180mcu_fd_sc_mcu9t5v0__dffrnq_2
Xproduct\[7\]$_DFFE_PP0P_ _015_ _000_ clknet_1_0__leaf_clk
+ net33 VDD VSS gf180mcu_fd_sc_mcu9t5v0__dffrnq_2
Xproduct\[8\]$_DFFE_PP0P_ _016_ _000_ clknet_1_1__leaf_clk
+ net34 VDD VSS gf180mcu_fd_sc_mcu9t5v0__dffrnq_2
Xproduct\[9\]$_DFFE_PP0P_ _017_ _000_ clknet_1_1__leaf_clk
+ net35 VDD VSS gf180mcu_fd_sc_mcu9t5v0__dffrnq_4
Xstart_r$_DFF_PP0_ net18 _000_ clknet_1_1__leaf_clk start_r
+ VDD VSS gf180mcu_fd_sc_mcu9t5v0__dffrnq_2
Xstate$_DFF_PP0_ _374_ _000_ clknet_1_1__leaf_clk state VDD
+ VSS gf180mcu_fd_sc_mcu9t5v0__dffrnq_2
XPHY_EDGE_ROW_0_Right_0 VDD VSS gf180mcu_fd_sc_mcu9t5v0__endcap
XPHY_EDGE_ROW_1_Right_1 VDD VSS gf180mcu_fd_sc_mcu9t5v0__endcap
XPHY_EDGE_ROW_2_Right_2 VDD VSS gf180mcu_fd_sc_mcu9t5v0__endcap
XPHY_EDGE_ROW_3_Right_3 VDD VSS gf180mcu_fd_sc_mcu9t5v0__endcap
XPHY_EDGE_ROW_4_Right_4 VDD VSS gf180mcu_fd_sc_mcu9t5v0__endcap
XPHY_EDGE_ROW_5_Right_5 VDD VSS gf180mcu_fd_sc_mcu9t5v0__endcap
XPHY_EDGE_ROW_6_Right_6 VDD VSS gf180mcu_fd_sc_mcu9t5v0__endcap
XPHY_EDGE_ROW_7_Right_7 VDD VSS gf180mcu_fd_sc_mcu9t5v0__endcap
XPHY_EDGE_ROW_8_Right_8 VDD VSS gf180mcu_fd_sc_mcu9t5v0__endcap
XPHY_EDGE_ROW_9_Right_9 VDD VSS gf180mcu_fd_sc_mcu9t5v0__endcap
XPHY_EDGE_ROW_10_Right_10 VDD VSS gf180mcu_fd_sc_mcu9t5v0__endcap
XPHY_EDGE_ROW_11_Right_11 VDD VSS gf180mcu_fd_sc_mcu9t5v0__endcap
XPHY_EDGE_ROW_12_Right_12 VDD VSS gf180mcu_fd_sc_mcu9t5v0__endcap
XPHY_EDGE_ROW_13_Right_13 VDD VSS gf180mcu_fd_sc_mcu9t5v0__endcap
XPHY_EDGE_ROW_14_Right_14 VDD VSS gf180mcu_fd_sc_mcu9t5v0__endcap
XPHY_EDGE_ROW_15_Right_15 VDD VSS gf180mcu_fd_sc_mcu9t5v0__endcap
XPHY_EDGE_ROW_16_Right_16 VDD VSS gf180mcu_fd_sc_mcu9t5v0__endcap
XPHY_EDGE_ROW_17_Right_17 VDD VSS gf180mcu_fd_sc_mcu9t5v0__endcap
XPHY_EDGE_ROW_18_Right_18 VDD VSS gf180mcu_fd_sc_mcu9t5v0__endcap
XPHY_EDGE_ROW_19_Right_19 VDD VSS gf180mcu_fd_sc_mcu9t5v0__endcap
XPHY_EDGE_ROW_20_Right_20 VDD VSS gf180mcu_fd_sc_mcu9t5v0__endcap
XPHY_EDGE_ROW_21_Right_21 VDD VSS gf180mcu_fd_sc_mcu9t5v0__endcap
XPHY_EDGE_ROW_22_Right_22 VDD VSS gf180mcu_fd_sc_mcu9t5v0__endcap
XPHY_EDGE_ROW_23_Right_23 VDD VSS gf180mcu_fd_sc_mcu9t5v0__endcap
XPHY_EDGE_ROW_24_Right_24 VDD VSS gf180mcu_fd_sc_mcu9t5v0__endcap
XPHY_EDGE_ROW_25_Right_25 VDD VSS gf180mcu_fd_sc_mcu9t5v0__endcap
XPHY_EDGE_ROW_26_Right_26 VDD VSS gf180mcu_fd_sc_mcu9t5v0__endcap
XPHY_EDGE_ROW_27_Right_27 VDD VSS gf180mcu_fd_sc_mcu9t5v0__endcap
XPHY_EDGE_ROW_28_Right_28 VDD VSS gf180mcu_fd_sc_mcu9t5v0__endcap
XPHY_EDGE_ROW_29_Right_29 VDD VSS gf180mcu_fd_sc_mcu9t5v0__endcap
XPHY_EDGE_ROW_30_Right_30 VDD VSS gf180mcu_fd_sc_mcu9t5v0__endcap
XPHY_EDGE_ROW_31_Right_31 VDD VSS gf180mcu_fd_sc_mcu9t5v0__endcap
XPHY_EDGE_ROW_32_Right_32 VDD VSS gf180mcu_fd_sc_mcu9t5v0__endcap
XPHY_EDGE_ROW_33_Right_33 VDD VSS gf180mcu_fd_sc_mcu9t5v0__endcap
XPHY_EDGE_ROW_34_Right_34 VDD VSS gf180mcu_fd_sc_mcu9t5v0__endcap
XPHY_EDGE_ROW_35_Right_35 VDD VSS gf180mcu_fd_sc_mcu9t5v0__endcap
XPHY_EDGE_ROW_36_Right_36 VDD VSS gf180mcu_fd_sc_mcu9t5v0__endcap
XPHY_EDGE_ROW_37_Right_37 VDD VSS gf180mcu_fd_sc_mcu9t5v0__endcap
XPHY_EDGE_ROW_38_Right_38 VDD VSS gf180mcu_fd_sc_mcu9t5v0__endcap
XPHY_EDGE_ROW_39_Right_39 VDD VSS gf180mcu_fd_sc_mcu9t5v0__endcap
XPHY_EDGE_ROW_40_Right_40 VDD VSS gf180mcu_fd_sc_mcu9t5v0__endcap
XPHY_EDGE_ROW_41_Right_41 VDD VSS gf180mcu_fd_sc_mcu9t5v0__endcap
XPHY_EDGE_ROW_42_Right_42 VDD VSS gf180mcu_fd_sc_mcu9t5v0__endcap
XPHY_EDGE_ROW_43_Right_43 VDD VSS gf180mcu_fd_sc_mcu9t5v0__endcap
XPHY_EDGE_ROW_44_Right_44 VDD VSS gf180mcu_fd_sc_mcu9t5v0__endcap
XPHY_EDGE_ROW_45_Right_45 VDD VSS gf180mcu_fd_sc_mcu9t5v0__endcap
XPHY_EDGE_ROW_46_Right_46 VDD VSS gf180mcu_fd_sc_mcu9t5v0__endcap
XPHY_EDGE_ROW_47_Right_47 VDD VSS gf180mcu_fd_sc_mcu9t5v0__endcap
XPHY_EDGE_ROW_48_Right_48 VDD VSS gf180mcu_fd_sc_mcu9t5v0__endcap
XPHY_EDGE_ROW_49_Right_49 VDD VSS gf180mcu_fd_sc_mcu9t5v0__endcap
XPHY_EDGE_ROW_50_Right_50 VDD VSS gf180mcu_fd_sc_mcu9t5v0__endcap
XPHY_EDGE_ROW_51_Right_51 VDD VSS gf180mcu_fd_sc_mcu9t5v0__endcap
XPHY_EDGE_ROW_52_Right_52 VDD VSS gf180mcu_fd_sc_mcu9t5v0__endcap
XPHY_EDGE_ROW_53_Right_53 VDD VSS gf180mcu_fd_sc_mcu9t5v0__endcap
XPHY_EDGE_ROW_54_Right_54 VDD VSS gf180mcu_fd_sc_mcu9t5v0__endcap
XPHY_EDGE_ROW_55_Right_55 VDD VSS gf180mcu_fd_sc_mcu9t5v0__endcap
XPHY_EDGE_ROW_56_Right_56 VDD VSS gf180mcu_fd_sc_mcu9t5v0__endcap
XPHY_EDGE_ROW_57_Right_57 VDD VSS gf180mcu_fd_sc_mcu9t5v0__endcap
XPHY_EDGE_ROW_58_Right_58 VDD VSS gf180mcu_fd_sc_mcu9t5v0__endcap
XPHY_EDGE_ROW_59_Right_59 VDD VSS gf180mcu_fd_sc_mcu9t5v0__endcap
XPHY_EDGE_ROW_60_Right_60 VDD VSS gf180mcu_fd_sc_mcu9t5v0__endcap
XPHY_EDGE_ROW_61_Right_61 VDD VSS gf180mcu_fd_sc_mcu9t5v0__endcap
XPHY_EDGE_ROW_62_Right_62 VDD VSS gf180mcu_fd_sc_mcu9t5v0__endcap
XPHY_EDGE_ROW_63_Right_63 VDD VSS gf180mcu_fd_sc_mcu9t5v0__endcap
XPHY_EDGE_ROW_64_Right_64 VDD VSS gf180mcu_fd_sc_mcu9t5v0__endcap
XPHY_EDGE_ROW_65_Right_65 VDD VSS gf180mcu_fd_sc_mcu9t5v0__endcap
XPHY_EDGE_ROW_66_Right_66 VDD VSS gf180mcu_fd_sc_mcu9t5v0__endcap
XPHY_EDGE_ROW_67_Right_67 VDD VSS gf180mcu_fd_sc_mcu9t5v0__endcap
XPHY_EDGE_ROW_68_Right_68 VDD VSS gf180mcu_fd_sc_mcu9t5v0__endcap
XPHY_EDGE_ROW_69_Right_69 VDD VSS gf180mcu_fd_sc_mcu9t5v0__endcap
XPHY_EDGE_ROW_70_Right_70 VDD VSS gf180mcu_fd_sc_mcu9t5v0__endcap
XPHY_EDGE_ROW_71_Right_71 VDD VSS gf180mcu_fd_sc_mcu9t5v0__endcap
XPHY_EDGE_ROW_72_Right_72 VDD VSS gf180mcu_fd_sc_mcu9t5v0__endcap
XPHY_EDGE_ROW_73_Right_73 VDD VSS gf180mcu_fd_sc_mcu9t5v0__endcap
XPHY_EDGE_ROW_74_Right_74 VDD VSS gf180mcu_fd_sc_mcu9t5v0__endcap
XPHY_EDGE_ROW_75_Right_75 VDD VSS gf180mcu_fd_sc_mcu9t5v0__endcap
XPHY_EDGE_ROW_76_Right_76 VDD VSS gf180mcu_fd_sc_mcu9t5v0__endcap
XPHY_EDGE_ROW_77_Right_77 VDD VSS gf180mcu_fd_sc_mcu9t5v0__endcap
XPHY_EDGE_ROW_78_Right_78 VDD VSS gf180mcu_fd_sc_mcu9t5v0__endcap
XPHY_EDGE_ROW_79_Right_79 VDD VSS gf180mcu_fd_sc_mcu9t5v0__endcap
XPHY_EDGE_ROW_80_Right_80 VDD VSS gf180mcu_fd_sc_mcu9t5v0__endcap
XPHY_EDGE_ROW_81_Right_81 VDD VSS gf180mcu_fd_sc_mcu9t5v0__endcap
XPHY_EDGE_ROW_82_Right_82 VDD VSS gf180mcu_fd_sc_mcu9t5v0__endcap
XPHY_EDGE_ROW_83_Right_83 VDD VSS gf180mcu_fd_sc_mcu9t5v0__endcap
XPHY_EDGE_ROW_84_Right_84 VDD VSS gf180mcu_fd_sc_mcu9t5v0__endcap
XPHY_EDGE_ROW_85_Right_85 VDD VSS gf180mcu_fd_sc_mcu9t5v0__endcap
XPHY_EDGE_ROW_86_Right_86 VDD VSS gf180mcu_fd_sc_mcu9t5v0__endcap
XPHY_EDGE_ROW_87_Right_87 VDD VSS gf180mcu_fd_sc_mcu9t5v0__endcap
XPHY_EDGE_ROW_88_Right_88 VDD VSS gf180mcu_fd_sc_mcu9t5v0__endcap
XPHY_EDGE_ROW_89_Right_89 VDD VSS gf180mcu_fd_sc_mcu9t5v0__endcap
XPHY_EDGE_ROW_90_Right_90 VDD VSS gf180mcu_fd_sc_mcu9t5v0__endcap
XPHY_EDGE_ROW_91_Right_91 VDD VSS gf180mcu_fd_sc_mcu9t5v0__endcap
XPHY_EDGE_ROW_92_Right_92 VDD VSS gf180mcu_fd_sc_mcu9t5v0__endcap
XPHY_EDGE_ROW_93_Right_93 VDD VSS gf180mcu_fd_sc_mcu9t5v0__endcap
XPHY_EDGE_ROW_94_Right_94 VDD VSS gf180mcu_fd_sc_mcu9t5v0__endcap
XPHY_EDGE_ROW_95_Right_95 VDD VSS gf180mcu_fd_sc_mcu9t5v0__endcap
XPHY_EDGE_ROW_96_Right_96 VDD VSS gf180mcu_fd_sc_mcu9t5v0__endcap
XPHY_EDGE_ROW_97_Right_97 VDD VSS gf180mcu_fd_sc_mcu9t5v0__endcap
XPHY_EDGE_ROW_98_Right_98 VDD VSS gf180mcu_fd_sc_mcu9t5v0__endcap
XPHY_EDGE_ROW_99_Right_99 VDD VSS gf180mcu_fd_sc_mcu9t5v0__endcap
XPHY_EDGE_ROW_100_Right_100 VDD VSS gf180mcu_fd_sc_mcu9t5v0__endcap
XPHY_EDGE_ROW_101_Right_101 VDD VSS gf180mcu_fd_sc_mcu9t5v0__endcap
XPHY_EDGE_ROW_102_Right_102 VDD VSS gf180mcu_fd_sc_mcu9t5v0__endcap
XPHY_EDGE_ROW_103_Right_103 VDD VSS gf180mcu_fd_sc_mcu9t5v0__endcap
XPHY_EDGE_ROW_104_Right_104 VDD VSS gf180mcu_fd_sc_mcu9t5v0__endcap
XPHY_EDGE_ROW_105_Right_105 VDD VSS gf180mcu_fd_sc_mcu9t5v0__endcap
XPHY_EDGE_ROW_106_Right_106 VDD VSS gf180mcu_fd_sc_mcu9t5v0__endcap
XPHY_EDGE_ROW_107_Right_107 VDD VSS gf180mcu_fd_sc_mcu9t5v0__endcap
XPHY_EDGE_ROW_108_Right_108 VDD VSS gf180mcu_fd_sc_mcu9t5v0__endcap
XPHY_EDGE_ROW_109_Right_109 VDD VSS gf180mcu_fd_sc_mcu9t5v0__endcap
XPHY_EDGE_ROW_110_Right_110 VDD VSS gf180mcu_fd_sc_mcu9t5v0__endcap
XPHY_EDGE_ROW_111_Right_111 VDD VSS gf180mcu_fd_sc_mcu9t5v0__endcap
XPHY_EDGE_ROW_112_Right_112 VDD VSS gf180mcu_fd_sc_mcu9t5v0__endcap
XPHY_EDGE_ROW_113_Right_113 VDD VSS gf180mcu_fd_sc_mcu9t5v0__endcap
XPHY_EDGE_ROW_114_Right_114 VDD VSS gf180mcu_fd_sc_mcu9t5v0__endcap