* CDL Netlist generated by OpenROAD

*.BUSDELIMITER [

.SUBCKT clock_divider clk_in clk_out div_ratio[0] div_ratio[1]
+ div_ratio[2] div_ratio[3] div_ratio[4] div_ratio[5] div_ratio[6]
+ div_ratio[7] duty_cycle[0] duty_cycle[1] duty_cycle[2] duty_cycle[3]
+ duty_cycle[4] duty_cycle[5] duty_cycle[6] duty_cycle[7] rst_n
X_0704_ net7 VSS VSS VDD VDD _0010_ sky130_fd_sc_hd__buf_4
X_0705_ net15 _0010_ VSS VSS VDD VDD _0573_ sky130_fd_sc_hd__and2_0
X_0706_ div_ratio[7] VSS VSS VDD VDD _0011_ sky130_fd_sc_hd__buf_6
X_0707_ net14 _0011_ VSS VSS VDD VDD _0574_ sky130_fd_sc_hd__and2_0
X_0708_ net15 _0011_ VSS VSS VDD VDD _0570_ sky130_fd_sc_hd__and2_0
X_0709_ _0010_ net13 VSS VSS VDD VDD _0579_ sky130_fd_sc_hd__and2_0
X_0710_ _0011_ net12 VSS VSS VDD VDD _0580_ sky130_fd_sc_hd__and2_0
X_0711_ _0010_ net14 VSS VSS VDD VDD _0399_ sky130_fd_sc_hd__and2_0
X_0712_ div_ratio[5] VSS VSS VDD VDD _0012_ sky130_fd_sc_hd__buf_6
X_0713_ net15 _0012_ VSS VSS VDD VDD _0400_ sky130_fd_sc_hd__and2_0
X_0714_ _0011_ net13 VSS VSS VDD VDD _0578_ sky130_fd_sc_hd__and2_0
X_0715_ _0010_ net12 VSS VSS VDD VDD _0422_ sky130_fd_sc_hd__and2_0
X_0716_ net13 _0012_ VSS VSS VDD VDD _0423_ sky130_fd_sc_hd__and2_0
X_0717_ _0010_ net10 VSS VSS VDD VDD _0590_ sky130_fd_sc_hd__and2_0
X_0718_ _0011_ net9 VSS VSS VDD VDD _0591_ sky130_fd_sc_hd__and2_0
X_0719_ _0010_ net11 VSS VSS VDD VDD _0426_ sky130_fd_sc_hd__and2_0
X_0720_ net12 _0012_ VSS VSS VDD VDD _0427_ sky130_fd_sc_hd__and2_0
X_0721_ net6 VSS VSS VDD VDD _0013_ sky130_fd_sc_hd__buf_6
X_0722_ net13 _0013_ VSS VSS VDD VDD _0428_ sky130_fd_sc_hd__and2_0
X_0723_ _0010_ net9 VSS VSS VDD VDD _0470_ sky130_fd_sc_hd__and2_0
X_0724_ _0012_ net10 VSS VSS VDD VDD _0471_ sky130_fd_sc_hd__and2_0
X_0725_ _0012_ net11 VSS VSS VDD VDD _0448_ sky130_fd_sc_hd__and2_0
X_0726_ net12 _0013_ VSS VSS VDD VDD _0449_ sky130_fd_sc_hd__and2_0
X_0727_ net5 VSS VSS VDD VDD _0014_ sky130_fd_sc_hd__buf_6
X_0728_ net13 _0014_ VSS VSS VDD VDD _0450_ sky130_fd_sc_hd__and2_0
X_0729_ net14 net79 VSS VSS VDD VDD _0453_ sky130_fd_sc_hd__and2_0
X_0730_ net4 VSS VSS VDD VDD _0015_ sky130_fd_sc_hd__buf_6
X_0731_ net15 net83 VSS VSS VDD VDD _0454_ sky130_fd_sc_hd__and2_0
X_0732_ _0012_ net9 VSS VSS VDD VDD _0494_ sky130_fd_sc_hd__and2_0
X_0733_ net80 net10 VSS VSS VDD VDD _0495_ sky130_fd_sc_hd__and2_0
X_0734_ net11 _0013_ VSS VSS VDD VDD _0473_ sky130_fd_sc_hd__and2_0
X_0735_ net12 _0014_ VSS VSS VDD VDD _0474_ sky130_fd_sc_hd__and2_0
X_0736_ net13 _0015_ VSS VSS VDD VDD _0475_ sky130_fd_sc_hd__and2_0
X_0737_ net14 net83 VSS VSS VDD VDD _0478_ sky130_fd_sc_hd__and2_0
Xrebuffer68 _0221_ VSS VSS VDD VDD net85 sky130_fd_sc_hd__dlygate4sd1_1
X_0739_ net15 net2 VSS VSS VDD VDD _0479_ sky130_fd_sc_hd__and2_0
X_0740_ _0013_ net9 VSS VSS VDD VDD _0518_ sky130_fd_sc_hd__and2_1
X_0741_ net10 _0014_ VSS VSS VDD VDD _0519_ sky130_fd_sc_hd__and2_1
X_0742_ net11 _0014_ VSS VSS VDD VDD _0497_ sky130_fd_sc_hd__and2_0
X_0743_ net12 _0015_ VSS VSS VDD VDD _0498_ sky130_fd_sc_hd__and2_0
X_0744_ net13 net2 VSS VSS VDD VDD _0499_ sky130_fd_sc_hd__and2_0
X_0745_ net14 net2 VSS VSS VDD VDD _0502_ sky130_fd_sc_hd__and2_0
XANTENNA_1 clk_in VSS VSS VDD VDD sky130_fd_sc_hd__diode_2
X_0747_ net15 net1 VSS VSS VDD VDD _0503_ sky130_fd_sc_hd__and2_0
X_0748_ net9 _0014_ VSS VSS VDD VDD _0539_ sky130_fd_sc_hd__and2_0
X_0749_ net10 _0015_ VSS VSS VDD VDD _0540_ sky130_fd_sc_hd__and2_0
X_0750_ _0015_ net11 VSS VSS VDD VDD _0523_ sky130_fd_sc_hd__and2_4
X_0751_ net2 net12 VSS VSS VDD VDD _0522_ sky130_fd_sc_hd__and2_1
X_0752_ net13 net1 VSS VSS VDD VDD _0521_ sky130_fd_sc_hd__and2_1
X_0753_ net14 net1 VSS VSS VDD VDD _0600_ sky130_fd_sc_hd__and2_0
X_0754_ net9 _0015_ VSS VSS VDD VDD _0552_ sky130_fd_sc_hd__and2_0
X_0755_ net10 net2 VSS VSS VDD VDD _0551_ sky130_fd_sc_hd__and2_0
X_0756_ net11 net2 VSS VSS VDD VDD _0602_ sky130_fd_sc_hd__and2_0
X_0757_ net12 net1 VSS VSS VDD VDD _0601_ sky130_fd_sc_hd__and2_0
X_0758_ net8 net83 VSS VSS VDD VDD _0562_ sky130_fd_sc_hd__nand2_1
X_0759_ net8 net2 VSS VSS VDD VDD _0634_ sky130_fd_sc_hd__and2_0
X_0760_ net9 net1 VSS VSS VDD VDD _0633_ sky130_fd_sc_hd__and2_0
X_0761_ _0680_ VSS VSS VDD VDD _0018_ sky130_fd_sc_hd__inv_1
X_0762_ _0012_ net6 net5 net4 VSS VSS VDD VDD _0019_ sky130_fd_sc_hd__or4_1
X_0763_ net7 _0011_ _0018_ _0019_ VSS VSS VDD VDD _0020_ sky130_fd_sc_hd__nor4_2
X_0764_ _0664_ _0668_ VSS VSS VDD VDD _0021_ sky130_fd_sc_hd__nand2_1
X_0765_ _0644_ _0648_ _0652_ _0660_ VSS VSS VDD VDD _0022_
+ sky130_fd_sc_hd__nand4_1
X_0766_ _0639_ _0656_ _0674_ VSS VSS VDD VDD _0023_ sky130_fd_sc_hd__nand3_1
X_0767_ _0021_ _0022_ _0023_ VSS VSS VDD VDD _0024_ sky130_fd_sc_hd__nor3_1
X_0768_ _0673_ _0668_ VSS VSS VDD VDD _0025_ sky130_fd_sc_hd__nor2b_1
X_0769_ _0025_ _0667_ _0664_ VSS VSS VDD VDD _0026_ sky130_fd_sc_hd__o21a_1
X_0770_ _0026_ _0663_ _0660_ VSS VSS VDD VDD _0027_ sky130_fd_sc_hd__o21a_1
X_0771_ _0659_ _0027_ _0656_ VSS VSS VDD VDD _0028_ sky130_fd_sc_hd__o21ai_1
X_0772_ _0655_ _0028_ VSS VSS VDD VDD _0029_ sky130_fd_sc_hd__nand2b_1
X_0773_ _0652_ _0029_ _0651_ VSS VSS VDD VDD _0030_ sky130_fd_sc_hd__a21oi_2
X_0774_ _0030_ _0648_ VSS VSS VDD VDD _0031_ sky130_fd_sc_hd__nor2b_1
X_0775_ _0031_ _0647_ _0644_ VSS VSS VDD VDD _0032_ sky130_fd_sc_hd__o21ai_1
X_0776_ _0643_ _0032_ VSS VSS VDD VDD _0033_ sky130_fd_sc_hd__nand2b_1
X_0777_ _0639_ _0033_ _0638_ VSS VSS VDD VDD _0034_ sky130_fd_sc_hd__a21oi_2
X_0778_ _0020_ _0024_ _0034_ VSS VSS VDD VDD _0000_ sky130_fd_sc_hd__nor3_1
X_0779_ net83 net2 net1 VSS VSS VDD VDD _0035_ sky130_fd_sc_hd__nor3_1
X_0780_ net79 _0035_ VSS VSS VDD VDD _0684_ sky130_fd_sc_hd__xnor2_1
X_0781_ net83 _0680_ VSS VSS VDD VDD _0687_ sky130_fd_sc_hd__xnor2_1
X_0782_ _0010_ net2 net1 _0019_ VSS VSS VDD VDD _0036_ sky130_fd_sc_hd__nor4_1
X_0783_ _0011_ _0036_ VSS VSS VDD VDD _0690_ sky130_fd_sc_hd__xnor2_1
X_0784_ _0018_ _0019_ VSS VSS VDD VDD _0037_ sky130_fd_sc_hd__nor2_1
X_0785_ _0010_ _0037_ VSS VSS VDD VDD _0693_ sky130_fd_sc_hd__xnor2_1
X_0786_ net79 net4 VSS VSS VDD VDD _0038_ sky130_fd_sc_hd__nor2_1
X_0787_ net80 net2 net1 _0038_ VSS VSS VDD VDD _0039_ sky130_fd_sc_hd__nor4b_1
X_0788_ _0012_ _0039_ VSS VSS VDD VDD _0696_ sky130_fd_sc_hd__xnor2_1
X_0789_ _0680_ _0038_ VSS VSS VDD VDD _0040_ sky130_fd_sc_hd__nand2_1
X_0790_ net80 _0040_ VSS VSS VDD VDD _0699_ sky130_fd_sc_hd__xor2_1
X_0791_ counter\[8\] VSS VSS VDD VDD _0636_ sky130_fd_sc_hd__inv_1
X_0792_ _0678_ _0677_ VSS VSS VDD VDD _0041_ sky130_fd_sc_hd__nand2b_1
X_0793_ _0683_ _0041_ _0682_ VSS VSS VDD VDD _0042_ sky130_fd_sc_hd__a21o_1
X_0794_ _0689_ _0042_ _0688_ VSS VSS VDD VDD _0043_ sky130_fd_sc_hd__a21oi_1
X_0795_ _0043_ _0686_ VSS VSS VDD VDD _0044_ sky130_fd_sc_hd__nor2b_1
X_0796_ _0685_ _0044_ _0701_ VSS VSS VDD VDD _0045_ sky130_fd_sc_hd__o21ai_0
X_0797_ _0700_ _0045_ VSS VSS VDD VDD _0046_ sky130_fd_sc_hd__nand2b_1
X_0798_ _0698_ _0046_ _0697_ VSS VSS VDD VDD _0047_ sky130_fd_sc_hd__a21oi_1
X_0799_ _0047_ _0695_ VSS VSS VDD VDD _0048_ sky130_fd_sc_hd__nor2b_1
X_0800_ _0694_ _0048_ _0692_ VSS VSS VDD VDD _0049_ sky130_fd_sc_hd__o21ai_1
X_0801_ counter\[8\] _0691_ VSS VSS VDD VDD _0050_ sky130_fd_sc_hd__nor2_1
X_0802_ _0049_ _0050_ _0020_ VSS VSS VDD VDD _0051_ sky130_fd_sc_hd__a21oi_4
X_0803_ counter\[0\] _0051_ VSS VSS VDD VDD _0001_ sky130_fd_sc_hd__nor2_1
X_0804_ _0051_ _0703_ VSS VSS VDD VDD _0002_ sky130_fd_sc_hd__nor2b_1
X_0805_ counter\[2\] VSS VSS VDD VDD _0661_ sky130_fd_sc_hd__inv_1
X_0806_ _0702_ counter\[2\] VSS VSS VDD VDD _0052_ sky130_fd_sc_hd__xnor2_1
X_0807_ _0051_ _0052_ VSS VSS VDD VDD _0003_ sky130_fd_sc_hd__nor2_1
X_0808_ counter\[3\] VSS VSS VDD VDD _0657_ sky130_fd_sc_hd__inv_1
X_0809_ counter\[0\] counter\[2\] counter\[1\] VSS VSS VDD
+ VDD _0053_ sky130_fd_sc_hd__nand3_1
X_0810_ _0657_ _0053_ VSS VSS VDD VDD _0054_ sky130_fd_sc_hd__xnor2_1
X_0811_ _0051_ _0054_ VSS VSS VDD VDD _0004_ sky130_fd_sc_hd__nor2_1
X_0812_ counter\[4\] VSS VSS VDD VDD _0653_ sky130_fd_sc_hd__inv_1
X_0813_ _0702_ counter\[2\] counter\[3\] VSS VSS VDD VDD _0055_
+ sky130_fd_sc_hd__nand3_1
X_0814_ _0653_ _0055_ VSS VSS VDD VDD _0056_ sky130_fd_sc_hd__xnor2_1
X_0815_ _0051_ _0056_ VSS VSS VDD VDD _0005_ sky130_fd_sc_hd__nor2_1
X_0816_ counter\[5\] VSS VSS VDD VDD _0649_ sky130_fd_sc_hd__inv_1
X_0817_ counter\[0\] VSS VSS VDD VDD _0675_ sky130_fd_sc_hd__inv_1
X_0818_ counter\[1\] VSS VSS VDD VDD _0665_ sky130_fd_sc_hd__inv_1
X_0819_ _0675_ _0665_ _0653_ VSS VSS VDD VDD _0057_ sky130_fd_sc_hd__nor3_1
X_0820_ counter\[2\] counter\[3\] _0057_ VSS VSS VDD VDD _0058_
+ sky130_fd_sc_hd__nand3_1
X_0821_ _0649_ _0058_ VSS VSS VDD VDD _0059_ sky130_fd_sc_hd__xnor2_1
X_0822_ _0051_ _0059_ VSS VSS VDD VDD _0006_ sky130_fd_sc_hd__nor2_1
X_0823_ counter\[6\] VSS VSS VDD VDD _0645_ sky130_fd_sc_hd__inv_1
X_0824_ _0653_ _0649_ _0055_ VSS VSS VDD VDD _0060_ sky130_fd_sc_hd__nor3_1
X_0825_ counter\[6\] _0060_ VSS VSS VDD VDD _0061_ sky130_fd_sc_hd__xnor2_1
X_0826_ _0051_ _0061_ VSS VSS VDD VDD _0007_ sky130_fd_sc_hd__nor2_1
X_0827_ counter\[7\] VSS VSS VDD VDD _0641_ sky130_fd_sc_hd__inv_1
X_0828_ _0649_ _0645_ _0058_ VSS VSS VDD VDD _0062_ sky130_fd_sc_hd__nor3_1
X_0829_ counter\[7\] _0062_ VSS VSS VDD VDD _0063_ sky130_fd_sc_hd__xnor2_1
X_0830_ _0051_ _0063_ VSS VSS VDD VDD _0008_ sky130_fd_sc_hd__nor2_1
X_0831_ counter\[6\] counter\[7\] _0060_ VSS VSS VDD VDD _0064_
+ sky130_fd_sc_hd__nand3_1
X_0832_ _0636_ _0064_ VSS VSS VDD VDD _0065_ sky130_fd_sc_hd__xnor2_1
X_0833_ _0051_ _0065_ VSS VSS VDD VDD _0009_ sky130_fd_sc_hd__nor2_1
X_0834_ _0424_ VSS VSS VDD VDD _0410_ sky130_fd_sc_hd__inv_1
X_0835_ _0429_ VSS VSS VDD VDD _0431_ sky130_fd_sc_hd__inv_1
X_0836_ _0440_ VSS VSS VDD VDD _0436_ sky130_fd_sc_hd__inv_1
X_0837_ _0443_ VSS VSS VDD VDD _0457_ sky130_fd_sc_hd__inv_1
X_0838_ _0603_ VSS VSS VDD VDD _0547_ sky130_fd_sc_hd__inv_1
X_0839_ net11 net1 VSS VSS VDD VDD _0556_ sky130_fd_sc_hd__nand2_1
X_0840_ net10 net1 VSS VSS VDD VDD _0560_ sky130_fd_sc_hd__nand2_1
X_0841_ _0409_ VSS VSS VDD VDD _0404_ sky130_fd_sc_hd__inv_1
X_0842_ net14 _0012_ VSS VSS VDD VDD _0411_ sky130_fd_sc_hd__nand2_1
X_0843_ _0420_ VSS VSS VDD VDD _0416_ sky130_fd_sc_hd__inv_1
X_0844_ net14 net80 VSS VSS VDD VDD _0432_ sky130_fd_sc_hd__nand2_1
X_0845_ net9 net2 VSS VSS VDD VDD _0561_ sky130_fd_sc_hd__nand2_1
X_0846_ _0401_ VSS VSS VDD VDD _0405_ sky130_fd_sc_hd__inv_1
X_0847_ net15 net80 VSS VSS VDD VDD _0412_ sky130_fd_sc_hd__nand2_1
X_0848_ net15 net79 VSS VSS VDD VDD _0433_ sky130_fd_sc_hd__nand2_1
X_0849_ _0435_ VSS VSS VDD VDD _0442_ sky130_fd_sc_hd__inv_1
X_0850_ _0455_ VSS VSS VDD VDD _0459_ sky130_fd_sc_hd__inv_1
X_0851_ _0480_ VSS VSS VDD VDD _0483_ sky130_fd_sc_hd__inv_1
X_0852_ _0504_ VSS VSS VDD VDD _0507_ sky130_fd_sc_hd__inv_1
X_0853_ _0447_ VSS VSS VDD VDD _0462_ sky130_fd_sc_hd__inv_1
X_0854_ _0468_ VSS VSS VDD VDD _0486_ sky130_fd_sc_hd__inv_1
X_0855_ _0472_ VSS VSS VDD VDD _0490_ sky130_fd_sc_hd__inv_1
X_0856_ _0492_ VSS VSS VDD VDD _0510_ sky130_fd_sc_hd__inv_1
X_0857_ _0496_ VSS VSS VDD VDD _0514_ sky130_fd_sc_hd__inv_1
X_0858_ _0513_ VSS VSS VDD VDD _0526_ sky130_fd_sc_hd__inv_1
X_0859_ _0516_ VSS VSS VDD VDD _0531_ sky130_fd_sc_hd__inv_1
X_0860_ _0520_ VSS VSS VDD VDD _0535_ sky130_fd_sc_hd__inv_1
X_0861_ _0530_ VSS VSS VDD VDD _0608_ sky130_fd_sc_hd__inv_2
X_0862_ _0534_ VSS VSS VDD VDD _0611_ sky130_fd_sc_hd__inv_1
X_0863_ _0537_ VSS VSS VDD VDD _0544_ sky130_fd_sc_hd__inv_2
X_0864_ _0546_ VSS VSS VDD VDD _0615_ sky130_fd_sc_hd__clkinv_2
X_0865_ _0446_ VSS VSS VDD VDD _0441_ sky130_fd_sc_hd__inv_1
X_0866_ _0464_ VSS VSS VDD VDD _0458_ sky130_fd_sc_hd__inv_1
X_0867_ _0488_ VSS VSS VDD VDD _0482_ sky130_fd_sc_hd__inv_1
X_0868_ _0512_ VSS VSS VDD VDD _0506_ sky130_fd_sc_hd__inv_1
X_0869_ _0554_ VSS VSS VDD VDD _0548_ sky130_fd_sc_hd__inv_1
X_0870_ _0011_ net11 VSS VSS VDD VDD _0421_ sky130_fd_sc_hd__and2_0
X_0871_ _0407_ VSS VSS VDD VDD _0582_ sky130_fd_sc_hd__inv_1
X_0872_ _0011_ net10 VSS VSS VDD VDD _0444_ sky130_fd_sc_hd__and2_0
X_0873_ _0418_ VSS VSS VDD VDD _0586_ sky130_fd_sc_hd__inv_1
X_0874_ _0011_ net8 VSS VSS VDD VDD _0469_ sky130_fd_sc_hd__and2_0
X_0875_ _0439_ VSS VSS VDD VDD _0592_ sky130_fd_sc_hd__inv_1
X_0876_ _0010_ net8 VSS VSS VDD VDD _0493_ sky130_fd_sc_hd__and2_0
X_0877_ _0461_ VSS VSS VDD VDD _0596_ sky130_fd_sc_hd__inv_1
X_0878_ _0012_ net8 VSS VSS VDD VDD _0517_ sky130_fd_sc_hd__and2_4
X_0879_ _0013_ net8 VSS VSS VDD VDD _0538_ sky130_fd_sc_hd__and2_0
X_0880_ _0549_ VSS VSS VDD VDD _0543_ sky130_fd_sc_hd__inv_1
X_0881_ _0509_ VSS VSS VDD VDD _0604_ sky130_fd_sc_hd__inv_1
X_0882_ _0558_ VSS VSS VDD VDD _0617_ sky130_fd_sc_hd__inv_1
X_0883_ _0485_ VSS VSS VDD VDD _0620_ sky130_fd_sc_hd__inv_1
X_0884_ _0406_ VSS VSS VDD VDD _0575_ sky130_fd_sc_hd__inv_1
X_0885_ _0417_ VSS VSS VDD VDD _0583_ sky130_fd_sc_hd__inv_1
X_0886_ _0438_ VSS VSS VDD VDD _0587_ sky130_fd_sc_hd__inv_1
X_0887_ _0460_ VSS VSS VDD VDD _0593_ sky130_fd_sc_hd__inv_1
X_0888_ _0484_ VSS VSS VDD VDD _0597_ sky130_fd_sc_hd__inv_1
X_0889_ net79 net8 VSS VSS VDD VDD _0553_ sky130_fd_sc_hd__and2_0
X_0890_ _0550_ VSS VSS VDD VDD _0618_ sky130_fd_sc_hd__inv_1
X_0891_ _0508_ VSS VSS VDD VDD _0621_ sky130_fd_sc_hd__inv_1
X_0892_ _0559_ VSS VSS VDD VDD _0627_ sky130_fd_sc_hd__inv_1
X_0893_ _0563_ VSS VSS VDD VDD _0631_ sky130_fd_sc_hd__inv_1
X_0894_ _0599_ VSS VSS VDD VDD _0066_ sky130_fd_sc_hd__buf_4
X_0895_ _0623_ VSS VSS VDD VDD _0067_ sky130_fd_sc_hd__buf_6
X_0896_ _0066_ _0067_ VSS VSS VDD VDD _0068_ sky130_fd_sc_hd__nand2_2
Xhold3 net76 VSS VSS VDD VDD net3 sky130_fd_sc_hd__clkbuf_4
X_0898_ _0567_ _0610_ _0605_ _0609_ VSS VSS VDD VDD _0070_
+ sky130_fd_sc_hd__a211oi_4
X_0899_ _0606_ _0605_ VSS VSS VDD VDD _0071_ sky130_fd_sc_hd__nor2_2
X_0900_ _0066_ _0622_ _0598_ VSS VSS VDD VDD _0072_ sky130_fd_sc_hd__a21oi_2
X_0901_ _0070_ _0068_ _0071_ _0072_ VSS VSS VDD VDD _0073_
+ sky130_fd_sc_hd__o31a_4
X_0902_ _0589_ VSS VSS VDD VDD _0074_ sky130_fd_sc_hd__clkbuf_4
X_0903_ _0595_ VSS VSS VDD VDD _0075_ sky130_fd_sc_hd__buf_2
X_0904_ _0585_ VSS VSS VDD VDD _0076_ sky130_fd_sc_hd__buf_2
X_0905_ _0577_ _0074_ _0075_ _0076_ VSS VSS VDD VDD _0077_
+ sky130_fd_sc_hd__and4_1
X_0906_ _0571_ _0077_ VSS VSS VDD VDD _0078_ sky130_fd_sc_hd__nand2_2
X_0907_ _0589_ _0594_ _0588_ VSS VSS VDD VDD _0079_ sky130_fd_sc_hd__a21oi_2
X_0908_ _0577_ _0076_ VSS VSS VDD VDD _0080_ sky130_fd_sc_hd__nand2_1
X_0909_ _0577_ _0584_ _0576_ VSS VSS VDD VDD _0081_ sky130_fd_sc_hd__a21oi_1
X_0910_ _0079_ _0080_ _0081_ VSS VSS VDD VDD _0082_ sky130_fd_sc_hd__o21ai_4
X_0911_ _0078_ net33 _0571_ _0082_ VSS VSS VDD VDD _0083_
+ sky130_fd_sc_hd__a2bb2oi_4
X_0912_ _0068_ _0070_ _0071_ _0072_ VSS VSS VDD VDD _0084_
+ sky130_fd_sc_hd__o31ai_4
X_0913_ _0084_ _0077_ _0571_ _0082_ VSS VSS VDD VDD _0085_
+ sky130_fd_sc_hd__a211o_4
X_0914_ net32 net46 VSS VSS VDD VDD _0086_ sky130_fd_sc_hd__nand2_8
X_0915_ _0074_ _0075_ VSS VSS VDD VDD _0087_ sky130_fd_sc_hd__nand2_1
X_0916_ _0076_ _0073_ _0087_ VSS VSS VDD VDD _0088_ sky130_fd_sc_hd__nor3_4
X_0917_ _0076_ _0079_ VSS VSS VDD VDD _0089_ sky130_fd_sc_hd__nand2_1
X_0918_ _0075_ _0594_ _0074_ VSS VSS VDD VDD _0090_ sky130_fd_sc_hd__o21ai_0
X_0919_ _0588_ _0076_ VSS VSS VDD VDD _0091_ sky130_fd_sc_hd__nor2b_1
X_0920_ _0076_ _0079_ _0090_ _0091_ VSS VSS VDD VDD _0092_
+ sky130_fd_sc_hd__a2bb2oi_1
X_0921_ _0084_ _0089_ _0092_ VSS VSS VDD VDD _0093_ sky130_fd_sc_hd__o21ai_2
X_0922_ _0075_ _0598_ _0594_ VSS VSS VDD VDD _0094_ sky130_fd_sc_hd__a21o_1
X_0923_ _0074_ _0594_ _0075_ VSS VSS VDD VDD _0095_ sky130_fd_sc_hd__o21bai_1
X_0924_ _0074_ _0094_ _0095_ VSS VSS VDD VDD _0096_ sky130_fd_sc_hd__a21oi_1
X_0925_ _0074_ _0594_ _0598_ _0075_ VSS VSS VDD VDD _0097_
+ sky130_fd_sc_hd__o31ai_1
X_0926_ _0074_ _0094_ _0097_ VSS VSS VDD VDD _0098_ sky130_fd_sc_hd__a21oi_1
X_0927_ _0096_ _0098_ net59 VSS VSS VDD VDD _0099_ sky130_fd_sc_hd__mux2_4
X_0928_ _0088_ _0093_ _0099_ VSS VSS VDD VDD _0100_ sky130_fd_sc_hd__o21a_2
X_0929_ net17 _0071_ VSS VSS VDD VDD _0101_ sky130_fd_sc_hd__nor2_2
X_0930_ _0101_ _0067_ VSS VSS VDD VDD _0102_ sky130_fd_sc_hd__xnor2_4
X_0931_ _0564_ _0613_ _0609_ _0612_ VSS VSS VDD VDD _0103_
+ sky130_fd_sc_hd__a211oi_4
X_0932_ _0610_ _0609_ _0606_ VSS VSS VDD VDD _0104_ sky130_fd_sc_hd__o21ai_1
X_0933_ _0103_ _0104_ VSS VSS VDD VDD _0105_ sky130_fd_sc_hd__nor2_2
X_0934_ _0610_ _0609_ VSS VSS VDD VDD _0106_ sky130_fd_sc_hd__nor2_1
X_0935_ _0103_ _0106_ _0606_ VSS VSS VDD VDD _0107_ sky130_fd_sc_hd__o21ba_1
X_0936_ _0105_ _0107_ VSS VSS VDD VDD _0108_ sky130_fd_sc_hd__or2_0
X_0937_ _0108_ VSS VSS VDD VDD _0109_ sky130_fd_sc_hd__clkbuf_2
X_0938_ _0103_ _0104_ _0605_ VSS VSS VDD VDD _0110_ sky130_fd_sc_hd__o21ba_1
X_0939_ _0066_ _0067_ _0622_ VSS VSS VDD VDD _0111_ sky130_fd_sc_hd__nor3_1
X_0940_ _0066_ _0622_ _0111_ VSS VSS VDD VDD _0112_ sky130_fd_sc_hd__a21oi_2
X_0941_ _0564_ _0613_ _0612_ VSS VSS VDD VDD _0113_ sky130_fd_sc_hd__a21oi_1
X_0942_ _0606_ _0610_ _0067_ VSS VSS VDD VDD _0114_ sky130_fd_sc_hd__nand3_1
X_0943_ _0606_ _0609_ _0605_ VSS VSS VDD VDD _0115_ sky130_fd_sc_hd__a21oi_2
X_0944_ _0066_ _0622_ VSS VSS VDD VDD _0116_ sky130_fd_sc_hd__nor2_1
X_0945_ _0113_ _0114_ _0115_ _0116_ VSS VSS VDD VDD _0117_
+ sky130_fd_sc_hd__o211ai_2
X_0946_ _0068_ _0110_ _0112_ _0117_ VSS VSS VDD VDD _0118_
+ sky130_fd_sc_hd__o211ai_4
X_0947_ _0102_ _0109_ _0118_ VSS VSS VDD VDD _0119_ sky130_fd_sc_hd__nor3_1
X_0948_ _0113_ _0114_ VSS VSS VDD VDD _0120_ sky130_fd_sc_hd__nor2_1
X_0949_ _0115_ _0067_ VSS VSS VDD VDD _0121_ sky130_fd_sc_hd__nor2b_1
X_0950_ _0066_ _0076_ VSS VSS VDD VDD _0122_ sky130_fd_sc_hd__nand2_1
X_0951_ _0087_ _0122_ VSS VSS VDD VDD _0123_ sky130_fd_sc_hd__nor2_1
X_0952_ _0622_ _0120_ _0121_ _0123_ VSS VSS VDD VDD _0124_
+ sky130_fd_sc_hd__o31ai_2
X_0953_ _0076_ _0588_ _0584_ VSS VSS VDD VDD _0125_ sky130_fd_sc_hd__a21o_1
X_0954_ _0074_ _0076_ _0094_ _0125_ VSS VSS VDD VDD _0126_
+ sky130_fd_sc_hd__a31o_1
X_0955_ _0577_ _0126_ VSS VSS VDD VDD _0127_ sky130_fd_sc_hd__nor2_1
X_0956_ _0577_ _0074_ _0075_ _0076_ VSS VSS VDD VDD _0128_
+ sky130_fd_sc_hd__nand4_1
X_0957_ _0068_ _0128_ _0103_ _0104_ VSS VSS VDD VDD _0129_
+ sky130_fd_sc_hd__nor4_1
X_0958_ _0067_ _0605_ _0622_ VSS VSS VDD VDD _0130_ sky130_fd_sc_hd__a21oi_1
X_0959_ _0130_ _0128_ _0066_ VSS VSS VDD VDD _0131_ sky130_fd_sc_hd__nor3b_1
X_0960_ _0577_ _0126_ _0129_ _0131_ VSS VSS VDD VDD _0132_
+ sky130_fd_sc_hd__a211o_1
X_0961_ _0124_ _0127_ _0132_ VSS VSS VDD VDD _0133_ sky130_fd_sc_hd__a21oi_2
X_0962_ _0100_ _0119_ _0133_ VSS VSS VDD VDD _0134_ sky130_fd_sc_hd__nand3_2
X_0963_ net87 _0134_ VSS VSS VDD VDD _0637_ sky130_fd_sc_hd__nor2_1
X_0964_ _0088_ _0093_ _0099_ VSS VSS VDD VDD _0135_ sky130_fd_sc_hd__o21ai_4
X_0965_ _0102_ _0109_ _0118_ VSS VSS VDD VDD _0136_ sky130_fd_sc_hd__or3_4
X_0966_ _0124_ _0127_ _0132_ VSS VSS VDD VDD _0137_ sky130_fd_sc_hd__a21o_2
X_0967_ net30 _0136_ _0137_ VSS VSS VDD VDD _0138_ sky130_fd_sc_hd__nor3_1
X_0968_ _0610_ _0567_ VSS VSS VDD VDD _0139_ sky130_fd_sc_hd__xor2_4
X_0969_ _0138_ _0139_ VSS VSS VDD VDD _0140_ sky130_fd_sc_hd__nand2_1
X_0970_ net87 _0140_ _0637_ VSS VSS VDD VDD _0642_ sky130_fd_sc_hd__a21oi_1
X_0971_ _0085_ _0083_ _0139_ VSS VSS VDD VDD _0141_ sky130_fd_sc_hd__a21oi_4
X_0972_ _0135_ _0136_ _0137_ net34 VSS VSS VDD VDD _0142_
+ sky130_fd_sc_hd__or4_4
X_0973_ _0096_ _0098_ net60 VSS VSS VDD VDD _0143_ sky130_fd_sc_hd__mux2i_2
X_0974_ _0088_ _0093_ VSS VSS VDD VDD _0144_ sky130_fd_sc_hd__nor2_1
X_0975_ _0117_ _0112_ VSS VSS VDD VDD _0145_ sky130_fd_sc_hd__nand2_2
X_0976_ _0610_ _0567_ VSS VSS VDD VDD _0146_ sky130_fd_sc_hd__xnor2_4
X_0977_ _0067_ _0115_ VSS VSS VDD VDD _0147_ sky130_fd_sc_hd__xor2_1
X_0978_ _0105_ _0107_ _0146_ _0147_ VSS VSS VDD VDD _0148_
+ sky130_fd_sc_hd__nor4_2
X_0979_ _0145_ _0148_ _0083_ _0085_ VSS VSS VDD VDD _0149_
+ sky130_fd_sc_hd__nand4b_1
X_0980_ _0143_ _0144_ _0149_ _0137_ VSS VSS VDD VDD _0150_
+ sky130_fd_sc_hd__o31ai_2
X_0981_ _0142_ _0150_ VSS VSS VDD VDD _0151_ sky130_fd_sc_hd__nand2_4
X_0982_ net86 _0134_ _0139_ VSS VSS VDD VDD _0152_ sky130_fd_sc_hd__nand3_2
X_0983_ _0571_ _0082_ net33 _0078_ VSS VSS VDD VDD _0153_
+ sky130_fd_sc_hd__o2bb2ai_4
X_0984_ _0084_ _0077_ _0571_ _0082_ VSS VSS VDD VDD _0154_
+ sky130_fd_sc_hd__a211oi_4
X_0985_ _0153_ _0154_ _0146_ VSS VSS VDD VDD _0155_ sky130_fd_sc_hd__nor3_4
X_0986_ _0138_ _0155_ VSS VSS VDD VDD _0156_ sky130_fd_sc_hd__nand2_1
X_0987_ net46 net32 _0146_ VSS VSS VDD VDD _0157_ sky130_fd_sc_hd__nand3_1
X_0988_ _0157_ _0134_ VSS VSS VDD VDD _0158_ sky130_fd_sc_hd__nand2b_1
X_0989_ _0568_ VSS VSS VDD VDD _0159_ sky130_fd_sc_hd__buf_2
X_0990_ _0159_ VSS VSS VDD VDD _0160_ sky130_fd_sc_hd__inv_1
X_0991_ _0152_ _0156_ _0158_ _0160_ VSS VSS VDD VDD _0161_
+ sky130_fd_sc_hd__a31oi_4
X_0992_ _0135_ _0118_ _0137_ _0141_ VSS VSS VDD VDD _0162_
+ sky130_fd_sc_hd__nor4_4
X_0993_ _0109_ _0155_ VSS VSS VDD VDD _0163_ sky130_fd_sc_hd__nand2_1
X_0994_ _0105_ _0162_ _0107_ _0155_ _0163_ VSS VSS VDD VDD
+ _0164_ sky130_fd_sc_hd__o41a_1
X_0995_ _0068_ _0110_ VSS VSS VDD VDD _0165_ sky130_fd_sc_hd__nor2_1
X_0996_ _0145_ _0165_ VSS VSS VDD VDD _0166_ sky130_fd_sc_hd__nor2_2
X_0997_ _0067_ _0101_ VSS VSS VDD VDD _0167_ sky130_fd_sc_hd__xor2_1
X_0998_ _0105_ _0107_ VSS VSS VDD VDD _0168_ sky130_fd_sc_hd__nor2_2
X_0999_ _0167_ _0168_ VSS VSS VDD VDD _0169_ sky130_fd_sc_hd__nand2_1
X_1000_ net52 _0169_ _0137_ net49 VSS VSS VDD VDD _0170_ sky130_fd_sc_hd__or4_4
X_1001_ _0083_ _0085_ _0148_ VSS VSS VDD VDD _0171_ sky130_fd_sc_hd__nand3_1
X_1002_ _0169_ _0086_ _0166_ _0146_ VSS VSS VDD VDD _0172_
+ sky130_fd_sc_hd__nor4_4
X_1003_ _0166_ _0170_ _0171_ _0172_ VSS VSS VDD VDD _0173_
+ sky130_fd_sc_hd__a31oi_4
X_1004_ _0088_ _0093_ VSS VSS VDD VDD _0174_ sky130_fd_sc_hd__or2_0
X_1005_ _0145_ _0154_ _0153_ _0148_ VSS VSS VDD VDD _0175_
+ sky130_fd_sc_hd__nor4b_4
X_1006_ _0099_ _0174_ _0175_ VSS VSS VDD VDD _0176_ sky130_fd_sc_hd__nand3_2
X_1007_ _0143_ _0149_ _0144_ VSS VSS VDD VDD _0177_ sky130_fd_sc_hd__o21ai_1
X_1008_ _0176_ _0142_ _0177_ VSS VSS VDD VDD _0178_ sky130_fd_sc_hd__nand3_4
X_1009_ net77 net61 _0173_ _0178_ VSS VSS VDD VDD _0179_ sky130_fd_sc_hd__nor4_4
X_1010_ _0622_ _0120_ _0121_ _0066_ VSS VSS VDD VDD _0180_
+ sky130_fd_sc_hd__o31ai_1
X_1011_ _0598_ _0180_ VSS VSS VDD VDD _0181_ sky130_fd_sc_hd__nand2b_1
X_1012_ _0075_ _0181_ _0594_ VSS VSS VDD VDD _0182_ sky130_fd_sc_hd__a21oi_2
X_1013_ _0074_ _0182_ VSS VSS VDD VDD _0183_ sky130_fd_sc_hd__xor2_4
X_1014_ _0075_ _0073_ VSS VSS VDD VDD _0184_ sky130_fd_sc_hd__xnor2_2
X_1015_ _0184_ _0134_ _0175_ VSS VSS VDD VDD _0185_ sky130_fd_sc_hd__nand3_2
X_1016_ _0135_ _0136_ _0137_ net22 VSS VSS VDD VDD _0186_
+ sky130_fd_sc_hd__nor4_4
X_1017_ _0184_ _0175_ VSS VSS VDD VDD _0187_ sky130_fd_sc_hd__xnor2_1
X_1018_ net74 _0187_ VSS VSS VDD VDD _0188_ sky130_fd_sc_hd__or2_4
X_1019_ _0183_ _0185_ net45 VSS VSS VDD VDD _0189_ sky130_fd_sc_hd__a21oi_4
X_1020_ _0161_ net65 _0189_ VSS VSS VDD VDD _0190_ sky130_fd_sc_hd__nand3_1
X_1021_ _0151_ _0190_ VSS VSS VDD VDD _0646_ sky130_fd_sc_hd__nand2_1
X_1022_ _0183_ _0185_ _0188_ VSS VSS VDD VDD _0191_ sky130_fd_sc_hd__a21o_2
X_1023_ net46 net32 _0139_ VSS VSS VDD VDD _0192_ sky130_fd_sc_hd__nand3_1
X_1024_ _0160_ _0118_ VSS VSS VDD VDD _0193_ sky130_fd_sc_hd__or2_0
X_1025_ _0124_ _0127_ _0132_ _0145_ _0102_ VSS VSS VDD VDD
+ _0194_ sky130_fd_sc_hd__a2111oi_4
X_1026_ net29 _0192_ _0193_ _0194_ VSS VSS VDD VDD _0195_
+ sky130_fd_sc_hd__nor4b_2
X_1027_ _0100_ _0194_ _0193_ _0155_ net50 VSS VSS VDD VDD
+ _0196_ sky130_fd_sc_hd__a2111oi_4
X_1028_ _0196_ _0195_ _0168_ VSS VSS VDD VDD _0197_ sky130_fd_sc_hd__o21ai_4
X_1029_ _0167_ _0109_ VSS VSS VDD VDD _0198_ sky130_fd_sc_hd__nor2_1
X_1030_ net77 _0168_ VSS VSS VDD VDD _0199_ sky130_fd_sc_hd__nor2_1
X_1031_ _0155_ _0198_ _0199_ VSS VSS VDD VDD _0200_ sky130_fd_sc_hd__a21oi_1
X_1032_ net77 _0162_ _0155_ _0200_ VSS VSS VDD VDD _0201_
+ sky130_fd_sc_hd__o31a_4
X_1033_ _0151_ _0197_ _0201_ VSS VSS VDD VDD _0202_ sky130_fd_sc_hd__or3_4
X_1034_ _0191_ _0202_ VSS VSS VDD VDD _0203_ sky130_fd_sc_hd__nor2_1
X_1035_ _0099_ _0175_ net82 VSS VSS VDD VDD _0204_ sky130_fd_sc_hd__a21oi_1
X_1036_ _0183_ _0185_ _0204_ VSS VSS VDD VDD _0205_ sky130_fd_sc_hd__a21boi_4
X_1037_ _0197_ net88 _0201_ VSS VSS VDD VDD _0206_ sky130_fd_sc_hd__nor3_2
X_1038_ _0205_ _0206_ net75 VSS VSS VDD VDD _0207_ sky130_fd_sc_hd__a21oi_2
X_1039_ _0203_ _0207_ VSS VSS VDD VDD _0208_ sky130_fd_sc_hd__nor2_1
X_1040_ _0100_ _0194_ _0157_ VSS VSS VDD VDD _0209_ sky130_fd_sc_hd__a21oi_1
X_1041_ _0153_ _0154_ _0139_ VSS VSS VDD VDD _0210_ sky130_fd_sc_hd__o21ai_0
X_1042_ _0100_ _0167_ _0166_ _0133_ _0210_ VSS VSS VDD VDD
+ _0211_ sky130_fd_sc_hd__a41oi_1
X_1043_ _0209_ _0211_ _0625_ _0168_ VSS VSS VDD VDD _0212_
+ sky130_fd_sc_hd__o211a_1
X_1044_ _0159_ _0142_ _0150_ VSS VSS VDD VDD _0213_ sky130_fd_sc_hd__nand3_1
X_1045_ _0142_ _0150_ _0159_ VSS VSS VDD VDD _0214_ sky130_fd_sc_hd__a21o_1
X_1046_ _0212_ _0213_ _0214_ VSS VSS VDD VDD _0215_ sky130_fd_sc_hd__nand3_1
X_1047_ _0161_ _0189_ net64 _0215_ VSS VSS VDD VDD _0216_
+ sky130_fd_sc_hd__a31oi_4
X_1048_ net25 _0187_ VSS VSS VDD VDD _0217_ sky130_fd_sc_hd__nor2_4
X_1049_ _0151_ _0217_ _0197_ VSS VSS VDD VDD _0218_ sky130_fd_sc_hd__nor3_1
X_1050_ _0217_ _0197_ _0218_ VSS VSS VDD VDD _0219_ sky130_fd_sc_hd__a21oi_2
X_1051_ _0137_ _0176_ net74 VSS VSS VDD VDD _0220_ sky130_fd_sc_hd__a21oi_2
X_1052_ _0205_ _0179_ net38 _0220_ VSS VSS VDD VDD _0221_
+ sky130_fd_sc_hd__a211o_1
X_1053_ _0221_ _0219_ _0201_ VSS VSS VDD VDD _0222_ sky130_fd_sc_hd__a21oi_4
X_1054_ _0174_ _0204_ _0189_ _0220_ _0173_ VSS VSS VDD VDD
+ _0223_ sky130_fd_sc_hd__a311o_2
X_1055_ _0173_ _0220_ VSS VSS VDD VDD _0224_ sky130_fd_sc_hd__nand2_1
X_1056_ _0100_ _0119_ _0133_ _0210_ VSS VSS VDD VDD _0225_
+ sky130_fd_sc_hd__a31oi_1
X_1057_ _0135_ _0136_ _0137_ _0192_ VSS VSS VDD VDD _0226_
+ sky130_fd_sc_hd__nor4_1
X_1058_ _0100_ _0119_ _0133_ _0157_ VSS VSS VDD VDD _0227_
+ sky130_fd_sc_hd__a31oi_1
X_1059_ _0225_ _0226_ _0227_ _0159_ VSS VSS VDD VDD _0228_
+ sky130_fd_sc_hd__o31ai_1
X_1060_ net77 _0228_ net61 VSS VSS VDD VDD _0229_ sky130_fd_sc_hd__nor3_2
X_1061_ _0173_ _0224_ _0229_ VSS VSS VDD VDD _0230_ sky130_fd_sc_hd__mux2_4
X_1062_ net78 _0173_ _0164_ _0178_ VSS VSS VDD VDD _0231_
+ sky130_fd_sc_hd__or4_4
X_1063_ _0231_ _0151_ _0191_ _0197_ _0201_ VSS VSS VDD VDD
+ _0232_ sky130_fd_sc_hd__a2111oi_4
X_1064_ _0151_ _0197_ _0201_ VSS VSS VDD VDD _0233_ sky130_fd_sc_hd__nor3_1
X_1065_ _0217_ _0233_ _0205_ VSS VSS VDD VDD _0234_ sky130_fd_sc_hd__a21oi_2
X_1066_ _0223_ _0230_ _0234_ _0232_ VSS VSS VDD VDD _0235_
+ sky130_fd_sc_hd__a211oi_4
X_1067_ net68 net56 net73 VSS VSS VDD VDD _0236_ sky130_fd_sc_hd__nand3_2
X_1068_ _0208_ _0236_ VSS VSS VDD VDD _0650_ sky130_fd_sc_hd__nand2_1
X_1069_ _0159_ _0168_ VSS VSS VDD VDD _0237_ sky130_fd_sc_hd__nand2_1
X_1070_ _0138_ net51 _0155_ _0237_ VSS VSS VDD VDD _0238_
+ sky130_fd_sc_hd__nor4_1
X_1071_ net77 _0162_ _0155_ _0200_ VSS VSS VDD VDD _0239_
+ sky130_fd_sc_hd__o31ai_1
X_1072_ _0239_ _0212_ _0213_ _0214_ VSS VSS VDD VDD _0240_
+ sky130_fd_sc_hd__nand4_1
X_1073_ net64 _0189_ _0238_ _0240_ VSS VSS VDD VDD _0241_
+ sky130_fd_sc_hd__a31oi_1
X_1074_ _0223_ net84 _0241_ VSS VSS VDD VDD _0242_ sky130_fd_sc_hd__a21boi_2
X_1075_ _0197_ _0201_ _0217_ VSS VSS VDD VDD _0243_ sky130_fd_sc_hd__o21ai_1
X_1076_ _0217_ _0202_ net85 _0243_ VSS VSS VDD VDD _0244_
+ sky130_fd_sc_hd__o211ai_4
X_1077_ net39 _0202_ VSS VSS VDD VDD _0245_ sky130_fd_sc_hd__nor2_1
X_1078_ _0178_ _0205_ _0245_ _0202_ _0191_ VSS VSS VDD VDD
+ _0246_ sky130_fd_sc_hd__o32ai_4
X_1079_ _0223_ net84 VSS VSS VDD VDD _0247_ sky130_fd_sc_hd__nand2_1
X_1080_ _0234_ net24 VSS VSS VDD VDD _0248_ sky130_fd_sc_hd__or2_4
X_1081_ net67 _0222_ _0247_ _0248_ VSS VSS VDD VDD _0249_
+ sky130_fd_sc_hd__a31oi_2
X_1082_ _0242_ _0246_ _0244_ _0249_ VSS VSS VDD VDD _0250_
+ sky130_fd_sc_hd__a31oi_4
X_1083_ _0190_ _0213_ _0214_ VSS VSS VDD VDD _0251_ sky130_fd_sc_hd__and3_1
X_1084_ _0625_ VSS VSS VDD VDD _0252_ sky130_fd_sc_hd__inv_1
X_1085_ _0191_ _0202_ _0252_ VSS VSS VDD VDD _0253_ sky130_fd_sc_hd__o21ai_1
X_1086_ _0205_ _0206_ _0252_ _0178_ VSS VSS VDD VDD _0254_
+ sky130_fd_sc_hd__a211o_1
X_1087_ _0625_ _0189_ _0233_ VSS VSS VDD VDD _0255_ sky130_fd_sc_hd__nand3_1
X_1088_ _0207_ _0253_ _0254_ _0255_ VSS VSS VDD VDD _0256_
+ sky130_fd_sc_hd__o211ai_4
X_1089_ _0640_ VSS VSS VDD VDD _0257_ sky130_fd_sc_hd__inv_1
X_1090_ net67 _0235_ net54 _0256_ _0257_ VSS VSS VDD VDD _0258_
+ sky130_fd_sc_hd__a311oi_4
X_1091_ _0251_ net70 VSS VSS VDD VDD _0259_ sky130_fd_sc_hd__nand2_1
X_1092_ _0203_ _0207_ _0625_ VSS VSS VDD VDD _0260_ sky130_fd_sc_hd__o21ai_2
X_1093_ _0152_ _0156_ _0158_ VSS VSS VDD VDD _0261_ sky130_fd_sc_hd__nand3_2
X_1094_ _0159_ net64 _0205_ _0217_ VSS VSS VDD VDD _0262_
+ sky130_fd_sc_hd__nand4_1
X_1095_ _0261_ _0213_ _0214_ _0262_ VSS VSS VDD VDD _0263_
+ sky130_fd_sc_hd__nand4_1
X_1096_ _0220_ _0238_ VSS VSS VDD VDD _0264_ sky130_fd_sc_hd__and2_0
X_1097_ net64 _0189_ _0238_ _0264_ VSS VSS VDD VDD _0265_
+ sky130_fd_sc_hd__a31o_1
X_1098_ net37 _0191_ _0151_ VSS VSS VDD VDD _0266_ sky130_fd_sc_hd__o21ai_2
X_1099_ _0134_ _0146_ VSS VSS VDD VDD _0267_ sky130_fd_sc_hd__nand2_1
X_1100_ _0100_ _0133_ VSS VSS VDD VDD _0268_ sky130_fd_sc_hd__nand2_1
X_1101_ _0118_ _0268_ _0146_ _0147_ net86 VSS VSS VDD VDD
+ _0269_ sky130_fd_sc_hd__o41ai_1
X_1102_ _0267_ _0269_ _0109_ VSS VSS VDD VDD _0270_ sky130_fd_sc_hd__a21oi_1
X_1103_ _0109_ _0155_ _0161_ _0266_ _0270_ VSS VSS VDD VDD
+ _0271_ sky130_fd_sc_hd__a221oi_2
X_1104_ _0260_ _0263_ _0265_ _0271_ VSS VSS VDD VDD _0272_
+ sky130_fd_sc_hd__o22ai_2
X_1105_ _0203_ _0207_ VSS VSS VDD VDD _0273_ sky130_fd_sc_hd__or2_4
X_1106_ _0273_ net69 VSS VSS VDD VDD _0274_ sky130_fd_sc_hd__nand2_1
X_1107_ _0236_ _0272_ _0274_ VSS VSS VDD VDD _0275_ sky130_fd_sc_hd__nand3_4
X_1108_ _0208_ _0248_ _0242_ VSS VSS VDD VDD _0276_ sky130_fd_sc_hd__a21boi_0
X_1109_ _0273_ _0241_ _0247_ VSS VSS VDD VDD _0277_ sky130_fd_sc_hd__a21o_1
X_1110_ _0159_ _0220_ _0261_ VSS VSS VDD VDD _0278_ sky130_fd_sc_hd__a21oi_1
X_1111_ _0161_ _0266_ _0278_ VSS VSS VDD VDD _0279_ sky130_fd_sc_hd__a21oi_2