
* cell clock_divider
* pin div_ratio[2]
* pin div_ratio[3]
* pin div_ratio[4]
* pin div_ratio[5]
* pin div_ratio[6]
* pin div_ratio[7]
* pin div_ratio[1]
* pin div_ratio[0]
* pin duty_cycle[1]
* pin duty_cycle[2]
* pin clk_out
* pin duty_cycle[4]
* pin duty_cycle[3]
* pin duty_cycle[5]
* pin duty_cycle[6]
* pin duty_cycle[7]
* pin duty_cycle[0]
* pin clk_in
* pin rst_n
.SUBCKT clock_divider 1 2 3 4 5 6 7 8 9 10 11 12 13 14 15 16 17 224 820
* net 1 div_ratio[2]
* net 2 div_ratio[3]
* net 3 div_ratio[4]
* net 4 div_ratio[5]
* net 5 div_ratio[6]
* net 6 div_ratio[7]
* net 7 div_ratio[1]
* net 8 div_ratio[0]
* net 9 duty_cycle[1]
* net 10 duty_cycle[2]
* net 11 clk_out
* net 12 duty_cycle[4]
* net 13 duty_cycle[3]
* net 14 duty_cycle[5]
* net 15 duty_cycle[6]
* net 16 duty_cycle[7]
* net 17 duty_cycle[0]
* net 224 clk_in
* net 820 rst_n
* cell instance $3 r0 *1 434.24,2.72
X$3 21 1 29 39 39 21 sky130_fd_sc_hd__buf_8
* cell instance $6 r0 *1 432.4,2.72
X$6 39 2 39 21 32 21 sky130_fd_sc_hd__clkbuf_2
* cell instance $9 r0 *1 430.56,2.72
X$9 39 3 39 21 40 21 sky130_fd_sc_hd__clkbuf_2
* cell instance $12 r0 *1 443.44,2.72
X$12 21 4 18 39 39 21 sky130_fd_sc_hd__buf_6
* cell instance $15 m0 *1 443.44,8.16
X$15 39 5 35 21 39 21 sky130_fd_sc_hd__clkbuf_1
* cell instance $18 r0 *1 443.44,8.16
X$18 21 6 36 39 39 21 sky130_fd_sc_hd__buf_6
* cell instance $21 m0 *1 443.44,13.6
X$21 39 7 21 56 39 21 sky130_fd_sc_hd__clkbuf_4
* cell instance $24 r0 *1 441.6,8.16
X$24 39 8 21 57 39 21 sky130_fd_sc_hd__buf_2
* cell instance $27 r0 *1 448.96,2.72
X$27 39 9 39 21 28 21 sky130_fd_sc_hd__clkbuf_2
* cell instance $31 r0 *1 459.08,2.72
X$31 39 10 39 21 37 21 sky130_fd_sc_hd__clkbuf_2
* cell instance $34 r0 *1 450.8,2.72
X$34 39 229 11 21 39 21 sky130_fd_sc_hd__clkbuf_1
* cell instance $38 r0 *1 457.24,2.72
X$38 39 12 39 21 25 21 sky130_fd_sc_hd__clkbuf_2
* cell instance $40 r0 *1 454.48,2.72
X$40 39 13 21 20 39 21 sky130_fd_sc_hd__buf_2
* cell instance $44 r0 *1 460.92,2.72
X$44 39 14 39 21 19 21 sky130_fd_sc_hd__clkbuf_2
* cell instance $47 r0 *1 465.98,2.72
X$47 39 15 21 24 39 21 sky130_fd_sc_hd__buf_2
* cell instance $50 m0 *1 467.36,8.16
X$50 39 16 39 21 50 21 sky130_fd_sc_hd__clkbuf_2
* cell instance $53 r0 *1 441.14,2.72
X$53 39 17 39 21 30 21 sky130_fd_sc_hd__clkbuf_2
* cell instance $69 m0 *1 493.58,19.04
X$69 39 50 18 118 39 21 21 sky130_fd_sc_hd__and2_0
* cell instance $71 r0 *1 484.84,8.16
X$71 39 25 18 94 39 21 21 sky130_fd_sc_hd__and2_0
* cell instance $74 r0 *1 432.86,8.16
X$74 39 18 40 32 29 73 39 21 21 sky130_fd_sc_hd__or4_1
* cell instance $76 r0 *1 452.18,8.16
X$76 39 18 37 44 39 21 21 sky130_fd_sc_hd__and2_0
* cell instance $78 m0 *1 431.94,13.6
X$78 39 93 18 127 39 21 21 sky130_fd_sc_hd__xnor2_1
* cell instance $80 r0 *1 450.8,13.6
X$80 39 18 28 114 39 21 21 sky130_fd_sc_hd__and2_0
* cell instance $82 r0 *1 444.82,19.04
X$82 39 18 30 21 175 39 21 sky130_fd_sc_hd__and2_4
* cell instance $85 r0 *1 472.42,2.72
X$85 39 18 20 23 39 21 21 sky130_fd_sc_hd__and2_0
* cell instance $87 r0 *1 490.82,2.72
X$87 39 19 18 22 39 21 21 sky130_fd_sc_hd__and2_0
* cell instance $89 r0 *1 493.12,13.6
X$89 39 24 18 109 39 21 21 sky130_fd_sc_hd__nand2_1
* cell instance $99 m0 *1 479.78,13.6
X$99 39 19 33 95 39 21 21 sky130_fd_sc_hd__and2_0
* cell instance $102 r0 *1 494.5,19.04
X$102 39 36 19 138 39 21 21 sky130_fd_sc_hd__and2_0
* cell instance $105 m0 *1 472.42,13.6
X$105 39 19 41 53 39 21 21 sky130_fd_sc_hd__and2_0
* cell instance $107 r0 *1 458.62,8.16
X$107 39 19 34 69 39 21 21 sky130_fd_sc_hd__and2_0
* cell instance $111 m0 *1 459.08,24.48
X$111 39 19 56 160 39 21 21 sky130_fd_sc_hd__and2_0
* cell instance $113 m0 *1 458.62,29.92
X$113 39 19 57 273 39 21 21 sky130_fd_sc_hd__and2_1
* cell instance $116 r0 *1 495.42,8.16
X$116 39 27 19 60 39 21 21 sky130_fd_sc_hd__and2_0
* cell instance $125 m0 *1 487.14,8.16
X$125 39 36 20 48 39 21 21 sky130_fd_sc_hd__and2_0
* cell instance $128 r0 *1 487.14,8.16
X$128 39 27 20 63 39 21 21 sky130_fd_sc_hd__and2_0
* cell instance $133 m0 *1 445.28,40.8
X$133 39 20 57 422 39 21 21 sky130_fd_sc_hd__nand2_1
* cell instance $135 r0 *1 454.48,8.16
X$135 39 20 33 46 39 21 21 sky130_fd_sc_hd__and2_0
* cell instance $138 m0 *1 452.64,35.36
X$138 39 34 20 21 290 39 21 sky130_fd_sc_hd__and2_4
* cell instance $140 m0 *1 458.62,19.04
X$140 39 20 41 157 39 21 21 sky130_fd_sc_hd__and2_0
* cell instance $142 m0 *1 456.78,40.8
X$142 39 20 56 335 39 21 21 sky130_fd_sc_hd__and2_0
* cell instance $1577 r0 *1 452.18,2.72
X$1577 39 27 28 26 39 21 21 sky130_fd_sc_hd__and2_0
* cell instance $1999 m0 *1 430.56,8.16
X$1999 21 40 33 39 39 21 sky130_fd_sc_hd__buf_6
* cell instance $2000 m0 *1 434.7,8.16
X$2000 21 29 34 39 39 21 sky130_fd_sc_hd__buf_6
* cell instance $2001 m0 *1 438.84,8.16
X$2001 21 32 41 39 39 21 sky130_fd_sc_hd__buf_6
* cell instance $2003 m0 *1 444.82,8.16
X$2003 39 35 39 21 27 21 sky130_fd_sc_hd__buf_4
* cell instance $2005 m0 *1 448.04,8.16
X$2005 39 36 30 42 39 21 21 sky130_fd_sc_hd__and2_0
* cell instance $2008 m0 *1 450.34,8.16
X$2008 21 43 75 42 44 26 39 39 21 sky130_fd_sc_hd__fa_1
* cell instance $2009 m0 *1 457.7,8.16
X$2009 21 45 68 69 46 102 39 39 21 sky130_fd_sc_hd__fa_1
* cell instance $2010 m0 *1 465.06,8.16
X$2010 39 36 28 38 39 21 21 sky130_fd_sc_hd__and2_0
* cell instance $2014 m0 *1 471.04,8.16
X$2014 21 158 65 23 53 66 39 39 21 sky130_fd_sc_hd__fa_1
* cell instance $2017 m0 *1 478.4,8.16
X$2017 21 51 49 52 38 39 39 21 sky130_fd_sc_hd__ha_1
* cell instance $2020 m0 *1 489.44,8.16
X$2020 21 64 47 48 22 61 39 39 21 sky130_fd_sc_hd__fa_1
* cell instance $2562 m0 *1 410.78,13.6
X$2562 21 86 77 76 78 39 39 21 sky130_fd_sc_hd__ha_1
* cell instance $2567 m0 *1 416.76,13.6
X$2567 39 77 86 123 21 39 85 21 sky130_fd_sc_hd__a21oi_1
* cell instance $2569 m0 *1 419.06,13.6
X$2569 39 87 142 84 39 79 21 21 sky130_fd_sc_hd__o21ai_0
* cell instance $2570 r0 *1 420.44,8.16
X$2570 21 84 70 163 71 39 39 21 sky130_fd_sc_hd__ha_1
* cell instance $2572 m0 *1 421.36,13.6
X$2572 39 79 70 90 21 39 21 sky130_fd_sc_hd__nand2b_1
* cell instance $2577 m0 *1 424.58,13.6
X$2577 39 108 89 90 21 39 91 21 sky130_fd_sc_hd__a21oi_1
* cell instance $2579 r0 *1 425.96,8.16
X$2579 39 54 55 39 71 21 21 sky130_fd_sc_hd__xor2_1
* cell instance $2582 m0 *1 428.72,13.6
X$2582 39 81 80 78 39 21 21 sky130_fd_sc_hd__xnor2_1
* cell instance $2585 r0 *1 430.1,8.16
X$2585 39 81 31 54 39 21 21 sky130_fd_sc_hd__nand2_1
* cell instance $2588 m0 *1 435.16,13.6
X$2588 21 82 35 36 104 73 39 39 21 sky130_fd_sc_hd__nor4_2
* cell instance $2589 r0 *1 435.62,8.16
X$2589 39 74 29 31 21 39 21 sky130_fd_sc_hd__nor2_1
* cell instance $2591 r0 *1 437.92,8.16
X$2591 39 57 56 55 31 21 93 39 21 sky130_fd_sc_hd__nor4b_1
* cell instance $2597 m0 *1 446.2,13.6
X$2597 39 27 30 99 39 21 21 sky130_fd_sc_hd__and2_0
* cell instance $2599 m0 *1 448.5,13.6
X$2599 21 58 152 99 100 114 39 39 21 sky130_fd_sc_hd__fa_1
* cell instance $2600 r0 *1 448.5,8.16
X$2600 39 55 37 100 39 21 21 sky130_fd_sc_hd__and2_0
* cell instance $2609 m0 *1 457.24,13.6
X$2609 39 25 41 102 39 21 21 sky130_fd_sc_hd__and2_0
* cell instance $2610 r0 *1 457.24,8.16
X$2610 39 75 39 21 67 21 sky130_fd_sc_hd__inv_1
* cell instance $2611 m0 *1 459.54,13.6
X$2611 39 24 80 103 39 21 21 sky130_fd_sc_hd__and2_0
* cell instance $2612 r0 *1 460.92,8.16
X$2612 21 72 156 68 67 58 39 39 21 sky130_fd_sc_hd__fa_1
* cell instance $2613 m0 *1 461.84,13.6
X$2613 21 113 105 45 101 103 39 39 21 sky130_fd_sc_hd__fa_1
* cell instance $2620 r0 *1 471.04,8.16
X$2620 39 25 33 66 39 21 21 sky130_fd_sc_hd__and2_0
* cell instance $2622 r0 *1 473.34,8.16
X$2622 21 59 97 51 65 43 39 39 21 sky130_fd_sc_hd__fa_1
* cell instance $2627 m0 *1 478.4,13.6
X$2627 39 97 39 21 98 21 sky130_fd_sc_hd__inv_1
* cell instance $2628 r0 *1 480.7,8.16
X$2628 39 27 37 52 39 21 21 sky130_fd_sc_hd__and2_0
* cell instance $2629 m0 *1 482.08,13.6
X$2629 21 96 129 63 95 94 39 39 21 sky130_fd_sc_hd__fa_1
* cell instance $2633 m0 *1 489.44,13.6
X$2633 39 50 55 92 39 21 21 sky130_fd_sc_hd__nand2_1
* cell instance $2635 r0 *1 490.36,8.16
X$2635 39 64 39 21 62 21 sky130_fd_sc_hd__inv_1
* cell instance $2636 m0 *1 490.82,13.6
X$2636 21 83 88 62 92 109 39 39 21 sky130_fd_sc_hd__fa_1
* cell instance $2637 r0 *1 491.74,8.16
X$2637 39 27 25 61 39 21 21 sky130_fd_sc_hd__and2_0
* cell instance $3215 r0 *1 414,13.6
X$3215 21 141 124 106 125 39 39 21 sky130_fd_sc_hd__ha_1
* cell instance $3217 r0 *1 420.44,13.6
X$3217 21 89 108 110 127 39 39 21 sky130_fd_sc_hd__ha_1
* cell instance $3225 r0 *1 431.48,13.6
X$3225 39 81 39 21 104 21 sky130_fd_sc_hd__inv_1
* cell instance $3228 r0 *1 435.62,13.6
X$3228 39 104 73 130 21 39 21 sky130_fd_sc_hd__nor2_1
* cell instance $3230 r0 *1 437.92,13.6
X$3230 39 73 56 27 57 21 173 39 21 sky130_fd_sc_hd__nor4_1
* cell instance $3240 r0 *1 453.56,13.6
X$3240 39 40 21 55 39 21 sky130_fd_sc_hd__buf_2
* cell instance $3246 r0 *1 462.76,13.6
X$3246 39 50 56 101 39 21 21 sky130_fd_sc_hd__and2_0
* cell instance $3249 r0 *1 470.58,13.6
X$3249 39 113 39 21 112 21 sky130_fd_sc_hd__inv_1
* cell instance $3250 r0 *1 471.96,13.6
X$3250 21 132 264 98 105 72 39 39 21 sky130_fd_sc_hd__fa_1
* cell instance $3256 r0 *1 482.08,13.6
X$3256 39 36 37 111 39 21 21 sky130_fd_sc_hd__and2_0
* cell instance $3259 r0 *1 485.3,13.6
X$3259 21 150 148 111 129 49 39 39 21 sky130_fd_sc_hd__fa_1
* cell instance $3262 r0 *1 494.96,13.6
X$3262 39 36 25 107 39 21 21 sky130_fd_sc_hd__and2_0
* cell instance $3264 r0 *1 497.72,13.6
X$3264 21 122 120 60 107 39 39 21 sky130_fd_sc_hd__ha_1
* cell instance $3623 m0 *1 408.48,19.04
X$3623 21 139 115 119 117 39 39 21 sky130_fd_sc_hd__ha_1
* cell instance $3624 m0 *1 413.08,19.04
X$3624 39 115 139 116 21 39 21 sky130_fd_sc_hd__nand2b_1
* cell instance $3626 m0 *1 415.84,19.04
X$3626 39 141 116 124 21 39 123 21 sky130_fd_sc_hd__a21o_1
* cell instance $3630 m0 *1 426.88,19.04
X$3630 21 125 81 117 126 39 39 21 sky130_fd_sc_hd__ha_1
* cell instance $3631 m0 *1 431.48,19.04
X$3631 39 57 39 21 117 21 sky130_fd_sc_hd__inv_1
* cell instance $3632 m0 *1 432.86,19.04
X$3632 39 56 39 21 126 21 sky130_fd_sc_hd__inv_1
* cell instance $3633 m0 *1 434.24,19.04
X$3633 39 130 27 146 39 21 21 sky130_fd_sc_hd__xnor2_1
* cell instance $3634 m0 *1 437.46,19.04
X$3634 39 30 57 131 39 21 21 sky130_fd_sc_hd__nand2_1
* cell instance $3640 m0 *1 446.2,19.04
X$3640 39 29 21 80 39 21 sky130_fd_sc_hd__buf_2
* cell instance $3649 m0 *1 466.9,19.04
X$3649 39 156 39 21 133 21 sky130_fd_sc_hd__inv_1
* cell instance $3650 m0 *1 468.28,19.04
X$3650 39 24 74 155 39 21 21 sky130_fd_sc_hd__and2_0
* cell instance $3658 m0 *1 488.06,19.04
X$3658 39 150 39 21 128 21 sky130_fd_sc_hd__inv_1
* cell instance $3660 m0 *1 490.36,19.04
X$3660 39 148 39 21 149 21 sky130_fd_sc_hd__inv_1
* cell instance $3662 m0 *1 495.88,19.04
X$3662 39 27 24 121 39 21 21 sky130_fd_sc_hd__and2_0
* cell instance $3664 m0 *1 498.64,19.04
X$3664 21 144 140 120 118 121 39 39 21 sky130_fd_sc_hd__fa_1
* cell instance $4165 m0 *1 405.72,24.48
X$4165 21 162 76 161 165 39 39 21 sky130_fd_sc_hd__dfrtp_2
* cell instance $4168 r0 *1 413.54,19.04
X$4168 39 85 134 142 21 39 21 sky130_fd_sc_hd__nor2b_1
* cell instance $4170 m0 *1 415.84,24.48
X$4170 21 162 163 161 188 39 39 21 sky130_fd_sc_hd__dfrtp_1
* cell instance $4171 r0 *1 415.84,19.04
X$4171 21 134 87 143 147 39 39 21 sky130_fd_sc_hd__ha_1
* cell instance $4182 m0 *1 429.18,24.48
X$4182 39 91 170 171 21 39 21 sky130_fd_sc_hd__nor2b_1
* cell instance $4183 r0 *1 429.64,19.04
X$4183 21 170 172 145 146 39 39 21 sky130_fd_sc_hd__ha_1
* cell instance $4185 m0 *1 431.94,24.48
X$4185 39 172 193 171 39 21 192 21 sky130_fd_sc_hd__o21ai_1
* cell instance $4188 r0 *1 436.08,19.04
X$4188 39 135 74 147 39 21 21 sky130_fd_sc_hd__xnor2_1
* cell instance $4189 m0 *1 437.46,24.48
X$4189 39 173 36 222 39 21 21 sky130_fd_sc_hd__xnor2_1
* cell instance $4190 r0 *1 439.3,19.04
X$4190 39 80 56 57 135 21 39 21 sky130_fd_sc_hd__nor3_1
* cell instance $4196 m0 *1 443.9,24.48
X$4196 21 164 218 175 177 198 39 39 21 sky130_fd_sc_hd__fa_1
* cell instance $4197 r0 *1 448.04,19.04
X$4197 39 37 41 177 39 21 21 sky130_fd_sc_hd__and2_1
* cell instance $4202 m0 *1 451.26,24.48
X$4202 21 182 216 154 179 164 39 39 21 sky130_fd_sc_hd__fa_1
* cell instance $4203 r0 *1 451.26,19.04
X$4203 39 32 21 74 39 21 sky130_fd_sc_hd__buf_2
* cell instance $4205 r0 *1 454.02,19.04
X$4205 39 152 39 21 154 21 sky130_fd_sc_hd__inv_1
* cell instance $4209 r0 *1 457.24,19.04
X$4209 21 136 179 157 160 199 39 39 21 sky130_fd_sc_hd__fa_1
* cell instance $4212 m0 *1 461.84,24.48
X$4212 21 196 195 136 180 197 39 39 21 sky130_fd_sc_hd__fa_1
* cell instance $4213 r0 *1 464.6,19.04
X$4213 39 50 80 137 39 21 21 sky130_fd_sc_hd__and2_0
* cell instance $4214 r0 *1 466.9,19.04
X$4214 21 159 153 158 137 155 39 39 21 sky130_fd_sc_hd__fa_1
* cell instance $4220 m0 *1 472.42,24.48
X$4220 39 132 39 21 178 21 sky130_fd_sc_hd__inv_1
* cell instance $4222 r0 *1 474.26,19.04
X$4222 21 151 176 153 149 59 39 39 21 sky130_fd_sc_hd__fa_1
* cell instance $4223 m0 *1 474.26,24.48
X$4223 21 194 261 176 112 178 39 39 21 sky130_fd_sc_hd__fa_1
* cell instance $4230 m0 *1 483,24.48
X$4230 39 96 39 21 191 21 sky130_fd_sc_hd__inv_1
* cell instance $4236 m0 *1 485.76,24.48
X$4236 21 174 189 47 190 128 39 39 21 sky130_fd_sc_hd__fa_1
* cell instance $4239 m0 *1 493.12,24.48
X$4239 39 169 39 21 187 21 sky130_fd_sc_hd__inv_1
* cell instance $4242 r0 *1 496.8,19.04
X$4242 21 169 168 88 122 39 39 21 sky130_fd_sc_hd__ha_1
* cell instance $4246 m0 *1 500.94,24.48
X$4246 39 168 39 21 186 21 sky130_fd_sc_hd__inv_1
* cell instance $4247 r0 *1 501.4,19.04
X$4247 21 167 166 140 138 39 39 21 sky130_fd_sc_hd__ha_1
* cell instance $4248 m0 *1 502.32,24.48
X$4248 39 167 39 21 184 21 sky130_fd_sc_hd__inv_1
* cell instance $4254 m0 *1 505.08,24.48
X$4254 39 166 39 21 183 21 sky130_fd_sc_hd__inv_1
* cell instance $4816 r0 *1 402.04,24.48
X$4816 21 162 106 161 217 39 39 21 sky130_fd_sc_hd__dfrtp_1
* cell instance $4817 r0 *1 411.24,24.48
X$4817 39 76 219 200 39 21 21 sky130_fd_sc_hd__xnor2_1
* cell instance $4818 r0 *1 414.46,24.48
X$4818 39 201 200 165 21 39 21 sky130_fd_sc_hd__nor2_1
* cell instance $4821 r0 *1 417.22,24.48
X$4821 39 201 232 188 21 39 21 sky130_fd_sc_hd__nor2_1
* cell instance $4822 r0 *1 418.6,24.48
X$4822 39 163 39 21 220 21 sky130_fd_sc_hd__inv_1
* cell instance $4823 r0 *1 419.98,24.48
X$4823 21 162 145 221 181 39 39 21 sky130_fd_sc_hd__dfrtp_1
* cell instance $4828 r0 *1 429.64,24.48
X$4828 21 201 82 203 192 39 39 21 sky130_fd_sc_hd__a21oi_4
* cell instance $4829 r0 *1 435.62,24.48
X$4829 21 193 204 202 222 39 39 21 sky130_fd_sc_hd__ha_1
* cell instance $4831 r0 *1 440.68,24.48
X$4831 39 28 41 268 39 21 21 sky130_fd_sc_hd__and2_0
* cell instance $4832 r0 *1 442.98,24.48
X$4832 39 230 204 203 21 39 21 sky130_fd_sc_hd__nor2_1
* cell instance $4834 r0 *1 444.82,24.48
X$4834 39 33 30 271 39 21 21 sky130_fd_sc_hd__and2_0
* cell instance $4835 r0 *1 447.12,24.48
X$4835 39 33 28 198 39 21 21 sky130_fd_sc_hd__and2_1
* cell instance $4841 r0 *1 451.72,24.48
X$4841 39 218 39 21 215 21 sky130_fd_sc_hd__inv_1
* cell instance $4844 r0 *1 457.24,24.48
X$4844 39 216 39 21 214 21 sky130_fd_sc_hd__inv_1
* cell instance $4846 r0 *1 459.54,24.48
X$4846 39 25 34 199 39 21 21 sky130_fd_sc_hd__and2_0
* cell instance $4847 r0 *1 461.84,24.48
X$4847 39 24 56 197 39 21 21 sky130_fd_sc_hd__and2_0
* cell instance $4848 r0 *1 464.14,24.48
X$4848 21 238 250 195 133 182 39 39 21 sky130_fd_sc_hd__fa_1
* cell instance $4852 r0 *1 474.72,24.48
X$4852 39 159 39 21 213 21 sky130_fd_sc_hd__inv_1
* cell instance $4858 r0 *1 480.24,24.48
X$4858 39 151 39 21 212 21 sky130_fd_sc_hd__inv_1
* cell instance $4859 r0 *1 481.62,24.48
X$4859 39 50 74 211 39 21 21 sky130_fd_sc_hd__nand2_1
* cell instance $4860 r0 *1 483,24.48
X$4860 39 24 55 205 39 21 21 sky130_fd_sc_hd__nand2_1
* cell instance $4862 r0 *1 484.84,24.48
X$4862 21 210 209 191 211 205 39 39 21 sky130_fd_sc_hd__fa_1
* cell instance $4863 r0 *1 492.2,24.48
X$4863 39 209 39 21 190 21 sky130_fd_sc_hd__inv_1
* cell instance $4865 r0 *1 494.5,24.48
X$4865 39 50 27 208 39 21 21 sky130_fd_sc_hd__and2_0
* cell instance $4866 r0 *1 496.8,24.48
X$4866 39 24 36 207 39 21 21 sky130_fd_sc_hd__and2_0
* cell instance $4868 r0 *1 499.56,24.48
X$4868 39 144 39 21 185 21 sky130_fd_sc_hd__inv_1
* cell instance $4869 r0 *1 500.94,24.48
X$4869 21 253 206 184 83 186 39 39 21 sky130_fd_sc_hd__fa_1
* cell instance $5224 m0 *1 403.42,29.92
X$5224 21 245 161 39 39 21 sky130_fd_sc_hd__clkbuf_16
* cell instance $5225 m0 *1 412.62,29.92
X$5225 39 219 76 143 223 39 21 21 sky130_fd_sc_hd__nand3_1
* cell instance $5228 m0 *1 415.84,29.92
X$5228 39 223 220 232 39 21 21 sky130_fd_sc_hd__xnor2_1
* cell instance $5230 m0 *1 419.98,29.92
X$5230 39 220 225 223 227 21 39 21 sky130_fd_sc_hd__nor3_1
* cell instance $5232 m0 *1 422.28,29.92
X$5232 39 201 226 181 21 39 21 sky130_fd_sc_hd__nor2_1
* cell instance $5233 m0 *1 423.66,29.92
X$5233 39 227 145 226 39 21 21 sky130_fd_sc_hd__xnor2_1
* cell instance $5237 m0 *1 430.1,29.92
X$5237 39 145 202 227 263 39 21 21 sky130_fd_sc_hd__nand3_1
* cell instance $5239 m0 *1 432.4,29.92
X$5239 39 201 228 233 21 39 21 sky130_fd_sc_hd__nor2_1
* cell instance $5240 m0 *1 433.78,29.92
X$5240 21 162 230 221 233 39 39 21 sky130_fd_sc_hd__dfrtp_1
* cell instance $5243 m0 *1 445.28,29.92
X$5243 39 37 34 270 39 21 21 sky130_fd_sc_hd__and2_0
* cell instance $5248 m0 *1 462.76,29.92
X$5248 39 50 57 180 39 21 21 sky130_fd_sc_hd__and2_0
* cell instance $5250 m0 *1 465.52,29.92
X$5250 39 238 39 21 239 21 sky130_fd_sc_hd__inv_1
* cell instance $5251 m0 *1 466.9,29.92
X$5251 39 196 39 21 240 21 sky130_fd_sc_hd__inv_1
* cell instance $5258 m0 *1 477.48,29.92
X$5258 39 194 39 21 241 21 sky130_fd_sc_hd__inv_1
* cell instance $5259 m0 *1 478.86,29.92
X$5259 21 242 259 231 213 212 39 39 21 sky130_fd_sc_hd__fa_1
* cell instance $5260 m0 *1 486.22,29.92
X$5260 39 189 39 21 231 21 sky130_fd_sc_hd__inv_1
* cell instance $5261 m0 *1 487.6,29.92
X$5261 21 237 256 187 210 174 39 39 21 sky130_fd_sc_hd__fa_1
* cell instance $5262 m0 *1 494.96,29.92
X$5262 39 50 36 281 39 21 21 sky130_fd_sc_hd__and2_0
* cell instance $5265 m0 *1 498.64,29.92
X$5265 21 236 235 208 207 39 39 21 sky130_fd_sc_hd__ha_1
* cell instance $5266 m0 *1 503.24,29.92
X$5266 39 236 39 21 234 21 sky130_fd_sc_hd__inv_1
* cell instance $5623 r0 *1 408.02,29.92
X$5623 21 162 110 161 252 39 39 21 sky130_fd_sc_hd__dfrtp_1
* cell instance $5630 r0 *1 422.74,29.92
X$5630 39 110 39 21 225 21 sky130_fd_sc_hd__inv_1
* cell instance $5634 r0 *1 427.34,29.92
X$5634 39 82 258 326 244 21 39 21 sky130_fd_sc_hd__nor3_1
* cell instance $5636 r0 *1 429.64,29.92
X$5636 21 162 229 221 244 39 39 21 sky130_fd_sc_hd__dfrtp_1
* cell instance $5637 r0 *1 438.84,29.92
X$5637 39 263 266 228 39 21 21 sky130_fd_sc_hd__xnor2_1
* cell instance $5639 r0 *1 442.98,29.92
X$5639 21 246 272 271 270 268 39 39 21 sky130_fd_sc_hd__fa_1
* cell instance $5647 r0 *1 457.24,29.92
X$5647 21 248 322 249 215 246 39 39 21 sky130_fd_sc_hd__fa_1
* cell instance $5649 r0 *1 465.06,29.92
X$5649 39 24 57 287 39 21 21 sky130_fd_sc_hd__and2_0
* cell instance $5651 r0 *1 468.28,29.92
X$5651 21 267 265 264 240 239 39 39 21 sky130_fd_sc_hd__fa_1
* cell instance $5657 r0 *1 480.24,29.92
X$5657 39 261 39 21 262 21 sky130_fd_sc_hd__inv_1
* cell instance $5662 r0 *1 485.3,29.92
X$5662 39 259 39 21 260 21 sky130_fd_sc_hd__inv_1
* cell instance $5665 r0 *1 491.28,29.92
X$5665 39 256 39 21 257 21 sky130_fd_sc_hd__inv_1
* cell instance $5668 r0 *1 500.02,29.92
X$5668 39 253 39 21 255 21 sky130_fd_sc_hd__inv_1
* cell instance $5669 r0 *1 501.4,29.92
X$5669 21 300 278 234 185 183 39 39 21 sky130_fd_sc_hd__fa_1
* cell instance $6025 m0 *1 402.96,35.36
X$6025 39 201 243 217 21 39 21 sky130_fd_sc_hd__nor2b_1
* cell instance $6028 m0 *1 406.64,35.36
X$6028 21 243 219 274 106 39 39 21 sky130_fd_sc_hd__ha_1
* cell instance $6029 m0 *1 411.24,35.36
X$6029 39 274 39 21 119 21 sky130_fd_sc_hd__inv_1
* cell instance $6032 m0 *1 414,35.36
X$6032 39 201 275 252 21 39 21 sky130_fd_sc_hd__nor2_1
* cell instance $6036 m0 *1 417.22,35.36
X$6036 21 224 245 39 39 21 sky130_fd_sc_hd__clkbuf_16
* cell instance $6038 m0 *1 426.88,35.36
X$6038 39 145 39 21 277 21 sky130_fd_sc_hd__inv_1
* cell instance $6040 m0 *1 430.1,35.36
X$6040 21 245 221 39 39 21 sky130_fd_sc_hd__clkbuf_16
* cell instance $6041 m0 *1 439.3,35.36
X$6041 39 74 30 292 39 21 21 sky130_fd_sc_hd__and2_0
* cell instance $6042 m0 *1 441.6,35.36
X$6042 39 30 80 269 39 21 21 sky130_fd_sc_hd__nand2_1
* cell instance $6045 m0 *1 444.36,35.36
X$6045 39 37 56 293 39 21 21 sky130_fd_sc_hd__and2_0
* cell instance $6046 m0 *1 446.66,35.36
X$6046 39 28 34 291 39 21 21 sky130_fd_sc_hd__and2_0
* cell instance $6048 m0 *1 455.86,35.36
X$6048 21 247 249 290 273 289 39 39 21 sky130_fd_sc_hd__fa_1
* cell instance $6049 m0 *1 463.22,35.36
X$6049 21 288 286 287 247 39 39 21 sky130_fd_sc_hd__ha_1
* cell instance $6052 m0 *1 469.2,35.36
X$6052 39 250 39 21 285 21 sky130_fd_sc_hd__inv_1
* cell instance $6055 m0 *1 472.88,35.36
X$6055 39 267 39 21 284 21 sky130_fd_sc_hd__inv_1
* cell instance $6059 m0 *1 482.08,35.36
X$6059 21 283 375 260 241 39 39 21 sky130_fd_sc_hd__ha_1
* cell instance $6062 m0 *1 488.06,35.36
X$6062 39 242 39 21 282 21 sky130_fd_sc_hd__inv_1
* cell instance $6064 m0 *1 493.12,35.36
X$6064 39 237 39 21 280 21 sky130_fd_sc_hd__inv_1
* cell instance $6067 m0 *1 498.64,35.36
X$6067 21 305 254 281 235 39 39 21 sky130_fd_sc_hd__ha_2
* cell instance $6070 m0 *1 505.54,35.36
X$6070 39 206 39 21 279 21 sky130_fd_sc_hd__inv_1
* cell instance $6071 m0 *1 506.92,35.36
X$6071 39 278 39 21 251 21 sky130_fd_sc_hd__inv_1
* cell instance $6426 r0 *1 404.34,35.36
X$6426 39 274 201 313 21 39 21 sky130_fd_sc_hd__nor2_1
* cell instance $6429 r0 *1 407.1,35.36
X$6429 39 201 294 323 21 39 21 sky130_fd_sc_hd__nor2_1
* cell instance $6432 r0 *1 410.78,35.36
X$6432 39 274 76 106 324 39 21 21 sky130_fd_sc_hd__nand3_1
* cell instance $6433 r0 *1 412.62,35.36
X$6433 39 76 39 21 314 21 sky130_fd_sc_hd__inv_1
* cell instance $6434 r0 *1 414,35.36
X$6434 39 106 39 21 295 21 sky130_fd_sc_hd__inv_1
* cell instance $6435 r0 *1 415.38,35.36
X$6435 39 119 295 220 276 21 39 21 sky130_fd_sc_hd__nor3_1
* cell instance $6436 r0 *1 417.22,35.36
X$6436 39 296 225 275 39 21 21 sky130_fd_sc_hd__xnor2_1
* cell instance $6437 r0 *1 420.44,35.36
X$6437 39 76 143 276 296 39 21 21 sky130_fd_sc_hd__nand3_1
* cell instance $6443 r0 *1 423.66,35.36
X$6443 39 225 277 296 297 21 39 21 sky130_fd_sc_hd__nor3_1
* cell instance $6445 r0 *1 425.96,35.36
X$6445 39 297 202 298 39 21 21 sky130_fd_sc_hd__xnor2_1
* cell instance $6448 r0 *1 430.1,35.36
X$6448 21 221 39 39 21 sky130_fd_sc_hd__clkbuf_8
* cell instance $6449 r0 *1 435.16,35.36
X$6449 39 201 298 312 21 39 21 sky130_fd_sc_hd__nor2_1
* cell instance $6452 r0 *1 437.92,35.36
X$6452 39 30 56 311 39 21 21 sky130_fd_sc_hd__and2_0
* cell instance $6453 r0 *1 440.22,35.36
X$6453 39 230 39 21 266 21 sky130_fd_sc_hd__inv_1
* cell instance $6454 r0 *1 441.6,35.36
X$6454 21 310 309 293 292 291 39 39 21 sky130_fd_sc_hd__fa_1
* cell instance $6462 r0 *1 457.24,35.36
X$6462 39 56 25 289 39 21 21 sky130_fd_sc_hd__and2_1
* cell instance $6463 r0 *1 459.54,35.36
X$6463 21 308 358 248 214 288 39 39 21 sky130_fd_sc_hd__fa_1
* cell instance $6471 r0 *1 476.56,35.36
X$6471 21 343 307 284 262 39 39 21 sky130_fd_sc_hd__ha_2
* cell instance $6478 r0 *1 488.06,35.36
X$6478 21 340 299 282 257 39 39 21 sky130_fd_sc_hd__ha_2
* cell instance $6481 r0 *1 495.88,35.36
X$6481 21 306 303 305 304 39 39 21 sky130_fd_sc_hd__ha_1
* cell instance $6482 r0 *1 500.48,35.36
X$6482 39 300 39 21 304 21 sky130_fd_sc_hd__inv_1
* cell instance $6483 r0 *1 501.86,35.36
X$6483 21 302 301 279 280 39 39 21 sky130_fd_sc_hd__ha_1
* cell instance $6838 m0 *1 402.96,40.8
X$6838 21 162 143 161 323 39 39 21 sky130_fd_sc_hd__dfrtp_1
* cell instance $6839 m0 *1 412.16,40.8
X$6839 39 324 316 294 39 21 21 sky130_fd_sc_hd__xnor2_1
* cell instance $6842 m0 *1 416.3,40.8
X$6842 39 143 39 21 316 21 sky130_fd_sc_hd__inv_1
* cell instance $6844 m0 *1 418.6,40.8
X$6844 21 317 318 220 328 39 39 21 sky130_fd_sc_hd__ha_1
* cell instance $6845 m0 *1 423.2,40.8
X$6845 39 319 318 325 21 39 21 sky130_fd_sc_hd__nand2b_1
* cell instance $6848 m0 *1 426.88,40.8
X$6848 39 442 327 329 21 39 21 sky130_fd_sc_hd__nor2b_1
* cell instance $6851 m0 *1 430.56,40.8
X$6851 21 162 202 221 312 39 39 21 sky130_fd_sc_hd__dfrtp_1
* cell instance $6852 m0 *1 439.76,40.8
X$6852 39 28 57 447 39 21 21 sky130_fd_sc_hd__and2_0
* cell instance $6855 m0 *1 443.44,40.8
X$6855 39 37 57 331 39 21 21 sky130_fd_sc_hd__nand2_1
* cell instance $6858 m0 *1 447.12,40.8
X$6858 39 28 56 332 39 21 21 sky130_fd_sc_hd__nand2_1
* cell instance $6862 m0 *1 459.08,40.8
X$6862 39 25 57 336 39 21 21 sky130_fd_sc_hd__and2_0
* cell instance $6863 m0 *1 461.38,40.8
X$6863 39 322 21 39 338 21 sky130_fd_sc_hd__inv_2
* cell instance $6865 m0 *1 463.22,40.8
X$6865 21 339 357 308 285 286 39 39 21 sky130_fd_sc_hd__fa_1
* cell instance $6868 m0 *1 474.72,40.8
X$6868 39 265 39 21 342 21 sky130_fd_sc_hd__inv_1
* cell instance $6869 m0 *1 476.1,40.8
X$6869 21 343 349 39 39 21 sky130_fd_sc_hd__buf_6
* cell instance $6872 m0 *1 481.62,40.8
X$6872 39 283 39 21 341 21 sky130_fd_sc_hd__buf_4
* cell instance $6875 m0 *1 488.52,40.8
X$6875 39 340 21 337 39 21 sky130_fd_sc_hd__buf_2
* cell instance $6880 m0 *1 498.64,40.8
X$6880 21 334 333 251 255 39 39 21 sky130_fd_sc_hd__ha_1
* cell instance $6883 m0 *1 504.62,40.8
X$6883 39 302 301 299 39 330 21 21 sky130_fd_sc_hd__a21oi_2
* cell instance $7230 r0 *1 391,40.8
X$7230 39 315 21 162 39 21 sky130_fd_sc_hd__clkbuf_4
* cell instance $7238 r0 *1 402.04,40.8
X$7238 21 162 274 161 313 39 39 21 sky130_fd_sc_hd__dfrtp_1
* cell instance $7239 r0 *1 411.24,40.8
X$7239 21 367 365 295 364 39 39 21 sky130_fd_sc_hd__ha_1
* cell instance $7242 r0 *1 421.36,40.8
X$7242 39 345 317 344 380 39 21 21 sky130_fd_sc_hd__nand3_1
* cell instance $7248 r0 *1 425.96,40.8
X$7248 39 345 346 320 39 326 21 21 sky130_fd_sc_hd__a21oi_2
* cell instance $7250 r0 *1 429.64,40.8
X$7250 21 345 346 266 321 39 39 21 sky130_fd_sc_hd__ha_1
* cell instance $7252 r0 *1 434.7,40.8
X$7252 39 347 366 320 21 39 21 sky130_fd_sc_hd__nand2b_1
* cell instance $7255 r0 *1 439.3,40.8
X$7255 21 420 363 331 269 332 39 39 21 sky130_fd_sc_hd__fa_1
* cell instance $7256 r0 *1 446.66,40.8
X$7256 39 310 39 21 362 21 sky130_fd_sc_hd__inv_1
* cell instance $7265 r0 *1 457.24,40.8
X$7265 21 387 359 336 335 39 39 21 sky130_fd_sc_hd__ha_1
* cell instance $7266 r0 *1 461.84,40.8
X$7266 39 358 39 21 360 21 sky130_fd_sc_hd__inv_1
* cell instance $7269 r0 *1 468.74,40.8
X$7269 39 357 21 39 412 21 sky130_fd_sc_hd__inv_2
* cell instance $7270 r0 *1 470.12,40.8
X$7270 21 356 348 339 342 39 39 21 sky130_fd_sc_hd__ha_2
* cell instance $7276 r0 *1 478.4,40.8
X$7276 39 341 349 307 350 21 39 21 sky130_fd_sc_hd__nor3_1
* cell instance $7277 r0 *1 480.24,40.8
X$7277 39 341 350 307 39 430 21 21 sky130_fd_sc_hd__a21oi_2
* cell instance $7284 r0 *1 494.5,40.8
X$7284 39 306 351 352 39 21 21 sky130_fd_sc_hd__nand2_1
* cell instance $7285 r0 *1 495.88,40.8
X$7285 39 334 21 351 39 21 sky130_fd_sc_hd__buf_2
* cell instance $7286 r0 *1 497.72,40.8
X$7286 39 341 351 355 39 21 21 sky130_fd_sc_hd__nand2_1
* cell instance $7287 r0 *1 499.1,40.8
X$7287 39 303 306 333 21 39 354 21 sky130_fd_sc_hd__a21oi_1
* cell instance $7289 r0 *1 501.86,40.8
X$7289 39 351 301 333 21 39 388 21 sky130_fd_sc_hd__a21o_1
* cell instance $7294 r0 *1 505.08,40.8
X$7294 39 302 21 353 39 21 sky130_fd_sc_hd__clkbuf_4
* cell instance $7295 r0 *1 507.84,40.8
X$7295 39 301 351 402 21 39 21 sky130_fd_sc_hd__nor2b_1
* cell instance $7648 m0 *1 408.48,46.24
X$7648 39 409 367 395 21 39 21 sky130_fd_sc_hd__nor2b_1
* cell instance $7650 m0 *1 411.24,46.24
X$7650 39 411 367 382 39 21 21 sky130_fd_sc_hd__nand2_1
* cell instance $7651 m0 *1 412.62,46.24
X$7651 39 368 439 413 39 381 21 21 sky130_fd_sc_hd__o21a_1
* cell instance $7655 m0 *1 417.22,46.24
X$7655 21 368 370 316 369 39 39 21 sky130_fd_sc_hd__ha_1
* cell instance $7656 m0 *1 421.82,46.24
X$7656 39 370 317 381 39 21 319 21 sky130_fd_sc_hd__o21ai_1
* cell instance $7658 m0 *1 424.12,46.24
X$7658 39 382 383 380 258 21 39 21 sky130_fd_sc_hd__nor3_1
* cell instance $7660 m0 *1 426.88,46.24
X$7660 21 327 483 277 361 39 39 21 sky130_fd_sc_hd__ha_1
* cell instance $7662 m0 *1 432.4,46.24
X$7662 39 202 39 21 384 21 sky130_fd_sc_hd__inv_1
* cell instance $7669 m0 *1 444.82,46.24
X$7669 21 385 386 371 272 362 39 39 21 sky130_fd_sc_hd__fa_1
* cell instance $7670 m0 *1 452.18,46.24
X$7670 39 387 39 21 371 21 sky130_fd_sc_hd__inv_1
* cell instance $7673 m0 *1 458.16,46.24
X$7673 21 414 457 359 389 338 39 39 21 sky130_fd_sc_hd__fa_1
* cell instance $7679 m0 *1 472.88,46.24
X$7679 21 21 390 39 356 348 39 sky130_fd_sc_hd__nor2_2
* cell instance $7682 m0 *1 477.48,46.24
X$7682 39 307 349 348 21 39 373 21 sky130_fd_sc_hd__a21oi_1
* cell instance $7683 m0 *1 479.32,46.24
X$7683 21 21 349 429 341 39 39 sky130_fd_sc_hd__nand2_2
* cell instance $7684 m0 *1 481.62,46.24
X$7684 21 307 392 391 431 374 39 39 21 sky130_fd_sc_hd__o31ai_2
* cell instance $7685 m0 *1 486.22,46.24
X$7685 39 376 375 393 21 39 21 sky130_fd_sc_hd__nand2b_1
* cell instance $7687 m0 *1 489.44,46.24
X$7687 39 377 373 341 394 21 39 21 sky130_fd_sc_hd__nor3b_1
* cell instance $7688 m0 *1 492.2,46.24
X$7688 39 337 299 393 39 404 21 21 sky130_fd_sc_hd__a21oi_2
* cell instance $7690 m0 *1 496.34,46.24
X$7690 39 353 337 434 39 21 21 sky130_fd_sc_hd__nand2_1
* cell instance $7693 m0 *1 498.64,46.24
X$7693 21 433 378 351 353 388 39 39 21 sky130_fd_sc_hd__a31o_1
* cell instance $7695 m0 *1 502.32,46.24
X$7695 21 352 354 330 379 39 39 21 sky130_fd_sc_hd__o21ai_4
* cell instance $8050 r0 *1 403.42,46.24
X$8050 21 344 409 274 410 39 39 21 sky130_fd_sc_hd__ha_2
* cell instance $8053 r0 *1 411.7,46.24
X$8053 39 411 365 395 39 413 21 21 sky130_fd_sc_hd__o21a_1
* cell instance $8056 r0 *1 418.6,46.24