
* cell cordic_core
* pin x_in[11]
* pin y_in[10]
* pin x_in[10]
* pin y_in[9]
* pin x_in[9]
* pin y_in[8]
* pin x_in[8]
* pin y_in[7]
* pin x_in[7]
* pin y_in[6]
* pin x_in[6]
* pin y_in[5]
* pin x_in[5]
* pin y_in[4]
* pin y_in[3]
* pin x_in[3]
* pin y_in[1]
* pin y_in[0]
* pin x_in[0]
* pin x_in[1]
* pin y_in[2]
* pin x_in[2]
* pin z_in[13]
* pin z_in[10]
* pin z_in[11]
* pin z_in[12]
* pin z_in[8]
* pin z_in[9]
* pin z_in[7]
* pin z_in[0]
* pin z_in[6]
* pin z_in[3]
* pin z_in[5]
* pin z_in[4]
* pin z_in[14]
* pin z_in[1]
* pin z_in[2]
* pin y_out[0]
* pin y_out[1]
* pin y_out[6]
* pin y_out[2]
* pin y_out[5]
* pin y_out[3]
* pin y_out[7]
* pin y_out[4]
* pin y_out[9]
* pin y_out[8]
* pin y_out[11]
* pin y_out[12]
* pin y_out[10]
* pin y_out[14]
* pin y_out[13]
* pin x_out[9]
* pin x_out[12]
* pin x_out[15]
* pin x_out[8]
* pin x_out[11]
* pin x_out[7]
* pin y_out[15]
* pin x_out[13]
* pin x_out[10]
* pin x_out[6]
* pin x_out[0]
* pin x_out[1]
* pin x_out[3]
* pin x_out[2]
* pin x_in[4]
* pin z_in[15]
* pin x_out[14]
* pin x_out[5]
* pin x_out[4]
* pin y_in[11]
* pin x_in[12]
* pin y_in[12]
* pin y_in[13]
* pin x_in[13]
* pin x_in[14]
* pin y_in[14]
* pin x_in[15]
* pin y_in[15]
.SUBCKT cordic_core 1 2 3 4 5 6 7 8 9 10 11 12 13 14 15 16 17 18 19 20 21 22 23
+ 24 25 26 27 28 29 30 31 32 33 34 35 36 37 38 39 40 41 42 43 44 45 46 47 48 49
+ 50 51 52 53 54 55 56 57 58 59 60 61 62 63 64 65 66 70 72 73 74 75 310 591 675
+ 963 1000 1205 1206 1366 1410
* net 1 x_in[11]
* net 2 y_in[10]
* net 3 x_in[10]
* net 4 y_in[9]
* net 5 x_in[9]
* net 6 y_in[8]
* net 7 x_in[8]
* net 8 y_in[7]
* net 9 x_in[7]
* net 10 y_in[6]
* net 11 x_in[6]
* net 12 y_in[5]
* net 13 x_in[5]
* net 14 y_in[4]
* net 15 y_in[3]
* net 16 x_in[3]
* net 17 y_in[1]
* net 18 y_in[0]
* net 19 x_in[0]
* net 20 x_in[1]
* net 21 y_in[2]
* net 22 x_in[2]
* net 23 z_in[13]
* net 24 z_in[10]
* net 25 z_in[11]
* net 26 z_in[12]
* net 27 z_in[8]
* net 28 z_in[9]
* net 29 z_in[7]
* net 30 z_in[0]
* net 31 z_in[6]
* net 32 z_in[3]
* net 33 z_in[5]
* net 34 z_in[4]
* net 35 z_in[14]
* net 36 z_in[1]
* net 37 z_in[2]
* net 38 y_out[0]
* net 39 y_out[1]
* net 40 y_out[6]
* net 41 y_out[2]
* net 42 y_out[5]
* net 43 y_out[3]
* net 44 y_out[7]
* net 45 y_out[4]
* net 46 y_out[9]
* net 47 y_out[8]
* net 48 y_out[11]
* net 49 y_out[12]
* net 50 y_out[10]
* net 51 y_out[14]
* net 52 y_out[13]
* net 53 x_out[9]
* net 54 x_out[12]
* net 55 x_out[15]
* net 56 x_out[8]
* net 57 x_out[11]
* net 58 x_out[7]
* net 59 y_out[15]
* net 60 x_out[13]
* net 61 x_out[10]
* net 62 x_out[6]
* net 63 x_out[0]
* net 64 x_out[1]
* net 65 x_out[3]
* net 66 x_out[2]
* net 70 x_in[4]
* net 72 z_in[15]
* net 73 x_out[14]
* net 74 x_out[5]
* net 75 x_out[4]
* net 310 y_in[11]
* net 591 x_in[12]
* net 675 y_in[12]
* net 963 y_in[13]
* net 1000 x_in[13]
* net 1205 x_in[14]
* net 1206 y_in[14]
* net 1366 x_in[15]
* net 1410 y_in[15]
* cell instance $2 r0 *1 5.52,2.72
X$2 137 1 138 90 137 90 sky130_fd_sc_hd__clkbuf_1
* cell instance $5 r0 *1 7.36,2.72
X$5 137 2 97 90 137 90 sky130_fd_sc_hd__clkbuf_1
* cell instance $8 r0 *1 4.14,2.72
X$8 137 3 89 90 137 90 sky130_fd_sc_hd__clkbuf_1
* cell instance $11 r0 *1 17.94,2.72
X$11 137 4 98 90 137 90 sky130_fd_sc_hd__clkbuf_1
* cell instance $14 r0 *1 19.32,2.72
X$14 137 5 80 90 137 90 sky130_fd_sc_hd__clkbuf_1
* cell instance $17 r0 *1 27.6,2.72
X$17 137 6 145 90 137 90 sky130_fd_sc_hd__clkbuf_1
* cell instance $20 r0 *1 34.5,2.72
X$20 137 7 126 90 137 90 sky130_fd_sc_hd__clkbuf_1
* cell instance $23 r0 *1 38.64,2.72
X$23 137 8 99 90 137 90 sky130_fd_sc_hd__clkbuf_1
* cell instance $26 r0 *1 41.4,2.72
X$26 137 9 128 90 137 90 sky130_fd_sc_hd__clkbuf_1
* cell instance $29 r0 *1 51.52,8.16
X$29 137 10 129 90 137 90 sky130_fd_sc_hd__clkbuf_1
* cell instance $32 r0 *1 54.28,2.72
X$32 137 11 81 90 137 90 sky130_fd_sc_hd__clkbuf_1
* cell instance $35 r0 *1 58.42,2.72
X$35 137 12 153 90 137 90 sky130_fd_sc_hd__clkbuf_1
* cell instance $38 r0 *1 59.8,2.72
X$38 137 13 172 90 137 90 sky130_fd_sc_hd__clkbuf_1
* cell instance $41 r0 *1 65.78,2.72
X$41 137 14 130 90 137 90 sky130_fd_sc_hd__clkbuf_1
* cell instance $44 r0 *1 70.84,2.72
X$44 137 15 155 90 137 90 sky130_fd_sc_hd__clkbuf_1
* cell instance $47 r0 *1 72.22,2.72
X$47 137 16 156 90 137 90 sky130_fd_sc_hd__clkbuf_1
* cell instance $50 r0 *1 73.6,2.72
X$50 137 17 137 90 197 90 sky130_fd_sc_hd__clkbuf_2
* cell instance $53 r0 *1 75.44,2.72
X$53 137 18 94 90 137 90 sky130_fd_sc_hd__clkbuf_1
* cell instance $56 r0 *1 82.8,2.72
X$56 137 19 123 90 137 90 sky130_fd_sc_hd__clkbuf_1
* cell instance $59 r0 *1 80.96,2.72
X$59 137 20 137 90 159 90 sky130_fd_sc_hd__clkbuf_2
* cell instance $62 r0 *1 76.82,2.72
X$62 137 21 121 90 137 90 sky130_fd_sc_hd__clkbuf_1
* cell instance $65 r0 *1 78.2,2.72
X$65 137 22 158 90 137 90 sky130_fd_sc_hd__clkbuf_1
* cell instance $68 r0 *1 92,2.72
X$68 137 23 82 90 137 90 sky130_fd_sc_hd__clkbuf_1
* cell instance $71 r0 *1 115.46,2.72
X$71 90 71 24 137 137 90 sky130_fd_sc_hd__dlymetal6s2s_1
* cell instance $74 r0 *1 93.38,2.72
X$74 90 77 25 137 137 90 sky130_fd_sc_hd__dlymetal6s2s_1
* cell instance $77 r0 *1 102.12,2.72
X$77 90 101 26 137 137 90 sky130_fd_sc_hd__dlymetal6s2s_1
* cell instance $80 r0 *1 100.74,2.72
X$80 137 27 96 90 137 90 sky130_fd_sc_hd__clkbuf_1
* cell instance $83 r0 *1 99.36,2.72
X$83 137 28 176 90 137 90 sky130_fd_sc_hd__clkbuf_1
* cell instance $88 m0 *1 112.24,8.16
X$88 137 29 165 90 137 90 sky130_fd_sc_hd__clkbuf_1
* cell instance $91 r0 *1 107.64,8.16
X$91 90 30 303 137 137 90 sky130_fd_sc_hd__buf_12
* cell instance $94 m0 *1 113.62,8.16
X$94 90 131 31 137 137 90 sky130_fd_sc_hd__dlymetal6s2s_1
* cell instance $97 m0 *1 103.04,8.16
X$97 137 32 137 90 199 90 sky130_fd_sc_hd__clkbuf_2
* cell instance $102 r0 *1 126.04,2.72
X$102 137 33 167 90 137 90 sky130_fd_sc_hd__clkbuf_1
* cell instance $107 r0 *1 120.06,2.72
X$107 90 166 34 137 137 90 sky130_fd_sc_hd__dlymetal6s2s_1
* cell instance $110 r0 *1 145.82,2.72
X$110 90 35 163 137 137 90 sky130_fd_sc_hd__buf_8
* cell instance $115 r0 *1 127.42,2.72
X$115 137 36 168 90 137 90 sky130_fd_sc_hd__clkbuf_1
* cell instance $118 r0 *1 158.24,2.72
X$118 137 37 92 90 137 90 sky130_fd_sc_hd__clkbuf_1
* cell instance $123 m0 *1 167.44,8.16
X$123 137 154 38 90 137 90 sky130_fd_sc_hd__clkbuf_1
* cell instance $130 r0 *1 161,2.72
X$130 137 107 39 90 137 90 sky130_fd_sc_hd__clkbuf_1
* cell instance $135 m0 *1 143.98,19.04
X$135 137 513 40 90 137 90 sky130_fd_sc_hd__clkbuf_1
* cell instance $140 r0 *1 146.28,8.16
X$140 137 198 41 90 137 90 sky130_fd_sc_hd__clkbuf_1
* cell instance $143 r0 *1 158.24,13.6
X$143 137 361 42 90 137 90 sky130_fd_sc_hd__clkbuf_1
* cell instance $148 r0 *1 164.22,2.72
X$148 137 108 43 90 137 90 sky130_fd_sc_hd__clkbuf_1
* cell instance $153 r0 *1 168.82,2.72
X$153 137 78 44 90 137 90 sky130_fd_sc_hd__clkbuf_1
* cell instance $158 r0 *1 151.8,13.6
X$158 137 360 45 90 137 90 sky130_fd_sc_hd__clkbuf_1
* cell instance $163 r0 *1 170.2,2.72
X$163 137 109 46 90 137 90 sky130_fd_sc_hd__clkbuf_1
* cell instance $168 r0 *1 165.6,2.72
X$168 137 122 47 90 137 90 sky130_fd_sc_hd__clkbuf_1
* cell instance $173 r0 *1 167.44,2.72
X$173 137 67 48 90 137 90 sky130_fd_sc_hd__clkbuf_1
* cell instance $178 r0 *1 171.58,2.72
X$178 137 68 49 90 137 90 sky130_fd_sc_hd__clkbuf_1
* cell instance $183 r0 *1 162.38,2.72
X$183 137 133 90 50 137 90 sky130_fd_sc_hd__buf_2
* cell instance $188 r0 *1 172.96,2.72
X$188 137 186 51 90 137 90 sky130_fd_sc_hd__clkbuf_1
* cell instance $195 m0 *1 170.66,8.16
X$195 137 79 52 90 137 90 sky130_fd_sc_hd__clkbuf_1
* cell instance $200 m0 *1 159.62,24.48
X$200 137 135 53 90 137 90 sky130_fd_sc_hd__clkbuf_1
* cell instance $205 r0 *1 166.06,13.6
X$205 137 188 54 90 137 90 sky130_fd_sc_hd__clkbuf_1
* cell instance $210 r0 *1 164.68,24.48
X$210 137 85 55 90 137 90 sky130_fd_sc_hd__clkbuf_1
* cell instance $217 m0 *1 158.24,29.92
X$217 137 327 56 90 137 90 sky130_fd_sc_hd__clkbuf_1
* cell instance $224 m0 *1 162.84,19.04
X$224 137 193 57 90 137 90 sky130_fd_sc_hd__clkbuf_1
* cell instance $233 m0 *1 156.86,29.92
X$233 137 147 58 90 137 90 sky130_fd_sc_hd__clkbuf_1
* cell instance $240 r0 *1 179.4,13.6
X$240 137 365 59 90 137 90 sky130_fd_sc_hd__clkbuf_1
* cell instance $245 r0 *1 115,8.16
X$245 137 298 60 90 137 90 sky130_fd_sc_hd__clkbuf_1
* cell instance $256 r0 *1 132.94,24.48
X$256 137 285 61 90 137 90 sky130_fd_sc_hd__clkbuf_1
* cell instance $263 r0 *1 151.8,29.92
X$263 137 370 62 90 137 90 sky130_fd_sc_hd__clkbuf_1
* cell instance $272 r0 *1 134.32,24.48
X$272 137 600 63 90 137 90 sky130_fd_sc_hd__clkbuf_1
* cell instance $277 r0 *1 173.88,13.6
X$277 137 192 64 90 137 90 sky130_fd_sc_hd__clkbuf_1
* cell instance $284 m0 *1 165.6,19.04
X$284 137 323 65 90 137 90 sky130_fd_sc_hd__clkbuf_1
* cell instance $291 m0 *1 161,24.48
X$291 137 116 66 90 137 90 sky130_fd_sc_hd__clkbuf_1
* cell instance $298 r0 *1 139.84,2.72
X$298 90 67 309 243 137 137 90 sky130_fd_sc_hd__xnor2_2
* cell instance $307 m0 *1 139.84,8.16
X$307 137 180 207 68 137 90 90 sky130_fd_sc_hd__xnor2_1
* cell instance $316 r0 *1 156.86,2.72
X$316 137 69 196 90 137 90 sky130_fd_sc_hd__buf_1
* cell instance $318 r0 *1 131.56,13.6
X$318 137 105 137 90 69 90 sky130_fd_sc_hd__clkbuf_2
* cell instance $320 r0 *1 132.94,2.72
X$320 137 103 83 69 179 90 137 170 90 sky130_fd_sc_hd__a31oi_1
* cell instance $330 r0 *1 67.16,2.72
X$330 137 70 100 90 137 90 sky130_fd_sc_hd__clkbuf_1
* cell instance $333 r0 *1 94.76,13.6
X$333 137 354 71 423 137 90 90 sky130_fd_sc_hd__xnor2_1
* cell instance $335 r0 *1 98.44,8.16
X$335 137 71 253 125 137 237 90 90 sky130_fd_sc_hd__o21ai_0
* cell instance $338 m0 *1 97.06,8.16
X$338 90 173 125 253 71 77 101 137 137 90 sky130_fd_sc_hd__o41ai_2
* cell instance $340 m0 *1 98.9,13.6
X$340 137 77 71 125 137 337 90 90 sky130_fd_sc_hd__o21ai_0
* cell instance $342 r0 *1 106.72,2.72
X$342 90 254 82 101 77 71 137 137 90 sky130_fd_sc_hd__nor4_2
* cell instance $353 r0 *1 128.8,2.72
X$353 90 72 177 137 137 90 sky130_fd_sc_hd__buf_6
* cell instance $358 m0 *1 159.62,29.92
X$358 137 151 73 90 137 90 sky130_fd_sc_hd__clkbuf_1
* cell instance $371 r0 *1 131.56,24.48
X$371 137 268 74 90 137 90 sky130_fd_sc_hd__clkbuf_1
* cell instance $376 r0 *1 183.54,13.6
X$376 137 76 75 90 137 90 sky130_fd_sc_hd__clkbuf_1
* cell instance $381 r0 *1 205.16,2.72
X$381 137 218 274 76 137 90 90 sky130_fd_sc_hd__xnor2_1
* cell instance $389 m0 *1 95.68,13.6
X$389 137 237 77 336 137 90 90 sky130_fd_sc_hd__xnor2_1
* cell instance $398 r0 *1 139.84,13.6
X$398 90 78 384 359 137 137 90 sky130_fd_sc_hd__xnor2_2
* cell instance $407 r0 *1 153.64,2.72
X$407 137 106 124 79 137 90 90 sky130_fd_sc_hd__xnor2_1
* cell instance $414 m0 *1 13.34,8.16
X$414 90 4022 277 80 98 137 137 90 sky130_fd_sc_hd__ha_1
* cell instance $416 r0 *1 22.08,2.72
X$416 90 4041 91 80 144 137 137 90 sky130_fd_sc_hd__ha_1
* cell instance $418 r0 *1 16.56,2.72
X$418 137 80 137 90 142 90 sky130_fd_sc_hd__inv_1
* cell instance $424 m0 *1 51.06,8.16
X$424 90 4016 204 120 81 137 137 90 sky130_fd_sc_hd__ha_2
* cell instance $427 r0 *1 52.9,8.16
X$427 137 81 137 90 287 90 sky130_fd_sc_hd__inv_1
* cell instance $432 r0 *1 48.76,2.72
X$432 90 4021 152 129 81 137 137 90 sky130_fd_sc_hd__ha_2
* cell instance $435 m0 *1 91.08,8.16
X$435 90 174 173 82 137 137 90 sky130_fd_sc_hd__xnor2_2
* cell instance $446 r0 *1 159.62,2.72
X$446 137 83 137 90 154 90 sky130_fd_sc_hd__inv_1
* cell instance $449 m0 *1 130.18,62.56
X$449 90 83 668 1260 1364 137 137 90 sky130_fd_sc_hd__ha_4
* cell instance $451 m0 *1 127.88,24.48
X$451 137 103 583 83 105 137 524 90 90 sky130_fd_sc_hd__nand4_1
* cell instance $454 r0 *1 126.04,8.16
X$454 90 308 103 242 83 137 137 90 sky130_fd_sc_hd__ha_4
* cell instance $468 r0 *1 147.66,8.16
X$468 137 84 259 186 137 90 90 sky130_fd_sc_hd__xnor2_1
* cell instance $470 m0 *1 150.42,13.6
X$470 137 260 315 84 137 90 90 sky130_fd_sc_hd__xnor2_1
* cell instance $473 r0 *1 151.34,2.72
X$473 137 124 162 84 137 90 93 90 sky130_fd_sc_hd__o21ai_1
* cell instance $477 r0 *1 185.38,2.72
X$477 137 148 118 85 137 90 90 sky130_fd_sc_hd__xnor2_1
* cell instance $482 r0 *1 181.24,2.72
X$482 90 86 134 110 137 137 90 sky130_fd_sc_hd__nand2_4
* cell instance $485 r0 *1 181.24,8.16
X$485 90 86 187 189 137 137 90 sky130_fd_sc_hd__nand2_4
* cell instance $488 r0 *1 192.28,2.72
X$488 90 90 86 117 87 137 137 sky130_fd_sc_hd__nand2_2
* cell instance $491 r0 *1 200.56,2.72
X$491 137 88 86 113 90 192 137 90 sky130_fd_sc_hd__o21ai_2
* cell instance $493 r0 *1 205.62,13.6
X$493 90 90 191 113 86 137 137 sky130_fd_sc_hd__nand2_2
* cell instance $495 m0 *1 195.04,8.16
X$495 90 90 86 143 217 137 137 sky130_fd_sc_hd__nand2_2
* cell instance $497 m0 *1 191.82,8.16
X$497 90 90 86 190 224 137 137 sky130_fd_sc_hd__nand2_2
* cell instance $500 r0 *1 188.14,13.6
X$500 137 184 90 86 137 90 sky130_fd_sc_hd__buf_2
* cell instance $503 r0 *1 158.7,29.92
X$503 137 86 399 215 137 90 90 sky130_fd_sc_hd__nand2_1
* cell instance $505 m0 *1 158.24,24.48
X$505 137 86 267 371 137 90 90 sky130_fd_sc_hd__nand2_1
* cell instance $507 r0 *1 181.24,13.6
X$507 90 90 86 288 265 137 137 sky130_fd_sc_hd__nand2_2
* cell instance $523 m0 *1 186.76,13.6
X$523 90 110 266 87 318 137 137 90 sky130_fd_sc_hd__or3_4
* cell instance $525 m0 *1 195.04,13.6
X$525 90 87 216 366 267 137 137 90 sky130_fd_sc_hd__or3_4
* cell instance $529 r0 *1 195.04,2.72
X$529 137 111 90 137 88 90 sky130_fd_sc_hd__inv_4
* cell instance $531 m0 *1 198.26,8.16
X$531 90 191 223 219 88 137 137 90 sky130_fd_sc_hd__ha_4
* cell instance $538 m0 *1 5.52,8.16
X$538 90 4018 248 97 89 137 137 90 sky130_fd_sc_hd__ha_2
* cell instance $540 m0 *1 8.74,13.6
X$540 90 4024 321 89 276 137 137 90 sky130_fd_sc_hd__ha_1
* cell instance $543 r0 *1 8.74,2.72
X$543 137 89 137 90 114 90 sky130_fd_sc_hd__inv_1
* cell instance $616 r0 *1 10.58,2.72
X$616 90 140 141 114 97 137 137 90 sky130_fd_sc_hd__ha_1
* cell instance $620 r0 *1 20.7,2.72
X$620 137 98 137 90 144 90 sky130_fd_sc_hd__inv_1
* cell instance $624 r0 *1 29.9,2.72
X$624 90 4042 127 126 146 137 137 90 sky130_fd_sc_hd__ha_1
* cell instance $627 r0 *1 40.02,2.72
X$627 137 99 137 90 149 90 sky130_fd_sc_hd__inv_1
* cell instance $630 r0 *1 43.24,2.72
X$630 90 4020 150 99 128 137 137 90 sky130_fd_sc_hd__ha_2
* cell instance $633 r0 *1 57.04,2.72
X$633 137 129 137 90 120 90 sky130_fd_sc_hd__inv_1
* cell instance $634 r0 *1 61.18,2.72
X$634 90 4039 432 100 130 137 137 90 sky130_fd_sc_hd__ha_1
* cell instance $638 r0 *1 79.58,2.72
X$638 137 121 137 90 157 90 sky130_fd_sc_hd__inv_1
* cell instance $640 r0 *1 84.64,2.72
X$640 90 4038 161 123 160 137 137 90 sky130_fd_sc_hd__ha_1
* cell instance $641 r0 *1 89.24,2.72
X$641 137 94 137 90 160 90 sky130_fd_sc_hd__inv_1
* cell instance $649 r0 *1 112.24,2.72
X$649 137 96 165 313 125 137 90 102 90 sky130_fd_sc_hd__o31ai_1
* cell instance $655 r0 *1 135.7,2.72
X$655 90 90 104 169 164 137 137 sky130_fd_sc_hd__nand2_2
* cell instance $656 r0 *1 138,2.72
X$656 137 105 242 95 137 90 90 sky130_fd_sc_hd__nand2_1
* cell instance $662 r0 *1 174.8,2.72
X$662 137 297 231 151 137 90 90 sky130_fd_sc_hd__xnor2_1
* cell instance $665 r0 *1 178.94,2.72
X$665 137 119 137 90 136 90 sky130_fd_sc_hd__clkbuf_2
* cell instance $668 r0 *1 189.06,2.72
X$668 137 143 216 147 137 90 90 sky130_fd_sc_hd__xnor2_1
* cell instance $670 r0 *1 197.34,2.72
X$670 137 136 115 116 137 90 90 sky130_fd_sc_hd__xnor2_1
* cell instance $671 r0 *1 203.78,2.72
X$671 137 112 137 90 139 90 sky130_fd_sc_hd__inv_1
* cell instance $694 m0 *1 17.94,8.16
X$694 90 171 280 98 142 137 137 90 sky130_fd_sc_hd__ha_2
* cell instance $697 m0 *1 24.84,8.16
X$697 137 171 137 90 200 90 sky130_fd_sc_hd__buf_4
* cell instance $698 m0 *1 27.6,8.16
X$698 137 145 137 90 146 90 sky130_fd_sc_hd__inv_1
* cell instance $700 m0 *1 29.44,8.16
X$700 90 4025 194 126 145 137 137 90 sky130_fd_sc_hd__ha_1
* cell instance $701 m0 *1 34.04,8.16
X$701 137 126 137 90 225 90 sky130_fd_sc_hd__inv_1
* cell instance $703 m0 *1 35.88,8.16
X$703 90 203 202 171 281 250 226 137 137 90 sky130_fd_sc_hd__a2111oi_4
* cell instance $704 m0 *1 46,8.16
X$704 90 4026 227 128 149 137 137 90 sky130_fd_sc_hd__ha_1
* cell instance $707 m0 *1 57.04,8.16
X$707 137 153 137 90 228 90 sky130_fd_sc_hd__inv_1
* cell instance $708 m0 *1 58.42,8.16
X$708 90 4035 230 172 153 137 137 90 sky130_fd_sc_hd__ha_1
* cell instance $709 m0 *1 63.02,8.16
X$709 90 4032 232 100 229 137 137 90 sky130_fd_sc_hd__ha_1
* cell instance $712 m0 *1 69,8.16
X$712 90 4017 433 205 156 137 137 90 sky130_fd_sc_hd__ha_2
* cell instance $713 m0 *1 74.52,8.16
X$713 137 155 137 90 205 90 sky130_fd_sc_hd__inv_1
* cell instance $716 m0 *1 77.28,8.16
X$716 90 4015 233 157 158 137 137 90 sky130_fd_sc_hd__ha_2
* cell instance $721 m0 *1 85.1,8.16
X$721 137 123 137 90 234 90 sky130_fd_sc_hd__inv_1
* cell instance $722 m0 *1 86.48,8.16
X$722 90 4029 235 123 94 137 137 90 sky130_fd_sc_hd__ha_1
* cell instance $723 m0 *1 104.88,8.16
X$723 137 165 131 175 125 137 90 238 90 sky130_fd_sc_hd__o31ai_1
* cell instance $724 m0 *1 107.64,8.16
X$724 90 239 165 96 176 137 137 90 sky130_fd_sc_hd__or3_4
* cell instance $726 m0 *1 118.22,8.16
X$726 90 4014 177 240 163 137 137 90 sky130_fd_sc_hd__ha_4
* cell instance $727 m0 *1 127.42,8.16
X$727 137 480 196 198 137 90 90 sky130_fd_sc_hd__xnor2_1
* cell instance $729 m0 *1 131.1,8.16
X$729 137 170 258 137 108 90 90 sky130_fd_sc_hd__xor2_1
* cell instance $730 m0 *1 134.32,8.16
X$730 137 178 103 179 90 137 107 90 sky130_fd_sc_hd__a21oi_1
* cell instance $731 m0 *1 136.16,8.16
X$731 137 169 241 109 137 90 90 sky130_fd_sc_hd__xnor2_1
* cell instance $733 m0 *1 143.06,8.16
X$733 137 163 90 137 206 90 sky130_fd_sc_hd__inv_2
* cell instance $734 m0 *1 144.44,8.16
X$734 137 132 208 133 137 90 90 sky130_fd_sc_hd__xnor2_1
* cell instance $735 m0 *1 147.66,8.16
X$735 90 90 181 132 164 137 137 sky130_fd_sc_hd__nand2_2
* cell instance $736 m0 *1 149.96,8.16
X$736 90 236 182 195 137 137 90 sky130_fd_sc_hd__xnor2_2
* cell instance $737 m0 *1 155.94,8.16
X$737 90 365 236 183 209 137 137 90 sky130_fd_sc_hd__xnor3_1
* cell instance $738 m0 *1 164.22,8.16
X$738 90 90 93 195 106 137 137 sky130_fd_sc_hd__nand2_2
* cell instance $741 m0 *1 168.82,8.16
X$741 137 212 184 263 137 90 210 90 sky130_fd_sc_hd__o21ai_1
* cell instance $742 m0 *1 172.04,8.16
X$742 137 185 210 335 137 90 90 sky130_fd_sc_hd__nand2_1
* cell instance $744 m0 *1 174.34,8.16
X$744 90 188 187 211 137 137 90 sky130_fd_sc_hd__xnor2_2
* cell instance $746 m0 *1 181.24,8.16
X$746 90 189 213 110 214 137 137 90 sky130_fd_sc_hd__or3_4
* cell instance $747 m0 *1 185.38,8.16
X$747 137 288 213 193 137 90 90 sky130_fd_sc_hd__xnor2_1
* cell instance $748 m0 *1 188.6,8.16
X$748 137 190 318 135 137 90 90 sky130_fd_sc_hd__xnor2_1
* cell instance $752 m0 *1 207.46,8.16
X$752 137 221 137 90 222 90 sky130_fd_sc_hd__inv_1
* cell instance $755 r0 *1 3.68,8.16
X$755 90 4040 275 138 273 137 137 90 sky130_fd_sc_hd__ha_1
* cell instance $758 r0 *1 10.58,8.16
X$758 137 97 137 90 276 90 sky130_fd_sc_hd__inv_1
* cell instance $759 r0 *1 11.96,8.16
X$759 137 140 90 245 137 90 sky130_fd_sc_hd__clkbuf_4
* cell instance $767 r0 *1 17.94,8.16
X$767 137 277 90 282 137 90 sky130_fd_sc_hd__buf_2
* cell instance $770 r0 *1 24.38,8.16
X$770 137 200 201 280 90 137 278 90 sky130_fd_sc_hd__a21o_1
* cell instance $773 r0 *1 29.44,8.16
X$773 90 281 201 225 145 137 137 90 sky130_fd_sc_hd__ha_1
* cell instance $782 r0 *1 43.24,8.16
X$782 137 150 90 137 226 90 sky130_fd_sc_hd__inv_2
* cell instance $783 r0 *1 44.62,8.16
X$783 90 250 249 286 99 137 137 90 sky130_fd_sc_hd__ha_1
* cell instance $784 r0 *1 49.22,8.16
X$784 137 128 137 90 286 90 sky130_fd_sc_hd__inv_1
* cell instance $788 r0 *1 56.58,8.16
X$788 90 4019 251 228 172 137 137 90 sky130_fd_sc_hd__ha_2
* cell instance $789 r0 *1 62.1,8.16
X$789 137 172 137 90 289 90 sky130_fd_sc_hd__inv_1
* cell instance $792 r0 *1 64.86,8.16
X$792 137 130 137 90 229 90 sky130_fd_sc_hd__inv_1
* cell instance $793 r0 *1 66.24,8.16
X$793 137 100 137 90 290 90 sky130_fd_sc_hd__inv_1
* cell instance $801 r0 *1 71.3,8.16
X$801 137 156 137 90 291 90 sky130_fd_sc_hd__inv_1
* cell instance $802 r0 *1 72.68,8.16
X$802 90 380 292 155 291 137 137 90 sky130_fd_sc_hd__ha_2
* cell instance $805 r0 *1 79.58,8.16
X$805 137 158 137 90 293 90 sky130_fd_sc_hd__inv_1
* cell instance $809 r0 *1 84.18,8.16
X$809 90 294 295 234 94 137 137 90 sky130_fd_sc_hd__ha_1
* cell instance $813 r0 *1 94.76,8.16
X$813 137 252 101 137 296 90 90 sky130_fd_sc_hd__xor2_1
* cell instance $819 r0 *1 101.2,8.16
X$819 137 299 165 300 137 90 90 sky130_fd_sc_hd__xnor2_1
* cell instance $820 r0 *1 104.42,8.16
X$820 137 102 176 301 137 90 90 sky130_fd_sc_hd__xnor2_1
* cell instance $821 r0 *1 116.38,8.16
X$821 90 184 256 306 206 137 137 90 sky130_fd_sc_hd__ha_2
* cell instance $822 r0 *1 121.9,8.16
X$822 137 240 177 137 90 257 90 sky130_fd_sc_hd__and2b_2
* cell instance $828 r0 *1 135.24,8.16
X$828 90 164 243 208 241 104 137 137 90 sky130_fd_sc_hd__o31ai_4
* cell instance $830 r0 *1 143.52,8.16
X$830 137 208 181 309 207 307 137 90 90 sky130_fd_sc_hd__or4_1
* cell instance $834 r0 *1 150.88,8.16
X$834 137 162 137 90 164 90 sky130_fd_sc_hd__clkbuf_2
* cell instance $837 r0 *1 153.64,8.16
X$837 90 124 342 262 137 137 90 sky130_fd_sc_hd__xnor2_2
* cell instance $839 r0 *1 160.54,8.16
X$839 90 118 304 264 302 137 137 90 sky130_fd_sc_hd__xnor3_1
* cell instance $841 r0 *1 169.28,8.16
X$841 137 263 90 137 231 90 sky130_fd_sc_hd__dlygate4sd1_1
* cell instance $843 r0 *1 172.96,8.16
X$843 90 184 297 211 212 189 137 137 90 sky130_fd_sc_hd__o31ai_4
* cell instance $848 r0 *1 185.38,8.16
X$848 90 285 134 214 137 137 90 sky130_fd_sc_hd__xnor2_2
* cell instance $849 r0 *1 191.36,8.16
X$849 90 224 266 216 217 137 137 90 sky130_fd_sc_hd__or3_4
* cell instance $850 r0 *1 195.5,8.16
X$850 137 457 283 137 268 90 90 sky130_fd_sc_hd__xor2_1
* cell instance $851 r0 *1 198.72,8.16
X$851 90 90 270 137 218 220 137 sky130_fd_sc_hd__nor2_2
* cell instance $853 r0 *1 201.94,8.16
X$853 137 184 219 90 137 115 90 sky130_fd_sc_hd__nor2b_2
* cell instance $857 r0 *1 205.16,8.16
X$857 137 279 220 184 90 274 137 90 sky130_fd_sc_hd__o21ai_2
* cell instance $859 m0 *1 1.38,13.6
X$859 137 273 137 90 272 90 sky130_fd_sc_hd__inv_1
* cell instance $860 m0 *1 2.76,13.6
X$860 90 4023 424 138 272 137 137 90 sky130_fd_sc_hd__ha_1
* cell instance $861 m0 *1 7.36,13.6
X$861 137 138 137 90 320 90 sky130_fd_sc_hd__inv_1
* cell instance $864 m0 *1 15.64,13.6
X$864 90 322 244 141 245 280 137 137 90 sky130_fd_sc_hd__a211oi_2
* cell instance $865 m0 *1 20.24,13.6
X$865 137 387 311 427 137 90 90 sky130_fd_sc_hd__and2_1
* cell instance $869 m0 *1 25.76,13.6
X$869 137 200 245 246 137 90 90 sky130_fd_sc_hd__nand2_1
* cell instance $870 m0 *1 27.14,13.6
X$870 137 247 246 244 90 137 90 sky130_fd_sc_hd__nor2_1
* cell instance $874 m0 *1 33.12,13.6
X$874 137 281 90 324 137 90 sky130_fd_sc_hd__clkbuf_4
* cell instance $875 m0 *1 35.88,13.6
X$875 137 201 324 249 90 137 247 90 sky130_fd_sc_hd__a21oi_1
* cell instance $876 m0 *1 37.72,13.6
X$876 137 248 282 325 90 137 90 sky130_fd_sc_hd__nor2_1
* cell instance $877 m0 *1 39.1,13.6
X$877 137 152 248 282 284 90 137 90 sky130_fd_sc_hd__nor3_1
* cell instance $878 m0 *1 40.94,13.6
X$878 137 150 281 326 90 137 90 sky130_fd_sc_hd__nand2b_1
* cell instance $881 m0 *1 45.54,13.6
X$881 137 150 152 328 203 90 137 90 sky130_fd_sc_hd__nor3b_1
* cell instance $883 m0 *1 50.14,13.6
X$883 90 328 378 287 129 137 137 90 sky130_fd_sc_hd__ha_1
* cell instance $887 m0 *1 57.5,13.6
X$887 90 329 330 153 289 137 137 90 sky130_fd_sc_hd__ha_2
* cell instance $889 m0 *1 63.48,13.6
X$889 90 331 312 130 290 137 137 90 sky130_fd_sc_hd__ha_2
* cell instance $891 m0 *1 69.46,13.6
X$891 90 4031 332 156 155 137 137 90 sky130_fd_sc_hd__ha_1
* cell instance $894 m0 *1 76.82,13.6
X$894 90 333 334 293 121 137 137 90 sky130_fd_sc_hd__ha_1
* cell instance $901 m0 *1 87.86,13.6
X$901 90 4033 353 159 197 137 137 90 sky130_fd_sc_hd__ha_1
* cell instance $905 m0 *1 100.74,13.6
X$905 137 238 96 338 137 90 90 sky130_fd_sc_hd__xnor2_1
* cell instance $906 m0 *1 103.96,13.6
X$906 90 255 354 131 175 239 137 137 90 sky130_fd_sc_hd__o31ai_4
* cell instance $908 m0 *1 112.24,13.6
X$908 90 339 341 254 314 256 177 137 137 90 sky130_fd_sc_hd__a32o_4
* cell instance $909 m0 *1 120.06,13.6
X$909 90 163 314 257 256 239 137 137 90 sky130_fd_sc_hd__nor4_4
* cell instance $910 m0 *1 127.88,13.6
X$910 137 177 256 179 90 137 90 sky130_fd_sc_hd__nand2b_1
* cell instance $911 m0 *1 130.18,13.6
X$911 90 90 178 137 308 179 137 sky130_fd_sc_hd__nor2_2
* cell instance $912 m0 *1 132.48,13.6
X$912 90 122 385 358 137 137 90 sky130_fd_sc_hd__xnor2_2
* cell instance $915 m0 *1 139.84,13.6
X$915 90 208 181 309 180 164 137 137 90 sky130_fd_sc_hd__o31ai_2
* cell instance $916 m0 *1 144.44,13.6
X$916 90 309 162 419 106 137 137 90 sky130_fd_sc_hd__o21ai_4
* cell instance $917 m0 *1 153.64,13.6
X$917 137 124 307 164 90 259 137 90 sky130_fd_sc_hd__o21ai_2
* cell instance $918 m0 *1 156.86,13.6
X$918 137 305 316 342 137 90 261 90 sky130_fd_sc_hd__o21bai_1
* cell instance $919 m0 *1 159.62,13.6
X$919 137 340 315 261 90 137 182 90 sky130_fd_sc_hd__a21oi_1
* cell instance $921 m0 *1 161.92,13.6
X$921 137 335 317 137 304 90 90 sky130_fd_sc_hd__xor2_1
* cell instance $922 m0 *1 165.14,13.6
X$922 137 262 137 90 316 90 sky130_fd_sc_hd__inv_1
* cell instance $926 m0 *1 168.36,13.6
X$926 90 298 376 212 137 137 90 sky130_fd_sc_hd__xnor2_2
* cell instance $927 m0 *1 174.34,13.6
X$927 90 184 185 213 211 265 137 137 90 sky130_fd_sc_hd__o31ai_4
* cell instance $929 m0 *1 182.62,13.6
X$929 90 265 318 224 214 137 137 90 sky130_fd_sc_hd__or3_4
* cell instance $930 m0 *1 190.9,13.6
X$930 137 117 266 327 137 90 90 sky130_fd_sc_hd__xnor2_1
* cell instance $933 m0 *1 199.18,13.6
X$933 90 269 270 271 319 137 137 90 sky130_fd_sc_hd__nand3_2
* cell instance $934 m0 *1 202.86,13.6
X$934 137 220 215 323 137 90 90 sky130_fd_sc_hd__xnor2_1
* cell instance $935 m0 *1 206.08,13.6
X$935 137 270 219 367 271 137 267 90 90 sky130_fd_sc_hd__nand4_1
* cell instance $937 r0 *1 1.38,13.6
X$937 137 310 273 90 137 90 sky130_fd_sc_hd__clkbuf_1
* cell instance $940 r0 *1 4.14,13.6
X$940 90 344 343 320 273 137 137 90 sky130_fd_sc_hd__ha_1
* cell instance $943 r0 *1 10.12,13.6
X$943 137 344 137 90 345 90 sky130_fd_sc_hd__buf_4
* cell instance $944 r0 *1 12.88,13.6
X$944 137 343 345 141 90 137 403 90 sky130_fd_sc_hd__a21oi_1
* cell instance $951 r0 *1 16.1,13.6
X$951 137 347 403 339 346 90 137 456 90 sky130_fd_sc_hd__and4_1
* cell instance $952 r0 *1 19.32,13.6
X$952 137 348 339 349 90 137 90 sky130_fd_sc_hd__nor2_1
* cell instance $953 r0 *1 20.7,13.6
X$953 90 545 350 349 137 406 137 90 sky130_fd_sc_hd__mux2i_2
* cell instance $954 r0 *1 25.76,13.6
X$954 137 346 339 350 90 137 90 sky130_fd_sc_hd__nor2_1
* cell instance $957 r0 *1 29.9,13.6
X$957 137 281 171 408 137 90 90 sky130_fd_sc_hd__and2_1
* cell instance $959 r0 *1 32.66,13.6
X$959 137 282 137 90 409 90 sky130_fd_sc_hd__inv_1
* cell instance $961 r0 *1 34.5,13.6
X$961 137 194 171 90 137 373 90 sky130_fd_sc_hd__nor2b_2
* cell instance $962 r0 *1 37.72,13.6
X$962 137 351 325 281 137 90 411 90 sky130_fd_sc_hd__o21ai_1
* cell instance $963 r0 *1 39.56,13.6
X$963 90 413 194 326 137 137 90 sky130_fd_sc_hd__nand2b_2
* cell instance $969 r0 *1 46.92,13.6
X$969 90 412 250 312 330 249 378 137 137 90 sky130_fd_sc_hd__a2111o_1
* cell instance $972 r0 *1 56.58,13.6
X$972 137 329 90 389 137 90 sky130_fd_sc_hd__clkbuf_4
* cell instance $982 r0 *1 73.14,13.6
X$982 137 380 90 391 137 90 sky130_fd_sc_hd__buf_2
* cell instance $984 r0 *1 75.9,13.6
X$984 137 333 137 90 352 90 sky130_fd_sc_hd__clkbuf_2
* cell instance $985 r0 *1 77.74,13.6
X$985 90 4045 392 158 121 137 137 90 sky130_fd_sc_hd__ha_1
* cell instance $987 r0 *1 82.8,13.6
X$987 137 352 353 420 90 137 90 sky130_fd_sc_hd__nor2b_1
* cell instance $990 r0 *1 86.48,13.6
X$990 137 161 381 421 90 137 90 sky130_fd_sc_hd__nor2b_1
* cell instance $992 r0 *1 89.24,13.6
X$992 137 159 137 90 422 90 sky130_fd_sc_hd__inv_1
* cell instance $1001 r0 *1 99.82,13.6
X$1001 137 354 337 252 137 90 90 sky130_fd_sc_hd__nand2_1
* cell instance $1002 r0 *1 101.2,13.6
X$1002 137 254 383 354 90 474 137 90 sky130_fd_sc_hd__o21ai_2
* cell instance $1005 r0 *1 105.8,13.6
X$1005 137 125 175 476 137 90 90 sky130_fd_sc_hd__nand2_1
* cell instance $1006 r0 *1 107.18,13.6
X$1006 137 313 125 299 137 90 90 sky130_fd_sc_hd__nand2_1
* cell instance $1007 r0 *1 108.56,13.6
X$1007 137 356 355 313 137 90 90 sky130_fd_sc_hd__nand2_1
* cell instance $1008 r0 *1 109.94,13.6
X$1008 137 356 355 341 137 90 90 sky130_fd_sc_hd__and2_0
* cell instance $1009 r0 *1 112.24,13.6
X$1009 90 355 131 167 166 199 137 137 90 sky130_fd_sc_hd__nor4_2
* cell instance $1010 r0 *1 116.84,13.6
X$1010 137 257 256 383 90 137 90 sky130_fd_sc_hd__or2_0
* cell instance $1011 r0 *1 119.14,13.6
X$1011 137 239 313 253 90 137 90 sky130_fd_sc_hd__or2_0
* cell instance $1012 r0 *1 121.44,13.6
X$1012 137 92 168 303 356 90 137 90 sky130_fd_sc_hd__nor3_1
* cell instance $1016 r0 *1 123.28,13.6
X$1016 137 256 257 255 90 137 90 sky130_fd_sc_hd__nor2_1
* cell instance $1019 r0 *1 126.04,13.6
X$1019 137 177 137 90 306 90 sky130_fd_sc_hd__inv_1
* cell instance $1021 r0 *1 128.34,13.6
X$1021 137 95 258 164 90 479 137 90 sky130_fd_sc_hd__o21ai_2
* cell instance $1022 r0 *1 133.4,13.6
X$1022 90 90 357 385 164 137 137 sky130_fd_sc_hd__nand2_2
* cell instance $1023 r0 *1 135.7,13.6
X$1023 90 181 241 358 357 137 137 90 sky130_fd_sc_hd__or3_4
* cell instance $1024 r0 *1 145.82,13.6
X$1024 90 397 382 207 137 137 90 sky130_fd_sc_hd__xor2_2
* cell instance $1029 r0 *1 153.64,13.6
X$1029 90 315 340 418 398 137 137 90 sky130_fd_sc_hd__ha_1
* cell instance $1030 r0 *1 159.62,13.6
X$1030 137 305 362 260 90 137 90 sky130_fd_sc_hd__nor2_1
* cell instance $1031 r0 *1 161,13.6
X$1031 137 316 417 362 90 137 90 sky130_fd_sc_hd__nor2_1
* cell instance $1033 r0 *1 162.84,13.6
X$1033 137 415 379 263 137 90 90 sky130_fd_sc_hd__xnor2_1
* cell instance $1034 r0 *1 167.44,13.6