* CDL Netlist generated by OpenROAD

*.BUSDELIMITER [

.SUBCKT cordic_core x_in[0] x_in[10] x_in[11] x_in[12] x_in[13]
+ x_in[14] x_in[15] x_in[1] x_in[2] x_in[3] x_in[4] x_in[5]
+ x_in[6] x_in[7] x_in[8] x_in[9] x_out[0] x_out[10] x_out[11]
+ x_out[12] x_out[13] x_out[14] x_out[15] x_out[1] x_out[2]
+ x_out[3] x_out[4] x_out[5] x_out[6] x_out[7] x_out[8] x_out[9]
+ y_in[0] y_in[10] y_in[11] y_in[12] y_in[13] y_in[14] y_in[15]
+ y_in[1] y_in[2] y_in[3] y_in[4] y_in[5] y_in[6] y_in[7] y_in[8]
+ y_in[9] y_out[0] y_out[10] y_out[11] y_out[12] y_out[13] y_out[14]
+ y_out[15] y_out[1] y_out[2] y_out[3] y_out[4] y_out[5] y_out[6]
+ y_out[7] y_out[8] y_out[9] z_in[0] z_in[10] z_in[11] z_in[12]
+ z_in[13] z_in[14] z_in[15] z_in[1] z_in[2] z_in[3] z_in[4]
+ z_in[5] z_in[6] z_in[7] z_in[8] z_in[9]
X_3747_ net68 VSS VSS VDD VDD _3684_ sky130_fd_sc_hd__inv_1
X_3748_ net70 net69 net62 VSS VSS VDD VDD _0000_ sky130_fd_sc_hd__nor3_1
X_3749_ net74 net73 net72 net71 VSS VSS VDD VDD _0001_ sky130_fd_sc_hd__nor4_2
X_3750_ _0000_ _0001_ VSS VSS VDD VDD _0002_ sky130_fd_sc_hd__and2_0
X_3751_ net66 net65 net64 net63 VSS VSS VDD VDD _0003_ sky130_fd_sc_hd__nor4_2
X_3752_ _3687_ net68 VSS VSS VDD VDD _0004_ sky130_fd_sc_hd__and2b_2
X_3753_ net77 net76 net75 VSS VSS VDD VDD _0005_ sky130_fd_sc_hd__or3_4
X_3754_ _0004_ _3685_ net67 _0005_ VSS VSS VDD VDD _0006_
+ sky130_fd_sc_hd__nor4_4
X_3755_ _0006_ _0003_ _0002_ _3685_ net68 VSS VSS VDD VDD
+ _0007_ sky130_fd_sc_hd__a32o_4
X_3756_ _0007_ VSS VSS VDD VDD _0008_ sky130_fd_sc_hd__inv_6
X_3757_ _0008_ VSS VSS VDD VDD _0009_ sky130_fd_sc_hd__buf_8
X_3758_ _0009_ VSS VSS VDD VDD _0010_ sky130_fd_sc_hd__buf_12
X_3759_ _0010_ VSS VSS VDD VDD _2091_ sky130_fd_sc_hd__buf_8
X_3760_ _2081_ _2091_ VSS VSS VDD VDD _0011_ sky130_fd_sc_hd__nand2_1
X_3761_ _0007_ VSS VSS VDD VDD _0012_ sky130_fd_sc_hd__buf_4
X_3762_ _0012_ VSS VSS VDD VDD _0013_ sky130_fd_sc_hd__clkbuf_4
X_3763_ _0013_ VSS VSS VDD VDD _0014_ sky130_fd_sc_hd__clkbuf_4
X_3764_ _0014_ VSS VSS VDD VDD _0015_ sky130_fd_sc_hd__clkbuf_4
X_3765_ _0015_ VSS VSS VDD VDD _0016_ sky130_fd_sc_hd__clkbuf_4
X_3766_ _2085_ _0016_ VSS VSS VDD VDD _0017_ sky130_fd_sc_hd__nand2_1
X_3767_ _0011_ _0017_ VSS VSS VDD VDD _2207_ sky130_fd_sc_hd__nand2_1
X_3768_ _2207_ VSS VSS VDD VDD _2096_ sky130_fd_sc_hd__inv_1
X_3769_ _2086_ _2201_ VSS VSS VDD VDD _0018_ sky130_fd_sc_hd__nor2b_1
X_3770_ _2219_ VSS VSS VDD VDD _0019_ sky130_fd_sc_hd__clkbuf_2
X_3771_ _2211_ VSS VSS VDD VDD _0020_ sky130_fd_sc_hd__buf_2
X_3772_ _0019_ _2218_ _0020_ VSS VSS VDD VDD _0021_ sky130_fd_sc_hd__o21a_1
X_3773_ _2202_ _2218_ _0018_ _0021_ VSS VSS VDD VDD _0022_
+ sky130_fd_sc_hd__o31a_2
X_3774_ _2202_ _0018_ _0019_ VSS VSS VDD VDD _0023_ sky130_fd_sc_hd__o21a_1
X_3775_ _0020_ _2218_ _0023_ VSS VSS VDD VDD _0024_ sky130_fd_sc_hd__nor3_1
X_3776_ _0022_ _0024_ VSS VSS VDD VDD _0025_ sky130_fd_sc_hd__nor2_1
X_3777_ _0019_ _2201_ _2199_ VSS VSS VDD VDD _0026_ sky130_fd_sc_hd__nor3b_1
X_3778_ _0019_ _2205_ VSS VSS VDD VDD _0027_ sky130_fd_sc_hd__nor2b_1
X_3779_ _2223_ _0026_ _0027_ VSS VSS VDD VDD _0028_ sky130_fd_sc_hd__nor3_1
X_3780_ _0020_ _0028_ VSS VSS VDD VDD _0029_ sky130_fd_sc_hd__xnor2_2
X_3781_ _0015_ _0029_ VSS VSS VDD VDD _0030_ sky130_fd_sc_hd__nor2_1
X_3782_ _0015_ _0025_ _0030_ VSS VSS VDD VDD _0031_ sky130_fd_sc_hd__a21oi_1
X_3783_ _0031_ VSS VSS VDD VDD _2272_ sky130_fd_sc_hd__inv_1
X_3784_ _0019_ VSS VSS VDD VDD _0032_ sky130_fd_sc_hd__clkbuf_4
X_3785_ _2084_ VSS VSS VDD VDD _0033_ sky130_fd_sc_hd__buf_2
X_3786_ _2087_ _0014_ VSS VSS VDD VDD _0034_ sky130_fd_sc_hd__nand2_1
X_3787_ _0033_ _0014_ _0034_ VSS VSS VDD VDD _0035_ sky130_fd_sc_hd__o21ai_0
X_3788_ _0032_ _0035_ VSS VSS VDD VDD _2276_ sky130_fd_sc_hd__xnor2_1
X_3789_ _2085_ _2091_ VSS VSS VDD VDD _0036_ sky130_fd_sc_hd__nand2_1
X_3790_ _2088_ _0016_ VSS VSS VDD VDD _0037_ sky130_fd_sc_hd__nand2_1
X_3791_ _0036_ _0037_ VSS VSS VDD VDD _2101_ sky130_fd_sc_hd__nand2_2
X_3792_ _2101_ VSS VSS VDD VDD _2105_ sky130_fd_sc_hd__inv_1
X_3793_ net67 VSS VSS VDD VDD _3683_ sky130_fd_sc_hd__inv_2
X_3794_ _0000_ _0001_ VSS VSS VDD VDD _0038_ sky130_fd_sc_hd__nand2_1
X_3795_ _0038_ _0005_ VSS VSS VDD VDD _0039_ sky130_fd_sc_hd__or2_0
X_3796_ _3685_ _0004_ VSS VSS VDD VDD _0040_ sky130_fd_sc_hd__nor2_1
X_3797_ _0040_ VSS VSS VDD VDD _0041_ sky130_fd_sc_hd__buf_2
X_3798_ net65 net64 net63 _0039_ _0041_ VSS VSS VDD VDD _0042_
+ sky130_fd_sc_hd__o41ai_2
X_3799_ net66 _0042_ VSS VSS VDD VDD _2089_ sky130_fd_sc_hd__xnor2_2
X_3800_ _2089_ VSS VSS VDD VDD _2284_ sky130_fd_sc_hd__inv_1
X_3801_ _0033_ _0015_ VSS VSS VDD VDD _0043_ sky130_fd_sc_hd__nand2_1
X_3802_ _2080_ _0015_ _0043_ VSS VSS VDD VDD _0044_ sky130_fd_sc_hd__o21ai_1
X_3803_ _0032_ _0044_ VSS VSS VDD VDD _2279_ sky130_fd_sc_hd__xnor2_2
X_3804_ _2279_ VSS VSS VDD VDD _2227_ sky130_fd_sc_hd__inv_1
X_3805_ _2276_ VSS VSS VDD VDD _2231_ sky130_fd_sc_hd__inv_1
X_3806_ _2092_ VSS VSS VDD VDD _0045_ sky130_fd_sc_hd__buf_12
X_3807_ _0045_ VSS VSS VDD VDD _2111_ sky130_fd_sc_hd__clkinv_8
X_3808_ _2233_ _2276_ _2111_ VSS VSS VDD VDD _2234_ sky130_fd_sc_hd__mux2_1
X_3809_ _2234_ VSS VSS VDD VDD _2095_ sky130_fd_sc_hd__inv_1
X_3810_ _2230_ _2097_ VSS VSS VDD VDD _2237_ sky130_fd_sc_hd__xnor2_2
X_3811_ _2237_ VSS VSS VDD VDD _2428_ sky130_fd_sc_hd__inv_1
X_3812_ _2241_ VSS VSS VDD VDD _0046_ sky130_fd_sc_hd__clkbuf_4
X_3813_ _0046_ VSS VSS VDD VDD _0047_ sky130_fd_sc_hd__clkinvlp_4
X_3814_ _0046_ _2249_ VSS VSS VDD VDD _0048_ sky130_fd_sc_hd__nor2b_1
X_3815_ _2210_ _0022_ _0048_ VSS VSS VDD VDD _0049_ sky130_fd_sc_hd__o21a_1
X_3816_ _0047_ _2210_ _2248_ _0022_ VSS VSS VDD VDD _0050_
+ sky130_fd_sc_hd__nor4_1
X_3817_ _2249_ VSS VSS VDD VDD _0051_ sky130_fd_sc_hd__buf_4
X_3818_ _0051_ _0047_ _2248_ VSS VSS VDD VDD _0052_ sky130_fd_sc_hd__nor3_1
X_3819_ _0047_ _2248_ _0049_ _0050_ _0052_ VSS VSS VDD VDD
+ _0053_ sky130_fd_sc_hd__a2111oi_4
X_3820_ _0020_ VSS VSS VDD VDD _0054_ sky130_fd_sc_hd__inv_1
X_3821_ _2223_ _0026_ _0027_ _0054_ VSS VSS VDD VDD _0055_
+ sky130_fd_sc_hd__o31a_2
X_3822_ _2215_ _0046_ VSS VSS VDD VDD _0056_ sky130_fd_sc_hd__nand2b_1
X_3823_ _0046_ VSS VSS VDD VDD _0057_ sky130_fd_sc_hd__buf_2
X_3824_ _0051_ _0057_ VSS VSS VDD VDD _0058_ sky130_fd_sc_hd__nor2_1
X_3825_ _2223_ _0026_ _0027_ _0058_ _0054_ VSS VSS VDD VDD
+ _0059_ sky130_fd_sc_hd__o311ai_1
X_3826_ _2249_ _2215_ VSS VSS VDD VDD _0060_ sky130_fd_sc_hd__nor2b_1
X_3827_ _2253_ _0057_ _0051_ VSS VSS VDD VDD _0061_ sky130_fd_sc_hd__and3b_1
X_3828_ _0046_ _2253_ VSS VSS VDD VDD _0062_ sky130_fd_sc_hd__nor2b_1
X_3829_ _0047_ _0060_ _0061_ _0062_ VSS VSS VDD VDD _0063_
+ sky130_fd_sc_hd__a211oi_1
X_3830_ _2253_ _0055_ _0056_ _0059_ _0063_ VSS VSS VDD VDD
+ _0064_ sky130_fd_sc_hd__o311a_2
X_3831_ net172 _0064_ VSS VSS VDD VDD _0065_ sky130_fd_sc_hd__nand2_1
X_3832_ net172 _0053_ _0065_ VSS VSS VDD VDD _2264_ sky130_fd_sc_hd__o21ai_2
X_3833_ _2257_ VSS VSS VDD VDD _0066_ sky130_fd_sc_hd__buf_2
X_3834_ _2251_ _2243_ VSS VSS VDD VDD _0067_ sky130_fd_sc_hd__or2_0
X_3835_ _2080_ _0019_ VSS VSS VDD VDD _0068_ sky130_fd_sc_hd__nor2b_1
X_3836_ _0020_ _2213_ _0051_ VSS VSS VDD VDD _0069_ sky130_fd_sc_hd__o21a_1
X_3837_ _2221_ _2213_ _0068_ _0069_ VSS VSS VDD VDD _0070_
+ sky130_fd_sc_hd__o31a_2
X_3838_ _0057_ _2243_ _0067_ _0070_ VSS VSS VDD VDD _0071_
+ sky130_fd_sc_hd__o22a_1
X_3839_ _0066_ _0071_ VSS VSS VDD VDD _0072_ sky130_fd_sc_hd__xnor2_1
X_3840_ _2257_ VSS VSS VDD VDD _0073_ sky130_fd_sc_hd__clkinvlp_4
X_3841_ _0019_ _0033_ _2223_ VSS VSS VDD VDD _0074_ sky130_fd_sc_hd__o21bai_1
X_3842_ _0020_ _2249_ VSS VSS VDD VDD _0075_ sky130_fd_sc_hd__nor2_1
X_3843_ _0074_ _0075_ _2253_ _0060_ VSS VSS VDD VDD _0076_
+ sky130_fd_sc_hd__a211o_1
X_3844_ _0047_ _0076_ _2245_ VSS VSS VDD VDD _0077_ sky130_fd_sc_hd__a21oi_1
X_3845_ _0073_ _0077_ VSS VSS VDD VDD _0078_ sky130_fd_sc_hd__xnor2_2
X_3846_ _0010_ _0078_ VSS VSS VDD VDD _0079_ sky130_fd_sc_hd__nor2_1
X_3847_ _0010_ _0072_ _0079_ VSS VSS VDD VDD _2392_ sky130_fd_sc_hd__a21oi_2
X_3848_ _2079_ _2201_ VSS VSS VDD VDD _0080_ sky130_fd_sc_hd__nor2b_2
X_3849_ _0019_ _2221_ _0020_ VSS VSS VDD VDD _0081_ sky130_fd_sc_hd__o21a_1
X_3850_ _2221_ _2203_ _0080_ _0081_ VSS VSS VDD VDD _0082_
+ sky130_fd_sc_hd__o31a_1
X_3851_ _2251_ _0057_ VSS VSS VDD VDD _0083_ sky130_fd_sc_hd__nand2b_1
X_3852_ _2221_ _2203_ _0080_ _0081_ _0048_ VSS VSS VDD VDD
+ _0084_ sky130_fd_sc_hd__o311ai_1
X_3853_ _0051_ _2251_ _0057_ VSS VSS VDD VDD _0085_ sky130_fd_sc_hd__nor3b_1
X_3854_ _0047_ _2251_ _2213_ _0048_ _0085_ VSS VSS VDD VDD
+ _0086_ sky130_fd_sc_hd__a221oi_1
X_3855_ _2213_ _0082_ _0083_ _0084_ _0086_ VSS VSS VDD VDD
+ _0087_ sky130_fd_sc_hd__o311ai_2
X_3856_ _0064_ _0013_ VSS VSS VDD VDD _0088_ sky130_fd_sc_hd__nand2b_1
X_3857_ _0014_ _0087_ _0088_ VSS VSS VDD VDD _2396_ sky130_fd_sc_hd__o21a_1
X_3858_ _0054_ _0074_ _2215_ VSS VSS VDD VDD _0089_ sky130_fd_sc_hd__a21oi_1
X_3859_ _0051_ _0089_ VSS VSS VDD VDD _0090_ sky130_fd_sc_hd__xnor2_2
X_3860_ _2221_ _0068_ _0020_ VSS VSS VDD VDD _0091_ sky130_fd_sc_hd__o21ai_0
X_3861_ _0051_ _2213_ VSS VSS VDD VDD _0092_ sky130_fd_sc_hd__nor2_1
X_3862_ _0091_ _0092_ _0070_ VSS VSS VDD VDD _0093_ sky130_fd_sc_hd__a21oi_1
X_3863_ _0016_ _0093_ VSS VSS VDD VDD _0094_ sky130_fd_sc_hd__nor2_1
X_3864_ _0016_ _0090_ _0094_ VSS VSS VDD VDD _2400_ sky130_fd_sc_hd__a21oi_2
X_3865_ _2221_ _2203_ _0080_ _0081_ VSS VSS VDD VDD _0095_
+ sky130_fd_sc_hd__o31ai_4
X_3866_ _2221_ VSS VSS VDD VDD _0096_ sky130_fd_sc_hd__inv_1
X_3867_ _2203_ _0080_ _0032_ VSS VSS VDD VDD _0097_ sky130_fd_sc_hd__o21ai_0
X_3868_ _0054_ _0096_ _0097_ VSS VSS VDD VDD _0098_ sky130_fd_sc_hd__nand3_1
X_3869_ _0095_ _0098_ _0014_ VSS VSS VDD VDD _0099_ sky130_fd_sc_hd__a21oi_1
X_3870_ _0015_ _0029_ _0099_ VSS VSS VDD VDD _2317_ sky130_fd_sc_hd__a21oi_2
X_3871_ _0032_ _2080_ VSS VSS VDD VDD _0100_ sky130_fd_sc_hd__xnor2_1
X_3872_ _2081_ _0100_ VSS VSS VDD VDD _0101_ sky130_fd_sc_hd__nor2_1
X_3873_ _0095_ _0098_ _0087_ _0013_ _0093_ VSS VSS VDD VDD
+ _0102_ sky130_fd_sc_hd__a2111oi_0
X_3874_ _0032_ _0033_ VSS VSS VDD VDD _0103_ sky130_fd_sc_hd__xor2_1
X_3875_ _2085_ _0103_ VSS VSS VDD VDD _0104_ sky130_fd_sc_hd__nor2_1
X_3876_ _0029_ _0090_ _0104_ VSS VSS VDD VDD _0105_ sky130_fd_sc_hd__nand3_1
X_3877_ _0101_ _0102_ _0105_ _0088_ VSS VSS VDD VDD _0106_
+ sky130_fd_sc_hd__o2bb2ai_1
X_3878_ net16 _0106_ VSS VSS VDD VDD _0107_ sky130_fd_sc_hd__nor2_1
X_3879_ _2392_ _0107_ VSS VSS VDD VDD _2263_ sky130_fd_sc_hd__xnor2_1
X_3880_ _2087_ _0019_ VSS VSS VDD VDD _0108_ sky130_fd_sc_hd__nor2b_1
X_3881_ _2218_ _0108_ _0020_ VSS VSS VDD VDD _0109_ sky130_fd_sc_hd__o21ai_0
X_3882_ _0051_ _2210_ VSS VSS VDD VDD _0110_ sky130_fd_sc_hd__nor2_1
X_3883_ _0020_ _2210_ _2249_ VSS VSS VDD VDD _0111_ sky130_fd_sc_hd__o21a_1
X_3884_ _2218_ _2210_ _0108_ _0111_ VSS VSS VDD VDD _0112_
+ sky130_fd_sc_hd__o31a_2
X_3885_ _0109_ _0110_ _0112_ VSS VSS VDD VDD _0113_ sky130_fd_sc_hd__a21oi_1
X_3886_ _0016_ _0113_ VSS VSS VDD VDD _0114_ sky130_fd_sc_hd__nand2_1
X_3887_ _0015_ _0090_ _0114_ VSS VSS VDD VDD _2268_ sky130_fd_sc_hd__o21ai_1
X_3888_ _0045_ VSS VSS VDD VDD _0115_ sky130_fd_sc_hd__buf_2
X_3889_ _0095_ _0098_ _0093_ _0014_ VSS VSS VDD VDD _0116_
+ sky130_fd_sc_hd__a211oi_1
X_3890_ _0013_ _0029_ _0090_ VSS VSS VDD VDD _0117_ sky130_fd_sc_hd__and3_1
X_3891_ _0116_ _0117_ _2280_ VSS VSS VDD VDD _0118_ sky130_fd_sc_hd__o21ai_1
X_3892_ _0115_ _0118_ VSS VSS VDD VDD _0119_ sky130_fd_sc_hd__nand2_1
X_3893_ _2396_ _0119_ VSS VSS VDD VDD _2267_ sky130_fd_sc_hd__xor2_1
X_3894_ _2085_ _0033_ _0014_ VSS VSS VDD VDD _0120_ sky130_fd_sc_hd__nand3b_1
X_3895_ _2081_ _2080_ _0014_ _0120_ _0032_ VSS VSS VDD VDD
+ _0121_ sky130_fd_sc_hd__o311a_1
X_3896_ _2081_ _0015_ VSS VSS VDD VDD _0122_ sky130_fd_sc_hd__nor2_1
X_3897_ _2085_ _0033_ net172 VSS VSS VDD VDD _0123_ sky130_fd_sc_hd__nor3_1
X_3898_ _2080_ _0122_ _0123_ _0032_ VSS VSS VDD VDD _0124_
+ sky130_fd_sc_hd__a211oi_1
X_3899_ _0045_ VSS VSS VDD VDD _0125_ sky130_fd_sc_hd__buf_2
X_3900_ _2317_ _0121_ _0124_ _0125_ VSS VSS VDD VDD _0126_
+ sky130_fd_sc_hd__o31ai_1
X_3901_ _2400_ _0126_ VSS VSS VDD VDD _2271_ sky130_fd_sc_hd__xor2_1
X_3902_ _2111_ _2280_ VSS VSS VDD VDD _0127_ sky130_fd_sc_hd__nor2_1
X_3903_ _2317_ _0127_ VSS VSS VDD VDD _2275_ sky130_fd_sc_hd__xnor2_1
X_3904_ _0115_ _2279_ VSS VSS VDD VDD _0128_ sky130_fd_sc_hd__nor2_1
X_3905_ _0115_ _2281_ _0128_ VSS VSS VDD VDD _2100_ sky130_fd_sc_hd__a21oi_2
X_3906_ _2104_ VSS VSS VDD VDD _2099_ sky130_fd_sc_hd__inv_1
X_3907_ _2104_ _2283_ VSS VSS VDD VDD _0129_ sky130_fd_sc_hd__nor2b_1
X_3908_ _2282_ _0129_ _2278_ VSS VSS VDD VDD _0130_ sky130_fd_sc_hd__o21ai_0
X_3909_ _2274_ _2277_ VSS VSS VDD VDD _0131_ sky130_fd_sc_hd__nor2_1
X_3910_ _2278_ _2277_ _2274_ VSS VSS VDD VDD _0132_ sky130_fd_sc_hd__o21a_1
X_3911_ _2277_ _2282_ _0129_ _0132_ VSS VSS VDD VDD _0133_
+ sky130_fd_sc_hd__o31a_1
X_3912_ _0130_ _0131_ _0133_ VSS VSS VDD VDD _2420_ sky130_fd_sc_hd__a21oi_2
X_3913_ _2420_ VSS VSS VDD VDD _2328_ sky130_fd_sc_hd__inv_1
X_3914_ _2278_ _2102_ VSS VSS VDD VDD _2424_ sky130_fd_sc_hd__xor2_2
X_3915_ _2424_ VSS VSS VDD VDD _2327_ sky130_fd_sc_hd__inv_1
X_3916_ _2273_ _0133_ _2270_ VSS VSS VDD VDD _0134_ sky130_fd_sc_hd__o21ai_0
X_3917_ _2266_ _2269_ VSS VSS VDD VDD _0135_ sky130_fd_sc_hd__nor2_1
X_3918_ _2270_ _2269_ _2266_ VSS VSS VDD VDD _0136_ sky130_fd_sc_hd__o21a_1
X_3919_ _2269_ _2273_ _0133_ _0136_ VSS VSS VDD VDD _0137_
+ sky130_fd_sc_hd__o31a_1
X_3920_ _0134_ _0135_ _0137_ VSS VSS VDD VDD _2412_ sky130_fd_sc_hd__a21oi_2
X_3921_ net62 VSS VSS VDD VDD _0138_ sky130_fd_sc_hd__buf_8
X_3922_ _0138_ VSS VSS VDD VDD _2122_ sky130_fd_sc_hd__clkinv_8
X_3923_ _2472_ _3685_ _0004_ net70 VSS VSS VDD VDD _0139_
+ sky130_fd_sc_hd__o31a_1
X_3924_ net70 _2472_ _3685_ _0004_ VSS VSS VDD VDD _0140_
+ sky130_fd_sc_hd__nor4_1
X_3925_ _0139_ _0140_ VSS VSS VDD VDD _2110_ sky130_fd_sc_hd__nor2_1
X_3926_ _2294_ VSS VSS VDD VDD _0141_ sky130_fd_sc_hd__inv_1
X_3927_ _2313_ _2314_ _2312_ VSS VSS VDD VDD _0142_ sky130_fd_sc_hd__a21oi_2
X_3928_ _0139_ _0140_ _2313_ _2315_ VSS VSS VDD VDD _0143_
+ sky130_fd_sc_hd__o211ai_1
X_3929_ _0143_ _0142_ _2310_ VSS VSS VDD VDD _0144_ sky130_fd_sc_hd__a21boi_4
X_3930_ _2307_ VSS VSS VDD VDD _0145_ sky130_fd_sc_hd__inv_1
X_3931_ _2301_ VSS VSS VDD VDD _0146_ sky130_fd_sc_hd__inv_1
X_3932_ _2298_ _2304_ VSS VSS VDD VDD _0147_ sky130_fd_sc_hd__nand2_1
X_3933_ _0145_ _0146_ _0147_ VSS VSS VDD VDD _0148_ sky130_fd_sc_hd__nor3_2
X_3934_ _0144_ _2309_ _0148_ VSS VSS VDD VDD _0149_ sky130_fd_sc_hd__o21ai_4
X_3935_ _2304_ _2306_ _2303_ VSS VSS VDD VDD _0150_ sky130_fd_sc_hd__a21oi_2
X_3936_ _0146_ _0150_ _2300_ VSS VSS VDD VDD _0151_ sky130_fd_sc_hd__o21bai_1
X_3937_ _0151_ _2298_ _2297_ VSS VSS VDD VDD _0152_ sky130_fd_sc_hd__a21oi_2
X_3938_ _2295_ _2294_ _2292_ VSS VSS VDD VDD _0153_ sky130_fd_sc_hd__o21ai_0
X_3939_ _0149_ _0141_ _0152_ _0153_ VSS VSS VDD VDD _0154_
+ sky130_fd_sc_hd__a31oi_4
X_3940_ _0045_ _2093_ VSS VSS VDD VDD _0155_ sky130_fd_sc_hd__xnor2_1
X_3941_ _2289_ _2288_ _2286_ VSS VSS VDD VDD _0156_ sky130_fd_sc_hd__o21ai_0
X_3942_ _0155_ _0156_ _2225_ VSS VSS VDD VDD _0157_ sky130_fd_sc_hd__o21bai_1
X_3943_ _2225_ _2288_ _0154_ _2291_ _0157_ VSS VSS VDD VDD
+ _0158_ sky130_fd_sc_hd__o41a_4
X_3944_ _0158_ VSS VSS VDD VDD _0159_ sky130_fd_sc_hd__inv_6
X_3945_ _0159_ VSS VSS VDD VDD _2443_ sky130_fd_sc_hd__buf_6
X_3946_ _2236_ _2331_ _2235_ VSS VSS VDD VDD _0160_ sky130_fd_sc_hd__a21o_1
X_3947_ _2230_ _0160_ _2229_ VSS VSS VDD VDD _0161_ sky130_fd_sc_hd__a21oi_1
X_3948_ _2319_ _0161_ VSS VSS VDD VDD _2320_ sky130_fd_sc_hd__xnor2_2
X_3949_ _2320_ VSS VSS VDD VDD _2427_ sky130_fd_sc_hd__inv_1
X_3950_ _2112_ _2333_ _2332_ VSS VSS VDD VDD _0162_ sky130_fd_sc_hd__a21o_1
X_3951_ _2326_ _0162_ _2325_ VSS VSS VDD VDD _0163_ sky130_fd_sc_hd__a21oi_2
X_3952_ _2323_ _0163_ VSS VSS VDD VDD _2336_ sky130_fd_sc_hd__xnor2_1
X_3953_ _2336_ VSS VSS VDD VDD _2646_ sky130_fd_sc_hd__inv_1
X_3954_ _2341_ VSS VSS VDD VDD _0164_ sky130_fd_sc_hd__clkbuf_4
X_3955_ _0164_ VSS VSS VDD VDD _0165_ sky130_fd_sc_hd__clkinvlp_4
X_3956_ _2248_ _2240_ _2256_ VSS VSS VDD VDD _0166_ sky130_fd_sc_hd__or3_2
X_3957_ _0051_ _2248_ _0066_ _0057_ VSS VSS VDD VDD _0167_
+ sky130_fd_sc_hd__o211ai_1
X_3958_ _0066_ _2240_ _2256_ VSS VSS VDD VDD _0168_ sky130_fd_sc_hd__a21oi_1
X_3959_ _0167_ _0168_ VSS VSS VDD VDD _0169_ sky130_fd_sc_hd__nand2_1
X_3960_ _2210_ _0022_ _0166_ _0169_ VSS VSS VDD VDD _0170_
+ sky130_fd_sc_hd__o31ai_2
X_3961_ _0165_ _0170_ VSS VSS VDD VDD _0171_ sky130_fd_sc_hd__xnor2_1
X_3962_ _2253_ _2249_ VSS VSS VDD VDD _0172_ sky130_fd_sc_hd__nor2b_1
X_3963_ _0046_ _2257_ _0172_ VSS VSS VDD VDD _0173_ sky130_fd_sc_hd__nor3_2
X_3964_ _2245_ _0046_ VSS VSS VDD VDD _0174_ sky130_fd_sc_hd__nand2b_1
X_3965_ _2245_ _2253_ _0060_ _0174_ _0073_ VSS VSS VDD VDD
+ _0175_ sky130_fd_sc_hd__o311a_2
X_3966_ _0055_ _0173_ _0175_ _2261_ VSS VSS VDD VDD _0176_
+ sky130_fd_sc_hd__a211oi_2
X_3967_ _0165_ _0176_ VSS VSS VDD VDD _0177_ sky130_fd_sc_hd__xnor2_2
X_3968_ _0016_ _0177_ VSS VSS VDD VDD _0178_ sky130_fd_sc_hd__nor2_1
X_3969_ _0016_ _0171_ _0178_ VSS VSS VDD VDD _2356_ sky130_fd_sc_hd__a21oi_1
X_3970_ _2349_ VSS VSS VDD VDD _0179_ sky130_fd_sc_hd__clkbuf_4
X_3971_ _2251_ _2243_ VSS VSS VDD VDD _0180_ sky130_fd_sc_hd__nor2_1
X_3972_ _0164_ _2259_ _2343_ VSS VSS VDD VDD _0181_ sky130_fd_sc_hd__a21oi_1
X_3973_ _0180_ _0181_ VSS VSS VDD VDD _0182_ sky130_fd_sc_hd__nand2_1
X_3974_ _0057_ _2243_ _0066_ _0164_ VSS VSS VDD VDD _0183_
+ sky130_fd_sc_hd__o211ai_1
X_3975_ _0181_ _0183_ VSS VSS VDD VDD _0184_ sky130_fd_sc_hd__nand2_1
X_3976_ _0070_ _0182_ _0184_ VSS VSS VDD VDD _0185_ sky130_fd_sc_hd__o21ai_0
X_3977_ _2245_ _0046_ VSS VSS VDD VDD _0186_ sky130_fd_sc_hd__nor2b_1
X_3978_ _0066_ _0186_ _2261_ VSS VSS VDD VDD _0187_ sky130_fd_sc_hd__o21bai_1
X_3979_ _0165_ _0187_ _2345_ VSS VSS VDD VDD _0188_ sky130_fd_sc_hd__a21o_1
X_3980_ _2245_ _2261_ _2345_ VSS VSS VDD VDD _0189_ sky130_fd_sc_hd__nor3_1
X_3981_ _0076_ _0189_ VSS VSS VDD VDD _0190_ sky130_fd_sc_hd__nand2b_1
X_3982_ _0188_ _0190_ _0009_ VSS VSS VDD VDD _0191_ sky130_fd_sc_hd__a21oi_1
X_3983_ _0013_ _0185_ _0191_ VSS VSS VDD VDD _0192_ sky130_fd_sc_hd__o21bai_2
X_3984_ _0179_ _0192_ VSS VSS VDD VDD _2384_ sky130_fd_sc_hd__xor2_4
X_3985_ _2213_ _0067_ VSS VSS VDD VDD _0193_ sky130_fd_sc_hd__nor2_1
X_3986_ _0051_ _2251_ _0057_ VSS VSS VDD VDD _0194_ sky130_fd_sc_hd__o21a_1
X_3987_ _2243_ _0194_ _0066_ VSS VSS VDD VDD _0195_ sky130_fd_sc_hd__o21ai_0
X_3988_ _0095_ _0193_ _0195_ VSS VSS VDD VDD _0196_ sky130_fd_sc_hd__a21oi_1
X_3989_ _2259_ _0196_ VSS VSS VDD VDD _0197_ sky130_fd_sc_hd__nor2_1
X_3990_ _0165_ _0197_ VSS VSS VDD VDD _0198_ sky130_fd_sc_hd__xnor2_1
X_3991_ net176 _0177_ VSS VSS VDD VDD _0199_ sky130_fd_sc_hd__nor2_1
X_3992_ net176 _0198_ _0199_ VSS VSS VDD VDD _2388_ sky130_fd_sc_hd__a21oi_2
X_3993_ _0010_ _0078_ _0177_ VSS VSS VDD VDD _0200_ sky130_fd_sc_hd__nor3_1
X_3994_ _2213_ _2259_ VSS VSS VDD VDD _0201_ sky130_fd_sc_hd__nor2_1
X_3995_ _2243_ _2259_ _0194_ VSS VSS VDD VDD _0202_ sky130_fd_sc_hd__nor3_1
X_3996_ _0180_ _0095_ _0201_ _0202_ VSS VSS VDD VDD _0203_
+ sky130_fd_sc_hd__a31oi_1
X_3997_ _0164_ _0203_ VSS VSS VDD VDD _0204_ sky130_fd_sc_hd__xnor2_1
X_3998_ _0066_ _0009_ _0071_ _0204_ VSS VSS VDD VDD _0205_
+ sky130_fd_sc_hd__and4_1
X_3999_ _0164_ _2259_ VSS VSS VDD VDD _0206_ sky130_fd_sc_hd__xor2_1
X_4000_ _0066_ _0013_ _0071_ _0206_ VSS VSS VDD VDD _0207_
+ sky130_fd_sc_hd__nor4_1
X_4001_ _0200_ _0205_ _0207_ _0106_ VSS VSS VDD VDD _0208_
+ sky130_fd_sc_hd__o31ai_2
X_4002_ _0115_ _0208_ VSS VSS VDD VDD _0209_ sky130_fd_sc_hd__nand2_1
X_4003_ _2384_ _0209_ VSS VSS VDD VDD _2355_ sky130_fd_sc_hd__xor2_1
X_4004_ _2248_ _0112_ VSS VSS VDD VDD _0210_ sky130_fd_sc_hd__or2_0
X_4005_ _2248_ _0112_ _0073_ _0057_ VSS VSS VDD VDD _0211_
+ sky130_fd_sc_hd__o211ai_1
X_4006_ _0057_ _0073_ _2240_ VSS VSS VDD VDD _0212_ sky130_fd_sc_hd__nor3_1
X_4007_ _0073_ _2240_ _0212_ VSS VSS VDD VDD _0213_ sky130_fd_sc_hd__a21oi_1
X_4008_ _0073_ _2240_ _0210_ _0211_ _0213_ VSS VSS VDD VDD
+ _0214_ sky130_fd_sc_hd__o311a_1
X_4009_ _0016_ _0078_ VSS VSS VDD VDD _0215_ sky130_fd_sc_hd__nor2_1
X_4010_ _0016_ _0214_ _0215_ VSS VSS VDD VDD _2360_ sky130_fd_sc_hd__a21oi_1
X_4011_ _2392_ _2396_ _0118_ VSS VSS VDD VDD _0216_ sky130_fd_sc_hd__nor3_1
X_4012_ _0216_ _0045_ VSS VSS VDD VDD _0217_ sky130_fd_sc_hd__nand2b_1
X_4013_ _2388_ _0217_ VSS VSS VDD VDD _2359_ sky130_fd_sc_hd__xor2_1
X_4014_ _2265_ _0137_ _2362_ VSS VSS VDD VDD _0218_ sky130_fd_sc_hd__o21ai_1
X_4015_ _2361_ _0218_ VSS VSS VDD VDD _0219_ sky130_fd_sc_hd__nor2b_1
X_4016_ _2358_ _0219_ VSS VSS VDD VDD _2404_ sky130_fd_sc_hd__xnor2_2
X_4017_ _2341_ _2256_ _2340_ _2240_ _2248_ VSS VSS VDD VDD
+ _0220_ sky130_fd_sc_hd__a2111o_1
X_4018_ _0046_ _2240_ _2341_ _0066_ VSS VSS VDD VDD _0221_
+ sky130_fd_sc_hd__o211ai_1
X_4019_ _2341_ _2256_ _2340_ VSS VSS VDD VDD _0222_ sky130_fd_sc_hd__a21oi_1
X_4020_ _0221_ _0222_ VSS VSS VDD VDD _0223_ sky130_fd_sc_hd__nand2_1
X_4021_ _2349_ _2373_ VSS VSS VDD VDD _0224_ sky130_fd_sc_hd__and2_1
X_4022_ _0112_ _0220_ _0223_ _0224_ VSS VSS VDD VDD _0225_
+ sky130_fd_sc_hd__o211a_1
X_4023_ _2373_ VSS VSS VDD VDD _0226_ sky130_fd_sc_hd__buf_4
X_4024_ _0226_ _2348_ _2372_ VSS VSS VDD VDD _0227_ sky130_fd_sc_hd__a21o_1
X_4025_ _0225_ _0227_ _0012_ VSS VSS VDD VDD _0228_ sky130_fd_sc_hd__o21ai_0
X_4026_ _2377_ VSS VSS VDD VDD _0229_ sky130_fd_sc_hd__buf_2
X_4027_ _2373_ _2353_ VSS VSS VDD VDD _0230_ sky130_fd_sc_hd__nor2b_2
X_4028_ _0229_ _0230_ VSS VSS VDD VDD _0231_ sky130_fd_sc_hd__nor2_1
X_4029_ _2245_ _2261_ _2345_ VSS VSS VDD VDD _0232_ sky130_fd_sc_hd__or3_1
X_4030_ _2345_ VSS VSS VDD VDD _0233_ sky130_fd_sc_hd__inv_2
X_4031_ _2261_ _2345_ _2257_ VSS VSS VDD VDD _0234_ sky130_fd_sc_hd__nor3b_1
X_4032_ _2341_ _0233_ _2349_ _2373_ _0234_ VSS VSS VDD VDD
+ _0235_ sky130_fd_sc_hd__a2111oi_4
X_4033_ _0046_ _0189_ VSS VSS VDD VDD _0236_ sky130_fd_sc_hd__nand2_1
X_4034_ _0076_ _0232_ _0235_ _0236_ VSS VSS VDD VDD _0237_
+ sky130_fd_sc_hd__o211ai_1
X_4035_ _0008_ _0231_ _0237_ VSS VSS VDD VDD _0238_ sky130_fd_sc_hd__nand3_1
X_4036_ _2365_ VSS VSS VDD VDD _0239_ sky130_fd_sc_hd__clkbuf_4
X_4037_ _0239_ VSS VSS VDD VDD _0240_ sky130_fd_sc_hd__inv_1
X_4038_ _0228_ _0238_ _0240_ VSS VSS VDD VDD _0241_ sky130_fd_sc_hd__a21oi_1
X_4039_ _0240_ _0228_ _0238_ VSS VSS VDD VDD _0242_ sky130_fd_sc_hd__and3_1
X_4040_ _0241_ _0242_ VSS VSS VDD VDD _2570_ sky130_fd_sc_hd__nor2_1
X_4041_ _2349_ _2345_ VSS VSS VDD VDD _0243_ sky130_fd_sc_hd__nand2b_1
X_4042_ _2353_ _0243_ VSS VSS VDD VDD _0244_ sky130_fd_sc_hd__nand2b_2
X_4043_ _0164_ _0179_ _0244_ VSS VSS VDD VDD _0245_ sky130_fd_sc_hd__o21bai_1
X_4044_ _0055_ _0173_ _0175_ _0244_ _2261_ VSS VSS VDD VDD
+ _0246_ sky130_fd_sc_hd__a2111o_1
X_4045_ _0009_ _0245_ _0246_ VSS VSS VDD VDD _0247_ sky130_fd_sc_hd__nand3_1
X_4046_ _0164_ _0179_ VSS VSS VDD VDD _0248_ sky130_fd_sc_hd__nand2_1
X_4047_ _0179_ _2340_ _2348_ VSS VSS VDD VDD _0249_ sky130_fd_sc_hd__a21oi_1
X_4048_ _0170_ _0248_ _0249_ _0012_ VSS VSS VDD VDD _0250_
+ sky130_fd_sc_hd__o211ai_1
X_4049_ _0226_ _0247_ _0250_ VSS VSS VDD VDD _0251_ sky130_fd_sc_hd__nand3b_1
X_4050_ _0247_ _0250_ _0226_ VSS VSS VDD VDD _0252_ sky130_fd_sc_hd__a21bo_1
X_4051_ _0251_ _0252_ VSS VSS VDD VDD _0253_ sky130_fd_sc_hd__and2_0
X_4052_ _0253_ VSS VSS VDD VDD _2502_ sky130_fd_sc_hd__inv_1
X_4053_ _0188_ _0190_ _0007_ VSS VSS VDD VDD _0254_ sky130_fd_sc_hd__a21oi_1
X_4054_ _0112_ _0220_ _0223_ VSS VSS VDD VDD _0255_ sky130_fd_sc_hd__o21ai_0
X_4055_ _0008_ _0255_ VSS VSS VDD VDD _0256_ sky130_fd_sc_hd__nor2_1
X_4056_ _0179_ _0254_ _0256_ VSS VSS VDD VDD _0257_ sky130_fd_sc_hd__nor3_1
X_4057_ _0254_ _0256_ _0179_ VSS VSS VDD VDD _0258_ sky130_fd_sc_hd__o21a_1
X_4058_ _0257_ _0258_ VSS VSS VDD VDD _2506_ sky130_fd_sc_hd__nor2_1
X_4059_ _0181_ _0179_ VSS VSS VDD VDD _0259_ sky130_fd_sc_hd__nor2b_1
X_4060_ _0164_ _0179_ _0196_ _0259_ _2351_ VSS VSS VDD VDD
+ _0260_ sky130_fd_sc_hd__a311oi_1
X_4061_ _0012_ _0245_ _0246_ VSS VSS VDD VDD _0261_ sky130_fd_sc_hd__and3_1
X_4062_ _0009_ _0260_ _0261_ VSS VSS VDD VDD _0262_ sky130_fd_sc_hd__a21oi_2
X_4063_ _0226_ _0262_ VSS VSS VDD VDD _2379_ sky130_fd_sc_hd__xor2_4
X_4064_ _2382_ VSS VSS VDD VDD _0263_ sky130_fd_sc_hd__inv_1
X_4065_ _2230_ _2319_ _0160_ VSS VSS VDD VDD _0264_ sky130_fd_sc_hd__and3_1
X_4066_ _2393_ _2397_ VSS VSS VDD VDD _0265_ sky130_fd_sc_hd__nor2_1
X_4067_ _2319_ _2229_ _2318_ VSS VSS VDD VDD _0266_ sky130_fd_sc_hd__a21oi_1
X_4068_ _2401_ _0265_ _0266_ VSS VSS VDD VDD _0267_ sky130_fd_sc_hd__nand3b_1
X_4069_ _2402_ VSS VSS VDD VDD _0268_ sky130_fd_sc_hd__buf_2
X_4070_ _0268_ _2401_ _2398_ VSS VSS VDD VDD _0269_ sky130_fd_sc_hd__o21ai_0
X_4071_ _2394_ _2393_ VSS VSS VDD VDD _0270_ sky130_fd_sc_hd__nor2_1
X_4072_ _0265_ _0269_ _0270_ VSS VSS VDD VDD _0271_ sky130_fd_sc_hd__a21oi_1
X_4073_ _0264_ _0267_ _0271_ VSS VSS VDD VDD _0272_ sky130_fd_sc_hd__o21ai_4
X_4074_ _2386_ _2390_ VSS VSS VDD VDD _0273_ sky130_fd_sc_hd__nand2_1
X_4075_ _2386_ _2389_ _2385_ VSS VSS VDD VDD _0274_ sky130_fd_sc_hd__a21oi_1
X_4076_ _0272_ _0273_ _0274_ VSS VSS VDD VDD _0275_ sky130_fd_sc_hd__o21ai_1
X_4077_ _0263_ _0275_ VSS VSS VDD VDD _2594_ sky130_fd_sc_hd__xnor2_2
X_4078_ _2097_ _2230_ VSS VSS VDD VDD _0276_ sky130_fd_sc_hd__nor2b_1
X_4079_ _2229_ _0276_ _2319_ _2398_ _0268_ VSS VSS VDD VDD
+ _0277_ sky130_fd_sc_hd__o2111ai_4
X_4080_ _0268_ _2318_ _2401_ VSS VSS VDD VDD _0278_ sky130_fd_sc_hd__a21o_1
X_4081_ _2398_ _0278_ VSS VSS VDD VDD _0279_ sky130_fd_sc_hd__nand2_1
X_4082_ _0265_ _0277_ _0279_ _0270_ VSS VSS VDD VDD _0280_
+ sky130_fd_sc_hd__a31oi_4
X_4083_ _2390_ _0280_ _2389_ VSS VSS VDD VDD _0281_ sky130_fd_sc_hd__a21oi_2
X_4084_ _2386_ _0281_ VSS VSS VDD VDD _2598_ sky130_fd_sc_hd__xnor2_4
X_4085_ _2390_ _0272_ VSS VSS VDD VDD _2602_ sky130_fd_sc_hd__xnor2_2
X_4086_ _0277_ _0279_ VSS VSS VDD VDD _0282_ sky130_fd_sc_hd__nand2_1
X_4087_ _2397_ _0282_ VSS VSS VDD VDD _0283_ sky130_fd_sc_hd__nor2_2
X_4088_ _2394_ _0283_ VSS VSS VDD VDD _2606_ sky130_fd_sc_hd__xnor2_4
X_4089_ _0264_ _0266_ VSS VSS VDD VDD _0284_ sky130_fd_sc_hd__nand2b_1
X_4090_ _0268_ _0284_ _2401_ VSS VSS VDD VDD _0285_ sky130_fd_sc_hd__a21oi_2
X_4091_ _2398_ _0285_ VSS VSS VDD VDD _2610_ sky130_fd_sc_hd__xnor2_4
X_4092_ _2230_ VSS VSS VDD VDD _0286_ sky130_fd_sc_hd__inv_1
X_4093_ _2318_ _0268_ VSS VSS VDD VDD _0287_ sky130_fd_sc_hd__nand2b_1
X_4094_ _2229_ _0287_ _2097_ VSS VSS VDD VDD _0288_ sky130_fd_sc_hd__o21ai_0
X_4095_ _0268_ _2319_ VSS VSS VDD VDD _0289_ sky130_fd_sc_hd__nor2b_1
X_4096_ _2097_ _0289_ _2230_ VSS VSS VDD VDD _0290_ sky130_fd_sc_hd__o21ai_0
X_4097_ _0268_ _0266_ _0287_ _2319_ _0290_ VSS VSS VDD VDD
+ _0291_ sky130_fd_sc_hd__o221ai_1
X_4098_ _0286_ _0288_ _0291_ _2320_ VSS VSS VDD VDD _0292_
+ sky130_fd_sc_hd__a211oi_2
X_4099_ _2602_ _2606_ _2610_ _0292_ VSS VSS VDD VDD _0293_
+ sky130_fd_sc_hd__nor4b_2
X_4100_ _0293_ VSS VSS VDD VDD _0294_ sky130_fd_sc_hd__inv_1
X_4101_ _0158_ VSS VSS VDD VDD _0295_ sky130_fd_sc_hd__buf_6
X_4102_ _2598_ _0294_ net18 VSS VSS VDD VDD _0296_ sky130_fd_sc_hd__o21ai_0
X_4103_ _2594_ _0296_ VSS VSS VDD VDD _2403_ sky130_fd_sc_hd__xor2_1
X_4104_ _2270_ VSS VSS VDD VDD _0297_ sky130_fd_sc_hd__inv_1
X_4105_ _2278_ _2102_ _2277_ VSS VSS VDD VDD _0298_ sky130_fd_sc_hd__a21o_1
X_4106_ _2274_ _0298_ _2273_ VSS VSS VDD VDD _0299_ sky130_fd_sc_hd__a21oi_2
X_4107_ _0297_ _0299_ _2269_ VSS VSS VDD VDD _0300_ sky130_fd_sc_hd__o21bai_1
X_4108_ _2266_ _0300_ _2265_ VSS VSS VDD VDD _0301_ sky130_fd_sc_hd__a21oi_1
X_4109_ _2362_ _0301_ VSS VSS VDD VDD _2408_ sky130_fd_sc_hd__xnor2_2
X_4110_ _2229_ _0276_ _2319_ VSS VSS VDD VDD _0302_ sky130_fd_sc_hd__o21ai_0
X_4111_ _2318_ _0302_ VSS VSS VDD VDD _0303_ sky130_fd_sc_hd__nand2b_1
X_4112_ _0268_ _0303_ VSS VSS VDD VDD _0304_ sky130_fd_sc_hd__xnor2_1
X_4113_ _0304_ VSS VSS VDD VDD _2478_ sky130_fd_sc_hd__inv_1
X_4114_ _2429_ _0304_ VSS VSS VDD VDD _0305_ sky130_fd_sc_hd__nand2_1
X_4115_ _2602_ _2606_ _2610_ _0305_ VSS VSS VDD VDD _0306_
+ sky130_fd_sc_hd__or4_2
X_4116_ net18 _0306_ VSS VSS VDD VDD _0307_ sky130_fd_sc_hd__nand2_1
X_4117_ _2598_ _0307_ VSS VSS VDD VDD _2407_ sky130_fd_sc_hd__xor2_1
X_4118_ _2606_ _2610_ VSS VSS VDD VDD _0308_ sky130_fd_sc_hd__nor2_1
X_4119_ _0292_ _0308_ net2 VSS VSS VDD VDD _0309_ sky130_fd_sc_hd__a21oi_1
X_4120_ _2602_ _0309_ VSS VSS VDD VDD _2411_ sky130_fd_sc_hd__xnor2_1
X_4121_ _2610_ _0305_ _0295_ VSS VSS VDD VDD _0310_ sky130_fd_sc_hd__o21ai_0
X_4122_ _2606_ _0310_ VSS VSS VDD VDD _2415_ sky130_fd_sc_hd__xor2_1
X_4123_ net2 _0292_ VSS VSS VDD VDD _0311_ sky130_fd_sc_hd__nor2_1
X_4124_ _2610_ _0311_ VSS VSS VDD VDD _2419_ sky130_fd_sc_hd__xnor2_1
X_4125_ _2429_ net2 VSS VSS VDD VDD _0312_ sky130_fd_sc_hd__nor2_1
X_4126_ _2478_ _0312_ VSS VSS VDD VDD _2423_ sky130_fd_sc_hd__xnor2_1
X_4127_ _0295_ _2427_ VSS VSS VDD VDD _0313_ sky130_fd_sc_hd__nor2_1
X_4128_ _2430_ _0295_ _0313_ VSS VSS VDD VDD _2117_ sky130_fd_sc_hd__a21o_1
X_4129_ _2117_ VSS VSS VDD VDD _2121_ sky130_fd_sc_hd__inv_1
X_4130_ _2425_ VSS VSS VDD VDD _0314_ sky130_fd_sc_hd__inv_1
X_4131_ _2116_ _2432_ VSS VSS VDD VDD _0315_ sky130_fd_sc_hd__nor2b_1
X_4132_ _2431_ _0315_ _2426_ VSS VSS VDD VDD _0316_ sky130_fd_sc_hd__o21ai_0
X_4133_ _0314_ _0316_ _2422_ VSS VSS VDD VDD _0317_ sky130_fd_sc_hd__a21boi_1
X_4134_ _2421_ _0317_ _2418_ VSS VSS VDD VDD _0318_ sky130_fd_sc_hd__o21a_1
X_4135_ _2417_ _0318_ VSS VSS VDD VDD _0319_ sky130_fd_sc_hd__nor2_1
X_4136_ _2414_ _0319_ VSS VSS VDD VDD _2630_ sky130_fd_sc_hd__xnor2_2
X_4137_ _2119_ _2426_ VSS VSS VDD VDD _0320_ sky130_fd_sc_hd__nand2b_1
X_4138_ _0314_ _0320_ _2422_ VSS VSS VDD VDD _0321_ sky130_fd_sc_hd__a21boi_0
X_4139_ _2421_ _0321_ VSS VSS VDD VDD _0322_ sky130_fd_sc_hd__nor2_1
X_4140_ _2418_ _0322_ VSS VSS VDD VDD _2634_ sky130_fd_sc_hd__xnor2_1
X_4141_ _2634_ VSS VSS VDD VDD _2493_ sky130_fd_sc_hd__inv_1
X_4142_ _0314_ _0316_ VSS VSS VDD VDD _0323_ sky130_fd_sc_hd__nand2_1
X_4143_ _2422_ _0323_ VSS VSS VDD VDD _0324_ sky130_fd_sc_hd__nor2_1
X_4144_ _0317_ _0324_ VSS VSS VDD VDD _2638_ sky130_fd_sc_hd__nor2_2