
* cell multi_phase_pwm_controller
* pin duty[2]
* pin duty[3]
* pin deadtime[3]
* pin pwm_p_out[0]
* pin pwm_p_out[2]
* pin pwm_p_out[1]
* pin duty[4]
* pin duty[5]
* pin deadtime[4]
* pin duty[6]
* pin NWELL
* pin PWELL
* pin duty[7]
* pin duty[0]
* pin deadtime[5]
* pin deadtime[0]
* pin deadtime[2]
* pin deadtime[1]
* pin duty[1]
* pin clk
* pin pwm_n_out[2]
* pin pwm_n_out[1]
* pin pwm_n_out[0]
* pin enable
* pin rst_n
.SUBCKT multi_phase_pwm_controller 1 2 3 4 5 6 7 8 9 10 12 13 123 203 214 223
+ 283 293 303 315 377 428 520 599 600
* net 1 duty[2]
* net 2 duty[3]
* net 3 deadtime[3]
* net 4 pwm_p_out[0]
* net 5 pwm_p_out[2]
* net 6 pwm_p_out[1]
* net 7 duty[4]
* net 8 duty[5]
* net 9 deadtime[4]
* net 10 duty[6]
* net 12 NWELL
* net 13 PWELL
* net 123 duty[7]
* net 203 duty[0]
* net 214 deadtime[5]
* net 223 deadtime[0]
* net 283 deadtime[2]
* net 293 deadtime[1]
* net 303 duty[1]
* net 315 clk
* net 377 pwm_n_out[2]
* net 428 pwm_n_out[1]
* net 520 pwm_n_out[0]
* net 599 enable
* net 600 rst_n
* cell instance $6 r0 *1 23.56,1.4
X$6 1 13 12 24 CLKBUF_X3
* cell instance $8 r0 *1 29.64,1.4
X$8 2 13 12 15 CLKBUF_X3
* cell instance $14 m0 *1 29.64,4.2
X$14 3 13 12 18 BUF_X1
* cell instance $20 r0 *1 35.91,1.4
X$20 17 13 12 4 BUF_X1
* cell instance $26 r0 *1 37.62,1.4
X$26 16 13 12 5 BUF_X1
* cell instance $32 r0 *1 40.47,1.4
X$32 14 13 12 6 BUF_X1
* cell instance $38 m0 *1 42.56,4.2
X$38 7 13 12 23 CLKBUF_X3
* cell instance $48 r0 *1 44.27,1.4
X$48 8 13 12 11 CLKBUF_X3
* cell instance $50 r0 *1 43.7,1.4
X$50 9 13 12 31 BUF_X1
* cell instance $56 r0 *1 45.22,1.4
X$56 10 13 12 32 BUF_X2
* cell instance $62 m0 *1 42.94,18.2
X$62 11 198 160 12 13 170 HA_X1
* cell instance $64 r0 *1 44.65,7
X$64 58 11 44 12 13 56 HA_X1
* cell instance $66 r0 *1 42.18,21
X$66 130 11 236 12 13 211 HA_X1
* cell instance $69 r0 *1 45.98,21
X$69 213 11 611 12 13 232 HA_X1
* cell instance $73 r0 *1 40.28,12.6
X$73 11 122 74 12 13 103 HA_X1
* cell instance $78 r0 *1 12.54,26.6
X$78 279 250 267 13 269 12 AOI21_X2
* cell instance $79 r0 *1 13.87,26.6
X$79 13 295 286 322 259 155 12 FA_X1
* cell instance $80 r0 *1 16.91,26.6
X$80 261 13 12 285 INV_X1
* cell instance $83 r0 *1 21.85,26.6
X$83 224 13 12 227 CLKBUF_X3
* cell instance $84 r0 *1 22.8,26.6
X$84 240 227 299 13 281 12 AOI21_X1
* cell instance $85 r0 *1 23.56,26.6
X$85 286 227 13 12 273 NOR2_X1
* cell instance $89 r0 *1 26.6,26.6
X$89 227 269 287 12 300 13 OAI21_X1
* cell instance $90 r0 *1 27.36,26.6
X$90 241 13 12 287 INV_X1
* cell instance $91 r0 *1 27.74,26.6
X$91 241 273 242 12 288 13 OAI21_X1
* cell instance $92 r0 *1 28.5,26.6
X$92 242 65 273 282 274 297 13 12 OAI221_X2
* cell instance $93 r0 *1 30.59,26.6
X$93 13 243 262 275 302 274 12 AOI22_X4
* cell instance $102 m0 *1 1.9,29.4
X$102 293 13 12 284 BUF_X1
* cell instance $105 r0 *1 3.23,26.6
X$105 283 13 12 239 BUF_X1
* cell instance $110 m0 *1 10.45,29.4
X$110 284 93 602 12 13 279 HA_X1
* cell instance $112 r0 *1 11.78,26.6
X$112 279 13 12 258 INV_X1
* cell instance $115 m0 *1 12.92,29.4
X$115 284 13 12 155 INV_X2
* cell instance $118 m0 *1 15.39,29.4
X$118 93 13 12 295 INV_X1
* cell instance $121 m0 *1 16.34,29.4
X$121 13 93 299 323 285 155 12 FA_X1
* cell instance $123 m0 *1 20.14,29.4
X$123 227 286 13 12 368 XNOR2_X2
* cell instance $126 m0 *1 22.61,29.4
X$126 299 227 12 309 13 XOR2_X2
* cell instance $129 m0 *1 25.46,29.4
X$129 242 300 13 12 326 XNOR2_X2
* cell instance $130 m0 *1 27.36,29.4
X$130 228 225 13 12 328 XNOR2_X2
* cell instance $131 m0 *1 29.26,29.4
X$131 288 289 13 12 304 NAND2_X1
* cell instance $133 m0 *1 30.02,29.4
X$133 289 287 228 12 13 302 OAI21_X2
* cell instance $137 m0 *1 31.35,29.4
X$137 65 13 12 289 INV_X1
* cell instance $141 m0 *1 33.06,29.4
X$141 274 271 13 12 319 XNOR2_X2
* cell instance $143 m0 *1 36.48,29.4
X$143 245 290 13 12 329 XNOR2_X2
* cell instance $144 r0 *1 37.24,26.6
X$144 275 197 13 12 290 NAND2_X1
* cell instance $145 r0 *1 37.81,26.6
X$145 256 263 275 276 296 13 12 OAI211_X2
* cell instance $146 r0 *1 39.52,26.6
X$146 275 276 13 12 277 OR2_X1
* cell instance $147 r0 *1 40.28,26.6
X$147 256 277 263 12 13 359 AND3_X1
* cell instance $148 r0 *1 41.23,26.6
X$148 252 245 13 12 276 NAND2_X1
* cell instance $154 m0 *1 40.85,29.4
X$154 230 270 13 12 298 XNOR2_X2
* cell instance $155 m0 *1 42.75,29.4
X$155 105 301 13 12 331 XNOR2_X2
* cell instance $156 r0 *1 43.13,26.6
X$156 245 270 247 12 301 13 OAI21_X1
* cell instance $158 r0 *1 43.89,26.6
X$158 212 280 13 12 310 XNOR2_X2
* cell instance $159 r0 *1 45.79,26.6
X$159 212 13 12 248 INV_X1
* cell instance $160 r0 *1 46.17,26.6
X$160 251 265 297 12 13 278 MUX2_X2
* cell instance $169 m0 *1 46.55,29.4
X$169 58 298 305 12 13 294 HA_X1
* cell instance $170 m0 *1 48.45,29.4
X$170 292 308 294 13 307 12 AOI21_X1
* cell instance $179 r0 *1 19.38,9.8
X$179 138 93 26 12 13 106 HA_X1
* cell instance $181 r0 *1 21.28,9.8
X$181 106 13 12 84 INV_X1
* cell instance $184 m0 *1 19.19,12.6
X$184 92 93 603 12 13 68 HA_X1
* cell instance $186 r0 *1 22.99,9.8
X$186 69 13 12 39 INV_X1
* cell instance $197 r0 *1 31.54,9.8
X$197 112 71 72 13 98 12 AOI21_X1
* cell instance $199 r0 *1 32.3,9.8
X$199 72 111 89 13 12 101 NAND3_X1
* cell instance $201 r0 *1 39.14,9.8
X$201 23 102 91 12 13 75 HA_X1
* cell instance $202 r0 *1 41.04,9.8
X$202 103 75 74 13 90 12 AOI21_X1
* cell instance $203 r0 *1 41.8,9.8
X$203 77 13 12 78 INV_X1
* cell instance $204 r0 *1 42.18,9.8
X$204 78 90 104 12 79 13 OAI21_X1
* cell instance $205 r0 *1 42.94,9.8
X$205 113 13 12 104 INV_X1
* cell instance $206 r0 *1 43.32,9.8
X$206 32 162 77 12 13 113 HA_X1
* cell instance $207 r0 *1 45.22,9.8
X$207 80 60 57 13 59 12 AOI21_X1
* cell instance $215 m0 *1 31.54,12.6
X$215 98 100 13 12 99 NOR2_X1
* cell instance $216 m0 *1 32.11,12.6
X$216 111 13 12 100 INV_X1
* cell instance $221 m0 *1 41.23,12.6
X$221 105 114 76 12 13 54 HA_X1
* cell instance $225 m0 *1 44.46,12.6
X$225 107 105 60 12 13 80 HA_X1
* cell instance $234 r0 *1 22.8,7
X$234 40 38 39 50 12 13 36 AND4_X1
* cell instance $235 r0 *1 24.13,7
X$235 40 13 12 51 INV_X1
* cell instance $237 r0 *1 25.27,7
X$237 26 39 21 34 12 13 47 AND4_X1
* cell instance $239 r0 *1 27.93,7
X$239 15 97 40 12 13 64 HA_X1
* cell instance $241 r0 *1 30.59,7
X$241 64 63 42 12 66 13 OAI21_X1
* cell instance $243 r0 *1 32.11,7
X$243 37 25 29 12 67 13 OAI21_X1
* cell instance $244 r0 *1 32.87,7
X$244 47 29 41 59 67 13 12 46 AOI221_X1
* cell instance $245 r0 *1 34.01,7
X$245 36 42 41 43 66 13 12 45 AOI221_X1
* cell instance $249 r0 *1 43.51,7
X$249 60 55 44 61 12 13 29 AND4_X1
* cell instance $250 r0 *1 46.55,7
X$250 81 32 55 12 13 82 HA_X1
* cell instance $268 m0 *1 20.14,9.8
X$268 26 48 13 12 49 NOR2_X1
* cell instance $269 m0 *1 20.71,9.8
X$269 49 68 50 12 62 13 OAI21_X1
* cell instance $271 r0 *1 20.9,7
X$271 48 38 84 12 20 13 OAI21_X1
* cell instance $274 m0 *1 21.66,9.8
X$274 24 94 50 12 13 88 HA_X1
* cell instance $276 r0 *1 22.04,7
X$276 26 13 12 38 INV_X1
* cell instance $277 m0 *1 23.56,9.8
X$277 88 13 12 70 INV_X1
* cell instance $278 m0 *1 23.94,9.8
X$278 51 62 70 13 63 12 AOI21_X1
* cell instance $283 m0 *1 30.21,9.8
X$283 52 53 89 12 13 71 HA_X1
* cell instance $288 m0 *1 32.87,9.8
X$288 73 30 72 12 13 112 HA_X1
* cell instance $292 m0 *1 39.71,9.8
X$292 76 77 74 91 12 13 42 AND4_X1
* cell instance $294 m0 *1 41.61,9.8
X$294 54 76 79 13 43 12 AOI21_X1
* cell instance $297 m0 *1 44.08,9.8
X$297 73 23 61 12 13 87 HA_X1
* cell instance $299 m0 *1 46.17,9.8
X$299 56 87 44 13 85 12 AOI21_X1
* cell instance $300 m0 *1 46.93,9.8
X$300 55 13 12 86 INV_X1
* cell instance $301 m0 *1 47.31,9.8
X$301 86 85 83 12 57 13 OAI21_X1
* cell instance $303 m0 *1 48.26,9.8
X$303 82 13 12 83 INV_X1
* cell instance $316 r0 *1 5.32,29.4
X$316 303 12 93 13 BUF_X4
* cell instance $329 r0 *1 29.26,29.4
X$329 274 304 13 12 395 XNOR2_X2
* cell instance $341 r0 *1 46.93,29.4
X$341 81 310 308 12 13 292 HA_X1
* cell instance $343 r0 *1 48.83,29.4
X$343 307 13 12 314 INV_X1
* cell instance $350 m0 *1 47.12,32.2
X$350 305 308 306 13 12 332 NAND3_X1
* cell instance $351 m0 *1 47.88,32.2
X$351 107 331 306 12 13 316 HA_X1
* cell instance $389 m0 *1 37.43,4.2
X$389 13 14 120 22 12 DFF_X1
* cell instance $424 r0 *1 15.77,18.2
X$424 165 185 612 12 13 48 HA_X1
* cell instance $426 m0 *1 15.96,21
X$426 186 187 128 12 13 215 HA_X1
* cell instance $430 m0 *1 18.43,21
X$430 215 13 12 199 INV_X1
* cell instance $432 m0 *1 19,21
X$432 155 166 188 12 13 217 HA_X1
* cell instance $435 r0 *1 20.14,18.2
X$435 165 187 614 12 13 139 HA_X1
* cell instance $436 m0 *1 20.9,21
X$436 217 199 188 13 205 12 AOI21_X1
* cell instance $438 r0 *1 22.04,18.2
X$438 24 200 167 12 13 201 HA_X1
* cell instance $442 m0 *1 25.84,21
X$442 115 200 218 12 13 219 HA_X1
* cell instance $445 m0 *1 27.74,21
X$445 53 15 235 12 13 220 HA_X1
* cell instance $446 r0 *1 28.12,18.2
X$446 53 189 202 12 13 190 HA_X1
* cell instance $447 m0 *1 29.64,21
X$447 190 202 219 13 221 12 AOI21_X1
* cell instance $452 m0 *1 31.54,21
X$452 218 191 202 13 12 206 NAND3_X1
* cell instance $453 m0 *1 32.3,21
X$453 191 13 12 192 INV_X1
* cell instance $455 r0 *1 32.49,18.2
X$455 30 196 191 12 13 195 HA_X1
* cell instance $456 m0 *1 32.68,21
X$456 192 221 193 12 194 13 OAI21_X1
* cell instance $457 m0 *1 33.44,21
X$457 210 13 12 193 INV_X1
* cell instance $458 m0 *1 33.82,21
X$458 195 13 12 222 INV_X1
* cell instance $461 m0 *1 34.39,21
X$461 188 209 128 13 12 208 NAND3_X1
* cell instance $463 m0 *1 35.91,21
X$463 130 198 209 12 13 210 HA_X1
* cell instance $465 m0 *1 38.19,21
X$465 30 23 238 12 13 229 HA_X1
* cell instance $469 r0 *1 43.89,18.2
X$469 33 13 12 197 INV_X1
* cell instance $471 r0 *1 44.46,18.2
X$471 32 13 12 212 BUF_X2
* cell instance $501 m0 *1 23.37,49
X$501 515 13 12 200 INV_X2
* cell instance $516 m0 *1 45.79,49
X$516 518 147 525 13 524 12 AOI21_X1
* cell instance $517 r0 *1 46.17,46.2
X$517 296 517 147 13 504 12 AOI21_X1
* cell instance $519 r0 *1 46.93,46.2
X$519 504 505 417 431 13 12 523 AOI22_X1
* cell instance $520 r0 *1 47.88,46.2
X$520 505 359 524 12 522 13 OAI21_X1
* cell instance $521 r0 *1 48.64,46.2
X$521 41 523 522 13 506 12 AOI21_X1
* cell instance $524 r0 *1 55.48,46.2
X$524 13 521 506 481 12 DFF_X1
* cell instance $529 r0 *1 61.37,46.2
X$529 521 13 12 520 BUF_X1
* cell instance $547 r0 *1 15.96,37.8
X$547 321 13 12 443 INV_X1
* cell instance $550 m0 *1 16.91,40.6
X$550 322 13 12 412 INV_X1
* cell instance $552 r0 *1 17.86,37.8
X$552 474 13 12 166 INV_X2
* cell instance $558 m0 *1 28.69,40.6
X$558 436 13 12 97 INV_X2
* cell instance $563 r0 *1 36.86,37.8
X$563 439 13 12 122 INV_X2
* cell instance $570 r0 *1 40.28,37.8
X$570 114 400 12 13 422 AND2_X1
* cell instance $572 r0 *1 41.04,37.8
X$572 422 421 415 359 13 12 414 NAND4_X1
* cell instance $573 m0 *1 41.04,40.6
X$573 413 416 13 12 415 NAND2_X1
* cell instance $574 m0 *1 41.61,40.6
X$574 413 416 162 12 421 13 OAI21_X1
* cell instance $575 r0 *1 41.99,37.8
X$575 359 421 415 13 409 12 AOI21_X1
* cell instance $581 r0 *1 47.88,37.8
X$581 441 13 12 161 INV_X1
* cell instance $585 m0 *1 49.02,40.6
X$585 404 420 458 429 12 13 419 OAI22_X1
* cell instance $589 m0 *1 52.63,40.6
X$589 13 418 419 22 12 DFF_X1
* cell instance $613 m0 *1 20.71,63
X$613 599 12 565 13 BUF_X4
* cell instance $652 m0 *1 28.31,57.4
X$652 551 575 586 12 580 13 OAI21_X1
* cell instance $653 m0 *1 29.07,57.4
X$653 575 551 565 13 12 586 NAND3_X1
* cell instance $657 m0 *1 31.16,57.4
X$657 527 13 12 551 INV_X4
* cell instance $659 m0 *1 32.11,57.4
X$659 539 587 12 13 581 XNOR2_X1
* cell instance $661 r0 *1 32.3,54.6
X$661 561 565 13 12 587 NAND2_X1
* cell instance $664 m0 *1 34.01,57.4
X$664 575 527 564 13 12 582 NAND3_X1
* cell instance $667 r0 *1 34.77,54.6
X$667 564 13 12 539 INV_X2
* cell instance $669 m0 *1 35.34,57.4
X$669 502 13 12 564 BUF_X2
* cell instance $674 m0 *1 38.57,57.4
X$674 582 528 553 13 12 585 NOR3_X1
* cell instance $678 m0 *1 40.66,57.4
X$678 107 585 12 13 590 XNOR2_X1
* cell instance $683 m0 *1 44.27,57.4
X$683 13 583 22 107 584 12 DFF_X2
* cell instance $687 r0 *1 45.79,54.6
X$687 579 565 13 12 576 NAND2_X1
* cell instance $688 r0 *1 46.36,54.6
X$688 548 576 577 13 578 12 AOI21_X1
* cell instance $691 m0 *1 48.26,57.4
X$691 584 13 12 519 BUF_X1
* cell instance $717 m0 *1 25.65,60.2
X$717 13 596 481 52 516 12 DFF_X2
* cell instance $719 r0 *1 26.03,57.4
X$719 565 13 12 536 INV_X4
* cell instance $720 r0 *1 27.55,57.4
X$720 592 548 13 12 596 NOR2_X1
* cell instance $722 r0 *1 28.12,57.4
X$722 580 549 536 527 13 12 592 AOI22_X1
* cell instance $724 r0 *1 29.83,57.4
X$724 516 12 527 13 BUF_X4
* cell instance $733 m0 *1 32.87,60.2
X$733 13 593 481 73 502 12 DFF_X2
* cell instance $734 r0 *1 33.25,57.4
X$734 581 548 13 12 593 NOR2_X1
* cell instance $739 r0 *1 35.72,57.4
X$739 58 582 13 12 597 XOR2_X1
* cell instance $740 m0 *1 36.48,60.2
X$740 597 549 565 13 12 598 NAND3_X1
* cell instance $741 r0 *1 37.43,57.4
X$741 13 588 481 58 543 12 DFF_X2
* cell instance $745 r0 *1 43.32,57.4
X$745 590 549 565 13 12 591 NAND3_X1
* cell instance $748 m0 *1 37.43,60.2
X$748 543 536 13 12 594 NAND2_X1
* cell instance $749 m0 *1 38,60.2
X$749 548 598 594 13 588 12 AOI21_X1
* cell instance $751 r0 *1 45.22,57.4
X$751 519 536 13 12 589 NAND2_X1
* cell instance $752 r0 *1 44.46,57.4
X$752 548 591 589 13 583 12 AOI21_X1
* cell instance $761 m0 *1 45.22,60.2
X$761 565 595 13 41 12 NAND2_X4
* cell instance $762 m0 *1 46.93,60.2
X$762 595 13 12 548 INV_X2
* cell instance $782 m0 *1 24.32,7
X$782 19 24 34 12 13 35 HA_X1
* cell instance $783 m0 *1 26.22,7
X$783 35 34 20 13 27 12 AOI21_X1
* cell instance $785 m0 *1 27.17,7
X$785 27 28 13 12 25 NOR2_X1
* cell instance $786 m0 *1 27.74,7
X$786 21 13 12 28 INV_X1
* cell instance $788 m0 *1 28.5,7
X$788 52 15 21 12 13 37 HA_X1
* cell instance $790 r0 *1 29.26,4.2
X$790 18 13 12 53 INV_X2
* cell instance $791 r0 *1 29.83,4.2
X$791 18 15 615 12 13 65 HA_X1
* cell instance $796 r0 *1 32.87,4.2
X$796 13 17 46 22 12 DFF_X1
* cell instance $805 m0 *1 34.2,7
X$805 13 16 45 22 12 DFF_X1
* cell instance $809 m0 *1 41.61,7
X$809 31 13 12 30 INV_X2
* cell instance $810 m0 *1 42.18,7
X$810 31 23 605 12 13 33 HA_X1
* cell instance $831 m0 *1 14.44,43.4
X$831 165 443 604 12 13 448 HA_X1
* cell instance $832 m0 *1 16.34,43.4
X$832 186 443 449 12 13 459 HA_X1
* cell instance $833 m0 *1 18.24,43.4
X$833 459 13 12 445 INV_X1
* cell instance $834 m0 *1 18.62,43.4
X$834 433 446 12 13 450 AND2_X1
* cell instance $836 m0 *1 19.57,43.4
X$836 138 412 433 12 13 451 HA_X1
* cell instance $837 r0 *1 20.9,40.6
X$837 423 368 446 12 13 434 HA_X1
* cell instance $839 r0 *1 22.8,40.6
X$839 94 13 12 423 INV_X1
* cell instance $844 r0 *1 31.73,40.6
X$844 424 395 432 12 13 425 HA_X1
* cell instance $847 m0 *1 21.47,43.4
X$847 434 446 451 13 462 12 AOI21_X1
* cell instance $849 m0 *1 25.27,43.4
X$849 465 435 462 13 469 12 AOI21_X1
* cell instance $852 m0 *1 28.31,43.4
X$852 436 326 466 12 13 447 HA_X1
* cell instance $853 m0 *1 30.21,43.4
X$853 466 13 12 467 INV_X1
* cell instance $855 m0 *1 30.78,43.4
X$855 467 438 13 12 465 OR2_X1
* cell instance $856 m0 *1 31.54,43.4
X$856 425 447 13 12 437 NOR2_X1
* cell instance $857 m0 *1 32.11,43.4
X$857 437 438 13 12 468 NOR2_X1
* cell instance $859 m0 *1 32.87,43.4
X$859 432 425 470 12 438 13 OAI21_X1
* cell instance $863 m0 *1 34.96,43.4
X$863 468 469 471 13 12 413 NOR3_X1
* cell instance $864 r0 *1 35.72,40.6
X$864 426 13 12 198 INV_X2
* cell instance $868 r0 *1 38,40.6
X$868 440 13 12 196 INV_X2
* cell instance $871 r0 *1 45.41,40.6
X$871 291 278 13 12 416 NAND2_X2
* cell instance $874 r0 *1 48.07,40.6
X$874 172 416 427 12 430 13 OAI21_X1
* cell instance $875 r0 *1 48.83,40.6
X$875 444 430 442 13 429 12 AOI21_X1
* cell instance $881 m0 *1 35.72,43.4
X$881 439 329 470 12 13 471 HA_X1
* cell instance $882 m0 *1 37.62,43.4
X$882 395 440 472 12 13 452 HA_X1
* cell instance $886 m0 *1 46.17,43.4
X$886 216 416 427 13 460 12 AOI21_X1
* cell instance $887 m0 *1 46.93,43.4
X$887 453 216 456 296 454 13 12 444 AOI221_X1
* cell instance $888 m0 *1 48.07,43.4
X$888 416 453 13 12 461 NOR2_X1
* cell instance $889 m0 *1 48.64,43.4
X$889 460 455 359 457 461 458 12 13 AOI221_X2
* cell instance $893 r0 *1 61.37,40.6
X$893 418 13 12 428 BUF_X1
* cell instance $932 m0 *1 45.98,68.6
X$932 600 13 12 595 CLKBUF_X2
* cell instance $961 r0 *1 17.48,49
X$961 13 513 481 138 92 12 DFF_X2
* cell instance $968 m0 *1 19.57,51.8
X$968 165 92 474 12 13 526 HA_X1
* cell instance $970 r0 *1 23.18,49
X$970 526 19 12 515 13 XOR2_X2
* cell instance $974 m0 *1 25.27,51.8
X$974 514 13 12 537 CLKBUF_X2
* cell instance $976 r0 *1 25.27,49
X$976 92 19 94 12 13 541 HA_X1
* cell instance $979 m0 *1 26.98,51.8
X$979 541 165 13 12 558 NAND2_X1
* cell instance $980 r0 *1 27.74,49
X$980 538 52 12 436 13 XOR2_X2
* cell instance $986 m0 *1 28.12,51.8
X$986 537 165 541 13 546 12 AOI21_X1
* cell instance $988 m0 *1 29.26,51.8
X$988 527 92 537 13 544 12 AOI21_X1
* cell instance $989 m0 *1 30.02,51.8
X$989 527 526 537 12 13 534 OAI21_X2
* cell instance $991 m0 *1 32.87,51.8
X$991 527 539 13 12 547 NAND2_X1
* cell instance $992 m0 *1 33.44,51.8
X$992 546 547 73 12 535 13 OAI21_X1
* cell instance $993 m0 *1 34.2,51.8
X$993 528 535 13 12 426 XNOR2_X2
* cell instance $995 r0 *1 35.91,49
X$995 73 534 13 12 440 XNOR2_X2
* cell instance $997 m0 *1 36.1,51.8
X$997 528 534 539 13 532 12 AOI21_X2
* cell instance $998 m0 *1 37.43,51.8
X$998 544 545 58 12 533 13 OAI21_X1
* cell instance $1001 r0 *1 38.95,49
X$1001 525 533 13 12 162 XNOR2_X2
* cell instance $1003 r0 *1 45.41,49
X$1003 519 13 12 518 INV_X1
* cell instance $1004 r0 *1 45.79,49
X$1004 400 518 13 12 531 NAND2_X1
* cell instance $1006 r0 *1 46.55,49
X$1006 400 519 13 12 540 NAND2_X1
* cell instance $1008 r0 *1 47.31,49
X$1008 519 530 12 13 441 XNOR2_X1
* cell instance $1014 m0 *1 39.71,51.8
X$1014 107 542 13 12 114 XNOR2_X2
* cell instance $1015 m0 *1 41.61,51.8
X$1015 73 13 12 562 INV_X1
* cell instance $1019 m0 *1 43.32,51.8
X$1019 529 532 13 12 453 XNOR2_X2
* cell instance $1021 m0 *1 45.41,51.8
X$1021 81 13 12 529 INV_X1
* cell instance $1023 m0 *1 45.98,51.8
X$1023 531 530 540 13 12 456 MUX2_X1
* cell instance $1045 r0 *1 15.58,43.4
X$1045 448 449 13 12 497 NAND2_X1
* cell instance $1050 m0 *1 16.34,46.2
X$1050 484 473 497 13 463 12 AOI21_X1
* cell instance $1051 r0 *1 18.43,43.4
X$1051 433 13 12 475 INV_X1
* cell instance $1052 r0 *1 16.53,43.4
X$1052 412 474 473 12 13 498 HA_X1
* cell instance $1053 r0 *1 18.81,43.4
X$1053 449 445 450 12 435 13 OAI21_X1
* cell instance $1054 r0 *1 19.57,43.4
X$1054 92 412 609 12 13 477 HA_X1
* cell instance $1057 r0 *1 22.42,43.4
X$1057 368 515 487 12 13 478 HA_X1
* cell instance $1059 r0 *1 24.51,43.4
X$1059 478 487 464 12 488 13 OAI21_X1
* cell instance $1060 r0 *1 25.27,43.4
X$1060 463 488 489 12 480 13 OAI21_X1
* cell instance $1061 r0 *1 26.03,43.4
X$1061 326 490 464 12 13 491 HA_X1
* cell instance $1062 r0 *1 27.93,43.4
X$1062 491 13 12 489 INV_X1
* cell instance $1065 m0 *1 17.48,46.2
X$1065 498 478 13 12 484 OR2_X1
* cell instance $1067 m0 *1 18.62,46.2
X$1067 475 476 445 449 486 13 12 OAI211_X2
* cell instance $1068 m0 *1 20.33,46.2
X$1068 514 368 476 12 13 499 HA_X1
* cell instance $1069 m0 *1 22.23,46.2
X$1069 499 476 477 13 507 12 AOI21_X1
* cell instance $1070 m0 *1 22.99,46.2
X$1070 492 486 507 13 501 12 AOI21_X2
* cell instance $1076 r0 *1 28.69,43.4
X$1076 490 13 12 189 INV_X2
* cell instance $1080 r0 *1 34.77,43.4
X$1080 318 13 12 481 CLKBUF_X3
* cell instance $1081 r0 *1 35.72,43.4
X$1081 329 426 496 12 13 482 HA_X1
* cell instance $1083 r0 *1 37.81,43.4
X$1083 480 483 482 496 452 427 12 13 AOI221_X2
* cell instance $1087 m0 *1 28.69,46.2
X$1087 516 326 510 12 13 509 HA_X1
* cell instance $1088 m0 *1 30.59,46.2
X$1088 479 500 510 13 12 492 NAND3_X1
* cell instance $1093 m0 *1 31.73,46.2
X$1093 509 479 500 13 12 493 NAND3_X1
* cell instance $1095 m0 *1 32.87,46.2
X$1095 502 395 500 12 13 495 HA_X1
* cell instance $1096 m0 *1 34.77,46.2
X$1096 493 511 13 12 494 NAND2_X1
* cell instance $1097 m0 *1 35.34,46.2
X$1097 512 479 495 13 511 12 AOI21_X1
* cell instance $1098 m0 *1 36.1,46.2
X$1098 543 329 479 12 13 512 HA_X1
* cell instance $1099 m0 *1 38,46.2
X$1099 496 472 13 12 503 NAND2_X1
* cell instance $1100 m0 *1 38.57,46.2
X$1100 503 13 12 483 INV_X1
* cell instance $1105 m0 *1 44.46,46.2
X$1105 278 291 494 501 485 13 12 OAI211_X2
* cell instance $1106 m0 *1 46.17,46.2
X$1106 494 501 291 278 508 12 13 AOI211_X2
* cell instance $1107 r0 *1 47.31,43.4
X$1107 453 291 278 13 454 12 AOI21_X1
* cell instance $1109 r0 *1 48.07,43.4
X$1109 454 41 441 13 12 442 NOR3_X1
* cell instance $1110 r0 *1 48.83,43.4
X$1110 453 13 12 172 INV_X2
* cell instance $1111 r0 *1 49.4,43.4
X$1111 456 172 13 12 455 NOR2_X1
* cell instance $1112 r0 *1 49.97,43.4
X$1112 427 456 13 12 457 NOR2_X1
* cell instance $1117 m0 *1 47.88,46.2
X$1117 81 508 485 12 505 13 OAI21_X1
* cell instance $1160 r0 *1 24.89,12.6
X$1160 115 94 108 12 13 109 HA_X1
* cell instance $1161 r0 *1 26.79,12.6
X$1161 96 95 108 12 13 140 AND3_X1
* cell instance $1162 r0 *1 27.74,12.6
X$1162 110 96 109 13 116 12 AOI21_X1
* cell instance $1163 r0 *1 28.5,12.6
X$1163 53 97 96 12 13 110 HA_X1
* cell instance $1167 r0 *1 32.87,12.6
X$1167 30 102 95 12 13 119 HA_X1
* cell instance $1168 r0 *1 34.77,12.6
X$1168 58 130 111 12 13 124 HA_X1
* cell instance $1178 m0 *1 24.32,15.4
X$1178 19 115 126 12 13 133 HA_X1
* cell instance $1180 m0 *1 26.6,15.4
X$1180 133 126 131 13 152 12 AOI21_X1
* cell instance $1182 m0 *1 27.74,15.4
X$1182 95 13 12 127 INV_X1
* cell instance $1183 m0 *1 28.12,15.4
X$1183 127 116 151 12 118 13 OAI21_X1
* cell instance $1184 m0 *1 28.88,15.4
X$1184 126 117 141 13 12 125 NAND3_X1
* cell instance $1185 m0 *1 29.64,15.4
X$1185 101 152 125 13 135 12 AOI21_X1
* cell instance $1186 m0 *1 30.4,15.4
X$1186 126 117 13 12 136 NAND2_X1
* cell instance $1191 m0 *1 31.16,15.4
X$1191 124 99 135 128 101 136 13 12 147 OAI33_X1
* cell instance $1194 m0 *1 33.44,15.4
X$1194 134 117 128 13 12 129 NOR3_X1
* cell instance $1195 m0 *1 34.2,15.4
X$1195 119 118 132 12 149 13 OAI21_X1
* cell instance $1196 m0 *1 34.96,15.4
X$1196 132 13 12 134 INV_X1
* cell instance $1199 m0 *1 36.29,15.4
X$1199 121 13 12 150 INV_X1
* cell instance $1201 m0 *1 36.86,15.4
X$1201 130 122 132 12 13 121 HA_X1
* cell instance $1213 r0 *1 61.56,12.6
X$1213 123 13 12 105 CLKBUF_X3
* cell instance $1225 r0 *1 16.53,35
X$1225 323 166 388 12 13 390 HA_X1
* cell instance $1227 r0 *1 19.19,35
X$1227 367 311 13 12 407 NOR2_X1
* cell instance $1228 r0 *1 19.76,35
X$1228 311 353 13 12 391 NOR2_X1
* cell instance $1229 r0 *1 20.33,35
X$1229 391 340 312 12 380 13 OAI21_X1
* cell instance $1230 r0 *1 21.09,35
X$1230 367 13 12 381 INV_X1
* cell instance $1231 r0 *1 21.47,35
X$1231 341 381 13 12 382 NAND2_X1
* cell instance $1233 r0 *1 22.23,35
X$1233 357 13 12 384 INV_X1
* cell instance $1236 r0 *1 23.56,35
X$1236 309 200 369 12 13 406 HA_X1
* cell instance $1238 r0 *1 25.65,35
X$1238 369 13 12 392 INV_X1
* cell instance $1239 r0 *1 26.03,35
X$1239 383 336 384 13 363 12 AOI21_X1
* cell instance $1246 m0 *1 15.77,37.8
X$1246 186 321 367 12 13 401 HA_X1
* cell instance $1247 m0 *1 17.67,37.8
X$1247 401 13 12 389 INV_X1
* cell instance $1248 m0 *1 18.05,37.8
X$1248 390 388 389 13 403 12 AOI21_X1
* cell instance $1251 m0 *1 19.95,37.8
X$1251 388 367 13 12 399 NAND2_X1
* cell instance $1255 m0 *1 25.27,37.8
X$1255 406 13 12 393 INV_X1
* cell instance $1256 m0 *1 25.65,37.8
X$1256 392 403 393 12 394 13 OAI21_X1
* cell instance $1259 r0 *1 27.36,35
X$1259 407 312 343 327 13 12 405 NAND4_X1
* cell instance $1260 r0 *1 28.31,35
X$1260 370 13 12 383 INV_X1
* cell instance $1261 r0 *1 28.69,35
X$1261 97 328 370 12 13 345 HA_X1
* cell instance $1263 r0 *1 31.35,35
X$1263 375 364 365 370 13 12 397 NAND4_X1
* cell instance $1266 r0 *1 34.01,35
X$1266 376 369 346 396 13 12 398 NAND4_X1
* cell instance $1267 r0 *1 34.96,35
X$1267 346 13 12 387 INV_X1
* cell instance $1268 r0 *1 35.34,35
X$1268 371 387 372 12 374 13 OAI21_X1
* cell instance $1269 r0 *1 36.1,35
X$1269 373 13 12 372 INV_X1
* cell instance $1273 r0 *1 40.47,35
X$1273 361 375 385 347 358 410 12 13 AOI221_X2
* cell instance $1277 r0 *1 47.31,35
X$1277 332 334 317 12 431 13 OAI21_X1
* cell instance $1278 r0 *1 48.07,35
X$1278 376 374 349 348 379 420 12 13 AOI221_X2
* cell instance $1279 r0 *1 50.16,35
X$1279 350 13 12 379 INV_X1
* cell instance $1287 m0 *1 29.26,37.8
X$1287 328 189 396 12 13 411 HA_X1
* cell instance $1291 m0 *1 31.16,37.8
X$1291 411 396 394 13 371 12 AOI21_X1
* cell instance $1294 m0 *1 32.49,37.8
X$1294 424 13 12 102 INV_X2
* cell instance $1296 m0 *1 33.44,37.8
X$1296 397 382 400 12 408 13 OAI21_X1
* cell instance $1299 m0 *1 35.34,37.8
X$1299 398 399 400 12 404 13 OAI21_X1
* cell instance $1303 m0 *1 41.04,37.8
X$1303 169 409 414 410 408 12 13 402 OAI221_X1
* cell instance $1307 m0 *1 46.93,37.8
X$1307 332 405 13 12 417 OR2_X1
* cell instance $1311 m0 *1 52.63,37.8
X$1311 13 378 402 22 12 DFF_X1
* cell instance $1314 r0 *1 61.56,35
X$1314 378 13 12 377 BUF_X1
* cell instance $1328 r0 *1 28.88,21
X$1328 220 13 12 226 INV_X1
* cell instance $1336 m0 *1 6.65,23.8
X$1336 223 13 12 187 BUF_X2
* cell instance $1338 m0 *1 7.6,23.8
X$1338 203 13 12 204 BUF_X1
* cell instance $1343 m0 *1 27.93,23.8
X$1343 235 13 12 228 BUF_X2
* cell instance $1348 r0 *1 33.44,21
X$1348 205 206 222 12 207 13 OAI21_X1
* cell instance $1349 r0 *1 34.2,21
X$1349 13 207 194 206 208 209 210 216 12 OAI222_X2
* cell instance $1355 r0 *1 45.03,21
X$1355 213 13 12 130 INV_X2
* cell instance $1359 m0 *1 38.19,23.8
X$1359 238 13 12 244 BUF_X2
* cell instance $1362 m0 *1 42.37,23.8
X$1362 236 13 12 230 BUF_X2
* cell instance $1364 m0 *1 43.51,23.8
X$1364 211 212 13 12 247 NOR2_X1
* cell instance $1365 m0 *1 44.08,23.8
X$1365 211 13 12 234 INV_X1
* cell instance $1368 m0 *1 45.03,23.8
X$1368 230 212 13 12 231 NAND2_X1
* cell instance $1369 m0 *1 45.6,23.8
X$1369 232 13 12 233 INV_X1
* cell instance $1377 r0 *1 61.37,21
X$1377 214 13 12 213 BUF_X1
* cell instance $1388 r0 *1 10.45,23.8
X$1388 187 204 613 12 13 250 HA_X1
* cell instance $1389 r0 *1 12.35,23.8
X$1389 204 13 12 185 INV_X1
* cell instance $1392 r0 *1 15.01,23.8
X$1392 187 185 321 12 13 261 HA_X1
* cell instance $1395 r0 *1 21.47,23.8
X$1395 115 24 224 12 13 240 HA_X1
* cell instance $1396 r0 *1 23.37,23.8
X$1396 239 13 12 115 INV_X2
* cell instance $1397 r0 *1 23.94,23.8
X$1397 239 24 607 12 13 241 HA_X1
* cell instance $1401 r0 *1 28.31,23.8
X$1401 228 13 12 242 INV_X2
* cell instance $1402 r0 *1 28.88,23.8
X$1402 242 225 226 12 237 13 OAI21_X1
* cell instance $1403 r0 *1 29.64,23.8
X$1403 65 241 242 13 272 12 AOI21_X1
* cell instance $1406 r0 *1 31.35,23.8
X$1406 227 228 244 13 12 255 OR3_X1
* cell instance $1410 r0 *1 42.18,23.8
X$1410 230 13 12 245 INV_X1
* cell instance $1412 r0 *1 42.75,23.8
X$1412 230 197 233 12 246 13 OAI21_X1
* cell instance $1413 r0 *1 43.51,23.8
X$1413 232 245 212 12 254 13 OAI21_X1
* cell instance $1414 r0 *1 44.27,23.8
X$1414 212 230 13 12 251 OR2_X1
* cell instance $1415 r0 *1 45.03,23.8
X$1415 248 105 13 12 252 NOR2_X1
* cell instance $1416 r0 *1 45.6,23.8
X$1416 232 231 251 197 12 13 249 OAI22_X2
* cell instance $1429 m0 *1 11.78,26.6
X$1429 258 259 260 12 13 243 OAI21_X2
* cell instance $1430 m0 *1 13.11,26.6
X$1430 250 13 12 259 INV_X1
* cell instance $1431 m0 *1 13.49,26.6
X$1431 260 13 12 267 INV_X1
* cell instance $1432 m0 *1 13.87,26.6
X$1432 155 93 260 12 13 266 HA_X1
* cell instance $1433 m0 *1 15.77,26.6
X$1433 266 13 12 268 INV_X1
* cell instance $1435 m0 *1 16.53,26.6
X$1435 267 261 268 12 253 13 OAI21_X1
* cell instance $1441 m0 *1 23.18,26.6
X$1441 240 227 253 13 225 12 AOI21_X2
* cell instance $1444 m0 *1 27.93,26.6
X$1444 226 242 281 12 13 271 OAI21_X2
* cell instance $1445 m0 *1 29.26,26.6
X$1445 241 65 13 12 282 OR2_X1
* cell instance $1447 m0 *1 30.4,26.6
X$1447 244 228 227 12 262 13 NOR3_X2
* cell instance $1452 m0 *1 31.92,26.6
X$1452 272 244 255 269 257 256 13 12 OAI221_X2
* cell instance $1453 m0 *1 34.01,26.6
X$1453 244 13 12 274 INV_X2
* cell instance $1457 m0 *1 38.76,26.6
X$1457 229 244 271 13 264 12 AOI21_X1
* cell instance $1458 m0 *1 39.52,26.6
X$1458 229 244 237 13 270 12 AOI21_X2
* cell instance $1460 m0 *1 41.04,26.6
X$1460 105 197 233 12 13 257 AND3_X1
* cell instance $1461 m0 *1 41.99,26.6
X$1461 105 254 246 252 13 12 263 AOI22_X2
* cell instance $1462 m0 *1 43.7,26.6
X$1462 22 13 12 601 INV_X1
* cell instance $1463 m0 *1 44.08,26.6
X$1463 318 13 12 22 CLKBUF_X3
* cell instance $1464 m0 *1 45.03,26.6
X$1464 245 264 234 12 280 13 OAI21_X1
* cell instance $1465 m0 *1 45.79,26.6
X$1465 233 197 212 13 12 265 NAND3_X1
* cell instance $1466 m0 *1 46.55,26.6
X$1466 13 291 249 248 232 12 AOI21_X4
* cell instance $1482 m0 *1 15.01,18.2
X$1482 186 185 69 12 13 176 HA_X1
* cell instance $1483 r0 *1 18.05,15.4
X$1483 137 13 12 177 INV_X1
* cell instance $1484 r0 *1 16.15,15.4
X$1484 93 166 137 12 13 153 HA_X1
* cell instance $1485 r0 *1 18.43,15.4
X$1485 153 13 12 154 INV_X1
* cell instance $1486 r0 *1 18.81,15.4
X$1486 92 155 610 12 13 148 HA_X1
* cell instance $1487 r0 *1 20.71,15.4
X$1487 138 155 117 12 13 131 HA_X1
* cell instance $1493 m0 *1 18.24,18.2
X$1493 177 176 154 12 179 13 OAI21_X1
* cell instance $1496 m0 *1 20.71,18.2
X$1496 201 167 179 13 180 12 AOI21_X1
* cell instance $1499 m0 *1 22.04,18.2
X$1499 180 181 13 12 156 NOR2_X1
* cell instance $1500 m0 *1 22.61,18.2
X$1500 168 13 12 181 INV_X1
* cell instance $1501 m0 *1 22.99,18.2
X$1501 69 168 167 137 12 13 164 AND4_X1
* cell instance $1502 r0 *1 23.94,15.4
X$1502 117 139 13 12 157 NOR2_X1
* cell instance $1504 r0 *1 24.51,15.4
X$1504 148 157 140 12 151 13 OAI21_X1
* cell instance $1507 r0 *1 29.07,15.4
X$1507 139 13 12 141 INV_X1
* cell instance $1514 m0 *1 28.31,18.2
X$1514 15 189 168 12 13 184 HA_X1
* cell instance $1517 m0 *1 30.78,18.2
X$1517 184 156 158 12 183 13 OAI21_X1
* cell instance $1523 r0 *1 33.63,15.4
X$1523 140 129 150 149 13 12 163 AOI22_X1
* cell instance $1527 m0 *1 37.62,18.2