* CDL Netlist generated by OpenROAD

*.BUSDELIMITER [

.SUBCKT axi_lite_master araddr[0] araddr[10] araddr[11] araddr[12]
+ araddr[13] araddr[14] araddr[15] araddr[16] araddr[17] araddr[18]
+ araddr[19] araddr[1] araddr[20] araddr[21] araddr[22] araddr[23]
+ araddr[24] araddr[25] araddr[26] araddr[27] araddr[28] araddr[29]
+ araddr[2] araddr[30] araddr[31] araddr[3] araddr[4] araddr[5]
+ araddr[6] araddr[7] araddr[8] araddr[9] arready arvalid awaddr[0]
+ awaddr[10] awaddr[11] awaddr[12] awaddr[13] awaddr[14] awaddr[15]
+ awaddr[16] awaddr[17] awaddr[18] awaddr[19] awaddr[1] awaddr[20]
+ awaddr[21] awaddr[22] awaddr[23] awaddr[24] awaddr[25] awaddr[26]
+ awaddr[27] awaddr[28] awaddr[29] awaddr[2] awaddr[30] awaddr[31]
+ awaddr[3] awaddr[4] awaddr[5] awaddr[6] awaddr[7] awaddr[8]
+ awaddr[9] awready awvalid bready bresp[0] bresp[1] bvalid
+ clk rdata[0] rdata[10] rdata[11] rdata[12] rdata[13] rdata[14]
+ rdata[15] rdata[16] rdata[17] rdata[18] rdata[19] rdata[1]
+ rdata[20] rdata[21] rdata[22] rdata[23] rdata[24] rdata[25]
+ rdata[26] rdata[27] rdata[28] rdata[29] rdata[2] rdata[30]
+ rdata[31] rdata[3] rdata[4] rdata[5] rdata[6] rdata[7] rdata[8]
+ rdata[9] read_addr[0] read_addr[10] read_addr[11] read_addr[12]
+ read_addr[13] read_addr[14] read_addr[15] read_addr[16] read_addr[17]
+ read_addr[18] read_addr[19] read_addr[1] read_addr[20] read_addr[21]
+ read_addr[22] read_addr[23] read_addr[24] read_addr[25] read_addr[26]
+ read_addr[27] read_addr[28] read_addr[29] read_addr[2] read_addr[30]
+ read_addr[31] read_addr[3] read_addr[4] read_addr[5] read_addr[6]
+ read_addr[7] read_addr[8] read_addr[9] read_data[0] read_data[10]
+ read_data[11] read_data[12] read_data[13] read_data[14] read_data[15]
+ read_data[16] read_data[17] read_data[18] read_data[19] read_data[1]
+ read_data[20] read_data[21] read_data[22] read_data[23] read_data[24]
+ read_data[25] read_data[26] read_data[27] read_data[28] read_data[29]
+ read_data[2] read_data[30] read_data[31] read_data[3] read_data[4]
+ read_data[5] read_data[6] read_data[7] read_data[8] read_data[9]
+ read_done read_req rready rresp[0] rresp[1] rst_n rvalid wdata[0]
+ wdata[10] wdata[11] wdata[12] wdata[13] wdata[14] wdata[15]
+ wdata[16] wdata[17] wdata[18] wdata[19] wdata[1] wdata[20]
+ wdata[21] wdata[22] wdata[23] wdata[24] wdata[25] wdata[26]
+ wdata[27] wdata[28] wdata[29] wdata[2] wdata[30] wdata[31]
+ wdata[3] wdata[4] wdata[5] wdata[6] wdata[7] wdata[8] wdata[9]
+ wready write_addr[0] write_addr[10] write_addr[11] write_addr[12]
+ write_addr[13] write_addr[14] write_addr[15] write_addr[16]
+ write_addr[17] write_addr[18] write_addr[19] write_addr[1]
+ write_addr[20] write_addr[21] write_addr[22] write_addr[23]
+ write_addr[24] write_addr[25] write_addr[26] write_addr[27]
+ write_addr[28] write_addr[29] write_addr[2] write_addr[30]
+ write_addr[31] write_addr[3] write_addr[4] write_addr[5] write_addr[6]
+ write_addr[7] write_addr[8] write_addr[9] write_data[0] write_data[10]
+ write_data[11] write_data[12] write_data[13] write_data[14]
+ write_data[15] write_data[16] write_data[17] write_data[18]
+ write_data[19] write_data[1] write_data[20] write_data[21]
+ write_data[22] write_data[23] write_data[24] write_data[25]
+ write_data[26] write_data[27] write_data[28] write_data[29]
+ write_data[2] write_data[30] write_data[31] write_data[3]
+ write_data[4] write_data[5] write_data[6] write_data[7] write_data[8]
+ write_data[9] write_done write_req write_strb[0] write_strb[1]
+ write_strb[2] write_strb[3] wstrb[0] wstrb[1] wstrb[2] wstrb[3]
+ wvalid
X_207_ state_r\[0\] VSS VSS VDD VDD _142_ sky130_fd_sc_hd__buf_2
X_208_ state_r\[2\] state_r\[1\] _142_ VSS VSS VDD VDD _143_
+ sky130_fd_sc_hd__nor3_1
X_209_ net69 _143_ VSS VSS VDD VDD _144_ sky130_fd_sc_hd__and2_0
X_210_ _144_ VSS VSS VDD VDD _145_ sky130_fd_sc_hd__clkbuf_2
X_211_ _145_ VSS VSS VDD VDD _146_ sky130_fd_sc_hd__buf_4
X_212_ net141 net37 _146_ VSS VSS VDD VDD _000_ sky130_fd_sc_hd__mux2_1
X_213_ net142 net38 _146_ VSS VSS VDD VDD _001_ sky130_fd_sc_hd__mux2_1
X_214_ net143 net39 _146_ VSS VSS VDD VDD _002_ sky130_fd_sc_hd__mux2_1
X_215_ net144 net40 _146_ VSS VSS VDD VDD _003_ sky130_fd_sc_hd__mux2_1
X_216_ net145 net41 _146_ VSS VSS VDD VDD _004_ sky130_fd_sc_hd__mux2_1
X_217_ net146 net42 _146_ VSS VSS VDD VDD _005_ sky130_fd_sc_hd__mux2_1
X_218_ net147 net43 _146_ VSS VSS VDD VDD _006_ sky130_fd_sc_hd__mux2_1
X_219_ net148 net44 _146_ VSS VSS VDD VDD _007_ sky130_fd_sc_hd__mux2_1
X_220_ net149 net45 _146_ VSS VSS VDD VDD _008_ sky130_fd_sc_hd__mux2_1
X_221_ net150 net46 _146_ VSS VSS VDD VDD _009_ sky130_fd_sc_hd__mux2_1
X_222_ _145_ VSS VSS VDD VDD _147_ sky130_fd_sc_hd__buf_4
X_223_ net151 net47 _147_ VSS VSS VDD VDD _010_ sky130_fd_sc_hd__mux2_1
X_224_ net152 net48 _147_ VSS VSS VDD VDD _011_ sky130_fd_sc_hd__mux2_1
X_225_ net153 net49 _147_ VSS VSS VDD VDD _012_ sky130_fd_sc_hd__mux2_1
X_226_ net154 net50 _147_ VSS VSS VDD VDD _013_ sky130_fd_sc_hd__mux2_1
X_227_ net155 net51 _147_ VSS VSS VDD VDD _014_ sky130_fd_sc_hd__mux2_1
X_228_ net156 net52 _147_ VSS VSS VDD VDD _015_ sky130_fd_sc_hd__mux2_1
X_229_ net157 net53 _147_ VSS VSS VDD VDD _016_ sky130_fd_sc_hd__mux2_1
X_230_ net158 net54 _147_ VSS VSS VDD VDD _017_ sky130_fd_sc_hd__mux2_1
X_231_ net159 net55 _147_ VSS VSS VDD VDD _018_ sky130_fd_sc_hd__mux2_1
X_232_ net160 net56 _147_ VSS VSS VDD VDD _019_ sky130_fd_sc_hd__mux2_1
X_233_ _145_ VSS VSS VDD VDD _148_ sky130_fd_sc_hd__buf_4
X_234_ net161 net57 _148_ VSS VSS VDD VDD _020_ sky130_fd_sc_hd__mux2_1
X_235_ net162 net58 _148_ VSS VSS VDD VDD _021_ sky130_fd_sc_hd__mux2_1
X_236_ net163 net59 _148_ VSS VSS VDD VDD _022_ sky130_fd_sc_hd__mux2_1
X_237_ net164 net60 _148_ VSS VSS VDD VDD _023_ sky130_fd_sc_hd__mux2_1
X_238_ net165 net61 _148_ VSS VSS VDD VDD _024_ sky130_fd_sc_hd__mux2_1
X_239_ net166 net62 _148_ VSS VSS VDD VDD _025_ sky130_fd_sc_hd__mux2_1
X_240_ net167 net63 _148_ VSS VSS VDD VDD _026_ sky130_fd_sc_hd__mux2_1
X_241_ net168 net64 _148_ VSS VSS VDD VDD _027_ sky130_fd_sc_hd__mux2_1
X_242_ net169 net65 _148_ VSS VSS VDD VDD _028_ sky130_fd_sc_hd__mux2_1
X_243_ net170 net66 _148_ VSS VSS VDD VDD _029_ sky130_fd_sc_hd__mux2_1
X_244_ net171 net67 _145_ VSS VSS VDD VDD _030_ sky130_fd_sc_hd__mux2_1
X_245_ net172 net68 _145_ VSS VSS VDD VDD _031_ sky130_fd_sc_hd__mux2_1
X_246_ state_r\[2\] VSS VSS VDD VDD _149_ sky130_fd_sc_hd__buf_2
X_247_ _149_ VSS VSS VDD VDD _150_ sky130_fd_sc_hd__buf_2
X_248_ state_r\[1\] VSS VSS VDD VDD _151_ sky130_fd_sc_hd__buf_2
X_249_ _142_ VSS VSS VDD VDD _152_ sky130_fd_sc_hd__buf_2
X_250_ _151_ _152_ VSS VSS VDD VDD _153_ sky130_fd_sc_hd__nor2_1
X_251_ net69 _153_ net173 VSS VSS VDD VDD _154_ sky130_fd_sc_hd__a21oi_1
X_252_ state_r\[1\] VSS VSS VDD VDD _155_ sky130_fd_sc_hd__inv_1
X_253_ _142_ net2 VSS VSS VDD VDD _156_ sky130_fd_sc_hd__nand2b_1
X_254_ _155_ net173 _156_ VSS VSS VDD VDD _157_ sky130_fd_sc_hd__nand3_1
X_255_ _150_ _154_ _157_ VSS VSS VDD VDD _032_ sky130_fd_sc_hd__o21ai_0
X_256_ net136 _143_ VSS VSS VDD VDD _158_ sky130_fd_sc_hd__and2_0
X_257_ _158_ VSS VSS VDD VDD _159_ sky130_fd_sc_hd__clkbuf_2
X_258_ _159_ VSS VSS VDD VDD _160_ sky130_fd_sc_hd__buf_6
X_259_ _160_ VSS VSS VDD VDD _161_ sky130_fd_sc_hd__buf_6
X_260_ net174 net72 _161_ VSS VSS VDD VDD _033_ sky130_fd_sc_hd__mux2_1
X_261_ net175 net73 _161_ VSS VSS VDD VDD _034_ sky130_fd_sc_hd__mux2_1
X_262_ net176 net74 _161_ VSS VSS VDD VDD _035_ sky130_fd_sc_hd__mux2_1
X_263_ net177 net75 _161_ VSS VSS VDD VDD _036_ sky130_fd_sc_hd__mux2_1
X_264_ net178 net76 _161_ VSS VSS VDD VDD _037_ sky130_fd_sc_hd__mux2_1
X_265_ net179 net77 _161_ VSS VSS VDD VDD _038_ sky130_fd_sc_hd__mux2_1
X_266_ net180 net78 _161_ VSS VSS VDD VDD _039_ sky130_fd_sc_hd__mux2_1
X_267_ net181 net79 _161_ VSS VSS VDD VDD _040_ sky130_fd_sc_hd__mux2_1
X_268_ net182 net80 _161_ VSS VSS VDD VDD _041_ sky130_fd_sc_hd__mux2_1
X_269_ net183 net81 _161_ VSS VSS VDD VDD _042_ sky130_fd_sc_hd__mux2_1
X_270_ _160_ VSS VSS VDD VDD _162_ sky130_fd_sc_hd__buf_6
X_271_ net184 net82 _162_ VSS VSS VDD VDD _043_ sky130_fd_sc_hd__mux2_1
X_272_ net185 net83 _162_ VSS VSS VDD VDD _044_ sky130_fd_sc_hd__mux2_1
X_273_ net186 net84 _162_ VSS VSS VDD VDD _045_ sky130_fd_sc_hd__mux2_1
X_274_ net187 net85 _162_ VSS VSS VDD VDD _046_ sky130_fd_sc_hd__mux2_1
X_275_ net188 net86 _162_ VSS VSS VDD VDD _047_ sky130_fd_sc_hd__mux2_1
X_276_ net189 net87 _162_ VSS VSS VDD VDD _048_ sky130_fd_sc_hd__mux2_1
X_277_ net190 net88 _162_ VSS VSS VDD VDD _049_ sky130_fd_sc_hd__mux2_1
X_278_ net191 net89 _162_ VSS VSS VDD VDD _050_ sky130_fd_sc_hd__mux2_1
X_279_ net192 net90 _162_ VSS VSS VDD VDD _051_ sky130_fd_sc_hd__mux2_1
X_280_ net193 net91 _162_ VSS VSS VDD VDD _052_ sky130_fd_sc_hd__mux2_1
X_281_ _159_ VSS VSS VDD VDD _163_ sky130_fd_sc_hd__buf_4
X_282_ net194 net92 _163_ VSS VSS VDD VDD _053_ sky130_fd_sc_hd__mux2_1
X_283_ net195 net93 _163_ VSS VSS VDD VDD _054_ sky130_fd_sc_hd__mux2_1
X_284_ net196 net94 _163_ VSS VSS VDD VDD _055_ sky130_fd_sc_hd__mux2_1
X_285_ net197 net95 _163_ VSS VSS VDD VDD _056_ sky130_fd_sc_hd__mux2_1
X_286_ net198 net96 _163_ VSS VSS VDD VDD _057_ sky130_fd_sc_hd__mux2_1
X_287_ net199 net97 _163_ VSS VSS VDD VDD _058_ sky130_fd_sc_hd__mux2_1
X_288_ net200 net98 _163_ VSS VSS VDD VDD _059_ sky130_fd_sc_hd__mux2_1
X_289_ net201 net99 _163_ VSS VSS VDD VDD _060_ sky130_fd_sc_hd__mux2_1
X_290_ net202 net100 _163_ VSS VSS VDD VDD _061_ sky130_fd_sc_hd__mux2_1
X_291_ net203 net101 _163_ VSS VSS VDD VDD _062_ sky130_fd_sc_hd__mux2_1
X_292_ _159_ VSS VSS VDD VDD _164_ sky130_fd_sc_hd__buf_4
X_293_ net204 net102 _164_ VSS VSS VDD VDD _063_ sky130_fd_sc_hd__mux2_1
X_294_ net205 net103 _164_ VSS VSS VDD VDD _064_ sky130_fd_sc_hd__mux2_1
X_295_ _149_ _152_ VSS VSS VDD VDD _165_ sky130_fd_sc_hd__nor2_1
X_296_ _150_ net206 _165_ net136 VSS VSS VDD VDD _166_ sky130_fd_sc_hd__a22oi_1
X_297_ net206 VSS VSS VDD VDD _167_ sky130_fd_sc_hd__inv_1
X_298_ _155_ _142_ net3 _167_ _149_ VSS VSS VDD VDD _168_
+ sky130_fd_sc_hd__a311o_1
X_299_ _151_ _166_ _168_ VSS VSS VDD VDD _065_ sky130_fd_sc_hd__o21ai_0
X_300_ net4 VSS VSS VDD VDD _169_ sky130_fd_sc_hd__inv_1
X_301_ _151_ net279 net71 net207 VSS VSS VDD VDD _170_ sky130_fd_sc_hd__a31oi_1
X_302_ _152_ _170_ VSS VSS VDD VDD _171_ sky130_fd_sc_hd__nor2_1
X_303_ net207 _169_ _171_ VSS VSS VDD VDD _172_ sky130_fd_sc_hd__a21oi_1
X_304_ _155_ net207 _172_ _150_ VSS VSS VDD VDD _066_ sky130_fd_sc_hd__o2bb2ai_1
X_305_ _142_ net241 net70 VSS VSS VDD VDD _173_ sky130_fd_sc_hd__nand3_2
X_306_ state_r\[1\] _173_ state_r\[2\] VSS VSS VDD VDD _174_
+ sky130_fd_sc_hd__nor3b_4
X_307_ _174_ VSS VSS VDD VDD _175_ sky130_fd_sc_hd__buf_4
X_308_ net208 net5 _175_ VSS VSS VDD VDD _067_ sky130_fd_sc_hd__mux2_1
X_309_ net209 net6 _175_ VSS VSS VDD VDD _068_ sky130_fd_sc_hd__mux2_1
X_310_ net210 net7 _175_ VSS VSS VDD VDD _069_ sky130_fd_sc_hd__mux2_1
X_311_ net211 net8 _175_ VSS VSS VDD VDD _070_ sky130_fd_sc_hd__mux2_1
X_312_ net212 net9 _175_ VSS VSS VDD VDD _071_ sky130_fd_sc_hd__mux2_1
X_313_ net213 net10 _175_ VSS VSS VDD VDD _072_ sky130_fd_sc_hd__mux2_1
X_314_ net214 net11 _175_ VSS VSS VDD VDD _073_ sky130_fd_sc_hd__mux2_1
X_315_ net215 net12 _175_ VSS VSS VDD VDD _074_ sky130_fd_sc_hd__mux2_1
X_316_ net216 net13 _175_ VSS VSS VDD VDD _075_ sky130_fd_sc_hd__mux2_1
X_317_ net217 net14 _175_ VSS VSS VDD VDD _076_ sky130_fd_sc_hd__mux2_1
X_318_ _174_ VSS VSS VDD VDD _176_ sky130_fd_sc_hd__buf_4
X_319_ net218 net15 _176_ VSS VSS VDD VDD _077_ sky130_fd_sc_hd__mux2_1
X_320_ net219 net16 _176_ VSS VSS VDD VDD _078_ sky130_fd_sc_hd__mux2_1
X_321_ net220 net17 _176_ VSS VSS VDD VDD _079_ sky130_fd_sc_hd__mux2_1
X_322_ net221 net18 _176_ VSS VSS VDD VDD _080_ sky130_fd_sc_hd__mux2_1
X_323_ net222 net19 _176_ VSS VSS VDD VDD _081_ sky130_fd_sc_hd__mux2_1
X_324_ net223 net20 _176_ VSS VSS VDD VDD _082_ sky130_fd_sc_hd__mux2_1
X_325_ net224 net21 _176_ VSS VSS VDD VDD _083_ sky130_fd_sc_hd__mux2_1
X_326_ net225 net22 _176_ VSS VSS VDD VDD _084_ sky130_fd_sc_hd__mux2_1
X_327_ net226 net23 _176_ VSS VSS VDD VDD _085_ sky130_fd_sc_hd__mux2_1
X_328_ net227 net24 _176_ VSS VSS VDD VDD _086_ sky130_fd_sc_hd__mux2_1
X_329_ _174_ VSS VSS VDD VDD _177_ sky130_fd_sc_hd__buf_4
X_330_ net228 net25 _177_ VSS VSS VDD VDD _087_ sky130_fd_sc_hd__mux2_1
X_331_ net229 net26 _177_ VSS VSS VDD VDD _088_ sky130_fd_sc_hd__mux2_1
X_332_ net230 net27 _177_ VSS VSS VDD VDD _089_ sky130_fd_sc_hd__mux2_1
X_333_ net231 net28 _177_ VSS VSS VDD VDD _090_ sky130_fd_sc_hd__mux2_1
X_334_ net232 net29 _177_ VSS VSS VDD VDD _091_ sky130_fd_sc_hd__mux2_1
X_335_ net233 net30 _177_ VSS VSS VDD VDD _092_ sky130_fd_sc_hd__mux2_1
X_336_ net234 net31 _177_ VSS VSS VDD VDD _093_ sky130_fd_sc_hd__mux2_1
X_337_ net235 net32 _177_ VSS VSS VDD VDD _094_ sky130_fd_sc_hd__mux2_1
X_338_ net236 net33 _177_ VSS VSS VDD VDD _095_ sky130_fd_sc_hd__mux2_1
X_339_ net237 net34 _177_ VSS VSS VDD VDD _096_ sky130_fd_sc_hd__mux2_1
X_340_ net238 net35 _174_ VSS VSS VDD VDD _097_ sky130_fd_sc_hd__mux2_1
X_341_ net239 net36 _174_ VSS VSS VDD VDD _098_ sky130_fd_sc_hd__mux2_1
X_342_ _155_ _152_ net241 net70 net240 VSS VSS VDD VDD _178_
+ sky130_fd_sc_hd__a41o_1
X_343_ _150_ _178_ VSS VSS VDD VDD _179_ sky130_fd_sc_hd__nand2_1
X_344_ _151_ _152_ net240 VSS VSS VDD VDD _180_ sky130_fd_sc_hd__o21ai_0
X_345_ _179_ _180_ VSS VSS VDD VDD _099_ sky130_fd_sc_hd__nand2_1
X_346_ net241 VSS VSS VDD VDD _181_ sky130_fd_sc_hd__inv_1
X_347_ _149_ net173 net2 net241 VSS VSS VDD VDD _182_ sky130_fd_sc_hd__a31oi_1
X_348_ _181_ net70 _182_ _152_ VSS VSS VDD VDD _183_ sky130_fd_sc_hd__o22a_1
X_349_ _150_ _181_ _183_ _151_ VSS VSS VDD VDD _100_ sky130_fd_sc_hd__o22ai_1
X_350_ _149_ _151_ net136 VSS VSS VDD VDD _184_ sky130_fd_sc_hd__nor3_1
X_351_ _149_ _151_ _152_ _184_ VSS VSS VDD VDD _185_ sky130_fd_sc_hd__a211oi_1
X_352_ net206 net3 _149_ state_r\[1\] VSS VSS VDD VDD _186_
+ sky130_fd_sc_hd__a211oi_1
X_353_ net136 net69 VSS VSS VDD VDD _187_ sky130_fd_sc_hd__nor2_1
X_354_ _142_ _186_ _187_ _143_ VSS VSS VDD VDD _188_ sky130_fd_sc_hd__a22oi_1
X_355_ _142_ net279 net71 VSS VSS VDD VDD _189_ sky130_fd_sc_hd__nand3b_1
X_356_ _142_ net207 net4 VSS VSS VDD VDD _190_ sky130_fd_sc_hd__nand3_1
X_357_ _149_ state_r\[1\] _189_ _190_ VSS VSS VDD VDD _191_
+ sky130_fd_sc_hd__nand4b_1
X_358_ net173 VSS VSS VDD VDD _192_ sky130_fd_sc_hd__inv_1
X_359_ _192_ _156_ _173_ _155_ _149_ VSS VSS VDD VDD _193_
+ sky130_fd_sc_hd__o2111ai_1
X_360_ _188_ _191_ _193_ VSS VSS VDD VDD _194_ sky130_fd_sc_hd__nand3_1
X_361_ _185_ _152_ _194_ VSS VSS VDD VDD _101_ sky130_fd_sc_hd__mux2_1
X_362_ _151_ _152_ VSS VSS VDD VDD _195_ sky130_fd_sc_hd__xnor2_1
X_363_ _150_ _194_ _195_ _191_ VSS VSS VDD VDD _102_ sky130_fd_sc_hd__o31ai_1
X_364_ net136 VSS VSS VDD VDD _196_ sky130_fd_sc_hd__inv_1
X_365_ _150_ _196_ _153_ VSS VSS VDD VDD _197_ sky130_fd_sc_hd__o21ai_0
X_366_ _194_ _197_ _193_ VSS VSS VDD VDD _103_ sky130_fd_sc_hd__o21ai_0
X_367_ net242 net104 _164_ VSS VSS VDD VDD _104_ sky130_fd_sc_hd__mux2_1
X_368_ net243 net105 _164_ VSS VSS VDD VDD _105_ sky130_fd_sc_hd__mux2_1
X_369_ net244 net106 _164_ VSS VSS VDD VDD _106_ sky130_fd_sc_hd__mux2_1
X_370_ net245 net107 _164_ VSS VSS VDD VDD _107_ sky130_fd_sc_hd__mux2_1
X_371_ net246 net108 _164_ VSS VSS VDD VDD _108_ sky130_fd_sc_hd__mux2_1
X_372_ net247 net109 _164_ VSS VSS VDD VDD _109_ sky130_fd_sc_hd__mux2_1
X_373_ net248 net110 _164_ VSS VSS VDD VDD _110_ sky130_fd_sc_hd__mux2_1
X_374_ net249 net111 _164_ VSS VSS VDD VDD _111_ sky130_fd_sc_hd__mux2_1
X_375_ _159_ VSS VSS VDD VDD _198_ sky130_fd_sc_hd__clkbuf_4
X_376_ net250 net112 _198_ VSS VSS VDD VDD _112_ sky130_fd_sc_hd__mux2_1
X_377_ net251 net113 _198_ VSS VSS VDD VDD _113_ sky130_fd_sc_hd__mux2_1
X_378_ net252 net114 _198_ VSS VSS VDD VDD _114_ sky130_fd_sc_hd__mux2_1
X_379_ net253 net115 _198_ VSS VSS VDD VDD _115_ sky130_fd_sc_hd__mux2_1
X_380_ net254 net116 _198_ VSS VSS VDD VDD _116_ sky130_fd_sc_hd__mux2_1
X_381_ net255 net117 _198_ VSS VSS VDD VDD _117_ sky130_fd_sc_hd__mux2_1
X_382_ net256 net118 _198_ VSS VSS VDD VDD _118_ sky130_fd_sc_hd__mux2_1
X_383_ net257 net119 _198_ VSS VSS VDD VDD _119_ sky130_fd_sc_hd__mux2_1
X_384_ net258 net120 _198_ VSS VSS VDD VDD _120_ sky130_fd_sc_hd__mux2_1
X_385_ net259 net121 _198_ VSS VSS VDD VDD _121_ sky130_fd_sc_hd__mux2_1
X_386_ _159_ VSS VSS VDD VDD _199_ sky130_fd_sc_hd__clkbuf_4
X_387_ net260 net122 _199_ VSS VSS VDD VDD _122_ sky130_fd_sc_hd__mux2_1
X_388_ net261 net123 _199_ VSS VSS VDD VDD _123_ sky130_fd_sc_hd__mux2_1
X_389_ net262 net124 _199_ VSS VSS VDD VDD _124_ sky130_fd_sc_hd__mux2_1
X_390_ net263 net125 _199_ VSS VSS VDD VDD _125_ sky130_fd_sc_hd__mux2_1
X_391_ net264 net126 _199_ VSS VSS VDD VDD _126_ sky130_fd_sc_hd__mux2_1
X_392_ net265 net127 _199_ VSS VSS VDD VDD _127_ sky130_fd_sc_hd__mux2_1
X_393_ net266 net128 _199_ VSS VSS VDD VDD _128_ sky130_fd_sc_hd__mux2_1
X_394_ net267 net129 _199_ VSS VSS VDD VDD _129_ sky130_fd_sc_hd__mux2_1
X_395_ net268 net130 _199_ VSS VSS VDD VDD _130_ sky130_fd_sc_hd__mux2_1
X_396_ net269 net131 _199_ VSS VSS VDD VDD _131_ sky130_fd_sc_hd__mux2_1
X_397_ net270 net132 _160_ VSS VSS VDD VDD _132_ sky130_fd_sc_hd__mux2_1
X_398_ net271 net133 _160_ VSS VSS VDD VDD _133_ sky130_fd_sc_hd__mux2_1
X_399_ net272 net134 _160_ VSS VSS VDD VDD _134_ sky130_fd_sc_hd__mux2_1
X_400_ net273 net135 _160_ VSS VSS VDD VDD _135_ sky130_fd_sc_hd__mux2_1
X_401_ _150_ _152_ net274 VSS VSS VDD VDD _200_ sky130_fd_sc_hd__o21ai_0
X_402_ _150_ _190_ VSS VSS VDD VDD _201_ sky130_fd_sc_hd__nor2_1
X_403_ net274 _201_ _151_ VSS VSS VDD VDD _202_ sky130_fd_sc_hd__o21ai_0
X_404_ _200_ _202_ VSS VSS VDD VDD _136_ sky130_fd_sc_hd__nand2_1
X_405_ net275 net137 _160_ VSS VSS VDD VDD _137_ sky130_fd_sc_hd__mux2_1
X_406_ net276 net138 _160_ VSS VSS VDD VDD _138_ sky130_fd_sc_hd__mux2_1
X_407_ net277 net139 _160_ VSS VSS VDD VDD _139_ sky130_fd_sc_hd__mux2_1
X_408_ net278 net140 _160_ VSS VSS VDD VDD _140_ sky130_fd_sc_hd__mux2_1
X_409_ _149_ _186_ _142_ VSS VSS VDD VDD _203_ sky130_fd_sc_hd__nor3b_1
X_410_ net279 _203_ VSS VSS VDD VDD _204_ sky130_fd_sc_hd__nor2_1
X_411_ _142_ net71 VSS VSS VDD VDD _205_ sky130_fd_sc_hd__nand2b_1
X_412_ _150_ net279 _205_ VSS VSS VDD VDD _206_ sky130_fd_sc_hd__nand3b_1
X_413_ _151_ _204_ _206_ VSS VSS VDD VDD _141_ sky130_fd_sc_hd__o21ai_0
Xaraddr\[0\]$_DFFE_PN0P_ clknet_4_13_0_clk _000_ net1 VSS
+ VSS VDD VDD net141 sky130_fd_sc_hd__dfrtp_1
Xaraddr\[10\]$_DFFE_PN0P_ clknet_4_13_0_clk _001_ net1 VSS
+ VSS VDD VDD net142 sky130_fd_sc_hd__dfrtp_1
Xaraddr\[11\]$_DFFE_PN0P_ clknet_4_13_0_clk _002_ net1 VSS
+ VSS VDD VDD net143 sky130_fd_sc_hd__dfrtp_1
Xaraddr\[12\]$_DFFE_PN0P_ clknet_4_13_0_clk _003_ net1 VSS
+ VSS VDD VDD net144 sky130_fd_sc_hd__dfrtp_1
Xaraddr\[13\]$_DFFE_PN0P_ clknet_4_13_0_clk _004_ net1 VSS
+ VSS VDD VDD net145 sky130_fd_sc_hd__dfrtp_1
Xaraddr\[14\]$_DFFE_PN0P_ clknet_4_12_0_clk _005_ net1 VSS
+ VSS VDD VDD net146 sky130_fd_sc_hd__dfrtp_1
Xaraddr\[15\]$_DFFE_PN0P_ clknet_4_13_0_clk _006_ net1 VSS
+ VSS VDD VDD net147 sky130_fd_sc_hd__dfrtp_1
Xaraddr\[16\]$_DFFE_PN0P_ clknet_4_13_0_clk _007_ net1 VSS
+ VSS VDD VDD net148 sky130_fd_sc_hd__dfrtp_1
Xaraddr\[17\]$_DFFE_PN0P_ clknet_4_13_0_clk _008_ net1 VSS
+ VSS VDD VDD net149 sky130_fd_sc_hd__dfrtp_1
Xaraddr\[18\]$_DFFE_PN0P_ clknet_4_13_0_clk _009_ net1 VSS
+ VSS VDD VDD net150 sky130_fd_sc_hd__dfrtp_1
Xaraddr\[19\]$_DFFE_PN0P_ clknet_4_14_0_clk _010_ net1 VSS
+ VSS VDD VDD net151 sky130_fd_sc_hd__dfrtp_1
Xaraddr\[1\]$_DFFE_PN0P_ clknet_4_14_0_clk _011_ net1 VSS
+ VSS VDD VDD net152 sky130_fd_sc_hd__dfrtp_1
Xaraddr\[20\]$_DFFE_PN0P_ clknet_4_14_0_clk _012_ net1 VSS
+ VSS VDD VDD net153 sky130_fd_sc_hd__dfrtp_1
Xaraddr\[21\]$_DFFE_PN0P_ clknet_4_14_0_clk _013_ net1 VSS
+ VSS VDD VDD net154 sky130_fd_sc_hd__dfrtp_1
Xaraddr\[22\]$_DFFE_PN0P_ clknet_4_12_0_clk _014_ net1 VSS
+ VSS VDD VDD net155 sky130_fd_sc_hd__dfrtp_1
Xaraddr\[23\]$_DFFE_PN0P_ clknet_4_15_0_clk _015_ net1 VSS
+ VSS VDD VDD net156 sky130_fd_sc_hd__dfrtp_1
Xaraddr\[24\]$_DFFE_PN0P_ clknet_4_15_0_clk _016_ net1 VSS
+ VSS VDD VDD net157 sky130_fd_sc_hd__dfrtp_1
Xaraddr\[25\]$_DFFE_PN0P_ clknet_4_14_0_clk _017_ net1 VSS
+ VSS VDD VDD net158 sky130_fd_sc_hd__dfrtp_1
Xaraddr\[26\]$_DFFE_PN0P_ clknet_4_14_0_clk _018_ net1 VSS
+ VSS VDD VDD net159 sky130_fd_sc_hd__dfrtp_1
Xaraddr\[27\]$_DFFE_PN0P_ clknet_4_15_0_clk _019_ net1 VSS
+ VSS VDD VDD net160 sky130_fd_sc_hd__dfrtp_1
Xaraddr\[28\]$_DFFE_PN0P_ clknet_4_7_0_clk _020_ net1 VSS
+ VSS VDD VDD net161 sky130_fd_sc_hd__dfrtp_1
Xaraddr\[29\]$_DFFE_PN0P_ clknet_4_7_0_clk _021_ net1 VSS
+ VSS VDD VDD net162 sky130_fd_sc_hd__dfrtp_1
Xaraddr\[2\]$_DFFE_PN0P_ clknet_4_7_0_clk _022_ net1 VSS VSS
+ VDD VDD net163 sky130_fd_sc_hd__dfrtp_1
Xaraddr\[30\]$_DFFE_PN0P_ clknet_4_5_0_clk _023_ net1 VSS
+ VSS VDD VDD net164 sky130_fd_sc_hd__dfrtp_1
Xaraddr\[31\]$_DFFE_PN0P_ clknet_4_6_0_clk _024_ net1 VSS
+ VSS VDD VDD net165 sky130_fd_sc_hd__dfrtp_1
Xaraddr\[3\]$_DFFE_PN0P_ clknet_4_6_0_clk _025_ net1 VSS VSS
+ VDD VDD net166 sky130_fd_sc_hd__dfrtp_1
Xaraddr\[4\]$_DFFE_PN0P_ clknet_4_5_0_clk _026_ net1 VSS VSS
+ VDD VDD net167 sky130_fd_sc_hd__dfrtp_1
Xaraddr\[5\]$_DFFE_PN0P_ clknet_4_5_0_clk _027_ net1 VSS VSS
+ VDD VDD net168 sky130_fd_sc_hd__dfrtp_1
Xaraddr\[6\]$_DFFE_PN0P_ clknet_4_6_0_clk _028_ net1 VSS VSS
+ VDD VDD net169 sky130_fd_sc_hd__dfrtp_1
Xaraddr\[7\]$_DFFE_PN0P_ clknet_4_7_0_clk _029_ net1 VSS VSS
+ VDD VDD net170 sky130_fd_sc_hd__dfrtp_1
Xaraddr\[8\]$_DFFE_PN0P_ clknet_4_6_0_clk _030_ net1 VSS VSS
+ VDD VDD net171 sky130_fd_sc_hd__dfrtp_1
Xaraddr\[9\]$_DFFE_PN0P_ clknet_4_12_0_clk _031_ net1 VSS
+ VSS VDD VDD net172 sky130_fd_sc_hd__dfrtp_1
Xarvalid$_DFFE_PN0P_ clknet_4_2_0_clk _032_ net1 VSS VSS VDD
+ VDD net173 sky130_fd_sc_hd__dfrtp_1
Xawaddr\[0\]$_DFFE_PN0P_ clknet_4_5_0_clk _033_ net1 VSS VSS
+ VDD VDD net174 sky130_fd_sc_hd__dfrtp_1
Xawaddr\[10\]$_DFFE_PN0P_ clknet_4_5_0_clk _034_ net1 VSS
+ VSS VDD VDD net175 sky130_fd_sc_hd__dfrtp_1
Xawaddr\[11\]$_DFFE_PN0P_ clknet_4_7_0_clk _035_ net1 VSS
+ VSS VDD VDD net176 sky130_fd_sc_hd__dfrtp_1
Xawaddr\[12\]$_DFFE_PN0P_ clknet_4_5_0_clk _036_ net1 VSS
+ VSS VDD VDD net177 sky130_fd_sc_hd__dfrtp_1
Xawaddr\[13\]$_DFFE_PN0P_ clknet_4_7_0_clk _037_ net1 VSS
+ VSS VDD VDD net178 sky130_fd_sc_hd__dfrtp_1
Xawaddr\[14\]$_DFFE_PN0P_ clknet_4_5_0_clk _038_ net1 VSS
+ VSS VDD VDD net179 sky130_fd_sc_hd__dfrtp_1
Xawaddr\[15\]$_DFFE_PN0P_ clknet_4_7_0_clk _039_ net1 VSS
+ VSS VDD VDD net180 sky130_fd_sc_hd__dfrtp_1
Xawaddr\[16\]$_DFFE_PN0P_ clknet_4_5_0_clk _040_ net1 VSS
+ VSS VDD VDD net181 sky130_fd_sc_hd__dfrtp_1
Xawaddr\[17\]$_DFFE_PN0P_ clknet_4_5_0_clk _041_ net1 VSS
+ VSS VDD VDD net182 sky130_fd_sc_hd__dfrtp_1
Xawaddr\[18\]$_DFFE_PN0P_ clknet_4_7_0_clk _042_ net1 VSS
+ VSS VDD VDD net183 sky130_fd_sc_hd__dfrtp_1
Xawaddr\[19\]$_DFFE_PN0P_ clknet_4_15_0_clk _043_ net1 VSS
+ VSS VDD VDD net184 sky130_fd_sc_hd__dfrtp_1
Xawaddr\[1\]$_DFFE_PN0P_ clknet_4_15_0_clk _044_ net1 VSS
+ VSS VDD VDD net185 sky130_fd_sc_hd__dfrtp_1
Xawaddr\[20\]$_DFFE_PN0P_ clknet_4_15_0_clk _045_ net1 VSS
+ VSS VDD VDD net186 sky130_fd_sc_hd__dfrtp_1
Xawaddr\[21\]$_DFFE_PN0P_ clknet_4_15_0_clk _046_ net1 VSS
+ VSS VDD VDD net187 sky130_fd_sc_hd__dfrtp_1
Xawaddr\[22\]$_DFFE_PN0P_ clknet_4_15_0_clk _047_ net1 VSS
+ VSS VDD VDD net188 sky130_fd_sc_hd__dfrtp_1
Xawaddr\[23\]$_DFFE_PN0P_ clknet_4_15_0_clk _048_ net1 VSS
+ VSS VDD VDD net189 sky130_fd_sc_hd__dfrtp_1
Xawaddr\[24\]$_DFFE_PN0P_ clknet_4_15_0_clk _049_ net1 VSS
+ VSS VDD VDD net190 sky130_fd_sc_hd__dfrtp_1
Xawaddr\[25\]$_DFFE_PN0P_ clknet_4_15_0_clk _050_ net1 VSS
+ VSS VDD VDD net191 sky130_fd_sc_hd__dfrtp_1
Xawaddr\[26\]$_DFFE_PN0P_ clknet_4_15_0_clk _051_ net1 VSS
+ VSS VDD VDD net192 sky130_fd_sc_hd__dfrtp_1
Xawaddr\[27\]$_DFFE_PN0P_ clknet_4_15_0_clk _052_ net1 VSS
+ VSS VDD VDD net193 sky130_fd_sc_hd__dfrtp_1
Xawaddr\[28\]$_DFFE_PN0P_ clknet_4_8_0_clk _053_ net1 VSS
+ VSS VDD VDD net194 sky130_fd_sc_hd__dfrtp_1
Xawaddr\[29\]$_DFFE_PN0P_ clknet_4_9_0_clk _054_ net1 VSS
+ VSS VDD VDD net195 sky130_fd_sc_hd__dfrtp_1
Xawaddr\[2\]$_DFFE_PN0P_ clknet_4_2_0_clk _055_ net1 VSS VSS
+ VDD VDD net196 sky130_fd_sc_hd__dfrtp_1
Xawaddr\[30\]$_DFFE_PN0P_ clknet_4_8_0_clk _056_ net1 VSS
+ VSS VDD VDD net197 sky130_fd_sc_hd__dfrtp_1
Xawaddr\[31\]$_DFFE_PN0P_ clknet_4_9_0_clk _057_ net1 VSS
+ VSS VDD VDD net198 sky130_fd_sc_hd__dfrtp_1
Xawaddr\[3\]$_DFFE_PN0P_ clknet_4_8_0_clk _058_ net1 VSS VSS
+ VDD VDD net199 sky130_fd_sc_hd__dfrtp_1
Xawaddr\[4\]$_DFFE_PN0P_ clknet_4_9_0_clk _059_ net1 VSS VSS
+ VDD VDD net200 sky130_fd_sc_hd__dfrtp_1
Xawaddr\[5\]$_DFFE_PN0P_ clknet_4_2_0_clk _060_ net1 VSS VSS
+ VDD VDD net201 sky130_fd_sc_hd__dfrtp_1
Xawaddr\[6\]$_DFFE_PN0P_ clknet_4_2_0_clk _061_ net1 VSS VSS
+ VDD VDD net202 sky130_fd_sc_hd__dfrtp_1
Xawaddr\[7\]$_DFFE_PN0P_ clknet_4_2_0_clk _062_ net1 VSS VSS
+ VDD VDD net203 sky130_fd_sc_hd__dfrtp_1
Xawaddr\[8\]$_DFFE_PN0P_ clknet_4_8_0_clk _063_ net1 VSS VSS
+ VDD VDD net204 sky130_fd_sc_hd__dfrtp_1
Xawaddr\[9\]$_DFFE_PN0P_ clknet_4_10_0_clk _064_ net1 VSS
+ VSS VDD VDD net205 sky130_fd_sc_hd__dfrtp_1
Xawvalid$_DFFE_PN0P_ clknet_4_2_0_clk _065_ net1 VSS VSS VDD
+ VDD net206 sky130_fd_sc_hd__dfrtp_1
Xbready$_DFFE_PN0P_ clknet_4_0_0_clk _066_ net1 VSS VSS VDD
+ VDD net207 sky130_fd_sc_hd__dfrtp_1
Xread_data\[0\]$_DFFE_PN0P_ clknet_4_5_0_clk _067_ net1 VSS
+ VSS VDD VDD net208 sky130_fd_sc_hd__dfrtp_1
Xread_data\[10\]$_DFFE_PN0P_ clknet_4_5_0_clk _068_ net1 VSS
+ VSS VDD VDD net209 sky130_fd_sc_hd__dfrtp_1
Xread_data\[11\]$_DFFE_PN0P_ clknet_4_1_0_clk _069_ net1 VSS
+ VSS VDD VDD net210 sky130_fd_sc_hd__dfrtp_1
Xread_data\[12\]$_DFFE_PN0P_ clknet_4_4_0_clk _070_ net1 VSS
+ VSS VDD VDD net211 sky130_fd_sc_hd__dfrtp_1
Xread_data\[13\]$_DFFE_PN0P_ clknet_4_5_0_clk _071_ net1 VSS
+ VSS VDD VDD net212 sky130_fd_sc_hd__dfrtp_1
Xread_data\[14\]$_DFFE_PN0P_ clknet_4_4_0_clk _072_ net1 VSS
+ VSS VDD VDD net213 sky130_fd_sc_hd__dfrtp_1
Xread_data\[15\]$_DFFE_PN0P_ clknet_4_4_0_clk _073_ net1 VSS
+ VSS VDD VDD net214 sky130_fd_sc_hd__dfrtp_1
Xread_data\[16\]$_DFFE_PN0P_ clknet_4_4_0_clk _074_ net1 VSS
+ VSS VDD VDD net215 sky130_fd_sc_hd__dfrtp_1
Xread_data\[17\]$_DFFE_PN0P_ clknet_4_5_0_clk _075_ net1 VSS
+ VSS VDD VDD net216 sky130_fd_sc_hd__dfrtp_1
Xread_data\[18\]$_DFFE_PN0P_ clknet_4_4_0_clk _076_ net1 VSS
+ VSS VDD VDD net217 sky130_fd_sc_hd__dfrtp_1
Xread_data\[19\]$_DFFE_PN0P_ clknet_4_1_0_clk _077_ net1 VSS
+ VSS VDD VDD net218 sky130_fd_sc_hd__dfrtp_1
Xread_data\[1\]$_DFFE_PN0P_ clknet_4_0_0_clk _078_ net1 VSS
+ VSS VDD VDD net219 sky130_fd_sc_hd__dfrtp_1
Xread_data\[20\]$_DFFE_PN0P_ clknet_4_1_0_clk _079_ net1 VSS
+ VSS VDD VDD net220 sky130_fd_sc_hd__dfrtp_1
Xread_data\[21\]$_DFFE_PN0P_ clknet_4_1_0_clk _080_ net1 VSS
+ VSS VDD VDD net221 sky130_fd_sc_hd__dfrtp_1
Xread_data\[22\]$_DFFE_PN0P_ clknet_4_0_0_clk _081_ net1 VSS
+ VSS VDD VDD net222 sky130_fd_sc_hd__dfrtp_1
Xread_data\[23\]$_DFFE_PN0P_ clknet_4_0_0_clk _082_ net1 VSS
+ VSS VDD VDD net223 sky130_fd_sc_hd__dfrtp_1
Xread_data\[24\]$_DFFE_PN0P_ clknet_4_0_0_clk _083_ net1 VSS
+ VSS VDD VDD net224 sky130_fd_sc_hd__dfrtp_1
Xread_data\[25\]$_DFFE_PN0P_ clknet_4_4_0_clk _084_ net1 VSS
+ VSS VDD VDD net225 sky130_fd_sc_hd__dfrtp_1
Xread_data\[26\]$_DFFE_PN0P_ clknet_4_0_0_clk _085_ net1 VSS
+ VSS VDD VDD net226 sky130_fd_sc_hd__dfrtp_1
Xread_data\[27\]$_DFFE_PN0P_ clknet_4_0_0_clk _086_ net1 VSS
+ VSS VDD VDD net227 sky130_fd_sc_hd__dfrtp_1
Xread_data\[28\]$_DFFE_PN0P_ clknet_4_6_0_clk _087_ net1 VSS
+ VSS VDD VDD net228 sky130_fd_sc_hd__dfrtp_1
Xread_data\[29\]$_DFFE_PN0P_ clknet_4_1_0_clk _088_ net1 VSS
+ VSS VDD VDD net229 sky130_fd_sc_hd__dfrtp_1
Xread_data\[2\]$_DFFE_PN0P_ clknet_4_1_0_clk _089_ net1 VSS
+ VSS VDD VDD net230 sky130_fd_sc_hd__dfrtp_1
Xread_data\[30\]$_DFFE_PN0P_ clknet_4_6_0_clk _090_ net1 VSS
+ VSS VDD VDD net231 sky130_fd_sc_hd__dfrtp_1
Xread_data\[31\]$_DFFE_PN0P_ clknet_4_4_0_clk _091_ net1 VSS
+ VSS VDD VDD net232 sky130_fd_sc_hd__dfrtp_1
Xread_data\[3\]$_DFFE_PN0P_ clknet_4_3_0_clk _092_ net1 VSS
+ VSS VDD VDD net233 sky130_fd_sc_hd__dfrtp_1
Xread_data\[4\]$_DFFE_PN0P_ clknet_4_4_0_clk _093_ net1 VSS
+ VSS VDD VDD net234 sky130_fd_sc_hd__dfrtp_1
Xread_data\[5\]$_DFFE_PN0P_ clknet_4_1_0_clk _094_ net1 VSS
+ VSS VDD VDD net235 sky130_fd_sc_hd__dfrtp_1
Xread_data\[6\]$_DFFE_PN0P_ clknet_4_3_0_clk _095_ net1 VSS
+ VSS VDD VDD net236 sky130_fd_sc_hd__dfrtp_1
Xread_data\[7\]$_DFFE_PN0P_ clknet_4_4_0_clk _096_ net1 VSS
+ VSS VDD VDD net237 sky130_fd_sc_hd__dfrtp_1
Xread_data\[8\]$_DFFE_PN0P_ clknet_4_0_0_clk _097_ net1 VSS
+ VSS VDD VDD net238 sky130_fd_sc_hd__dfrtp_1
Xread_data\[9\]$_DFFE_PN0P_ clknet_4_0_0_clk _098_ net1 VSS
+ VSS VDD VDD net239 sky130_fd_sc_hd__dfrtp_1
Xread_done_r$_DFFE_PN0P_ clknet_4_0_0_clk _099_ net1 VSS VSS
+ VDD VDD net240 sky130_fd_sc_hd__dfrtp_1
Xrready$_DFFE_PN0P_ clknet_4_0_0_clk _100_ net1 VSS VSS VDD
+ VDD net241 sky130_fd_sc_hd__dfrtp_1
Xstate_r\[0\]$_DFFE_PN0P_ clknet_4_2_0_clk _101_ net1 VSS
+ VSS VDD VDD state_r\[0\] sky130_fd_sc_hd__dfrtp_1
Xstate_r\[1\]$_DFFE_PN0P_ clknet_4_3_0_clk _102_ net1 VSS
+ VSS VDD VDD state_r\[1\] sky130_fd_sc_hd__dfrtp_2
Xstate_r\[2\]$_DFFE_PN0P_ clknet_4_3_0_clk _103_ net1 VSS
+ VSS VDD VDD state_r\[2\] sky130_fd_sc_hd__dfrtp_1
Xwdata\[0\]$_DFFE_PN0P_ clknet_4_10_0_clk _104_ net1 VSS VSS
+ VDD VDD net242 sky130_fd_sc_hd__dfrtp_1
Xwdata\[10\]$_DFFE_PN0P_ clknet_4_8_0_clk _105_ net1 VSS VSS
+ VDD VDD net243 sky130_fd_sc_hd__dfrtp_1
Xwdata\[11\]$_DFFE_PN0P_ clknet_4_8_0_clk _106_ net1 VSS VSS
+ VDD VDD net244 sky130_fd_sc_hd__dfrtp_1
Xwdata\[12\]$_DFFE_PN0P_ clknet_4_8_0_clk _107_ net1 VSS VSS
+ VDD VDD net245 sky130_fd_sc_hd__dfrtp_1
Xwdata\[13\]$_DFFE_PN0P_ clknet_4_8_0_clk _108_ net1 VSS VSS
+ VDD VDD net246 sky130_fd_sc_hd__dfrtp_1
Xwdata\[14\]$_DFFE_PN0P_ clknet_4_8_0_clk _109_ net1 VSS VSS
+ VDD VDD net247 sky130_fd_sc_hd__dfrtp_1
Xwdata\[15\]$_DFFE_PN0P_ clknet_4_8_0_clk _110_ net1 VSS VSS
+ VDD VDD net248 sky130_fd_sc_hd__dfrtp_1
Xwdata\[16\]$_DFFE_PN0P_ clknet_4_9_0_clk _111_ net1 VSS VSS
+ VDD VDD net249 sky130_fd_sc_hd__dfrtp_1