
* cell clock_divider
* pin PWELL
* pin NWELL
* pin duty_cycle[7]
* pin duty_cycle[6]
* pin duty_cycle[5]
* pin clk_out
* pin clk_in
* pin duty_cycle[1]
* pin duty_cycle[3]
* pin duty_cycle[2]
* pin div_ratio[5]
* pin duty_cycle[4]
* pin div_ratio[4]
* pin duty_cycle[0]
* pin div_ratio[3]
* pin div_ratio[1]
* pin div_ratio[2]
* pin div_ratio[6]
* pin div_ratio[7]
* pin div_ratio[0]
* pin rst_n
.SUBCKT clock_divider 1 2 3 4 5 6 912 978 979 980 981 982 983 984 985 986 990
+ 991 993 994 995
* net 1 PWELL
* net 2 NWELL
* net 3 duty_cycle[7]
* net 4 duty_cycle[6]
* net 5 duty_cycle[5]
* net 6 clk_out
* net 912 clk_in
* net 978 duty_cycle[1]
* net 979 duty_cycle[3]
* net 980 duty_cycle[2]
* net 981 div_ratio[5]
* net 982 duty_cycle[4]
* net 983 div_ratio[4]
* net 984 duty_cycle[0]
* net 985 div_ratio[3]
* net 986 div_ratio[1]
* net 990 div_ratio[2]
* net 991 div_ratio[6]
* net 993 div_ratio[7]
* net 994 div_ratio[0]
* net 995 rst_n
* cell instance $1 m0 *1 238.07,463.4
X$1 987 2 848 1 BUF_X4
* cell instance $3 m0 *1 239.4,463.4
X$3 995 1 2 987 CLKBUF_X1
* cell instance $35 m0 *1 215.65,463.4
X$35 985 1 2 961 BUF_X1
* cell instance $39 m0 *1 217.93,463.4
X$39 990 1 2 963 BUF_X1
* cell instance $42 m0 *1 220.21,463.4
X$42 991 2 879 1 BUF_X4
* cell instance $43 m0 *1 221.54,463.4
X$43 993 1 2 497 BUF_X2
* cell instance $52 m0 *1 238.07,410.2
X$52 103 146 104 1 125 2 AOI21_X2
* cell instance $53 m0 *1 239.4,410.2
X$53 123 143 102 2 1 124 AND3_X1
* cell instance $96 m0 *1 220.4,410.2
X$96 1 118 106 62 94 44 2 AOI22_X4
* cell instance $100 r0 *1 220.59,410.2
X$100 118 106 1 222 2 NAND2_X4
* cell instance $103 r0 *1 224.2,410.2
X$103 85 119 140 1 2 121 NAND3_X2
* cell instance $104 r0 *1 225.53,410.2
X$104 140 119 85 2 1 148 AND3_X1
* cell instance $106 m0 *1 232.37,410.2
X$106 86 87 73 2 1 151 AND3_X1
* cell instance $107 m0 *1 231.61,410.2
X$107 73 87 86 1 2 105 NAND3_X1
* cell instance $111 m0 *1 235.79,410.2
X$111 123 121 102 2 1 149 AND3_X1
* cell instance $116 r0 *1 233.7,410.2
X$116 120 143 145 2 1 144 AND3_X1
* cell instance $118 r0 *1 236.17,410.2
X$118 121 123 105 1 122 2 AOI21_X2
* cell instance $119 r0 *1 237.5,410.2
X$119 143 120 1 2 103 NAND2_X1
* cell instance $121 r0 *1 238.83,410.2
X$121 102 121 123 1 2 146 NAND3_X1
* cell instance $454 m0 *1 210.52,463.4
X$454 986 1 2 752 BUF_X2
* cell instance $18268 m0 *1 203.49,407.4
X$18268 67 89 1 2 51 NOR2_X1
* cell instance $18269 m0 *1 203.11,407.4
X$18269 67 1 2 76 INV_X1
* cell instance $18270 m0 *1 204.06,407.4
X$18270 1 51 68 82 76 69 70 49 2 AOI222_X2
* cell instance $18272 m0 *1 206.91,407.4
X$18272 1 77 2 90 BUF_X8
* cell instance $18273 m0 *1 209.38,407.4
X$18273 67 83 53 1 2 80 MUX2_X1
* cell instance $18274 m0 *1 210.71,407.4
X$18274 67 70 77 1 53 2 AOI21_X1
* cell instance $18276 m0 *1 214.51,407.4
X$18276 99 14 2 1 79 AND2_X1
* cell instance $18277 m0 *1 215.27,407.4
X$18277 78 1 2 24 BUF_X2
* cell instance $18282 r0 *1 203.49,407.4
X$18282 133 81 1 2 69 NAND2_X1
* cell instance $18283 r0 *1 204.06,407.4
X$18283 77 1 2 92 BUF_X1
* cell instance $18284 r0 *1 204.63,407.4
X$18284 68 1 2 91 BUF_X2
* cell instance $18285 r0 *1 205.39,407.4
X$18285 1 17 91 109 70 77 2 AOI22_X4
* cell instance $18286 r0 *1 208.62,407.4
X$18286 1 92 36 95 97 93 2 AOI22_X4
* cell instance $18287 r0 *1 211.85,407.4
X$18287 81 18 11 2 1 93 OAI21_X2
* cell instance $18290 r0 *1 213.75,407.4
X$18290 40 38 108 1 2 NOR2_X4
* cell instance $18293 r0 *1 217.36,407.4
X$18293 84 52 79 71 2 1 117 AND4_X1
* cell instance $18295 m0 *1 220.21,407.4
X$18295 80 2 55 1 BUF_X4
* cell instance $18296 m0 *1 221.54,407.4
X$18296 44 94 71 65 2 1 58 AND4_X2
* cell instance $18299 r0 *1 221.92,407.4
X$18299 1 71 65 44 94 85 2 NAND4_X4
* cell instance $18300 m0 *1 224.39,407.4
X$18300 65 71 72 1 2 57 NAND3_X2
* cell instance $18301 m0 *1 223.25,407.4
X$18301 72 71 65 2 1 47 AND3_X2
* cell instance $18303 r0 *1 225.34,407.4
X$18303 1 47 45 120 74 85 2 AOI22_X4
* cell instance $18304 m0 *1 228.19,407.4
X$18304 56 1 2 88 BUF_X1
* cell instance $18305 m0 *1 226.1,407.4
X$18305 74 85 29 47 45 75 2 1 AOI221_X2
* cell instance $18306 m0 *1 228.76,407.4
X$18306 57 62 30 58 46 63 1 2 OAI221_X2
* cell instance $18307 m0 *1 230.85,407.4
X$18307 59 31 29 61 86 102 1 2 OAI221_X2
* cell instance $18312 r0 *1 228.95,407.4
X$18312 88 46 57 62 87 1 2 OAI211_X2
* cell instance $18313 r0 *1 230.66,407.4
X$18313 86 58 1 2 188 OR2_X2
* cell instance $18462 m0 *1 205.01,404.6
X$18462 1 38 10 35 40 34 2 NOR4_X4
* cell instance $18463 m0 *1 208.43,404.6
X$18463 41 1 2 35 BUF_X1
* cell instance $18464 m0 *1 209,404.6
X$18464 1 36 9 17 11 2 AOI21_X4
* cell instance $18465 m0 *1 211.47,404.6
X$18465 37 42 8 2 1 44 OAI21_X4
* cell instance $18466 m0 *1 213.94,404.6
X$18466 26 24 18 2 25 1 NOR3_X2
* cell instance $18467 m0 *1 215.27,404.6
X$18467 20 22 79 1 2 21 NAND3_X2
* cell instance $18468 m0 *1 216.6,404.6
X$18468 26 18 1 2 54 NOR2_X1
* cell instance $18469 m0 *1 217.17,404.6
X$18469 23 1 2 15 BUF_X1
* cell instance $18471 m0 *1 218.5,404.6
X$18471 19 52 36 2 1 33 AND3_X1
* cell instance $18472 m0 *1 219.45,404.6
X$18472 36 24 19 1 2 66 NAND3_X2
* cell instance $18474 m0 *1 220.97,404.6
X$18474 12 14 1 2 27 NOR2_X1
* cell instance $18475 m0 *1 221.54,404.6
X$18475 14 12 2 1 28 AND2_X1
* cell instance $18476 m0 *1 222.3,404.6
X$18476 13 33 32 2 1 30 OAI21_X2
* cell instance $18481 m0 *1 229.14,404.6
X$18481 56 29 58 30 31 1 2 OAI211_X2
* cell instance $18537 r0 *1 202.54,404.6
X$18537 50 1 2 14 BUF_X2
* cell instance $18540 r0 *1 204.25,404.6
X$18540 52 50 1 38 2 NAND2_X4
* cell instance $18541 r0 *1 205.96,404.6
X$18541 1 38 10 41 49 2 NOR3_X4
* cell instance $18542 r0 *1 208.62,404.6
X$18542 1 65 9 39 64 2 AOI21_X4
* cell instance $18543 r0 *1 211.09,404.6
X$18543 40 18 1 2 39 NAND2_X1
* cell instance $18545 r0 *1 212.04,404.6
X$18545 40 89 1 2 42 NOR2_X1
* cell instance $18546 r0 *1 212.61,404.6
X$18546 41 1 2 23 BUF_X2
* cell instance $18547 r0 *1 213.37,404.6
X$18547 38 41 12 1 43 2 AOI21_X1
* cell instance $18548 r0 *1 214.13,404.6
X$18548 10 43 36 1 48 2 AOI21_X1
* cell instance $18549 r0 *1 214.89,404.6
X$18549 1 29 25 24 21 2 AOI21_X4
* cell instance $18550 r0 *1 217.36,404.6
X$18550 54 21 24 2 1 46 MUX2_X2
* cell instance $18552 r0 *1 220.59,404.6
X$18552 1 74 27 66 28 2 AOI21_X4
* cell instance $18556 r0 *1 225.53,404.6
X$18556 45 47 1 2 59 NAND2_X1
* cell instance $18557 r0 *1 226.1,404.6
X$18557 45 29 47 55 1 2 73 NAND4_X1
* cell instance $18561 r0 *1 227.05,404.6
X$18561 55 2 56 1 BUF_X4
* cell instance $18562 r0 *1 228.38,404.6
X$18562 57 62 58 30 56 61 1 2 OAI221_X2
* cell instance $18563 r0 *1 230.47,404.6
X$18563 29 59 1 2 60 XNOR2_X2
* cell instance $19685 m0 *1 189.05,421.4
X$19685 216 1 2 201 INV_X2
* cell instance $19688 m0 *1 191.9,421.4
X$19688 301 248 300 1 2 246 NAND3_X1
* cell instance $19690 m0 *1 192.85,421.4
X$19690 217 249 302 248 301 218 2 1 AOI221_X2
* cell instance $19691 m0 *1 194.94,421.4
X$19691 300 1 2 268 INV_X1
* cell instance $19731 r0 *1 193.42,421.4
X$19731 1 267 302 248 301 2 AOI21_X4
* cell instance $19733 m0 *1 195.7,421.4
X$19733 268 291 267 1 269 2 AOI21_X1
* cell instance $19736 r0 *1 196.65,421.4
X$19736 268 500 325 267 2 1 260 AND4_X1
* cell instance $19737 m0 *1 197.79,421.4
X$19737 270 271 296 2 1 217 OAI21_X4
* cell instance $19746 r0 *1 202.16,421.4
X$19746 303 306 304 2 1 326 AND3_X1
* cell instance $19748 m0 *1 202.92,421.4
X$19748 326 2 17 1 BUF_X4
* cell instance $19749 m0 *1 205.77,421.4
X$19749 305 2 134 1 BUF_X4
* cell instance $19752 m0 *1 208.81,421.4
X$19752 250 219 272 115 177 328 1 2 OAI221_X2
* cell instance $19753 m0 *1 210.9,421.4
X$19753 34 1 2 272 BUF_X1
* cell instance $19756 m0 *1 215.27,421.4
X$19756 307 1 2 273 BUF_X1
* cell instance $19760 r0 *1 204.25,421.4
X$19760 303 306 304 11 2 1 376 AND4_X1
* cell instance $19763 r0 *1 205.96,421.4
X$19763 305 2 178 1 BUF_X4
* cell instance $19766 r0 *1 210.71,421.4
X$19766 81 250 219 2 1 341 OAI21_X2
* cell instance $19769 r0 *1 212.99,421.4
X$19769 328 134 2 332 1 XOR2_X2
* cell instance $19770 r0 *1 214.7,421.4
X$19770 1 307 353 332 314 274 2 OAI22_X4
* cell instance $19771 m0 *1 216.41,421.4
X$19771 95 134 1 2 308 NAND2_X1
* cell instance $19775 m0 *1 218.69,421.4
X$19775 307 308 1 2 278 OR2_X2
* cell instance $19779 r0 *1 218.31,421.4
X$19779 308 307 1 2 339 NOR2_X2
* cell instance $19782 m0 *1 220.97,421.4
X$19782 275 266 1 2 279 NOR2_X2
* cell instance $19785 m0 *1 222.11,421.4
X$19785 195 275 266 2 1 310 OAI21_X2
* cell instance $19788 r0 *1 221.92,421.4
X$19788 311 1 2 356 BUF_X1
* cell instance $19789 r0 *1 222.49,421.4
X$19789 276 1 2 335 BUF_X1
* cell instance $19790 r0 *1 223.06,421.4
X$19790 277 311 222 2 1 355 OAI21_X4
* cell instance $19791 m0 *1 226.48,421.4
X$19791 314 75 278 315 338 1 2 OAI211_X2
* cell instance $19792 m0 *1 223.82,421.4
X$19792 1 335 222 311 313 2 NOR3_X4
* cell instance $19793 m0 *1 228.19,421.4
X$19793 314 278 337 2 1 226 OAI21_X4
* cell instance $19798 r0 *1 226.86,421.4
X$19798 336 1 2 315 BUF_X1
* cell instance $19799 r0 *1 227.43,421.4
X$19799 1 449 354 338 317 316 2 OAI22_X4
* cell instance $19800 r0 *1 230.66,421.4
X$19800 1 316 63 330 334 2 NOR3_X4
* cell instance $19802 m0 *1 231.04,421.4
X$19802 225 252 226 297 313 279 1 2 333 OAI33_X1
* cell instance $19803 m0 *1 232.56,421.4
X$19803 164 86 280 1 331 2 AOI21_X1
* cell instance $19804 m0 *1 233.32,421.4
X$19804 226 1 2 295 BUF_X1
* cell instance $19808 r0 *1 233.32,421.4
X$19808 333 1 2 329 BUF_X2
* cell instance $19810 r0 *1 234.46,421.4
X$19810 331 230 327 1 324 2 AOI21_X2
* cell instance $19814 r0 *1 238.45,421.4
X$19814 231 166 344 2 320 1 OAI21_X1
* cell instance $19817 r0 *1 239.78,421.4
X$19817 231 166 211 2 406 1 OAI21_X1
* cell instance $19824 r0 *1 243.96,421.4
X$19824 317 230 1 2 345 NOR2_X1
* cell instance $19826 r0 *1 244.72,421.4
X$19826 318 286 345 1 2 319 NAND3_X1
* cell instance $19829 m0 *1 246.43,421.4
X$19829 255 283 1 2 323 OR2_X1
* cell instance $19832 m0 *1 247.95,421.4
X$19832 352 321 1 2 284 NOR2_X1
* cell instance $19871 r0 *1 246.62,421.4
X$19871 320 324 1 2 351 XOR2_X1
* cell instance $19873 r0 *1 247.95,421.4
X$19873 320 324 2 1 350 XNOR2_X1
* cell instance $19875 r0 *1 249.28,421.4
X$19875 253 283 1 2 397 XNOR2_X2
* cell instance $19876 r0 *1 251.18,421.4
X$19876 319 323 322 1 2 349 NAND3_X1
* cell instance $20029 m0 *1 184.11,449.4
X$20029 828 812 829 2 1 729 HA_X1
* cell instance $20030 m0 *1 183.35,449.4
X$20030 678 778 2 1 828 AND2_X1
* cell instance $20033 m0 *1 190.57,449.4
X$20033 486 732 2 1 815 AND2_X1
* cell instance $20034 m0 *1 191.33,449.4
X$20034 831 815 814 2 1 830 HA_X1
* cell instance $20038 r0 *1 185.25,449.4
X$20038 1 856 781 803 829 813 2 FA_X1
* cell instance $20042 r0 *1 190.76,449.4
X$20042 678 780 2 1 831 AND2_X1
* cell instance $20043 r0 *1 191.52,449.4
X$20043 1 908 832 833 814 872 2 FA_X1
* cell instance $20046 m0 *1 196.65,449.4
X$20046 833 1 2 816 INV_X1
* cell instance $20052 r0 *1 198.74,449.4
X$20052 1 871 818 836 835 876 2 FA_X1
* cell instance $20053 r0 *1 201.78,449.4
X$20053 836 1 2 839 INV_X2
* cell instance $20057 r0 *1 209.57,449.4
X$20057 844 1 2 843 INV_X1
* cell instance $20059 m0 *1 211.28,449.4
X$20059 849 752 2 1 846 AND2_X1
* cell instance $20061 m0 *1 212.04,449.4
X$20061 1 847 845 850 846 819 2 FA_X1
* cell instance $20062 m0 *1 215.08,449.4
X$20062 753 849 1 2 851 NAND2_X1
* cell instance $20068 r0 *1 212.99,449.4
X$20068 776 732 2 1 819 AND2_X1
* cell instance $20071 r0 *1 220.21,449.4
X$20071 903 566 2 866 1 XOR2_X2
* cell instance $20074 r0 *1 223.63,449.4
X$20074 632 866 820 2 1 859 HA_X1
* cell instance $20080 r0 *1 227.24,449.4
X$20080 854 865 2 1 821 XNOR2_X1
* cell instance $20081 m0 *1 227.62,449.4
X$20081 852 1 2 854 INV_X1
* cell instance $20089 r0 *1 230.47,449.4
X$20089 632 823 756 825 1 2 860 NAND4_X1
* cell instance $20092 m0 *1 232.18,449.4
X$20092 824 842 2 1 838 XNOR2_X1
* cell instance $20099 r0 *1 232.75,449.4
X$20099 888 823 756 825 1 2 842 NAND4_X1
* cell instance $20102 m0 *1 241.87,449.4
X$20102 825 718 797 2 1 791 HA_X1
* cell instance $20105 m0 *1 244.53,449.4
X$20105 862 794 798 2 1 827 HA_X1
* cell instance $20147 r0 *1 243.77,449.4
X$20147 826 792 827 1 863 2 AOI21_X2
* cell instance $20270 r0 *1 179.17,443.8
X$20270 484 778 2 1 796 AND2_X1
* cell instance $20272 m0 *1 185.06,443.8
X$20272 1 704 727 705 731 729 2 FA_X1
* cell instance $20277 r0 *1 186.58,443.8
X$20277 484 780 2 1 704 AND2_X1
* cell instance $20280 m0 *1 188.48,443.8
X$20280 485 732 2 1 731 AND2_X1
* cell instance $20283 r0 *1 189.43,443.8
X$20283 1 764 763 765 766 782 2 FA_X1
* cell instance $20284 m0 *1 189.81,443.8
X$20284 732 484 1 2 764 NAND2_X1
* cell instance $20286 m0 *1 190.38,443.8
X$20286 1 832 706 735 765 733 2 FA_X1
* cell instance $20289 m0 *1 195.7,443.8
X$20289 707 1 2 708 INV_X1
* cell instance $20293 m0 *1 201.4,443.8
X$20293 485 753 2 1 769 AND2_X1
* cell instance $20299 r0 *1 196.27,443.8
X$20299 747 485 1 2 766 NAND2_X1
* cell instance $20301 r0 *1 197.03,443.8
X$20301 484 747 2 1 783 AND2_X1
* cell instance $20305 r0 *1 200.26,443.8
X$20305 1 771 749 784 769 751 2 FA_X1
* cell instance $20306 r0 *1 203.3,443.8
X$20306 484 752 2 1 771 AND2_X1
* cell instance $20309 r0 *1 205.96,443.8
X$20309 678 752 2 1 811 AND2_X1
* cell instance $20311 m0 *1 207.29,443.8
X$20311 678 753 2 1 738 AND2_X1
* cell instance $20316 m0 *1 210.9,443.8
X$20316 780 710 2 1 739 AND2_X1
* cell instance $20318 m0 *1 211.66,443.8
X$20318 738 739 775 2 1 664 HA_X1
* cell instance $20319 m0 *1 213.56,443.8
X$20319 775 1 2 740 INV_X1
* cell instance $20320 m0 *1 213.94,443.8
X$20320 1 755 711 712 850 740 2 FA_X1
* cell instance $20322 m0 *1 220.02,443.8
X$20322 710 732 1 2 668 NAND2_X1
* cell instance $20324 m0 *1 220.78,443.8
X$20324 710 752 2 1 744 AND2_X1
* cell instance $20325 m0 *1 221.54,443.8
X$20325 776 753 2 1 743 AND2_X1
* cell instance $20327 m0 *1 222.49,443.8
X$20327 747 710 2 1 713 AND2_X1
* cell instance $20328 m0 *1 223.25,443.8
X$20328 743 744 624 2 1 714 HA_X1
* cell instance $20337 r0 *1 220.78,443.8
X$20337 776 752 2 1 777 AND2_X1
* cell instance $20338 r0 *1 221.54,443.8
X$20338 787 777 670 2 1 681 HA_X1
* cell instance $20343 r0 *1 234.84,443.8
X$20343 823 607 757 2 1 773 HA_X1
* cell instance $20344 r0 *1 236.74,443.8
X$20344 1 774 773 757 768 2 AOI21_X4
* cell instance $20346 m0 *1 236.93,443.8
X$20346 685 1 2 772 INV_X1
* cell instance $20347 m0 *1 237.5,443.8
X$20347 716 1 2 770 INV_X1
* cell instance $20350 m0 *1 238.83,443.8
X$20350 834 717 1 642 2 OR2_X4
* cell instance $20352 r0 *1 239.21,443.8
X$20352 770 772 767 2 1 768 OAI21_X4
* cell instance $20357 m0 *1 241.68,443.8
X$20357 1 759 642 758 717 737 762 800 2 OAI222_X2
* cell instance $20359 r0 *1 241.68,443.8
X$20359 699 801 1 2 758 NOR2_X1
* cell instance $20361 m0 *1 249.47,443.8
X$20361 620 1 2 722 BUF_X1
* cell instance $20362 m0 *1 247.76,443.8
X$20362 513 619 689 719 720 1 2 OAI211_X2
* cell instance $20363 m0 *1 250.04,443.8
X$20363 723 730 688 513 1 2 759 AOI22_X2
* cell instance $20365 m0 *1 252.51,443.8
X$20365 690 726 724 624 1 2 761 NOR4_X1
* cell instance $20403 r0 *1 248.33,443.8
X$20403 761 720 760 1 762 2 AOI21_X1
* cell instance $20405 r0 *1 249.47,443.8
X$20405 513 726 1 2 730 NOR2_X1
* cell instance $20551 m0 *1 178.22,446.6
X$20551 1 796 795 799 802 779 2 FA_X1
* cell instance $20556 m0 *1 183.73,446.6
X$20556 485 780 2 1 802 AND2_X1
* cell instance $20559 m0 *1 185.44,446.6
X$20559 781 1 2 745 INV_X1
* cell instance $20565 r0 *1 183.92,446.6
X$20565 486 780 2 1 812 AND2_X1
* cell instance $20569 m0 *1 190.76,446.6
X$20569 803 1 2 733 INV_X1
* cell instance $20571 m0 *1 195.7,446.6
X$20571 1 783 746 837 804 817 2 FA_X1
* cell instance $20573 r0 *1 191.14,446.6
X$20573 830 1 2 782 INV_X1
* cell instance $20576 r0 *1 196.08,446.6
X$20576 1 818 707 748 816 837 2 FA_X1
* cell instance $20579 m0 *1 199.12,446.6
X$20579 485 752 2 1 804 AND2_X1
* cell instance $20580 m0 *1 201.4,446.6
X$20580 1 807 750 808 839 784 2 FA_X1
* cell instance $20585 r0 *1 204.25,446.6
X$20585 486 753 2 1 841 AND2_X1
* cell instance $20586 m0 *1 207.86,446.6
X$20586 1 845 754 709 843 809 2 FA_X1
* cell instance $20587 m0 *1 204.82,446.6
X$20587 1 811 806 809 810 841 2 FA_X1
* cell instance $20592 r0 *1 205.39,446.6
X$20592 778 710 2 1 810 AND2_X1
* cell instance $20596 r0 *1 213.18,446.6
X$20596 785 747 2 1 847 AND2_X1
* cell instance $20598 m0 *1 218.88,446.6
X$20598 747 776 1 2 805 NAND2_X1
* cell instance $20599 m0 *1 215.84,446.6
X$20599 1 786 755 741 851 805 2 FA_X1
* cell instance $20604 r0 *1 217.55,446.6
X$20604 752 785 1 2 786 NAND2_X1
* cell instance $20608 r0 *1 220.78,446.6
X$20608 785 753 2 1 787 AND2_X1
* cell instance $20611 m0 *1 225.91,446.6
X$20611 1 788 852 638 853 848 2 DFFR_X1
* cell instance $20617 m0 *1 242.06,446.6
X$20617 1 789 800 848 997 7 2 DFFR_X2
* cell instance $20619 m0 *1 246.43,446.6
X$20619 720 726 2 1 794 AND2_X2
* cell instance $20661 r0 *1 227.62,446.6
X$20661 821 822 1 2 853 NOR2_X1
* cell instance $20665 r0 *1 229.52,446.6
X$20665 1 788 840 848 824 632 2 DFFR_X2
* cell instance $20666 r0 *1 233.7,446.6
X$20666 838 822 1 2 840 NOR2_X1
* cell instance $20669 r0 *1 241.87,446.6
X$20669 798 792 797 757 1 2 801 NAND4_X1
* cell instance $20670 r0 *1 242.82,446.6
X$20670 1 767 791 790 797 2 AOI21_X4
* cell instance $20671 r0 *1 245.29,446.6
X$20671 793 687 792 2 1 826 HA_X1
* cell instance $20796 r0 *1 178.6,441
X$20796 485 778 2 1 692 AND2_X1
* cell instance $20797 m0 *1 178.98,441
X$20797 633 646 693 2 1 575 HA_X1
* cell instance $20802 r0 *1 179.36,441
X$20802 1 855 523 647 799 693 2 FA_X1
* cell instance $20803 r0 *1 182.4,441
X$20803 497 678 2 1 646 AND2_X1
* cell instance $20806 r0 *1 183.73,441
X$20806 1 745 626 696 728 703 2 FA_X1
* cell instance $20808 m0 *1 185.06,441
X$20808 727 1 2 648 INV_X1
* cell instance $20813 m0 *1 187.34,441
X$20813 696 1 2 649 INV_X1
* cell instance $20814 m0 *1 190.76,441
X$20814 697 1 2 593 INV_X1
* cell instance $20819 r0 *1 187.34,441
X$20819 705 1 2 728 INV_X1
* cell instance $20823 r0 *1 189.81,441
X$20823 706 1 2 614 INV_X1
* cell instance $20826 r0 *1 192.47,441
X$20826 1 708 697 653 734 735 2 FA_X1
* cell instance $20827 r0 *1 195.51,441
X$20827 746 1 2 734 INV_X1
* cell instance $20829 r0 *1 196.65,441
X$20829 1 698 679 634 748 736 2 FA_X1
* cell instance $20830 r0 *1 199.69,441
X$20830 749 1 2 698 INV_X1
* cell instance $20832 m0 *1 199.88,441
X$20832 634 1 2 598 INV_X2
* cell instance $20833 m0 *1 203.49,441
X$20833 484 753 2 1 635 AND2_X1
* cell instance $20834 m0 *1 204.25,441
X$20834 635 806 661 2 1 658 HA_X1
* cell instance $20835 m0 *1 206.15,441
X$20835 1 754 659 660 857 661 2 FA_X1
* cell instance $20841 r0 *1 200.64,441
X$20841 750 1 2 736 INV_X1
* cell instance $20844 r0 *1 204.25,441
X$20844 808 1 2 680 INV_X2
* cell instance $20848 m0 *1 214.13,441
X$20848 711 1 2 636 INV_X1
* cell instance $20852 m0 *1 217.36,441
X$20852 712 1 2 637 INV_X1
* cell instance $20856 m0 *1 218.69,441
X$20856 667 1 2 615 INV_X1
* cell instance $20857 m0 *1 219.07,441
X$20857 1 702 667 669 741 668 2 FA_X1
* cell instance $20861 r0 *1 222.3,441
X$20861 753 710 1 2 641 NAND2_X1
* cell instance $20862 m0 *1 222.68,441
X$20862 670 713 671 2 1 604 HA_X1
* cell instance $20864 m0 *1 224.58,441
X$20864 714 671 682 2 1 605 HA_X1
* cell instance $20868 m0 *1 228.95,441
X$20868 638 389 675 2 1 701 HA_X1
* cell instance $20871 r0 *1 223.06,441
X$20871 681 1 2 702 INV_X1
* cell instance $20876 r0 *1 228.95,441
X$20876 899 701 1 2 742 NOR2_X1
* cell instance $20877 r0 *1 229.52,441
X$20877 639 774 683 2 1 700 OAI21_X4
* cell instance $20878 m0 *1 233.7,441
X$20878 617 674 685 675 1 2 699 NAND4_X1
* cell instance $20879 m0 *1 231.23,441
X$20879 1 684 640 674 700 2 AOI21_X4
* cell instance $20880 m0 *1 234.65,441
X$20880 675 1 2 715 INV_X1
* cell instance $20885 r0 *1 231.99,441
X$20885 742 715 684 2 1 717 OAI21_X4
* cell instance $20888 r0 *1 236.17,441
X$20888 756 510 685 2 1 716 HA_X1
* cell instance $20891 m0 *1 242.44,441
X$20891 641 642 676 1 2 677 OR3_X4
* cell instance $20892 m0 *1 244.72,441
X$20892 618 1 2 687 BUF_X1
* cell instance $20894 m0 *1 245.48,441
X$20894 1 694 677 631 665 2 AOI21_X4
* cell instance $20896 m0 *1 248.71,441
X$20896 619 1 2 663 BUF_X1
* cell instance $20897 m0 *1 249.28,441
X$20897 533 691 655 643 663 688 1 2 OAI221_X2
* cell instance $20898 m0 *1 251.37,441
X$20898 1 689 651 631 665 2 AOI21_X4
* cell instance $20899 m0 *1 253.84,441
X$20899 624 652 725 2 1 644 HA_X1
* cell instance $20900 m0 *1 255.74,441
X$20900 644 645 1 2 690 XOR2_X1
* cell instance $20937 r0 *1 244.91,441
X$20937 694 686 695 2 1 737 OAI21_X2
* cell instance $20938 r0 *1 246.24,441
X$20938 721 565 726 1 2 695 NOR3_X1
* cell instance $20940 r0 *1 247.19,441
X$20940 561 621 620 641 2 1 719 AND4_X1
* cell instance $20941 r0 *1 248.33,441
X$20941 620 621 1 2 721 NAND2_X1
* cell instance $20942 r0 *1 248.9,441
X$20942 721 533 1 2 760 NOR2_X1
* cell instance $20943 r0 *1 249.47,441
X$20943 619 561 621 722 2 1 723 AND4_X1
* cell instance $20944 r0 *1 250.61,441
X$20944 689 1 2 691 BUF_X1
* cell instance $20945 r0 *1 251.18,441
X$20945 533 1 2 726 INV_X1
* cell instance $20949 r0 *1 252.89,441
X$20949 725 1 2 724 INV_X1
* cell instance $21055 m0 *1 189.05,424.2
X$21055 202 147 216 2 340 1 OAI21_X1
* cell instance $21057 m0 *1 190,424.2
X$21057 159 357 201 2 375 1 NOR3_X2
* cell instance $21058 m0 *1 191.33,424.2
X$21058 357 201 1 2 407 NOR2_X1
* cell instance $21062 m0 *1 202.54,424.2
X$21062 306 303 304 1 89 2 NAND3_X4
* cell instance $21066 m0 *1 207.48,424.2
X$21066 1 376 377 312 443 71 2 NOR4_X4
* cell instance $21069 m0 *1 214.13,424.2
X$21069 134 328 1 2 378 XNOR2_X2
* cell instance $21070 m0 *1 216.03,424.2
X$21070 183 199 341 1 2 353 OR3_X1
* cell instance $21071 m0 *1 216.98,424.2
X$21071 341 199 183 2 379 1 NOR3_X2
* cell instance $21112 r0 *1 187.72,424.2
X$21112 436 1 2 216 CLKBUF_X2
* cell instance $21113 r0 *1 188.48,424.2
X$21113 403 1 2 383 INV_X1
* cell instance $21114 r0 *1 188.86,424.2
X$21114 302 147 300 1 2 381 NAND3_X1
* cell instance $21115 r0 *1 189.62,424.2
X$21115 357 383 340 2 1 405 AND3_X1
* cell instance $21116 r0 *1 190.57,424.2
X$21116 357 1 2 385 INV_X1
* cell instance $21117 r0 *1 190.95,424.2
X$21117 384 407 405 403 385 306 2 1 AOI221_X2
* cell instance $21121 r0 *1 200.83,424.2
X$21121 375 386 358 2 1 303 OAI21_X2
* cell instance $21123 r0 *1 202.35,424.2
X$21123 358 386 1 2 387 NOR2_X1
* cell instance $21126 r0 *1 203.49,424.2
X$21126 387 410 11 306 2 1 377 OAI22_X2
* cell instance $21127 r0 *1 205.2,424.2
X$21127 360 361 375 1 2 410 NAND3_X1
* cell instance $21128 r0 *1 205.96,424.2
X$21128 388 359 2 1 81 AND2_X2
* cell instance $21130 r0 *1 207.1,424.2
X$21130 359 388 1 2 135 NAND2_X1
* cell instance $21132 r0 *1 207.86,424.2
X$21132 360 361 1 11 2 NAND2_X4
* cell instance $21138 r0 *1 215.46,424.2
X$21138 341 307 1 2 394 NOR2_X2
* cell instance $21140 r0 *1 217.17,424.2
X$21140 274 1 2 389 INV_X2
* cell instance $21142 r0 *1 217.93,424.2
X$21142 1 362 379 366 378 389 2 AOI22_X4
* cell instance $21143 m0 *1 220.4,424.2
X$21143 1 183 199 312 390 2 NOR3_X4
* cell instance $21145 m0 *1 223.06,424.2
X$21145 356 222 1 2 363 NOR2_X1
* cell instance $21146 m0 *1 223.63,424.2
X$21146 310 364 142 277 312 354 2 1 AOI221_X2
* cell instance $21153 r0 *1 222.49,424.2
X$21153 95 184 362 1 365 2 AOI21_X2
* cell instance $21154 r0 *1 223.82,424.2
X$21154 172 184 1 2 364 NAND2_X1
* cell instance $21155 r0 *1 224.39,424.2
X$21155 312 277 1 2 392 NAND2_X1
* cell instance $21156 r0 *1 224.96,424.2
X$21156 142 195 1 2 393 NAND2_X1
* cell instance $21159 r0 *1 226.1,424.2
X$21159 1 145 365 355 394 2 AOI21_X4
* cell instance $21160 m0 *1 228.57,424.2
X$21160 1 143 366 355 339 2 AOI21_X4
* cell instance $21162 m0 *1 231.04,424.2
X$21162 336 1 2 337 BUF_X2
* cell instance $21164 m0 *1 231.99,424.2
X$21164 279 313 367 1 2 NOR2_X4
* cell instance $21165 m0 *1 233.7,424.2
X$21165 226 1 2 330 BUF_X1
* cell instance $21168 m0 *1 235.22,424.2
X$21168 1 342 329 343 211 2 NOR3_X4
* cell instance $21169 m0 *1 237.88,424.2
X$21169 317 343 368 342 1 2 344 NOR4_X1
* cell instance $21174 m0 *1 241.49,424.2
X$21174 283 253 2 369 1 XOR2_X2
* cell instance $21175 m0 *1 243.2,424.2
X$21175 1 255 213 346 347 370 2 NOR4_X4
* cell instance $21176 m0 *1 246.62,424.2
X$21176 347 346 232 317 1 2 352 NOR4_X1
* cell instance $21177 m0 *1 247.57,424.2
X$21177 145 284 351 1 2 348 MUX2_X1
* cell instance $21178 m0 *1 248.9,424.2
X$21178 401 351 234 1 2 371 OR3_X2
* cell instance $21179 m0 *1 250.04,424.2
X$21179 323 253 2 372 1 XOR2_X2
* cell instance $21180 m0 *1 251.75,424.2
X$21180 349 253 2 373 1 XOR2_X2
* cell instance $21218 r0 *1 228.57,424.2
X$21218 63 366 339 355 424 2 1 AOI211_X2
* cell instance $21219 r0 *1 230.28,424.2
X$21219 355 394 2 1 409 AND2_X1
* cell instance $21220 r0 *1 231.04,424.2
X$21220 409 365 1 2 230 OR2_X2
* cell instance $21221 r0 *1 231.99,424.2
X$21221 252 1 2 316 BUF_X1
* cell instance $21225 r0 *1 233.89,424.2
X$21225 367 195 342 1 2 NOR2_X4
* cell instance $21229 r0 *1 237.69,424.2
X$21229 329 1 2 368 BUF_X1
* cell instance $21230 r0 *1 238.26,424.2
X$21230 329 2 395 1 BUF_X4
* cell instance $21232 r0 *1 239.97,424.2
X$21232 168 406 2 1 446 AND2_X1
* cell instance $21234 r0 *1 241.49,424.2
X$21234 404 369 370 1 396 2 AOI21_X2
* cell instance $21235 r0 *1 242.82,424.2
X$21235 374 1 2 404 BUF_X1
* cell instance $21237 r0 *1 243.77,424.2
X$21237 370 369 1 2 322 NAND2_X2
* cell instance $21238 r0 *1 244.72,424.2
X$21238 345 1 2 255 INV_X2
* cell instance $21239 r0 *1 245.29,424.2
X$21239 1 398 255 346 213 402 2 OR4_X4
* cell instance $21240 r0 *1 247.76,424.2
X$21240 346 402 1 2 401 OR2_X2
* cell instance $21242 r0 *1 248.9,424.2
X$21242 232 401 397 398 350 400 1 2 OAI221_X2
* cell instance $21382 r0 *1 182.97,427
X$21382 487 1 2 435 INV_X1
* cell instance $21385 m0 *1 183.54,427
X$21385 463 535 434 2 1 433 HA_X1
* cell instance $21386 m0 *1 185.44,427
X$21386 433 1 2 202 BUF_X2
* cell instance $21387 m0 *1 186.2,427
X$21387 434 1 2 147 CLKBUF_X3
* cell instance $21390 m0 *1 188.1,427
X$21390 202 147 380 1 412 2 AOI21_X1
* cell instance $21392 r0 *1 186.39,427
X$21392 465 435 436 2 1 403 HA_X1
* cell instance $21393 r0 *1 188.29,427
X$21393 380 300 302 1 243 2 AOI21_X2
* cell instance $21394 m0 *1 190.19,427
X$21394 412 381 1 2 384 NAND2_X1
* cell instance $21395 m0 *1 189.24,427
X$21395 412 381 383 357 1 2 382 NAND4_X1
* cell instance $21399 m0 *1 191.33,427
X$21399 384 403 385 1 2 441 NOR3_X1
* cell instance $21403 r0 *1 192.09,427
X$21403 1 437 301 204 438 2 AOI21_X4
* cell instance $21404 m0 *1 192.66,427
X$21404 243 413 437 2 1 408 OAI21_X2
* cell instance $21408 r0 *1 194.56,427
X$21408 1 248 416 300 204 414 2 NAND4_X4
* cell instance $21409 m0 *1 197.6,427
X$21409 414 1 2 440 INV_X1
* cell instance $21410 m0 *1 195.13,427
X$21410 1 130 408 440 417 2 AOI21_X4
* cell instance $21412 m0 *1 198.74,427
X$21412 415 416 1 2 325 NAND2_X1
* cell instance $21413 m0 *1 199.31,427
X$21413 386 358 382 1 2 304 OR3_X2
* cell instance $21414 m0 *1 200.45,427
X$21414 416 417 2 305 1 XOR2_X2
* cell instance $21417 r0 *1 197.98,427
X$21417 1 270 438 416 415 2 AOI21_X4
* cell instance $21420 m0 *1 204.25,427
X$21420 387 441 361 360 2 1 443 AND4_X1
* cell instance $21423 m0 *1 206.15,427
X$21423 1 360 361 359 388 177 2 AND4_X4
* cell instance $21426 m0 *1 214.89,427
X$21426 172 133 1 2 419 NAND2_X1
* cell instance $21427 m0 *1 215.46,427
X$21427 419 447 109 2 1 307 MUX2_X2
* cell instance $21428 m0 *1 217.17,427
X$21428 172 11 1 2 447 NAND2_X1
* cell instance $21430 r0 *1 205.01,427
X$21430 442 271 418 1 2 388 OR3_X2
* cell instance $21431 r0 *1 206.15,427
X$21431 442 418 271 2 1 359 OAI21_X2
* cell instance $21432 r0 *1 207.48,427
X$21432 467 455 452 2 1 361 OAI21_X4
* cell instance $21434 r0 *1 210.33,427
X$21434 361 360 2 1 444 AND2_X1
* cell instance $21437 r0 *1 211.66,427
X$21437 444 1 2 133 CLKBUF_X3
* cell instance $21441 r0 *1 216.79,427
X$21441 312 11 1 2 420 NOR2_X1
* cell instance $21442 r0 *1 217.36,427
X$21442 312 133 1 2 421 NOR2_X1
* cell instance $21445 m0 *1 218.12,427
X$21445 109 133 1 2 276 XNOR2_X2
* cell instance $21446 m0 *1 222.49,427
X$21446 276 390 1 2 391 OR2_X1
* cell instance $21447 m0 *1 220.4,427
X$21447 184 172 309 390 276 411 1 2 OAI221_X2
* cell instance $21448 m0 *1 223.25,427
X$21448 391 363 309 392 449 2 1 AOI211_X2
* cell instance $21449 m0 *1 224.96,427
X$21449 423 390 393 363 1 2 450 NOR4_X1
* cell instance $21452 m0 *1 232.75,427
X$21452 367 334 450 2 327 1 OAI21_X1
* cell instance $21458 r0 *1 222.87,427
X$21458 390 276 1 2 422 NOR2_X1
* cell instance $21459 r0 *1 223.44,427
X$21459 171 422 310 423 448 1 2 OAI211_X2
* cell instance $21462 r0 *1 226.86,427
X$21462 1 448 411 168 424 207 2 AOI22_X4
* cell instance $21464 r0 *1 230.85,427
X$21464 207 424 457 281 60 507 2 1 AOI221_X2
* cell instance $21466 r0 *1 233.32,427
X$21466 1 231 334 60 281 2 AOI21_X4
* cell instance $21469 m0 *1 236.17,427
X$21469 342 343 395 1 2 425 OR3_X4
* cell instance $21471 r0 *1 236.74,427
X$21471 445 457 1 2 343 NAND2_X2
* cell instance $21474 r0 *1 238.26,427
X$21474 342 395 1 2 458 OR2_X1
* cell instance $21475 m0 *1 239.97,427
X$21475 395 342 1 2 426 NOR2_X2
* cell instance $21476 m0 *1 238.64,427
X$21476 425 2 210 1 BUF_X4
* cell instance $21485 r0 *1 241.68,427
X$21485 426 289 445 1 346 2 NAND3_X4
* cell instance $21487 m0 *1 243.96,427
X$21487 427 346 1 2 318 NOR2_X1
* cell instance $21489 m0 *1 246.81,427
X$21489 402 1 2 347 BUF_X1
* cell instance $21491 m0 *1 248.9,427
X$21491 397 439 321 1 2 NOR2_X4
* cell instance $21492 m0 *1 250.61,427
X$21492 398 2 439 1 BUF_X4
* cell instance $21493 m0 *1 251.94,427
X$21493 398 397 431 2 399 1 OAI21_X1
* cell instance $21495 m0 *1 252.89,427
X$21495 371 285 2 1 432 AND2_X1
* cell instance $21534 r0 *1 244.72,427
X$21534 402 1 2 427 BUF_X1
* cell instance $21536 r0 *1 246.81,427
X$21536 402 2 428 1 BUF_X4
* cell instance $21539 r0 *1 248.71,427