* CDL Netlist generated by OpenROAD

*.BUSDELIMITER [

.SUBCKT clock_divider clk_in clk_out div_ratio[0] div_ratio[1]
+ div_ratio[2] div_ratio[3] div_ratio[4] div_ratio[5] div_ratio[6]
+ div_ratio[7] duty_cycle[0] duty_cycle[1] duty_cycle[2] duty_cycle[3]
+ duty_cycle[4] duty_cycle[5] duty_cycle[6] duty_cycle[7] rst_n
X_0882_ duty_cycle[7] _0017_ VDD VSS BUF_X2
X_0883_ net5 _0018_ VDD VSS BUF_X8
X_0884_ _0017_ net2 _0748_ VDD VSS AND2_X1
X_0885_ duty_cycle[6] _0019_ VDD VSS BUF_X2
Xhold71 rst_n net81 VDD VSS CLKBUF_X1
X_0887_ _0019_ net6 _0749_ VDD VSS AND2_X1
X_0888_ _0017_ net6 _0745_ VDD VSS AND2_X1
X_0889_ duty_cycle[5] _0021_ VDD VSS BUF_X2
X_0890_ net2 _0021_ _0754_ VDD VSS AND2_X1
X_0891_ duty_cycle[4] _0022_ VDD VSS BUF_X2
X_0892_ net6 _0022_ _0755_ VDD VSS AND2_X1
X_0893_ net2 _0019_ _0584_ VDD VSS AND2_X1
X_0894_ div_ratio[5] _0023_ VDD VSS BUF_X4
X_0895_ _0017_ _0023_ _0585_ VDD VSS AND2_X1
X_0896_ net6 _0021_ _0753_ VDD VSS AND2_X1
X_0897_ duty_cycle[3] _0024_ VDD VSS BUF_X4
X_0898_ _0018_ _0024_ _0761_ VDD VSS AND2_X1
X_0899_ duty_cycle[2] _0025_ VDD VSS BUF_X4
X_0900_ net6 _0025_ _0762_ VDD VSS AND2_X1
X_0901_ _0018_ _0022_ _0756_ VDD VSS AND2_X1
X_0902_ _0021_ _0023_ _0757_ VDD VSS AND2_X1
X_0903_ _0019_ _0023_ _0596_ VDD VSS AND2_X1
X_0904_ div_ratio[4] _0026_ VDD VSS BUF_X8
X_0905_ _0017_ _0026_ _0597_ VDD VSS AND2_X1
X_0906_ _0018_ _0025_ _0629_ VDD VSS AND2_X1
X_0907_ duty_cycle[1] _0027_ VDD VSS BUF_X8
X_0908_ net6 _0027_ _0630_ VDD VSS AND2_X1
X_0909_ _0022_ _0023_ _0763_ VDD VSS AND2_X1
X_0910_ _0021_ _0026_ _0764_ VDD VSS AND2_X1
X_0911_ _0019_ _0026_ _0612_ VDD VSS AND2_X1
X_0912_ net4 _0028_ VDD VSS BUF_X4
X_0913_ _0017_ _0028_ _0613_ VDD VSS AND2_X1
X_0914_ _0023_ _0025_ _0650_ VDD VSS AND2_X1
X_0915_ _0027_ _0018_ _0651_ VDD VSS AND2_X1
X_0916_ _0022_ _0026_ _0765_ VDD VSS AND2_X1
X_0917_ _0021_ _0028_ _0766_ VDD VSS AND2_X1
X_0918_ _0025_ _0026_ _0674_ VDD VSS AND2_X1
X_0919_ _0023_ _0027_ _0675_ VDD VSS AND2_X1
X_0920_ duty_cycle[0] _0029_ VDD VSS BUF_X2
X_0921_ net6 _0029_ _0653_ VDD VSS AND2_X1
X_0922_ _0022_ _0028_ _0654_ VDD VSS AND2_X1
X_0923_ net3 _0030_ VDD VSS BUF_X4
X_0924_ _0021_ _0030_ _0655_ VDD VSS AND2_X1
X_0925_ _0019_ _0030_ _0658_ VDD VSS AND2_X1
X_0926_ div_ratio[1] _0031_ VDD VSS BUF_X2
X_0927_ _0017_ _0031_ _0659_ VDD VSS AND2_X1
X_0928_ _0025_ _0028_ _0698_ VDD VSS AND2_X1
X_0929_ _0026_ _0027_ _0699_ VDD VSS AND2_X1
X_0930_ _0018_ _0029_ _0677_ VDD VSS AND2_X1
X_0931_ _0022_ _0030_ _0678_ VDD VSS AND2_X1
X_0932_ _0021_ _0031_ _0679_ VDD VSS AND2_X1
X_0933_ _0019_ _0031_ _0682_ VDD VSS AND2_X1
X_0934_ div_ratio[0] _0032_ VDD VSS BUF_X2
X_0935_ _0017_ _0032_ _0683_ VDD VSS AND2_X1
X_0936_ _0025_ _0030_ _0719_ VDD VSS AND2_X1
X_0937_ _0027_ _0028_ _0718_ VDD VSS AND2_X1
X_0938_ _0023_ _0029_ _0703_ VDD VSS AND2_X1
X_0939_ _0022_ _0031_ _0702_ VDD VSS AND2_X1
X_0940_ _0021_ _0032_ _0701_ VDD VSS AND2_X1
X_0941_ _0019_ _0032_ _0771_ VDD VSS AND2_X1
X_0942_ _0024_ _0032_ _0733_ VDD VSS NAND2_X1
X_0943_ _0026_ _0029_ _0773_ VDD VSS AND2_X1
X_0944_ _0022_ _0032_ _0772_ VDD VSS AND2_X1
X_0945_ _0027_ _0031_ _0791_ VDD VSS AND2_X1
X_0946_ _0025_ _0032_ _0790_ VDD VSS AND2_X1
X_0947_ _0030_ _0029_ _0800_ VDD VSS AND2_X1
X_0948_ _0029_ _0031_ _0823_ VDD VSS AND2_X1
X_0949_ _0027_ _0032_ _0822_ VDD VSS AND2_X1
X_0950_ _0752_ _0033_ VDD VSS CLKBUF_X2
X_0951_ _0033_ _0034_ VDD VSS INV_X2
X_0952_ _0746_ _0035_ VDD VSS CLKBUF_X2
X_0953_ _0760_ _0036_ VDD VSS CLKBUF_X3
X_0954_ _0036_ _0037_ VDD VSS INV_X1
X_0955_ _0034_ _0035_ _0037_ _0038_ VDD VSS NOR3_X2
X_0956_ _0770_ _0039_ VDD VSS CLKBUF_X3
X_0957_ _0805_ _0040_ VDD VSS BUF_X4
X_0958_ _0039_ _0040_ _0041_ VDD VSS NAND2_X2
X_0959_ _0808_ _0042_ VDD VSS CLKBUF_X3
X_0960_ _0812_ _0043_ VDD VSS CLKBUF_X3
X_0961_ _0809_ _0044_ VDD VSS BUF_X4
X_0962_ _0042_ _0043_ _0044_ _0045_ VDD VSS AOI21_X4
X_0963_ _0813_ _0046_ VDD VSS BUF_X4
X_0964_ _0039_ _0044_ _0040_ _0046_ _0047_ VDD VSS NAND4_X4
Xrebuffer71 _0265_ net83 VDD VSS BUF_X1
X_0966_ _0777_ _0049_ VDD VSS BUF_X4
X_0967_ _0776_ net84 _0049_ _0050_ VDD VSS AOI21_X4
X_0968_ _0041_ _0045_ _0047_ _0050_ _0051_ VDD VSS OAI22_X4
X_0969_ _0783_ _0052_ VDD VSS BUF_X4
X_0970_ _0052_ _0793_ _0741_ _0794_ _0053_ VDD VSS AOI211_X4
X_0971_ _0816_ _0054_ VDD VSS BUF_X4
X_0972_ _0784_ _0055_ VDD VSS CLKBUF_X3
X_0973_ _0054_ _0049_ _0052_ _0055_ _0056_ VDD VSS OAI211_X4
X_0974_ _0047_ _0053_ _0056_ _0057_ VDD VSS NOR3_X2
X_0975_ _0038_ _0051_ _0057_ _0058_ VDD VSS OAI21_X2
X_0976_ _0751_ _0059_ VDD VSS INV_X1
X_0977_ _0759_ _0060_ VDD VSS BUF_X2
X_0978_ _0033_ _0036_ _0060_ _0061_ VDD VSS OAI21_X1
X_0979_ _0035_ _0059_ _0061_ _0062_ VDD VSS AND3_X1
X_0980_ _0039_ _0036_ _0804_ _0063_ VDD VSS NAND3_X1
X_0981_ _0060_ _0769_ _0036_ _0064_ VDD VSS AOI21_X1
X_0982_ _0063_ _0064_ _0065_ VDD VSS NAND2_X1
X_0983_ _0034_ _0035_ _0066_ VDD VSS NOR2_X1
X_0984_ _0035_ _0067_ VDD VSS INV_X1
X_0985_ _0062_ _0065_ _0066_ _0067_ _0751_ _0068_ VDD VSS
+ AOI221_X2
X_0986_ _0035_ _0059_ _0063_ _0064_ _0069_ VDD VSS NAND4_X1
X_0987_ _0057_ _0051_ _0069_ _0070_ VDD VSS OR3_X2
X_0988_ _0058_ _0068_ _0070_ _0071_ VDD VSS NAND3_X4
X_0989_ _0050_ _0056_ _0053_ _0072_ VDD VSS OAI21_X2
X_0990_ _0072_ _0046_ _0073_ VDD VSS XOR2_X2
X_0991_ _0073_ _0074_ VDD VSS BUF_X4
X_0992_ _0049_ _0075_ VDD VSS INV_X1
X_0993_ _0815_ _0052_ _0055_ _0742_ _0076_ VDD VSS AOI211_X2
X_0994_ _0054_ _0815_ _0077_ VDD VSS NOR2_X1
X_0995_ _0075_ net34 _0077_ _0078_ VDD VSS OR3_X2
X_0996_ _0075_ net34 _0077_ _0079_ VDD VSS OAI21_X2
X_0997_ _0078_ _0079_ _0080_ VDD VSS AND2_X2
X_0998_ _0043_ _0776_ _0046_ _0081_ VDD VSS AOI21_X4
X_0999_ _0044_ _0081_ _0082_ VDD VSS XNOR2_X2
X_1000_ _0074_ _0080_ _0082_ _0083_ VDD VSS AND3_X2
X_1001_ _0071_ _0083_ _0084_ VDD VSS NAND2_X2
X_1002_ _0060_ _0085_ VDD VSS INV_X1
X_1003_ _0769_ _0804_ _0039_ _0086_ VDD VSS AOI21_X2
X_1004_ _0039_ _0040_ _0042_ _0087_ VDD VSS NAND3_X1
X_1005_ _0033_ _0085_ _0086_ _0087_ _0088_ VDD VSS AND4_X1
X_1006_ _0039_ _0044_ _0040_ _0089_ VDD VSS AND3_X1
X_1007_ _0034_ _0036_ _0089_ _0090_ VDD VSS AND3_X1
X_1008_ _0049_ _0046_ _0054_ net84 _0091_ VDD VSS OAI211_X4
X_1009_ _0081_ _0091_ net34 _0092_ VDD VSS OAI21_X4
X_1010_ _0088_ _0090_ _0092_ _0093_ VDD VSS MUX2_X2
X_1011_ _0033_ _0037_ _0094_ VDD VSS NOR2_X1
X_1012_ _0034_ _0060_ _0089_ _0095_ VDD VSS NOR3_X1
X_1013_ _0086_ _0087_ _0096_ VDD VSS AND2_X1
X_1014_ _0094_ _0095_ _0096_ _0097_ VDD VSS MUX2_X2
X_1015_ _0034_ _0036_ _0060_ _0098_ VDD VSS NOR3_X4
X_1016_ _0033_ _0085_ _0099_ VDD VSS NOR2_X2
X_1017_ _0097_ _0093_ _0098_ _0099_ _0100_ VDD VSS OR4_X4
Xclone2 net5 net2 VDD VSS BUF_X8
X_1019_ _0086_ _0045_ _0041_ _0102_ VDD VSS OAI21_X2
X_1020_ _0047_ _0103_ VDD VSS INV_X1
X_1021_ _0102_ _0072_ _0103_ _0104_ VDD VSS AOI21_X4
X_1022_ _0036_ _0104_ _0105_ VDD VSS XNOR2_X2
X_1023_ _0105_ _0106_ VDD VSS BUF_X4
X_1024_ _0804_ _0042_ _0040_ _0107_ VDD VSS AOI21_X4
X_1025_ _0081_ _0107_ _0091_ net34 _0108_ VDD VSS OAI211_X2
X_1026_ _0039_ _0109_ VDD VSS INV_X1
X_1027_ _0044_ _0040_ _0110_ VDD VSS NAND2_X1
X_1028_ _0109_ _0107_ _0110_ _0111_ VDD VSS AOI21_X1
X_1029_ _0044_ _0040_ _0112_ VDD VSS AND2_X1
X_1030_ _0039_ _0112_ _0113_ VDD VSS NOR2_X1
X_1031_ net34 _0091_ _0114_ VDD VSS OR2_X2
X_1032_ _0043_ _0115_ VDD VSS INV_X1
X_1033_ _0046_ _0776_ _0116_ VDD VSS NAND2_X1
X_1034_ _0109_ _0115_ _0116_ _0107_ _0117_ VDD VSS AND4_X1
X_1035_ _0108_ _0111_ _0113_ _0107_ _0114_ _0117_ _0118_ VDD
+ VSS AOI222_X2
X_1036_ _0118_ _0119_ VDD VSS BUF_X4
X_1037_ _0042_ _0043_ _0120_ VDD VSS NOR2_X1
X_1038_ _0050_ _0120_ _0053_ _0056_ _0121_ VDD VSS OAI211_X2
X_1039_ _0040_ _0122_ VDD VSS INV_X1
X_1040_ _0042_ _0123_ VDD VSS INV_X1
X_1041_ _0044_ _0046_ _0043_ _0124_ VDD VSS OAI21_X1
X_1042_ _0122_ _0123_ _0124_ _0125_ VDD VSS AOI21_X1
X_1043_ _0040_ _0042_ _0126_ VDD VSS NOR2_X1
X_1044_ _0115_ _0050_ _0126_ _0127_ VDD VSS AND3_X1
X_1045_ _0056_ _0053_ _0128_ VDD VSS OR2_X2
X_1046_ _0121_ _0125_ _0126_ _0124_ _0128_ _0127_ _0129_ VDD
+ VSS AOI222_X2
X_1047_ _0129_ _0130_ VDD VSS BUF_X4
X_1048_ _0130_ _0119_ _0131_ VDD VSS AND2_X4
X_1049_ net61 _0106_ net68 _0132_ VDD VSS NAND3_X4
X_1050_ _0084_ _0132_ _0133_ VDD VSS NOR2_X2
X_1051_ _0133_ _0825_ VDD VSS INV_X2
X_1052_ _0058_ _0068_ _0070_ _0134_ VDD VSS AND3_X1
X_1053_ _0134_ _0135_ VDD VSS BUF_X4
X_1054_ net35 _0080_ _0082_ _0136_ VDD VSS NAND3_X4
X_1055_ _0135_ _0136_ _0137_ VDD VSS NOR2_X2
X_1056_ _0097_ _0093_ _0098_ _0099_ _0138_ VDD VSS NOR4_X4
X_1057_ _0037_ _0104_ _0139_ VDD VSS XNOR2_X2
X_1058_ net23 _0119_ _0140_ VDD VSS NAND2_X4
X_1059_ _0140_ _0139_ net14 _0141_ VDD VSS NOR3_X4
X_1060_ _0054_ _0142_ VDD VSS INV_X1
X_1061_ _0055_ _0052_ _0143_ VDD VSS NOR2_X2
X_1062_ _0142_ _0053_ _0143_ _0144_ VDD VSS OAI21_X4
X_1063_ _0142_ _0053_ _0143_ _0145_ VDD VSS OR3_X4
X_1064_ _0078_ _0079_ _0144_ _0145_ _0146_ VDD VSS AND4_X4
X_1065_ net35 _0082_ _0146_ _0147_ VDD VSS AND3_X4
X_1066_ _0131_ _0105_ _0100_ _0147_ _0148_ VDD VSS NAND4_X4
X_1067_ net12 _0137_ net86 _0135_ _0149_ VDD VSS AOI22_X4
X_1068_ _0149_ _0829_ VDD VSS INV_X1
X_1069_ _0106_ net68 _0150_ VDD VSS NAND2_X2
X_1070_ _0071_ _0083_ net61 _0151_ VDD VSS NAND3_X2
X_1071_ _0135_ _0147_ _0152_ VDD VSS NAND2_X1
X_1072_ _0150_ _0151_ _0152_ _0153_ VDD VSS AOI21_X4
X_1073_ net35 _0082_ _0146_ _0154_ VDD VSS NAND3_X4
X_1074_ _0140_ _0154_ _0155_ VDD VSS NOR2_X4
X_1075_ net62 _0106_ _0155_ _0156_ VDD VSS AOI21_X4
X_1076_ _0153_ _0156_ _0157_ VDD VSS NOR2_X4
X_1077_ _0144_ _0145_ _0158_ VDD VSS AND2_X1
X_1078_ _0158_ _0159_ VDD VSS CLKBUF_X3
X_1079_ _0149_ _0159_ _0160_ VDD VSS XNOR2_X2
X_1080_ _0071_ _0161_ VDD VSS BUF_X4
X_1081_ _0074_ _0080_ _0082_ _0119_ _0162_ VDD VSS AND4_X1
X_1082_ _0161_ net61 _0106_ _0162_ _0163_ VDD VSS NAND4_X2
X_1083_ _0135_ _0164_ VDD VSS BUF_X4
X_1084_ _0164_ net19 _0139_ _0165_ VDD VSS OAI21_X1
X_1085_ _0155_ _0163_ _0165_ _0166_ VDD VSS NAND3_X2
X_1086_ _0804_ _0092_ _0112_ _0042_ _0040_ _0167_ VDD VSS
+ AOI221_X2
X_1087_ _0109_ _0167_ _0168_ VDD VSS XNOR2_X2
X_1088_ _0074_ _0082_ _0130_ _0146_ _0169_ VDD VSS NAND4_X4
X_1089_ _0168_ _0169_ _0164_ _0170_ VDD VSS OAI21_X2
X_1090_ _0161_ _0083_ net61 net69 _0171_ VDD VSS NAND4_X2
X_1091_ _0055_ _0742_ _0172_ VDD VSS XOR2_X2
X_1092_ _0106_ _0170_ _0171_ _0172_ _0173_ VDD VSS AND4_X2
X_1093_ _0166_ _0173_ _0174_ VDD VSS NAND2_X4
X_1094_ net17 _0139_ _0175_ VDD VSS NOR2_X4
X_1095_ _0130_ _0159_ _0176_ VDD VSS NAND2_X1
X_1096_ _0136_ _0168_ _0176_ _0135_ _0177_ VDD VSS AOI211_X4
X_1097_ _0074_ _0080_ _0130_ _0178_ VDD VSS AND3_X1
X_1098_ _0144_ _0145_ _0179_ VDD VSS NAND2_X4
X_1099_ _0178_ _0179_ _0135_ _0180_ VDD VSS OAI21_X2
X_1100_ _0078_ _0079_ _0181_ VDD VSS NAND2_X1
X_1101_ _0074_ _0181_ _0130_ _0182_ VDD VSS AND3_X1
X_1102_ _0161_ _0159_ _0182_ _0183_ VDD VSS NAND3_X2
X_1103_ _0175_ _0177_ _0180_ _0183_ _0184_ VDD VSS AOI22_X4
X_1104_ _0080_ _0159_ _0185_ VDD VSS NAND2_X1
X_1105_ _0044_ _0092_ _0186_ VDD VSS XNOR2_X2
X_1106_ _0186_ _0187_ VDD VSS INV_X1
X_1107_ _0164_ _0185_ _0187_ _0188_ VDD VSS NOR3_X2
X_1108_ _0164_ _0187_ _0189_ VDD VSS NAND2_X1
X_1109_ _0140_ _0139_ net15 _0154_ _0190_ VDD VSS NOR4_X4
X_1110_ _0084_ _0132_ _0146_ _0186_ _0189_ _0190_ _0191_ VDD
+ VSS OAI222_X2
X_1111_ _0184_ _0191_ _0188_ _0192_ VDD VSS OAI21_X4
X_1112_ net63 _0174_ net36 _0193_ VDD VSS NOR3_X4
X_1113_ _0157_ _0193_ _0832_ VDD VSS NOR2_X1
X_1114_ _0139_ _0140_ _0194_ VDD VSS NOR2_X1
X_1115_ _0135_ _0136_ net16 _0195_ VDD VSS NOR3_X2
X_1116_ _0071_ _0154_ _0196_ VDD VSS NOR2_X1
X_1117_ _0194_ _0195_ _0196_ _0197_ VDD VSS OAI21_X4
X_1118_ net14 _0150_ _0154_ _0198_ VDD VSS OAI21_X4
X_1119_ net61 _0106_ _0199_ VDD VSS NAND2_X1
X_1120_ _0083_ net1 _0200_ VDD VSS AND2_X1
X_1121_ _0057_ _0051_ _0201_ VDD VSS NOR2_X1
X_1122_ _0067_ _0751_ _0065_ _0202_ VDD VSS NOR3_X1
X_1123_ _0201_ _0202_ _0144_ _0145_ _0203_ VDD VSS AND4_X1
X_1124_ _0038_ _0144_ _0145_ _0204_ VDD VSS NAND3_X1
X_1125_ _0068_ _0179_ _0204_ _0201_ _0205_ VDD VSS OAI22_X2
X_1126_ _0055_ _0742_ _0206_ VDD VSS XNOR2_X2
X_1127_ _0058_ _0068_ _0070_ _0179_ _0207_ VDD VSS AND4_X1
X_1128_ _0207_ _0205_ _0206_ _0203_ _0208_ VDD VSS NOR4_X4
X_1129_ _0199_ _0119_ _0200_ _0208_ _0209_ VDD VSS AND4_X1
X_1130_ _0197_ _0198_ _0209_ _0210_ VDD VSS AND3_X2
X_1131_ net61 net68 _0147_ _0211_ VDD VSS NAND3_X1
X_1132_ _0161_ _0106_ _0211_ _0212_ VDD VSS AOI21_X2
X_1133_ _0161_ _0083_ net61 _0159_ _0213_ VDD VSS OAI211_X2
X_1134_ _0106_ _0155_ _0150_ _0213_ _0214_ VDD VSS OAI22_X2
X_1135_ _0212_ _0214_ _0215_ VDD VSS NOR2_X2
X_1136_ _0210_ _0215_ _0216_ VDD VSS NOR2_X2
X_1137_ _0193_ _0216_ _0217_ VDD VSS NOR2_X4
X_1138_ _0179_ _0149_ _0218_ VDD VSS XNOR2_X1
X_1139_ _0186_ net12 _0137_ _0219_ VDD VSS AOI21_X1
X_1140_ _0074_ _0146_ _0220_ VDD VSS AND2_X1
X_1141_ _0220_ _0190_ _0161_ _0084_ _0132_ _0221_ VDD VSS
+ OAI221_X2
X_1142_ _0186_ _0219_ _0221_ _0222_ VDD VSS MUX2_X1
X_1143_ _0222_ _0223_ VDD VSS BUF_X4
X_1144_ _0743_ _0224_ VDD VSS BUF_X4
X_1145_ _0080_ _0179_ _0164_ _0225_ VDD VSS OAI21_X2
X_1146_ _0161_ _0181_ _0159_ _0226_ VDD VSS NAND3_X2
X_1147_ _0136_ _0179_ _0135_ _0227_ VDD VSS AOI21_X4
X_1148_ _0225_ _0226_ _0227_ net13 _0228_ VDD VSS AOI22_X4
X_1149_ _0224_ _0206_ _0228_ _0229_ VDD VSS AND3_X2
X_1150_ _0218_ _0223_ _0229_ _0230_ VDD VSS NAND3_X1
X_1151_ _0218_ _0231_ VDD VSS BUF_X4
X_1152_ _0224_ _0172_ _0228_ _0232_ VDD VSS AND3_X2
X_1153_ _0231_ _0223_ _0232_ _0233_ VDD VSS NAND3_X1
X_1154_ _0155_ _0163_ _0165_ _0234_ VDD VSS AND3_X1
X_1155_ _0106_ _0170_ _0171_ _0172_ _0235_ VDD VSS NAND4_X4
X_1156_ _0234_ _0235_ _0236_ VDD VSS NOR2_X2
X_1157_ _0161_ _0146_ _0186_ _0237_ VDD VSS NAND3_X1
X_1158_ _0071_ _0186_ _0238_ VDD VSS NOR2_X1
X_1159_ _0137_ _0141_ _0185_ _0187_ _0148_ _0238_ _0239_ VDD
+ VSS AOI222_X2
X_1160_ _0175_ _0177_ _0180_ _0183_ _0239_ _0237_ _0240_ VDD
+ VSS AOI222_X2
X_1161_ _0157_ net78 _0236_ _0241_ VDD VSS AOI21_X4
X_1162_ _0230_ _0233_ _0241_ _0242_ VDD VSS MUX2_X2
X_1163_ _0164_ _0169_ _0243_ VDD VSS NOR2_X1
X_1164_ _0164_ _0179_ _0244_ VDD VSS NAND2_X1
X_1165_ net18 _0139_ _0179_ _0164_ _0245_ VDD VSS OAI22_X2
X_1166_ _0200_ _0244_ _0245_ _0246_ VDD VSS NAND3_X2
X_1167_ _0243_ _0246_ net30 _0247_ VDD VSS MUX2_X2
X_1168_ _0161_ _0147_ _0248_ VDD VSS NAND2_X2
X_1169_ net1 _0248_ _0249_ VDD VSS OR2_X1
X_1170_ net1 _0248_ _0250_ VDD VSS NAND2_X1
X_1171_ _0175_ _0119_ _0227_ _0251_ VDD VSS AND3_X1
X_1172_ _0249_ _0250_ _0251_ _0252_ VDD VSS OAI21_X2
X_1173_ _0164_ _0154_ _0253_ VDD VSS NAND2_X1
X_1174_ _0136_ net33 _0253_ _0254_ VDD VSS AOI21_X4
X_1175_ _0197_ _0198_ _0208_ _0254_ _0255_ VDD VSS AND4_X2
X_1176_ _0197_ _0198_ _0166_ _0173_ _0256_ VDD VSS AOI22_X4
X_1177_ _0184_ _0208_ _0254_ _0257_ VDD VSS NAND3_X2
X_1178_ _0247_ _0252_ _0255_ _0256_ _0257_ _0258_ VDD VSS
+ OAI221_X2
X_1179_ _0146_ net22 _0161_ _0084_ _0132_ _0259_ VDD VSS OAI221_X2
X_1180_ _0074_ _0259_ _0260_ VDD VSS XOR2_X2
X_1181_ _0080_ _0084_ _0132_ _0261_ VDD VSS OAI21_X2
X_1182_ _0153_ _0156_ _0261_ _0262_ VDD VSS OR3_X1
X_1183_ _0159_ _0172_ _0263_ VDD VSS NAND2_X1
X_1184_ _0179_ _0172_ _0264_ VDD VSS NAND2_X1
X_1185_ _0263_ _0264_ _0149_ _0265_ VDD VSS MUX2_X2
X_1186_ _0133_ _0260_ _0262_ _0265_ _0266_ VDD VSS OAI22_X4
X_1187_ _0074_ _0228_ _0267_ VDD VSS NAND2_X1
X_1188_ _0265_ _0267_ _0268_ VDD VSS OR2_X2
X_1189_ _0266_ net25 _0268_ _0269_ VDD VSS OAI21_X4
X_1190_ net39 _0258_ net29 _0270_ VDD VSS NOR3_X4
X_1191_ _0217_ _0270_ _0835_ VDD VSS NOR2_X1
X_1192_ _0164_ net30 _0169_ _0271_ VDD VSS NOR3_X2
X_1193_ _0271_ _0246_ net30 _0272_ VDD VSS AOI21_X4
X_1194_ _0184_ _0208_ _0254_ _0273_ VDD VSS AND3_X2
X_1195_ _0153_ _0156_ _0234_ _0235_ _0274_ VDD VSS OAI22_X4
X_1196_ _0273_ _0274_ _0275_ VDD VSS NAND2_X1
X_1197_ _0272_ _0275_ _0276_ VDD VSS XNOR2_X2
X_1198_ _0231_ _0229_ _0277_ VDD VSS NAND2_X1
X_1199_ _0231_ _0232_ _0278_ VDD VSS NAND2_X1
X_1200_ _0277_ _0278_ _0241_ _0279_ VDD VSS MUX2_X2
X_1201_ net79 _0255_ _0252_ _0256_ _0257_ _0280_ VDD VSS OAI221_X2
X_1202_ _0140_ _0248_ net14 _0281_ VDD VSS AOI21_X1
X_1203_ _0139_ _0227_ _0281_ _0282_ VDD VSS AOI21_X1
X_1204_ _0106_ _0140_ _0248_ _0283_ VDD VSS NOR3_X1
X_1205_ _0160_ _0174_ _0192_ _0210_ _0282_ _0283_ _0284_ VDD
+ VSS OAI33_X1
X_1206_ net10 _0255_ _0285_ VDD VSS OR2_X2
X_1207_ _0279_ _0269_ _0280_ _0285_ _0286_ VDD VSS OR4_X2
X_1208_ _0270_ _0286_ _0276_ _0287_ VDD VSS AOI21_X4
X_1209_ _0224_ _0217_ _0288_ VDD VSS NOR2_X4
X_1210_ _0224_ _0289_ VDD VSS INV_X1
X_1211_ _0197_ _0198_ _0208_ _0254_ _0290_ VDD VSS NAND4_X4
X_1212_ net1 _0248_ _0291_ VDD VSS NOR2_X1
X_1213_ net1 _0248_ _0292_ VDD VSS AND2_X1
X_1214_ _0175_ net30 _0227_ _0293_ VDD VSS NAND3_X2
X_1215_ _0291_ _0292_ _0293_ _0294_ VDD VSS AOI21_X4
X_1216_ _0290_ _0294_ _0274_ _0273_ _0295_ VDD VSS AOI22_X4
X_1217_ _0224_ _0247_ _0295_ _0296_ VDD VSS NAND3_X1
X_1218_ _0289_ _0193_ _0216_ _0269_ _0242_ _0296_ _0297_ VDD
+ VSS OAI33_X1
X_1219_ _0828_ _0298_ VDD VSS CLKBUF_X3
X_1220_ _0153_ _0156_ _0206_ _0299_ VDD VSS NOR3_X4
X_1221_ _0157_ _0172_ _0300_ VDD VSS NOR2_X2
X_1222_ _0193_ _0299_ _0300_ _0301_ VDD VSS NOR3_X4
X_1223_ _0298_ _0301_ _0302_ VDD VSS NAND2_X2
X_1224_ net9 _0302_ _0288_ _0303_ VDD VSS OR3_X4
XPHY_EDGE_ROW_0_Right_0 VDD VSS TAPCELL_X1
X_1226_ _0231_ _0223_ _0229_ _0305_ VDD VSS AND3_X1
X_1227_ _0231_ _0223_ _0232_ _0306_ VDD VSS AND3_X1
X_1228_ _0305_ _0306_ net50 _0307_ VDD VSS MUX2_X2
X_1229_ _0074_ _0259_ _0308_ VDD VSS XNOR2_X2
X_1230_ _0153_ _0156_ _0261_ _0309_ VDD VSS NOR3_X2
X_1231_ _0179_ _0206_ _0310_ VDD VSS NOR2_X1
X_1232_ _0159_ _0206_ _0311_ VDD VSS NOR2_X1
X_1233_ _0310_ _0311_ _0149_ _0312_ VDD VSS MUX2_X2
X_1234_ _0825_ _0308_ _0309_ _0312_ _0313_ VDD VSS AOI22_X4
X_1235_ _0197_ _0198_ _0314_ VDD VSS NAND2_X2
X_1236_ _0314_ _0174_ net36 _0315_ VDD VSS OAI21_X4
X_1237_ _0265_ _0267_ _0316_ VDD VSS NOR2_X2
X_1238_ _0313_ _0258_ _0315_ _0316_ _0317_ VDD VSS AOI211_X2
X_1239_ _0197_ _0198_ _0209_ _0318_ VDD VSS NAND3_X1
X_1240_ _0212_ _0214_ _0319_ VDD VSS OR2_X1
X_1241_ _0289_ _0318_ _0319_ _0320_ VDD VSS AOI21_X2
X_1242_ _0160_ _0320_ _0299_ _0172_ _0157_ _0321_ VDD VSS
+ OAI221_X2
X_1243_ _0236_ net78 _0322_ VDD VSS NAND2_X1
X_1244_ _0160_ _0299_ _0323_ VDD VSS NOR2_X1
X_1245_ _0224_ _0210_ _0215_ _0324_ VDD VSS OAI21_X2
X_1246_ _0322_ _0323_ _0300_ _0324_ _0325_ VDD VSS OAI211_X2
X_1247_ _0307_ _0317_ _0321_ _0325_ _0326_ VDD VSS AOI22_X4
X_1248_ _0313_ _0316_ _0315_ _0327_ VDD VSS AOI21_X4
X_1249_ _0228_ _0312_ _0157_ _0328_ VDD VSS AOI21_X2
X_1250_ _0265_ _0261_ _0329_ VDD VSS NOR2_X2
X_1251_ _0328_ _0329_ _0315_ _0330_ VDD VSS AOI21_X4
X_1252_ _0295_ _0327_ _0330_ _0331_ VDD VSS AND3_X1
X_1253_ _0231_ _0229_ _0332_ VDD VSS AND2_X1
X_1254_ _0231_ _0232_ _0333_ VDD VSS AND2_X1
X_1255_ _0332_ _0333_ net26 _0334_ VDD VSS MUX2_X2
X_1256_ _0231_ _0236_ net78 _0335_ VDD VSS NAND3_X1
X_1257_ _0186_ net82 _0336_ VDD VSS XNOR2_X1
X_1258_ _0074_ _0197_ _0198_ _0228_ _0337_ VDD VSS NAND4_X1
X_1259_ _0133_ _0336_ net83 _0337_ _0338_ VDD VSS OAI22_X2
X_1260_ _0335_ _0338_ _0290_ _0339_ VDD VSS NAND3_X2
X_1261_ net79 _0272_ _0252_ _0255_ _0340_ VDD VSS OAI211_X2
X_1262_ net10 _0272_ _0280_ _0340_ _0275_ _0341_ VDD VSS OAI221_X2
X_1263_ _0334_ _0339_ _0341_ _0342_ VDD VSS AND3_X1
X_1264_ net80 _0247_ _0256_ _0257_ _0343_ VDD VSS OAI211_X2
X_1265_ _0223_ _0273_ _0272_ _0274_ _0344_ VDD VSS NAND4_X1
X_1266_ net10 _0343_ _0344_ _0345_ VDD VSS NAND3_X1
X_1267_ _0339_ _0345_ _0334_ _0346_ VDD VSS AOI21_X2
X_1268_ _0326_ _0331_ _0342_ _0346_ _0347_ VDD VSS OAI211_X4
X_1269_ net45 _0347_ _0348_ VDD VSS NOR2_X1
X_1270_ _0287_ _0348_ _0838_ VDD VSS NOR2_X2
X_1271_ net27 _0280_ _0349_ VDD VSS NOR2_X2
X_1272_ net10 _0343_ _0344_ _0350_ VDD VSS AND3_X1
X_1273_ _0279_ _0350_ _0351_ VDD VSS NOR2_X2
X_1274_ _0242_ _0269_ _0285_ _0352_ VDD VSS OR3_X2
X_1275_ _0295_ _0353_ VDD VSS INV_X1
X_1276_ _0349_ _0351_ _0352_ _0353_ _0354_ VDD VSS AOI22_X4
X_1277_ _0334_ _0327_ _0341_ _0355_ VDD VSS NAND3_X2
X_1278_ net27 _0285_ _0279_ _0356_ VDD VSS OAI21_X2
X_1279_ _0326_ _0355_ _0356_ _0357_ VDD VSS AND3_X1
X_1280_ net44 _0347_ _0354_ _0357_ _0358_ VDD VSS OAI22_X2
X_1281_ _0288_ net11 _0302_ _0359_ VDD VSS NOR3_X4
X_1282_ _0334_ _0327_ _0341_ _0360_ VDD VSS AND3_X1
X_1283_ _0339_ _0360_ _0361_ VDD VSS XNOR2_X2
X_1284_ _0287_ _0359_ _0330_ _0361_ _0362_ VDD VSS NAND4_X4
X_1285_ _0353_ _0352_ _0363_ VDD VSS NAND2_X1
X_1286_ _0349_ _0351_ _0364_ VDD VSS NAND2_X1
X_1287_ _0363_ _0364_ _0365_ VDD VSS NAND2_X2
X_1288_ _0358_ _0362_ _0365_ _0366_ VDD VSS AOI21_X4
X_1289_ _0355_ _0356_ _0367_ VDD VSS NAND2_X4
X_1290_ _0295_ _0327_ _0368_ VDD VSS NAND2_X1
X_1291_ _0335_ _0338_ _0290_ _0369_ VDD VSS AND3_X1
X_1292_ _0369_ _0350_ _0279_ _0370_ VDD VSS OAI21_X1
X_1293_ _0334_ _0339_ _0341_ _0371_ VDD VSS NAND3_X1
X_1294_ _0368_ _0370_ _0371_ _0372_ VDD VSS AOI21_X2
X_1295_ _0359_ _0372_ _0287_ _0373_ VDD VSS OAI21_X4
X_1296_ _0367_ _0373_ _0374_ VDD VSS XNOR2_X2
X_1297_ _0315_ _0329_ _0375_ VDD VSS AND2_X1
X_1298_ _0375_ _0328_ _0376_ VDD VSS OR2_X2
X_1299_ _0272_ _0294_ _0290_ _0274_ _0273_ _0377_ VDD VSS
+ AOI221_X2
X_1300_ _0266_ _0377_ net24 _0268_ _0378_ VDD VSS OAI211_X2
X_1301_ _0157_ _0172_ _0379_ VDD VSS NAND2_X1
X_1302_ _0231_ _0324_ _0379_ _0206_ _0314_ _0380_ VDD VSS
+ AOI221_X2
X_1303_ _0174_ net37 _0381_ VDD VSS NOR2_X1
X_1304_ _0160_ _0299_ _0382_ VDD VSS OR2_X1
X_1305_ _0314_ _0206_ _0383_ VDD VSS NAND2_X1
X_1306_ _0381_ _0382_ _0383_ _0320_ _0384_ VDD VSS AOI211_X2
X_1307_ net39 _0378_ _0380_ _0384_ _0385_ VDD VSS OAI22_X4
X_1308_ _0376_ _0385_ _0386_ VDD VSS NOR2_X1
X_1309_ _0386_ _0387_ VDD VSS INV_X2
X_1310_ _0369_ _0360_ _0388_ VDD VSS XNOR2_X2
X_1311_ _0819_ _0389_ VDD VSS CLKBUF_X3
X_1312_ _0288_ net9 _0390_ VDD VSS NOR2_X2
X_1313_ _0389_ _0390_ _0301_ _0391_ VDD VSS NAND3_X4
X_1314_ _0298_ _0392_ VDD VSS INV_X1
X_1315_ _0307_ _0377_ _0327_ _0393_ VDD VSS NAND3_X4
X_1316_ _0279_ net64 _0280_ _0285_ _0394_ VDD VSS NOR4_X4
X_1317_ _0298_ _0276_ _0395_ VDD VSS NAND2_X1
X_1318_ _0392_ _0393_ _0394_ _0395_ _0396_ VDD VSS OAI22_X4
X_1319_ _0298_ _0307_ _0317_ _0276_ _0286_ _0397_ VDD VSS
+ AOI221_X2
X_1320_ _0347_ net46 _0396_ _0397_ _0398_ VDD VSS OAI22_X4
X_1321_ _0398_ _0388_ _0391_ _0387_ _0399_ VDD VSS OR4_X4
X_1322_ net70 _0374_ _0400_ VDD VSS NOR2_X4
X_1323_ _0366_ net72 _0841_ VDD VSS NOR2_X1
X_1324_ _0391_ _0398_ _0401_ VDD VSS OR2_X2
X_1325_ _0288_ net74 _0302_ _0385_ _0402_ VDD VSS NOR4_X1
X_1326_ _0295_ _0327_ _0330_ _0403_ VDD VSS NAND3_X1
X_1327_ _0403_ _0371_ _0370_ _0404_ VDD VSS AOI21_X1
X_1328_ _0402_ _0404_ _0287_ _0405_ VDD VSS OAI21_X1
X_1329_ _0279_ _0393_ net10 _0406_ VDD VSS AOI21_X1
X_1330_ _0224_ _0231_ _0407_ VDD VSS NAND2_X1
X_1331_ _0381_ _0407_ _0299_ _0300_ _0408_ VDD VSS NOR4_X1
X_1332_ _0408_ _0270_ _0217_ _0409_ VDD VSS OAI21_X1
X_1333_ _0406_ _0409_ _0376_ _0410_ VDD VSS AOI21_X2
X_1334_ _0405_ _0410_ _0411_ VDD VSS XOR2_X1
X_1335_ _0276_ _0412_ VDD VSS INV_X1
X_1336_ _0393_ _0412_ _0394_ _0413_ VDD VSS OAI21_X2
X_1337_ net44 _0413_ _0376_ _0388_ _0414_ VDD VSS NOR4_X2
X_1338_ _0359_ _0372_ _0415_ VDD VSS NAND2_X1
X_1339_ _0357_ _0414_ _0354_ _0415_ _0376_ _0416_ VDD VSS
+ OAI221_X1
X_1340_ _0401_ _0411_ _0416_ _0417_ VDD VSS OR3_X2
X_1341_ net28 _0387_ _0373_ _0418_ VDD VSS NOR3_X2
X_1342_ _0361_ _0418_ _0419_ VDD VSS XNOR2_X2
X_1343_ _0400_ _0417_ _0419_ _0420_ VDD VSS AOI21_X4
X_1344_ _0387_ _0373_ _0421_ VDD VSS OR2_X1
X_1345_ _0367_ _0421_ _0422_ VDD VSS XOR2_X2
X_1346_ _0366_ _0389_ _0423_ VDD VSS XNOR2_X2
X_1347_ _0821_ _0424_ VDD VSS BUF_X2
X_1348_ _0424_ _0425_ VDD VSS INV_X1
X_1349_ _0288_ net9 _0426_ VDD VSS OR2_X1
X_1350_ _0425_ _0426_ net85 _0427_ VDD VSS NOR3_X4
X_1351_ _0413_ net47 _0326_ _0428_ VDD VSS NOR3_X1
X_1352_ _0359_ _0404_ _0287_ _0429_ VDD VSS OAI21_X1
X_1353_ _0326_ _0429_ _0430_ VDD VSS AND2_X1
X_1354_ _0389_ net44 _0347_ _0354_ _0357_ _0431_ VDD VSS OAI221_X2
X_1355_ _0431_ _0362_ _0365_ _0432_ VDD VSS AOI21_X4
X_1356_ _0224_ _0217_ _0270_ _0433_ VDD VSS OAI21_X1
X_1357_ _0298_ _0224_ _0217_ _0412_ _0394_ _0434_ VDD VSS
+ OAI221_X2
X_1358_ _0433_ _0434_ _0347_ net75 _0435_ VDD VSS OAI211_X2
X_1359_ _0301_ _0435_ _0436_ VDD VSS XOR2_X2
X_1360_ _0427_ _0428_ _0430_ _0432_ _0436_ _0437_ VDD VSS
+ OAI221_X2
X_1361_ _0405_ _0410_ _0438_ VDD VSS XNOR2_X1
X_1362_ _0354_ _0357_ _0439_ VDD VSS OR2_X1
X_1363_ _0439_ _0414_ _0354_ _0415_ _0387_ _0440_ VDD VSS
+ OAI221_X2
X_1364_ _0438_ _0374_ _0399_ _0401_ _0440_ _0441_ VDD VSS
+ OAI221_X2
X_1365_ _0437_ _0423_ _0400_ _0441_ _0442_ VDD VSS NOR4_X4
X_1366_ _0420_ _0422_ _0442_ _0844_ VDD VSS AOI21_X4
X_1367_ _0420_ net20 _0443_ VDD VSS NAND2_X1
X_1368_ _0367_ _0373_ _0444_ VDD VSS XOR2_X2
X_1369_ _0387_ _0388_ _0391_ net49 _0445_ VDD VSS NOR4_X4
X_1370_ _0444_ _0445_ _0446_ VDD VSS NAND2_X2
X_1371_ _0391_ net48 _0447_ VDD VSS NOR2_X1
X_1372_ _0386_ _0366_ _0447_ _0448_ VDD VSS NAND3_X1
X_1373_ _0446_ _0421_ _0448_ _0449_ VDD VSS NAND3_X1
X_1374_ _0367_ _0449_ _0450_ VDD VSS XOR2_X2
X_1375_ _0443_ _0450_ _0442_ _0451_ VDD VSS OAI21_X2
X_1376_ _0451_ _0452_ VDD VSS INV_X1
X_1377_ net73 _0423_ _0437_ _0453_ VDD VSS NOR3_X1
X_1378_ _0385_ _0440_ _0391_ net49 _0454_ VDD VSS NOR4_X1
X_1379_ _0400_ _0454_ _0455_ VDD VSS NOR2_X1
X_1380_ _0330_ _0411_ _0455_ _0456_ VDD VSS MUX2_X1
X_1381_ _0420_ _0453_ _0456_ _0457_ VDD VSS NAND3_X1
X_1382_ net71 _0423_ _0437_ _0458_ VDD VSS OR3_X1
X_1383_ _0417_ _0419_ _0459_ VDD VSS NAND2_X1
X_1384_ _0446_ _0459_ _0460_ VDD VSS NAND2_X1
X_1385_ _0458_ _0450_ _0460_ _0461_ VDD VSS AOI21_X1
X_1386_ _0457_ _0461_ _0456_ _0462_ VDD VSS OAI21_X2
X_1387_ net71 _0447_ _0366_ _0463_ VDD VSS AOI21_X2
X_1388_ _0463_ _0838_ _0303_ _0464_ VDD VSS OAI21_X1
X_1389_ _0326_ _0464_ _0465_ VDD VSS XNOR2_X1
X_1390_ _0389_ _0366_ _0466_ VDD VSS NAND2_X1
X_1391_ _0426_ _0398_ _0466_ _0467_ VDD VSS NOR3_X1
X_1392_ _0463_ _0467_ _0436_ _0468_ VDD VSS OAI21_X2
X_1393_ _0396_ net21 _0469_ VDD VSS NOR2_X1
X_1394_ _0348_ _0469_ _0470_ VDD VSS NOR2_X2
X_1395_ _0446_ _0466_ _0471_ VDD VSS NAND2_X1
X_1396_ _0424_ _0374_ _0399_ _0472_ VDD VSS OAI21_X1
X_1397_ _0423_ _0472_ _0417_ _0419_ _0473_ VDD VSS AOI211_X2
X_1398_ _0471_ _0473_ _0422_ net20 _0474_ VDD VSS AOI211_X2
X_1399_ _0470_ _0474_ _0475_ VDD VSS OR2_X2
X_1400_ _0470_ _0474_ _0476_ VDD VSS NAND2_X1
X_1401_ _0465_ _0468_ _0475_ _0476_ _0477_ VDD VSS AOI211_X2
X_1402_ _0459_ _0423_ _0422_ _0442_ _0478_ VDD VSS AOI211_X4
X_1403_ _0417_ _0419_ _0479_ VDD VSS AND2_X1
X_1404_ _0424_ _0423_ _0480_ VDD VSS NAND2_X1
X_1405_ _0425_ _0446_ _0481_ VDD VSS NAND2_X1
X_1406_ _0479_ _0480_ _0481_ _0423_ _0482_ VDD VSS OAI22_X2
X_1407_ _0851_ _0478_ _0482_ _0483_ VDD VSS OAI21_X4
X_1408_ _0298_ _0287_ net40 _0484_ VDD VSS OAI21_X2
X_1409_ _0390_ net40 _0287_ _0485_ VDD VSS AOI21_X2
X_1410_ net41 _0445_ _0444_ _0486_ VDD VSS AOI21_X2
X_1411_ _0392_ _0413_ _0486_ _0487_ VDD VSS OAI21_X2
X_1412_ _0426_ _0838_ _0486_ _0488_ VDD VSS AOI21_X2
X_1413_ _0484_ _0485_ _0487_ _0488_ _0489_ VDD VSS AOI22_X4
X_1414_ net71 _0423_ _0490_ VDD VSS NOR2_X1
X_1415_ _0424_ _0470_ _0490_ _0491_ VDD VSS NAND3_X1
X_1416_ _0489_ _0491_ net42 _0492_ VDD VSS OAI21_X2
X_1417_ _0390_ net42 _0491_ _0493_ VDD VSS OR3_X4
X_1418_ _0483_ _0492_ _0493_ _0494_ VDD VSS AOI21_X4
X_1419_ _0824_ _0490_ _0495_ VDD VSS AND2_X1
X_1420_ _0844_ _0424_ _0850_ VDD VSS XNOR2_X2
X_1421_ _0029_ _0032_ _0496_ VDD VSS NAND2_X1
X_1422_ _0489_ _0495_ net76 _0496_ _0497_ VDD VSS AND4_X1
X_1423_ _0462_ _0477_ _0497_ _0494_ _0498_ VDD VSS OAI211_X2
X_1424_ _0498_ _0452_ _0847_ VDD VSS AND2_X2
X_1425_ _0852_ _0499_ VDD VSS INV_X1
X_1426_ _0478_ _0482_ _0500_ VDD VSS NOR2_X1
X_1427_ _0851_ _0500_ _0501_ VDD VSS XOR2_X1
X_1428_ _0824_ _0499_ _0452_ _0501_ _0502_ VDD VSS NOR4_X1
X_1429_ _0495_ net76 _0503_ VDD VSS NAND2_X1
X_1430_ _0451_ _0503_ _0504_ VDD VSS NOR2_X1
X_1431_ _0502_ _0504_ _0498_ _0505_ VDD VSS AOI21_X1
X_1432_ _0023_ _0506_ VDD VSS INV_X1
X_1433_ _0026_ net4 net3 _0507_ VDD VSS NOR3_X2
X_1434_ _0506_ _0858_ _0507_ _0508_ VDD VSS NAND3_X2
X_1435_ net5 net6 _0508_ _0509_ VDD VSS NOR3_X1
X_1436_ _0826_ _0509_ _0510_ VDD VSS NOR2_X1
X_1437_ _0833_ _0511_ VDD VSS INV_X1
X_1438_ _0839_ _0512_ VDD VSS INV_X1
X_1439_ _0845_ _0848_ _0846_ _0513_ VDD VSS AOI21_X2
X_1440_ _0513_ _0514_ VDD VSS INV_X2
X_1441_ _0842_ _0843_ _0514_ _0515_ VDD VSS AOI21_X4
X_1442_ _0840_ _0516_ VDD VSS INV_X1
X_1443_ _0512_ _0515_ _0516_ _0517_ VDD VSS OAI21_X4
X_1444_ _0836_ _0517_ _0837_ _0518_ VDD VSS AOI21_X4
X_1445_ _0834_ _0519_ VDD VSS INV_X1
X_1446_ _0511_ _0519_ _0518_ _0520_ VDD VSS OAI21_X4
X_1447_ _0830_ _0520_ _0831_ _0521_ VDD VSS AOI21_X4
X_1448_ _0827_ _0522_ VDD VSS INV_X1
X_1449_ _0510_ _0521_ _0522_ _0523_ VDD VSS OAI21_X4
X_1450_ _0523_ counter\[0\] _0524_ VDD VSS OR2_X4
X_1451_ _0465_ _0524_ _0496_ _0525_ VDD VSS OR3_X4
X_1452_ _0525_ _0492_ _0493_ _0526_ VDD VSS AOI21_X4
X_1453_ _0452_ _0468_ _0503_ _0527_ VDD VSS NOR3_X1
X_1454_ _0451_ _0489_ _0495_ net76 _0528_ VDD VSS NAND4_X1
X_1455_ _0475_ _0476_ _0468_ _0528_ _0529_ VDD VSS AOI22_X1
X_1456_ _0526_ _0527_ _0529_ _0530_ VDD VSS OAI21_X2
X_1457_ _0837_ _0843_ _0846_ _0849_ _0531_ VDD VSS NAND4_X1
X_1458_ _0827_ _0840_ _0831_ _0834_ _0532_ VDD VSS NAND4_X1
X_1459_ _0531_ _0532_ _0533_ VDD VSS NOR2_X1
X_1460_ _0425_ _0489_ _0495_ _0534_ VDD VSS NAND3_X1
X_1461_ _0844_ _0534_ _0535_ VDD VSS NOR2_X1
X_1462_ _0424_ net42 _0489_ _0495_ _0536_ VDD VSS AND4_X1
X_1463_ net65 _0535_ _0536_ net38 _0451_ _0537_ VDD VSS OAI221_X2
X_1464_ _0452_ _0462_ _0538_ VDD VSS NOR2_X1
X_1465_ _0477_ _0489_ _0495_ net77 _0539_ VDD VSS AND4_X1
X_1466_ _0462_ _0537_ _0538_ _0539_ _0540_ VDD VSS AOI22_X2
X_1467_ _0530_ _0505_ _0533_ _0523_ _0540_ _0524_ _0000_ VDD
+ VSS OAI222_X2
X_1468_ _0030_ _0031_ _0032_ _0541_ VDD VSS NOR3_X1
X_1469_ _0028_ _0541_ _0862_ VDD VSS XNOR2_X1
X_1470_ _0030_ _0858_ _0865_ VDD VSS XNOR2_X1
X_1471_ _0031_ _0857_ VDD VSS INV_X1
X_1472_ _0032_ _0854_ VDD VSS INV_X1
X_1473_ _0857_ _0854_ _0507_ _0542_ VDD VSS NAND3_X1
X_1474_ net2 _0023_ _0542_ _0543_ VDD VSS NOR3_X1
X_1475_ net6 _0543_ _0868_ VDD VSS XNOR2_X1
X_1476_ net2 _0508_ _0871_ VDD VSS XOR2_X2
X_1477_ _0506_ _0542_ _0874_ VDD VSS XNOR2_X1
X_1478_ _0858_ _0544_ VDD VSS INV_X1