* CDL Netlist generated by OpenROAD

*.BUSDELIMITER [

.SUBCKT floating_point_adder a[0] a[10] a[11] a[12] a[13]
+ a[14] a[15] a[16] a[17] a[18] a[19] a[1] a[20] a[21] a[22]
+ a[23] a[24] a[25] a[26] a[27] a[28] a[29] a[2] a[30] a[31]
+ a[3] a[4] a[5] a[6] a[7] a[8] a[9] b[0] b[10] b[11] b[12]
+ b[13] b[14] b[15] b[16] b[17] b[18] b[19] b[1] b[20] b[21]
+ b[22] b[23] b[24] b[25] b[26] b[27] b[28] b[29] b[2] b[30]
+ b[31] b[3] b[4] b[5] b[6] b[7] b[8] b[9] clk inexact invalid_op
+ overflow result[0] result[10] result[11] result[12] result[13]
+ result[14] result[15] result[16] result[17] result[18] result[19]
+ result[1] result[20] result[21] result[22] result[23] result[24]
+ result[25] result[26] result[27] result[28] result[29] result[2]
+ result[30] result[31] result[3] result[4] result[5] result[6]
+ result[7] result[8] result[9] rst_n underflow valid_in valid_out
X_2348_ add_result\[25\] _1551_ VDD VSS BUF_X4
X_2349_ _1551_ _1552_ VDD VSS INV_X2
X_2350_ _1552_ _0020_ _1553_ VDD VSS NAND2_X2
X_2351_ _0021_ _1554_ VDD VSS INV_X1
X_2352_ _0023_ _1555_ VDD VSS BUF_X2
X_2353_ add_result\[20\] _1556_ VDD VSS INV_X1
X_2354_ _1555_ add_result\[21\] _1556_ _1557_ VDD VSS OAI21_X1
X_2355_ _0022_ _1558_ VDD VSS CLKBUF_X2
X_2356_ _1554_ _1557_ _1558_ _1559_ VDD VSS AOI21_X2
X_2357_ _1553_ _1559_ _1560_ VDD VSS NOR2_X4
X_2358_ _1560_ _1561_ VDD VSS CLKBUF_X3
X_2359_ _1561_ _2125_ VDD VSS BUF_X4
X_2360_ _1558_ _1562_ VDD VSS INV_X1
X_2361_ add_result\[20\] add_result\[21\] _1563_ VDD VSS NOR2_X1
X_2362_ add_result\[22\] _1562_ _1563_ _1564_ VDD VSS NOR3_X1
X_2363_ add_result\[24\] _1553_ _1564_ _1565_ VDD VSS OR3_X1
X_2364_ _1565_ _1566_ VDD VSS BUF_X2
X_2365_ _1566_ _1567_ VDD VSS CLKBUF_X3
X_2366_ _1567_ _2132_ VDD VSS CLKBUF_X3
X_2367_ _2132_ _2004_ VDD VSS INV_X1
X_2368_ add_result\[22\] add_result\[24\] add_result\[23\]
+ _1551_ _1568_ VDD VSS NOR4_X4
X_2369_ _0020_ _1568_ _1569_ VDD VSS NAND2_X1
X_2370_ _1569_ _1570_ VDD VSS INV_X1
X_2371_ _1570_ _2136_ VDD VSS CLKBUF_X3
X_2372_ net38 _2050_ VDD VSS INV_X1
X_2373_ net47 _2056_ VDD VSS INV_X1
X_2374_ net50 _2053_ VDD VSS INV_X1
X_2375_ net51 _2068_ VDD VSS INV_X1
X_2376_ net52 _2065_ VDD VSS INV_X1
X_2377_ b[6] _1571_ VDD VSS BUF_X1
X_2378_ _1571_ _2062_ VDD VSS INV_X1
X_2379_ b[7] _1572_ VDD VSS BUF_X1
X_2380_ _1572_ _2059_ VDD VSS INV_X1
X_2381_ b[8] _1573_ VDD VSS BUF_X1
X_2382_ _1573_ _2092_ VDD VSS INV_X1
X_2383_ b[9] _1574_ VDD VSS BUF_X1
X_2384_ _1574_ _2089_ VDD VSS INV_X1
X_2385_ net34 _2086_ VDD VSS INV_X1
X_2386_ net35 _2083_ VDD VSS INV_X2
X_2387_ net36 _2080_ VDD VSS INV_X1
X_2388_ b[13] _1575_ VDD VSS BUF_X2
X_2389_ _1575_ _2077_ VDD VSS INV_X1
X_2390_ b[14] _1576_ VDD VSS CLKBUF_X2
X_2391_ _1576_ _2074_ VDD VSS INV_X1
X_2392_ net37 _2071_ VDD VSS INV_X1
X_2393_ b[16] _1577_ VDD VSS BUF_X2
X_2394_ _1577_ _2104_ VDD VSS INV_X1
X_2395_ b[17] _1578_ VDD VSS BUF_X2
X_2396_ _1578_ _2101_ VDD VSS INV_X1
X_2397_ b[18] _1579_ VDD VSS BUF_X2
X_2398_ _1579_ _2098_ VDD VSS INV_X1
X_2399_ b[19] _1580_ VDD VSS BUF_X2
X_2400_ _1580_ _2095_ VDD VSS INV_X1
X_2401_ net39 _2110_ VDD VSS INV_X1
X_2402_ b[21] _1581_ VDD VSS BUF_X2
X_2403_ _1581_ _2107_ VDD VSS INV_X1
X_2404_ b[22] _1582_ VDD VSS BUF_X2
X_2405_ _1582_ _2113_ VDD VSS INV_X1
X_2406_ net24 _2007_ VDD VSS INV_X1
X_2407_ net22 _2013_ VDD VSS INV_X1
X_2408_ net21 _2019_ VDD VSS INV_X1
X_2409_ net20 _2025_ VDD VSS INV_X1
X_2410_ net19 _2031_ VDD VSS INV_X1
X_2411_ net18 _2037_ VDD VSS INV_X1
X_2412_ net17 _1994_ VDD VSS INV_X1
X_2413_ net1 _2047_ VDD VSS INV_X1
X_2414_ _2120_ _1995_ VDD VSS INV_X1
X_2415_ _2117_ _1999_ VDD VSS INV_X1
X_2416_ net16 _2116_ VDD VSS INV_X1
X_2417_ net48 _2010_ VDD VSS INV_X1
X_2418_ net46 _2016_ VDD VSS INV_X1
X_2419_ net45 _2022_ VDD VSS INV_X1
X_2420_ net44 _2028_ VDD VSS INV_X1
X_2421_ net43 _2034_ VDD VSS INV_X1
X_2422_ net42 _2040_ VDD VSS INV_X1
X_2423_ net41 _1998_ VDD VSS INV_X1
X_2424_ net40 _2119_ VDD VSS INV_X1
X_2425_ _2125_ _2127_ VDD VSS INV_X1
X_2426_ _1569_ _1583_ VDD VSS CLKBUF_X3
X_2427_ _1583_ _2139_ VDD VSS CLKBUF_X3
X_2428_ rst_n _1584_ VDD VSS BUF_X1
X_2429_ _1584_ _1585_ VDD VSS INV_X2
X_2430_ _1585_ _1586_ VDD VSS BUF_X4
X_2431_ _1585_ _1587_ VDD VSS BUF_X4
X_2432_ add_result\[26\] _1588_ VDD VSS BUF_X4
X_2433_ _1588_ _1589_ VDD VSS INV_X4
X_2434_ add_result\[3\] add_result\[9\] add_result\[12\] add_result\[14\]
+ _1590_ VDD VSS NOR4_X2
X_2435_ add_result\[13\] add_result\[16\] add_result\[15\]
+ add_result\[18\] _1591_ VDD VSS NOR4_X4
X_2436_ add_result\[4\] add_result\[17\] add_result\[19\]
+ _1592_ VDD VSS NOR3_X2
X_2437_ _1568_ _1590_ _1591_ _1592_ _1593_ VDD VSS NAND4_X4
X_2438_ add_result\[5\] add_result\[8\] add_result\[7\] add_result\[10\]
+ _1594_ VDD VSS NOR4_X2
X_2439_ add_result\[6\] add_result\[11\] _1595_ VDD VSS NOR2_X1
X_2440_ _1563_ _1594_ _1595_ _1596_ VDD VSS NAND3_X2
X_2441_ _1589_ _1593_ _1596_ _1597_ VDD VSS OAI21_X4
X_2442_ _1587_ _1597_ _1598_ VDD VSS NOR2_X2
X_2443_ result_exp_stage2\[3\] _1599_ VDD VSS BUF_X4
X_2444_ _2142_ _1600_ VDD VSS INV_X2
X_2445_ _1599_ result_exp_stage2\[2\] _1600_ _1601_ VDD VSS
+ NOR3_X4
X_2446_ result_exp_stage2\[7\] _1602_ VDD VSS BUF_X4
X_2447_ result_exp_stage2\[6\] _1603_ VDD VSS BUF_X4
X_2448_ result_exp_stage2\[5\] _1604_ VDD VSS BUF_X4
X_2449_ result_exp_stage2\[4\] _1605_ VDD VSS BUF_X4
X_2450_ _1602_ _1603_ _1604_ _1605_ _1606_ VDD VSS NOR4_X4
X_2451_ _1599_ _1607_ VDD VSS INV_X2
X_2452_ _1607_ _2137_ _1608_ VDD VSS NAND2_X1
X_2453_ _2131_ _1609_ VDD VSS INV_X1
X_2454_ _2126_ _1610_ VDD VSS INV_X1
X_2455_ _1609_ _2128_ _1610_ _1611_ VDD VSS AOI21_X1
X_2456_ _2130_ _1611_ _1612_ VDD VSS NOR2_X1
X_2457_ _2138_ _1613_ VDD VSS BUF_X1
X_2458_ _0024_ _1613_ _1614_ VDD VSS NAND2_X1
X_2459_ _1608_ _1612_ _1614_ _1615_ VDD VSS OAI21_X2
X_2460_ _1606_ _1615_ _1616_ VDD VSS AND2_X1
X_2461_ _1616_ _1617_ VDD VSS BUF_X4
X_2462_ _1551_ _1601_ _1617_ _1618_ VDD VSS AOI21_X4
X_2463_ _1618_ _1619_ VDD VSS BUF_X4
X_2464_ result_exp_stage2\[0\] _1620_ VDD VSS CLKBUF_X3
X_2465_ _0006_ _0007_ _1620_ _1621_ VDD VSS MUX2_X1
X_2466_ _1620_ _1622_ VDD VSS CLKBUF_X3
X_2467_ _0004_ _0005_ _1622_ _1623_ VDD VSS MUX2_X1
X_2468_ _2143_ _1624_ VDD VSS CLKBUF_X3
X_2469_ _1624_ _1625_ VDD VSS INV_X1
X_2470_ _1625_ _1626_ VDD VSS CLKBUF_X3
X_2471_ _1621_ _1623_ _1626_ _1627_ VDD VSS MUX2_X1
X_2472_ result_exp_stage2\[2\] _1628_ VDD VSS BUF_X4
X_2473_ _1628_ _2142_ _1629_ VDD VSS XNOR2_X2
X_2474_ _1629_ _1630_ VDD VSS BUF_X4
X_2475_ _1627_ _1630_ _1631_ VDD VSS AND2_X1
X_2476_ _0002_ _1632_ VDD VSS BUF_X1
X_2477_ _0003_ _1633_ VDD VSS CLKBUF_X2
X_2478_ _1632_ _1633_ _1622_ _1634_ VDD VSS MUX2_X1
X_2479_ _0000_ _1635_ VDD VSS BUF_X2
X_2480_ _0001_ _1636_ VDD VSS BUF_X2
X_2481_ _1635_ _1636_ _1620_ _1637_ VDD VSS MUX2_X1
X_2482_ _1634_ _1637_ _1625_ _1638_ VDD VSS MUX2_X1
X_2483_ _1628_ _2142_ _1639_ VDD VSS XOR2_X2
X_2484_ _1639_ _1640_ VDD VSS CLKBUF_X3
X_2485_ _1604_ _1641_ VDD VSS INV_X2
X_2486_ _1603_ _1642_ VDD VSS INV_X2
X_2487_ _1605_ _1599_ _1628_ _1600_ _1643_ VDD VSS OR4_X2
X_2488_ _1602_ _1642_ _1643_ _1644_ VDD VSS NOR3_X2
X_2489_ _1605_ _1599_ _1628_ _1600_ _1645_ VDD VSS NOR4_X4
X_2490_ _1602_ _1642_ _1646_ VDD VSS NAND2_X1
X_2491_ _1605_ _1599_ _1647_ VDD VSS NOR2_X2
X_2492_ result_exp_stage2\[2\] result_exp_stage2\[1\] _1620_
+ _1648_ VDD VSS NOR3_X4
X_2493_ _1647_ _1648_ _1649_ VDD VSS NAND2_X4
X_2494_ _1645_ _1646_ _1649_ _1650_ VDD VSS NOR3_X2
X_2495_ _1641_ _1644_ _1650_ _1651_ VDD VSS OAI21_X4
X_2496_ _1604_ _1643_ _1649_ _1652_ VDD VSS AOI21_X4
X_2497_ _1602_ _1603_ _1652_ _1653_ VDD VSS OR3_X4
X_2498_ _1631_ _1638_ _1640_ _1651_ _1653_ _1654_ VDD VSS
+ AOI221_X2
X_2499_ _1607_ _1648_ _1655_ VDD VSS XNOR2_X2
X_2500_ _1605_ _1601_ _1656_ VDD VSS XNOR2_X2
X_2501_ _1641_ _1649_ _1657_ VDD VSS XNOR2_X2
X_2502_ _1656_ _1657_ _1658_ VDD VSS NAND2_X2
X_2503_ _1655_ _1658_ _1659_ VDD VSS NOR2_X2
X_2504_ _1617_ _1659_ _1660_ VDD VSS NAND2_X1
X_2505_ _1660_ _1661_ VDD VSS INV_X1
X_2506_ _0005_ _0007_ _1567_ _1662_ VDD VSS MUX2_X1
X_2507_ _0004_ _0006_ _1566_ _1663_ VDD VSS MUX2_X1
X_2508_ _1662_ _1663_ _1561_ _1664_ VDD VSS MUX2_X1
X_2509_ _2136_ _1664_ _1665_ VDD VSS OR2_X1
X_2510_ _1636_ _1633_ _1566_ _1666_ VDD VSS MUX2_X1
X_2511_ _1635_ _1632_ _1566_ _1667_ VDD VSS MUX2_X1
X_2512_ _1666_ _1667_ _1560_ _1668_ VDD VSS MUX2_X1
X_2513_ _1665_ _1668_ _2139_ _1669_ VDD VSS OAI21_X1
X_2514_ _1606_ _1615_ _1670_ VDD VSS NAND2_X4
X_2515_ _1670_ _1671_ VDD VSS BUF_X4
X_2516_ _1654_ _1661_ _1669_ _1671_ _1672_ VDD VSS AOI22_X2
X_2517_ _1551_ _1673_ VDD VSS BUF_X4
X_2518_ _1673_ _1674_ VDD VSS CLKBUF_X3
X_2519_ _0007_ _1619_ _1672_ _1674_ _1675_ VDD VSS OAI22_X2
X_2520_ _1587_ _1589_ _1676_ VDD VSS NOR2_X1
X_2521_ _1676_ _1677_ VDD VSS BUF_X4
X_2522_ _1586_ final_mant\[7\] _1598_ _1675_ _1677_ add_result\[10\]
+ _1678_ VDD VSS AOI222_X2
X_2523_ _1678_ _0025_ VDD VSS INV_X1
X_2524_ _1588_ _1679_ VDD VSS BUF_X4
X_2525_ _1593_ _1596_ _1680_ VDD VSS NOR2_X2
X_2526_ _1588_ _1680_ _1681_ VDD VSS NOR2_X4
X_2527_ _1651_ _1653_ _1682_ VDD VSS NAND2_X4
X_2528_ _1599_ _1648_ _1683_ VDD VSS XNOR2_X2
X_2529_ _1633_ _0004_ _1622_ _1684_ VDD VSS MUX2_X1
X_2530_ _1626_ _1684_ _1685_ VDD VSS OR2_X1
X_2531_ _1620_ _1686_ VDD VSS CLKBUF_X3
X_2532_ _1636_ _1632_ _1686_ _1687_ VDD VSS MUX2_X1
X_2533_ _1624_ _1688_ VDD VSS CLKBUF_X3
X_2534_ _1685_ _1687_ _1688_ _1689_ VDD VSS OAI21_X2
X_2535_ _1640_ _1683_ _1689_ _1690_ VDD VSS NAND3_X1
X_2536_ _0007_ _0008_ _1622_ _1691_ VDD VSS MUX2_X1
X_2537_ _0005_ _0006_ _1622_ _1692_ VDD VSS MUX2_X1
X_2538_ _1691_ _1692_ _1626_ _1693_ VDD VSS MUX2_X1
X_2539_ _1655_ _1693_ _1694_ VDD VSS NOR2_X1
X_2540_ _2124_ _1626_ _1695_ VDD VSS OR2_X1
X_2541_ _1635_ _1695_ _1696_ VDD VSS NOR2_X1
X_2542_ _1694_ _1696_ _1655_ _1697_ VDD VSS AOI21_X1
X_2543_ _1640_ _1698_ VDD VSS CLKBUF_X3
X_2544_ _1690_ _1697_ _1698_ _1699_ VDD VSS OAI21_X1
X_2545_ _1682_ _1699_ _1700_ VDD VSS NAND2_X1
X_2546_ _1656_ _1657_ _1701_ VDD VSS AND2_X1
X_2547_ _1617_ _1701_ _1702_ VDD VSS NAND2_X2
X_2548_ _1632_ _0004_ _1567_ _1703_ VDD VSS MUX2_X1
X_2549_ _1703_ _1666_ _1560_ _1704_ VDD VSS MUX2_X1
X_2550_ _0006_ _0008_ _1567_ _1705_ VDD VSS MUX2_X1
X_2551_ _1705_ _1662_ _1561_ _1706_ VDD VSS MUX2_X1
X_2552_ _1704_ _1706_ _1569_ _1707_ VDD VSS MUX2_X1
X_2553_ _1617_ _1708_ VDD VSS CLKBUF_X3
X_2554_ _1700_ _1702_ _1707_ _1708_ _1709_ VDD VSS OAI22_X1
X_2555_ _1552_ _1709_ _1710_ VDD VSS NAND2_X1
X_2556_ _1710_ _1619_ _0008_ _1711_ VDD VSS OAI21_X1
X_2557_ _1586_ _1679_ add_result\[11\] _1681_ _1711_ _1712_
+ VDD VSS AOI221_X2
X_2558_ final_mant\[8\] _1713_ VDD VSS INV_X1
X_2559_ _1586_ _1714_ VDD VSS CLKBUF_X3
X_2560_ _1712_ _1713_ _1714_ _0026_ VDD VSS AOI21_X1
X_2561_ _1679_ add_result\[12\] _1715_ VDD VSS NAND2_X1
X_2562_ _0009_ _1619_ _1716_ VDD VSS NOR2_X1
X_2563_ _1626_ _1637_ _1717_ VDD VSS NOR2_X1
X_2564_ _1602_ _1603_ _1652_ _1718_ VDD VSS NOR3_X4
X_2565_ _1602_ _1719_ VDD VSS INV_X1
X_2566_ _1719_ _1603_ _1645_ _1720_ VDD VSS NAND3_X2
X_2567_ _1645_ _1646_ _1649_ _1721_ VDD VSS OR3_X2
X_2568_ _1604_ _1720_ _1721_ _1722_ VDD VSS AOI21_X4
X_2569_ _1717_ _1718_ _1722_ _1723_ VDD VSS OAI21_X4
X_2570_ _1698_ _1683_ _1723_ _1724_ VDD VSS NOR3_X1
X_2571_ _0008_ _0009_ _1620_ _1725_ VDD VSS MUX2_X1
X_2572_ _1621_ _1725_ _1624_ _1726_ VDD VSS MUX2_X1
X_2573_ _1630_ _1726_ _1727_ VDD VSS AND2_X1
X_2574_ _1623_ _1634_ _1626_ _1728_ VDD VSS MUX2_X1
X_2575_ _1727_ _1728_ _1640_ _1651_ _1653_ _1729_ VDD VSS
+ AOI221_X2
X_2576_ _1724_ _1729_ _1683_ _1730_ VDD VSS AOI21_X1
X_2577_ _1633_ _0005_ _1566_ _1731_ VDD VSS MUX2_X1
X_2578_ _1731_ _1703_ _1560_ _1732_ VDD VSS MUX2_X1
X_2579_ _0007_ _0009_ _1566_ _1733_ VDD VSS MUX2_X1
X_2580_ _1733_ _1705_ _1561_ _1734_ VDD VSS MUX2_X1
X_2581_ _1732_ _1734_ _1583_ _1735_ VDD VSS MUX2_X1
X_2582_ _1702_ _1730_ _1735_ _1708_ _1736_ VDD VSS OAI22_X1
X_2583_ _1552_ _1737_ VDD VSS CLKBUF_X3
X_2584_ _1716_ _1736_ _1737_ _1738_ VDD VSS AOI21_X1
X_2585_ _1715_ _1738_ _1597_ _1739_ VDD VSS OAI21_X1
X_2586_ _1584_ _1740_ VDD VSS BUF_X4
X_2587_ _1740_ _1741_ VDD VSS BUF_X4
X_2588_ final_mant\[9\] _1739_ _1741_ _0027_ VDD VSS MUX2_X1
X_2589_ _1605_ _1742_ VDD VSS INV_X2
X_2590_ _1642_ _1641_ _1742_ _1607_ _1743_ VDD VSS NOR4_X4
X_2591_ _1602_ _1628_ _2144_ _1743_ _1744_ VDD VSS NAND4_X4
X_2592_ _2124_ _1677_ _1744_ _1745_ VDD VSS NAND3_X1
X_2593_ _1673_ _1746_ VDD VSS BUF_X4
X_2594_ _1598_ _1671_ _1746_ _1747_ VDD VSS OAI21_X4
X_2595_ _2126_ _2124_ _1674_ _1748_ VDD VSS MUX2_X1
X_2596_ final_exp\[0\] _1749_ VDD VSS INV_X1
X_2597_ _1740_ _1750_ VDD VSS BUF_X2
X_2598_ _1745_ _1747_ _1748_ _1749_ _1750_ _0166_ VDD VSS
+ OAI221_X1
X_2599_ _1586_ _1751_ VDD VSS CLKBUF_X3
X_2600_ _1751_ final_exp\[1\] _1677_ _1688_ _1752_ VDD VSS
+ AOI22_X1
X_2601_ _1746_ _2002_ _1753_ VDD VSS NAND2_X1
X_2602_ _1753_ _2006_ _1746_ _1754_ VDD VSS OAI21_X1
X_2603_ _1752_ _1754_ _1747_ _0167_ VDD VSS OAI21_X1
X_2604_ _1628_ _2146_ _1755_ VDD VSS AND2_X1
X_2605_ _1628_ _2146_ _1756_ VDD VSS NOR2_X1
X_2606_ _1744_ _1755_ _1756_ _1757_ VDD VSS OAI21_X1
X_2607_ _1741_ _1679_ _1757_ _1758_ VDD VSS NAND3_X1
X_2608_ _2005_ _1613_ _1759_ VDD VSS XOR2_X1
X_2609_ _2135_ _1759_ _1737_ _1760_ VDD VSS MUX2_X1
X_2610_ final_exp\[2\] _1761_ VDD VSS INV_X1
X_2611_ _1758_ _1760_ _1747_ _1761_ _1750_ _0168_ VDD VSS
+ OAI221_X1
X_2612_ _1628_ result_exp_stage2\[1\] _1686_ _1762_ VDD VSS
+ NAND3_X1
X_2613_ _1607_ _1762_ _1763_ VDD VSS XNOR2_X1
X_2614_ _1589_ _1744_ _1763_ _1764_ VDD VSS AOI21_X1
X_2615_ _1741_ _1764_ _1765_ VDD VSS NAND2_X1
X_2616_ _2133_ _1766_ VDD VSS INV_X1
X_2617_ _1766_ _1609_ _2003_ _1767_ VDD VSS OAI21_X1
X_2618_ _2140_ _1613_ _1767_ _1768_ VDD VSS AOI21_X1
X_2619_ _1599_ _1768_ _1769_ VDD VSS XNOR2_X1
X_2620_ _0024_ _1769_ _1737_ _1770_ VDD VSS MUX2_X1
X_2621_ final_exp\[3\] _1771_ VDD VSS INV_X1
X_2622_ _1765_ _1770_ _1747_ _1771_ _1750_ _0169_ VDD VSS
+ OAI221_X1
X_2623_ _1599_ _1755_ _1772_ VDD VSS NAND2_X1
X_2624_ _1742_ _1772_ _1773_ VDD VSS XNOR2_X1
X_2625_ _1589_ _1744_ _1773_ _1774_ VDD VSS AOI21_X1
X_2626_ _1741_ _1774_ _1775_ VDD VSS NAND2_X1
X_2627_ _0024_ _1776_ VDD VSS INV_X1
X_2628_ _1673_ _1776_ _2140_ _1777_ VDD VSS NOR3_X1
X_2629_ _1613_ _1778_ VDD VSS INV_X1
X_2630_ _1777_ _1778_ _2005_ _1779_ VDD VSS OAI21_X1
X_2631_ _1742_ _1779_ _1780_ VDD VSS XNOR2_X1
X_2632_ final_exp\[4\] _1781_ VDD VSS INV_X1
X_2633_ _1775_ _1780_ _1747_ _1750_ _1781_ _0170_ VDD VSS
+ OAI221_X1
X_2634_ _1742_ _1607_ _1762_ _1782_ VDD VSS NOR3_X1
X_2635_ _1604_ _1782_ _1783_ VDD VSS XNOR2_X1
X_2636_ _1589_ _1744_ _1783_ _1784_ VDD VSS AOI21_X1
X_2637_ _1741_ _1784_ _1785_ VDD VSS NAND2_X1
X_2638_ _1552_ _1647_ _1768_ _1786_ VDD VSS AND3_X1
X_2639_ _1604_ _1786_ _1787_ VDD VSS XNOR2_X1
X_2640_ final_exp\[5\] _1788_ VDD VSS INV_X1
X_2641_ _1785_ _1787_ _1747_ _1750_ _1788_ _0171_ VDD VSS
+ OAI221_X1
X_2642_ _1604_ _1605_ _1599_ _1755_ _1789_ VDD VSS NAND4_X1
X_2643_ _1642_ _1789_ _1790_ VDD VSS XNOR2_X1
X_2644_ _1744_ _1790_ _1791_ VDD VSS NAND2_X1
X_2645_ _1751_ final_exp\[6\] _1677_ _1791_ _1792_ VDD VSS
+ AOI22_X1
X_2646_ _1604_ _1605_ _1779_ _1793_ VDD VSS NOR3_X1
X_2647_ _1603_ _1793_ _1794_ VDD VSS XNOR2_X1
X_2648_ _1792_ _1794_ _1747_ _0172_ VDD VSS OAI21_X1
X_2649_ _1628_ result_exp_stage2\[1\] _1686_ _1743_ _1795_
+ VDD VSS NAND4_X1
X_2650_ _1719_ _1795_ _1796_ VDD VSS XNOR2_X1
X_2651_ _1744_ _1796_ _1797_ VDD VSS NAND2_X1
X_2652_ _1751_ final_exp\[7\] _1677_ _1797_ _1798_ VDD VSS
+ AOI22_X1
X_2653_ _1642_ _1641_ _1786_ _1799_ VDD VSS NAND3_X1
X_2654_ _1719_ _1799_ _1800_ VDD VSS XNOR2_X1
X_2655_ _1798_ _1800_ _1747_ _0173_ VDD VSS OAI21_X1
X_2656_ _1751_ final_mant\[0\] _1801_ VDD VSS NAND2_X1
X_2657_ _1601_ _1606_ _1802_ VDD VSS NAND2_X2
X_2658_ _1722_ _1718_ _1803_ VDD VSS NOR2_X1
X_2659_ _1803_ _1804_ VDD VSS BUF_X4
X_2660_ _1629_ _1683_ _1701_ _1805_ VDD VSS NAND3_X2
X_2661_ _1804_ _1695_ _1805_ _1806_ VDD VSS OR3_X1
X_2662_ _1671_ _1802_ _1806_ _1807_ VDD VSS AOI21_X1
X_2663_ _2127_ _2132_ _1808_ VDD VSS NAND2_X1
X_2664_ _2136_ _1708_ _1808_ _1809_ VDD VSS NOR3_X1
X_2665_ _1674_ _1807_ _1809_ _1810_ VDD VSS NOR3_X1
X_2666_ _1635_ _1597_ _1810_ _1811_ VDD VSS NOR3_X1
X_2667_ _1811_ add_result\[3\] _1679_ _1812_ VDD VSS AOI21_X1
X_2668_ _1586_ _1813_ VDD VSS BUF_X4
X_2669_ _1801_ _1812_ _1813_ _0174_ VDD VSS OAI21_X1
X_2670_ _1670_ _1658_ _1814_ VDD VSS NOR2_X2
X_2671_ _1655_ _1815_ VDD VSS CLKBUF_X3
X_2672_ _0009_ _0010_ _1622_ _1816_ VDD VSS MUX2_X1
X_2673_ _1691_ _1816_ _1624_ _1817_ VDD VSS MUX2_X1
X_2674_ _1630_ _1817_ _1818_ VDD VSS NAND2_X1
X_2675_ _1692_ _1684_ _1626_ _1819_ VDD VSS MUX2_X1
X_2676_ _1640_ _1819_ _1820_ VDD VSS NAND2_X1
X_2677_ _1682_ _1818_ _1820_ _1821_ VDD VSS NAND3_X1
X_2678_ _1626_ _1687_ _1822_ VDD VSS NOR2_X1
X_2679_ _2124_ _1624_ _1635_ _1823_ VDD VSS NOR3_X2
X_2680_ _1722_ _1718_ _1822_ _1823_ _1824_ VDD VSS OAI22_X4
X_2681_ _1630_ _1825_ VDD VSS BUF_X2
X_2682_ _1825_ _1655_ _1826_ VDD VSS NAND2_X1
X_2683_ _1815_ _1821_ _1824_ _1826_ _1827_ VDD VSS OAI22_X2
X_2684_ _0008_ _0010_ _1566_ _1828_ VDD VSS MUX2_X1
X_2685_ _1828_ _1733_ _1560_ _1829_ VDD VSS MUX2_X1
X_2686_ _2136_ _1829_ _1830_ VDD VSS OR2_X1
X_2687_ _1663_ _1731_ _1560_ _1831_ VDD VSS MUX2_X1
X_2688_ _1830_ _1831_ _1583_ _1832_ VDD VSS OAI21_X1
X_2689_ _1814_ _1827_ _1832_ _1670_ _1833_ VDD VSS AOI22_X2
X_2690_ _0010_ _1619_ _1833_ _1673_ _1834_ VDD VSS OAI22_X2
X_2691_ _1587_ _1679_ add_result\[13\] _1681_ _1834_ _1835_
+ VDD VSS AOI221_X2
X_2692_ final_mant\[10\] _1836_ VDD VSS INV_X1
X_2693_ _1586_ _1837_ VDD VSS BUF_X4
X_2694_ _1835_ _1836_ _1837_ _0175_ VDD VSS AOI21_X1
X_2695_ _0011_ _1838_ VDD VSS BUF_X1
X_2696_ _1552_ _1838_ _1839_ VDD VSS OR2_X1
X_2697_ _0009_ _1838_ _1567_ _1840_ VDD VSS MUX2_X1
X_2698_ _1840_ _1828_ _1561_ _1841_ VDD VSS MUX2_X1
X_2699_ _1664_ _1841_ _1583_ _1842_ VDD VSS MUX2_X1
X_2700_ _1670_ _1842_ _1843_ VDD VSS NAND2_X1
X_2701_ _1683_ _1658_ _1844_ VDD VSS NOR2_X2
X_2702_ _1640_ _1638_ _1845_ VDD VSS NOR2_X1
X_2703_ _1682_ _1844_ _1845_ _1846_ VDD VSS NAND3_X1
X_2704_ _1627_ _1640_ _1847_ VDD VSS NAND2_X1
X_2705_ _0010_ _1838_ _1622_ _1848_ VDD VSS MUX2_X1
X_2706_ _1725_ _1848_ _1688_ _1849_ VDD VSS MUX2_X1
X_2707_ _1630_ _1849_ _1850_ VDD VSS NAND2_X1
X_2708_ _1682_ _1847_ _1850_ _1851_ VDD VSS NAND3_X1
X_2709_ _1659_ _1852_ VDD VSS INV_X1
X_2710_ _1599_ _1628_ _1600_ _1853_ VDD VSS OR3_X2
X_2711_ _1846_ _1851_ _1852_ _1853_ _1838_ _1854_ VDD VSS
+ OAI221_X1
X_2712_ _1843_ _1854_ _1670_ _1855_ VDD VSS OAI21_X1
X_2713_ _1839_ _1855_ _1673_ _1856_ VDD VSS OAI21_X1
X_2714_ _1587_ _1679_ add_result\[14\] _1681_ _1856_ _1857_
+ VDD VSS AOI221_X2
X_2715_ final_mant\[11\] _1858_ VDD VSS INV_X1
X_2716_ _1857_ _1858_ _1837_ _0176_ VDD VSS AOI21_X1
X_2717_ _1679_ add_result\[15\] _1859_ VDD VSS NAND2_X1
X_2718_ _0012_ _1619_ _1860_ VDD VSS NOR2_X1
X_2719_ _1838_ _0012_ _1620_ _1861_ VDD VSS MUX2_X1
X_2720_ _1816_ _1861_ _1688_ _1862_ VDD VSS MUX2_X1
X_2721_ _1693_ _1862_ _1630_ _1863_ VDD VSS MUX2_X1
X_2722_ _1804_ _1815_ _1863_ _1864_ VDD VSS NOR3_X1
X_2723_ _1825_ _1696_ _1865_ VDD VSS NOR2_X1
X_2724_ _1698_ _1689_ _1866_ VDD VSS NOR2_X1
X_2725_ _1804_ _1865_ _1866_ _1867_ VDD VSS NOR3_X2
X_2726_ _1864_ _1867_ _1815_ _1868_ VDD VSS AOI21_X1
X_2727_ _0010_ _0012_ _1567_ _1869_ VDD VSS MUX2_X1
X_2728_ _1869_ _1840_ _1561_ _1870_ VDD VSS MUX2_X1
X_2729_ _1706_ _1870_ _1583_ _1871_ VDD VSS MUX2_X1
X_2730_ _1702_ _1868_ _1871_ _1708_ _1872_ VDD VSS OAI22_X1
X_2731_ _1860_ _1872_ _1737_ _1873_ VDD VSS AOI21_X1
X_2732_ _1859_ _1873_ _1597_ _1874_ VDD VSS OAI21_X1
X_2733_ final_mant\[12\] _1874_ _1741_ _0177_ VDD VSS MUX2_X1
X_2734_ _1679_ add_result\[16\] _1875_ VDD VSS NAND2_X1
X_2735_ _0013_ _1876_ VDD VSS CLKBUF_X2
X_2736_ _1674_ _1876_ _1877_ VDD VSS NAND2_X1
X_2737_ _1617_ _1853_ _1876_ _1878_ VDD VSS OAI21_X1
X_2738_ _1640_ _1728_ _1879_ VDD VSS OR2_X1
X_2739_ _1630_ _1723_ _1879_ _1804_ _1880_ VDD VSS OAI22_X4
X_2740_ _1639_ _1726_ _1881_ VDD VSS AND2_X1
X_2741_ _0012_ _1876_ _1686_ _1882_ VDD VSS MUX2_X1
X_2742_ _1848_ _1882_ _1624_ _1883_ VDD VSS MUX2_X1
X_2743_ _1881_ _1883_ _1629_ _1651_ _1653_ _1884_ VDD VSS
+ AOI221_X2
X_2744_ _1878_ _1880_ _1844_ _1884_ _1659_ _1885_ VDD VSS
+ AOI221_X2
X_2745_ _1838_ _1876_ _2132_ _1886_ VDD VSS MUX2_X1
X_2746_ _1886_ _1869_ _2125_ _1887_ VDD VSS MUX2_X1
X_2747_ _1734_ _1887_ _1583_ _1888_ VDD VSS MUX2_X1
X_2748_ _1885_ _1888_ _1671_ _1889_ VDD VSS AOI21_X1
X_2749_ _1877_ _1889_ _1674_ _1890_ VDD VSS OAI21_X1
X_2750_ _1875_ _1890_ _1597_ _1891_ VDD VSS OAI21_X1
X_2751_ final_mant\[13\] _1891_ _1741_ _0178_ VDD VSS MUX2_X1
X_2752_ _1679_ add_result\[17\] _1892_ VDD VSS NAND2_X1
X_2753_ _0014_ _1893_ VDD VSS CLKBUF_X2
X_2754_ _1674_ _1893_ _1894_ VDD VSS NAND2_X1
X_2755_ _1617_ _1853_ _1893_ _1895_ VDD VSS OAI21_X1
X_2756_ _1639_ _1819_ _1896_ VDD VSS OR2_X1
X_2757_ _1630_ _1824_ _1896_ _1804_ _1897_ VDD VSS OAI22_X4
X_2758_ _1876_ _1893_ _1622_ _1898_ VDD VSS MUX2_X1
X_2759_ _1861_ _1898_ _1624_ _1899_ VDD VSS MUX2_X1
X_2760_ _1629_ _1899_ _1900_ VDD VSS AND2_X1
X_2761_ _1900_ _1817_ _1640_ _1651_ _1653_ _1901_ VDD VSS
+ AOI221_X2
X_2762_ _1895_ _1897_ _1844_ _1901_ _1659_ _1902_ VDD VSS
+ AOI221_X2
X_2763_ _0012_ _1893_ _1567_ _0194_ VDD VSS MUX2_X1
X_2764_ _0194_ _1886_ _2125_ _0195_ VDD VSS MUX2_X1
X_2765_ _1829_ _0195_ _1583_ _0196_ VDD VSS MUX2_X1
X_2766_ _1902_ _0196_ _1671_ _0197_ VDD VSS AOI21_X1
X_2767_ _1894_ _0197_ _1674_ _0198_ VDD VSS OAI21_X1
X_2768_ _1892_ _0198_ _1597_ _0199_ VDD VSS OAI21_X1
X_2769_ final_mant\[14\] _0199_ _1741_ _0179_ VDD VSS MUX2_X1
X_2770_ _1679_ add_result\[18\] _0200_ VDD VSS NAND2_X1
X_2771_ _0015_ _1619_ _0201_ VDD VSS NOR2_X1
X_2772_ _1893_ _0015_ _1686_ _0202_ VDD VSS MUX2_X1
X_2773_ _1882_ _0202_ _1624_ _0203_ VDD VSS MUX2_X1
X_2774_ _1849_ _0203_ _1630_ _0204_ VDD VSS MUX2_X1
X_2775_ _1804_ _1815_ _0204_ _0205_ VDD VSS NOR3_X1
X_2776_ _0205_ _1815_ _1654_ _0206_ VDD VSS AOI21_X1
X_2777_ _1876_ _0015_ _1567_ _0207_ VDD VSS MUX2_X1
X_2778_ _0207_ _0194_ _1561_ _0208_ VDD VSS MUX2_X1
X_2779_ _1841_ _0208_ _1583_ _0209_ VDD VSS MUX2_X1
X_2780_ _1702_ _0206_ _0209_ _1708_ _0210_ VDD VSS OAI22_X1
X_2781_ _0201_ _0210_ _1737_ _0211_ VDD VSS AOI21_X1
X_2782_ _0200_ _0211_ _1597_ _0212_ VDD VSS OAI21_X1
X_2783_ final_mant\[15\] _0212_ _1741_ _0180_ VDD VSS MUX2_X1
X_2784_ _1751_ final_mant\[16\] _1677_ add_result\[19\] _0213_
+ VDD VSS AOI22_X1
X_2785_ _1657_ _1802_ _0214_ VDD VSS NAND2_X1
X_2786_ _1742_ _1601_ _0215_ VDD VSS XNOR2_X2
X_2787_ _1825_ _0215_ _1862_ _0216_ VDD VSS NOR3_X1
X_2788_ _1825_ _0215_ _1696_ _0217_ VDD VSS AND3_X1
X_2789_ _1682_ _0216_ _0217_ _0218_ VDD VSS OAI21_X1
X_2790_ _1656_ _0219_ VDD VSS CLKBUF_X3
X_2791_ _0016_ _0220_ VDD VSS CLKBUF_X2
X_2792_ _0015_ _0220_ _1686_ _0221_ VDD VSS MUX2_X1
X_2793_ _1898_ _0221_ _1688_ _0222_ VDD VSS MUX2_X1
X_2794_ _0222_ _1653_ _1651_ _0223_ VDD VSS AOI21_X2
X_2795_ _1825_ _0219_ _0223_ _0224_ VDD VSS NAND3_X1
X_2796_ _1815_ _0218_ _0224_ _0225_ VDD VSS AOI21_X1
X_2797_ _1682_ _0219_ _0226_ VDD VSS NAND2_X1
X_2798_ _1698_ _1693_ _0227_ VDD VSS NOR2_X1
X_2799_ _0227_ _1689_ _1698_ _0228_ VDD VSS AOI21_X1
X_2800_ _0226_ _0228_ _0229_ VDD VSS NOR2_X1
X_2801_ _0225_ _0229_ _1815_ _0230_ VDD VSS AOI21_X1
X_2802_ _1708_ _0214_ _0230_ _1853_ _0220_ _0231_ VDD VSS
+ OAI221_X1
X_2803_ _1893_ _0220_ _2132_ _0232_ VDD VSS MUX2_X1
X_2804_ _0232_ _0207_ _2125_ _0233_ VDD VSS MUX2_X1
X_2805_ _1870_ _0233_ _2139_ _0234_ VDD VSS MUX2_X1
X_2806_ _1671_ _0234_ _0235_ VDD VSS NAND2_X1
X_2807_ _1746_ _0231_ _0235_ _0236_ VDD VSS AOI21_X1
X_2808_ _1740_ _1681_ _0237_ VDD VSS NAND2_X2
X_2809_ _0237_ _0220_ _1746_ _0238_ VDD VSS AOI21_X1
X_2810_ _0238_ _0239_ VDD VSS INV_X1
X_2811_ _0213_ _0236_ _0239_ _0181_ VDD VSS OAI21_X1
X_2812_ _0017_ _0240_ VDD VSS CLKBUF_X2
X_2813_ _0015_ _0240_ _2132_ _0241_ VDD VSS MUX2_X1
X_2814_ _0241_ _0232_ _2125_ _0242_ VDD VSS MUX2_X1
X_2815_ _1887_ _0242_ _2139_ _0243_ VDD VSS MUX2_X1
X_2816_ _1671_ _0243_ _0244_ VDD VSS NAND2_X1
X_2817_ _1698_ _1883_ _0245_ VDD VSS AND2_X1
X_2818_ _0220_ _0240_ _1622_ _0246_ VDD VSS MUX2_X1
X_2819_ _0202_ _0246_ _1688_ _0247_ VDD VSS MUX2_X1
X_2820_ _1825_ _0247_ _0248_ VDD VSS AND2_X1
X_2821_ _1698_ _0219_ _1723_ _0226_ _0245_ _0248_ _0249_ VDD
+ VSS OAI33_X1
X_2822_ _1683_ _0215_ _0250_ VDD VSS NOR2_X2
X_2823_ _1683_ _0249_ _0250_ _1729_ _0251_ VDD VSS AOI22_X2
X_2824_ _1708_ _0214_ _0251_ _1853_ _0240_ _0252_ VDD VSS
+ OAI221_X2
X_2825_ _1737_ _1598_ _0244_ _0252_ _0253_ VDD VSS NAND4_X1
X_2826_ _1737_ _0240_ _0237_ _0254_ VDD VSS NOR3_X1
X_2827_ _0254_ _1676_ add_result\[20\] _1586_ final_mant\[17\]
+ _0255_ VDD VSS AOI221_X1
X_2828_ _0253_ _0255_ _0182_ VDD VSS NAND2_X1
X_2829_ _1751_ final_mant\[18\] _1677_ add_result\[21\] _0256_
+ VDD VSS AOI22_X1
X_2830_ _0018_ _0257_ VDD VSS BUF_X1
X_2831_ _0257_ _1619_ _0258_ VDD VSS NOR2_X1
X_2832_ _1804_ _1825_ _1899_ _0259_ VDD VSS OR3_X1
X_2833_ _0215_ _0259_ _1683_ _0260_ VDD VSS AOI21_X1
X_2834_ _0240_ _0257_ _1686_ _0261_ VDD VSS MUX2_X1
X_2835_ _1626_ _0261_ _0262_ VDD VSS NOR2_X1
X_2836_ _1688_ _0221_ _0263_ VDD VSS NOR2_X1
X_2837_ _1722_ _1718_ _0262_ _0263_ _0264_ VDD VSS OAI22_X1
X_2838_ _1824_ _0264_ _0219_ _0265_ VDD VSS MUX2_X1
X_2839_ _1698_ _0265_ _0266_ VDD VSS NOR2_X1
X_2840_ _1605_ _1601_ _1821_ _0267_ VDD VSS NOR3_X1
X_2841_ _1814_ _0260_ _0266_ _0267_ _1683_ _0268_ VDD VSS
+ OAI221_X2
X_2842_ _0220_ _0257_ _1567_ _0269_ VDD VSS MUX2_X1
X_2843_ _0269_ _0241_ _2125_ _0270_ VDD VSS MUX2_X1
X_2844_ _0195_ _0270_ _2139_ _0271_ VDD VSS MUX2_X1
X_2845_ _0268_ _0271_ _1708_ _0272_ VDD VSS OAI21_X1
X_2846_ _0258_ _0272_ _1737_ _0273_ VDD VSS AOI21_X1
X_2847_ _0256_ _0273_ _0237_ _0183_ VDD VSS OAI21_X1
X_2848_ _0019_ _0274_ VDD VSS CLKBUF_X2
X_2849_ _0240_ _0274_ _1567_ _0275_ VDD VSS MUX2_X1
X_2850_ _0275_ _0269_ _1561_ _0276_ VDD VSS MUX2_X1
X_2851_ _2136_ _0276_ _0277_ VDD VSS OR2_X1
X_2852_ _0277_ _0208_ _1583_ _0278_ VDD VSS OAI21_X1
X_2853_ _1655_ _0219_ _0279_ VDD VSS NAND2_X1
X_2854_ _0257_ _0274_ _1622_ _0280_ VDD VSS MUX2_X1
X_2855_ _0246_ _0280_ _1624_ _0281_ VDD VSS MUX2_X1
X_2856_ _1638_ _0281_ _1656_ _0282_ VDD VSS MUX2_X1
X_2857_ _1640_ _0282_ _0283_ VDD VSS NOR2_X1
X_2858_ _1630_ _0215_ _0203_ _0284_ VDD VSS NOR3_X1
X_2859_ _1682_ _0283_ _0284_ _0285_ VDD VSS OAI21_X1
X_2860_ _1851_ _0279_ _0285_ _1655_ _0286_ VDD VSS OAI22_X2
X_2861_ _1670_ _0278_ _0286_ _1814_ _0287_ VDD VSS AOI22_X2
X_2862_ _0274_ _1619_ _0287_ _1673_ _0288_ VDD VSS OAI22_X2
X_2863_ _1587_ _1588_ add_result\[22\] _1681_ _0288_ _0289_
+ VDD VSS AOI221_X2
X_2864_ final_mant\[19\] _0290_ VDD VSS INV_X1
X_2865_ _0289_ _0290_ _1837_ _0184_ VDD VSS AOI21_X1
X_2866_ _1636_ _1802_ _1723_ _1805_ _0291_ VDD VSS OAI22_X2
X_2867_ _1636_ _1635_ _1560_ _0292_ VDD VSS MUX2_X1
X_2868_ _2004_ _0292_ _0293_ VDD VSS NOR2_X1
X_2869_ _1570_ _1617_ _0294_ VDD VSS NOR2_X1
X_2870_ _1673_ _1617_ _0291_ _0293_ _0294_ _0295_ VDD VSS
+ AOI221_X2
X_2871_ _0295_ _1636_ _1674_ _0296_ VDD VSS AOI21_X1
X_2872_ _1587_ _1588_ add_result\[4\] _1681_ _0296_ _0297_
+ VDD VSS AOI221_X2
X_2873_ final_mant\[1\] _0298_ VDD VSS INV_X1
X_2874_ _0297_ _0298_ _1837_ _0185_ VDD VSS AOI21_X1
X_2875_ _1751_ final_mant\[20\] _1677_ add_result\[23\] _0299_
+ VDD VSS AOI22_X1
X_2876_ _1737_ _1671_ _0300_ VDD VSS NAND2_X1
X_2877_ _0257_ _1555_ _2132_ _0301_ VDD VSS MUX2_X1
X_2878_ _0301_ _0275_ _2125_ _0302_ VDD VSS MUX2_X1
X_2879_ _0233_ _0302_ _2139_ _0303_ VDD VSS MUX2_X1
X_2880_ _1555_ _1619_ _0300_ _0303_ _0304_ VDD VSS OAI22_X1
X_2881_ _1746_ _1702_ _0305_ VDD VSS NOR2_X1
X_2882_ _0219_ _1867_ _0306_ VDD VSS NOR2_X1
X_2883_ _0274_ _1555_ _1686_ _0307_ VDD VSS MUX2_X1
X_2884_ _0261_ _0307_ _1688_ _0308_ VDD VSS MUX2_X1
X_2885_ _1698_ _0308_ _0309_ VDD VSS NOR2_X1
X_2886_ _0215_ _0223_ _1698_ _0309_ _1682_ _0310_ VDD VSS
+ AOI221_X2
X_2887_ _1804_ _1863_ _0279_ _0306_ _0310_ _1815_ _0311_ VDD
+ VSS OAI33_X1
X_2888_ _0304_ _0305_ _0311_ _0312_ VDD VSS AOI21_X1
X_2889_ _0299_ _0312_ _0237_ _0186_ VDD VSS OAI21_X1
X_2890_ _1751_ final_mant\[21\] _1677_ add_result\[24\] _0313_
+ VDD VSS AOI22_X1
X_2891_ _2139_ _0242_ _0314_ VDD VSS NOR2_X1
X_2892_ _1562_ _0021_ _1553_ _0315_ VDD VSS OAI21_X1
X_2893_ _0315_ _1553_ _1555_ _0316_ VDD VSS OAI21_X1
X_2894_ _2132_ _0316_ _0317_ VDD VSS NAND2_X1
X_2895_ _0274_ _0257_ _2125_ _0318_ VDD VSS MUX2_X1
X_2896_ _0317_ _0318_ _2132_ _0319_ VDD VSS OAI21_X1
X_2897_ _0314_ _0319_ _2139_ _0320_ VDD VSS AOI21_X1
X_2898_ _1558_ _1619_ _0300_ _0320_ _0321_ VDD VSS OAI22_X1
X_2899_ _1884_ _0250_ _0322_ VDD VSS NAND2_X1
X_2900_ _1555_ _1558_ _1686_ _0323_ VDD VSS MUX2_X1
X_2901_ _0280_ _0323_ _1688_ _0324_ VDD VSS MUX2_X1
X_2902_ _0247_ _0324_ _1825_ _0325_ VDD VSS MUX2_X1
X_2903_ _0219_ _0325_ _1804_ _0326_ VDD VSS OAI21_X1
X_2904_ _0326_ _1880_ _0219_ _0327_ VDD VSS OAI21_X1
X_2905_ _0322_ _0327_ _1815_ _0328_ VDD VSS OAI21_X1
X_2906_ _0321_ _0328_ _0305_ _0329_ VDD VSS AOI21_X1
X_2907_ _0313_ _0329_ _0237_ _0187_ VDD VSS OAI21_X1
X_2908_ _1751_ final_mant\[22\] _0330_ VDD VSS NAND2_X1
X_2909_ _1670_ _1901_ _0250_ _1601_ _1554_ _0331_ VDD VSS
+ AOI221_X2
X_2910_ _1688_ _0307_ _0332_ VDD VSS NOR2_X1
X_2911_ _1558_ _0021_ _1686_ _0333_ VDD VSS MUX2_X1
X_2912_ _1626_ _0333_ _0334_ VDD VSS NOR2_X1
X_2913_ _1825_ _0332_ _0334_ _0335_ VDD VSS OAI21_X1
X_2914_ _0219_ _0264_ _1825_ _0335_ _1804_ _0336_ VDD VSS
+ OAI221_X1
X_2915_ _0336_ _1897_ _0219_ _0337_ VDD VSS OAI21_X1
X_2916_ _0331_ _0337_ _1815_ _0338_ VDD VSS OAI21_X1
X_2917_ _2136_ _0270_ _0339_ VDD VSS NAND2_X1
X_2918_ _1555_ _0274_ _1561_ _0340_ VDD VSS MUX2_X1
X_2919_ _1554_ _1553_ _1562_ _0341_ VDD VSS OAI21_X1
X_2920_ _0340_ _0341_ _2132_ _0342_ VDD VSS MUX2_X1
X_2921_ _2139_ _0342_ _0343_ VDD VSS NAND2_X1
X_2922_ _1708_ _0339_ _0343_ _0344_ VDD VSS AOI21_X1
X_2923_ _1746_ _1597_ _0344_ _0345_ VDD VSS NOR3_X1
X_2924_ _1589_ _0021_ _1680_ _0346_ VDD VSS OAI21_X1
X_2925_ _0338_ _0345_ _0346_ _1746_ _0347_ VDD VSS AOI22_X1
X_2926_ _0330_ _0347_ _1813_ _0188_ VDD VSS OAI21_X1
X_2927_ _1617_ _1805_ _1824_ _1802_ _1632_ _0348_ VDD VSS
+ OAI221_X1
X_2928_ _1561_ _1667_ _0349_ VDD VSS NOR2_X1
X_2929_ _1636_ _2004_ _0350_ VDD VSS NOR2_X1