
* cell floating_point_adder
* pin b[27]
* pin b[28]
* pin b[29]
* pin b[30]
* pin b[25]
* pin a[25]
* pin a[30]
* pin a[29]
* pin b[26]
* pin b[23]
* pin a[24]
* pin a[27]
* pin a[26]
* pin a[28]
* pin a[23]
* pin valid_in
* pin a[31]
* pin b[31]
* pin invalid_op
* pin result[31]
* pin valid_out
* pin result[25]
* pin result[8]
* pin result[28]
* pin result[27]
* pin result[26]
* pin result[23]
* pin overflow
* pin result[30]
* pin result[29]
* pin result[24]
* pin PWELL
* pin clk
* pin NWELL
* pin b[24]
* pin a[20]
* pin result[7]
* pin b[21]
* pin b[22]
* pin b[19]
* pin rst_n
* pin a[15]
* pin a[16]
* pin a[21]
* pin underflow
* pin b[17]
* pin a[18]
* pin b[16]
* pin b[18]
* pin result[21]
* pin b[14]
* pin a[17]
* pin inexact
* pin a[19]
* pin b[20]
* pin result[20]
* pin b[15]
* pin b[13]
* pin result[18]
* pin result[16]
* pin b[12]
* pin result[17]
* pin result[4]
* pin result[22]
* pin result[15]
* pin b[10]
* pin a[22]
* pin result[0]
* pin b[11]
* pin result[14]
* pin result[1]
* pin b[9]
* pin b[8]
* pin result[19]
* pin result[12]
* pin b[4]
* pin b[6]
* pin b[3]
* pin result[2]
* pin b[1]
* pin b[7]
* pin b[2]
* pin b[5]
* pin a[13]
* pin result[13]
* pin result[9]
* pin result[10]
* pin a[12]
* pin a[14]
* pin b[0]
* pin a[6]
* pin result[11]
* pin a[11]
* pin result[6]
* pin a[4]
* pin result[5]
* pin a[9]
* pin a[8]
* pin result[3]
* pin a[7]
* pin a[5]
* pin a[0]
* pin a[3]
* pin a[2]
* pin a[10]
* pin a[1]
.SUBCKT floating_point_adder 1 2 3 4 5 6 7 8 9 10 11 12 13 14 15 16 17 18 19 20
+ 21 22 23 24 25 26 27 28 29 30 31 41 56 57 616 800 833 861 862 915 1092 1117
+ 1118 1119 1156 1195 1238 1282 1283 1307 1384 1385 1413 1429 1430 1469 1527
+ 1528 1608 1713 1738 1765 1857 1858 1902 1921 1922 1951 2005 2029 2030 2065
+ 2066 2092 2093 2108 2109 2110 2138 2162 2163 2209 2210 2211 2225 2226 2227
+ 2245 2246 2285 2286 2314 2334 2349 2520 2521 2522 2523 2524 2525 2526 2528
+ 2530 2532 2537 2538
* net 1 b[27]
* net 2 b[28]
* net 3 b[29]
* net 4 b[30]
* net 5 b[25]
* net 6 a[25]
* net 7 a[30]
* net 8 a[29]
* net 9 b[26]
* net 10 b[23]
* net 11 a[24]
* net 12 a[27]
* net 13 a[26]
* net 14 a[28]
* net 15 a[23]
* net 16 valid_in
* net 17 a[31]
* net 18 b[31]
* net 19 invalid_op
* net 20 result[31]
* net 21 valid_out
* net 22 result[25]
* net 23 result[8]
* net 24 result[28]
* net 25 result[27]
* net 26 result[26]
* net 27 result[23]
* net 28 overflow
* net 29 result[30]
* net 30 result[29]
* net 31 result[24]
* net 41 PWELL
* net 56 clk
* net 57 NWELL
* net 616 b[24]
* net 800 a[20]
* net 833 result[7]
* net 861 b[21]
* net 862 b[22]
* net 915 b[19]
* net 1092 rst_n
* net 1117 a[15]
* net 1118 a[16]
* net 1119 a[21]
* net 1156 underflow
* net 1195 b[17]
* net 1238 a[18]
* net 1282 b[16]
* net 1283 b[18]
* net 1307 result[21]
* net 1384 b[14]
* net 1385 a[17]
* net 1413 inexact
* net 1429 a[19]
* net 1430 b[20]
* net 1469 result[20]
* net 1527 b[15]
* net 1528 b[13]
* net 1608 result[18]
* net 1713 result[16]
* net 1738 b[12]
* net 1765 result[17]
* net 1857 result[4]
* net 1858 result[22]
* net 1902 result[15]
* net 1921 b[10]
* net 1922 a[22]
* net 1951 result[0]
* net 2005 b[11]
* net 2029 result[14]
* net 2030 result[1]
* net 2065 b[9]
* net 2066 b[8]
* net 2092 result[19]
* net 2093 result[12]
* net 2108 b[4]
* net 2109 b[6]
* net 2110 b[3]
* net 2138 result[2]
* net 2162 b[1]
* net 2163 b[7]
* net 2209 b[2]
* net 2210 b[5]
* net 2211 a[13]
* net 2225 result[13]
* net 2226 result[9]
* net 2227 result[10]
* net 2245 a[12]
* net 2246 a[14]
* net 2285 b[0]
* net 2286 a[6]
* net 2314 result[11]
* net 2334 a[11]
* net 2349 result[6]
* net 2520 a[4]
* net 2521 result[5]
* net 2522 a[9]
* net 2523 a[8]
* net 2524 result[3]
* net 2525 a[7]
* net 2526 a[5]
* net 2528 a[0]
* net 2530 a[3]
* net 2532 a[2]
* net 2537 a[10]
* net 2538 a[1]
* cell instance $2 m0 *1 14.25,4.2
X$2 1 41 57 108 BUF_X2
* cell instance $8 r0 *1 14.63,1.4
X$8 2 41 57 166 BUF_X2
* cell instance $14 r0 *1 17.1,1.4
X$14 3 41 57 63 BUF_X2
* cell instance $21 r0 *1 16.34,1.4
X$21 4 41 57 45 BUF_X2
* cell instance $26 r0 *1 19.19,4.2
X$26 5 41 57 99 BUF_X2
* cell instance $32 r0 *1 19.38,1.4
X$32 6 41 57 59 BUF_X2
* cell instance $39 r0 *1 17.86,1.4
X$39 7 41 57 64 CLKBUF_X2
* cell instance $45 r0 *1 18.62,1.4
X$45 8 41 57 32 CLKBUF_X2
* cell instance $51 m0 *1 17.48,4.2
X$51 9 41 57 62 BUF_X2
* cell instance $60 r0 *1 21.85,1.4
X$60 10 41 57 34 BUF_X2
* cell instance $62 r0 *1 22.61,1.4
X$62 11 41 57 48 BUF_X2
* cell instance $69 r0 *1 20.14,1.4
X$69 12 41 57 33 CLKBUF_X2
* cell instance $74 r0 *1 23.75,1.4
X$74 13 41 57 49 BUF_X2
* cell instance $81 r0 *1 21.09,1.4
X$81 14 41 57 46 CLKBUF_X2
* cell instance $86 r0 *1 24.51,1.4
X$86 15 41 57 66 BUF_X2
* cell instance $92 r0 *1 27.93,1.4
X$92 16 41 57 50 BUF_X1
* cell instance $99 m0 *1 30.97,4.2
X$99 17 41 57 84 BUF_X1
* cell instance $108 r0 *1 31.92,1.4
X$108 18 41 57 35 BUF_X1
* cell instance $109 r0 *1 33.06,1.4
X$109 36 41 57 19 BUF_X1
* cell instance $116 r0 *1 34.77,1.4
X$116 82 41 57 20 BUF_X1
* cell instance $122 r0 *1 35.34,1.4
X$122 37 41 57 21 BUF_X1
* cell instance $128 r0 *1 37.81,1.4
X$128 268 41 57 22 BUF_X1
* cell instance $134 r0 *1 38.38,1.4
X$134 244 41 57 23 BUF_X1
* cell instance $140 m0 *1 38.57,4.2
X$140 79 41 57 24 BUF_X1
* cell instance $146 r0 *1 42.18,1.4
X$146 44 41 57 25 BUF_X1
* cell instance $152 m0 *1 39.14,4.2
X$152 53 41 57 26 BUF_X1
* cell instance $158 r0 *1 42.75,1.4
X$158 58 41 57 27 BUF_X1
* cell instance $164 r0 *1 52.25,1.4
X$164 43 41 57 28 BUF_X1
* cell instance $170 r0 *1 57.76,1.4
X$170 42 41 57 29 BUF_X1
* cell instance $176 m0 *1 58.14,4.2
X$176 74 41 57 30 BUF_X1
* cell instance $182 r0 *1 63.27,1.4
X$182 40 41 57 31 BUF_X1
* cell instance $190 m0 *1 19.19,4.2
X$190 64 33 46 32 41 76 57 NAND4_X2
* cell instance $193 m0 *1 20.33,7
X$193 32 41 57 87 INV_X1
* cell instance $195 m0 *1 18.43,7
X$195 32 96 2643 57 41 135 HA_X1
* cell instance $198 m0 *1 20.9,4.2
X$198 32 64 33 46 41 57 47 NOR4_X1
* cell instance $205 m0 *1 19.76,9.8
X$205 33 41 57 218 INV_X1
* cell instance $209 r0 *1 19.38,9.8
X$209 33 242 2670 57 41 302 HA_X1
* cell instance $211 r0 *1 20.52,18.2
X$211 474 34 534 57 41 512 HA_X1
* cell instance $214 m0 *1 21.66,18.2
X$214 99 34 473 62 41 461 57 NAND4_X2
* cell instance $217 r0 *1 22.8,15.4
X$217 34 41 57 436 INV_X1
* cell instance $220 m0 *1 19.95,18.2
X$220 99 34 473 62 57 497 41 NOR4_X2
* cell instance $223 m0 *1 29.45,21
X$223 84 35 606 57 41 573 HA_X1
* cell instance $230 m0 *1 32.11,21
X$230 114 35 57 41 608 AND2_X1
* cell instance $233 r0 *1 29.64,21
X$233 35 514 573 41 57 607 MUX2_X1
* cell instance $236 r0 *1 29.45,4.2
X$236 41 2631 36 285 38 57 DFF_X1
* cell instance $239 m0 *1 32.68,4.2
X$239 41 2559 37 83 52 57 DFF_X1
* cell instance $249 r0 *1 29.83,15.4
X$249 41 2634 389 562 38 57 DFF_X1
* cell instance $251 m0 *1 37.05,18.2
X$251 38 41 57 2539 INV_X4
* cell instance $253 m0 *1 36.1,18.2
X$253 379 41 57 38 CLKBUF_X3
* cell instance $255 r0 *1 35.72,9.8
X$255 41 2627 268 267 38 57 DFF_X1
* cell instance $258 r0 *1 36.1,4.2
X$258 41 2600 79 80 38 57 DFF_X1
* cell instance $261 r0 *1 32.68,4.2
X$261 41 2601 82 145 38 57 DFF_X1
* cell instance $264 r0 *1 38.95,1.4
X$264 41 2595 44 68 38 57 DFF_X1
* cell instance $266 m0 *1 39.71,4.2
X$266 41 2557 58 69 38 57 DFF_X1
* cell instance $268 r0 *1 24.7,7
X$268 41 2599 144 137 38 57 DFF_X1
* cell instance $270 m0 *1 25.46,9.8
X$270 41 2546 209 168 38 57 DFF_X1
* cell instance $273 m0 *1 38,7
X$273 41 2558 53 112 38 57 DFF_X1
* cell instance $276 m0 *1 38,9.8
X$276 41 2580 215 192 38 57 DFF_X1
* cell instance $278 m0 *1 25.84,4.2
X$278 41 2562 106 81 38 57 DFF_X1
* cell instance $281 m0 *1 31.35,9.8
X$281 41 2577 212 240 38 57 DFF_X1
* cell instance $286 r0 *1 28.5,1.4
X$286 41 2633 85 51 38 57 DFF_X1
* cell instance $288 r0 *1 55.29,4.2
X$288 93 92 57 41 39 AND2_X1
* cell instance $290 r0 *1 54.53,1.4
X$290 41 2609 42 39 55 57 DFF_X1
* cell instance $292 m0 *1 60.42,4.2
X$292 41 2547 40 73 55 57 DFF_X1
* cell instance $294 m0 *1 3.61,37.8
X$294 41 1120 1065 1158 1121 1213 57 NAND4_X4
* cell instance $295 m0 *1 1.71,37.8
X$295 1239 1329 1158 57 41 1162 HA_X1
* cell instance $296 m0 *1 7.03,37.8
X$296 1122 1240 1121 57 41 1165 HA_X1
* cell instance $299 m0 *1 10.64,37.8
X$299 1123 57 1124 41 BUF_X4
* cell instance $301 m0 *1 12.16,37.8
X$301 899 57 1126 41 BUF_X4
* cell instance $302 m0 *1 13.49,37.8
X$302 1125 988 1047 41 1201 57 AOI21_X1
* cell instance $304 m0 *1 14.44,37.8
X$304 1070 1202 863 339 41 57 1111 AOI22_X1
* cell instance $310 r0 *1 1.33,37.8
X$310 1118 41 57 1064 BUF_X1
* cell instance $311 r0 *1 1.9,37.8
X$311 1117 41 57 1239 BUF_X1
* cell instance $317 r0 *1 3.42,37.8
X$317 1195 41 57 1197 BUF_X2
* cell instance $318 r0 *1 4.18,37.8
X$318 1197 41 57 1266 INV_X1
* cell instance $319 r0 *1 4.56,37.8
X$319 1208 1266 1120 57 41 1198 HA_X1
* cell instance $322 r0 *1 7.6,37.8
X$322 1041 57 1170 41 BUF_X4
* cell instance $325 r0 *1 9.5,37.8
X$325 1097 1009 863 41 57 1200 MUX2_X1
* cell instance $326 r0 *1 10.83,37.8
X$326 339 1197 41 57 1199 NAND2_X1
* cell instance $327 r0 *1 11.4,37.8
X$327 1046 1199 1271 41 1218 57 AOI21_X1
* cell instance $328 r0 *1 12.16,37.8
X$328 1200 1170 1047 41 57 1314 MUX2_X1
* cell instance $329 r0 *1 13.49,37.8
X$329 1047 1069 41 57 1242 NOR2_X1
* cell instance $330 r0 *1 14.06,37.8
X$330 1201 1069 1220 41 1202 57 AOI21_X2
* cell instance $331 r0 *1 15.39,37.8
X$331 899 1200 1222 57 1220 41 OAI21_X1
* cell instance $333 r0 *1 16.34,37.8
X$333 1125 41 57 1069 CLKBUF_X3
* cell instance $334 m0 *1 16.72,37.8
X$334 806 867 1100 57 1222 41 OAI21_X1
* cell instance $336 m0 *1 17.48,37.8
X$336 770 1009 1122 41 57 1203 MUX2_X1
* cell instance $338 m0 *1 19,37.8
X$338 1203 1170 1072 41 57 1174 MUX2_X1
* cell instance $340 r0 *1 17.29,37.8
X$340 339 629 41 1243 57 NAND2_X4
* cell instance $341 r0 *1 19,37.8
X$341 1040 864 41 57 1204 NAND2_X1
* cell instance $342 r0 *1 19.57,37.8
X$342 1204 1205 938 922 702 1230 57 41 AOI221_X2
* cell instance $344 m0 *1 20.71,37.8
X$344 1067 893 41 57 1205 NAND2_X1
* cell instance $345 m0 *1 21.47,37.8
X$345 41 1126 942 1074 1177 57 NOR3_X4
* cell instance $346 m0 *1 24.13,37.8
X$346 1174 1130 41 57 1178 NAND2_X1
* cell instance $347 m0 *1 24.7,37.8
X$347 1130 1074 41 57 1175 OR2_X1
* cell instance $348 m0 *1 25.46,37.8
X$348 942 1175 1178 41 1132 57 AOI21_X2
* cell instance $349 m0 *1 26.79,37.8
X$349 923 1108 1176 41 1235 57 AOI21_X1
* cell instance $350 m0 *1 27.55,37.8
X$350 869 1122 41 57 1183 NAND2_X1
* cell instance $351 m0 *1 28.12,37.8
X$351 961 1132 1014 41 57 1182 NAND3_X1
* cell instance $353 r0 *1 21.66,37.8
X$353 1125 1205 1204 41 1280 57 AOI21_X1
* cell instance $354 r0 *1 22.42,37.8
X$354 41 1245 1230 1206 1129 57 AOI21_X4
* cell instance $355 r0 *1 24.89,37.8
X$355 1245 845 41 57 1131 NOR2_X2
* cell instance $356 r0 *1 25.84,37.8
X$356 845 1206 683 1075 57 1207 41 NOR4_X2
* cell instance $357 r0 *1 27.55,37.8
X$357 920 864 1122 1110 41 57 1277 NOR4_X1
* cell instance $358 r0 *1 28.5,37.8
X$358 869 1208 41 57 1278 NAND2_X1
* cell instance $360 m0 *1 29.45,37.8
X$360 923 1182 1183 41 1237 57 AOI21_X1
* cell instance $365 r0 *1 29.45,37.8
X$365 41 1345 1247 1218 925 57 DFF_X1
* cell instance $367 r0 *1 32.87,37.8
X$367 1246 1247 2669 57 41 1273 HA_X1
* cell instance $368 r0 *1 34.77,37.8
X$368 41 1234 1134 1236 925 57 DFF_X1
* cell instance $369 m0 *1 35.34,37.8
X$369 41 1188 1133 1237 925 57 DFF_X1
* cell instance $371 m0 *1 38.57,37.8
X$371 1133 1134 2638 57 41 970 HA_X1
* cell instance $372 m0 *1 40.47,37.8
X$372 1188 1134 1135 57 41 1137 HA_X1
* cell instance $374 r0 *1 38,37.8
X$374 1133 1234 2674 57 41 1209 HA_X1
* cell instance $378 r0 *1 42.56,37.8
X$378 1136 1276 1232 57 1233 41 OAI21_X1
* cell instance $379 m0 *1 42.94,37.8
X$379 1136 1190 1232 57 1189 41 OAI21_X1
* cell instance $382 r0 *1 43.32,37.8
X$382 1136 1231 1232 57 1116 41 OAI21_X1
* cell instance $384 m0 *1 44.08,37.8
X$384 1137 41 57 1138 INV_X1
* cell instance $385 m0 *1 44.65,37.8
X$385 1136 1249 1138 57 1078 41 OAI21_X1
* cell instance $387 m0 *1 45.6,37.8
X$387 1136 1210 1138 57 1192 41 OAI21_X1
* cell instance $389 m0 *1 46.55,37.8
X$389 1136 1139 1138 57 1022 41 OAI21_X1
* cell instance $391 m0 *1 48.07,37.8
X$391 1023 1136 1194 1251 41 57 1140 NOR4_X1
* cell instance $393 r0 *1 44.08,37.8
X$393 1209 41 57 1232 INV_X1
* cell instance $396 r0 *1 45.41,37.8
X$396 1231 1001 1210 41 57 1229 MUX2_X1
* cell instance $399 r0 *1 49.02,37.8
X$399 1272 970 1211 1228 971 57 41 AOI211_X2
* cell instance $400 m0 *1 49.59,37.8
X$400 930 1023 1136 1194 41 57 1191 NOR4_X1
* cell instance $402 m0 *1 50.54,37.8
X$402 1227 1225 1191 41 1141 57 AOI21_X1
* cell instance $403 m0 *1 51.3,37.8
X$403 971 792 1008 41 57 1187 MUX2_X1
* cell instance $404 m0 *1 52.63,37.8
X$404 969 1187 57 41 1224 XNOR2_X1
* cell instance $406 m0 *1 55.29,37.8
X$406 1180 1142 41 57 1223 NOR2_X1
* cell instance $407 m0 *1 55.86,37.8
X$407 41 1082 672 1179 1143 57 DFF_X2
* cell instance $409 r0 *1 50.73,37.8
X$409 1272 1211 1228 41 1006 57 AOI21_X1
* cell instance $410 r0 *1 51.49,37.8
X$410 1229 1105 41 57 1252 NAND2_X1
* cell instance $411 r0 *1 52.06,37.8
X$411 1027 1226 57 41 1253 AND2_X1
* cell instance $412 r0 *1 52.82,37.8
X$412 1254 41 57 1226 INV_X1
* cell instance $415 r0 *1 55.1,37.8
X$415 859 41 57 1142 CLKBUF_X3
* cell instance $416 r0 *1 56.05,37.8
X$416 1224 1142 41 57 1217 NOR2_X1
* cell instance $419 r0 *1 57.57,37.8
X$419 41 1223 1256 1221 1145 57 DFF_X2
* cell instance $423 m0 *1 60.04,37.8
X$423 1179 41 57 592 BUF_X2
* cell instance $425 m0 *1 60.8,37.8
X$425 1057 57 1302 41 BUF_X4
* cell instance $426 m0 *1 62.13,37.8
X$426 1157 41 57 1057 INV_X2
* cell instance $427 m0 *1 62.7,37.8
X$427 41 1143 1085 1145 671 1084 57 NOR4_X4
* cell instance $429 r0 *1 61.18,37.8
X$429 1221 41 57 593 CLKBUF_X2
* cell instance $430 r0 *1 61.94,37.8
X$430 380 1373 605 1144 1257 462 57 41 AOI221_X2
* cell instance $431 r0 *1 64.03,37.8
X$431 1257 629 41 57 1153 NAND2_X2
* cell instance $432 r0 *1 64.98,37.8
X$432 548 783 721 522 57 41 1259 OAI22_X2
* cell instance $433 m0 *1 67.26,37.8
X$433 1367 1088 1143 41 57 1146 NOR3_X1
* cell instance $434 m0 *1 66.5,37.8
X$434 1268 438 1031 41 1219 57 AOI21_X1
* cell instance $438 r0 *1 67.07,37.8
X$438 41 1147 1212 1217 1256 57 DFF_X1
* cell instance $439 m0 *1 70.11,37.8
X$439 1147 41 57 527 CLKBUF_X2
* cell instance $443 r0 *1 70.3,37.8
X$443 1216 1212 592 57 1148 41 OAI21_X1
* cell instance $444 r0 *1 71.06,37.8
X$444 1261 41 57 1216 INV_X1
* cell instance $445 r0 *1 71.44,37.8
X$445 605 41 57 122 CLKBUF_X3
* cell instance $447 m0 *1 72.01,37.8
X$447 721 533 41 57 1167 NOR2_X1
* cell instance $450 m0 *1 72.96,37.8
X$450 1167 438 1034 41 1215 57 AOI21_X1
* cell instance $452 r0 *1 73.53,37.8
X$452 1262 438 775 41 1214 57 AOI21_X1
* cell instance $453 m0 *1 74.67,37.8
X$453 1152 438 934 41 1465 57 AOI21_X1
* cell instance $454 m0 *1 74.1,37.8
X$454 1149 41 57 528 BUF_X1
* cell instance $456 m0 *1 76.19,37.8
X$456 1085 121 122 1154 41 57 1155 AOI22_X1
* cell instance $457 m0 *1 77.14,37.8
X$457 41 2578 1154 1160 672 57 DFF_X1
* cell instance $460 r0 *1 74.29,37.8
X$460 721 590 41 57 1262 NOR2_X1
* cell instance $464 r0 *1 79.04,37.8
X$464 93 1154 57 41 1263 AND2_X1
* cell instance $470 m0 *1 41.04,32.2
X$470 848 873 1001 41 57 1000 NOR3_X1
* cell instance $471 m0 *1 40.28,32.2
X$471 822 964 926 57 813 41 OAI21_X1
* cell instance $473 m0 *1 41.99,32.2
X$473 926 822 1001 41 57 967 NAND3_X1
* cell instance $474 m0 *1 42.75,32.2
X$474 814 822 541 41 57 968 NAND3_X1
* cell instance $477 m0 *1 45.79,32.2
X$477 874 1001 41 57 1004 NAND2_X1
* cell instance $478 m0 *1 46.36,32.2
X$478 819 929 930 41 948 57 AOI21_X1
* cell instance $479 m0 *1 47.12,32.2
X$479 950 1004 653 1008 1007 757 57 41 AOI221_X2
* cell instance $480 m0 *1 49.21,32.2
X$480 860 822 970 41 57 949 NAND3_X1
* cell instance $481 m0 *1 49.97,32.2
X$481 972 1006 949 41 711 57 AOI21_X1
* cell instance $482 m0 *1 50.73,32.2
X$482 971 972 41 57 931 OR2_X1
* cell instance $484 m0 *1 51.68,32.2
X$484 653 948 57 41 973 AND2_X1
* cell instance $489 r0 *1 40.47,32.2
X$489 876 872 965 41 964 57 AOI21_X1
* cell instance $492 r0 *1 41.8,32.2
X$492 930 966 1000 57 1020 41 OAI21_X1
* cell instance $493 r0 *1 42.56,32.2
X$493 1020 1002 967 968 57 41 999 AND4_X1
* cell instance $494 r0 *1 43.7,32.2
X$494 930 1003 928 57 1002 41 OAI21_X1
* cell instance $495 r0 *1 44.46,32.2
X$495 876 41 57 1021 INV_X1
* cell instance $498 r0 *1 45.41,32.2
X$498 965 969 1192 41 1003 57 AOI21_X1
* cell instance $499 r0 *1 46.17,32.2
X$499 872 41 57 930 INV_X2
* cell instance $502 r0 *1 47.69,32.2
X$502 929 41 57 1005 INV_X1
* cell instance $504 r0 *1 48.45,32.2
X$504 860 822 930 1023 41 57 1007 NOR4_X1
* cell instance $505 r0 *1 49.4,32.2
X$505 969 971 1005 57 824 41 OAI21_X1
* cell instance $506 r0 *1 50.16,32.2
X$506 930 1023 41 57 972 NAND2_X1
* cell instance $507 r0 *1 50.73,32.2
X$507 859 930 41 57 1063 NOR2_X1
* cell instance $508 r0 *1 51.3,32.2
X$508 971 972 973 57 1024 41 OAI21_X1
* cell instance $509 r0 *1 52.06,32.2
X$509 859 872 41 57 1025 NOR2_X1
* cell instance $511 r0 *1 53.01,32.2
X$511 860 947 1026 41 1061 57 AOI21_X1
* cell instance $512 r0 *1 53.77,32.2
X$512 860 1026 947 57 41 974 AND3_X1
* cell instance $514 m0 *1 57.57,32.2
X$514 476 882 520 41 57 881 MUX2_X1
* cell instance $521 m0 *1 59.47,32.2
X$521 477 724 521 41 57 913 MUX2_X1
* cell instance $523 m0 *1 60.8,32.2
X$523 882 41 57 724 CLKBUF_X3
* cell instance $524 m0 *1 61.75,32.2
X$524 975 41 57 764 CLKBUF_X3
* cell instance $525 m0 *1 62.7,32.2
X$525 478 724 552 41 57 932 MUX2_X1
* cell instance $526 m0 *1 64.03,32.2
X$526 932 769 884 41 57 976 MUX2_X1
* cell instance $527 m0 *1 65.36,32.2
X$527 522 882 586 41 57 886 MUX2_X1
* cell instance $528 m0 *1 66.69,32.2
X$528 886 769 932 41 57 978 MUX2_X1
* cell instance $530 m0 *1 68.78,32.2
X$530 553 724 533 41 57 979 MUX2_X1
* cell instance $531 m0 *1 70.11,32.2
X$531 979 769 887 41 57 935 MUX2_X1
* cell instance $532 m0 *1 71.44,32.2
X$532 933 578 979 41 57 980 MUX2_X1
* cell instance $534 m0 *1 72.96,32.2
X$534 976 764 935 41 57 939 MUX2_X1
* cell instance $536 m0 *1 75.05,32.2
X$536 935 631 936 41 57 984 MUX2_X1
* cell instance $537 m0 *1 76.38,32.2
X$537 984 636 41 57 985 NAND2_X1
* cell instance $539 m0 *1 77.71,32.2
X$539 527 578 528 41 57 981 MUX2_X1
* cell instance $544 r0 *1 59.66,32.2
X$544 671 41 57 425 INV_X2
* cell instance $547 r0 *1 61.37,32.2
X$547 880 41 57 769 CLKBUF_X3
* cell instance $548 r0 *1 62.32,32.2
X$548 738 975 976 41 57 992 MUX2_X1
* cell instance $550 r0 *1 63.84,32.2
X$550 632 992 238 651 57 41 1030 OAI22_X1
* cell instance $553 r0 *1 65.93,32.2
X$553 826 764 978 41 57 977 MUX2_X1
* cell instance $554 r0 *1 67.26,32.2
X$554 632 977 651 426 57 41 1031 OAI22_X1
* cell instance $557 r0 *1 69.92,32.2
X$557 978 764 980 41 57 1054 MUX2_X1
* cell instance $558 r0 *1 71.25,32.2
X$558 678 636 1054 41 1033 57 AOI21_X1
* cell instance $560 r0 *1 72.77,32.2
X$560 632 939 651 597 57 41 1034 OAI22_X1
* cell instance $562 r0 *1 74.1,32.2
X$562 980 631 891 41 57 1050 MUX2_X1
* cell instance $563 r0 *1 75.43,32.2
X$563 580 985 637 41 1051 57 AOI21_X1
* cell instance $564 r0 *1 76.19,32.2
X$564 651 580 41 57 1035 NOR2_X1
* cell instance $565 r0 *1 76.76,32.2
X$565 1043 492 1035 41 1045 57 AOI21_X1
* cell instance $566 r0 *1 77.52,32.2
X$566 937 1036 592 721 57 41 1043 OAI22_X1
* cell instance $567 r0 *1 78.47,32.2
X$567 891 631 41 57 1039 NOR2_X1
* cell instance $568 r0 *1 79.04,32.2
X$568 581 981 1038 57 1093 41 OAI21_X1
* cell instance $569 r0 *1 79.8,32.2
X$569 1037 581 41 57 1038 NAND2_X1
* cell instance $573 m0 *1 9.31,46.2
X$573 1344 1490 1474 41 1432 57 AOI21_X1
* cell instance $574 m0 *1 8.74,46.2
X$574 1197 1311 41 57 1490 NAND2_X1
* cell instance $576 m0 *1 11.59,46.2
X$576 41 1433 1434 1477 1333 845 57 OAI22_X4
* cell instance $577 m0 *1 14.82,46.2
X$577 1433 41 57 1130 CLKBUF_X3
* cell instance $578 m0 *1 15.77,46.2
X$578 745 1287 1393 41 57 NOR2_X4
* cell instance $581 m0 *1 18.43,46.2
X$581 806 867 1436 1435 1391 1519 41 57 OAI221_X2
* cell instance $582 m0 *1 20.52,46.2
X$582 1435 1436 41 57 1521 NOR2_X1
* cell instance $585 m0 *1 24.32,46.2
X$585 1129 1069 1438 41 57 1494 NAND3_X1
* cell instance $586 m0 *1 25.08,46.2
X$586 942 1494 1439 41 1181 57 AOI21_X2
* cell instance $587 m0 *1 26.41,46.2
X$587 921 1014 1339 41 57 1525 NAND3_X1
* cell instance $589 m0 *1 27.36,46.2
X$589 770 1208 1425 1481 41 57 1495 NOR4_X1
* cell instance $590 m0 *1 28.31,46.2
X$590 1437 1525 1524 57 1441 41 OAI21_X1
* cell instance $591 m0 *1 29.07,46.2
X$591 945 1441 57 41 1484 AND2_X1
* cell instance $593 m0 *1 30.59,46.2
X$593 41 1522 1421 1442 1444 57 DFF_X1
* cell instance $595 m0 *1 34.01,46.2
X$595 1522 1443 1523 57 41 1399 HA_X1
* cell instance $602 r0 *1 1.52,46.2
X$602 1527 41 57 1386 BUF_X1
* cell instance $604 m0 *1 3.23,46.2
X$604 916 1310 1330 1097 57 1512 41 NOR4_X2
* cell instance $605 m0 *1 2.47,46.2
X$605 1430 41 57 1097 CLKBUF_X2
* cell instance $612 r0 *1 3.42,46.2
X$612 617 922 938 1561 41 57 1530 AOI211_X4
* cell instance $613 m0 *1 7.03,46.2
X$613 1431 1170 1330 41 57 1516 MUX2_X1
* cell instance $614 m0 *1 5.32,46.2
X$614 1471 1040 1431 1170 1514 57 41 AOI211_X2
* cell instance $616 r0 *1 5.51,46.2
X$616 1530 1067 1529 1364 1533 57 41 AOI211_X2
* cell instance $620 r0 *1 8.55,46.2
X$620 1310 1531 1097 41 57 1532 MUX2_X1
* cell instance $623 r0 *1 10.83,46.2
X$623 1533 1514 897 41 57 1585 NOR3_X1
* cell instance $624 r0 *1 11.59,46.2
X$624 845 1533 1514 897 1336 1335 41 57 1518 OAI33_X1
* cell instance $625 r0 *1 12.92,46.2
X$625 1518 745 960 1491 1202 1572 57 41 AOI221_X2
* cell instance $626 r0 *1 15.01,46.2
X$626 1334 1202 1391 41 1493 57 AOI21_X1
* cell instance $630 r0 *1 18.24,46.2
X$630 1044 41 57 1576 INV_X1
* cell instance $631 r0 *1 18.62,46.2
X$631 938 1576 922 702 1536 57 41 AOI211_X2
* cell instance $633 r0 *1 20.52,46.2
X$633 1128 1433 1279 41 57 1538 MUX2_X1
* cell instance $634 r0 *1 21.85,46.2
X$634 1279 1438 41 57 1537 NAND2_X1
* cell instance $636 r0 *1 23.94,46.2
X$636 1069 1073 1129 1393 57 41 1539 AND4_X1
* cell instance $637 r0 *1 25.08,46.2
X$637 869 945 41 57 1582 NAND2_X1
* cell instance $638 r0 *1 25.65,46.2
X$638 1128 1073 1334 41 57 1624 NAND3_X1
* cell instance $639 r0 *1 26.41,46.2
X$639 1494 1439 41 57 1540 NAND2_X1
* cell instance $642 r0 *1 27.55,46.2
X$642 1542 1495 1277 1580 41 57 1541 NAND4_X1
* cell instance $643 r0 *1 28.5,46.2
X$643 869 1425 41 57 1524 NAND2_X1
* cell instance $647 m0 *1 5.13,60.2
X$647 1923 1583 1739 41 57 1968 MUX2_X1
* cell instance $650 m0 *1 6.65,60.2
X$650 2035 1583 1924 41 57 1926 MUX2_X1
* cell instance $652 m0 *1 8.17,60.2
X$652 1583 57 1206 41 BUF_X4
* cell instance $654 m0 *1 9.69,60.2
X$654 1954 1243 1388 1928 57 41 1535 OAI22_X2
* cell instance $657 m0 *1 12.35,60.2
X$657 1594 1927 1586 1166 41 57 1958 AOI22_X1
* cell instance $658 m0 *1 13.3,60.2
X$658 1388 1958 1924 1243 57 41 1929 OAI22_X1
* cell instance $660 m0 *1 14.44,60.2
X$660 41 1586 1127 1928 1683 1491 57 AOI22_X4
* cell instance $662 m0 *1 19.19,60.2
X$662 1491 41 57 1594 CLKBUF_X3
* cell instance $665 m0 *1 21.85,60.2
X$665 1048 1769 2013 1073 41 57 1934 AOI22_X2
* cell instance $666 m0 *1 23.56,60.2
X$666 1873 1677 2004 41 57 2003 NAND3_X1
* cell instance $667 m0 *1 24.32,60.2
X$667 1582 1675 1933 1930 1871 1967 41 57 OAI221_X2
* cell instance $668 m0 *1 26.41,60.2
X$668 944 1393 57 41 1973 AND2_X1
* cell instance $669 m0 *1 27.17,60.2
X$669 1334 1934 57 41 1936 AND2_X1
* cell instance $672 m0 *1 1.71,60.2
X$672 1921 41 57 1739 BUF_X1
* cell instance $676 r0 *1 1.9,60.2
X$676 2006 1583 2031 41 57 1837 MUX2_X1
* cell instance $680 r0 *1 3.23,60.2
X$680 1739 1040 2006 41 57 1989 MUX2_X1
* cell instance $681 r0 *1 4.56,60.2
X$681 2069 1583 1989 41 57 1775 MUX2_X1
* cell instance $682 r0 *1 5.89,60.2
X$682 1968 1691 1837 41 57 2040 MUX2_X1
* cell instance $683 r0 *1 7.22,60.2
X$683 2006 41 57 1925 INV_X1
* cell instance $686 r0 *1 8.55,60.2
X$686 1742 1433 2040 41 57 2007 MUX2_X1
* cell instance $687 r0 *1 9.88,60.2
X$687 2035 1243 2041 1388 57 41 2042 OAI22_X2
* cell instance $688 r0 *1 11.59,60.2
X$688 1586 1333 2007 1594 41 57 2041 AOI22_X2
* cell instance $690 r0 *1 13.49,60.2
X$690 1334 2045 1927 41 2009 57 AOI21_X1
* cell instance $692 r0 *1 14.63,60.2
X$692 41 1393 1127 2048 1686 1683 2047 2010 57 AOI222_X2
* cell instance $694 r0 *1 17.67,60.2
X$694 2011 2049 1587 1928 2050 57 41 AOI211_X2
* cell instance $697 r0 *1 19.95,60.2
X$697 1587 2051 1491 41 2001 57 AOI21_X1
* cell instance $699 r0 *1 20.9,60.2
X$699 2012 2001 1930 1587 1437 2002 57 41 AOI221_X2
* cell instance $700 r0 *1 22.99,60.2
X$700 1073 1970 1319 1438 41 57 1974 AOI22_X2
* cell instance $702 r0 *1 25.46,60.2
X$702 1735 1971 41 57 2004 NAND2_X1
* cell instance $704 r0 *1 26.79,60.2
X$704 893 1972 1971 2015 41 57 1580 NOR4_X1
* cell instance $705 r0 *1 27.74,60.2
X$705 1973 1181 1972 1735 41 57 2017 AOI22_X1
* cell instance $707 m0 *1 28.31,60.2
X$707 1392 944 41 57 1976 NAND2_X1
* cell instance $708 r0 *1 28.69,60.2
X$708 1735 1481 41 57 2058 NAND2_X1
* cell instance $710 m0 *1 29.26,60.2
X$710 1132 41 57 1975 INV_X1
* cell instance $713 m0 *1 32.11,60.2
X$713 41 2000 1938 1929 1444 57 DFF_X1
* cell instance $714 m0 *1 35.34,60.2
X$714 1937 2000 2652 57 41 1792 HA_X1
* cell instance $716 m0 *1 37.43,60.2
X$716 1937 1938 2656 57 41 1944 HA_X1
* cell instance $719 r0 *1 29.45,60.2
X$719 1807 1974 2058 1975 1976 57 41 2059 OAI221_X1
* cell instance $724 r0 *1 33.44,60.2
X$724 41 1998 1937 2059 2064 57 DFF_X1
* cell instance $727 r0 *1 37.62,60.2
X$727 41 1999 2062 1867 1444 57 DFF_X1
* cell instance $729 m0 *1 39.71,60.2
X$729 1998 1938 1996 57 41 1732 HA_X1
* cell instance $732 r0 *1 41.42,60.2
X$732 1999 2061 1997 57 41 1941 HA_X1
* cell instance $733 m0 *1 42.18,60.2
X$733 1939 1884 2651 57 41 1961 HA_X1
* cell instance $737 r0 *1 43.32,60.2
X$737 2064 41 57 INV_X8
* cell instance $738 r0 *1 45.03,60.2
X$738 1978 1997 1977 41 1995 57 AOI21_X1
* cell instance $739 m0 *1 45.41,60.2
X$739 1996 57 1704 41 BUF_X4
* cell instance $743 m0 *1 47.69,60.2
X$743 1848 1891 1941 41 1994 57 AOI21_X1
* cell instance $744 m0 *1 48.45,60.2
X$744 1942 1896 41 57 1962 NOR2_X1
* cell instance $745 m0 *1 49.02,60.2
X$745 1994 1896 41 57 1960 NOR2_X1
* cell instance $748 m0 *1 52.82,60.2
X$748 1943 41 57 1979 INV_X1
* cell instance $749 m0 *1 53.2,60.2
X$749 1105 1943 41 57 1947 NOR2_X1
* cell instance $750 m0 *1 53.77,60.2
X$750 41 1993 1786 2088 1211 1984 57 OAI211_X4
* cell instance $751 m0 *1 57,60.2
X$751 1727 1107 41 57 1945 NOR2_X1
* cell instance $753 m0 *1 57.76,60.2
X$753 1945 1992 1947 41 1946 57 AOI21_X1
* cell instance $755 m0 *1 58.71,60.2
X$755 1948 1142 41 57 1551 NOR2_X1
* cell instance $762 r0 *1 47.12,60.2
X$762 1893 1995 2022 57 2063 41 OAI21_X1
* cell instance $763 r0 *1 47.88,60.2
X$763 1848 41 57 2021 INV_X1
* cell instance $764 r0 *1 48.26,60.2
X$764 1961 1891 1978 41 1942 57 AOI21_X1
* cell instance $765 r0 *1 49.02,60.2
X$765 1961 41 57 2022 INV_X1
* cell instance $769 r0 *1 53.39,60.2
X$769 1979 1891 1980 57 41 1981 OAI21_X2
* cell instance $770 r0 *1 54.72,60.2
X$770 1983 1982 1944 1896 1981 1813 57 41 AOI221_X2
* cell instance $771 r0 *1 56.81,60.2
X$771 1985 2025 1107 57 1894 41 OAI21_X1
* cell instance $772 r0 *1 57.57,60.2
X$772 1985 2025 1893 57 1992 41 OAI21_X1
* cell instance $779 r0 *1 63.27,60.2
X$779 1619 273 2044 41 2026 57 AOI21_X1
* cell instance $781 m0 *1 64.41,60.2
X$781 1986 41 57 1955 INV_X1
* cell instance $783 m0 *1 64.79,60.2
X$783 1513 273 1955 41 1991 57 AOI21_X1
* cell instance $784 m0 *1 65.55,60.2
X$784 41 2589 1986 1991 1855 57 DFF_X1
* cell instance $785 m0 *1 68.78,60.2
X$785 1312 273 1949 41 1990 57 AOI21_X1
* cell instance $786 m0 *1 69.54,60.2
X$786 93 1986 57 41 1988 AND2_X1
* cell instance $788 m0 *1 76.38,60.2
X$788 669 1950 57 41 1987 AND2_X1
* cell instance $790 m0 *1 80.18,60.2
X$790 1901 41 57 1951 BUF_X1
* cell instance $794 r0 *1 64.98,60.2
X$794 2043 41 57 2044 INV_X1
* cell instance $796 r0 *1 66.88,60.2
X$796 1855 41 57 2542 INV_X4
* cell instance $797 r0 *1 67.83,60.2
X$797 41 2610 2037 1990 1855 57 DFF_X1
* cell instance $798 r0 *1 71.06,60.2
X$798 2037 41 57 1949 INV_X1
* cell instance $800 r0 *1 71.63,60.2
X$800 41 2608 2034 1988 1763 57 DFF_X1
* cell instance $802 r0 *1 75.05,60.2
X$802 2034 41 57 2030 BUF_X1
* cell instance $803 r0 *1 75.62,60.2
X$803 93 2037 57 41 2033 AND2_X1
* cell instance $806 r0 *1 78.28,60.2
X$806 41 2604 2032 1987 1763 57 DFF_X1
* cell instance $807 r0 *1 81.51,60.2
X$807 2032 41 57 2029 BUF_X1
* cell instance $810 m0 *1 10.45,63
X$810 1904 988 2114 41 57 2010 MUX2_X1
* cell instance $812 m0 *1 11.78,63
X$812 2098 943 41 57 1866 NAND2_X1
* cell instance $813 m0 *1 12.35,63
X$813 943 1775 57 41 2101 AND2_X1
* cell instance $814 m0 *1 13.11,63
X$814 942 1587 41 57 2045 NOR2_X1
* cell instance $815 m0 *1 13.68,63
X$815 41 2008 2047 2073 1393 1333 1686 2007 57 AOI222_X2
* cell instance $816 m0 *1 16.34,63
X$816 1840 942 41 57 2047 NOR2_X1
* cell instance $819 r0 *1 10.45,63
X$819 1311 57 1691 41 BUF_X4
* cell instance $823 r0 *1 13.11,63
X$823 2101 1126 1840 1013 2115 2116 57 41 AOI221_X2
* cell instance $825 r0 *1 15.58,63
X$825 2074 2046 1672 2049 41 57 2152 NOR4_X1
* cell instance $828 r0 *1 17.1,63
X$828 2075 1011 41 57 2117 NOR2_X1
* cell instance $829 m0 *1 17.48,63
X$829 1491 2154 1587 1692 2010 2011 57 41 AOI221_X2
* cell instance $831 m0 *1 19.57,63
X$831 2118 1069 41 57 2155 NOR2_X1
* cell instance $832 m0 *1 20.14,63
X$832 1972 1206 57 41 2055 AND2_X1
* cell instance $837 r0 *1 19,63
X$837 2172 1433 2155 41 57 2051 MUX2_X1
* cell instance $838 r0 *1 20.33,63
X$838 1741 2119 41 57 2156 NOR2_X1
* cell instance $839 r0 *1 20.9,63
X$839 1206 2119 41 57 2076 NOR2_X1
* cell instance $841 m0 *1 21.28,63
X$841 1969 1692 41 57 2012 NAND2_X1
* cell instance $842 m0 *1 22.04,63
X$842 2055 2076 1124 41 57 1915 NOR3_X1
* cell instance $843 m0 *1 22.8,63