* CDL Netlist generated by OpenROAD

*.BUSDELIMITER [

.SUBCKT lfsr bit_out clk enable lfsr_out[0] lfsr_out[1] lfsr_out[2]
+ lfsr_out[3] lfsr_out[4] lfsr_out[5] lfsr_out[6] lfsr_out[7]
+ load rst_n seed[0] seed[1] seed[2] seed[3] seed[4] seed[5]
+ seed[6] seed[7]
X_18_ net12 net14 net2 _08_ VDD VSS gf180mcu_fd_sc_mcu9t5v0__mux2_2
X_19_ _08_ net4 net3 _00_ VDD VSS gf180mcu_fd_sc_mcu9t5v0__mux2_2
X_20_ net14 net15 net2 _09_ VDD VSS gf180mcu_fd_sc_mcu9t5v0__mux2_2
X_21_ _09_ net5 net3 _01_ VDD VSS gf180mcu_fd_sc_mcu9t5v0__mux2_2
X_22_ net15 net16 net2 _10_ VDD VSS gf180mcu_fd_sc_mcu9t5v0__mux2_2
X_23_ _10_ net6 net3 _02_ VDD VSS gf180mcu_fd_sc_mcu9t5v0__mux2_2
X_24_ net16 net17 net2 _11_ VDD VSS gf180mcu_fd_sc_mcu9t5v0__mux2_2
X_25_ _11_ net7 net3 _03_ VDD VSS gf180mcu_fd_sc_mcu9t5v0__mux2_2
X_26_ net17 net18 net2 _12_ VDD VSS gf180mcu_fd_sc_mcu9t5v0__mux2_2
X_27_ _12_ net8 net3 _04_ VDD VSS gf180mcu_fd_sc_mcu9t5v0__mux2_2
X_28_ net18 net19 net2 _13_ VDD VSS gf180mcu_fd_sc_mcu9t5v0__mux2_2
X_29_ _13_ net9 net3 _05_ VDD VSS gf180mcu_fd_sc_mcu9t5v0__mux2_2
X_30_ net19 net20 net2 _14_ VDD VSS gf180mcu_fd_sc_mcu9t5v0__mux2_2
X_31_ _14_ net10 net3 _06_ VDD VSS gf180mcu_fd_sc_mcu9t5v0__mux2_2
X_32_ net16 net17 net18 _15_ VDD VSS gf180mcu_fd_sc_mcu9t5v0__xor3_2
X_33_ net2 _15_ _16_ VDD VSS gf180mcu_fd_sc_mcu9t5v0__nand2_2
X_34_ net20 _16_ _17_ VDD VSS gf180mcu_fd_sc_mcu9t5v0__xnor2_2
X_35_ _17_ net11 net3 _07_ VDD VSS gf180mcu_fd_sc_mcu9t5v0__mux2_2
X_36_ net12 net13 VDD VSS gf180mcu_fd_sc_mcu9t5v0__clkbuf_2
Xlfsr_reg\[0\]$_DFFE_PN0P_ _00_ net1 clknet_1_1__leaf_clk
+ net12 VDD VSS gf180mcu_fd_sc_mcu9t5v0__dffrnq_2
Xlfsr_reg\[1\]$_DFFE_PN0P_ _01_ net1 clknet_1_0__leaf_clk
+ net14 VDD VSS gf180mcu_fd_sc_mcu9t5v0__dffrnq_2
Xlfsr_reg\[2\]$_DFFE_PN0P_ _02_ net1 clknet_1_0__leaf_clk
+ net15 VDD VSS gf180mcu_fd_sc_mcu9t5v0__dffrnq_2
Xlfsr_reg\[3\]$_DFFE_PN0P_ _03_ net1 clknet_1_0__leaf_clk
+ net16 VDD VSS gf180mcu_fd_sc_mcu9t5v0__dffrnq_2
Xlfsr_reg\[4\]$_DFFE_PN0P_ _04_ net1 clknet_1_0__leaf_clk
+ net17 VDD VSS gf180mcu_fd_sc_mcu9t5v0__dffrnq_2
Xlfsr_reg\[5\]$_DFFE_PN0P_ _05_ net1 clknet_1_1__leaf_clk
+ net18 VDD VSS gf180mcu_fd_sc_mcu9t5v0__dffrnq_2
Xlfsr_reg\[6\]$_DFFE_PN0P_ _06_ net1 clknet_1_1__leaf_clk
+ net19 VDD VSS gf180mcu_fd_sc_mcu9t5v0__dffrnq_2
Xlfsr_reg\[7\]$_DFFE_PN0P_ _07_ net1 clknet_1_1__leaf_clk
+ net20 VDD VSS gf180mcu_fd_sc_mcu9t5v0__dffrnq_2
Xhold1 net21 net1 VDD VSS gf180mcu_fd_sc_mcu9t5v0__buf_3
XPHY_EDGE_ROW_0_Right_0 VDD VSS gf180mcu_fd_sc_mcu9t5v0__endcap
XPHY_EDGE_ROW_1_Right_1 VDD VSS gf180mcu_fd_sc_mcu9t5v0__endcap
XPHY_EDGE_ROW_2_Right_2 VDD VSS gf180mcu_fd_sc_mcu9t5v0__endcap
XPHY_EDGE_ROW_3_Right_3 VDD VSS gf180mcu_fd_sc_mcu9t5v0__endcap
XPHY_EDGE_ROW_4_Right_4 VDD VSS gf180mcu_fd_sc_mcu9t5v0__endcap
XPHY_EDGE_ROW_5_Right_5 VDD VSS gf180mcu_fd_sc_mcu9t5v0__endcap
XPHY_EDGE_ROW_6_Right_6 VDD VSS gf180mcu_fd_sc_mcu9t5v0__endcap
XPHY_EDGE_ROW_7_Right_7 VDD VSS gf180mcu_fd_sc_mcu9t5v0__endcap
XPHY_EDGE_ROW_8_Right_8 VDD VSS gf180mcu_fd_sc_mcu9t5v0__endcap
XPHY_EDGE_ROW_9_Right_9 VDD VSS gf180mcu_fd_sc_mcu9t5v0__endcap
XPHY_EDGE_ROW_10_Right_10 VDD VSS gf180mcu_fd_sc_mcu9t5v0__endcap
XPHY_EDGE_ROW_11_Right_11 VDD VSS gf180mcu_fd_sc_mcu9t5v0__endcap
XPHY_EDGE_ROW_12_Right_12 VDD VSS gf180mcu_fd_sc_mcu9t5v0__endcap
XPHY_EDGE_ROW_13_Right_13 VDD VSS gf180mcu_fd_sc_mcu9t5v0__endcap
XPHY_EDGE_ROW_14_Right_14 VDD VSS gf180mcu_fd_sc_mcu9t5v0__endcap
XPHY_EDGE_ROW_15_Right_15 VDD VSS gf180mcu_fd_sc_mcu9t5v0__endcap
XPHY_EDGE_ROW_16_Right_16 VDD VSS gf180mcu_fd_sc_mcu9t5v0__endcap
XPHY_EDGE_ROW_17_Right_17 VDD VSS gf180mcu_fd_sc_mcu9t5v0__endcap
XPHY_EDGE_ROW_18_Right_18 VDD VSS gf180mcu_fd_sc_mcu9t5v0__endcap
XPHY_EDGE_ROW_19_Right_19 VDD VSS gf180mcu_fd_sc_mcu9t5v0__endcap
XPHY_EDGE_ROW_20_Right_20 VDD VSS gf180mcu_fd_sc_mcu9t5v0__endcap
XPHY_EDGE_ROW_21_Right_21 VDD VSS gf180mcu_fd_sc_mcu9t5v0__endcap
XPHY_EDGE_ROW_22_Right_22 VDD VSS gf180mcu_fd_sc_mcu9t5v0__endcap
XPHY_EDGE_ROW_23_Right_23 VDD VSS gf180mcu_fd_sc_mcu9t5v0__endcap
XPHY_EDGE_ROW_24_Right_24 VDD VSS gf180mcu_fd_sc_mcu9t5v0__endcap
XPHY_EDGE_ROW_25_Right_25 VDD VSS gf180mcu_fd_sc_mcu9t5v0__endcap
XPHY_EDGE_ROW_26_Right_26 VDD VSS gf180mcu_fd_sc_mcu9t5v0__endcap
XPHY_EDGE_ROW_27_Right_27 VDD VSS gf180mcu_fd_sc_mcu9t5v0__endcap
XPHY_EDGE_ROW_28_Right_28 VDD VSS gf180mcu_fd_sc_mcu9t5v0__endcap
XPHY_EDGE_ROW_29_Right_29 VDD VSS gf180mcu_fd_sc_mcu9t5v0__endcap
XPHY_EDGE_ROW_30_Right_30 VDD VSS gf180mcu_fd_sc_mcu9t5v0__endcap
XPHY_EDGE_ROW_31_Right_31 VDD VSS gf180mcu_fd_sc_mcu9t5v0__endcap
XPHY_EDGE_ROW_32_Right_32 VDD VSS gf180mcu_fd_sc_mcu9t5v0__endcap
XPHY_EDGE_ROW_33_Right_33 VDD VSS gf180mcu_fd_sc_mcu9t5v0__endcap
XPHY_EDGE_ROW_34_Right_34 VDD VSS gf180mcu_fd_sc_mcu9t5v0__endcap
XPHY_EDGE_ROW_35_Right_35 VDD VSS gf180mcu_fd_sc_mcu9t5v0__endcap
XPHY_EDGE_ROW_36_Right_36 VDD VSS gf180mcu_fd_sc_mcu9t5v0__endcap
XPHY_EDGE_ROW_37_Right_37 VDD VSS gf180mcu_fd_sc_mcu9t5v0__endcap
XPHY_EDGE_ROW_38_Right_38 VDD VSS gf180mcu_fd_sc_mcu9t5v0__endcap
XPHY_EDGE_ROW_39_Right_39 VDD VSS gf180mcu_fd_sc_mcu9t5v0__endcap
XPHY_EDGE_ROW_40_Right_40 VDD VSS gf180mcu_fd_sc_mcu9t5v0__endcap
XPHY_EDGE_ROW_41_Right_41 VDD VSS gf180mcu_fd_sc_mcu9t5v0__endcap
XPHY_EDGE_ROW_42_Right_42 VDD VSS gf180mcu_fd_sc_mcu9t5v0__endcap
XPHY_EDGE_ROW_43_Right_43 VDD VSS gf180mcu_fd_sc_mcu9t5v0__endcap
XPHY_EDGE_ROW_44_Right_44 VDD VSS gf180mcu_fd_sc_mcu9t5v0__endcap
XPHY_EDGE_ROW_45_Right_45 VDD VSS gf180mcu_fd_sc_mcu9t5v0__endcap
XPHY_EDGE_ROW_46_Right_46 VDD VSS gf180mcu_fd_sc_mcu9t5v0__endcap
XPHY_EDGE_ROW_47_Right_47 VDD VSS gf180mcu_fd_sc_mcu9t5v0__endcap
XPHY_EDGE_ROW_48_Right_48 VDD VSS gf180mcu_fd_sc_mcu9t5v0__endcap
XPHY_EDGE_ROW_49_Right_49 VDD VSS gf180mcu_fd_sc_mcu9t5v0__endcap
XPHY_EDGE_ROW_50_Right_50 VDD VSS gf180mcu_fd_sc_mcu9t5v0__endcap
XPHY_EDGE_ROW_51_Right_51 VDD VSS gf180mcu_fd_sc_mcu9t5v0__endcap
XPHY_EDGE_ROW_52_Right_52 VDD VSS gf180mcu_fd_sc_mcu9t5v0__endcap
XPHY_EDGE_ROW_53_Right_53 VDD VSS gf180mcu_fd_sc_mcu9t5v0__endcap
XPHY_EDGE_ROW_54_Right_54 VDD VSS gf180mcu_fd_sc_mcu9t5v0__endcap
XPHY_EDGE_ROW_55_Right_55 VDD VSS gf180mcu_fd_sc_mcu9t5v0__endcap
XPHY_EDGE_ROW_56_Right_56 VDD VSS gf180mcu_fd_sc_mcu9t5v0__endcap
XPHY_EDGE_ROW_57_Right_57 VDD VSS gf180mcu_fd_sc_mcu9t5v0__endcap
XPHY_EDGE_ROW_58_Right_58 VDD VSS gf180mcu_fd_sc_mcu9t5v0__endcap
XPHY_EDGE_ROW_59_Right_59 VDD VSS gf180mcu_fd_sc_mcu9t5v0__endcap
XPHY_EDGE_ROW_60_Right_60 VDD VSS gf180mcu_fd_sc_mcu9t5v0__endcap
XPHY_EDGE_ROW_61_Right_61 VDD VSS gf180mcu_fd_sc_mcu9t5v0__endcap
XPHY_EDGE_ROW_62_Right_62 VDD VSS gf180mcu_fd_sc_mcu9t5v0__endcap
XPHY_EDGE_ROW_63_Right_63 VDD VSS gf180mcu_fd_sc_mcu9t5v0__endcap
XPHY_EDGE_ROW_64_Right_64 VDD VSS gf180mcu_fd_sc_mcu9t5v0__endcap
XPHY_EDGE_ROW_65_Right_65 VDD VSS gf180mcu_fd_sc_mcu9t5v0__endcap
XPHY_EDGE_ROW_66_Right_66 VDD VSS gf180mcu_fd_sc_mcu9t5v0__endcap
XPHY_EDGE_ROW_67_Right_67 VDD VSS gf180mcu_fd_sc_mcu9t5v0__endcap
XPHY_EDGE_ROW_68_Right_68 VDD VSS gf180mcu_fd_sc_mcu9t5v0__endcap
XPHY_EDGE_ROW_69_Right_69 VDD VSS gf180mcu_fd_sc_mcu9t5v0__endcap
XPHY_EDGE_ROW_70_Right_70 VDD VSS gf180mcu_fd_sc_mcu9t5v0__endcap
XPHY_EDGE_ROW_71_Right_71 VDD VSS gf180mcu_fd_sc_mcu9t5v0__endcap
XPHY_EDGE_ROW_72_Right_72 VDD VSS gf180mcu_fd_sc_mcu9t5v0__endcap
XPHY_EDGE_ROW_73_Right_73 VDD VSS gf180mcu_fd_sc_mcu9t5v0__endcap
XPHY_EDGE_ROW_74_Right_74 VDD VSS gf180mcu_fd_sc_mcu9t5v0__endcap
XPHY_EDGE_ROW_75_Right_75 VDD VSS gf180mcu_fd_sc_mcu9t5v0__endcap
XPHY_EDGE_ROW_76_Right_76 VDD VSS gf180mcu_fd_sc_mcu9t5v0__endcap
XPHY_EDGE_ROW_77_Right_77 VDD VSS gf180mcu_fd_sc_mcu9t5v0__endcap
XPHY_EDGE_ROW_78_Right_78 VDD VSS gf180mcu_fd_sc_mcu9t5v0__endcap
XPHY_EDGE_ROW_79_Right_79 VDD VSS gf180mcu_fd_sc_mcu9t5v0__endcap
XPHY_EDGE_ROW_80_Right_80 VDD VSS gf180mcu_fd_sc_mcu9t5v0__endcap
XPHY_EDGE_ROW_81_Right_81 VDD VSS gf180mcu_fd_sc_mcu9t5v0__endcap
XPHY_EDGE_ROW_82_Right_82 VDD VSS gf180mcu_fd_sc_mcu9t5v0__endcap
XPHY_EDGE_ROW_83_Right_83 VDD VSS gf180mcu_fd_sc_mcu9t5v0__endcap
XPHY_EDGE_ROW_84_Right_84 VDD VSS gf180mcu_fd_sc_mcu9t5v0__endcap
XPHY_EDGE_ROW_85_Right_85 VDD VSS gf180mcu_fd_sc_mcu9t5v0__endcap
XPHY_EDGE_ROW_86_Right_86 VDD VSS gf180mcu_fd_sc_mcu9t5v0__endcap
XPHY_EDGE_ROW_87_Right_87 VDD VSS gf180mcu_fd_sc_mcu9t5v0__endcap
XPHY_EDGE_ROW_88_Right_88 VDD VSS gf180mcu_fd_sc_mcu9t5v0__endcap
XPHY_EDGE_ROW_89_Right_89 VDD VSS gf180mcu_fd_sc_mcu9t5v0__endcap
XPHY_EDGE_ROW_90_Right_90 VDD VSS gf180mcu_fd_sc_mcu9t5v0__endcap
XPHY_EDGE_ROW_91_Right_91 VDD VSS gf180mcu_fd_sc_mcu9t5v0__endcap
XPHY_EDGE_ROW_92_Right_92 VDD VSS gf180mcu_fd_sc_mcu9t5v0__endcap
XPHY_EDGE_ROW_93_Right_93 VDD VSS gf180mcu_fd_sc_mcu9t5v0__endcap
XPHY_EDGE_ROW_94_Right_94 VDD VSS gf180mcu_fd_sc_mcu9t5v0__endcap
XPHY_EDGE_ROW_95_Right_95 VDD VSS gf180mcu_fd_sc_mcu9t5v0__endcap
XPHY_EDGE_ROW_96_Right_96 VDD VSS gf180mcu_fd_sc_mcu9t5v0__endcap
XPHY_EDGE_ROW_97_Right_97 VDD VSS gf180mcu_fd_sc_mcu9t5v0__endcap
XPHY_EDGE_ROW_98_Right_98 VDD VSS gf180mcu_fd_sc_mcu9t5v0__endcap
XPHY_EDGE_ROW_99_Right_99 VDD VSS gf180mcu_fd_sc_mcu9t5v0__endcap
XPHY_EDGE_ROW_100_Right_100 VDD VSS gf180mcu_fd_sc_mcu9t5v0__endcap
XPHY_EDGE_ROW_101_Right_101 VDD VSS gf180mcu_fd_sc_mcu9t5v0__endcap
XPHY_EDGE_ROW_102_Right_102 VDD VSS gf180mcu_fd_sc_mcu9t5v0__endcap
XPHY_EDGE_ROW_103_Right_103 VDD VSS gf180mcu_fd_sc_mcu9t5v0__endcap
XPHY_EDGE_ROW_104_Right_104 VDD VSS gf180mcu_fd_sc_mcu9t5v0__endcap
XPHY_EDGE_ROW_105_Right_105 VDD VSS gf180mcu_fd_sc_mcu9t5v0__endcap
XPHY_EDGE_ROW_0_Left_106 VDD VSS gf180mcu_fd_sc_mcu9t5v0__endcap
XPHY_EDGE_ROW_1_Left_107 VDD VSS gf180mcu_fd_sc_mcu9t5v0__endcap
XPHY_EDGE_ROW_2_Left_108 VDD VSS gf180mcu_fd_sc_mcu9t5v0__endcap
XPHY_EDGE_ROW_3_Left_109 VDD VSS gf180mcu_fd_sc_mcu9t5v0__endcap
XPHY_EDGE_ROW_4_Left_110 VDD VSS gf180mcu_fd_sc_mcu9t5v0__endcap
XPHY_EDGE_ROW_5_Left_111 VDD VSS gf180mcu_fd_sc_mcu9t5v0__endcap
XPHY_EDGE_ROW_6_Left_112 VDD VSS gf180mcu_fd_sc_mcu9t5v0__endcap
XPHY_EDGE_ROW_7_Left_113 VDD VSS gf180mcu_fd_sc_mcu9t5v0__endcap
XPHY_EDGE_ROW_8_Left_114 VDD VSS gf180mcu_fd_sc_mcu9t5v0__endcap
XPHY_EDGE_ROW_9_Left_115 VDD VSS gf180mcu_fd_sc_mcu9t5v0__endcap
XPHY_EDGE_ROW_10_Left_116 VDD VSS gf180mcu_fd_sc_mcu9t5v0__endcap
XPHY_EDGE_ROW_11_Left_117 VDD VSS gf180mcu_fd_sc_mcu9t5v0__endcap
XPHY_EDGE_ROW_12_Left_118 VDD VSS gf180mcu_fd_sc_mcu9t5v0__endcap
XPHY_EDGE_ROW_13_Left_119 VDD VSS gf180mcu_fd_sc_mcu9t5v0__endcap
XPHY_EDGE_ROW_14_Left_120 VDD VSS gf180mcu_fd_sc_mcu9t5v0__endcap
XPHY_EDGE_ROW_15_Left_121 VDD VSS gf180mcu_fd_sc_mcu9t5v0__endcap
XPHY_EDGE_ROW_16_Left_122 VDD VSS gf180mcu_fd_sc_mcu9t5v0__endcap
XPHY_EDGE_ROW_17_Left_123 VDD VSS gf180mcu_fd_sc_mcu9t5v0__endcap
XPHY_EDGE_ROW_18_Left_124 VDD VSS gf180mcu_fd_sc_mcu9t5v0__endcap
XPHY_EDGE_ROW_19_Left_125 VDD VSS gf180mcu_fd_sc_mcu9t5v0__endcap
XPHY_EDGE_ROW_20_Left_126 VDD VSS gf180mcu_fd_sc_mcu9t5v0__endcap
XPHY_EDGE_ROW_21_Left_127 VDD VSS gf180mcu_fd_sc_mcu9t5v0__endcap
XPHY_EDGE_ROW_22_Left_128 VDD VSS gf180mcu_fd_sc_mcu9t5v0__endcap
XPHY_EDGE_ROW_23_Left_129 VDD VSS gf180mcu_fd_sc_mcu9t5v0__endcap
XPHY_EDGE_ROW_24_Left_130 VDD VSS gf180mcu_fd_sc_mcu9t5v0__endcap
XPHY_EDGE_ROW_25_Left_131 VDD VSS gf180mcu_fd_sc_mcu9t5v0__endcap
XPHY_EDGE_ROW_26_Left_132 VDD VSS gf180mcu_fd_sc_mcu9t5v0__endcap
XPHY_EDGE_ROW_27_Left_133 VDD VSS gf180mcu_fd_sc_mcu9t5v0__endcap
XPHY_EDGE_ROW_28_Left_134 VDD VSS gf180mcu_fd_sc_mcu9t5v0__endcap
XPHY_EDGE_ROW_29_Left_135 VDD VSS gf180mcu_fd_sc_mcu9t5v0__endcap
XPHY_EDGE_ROW_30_Left_136 VDD VSS gf180mcu_fd_sc_mcu9t5v0__endcap
XPHY_EDGE_ROW_31_Left_137 VDD VSS gf180mcu_fd_sc_mcu9t5v0__endcap
XPHY_EDGE_ROW_32_Left_138 VDD VSS gf180mcu_fd_sc_mcu9t5v0__endcap
XPHY_EDGE_ROW_33_Left_139 VDD VSS gf180mcu_fd_sc_mcu9t5v0__endcap
XPHY_EDGE_ROW_34_Left_140 VDD VSS gf180mcu_fd_sc_mcu9t5v0__endcap
XPHY_EDGE_ROW_35_Left_141 VDD VSS gf180mcu_fd_sc_mcu9t5v0__endcap
XPHY_EDGE_ROW_36_Left_142 VDD VSS gf180mcu_fd_sc_mcu9t5v0__endcap
XPHY_EDGE_ROW_37_Left_143 VDD VSS gf180mcu_fd_sc_mcu9t5v0__endcap
XPHY_EDGE_ROW_38_Left_144 VDD VSS gf180mcu_fd_sc_mcu9t5v0__endcap
XPHY_EDGE_ROW_39_Left_145 VDD VSS gf180mcu_fd_sc_mcu9t5v0__endcap
XPHY_EDGE_ROW_40_Left_146 VDD VSS gf180mcu_fd_sc_mcu9t5v0__endcap
XPHY_EDGE_ROW_41_Left_147 VDD VSS gf180mcu_fd_sc_mcu9t5v0__endcap
XPHY_EDGE_ROW_42_Left_148 VDD VSS gf180mcu_fd_sc_mcu9t5v0__endcap
XPHY_EDGE_ROW_43_Left_149 VDD VSS gf180mcu_fd_sc_mcu9t5v0__endcap
XPHY_EDGE_ROW_44_Left_150 VDD VSS gf180mcu_fd_sc_mcu9t5v0__endcap
XPHY_EDGE_ROW_45_Left_151 VDD VSS gf180mcu_fd_sc_mcu9t5v0__endcap
XPHY_EDGE_ROW_46_Left_152 VDD VSS gf180mcu_fd_sc_mcu9t5v0__endcap
XPHY_EDGE_ROW_47_Left_153 VDD VSS gf180mcu_fd_sc_mcu9t5v0__endcap
XPHY_EDGE_ROW_48_Left_154 VDD VSS gf180mcu_fd_sc_mcu9t5v0__endcap
XPHY_EDGE_ROW_49_Left_155 VDD VSS gf180mcu_fd_sc_mcu9t5v0__endcap
XPHY_EDGE_ROW_50_Left_156 VDD VSS gf180mcu_fd_sc_mcu9t5v0__endcap
XPHY_EDGE_ROW_51_Left_157 VDD VSS gf180mcu_fd_sc_mcu9t5v0__endcap
XPHY_EDGE_ROW_52_Left_158 VDD VSS gf180mcu_fd_sc_mcu9t5v0__endcap
XPHY_EDGE_ROW_53_Left_159 VDD VSS gf180mcu_fd_sc_mcu9t5v0__endcap
XPHY_EDGE_ROW_54_Left_160 VDD VSS gf180mcu_fd_sc_mcu9t5v0__endcap
XPHY_EDGE_ROW_55_Left_161 VDD VSS gf180mcu_fd_sc_mcu9t5v0__endcap
XPHY_EDGE_ROW_56_Left_162 VDD VSS gf180mcu_fd_sc_mcu9t5v0__endcap
XPHY_EDGE_ROW_57_Left_163 VDD VSS gf180mcu_fd_sc_mcu9t5v0__endcap
XPHY_EDGE_ROW_58_Left_164 VDD VSS gf180mcu_fd_sc_mcu9t5v0__endcap
XPHY_EDGE_ROW_59_Left_165 VDD VSS gf180mcu_fd_sc_mcu9t5v0__endcap
XPHY_EDGE_ROW_60_Left_166 VDD VSS gf180mcu_fd_sc_mcu9t5v0__endcap
XPHY_EDGE_ROW_61_Left_167 VDD VSS gf180mcu_fd_sc_mcu9t5v0__endcap
XPHY_EDGE_ROW_62_Left_168 VDD VSS gf180mcu_fd_sc_mcu9t5v0__endcap
XPHY_EDGE_ROW_63_Left_169 VDD VSS gf180mcu_fd_sc_mcu9t5v0__endcap
XPHY_EDGE_ROW_64_Left_170 VDD VSS gf180mcu_fd_sc_mcu9t5v0__endcap
XPHY_EDGE_ROW_65_Left_171 VDD VSS gf180mcu_fd_sc_mcu9t5v0__endcap
XPHY_EDGE_ROW_66_Left_172 VDD VSS gf180mcu_fd_sc_mcu9t5v0__endcap
XPHY_EDGE_ROW_67_Left_173 VDD VSS gf180mcu_fd_sc_mcu9t5v0__endcap
XPHY_EDGE_ROW_68_Left_174 VDD VSS gf180mcu_fd_sc_mcu9t5v0__endcap
XPHY_EDGE_ROW_69_Left_175 VDD VSS gf180mcu_fd_sc_mcu9t5v0__endcap
XPHY_EDGE_ROW_70_Left_176 VDD VSS gf180mcu_fd_sc_mcu9t5v0__endcap
XPHY_EDGE_ROW_71_Left_177 VDD VSS gf180mcu_fd_sc_mcu9t5v0__endcap
XPHY_EDGE_ROW_72_Left_178 VDD VSS gf180mcu_fd_sc_mcu9t5v0__endcap
XPHY_EDGE_ROW_73_Left_179 VDD VSS gf180mcu_fd_sc_mcu9t5v0__endcap
XPHY_EDGE_ROW_74_Left_180 VDD VSS gf180mcu_fd_sc_mcu9t5v0__endcap
XPHY_EDGE_ROW_75_Left_181 VDD VSS gf180mcu_fd_sc_mcu9t5v0__endcap
XPHY_EDGE_ROW_76_Left_182 VDD VSS gf180mcu_fd_sc_mcu9t5v0__endcap
XPHY_EDGE_ROW_77_Left_183 VDD VSS gf180mcu_fd_sc_mcu9t5v0__endcap
XPHY_EDGE_ROW_78_Left_184 VDD VSS gf180mcu_fd_sc_mcu9t5v0__endcap
XPHY_EDGE_ROW_79_Left_185 VDD VSS gf180mcu_fd_sc_mcu9t5v0__endcap
XPHY_EDGE_ROW_80_Left_186 VDD VSS gf180mcu_fd_sc_mcu9t5v0__endcap
XPHY_EDGE_ROW_81_Left_187 VDD VSS gf180mcu_fd_sc_mcu9t5v0__endcap
XPHY_EDGE_ROW_82_Left_188 VDD VSS gf180mcu_fd_sc_mcu9t5v0__endcap
XPHY_EDGE_ROW_83_Left_189 VDD VSS gf180mcu_fd_sc_mcu9t5v0__endcap
XPHY_EDGE_ROW_84_Left_190 VDD VSS gf180mcu_fd_sc_mcu9t5v0__endcap
XPHY_EDGE_ROW_85_Left_191 VDD VSS gf180mcu_fd_sc_mcu9t5v0__endcap
XPHY_EDGE_ROW_86_Left_192 VDD VSS gf180mcu_fd_sc_mcu9t5v0__endcap
XPHY_EDGE_ROW_87_Left_193 VDD VSS gf180mcu_fd_sc_mcu9t5v0__endcap
XPHY_EDGE_ROW_88_Left_194 VDD VSS gf180mcu_fd_sc_mcu9t5v0__endcap
XPHY_EDGE_ROW_89_Left_195 VDD VSS gf180mcu_fd_sc_mcu9t5v0__endcap
XPHY_EDGE_ROW_90_Left_196 VDD VSS gf180mcu_fd_sc_mcu9t5v0__endcap
XPHY_EDGE_ROW_91_Left_197 VDD VSS gf180mcu_fd_sc_mcu9t5v0__endcap
XPHY_EDGE_ROW_92_Left_198 VDD VSS gf180mcu_fd_sc_mcu9t5v0__endcap
XPHY_EDGE_ROW_93_Left_199 VDD VSS gf180mcu_fd_sc_mcu9t5v0__endcap
XPHY_EDGE_ROW_94_Left_200 VDD VSS gf180mcu_fd_sc_mcu9t5v0__endcap
XPHY_EDGE_ROW_95_Left_201 VDD VSS gf180mcu_fd_sc_mcu9t5v0__endcap
XPHY_EDGE_ROW_96_Left_202 VDD VSS gf180mcu_fd_sc_mcu9t5v0__endcap
XPHY_EDGE_ROW_97_Left_203 VDD VSS gf180mcu_fd_sc_mcu9t5v0__endcap
XPHY_EDGE_ROW_98_Left_204 VDD VSS gf180mcu_fd_sc_mcu9t5v0__endcap
XPHY_EDGE_ROW_99_Left_205 VDD VSS gf180mcu_fd_sc_mcu9t5v0__endcap
XPHY_EDGE_ROW_100_Left_206 VDD VSS gf180mcu_fd_sc_mcu9t5v0__endcap
XPHY_EDGE_ROW_101_Left_207 VDD VSS gf180mcu_fd_sc_mcu9t5v0__endcap
XPHY_EDGE_ROW_102_Left_208 VDD VSS gf180mcu_fd_sc_mcu9t5v0__endcap
XPHY_EDGE_ROW_103_Left_209 VDD VSS gf180mcu_fd_sc_mcu9t5v0__endcap
XPHY_EDGE_ROW_104_Left_210 VDD VSS gf180mcu_fd_sc_mcu9t5v0__endcap
XPHY_EDGE_ROW_105_Left_211 VDD VSS gf180mcu_fd_sc_mcu9t5v0__endcap
XTAP_TAPCELL_ROW_0_212 VDD VSS gf180mcu_fd_sc_mcu9t5v0__filltie
XTAP_TAPCELL_ROW_0_213 VDD VSS gf180mcu_fd_sc_mcu9t5v0__filltie
XTAP_TAPCELL_ROW_0_214 VDD VSS gf180mcu_fd_sc_mcu9t5v0__filltie
XTAP_TAPCELL_ROW_0_215 VDD VSS gf180mcu_fd_sc_mcu9t5v0__filltie
XTAP_TAPCELL_ROW_0_216 VDD VSS gf180mcu_fd_sc_mcu9t5v0__filltie
XTAP_TAPCELL_ROW_1_217 VDD VSS gf180mcu_fd_sc_mcu9t5v0__filltie
XTAP_TAPCELL_ROW_1_218 VDD VSS gf180mcu_fd_sc_mcu9t5v0__filltie
XTAP_TAPCELL_ROW_2_219 VDD VSS gf180mcu_fd_sc_mcu9t5v0__filltie
XTAP_TAPCELL_ROW_2_220 VDD VSS gf180mcu_fd_sc_mcu9t5v0__filltie
XTAP_TAPCELL_ROW_2_221 VDD VSS gf180mcu_fd_sc_mcu9t5v0__filltie
XTAP_TAPCELL_ROW_3_222 VDD VSS gf180mcu_fd_sc_mcu9t5v0__filltie
XTAP_TAPCELL_ROW_3_223 VDD VSS gf180mcu_fd_sc_mcu9t5v0__filltie
XTAP_TAPCELL_ROW_4_224 VDD VSS gf180mcu_fd_sc_mcu9t5v0__filltie
XTAP_TAPCELL_ROW_4_225 VDD VSS gf180mcu_fd_sc_mcu9t5v0__filltie
XTAP_TAPCELL_ROW_4_226 VDD VSS gf180mcu_fd_sc_mcu9t5v0__filltie
XTAP_TAPCELL_ROW_5_227 VDD VSS gf180mcu_fd_sc_mcu9t5v0__filltie
XTAP_TAPCELL_ROW_5_228 VDD VSS gf180mcu_fd_sc_mcu9t5v0__filltie
XTAP_TAPCELL_ROW_6_229 VDD VSS gf180mcu_fd_sc_mcu9t5v0__filltie
XTAP_TAPCELL_ROW_6_230 VDD VSS gf180mcu_fd_sc_mcu9t5v0__filltie
XTAP_TAPCELL_ROW_6_231 VDD VSS gf180mcu_fd_sc_mcu9t5v0__filltie
XTAP_TAPCELL_ROW_7_232 VDD VSS gf180mcu_fd_sc_mcu9t5v0__filltie
XTAP_TAPCELL_ROW_7_233 VDD VSS gf180mcu_fd_sc_mcu9t5v0__filltie
XTAP_TAPCELL_ROW_8_234 VDD VSS gf180mcu_fd_sc_mcu9t5v0__filltie
XTAP_TAPCELL_ROW_8_235 VDD VSS gf180mcu_fd_sc_mcu9t5v0__filltie
XTAP_TAPCELL_ROW_8_236 VDD VSS gf180mcu_fd_sc_mcu9t5v0__filltie
XTAP_TAPCELL_ROW_9_237 VDD VSS gf180mcu_fd_sc_mcu9t5v0__filltie
XTAP_TAPCELL_ROW_9_238 VDD VSS gf180mcu_fd_sc_mcu9t5v0__filltie
XTAP_TAPCELL_ROW_10_239 VDD VSS gf180mcu_fd_sc_mcu9t5v0__filltie
XTAP_TAPCELL_ROW_10_240 VDD VSS gf180mcu_fd_sc_mcu9t5v0__filltie
XTAP_TAPCELL_ROW_10_241 VDD VSS gf180mcu_fd_sc_mcu9t5v0__filltie
XTAP_TAPCELL_ROW_11_242 VDD VSS gf180mcu_fd_sc_mcu9t5v0__filltie
XTAP_TAPCELL_ROW_11_243 VDD VSS gf180mcu_fd_sc_mcu9t5v0__filltie
XTAP_TAPCELL_ROW_12_244 VDD VSS gf180mcu_fd_sc_mcu9t5v0__filltie
XTAP_TAPCELL_ROW_12_245 VDD VSS gf180mcu_fd_sc_mcu9t5v0__filltie
XTAP_TAPCELL_ROW_12_246 VDD VSS gf180mcu_fd_sc_mcu9t5v0__filltie
XTAP_TAPCELL_ROW_13_247 VDD VSS gf180mcu_fd_sc_mcu9t5v0__filltie
XTAP_TAPCELL_ROW_13_248 VDD VSS gf180mcu_fd_sc_mcu9t5v0__filltie
XTAP_TAPCELL_ROW_14_249 VDD VSS gf180mcu_fd_sc_mcu9t5v0__filltie
XTAP_TAPCELL_ROW_14_250 VDD VSS gf180mcu_fd_sc_mcu9t5v0__filltie
XTAP_TAPCELL_ROW_14_251 VDD VSS gf180mcu_fd_sc_mcu9t5v0__filltie
XTAP_TAPCELL_ROW_15_252 VDD VSS gf180mcu_fd_sc_mcu9t5v0__filltie
XTAP_TAPCELL_ROW_15_253 VDD VSS gf180mcu_fd_sc_mcu9t5v0__filltie
XTAP_TAPCELL_ROW_16_254 VDD VSS gf180mcu_fd_sc_mcu9t5v0__filltie
XTAP_TAPCELL_ROW_16_255 VDD VSS gf180mcu_fd_sc_mcu9t5v0__filltie
XTAP_TAPCELL_ROW_16_256 VDD VSS gf180mcu_fd_sc_mcu9t5v0__filltie
XTAP_TAPCELL_ROW_17_257 VDD VSS gf180mcu_fd_sc_mcu9t5v0__filltie
XTAP_TAPCELL_ROW_17_258 VDD VSS gf180mcu_fd_sc_mcu9t5v0__filltie
XTAP_TAPCELL_ROW_18_259 VDD VSS gf180mcu_fd_sc_mcu9t5v0__filltie
XTAP_TAPCELL_ROW_18_260 VDD VSS gf180mcu_fd_sc_mcu9t5v0__filltie
XTAP_TAPCELL_ROW_18_261 VDD VSS gf180mcu_fd_sc_mcu9t5v0__filltie
XTAP_TAPCELL_ROW_19_262 VDD VSS gf180mcu_fd_sc_mcu9t5v0__filltie
XTAP_TAPCELL_ROW_19_263 VDD VSS gf180mcu_fd_sc_mcu9t5v0__filltie
XTAP_TAPCELL_ROW_20_264 VDD VSS gf180mcu_fd_sc_mcu9t5v0__filltie
XTAP_TAPCELL_ROW_20_265 VDD VSS gf180mcu_fd_sc_mcu9t5v0__filltie
XTAP_TAPCELL_ROW_20_266 VDD VSS gf180mcu_fd_sc_mcu9t5v0__filltie
XTAP_TAPCELL_ROW_21_267 VDD VSS gf180mcu_fd_sc_mcu9t5v0__filltie
XTAP_TAPCELL_ROW_21_268 VDD VSS gf180mcu_fd_sc_mcu9t5v0__filltie
XTAP_TAPCELL_ROW_22_269 VDD VSS gf180mcu_fd_sc_mcu9t5v0__filltie
XTAP_TAPCELL_ROW_22_270 VDD VSS gf180mcu_fd_sc_mcu9t5v0__filltie
XTAP_TAPCELL_ROW_22_271 VDD VSS gf180mcu_fd_sc_mcu9t5v0__filltie
XTAP_TAPCELL_ROW_23_272 VDD VSS gf180mcu_fd_sc_mcu9t5v0__filltie
XTAP_TAPCELL_ROW_23_273 VDD VSS gf180mcu_fd_sc_mcu9t5v0__filltie
XTAP_TAPCELL_ROW_24_274 VDD VSS gf180mcu_fd_sc_mcu9t5v0__filltie
XTAP_TAPCELL_ROW_24_275 VDD VSS gf180mcu_fd_sc_mcu9t5v0__filltie
XTAP_TAPCELL_ROW_24_276 VDD VSS gf180mcu_fd_sc_mcu9t5v0__filltie
XTAP_TAPCELL_ROW_25_277 VDD VSS gf180mcu_fd_sc_mcu9t5v0__filltie
XTAP_TAPCELL_ROW_25_278 VDD VSS gf180mcu_fd_sc_mcu9t5v0__filltie
XTAP_TAPCELL_ROW_26_279 VDD VSS gf180mcu_fd_sc_mcu9t5v0__filltie
XTAP_TAPCELL_ROW_26_280 VDD VSS gf180mcu_fd_sc_mcu9t5v0__filltie
XTAP_TAPCELL_ROW_26_281 VDD VSS gf180mcu_fd_sc_mcu9t5v0__filltie
XTAP_TAPCELL_ROW_27_282 VDD VSS gf180mcu_fd_sc_mcu9t5v0__filltie
XTAP_TAPCELL_ROW_27_283 VDD VSS gf180mcu_fd_sc_mcu9t5v0__filltie
XTAP_TAPCELL_ROW_28_284 VDD VSS gf180mcu_fd_sc_mcu9t5v0__filltie
XTAP_TAPCELL_ROW_28_285 VDD VSS gf180mcu_fd_sc_mcu9t5v0__filltie
XTAP_TAPCELL_ROW_28_286 VDD VSS gf180mcu_fd_sc_mcu9t5v0__filltie
XTAP_TAPCELL_ROW_29_287 VDD VSS gf180mcu_fd_sc_mcu9t5v0__filltie
XTAP_TAPCELL_ROW_29_288 VDD VSS gf180mcu_fd_sc_mcu9t5v0__filltie
XTAP_TAPCELL_ROW_30_289 VDD VSS gf180mcu_fd_sc_mcu9t5v0__filltie
XTAP_TAPCELL_ROW_30_290 VDD VSS gf180mcu_fd_sc_mcu9t5v0__filltie
XTAP_TAPCELL_ROW_30_291 VDD VSS gf180mcu_fd_sc_mcu9t5v0__filltie
XTAP_TAPCELL_ROW_31_292 VDD VSS gf180mcu_fd_sc_mcu9t5v0__filltie
XTAP_TAPCELL_ROW_31_293 VDD VSS gf180mcu_fd_sc_mcu9t5v0__filltie
XTAP_TAPCELL_ROW_32_294 VDD VSS gf180mcu_fd_sc_mcu9t5v0__filltie
XTAP_TAPCELL_ROW_32_295 VDD VSS gf180mcu_fd_sc_mcu9t5v0__filltie
XTAP_TAPCELL_ROW_32_296 VDD VSS gf180mcu_fd_sc_mcu9t5v0__filltie
XTAP_TAPCELL_ROW_33_297 VDD VSS gf180mcu_fd_sc_mcu9t5v0__filltie
XTAP_TAPCELL_ROW_33_298 VDD VSS gf180mcu_fd_sc_mcu9t5v0__filltie
XTAP_TAPCELL_ROW_34_299 VDD VSS gf180mcu_fd_sc_mcu9t5v0__filltie
XTAP_TAPCELL_ROW_34_300 VDD VSS gf180mcu_fd_sc_mcu9t5v0__filltie
XTAP_TAPCELL_ROW_34_301 VDD VSS gf180mcu_fd_sc_mcu9t5v0__filltie
XTAP_TAPCELL_ROW_35_302 VDD VSS gf180mcu_fd_sc_mcu9t5v0__filltie
XTAP_TAPCELL_ROW_35_303 VDD VSS gf180mcu_fd_sc_mcu9t5v0__filltie
XTAP_TAPCELL_ROW_36_304 VDD VSS gf180mcu_fd_sc_mcu9t5v0__filltie
XTAP_TAPCELL_ROW_36_305 VDD VSS gf180mcu_fd_sc_mcu9t5v0__filltie
XTAP_TAPCELL_ROW_36_306 VDD VSS gf180mcu_fd_sc_mcu9t5v0__filltie
XTAP_TAPCELL_ROW_37_307 VDD VSS gf180mcu_fd_sc_mcu9t5v0__filltie
XTAP_TAPCELL_ROW_37_308 VDD VSS gf180mcu_fd_sc_mcu9t5v0__filltie
XTAP_TAPCELL_ROW_38_309 VDD VSS gf180mcu_fd_sc_mcu9t5v0__filltie
XTAP_TAPCELL_ROW_38_310 VDD VSS gf180mcu_fd_sc_mcu9t5v0__filltie
XTAP_TAPCELL_ROW_38_311 VDD VSS gf180mcu_fd_sc_mcu9t5v0__filltie
XTAP_TAPCELL_ROW_39_312 VDD VSS gf180mcu_fd_sc_mcu9t5v0__filltie
XTAP_TAPCELL_ROW_39_313 VDD VSS gf180mcu_fd_sc_mcu9t5v0__filltie
XTAP_TAPCELL_ROW_40_314 VDD VSS gf180mcu_fd_sc_mcu9t5v0__filltie
XTAP_TAPCELL_ROW_40_315 VDD VSS gf180mcu_fd_sc_mcu9t5v0__filltie
XTAP_TAPCELL_ROW_40_316 VDD VSS gf180mcu_fd_sc_mcu9t5v0__filltie
XTAP_TAPCELL_ROW_41_317 VDD VSS gf180mcu_fd_sc_mcu9t5v0__filltie
XTAP_TAPCELL_ROW_41_318 VDD VSS gf180mcu_fd_sc_mcu9t5v0__filltie
XTAP_TAPCELL_ROW_42_319 VDD VSS gf180mcu_fd_sc_mcu9t5v0__filltie
XTAP_TAPCELL_ROW_42_320 VDD VSS gf180mcu_fd_sc_mcu9t5v0__filltie
XTAP_TAPCELL_ROW_42_321 VDD VSS gf180mcu_fd_sc_mcu9t5v0__filltie
XTAP_TAPCELL_ROW_43_322 VDD VSS gf180mcu_fd_sc_mcu9t5v0__filltie
XTAP_TAPCELL_ROW_43_323 VDD VSS gf180mcu_fd_sc_mcu9t5v0__filltie
XTAP_TAPCELL_ROW_44_324 VDD VSS gf180mcu_fd_sc_mcu9t5v0__filltie
XTAP_TAPCELL_ROW_44_325 VDD VSS gf180mcu_fd_sc_mcu9t5v0__filltie
XTAP_TAPCELL_ROW_44_326 VDD VSS gf180mcu_fd_sc_mcu9t5v0__filltie
XTAP_TAPCELL_ROW_45_327 VDD VSS gf180mcu_fd_sc_mcu9t5v0__filltie
XTAP_TAPCELL_ROW_45_328 VDD VSS gf180mcu_fd_sc_mcu9t5v0__filltie
XTAP_TAPCELL_ROW_46_329 VDD VSS gf180mcu_fd_sc_mcu9t5v0__filltie
XTAP_TAPCELL_ROW_46_330 VDD VSS gf180mcu_fd_sc_mcu9t5v0__filltie
XTAP_TAPCELL_ROW_46_331 VDD VSS gf180mcu_fd_sc_mcu9t5v0__filltie
XTAP_TAPCELL_ROW_47_332 VDD VSS gf180mcu_fd_sc_mcu9t5v0__filltie
XTAP_TAPCELL_ROW_47_333 VDD VSS gf180mcu_fd_sc_mcu9t5v0__filltie
XTAP_TAPCELL_ROW_48_334 VDD VSS gf180mcu_fd_sc_mcu9t5v0__filltie
XTAP_TAPCELL_ROW_48_335 VDD VSS gf180mcu_fd_sc_mcu9t5v0__filltie
XTAP_TAPCELL_ROW_48_336 VDD VSS gf180mcu_fd_sc_mcu9t5v0__filltie
XTAP_TAPCELL_ROW_49_337 VDD VSS gf180mcu_fd_sc_mcu9t5v0__filltie
XTAP_TAPCELL_ROW_49_338 VDD VSS gf180mcu_fd_sc_mcu9t5v0__filltie
XTAP_TAPCELL_ROW_50_339 VDD VSS gf180mcu_fd_sc_mcu9t5v0__filltie
XTAP_TAPCELL_ROW_50_340 VDD VSS gf180mcu_fd_sc_mcu9t5v0__filltie
XTAP_TAPCELL_ROW_50_341 VDD VSS gf180mcu_fd_sc_mcu9t5v0__filltie
XTAP_TAPCELL_ROW_51_342 VDD VSS gf180mcu_fd_sc_mcu9t5v0__filltie
XTAP_TAPCELL_ROW_51_343 VDD VSS gf180mcu_fd_sc_mcu9t5v0__filltie
XTAP_TAPCELL_ROW_52_344 VDD VSS gf180mcu_fd_sc_mcu9t5v0__filltie
XTAP_TAPCELL_ROW_52_345 VDD VSS gf180mcu_fd_sc_mcu9t5v0__filltie
XTAP_TAPCELL_ROW_52_346 VDD VSS gf180mcu_fd_sc_mcu9t5v0__filltie
XTAP_TAPCELL_ROW_53_347 VDD VSS gf180mcu_fd_sc_mcu9t5v0__filltie
XTAP_TAPCELL_ROW_53_348 VDD VSS gf180mcu_fd_sc_mcu9t5v0__filltie
XTAP_TAPCELL_ROW_54_349 VDD VSS gf180mcu_fd_sc_mcu9t5v0__filltie
XTAP_TAPCELL_ROW_54_350 VDD VSS gf180mcu_fd_sc_mcu9t5v0__filltie
XTAP_TAPCELL_ROW_54_351 VDD VSS gf180mcu_fd_sc_mcu9t5v0__filltie
XTAP_TAPCELL_ROW_55_352 VDD VSS gf180mcu_fd_sc_mcu9t5v0__filltie
XTAP_TAPCELL_ROW_55_353 VDD VSS gf180mcu_fd_sc_mcu9t5v0__filltie
XTAP_TAPCELL_ROW_56_354 VDD VSS gf180mcu_fd_sc_mcu9t5v0__filltie
XTAP_TAPCELL_ROW_56_355 VDD VSS gf180mcu_fd_sc_mcu9t5v0__filltie
XTAP_TAPCELL_ROW_56_356 VDD VSS gf180mcu_fd_sc_mcu9t5v0__filltie
XTAP_TAPCELL_ROW_57_357 VDD VSS gf180mcu_fd_sc_mcu9t5v0__filltie
XTAP_TAPCELL_ROW_57_358 VDD VSS gf180mcu_fd_sc_mcu9t5v0__filltie
XTAP_TAPCELL_ROW_58_359 VDD VSS gf180mcu_fd_sc_mcu9t5v0__filltie
XTAP_TAPCELL_ROW_58_360 VDD VSS gf180mcu_fd_sc_mcu9t5v0__filltie
XTAP_TAPCELL_ROW_58_361 VDD VSS gf180mcu_fd_sc_mcu9t5v0__filltie
XTAP_TAPCELL_ROW_59_362 VDD VSS gf180mcu_fd_sc_mcu9t5v0__filltie
XTAP_TAPCELL_ROW_59_363 VDD VSS gf180mcu_fd_sc_mcu9t5v0__filltie
XTAP_TAPCELL_ROW_60_364 VDD VSS gf180mcu_fd_sc_mcu9t5v0__filltie
XTAP_TAPCELL_ROW_60_365 VDD VSS gf180mcu_fd_sc_mcu9t5v0__filltie
XTAP_TAPCELL_ROW_60_366 VDD VSS gf180mcu_fd_sc_mcu9t5v0__filltie
XTAP_TAPCELL_ROW_61_367 VDD VSS gf180mcu_fd_sc_mcu9t5v0__filltie
XTAP_TAPCELL_ROW_61_368 VDD VSS gf180mcu_fd_sc_mcu9t5v0__filltie
XTAP_TAPCELL_ROW_62_369 VDD VSS gf180mcu_fd_sc_mcu9t5v0__filltie
XTAP_TAPCELL_ROW_62_370 VDD VSS gf180mcu_fd_sc_mcu9t5v0__filltie
XTAP_TAPCELL_ROW_62_371 VDD VSS gf180mcu_fd_sc_mcu9t5v0__filltie
XTAP_TAPCELL_ROW_63_372 VDD VSS gf180mcu_fd_sc_mcu9t5v0__filltie
XTAP_TAPCELL_ROW_63_373 VDD VSS gf180mcu_fd_sc_mcu9t5v0__filltie
XTAP_TAPCELL_ROW_64_374 VDD VSS gf180mcu_fd_sc_mcu9t5v0__filltie
XTAP_TAPCELL_ROW_64_375 VDD VSS gf180mcu_fd_sc_mcu9t5v0__filltie
XTAP_TAPCELL_ROW_64_376 VDD VSS gf180mcu_fd_sc_mcu9t5v0__filltie
XTAP_TAPCELL_ROW_65_377 VDD VSS gf180mcu_fd_sc_mcu9t5v0__filltie
XTAP_TAPCELL_ROW_65_378 VDD VSS gf180mcu_fd_sc_mcu9t5v0__filltie
XTAP_TAPCELL_ROW_66_379 VDD VSS gf180mcu_fd_sc_mcu9t5v0__filltie
XTAP_TAPCELL_ROW_66_380 VDD VSS gf180mcu_fd_sc_mcu9t5v0__filltie
XTAP_TAPCELL_ROW_66_381 VDD VSS gf180mcu_fd_sc_mcu9t5v0__filltie
XTAP_TAPCELL_ROW_67_382 VDD VSS gf180mcu_fd_sc_mcu9t5v0__filltie
XTAP_TAPCELL_ROW_67_383 VDD VSS gf180mcu_fd_sc_mcu9t5v0__filltie
XTAP_TAPCELL_ROW_68_384 VDD VSS gf180mcu_fd_sc_mcu9t5v0__filltie
XTAP_TAPCELL_ROW_68_385 VDD VSS gf180mcu_fd_sc_mcu9t5v0__filltie
XTAP_TAPCELL_ROW_68_386 VDD VSS gf180mcu_fd_sc_mcu9t5v0__filltie
XTAP_TAPCELL_ROW_69_387 VDD VSS gf180mcu_fd_sc_mcu9t5v0__filltie
XTAP_TAPCELL_ROW_69_388 VDD VSS gf180mcu_fd_sc_mcu9t5v0__filltie
XTAP_TAPCELL_ROW_70_389 VDD VSS gf180mcu_fd_sc_mcu9t5v0__filltie
XTAP_TAPCELL_ROW_70_390 VDD VSS gf180mcu_fd_sc_mcu9t5v0__filltie
XTAP_TAPCELL_ROW_70_391 VDD VSS gf180mcu_fd_sc_mcu9t5v0__filltie
XTAP_TAPCELL_ROW_71_392 VDD VSS gf180mcu_fd_sc_mcu9t5v0__filltie
XTAP_TAPCELL_ROW_71_393 VDD VSS gf180mcu_fd_sc_mcu9t5v0__filltie
XTAP_TAPCELL_ROW_72_394 VDD VSS gf180mcu_fd_sc_mcu9t5v0__filltie
XTAP_TAPCELL_ROW_72_395 VDD VSS gf180mcu_fd_sc_mcu9t5v0__filltie
XTAP_TAPCELL_ROW_72_396 VDD VSS gf180mcu_fd_sc_mcu9t5v0__filltie
XTAP_TAPCELL_ROW_73_397 VDD VSS gf180mcu_fd_sc_mcu9t5v0__filltie
XTAP_TAPCELL_ROW_73_398 VDD VSS gf180mcu_fd_sc_mcu9t5v0__filltie
XTAP_TAPCELL_ROW_74_399 VDD VSS gf180mcu_fd_sc_mcu9t5v0__filltie
XTAP_TAPCELL_ROW_74_400 VDD VSS gf180mcu_fd_sc_mcu9t5v0__filltie
XTAP_TAPCELL_ROW_74_401 VDD VSS gf180mcu_fd_sc_mcu9t5v0__filltie
XTAP_TAPCELL_ROW_75_402 VDD VSS gf180mcu_fd_sc_mcu9t5v0__filltie
XTAP_TAPCELL_ROW_75_403 VDD VSS gf180mcu_fd_sc_mcu9t5v0__filltie
XTAP_TAPCELL_ROW_76_404 VDD VSS gf180mcu_fd_sc_mcu9t5v0__filltie
XTAP_TAPCELL_ROW_76_405 VDD VSS gf180mcu_fd_sc_mcu9t5v0__filltie
XTAP_TAPCELL_ROW_76_406 VDD VSS gf180mcu_fd_sc_mcu9t5v0__filltie
XTAP_TAPCELL_ROW_77_407 VDD VSS gf180mcu_fd_sc_mcu9t5v0__filltie
XTAP_TAPCELL_ROW_77_408 VDD VSS gf180mcu_fd_sc_mcu9t5v0__filltie
XTAP_TAPCELL_ROW_78_409 VDD VSS gf180mcu_fd_sc_mcu9t5v0__filltie
XTAP_TAPCELL_ROW_78_410 VDD VSS gf180mcu_fd_sc_mcu9t5v0__filltie
XTAP_TAPCELL_ROW_78_411 VDD VSS gf180mcu_fd_sc_mcu9t5v0__filltie
XTAP_TAPCELL_ROW_79_412 VDD VSS gf180mcu_fd_sc_mcu9t5v0__filltie
XTAP_TAPCELL_ROW_79_413 VDD VSS gf180mcu_fd_sc_mcu9t5v0__filltie
XTAP_TAPCELL_ROW_80_414 VDD VSS gf180mcu_fd_sc_mcu9t5v0__filltie
XTAP_TAPCELL_ROW_80_415 VDD VSS gf180mcu_fd_sc_mcu9t5v0__filltie
XTAP_TAPCELL_ROW_80_416 VDD VSS gf180mcu_fd_sc_mcu9t5v0__filltie
XTAP_TAPCELL_ROW_81_417 VDD VSS gf180mcu_fd_sc_mcu9t5v0__filltie
XTAP_TAPCELL_ROW_81_418 VDD VSS gf180mcu_fd_sc_mcu9t5v0__filltie
XTAP_TAPCELL_ROW_82_419 VDD VSS gf180mcu_fd_sc_mcu9t5v0__filltie
XTAP_TAPCELL_ROW_82_420 VDD VSS gf180mcu_fd_sc_mcu9t5v0__filltie