* CDL Netlist generated by OpenROAD

*.BUSDELIMITER [

.SUBCKT performance_counter all_counts[0] all_counts[100]
+ all_counts[101] all_counts[102] all_counts[103] all_counts[104]
+ all_counts[105] all_counts[106] all_counts[107] all_counts[108]
+ all_counts[109] all_counts[10] all_counts[110] all_counts[111]
+ all_counts[112] all_counts[113] all_counts[114] all_counts[115]
+ all_counts[116] all_counts[117] all_counts[118] all_counts[119]
+ all_counts[11] all_counts[120] all_counts[121] all_counts[122]
+ all_counts[123] all_counts[124] all_counts[125] all_counts[126]
+ all_counts[127] all_counts[128] all_counts[129] all_counts[12]
+ all_counts[130] all_counts[131] all_counts[132] all_counts[133]
+ all_counts[134] all_counts[135] all_counts[136] all_counts[137]
+ all_counts[138] all_counts[139] all_counts[13] all_counts[140]
+ all_counts[141] all_counts[142] all_counts[143] all_counts[144]
+ all_counts[145] all_counts[146] all_counts[147] all_counts[148]
+ all_counts[149] all_counts[14] all_counts[150] all_counts[151]
+ all_counts[152] all_counts[153] all_counts[154] all_counts[155]
+ all_counts[156] all_counts[157] all_counts[158] all_counts[159]
+ all_counts[15] all_counts[160] all_counts[161] all_counts[162]
+ all_counts[163] all_counts[164] all_counts[165] all_counts[166]
+ all_counts[167] all_counts[168] all_counts[169] all_counts[16]
+ all_counts[170] all_counts[171] all_counts[172] all_counts[173]
+ all_counts[174] all_counts[175] all_counts[176] all_counts[177]
+ all_counts[178] all_counts[179] all_counts[17] all_counts[180]
+ all_counts[181] all_counts[182] all_counts[183] all_counts[184]
+ all_counts[185] all_counts[186] all_counts[187] all_counts[188]
+ all_counts[189] all_counts[18] all_counts[190] all_counts[191]
+ all_counts[192] all_counts[193] all_counts[194] all_counts[195]
+ all_counts[196] all_counts[197] all_counts[198] all_counts[199]
+ all_counts[19] all_counts[1] all_counts[200] all_counts[201]
+ all_counts[202] all_counts[203] all_counts[204] all_counts[205]
+ all_counts[206] all_counts[207] all_counts[208] all_counts[209]
+ all_counts[20] all_counts[210] all_counts[211] all_counts[212]
+ all_counts[213] all_counts[214] all_counts[215] all_counts[216]
+ all_counts[217] all_counts[218] all_counts[219] all_counts[21]
+ all_counts[220] all_counts[221] all_counts[222] all_counts[223]
+ all_counts[224] all_counts[225] all_counts[226] all_counts[227]
+ all_counts[228] all_counts[229] all_counts[22] all_counts[230]
+ all_counts[231] all_counts[232] all_counts[233] all_counts[234]
+ all_counts[235] all_counts[236] all_counts[237] all_counts[238]
+ all_counts[239] all_counts[23] all_counts[240] all_counts[241]
+ all_counts[242] all_counts[243] all_counts[244] all_counts[245]
+ all_counts[246] all_counts[247] all_counts[248] all_counts[249]
+ all_counts[24] all_counts[250] all_counts[251] all_counts[252]
+ all_counts[253] all_counts[254] all_counts[255] all_counts[25]
+ all_counts[26] all_counts[27] all_counts[28] all_counts[29]
+ all_counts[2] all_counts[30] all_counts[31] all_counts[32]
+ all_counts[33] all_counts[34] all_counts[35] all_counts[36]
+ all_counts[37] all_counts[38] all_counts[39] all_counts[3]
+ all_counts[40] all_counts[41] all_counts[42] all_counts[43]
+ all_counts[44] all_counts[45] all_counts[46] all_counts[47]
+ all_counts[48] all_counts[49] all_counts[4] all_counts[50]
+ all_counts[51] all_counts[52] all_counts[53] all_counts[54]
+ all_counts[55] all_counts[56] all_counts[57] all_counts[58]
+ all_counts[59] all_counts[5] all_counts[60] all_counts[61]
+ all_counts[62] all_counts[63] all_counts[64] all_counts[65]
+ all_counts[66] all_counts[67] all_counts[68] all_counts[69]
+ all_counts[6] all_counts[70] all_counts[71] all_counts[72]
+ all_counts[73] all_counts[74] all_counts[75] all_counts[76]
+ all_counts[77] all_counts[78] all_counts[79] all_counts[7]
+ all_counts[80] all_counts[81] all_counts[82] all_counts[83]
+ all_counts[84] all_counts[85] all_counts[86] all_counts[87]
+ all_counts[88] all_counts[89] all_counts[8] all_counts[90]
+ all_counts[91] all_counts[92] all_counts[93] all_counts[94]
+ all_counts[95] all_counts[96] all_counts[97] all_counts[98]
+ all_counts[99] all_counts[9] clear clk count_value[0] count_value[10]
+ count_value[11] count_value[12] count_value[13] count_value[14]
+ count_value[15] count_value[16] count_value[17] count_value[18]
+ count_value[19] count_value[1] count_value[20] count_value[21]
+ count_value[22] count_value[23] count_value[24] count_value[25]
+ count_value[26] count_value[27] count_value[28] count_value[29]
+ count_value[2] count_value[30] count_value[31] count_value[3]
+ count_value[4] count_value[5] count_value[6] count_value[7]
+ count_value[8] count_value[9] counter_sel[0] counter_sel[1]
+ counter_sel[2] counter_sel[3] counter_sel[4] counter_sel[5]
+ counter_sel[6] counter_sel[7] enable event_inc[0] event_inc[1]
+ event_inc[2] event_inc[3] event_inc[4] event_inc[5] event_inc[6]
+ event_inc[7] rst_n
X_1554_ clear VSS VSS VDD VDD _1215_ sky130_fd_sc_hd__clkbuf_2
X_1555_ _1215_ VSS VSS VDD VDD _1216_ sky130_fd_sc_hd__buf_6
X_1556_ _1216_ VSS VSS VDD VDD _1217_ sky130_fd_sc_hd__buf_4
X_1557_ _1217_ VSS VSS VDD VDD _1218_ sky130_fd_sc_hd__clkbuf_4
X_1558_ net4 VSS VSS VDD VDD _1219_ sky130_fd_sc_hd__buf_4
X_1559_ _1219_ VSS VSS VDD VDD _1220_ sky130_fd_sc_hd__clkbuf_8
X_1560_ prev_event_inc\[0\] net5 _1220_ VSS VSS VDD VDD _1221_
+ sky130_fd_sc_hd__and3b_1
X_1561_ net14 _1221_ VSS VSS VDD VDD _1222_ sky130_fd_sc_hd__xnor2_1
X_1562_ _1218_ _1222_ VSS VSS VDD VDD _0000_ sky130_fd_sc_hd__nor2_1
X_1563_ prev_event_inc\[3\] net267 _1219_ net8 VSS VSS VDD
+ VDD _1223_ sky130_fd_sc_hd__and4b_2
X_1564_ net268 _1550_ VSS VSS VDD VDD _1224_ sky130_fd_sc_hd__and2_0
X_1565_ _1224_ VSS VSS VDD VDD _1225_ sky130_fd_sc_hd__clkbuf_2
X_1566_ _1223_ _1225_ VSS VSS VDD VDD _1226_ sky130_fd_sc_hd__nand2_2
X_1567_ net15 _1226_ VSS VSS VDD VDD _1227_ sky130_fd_sc_hd__xor2_1
X_1568_ _1218_ _1227_ VSS VSS VDD VDD _0001_ sky130_fd_sc_hd__nor2_1
X_1569_ _1223_ VSS VSS VDD VDD _1228_ sky130_fd_sc_hd__buf_2
X_1570_ net265 net266 net268 VSS VSS VDD VDD _1229_ sky130_fd_sc_hd__and3_1
X_1571_ _1229_ VSS VSS VDD VDD _1230_ sky130_fd_sc_hd__clkbuf_2
X_1572_ net15 _1228_ _1230_ VSS VSS VDD VDD _1231_ sky130_fd_sc_hd__nand3_1
X_1573_ net16 _1231_ VSS VSS VDD VDD _1232_ sky130_fd_sc_hd__xor2_1
X_1574_ _1218_ _1232_ VSS VSS VDD VDD _0002_ sky130_fd_sc_hd__nor2_1
X_1575_ net15 net16 _1228_ _1225_ VSS VSS VDD VDD _1233_ sky130_fd_sc_hd__nand4_1
X_1576_ net17 _1233_ VSS VSS VDD VDD _1234_ sky130_fd_sc_hd__xor2_1
X_1577_ _1218_ _1234_ VSS VSS VDD VDD _0003_ sky130_fd_sc_hd__nor2_1
X_1578_ net15 net16 net17 VSS VSS VDD VDD _1235_ sky130_fd_sc_hd__and3_1
X_1579_ _1235_ VSS VSS VDD VDD _1236_ sky130_fd_sc_hd__dlymetal6s2s_1
X_1580_ _1228_ _1230_ _1236_ VSS VSS VDD VDD _1237_ sky130_fd_sc_hd__nand3_1
X_1581_ net18 _1237_ VSS VSS VDD VDD _1238_ sky130_fd_sc_hd__xor2_1
X_1582_ _1218_ _1238_ VSS VSS VDD VDD _0004_ sky130_fd_sc_hd__nor2_1
X_1583_ net18 _1228_ _1225_ _1236_ VSS VSS VDD VDD _1239_
+ sky130_fd_sc_hd__nand4_1
X_1584_ net19 _1239_ VSS VSS VDD VDD _1240_ sky130_fd_sc_hd__xor2_1
X_1585_ _1218_ _1240_ VSS VSS VDD VDD _0005_ sky130_fd_sc_hd__nor2_1
X_1586_ net18 net19 VSS VSS VDD VDD _1241_ sky130_fd_sc_hd__and2_0
X_1587_ _1228_ _1230_ _1236_ _1241_ VSS VSS VDD VDD _1242_
+ sky130_fd_sc_hd__and4_1
X_1588_ net20 _1242_ VSS VSS VDD VDD _1243_ sky130_fd_sc_hd__xnor2_1
X_1589_ _1218_ _1243_ VSS VSS VDD VDD _0006_ sky130_fd_sc_hd__nor2_1
X_1590_ net18 net19 net20 VSS VSS VDD VDD _1244_ sky130_fd_sc_hd__and3_1
X_1591_ _1228_ _1225_ _1236_ _1244_ VSS VSS VDD VDD _1245_
+ sky130_fd_sc_hd__nand4_1
X_1592_ net21 _1245_ VSS VSS VDD VDD _1246_ sky130_fd_sc_hd__xor2_1
X_1593_ _1218_ _1246_ VSS VSS VDD VDD _0007_ sky130_fd_sc_hd__nor2_1
X_1594_ net18 net19 net20 net21 VSS VSS VDD VDD _1247_ sky130_fd_sc_hd__and4_2
X_1595_ _1228_ _1230_ _1236_ _1247_ VSS VSS VDD VDD _1248_
+ sky130_fd_sc_hd__nand4_1
X_1596_ net22 _1248_ VSS VSS VDD VDD _1249_ sky130_fd_sc_hd__xor2_1
X_1597_ _1218_ _1249_ VSS VSS VDD VDD _0008_ sky130_fd_sc_hd__nor2_1
X_1598_ _1228_ _1225_ _1236_ VSS VSS VDD VDD _1250_ sky130_fd_sc_hd__nand3_1
X_1599_ net22 _1247_ VSS VSS VDD VDD _1251_ sky130_fd_sc_hd__nand2_1
X_1600_ _1250_ _1251_ net23 VSS VSS VDD VDD _1252_ sky130_fd_sc_hd__o21ai_0
X_1601_ net23 _1250_ _1251_ VSS VSS VDD VDD _1253_ sky130_fd_sc_hd__or3_1
X_1602_ _1215_ VSS VSS VDD VDD _1254_ sky130_fd_sc_hd__buf_4
X_1603_ _1254_ VSS VSS VDD VDD _1255_ sky130_fd_sc_hd__clkbuf_4
X_1604_ _1252_ _1253_ _1255_ VSS VSS VDD VDD _0009_ sky130_fd_sc_hd__a21oi_1
X_1605_ net22 net23 VSS VSS VDD VDD _1256_ sky130_fd_sc_hd__and2_1
X_1606_ _1247_ _1256_ VSS VSS VDD VDD _1257_ sky130_fd_sc_hd__nand2_2
X_1607_ _1237_ _1257_ net24 VSS VSS VDD VDD _1258_ sky130_fd_sc_hd__o21ai_0
X_1608_ net24 _1237_ _1257_ VSS VSS VDD VDD _1259_ sky130_fd_sc_hd__or3_1
X_1609_ _1258_ _1259_ _1255_ VSS VSS VDD VDD _0010_ sky130_fd_sc_hd__a21oi_1
X_1610_ net269 VSS VSS VDD VDD _1260_ sky130_fd_sc_hd__inv_1
X_1611_ _1540_ VSS VSS VDD VDD _1261_ sky130_fd_sc_hd__inv_1
X_1612_ prev_event_inc\[0\] net192 net4 net5 VSS VSS VDD VDD
+ _1262_ sky130_fd_sc_hd__nand4b_2
X_1613_ net203 net214 net225 net236 VSS VSS VDD VDD _1263_
+ sky130_fd_sc_hd__nand4_2
X_1614_ net247 net258 VSS VSS VDD VDD _1264_ sky130_fd_sc_hd__nand2_1
X_1615_ _1261_ _1262_ _1263_ _1264_ VSS VSS VDD VDD _1265_
+ sky130_fd_sc_hd__or4_1
X_1616_ _1265_ VSS VSS VDD VDD _1266_ sky130_fd_sc_hd__clkbuf_4
X_1617_ _1260_ _1266_ net25 VSS VSS VDD VDD _1267_ sky130_fd_sc_hd__o21ai_0
X_1618_ _1260_ net25 _1266_ VSS VSS VDD VDD _1268_ sky130_fd_sc_hd__or3_1
X_1619_ _1267_ _1268_ _1255_ VSS VSS VDD VDD _0011_ sky130_fd_sc_hd__a21oi_1
X_1620_ net24 VSS VSS VDD VDD _1269_ sky130_fd_sc_hd__inv_1
X_1621_ _1269_ _1250_ _1257_ net26 VSS VSS VDD VDD _1270_
+ sky130_fd_sc_hd__o31ai_1
X_1622_ _1269_ net26 _1250_ _1257_ VSS VSS VDD VDD _1271_
+ sky130_fd_sc_hd__or4_1
X_1623_ _1270_ _1271_ _1255_ VSS VSS VDD VDD _0012_ sky130_fd_sc_hd__a21oi_1
X_1624_ _1228_ _1230_ VSS VSS VDD VDD _1272_ sky130_fd_sc_hd__nand2_1
X_1625_ net15 net16 net17 net26 VSS VSS VDD VDD _1273_ sky130_fd_sc_hd__and4_2
X_1626_ net24 _1247_ _1256_ _1273_ VSS VSS VDD VDD _1274_
+ sky130_fd_sc_hd__nand4_4
X_1627_ _1272_ _1274_ net27 VSS VSS VDD VDD _1275_ sky130_fd_sc_hd__o21ai_0
X_1628_ net27 _1272_ _1274_ VSS VSS VDD VDD _1276_ sky130_fd_sc_hd__or3_1
X_1629_ _1275_ _1276_ _1255_ VSS VSS VDD VDD _0013_ sky130_fd_sc_hd__a21oi_1
X_1630_ net27 VSS VSS VDD VDD _1277_ sky130_fd_sc_hd__inv_1
X_1631_ net24 _1223_ _1225_ _1273_ VSS VSS VDD VDD _1278_
+ sky130_fd_sc_hd__nand4_2
X_1632_ _1278_ VSS VSS VDD VDD _1279_ sky130_fd_sc_hd__buf_2
X_1633_ _1277_ _1257_ _1279_ net28 VSS VSS VDD VDD _1280_
+ sky130_fd_sc_hd__o31ai_1
X_1634_ _1277_ net28 _1257_ _1279_ VSS VSS VDD VDD _1281_
+ sky130_fd_sc_hd__or4_1
X_1635_ _1280_ _1281_ _1255_ VSS VSS VDD VDD _0014_ sky130_fd_sc_hd__a21oi_1
X_1636_ net24 _1223_ _1230_ _1273_ VSS VSS VDD VDD _1282_
+ sky130_fd_sc_hd__nand4_4
X_1637_ _1282_ VSS VSS VDD VDD _1283_ sky130_fd_sc_hd__buf_2
X_1638_ net27 net28 VSS VSS VDD VDD _1284_ sky130_fd_sc_hd__nand2_1
X_1639_ _1257_ _1283_ _1284_ net29 VSS VSS VDD VDD _1285_
+ sky130_fd_sc_hd__o31ai_1
X_1640_ net29 _1257_ _1283_ _1284_ VSS VSS VDD VDD _1286_
+ sky130_fd_sc_hd__or4_1
X_1641_ _1216_ VSS VSS VDD VDD _1287_ sky130_fd_sc_hd__clkbuf_4
X_1642_ _1287_ VSS VSS VDD VDD _1288_ sky130_fd_sc_hd__buf_4
X_1643_ _1285_ _1286_ _1288_ VSS VSS VDD VDD _0015_ sky130_fd_sc_hd__a21oi_1
X_1644_ net27 net28 net29 VSS VSS VDD VDD _1289_ sky130_fd_sc_hd__nand3_1
X_1645_ _1226_ _1274_ _1289_ net30 VSS VSS VDD VDD _1290_
+ sky130_fd_sc_hd__o31ai_1
X_1646_ net30 _1226_ _1274_ _1289_ VSS VSS VDD VDD _1291_
+ sky130_fd_sc_hd__or4_1
X_1647_ _1290_ _1291_ _1288_ VSS VSS VDD VDD _0016_ sky130_fd_sc_hd__a21oi_1
X_1648_ net27 net28 net29 net30 VSS VSS VDD VDD _1292_ sky130_fd_sc_hd__nand4_1
X_1649_ _1272_ _1274_ _1292_ net31 VSS VSS VDD VDD _1293_
+ sky130_fd_sc_hd__o31ai_1
X_1650_ net31 _1272_ _1274_ _1292_ VSS VSS VDD VDD _1294_
+ sky130_fd_sc_hd__or4_1
X_1651_ _1293_ _1294_ _1288_ VSS VSS VDD VDD _0017_ sky130_fd_sc_hd__a21oi_1
X_1652_ net27 net28 net29 net30 VSS VSS VDD VDD _1295_ sky130_fd_sc_hd__and4_1
X_1653_ net31 _1295_ VSS VSS VDD VDD _1296_ sky130_fd_sc_hd__nand2_1
X_1654_ _1226_ _1274_ _1296_ net32 VSS VSS VDD VDD _1297_
+ sky130_fd_sc_hd__o31ai_1
X_1655_ net32 _1226_ _1274_ _1296_ VSS VSS VDD VDD _1298_
+ sky130_fd_sc_hd__or4_1
X_1656_ _1297_ _1298_ _1288_ VSS VSS VDD VDD _0018_ sky130_fd_sc_hd__a21oi_1
X_1657_ net31 net32 VSS VSS VDD VDD _1299_ sky130_fd_sc_hd__and2_0
X_1658_ _1247_ _1256_ _1295_ _1299_ VSS VSS VDD VDD _1300_
+ sky130_fd_sc_hd__nand4_2
X_1659_ _1300_ VSS VSS VDD VDD _1301_ sky130_fd_sc_hd__clkbuf_2
X_1660_ _1301_ VSS VSS VDD VDD _1302_ sky130_fd_sc_hd__buf_2
X_1661_ _1283_ _1302_ net33 VSS VSS VDD VDD _1303_ sky130_fd_sc_hd__o21ai_0
X_1662_ net33 _1283_ _1301_ VSS VSS VDD VDD _1304_ sky130_fd_sc_hd__or3_1
X_1663_ _1303_ _1304_ _1288_ VSS VSS VDD VDD _0019_ sky130_fd_sc_hd__a21oi_1
X_1664_ net33 VSS VSS VDD VDD _1305_ sky130_fd_sc_hd__inv_1
X_1665_ _1305_ _1279_ _1302_ net34 VSS VSS VDD VDD _1306_
+ sky130_fd_sc_hd__o31ai_1
X_1666_ _1305_ net34 _1279_ _1301_ VSS VSS VDD VDD _1307_
+ sky130_fd_sc_hd__or4_1
X_1667_ _1306_ _1307_ _1288_ VSS VSS VDD VDD _0020_ sky130_fd_sc_hd__a21oi_1
X_1668_ net33 net34 VSS VSS VDD VDD _1308_ sky130_fd_sc_hd__nand2_1
X_1669_ _1283_ _1302_ _1308_ net35 VSS VSS VDD VDD _1309_
+ sky130_fd_sc_hd__o31ai_1
X_1670_ net35 _1283_ _1301_ _1308_ VSS VSS VDD VDD _1310_
+ sky130_fd_sc_hd__or4_1
X_1671_ _1309_ _1310_ _1288_ VSS VSS VDD VDD _0021_ sky130_fd_sc_hd__a21oi_1
X_1672_ net203 net214 net225 net236 VSS VSS VDD VDD _1311_
+ sky130_fd_sc_hd__and4_1
X_1673_ net247 net258 _1311_ VSS VSS VDD VDD _1312_ sky130_fd_sc_hd__nand3_1
X_1674_ net269 net25 VSS VSS VDD VDD _1313_ sky130_fd_sc_hd__nand2_1
X_1675_ prev_event_inc\[0\] net192 _1219_ net5 VSS VSS VDD
+ VDD _1314_ sky130_fd_sc_hd__and4b_1
X_1676_ net14 net125 _1314_ VSS VSS VDD VDD _1315_ sky130_fd_sc_hd__nand3_1
X_1677_ _1312_ _1313_ _1315_ net36 VSS VSS VDD VDD _1316_
+ sky130_fd_sc_hd__o31ai_1
X_1678_ net36 _1312_ _1313_ _1315_ VSS VSS VDD VDD _1317_
+ sky130_fd_sc_hd__or4_1
X_1679_ _1316_ _1317_ _1288_ VSS VSS VDD VDD _0022_ sky130_fd_sc_hd__a21oi_1
X_1680_ net33 net34 net35 VSS VSS VDD VDD _1318_ sky130_fd_sc_hd__nand3_1
X_1681_ _1279_ _1302_ _1318_ net37 VSS VSS VDD VDD _1319_
+ sky130_fd_sc_hd__o31ai_1
X_1682_ net37 _1279_ _1301_ _1318_ VSS VSS VDD VDD _1320_
+ sky130_fd_sc_hd__or4_1
X_1683_ _1319_ _1320_ _1288_ VSS VSS VDD VDD _0023_ sky130_fd_sc_hd__a21oi_1
X_1684_ net33 net34 net35 net37 VSS VSS VDD VDD _1321_ sky130_fd_sc_hd__nand4_1
X_1685_ _1283_ _1302_ _1321_ net38 VSS VSS VDD VDD _1322_
+ sky130_fd_sc_hd__o31ai_1
X_1686_ net38 _1282_ _1301_ _1321_ VSS VSS VDD VDD _1323_
+ sky130_fd_sc_hd__or4_1
X_1687_ _1322_ _1323_ _1288_ VSS VSS VDD VDD _0024_ sky130_fd_sc_hd__a21oi_1
X_1688_ net33 net34 net35 net37 VSS VSS VDD VDD _1324_ sky130_fd_sc_hd__and4_1
X_1689_ _1324_ VSS VSS VDD VDD _1325_ sky130_fd_sc_hd__dlymetal6s2s_1
X_1690_ net38 _1325_ VSS VSS VDD VDD _1326_ sky130_fd_sc_hd__nand2_1
X_1691_ _1279_ _1302_ _1326_ net39 VSS VSS VDD VDD _1327_
+ sky130_fd_sc_hd__o31ai_1
X_1692_ net39 _1279_ _1301_ _1326_ VSS VSS VDD VDD _1328_
+ sky130_fd_sc_hd__or4_1
X_1693_ _1287_ VSS VSS VDD VDD _1329_ sky130_fd_sc_hd__clkbuf_4
X_1694_ _1327_ _1328_ _1329_ VSS VSS VDD VDD _0025_ sky130_fd_sc_hd__a21oi_1
X_1695_ net38 net39 _1325_ VSS VSS VDD VDD _1330_ sky130_fd_sc_hd__nand3_1
X_1696_ _1283_ _1302_ _1330_ net40 VSS VSS VDD VDD _1331_
+ sky130_fd_sc_hd__o31ai_1
X_1697_ net40 _1282_ _1301_ _1330_ VSS VSS VDD VDD _1332_
+ sky130_fd_sc_hd__or4_1
X_1698_ _1331_ _1332_ _1329_ VSS VSS VDD VDD _0026_ sky130_fd_sc_hd__a21oi_1
X_1699_ net38 net39 net40 _1325_ VSS VSS VDD VDD _1333_ sky130_fd_sc_hd__nand4_1
X_1700_ _1279_ _1302_ _1333_ net41 VSS VSS VDD VDD _1334_
+ sky130_fd_sc_hd__o31ai_1
X_1701_ net41 _1278_ _1301_ _1333_ VSS VSS VDD VDD _1335_
+ sky130_fd_sc_hd__or4_1
X_1702_ _1334_ _1335_ _1329_ VSS VSS VDD VDD _0027_ sky130_fd_sc_hd__a21oi_1
X_1703_ net38 net39 net40 net41 VSS VSS VDD VDD _1336_ sky130_fd_sc_hd__and4_1
X_1704_ _1325_ _1336_ VSS VSS VDD VDD _1337_ sky130_fd_sc_hd__nand2_1
X_1705_ _1283_ _1302_ _1337_ net42 VSS VSS VDD VDD _1338_
+ sky130_fd_sc_hd__o31ai_1
X_1706_ net42 _1282_ _1300_ _1337_ VSS VSS VDD VDD _1339_
+ sky130_fd_sc_hd__or4_1
X_1707_ _1338_ _1339_ _1329_ VSS VSS VDD VDD _0028_ sky130_fd_sc_hd__a21oi_1
X_1708_ net42 _1325_ _1336_ VSS VSS VDD VDD _1340_ sky130_fd_sc_hd__nand3_1
X_1709_ _1279_ _1302_ _1340_ net43 VSS VSS VDD VDD _1341_
+ sky130_fd_sc_hd__o31ai_1
X_1710_ net43 _1278_ _1300_ _1340_ VSS VSS VDD VDD _1342_
+ sky130_fd_sc_hd__or4_1
X_1711_ _1341_ _1342_ _1329_ VSS VSS VDD VDD _0029_ sky130_fd_sc_hd__a21oi_1
X_1712_ net42 net43 _1325_ _1336_ VSS VSS VDD VDD _1343_ sky130_fd_sc_hd__nand4_1
X_1713_ _1283_ _1301_ _1343_ net44 VSS VSS VDD VDD _1344_
+ sky130_fd_sc_hd__o31ai_1
X_1714_ net44 _1282_ _1300_ _1343_ VSS VSS VDD VDD _1345_
+ sky130_fd_sc_hd__or4_1
X_1715_ _1344_ _1345_ _1329_ VSS VSS VDD VDD _0030_ sky130_fd_sc_hd__a21oi_1
X_1716_ net45 VSS VSS VDD VDD _1346_ sky130_fd_sc_hd__inv_1
X_1717_ prev_event_inc\[4\] net9 _1220_ VSS VSS VDD VDD _1347_
+ sky130_fd_sc_hd__nand3b_1
X_1718_ _1346_ _1347_ VSS VSS VDD VDD _1348_ sky130_fd_sc_hd__xnor2_1
X_1719_ _1218_ _1348_ VSS VSS VDD VDD _0031_ sky130_fd_sc_hd__nor2_1
X_1720_ _1217_ VSS VSS VDD VDD _1349_ sky130_fd_sc_hd__clkbuf_4
X_1721_ _1549_ net46 _1347_ VSS VSS VDD VDD _1350_ sky130_fd_sc_hd__mux2i_1
X_1722_ _1349_ _1350_ VSS VSS VDD VDD _0032_ sky130_fd_sc_hd__nor2_1
X_1723_ net269 net25 net36 VSS VSS VDD VDD _1351_ sky130_fd_sc_hd__nand3_4
X_1724_ _1351_ VSS VSS VDD VDD _1352_ sky130_fd_sc_hd__clkbuf_4
X_1725_ _1266_ _1352_ net47 VSS VSS VDD VDD _1353_ sky130_fd_sc_hd__o21ai_0
X_1726_ _1265_ VSS VSS VDD VDD _1354_ sky130_fd_sc_hd__clkbuf_4
X_1727_ net47 _1354_ _1352_ VSS VSS VDD VDD _1355_ sky130_fd_sc_hd__or3_1
X_1728_ _1353_ _1355_ _1329_ VSS VSS VDD VDD _0033_ sky130_fd_sc_hd__a21oi_1
X_1729_ net48 VSS VSS VDD VDD _1356_ sky130_fd_sc_hd__inv_1
X_1730_ prev_event_inc\[4\] _1548_ _1220_ net9 VSS VSS VDD
+ VDD _1357_ sky130_fd_sc_hd__nand4b_1
X_1731_ _1356_ _1357_ VSS VSS VDD VDD _1358_ sky130_fd_sc_hd__xnor2_1
X_1732_ _1349_ _1358_ VSS VSS VDD VDD _0034_ sky130_fd_sc_hd__nor2_1
X_1733_ net45 net46 VSS VSS VDD VDD _1359_ sky130_fd_sc_hd__nand2_1
X_1734_ prev_event_inc\[4\] net48 _1220_ net9 VSS VSS VDD
+ VDD _1360_ sky130_fd_sc_hd__nand4b_1
X_1735_ _1359_ _1360_ net49 VSS VSS VDD VDD _1361_ sky130_fd_sc_hd__o21ai_0
X_1736_ net49 VSS VSS VDD VDD _1362_ sky130_fd_sc_hd__inv_1
X_1737_ net45 net46 VSS VSS VDD VDD _1363_ sky130_fd_sc_hd__and2_1
X_1738_ prev_event_inc\[4\] net48 net4 net9 VSS VSS VDD VDD
+ _1364_ sky130_fd_sc_hd__and4b_1
X_1739_ _1364_ VSS VSS VDD VDD _1365_ sky130_fd_sc_hd__clkbuf_4
X_1740_ _1362_ _1363_ _1365_ VSS VSS VDD VDD _1366_ sky130_fd_sc_hd__nand3_1
X_1741_ _1361_ _1366_ _1329_ VSS VSS VDD VDD _0035_ sky130_fd_sc_hd__a21oi_1
X_1742_ net50 VSS VSS VDD VDD _1367_ sky130_fd_sc_hd__inv_1
X_1743_ net49 _1548_ _1365_ VSS VSS VDD VDD _1368_ sky130_fd_sc_hd__nand3_1
X_1744_ _1367_ _1368_ VSS VSS VDD VDD _1369_ sky130_fd_sc_hd__xnor2_1
X_1745_ _1349_ _1369_ VSS VSS VDD VDD _0036_ sky130_fd_sc_hd__nor2_1
X_1746_ net51 VSS VSS VDD VDD _1370_ sky130_fd_sc_hd__inv_1
X_1747_ net49 net50 _1363_ _1365_ VSS VSS VDD VDD _1371_ sky130_fd_sc_hd__nand4_1
X_1748_ _1370_ _1371_ VSS VSS VDD VDD _1372_ sky130_fd_sc_hd__xnor2_1
X_1749_ _1349_ _1372_ VSS VSS VDD VDD _0037_ sky130_fd_sc_hd__nor2_1
X_1750_ net52 VSS VSS VDD VDD _1373_ sky130_fd_sc_hd__inv_1
X_1751_ net49 net50 net51 VSS VSS VDD VDD _1374_ sky130_fd_sc_hd__and3_2
X_1752_ _1548_ _1365_ _1374_ VSS VSS VDD VDD _1375_ sky130_fd_sc_hd__nand3_1
X_1753_ _1373_ _1375_ VSS VSS VDD VDD _1376_ sky130_fd_sc_hd__xnor2_1
X_1754_ _1349_ _1376_ VSS VSS VDD VDD _0038_ sky130_fd_sc_hd__nor2_1
X_1755_ net49 net50 net51 net52 VSS VSS VDD VDD _1377_ sky130_fd_sc_hd__nand4_2
X_1756_ _1359_ _1360_ _1377_ VSS VSS VDD VDD _1378_ sky130_fd_sc_hd__nor3_1
X_1757_ net53 _1378_ VSS VSS VDD VDD _1379_ sky130_fd_sc_hd__xnor2_1
X_1758_ _1349_ _1379_ VSS VSS VDD VDD _0039_ sky130_fd_sc_hd__nor2_1
X_1759_ net54 VSS VSS VDD VDD _1380_ sky130_fd_sc_hd__inv_1
X_1760_ net49 net50 net51 net52 VSS VSS VDD VDD _1381_ sky130_fd_sc_hd__and4_1
X_1761_ net53 _1548_ _1365_ _1381_ VSS VSS VDD VDD _1382_
+ sky130_fd_sc_hd__nand4_1
X_1762_ _1380_ _1382_ VSS VSS VDD VDD _1383_ sky130_fd_sc_hd__xnor2_1
X_1763_ _1349_ _1383_ VSS VSS VDD VDD _0040_ sky130_fd_sc_hd__nor2_1
X_1764_ net53 net54 VSS VSS VDD VDD _1384_ sky130_fd_sc_hd__nand2_1
X_1765_ _1359_ _1360_ _1377_ _1384_ VSS VSS VDD VDD _1385_
+ sky130_fd_sc_hd__nor4_1
X_1766_ net55 _1385_ VSS VSS VDD VDD _1386_ sky130_fd_sc_hd__xnor2_1
X_1767_ _1349_ _1386_ VSS VSS VDD VDD _0041_ sky130_fd_sc_hd__nor2_1
X_1768_ net56 VSS VSS VDD VDD _1387_ sky130_fd_sc_hd__inv_1
X_1769_ net53 net54 net55 VSS VSS VDD VDD _1388_ sky130_fd_sc_hd__and3_1
X_1770_ _1548_ _1365_ _1381_ _1388_ VSS VSS VDD VDD _1389_
+ sky130_fd_sc_hd__nand4_1
X_1771_ _1387_ _1389_ VSS VSS VDD VDD _1390_ sky130_fd_sc_hd__xnor2_1
X_1772_ _1349_ _1390_ VSS VSS VDD VDD _0042_ sky130_fd_sc_hd__nor2_1
X_1773_ net57 VSS VSS VDD VDD _1391_ sky130_fd_sc_hd__inv_1
X_1774_ net53 net54 net55 net56 VSS VSS VDD VDD _1392_ sky130_fd_sc_hd__and4_2
X_1775_ _1363_ _1365_ _1381_ _1392_ VSS VSS VDD VDD _1393_
+ sky130_fd_sc_hd__nand4_4
X_1776_ _1391_ _1393_ VSS VSS VDD VDD _1394_ sky130_fd_sc_hd__xnor2_1
X_1777_ _1349_ _1394_ VSS VSS VDD VDD _0043_ sky130_fd_sc_hd__nor2_1
X_1778_ net47 VSS VSS VDD VDD _1395_ sky130_fd_sc_hd__inv_1
X_1779_ net14 net125 net247 net258 VSS VSS VDD VDD _1396_
+ sky130_fd_sc_hd__nand4_1
X_1780_ _1262_ _1263_ _1351_ _1396_ VSS VSS VDD VDD _1397_
+ sky130_fd_sc_hd__or4_1
X_1781_ _1397_ VSS VSS VDD VDD _1398_ sky130_fd_sc_hd__buf_2
X_1782_ _1398_ VSS VSS VDD VDD _1399_ sky130_fd_sc_hd__buf_2
X_1783_ _1395_ _1399_ net58 VSS VSS VDD VDD _1400_ sky130_fd_sc_hd__o21ai_0
X_1784_ _1395_ net58 _1399_ VSS VSS VDD VDD _1401_ sky130_fd_sc_hd__or3_1
X_1785_ _1400_ _1401_ _1329_ VSS VSS VDD VDD _0044_ sky130_fd_sc_hd__a21oi_1
X_1786_ _1548_ _1365_ VSS VSS VDD VDD _1402_ sky130_fd_sc_hd__nand2_2
X_1787_ net57 _1392_ VSS VSS VDD VDD _1403_ sky130_fd_sc_hd__nand2_1
X_1788_ _1402_ _1377_ _1403_ net59 VSS VSS VDD VDD _1404_
+ sky130_fd_sc_hd__o31ai_1
X_1789_ net59 _1402_ _1377_ _1403_ VSS VSS VDD VDD _1405_
+ sky130_fd_sc_hd__or4_1
X_1790_ _1404_ _1405_ _1329_ VSS VSS VDD VDD _0045_ sky130_fd_sc_hd__a21oi_1
X_1791_ net57 net59 VSS VSS VDD VDD _1406_ sky130_fd_sc_hd__nand2_1
X_1792_ _1393_ _1406_ net60 VSS VSS VDD VDD _1407_ sky130_fd_sc_hd__o21ai_0
X_1793_ net60 _1393_ _1406_ VSS VSS VDD VDD _1408_ sky130_fd_sc_hd__or3_1
X_1794_ _1287_ VSS VSS VDD VDD _1409_ sky130_fd_sc_hd__clkbuf_4
X_1795_ _1407_ _1408_ _1409_ VSS VSS VDD VDD _0046_ sky130_fd_sc_hd__a21oi_1
X_1796_ net52 net57 net59 net60 VSS VSS VDD VDD _1410_ sky130_fd_sc_hd__and4_1
X_1797_ _1374_ _1392_ _1410_ VSS VSS VDD VDD _1411_ sky130_fd_sc_hd__nand3_2
X_1798_ _1402_ _1411_ net61 VSS VSS VDD VDD _1412_ sky130_fd_sc_hd__o21ai_0
X_1799_ net61 _1402_ _1411_ VSS VSS VDD VDD _1413_ sky130_fd_sc_hd__or3_1
X_1800_ _1412_ _1413_ _1409_ VSS VSS VDD VDD _0047_ sky130_fd_sc_hd__a21oi_1
X_1801_ net61 VSS VSS VDD VDD _1414_ sky130_fd_sc_hd__inv_1
X_1802_ net57 net59 net60 VSS VSS VDD VDD _1415_ sky130_fd_sc_hd__and3_1
X_1803_ _1415_ VSS VSS VDD VDD _1416_ sky130_fd_sc_hd__inv_1
X_1804_ _1414_ _1393_ _1416_ net62 VSS VSS VDD VDD _1417_
+ sky130_fd_sc_hd__o31ai_1
X_1805_ _1414_ net62 _1393_ _1416_ VSS VSS VDD VDD _1418_
+ sky130_fd_sc_hd__or4_1
X_1806_ _1417_ _1418_ _1409_ VSS VSS VDD VDD _0048_ sky130_fd_sc_hd__a21oi_1
X_1807_ net61 net62 VSS VSS VDD VDD _1419_ sky130_fd_sc_hd__nand2_1
X_1808_ _1402_ _1411_ _1419_ net63 VSS VSS VDD VDD _1420_
+ sky130_fd_sc_hd__o31ai_1
X_1809_ net63 _1402_ _1411_ _1419_ VSS VSS VDD VDD _1421_
+ sky130_fd_sc_hd__or4_1
X_1810_ _1420_ _1421_ _1409_ VSS VSS VDD VDD _0049_ sky130_fd_sc_hd__a21oi_1
X_1811_ net61 net62 net63 VSS VSS VDD VDD _1422_ sky130_fd_sc_hd__nand3_1
X_1812_ _1393_ _1416_ _1422_ net64 VSS VSS VDD VDD _1423_
+ sky130_fd_sc_hd__o31ai_1
X_1813_ net64 _1393_ _1416_ _1422_ VSS VSS VDD VDD _1424_
+ sky130_fd_sc_hd__or4_1
X_1814_ _1423_ _1424_ _1409_ VSS VSS VDD VDD _0050_ sky130_fd_sc_hd__a21oi_1
X_1815_ net61 net62 net63 net64 VSS VSS VDD VDD _1425_ sky130_fd_sc_hd__nand4_1
X_1816_ _1402_ _1411_ _1425_ net65 VSS VSS VDD VDD _1426_
+ sky130_fd_sc_hd__o31ai_1
X_1817_ net65 _1402_ _1411_ _1425_ VSS VSS VDD VDD _1427_
+ sky130_fd_sc_hd__or4_1
X_1818_ _1426_ _1427_ _1409_ VSS VSS VDD VDD _0051_ sky130_fd_sc_hd__a21oi_1
X_1819_ net61 net62 net63 net64 VSS VSS VDD VDD _1428_ sky130_fd_sc_hd__and4_1
X_1820_ net65 _1415_ _1428_ VSS VSS VDD VDD _1429_ sky130_fd_sc_hd__nand3_1
X_1821_ _1393_ _1429_ net66 VSS VSS VDD VDD _1430_ sky130_fd_sc_hd__o21ai_0
X_1822_ net66 _1393_ _1429_ VSS VSS VDD VDD _1431_ sky130_fd_sc_hd__or3_1
X_1823_ _1430_ _1431_ _1409_ VSS VSS VDD VDD _0052_ sky130_fd_sc_hd__a21oi_1
X_1824_ net65 _1548_ _1365_ _1428_ VSS VSS VDD VDD _1432_
+ sky130_fd_sc_hd__nand4_2
X_1825_ _1432_ VSS VSS VDD VDD _1433_ sky130_fd_sc_hd__clkbuf_2
X_1826_ net66 _1374_ _1392_ _1410_ VSS VSS VDD VDD _1434_
+ sky130_fd_sc_hd__nand4_2
X_1827_ _1433_ _1434_ net67 VSS VSS VDD VDD _1435_ sky130_fd_sc_hd__o21ai_0
X_1828_ net67 _1433_ _1434_ VSS VSS VDD VDD _1436_ sky130_fd_sc_hd__or3_1
X_1829_ _1435_ _1436_ _1409_ VSS VSS VDD VDD _0053_ sky130_fd_sc_hd__a21oi_1
X_1830_ net67 VSS VSS VDD VDD _1437_ sky130_fd_sc_hd__inv_1
X_1831_ net65 _1363_ _1365_ _1428_ VSS VSS VDD VDD _1438_
+ sky130_fd_sc_hd__nand4_1
X_1832_ _1438_ VSS VSS VDD VDD _1439_ sky130_fd_sc_hd__buf_2
X_1833_ _1437_ _1434_ _1439_ net68 VSS VSS VDD VDD _1440_
+ sky130_fd_sc_hd__o31ai_1
X_1834_ _1437_ net68 _1434_ _1439_ VSS VSS VDD VDD _1441_
+ sky130_fd_sc_hd__or4_1
X_1835_ _1440_ _1441_ _1409_ VSS VSS VDD VDD _0054_ sky130_fd_sc_hd__a21oi_1
X_1836_ net47 net58 VSS VSS VDD VDD _1442_ sky130_fd_sc_hd__nand2_1
X_1837_ _1266_ _1352_ _1442_ net69 VSS VSS VDD VDD _1443_
+ sky130_fd_sc_hd__o31ai_1
X_1838_ net69 _1354_ _1351_ _1442_ VSS VSS VDD VDD _1444_
+ sky130_fd_sc_hd__or4_1
X_1839_ _1443_ _1444_ _1409_ VSS VSS VDD VDD _0055_ sky130_fd_sc_hd__a21oi_1
X_1840_ net67 net68 VSS VSS VDD VDD _1445_ sky130_fd_sc_hd__nand2_1
X_1841_ _1433_ _1434_ _1445_ net70 VSS VSS VDD VDD _1446_
+ sky130_fd_sc_hd__o31ai_1
X_1842_ net70 _1433_ _1434_ _1445_ VSS VSS VDD VDD _1447_
+ sky130_fd_sc_hd__or4_1
X_1843_ _1287_ VSS VSS VDD VDD _1448_ sky130_fd_sc_hd__clkbuf_4
X_1844_ _1446_ _1447_ _1448_ VSS VSS VDD VDD _0056_ sky130_fd_sc_hd__a21oi_1
X_1845_ net66 net67 net68 net70 VSS VSS VDD VDD _1449_ sky130_fd_sc_hd__and4_1
X_1846_ _1374_ _1392_ _1410_ _1449_ VSS VSS VDD VDD _1450_
+ sky130_fd_sc_hd__nand4_4
X_1847_ _1450_ VSS VSS VDD VDD _1451_ sky130_fd_sc_hd__buf_2
X_1848_ _1439_ _1451_ net71 VSS VSS VDD VDD _1452_ sky130_fd_sc_hd__o21ai_0
X_1849_ net71 _1439_ _1451_ VSS VSS VDD VDD _1453_ sky130_fd_sc_hd__or3_1
X_1850_ _1452_ _1453_ _1448_ VSS VSS VDD VDD _0057_ sky130_fd_sc_hd__a21oi_1
X_1851_ net71 VSS VSS VDD VDD _1454_ sky130_fd_sc_hd__inv_1
X_1852_ _1454_ _1433_ _1451_ net72 VSS VSS VDD VDD _1455_
+ sky130_fd_sc_hd__o31ai_1
X_1853_ _1454_ net72 _1433_ _1450_ VSS VSS VDD VDD _1456_
+ sky130_fd_sc_hd__or4_1
X_1854_ _1455_ _1456_ _1448_ VSS VSS VDD VDD _0058_ sky130_fd_sc_hd__a21oi_1
X_1855_ net71 net72 VSS VSS VDD VDD _1457_ sky130_fd_sc_hd__nand2_1
X_1856_ _1439_ _1451_ _1457_ net73 VSS VSS VDD VDD _1458_
+ sky130_fd_sc_hd__o31ai_1
X_1857_ net73 _1439_ _1450_ _1457_ VSS VSS VDD VDD _1459_
+ sky130_fd_sc_hd__or4_1
X_1858_ _1458_ _1459_ _1448_ VSS VSS VDD VDD _0059_ sky130_fd_sc_hd__a21oi_1
X_1859_ net71 net72 net73 VSS VSS VDD VDD _1460_ sky130_fd_sc_hd__nand3_1
X_1860_ _1433_ _1451_ _1460_ net74 VSS VSS VDD VDD _1461_
+ sky130_fd_sc_hd__o31ai_1
X_1861_ net74 _1433_ _1450_ _1460_ VSS VSS VDD VDD _1462_
+ sky130_fd_sc_hd__or4_1
X_1862_ _1461_ _1462_ _1448_ VSS VSS VDD VDD _0060_ sky130_fd_sc_hd__a21oi_1
X_1863_ net71 net72 net73 net74 VSS VSS VDD VDD _1463_ sky130_fd_sc_hd__nand4_1
X_1864_ _1439_ _1451_ _1463_ net75 VSS VSS VDD VDD _1464_
+ sky130_fd_sc_hd__o31ai_1
X_1865_ net75 _1439_ _1450_ _1463_ VSS VSS VDD VDD _1465_
+ sky130_fd_sc_hd__or4_1
X_1866_ _1464_ _1465_ _1448_ VSS VSS VDD VDD _0061_ sky130_fd_sc_hd__a21oi_1
X_1867_ net71 net72 net73 net74 VSS VSS VDD VDD _1466_ sky130_fd_sc_hd__and4_1
X_1868_ net75 _1466_ VSS VSS VDD VDD _1467_ sky130_fd_sc_hd__nand2_1
X_1869_ _1433_ _1451_ _1467_ net76 VSS VSS VDD VDD _1468_
+ sky130_fd_sc_hd__o31ai_1
X_1870_ net76 _1432_ _1450_ _1467_ VSS VSS VDD VDD _1469_
+ sky130_fd_sc_hd__or4_1
X_1871_ _1468_ _1469_ _1448_ VSS VSS VDD VDD _0062_ sky130_fd_sc_hd__a21oi_1
X_1872_ net75 net76 _1466_ VSS VSS VDD VDD _1470_ sky130_fd_sc_hd__nand3_1
X_1873_ _1439_ _1451_ _1470_ net77 VSS VSS VDD VDD _1471_
+ sky130_fd_sc_hd__o31ai_1
X_1874_ net77 _1438_ _1450_ _1470_ VSS VSS VDD VDD _1472_
+ sky130_fd_sc_hd__or4_1
X_1875_ _1471_ _1472_ _1448_ VSS VSS VDD VDD _0063_ sky130_fd_sc_hd__a21oi_1
X_1876_ net75 net76 net77 _1466_ VSS VSS VDD VDD _1473_ sky130_fd_sc_hd__nand4_1
X_1877_ _1433_ _1451_ _1473_ net78 VSS VSS VDD VDD _1474_
+ sky130_fd_sc_hd__o31ai_1
X_1878_ net78 _1432_ _1450_ _1473_ VSS VSS VDD VDD _1475_
+ sky130_fd_sc_hd__or4_1
X_1879_ _1474_ _1475_ _1448_ VSS VSS VDD VDD _0064_ sky130_fd_sc_hd__a21oi_1
X_1880_ net79 VSS VSS VDD VDD _1476_ sky130_fd_sc_hd__inv_1
X_1881_ _1254_ _1476_ VSS VSS VDD VDD _1477_ sky130_fd_sc_hd__nor2_1
X_1882_ _1215_ VSS VSS VDD VDD _1478_ sky130_fd_sc_hd__buf_4
X_1883_ _1478_ net79 VSS VSS VDD VDD _1479_ sky130_fd_sc_hd__nor2_1
X_1884_ net78 VSS VSS VDD VDD _1480_ sky130_fd_sc_hd__inv_1
X_1885_ _1480_ _1439_ _1451_ _1473_ VSS VSS VDD VDD _1481_
+ sky130_fd_sc_hd__nor4_1
X_1886_ _1477_ _1479_ _1481_ VSS VSS VDD VDD _0065_ sky130_fd_sc_hd__mux2_1