
* cell parameterized_barrel_rotator
* pin data_in[8]
* pin data_in[6]
* pin data_in[4]
* pin data_in[10]
* pin data_in[13]
* pin data_in[12]
* pin data_in[14]
* pin data_in[15]
* pin data_in[16]
* pin data_in[17]
* pin data_in[18]
* pin data_in[20]
* pin data_in[19]
* pin data_in[21]
* pin data_in[7]
* pin data_in[11]
* pin data_in[9]
* pin direction
* pin data_in[22]
* pin data_in[23]
* pin rotate_amount[0]
* pin rotate_amount[2]
* pin data_in[24]
* pin data_in[3]
* pin data_in[5]
* pin data_in[25]
* pin data_in[26]
* pin data_in[27]
* pin data_in[0]
* pin data_in[28]
* pin data_in[29]
* pin data_in[30]
* pin rotate_amount[1]
* pin data_in[2]
* pin rotate_amount[3]
* pin rotate_amount[4]
* pin data_out[12]
* pin data_out[24]
* pin data_out[20]
* pin data_out[4]
* pin data_out[22]
* pin data_out[5]
* pin data_out[1]
* pin data_out[0]
* pin data_out[23]
* pin data_out[10]
* pin data_out[2]
* pin data_out[18]
* pin data_out[30]
* pin data_out[26]
* pin data_out[14]
* pin data_out[29]
* pin data_out[9]
* pin data_out[25]
* pin data_in[1]
* pin data_out[21]
* pin data_in[31]
* pin data_out[7]
* pin data_out[17]
* pin data_out[27]
* pin data_out[11]
* pin data_out[15]
* pin data_out[31]
* pin data_out[28]
* pin data_out[3]
* pin data_out[19]
* pin data_out[16]
* pin data_out[6]
* pin data_out[13]
* pin data_out[8]
* pin NWELL
* pin PWELL,gf180mcu_gnd
.SUBCKT parameterized_barrel_rotator 1 2 3 4 5 6 7 8 9 10 11 12 13 61 97 98 99
+ 100 116 136 166 167 189 199 200 218 219 247 248 249 265 288 299 317 337 371
+ 388 415 416 417 607 608 609 611 612 617 618 619 620 621 622 623 624 625 626
+ 627 628 629 630 631 632 633 634 635 636 637 638 639 640 641 642 643
* net 1 data_in[8]
* net 2 data_in[6]
* net 3 data_in[4]
* net 4 data_in[10]
* net 5 data_in[13]
* net 6 data_in[12]
* net 7 data_in[14]
* net 8 data_in[15]
* net 9 data_in[16]
* net 10 data_in[17]
* net 11 data_in[18]
* net 12 data_in[20]
* net 13 data_in[19]
* net 61 data_in[21]
* net 97 data_in[7]
* net 98 data_in[11]
* net 99 data_in[9]
* net 100 direction
* net 116 data_in[22]
* net 136 data_in[23]
* net 166 rotate_amount[0]
* net 167 rotate_amount[2]
* net 189 data_in[24]
* net 199 data_in[3]
* net 200 data_in[5]
* net 218 data_in[25]
* net 219 data_in[26]
* net 247 data_in[27]
* net 248 data_in[0]
* net 249 data_in[28]
* net 265 data_in[29]
* net 288 data_in[30]
* net 299 rotate_amount[1]
* net 317 data_in[2]
* net 337 rotate_amount[3]
* net 371 rotate_amount[4]
* net 388 data_out[12]
* net 415 data_out[24]
* net 416 data_out[20]
* net 417 data_out[4]
* net 607 data_out[22]
* net 608 data_out[5]
* net 609 data_out[1]
* net 611 data_out[0]
* net 612 data_out[23]
* net 617 data_out[10]
* net 618 data_out[2]
* net 619 data_out[18]
* net 620 data_out[30]
* net 621 data_out[26]
* net 622 data_out[14]
* net 623 data_out[29]
* net 624 data_out[9]
* net 625 data_out[25]
* net 626 data_in[1]
* net 627 data_out[21]
* net 628 data_in[31]
* net 629 data_out[7]
* net 630 data_out[17]
* net 631 data_out[27]
* net 632 data_out[11]
* net 633 data_out[15]
* net 634 data_out[31]
* net 635 data_out[28]
* net 636 data_out[3]
* net 637 data_out[19]
* net 638 data_out[16]
* net 639 data_out[6]
* net 640 data_out[13]
* net 641 data_out[8]
* net 642 NWELL
* net 643 PWELL,gf180mcu_gnd
* cell instance $4 r0 *1 930.72,15.12
X$4 643 1 17 642 gf180mcu_fd_sc_mcu9t5v0__clkbuf_8
* cell instance $8 r0 *1 931.28,5.04
X$8 643 642 2 15 gf180mcu_fd_sc_mcu9t5v0__buf_4
* cell instance $12 m0 *1 936.32,15.12
X$12 643 3 204 642 gf180mcu_fd_sc_mcu9t5v0__clkbuf_8
* cell instance $16 r0 *1 964.88,5.04
X$16 643 4 19 642 gf180mcu_fd_sc_mcu9t5v0__clkbuf_8
* cell instance $20 r0 *1 964.32,15.12
X$20 643 642 5 16 gf180mcu_fd_sc_mcu9t5v0__buf_4
* cell instance $24 m0 *1 970.48,15.12
X$24 643 642 6 67 gf180mcu_fd_sc_mcu9t5v0__buf_4
* cell instance $27 r0 *1 990.64,15.12
X$27 643 7 30 642 gf180mcu_fd_sc_mcu9t5v0__clkbuf_8
* cell instance $31 r0 *1 983.36,5.04
X$31 643 8 23 642 gf180mcu_fd_sc_mcu9t5v0__clkbuf_8
* cell instance $35 r0 *1 999.04,5.04
X$35 643 9 33 642 gf180mcu_fd_sc_mcu9t5v0__clkbuf_8
* cell instance $40 m0 *1 999.04,15.12
X$40 643 10 18 642 gf180mcu_fd_sc_mcu9t5v0__clkbuf_8
* cell instance $44 m0 *1 1013.6,15.12
X$44 643 11 20 642 gf180mcu_fd_sc_mcu9t5v0__clkbuf_8
* cell instance $48 r0 *1 1053.36,5.04
X$48 643 642 12 14 gf180mcu_fd_sc_mcu9t5v0__buf_4
* cell instance $52 r0 *1 1062.32,5.04
X$52 643 642 13 39 gf180mcu_fd_sc_mcu9t5v0__buf_4
* cell instance $54 m0 *1 1064.56,942.48
X$54 643 642 76 14 48 39 gf180mcu_fd_sc_mcu9t5v0__mux2_2
* cell instance $60 r0 *1 1061.2,942.48
X$60 643 642 91 92 28 14 gf180mcu_fd_sc_mcu9t5v0__mux2_2
* cell instance $62 r0 *1 1019.76,932.4
X$62 643 642 42 71 14 gf180mcu_fd_sc_mcu9t5v0__nand2_2
* cell instance $65 r0 *1 1019.2,912.24
X$65 29 28 21 14 643 642 40 gf180mcu_fd_sc_mcu9t5v0__and4_2
* cell instance $67 m0 *1 961.52,942.48
X$67 643 86 78 15 19 69 67 17 642 gf180mcu_fd_sc_mcu9t5v0__mux4_2
* cell instance $76 r0 *1 934.64,992.88
X$76 82 46 65 15 643 642 232 gf180mcu_fd_sc_mcu9t5v0__and4_2
* cell instance $78 m0 *1 953.12,982.8
X$78 643 642 15 177 gf180mcu_fd_sc_mcu9t5v0__clkinv_2
* cell instance $82 r0 *1 927.36,992.88
X$82 104 43 229 15 643 642 252 gf180mcu_fd_sc_mcu9t5v0__and4_2
* cell instance $84 m0 *1 954.8,952.56
X$84 643 642 111 16 85 102 gf180mcu_fd_sc_mcu9t5v0__mux2_2
* cell instance $90 m0 *1 969.92,932.4
X$90 35 46 45 16 643 642 24 gf180mcu_fd_sc_mcu9t5v0__and4_2
* cell instance $93 r0 *1 965.44,922.32
X$93 643 642 16 47 gf180mcu_fd_sc_mcu9t5v0__clkinv_2
* cell instance $96 m0 *1 977.76,962.64
X$96 16 642 149 150 643 139 gf180mcu_fd_sc_mcu9t5v0__and3_2
* cell instance $98 m0 *1 1019.76,982.8
X$98 643 642 109 223 17 gf180mcu_fd_sc_mcu9t5v0__nand2_2
* cell instance $108 m0 *1 930.16,1002.96
X$108 104 81 65 17 643 642 258 gf180mcu_fd_sc_mcu9t5v0__and4_2
* cell instance $111 r0 *1 1020.88,952.56
X$111 643 642 17 130 gf180mcu_fd_sc_mcu9t5v0__clkinv_2
* cell instance $113 r0 *1 949.76,992.88
X$113 643 642 229 178 17 gf180mcu_fd_sc_mcu9t5v0__nand2_2
* cell instance $117 m0 *1 1047.2,922.32
X$117 35 36 42 18 643 642 38 gf180mcu_fd_sc_mcu9t5v0__and4_2
* cell instance $119 m0 *1 989.52,952.56
X$119 643 642 112 18 85 23 gf180mcu_fd_sc_mcu9t5v0__mux2_2
* cell instance $126 r0 *1 1055.6,922.32
X$126 643 642 18 59 gf180mcu_fd_sc_mcu9t5v0__clkinv_2
* cell instance $128 m0 *1 985.6,962.64
X$128 78 18 125 238 139 642 643 gf180mcu_fd_sc_mcu9t5v0__aoi211_2
* cell instance $130 r0 *1 1051.12,962.64
X$130 643 642 156 20 48 18 gf180mcu_fd_sc_mcu9t5v0__mux2_2
* cell instance $134 r0 *1 986.16,972.72
X$134 643 642 180 19 145 30 gf180mcu_fd_sc_mcu9t5v0__mux2_2
* cell instance $137 r0 *1 987.84,932.4
X$137 643 70 642 30 69 33 78 67 19 gf180mcu_fd_sc_mcu9t5v0__mux4_4
* cell instance $148 m0 *1 962.08,972.72
X$148 643 642 21 127 19 gf180mcu_fd_sc_mcu9t5v0__nand2_2
* cell instance $151 r0 *1 1016.96,972.72
X$151 643 642 66 224 19 gf180mcu_fd_sc_mcu9t5v0__nand2_2
* cell instance $153 r0 *1 1011.36,962.64
X$153 643 642 19 152 gf180mcu_fd_sc_mcu9t5v0__clkinv_2
* cell instance $156 m0 *1 1041.04,982.8
X$156 643 642 191 20 186 33 gf180mcu_fd_sc_mcu9t5v0__mux2_2
* cell instance $159 m0 *1 1002.96,982.8
X$159 643 642 182 20 145 30 gf180mcu_fd_sc_mcu9t5v0__mux2_2
* cell instance $162 r0 *1 999.04,972.72
X$162 643 642 181 30 145 20 gf180mcu_fd_sc_mcu9t5v0__mux2_2
* cell instance $171 m0 *1 1040.48,942.48
X$171 643 642 20 74 gf180mcu_fd_sc_mcu9t5v0__clkinv_2
* cell instance $174 m0 *1 1018.64,922.32
X$174 29 36 54 20 643 642 37 gf180mcu_fd_sc_mcu9t5v0__and4_2
* cell instance $176 m0 *1 912.8,1002.96
X$176 642 174 272 171 21 110 643 gf180mcu_fd_sc_mcu9t5v0__oai211_2
* cell instance $179 m0 *1 918.4,982.8
X$179 642 174 173 171 21 94 643 gf180mcu_fd_sc_mcu9t5v0__oai211_2
* cell instance $191 m0 *1 973.84,922.32
X$191 35 46 21 23 643 642 22 gf180mcu_fd_sc_mcu9t5v0__and4_2
* cell instance $194 r0 *1 911.68,1043.28
X$194 643 357 21 255 375 339 642 gf180mcu_fd_sc_mcu9t5v0__aoi211_4
* cell instance $196 m0 *1 1054.48,922.32
X$196 35 36 21 39 643 642 62 gf180mcu_fd_sc_mcu9t5v0__and4_2
* cell instance $198 r0 *1 949.76,982.8
X$198 643 233 36 35 21 177 642 gf180mcu_fd_sc_mcu9t5v0__aoi211_4
* cell instance $202 r0 *1 1008.56,912.24
X$202 29 28 21 33 643 642 34 gf180mcu_fd_sc_mcu9t5v0__and4_2
* cell instance $205 r0 *1 967.68,1002.96
X$205 35 36 21 221 643 642 275 gf180mcu_fd_sc_mcu9t5v0__and4_2
* cell instance $209 r0 *1 923.44,932.4
X$209 643 642 65 21 gf180mcu_fd_sc_mcu9t5v0__buf_4
* cell instance $212 m0 *1 981.12,922.32
X$212 27 49 22 24 642 643 26 gf180mcu_fd_sc_mcu9t5v0__or4_2
* cell instance $216 r0 *1 977.76,922.32
X$216 643 51 49 22 24 27 642 gf180mcu_fd_sc_mcu9t5v0__nor4_4
* cell instance $218 m0 *1 1004.08,1013.04
X$218 642 23 643 280 298 281 gf180mcu_fd_sc_mcu9t5v0__oai21_2
* cell instance $230 r0 *1 981.12,912.24
X$230 643 642 42 25 23 gf180mcu_fd_sc_mcu9t5v0__nand2_2
* cell instance $233 m0 *1 1022,962.64
X$233 643 642 137 33 72 23 gf180mcu_fd_sc_mcu9t5v0__mux2_2
* cell instance $245 m0 *1 988.96,922.32
X$245 643 25 642 27 28 29 gf180mcu_fd_sc_mcu9t5v0__aoi21_2
* cell instance $247 r0 *1 1018.64,922.32
X$247 643 56 642 64 60 55 68 26 58 gf180mcu_fd_sc_mcu9t5v0__mux4_4
* cell instance $257 m0 *1 1082.48,1013.04
X$257 643 642 294 245 28 246 gf180mcu_fd_sc_mcu9t5v0__mux2_2
* cell instance $260 r0 *1 1089.2,972.72
X$260 643 642 187 188 28 159 gf180mcu_fd_sc_mcu9t5v0__mux2_2
* cell instance $276 r0 *1 968.24,932.4
X$276 643 81 28 642 gf180mcu_fd_sc_mcu9t5v0__clkbuf_8
* cell instance $280 r0 *1 1036.56,962.64
X$280 643 28 128 642 gf180mcu_fd_sc_mcu9t5v0__clkbuf_8
* cell instance $282 m0 *1 1001.28,922.32
X$282 29 28 54 30 643 642 41 gf180mcu_fd_sc_mcu9t5v0__and4_2
* cell instance $287 r0 *1 983.36,1023.12
X$287 643 329 28 29 54 344 642 gf180mcu_fd_sc_mcu9t5v0__aoi211_4
* cell instance $289 r0 *1 973.84,1033.2
X$289 643 327 642 328 28 29 gf180mcu_fd_sc_mcu9t5v0__aoi21_2
* cell instance $294 m0 *1 903.28,1063.44
X$294 643 421 360 359 29 642 330 gf180mcu_fd_sc_mcu9t5v0__nand4_2
* cell instance $313 r0 *1 945.28,922.32
X$313 643 49 36 29 42 47 642 gf180mcu_fd_sc_mcu9t5v0__aoi211_4
* cell instance $316 m0 *1 915.04,1023.12
X$316 643 104 29 642 gf180mcu_fd_sc_mcu9t5v0__clkbuf_8
* cell instance $323 m0 *1 1046.08,932.4
X$323 48 29 54 57 59 642 643 gf180mcu_fd_sc_mcu9t5v0__aoi211_2
* cell instance $340 r0 *1 1001.84,922.32
X$340 643 642 30 52 gf180mcu_fd_sc_mcu9t5v0__clkinv_2
* cell instance $343 m0 *1 1008.56,922.32
X$343 31 32 34 41 642 643 55 gf180mcu_fd_sc_mcu9t5v0__or4_2
* cell instance $345 m0 *1 1005.76,932.4
X$345 643 53 642 31 72 50 gf180mcu_fd_sc_mcu9t5v0__aoi21_2
* cell instance $347 r0 *1 1006.32,922.32
X$347 48 50 54 32 52 642 643 gf180mcu_fd_sc_mcu9t5v0__aoi211_2
* cell instance $364 m0 *1 999.04,932.4
X$364 643 642 54 53 33 gf180mcu_fd_sc_mcu9t5v0__nand2_2
* cell instance $366 m0 *1 988.4,982.8
X$366 78 33 198 239 207 642 643 gf180mcu_fd_sc_mcu9t5v0__aoi211_2
* cell instance $368 r0 *1 1046.08,942.48
X$368 643 642 33 89 gf180mcu_fd_sc_mcu9t5v0__clkinv_2
* cell instance $387 r0 *1 908.32,1063.44
X$387 35 359 360 330 643 642 400 gf180mcu_fd_sc_mcu9t5v0__and4_2
* cell instance $390 r0 *1 968.8,922.32
X$390 643 642 35 50 gf180mcu_fd_sc_mcu9t5v0__buf_4
* cell instance $397 r0 *1 966.56,1033.2
X$397 35 46 42 358 643 642 326 gf180mcu_fd_sc_mcu9t5v0__and4_2
* cell instance $399 m0 *1 903.84,962.64
X$399 643 642 103 35 gf180mcu_fd_sc_mcu9t5v0__buf_4
* cell instance $402 m0 *1 956.48,992.88
X$402 643 234 36 35 45 254 642 gf180mcu_fd_sc_mcu9t5v0__aoi211_4
* cell instance $404 m0 *1 1080.24,972.72
X$404 643 642 158 159 36 115 gf180mcu_fd_sc_mcu9t5v0__mux2_2
* cell instance $407 m0 *1 936.32,932.4
X$407 643 43 36 642 gf180mcu_fd_sc_mcu9t5v0__clkbuf_8
* cell instance $410 r0 *1 1089.2,982.8
X$410 643 642 216 217 36 188 gf180mcu_fd_sc_mcu9t5v0__mux2_2
* cell instance $427 r0 *1 1067.36,932.4
X$427 643 642 36 72 gf180mcu_fd_sc_mcu9t5v0__buf_4
* cell instance $437 m0 *1 1018.08,932.4
X$437 73 77 40 37 642 643 64 gf180mcu_fd_sc_mcu9t5v0__or4_2
* cell instance $440 r0 *1 1047.2,922.32
X$440 63 57 62 38 642 643 58 gf180mcu_fd_sc_mcu9t5v0__or4_2
* cell instance $446 m0 *1 1059.52,952.56
X$446 643 642 87 92 85 39 gf180mcu_fd_sc_mcu9t5v0__mux2_2
* cell instance $452 m0 *1 1064,932.4
X$452 643 642 39 75 gf180mcu_fd_sc_mcu9t5v0__clkinv_2
* cell instance $462 m0 *1 1052.8,1002.96
X$462 643 642 269 245 42 217 gf180mcu_fd_sc_mcu9t5v0__mux2_2
* cell instance $464 r0 *1 1043.28,1033.2
X$464 643 642 356 318 42 263 gf180mcu_fd_sc_mcu9t5v0__mux2_2
* cell instance $466 m0 *1 1012.48,1043.28
X$466 643 642 346 347 42 264 gf180mcu_fd_sc_mcu9t5v0__mux2_2
* cell instance $468 r0 *1 906.08,922.32
X$468 643 44 42 642 gf180mcu_fd_sc_mcu9t5v0__clkbuf_8
* cell instance $494 r0 *1 968.8,1023.12
X$494 643 642 42 327 221 gf180mcu_fd_sc_mcu9t5v0__nand2_2
* cell instance $497 r0 *1 911.68,982.8
X$497 172 174 42 84 642 643 202 gf180mcu_fd_sc_mcu9t5v0__or4_2
* cell instance $499 m0 *1 868.56,982.8
X$499 643 169 43 642 gf180mcu_fd_sc_mcu9t5v0__clkbuf_8
* cell instance $509 r0 *1 881.44,1023.12
X$509 104 43 229 221 643 642 335 gf180mcu_fd_sc_mcu9t5v0__and4_2
* cell instance $511 m0 *1 885.92,1023.12
X$511 104 43 65 110 643 642 300 gf180mcu_fd_sc_mcu9t5v0__and4_2
* cell instance $515 r0 *1 926.24,1033.2
X$515 104 43 229 318 643 642 320 gf180mcu_fd_sc_mcu9t5v0__and4_2
* cell instance $517 r0 *1 901.04,1043.28
X$517 359 360 121 43 642 643 375 gf180mcu_fd_sc_mcu9t5v0__or4_2
* cell instance $519 r0 *1 890.96,972.72
X$519 643 642 103 170 43 gf180mcu_fd_sc_mcu9t5v0__nand2_2
* cell instance $522 m0 *1 921.76,932.4
X$522 643 642 43 46 gf180mcu_fd_sc_mcu9t5v0__buf_4
* cell instance $525 m0 *1 892.64,932.4
X$525 643 43 81 642 gf180mcu_fd_sc_mcu9t5v0__clkbuf_8
* cell instance $528 m0 *1 905.52,952.56
X$528 104 43 65 94 643 642 106 gf180mcu_fd_sc_mcu9t5v0__and4_2
* cell instance $530 r0 *1 874.72,932.4
X$530 643 80 44 642 gf180mcu_fd_sc_mcu9t5v0__clkbuf_12
* cell instance $533 r0 *1 901.6,952.56
X$533 642 44 79 643 105 gf180mcu_fd_sc_mcu9t5v0__and2_2
* cell instance $535 r0 *1 874.72,962.64
X$535 642 194 162 44 103 121 643 gf180mcu_fd_sc_mcu9t5v0__oai211_2
* cell instance $537 m0 *1 870.8,972.72
X$537 642 643 144 143 103 146 193 44 gf180mcu_fd_sc_mcu9t5v0__oai221_2
* cell instance $547 m0 *1 873.04,1002.96
X$547 643 44 229 642 gf180mcu_fd_sc_mcu9t5v0__clkbuf_8
* cell instance $549 m0 *1 897.68,1002.96
X$549 643 642 44 172 230 gf180mcu_fd_sc_mcu9t5v0__nor2_4
* cell instance $551 m0 *1 907.2,932.4
X$551 643 44 45 642 gf180mcu_fd_sc_mcu9t5v0__clkbuf_8
* cell instance $554 r0 *1 873.04,992.88
X$554 643 44 244 174 101 642 gf180mcu_fd_sc_mcu9t5v0__oai21_4
* cell instance $556 m0 *1 903.84,992.88
X$556 643 44 174 172 642 213 gf180mcu_fd_sc_mcu9t5v0__or3_4
* cell instance $559 m0 *1 885.92,992.88
X$559 643 206 44 101 642 gf180mcu_fd_sc_mcu9t5v0__xor2_4
* cell instance $561 r0 *1 960.4,1043.28
X$561 643 642 382 263 45 287 gf180mcu_fd_sc_mcu9t5v0__mux2_2
* cell instance $564 r0 *1 952,1043.28
X$564 643 642 376 286 45 287 gf180mcu_fd_sc_mcu9t5v0__mux2_2
* cell instance $581 r0 *1 911.68,1033.2
X$581 643 642 45 81 330 gf180mcu_fd_sc_mcu9t5v0__nor2_4
* cell instance $583 m0 *1 941.92,992.88
X$583 46 82 45 273 177 642 643 gf180mcu_fd_sc_mcu9t5v0__aoi211_2
* cell instance $585 r0 *1 942.48,992.88
X$585 82 81 45 204 643 642 231 gf180mcu_fd_sc_mcu9t5v0__and4_2
* cell instance $589 m0 *1 945.84,942.48
X$589 643 642 45 66 gf180mcu_fd_sc_mcu9t5v0__buf_4
* cell instance $591 m0 *1 916.16,992.88
X$591 172 174 45 176 642 643 203 gf180mcu_fd_sc_mcu9t5v0__or4_2
* cell instance $594 r0 *1 915.04,942.48
X$594 81 82 45 83 84 642 643 gf180mcu_fd_sc_mcu9t5v0__aoi211_2
* cell instance $612 m0 *1 956.48,922.32
X$612 643 46 48 642 gf180mcu_fd_sc_mcu9t5v0__clkbuf_8
* cell instance $614 r0 *1 901.04,1013.04
X$614 643 257 642 292 46 82 gf180mcu_fd_sc_mcu9t5v0__aoi21_2
* cell instance $619 m0 *1 937.44,1002.96
X$619 643 178 642 259 46 82 gf180mcu_fd_sc_mcu9t5v0__aoi21_2
* cell instance $621 m0 *1 936.32,1033.2
X$621 643 323 642 322 46 82 gf180mcu_fd_sc_mcu9t5v0__aoi21_2
* cell instance $623 r0 *1 912.8,952.56
X$623 46 82 65 107 108 642 643 gf180mcu_fd_sc_mcu9t5v0__aoi211_2
* cell instance $628 r0 *1 935.76,952.56
X$628 643 642 140 47 114 108 gf180mcu_fd_sc_mcu9t5v0__mux2_2
* cell instance $635 r0 *1 959.28,1053.36
X$635 643 48 382 642 403 gf180mcu_fd_sc_mcu9t5v0__or2_2
* cell instance $643 r0 *1 1079.68,992.88
X$643 643 642 215 246 48 217 gf180mcu_fd_sc_mcu9t5v0__mux2_2
* cell instance $657 m0 *1 1083.04,962.64
X$657 643 642 135 115 48 92 gf180mcu_fd_sc_mcu9t5v0__mux2_2
* cell instance $660 m0 *1 1025.92,932.4
X$660 48 50 54 77 74 642 643 gf180mcu_fd_sc_mcu9t5v0__aoi211_2
* cell instance $663 m0 *1 1043.84,942.48
X$663 48 50 109 63 75 642 643 gf180mcu_fd_sc_mcu9t5v0__aoi211_2
* cell instance $666 m0 *1 1085.84,1043.28
X$666 643 642 370 264 48 286 gf180mcu_fd_sc_mcu9t5v0__mux2_2
* cell instance $674 m0 *1 1071.28,1023.12
X$674 50 642 72 109 643 285 gf180mcu_fd_sc_mcu9t5v0__and3_2
* cell instance $676 m0 *1 982.24,992.88
X$676 50 209 255 109 642 643 226 gf180mcu_fd_sc_mcu9t5v0__or4_2
* cell instance $698 m0 *1 968.24,1053.36
X$698 50 256 205 362 643 642 405 gf180mcu_fd_sc_mcu9t5v0__and4_2
* cell instance $700 r0 *1 1012.48,932.4
X$700 643 71 642 73 72 50 gf180mcu_fd_sc_mcu9t5v0__aoi21_2
* cell instance $702 r0 *1 1019.76,982.8
X$702 643 223 642 224 210 72 50 gf180mcu_fd_sc_mcu9t5v0__aoi22_2
* cell instance $707 r0 *1 1070.16,1023.12
X$707 643 109 642 311 72 50 gf180mcu_fd_sc_mcu9t5v0__aoi21_2
* cell instance $709 m0 *1 1008.56,1023.12
X$709 642 306 643 51 183 307 309 gf180mcu_fd_sc_mcu9t5v0__oai22_2
* cell instance $711 r0 *1 1031.52,952.56
X$711 643 132 153 90 51 123 118 117 642 gf180mcu_fd_sc_mcu9t5v0__mux4_2
* cell instance $714 m0 *1 1011.36,982.8
X$714 643 642 197 51 114 183 gf180mcu_fd_sc_mcu9t5v0__mux2_2
* cell instance $723 r0 *1 1012.48,952.56
X$723 643 642 118 52 69 113 gf180mcu_fd_sc_mcu9t5v0__mux2_2
* cell instance $726 m0 *1 1001.28,962.64
X$726 643 131 114 130 113 69 52 152 642 gf180mcu_fd_sc_mcu9t5v0__mux4_2
* cell instance $729 m0 *1 999.6,942.48
X$729 642 53 643 52 96 66 gf180mcu_fd_sc_mcu9t5v0__oai21_2
* cell instance $732 m0 *1 1008,972.72
X$732 643 642 151 52 145 152 gf180mcu_fd_sc_mcu9t5v0__mux2_2
* cell instance $744 m0 *1 908.88,982.8
X$744 642 174 222 171 54 102 643 gf180mcu_fd_sc_mcu9t5v0__oai211_2
* cell instance $760 r0 *1 916.16,1013.04
X$760 643 229 54 642 gf180mcu_fd_sc_mcu9t5v0__clkbuf_8
* cell instance $765 m0 *1 917.84,1053.36
X$765 643 381 54 205 362 363 642 gf180mcu_fd_sc_mcu9t5v0__oai211_4
* cell instance $776 r0 *1 1051.12,1002.96
X$776 643 642 262 264 54 245 gf180mcu_fd_sc_mcu9t5v0__mux2_2
* cell instance $782 r0 *1 992.32,1144.08
X$782 643 455 56 642 574 gf180mcu_fd_sc_mcu9t5v0__or2_2
* cell instance $784 r0 *1 988.96,1134
X$784 643 642 555 56 474 312 gf180mcu_fd_sc_mcu9t5v0__mux2_2
* cell instance $797 m0 *1 1055.6,932.4
X$797 68 642 60 58 643 155 gf180mcu_fd_sc_mcu9t5v0__and3_2
* cell instance $803 m0 *1 1053.36,942.48
X$803 643 642 90 75 69 59 gf180mcu_fd_sc_mcu9t5v0__mux2_2
* cell instance $807 m0 *1 1069.6,1053.36
X$807 643 642 390 158 60 294 gf180mcu_fd_sc_mcu9t5v0__mux2_2
* cell instance $809 r0 *1 1016.96,992.88
X$809 643 642 242 253 60 251 gf180mcu_fd_sc_mcu9t5v0__mux2_2
* cell instance $822 m0 *1 1068.48,962.64
X$822 642 150 149 60 643 gf180mcu_fd_sc_mcu9t5v0__and2_4
* cell instance $825 r0 *1 1066.8,962.64
X$825 643 60 153 642 gf180mcu_fd_sc_mcu9t5v0__clkbuf_8
* cell instance $828 m0 *1 1014.72,1063.44
X$828 643 560 642 369 142 412 60 319 236 gf180mcu_fd_sc_mcu9t5v0__mux4_4
* cell instance $830 m0 *1 1062.88,992.88
X$830 643 284 642 76 186 135 60 215 187 gf180mcu_fd_sc_mcu9t5v0__mux4_4
* cell instance $832 m0 *1 1065.12,982.8
X$832 643 190 642 135 60 156 214 76 187 gf180mcu_fd_sc_mcu9t5v0__mux4_4
* cell instance $838 r0 *1 1975.68,932.4
X$838 643 642 61 92 gf180mcu_fd_sc_mcu9t5v0__buf_4
* cell instance $852 m0 *1 890.4,942.48
X$852 643 642 80 65 gf180mcu_fd_sc_mcu9t5v0__inv_4
* cell instance $869 r0 *1 939.12,932.4
X$869 643 65 109 642 gf180mcu_fd_sc_mcu9t5v0__clkbuf_8
* cell instance $872 m0 *1 929.6,1023.12
X$872 104 81 65 204 643 642 303 gf180mcu_fd_sc_mcu9t5v0__and4_2
* cell instance $875 r0 *1 917.28,972.72
X$875 172 174 65 108 642 643 175 gf180mcu_fd_sc_mcu9t5v0__or4_2
* cell instance $882 r0 *1 946.4,972.72
X$882 642 178 643 177 164 66 gf180mcu_fd_sc_mcu9t5v0__oai21_2
* cell instance $884 r0 *1 981.12,1033.2
X$884 642 327 643 344 342 66 gf180mcu_fd_sc_mcu9t5v0__oai21_2
* cell instance $886 m0 *1 943.6,1033.2
X$886 642 323 643 324 380 66 gf180mcu_fd_sc_mcu9t5v0__oai21_2
* cell instance $889 m0 *1 1017.52,942.48
X$889 642 71 643 74 88 66 gf180mcu_fd_sc_mcu9t5v0__oai21_2
* cell instance $911 r0 *1 972.16,982.8
X$911 171 128 205 66 643 642 228 gf180mcu_fd_sc_mcu9t5v0__and4_2
* cell instance $914 m0 *1 935.76,952.56
X$914 643 95 78 110 94 66 102 79 642 gf180mcu_fd_sc_mcu9t5v0__mux4_2
* cell instance $917 m0 *1 974.96,1002.96
X$917 171 642 255 66 643 237 gf180mcu_fd_sc_mcu9t5v0__and3_2
* cell instance $919 m0 *1 960.96,962.64
X$919 643 642 142 125 66 gf180mcu_fd_sc_mcu9t5v0__nand2_2
* cell instance $930 r0 *1 985.6,952.56
X$930 643 642 67 113 gf180mcu_fd_sc_mcu9t5v0__clkinv_2
* cell instance $933 m0 *1 991.76,972.72
X$933 67 642 149 150 643 198 gf180mcu_fd_sc_mcu9t5v0__and3_2
* cell instance $935 r0 *1 960.96,942.48
X$935 643 642 179 86 68 95 gf180mcu_fd_sc_mcu9t5v0__mux2_4
* cell instance $947 r0 *1 1039.36,1043.28
X$947 643 373 260 250 355 68 642 gf180mcu_fd_sc_mcu9t5v0__aoi211_4
* cell instance $949 m0 *1 999.04,1093.68
X$949 70 68 307 479 478 642 643 gf180mcu_fd_sc_mcu9t5v0__aoi211_2
* cell instance $951 m0 *1 1032.64,1033.2
X$951 643 331 304 68 334 153 642 gf180mcu_fd_sc_mcu9t5v0__aoi211_4
* cell instance $953 r0 *1 996.8,1083.6
X$953 70 68 307 456 455 642 643 gf180mcu_fd_sc_mcu9t5v0__aoi211_2
* cell instance $957 m0 *1 1052.8,1023.12
X$957 642 68 643 262 280 313 281 gf180mcu_fd_sc_mcu9t5v0__oai22_2
* cell instance $959 m0 *1 968.24,952.56
X$959 643 406 642 88 68 87 78 112 96 gf180mcu_fd_sc_mcu9t5v0__mux4_4
* cell instance $961 m0 *1 957.6,1023.12
X$961 643 316 68 304 315 114 296 274 642 gf180mcu_fd_sc_mcu9t5v0__mux4_2
* cell instance $964 r0 *1 1038.8,932.4
X$964 643 72 68 642 gf180mcu_fd_sc_mcu9t5v0__clkbuf_8
* cell instance $969 r0 *1 954.24,952.56
X$969 643 642 124 79 69 110 gf180mcu_fd_sc_mcu9t5v0__mux2_2
* cell instance $973 m0 *1 1056.72,982.8
X$973 643 642 185 158 69 91 gf180mcu_fd_sc_mcu9t5v0__mux2_2
* cell instance $976 m0 *1 1040.48,952.56
X$976 643 642 117 74 69 89 gf180mcu_fd_sc_mcu9t5v0__mux2_2
* cell instance $978 r0 *1 1073.52,982.8
X$978 642 643 213 69 244 gf180mcu_fd_sc_mcu9t5v0__nand2_4
* cell instance $996 r0 *1 1060.08,972.72
X$996 643 69 186 642 gf180mcu_fd_sc_mcu9t5v0__clkbuf_8
* cell instance $1000 m0 *1 958.72,982.8
X$1000 643 642 196 102 69 94 gf180mcu_fd_sc_mcu9t5v0__mux2_2
* cell instance $1014 r0 *1 1022,1043.28
X$1014 643 642 367 348 72 341 gf180mcu_fd_sc_mcu9t5v0__mux2_2
* cell instance $1016 m0 *1 1018.64,1023.12
X$1016 72 643 276 277 642 309 gf180mcu_fd_sc_mcu9t5v0__or3_2
* cell instance $1018 r0 *1 1073.52,952.56
X$1018 642 72 115 643 134 gf180mcu_fd_sc_mcu9t5v0__and2_2
* cell instance $1059 m0 *1 1076.32,972.72
X$1059 643 642 76 160 gf180mcu_fd_sc_mcu9t5v0__clkinv_2
* cell instance $1066 m0 *1 945.28,972.72
X$1066 643 642 163 176 78 84 gf180mcu_fd_sc_mcu9t5v0__mux2_2
* cell instance $1081 m0 *1 982.8,1073.52
X$1081 643 642 436 409 78 345 gf180mcu_fd_sc_mcu9t5v0__mux2_2
* cell instance $1084 m0 *1 967.12,1073.52
X$1084 643 642 114 78 gf180mcu_fd_sc_mcu9t5v0__buf_4
* cell instance $1087 r0 *1 978.88,1043.28
X$1087 643 408 123 365 346 78 342 343 642 gf180mcu_fd_sc_mcu9t5v0__mux4_2
* cell instance $1091 r0 *1 954.24,962.64
X$1091 643 165 123 120 164 78 126 111 642 gf180mcu_fd_sc_mcu9t5v0__mux4_2
* cell instance $1101 m0 *1 16.8,952.56
X$1101 643 642 97 79 gf180mcu_fd_sc_mcu9t5v0__buf_4
* cell instance $1107 m0 *1 932.4,952.56
X$1107 643 642 79 84 gf180mcu_fd_sc_mcu9t5v0__clkinv_2
* cell instance $1110 r0 *1 874.16,942.48
X$1110 642 101 80 643 93 gf180mcu_fd_sc_mcu9t5v0__xnor2_2
* cell instance $1112 m0 *1 882,962.64
X$1112 643 146 80 123 122 642 gf180mcu_fd_sc_mcu9t5v0__addh_2
* cell instance $1118 m0 *1 874.16,962.64
X$1118 643 642 144 121 80 gf180mcu_fd_sc_mcu9t5v0__nor2_2
* cell instance $1136 r0 *1 899.36,1023.12
X$1136 81 82 229 301 302 642 643 gf180mcu_fd_sc_mcu9t5v0__aoi211_2
* cell instance $1139 m0 *1 896.56,1053.36
X$1139 643 362 360 121 81 359 642 gf180mcu_fd_sc_mcu9t5v0__nor4_4
* cell instance $1142 m0 *1 926.8,1033.2
X$1142 81 82 229 321 324 642 643 gf180mcu_fd_sc_mcu9t5v0__aoi211_2
* cell instance $1147 r0 *1 906.64,952.56
X$1147 104 642 81 105 643 119 gf180mcu_fd_sc_mcu9t5v0__and3_2
* cell instance $1166 r0 *1 899.92,962.64
X$1166 643 642 103 82 gf180mcu_fd_sc_mcu9t5v0__buf_4
* cell instance $1170 m0 *1 912.8,952.56
X$1170 643 120 119 106 83 107 642 gf180mcu_fd_sc_mcu9t5v0__or4_4
* cell instance $1184 r0 *1 1098.72,1013.04
X$1184 643 642 289 287 85 286 gf180mcu_fd_sc_mcu9t5v0__mux2_2
* cell instance $1188 m0 *1 1090.88,1013.04
X$1188 643 642 290 286 85 246 gf180mcu_fd_sc_mcu9t5v0__mux2_2
* cell instance $1191 m0 *1 1021.44,1043.28
X$1191 643 642 348 347 85 264 gf180mcu_fd_sc_mcu9t5v0__mux2_2
* cell instance $1193 r0 *1 1030.4,1043.28
X$1193 643 642 369 318 85 263 gf180mcu_fd_sc_mcu9t5v0__mux2_2
* cell instance $1195 m0 *1 972.16,1043.28
X$1195 643 642 343 204 85 318 gf180mcu_fd_sc_mcu9t5v0__mux2_2
* cell instance $1198 r0 *1 946.96,1023.12
X$1198 643 642 325 110 85 221 gf180mcu_fd_sc_mcu9t5v0__mux2_2
* cell instance $1218 r0 *1 883.68,942.48
X$1218 643 93 85 642 gf180mcu_fd_sc_mcu9t5v0__clkbuf_8
* cell instance $1229 m0 *1 1011.92,992.88
X$1229 643 642 253 88 209 87 gf180mcu_fd_sc_mcu9t5v0__mux2_2
* cell instance $1246 m0 *1 1059.52,1053.36
X$1246 149 150 381 91 643 642 391 gf180mcu_fd_sc_mcu9t5v0__and4_2
* cell instance $1256 r0 *1 1081.36,962.64
X$1256 643 134 642 157 92 142 gf180mcu_fd_sc_mcu9t5v0__aoi21_2
* cell instance $1275 m0 *1 24.64,952.56
X$1275 643 99 94 642 gf180mcu_fd_sc_mcu9t5v0__clkbuf_8
* cell instance $1279 m0 *1 924,962.64
X$1279 643 642 94 108 gf180mcu_fd_sc_mcu9t5v0__clkinv_2
* cell instance $1287 r0 *1 962.64,952.56
X$1287 643 235 642 111 114 112 128 96 126 gf180mcu_fd_sc_mcu9t5v0__mux4_4
* cell instance $1297 r0 *1 2.24,952.56
X$1297 643 98 102 642 gf180mcu_fd_sc_mcu9t5v0__clkbuf_8
* cell instance $1303 r0 *1 16.8,952.56
X$1303 643 100 101 642 gf180mcu_fd_sc_mcu9t5v0__buf_8
* cell instance $1315 r0 *1 887.6,992.88
X$1315 643 642 101 172 gf180mcu_fd_sc_mcu9t5v0__buf_4
* cell instance $1317 r0 *1 866.32,952.56
X$1317 643 642 101 103 gf180mcu_fd_sc_mcu9t5v0__clkinv_8
* cell instance $1335 r0 *1 943.04,972.72
X$1335 643 642 102 176 gf180mcu_fd_sc_mcu9t5v0__clkinv_2
* cell instance $1339 r0 *1 866.32,972.72
X$1339 103 643 143 168 642 192 gf180mcu_fd_sc_mcu9t5v0__or3_2
* cell instance $1343 m0 *1 890.4,972.72
X$1343 103 643 143 146 642 148 gf180mcu_fd_sc_mcu9t5v0__or3_2
* cell instance $1345 r0 *1 890.4,962.64
X$1345 642 145 643 146 147 103 gf180mcu_fd_sc_mcu9t5v0__oai21_2
* cell instance $1353 r0 *1 887.6,952.56
X$1353 643 642 103 104 gf180mcu_fd_sc_mcu9t5v0__buf_4
* cell instance $1375 m0 *1 883.12,1043.28
X$1375 104 256 255 168 643 642 338 gf180mcu_fd_sc_mcu9t5v0__and4_2
* cell instance $1383 r0 *1 907.76,1002.96
X$1383 642 105 643 209 271 171 gf180mcu_fd_sc_mcu9t5v0__oai21_2
* cell instance $1402 m0 *1 967.12,962.64
X$1402 642 127 643 113 126 109 gf180mcu_fd_sc_mcu9t5v0__oai21_2
* cell instance $1404 m0 *1 1018.08,1053.36
X$1404 642 383 643 344 412 109 gf180mcu_fd_sc_mcu9t5v0__oai21_2
* cell instance $1422 m0 *1 1013.04,1053.36
X$1422 643 642 109 383 347 gf180mcu_fd_sc_mcu9t5v0__nand2_2
* cell instance $1425 r0 *1 954.24,1053.36
X$1425 643 642 109 397 287 gf180mcu_fd_sc_mcu9t5v0__nand2_2
* cell instance $1430 r0 *1 949.2,952.56
X$1430 643 642 123 141 109 gf180mcu_fd_sc_mcu9t5v0__nand2_2
* cell instance $1438 r0 *1 16.8,982.8
X$1438 643 200 110 642 gf180mcu_fd_sc_mcu9t5v0__clkbuf_8
* cell instance $1452 m0 *1 898.24,1013.04
X$1452 643 642 229 257 110 gf180mcu_fd_sc_mcu9t5v0__nand2_2
* cell instance $1474 r0 *1 995.68,952.56
X$1474 643 642 129 113 114 130 gf180mcu_fd_sc_mcu9t5v0__mux2_2
* cell instance $1488 r0 *1 912.24,962.64
X$1488 642 643 148 114 147 gf180mcu_fd_sc_mcu9t5v0__nand2_4
* cell instance $1508 m0 *1 929.04,1073.52
X$1508 643 433 128 401 319 114 120 340 642 gf180mcu_fd_sc_mcu9t5v0__mux4_2
* cell instance $1511 r0 *1 937.44,1063.44
X$1511 643 114 250 642 gf180mcu_fd_sc_mcu9t5v0__buf_8
* cell instance $1517 r0 *1 1962.8,952.56
X$1517 643 642 116 115 gf180mcu_fd_sc_mcu9t5v0__buf_4
* cell instance $1540 r0 *1 1014.16,1023.12
X$1540 642 306 643 120 319 308 309 gf180mcu_fd_sc_mcu9t5v0__oai22_2
* cell instance $1558 r0 *1 1010.24,1083.6
X$1558 643 458 642 437 459 435 120 gf180mcu_fd_sc_mcu9t5v0__aoi22_2
* cell instance $1560 r0 *1 866.88,982.8
X$1560 643 121 169 642 168 gf180mcu_fd_sc_mcu9t5v0__or2_2
* cell instance $1579 m0 *1 883.12,1053.36
X$1579 643 642 121 378 255 gf180mcu_fd_sc_mcu9t5v0__nand2_2
* cell instance $1581 r0 *1 906.08,1053.36
X$1581 642 121 255 643 395 gf180mcu_fd_sc_mcu9t5v0__and2_2
* cell instance $1584 r0 *1 884.24,952.56
X$1584 643 642 121 122 gf180mcu_fd_sc_mcu9t5v0__clkinv_2
* cell instance $1586 r0 *1 23.52,1013.04
X$1586 643 299 121 642 gf180mcu_fd_sc_mcu9t5v0__buf_8
* cell instance $1591 m0 *1 1033.2,1053.36
X$1591 642 123 643 392 430 374 gf180mcu_fd_sc_mcu9t5v0__oai21_2
* cell instance $1594 r0 *1 1022,972.72
X$1594 643 642 184 131 123 197 gf180mcu_fd_sc_mcu9t5v0__mux2_2
* cell instance $1615 m0 *1 1021.44,1013.04
X$1615 643 368 153 183 274 123 260 261 642 gf180mcu_fd_sc_mcu9t5v0__mux4_2
* cell instance $1618 r0 *1 917.84,1023.12
X$1618 643 209 123 642 gf180mcu_fd_sc_mcu9t5v0__clkbuf_8
* cell instance $1622 r0 *1 1046.08,982.8
X$1622 642 123 153 643 220 gf180mcu_fd_sc_mcu9t5v0__and2_2
* cell instance $1627 m0 *1 1024.8,992.88
X$1627 643 243 642 124 123 236 153 211 196 gf180mcu_fd_sc_mcu9t5v0__mux4_4
* cell instance $1638 m0 *1 976.08,1083.6