* CDL Netlist generated by OpenROAD

*.BUSDELIMITER [

.SUBCKT parameterized_barrel_rotator data_in[0] data_in[10]
+ data_in[11] data_in[12] data_in[13] data_in[14] data_in[15]
+ data_in[16] data_in[17] data_in[18] data_in[19] data_in[1]
+ data_in[20] data_in[21] data_in[22] data_in[23] data_in[24]
+ data_in[25] data_in[26] data_in[27] data_in[28] data_in[29]
+ data_in[2] data_in[30] data_in[31] data_in[3] data_in[4] data_in[5]
+ data_in[6] data_in[7] data_in[8] data_in[9] data_out[0] data_out[10]
+ data_out[11] data_out[12] data_out[13] data_out[14] data_out[15]
+ data_out[16] data_out[17] data_out[18] data_out[19] data_out[1]
+ data_out[20] data_out[21] data_out[22] data_out[23] data_out[24]
+ data_out[25] data_out[26] data_out[27] data_out[28] data_out[29]
+ data_out[2] data_out[30] data_out[31] data_out[3] data_out[4]
+ data_out[5] data_out[6] data_out[7] data_out[8] data_out[9]
+ direction rotate_amount[0] rotate_amount[1] rotate_amount[2]
+ rotate_amount[3] rotate_amount[4]
X_0501_ net34 _0474_ VDD VSS gf180mcu_fd_sc_mcu9t5v0__inv_4
X_0502_ _0474_ _0475_ VDD VSS gf180mcu_fd_sc_mcu9t5v0__clkbuf_8
X_0503_ _0475_ _0497_ VDD VSS gf180mcu_fd_sc_mcu9t5v0__clkbuf_8
X_0504_ net35 _0498_ VDD VSS gf180mcu_fd_sc_mcu9t5v0__clkinv_2
X_0505_ net33 _0476_ VDD VSS gf180mcu_fd_sc_mcu9t5v0__clkinv_8
X_0506_ net36 _0477_ VDD VSS gf180mcu_fd_sc_mcu9t5v0__buf_4
X_0507_ _0476_ _0499_ _0477_ _0478_ VDD VSS gf180mcu_fd_sc_mcu9t5v0__oai21_2
X_0508_ _0478_ _0479_ VDD VSS gf180mcu_fd_sc_mcu9t5v0__buf_4
X_0509_ _0476_ net36 _0499_ _0480_ VDD VSS gf180mcu_fd_sc_mcu9t5v0__or3_2
X_0510_ _0480_ _0481_ VDD VSS gf180mcu_fd_sc_mcu9t5v0__buf_4
X_0511_ _0499_ _0482_ VDD VSS gf180mcu_fd_sc_mcu9t5v0__inv_4
X_0512_ _0500_ _0483_ VDD VSS gf180mcu_fd_sc_mcu9t5v0__clkbuf_12
X_0513_ _0483_ _0484_ VDD VSS gf180mcu_fd_sc_mcu9t5v0__clkbuf_8
X_0514_ _0484_ _0485_ VDD VSS gf180mcu_fd_sc_mcu9t5v0__clkbuf_8
X_0515_ net34 _0486_ VDD VSS gf180mcu_fd_sc_mcu9t5v0__clkbuf_8
X_0516_ _0486_ _0487_ VDD VSS gf180mcu_fd_sc_mcu9t5v0__clkbuf_8
X_0517_ net38 net37 net35 _0487_ _0488_ VDD VSS gf180mcu_fd_sc_mcu9t5v0__nor4_4
X_0518_ net33 _0489_ VDD VSS gf180mcu_fd_sc_mcu9t5v0__buf_4
X_0519_ _0489_ _0477_ _0490_ VDD VSS gf180mcu_fd_sc_mcu9t5v0__nor2_2
X_0520_ _0482_ _0485_ _0488_ _0490_ _0491_ VDD VSS gf180mcu_fd_sc_mcu9t5v0__oai211_4
X_0521_ _0491_ _0492_ VDD VSS gf180mcu_fd_sc_mcu9t5v0__buf_4
X_0522_ _0479_ _0481_ _0492_ _0493_ VDD VSS gf180mcu_fd_sc_mcu9t5v0__and3_2
X_0523_ _0486_ _0494_ VDD VSS gf180mcu_fd_sc_mcu9t5v0__clkbuf_8
X_0524_ net17 net18 _0494_ _0495_ VDD VSS gf180mcu_fd_sc_mcu9t5v0__mux2_2
X_0525_ _0487_ _0496_ VDD VSS gf180mcu_fd_sc_mcu9t5v0__clkbuf_8
X_0526_ net19 net20 _0496_ _0000_ VDD VSS gf180mcu_fd_sc_mcu9t5v0__mux2_2
X_0527_ net33 _0474_ _0483_ _0001_ VDD VSS gf180mcu_fd_sc_mcu9t5v0__oai21_4
X_0528_ _0489_ _0474_ _0483_ _0002_ VDD VSS gf180mcu_fd_sc_mcu9t5v0__or3_4
X_0529_ _0001_ _0002_ _0003_ VDD VSS gf180mcu_fd_sc_mcu9t5v0__nand2_4
X_0530_ _0003_ _0004_ VDD VSS gf180mcu_fd_sc_mcu9t5v0__clkbuf_8
X_0531_ _0495_ _0000_ _0004_ _0005_ VDD VSS gf180mcu_fd_sc_mcu9t5v0__mux2_2
X_0532_ net21 net24 _0484_ _0006_ VDD VSS gf180mcu_fd_sc_mcu9t5v0__mux2_2
X_0533_ net33 _0500_ _0007_ VDD VSS gf180mcu_fd_sc_mcu9t5v0__xnor2_2
X_0534_ _0007_ _0008_ VDD VSS gf180mcu_fd_sc_mcu9t5v0__clkbuf_8
X_0535_ net22 net25 _0008_ _0009_ VDD VSS gf180mcu_fd_sc_mcu9t5v0__mux2_2
X_0536_ _0494_ _0010_ VDD VSS gf180mcu_fd_sc_mcu9t5v0__buf_4
X_0537_ _0006_ _0009_ _0010_ _0011_ VDD VSS gf180mcu_fd_sc_mcu9t5v0__mux2_2
X_0538_ _0478_ _0480_ _0012_ VDD VSS gf180mcu_fd_sc_mcu9t5v0__nand2_4
X_0539_ _0012_ _0013_ VDD VSS gf180mcu_fd_sc_mcu9t5v0__buf_8
X_0540_ _0493_ _0005_ _0011_ _0013_ _0014_ VDD VSS gf180mcu_fd_sc_mcu9t5v0__aoi22_2
X_0541_ net8 net10 _0004_ _0015_ VDD VSS gf180mcu_fd_sc_mcu9t5v0__mux2_2
X_0542_ _0479_ _0481_ _0016_ VDD VSS gf180mcu_fd_sc_mcu9t5v0__and2_4
X_0543_ _0016_ _0017_ VDD VSS gf180mcu_fd_sc_mcu9t5v0__clkbuf_8
X_0544_ _0497_ _0017_ _0018_ VDD VSS gf180mcu_fd_sc_mcu9t5v0__and2_2
X_0545_ net13 net14 _0496_ _0019_ VDD VSS gf180mcu_fd_sc_mcu9t5v0__mux2_2
X_0546_ net15 net16 _0494_ _0020_ VDD VSS gf180mcu_fd_sc_mcu9t5v0__mux2_2
X_0547_ _0019_ _0020_ _0003_ _0021_ VDD VSS gf180mcu_fd_sc_mcu9t5v0__mux2_2
X_0548_ _0010_ _0022_ VDD VSS gf180mcu_fd_sc_mcu9t5v0__clkbuf_8
X_0549_ _0476_ _0023_ VDD VSS gf180mcu_fd_sc_mcu9t5v0__buf_4
X_0550_ _0023_ _0024_ VDD VSS gf180mcu_fd_sc_mcu9t5v0__buf_4
X_0551_ _0486_ _0025_ VDD VSS gf180mcu_fd_sc_mcu9t5v0__buf_4
X_0552_ _0025_ _0026_ VDD VSS gf180mcu_fd_sc_mcu9t5v0__clkbuf_8
X_0553_ _0500_ _0027_ VDD VSS gf180mcu_fd_sc_mcu9t5v0__inv_4
X_0554_ _0027_ _0028_ VDD VSS gf180mcu_fd_sc_mcu9t5v0__clkbuf_8
X_0555_ net11 _0029_ VDD VSS gf180mcu_fd_sc_mcu9t5v0__clkinv_2
X_0556_ _0024_ _0026_ _0028_ _0029_ _0030_ VDD VSS gf180mcu_fd_sc_mcu9t5v0__aoi211_2
X_0557_ _0476_ _0031_ VDD VSS gf180mcu_fd_sc_mcu9t5v0__buf_4
X_0558_ _0031_ _0032_ VDD VSS gf180mcu_fd_sc_mcu9t5v0__clkbuf_8
X_0559_ net9 _0033_ VDD VSS gf180mcu_fd_sc_mcu9t5v0__clkinv_2
X_0560_ _0032_ _0026_ _0485_ _0033_ _0034_ VDD VSS gf180mcu_fd_sc_mcu9t5v0__aoi211_2
X_0561_ _0027_ _0035_ VDD VSS gf180mcu_fd_sc_mcu9t5v0__buf_4
X_0562_ _0023_ _0494_ _0035_ net11 _0036_ VDD VSS gf180mcu_fd_sc_mcu9t5v0__and4_2
X_0563_ _0483_ _0037_ VDD VSS gf180mcu_fd_sc_mcu9t5v0__clkbuf_8
X_0564_ _0023_ _0494_ _0037_ net9 _0038_ VDD VSS gf180mcu_fd_sc_mcu9t5v0__and4_2
X_0565_ _0030_ _0034_ _0036_ _0038_ _0039_ VDD VSS gf180mcu_fd_sc_mcu9t5v0__or4_2
X_0566_ _0022_ _0016_ _0039_ _0040_ VDD VSS gf180mcu_fd_sc_mcu9t5v0__and3_2
X_0567_ _0015_ _0018_ _0021_ _0013_ _0040_ _0041_ VDD VSS
+ gf180mcu_fd_sc_mcu9t5v0__aoi221_4
X_0568_ net35 _0500_ _0042_ VDD VSS gf180mcu_fd_sc_mcu9t5v0__nor2_2
X_0569_ _0499_ _0483_ _0042_ net36 _0476_ _0043_ VDD VSS gf180mcu_fd_sc_mcu9t5v0__oai221_2
X_0570_ net36 _0499_ _0044_ VDD VSS gf180mcu_fd_sc_mcu9t5v0__nor2_2
X_0571_ _0483_ _0044_ _0476_ net35 _0045_ VDD VSS gf180mcu_fd_sc_mcu9t5v0__oai211_2
X_0572_ _0476_ _0486_ _0046_ VDD VSS gf180mcu_fd_sc_mcu9t5v0__nand2_2
X_0573_ net35 net34 _0047_ VDD VSS gf180mcu_fd_sc_mcu9t5v0__or2_2
X_0574_ _0476_ net36 _0047_ _0048_ VDD VSS gf180mcu_fd_sc_mcu9t5v0__or3_2
X_0575_ _0043_ _0045_ _0046_ _0048_ _0049_ VDD VSS gf180mcu_fd_sc_mcu9t5v0__and4_2
X_0576_ net37 _0049_ _0050_ VDD VSS gf180mcu_fd_sc_mcu9t5v0__xnor2_2
X_0577_ _0050_ _0051_ VDD VSS gf180mcu_fd_sc_mcu9t5v0__clkbuf_8
X_0578_ _0051_ _0052_ VDD VSS gf180mcu_fd_sc_mcu9t5v0__clkbuf_8
X_0579_ _0014_ _0041_ _0052_ _0053_ VDD VSS gf180mcu_fd_sc_mcu9t5v0__mux2_2
X_0580_ _0489_ _0054_ VDD VSS gf180mcu_fd_sc_mcu9t5v0__buf_4
X_0581_ net37 _0477_ _0482_ _0055_ VDD VSS gf180mcu_fd_sc_mcu9t5v0__or3_2
X_0582_ net36 _0056_ VDD VSS gf180mcu_fd_sc_mcu9t5v0__clkinv_4
X_0583_ _0499_ _0057_ VDD VSS gf180mcu_fd_sc_mcu9t5v0__buf_4
X_0584_ _0031_ _0056_ _0057_ _0047_ _0058_ VDD VSS gf180mcu_fd_sc_mcu9t5v0__and4_2
X_0585_ _0054_ _0055_ _0058_ _0059_ VDD VSS gf180mcu_fd_sc_mcu9t5v0__aoi21_2
X_0586_ net38 _0059_ _0060_ VDD VSS gf180mcu_fd_sc_mcu9t5v0__xor2_2
X_0587_ _0060_ _0061_ VDD VSS gf180mcu_fd_sc_mcu9t5v0__clkbuf_8
X_0588_ _0061_ _0062_ VDD VSS gf180mcu_fd_sc_mcu9t5v0__buf_8
X_0589_ _0054_ _0474_ _0485_ net3 _0063_ VDD VSS gf180mcu_fd_sc_mcu9t5v0__oai211_2
X_0590_ _0054_ _0474_ _0035_ net32 _0064_ VDD VSS gf180mcu_fd_sc_mcu9t5v0__oai211_2
X_0591_ _0483_ _0065_ VDD VSS gf180mcu_fd_sc_mcu9t5v0__clkbuf_8
X_0592_ net3 _0066_ VDD VSS gf180mcu_fd_sc_mcu9t5v0__clkinv_2
X_0593_ _0489_ _0474_ _0065_ _0066_ _0067_ VDD VSS gf180mcu_fd_sc_mcu9t5v0__or4_2
X_0594_ net32 _0068_ VDD VSS gf180mcu_fd_sc_mcu9t5v0__clkinv_2
X_0595_ _0489_ _0474_ _0027_ _0068_ _0069_ VDD VSS gf180mcu_fd_sc_mcu9t5v0__or4_2
X_0596_ _0063_ _0064_ _0067_ _0069_ _0070_ VDD VSS gf180mcu_fd_sc_mcu9t5v0__and4_2
X_0597_ _0037_ net7 _0071_ VDD VSS gf180mcu_fd_sc_mcu9t5v0__nand2_2
X_0598_ _0032_ _0496_ _0071_ _0072_ VDD VSS gf180mcu_fd_sc_mcu9t5v0__aoi21_2
X_0599_ net5 _0073_ VDD VSS gf180mcu_fd_sc_mcu9t5v0__clkinv_2
X_0600_ _0032_ _0494_ _0037_ _0073_ _0074_ VDD VSS gf180mcu_fd_sc_mcu9t5v0__aoi211_4
X_0601_ _0023_ _0025_ _0035_ net7 _0075_ VDD VSS gf180mcu_fd_sc_mcu9t5v0__and4_2
X_0602_ _0023_ _0025_ _0065_ net5 _0076_ VDD VSS gf180mcu_fd_sc_mcu9t5v0__and4_2
X_0603_ _0072_ _0074_ _0075_ _0076_ _0077_ VDD VSS gf180mcu_fd_sc_mcu9t5v0__nor4_4
X_0604_ _0070_ _0077_ _0012_ _0078_ VDD VSS gf180mcu_fd_sc_mcu9t5v0__mux2_2
X_0605_ net31 _0079_ VDD VSS gf180mcu_fd_sc_mcu9t5v0__clkinv_2
X_0606_ net2 _0080_ VDD VSS gf180mcu_fd_sc_mcu9t5v0__clkinv_2
X_0607_ net4 _0081_ VDD VSS gf180mcu_fd_sc_mcu9t5v0__clkinv_2
X_0608_ net6 _0082_ VDD VSS gf180mcu_fd_sc_mcu9t5v0__clkinv_2
X_0609_ _0079_ _0080_ _0081_ _0082_ _0003_ _0012_ _0083_ VDD
+ VSS gf180mcu_fd_sc_mcu9t5v0__mux4_2
X_0610_ _0078_ _0083_ _0497_ _0084_ VDD VSS gf180mcu_fd_sc_mcu9t5v0__mux2_2
X_0611_ _0489_ _0482_ _0056_ _0085_ VDD VSS gf180mcu_fd_sc_mcu9t5v0__aoi21_2
X_0612_ _0489_ _0056_ _0482_ _0086_ VDD VSS gf180mcu_fd_sc_mcu9t5v0__and3_2
X_0613_ _0475_ _0085_ _0086_ _0087_ VDD VSS gf180mcu_fd_sc_mcu9t5v0__or3_2
X_0614_ _0037_ net26 _0088_ VDD VSS gf180mcu_fd_sc_mcu9t5v0__nand2_2
X_0615_ _0032_ _0496_ _0088_ _0089_ VDD VSS gf180mcu_fd_sc_mcu9t5v0__aoi21_2
X_0616_ net12 _0090_ VDD VSS gf180mcu_fd_sc_mcu9t5v0__inv_2
X_0617_ _0032_ _0496_ _0485_ _0090_ _0091_ VDD VSS gf180mcu_fd_sc_mcu9t5v0__aoi211_4
X_0618_ _0023_ _0494_ _0035_ net26 _0092_ VDD VSS gf180mcu_fd_sc_mcu9t5v0__and4_2
X_0619_ _0023_ _0025_ _0037_ net12 _0093_ VDD VSS gf180mcu_fd_sc_mcu9t5v0__and4_2
X_0620_ _0089_ _0091_ _0092_ _0093_ _0094_ VDD VSS gf180mcu_fd_sc_mcu9t5v0__nor4_4
X_0621_ _0483_ net30 _0095_ VDD VSS gf180mcu_fd_sc_mcu9t5v0__and2_2
X_0622_ _0054_ _0475_ _0095_ _0096_ VDD VSS gf180mcu_fd_sc_mcu9t5v0__oai21_2
X_0623_ _0054_ _0474_ _0035_ net28 _0097_ VDD VSS gf180mcu_fd_sc_mcu9t5v0__oai211_2
X_0624_ net30 _0098_ VDD VSS gf180mcu_fd_sc_mcu9t5v0__clkinv_2
X_0625_ _0489_ _0474_ _0037_ _0098_ _0099_ VDD VSS gf180mcu_fd_sc_mcu9t5v0__or4_2
X_0626_ _0484_ net28 _0100_ VDD VSS gf180mcu_fd_sc_mcu9t5v0__nand2_2
X_0627_ _0054_ _0474_ _0100_ _0101_ VDD VSS gf180mcu_fd_sc_mcu9t5v0__or3_2
X_0628_ _0096_ _0097_ _0099_ _0101_ _0102_ VDD VSS gf180mcu_fd_sc_mcu9t5v0__and4_2
X_0629_ _0085_ _0103_ VDD VSS gf180mcu_fd_sc_mcu9t5v0__buf_4
X_0630_ _0086_ _0104_ VDD VSS gf180mcu_fd_sc_mcu9t5v0__buf_4
X_0631_ _0496_ _0105_ VDD VSS gf180mcu_fd_sc_mcu9t5v0__clkbuf_8
X_0632_ _0103_ _0104_ _0105_ _0106_ VDD VSS gf180mcu_fd_sc_mcu9t5v0__oai21_2
X_0633_ _0087_ _0094_ _0102_ _0106_ _0107_ VDD VSS gf180mcu_fd_sc_mcu9t5v0__oai22_2
X_0634_ net29 _0108_ VDD VSS gf180mcu_fd_sc_mcu9t5v0__clkinv_2
X_0635_ _0023_ _0494_ _0035_ _0108_ _0109_ VDD VSS gf180mcu_fd_sc_mcu9t5v0__aoi211_4
X_0636_ net27 _0110_ VDD VSS gf180mcu_fd_sc_mcu9t5v0__clkinv_2
X_0637_ _0023_ _0494_ _0065_ _0110_ _0111_ VDD VSS gf180mcu_fd_sc_mcu9t5v0__aoi211_4
X_0638_ _0476_ _0112_ VDD VSS gf180mcu_fd_sc_mcu9t5v0__buf_4
X_0639_ _0112_ _0025_ _0027_ net29 _0113_ VDD VSS gf180mcu_fd_sc_mcu9t5v0__and4_2
X_0640_ _0112_ _0487_ _0065_ net27 _0114_ VDD VSS gf180mcu_fd_sc_mcu9t5v0__and4_2
X_0641_ _0109_ _0111_ _0113_ _0114_ _0115_ VDD VSS gf180mcu_fd_sc_mcu9t5v0__nor4_4
X_0642_ net1 net23 _0037_ _0116_ VDD VSS gf180mcu_fd_sc_mcu9t5v0__mux2_2
X_0643_ _0116_ _0117_ VDD VSS gf180mcu_fd_sc_mcu9t5v0__clkinv_2
X_0644_ _0479_ _0481_ _0117_ _0118_ VDD VSS gf180mcu_fd_sc_mcu9t5v0__and3_2
X_0645_ _0013_ _0115_ _0118_ _0022_ _0119_ VDD VSS gf180mcu_fd_sc_mcu9t5v0__aoi211_4
X_0646_ _0107_ _0119_ _0120_ VDD VSS gf180mcu_fd_sc_mcu9t5v0__nor2_2
X_0647_ _0051_ _0121_ VDD VSS gf180mcu_fd_sc_mcu9t5v0__clkbuf_8
X_0648_ _0084_ _0120_ _0121_ _0122_ VDD VSS gf180mcu_fd_sc_mcu9t5v0__mux2_2
X_0649_ _0492_ _0061_ _0123_ VDD VSS gf180mcu_fd_sc_mcu9t5v0__nand2_4
X_0650_ _0053_ _0062_ _0122_ _0123_ net39 VDD VSS gf180mcu_fd_sc_mcu9t5v0__oai22_4
X_0651_ _0024_ _0010_ _0028_ _0124_ VDD VSS gf180mcu_fd_sc_mcu9t5v0__aoi21_2
X_0652_ _0024_ _0010_ _0028_ _0125_ VDD VSS gf180mcu_fd_sc_mcu9t5v0__and3_2
X_0653_ _0124_ _0125_ _0000_ _0126_ VDD VSS gf180mcu_fd_sc_mcu9t5v0__nor3_4
X_0654_ net21 net22 _0026_ _0127_ VDD VSS gf180mcu_fd_sc_mcu9t5v0__mux2_2
X_0655_ _0001_ _0002_ _0127_ _0128_ VDD VSS gf180mcu_fd_sc_mcu9t5v0__aoi21_2
X_0656_ _0126_ _0128_ _0129_ VDD VSS gf180mcu_fd_sc_mcu9t5v0__nor2_2
X_0657_ _0013_ _0129_ _0130_ VDD VSS gf180mcu_fd_sc_mcu9t5v0__nor2_4
X_0658_ net38 net37 _0477_ _0131_ VDD VSS gf180mcu_fd_sc_mcu9t5v0__or3_2
X_0659_ _0489_ _0483_ _0132_ VDD VSS gf180mcu_fd_sc_mcu9t5v0__nor2_4
X_0660_ _0057_ _0132_ _0133_ VDD VSS gf180mcu_fd_sc_mcu9t5v0__and2_2
X_0661_ net35 _0057_ _0134_ VDD VSS gf180mcu_fd_sc_mcu9t5v0__nand2_2
X_0662_ _0057_ _0134_ _0056_ _0135_ VDD VSS gf180mcu_fd_sc_mcu9t5v0__mux2_2
X_0663_ _0487_ _0065_ _0136_ VDD VSS gf180mcu_fd_sc_mcu9t5v0__nor2_4
X_0664_ _0032_ net38 net37 _0136_ _0137_ VDD VSS gf180mcu_fd_sc_mcu9t5v0__nand4_2
X_0665_ _0047_ _0131_ _0133_ _0135_ _0137_ _0138_ VDD VSS
+ gf180mcu_fd_sc_mcu9t5v0__oai32_4
X_0666_ net33 _0483_ _0139_ VDD VSS gf180mcu_fd_sc_mcu9t5v0__xor2_4
X_0667_ net25 _0139_ _0140_ VDD VSS gf180mcu_fd_sc_mcu9t5v0__nand2_2
X_0668_ _0028_ net24 _0141_ VDD VSS gf180mcu_fd_sc_mcu9t5v0__nand2_2
X_0669_ _0140_ _0141_ _0475_ _0142_ VDD VSS gf180mcu_fd_sc_mcu9t5v0__mux2_2
X_0670_ net38 net37 net35 _0486_ _0143_ VDD VSS gf180mcu_fd_sc_mcu9t5v0__or4_2
X_0671_ _0489_ _0477_ _0144_ VDD VSS gf180mcu_fd_sc_mcu9t5v0__or2_2
X_0672_ _0057_ _0035_ _0143_ _0144_ _0145_ VDD VSS gf180mcu_fd_sc_mcu9t5v0__aoi211_4
X_0673_ _0013_ _0142_ _0145_ _0146_ VDD VSS gf180mcu_fd_sc_mcu9t5v0__aoi21_2
X_0674_ net12 net25 _0139_ _0147_ VDD VSS gf180mcu_fd_sc_mcu9t5v0__mux2_2
X_0675_ net24 net1 _0065_ _0148_ VDD VSS gf180mcu_fd_sc_mcu9t5v0__mux2_2
X_0676_ _0026_ _0148_ _0149_ VDD VSS gf180mcu_fd_sc_mcu9t5v0__or2_2
X_0677_ _0475_ _0147_ _0149_ _0150_ VDD VSS gf180mcu_fd_sc_mcu9t5v0__oai21_2
X_0678_ _0013_ _0150_ _0138_ _0151_ VDD VSS gf180mcu_fd_sc_mcu9t5v0__aoi21_2
X_0679_ _0138_ _0146_ _0151_ _0051_ _0152_ VDD VSS gf180mcu_fd_sc_mcu9t5v0__aoi22_2
X_0680_ net37 _0049_ _0153_ VDD VSS gf180mcu_fd_sc_mcu9t5v0__xor2_2
X_0681_ _0153_ _0154_ VDD VSS gf180mcu_fd_sc_mcu9t5v0__clkbuf_8
X_0682_ _0492_ _0155_ VDD VSS gf180mcu_fd_sc_mcu9t5v0__buf_4
X_0683_ _0484_ net27 _0156_ VDD VSS gf180mcu_fd_sc_mcu9t5v0__nand2_2
X_0684_ _0112_ _0025_ _0156_ _0157_ VDD VSS gf180mcu_fd_sc_mcu9t5v0__aoi21_2
X_0685_ net23 _0158_ VDD VSS gf180mcu_fd_sc_mcu9t5v0__clkinv_2
X_0686_ _0112_ _0487_ _0484_ _0158_ _0159_ VDD VSS gf180mcu_fd_sc_mcu9t5v0__aoi211_2
X_0687_ _0031_ _0487_ _0027_ net27 _0160_ VDD VSS gf180mcu_fd_sc_mcu9t5v0__and4_2
X_0688_ _0031_ _0486_ _0484_ net23 _0161_ VDD VSS gf180mcu_fd_sc_mcu9t5v0__and4_2
X_0689_ _0157_ _0159_ _0160_ _0161_ _0162_ VDD VSS gf180mcu_fd_sc_mcu9t5v0__or4_2
X_0690_ _0484_ net31 _0163_ VDD VSS gf180mcu_fd_sc_mcu9t5v0__nand2_2
X_0691_ _0112_ _0025_ _0163_ _0164_ VDD VSS gf180mcu_fd_sc_mcu9t5v0__aoi21_2
X_0692_ _0112_ _0025_ _0065_ _0108_ _0165_ VDD VSS gf180mcu_fd_sc_mcu9t5v0__aoi211_2
X_0693_ _0031_ _0487_ _0027_ net31 _0166_ VDD VSS gf180mcu_fd_sc_mcu9t5v0__and4_2
X_0694_ _0031_ _0486_ _0484_ net29 _0167_ VDD VSS gf180mcu_fd_sc_mcu9t5v0__and4_2
X_0695_ _0164_ _0165_ _0166_ _0167_ _0168_ VDD VSS gf180mcu_fd_sc_mcu9t5v0__or4_2
X_0696_ _0112_ _0025_ _0100_ _0169_ VDD VSS gf180mcu_fd_sc_mcu9t5v0__aoi21_2
X_0697_ net26 _0170_ VDD VSS gf180mcu_fd_sc_mcu9t5v0__clkinv_2
X_0698_ _0112_ _0487_ _0484_ _0170_ _0171_ VDD VSS gf180mcu_fd_sc_mcu9t5v0__aoi211_2
X_0699_ _0031_ _0486_ _0027_ net28 _0172_ VDD VSS gf180mcu_fd_sc_mcu9t5v0__and4_2
X_0700_ _0031_ _0486_ _0484_ net26 _0173_ VDD VSS gf180mcu_fd_sc_mcu9t5v0__and4_2
X_0701_ _0169_ _0171_ _0172_ _0173_ _0174_ VDD VSS gf180mcu_fd_sc_mcu9t5v0__or4_2
X_0702_ _0112_ _0025_ _0027_ _0068_ _0175_ VDD VSS gf180mcu_fd_sc_mcu9t5v0__aoi211_2
X_0703_ _0112_ _0487_ _0065_ _0098_ _0176_ VDD VSS gf180mcu_fd_sc_mcu9t5v0__aoi211_2
X_0704_ _0031_ _0486_ _0027_ net32 _0177_ VDD VSS gf180mcu_fd_sc_mcu9t5v0__and4_2
X_0705_ _0031_ _0487_ _0095_ _0178_ VDD VSS gf180mcu_fd_sc_mcu9t5v0__and3_2
X_0706_ _0175_ _0176_ _0177_ _0178_ _0179_ VDD VSS gf180mcu_fd_sc_mcu9t5v0__or4_4
X_0707_ _0162_ _0168_ _0174_ _0179_ _0012_ _0105_ _0180_ VDD
+ VSS gf180mcu_fd_sc_mcu9t5v0__mux4_2
X_0708_ _0154_ _0155_ _0180_ _0181_ VDD VSS gf180mcu_fd_sc_mcu9t5v0__nand3_2
X_0709_ _0130_ _0152_ _0181_ _0182_ VDD VSS gf180mcu_fd_sc_mcu9t5v0__oai21_2
X_0710_ _0154_ _0183_ VDD VSS gf180mcu_fd_sc_mcu9t5v0__buf_8
X_0711_ _0495_ _0184_ VDD VSS gf180mcu_fd_sc_mcu9t5v0__clkinv_2
X_0712_ _0479_ _0481_ _0184_ _0185_ VDD VSS gf180mcu_fd_sc_mcu9t5v0__aoi21_4
X_0713_ _0001_ _0002_ _0020_ _0186_ VDD VSS gf180mcu_fd_sc_mcu9t5v0__and3_2
X_0714_ net11 net14 _0008_ _0187_ VDD VSS gf180mcu_fd_sc_mcu9t5v0__mux2_2
X_0715_ _0065_ _0188_ VDD VSS gf180mcu_fd_sc_mcu9t5v0__buf_4
X_0716_ net10 _0189_ VDD VSS gf180mcu_fd_sc_mcu9t5v0__clkinv_2
X_0717_ _0037_ net13 _0190_ VDD VSS gf180mcu_fd_sc_mcu9t5v0__nand2_2
X_0718_ _0188_ _0189_ _0190_ _0191_ VDD VSS gf180mcu_fd_sc_mcu9t5v0__oai21_2
X_0719_ _0187_ _0191_ _0475_ _0192_ VDD VSS gf180mcu_fd_sc_mcu9t5v0__mux2_2
X_0720_ _0186_ _0192_ _0016_ _0193_ VDD VSS gf180mcu_fd_sc_mcu9t5v0__mux2_2
X_0721_ _0004_ _0185_ _0193_ _0492_ _0194_ VDD VSS gf180mcu_fd_sc_mcu9t5v0__aoi22_4
X_0722_ _0035_ net2 _0195_ VDD VSS gf180mcu_fd_sc_mcu9t5v0__nand2_2
X_0723_ _0028_ _0081_ _0195_ _0196_ VDD VSS gf180mcu_fd_sc_mcu9t5v0__oai21_2
X_0724_ _0485_ net8 _0197_ VDD VSS gf180mcu_fd_sc_mcu9t5v0__nand2_2
X_0725_ _0188_ _0082_ _0197_ _0198_ VDD VSS gf180mcu_fd_sc_mcu9t5v0__oai21_2
X_0726_ net3 net5 _0008_ _0199_ VDD VSS gf180mcu_fd_sc_mcu9t5v0__mux2_2
X_0727_ net7 net9 _0008_ _0200_ VDD VSS gf180mcu_fd_sc_mcu9t5v0__mux2_2
X_0728_ _0196_ _0198_ _0199_ _0200_ _0012_ _0105_ _0201_ VDD
+ VSS gf180mcu_fd_sc_mcu9t5v0__mux4_4
X_0729_ _0492_ _0201_ _0154_ _0202_ VDD VSS gf180mcu_fd_sc_mcu9t5v0__aoi21_2
X_0730_ _0183_ _0194_ _0202_ _0203_ VDD VSS gf180mcu_fd_sc_mcu9t5v0__aoi21_2
X_0731_ _0182_ _0203_ _0061_ net40 VDD VSS gf180mcu_fd_sc_mcu9t5v0__mux2_4
X_0732_ _0010_ _0085_ _0086_ _0204_ VDD VSS gf180mcu_fd_sc_mcu9t5v0__or3_2
X_0733_ _0103_ _0104_ _0475_ _0205_ VDD VSS gf180mcu_fd_sc_mcu9t5v0__oai21_2
X_0734_ _0204_ _0174_ _0179_ _0205_ _0206_ VDD VSS gf180mcu_fd_sc_mcu9t5v0__oai22_2
X_0735_ _0188_ net2 _0207_ VDD VSS gf180mcu_fd_sc_mcu9t5v0__nand2_2
X_0736_ _0028_ net31 _0208_ VDD VSS gf180mcu_fd_sc_mcu9t5v0__nand2_2
X_0737_ _0024_ _0010_ _0207_ _0208_ _0209_ VDD VSS gf180mcu_fd_sc_mcu9t5v0__aoi22_2
X_0738_ _0195_ _0163_ _0046_ _0210_ VDD VSS gf180mcu_fd_sc_mcu9t5v0__aoi21_4
X_0739_ _0109_ _0111_ _0113_ _0114_ _0211_ VDD VSS gf180mcu_fd_sc_mcu9t5v0__or4_2
X_0740_ _0106_ _0209_ _0210_ _0211_ _0087_ _0212_ VDD VSS
+ gf180mcu_fd_sc_mcu9t5v0__oai32_2
X_0741_ _0145_ _0206_ _0212_ _0213_ VDD VSS gf180mcu_fd_sc_mcu9t5v0__nor3_2
X_0742_ _0028_ net25 _0214_ VDD VSS gf180mcu_fd_sc_mcu9t5v0__nand2_2
X_0743_ _0028_ _0090_ _0214_ _0215_ VDD VSS gf180mcu_fd_sc_mcu9t5v0__oai21_2
X_0744_ net20 net22 _0485_ _0216_ VDD VSS gf180mcu_fd_sc_mcu9t5v0__mux2_2
X_0745_ _0103_ _0104_ _0216_ _0217_ VDD VSS gf180mcu_fd_sc_mcu9t5v0__or3_2
X_0746_ _0475_ _0218_ VDD VSS gf180mcu_fd_sc_mcu9t5v0__clkbuf_8
X_0747_ _0017_ _0215_ _0217_ _0218_ _0219_ VDD VSS gf180mcu_fd_sc_mcu9t5v0__oai211_4
X_0748_ _0054_ _0477_ _0482_ _0006_ _0220_ VDD VSS gf180mcu_fd_sc_mcu9t5v0__and4_2
X_0749_ _0054_ _0056_ _0057_ _0006_ _0221_ VDD VSS gf180mcu_fd_sc_mcu9t5v0__and4_2
X_0750_ net24 net21 _0065_ _0222_ VDD VSS gf180mcu_fd_sc_mcu9t5v0__mux2_2
X_0751_ _0490_ _0222_ _0223_ VDD VSS gf180mcu_fd_sc_mcu9t5v0__and2_2
X_0752_ _0220_ _0221_ _0223_ _0105_ _0224_ VDD VSS gf180mcu_fd_sc_mcu9t5v0__oai31_4
X_0753_ net1 net23 _0008_ _0225_ VDD VSS gf180mcu_fd_sc_mcu9t5v0__mux2_2
X_0754_ _0103_ _0104_ _0225_ _0105_ _0226_ VDD VSS gf180mcu_fd_sc_mcu9t5v0__oai211_2
X_0755_ _0224_ _0226_ _0227_ VDD VSS gf180mcu_fd_sc_mcu9t5v0__and2_2
X_0756_ _0154_ _0228_ VDD VSS gf180mcu_fd_sc_mcu9t5v0__clkbuf_8
X_0757_ _0219_ _0227_ _0228_ _0229_ VDD VSS gf180mcu_fd_sc_mcu9t5v0__aoi21_2
X_0758_ _0183_ _0213_ _0229_ _0138_ _0230_ VDD VSS gf180mcu_fd_sc_mcu9t5v0__aoi211_4
X_0759_ _0023_ net38 net37 _0136_ _0231_ VDD VSS gf180mcu_fd_sc_mcu9t5v0__and4_2
X_0760_ net35 _0057_ _0232_ VDD VSS gf180mcu_fd_sc_mcu9t5v0__and2_2
X_0761_ _0482_ _0232_ _0056_ _0233_ VDD VSS gf180mcu_fd_sc_mcu9t5v0__mux2_2
X_0762_ _0057_ _0132_ _0131_ _0047_ _0234_ VDD VSS gf180mcu_fd_sc_mcu9t5v0__aoi211_2
X_0763_ _0231_ _0233_ _0234_ _0235_ VDD VSS gf180mcu_fd_sc_mcu9t5v0__aoi21_2
X_0764_ _0235_ _0236_ VDD VSS gf180mcu_fd_sc_mcu9t5v0__clkbuf_8
X_0765_ _0479_ _0481_ _0216_ _0237_ VDD VSS gf180mcu_fd_sc_mcu9t5v0__and3_2
X_0766_ _0479_ _0481_ _0214_ _0238_ VDD VSS gf180mcu_fd_sc_mcu9t5v0__aoi21_2
X_0767_ _0237_ _0238_ _0497_ _0239_ VDD VSS gf180mcu_fd_sc_mcu9t5v0__oai21_2
X_0768_ _0224_ _0239_ _0228_ _0240_ VDD VSS gf180mcu_fd_sc_mcu9t5v0__aoi21_2
X_0769_ _0024_ _0056_ _0482_ _0488_ _0241_ VDD VSS gf180mcu_fd_sc_mcu9t5v0__and4_2
X_0770_ _0241_ _0242_ VDD VSS gf180mcu_fd_sc_mcu9t5v0__buf_4
X_0771_ net38 _0059_ _0243_ VDD VSS gf180mcu_fd_sc_mcu9t5v0__xnor2_2
X_0772_ _0243_ _0244_ VDD VSS gf180mcu_fd_sc_mcu9t5v0__buf_4
X_0773_ _0244_ _0245_ VDD VSS gf180mcu_fd_sc_mcu9t5v0__buf_8
X_0774_ _0236_ _0240_ _0242_ _0245_ _0246_ VDD VSS gf180mcu_fd_sc_mcu9t5v0__oai31_2
X_0775_ _0012_ _0247_ VDD VSS gf180mcu_fd_sc_mcu9t5v0__buf_4
X_0776_ _0218_ _0188_ _0248_ VDD VSS gf180mcu_fd_sc_mcu9t5v0__nand2_2
X_0777_ net5 _0479_ _0481_ _0249_ VDD VSS gf180mcu_fd_sc_mcu9t5v0__and3_2
X_0778_ net9 _0247_ _0248_ _0249_ _0250_ VDD VSS gf180mcu_fd_sc_mcu9t5v0__aoi211_2
X_0779_ net4 _0479_ _0481_ _0251_ VDD VSS gf180mcu_fd_sc_mcu9t5v0__and3_2
X_0780_ _0105_ _0139_ _0252_ VDD VSS gf180mcu_fd_sc_mcu9t5v0__nand2_2
X_0781_ net8 _0247_ _0251_ _0252_ _0253_ VDD VSS gf180mcu_fd_sc_mcu9t5v0__aoi211_2
X_0782_ net6 net10 _0477_ _0254_ VDD VSS gf180mcu_fd_sc_mcu9t5v0__mux2_2
X_0783_ _0054_ _0057_ _0188_ _0255_ VDD VSS gf180mcu_fd_sc_mcu9t5v0__and3_2
X_0784_ _0132_ _0255_ _0105_ _0256_ VDD VSS gf180mcu_fd_sc_mcu9t5v0__oai21_2
X_0785_ net10 net6 _0477_ _0257_ VDD VSS gf180mcu_fd_sc_mcu9t5v0__mux2_2
X_0786_ _0024_ _0475_ _0057_ _0028_ _0258_ VDD VSS gf180mcu_fd_sc_mcu9t5v0__or4_2
X_0787_ _0254_ _0256_ _0257_ _0258_ _0259_ VDD VSS gf180mcu_fd_sc_mcu9t5v0__oai22_2
X_0788_ _0066_ _0085_ _0086_ _0260_ VDD VSS gf180mcu_fd_sc_mcu9t5v0__or3_2
X_0789_ _0103_ _0104_ net7 _0261_ VDD VSS gf180mcu_fd_sc_mcu9t5v0__oai21_2
X_0790_ _0136_ _0260_ _0261_ _0262_ VDD VSS gf180mcu_fd_sc_mcu9t5v0__and3_2
X_0791_ _0250_ _0253_ _0259_ _0262_ _0263_ VDD VSS gf180mcu_fd_sc_mcu9t5v0__or4_2
X_0792_ net16 net17 _0496_ _0264_ VDD VSS gf180mcu_fd_sc_mcu9t5v0__mux2_2
X_0793_ net18 net19 _0026_ _0265_ VDD VSS gf180mcu_fd_sc_mcu9t5v0__mux2_2
X_0794_ net11 net13 _0026_ _0266_ VDD VSS gf180mcu_fd_sc_mcu9t5v0__mux2_2
X_0795_ net14 net15 _0026_ _0267_ VDD VSS gf180mcu_fd_sc_mcu9t5v0__mux2_2
X_0796_ _0264_ _0265_ _0266_ _0267_ _0004_ _0016_ _0268_ VDD
+ VSS gf180mcu_fd_sc_mcu9t5v0__mux4_4
X_0797_ _0155_ _0268_ _0269_ VDD VSS gf180mcu_fd_sc_mcu9t5v0__nand2_2
X_0798_ _0263_ _0269_ _0228_ _0270_ VDD VSS gf180mcu_fd_sc_mcu9t5v0__mux2_2
X_0799_ _0230_ _0246_ _0270_ _0245_ net41 VDD VSS gf180mcu_fd_sc_mcu9t5v0__oai22_4
X_0800_ _0001_ _0002_ _0271_ VDD VSS gf180mcu_fd_sc_mcu9t5v0__and2_2
X_0801_ _0479_ _0481_ _0491_ _0019_ _0272_ VDD VSS gf180mcu_fd_sc_mcu9t5v0__and4_2
X_0802_ _0185_ _0272_ _0273_ VDD VSS gf180mcu_fd_sc_mcu9t5v0__or2_2
X_0803_ _0000_ _0020_ _0016_ _0274_ VDD VSS gf180mcu_fd_sc_mcu9t5v0__mux2_2
X_0804_ _0492_ _0004_ _0275_ VDD VSS gf180mcu_fd_sc_mcu9t5v0__and2_2
X_0805_ _0271_ _0273_ _0274_ _0275_ _0276_ VDD VSS gf180mcu_fd_sc_mcu9t5v0__aoi22_2
X_0806_ _0033_ _0029_ _0003_ _0277_ VDD VSS gf180mcu_fd_sc_mcu9t5v0__mux2_2
X_0807_ net8 _0278_ VDD VSS gf180mcu_fd_sc_mcu9t5v0__clkinv_2
X_0808_ _0278_ _0189_ _0003_ _0279_ VDD VSS gf180mcu_fd_sc_mcu9t5v0__mux2_2
X_0809_ _0081_ _0082_ _0003_ _0280_ VDD VSS gf180mcu_fd_sc_mcu9t5v0__mux2_2
X_0810_ _0277_ _0279_ _0077_ _0280_ _0497_ _0017_ _0281_ VDD
+ VSS gf180mcu_fd_sc_mcu9t5v0__mux4_2
X_0811_ _0276_ _0281_ _0052_ _0282_ VDD VSS gf180mcu_fd_sc_mcu9t5v0__mux2_2
X_0812_ _0244_ _0236_ _0283_ VDD VSS gf180mcu_fd_sc_mcu9t5v0__nand2_4
X_0813_ _0283_ _0284_ VDD VSS gf180mcu_fd_sc_mcu9t5v0__clkbuf_12
X_0814_ _0218_ _0117_ _0285_ VDD VSS gf180mcu_fd_sc_mcu9t5v0__and2_2
X_0815_ _0022_ _0094_ _0285_ _0017_ _0286_ VDD VSS gf180mcu_fd_sc_mcu9t5v0__aoi211_4
X_0816_ _0493_ _0011_ _0287_ VDD VSS gf180mcu_fd_sc_mcu9t5v0__and2_2
X_0817_ _0286_ _0287_ _0288_ VDD VSS gf180mcu_fd_sc_mcu9t5v0__or2_2
X_0818_ net32 net3 _0003_ _0289_ VDD VSS gf180mcu_fd_sc_mcu9t5v0__mux2_2
X_0819_ _0209_ _0210_ _0290_ VDD VSS gf180mcu_fd_sc_mcu9t5v0__or2_2
X_0820_ net28 net30 _0003_ _0291_ VDD VSS gf180mcu_fd_sc_mcu9t5v0__mux2_2
X_0821_ _0289_ _0290_ _0291_ _0211_ _0497_ _0017_ _0292_ VDD
+ VSS gf180mcu_fd_sc_mcu9t5v0__mux4_4
X_0822_ _0154_ _0492_ _0293_ VDD VSS gf180mcu_fd_sc_mcu9t5v0__and2_2
X_0823_ _0052_ _0288_ _0292_ _0293_ _0294_ VDD VSS gf180mcu_fd_sc_mcu9t5v0__aoi22_4
X_0824_ _0245_ _0282_ _0284_ _0294_ net42 VDD VSS gf180mcu_fd_sc_mcu9t5v0__oai22_4
X_0825_ _0010_ net15 _0295_ VDD VSS gf180mcu_fd_sc_mcu9t5v0__and2_2
X_0826_ _0218_ net14 _0295_ _0296_ VDD VSS gf180mcu_fd_sc_mcu9t5v0__aoi21_2
X_0827_ _0001_ _0002_ _0296_ _0297_ VDD VSS gf180mcu_fd_sc_mcu9t5v0__and3_2
X_0828_ _0001_ _0002_ _0264_ _0298_ VDD VSS gf180mcu_fd_sc_mcu9t5v0__aoi21_2
X_0829_ net19 net21 _0008_ _0299_ VDD VSS gf180mcu_fd_sc_mcu9t5v0__mux2_2
X_0830_ net18 net20 _0037_ _0300_ VDD VSS gf180mcu_fd_sc_mcu9t5v0__mux2_2
X_0831_ _0105_ _0300_ _0301_ VDD VSS gf180mcu_fd_sc_mcu9t5v0__or2_2
X_0832_ _0103_ _0104_ _0299_ _0218_ _0301_ _0302_ VDD VSS
+ gf180mcu_fd_sc_mcu9t5v0__oai221_4
X_0833_ _0013_ _0297_ _0298_ _0302_ _0303_ VDD VSS gf180mcu_fd_sc_mcu9t5v0__oai31_4
X_0834_ _0072_ _0074_ _0075_ _0076_ _0304_ VDD VSS gf180mcu_fd_sc_mcu9t5v0__or4_2
X_0835_ _0024_ _0010_ _0190_ _0305_ VDD VSS gf180mcu_fd_sc_mcu9t5v0__aoi21_2
X_0836_ _0024_ _0026_ _0485_ _0189_ _0306_ VDD VSS gf180mcu_fd_sc_mcu9t5v0__aoi211_2
X_0837_ _0032_ _0496_ _0035_ net13 _0307_ VDD VSS gf180mcu_fd_sc_mcu9t5v0__and4_2
X_0838_ _0032_ _0494_ _0485_ net10 _0308_ VDD VSS gf180mcu_fd_sc_mcu9t5v0__and4_2
X_0839_ _0305_ _0306_ _0307_ _0308_ _0309_ VDD VSS gf180mcu_fd_sc_mcu9t5v0__or4_2
X_0840_ _0024_ _0010_ _0197_ _0310_ VDD VSS gf180mcu_fd_sc_mcu9t5v0__aoi21_2
X_0841_ _0024_ _0026_ _0485_ _0082_ _0311_ VDD VSS gf180mcu_fd_sc_mcu9t5v0__aoi211_2
X_0842_ _0032_ _0496_ _0035_ net8 _0312_ VDD VSS gf180mcu_fd_sc_mcu9t5v0__and4_2
X_0843_ _0032_ _0496_ _0485_ net6 _0313_ VDD VSS gf180mcu_fd_sc_mcu9t5v0__and4_2
X_0844_ _0310_ _0311_ _0312_ _0313_ _0314_ VDD VSS gf180mcu_fd_sc_mcu9t5v0__or4_2
X_0845_ _0039_ _0304_ _0309_ _0314_ _0016_ _0022_ _0315_ VDD
+ VSS gf180mcu_fd_sc_mcu9t5v0__mux4_4
X_0846_ _0303_ _0315_ _0051_ _0316_ VDD VSS gf180mcu_fd_sc_mcu9t5v0__mux2_2
X_0847_ _0062_ _0316_ _0317_ VDD VSS gf180mcu_fd_sc_mcu9t5v0__nand2_2
X_0848_ net28 net30 net32 net3 _0188_ _0247_ _0318_ VDD VSS
+ gf180mcu_fd_sc_mcu9t5v0__mux4_2
X_0849_ net29 net31 net2 net4 _0003_ _0247_ _0319_ VDD VSS
+ gf180mcu_fd_sc_mcu9t5v0__mux4_2
X_0850_ _0318_ _0319_ _0022_ _0320_ VDD VSS gf180mcu_fd_sc_mcu9t5v0__mux2_4
X_0851_ net1 net24 _0139_ _0321_ VDD VSS gf180mcu_fd_sc_mcu9t5v0__mux2_2
X_0852_ net23 net27 _0008_ _0322_ VDD VSS gf180mcu_fd_sc_mcu9t5v0__mux2_2
X_0853_ net22 net25 _0037_ _0323_ VDD VSS gf180mcu_fd_sc_mcu9t5v0__mux2_2
X_0854_ _0188_ _0090_ _0088_ _0324_ VDD VSS gf180mcu_fd_sc_mcu9t5v0__oai21_2
X_0855_ _0321_ _0322_ _0323_ _0324_ _0247_ _0497_ _0325_ VDD
+ VSS gf180mcu_fd_sc_mcu9t5v0__mux4_2
X_0856_ _0228_ _0325_ _0326_ VDD VSS gf180mcu_fd_sc_mcu9t5v0__or2_2
X_0857_ _0244_ _0236_ _0327_ VDD VSS gf180mcu_fd_sc_mcu9t5v0__and2_2
X_0858_ _0052_ _0320_ _0326_ _0327_ _0328_ VDD VSS gf180mcu_fd_sc_mcu9t5v0__oai211_2
X_0859_ _0317_ _0328_ _0145_ net43 VDD VSS gf180mcu_fd_sc_mcu9t5v0__aoi21_4
X_0860_ _0020_ _0329_ VDD VSS gf180mcu_fd_sc_mcu9t5v0__clkinv_2
X_0861_ _0001_ _0002_ _0329_ _0330_ VDD VSS gf180mcu_fd_sc_mcu9t5v0__and3_2
X_0862_ _0001_ _0002_ _0495_ _0331_ VDD VSS gf180mcu_fd_sc_mcu9t5v0__aoi21_2
X_0863_ _0103_ _0104_ _0145_ _0332_ VDD VSS gf180mcu_fd_sc_mcu9t5v0__or3_2
X_0864_ _0017_ _0126_ _0128_ _0330_ _0331_ _0332_ _0333_ VDD
+ VSS gf180mcu_fd_sc_mcu9t5v0__oai33_4
X_0865_ _0198_ _0200_ _0191_ _0187_ _0022_ _0247_ _0334_ VDD
+ VSS gf180mcu_fd_sc_mcu9t5v0__mux4_4
X_0866_ _0333_ _0334_ _0051_ _0335_ VDD VSS gf180mcu_fd_sc_mcu9t5v0__mux2_2
X_0867_ _0188_ _0108_ _0163_ _0336_ VDD VSS gf180mcu_fd_sc_mcu9t5v0__oai21_2
X_0868_ _0179_ _0199_ _0336_ _0196_ _0247_ _0497_ _0337_ VDD
+ VSS gf180mcu_fd_sc_mcu9t5v0__mux4_2
X_0869_ net26 net28 _0008_ _0338_ VDD VSS gf180mcu_fd_sc_mcu9t5v0__mux2_2
X_0870_ _0188_ _0158_ _0156_ _0339_ VDD VSS gf180mcu_fd_sc_mcu9t5v0__oai21_2
X_0871_ _0147_ _0148_ _0338_ _0339_ _0218_ _0013_ _0340_ VDD
+ VSS gf180mcu_fd_sc_mcu9t5v0__mux4_2
X_0872_ _0337_ _0340_ _0051_ _0341_ VDD VSS gf180mcu_fd_sc_mcu9t5v0__mux2_2
X_0873_ _0062_ _0335_ _0341_ _0327_ _0342_ VDD VSS gf180mcu_fd_sc_mcu9t5v0__aoi22_2
X_0874_ _0342_ net44 VDD VSS gf180mcu_fd_sc_mcu9t5v0__inv_3
X_0875_ _0497_ _0028_ _0343_ VDD VSS gf180mcu_fd_sc_mcu9t5v0__nand2_2
X_0876_ _0098_ _0066_ _0247_ _0344_ VDD VSS gf180mcu_fd_sc_mcu9t5v0__mux2_2
X_0877_ _0068_ _0073_ _0012_ _0345_ VDD VSS gf180mcu_fd_sc_mcu9t5v0__mux2_2
X_0878_ _0343_ _0344_ _0345_ _0248_ _0346_ VDD VSS gf180mcu_fd_sc_mcu9t5v0__oai22_4
X_0879_ _0080_ _0082_ _0477_ _0347_ VDD VSS gf180mcu_fd_sc_mcu9t5v0__mux2_2
X_0880_ _0079_ _0081_ _0012_ _0348_ VDD VSS gf180mcu_fd_sc_mcu9t5v0__mux2_2
X_0881_ _0054_ _0105_ _0482_ _0188_ _0349_ VDD VSS gf180mcu_fd_sc_mcu9t5v0__and4_2
X_0882_ net6 net2 _0477_ _0350_ VDD VSS gf180mcu_fd_sc_mcu9t5v0__mux2_2
X_0883_ _0349_ _0350_ _0351_ VDD VSS gf180mcu_fd_sc_mcu9t5v0__nand2_2
X_0884_ _0256_ _0347_ _0348_ _0252_ _0351_ _0352_ VDD VSS
+ gf180mcu_fd_sc_mcu9t5v0__oai221_4
X_0885_ _0211_ _0174_ _0225_ _0215_ _0218_ _0016_ _0353_ VDD
+ VSS gf180mcu_fd_sc_mcu9t5v0__mux4_4
X_0886_ _0154_ _0353_ _0354_ VDD VSS gf180mcu_fd_sc_mcu9t5v0__or2_2
X_0887_ _0052_ _0346_ _0352_ _0354_ _0355_ VDD VSS gf180mcu_fd_sc_mcu9t5v0__oai31_4