
* cell non_restoring_divider
* pin error
* pin divisor[4]
* pin divisor[7]
* pin remainder[3]
* pin remainder[4]
* pin busy
* pin start
* pin remainder[5]
* pin valid
* pin rst_n
* pin divisor[6]
* pin divisor[5]
* pin quotient[0]
* pin quotient[1]
* pin quotient[2]
* pin remainder[6]
* pin remainder[7]
* pin quotient[3]
* pin clk
* pin quotient[4]
* pin divisor[3]
* pin divisor[0]
* pin divisor[2]
* pin quotient[5]
* pin divisor[1]
* pin quotient[7]
* pin quotient[6]
* pin dividend[3]
* pin dividend[4]
* pin remainder[1]
* pin remainder[0]
* pin remainder[2]
* pin dividend[1]
* pin dividend[5]
* pin dividend[0]
* pin dividend[2]
* pin dividend[6]
* pin dividend[7]
.SUBCKT non_restoring_divider 1 2 3 4 5 6 7 8 9 10 11 12 41 53 77 112 148 149
+ 196 200 216 223 229 233 240 282 283 296 300 302 304 305 306 307 308 309 310
+ 311
* net 1 error
* net 2 divisor[4]
* net 3 divisor[7]
* net 4 remainder[3]
* net 5 remainder[4]
* net 6 busy
* net 7 start
* net 8 remainder[5]
* net 9 valid
* net 10 rst_n
* net 11 divisor[6]
* net 12 divisor[5]
* net 41 quotient[0]
* net 53 quotient[1]
* net 77 quotient[2]
* net 112 remainder[6]
* net 148 remainder[7]
* net 149 quotient[3]
* net 196 clk
* net 200 quotient[4]
* net 216 divisor[3]
* net 223 divisor[0]
* net 229 divisor[2]
* net 233 quotient[5]
* net 240 divisor[1]
* net 282 quotient[7]
* net 283 quotient[6]
* net 296 dividend[3]
* net 300 dividend[4]
* net 302 remainder[1]
* net 304 remainder[0]
* net 305 remainder[2]
* net 306 dividend[1]
* net 307 dividend[5]
* net 308 dividend[0]
* net 309 dividend[2]
* net 310 dividend[6]
* net 311 dividend[7]
* cell instance $3 r0 *1 12.42,2.72
X$3 24 22 1 17 24 17 sky130_fd_sc_hd__clkbuf_1
* cell instance $6 r0 *1 11.04,2.72
X$6 24 2 23 17 24 17 sky130_fd_sc_hd__clkbuf_1
* cell instance $9 r0 *1 16.56,2.72
X$9 24 3 13 17 24 17 sky130_fd_sc_hd__clkbuf_1
* cell instance $12 r0 *1 29.44,2.72
X$12 24 19 4 17 24 17 sky130_fd_sc_hd__clkbuf_1
* cell instance $14 r0 *1 34.04,2.72
X$14 24 15 5 17 24 17 sky130_fd_sc_hd__clkbuf_1
* cell instance $18 r0 *1 35.42,2.72
X$18 24 64 6 17 24 17 sky130_fd_sc_hd__clkbuf_1
* cell instance $20 r0 *1 38.18,2.72
X$20 24 7 50 17 24 17 sky130_fd_sc_hd__clkbuf_1
* cell instance $24 r0 *1 45.54,2.72
X$24 24 27 8 17 24 17 sky130_fd_sc_hd__clkbuf_1
* cell instance $27 r0 *1 48.3,2.72
X$27 24 26 9 17 24 17 sky130_fd_sc_hd__clkbuf_1
* cell instance $29 r0 *1 58.88,2.72
X$29 24 10 24 58 17 17 sky130_fd_sc_hd__dlygate4sd3_1
* cell instance $33 m0 *1 14.26,8.16
X$33 24 11 38 17 24 17 sky130_fd_sc_hd__clkbuf_1
* cell instance $36 r0 *1 13.8,2.72
X$36 24 12 25 17 24 17 sky130_fd_sc_hd__clkbuf_1
* cell instance $40 m0 *1 10.58,13.6
X$40 17 65 25 23 13 38 24 24 17 sky130_fd_sc_hd__nor4_2
* cell instance $43 r0 *1 17.94,2.72
X$43 17 36 13 29 18 24 24 17 sky130_fd_sc_hd__mux2_1
* cell instance $59 m0 *1 27.6,8.16
X$59 24 19 14 46 24 17 17 sky130_fd_sc_hd__nand2_1
* cell instance $61 m0 *1 52.44,13.6
X$61 17 51 52 68 14 24 24 17 sky130_fd_sc_hd__mux2_1
* cell instance $63 m0 *1 52.44,8.16
X$63 17 21 35 76 14 24 24 17 sky130_fd_sc_hd__mux2_1
* cell instance $65 r0 *1 44.16,2.72
X$65 24 27 14 28 24 17 17 sky130_fd_sc_hd__nand2_1
* cell instance $67 r0 *1 63.94,19.04
X$67 17 89 69 98 14 24 24 17 sky130_fd_sc_hd__mux2_1
* cell instance $69 m0 *1 49.68,24.48
X$69 24 111 14 104 24 17 17 sky130_fd_sc_hd__nand2_1
* cell instance $71 r0 *1 64.4,57.12
X$71 24 147 17 14 24 17 sky130_fd_sc_hd__clkbuf_4
* cell instance $75 r0 *1 32.66,2.72
X$75 24 15 14 30 24 17 17 sky130_fd_sc_hd__nand2_1
* cell instance $77 m0 *1 32.66,13.6
X$77 17 63 14 57 64 18 24 24 17 sky130_fd_sc_hd__a31o_1
* cell instance $79 m0 *1 31.28,62.56
X$79 24 292 14 290 24 17 17 sky130_fd_sc_hd__nand2_1
* cell instance $82 m0 *1 20.24,57.12
X$82 24 274 14 284 24 17 17 sky130_fd_sc_hd__nand2_1
* cell instance $87 m0 *1 29.44,8.16
X$87 17 32 15 45 62 24 24 17 sky130_fd_sc_hd__dfrtp_1
* cell instance $92 r0 *1 31.28,13.6
X$92 17 32 16 45 79 24 24 17 sky130_fd_sc_hd__dfrtp_1
* cell instance $94 m0 *1 40.94,13.6
X$94 24 16 55 33 24 73 17 17 sky130_fd_sc_hd__o21ai_0
* cell instance $96 r0 *1 40.48,8.16
X$96 24 55 16 43 17 24 17 sky130_fd_sc_hd__nand2b_1
* cell instance $99 r0 *1 40.48,13.6
X$99 24 20 16 78 17 24 17 sky130_fd_sc_hd__nor2b_1
* cell instance $102 r0 *1 39.56,2.72
X$102 24 20 16 31 17 24 17 sky130_fd_sc_hd__nor2_1
* cell instance $142 m0 *1 4.14,8.16
X$142 17 32 22 45 42 24 24 17 sky130_fd_sc_hd__dfrtp_1
* cell instance $146 m0 *1 18.4,8.16
X$146 17 32 29 45 36 24 24 17 sky130_fd_sc_hd__dfrtp_1
* cell instance $148 m0 *1 38.64,8.16
X$148 17 32 27 34 47 24 24 17 sky130_fd_sc_hd__dfrtp_1
* cell instance $149 m0 *1 47.84,8.16
X$149 24 33 40 44 24 17 17 sky130_fd_sc_hd__nand2_1
* cell instance $150 m0 *1 49.22,8.16
X$150 24 26 43 40 24 17 17 sky130_fd_sc_hd__nand2_1
* cell instance $153 m0 *1 57.04,8.16
X$153 17 32 35 34 21 24 24 17 sky130_fd_sc_hd__dfrtp_1
* cell instance $154 m0 *1 66.24,8.16
X$154 24 35 41 17 24 17 sky130_fd_sc_hd__clkbuf_1
* cell instance $159 r0 *1 7.82,8.16
X$159 24 22 57 59 37 24 42 17 17 sky130_fd_sc_hd__o2bb2ai_1
* cell instance $160 r0 *1 11.04,8.16
X$160 24 65 48 59 24 17 17 sky130_fd_sc_hd__nand2_1
* cell instance $163 r0 *1 13.8,8.16
X$163 24 38 18 49 24 17 17 sky130_fd_sc_hd__nand2_1
* cell instance $168 r0 *1 15.64,8.16
X$168 24 25 18 60 24 17 17 sky130_fd_sc_hd__nand2_1
* cell instance $169 r0 *1 17.02,8.16
X$169 24 39 33 46 24 54 17 17 sky130_fd_sc_hd__o21ai_0
* cell instance $170 r0 *1 18.86,8.16
X$170 17 32 19 45 54 24 24 17 sky130_fd_sc_hd__dfrtp_1
* cell instance $171 r0 *1 28.06,8.16
X$171 17 32 64 45 63 24 24 17 sky130_fd_sc_hd__dfrtp_1
* cell instance $172 r0 *1 37.26,8.16
X$172 24 50 31 37 24 17 17 sky130_fd_sc_hd__nand2_1
* cell instance $173 r0 *1 38.64,8.16
X$173 24 56 33 28 24 47 17 17 sky130_fd_sc_hd__o21ai_0
* cell instance $179 r0 *1 44.16,8.16
X$179 17 32 26 34 44 24 24 17 sky130_fd_sc_hd__dfrtp_1
* cell instance $180 r0 *1 53.36,8.16
X$180 17 32 52 34 51 24 24 17 sky130_fd_sc_hd__dfrtp_1
* cell instance $183 r0 *1 63.94,8.16
X$183 24 52 53 17 24 17 sky130_fd_sc_hd__clkbuf_1
* cell instance $189 m0 *1 9.2,13.6
X$189 24 23 18 70 24 17 17 sky130_fd_sc_hd__nand2_1
* cell instance $190 m0 *1 15.18,13.6
X$190 24 66 61 60 24 71 17 17 sky130_fd_sc_hd__o21ai_0
* cell instance $191 m0 *1 17.02,13.6
X$191 17 32 80 45 71 24 24 17 sky130_fd_sc_hd__dfrtp_1
* cell instance $196 m0 *1 29.9,13.6
X$196 24 75 33 30 24 62 17 17 sky130_fd_sc_hd__o21ai_0
* cell instance $199 m0 *1 36.34,13.6
X$199 24 31 24 17 57 17 sky130_fd_sc_hd__inv_1
* cell instance $201 m0 *1 38.64,13.6
X$201 24 20 50 55 17 24 17 sky130_fd_sc_hd__nand2b_1
* cell instance $202 m0 *1 42.78,13.6
X$202 17 32 20 34 73 24 24 17 sky130_fd_sc_hd__dfrtp_1
* cell instance $206 m0 *1 57.96,13.6
X$206 17 58 32 24 24 17 sky130_fd_sc_hd__buf_12
* cell instance $212 r0 *1 9.2,13.6
X$212 17 18 37 48 65 24 24 17 sky130_fd_sc_hd__a21oi_4
* cell instance $217 r0 *1 15.64,13.6
X$217 24 74 61 49 24 72 17 17 sky130_fd_sc_hd__o21ai_0
* cell instance $218 r0 *1 17.48,13.6
X$218 17 32 67 45 72 24 24 17 sky130_fd_sc_hd__dfrtp_1
* cell instance $219 r0 *1 26.68,13.6
X$219 24 67 24 17 74 17 sky130_fd_sc_hd__inv_1
* cell instance $230 r0 *1 48.3,13.6
X$230 17 32 68 34 90 24 24 17 sky130_fd_sc_hd__dfrtp_1
* cell instance $234 r0 *1 66.7,13.6
X$234 24 69 77 17 24 17 sky130_fd_sc_hd__clkbuf_1
* cell instance $237 m0 *1 4.14,19.04
X$237 17 32 84 45 88 24 24 17 sky130_fd_sc_hd__dfrtp_1
* cell instance $241 m0 *1 16.56,19.04
X$241 24 80 24 17 66 17 sky130_fd_sc_hd__inv_1
* cell instance $242 m0 *1 17.94,19.04
X$242 17 314 82 80 75 24 24 17 sky130_fd_sc_hd__ha_1
* cell instance $244 m0 *1 24.38,19.04
X$244 17 312 81 67 56 24 24 17 sky130_fd_sc_hd__ha_1
* cell instance $250 m0 *1 44.16,19.04
X$250 17 32 76 34 91 24 24 17 sky130_fd_sc_hd__dfrtp_1
* cell instance $256 m0 *1 58.88,19.04
X$256 17 32 69 34 89 24 24 17 sky130_fd_sc_hd__dfrtp_1
* cell instance $260 r0 *1 7.82,19.04
X$260 24 83 61 70 24 88 17 17 sky130_fd_sc_hd__o21ai_0
* cell instance $262 r0 *1 10.12,19.04
X$262 24 18 24 17 61 17 sky130_fd_sc_hd__clkbuf_2
* cell instance $264 r0 *1 13.8,19.04
X$264 24 84 24 17 83 17 sky130_fd_sc_hd__inv_1
* cell instance $267 r0 *1 15.64,19.04
X$267 17 317 99 84 39 24 24 17 sky130_fd_sc_hd__ha_1
* cell instance $269 r0 *1 21.16,19.04
X$269 17 95 102 29 94 24 24 17 sky130_fd_sc_hd__ha_1
* cell instance $270 r0 *1 25.76,19.04
X$270 17 103 45 24 24 17 sky130_fd_sc_hd__clkbuf_8
* cell instance $271 r0 *1 30.82,19.04
X$271 24 45 24 17 17 sky130_fd_sc_hd__clkinv_2
* cell instance $279 r0 *1 45.08,19.04
X$279 24 85 97 91 24 17 17 sky130_fd_sc_hd__nand2_1
* cell instance $282 r0 *1 47.84,19.04
X$282 24 76 86 97 24 17 17 sky130_fd_sc_hd__nand2_1
* cell instance $286 r0 *1 52.44,19.04
X$286 24 68 86 76 87 17 90 24 17 sky130_fd_sc_hd__a22o_1
* cell instance $287 r0 *1 55.66,19.04
X$287 24 98 86 68 87 17 100 24 17 sky130_fd_sc_hd__a22o_1
* cell instance $297 m0 *1 5.98,24.48
X$297 17 32 92 45 106 24 24 17 sky130_fd_sc_hd__dfrtp_1
* cell instance $298 m0 *1 15.18,24.48
X$298 17 108 113 92 66 24 24 17 sky130_fd_sc_hd__ha_2
* cell instance $300 m0 *1 21.62,24.48
X$300 24 82 99 108 17 24 93 17 sky130_fd_sc_hd__a21oi_1
* cell instance $301 m0 *1 23.46,24.48
X$301 24 115 93 109 17 101 24 17 sky130_fd_sc_hd__o21ai_2
* cell instance $303 m0 *1 27.14,24.48
X$303 24 102 81 95 17 24 109 17 sky130_fd_sc_hd__a21oi_1
* cell instance $305 m0 *1 29.44,24.48
X$305 24 105 85 142 24 17 96 17 sky130_fd_sc_hd__o21bai_1
* cell instance $306 m0 *1 32.2,24.48
X$306 17 32 110 45 96 24 24 17 sky130_fd_sc_hd__dfrtp_1
* cell instance $309 m0 *1 42.78,24.48
X$309 24 94 33 104 24 114 17 17 sky130_fd_sc_hd__o21ai_0
* cell instance $310 m0 *1 44.62,24.48
X$310 17 103 34 24 24 17 sky130_fd_sc_hd__clkbuf_8
* cell instance $314 m0 *1 57.04,24.48
X$314 17 32 98 34 100 24 24 17 sky130_fd_sc_hd__dfrtp_1
* cell instance $315 m0 *1 66.24,24.48
X$315 24 111 112 17 24 17 sky130_fd_sc_hd__clkbuf_1
* cell instance $320 r0 *1 4.6,24.48
X$320 17 32 107 45 116 24 24 17 sky130_fd_sc_hd__dfrtp_1
* cell instance $321 r0 *1 13.8,24.48
X$321 24 107 24 17 39 17 sky130_fd_sc_hd__inv_1
* cell instance $324 r0 *1 15.64,24.48
X$324 24 122 117 79 39 116 17 24 17 sky130_fd_sc_hd__o22ai_1
* cell instance $325 r0 *1 17.94,24.48
X$325 24 132 117 79 75 106 17 24 17 sky130_fd_sc_hd__o22ai_1
* cell instance $327 r0 *1 20.7,24.48
X$327 24 92 24 17 75 17 sky130_fd_sc_hd__inv_1
* cell instance $329 r0 *1 23.92,24.48
X$329 24 95 123 115 24 17 17 sky130_fd_sc_hd__nand2_1
* cell instance $330 r0 *1 25.3,24.48
X$330 17 79 105 56 118 117 75 24 24 17 sky130_fd_sc_hd__o32ai_1
* cell instance $331 r0 *1 28.52,24.48
X$331 17 123 128 74 110 24 24 17 sky130_fd_sc_hd__ha_1
* cell instance $333 r0 *1 33.58,24.48
X$333 24 126 85 125 24 17 124 17 sky130_fd_sc_hd__o21bai_1
* cell instance $334 r0 *1 36.34,24.48
X$334 24 110 24 17 56 17 sky130_fd_sc_hd__inv_1
* cell instance $335 r0 *1 37.72,24.48
X$335 24 87 118 85 24 17 17 sky130_fd_sc_hd__nand2_1
* cell instance $341 r0 *1 44.62,24.48
X$341 17 32 111 34 114 24 24 17 sky130_fd_sc_hd__dfrtp_1
* cell instance $343 r0 *1 57.5,24.48
X$343 24 120 86 98 87 17 121 24 17 sky130_fd_sc_hd__a22o_1
* cell instance $354 m0 *1 12.88,29.92
X$354 17 136 131 83 107 24 24 17 sky130_fd_sc_hd__ha_1
* cell instance $355 m0 *1 17.48,29.92
X$355 17 132 107 141 118 24 24 17 sky130_fd_sc_hd__mux2i_1
* cell instance $356 m0 *1 21.16,29.92
X$356 24 127 108 134 17 24 17 sky130_fd_sc_hd__nor2b_1
* cell instance $358 m0 *1 23.92,29.92
X$358 17 129 113 134 135 123 24 24 17 sky130_fd_sc_hd__o31a_1
* cell instance $359 m0 *1 27.14,29.92
X$359 24 113 108 143 17 24 119 17 sky130_fd_sc_hd__a21oi_1
* cell instance $361 m0 *1 29.44,29.92
X$361 24 119 123 24 125 17 17 sky130_fd_sc_hd__xor2_1
* cell instance $362 m0 *1 32.66,29.92
X$362 24 128 129 95 24 133 17 17 sky130_fd_sc_hd__o21ai_0
* cell instance $363 m0 *1 34.5,29.92
X$363 17 32 130 34 124 24 24 17 sky130_fd_sc_hd__dfrtp_1
* cell instance $364 m0 *1 43.7,29.92
X$364 24 130 24 17 94 17 sky130_fd_sc_hd__inv_1
* cell instance $370 m0 *1 57.04,29.92
X$370 17 32 120 34 121 24 24 17 sky130_fd_sc_hd__dfrtp_1
* cell instance $377 r0 *1 13.8,29.92
X$377 24 136 144 151 17 24 17 sky130_fd_sc_hd__nor2_1
* cell instance $381 r0 *1 16.56,29.92
X$381 17 141 167 138 137 151 24 24 17 sky130_fd_sc_hd__a2bb2oi_1
* cell instance $382 r0 *1 19.78,29.92
X$382 24 131 137 138 24 17 143 17 sky130_fd_sc_hd__o21bai_1
* cell instance $384 r0 *1 23,29.92
X$384 17 136 108 123 95 24 186 24 17 sky130_fd_sc_hd__nand4_2
* cell instance $386 r0 *1 28.06,29.92
X$386 24 153 108 142 24 17 17 sky130_fd_sc_hd__xnor2_1
* cell instance $388 r0 *1 31.74,29.92
X$388 24 95 128 129 170 24 17 17 sky130_fd_sc_hd__or3_1
* cell instance $390 r0 *1 34.96,29.92
X$390 17 79 126 94 118 163 56 24 24 17 sky130_fd_sc_hd__o32ai_1
* cell instance $393 r0 *1 40.94,29.92
X$393 24 130 118 155 17 24 17 sky130_fd_sc_hd__nor2_1
* cell instance $397 r0 *1 43.24,29.92
X$397 17 32 140 34 154 24 24 17 sky130_fd_sc_hd__dfrtp_1
* cell instance $398 r0 *1 52.44,29.92
X$398 17 32 139 34 152 24 24 17 sky130_fd_sc_hd__dfrtp_1
* cell instance $399 r0 *1 61.64,29.92
X$399 17 166 150 120 147 24 24 17 sky130_fd_sc_hd__mux2_1
* cell instance $401 r0 *1 66.7,29.92
X$401 24 139 148 17 24 17 sky130_fd_sc_hd__clkbuf_1
* cell instance $410 m0 *1 11.04,35.36
X$410 17 165 144 160 157 24 24 17 sky130_fd_sc_hd__ha_1
* cell instance $411 m0 *1 15.64,35.36
X$411 17 122 157 145 118 24 24 17 sky130_fd_sc_hd__mux2i_1
* cell instance $412 m0 *1 19.32,35.36
X$412 24 131 136 144 17 24 127 17 sky130_fd_sc_hd__a21oi_1
* cell instance $413 m0 *1 21.16,35.36
X$413 24 144 172 136 24 162 17 17 sky130_fd_sc_hd__o21ai_0
* cell instance $414 m0 *1 23,35.36
X$414 24 162 131 153 17 24 17 sky130_fd_sc_hd__nand2b_1
* cell instance $416 m0 *1 25.76,35.36
X$416 24 108 136 169 24 17 17 sky130_fd_sc_hd__nand2_1
* cell instance $421 m0 *1 33.58,35.36
X$421 24 118 133 170 17 24 156 17 sky130_fd_sc_hd__a21boi_0
* cell instance $424 m0 *1 37.72,35.36
X$424 24 163 17 117 24 17 sky130_fd_sc_hd__clkbuf_4
* cell instance $426 m0 *1 41.4,35.36
X$426 24 117 155 156 146 24 17 154 17 sky130_fd_sc_hd__o31ai_1
* cell instance $428 m0 *1 47.84,35.36
X$428 24 147 17 33 24 17 sky130_fd_sc_hd__buf_2
* cell instance $429 m0 *1 49.68,35.36
X$429 24 140 86 146 24 17 17 sky130_fd_sc_hd__nand2_1
* cell instance $431 m0 *1 51.98,35.36
X$431 17 152 139 140 147 24 24 17 sky130_fd_sc_hd__mux2_1
* cell instance $435 m0 *1 57.5,35.36
X$435 17 32 150 34 166 24 24 17 sky130_fd_sc_hd__dfrtp_1
* cell instance $436 m0 *1 66.7,35.36
X$436 24 150 149 17 24 17 sky130_fd_sc_hd__clkbuf_1
* cell instance $439 r0 *1 4.14,35.36
X$439 17 32 158 183 191 24 24 17 sky130_fd_sc_hd__dfrtp_1
* cell instance $440 r0 *1 13.34,35.36
X$440 24 165 144 136 24 138 17 17 sky130_fd_sc_hd__o21ai_0
* cell instance $443 r0 *1 15.64,35.36
X$443 24 158 24 17 160 17 sky130_fd_sc_hd__inv_1
* cell instance $444 r0 *1 17.02,35.36
X$444 24 159 171 165 24 167 17 17 sky130_fd_sc_hd__o21ai_0
* cell instance $445 r0 *1 18.86,35.36
X$445 24 184 159 165 24 161 17 17 sky130_fd_sc_hd__o21ai_0
* cell instance $446 r0 *1 20.7,35.36
X$446 24 144 159 171 137 17 24 17 sky130_fd_sc_hd__nor3_1
* cell instance $448 r0 *1 23,35.36
X$448 24 161 168 173 17 24 172 17 sky130_fd_sc_hd__a21oi_1
* cell instance $450 r0 *1 25.76,35.36
X$450 24 173 168 169 161 17 135 24 17 sky130_fd_sc_hd__a211oi_1
* cell instance $451 r0 *1 28.52,35.36
X$451 24 182 172 145 17 24 17 sky130_fd_sc_hd__nor2_1
* cell instance $453 r0 *1 31.74,35.36
X$453 17 196 103 24 24 17 sky130_fd_sc_hd__clkbuf_8
* cell instance $464 r0 *1 56.58,35.36
X$464 24 164 86 120 87 17 180 24 17 sky130_fd_sc_hd__a22o_1
* cell instance $467 r0 *1 63.94,35.36
X$467 17 179 178 164 147 24 24 17 sky130_fd_sc_hd__mux2_1
* cell instance $474 m0 *1 4.14,40.8
X$474 17 32 157 183 174 24 24 17 sky130_fd_sc_hd__dfrtp_1
* cell instance $475 m0 *1 13.34,40.8
X$475 24 157 24 17 175 17 sky130_fd_sc_hd__inv_1
* cell instance $477 m0 *1 15.18,40.8
X$477 24 193 117 79 175 174 17 24 17 sky130_fd_sc_hd__o22ai_1
* cell instance $479 m0 *1 18.4,40.8
X$479 24 165 181 194 184 24 195 17 17 sky130_fd_sc_hd__nand4_1
* cell instance $480 m0 *1 20.7,40.8
X$480 24 185 184 165 159 17 182 24 17 sky130_fd_sc_hd__a211oi_1
* cell instance $481 m0 *1 23.46,40.8
X$481 24 176 159 173 17 24 17 sky130_fd_sc_hd__nor2_1
* cell instance $483 m0 *1 25.76,40.8
X$483 24 168 176 185 17 24 17 sky130_fd_sc_hd__nand2b_1
* cell instance $488 m0 *1 36.8,40.8
X$488 24 18 87 187 17 24 17 sky130_fd_sc_hd__nor2_1
* cell instance $491 m0 *1 39.56,40.8
X$491 24 187 17 24 79 17 sky130_fd_sc_hd__inv_2
* cell instance $492 m0 *1 40.94,40.8
X$492 24 189 78 177 24 17 163 17 sky130_fd_sc_hd__o21ai_1
* cell instance $493 m0 *1 42.78,40.8
X$493 24 78 177 189 24 190 17 17 sky130_fd_sc_hd__o21a_1
* cell instance $495 m0 *1 46,40.8
X$495 24 190 17 87 24 17 sky130_fd_sc_hd__buf_2
* cell instance $502 m0 *1 57.5,40.8
X$502 17 32 178 192 179 24 24 17 sky130_fd_sc_hd__dfrtp_1
* cell instance $508 r0 *1 6.44,40.8
X$508 24 160 61 201 24 191 17 17 sky130_fd_sc_hd__o21ai_0
* cell instance $509 r0 *1 8.28,40.8
X$509 24 217 18 201 24 17 17 sky130_fd_sc_hd__nand2_1
* cell instance $511 r0 *1 10.58,40.8
X$511 17 318 202 158 175 24 24 17 sky130_fd_sc_hd__ha_1
* cell instance $517 r0 *1 16.1,40.8
X$517 24 207 184 171 17 24 17 sky130_fd_sc_hd__nor2b_1
* cell instance $519 r0 *1 19.32,40.8
X$519 17 101 198 186 195 118 24 24 17 sky130_fd_sc_hd__o22ai_4
* cell instance $520 r0 *1 26.68,40.8
X$520 24 186 206 205 17 24 198 17 sky130_fd_sc_hd__a21oi_1
* cell instance $523 r0 *1 30.82,40.8
X$523 17 32 188 183 204 24 24 17 sky130_fd_sc_hd__dfrtp_1
* cell instance $524 r0 *1 40.02,40.8
X$524 24 188 24 17 189 17 sky130_fd_sc_hd__clkbuf_2
* cell instance $530 r0 *1 43.24,40.8
X$530 24 187 17 86 24 17 sky130_fd_sc_hd__clkbuf_4
* cell instance $535 r0 *1 57.5,40.8
X$535 17 32 164 192 180 24 24 17 sky130_fd_sc_hd__dfrtp_1
* cell instance $536 r0 *1 66.7,40.8
X$536 24 178 200 17 24 17 sky130_fd_sc_hd__clkbuf_1
* cell instance $538 m0 *1 5.06,46.24
X$538 24 216 217 17 24 17 sky130_fd_sc_hd__clkbuf_1
* cell instance $541 m0 *1 9.2,46.24
X$541 24 184 207 208 24 17 17 sky130_fd_sc_hd__xnor2_1
* cell instance $542 m0 *1 12.42,46.24
X$542 17 193 209 208 118 24 24 17 sky130_fd_sc_hd__mux2i_1
* cell instance $543 m0 *1 16.1,46.24
X$543 17 313 225 203 197 24 24 17 sky130_fd_sc_hd__ha_1
* cell instance $544 m0 *1 20.7,46.24
X$544 17 181 176 210 231 24 24 17 sky130_fd_sc_hd__ha_1
* cell instance $545 m0 *1 25.3,46.24
X$545 24 181 211 168 17 24 17 sky130_fd_sc_hd__nand2b_1
* cell instance $549 m0 *1 29.44,46.24
X$549 24 226 181 220 17 24 17 sky130_fd_sc_hd__nor2b_1
* cell instance $552 m0 *1 35.88,46.24
X$552 24 189 227 199 24 204 17 17 sky130_fd_sc_hd__o21ai_0
* cell instance $553 m0 *1 37.72,46.24
X$553 24 187 228 189 24 199 17 17 sky130_fd_sc_hd__o21ai_0
* cell instance $554 m0 *1 39.56,46.24
X$554 24 213 212 177 17 24 17 sky130_fd_sc_hd__nand2b_1
* cell instance $555 m0 *1 41.86,46.24
X$555 24 189 78 214 17 24 17 sky130_fd_sc_hd__nor2b_1
* cell instance $556 m0 *1 44.16,46.24
X$556 17 213 212 147 214 24 24 17 sky130_fd_sc_hd__nand3b_4
* cell instance $558 m0 *1 53.36,46.24
X$558 24 218 86 164 87 17 215 24 17 sky130_fd_sc_hd__a22o_1
* cell instance $560 m0 *1 57.04,46.24
X$560 17 32 218 192 215 24 24 17 sky130_fd_sc_hd__dfrtp_1
* cell instance $562 r0 *1 1.38,46.24
X$562 24 223 230 17 24 17 sky130_fd_sc_hd__clkbuf_1
* cell instance $564 r0 *1 3.22,46.24
X$564 24 229 219 17 24 17 sky130_fd_sc_hd__clkbuf_1
* cell instance $567 r0 *1 5.98,46.24
X$567 17 48 224 230 217 219 24 24 17 sky130_fd_sc_hd__nor4_2
* cell instance $571 r0 *1 13.8,46.24
X$571 24 203 24 17 210 17 sky130_fd_sc_hd__inv_1
* cell instance $574 r0 *1 15.64,46.24
X$574 24 202 269 165 17 24 205 17 sky130_fd_sc_hd__a21oi_1
* cell instance $576 r0 *1 17.94,46.24
X$576 17 207 238 203 211 197 24 24 17 sky130_fd_sc_hd__fa_1
* cell instance $577 r0 *1 25.3,46.24
X$577 24 225 220 165 184 206 24 17 17 sky130_fd_sc_hd__o211ai_1
* cell instance $580 r0 *1 29.44,46.24
X$580 17 194 226 249 239 24 24 17 sky130_fd_sc_hd__ha_1
* cell instance $583 r0 *1 35.42,46.24
X$583 24 221 87 227 24 17 17 sky130_fd_sc_hd__nand2_1
* cell instance $585 r0 *1 37.26,46.24
X$585 24 221 117 228 17 24 17 sky130_fd_sc_hd__nor2_1
* cell instance $587 r0 *1 39.56,46.24
X$587 24 213 243 237 17 24 17 sky130_fd_sc_hd__nor2_1
* cell instance $588 r0 *1 40.94,46.24
X$588 24 189 237 78 24 250 17 17 sky130_fd_sc_hd__o21ai_0
* cell instance $592 r0 *1 44.16,46.24
X$592 17 32 212 192 235 24 24 17 sky130_fd_sc_hd__dfrtp_1
* cell instance $595 r0 *1 57.5,46.24
X$595 17 32 222 192 234 24 24 17 sky130_fd_sc_hd__dfrtp_1
* cell instance $596 r0 *1 66.7,46.24
X$596 24 222 233 17 24 17 sky130_fd_sc_hd__clkbuf_1
* cell instance $602 m0 *1 1.84,51.68
X$602 24 230 61 241 24 17 17 sky130_fd_sc_hd__nand2_1
* cell instance $604 m0 *1 3.68,51.68
X$604 24 219 61 254 24 17 17 sky130_fd_sc_hd__nand2_1
* cell instance $606 m0 *1 5.52,51.68
X$606 24 249 61 241 24 267 17 17 sky130_fd_sc_hd__o21ai_0
* cell instance $607 m0 *1 7.36,51.68
X$607 24 210 61 247 24 255 17 17 sky130_fd_sc_hd__o21ai_0
* cell instance $608 m0 *1 9.2,51.68
X$608 24 224 61 247 24 17 17 sky130_fd_sc_hd__nand2_1
* cell instance $610 m0 *1 11.04,51.68
X$610 17 184 159 248 209 24 24 17 sky130_fd_sc_hd__ha_1
* cell instance $611 m0 *1 15.64,51.68
X$611 17 32 231 183 242 24 24 17 sky130_fd_sc_hd__dfrtp_1
* cell instance $613 m0 *1 25.3,51.68
X$613 17 232 231 238 118 24 24 17 sky130_fd_sc_hd__mux2i_1
* cell instance $615 m0 *1 29.44,51.68
X$615 17 272 194 258 118 24 24 17 sky130_fd_sc_hd__mux2_1
* cell instance $616 m0 *1 33.58,51.68
X$616 24 258 24 17 239 17 sky130_fd_sc_hd__inv_1
* cell instance $618 m0 *1 35.42,51.68
X$618 24 212 243 260 24 17 17 sky130_fd_sc_hd__nand2_1
* cell instance $619 m0 *1 36.8,51.68
X$619 24 212 79 250 17 24 246 17 sky130_fd_sc_hd__a21oi_1
* cell instance $620 m0 *1 38.64,51.68
X$620 24 214 243 212 246 17 24 235 17 sky130_fd_sc_hd__a31oi_1
* cell instance $621 m0 *1 40.94,51.68
X$621 24 189 236 244 245 24 251 17 17 sky130_fd_sc_hd__a22oi_1
* cell instance $622 m0 *1 43.7,51.68
X$622 17 103 192 24 24 17 sky130_fd_sc_hd__clkbuf_8
* cell instance $623 m0 *1 48.76,51.68
X$623 24 189 221 243 245 17 24 17 sky130_fd_sc_hd__nor3_1
* cell instance $626 m0 *1 53.36,51.68
X$626 24 253 86 218 87 17 257 24 17 sky130_fd_sc_hd__a22o_1
* cell instance $630 m0 *1 59.8,51.68
X$630 17 234 222 218 147 24 24 17 sky130_fd_sc_hd__mux2_1
* cell instance $633 r0 *1 1.38,51.68
X$633 24 240 224 17 24 17 sky130_fd_sc_hd__clkbuf_1
* cell instance $635 r0 *1 3.22,51.68
X$635 24 248 61 254 24 264 17 17 sky130_fd_sc_hd__o21ai_0
* cell instance $637 r0 *1 5.98,51.68
X$637 17 32 203 183 255 24 24 17 sky130_fd_sc_hd__dfrtp_1
* cell instance $642 r0 *1 15.64,51.68
X$642 24 256 24 17 249 17 sky130_fd_sc_hd__inv_1
* cell instance $645 r0 *1 21.62,51.68
X$645 17 183 24 24 17 sky130_fd_sc_hd__bufinv_16
* cell instance $649 r0 *1 39.1,51.68
X$649 17 258 189 260 259 251 212 24 24 17 sky130_fd_sc_hd__o32a_1
* cell instance $655 r0 *1 43.7,51.68
X$655 17 192 24 24 17 sky130_fd_sc_hd__bufinv_16
* cell instance $656 r0 *1 54.74,51.68
X$656 24 252 86 253 87 17 278 24 17 sky130_fd_sc_hd__a22o_1
* cell instance $658 r0 *1 59.8,51.68
X$658 17 266 297 252 147 24 24 17 sky130_fd_sc_hd__mux2_1
* cell instance $659 r0 *1 63.94,51.68
X$659 17 265 281 253 147 24 24 17 sky130_fd_sc_hd__mux2_1
* cell instance $661 m0 *1 5.06,57.12
X$661 17 32 256 183 267 24 24 17 sky130_fd_sc_hd__dfrtp_1
* cell instance $662 m0 *1 14.26,57.12
X$662 24 209 24 17 268 17 sky130_fd_sc_hd__inv_1
* cell instance $663 m0 *1 15.64,57.12
X$663 17 315 269 273 268 24 24 17 sky130_fd_sc_hd__ha_1
* cell instance $664 m0 *1 21.62,57.12
X$664 17 103 183 24 24 17 sky130_fd_sc_hd__clkbuf_8
* cell instance $665 m0 *1 26.68,57.12
X$665 24 231 24 17 197 17 sky130_fd_sc_hd__inv_1
* cell instance $668 m0 *1 29.44,57.12
X$668 24 272 117 79 197 242 17 24 17 sky130_fd_sc_hd__o22ai_1
* cell instance $672 m0 *1 37.72,57.12
X$672 17 261 263 279 275 262 271 270 24 24 17 sky130_fd_sc_hd__mux4_1
* cell instance $673 m0 *1 47.38,57.12
X$673 17 236 244 263 221 24 24 17 sky130_fd_sc_hd__mux2_1
* cell instance $674 m0 *1 51.52,57.12
X$674 17 259 244 263 221 24 24 17 sky130_fd_sc_hd__mux2i_1
* cell instance $678 m0 *1 57.04,57.12
X$678 17 32 253 192 257 24 24 17 sky130_fd_sc_hd__dfrtp_1
* cell instance $682 r0 *1 3.68,57.12
X$682 17 32 273 183 264 24 24 17 sky130_fd_sc_hd__dfrtp_1
* cell instance $683 r0 *1 12.88,57.12
X$683 24 273 24 17 248 17 sky130_fd_sc_hd__inv_1
* cell instance $689 r0 *1 17.94,57.12
X$689 24 175 33 284 24 289 17 17 sky130_fd_sc_hd__o21ai_0
* cell instance $690 r0 *1 19.78,57.12
X$690 17 316 211 256 258 24 24 17 sky130_fd_sc_hd__ha_1
* cell instance $691 r0 *1 24.38,57.12
X$691 17 32 292 183 285 24 24 17 sky130_fd_sc_hd__dfrtp_1
* cell instance $692 r0 *1 33.58,57.12
X$692 17 32 276 192 287 24 24 17 sky130_fd_sc_hd__dfrtp_1
* cell instance $695 r0 *1 43.24,57.12
X$695 24 261 276 243 17 24 17 sky130_fd_sc_hd__nor2_1
* cell instance $697 r0 *1 45.08,57.12
X$697 17 270 213 277 286 24 24 17 sky130_fd_sc_hd__ha_1
* cell instance $699 r0 *1 50.14,57.12
X$699 17 319 221 277 286 24 24 17 sky130_fd_sc_hd__ha_1
* cell instance $700 r0 *1 54.74,57.12
X$700 17 32 252 192 278 24 24 17 sky130_fd_sc_hd__dfrtp_1
* cell instance $709 m0 *1 5.52,62.56
X$709 17 32 209 183 280 24 24 17 sky130_fd_sc_hd__dfrtp_1
* cell instance $712 m0 *1 17.48,62.56
X$712 24 232 117 79 268 280 17 24 17 sky130_fd_sc_hd__o22ai_1
* cell instance $713 m0 *1 19.78,62.56
X$713 17 32 274 183 289 24 24 17 sky130_fd_sc_hd__dfrtp_1
* cell instance $715 m0 *1 29.44,62.56
X$715 24 268 33 290 24 285 17 17 sky130_fd_sc_hd__o21ai_0
* cell instance $717 m0 *1 34.5,62.56
X$717 24 79 286 117 270 287 17 24 17 sky130_fd_sc_hd__o22ai_1
* cell instance $720 m0 *1 38.18,62.56
X$720 17 261 244 293 299 288 291 270 24 24 17 sky130_fd_sc_hd__mux4_1
* cell instance $721 m0 *1 47.84,62.56
X$721 24 276 24 17 286 17 sky130_fd_sc_hd__inv_1
* cell instance $723 m0 *1 51.06,62.56
X$723 24 261 24 17 277 17 sky130_fd_sc_hd__inv_1
* cell instance $727 m0 *1 57.04,62.56
X$727 17 32 281 192 265 24 24 17 sky130_fd_sc_hd__dfrtp_1
* cell instance $729 m0 *1 66.7,62.56
X$729 24 281 283 17 24 17 sky130_fd_sc_hd__clkbuf_1
* cell instance $740 r0 *1 21.62,62.56
X$740 17 32 294 183 295 24 24 17 sky130_fd_sc_hd__dfrtp_1
* cell instance $741 r0 *1 30.82,62.56
X$741 24 197 33 298 24 295 17 17 sky130_fd_sc_hd__o21ai_0
* cell instance $742 r0 *1 32.66,62.56
X$742 24 294 33 298 24 17 17 sky130_fd_sc_hd__nand2_1
* cell instance $745 r0 *1 38.18,62.56
X$745 24 310 279 17 24 17 sky130_fd_sc_hd__clkbuf_1
* cell instance $746 r0 *1 39.56,62.56
X$746 24 296 299 17 24 17 sky130_fd_sc_hd__clkbuf_1
* cell instance $748 r0 *1 41.4,62.56
X$748 24 300 262 17 24 17 sky130_fd_sc_hd__clkbuf_1
* cell instance $751 r0 *1 43.24,62.56
X$751 24 261 117 301 24 303 17 17 sky130_fd_sc_hd__o21ai_0
* cell instance $753 r0 *1 45.54,62.56
X$753 24 261 86 301 24 17 17 sky130_fd_sc_hd__nand2_1
* cell instance $755 r0 *1 47.38,62.56
X$755 17 32 261 192 303 24 24 17 sky130_fd_sc_hd__dfrtp_1
* cell instance $757 r0 *1 57.04,62.56
X$757 17 32 297 192 266 24 24 17 sky130_fd_sc_hd__dfrtp_1
* cell instance $759 r0 *1 66.7,62.56
X$759 24 297 282 17 24 17 sky130_fd_sc_hd__clkbuf_1
* cell instance $778 m0 *1 31.74,68
X$778 24 294 304 17 24 17 sky130_fd_sc_hd__clkbuf_1
* cell instance $779 m0 *1 33.12,68
X$779 24 292 302 17 24 17 sky130_fd_sc_hd__clkbuf_1
* cell instance $780 m0 *1 34.5,68
X$780 24 274 305 17 24 17 sky130_fd_sc_hd__clkbuf_1
* cell instance $782 m0 *1 36.34,68
X$782 24 306 291 17 24 17 sky130_fd_sc_hd__clkbuf_1
* cell instance $783 m0 *1 37.72,68
X$783 24 307 271 17 24 17 sky130_fd_sc_hd__clkbuf_1
* cell instance $784 m0 *1 39.1,68
X$784 24 309 293 17 24 17 sky130_fd_sc_hd__clkbuf_1
* cell instance $786 m0 *1 41.4,68
X$786 24 311 275 17 24 17 sky130_fd_sc_hd__clkbuf_1
* cell instance $789 m0 *1 43.7,68
X$789 24 308 288 17 24 17 sky130_fd_sc_hd__clkbuf_1
.ENDS non_restoring_divider

* cell sky130_fd_sc_hd__dlygate4sd3_1
* pin VPB
* pin A
* pin VPWR
* pin X
* pin VGND
* pin 
.SUBCKT sky130_fd_sc_hd__dlygate4sd3_1 1 3 5 7 8 9
* net 1 VPB
* net 3 A
* net 5 VPWR
* net 7 X
* net 8 VGND
* device instance $1 r0 *1 2.465,2.275 pfet_01v8_hvt
M$1 6 2 5 1 pfet_01v8_hvt L=500000U W=420000U AS=140750000000P AD=109200000000P
+ PS=1325000U PD=1360000U
* device instance $2 r0 *1 3.115,1.985 pfet_01v8_hvt
M$2 7 6 5 1 pfet_01v8_hvt L=150000U W=1000000U AS=140750000000P
+ AD=260000000000P PS=1325000U PD=2520000U
* device instance $3 r0 *1 0.58,2.275 pfet_01v8_hvt
M$3 5 3 4 1 pfet_01v8_hvt L=150000U W=420000U AS=109200000000P AD=56700000000P
+ PS=1360000U PD=690000U
* device instance $4 r0 *1 1.175,2.275 pfet_01v8_hvt
M$4 2 4 5 1 pfet_01v8_hvt L=500000U W=420000U AS=56700000000P AD=109200000000P
+ PS=690000U PD=1360000U
* device instance $5 r0 *1 2.465,0.445 nfet_01v8
M$5 8 2 6 9 nfet_01v8 L=500000U W=420000U AS=109200000000P AD=97000000000P
+ PS=1360000U PD=975000U
* device instance $6 r0 *1 3.115,0.56 nfet_01v8
M$6 7 6 8 9 nfet_01v8 L=150000U W=650000U AS=97000000000P AD=169000000000P
+ PS=975000U PD=1820000U
* device instance $7 r0 *1 0.58,0.445 nfet_01v8
M$7 8 3 4 9 nfet_01v8 L=150000U W=420000U AS=109200000000P AD=56700000000P
+ PS=1360000U PD=690000U
* device instance $8 r0 *1 1.175,0.445 nfet_01v8
M$8 2 4 8 9 nfet_01v8 L=500000U W=420000U AS=56700000000P AD=109200000000P
+ PS=690000U PD=1360000U
.ENDS sky130_fd_sc_hd__dlygate4sd3_1

* cell sky130_fd_sc_hd__buf_12
* pin VGND
* pin A
* pin X
* pin VPWR
* pin VPB
* pin 
.SUBCKT sky130_fd_sc_hd__buf_12 1 2 4 5 6 7
* net 1 VGND
* net 2 A
* net 4 X
* net 5 VPWR
* net 6 VPB
* device instance $1 r0 *1 0.47,1.985 pfet_01v8_hvt
M$1 3 2 5 6 pfet_01v8_hvt L=150000U W=4000000U AS=665000000000P
+ AD=540000000000P PS=6330000U PD=5080000U
* device instance $5 r0 *1 2.15,1.985 pfet_01v8_hvt
M$5 4 3 5 6 pfet_01v8_hvt L=150000U W=12000000U AS=1.62e+12P AD=1.865e+12P