
* cell basic_spi_master
* pin rx_data[0]
* pin spi_miso
* pin rx_data[2]
* pin rx_data[6]
* pin rx_data[4]
* pin rx_valid
* pin rx_data[5]
* pin rx_data[7]
* pin rx_data[3]
* pin clk
* pin rx_data[1]
* pin spi_clk
* pin tx_data[5]
* pin tx_data[4]
* pin rst_n
* pin tx_ready
* pin tx_data[3]
* pin spi_cs_n
* pin tx_data[7]
* pin tx_data[6]
* pin tx_data[0]
* pin tx_valid
* pin spi_mosi
* pin tx_data[1]
* pin tx_data[2]
.SUBCKT basic_spi_master 1 2 3 4 5 22 32 63 108 110 111 129 139 152 170 188 195
+ 197 198 199 200 201 202 203 204
* net 1 rx_data[0]
* net 2 spi_miso
* net 3 rx_data[2]
* net 4 rx_data[6]
* net 5 rx_data[4]
* net 22 rx_valid
* net 32 rx_data[5]
* net 63 rx_data[7]
* net 108 rx_data[3]
* net 110 clk
* net 111 rx_data[1]
* net 129 spi_clk
* net 139 tx_data[5]
* net 152 tx_data[4]
* net 170 rst_n
* net 188 tx_ready
* net 195 tx_data[3]
* net 197 spi_cs_n
* net 198 tx_data[7]
* net 199 tx_data[6]
* net 200 tx_data[0]
* net 201 tx_valid
* net 202 spi_mosi
* net 203 tx_data[1]
* net 204 tx_data[2]
* cell instance $2 r0 *1 11.96,2.72
X$2 18 8 1 7 18 7 sky130_fd_sc_hd__clkbuf_1
* cell instance $5 m0 *1 15.18,8.16
X$5 7 21 2 18 18 7 sky130_fd_sc_hd__dlymetal6s2s_1
* cell instance $8 r0 *1 16.56,2.72
X$8 18 15 3 7 18 7 sky130_fd_sc_hd__clkbuf_1
* cell instance $11 r0 *1 33.58,2.72
X$11 18 6 4 7 18 7 sky130_fd_sc_hd__clkbuf_1
* cell instance $14 r0 *1 44.16,2.72
X$14 18 9 5 7 18 7 sky130_fd_sc_hd__clkbuf_1
* cell instance $17 r0 *1 19.78,2.72
X$17 7 10 6 13 11 18 18 7 sky130_fd_sc_hd__dfrtp_1
* cell instance $20 r0 *1 29.44,2.72
X$20 7 11 6 28 12 18 18 7 sky130_fd_sc_hd__mux2_1
* cell instance $27 r0 *1 2.76,2.72
X$27 7 10 8 13 23 18 18 7 sky130_fd_sc_hd__dfrtp_1
* cell instance $35 r0 *1 38.64,2.72
X$35 7 20 9 14 12 18 18 7 sky130_fd_sc_hd__mux2_1
* cell instance $40 r0 *1 47.38,2.72
X$40 7 10 17 16 19 18 18 7 sky130_fd_sc_hd__dfrtp_1
* cell instance $46 m0 *1 1.38,8.16
X$46 7 10 15 13 30 18 18 7 sky130_fd_sc_hd__dfrtp_1
* cell instance $47 m0 *1 10.58,8.16
X$47 7 23 8 24 12 18 18 7 sky130_fd_sc_hd__mux2_1
* cell instance $54 m0 *1 29.9,8.16
X$54 7 10 14 16 25 18 18 7 sky130_fd_sc_hd__dfrtp_1
* cell instance $55 m0 *1 39.1,8.16
X$55 7 10 9 16 20 18 18 7 sky130_fd_sc_hd__dfrtp_1
* cell instance $56 m0 *1 48.3,8.16
X$56 18 12 18 7 19 7 sky130_fd_sc_hd__inv_1
* cell instance $59 m0 *1 55.2,8.16
X$59 18 17 22 7 18 7 sky130_fd_sc_hd__clkbuf_1
* cell instance $63 r0 *1 5.52,8.16
X$63 7 30 15 26 12 18 18 7 sky130_fd_sc_hd__mux2_1
* cell instance $64 r0 *1 9.66,8.16
X$64 7 33 21 24 27 18 18 7 sky130_fd_sc_hd__mux2_1
* cell instance $72 r0 *1 23.46,8.16
X$72 7 10 28 13 35 18 18 7 sky130_fd_sc_hd__dfrtp_1
* cell instance $73 r0 *1 32.66,8.16
X$73 7 25 21 14 49 18 18 7 sky130_fd_sc_hd__mux2_1
* cell instance $82 r0 *1 54.28,8.16
X$82 18 29 32 7 18 7 sky130_fd_sc_hd__clkbuf_1
* cell instance $87 m0 *1 2.76,13.6
X$87 7 10 24 13 33 18 18 7 sky130_fd_sc_hd__dfrtp_1
* cell instance $90 m0 *1 14.26,13.6
X$90 7 10 26 13 31 18 18 7 sky130_fd_sc_hd__dfrtp_1
* cell instance $93 m0 *1 23.46,13.6
X$93 7 31 21 26 36 18 18 7 sky130_fd_sc_hd__mux2_1
* cell instance $97 m0 *1 29.44,13.6
X$97 7 35 21 28 48 18 18 7 sky130_fd_sc_hd__mux2_1
* cell instance $100 m0 *1 37.72,13.6
X$100 18 37 7 16 18 7 sky130_fd_sc_hd__clkbuf_4
* cell instance $107 m0 *1 47.38,13.6
X$107 7 10 29 16 34 18 18 7 sky130_fd_sc_hd__dfrtp_1
* cell instance $118 r0 *1 15.64,13.6
X$118 7 13 18 18 7 sky130_fd_sc_hd__clkbuf_8
* cell instance $119 r0 *1 20.7,13.6
X$119 18 39 38 74 7 18 7 sky130_fd_sc_hd__nor2b_1
* cell instance $121 r0 *1 24.84,13.6
X$121 18 44 47 64 45 7 27 18 7 sky130_fd_sc_hd__nor4_1
* cell instance $122 r0 *1 27.14,13.6
X$122 18 41 47 38 39 7 36 18 7 sky130_fd_sc_hd__nor4b_1
* cell instance $125 r0 *1 37.72,13.6
X$125 7 16 18 18 7 sky130_fd_sc_hd__clkbuf_8
* cell instance $130 r0 *1 43.24,13.6
X$130 7 10 40 16 46 18 18 7 sky130_fd_sc_hd__dfrtp_1
* cell instance $131 r0 *1 52.44,13.6
X$131 7 34 29 40 12 18 18 7 sky130_fd_sc_hd__mux2_1
* cell instance $139 m0 *1 15.64,19.04
X$139 18 37 7 13 18 7 sky130_fd_sc_hd__clkbuf_4
* cell instance $141 m0 *1 18.86,19.04
X$141 7 56 57 54 76 18 18 7 sky130_fd_sc_hd__ha_1
* cell instance $142 m0 *1 23.46,19.04
X$142 18 50 57 70 7 18 7 sky130_fd_sc_hd__nor2_1
* cell instance $144 m0 *1 26.68,19.04
X$144 18 51 55 58 45 18 41 7 7 sky130_fd_sc_hd__nand4_1
* cell instance $146 m0 *1 29.44,19.04
X$146 18 55 58 51 42 18 7 7 sky130_fd_sc_hd__nand3_1
* cell instance $147 m0 *1 31.28,19.04
X$147 18 42 52 48 7 18 7 sky130_fd_sc_hd__nor2_1
* cell instance $150 m0 *1 34.04,19.04
X$150 18 41 61 49 7 18 7 sky130_fd_sc_hd__nor2_1
* cell instance $153 m0 *1 36.8,19.04
X$153 18 60 55 52 40 18 7 43 7 sky130_fd_sc_hd__o31ai_1
* cell instance $154 m0 *1 39.56,19.04
X$154 18 67 52 43 18 46 7 7 sky130_fd_sc_hd__o21ai_0
* cell instance $158 m0 *1 47.38,19.04
X$158 7 10 53 16 62 18 18 7 sky130_fd_sc_hd__dfrtp_1
* cell instance $161 r0 *1 2.3,19.04
X$161 7 10 65 13 75 18 18 7 sky130_fd_sc_hd__dfrtp_1
* cell instance $162 r0 *1 11.5,19.04
X$162 18 65 7 55 18 7 sky130_fd_sc_hd__buf_2
* cell instance $168 r0 *1 15.64,19.04
X$168 7 38 50 54 73 18 18 7 sky130_fd_sc_hd__ha_1
* cell instance $169 r0 *1 20.24,19.04
X$169 7 50 57 58 56 66 18 18 7 sky130_fd_sc_hd__and4bb_1
* cell instance $170 r0 *1 24.84,19.04
X$170 18 70 56 66 58 7 18 64 7 sky130_fd_sc_hd__a31oi_1
* cell instance $171 r0 *1 27.14,19.04
X$171 18 55 21 58 51 18 67 7 7 sky130_fd_sc_hd__nand4b_1
* cell instance $172 r0 *1 30.36,19.04
X$172 7 39 52 45 38 18 18 47 7 sky130_fd_sc_hd__or4b_1
* cell instance $175 r0 *1 36.34,19.04
X$175 7 68 59 61 45 55 60 18 18 7 sky130_fd_sc_hd__o41ai_1
* cell instance $176 r0 *1 39.56,19.04
X$176 18 45 67 61 68 18 7 69 7 sky130_fd_sc_hd__o31ai_1
* cell instance $182 r0 *1 43.24,19.04
X$182 7 10 59 16 69 18 18 7 sky130_fd_sc_hd__dfrtp_1
* cell instance $183 r0 *1 52.44,19.04
X$183 7 62 53 59 12 18 18 7 sky130_fd_sc_hd__mux2_1
* cell instance $186 m0 *1 2.3,24.48
X$186 7 10 71 13 72 18 18 7 sky130_fd_sc_hd__dfrtp_1
* cell instance $187 m0 *1 11.5,24.48
X$187 18 80 82 79 71 7 72 18 7 sky130_fd_sc_hd__a22o_1
* cell instance $188 m0 *1 14.72,24.48
X$188 18 90 55 71 73 18 7 7 sky130_fd_sc_hd__nand3_1
* cell instance $190 m0 *1 17.02,24.48
X$190 18 54 73 76 7 18 7 sky130_fd_sc_hd__nand2b_1
* cell instance $191 m0 *1 19.32,24.48
X$191 7 66 78 54 77 18 18 7 sky130_fd_sc_hd__ha_1
* cell instance $192 m0 *1 23.92,24.48
X$192 18 51 55 66 74 18 44 7 7 sky130_fd_sc_hd__nand4_1
* cell instance $193 m0 *1 26.22,24.48
X$193 18 60 18 7 54 7 sky130_fd_sc_hd__inv_1
* cell instance $199 m0 *1 31.74,24.48
X$199 18 39 38 47 61 18 7 7 sky130_fd_sc_hd__or3_1
* cell instance $202 m0 *1 36.34,24.48
X$202 18 60 55 84 7 18 7 sky130_fd_sc_hd__nor2_1
* cell instance $203 m0 *1 37.72,24.48
X$203 18 45 84 86 18 7 7 sky130_fd_sc_hd__nand2_1
* cell instance $204 m0 *1 39.1,24.48
X$204 18 45 67 7 18 88 7 sky130_fd_sc_hd__or2b_1
* cell instance $210 m0 *1 55.2,24.48
X$210 18 53 63 7 18 7 sky130_fd_sc_hd__clkbuf_1
* cell instance $214 r0 *1 2.76,24.48
X$214 18 80 91 79 55 7 75 18 7 sky130_fd_sc_hd__a22o_1
* cell instance $217 r0 *1 7.36,24.48
X$217 7 91 81 87 55 18 18 7 sky130_fd_sc_hd__mux2_1
* cell instance $218 r0 *1 11.5,24.48
X$218 18 39 87 71 81 7 82 18 7 sky130_fd_sc_hd__a22o_1
* cell instance $223 r0 *1 16.56,24.48
X$223 7 77 54 90 92 18 18 7 sky130_fd_sc_hd__nand3_2
* cell instance $224 r0 *1 20.24,24.48
X$224 18 38 87 60 81 7 99 18 7 sky130_fd_sc_hd__a22o_1
* cell instance $226 r0 *1 24.38,24.48
X$226 7 206 93 60 77 18 18 7 sky130_fd_sc_hd__ha_1
* cell instance $227 r0 *1 28.98,24.48
X$227 18 103 93 51 7 18 7 sky130_fd_sc_hd__nor2_1
* cell instance $230 r0 *1 31.74,24.48
X$230 18 38 47 83 7 18 7 sky130_fd_sc_hd__nor2_1
* cell instance $232 r0 *1 34.04,24.48
X$232 18 39 83 104 18 7 7 sky130_fd_sc_hd__nand2_1
* cell instance $233 r0 *1 35.42,24.48
X$233 18 83 39 45 84 18 89 7 7 sky130_fd_sc_hd__nand4_1
* cell instance $234 r0 *1 37.72,24.48
X$234 18 85 89 104 88 18 102 7 7 sky130_fd_sc_hd__o2bb2ai_1
* cell instance $235 r0 *1 40.94,24.48
X$235 18 88 61 95 18 100 7 7 sky130_fd_sc_hd__o21ai_0
* cell instance $238 r0 *1 43.24,24.48
X$238 18 86 61 98 18 95 7 7 sky130_fd_sc_hd__o21ai_0
* cell instance $241 r0 *1 47.38,24.48
X$241 7 10 96 16 97 18 18 7 sky130_fd_sc_hd__dfrtp_1
* cell instance $250 m0 *1 7.36,29.92
X$250 7 39 92 71 65 18 18 7 sky130_fd_sc_hd__ha_2
* cell instance $251 m0 *1 12.88,29.92
X$251 7 90 92 45 18 18 7 sky130_fd_sc_hd__xor2_4
* cell instance $252 m0 *1 23,29.92
X$252 18 77 18 7 101 7 sky130_fd_sc_hd__inv_1
* cell instance $253 m0 *1 24.38,29.92
X$253 7 205 103 60 101 18 18 7 sky130_fd_sc_hd__ha_1
* cell instance $256 m0 *1 31.28,29.92
X$256 7 10 85 94 102 18 18 7 sky130_fd_sc_hd__dfrtp_1
* cell instance $257 m0 *1 40.48,29.92
X$257 7 10 98 94 100 18 18 7 sky130_fd_sc_hd__dfrtp_1
* cell instance $259 m0 *1 50.14,29.92
X$259 7 97 96 98 12 18 18 7 sky130_fd_sc_hd__mux2_1
* cell instance $261 m0 *1 55.2,29.92
X$261 18 96 108 7 18 7 sky130_fd_sc_hd__clkbuf_1
* cell instance $267 r0 *1 10.12,29.92
X$267 18 87 105 80 18 112 7 7 sky130_fd_sc_hd__o21ai_0
* cell instance $269 r0 *1 12.88,29.92
X$269 7 109 113 92 106 18 18 7 sky130_fd_sc_hd__and3_1
* cell instance $272 r0 *1 15.64,29.92
X$272 18 109 106 105 7 18 7 sky130_fd_sc_hd__nor2_1
* cell instance $275 r0 *1 21.16,29.92
X$275 18 80 99 79 60 7 107 18 7 sky130_fd_sc_hd__a22o_1
* cell instance $277 r0 *1 24.84,29.92
X$277 18 110 7 37 18 7 sky130_fd_sc_hd__clkbuf_4
* cell instance $280 r0 *1 30.36,29.92
X$280 7 10 60 94 107 18 18 7 sky130_fd_sc_hd__dfrtp_2
* cell instance $286 r0 *1 46.92,29.92
X$286 7 114 116 85 12 18 18 7 sky130_fd_sc_hd__mux2_1
* cell instance $296 m0 *1 4.14,35.36
X$296 7 10 90 125 117 18 18 7 sky130_fd_sc_hd__dfrtp_4
* cell instance $297 m0 *1 14.72,35.36
X$297 18 115 18 7 106 7 sky130_fd_sc_hd__inv_1
* cell instance $298 m0 *1 16.1,35.36
X$298 18 109 115 7 18 81 7 sky130_fd_sc_hd__or2b_1
* cell instance $299 m0 *1 18.86,35.36
X$299 18 121 81 87 7 18 7 sky130_fd_sc_hd__nor2_1
* cell instance $301 m0 *1 21.16,35.36
X$301 18 77 81 80 18 127 7 7 sky130_fd_sc_hd__o21ai_0
* cell instance $309 m0 *1 35.42,35.36
X$309 18 123 7 12 18 7 sky130_fd_sc_hd__clkbuf_4
* cell instance $313 m0 *1 47.38,35.36
X$313 7 10 116 94 114 18 18 7 sky130_fd_sc_hd__dfrtp_1
* cell instance $318 r0 *1 7.82,35.36
X$318 18 80 119 79 90 7 117 18 7 sky130_fd_sc_hd__a22o_1
* cell instance $319 r0 *1 11.04,35.36
X$319 7 119 118 90 113 18 18 7 sky130_fd_sc_hd__mux2_1
* cell instance $323 r0 *1 16.56,35.36
X$323 18 121 90 118 7 18 7 sky130_fd_sc_hd__nor2_1
* cell instance $326 r0 *1 19.32,35.36
X$326 18 121 7 79 18 7 sky130_fd_sc_hd__buf_2
* cell instance $327 r0 *1 21.16,35.36
X$327 18 79 128 127 7 18 126 7 sky130_fd_sc_hd__a21oi_1
* cell instance $330 r0 *1 25.76,35.36
X$330 18 77 47 124 7 18 7 sky130_fd_sc_hd__nor2_1
* cell instance $331 r0 *1 27.14,35.36
X$331 7 10 122 125 124 18 18 7 sky130_fd_sc_hd__dfrtp_1
* cell instance $332 r0 *1 36.34,35.36
X$332 7 122 121 18 18 7 sky130_fd_sc_hd__buf_6
* cell instance $342 r0 *1 55.66,35.36
X$342 18 116 111 7 18 7 sky130_fd_sc_hd__clkbuf_1
* cell instance $348 m0 *1 1.84,40.8
X$348 7 10 115 125 133 18 18 7 sky130_fd_sc_hd__dfrtp_2
* cell instance $351 m0 *1 15.64,40.8
X$351 7 131 77 106 120 121 18 18 7 sky130_fd_sc_hd__a31o_1
* cell instance $352 m0 *1 18.86,40.8
X$352 7 120 121 115 47 109 18 18 7 sky130_fd_sc_hd__nand4bb_4
* cell instance $356 m0 *1 33.58,40.8
X$356 18 121 120 7 18 123 7 sky130_fd_sc_hd__or2b_1
* cell instance $360 m0 *1 45.54,40.8
X$360 7 10 132 94 130 18 18 7 sky130_fd_sc_hd__dfrtp_1
* cell instance $365 r0 *1 2.76,40.8
X$365 18 115 129 7 18 7 sky130_fd_sc_hd__clkbuf_1
* cell instance $367 r0 *1 5.06,40.8
X$367 18 79 115 134 18 7 7 sky130_fd_sc_hd__nand2_1
* cell instance $368 r0 *1 6.44,40.8
X$368 18 112 134 133 18 7 7 sky130_fd_sc_hd__nand2_1
* cell instance $371 r0 *1 12.42,40.8
X$371 18 109 131 135 7 18 147 7 sky130_fd_sc_hd__a21o_1
* cell instance $375 r0 *1 16.56,40.8
X$375 18 125 207 7 18 7 sky130_fd_sc_hd__clkbuf_1
* cell instance $377 r0 *1 19.78,40.8
X$377 18 115 120 109 78 18 140 7 7 sky130_fd_sc_hd__nand4_1
* cell instance $378 r0 *1 22.08,40.8
X$378 7 10 136 125 126 18 18 7 sky130_fd_sc_hd__dfrtp_1
* cell instance $379 r0 *1 31.28,40.8
X$379 18 136 7 120 18 7 sky130_fd_sc_hd__buf_2
* cell instance $382 r0 *1 34.5,40.8
X$382 18 121 120 150 7 18 7 sky130_fd_sc_hd__nor2b_1
* cell instance $386 r0 *1 40.02,40.8
X$386 18 37 7 94 18 7 sky130_fd_sc_hd__clkbuf_4
* cell instance $391 r0 *1 45.54,40.8
X$391 7 10 141 94 142 18 18 7 sky130_fd_sc_hd__dfrtp_1
* cell instance $393 r0 *1 55.66,40.8
X$393 18 139 138 7 18 7 sky130_fd_sc_hd__clkbuf_1
* cell instance $401 m0 *1 10.58,46.24
X$401 7 10 109 125 147 18 18 7 sky130_fd_sc_hd__dfrtp_2
* cell instance $402 m0 *1 20.24,46.24
X$402 18 37 7 125 18 7 sky130_fd_sc_hd__clkbuf_4
* cell instance $404 m0 *1 23.46,46.24
X$404 18 128 121 148 18 144 7 7 sky130_fd_sc_hd__a21oi_2
* cell instance $410 m0 *1 32.2,46.24
X$410 18 157 144 156 7 18 7 sky130_fd_sc_hd__nor2_1
* cell instance $411 m0 *1 33.58,46.24
X$411 18 156 135 143 7 18 155 7 sky130_fd_sc_hd__a21oi_1
* cell instance $412 m0 *1 35.42,46.24
X$412 18 150 7 137 18 7 sky130_fd_sc_hd__buf_2
* cell instance $415 m0 *1 39.56,46.24
X$415 7 143 149 132 137 18 18 7 sky130_fd_sc_hd__mux2i_1
* cell instance $417 m0 *1 43.7,46.24
X$417 18 141 144 154 7 18 7 sky130_fd_sc_hd__nor2_1
* cell instance $418 m0 *1 45.08,46.24
X$418 18 132 144 153 7 18 7 sky130_fd_sc_hd__nor2_1
* cell instance $419 m0 *1 46.46,46.24
X$419 18 153 135 145 7 18 130 7 sky130_fd_sc_hd__a21oi_1
* cell instance $420 m0 *1 48.3,46.24
X$420 7 145 138 141 137 18 18 7 sky130_fd_sc_hd__mux2i_1
* cell instance $422 m0 *1 52.9,46.24
X$422 7 151 146 161 137 18 18 7 sky130_fd_sc_hd__mux2i_1
* cell instance $427 r0 *1 4.6,46.24
X$427 7 162 10 18 18 7 sky130_fd_sc_hd__buf_12
* cell instance $428 r0 *1 11.96,46.24
X$428 18 79 80 163 18 164 7 7 sky130_fd_sc_hd__o21ai_0
* cell instance $436 r0 *1 17.48,46.24
X$436 18 120 7 80 18 7 sky130_fd_sc_hd__buf_2
* cell instance $437 r0 *1 19.32,46.24
X$437 18 166 120 128 7 18 7 sky130_fd_sc_hd__nand2b_1
* cell instance $438 r0 *1 21.62,46.24
X$438 18 120 109 115 148 18 7 7 sky130_fd_sc_hd__nand3_1
* cell instance $439 r0 *1 23.46,46.24
X$439 18 79 128 140 7 18 168 7 sky130_fd_sc_hd__a21oi_1
* cell instance $442 r0 *1 30.82,46.24
X$442 7 10 157 94 155 18 18 7 sky130_fd_sc_hd__dfrtp_1
* cell instance $444 r0 *1 40.94,46.24
X$444 18 144 7 135 18 7 sky130_fd_sc_hd__buf_2
* cell instance $450 r0 *1 44.16,46.24
X$450 18 154 135 151 7 18 142 7 sky130_fd_sc_hd__a21oi_1
* cell instance $451 r0 *1 46,46.24
X$451 7 10 161 94 165 18 18 7 sky130_fd_sc_hd__dfrtp_1
* cell instance $453 r0 *1 55.66,46.24
X$453 18 152 146 7 18 7 sky130_fd_sc_hd__clkbuf_1
* cell instance $455 m0 *1 2.3,51.68
X$455 7 162 163 125 179 18 18 7 sky130_fd_sc_hd__dfstp_1
* cell instance $456 m0 *1 11.96,51.68
X$456 18 79 80 166 164 18 7 179 7 sky130_fd_sc_hd__o31ai_1
* cell instance $459 m0 *1 16.1,51.68
X$459 7 10 171 125 181 18 18 7 sky130_fd_sc_hd__dfrtp_1
* cell instance $460 m0 *1 25.3,51.68
X$460 18 176 168 158 7 18 167 7 sky130_fd_sc_hd__a21oi_1
* cell instance $461 m0 *1 27.14,51.68
X$461 18 177 168 176 7 18 7 sky130_fd_sc_hd__nor2_1
* cell instance $465 m0 *1 30.36,51.68
X$465 7 158 192 157 120 18 18 7 sky130_fd_sc_hd__mux2i_1
* cell instance $467 m0 *1 34.96,51.68
X$467 18 159 135 183 7 18 169 7 sky130_fd_sc_hd__a21oi_1
* cell instance $470 m0 *1 39.56,51.68
X$470 18 160 135 159 7 18 7 sky130_fd_sc_hd__nor2_1
* cell instance $471 m0 *1 40.94,51.68
X$471 7 175 172 160 137 18 18 7 sky130_fd_sc_hd__mux2i_1
* cell instance $474 m0 *1 46,51.68
X$474 18 161 144 174 7 18 7 sky130_fd_sc_hd__nor2_1
* cell instance $476 m0 *1 47.84,51.68
X$476 18 174 135 173 7 18 165 7 sky130_fd_sc_hd__a21oi_1
* cell instance $483 r0 *1 2.3,51.68
X$483 7 162 180 125 187 18 18 7 sky130_fd_sc_hd__dfstp_1
* cell instance $485 r0 *1 12.88,51.68
X$485 18 180 80 190 7 18 7 sky130_fd_sc_hd__nor2b_1
* cell instance $490 r0 *1 15.64,51.68
X$490 18 79 80 193 7 18 7 sky130_fd_sc_hd__nor2_1
* cell instance $491 r0 *1 17.02,51.68
X$491 18 178 135 191 18 181 7 7 sky130_fd_sc_hd__o21ai_0
* cell instance $493 r0 *1 19.32,51.68
X$493 18 171 18 7 178 7 sky130_fd_sc_hd__inv_1
* cell instance $494 r0 *1 20.7,51.68
X$494 7 10 177 125 167 18 18 7 sky130_fd_sc_hd__dfrtp_1
* cell instance $497 r0 *1 32.66,51.68
X$497 7 10 160 94 169 18 18 7 sky130_fd_sc_hd__dfrtp_1
* cell instance $503 r0 *1 43.24,51.68
X$503 7 10 186 94 189 18 18 7 sky130_fd_sc_hd__dfrtp_1
* cell instance $506 m0 *1 1.38,57.12
X$506 7 162 196 18 18 7 sky130_fd_sc_hd__dlymetal6s2s_1
* cell instance $507 m0 *1 5.98,57.12
X$507 18 170 18 196 7 7 sky130_fd_sc_hd__dlygate4sd3_1
* cell instance $508 m0 *1 9.66,57.12
X$508 18 163 188 7 18 7 sky130_fd_sc_hd__clkbuf_1
* cell instance $510 m0 *1 11.5,57.12
X$510 18 180 197 7 18 7 sky130_fd_sc_hd__clkbuf_1
* cell instance $512 m0 *1 13.34,57.12
X$512 18 190 166 193 7 18 187 7 sky130_fd_sc_hd__a21oi_1
* cell instance $514 m0 *1 15.64,57.12
X$514 18 201 166 7 18 7 sky130_fd_sc_hd__clkbuf_1
* cell instance $515 m0 *1 17.02,57.12
X$515 18 166 194 193 191 18 7 7 sky130_fd_sc_hd__nand3_1
* cell instance $516 m0 *1 18.86,57.12
X$516 18 200 194 7 18 7 sky130_fd_sc_hd__clkbuf_1
* cell instance $519 m0 *1 27.6,57.12
X$519 18 177 202 7 18 7 sky130_fd_sc_hd__clkbuf_1
* cell instance $522 m0 *1 29.9,57.12
X$522 18 198 192 7 18 7 sky130_fd_sc_hd__clkbuf_1
* cell instance $524 m0 *1 32.2,57.12
X$524 18 203 182 7 18 7 sky130_fd_sc_hd__clkbuf_1
* cell instance $525 m0 *1 33.58,57.12
X$525 7 183 182 171 137 18 18 7 sky130_fd_sc_hd__mux2i_1
* cell instance $528 m0 *1 39.56,57.12
X$528 18 204 172 7 18 7 sky130_fd_sc_hd__clkbuf_1
* cell instance $530 m0 *1 41.4,57.12
X$530 18 199 149 7 18 7 sky130_fd_sc_hd__clkbuf_1
* cell instance $533 m0 *1 43.7,57.12
X$533 18 184 135 175 7 18 189 7 sky130_fd_sc_hd__a21oi_1
* cell instance $536 m0 *1 47.84,57.12
X$536 18 186 135 184 7 18 7 sky130_fd_sc_hd__nor2_1
* cell instance $537 m0 *1 49.22,57.12
X$537 18 195 185 7 18 7 sky130_fd_sc_hd__clkbuf_1
* cell instance $538 m0 *1 50.6,57.12
X$538 7 173 185 186 137 18 18 7 sky130_fd_sc_hd__mux2i_1
.ENDS basic_spi_master

* cell sky130_fd_sc_hd__or3_1
* pin VPB
* pin A
* pin B
* pin C
* pin X
* pin VPWR
* pin VGND
* pin 
.SUBCKT sky130_fd_sc_hd__or3_1 1 2 3 4 5 6 7 9
* net 1 VPB
* net 2 A
* net 3 B
* net 4 C
* net 5 X
* net 6 VPWR
* net 7 VGND
* device instance $1 r0 *1 0.48,1.695 pfet_01v8_hvt
M$1 11 4 8 1 pfet_01v8_hvt L=150000U W=420000U AS=109200000000P AD=44100000000P
+ PS=1360000U PD=630000U
* device instance $2 r0 *1 0.84,1.695 pfet_01v8_hvt
M$2 10 3 11 1 pfet_01v8_hvt L=150000U W=420000U AS=44100000000P AD=69300000000P
+ PS=630000U PD=750000U
* device instance $3 r0 *1 1.32,1.695 pfet_01v8_hvt
M$3 6 2 10 1 pfet_01v8_hvt L=150000U W=420000U AS=69300000000P AD=148250000000P
+ PS=750000U PD=1340000U
* device instance $4 r0 *1 1.81,1.985 pfet_01v8_hvt
M$4 5 8 6 1 pfet_01v8_hvt L=150000U W=1000000U AS=148250000000P
+ AD=280000000000P PS=1340000U PD=2560000U
* device instance $5 r0 *1 0.48,0.475 nfet_01v8
M$5 7 4 8 9 nfet_01v8 L=150000U W=420000U AS=109200000000P AD=56700000000P
+ PS=1360000U PD=690000U
* device instance $6 r0 *1 0.9,0.475 nfet_01v8
M$6 8 3 7 9 nfet_01v8 L=150000U W=420000U AS=56700000000P AD=56700000000P
+ PS=690000U PD=690000U
* device instance $7 r0 *1 1.32,0.475 nfet_01v8
M$7 8 2 7 9 nfet_01v8 L=150000U W=420000U AS=101875000000P AD=56700000000P
+ PS=990000U PD=690000U
* device instance $8 r0 *1 1.81,0.56 nfet_01v8
M$8 5 8 7 9 nfet_01v8 L=150000U W=650000U AS=101875000000P AD=182000000000P
+ PS=990000U PD=1860000U
.ENDS sky130_fd_sc_hd__or3_1

* cell sky130_fd_sc_hd__o2bb2ai_1
* pin VPB
* pin A1_N
* pin A2_N
* pin B2
* pin B1
* pin VPWR
* pin Y
* pin VGND
* pin 
.SUBCKT sky130_fd_sc_hd__o2bb2ai_1 1 2 3 4 5 6 8 10 11
* net 1 VPB
* net 2 A1_N
* net 3 A2_N
* net 4 B2
* net 5 B1
* net 6 VPWR
* net 8 Y
* net 10 VGND
* device instance $1 r0 *1 0.485,1.985 pfet_01v8_hvt
M$1 7 2 6 1 pfet_01v8_hvt L=150000U W=1000000U AS=275000000000P
+ AD=135000000000P PS=2550000U PD=1270000U
* device instance $2 r0 *1 0.905,1.985 pfet_01v8_hvt
M$2 6 3 7 1 pfet_01v8_hvt L=150000U W=1000000U AS=135000000000P
+ AD=420000000000P PS=1270000U PD=1840000U
* device instance $3 r0 *1 1.895,1.985 pfet_01v8_hvt
M$3 8 7 6 1 pfet_01v8_hvt L=150000U W=1000000U AS=420000000000P
+ AD=135000000000P PS=1840000U PD=1270000U
* device instance $4 r0 *1 2.315,1.985 pfet_01v8_hvt
M$4 12 4 8 1 pfet_01v8_hvt L=150000U W=1000000U AS=135000000000P
+ AD=135000000000P PS=1270000U PD=1270000U
* device instance $5 r0 *1 2.735,1.985 pfet_01v8_hvt
M$5 6 5 12 1 pfet_01v8_hvt L=150000U W=1000000U AS=135000000000P
+ AD=275000000000P PS=1270000U PD=2550000U
* device instance $6 r0 *1 1.895,0.56 nfet_01v8
M$6 9 7 8 11 nfet_01v8 L=150000U W=650000U AS=169000000000P AD=87750000000P
+ PS=1820000U PD=920000U
* device instance $7 r0 *1 2.315,0.56 nfet_01v8
M$7 10 4 9 11 nfet_01v8 L=150000U W=650000U AS=87750000000P AD=87750000000P
+ PS=920000U PD=920000U
* device instance $8 r0 *1 2.735,0.56 nfet_01v8
M$8 9 5 10 11 nfet_01v8 L=150000U W=650000U AS=87750000000P AD=169000000000P
+ PS=920000U PD=1820000U
* device instance $9 r0 *1 0.485,0.56 nfet_01v8
M$9 13 2 10 11 nfet_01v8 L=150000U W=650000U AS=178750000000P AD=68250000000P
+ PS=1850000U PD=860000U
* device instance $10 r0 *1 0.845,0.56 nfet_01v8
M$10 7 3 13 11 nfet_01v8 L=150000U W=650000U AS=68250000000P AD=240500000000P
+ PS=860000U PD=2040000U
.ENDS sky130_fd_sc_hd__o2bb2ai_1

* cell sky130_fd_sc_hd__o41ai_1
* pin VGND
* pin Y
* pin B1
* pin A4
* pin A3
* pin A2
* pin A1
* pin VPWR
* pin VPB
* pin 
.SUBCKT sky130_fd_sc_hd__o41ai_1 1 2 4 5 6 7 8 9 10 14
* net 1 VGND
* net 2 Y
* net 4 B1
* net 5 A4
* net 6 A3
* net 7 A2
* net 8 A1
* net 9 VPWR
* net 10 VPB
* device instance $1 r0 *1 0.47,1.985 pfet_01v8_hvt
M$1 2 4 9 10 pfet_01v8_hvt L=150000U W=1000000U AS=260000000000P
+ AD=135000000000P PS=2520000U PD=1270000U
* device instance $2 r0 *1 0.89,1.985 pfet_01v8_hvt
M$2 11 5 2 10 pfet_01v8_hvt L=150000U W=1000000U AS=135000000000P
+ AD=312500000000P PS=1270000U PD=1625000U
* device instance $3 r0 *1 1.665,1.985 pfet_01v8_hvt
M$3 13 6 11 10 pfet_01v8_hvt L=150000U W=1000000U AS=312500000000P
+ AD=135000000000P PS=1625000U PD=1270000U
* device instance $4 r0 *1 2.085,1.985 pfet_01v8_hvt
M$4 12 7 13 10 pfet_01v8_hvt L=150000U W=1000000U AS=135000000000P
+ AD=175000000000P PS=1270000U PD=1350000U
* device instance $5 r0 *1 2.585,1.985 pfet_01v8_hvt
M$5 9 8 12 10 pfet_01v8_hvt L=150000U W=1000000U AS=175000000000P
+ AD=280000000000P PS=1350000U PD=2560000U
* device instance $6 r0 *1 0.47,0.56 nfet_01v8
M$6 3 4 2 14 nfet_01v8 L=150000U W=650000U AS=169000000000P AD=203125000000P
+ PS=1820000U PD=1275000U
* device instance $7 r0 *1 1.245,0.56 nfet_01v8
M$7 1 5 3 14 nfet_01v8 L=150000U W=650000U AS=203125000000P AD=87750000000P
+ PS=1275000U PD=920000U
* device instance $8 r0 *1 1.665,0.56 nfet_01v8
M$8 3 6 1 14 nfet_01v8 L=150000U W=650000U AS=87750000000P AD=87750000000P
+ PS=920000U PD=920000U
* device instance $9 r0 *1 2.085,0.56 nfet_01v8
M$9 1 7 3 14 nfet_01v8 L=150000U W=650000U AS=87750000000P AD=113750000000P
+ PS=920000U PD=1000000U
* device instance $10 r0 *1 2.585,0.56 nfet_01v8
M$10 3 8 1 14 nfet_01v8 L=150000U W=650000U AS=113750000000P AD=182000000000P
+ PS=1000000U PD=1860000U
.ENDS sky130_fd_sc_hd__o41ai_1

* cell sky130_fd_sc_hd__or4b_1
* pin VGND
* pin D_N
* pin X
* pin C
* pin A
* pin VPWR
* pin VPB
* pin B
* pin 
.SUBCKT sky130_fd_sc_hd__or4b_1 1 2 5 6 7 8 9 10 14
* net 1 VGND
* net 2 D_N
* net 5 X
* net 6 C
* net 7 A
* net 8 VPWR
* net 9 VPB
* net 10 B
* device instance $1 r0 *1 1.41,1.695 pfet_01v8_hvt
M$1 11 3 4 9 pfet_01v8_hvt L=150000U W=420000U AS=109200000000P AD=68250000000P
+ PS=1360000U PD=745000U
* device instance $2 r0 *1 1.885,1.695 pfet_01v8_hvt
M$2 13 6 11 9 pfet_01v8_hvt L=150000U W=420000U AS=68250000000P AD=45150000000P
+ PS=745000U PD=635000U
* device instance $3 r0 *1 2.25,1.695 pfet_01v8_hvt
M$3 12 10 13 9 pfet_01v8_hvt L=150000U W=420000U AS=45150000000P
+ AD=64050000000P PS=635000U PD=725000U
* device instance $4 r0 *1 2.705,1.695 pfet_01v8_hvt
M$4 8 7 12 9 pfet_01v8_hvt L=150000U W=420000U AS=64050000000P AD=148250000000P
+ PS=725000U PD=1340000U
* device instance $5 r0 *1 3.195,1.985 pfet_01v8_hvt
M$5 5 4 8 9 pfet_01v8_hvt L=150000U W=1000000U AS=148250000000P
+ AD=275000000000P PS=1340000U PD=2550000U
* device instance $6 r0 *1 0.47,1.695 pfet_01v8_hvt
M$6 3 2 8 9 pfet_01v8_hvt L=150000U W=420000U AS=109200000000P AD=109200000000P
+ PS=1360000U PD=1360000U
* device instance $7 r0 *1 1.41,0.475 nfet_01v8
M$7 4 3 1 14 nfet_01v8 L=150000U W=420000U AS=109200000000P AD=64050000000P
+ PS=1360000U PD=725000U
* device instance $8 r0 *1 1.865,0.475 nfet_01v8
M$8 1 6 4 14 nfet_01v8 L=150000U W=420000U AS=64050000000P AD=56700000000P
+ PS=725000U PD=690000U
* device instance $9 r0 *1 2.285,0.475 nfet_01v8
M$9 4 10 1 14 nfet_01v8 L=150000U W=420000U AS=56700000000P AD=56700000000P
+ PS=690000U PD=690000U
* device instance $10 r0 *1 2.705,0.475 nfet_01v8
M$10 4 7 1 14 nfet_01v8 L=150000U W=420000U AS=101875000000P AD=56700000000P
+ PS=990000U PD=690000U
* device instance $11 r0 *1 3.195,0.56 nfet_01v8
M$11 5 4 1 14 nfet_01v8 L=150000U W=650000U AS=101875000000P AD=178750000000P
+ PS=990000U PD=1850000U
* device instance $12 r0 *1 0.47,0.475 nfet_01v8
M$12 3 2 1 14 nfet_01v8 L=150000U W=420000U AS=109200000000P AD=109200000000P
+ PS=1360000U PD=1360000U
.ENDS sky130_fd_sc_hd__or4b_1

* cell sky130_fd_sc_hd__a31oi_1
* pin VPB
* pin A3
* pin A2
* pin A1
* pin B1
* pin VGND
* pin VPWR
* pin Y
* pin 
.SUBCKT sky130_fd_sc_hd__a31oi_1 1 2 3 4 5 6 8 9 10
* net 1 VPB
* net 2 A3
* net 3 A2
* net 4 A1
* net 5 B1
* net 6 VGND
* net 8 VPWR
* net 9 Y
* device instance $1 r0 *1 0.47,1.985 pfet_01v8_hvt
M$1 7 2 8 1 pfet_01v8_hvt L=150000U W=1000000U AS=260000000000P
+ AD=135000000000P PS=2520000U PD=1270000U
* device instance $2 r0 *1 0.89,1.985 pfet_01v8_hvt
M$2 8 3 7 1 pfet_01v8_hvt L=150000U W=1000000U AS=135000000000P
+ AD=152500000000P PS=1270000U PD=1305000U
* device instance $3 r0 *1 1.345,1.985 pfet_01v8_hvt
M$3 7 4 8 1 pfet_01v8_hvt L=150000U W=1000000U AS=152500000000P
+ AD=162500000000P PS=1305000U PD=1325000U
* device instance $4 r0 *1 1.82,1.985 pfet_01v8_hvt
M$4 9 5 7 1 pfet_01v8_hvt L=150000U W=1000000U AS=162500000000P
+ AD=270000000000P PS=1325000U PD=2540000U
* device instance $5 r0 *1 0.47,0.56 nfet_01v8
M$5 12 2 6 10 nfet_01v8 L=150000U W=650000U AS=169000000000P AD=68250000000P
+ PS=1820000U PD=860000U
* device instance $6 r0 *1 0.83,0.56 nfet_01v8
M$6 11 3 12 10 nfet_01v8 L=150000U W=650000U AS=68250000000P AD=118625000000P
+ PS=860000U PD=1015000U
* device instance $7 r0 *1 1.345,0.56 nfet_01v8
M$7 9 4 11 10 nfet_01v8 L=150000U W=650000U AS=118625000000P AD=105625000000P
+ PS=1015000U PD=975000U
* device instance $8 r0 *1 1.82,0.56 nfet_01v8
M$8 6 5 9 10 nfet_01v8 L=150000U W=650000U AS=105625000000P AD=175500000000P
+ PS=975000U PD=1840000U
.ENDS sky130_fd_sc_hd__a31oi_1

* cell sky130_fd_sc_hd__and4bb_1
* pin VGND
* pin C
* pin D
* pin X
* pin B_N
* pin A_N
* pin VPWR
* pin VPB
* pin 
.SUBCKT sky130_fd_sc_hd__and4bb_1 1 4 5 6 7 12 13 14 15
* net 1 VGND
* net 4 C
* net 5 D
* net 6 X
* net 7 B_N
* net 12 A_N
* net 13 VPWR
* net 14 VPB
* device instance $1 r0 *1 2.07,2.275 pfet_01v8_hvt
M$1 8 2 13 14 pfet_01v8_hvt L=150000U W=420000U AS=121800000000P
+ AD=58800000000P PS=1420000U PD=700000U
* device instance $2 r0 *1 2.5,2.275 pfet_01v8_hvt
M$2 13 3 8 14 pfet_01v8_hvt L=150000U W=420000U AS=58800000000P AD=73500000000P
+ PS=700000U PD=770000U
* device instance $3 r0 *1 3,2.275 pfet_01v8_hvt
M$3 8 4 13 14 pfet_01v8_hvt L=150000U W=420000U AS=73500000000P AD=77700000000P
+ PS=770000U PD=790000U
* device instance $4 r0 *1 3.52,2.275 pfet_01v8_hvt
M$4 8 5 13 14 pfet_01v8_hvt L=150000U W=420000U AS=172000000000P
+ AD=77700000000P PS=1460000U PD=790000U
* device instance $5 r0 *1 4.13,1.985 pfet_01v8_hvt
M$5 6 8 13 14 pfet_01v8_hvt L=150000U W=1000000U AS=172000000000P
+ AD=260000000000P PS=1460000U PD=2520000U
* device instance $6 r0 *1 0.61,2.275 pfet_01v8_hvt
M$6 13 12 2 14 pfet_01v8_hvt L=150000U W=420000U AS=168000000000P
+ AD=58800000000P PS=1640000U PD=700000U
* device instance $7 r0 *1 1.04,2.275 pfet_01v8_hvt
M$7 3 7 13 14 pfet_01v8_hvt L=150000U W=420000U AS=58800000000P
+ AD=134400000000P PS=700000U PD=1480000U
* device instance $8 r0 *1 2.07,0.675 nfet_01v8
M$8 9 2 8 15 nfet_01v8 L=150000U W=420000U AS=117600000000P AD=58800000000P
+ PS=1400000U PD=700000U
* device instance $9 r0 *1 2.5,0.675 nfet_01v8
M$9 10 3 9 15 nfet_01v8 L=150000U W=420000U AS=58800000000P AD=73500000000P
+ PS=700000U PD=770000U
* device instance $10 r0 *1 3,0.675 nfet_01v8
M$10 11 4 10 15 nfet_01v8 L=150000U W=420000U AS=73500000000P AD=77700000000P
+ PS=770000U PD=790000U
* device instance $11 r0 *1 3.52,0.675 nfet_01v8
M$11 11 5 1 15 nfet_01v8 L=150000U W=420000U AS=126500000000P AD=77700000000P
+ PS=1110000U PD=790000U
* device instance $12 r0 *1 4.13,0.56 nfet_01v8
M$12 6 8 1 15 nfet_01v8 L=150000U W=650000U AS=126500000000P AD=165400000000P
+ PS=1110000U PD=1820000U
* device instance $13 r0 *1 0.61,0.445 nfet_01v8
M$13 1 12 2 15 nfet_01v8 L=150000U W=420000U AS=168000000000P AD=58800000000P
+ PS=1640000U PD=700000U
* device instance $14 r0 *1 1.04,0.445 nfet_01v8
M$14 3 7 1 15 nfet_01v8 L=150000U W=420000U AS=58800000000P AD=138600000000P
+ PS=700000U PD=1500000U
.ENDS sky130_fd_sc_hd__and4bb_1

* cell sky130_fd_sc_hd__clkbuf_8
* pin VGND
* pin A
* pin VPWR
* pin VPB
* pin 
.SUBCKT sky130_fd_sc_hd__clkbuf_8 1 2 5 6 7
* net 1 VGND
* net 2 A
* net 4 X
* net 5 VPWR
* net 6 VPB
* device instance $1 r0 *1 0.475,1.985 pfet_01v8_hvt
M$1 3 2 5 6 pfet_01v8_hvt L=150000U W=2000000U AS=405000000000P
+ AD=280000000000P PS=3810000U PD=2560000U
* device instance $3 r0 *1 1.335,1.985 pfet_01v8_hvt
M$3 4 3 5 6 pfet_01v8_hvt L=150000U W=8000000U AS=1.12e+12P AD=1.245e+12P
+ PS=10240000U PD=11490000U