* CDL Netlist generated by OpenROAD

*.BUSDELIMITER [

.SUBCKT mesh_router clk east_in_data[0] east_in_data[10] east_in_data[11]
+ east_in_data[12] east_in_data[13] east_in_data[14] east_in_data[15]
+ east_in_data[16] east_in_data[17] east_in_data[18] east_in_data[19]
+ east_in_data[1] east_in_data[20] east_in_data[21] east_in_data[22]
+ east_in_data[23] east_in_data[24] east_in_data[25] east_in_data[26]
+ east_in_data[27] east_in_data[28] east_in_data[29] east_in_data[2]
+ east_in_data[30] east_in_data[31] east_in_data[3] east_in_data[4]
+ east_in_data[5] east_in_data[6] east_in_data[7] east_in_data[8]
+ east_in_data[9] east_in_ready east_in_valid east_out_data[0]
+ east_out_data[10] east_out_data[11] east_out_data[12] east_out_data[13]
+ east_out_data[14] east_out_data[15] east_out_data[16] east_out_data[17]
+ east_out_data[18] east_out_data[19] east_out_data[1] east_out_data[20]
+ east_out_data[21] east_out_data[22] east_out_data[23] east_out_data[24]
+ east_out_data[25] east_out_data[26] east_out_data[27] east_out_data[28]
+ east_out_data[29] east_out_data[2] east_out_data[30] east_out_data[31]
+ east_out_data[3] east_out_data[4] east_out_data[5] east_out_data[6]
+ east_out_data[7] east_out_data[8] east_out_data[9] east_out_ready
+ east_out_valid local_in_data[0] local_in_data[10] local_in_data[11]
+ local_in_data[12] local_in_data[13] local_in_data[14] local_in_data[15]
+ local_in_data[16] local_in_data[17] local_in_data[18] local_in_data[19]
+ local_in_data[1] local_in_data[20] local_in_data[21] local_in_data[22]
+ local_in_data[23] local_in_data[24] local_in_data[25] local_in_data[26]
+ local_in_data[27] local_in_data[28] local_in_data[29] local_in_data[2]
+ local_in_data[30] local_in_data[31] local_in_data[3] local_in_data[4]
+ local_in_data[5] local_in_data[6] local_in_data[7] local_in_data[8]
+ local_in_data[9] local_in_ready local_in_valid local_out_data[0]
+ local_out_data[10] local_out_data[11] local_out_data[12] local_out_data[13]
+ local_out_data[14] local_out_data[15] local_out_data[16] local_out_data[17]
+ local_out_data[18] local_out_data[19] local_out_data[1] local_out_data[20]
+ local_out_data[21] local_out_data[22] local_out_data[23] local_out_data[24]
+ local_out_data[25] local_out_data[26] local_out_data[27] local_out_data[28]
+ local_out_data[29] local_out_data[2] local_out_data[30] local_out_data[31]
+ local_out_data[3] local_out_data[4] local_out_data[5] local_out_data[6]
+ local_out_data[7] local_out_data[8] local_out_data[9] local_out_ready
+ local_out_valid north_in_data[0] north_in_data[10] north_in_data[11]
+ north_in_data[12] north_in_data[13] north_in_data[14] north_in_data[15]
+ north_in_data[16] north_in_data[17] north_in_data[18] north_in_data[19]
+ north_in_data[1] north_in_data[20] north_in_data[21] north_in_data[22]
+ north_in_data[23] north_in_data[24] north_in_data[25] north_in_data[26]
+ north_in_data[27] north_in_data[28] north_in_data[29] north_in_data[2]
+ north_in_data[30] north_in_data[31] north_in_data[3] north_in_data[4]
+ north_in_data[5] north_in_data[6] north_in_data[7] north_in_data[8]
+ north_in_data[9] north_in_ready north_in_valid north_out_data[0]
+ north_out_data[10] north_out_data[11] north_out_data[12] north_out_data[13]
+ north_out_data[14] north_out_data[15] north_out_data[16] north_out_data[17]
+ north_out_data[18] north_out_data[19] north_out_data[1] north_out_data[20]
+ north_out_data[21] north_out_data[22] north_out_data[23] north_out_data[24]
+ north_out_data[25] north_out_data[26] north_out_data[27] north_out_data[28]
+ north_out_data[29] north_out_data[2] north_out_data[30] north_out_data[31]
+ north_out_data[3] north_out_data[4] north_out_data[5] north_out_data[6]
+ north_out_data[7] north_out_data[8] north_out_data[9] north_out_ready
+ north_out_valid rst_n south_in_data[0] south_in_data[10] south_in_data[11]
+ south_in_data[12] south_in_data[13] south_in_data[14] south_in_data[15]
+ south_in_data[16] south_in_data[17] south_in_data[18] south_in_data[19]
+ south_in_data[1] south_in_data[20] south_in_data[21] south_in_data[22]
+ south_in_data[23] south_in_data[24] south_in_data[25] south_in_data[26]
+ south_in_data[27] south_in_data[28] south_in_data[29] south_in_data[2]
+ south_in_data[30] south_in_data[31] south_in_data[3] south_in_data[4]
+ south_in_data[5] south_in_data[6] south_in_data[7] south_in_data[8]
+ south_in_data[9] south_in_ready south_in_valid south_out_data[0]
+ south_out_data[10] south_out_data[11] south_out_data[12] south_out_data[13]
+ south_out_data[14] south_out_data[15] south_out_data[16] south_out_data[17]
+ south_out_data[18] south_out_data[19] south_out_data[1] south_out_data[20]
+ south_out_data[21] south_out_data[22] south_out_data[23] south_out_data[24]
+ south_out_data[25] south_out_data[26] south_out_data[27] south_out_data[28]
+ south_out_data[29] south_out_data[2] south_out_data[30] south_out_data[31]
+ south_out_data[3] south_out_data[4] south_out_data[5] south_out_data[6]
+ south_out_data[7] south_out_data[8] south_out_data[9] south_out_ready
+ south_out_valid west_in_data[0] west_in_data[10] west_in_data[11]
+ west_in_data[12] west_in_data[13] west_in_data[14] west_in_data[15]
+ west_in_data[16] west_in_data[17] west_in_data[18] west_in_data[19]
+ west_in_data[1] west_in_data[20] west_in_data[21] west_in_data[22]
+ west_in_data[23] west_in_data[24] west_in_data[25] west_in_data[26]
+ west_in_data[27] west_in_data[28] west_in_data[29] west_in_data[2]
+ west_in_data[30] west_in_data[31] west_in_data[3] west_in_data[4]
+ west_in_data[5] west_in_data[6] west_in_data[7] west_in_data[8]
+ west_in_data[9] west_in_ready west_in_valid west_out_data[0]
+ west_out_data[10] west_out_data[11] west_out_data[12] west_out_data[13]
+ west_out_data[14] west_out_data[15] west_out_data[16] west_out_data[17]
+ west_out_data[18] west_out_data[19] west_out_data[1] west_out_data[20]
+ west_out_data[21] west_out_data[22] west_out_data[23] west_out_data[24]
+ west_out_data[25] west_out_data[26] west_out_data[27] west_out_data[28]
+ west_out_data[29] west_out_data[2] west_out_data[30] west_out_data[31]
+ west_out_data[3] west_out_data[4] west_out_data[5] west_out_data[6]
+ west_out_data[7] west_out_data[8] west_out_data[9] west_out_ready
+ west_out_valid
X_1606_ dest_id\[4\]\[5\] dest_id\[4\]\[4\] dest_id\[4\]\[7\]
+ dest_id\[4\]\[6\] _1274_ VDD VSS OR4_X2
X_1607_ _1274_ _1275_ VDD VSS BUF_X8
X_1608_ _1275_ _1276_ VDD VSS INV_X1
X_1609_ dest_id\[4\]\[0\] _1277_ VDD VSS BUF_X4
X_1610_ _1277_ _1278_ VDD VSS INV_X2
X_1611_ dest_id\[4\]\[1\] _1279_ VDD VSS CLKBUF_X3
X_1612_ dest_id\[4\]\[2\] _1280_ VDD VSS CLKBUF_X3
X_1613_ _1278_ _1279_ _1280_ _1281_ VDD VSS NOR3_X4
X_1614_ dest_id\[4\]\[3\] _1282_ VDD VSS BUF_X4
X_1615_ _1280_ _1283_ VDD VSS INV_X2
X_1616_ _1277_ _1282_ _1283_ _1284_ VDD VSS NOR3_X4
X_1617_ _1276_ _1281_ _1284_ _1285_ VDD VSS OAI21_X4
X_1618_ _1285_ _1603_ VDD VSS INV_X4
X_1619_ _1275_ _1282_ _1283_ _1277_ _1592_ VDD VSS NOR4_X4
X_1620_ _1592_ _1595_ VDD VSS INV_X1
X_1621_ _1279_ _1275_ _1286_ VDD VSS NOR2_X1
X_1622_ _1282_ _1287_ VDD VSS INV_X2
X_1623_ _1278_ _1287_ _1280_ _1288_ VDD VSS NOR3_X1
X_1624_ _1286_ _1288_ _1284_ _1591_ VDD VSS OAI21_X2
X_1625_ _1591_ _1598_ VDD VSS INV_X1
X_1626_ dest_id\[3\]\[5\] _1289_ VDD VSS BUF_X2
X_1627_ dest_id\[3\]\[4\] _1290_ VDD VSS BUF_X2
X_1628_ dest_id\[3\]\[7\] _1291_ VDD VSS BUF_X2
X_1629_ dest_id\[3\]\[6\] _1292_ VDD VSS BUF_X2
X_1630_ _1289_ _1290_ _1291_ _1292_ _1293_ VDD VSS NOR4_X4
X_1631_ dest_id\[3\]\[0\] _1294_ VDD VSS INV_X1
X_1632_ dest_id\[3\]\[2\] _1295_ VDD VSS BUF_X4
X_1633_ _1294_ dest_id\[3\]\[1\] _1295_ _1296_ VDD VSS NOR3_X4
X_1634_ _1295_ _1297_ VDD VSS INV_X2
X_1635_ dest_id\[3\]\[0\] dest_id\[3\]\[3\] _1297_ _1298_
+ VDD VSS NOR3_X4
X_1636_ _1293_ _1296_ _1298_ _1299_ VDD VSS OAI21_X4
X_1637_ _1299_ _1588_ VDD VSS INV_X2
X_1638_ dest_id\[3\]\[0\] _1300_ VDD VSS CLKBUF_X3
X_1639_ _1300_ _1297_ _1301_ VDD VSS NOR2_X1
X_1640_ dest_id\[3\]\[3\] _1302_ VDD VSS BUF_X4
X_1641_ _1289_ _1290_ _1291_ _1292_ _1303_ VDD VSS OR4_X4
X_1642_ _1302_ _1303_ _1304_ VDD VSS NOR2_X2
X_1643_ _1301_ _1304_ _1580_ VDD VSS NAND2_X2
X_1644_ dest_id\[3\]\[1\] _1305_ VDD VSS CLKBUF_X3
X_1645_ _1305_ _1303_ _1306_ VDD VSS OR2_X1
X_1646_ _1300_ _1302_ _1297_ _1307_ VDD VSS NAND3_X1
X_1647_ _1300_ dest_id\[3\]\[3\] _1297_ _1308_ VDD VSS OR3_X2
X_1648_ _1306_ _1307_ _1308_ _1583_ VDD VSS AOI21_X2
X_1649_ dest_id\[2\]\[5\] _1309_ VDD VSS BUF_X2
X_1650_ dest_id\[2\]\[4\] _1310_ VDD VSS BUF_X2
X_1651_ dest_id\[2\]\[7\] _1311_ VDD VSS BUF_X2
X_1652_ dest_id\[2\]\[6\] _1312_ VDD VSS BUF_X2
X_1653_ _1309_ _1310_ _1311_ _1312_ _1313_ VDD VSS NOR4_X4
X_1654_ dest_id\[2\]\[0\] _1314_ VDD VSS BUF_X4
X_1655_ _1314_ _1315_ VDD VSS INV_X2
X_1656_ dest_id\[2\]\[1\] _1316_ VDD VSS BUF_X4
X_1657_ dest_id\[2\]\[2\] _1317_ VDD VSS BUF_X4
X_1658_ _1315_ _1316_ _1317_ _1318_ VDD VSS NOR3_X4
X_1659_ dest_id\[2\]\[3\] _1319_ VDD VSS BUF_X4
X_1660_ _1317_ _1320_ VDD VSS INV_X2
X_1661_ _1314_ _1319_ _1320_ _1321_ VDD VSS NOR3_X4
X_1662_ _1313_ _1318_ _1321_ _1322_ VDD VSS OAI21_X4
X_1663_ _1322_ _1573_ VDD VSS INV_X2
X_1664_ _1309_ _1310_ _1311_ _1312_ _1323_ VDD VSS OR4_X4
X_1665_ _1323_ _1319_ _1320_ _1314_ _1562_ VDD VSS NOR4_X4
X_1666_ _1562_ _1565_ VDD VSS INV_X1
X_1667_ _1316_ _1323_ _1324_ VDD VSS OR2_X2
X_1668_ _1314_ _1319_ _1320_ _1325_ VDD VSS NAND3_X2
X_1669_ _1319_ _1326_ VDD VSS INV_X2
X_1670_ _1315_ _1326_ _1317_ _1327_ VDD VSS NAND3_X4
X_1671_ _1324_ _1325_ _1327_ _1568_ VDD VSS AOI21_X4
X_1672_ dest_id\[1\]\[5\] _1328_ VDD VSS BUF_X2
X_1673_ dest_id\[1\]\[4\] _1329_ VDD VSS BUF_X2
X_1674_ dest_id\[1\]\[7\] _1330_ VDD VSS BUF_X2
X_1675_ dest_id\[1\]\[6\] _1331_ VDD VSS BUF_X2
X_1676_ _1328_ _1329_ _1330_ _1331_ _1332_ VDD VSS NOR4_X4
X_1677_ dest_id\[1\]\[0\] _1333_ VDD VSS BUF_X4
X_1678_ _1333_ _1334_ VDD VSS INV_X2
X_1679_ dest_id\[1\]\[1\] _1335_ VDD VSS CLKBUF_X3
X_1680_ dest_id\[1\]\[2\] _1336_ VDD VSS BUF_X4
X_1681_ _1334_ _1335_ _1336_ _1337_ VDD VSS NOR3_X4
X_1682_ dest_id\[1\]\[3\] _1338_ VDD VSS CLKBUF_X3
X_1683_ _1336_ _1339_ VDD VSS INV_X2
X_1684_ _1339_ _1338_ _1333_ _1340_ VDD VSS NOR3_X4
X_1685_ _1332_ _1337_ _1340_ _1341_ VDD VSS OAI21_X4
X_1686_ _1341_ _1342_ VDD VSS INV_X4
X_1687_ _1342_ _1558_ VDD VSS BUF_X4
X_1688_ _1333_ _1339_ _1343_ VDD VSS NOR2_X1
X_1689_ _1328_ _1329_ _1330_ _1331_ _1344_ VDD VSS OR4_X4
X_1690_ _1338_ _1344_ _1345_ VDD VSS NOR2_X4
X_1691_ _1343_ _1345_ _1547_ VDD VSS AND2_X4
X_1692_ _1547_ _1550_ VDD VSS INV_X1
X_1693_ _1335_ _1344_ _1346_ VDD VSS NOR2_X1
X_1694_ _1338_ _1347_ VDD VSS INV_X2
X_1695_ _1334_ _1347_ _1336_ _1348_ VDD VSS NOR3_X2
X_1696_ _1346_ _1348_ _1340_ _1546_ VDD VSS OAI21_X2
X_1697_ _1546_ _1553_ VDD VSS INV_X1
X_1698_ dest_id\[0\]\[3\] _1349_ VDD VSS BUF_X2
X_1699_ dest_id\[0\]\[2\] _1350_ VDD VSS INV_X1
X_1700_ dest_id\[0\]\[0\] _1349_ _1350_ _1351_ VDD VSS NOR3_X4
X_1701_ dest_id\[0\]\[0\] _1352_ VDD VSS INV_X1
X_1702_ _1349_ _1353_ VDD VSS INV_X1
X_1703_ _1352_ _1353_ dest_id\[0\]\[2\] _1354_ VDD VSS NOR3_X2
X_1704_ _1351_ _1354_ _1355_ VDD VSS NOR2_X1
X_1705_ dest_id\[0\]\[5\] dest_id\[0\]\[4\] dest_id\[0\]\[7\]
+ dest_id\[0\]\[6\] _1356_ VDD VSS OR4_X1
X_1706_ dest_id\[0\]\[1\] _1355_ _1356_ _1532_ VDD VSS OR3_X2
X_1707_ _1532_ _1535_ VDD VSS INV_X1
X_1708_ dest_id\[0\]\[0\] _1350_ _1357_ VDD VSS NOR2_X1
X_1709_ _1349_ _1356_ _1358_ VDD VSS NOR2_X1
X_1710_ _1357_ _1358_ _1531_ VDD VSS AND2_X1
X_1711_ _1531_ _1538_ VDD VSS INV_X1
X_1712_ _1568_ _1561_ VDD VSS INV_X1
X_1713_ _1583_ _1576_ VDD VSS INV_X1
X_1714_ dest_id\[0\]\[5\] dest_id\[0\]\[4\] dest_id\[0\]\[7\]
+ dest_id\[0\]\[6\] _1359_ VDD VSS NOR4_X4
X_1715_ _1352_ dest_id\[0\]\[1\] dest_id\[0\]\[2\] _1360_
+ VDD VSS NOR3_X4
X_1716_ _1359_ _1360_ _1351_ _1361_ VDD VSS OAI21_X4
X_1717_ _1361_ _1362_ VDD VSS INV_X2
X_1718_ _1362_ _1543_ VDD VSS BUF_X4
X_1719_ _1580_ _1577_ VDD VSS INV_X1
X_1720_ rst_n _1363_ VDD VSS BUF_X4
X_1721_ input_buffer_valid\[0\] _1364_ VDD VSS CLKBUF_X3
X_1722_ _1364_ _1365_ VDD VSS INV_X4
X_1723_ _1365_ _1366_ VDD VSS BUF_X4
X_1724_ _1366_ _1367_ VDD VSS BUF_X8
X_1725_ _1363_ _1367_ net100 _1368_ VDD VSS NAND3_X2
X_1726_ _1368_ _1369_ VDD VSS CLKBUF_X3
X_1727_ net68 input_buffer\[0\]\[0\] _1369_ _0032_ VDD VSS
+ MUX2_X1
X_1728_ net69 input_buffer\[0\]\[10\] _1369_ _0033_ VDD VSS
+ MUX2_X1
X_1729_ net70 input_buffer\[0\]\[11\] _1369_ _0034_ VDD VSS
+ MUX2_X1
X_1730_ net71 input_buffer\[0\]\[12\] _1369_ _0035_ VDD VSS
+ MUX2_X1
X_1731_ net72 input_buffer\[0\]\[13\] _1369_ _0036_ VDD VSS
+ MUX2_X1
X_1732_ net73 input_buffer\[0\]\[14\] _1369_ _0037_ VDD VSS
+ MUX2_X1
X_1733_ net74 input_buffer\[0\]\[15\] _1369_ _0038_ VDD VSS
+ MUX2_X1
X_1734_ net75 input_buffer\[0\]\[16\] _1369_ _0039_ VDD VSS
+ MUX2_X1
X_1735_ net76 input_buffer\[0\]\[17\] _1369_ _0040_ VDD VSS
+ MUX2_X1
X_1736_ net77 input_buffer\[0\]\[18\] _1369_ _0041_ VDD VSS
+ MUX2_X1
X_1737_ _1368_ _1370_ VDD VSS CLKBUF_X3
X_1738_ net78 input_buffer\[0\]\[19\] _1370_ _0042_ VDD VSS
+ MUX2_X1
X_1739_ net79 input_buffer\[0\]\[1\] _1370_ _0043_ VDD VSS
+ MUX2_X1
X_1740_ net80 input_buffer\[0\]\[20\] _1370_ _0044_ VDD VSS
+ MUX2_X1
X_1741_ net81 input_buffer\[0\]\[21\] _1370_ _0045_ VDD VSS
+ MUX2_X1
X_1742_ net82 input_buffer\[0\]\[22\] _1370_ _0046_ VDD VSS
+ MUX2_X1
X_1743_ net83 input_buffer\[0\]\[23\] _1370_ _0047_ VDD VSS
+ MUX2_X1
X_1744_ net84 dest_id\[0\]\[0\] _1370_ _0048_ VDD VSS MUX2_X1
X_1745_ net85 dest_id\[0\]\[1\] _1370_ _0049_ VDD VSS MUX2_X1
X_1746_ net86 dest_id\[0\]\[2\] _1370_ _0050_ VDD VSS MUX2_X1
X_1747_ net87 _1349_ _1370_ _0051_ VDD VSS MUX2_X1
X_1748_ _1368_ _1371_ VDD VSS CLKBUF_X3
X_1749_ net88 dest_id\[0\]\[4\] _1371_ _0052_ VDD VSS MUX2_X1
X_1750_ net89 dest_id\[0\]\[5\] _1371_ _0053_ VDD VSS MUX2_X1
X_1751_ net90 input_buffer\[0\]\[2\] _1371_ _0054_ VDD VSS
+ MUX2_X1
X_1752_ net91 dest_id\[0\]\[6\] _1371_ _0055_ VDD VSS MUX2_X1
X_1753_ net92 dest_id\[0\]\[7\] _1371_ _0056_ VDD VSS MUX2_X1
X_1754_ net93 input_buffer\[0\]\[3\] _1371_ _0057_ VDD VSS
+ MUX2_X1
X_1755_ net94 input_buffer\[0\]\[4\] _1371_ _0058_ VDD VSS
+ MUX2_X1
X_1756_ net95 input_buffer\[0\]\[5\] _1371_ _0059_ VDD VSS
+ MUX2_X1
X_1757_ net96 input_buffer\[0\]\[6\] _1371_ _0060_ VDD VSS
+ MUX2_X1
X_1758_ net97 input_buffer\[0\]\[7\] _1371_ _0061_ VDD VSS
+ MUX2_X1
X_1759_ net98 input_buffer\[0\]\[8\] _1368_ _0062_ VDD VSS
+ MUX2_X1
X_1760_ net99 input_buffer\[0\]\[9\] _1368_ _0063_ VDD VSS
+ MUX2_X1
X_1761_ input_buffer_valid\[1\] _1372_ VDD VSS CLKBUF_X3
X_1762_ _1372_ _1373_ VDD VSS CLKBUF_X3
X_1763_ _1373_ _1374_ VDD VSS INV_X2
X_1764_ _1363_ _1374_ net33 _1375_ VDD VSS NAND3_X2
X_1765_ _1375_ _1376_ VDD VSS CLKBUF_X3
X_1766_ net1 input_buffer\[1\]\[0\] _1376_ _0064_ VDD VSS
+ MUX2_X1
X_1767_ net2 input_buffer\[1\]\[10\] _1376_ _0065_ VDD VSS
+ MUX2_X1
X_1768_ net3 input_buffer\[1\]\[11\] _1376_ _0066_ VDD VSS
+ MUX2_X1
X_1769_ net4 input_buffer\[1\]\[12\] _1376_ _0067_ VDD VSS
+ MUX2_X1
X_1770_ net5 input_buffer\[1\]\[13\] _1376_ _0068_ VDD VSS
+ MUX2_X1
X_1771_ net6 input_buffer\[1\]\[14\] _1376_ _0069_ VDD VSS
+ MUX2_X1
X_1772_ net7 input_buffer\[1\]\[15\] _1376_ _0070_ VDD VSS
+ MUX2_X1
X_1773_ net8 input_buffer\[1\]\[16\] _1376_ _0071_ VDD VSS
+ MUX2_X1
X_1774_ net9 input_buffer\[1\]\[17\] _1376_ _0072_ VDD VSS
+ MUX2_X1
X_1775_ net10 input_buffer\[1\]\[18\] _1376_ _0073_ VDD VSS
+ MUX2_X1
X_1776_ _1375_ _1377_ VDD VSS CLKBUF_X3
X_1777_ net11 input_buffer\[1\]\[19\] _1377_ _0074_ VDD VSS
+ MUX2_X1
X_1778_ net12 input_buffer\[1\]\[1\] _1377_ _0075_ VDD VSS
+ MUX2_X1
X_1779_ net13 input_buffer\[1\]\[20\] _1377_ _0076_ VDD VSS
+ MUX2_X1
X_1780_ net14 input_buffer\[1\]\[21\] _1377_ _0077_ VDD VSS
+ MUX2_X1
X_1781_ net15 input_buffer\[1\]\[22\] _1377_ _0078_ VDD VSS
+ MUX2_X1
X_1782_ net16 input_buffer\[1\]\[23\] _1377_ _0079_ VDD VSS
+ MUX2_X1
X_1783_ net17 _1333_ _1377_ _0080_ VDD VSS MUX2_X1
X_1784_ net18 _1335_ _1377_ _0081_ VDD VSS MUX2_X1
X_1785_ net19 _1336_ _1377_ _0082_ VDD VSS MUX2_X1
X_1786_ net20 _1338_ _1377_ _0083_ VDD VSS MUX2_X1
X_1787_ _1375_ _1378_ VDD VSS CLKBUF_X3
X_1788_ net21 _1329_ _1378_ _0084_ VDD VSS MUX2_X1
X_1789_ net22 _1328_ _1378_ _0085_ VDD VSS MUX2_X1
X_1790_ net23 input_buffer\[1\]\[2\] _1378_ _0086_ VDD VSS
+ MUX2_X1
X_1791_ net24 _1331_ _1378_ _0087_ VDD VSS MUX2_X1
X_1792_ net25 _1330_ _1378_ _0088_ VDD VSS MUX2_X1
X_1793_ net26 input_buffer\[1\]\[3\] _1378_ _0089_ VDD VSS
+ MUX2_X1
X_1794_ net27 input_buffer\[1\]\[4\] _1378_ _0090_ VDD VSS
+ MUX2_X1
X_1795_ net28 input_buffer\[1\]\[5\] _1378_ _0091_ VDD VSS
+ MUX2_X1
X_1796_ net29 input_buffer\[1\]\[6\] _1378_ _0092_ VDD VSS
+ MUX2_X1
X_1797_ net30 input_buffer\[1\]\[7\] _1378_ _0093_ VDD VSS
+ MUX2_X1
X_1798_ net31 input_buffer\[1\]\[8\] _1375_ _0094_ VDD VSS
+ MUX2_X1
X_1799_ net32 input_buffer\[1\]\[9\] _1375_ _0095_ VDD VSS
+ MUX2_X1
X_1800_ input_buffer\[2\]\[0\] _1379_ VDD VSS BUF_X2
X_1801_ input_buffer_valid\[2\] _1380_ VDD VSS BUF_X4
X_1802_ _1380_ _1381_ VDD VSS INV_X4
X_1803_ _1381_ net133 _1382_ VDD VSS AND2_X1
X_1804_ _1363_ _1382_ _1383_ VDD VSS NAND2_X4
X_1805_ _1383_ _1384_ VDD VSS BUF_X4
X_1806_ net101 _1379_ _1384_ _0096_ VDD VSS MUX2_X1
X_1807_ input_buffer\[2\]\[10\] _1385_ VDD VSS CLKBUF_X2
X_1808_ net102 _1385_ _1384_ _0097_ VDD VSS MUX2_X1
X_1809_ input_buffer\[2\]\[11\] _1386_ VDD VSS CLKBUF_X2
X_1810_ net103 _1386_ _1384_ _0098_ VDD VSS MUX2_X1
X_1811_ input_buffer\[2\]\[12\] _1387_ VDD VSS CLKBUF_X2
X_1812_ net104 _1387_ _1384_ _0099_ VDD VSS MUX2_X1
X_1813_ input_buffer\[2\]\[13\] _1388_ VDD VSS CLKBUF_X2
X_1814_ net105 _1388_ _1384_ _0100_ VDD VSS MUX2_X1
X_1815_ input_buffer\[2\]\[14\] _1389_ VDD VSS CLKBUF_X2
X_1816_ net106 _1389_ _1384_ _0101_ VDD VSS MUX2_X1
X_1817_ input_buffer\[2\]\[15\] _1390_ VDD VSS BUF_X2
X_1818_ net107 _1390_ _1384_ _0102_ VDD VSS MUX2_X1
X_1819_ input_buffer\[2\]\[16\] _1391_ VDD VSS CLKBUF_X2
X_1820_ net108 _1391_ _1384_ _0103_ VDD VSS MUX2_X1
X_1821_ input_buffer\[2\]\[17\] _1392_ VDD VSS CLKBUF_X2
X_1822_ net109 _1392_ _1384_ _0104_ VDD VSS MUX2_X1
X_1823_ input_buffer\[2\]\[18\] _1393_ VDD VSS CLKBUF_X2
X_1824_ net110 _1393_ _1384_ _0105_ VDD VSS MUX2_X1
X_1825_ input_buffer\[2\]\[19\] _1394_ VDD VSS BUF_X2
X_1826_ _1383_ _1395_ VDD VSS CLKBUF_X3
X_1827_ net111 _1394_ _1395_ _0106_ VDD VSS MUX2_X1
X_1828_ input_buffer\[2\]\[1\] _1396_ VDD VSS CLKBUF_X2
X_1829_ net112 _1396_ _1395_ _0107_ VDD VSS MUX2_X1
X_1830_ input_buffer\[2\]\[20\] _1397_ VDD VSS BUF_X2
X_1831_ net113 _1397_ _1395_ _0108_ VDD VSS MUX2_X1
X_1832_ input_buffer\[2\]\[21\] _1398_ VDD VSS CLKBUF_X2
X_1833_ net114 _1398_ _1395_ _0109_ VDD VSS MUX2_X1
X_1834_ input_buffer\[2\]\[22\] _1399_ VDD VSS CLKBUF_X2
X_1835_ net115 _1399_ _1395_ _0110_ VDD VSS MUX2_X1
X_1836_ input_buffer\[2\]\[23\] _1400_ VDD VSS BUF_X2
X_1837_ net116 _1400_ _1395_ _0111_ VDD VSS MUX2_X1
X_1838_ net117 _1314_ _1395_ _0112_ VDD VSS MUX2_X1
X_1839_ net118 _1316_ _1395_ _0113_ VDD VSS MUX2_X1
X_1840_ net119 _1317_ _1395_ _0114_ VDD VSS MUX2_X1
X_1841_ net120 _1319_ _1395_ _0115_ VDD VSS MUX2_X1
X_1842_ _1383_ _1401_ VDD VSS CLKBUF_X3
X_1843_ net121 _1310_ _1401_ _0116_ VDD VSS MUX2_X1
X_1844_ net122 _1309_ _1401_ _0117_ VDD VSS MUX2_X1
X_1845_ input_buffer\[2\]\[2\] _1402_ VDD VSS BUF_X2
X_1846_ net123 _1402_ _1401_ _0118_ VDD VSS MUX2_X1
X_1847_ net124 _1312_ _1401_ _0119_ VDD VSS MUX2_X1
X_1848_ net125 _1311_ _1401_ _0120_ VDD VSS MUX2_X1
X_1849_ input_buffer\[2\]\[3\] _0197_ VDD VSS BUF_X2
X_1850_ net126 _0197_ _1401_ _0121_ VDD VSS MUX2_X1
X_1851_ input_buffer\[2\]\[4\] _0198_ VDD VSS CLKBUF_X2
X_1852_ net127 _0198_ _1401_ _0122_ VDD VSS MUX2_X1
X_1853_ input_buffer\[2\]\[5\] _0199_ VDD VSS CLKBUF_X2
X_1854_ net128 _0199_ _1401_ _0123_ VDD VSS MUX2_X1
X_1855_ input_buffer\[2\]\[6\] _0200_ VDD VSS CLKBUF_X2
X_1856_ net129 _0200_ _1401_ _0124_ VDD VSS MUX2_X1
X_1857_ input_buffer\[2\]\[7\] _0201_ VDD VSS CLKBUF_X2
X_1858_ net130 _0201_ _1401_ _0125_ VDD VSS MUX2_X1
X_1859_ input_buffer\[2\]\[8\] _0202_ VDD VSS CLKBUF_X2
X_1860_ net131 _0202_ _1383_ _0126_ VDD VSS MUX2_X1
X_1861_ input_buffer\[2\]\[9\] _0203_ VDD VSS BUF_X2
X_1862_ net132 _0203_ _1383_ _0127_ VDD VSS MUX2_X1
X_1863_ input_buffer\[3\]\[0\] _0204_ VDD VSS BUF_X2
X_1864_ input_buffer_valid\[3\] _0205_ VDD VSS BUF_X4
X_1865_ _0205_ _0206_ VDD VSS INV_X4
X_1866_ _1363_ _0206_ net167 _0207_ VDD VSS NAND3_X4
X_1867_ _0207_ _0208_ VDD VSS BUF_X4
X_1868_ net135 _0204_ _0208_ _0128_ VDD VSS MUX2_X1
X_1869_ input_buffer\[3\]\[10\] _0209_ VDD VSS BUF_X2
X_1870_ net136 _0209_ _0208_ _0129_ VDD VSS MUX2_X1
X_1871_ input_buffer\[3\]\[11\] _0210_ VDD VSS BUF_X2
X_1872_ net137 _0210_ _0208_ _0130_ VDD VSS MUX2_X1
X_1873_ input_buffer\[3\]\[12\] _0211_ VDD VSS BUF_X2
X_1874_ net138 _0211_ _0208_ _0131_ VDD VSS MUX2_X1
X_1875_ input_buffer\[3\]\[13\] _0212_ VDD VSS BUF_X2
X_1876_ net139 _0212_ _0208_ _0132_ VDD VSS MUX2_X1
X_1877_ input_buffer\[3\]\[14\] _0213_ VDD VSS BUF_X2
X_1878_ net140 _0213_ _0208_ _0133_ VDD VSS MUX2_X1
X_1879_ input_buffer\[3\]\[15\] _0214_ VDD VSS BUF_X2
X_1880_ net141 _0214_ _0208_ _0134_ VDD VSS MUX2_X1
X_1881_ input_buffer\[3\]\[16\] _0215_ VDD VSS BUF_X2
X_1882_ net142 _0215_ _0208_ _0135_ VDD VSS MUX2_X1
X_1883_ input_buffer\[3\]\[17\] _0216_ VDD VSS BUF_X2
X_1884_ net143 _0216_ _0208_ _0136_ VDD VSS MUX2_X1
X_1885_ input_buffer\[3\]\[18\] _0217_ VDD VSS BUF_X2
X_1886_ net144 _0217_ _0208_ _0137_ VDD VSS MUX2_X1
X_1887_ input_buffer\[3\]\[19\] _0218_ VDD VSS BUF_X2
X_1888_ _0207_ _0219_ VDD VSS CLKBUF_X3
X_1889_ net145 _0218_ _0219_ _0138_ VDD VSS MUX2_X1
X_1890_ input_buffer\[3\]\[1\] _0220_ VDD VSS BUF_X2
X_1891_ net146 _0220_ _0219_ _0139_ VDD VSS MUX2_X1
X_1892_ input_buffer\[3\]\[20\] _0221_ VDD VSS BUF_X2
X_1893_ net147 _0221_ _0219_ _0140_ VDD VSS MUX2_X1
X_1894_ input_buffer\[3\]\[21\] _0222_ VDD VSS BUF_X2
X_1895_ net148 _0222_ _0219_ _0141_ VDD VSS MUX2_X1
X_1896_ input_buffer\[3\]\[22\] _0223_ VDD VSS BUF_X2
X_1897_ net149 _0223_ _0219_ _0142_ VDD VSS MUX2_X1
X_1898_ input_buffer\[3\]\[23\] _0224_ VDD VSS BUF_X2
X_1899_ net150 _0224_ _0219_ _0143_ VDD VSS MUX2_X1
X_1900_ net151 _1300_ _0219_ _0144_ VDD VSS MUX2_X1
X_1901_ net152 _1305_ _0219_ _0145_ VDD VSS MUX2_X1
X_1902_ net153 _1295_ _0219_ _0146_ VDD VSS MUX2_X1
X_1903_ net154 _1302_ _0219_ _0147_ VDD VSS MUX2_X1
X_1904_ _0207_ _0225_ VDD VSS CLKBUF_X3
X_1905_ net155 _1290_ _0225_ _0148_ VDD VSS MUX2_X1
X_1906_ net156 _1289_ _0225_ _0149_ VDD VSS MUX2_X1
X_1907_ input_buffer\[3\]\[2\] _0226_ VDD VSS BUF_X2
X_1908_ net157 _0226_ _0225_ _0150_ VDD VSS MUX2_X1
X_1909_ net158 _1292_ _0225_ _0151_ VDD VSS MUX2_X1
X_1910_ net159 _1291_ _0225_ _0152_ VDD VSS MUX2_X1
X_1911_ input_buffer\[3\]\[3\] _0227_ VDD VSS BUF_X2
X_1912_ net160 _0227_ _0225_ _0153_ VDD VSS MUX2_X1
X_1913_ input_buffer\[3\]\[4\] _0228_ VDD VSS BUF_X2
X_1914_ net161 _0228_ _0225_ _0154_ VDD VSS MUX2_X1
X_1915_ input_buffer\[3\]\[5\] _0229_ VDD VSS BUF_X2
X_1916_ net162 _0229_ _0225_ _0155_ VDD VSS MUX2_X1
X_1917_ input_buffer\[3\]\[6\] _0230_ VDD VSS BUF_X2
X_1918_ net163 _0230_ _0225_ _0156_ VDD VSS MUX2_X1
X_1919_ input_buffer\[3\]\[7\] _0231_ VDD VSS BUF_X2
X_1920_ net164 _0231_ _0225_ _0157_ VDD VSS MUX2_X1
X_1921_ input_buffer\[3\]\[8\] _0232_ VDD VSS BUF_X2
X_1922_ net165 _0232_ _0207_ _0158_ VDD VSS MUX2_X1
X_1923_ input_buffer\[3\]\[9\] _0233_ VDD VSS CLKBUF_X2
X_1924_ net166 _0233_ _0207_ _0159_ VDD VSS MUX2_X1
X_1925_ input_buffer\[4\]\[0\] _0234_ VDD VSS BUF_X2
X_1926_ input_buffer_valid\[4\] _0235_ VDD VSS BUF_X2
X_1927_ _0235_ _0236_ VDD VSS INV_X2
X_1928_ _0236_ net67 _1363_ _0237_ VDD VSS NAND3_X4
X_1929_ _0237_ _0238_ VDD VSS CLKBUF_X3
X_1930_ net35 _0234_ _0238_ _0160_ VDD VSS MUX2_X1
X_1931_ input_buffer\[4\]\[10\] _0239_ VDD VSS BUF_X2
X_1932_ net36 _0239_ _0238_ _0161_ VDD VSS MUX2_X1
X_1933_ input_buffer\[4\]\[11\] _0240_ VDD VSS BUF_X2
X_1934_ net37 _0240_ _0238_ _0162_ VDD VSS MUX2_X1
X_1935_ input_buffer\[4\]\[12\] _0241_ VDD VSS BUF_X2
X_1936_ net38 _0241_ _0238_ _0163_ VDD VSS MUX2_X1
X_1937_ input_buffer\[4\]\[13\] _0242_ VDD VSS BUF_X2
X_1938_ net39 _0242_ _0238_ _0164_ VDD VSS MUX2_X1
X_1939_ input_buffer\[4\]\[14\] _0243_ VDD VSS BUF_X2
X_1940_ net40 _0243_ _0238_ _0165_ VDD VSS MUX2_X1
X_1941_ input_buffer\[4\]\[15\] _0244_ VDD VSS BUF_X2
X_1942_ net41 _0244_ _0238_ _0166_ VDD VSS MUX2_X1
X_1943_ input_buffer\[4\]\[16\] _0245_ VDD VSS BUF_X2
X_1944_ net42 _0245_ _0238_ _0167_ VDD VSS MUX2_X1
X_1945_ input_buffer\[4\]\[17\] _0246_ VDD VSS CLKBUF_X2
X_1946_ net43 _0246_ _0238_ _0168_ VDD VSS MUX2_X1
X_1947_ input_buffer\[4\]\[18\] _0247_ VDD VSS CLKBUF_X2
X_1948_ net44 _0247_ _0238_ _0169_ VDD VSS MUX2_X1
X_1949_ input_buffer\[4\]\[19\] _0248_ VDD VSS CLKBUF_X2
X_1950_ _0237_ _0249_ VDD VSS CLKBUF_X3
X_1951_ net45 _0248_ _0249_ _0170_ VDD VSS MUX2_X1
X_1952_ input_buffer\[4\]\[1\] _0250_ VDD VSS CLKBUF_X2
X_1953_ net46 _0250_ _0249_ _0171_ VDD VSS MUX2_X1
X_1954_ input_buffer\[4\]\[20\] _0251_ VDD VSS BUF_X2
X_1955_ net47 _0251_ _0249_ _0172_ VDD VSS MUX2_X1
X_1956_ input_buffer\[4\]\[21\] _0252_ VDD VSS CLKBUF_X2
X_1957_ net48 _0252_ _0249_ _0173_ VDD VSS MUX2_X1
X_1958_ input_buffer\[4\]\[22\] _0253_ VDD VSS CLKBUF_X2
X_1959_ net49 _0253_ _0249_ _0174_ VDD VSS MUX2_X1
X_1960_ input_buffer\[4\]\[23\] _0254_ VDD VSS CLKBUF_X2
X_1961_ net50 _0254_ _0249_ _0175_ VDD VSS MUX2_X1
X_1962_ net51 _1277_ _0249_ _0176_ VDD VSS MUX2_X1
X_1963_ net52 _1279_ _0249_ _0177_ VDD VSS MUX2_X1
X_1964_ net53 _1280_ _0249_ _0178_ VDD VSS MUX2_X1
X_1965_ net54 _1282_ _0249_ _0179_ VDD VSS MUX2_X1
X_1966_ _0237_ _0255_ VDD VSS CLKBUF_X3
X_1967_ net55 dest_id\[4\]\[4\] _0255_ _0180_ VDD VSS MUX2_X1
X_1968_ net56 dest_id\[4\]\[5\] _0255_ _0181_ VDD VSS MUX2_X1
X_1969_ input_buffer\[4\]\[2\] _0256_ VDD VSS BUF_X2
X_1970_ net57 _0256_ _0255_ _0182_ VDD VSS MUX2_X1
X_1971_ net58 dest_id\[4\]\[6\] _0255_ _0183_ VDD VSS MUX2_X1
X_1972_ net59 dest_id\[4\]\[7\] _0255_ _0184_ VDD VSS MUX2_X1
X_1973_ input_buffer\[4\]\[3\] _0257_ VDD VSS BUF_X2
X_1974_ net60 _0257_ _0255_ _0185_ VDD VSS MUX2_X1
X_1975_ input_buffer\[4\]\[4\] _0258_ VDD VSS BUF_X2
X_1976_ net61 _0258_ _0255_ _0186_ VDD VSS MUX2_X1
X_1977_ input_buffer\[4\]\[5\] _0259_ VDD VSS BUF_X2
X_1978_ net62 _0259_ _0255_ _0187_ VDD VSS MUX2_X1
X_1979_ input_buffer\[4\]\[6\] _0260_ VDD VSS BUF_X2
X_1980_ net63 _0260_ _0255_ _0188_ VDD VSS MUX2_X1
X_1981_ input_buffer\[4\]\[7\] _0261_ VDD VSS BUF_X2
X_1982_ net64 _0261_ _0255_ _0189_ VDD VSS MUX2_X1
X_1983_ input_buffer\[4\]\[8\] _0262_ VDD VSS CLKBUF_X2
X_1984_ net65 _0262_ _0237_ _0190_ VDD VSS MUX2_X1
X_1985_ input_buffer\[4\]\[9\] _0263_ VDD VSS BUF_X2
X_1986_ net66 _0263_ _0237_ _0191_ VDD VSS MUX2_X1
X_1987_ _1364_ _0264_ VDD VSS CLKBUF_X3
X_1988_ _1363_ _0264_ net100 _0265_ VDD VSS OAI21_X1
X_1989_ local_out_ready _0266_ VDD VSS CLKBUF_X2
X_1990_ _0266_ _1543_ _0267_ VDD VSS NOR2_X1
X_1991_ _1536_ _0268_ VDD VSS BUF_X2
X_1992_ _1544_ _0269_ VDD VSS CLKBUF_X3
X_1993_ _0269_ _0270_ VDD VSS BUF_X4
X_1994_ _1533_ _0268_ _1541_ _0270_ _0271_ VDD VSS NOR4_X2
X_1995_ north_out_ready _0272_ VDD VSS CLKBUF_X2
X_1996_ _0272_ _0273_ VDD VSS INV_X1
X_1997_ net34 _0274_ VDD VSS INV_X1
X_1998_ _0274_ dest_id\[0\]\[1\] _0275_ VDD VSS AND2_X1
X_1999_ _0273_ _1360_ _0275_ _1357_ _0276_ VDD VSS AOI22_X2
X_2000_ net168 _0277_ VDD VSS INV_X1
X_2001_ net134 _0278_ VDD VSS INV_X1
X_2002_ _0277_ _1351_ _1354_ _0278_ _0279_ VDD VSS AOI22_X2
X_2003_ _1349_ _0276_ _0279_ dest_id\[0\]\[1\] _0280_ VDD
+ VSS OAI22_X2
X_2004_ _0267_ _0271_ _1543_ _1359_ _0280_ _0281_ VDD VSS
+ AOI221_X2
X_2005_ _1367_ net237 _0282_ VDD VSS NOR2_X1
X_2006_ _0265_ _0281_ _0282_ _0192_ VDD VSS AOI21_X1
X_2007_ _1373_ _0283_ VDD VSS CLKBUF_X3
X_2008_ _0283_ _0284_ VDD VSS BUF_X4
X_2009_ _1363_ _0284_ net33 _0285_ VDD VSS OAI21_X1
X_2010_ _0266_ _1558_ _0286_ VDD VSS NOR2_X1
X_2011_ _1554_ _0287_ VDD VSS CLKBUF_X3
X_2012_ _1556_ _0288_ VDD VSS BUF_X2
X_2013_ _1559_ _1548_ _0287_ _0288_ _0289_ VDD VSS NOR4_X1
X_2014_ _1558_ _0289_ _0290_ VDD VSS AND2_X1
X_2015_ _1374_ net169 _0286_ _0290_ _0291_ VDD VSS NOR4_X1
X_2016_ _0274_ _1335_ _1343_ _0292_ VDD VSS NAND3_X1
X_2017_ _1334_ _1335_ _1336_ _0293_ VDD VSS OR3_X4
X_2018_ _0292_ _0293_ _0272_ _0294_ VDD VSS OAI21_X1
X_2019_ _0278_ _1348_ _0295_ VDD VSS NAND2_X1
X_2020_ _1334_ _1347_ _1336_ _0296_ VDD VSS NAND3_X4
X_2021_ _0295_ _0296_ net168 _0297_ VDD VSS OAI21_X1
X_2022_ _1345_ _0294_ _0297_ _1346_ _0298_ VDD VSS AOI22_X1
X_2023_ _0285_ _0291_ _0298_ _0193_ VDD VSS AOI21_X1
X_2024_ _1363_ _0299_ VDD VSS INV_X1
X_2025_ _1381_ _0266_ _1322_ _0300_ VDD VSS AOI21_X1
X_2026_ net134 net168 _1562_ _0301_ VDD VSS MUX2_X1
X_2027_ _1563_ _0302_ VDD VSS BUF_X2
X_2028_ _1569_ _0303_ VDD VSS BUF_X2
X_2029_ _1571_ _0304_ VDD VSS BUF_X2
X_2030_ _1574_ _0302_ _0303_ _0304_ _0305_ VDD VSS OR4_X1
X_2031_ _1568_ _0301_ _0305_ _0306_ VDD VSS NAND3_X1
X_2032_ _0272_ net34 _1321_ _0307_ VDD VSS MUX2_X1
X_2033_ _1315_ _1316_ _1317_ _0308_ VDD VSS OR3_X4
X_2034_ _1315_ _1316_ _1317_ _0309_ VDD VSS NAND3_X1
X_2035_ _1319_ _0308_ _0309_ _0310_ VDD VSS AOI21_X2
X_2036_ _1313_ _0305_ _0307_ _0310_ _0311_ VDD VSS NAND4_X1
X_2037_ _0300_ _0306_ _0311_ _0312_ VDD VSS NAND3_X1
X_2038_ _1382_ net271 _1380_ _0313_ VDD VSS AOI21_X1
X_2039_ _0299_ _0312_ _0313_ _0194_ VDD VSS AOI21_X1
X_2040_ _0205_ _0314_ VDD VSS CLKBUF_X3
X_2041_ _1363_ _0314_ net167 _0315_ VDD VSS OAI21_X1
X_2042_ _0206_ net305 _0316_ VDD VSS OR2_X1
X_2043_ net134 _1580_ _0317_ VDD VSS NAND2_X1
X_2044_ _0277_ _1298_ _0318_ VDD VSS NAND2_X1
X_2045_ _1306_ _1307_ _0318_ _0319_ VDD VSS AOI21_X1
X_2046_ _0274_ _1305_ _1301_ _0320_ VDD VSS NAND3_X1
X_2047_ _1294_ _1305_ _1295_ _0321_ VDD VSS OR3_X2
X_2048_ _0320_ _0321_ _0272_ _0322_ VDD VSS OAI21_X1
X_2049_ _0316_ _0317_ _0319_ _0322_ _1304_ _0323_ VDD VSS
+ AOI221_X2
X_2050_ _0266_ _1299_ _0324_ VDD VSS NAND2_X1
X_2051_ _1589_ _0325_ VDD VSS CLKBUF_X3
X_2052_ _0325_ _0326_ VDD VSS BUF_X4
X_2053_ _1584_ _0327_ VDD VSS BUF_X2
X_2054_ _0326_ _1578_ _0327_ _1586_ _0328_ VDD VSS NOR4_X1
X_2055_ _0324_ _0328_ _1299_ _0329_ VDD VSS OAI21_X1
X_2056_ _0315_ _0323_ _0329_ _0195_ VDD VSS AOI21_X1
X_2057_ _0235_ _0330_ VDD VSS BUF_X4