* CDL Netlist generated by OpenROAD

*.BUSDELIMITER [

.SUBCKT memory_mapped_fifo clk ext_empty ext_full ext_rd_data[0]
+ ext_rd_data[10] ext_rd_data[11] ext_rd_data[12] ext_rd_data[13]
+ ext_rd_data[14] ext_rd_data[15] ext_rd_data[16] ext_rd_data[17]
+ ext_rd_data[18] ext_rd_data[19] ext_rd_data[1] ext_rd_data[20]
+ ext_rd_data[21] ext_rd_data[22] ext_rd_data[23] ext_rd_data[24]
+ ext_rd_data[25] ext_rd_data[26] ext_rd_data[27] ext_rd_data[28]
+ ext_rd_data[29] ext_rd_data[2] ext_rd_data[30] ext_rd_data[31]
+ ext_rd_data[3] ext_rd_data[4] ext_rd_data[5] ext_rd_data[6]
+ ext_rd_data[7] ext_rd_data[8] ext_rd_data[9] ext_rd_en ext_wr_data[0]
+ ext_wr_data[10] ext_wr_data[11] ext_wr_data[12] ext_wr_data[13]
+ ext_wr_data[14] ext_wr_data[15] ext_wr_data[16] ext_wr_data[17]
+ ext_wr_data[18] ext_wr_data[19] ext_wr_data[1] ext_wr_data[20]
+ ext_wr_data[21] ext_wr_data[22] ext_wr_data[23] ext_wr_data[24]
+ ext_wr_data[25] ext_wr_data[26] ext_wr_data[27] ext_wr_data[28]
+ ext_wr_data[29] ext_wr_data[2] ext_wr_data[30] ext_wr_data[31]
+ ext_wr_data[3] ext_wr_data[4] ext_wr_data[5] ext_wr_data[6]
+ ext_wr_data[7] ext_wr_data[8] ext_wr_data[9] ext_wr_en mem_addr[0]
+ mem_addr[1] mem_addr[2] mem_addr[3] mem_rdata[0] mem_rdata[10]
+ mem_rdata[11] mem_rdata[12] mem_rdata[13] mem_rdata[14] mem_rdata[15]
+ mem_rdata[16] mem_rdata[17] mem_rdata[18] mem_rdata[19] mem_rdata[1]
+ mem_rdata[20] mem_rdata[21] mem_rdata[22] mem_rdata[23] mem_rdata[24]
+ mem_rdata[25] mem_rdata[26] mem_rdata[27] mem_rdata[28] mem_rdata[29]
+ mem_rdata[2] mem_rdata[30] mem_rdata[31] mem_rdata[3] mem_rdata[4]
+ mem_rdata[5] mem_rdata[6] mem_rdata[7] mem_rdata[8] mem_rdata[9]
+ mem_ready mem_valid mem_wdata[0] mem_wdata[10] mem_wdata[11]
+ mem_wdata[12] mem_wdata[13] mem_wdata[14] mem_wdata[15] mem_wdata[16]
+ mem_wdata[17] mem_wdata[18] mem_wdata[19] mem_wdata[1] mem_wdata[20]
+ mem_wdata[21] mem_wdata[22] mem_wdata[23] mem_wdata[24] mem_wdata[25]
+ mem_wdata[26] mem_wdata[27] mem_wdata[28] mem_wdata[29] mem_wdata[2]
+ mem_wdata[30] mem_wdata[31] mem_wdata[3] mem_wdata[4] mem_wdata[5]
+ mem_wdata[6] mem_wdata[7] mem_wdata[8] mem_wdata[9] mem_write
+ rst_n
X_0905_ _0886_ _0874_ _0885_ VSS VSS VDD VDD _0741_ sky130_fd_sc_hd__a21o_1
X_0906_ _0883_ _0741_ _0882_ VSS VSS VDD VDD _0742_ sky130_fd_sc_hd__a21oi_2
X_0907_ wr_ptr\[4\] rd_ptr\[4\] VSS VSS VDD VDD _0743_ sky130_fd_sc_hd__xor2_2
X_0908_ _0742_ _0743_ VSS VSS VDD VDD _0744_ sky130_fd_sc_hd__xnor2_4
X_0909_ _0886_ _0874_ VSS VSS VDD VDD _0745_ sky130_fd_sc_hd__xnor2_1
X_0910_ _0875_ _0745_ _0878_ VSS VSS VDD VDD _0746_ sky130_fd_sc_hd__nand3b_1
X_0911_ _0877_ _0880_ VSS VSS VDD VDD _0747_ sky130_fd_sc_hd__nand2b_1
X_0912_ _0879_ _0885_ VSS VSS VDD VDD _0748_ sky130_fd_sc_hd__nor2_1
X_0913_ _0886_ _0885_ VSS VSS VDD VDD _0749_ sky130_fd_sc_hd__nor2_1
X_0914_ _0747_ _0748_ _0749_ VSS VSS VDD VDD _0750_ sky130_fd_sc_hd__a21oi_4
X_0915_ _0883_ _0750_ VSS VSS VDD VDD _0751_ sky130_fd_sc_hd__xor2_2
X_0916_ _0744_ _0746_ _0751_ VSS VSS VDD VDD net75 sky130_fd_sc_hd__nor3_1
X_0917_ net39 VSS VSS VDD VDD _0752_ sky130_fd_sc_hd__buf_16
X_0918_ mem_addr[3] VSS VSS VDD VDD _0753_ sky130_fd_sc_hd__buf_2
X_0919_ net37 net36 net38 _0753_ VSS VSS VDD VDD _0754_ sky130_fd_sc_hd__nor4_4
X_0920_ _0752_ net72 _0754_ VSS VSS VDD VDD _0755_ sky130_fd_sc_hd__and3_1
X_0921_ _0744_ _0746_ _0751_ _0755_ net35 VSS VSS VDD VDD
+ _0756_ sky130_fd_sc_hd__o32ai_4
X_0922_ _0756_ VSS VSS VDD VDD _0757_ sky130_fd_sc_hd__buf_6
X_0923_ net38 _0753_ VSS VSS VDD VDD _0758_ sky130_fd_sc_hd__nor2b_1
X_0924_ net37 net36 VSS VSS VDD VDD _0759_ sky130_fd_sc_hd__nor2_1
X_0925_ net40 net51 _0759_ VSS VSS VDD VDD _0760_ sky130_fd_sc_hd__o21a_1
X_0926_ _0752_ net72 _0758_ _0760_ VSS VSS VDD VDD _0761_
+ sky130_fd_sc_hd__and4_1
X_0927_ _0761_ VSS VSS VDD VDD _0762_ sky130_fd_sc_hd__buf_2
X_0928_ _0762_ VSS VSS VDD VDD _0763_ sky130_fd_sc_hd__clkbuf_8
X_0929_ _0763_ VSS VSS VDD VDD _0764_ sky130_fd_sc_hd__buf_4
X_0930_ wr_ptr\[2\] net73 VSS VSS VDD VDD _0765_ sky130_fd_sc_hd__nand2b_4
X_0931_ wr_ptr\[3\] VSS VSS VDD VDD _0766_ sky130_fd_sc_hd__buf_2
X_0932_ _0766_ _0897_ VSS VSS VDD VDD _0767_ sky130_fd_sc_hd__nand2_2
X_0933_ _0757_ _0764_ _0765_ _0767_ VSS VSS VDD VDD _0007_
+ sky130_fd_sc_hd__nor4_4
X_0934_ net73 wr_ptr\[2\] VSS VSS VDD VDD _0768_ sky130_fd_sc_hd__nand2_4
X_0935_ _0757_ _0764_ _0767_ _0768_ VSS VSS VDD VDD _0003_
+ sky130_fd_sc_hd__nor4_4
X_0936_ _0766_ _0756_ _0762_ _0765_ VSS VSS VDD VDD _0769_
+ sky130_fd_sc_hd__nor4_2
X_0937_ _0903_ _0769_ VSS VSS VDD VDD _0012_ sky130_fd_sc_hd__and2_4
X_0938_ _0766_ _0903_ VSS VSS VDD VDD _0770_ sky130_fd_sc_hd__nand2_2
X_0939_ _0757_ _0763_ _0765_ _0770_ VSS VSS VDD VDD _0004_
+ sky130_fd_sc_hd__nor4_4
X_0940_ _0766_ _0756_ _0762_ _0768_ VSS VSS VDD VDD _0771_
+ sky130_fd_sc_hd__nor4_2
X_0941_ _0897_ _0771_ VSS VSS VDD VDD _0011_ sky130_fd_sc_hd__and2_4
X_0942_ _0766_ _0899_ VSS VSS VDD VDD _0772_ sky130_fd_sc_hd__nand2_1
X_0943_ _0757_ _0763_ _0765_ _0772_ VSS VSS VDD VDD _0005_
+ sky130_fd_sc_hd__nor4_4
X_0944_ _0901_ _0771_ VSS VSS VDD VDD _0010_ sky130_fd_sc_hd__and2_4
X_0945_ _0766_ _0901_ VSS VSS VDD VDD _0773_ sky130_fd_sc_hd__nand2_2
X_0946_ _0757_ _0763_ _0765_ _0773_ VSS VSS VDD VDD _0006_
+ sky130_fd_sc_hd__nor4_4
X_0947_ _0899_ _0771_ VSS VSS VDD VDD _0009_ sky130_fd_sc_hd__and2_4
X_0948_ _0757_ _0763_ _0768_ _0773_ VSS VSS VDD VDD _0002_
+ sky130_fd_sc_hd__nor4_4
X_0949_ _0903_ _0771_ VSS VSS VDD VDD _0008_ sky130_fd_sc_hd__and2_4
X_0950_ _0886_ _0874_ VSS VSS VDD VDD _0774_ sky130_fd_sc_hd__xor2_2
X_0951_ _0875_ _0774_ _0878_ VSS VSS VDD VDD _0775_ sky130_fd_sc_hd__nor3b_4
X_0952_ _0883_ _0750_ VSS VSS VDD VDD _0776_ sky130_fd_sc_hd__xnor2_4
X_0953_ _0744_ _0775_ _0776_ VSS VSS VDD VDD _0777_ sky130_fd_sc_hd__nand3_2
X_0954_ _0777_ VSS VSS VDD VDD net74 sky130_fd_sc_hd__inv_1
X_0955_ _0897_ _0769_ VSS VSS VDD VDD _0015_ sky130_fd_sc_hd__and2_4
X_0956_ _0757_ _0763_ _0768_ _0770_ VSS VSS VDD VDD _0000_
+ sky130_fd_sc_hd__nor4_4
X_0957_ _0757_ _0763_ _0768_ _0772_ VSS VSS VDD VDD _0001_
+ sky130_fd_sc_hd__nor4_2
X_0958_ _0901_ _0769_ VSS VSS VDD VDD _0014_ sky130_fd_sc_hd__and2_4
X_0959_ _0899_ _0769_ VSS VSS VDD VDD _0013_ sky130_fd_sc_hd__and2_4
X_0960_ _0752_ VSS VSS VDD VDD _0778_ sky130_fd_sc_hd__buf_8
X_0961_ net33 net70 _0778_ VSS VSS VDD VDD _0046_ sky130_fd_sc_hd__mux2_4
X_0962_ net34 net71 _0778_ VSS VSS VDD VDD _0047_ sky130_fd_sc_hd__mux2_4
X_0963_ net4 net41 _0778_ VSS VSS VDD VDD _0017_ sky130_fd_sc_hd__mux2_4
X_0964_ net5 net42 _0778_ VSS VSS VDD VDD _0018_ sky130_fd_sc_hd__mux2_4
X_0965_ net6 net43 _0778_ VSS VSS VDD VDD _0019_ sky130_fd_sc_hd__mux2_8
X_0966_ net7 net44 _0778_ VSS VSS VDD VDD _0020_ sky130_fd_sc_hd__mux2_8
X_0967_ net8 net45 _0778_ VSS VSS VDD VDD _0021_ sky130_fd_sc_hd__mux2_4
X_0968_ net9 net46 _0778_ VSS VSS VDD VDD _0022_ sky130_fd_sc_hd__mux2_8
X_0969_ net10 net47 _0778_ VSS VSS VDD VDD _0023_ sky130_fd_sc_hd__mux2_4
X_0970_ net11 net48 _0778_ VSS VSS VDD VDD _0024_ sky130_fd_sc_hd__mux2_4
X_0971_ _0752_ VSS VSS VDD VDD _0779_ sky130_fd_sc_hd__buf_16
X_0972_ net12 net49 _0779_ VSS VSS VDD VDD _0025_ sky130_fd_sc_hd__mux2_4
X_0973_ net13 net50 _0779_ VSS VSS VDD VDD _0026_ sky130_fd_sc_hd__mux2_4
X_0974_ net15 net52 _0779_ VSS VSS VDD VDD _0028_ sky130_fd_sc_hd__mux2_8
X_0975_ net16 net53 _0779_ VSS VSS VDD VDD _0029_ sky130_fd_sc_hd__mux2_4
X_0976_ net17 net54 _0779_ VSS VSS VDD VDD _0030_ sky130_fd_sc_hd__mux2_8
X_0977_ net18 net55 _0779_ VSS VSS VDD VDD _0031_ sky130_fd_sc_hd__mux2_4
X_0978_ net19 net56 _0779_ VSS VSS VDD VDD _0032_ sky130_fd_sc_hd__mux2_8
X_0979_ net20 net57 _0779_ VSS VSS VDD VDD _0033_ sky130_fd_sc_hd__mux2_4
X_0980_ net21 net58 _0779_ VSS VSS VDD VDD _0034_ sky130_fd_sc_hd__mux2_4
X_0981_ net22 net59 _0779_ VSS VSS VDD VDD _0035_ sky130_fd_sc_hd__mux2_8
X_0982_ _0752_ VSS VSS VDD VDD _0780_ sky130_fd_sc_hd__buf_16
X_0983_ net23 net60 _0780_ VSS VSS VDD VDD _0036_ sky130_fd_sc_hd__mux2_4
X_0984_ net24 net61 _0780_ VSS VSS VDD VDD _0037_ sky130_fd_sc_hd__mux2_4
X_0985_ net26 net63 _0780_ VSS VSS VDD VDD _0039_ sky130_fd_sc_hd__mux2_4
X_0986_ net27 net64 _0780_ VSS VSS VDD VDD _0040_ sky130_fd_sc_hd__mux2_8
X_0987_ net3 net40 _0780_ VSS VSS VDD VDD _0016_ sky130_fd_sc_hd__mux2_8
X_0988_ net14 net51 _0780_ VSS VSS VDD VDD _0027_ sky130_fd_sc_hd__mux2_8
X_0989_ net25 net62 _0780_ VSS VSS VDD VDD _0038_ sky130_fd_sc_hd__mux2_8
X_0990_ net28 net65 _0780_ VSS VSS VDD VDD _0041_ sky130_fd_sc_hd__mux2_4
X_0991_ net29 net66 _0780_ VSS VSS VDD VDD _0042_ sky130_fd_sc_hd__mux2_4
X_0992_ net30 net67 _0780_ VSS VSS VDD VDD _0043_ sky130_fd_sc_hd__mux2_8
X_0993_ net31 net68 _0752_ VSS VSS VDD VDD _0044_ sky130_fd_sc_hd__mux2_4
X_0994_ net32 net69 _0752_ VSS VSS VDD VDD _0045_ sky130_fd_sc_hd__mux2_4
X_0995_ _0877_ VSS VSS VDD VDD _0873_ sky130_fd_sc_hd__inv_1
X_0996_ rd_ptr\[3\] VSS VSS VDD VDD _0781_ sky130_fd_sc_hd__buf_4
X_0997_ _0781_ VSS VSS VDD VDD _0782_ sky130_fd_sc_hd__inv_1
X_0998_ _0782_ VSS VSS VDD VDD _0783_ sky130_fd_sc_hd__buf_6
X_0999_ _0783_ VSS VSS VDD VDD _0881_ sky130_fd_sc_hd__buf_6
X_1000_ rd_ptr\[2\] VSS VSS VDD VDD _0784_ sky130_fd_sc_hd__buf_6
X_1001_ _0784_ VSS VSS VDD VDD _0785_ sky130_fd_sc_hd__clkinv_4
X_1002_ _0785_ VSS VSS VDD VDD _0884_ sky130_fd_sc_hd__buf_6
X_1003_ rd_ptr\[0\] VSS VSS VDD VDD _0887_ sky130_fd_sc_hd__inv_1
X_1004_ wr_ptr\[0\] VSS VSS VDD VDD _0876_ sky130_fd_sc_hd__inv_1
X_1005_ rd_ptr\[1\] VSS VSS VDD VDD _0872_ sky130_fd_sc_hd__clkinvlp_4
X_1006_ wr_ptr\[1\] VSS VSS VDD VDD _0896_ sky130_fd_sc_hd__inv_1
X_1007_ net72 _0752_ VSS VSS VDD VDD _0786_ sky130_fd_sc_hd__nor2b_2
X_1008_ _0754_ _0786_ net2 VSS VSS VDD VDD _0787_ sky130_fd_sc_hd__a21oi_1
X_1009_ _0744_ _0775_ _0776_ _0787_ VSS VSS VDD VDD _0788_
+ sky130_fd_sc_hd__a31oi_4
X_1010_ _0762_ _0788_ VSS VSS VDD VDD _0789_ sky130_fd_sc_hd__nor2_4
X_1011_ _0789_ VSS VSS VDD VDD _0790_ sky130_fd_sc_hd__buf_4
X_1012_ _0752_ net72 _0758_ _0760_ VSS VSS VDD VDD _0791_
+ sky130_fd_sc_hd__nand4_4
X_1013_ _0791_ _0788_ VSS VSS VDD VDD _0792_ sky130_fd_sc_hd__and2_0
X_1014_ _0792_ VSS VSS VDD VDD _0793_ sky130_fd_sc_hd__clkbuf_4
X_1015_ _0793_ VSS VSS VDD VDD _0794_ sky130_fd_sc_hd__buf_6
X_1016_ _0894_ VSS VSS VDD VDD _0795_ sky130_fd_sc_hd__buf_4
X_1017_ _0795_ VSS VSS VDD VDD _0796_ sky130_fd_sc_hd__buf_6
X_1018_ _0892_ VSS VSS VDD VDD _0797_ sky130_fd_sc_hd__buf_2
X_1019_ _0797_ VSS VSS VDD VDD _0798_ sky130_fd_sc_hd__buf_4
X_1020_ _0781_ rd_ptr\[2\] VSS VSS VDD VDD _0799_ sky130_fd_sc_hd__nand2b_1
X_1021_ _0796_ mem\[7\]\[0\] mem\[5\]\[0\] _0798_ _0799_ VSS
+ VSS VDD VDD _0800_ sky130_fd_sc_hd__a221oi_1
X_1022_ _0888_ VSS VSS VDD VDD _0801_ sky130_fd_sc_hd__buf_6
X_1023_ _0801_ VSS VSS VDD VDD _0802_ sky130_fd_sc_hd__buf_6
X_1024_ _0890_ VSS VSS VDD VDD _0803_ sky130_fd_sc_hd__buf_4
X_1025_ _0803_ VSS VSS VDD VDD _0804_ sky130_fd_sc_hd__buf_6
X_1026_ mem\[4\]\[0\] _0802_ _0804_ mem\[6\]\[0\] VSS VSS
+ VDD VDD _0805_ sky130_fd_sc_hd__a22oi_1
X_1027_ _0781_ VSS VSS VDD VDD _0806_ sky130_fd_sc_hd__buf_6
X_1028_ _0894_ mem\[11\]\[0\] mem\[10\]\[0\] _0890_ _0797_
+ mem\[9\]\[0\] VSS VSS VDD VDD _0807_ sky130_fd_sc_hd__a222oi_1
X_1029_ mem\[8\]\[0\] _0801_ _0784_ VSS VSS VDD VDD _0808_
+ sky130_fd_sc_hd__a21oi_1
X_1030_ _0806_ _0807_ _0808_ VSS VSS VDD VDD _0809_ sky130_fd_sc_hd__and3_1
X_1031_ _0800_ _0805_ _0809_ VSS VSS VDD VDD _0810_ sky130_fd_sc_hd__a21oi_1
X_1032_ rd_ptr\[3\] rd_ptr\[2\] VSS VSS VDD VDD _0811_ sky130_fd_sc_hd__and2_0
X_1033_ _0811_ VSS VSS VDD VDD _0812_ sky130_fd_sc_hd__buf_4
X_1034_ _0796_ mem\[15\]\[0\] mem\[14\]\[0\] _0804_ VSS VSS
+ VDD VDD _0813_ sky130_fd_sc_hd__a22oi_1
X_1035_ _0797_ VSS VSS VDD VDD _0814_ sky130_fd_sc_hd__buf_6
X_1036_ mem\[12\]\[0\] _0802_ _0814_ mem\[13\]\[0\] VSS VSS
+ VDD VDD _0815_ sky130_fd_sc_hd__a22oi_1
X_1037_ _0812_ _0813_ _0815_ VSS VSS VDD VDD _0816_ sky130_fd_sc_hd__nand3_1
X_1038_ _0803_ VSS VSS VDD VDD _0817_ sky130_fd_sc_hd__buf_4
X_1039_ _0796_ mem\[3\]\[0\] mem\[2\]\[0\] _0817_ VSS VSS
+ VDD VDD _0818_ sky130_fd_sc_hd__a22oi_1
X_1040_ _0781_ _0784_ VSS VSS VDD VDD _0819_ sky130_fd_sc_hd__nor2_2
X_1041_ _0797_ VSS VSS VDD VDD _0820_ sky130_fd_sc_hd__buf_4
X_1042_ mem\[1\]\[0\] _0820_ VSS VSS VDD VDD _0821_ sky130_fd_sc_hd__nand2_1
X_1043_ _0818_ _0819_ _0821_ VSS VSS VDD VDD _0822_ sky130_fd_sc_hd__nand3_1
X_1044_ rd_ptr\[3\] rd_ptr\[2\] VSS VSS VDD VDD _0823_ sky130_fd_sc_hd__or2_4
X_1045_ _0888_ _0823_ _0890_ _0894_ _0797_ VSS VSS VDD VDD
+ _0824_ sky130_fd_sc_hd__a2111oi_4
X_1046_ _0810_ _0816_ _0822_ _0824_ mem\[0\]\[0\] VSS VSS
+ VDD VDD _0825_ sky130_fd_sc_hd__a32o_1
X_1047_ net76 _0790_ _0794_ _0825_ VSS VSS VDD VDD _0048_
+ sky130_fd_sc_hd__a22o_1
X_1048_ _0791_ VSS VSS VDD VDD _0826_ sky130_fd_sc_hd__buf_4
X_1049_ _0788_ VSS VSS VDD VDD _0827_ sky130_fd_sc_hd__buf_6
X_1050_ _0826_ _0827_ VSS VSS VDD VDD _0828_ sky130_fd_sc_hd__nand2_1
X_1051_ _0888_ _0823_ _0803_ _0795_ _0797_ VSS VSS VDD VDD
+ _0829_ sky130_fd_sc_hd__a2111o_4
X_1052_ _0829_ VSS VSS VDD VDD _0830_ sky130_fd_sc_hd__buf_8
X_1053_ _0830_ VSS VSS VDD VDD _0831_ sky130_fd_sc_hd__buf_8
X_1054_ _0806_ VSS VSS VDD VDD _0832_ sky130_fd_sc_hd__buf_4
X_1055_ _0832_ VSS VSS VDD VDD _0833_ sky130_fd_sc_hd__buf_6
X_1056_ rd_ptr\[2\] VSS VSS VDD VDD _0834_ sky130_fd_sc_hd__buf_4
X_1057_ _0834_ VSS VSS VDD VDD _0835_ sky130_fd_sc_hd__buf_8
X_1058_ _0835_ VSS VSS VDD VDD _0836_ sky130_fd_sc_hd__buf_6
X_1059_ _0801_ VSS VSS VDD VDD _0837_ sky130_fd_sc_hd__buf_6
X_1060_ _0837_ VSS VSS VDD VDD _0838_ sky130_fd_sc_hd__buf_8
X_1061_ _0784_ VSS VSS VDD VDD _0839_ sky130_fd_sc_hd__buf_8
X_1062_ _0839_ VSS VSS VDD VDD _0840_ sky130_fd_sc_hd__buf_6
X_1063_ _0795_ VSS VSS VDD VDD _0841_ sky130_fd_sc_hd__buf_8
X_1064_ _0801_ VSS VSS VDD VDD _0842_ sky130_fd_sc_hd__buf_6
X_1065_ _0841_ mem\[11\]\[10\] mem\[8\]\[10\] _0842_ VSS VSS
+ VDD VDD _0843_ sky130_fd_sc_hd__a22oi_1
X_1066_ _0840_ _0843_ VSS VSS VDD VDD _0844_ sky130_fd_sc_hd__nor2_1
X_1067_ _0836_ mem\[12\]\[10\] _0838_ _0844_ VSS VSS VDD VDD
+ _0845_ sky130_fd_sc_hd__a31oi_1
X_1068_ rd_ptr\[2\] _0894_ VSS VSS VDD VDD _0846_ sky130_fd_sc_hd__nor2b_1
X_1069_ _0846_ VSS VSS VDD VDD _0847_ sky130_fd_sc_hd__buf_4
X_1070_ _0785_ VSS VSS VDD VDD _0848_ sky130_fd_sc_hd__buf_4
X_1071_ _0795_ VSS VSS VDD VDD _0849_ sky130_fd_sc_hd__buf_6
X_1072_ _0801_ VSS VSS VDD VDD _0850_ sky130_fd_sc_hd__buf_8
X_1073_ _0803_ VSS VSS VDD VDD _0851_ sky130_fd_sc_hd__buf_6
X_1074_ _0849_ mem\[7\]\[10\] mem\[4\]\[10\] _0850_ _0851_
+ mem\[6\]\[10\] VSS VSS VDD VDD _0852_ sky130_fd_sc_hd__a222oi_1
X_1075_ _0848_ _0852_ VSS VSS VDD VDD _0853_ sky130_fd_sc_hd__nor2_1
X_1076_ mem\[3\]\[10\] _0847_ _0853_ _0833_ VSS VSS VDD VDD
+ _0854_ sky130_fd_sc_hd__a211oi_1
X_1077_ _0833_ _0845_ _0854_ VSS VSS VDD VDD _0855_ sky130_fd_sc_hd__a21oi_1
X_1078_ _0781_ _0784_ VSS VSS VDD VDD _0856_ sky130_fd_sc_hd__nand2_1
X_1079_ _0856_ VSS VSS VDD VDD _0857_ sky130_fd_sc_hd__buf_8
X_1080_ _0849_ VSS VSS VDD VDD _0858_ sky130_fd_sc_hd__buf_4
X_1081_ _0803_ VSS VSS VDD VDD _0859_ sky130_fd_sc_hd__buf_6
X_1082_ _0859_ VSS VSS VDD VDD _0860_ sky130_fd_sc_hd__buf_6
X_1083_ _0858_ mem\[15\]\[10\] mem\[14\]\[10\] _0860_ VSS
+ VSS VDD VDD _0861_ sky130_fd_sc_hd__a22oi_1
X_1084_ _0798_ VSS VSS VDD VDD _0862_ sky130_fd_sc_hd__buf_6
X_1085_ _0862_ VSS VSS VDD VDD _0863_ sky130_fd_sc_hd__buf_8
X_1086_ rd_ptr\[3\] rd_ptr\[2\] VSS VSS VDD VDD _0864_ sky130_fd_sc_hd__nor2b_1
X_1087_ _0864_ VSS VSS VDD VDD _0865_ sky130_fd_sc_hd__buf_8
X_1088_ _0865_ VSS VSS VDD VDD _0866_ sky130_fd_sc_hd__buf_8
X_1089_ _0834_ VSS VSS VDD VDD _0867_ sky130_fd_sc_hd__buf_8
X_1090_ mem\[9\]\[10\] mem\[13\]\[10\] _0867_ VSS VSS VDD
+ VDD _0868_ sky130_fd_sc_hd__mux2i_1
X_1091_ _0782_ VSS VSS VDD VDD _0869_ sky130_fd_sc_hd__buf_6
X_1092_ mem\[5\]\[10\] _0866_ _0868_ _0869_ VSS VSS VDD VDD
+ _0870_ sky130_fd_sc_hd__o2bb2ai_1
X_1093_ _0863_ _0870_ VSS VSS VDD VDD _0871_ sky130_fd_sc_hd__nand2_1
X_1094_ _0781_ VSS VSS VDD VDD _0122_ sky130_fd_sc_hd__buf_6
X_1095_ _0122_ VSS VSS VDD VDD _0123_ sky130_fd_sc_hd__buf_6
X_1096_ _0804_ VSS VSS VDD VDD _0124_ sky130_fd_sc_hd__buf_6
X_1097_ mem\[2\]\[10\] _0124_ _0862_ mem\[1\]\[10\] VSS VSS
+ VDD VDD _0125_ sky130_fd_sc_hd__a22oi_1
X_1098_ _0123_ mem\[10\]\[10\] _0860_ VSS VSS VDD VDD _0126_
+ sky130_fd_sc_hd__nand3_1
X_1099_ _0123_ _0125_ _0126_ VSS VSS VDD VDD _0127_ sky130_fd_sc_hd__o21ai_0
X_1100_ _0884_ _0127_ VSS VSS VDD VDD _0128_ sky130_fd_sc_hd__nand2_1
X_1101_ _0830_ VSS VSS VDD VDD _0129_ sky130_fd_sc_hd__buf_8
X_1102_ _0857_ _0861_ _0871_ _0128_ _0129_ VSS VSS VDD VDD
+ _0130_ sky130_fd_sc_hd__o2111ai_2
X_1103_ mem\[0\]\[10\] _0831_ _0855_ _0130_ VSS VSS VDD VDD
+ _0131_ sky130_fd_sc_hd__o22ai_4
X_1104_ net77 _0790_ _0828_ _0131_ VSS VSS VDD VDD _0049_
+ sky130_fd_sc_hd__o2bb2ai_1
X_1105_ _0824_ VSS VSS VDD VDD _0132_ sky130_fd_sc_hd__buf_8
X_1106_ _0806_ VSS VSS VDD VDD _0133_ sky130_fd_sc_hd__buf_8
X_1107_ _0801_ VSS VSS VDD VDD _0134_ sky130_fd_sc_hd__buf_6
X_1108_ _0867_ mem\[4\]\[11\] _0134_ _0847_ mem\[3\]\[11\]
+ VSS VSS VDD VDD _0135_ sky130_fd_sc_hd__a32oi_1
X_1109_ _0795_ VSS VSS VDD VDD _0136_ sky130_fd_sc_hd__buf_8
X_1110_ _0798_ VSS VSS VDD VDD _0137_ sky130_fd_sc_hd__buf_6
X_1111_ _0136_ mem\[15\]\[11\] mem\[12\]\[11\] _0850_ _0137_
+ mem\[13\]\[11\] VSS VSS VDD VDD _0138_ sky130_fd_sc_hd__a222oi_1
X_1112_ _0133_ _0135_ _0138_ _0857_ VSS VSS VDD VDD _0139_
+ sky130_fd_sc_hd__o22ai_1
X_1113_ _0798_ VSS VSS VDD VDD _0140_ sky130_fd_sc_hd__buf_6
X_1114_ _0781_ mem\[14\]\[11\] _0803_ VSS VSS VDD VDD _0141_
+ sky130_fd_sc_hd__and3_1
X_1115_ _0782_ mem\[5\]\[11\] _0140_ _0141_ VSS VSS VDD VDD
+ _0142_ sky130_fd_sc_hd__a31oi_2
X_1116_ _0803_ VSS VSS VDD VDD _0143_ sky130_fd_sc_hd__buf_6
X_1117_ rd_ptr\[2\] rd_ptr\[3\] VSS VSS VDD VDD _0144_ sky130_fd_sc_hd__nand2b_1
X_1118_ _0144_ VSS VSS VDD VDD _0145_ sky130_fd_sc_hd__buf_8
X_1119_ mem\[8\]\[11\] _0850_ _0143_ mem\[10\]\[11\] _0145_
+ VSS VSS VDD VDD _0146_ sky130_fd_sc_hd__a221oi_1
X_1120_ mem\[2\]\[11\] _0143_ _0137_ mem\[1\]\[11\] _0823_
+ VSS VSS VDD VDD _0147_ sky130_fd_sc_hd__a221oi_1
X_1121_ _0840_ _0142_ _0146_ _0147_ VSS VSS VDD VDD _0148_
+ sky130_fd_sc_hd__a211oi_1
X_1122_ _0796_ VSS VSS VDD VDD _0149_ sky130_fd_sc_hd__buf_6
X_1123_ _0798_ VSS VSS VDD VDD _0150_ sky130_fd_sc_hd__buf_6
X_1124_ _0149_ mem\[11\]\[11\] mem\[9\]\[11\] _0150_ VSS VSS
+ VDD VDD _0151_ sky130_fd_sc_hd__a22oi_1
X_1125_ _0817_ VSS VSS VDD VDD _0152_ sky130_fd_sc_hd__buf_4
X_1126_ _0858_ mem\[7\]\[11\] mem\[6\]\[11\] _0152_ VSS VSS
+ VDD VDD _0153_ sky130_fd_sc_hd__a22oi_1
X_1127_ _0799_ VSS VSS VDD VDD _0154_ sky130_fd_sc_hd__buf_8
X_1128_ _0145_ _0151_ _0153_ _0154_ VSS VSS VDD VDD _0155_
+ sky130_fd_sc_hd__o22ai_1
X_1129_ _0132_ _0139_ _0148_ _0155_ VSS VSS VDD VDD _0156_
+ sky130_fd_sc_hd__nor4_1
X_1130_ _0830_ VSS VSS VDD VDD _0157_ sky130_fd_sc_hd__buf_16
X_1131_ mem\[0\]\[11\] _0157_ VSS VSS VDD VDD _0158_ sky130_fd_sc_hd__nor2_1
X_1132_ _0156_ _0158_ VSS VSS VDD VDD _0159_ sky130_fd_sc_hd__nor2_2
X_1133_ net78 _0790_ _0794_ _0159_ VSS VSS VDD VDD _0050_
+ sky130_fd_sc_hd__a22o_1
X_1134_ _0784_ _0781_ VSS VSS VDD VDD _0160_ sky130_fd_sc_hd__nor2b_4
X_1135_ mem\[9\]\[12\] _0160_ _0866_ mem\[5\]\[12\] VSS VSS
+ VDD VDD _0161_ sky130_fd_sc_hd__a22o_1
X_1136_ _0122_ VSS VSS VDD VDD _0162_ sky130_fd_sc_hd__buf_6
X_1137_ _0804_ VSS VSS VDD VDD _0163_ sky130_fd_sc_hd__buf_8
X_1138_ _0835_ mem\[6\]\[12\] _0163_ _0847_ mem\[3\]\[12\]
+ VSS VSS VDD VDD _0164_ sky130_fd_sc_hd__a32oi_1
X_1139_ _0785_ _0851_ VSS VSS VDD VDD _0165_ sky130_fd_sc_hd__nand2_8
X_1140_ _0806_ VSS VSS VDD VDD _0166_ sky130_fd_sc_hd__buf_8
X_1141_ mem\[2\]\[12\] mem\[10\]\[12\] _0166_ VSS VSS VDD
+ VDD _0167_ sky130_fd_sc_hd__mux2i_1
X_1142_ mem\[4\]\[12\] _0838_ _0866_ VSS VSS VDD VDD _0168_
+ sky130_fd_sc_hd__nand3_1
X_1143_ _0162_ _0164_ _0165_ _0167_ _0168_ VSS VSS VDD VDD
+ _0169_ sky130_fd_sc_hd__o221ai_2
X_1144_ _0863_ _0161_ _0169_ VSS VSS VDD VDD _0170_ sky130_fd_sc_hd__a21oi_1
X_1145_ _0819_ VSS VSS VDD VDD _0171_ sky130_fd_sc_hd__buf_6
X_1146_ mem\[1\]\[12\] _0150_ _0171_ VSS VSS VDD VDD _0172_
+ sky130_fd_sc_hd__nand3_1
X_1147_ _0802_ VSS VSS VDD VDD _0173_ sky130_fd_sc_hd__buf_4
X_1148_ _0160_ VSS VSS VDD VDD _0174_ sky130_fd_sc_hd__buf_6
X_1149_ mem\[8\]\[12\] _0173_ _0174_ VSS VSS VDD VDD _0175_
+ sky130_fd_sc_hd__nand3_1
X_1150_ _0172_ _0175_ VSS VSS VDD VDD _0176_ sky130_fd_sc_hd__nand2_1
X_1151_ _0858_ mem\[7\]\[12\] _0866_ VSS VSS VDD VDD _0177_
+ sky130_fd_sc_hd__nand3_1
X_1152_ _0812_ VSS VSS VDD VDD _0178_ sky130_fd_sc_hd__buf_6
X_1153_ mem\[13\]\[12\] _0150_ _0178_ VSS VSS VDD VDD _0179_
+ sky130_fd_sc_hd__nand3_1
X_1154_ _0177_ _0179_ VSS VSS VDD VDD _0180_ sky130_fd_sc_hd__nand2_1
X_1155_ _0801_ VSS VSS VDD VDD _0181_ sky130_fd_sc_hd__buf_8
X_1156_ _0804_ VSS VSS VDD VDD _0182_ sky130_fd_sc_hd__buf_6
X_1157_ mem\[12\]\[12\] _0181_ _0182_ mem\[14\]\[12\] VSS
+ VSS VDD VDD _0183_ sky130_fd_sc_hd__a22oi_1
X_1158_ _0133_ _0858_ VSS VSS VDD VDD _0184_ sky130_fd_sc_hd__nand2_1
X_1159_ mem\[11\]\[12\] mem\[15\]\[12\] _0835_ VSS VSS VDD
+ VDD _0185_ sky130_fd_sc_hd__mux2i_1
X_1160_ _0857_ _0183_ _0184_ _0185_ VSS VSS VDD VDD _0186_
+ sky130_fd_sc_hd__o22ai_1
X_1161_ _0132_ _0176_ _0180_ _0186_ VSS VSS VDD VDD _0187_
+ sky130_fd_sc_hd__nor4_1
X_1162_ mem\[0\]\[12\] _0129_ VSS VSS VDD VDD _0188_ sky130_fd_sc_hd__nor2_1
X_1163_ _0170_ _0187_ _0188_ VSS VSS VDD VDD _0189_ sky130_fd_sc_hd__a21oi_1
X_1164_ net79 _0790_ _0794_ _0189_ VSS VSS VDD VDD _0051_
+ sky130_fd_sc_hd__a22o_1
X_1165_ mem\[14\]\[13\] _0859_ _0137_ mem\[13\]\[13\] mem\[12\]\[13\]
+ _0181_ VSS VSS VDD VDD _0190_ sky130_fd_sc_hd__a222oi_1
X_1166_ _0848_ mem\[8\]\[13\] _0173_ VSS VSS VDD VDD _0191_
+ sky130_fd_sc_hd__nand3_1
X_1167_ _0848_ _0190_ _0191_ VSS VSS VDD VDD _0192_ sky130_fd_sc_hd__o21ai_0
X_1168_ _0814_ VSS VSS VDD VDD _0193_ sky130_fd_sc_hd__buf_8
X_1169_ mem\[6\]\[13\] _0182_ _0193_ mem\[5\]\[13\] VSS VSS
+ VDD VDD _0194_ sky130_fd_sc_hd__a22oi_1
X_1170_ _0154_ _0194_ _0830_ VSS VSS VDD VDD _0195_ sky130_fd_sc_hd__o21ai_0
X_1171_ _0833_ _0192_ _0195_ VSS VSS VDD VDD _0196_ sky130_fd_sc_hd__a21oi_1
X_1172_ _0839_ VSS VSS VDD VDD _0197_ sky130_fd_sc_hd__buf_6
X_1173_ _0197_ VSS VSS VDD VDD _0198_ sky130_fd_sc_hd__clkbuf_8
X_1174_ _0781_ VSS VSS VDD VDD _0199_ sky130_fd_sc_hd__buf_6
X_1175_ _0199_ VSS VSS VDD VDD _0200_ sky130_fd_sc_hd__clkbuf_8
X_1176_ _0858_ mem\[15\]\[13\] VSS VSS VDD VDD _0201_ sky130_fd_sc_hd__nand2_1
X_1177_ _0841_ mem\[7\]\[13\] mem\[4\]\[13\] _0181_ _0832_
+ VSS VSS VDD VDD _0202_ sky130_fd_sc_hd__a221oi_1
X_1178_ _0200_ _0201_ _0202_ VSS VSS VDD VDD _0203_ sky130_fd_sc_hd__a21oi_1
X_1179_ _0796_ mem\[11\]\[13\] mem\[10\]\[13\] _0804_ _0820_
+ mem\[9\]\[13\] VSS VSS VDD VDD _0204_ sky130_fd_sc_hd__a222oi_1
X_1180_ _0841_ mem\[3\]\[13\] mem\[2\]\[13\] _0124_ VSS VSS
+ VDD VDD _0205_ sky130_fd_sc_hd__a22oi_2
X_1181_ mem\[1\]\[13\] _0137_ _0166_ VSS VSS VDD VDD _0206_
+ sky130_fd_sc_hd__a21oi_1
X_1182_ _0834_ VSS VSS VDD VDD _0207_ sky130_fd_sc_hd__buf_16
X_1183_ _0207_ VSS VSS VDD VDD _0208_ sky130_fd_sc_hd__buf_6
X_1184_ _0133_ _0204_ _0205_ _0206_ _0208_ VSS VSS VDD VDD
+ _0209_ sky130_fd_sc_hd__a221oi_4
X_1185_ _0198_ _0203_ _0209_ VSS VSS VDD VDD _0210_ sky130_fd_sc_hd__a21oi_1
X_1186_ mem\[0\]\[13\] _0129_ VSS VSS VDD VDD _0211_ sky130_fd_sc_hd__nor2_1
X_1187_ _0196_ _0210_ _0211_ VSS VSS VDD VDD _0212_ sky130_fd_sc_hd__a21oi_4
X_1188_ net80 _0790_ _0794_ _0212_ VSS VSS VDD VDD _0052_
+ sky130_fd_sc_hd__a22o_1
X_1189_ mem\[0\]\[14\] _0830_ VSS VSS VDD VDD _0213_ sky130_fd_sc_hd__nor2_1
X_1190_ mem\[9\]\[14\] mem\[13\]\[14\] _0839_ VSS VSS VDD
+ VDD _0214_ sky130_fd_sc_hd__mux2i_1
X_1191_ mem\[5\]\[14\] _0865_ VSS VSS VDD VDD _0215_ sky130_fd_sc_hd__nand2_1
X_1192_ _0783_ _0214_ _0215_ VSS VSS VDD VDD _0216_ sky130_fd_sc_hd__o21ai_0
X_1193_ mem\[15\]\[14\] _0812_ _0171_ mem\[3\]\[14\] VSS VSS
+ VDD VDD _0217_ sky130_fd_sc_hd__a22o_1
X_1194_ _0841_ VSS VSS VDD VDD _0218_ sky130_fd_sc_hd__buf_6
X_1195_ _0193_ _0216_ _0217_ _0218_ _0132_ VSS VSS VDD VDD
+ _0219_ sky130_fd_sc_hd__a221oi_1
X_1196_ mem\[12\]\[14\] _0842_ _0152_ mem\[14\]\[14\] _0783_
+ VSS VSS VDD VDD _0220_ sky130_fd_sc_hd__a221o_1
X_1197_ mem\[4\]\[14\] _0173_ _0123_ VSS VSS VDD VDD _0221_
+ sky130_fd_sc_hd__a21oi_1
X_1198_ _0858_ mem\[7\]\[14\] mem\[6\]\[14\] _0152_ VSS VSS
+ VDD VDD _0222_ sky130_fd_sc_hd__a22oi_1
X_1199_ _0221_ _0222_ _0884_ VSS VSS VDD VDD _0223_ sky130_fd_sc_hd__a21oi_1
X_1200_ _0795_ VSS VSS VDD VDD _0224_ sky130_fd_sc_hd__buf_4
X_1201_ _0224_ mem\[11\]\[14\] mem\[8\]\[14\] _0837_ _0182_
+ mem\[10\]\[14\] VSS VSS VDD VDD _0225_ sky130_fd_sc_hd__a222oi_1
X_1202_ _0798_ VSS VSS VDD VDD _0226_ sky130_fd_sc_hd__buf_6
X_1203_ mem\[2\]\[14\] _0163_ _0226_ mem\[1\]\[14\] _0832_
+ VSS VSS VDD VDD _0227_ sky130_fd_sc_hd__a221oi_1
X_1204_ _0200_ _0225_ _0227_ _0198_ VSS VSS VDD VDD _0228_
+ sky130_fd_sc_hd__a211oi_1
X_1205_ _0220_ _0223_ _0228_ VSS VSS VDD VDD _0229_ sky130_fd_sc_hd__a21oi_1
X_1206_ _0213_ _0219_ _0229_ VSS VSS VDD VDD _0230_ sky130_fd_sc_hd__o21ai_2
X_1207_ net81 _0790_ _0794_ _0230_ VSS VSS VDD VDD _0053_
+ sky130_fd_sc_hd__a22o_1
X_1208_ _0827_ VSS VSS VDD VDD _0231_ sky130_fd_sc_hd__clkbuf_4
X_1209_ net82 _0826_ VSS VSS VDD VDD _0232_ sky130_fd_sc_hd__nand2_1
X_1210_ mem\[14\]\[15\] _0124_ _0862_ mem\[13\]\[15\] VSS
+ VSS VDD VDD _0233_ sky130_fd_sc_hd__a22oi_1
X_1211_ _0839_ VSS VSS VDD VDD _0234_ sky130_fd_sc_hd__buf_6
X_1212_ _0858_ mem\[11\]\[15\] _0234_ VSS VSS VDD VDD _0235_
+ sky130_fd_sc_hd__a21oi_1
X_1213_ _0836_ _0233_ _0235_ _0881_ VSS VSS VDD VDD _0236_
+ sky130_fd_sc_hd__a211oi_1
X_1214_ _0132_ _0236_ VSS VSS VDD VDD _0237_ sky130_fd_sc_hd__nor2_1
X_1215_ mem\[2\]\[15\] _0152_ VSS VSS VDD VDD _0238_ sky130_fd_sc_hd__nand2_1
X_1216_ _0133_ mem\[8\]\[15\] _0173_ VSS VSS VDD VDD _0239_
+ sky130_fd_sc_hd__nand3_1
X_1217_ _0123_ _0238_ _0239_ VSS VSS VDD VDD _0240_ sky130_fd_sc_hd__o21ai_0
X_1218_ _0218_ mem\[7\]\[15\] _0866_ _0240_ _0884_ VSS VSS
+ VDD VDD _0241_ sky130_fd_sc_hd__a32oi_1
X_1219_ rd_ptr\[3\] _0894_ VSS VSS VDD VDD _0242_ sky130_fd_sc_hd__nor2b_1
X_1220_ _0242_ VSS VSS VDD VDD _0243_ sky130_fd_sc_hd__buf_6
X_1221_ _0122_ mem\[10\]\[15\] _0143_ _0243_ mem\[3\]\[15\]
+ VSS VSS VDD VDD _0244_ sky130_fd_sc_hd__a32oi_1
X_1222_ _0801_ VSS VSS VDD VDD _0245_ sky130_fd_sc_hd__buf_6
X_1223_ mem\[4\]\[15\] _0245_ _0851_ mem\[6\]\[15\] _0154_
+ VSS VSS VDD VDD _0246_ sky130_fd_sc_hd__a221oi_1
X_1224_ _0795_ VSS VSS VDD VDD _0247_ sky130_fd_sc_hd__buf_6
X_1225_ _0247_ mem\[15\]\[15\] mem\[12\]\[15\] _0134_ _0857_
+ VSS VSS VDD VDD _0248_ sky130_fd_sc_hd__a221oi_1
X_1226_ _0848_ _0244_ _0246_ _0248_ VSS VSS VDD VDD _0249_
+ sky130_fd_sc_hd__a211o_1
X_1227_ mem\[1\]\[15\] mem\[5\]\[15\] _0835_ VSS VSS VDD VDD
+ _0250_ sky130_fd_sc_hd__mux2i_1
X_1228_ _0162_ _0250_ VSS VSS VDD VDD _0251_ sky130_fd_sc_hd__nor2_1
X_1229_ mem\[9\]\[15\] _0174_ VSS VSS VDD VDD _0252_ sky130_fd_sc_hd__and2_0
X_1230_ _0251_ _0252_ _0863_ VSS VSS VDD VDD _0253_ sky130_fd_sc_hd__o21ai_0
X_1231_ _0237_ _0241_ _0249_ _0253_ VSS VSS VDD VDD _0254_
+ sky130_fd_sc_hd__nand4_1
X_1232_ mem\[0\]\[15\] _0831_ _0254_ _0826_ _0231_ VSS VSS
+ VDD VDD _0255_ sky130_fd_sc_hd__o2111ai_1
X_1233_ _0231_ _0232_ _0255_ VSS VSS VDD VDD _0054_ sky130_fd_sc_hd__o21ai_0
X_1234_ _0136_ mem\[15\]\[16\] mem\[12\]\[16\] _0850_ _0851_
+ mem\[14\]\[16\] VSS VSS VDD VDD _0256_ sky130_fd_sc_hd__a222oi_1
X_1235_ _0208_ _0256_ VSS VSS VDD VDD _0257_ sky130_fd_sc_hd__nand2_1
X_1236_ _0224_ mem\[11\]\[16\] mem\[8\]\[16\] _0837_ VSS VSS
+ VDD VDD _0258_ sky130_fd_sc_hd__a22oi_1
X_1237_ mem\[10\]\[16\] _0143_ _0867_ VSS VSS VDD VDD _0259_
+ sky130_fd_sc_hd__a21oi_1
X_1238_ _0258_ _0259_ _0783_ VSS VSS VDD VDD _0260_ sky130_fd_sc_hd__a21oi_1
X_1239_ mem\[9\]\[16\] mem\[13\]\[16\] _0839_ VSS VSS VDD
+ VDD _0261_ sky130_fd_sc_hd__mux2i_1
X_1240_ mem\[5\]\[16\] _0865_ VSS VSS VDD VDD _0262_ sky130_fd_sc_hd__nand2_1
X_1241_ _0783_ _0261_ _0262_ VSS VSS VDD VDD _0263_ sky130_fd_sc_hd__o21ai_0
X_1242_ _0796_ mem\[7\]\[16\] mem\[4\]\[16\] _0801_ _0817_
+ mem\[6\]\[16\] VSS VSS VDD VDD _0264_ sky130_fd_sc_hd__a222oi_1
X_1243_ _0136_ mem\[3\]\[16\] mem\[1\]\[16\] _0820_ VSS VSS
+ VDD VDD _0265_ sky130_fd_sc_hd__a22oi_1
X_1244_ mem\[2\]\[16\] _0143_ _0207_ VSS VSS VDD VDD _0266_
+ sky130_fd_sc_hd__a21oi_1
X_1245_ _0197_ _0264_ _0265_ _0266_ _0133_ VSS VSS VDD VDD
+ _0267_ sky130_fd_sc_hd__a221oi_2
X_1246_ _0257_ _0260_ _0263_ _0193_ _0267_ VSS VSS VDD VDD
+ _0268_ sky130_fd_sc_hd__a221oi_2
X_1247_ mem\[0\]\[16\] _0129_ VSS VSS VDD VDD _0269_ sky130_fd_sc_hd__nor2_1
X_1248_ _0831_ _0268_ _0269_ VSS VSS VDD VDD _0270_ sky130_fd_sc_hd__a21oi_4
X_1249_ net83 _0790_ _0794_ _0270_ VSS VSS VDD VDD _0055_
+ sky130_fd_sc_hd__a22o_1
X_1250_ mem\[8\]\[17\] _0134_ _0124_ mem\[10\]\[17\] VSS VSS
+ VDD VDD _0271_ sky130_fd_sc_hd__a22oi_1
X_1251_ _0834_ _0795_ VSS VSS VDD VDD _0272_ sky130_fd_sc_hd__and2_2
X_1252_ mem\[15\]\[17\] _0272_ VSS VSS VDD VDD _0273_ sky130_fd_sc_hd__nand2_1
X_1253_ _0234_ _0271_ _0273_ VSS VSS VDD VDD _0274_ sky130_fd_sc_hd__o21ai_0
X_1254_ _0234_ mem\[5\]\[17\] _0150_ VSS VSS VDD VDD _0275_
+ sky130_fd_sc_hd__nand3_1
X_1255_ _0785_ VSS VSS VDD VDD _0276_ sky130_fd_sc_hd__buf_4
X_1256_ _0276_ mem\[2\]\[17\] _0182_ VSS VSS VDD VDD _0277_
+ sky130_fd_sc_hd__nand3_1
X_1257_ _0275_ _0277_ _0200_ VSS VSS VDD VDD _0278_ sky130_fd_sc_hd__a21oi_1
X_1258_ _0276_ _0150_ VSS VSS VDD VDD _0279_ sky130_fd_sc_hd__nand2_1
X_1259_ mem\[1\]\[17\] mem\[9\]\[17\] _0199_ VSS VSS VDD VDD
+ _0280_ sky130_fd_sc_hd__mux2i_1
X_1260_ mem\[3\]\[17\] mem\[11\]\[17\] _0199_ VSS VSS VDD
+ VDD _0281_ sky130_fd_sc_hd__mux2i_1
X_1261_ _0276_ _0149_ VSS VSS VDD VDD _0282_ sky130_fd_sc_hd__nand2_1
X_1262_ _0279_ _0280_ _0281_ _0282_ VSS VSS VDD VDD _0283_
+ sky130_fd_sc_hd__o22ai_1
X_1263_ _0833_ _0274_ _0278_ _0283_ VSS VSS VDD VDD _0284_
+ sky130_fd_sc_hd__a211oi_2
X_1264_ mem\[14\]\[17\] _0163_ _0226_ mem\[13\]\[17\] mem\[12\]\[17\]
+ _0842_ VSS VSS VDD VDD _0285_ sky130_fd_sc_hd__a222oi_1
X_1265_ _0833_ _0285_ VSS VSS VDD VDD _0286_ sky130_fd_sc_hd__nand2_1