
* cell basic_spi_master
* pin rx_data[3]
* pin rx_data[7]
* pin rx_data[1]
* pin spi_miso
* pin rx_data[5]
* pin spi_clk
* pin rx_data[4]
* pin clk
* pin rx_data[2]
* pin tx_data[0]
* pin spi_cs_n
* pin rst_n
* pin tx_ready
* pin tx_valid
* pin rx_data[6]
* pin rx_valid
* pin tx_data[6]
* pin spi_mosi
* pin tx_data[3]
* pin rx_data[0]
* pin tx_data[1]
* pin tx_data[2]
* pin tx_data[7]
* pin tx_data[4]
* pin tx_data[5]
* pin NWELL
* pin PWELL,gf180mcu_gnd
.SUBCKT basic_spi_master 1 11 41 63 95 97 117 120 132 136 148 149 152 153 155
+ 156 190 198 199 200 203 204 205 206 207 208 209
* net 1 rx_data[3]
* net 11 rx_data[7]
* net 41 rx_data[1]
* net 63 spi_miso
* net 95 rx_data[5]
* net 97 spi_clk
* net 117 rx_data[4]
* net 120 clk
* net 132 rx_data[2]
* net 136 tx_data[0]
* net 148 spi_cs_n
* net 149 rst_n
* net 152 tx_ready
* net 153 tx_valid
* net 155 rx_data[6]
* net 156 rx_valid
* net 190 tx_data[6]
* net 198 spi_mosi
* net 199 tx_data[3]
* net 200 rx_data[0]
* net 203 tx_data[1]
* net 204 tx_data[2]
* net 205 tx_data[7]
* net 206 tx_data[4]
* net 207 tx_data[5]
* net 208 NWELL
* net 209 PWELL,gf180mcu_gnd
* cell instance $3 r0 *1 90.16,5.04
X$3 2 208 209 1 gf180mcu_fd_sc_mcu9t5v0__dlyb_2
* cell instance $8 r0 *1 80.08,15.12
X$8 209 9 2 6 5 208 gf180mcu_fd_sc_mcu9t5v0__dffrnq_2
* cell instance $11 m0 *1 88.48,15.12
X$11 209 208 5 2 4 3 gf180mcu_fd_sc_mcu9t5v0__mux2_2
* cell instance $13 r0 *1 93.52,25.2
X$13 209 208 3 18 gf180mcu_fd_sc_mcu9t5v0__clkinv_2
* cell instance $18 m0 *1 81.2,25.2
X$18 209 9 3 33 12 208 gf180mcu_fd_sc_mcu9t5v0__dffrnq_2
* cell instance $20 m0 *1 119.28,25.2
X$20 209 208 7 8 4 10 gf180mcu_fd_sc_mcu9t5v0__mux2_2
* cell instance $23 r0 *1 114.8,105.84
X$23 209 208 4 165 gf180mcu_fd_sc_mcu9t5v0__clkinv_2
* cell instance $33 r0 *1 92.4,105.84
X$33 209 208 163 166 4 143 gf180mcu_fd_sc_mcu9t5v0__mux2_2
* cell instance $38 r0 *1 60.48,85.68
X$38 208 209 13 4 37 gf180mcu_fd_sc_mcu9t5v0__nand2_4
* cell instance $41 r0 *1 124.88,55.44
X$41 209 208 80 79 4 71 gf180mcu_fd_sc_mcu9t5v0__mux2_2
* cell instance $43 m0 *1 123.76,45.36
X$43 209 208 15 25 4 36 gf180mcu_fd_sc_mcu9t5v0__mux2_2
* cell instance $45 r0 *1 123.76,65.52
X$45 209 208 92 93 4 94 gf180mcu_fd_sc_mcu9t5v0__mux2_2
* cell instance $47 m0 *1 115.92,105.84
X$47 209 208 158 144 4 128 gf180mcu_fd_sc_mcu9t5v0__mux2_2
* cell instance $49 m0 *1 124.32,105.84
X$49 209 208 150 131 4 127 gf180mcu_fd_sc_mcu9t5v0__mux2_2
* cell instance $55 r0 *1 116.48,15.12
X$55 209 9 8 6 7 208 gf180mcu_fd_sc_mcu9t5v0__dffrnq_2
* cell instance $58 r0 *1 92.96,45.36
X$58 209 208 6 212 gf180mcu_fd_sc_mcu9t5v0__clkbuf_4
* cell instance $60 m0 *1 100.24,25.2
X$60 209 9 10 6 17 208 gf180mcu_fd_sc_mcu9t5v0__dffrnq_2
* cell instance $63 m0 *1 119.84,35.28
X$63 209 9 25 6 15 208 gf180mcu_fd_sc_mcu9t5v0__dffrnq_2
* cell instance $65 m0 *1 108.64,55.44
X$65 209 9 71 6 64 208 gf180mcu_fd_sc_mcu9t5v0__dffrnq_2
* cell instance $67 r0 *1 119.84,75.6
X$67 209 9 93 6 92 208 gf180mcu_fd_sc_mcu9t5v0__dffrnq_2
* cell instance $69 m0 *1 119.84,65.52
X$69 209 9 79 6 80 208 gf180mcu_fd_sc_mcu9t5v0__dffrnq_2
* cell instance $72 r0 *1 110.88,35.28
X$72 209 9 36 6 32 208 gf180mcu_fd_sc_mcu9t5v0__dffrnq_2
* cell instance $83 m0 *1 93.52,55.44
X$83 209 208 61 6 gf180mcu_fd_sc_mcu9t5v0__clkbuf_3
* cell instance $86 m0 *1 111.44,75.6
X$86 209 9 94 6 103 208 gf180mcu_fd_sc_mcu9t5v0__dffrnq_2
* cell instance $91 m0 *1 132.16,25.2
X$91 8 208 209 11 gf180mcu_fd_sc_mcu9t5v0__dlyb_2
* cell instance $96 r0 *1 2.8,126
X$96 209 154 9 208 gf180mcu_fd_sc_mcu9t5v0__buf_12
* cell instance $99 m0 *1 51.52,95.76
X$99 209 9 37 112 114 208 gf180mcu_fd_sc_mcu9t5v0__dffrnq_4
* cell instance $129 m0 *1 12.88,65.52
X$129 209 9 67 33 66 208 gf180mcu_fd_sc_mcu9t5v0__dffrnq_2
* cell instance $136 m0 *1 105.84,95.76
X$136 209 9 128 134 116 208 gf180mcu_fd_sc_mcu9t5v0__dffrnq_2
* cell instance $139 m0 *1 14.56,85.68
X$139 209 9 69 112 113 208 gf180mcu_fd_sc_mcu9t5v0__dffrnq_2
* cell instance $141 r0 *1 12.88,35.28
X$141 209 9 30 33 28 208 gf180mcu_fd_sc_mcu9t5v0__dffrnq_2
* cell instance $147 r0 *1 109.2,85.68
X$147 209 9 127 134 126 208 gf180mcu_fd_sc_mcu9t5v0__dffrnq_2
* cell instance $149 m0 *1 67.2,126
X$149 209 9 180 134 186 208 gf180mcu_fd_sc_mcu9t5v0__dffrnq_2
* cell instance $152 m0 *1 47.04,126
X$152 209 9 179 112 185 208 gf180mcu_fd_sc_mcu9t5v0__dffrnq_2
* cell instance $155 r0 *1 43.12,115.92
X$155 209 9 168 112 167 208 gf180mcu_fd_sc_mcu9t5v0__dffrnq_2
* cell instance $157 m0 *1 86.24,126
X$157 209 9 175 134 181 208 gf180mcu_fd_sc_mcu9t5v0__dffrnq_2
* cell instance $160 m0 *1 91.84,115.92
X$160 209 9 166 134 163 208 gf180mcu_fd_sc_mcu9t5v0__dffrnq_2
* cell instance $163 m0 *1 43.12,45.36
X$163 209 9 48 33 39 208 gf180mcu_fd_sc_mcu9t5v0__dffrnq_2
* cell instance $165 r0 *1 28.56,65.52
X$165 209 9 88 33 87 208 gf180mcu_fd_sc_mcu9t5v0__dffrnq_2
* cell instance $167 r0 *1 81.76,95.76
X$167 209 9 143 134 142 208 gf180mcu_fd_sc_mcu9t5v0__dffrnq_2
* cell instance $171 m0 *1 70,115.92
X$171 209 9 170 134 162 208 gf180mcu_fd_sc_mcu9t5v0__dffrnq_2
* cell instance $174 r0 *1 45.36,35.28
X$174 209 9 29 33 27 208 gf180mcu_fd_sc_mcu9t5v0__dffrnq_2
* cell instance $176 r0 *1 81.76,126
X$176 209 9 194 134 189 208 gf180mcu_fd_sc_mcu9t5v0__dffrnq_2
* cell instance $178 r0 *1 119.84,95.76
X$178 209 9 131 134 150 208 gf180mcu_fd_sc_mcu9t5v0__dffrnq_2
* cell instance $180 r0 *1 25.2,95.76
X$180 209 9 98 112 121 208 gf180mcu_fd_sc_mcu9t5v0__dffrnq_2
* cell instance $183 m0 *1 25.76,126
X$183 209 9 178 112 184 208 gf180mcu_fd_sc_mcu9t5v0__dffrnq_2
* cell instance $186 m0 *1 12.32,136.08
X$186 209 9 183 112 176 208 gf180mcu_fd_sc_mcu9t5v0__dffrnq_2
* cell instance $188 r0 *1 118.16,105.84
X$188 209 9 144 134 158 208 gf180mcu_fd_sc_mcu9t5v0__dffrnq_2
* cell instance $190 m0 *1 113.12,115.92
X$190 209 9 171 134 165 208 gf180mcu_fd_sc_mcu9t5v0__dffrnq_2
* cell instance $194 r0 *1 109.76,15.12
X$194 209 208 10 16 gf180mcu_fd_sc_mcu9t5v0__clkinv_2
* cell instance $205 m0 *1 85.12,35.28
X$205 208 209 23 20 14 18 12 21 gf180mcu_fd_sc_mcu9t5v0__oai32_2
* cell instance $207 m0 *1 42.56,65.52
X$207 208 13 209 86 75 87 68 gf180mcu_fd_sc_mcu9t5v0__oai22_2
* cell instance $209 r0 *1 18.48,45.36
X$209 209 13 208 43 46 51 gf180mcu_fd_sc_mcu9t5v0__aoi21_2
* cell instance $211 m0 *1 18.48,95.76
X$211 209 208 13 141 139 gf180mcu_fd_sc_mcu9t5v0__nand2_2
* cell instance $213 r0 *1 13.44,55.44
X$213 208 13 209 72 74 66 68 gf180mcu_fd_sc_mcu9t5v0__oai22_2
* cell instance $215 r0 *1 22.4,105.84
X$215 209 208 68 160 13 gf180mcu_fd_sc_mcu9t5v0__nand2_2
* cell instance $227 r0 *1 14.56,95.76
X$227 209 208 151 138 13 140 gf180mcu_fd_sc_mcu9t5v0__mux2_2
* cell instance $230 m0 *1 42.56,55.44
X$230 208 13 209 65 60 39 68 gf180mcu_fd_sc_mcu9t5v0__oai22_2
* cell instance $234 m0 *1 58.8,105.84
X$234 209 208 98 13 gf180mcu_fd_sc_mcu9t5v0__inv_4
* cell instance $236 m0 *1 49.84,35.28
X$236 208 26 209 19 27 13 gf180mcu_fd_sc_mcu9t5v0__oai21_2
* cell instance $240 m0 *1 89.04,45.36
X$240 209 208 34 14 31 gf180mcu_fd_sc_mcu9t5v0__nand2_2
* cell instance $242 m0 *1 97.44,35.28
X$242 208 209 23 22 14 16 17 24 gf180mcu_fd_sc_mcu9t5v0__oai32_2
* cell instance $256 r0 *1 48.72,45.36
X$256 209 49 208 47 19 54 29 gf180mcu_fd_sc_mcu9t5v0__aoi22_2
* cell instance $259 m0 *1 102.48,75.6
X$259 34 20 56 84 209 208 119 gf180mcu_fd_sc_mcu9t5v0__and4_2
* cell instance $261 r0 *1 101.92,35.28
X$261 34 20 35 31 209 208 24 gf180mcu_fd_sc_mcu9t5v0__and4_2
* cell instance $263 m0 *1 101.36,55.44
X$263 34 20 56 35 209 208 57 gf180mcu_fd_sc_mcu9t5v0__and4_2
* cell instance $266 m0 *1 89.6,75.6
X$266 102 62 77 20 209 208 110 gf180mcu_fd_sc_mcu9t5v0__and4_2
* cell instance $276 m0 *1 101.36,45.36
X$276 208 209 50 20 23 44 32 45 gf180mcu_fd_sc_mcu9t5v0__oai32_2
* cell instance $279 m0 *1 63.84,45.36
X$279 208 30 40 209 20 gf180mcu_fd_sc_mcu9t5v0__xnor2_2
* cell instance $282 r0 *1 89.04,35.28
X$282 34 22 35 31 209 208 21 gf180mcu_fd_sc_mcu9t5v0__and4_2
* cell instance $289 m0 *1 94.08,45.36
X$289 34 22 56 35 209 208 45 gf180mcu_fd_sc_mcu9t5v0__and4_2
* cell instance $291 m0 *1 102.48,65.52
X$291 34 22 84 31 209 208 85 gf180mcu_fd_sc_mcu9t5v0__and4_2
* cell instance $293 r0 *1 103.04,65.52
X$293 34 22 56 84 209 208 96 gf180mcu_fd_sc_mcu9t5v0__and4_2
* cell instance $298 r0 *1 101.92,45.36
X$298 208 209 50 22 23 58 64 57 gf180mcu_fd_sc_mcu9t5v0__oai32_2
* cell instance $301 r0 *1 64.4,35.28
X$301 30 209 40 208 22 gf180mcu_fd_sc_mcu9t5v0__xor2_2
* cell instance $312 m0 *1 83.44,65.52
X$312 209 91 83 23 90 208 gf180mcu_fd_sc_mcu9t5v0__nand3_4
* cell instance $323 m0 *1 132.16,45.36
X$323 25 208 209 41 gf180mcu_fd_sc_mcu9t5v0__dlyb_2
* cell instance $325 m0 *1 57.68,35.28
X$325 209 208 37 26 29 gf180mcu_fd_sc_mcu9t5v0__nand2_2
* cell instance $335 r0 *1 12.88,45.36
X$335 209 43 42 208 28 gf180mcu_fd_sc_mcu9t5v0__or2_2
* cell instance $338 m0 *1 65.52,55.44
X$338 209 55 30 208 48 29 gf180mcu_fd_sc_mcu9t5v0__nand3_2
* cell instance $343 r0 *1 57.68,45.36
X$343 209 40 49 48 29 208 gf180mcu_fd_sc_mcu9t5v0__addh_2
* cell instance $348 m0 *1 16.8,45.36
X$348 208 37 30 209 42 gf180mcu_fd_sc_mcu9t5v0__and2_2
* cell instance $350 m0 *1 37.52,55.44
X$350 209 208 30 59 40 gf180mcu_fd_sc_mcu9t5v0__nand2_2
* cell instance $359 m0 *1 20.16,55.44
X$359 208 30 209 46 53 52 67 gf180mcu_fd_sc_mcu9t5v0__oai31_2
* cell instance $361 m0 *1 24.64,45.36
X$361 209 37 30 208 38 gf180mcu_fd_sc_mcu9t5v0__or2_2
* cell instance $372 r0 *1 90.16,55.44
X$372 208 62 78 209 31 gf180mcu_fd_sc_mcu9t5v0__and2_2
* cell instance $381 m0 *1 57.68,55.44
X$381 209 208 61 33 gf180mcu_fd_sc_mcu9t5v0__clkbuf_3
* cell instance $393 r0 *1 57.68,55.44
X$393 209 208 33 210 gf180mcu_fd_sc_mcu9t5v0__inv_4
* cell instance $397 r0 *1 87.92,45.36
X$397 209 208 34 50 56 gf180mcu_fd_sc_mcu9t5v0__nand2_2
* cell instance $412 m0 *1 54.32,85.68
X$412 208 99 34 209 114 gf180mcu_fd_sc_mcu9t5v0__and2_2
* cell instance $414 r0 *1 75.04,75.6
X$414 209 208 108 34 gf180mcu_fd_sc_mcu9t5v0__clkbuf_4
* cell instance $433 r0 *1 73.92,55.44
X$433 208 75 60 209 35 gf180mcu_fd_sc_mcu9t5v0__and2_2
* cell instance $435 m0 *1 116.48,45.36
X$435 209 208 36 44 gf180mcu_fd_sc_mcu9t5v0__clkinv_2
* cell instance $442 r0 *1 29.12,85.68
X$442 209 37 208 121 106 141 gf180mcu_fd_sc_mcu9t5v0__aoi21_2
* cell instance $444 r0 *1 19.04,85.68
X$444 209 208 37 68 gf180mcu_fd_sc_mcu9t5v0__clkinv_8
* cell instance $450 m0 *1 23.52,95.76
X$450 209 118 141 145 37 208 gf180mcu_fd_sc_mcu9t5v0__aoi21_4
* cell instance $455 m0 *1 38.08,95.76
X$455 209 37 208 146 147 141 gf180mcu_fd_sc_mcu9t5v0__aoi21_2
* cell instance $465 r0 *1 25.76,45.36
X$465 52 53 67 38 208 209 51 gf180mcu_fd_sc_mcu9t5v0__or4_2
* cell instance $471 r0 *1 36.96,45.36
X$471 209 208 40 52 gf180mcu_fd_sc_mcu9t5v0__clkinv_2
* cell instance $499 r0 *1 47.6,65.52
X$499 209 77 208 47 86 54 88 gf180mcu_fd_sc_mcu9t5v0__aoi22_2
* cell instance $502 r0 *1 23.52,55.44
X$502 209 47 208 72 67 53 gf180mcu_fd_sc_mcu9t5v0__aoi21_2
* cell instance $507 r0 *1 30.8,55.44
X$507 68 208 69 74 209 47 gf180mcu_fd_sc_mcu9t5v0__and3_2
* cell instance $509 m0 *1 78.4,65.52
X$509 208 48 76 209 82 gf180mcu_fd_sc_mcu9t5v0__and2_2
* cell instance $511 m0 *1 75.6,55.44
X$511 209 208 48 60 gf180mcu_fd_sc_mcu9t5v0__clkinv_2
* cell instance $513 r0 *1 48.72,55.44
X$513 209 73 208 65 54 48 gf180mcu_fd_sc_mcu9t5v0__aoi21_2
* cell instance $516 r0 *1 84.56,65.52
X$516 48 91 90 76 209 208 84 gf180mcu_fd_sc_mcu9t5v0__and4_2
* cell instance $530 m0 *1 84.56,55.44
X$530 209 208 49 62 gf180mcu_fd_sc_mcu9t5v0__clkinv_2
* cell instance $532 m0 *1 87.92,55.44
X$532 208 49 78 209 56 gf180mcu_fd_sc_mcu9t5v0__and2_2
* cell instance $554 r0 *1 30.24,75.6
X$554 209 53 208 111 107 68 gf180mcu_fd_sc_mcu9t5v0__aoi21_2
* cell instance $557 m0 *1 31.36,75.6
X$557 209 208 69 53 gf180mcu_fd_sc_mcu9t5v0__clkinv_2
* cell instance $563 m0 *1 34.72,75.6
X$563 208 98 209 106 59 88 54 gf180mcu_fd_sc_mcu9t5v0__oai31_2
* cell instance $571 m0 *1 36.96,65.52
X$571 209 208 69 54 74 gf180mcu_fd_sc_mcu9t5v0__nand2_2
* cell instance $574 m0 *1 66.64,65.52
X$574 209 81 77 75 55 208 gf180mcu_fd_sc_mcu9t5v0__addh_2
* cell instance $576 r0 *1 68.88,65.52
X$576 209 88 55 208 89 gf180mcu_fd_sc_mcu9t5v0__or2_2
* cell instance $594 r0 *1 120.4,45.36
X$594 209 208 71 58 gf180mcu_fd_sc_mcu9t5v0__clkinv_2
* cell instance $600 m0 *1 48.72,75.6
X$600 209 208 99 88 59 gf180mcu_fd_sc_mcu9t5v0__nor2_2
* cell instance $604 r0 *1 37.52,75.6
X$604 208 59 107 88 74 98 209 gf180mcu_fd_sc_mcu9t5v0__oai211_2
* cell instance $607 r0 *1 41.44,55.44
X$607 68 69 74 60 209 208 73 gf180mcu_fd_sc_mcu9t5v0__and4_2
* cell instance $609 r0 *1 78.96,55.44
X$609 60 208 70 76 209 83 gf180mcu_fd_sc_mcu9t5v0__and3_2
* cell instance $620 m0 *1 71.12,85.68
X$620 209 208 120 61 gf180mcu_fd_sc_mcu9t5v0__clkbuf_3
* cell instance $623 r0 *1 84.56,105.84
X$623 209 208 61 134 gf180mcu_fd_sc_mcu9t5v0__clkbuf_3
* cell instance $630 r0 *1 47.04,105.84
X$630 209 208 61 112 gf180mcu_fd_sc_mcu9t5v0__clkbuf_3
* cell instance $639 m0 *1 130.48,55.44
X$639 63 208 209 70 gf180mcu_fd_sc_mcu9t5v0__clkbuf_2
* cell instance $651 m0 *1 33.6,85.68
X$651 98 208 69 67 209 122 gf180mcu_fd_sc_mcu9t5v0__and3_2
* cell instance $653 r0 *1 21.84,65.52
X$653 209 208 67 74 gf180mcu_fd_sc_mcu9t5v0__inv_2
* cell instance $664 m0 *1 13.44,75.6
X$664 67 208 209 97 gf180mcu_fd_sc_mcu9t5v0__dlyb_2
* cell instance $666 m0 *1 13.44,95.76
X$666 209 208 68 138 139 gf180mcu_fd_sc_mcu9t5v0__nand2_2
* cell instance $668 r0 *1 38.64,105.84
X$668 208 68 98 209 161 gf180mcu_fd_sc_mcu9t5v0__and2_2
* cell instance $676 r0 *1 47.04,75.6
X$676 68 98 69 74 209 208 108 gf180mcu_fd_sc_mcu9t5v0__and4_2
* cell instance $710 m0 *1 110.32,85.68
X$710 209 208 126 70 96 127 gf180mcu_fd_sc_mcu9t5v0__mux2_2
* cell instance $712 r0 *1 108.08,75.6
X$712 209 208 116 70 119 128 gf180mcu_fd_sc_mcu9t5v0__mux2_2
* cell instance $715 r0 *1 112,65.52
X$715 209 208 103 70 85 94 gf180mcu_fd_sc_mcu9t5v0__mux2_2
* cell instance $717 m0 *1 85.12,95.76
X$717 209 208 142 70 125 143 gf180mcu_fd_sc_mcu9t5v0__mux2_2
* cell instance $755 r0 *1 57.68,75.6
X$755 209 208 88 75 gf180mcu_fd_sc_mcu9t5v0__clkinv_3
* cell instance $757 m0 *1 59.36,85.68
X$757 209 123 102 75 115 208 gf180mcu_fd_sc_mcu9t5v0__addh_2
* cell instance $761 m0 *1 69.44,75.6
X$761 209 105 101 75 89 208 gf180mcu_fd_sc_mcu9t5v0__addh_2
* cell instance $765 m0 *1 63.84,75.6
X$765 209 208 76 104 100 gf180mcu_fd_sc_mcu9t5v0__nor2_2
* cell instance $772 r0 *1 85.12,55.44
X$772 209 208 77 78 gf180mcu_fd_sc_mcu9t5v0__clkinv_2
* cell instance $792 r0 *1 132.16,65.52
X$792 79 208 209 95 gf180mcu_fd_sc_mcu9t5v0__dlyb_2
* cell instance $799 m0 *1 88.48,85.68
X$799 209 208 81 129 105 gf180mcu_fd_sc_mcu9t5v0__nand2_2
* cell instance $801 r0 *1 79.52,65.52
X$801 208 81 105 209 91 gf180mcu_fd_sc_mcu9t5v0__and2_2
* cell instance $808 r0 *1 71.12,85.68
X$808 209 81 105 208 130 gf180mcu_fd_sc_mcu9t5v0__or2_2
* cell instance $811 r0 *1 83.44,75.6
X$811 109 82 108 110 209 208 125 gf180mcu_fd_sc_mcu9t5v0__and4_2
* cell instance $837 r0 *1 64.96,75.6
X$837 100 209 208 88 115 gf180mcu_fd_sc_mcu9t5v0__addh_1
* cell instance $842 m0 *1 54.32,75.6
X$842 104 209 208 88 99 gf180mcu_fd_sc_mcu9t5v0__addh_1
* cell instance $858 m0 *1 81.2,75.6
X$858 209 208 90 102 101 gf180mcu_fd_sc_mcu9t5v0__nor2_2
* cell instance $870 m0 *1 132.16,85.68
X$870 93 208 209 117 gf180mcu_fd_sc_mcu9t5v0__dlyb_2
* cell instance $902 m0 *1 58.24,115.92
X$902 209 208 173 170 98 169 gf180mcu_fd_sc_mcu9t5v0__mux2_2
* cell instance $908 r0 *1 54.32,75.6
X$908 209 208 99 115 gf180mcu_fd_sc_mcu9t5v0__clkinv_2
* cell instance $914 r0 *1 76.72,85.68
X$914 209 208 102 135 101 gf180mcu_fd_sc_mcu9t5v0__nand2_2
* cell instance $917 m0 *1 82.88,85.68
X$917 209 102 101 208 124 gf180mcu_fd_sc_mcu9t5v0__or2_2
* cell instance $958 r0 *1 81.76,85.68
X$958 208 135 209 130 124 109 129 gf180mcu_fd_sc_mcu9t5v0__oai22_2
* cell instance $967 r0 *1 19.04,75.6
X$967 209 118 111 208 113 gf180mcu_fd_sc_mcu9t5v0__or2_2
* cell instance $969 m0 *1 3.36,105.84
X$969 209 140 112 151 154 208 gf180mcu_fd_sc_mcu9t5v0__dffsnq_2
* cell instance $976 m0 *1 47.04,105.84
X$976 209 208 112 211 gf180mcu_fd_sc_mcu9t5v0__clkbuf_4
* cell instance $981 m0 *1 3.36,115.92
X$981 209 159 112 164 154 208 gf180mcu_fd_sc_mcu9t5v0__dffsnq_2
* cell instance $1011 m0 *1 12.32,126
X$1011 208 182 209 160 118 176 177 gf180mcu_fd_sc_mcu9t5v0__oai22_2
* cell instance $1013 r0 *1 68.88,126
X$1013 209 208 186 188 118 180 gf180mcu_fd_sc_mcu9t5v0__mux2_2
* cell instance $1024 r0 *1 73.92,115.92
X$1024 209 208 162 174 118 170 gf180mcu_fd_sc_mcu9t5v0__mux2_2
* cell instance $1026 r0 *1 49.28,126
X$1026 209 208 185 191 118 179 gf180mcu_fd_sc_mcu9t5v0__mux2_2
* cell instance $1029 m0 *1 87.92,136.08
X$1029 209 208 181 197 118 175 gf180mcu_fd_sc_mcu9t5v0__mux2_2
* cell instance $1031 r0 *1 87.36,136.08
X$1031 209 208 189 193 118 194 gf180mcu_fd_sc_mcu9t5v0__mux2_2
* cell instance $1033 r0 *1 33.6,126
X$1033 209 208 184 187 118 178 gf180mcu_fd_sc_mcu9t5v0__mux2_2
* cell instance $1046 r0 *1 40.32,85.68
X$1046 209 208 123 147 122 gf180mcu_fd_sc_mcu9t5v0__nand2_2
* cell instance $1049 r0 *1 36.4,85.68
X$1049 209 208 122 145 gf180mcu_fd_sc_mcu9t5v0__clkinv_2
* cell instance $1084 r0 *1 132.16,85.68
X$1084 131 208 209 132 gf180mcu_fd_sc_mcu9t5v0__dlyb_2
* cell instance $1090 r0 *1 2.24,85.68
X$1090 133 208 209 154 gf180mcu_fd_sc_mcu9t5v0__buf_2
* cell instance $1092 r0 *1 2.24,95.76
X$1092 209 133 149 208 gf180mcu_fd_sc_mcu9t5v0__dlyc_2
* cell instance $1125 m0 *1 2.24,95.76
X$1125 136 208 209 137 gf180mcu_fd_sc_mcu9t5v0__dlyb_2
* cell instance $1128 r0 *1 10.64,115.92
X$1128 209 208 139 182 137 gf180mcu_fd_sc_mcu9t5v0__nand2_2
* cell instance $1137 r0 *1 19.04,105.84
X$1137 209 208 139 157 gf180mcu_fd_sc_mcu9t5v0__clkinv_2
* cell instance $1143 r0 *1 5.6,115.92
X$1143 153 208 209 139 gf180mcu_fd_sc_mcu9t5v0__clkbuf_2
* cell instance $1149 r0 *1 2.24,105.84
X$1149 140 208 209 148 gf180mcu_fd_sc_mcu9t5v0__dlyb_2
* cell instance $1174 m0 *1 132.16,95.76
X$1174 144 208 209 155 gf180mcu_fd_sc_mcu9t5v0__dlyb_2
* cell instance $1183 m0 *1 46.48,115.92
X$1183 209 208 167 173 146 168 gf180mcu_fd_sc_mcu9t5v0__mux2_2
* cell instance $1198 m0 *1 3.92,126
X$1198 159 208 209 152 gf180mcu_fd_sc_mcu9t5v0__dlyb_2
* cell instance $1213 m0 *1 132.16,115.92
X$1213 171 208 209 156 gf180mcu_fd_sc_mcu9t5v0__dlyb_2
* cell instance $1215 r0 *1 10.64,105.84
X$1215 209 208 164 159 160 157 gf180mcu_fd_sc_mcu9t5v0__mux2_2
* cell instance $1236 m0 *1 43.68,136.08
X$1236 209 208 191 178 161 196 gf180mcu_fd_sc_mcu9t5v0__mux2_2
* cell instance $1242 r0 *1 85.12,115.92
X$1242 209 208 174 175 161 172 gf180mcu_fd_sc_mcu9t5v0__mux2_2
* cell instance $1244 m0 *1 96.32,136.08
X$1244 209 208 197 194 161 195 gf180mcu_fd_sc_mcu9t5v0__mux2_2
* cell instance $1246 m0 *1 68.32,136.08
X$1246 209 208 188 179 161 202 gf180mcu_fd_sc_mcu9t5v0__mux2_2
* cell instance $1249 m0 *1 79.52,136.08
X$1249 209 208 193 180 161 201 gf180mcu_fd_sc_mcu9t5v0__mux2_2
* cell instance $1253 m0 *1 32.48,136.08
X$1253 209 208 187 183 161 192 gf180mcu_fd_sc_mcu9t5v0__mux2_2
* cell instance $1269 r0 *1 110.32,136.08
X$1269 166 208 209 200 gf180mcu_fd_sc_mcu9t5v0__dlyb_2
* cell instance $1276 m0 *1 57.68,136.08
X$1276 168 208 209 198 gf180mcu_fd_sc_mcu9t5v0__dlyb_2
* cell instance $1281 r0 *1 59.36,136.08
X$1281 205 208 209 169 gf180mcu_fd_sc_mcu9t5v0__dlyb_2
* cell instance $1294 r0 *1 103.6,126
X$1294 190 208 209 172 gf180mcu_fd_sc_mcu9t5v0__dlyb_2
* cell instance $1312 m0 *1 22.4,126
X$1312 209 208 183 177 gf180mcu_fd_sc_mcu9t5v0__clkinv_2
* cell instance $1363 r0 *1 34.16,136.08
X$1363 203 208 209 192 gf180mcu_fd_sc_mcu9t5v0__dlyb_2
* cell instance $1374 r0 *1 101.92,136.08
X$1374 207 208 209 195 gf180mcu_fd_sc_mcu9t5v0__dlyb_2
* cell instance $1380 r0 *1 50.96,136.08
X$1380 204 208 209 196 gf180mcu_fd_sc_mcu9t5v0__dlyb_2
* cell instance $1391 r0 *1 67.76,136.08
X$1391 199 208 209 202 gf180mcu_fd_sc_mcu9t5v0__dlyb_2
* cell instance $1397 r0 *1 78.96,136.08
X$1397 206 208 209 201 gf180mcu_fd_sc_mcu9t5v0__dlyb_2
.ENDS basic_spi_master

* cell gf180mcu_fd_sc_mcu9t5v0__nand3_4
* pin PWELL,VSS,gf180mcu_gnd
* pin A1
* pin A3
* pin ZN
* pin A2
* pin NWELL,VDD
.SUBCKT gf180mcu_fd_sc_mcu9t5v0__nand3_4 1 2 4 5 11 12
* net 1 PWELL,VSS,gf180mcu_gnd
* net 2 A1
* net 4 A3
* net 5 ZN
* net 11 A2
* net 12 NWELL,VDD
* device instance $1 r0 *1 0.87,3.965 pmos_5p0
M$1 5 11 12 12 pmos_5p0 L=0.5U W=5.84U AS=1.8542P AD=1.5914P PS=9.84U PD=8.02U
* device instance $2 r0 *1 1.89,3.965 pmos_5p0
M$2 12 4 5 12 pmos_5p0 L=0.5U W=5.84U AS=1.6644P AD=1.6644P PS=8.12U PD=8.12U
* device instance $9 r0 *1 9.33,3.965 pmos_5p0
M$9 5 2 12 12 pmos_5p0 L=0.5U W=5.84U AS=1.7374P AD=2.0002P PS=8.22U PD=10.04U
* device instance $13 r0 *1 0.92,1.005 nmos_5p0
M$13 6 11 3 1 nmos_5p0 L=0.6U W=1.32U AS=0.5808P AD=0.2772P PS=3.52U PD=1.74U
* device instance $14 r0 *1 1.94,1.005 nmos_5p0
M$14 1 4 6 1 nmos_5p0 L=0.6U W=1.32U AS=0.2772P AD=0.3432P PS=1.74U PD=1.84U
* device instance $15 r0 *1 3.06,1.005 nmos_5p0
M$15 7 4 1 1 nmos_5p0 L=0.6U W=1.32U AS=0.3432P AD=0.2772P PS=1.84U PD=1.74U
* device instance $16 r0 *1 4.08,1.005 nmos_5p0
M$16 3 11 7 1 nmos_5p0 L=0.6U W=1.32U AS=0.2772P AD=0.3432P PS=1.74U PD=1.84U
* device instance $17 r0 *1 5.2,1.005 nmos_5p0
M$17 9 11 3 1 nmos_5p0 L=0.6U W=1.32U AS=0.3432P AD=0.2772P PS=1.84U PD=1.74U
* device instance $18 r0 *1 6.22,1.005 nmos_5p0
M$18 1 4 9 1 nmos_5p0 L=0.6U W=1.32U AS=0.2772P AD=0.3432P PS=1.74U PD=1.84U
* device instance $19 r0 *1 7.34,1.005 nmos_5p0
M$19 8 4 1 1 nmos_5p0 L=0.6U W=1.32U AS=0.3432P AD=0.2772P PS=1.84U PD=1.74U
* device instance $20 r0 *1 8.36,1.005 nmos_5p0
M$20 10 11 8 1 nmos_5p0 L=0.6U W=1.32U AS=0.2772P AD=0.2772P PS=1.74U PD=1.74U
* device instance $21 r0 *1 9.38,1.005 nmos_5p0
M$21 5 2 10 1 nmos_5p0 L=0.6U W=1.32U AS=0.2772P AD=0.3432P PS=1.74U PD=1.84U
* device instance $22 r0 *1 10.5,1.005 nmos_5p0
M$22 3 2 5 1 nmos_5p0 L=0.6U W=3.96U AS=1.0296P AD=1.2672P PS=5.52U PD=7.2U
.ENDS gf180mcu_fd_sc_mcu9t5v0__nand3_4

* cell gf180mcu_fd_sc_mcu9t5v0__oai32_2
* pin NWELL,VDD
* pin PWELL,VSS,gf180mcu_gnd
* pin A2
* pin A1
* pin A3
* pin B2
* pin ZN
* pin B1
.SUBCKT gf180mcu_fd_sc_mcu9t5v0__oai32_2 1 2 3 4 5 7 8 9
* net 1 NWELL,VDD
* net 2 PWELL,VSS,gf180mcu_gnd
* net 3 A2
* net 4 A1
* net 5 A3
* net 7 B2
* net 8 ZN
* net 9 B1
* device instance $1 r0 *1 0.97,3.78 pmos_5p0
M$1 15 5 1 1 pmos_5p0 L=0.5U W=1.83U AS=0.8052P AD=0.52155P PS=4.54U PD=2.4U
* device instance $2 r0 *1 2.04,3.78 pmos_5p0
M$2 14 3 15 1 pmos_5p0 L=0.5U W=1.83U AS=0.52155P AD=0.5673P PS=2.4U PD=2.45U
* device instance $3 r0 *1 3.16,3.78 pmos_5p0
M$3 8 4 14 1 pmos_5p0 L=0.5U W=1.83U AS=0.5673P AD=0.5673P PS=2.45U PD=2.45U
* device instance $4 r0 *1 4.28,3.78 pmos_5p0
M$4 13 4 8 1 pmos_5p0 L=0.5U W=1.83U AS=0.5673P AD=0.52155P PS=2.45U PD=2.4U
* device instance $5 r0 *1 5.35,3.78 pmos_5p0
M$5 11 3 13 1 pmos_5p0 L=0.5U W=1.83U AS=0.52155P AD=0.5673P PS=2.4U PD=2.45U
* device instance $6 r0 *1 6.47,3.78 pmos_5p0
M$6 1 5 11 1 pmos_5p0 L=0.5U W=1.83U AS=0.5673P AD=0.6588P PS=2.45U PD=2.55U
* device instance $7 r0 *1 7.69,3.78 pmos_5p0
M$7 12 7 1 1 pmos_5p0 L=0.5U W=1.83U AS=0.6588P AD=0.52155P PS=2.55U PD=2.4U
* device instance $8 r0 *1 8.76,3.78 pmos_5p0
M$8 8 9 12 1 pmos_5p0 L=0.5U W=1.83U AS=0.52155P AD=0.5673P PS=2.4U PD=2.45U
* device instance $9 r0 *1 9.88,3.78 pmos_5p0
M$9 10 9 8 1 pmos_5p0 L=0.5U W=1.83U AS=0.5673P AD=0.52155P PS=2.45U PD=2.4U
* device instance $10 r0 *1 10.95,3.78 pmos_5p0
M$10 1 7 10 1 pmos_5p0 L=0.5U W=1.83U AS=0.52155P AD=0.8052P PS=2.4U PD=4.54U
* device instance $11 r0 *1 0.92,1.005 nmos_5p0
M$11 2 5 6 2 nmos_5p0 L=0.6U W=2.64U AS=0.924P AD=0.6864P PS=5.36U PD=3.68U
* device instance $12 r0 *1 2.04,1.005 nmos_5p0
M$12 6 3 2 2 nmos_5p0 L=0.6U W=2.64U AS=0.6864P AD=0.6864P PS=3.68U PD=3.68U
* device instance $13 r0 *1 3.16,1.005 nmos_5p0
M$13 2 4 6 2 nmos_5p0 L=0.6U W=2.64U AS=0.6864P AD=0.6864P PS=3.68U PD=3.68U
* device instance $17 r0 *1 7.64,1.005 nmos_5p0
M$17 8 7 6 2 nmos_5p0 L=0.6U W=2.64U AS=0.6864P AD=1.2408P PS=3.68U PD=5.84U
* device instance $18 r0 *1 8.76,1.005 nmos_5p0
M$18 6 9 8 2 nmos_5p0 L=0.6U W=2.64U AS=0.6864P AD=0.6864P PS=3.68U PD=3.68U
.ENDS gf180mcu_fd_sc_mcu9t5v0__oai32_2

* cell gf180mcu_fd_sc_mcu9t5v0__oai21_2
* pin NWELL,VDD
* pin B
* pin PWELL,VSS,gf180mcu_gnd
* pin A2
* pin ZN
* pin A1
.SUBCKT gf180mcu_fd_sc_mcu9t5v0__oai21_2 1 2 3 4 5 6
* net 1 NWELL,VDD
* net 2 B
* net 3 PWELL,VSS,gf180mcu_gnd
* net 4 A2
* net 5 ZN
* net 6 A1
* device instance $1 r0 *1 0.97,3.872 pmos_5p0
M$1 5 2 1 1 pmos_5p0 L=0.5U W=3.29U AS=1.353P AD=0.8554P PS=6.72U PD=4.33U
* device instance $3 r0 *1 3.21,3.78 pmos_5p0
M$3 9 4 1 1 pmos_5p0 L=0.5U W=1.83U AS=0.6292P AD=0.52155P PS=2.55U PD=2.4U
* device instance $4 r0 *1 4.28,3.78 pmos_5p0
M$4 5 6 9 1 pmos_5p0 L=0.5U W=1.83U AS=0.52155P AD=0.5673P PS=2.4U PD=2.45U
* device instance $5 r0 *1 5.4,3.78 pmos_5p0
M$5 8 6 5 1 pmos_5p0 L=0.5U W=1.83U AS=0.5673P AD=0.52155P PS=2.45U PD=2.4U
* device instance $6 r0 *1 6.47,3.78 pmos_5p0
M$6 1 4 8 1 pmos_5p0 L=0.5U W=1.83U AS=0.52155P AD=0.8052P PS=2.4U PD=4.54U
* device instance $7 r0 *1 0.92,1.005 nmos_5p0
M$7 3 2 7 3 nmos_5p0 L=0.6U W=2.64U AS=0.924P AD=0.6864P PS=5.36U PD=3.68U
* device instance $9 r0 *1 3.16,1.005 nmos_5p0
M$9 5 4 7 3 nmos_5p0 L=0.6U W=2.64U AS=0.6864P AD=0.924P PS=3.68U PD=5.36U
* device instance $10 r0 *1 4.28,1.005 nmos_5p0
M$10 7 6 5 3 nmos_5p0 L=0.6U W=2.64U AS=0.6864P AD=0.6864P PS=3.68U PD=3.68U
.ENDS gf180mcu_fd_sc_mcu9t5v0__oai21_2

* cell gf180mcu_fd_sc_mcu9t5v0__inv_2
* pin PWELL,VSS,gf180mcu_gnd
* pin NWELL,VDD
* pin I
* pin ZN
.SUBCKT gf180mcu_fd_sc_mcu9t5v0__inv_2 1 2 3 4
* net 1 PWELL,VSS,gf180mcu_gnd
* net 2 NWELL,VDD
* net 3 I
* net 4 ZN
* device instance $1 r0 *1 0.87,3.78 pmos_5p0
M$1 4 3 2 2 pmos_5p0 L=0.5U W=3.66U AS=1.39995P AD=1.7385P PS=7.02U PD=7.39U
* device instance $3 r0 *1 0.92,1.005 nmos_5p0
M$3 4 3 1 1 nmos_5p0 L=0.6U W=2.64U AS=0.9438P AD=0.9438P PS=5.39U PD=5.39U
.ENDS gf180mcu_fd_sc_mcu9t5v0__inv_2

* cell gf180mcu_fd_sc_mcu9t5v0__or4_2
* pin A1
* pin A2
* pin A3
* pin A4
* pin NWELL,VDD
* pin PWELL,VSS,gf180mcu_gnd
* pin Z
.SUBCKT gf180mcu_fd_sc_mcu9t5v0__or4_2 1 3 4 5 6 7 8
* net 1 A1
* net 3 A2
* net 4 A3
* net 5 A4
* net 6 NWELL,VDD
* net 7 PWELL,VSS,gf180mcu_gnd
* net 8 Z
* device instance $1 r0 *1 0.97,3.78 pmos_5p0
M$1 11 1 2 6 pmos_5p0 L=0.5U W=1.83U AS=0.8052P AD=0.52155P PS=4.54U PD=2.4U
* device instance $2 r0 *1 2.04,3.78 pmos_5p0
M$2 10 3 11 6 pmos_5p0 L=0.5U W=1.83U AS=0.52155P AD=0.5673P PS=2.4U PD=2.45U
* device instance $3 r0 *1 3.16,3.78 pmos_5p0
M$3 9 4 10 6 pmos_5p0 L=0.5U W=1.83U AS=0.5673P AD=0.5673P PS=2.45U PD=2.45U
* device instance $4 r0 *1 4.28,3.78 pmos_5p0
M$4 6 5 9 6 pmos_5p0 L=0.5U W=1.83U AS=0.5673P AD=0.732P PS=2.45U PD=2.63U
* device instance $5 r0 *1 5.58,3.78 pmos_5p0
M$5 8 2 6 6 pmos_5p0 L=0.5U W=3.66U AS=1.25355P AD=1.32675P PS=5.03U PD=6.94U
* device instance $7 r0 *1 0.92,0.74 nmos_5p0
M$7 2 1 7 7 nmos_5p0 L=0.6U W=0.79U AS=0.3476P AD=0.2054P PS=2.46U PD=1.31U
* device instance $8 r0 *1 2.04,0.74 nmos_5p0
M$8 7 3 2 7 nmos_5p0 L=0.6U W=0.79U AS=0.2054P AD=0.2054P PS=1.31U PD=1.31U
* device instance $9 r0 *1 3.16,0.74 nmos_5p0
M$9 2 4 7 7 nmos_5p0 L=0.6U W=0.79U AS=0.2054P AD=0.2054P PS=1.31U PD=1.31U
* device instance $10 r0 *1 4.28,0.74 nmos_5p0
M$10 7 5 2 7 nmos_5p0 L=0.6U W=0.79U AS=0.2054P AD=0.3825P PS=1.31U PD=2.02U
* device instance $11 r0 *1 5.58,1.005 nmos_5p0
M$11 8 2 7 7 nmos_5p0 L=0.6U W=2.64U AS=0.7257P AD=0.924P PS=3.86U PD=5.36U
.ENDS gf180mcu_fd_sc_mcu9t5v0__or4_2

* cell gf180mcu_fd_sc_mcu9t5v0__aoi22_2
* pin PWELL,VSS,gf180mcu_gnd
* pin B2
* pin NWELL,VDD
* pin B1
* pin ZN
* pin A2
* pin A1
.SUBCKT gf180mcu_fd_sc_mcu9t5v0__aoi22_2 1 2 3 4 5 7 8
* net 1 PWELL,VSS,gf180mcu_gnd
* net 2 B2
* net 3 NWELL,VDD
* net 4 B1
* net 5 ZN
* net 7 A2
* net 8 A1
* device instance $1 r0 *1 0.87,3.78 pmos_5p0
M$1 3 2 6 3 pmos_5p0 L=0.5U W=3.66U AS=1.281P AD=0.9516P PS=6.89U PD=4.7U
* device instance $2 r0 *1 1.89,3.78 pmos_5p0
M$2 6 4 3 3 pmos_5p0 L=0.5U W=3.66U AS=0.9516P AD=0.9516P PS=4.7U PD=4.7U
* device instance $5 r0 *1 4.95,3.78 pmos_5p0
M$5 5 7 6 3 pmos_5p0 L=0.5U W=3.66U AS=0.9516P AD=1.281P PS=4.7U PD=6.89U
* device instance $6 r0 *1 5.97,3.78 pmos_5p0
M$6 6 8 5 3 pmos_5p0 L=0.5U W=3.66U AS=0.9516P AD=0.9516P PS=4.7U PD=4.7U
* device instance $9 r0 *1 0.92,1.005 nmos_5p0
M$9 12 2 1 1 nmos_5p0 L=0.6U W=1.32U AS=0.5808P AD=0.2112P PS=3.52U PD=1.64U
* device instance $10 r0 *1 1.84,1.005 nmos_5p0
M$10 5 4 12 1 nmos_5p0 L=0.6U W=1.32U AS=0.2112P AD=0.3663P PS=1.64U PD=1.875U
* device instance $11 r0 *1 2.995,1.005 nmos_5p0
M$11 11 4 5 1 nmos_5p0 L=0.6U W=1.32U AS=0.3663P AD=0.1881P PS=1.875U PD=1.605U
* device instance $12 r0 *1 3.88,1.005 nmos_5p0
M$12 1 2 11 1 nmos_5p0 L=0.6U W=1.32U AS=0.1881P AD=0.3432P PS=1.605U PD=1.84U
* device instance $13 r0 *1 5,1.005 nmos_5p0
M$13 10 7 1 1 nmos_5p0 L=0.6U W=1.32U AS=0.3432P AD=0.2112P PS=1.84U PD=1.64U
* device instance $14 r0 *1 5.92,1.005 nmos_5p0
M$14 5 8 10 1 nmos_5p0 L=0.6U W=1.32U AS=0.2112P AD=0.3432P PS=1.64U PD=1.84U
* device instance $15 r0 *1 7.04,1.005 nmos_5p0
M$15 9 8 5 1 nmos_5p0 L=0.6U W=1.32U AS=0.3432P AD=0.2112P PS=1.84U PD=1.64U
* device instance $16 r0 *1 7.96,1.005 nmos_5p0
M$16 1 7 9 1 nmos_5p0 L=0.6U W=1.32U AS=0.2112P AD=0.5808P PS=1.64U PD=3.52U
.ENDS gf180mcu_fd_sc_mcu9t5v0__aoi22_2

* cell gf180mcu_fd_sc_mcu9t5v0__nand2_4
* pin NWELL,VDD
* pin PWELL,VSS,gf180mcu_gnd
* pin A2
* pin ZN
* pin A1
.SUBCKT gf180mcu_fd_sc_mcu9t5v0__nand2_4 1 2 3 4 5
* net 1 NWELL,VDD
* net 2 PWELL,VSS,gf180mcu_gnd
* net 3 A2
* net 4 ZN
* net 5 A1
* device instance $1 r0 *1 0.87,3.687 pmos_5p0
M$1 4 3 1 1 pmos_5p0 L=0.5U W=6.58U AS=2.0069P AD=2.0069P PS=10.665U PD=10.665U
* device instance $2 r0 *1 1.89,3.687 pmos_5p0
M$2 1 5 4 1 pmos_5p0 L=0.5U W=6.58U AS=1.7108P AD=1.7108P PS=8.66U PD=8.66U
* device instance $9 r0 *1 1,1.005 nmos_5p0
M$9 9 3 2 2 nmos_5p0 L=0.6U W=1.32U AS=0.5808P AD=0.1584P PS=3.52U PD=1.56U
* device instance $10 r0 *1 1.84,1.005 nmos_5p0