* CDL Netlist generated by OpenROAD

*.BUSDELIMITER [

.SUBCKT true_random_generator clk data_valid enable entropy_low
+ random_data[0] random_data[10] random_data[11] random_data[12]
+ random_data[13] random_data[14] random_data[15] random_data[16]
+ random_data[17] random_data[18] random_data[19] random_data[1]
+ random_data[20] random_data[21] random_data[22] random_data[23]
+ random_data[24] random_data[25] random_data[26] random_data[27]
+ random_data[28] random_data[29] random_data[2] random_data[30]
+ random_data[31] random_data[3] random_data[4] random_data[5]
+ random_data[6] random_data[7] random_data[8] random_data[9]
+ read_next rst_n test_failed
X_0770_ state\[0\] _0142_ VDD VSS BUF_X2
X_0771_ state\[1\] _0143_ VDD VSS BUF_X4
X_0772_ _0143_ _0144_ VDD VSS INV_X4
X_0773_ _0142_ _0144_ _0145_ VDD VSS NOR2_X4
X_0774_ _0145_ _0146_ VDD VSS BUF_X2
X_0775_ mixed_output\[1\] _0146_ net15 VDD VSS AND2_X1
X_0776_ mixed_output\[0\] _0146_ net4 VDD VSS AND2_X1
X_0777_ mixed_output\[3\] _0146_ net29 VDD VSS AND2_X1
X_0778_ mixed_output\[2\] _0146_ net26 VDD VSS AND2_X1
X_0779_ mixed_output\[5\] _0146_ net31 VDD VSS AND2_X1
X_0780_ mixed_output\[4\] _0146_ net30 VDD VSS AND2_X1
X_0781_ mixed_output\[7\] _0146_ net33 VDD VSS AND2_X1
X_0782_ mixed_output\[6\] _0146_ net32 VDD VSS AND2_X1
X_0783_ _0145_ _0147_ VDD VSS CLKBUF_X2
X_0784_ mixed_output\[9\] _0147_ net35 VDD VSS AND2_X1
X_0785_ mixed_output\[8\] _0147_ net34 VDD VSS AND2_X1
X_0786_ mixed_output\[11\] _0147_ net6 VDD VSS AND2_X1
X_0787_ mixed_output\[10\] _0147_ net5 VDD VSS AND2_X1
X_0788_ mixed_output\[13\] _0147_ net8 VDD VSS AND2_X1
X_0789_ mixed_output\[12\] _0147_ net7 VDD VSS AND2_X1
X_0790_ mixed_output\[15\] _0147_ net10 VDD VSS AND2_X1
X_0791_ mixed_output\[14\] _0147_ net9 VDD VSS AND2_X1
X_0792_ mixed_output\[17\] _0147_ net12 VDD VSS AND2_X1
X_0793_ mixed_output\[16\] _0147_ net11 VDD VSS AND2_X1
X_0794_ _0145_ _0148_ VDD VSS CLKBUF_X2
X_0795_ mixed_output\[19\] _0148_ net14 VDD VSS AND2_X1
X_0796_ mixed_output\[18\] _0148_ net13 VDD VSS AND2_X1
X_0797_ mixed_output\[21\] _0148_ net17 VDD VSS AND2_X1
X_0798_ mixed_output\[20\] _0148_ net16 VDD VSS AND2_X1
X_0799_ mixed_output\[23\] _0148_ net19 VDD VSS AND2_X1
X_0800_ mixed_output\[22\] _0148_ net18 VDD VSS AND2_X1
X_0801_ mixed_output\[25\] _0148_ net21 VDD VSS AND2_X1
X_0802_ mixed_output\[24\] _0148_ net20 VDD VSS AND2_X1
X_0803_ mixed_output\[27\] _0148_ net23 VDD VSS AND2_X1
X_0804_ mixed_output\[26\] _0148_ net22 VDD VSS AND2_X1
X_0805_ _0145_ _0149_ VDD VSS CLKBUF_X3
X_0806_ mixed_output\[29\] _0149_ net25 VDD VSS AND2_X1
X_0807_ mixed_output\[28\] _0149_ net24 VDD VSS AND2_X1
X_0808_ mixed_output\[31\] _0149_ net28 VDD VSS AND2_X1
X_0809_ mixed_output\[30\] _0149_ net27 VDD VSS AND2_X1
X_0810_ rst_n _0150_ VDD VSS BUF_X8
X_0811_ _0150_ _0151_ VDD VSS INV_X8
X_0812_ _0151_ _0152_ VDD VSS BUF_X8
X_0813_ _0152_ _0153_ VDD VSS BUF_X4
X_0814_ _0153_ _0000_ VDD VSS BUF_X4
X_0815_ gen_ring_osc.init_osc gen_ring_osc.inv_chain\[1\]
+ gen_ring_osc.inv_chain\[1\] VDD VSS OR2_X1
X_0816_ _0142_ _0154_ VDD VSS INV_X2
X_0817_ _0154_ _0143_ _0155_ VDD VSS NAND2_X2
X_0818_ _0155_ _0156_ VDD VSS CLKBUF_X3
X_0819_ _0156_ _0157_ VDD VSS CLKBUF_X3
X_0820_ _0000_ _0157_ _0002_ VDD VSS NOR2_X1
X_0821_ _0150_ _0158_ VDD VSS CLKBUF_X3
X_0822_ _0158_ _0159_ VDD VSS BUF_X4
X_0823_ _0159_ _0160_ VDD VSS CLKBUF_X3
X_0824_ enable _0161_ VDD VSS CLKBUF_X3
X_0825_ _0142_ _0144_ _0161_ _0162_ VDD VSS NAND3_X1
X_0826_ _0162_ _0163_ VDD VSS CLKBUF_X3
X_0827_ _0163_ _0164_ VDD VSS CLKBUF_X3
X_0828_ entropy_pool2\[0\] _0164_ _0165_ VDD VSS NAND2_X1
X_0829_ _0143_ _0166_ VDD VSS BUF_X4
X_0830_ _0161_ _0167_ VDD VSS INV_X2
X_0831_ _0154_ _0166_ _0167_ _0168_ VDD VSS NOR3_X1
X_0832_ _0168_ _0169_ VDD VSS BUF_X4
X_0833_ _0169_ _0170_ VDD VSS BUF_X4
X_0834_ entropy_pool2\[1\] _0170_ _0171_ VDD VSS NAND2_X1
X_0835_ _0160_ _0165_ _0171_ _0003_ VDD VSS NAND3_X1
X_0836_ entropy_pool2\[10\] _0164_ _0172_ VDD VSS NAND2_X1
X_0837_ entropy_pool2\[11\] _0170_ _0173_ VDD VSS NAND2_X1
X_0838_ _0160_ _0172_ _0173_ _0004_ VDD VSS NAND3_X1
X_0839_ entropy_pool2\[11\] _0164_ _0174_ VDD VSS NAND2_X1
X_0840_ entropy_pool2\[12\] _0170_ _0175_ VDD VSS NAND2_X1
X_0841_ _0160_ _0174_ _0175_ _0005_ VDD VSS NAND3_X1
X_0842_ entropy_pool2\[12\] _0164_ _0176_ VDD VSS NAND2_X1
X_0843_ entropy_pool2\[13\] _0170_ _0177_ VDD VSS NAND2_X1
X_0844_ _0160_ _0176_ _0177_ _0006_ VDD VSS NAND3_X1
X_0845_ entropy_pool2\[13\] _0164_ _0178_ VDD VSS NAND2_X1
X_0846_ entropy_pool2\[14\] _0170_ _0179_ VDD VSS NAND2_X1
X_0847_ _0160_ _0178_ _0179_ _0007_ VDD VSS NAND3_X1
X_0848_ entropy_pool2\[14\] _0164_ _0180_ VDD VSS NAND2_X1
X_0849_ entropy_pool2\[15\] _0170_ _0181_ VDD VSS NAND2_X1
X_0850_ _0160_ _0180_ _0181_ _0008_ VDD VSS NAND3_X1
X_0851_ entropy_pool2\[15\] _0164_ _0182_ VDD VSS NAND2_X1
X_0852_ entropy_pool2\[16\] _0170_ _0183_ VDD VSS NAND2_X1
X_0853_ _0160_ _0182_ _0183_ _0009_ VDD VSS NAND3_X1
X_0854_ entropy_pool2\[16\] _0164_ _0184_ VDD VSS NAND2_X1
X_0855_ entropy_pool2\[17\] _0170_ _0185_ VDD VSS NAND2_X1
X_0856_ _0160_ _0184_ _0185_ _0010_ VDD VSS NAND3_X1
X_0857_ entropy_pool2\[17\] _0164_ _0186_ VDD VSS NAND2_X1
X_0858_ _0169_ _0187_ VDD VSS BUF_X4
X_0859_ entropy_pool2\[18\] _0187_ _0188_ VDD VSS NAND2_X1
X_0860_ _0160_ _0186_ _0188_ _0011_ VDD VSS NAND3_X1
X_0861_ entropy_pool2\[18\] _0164_ _0189_ VDD VSS NAND2_X1
X_0862_ entropy_pool2\[19\] _0187_ _0190_ VDD VSS NAND2_X1
X_0863_ _0160_ _0189_ _0190_ _0012_ VDD VSS NAND3_X1
X_0864_ _0159_ _0191_ VDD VSS CLKBUF_X3
X_0865_ _0163_ _0192_ VDD VSS CLKBUF_X3
X_0866_ entropy_pool2\[19\] _0192_ _0193_ VDD VSS NAND2_X1
X_0867_ entropy_pool2\[20\] _0187_ _0194_ VDD VSS NAND2_X1
X_0868_ _0191_ _0193_ _0194_ _0013_ VDD VSS NAND3_X1
X_0869_ entropy_pool2\[1\] _0192_ _0195_ VDD VSS NAND2_X1
X_0870_ entropy_pool2\[2\] _0187_ _0196_ VDD VSS NAND2_X1
X_0871_ _0191_ _0195_ _0196_ _0014_ VDD VSS NAND3_X1
X_0872_ entropy_pool2\[20\] _0192_ _0197_ VDD VSS NAND2_X1
X_0873_ entropy_pool2\[21\] _0187_ _0198_ VDD VSS NAND2_X1
X_0874_ _0191_ _0197_ _0198_ _0015_ VDD VSS NAND3_X1
X_0875_ entropy_pool2\[21\] _0192_ _0199_ VDD VSS NAND2_X1
X_0876_ entropy_pool2\[22\] _0187_ _0200_ VDD VSS NAND2_X1
X_0877_ _0191_ _0199_ _0200_ _0016_ VDD VSS NAND3_X1
X_0878_ entropy_pool2\[22\] _0192_ _0201_ VDD VSS NAND2_X1
X_0879_ entropy_pool2\[23\] _0187_ _0202_ VDD VSS NAND2_X1
X_0880_ _0191_ _0201_ _0202_ _0017_ VDD VSS NAND3_X1
X_0881_ entropy_pool2\[23\] _0192_ _0203_ VDD VSS NAND2_X1
X_0882_ entropy_pool2\[24\] _0187_ _0204_ VDD VSS NAND2_X1
X_0883_ _0191_ _0203_ _0204_ _0018_ VDD VSS NAND3_X1
X_0884_ entropy_pool2\[24\] _0192_ _0205_ VDD VSS NAND2_X1
X_0885_ entropy_pool2\[25\] _0187_ _0206_ VDD VSS NAND2_X1
X_0886_ _0191_ _0205_ _0206_ _0019_ VDD VSS NAND3_X1
X_0887_ entropy_pool2\[25\] _0192_ _0207_ VDD VSS NAND2_X1
X_0888_ entropy_pool2\[26\] _0187_ _0208_ VDD VSS NAND2_X1
X_0889_ _0191_ _0207_ _0208_ _0020_ VDD VSS NAND3_X1
X_0890_ entropy_pool2\[26\] _0192_ _0209_ VDD VSS NAND2_X1
X_0891_ _0169_ _0210_ VDD VSS BUF_X4
X_0892_ entropy_pool2\[27\] _0210_ _0211_ VDD VSS NAND2_X1
X_0893_ _0191_ _0209_ _0211_ _0021_ VDD VSS NAND3_X1
X_0894_ entropy_pool2\[27\] _0192_ _0212_ VDD VSS NAND2_X1
X_0895_ entropy_pool2\[28\] _0210_ _0213_ VDD VSS NAND2_X1
X_0896_ _0191_ _0212_ _0213_ _0022_ VDD VSS NAND3_X1
X_0897_ _0159_ _0214_ VDD VSS CLKBUF_X3
X_0898_ _0163_ _0215_ VDD VSS CLKBUF_X3
X_0899_ entropy_pool2\[28\] _0215_ _0216_ VDD VSS NAND2_X1
X_0900_ entropy_pool2\[29\] _0210_ _0217_ VDD VSS NAND2_X1
X_0901_ _0214_ _0216_ _0217_ _0023_ VDD VSS NAND3_X1
X_0902_ entropy_pool2\[29\] _0215_ _0218_ VDD VSS NAND2_X1
X_0903_ entropy_pool2\[30\] _0210_ _0219_ VDD VSS NAND2_X1
X_0904_ _0214_ _0218_ _0219_ _0024_ VDD VSS NAND3_X1
X_0905_ entropy_pool2\[2\] _0215_ _0220_ VDD VSS NAND2_X1
X_0906_ entropy_pool2\[3\] _0210_ _0221_ VDD VSS NAND2_X1
X_0907_ _0214_ _0220_ _0221_ _0025_ VDD VSS NAND3_X1
X_0908_ entropy_pool2\[30\] _0215_ _0222_ VDD VSS NAND2_X1
X_0909_ entropy_pool2\[31\] _0210_ _0223_ VDD VSS NAND2_X1
X_0910_ _0214_ _0222_ _0223_ _0026_ VDD VSS NAND3_X1
X_0911_ entropy_pool2\[0\] gen_ring_osc.toggle_sampling _0224_
+ VDD VSS XOR2_X1
X_0912_ _0170_ _0224_ _0225_ VDD VSS NAND2_X1
X_0913_ _0163_ _0226_ VDD VSS CLKBUF_X3
X_0914_ entropy_pool2\[31\] _0226_ _0227_ VDD VSS NAND2_X1
X_0915_ _0214_ _0225_ _0227_ _0027_ VDD VSS NAND3_X1
X_0916_ entropy_pool2\[3\] _0215_ _0228_ VDD VSS NAND2_X1
X_0917_ entropy_pool2\[4\] _0210_ _0229_ VDD VSS NAND2_X1
X_0918_ _0214_ _0228_ _0229_ _0028_ VDD VSS NAND3_X1
X_0919_ entropy_pool2\[4\] _0215_ _0230_ VDD VSS NAND2_X1
X_0920_ entropy_pool2\[5\] _0210_ _0231_ VDD VSS NAND2_X1
X_0921_ _0214_ _0230_ _0231_ _0029_ VDD VSS NAND3_X1
X_0922_ entropy_pool2\[5\] _0215_ _0232_ VDD VSS NAND2_X1
X_0923_ entropy_pool2\[6\] _0210_ _0233_ VDD VSS NAND2_X1
X_0924_ _0214_ _0232_ _0233_ _0030_ VDD VSS NAND3_X1
X_0925_ entropy_pool2\[6\] _0215_ _0234_ VDD VSS NAND2_X1
X_0926_ entropy_pool2\[7\] _0210_ _0235_ VDD VSS NAND2_X1
X_0927_ _0214_ _0234_ _0235_ _0031_ VDD VSS NAND3_X1
X_0928_ entropy_pool2\[7\] _0215_ _0236_ VDD VSS NAND2_X1
X_0929_ _0169_ _0237_ VDD VSS BUF_X4
X_0930_ entropy_pool2\[8\] _0237_ _0238_ VDD VSS NAND2_X1
X_0931_ _0214_ _0236_ _0238_ _0032_ VDD VSS NAND3_X1
X_0932_ _0159_ _0239_ VDD VSS CLKBUF_X3
X_0933_ entropy_pool2\[8\] _0215_ _0240_ VDD VSS NAND2_X1
X_0934_ entropy_pool2\[9\] _0237_ _0241_ VDD VSS NAND2_X1
X_0935_ _0239_ _0240_ _0241_ _0033_ VDD VSS NAND3_X1
X_0936_ entropy_pool2\[9\] _0226_ _0242_ VDD VSS NAND2_X1
X_0937_ entropy_pool2\[10\] _0237_ _0243_ VDD VSS NAND2_X1
X_0938_ _0239_ _0242_ _0243_ _0034_ VDD VSS NAND3_X1
X_0939_ entropy_pool\[31\] gen_ring_osc.toggle_sampling _0244_
+ VDD VSS XOR2_X1
X_0940_ _0170_ _0244_ _0245_ VDD VSS NAND2_X1
X_0941_ entropy_pool\[0\] _0226_ _0246_ VDD VSS NAND2_X1
X_0942_ _0239_ _0245_ _0246_ _0035_ VDD VSS NAND3_X1
X_0943_ entropy_pool\[9\] _0237_ _0247_ VDD VSS NAND2_X1
X_0944_ entropy_pool\[10\] _0226_ _0248_ VDD VSS NAND2_X1
X_0945_ _0000_ _0247_ _0248_ _0036_ VDD VSS AOI21_X1
X_0946_ entropy_pool\[10\] _0237_ _0249_ VDD VSS NAND2_X1
X_0947_ entropy_pool\[11\] _0226_ _0250_ VDD VSS NAND2_X1
X_0948_ _0000_ _0249_ _0250_ _0037_ VDD VSS AOI21_X1
X_0949_ entropy_pool\[11\] _0237_ _0251_ VDD VSS NAND2_X1
X_0950_ entropy_pool\[12\] _0226_ _0252_ VDD VSS NAND2_X1
X_0951_ _0000_ _0251_ _0252_ _0038_ VDD VSS AOI21_X1
X_0952_ entropy_pool\[12\] _0237_ _0253_ VDD VSS NAND2_X1
X_0953_ entropy_pool\[13\] _0226_ _0254_ VDD VSS NAND2_X1
X_0954_ _0000_ _0253_ _0254_ _0039_ VDD VSS AOI21_X1
X_0955_ entropy_pool\[13\] _0237_ _0255_ VDD VSS NAND2_X1
X_0956_ entropy_pool\[14\] _0226_ _0256_ VDD VSS NAND2_X1
X_0957_ _0000_ _0255_ _0256_ _0040_ VDD VSS AOI21_X1
X_0958_ _0153_ _0257_ VDD VSS CLKBUF_X3
X_0959_ entropy_pool\[14\] _0237_ _0258_ VDD VSS NAND2_X1
X_0960_ entropy_pool\[15\] _0226_ _0259_ VDD VSS NAND2_X1
X_0961_ _0257_ _0258_ _0259_ _0041_ VDD VSS AOI21_X1
X_0962_ entropy_pool\[15\] _0237_ _0260_ VDD VSS NAND2_X1
X_0963_ entropy_pool\[16\] _0226_ _0261_ VDD VSS NAND2_X1
X_0964_ _0257_ _0260_ _0261_ _0042_ VDD VSS AOI21_X1
X_0965_ _0169_ _0262_ VDD VSS BUF_X4
X_0966_ entropy_pool\[16\] _0262_ _0263_ VDD VSS NAND2_X1
X_0967_ _0163_ _0264_ VDD VSS CLKBUF_X3
X_0968_ entropy_pool\[17\] _0264_ _0265_ VDD VSS NAND2_X1
X_0969_ _0257_ _0263_ _0265_ _0043_ VDD VSS AOI21_X1
X_0970_ entropy_pool\[17\] _0262_ _0266_ VDD VSS NAND2_X1
X_0971_ entropy_pool\[18\] _0264_ _0267_ VDD VSS NAND2_X1
X_0972_ _0257_ _0266_ _0267_ _0044_ VDD VSS AOI21_X1
X_0973_ entropy_pool\[18\] _0262_ _0268_ VDD VSS NAND2_X1
X_0974_ entropy_pool\[19\] _0264_ _0269_ VDD VSS NAND2_X1
X_0975_ _0257_ _0268_ _0269_ _0045_ VDD VSS AOI21_X1
X_0976_ entropy_pool\[0\] _0262_ _0270_ VDD VSS NAND2_X1
X_0977_ entropy_pool\[1\] _0264_ _0271_ VDD VSS NAND2_X1
X_0978_ _0257_ _0270_ _0271_ _0046_ VDD VSS AOI21_X1
X_0979_ entropy_pool\[19\] _0262_ _0272_ VDD VSS NAND2_X1
X_0980_ entropy_pool\[20\] _0264_ _0273_ VDD VSS NAND2_X1
X_0981_ _0257_ _0272_ _0273_ _0047_ VDD VSS AOI21_X1
X_0982_ entropy_pool\[20\] _0262_ _0274_ VDD VSS NAND2_X1
X_0983_ entropy_pool\[21\] _0264_ _0275_ VDD VSS NAND2_X1
X_0984_ _0257_ _0274_ _0275_ _0048_ VDD VSS AOI21_X1
X_0985_ entropy_pool\[21\] _0262_ _0276_ VDD VSS NAND2_X1
X_0986_ entropy_pool\[22\] _0264_ _0277_ VDD VSS NAND2_X1
X_0987_ _0257_ _0276_ _0277_ _0049_ VDD VSS AOI21_X1
X_0988_ entropy_pool\[22\] _0262_ _0278_ VDD VSS NAND2_X1
X_0989_ entropy_pool\[23\] _0264_ _0279_ VDD VSS NAND2_X1
X_0990_ _0257_ _0278_ _0279_ _0050_ VDD VSS AOI21_X1
X_0991_ _0153_ _0280_ VDD VSS CLKBUF_X3
X_0992_ entropy_pool\[23\] _0262_ _0281_ VDD VSS NAND2_X1
X_0993_ entropy_pool\[24\] _0264_ _0282_ VDD VSS NAND2_X1
X_0994_ _0280_ _0281_ _0282_ _0051_ VDD VSS AOI21_X1
X_0995_ entropy_pool\[24\] _0262_ _0283_ VDD VSS NAND2_X1
X_0996_ entropy_pool\[25\] _0264_ _0284_ VDD VSS NAND2_X1
X_0997_ _0280_ _0283_ _0284_ _0052_ VDD VSS AOI21_X1
X_0998_ _0169_ _0285_ VDD VSS BUF_X4
X_0999_ entropy_pool\[25\] _0285_ _0286_ VDD VSS NAND2_X1
X_1000_ _0163_ _0287_ VDD VSS CLKBUF_X3
X_1001_ entropy_pool\[26\] _0287_ _0288_ VDD VSS NAND2_X1
X_1002_ _0280_ _0286_ _0288_ _0053_ VDD VSS AOI21_X1
X_1003_ entropy_pool\[26\] _0285_ _0289_ VDD VSS NAND2_X1
X_1004_ entropy_pool\[27\] _0287_ _0290_ VDD VSS NAND2_X1
X_1005_ _0280_ _0289_ _0290_ _0054_ VDD VSS AOI21_X1
X_1006_ entropy_pool\[27\] _0285_ _0291_ VDD VSS NAND2_X1
X_1007_ entropy_pool\[28\] _0287_ _0292_ VDD VSS NAND2_X1
X_1008_ _0280_ _0291_ _0292_ _0055_ VDD VSS AOI21_X1
X_1009_ entropy_pool\[28\] _0285_ _0293_ VDD VSS NAND2_X1
X_1010_ entropy_pool\[29\] _0287_ _0294_ VDD VSS NAND2_X1
X_1011_ _0280_ _0293_ _0294_ _0056_ VDD VSS AOI21_X1
X_1012_ entropy_pool\[1\] _0285_ _0295_ VDD VSS NAND2_X1
X_1013_ entropy_pool\[2\] _0287_ _0296_ VDD VSS NAND2_X1
X_1014_ _0280_ _0295_ _0296_ _0057_ VDD VSS AOI21_X1
X_1015_ entropy_pool\[29\] _0285_ _0297_ VDD VSS NAND2_X1
X_1016_ entropy_pool\[30\] _0287_ _0298_ VDD VSS NAND2_X1
X_1017_ _0280_ _0297_ _0298_ _0058_ VDD VSS AOI21_X1
X_1018_ entropy_pool\[30\] _0285_ _0299_ VDD VSS NAND2_X1
X_1019_ entropy_pool\[31\] _0287_ _0300_ VDD VSS NAND2_X1
X_1020_ _0280_ _0299_ _0300_ _0059_ VDD VSS AOI21_X1
X_1021_ entropy_pool\[2\] _0285_ _0301_ VDD VSS NAND2_X1
X_1022_ entropy_pool\[3\] _0287_ _0302_ VDD VSS NAND2_X1
X_1023_ _0280_ _0301_ _0302_ _0060_ VDD VSS AOI21_X1
X_1024_ _0153_ _0303_ VDD VSS CLKBUF_X3
X_1025_ entropy_pool\[3\] _0285_ _0304_ VDD VSS NAND2_X1
X_1026_ entropy_pool\[4\] _0287_ _0305_ VDD VSS NAND2_X1
X_1027_ _0303_ _0304_ _0305_ _0061_ VDD VSS AOI21_X1
X_1028_ entropy_pool\[4\] _0285_ _0306_ VDD VSS NAND2_X1
X_1029_ entropy_pool\[5\] _0287_ _0307_ VDD VSS NAND2_X1
X_1030_ _0303_ _0306_ _0307_ _0062_ VDD VSS AOI21_X1
X_1031_ entropy_pool\[5\] _0169_ _0308_ VDD VSS NAND2_X1
X_1032_ entropy_pool\[6\] _0163_ _0309_ VDD VSS NAND2_X1
X_1033_ _0303_ _0308_ _0309_ _0063_ VDD VSS AOI21_X1
X_1034_ entropy_pool\[6\] _0169_ _0310_ VDD VSS NAND2_X1
X_1035_ entropy_pool\[7\] _0163_ _0311_ VDD VSS NAND2_X1
X_1036_ _0303_ _0310_ _0311_ _0064_ VDD VSS AOI21_X1
X_1037_ entropy_pool\[7\] _0169_ _0312_ VDD VSS NAND2_X1
X_1038_ entropy_pool\[8\] _0163_ _0313_ VDD VSS NAND2_X1
X_1039_ _0303_ _0312_ _0313_ _0065_ VDD VSS AOI21_X1
X_1040_ entropy_pool\[8\] _0169_ _0314_ VDD VSS NAND2_X1
X_1041_ entropy_pool\[9\] _0163_ _0315_ VDD VSS NAND2_X1
X_1042_ _0303_ _0314_ _0315_ _0066_ VDD VSS AOI21_X1
X_1043_ _0161_ _0316_ VDD VSS CLKBUF_X3
X_1044_ _0316_ gen_ring_osc.inv_chain\[1\] _0317_ VDD VSS
+ NAND2_X1
X_1045_ _0167_ _0318_ VDD VSS CLKBUF_X3
X_1046_ _0318_ gen_ring_osc.toggle_sampling _0319_ VDD VSS
+ NAND2_X1
X_1047_ _0303_ _0317_ _0319_ _0067_ VDD VSS AOI21_X1
X_1048_ _0154_ _0320_ VDD VSS CLKBUF_X3
X_1049_ _0166_ _0321_ VDD VSS CLKBUF_X3
X_1050_ _0320_ _0321_ health_counter\[0\] _0322_ VDD VSS NOR3_X1
X_1051_ _0322_ health_counter\[0\] _0321_ _0323_ VDD VSS AOI21_X1
X_1052_ _0000_ _0323_ _0068_ VDD VSS NOR2_X1
X_1053_ _0320_ _0321_ _0324_ VDD VSS NOR2_X1
X_1054_ _0321_ health_counter\[1\] _0767_ _0324_ _0325_ VDD
+ VSS AOI22_X1
X_1055_ _0000_ _0325_ _0069_ VDD VSS NOR2_X1
X_1056_ _0142_ _0326_ VDD VSS CLKBUF_X3
X_1057_ _0150_ _0166_ _0326_ _0327_ VDD VSS OAI21_X4
X_1058_ _0768_ _0328_ VDD VSS INV_X1
X_1059_ health_counter\[2\] _0328_ _0321_ _0329_ VDD VSS OAI21_X1
X_1060_ _0144_ _0330_ VDD VSS BUF_X4
X_1061_ health_counter\[2\] _0331_ VDD VSS INV_X1
X_1062_ _0330_ _0331_ _0768_ _0332_ VDD VSS NAND3_X1
X_1063_ _0327_ _0329_ _0332_ _0070_ VDD VSS AOI21_X1
X_1064_ health_counter\[0\] health_counter\[1\] _0333_ VDD
+ VSS NAND2_X1
X_1065_ _0321_ _0331_ _0333_ _0334_ VDD VSS NOR3_X1
X_1066_ health_counter\[3\] _0334_ _0335_ VDD VSS XNOR2_X1
X_1067_ _0327_ _0335_ _0071_ VDD VSS NOR2_X1
X_1068_ _0330_ health_counter\[3\] health_counter\[2\] _0768_
+ _0336_ VDD VSS NAND4_X1
X_1069_ health_counter\[4\] _0336_ _0337_ VDD VSS XOR2_X1
X_1070_ _0327_ _0337_ _0072_ VDD VSS NOR2_X1
X_1071_ health_counter\[5\] _0338_ VDD VSS BUF_X2
X_1072_ _0330_ health_counter\[4\] health_counter\[3\] health_counter\[2\]
+ _0339_ VDD VSS NAND4_X2
X_1073_ _0338_ _0333_ _0339_ _0340_ VDD VSS OAI21_X1
X_1074_ _0338_ _0333_ _0339_ _0341_ VDD VSS OR3_X1
X_1075_ _0327_ _0340_ _0341_ _0073_ VDD VSS AOI21_X1
X_1076_ health_counter\[6\] _0342_ VDD VSS BUF_X2
X_1077_ _0338_ _0768_ _0343_ VDD VSS NAND2_X1
X_1078_ _0342_ _0339_ _0343_ _0344_ VDD VSS OAI21_X1
X_1079_ _0342_ _0339_ _0343_ _0345_ VDD VSS OR3_X1
X_1080_ _0327_ _0344_ _0345_ _0074_ VDD VSS AOI21_X1
X_1081_ health_counter\[7\] _0346_ VDD VSS INV_X1
X_1082_ _0346_ _0327_ _0347_ VDD VSS NOR2_X1
X_1083_ health_counter\[7\] _0327_ _0348_ VDD VSS NOR2_X1
X_1084_ _0342_ _0338_ _0349_ VDD VSS NAND2_X1
X_1085_ _0333_ _0339_ _0349_ _0350_ VDD VSS NOR3_X1
X_1086_ _0347_ _0348_ _0350_ _0075_ VDD VSS MUX2_X1
X_1087_ _0161_ _0351_ VDD VSS CLKBUF_X3
X_1088_ lfsr_reg\[31\] _0352_ VDD VSS BUF_X2
X_1089_ _0351_ _0352_ _0353_ VDD VSS NAND2_X1
X_1090_ _0167_ _0354_ VDD VSS CLKBUF_X3
X_1091_ _0354_ lfsr_reg\[0\] _0355_ VDD VSS NAND2_X1
X_1092_ _0239_ _0353_ _0355_ _0076_ VDD VSS NAND3_X1
X_1093_ _0161_ _0356_ VDD VSS CLKBUF_X3
X_1094_ _0356_ lfsr_reg\[9\] _0357_ VDD VSS NAND2_X1
X_1095_ _0167_ _0358_ VDD VSS CLKBUF_X3
X_1096_ _0358_ lfsr_reg\[10\] _0359_ VDD VSS NAND2_X1
X_1097_ _0303_ _0357_ _0359_ _0077_ VDD VSS AOI21_X1
X_1098_ lfsr_reg\[30\] _0360_ VDD VSS BUF_X2
X_1099_ _0360_ lfsr_reg\[10\] _0361_ VDD VSS XOR2_X1
X_1100_ _0351_ _0361_ _0362_ VDD VSS NAND2_X1
X_1101_ _0354_ lfsr_reg\[11\] _0363_ VDD VSS NAND2_X1
X_1102_ _0239_ _0362_ _0363_ _0078_ VDD VSS NAND3_X1
X_1103_ _0356_ lfsr_reg\[11\] _0364_ VDD VSS NAND2_X1
X_1104_ _0358_ lfsr_reg\[12\] _0365_ VDD VSS NAND2_X1
X_1105_ _0303_ _0364_ _0365_ _0079_ VDD VSS AOI21_X1
X_1106_ _0351_ lfsr_reg\[12\] _0366_ VDD VSS NAND2_X1
X_1107_ lfsr_reg\[13\] _0367_ VDD VSS CLKBUF_X2
X_1108_ _0354_ _0367_ _0368_ VDD VSS NAND2_X1
X_1109_ _0239_ _0366_ _0368_ _0080_ VDD VSS NAND3_X1
X_1110_ _0351_ _0367_ _0369_ VDD VSS NAND2_X1
X_1111_ _0354_ lfsr_reg\[14\] _0370_ VDD VSS NAND2_X1
X_1112_ _0239_ _0369_ _0370_ _0081_ VDD VSS NAND3_X1
X_1113_ _0351_ lfsr_reg\[14\] _0371_ VDD VSS NAND2_X1
X_1114_ _0354_ lfsr_reg\[15\] _0372_ VDD VSS NAND2_X1
X_1115_ _0239_ _0371_ _0372_ _0082_ VDD VSS NAND3_X1
X_1116_ lfsr_reg\[28\] _0373_ VDD VSS BUF_X2
X_1117_ _0373_ lfsr_reg\[15\] _0374_ VDD VSS XOR2_X1
X_1118_ _0351_ _0374_ _0375_ VDD VSS NAND2_X1
X_1119_ _0354_ lfsr_reg\[16\] _0376_ VDD VSS NAND2_X1
X_1120_ _0239_ _0375_ _0376_ _0083_ VDD VSS NAND3_X1
X_1121_ _0356_ lfsr_reg\[16\] _0377_ VDD VSS NAND2_X1
X_1122_ _0358_ lfsr_reg\[17\] _0378_ VDD VSS NAND2_X1
X_1123_ _0303_ _0377_ _0378_ _0084_ VDD VSS AOI21_X1
X_1124_ _0351_ lfsr_reg\[17\] _0379_ VDD VSS NAND2_X1
X_1125_ _0354_ lfsr_reg\[18\] _0380_ VDD VSS NAND2_X1
X_1126_ _0239_ _0379_ _0380_ _0085_ VDD VSS NAND3_X1
X_1127_ _0159_ _0381_ VDD VSS CLKBUF_X3
X_1128_ _0351_ lfsr_reg\[18\] _0382_ VDD VSS NAND2_X1
X_1129_ _0354_ lfsr_reg\[19\] _0383_ VDD VSS NAND2_X1
X_1130_ _0381_ _0382_ _0383_ _0086_ VDD VSS NAND3_X1
X_1131_ _0153_ _0384_ VDD VSS CLKBUF_X3
X_1132_ _0356_ lfsr_reg\[0\] _0385_ VDD VSS NAND2_X1
X_1133_ _0358_ lfsr_reg\[1\] _0386_ VDD VSS NAND2_X1
X_1134_ _0384_ _0385_ _0386_ _0087_ VDD VSS AOI21_X1
X_1135_ _0356_ lfsr_reg\[19\] _0387_ VDD VSS NAND2_X1
X_1136_ _0358_ lfsr_reg\[20\] _0388_ VDD VSS NAND2_X1
X_1137_ _0384_ _0387_ _0388_ _0088_ VDD VSS AOI21_X1
X_1138_ _0356_ lfsr_reg\[20\] _0389_ VDD VSS NAND2_X1
X_1139_ _0358_ lfsr_reg\[21\] _0390_ VDD VSS NAND2_X1
X_1140_ _0384_ _0389_ _0390_ _0089_ VDD VSS AOI21_X1
X_1141_ _0351_ lfsr_reg\[21\] _0391_ VDD VSS NAND2_X1
X_1142_ _0354_ lfsr_reg\[22\] _0392_ VDD VSS NAND2_X1
X_1143_ _0381_ _0391_ _0392_ _0090_ VDD VSS NAND3_X1
X_1144_ _0316_ lfsr_reg\[22\] _0393_ VDD VSS NAND2_X1
X_1145_ _0318_ lfsr_reg\[23\] _0394_ VDD VSS NAND2_X1
X_1146_ _0381_ _0393_ _0394_ _0091_ VDD VSS NAND3_X1
X_1147_ _0316_ lfsr_reg\[23\] _0395_ VDD VSS NAND2_X1
X_1148_ _0318_ lfsr_reg\[24\] _0396_ VDD VSS NAND2_X1
X_1149_ _0381_ _0395_ _0396_ _0092_ VDD VSS NAND3_X1
X_1150_ _0316_ lfsr_reg\[24\] _0397_ VDD VSS NAND2_X1
X_1151_ _0318_ lfsr_reg\[25\] _0398_ VDD VSS NAND2_X1
X_1152_ _0381_ _0397_ _0398_ _0093_ VDD VSS NAND3_X1
X_1153_ _0356_ lfsr_reg\[25\] _0399_ VDD VSS NAND2_X1
X_1154_ _0358_ lfsr_reg\[26\] _0400_ VDD VSS NAND2_X1
X_1155_ _0384_ _0399_ _0400_ _0094_ VDD VSS AOI21_X1
X_1156_ _0352_ lfsr_reg\[26\] _0401_ VDD VSS XOR2_X1
X_1157_ _0316_ _0401_ _0402_ VDD VSS NAND2_X1
X_1158_ _0318_ lfsr_reg\[27\] _0403_ VDD VSS NAND2_X1
X_1159_ _0381_ _0402_ _0403_ _0095_ VDD VSS NAND3_X1
X_1160_ _0356_ lfsr_reg\[27\] _0404_ VDD VSS NAND2_X1
X_1161_ _0358_ _0373_ _0405_ VDD VSS NAND2_X1
X_1162_ _0384_ _0404_ _0405_ _0096_ VDD VSS AOI21_X1
X_1163_ _0352_ _0373_ _0406_ VDD VSS XOR2_X1
X_1164_ _0001_ _0406_ _0407_ VDD VSS XNOR2_X1
X_1165_ _0316_ _0407_ _0408_ VDD VSS NAND2_X1
X_1166_ lfsr_reg\[29\] _0409_ VDD VSS CLKBUF_X2
X_1167_ _0318_ _0409_ _0410_ VDD VSS NAND2_X1
X_1168_ _0381_ _0408_ _0410_ _0097_ VDD VSS NAND3_X1
X_1169_ _0356_ lfsr_reg\[1\] _0411_ VDD VSS NAND2_X1
X_1170_ _0358_ lfsr_reg\[2\] _0412_ VDD VSS NAND2_X1
X_1171_ _0384_ _0411_ _0412_ _0098_ VDD VSS AOI21_X1
X_1172_ _0161_ _0409_ _0413_ VDD VSS NAND2_X1
X_1173_ _0360_ _0413_ _0414_ VDD VSS XOR2_X1
X_1174_ _0000_ _0414_ _0099_ VDD VSS NOR2_X1
X_1175_ _0158_ _0415_ VDD VSS CLKBUF_X3
X_1176_ _0352_ _0360_ _0161_ _0416_ VDD VSS AOI21_X1
X_1177_ _0161_ _0360_ _0352_ _0417_ VDD VSS AND3_X1
X_1178_ _0415_ _0416_ _0417_ _0100_ VDD VSS OAI21_X1
X_1179_ _0356_ lfsr_reg\[2\] _0418_ VDD VSS NAND2_X1
X_1180_ _0358_ lfsr_reg\[3\] _0419_ VDD VSS NAND2_X1
X_1181_ _0384_ _0418_ _0419_ _0101_ VDD VSS AOI21_X1
X_1182_ _0316_ lfsr_reg\[3\] _0420_ VDD VSS NAND2_X1
X_1183_ _0318_ lfsr_reg\[4\] _0421_ VDD VSS NAND2_X1
X_1184_ _0381_ _0420_ _0421_ _0102_ VDD VSS NAND3_X1
X_1185_ _0409_ lfsr_reg\[4\] _0422_ VDD VSS XOR2_X1
X_1186_ _0316_ _0422_ _0423_ VDD VSS NAND2_X1
X_1187_ _0318_ lfsr_reg\[5\] _0424_ VDD VSS NAND2_X1
X_1188_ _0381_ _0423_ _0424_ _0103_ VDD VSS NAND3_X1
X_1189_ _0316_ lfsr_reg\[5\] _0425_ VDD VSS NAND2_X1
X_1190_ _0318_ lfsr_reg\[6\] _0426_ VDD VSS NAND2_X1
X_1191_ _0381_ _0425_ _0426_ _0104_ VDD VSS NAND3_X1
X_1192_ _0161_ lfsr_reg\[6\] _0427_ VDD VSS NAND2_X1
X_1193_ _0167_ lfsr_reg\[7\] _0428_ VDD VSS NAND2_X1
X_1194_ _0384_ _0427_ _0428_ _0105_ VDD VSS AOI21_X1
X_1195_ _0316_ lfsr_reg\[7\] _0429_ VDD VSS NAND2_X1
X_1196_ _0318_ lfsr_reg\[8\] _0430_ VDD VSS NAND2_X1
X_1197_ _0415_ _0429_ _0430_ _0106_ VDD VSS NAND3_X1
X_1198_ _0161_ lfsr_reg\[8\] _0431_ VDD VSS NAND2_X1
X_1199_ _0167_ lfsr_reg\[9\] _0432_ VDD VSS NAND2_X1
X_1200_ _0384_ _0431_ _0432_ _0107_ VDD VSS AOI21_X1
X_1201_ _0145_ _0433_ VDD VSS CLKBUF_X3
X_1202_ entropy_pool\[0\] entropy_pool\[24\] _0434_ VDD VSS
+ XNOR2_X2
X_1203_ lfsr_reg\[0\] lfsr_reg\[16\] _0435_ VDD VSS XNOR2_X2
X_1204_ entropy_pool2\[0\] _0435_ _0436_ VDD VSS XNOR2_X1
X_1205_ _0159_ _0433_ _0434_ _0436_ _0437_ VDD VSS NAND4_X1
X_1206_ _0158_ _0438_ VDD VSS CLKBUF_X3
X_1207_ _0438_ mixed_output\[0\] _0439_ VDD VSS NAND2_X1
X_1208_ _0155_ _0440_ VDD VSS BUF_X2
X_1209_ _0153_ _0440_ _0434_ _0441_ VDD VSS OR3_X1
X_1210_ _0437_ _0439_ _0149_ _0436_ _0441_ _0108_ VDD VSS
+ OAI221_X1
X_1211_ lfsr_reg\[10\] lfsr_reg\[26\] _0442_ VDD VSS XNOR2_X2
X_1212_ entropy_pool\[10\] entropy_pool\[18\] _0443_ VDD VSS
+ XNOR2_X2
X_1213_ entropy_pool2\[10\] _0443_ _0444_ VDD VSS XNOR2_X1
X_1214_ _0159_ _0433_ _0442_ _0444_ _0445_ VDD VSS NAND4_X1
X_1215_ _0438_ mixed_output\[10\] _0446_ VDD VSS NAND2_X1
X_1216_ _0153_ _0440_ _0442_ _0447_ VDD VSS OR3_X1
X_1217_ _0445_ _0446_ _0149_ _0444_ _0447_ _0109_ VDD VSS
+ OAI221_X1
X_1218_ entropy_pool\[11\] entropy_pool\[19\] _0448_ VDD VSS
+ XOR2_X2
X_1219_ _0320_ _0321_ _0158_ _0448_ _0449_ VDD VSS NAND4_X1
X_1220_ _0326_ _0330_ _0152_ _0448_ _0450_ VDD VSS OR4_X1
X_1221_ lfsr_reg\[11\] lfsr_reg\[27\] _0451_ VDD VSS XNOR2_X2
X_1222_ entropy_pool2\[11\] _0451_ _0452_ VDD VSS XNOR2_X1
X_1223_ _0449_ _0450_ _0452_ _0453_ VDD VSS MUX2_X1
X_1224_ _0415_ mixed_output\[11\] _0157_ _0454_ VDD VSS NAND3_X1
X_1225_ _0453_ _0454_ _0110_ VDD VSS NAND2_X1
X_1226_ entropy_pool\[12\] entropy_pool\[20\] _0455_ VDD VSS
+ XNOR2_X2
X_1227_ lfsr_reg\[12\] _0373_ _0456_ VDD VSS XNOR2_X2
X_1228_ entropy_pool2\[12\] _0456_ _0457_ VDD VSS XNOR2_X1
X_1229_ _0159_ _0433_ _0455_ _0457_ _0458_ VDD VSS NAND4_X1
X_1230_ _0438_ mixed_output\[12\] _0459_ VDD VSS NAND2_X1
X_1231_ _0153_ _0440_ _0455_ _0460_ VDD VSS OR3_X1
X_1232_ _0458_ _0459_ _0149_ _0457_ _0460_ _0111_ VDD VSS
+ OAI221_X1
X_1233_ _0159_ mixed_output\[13\] _0145_ _0461_ VDD VSS OAI21_X1
X_1234_ entropy_pool\[13\] entropy_pool\[21\] _0462_ VDD VSS
+ XNOR2_X2
X_1235_ entropy_pool2\[13\] _0001_ _0463_ VDD VSS XNOR2_X1
X_1236_ _0367_ _0463_ _0464_ VDD VSS XNOR2_X2
X_1237_ _0462_ _0464_ _0465_ VDD VSS XNOR2_X1
X_1238_ _0461_ _0465_ _0146_ _0112_ VDD VSS AOI21_X1
X_1239_ _0158_ _0466_ VDD VSS CLKBUF_X3
X_1240_ _0145_ _0467_ VDD VSS CLKBUF_X3
X_1241_ _0360_ lfsr_reg\[14\] _0468_ VDD VSS XNOR2_X2
X_1242_ entropy_pool\[14\] entropy_pool\[22\] _0469_ VDD VSS
+ XNOR2_X2
X_1243_ entropy_pool2\[14\] _0469_ _0470_ VDD VSS XNOR2_X1
X_1244_ _0466_ _0467_ _0468_ _0470_ _0471_ VDD VSS NAND4_X1
X_1245_ _0438_ mixed_output\[14\] _0472_ VDD VSS NAND2_X1
X_1246_ _0153_ _0440_ _0468_ _0473_ VDD VSS OR3_X1
X_1247_ _0471_ _0472_ _0149_ _0470_ _0473_ _0113_ VDD VSS
+ OAI221_X1
X_1248_ _0352_ lfsr_reg\[15\] _0474_ VDD VSS XNOR2_X2
X_1249_ entropy_pool\[15\] entropy_pool\[23\] _0475_ VDD VSS
+ XNOR2_X2
X_1250_ entropy_pool2\[15\] _0475_ _0476_ VDD VSS XNOR2_X1
X_1251_ _0466_ _0467_ _0474_ _0476_ _0477_ VDD VSS NAND4_X1
X_1252_ _0438_ mixed_output\[15\] _0478_ VDD VSS NAND2_X1
X_1253_ _0153_ _0440_ _0474_ _0479_ VDD VSS OR3_X1
X_1254_ _0477_ _0478_ _0149_ _0476_ _0479_ _0114_ VDD VSS
+ OAI221_X1
X_1255_ entropy_pool\[8\] entropy_pool\[16\] _0480_ VDD VSS
+ XNOR2_X2
X_1256_ entropy_pool2\[16\] _0480_ _0481_ VDD VSS XNOR2_X1
X_1257_ _0466_ _0467_ _0435_ _0481_ _0482_ VDD VSS NAND4_X1
X_1258_ _0438_ mixed_output\[16\] _0483_ VDD VSS NAND2_X1
X_1259_ _0152_ _0440_ _0435_ _0484_ VDD VSS OR3_X1
X_1260_ _0482_ _0483_ _0149_ _0481_ _0484_ _0115_ VDD VSS
+ OAI221_X1
X_1261_ entropy_pool\[9\] entropy_pool\[17\] _0485_ VDD VSS
+ XNOR2_X2
X_1262_ lfsr_reg\[1\] lfsr_reg\[17\] _0486_ VDD VSS XNOR2_X2
X_1263_ entropy_pool2\[17\] _0486_ _0487_ VDD VSS XNOR2_X1
X_1264_ _0466_ _0467_ _0485_ _0487_ _0488_ VDD VSS NAND4_X1
X_1265_ _0438_ mixed_output\[17\] _0489_ VDD VSS NAND2_X1
X_1266_ _0152_ _0440_ _0485_ _0490_ VDD VSS OR3_X1
X_1267_ _0488_ _0489_ _0433_ _0487_ _0490_ _0116_ VDD VSS
+ OAI221_X1
X_1268_ lfsr_reg\[2\] lfsr_reg\[18\] _0491_ VDD VSS XNOR2_X2
X_1269_ entropy_pool2\[18\] _0491_ _0492_ VDD VSS XNOR2_X1
X_1270_ _0466_ _0467_ _0443_ _0492_ _0493_ VDD VSS NAND4_X1
X_1271_ _0438_ mixed_output\[18\] _0494_ VDD VSS NAND2_X1
X_1272_ _0152_ _0440_ _0443_ _0495_ VDD VSS OR3_X1
X_1273_ _0493_ _0494_ _0433_ _0492_ _0495_ _0117_ VDD VSS
+ OAI221_X1
X_1274_ lfsr_reg\[3\] lfsr_reg\[19\] _0496_ VDD VSS XNOR2_X2
X_1275_ entropy_pool2\[19\] _0496_ _0497_ VDD VSS XNOR2_X1
X_1276_ _0449_ _0450_ _0497_ _0498_ VDD VSS MUX2_X1
X_1277_ _0415_ mixed_output\[19\] _0157_ _0499_ VDD VSS NAND3_X1
X_1278_ _0498_ _0499_ _0118_ VDD VSS NAND2_X1
X_1279_ entropy_pool\[1\] entropy_pool\[25\] _0500_ VDD VSS
+ XNOR2_X2
X_1280_ entropy_pool2\[1\] _0500_ _0501_ VDD VSS XNOR2_X1
X_1281_ _0466_ _0467_ _0486_ _0501_ _0502_ VDD VSS NAND4_X1
X_1282_ _0438_ mixed_output\[1\] _0503_ VDD VSS NAND2_X1
X_1283_ _0152_ _0440_ _0486_ _0504_ VDD VSS OR3_X1
X_1284_ _0502_ _0503_ _0433_ _0501_ _0504_ _0119_ VDD VSS
+ OAI221_X1
X_1285_ lfsr_reg\[4\] lfsr_reg\[20\] _0505_ VDD VSS XNOR2_X2
X_1286_ entropy_pool2\[20\] _0455_ _0506_ VDD VSS XNOR2_X2
X_1287_ _0466_ _0467_ _0505_ _0506_ _0507_ VDD VSS NAND4_X1
X_1288_ _0438_ mixed_output\[20\] _0508_ VDD VSS NAND2_X1
X_1289_ _0152_ _0440_ _0505_ _0509_ VDD VSS OR3_X1
X_1290_ _0507_ _0508_ _0433_ _0506_ _0509_ _0120_ VDD VSS
+ OAI221_X1
X_1291_ lfsr_reg\[5\] lfsr_reg\[21\] _0510_ VDD VSS XNOR2_X2
X_1292_ entropy_pool2\[21\] _0510_ _0511_ VDD VSS XNOR2_X1
X_1293_ _0466_ _0467_ _0462_ _0511_ _0512_ VDD VSS NAND4_X1
X_1294_ _0158_ mixed_output\[21\] _0513_ VDD VSS NAND2_X1
X_1295_ _0152_ _0155_ _0462_ _0514_ VDD VSS OR3_X1
X_1296_ _0512_ _0513_ _0433_ _0511_ _0514_ _0121_ VDD VSS
+ OAI221_X1
X_1297_ lfsr_reg\[6\] lfsr_reg\[22\] _0515_ VDD VSS XNOR2_X2
X_1298_ entropy_pool2\[22\] _0515_ _0516_ VDD VSS XNOR2_X1
X_1299_ _0466_ _0467_ _0469_ _0516_ _0517_ VDD VSS NAND4_X1
X_1300_ _0158_ mixed_output\[22\] _0518_ VDD VSS NAND2_X1
X_1301_ _0152_ _0155_ _0469_ _0519_ VDD VSS OR3_X1
X_1302_ _0517_ _0518_ _0433_ _0516_ _0519_ _0122_ VDD VSS
+ OAI221_X1
X_1303_ lfsr_reg\[7\] lfsr_reg\[23\] _0520_ VDD VSS XNOR2_X2
X_1304_ entropy_pool2\[23\] _0520_ _0521_ VDD VSS XNOR2_X1
X_1305_ _0466_ _0467_ _0475_ _0521_ _0522_ VDD VSS NAND4_X1
X_1306_ _0158_ mixed_output\[23\] _0523_ VDD VSS NAND2_X1
X_1307_ _0152_ _0155_ _0475_ _0524_ VDD VSS OR3_X1
X_1308_ _0522_ _0523_ _0433_ _0521_ _0524_ _0123_ VDD VSS
+ OAI221_X1