
* cell true_random_generator
* pin enable
* pin read_next
* pin rst_n
* pin entropy_low
* pin PWELL
* pin NWELL
* pin clk
* pin random_data[3]
* pin random_data[29]
* pin random_data[2]
* pin random_data[30]
* pin random_data[31]
* pin random_data[7]
* pin random_data[28]
* pin random_data[9]
* pin random_data[5]
* pin random_data[8]
* pin random_data[4]
* pin random_data[27]
* pin random_data[6]
* pin random_data[26]
* pin random_data[25]
* pin random_data[11]
* pin random_data[0]
* pin random_data[19]
* pin data_valid
* pin random_data[10]
* pin random_data[12]
* pin test_failed
* pin random_data[24]
* pin random_data[1]
* pin random_data[18]
* pin random_data[20]
* pin random_data[22]
* pin random_data[21]
* pin random_data[23]
* pin random_data[17]
* pin random_data[14]
* pin random_data[13]
* pin random_data[15]
* pin random_data[16]
.SUBCKT true_random_generator 1 2 3 4 5 8 61 438 440 468 485 486 507 508 509
+ 530 531 532 533 550 551 552 574 590 623 624 625 626 652 653 671 695 696 726
+ 727 747 748 767 768 769 770
* net 1 enable
* net 2 read_next
* net 3 rst_n
* net 4 entropy_low
* net 5 PWELL
* net 8 NWELL
* net 61 clk
* net 438 random_data[3]
* net 440 random_data[29]
* net 468 random_data[2]
* net 485 random_data[30]
* net 486 random_data[31]
* net 507 random_data[7]
* net 508 random_data[28]
* net 509 random_data[9]
* net 530 random_data[5]
* net 531 random_data[8]
* net 532 random_data[4]
* net 533 random_data[27]
* net 550 random_data[6]
* net 551 random_data[26]
* net 552 random_data[25]
* net 574 random_data[11]
* net 590 random_data[0]
* net 623 random_data[19]
* net 624 data_valid
* net 625 random_data[10]
* net 626 random_data[12]
* net 652 test_failed
* net 653 random_data[24]
* net 671 random_data[1]
* net 695 random_data[18]
* net 696 random_data[20]
* net 726 random_data[22]
* net 727 random_data[21]
* net 747 random_data[23]
* net 748 random_data[17]
* net 767 random_data[14]
* net 768 random_data[13]
* net 769 random_data[15]
* net 770 random_data[16]
* cell instance $5 r0 *1 451.63,217
X$5 1 5 8 12 CLKBUF_X3
* cell instance $12 r0 *1 271.32,1.4
X$12 2 8 6 5 BUF_X4
* cell instance $14 r0 *1 449.92,219.8
X$14 5 197 8 3 BUF_X8
* cell instance $20 r0 *1 286.33,1.4
X$20 7 5 8 4 BUF_X1
* cell instance $539 r0 *1 434.72,245
X$539 5 263 216 914 292 8 DFF_X2
* cell instance $545 r0 *1 441.18,245
X$545 5 1011 296 264 216 8 DFF_X1
* cell instance $552 m0 *1 452.96,245
X$552 197 253 254 8 5 104 OAI21_X4
* cell instance $554 r0 *1 455.05,245
X$554 12 276 226 5 8 347 NAND3_X1
* cell instance $557 r0 *1 456,245
X$557 276 8 183 5 BUF_X4
* cell instance $559 r0 *1 457.52,245
X$559 265 5 8 205 CLKBUF_X3
* cell instance $562 r0 *1 458.85,245
X$562 135 254 265 5 8 277 NOR3_X1
* cell instance $564 m0 *1 459.61,245
X$564 228 8 254 5 BUF_X4
* cell instance $566 r0 *1 459.8,245
X$566 228 5 8 276 INV_X4
* cell instance $569 r0 *1 461.13,245
X$569 228 265 5 8 274 NAND2_X2
* cell instance $573 r0 *1 469.68,245
X$573 5 998 267 275 232 8 DFF_X1
* cell instance $574 r0 *1 472.91,245
X$574 267 58 8 5 289 XNOR2_X1
* cell instance $578 r0 *1 476.33,245
X$578 5 977 269 268 232 8 DFF_X1
* cell instance $587 m0 *1 481.84,245
X$587 233 255 8 5 256 XNOR2_X1
* cell instance $589 r0 *1 482.41,245
X$589 284 256 266 5 8 288 MUX2_X1
* cell instance $591 m0 *1 483.74,245
X$591 261 169 8 5 260 XNOR2_X1
* cell instance $593 m0 *1 484.88,245
X$593 233 260 5 8 270 XNOR2_X2
* cell instance $600 m0 *1 494.19,245
X$600 5 939 257 259 234 8 DFF_X1
* cell instance $602 r0 *1 494.57,245
X$602 285 273 5 8 259 NAND2_X1
* cell instance $605 r0 *1 496.09,245
X$605 271 342 5 8 258 NAND2_X1
* cell instance $607 r0 *1 497.42,245
X$607 5 1009 272 258 234 8 DFF_X1
* cell instance $805 m0 *1 446.31,287
X$805 5 955 821 834 685 8 DFF_X1
* cell instance $806 m0 *1 449.54,287
X$806 100 822 823 5 834 8 AOI21_X1
* cell instance $813 r0 *1 460.94,287
X$813 499 645 5 8 853 NAND2_X1
* cell instance $818 m0 *1 464.74,287
X$818 803 826 829 5 8 837 NAND3_X1
* cell instance $819 m0 *1 465.5,287
X$819 839 827 5 8 826 NAND2_X1
* cell instance $820 m0 *1 466.07,287
X$820 838 828 829 5 8 830 NAND3_X1
* cell instance $823 r0 *1 466.64,287
X$823 5 987 831 830 648 8 DFF_X1
* cell instance $825 m0 *1 467.02,287
X$825 839 831 5 8 828 NAND2_X1
* cell instance $1056 m0 *1 434.91,267.4
X$1056 5 576 409 891 496 8 DFF_X2
* cell instance $1058 m0 *1 438.52,267.4
X$1058 564 496 5 8 568 XNOR2_X2
* cell instance $1063 r0 *1 437.95,267.4
X$1063 278 592 595 5 576 8 AOI21_X1
* cell instance $1065 r0 *1 438.9,267.4
X$1065 563 564 5 8 580 NAND2_X1
* cell instance $1068 r0 *1 441.18,267.4
X$1068 581 542 5 8 594 NAND2_X1
* cell instance $1069 r0 *1 441.75,267.4
X$1069 581 582 5 8 595 NAND2_X1
* cell instance $1072 m0 *1 443.08,267.4
X$1072 349 8 581 5 BUF_X4
* cell instance $1074 m0 *1 448.21,267.4
X$1074 5 918 542 578 409 8 DFF_X1
* cell instance $1081 r0 *1 448.21,267.4
X$1081 409 5 8 CLKBUF_X1
* cell instance $1082 r0 *1 448.78,267.4
X$1082 140 5 8 409 CLKBUF_X3
* cell instance $1084 r0 *1 450.11,267.4
X$1084 542 582 5 8 567 XNOR2_X2
* cell instance $1090 r0 *1 453.15,267.4
X$1090 555 565 5 8 566 NAND2_X1
* cell instance $1092 m0 *1 453.34,267.4
X$1092 543 565 5 8 556 NAND2_X1
* cell instance $1096 r0 *1 453.72,267.4
X$1096 583 566 95 5 8 584 NAND3_X1
* cell instance $1098 r0 *1 454.86,267.4
X$1098 479 5 8 868 INV_X4
* cell instance $1099 r0 *1 455.81,267.4
X$1099 140 5 8 479 CLKBUF_X3
* cell instance $1102 r0 *1 457.33,267.4
X$1102 565 657 8 5 537 XNOR2_X1
* cell instance $1105 r0 *1 459.04,267.4
X$1105 610 567 8 5 559 XNOR2_X1
* cell instance $1106 m0 *1 459.8,267.4
X$1106 544 568 8 5 560 XNOR2_X1
* cell instance $1108 m0 *1 460.94,267.4
X$1108 454 544 5 8 570 NAND2_X1
* cell instance $1109 m0 *1 461.51,267.4
X$1109 579 570 436 5 8 569 NAND3_X1
* cell instance $1115 r0 *1 460.18,267.4
X$1115 562 544 5 8 598 NAND2_X1
* cell instance $1116 r0 *1 460.75,267.4
X$1116 5 1014 544 569 479 8 DFF_X1
* cell instance $1119 r0 *1 467.78,267.4
X$1119 318 587 201 5 8 605 OR3_X1
* cell instance $1120 r0 *1 468.73,267.4
X$1120 472 601 603 605 604 8 5 585 OAI221_X1
* cell instance $1122 r0 *1 471.39,267.4
X$1122 602 111 8 5 571 XNOR2_X1
* cell instance $1124 r0 *1 472.91,267.4
X$1124 318 587 567 5 8 600 OR3_X1
* cell instance $1125 r0 *1 473.86,267.4
X$1125 571 567 612 211 5 8 599 NAND4_X1
* cell instance $1126 r0 *1 474.81,267.4
X$1126 472 588 599 600 571 8 5 596 OAI221_X1
* cell instance $1128 r0 *1 476.71,267.4
X$1128 140 5 8 480 CLKBUF_X3
* cell instance $1130 m0 *1 477.09,267.4
X$1130 480 5 8 867 INV_X4
* cell instance $1133 m0 *1 481.46,267.4
X$1133 5 926 572 545 464 8 DFF_X1
* cell instance $1136 m0 *1 485.64,267.4
X$1136 5 930 557 546 464 8 DFF_X1
* cell instance $1138 r0 *1 477.66,267.4
X$1138 5 971 589 596 480 8 DFF_X1
* cell instance $1141 r0 *1 488.49,267.4
X$1141 390 100 5 8 638 NOR2_X1
* cell instance $1143 m0 *1 489.44,267.4
X$1143 577 539 5 8 575 NAND2_X1
* cell instance $1148 m0 *1 499.89,267.4
X$1148 554 5 8 551 BUF_X1
* cell instance $1151 r0 *1 490.77,267.4
X$1151 5 981 444 575 464 8 DFF_X1
* cell instance $1155 r0 *1 498.18,267.4
X$1155 572 505 8 5 591 AND2_X1
* cell instance $1158 r0 *1 499.89,267.4
X$1158 591 5 8 574 BUF_X1
* cell instance $1160 m0 *1 501.41,267.4
X$1160 549 5 8 532 BUF_X1
* cell instance $1161 m0 *1 500.84,267.4
X$1161 547 5 8 552 BUF_X1
* cell instance $1287 m0 *1 435.29,261.8
X$1287 291 430 5 8 494 NAND2_X1
* cell instance $1289 m0 *1 437.38,261.8
X$1289 278 477 495 5 488 8 AOI21_X1
* cell instance $1290 m0 *1 438.14,261.8
X$1290 5 936 431 488 409 8 DFF_X1
* cell instance $1331 r0 *1 435.29,261.8
X$1331 278 494 510 5 456 8 AOI21_X1
* cell instance $1334 r0 *1 436.62,261.8
X$1334 323 496 5 8 510 NAND2_X1
* cell instance $1336 r0 *1 437.95,261.8
X$1336 323 564 5 8 495 NAND2_X1
* cell instance $1340 r0 *1 445.74,261.8
X$1340 327 513 5 8 512 NAND2_X1
* cell instance $1341 r0 *1 446.31,261.8
X$1341 5 995 513 497 409 8 DFF_X1
* cell instance $1342 m0 *1 446.5,261.8
X$1342 349 470 5 8 489 NAND2_X1
* cell instance $1344 m0 *1 447.07,261.8
X$1344 92 512 489 5 497 8 AOI21_X1
* cell instance $1349 m0 *1 449.73,261.8
X$1349 378 88 5 8 514 XOR2_X1
* cell instance $1352 r0 *1 450.3,261.8
X$1352 514 499 5 8 498 NAND2_X1
* cell instance $1355 r0 *1 457.71,261.8
X$1355 349 8 499 5 BUF_X4
* cell instance $1358 m0 *1 463.41,261.8
X$1358 5 954 460 491 479 8 DFF_X1
* cell instance $1364 r0 *1 466.45,261.8
X$1364 516 230 8 5 500 XNOR2_X1
* cell instance $1365 r0 *1 467.59,261.8
X$1365 433 500 458 5 8 521 MUX2_X1
* cell instance $1367 m0 *1 471.58,261.8
X$1367 555 416 5 8 493 NAND2_X1
* cell instance $1368 m0 *1 470.82,261.8
X$1368 493 540 301 5 8 462 NAND3_X1
* cell instance $1370 m0 *1 472.34,261.8
X$1370 536 476 301 5 8 481 NAND3_X1
* cell instance $1371 m0 *1 473.1,261.8
X$1371 5 962 406 481 480 8 DFF_X1
* cell instance $1377 m0 *1 480.51,261.8
X$1377 492 452 5 8 520 NAND2_X1
* cell instance $1378 m0 *1 481.27,261.8
X$1378 5 964 482 520 480 8 DFF_X1
* cell instance $1379 m0 *1 484.5,261.8
X$1379 390 482 157 5 8 492 NAND3_X1
* cell instance $1385 r0 *1 482.03,261.8
X$1385 5 1010 502 501 480 8 DFF_X1
* cell instance $1386 r0 *1 485.26,261.8
X$1386 390 502 157 5 8 518 NAND3_X1
* cell instance $1389 r0 *1 489.25,261.8
X$1389 5 1013 483 519 464 8 DFF_X1
* cell instance $1390 m0 *1 489.63,261.8
X$1390 446 490 5 8 519 NAND2_X1
* cell instance $1394 m0 *1 494.76,261.8
X$1394 402 449 482 5 8 517 NAND3_X1
* cell instance $1396 m0 *1 495.71,261.8
X$1396 447 483 393 419 5 8 484 NOR4_X1
* cell instance $1402 r0 *1 494.95,261.8
X$1402 503 517 5 8 504 NOR2_X1
* cell instance $1403 r0 *1 495.52,261.8
X$1403 466 484 515 437 5 8 573 NAND4_X1
* cell instance $1404 r0 *1 496.47,261.8
X$1404 402 449 482 502 5 8 515 NOR4_X1
* cell instance $1405 r0 *1 497.42,261.8
X$1405 402 472 8 5 511 AND2_X1
* cell instance $1407 m0 *1 497.8,261.8
X$1407 419 472 8 5 487 AND2_X1
* cell instance $1409 r0 *1 498.18,261.8
X$1409 447 505 8 5 527 AND2_X1
* cell instance $1411 r0 *1 499.13,261.8
X$1411 511 5 8 508 BUF_X1
* cell instance $1413 m0 *1 499.7,261.8
X$1413 487 5 8 486 BUF_X1
* cell instance $1414 r0 *1 499.7,261.8
X$1414 483 505 8 5 528 AND2_X1
* cell instance $1416 m0 *1 501.41,261.8
X$1416 469 5 8 485 BUF_X1
* cell instance $1417 m0 *1 500.65,261.8
X$1417 393 441 8 5 506 AND2_X1
* cell instance $1420 r0 *1 501.41,261.8
X$1420 506 5 8 507 BUF_X1
* cell instance $1572 m0 *1 435.29,256.2
X$1572 278 398 421 5 397 8 AOI21_X1
* cell instance $1573 m0 *1 436.05,256.2
X$1573 5 952 376 423 409 8 DFF_X1
* cell instance $1577 m0 *1 441.75,256.2
X$1577 5 426 409 883 378 8 DFF_X2
* cell instance $1581 m0 *1 447.83,256.2
X$1581 349 353 5 8 411 NAND2_X1
* cell instance $1622 r0 *1 435.86,256.2
X$1622 323 430 5 8 408 NAND2_X1
* cell instance $1623 r0 *1 436.43,256.2
X$1623 278 443 408 5 423 8 AOI21_X1
* cell instance $1625 r0 *1 437.57,256.2
X$1625 323 431 5 8 421 NAND2_X1
* cell instance $1629 r0 *1 439.47,256.2
X$1629 430 431 8 412 5 XOR2_X2
* cell instance $1632 r0 *1 447.64,256.2
X$1632 92 410 411 5 445 8 AOI21_X1
* cell instance $1636 r0 *1 455.43,256.2
X$1636 253 183 319 412 5 8 415 OR4_X1
* cell instance $1637 m0 *1 456.57,256.2
X$1637 412 197 254 205 5 8 414 NAND4_X1
* cell instance $1639 m0 *1 457.52,256.2
X$1639 160 197 254 205 5 8 453 NAND4_X1
* cell instance $1640 m0 *1 458.47,256.2
X$1640 197 5 8 417 CLKBUF_X3
* cell instance $1644 m0 *1 464.74,256.2
X$1644 405 382 8 5 429 XNOR2_X1
* cell instance $1646 m0 *1 466.64,256.2
X$1646 356 383 407 5 8 422 MUX2_X1
* cell instance $1648 m0 *1 468.16,256.2
X$1648 298 357 5 8 428 NAND2_X1
* cell instance $1653 r0 *1 456.76,256.2
X$1653 253 183 319 160 5 8 432 OR4_X1
* cell instance $1658 r0 *1 463.41,256.2
X$1658 5 1003 413 455 479 8 DFF_X1
* cell instance $1659 r0 *1 466.64,256.2
X$1659 428 435 436 5 8 455 NAND3_X1
* cell instance $1661 r0 *1 467.59,256.2
X$1661 414 429 415 5 8 404 MUX2_X1
* cell instance $1662 r0 *1 468.92,256.2
X$1662 61 5 8 140 CLKBUF_X3
* cell instance $1664 m0 *1 473.67,256.2
X$1664 298 406 5 8 384 NAND2_X1
* cell instance $1665 m0 *1 472.91,256.2
X$1665 384 427 301 5 8 385 NAND3_X1
* cell instance $1666 m0 *1 474.24,256.2
X$1666 282 334 5 8 427 NAND2_X1
* cell instance $1670 m0 *1 476.52,256.2
X$1670 424 425 301 5 8 386 NAND3_X1
* cell instance $1671 m0 *1 475.95,256.2
X$1671 282 359 5 8 425 NAND2_X1
* cell instance $1678 m0 *1 486.59,256.2
X$1678 5 927 418 420 234 8 DFF_X1
* cell instance $1679 m0 *1 489.82,256.2
X$1679 390 418 309 5 8 403 NAND3_X1
* cell instance $1682 m0 *1 491.53,256.2
X$1682 308 419 309 5 8 391 NAND3_X1
* cell instance $1686 r0 *1 476.14,256.2
X$1686 298 416 5 8 424 NAND2_X1
* cell instance $1690 r0 *1 479.18,256.2
X$1690 416 213 8 5 387 XNOR2_X1
* cell instance $1694 r0 *1 482.41,256.2
X$1694 450 422 5 8 451 NAND2_X1
* cell instance $1695 r0 *1 482.98,256.2
X$1695 5 1012 449 451 464 8 DFF_X1
* cell instance $1696 r0 *1 486.21,256.2
X$1696 390 449 157 5 8 450 NAND3_X1
* cell instance $1698 r0 *1 490.01,256.2
X$1698 417 5 8 309 BUF_X2
* cell instance $1700 r0 *1 490.96,256.2
X$1700 5 988 419 392 464 8 DFF_X1
* cell instance $1896 r0 *1 438.14,278.6
X$1896 581 707 5 8 755 NAND2_X1
* cell instance $1900 r0 *1 441.18,278.6
X$1900 5 756 685 901 757 8 DFF_X2
* cell instance $1903 r0 *1 445.36,278.6
X$1903 318 5 8 640 CLKBUF_X3
* cell instance $1904 r0 *1 446.31,278.6
X$1904 738 757 5 8 702 XNOR2_X2
* cell instance $1907 m0 *1 450.87,278.6
X$1907 685 5 8 CLKBUF_X1
* cell instance $1908 m0 *1 449.92,278.6
X$1908 140 5 8 685 CLKBUF_X3
* cell instance $1912 r0 *1 451.06,278.6
X$1912 5 997 722 739 678 8 DFF_X1
* cell instance $1913 m0 *1 452.58,278.6
X$1913 555 722 5 8 731 NAND2_X1
* cell instance $1914 m0 *1 451.82,278.6
X$1914 100 731 721 5 739 8 AOI21_X1
* cell instance $1917 m0 *1 456.38,278.6
X$1917 140 5 8 678 CLKBUF_X3
* cell instance $1918 m0 *1 457.33,278.6
X$1918 5 933 703 775 678 8 DFF_X1
* cell instance $1919 m0 *1 460.56,278.6
X$1919 562 703 5 8 776 NAND2_X1
* cell instance $1920 m0 *1 461.13,278.6
X$1920 562 740 5 8 732 NAND2_X1
* cell instance $1923 m0 *1 463.98,278.6
X$1923 754 734 436 5 8 741 NAND3_X1
* cell instance $1924 m0 *1 464.74,278.6
X$1924 562 742 5 8 754 NAND2_X1
* cell instance $1925 m0 *1 465.31,278.6
X$1925 211 5 8 436 CLKBUF_X3
* cell instance $1927 m0 *1 467.02,278.6
X$1927 454 742 5 8 736 NAND2_X1
* cell instance $1928 m0 *1 467.59,278.6
X$1928 5 922 742 737 648 8 DFF_X1
* cell instance $1936 r0 *1 458.66,278.6
X$1936 327 5 8 454 CLKBUF_X3
* cell instance $1938 r0 *1 459.8,278.6
X$1938 732 723 436 5 8 775 NAND3_X1
* cell instance $1940 r0 *1 460.75,278.6
X$1940 776 753 436 5 8 777 NAND3_X1
* cell instance $1942 r0 *1 461.7,278.6
X$1942 454 688 5 8 753 NAND2_X1
* cell instance $1944 r0 *1 462.46,278.6
X$1944 454 740 5 8 734 NAND2_X1
* cell instance $1946 r0 *1 463.41,278.6
X$1946 5 1015 740 741 678 8 DFF_X1
* cell instance $1951 r0 *1 469.49,278.6
X$1951 274 5 8 587 BUF_X2
* cell instance $1954 m0 *1 473.67,278.6
X$1954 472 733 735 725 708 8 5 752 OAI221_X1
* cell instance $1959 m0 *1 477.28,278.6
X$1959 730 614 5 8 733 NAND2_X1
* cell instance $1961 m0 *1 478.61,278.6
X$1961 371 5 8 709 CLKBUF_X3
* cell instance $1963 r0 *1 473.67,278.6
X$1963 648 5 8 877 INV_X2
* cell instance $1964 r0 *1 474.24,278.6
X$1964 140 5 8 648 CLKBUF_X3
* cell instance $1965 r0 *1 475.19,278.6
X$1965 5 991 730 752 648 8 DFF_X1
* cell instance $1969 m0 *1 479.94,278.6
X$1969 740 48 8 5 751 XNOR2_X1
* cell instance $1970 m0 *1 481.27,278.6
X$1970 742 80 8 5 759 XNOR2_X1
* cell instance $1976 r0 *1 480.51,278.6
X$1976 668 5 8 872 INV_X2
* cell instance $1979 r0 *1 482.98,278.6
X$1979 463 274 760 5 8 761 OR3_X1
* cell instance $1980 r0 *1 483.93,278.6
X$1980 463 274 744 5 8 780 OR3_X1
* cell instance $1981 r0 *1 484.88,278.6
X$1981 751 744 709 680 5 8 763 NAND4_X1
* cell instance $1982 r0 *1 485.83,278.6
X$1982 744 270 8 5 745 XNOR2_X1
* cell instance $1984 r0 *1 488.49,278.6
X$1984 712 417 5 8 750 NAND2_X1
* cell instance $1987 r0 *1 489.63,278.6
X$1987 711 417 5 8 779 NAND2_X1
* cell instance $1990 r0 *1 491.34,278.6
X$1990 371 5 8 472 CLKBUF_X3
* cell instance $1995 r0 *1 495.14,278.6
X$1995 778 441 745 5 765 8 AOI21_X1
* cell instance $1997 r0 *1 496.09,278.6
X$1997 371 746 211 8 778 5 OAI21_X1
* cell instance $1998 m0 *1 496.66,278.6
X$1998 371 5 8 441 BUF_X2
* cell instance $2000 m0 *1 497.42,278.6
X$2000 371 5 8 505 CLKBUF_X2
* cell instance $2001 m0 *1 498.18,278.6
X$2001 711 548 8 5 729 AND2_X1
* cell instance $2004 m0 *1 499.89,278.6
X$2004 729 5 8 726 BUF_X1
* cell instance $2007 r0 *1 497.04,278.6
X$2007 710 764 766 746 5 8 694 NOR4_X1
* cell instance $2008 r0 *1 497.99,278.6
X$2008 719 505 8 5 749 AND2_X1
* cell instance $2009 r0 *1 498.75,278.6
X$2009 746 505 8 5 773 AND2_X1
* cell instance $2011 r0 *1 500.27,278.6
X$2011 773 5 8 768 BUF_X1
* cell instance $2013 m0 *1 500.84,278.6
X$2013 728 5 8 747 BUF_X1
* cell instance $2016 r0 *1 501.41,278.6
X$2016 749 5 8 748 BUF_X1
* cell instance $2206 r0 *1 437.57,275.8
X$2206 563 707 5 8 705 NAND2_X1
* cell instance $2207 m0 *1 437.95,275.8
X$2207 581 684 5 8 706 NAND2_X1
* cell instance $2209 m0 *1 438.52,275.8
X$2209 563 684 5 8 639 NAND2_X1
* cell instance $2213 r0 *1 438.14,275.8
X$2213 640 705 706 5 714 8 AOI21_X1
* cell instance $2214 r0 *1 438.9,275.8
X$2214 5 714 685 913 707 8 DFF_X2
* cell instance $2216 r0 *1 442.7,275.8
X$2216 581 757 5 8 716 NAND2_X1
* cell instance $2218 m0 *1 443.46,275.8
X$2218 5 715 685 895 629 8 DFF_X2
* cell instance $2220 m0 *1 447.07,275.8
X$2220 5 951 687 700 685 8 DFF_X1
* cell instance $2224 m0 *1 465.5,275.8
X$2224 703 689 5 8 691 XNOR2_X2
* cell instance $2231 m0 *1 483.55,275.8
X$2231 463 274 702 5 8 701 OR3_X1
* cell instance $2232 m0 *1 484.5,275.8
X$2232 669 702 709 680 5 8 692 NAND4_X1
* cell instance $2235 m0 *1 487.73,275.8
X$2235 710 417 5 8 677 NAND2_X1
* cell instance $2238 m0 *1 497.42,275.8
X$2238 371 5 8 548 CLKBUF_X2
* cell instance $2239 m0 *1 498.18,275.8
X$2239 650 548 8 5 697 AND2_X1
* cell instance $2242 m0 *1 501.22,275.8
X$2242 697 5 8 696 BUF_X1
* cell instance $2247 r0 *1 445.74,275.8
X$2247 640 686 717 5 715 8 AOI21_X1
* cell instance $2249 r0 *1 446.69,275.8
X$2249 543 738 5 8 717 NAND2_X1
* cell instance $2252 r0 *1 450.49,275.8
X$2252 543 687 5 8 721 NAND2_X1
* cell instance $2256 r0 *1 452.39,275.8
X$2256 707 722 8 457 5 XOR2_X2
* cell instance $2262 r0 *1 459.99,275.8
X$2262 454 703 5 8 723 NAND2_X1
* cell instance $2265 r0 *1 467.02,275.8
X$2265 690 736 436 5 8 737 NAND3_X1
* cell instance $2268 r0 *1 470.06,275.8
X$2268 724 607 8 5 708 XNOR2_X1
* cell instance $2271 r0 *1 472.34,275.8
X$2271 708 111 709 680 5 8 735 NAND4_X1
* cell instance $2272 r0 *1 473.29,275.8
X$2272 463 587 111 5 8 725 OR3_X1
* cell instance $2275 r0 *1 477.66,275.8
X$2275 417 5 8 680 CLKBUF_X3
* cell instance $2278 r0 *1 480.51,275.8
X$2278 140 5 8 668 CLKBUF_X3
* cell instance $2282 r0 *1 486.21,275.8
X$2282 5 989 710 720 668 8 DFF_X1
* cell instance $2283 r0 *1 489.44,275.8
X$2283 417 8 211 5 BUF_X4
* cell instance $2287 r0 *1 494.76,275.8
X$2287 710 711 712 719 5 8 718 NAND4_X1
* cell instance $2288 r0 *1 495.71,275.8
X$2288 711 712 650 730 5 8 693 NOR4_X1
* cell instance $2291 r0 *1 497.23,275.8
X$2291 710 548 8 5 728 AND2_X1
* cell instance $2292 r0 *1 497.99,275.8
X$2292 712 548 8 5 713 AND2_X1
* cell instance $2296 r0 *1 500.84,275.8
X$2296 713 5 8 727 BUF_X1
* cell instance $2487 r0 *1 436.05,273
X$2487 5 673 685 912 684 8 DFF_X2
* cell instance $2489 m0 *1 438.52,273
X$2489 640 639 656 5 673 8 AOI21_X1
* cell instance $2493 r0 *1 440.23,273
X$2493 5 699 685 910 641 8 DFF_X2
* cell instance $2495 m0 *1 440.42,273
X$2495 581 641 5 8 656 NAND2_X1
* cell instance $2497 m0 *1 443.27,273
X$2497 563 641 5 8 642 NAND2_X1
* cell instance $2498 m0 *1 443.84,273
X$2498 581 629 5 8 662 NAND2_X1
* cell instance $2501 m0 *1 446.69,273
X$2501 513 641 5 8 657 XNOR2_X2
* cell instance $2505 m0 *1 456.95,273
X$2505 543 664 5 8 583 NAND2_X1
* cell instance $2508 m0 *1 458.47,273
X$2508 454 645 5 8 643 NAND2_X1
* cell instance $2509 m0 *1 459.04,273
X$2509 608 643 436 5 8 644 NAND3_X1
* cell instance $2510 m0 *1 459.8,273
X$2510 645 568 8 5 615 XNOR2_X1
* cell instance $2512 m0 *1 462.46,273
X$2512 611 660 436 5 8 679 NAND3_X1
* cell instance $2514 r0 *1 443.84,273
X$2514 640 642 662 5 699 8 AOI21_X1
* cell instance $2516 r0 *1 446.12,273
X$2516 555 629 5 8 686 NAND2_X1
* cell instance $2519 r0 *1 448.4,273
X$2519 100 676 663 5 700 8 AOI21_X1
* cell instance $2520 r0 *1 449.16,273
X$2520 555 687 5 8 676 NAND2_X1
* cell instance $2522 r0 *1 450.11,273
X$2522 687 684 5 8 681 XNOR2_X2
* cell instance $2524 r0 *1 458.09,273
X$2524 5 976 645 644 678 8 DFF_X1
* cell instance $2526 r0 *1 462.84,273
X$2526 5 1016 665 679 678 8 DFF_X1
* cell instance $2527 m0 *1 463.79,273
X$2527 454 665 5 8 660 NAND2_X1
* cell instance $2531 m0 *1 470.63,273
X$2531 743 370 8 5 646 XNOR2_X1
* cell instance $2533 m0 *1 471.96,273
X$2533 5 935 613 647 648 8 DFF_X1
* cell instance $2534 m0 *1 475.19,273
X$2534 613 614 5 8 683 NAND2_X1
* cell instance $2537 m0 *1 476.71,273
X$2537 463 587 83 5 8 616 OR3_X1
* cell instance $2539 m0 *1 477.85,273
X$2539 612 661 666 616 615 8 5 667 OAI221_X1
* cell instance $2541 r0 *1 466.07,273
X$2541 562 665 5 8 690 NAND2_X1
* cell instance $2542 r0 *1 466.64,273
X$2542 664 681 8 5 604 XNOR2_X1
* cell instance $2546 r0 *1 470.25,273
X$2546 318 587 689 5 8 704 OR3_X1
* cell instance $2547 r0 *1 471.2,273
X$2547 646 689 612 211 5 8 682 NAND4_X1
* cell instance $2549 r0 *1 472.34,273
X$2549 472 683 682 704 646 8 5 647 OAI221_X1
* cell instance $2552 r0 *1 476.71,273
X$2552 615 83 709 680 5 8 666 NAND4_X1
* cell instance $2553 r0 *1 477.66,273
X$2553 5 1001 633 667 668 8 DFF_X1
* cell instance $2554 m0 *1 479.56,273
X$2554 633 614 5 8 661 NAND2_X1
* cell instance $2556 m0 *1 480.13,273
X$2556 463 587 58 5 8 659 OR3_X1
* cell instance $2559 m0 *1 482.79,273
X$2559 612 617 649 659 691 8 5 658 OAI221_X1
* cell instance $2563 r0 *1 481.08,273
X$2563 665 115 8 5 669 XNOR2_X1
* cell instance $2564 r0 *1 482.22,273
X$2564 691 58 709 680 5 8 649 NAND4_X1
* cell instance $2566 r0 *1 483.93,273
X$2566 650 614 5 8 617 NAND2_X1
* cell instance $2567 r0 *1 484.5,273
X$2567 612 677 692 701 669 8 5 720 OAI221_X1
* cell instance $2569 m0 *1 485.07,273
X$2569 5 929 650 658 464 8 DFF_X1
* cell instance $2574 r0 *1 494,273
X$2574 633 557 618 719 5 8 675 NOR4_X1
* cell instance $2576 m0 *1 494.76,273
X$2576 444 650 557 618 5 8 670 NAND4_X1
* cell instance $2577 r0 *1 494.95,273
X$2577 670 718 5 8 634 NOR2_X1
* cell instance $2578 r0 *1 495.52,273
X$2578 675 693 619 694 5 8 674 NAND4_X1
* cell instance $2580 m0 *1 496.09,273
X$2580 674 573 441 637 620 8 5 654 OAI221_X1
* cell instance $2583 r0 *1 497.04,273
X$2583 618 548 8 5 698 AND2_X1
* cell instance $2584 m0 *1 498.37,273
X$2584 557 548 8 5 655 AND2_X1
* cell instance $2585 m0 *1 497.61,273
X$2585 444 548 8 5 651 AND2_X1
* cell instance $2586 m0 *1 499.13,273
X$2586 651 5 8 653 BUF_X1
* cell instance $2588 r0 *1 497.8,273
X$2588 633 441 8 5 672 AND2_X1
* cell instance $2590 r0 *1 499.32,273
X$2590 698 5 8 695 BUF_X1
* cell instance $2592 m0 *1 500.27,273
X$2592 655 5 8 623 BUF_X1
* cell instance $2594 m0 *1 500.84,273
X$2594 654 5 8 652 BUF_X1
* cell instance $2596 r0 *1 501.41,273
X$2596 672 5 8 671 BUF_X1
* cell instance $2837 m0 *1 435.67,253.4
X$2837 5 923 324 397 216 8 DFF_X1
* cell instance $2844 r0 *1 436.24,253.4
X$2844 291 376 5 8 443 NAND2_X1
* cell instance $2847 r0 *1 437.38,253.4
X$2847 291 324 5 8 398 NAND2_X1
* cell instance $2850 r0 *1 438.9,253.4
X$2850 376 324 8 381 5 XOR2_X2
* cell instance $2853 m0 *1 441.75,253.4
X$2853 5 942 329 368 216 8 DFF_X1
* cell instance $2857 m0 *1 448.21,253.4
X$2857 327 353 5 8 379 NAND2_X1
* cell instance $2858 m0 *1 448.78,253.4
X$2858 92 379 354 5 380 8 AOI21_X1
* cell instance $2859 m0 *1 449.54,253.4
X$2859 378 353 8 355 5 XOR2_X2
* cell instance $2863 m0 *1 455.24,253.4
X$2863 254 5 8 184 CLKBUF_X3
* cell instance $2864 m0 *1 456.19,253.4
X$2864 197 5 8 319 INV_X8
* cell instance $2869 m0 *1 463.41,253.4
X$2869 5 949 405 372 219 8 DFF_X1
* cell instance $2870 m0 *1 466.64,253.4
X$2870 356 373 407 5 8 401 MUX2_X1
* cell instance $2873 m0 *1 469.68,253.4
X$2873 5 924 357 358 232 8 DFF_X1
* cell instance $2876 m0 *1 479.75,253.4
X$2876 361 387 366 5 8 388 MUX2_X1
* cell instance $2878 m0 *1 481.27,253.4
X$2878 361 389 366 5 8 363 MUX2_X1
* cell instance $2884 r0 *1 441.94,253.4
X$2884 323 329 5 8 377 NAND2_X1
* cell instance $2885 r0 *1 442.51,253.4
X$2885 278 399 377 5 426 8 AOI21_X1
* cell instance $2886 r0 *1 443.27,253.4
X$2886 291 378 5 8 399 NAND2_X1
* cell instance $2890 r0 *1 447.45,253.4
X$2890 5 994 353 380 409 8 DFF_X1
* cell instance $2897 r0 *1 455.43,253.4
X$2897 253 183 319 381 5 8 407 OR4_X1
* cell instance $2898 r0 *1 456.57,253.4
X$2898 381 197 254 205 5 8 356 NAND4_X1
* cell instance $2903 r0 *1 466.26,253.4
X$2903 413 230 8 5 383 XNOR2_X1
* cell instance $2908 r0 *1 472.91,253.4
X$2908 5 1006 334 385 232 8 DFF_X1
* cell instance $2909 r0 *1 476.14,253.4
X$2909 5 1004 359 386 232 8 DFF_X1
* cell instance $2913 r0 *1 480.7,253.4
X$2913 406 115 8 5 389 XNOR2_X1
* cell instance $2917 r0 *1 487.16,253.4
X$2917 403 404 5 8 420 NAND2_X1
* cell instance $2919 m0 *1 488.49,253.4
X$2919 390 402 157 5 8 364 NAND3_X1
* cell instance $2923 m0 *1 493.81,253.4
X$2923 308 362 309 5 8 400 NAND3_X1
* cell instance $2924 m0 *1 494.57,253.4
X$2924 400 401 5 8 395 NAND2_X1
* cell instance $2926 m0 *1 495.33,253.4
X$2926 308 393 309 5 8 396 NAND3_X1
* cell instance $2929 r0 *1 491.53,253.4
X$2929 391 388 5 8 392 NAND2_X1
* cell instance $2932 r0 *1 495.33,253.4
X$2932 396 363 5 8 394 NAND2_X1
* cell instance $2934 r0 *1 496.09,253.4
X$2934 5 986 393 394 234 8 DFF_X1
* cell instance $2935 m0 *1 496.66,253.4
X$2935 5 925 362 395 234 8 DFF_X1
* cell instance $3066 m0 *1 436.05,270.2
X$3066 5 943 564 627 409 8 DFF_X1
* cell instance $3067 m0 *1 439.28,270.2
X$3067 640 580 594 5 627 8 AOI21_X1
* cell instance $3107 m0 *1 442.13,270.2
X$3107 563 582 5 8 606 NAND2_X1
* cell instance $3109 m0 *1 442.7,270.2
X$3109 278 606 716 5 628 8 AOI21_X1
* cell instance $3111 m0 *1 443.65,270.2
X$3111 5 628 409 894 582 8 DFF_X2
* cell instance $3117 r0 *1 446.5,270.2
X$3117 470 629 5 8 607 XNOR2_X2
* cell instance $3118 r0 *1 448.4,270.2
X$3118 543 513 5 8 663 NAND2_X1
* cell instance $3121 m0 *1 452.96,270.2
X$3121 5 921 565 584 479 8 DFF_X1
* cell instance $3126 r0 *1 458.28,270.2
X$3126 5 974 610 597 479 8 DFF_X1
* cell instance $3127 m0 *1 459.42,270.2
X$3127 598 609 436 5 8 597 NAND3_X1
* cell instance $3128 m0 *1 458.85,270.2
X$3128 454 610 5 8 609 NAND2_X1
* cell instance $3134 r0 *1 462.08,270.2
X$3134 562 610 5 8 611 NAND2_X1
* cell instance $3137 r0 *1 463.6,270.2
X$3137 562 405 5 8 608 NAND2_X1
* cell instance $3139 m0 *1 468.35,270.2
X$3139 371 5 8 612 CLKBUF_X3
* cell instance $3140 m0 *1 467.4,270.2
X$3140 604 201 612 211 5 8 603 NAND4_X1
* cell instance $3141 m0 *1 469.3,270.2
X$3141 5 920 586 585 480 8 DFF_X1
* cell instance $3142 m0 *1 472.53,270.2
X$3142 586 614 5 8 601 NAND2_X1
* cell instance $3146 m0 *1 475.19,270.2
X$3146 589 614 5 8 588 NAND2_X1
* cell instance $3153 m0 *1 482.03,270.2
X$3153 417 5 8 614 CLKBUF_X3
* cell instance $3154 m0 *1 482.98,270.2
X$3154 140 5 8 464 CLKBUF_X3
* cell instance $3155 m0 *1 483.93,270.2
X$3155 464 5 8 870 INV_X2
* cell instance $3159 m0 *1 489.82,270.2
X$3159 5 969 632 638 464 8 DFF_X1
* cell instance $3166 m0 *1 495.14,270.2
X$3166 613 572 586 589 5 8 619 NOR4_X1
* cell instance $3169 m0 *1 496.28,270.2
X$3169 593 621 635 471 5 8 636 NOR4_X1
* cell instance $3170 m0 *1 497.23,270.2
X$3170 613 572 586 589 5 8 593 NAND4_X1
* cell instance $3171 m0 *1 498.18,270.2
X$3171 589 441 8 5 631 AND2_X1
* cell instance $3173 m0 *1 499.7,270.2
X$3173 586 505 8 5 622 AND2_X1
* cell instance $3174 m0 *1 500.46,270.2
X$3174 631 5 8 590 BUF_X1
* cell instance $3176 r0 *1 495.33,270.2
X$3176 504 371 633 5 8 637 NAND3_X1
* cell instance $3178 r0 *1 496.47,270.2
X$3178 634 636 5 8 620 NAND2_X1
* cell instance $3181 r0 *1 497.61,270.2
X$3181 632 5 8 624 BUF_X1
* cell instance $3183 r0 *1 498.94,270.2
X$3183 613 505 8 5 630 AND2_X1
* cell instance $3185 r0 *1 501.22,270.2
X$3185 630 5 8 626 BUF_X1
* cell instance $3187 m0 *1 501.41,270.2
X$3187 622 5 8 625 BUF_X1
* cell instance $3389 r0 *1 437.76,264.6
X$3389 563 496 5 8 592 NAND2_X1
* cell instance $3392 r0 *1 445.17,264.6
X$3392 318 5 8 278 CLKBUF_X3
* cell instance $3395 r0 *1 449.35,264.6
X$3395 555 542 5 8 522 NAND2_X1
* cell instance $3397 r0 *1 450.11,264.6
X$3397 522 498 95 5 8 578 NAND3_X1
* cell instance $3400 r0 *1 451.06,264.6
X$3400 349 8 543 5 BUF_X4
* cell instance $3402 m0 *1 453.91,264.6
X$3402 5 919 524 523 479 8 DFF_X1
* cell instance $3406 r0 *1 454.29,264.6
X$3406 556 535 95 5 8 523 NAND3_X1
* cell instance $3410 r0 *1 457.14,264.6
X$3410 543 524 5 8 536 NAND2_X1
* cell instance $3411 m0 *1 457.71,264.6
X$3411 282 524 5 8 535 NAND2_X1
* cell instance $3414 r0 *1 457.71,264.6
X$3414 524 607 8 5 525 XNOR2_X1
* cell instance $3415 m0 *1 458.85,264.6
X$3415 478 525 473 5 8 490 MUX2_X1
* cell instance $3420 r0 *1 458.85,264.6
X$3420 478 559 473 5 8 539 MUX2_X1
* cell instance $3423 r0 *1 460.75,264.6
X$3423 349 8 562 5 BUF_X4
* cell instance $3426 r0 *1 463.22,264.6
X$3426 562 460 5 8 579 NAND2_X1
* cell instance $3428 m0 *1 464.55,264.6
X$3428 602 88 5 8 538 XOR2_X1
* cell instance $3430 m0 *1 465.69,264.6
X$3430 688 52 8 5 526 XNOR2_X1
* cell instance $3431 m0 *1 466.83,264.6
X$3431 433 526 458 5 8 541 MUX2_X1
* cell instance $3433 m0 *1 468.35,264.6
X$3433 538 499 5 8 540 NAND2_X1
* cell instance $3439 m0 *1 485.83,264.6
X$3439 417 5 8 157 CLKBUF_X3
* cell instance $3443 m0 *1 496.09,264.6
X$3443 272 257 310 502 5 8 635 NAND4_X1
* cell instance $3445 m0 *1 497.23,264.6
X$3445 257 441 8 5 534 AND2_X1
* cell instance $3447 m0 *1 499.51,264.6
X$3447 527 5 8 509 BUF_X1
* cell instance $3448 m0 *1 500.08,264.6
X$3448 272 441 8 5 529 AND2_X1