
* cell configurable_comparator
* pin b[13]
* pin b[7]
* pin a[7]
* pin b[15]
* pin a[15]
* pin b[6]
* pin a[6]
* pin b[5]
* pin a[5]
* pin b[14]
* pin a[4]
* pin b[4]
* pin a[13]
* pin a[14]
* pin result
* pin op_sel[1]
* pin op_sel[2]
* pin signed_mode
* pin b[12]
* pin a[12]
* pin a[10]
* pin b[10]
* pin op_sel[0]
* pin a[11]
* pin b[11]
* pin a[9]
* pin b[9]
* pin a[3]
* pin a[8]
* pin b[8]
* pin b[1]
* pin a[1]
* pin b[3]
* pin b[0]
* pin a[0]
* pin a[2]
* pin b[2]
* pin NWELL
* pin PWELL,gf180mcu_gnd
.SUBCKT configurable_comparator 1 2 3 4 5 6 7 8 9 34 41 42 46 47 55 56 57 71 76
+ 77 89 90 97 100 101 110 111 128 148 149 150 152 153 154 155 156 157 159 160
* net 1 b[13]
* net 2 b[7]
* net 3 a[7]
* net 4 b[15]
* net 5 a[15]
* net 6 b[6]
* net 7 a[6]
* net 8 b[5]
* net 9 a[5]
* net 34 b[14]
* net 41 a[4]
* net 42 b[4]
* net 46 a[13]
* net 47 a[14]
* net 55 result
* net 56 op_sel[1]
* net 57 op_sel[2]
* net 71 signed_mode
* net 76 b[12]
* net 77 a[12]
* net 89 a[10]
* net 90 b[10]
* net 97 op_sel[0]
* net 100 a[11]
* net 101 b[11]
* net 110 a[9]
* net 111 b[9]
* net 128 a[3]
* net 148 a[8]
* net 149 b[8]
* net 150 b[1]
* net 152 a[1]
* net 153 b[3]
* net 154 b[0]
* net 155 a[0]
* net 156 a[2]
* net 157 b[2]
* net 159 NWELL
* net 160 PWELL,gf180mcu_gnd
* cell instance $3 r0 *1 309.12,5.04
X$3 1 159 160 10 gf180mcu_fd_sc_mcu9t5v0__clkbuf_2
* cell instance $8 r0 *1 313.6,5.04
X$8 2 159 160 22 gf180mcu_fd_sc_mcu9t5v0__dlyb_2
* cell instance $12 r0 *1 322,5.04
X$12 3 159 160 15 gf180mcu_fd_sc_mcu9t5v0__dlyb_2
* cell instance $16 r0 *1 334.88,15.12
X$16 4 159 160 29 gf180mcu_fd_sc_mcu9t5v0__clkbuf_2
* cell instance $19 r0 *1 338.8,5.04
X$19 5 159 160 12 gf180mcu_fd_sc_mcu9t5v0__buf_2
* cell instance $24 r0 *1 330.4,5.04
X$24 6 159 160 11 gf180mcu_fd_sc_mcu9t5v0__dlyb_2
* cell instance $28 r0 *1 343.28,5.04
X$28 7 159 160 13 gf180mcu_fd_sc_mcu9t5v0__dlyb_2
* cell instance $32 r0 *1 352.24,5.04
X$32 8 159 160 26 gf180mcu_fd_sc_mcu9t5v0__dlyb_2
* cell instance $36 m0 *1 349.44,15.12
X$36 9 159 160 19 gf180mcu_fd_sc_mcu9t5v0__dlyb_2
* cell instance $38 m0 *1 309.12,317.52
X$38 160 159 10 43 gf180mcu_fd_sc_mcu9t5v0__clkinv_2
* cell instance $41 m0 *1 334.32,15.12
X$41 160 159 11 28 gf180mcu_fd_sc_mcu9t5v0__clkinv_2
* cell instance $45 r0 *1 338.24,327.6
X$45 160 51 64 12 52 159 gf180mcu_fd_sc_mcu9t5v0__addh_2
* cell instance $47 m0 *1 338.8,15.12
X$47 25 160 159 13 28 18 gf180mcu_fd_sc_mcu9t5v0__addh_1
* cell instance $52 m0 *1 319.2,15.12
X$52 160 159 22 14 gf180mcu_fd_sc_mcu9t5v0__clkinv_2
* cell instance $54 m0 *1 322.56,15.12
X$54 160 23 16 15 14 159 gf180mcu_fd_sc_mcu9t5v0__addh_2
* cell instance $58 r0 *1 339.92,15.12
X$58 160 159 16 31 18 gf180mcu_fd_sc_mcu9t5v0__nand2_2
* cell instance $61 r0 *1 346.08,15.12
X$61 16 18 30 21 160 159 33 gf180mcu_fd_sc_mcu9t5v0__and4_2
* cell instance $64 r0 *1 327.6,15.12
X$64 160 23 159 24 25 16 gf180mcu_fd_sc_mcu9t5v0__aoi21_2
* cell instance $68 m0 *1 334.88,25.2
X$68 160 24 17 32 31 159 gf180mcu_fd_sc_mcu9t5v0__oai21_4
* cell instance $70 m0 *1 336.56,337.68
X$70 160 79 159 17 51 73 63 64 gf180mcu_fd_sc_mcu9t5v0__aoi221_2
* cell instance $77 r0 *1 354.48,15.12
X$77 27 160 159 19 20 30 gf180mcu_fd_sc_mcu9t5v0__addh_1
* cell instance $81 m0 *1 357.84,15.12
X$81 160 159 26 20 gf180mcu_fd_sc_mcu9t5v0__clkinv_2
* cell instance $86 r0 *1 358.4,307.44
X$86 160 38 21 39 40 159 gf180mcu_fd_sc_mcu9t5v0__addh_2
* cell instance $106 m0 *1 349.44,25.2
X$106 160 27 159 32 38 30 gf180mcu_fd_sc_mcu9t5v0__aoi21_2
* cell instance $116 r0 *1 336.56,317.52
X$116 160 159 29 52 gf180mcu_fd_sc_mcu9t5v0__clkinv_2
* cell instance $132 r0 *1 347.2,337.68
X$132 160 159 79 80 33 gf180mcu_fd_sc_mcu9t5v0__nand2_2
* cell instance $134 m0 *1 355.04,347.76
X$134 79 33 130 131 160 159 81 gf180mcu_fd_sc_mcu9t5v0__and4_2
* cell instance $140 m0 *1 2.24,317.52
X$140 34 159 160 35 gf180mcu_fd_sc_mcu9t5v0__dlyb_2
* cell instance $142 m0 *1 10.64,317.52
X$142 160 159 35 44 gf180mcu_fd_sc_mcu9t5v0__clkinv_2
* cell instance $145 r0 *1 10.64,317.52
X$145 37 160 159 36 43 61 gf180mcu_fd_sc_mcu9t5v0__addh_1
* cell instance $147 r0 *1 2.24,317.52
X$147 46 159 160 36 gf180mcu_fd_sc_mcu9t5v0__dlyb_2
* cell instance $149 m0 *1 13.44,327.6
X$149 159 49 37 160 50 gf180mcu_fd_sc_mcu9t5v0__and2_2
* cell instance $155 m0 *1 661.92,317.52
X$155 41 159 160 39 gf180mcu_fd_sc_mcu9t5v0__buf_2
* cell instance $159 m0 *1 365.68,317.52
X$159 160 159 45 40 gf180mcu_fd_sc_mcu9t5v0__clkinv_2
* cell instance $164 r0 *1 659.68,317.52
X$164 42 159 160 45 gf180mcu_fd_sc_mcu9t5v0__clkbuf_2
* cell instance $171 m0 *1 3.92,327.6
X$171 58 160 159 48 44 49 gf180mcu_fd_sc_mcu9t5v0__addh_1
* cell instance $183 r0 *1 2.24,327.6
X$183 47 159 160 48 gf180mcu_fd_sc_mcu9t5v0__dlyb_2
* cell instance $187 m0 *1 20.72,337.68
X$187 64 49 61 62 160 159 78 gf180mcu_fd_sc_mcu9t5v0__and4_2
* cell instance $189 m0 *1 12.32,337.68
X$189 49 159 61 60 160 72 gf180mcu_fd_sc_mcu9t5v0__and3_2
* cell instance $196 r0 *1 12.32,327.6
X$196 58 160 72 50 159 73 gf180mcu_fd_sc_mcu9t5v0__or3_2
* cell instance $204 r0 *1 666.4,327.6
X$204 160 159 54 53 67 gf180mcu_fd_sc_mcu9t5v0__nand2_2
* cell instance $206 m0 *1 666.4,337.68
X$206 160 66 53 159 74 gf180mcu_fd_sc_mcu9t5v0__or2_2
* cell instance $208 m0 *1 679.84,347.76
X$208 160 159 68 82 54 gf180mcu_fd_sc_mcu9t5v0__nand2_2
* cell instance $212 r0 *1 678.72,327.6
X$212 56 159 160 54 gf180mcu_fd_sc_mcu9t5v0__dlyb_2
* cell instance $216 m0 *1 672,337.68
X$216 68 160 54 69 159 70 gf180mcu_fd_sc_mcu9t5v0__or3_2
* cell instance $219 m0 *1 678.72,327.6
X$219 59 159 160 55 gf180mcu_fd_sc_mcu9t5v0__dlyb_2
* cell instance $224 m0 *1 678.72,337.68
X$224 57 159 160 68 gf180mcu_fd_sc_mcu9t5v0__dlyb_2
* cell instance $230 r0 *1 677.04,337.68
X$230 86 74 70 82 160 159 59 gf180mcu_fd_sc_mcu9t5v0__and4_2
* cell instance $236 m0 *1 14,347.76
X$236 60 160 159 83 84 62 gf180mcu_fd_sc_mcu9t5v0__addh_1
* cell instance $247 m0 *1 345.52,347.76
X$247 159 123 87 80 85 63 160 gf180mcu_fd_sc_mcu9t5v0__oai211_2
* cell instance $253 m0 *1 350,337.68
X$253 160 159 64 75 gf180mcu_fd_sc_mcu9t5v0__clkinv_2
* cell instance $261 r0 *1 353.92,337.68
X$261 159 75 65 160 88 gf180mcu_fd_sc_mcu9t5v0__and2_2
* cell instance $263 r0 *1 664.72,347.76
X$263 71 159 160 65 gf180mcu_fd_sc_mcu9t5v0__clkbuf_2
* cell instance $266 r0 *1 666.96,337.68
X$266 159 66 86 81 67 68 160 gf180mcu_fd_sc_mcu9t5v0__oai211_2
* cell instance $270 r0 *1 358.96,337.68
X$270 159 87 88 160 66 gf180mcu_fd_sc_mcu9t5v0__xnor2_2
* cell instance $276 m0 *1 665.28,347.76
X$276 160 159 96 67 81 gf180mcu_fd_sc_mcu9t5v0__nand2_2
* cell instance $286 m0 *1 670.32,347.76
X$286 96 160 81 159 69 gf180mcu_fd_sc_mcu9t5v0__xor2_2
* cell instance $309 r0 *1 2.8,347.76
X$309 76 159 160 92 gf180mcu_fd_sc_mcu9t5v0__dlyb_2
* cell instance $312 m0 *1 2.24,347.76
X$312 77 159 160 83 gf180mcu_fd_sc_mcu9t5v0__dlyb_2
* cell instance $315 m0 *1 33.04,347.76
X$315 159 78 99 160 79 gf180mcu_fd_sc_mcu9t5v0__and2_2
* cell instance $318 m0 *1 28,347.76
X$318 160 159 78 85 95 gf180mcu_fd_sc_mcu9t5v0__nand2_2
* cell instance $348 m0 *1 10.64,347.76
X$348 160 159 92 84 gf180mcu_fd_sc_mcu9t5v0__clkinv_2
* cell instance $368 r0 *1 2.24,367.92
X$368 89 159 160 102 gf180mcu_fd_sc_mcu9t5v0__dlyb_2
* cell instance $371 m0 *1 2.24,357.84
X$371 90 159 160 93 gf180mcu_fd_sc_mcu9t5v0__dlyb_2
* cell instance $373 r0 *1 3.92,357.84
X$373 98 160 159 102 91 106 gf180mcu_fd_sc_mcu9t5v0__addh_1
* cell instance $375 m0 *1 10.64,357.84
X$375 160 159 93 91 gf180mcu_fd_sc_mcu9t5v0__clkinv_2
* cell instance $381 r0 *1 13.44,357.84
X$381 160 103 159 94 98 105 gf180mcu_fd_sc_mcu9t5v0__aoi21_2
* cell instance $383 r0 *1 22.4,357.84
X$383 159 94 160 107 95 108 gf180mcu_fd_sc_mcu9t5v0__oai21_2
* cell instance $392 r0 *1 678.72,347.76
X$392 97 159 160 96 gf180mcu_fd_sc_mcu9t5v0__dlyb_2
* cell instance $402 r0 *1 22.4,367.92
X$402 105 114 106 115 160 159 99 gf180mcu_fd_sc_mcu9t5v0__and4_2
* cell instance $407 m0 *1 3.36,378
X$407 100 159 160 112 gf180mcu_fd_sc_mcu9t5v0__dlyb_2
* cell instance $410 m0 *1 4.48,367.92
X$410 101 159 160 109 gf180mcu_fd_sc_mcu9t5v0__dlyb_2
* cell instance $415 r0 *1 10.64,367.92
X$415 160 103 105 112 104 159 gf180mcu_fd_sc_mcu9t5v0__addh_2
* cell instance $418 m0 *1 14,367.92
X$418 160 159 109 104 gf180mcu_fd_sc_mcu9t5v0__clkinv_2
* cell instance $421 m0 *1 19.04,367.92
X$421 160 159 105 107 106 gf180mcu_fd_sc_mcu9t5v0__nand2_2
* cell instance $434 r0 *1 21.84,378
X$434 160 117 159 108 116 114 gf180mcu_fd_sc_mcu9t5v0__aoi21_2
* cell instance $442 r0 *1 3.36,378
X$442 110 159 160 113 gf180mcu_fd_sc_mcu9t5v0__dlyb_2
* cell instance $445 m0 *1 3.36,388.08
X$445 111 159 160 119 gf180mcu_fd_sc_mcu9t5v0__dlyb_2
* cell instance $449 r0 *1 11.76,378
X$449 117 160 159 113 118 114 gf180mcu_fd_sc_mcu9t5v0__addh_1
* cell instance $460 m0 *1 297.92,388.08
X$460 160 116 115 121 120 159 gf180mcu_fd_sc_mcu9t5v0__addh_2
* cell instance $472 m0 *1 14,378
X$472 160 159 119 118 gf180mcu_fd_sc_mcu9t5v0__clkinv_2
* cell instance $476 r0 *1 309.12,388.08
X$476 160 159 122 120 gf180mcu_fd_sc_mcu9t5v0__clkinv_2
* cell instance $483 r0 *1 308,680.4
X$483 148 159 160 121 gf180mcu_fd_sc_mcu9t5v0__clkbuf_2
* cell instance $489 r0 *1 312.48,680.4
X$489 149 159 160 122 gf180mcu_fd_sc_mcu9t5v0__clkbuf_2
* cell instance $494 m0 *1 346.08,660.24
X$494 160 123 130 126 129 127 132 159 gf180mcu_fd_sc_mcu9t5v0__aoi221_4
* cell instance $496 r0 *1 344.96,650.16
X$496 160 127 126 124 125 159 gf180mcu_fd_sc_mcu9t5v0__addh_2
* cell instance $498 m0 *1 344.4,670.32
X$498 128 159 160 124 gf180mcu_fd_sc_mcu9t5v0__dlyb_2
* cell instance $500 m0 *1 348.88,680.4
X$500 160 159 158 125 gf180mcu_fd_sc_mcu9t5v0__clkinv_2
* cell instance $504 m0 *1 368.48,660.24
X$504 159 126 134 160 130 gf180mcu_fd_sc_mcu9t5v0__and2_2
* cell instance $517 r0 *1 339.92,670.32
X$517 159 139 160 147 129 146 gf180mcu_fd_sc_mcu9t5v0__oai21_2
* cell instance $527 r0 *1 356.16,670.32
X$527 159 144 140 160 131 gf180mcu_fd_sc_mcu9t5v0__and2_2
* cell instance $530 r0 *1 362.32,660.24
X$530 132 160 159 135 133 134 gf180mcu_fd_sc_mcu9t5v0__addh_1
* cell instance $533 r0 *1 367.92,670.32
X$533 160 159 142 133 gf180mcu_fd_sc_mcu9t5v0__clkinv_2
* cell instance $540 m0 *1 370.16,680.4
X$540 156 159 160 135 gf180mcu_fd_sc_mcu9t5v0__dlyb_2
* cell instance $542 m0 *1 336,680.4
X$542 160 159 136 138 gf180mcu_fd_sc_mcu9t5v0__clkinv_2
* cell instance $544 r0 *1 330.4,680.4
X$544 150 159 160 136 gf180mcu_fd_sc_mcu9t5v0__dlyb_2
* cell instance $546 r0 *1 336.56,670.32
X$546 160 159 137 139 gf180mcu_fd_sc_mcu9t5v0__clkinv_2
* cell instance $548 m0 *1 339.36,680.4
X$548 137 160 159 151 138 140 gf180mcu_fd_sc_mcu9t5v0__addh_1
* cell instance $554 r0 *1 350.56,670.32
X$554 160 159 140 146 gf180mcu_fd_sc_mcu9t5v0__clkinv_2
* cell instance $561 r0 *1 361.2,670.32
X$561 160 159 141 143 gf180mcu_fd_sc_mcu9t5v0__clkinv_2
* cell instance $563 r0 *1 360.08,680.4
X$563 155 159 160 141 gf180mcu_fd_sc_mcu9t5v0__dlyb_2
* cell instance $568 r0 *1 368.48,680.4
X$568 157 159 160 142 gf180mcu_fd_sc_mcu9t5v0__dlyb_2
* cell instance $570 m0 *1 352.24,680.4
X$570 147 160 159 143 145 144 gf180mcu_fd_sc_mcu9t5v0__addh_1
* cell instance $581 m0 *1 361.76,680.4
X$581 154 159 160 145 gf180mcu_fd_sc_mcu9t5v0__dlyb_2
* cell instance $602 r0 *1 339.92,680.4
X$602 152 159 160 151 gf180mcu_fd_sc_mcu9t5v0__dlyb_2
* cell instance $609 r0 *1 350.56,680.4
X$609 153 159 160 158 gf180mcu_fd_sc_mcu9t5v0__dlyb_2
.ENDS configurable_comparator

* cell gf180mcu_fd_sc_mcu9t5v0__xnor2_2
* pin NWELL,VDD
* pin A1
* pin A2
* pin PWELL,VSS,gf180mcu_gnd
* pin ZN
.SUBCKT gf180mcu_fd_sc_mcu9t5v0__xnor2_2 1 5 6 7 8
* net 1 NWELL,VDD
* net 5 A1
* net 6 A2
* net 7 PWELL,VSS,gf180mcu_gnd
* net 8 ZN
* device instance $1 r0 *1 0.97,3.327 pmos_5p0
M$1 10 6 2 1 pmos_5p0 L=0.5U W=0.915U AS=0.4026P AD=0.260775P PS=2.71U PD=1.485U
* device instance $2 r0 *1 2.04,3.327 pmos_5p0
M$2 1 5 10 1 pmos_5p0 L=0.5U W=0.915U AS=0.260775P AD=0.571875P PS=1.485U
+ PD=2.68U
* device instance $3 r0 *1 3.39,3.785 pmos_5p0
M$3 4 2 1 1 pmos_5p0 L=0.5U W=1.83U AS=0.571875P AD=0.4758P PS=2.68U PD=2.35U
* device instance $4 r0 *1 4.41,3.785 pmos_5p0
M$4 3 5 4 1 pmos_5p0 L=0.5U W=1.83U AS=0.4758P AD=0.4758P PS=2.35U PD=2.35U
* device instance $5 r0 *1 5.43,3.785 pmos_5p0
M$5 4 6 3 1 pmos_5p0 L=0.5U W=1.83U AS=0.4758P AD=0.8052P PS=2.35U PD=4.54U
* device instance $6 r0 *1 7.17,3.78 pmos_5p0
M$6 8 3 1 1 pmos_5p0 L=0.5U W=3.66U AS=1.3725P AD=1.3725P PS=6.99U PD=6.99U
* device instance $8 r0 *1 7.22,1.005 nmos_5p0
M$8 8 3 7 7 nmos_5p0 L=0.6U W=2.64U AS=0.924P AD=0.924P PS=5.36U PD=5.36U
* device instance $10 r0 *1 0.92,0.675 nmos_5p0
M$10 2 6 7 7 nmos_5p0 L=0.6U W=0.66U AS=0.2904P AD=0.1716P PS=2.2U PD=1.18U
* device instance $11 r0 *1 2.04,0.675 nmos_5p0
M$11 7 5 2 7 nmos_5p0 L=0.6U W=0.66U AS=0.1716P AD=0.363P PS=1.18U PD=2.02U
* device instance $12 r0 *1 3.34,1.005 nmos_5p0
M$12 3 2 7 7 nmos_5p0 L=0.6U W=1.32U AS=0.363P AD=0.3432P PS=2.02U PD=1.84U
* device instance $13 r0 *1 4.46,1.005 nmos_5p0
M$13 9 5 3 7 nmos_5p0 L=0.6U W=1.32U AS=0.3432P AD=0.2112P PS=1.84U PD=1.64U
* device instance $14 r0 *1 5.38,1.005 nmos_5p0
M$14 7 6 9 7 nmos_5p0 L=0.6U W=1.32U AS=0.2112P AD=0.5808P PS=1.64U PD=3.52U
.ENDS gf180mcu_fd_sc_mcu9t5v0__xnor2_2

* cell gf180mcu_fd_sc_mcu9t5v0__or2_2
* pin PWELL,VSS,gf180mcu_gnd
* pin A1
* pin A2
* pin NWELL,VDD
* pin Z
.SUBCKT gf180mcu_fd_sc_mcu9t5v0__or2_2 1 2 4 5 6
* net 1 PWELL,VSS,gf180mcu_gnd
* net 2 A1
* net 4 A2
* net 5 NWELL,VDD
* net 6 Z
* device instance $1 r0 *1 0.97,3.78 pmos_5p0
M$1 7 2 3 5 pmos_5p0 L=0.5U W=1.83U AS=0.8052P AD=0.52155P PS=4.54U PD=2.4U
* device instance $2 r0 *1 2.04,3.78 pmos_5p0
M$2 5 4 7 5 pmos_5p0 L=0.5U W=1.83U AS=0.52155P AD=0.5673P PS=2.4U PD=2.45U
* device instance $3 r0 *1 3.16,3.78 pmos_5p0
M$3 6 3 5 5 pmos_5p0 L=0.5U W=3.66U AS=1.08885P AD=1.32675P PS=4.85U PD=6.94U
* device instance $5 r0 *1 0.92,1.005 nmos_5p0
M$5 3 2 1 1 nmos_5p0 L=0.6U W=1.32U AS=0.5808P AD=0.3432P PS=3.52U PD=1.84U
* device instance $6 r0 *1 2.04,1.005 nmos_5p0
M$6 1 4 3 1 nmos_5p0 L=0.6U W=1.32U AS=0.3432P AD=0.3432P PS=1.84U PD=1.84U
* device instance $7 r0 *1 3.16,1.005 nmos_5p0
M$7 6 3 1 1 nmos_5p0 L=0.6U W=2.64U AS=0.6864P AD=0.924P PS=3.68U PD=5.36U
.ENDS gf180mcu_fd_sc_mcu9t5v0__or2_2

* cell gf180mcu_fd_sc_mcu9t5v0__buf_2
* pin I
* pin NWELL,VDD
* pin PWELL,VSS,gf180mcu_gnd
* pin Z
.SUBCKT gf180mcu_fd_sc_mcu9t5v0__buf_2 1 2 3 5
* net 1 I
* net 2 NWELL,VDD
* net 3 PWELL,VSS,gf180mcu_gnd
* net 5 Z
* device instance $1 r0 *1 0.87,3.78 pmos_5p0
M$1 2 1 4 2 pmos_5p0 L=0.5U W=1.83U AS=0.8052P AD=0.5673P PS=4.54U PD=2.45U
* device instance $2 r0 *1 1.99,3.78 pmos_5p0
M$2 5 4 2 2 pmos_5p0 L=0.5U W=3.66U AS=1.1346P AD=1.3725P PS=4.9U PD=6.99U
* device instance $4 r0 *1 0.92,1.005 nmos_5p0
M$4 3 1 4 3 nmos_5p0 L=0.6U W=1.32U AS=0.5808P AD=0.3432P PS=3.52U PD=1.84U
* device instance $5 r0 *1 2.04,1.005 nmos_5p0
M$5 5 4 3 3 nmos_5p0 L=0.6U W=2.64U AS=0.6864P AD=0.924P PS=3.68U PD=5.36U
.ENDS gf180mcu_fd_sc_mcu9t5v0__buf_2

* cell gf180mcu_fd_sc_mcu9t5v0__or3_2
* pin A1
* pin PWELL,VSS,gf180mcu_gnd
* pin A2
* pin A3
* pin NWELL,VDD
* pin Z
.SUBCKT gf180mcu_fd_sc_mcu9t5v0__or3_2 2 3 4 5 6 7
* net 2 A1
* net 3 PWELL,VSS,gf180mcu_gnd
* net 4 A2
* net 5 A3
* net 6 NWELL,VDD
* net 7 Z
* device instance $1 r0 *1 0.97,3.78 pmos_5p0
M$1 9 2 1 6 pmos_5p0 L=0.5U W=1.83U AS=0.8052P AD=0.52155P PS=4.54U PD=2.4U
* device instance $2 r0 *1 2.04,3.78 pmos_5p0
M$2 8 4 9 6 pmos_5p0 L=0.5U W=1.83U AS=0.52155P AD=0.5673P PS=2.4U PD=2.45U
* device instance $3 r0 *1 3.16,3.78 pmos_5p0
M$3 6 5 8 6 pmos_5p0 L=0.5U W=1.83U AS=0.5673P AD=0.732P PS=2.45U PD=2.63U
* device instance $4 r0 *1 4.46,3.78 pmos_5p0
M$4 7 1 6 6 pmos_5p0 L=0.5U W=3.66U AS=1.25355P AD=1.32675P PS=5.03U PD=6.94U
* device instance $6 r0 *1 0.92,0.87 nmos_5p0
M$6 3 2 1 3 nmos_5p0 L=0.6U W=1.05U AS=0.462P AD=0.273P PS=2.98U PD=1.57U
* device instance $7 r0 *1 2.04,0.87 nmos_5p0
M$7 1 4 3 3 nmos_5p0 L=0.6U W=1.05U AS=0.273P AD=0.273P PS=1.57U PD=1.57U
* device instance $8 r0 *1 3.16,0.87 nmos_5p0
M$8 3 5 1 3 nmos_5p0 L=0.6U W=1.05U AS=0.273P AD=0.4215P PS=1.57U PD=2.02U
* device instance $9 r0 *1 4.46,1.005 nmos_5p0
M$9 7 1 3 3 nmos_5p0 L=0.6U W=2.64U AS=0.7647P AD=0.924P PS=3.86U PD=5.36U
.ENDS gf180mcu_fd_sc_mcu9t5v0__or3_2

* cell gf180mcu_fd_sc_mcu9t5v0__and3_2
* pin A1
* pin NWELL,VDD
* pin A2
* pin A3
* pin PWELL,VSS,gf180mcu_gnd
* pin Z
.SUBCKT gf180mcu_fd_sc_mcu9t5v0__and3_2 2 3 4 5 6 7
* net 2 A1
* net 3 NWELL,VDD
* net 4 A2
* net 5 A3
* net 6 PWELL,VSS,gf180mcu_gnd
* net 7 Z
* device instance $1 r0 *1 0.925,3.965 pmos_5p0
M$1 3 2 1 3 pmos_5p0 L=0.5U W=1.46U AS=0.6424P AD=0.3796P PS=3.8U PD=1.98U
* device instance $2 r0 *1 1.945,3.965 pmos_5p0
M$2 1 4 3 3 pmos_5p0 L=0.5U W=1.46U AS=0.3796P AD=0.3796P PS=1.98U PD=1.98U
* device instance $3 r0 *1 2.965,3.965 pmos_5p0
M$3 1 5 3 3 pmos_5p0 L=0.5U W=1.46U AS=0.585P AD=0.3796P PS=2.53U PD=1.98U
* device instance $4 r0 *1 4.165,3.78 pmos_5p0
M$4 7 1 3 3 pmos_5p0 L=0.5U W=3.66U AS=1.0608P AD=1.281P PS=4.88U PD=6.89U
* device instance $6 r0 *1 0.975,1.005 nmos_5p0
M$6 9 2 1 6 nmos_5p0 L=0.6U W=1.32U AS=0.5808P AD=0.2112P PS=3.52U PD=1.64U
* device instance $7 r0 *1 1.895,1.005 nmos_5p0
M$7 8 4 9 6 nmos_5p0 L=0.6U W=1.32U AS=0.2112P AD=0.2772P PS=1.64U PD=1.74U
* device instance $8 r0 *1 2.915,1.005 nmos_5p0
M$8 6 5 8 6 nmos_5p0 L=0.6U W=1.32U AS=0.2772P AD=0.3432P PS=1.74U PD=1.84U
* device instance $9 r0 *1 4.035,1.005 nmos_5p0
M$9 7 1 6 6 nmos_5p0 L=0.6U W=2.64U AS=0.6864P AD=0.924P PS=3.68U PD=5.36U
.ENDS gf180mcu_fd_sc_mcu9t5v0__and3_2

* cell gf180mcu_fd_sc_mcu9t5v0__aoi21_2
* pin PWELL,VSS,gf180mcu_gnd
* pin B
* pin NWELL,VDD
* pin ZN
* pin A2
* pin A1
.SUBCKT gf180mcu_fd_sc_mcu9t5v0__aoi21_2 1 3 4 5 6 7
* net 1 PWELL,VSS,gf180mcu_gnd
* net 3 B
* net 4 NWELL,VDD
* net 5 ZN
* net 6 A2
* net 7 A1
* device instance $1 r0 *1 0.935,3.78 pmos_5p0
M$1 4 3 2 4 pmos_5p0 L=0.5U W=3.66U AS=1.3725P AD=1.0431P PS=6.99U PD=4.8U
* device instance $3 r0 *1 3.075,3.78 pmos_5p0
M$3 5 6 2 4 pmos_5p0 L=0.5U W=3.66U AS=0.9516P AD=1.3908P PS=4.7U PD=7.01U
* device instance $4 r0 *1 4.215,3.78 pmos_5p0
M$4 2 7 5 4 pmos_5p0 L=0.5U W=3.66U AS=1.0614P AD=0.9516P PS=4.82U PD=4.7U
* device instance $7 r0 *1 0.985,0.805 nmos_5p0
M$7 5 3 1 1 nmos_5p0 L=0.6U W=1.84U AS=0.644P AD=0.6412P PS=4.16U PD=3.46U
* device instance $9 r0 *1 3.405,1.005 nmos_5p0
M$9 9 6 1 1 nmos_5p0 L=0.6U W=1.32U AS=0.402P AD=0.1584P PS=2.02U PD=1.56U
* device instance $10 r0 *1 4.245,1.005 nmos_5p0
M$10 5 7 9 1 nmos_5p0 L=0.6U W=1.32U AS=0.1584P AD=0.3432P PS=1.56U PD=1.84U
* device instance $11 r0 *1 5.365,1.005 nmos_5p0
M$11 8 7 5 1 nmos_5p0 L=0.6U W=1.32U AS=0.3432P AD=0.1584P PS=1.84U PD=1.56U
* device instance $12 r0 *1 6.205,1.005 nmos_5p0
M$12 1 6 8 1 nmos_5p0 L=0.6U W=1.32U AS=0.1584P AD=0.5808P PS=1.56U PD=3.52U
.ENDS gf180mcu_fd_sc_mcu9t5v0__aoi21_2

* cell gf180mcu_fd_sc_mcu9t5v0__clkbuf_2
* pin I
* pin NWELL,VDD
* pin PWELL,VSS,gf180mcu_gnd
* pin Z
.SUBCKT gf180mcu_fd_sc_mcu9t5v0__clkbuf_2 1 2 3 5
* net 1 I
* net 2 NWELL,VDD
* net 3 PWELL,VSS,gf180mcu_gnd
* net 5 Z
* device instance $1 r0 *1 0.87,3.78 pmos_5p0
M$1 2 1 4 2 pmos_5p0 L=0.5U W=1.83U AS=0.8052P AD=0.732P PS=4.54U PD=2.63U
* device instance $2 r0 *1 2.17,3.78 pmos_5p0
M$2 5 4 2 2 pmos_5p0 L=0.5U W=3.66U AS=1.2993P AD=1.3725P PS=5.08U PD=6.99U
* device instance $4 r0 *1 0.92,1.23 nmos_5p0
M$4 3 1 4 3 nmos_5p0 L=0.6U W=0.73U AS=0.3212P AD=0.2695P PS=2.34U PD=1.5U
* device instance $5 r0 *1 2.22,1.265 nmos_5p0
M$5 5 4 3 3 nmos_5p0 L=0.6U W=1.6U AS=0.4775P AD=0.56P PS=2.82U PD=3.8U
.ENDS gf180mcu_fd_sc_mcu9t5v0__clkbuf_2

* cell gf180mcu_fd_sc_mcu9t5v0__aoi221_4
* pin PWELL,VSS,gf180mcu_gnd
* pin ZN
* pin B1
* pin A1
* pin B2
* pin C
* pin A2
* pin NWELL,VDD
.SUBCKT gf180mcu_fd_sc_mcu9t5v0__aoi221_4 1 2 3 4 13 14 15 16
* net 1 PWELL,VSS,gf180mcu_gnd
* net 2 ZN
* net 3 B1
* net 4 A1
* net 13 B2
* net 14 C
* net 15 A2
* net 16 NWELL,VDD
* device instance $1 r0 *1 9.8,3.78 pmos_5p0
M$1 17 14 18 16 pmos_5p0 L=0.5U W=7.32U AS=2.27835P AD=2.20515P PS=11.64U
+ PD=9.73U
* device instance $5 r0 *1 14.21,3.78 pmos_5p0
M$5 2 4 18 16 pmos_5p0 L=0.5U W=7.32U AS=2.1594P AD=2.2326P PS=9.68U PD=11.59U
* device instance $6 r0 *1 15.23,3.78 pmos_5p0
M$6 18 15 2 16 pmos_5p0 L=0.5U W=7.32U AS=1.9032P AD=1.9032P PS=9.4U PD=9.4U
* device instance $13 r0 *1 0.92,3.78 pmos_5p0
M$13 17 3 16 16 pmos_5p0 L=0.5U W=7.32U AS=2.2326P AD=2.2326P PS=11.59U
+ PD=11.59U
* device instance $14 r0 *1 1.94,3.78 pmos_5p0
M$14 16 13 17 16 pmos_5p0 L=0.5U W=7.32U AS=1.9032P AD=1.9032P PS=9.4U PD=9.4U
* device instance $21 r0 *1 9.6,0.74 nmos_5p0
M$21 1 14 2 1 nmos_5p0 L=0.6U W=3.16U AS=1.04675P AD=0.9717P PS=6.005U PD=5.815U
* device instance $25 r0 *1 0.92,0.937 nmos_5p0
M$25 5 3 2 1 nmos_5p0 L=0.6U W=1.185U AS=0.5214P AD=0.219225P PS=3.25U PD=1.555U
* device instance $26 r0 *1 1.89,0.937 nmos_5p0
M$26 1 13 5 1 nmos_5p0 L=0.6U W=1.185U AS=0.219225P AD=0.3081P PS=1.555U
+ PD=1.705U
* device instance $27 r0 *1 3.01,0.937 nmos_5p0
M$27 7 13 1 1 nmos_5p0 L=0.6U W=1.185U AS=0.3081P AD=0.1896P PS=1.705U PD=1.505U
* device instance $28 r0 *1 3.93,0.937 nmos_5p0
M$28 2 3 7 1 nmos_5p0 L=0.6U W=1.185U AS=0.1896P AD=0.3081P PS=1.505U PD=1.705U
* device instance $29 r0 *1 5.05,0.937 nmos_5p0
M$29 9 3 2 1 nmos_5p0 L=0.6U W=1.185U AS=0.3081P AD=0.1896P PS=1.705U PD=1.505U
* device instance $30 r0 *1 5.97,0.937 nmos_5p0
M$30 1 13 9 1 nmos_5p0 L=0.6U W=1.185U AS=0.1896P AD=0.3081P PS=1.505U PD=1.705U
* device instance $31 r0 *1 7.09,0.937 nmos_5p0
M$31 8 13 1 1 nmos_5p0 L=0.6U W=1.185U AS=0.3081P AD=0.24885P PS=1.705U
+ PD=1.605U
* device instance $32 r0 *1 8.11,0.937 nmos_5p0
M$32 2 3 8 1 nmos_5p0 L=0.6U W=1.185U AS=0.24885P AD=0.43055P PS=1.605U
+ PD=2.075U
* device instance $33 r0 *1 14.26,0.937 nmos_5p0
M$33 12 4 2 1 nmos_5p0 L=0.6U W=1.185U AS=0.3555P AD=0.1896P PS=1.885U PD=1.505U
* device instance $34 r0 *1 15.18,0.937 nmos_5p0
M$34 1 15 12 1 nmos_5p0 L=0.6U W=1.185U AS=0.1896P AD=0.3081P PS=1.505U
+ PD=1.705U
* device instance $35 r0 *1 16.3,0.937 nmos_5p0
M$35 11 15 1 1 nmos_5p0 L=0.6U W=1.185U AS=0.3081P AD=0.1896P PS=1.705U
+ PD=1.505U
* device instance $36 r0 *1 17.22,0.937 nmos_5p0
M$36 2 4 11 1 nmos_5p0 L=0.6U W=1.185U AS=0.1896P AD=0.3081P PS=1.505U PD=1.705U
* device instance $37 r0 *1 18.34,0.937 nmos_5p0
M$37 10 4 2 1 nmos_5p0 L=0.6U W=1.185U AS=0.3081P AD=0.1896P PS=1.705U PD=1.505U
* device instance $38 r0 *1 19.26,0.937 nmos_5p0
M$38 1 15 10 1 nmos_5p0 L=0.6U W=1.185U AS=0.1896P AD=0.3081P PS=1.505U
+ PD=1.705U
* device instance $39 r0 *1 20.38,0.937 nmos_5p0
M$39 6 15 1 1 nmos_5p0 L=0.6U W=1.185U AS=0.3081P AD=0.1896P PS=1.705U PD=1.505U
* device instance $40 r0 *1 21.3,0.937 nmos_5p0
M$40 2 4 6 1 nmos_5p0 L=0.6U W=1.185U AS=0.1896P AD=0.5214P PS=1.505U PD=3.25U
.ENDS gf180mcu_fd_sc_mcu9t5v0__aoi221_4

* cell gf180mcu_fd_sc_mcu9t5v0__dlyb_2
* pin I
* pin NWELL,VDD
* pin PWELL,VSS,gf180mcu_gnd
* pin Z
.SUBCKT gf180mcu_fd_sc_mcu9t5v0__dlyb_2 1 2 3 7
* net 1 I
* net 2 NWELL,VDD
* net 3 PWELL,VSS,gf180mcu_gnd
* net 7 Z
* device instance $1 r0 *1 4.34,3.365 pmos_5p0
M$1 6 4 10 2 pmos_5p0 L=0.5U W=0.36U AS=0.27P AD=0.1584P PS=1.98U PD=1.6U
* device instance $2 r0 *1 4.34,4.085 pmos_5p0
M$2 10 4 2 2 pmos_5p0 L=0.5U W=0.36U AS=0.528P AD=0.27P PS=3.13U PD=1.98U
* device instance $3 r0 *1 6.14,3.785 pmos_5p0
M$3 7 6 2 2 pmos_5p0 L=0.5U W=3.66U AS=1.14105P AD=1.41825P PS=5.63U PD=7.04U
* device instance $5 r0 *1 2.18,3.365 pmos_5p0
M$5 11 5 4 2 pmos_5p0 L=0.5U W=0.36U AS=0.1584P AD=0.27P PS=1.6U PD=1.98U
* device instance $6 r0 *1 0.87,4.085 pmos_5p0
M$6 2 1 5 2 pmos_5p0 L=0.5U W=0.36U AS=0.1584P AD=0.1458P PS=1.6U PD=1.17U
* device instance $7 r0 *1 2.18,4.085 pmos_5p0
M$7 2 5 11 2 pmos_5p0 L=0.5U W=0.36U AS=0.27P AD=0.1458P PS=1.98U PD=1.17U
* device instance $8 r0 *1 0.92,0.795 nmos_5p0
M$8 3 1 5 3 nmos_5p0 L=0.6U W=0.36U AS=0.1584P AD=0.1278P PS=1.6U PD=1.07U
* device instance $9 r0 *1 2.23,0.795 nmos_5p0
M$9 8 5 3 3 nmos_5p0 L=0.6U W=0.36U AS=0.1278P AD=0.27P PS=1.07U PD=1.98U
* device instance $10 r0 *1 2.23,1.515 nmos_5p0
M$10 4 5 8 3 nmos_5p0 L=0.6U W=0.36U AS=0.27P AD=0.1584P PS=1.98U PD=1.6U
* device instance $11 r0 *1 4.39,0.525 nmos_5p0
M$11 3 4 9 3 nmos_5p0 L=0.6U W=0.36U AS=0.27P AD=0.408P PS=1.98U PD=2.52U
* device instance $12 r0 *1 4.39,1.245 nmos_5p0
M$12 6 4 9 3 nmos_5p0 L=0.6U W=0.36U AS=0.27P AD=0.1584P PS=1.98U PD=1.6U
* device instance $13 r0 *1 6.19,1.005 nmos_5p0
M$13 7 6 3 3 nmos_5p0 L=0.6U W=2.64U AS=0.7512P AD=0.924P PS=4.36U PD=5.36U
.ENDS gf180mcu_fd_sc_mcu9t5v0__dlyb_2

* cell gf180mcu_fd_sc_mcu9t5v0__addh_1
* pin CO
* pin PWELL,VSS,gf180mcu_gnd
* pin NWELL,VDD
* pin A
* pin B
* pin S
.SUBCKT gf180mcu_fd_sc_mcu9t5v0__addh_1 1 2 3 4 5 9
* net 1 CO
* net 2 PWELL,VSS,gf180mcu_gnd
* net 3 NWELL,VDD
* net 4 A
* net 5 B
* net 9 S
* device instance $1 r0 *1 5.01,3.912 pmos_5p0
M$1 11 5 3 3 pmos_5p0 L=0.5U W=0.915U AS=0.4026P AD=0.2379P PS=2.71U PD=1.435U
* device instance $2 r0 *1 6.03,3.912 pmos_5p0
M$2 8 4 11 3 pmos_5p0 L=0.5U W=0.915U AS=0.2379P AD=0.3294P PS=1.435U PD=1.635U
* device instance $3 r0 *1 7.25,3.912 pmos_5p0
M$3 8 6 3 3 pmos_5p0 L=0.5U W=0.915U AS=0.50325P AD=0.3294P PS=2.53U PD=1.635U
* device instance $4 r0 *1 8.45,3.78 pmos_5p0
M$4 9 8 3 3 pmos_5p0 L=0.5U W=1.83U AS=0.50325P AD=0.8052P PS=2.53U PD=4.54U
* device instance $5 r0 *1 2.23,3.912 pmos_5p0
M$5 6 4 3 3 pmos_5p0 L=0.5U W=0.915U AS=0.5307P AD=0.2379P PS=2.59U PD=1.435U
* device instance $6 r0 *1 3.25,3.912 pmos_5p0
M$6 3 5 6 3 pmos_5p0 L=0.5U W=0.915U AS=0.2379P AD=0.4026P PS=1.435U PD=2.71U
* device instance $7 r0 *1 0.97,3.78 pmos_5p0
M$7 3 6 1 3 pmos_5p0 L=0.5U W=1.83U AS=0.8052P AD=0.5307P PS=4.54U PD=2.59U
* device instance $8 r0 *1 4.96,1.335 nmos_5p0
M$8 8 5 7 2 nmos_5p0 L=0.6U W=0.66U AS=0.2904P AD=0.1716P PS=2.2U PD=1.18U
* device instance $9 r0 *1 6.08,1.335 nmos_5p0
M$9 7 4 8 2 nmos_5p0 L=0.6U W=0.66U AS=0.1716P AD=0.1716P PS=1.18U PD=1.18U
* device instance $10 r0 *1 7.2,1.335 nmos_5p0
M$10 7 6 2 2 nmos_5p0 L=0.6U W=0.66U AS=0.363P AD=0.1716P PS=2.02U PD=1.18U
* device instance $11 r0 *1 8.5,1.005 nmos_5p0
M$11 9 8 2 2 nmos_5p0 L=0.6U W=1.32U AS=0.363P AD=0.5808P PS=2.02U PD=3.52U
* device instance $12 r0 *1 0.92,1.005 nmos_5p0
M$12 2 6 1 2 nmos_5p0 L=0.6U W=1.32U AS=0.5808P AD=0.3828P PS=3.52U PD=2.08U
* device instance $13 r0 *1 2.28,1.335 nmos_5p0
M$13 10 4 2 2 nmos_5p0 L=0.6U W=0.66U AS=0.3828P AD=0.0792P PS=2.08U PD=0.9U
* device instance $14 r0 *1 3.12,1.335 nmos_5p0
M$14 6 5 10 2 nmos_5p0 L=0.6U W=0.66U AS=0.0792P AD=0.2904P PS=0.9U PD=2.2U
.ENDS gf180mcu_fd_sc_mcu9t5v0__addh_1

* cell gf180mcu_fd_sc_mcu9t5v0__addh_2
* pin PWELL,VSS,gf180mcu_gnd
* pin CO
* pin S
* pin A
* pin B
* pin NWELL,VDD
.SUBCKT gf180mcu_fd_sc_mcu9t5v0__addh_2 1 2 6 7 8 10
* net 1 PWELL,VSS,gf180mcu_gnd
* net 2 CO
* net 6 S
* net 7 A
* net 8 B
* net 10 NWELL,VDD
* device instance $1 r0 *1 5.99,3.78 pmos_5p0
M$1 11 8 10 10 pmos_5p0 L=0.5U W=1.83U AS=0.8052P AD=0.52155P PS=4.54U PD=2.4U
* device instance $2 r0 *1 7.06,3.78 pmos_5p0
M$2 5 7 11 10 pmos_5p0 L=0.5U W=1.83U AS=0.52155P AD=0.52155P PS=2.4U PD=2.4U
* device instance $3 r0 *1 8.13,3.78 pmos_5p0
M$3 10 3 5 10 pmos_5p0 L=0.5U W=1.83U AS=0.52155P AD=0.8784P PS=2.4U PD=2.79U
* device instance $4 r0 *1 9.59,3.78 pmos_5p0
M$4 6 5 10 10 pmos_5p0 L=0.5U W=3.66U AS=1.39995P AD=1.32675P PS=5.19U PD=6.94U
* device instance $6 r0 *1 0.94,3.78 pmos_5p0
M$6 2 3 10 10 pmos_5p0 L=0.5U W=3.66U AS=1.3725P AD=1.08885P PS=6.99U PD=4.85U
* device instance $8 r0 *1 3.13,3.78 pmos_5p0
M$8 3 7 10 10 pmos_5p0 L=0.5U W=1.83U AS=0.52155P AD=0.4758P PS=2.4U PD=2.35U
* device instance $9 r0 *1 4.15,3.78 pmos_5p0
M$9 10 8 3 10 pmos_5p0 L=0.5U W=1.83U AS=0.4758P AD=0.8052P PS=2.35U PD=4.54U
* device instance $10 r0 *1 5.94,1.005 nmos_5p0
M$10 5 8 4 1 nmos_5p0 L=0.6U W=1.32U AS=0.5808P AD=0.3432P PS=3.52U PD=1.84U
* device instance $11 r0 *1 7.06,1.005 nmos_5p0
M$11 4 7 5 1 nmos_5p0 L=0.6U W=1.32U AS=0.3432P AD=0.3432P PS=1.84U PD=1.84U
* device instance $12 r0 *1 8.18,1.005 nmos_5p0
M$12 1 3 4 1 nmos_5p0 L=0.6U W=1.32U AS=0.3432P AD=0.5016P PS=1.84U PD=2.08U
* device instance $13 r0 *1 9.54,1.005 nmos_5p0
M$13 6 5 1 1 nmos_5p0 L=0.6U W=2.64U AS=0.8448P AD=0.924P PS=3.92U PD=5.36U
* device instance $15 r0 *1 0.94,1.005 nmos_5p0
M$15 2 3 1 1 nmos_5p0 L=0.6U W=2.64U AS=0.924P AD=0.6864P PS=5.36U PD=3.68U
* device instance $17 r0 *1 3.18,1.005 nmos_5p0
M$17 9 7 1 1 nmos_5p0 L=0.6U W=1.32U AS=0.3432P AD=0.2112P PS=1.84U PD=1.64U
* device instance $18 r0 *1 4.1,1.005 nmos_5p0
M$18 3 8 9 1 nmos_5p0 L=0.6U W=1.32U AS=0.2112P AD=0.5808P PS=1.64U PD=3.52U
.ENDS gf180mcu_fd_sc_mcu9t5v0__addh_2

* cell gf180mcu_fd_sc_mcu9t5v0__xor2_2
* pin A1
* pin PWELL,VSS,gf180mcu_gnd
* pin A2
* pin NWELL,VDD
* pin Z
.SUBCKT gf180mcu_fd_sc_mcu9t5v0__xor2_2 1 2 6 7 8
* net 1 A1
* net 2 PWELL,VSS,gf180mcu_gnd
* net 6 A2
* net 7 NWELL,VDD
* net 8 Z
* device instance $1 r0 *1 0.87,3.947 pmos_5p0
M$1 3 6 7 7 pmos_5p0 L=0.5U W=0.915U AS=0.4026P AD=0.2379P PS=2.71U PD=1.435U
* device instance $2 r0 *1 1.89,3.947 pmos_5p0
M$2 3 1 7 7 pmos_5p0 L=0.5U W=0.915U AS=0.526125P AD=0.2379P PS=2.58U PD=1.435U
* device instance $3 r0 *1 3.14,3.785 pmos_5p0
M$3 5 3 7 7 pmos_5p0 L=0.5U W=1.83U AS=0.526125P AD=0.61305P PS=2.58U PD=2.5U
* device instance $4 r0 *1 4.31,3.785 pmos_5p0
M$4 10 1 5 7 pmos_5p0 L=0.5U W=1.83U AS=0.61305P AD=0.4758P PS=2.5U PD=2.35U
* device instance $5 r0 *1 5.33,3.785 pmos_5p0
M$5 7 6 10 7 pmos_5p0 L=0.5U W=1.83U AS=0.4758P AD=0.8052P PS=2.35U PD=4.54U
* device instance $6 r0 *1 7.27,3.78 pmos_5p0
M$6 8 5 7 7 pmos_5p0 L=0.5U W=3.66U AS=1.281P AD=1.281P PS=6.89U PD=6.89U
* device instance $8 r0 *1 7.22,1.005 nmos_5p0
M$8 8 5 2 2 nmos_5p0 L=0.6U W=2.64U AS=0.924P AD=0.924P PS=5.36U PD=5.36U
* device instance $10 r0 *1 0.92,1.16 nmos_5p0
M$10 9 6 3 2 nmos_5p0 L=0.6U W=0.66U AS=0.2904P AD=0.1056P PS=2.2U PD=0.98U
* device instance $11 r0 *1 1.84,1.16 nmos_5p0
M$11 9 1 2 2 nmos_5p0 L=0.6U W=0.66U AS=0.363P AD=0.1056P PS=2.02U PD=0.98U
* device instance $12 r0 *1 3.14,1.005 nmos_5p0