
* cell parameterized_self_correcting_counter
* pin rst_n
* pin count[2]
* pin count[3]
* pin clk
* pin count[0]
* pin enable
* pin count[1]
.SUBCKT parameterized_self_correcting_counter 1 2 17 22 24 25 30
* net 1 rst_n
* net 2 count[2]
* net 17 count[3]
* net 22 clk
* net 24 count[0]
* net 25 enable
* net 30 count[1]
* cell instance $2 r0 *1 15.64,2.72
X$2 6 1 6 4 3 3 sky130_fd_sc_hd__dlygate4sd3_1
* cell instance $6 r0 *1 23,2.72
X$6 6 5 2 3 6 3 sky130_fd_sc_hd__clkbuf_1
* cell instance $34 m0 *1 14.26,8.16
X$34 3 7 4 6 6 3 sky130_fd_sc_hd__dlymetal6s2s_1
* cell instance $58 r0 *1 11.5,8.16
X$58 6 9 3 10 6 3 sky130_fd_sc_hd__clkbuf_4
* cell instance $59 m0 *1 11.96,13.6
X$59 3 7 11 10 12 6 6 3 sky130_fd_sc_hd__dfrtp_1
* cell instance $70 m0 *1 23.92,13.6
X$70 6 11 14 5 13 3 12 6 3 sky130_fd_sc_hd__a22o_1
* cell instance $72 m0 *1 27.14,13.6
X$72 6 5 8 15 6 3 3 sky130_fd_sc_hd__nand2_1
* cell instance $97 r0 *1 15.64,13.6
X$97 3 7 5 10 18 6 6 3 sky130_fd_sc_hd__dfrtp_1
* cell instance $98 r0 *1 24.84,13.6
X$98 6 20 15 13 5 18 3 6 3 sky130_fd_sc_hd__o22a_1
* cell instance $102 r0 *1 31.28,13.6
X$102 6 11 17 3 6 3 sky130_fd_sc_hd__clkbuf_1
* cell instance $113 m0 *1 10.58,19.04
X$113 3 7 16 28 19 6 6 3 sky130_fd_sc_hd__dfrtp_2
* cell instance $117 m0 *1 22.08,19.04
X$117 3 8 21 13 11 16 6 6 3 sky130_fd_sc_hd__and4b_1
* cell instance $118 m0 *1 25.76,19.04
X$118 6 11 21 16 3 6 20 3 sky130_fd_sc_hd__a21oi_1
* cell instance $137 r0 *1 16.1,19.04
X$137 6 22 3 9 6 3 sky130_fd_sc_hd__clkbuf_4
* cell instance $139 r0 *1 19.78,19.04
X$139 3 8 21 26 11 16 6 6 3 sky130_fd_sc_hd__and4bb_1
* cell instance $140 r0 *1 24.38,19.04
X$140 6 21 16 5 8 6 3 14 3 sky130_fd_sc_hd__o31ai_1
* cell instance $141 r0 *1 27.14,19.04
X$141 6 11 5 16 6 27 3 3 sky130_fd_sc_hd__o21a_1
* cell instance $146 r0 *1 36.8,19.04
X$146 6 21 24 3 6 3 sky130_fd_sc_hd__clkbuf_1
* cell instance $147 r0 *1 38.18,19.04
X$147 3 8 25 6 6 3 sky130_fd_sc_hd__dlymetal6s2s_1
* cell instance $158 m0 *1 10.58,24.48
X$158 6 16 30 3 6 3 sky130_fd_sc_hd__clkbuf_1
* cell instance $159 m0 *1 11.96,24.48
X$159 3 7 21 28 23 6 6 3 sky130_fd_sc_hd__dfrtp_2
* cell instance $160 m0 *1 21.62,24.48
X$160 6 16 29 26 3 6 19 3 sky130_fd_sc_hd__a21o_1
* cell instance $162 m0 *1 24.84,24.48
X$162 6 21 11 8 6 29 3 3 sky130_fd_sc_hd__o21ai_0
* cell instance $163 m0 *1 26.68,24.48
X$163 6 27 32 31 6 23 3 3 sky130_fd_sc_hd__o21ai_0
* cell instance $166 m0 *1 29.44,24.48
X$166 6 21 8 31 3 6 3 sky130_fd_sc_hd__nand2b_1
* cell instance $181 r0 *1 23,24.48
X$181 6 8 21 32 3 6 3 sky130_fd_sc_hd__nand2b_1
* cell instance $242 m0 *1 16.1,35.36
X$242 6 9 3 28 6 3 sky130_fd_sc_hd__clkbuf_4
* cell instance $243 m0 *1 18.86,35.36
X$243 6 28 33 3 6 3 sky130_fd_sc_hd__clkbuf_1
.ENDS parameterized_self_correcting_counter

* cell sky130_fd_sc_hd__a22o_1
* pin VPB
* pin B2
* pin B1
* pin A1
* pin A2
* pin VGND
* pin X
* pin VPWR
* pin 
.SUBCKT sky130_fd_sc_hd__a22o_1 1 2 3 4 5 6 9 10 11
* net 1 VPB
* net 2 B2
* net 3 B1
* net 4 A1
* net 5 A2
* net 6 VGND
* net 9 X
* net 10 VPWR
* device instance $1 r0 *1 1.82,1.985 pfet_01v8_hvt
M$1 7 4 10 1 pfet_01v8_hvt L=150000U W=1000000U AS=252900000000P
+ AD=160000000000P PS=2520000U PD=1320000U
* device instance $2 r0 *1 2.29,1.985 pfet_01v8_hvt
M$2 10 5 7 1 pfet_01v8_hvt L=150000U W=1000000U AS=160000000000P
+ AD=155000000000P PS=1320000U PD=1310000U
* device instance $3 r0 *1 2.75,1.985 pfet_01v8_hvt
M$3 9 8 10 1 pfet_01v8_hvt L=150000U W=1000000U AS=155000000000P
+ AD=260000000000P PS=1310000U PD=2520000U
* device instance $4 r0 *1 0.47,1.985 pfet_01v8_hvt
M$4 7 2 8 1 pfet_01v8_hvt L=150000U W=1000000U AS=260000000000P
+ AD=135000000000P PS=2520000U PD=1270000U
* device instance $5 r0 *1 0.89,1.985 pfet_01v8_hvt
M$5 8 3 7 1 pfet_01v8_hvt L=150000U W=1000000U AS=135000000000P
+ AD=252850000000P PS=1270000U PD=2520000U
* device instance $6 r0 *1 1.79,0.56 nfet_01v8
M$6 12 4 8 11 nfet_01v8 L=150000U W=650000U AS=169000000000P AD=113750000000P
+ PS=1820000U PD=1000000U
* device instance $7 r0 *1 2.29,0.56 nfet_01v8
M$7 6 5 12 11 nfet_01v8 L=150000U W=650000U AS=113750000000P AD=100750000000P
+ PS=1000000U PD=960000U
* device instance $8 r0 *1 2.75,0.56 nfet_01v8
M$8 9 8 6 11 nfet_01v8 L=150000U W=650000U AS=100750000000P AD=169000000000P
+ PS=960000U PD=1820000U
* device instance $9 r0 *1 0.47,0.56 nfet_01v8
M$9 13 2 6 11 nfet_01v8 L=150000U W=650000U AS=169000000000P AD=74750000000P
+ PS=1820000U PD=880000U
* device instance $10 r0 *1 0.85,0.56 nfet_01v8
M$10 8 3 13 11 nfet_01v8 L=150000U W=650000U AS=74750000000P AD=169000000000P
+ PS=880000U PD=1820000U
.ENDS sky130_fd_sc_hd__a22o_1

* cell sky130_fd_sc_hd__o31ai_1
* pin VPB
* pin A1
* pin A2
* pin A3
* pin B1
* pin VPWR
* pin VGND
* pin Y
* pin 
.SUBCKT sky130_fd_sc_hd__o31ai_1 1 2 3 4 5 6 7 9 10
* net 1 VPB
* net 2 A1
* net 3 A2
* net 4 A3
* net 5 B1
* net 6 VPWR
* net 7 VGND
* net 9 Y
* device instance $1 r0 *1 0.47,1.985 pfet_01v8_hvt
M$1 12 2 6 1 pfet_01v8_hvt L=150000U W=1000000U AS=260000000000P
+ AD=135000000000P PS=2520000U PD=1270000U
* device instance $2 r0 *1 0.89,1.985 pfet_01v8_hvt
M$2 11 3 12 1 pfet_01v8_hvt L=150000U W=1000000U AS=135000000000P
+ AD=135000000000P PS=1270000U PD=1270000U
* device instance $3 r0 *1 1.31,1.985 pfet_01v8_hvt
M$3 9 4 11 1 pfet_01v8_hvt L=150000U W=1000000U AS=135000000000P
+ AD=392500000000P PS=1270000U PD=1785000U
* device instance $4 r0 *1 2.245,1.985 pfet_01v8_hvt
M$4 6 5 9 1 pfet_01v8_hvt L=150000U W=1000000U AS=392500000000P
+ AD=300000000000P PS=1785000U PD=2600000U
* device instance $5 r0 *1 0.47,0.56 nfet_01v8
M$5 8 2 7 10 nfet_01v8 L=150000U W=650000U AS=169000000000P AD=87750000000P
+ PS=1820000U PD=920000U
* device instance $6 r0 *1 0.89,0.56 nfet_01v8
M$6 7 3 8 10 nfet_01v8 L=150000U W=650000U AS=87750000000P AD=87750000000P
+ PS=920000U PD=920000U
* device instance $7 r0 *1 1.31,0.56 nfet_01v8
M$7 8 4 7 10 nfet_01v8 L=150000U W=650000U AS=87750000000P AD=198250000000P
+ PS=920000U PD=1260000U
* device instance $8 r0 *1 2.07,0.56 nfet_01v8
M$8 9 5 8 10 nfet_01v8 L=150000U W=650000U AS=198250000000P AD=221000000000P
+ PS=1260000U PD=1980000U
.ENDS sky130_fd_sc_hd__o31ai_1

* cell sky130_fd_sc_hd__o22a_1
* pin VPB
* pin B1
* pin B2
* pin A2
* pin A1
* pin X
* pin VGND
* pin VPWR
* pin 
.SUBCKT sky130_fd_sc_hd__o22a_1 1 2 3 4 5 6 7 10 11
* net 1 VPB
* net 2 B1
* net 3 B2
* net 4 A2
* net 5 A1
* net 6 X
* net 7 VGND
* net 10 VPWR
* device instance $1 r0 *1 0.49,1.985 pfet_01v8_hvt
M$1 10 8 6 1 pfet_01v8_hvt L=150000U W=1000000U AS=280000000000P
+ AD=372500000000P PS=2560000U PD=1745000U
* device instance $2 r0 *1 1.385,1.985 pfet_01v8_hvt
M$2 13 2 10 1 pfet_01v8_hvt L=150000U W=1000000U AS=372500000000P
+ AD=117500000000P PS=1745000U PD=1235000U
* device instance $3 r0 *1 1.77,1.985 pfet_01v8_hvt
M$3 8 3 13 1 pfet_01v8_hvt L=150000U W=1000000U AS=117500000000P
+ AD=235000000000P PS=1235000U PD=1470000U
* device instance $4 r0 *1 2.39,1.985 pfet_01v8_hvt
M$4 12 4 8 1 pfet_01v8_hvt L=150000U W=1000000U AS=235000000000P
+ AD=105000000000P PS=1470000U PD=1210000U
* device instance $5 r0 *1 2.75,1.985 pfet_01v8_hvt
M$5 10 5 12 1 pfet_01v8_hvt L=150000U W=1000000U AS=105000000000P
+ AD=260000000000P PS=1210000U PD=2520000U
* device instance $6 r0 *1 1.41,0.56 nfet_01v8
M$6 8 2 9 11 nfet_01v8 L=150000U W=650000U AS=169000000000P AD=87750000000P
+ PS=1820000U PD=920000U
* device instance $7 r0 *1 1.83,0.56 nfet_01v8
M$7 9 3 8 11 nfet_01v8 L=150000U W=650000U AS=87750000000P AD=113750000000P
+ PS=920000U PD=1000000U
* device instance $8 r0 *1 2.33,0.56 nfet_01v8
M$8 7 4 9 11 nfet_01v8 L=150000U W=650000U AS=113750000000P AD=87750000000P
+ PS=1000000U PD=920000U
* device instance $9 r0 *1 2.75,0.56 nfet_01v8
M$9 9 5 7 11 nfet_01v8 L=150000U W=650000U AS=87750000000P AD=169000000000P
+ PS=920000U PD=1820000U
* device instance $10 r0 *1 0.47,0.56 nfet_01v8
M$10 7 8 6 11 nfet_01v8 L=150000U W=650000U AS=169000000000P AD=169000000000P
+ PS=1820000U PD=1820000U
.ENDS sky130_fd_sc_hd__o22a_1

* cell sky130_fd_sc_hd__nand2_1
* pin VPB
* pin A
* pin B
* pin Y
* pin VPWR
* pin VGND
* pin 
.SUBCKT sky130_fd_sc_hd__nand2_1 1 2 3 4 5 6 7
* net 1 VPB
* net 2 A
* net 3 B
* net 4 Y
* net 5 VPWR
* net 6 VGND
* device instance $1 r0 *1 0.49,1.985 pfet_01v8_hvt
M$1 4 3 5 1 pfet_01v8_hvt L=150000U W=1000000U AS=260000000000P
+ AD=135000000000P PS=2520000U PD=1270000U
* device instance $2 r0 *1 0.91,1.985 pfet_01v8_hvt
M$2 5 2 4 1 pfet_01v8_hvt L=150000U W=1000000U AS=135000000000P
+ AD=260000000000P PS=1270000U PD=2520000U
* device instance $3 r0 *1 0.49,0.56 nfet_01v8
M$3 8 3 6 7 nfet_01v8 L=150000U W=650000U AS=169000000000P AD=87750000000P
+ PS=1820000U PD=920000U
* device instance $4 r0 *1 0.91,0.56 nfet_01v8
M$4 4 2 8 7 nfet_01v8 L=150000U W=650000U AS=87750000000P AD=169000000000P
+ PS=920000U PD=1820000U
.ENDS sky130_fd_sc_hd__nand2_1

* cell sky130_fd_sc_hd__a21oi_1
* pin VPB
* pin B1
* pin A1
* pin A2
* pin VGND
* pin VPWR
* pin Y
* pin 
.SUBCKT sky130_fd_sc_hd__a21oi_1 1 2 3 4 5 7 8 9
* net 1 VPB
* net 2 B1
* net 3 A1
* net 4 A2
* net 5 VGND
* net 7 VPWR
* net 8 Y
* device instance $1 r0 *1 0.49,1.985 pfet_01v8_hvt
M$1 6 2 8 1 pfet_01v8_hvt L=150000U W=1000000U AS=265000000000P
+ AD=140000000000P PS=2530000U PD=1280000U
* device instance $2 r0 *1 0.92,1.985 pfet_01v8_hvt
M$2 7 3 6 1 pfet_01v8_hvt L=150000U W=1000000U AS=140000000000P
+ AD=147500000000P PS=1280000U PD=1295000U
* device instance $3 r0 *1 1.365,1.985 pfet_01v8_hvt
M$3 6 4 7 1 pfet_01v8_hvt L=150000U W=1000000U AS=147500000000P
+ AD=265000000000P PS=1295000U PD=2530000U
* device instance $4 r0 *1 0.49,0.56 nfet_01v8
M$4 8 2 5 9 nfet_01v8 L=150000U W=650000U AS=172250000000P AD=91000000000P
+ PS=1830000U PD=930000U
* device instance $5 r0 *1 0.92,0.56 nfet_01v8
M$5 10 3 8 9 nfet_01v8 L=150000U W=650000U AS=91000000000P AD=95875000000P
+ PS=930000U PD=945000U
* device instance $6 r0 *1 1.365,0.56 nfet_01v8
M$6 5 4 10 9 nfet_01v8 L=150000U W=650000U AS=95875000000P AD=172250000000P
+ PS=945000U PD=1830000U
.ENDS sky130_fd_sc_hd__a21oi_1

* cell sky130_fd_sc_hd__o21a_1
* pin VPB
* pin B1
* pin A2
* pin A1
* pin VPWR
* pin X
* pin VGND
* pin 
.SUBCKT sky130_fd_sc_hd__o21a_1 1 2 3 4 5 7 8 10
* net 1 VPB
* net 2 B1
* net 3 A2
* net 4 A1
* net 5 VPWR
* net 7 X
* net 8 VGND
* device instance $1 r0 *1 0.49,1.985 pfet_01v8_hvt
M$1 5 9 7 1 pfet_01v8_hvt L=150000U W=1000000U AS=280000000000P
+ AD=327500000000P PS=2560000U PD=1655000U
* device instance $2 r0 *1 1.295,1.985 pfet_01v8_hvt
M$2 9 2 5 1 pfet_01v8_hvt L=150000U W=1000000U AS=327500000000P
+ AD=195000000000P PS=1655000U PD=1390000U
* device instance $3 r0 *1 1.835,1.985 pfet_01v8_hvt
M$3 11 3 9 1 pfet_01v8_hvt L=150000U W=1000000U AS=195000000000P
+ AD=152500000000P PS=1390000U PD=1305000U
* device instance $4 r0 *1 2.29,1.985 pfet_01v8_hvt
M$4 5 4 11 1 pfet_01v8_hvt L=150000U W=1000000U AS=152500000000P
+ AD=260000000000P PS=1305000U PD=2520000U
* device instance $5 r0 *1 1.41,0.56 nfet_01v8
M$5 6 2 9 10 nfet_01v8 L=150000U W=650000U AS=169000000000P AD=100750000000P
+ PS=1820000U PD=960000U
* device instance $6 r0 *1 1.87,0.56 nfet_01v8
M$6 8 3 6 10 nfet_01v8 L=150000U W=650000U AS=100750000000P AD=87750000000P
+ PS=960000U PD=920000U
* device instance $7 r0 *1 2.29,0.56 nfet_01v8
M$7 6 4 8 10 nfet_01v8 L=150000U W=650000U AS=87750000000P AD=169000000000P
+ PS=920000U PD=1820000U
* device instance $8 r0 *1 0.47,0.56 nfet_01v8
M$8 8 9 7 10 nfet_01v8 L=150000U W=650000U AS=169000000000P AD=169000000000P
+ PS=1820000U PD=1820000U
.ENDS sky130_fd_sc_hd__o21a_1

* cell sky130_fd_sc_hd__dlygate4sd3_1
* pin VPB
* pin A
* pin VPWR
* pin X
* pin VGND
* pin 
.SUBCKT sky130_fd_sc_hd__dlygate4sd3_1 1 3 5 7 8 9
* net 1 VPB
* net 3 A
* net 5 VPWR
* net 7 X
* net 8 VGND
* device instance $1 r0 *1 2.465,2.275 pfet_01v8_hvt
M$1 6 2 5 1 pfet_01v8_hvt L=500000U W=420000U AS=140750000000P AD=109200000000P
+ PS=1325000U PD=1360000U
* device instance $2 r0 *1 3.115,1.985 pfet_01v8_hvt
M$2 7 6 5 1 pfet_01v8_hvt L=150000U W=1000000U AS=140750000000P
+ AD=260000000000P PS=1325000U PD=2520000U
* device instance $3 r0 *1 0.58,2.275 pfet_01v8_hvt
M$3 5 3 4 1 pfet_01v8_hvt L=150000U W=420000U AS=109200000000P AD=56700000000P
+ PS=1360000U PD=690000U
* device instance $4 r0 *1 1.175,2.275 pfet_01v8_hvt
M$4 2 4 5 1 pfet_01v8_hvt L=500000U W=420000U AS=56700000000P AD=109200000000P
+ PS=690000U PD=1360000U
* device instance $5 r0 *1 2.465,0.445 nfet_01v8
M$5 8 2 6 9 nfet_01v8 L=500000U W=420000U AS=109200000000P AD=97000000000P
+ PS=1360000U PD=975000U
* device instance $6 r0 *1 3.115,0.56 nfet_01v8
M$6 7 6 8 9 nfet_01v8 L=150000U W=650000U AS=97000000000P AD=169000000000P
+ PS=975000U PD=1820000U
* device instance $7 r0 *1 0.58,0.445 nfet_01v8
M$7 8 3 4 9 nfet_01v8 L=150000U W=420000U AS=109200000000P AD=56700000000P
+ PS=1360000U PD=690000U
* device instance $8 r0 *1 1.175,0.445 nfet_01v8
M$8 2 4 8 9 nfet_01v8 L=500000U W=420000U AS=56700000000P AD=109200000000P
+ PS=690000U PD=1360000U
.ENDS sky130_fd_sc_hd__dlygate4sd3_1

* cell sky130_fd_sc_hd__dlymetal6s2s_1
* pin VGND
* pin X
* pin A
* pin VPWR
* pin VPB
* pin 
.SUBCKT sky130_fd_sc_hd__dlymetal6s2s_1 1 3 8 9 10 11
* net 1 VGND
* net 3 X
* net 8 A
* net 9 VPWR
* net 10 VPB
* device instance $1 r0 *1 3.655,2.275 pfet_01v8_hvt
M$1 6 5 9 10 pfet_01v8_hvt L=150000U W=420000U AS=140750000000P
+ AD=109200000000P PS=1325000U PD=1360000U
* device instance $2 r0 *1 4.13,1.985 pfet_01v8_hvt
M$2 7 6 9 10 pfet_01v8_hvt L=150000U W=1000000U AS=140750000000P
+ AD=260000000000P PS=1325000U PD=2520000U
* device instance $3 r0 *1 2.24,2.275 pfet_01v8_hvt
M$3 4 3 9 10 pfet_01v8_hvt L=150000U W=420000U AS=140750000000P
+ AD=109200000000P PS=1325000U PD=1360000U
* device instance $4 r0 *1 2.715,1.985 pfet_01v8_hvt
M$4 5 4 9 10 pfet_01v8_hvt L=150000U W=1000000U AS=140750000000P
+ AD=260000000000P PS=1325000U PD=2520000U
* device instance $5 r0 *1 0.645,2.275 pfet_01v8_hvt
M$5 2 8 9 10 pfet_01v8_hvt L=150000U W=420000U AS=140750000000P
+ AD=109200000000P PS=1325000U PD=1360000U
* device instance $6 r0 *1 1.12,1.985 pfet_01v8_hvt
M$6 3 2 9 10 pfet_01v8_hvt L=150000U W=1000000U AS=140750000000P
+ AD=260000000000P PS=1325000U PD=2520000U
* device instance $7 r0 *1 3.655,0.445 nfet_01v8
M$7 1 5 6 11 nfet_01v8 L=150000U W=420000U AS=109200000000P AD=97000000000P
+ PS=1360000U PD=975000U
* device instance $8 r0 *1 4.13,0.56 nfet_01v8
M$8 7 6 1 11 nfet_01v8 L=150000U W=650000U AS=97000000000P AD=169000000000P
+ PS=975000U PD=1820000U
* device instance $9 r0 *1 0.645,0.445 nfet_01v8
M$9 1 8 2 11 nfet_01v8 L=150000U W=420000U AS=109200000000P AD=97000000000P
+ PS=1360000U PD=975000U
* device instance $10 r0 *1 1.12,0.56 nfet_01v8
M$10 3 2 1 11 nfet_01v8 L=150000U W=650000U AS=97000000000P AD=169000000000P
+ PS=975000U PD=1820000U
* device instance $11 r0 *1 2.24,0.445 nfet_01v8
M$11 1 3 4 11 nfet_01v8 L=150000U W=420000U AS=109200000000P AD=97000000000P
+ PS=1360000U PD=975000U
* device instance $12 r0 *1 2.715,0.56 nfet_01v8
M$12 5 4 1 11 nfet_01v8 L=150000U W=650000U AS=97000000000P AD=169000000000P
+ PS=975000U PD=1820000U
.ENDS sky130_fd_sc_hd__dlymetal6s2s_1

* cell sky130_fd_sc_hd__clkbuf_4
* pin VPB
* pin A
* pin VGND
* pin X
* pin VPWR
* pin 
.SUBCKT sky130_fd_sc_hd__clkbuf_4 1 3 4 5 6 7
* net 1 VPB
* net 3 A
* net 4 VGND
* net 5 X
* net 6 VPWR
* device instance $1 r0 *1 0.475,1.985 pfet_01v8_hvt
M$1 6 3 2 1 pfet_01v8_hvt L=150000U W=1000000U AS=265000000000P
+ AD=165000000000P PS=2530000U PD=1330000U
* device instance $2 r0 *1 0.955,1.985 pfet_01v8_hvt
M$2 5 2 6 1 pfet_01v8_hvt L=150000U W=4000000U AS=585000000000P
+ AD=720000000000P PS=5170000U PD=6440000U
* device instance $6 r0 *1 0.475,0.445 nfet_01v8
M$6 4 3 2 7 nfet_01v8 L=150000U W=420000U AS=111300000000P AD=70350000000P
+ PS=1370000U PD=755000U
* device instance $7 r0 *1 0.96,0.445 nfet_01v8
M$7 5 2 4 7 nfet_01v8 L=150000U W=1680000U AS=246750000000P AD=298200000000P
+ PS=2855000U PD=3520000U
.ENDS sky130_fd_sc_hd__clkbuf_4

* cell sky130_fd_sc_hd__dfrtp_1
* pin VGND
* pin RESET_B
* pin Q
* pin CLK
* pin D
* pin VPWR
* pin VPB
* pin 
.SUBCKT sky130_fd_sc_hd__dfrtp_1 1 6 9 14 15 17 18 21
* net 1 VGND
* net 6 RESET_B
* net 9 Q
* net 14 CLK
* net 15 D
* net 17 VPWR
* net 18 VPB
* device instance $1 r0 *1 8.73,1.985 pfet_01v8_hvt
M$1 9 8 17 18 pfet_01v8_hvt L=150000U W=1000000U AS=301200000000P
+ AD=260000000000P PS=2660000U PD=2520000U
* device instance $2 r0 *1 5.35,2.065 pfet_01v8_hvt
M$2 16 5 17 18 pfet_01v8_hvt L=150000U W=840000U AS=218400000000P
+ AD=129150000000P PS=2200000U PD=1185000U
* device instance $3 r0 *1 5.845,2.275 pfet_01v8_hvt
M$3 7 2 16 18 pfet_01v8_hvt L=150000U W=420000U AS=129150000000P
+ AD=58800000000P PS=1185000U PD=700000U
* device instance $4 r0 *1 6.275,2.275 pfet_01v8_hvt
M$4 20 3 7 18 pfet_01v8_hvt L=150000U W=420000U AS=58800000000P AD=56700000000P
+ PS=700000U PD=690000U
* device instance $5 r0 *1 6.695,2.275 pfet_01v8_hvt
M$5 17 8 20 18 pfet_01v8_hvt L=150000U W=420000U AS=56700000000P
+ AD=81900000000P PS=690000U PD=810000U
* device instance $6 r0 *1 7.235,2.275 pfet_01v8_hvt
M$6 8 6 17 18 pfet_01v8_hvt L=150000U W=420000U AS=81900000000P AD=56700000000P
+ PS=810000U PD=690000U
* device instance $7 r0 *1 7.655,2.275 pfet_01v8_hvt
M$7 17 7 8 18 pfet_01v8_hvt L=150000U W=420000U AS=56700000000P
+ AD=113400000000P PS=690000U PD=1380000U
* device instance $8 r0 *1 2.225,2.275 pfet_01v8_hvt
M$8 4 15 17 18 pfet_01v8_hvt L=150000U W=420000U AS=109200000000P
+ AD=65100000000P PS=1360000U PD=730000U
* device instance $9 r0 *1 2.685,2.275 pfet_01v8_hvt
M$9 5 3 4 18 pfet_01v8_hvt L=150000U W=420000U AS=65100000000P AD=72450000000P
+ PS=730000U PD=765000U
* device instance $10 r0 *1 3.18,2.275 pfet_01v8_hvt
M$10 19 2 5 18 pfet_01v8_hvt L=150000U W=420000U AS=72450000000P
+ AD=115500000000P PS=765000U PD=970000U
* device instance $11 r0 *1 3.88,2.275 pfet_01v8_hvt
M$11 17 16 19 18 pfet_01v8_hvt L=150000U W=420000U AS=115500000000P
+ AD=70350000000P PS=970000U PD=755000U
* device instance $12 r0 *1 4.365,2.275 pfet_01v8_hvt
M$12 19 6 17 18 pfet_01v8_hvt L=150000U W=420000U AS=70350000000P
+ AD=109200000000P PS=755000U PD=1360000U
* device instance $13 r0 *1 0.47,2.135 pfet_01v8_hvt
M$13 17 14 2 18 pfet_01v8_hvt L=150000U W=640000U AS=166400000000P
+ AD=86400000000P PS=1800000U PD=910000U
* device instance $14 r0 *1 0.89,2.135 pfet_01v8_hvt
M$14 3 2 17 18 pfet_01v8_hvt L=150000U W=640000U AS=86400000000P
+ AD=166400000000P PS=910000U PD=1800000U
* device instance $15 r0 *1 8.73,0.56 nfet_01v8
M$15 9 8 1 21 nfet_01v8 L=150000U W=650000U AS=208700000000P AD=169000000000P
+ PS=2020000U PD=1820000U
* device instance $16 r0 *1 0.47,0.445 nfet_01v8
M$16 1 14 2 21 nfet_01v8 L=150000U W=420000U AS=109200000000P AD=56700000000P
+ PS=1360000U PD=690000U
* device instance $17 r0 *1 0.89,0.445 nfet_01v8
M$17 3 2 1 21 nfet_01v8 L=150000U W=420000U AS=56700000000P AD=109200000000P
+ PS=690000U PD=1360000U
* device instance $18 r0 *1 2.64,0.415 nfet_01v8
M$18 5 2 4 21 nfet_01v8 L=150000U W=360000U AS=66000000000P AD=59400000000P
+ PS=745000U PD=690000U
* device instance $19 r0 *1 3.12,0.415 nfet_01v8
M$19 12 3 5 21 nfet_01v8 L=150000U W=360000U AS=59400000000P AD=140100000000P
+ PS=690000U PD=1100000U
* device instance $20 r0 *1 5.465,0.415 nfet_01v8
M$20 7 3 16 21 nfet_01v8 L=150000U W=360000U AS=99900000000P AD=71100000000P
+ PS=985000U PD=755000U
* device instance $21 r0 *1 6.01,0.415 nfet_01v8
M$21 11 2 7 21 nfet_01v8 L=150000U W=360000U AS=71100000000P AD=66900000000P
+ PS=755000U PD=750000U
* device instance $22 r0 *1 2.165,0.445 nfet_01v8
M$22 4 15 1 21 nfet_01v8 L=150000U W=420000U AS=220500000000P AD=66000000000P
+ PS=1890000U PD=745000U
* device instance $23 r0 *1 3.95,0.445 nfet_01v8
M$23 13 16 12 21 nfet_01v8 L=150000U W=420000U AS=140100000000P AD=44100000000P
+ PS=1100000U PD=630000U
* device instance $24 r0 *1 4.31,0.445 nfet_01v8
M$24 1 6 13 21 nfet_01v8 L=150000U W=420000U AS=44100000000P AD=134600000000P
+ PS=630000U PD=1150000U
* device instance $25 r0 *1 6.49,0.445 nfet_01v8
M$25 1 8 11 21 nfet_01v8 L=150000U W=420000U AS=66900000000P AD=124950000000P
+ PS=750000U PD=1015000U
* device instance $26 r0 *1 7.235,0.445 nfet_01v8
M$26 10 6 1 21 nfet_01v8 L=150000U W=420000U AS=124950000000P AD=64050000000P
+ PS=1015000U PD=725000U
* device instance $27 r0 *1 7.69,0.445 nfet_01v8
M$27 8 7 10 21 nfet_01v8 L=150000U W=420000U AS=64050000000P AD=109200000000P
+ PS=725000U PD=1360000U
* device instance $28 r0 *1 4.97,0.555 nfet_01v8
M$28 16 5 1 21 nfet_01v8 L=150000U W=640000U AS=134600000000P AD=99900000000P
+ PS=1150000U PD=985000U
.ENDS sky130_fd_sc_hd__dfrtp_1

* cell sky130_fd_sc_hd__dfrtp_2
* pin VGND
* pin RESET_B
* pin Q
* pin CLK
* pin D
* pin VPWR
* pin VPB
* pin 
.SUBCKT sky130_fd_sc_hd__dfrtp_2 1 6 9 14 15 17 18 21
* net 1 VGND
* net 6 RESET_B
* net 9 Q
* net 14 CLK
* net 15 D
* net 17 VPWR
* net 18 VPB
* device instance $1 r0 *1 8.73,1.985 pfet_01v8_hvt
M$1 9 8 17 18 pfet_01v8_hvt L=150000U W=2000000U AS=436200000000P
+ AD=395000000000P PS=3930000U PD=3790000U
* device instance $3 r0 *1 5.35,2.065 pfet_01v8_hvt
M$3 16 5 17 18 pfet_01v8_hvt L=150000U W=840000U AS=218400000000P
+ AD=129150000000P PS=2200000U PD=1185000U
* device instance $4 r0 *1 5.845,2.275 pfet_01v8_hvt
M$4 7 2 16 18 pfet_01v8_hvt L=150000U W=420000U AS=129150000000P
+ AD=58800000000P PS=1185000U PD=700000U
* device instance $5 r0 *1 6.275,2.275 pfet_01v8_hvt
M$5 20 3 7 18 pfet_01v8_hvt L=150000U W=420000U AS=58800000000P AD=56700000000P
+ PS=700000U PD=690000U
* device instance $6 r0 *1 6.695,2.275 pfet_01v8_hvt
M$6 17 8 20 18 pfet_01v8_hvt L=150000U W=420000U AS=56700000000P
+ AD=81900000000P PS=690000U PD=810000U
* device instance $7 r0 *1 7.235,2.275 pfet_01v8_hvt
M$7 8 6 17 18 pfet_01v8_hvt L=150000U W=420000U AS=81900000000P AD=56700000000P
+ PS=810000U PD=690000U
* device instance $8 r0 *1 7.655,2.275 pfet_01v8_hvt
M$8 17 7 8 18 pfet_01v8_hvt L=150000U W=420000U AS=56700000000P
+ AD=113400000000P PS=690000U PD=1380000U
* device instance $9 r0 *1 2.225,2.275 pfet_01v8_hvt
M$9 4 15 17 18 pfet_01v8_hvt L=150000U W=420000U AS=109200000000P
+ AD=65100000000P PS=1360000U PD=730000U
* device instance $10 r0 *1 2.685,2.275 pfet_01v8_hvt
M$10 5 3 4 18 pfet_01v8_hvt L=150000U W=420000U AS=65100000000P AD=72450000000P
+ PS=730000U PD=765000U
* device instance $11 r0 *1 3.18,2.275 pfet_01v8_hvt
M$11 19 2 5 18 pfet_01v8_hvt L=150000U W=420000U AS=72450000000P
+ AD=115500000000P PS=765000U PD=970000U
* device instance $12 r0 *1 3.88,2.275 pfet_01v8_hvt
M$12 17 16 19 18 pfet_01v8_hvt L=150000U W=420000U AS=115500000000P
+ AD=70350000000P PS=970000U PD=755000U
* device instance $13 r0 *1 4.365,2.275 pfet_01v8_hvt
M$13 19 6 17 18 pfet_01v8_hvt L=150000U W=420000U AS=70350000000P
+ AD=109200000000P PS=755000U PD=1360000U
* device instance $14 r0 *1 0.47,2.135 pfet_01v8_hvt
M$14 17 14 2 18 pfet_01v8_hvt L=150000U W=640000U AS=166400000000P
+ AD=86400000000P PS=1800000U PD=910000U
* device instance $15 r0 *1 0.89,2.135 pfet_01v8_hvt
M$15 3 2 17 18 pfet_01v8_hvt L=150000U W=640000U AS=86400000000P
+ AD=166400000000P PS=910000U PD=1800000U
* device instance $16 r0 *1 8.73,0.56 nfet_01v8
M$16 9 8 1 21 nfet_01v8 L=150000U W=1300000U AS=296450000000P AD=256750000000P
+ PS=2940000U PD=2740000U
* device instance $18 r0 *1 0.47,0.445 nfet_01v8
M$18 1 14 2 21 nfet_01v8 L=150000U W=420000U AS=109200000000P AD=56700000000P
+ PS=1360000U PD=690000U
* device instance $19 r0 *1 0.89,0.445 nfet_01v8
M$19 3 2 1 21 nfet_01v8 L=150000U W=420000U AS=56700000000P AD=109200000000P
+ PS=690000U PD=1360000U
* device instance $20 r0 *1 2.64,0.415 nfet_01v8
M$20 5 2 4 21 nfet_01v8 L=150000U W=360000U AS=66000000000P AD=59400000000P
+ PS=745000U PD=690000U
* device instance $21 r0 *1 3.12,0.415 nfet_01v8
M$21 11 3 5 21 nfet_01v8 L=150000U W=360000U AS=59400000000P AD=140100000000P
+ PS=690000U PD=1100000U
* device instance $22 r0 *1 5.465,0.415 nfet_01v8
M$22 7 3 16 21 nfet_01v8 L=150000U W=360000U AS=99900000000P AD=71100000000P
+ PS=985000U PD=755000U
* device instance $23 r0 *1 6.01,0.415 nfet_01v8
M$23 12 2 7 21 nfet_01v8 L=150000U W=360000U AS=71100000000P AD=66900000000P
+ PS=755000U PD=750000U
* device instance $24 r0 *1 2.165,0.445 nfet_01v8
M$24 4 15 1 21 nfet_01v8 L=150000U W=420000U AS=220500000000P AD=66000000000P
+ PS=1890000U PD=745000U
* device instance $25 r0 *1 3.95,0.445 nfet_01v8
M$25 13 16 11 21 nfet_01v8 L=150000U W=420000U AS=140100000000P AD=44100000000P
+ PS=1100000U PD=630000U
* device instance $26 r0 *1 4.31,0.445 nfet_01v8
M$26 1 6 13 21 nfet_01v8 L=150000U W=420000U AS=44100000000P AD=134600000000P
+ PS=630000U PD=1150000U
* device instance $27 r0 *1 6.49,0.445 nfet_01v8
M$27 1 8 12 21 nfet_01v8 L=150000U W=420000U AS=66900000000P AD=124950000000P
+ PS=750000U PD=1015000U
* device instance $28 r0 *1 7.235,0.445 nfet_01v8
M$28 10 6 1 21 nfet_01v8 L=150000U W=420000U AS=124950000000P AD=64050000000P
+ PS=1015000U PD=725000U
* device instance $29 r0 *1 7.69,0.445 nfet_01v8
M$29 8 7 10 21 nfet_01v8 L=150000U W=420000U AS=64050000000P AD=109200000000P
+ PS=725000U PD=1360000U
* device instance $30 r0 *1 4.97,0.555 nfet_01v8
M$30 16 5 1 21 nfet_01v8 L=150000U W=640000U AS=134600000000P AD=99900000000P
+ PS=1150000U PD=985000U
.ENDS sky130_fd_sc_hd__dfrtp_2

* cell sky130_fd_sc_hd__clkbuf_1
* pin VPB
* pin A
* pin X
* pin VGND
* pin VPWR
* pin 
.SUBCKT sky130_fd_sc_hd__clkbuf_1 1 3 4 5 6 7
* net 1 VPB
* net 3 A
* net 4 X
* net 5 VGND
* net 6 VPWR
* device instance $1 r0 *1 0.47,2.09 pfet_01v8_hvt
M$1 6 2 4 1 pfet_01v8_hvt L=150000U W=790000U AS=205400000000P AD=114550000000P
+ PS=2100000U PD=1080000U
* device instance $2 r0 *1 0.91,2.09 pfet_01v8_hvt
M$2 2 3 6 1 pfet_01v8_hvt L=150000U W=790000U AS=114550000000P AD=205400000000P
+ PS=1080000U PD=2100000U
* device instance $3 r0 *1 0.47,0.495 nfet_01v8
M$3 5 2 4 7 nfet_01v8 L=150000U W=520000U AS=135200000000P AD=75400000000P
+ PS=1560000U PD=810000U
* device instance $4 r0 *1 0.91,0.495 nfet_01v8
M$4 2 3 5 7 nfet_01v8 L=150000U W=520000U AS=75400000000P AD=135200000000P
+ PS=810000U PD=1560000U
.ENDS sky130_fd_sc_hd__clkbuf_1

* cell sky130_fd_sc_hd__and4b_1
* pin VGND
* pin B
* pin C
* pin X
* pin A_N
* pin D
* pin VPWR
* pin VPB
* pin 
.SUBCKT sky130_fd_sc_hd__and4b_1 1 4 5 6 7 8 12 13 14
* net 1 VGND
* net 4 B
* net 5 C
* net 6 X
* net 7 A_N
* net 8 D
* net 12 VPWR
* net 13 VPB
* device instance $1 r0 *1 0.47,2.275 pfet_01v8_hvt
M$1 12 7 2 13 pfet_01v8_hvt L=150000U W=420000U AS=109200000000P
+ AD=56700000000P PS=1360000U PD=690000U
* device instance $2 r0 *1 0.89,2.275 pfet_01v8_hvt
M$2 3 2 12 13 pfet_01v8_hvt L=150000U W=420000U AS=56700000000P AD=98700000000P
+ PS=690000U PD=890000U
* device instance $3 r0 *1 1.51,2.275 pfet_01v8_hvt
M$3 12 4 3 13 pfet_01v8_hvt L=150000U W=420000U AS=98700000000P
+ AD=128100000000P PS=890000U PD=1030000U
* device instance $4 r0 *1 2.27,2.275 pfet_01v8_hvt
M$4 3 5 12 13 pfet_01v8_hvt L=150000U W=420000U AS=128100000000P
+ AD=66150000000P PS=1030000U PD=735000U
* device instance $5 r0 *1 2.735,2.275 pfet_01v8_hvt
M$5 3 8 12 13 pfet_01v8_hvt L=150000U W=420000U AS=140750000000P
+ AD=66150000000P PS=1325000U PD=735000U
* device instance $6 r0 *1 3.21,1.985 pfet_01v8_hvt
M$6 6 3 12 13 pfet_01v8_hvt L=150000U W=1000000U AS=140750000000P
+ AD=260000000000P PS=1325000U PD=2520000U
* device instance $7 r0 *1 1.41,0.445 nfet_01v8
M$7 11 2 3 14 nfet_01v8 L=150000U W=420000U AS=109200000000P AD=44100000000P
+ PS=1360000U PD=630000U
* device instance $8 r0 *1 1.77,0.445 nfet_01v8
M$8 10 4 11 14 nfet_01v8 L=150000U W=420000U AS=44100000000P AD=73500000000P
+ PS=630000U PD=770000U
* device instance $9 r0 *1 2.27,0.445 nfet_01v8
M$9 9 5 10 14 nfet_01v8 L=150000U W=420000U AS=73500000000P AD=60900000000P
+ PS=770000U PD=710000U
* device instance $10 r0 *1 2.71,0.445 nfet_01v8
M$10 1 8 9 14 nfet_01v8 L=150000U W=420000U AS=60900000000P AD=103400000000P
+ PS=710000U PD=1000000U
* device instance $11 r0 *1 3.21,0.56 nfet_01v8
M$11 6 3 1 14 nfet_01v8 L=150000U W=650000U AS=103400000000P AD=169000000000P
+ PS=1000000U PD=1820000U
* device instance $12 r0 *1 0.47,0.445 nfet_01v8
M$12 1 7 2 14 nfet_01v8 L=150000U W=420000U AS=109200000000P AD=109200000000P
+ PS=1360000U PD=1360000U
.ENDS sky130_fd_sc_hd__and4b_1

* cell sky130_fd_sc_hd__a21o_1
* pin VPB
* pin A1
* pin A2
* pin B1
* pin VGND
* pin VPWR
* pin X
* pin 
.SUBCKT sky130_fd_sc_hd__a21o_1 1 2 3 4 5 7 9 10
* net 1 VPB
* net 2 A1
* net 3 A2
* net 4 B1
* net 5 VGND
* net 7 VPWR
* net 9 X
* device instance $1 r0 *1 1.42,1.985 pfet_01v8_hvt
M$1 6 4 8 1 pfet_01v8_hvt L=150000U W=1000000U AS=260000000000P
+ AD=137500000000P PS=2520000U PD=1275000U
* device instance $2 r0 *1 1.845,1.985 pfet_01v8_hvt
M$2 7 2 6 1 pfet_01v8_hvt L=150000U W=1000000U AS=137500000000P
+ AD=140000000000P PS=1275000U PD=1280000U
* device instance $3 r0 *1 2.275,1.985 pfet_01v8_hvt
M$3 6 3 7 1 pfet_01v8_hvt L=150000U W=1000000U AS=140000000000P
+ AD=265000000000P PS=1280000U PD=2530000U
* device instance $4 r0 *1 0.48,1.985 pfet_01v8_hvt
M$4 7 8 9 1 pfet_01v8_hvt L=150000U W=1000000U AS=260000000000P
+ AD=260000000000P PS=2520000U PD=2520000U
* device instance $5 r0 *1 0.48,0.56 nfet_01v8
M$5 5 8 9 10 nfet_01v8 L=150000U W=650000U AS=169000000000P AD=256750000000P
+ PS=1820000U PD=1440000U
* device instance $6 r0 *1 1.42,0.56 nfet_01v8
M$6 8 4 5 10 nfet_01v8 L=150000U W=650000U AS=256750000000P AD=89375000000P
+ PS=1440000U PD=925000U
* device instance $7 r0 *1 1.845,0.56 nfet_01v8
M$7 11 2 8 10 nfet_01v8 L=150000U W=650000U AS=89375000000P AD=91000000000P
+ PS=925000U PD=930000U
* device instance $8 r0 *1 2.275,0.56 nfet_01v8
M$8 5 3 11 10 nfet_01v8 L=150000U W=650000U AS=91000000000P AD=172250000000P
+ PS=930000U PD=1830000U
.ENDS sky130_fd_sc_hd__a21o_1

* cell sky130_fd_sc_hd__and4bb_1
* pin VGND
* pin C
* pin D
* pin X
* pin B_N
* pin A_N
* pin VPWR
* pin VPB
* pin 
.SUBCKT sky130_fd_sc_hd__and4bb_1 1 4 5 6 7 12 13 14 15
* net 1 VGND
* net 4 C
* net 5 D
* net 6 X
* net 7 B_N
* net 12 A_N
* net 13 VPWR
* net 14 VPB