
* cell i2c_master_top
* pin wb_dat_o[2]
* pin wb_dat_o[3]
* pin wb_dat_o[0]
* pin wb_dat_o[7]
* pin wb_dat_o[4]
* pin wb_we_i
* pin wb_dat_o[5]
* pin wb_dat_o[6]
* pin wb_cyc_i
* pin wb_stb_i
* pin wb_ack_o
* pin wb_inta_o
* pin PWELL
* pin scl_pad_o
* pin sda_pad_o
* pin NWELL
* pin arst_i
* pin wb_dat_i[1]
* pin wb_adr_i[1]
* pin wb_dat_o[1]
* pin wb_adr_i[2]
* pin wb_dat_i[7]
* pin wb_dat_i[0]
* pin wb_dat_i[5]
* pin wb_clk_i
* pin wb_dat_i[3]
* pin wb_dat_i[2]
* pin wb_adr_i[0]
* pin wb_rst_i
* pin wb_dat_i[6]
* pin wb_dat_i[4]
* pin sda_padoen_o
* pin scl_padoen_o
* pin scl_pad_i
* pin sda_pad_i
.SUBCKT i2c_master_top 1 2 3 4 5 6 7 8 9 10 11 12 17 23 24 28 41 345 363 364
+ 392 408 409 452 469 472 483 484 493 504 505 568 870 872 873
* net 1 wb_dat_o[2]
* net 2 wb_dat_o[3]
* net 3 wb_dat_o[0]
* net 4 wb_dat_o[7]
* net 5 wb_dat_o[4]
* net 6 wb_we_i
* net 7 wb_dat_o[5]
* net 8 wb_dat_o[6]
* net 9 wb_cyc_i
* net 10 wb_stb_i
* net 11 wb_ack_o
* net 12 wb_inta_o
* net 17 PWELL
* net 23 scl_pad_o
* net 24 sda_pad_o
* net 28 NWELL
* net 41 arst_i
* net 345 wb_dat_i[1]
* net 363 wb_adr_i[1]
* net 364 wb_dat_o[1]
* net 392 wb_adr_i[2]
* net 408 wb_dat_i[7]
* net 409 wb_dat_i[0]
* net 452 wb_dat_i[5]
* net 469 wb_clk_i
* net 472 wb_dat_i[3]
* net 483 wb_dat_i[2]
* net 484 wb_adr_i[0]
* net 493 wb_rst_i
* net 504 wb_dat_i[6]
* net 505 wb_dat_i[4]
* net 568 sda_padoen_o
* net 870 scl_padoen_o
* net 872 scl_pad_i
* net 873 sda_pad_i
* cell instance $4 r0 *1 12.92,1.4
X$4 27 17 28 1 BUF_X1
* cell instance $9 r0 *1 13.49,1.4
X$9 13 17 28 2 BUF_X1
* cell instance $15 r0 *1 18.81,1.4
X$15 32 17 28 3 BUF_X1
* cell instance $21 r0 *1 23.56,1.4
X$21 34 17 28 4 BUF_X1
* cell instance $27 m0 *1 24.7,4.2
X$27 36 17 28 5 BUF_X1
* cell instance $32 r0 *1 28.69,1.4
X$32 6 17 28 38 BUF_X1
* cell instance $39 r0 *1 27.36,1.4
X$39 37 17 28 7 BUF_X1
* cell instance $45 m0 *1 26.98,4.2
X$45 42 17 28 8 BUF_X1
* cell instance $54 r0 *1 29.26,1.4
X$54 9 17 28 20 BUF_X1
* cell instance $56 r0 *1 29.83,1.4
X$56 10 17 28 15 BUF_X1
* cell instance $63 r0 *1 31.92,1.4
X$63 16 17 28 11 BUF_X1
* cell instance $69 r0 *1 31.35,1.4
X$69 22 17 28 12 BUF_X1
* cell instance $74 m0 *1 10.26,4.2
X$74 17 13 26 19 28 DFF_X1
* cell instance $85 m0 *1 18.24,9.8
X$85 151 17 28 14 CLKBUF_X3
* cell instance $87 r0 *1 20.33,1.4
X$87 17 34 33 14 28 DFF_X1
* cell instance $89 m0 *1 21.47,4.2
X$89 17 36 62 14 28 DFF_X1
* cell instance $91 r0 *1 19.76,4.2
X$91 17 14 965 44 43 40 28 DFFR_X1
* cell instance $94 r0 *1 15.58,1.4
X$94 17 32 30 14 28 DFF_X1
* cell instance $96 m0 *1 13.49,4.2
X$96 17 14 920 50 82 40 28 DFFR_X1
* cell instance $98 r0 *1 15.96,4.2
X$98 17 14 972 69 86 40 28 DFFR_X1
* cell instance $101 m0 *1 19.95,9.8
X$101 14 17 28 899 INV_X2
* cell instance $104 r0 *1 20.52,9.8
X$104 17 14 953 160 176 40 28 DFFR_X1
* cell instance $106 r0 *1 30.4,1.4
X$106 20 15 17 28 18 NAND2_X1
* cell instance $109 m0 *1 29.07,4.2
X$109 20 15 38 17 21 28 NAND3_X4
* cell instance $113 r0 *1 32.49,1.4
X$113 18 16 17 28 31 NOR2_X1
* cell instance $116 r0 *1 33.44,1.4
X$116 17 16 31 39 28 DFF_X1
* cell instance $118 m0 *1 8.55,23.8
X$118 427 17 28 380 BUF_X2
* cell instance $119 m0 *1 4.75,23.8
X$119 17 431 914 427 357 40 28 DFFR_X1
* cell instance $120 m0 *1 9.31,23.8
X$120 410 412 17 28 428 OR2_X1
* cell instance $121 m0 *1 10.07,23.8
X$121 17 882 411 428 431 40 28 DFFS_X1
* cell instance $122 m0 *1 13.87,23.8
X$122 317 385 441 440 28 17 451 OAI22_X1
* cell instance $123 m0 *1 14.82,23.8
X$123 349 233 17 28 440 NAND2_X2
* cell instance $124 m0 *1 15.77,23.8
X$124 396 330 17 28 413 NAND2_X1
* cell instance $125 m0 *1 16.34,23.8
X$125 433 17 28 330 INV_X4
* cell instance $127 m0 *1 17.48,23.8
X$127 330 303 195 17 28 NOR2_X4
* cell instance $128 m0 *1 19.19,23.8
X$128 184 397 17 28 436 NAND2_X1
* cell instance $130 m0 *1 19.95,23.8
X$130 471 303 44 17 28 369 MUX2_X1
* cell instance $132 m0 *1 21.47,23.8
X$132 415 414 436 17 450 28 AOI21_X1
* cell instance $133 m0 *1 22.23,23.8
X$133 17 416 943 178 450 40 28 DFFR_X1
* cell instance $134 m0 *1 26.03,23.8
X$134 17 456 928 360 418 40 28 DFFR_X1
* cell instance $147 r0 *1 3.04,23.8
X$147 415 463 17 28 473 OR2_X1
* cell instance $148 r0 *1 3.8,23.8
X$148 472 17 28 193 CLKBUF_X2
* cell instance $151 r0 *1 5.13,23.8
X$151 378 395 317 17 28 463 MUX2_X1
* cell instance $152 r0 *1 6.46,23.8
X$152 452 17 28 281 CLKBUF_X2
* cell instance $155 r0 *1 8.36,23.8
X$155 415 465 17 28 464 OR2_X1
* cell instance $156 r0 *1 9.12,23.8
X$156 342 395 228 17 28 465 MUX2_X1
* cell instance $160 r0 *1 11.78,23.8
X$160 451 17 28 466 INV_X1
* cell instance $161 r0 *1 12.16,23.8
X$161 17 889 441 466 431 40 28 DFFS_X1
* cell instance $162 r0 *1 15.96,23.8
X$162 468 17 28 481 INV_X1
* cell instance $163 r0 *1 16.34,23.8
X$163 228 385 388 440 28 17 468 OAI22_X1
* cell instance $164 r0 *1 17.29,23.8
X$164 198 385 453 440 28 17 503 OAI22_X1
* cell instance $166 r0 *1 18.62,23.8
X$166 397 385 371 440 28 17 454 OAI22_X1
* cell instance $167 r0 *1 19.57,23.8
X$167 454 17 28 470 INV_X1
* cell instance $169 r0 *1 20.33,23.8
X$169 17 887 371 470 416 40 28 DFFS_X1
* cell instance $171 r0 *1 24.89,23.8
X$171 469 17 28 151 CLKBUF_X3
* cell instance $174 r0 *1 26.79,23.8
X$174 410 17 28 66 CLKBUF_X3
* cell instance $175 r0 *1 27.74,23.8
X$175 442 467 66 17 28 457 NOR3_X1
* cell instance $176 r0 *1 28.5,23.8
X$176 507 327 17 28 442 NOR2_X1
* cell instance $179 m0 *1 36.29,23.8
X$179 17 446 925 419 221 40 28 DFFR_X1
* cell instance $180 m0 *1 32.49,23.8
X$180 17 446 924 443 438 40 28 DFFR_X1
* cell instance $183 r0 *1 33.82,23.8
X$183 256 114 234 17 28 NOR2_X4
* cell instance $185 r0 *1 35.72,23.8
X$185 443 17 28 444 INV_X1
* cell instance $188 r0 *1 39.33,23.8
X$188 17 446 968 476 449 40 28 DFFR_X1
* cell instance $190 m0 *1 40.47,23.8
X$190 264 379 497 28 449 17 OAI21_X1
* cell instance $191 m0 *1 41.8,23.8
X$191 421 445 17 28 420 NAND2_X1
* cell instance $194 m0 *1 42.94,23.8
X$194 421 461 17 28 422 NAND2_X1
* cell instance $198 m0 *1 45.22,23.8
X$198 423 17 28 445 BUF_X2
* cell instance $201 m0 *1 46.93,23.8
X$201 424 447 17 28 425 NAND2_X1
* cell instance $202 m0 *1 47.5,23.8
X$202 421 448 17 28 447 NAND2_X1
* cell instance $204 m0 *1 48.26,23.8
X$204 477 459 17 28 462 NAND2_X1
* cell instance $206 m0 *1 49.02,23.8
X$206 426 17 28 461 BUF_X2
* cell instance $212 r0 *1 47.12,23.8
X$212 17 446 960 460 462 40 28 DFFR_X1
* cell instance $215 m0 *1 6.27,40.6
X$215 693 17 28 790 INV_X1
* cell instance $216 m0 *1 5.51,40.6
X$216 720 17 28 693 CLKBUF_X2
* cell instance $217 m0 *1 6.65,40.6
X$217 795 709 17 28 780 OR2_X1
* cell instance $218 m0 *1 7.41,40.6
X$218 795 17 28 779 INV_X1
* cell instance $219 m0 *1 7.79,40.6
X$219 779 794 108 771 28 17 813 OAI22_X1
* cell instance $220 m0 *1 8.74,40.6
X$220 742 753 695 17 794 28 AOI21_X1
* cell instance $221 m0 *1 9.5,40.6
X$221 752 779 713 17 28 781 NAND3_X1
* cell instance $222 m0 *1 10.26,40.6
X$222 752 779 713 793 17 700 28 NAND4_X2
* cell instance $223 m0 *1 11.97,40.6
X$223 586 781 796 754 17 28 782 NOR4_X1
* cell instance $224 m0 *1 12.92,40.6
X$224 754 17 28 783 INV_X1
* cell instance $226 m0 *1 13.49,40.6
X$226 797 793 17 28 674 NAND2_X2
* cell instance $227 m0 *1 14.44,40.6
X$227 742 747 799 17 798 28 AOI21_X1
* cell instance $239 r0 *1 5.13,40.6
X$239 17 582 955 795 813 40 28 DFFR_X1
* cell instance $240 r0 *1 8.93,40.6
X$240 709 795 17 28 797 NOR2_X1
* cell instance $241 r0 *1 9.5,40.6
X$241 742 695 780 17 814 28 AOI21_X1
* cell instance $242 r0 *1 10.26,40.6
X$242 754 781 17 28 820 OR2_X1
* cell instance $243 r0 *1 11.02,40.6
X$243 783 814 108 724 28 17 821 OAI22_X1
* cell instance $244 r0 *1 11.97,40.6
X$244 796 17 28 822 INV_X1
* cell instance $245 r0 *1 12.35,40.6
X$245 797 822 783 17 28 799 NAND3_X1
* cell instance $246 r0 *1 13.11,40.6
X$246 796 835 754 28 793 17 NOR3_X2
* cell instance $247 r0 *1 14.44,40.6
X$247 856 798 108 725 28 17 836 OAI22_X1
* cell instance $249 r0 *1 15.58,40.6
X$249 638 695 800 17 802 28 AOI21_X1
* cell instance $251 m0 *1 15.58,40.6
X$251 94 755 815 28 857 17 OAI21_X1
* cell instance $252 m0 *1 16.53,40.6
X$252 774 638 756 28 815 17 OAI21_X1
* cell instance $254 m0 *1 17.48,40.6
X$254 674 726 17 28 757 NOR2_X2
* cell instance $255 m0 *1 18.43,40.6
X$255 586 689 826 756 17 28 838 NOR4_X1
* cell instance $256 m0 *1 19.38,40.6
X$256 726 700 17 28 801 NOR2_X1
* cell instance $258 m0 *1 20.14,40.6
X$258 670 689 816 17 28 817 NOR3_X1
* cell instance $259 m0 *1 20.9,40.6
X$259 758 804 761 17 28 634 NAND3_X2
* cell instance $260 m0 *1 22.23,40.6
X$260 757 758 804 17 28 792 NAND3_X1
* cell instance $261 m0 *1 22.99,40.6
X$261 742 695 792 17 762 28 AOI21_X1
* cell instance $262 m0 *1 23.75,40.6
X$262 819 17 28 761 INV_X1
* cell instance $263 m0 *1 24.13,40.6
X$263 17 649 939 819 778 40 28 DFFR_X1
* cell instance $267 r0 *1 16.72,40.6
X$267 757 823 824 17 28 800 NAND3_X1
* cell instance $269 r0 *1 17.67,40.6
X$269 801 824 17 28 825 NAND2_X1
* cell instance $270 r0 *1 18.24,40.6
X$270 756 17 28 824 INV_X1
* cell instance $271 r0 *1 18.62,40.6
X$271 574 838 233 28 860 17 OAI21_X1
* cell instance $272 r0 *1 19.38,40.6
X$272 801 758 17 28 803 NAND2_X1
* cell instance $273 r0 *1 19.95,40.6
X$273 638 695 803 17 818 28 AOI21_X1
* cell instance $274 r0 *1 20.71,40.6
X$274 862 802 108 759 28 17 827 OAI22_X1
* cell instance $275 r0 *1 21.66,40.6
X$275 804 818 760 28 828 17 OAI21_X1
* cell instance $276 r0 *1 22.42,40.6
X$276 758 804 17 28 816 NAND2_X1
* cell instance $278 r0 *1 23.18,40.6
X$278 839 17 28 804 INV_X1
* cell instance $279 r0 *1 23.56,40.6
X$279 415 805 17 28 677 OR2_X1
* cell instance $280 r0 *1 24.32,40.6
X$280 415 871 17 28 840 OR2_X1
* cell instance $282 r0 *1 25.46,40.6
X$282 17 890 621 840 649 40 28 DFFS_X1
* cell instance $285 m0 *1 31.35,40.6
X$285 17 885 749 729 649 40 28 DFFS_X1
* cell instance $288 r0 *1 33.82,40.6
X$288 17 596 989 829 842 40 28 DFFR_X1
* cell instance $289 m0 *1 36.48,40.6
X$289 791 764 28 17 806 XNOR2_X1
* cell instance $292 m0 *1 37.81,40.6
X$292 806 651 17 28 622 NOR2_X1
* cell instance $293 m0 *1 38.38,40.6
X$293 764 17 28 785 INV_X1
* cell instance $294 m0 *1 38.76,40.6
X$294 784 785 791 17 28 807 NAND3_X1
* cell instance $296 m0 *1 39.71,40.6
X$296 651 806 808 772 28 17 746 OAI22_X1
* cell instance $297 m0 *1 40.66,40.6
X$297 809 787 17 28 663 NAND2_X1
* cell instance $299 m0 *1 41.42,40.6
X$299 786 769 17 28 809 NOR2_X1
* cell instance $300 m0 *1 41.99,40.6
X$300 809 810 496 17 28 603 NAND3_X1
* cell instance $301 m0 *1 42.75,40.6
X$301 632 17 28 743 INV_X1
* cell instance $302 m0 *1 43.13,40.6
X$302 17 496 787 769 786 655 28 NOR4_X4
* cell instance $304 r0 *1 37.62,40.6
X$304 732 844 17 28 842 NAND2_X1
* cell instance $305 r0 *1 38.19,40.6
X$305 488 791 17 28 846 NAND2_X1
* cell instance $306 r0 *1 38.76,40.6
X$306 791 17 28 830 INV_X1
* cell instance $307 r0 *1 39.14,40.6
X$307 785 830 17 28 688 NOR2_X1
* cell instance $308 r0 *1 39.71,40.6
X$308 784 17 28 492 CLKBUF_X3
* cell instance $309 r0 *1 40.66,40.6
X$309 787 811 841 28 808 17 OAI21_X1
* cell instance $310 r0 *1 41.42,40.6
X$310 837 841 787 811 549 17 28 OAI211_X2
* cell instance $311 r0 *1 43.13,40.6
X$311 496 17 28 837 INV_X1
* cell instance $313 r0 *1 43.7,40.6
X$313 786 769 28 811 17 XOR2_X2
* cell instance $314 r0 *1 45.41,40.6
X$314 772 812 833 28 869 17 OAI21_X1
* cell instance $315 r0 *1 46.17,40.6
X$315 421 524 17 28 833 NAND2_X1
* cell instance $317 r0 *1 46.93,40.6
X$317 834 17 28 524 CLKBUF_X3
* cell instance $318 m0 *1 47.12,40.6
X$318 421 627 17 28 788 NAND2_X1
* cell instance $321 m0 *1 47.88,40.6
X$321 627 17 28 789 INV_X1
* cell instance $322 m0 *1 48.26,40.6
X$322 767 17 28 678 BUF_X2
* cell instance $341 r0 *1 3.8,7
X$341 17 19 954 97 95 40 28 DFFR_X1
* cell instance $343 m0 *1 7.03,7
X$343 17 19 941 64 98 40 28 DFFR_X1
* cell instance $344 m0 *1 12.35,7
X$344 50 46 48 17 28 65 MUX2_X1
* cell instance $345 m0 *1 13.68,7
X$345 48 46 49 17 28 84 MUX2_X1
* cell instance $346 m0 *1 15.01,7
X$346 84 67 17 28 83 NOR2_X1
* cell instance $347 m0 *1 15.58,7
X$347 85 67 17 28 68 NOR2_X1
* cell instance $348 m0 *1 16.15,7
X$348 69 46 50 17 28 88 MUX2_X1
* cell instance $351 r0 *1 9.12,7
X$351 17 19 983 147 63 40 28 DFFR_X1
* cell instance $353 r0 *1 13.3,7
X$353 65 67 17 28 100 NOR2_X1
* cell instance $354 r0 *1 13.87,7
X$354 100 116 66 17 28 82 NOR3_X1
* cell instance $355 r0 *1 14.63,7
X$355 83 101 66 17 28 59 NOR3_X1
* cell instance $356 r0 *1 15.39,7
X$356 68 103 66 17 28 80 NOR3_X1
* cell instance $357 r0 *1 16.15,7
X$357 49 46 105 17 28 85 MUX2_X1
* cell instance $359 r0 *1 17.67,7
X$359 70 71 66 17 28 86 NOR3_X1
* cell instance $361 m0 *1 17.86,7
X$361 88 67 17 28 70 NOR2_X1
* cell instance $363 r0 *1 18.43,7
X$363 104 52 17 28 71 NOR2_X1
* cell instance $366 r0 *1 20.14,7
X$366 121 120 66 17 28 43 NOR3_X1
* cell instance $367 m0 *1 20.33,7
X$367 44 46 69 17 28 72 MUX2_X1
* cell instance $368 m0 *1 21.66,7
X$368 67 17 28 52 INV_X2
* cell instance $371 r0 *1 21.28,7
X$371 72 67 17 28 121 NOR2_X1
* cell instance $374 r0 *1 22.42,7
X$374 17 39 963 51 118 40 28 DFFR_X1
* cell instance $375 m0 *1 22.8,7
X$375 51 46 44 17 28 91 MUX2_X1
* cell instance $377 m0 *1 24.13,7
X$377 91 67 17 28 73 NOR2_X1
* cell instance $379 m0 *1 26.22,7
X$379 94 92 52 17 93 28 AOI21_X1
* cell instance $380 m0 *1 26.98,7
X$380 17 39 75 61 93 40 28 DFFR_X1
* cell instance $381 m0 *1 30.78,7
X$381 46 61 28 17 92 XNOR2_X1
* cell instance $384 m0 *1 32.87,7
X$384 90 108 17 28 45 NOR2_X1
* cell instance $387 m0 *1 34.39,7
X$387 89 87 54 17 90 28 AOI21_X1
* cell instance $389 r0 *1 26.22,7
X$389 17 39 967 105 156 40 28 DFFR_X1
* cell instance $393 r0 *1 32.49,7
X$393 17 39 109 110 115 40 28 DFFR_X1
* cell instance $395 m0 *1 35.53,7
X$395 54 109 53 17 89 28 AOI21_X1
* cell instance $396 m0 *1 36.48,7
X$396 75 60 898 28 17 79 HA_X1
* cell instance $397 m0 *1 38.38,7
X$397 54 17 28 81 INV_X1
* cell instance $399 m0 *1 38.95,7
X$399 77 17 28 55 INV_X1
* cell instance $400 m0 *1 39.33,7
X$400 77 79 57 28 78 17 OAI21_X1
* cell instance $402 r0 *1 36.29,7
X$402 75 60 53 28 17 111 HA_X1
* cell instance $403 r0 *1 38.19,7
X$403 54 55 114 109 78 17 28 76 AOI221_X1
* cell instance $406 m0 *1 40.47,7
X$406 81 79 77 17 28 57 NAND3_X1
* cell instance $409 m0 *1 49.02,7
X$409 58 17 28 LOGIC0_X1
* cell instance $412 r0 *1 40.85,7
X$412 17 56 982 112 113 40 28 DFFR_X1
* cell instance $414 r0 *1 44.84,7
X$414 112 17 28 46 CLKBUF_X3
* cell instance $421 m0 *1 26.22,26.6
X$421 17 456 935 327 457 40 28 DFFR_X1
* cell instance $425 r0 *1 26.22,26.6
X$425 114 17 28 410 CLKBUF_X3
* cell instance $428 r0 *1 29.45,26.6
X$428 17 456 984 508 500 40 28 DFFR_X1
* cell instance $430 m0 *1 30.4,26.6
X$430 233 482 28 17 500 AND2_X1
* cell instance $433 r0 *1 33.25,26.6
X$433 508 523 443 17 28 482 MUX2_X1
* cell instance $435 m0 *1 35.53,26.6
X$435 17 446 942 479 480 40 28 DFFR_X1
* cell instance $437 m0 *1 39.33,26.6
X$437 479 17 28 498 BUF_X2
* cell instance $438 m0 *1 40.09,26.6
X$438 419 17 28 489 INV_X1
* cell instance $442 r0 *1 36.86,26.6
X$442 444 379 520 28 480 17 OAI21_X1
* cell instance $443 r0 *1 37.62,26.6
X$443 488 498 17 28 520 NAND2_X1
* cell instance $444 r0 *1 38.19,26.6
X$444 509 28 114 17 BUF_X4
* cell instance $445 r0 *1 39.52,26.6
X$445 509 256 17 28 358 OR2_X1
* cell instance $448 r0 *1 40.85,26.6
X$448 488 496 17 28 497 NAND2_X1
* cell instance $452 m0 *1 42.37,26.6
X$452 476 17 28 496 CLKBUF_X3
* cell instance $453 m0 *1 43.51,26.6
X$453 448 461 17 28 490 OR2_X1
* cell instance $454 m0 *1 44.27,26.6
X$454 461 495 17 28 458 NOR2_X1
* cell instance $455 m0 *1 44.84,26.6
X$455 448 17 28 495 INV_X1
* cell instance $456 m0 *1 45.22,26.6
X$456 493 17 28 509 BUF_X1
* cell instance $457 m0 *1 45.79,26.6
X$457 535 17 28 478 INV_X1
* cell instance $458 m0 *1 46.17,26.6
X$458 421 511 17 28 459 NAND2_X1
* cell instance $459 m0 *1 46.74,26.6
X$459 17 446 934 494 478 40 28 DFFR_X1
* cell instance $460 m0 *1 50.54,26.6
X$460 460 17 28 511 BUF_X2
* cell instance $463 r0 *1 42.75,26.6
X$463 448 461 28 17 510 XNOR2_X1
* cell instance $464 r0 *1 43.89,26.6
X$464 492 546 461 495 17 28 424 NAND4_X1
* cell instance $465 r0 *1 44.84,26.6
X$465 17 448 461 511 512 491 28 NOR4_X4
* cell instance $466 r0 *1 48.26,26.6
X$466 492 532 512 513 17 28 477 NAND4_X1
* cell instance $467 r0 *1 49.21,26.6
X$467 494 28 512 17 BUF_X4
* cell instance $470 m0 *1 1.9,9.8
X$470 17 19 948 123 139 40 28 DFFR_X1
* cell instance $472 m0 *1 5.7,9.8
X$472 94 141 124 17 95 28 AOI21_X1
* cell instance $473 m0 *1 6.46,9.8
X$473 96 97 17 28 141 NAND2_X1
* cell instance $475 m0 *1 7.22,9.8
X$475 94 143 144 17 98 28 AOI21_X1
* cell instance $476 m0 *1 7.98,9.8
X$476 96 64 17 28 143 NAND2_X1
* cell instance $483 r0 *1 2.85,9.8
X$483 122 140 180 17 209 28 AOI21_X1
* cell instance $487 r0 *1 3.61,9.8
X$487 157 198 17 28 168 NAND2_X1
* cell instance $488 r0 *1 4.18,9.8
X$488 94 169 168 17 139 28 AOI21_X1
* cell instance $490 r0 *1 5.13,9.8
X$490 96 123 17 28 169 NAND2_X1
* cell instance $492 r0 *1 5.89,9.8
X$492 96 130 17 28 140 NAND2_X1
* cell instance $494 r0 *1 7.22,9.8
X$494 157 170 17 28 144 NAND2_X1
* cell instance $496 r0 *1 9.31,9.8
X$496 122 171 194 17 63 28 AOI21_X1
* cell instance $497 m0 *1 11.02,9.8
X$497 97 99 50 17 28 145 MUX2_X1
* cell instance $498 m0 *1 9.69,9.8
X$498 64 99 48 17 28 125 MUX2_X1
* cell instance $501 r0 *1 10.07,9.8
X$501 172 254 145 17 28 174 MUX2_X1
* cell instance $502 r0 *1 11.4,9.8
X$502 150 147 17 28 171 NAND2_X1
* cell instance $504 r0 *1 12.16,9.8
X$504 127 158 126 28 26 17 OAI21_X1
* cell instance $505 r0 *1 12.92,9.8
X$505 174 127 17 28 126 NAND2_X1
* cell instance $506 m0 *1 13.68,9.8
X$506 147 52 17 28 116 NOR2_X1
* cell instance $508 m0 *1 14.25,9.8
X$508 182 52 17 28 101 NOR2_X1
* cell instance $510 m0 *1 15.58,9.8
X$510 102 52 17 28 103 NOR2_X1
* cell instance $512 m0 *1 17.67,9.8
X$512 150 104 17 28 152 NAND2_X1
* cell instance $513 m0 *1 19.19,9.8
X$513 122 152 153 17 119 28 AOI21_X1
* cell instance $514 m0 *1 20.52,9.8
X$514 127 159 128 28 62 17 OAI21_X1
* cell instance $515 m0 *1 21.28,9.8
X$515 129 52 17 28 120 NOR2_X1
* cell instance $517 m0 *1 22.04,9.8
X$517 130 99 51 17 28 179 MUX2_X1
* cell instance $518 m0 *1 23.37,9.8
X$518 160 52 17 28 131 NOR2_X1
* cell instance $519 m0 *1 23.94,9.8
X$519 73 131 66 17 28 118 NOR3_X1
* cell instance $520 m0 *1 24.7,9.8
X$520 132 46 51 17 28 155 MUX2_X1
* cell instance $524 r0 *1 15.39,9.8
X$524 123 99 69 17 28 217 MUX2_X1
* cell instance $525 r0 *1 16.72,9.8
X$525 17 196 970 104 119 40 28 DFFR_X1
* cell instance $528 r0 *1 25.27,9.8
X$528 183 52 17 28 161 NOR2_X1
* cell instance $530 r0 *1 26.03,9.8
X$530 178 52 17 28 177 NOR2_X1
* cell instance $531 m0 *1 26.6,9.8
X$531 155 67 17 28 117 NOR2_X1
* cell instance $533 m0 *1 27.17,9.8
X$533 154 67 17 28 107 NOR2_X1
* cell instance $534 m0 *1 27.74,9.8
X$534 105 46 175 17 28 154 MUX2_X1
* cell instance $535 m0 *1 29.07,9.8
X$535 17 39 929 148 149 40 28 DFFR_X1
* cell instance $536 m0 *1 32.87,9.8
X$536 148 17 28 132 CLKBUF_X2
* cell instance $539 m0 *1 35.91,9.8
X$539 110 17 28 67 CLKBUF_X3
* cell instance $542 r0 *1 26.6,9.8
X$542 107 161 66 17 28 156 NOR3_X1
* cell instance $543 r0 *1 27.36,9.8
X$543 117 177 66 17 28 149 NOR3_X1
* cell instance $545 r0 *1 29.64,9.8
X$545 151 17 28 39 CLKBUF_X3
* cell instance $547 r0 *1 33.63,9.8
X$547 17 39 187 218 146 40 28 DFFR_X1
* cell instance $548 r0 *1 37.43,9.8
X$548 162 134 17 28 163 NOR2_X1
* cell instance $550 m0 *1 38.95,9.8
X$550 111 55 17 28 142 NAND2_X1
* cell instance $551 m0 *1 38,9.8
X$551 189 111 55 134 17 28 133 NAND4_X1
* cell instance $552 m0 *1 39.52,9.8
X$552 136 134 17 28 137 NAND2_X1
* cell instance $553 m0 *1 40.09,9.8
X$553 135 138 137 17 113 28 AOI21_X1
* cell instance $555 r0 *1 38.19,9.8
X$555 135 133 188 17 146 28 AOI21_X1
* cell instance $556 r0 *1 38.95,9.8
X$556 173 164 17 28 189 NAND2_X1
* cell instance $558 r0 *1 39.9,9.8
X$558 142 165 166 17 28 138 NAND3_X1
* cell instance $559 r0 *1 40.66,9.8
X$559 17 56 986 165 167 40 28 DFFR_X1
* cell instance $561 m0 *1 41.23,9.8
X$561 17 56 937 136 191 40 28 DFFR_X1
* cell instance $567 m0 *1 36.86,29.4
X$567 234 523 17 28 580 NAND2_X1
* cell instance $572 m0 *1 39.9,29.4
X$572 564 525 17 28 519 NOR2_X1
* cell instance $574 r0 *1 36.67,29.4
X$574 580 577 579 17 400 28 AOI21_X1
* cell instance $575 r0 *1 37.43,29.4
X$575 544 560 17 28 561 NOR2_X1
* cell instance $577 r0 *1 38.19,29.4
X$577 446 17 28 903 INV_X2
* cell instance $578 r0 *1 38.76,29.4
X$578 545 489 17 28 544 NOR2_X1
* cell instance $579 r0 *1 39.33,29.4
X$579 151 17 28 446 CLKBUF_X3
* cell instance $581 r0 *1 40.66,29.4
X$581 564 526 549 603 551 28 17 AOI211_X2
* cell instance $582 m0 *1 41.8,29.4
X$582 445 524 17 28 526 OR2_X1
* cell instance $583 m0 *1 40.85,29.4
X$583 358 551 539 17 28 550 OR3_X1
* cell instance $584 m0 *1 42.56,29.4
X$584 510 529 530 525 17 28 539 NOR4_X1
* cell instance $585 m0 *1 43.51,29.4
X$585 526 527 490 17 28 528 OR3_X1
* cell instance $587 m0 *1 44.65,29.4
X$587 528 529 17 28 532 NOR2_X1
* cell instance $589 m0 *1 45.41,29.4
X$589 531 492 512 488 17 28 535 AOI22_X1
* cell instance $590 m0 *1 46.36,29.4
X$590 511 512 17 28 530 OR2_X1
* cell instance $591 m0 *1 47.12,29.4
X$591 511 512 28 17 565 XNOR2_X1
* cell instance $592 m0 *1 48.26,29.4
X$592 512 513 17 28 548 NOR2_X1
* cell instance $593 m0 *1 48.83,29.4
X$593 511 17 28 513 INV_X1
* cell instance $596 r0 *1 42.37,29.4
X$596 529 490 525 565 28 557 17 NOR4_X2
* cell instance $597 r0 *1 44.08,29.4
X$597 530 527 526 529 28 546 17 NOR4_X2
* cell instance $599 r0 *1 46.17,29.4
X$599 492 546 458 17 28 600 NAND3_X1
* cell instance $600 r0 *1 46.93,29.4
X$600 492 532 548 17 28 572 NAND3_X1
* cell instance $601 r0 *1 47.69,29.4
X$601 572 571 17 28 567 NAND2_X1
* cell instance $602 r0 *1 48.26,29.4
X$602 421 547 17 28 598 NAND2_X1
* cell instance $603 r0 *1 48.83,29.4
X$603 421 597 17 28 571 NAND2_X1
* cell instance $604 r0 *1 49.4,29.4
X$604 569 17 28 547 BUF_X2
* cell instance $605 r0 *1 50.16,29.4
X$605 543 17 28 568 BUF_X1
* cell instance $609 m0 *1 1.52,26.6
X$609 483 17 28 170 BUF_X1
* cell instance $611 m0 *1 2.28,26.6
X$611 17 878 378 473 431 40 28 DFFS_X1
* cell instance $613 m0 *1 6.27,26.6
X$613 17 474 342 464 431 40 28 DFFS_X1
* cell instance $615 m0 *1 10.26,26.6
X$615 193 385 485 440 28 17 499 OAI22_X1
* cell instance $617 m0 *1 11.4,26.6
X$617 324 395 281 17 28 475 MUX2_X1
* cell instance $619 m0 *1 12.92,26.6
X$619 415 475 17 28 518 OR2_X1
* cell instance $623 r0 *1 1.52,26.6
X$623 504 17 28 219 CLKBUF_X2
* cell instance $624 r0 *1 2.28,26.6
X$624 505 17 28 198 BUF_X2
* cell instance $629 r0 *1 3.23,26.6
X$629 484 17 28 433 CLKBUF_X3
* cell instance $631 r0 *1 4.37,26.6
X$631 415 515 17 28 514 OR2_X1
* cell instance $632 r0 *1 5.13,26.6
X$632 502 395 219 17 28 516 MUX2_X1
* cell instance $634 r0 *1 6.65,26.6
X$634 506 395 193 17 28 515 MUX2_X1
* cell instance $636 r0 *1 8.17,26.6
X$636 534 99 542 17 28 241 MUX2_X1
* cell instance $637 r0 *1 9.5,26.6
X$637 506 99 485 17 28 172 MUX2_X1
* cell instance $639 r0 *1 11.02,26.6
X$639 499 17 28 536 INV_X1
* cell instance $641 r0 *1 11.59,26.6
X$641 486 395 198 17 28 517 MUX2_X1
* cell instance $643 r0 *1 13.11,26.6
X$643 17 518 40 324 874 431 28 DFFS_X2
* cell instance $645 m0 *1 14.06,26.6
X$645 433 28 99 17 BUF_X4
* cell instance $647 m0 *1 15.77,26.6
X$647 17 884 388 481 416 40 28 DFFS_X1
* cell instance $649 r0 *1 17.48,26.6
X$649 486 433 453 17 28 273 MUX2_X1
* cell instance $651 r0 *1 19.19,26.6
X$651 502 433 501 17 28 220 MUX2_X1
* cell instance $652 m0 *1 20.9,26.6
X$652 281 385 471 440 28 17 455 OAI22_X1
* cell instance $653 m0 *1 19.95,26.6
X$653 219 385 501 440 28 17 487 OAI22_X1
* cell instance $654 m0 *1 21.85,26.6
X$654 455 17 28 521 INV_X1
* cell instance $656 m0 *1 22.42,26.6
X$656 410 17 28 108 CLKBUF_X3
* cell instance $661 r0 *1 20.71,26.6
X$661 487 17 28 522 INV_X1
* cell instance $662 r0 *1 21.09,26.6
X$662 17 888 471 521 416 40 28 DFFS_X1
* cell instance $667 m0 *1 1.52,18.2
X$667 345 17 28 317 BUF_X1
* cell instance $672 r0 *1 1.71,18.2
X$672 17 377 362 274 28 DFF_X1
* cell instance $677 m0 *1 3.99,18.2
X$677 94 356 403 17 301 28 AOI21_X1
* cell instance $679 r0 *1 4.94,18.2
X$679 122 347 346 17 357 28 AOI21_X1
* cell instance $681 r0 *1 5.89,18.2
X$681 96 366 17 28 356 NAND2_X1
* cell instance $682 m0 *1 6.08,18.2
X$682 96 302 17 28 314 NAND2_X1
* cell instance $685 r0 *1 6.46,18.2
X$685 302 17 28 365 INV_X1
* cell instance $686 r0 *1 6.84,18.2
X$686 96 380 17 28 347 NAND2_X1
* cell instance $687 m0 *1 7.79,18.2
X$687 337 17 28 157 BUF_X2
* cell instance $688 m0 *1 7.03,18.2
X$688 185 348 28 17 337 AND2_X1
* cell instance $689 m0 *1 8.55,18.2
X$689 17 274 947 278 339 40 28 DFFR_X1
* cell instance $690 m0 *1 12.35,18.2
X$690 231 304 28 17 339 AND2_X1
* cell instance $692 r0 *1 7.41,18.2
X$692 348 185 17 28 96 NAND2_X2
* cell instance $694 r0 *1 8.55,18.2
X$694 393 28 316 17 BUF_X4
* cell instance $695 r0 *1 9.88,18.2
X$695 99 254 348 17 150 28 NAND3_X4
* cell instance $696 r0 *1 12.35,18.2
X$696 383 254 278 17 28 382 MUX2_X1
* cell instance $697 m0 *1 13.68,18.2
X$697 380 316 17 28 318 NAND2_X1
* cell instance $699 m0 *1 14.25,18.2
X$699 348 195 17 28 349 NAND2_X1
* cell instance $701 m0 *1 15.01,18.2
X$701 342 320 253 28 305 17 OAI21_X1
* cell instance $702 m0 *1 15.77,18.2
X$702 102 322 350 407 17 28 384 AOI22_X1
* cell instance $703 m0 *1 16.72,18.2
X$703 17 320 21 318 280 28 NOR3_X4
* cell instance $704 m0 *1 19.38,18.2
X$704 350 17 28 127 CLKBUF_X3
* cell instance $706 m0 *1 20.52,18.2
X$706 344 331 17 28 323 NAND2_X1
* cell instance $708 m0 *1 21.28,18.2
X$708 330 316 17 28 331 NOR2_X1
* cell instance $709 m0 *1 21.85,18.2
X$709 369 331 17 28 307 NAND2_X1
* cell instance $710 m0 *1 22.42,18.2
X$710 99 351 307 28 306 17 OAI21_X1
* cell instance $713 r0 *1 14.06,18.2
X$713 21 316 348 17 28 NOR2_X4
* cell instance $714 r0 *1 15.77,18.2
X$714 330 384 413 28 362 17 OAI21_X1
* cell instance $715 r0 *1 16.53,18.2
X$715 195 350 231 17 385 28 NAND3_X4
* cell instance $716 r0 *1 19,18.2
X$716 388 303 105 17 28 344 MUX2_X1
* cell instance $717 r0 *1 20.33,18.2
X$717 330 308 17 320 28 NAND2_X4
* cell instance $718 r0 *1 22.04,18.2
X$718 335 254 17 28 370 NAND2_X1
* cell instance $719 r0 *1 22.61,18.2
X$719 361 308 360 17 351 28 AOI21_X1
* cell instance $720 r0 *1 23.37,18.2
X$720 21 114 231 17 28 NOR2_X4
* cell instance $721 m0 *1 23.75,18.2
X$721 231 219 17 28 343 NAND2_X1
* cell instance $723 m0 *1 24.32,18.2
X$723 232 211 17 28 282 NAND2_X1
* cell instance $724 m0 *1 24.89,18.2
X$724 232 343 332 28 329 17 OAI21_X1
* cell instance $725 m0 *1 25.65,18.2
X$725 270 258 256 17 28 299 NOR3_X1
* cell instance $726 m0 *1 26.41,18.2
X$726 17 202 945 283 329 40 28 DFFR_X1
* cell instance $729 r0 *1 25.08,18.2
X$729 232 335 17 28 352 NAND2_X1
* cell instance $730 r0 *1 25.65,18.2
X$730 232 283 17 28 332 NAND2_X1
* cell instance $732 r0 *1 26.41,18.2
X$732 335 17 28 372 INV_X1
* cell instance $735 r0 *1 28.5,18.2
X$735 353 17 28 335 CLKBUF_X2
* cell instance $737 r0 *1 29.45,18.2
X$737 17 354 971 383 359 40 28 DFFR_X1
* cell instance $738 m0 *1 32.3,18.2
X$738 333 108 17 28 359 NOR2_X1
* cell instance $743 r0 *1 33.44,18.2
X$743 17 354 956 293 387 40 28 DFFR_X1
* cell instance $744 m0 *1 35.53,18.2
X$744 234 293 206 17 28 334 NAND3_X1
* cell instance $745 m0 *1 34.77,18.2
X$745 326 333 262 17 373 28 AOI21_X1
* cell instance $746 m0 *1 36.29,18.2
X$746 338 284 234 294 285 28 17 340 OAI221_X1
* cell instance $747 m0 *1 37.43,18.2
X$747 234 341 386 28 17 240 OAI21_X2
* cell instance $748 m0 *1 38.76,18.2
X$748 358 294 17 28 287 NOR2_X1
* cell instance $749 m0 *1 39.33,18.2
X$749 310 135 335 28 262 17 NOR3_X2
* cell instance $750 m0 *1 40.66,18.2
X$750 284 288 335 17 28 311 NAND3_X1
* cell instance $751 m0 *1 41.42,18.2
X$751 135 315 311 17 336 28 AOI21_X1
* cell instance $753 m0 *1 42.37,18.2
X$753 17 354 923 286 336 40 28 DFFR_X1
* cell instance $758 r0 *1 37.43,18.2
X$758 17 893 288 340 56 40 28 DFFS_X1
* cell instance $759 r0 *1 41.23,18.2
X$759 151 17 28 354 CLKBUF_X3
* cell instance $761 r0 *1 42.37,18.2
X$761 375 240 135 311 28 17 355 OAI22_X1
* cell instance $763 r0 *1 43.7,18.2
X$763 376 17 28 375 INV_X1
* cell instance $764 r0 *1 44.08,18.2
X$764 17 354 974 376 355 40 28 DFFR_X1
* cell instance $771 m0 *1 2.47,35
X$771 17 582 708 644 630 40 28 DFFR_X1
* cell instance $772 m0 *1 6.46,35
X$772 638 644 17 28 631 NAND2_X1
* cell instance $774 m0 *1 7.22,35
X$774 613 670 659 17 28 657 MUX2_X1
* cell instance $776 m0 *1 8.74,35
X$776 657 108 17 28 633 NOR2_X1
* cell instance $784 r0 *1 2.85,35
X$784 17 582 710 613 633 40 28 DFFR_X1
* cell instance $788 r0 *1 6.65,35
X$788 710 708 712 28 17 713 HA_X1
* cell instance $789 r0 *1 8.55,35
X$789 709 670 645 17 28 694 MUX2_X1
* cell instance $790 r0 *1 9.88,35
X$790 670 712 17 28 714 NOR2_X1
* cell instance $792 m0 *1 10.64,35
X$792 502 553 586 28 17 646 AND3_X1
* cell instance $794 m0 *1 11.59,35
X$794 553 486 17 28 686 NAND2_X1
* cell instance $795 m0 *1 12.16,35
X$795 17 582 908 672 616 40 28 DFFR_X1
* cell instance $796 m0 *1 15.96,35
X$796 617 17 28 660 INV_X1
* cell instance $797 m0 *1 16.34,35
X$797 660 673 584 28 583 17 OAI21_X1
* cell instance $798 m0 *1 17.1,35
X$798 674 586 618 617 17 28 661 NOR4_X1
* cell instance $799 m0 *1 18.05,35
X$799 380 700 28 17 637 AND2_X1
* cell instance $800 m0 *1 18.81,35
X$800 618 637 675 676 388 17 28 690 AOI221_X1
* cell instance $801 m0 *1 19.95,35
X$801 17 619 915 666 664 40 28 DFFR_X1
* cell instance $802 m0 *1 23.75,35
X$802 666 17 28 618 CLKBUF_X2
* cell instance $803 m0 *1 24.51,35
X$803 668 647 17 28 691 NAND2_X1
* cell instance $807 r0 *1 14.25,35
X$807 380 689 28 17 636 AND2_X1
* cell instance $808 r0 *1 15.01,35
X$808 638 697 672 28 687 17 OAI21_X1
* cell instance $809 r0 *1 15.77,35
X$809 672 618 617 17 28 715 NOR3_X1
* cell instance $810 r0 *1 16.53,35
X$810 380 689 634 28 17 699 OAI21_X4
* cell instance $811 r0 *1 19,35
X$811 151 17 28 619 CLKBUF_X3
* cell instance $812 r0 *1 19.95,35
X$812 619 17 28 896 INV_X4