* CDL Netlist generated by OpenROAD

*.BUSDELIMITER [

.SUBCKT mesh_router clk east_in_data[0] east_in_data[10] east_in_data[11]
+ east_in_data[12] east_in_data[13] east_in_data[14] east_in_data[15]
+ east_in_data[16] east_in_data[17] east_in_data[18] east_in_data[19]
+ east_in_data[1] east_in_data[20] east_in_data[21] east_in_data[22]
+ east_in_data[23] east_in_data[24] east_in_data[25] east_in_data[26]
+ east_in_data[27] east_in_data[28] east_in_data[29] east_in_data[2]
+ east_in_data[30] east_in_data[31] east_in_data[3] east_in_data[4]
+ east_in_data[5] east_in_data[6] east_in_data[7] east_in_data[8]
+ east_in_data[9] east_in_ready east_in_valid east_out_data[0]
+ east_out_data[10] east_out_data[11] east_out_data[12] east_out_data[13]
+ east_out_data[14] east_out_data[15] east_out_data[16] east_out_data[17]
+ east_out_data[18] east_out_data[19] east_out_data[1] east_out_data[20]
+ east_out_data[21] east_out_data[22] east_out_data[23] east_out_data[24]
+ east_out_data[25] east_out_data[26] east_out_data[27] east_out_data[28]
+ east_out_data[29] east_out_data[2] east_out_data[30] east_out_data[31]
+ east_out_data[3] east_out_data[4] east_out_data[5] east_out_data[6]
+ east_out_data[7] east_out_data[8] east_out_data[9] east_out_ready
+ east_out_valid local_in_data[0] local_in_data[10] local_in_data[11]
+ local_in_data[12] local_in_data[13] local_in_data[14] local_in_data[15]
+ local_in_data[16] local_in_data[17] local_in_data[18] local_in_data[19]
+ local_in_data[1] local_in_data[20] local_in_data[21] local_in_data[22]
+ local_in_data[23] local_in_data[24] local_in_data[25] local_in_data[26]
+ local_in_data[27] local_in_data[28] local_in_data[29] local_in_data[2]
+ local_in_data[30] local_in_data[31] local_in_data[3] local_in_data[4]
+ local_in_data[5] local_in_data[6] local_in_data[7] local_in_data[8]
+ local_in_data[9] local_in_ready local_in_valid local_out_data[0]
+ local_out_data[10] local_out_data[11] local_out_data[12] local_out_data[13]
+ local_out_data[14] local_out_data[15] local_out_data[16] local_out_data[17]
+ local_out_data[18] local_out_data[19] local_out_data[1] local_out_data[20]
+ local_out_data[21] local_out_data[22] local_out_data[23] local_out_data[24]
+ local_out_data[25] local_out_data[26] local_out_data[27] local_out_data[28]
+ local_out_data[29] local_out_data[2] local_out_data[30] local_out_data[31]
+ local_out_data[3] local_out_data[4] local_out_data[5] local_out_data[6]
+ local_out_data[7] local_out_data[8] local_out_data[9] local_out_ready
+ local_out_valid north_in_data[0] north_in_data[10] north_in_data[11]
+ north_in_data[12] north_in_data[13] north_in_data[14] north_in_data[15]
+ north_in_data[16] north_in_data[17] north_in_data[18] north_in_data[19]
+ north_in_data[1] north_in_data[20] north_in_data[21] north_in_data[22]
+ north_in_data[23] north_in_data[24] north_in_data[25] north_in_data[26]
+ north_in_data[27] north_in_data[28] north_in_data[29] north_in_data[2]
+ north_in_data[30] north_in_data[31] north_in_data[3] north_in_data[4]
+ north_in_data[5] north_in_data[6] north_in_data[7] north_in_data[8]
+ north_in_data[9] north_in_ready north_in_valid north_out_data[0]
+ north_out_data[10] north_out_data[11] north_out_data[12] north_out_data[13]
+ north_out_data[14] north_out_data[15] north_out_data[16] north_out_data[17]
+ north_out_data[18] north_out_data[19] north_out_data[1] north_out_data[20]
+ north_out_data[21] north_out_data[22] north_out_data[23] north_out_data[24]
+ north_out_data[25] north_out_data[26] north_out_data[27] north_out_data[28]
+ north_out_data[29] north_out_data[2] north_out_data[30] north_out_data[31]
+ north_out_data[3] north_out_data[4] north_out_data[5] north_out_data[6]
+ north_out_data[7] north_out_data[8] north_out_data[9] north_out_ready
+ north_out_valid rst_n south_in_data[0] south_in_data[10] south_in_data[11]
+ south_in_data[12] south_in_data[13] south_in_data[14] south_in_data[15]
+ south_in_data[16] south_in_data[17] south_in_data[18] south_in_data[19]
+ south_in_data[1] south_in_data[20] south_in_data[21] south_in_data[22]
+ south_in_data[23] south_in_data[24] south_in_data[25] south_in_data[26]
+ south_in_data[27] south_in_data[28] south_in_data[29] south_in_data[2]
+ south_in_data[30] south_in_data[31] south_in_data[3] south_in_data[4]
+ south_in_data[5] south_in_data[6] south_in_data[7] south_in_data[8]
+ south_in_data[9] south_in_ready south_in_valid south_out_data[0]
+ south_out_data[10] south_out_data[11] south_out_data[12] south_out_data[13]
+ south_out_data[14] south_out_data[15] south_out_data[16] south_out_data[17]
+ south_out_data[18] south_out_data[19] south_out_data[1] south_out_data[20]
+ south_out_data[21] south_out_data[22] south_out_data[23] south_out_data[24]
+ south_out_data[25] south_out_data[26] south_out_data[27] south_out_data[28]
+ south_out_data[29] south_out_data[2] south_out_data[30] south_out_data[31]
+ south_out_data[3] south_out_data[4] south_out_data[5] south_out_data[6]
+ south_out_data[7] south_out_data[8] south_out_data[9] south_out_ready
+ south_out_valid west_in_data[0] west_in_data[10] west_in_data[11]
+ west_in_data[12] west_in_data[13] west_in_data[14] west_in_data[15]
+ west_in_data[16] west_in_data[17] west_in_data[18] west_in_data[19]
+ west_in_data[1] west_in_data[20] west_in_data[21] west_in_data[22]
+ west_in_data[23] west_in_data[24] west_in_data[25] west_in_data[26]
+ west_in_data[27] west_in_data[28] west_in_data[29] west_in_data[2]
+ west_in_data[30] west_in_data[31] west_in_data[3] west_in_data[4]
+ west_in_data[5] west_in_data[6] west_in_data[7] west_in_data[8]
+ west_in_data[9] west_in_ready west_in_valid west_out_data[0]
+ west_out_data[10] west_out_data[11] west_out_data[12] west_out_data[13]
+ west_out_data[14] west_out_data[15] west_out_data[16] west_out_data[17]
+ west_out_data[18] west_out_data[19] west_out_data[1] west_out_data[20]
+ west_out_data[21] west_out_data[22] west_out_data[23] west_out_data[24]
+ west_out_data[25] west_out_data[26] west_out_data[27] west_out_data[28]
+ west_out_data[29] west_out_data[2] west_out_data[30] west_out_data[31]
+ west_out_data[3] west_out_data[4] west_out_data[5] west_out_data[6]
+ west_out_data[7] west_out_data[8] west_out_data[9] west_out_ready
+ west_out_valid
X_1362_ dest_id\[4\]\[0\] _1172_ VDD VSS gf180mcu_fd_sc_mcu9t5v0__inv_3
X_1363_ dest_id\[4\]\[3\] _1173_ VDD VSS gf180mcu_fd_sc_mcu9t5v0__inv_3
X_1364_ _1172_ _1173_ dest_id\[4\]\[2\] _1174_ VDD VSS gf180mcu_fd_sc_mcu9t5v0__and3_2
X_1365_ dest_id\[4\]\[1\] _1175_ VDD VSS gf180mcu_fd_sc_mcu9t5v0__inv_4
X_1366_ dest_id\[4\]\[2\] _1176_ VDD VSS gf180mcu_fd_sc_mcu9t5v0__clkinv_3
X_1367_ dest_id\[4\]\[0\] _1175_ _1176_ _1177_ VDD VSS gf180mcu_fd_sc_mcu9t5v0__and3_2
X_1368_ dest_id\[4\]\[5\] dest_id\[4\]\[4\] dest_id\[4\]\[7\]
+ dest_id\[4\]\[6\] _1178_ VDD VSS gf180mcu_fd_sc_mcu9t5v0__or4_4
X_1369_ _1178_ _1179_ VDD VSS gf180mcu_fd_sc_mcu9t5v0__inv_2
X_1370_ _1174_ _1177_ _1179_ _1180_ VDD VSS gf180mcu_fd_sc_mcu9t5v0__oai21_4
X_1371_ _1180_ _1358_ VDD VSS gf180mcu_fd_sc_mcu9t5v0__clkinv_2
X_1372_ _1179_ _1174_ _1347_ VDD VSS gf180mcu_fd_sc_mcu9t5v0__and2_2
X_1373_ _1347_ _1350_ VDD VSS gf180mcu_fd_sc_mcu9t5v0__inv_2
X_1374_ dest_id\[4\]\[0\] dest_id\[4\]\[3\] _1176_ _1181_
+ VDD VSS gf180mcu_fd_sc_mcu9t5v0__and3_2
X_1375_ _1174_ _1181_ _1175_ _1179_ _1346_ VDD VSS gf180mcu_fd_sc_mcu9t5v0__oai211_4
X_1376_ _1346_ _1353_ VDD VSS gf180mcu_fd_sc_mcu9t5v0__clkinv_2
X_1377_ net172 _1174_ _1350_ net138 _1182_ VDD VSS gf180mcu_fd_sc_mcu9t5v0__aoi22_2
X_1378_ _1182_ _1183_ VDD VSS gf180mcu_fd_sc_mcu9t5v0__clkinv_2
X_1379_ _1172_ dest_id\[4\]\[1\] dest_id\[4\]\[2\] _1184_
+ VDD VSS gf180mcu_fd_sc_mcu9t5v0__or3_2
X_1380_ dest_id\[4\]\[0\] _1175_ _1176_ _1185_ VDD VSS gf180mcu_fd_sc_mcu9t5v0__or3_2
X_1381_ _1184_ _1185_ dest_id\[4\]\[3\] _1178_ _1186_ VDD
+ VSS gf180mcu_fd_sc_mcu9t5v0__aoi211_4
X_1382_ net35 _1187_ VDD VSS gf180mcu_fd_sc_mcu9t5v0__clkinv_2
X_1383_ net103 _1188_ VDD VSS gf180mcu_fd_sc_mcu9t5v0__clkinv_2
X_1384_ _1187_ _1188_ _1350_ _1189_ VDD VSS gf180mcu_fd_sc_mcu9t5v0__mux2_2
X_1385_ _1186_ _1189_ _1190_ VDD VSS gf180mcu_fd_sc_mcu9t5v0__nand2_2
X_1386_ net69 _1358_ _1346_ _1183_ _1190_ _1191_ VDD VSS gf180mcu_fd_sc_mcu9t5v0__oai221_2
X_1387_ input_buffer_valid\[4\] _1192_ VDD VSS gf180mcu_fd_sc_mcu9t5v0__clkbuf_8
X_1388_ net68 _1191_ _1192_ _0004_ VDD VSS gf180mcu_fd_sc_mcu9t5v0__mux2_2
X_1389_ dest_id\[3\]\[0\] _1193_ VDD VSS gf180mcu_fd_sc_mcu9t5v0__clkinv_2
X_1390_ _1193_ dest_id\[3\]\[1\] dest_id\[3\]\[2\] _1194_
+ VDD VSS gf180mcu_fd_sc_mcu9t5v0__or3_4
X_1391_ dest_id\[3\]\[2\] _1195_ VDD VSS gf180mcu_fd_sc_mcu9t5v0__clkinv_2
X_1392_ dest_id\[3\]\[0\] dest_id\[3\]\[3\] _1195_ _1196_
+ VDD VSS gf180mcu_fd_sc_mcu9t5v0__or3_4
X_1393_ dest_id\[3\]\[5\] dest_id\[3\]\[4\] dest_id\[3\]\[7\]
+ dest_id\[3\]\[6\] _1197_ VDD VSS gf180mcu_fd_sc_mcu9t5v0__or4_4
X_1394_ _1194_ _1196_ _1197_ _1343_ VDD VSS gf180mcu_fd_sc_mcu9t5v0__aoi21_4
X_1395_ _1197_ _1196_ _1332_ VDD VSS gf180mcu_fd_sc_mcu9t5v0__nor2_2
X_1396_ _1332_ _1335_ VDD VSS gf180mcu_fd_sc_mcu9t5v0__clkinv_2
X_1397_ dest_id\[3\]\[3\] _1198_ VDD VSS gf180mcu_fd_sc_mcu9t5v0__buf_4
X_1398_ dest_id\[3\]\[0\] _1198_ _1195_ _1199_ VDD VSS gf180mcu_fd_sc_mcu9t5v0__nand3_2
X_1399_ _1196_ _1199_ _1200_ VDD VSS gf180mcu_fd_sc_mcu9t5v0__and2_2
X_1400_ dest_id\[3\]\[1\] _1197_ _1200_ _1331_ VDD VSS gf180mcu_fd_sc_mcu9t5v0__or3_2
X_1401_ _1331_ _1338_ VDD VSS gf180mcu_fd_sc_mcu9t5v0__clkinv_2
X_1402_ input_buffer_valid\[3\] net301 VDD VSS gf180mcu_fd_sc_mcu9t5v0__clkinv_16
X_1403_ net172 net138 _1196_ _1201_ VDD VSS gf180mcu_fd_sc_mcu9t5v0__mux2_2
X_1404_ _1198_ _1197_ _1202_ VDD VSS gf180mcu_fd_sc_mcu9t5v0__nor2_2
X_1405_ _1193_ dest_id\[3\]\[2\] _1203_ VDD VSS gf180mcu_fd_sc_mcu9t5v0__nand2_2
X_1406_ _1187_ dest_id\[3\]\[1\] _1204_ VDD VSS gf180mcu_fd_sc_mcu9t5v0__nand2_2
X_1407_ net103 _1194_ _1203_ _1204_ _1205_ VDD VSS gf180mcu_fd_sc_mcu9t5v0__oai22_2
X_1408_ _1202_ _1205_ _1206_ VDD VSS gf180mcu_fd_sc_mcu9t5v0__nand2_2
X_1409_ _1344_ _1333_ _1339_ _1341_ _1207_ VDD VSS gf180mcu_fd_sc_mcu9t5v0__or4_2
X_1410_ net69 _1207_ _1343_ _1208_ VDD VSS gf180mcu_fd_sc_mcu9t5v0__mux2_2
X_1411_ _1331_ _1201_ _1206_ _1208_ _1209_ VDD VSS gf180mcu_fd_sc_mcu9t5v0__oai211_2
X_1412_ net171 _1209_ input_buffer_valid\[3\] _0003_ VDD VSS
+ gf180mcu_fd_sc_mcu9t5v0__mux2_2
X_1413_ dest_id\[2\]\[1\] _1210_ VDD VSS gf180mcu_fd_sc_mcu9t5v0__clkinv_4
X_1414_ dest_id\[2\]\[2\] _1211_ VDD VSS gf180mcu_fd_sc_mcu9t5v0__inv_4
X_1415_ dest_id\[2\]\[0\] _1210_ _1211_ _1212_ VDD VSS gf180mcu_fd_sc_mcu9t5v0__and3_4
X_1416_ dest_id\[2\]\[0\] dest_id\[2\]\[3\] _1211_ _1213_
+ VDD VSS gf180mcu_fd_sc_mcu9t5v0__nor3_4
X_1417_ dest_id\[2\]\[5\] dest_id\[2\]\[4\] dest_id\[2\]\[7\]
+ dest_id\[2\]\[6\] _1214_ VDD VSS gf180mcu_fd_sc_mcu9t5v0__nor4_4
X_1418_ _1212_ _1213_ _1214_ _1215_ VDD VSS gf180mcu_fd_sc_mcu9t5v0__oai21_4
X_1419_ _1215_ _1328_ VDD VSS gf180mcu_fd_sc_mcu9t5v0__clkinv_4
X_1420_ _1214_ _1213_ _1317_ VDD VSS gf180mcu_fd_sc_mcu9t5v0__and2_2
X_1421_ _1317_ _1320_ VDD VSS gf180mcu_fd_sc_mcu9t5v0__clkinv_2
X_1422_ dest_id\[2\]\[3\] _1216_ VDD VSS gf180mcu_fd_sc_mcu9t5v0__clkbuf_8
X_1423_ dest_id\[2\]\[0\] _1216_ _1211_ _1217_ VDD VSS gf180mcu_fd_sc_mcu9t5v0__and3_2
X_1424_ _1213_ _1217_ _1210_ _1214_ _1316_ VDD VSS gf180mcu_fd_sc_mcu9t5v0__oai211_4
X_1425_ _1316_ _1323_ VDD VSS gf180mcu_fd_sc_mcu9t5v0__clkinv_2
X_1426_ input_buffer_valid\[2\] net271 VDD VSS gf180mcu_fd_sc_mcu9t5v0__clkinv_12
X_1427_ net172 net138 net35 net103 _1320_ _1316_ _1218_ VDD
+ VSS gf180mcu_fd_sc_mcu9t5v0__mux4_2
X_1428_ _1329_ _1318_ _1324_ _1326_ _1219_ VDD VSS gf180mcu_fd_sc_mcu9t5v0__or4_2
X_1429_ _1328_ _1219_ _1220_ VDD VSS gf180mcu_fd_sc_mcu9t5v0__and2_2
X_1430_ net69 _1215_ _1218_ _1220_ _1221_ VDD VSS gf180mcu_fd_sc_mcu9t5v0__aoi22_2
X_1431_ net137 _1221_ input_buffer_valid\[2\] _0002_ VDD VSS
+ gf180mcu_fd_sc_mcu9t5v0__mux2_2
X_1432_ dest_id\[1\]\[0\] _1222_ VDD VSS gf180mcu_fd_sc_mcu9t5v0__clkinv_3
X_1433_ _1222_ dest_id\[1\]\[1\] dest_id\[1\]\[2\] _1223_
+ VDD VSS gf180mcu_fd_sc_mcu9t5v0__nor3_4
X_1434_ dest_id\[1\]\[2\] _1224_ VDD VSS gf180mcu_fd_sc_mcu9t5v0__clkinv_2
X_1435_ dest_id\[1\]\[0\] dest_id\[1\]\[3\] _1224_ _1225_
+ VDD VSS gf180mcu_fd_sc_mcu9t5v0__nor3_4
X_1436_ dest_id\[1\]\[5\] dest_id\[1\]\[4\] dest_id\[1\]\[7\]
+ dest_id\[1\]\[6\] _1226_ VDD VSS gf180mcu_fd_sc_mcu9t5v0__nor4_4
X_1437_ _1223_ _1225_ _1226_ _1227_ VDD VSS gf180mcu_fd_sc_mcu9t5v0__oai21_4
X_1438_ _1227_ _1228_ VDD VSS gf180mcu_fd_sc_mcu9t5v0__buf_8
X_1439_ _1228_ _1313_ VDD VSS gf180mcu_fd_sc_mcu9t5v0__clkinv_2
X_1440_ _1226_ _1225_ _1302_ VDD VSS gf180mcu_fd_sc_mcu9t5v0__and2_2
X_1441_ _1302_ _1305_ VDD VSS gf180mcu_fd_sc_mcu9t5v0__clkinv_2
X_1442_ dest_id\[1\]\[5\] dest_id\[1\]\[4\] dest_id\[1\]\[7\]
+ dest_id\[1\]\[6\] _1229_ VDD VSS gf180mcu_fd_sc_mcu9t5v0__or4_2
X_1443_ dest_id\[1\]\[3\] _1224_ _1230_ VDD VSS gf180mcu_fd_sc_mcu9t5v0__nand2_2
X_1444_ _1222_ _1230_ _1231_ VDD VSS gf180mcu_fd_sc_mcu9t5v0__nor2_2
X_1445_ _1225_ _1231_ _1232_ VDD VSS gf180mcu_fd_sc_mcu9t5v0__nor2_2
X_1446_ dest_id\[1\]\[1\] _1229_ _1232_ _1301_ VDD VSS gf180mcu_fd_sc_mcu9t5v0__or3_2
X_1447_ _1301_ _1308_ VDD VSS gf180mcu_fd_sc_mcu9t5v0__clkinv_2
X_1448_ input_buffer_valid\[1\] _1233_ VDD VSS gf180mcu_fd_sc_mcu9t5v0__clkbuf_8
X_1449_ _1233_ net173 VDD VSS gf180mcu_fd_sc_mcu9t5v0__inv_8
X_1450_ _1314_ _1303_ _1309_ _1311_ _1234_ VDD VSS gf180mcu_fd_sc_mcu9t5v0__or4_2
X_1451_ _1234_ net69 _1227_ _1235_ VDD VSS gf180mcu_fd_sc_mcu9t5v0__mux2_2
X_1452_ dest_id\[1\]\[1\] _1229_ _1236_ VDD VSS gf180mcu_fd_sc_mcu9t5v0__nor2_2
X_1453_ net172 dest_id\[1\]\[0\] dest_id\[1\]\[3\] _1224_
+ _1237_ VDD VSS gf180mcu_fd_sc_mcu9t5v0__or4_2
X_1454_ net138 _1222_ _1230_ _1237_ _1238_ VDD VSS gf180mcu_fd_sc_mcu9t5v0__oai31_2
X_1455_ _1222_ dest_id\[1\]\[1\] dest_id\[1\]\[2\] _1239_
+ VDD VSS gf180mcu_fd_sc_mcu9t5v0__or3_2
X_1456_ _1222_ dest_id\[1\]\[1\] dest_id\[1\]\[2\] _1240_
+ VDD VSS gf180mcu_fd_sc_mcu9t5v0__nand3_2
X_1457_ _1239_ _1240_ dest_id\[1\]\[3\] _1229_ _1241_ VDD
+ VSS gf180mcu_fd_sc_mcu9t5v0__aoi211_4
X_1458_ _1187_ _1188_ _1305_ _1242_ VDD VSS gf180mcu_fd_sc_mcu9t5v0__mux2_2
X_1459_ _1236_ _1238_ _1241_ _1242_ _1243_ VDD VSS gf180mcu_fd_sc_mcu9t5v0__aoi22_2
X_1460_ _1235_ _1243_ _1244_ VDD VSS gf180mcu_fd_sc_mcu9t5v0__nand2_2
X_1461_ _1233_ _1245_ VDD VSS gf180mcu_fd_sc_mcu9t5v0__clkbuf_8
X_1462_ _1245_ _1246_ VDD VSS gf180mcu_fd_sc_mcu9t5v0__buf_8
X_1463_ net34 _1244_ _1246_ _0001_ VDD VSS gf180mcu_fd_sc_mcu9t5v0__mux2_2
X_1464_ dest_id\[0\]\[2\] _1247_ VDD VSS gf180mcu_fd_sc_mcu9t5v0__clkinv_3
X_1465_ dest_id\[0\]\[0\] dest_id\[0\]\[3\] _1247_ _1248_
+ VDD VSS gf180mcu_fd_sc_mcu9t5v0__nor3_4
X_1466_ dest_id\[0\]\[0\] dest_id\[0\]\[3\] _1247_ _1249_
+ VDD VSS gf180mcu_fd_sc_mcu9t5v0__and3_2
X_1467_ dest_id\[0\]\[1\] _1250_ VDD VSS gf180mcu_fd_sc_mcu9t5v0__clkinv_2
X_1468_ dest_id\[0\]\[5\] dest_id\[0\]\[4\] dest_id\[0\]\[7\]
+ dest_id\[0\]\[6\] _1251_ VDD VSS gf180mcu_fd_sc_mcu9t5v0__nor4_4
X_1469_ _1248_ _1249_ _1250_ _1251_ _1287_ VDD VSS gf180mcu_fd_sc_mcu9t5v0__oai211_4
X_1470_ _1287_ _1290_ VDD VSS gf180mcu_fd_sc_mcu9t5v0__clkinv_2
X_1471_ _1251_ _1248_ _1293_ VDD VSS gf180mcu_fd_sc_mcu9t5v0__nand2_2
X_1472_ input_buffer_valid\[0\] _1252_ VDD VSS gf180mcu_fd_sc_mcu9t5v0__buf_8
X_1473_ _1252_ net237 VDD VSS gf180mcu_fd_sc_mcu9t5v0__clkinv_12
X_1474_ _1252_ _1253_ VDD VSS gf180mcu_fd_sc_mcu9t5v0__buf_4
X_1475_ _1253_ _1254_ VDD VSS gf180mcu_fd_sc_mcu9t5v0__buf_4
X_1476_ net172 net138 net35 net103 _1293_ _1287_ _1255_ VDD
+ VSS gf180mcu_fd_sc_mcu9t5v0__mux4_2
X_1477_ dest_id\[0\]\[0\] dest_id\[0\]\[3\] _1247_ _1256_
+ VDD VSS gf180mcu_fd_sc_mcu9t5v0__or3_2
X_1478_ dest_id\[0\]\[0\] _1257_ VDD VSS gf180mcu_fd_sc_mcu9t5v0__clkinv_2
X_1479_ _1257_ dest_id\[0\]\[1\] dest_id\[0\]\[2\] _1258_
+ VDD VSS gf180mcu_fd_sc_mcu9t5v0__or3_2
X_1480_ dest_id\[0\]\[5\] dest_id\[0\]\[4\] dest_id\[0\]\[7\]
+ dest_id\[0\]\[6\] _1259_ VDD VSS gf180mcu_fd_sc_mcu9t5v0__or4_2
X_1481_ _1256_ _1258_ _1259_ _1260_ VDD VSS gf180mcu_fd_sc_mcu9t5v0__aoi21_4
X_1482_ _1260_ _1261_ VDD VSS gf180mcu_fd_sc_mcu9t5v0__buf_4
X_1483_ _1261_ _1298_ VDD VSS gf180mcu_fd_sc_mcu9t5v0__clkbuf_8
X_1484_ _1288_ _1262_ VDD VSS gf180mcu_fd_sc_mcu9t5v0__buf_3
X_1485_ _1291_ _1263_ VDD VSS gf180mcu_fd_sc_mcu9t5v0__clkbuf_4
X_1486_ _1296_ _1264_ VDD VSS gf180mcu_fd_sc_mcu9t5v0__clkbuf_4
X_1487_ _1299_ _1265_ VDD VSS gf180mcu_fd_sc_mcu9t5v0__buf_4
X_1488_ _1262_ _1263_ _1264_ _1265_ _1266_ VDD VSS gf180mcu_fd_sc_mcu9t5v0__or4_2
X_1489_ _1254_ _1255_ _1298_ _1266_ _1267_ VDD VSS gf180mcu_fd_sc_mcu9t5v0__and4_2
X_1490_ _1254_ net69 _1268_ VDD VSS gf180mcu_fd_sc_mcu9t5v0__nand2_2
X_1491_ _1254_ net102 _1298_ _1268_ _1269_ VDD VSS gf180mcu_fd_sc_mcu9t5v0__oai22_2
X_1492_ _1267_ _1269_ _0000_ VDD VSS gf180mcu_fd_sc_mcu9t5v0__nor2_2
X_1493_ _1293_ _1286_ VDD VSS gf180mcu_fd_sc_mcu9t5v0__clkinv_2
X_1494_ net104 net237 net102 _1270_ VDD VSS gf180mcu_fd_sc_mcu9t5v0__and3_4
X_1495_ _1270_ _1271_ VDD VSS gf180mcu_fd_sc_mcu9t5v0__clkbuf_8
X_1496_ input_buffer\[0\]\[0\] net70 _1271_ _0005_ VDD VSS
+ gf180mcu_fd_sc_mcu9t5v0__mux2_2
X_1497_ input_buffer\[0\]\[10\] net71 _1271_ _0006_ VDD VSS
+ gf180mcu_fd_sc_mcu9t5v0__mux2_2
X_1498_ input_buffer\[0\]\[11\] net72 _1271_ _0007_ VDD VSS
+ gf180mcu_fd_sc_mcu9t5v0__mux2_2
X_1499_ input_buffer\[0\]\[12\] net73 _1271_ _0008_ VDD VSS
+ gf180mcu_fd_sc_mcu9t5v0__mux2_2
X_1500_ input_buffer\[0\]\[13\] net74 _1271_ _0009_ VDD VSS
+ gf180mcu_fd_sc_mcu9t5v0__mux2_2
X_1501_ input_buffer\[0\]\[14\] net75 _1271_ _0010_ VDD VSS
+ gf180mcu_fd_sc_mcu9t5v0__mux2_2
X_1502_ input_buffer\[0\]\[15\] net76 _1271_ _0011_ VDD VSS
+ gf180mcu_fd_sc_mcu9t5v0__mux2_2
X_1503_ input_buffer\[0\]\[16\] net77 _1271_ _0012_ VDD VSS
+ gf180mcu_fd_sc_mcu9t5v0__mux2_2
X_1504_ input_buffer\[0\]\[17\] net78 _1271_ _0013_ VDD VSS
+ gf180mcu_fd_sc_mcu9t5v0__mux2_2
X_1505_ input_buffer\[0\]\[18\] net79 _1271_ _0014_ VDD VSS
+ gf180mcu_fd_sc_mcu9t5v0__mux2_2
X_1506_ _1270_ _1272_ VDD VSS gf180mcu_fd_sc_mcu9t5v0__clkbuf_8
X_1507_ input_buffer\[0\]\[19\] net80 _1272_ _0015_ VDD VSS
+ gf180mcu_fd_sc_mcu9t5v0__mux2_2
X_1508_ input_buffer\[0\]\[1\] net81 _1272_ _0016_ VDD VSS
+ gf180mcu_fd_sc_mcu9t5v0__mux2_2
X_1509_ input_buffer\[0\]\[20\] net82 _1272_ _0017_ VDD VSS
+ gf180mcu_fd_sc_mcu9t5v0__mux2_2
X_1510_ input_buffer\[0\]\[21\] net83 _1272_ _0018_ VDD VSS
+ gf180mcu_fd_sc_mcu9t5v0__mux2_2
X_1511_ input_buffer\[0\]\[22\] net84 _1272_ _0019_ VDD VSS
+ gf180mcu_fd_sc_mcu9t5v0__mux2_2
X_1512_ input_buffer\[0\]\[23\] net85 _1272_ _0020_ VDD VSS
+ gf180mcu_fd_sc_mcu9t5v0__mux2_2
X_1513_ dest_id\[0\]\[0\] net86 _1272_ _0021_ VDD VSS gf180mcu_fd_sc_mcu9t5v0__mux2_2
X_1514_ dest_id\[0\]\[1\] net87 _1272_ _0022_ VDD VSS gf180mcu_fd_sc_mcu9t5v0__mux2_2
X_1515_ dest_id\[0\]\[2\] net88 _1272_ _0023_ VDD VSS gf180mcu_fd_sc_mcu9t5v0__mux2_2
X_1516_ dest_id\[0\]\[3\] net89 _1272_ _0024_ VDD VSS gf180mcu_fd_sc_mcu9t5v0__mux2_2
X_1517_ _1270_ _1273_ VDD VSS gf180mcu_fd_sc_mcu9t5v0__clkbuf_8
X_1518_ dest_id\[0\]\[4\] net90 _1273_ _0025_ VDD VSS gf180mcu_fd_sc_mcu9t5v0__mux2_2
X_1519_ dest_id\[0\]\[5\] net91 _1273_ _0026_ VDD VSS gf180mcu_fd_sc_mcu9t5v0__mux2_2
X_1520_ input_buffer\[0\]\[2\] net92 _1273_ _0027_ VDD VSS
+ gf180mcu_fd_sc_mcu9t5v0__mux2_2
X_1521_ dest_id\[0\]\[6\] net93 _1273_ _0028_ VDD VSS gf180mcu_fd_sc_mcu9t5v0__mux2_2
X_1522_ dest_id\[0\]\[7\] net94 _1273_ _0029_ VDD VSS gf180mcu_fd_sc_mcu9t5v0__mux2_2
X_1523_ input_buffer\[0\]\[3\] net95 _1273_ _0030_ VDD VSS
+ gf180mcu_fd_sc_mcu9t5v0__mux2_2
X_1524_ input_buffer\[0\]\[4\] net96 _1273_ _0031_ VDD VSS
+ gf180mcu_fd_sc_mcu9t5v0__mux2_2
X_1525_ input_buffer\[0\]\[5\] net97 _1273_ _0032_ VDD VSS
+ gf180mcu_fd_sc_mcu9t5v0__mux2_2
X_1526_ input_buffer\[0\]\[6\] net98 _1273_ _0033_ VDD VSS
+ gf180mcu_fd_sc_mcu9t5v0__mux2_2
X_1527_ input_buffer\[0\]\[7\] net99 _1273_ _0034_ VDD VSS
+ gf180mcu_fd_sc_mcu9t5v0__mux2_2
X_1528_ input_buffer\[0\]\[8\] net100 _1270_ _0035_ VDD VSS
+ gf180mcu_fd_sc_mcu9t5v0__mux2_2
X_1529_ input_buffer\[0\]\[9\] net101 _1270_ _0036_ VDD VSS
+ gf180mcu_fd_sc_mcu9t5v0__mux2_2
X_1530_ net104 net173 net34 _1274_ VDD VSS gf180mcu_fd_sc_mcu9t5v0__and3_4
X_1531_ _1274_ _1275_ VDD VSS gf180mcu_fd_sc_mcu9t5v0__clkbuf_8
X_1532_ input_buffer\[1\]\[0\] net2 _1275_ _0037_ VDD VSS
+ gf180mcu_fd_sc_mcu9t5v0__mux2_2
X_1533_ input_buffer\[1\]\[10\] net3 _1275_ _0038_ VDD VSS
+ gf180mcu_fd_sc_mcu9t5v0__mux2_2
X_1534_ input_buffer\[1\]\[11\] net4 _1275_ _0039_ VDD VSS
+ gf180mcu_fd_sc_mcu9t5v0__mux2_2
X_1535_ input_buffer\[1\]\[12\] net5 _1275_ _0040_ VDD VSS
+ gf180mcu_fd_sc_mcu9t5v0__mux2_2
X_1536_ input_buffer\[1\]\[13\] net6 _1275_ _0041_ VDD VSS
+ gf180mcu_fd_sc_mcu9t5v0__mux2_2
X_1537_ input_buffer\[1\]\[14\] net7 _1275_ _0042_ VDD VSS
+ gf180mcu_fd_sc_mcu9t5v0__mux2_2
X_1538_ input_buffer\[1\]\[15\] net8 _1275_ _0043_ VDD VSS
+ gf180mcu_fd_sc_mcu9t5v0__mux2_2
X_1539_ input_buffer\[1\]\[16\] net9 _1275_ _0044_ VDD VSS
+ gf180mcu_fd_sc_mcu9t5v0__mux2_2
X_1540_ input_buffer\[1\]\[17\] net10 _1275_ _0045_ VDD VSS
+ gf180mcu_fd_sc_mcu9t5v0__mux2_2
X_1541_ input_buffer\[1\]\[18\] net11 _1275_ _0046_ VDD VSS
+ gf180mcu_fd_sc_mcu9t5v0__mux2_2
X_1542_ _1274_ _1276_ VDD VSS gf180mcu_fd_sc_mcu9t5v0__clkbuf_8
X_1543_ input_buffer\[1\]\[19\] net12 _1276_ _0047_ VDD VSS
+ gf180mcu_fd_sc_mcu9t5v0__mux2_2
X_1544_ input_buffer\[1\]\[1\] net13 _1276_ _0048_ VDD VSS
+ gf180mcu_fd_sc_mcu9t5v0__mux2_2
X_1545_ input_buffer\[1\]\[20\] net14 _1276_ _0049_ VDD VSS
+ gf180mcu_fd_sc_mcu9t5v0__mux2_2
X_1546_ input_buffer\[1\]\[21\] net15 _1276_ _0050_ VDD VSS
+ gf180mcu_fd_sc_mcu9t5v0__mux2_2
X_1547_ input_buffer\[1\]\[22\] net16 _1276_ _0051_ VDD VSS
+ gf180mcu_fd_sc_mcu9t5v0__mux2_2
X_1548_ input_buffer\[1\]\[23\] net17 _1276_ _0052_ VDD VSS
+ gf180mcu_fd_sc_mcu9t5v0__mux2_2
X_1549_ dest_id\[1\]\[0\] net18 _1276_ _0053_ VDD VSS gf180mcu_fd_sc_mcu9t5v0__mux2_2
X_1550_ dest_id\[1\]\[1\] net19 _1276_ _0054_ VDD VSS gf180mcu_fd_sc_mcu9t5v0__mux2_2
X_1551_ dest_id\[1\]\[2\] net20 _1276_ _0055_ VDD VSS gf180mcu_fd_sc_mcu9t5v0__mux2_2
X_1552_ dest_id\[1\]\[3\] net21 _1276_ _0056_ VDD VSS gf180mcu_fd_sc_mcu9t5v0__mux2_2
X_1553_ _1274_ _1277_ VDD VSS gf180mcu_fd_sc_mcu9t5v0__clkbuf_8
X_1554_ dest_id\[1\]\[4\] net22 _1277_ _0057_ VDD VSS gf180mcu_fd_sc_mcu9t5v0__mux2_2
X_1555_ dest_id\[1\]\[5\] net23 _1277_ _0058_ VDD VSS gf180mcu_fd_sc_mcu9t5v0__mux2_2
X_1556_ input_buffer\[1\]\[2\] net24 _1277_ _0059_ VDD VSS
+ gf180mcu_fd_sc_mcu9t5v0__mux2_2
X_1557_ dest_id\[1\]\[6\] net25 _1277_ _0060_ VDD VSS gf180mcu_fd_sc_mcu9t5v0__mux2_2
X_1558_ dest_id\[1\]\[7\] net26 _1277_ _0061_ VDD VSS gf180mcu_fd_sc_mcu9t5v0__mux2_2
X_1559_ input_buffer\[1\]\[3\] net27 _1277_ _0062_ VDD VSS
+ gf180mcu_fd_sc_mcu9t5v0__mux2_2
X_1560_ input_buffer\[1\]\[4\] net28 _1277_ _0063_ VDD VSS
+ gf180mcu_fd_sc_mcu9t5v0__mux2_2
X_1561_ input_buffer\[1\]\[5\] net29 _1277_ _0064_ VDD VSS
+ gf180mcu_fd_sc_mcu9t5v0__mux2_2
X_1562_ input_buffer\[1\]\[6\] net30 _1277_ _0065_ VDD VSS
+ gf180mcu_fd_sc_mcu9t5v0__mux2_2
X_1563_ input_buffer\[1\]\[7\] net31 _1277_ _0066_ VDD VSS
+ gf180mcu_fd_sc_mcu9t5v0__mux2_2
X_1564_ input_buffer\[1\]\[8\] net32 _1274_ _0067_ VDD VSS
+ gf180mcu_fd_sc_mcu9t5v0__mux2_2
X_1565_ input_buffer\[1\]\[9\] net33 _1274_ _0068_ VDD VSS
+ gf180mcu_fd_sc_mcu9t5v0__mux2_2
X_1566_ net104 net271 net137 _1278_ VDD VSS gf180mcu_fd_sc_mcu9t5v0__and3_4
X_1567_ _1278_ _1279_ VDD VSS gf180mcu_fd_sc_mcu9t5v0__buf_4
X_1568_ input_buffer\[2\]\[0\] net105 _1279_ _0069_ VDD VSS
+ gf180mcu_fd_sc_mcu9t5v0__mux2_2
X_1569_ input_buffer\[2\]\[10\] net106 _1279_ _0070_ VDD VSS
+ gf180mcu_fd_sc_mcu9t5v0__mux2_2
X_1570_ input_buffer\[2\]\[11\] net107 _1279_ _0071_ VDD VSS
+ gf180mcu_fd_sc_mcu9t5v0__mux2_2
X_1571_ input_buffer\[2\]\[12\] net108 _1279_ _0072_ VDD VSS
+ gf180mcu_fd_sc_mcu9t5v0__mux2_2
X_1572_ input_buffer\[2\]\[13\] net109 _1279_ _0073_ VDD VSS
+ gf180mcu_fd_sc_mcu9t5v0__mux2_2
X_1573_ input_buffer\[2\]\[14\] net110 _1279_ _0074_ VDD VSS
+ gf180mcu_fd_sc_mcu9t5v0__mux2_2
X_1574_ input_buffer\[2\]\[15\] net111 _1279_ _0075_ VDD VSS
+ gf180mcu_fd_sc_mcu9t5v0__mux2_2
X_1575_ input_buffer\[2\]\[16\] net112 _1279_ _0076_ VDD VSS
+ gf180mcu_fd_sc_mcu9t5v0__mux2_2
X_1576_ input_buffer\[2\]\[17\] net113 _1279_ _0077_ VDD VSS
+ gf180mcu_fd_sc_mcu9t5v0__mux2_2
X_1577_ input_buffer\[2\]\[18\] net114 _1279_ _0078_ VDD VSS
+ gf180mcu_fd_sc_mcu9t5v0__mux2_2
X_1578_ _1278_ _1280_ VDD VSS gf180mcu_fd_sc_mcu9t5v0__clkbuf_8
X_1579_ input_buffer\[2\]\[19\] net115 _1280_ _0079_ VDD VSS
+ gf180mcu_fd_sc_mcu9t5v0__mux2_2
X_1580_ input_buffer\[2\]\[1\] net116 _1280_ _0080_ VDD VSS
+ gf180mcu_fd_sc_mcu9t5v0__mux2_2
X_1581_ input_buffer\[2\]\[20\] net117 _1280_ _0081_ VDD VSS
+ gf180mcu_fd_sc_mcu9t5v0__mux2_2
X_1582_ input_buffer\[2\]\[21\] net118 _1280_ _0082_ VDD VSS
+ gf180mcu_fd_sc_mcu9t5v0__mux2_2
X_1583_ input_buffer\[2\]\[22\] net119 _1280_ _0083_ VDD VSS
+ gf180mcu_fd_sc_mcu9t5v0__mux2_2
X_1584_ input_buffer\[2\]\[23\] net120 _1280_ _0084_ VDD VSS
+ gf180mcu_fd_sc_mcu9t5v0__mux2_2
X_1585_ dest_id\[2\]\[0\] net121 _1280_ _0085_ VDD VSS gf180mcu_fd_sc_mcu9t5v0__mux2_2
X_1586_ dest_id\[2\]\[1\] net122 _1280_ _0086_ VDD VSS gf180mcu_fd_sc_mcu9t5v0__mux2_2
X_1587_ dest_id\[2\]\[2\] net123 _1280_ _0087_ VDD VSS gf180mcu_fd_sc_mcu9t5v0__mux2_2
X_1588_ _1216_ net124 _1280_ _0088_ VDD VSS gf180mcu_fd_sc_mcu9t5v0__mux2_2
X_1589_ _1278_ _1281_ VDD VSS gf180mcu_fd_sc_mcu9t5v0__clkbuf_8
X_1590_ dest_id\[2\]\[4\] net125 _1281_ _0089_ VDD VSS gf180mcu_fd_sc_mcu9t5v0__mux2_2
X_1591_ dest_id\[2\]\[5\] net126 _1281_ _0090_ VDD VSS gf180mcu_fd_sc_mcu9t5v0__mux2_2
X_1592_ input_buffer\[2\]\[2\] net127 _1281_ _0091_ VDD VSS
+ gf180mcu_fd_sc_mcu9t5v0__mux2_2
X_1593_ dest_id\[2\]\[6\] net128 _1281_ _0092_ VDD VSS gf180mcu_fd_sc_mcu9t5v0__mux2_2
X_1594_ dest_id\[2\]\[7\] net129 _1281_ _0093_ VDD VSS gf180mcu_fd_sc_mcu9t5v0__mux2_2
X_1595_ input_buffer\[2\]\[3\] net130 _1281_ _0094_ VDD VSS
+ gf180mcu_fd_sc_mcu9t5v0__mux2_2
X_1596_ input_buffer\[2\]\[4\] net131 _1281_ _0095_ VDD VSS
+ gf180mcu_fd_sc_mcu9t5v0__mux2_2
X_1597_ input_buffer\[2\]\[5\] net132 _1281_ _0096_ VDD VSS
+ gf180mcu_fd_sc_mcu9t5v0__mux2_2
X_1598_ input_buffer\[2\]\[6\] net133 _1281_ _0097_ VDD VSS
+ gf180mcu_fd_sc_mcu9t5v0__mux2_2
X_1599_ input_buffer\[2\]\[7\] net134 _1281_ _0098_ VDD VSS
+ gf180mcu_fd_sc_mcu9t5v0__mux2_2
X_1600_ input_buffer\[2\]\[8\] net135 _1278_ _0099_ VDD VSS
+ gf180mcu_fd_sc_mcu9t5v0__mux2_2
X_1601_ input_buffer\[2\]\[9\] net136 _1278_ _0100_ VDD VSS
+ gf180mcu_fd_sc_mcu9t5v0__mux2_2
X_1602_ net104 net301 net171 _1282_ VDD VSS gf180mcu_fd_sc_mcu9t5v0__and3_4
X_1603_ _1282_ _1283_ VDD VSS gf180mcu_fd_sc_mcu9t5v0__clkbuf_8
X_1604_ input_buffer\[3\]\[0\] net139 _1283_ _0101_ VDD VSS
+ gf180mcu_fd_sc_mcu9t5v0__mux2_2
X_1605_ input_buffer\[3\]\[10\] net140 _1283_ _0102_ VDD VSS
+ gf180mcu_fd_sc_mcu9t5v0__mux2_2
X_1606_ input_buffer\[3\]\[11\] net141 _1283_ _0103_ VDD VSS
+ gf180mcu_fd_sc_mcu9t5v0__mux2_2
X_1607_ input_buffer\[3\]\[12\] net142 _1283_ _0104_ VDD VSS
+ gf180mcu_fd_sc_mcu9t5v0__mux2_2
X_1608_ input_buffer\[3\]\[13\] net143 _1283_ _0105_ VDD VSS
+ gf180mcu_fd_sc_mcu9t5v0__mux2_2
X_1609_ input_buffer\[3\]\[14\] net144 _1283_ _0106_ VDD VSS
+ gf180mcu_fd_sc_mcu9t5v0__mux2_2
X_1610_ input_buffer\[3\]\[15\] net145 _1283_ _0107_ VDD VSS
+ gf180mcu_fd_sc_mcu9t5v0__mux2_2
X_1611_ input_buffer\[3\]\[16\] net146 _1283_ _0108_ VDD VSS
+ gf180mcu_fd_sc_mcu9t5v0__mux2_2
X_1612_ input_buffer\[3\]\[17\] net147 _1283_ _0109_ VDD VSS
+ gf180mcu_fd_sc_mcu9t5v0__mux2_2
X_1613_ input_buffer\[3\]\[18\] net148 _1283_ _0110_ VDD VSS
+ gf180mcu_fd_sc_mcu9t5v0__mux2_2
X_1614_ _1282_ _1284_ VDD VSS gf180mcu_fd_sc_mcu9t5v0__clkbuf_8
X_1615_ input_buffer\[3\]\[19\] net149 _1284_ _0111_ VDD VSS
+ gf180mcu_fd_sc_mcu9t5v0__mux2_2
X_1616_ input_buffer\[3\]\[1\] net150 _1284_ _0112_ VDD VSS
+ gf180mcu_fd_sc_mcu9t5v0__mux2_2
X_1617_ input_buffer\[3\]\[20\] net151 _1284_ _0113_ VDD VSS
+ gf180mcu_fd_sc_mcu9t5v0__mux2_2
X_1618_ input_buffer\[3\]\[21\] net152 _1284_ _0114_ VDD VSS
+ gf180mcu_fd_sc_mcu9t5v0__mux2_2
X_1619_ input_buffer\[3\]\[22\] net153 _1284_ _0115_ VDD VSS
+ gf180mcu_fd_sc_mcu9t5v0__mux2_2
X_1620_ input_buffer\[3\]\[23\] net154 _1284_ _0116_ VDD VSS
+ gf180mcu_fd_sc_mcu9t5v0__mux2_2
X_1621_ dest_id\[3\]\[0\] net155 _1284_ _0117_ VDD VSS gf180mcu_fd_sc_mcu9t5v0__mux2_2
X_1622_ dest_id\[3\]\[1\] net156 _1284_ _0118_ VDD VSS gf180mcu_fd_sc_mcu9t5v0__mux2_2
X_1623_ dest_id\[3\]\[2\] net157 _1284_ _0119_ VDD VSS gf180mcu_fd_sc_mcu9t5v0__mux2_2
X_1624_ _1198_ net158 _1284_ _0120_ VDD VSS gf180mcu_fd_sc_mcu9t5v0__mux2_2
X_1625_ _1282_ _1285_ VDD VSS gf180mcu_fd_sc_mcu9t5v0__clkbuf_8
X_1626_ dest_id\[3\]\[4\] net159 _1285_ _0121_ VDD VSS gf180mcu_fd_sc_mcu9t5v0__mux2_2
X_1627_ dest_id\[3\]\[5\] net160 _1285_ _0122_ VDD VSS gf180mcu_fd_sc_mcu9t5v0__mux2_2
X_1628_ input_buffer\[3\]\[2\] net161 _1285_ _0123_ VDD VSS
+ gf180mcu_fd_sc_mcu9t5v0__mux2_2
X_1629_ dest_id\[3\]\[6\] net162 _1285_ _0124_ VDD VSS gf180mcu_fd_sc_mcu9t5v0__mux2_2
X_1630_ dest_id\[3\]\[7\] net163 _1285_ _0125_ VDD VSS gf180mcu_fd_sc_mcu9t5v0__mux2_2
X_1631_ input_buffer\[3\]\[3\] net164 _1285_ _0126_ VDD VSS
+ gf180mcu_fd_sc_mcu9t5v0__mux2_2
X_1632_ input_buffer\[3\]\[4\] net165 _1285_ _0127_ VDD VSS
+ gf180mcu_fd_sc_mcu9t5v0__mux2_2
X_1633_ input_buffer\[3\]\[5\] net166 _1285_ _0128_ VDD VSS
+ gf180mcu_fd_sc_mcu9t5v0__mux2_2
X_1634_ input_buffer\[3\]\[6\] net167 _1285_ _0129_ VDD VSS
+ gf180mcu_fd_sc_mcu9t5v0__mux2_2
X_1635_ input_buffer\[3\]\[7\] net168 _1285_ _0130_ VDD VSS
+ gf180mcu_fd_sc_mcu9t5v0__mux2_2
X_1636_ input_buffer\[3\]\[8\] net169 _1282_ _0131_ VDD VSS
+ gf180mcu_fd_sc_mcu9t5v0__mux2_2
X_1637_ input_buffer\[3\]\[9\] net170 _1282_ _0132_ VDD VSS
+ gf180mcu_fd_sc_mcu9t5v0__mux2_2
X_1638_ _1192_ net203 VDD VSS gf180mcu_fd_sc_mcu9t5v0__inv_8
X_1639_ net203 net68 net104 _0165_ VDD VSS gf180mcu_fd_sc_mcu9t5v0__and3_4
X_1640_ _0165_ _0166_ VDD VSS gf180mcu_fd_sc_mcu9t5v0__clkbuf_8
X_1641_ input_buffer\[4\]\[0\] net36 _0166_ _0133_ VDD VSS
+ gf180mcu_fd_sc_mcu9t5v0__mux2_2