
* cell pulse_width_detector
* pin threshold[1]
* pin threshold[0]
* pin PWELL
* pin NWELL
* pin threshold[2]
* pin threshold[3]
* pin pulse_detected
* pin signal_in
* pin clk
* pin rst
* pin threshold[7]
* pin threshold[4]
* pin threshold[5]
* pin threshold[6]
.SUBCKT pulse_width_detector 1 2 3 4 21 51 56 64 77 80 106 107 115 121
* net 1 threshold[1]
* net 2 threshold[0]
* net 3 PWELL
* net 4 NWELL
* net 21 threshold[2]
* net 51 threshold[3]
* net 56 pulse_detected
* net 64 signal_in
* net 77 clk
* net 80 rst
* net 106 threshold[7]
* net 107 threshold[4]
* net 115 threshold[5]
* net 121 threshold[6]
* cell instance $6 r0 *1 25.84,1.4
X$6 1 3 4 5 BUF_X1
* cell instance $12 r0 *1 26.41,1.4
X$12 2 3 4 7 BUF_X1
* cell instance $13 m0 *1 16.34,21
X$13 68 3 4 17 CLKBUF_X3
* cell instance $15 m0 *1 17.29,21
X$15 17 3 4 126 INV_X1
* cell instance $18 m0 *1 22.23,21
X$18 77 3 4 68 CLKBUF_X3
* cell instance $37 r0 *1 23.94,21
X$37 65 76 3 4 84 NAND2_X1
* cell instance $41 r0 *1 27.17,21
X$41 55 76 3 4 78 NAND2_X1
* cell instance $43 r0 *1 27.93,21
X$43 12 83 3 4 79 NAND2_X1
* cell instance $44 r0 *1 28.5,21
X$44 12 76 3 4 92 NAND2_X1
* cell instance $57 m0 *1 3.04,18.2
X$57 64 3 4 52 BUF_X1
* cell instance $69 m0 *1 14.82,18.2
X$69 3 17 52 8 48 4 DFFR_X2
* cell instance $71 m0 *1 19,18.2
X$71 48 32 4 72 3 XOR2_X2
* cell instance $72 m0 *1 20.71,18.2
X$72 48 32 3 4 53 NAND2_X2
* cell instance $75 m0 *1 22.23,18.2
X$75 54 32 3 4 73 NAND2_X1
* cell instance $77 m0 *1 22.8,18.2
X$77 74 71 72 3 4 63 NOR3_X1
* cell instance $79 m0 *1 23.75,18.2
X$79 67 65 3 4 62 NOR2_X1
* cell instance $81 m0 *1 24.51,18.2
X$81 69 54 12 3 67 4 AOI21_X1
* cell instance $82 m0 *1 25.27,18.2
X$82 53 75 66 3 69 4 AOI21_X1
* cell instance $83 m0 *1 26.03,18.2
X$83 54 3 4 75 INV_X1
* cell instance $86 m0 *1 27.36,18.2
X$86 68 3 4 20 CLKBUF_X3
* cell instance $92 r0 *1 23.37,18.2
X$92 73 66 70 55 65 4 3 AOI211_X2
* cell instance $93 r0 *1 25.08,18.2
X$93 55 70 4 3 43 AND2_X1
* cell instance $199 r0 *1 26.79,4.2
X$199 7 3 4 6 INV_X1
* cell instance $225 r0 *1 26.41,9.8
X$225 9 5 10 4 3 11 HA_X1
* cell instance $226 r0 *1 28.31,9.8
X$226 13 6 16 4 3 15 HA_X1
* cell instance $227 r0 *1 30.21,9.8
X$227 11 3 4 23 INV_X1
* cell instance $274 m0 *1 21.47,26.6
X$274 3 17 116 94 122 8 4 DFFR_X1
* cell instance $283 r0 *1 34.58,26.6
X$283 123 124 97 4 3 119 HA_X1
* cell instance $284 m0 *1 34.58,26.6
X$284 108 118 87 4 3 120 HA_X1
* cell instance $285 m0 *1 36.48,26.6
X$285 119 97 120 3 114 4 AOI21_X1
* cell instance $288 r0 *1 37.05,26.6
X$288 121 3 4 124 BUF_X1
* cell instance $289 m0 *1 37.24,26.6
X$289 115 3 4 118 BUF_X1
* cell instance $291 m0 *1 37.81,26.6
X$291 106 3 4 117 BUF_X1
* cell instance $310 r0 *1 16.91,23.8
X$310 3 17 108 85 109 8 4 DFFR_X1
* cell instance $311 m0 *1 20.14,23.8
X$311 99 72 3 4 109 NOR2_X1
* cell instance $314 m0 *1 21.47,23.8
X$314 85 84 3 4 99 XOR2_X1
* cell instance $319 r0 *1 21.85,23.8
X$319 102 72 3 4 122 NOR2_X1
* cell instance $323 r0 *1 23.75,23.8
X$323 94 110 3 4 102 XOR2_X1
* cell instance $324 m0 *1 24.7,23.8
X$324 55 76 85 3 4 95 NAND3_X1
* cell instance $325 m0 *1 23.75,23.8
X$325 65 83 76 85 3 4 110 NAND4_X1
* cell instance $326 m0 *1 25.46,23.8
X$326 85 76 83 94 4 3 70 AND4_X1
* cell instance $327 m0 *1 26.6,23.8
X$327 76 55 3 4 93 OR2_X1
* cell instance $328 m0 *1 27.36,23.8
X$328 70 78 93 4 103 3 OAI21_X1
* cell instance $329 m0 *1 28.12,23.8
X$329 53 103 92 4 82 3 OAI21_X1
* cell instance $330 m0 *1 28.88,23.8
X$330 3 20 81 91 82 8 4 DFFR_X1
* cell instance $331 m0 *1 32.68,23.8
X$331 91 3 4 76 BUF_X2
* cell instance $333 r0 *1 24.89,23.8
X$333 95 94 3 4 113 NOR2_X1
* cell instance $334 r0 *1 25.46,23.8
X$334 95 83 113 3 4 112 MUX2_X1
* cell instance $337 r0 *1 27.74,23.8
X$337 53 112 79 4 104 3 OAI21_X1
* cell instance $338 r0 *1 28.5,23.8
X$338 3 20 123 83 104 8 4 DFFR_X1
* cell instance $339 r0 *1 32.3,23.8
X$339 90 3 4 8 INV_X4
* cell instance $340 r0 *1 33.25,23.8
X$340 111 53 101 3 4 60 OR3_X1
* cell instance $342 m0 *1 33.82,23.8
X$342 98 3 4 90 BUF_X1
* cell instance $343 m0 *1 34.58,23.8
X$343 89 87 97 86 3 4 50 NAND4_X1
* cell instance $344 m0 *1 35.53,23.8
X$344 86 3 4 100 INV_X1
* cell instance $346 m0 *1 36.1,23.8
X$346 87 97 96 3 4 105 NAND3_X1
* cell instance $347 m0 *1 36.86,23.8
X$347 81 88 89 4 3 96 HA_X1
* cell instance $350 r0 *1 34.58,23.8
X$350 116 117 86 4 3 111 HA_X1
* cell instance $351 r0 *1 36.48,23.8
X$351 100 114 105 3 101 4 AOI21_X1
* cell instance $352 r0 *1 37.24,23.8
X$352 80 3 4 98 CLKBUF_X1
* cell instance $353 r0 *1 37.81,23.8
X$353 107 3 4 88 BUF_X1
* cell instance $370 r0 *1 15.96,15.4
X$370 52 4 32 3 BUF_X4
* cell instance $373 m0 *1 19.95,15.4
X$373 31 53 18 4 22 3 OAI21_X1
* cell instance $375 m0 *1 21.66,15.4
X$375 32 48 4 3 30 AND2_X1
* cell instance $376 m0 *1 22.42,15.4
X$376 35 29 32 3 4 34 NAND3_X1
* cell instance $380 m0 *1 31.54,15.4
X$380 30 47 49 12 3 4 59 AOI22_X1
* cell instance $381 m0 *1 32.49,15.4
X$381 36 50 39 4 47 3 OAI21_X1
* cell instance $382 m0 *1 33.25,15.4
X$382 49 3 4 39 INV_X1
* cell instance $383 m0 *1 33.63,15.4
X$383 50 40 38 3 58 4 AOI21_X1
* cell instance $385 m0 *1 34.58,15.4
X$385 57 42 37 4 3 41 HA_X1
* cell instance $389 r0 *1 20.9,15.4
X$389 48 32 3 4 12 NOR2_X2
* cell instance $391 r0 *1 22.04,15.4
X$391 34 43 3 4 71 NOR2_X1
* cell instance $392 r0 *1 22.61,15.4
X$392 29 32 35 3 74 4 AOI21_X1
* cell instance $394 r0 *1 23.75,15.4
X$394 54 29 35 4 3 55 AND3_X1
* cell instance $395 r0 *1 24.7,15.4
X$395 3 20 57 54 62 8 4 DFFR_X1
* cell instance $398 r0 *1 29.07,15.4
X$398 3 20 125 49 61 8 4 DFFR_X1
* cell instance $399 r0 *1 32.87,15.4
X$399 60 58 59 4 61 3 OAI21_X1
* cell instance $403 r0 *1 36.1,15.4
X$403 49 3 4 56 BUF_X1
* cell instance $405 m0 *1 37.05,15.4
X$405 51 3 4 42 BUF_X1
* cell instance $418 m0 *1 15.77,12.6
X$418 3 17 22 8 13 4 DFFR_X2
* cell instance $421 m0 *1 20.9,12.6
X$421 12 13 3 4 18 NAND2_X1
* cell instance $431 r0 *1 19.38,12.6
X$431 13 43 3 4 31 XOR2_X1
* cell instance $432 r0 *1 20.52,12.6
X$432 46 43 26 3 4 33 MUX2_X1
* cell instance $433 r0 *1 21.85,12.6
X$433 30 33 26 12 3 4 19 AOI22_X1
* cell instance $434 m0 *1 21.85,12.6
X$434 19 3 4 14 INV_X1
* cell instance $435 m0 *1 22.23,12.6
X$435 3 20 9 26 14 8 4 DFFR_X1
* cell instance $438 r0 *1 22.8,12.6
X$438 13 26 46 4 3 35 HA_X1
* cell instance $440 r0 *1 25.08,12.6
X$440 26 13 29 3 4 66 NAND3_X1
* cell instance $442 r0 *1 26.22,12.6
X$442 3 20 28 29 63 8 4 DFFR_X1
* cell instance $443 m0 *1 29.45,12.6
X$443 10 3 4 25 INV_X1
* cell instance $444 m0 *1 29.83,12.6
X$444 25 15 23 4 24 3 OAI21_X1
* cell instance $449 r0 *1 30.78,12.6
X$449 16 10 27 37 3 4 36 NAND4_X1
* cell instance $451 r0 *1 32.11,12.6
X$451 24 27 37 3 4 38 NAND3_X1
* cell instance $454 r0 *1 33.44,12.6
X$454 28 44 27 4 3 45 HA_X1
* cell instance $455 r0 *1 35.34,12.6
X$455 41 37 45 3 40 4 AOI21_X1
* cell instance $457 r0 *1 36.48,12.6
X$457 21 3 4 44 BUF_X1
.ENDS pulse_width_detector

* cell NOR2_X2
* pin A2
* pin A1
* pin PWELL,VSS
* pin NWELL,VDD
* pin ZN
.SUBCKT NOR2_X2 1 2 3 4 5
* net 1 A2
* net 2 A1
* net 3 PWELL,VSS
* net 4 NWELL,VDD
* net 5 ZN
* device instance $1 r0 *1 0.21,0.995 PMOS_VTL
M$1 7 1 4 4 PMOS_VTL L=0.05U W=0.63U AS=0.06615P AD=0.0441P PS=1.47U PD=0.77U
* device instance $2 r0 *1 0.4,0.995 PMOS_VTL
M$2 5 2 7 4 PMOS_VTL L=0.05U W=0.63U AS=0.0441P AD=0.0441P PS=0.77U PD=0.77U
* device instance $3 r0 *1 0.59,0.995 PMOS_VTL
M$3 6 2 5 4 PMOS_VTL L=0.05U W=0.63U AS=0.0441P AD=0.0441P PS=0.77U PD=0.77U
* device instance $4 r0 *1 0.78,0.995 PMOS_VTL
M$4 4 1 6 4 PMOS_VTL L=0.05U W=0.63U AS=0.0441P AD=0.06615P PS=0.77U PD=1.47U
* device instance $5 r0 *1 0.21,0.2975 NMOS_VTL
M$5 5 1 3 3 NMOS_VTL L=0.05U W=0.83U AS=0.072625P AD=0.072625P PS=1.595U
+ PD=1.595U
* device instance $6 r0 *1 0.4,0.2975 NMOS_VTL
M$6 3 2 5 3 NMOS_VTL L=0.05U W=0.83U AS=0.0581P AD=0.0581P PS=1.11U PD=1.11U
.ENDS NOR2_X2

* cell AND3_X1
* pin A1
* pin A2
* pin A3
* pin NWELL,VDD
* pin PWELL,VSS
* pin ZN
.SUBCKT AND3_X1 1 2 3 5 6 7
* net 1 A1
* net 2 A2
* net 3 A3
* net 5 NWELL,VDD
* net 6 PWELL,VSS
* net 7 ZN
* device instance $1 r0 *1 0.17,1.1525 PMOS_VTL
M$1 5 1 4 5 PMOS_VTL L=0.05U W=0.315U AS=0.033075P AD=0.02205P PS=0.84U
+ PD=0.455U
* device instance $2 r0 *1 0.36,1.1525 PMOS_VTL
M$2 4 2 5 5 PMOS_VTL L=0.05U W=0.315U AS=0.02205P AD=0.02205P PS=0.455U
+ PD=0.455U
* device instance $3 r0 *1 0.55,1.1525 PMOS_VTL
M$3 4 3 5 5 PMOS_VTL L=0.05U W=0.315U AS=0.033075P AD=0.02205P PS=0.77U
+ PD=0.455U
* device instance $4 r0 *1 0.74,0.995 PMOS_VTL
M$4 7 4 5 5 PMOS_VTL L=0.05U W=0.63U AS=0.033075P AD=0.06615P PS=0.77U PD=1.47U
* device instance $5 r0 *1 0.17,0.195 NMOS_VTL
M$5 8 1 4 6 NMOS_VTL L=0.05U W=0.21U AS=0.02205P AD=0.0147P PS=0.63U PD=0.35U
* device instance $6 r0 *1 0.36,0.195 NMOS_VTL
M$6 9 2 8 6 NMOS_VTL L=0.05U W=0.21U AS=0.0147P AD=0.0147P PS=0.35U PD=0.35U
* device instance $7 r0 *1 0.55,0.195 NMOS_VTL
M$7 6 3 9 6 NMOS_VTL L=0.05U W=0.21U AS=0.0147P AD=0.021875P PS=0.35U PD=0.555U
* device instance $8 r0 *1 0.74,0.2975 NMOS_VTL
M$8 7 4 6 6 NMOS_VTL L=0.05U W=0.415U AS=0.021875P AD=0.043575P PS=0.555U
+ PD=1.04U
.ENDS AND3_X1

* cell NAND2_X2
* pin A2
* pin A1
* pin PWELL,VSS
* pin NWELL,VDD
* pin ZN
.SUBCKT NAND2_X2 1 2 3 4 5
* net 1 A2
* net 2 A1
* net 3 PWELL,VSS
* net 4 NWELL,VDD
* net 5 ZN
* device instance $1 r0 *1 0.195,0.995 PMOS_VTL
M$1 5 1 4 4 PMOS_VTL L=0.05U W=1.26U AS=0.11025P AD=0.11025P PS=2.24U PD=2.24U
* device instance $2 r0 *1 0.385,0.995 PMOS_VTL
M$2 4 2 5 4 PMOS_VTL L=0.05U W=1.26U AS=0.0882P AD=0.0882P PS=1.54U PD=1.54U
* device instance $5 r0 *1 0.195,0.2975 NMOS_VTL
M$5 7 1 3 3 NMOS_VTL L=0.05U W=0.415U AS=0.043575P AD=0.02905P PS=1.04U
+ PD=0.555U
* device instance $6 r0 *1 0.385,0.2975 NMOS_VTL
M$6 5 2 7 3 NMOS_VTL L=0.05U W=0.415U AS=0.02905P AD=0.02905P PS=0.555U
+ PD=0.555U
* device instance $7 r0 *1 0.575,0.2975 NMOS_VTL
M$7 6 2 5 3 NMOS_VTL L=0.05U W=0.415U AS=0.02905P AD=0.02905P PS=0.555U
+ PD=0.555U
* device instance $8 r0 *1 0.765,0.2975 NMOS_VTL
M$8 3 1 6 3 NMOS_VTL L=0.05U W=0.415U AS=0.02905P AD=0.043575P PS=0.555U
+ PD=1.04U
.ENDS NAND2_X2

* cell NOR3_X1
* pin A3
* pin A2
* pin A1
* pin PWELL,VSS
* pin NWELL,VDD
* pin ZN
.SUBCKT NOR3_X1 1 2 3 4 5 6
* net 1 A3
* net 2 A2
* net 3 A1
* net 4 PWELL,VSS
* net 5 NWELL,VDD
* net 6 ZN
* device instance $1 r0 *1 0.17,0.995 PMOS_VTL
M$1 8 1 5 5 PMOS_VTL L=0.05U W=0.63U AS=0.06615P AD=0.0441P PS=1.47U PD=0.77U
* device instance $2 r0 *1 0.36,0.995 PMOS_VTL
M$2 7 2 8 5 PMOS_VTL L=0.05U W=0.63U AS=0.0441P AD=0.0441P PS=0.77U PD=0.77U
* device instance $3 r0 *1 0.55,0.995 PMOS_VTL
M$3 6 3 7 5 PMOS_VTL L=0.05U W=0.63U AS=0.0441P AD=0.06615P PS=0.77U PD=1.47U
* device instance $4 r0 *1 0.17,0.2975 NMOS_VTL
M$4 6 1 4 4 NMOS_VTL L=0.05U W=0.415U AS=0.043575P AD=0.02905P PS=1.04U
+ PD=0.555U
* device instance $5 r0 *1 0.36,0.2975 NMOS_VTL
M$5 4 2 6 4 NMOS_VTL L=0.05U W=0.415U AS=0.02905P AD=0.02905P PS=0.555U
+ PD=0.555U
* device instance $6 r0 *1 0.55,0.2975 NMOS_VTL
M$6 6 3 4 4 NMOS_VTL L=0.05U W=0.415U AS=0.02905P AD=0.043575P PS=0.555U
+ PD=1.04U
.ENDS NOR3_X1

* cell AOI22_X1
* pin B2
* pin B1
* pin A1
* pin A2
* pin PWELL,VSS
* pin NWELL,VDD
* pin ZN
.SUBCKT AOI22_X1 1 2 3 4 5 7 8
* net 1 B2
* net 2 B1
* net 3 A1
* net 4 A2
* net 5 PWELL,VSS
* net 7 NWELL,VDD
* net 8 ZN
* device instance $1 r0 *1 0.185,0.995 PMOS_VTL
M$1 7 1 6 7 PMOS_VTL L=0.05U W=0.63U AS=0.06615P AD=0.0441P PS=1.47U PD=0.77U
* device instance $2 r0 *1 0.375,0.995 PMOS_VTL
M$2 6 2 7 7 PMOS_VTL L=0.05U W=0.63U AS=0.0441P AD=0.0441P PS=0.77U PD=0.77U
* device instance $3 r0 *1 0.565,0.995 PMOS_VTL
M$3 8 3 6 7 PMOS_VTL L=0.05U W=0.63U AS=0.0441P AD=0.0441P PS=0.77U PD=0.77U
* device instance $4 r0 *1 0.755,0.995 PMOS_VTL
M$4 6 4 8 7 PMOS_VTL L=0.05U W=0.63U AS=0.0441P AD=0.06615P PS=0.77U PD=1.47U
* device instance $5 r0 *1 0.185,0.2975 NMOS_VTL
M$5 10 1 5 5 NMOS_VTL L=0.05U W=0.415U AS=0.043575P AD=0.02905P PS=1.04U
+ PD=0.555U
* device instance $6 r0 *1 0.375,0.2975 NMOS_VTL
M$6 8 2 10 5 NMOS_VTL L=0.05U W=0.415U AS=0.02905P AD=0.02905P PS=0.555U
+ PD=0.555U
* device instance $7 r0 *1 0.565,0.2975 NMOS_VTL
M$7 9 3 8 5 NMOS_VTL L=0.05U W=0.415U AS=0.02905P AD=0.02905P PS=0.555U
+ PD=0.555U
* device instance $8 r0 *1 0.755,0.2975 NMOS_VTL
M$8 5 4 9 5 NMOS_VTL L=0.05U W=0.415U AS=0.02905P AD=0.043575P PS=0.555U
+ PD=1.04U
.ENDS AOI22_X1

* cell BUF_X4
* pin A
* pin NWELL,VDD
* pin Z
* pin PWELL,VSS
.SUBCKT BUF_X4 1 3 4 5
* net 1 A
* net 3 NWELL,VDD
* net 4 Z
* net 5 PWELL,VSS
* device instance $1 r0 *1 0.17,0.995 PMOS_VTL
M$1 2 1 3 3 PMOS_VTL L=0.05U W=1.26U AS=0.11025P AD=0.0882P PS=2.24U PD=1.54U
* device instance $3 r0 *1 0.55,0.995 PMOS_VTL
M$3 4 2 3 3 PMOS_VTL L=0.05U W=2.52U AS=0.1764P AD=0.19845P PS=3.08U PD=3.78U
* device instance $7 r0 *1 0.17,0.2975 NMOS_VTL
M$7 2 1 5 5 NMOS_VTL L=0.05U W=0.83U AS=0.072625P AD=0.0581P PS=1.595U PD=1.11U
* device instance $9 r0 *1 0.55,0.2975 NMOS_VTL
M$9 4 2 5 5 NMOS_VTL L=0.05U W=1.66U AS=0.1162P AD=0.130725P PS=2.22U PD=2.705U
.ENDS BUF_X4

* cell BUF_X1
* pin A
* pin PWELL,VSS
* pin NWELL,VDD
* pin Z
.SUBCKT BUF_X1 1 3 4 5
* net 1 A
* net 3 PWELL,VSS
* net 4 NWELL,VDD
* net 5 Z
* device instance $1 r0 *1 0.17,1.1525 PMOS_VTL
M$1 2 1 4 4 PMOS_VTL L=0.05U W=0.315U AS=0.033075P AD=0.033075P PS=0.77U
+ PD=0.84U
* device instance $2 r0 *1 0.36,0.995 PMOS_VTL
M$2 5 2 4 4 PMOS_VTL L=0.05U W=0.63U AS=0.033075P AD=0.06615P PS=0.77U PD=1.47U
* device instance $3 r0 *1 0.17,0.195 NMOS_VTL
M$3 3 1 2 3 NMOS_VTL L=0.05U W=0.21U AS=0.02205P AD=0.021875P PS=0.63U PD=0.555U
* device instance $4 r0 *1 0.36,0.2975 NMOS_VTL
M$4 5 2 3 3 NMOS_VTL L=0.05U W=0.415U AS=0.021875P AD=0.043575P PS=0.555U
+ PD=1.04U
.ENDS BUF_X1

* cell CLKBUF_X1
* pin A
* pin PWELL,VSS
* pin NWELL,VDD
* pin Z
.SUBCKT CLKBUF_X1 1 3 4 5
* net 1 A
* net 3 PWELL,VSS
* net 4 NWELL,VDD
* net 5 Z
* device instance $1 r0 *1 0.19,1.1525 PMOS_VTL
M$1 2 1 4 4 PMOS_VTL L=0.05U W=0.315U AS=0.033075P AD=0.033075P PS=0.77U
+ PD=0.84U
* device instance $2 r0 *1 0.38,0.995 PMOS_VTL
M$2 5 2 4 4 PMOS_VTL L=0.05U W=0.63U AS=0.033075P AD=0.06615P PS=0.77U PD=1.47U
* device instance $3 r0 *1 0.19,0.2075 NMOS_VTL
M$3 3 1 2 3 NMOS_VTL L=0.05U W=0.095U AS=0.009975P AD=0.01015P PS=0.4U PD=0.335U
* device instance $4 r0 *1 0.38,0.2575 NMOS_VTL
M$4 5 2 3 3 NMOS_VTL L=0.05U W=0.195U AS=0.01015P AD=0.020475P PS=0.335U PD=0.6U
.ENDS CLKBUF_X1

* cell INV_X4
* pin A
* pin PWELL,VSS
* pin NWELL,VDD
* pin ZN
.SUBCKT INV_X4 1 2 3 4
* net 1 A
* net 2 PWELL,VSS
* net 3 NWELL,VDD
* net 4 ZN
* device instance $1 r0 *1 0.17,0.995 PMOS_VTL
M$1 4 1 3 3 PMOS_VTL L=0.05U W=2.52U AS=0.19845P AD=0.19845P PS=3.78U PD=3.78U
* device instance $5 r0 *1 0.17,0.2975 NMOS_VTL
M$5 4 1 2 2 NMOS_VTL L=0.05U W=1.66U AS=0.130725P AD=0.130725P PS=2.705U
+ PD=2.705U
.ENDS INV_X4

* cell HA_X1
* pin A
* pin B
* pin S
* pin NWELL,VDD
* pin PWELL,VSS
* pin CO
.SUBCKT HA_X1 1 2 4 5 6 9
* net 1 A
* net 2 B
* net 4 S
* net 5 NWELL,VDD
* net 6 PWELL,VSS
* net 9 CO
* device instance $1 r0 *1 0.785,1.0275 PMOS_VTL
M$1 10 2 5 5 PMOS_VTL L=0.05U W=0.315U AS=0.0338625P AD=0.02205P PS=0.775U
+ PD=0.455U
* device instance $2 r0 *1 0.975,1.0275 PMOS_VTL
M$2 7 1 10 5 PMOS_VTL L=0.05U W=0.315U AS=0.02205P AD=0.033075P PS=0.455U
+ PD=0.84U
* device instance $3 r0 *1 0.21,0.995 PMOS_VTL
M$3 4 2 3 5 PMOS_VTL L=0.05U W=0.63U AS=0.06615P AD=0.0441P PS=1.47U PD=0.77U
* device instance $4 r0 *1 0.4,0.995 PMOS_VTL
M$4 3 1 4 5 PMOS_VTL L=0.05U W=0.63U AS=0.0441P AD=0.0441P PS=0.77U PD=0.77U
* device instance $5 r0 *1 0.59,0.995 PMOS_VTL
M$5 5 7 3 5 PMOS_VTL L=0.05U W=0.63U AS=0.0441P AD=0.0338625P PS=0.77U PD=0.775U
* device instance $6 r0 *1 1.345,1.0275 PMOS_VTL
M$6 8 1 5 5 PMOS_VTL L=0.05U W=0.315U AS=0.033075P AD=0.02205P PS=0.84U
+ PD=0.455U
* device instance $7 r0 *1 1.535,1.0275 PMOS_VTL
M$7 8 2 5 5 PMOS_VTL L=0.05U W=0.315U AS=0.033075P AD=0.02205P PS=0.77U
+ PD=0.455U
* device instance $8 r0 *1 1.725,0.995 PMOS_VTL
M$8 9 8 5 5 PMOS_VTL L=0.05U W=0.63U AS=0.033075P AD=0.06615P PS=0.77U PD=1.47U
* device instance $9 r0 *1 1.345,0.195 NMOS_VTL
M$9 12 1 8 6 NMOS_VTL L=0.05U W=0.21U AS=0.02205P AD=0.0147P PS=0.63U PD=0.35U
* device instance $10 r0 *1 1.535,0.195 NMOS_VTL
M$10 6 2 12 6 NMOS_VTL L=0.05U W=0.21U AS=0.0147P AD=0.021875P PS=0.35U
+ PD=0.555U
* device instance $11 r0 *1 1.725,0.2975 NMOS_VTL
M$11 9 8 6 6 NMOS_VTL L=0.05U W=0.415U AS=0.021875P AD=0.043575P PS=0.555U
+ PD=1.04U
* device instance $12 r0 *1 0.785,0.195 NMOS_VTL
M$12 7 2 6 6 NMOS_VTL L=0.05U W=0.21U AS=0.0224P AD=0.0147P PS=0.56U PD=0.35U
* device instance $13 r0 *1 0.975,0.195 NMOS_VTL
M$13 6 1 7 6 NMOS_VTL L=0.05U W=0.21U AS=0.0147P AD=0.02205P PS=0.35U PD=0.63U
* device instance $14 r0 *1 0.21,0.2975 NMOS_VTL
M$14 11 2 6 6 NMOS_VTL L=0.05U W=0.415U AS=0.043575P AD=0.02905P PS=1.04U
+ PD=0.555U
* device instance $15 r0 *1 0.4,0.2975 NMOS_VTL
M$15 4 1 11 6 NMOS_VTL L=0.05U W=0.415U AS=0.02905P AD=0.02905P PS=0.555U
+ PD=0.555U
* device instance $16 r0 *1 0.59,0.2975 NMOS_VTL
M$16 6 7 4 6 NMOS_VTL L=0.05U W=0.415U AS=0.02905P AD=0.0224P PS=0.555U PD=0.56U
.ENDS HA_X1

* cell OR3_X1
* pin A1
* pin A2
* pin A3
* pin PWELL,VSS
* pin NWELL,VDD
* pin ZN
.SUBCKT OR3_X1 1 2 3 5 6 7
* net 1 A1
* net 2 A2
* net 3 A3
* net 5 PWELL,VSS
* net 6 NWELL,VDD
* net 7 ZN
* device instance $1 r0 *1 0.17,1.1525 PMOS_VTL
M$1 9 1 4 6 PMOS_VTL L=0.05U W=0.315U AS=0.033075P AD=0.02205P PS=0.84U
+ PD=0.455U
* device instance $2 r0 *1 0.36,1.1525 PMOS_VTL
M$2 8 2 9 6 PMOS_VTL L=0.05U W=0.315U AS=0.02205P AD=0.02205P PS=0.455U
+ PD=0.455U
* device instance $3 r0 *1 0.55,1.1525 PMOS_VTL
M$3 8 3 6 6 PMOS_VTL L=0.05U W=0.315U AS=0.033075P AD=0.02205P PS=0.77U
+ PD=0.455U
* device instance $4 r0 *1 0.74,0.995 PMOS_VTL
M$4 7 4 6 6 PMOS_VTL L=0.05U W=0.63U AS=0.033075P AD=0.06615P PS=0.77U PD=1.47U
* device instance $5 r0 *1 0.17,0.195 NMOS_VTL
M$5 5 1 4 5 NMOS_VTL L=0.05U W=0.21U AS=0.02205P AD=0.0147P PS=0.63U PD=0.35U
* device instance $6 r0 *1 0.36,0.195 NMOS_VTL
M$6 4 2 5 5 NMOS_VTL L=0.05U W=0.21U AS=0.0147P AD=0.0147P PS=0.35U PD=0.35U
* device instance $7 r0 *1 0.55,0.195 NMOS_VTL
M$7 5 3 4 5 NMOS_VTL L=0.05U W=0.21U AS=0.0147P AD=0.021875P PS=0.35U PD=0.555U
* device instance $8 r0 *1 0.74,0.2975 NMOS_VTL
M$8 7 4 5 5 NMOS_VTL L=0.05U W=0.415U AS=0.021875P AD=0.043575P PS=0.555U
+ PD=1.04U
.ENDS OR3_X1

* cell AOI21_X1
* pin A
* pin B2
* pin B1
* pin PWELL,VSS
* pin ZN
* pin NWELL,VDD
.SUBCKT AOI21_X1 1 2 3 4 6 7
* net 1 A
* net 2 B2
* net 3 B1
* net 4 PWELL,VSS
* net 6 ZN
* net 7 NWELL,VDD
* device instance $1 r0 *1 0.21,0.995 PMOS_VTL
M$1 6 2 5 7 PMOS_VTL L=0.05U W=0.63U AS=0.06615P AD=0.0441P PS=1.47U PD=0.77U
* device instance $2 r0 *1 0.4,0.995 PMOS_VTL
M$2 5 3 6 7 PMOS_VTL L=0.05U W=0.63U AS=0.0441P AD=0.0441P PS=0.77U PD=0.77U
* device instance $3 r0 *1 0.59,0.995 PMOS_VTL
M$3 7 1 5 7 PMOS_VTL L=0.05U W=0.63U AS=0.0441P AD=0.06615P PS=0.77U PD=1.47U
* device instance $4 r0 *1 0.21,0.2975 NMOS_VTL
M$4 8 2 4 4 NMOS_VTL L=0.05U W=0.415U AS=0.043575P AD=0.02905P PS=1.04U
+ PD=0.555U
* device instance $5 r0 *1 0.4,0.2975 NMOS_VTL
M$5 6 3 8 4 NMOS_VTL L=0.05U W=0.415U AS=0.02905P AD=0.02905P PS=0.555U
+ PD=0.555U
* device instance $6 r0 *1 0.59,0.2975 NMOS_VTL
M$6 4 1 6 4 NMOS_VTL L=0.05U W=0.415U AS=0.02905P AD=0.043575P PS=0.555U
+ PD=1.04U
.ENDS AOI21_X1

* cell BUF_X2
* pin A
* pin PWELL,VSS
* pin NWELL,VDD
* pin Z
.SUBCKT BUF_X2 1 3 4 5
* net 1 A
* net 3 PWELL,VSS
* net 4 NWELL,VDD
* net 5 Z
* device instance $1 r0 *1 0.21,0.995 PMOS_VTL
M$1 4 1 2 4 PMOS_VTL L=0.05U W=0.63U AS=0.06615P AD=0.0441P PS=1.47U PD=0.77U
* device instance $2 r0 *1 0.4,0.995 PMOS_VTL
M$2 5 2 4 4 PMOS_VTL L=0.05U W=1.26U AS=0.0882P AD=0.11025P PS=1.54U PD=2.24U
* device instance $4 r0 *1 0.21,0.2975 NMOS_VTL
M$4 3 1 2 3 NMOS_VTL L=0.05U W=0.415U AS=0.043575P AD=0.02905P PS=1.04U
+ PD=0.555U
* device instance $5 r0 *1 0.4,0.2975 NMOS_VTL
M$5 5 2 3 3 NMOS_VTL L=0.05U W=0.83U AS=0.0581P AD=0.072625P PS=1.11U PD=1.595U
.ENDS BUF_X2

* cell NAND4_X1
* pin A4
* pin A3
* pin A2
* pin A1
* pin PWELL,VSS
* pin NWELL,VDD
* pin ZN
.SUBCKT NAND4_X1 1 2 3 4 5 6 7
* net 1 A4
* net 2 A3
* net 3 A2
* net 4 A1
* net 5 PWELL,VSS
* net 6 NWELL,VDD
* net 7 ZN
* device instance $1 r0 *1 0.17,0.995 PMOS_VTL
M$1 7 1 6 6 PMOS_VTL L=0.05U W=0.63U AS=0.06615P AD=0.0441P PS=1.47U PD=0.77U
* device instance $2 r0 *1 0.36,0.995 PMOS_VTL
M$2 6 2 7 6 PMOS_VTL L=0.05U W=0.63U AS=0.0441P AD=0.0441P PS=0.77U PD=0.77U
* device instance $3 r0 *1 0.55,0.995 PMOS_VTL
M$3 7 3 6 6 PMOS_VTL L=0.05U W=0.63U AS=0.0441P AD=0.0441P PS=0.77U PD=0.77U
* device instance $4 r0 *1 0.74,0.995 PMOS_VTL
M$4 6 4 7 6 PMOS_VTL L=0.05U W=0.63U AS=0.0441P AD=0.06615P PS=0.77U PD=1.47U
* device instance $5 r0 *1 0.17,0.2975 NMOS_VTL
M$5 10 1 5 5 NMOS_VTL L=0.05U W=0.415U AS=0.043575P AD=0.02905P PS=1.04U
+ PD=0.555U
* device instance $6 r0 *1 0.36,0.2975 NMOS_VTL
M$6 9 2 10 5 NMOS_VTL L=0.05U W=0.415U AS=0.02905P AD=0.02905P PS=0.555U
+ PD=0.555U
* device instance $7 r0 *1 0.55,0.2975 NMOS_VTL
M$7 8 3 9 5 NMOS_VTL L=0.05U W=0.415U AS=0.02905P AD=0.02905P PS=0.555U
+ PD=0.555U
* device instance $8 r0 *1 0.74,0.2975 NMOS_VTL
M$8 7 4 8 5 NMOS_VTL L=0.05U W=0.415U AS=0.02905P AD=0.043575P PS=0.555U
+ PD=1.04U
.ENDS NAND4_X1

* cell OR2_X1
* pin A1
* pin A2
* pin PWELL,VSS
* pin NWELL,VDD
* pin ZN
.SUBCKT OR2_X1 1 2 3 5 6
* net 1 A1
* net 2 A2
* net 3 PWELL,VSS
* net 5 NWELL,VDD
* net 6 ZN
* device instance $1 r0 *1 0.17,1.1525 PMOS_VTL
M$1 7 1 4 5 PMOS_VTL L=0.05U W=0.315U AS=0.033075P AD=0.02205P PS=0.84U
+ PD=0.455U
* device instance $2 r0 *1 0.36,1.1525 PMOS_VTL
M$2 7 2 5 5 PMOS_VTL L=0.05U W=0.315U AS=0.033075P AD=0.02205P PS=0.77U
+ PD=0.455U
* device instance $3 r0 *1 0.55,0.995 PMOS_VTL
M$3 6 4 5 5 PMOS_VTL L=0.05U W=0.63U AS=0.033075P AD=0.06615P PS=0.77U PD=1.47U
* device instance $4 r0 *1 0.17,0.195 NMOS_VTL
M$4 4 1 3 3 NMOS_VTL L=0.05U W=0.21U AS=0.02205P AD=0.0147P PS=0.63U PD=0.35U
* device instance $5 r0 *1 0.36,0.195 NMOS_VTL
M$5 3 2 4 3 NMOS_VTL L=0.05U W=0.21U AS=0.0147P AD=0.021875P PS=0.35U PD=0.555U
* device instance $6 r0 *1 0.55,0.2975 NMOS_VTL
M$6 6 4 3 3 NMOS_VTL L=0.05U W=0.415U AS=0.021875P AD=0.043575P PS=0.555U
+ PD=1.04U
.ENDS OR2_X1

* cell NAND3_X1
* pin A3
* pin A2
* pin A1
* pin PWELL,VSS
* pin NWELL,VDD
* pin ZN
.SUBCKT NAND3_X1 1 2 3 4 5 6
* net 1 A3
* net 2 A2
* net 3 A1
* net 4 PWELL,VSS
* net 5 NWELL,VDD
* net 6 ZN
* device instance $1 r0 *1 0.17,0.995 PMOS_VTL
M$1 6 1 5 5 PMOS_VTL L=0.05U W=0.63U AS=0.06615P AD=0.0441P PS=1.47U PD=0.77U
* device instance $2 r0 *1 0.36,0.995 PMOS_VTL
M$2 5 2 6 5 PMOS_VTL L=0.05U W=0.63U AS=0.0441P AD=0.0441P PS=0.77U PD=0.77U
* device instance $3 r0 *1 0.55,0.995 PMOS_VTL
M$3 6 3 5 5 PMOS_VTL L=0.05U W=0.63U AS=0.0441P AD=0.06615P PS=0.77U PD=1.47U
* device instance $4 r0 *1 0.17,0.2975 NMOS_VTL
M$4 8 1 4 4 NMOS_VTL L=0.05U W=0.415U AS=0.043575P AD=0.02905P PS=1.04U
+ PD=0.555U
* device instance $5 r0 *1 0.36,0.2975 NMOS_VTL
M$5 7 2 8 4 NMOS_VTL L=0.05U W=0.415U AS=0.02905P AD=0.02905P PS=0.555U
+ PD=0.555U
* device instance $6 r0 *1 0.55,0.2975 NMOS_VTL
M$6 6 3 7 4 NMOS_VTL L=0.05U W=0.415U AS=0.02905P AD=0.043575P PS=0.555U
+ PD=1.04U
.ENDS NAND3_X1

* cell MUX2_X1
* pin A
* pin S
* pin B
* pin PWELL,VSS
* pin NWELL,VDD
* pin Z
.SUBCKT MUX2_X1 1 2 3 5 6 8
* net 1 A
* net 2 S
* net 3 B
* net 5 PWELL,VSS
* net 6 NWELL,VDD
* net 8 Z
* device instance $1 r0 *1 0.17,1.1525 PMOS_VTL
M$1 6 2 4 6 PMOS_VTL L=0.05U W=0.315U AS=0.033075P AD=0.02205P PS=0.84U
+ PD=0.455U
* device instance $2 r0 *1 0.36,1.1525 PMOS_VTL
M$2 9 1 6 6 PMOS_VTL L=0.05U W=0.315U AS=0.02205P AD=0.02205P PS=0.455U
+ PD=0.455U
* device instance $3 r0 *1 0.55,1.1525 PMOS_VTL
M$3 7 2 9 6 PMOS_VTL L=0.05U W=0.315U AS=0.02205P AD=0.02205P PS=0.455U
+ PD=0.455U
* device instance $4 r0 *1 0.74,1.1525 PMOS_VTL
M$4 10 4 7 6 PMOS_VTL L=0.05U W=0.315U AS=0.02205P AD=0.02205P PS=0.455U
+ PD=0.455U
* device instance $5 r0 *1 0.93,1.1525 PMOS_VTL
M$5 10 3 6 6 PMOS_VTL L=0.05U W=0.315U AS=0.033075P AD=0.02205P PS=0.77U
+ PD=0.455U
* device instance $6 r0 *1 1.12,0.995 PMOS_VTL
M$6 8 7 6 6 PMOS_VTL L=0.05U W=0.63U AS=0.033075P AD=0.06615P PS=0.77U PD=1.47U
* device instance $7 r0 *1 0.17,0.195 NMOS_VTL
M$7 5 2 4 5 NMOS_VTL L=0.05U W=0.21U AS=0.02205P AD=0.0147P PS=0.63U PD=0.35U
* device instance $8 r0 *1 0.36,0.195 NMOS_VTL
M$8 12 1 5 5 NMOS_VTL L=0.05U W=0.21U AS=0.0147P AD=0.0147P PS=0.35U PD=0.35U
* device instance $9 r0 *1 0.55,0.195 NMOS_VTL
M$9 7 4 12 5 NMOS_VTL L=0.05U W=0.21U AS=0.0147P AD=0.0147P PS=0.35U PD=0.35U
* device instance $10 r0 *1 0.74,0.195 NMOS_VTL
M$10 11 2 7 5 NMOS_VTL L=0.05U W=0.21U AS=0.0147P AD=0.0147P PS=0.35U PD=0.35U
* device instance $11 r0 *1 0.93,0.195 NMOS_VTL
M$11 5 3 11 5 NMOS_VTL L=0.05U W=0.21U AS=0.0147P AD=0.021875P PS=0.35U
+ PD=0.555U
* device instance $12 r0 *1 1.12,0.2975 NMOS_VTL
M$12 8 7 5 5 NMOS_VTL L=0.05U W=0.415U AS=0.021875P AD=0.043575P PS=0.555U
+ PD=1.04U
.ENDS MUX2_X1

* cell AND4_X1
* pin A1
* pin A2
* pin A3
* pin A4
* pin NWELL,VDD
* pin PWELL,VSS
* pin ZN
.SUBCKT AND4_X1 1 2 3 4 6 7 8
* net 1 A1
* net 2 A2
* net 3 A3
* net 4 A4
* net 6 NWELL,VDD
* net 7 PWELL,VSS
* net 8 ZN
* device instance $1 r0 *1 0.17,1.1525 PMOS_VTL
M$1 5 1 6 6 PMOS_VTL L=0.05U W=0.315U AS=0.033075P AD=0.02205P PS=0.84U
+ PD=0.455U
* device instance $2 r0 *1 0.36,1.1525 PMOS_VTL
M$2 6 2 5 6 PMOS_VTL L=0.05U W=0.315U AS=0.02205P AD=0.02205P PS=0.455U
+ PD=0.455U
* device instance $3 r0 *1 0.55,1.1525 PMOS_VTL
M$3 5 3 6 6 PMOS_VTL L=0.05U W=0.315U AS=0.02205P AD=0.02205P PS=0.455U
+ PD=0.455U
* device instance $4 r0 *1 0.74,1.1525 PMOS_VTL
M$4 5 4 6 6 PMOS_VTL L=0.05U W=0.315U AS=0.033075P AD=0.02205P PS=0.77U
+ PD=0.455U
* device instance $5 r0 *1 0.93,0.995 PMOS_VTL
M$5 8 5 6 6 PMOS_VTL L=0.05U W=0.63U AS=0.033075P AD=0.06615P PS=0.77U PD=1.47U
* device instance $6 r0 *1 0.17,0.195 NMOS_VTL
M$6 10 1 5 7 NMOS_VTL L=0.05U W=0.21U AS=0.02205P AD=0.0147P PS=0.63U PD=0.35U
* device instance $7 r0 *1 0.36,0.195 NMOS_VTL
M$7 11 2 10 7 NMOS_VTL L=0.05U W=0.21U AS=0.0147P AD=0.0147P PS=0.35U PD=0.35U
* device instance $8 r0 *1 0.55,0.195 NMOS_VTL
M$8 9 3 11 7 NMOS_VTL L=0.05U W=0.21U AS=0.0147P AD=0.0147P PS=0.35U PD=0.35U
* device instance $9 r0 *1 0.74,0.195 NMOS_VTL
M$9 7 4 9 7 NMOS_VTL L=0.05U W=0.21U AS=0.0147P AD=0.021875P PS=0.35U PD=0.555U
* device instance $10 r0 *1 0.93,0.2975 NMOS_VTL
M$10 8 5 7 7 NMOS_VTL L=0.05U W=0.415U AS=0.021875P AD=0.043575P PS=0.555U
+ PD=1.04U
.ENDS AND4_X1

* cell NAND2_X1
* pin A2
* pin A1
* pin PWELL,VSS
* pin NWELL,VDD
* pin ZN
.SUBCKT NAND2_X1 1 2 3 4 5
* net 1 A2
* net 2 A1
* net 3 PWELL,VSS
* net 4 NWELL,VDD
* net 5 ZN
* device instance $1 r0 *1 0.185,0.995 PMOS_VTL
M$1 5 1 4 4 PMOS_VTL L=0.05U W=0.63U AS=0.06615P AD=0.0441P PS=1.47U PD=0.77U
* device instance $2 r0 *1 0.375,0.995 PMOS_VTL
M$2 4 2 5 4 PMOS_VTL L=0.05U W=0.63U AS=0.0441P AD=0.06615P PS=0.77U PD=1.47U
* device instance $3 r0 *1 0.185,0.2975 NMOS_VTL
M$3 6 1 3 3 NMOS_VTL L=0.05U W=0.415U AS=0.043575P AD=0.02905P PS=1.04U
+ PD=0.555U
* device instance $4 r0 *1 0.375,0.2975 NMOS_VTL
M$4 5 2 6 3 NMOS_VTL L=0.05U W=0.415U AS=0.02905P AD=0.043575P PS=0.555U
+ PD=1.04U
.ENDS NAND2_X1

* cell DFFR_X1
* pin PWELL,VSS
* pin CK
* pin QN
* pin Q
* pin D
* pin RN
* pin NWELL,VDD
.SUBCKT DFFR_X1 1 3 8 9 16 18 19
* net 1 PWELL,VSS
* net 3 CK
* net 8 QN
* net 9 Q
* net 16 D
* net 18 RN
* net 19 NWELL,VDD
* device instance $1 r0 *1 3.41,0.995 PMOS_VTL
M$1 19 6 8 19 PMOS_VTL L=0.05U W=0.63U AS=0.06615P AD=0.0441P PS=1.47U PD=0.77U
* device instance $2 r0 *1 3.6,0.995 PMOS_VTL
M$2 9 7 19 19 PMOS_VTL L=0.05U W=0.63U AS=0.0441P AD=0.06615P PS=0.77U PD=1.47U
* device instance $3 r0 *1 2.455,1.04 PMOS_VTL
M$3 21 4 6 19 PMOS_VTL L=0.05U W=0.09U AS=0.014175P AD=0.0063P PS=0.455U
+ PD=0.23U
* device instance $4 r0 *1 2.645,1.04 PMOS_VTL
M$4 19 7 21 19 PMOS_VTL L=0.05U W=0.09U AS=0.0063P AD=0.014175P PS=0.23U
+ PD=0.455U
* device instance $5 r0 *1 1.815,1.0125 PMOS_VTL
M$5 19 5 17 19 PMOS_VTL L=0.05U W=0.315U AS=0.03465P AD=0.033075P PS=0.85U
+ PD=0.525U
* device instance $6 r0 *1 2.075,1.0125 PMOS_VTL
M$6 23 5 19 19 PMOS_VTL L=0.05U W=0.315U AS=0.033075P AD=0.02205P PS=0.525U
+ PD=0.455U
* device instance $7 r0 *1 2.265,1.0125 PMOS_VTL
M$7 6 2 23 19 PMOS_VTL L=0.05U W=0.315U AS=0.02205P AD=0.014175P PS=0.455U
+ PD=0.455U
* device instance $8 r0 *1 2.835,1.1525 PMOS_VTL
M$8 7 18 19 19 PMOS_VTL L=0.05U W=0.315U AS=0.014175P AD=0.02205P PS=0.455U
+ PD=0.455U
* device instance $9 r0 *1 3.025,1.1525 PMOS_VTL
M$9 19 6 7 19 PMOS_VTL L=0.05U W=0.315U AS=0.02205P AD=0.033075P PS=0.455U
+ PD=0.84U
* device instance $10 r0 *1 1.08,1.065 PMOS_VTL
M$10 20 2 5 19 PMOS_VTL L=0.05U W=0.09U AS=0.01785P AD=0.0063P PS=0.56U PD=0.23U
* device instance $11 r0 *1 1.27,1.065 PMOS_VTL
M$11 19 17 20 19 PMOS_VTL L=0.05U W=0.09U AS=0.0063P AD=0.0063P PS=0.23U
+ PD=0.23U
* device instance $12 r0 *1 1.46,1.065 PMOS_VTL
M$12 20 18 19 19 PMOS_VTL L=0.05U W=0.09U AS=0.0063P AD=0.01035P PS=0.23U
+ PD=0.41U
* device instance $13 r0 *1 0.7,1.05 PMOS_VTL
M$13 22 16 19 19 PMOS_VTL L=0.05U W=0.42U AS=0.0441P AD=0.0294P PS=1.05U
+ PD=0.56U
* device instance $14 r0 *1 0.89,1.05 PMOS_VTL
M$14 5 4 22 19 PMOS_VTL L=0.05U W=0.42U AS=0.0294P AD=0.01785P PS=0.56U PD=0.56U
* device instance $15 r0 *1 0.17,1.1525 PMOS_VTL
M$15 19 3 2 19 PMOS_VTL L=0.05U W=0.315U AS=0.033075P AD=0.02205P PS=0.84U
+ PD=0.455U
* device instance $16 r0 *1 0.36,1.1525 PMOS_VTL
M$16 4 2 19 19 PMOS_VTL L=0.05U W=0.315U AS=0.02205P AD=0.033075P PS=0.455U
+ PD=0.84U
* device instance $17 r0 *1 1.08,0.35 NMOS_VTL
M$17 12 4 5 1 NMOS_VTL L=0.05U W=0.09U AS=0.012775P AD=0.0063P PS=0.415U
+ PD=0.23U
* device instance $18 r0 *1 1.27,0.35 NMOS_VTL
M$18 11 17 12 1 NMOS_VTL L=0.05U W=0.09U AS=0.0063P AD=0.0063P PS=0.23U PD=0.23U
* device instance $19 r0 *1 1.46,0.35 NMOS_VTL
M$19 1 18 11 1 NMOS_VTL L=0.05U W=0.09U AS=0.0063P AD=0.00945P PS=0.23U PD=0.39U
* device instance $20 r0 *1 0.7,0.3525 NMOS_VTL
M$20 10 16 1 1 NMOS_VTL L=0.05U W=0.275U AS=0.028875P AD=0.01925P PS=0.76U
+ PD=0.415U