
* cell credit_based_fifo
* pin credits_available[0]
* pin credit_return
* pin rst_n
* pin fifo_level[4]
* pin valid_in
* pin full
* pin fifo_level[1]
* pin fifo_level[0]
* pin fifo_level[3]
* pin empty
* pin data_in[7]
* pin ready_in
* pin valid_out
* pin fifo_level[2]
* pin data_in[0]
* pin data_in[3]
* pin credits_available[1]
* pin credits_available[4]
* pin credits_available[3]
* pin credits_available[2]
* pin ready_out
* pin data_in[1]
* pin data_in[5]
* pin data_out[5]
* pin data_out[0]
* pin data_out[7]
* pin clk
* pin data_in[6]
* pin data_out[3]
* pin data_out[1]
* pin data_in[4]
* pin data_out[6]
* pin data_out[4]
* pin data_out[2]
* pin data_in[2]
.SUBCKT credit_based_fifo 1 2 3 4 5 6 7 8 9 10 11 12 13 14 69 101 124 181 182
+ 197 224 266 297 308 313 323 338 400 435 471 497 502 503 505 506
* net 1 credits_available[0]
* net 2 credit_return
* net 3 rst_n
* net 4 fifo_level[4]
* net 5 valid_in
* net 6 full
* net 7 fifo_level[1]
* net 8 fifo_level[0]
* net 9 fifo_level[3]
* net 10 empty
* net 11 data_in[7]
* net 12 ready_in
* net 13 valid_out
* net 14 fifo_level[2]
* net 69 data_in[0]
* net 101 data_in[3]
* net 124 credits_available[1]
* net 181 credits_available[4]
* net 182 credits_available[3]
* net 197 credits_available[2]
* net 224 ready_out
* net 266 data_in[1]
* net 297 data_in[5]
* net 308 data_out[5]
* net 313 data_out[0]
* net 323 data_out[7]
* net 338 clk
* net 400 data_in[6]
* net 435 data_out[3]
* net 471 data_out[1]
* net 497 data_in[4]
* net 502 data_out[6]
* net 503 data_out[4]
* net 505 data_out[2]
* net 506 data_in[2]
* cell instance $3 r0 *1 8.74,2.72
X$3 37 26 1 15 37 15 sky130_fd_sc_hd__clkbuf_1
* cell instance $5 r0 *1 15.64,2.72
X$5 37 2 20 15 37 15 sky130_fd_sc_hd__clkbuf_1
* cell instance $8 r0 *1 20.24,2.72
X$8 37 3 37 28 15 15 sky130_fd_sc_hd__dlygate4sd3_1
* cell instance $12 r0 *1 32.66,2.72
X$12 37 30 4 15 37 15 sky130_fd_sc_hd__clkbuf_1
* cell instance $15 r0 *1 34.5,2.72
X$15 15 79 5 37 37 15 sky130_fd_sc_hd__dlymetal6s2s_1
* cell instance $18 r0 *1 39.1,2.72
X$18 37 16 6 15 37 15 sky130_fd_sc_hd__clkbuf_1
* cell instance $21 m0 *1 45.54,8.16
X$21 37 44 7 15 37 15 sky130_fd_sc_hd__clkbuf_1
* cell instance $24 r0 *1 45.54,2.72
X$24 37 33 8 15 37 15 sky130_fd_sc_hd__clkbuf_1
* cell instance $27 r0 *1 57.04,2.72
X$27 37 24 9 15 37 15 sky130_fd_sc_hd__clkbuf_1
* cell instance $30 r0 *1 58.42,2.72
X$30 37 48 10 15 37 15 sky130_fd_sc_hd__clkbuf_1
* cell instance $33 r0 *1 53.82,2.72
X$33 37 11 15 42 37 15 sky130_fd_sc_hd__clkbuf_4
* cell instance $36 r0 *1 70.84,2.72
X$36 37 12 49 15 37 15 sky130_fd_sc_hd__clkbuf_1
* cell instance $38 r0 *1 63.48,8.16
X$38 37 41 13 15 37 15 sky130_fd_sc_hd__clkbuf_1
* cell instance $42 m0 *1 53.82,8.16
X$42 37 59 14 15 37 15 sky130_fd_sc_hd__clkbuf_1
* cell instance $66 r0 *1 17.02,2.72
X$66 37 20 37 15 39 15 sky130_fd_sc_hd__inv_1
* cell instance $67 r0 *1 18.4,2.72
X$67 37 28 37 15 21 15 sky130_fd_sc_hd__clkbuf_2
* cell instance $69 r0 *1 24.84,2.72
X$69 15 21 45 37 37 15 sky130_fd_sc_hd__buf_6
* cell instance $75 r0 *1 40.48,2.72
X$75 37 32 22 16 37 15 15 sky130_fd_sc_hd__nand2_1
* cell instance $80 r0 *1 44.16,2.72
X$80 37 23 37 15 33 15 sky130_fd_sc_hd__inv_1
* cell instance $81 r0 *1 46.92,2.72
X$81 37 17 44 23 19 15 37 15 sky130_fd_sc_hd__and3b_1
* cell instance $82 r0 *1 50.14,2.72
X$82 37 75 17 37 24 15 15 sky130_fd_sc_hd__xor2_1
* cell instance $86 r0 *1 60.26,2.72
X$86 15 45 41 25 31 37 37 15 sky130_fd_sc_hd__dfrtp_1
* cell instance $91 r0 *1 73.14,2.72
X$91 15 18 35 25 29 37 37 15 sky130_fd_sc_hd__edfxtp_1
* cell instance $95 r0 *1 86.94,2.72
X$95 15 18 38 40 27 37 37 15 sky130_fd_sc_hd__edfxtp_1
* cell instance $112 m0 *1 3.68,8.16
X$112 15 45 26 57 62 37 37 15 sky130_fd_sc_hd__dfrtp_2
* cell instance $113 m0 *1 13.34,8.16
X$113 15 509 105 20 52 37 37 15 sky130_fd_sc_hd__ha_1
* cell instance $114 m0 *1 17.94,8.16
X$114 15 46 53 37 37 15 sky130_fd_sc_hd__buf_6
* cell instance $115 m0 *1 22.08,8.16
X$115 15 71 88 63 53 37 37 15 sky130_fd_sc_hd__mux2_1
* cell instance $121 m0 *1 30.82,8.16
X$121 37 32 37 15 30 15 sky130_fd_sc_hd__clkinvlp_4
* cell instance $122 m0 *1 33.58,8.16
X$122 37 55 74 37 89 15 15 sky130_fd_sc_hd__xor2_1
* cell instance $123 m0 *1 36.8,8.16
X$123 15 22 46 32 65 37 37 15 sky130_fd_sc_hd__and3_1
* cell instance $125 m0 *1 39.56,8.16
X$125 37 66 34 43 37 15 15 sky130_fd_sc_hd__or2_2
* cell instance $127 m0 *1 46.92,8.16
X$127 15 66 56 17 90 47 58 37 37 15 sky130_fd_sc_hd__a2111oi_1
* cell instance $128 m0 *1 50.6,8.16
X$128 37 19 59 56 58 15 37 34 15 sky130_fd_sc_hd__and4_1
* cell instance $129 m0 *1 55.2,8.16
X$129 37 47 37 15 59 15 sky130_fd_sc_hd__inv_1
* cell instance $131 m0 *1 57.04,8.16
X$131 15 64 48 54 41 37 37 15 sky130_fd_sc_hd__a21oi_4
* cell instance $132 m0 *1 63.02,8.16
X$132 37 49 37 15 54 15 sky130_fd_sc_hd__inv_1
* cell instance $134 m0 *1 65.32,8.16
X$134 15 50 51 25 42 37 37 15 sky130_fd_sc_hd__edfxtp_1
* cell instance $139 m0 *1 84.64,8.16
X$139 15 50 36 40 29 37 37 15 sky130_fd_sc_hd__edfxtp_1
* cell instance $141 m0 *1 97.52,8.16
X$141 15 61 60 40 27 37 37 15 sky130_fd_sc_hd__edfxtp_1
* cell instance $144 r0 *1 2.76,8.16
X$144 37 76 26 62 37 15 15 sky130_fd_sc_hd__xnor2_1
* cell instance $145 r0 *1 5.98,8.16
X$145 15 45 77 57 103 37 37 15 sky130_fd_sc_hd__dfrtp_1
* cell instance $148 r0 *1 15.64,8.16
X$148 15 87 67 53 39 37 37 15 sky130_fd_sc_hd__ha_2
* cell instance $150 r0 *1 22.08,8.16
X$150 15 45 63 57 71 37 37 15 sky130_fd_sc_hd__dfrtp_4
* cell instance $151 r0 *1 32.66,8.16
X$151 15 45 74 57 89 37 37 15 sky130_fd_sc_hd__dfrtp_1
* cell instance $155 r0 *1 43.24,8.16
X$155 15 32 122 80 37 37 15 sky130_fd_sc_hd__xnor2_2
* cell instance $156 r0 *1 49.22,8.16
X$156 37 58 56 75 37 15 15 sky130_fd_sc_hd__nand2_1
* cell instance $157 r0 *1 50.6,8.16
X$157 37 96 68 81 15 37 56 15 sky130_fd_sc_hd__a21oi_1
* cell instance $158 r0 *1 52.44,8.16
X$158 37 97 68 73 58 15 37 15 sky130_fd_sc_hd__nand3b_1
* cell instance $160 r0 *1 55.66,8.16
X$160 15 73 81 82 63 37 37 15 sky130_fd_sc_hd__ha_1
* cell instance $161 r0 *1 60.26,8.16
X$161 37 41 37 15 72 15 sky130_fd_sc_hd__inv_1
* cell instance $162 r0 *1 61.64,8.16
X$162 37 72 49 48 37 31 15 15 sky130_fd_sc_hd__o21ai_0
* cell instance $170 r0 *1 77.28,8.16
X$170 15 70 86 25 27 37 37 15 sky130_fd_sc_hd__edfxtp_1
* cell instance $177 r0 *1 98.44,8.16
X$177 37 69 37 15 29 15 sky130_fd_sc_hd__buf_4
* cell instance $189 m0 *1 5.06,13.6
X$189 15 125 104 26 67 77 37 37 15 sky130_fd_sc_hd__fa_1
* cell instance $190 m0 *1 12.42,13.6
X$190 15 93 78 76 87 67 105 37 37 15 sky130_fd_sc_hd__a221o_2
* cell instance $193 m0 *1 17.94,13.6
X$193 37 53 37 15 52 15 sky130_fd_sc_hd__inv_1
* cell instance $197 m0 *1 22.54,13.6
X$197 15 88 106 91 126 37 37 15 sky130_fd_sc_hd__ha_1
* cell instance $203 m0 *1 35.88,13.6
X$203 37 93 79 65 15 37 15 sky130_fd_sc_hd__nor2b_1
* cell instance $204 m0 *1 38.18,13.6
X$204 37 66 34 22 15 37 15 sky130_fd_sc_hd__nor2_1
* cell instance $206 m0 *1 40.02,13.6
X$206 15 74 109 80 37 37 15 sky130_fd_sc_hd__xor2_2
* cell instance $207 m0 *1 46,13.6
X$207 37 44 23 15 37 90 15 sky130_fd_sc_hd__or2b_1
* cell instance $208 m0 *1 48.76,13.6
X$208 15 112 44 82 83 63 37 37 15 sky130_fd_sc_hd__fa_1
* cell instance $211 m0 *1 57.04,13.6
X$211 37 73 17 68 23 37 84 15 15 sky130_fd_sc_hd__nand4_1
* cell instance $212 m0 *1 59.34,13.6
X$212 37 80 84 48 15 37 15 sky130_fd_sc_hd__nor2_1
* cell instance $216 m0 *1 65.78,13.6
X$216 15 70 108 25 42 37 37 15 sky130_fd_sc_hd__edfxtp_1
* cell instance $220 m0 *1 84.64,13.6
X$220 15 70 85 40 29 37 37 15 sky130_fd_sc_hd__edfxtp_1
* cell instance $222 m0 *1 97.52,13.6
X$222 15 61 102 40 29 37 37 15 sky130_fd_sc_hd__edfxtp_1
* cell instance $227 r0 *1 10.12,13.6
X$227 15 103 77 104 76 37 37 15 sky130_fd_sc_hd__mux2_1
* cell instance $233 r0 *1 17.94,13.6
X$233 37 53 91 137 37 15 15 sky130_fd_sc_hd__xnor2_1
* cell instance $237 r0 *1 24.38,13.6
X$237 15 513 118 91 63 37 37 15 sky130_fd_sc_hd__ha_1
* cell instance $238 r0 *1 28.98,13.6
X$238 37 92 37 15 91 15 sky130_fd_sc_hd__inv_1
* cell instance $239 r0 *1 30.36,13.6
X$239 15 511 94 92 63 37 37 15 sky130_fd_sc_hd__ha_1
* cell instance $240 r0 *1 34.96,13.6
X$240 37 95 43 30 93 15 55 37 15 sky130_fd_sc_hd__nor4_1
* cell instance $241 r0 *1 37.26,13.6
X$241 37 79 94 120 37 15 15 sky130_fd_sc_hd__nand2_1
* cell instance $247 r0 *1 43.7,13.6
X$247 37 68 112 96 15 37 123 15 sky130_fd_sc_hd__a21o_1
* cell instance $248 r0 *1 46.46,13.6
X$248 37 112 68 47 37 15 15 sky130_fd_sc_hd__xnor2_1
* cell instance $250 r0 *1 50.14,13.6
X$250 15 23 97 114 91 37 37 15 sky130_fd_sc_hd__ha_1
* cell instance $252 r0 *1 55.2,13.6
X$252 37 97 37 15 83 15 sky130_fd_sc_hd__inv_1
* cell instance $254 r0 *1 58.42,13.6
X$254 15 45 114 25 121 37 37 15 sky130_fd_sc_hd__dfrtp_1
* cell instance $261 r0 *1 74.98,13.6
X$261 15 107 119 25 27 37 37 15 sky130_fd_sc_hd__edfxtp_1
* cell instance $263 r0 *1 86.94,13.6
X$263 15 98 115 40 29 37 37 15 sky130_fd_sc_hd__edfxtp_1
* cell instance $266 r0 *1 98.44,13.6
X$266 15 159 116 38 99 100 117 60 37 37 15 sky130_fd_sc_hd__a222oi_1
* cell instance $268 r0 *1 105.8,13.6
X$268 37 101 37 15 27 15 sky130_fd_sc_hd__buf_4
* cell instance $279 m0 *1 4.14,19.04
X$279 37 77 124 15 37 15 sky130_fd_sc_hd__clkbuf_1
* cell instance $280 m0 *1 5.52,19.04
X$280 37 26 134 110 15 37 148 15 sky130_fd_sc_hd__a21o_1
* cell instance $281 m0 *1 8.28,19.04
X$281 15 134 110 77 67 37 37 15 sky130_fd_sc_hd__ha_1
* cell instance $282 m0 *1 12.88,19.04
X$282 15 15 93 37 26 136 37 sky130_fd_sc_hd__nor2_2
* cell instance $284 m0 *1 18.86,19.04
X$284 15 45 92 57 137 37 37 15 sky130_fd_sc_hd__dfrtp_1
* cell instance $289 m0 *1 30.82,19.04
X$289 37 63 79 127 92 37 128 15 15 sky130_fd_sc_hd__nand4_1
* cell instance $291 m0 *1 34.04,19.04
X$291 37 128 43 30 93 15 129 37 15 sky130_fd_sc_hd__nor4_1
* cell instance $292 m0 *1 36.34,19.04
X$292 37 127 79 139 94 37 95 15 15 sky130_fd_sc_hd__nand4_1
* cell instance $294 m0 *1 39.1,19.04
X$294 15 17 111 130 139 37 37 15 sky130_fd_sc_hd__ha_1
* cell instance $295 m0 *1 43.7,19.04
X$295 37 111 17 123 15 37 122 15 sky130_fd_sc_hd__a21oi_1
* cell instance $298 m0 *1 46.92,19.04
X$298 15 68 96 113 127 37 37 15 sky130_fd_sc_hd__ha_1
* cell instance $304 m0 *1 58.88,19.04
X$304 37 64 131 121 37 15 15 sky130_fd_sc_hd__xnor2_1
* cell instance $305 m0 *1 62.1,19.04
X$305 37 114 37 15 131 15 sky130_fd_sc_hd__inv_1
* cell instance $308 m0 *1 64.86,19.04
X$308 15 61 138 25 42 37 37 15 sky130_fd_sc_hd__edfxtp_1
* cell instance $313 m0 *1 84.64,19.04
X$313 15 107 133 40 29 37 37 15 sky130_fd_sc_hd__edfxtp_1
* cell instance $314 m0 *1 95.68,19.04
X$314 15 135 100 40 27 37 37 15 sky130_fd_sc_hd__edfxtp_1
* cell instance $316 r0 *1 1.38,19.04
X$316 37 125 142 141 15 37 140 15 sky130_fd_sc_hd__a21o_1
* cell instance $317 r0 *1 4.14,19.04
X$317 37 141 142 148 15 37 192 15 sky130_fd_sc_hd__a21oi_1
* cell instance $318 r0 *1 5.98,19.04
X$318 15 142 141 149 67 37 37 15 sky130_fd_sc_hd__ha_1
* cell instance $319 r0 *1 10.58,19.04
X$319 37 143 78 149 77 136 37 15 15 sky130_fd_sc_hd__or4_1
* cell instance $326 r0 *1 22.08,19.04
X$326 37 63 37 15 126 15 sky130_fd_sc_hd__inv_1
* cell instance $327 r0 *1 23.46,19.04
X$327 15 510 144 92 126 37 37 15 sky130_fd_sc_hd__ha_1
* cell instance $328 r0 *1 28.06,19.04
X$328 15 30 151 43 93 37 37 15 sky130_fd_sc_hd__nor3_4
* cell instance $329 r0 *1 34.04,19.04
X$329 15 151 18 144 152 37 37 15 sky130_fd_sc_hd__and3_4
* cell instance $330 r0 *1 38.18,19.04
X$330 37 120 43 30 93 15 165 37 15 sky130_fd_sc_hd__nor4_1
* cell instance $331 r0 *1 40.48,19.04
X$331 37 127 37 15 164 15 sky130_fd_sc_hd__inv_1
* cell instance $340 r0 *1 55.66,19.04
X$340 15 163 99 82 131 37 37 15 sky130_fd_sc_hd__ha_2
* cell instance $346 r0 *1 70.84,19.04
X$346 37 25 37 15 15 sky130_fd_sc_hd__clkinv_2
* cell instance $348 r0 *1 73.6,19.04
X$348 15 229 51 117 145 99 108 37 37 15 sky130_fd_sc_hd__a221oi_1
* cell instance $349 r0 *1 76.82,19.04
X$349 15 155 132 40 27 37 37 15 sky130_fd_sc_hd__edfxtp_1
* cell instance $350 r0 *1 87.86,19.04
X$350 15 154 40 37 37 15 sky130_fd_sc_hd__clkbuf_16
* cell instance $354 r0 *1 98.44,19.04
X$354 15 161 153 119 146 132 117 86 37 37 15 sky130_fd_sc_hd__a222oi_1
* cell instance $355 r0 *1 102.12,19.04
X$355 15 150 116 133 99 36 117 85 37 37 15 sky130_fd_sc_hd__a222oi_1
* cell instance $356 r0 *1 105.8,19.04
X$356 37 116 35 147 102 37 160 15 15 sky130_fd_sc_hd__a22oi_1
* cell instance $367 m0 *1 2.76,24.48
X$367 37 142 125 174 37 15 15 sky130_fd_sc_hd__xnor2_1
* cell instance $368 m0 *1 5.98,24.48
X$368 15 166 167 143 67 37 37 15 sky130_fd_sc_hd__ha_1
* cell instance $369 m0 *1 10.58,24.48
X$369 37 167 166 140 15 37 156 15 sky130_fd_sc_hd__a21oi_1
* cell instance $370 m0 *1 12.42,24.48
X$370 37 156 67 37 157 15 15 sky130_fd_sc_hd__xor2_1
* cell instance $371 m0 *1 15.64,24.48
X$371 37 175 78 37 176 15 15 sky130_fd_sc_hd__xor2_1
* cell instance $376 m0 *1 25.76,24.48
X$376 37 127 168 208 15 37 15 sky130_fd_sc_hd__nor2_1
* cell instance $377 m0 *1 27.14,24.48
X$377 37 79 21 139 168 37 15 15 sky130_fd_sc_hd__nand3_1
* cell instance $380 m0 *1 29.9,24.48
X$380 15 151 158 118 152 37 37 15 sky130_fd_sc_hd__and3_4
* cell instance $382 m0 *1 34.5,24.48
X$382 37 129 139 37 179 15 15 sky130_fd_sc_hd__xor2_1
* cell instance $383 m0 *1 37.72,24.48
X$383 15 45 139 186 179 37 37 15 sky130_fd_sc_hd__dfrtp_2
* cell instance $387 m0 *1 53.36,24.48
X$387 37 82 64 180 37 196 15 15 sky130_fd_sc_hd__o21ai_0
* cell instance $388 m0 *1 55.2,24.48
X$388 37 163 64 180 37 15 15 sky130_fd_sc_hd__nand2_1
* cell instance $391 m0 *1 57.5,24.48
X$391 15 508 153 114 82 37 37 15 sky130_fd_sc_hd__ha_1
* cell instance $394 m0 *1 64.4,24.48
X$394 15 158 178 25 42 37 37 15 sky130_fd_sc_hd__edfxtp_1
* cell instance $395 m0 *1 75.44,24.48
X$395 15 162 178 117 145 146 138 37 37 15 sky130_fd_sc_hd__a221oi_1
* cell instance $398 m0 *1 80.96,24.48
X$398 37 40 519 15 37 15 sky130_fd_sc_hd__clkbuf_1
* cell instance $401 m0 *1 84.64,24.48
X$401 37 145 37 15 113 15 sky130_fd_sc_hd__buf_4
* cell instance $402 m0 *1 87.4,24.48
X$402 15 145 171 177 159 209 161 130 37 37 15 sky130_fd_sc_hd__mux4_1
* cell instance $403 m0 *1 97.06,24.48
X$403 15 172 173 40 27 37 37 15 sky130_fd_sc_hd__edfxtp_1
* cell instance $405 r0 *1 1.38,24.48
X$405 37 143 182 15 37 15 sky130_fd_sc_hd__clkbuf_1
* cell instance $406 r0 *1 2.76,24.48
X$406 37 192 166 37 190 15 15 sky130_fd_sc_hd__xor2_1
* cell instance $407 r0 *1 5.98,24.48
X$407 37 76 174 194 37 193 15 15 sky130_fd_sc_hd__o21ai_0
* cell instance $408 r0 *1 7.82,24.48
X$408 37 149 76 194 37 15 15 sky130_fd_sc_hd__nand2_1
* cell instance $409 r0 *1 9.2,24.48
X$409 37 78 181 15 37 15 sky130_fd_sc_hd__clkbuf_1
* cell instance $413 r0 *1 13.8,24.48
X$413 37 76 157 175 15 37 15 sky130_fd_sc_hd__nor2_1
* cell instance $418 r0 *1 15.64,24.48
X$418 15 21 78 57 176 37 37 15 sky130_fd_sc_hd__dfstp_1
* cell instance $419 r0 *1 25.3,24.48
X$419 15 151 135 106 152 37 37 15 sky130_fd_sc_hd__and3_4
* cell instance $420 r0 *1 29.44,24.48
X$420 15 169 107 144 184 37 37 15 sky130_fd_sc_hd__and3_4
* cell instance $421 r0 *1 33.58,24.48
X$421 15 169 70 94 184 37 37 15 sky130_fd_sc_hd__and3_4
* cell instance $422 r0 *1 37.72,24.48
X$422 37 139 164 185 184 15 37 15 sky130_fd_sc_hd__nor3_1
* cell instance $423 r0 *1 39.56,24.48
X$423 37 165 164 170 37 15 15 sky130_fd_sc_hd__xnor2_1
* cell instance $428 r0 *1 43.24,24.48
X$428 15 45 127 186 170 37 37 15 sky130_fd_sc_hd__dfrtp_2
* cell instance $429 r0 *1 52.9,24.48
X$429 15 45 187 186 196 37 37 15 sky130_fd_sc_hd__dfrtp_1
* cell instance $430 r0 *1 62.1,24.48
X$430 15 512 195 131 187 37 37 15 sky130_fd_sc_hd__ha_1
* cell instance $436 r0 *1 70.84,24.48
X$436 15 154 25 37 37 15 sky130_fd_sc_hd__clkbuf_16
* cell instance $439 r0 *1 82.34,24.48
X$439 37 153 15 116 37 15 sky130_fd_sc_hd__clkbuf_4
* cell instance $441 r0 *1 86.94,24.48
X$441 15 98 191 40 27 37 37 15 sky130_fd_sc_hd__edfxtp_1
* cell instance $451 m0 *1 1.84,29.92
X$451 37 76 190 207 37 183 15 15 sky130_fd_sc_hd__o21ai_0
* cell instance $453 m0 *1 4.14,29.92
X$453 15 45 143 57 183 37 37 15 sky130_fd_sc_hd__dfrtp_1
* cell instance $456 m0 *1 17.94,29.92
X$456 37 146 37 15 201 15 sky130_fd_sc_hd__buf_4
* cell instance $457 m0 *1 20.7,29.92
X$457 37 57 37 15 514 15 sky130_fd_sc_hd__clkinvlp_4
* cell instance $458 m0 *1 23.46,29.92
X$458 15 169 50 106 184 37 37 15 sky130_fd_sc_hd__and3_4
* cell instance $459 m0 *1 27.6,29.92
X$459 37 79 21 185 37 15 15 sky130_fd_sc_hd__nand2_1
* cell instance $462 m0 *1 29.9,29.92
X$462 15 154 57 37 37 15 sky130_fd_sc_hd__clkbuf_16
* cell instance $464 m0 *1 40.02,29.92
X$464 37 186 37 15 15 sky130_fd_sc_hd__inv_6
* cell instance $465 m0 *1 43.24,29.92
X$465 15 154 186 37 37 15 sky130_fd_sc_hd__clkbuf_16
* cell instance $468 m0 *1 53.82,29.92
X$468 37 187 37 15 82 15 sky130_fd_sc_hd__clkinvlp_4
* cell instance $470 m0 *1 57.04,29.92
X$470 15 507 198 114 187 37 37 15 sky130_fd_sc_hd__ha_1
* cell instance $471 m0 *1 61.64,29.92
X$471 37 114 188 187 64 37 220 15 15 sky130_fd_sc_hd__nand4_1
* cell instance $472 m0 *1 63.94,29.92
X$472 37 198 37 15 147 15 sky130_fd_sc_hd__buf_4
* cell instance $474 m0 *1 67.16,29.92
X$474 15 45 200 25 199 37 37 15 sky130_fd_sc_hd__dfrtp_1
* cell instance $475 m0 *1 76.36,29.92
X$475 37 200 37 15 145 15 sky130_fd_sc_hd__inv_1
* cell instance $480 m0 *1 84.64,29.92
X$480 15 204 203 40 29 37 37 15 sky130_fd_sc_hd__edfxtp_1
* cell instance $481 m0 *1 95.68,29.92
X$481 37 201 203 147 115 37 189 15 15 sky130_fd_sc_hd__a22oi_1
* cell instance $482 m0 *1 98.44,29.92
X$482 15 145 202 239 160 189 150 130 37 37 15 sky130_fd_sc_hd__mux4_1
* cell instance $484 r0 *1 1.38,29.92
X$484 37 149 197 15 37 15 sky130_fd_sc_hd__clkbuf_1
* cell instance $485 r0 *1 2.76,29.92
X$485 37 143 76 207 37 15 15 sky130_fd_sc_hd__nand2_1
* cell instance $487 r0 *1 4.6,29.92
X$487 15 45 149 57 193 37 37 15 sky130_fd_sc_hd__dfrtp_1
* cell instance $496 r0 *1 20.7,29.92
X$496 15 169 155 118 184 37 37 15 sky130_fd_sc_hd__and3_4
* cell instance $497 r0 *1 24.84,29.92
X$497 15 151 210 118 208 37 37 15 sky130_fd_sc_hd__and3_4
* cell instance $498 r0 *1 28.98,29.92
X$498 15 151 205 144 208 37 37 15 sky130_fd_sc_hd__and3_4
* cell instance $499 r0 *1 33.12,29.92
X$499 15 151 61 94 152 37 37 15 sky130_fd_sc_hd__and3_4
* cell instance $500 r0 *1 37.26,29.92
X$500 37 139 127 185 213 15 37 15 sky130_fd_sc_hd__nor3_1
* cell instance $502 r0 *1 39.56,29.92
X$502 37 21 64 15 222 37 15 sky130_fd_sc_hd__and2_4
* cell instance $506 r0 *1 43.24,29.92
X$506 37 215 109 223 37 15 15 sky130_fd_sc_hd__xnor2_1
* cell instance $507 r0 *1 46.46,29.92
X$507 37 212 234 188 64 37 215 15 15 sky130_fd_sc_hd__nand4_1
* cell instance $509 r0 *1 49.22,29.92
X$509 15 172 221 186 42 37 37 15 sky130_fd_sc_hd__edfxtp_1
* cell instance $510 r0 *1 60.26,29.92
X$510 37 212 64 219 37 15 15 sky130_fd_sc_hd__nand2_1
* cell instance $511 r0 *1 61.64,29.92
X$511 37 198 15 117 37 15 sky130_fd_sc_hd__clkbuf_4
* cell instance $512 r0 *1 64.4,29.92
X$512 37 219 188 199 37 15 15 sky130_fd_sc_hd__xnor2_1
* cell instance $513 r0 *1 67.62,29.92
X$513 37 195 15 146 37 15 sky130_fd_sc_hd__clkbuf_4
* cell instance $521 r0 *1 77.74,29.92
X$521 15 210 206 211 27 37 37 15 sky130_fd_sc_hd__edfxtp_1
* cell instance $522 r0 *1 88.78,29.92
X$522 37 206 201 177 37 15 15 sky130_fd_sc_hd__nand2_1
* cell instance $525 r0 *1 92.92,29.92
X$525 15 209 116 173 146 217 117 191 37 37 15 sky130_fd_sc_hd__a222oi_1
* cell instance $540 m0 *1 3.22,35.36
X$540 37 169 224 15 37 15 sky130_fd_sc_hd__clkbuf_1
* cell instance $547 m0 *1 20.7,35.36
X$547 15 169 204 118 213 37 37 15 sky130_fd_sc_hd__and3_4
* cell instance $548 m0 *1 24.84,35.36
X$548 15 169 214 106 213 37 37 15 sky130_fd_sc_hd__and3_4
* cell instance $550 m0 *1 29.44,35.36
X$550 15 169 172 144 213 37 37 15 sky130_fd_sc_hd__and3_4
* cell instance $551 m0 *1 33.58,35.36
X$551 37 164 168 152 15 37 15 sky130_fd_sc_hd__nor2_1
* cell instance $552 m0 *1 34.96,35.36
X$552 15 169 98 94 213 37 37 15 sky130_fd_sc_hd__and3_4
* cell instance $555 m0 *1 40.48,35.36
X$555 15 45 109 186 223 37 37 15 sky130_fd_sc_hd__dfrtp_1
* cell instance $562 m0 *1 60.72,35.36
X$562 37 220 234 216 37 15 15 sky130_fd_sc_hd__xnor2_1
* cell instance $565 m0 *1 65.32,35.36
X$565 15 45 218 227 216 37 37 15 sky130_fd_sc_hd__dfrtp_4
* cell instance $570 m0 *1 84.64,35.36
X$570 15 204 217 211 27 37 37 15 sky130_fd_sc_hd__edfxtp_1
* cell instance $572 m0 *1 96.14,35.36
X$572 15 205 232 211 29 37 37 15 sky130_fd_sc_hd__edfxtp_1
* cell instance $585 r0 *1 23.92,35.36
X$585 15 151 169 37 37 15 sky130_fd_sc_hd__buf_6
* cell instance $586 r0 *1 28.06,35.36
X$586 15 169 246 106 208 37 37 15 sky130_fd_sc_hd__and3_4
* cell instance $587 r0 *1 32.2,35.36
X$587 15 151 236 94 208 37 37 15 sky130_fd_sc_hd__and3_4
* cell instance $593 r0 *1 43.24,35.36
X$593 37 225 37 15 515 15 sky130_fd_sc_hd__clkinvlp_4
* cell instance $596 r0 *1 50.14,35.36
X$596 15 98 226 225 42 37 37 15 sky130_fd_sc_hd__edfxtp_1
* cell instance $597 r0 *1 61.18,35.36
X$597 15 228 221 198 230 153 226 37 37 15 sky130_fd_sc_hd__a221oi_1
* cell instance $601 r0 *1 67.62,35.36
X$601 37 218 228 229 237 37 15 15 sky130_fd_sc_hd__or3_1
* cell instance $605 r0 *1 70.84,35.36
X$605 37 227 37 15 516 15 sky130_fd_sc_hd__clkinvlp_4
* cell instance $608 r0 *1 75.9,35.36
X$608 37 200 37 15 230 15 sky130_fd_sc_hd__buf_4
* cell instance $611 r0 *1 80.96,35.36
X$611 37 153 37 15 231 15 sky130_fd_sc_hd__buf_4
* cell instance $615 r0 *1 88.78,35.36
X$615 37 99 37 15 233 15 sky130_fd_sc_hd__buf_4
* cell instance $627 m0 *1 6.9,40.8
X$627 15 155 243 238 235 37 37 15 sky130_fd_sc_hd__edfxtp_1
* cell instance $630 m0 *1 17.94,40.8
X$630 15 204 241 238 235 37 37 15 sky130_fd_sc_hd__edfxtp_1
* cell instance $632 m0 *1 29.44,40.8
X$632 37 238 37 15 15 sky130_fd_sc_hd__clkinv_1
* cell instance $636 m0 *1 38.64,40.8
X$636 15 135 248 225 235 37 37 15 sky130_fd_sc_hd__edfxtp_1
* cell instance $639 m0 *1 49.68,40.8
X$639 37 147 15 212 37 15 sky130_fd_sc_hd__clkbuf_4
* cell instance $646 m0 *1 62.1,40.8
X$646 15 236 247 227 42 37 37 15 sky130_fd_sc_hd__edfxtp_1
* cell instance $649 m0 *1 73.14,40.8
X$649 15 154 227 37 37 15 sky130_fd_sc_hd__clkbuf_16
* cell instance $650 m0 *1 82.34,40.8
X$650 37 211 37 15 15 sky130_fd_sc_hd__clkinv_2
* cell instance $652 m0 *1 84.64,40.8
X$652 15 154 211 37 37 15 sky130_fd_sc_hd__clkbuf_16
* cell instance $654 m0 *1 94.3,40.8
X$654 37 240 233 239 37 15 15 sky130_fd_sc_hd__nand2_1
* cell instance $655 m0 *1 95.68,40.8
X$655 15 172 244 211 29 37 37 15 sky130_fd_sc_hd__edfxtp_1
* cell instance $661 r0 *1 4.14,40.8
X$661 15 107 242 238 235 37 37 15 sky130_fd_sc_hd__edfxtp_1
* cell instance $666 r0 *1 15.64,40.8
X$666 15 251 245 233 242 116 243 146 37 37 15 sky130_fd_sc_hd__a222oi_1
* cell instance $670 r0 *1 22.54,40.8
X$670 15 98 253 238 235 37 37 15 sky130_fd_sc_hd__edfxtp_1
* cell instance $671 r0 *1 33.58,40.8
X$671 15 154 238 37 37 15 sky130_fd_sc_hd__clkbuf_16
* cell instance $676 r0 *1 43.24,40.8
X$676 15 61 255 225 235 37 37 15 sky130_fd_sc_hd__edfxtp_1
* cell instance $680 r0 *1 59.34,40.8
X$680 15 210 249 227 42 37 37 15 sky130_fd_sc_hd__edfxtp_1
* cell instance $685 r0 *1 70.84,40.8
X$685 15 254 249 117 230 195 247 37 37 15 sky130_fd_sc_hd__a221oi_1
* cell instance $687 r0 *1 74.98,40.8
X$687 15 135 252 227 29 37 37 15 sky130_fd_sc_hd__edfxtp_1
* cell instance $688 r0 *1 86.02,40.8
X$688 15 246 240 211 29 37 37 15 sky130_fd_sc_hd__edfxtp_1
* cell instance $697 r0 *1 101.66,40.8
X$697 15 250 232 244 218 37 37 15 sky130_fd_sc_hd__mux2_1
* cell instance $702 m0 *1 4.14,46.24
X$702 15 50 245 238 235 37 37 15 sky130_fd_sc_hd__edfxtp_1
* cell instance $703 m0 *1 15.18,46.24
X$703 15 172 256 238 235 37 37 15 sky130_fd_sc_hd__edfxtp_1
* cell instance $709 m0 *1 30.82,46.24
X$709 15 263 116 256 146 241 147 253 37 37 15 sky130_fd_sc_hd__a222oi_1
* cell instance $712 m0 *1 36.8,46.24
X$712 15 18 257 225 235 37 37 15 sky130_fd_sc_hd__edfxtp_1
* cell instance $714 m0 *1 48.76,46.24
X$714 15 275 116 257 99 248 117 255 37 37 15 sky130_fd_sc_hd__a222oi_1
* cell instance $723 m0 *1 70.84,46.24
X$723 37 265 254 162 279 37 15 15 sky130_fd_sc_hd__or3_1
* cell instance $724 m0 *1 73.14,46.24
X$724 15 158 262 227 29 37 37 15 sky130_fd_sc_hd__edfxtp_1
* cell instance $727 m0 *1 86.48,46.24
X$727 37 262 261 252 259 37 258 15 15 sky130_fd_sc_hd__a22oi_1
* cell instance $728 m0 *1 89.24,46.24
X$728 37 99 37 15 259 15 sky130_fd_sc_hd__buf_4
* cell instance $730 m0 *1 95.68,46.24
X$730 15 214 260 211 29 37 37 15 sky130_fd_sc_hd__edfxtp_1
* cell instance $742 r0 *1 18.86,46.24
X$742 15 158 270 238 235 37 37 15 sky130_fd_sc_hd__edfxtp_1
* cell instance $745 r0 *1 32.2,46.24
X$745 37 212 130 188 271 37 272 15 15 sky130_fd_sc_hd__nand4_1
* cell instance $748 r0 *1 37.26,46.24
X$748 37 113 263 273 37 15 15 sky130_fd_sc_hd__nand2_1
* cell instance $753 r0 *1 43.24,46.24
X$753 15 154 225 37 37 15 sky130_fd_sc_hd__clkbuf_16
* cell instance $754 r0 *1 52.44,46.24
X$754 37 113 275 276 15 37 15 sky130_fd_sc_hd__nor2_1
* cell instance $757 r0 *1 56.58,46.24
X$757 15 135 274 225 42 37 37 15 sky130_fd_sc_hd__edfxtp_1
* cell instance $758 r0 *1 67.62,46.24
X$758 37 265 37 15 130 15 sky130_fd_sc_hd__buf_4
* cell instance $763 r0 *1 76.36,46.24
X$763 15 155 269 227 29 37 37 15 sky130_fd_sc_hd__edfxtp_1
* cell instance $764 r0 *1 87.4,46.24
X$764 37 130 258 268 37 267 15 15 sky130_fd_sc_hd__o21ai_0
* cell instance $785 m0 *1 6.9,51.68
X$785 15 205 285 238 235 37 37 15 sky130_fd_sc_hd__edfxtp_1
* cell instance $786 m0 *1 17.94,51.68
X$786 15 70 271 238 235 37 37 15 sky130_fd_sc_hd__edfxtp_1
* cell instance $788 m0 *1 29.44,51.68
X$788 37 287 270 261 264 37 15 15 sky130_fd_sc_hd__nand3_1
* cell instance $789 m0 *1 31.28,51.68
X$789 37 287 286 264 37 288 15 15 sky130_fd_sc_hd__o21ai_0
* cell instance $790 m0 *1 33.12,51.68
X$790 37 314 251 290 37 15 15 sky130_fd_sc_hd__nand2_1
* cell instance $792 m0 *1 34.96,51.68
X$792 37 280 277 272 293 37 15 15 sky130_fd_sc_hd__nand3_1
* cell instance $793 m0 *1 36.8,51.68
X$793 37 289 290 273 15 37 299 15 sky130_fd_sc_hd__a21oi_1
* cell instance $794 m0 *1 38.64,51.68
X$794 15 236 296 225 235 37 37 15 sky130_fd_sc_hd__edfxtp_1
* cell instance $795 m0 *1 49.68,51.68
X$795 37 276 296 278 15 37 295 15 sky130_fd_sc_hd__a21oi_1
* cell instance $797 m0 *1 52.44,51.68
X$797 37 230 117 278 15 37 15 sky130_fd_sc_hd__nor2b_1
* cell instance $800 m0 *1 57.04,51.68
X$800 15 18 292 225 42 37 37 15 sky130_fd_sc_hd__edfxtp_1
* cell instance $801 m0 *1 68.08,51.68
X$801 37 237 280 279 294 37 291 15 15 sky130_fd_sc_hd__nand4_1
* cell instance $802 m0 *1 70.38,51.68
X$802 37 218 37 15 265 15 sky130_fd_sc_hd__inv_1
* cell instance $811 m0 *1 86.02,51.68
X$811 37 130 269 261 268 37 15 15 sky130_fd_sc_hd__nand3_1
* cell instance $813 m0 *1 88.78,51.68
X$813 37 281 188 267 15 37 284 15 sky130_fd_sc_hd__a21oi_1
* cell instance $814 m0 *1 90.62,51.68
X$814 15 236 283 211 29 37 37 15 sky130_fd_sc_hd__edfxtp_1
* cell instance $817 m0 *1 105.8,51.68
X$817 37 266 37 15 282 15 sky130_fd_sc_hd__buf_4
* cell instance $818 r0 *1 1.38,51.68
X$818 37 297 15 235 37 15 sky130_fd_sc_hd__clkbuf_4
* cell instance $819 r0 *1 4.14,51.68
X$819 15 246 306 238 235 37 37 15 sky130_fd_sc_hd__edfxtp_1
* cell instance $824 r0 *1 17.02,51.68
X$824 15 286 306 233 285 116 298 146 37 37 15 sky130_fd_sc_hd__a222oi_1
* cell instance $827 r0 *1 23,51.68
X$827 37 116 37 15 302 15 sky130_fd_sc_hd__buf_4
* cell instance $829 r0 *1 29.44,51.68
X$829 15 214 301 238 235 37 37 15 sky130_fd_sc_hd__edfxtp_1
* cell instance $830 r0 *1 40.48,51.68
X$830 37 299 234 295 15 37 300 15 sky130_fd_sc_hd__a21oi_1
* cell instance $834 r0 *1 43.24,51.68
X$834 37 300 293 280 301 330 15 37 15 sky130_fd_sc_hd__o22a_1
* cell instance $836 r0 *1 47.38,51.68
X$836 37 147 146 116 317 15 37 15 sky130_fd_sc_hd__nor3_1
* cell instance $839 r0 *1 51.52,51.68
X$839 15 205 307 225 42 37 37 15 sky130_fd_sc_hd__edfxtp_1
* cell instance $840 r0 *1 62.56,51.68
X$840 37 307 289 113 302 37 294 15 15 sky130_fd_sc_hd__nand4_1
* cell instance $841 r0 *1 64.86,51.68
X$841 15 318 231 274 265 292 233 37 37 15 sky130_fd_sc_hd__a221oi_1
* cell instance $847 r0 *1 74.52,51.68
X$847 15 265 310 316 278 345 201 37 37 15 sky130_fd_sc_hd__a221oi_2
* cell instance $848 r0 *1 80.04,51.68
X$848 15 210 311 211 29 37 37 15 sky130_fd_sc_hd__edfxtp_1
* cell instance $849 r0 *1 91.08,51.68
X$849 15 281 302 113 303 250 359 37 37 15 sky130_fd_sc_hd__a32o_1
* cell instance $850 r0 *1 94.76,51.68
X$850 37 201 311 147 283 15 303 37 15 sky130_fd_sc_hd__a22o_1
* cell instance $853 r0 *1 98.44,51.68
X$853 37 284 304 202 305 15 37 335 15 sky130_fd_sc_hd__a31oi_1
* cell instance $854 r0 *1 100.74,51.68
X$854 37 260 304 305 15 37 15 sky130_fd_sc_hd__nor2_1
* cell instance $868 m0 *1 2.76,57.12
X$868 37 309 308 15 37 15 sky130_fd_sc_hd__clkbuf_1
* cell instance $870 m0 *1 5.98,57.12
X$870 15 210 298 324 235 37 37 15 sky130_fd_sc_hd__edfxtp_1
* cell instance $878 m0 *1 33.58,57.12
X$878 37 234 288 277 37 15 15 sky130_fd_sc_hd__nand2_1
* cell instance $880 m0 *1 35.88,57.12
X$880 15 222 309 315 330 37 37 15 sky130_fd_sc_hd__edfxtp_1
* cell instance $882 m0 *1 47.38,57.12
X$882 15 338 154 37 37 15 sky130_fd_sc_hd__clkbuf_16
* cell instance $888 m0 *1 65.78,57.12
X$888 37 113 319 318 328 15 37 15 sky130_fd_sc_hd__nor3_1
* cell instance $889 m0 *1 67.62,57.12
X$889 15 236 316 227 282 37 37 15 sky130_fd_sc_hd__edfxtp_1
* cell instance $894 m0 *1 86.48,57.12
X$894 15 222 325 211 326 37 37 15 sky130_fd_sc_hd__edfxtp_1
* cell instance $896 m0 *1 101.2,57.12
X$896 37 325 323 15 37 15 sky130_fd_sc_hd__clkbuf_1
* cell instance $899 m0 *1 107.18,57.12
X$899 37 312 313 15 37 15 sky130_fd_sc_hd__clkbuf_1
* cell instance $902 r0 *1 4.14,57.12
X$902 15 107 320 324 331 37 37 15 sky130_fd_sc_hd__edfxtp_1
* cell instance $905 r0 *1 15.64,57.12
X$905 15 327 340 233 320 231 332 146 37 37 15 sky130_fd_sc_hd__a222oi_1
* cell instance $912 r0 *1 33.58,57.12
X$912 37 146 15 261 37 15 sky130_fd_sc_hd__clkbuf_4
* cell instance $914 r0 *1 40.02,57.12
X$914 37 280 37 15 304 15 sky130_fd_sc_hd__buf_4