
* cell dual_port_ram
* pin addr_b[0]
* pin addr_b[1]
* pin addr_a[0]
* pin addr_a[3]
* pin addr_a[1]
* pin data_b[6]
* pin data_b[7]
* pin data_a[6]
* pin data_a[7]
* pin we_a
* pin addr_a[2]
* pin addr_b[3]
* pin we_b
* pin addr_b[2]
* pin q_b[6]
* pin q_b[7]
* pin q_a[7]
* pin q_a[6]
* pin data_a[0]
* pin q_b[0]
* pin q_a[0]
* pin data_b[0]
* pin q_a[5]
* pin data_b[5]
* pin data_a[5]
* pin clk
* pin data_b[4]
* pin q_a[4]
* pin q_b[5]
* pin q_b[4]
* pin q_a[2]
* pin q_b[2]
* pin q_b[1]
* pin q_a[1]
* pin data_b[1]
* pin data_a[1]
* pin data_a[4]
* pin q_a[3]
* pin q_b[3]
* pin data_b[3]
* pin data_b[2]
* pin data_a[3]
* pin data_a[2]
* pin PWELL,gf180mcu_gnd
* pin NWELL
.SUBCKT dual_port_ram 1 2 3 4 5 6 7 8 9 10 11 12 13 14 15 16 250 282 303 322
+ 323 324 384 406 407 470 478 479 496 677 678 679 680 681 682 683 684 685 686
+ 688 689 690 691 692 693
* net 1 addr_b[0]
* net 2 addr_b[1]
* net 3 addr_a[0]
* net 4 addr_a[3]
* net 5 addr_a[1]
* net 6 data_b[6]
* net 7 data_b[7]
* net 8 data_a[6]
* net 9 data_a[7]
* net 10 we_a
* net 11 addr_a[2]
* net 12 addr_b[3]
* net 13 we_b
* net 14 addr_b[2]
* net 15 q_b[6]
* net 16 q_b[7]
* net 250 q_a[7]
* net 282 q_a[6]
* net 303 data_a[0]
* net 322 q_b[0]
* net 323 q_a[0]
* net 324 data_b[0]
* net 384 q_a[5]
* net 406 data_b[5]
* net 407 data_a[5]
* net 470 clk
* net 478 data_b[4]
* net 479 q_a[4]
* net 496 q_b[5]
* net 677 q_b[4]
* net 678 q_a[2]
* net 679 q_b[2]
* net 680 q_b[1]
* net 681 q_a[1]
* net 682 data_b[1]
* net 683 data_a[1]
* net 684 data_a[4]
* net 685 q_a[3]
* net 686 q_b[3]
* net 688 data_b[3]
* net 689 data_b[2]
* net 690 data_a[3]
* net 691 data_a[2]
* net 692 PWELL,gf180mcu_gnd
* net 693 NWELL
* cell instance $3 r0 *1 1159.2,5.04
X$3 692 1 19 693 gf180mcu_fd_sc_mcu9t5v0__clkbuf_8
* cell instance $6 m0 *1 1182.72,15.12
X$6 692 2 22 693 gf180mcu_fd_sc_mcu9t5v0__clkbuf_8
* cell instance $11 r0 *1 1191.68,1063.44
X$11 692 3 37 693 gf180mcu_fd_sc_mcu9t5v0__clkbuf_8
* cell instance $15 r0 *1 1198.4,5.04
X$15 692 4 18 693 gf180mcu_fd_sc_mcu9t5v0__clkbuf_12
* cell instance $19 m0 *1 1211.84,25.2
X$19 692 5 24 693 gf180mcu_fd_sc_mcu9t5v0__clkbuf_8
* cell instance $22 m0 *1 1201.76,15.12
X$22 692 6 30 693 gf180mcu_fd_sc_mcu9t5v0__buf_8
* cell instance $27 r0 *1 1204.56,15.12
X$27 692 7 23 693 gf180mcu_fd_sc_mcu9t5v0__buf_8
* cell instance $31 m0 *1 1226.4,25.2
X$31 692 8 26 693 gf180mcu_fd_sc_mcu9t5v0__buf_8
* cell instance $35 r0 *1 1226.96,5.04
X$35 692 9 17 693 gf180mcu_fd_sc_mcu9t5v0__buf_8
* cell instance $38 m0 *1 1235.92,15.12
X$38 692 10 25 693 gf180mcu_fd_sc_mcu9t5v0__clkbuf_8
* cell instance $42 r0 *1 1246,15.12
X$42 692 11 85 693 gf180mcu_fd_sc_mcu9t5v0__clkbuf_8
* cell instance $47 r0 *1 1241.52,5.04
X$47 692 12 27 693 gf180mcu_fd_sc_mcu9t5v0__clkbuf_8
* cell instance $51 m0 *1 1250.48,15.12
X$51 692 13 33 693 gf180mcu_fd_sc_mcu9t5v0__clkbuf_8
* cell instance $55 r0 *1 1256.08,5.04
X$55 692 14 28 693 gf180mcu_fd_sc_mcu9t5v0__clkbuf_8
* cell instance $58 r0 *1 1307.04,5.04
X$58 20 693 692 15 gf180mcu_fd_sc_mcu9t5v0__dlyb_2
* cell instance $62 r0 *1 1356.88,5.04
X$62 21 693 692 16 gf180mcu_fd_sc_mcu9t5v0__dlyb_2
* cell instance $71 r0 *1 1338.96,1093.68
X$71 692 693 58 17 61 59 gf180mcu_fd_sc_mcu9t5v0__mux2_2
* cell instance $73 m0 *1 1356.88,1103.76
X$73 692 693 82 17 79 83 gf180mcu_fd_sc_mcu9t5v0__mux2_2
* cell instance $76 m0 *1 1397.76,1134
X$76 692 693 145 17 115 144 gf180mcu_fd_sc_mcu9t5v0__mux2_2
* cell instance $79 m0 *1 1388.24,1123.92
X$79 692 693 124 17 99 121 gf180mcu_fd_sc_mcu9t5v0__mux2_2
* cell instance $81 m0 *1 1220.8,1123.92
X$81 692 693 109 110 93 17 gf180mcu_fd_sc_mcu9t5v0__mux2_2
* cell instance $83 r0 *1 1374.24,1123.92
X$83 692 693 17 120 gf180mcu_fd_sc_mcu9t5v0__buf_4
* cell instance $85 m0 *1 1223.6,1093.68
X$85 692 693 32 64 45 17 gf180mcu_fd_sc_mcu9t5v0__mux2_2
* cell instance $103 m0 *1 1252.72,1154.16
X$103 692 70 179 108 18 693 gf180mcu_fd_sc_mcu9t5v0__nand3_4
* cell instance $107 m0 *1 1232.56,1174.32
X$107 692 176 18 150 693 259 gf180mcu_fd_sc_mcu9t5v0__or3_4
* cell instance $110 m0 *1 1246.56,1164.24
X$110 692 693 18 151 gf180mcu_fd_sc_mcu9t5v0__clkinv_3
* cell instance $112 r0 *1 1219.68,1174.32
X$112 692 176 18 70 693 197 gf180mcu_fd_sc_mcu9t5v0__or3_4
* cell instance $114 m0 *1 1274.56,1174.32
X$114 692 70 154 220 18 693 gf180mcu_fd_sc_mcu9t5v0__nand3_4
* cell instance $118 r0 *1 1279.04,1164.24
X$118 693 85 18 205 692 gf180mcu_fd_sc_mcu9t5v0__and2_4
* cell instance $120 m0 *1 1267.84,1174.32
X$120 693 150 18 692 217 gf180mcu_fd_sc_mcu9t5v0__and2_2
* cell instance $123 m0 *1 1253.28,1174.32
X$123 693 201 18 216 692 gf180mcu_fd_sc_mcu9t5v0__and2_4
* cell instance $126 m0 *1 1274.56,1164.24
X$126 181 18 70 692 693 61 gf180mcu_fd_sc_mcu9t5v0__and3_4
* cell instance $134 r0 *1 1244.88,1093.68
X$134 693 19 47 692 48 gf180mcu_fd_sc_mcu9t5v0__and2_2
* cell instance $139 r0 *1 1237.6,1093.68
X$139 692 693 19 46 gf180mcu_fd_sc_mcu9t5v0__clkinv_2
* cell instance $142 r0 *1 1194.48,1093.68
X$142 692 19 69 693 gf180mcu_fd_sc_mcu9t5v0__buf_8
* cell instance $147 m0 *1 1293.04,1083.6
X$147 692 20 54 35 693 gf180mcu_fd_sc_mcu9t5v0__dffq_4
* cell instance $159 r0 *1 1345.68,1083.6
X$159 692 21 54 60 693 gf180mcu_fd_sc_mcu9t5v0__dffq_4
* cell instance $166 m0 *1 1246.56,1103.76
X$166 693 46 22 692 73 gf180mcu_fd_sc_mcu9t5v0__and2_2
* cell instance $169 r0 *1 1240.96,1093.68
X$169 692 693 22 47 gf180mcu_fd_sc_mcu9t5v0__clkinv_2
* cell instance $171 m0 *1 1232,1103.76
X$171 692 22 71 693 gf180mcu_fd_sc_mcu9t5v0__clkbuf_8
* cell instance $177 r0 *1 1220.8,1123.92
X$177 692 693 110 23 94 111 gf180mcu_fd_sc_mcu9t5v0__mux2_2
* cell instance $180 r0 *1 1191.12,1123.92
X$180 692 693 107 23 92 130 gf180mcu_fd_sc_mcu9t5v0__mux2_2
* cell instance $183 r0 *1 1344.56,1103.76
X$183 692 693 59 23 77 81 gf180mcu_fd_sc_mcu9t5v0__mux2_2
* cell instance $189 m0 *1 1360.8,1113.84
X$189 692 693 83 23 80 84 gf180mcu_fd_sc_mcu9t5v0__mux2_2
* cell instance $194 r0 *1 1364.72,1134
X$194 692 693 118 142 113 23 gf180mcu_fd_sc_mcu9t5v0__mux2_2
* cell instance $196 m0 *1 1347.92,1123.92
X$196 692 693 23 123 gf180mcu_fd_sc_mcu9t5v0__clkbuf_4
* cell instance $198 r0 *1 1222.48,1093.68
X$198 692 693 64 36 44 23 gf180mcu_fd_sc_mcu9t5v0__mux2_2
* cell instance $210 m0 *1 1247.68,1154.16
X$210 693 24 151 692 153 gf180mcu_fd_sc_mcu9t5v0__and2_2
* cell instance $214 r0 *1 1244.32,1144.08
X$214 692 693 24 150 gf180mcu_fd_sc_mcu9t5v0__clkinv_2
* cell instance $216 m0 *1 1233.12,1123.92
X$216 692 24 70 693 gf180mcu_fd_sc_mcu9t5v0__clkbuf_8
* cell instance $221 r0 *1 1254.96,1144.08
X$221 25 693 37 85 692 154 gf180mcu_fd_sc_mcu9t5v0__and3_2
* cell instance $225 r0 *1 1252.16,1154.16
X$225 201 37 25 692 693 179 gf180mcu_fd_sc_mcu9t5v0__and3_4
* cell instance $227 m0 *1 1244.32,1154.16
X$227 692 693 25 177 gf180mcu_fd_sc_mcu9t5v0__clkinv_2
* cell instance $237 m0 *1 1211.84,1093.68
X$237 692 693 29 43 45 26 gf180mcu_fd_sc_mcu9t5v0__mux2_2
* cell instance $242 m0 *1 1322.16,1103.76
X$242 692 693 57 26 79 78 gf180mcu_fd_sc_mcu9t5v0__mux2_2
* cell instance $247 r0 *1 1310.4,1093.68
X$247 692 693 55 26 61 56 gf180mcu_fd_sc_mcu9t5v0__mux2_2
* cell instance $249 r0 *1 1320.48,1113.84
X$249 692 693 97 26 99 100 gf180mcu_fd_sc_mcu9t5v0__mux2_2
* cell instance $251 r0 *1 1311.52,1123.92
X$251 692 693 114 26 115 127 gf180mcu_fd_sc_mcu9t5v0__mux2_2
* cell instance $255 r0 *1 1212.4,1113.84
X$255 692 693 103 104 93 26 gf180mcu_fd_sc_mcu9t5v0__mux2_2
* cell instance $257 r0 *1 1289.12,1123.92
X$257 692 693 26 91 gf180mcu_fd_sc_mcu9t5v0__clkbuf_4
* cell instance $273 r0 *1 1271.76,1083.6
X$273 693 28 27 157 692 gf180mcu_fd_sc_mcu9t5v0__and2_4
* cell instance $276 m0 *1 1260.56,1093.68
X$276 27 693 49 33 692 74 gf180mcu_fd_sc_mcu9t5v0__and3_2
* cell instance $278 r0 *1 1265.6,1083.6
X$278 27 693 28 33 692 34 gf180mcu_fd_sc_mcu9t5v0__and3_2
* cell instance $280 r0 *1 1250.48,1093.68
X$280 693 49 27 39 692 gf180mcu_fd_sc_mcu9t5v0__and2_4
* cell instance $282 r0 *1 1251.6,1083.6
X$282 692 693 27 51 gf180mcu_fd_sc_mcu9t5v0__clkinv_3
* cell instance $290 r0 *1 1272.32,1093.68
X$290 693 28 51 134 692 gf180mcu_fd_sc_mcu9t5v0__and2_4
* cell instance $296 r0 *1 1260,1083.6
X$296 692 693 28 49 gf180mcu_fd_sc_mcu9t5v0__clkinv_3
* cell instance $299 m0 *1 1268.4,1093.68
X$299 33 28 51 692 693 63 gf180mcu_fd_sc_mcu9t5v0__and3_4
* cell instance $303 m0 *1 1201.76,1083.6
X$303 692 42 31 29 693 gf180mcu_fd_sc_mcu9t5v0__dffq_2
* cell instance $306 m0 *1 1188.32,1113.84
X$306 692 693 90 30 92 67 gf180mcu_fd_sc_mcu9t5v0__mux2_2
* cell instance $308 m0 *1 1218.56,1113.84
X$308 692 693 104 30 94 72 gf180mcu_fd_sc_mcu9t5v0__mux2_2
* cell instance $311 r0 *1 1316,1103.76
X$311 692 693 56 30 77 76 gf180mcu_fd_sc_mcu9t5v0__mux2_2
* cell instance $313 r0 *1 1324.4,1103.76
X$313 692 693 78 30 80 62 gf180mcu_fd_sc_mcu9t5v0__mux2_2
* cell instance $316 r0 *1 1303.12,1123.92
X$316 692 693 128 112 113 30 gf180mcu_fd_sc_mcu9t5v0__mux2_2
* cell instance $318 r0 *1 1210.72,1093.68
X$318 692 693 43 42 44 30 gf180mcu_fd_sc_mcu9t5v0__mux2_2
* cell instance $320 r0 *1 1270.64,1113.84
X$320 692 693 30 88 gf180mcu_fd_sc_mcu9t5v0__clkbuf_4
* cell instance $331 m0 *1 1210.16,1164.24
X$331 692 160 31 693 gf180mcu_fd_sc_mcu9t5v0__clkbuf_20
* cell instance $334 m0 *1 1211.84,1204.56
X$334 692 265 31 288 693 gf180mcu_fd_sc_mcu9t5v0__dffq_2
* cell instance $336 r0 *1 1210.16,1154.16
X$336 692 31 696 693 gf180mcu_fd_sc_mcu9t5v0__clkbuf_12
* cell instance $339 r0 *1 1204,1123.92
X$339 692 72 31 103 693 gf180mcu_fd_sc_mcu9t5v0__dffq_2
* cell instance $342 m0 *1 1218.56,1134
X$342 692 111 31 109 693 gf180mcu_fd_sc_mcu9t5v0__dffq_2
* cell instance $344 r0 *1 1181.04,1154.16
X$344 692 194 31 174 693 gf180mcu_fd_sc_mcu9t5v0__dffq_2
* cell instance $346 r0 *1 1222.48,1083.6
X$346 692 36 31 32 693 gf180mcu_fd_sc_mcu9t5v0__dffq_2
* cell instance $348 m0 *1 1168.16,1113.84
X$348 692 68 31 86 693 gf180mcu_fd_sc_mcu9t5v0__dffq_2
* cell instance $350 r0 *1 1182.72,1134
X$350 692 130 31 129 693 gf180mcu_fd_sc_mcu9t5v0__dffq_2
* cell instance $369 m0 *1 1246.56,1093.68
X$369 692 51 33 50 49 693 gf180mcu_fd_sc_mcu9t5v0__nand3_4
* cell instance $379 r0 *1 1299.76,1103.76
X$379 693 48 34 80 692 gf180mcu_fd_sc_mcu9t5v0__and2_4
* cell instance $381 m0 *1 1294.72,1113.84
X$381 693 692 34 155 95 gf180mcu_fd_sc_mcu9t5v0__nand2_4
* cell instance $383 r0 *1 1287.44,1103.76
X$383 693 34 73 77 692 gf180mcu_fd_sc_mcu9t5v0__and2_4
* cell instance $386 m0 *1 1280.16,1113.84
X$386 692 69 34 96 71 693 gf180mcu_fd_sc_mcu9t5v0__nand3_4
* cell instance $393 m0 *1 1298.08,1103.76
X$393 692 693 75 35 52 gf180mcu_fd_sc_mcu9t5v0__nand2_2
* cell instance $395 m0 *1 1199.52,1134
X$395 692 131 70 111 106 37 130 36 693 gf180mcu_fd_sc_mcu9t5v0__mux4_2
* cell instance $397 r0 *1 1199.52,1134
X$397 692 133 71 111 106 69 130 36 693 gf180mcu_fd_sc_mcu9t5v0__mux4_2
* cell instance $407 r0 *1 1198.4,1103.76
X$407 692 132 70 72 68 37 67 42 693 gf180mcu_fd_sc_mcu9t5v0__mux4_2
* cell instance $412 m0 *1 1256.08,1144.08
X$412 692 37 152 693 gf180mcu_fd_sc_mcu9t5v0__buf_8
* cell instance $414 r0 *1 1201.76,1174.32
X$414 692 37 193 693 gf180mcu_fd_sc_mcu9t5v0__buf_8
* cell instance $416 m0 *1 1209.04,1154.16
X$416 692 37 178 693 gf180mcu_fd_sc_mcu9t5v0__buf_8
* cell instance $419 r0 *1 1244.32,1154.16
X$419 177 692 37 85 693 176 gf180mcu_fd_sc_mcu9t5v0__or3_2
* cell instance $423 m0 *1 1251.04,1164.24
X$423 37 693 201 181 692 177 gf180mcu_fd_sc_mcu9t5v0__nor3_4
* cell instance $430 m0 *1 1198.4,1103.76
X$430 692 38 71 72 68 69 67 42 693 gf180mcu_fd_sc_mcu9t5v0__mux4_2
* cell instance $432 m0 *1 1202.88,1093.68
X$432 692 39 693 38 52 40 41 gf180mcu_fd_sc_mcu9t5v0__aoi22_2
* cell instance $434 m0 *1 1266.72,1214.64
X$434 692 39 693 291 308 41 309 gf180mcu_fd_sc_mcu9t5v0__aoi22_2
* cell instance $440 m0 *1 1204,1144.08
X$440 692 39 693 133 170 169 41 gf180mcu_fd_sc_mcu9t5v0__aoi22_2
* cell instance $442 m0 *1 1202.32,1254.96
X$442 692 39 693 333 413 411 41 gf180mcu_fd_sc_mcu9t5v0__aoi22_2
* cell instance $444 r0 *1 1263.36,1315.44
X$444 692 39 693 553 559 485 41 gf180mcu_fd_sc_mcu9t5v0__aoi22_2
* cell instance $446 m0 *1 1265.6,1325.52
X$446 692 39 693 573 542 486 41 gf180mcu_fd_sc_mcu9t5v0__aoi22_2
* cell instance $448 m0 *1 1213.52,1325.52
X$448 692 39 693 556 558 534 41 gf180mcu_fd_sc_mcu9t5v0__aoi22_2
* cell instance $450 m0 *1 1198.4,1325.52
X$450 692 39 693 567 568 531 41 gf180mcu_fd_sc_mcu9t5v0__aoi22_2
* cell instance $460 m0 *1 1168.72,1194.48
X$460 692 40 175 236 234 192 233 260 693 gf180mcu_fd_sc_mcu9t5v0__mux4_2
* cell instance $467 r0 *1 1260,1093.68
X$467 693 49 51 41 692 gf180mcu_fd_sc_mcu9t5v0__and2_4
* cell instance $495 m0 *1 1242.08,1386
X$495 692 693 641 508 44 500 gf180mcu_fd_sc_mcu9t5v0__mux2_2
* cell instance $498 m0 *1 1220.24,1386
X$498 692 693 650 600 44 514 gf180mcu_fd_sc_mcu9t5v0__mux2_2
* cell instance $501 m0 *1 1203.44,1386
X$501 692 693 636 597 44 490 gf180mcu_fd_sc_mcu9t5v0__mux2_2
* cell instance $503 r0 *1 1232,1244.88
X$503 692 693 372 370 44 336 gf180mcu_fd_sc_mcu9t5v0__mux2_2
* cell instance $508 r0 *1 1265.6,1375.92
X$508 692 693 643 604 44 519 gf180mcu_fd_sc_mcu9t5v0__mux2_2
* cell instance $510 m0 *1 1257.2,1103.76
X$510 693 692 48 44 74 gf180mcu_fd_sc_mcu9t5v0__nand2_4
* cell instance $512 m0 *1 1242.64,1224.72
X$512 692 693 315 266 44 241 gf180mcu_fd_sc_mcu9t5v0__mux2_2
* cell instance $529 r0 *1 1198.4,1396.08
X$529 692 693 652 636 45 539 gf180mcu_fd_sc_mcu9t5v0__mux2_2
* cell instance $531 m0 *1 1231.44,1254.96
X$531 692 693 371 372 45 319 gf180mcu_fd_sc_mcu9t5v0__mux2_2
* cell instance $534 r0 *1 1266.16,1386
X$534 692 693 667 643 45 521 gf180mcu_fd_sc_mcu9t5v0__mux2_2
* cell instance $540 m0 *1 1266.72,1154.16
X$540 693 692 217 45 179 gf180mcu_fd_sc_mcu9t5v0__nand2_4
* cell instance $542 r0 *1 1239.28,1375.92
X$542 692 693 640 641 45 464 gf180mcu_fd_sc_mcu9t5v0__mux2_2
* cell instance $544 m0 *1 1211.84,1386
X$544 692 693 638 650 45 468 gf180mcu_fd_sc_mcu9t5v0__mux2_2
* cell instance $546 r0 *1 1248.8,1214.64
X$546 692 693 328 315 45 247 gf180mcu_fd_sc_mcu9t5v0__mux2_2
* cell instance $562 r0 *1 1243.2,1123.92
X$562 692 50 71 46 693 149 gf180mcu_fd_sc_mcu9t5v0__or3_4
* cell instance $564 r0 *1 1244.88,1113.84
X$564 692 50 47 46 693 102 gf180mcu_fd_sc_mcu9t5v0__or3_4
* cell instance $569 m0 *1 1242.08,1113.84
X$569 693 46 47 692 95 gf180mcu_fd_sc_mcu9t5v0__and2_2
* cell instance $579 m0 *1 1239.28,1134
X$579 692 50 47 69 693 172 gf180mcu_fd_sc_mcu9t5v0__or3_4
* cell instance $586 r0 *1 1288,1093.68
X$586 693 692 63 53 48 gf180mcu_fd_sc_mcu9t5v0__nand2_4
* cell instance $608 m0 *1 1251.6,1134
X$608 692 50 71 69 693 196 gf180mcu_fd_sc_mcu9t5v0__or3_4
* cell instance $628 m0 *1 1341.2,1134
X$628 692 693 140 139 53 88 gf180mcu_fd_sc_mcu9t5v0__mux2_2
* cell instance $631 r0 *1 1334.48,1265.04
X$631 692 693 403 415 53 402 gf180mcu_fd_sc_mcu9t5v0__mux2_2
* cell instance $633 m0 *1 1397.76,1285.2
X$633 692 693 444 450 53 375 gf180mcu_fd_sc_mcu9t5v0__mux2_2
* cell instance $635 m0 *1 1306.48,1275.12
X$635 692 693 452 436 53 418 gf180mcu_fd_sc_mcu9t5v0__mux2_2
* cell instance $637 m0 *1 1383.76,1285.2
X$637 692 693 442 466 53 460 gf180mcu_fd_sc_mcu9t5v0__mux2_2
* cell instance $639 m0 *1 1397.76,1154.16
X$639 692 693 164 162 53 123 gf180mcu_fd_sc_mcu9t5v0__mux2_2
* cell instance $641 m0 *1 1397.76,1204.56
X$641 692 693 283 280 53 249 gf180mcu_fd_sc_mcu9t5v0__mux2_2
* cell instance $643 m0 *1 1397.76,1244.88
X$643 692 693 351 383 53 345 gf180mcu_fd_sc_mcu9t5v0__mux2_2
* cell instance $653 m0 *1 1305.36,1103.76
X$653 692 76 54 55 693 gf180mcu_fd_sc_mcu9t5v0__dffq_2
* cell instance $656 m0 *1 1331.68,1154.16
X$656 692 160 54 693 gf180mcu_fd_sc_mcu9t5v0__clkbuf_20
* cell instance $659 m0 *1 1338.96,1164.24
X$659 692 184 54 209 693 gf180mcu_fd_sc_mcu9t5v0__dffq_2
* cell instance $661 m0 *1 1307.04,1134
X$661 692 116 54 114 693 gf180mcu_fd_sc_mcu9t5v0__dffq_2
* cell instance $663 r0 *1 1321.6,1093.68
X$663 692 62 54 57 693 gf180mcu_fd_sc_mcu9t5v0__dffq_2
* cell instance $666 m0 *1 1316,1123.92
X$666 692 117 54 97 693 gf180mcu_fd_sc_mcu9t5v0__dffq_2
* cell instance $669 r0 *1 1298.08,1134
X$669 692 112 54 136 693 gf180mcu_fd_sc_mcu9t5v0__dffq_2
* cell instance $672 r0 *1 1308.72,1174.32
X$672 692 203 54 218 693 gf180mcu_fd_sc_mcu9t5v0__dffq_2
* cell instance $675 m0 *1 1327.2,1154.16
X$675 692 693 54 gf180mcu_fd_sc_mcu9t5v0__inv_3
* cell instance $679 r0 *1 1325.52,1174.32
X$679 692 207 54 223 693 gf180mcu_fd_sc_mcu9t5v0__dffq_2
* cell instance $681 m0 *1 1338.96,1103.76
X$681 692 81 54 58 693 gf180mcu_fd_sc_mcu9t5v0__dffq_2
* cell instance $709 m0 *1 1350.72,1144.08
X$709 692 693 168 60 170 gf180mcu_fd_sc_mcu9t5v0__nand2_2
* cell instance $713 r0 *1 1306.48,1386
X$713 692 693 660 464 61 668 gf180mcu_fd_sc_mcu9t5v0__mux2_2
* cell instance $717 r0 *1 1280.16,1386
X$717 692 693 656 539 61 657 gf180mcu_fd_sc_mcu9t5v0__mux2_2
* cell instance $719 r0 *1 1335.04,1396.08
X$719 692 693 662 468 61 665 gf180mcu_fd_sc_mcu9t5v0__mux2_2
* cell instance $721 r0 *1 1323.28,1204.56
X$721 692 693 300 247 61 310 gf180mcu_fd_sc_mcu9t5v0__mux2_2
* cell instance $724 m0 *1 1335.04,1386
X$724 692 693 645 521 61 646 gf180mcu_fd_sc_mcu9t5v0__mux2_2
* cell instance $729 m0 *1 1316,1234.8
X$729 692 693 359 319 61 342 gf180mcu_fd_sc_mcu9t5v0__mux2_2
* cell instance $745 r0 *1 1317.68,1164.24
X$745 692 204 206 207 76 178 203 62 693 gf180mcu_fd_sc_mcu9t5v0__mux4_2
* cell instance $747 m0 *1 1315.44,1164.24
X$747 692 156 182 207 76 200 203 62 693 gf180mcu_fd_sc_mcu9t5v0__mux4_2
* cell instance $757 r0 *1 1299.76,1113.84
X$757 693 692 63 98 95 gf180mcu_fd_sc_mcu9t5v0__nand2_4
* cell instance $760 m0 *1 1288.56,1103.76
X$760 693 692 63 113 73 gf180mcu_fd_sc_mcu9t5v0__nand2_4
* cell instance $762 r0 *1 1279.04,1113.84
X$762 692 69 63 101 71 693 gf180mcu_fd_sc_mcu9t5v0__nand3_4
* cell instance $773 m0 *1 1141.28,1154.16
X$773 692 148 65 165 693 gf180mcu_fd_sc_mcu9t5v0__dffq_2
* cell instance $775 r0 *1 1180.48,1103.76
X$775 692 67 65 66 693 gf180mcu_fd_sc_mcu9t5v0__dffq_2
* cell instance $777 r0 *1 1200.64,1194.48
X$777 692 264 65 262 693 gf180mcu_fd_sc_mcu9t5v0__dffq_2
* cell instance $779 r0 *1 1204.56,1164.24
X$779 692 160 65 693 gf180mcu_fd_sc_mcu9t5v0__clkbuf_20
* cell instance $782 r0 *1 1158.08,1123.92
X$782 692 106 65 105 693 gf180mcu_fd_sc_mcu9t5v0__dffq_2
* cell instance $784 m0 *1 1204.56,1184.4
X$784 692 65 693 gf180mcu_fd_sc_mcu9t5v0__clkbuf_16
* cell instance $787 m0 *1 1140.72,1164.24
X$787 692 191 65 190 693 gf180mcu_fd_sc_mcu9t5v0__dffq_2
* cell instance $789 r0 *1 1144.08,1154.16
X$789 692 173 65 189 693 gf180mcu_fd_sc_mcu9t5v0__dffq_2
* cell instance $799 r0 *1 1186.64,1113.84
X$799 692 693 66 90 108 91 gf180mcu_fd_sc_mcu9t5v0__mux2_2
* cell instance $809 r0 *1 1178.24,1113.84
X$809 692 693 87 68 89 88 gf180mcu_fd_sc_mcu9t5v0__mux2_2
* cell instance $822 m0 *1 1227.52,1154.16
X$822 692 69 200 693 gf180mcu_fd_sc_mcu9t5v0__buf_8
* cell instance $824 r0 *1 1198.4,1144.08
X$824 692 69 192 693 gf180mcu_fd_sc_mcu9t5v0__buf_8
* cell instance $826 m0 *1 1247.12,1113.84
X$826 74 71 69 692 693 92 gf180mcu_fd_sc_mcu9t5v0__and3_4
* cell instance $829 r0 *1 1280.16,1134
X$829 692 69 135 693 gf180mcu_fd_sc_mcu9t5v0__buf_8
* cell instance $841 r0 *1 1239.28,1164.24
X$841 692 176 151 70 693 93 gf180mcu_fd_sc_mcu9t5v0__or3_4
* cell instance $847 r0 *1 1212.96,1184.4
X$847 692 693 70 238 gf180mcu_fd_sc_mcu9t5v0__buf_4
* cell instance $849 r0 *1 1262.8,1174.32
X$849 692 693 70 206 gf180mcu_fd_sc_mcu9t5v0__buf_4
* cell instance $851 m0 *1 1285.2,1144.08
X$851 692 70 159 693 gf180mcu_fd_sc_mcu9t5v0__clkbuf_8
* cell instance $871 r0 *1 1202.32,1154.16
X$871 692 693 71 175 gf180mcu_fd_sc_mcu9t5v0__buf_4
* cell instance $873 r0 *1 1218.56,1144.08
X$873 692 71 182 693 gf180mcu_fd_sc_mcu9t5v0__clkbuf_8
* cell instance $885 r0 *1 1282.4,1144.08
X$885 692 71 137 693 gf180mcu_fd_sc_mcu9t5v0__clkbuf_8
* cell instance $910 r0 *1 1247.68,1103.76
X$910 693 692 74 89 73 gf180mcu_fd_sc_mcu9t5v0__nand2_4
* cell instance $919 m0 *1 1258.32,1113.84
X$919 693 74 95 94 692 gf180mcu_fd_sc_mcu9t5v0__and2_4
* cell instance $928 r0 *1 1320.48,1144.08
X$928 692 157 693 156 75 138 134 gf180mcu_fd_sc_mcu9t5v0__aoi22_2
* cell instance $939 m0 *1 1322.16,1254.96
X$939 692 693 342 336 77 380 gf180mcu_fd_sc_mcu9t5v0__mux2_2
* cell instance $941 r0 *1 1314.88,1386
X$941 692 693 668 500 77 610 gf180mcu_fd_sc_mcu9t5v0__mux2_2
* cell instance $944 r0 *1 1288.56,1386
X$944 692 693 657 490 77 628 gf180mcu_fd_sc_mcu9t5v0__mux2_2
* cell instance $946 m0 *1 1340.64,1406.16
X$946 692 693 646 519 77 631 gf180mcu_fd_sc_mcu9t5v0__mux2_2
* cell instance $950 r0 *1 1343.44,1396.08
X$950 692 693 665 514 77 632 gf180mcu_fd_sc_mcu9t5v0__mux2_2
* cell instance $955 r0 *1 1333.92,1204.56
X$955 692 693 310 241 77 301 gf180mcu_fd_sc_mcu9t5v0__mux2_2
* cell instance $972 m0 *1 1366.4,1204.56
X$972 692 693 274 247 79 285 gf180mcu_fd_sc_mcu9t5v0__mux2_2
* cell instance $975 m0 *1 1318.24,1244.88
X$975 692 693 379 319 79 395 gf180mcu_fd_sc_mcu9t5v0__mux2_2
* cell instance $978 r0 *1 1323.28,1386
X$978 692 693 661 464 79 644 gf180mcu_fd_sc_mcu9t5v0__mux2_2
* cell instance $981 m0 *1 1291.36,1406.16
X$981 692 693 659 539 79 658 gf180mcu_fd_sc_mcu9t5v0__mux2_2
* cell instance $984 r0 *1 1364.16,1396.08
X$984 692 693 664 521 79 663 gf180mcu_fd_sc_mcu9t5v0__mux2_2
* cell instance $986 m0 *1 1355.2,1386
X$986 692 693 647 468 79 648 gf180mcu_fd_sc_mcu9t5v0__mux2_2
* cell instance $988 m0 *1 1288.56,1174.32
X$988 693 154 217 79 692 gf180mcu_fd_sc_mcu9t5v0__and2_4
* cell instance $1009 m0 *1 1374.8,1204.56
X$1009 692 693 285 241 80 275 gf180mcu_fd_sc_mcu9t5v0__mux2_2
* cell instance $1011 m0 *1 1328.32,1244.88
X$1011 692 693 395 336 80 381 gf180mcu_fd_sc_mcu9t5v0__mux2_2
* cell instance $1013 r0 *1 1298.08,1386
X$1013 692 693 658 490 80 630 gf180mcu_fd_sc_mcu9t5v0__mux2_2
* cell instance $1016 m0 *1 1319.92,1386
X$1016 692 693 644 500 80 612 gf180mcu_fd_sc_mcu9t5v0__mux2_2
* cell instance $1020 m0 *1 1363.6,1386
X$1020 692 693 648 514 80 633 gf180mcu_fd_sc_mcu9t5v0__mux2_2
* cell instance $1023 r0 *1 1370.88,1386
X$1023 692 693 663 519 80 614 gf180mcu_fd_sc_mcu9t5v0__mux2_2
* cell instance $1046 m0 *1 1355.76,1164.24
X$1046 692 213 206 186 81 178 184 84 693 gf180mcu_fd_sc_mcu9t5v0__mux4_2
* cell instance $1048 r0 *1 1354.08,1154.16
X$1048 692 185 182 186 81 200 184 84 693 gf180mcu_fd_sc_mcu9t5v0__mux4_2
* cell instance $1055 r0 *1 1355.2,1103.76
X$1055 692 84 141 82 693 gf180mcu_fd_sc_mcu9t5v0__dffq_2
* cell instance $1068 r0 *1 1269.52,1164.24
X$1068 693 85 151 222 692 gf180mcu_fd_sc_mcu9t5v0__and2_4
* cell instance $1070 m0 *1 1248.24,1174.32
X$1070 692 693 85 201 gf180mcu_fd_sc_mcu9t5v0__inv_2
* cell instance $1082 m0 *1 1177.12,1123.92
X$1082 692 693 86 87 126 91 gf180mcu_fd_sc_mcu9t5v0__mux2_2
* cell instance $1089 r0 *1 1155.84,1184.4
X$1089 692 693 255 233 102 88 gf180mcu_fd_sc_mcu9t5v0__mux2_2
* cell instance $1091 m0 *1 1332.8,1174.32
X$1091 692 693 224 207 155 88 gf180mcu_fd_sc_mcu9t5v0__mux2_2
* cell instance $1094 r0 *1 1319.92,1123.92
X$1094 692 693 127 116 101 88 gf180mcu_fd_sc_mcu9t5v0__mux2_2
* cell instance $1098 m0 *1 1187.76,1194.48
X$1098 692 693 257 236 196 88 gf180mcu_fd_sc_mcu9t5v0__mux2_2
* cell instance $1101 m0 *1 1332.8,1123.92
X$1101 692 693 100 117 98 88 gf180mcu_fd_sc_mcu9t5v0__mux2_2
* cell instance $1104 m0 *1 1156.4,1194.48
X$1104 692 693 232 234 172 88 gf180mcu_fd_sc_mcu9t5v0__mux2_2
* cell instance $1106 r0 *1 1160.32,1194.48
X$1106 692 693 286 260 149 88 gf180mcu_fd_sc_mcu9t5v0__mux2_2
* cell instance $1108 m0 *1 1313.76,1174.32
X$1108 692 693 219 203 96 88 gf180mcu_fd_sc_mcu9t5v0__mux2_2
* cell instance $1122 r0 *1 1174.88,1123.92
X$1122 692 693 125 106 89 123 gf180mcu_fd_sc_mcu9t5v0__mux2_2
* cell instance $1125 m0 *1 1201.2,1204.56
X$1125 692 693 237 263 89 249 gf180mcu_fd_sc_mcu9t5v0__mux2_2
* cell instance $1127 r0 *1 1239.84,1325.52
X$1127 692 693 535 506 89 402 gf180mcu_fd_sc_mcu9t5v0__mux2_2
* cell instance $1129 m0 *1 1202.88,1345.68
X$1129 692 693 581 582 89 460 gf180mcu_fd_sc_mcu9t5v0__mux2_2
* cell instance $1131 r0 *1 1240.4,1345.68
X$1131 692 693 603 583 89 375 gf180mcu_fd_sc_mcu9t5v0__mux2_2
* cell instance $1133 m0 *1 1172.08,1345.68
X$1133 692 693 592 578 89 418 gf180mcu_fd_sc_mcu9t5v0__mux2_2
* cell instance $1135 m0 *1 1178.24,1234.8
X$1135 692 693 360 314 89 345 gf180mcu_fd_sc_mcu9t5v0__mux2_2
* cell instance $1154 r0 *1 1177.68,1184.4
X$1154 692 693 235 257 197 91 gf180mcu_fd_sc_mcu9t5v0__mux2_2
* cell instance $1156 m0 *1 1151.36,1204.56
X$1156 692 693 258 232 259 91 gf180mcu_fd_sc_mcu9t5v0__mux2_2
* cell instance $1159 m0 *1 1162,1204.56
X$1159 692 693 306 286 166 91 gf180mcu_fd_sc_mcu9t5v0__mux2_2
* cell instance $1161 m0 *1 1297.52,1134
X$1161 692 693 136 128 119 91 gf180mcu_fd_sc_mcu9t5v0__mux2_2
* cell instance $1163 m0 *1 1314.32,1184.4
X$1163 692 693 218 219 220 91 gf180mcu_fd_sc_mcu9t5v0__mux2_2
* cell instance $1166 m0 *1 1330,1184.4
X$1166 692 693 223 224 208 91 gf180mcu_fd_sc_mcu9t5v0__mux2_2
* cell instance $1169 m0 *1 1340.64,1144.08
X$1169 692 693 171 140 161 91 gf180mcu_fd_sc_mcu9t5v0__mux2_2
* cell instance $1171 r0 *1 1147.44,1184.4
X$1171 692 693 231 255 180 91 gf180mcu_fd_sc_mcu9t5v0__mux2_2
* cell instance $1191 m0 *1 1188.88,1244.88
X$1191 692 693 331 336 92 332 gf180mcu_fd_sc_mcu9t5v0__mux2_2
* cell instance $1193 m0 *1 1223.6,1194.48
X$1193 692 693 239 241 92 265 gf180mcu_fd_sc_mcu9t5v0__mux2_2
* cell instance $1195 m0 *1 1185.52,1345.68
X$1195 692 693 580 490 92 579 gf180mcu_fd_sc_mcu9t5v0__mux2_2
* cell instance $1197 m0 *1 1247.12,1305.36
X$1197 692 693 499 500 92 507 gf180mcu_fd_sc_mcu9t5v0__mux2_2
* cell instance $1199 r0 *1 1226.96,1355.76
X$1199 692 693 602 514 92 599 gf180mcu_fd_sc_mcu9t5v0__mux2_2
* cell instance $1201 r0 *1 1253.28,1335.6
X$1201 692 693 585 519 92 584 gf180mcu_fd_sc_mcu9t5v0__mux2_2
* cell instance $1216 m0 *1 1250.48,1386
X$1216 692 693 642 651 93 521 gf180mcu_fd_sc_mcu9t5v0__mux2_2
* cell instance $1218 m0 *1 1204,1396.08
X$1218 692 693 666 637 93 539 gf180mcu_fd_sc_mcu9t5v0__mux2_2
* cell instance $1221 m0 *1 1212.4,1396.08
X$1221 692 693 653 639 93 468 gf180mcu_fd_sc_mcu9t5v0__mux2_2
* cell instance $1224 m0 *1 1235.36,1406.16
X$1224 692 693 671 654 93 464 gf180mcu_fd_sc_mcu9t5v0__mux2_2
* cell instance $1226 r0 *1 1251.6,1194.48
X$1226 692 693 268 292 93 247 gf180mcu_fd_sc_mcu9t5v0__mux2_2
* cell instance $1229 r0 *1 1225.28,1234.8
X$1229 692 693 335 363 93 319 gf180mcu_fd_sc_mcu9t5v0__mux2_2
* cell instance $1244 r0 *1 1211.84,1375.92
X$1244 692 693 637 490 94 598 gf180mcu_fd_sc_mcu9t5v0__mux2_2
* cell instance $1246 m0 *1 1255.52,1396.08
X$1246 692 693 654 500 94 536 gf180mcu_fd_sc_mcu9t5v0__mux2_2
* cell instance $1248 m0 *1 1224.72,1234.8
X$1248 692 693 363 336 94 334 gf180mcu_fd_sc_mcu9t5v0__mux2_2
* cell instance $1251 m0 *1 1228.64,1386
X$1251 692 693 639 514 94 601 gf180mcu_fd_sc_mcu9t5v0__mux2_2
* cell instance $1254 r0 *1 1257.76,1386
X$1254 692 693 651 519 94 605 gf180mcu_fd_sc_mcu9t5v0__mux2_2
* cell instance $1257 m0 *1 1253.28,1194.48
X$1257 692 693 292 241 94 267 gf180mcu_fd_sc_mcu9t5v0__mux2_2
* cell instance $1278 m0 *1 1340.08,1234.8
X$1278 692 693 344 357 96 345 gf180mcu_fd_sc_mcu9t5v0__mux2_2
* cell instance $1280 r0 *1 1284.08,1345.68
X$1280 692 693 623 607 96 418 gf180mcu_fd_sc_mcu9t5v0__mux2_2
* cell instance $1282 r0 *1 1307.04,1345.68
X$1282 692 693 609 611 96 402 gf180mcu_fd_sc_mcu9t5v0__mux2_2
* cell instance $1285 m0 *1 1328.32,1204.56
X$1285 692 693 294 273 96 249 gf180mcu_fd_sc_mcu9t5v0__mux2_2
* cell instance $1288 r0 *1 1344.56,1345.68
X$1288 692 693 620 613 96 460 gf180mcu_fd_sc_mcu9t5v0__mux2_2
* cell instance $1291 m0 *1 1354.64,1335.6
X$1291 692 693 571 565 96 375 gf180mcu_fd_sc_mcu9t5v0__mux2_2
* cell instance $1293 r0 *1 1345.68,1154.16
X$1293 692 693 183 184 96 123 gf180mcu_fd_sc_mcu9t5v0__mux2_2
* cell instance $1308 r0 *1 1406.72,1184.4
X$1308 692 693 252 248 98 249 gf180mcu_fd_sc_mcu9t5v0__mux2_2
* cell instance $1311 m0 *1 1401.12,1234.8
X$1311 692 693 355 318 98 345 gf180mcu_fd_sc_mcu9t5v0__mux2_2
* cell instance $1313 r0 *1 1306.48,1305.36
X$1313 692 693 512 491 98 418 gf180mcu_fd_sc_mcu9t5v0__mux2_2
* cell instance $1316 m0 *1 1397.76,1123.92
X$1316 692 693 121 122 98 123 gf180mcu_fd_sc_mcu9t5v0__mux2_2
* cell instance $1318 m0 *1 1324.4,1295.28
X$1318 692 693 492 494 98 402 gf180mcu_fd_sc_mcu9t5v0__mux2_2
* cell instance $1321 m0 *1 1406.16,1325.52
X$1321 692 693 566 546 98 375 gf180mcu_fd_sc_mcu9t5v0__mux2_2
* cell instance $1323 m0 *1 1409.52,1295.28
X$1323 692 693 495 443 98 460 gf180mcu_fd_sc_mcu9t5v0__mux2_2
* cell instance $1339 r0 *1 1398.32,1184.4
X$1339 692 693 225 247 99 252 gf180mcu_fd_sc_mcu9t5v0__mux2_2
* cell instance $1341 m0 *1 1409.52,1234.8
X$1341 692 693 354 319 99 355 gf180mcu_fd_sc_mcu9t5v0__mux2_2
* cell instance $1343 m0 *1 1307.6,1315.44
X$1343 692 693 555 539 99 512 gf180mcu_fd_sc_mcu9t5v0__mux2_2
* cell instance $1347 m0 *1 1401.12,1295.28
X$1347 692 693 469 468 99 495 gf180mcu_fd_sc_mcu9t5v0__mux2_2
* cell instance $1350 r0 *1 1397.76,1325.52
X$1350 692 693 548 521 99 566 gf180mcu_fd_sc_mcu9t5v0__mux2_2
* cell instance $1352 m0 *1 1294.72,1164.24
X$1352 693 181 202 99 692 gf180mcu_fd_sc_mcu9t5v0__and2_4
* cell instance $1355 m0 *1 1316,1295.28
X$1355 692 693 463 464 99 492 gf180mcu_fd_sc_mcu9t5v0__mux2_2
* cell instance $1380 m0 *1 1408.4,1214.64
X$1380 692 693 281 278 101 249 gf180mcu_fd_sc_mcu9t5v0__mux2_2
* cell instance $1382 r0 *1 1404.48,1234.8
X$1382 692 693 353 352 101 345 gf180mcu_fd_sc_mcu9t5v0__mux2_2
* cell instance $1385 m0 *1 1301.44,1325.52
X$1385 692 693 576 489 101 418 gf180mcu_fd_sc_mcu9t5v0__mux2_2
* cell instance $1387 m0 *1 1406.16,1134
X$1387 692 693 144 143 101 123 gf180mcu_fd_sc_mcu9t5v0__mux2_2
* cell instance $1389 m0 *1 1409.52,1285.2
X$1389 692 693 447 448 101 460 gf180mcu_fd_sc_mcu9t5v0__mux2_2
* cell instance $1393 m0 *1 1397.76,1325.52
X$1393 692 693 547 520 101 375 gf180mcu_fd_sc_mcu9t5v0__mux2_2
* cell instance $1396 m0 *1 1328.32,1285.2
X$1396 692 693 477 438 101 402 gf180mcu_fd_sc_mcu9t5v0__mux2_2
* cell instance $1413 r0 *1 1164.8,1154.16