
* cell parameterized_updown_counter
* pin count[3]
* pin up_down
* pin enable
* pin overflow
* pin count[1]
* pin rst_n
* pin count[2]
* pin clk
* pin count[0]
* pin NWELL
* pin PWELL,gf180mcu_gnd
.SUBCKT parameterized_updown_counter 1 3 10 14 48 49 50 51 52 53 54
* net 1 count[3]
* net 3 up_down
* net 10 enable
* net 14 overflow
* net 48 count[1]
* net 49 rst_n
* net 50 count[2]
* net 51 clk
* net 52 count[0]
* net 53 NWELL
* net 54 PWELL,gf180mcu_gnd
* cell instance $3 r0 *1 108.64,45.36
X$3 2 53 54 1 gf180mcu_fd_sc_mcu9t5v0__dlyb_2
* cell instance $15 m0 *1 63.28,85.68
X$15 25 2 28 4 53 54 26 gf180mcu_fd_sc_mcu9t5v0__or4_2
* cell instance $17 m0 *1 59.36,95.76
X$17 25 2 22 4 54 53 33 gf180mcu_fd_sc_mcu9t5v0__and4_2
* cell instance $19 r0 *1 72.24,95.76
X$19 54 36 22 2 25 53 4 gf180mcu_fd_sc_mcu9t5v0__nand4_2
* cell instance $22 r0 *1 85.12,75.6
X$22 11 53 54 4 2 12 gf180mcu_fd_sc_mcu9t5v0__nor3_2
* cell instance $24 r0 *1 92.96,75.6
X$24 2 8 9 12 54 53 13 gf180mcu_fd_sc_mcu9t5v0__and4_2
* cell instance $26 r0 *1 58.8,75.6
X$26 7 2 17 18 53 54 15 gf180mcu_fd_sc_mcu9t5v0__or4_2
* cell instance $29 r0 *1 81.76,105.84
X$29 54 42 2 43 37 53 gf180mcu_fd_sc_mcu9t5v0__dffrnq_2
* cell instance $31 r0 *1 92.96,85.68
X$31 54 53 19 2 9 gf180mcu_fd_sc_mcu9t5v0__nor2_2
* cell instance $33 m0 *1 69.44,75.6
X$33 53 2 54 6 5 7 gf180mcu_fd_sc_mcu9t5v0__oai21_2
* cell instance $36 r0 *1 6.16,65.52
X$36 3 53 54 4 gf180mcu_fd_sc_mcu9t5v0__buf_3
* cell instance $45 m0 *1 49.84,95.76
X$45 53 4 24 54 34 gf180mcu_fd_sc_mcu9t5v0__xnor2_2
* cell instance $48 r0 *1 67.76,75.6
X$48 4 9 15 5 54 53 16 gf180mcu_fd_sc_mcu9t5v0__and4_2
* cell instance $50 m0 *1 87.36,75.6
X$50 54 53 4 8 gf180mcu_fd_sc_mcu9t5v0__clkinv_2
* cell instance $54 m0 *1 44.8,85.68
X$54 54 53 21 22 4 23 gf180mcu_fd_sc_mcu9t5v0__mux2_2
* cell instance $62 r0 *1 71.68,85.68
X$62 54 22 53 6 31 29 gf180mcu_fd_sc_mcu9t5v0__aoi21_2
* cell instance $69 r0 *1 39.76,85.68
X$69 53 7 27 54 44 gf180mcu_fd_sc_mcu9t5v0__xnor2_2
* cell instance $71 r0 *1 60.48,85.68
X$71 54 53 25 7 gf180mcu_fd_sc_mcu9t5v0__clkinv_2
* cell instance $89 r0 *1 66.64,85.68
X$89 53 9 26 54 30 gf180mcu_fd_sc_mcu9t5v0__and2_2
* cell instance $91 m0 *1 39.76,85.68
X$91 53 9 21 54 27 gf180mcu_fd_sc_mcu9t5v0__and2_2
* cell instance $95 r0 *1 61.04,95.76
X$95 54 53 35 33 9 18 gf180mcu_fd_sc_mcu9t5v0__mux2_2
* cell instance $98 m0 *1 91.28,105.84
X$98 54 53 40 9 32 gf180mcu_fd_sc_mcu9t5v0__nor2_2
* cell instance $100 m0 *1 53.2,105.84
X$100 54 53 39 34 9 29 gf180mcu_fd_sc_mcu9t5v0__mux2_2
* cell instance $103 r0 *1 22.96,75.6
X$103 10 53 54 9 gf180mcu_fd_sc_mcu9t5v0__buf_3
* cell instance $108 m0 *1 85.68,85.68
X$108 11 30 20 37 16 53 54 gf180mcu_fd_sc_mcu9t5v0__aoi211_2
* cell instance $116 r0 *1 78.96,85.68
X$116 12 53 54 29 25 31 gf180mcu_fd_sc_mcu9t5v0__nor3_2
* cell instance $118 m0 *1 96.32,85.68
X$118 54 19 13 53 20 gf180mcu_fd_sc_mcu9t5v0__or2_2
* cell instance $122 m0 *1 118.16,85.68
X$122 32 53 54 14 gf180mcu_fd_sc_mcu9t5v0__dlyb_2
* cell instance $134 m0 *1 53.2,85.68
X$134 23 54 53 18 17 24 gf180mcu_fd_sc_mcu9t5v0__addh_1
* cell instance $137 r0 *1 56,85.68
X$137 54 53 29 17 gf180mcu_fd_sc_mcu9t5v0__clkinv_2
* cell instance $143 m0 *1 66.64,95.76
X$143 54 53 31 18 gf180mcu_fd_sc_mcu9t5v0__clkinv_3
* cell instance $165 m0 *1 72.24,105.84
X$165 54 22 31 29 53 gf180mcu_fd_sc_mcu9t5v0__addh_2
* cell instance $168 r0 *1 52.64,85.68
X$168 54 53 23 28 gf180mcu_fd_sc_mcu9t5v0__clkinv_2
* cell instance $185 m0 *1 66.08,126
X$185 25 53 54 50 gf180mcu_fd_sc_mcu9t5v0__dlyb_2
* cell instance $187 m0 *1 45.36,115.92
X$187 54 42 25 41 44 53 gf180mcu_fd_sc_mcu9t5v0__dffrnq_2
* cell instance $211 r0 *1 68.32,115.92
X$211 29 53 54 48 gf180mcu_fd_sc_mcu9t5v0__dlyb_2
* cell instance $213 r0 *1 59.92,105.84
X$213 54 42 29 41 39 53 gf180mcu_fd_sc_mcu9t5v0__dffrnq_2
* cell instance $216 m0 *1 63.84,105.84
X$216 54 35 53 38 30 31 gf180mcu_fd_sc_mcu9t5v0__aoi21_2
* cell instance $218 m0 *1 84,105.84
X$218 54 40 53 46 36 30 gf180mcu_fd_sc_mcu9t5v0__aoi21_2
* cell instance $229 m0 *1 75.04,126
X$229 31 53 54 52 gf180mcu_fd_sc_mcu9t5v0__dlyb_2
* cell instance $236 m0 *1 64.4,115.92
X$236 54 42 31 43 38 53 gf180mcu_fd_sc_mcu9t5v0__dffrnq_2
* cell instance $243 m0 *1 84,115.92
X$243 54 42 32 43 46 53 gf180mcu_fd_sc_mcu9t5v0__dffrnq_2
* cell instance $273 r0 *1 40.88,105.84
X$273 54 53 41 gf180mcu_fd_sc_mcu9t5v0__clkinv_1
* cell instance $276 m0 *1 37.52,115.92
X$276 54 53 45 41 gf180mcu_fd_sc_mcu9t5v0__clkbuf_3
* cell instance $284 r0 *1 51.52,115.92
X$284 47 53 54 42 gf180mcu_fd_sc_mcu9t5v0__buf_2
* cell instance $294 r0 *1 89.6,115.92
X$294 54 53 45 43 gf180mcu_fd_sc_mcu9t5v0__clkbuf_3
* cell instance $307 r0 *1 60.48,115.92
X$307 54 53 51 45 gf180mcu_fd_sc_mcu9t5v0__clkbuf_3
* cell instance $313 m0 *1 47.04,126
X$313 54 47 49 53 gf180mcu_fd_sc_mcu9t5v0__dlyc_2
.ENDS parameterized_updown_counter

* cell gf180mcu_fd_sc_mcu9t5v0__dlyc_2
* pin PWELL,VSS,gf180mcu_gnd
* pin Z
* pin I
* pin NWELL,VDD
.SUBCKT gf180mcu_fd_sc_mcu9t5v0__dlyc_2 1 7 11 13
* net 1 PWELL,VSS,gf180mcu_gnd
* net 7 Z
* net 11 I
* net 13 NWELL,VDD
* device instance $1 r0 *1 8.34,3.365 pmos_5p0
M$1 6 5 17 13 pmos_5p0 L=0.5U W=0.36U AS=0.27P AD=0.1584P PS=1.98U PD=1.6U
* device instance $2 r0 *1 8.34,4.085 pmos_5p0
M$2 17 5 13 13 pmos_5p0 L=0.5U W=0.36U AS=0.528P AD=0.27P PS=3.13U PD=1.98U
* device instance $3 r0 *1 10.14,3.785 pmos_5p0
M$3 7 6 13 13 pmos_5p0 L=0.5U W=3.66U AS=1.14105P AD=1.41825P PS=5.63U PD=7.04U
* device instance $5 r0 *1 4.34,3.365 pmos_5p0
M$5 4 3 14 13 pmos_5p0 L=0.5U W=0.36U AS=0.27P AD=0.1584P PS=1.98U PD=1.6U
* device instance $6 r0 *1 6.18,3.365 pmos_5p0
M$6 16 4 5 13 pmos_5p0 L=0.5U W=0.36U AS=0.1584P AD=0.27P PS=1.6U PD=1.98U
* device instance $7 r0 *1 4.34,4.085 pmos_5p0
M$7 13 3 14 13 pmos_5p0 L=0.5U W=0.36U AS=0.27P AD=0.2412P PS=1.98U PD=1.7U
* device instance $8 r0 *1 6.18,4.085 pmos_5p0
M$8 13 4 16 13 pmos_5p0 L=0.5U W=0.36U AS=0.27P AD=0.2412P PS=1.98U PD=1.7U
* device instance $9 r0 *1 2.18,3.365 pmos_5p0
M$9 15 2 3 13 pmos_5p0 L=0.5U W=0.36U AS=0.1584P AD=0.27P PS=1.6U PD=1.98U
* device instance $10 r0 *1 0.87,4.085 pmos_5p0
M$10 13 11 2 13 pmos_5p0 L=0.5U W=0.36U AS=0.1584P AD=0.1458P PS=1.6U PD=1.17U
* device instance $11 r0 *1 2.18,4.085 pmos_5p0
M$11 13 2 15 13 pmos_5p0 L=0.5U W=0.36U AS=0.27P AD=0.1458P PS=1.98U PD=1.17U
* device instance $12 r0 *1 0.92,0.795 nmos_5p0
M$12 1 11 2 1 nmos_5p0 L=0.6U W=0.36U AS=0.1584P AD=0.1278P PS=1.6U PD=1.07U
* device instance $13 r0 *1 2.23,0.795 nmos_5p0
M$13 12 2 1 1 nmos_5p0 L=0.6U W=0.36U AS=0.1278P AD=0.27P PS=1.07U PD=1.98U
* device instance $14 r0 *1 2.23,1.515 nmos_5p0
M$14 3 2 12 1 nmos_5p0 L=0.6U W=0.36U AS=0.27P AD=0.1584P PS=1.98U PD=1.6U
* device instance $15 r0 *1 4.39,0.52 nmos_5p0
M$15 1 3 8 1 nmos_5p0 L=0.6U W=0.36U AS=0.27P AD=0.2232P PS=1.98U PD=1.6U
* device instance $16 r0 *1 6.23,0.52 nmos_5p0
M$16 10 4 1 1 nmos_5p0 L=0.6U W=0.36U AS=0.2232P AD=0.27P PS=1.6U PD=1.98U
* device instance $17 r0 *1 4.39,1.24 nmos_5p0
M$17 4 3 8 1 nmos_5p0 L=0.6U W=0.36U AS=0.27P AD=0.1584P PS=1.98U PD=1.6U
* device instance $18 r0 *1 6.23,1.24 nmos_5p0
M$18 5 4 10 1 nmos_5p0 L=0.6U W=0.36U AS=0.27P AD=0.1584P PS=1.98U PD=1.6U
* device instance $19 r0 *1 8.39,0.525 nmos_5p0
M$19 1 5 9 1 nmos_5p0 L=0.6U W=0.36U AS=0.27P AD=0.408P PS=1.98U PD=2.52U
* device instance $20 r0 *1 8.39,1.245 nmos_5p0
M$20 6 5 9 1 nmos_5p0 L=0.6U W=0.36U AS=0.27P AD=0.1584P PS=1.98U PD=1.6U
* device instance $21 r0 *1 10.19,1.005 nmos_5p0
M$21 7 6 1 1 nmos_5p0 L=0.6U W=2.64U AS=0.7512P AD=0.924P PS=4.36U PD=5.36U
.ENDS gf180mcu_fd_sc_mcu9t5v0__dlyc_2

* cell gf180mcu_fd_sc_mcu9t5v0__buf_2
* pin I
* pin NWELL,VDD
* pin PWELL,VSS,gf180mcu_gnd
* pin Z
.SUBCKT gf180mcu_fd_sc_mcu9t5v0__buf_2 1 2 3 5
* net 1 I
* net 2 NWELL,VDD
* net 3 PWELL,VSS,gf180mcu_gnd
* net 5 Z
* device instance $1 r0 *1 0.87,3.78 pmos_5p0
M$1 2 1 4 2 pmos_5p0 L=0.5U W=1.83U AS=0.8052P AD=0.5673P PS=4.54U PD=2.45U
* device instance $2 r0 *1 1.99,3.78 pmos_5p0
M$2 5 4 2 2 pmos_5p0 L=0.5U W=3.66U AS=1.1346P AD=1.3725P PS=4.9U PD=6.99U
* device instance $4 r0 *1 0.92,1.005 nmos_5p0
M$4 3 1 4 3 nmos_5p0 L=0.6U W=1.32U AS=0.5808P AD=0.3432P PS=3.52U PD=1.84U
* device instance $5 r0 *1 2.04,1.005 nmos_5p0
M$5 5 4 3 3 nmos_5p0 L=0.6U W=2.64U AS=0.6864P AD=0.924P PS=3.68U PD=5.36U
.ENDS gf180mcu_fd_sc_mcu9t5v0__buf_2

* cell gf180mcu_fd_sc_mcu9t5v0__clkinv_1
* pin PWELL,VSS,gf180mcu_gnd
* pin NWELL,VDD
* pin I
.SUBCKT gf180mcu_fd_sc_mcu9t5v0__clkinv_1 1 2 3
* net 1 PWELL,VSS,gf180mcu_gnd
* net 2 NWELL,VDD
* net 3 I
* net 4 ZN
* device instance $1 r0 *1 0.87,3.78 pmos_5p0
M$1 4 3 2 2 pmos_5p0 L=0.5U W=1.83U AS=0.8052P AD=0.8052P PS=4.54U PD=4.54U
* device instance $2 r0 *1 0.92,1.3 nmos_5p0
M$2 4 3 1 1 nmos_5p0 L=0.6U W=0.73U AS=0.3212P AD=0.3212P PS=2.34U PD=2.34U
.ENDS gf180mcu_fd_sc_mcu9t5v0__clkinv_1

* cell gf180mcu_fd_sc_mcu9t5v0__addh_1
* pin CO
* pin PWELL,VSS,gf180mcu_gnd
* pin NWELL,VDD
* pin A
* pin B
* pin S
.SUBCKT gf180mcu_fd_sc_mcu9t5v0__addh_1 1 2 3 4 5 9
* net 1 CO
* net 2 PWELL,VSS,gf180mcu_gnd
* net 3 NWELL,VDD
* net 4 A
* net 5 B
* net 9 S
* device instance $1 r0 *1 5.01,3.912 pmos_5p0
M$1 11 5 3 3 pmos_5p0 L=0.5U W=0.915U AS=0.4026P AD=0.2379P PS=2.71U PD=1.435U
* device instance $2 r0 *1 6.03,3.912 pmos_5p0
M$2 8 4 11 3 pmos_5p0 L=0.5U W=0.915U AS=0.2379P AD=0.3294P PS=1.435U PD=1.635U
* device instance $3 r0 *1 7.25,3.912 pmos_5p0
M$3 8 6 3 3 pmos_5p0 L=0.5U W=0.915U AS=0.50325P AD=0.3294P PS=2.53U PD=1.635U
* device instance $4 r0 *1 8.45,3.78 pmos_5p0
M$4 9 8 3 3 pmos_5p0 L=0.5U W=1.83U AS=0.50325P AD=0.8052P PS=2.53U PD=4.54U
* device instance $5 r0 *1 2.23,3.912 pmos_5p0
M$5 6 4 3 3 pmos_5p0 L=0.5U W=0.915U AS=0.5307P AD=0.2379P PS=2.59U PD=1.435U
* device instance $6 r0 *1 3.25,3.912 pmos_5p0
M$6 3 5 6 3 pmos_5p0 L=0.5U W=0.915U AS=0.2379P AD=0.4026P PS=1.435U PD=2.71U
* device instance $7 r0 *1 0.97,3.78 pmos_5p0
M$7 3 6 1 3 pmos_5p0 L=0.5U W=1.83U AS=0.8052P AD=0.5307P PS=4.54U PD=2.59U
* device instance $8 r0 *1 4.96,1.335 nmos_5p0
M$8 8 5 7 2 nmos_5p0 L=0.6U W=0.66U AS=0.2904P AD=0.1716P PS=2.2U PD=1.18U
* device instance $9 r0 *1 6.08,1.335 nmos_5p0
M$9 7 4 8 2 nmos_5p0 L=0.6U W=0.66U AS=0.1716P AD=0.1716P PS=1.18U PD=1.18U
* device instance $10 r0 *1 7.2,1.335 nmos_5p0
M$10 7 6 2 2 nmos_5p0 L=0.6U W=0.66U AS=0.363P AD=0.1716P PS=2.02U PD=1.18U
* device instance $11 r0 *1 8.5,1.005 nmos_5p0
M$11 9 8 2 2 nmos_5p0 L=0.6U W=1.32U AS=0.363P AD=0.5808P PS=2.02U PD=3.52U
* device instance $12 r0 *1 0.92,1.005 nmos_5p0
M$12 2 6 1 2 nmos_5p0 L=0.6U W=1.32U AS=0.5808P AD=0.3828P PS=3.52U PD=2.08U
* device instance $13 r0 *1 2.28,1.335 nmos_5p0
M$13 10 4 2 2 nmos_5p0 L=0.6U W=0.66U AS=0.3828P AD=0.0792P PS=2.08U PD=0.9U
* device instance $14 r0 *1 3.12,1.335 nmos_5p0
M$14 6 5 10 2 nmos_5p0 L=0.6U W=0.66U AS=0.0792P AD=0.2904P PS=0.9U PD=2.2U
.ENDS gf180mcu_fd_sc_mcu9t5v0__addh_1

* cell gf180mcu_fd_sc_mcu9t5v0__xnor2_2
* pin NWELL,VDD
* pin A1
* pin A2
* pin PWELL,VSS,gf180mcu_gnd
* pin ZN
.SUBCKT gf180mcu_fd_sc_mcu9t5v0__xnor2_2 1 5 6 7 8
* net 1 NWELL,VDD
* net 5 A1
* net 6 A2
* net 7 PWELL,VSS,gf180mcu_gnd
* net 8 ZN
* device instance $1 r0 *1 0.97,3.327 pmos_5p0
M$1 10 6 2 1 pmos_5p0 L=0.5U W=0.915U AS=0.4026P AD=0.260775P PS=2.71U PD=1.485U
* device instance $2 r0 *1 2.04,3.327 pmos_5p0
M$2 1 5 10 1 pmos_5p0 L=0.5U W=0.915U AS=0.260775P AD=0.571875P PS=1.485U
+ PD=2.68U
* device instance $3 r0 *1 3.39,3.785 pmos_5p0
M$3 4 2 1 1 pmos_5p0 L=0.5U W=1.83U AS=0.571875P AD=0.4758P PS=2.68U PD=2.35U
* device instance $4 r0 *1 4.41,3.785 pmos_5p0
M$4 3 5 4 1 pmos_5p0 L=0.5U W=1.83U AS=0.4758P AD=0.4758P PS=2.35U PD=2.35U
* device instance $5 r0 *1 5.43,3.785 pmos_5p0
M$5 4 6 3 1 pmos_5p0 L=0.5U W=1.83U AS=0.4758P AD=0.8052P PS=2.35U PD=4.54U
* device instance $6 r0 *1 7.17,3.78 pmos_5p0
M$6 8 3 1 1 pmos_5p0 L=0.5U W=3.66U AS=1.3725P AD=1.3725P PS=6.99U PD=6.99U
* device instance $8 r0 *1 7.22,1.005 nmos_5p0
M$8 8 3 7 7 nmos_5p0 L=0.6U W=2.64U AS=0.924P AD=0.924P PS=5.36U PD=5.36U
* device instance $10 r0 *1 0.92,0.675 nmos_5p0
M$10 2 6 7 7 nmos_5p0 L=0.6U W=0.66U AS=0.2904P AD=0.1716P PS=2.2U PD=1.18U
* device instance $11 r0 *1 2.04,0.675 nmos_5p0
M$11 7 5 2 7 nmos_5p0 L=0.6U W=0.66U AS=0.1716P AD=0.363P PS=1.18U PD=2.02U
* device instance $12 r0 *1 3.34,1.005 nmos_5p0
M$12 3 2 7 7 nmos_5p0 L=0.6U W=1.32U AS=0.363P AD=0.3432P PS=2.02U PD=1.84U
* device instance $13 r0 *1 4.46,1.005 nmos_5p0
M$13 9 5 3 7 nmos_5p0 L=0.6U W=1.32U AS=0.3432P AD=0.2112P PS=1.84U PD=1.64U
* device instance $14 r0 *1 5.38,1.005 nmos_5p0
M$14 7 6 9 7 nmos_5p0 L=0.6U W=1.32U AS=0.2112P AD=0.5808P PS=1.64U PD=3.52U
.ENDS gf180mcu_fd_sc_mcu9t5v0__xnor2_2

* cell gf180mcu_fd_sc_mcu9t5v0__and2_2
* pin NWELL,VDD
* pin A1
* pin A2
* pin PWELL,VSS,gf180mcu_gnd
* pin Z
.SUBCKT gf180mcu_fd_sc_mcu9t5v0__and2_2 2 3 4 5 6
* net 2 NWELL,VDD
* net 3 A1
* net 4 A2
* net 5 PWELL,VSS,gf180mcu_gnd
* net 6 Z
* device instance $1 r0 *1 0.885,3.685 pmos_5p0
M$1 1 3 2 2 pmos_5p0 L=0.5U W=1.64U AS=0.7216P AD=0.4264P PS=4.16U PD=2.16U
* device instance $2 r0 *1 1.905,3.685 pmos_5p0
M$2 2 4 1 2 pmos_5p0 L=0.5U W=1.64U AS=0.4264P AD=0.6486P PS=2.16U PD=2.57U
* device instance $3 r0 *1 3.145,3.78 pmos_5p0
M$3 6 1 2 2 pmos_5p0 L=0.5U W=3.66U AS=1.1244P AD=1.281P PS=4.92U PD=6.89U
* device instance $5 r0 *1 0.935,1.005 nmos_5p0
M$5 7 3 1 5 nmos_5p0 L=0.6U W=1.32U AS=0.5808P AD=0.2112P PS=3.52U PD=1.64U
* device instance $6 r0 *1 1.855,1.005 nmos_5p0
M$6 5 4 7 5 nmos_5p0 L=0.6U W=1.32U AS=0.2112P AD=0.3432P PS=1.64U PD=1.84U
* device instance $7 r0 *1 2.975,1.005 nmos_5p0
M$7 6 1 5 5 nmos_5p0 L=0.6U W=2.64U AS=0.6864P AD=0.924P PS=3.68U PD=5.36U
.ENDS gf180mcu_fd_sc_mcu9t5v0__and2_2

* cell gf180mcu_fd_sc_mcu9t5v0__clkinv_2
* pin PWELL,VSS,gf180mcu_gnd
* pin NWELL,VDD
* pin I
* pin ZN
.SUBCKT gf180mcu_fd_sc_mcu9t5v0__clkinv_2 1 2 3 4
* net 1 PWELL,VSS,gf180mcu_gnd
* net 2 NWELL,VDD
* net 3 I
* net 4 ZN
* device instance $1 r0 *1 0.87,3.78 pmos_5p0
M$1 4 3 2 2 pmos_5p0 L=0.5U W=3.66U AS=1.3725P AD=1.3725P PS=6.99U PD=6.99U
* device instance $3 r0 *1 0.92,1.3 nmos_5p0
M$3 4 3 1 1 nmos_5p0 L=0.6U W=1.46U AS=0.511P AD=0.511P PS=3.59U PD=3.59U
.ENDS gf180mcu_fd_sc_mcu9t5v0__clkinv_2

* cell gf180mcu_fd_sc_mcu9t5v0__aoi211_2
* pin A2
* pin A1
* pin B
* pin ZN
* pin C
* pin NWELL,VDD
* pin PWELL,VSS,gf180mcu_gnd
.SUBCKT gf180mcu_fd_sc_mcu9t5v0__aoi211_2 1 2 4 5 6 7 8
* net 1 A2
* net 2 A1
* net 4 B
* net 5 ZN
* net 6 C
* net 7 NWELL,VDD
* net 8 PWELL,VSS,gf180mcu_gnd
* device instance $1 r0 *1 0.87,3.78 pmos_5p0
M$1 5 1 3 7 pmos_5p0 L=0.5U W=3.66U AS=1.281P AD=1.3359P PS=6.89U PD=5.12U
* device instance $2 r0 *1 1.89,3.78 pmos_5p0
M$2 3 2 5 7 pmos_5p0 L=0.5U W=3.66U AS=0.9516P AD=0.9516P PS=4.7U PD=4.7U
* device instance $5 r0 *1 5.37,3.78 pmos_5p0
M$5 12 4 3 7 pmos_5p0 L=0.5U W=1.83U AS=0.8601P AD=0.2196P PS=2.77U PD=2.07U
* device instance $6 r0 *1 6.11,3.78 pmos_5p0
M$6 7 6 12 7 pmos_5p0 L=0.5U W=1.83U AS=0.2196P AD=0.549P PS=2.07U PD=2.43U
* device instance $7 r0 *1 7.21,3.78 pmos_5p0
M$7 11 6 7 7 pmos_5p0 L=0.5U W=1.83U AS=0.549P AD=0.4392P PS=2.43U PD=2.31U
* device instance $8 r0 *1 8.19,3.78 pmos_5p0
M$8 3 4 11 7 pmos_5p0 L=0.5U W=1.83U AS=0.4392P AD=0.8052P PS=2.31U PD=4.54U
* device instance $9 r0 *1 5.02,0.745 nmos_5p0
M$9 5 4 8 8 nmos_5p0 L=0.6U W=1.58U AS=0.5609P AD=0.553P PS=3.195U PD=3.77U
* device instance $10 r0 *1 6.14,0.745 nmos_5p0
M$10 8 6 5 8 nmos_5p0 L=0.6U W=1.58U AS=0.4108P AD=0.4108P PS=2.62U PD=2.62U
* device instance $13 r0 *1 0.92,0.942 nmos_5p0
M$13 10 1 8 8 nmos_5p0 L=0.6U W=1.185U AS=0.5214P AD=0.1422P PS=3.25U PD=1.425U
* device instance $14 r0 *1 1.76,0.942 nmos_5p0
M$14 5 2 10 8 nmos_5p0 L=0.6U W=1.185U AS=0.1422P AD=0.3081P PS=1.425U PD=1.705U
* device instance $15 r0 *1 2.88,0.942 nmos_5p0
M$15 9 2 5 8 nmos_5p0 L=0.6U W=1.185U AS=0.3081P AD=0.1422P PS=1.705U PD=1.425U
* device instance $16 r0 *1 3.72,0.942 nmos_5p0
M$16 8 1 9 8 nmos_5p0 L=0.6U W=1.185U AS=0.1422P AD=0.3555P PS=1.425U PD=1.885U
.ENDS gf180mcu_fd_sc_mcu9t5v0__aoi211_2

* cell gf180mcu_fd_sc_mcu9t5v0__oai21_2
* pin NWELL,VDD
* pin B
* pin PWELL,VSS,gf180mcu_gnd
* pin A2
* pin ZN
* pin A1
.SUBCKT gf180mcu_fd_sc_mcu9t5v0__oai21_2 1 2 3 4 5 6
* net 1 NWELL,VDD
* net 2 B
* net 3 PWELL,VSS,gf180mcu_gnd
* net 4 A2
* net 5 ZN
* net 6 A1
* device instance $1 r0 *1 0.97,3.872 pmos_5p0
M$1 5 2 1 1 pmos_5p0 L=0.5U W=3.29U AS=1.353P AD=0.8554P PS=6.72U PD=4.33U
* device instance $3 r0 *1 3.21,3.78 pmos_5p0
M$3 9 4 1 1 pmos_5p0 L=0.5U W=1.83U AS=0.6292P AD=0.52155P PS=2.55U PD=2.4U
* device instance $4 r0 *1 4.28,3.78 pmos_5p0
M$4 5 6 9 1 pmos_5p0 L=0.5U W=1.83U AS=0.52155P AD=0.5673P PS=2.4U PD=2.45U
* device instance $5 r0 *1 5.4,3.78 pmos_5p0
M$5 8 6 5 1 pmos_5p0 L=0.5U W=1.83U AS=0.5673P AD=0.52155P PS=2.45U PD=2.4U
* device instance $6 r0 *1 6.47,3.78 pmos_5p0
M$6 1 4 8 1 pmos_5p0 L=0.5U W=1.83U AS=0.52155P AD=0.8052P PS=2.4U PD=4.54U
* device instance $7 r0 *1 0.92,1.005 nmos_5p0
M$7 3 2 7 3 nmos_5p0 L=0.6U W=2.64U AS=0.924P AD=0.6864P PS=5.36U PD=3.68U
* device instance $9 r0 *1 3.16,1.005 nmos_5p0
M$9 5 4 7 3 nmos_5p0 L=0.6U W=2.64U AS=0.6864P AD=0.924P PS=3.68U PD=5.36U
* device instance $10 r0 *1 4.28,1.005 nmos_5p0
M$10 7 6 5 3 nmos_5p0 L=0.6U W=2.64U AS=0.6864P AD=0.6864P PS=3.68U PD=3.68U
.ENDS gf180mcu_fd_sc_mcu9t5v0__oai21_2

* cell gf180mcu_fd_sc_mcu9t5v0__nor3_2
* pin ZN
* pin NWELL,VDD
* pin PWELL,VSS,gf180mcu_gnd
* pin A2
* pin A1
* pin A3
.SUBCKT gf180mcu_fd_sc_mcu9t5v0__nor3_2 1 2 3 4 5 6
* net 1 ZN
* net 2 NWELL,VDD
* net 3 PWELL,VSS,gf180mcu_gnd
* net 4 A2
* net 5 A1
* net 6 A3
* device instance $1 r0 *1 0.97,3.78 pmos_5p0
M$1 10 6 2 2 pmos_5p0 L=0.5U W=1.83U AS=0.8052P AD=0.5673P PS=4.54U PD=2.45U
* device instance $2 r0 *1 2.09,3.78 pmos_5p0
M$2 9 4 10 2 pmos_5p0 L=0.5U W=1.83U AS=0.5673P AD=0.52155P PS=2.45U PD=2.4U
* device instance $3 r0 *1 3.16,3.78 pmos_5p0
M$3 1 5 9 2 pmos_5p0 L=0.5U W=1.83U AS=0.52155P AD=0.5673P PS=2.4U PD=2.45U
* device instance $4 r0 *1 4.28,3.78 pmos_5p0
M$4 8 5 1 2 pmos_5p0 L=0.5U W=1.83U AS=0.5673P AD=0.5673P PS=2.45U PD=2.45U
* device instance $5 r0 *1 5.4,3.78 pmos_5p0
M$5 7 4 8 2 pmos_5p0 L=0.5U W=1.83U AS=0.5673P AD=0.52155P PS=2.45U PD=2.4U
* device instance $6 r0 *1 6.47,3.78 pmos_5p0
M$6 2 6 7 2 pmos_5p0 L=0.5U W=1.83U AS=0.52155P AD=0.8052P PS=2.4U PD=4.54U
* device instance $7 r0 *1 0.92,0.74 nmos_5p0
M$7 3 6 1 3 nmos_5p0 L=0.6U W=1.58U AS=0.553P AD=0.553P PS=3.77U PD=3.77U
* device instance $8 r0 *1 2.04,0.74 nmos_5p0
M$8 1 4 3 3 nmos_5p0 L=0.6U W=1.58U AS=0.4108P AD=0.4108P PS=2.62U PD=2.62U
* device instance $9 r0 *1 3.16,0.74 nmos_5p0
M$9 3 5 1 3 nmos_5p0 L=0.6U W=1.58U AS=0.4108P AD=0.4108P PS=2.62U PD=2.62U
.ENDS gf180mcu_fd_sc_mcu9t5v0__nor3_2

* cell gf180mcu_fd_sc_mcu9t5v0__dlyb_2
* pin I
* pin NWELL,VDD
* pin PWELL,VSS,gf180mcu_gnd
* pin Z
.SUBCKT gf180mcu_fd_sc_mcu9t5v0__dlyb_2 1 2 3 7
* net 1 I
* net 2 NWELL,VDD
* net 3 PWELL,VSS,gf180mcu_gnd
* net 7 Z
* device instance $1 r0 *1 4.34,3.365 pmos_5p0
M$1 6 4 10 2 pmos_5p0 L=0.5U W=0.36U AS=0.27P AD=0.1584P PS=1.98U PD=1.6U
* device instance $2 r0 *1 4.34,4.085 pmos_5p0
M$2 10 4 2 2 pmos_5p0 L=0.5U W=0.36U AS=0.528P AD=0.27P PS=3.13U PD=1.98U
* device instance $3 r0 *1 6.14,3.785 pmos_5p0
M$3 7 6 2 2 pmos_5p0 L=0.5U W=3.66U AS=1.14105P AD=1.41825P PS=5.63U PD=7.04U
* device instance $5 r0 *1 2.18,3.365 pmos_5p0
M$5 11 5 4 2 pmos_5p0 L=0.5U W=0.36U AS=0.1584P AD=0.27P PS=1.6U PD=1.98U
* device instance $6 r0 *1 0.87,4.085 pmos_5p0
M$6 2 1 5 2 pmos_5p0 L=0.5U W=0.36U AS=0.1584P AD=0.1458P PS=1.6U PD=1.17U
* device instance $7 r0 *1 2.18,4.085 pmos_5p0
M$7 2 5 11 2 pmos_5p0 L=0.5U W=0.36U AS=0.27P AD=0.1458P PS=1.98U PD=1.17U
* device instance $8 r0 *1 0.92,0.795 nmos_5p0
M$8 3 1 5 3 nmos_5p0 L=0.6U W=0.36U AS=0.1584P AD=0.1278P PS=1.6U PD=1.07U
* device instance $9 r0 *1 2.23,0.795 nmos_5p0
M$9 8 5 3 3 nmos_5p0 L=0.6U W=0.36U AS=0.1278P AD=0.27P PS=1.07U PD=1.98U
* device instance $10 r0 *1 2.23,1.515 nmos_5p0
M$10 4 5 8 3 nmos_5p0 L=0.6U W=0.36U AS=0.27P AD=0.1584P PS=1.98U PD=1.6U
* device instance $11 r0 *1 4.39,0.525 nmos_5p0
M$11 3 4 9 3 nmos_5p0 L=0.6U W=0.36U AS=0.27P AD=0.408P PS=1.98U PD=2.52U
* device instance $12 r0 *1 4.39,1.245 nmos_5p0
M$12 6 4 9 3 nmos_5p0 L=0.6U W=0.36U AS=0.27P AD=0.1584P PS=1.98U PD=1.6U
* device instance $13 r0 *1 6.19,1.005 nmos_5p0
M$13 7 6 3 3 nmos_5p0 L=0.6U W=2.64U AS=0.7512P AD=0.924P PS=4.36U PD=5.36U
.ENDS gf180mcu_fd_sc_mcu9t5v0__dlyb_2

* cell gf180mcu_fd_sc_mcu9t5v0__addh_2
* pin PWELL,VSS,gf180mcu_gnd
* pin CO
* pin A
* pin B
* pin NWELL,VDD
.SUBCKT gf180mcu_fd_sc_mcu9t5v0__addh_2 1 2 7 8 10
* net 1 PWELL,VSS,gf180mcu_gnd
* net 2 CO
* net 6 S
* net 7 A
* net 8 B
* net 10 NWELL,VDD
* device instance $1 r0 *1 5.99,3.78 pmos_5p0
M$1 11 8 10 10 pmos_5p0 L=0.5U W=1.83U AS=0.8052P AD=0.52155P PS=4.54U PD=2.4U
* device instance $2 r0 *1 7.06,3.78 pmos_5p0
M$2 5 7 11 10 pmos_5p0 L=0.5U W=1.83U AS=0.52155P AD=0.52155P PS=2.4U PD=2.4U
* device instance $3 r0 *1 8.13,3.78 pmos_5p0
M$3 10 3 5 10 pmos_5p0 L=0.5U W=1.83U AS=0.52155P AD=0.8784P PS=2.4U PD=2.79U
* device instance $4 r0 *1 9.59,3.78 pmos_5p0
M$4 6 5 10 10 pmos_5p0 L=0.5U W=3.66U AS=1.39995P AD=1.32675P PS=5.19U PD=6.94U
* device instance $6 r0 *1 0.94,3.78 pmos_5p0
M$6 2 3 10 10 pmos_5p0 L=0.5U W=3.66U AS=1.3725P AD=1.08885P PS=6.99U PD=4.85U
* device instance $8 r0 *1 3.13,3.78 pmos_5p0
M$8 3 7 10 10 pmos_5p0 L=0.5U W=1.83U AS=0.52155P AD=0.4758P PS=2.4U PD=2.35U
* device instance $9 r0 *1 4.15,3.78 pmos_5p0
M$9 10 8 3 10 pmos_5p0 L=0.5U W=1.83U AS=0.4758P AD=0.8052P PS=2.35U PD=4.54U
* device instance $10 r0 *1 5.94,1.005 nmos_5p0
M$10 5 8 4 1 nmos_5p0 L=0.6U W=1.32U AS=0.5808P AD=0.3432P PS=3.52U PD=1.84U
* device instance $11 r0 *1 7.06,1.005 nmos_5p0
M$11 4 7 5 1 nmos_5p0 L=0.6U W=1.32U AS=0.3432P AD=0.3432P PS=1.84U PD=1.84U
* device instance $12 r0 *1 8.18,1.005 nmos_5p0
M$12 1 3 4 1 nmos_5p0 L=0.6U W=1.32U AS=0.3432P AD=0.5016P PS=1.84U PD=2.08U
* device instance $13 r0 *1 9.54,1.005 nmos_5p0
M$13 6 5 1 1 nmos_5p0 L=0.6U W=2.64U AS=0.8448P AD=0.924P PS=3.92U PD=5.36U
* device instance $15 r0 *1 0.94,1.005 nmos_5p0
M$15 2 3 1 1 nmos_5p0 L=0.6U W=2.64U AS=0.924P AD=0.6864P PS=5.36U PD=3.68U
* device instance $17 r0 *1 3.18,1.005 nmos_5p0
M$17 9 7 1 1 nmos_5p0 L=0.6U W=1.32U AS=0.3432P AD=0.2112P PS=1.84U PD=1.64U
* device instance $18 r0 *1 4.1,1.005 nmos_5p0
M$18 3 8 9 1 nmos_5p0 L=0.6U W=1.32U AS=0.2112P AD=0.5808P PS=1.64U PD=3.52U
.ENDS gf180mcu_fd_sc_mcu9t5v0__addh_2

* cell gf180mcu_fd_sc_mcu9t5v0__nand4_2
* pin PWELL,VSS,gf180mcu_gnd
* pin ZN
* pin A3
* pin A2
* pin A1
* pin NWELL,VDD
* pin A4
.SUBCKT gf180mcu_fd_sc_mcu9t5v0__nand4_2 1 2 3 4 5 6 7
* net 1 PWELL,VSS,gf180mcu_gnd
* net 2 ZN
* net 3 A3
* net 4 A2
* net 5 A1
* net 6 NWELL,VDD
* net 7 A4
* device instance $1 r0 *1 0.87,4.055 pmos_5p0
M$1 6 7 2 6 pmos_5p0 L=0.5U W=2.56U AS=0.896P AD=0.896P PS=5.24U PD=5.24U
* device instance $2 r0 *1 1.89,4.055 pmos_5p0
M$2 2 3 6 6 pmos_5p0 L=0.5U W=2.56U AS=0.6656P AD=0.6656P PS=3.6U PD=3.6U
* device instance $3 r0 *1 2.91,4.055 pmos_5p0
M$3 6 4 2 6 pmos_5p0 L=0.5U W=2.56U AS=0.6656P AD=0.6656P PS=3.6U PD=3.6U
* device instance $4 r0 *1 3.93,4.055 pmos_5p0
M$4 2 5 6 6 pmos_5p0 L=0.5U W=2.56U AS=0.6656P AD=0.6656P PS=3.6U PD=3.6U
* device instance $9 r0 *1 0.92,1.005 nmos_5p0
M$9 13 7 1 1 nmos_5p0 L=0.6U W=1.32U AS=0.5808P AD=0.2442P PS=3.52U PD=1.69U
* device instance $10 r0 *1 1.89,1.005 nmos_5p0
M$10 12 3 13 1 nmos_5p0 L=0.6U W=1.32U AS=0.2442P AD=0.2442P PS=1.69U PD=1.69U
* device instance $11 r0 *1 2.86,1.005 nmos_5p0
M$11 11 4 12 1 nmos_5p0 L=0.6U W=1.32U AS=0.2442P AD=0.2772P PS=1.69U PD=1.74U
* device instance $12 r0 *1 3.88,1.005 nmos_5p0
M$12 2 5 11 1 nmos_5p0 L=0.6U W=1.32U AS=0.2772P AD=0.3432P PS=1.74U PD=1.84U
* device instance $13 r0 *1 5,1.005 nmos_5p0
M$13 9 5 2 1 nmos_5p0 L=0.6U W=1.32U AS=0.3432P AD=0.2442P PS=1.84U PD=1.69U
* device instance $14 r0 *1 5.97,1.005 nmos_5p0
M$14 8 4 9 1 nmos_5p0 L=0.6U W=1.32U AS=0.2442P AD=0.2772P PS=1.69U PD=1.74U
* device instance $15 r0 *1 6.99,1.005 nmos_5p0
M$15 10 3 8 1 nmos_5p0 L=0.6U W=1.32U AS=0.2772P AD=0.2442P PS=1.74U PD=1.69U
* device instance $16 r0 *1 7.96,1.005 nmos_5p0
M$16 1 7 10 1 nmos_5p0 L=0.6U W=1.32U AS=0.2442P AD=0.5808P PS=1.69U PD=3.52U
.ENDS gf180mcu_fd_sc_mcu9t5v0__nand4_2

* cell gf180mcu_fd_sc_mcu9t5v0__or2_2
* pin PWELL,VSS,gf180mcu_gnd
* pin A1
* pin A2
* pin NWELL,VDD
* pin Z
.SUBCKT gf180mcu_fd_sc_mcu9t5v0__or2_2 1 2 4 5 6
* net 1 PWELL,VSS,gf180mcu_gnd
* net 2 A1
* net 4 A2
* net 5 NWELL,VDD
* net 6 Z
* device instance $1 r0 *1 0.97,3.78 pmos_5p0
M$1 7 2 3 5 pmos_5p0 L=0.5U W=1.83U AS=0.8052P AD=0.52155P PS=4.54U PD=2.4U
* device instance $2 r0 *1 2.04,3.78 pmos_5p0
M$2 5 4 7 5 pmos_5p0 L=0.5U W=1.83U AS=0.52155P AD=0.5673P PS=2.4U PD=2.45U
* device instance $3 r0 *1 3.16,3.78 pmos_5p0
M$3 6 3 5 5 pmos_5p0 L=0.5U W=3.66U AS=1.08885P AD=1.32675P PS=4.85U PD=6.94U
* device instance $5 r0 *1 0.92,1.005 nmos_5p0
M$5 3 2 1 1 nmos_5p0 L=0.6U W=1.32U AS=0.5808P AD=0.3432P PS=3.52U PD=1.84U
* device instance $6 r0 *1 2.04,1.005 nmos_5p0
M$6 1 4 3 1 nmos_5p0 L=0.6U W=1.32U AS=0.3432P AD=0.3432P PS=1.84U PD=1.84U
* device instance $7 r0 *1 3.16,1.005 nmos_5p0
M$7 6 3 1 1 nmos_5p0 L=0.6U W=2.64U AS=0.6864P AD=0.924P PS=3.68U PD=5.36U
.ENDS gf180mcu_fd_sc_mcu9t5v0__or2_2

* cell gf180mcu_fd_sc_mcu9t5v0__nor2_2
* pin PWELL,VSS,gf180mcu_gnd
* pin NWELL,VDD
* pin ZN
* pin A1
* pin A2
.SUBCKT gf180mcu_fd_sc_mcu9t5v0__nor2_2 1 2 3 4 5
* net 1 PWELL,VSS,gf180mcu_gnd
* net 2 NWELL,VDD
* net 3 ZN
* net 4 A1
* net 5 A2
* device instance $1 r0 *1 0.92,3.78 pmos_5p0
M$1 7 5 2 2 pmos_5p0 L=0.5U W=1.83U AS=0.8052P AD=0.5673P PS=4.54U PD=2.45U
* device instance $2 r0 *1 2.04,3.78 pmos_5p0
M$2 3 4 7 2 pmos_5p0 L=0.5U W=1.83U AS=0.5673P AD=0.52155P PS=2.45U PD=2.4U
* device instance $3 r0 *1 3.11,3.78 pmos_5p0
M$3 6 4 3 2 pmos_5p0 L=0.5U W=1.83U AS=0.52155P AD=0.61305P PS=2.4U PD=2.5U
* device instance $4 r0 *1 4.28,3.78 pmos_5p0
M$4 2 5 6 2 pmos_5p0 L=0.5U W=1.83U AS=0.61305P AD=0.8052P PS=2.5U PD=4.54U
* device instance $5 r0 *1 0.92,1.04 nmos_5p0
M$5 3 5 1 1 nmos_5p0 L=0.6U W=1.84U AS=0.644P AD=0.644P PS=4.16U PD=4.16U
* device instance $6 r0 *1 2.04,1.04 nmos_5p0
M$6 1 4 3 1 nmos_5p0 L=0.6U W=1.84U AS=0.4784P AD=0.4784P PS=2.88U PD=2.88U
.ENDS gf180mcu_fd_sc_mcu9t5v0__nor2_2

* cell gf180mcu_fd_sc_mcu9t5v0__clkinv_3
* pin PWELL,VSS,gf180mcu_gnd
* pin NWELL,VDD
* pin I
* pin ZN
.SUBCKT gf180mcu_fd_sc_mcu9t5v0__clkinv_3 1 2 3 4
* net 1 PWELL,VSS,gf180mcu_gnd
* net 2 NWELL,VDD
* net 3 I
* net 4 ZN
* device instance $1 r0 *1 0.87,3.78 pmos_5p0
M$1 4 3 2 2 pmos_5p0 L=0.5U W=5.49U AS=1.9398P AD=1.9398P PS=9.44U PD=9.44U
* device instance $4 r0 *1 0.92,0.995 nmos_5p0
M$4 4 3 1 1 nmos_5p0 L=0.6U W=2.19U AS=0.7008P AD=0.7008P PS=4.84U PD=4.84U
.ENDS gf180mcu_fd_sc_mcu9t5v0__clkinv_3

* cell gf180mcu_fd_sc_mcu9t5v0__buf_3
* pin I
* pin NWELL,VDD
* pin PWELL,VSS,gf180mcu_gnd
* pin Z
.SUBCKT gf180mcu_fd_sc_mcu9t5v0__buf_3 1 2 3 5
* net 1 I
* net 2 NWELL,VDD
* net 3 PWELL,VSS,gf180mcu_gnd
* net 5 Z
* device instance $1 r0 *1 0.87,3.78 pmos_5p0
M$1 2 1 4 2 pmos_5p0 L=0.5U W=1.83U AS=0.8052P AD=0.74115P PS=4.54U PD=2.64U
* device instance $2 r0 *1 2.18,3.78 pmos_5p0
M$2 5 4 2 2 pmos_5p0 L=0.5U W=5.49U AS=1.87575P AD=1.9398P PS=7.54U PD=9.44U
* device instance $5 r0 *1 0.92,1.005 nmos_5p0
M$5 3 1 4 3 nmos_5p0 L=0.6U W=1.32U AS=0.5808P AD=0.4686P PS=3.52U PD=2.03U
* device instance $6 r0 *1 2.23,1.005 nmos_5p0
M$6 5 4 3 3 nmos_5p0 L=0.6U W=3.96U AS=1.155P AD=1.2672P PS=5.71U PD=7.2U
.ENDS gf180mcu_fd_sc_mcu9t5v0__buf_3

* cell gf180mcu_fd_sc_mcu9t5v0__dffrnq_2
* pin PWELL,VSS,gf180mcu_gnd
* pin RN
* pin Q
* pin CLK
* pin D
* pin NWELL,VDD
.SUBCKT gf180mcu_fd_sc_mcu9t5v0__dffrnq_2 1 2 11 15 16 17
* net 1 PWELL,VSS,gf180mcu_gnd
* net 2 RN
* net 11 Q
* net 15 CLK
* net 16 D
* net 17 NWELL,VDD
* device instance $1 r0 *1 17.05,3.78 pmos_5p0
M$1 11 3 17 17 pmos_5p0 L=0.5U W=3.66U AS=1.281P AD=1.281P PS=6.89U PD=6.89U
* device instance $3 r0 *1 9.67,3.64 pmos_5p0
M$3 8 6 17 17 pmos_5p0 L=0.5U W=1U AS=0.44P AD=0.26P PS=2.88U PD=1.52U
* device instance $4 r0 *1 10.69,3.64 pmos_5p0
M$4 9 4 8 17 pmos_5p0 L=0.5U W=1U AS=0.26P AD=0.26P PS=1.52U PD=1.52U
* device instance $5 r0 *1 11.71,3.64 pmos_5p0
M$5 10 7 9 17 pmos_5p0 L=0.5U W=1U AS=0.26P AD=0.26P PS=1.52U PD=1.52U
* device instance $6 r0 *1 12.73,3.64 pmos_5p0
M$6 10 3 17 17 pmos_5p0 L=0.5U W=1U AS=0.5471P AD=0.26P PS=2.57U PD=1.52U
* device instance $7 r0 *1 13.97,3.78 pmos_5p0
M$7 3 2 17 17 pmos_5p0 L=0.5U W=1.83U AS=0.5471P AD=0.4758P PS=2.57U PD=2.35U
* device instance $8 r0 *1 14.99,3.78 pmos_5p0
M$8 17 9 3 17 pmos_5p0 L=0.5U W=1.83U AS=0.4758P AD=0.8052P PS=2.35U PD=4.54U
* device instance $9 r0 *1 3.85,3.465 pmos_5p0
M$9 5 16 17 17 pmos_5p0 L=0.5U W=1U AS=0.44P AD=0.26P PS=2.88U PD=1.52U
* device instance $10 r0 *1 4.87,3.465 pmos_5p0
M$10 6 7 5 17 pmos_5p0 L=0.5U W=1U AS=0.26P AD=0.26P PS=1.52U PD=1.52U
* device instance $11 r0 *1 5.89,3.465 pmos_5p0
M$11 18 4 6 17 pmos_5p0 L=0.5U W=1U AS=0.26P AD=0.26P PS=1.52U PD=1.52U
* device instance $12 r0 *1 6.91,3.465 pmos_5p0
M$12 17 8 18 17 pmos_5p0 L=0.5U W=1U AS=0.26P AD=0.26P PS=1.52U PD=1.52U
* device instance $13 r0 *1 7.93,3.465 pmos_5p0
M$13 18 2 17 17 pmos_5p0 L=0.5U W=1U AS=0.26P AD=0.44P PS=1.52U PD=2.88U
* device instance $14 r0 *1 0.97,3.555 pmos_5p0
M$14 17 15 4 17 pmos_5p0 L=0.5U W=1.38U AS=0.6072P AD=0.3588P PS=3.64U PD=1.9U
* device instance $15 r0 *1 1.99,3.555 pmos_5p0
M$15 7 4 17 17 pmos_5p0 L=0.5U W=1.38U AS=0.3588P AD=0.6072P PS=1.9U PD=3.64U
* device instance $16 r0 *1 0.92,1.245 nmos_5p0
M$16 1 15 4 1 nmos_5p0 L=0.6U W=0.79U AS=0.3476P AD=0.2054P PS=2.46U PD=1.31U
* device instance $17 r0 *1 2.04,1.245 nmos_5p0
M$17 7 4 1 1 nmos_5p0 L=0.6U W=0.79U AS=0.2054P AD=0.3476P PS=1.31U PD=2.46U
* device instance $18 r0 *1 17,1.04 nmos_5p0
M$18 11 3 1 1 nmos_5p0 L=0.6U W=2.5U AS=0.875P AD=0.875P PS=5.15U PD=5.15U
* device instance $20 r0 *1 3.88,1.195 nmos_5p0