* CDL Netlist generated by OpenROAD

*.BUSDELIMITER [

.SUBCKT cordic clk done rst_n start x_in[0] x_in[10] x_in[11]
+ x_in[12] x_in[13] x_in[14] x_in[15] x_in[1] x_in[2] x_in[3]
+ x_in[4] x_in[5] x_in[6] x_in[7] x_in[8] x_in[9] x_out[0] x_out[10]
+ x_out[11] x_out[12] x_out[13] x_out[14] x_out[15] x_out[1]
+ x_out[2] x_out[3] x_out[4] x_out[5] x_out[6] x_out[7] x_out[8]
+ x_out[9] y_in[0] y_in[10] y_in[11] y_in[12] y_in[13] y_in[14]
+ y_in[15] y_in[1] y_in[2] y_in[3] y_in[4] y_in[5] y_in[6] y_in[7]
+ y_in[8] y_in[9] y_out[0] y_out[10] y_out[11] y_out[12] y_out[13]
+ y_out[14] y_out[15] y_out[1] y_out[2] y_out[3] y_out[4] y_out[5]
+ y_out[6] y_out[7] y_out[8] y_out[9] z_in[0] z_in[10] z_in[11]
+ z_in[12] z_in[13] z_in[14] z_in[15] z_in[1] z_in[2] z_in[3]
+ z_in[4] z_in[5] z_in[6] z_in[7] z_in[8] z_in[9] z_out[0] z_out[10]
+ z_out[11] z_out[12] z_out[13] z_out[14] z_out[15] z_out[1]
+ z_out[2] z_out[3] z_out[4] z_out[5] z_out[6] z_out[7] z_out[8]
+ z_out[9]
X_0885_ iteration\[1\] _0236_ VDD VSS gf180mcu_fd_sc_mcu9t5v0__clkbuf_8
X_0886_ _0236_ _0237_ VDD VSS gf180mcu_fd_sc_mcu9t5v0__clkinv_2
X_0887_ _0237_ _0731_ VDD VSS gf180mcu_fd_sc_mcu9t5v0__buf_4
X_0888_ iteration\[2\] _0238_ VDD VSS gf180mcu_fd_sc_mcu9t5v0__clkbuf_8
X_0889_ _0731_ _0742_ _0238_ _0239_ VDD VSS gf180mcu_fd_sc_mcu9t5v0__mux2_2
X_0890_ iteration\[3\] _0240_ VDD VSS gf180mcu_fd_sc_mcu9t5v0__clkinv_2
X_0891_ _0240_ _0241_ VDD VSS gf180mcu_fd_sc_mcu9t5v0__buf_4
X_0892_ _0241_ _0242_ VDD VSS gf180mcu_fd_sc_mcu9t5v0__clkbuf_8
X_0893_ _0242_ _0243_ VDD VSS gf180mcu_fd_sc_mcu9t5v0__clkbuf_8
X_0894_ _0733_ _0239_ _0243_ _0716_ VDD VSS gf180mcu_fd_sc_mcu9t5v0__mux2_2
X_0895_ iteration\[0\] _0244_ VDD VSS gf180mcu_fd_sc_mcu9t5v0__clkbuf_8
X_0896_ _0244_ _0245_ VDD VSS gf180mcu_fd_sc_mcu9t5v0__clkinv_3
X_0897_ _0245_ _0730_ VDD VSS gf180mcu_fd_sc_mcu9t5v0__clkbuf_8
X_0898_ _0738_ _0246_ VDD VSS gf180mcu_fd_sc_mcu9t5v0__clkinv_2
X_0899_ iteration\[2\] _0247_ VDD VSS gf180mcu_fd_sc_mcu9t5v0__inv_4
X_0900_ _0244_ _0248_ VDD VSS gf180mcu_fd_sc_mcu9t5v0__buf_4
X_0901_ _0248_ _0249_ VDD VSS gf180mcu_fd_sc_mcu9t5v0__buf_4
X_0902_ _0236_ _0250_ VDD VSS gf180mcu_fd_sc_mcu9t5v0__clkbuf_8
X_0903_ _0250_ _0251_ VDD VSS gf180mcu_fd_sc_mcu9t5v0__buf_4
X_0904_ _0247_ _0249_ _0251_ _0252_ VDD VSS gf180mcu_fd_sc_mcu9t5v0__mux2_2
X_0905_ _0246_ _0252_ _0243_ _0715_ VDD VSS gf180mcu_fd_sc_mcu9t5v0__mux2_2
X_0906_ iteration\[3\] _0253_ VDD VSS gf180mcu_fd_sc_mcu9t5v0__buf_4
X_0907_ _0738_ _0734_ iteration\[2\] _0254_ VDD VSS gf180mcu_fd_sc_mcu9t5v0__mux2_2
X_0908_ _0253_ _0254_ _0255_ VDD VSS gf180mcu_fd_sc_mcu9t5v0__or2_2
X_0909_ _0242_ _0249_ _0738_ _0734_ _0256_ VDD VSS gf180mcu_fd_sc_mcu9t5v0__or4_2
X_0910_ _0740_ _0255_ _0256_ _0257_ VDD VSS gf180mcu_fd_sc_mcu9t5v0__oai21_2
X_0911_ _0733_ _0738_ _0238_ _0258_ VDD VSS gf180mcu_fd_sc_mcu9t5v0__mux2_2
X_0912_ _0734_ _0258_ _0243_ _0259_ VDD VSS gf180mcu_fd_sc_mcu9t5v0__mux2_2
X_0913_ _0251_ _0746_ iteration\[2\] _0260_ VDD VSS gf180mcu_fd_sc_mcu9t5v0__mux2_2
X_0914_ _0742_ _0260_ _0242_ _0261_ VDD VSS gf180mcu_fd_sc_mcu9t5v0__mux2_2
X_0915_ _0259_ _0261_ _0262_ VDD VSS gf180mcu_fd_sc_mcu9t5v0__nor2_2
X_0916_ _0717_ _0257_ _0262_ _0263_ VDD VSS gf180mcu_fd_sc_mcu9t5v0__and3_2
X_0917_ z\[15\] _0264_ VDD VSS gf180mcu_fd_sc_mcu9t5v0__buf_4
X_0918_ _0264_ _0265_ VDD VSS gf180mcu_fd_sc_mcu9t5v0__clkbuf_8
X_0919_ _0253_ _0263_ _0265_ _0775_ VDD VSS gf180mcu_fd_sc_mcu9t5v0__aoi21_2
X_0920_ x\[12\] x\[13\] x\[14\] x\[15\] _0244_ _0250_ _0266_
+ VDD VSS gf180mcu_fd_sc_mcu9t5v0__mux4_4
X_0921_ _0250_ _0267_ VDD VSS gf180mcu_fd_sc_mcu9t5v0__clkbuf_8
X_0922_ x\[4\] x\[5\] x\[6\] x\[7\] _0244_ _0267_ _0268_ VDD
+ VSS gf180mcu_fd_sc_mcu9t5v0__mux4_2
X_0923_ _0266_ _0268_ _0241_ _0269_ VDD VSS gf180mcu_fd_sc_mcu9t5v0__mux2_2
X_0924_ x\[8\] x\[9\] x\[10\] x\[11\] _0244_ _0250_ _0270_
+ VDD VSS gf180mcu_fd_sc_mcu9t5v0__mux4_2
X_0925_ _0244_ _0271_ VDD VSS gf180mcu_fd_sc_mcu9t5v0__clkbuf_8
X_0926_ x\[0\] x\[1\] x\[2\] x\[3\] _0271_ _0267_ _0272_ VDD
+ VSS gf180mcu_fd_sc_mcu9t5v0__mux4_2
X_0927_ _0270_ _0272_ _0241_ _0273_ VDD VSS gf180mcu_fd_sc_mcu9t5v0__mux2_2
X_0928_ _0269_ _0273_ _0247_ _0779_ VDD VSS gf180mcu_fd_sc_mcu9t5v0__mux2_2
X_0929_ _0238_ _0274_ VDD VSS gf180mcu_fd_sc_mcu9t5v0__clkbuf_8
X_0930_ x\[14\] x\[15\] _0271_ _0275_ VDD VSS gf180mcu_fd_sc_mcu9t5v0__mux2_2
X_0931_ _0731_ _0275_ _0276_ VDD VSS gf180mcu_fd_sc_mcu9t5v0__and2_2
X_0932_ x\[7\] x\[9\] _0267_ _0277_ VDD VSS gf180mcu_fd_sc_mcu9t5v0__mux2_2
X_0933_ x\[6\] x\[8\] _0267_ _0278_ VDD VSS gf180mcu_fd_sc_mcu9t5v0__mux2_2
X_0934_ _0277_ _0278_ _0730_ _0279_ VDD VSS gf180mcu_fd_sc_mcu9t5v0__mux2_2
X_0935_ _0276_ _0279_ _0242_ _0280_ VDD VSS gf180mcu_fd_sc_mcu9t5v0__mux2_2
X_0936_ _0247_ _0281_ VDD VSS gf180mcu_fd_sc_mcu9t5v0__clkbuf_8
X_0937_ _0281_ _0282_ VDD VSS gf180mcu_fd_sc_mcu9t5v0__clkbuf_8
X_0938_ x\[10\] x\[11\] x\[12\] x\[13\] _0271_ _0267_ _0283_
+ VDD VSS gf180mcu_fd_sc_mcu9t5v0__mux4_4
X_0939_ x\[2\] x\[3\] x\[4\] x\[5\] _0271_ _0267_ _0284_ VDD
+ VSS gf180mcu_fd_sc_mcu9t5v0__mux4_2
X_0940_ _0283_ _0284_ _0243_ _0285_ VDD VSS gf180mcu_fd_sc_mcu9t5v0__mux2_2
X_0941_ _0282_ _0285_ _0286_ VDD VSS gf180mcu_fd_sc_mcu9t5v0__and2_2
X_0942_ _0274_ _0280_ _0286_ _0287_ VDD VSS gf180mcu_fd_sc_mcu9t5v0__aoi21_2
X_0943_ _0264_ _0784_ _0288_ VDD VSS gf180mcu_fd_sc_mcu9t5v0__or2_2
X_0944_ _0287_ _0288_ _0788_ VDD VSS gf180mcu_fd_sc_mcu9t5v0__xnor2_2
X_0945_ _0247_ _0253_ _0289_ VDD VSS gf180mcu_fd_sc_mcu9t5v0__and2_2
X_0946_ x\[11\] x\[12\] x\[13\] x\[14\] _0248_ _0251_ _0290_
+ VDD VSS gf180mcu_fd_sc_mcu9t5v0__mux4_4
X_0947_ _0253_ _0248_ _0277_ _0291_ VDD VSS gf180mcu_fd_sc_mcu9t5v0__or3_2
X_0948_ _0238_ _0291_ _0292_ VDD VSS gf180mcu_fd_sc_mcu9t5v0__and2_2
X_0949_ _0731_ x\[15\] _0242_ _0293_ VDD VSS gf180mcu_fd_sc_mcu9t5v0__aoi21_2
X_0950_ x\[8\] x\[10\] _0251_ _0294_ VDD VSS gf180mcu_fd_sc_mcu9t5v0__mux2_2
X_0951_ _0242_ _0294_ _0295_ VDD VSS gf180mcu_fd_sc_mcu9t5v0__nand2_2
X_0952_ _0249_ _0293_ _0295_ _0296_ VDD VSS gf180mcu_fd_sc_mcu9t5v0__oai21_4
X_0953_ iteration\[2\] iteration\[3\] _0297_ VDD VSS gf180mcu_fd_sc_mcu9t5v0__nor2_2
X_0954_ _0297_ _0298_ VDD VSS gf180mcu_fd_sc_mcu9t5v0__buf_4
X_0955_ x\[3\] x\[4\] x\[5\] x\[6\] _0248_ _0251_ _0299_ VDD
+ VSS gf180mcu_fd_sc_mcu9t5v0__mux4_2
X_0956_ _0298_ _0299_ _0300_ VDD VSS gf180mcu_fd_sc_mcu9t5v0__and2_2
X_0957_ _0289_ _0290_ _0292_ _0296_ _0300_ _0301_ VDD VSS
+ gf180mcu_fd_sc_mcu9t5v0__aoi221_4
X_0958_ x\[13\] x\[15\] _0267_ _0302_ VDD VSS gf180mcu_fd_sc_mcu9t5v0__mux2_2
X_0959_ x\[5\] x\[7\] _0267_ _0303_ VDD VSS gf180mcu_fd_sc_mcu9t5v0__mux2_2
X_0960_ _0731_ x\[14\] _0304_ VDD VSS gf180mcu_fd_sc_mcu9t5v0__and2_2
X_0961_ _0302_ _0303_ _0304_ _0278_ _0242_ _0249_ _0305_ VDD
+ VSS gf180mcu_fd_sc_mcu9t5v0__mux4_4
X_0962_ x\[1\] x\[2\] x\[3\] x\[4\] _0271_ _0251_ _0306_ VDD
+ VSS gf180mcu_fd_sc_mcu9t5v0__mux4_2
X_0963_ _0298_ _0306_ _0307_ VDD VSS gf180mcu_fd_sc_mcu9t5v0__and2_2
X_0964_ x\[9\] x\[10\] x\[11\] x\[12\] _0271_ _0267_ _0308_
+ VDD VSS gf180mcu_fd_sc_mcu9t5v0__mux4_2
X_0965_ _0247_ _0253_ _0308_ _0309_ VDD VSS gf180mcu_fd_sc_mcu9t5v0__and3_2
X_0966_ _0307_ _0309_ _0310_ VDD VSS gf180mcu_fd_sc_mcu9t5v0__or2_2
X_0967_ _0238_ _0305_ _0310_ _0779_ _0311_ VDD VSS gf180mcu_fd_sc_mcu9t5v0__aoi211_4
X_0968_ z\[15\] _0312_ VDD VSS gf180mcu_fd_sc_mcu9t5v0__clkbuf_8
X_0969_ _0287_ _0311_ _0312_ _0313_ VDD VSS gf180mcu_fd_sc_mcu9t5v0__aoi21_2
X_0970_ _0301_ _0313_ _0791_ VDD VSS gf180mcu_fd_sc_mcu9t5v0__xor2_2
X_0971_ _0780_ _0704_ VDD VSS gf180mcu_fd_sc_mcu9t5v0__inv_2
X_0972_ _0784_ _0287_ _0301_ _0314_ VDD VSS gf180mcu_fd_sc_mcu9t5v0__and3_2
X_0973_ _0312_ _0314_ _0315_ VDD VSS gf180mcu_fd_sc_mcu9t5v0__nor2_2
X_0974_ _0238_ _0242_ _0316_ VDD VSS gf180mcu_fd_sc_mcu9t5v0__and2_4
X_0975_ _0316_ _0270_ _0317_ VDD VSS gf180mcu_fd_sc_mcu9t5v0__and2_2
X_0976_ _0282_ _0269_ _0317_ _0318_ VDD VSS gf180mcu_fd_sc_mcu9t5v0__aoi21_2
X_0977_ _0315_ _0318_ _0794_ VDD VSS gf180mcu_fd_sc_mcu9t5v0__xor2_2
X_0978_ _0282_ _0305_ _0308_ _0316_ _0319_ VDD VSS gf180mcu_fd_sc_mcu9t5v0__aoi22_2
X_0979_ _0242_ _0266_ _0283_ _0320_ VDD VSS gf180mcu_fd_sc_mcu9t5v0__or3_2
X_0980_ _0253_ _0268_ _0284_ _0321_ VDD VSS gf180mcu_fd_sc_mcu9t5v0__or3_2
X_0981_ _0281_ _0320_ _0321_ _0322_ VDD VSS gf180mcu_fd_sc_mcu9t5v0__and3_2
X_0982_ _0238_ _0280_ _0317_ _0322_ _0323_ VDD VSS gf180mcu_fd_sc_mcu9t5v0__aoi211_2
X_0983_ _0301_ _0311_ _0323_ _0324_ VDD VSS gf180mcu_fd_sc_mcu9t5v0__and3_2
X_0984_ _0264_ _0324_ _0325_ VDD VSS gf180mcu_fd_sc_mcu9t5v0__or2_2
X_0985_ _0319_ _0325_ _0797_ VDD VSS gf180mcu_fd_sc_mcu9t5v0__xnor2_2
X_0986_ _0316_ _0283_ _0326_ VDD VSS gf180mcu_fd_sc_mcu9t5v0__and2_2
X_0987_ _0282_ _0280_ _0326_ _0327_ VDD VSS gf180mcu_fd_sc_mcu9t5v0__aoi21_2
X_0988_ _0784_ _0301_ _0319_ _0323_ _0328_ VDD VSS gf180mcu_fd_sc_mcu9t5v0__and4_2
X_0989_ _0264_ _0328_ _0329_ VDD VSS gf180mcu_fd_sc_mcu9t5v0__or2_2
X_0990_ _0327_ _0329_ _0800_ VDD VSS gf180mcu_fd_sc_mcu9t5v0__xnor2_2
X_0991_ _0281_ _0291_ _0330_ VDD VSS gf180mcu_fd_sc_mcu9t5v0__and2_2
X_0992_ _0316_ _0290_ _0330_ _0296_ _0331_ VDD VSS gf180mcu_fd_sc_mcu9t5v0__aoi22_2
X_0993_ _0280_ _0317_ _0322_ _0326_ _0332_ VDD VSS gf180mcu_fd_sc_mcu9t5v0__nor4_2
X_0994_ _0301_ _0311_ _0319_ _0332_ _0333_ VDD VSS gf180mcu_fd_sc_mcu9t5v0__and4_2
X_0995_ _0264_ _0333_ _0334_ VDD VSS gf180mcu_fd_sc_mcu9t5v0__or2_2
X_0996_ _0331_ _0334_ _0803_ VDD VSS gf180mcu_fd_sc_mcu9t5v0__xnor2_2
X_0997_ _0266_ _0270_ _0247_ _0335_ VDD VSS gf180mcu_fd_sc_mcu9t5v0__mux2_2
X_0998_ _0243_ _0335_ _0336_ VDD VSS gf180mcu_fd_sc_mcu9t5v0__and2_2
X_0999_ _0327_ _0328_ _0337_ VDD VSS gf180mcu_fd_sc_mcu9t5v0__and2_2
X_1000_ z\[15\] _0338_ VDD VSS gf180mcu_fd_sc_mcu9t5v0__clkbuf_8
X_1001_ _0331_ _0337_ _0338_ _0339_ VDD VSS gf180mcu_fd_sc_mcu9t5v0__aoi21_2
X_1002_ _0336_ _0339_ _0806_ VDD VSS gf180mcu_fd_sc_mcu9t5v0__xnor2_2
X_1003_ _0731_ x\[14\] _0340_ VDD VSS gf180mcu_fd_sc_mcu9t5v0__nand2_2
X_1004_ _0249_ _0302_ _0341_ VDD VSS gf180mcu_fd_sc_mcu9t5v0__nor2_2
X_1005_ _0249_ _0340_ _0341_ _0281_ _0342_ VDD VSS gf180mcu_fd_sc_mcu9t5v0__aoi211_2
X_1006_ _0281_ _0308_ _0343_ VDD VSS gf180mcu_fd_sc_mcu9t5v0__and2_2
X_1007_ _0342_ _0343_ _0243_ _0344_ VDD VSS gf180mcu_fd_sc_mcu9t5v0__oai21_2
X_1008_ _0316_ _0290_ _0330_ _0296_ _0336_ _0345_ VDD VSS
+ gf180mcu_fd_sc_mcu9t5v0__aoi221_4
X_1009_ _0333_ _0345_ _0312_ _0346_ VDD VSS gf180mcu_fd_sc_mcu9t5v0__aoi21_2
X_1010_ _0344_ _0346_ _0809_ VDD VSS gf180mcu_fd_sc_mcu9t5v0__xor2_2
X_1011_ _0276_ _0283_ _0281_ _0347_ VDD VSS gf180mcu_fd_sc_mcu9t5v0__mux2_2
X_1012_ _0243_ _0347_ _0348_ VDD VSS gf180mcu_fd_sc_mcu9t5v0__nand2_2
X_1013_ _0337_ _0344_ _0345_ _0349_ VDD VSS gf180mcu_fd_sc_mcu9t5v0__and3_2
X_1014_ _0264_ _0349_ _0350_ VDD VSS gf180mcu_fd_sc_mcu9t5v0__or2_2
X_1015_ _0348_ _0350_ _0812_ VDD VSS gf180mcu_fd_sc_mcu9t5v0__xnor2_2
X_1016_ _0243_ _0351_ VDD VSS gf180mcu_fd_sc_mcu9t5v0__buf_4
X_1017_ _0730_ _0731_ _0352_ VDD VSS gf180mcu_fd_sc_mcu9t5v0__and2_2
X_1018_ x\[15\] _0352_ _0353_ VDD VSS gf180mcu_fd_sc_mcu9t5v0__and2_2
X_1019_ _0290_ _0353_ _0238_ _0354_ VDD VSS gf180mcu_fd_sc_mcu9t5v0__mux2_2
X_1020_ _0351_ _0354_ _0355_ VDD VSS gf180mcu_fd_sc_mcu9t5v0__nand2_2
X_1021_ _0344_ _0345_ _0348_ _0356_ VDD VSS gf180mcu_fd_sc_mcu9t5v0__and3_2
X_1022_ _0333_ _0356_ _0357_ VDD VSS gf180mcu_fd_sc_mcu9t5v0__and2_2
X_1023_ _0312_ _0357_ _0358_ VDD VSS gf180mcu_fd_sc_mcu9t5v0__nor2_2
X_1024_ _0355_ _0358_ _0815_ VDD VSS gf180mcu_fd_sc_mcu9t5v0__xor2_2
X_1025_ _0355_ _0356_ _0359_ VDD VSS gf180mcu_fd_sc_mcu9t5v0__and2_2
X_1026_ _0337_ _0359_ z\[15\] _0360_ VDD VSS gf180mcu_fd_sc_mcu9t5v0__aoi21_2
X_1027_ _0298_ _0361_ VDD VSS gf180mcu_fd_sc_mcu9t5v0__buf_4
X_1028_ _0266_ _0361_ _0362_ VDD VSS gf180mcu_fd_sc_mcu9t5v0__and2_2
X_1029_ _0360_ _0362_ _0818_ VDD VSS gf180mcu_fd_sc_mcu9t5v0__xnor2_2
X_1030_ _0266_ _0363_ VDD VSS gf180mcu_fd_sc_mcu9t5v0__clkinv_2
X_1031_ _0249_ _0340_ _0341_ _0364_ VDD VSS gf180mcu_fd_sc_mcu9t5v0__aoi21_4
X_1032_ _0363_ _0355_ _0365_ VDD VSS gf180mcu_fd_sc_mcu9t5v0__and2_2
X_1033_ _0265_ _0365_ _0364_ _0366_ VDD VSS gf180mcu_fd_sc_mcu9t5v0__oai21_2
X_1034_ _0265_ _0363_ _0364_ _0358_ _0366_ _0367_ VDD VSS
+ gf180mcu_fd_sc_mcu9t5v0__oai32_2
X_1035_ _0361_ _0364_ _0355_ _0357_ _0265_ _0368_ VDD VSS
+ gf180mcu_fd_sc_mcu9t5v0__aoi221_2
X_1036_ _0361_ _0367_ _0368_ _0821_ VDD VSS gf180mcu_fd_sc_mcu9t5v0__aoi21_2
X_1037_ _0266_ _0364_ _0369_ VDD VSS gf180mcu_fd_sc_mcu9t5v0__nor2_2
X_1038_ _0338_ _0369_ _0370_ VDD VSS gf180mcu_fd_sc_mcu9t5v0__nor2_2
X_1039_ _0276_ _0370_ _0371_ VDD VSS gf180mcu_fd_sc_mcu9t5v0__or2_2
X_1040_ _0361_ _0371_ _0360_ _0372_ VDD VSS gf180mcu_fd_sc_mcu9t5v0__aoi21_2
X_1041_ z\[15\] _0373_ VDD VSS gf180mcu_fd_sc_mcu9t5v0__inv_4
X_1042_ _0337_ _0359_ _0369_ _0374_ VDD VSS gf180mcu_fd_sc_mcu9t5v0__nand3_2
X_1043_ _0373_ _0361_ _0276_ _0374_ _0375_ VDD VSS gf180mcu_fd_sc_mcu9t5v0__and4_2
X_1044_ _0372_ _0375_ _0824_ VDD VSS gf180mcu_fd_sc_mcu9t5v0__or2_2
X_1045_ y\[13\] y\[15\] iteration\[1\] _0376_ VDD VSS gf180mcu_fd_sc_mcu9t5v0__mux2_2
X_1046_ y\[12\] y\[14\] _0236_ _0377_ VDD VSS gf180mcu_fd_sc_mcu9t5v0__mux2_2
X_1047_ _0376_ _0377_ _0245_ _0378_ VDD VSS gf180mcu_fd_sc_mcu9t5v0__mux2_2
X_1048_ y\[5\] y\[7\] _0236_ _0379_ VDD VSS gf180mcu_fd_sc_mcu9t5v0__mux2_2
X_1049_ y\[4\] y\[6\] _0236_ _0380_ VDD VSS gf180mcu_fd_sc_mcu9t5v0__mux2_2
X_1050_ _0379_ _0380_ _0245_ _0381_ VDD VSS gf180mcu_fd_sc_mcu9t5v0__mux2_2
X_1051_ _0378_ _0381_ _0241_ _0382_ VDD VSS gf180mcu_fd_sc_mcu9t5v0__mux2_2
X_1052_ y\[9\] y\[11\] _0250_ _0383_ VDD VSS gf180mcu_fd_sc_mcu9t5v0__mux2_2
X_1053_ y\[8\] y\[10\] _0250_ _0384_ VDD VSS gf180mcu_fd_sc_mcu9t5v0__mux2_2
X_1054_ y\[1\] y\[3\] _0250_ _0385_ VDD VSS gf180mcu_fd_sc_mcu9t5v0__mux2_2
X_1055_ y\[0\] y\[2\] _0250_ _0386_ VDD VSS gf180mcu_fd_sc_mcu9t5v0__mux2_2
X_1056_ _0383_ _0384_ _0385_ _0386_ _0245_ _0241_ _0387_ VDD
+ VSS gf180mcu_fd_sc_mcu9t5v0__mux4_4
X_1057_ _0382_ _0387_ _0282_ _0827_ VDD VSS gf180mcu_fd_sc_mcu9t5v0__mux2_2
X_1058_ _0237_ y\[14\] _0388_ VDD VSS gf180mcu_fd_sc_mcu9t5v0__and2_2
X_1059_ y\[6\] y\[8\] _0236_ _0389_ VDD VSS gf180mcu_fd_sc_mcu9t5v0__mux2_2
X_1060_ _0376_ _0379_ _0388_ _0389_ _0241_ _0271_ _0390_ VDD
+ VSS gf180mcu_fd_sc_mcu9t5v0__mux4_4
X_1061_ y\[10\] y\[12\] _0236_ _0391_ VDD VSS gf180mcu_fd_sc_mcu9t5v0__mux2_2
X_1062_ y\[2\] y\[4\] _0236_ _0392_ VDD VSS gf180mcu_fd_sc_mcu9t5v0__mux2_2
X_1063_ _0383_ _0385_ _0391_ _0392_ _0241_ _0271_ _0393_ VDD
+ VSS gf180mcu_fd_sc_mcu9t5v0__mux4_4
X_1064_ _0274_ _0393_ _0394_ VDD VSS gf180mcu_fd_sc_mcu9t5v0__or2_2
X_1065_ _0282_ _0390_ _0394_ _0831_ VDD VSS gf180mcu_fd_sc_mcu9t5v0__oai21_2
X_1066_ _0831_ _0395_ VDD VSS gf180mcu_fd_sc_mcu9t5v0__clkinv_2
X_1067_ _0833_ _0395_ _0265_ _0834_ VDD VSS gf180mcu_fd_sc_mcu9t5v0__mux2_2
X_1068_ _0834_ _0710_ VDD VSS gf180mcu_fd_sc_mcu9t5v0__clkinv_2
X_1069_ x\[1\] _0708_ VDD VSS gf180mcu_fd_sc_mcu9t5v0__clkinv_2
X_1070_ _0828_ _0709_ VDD VSS gf180mcu_fd_sc_mcu9t5v0__clkinv_2
X_1071_ y\[0\] _0778_ VDD VSS gf180mcu_fd_sc_mcu9t5v0__clkinv_2
X_1072_ _0274_ _0305_ _0310_ _0782_ VDD VSS gf180mcu_fd_sc_mcu9t5v0__aoi21_2
X_1073_ _0827_ _0830_ VDD VSS gf180mcu_fd_sc_mcu9t5v0__clkinv_2
X_1074_ _0376_ _0383_ _0388_ _0391_ _0247_ _0248_ _0396_ VDD
+ VSS gf180mcu_fd_sc_mcu9t5v0__mux4_2
X_1075_ _0243_ _0396_ _0397_ VDD VSS gf180mcu_fd_sc_mcu9t5v0__nand2_2
X_1076_ y\[11\] y\[13\] _0236_ _0398_ VDD VSS gf180mcu_fd_sc_mcu9t5v0__mux2_2
X_1077_ y\[3\] y\[5\] _0236_ _0399_ VDD VSS gf180mcu_fd_sc_mcu9t5v0__mux2_2
X_1078_ _0391_ _0392_ _0398_ _0399_ _0240_ _0244_ _0400_ VDD
+ VSS gf180mcu_fd_sc_mcu9t5v0__mux4_2
X_1079_ iteration\[2\] _0400_ _0401_ VDD VSS gf180mcu_fd_sc_mcu9t5v0__or2_2
X_1080_ y\[14\] y\[15\] _0244_ _0402_ VDD VSS gf180mcu_fd_sc_mcu9t5v0__mux2_2
X_1081_ iteration\[3\] _0731_ _0402_ _0403_ VDD VSS gf180mcu_fd_sc_mcu9t5v0__and3_2
X_1082_ y\[6\] y\[7\] y\[8\] y\[9\] _0244_ _0250_ _0404_ VDD
+ VSS gf180mcu_fd_sc_mcu9t5v0__mux4_2
X_1083_ _0241_ _0404_ _0405_ VDD VSS gf180mcu_fd_sc_mcu9t5v0__and2_2
X_1084_ _0247_ _0403_ _0405_ _0406_ VDD VSS gf180mcu_fd_sc_mcu9t5v0__or3_2
X_1085_ _0387_ _0393_ _0401_ _0406_ _0390_ _0382_ _0407_ VDD
+ VSS gf180mcu_fd_sc_mcu9t5v0__oai33_4
X_1086_ _0383_ _0384_ _0730_ _0408_ VDD VSS gf180mcu_fd_sc_mcu9t5v0__mux2_2
X_1087_ _0316_ _0378_ _0408_ _0298_ _0409_ VDD VSS gf180mcu_fd_sc_mcu9t5v0__aoi22_2
X_1088_ _0731_ y\[15\] _0241_ _0410_ VDD VSS gf180mcu_fd_sc_mcu9t5v0__aoi21_2
X_1089_ _0241_ _0384_ _0411_ VDD VSS gf180mcu_fd_sc_mcu9t5v0__nand2_2
X_1090_ _0248_ _0410_ _0411_ _0412_ VDD VSS gf180mcu_fd_sc_mcu9t5v0__oai21_2
X_1091_ y\[7\] y\[9\] _0250_ _0413_ VDD VSS gf180mcu_fd_sc_mcu9t5v0__mux2_2
X_1092_ _0253_ _0271_ _0413_ _0414_ VDD VSS gf180mcu_fd_sc_mcu9t5v0__or3_2
X_1093_ _0281_ _0412_ _0414_ _0415_ VDD VSS gf180mcu_fd_sc_mcu9t5v0__and3_2
X_1094_ _0377_ _0398_ _0730_ _0416_ VDD VSS gf180mcu_fd_sc_mcu9t5v0__mux2_2
X_1095_ _0316_ _0416_ _0417_ VDD VSS gf180mcu_fd_sc_mcu9t5v0__and2_2
X_1096_ _0415_ _0417_ _0418_ VDD VSS gf180mcu_fd_sc_mcu9t5v0__nor2_2
X_1097_ _0403_ _0405_ _0419_ VDD VSS gf180mcu_fd_sc_mcu9t5v0__or2_2
X_1098_ _0391_ _0398_ _0248_ _0420_ VDD VSS gf180mcu_fd_sc_mcu9t5v0__mux2_2
X_1099_ _0281_ _0419_ _0420_ _0316_ _0421_ VDD VSS gf180mcu_fd_sc_mcu9t5v0__aoi22_2
X_1100_ _0281_ _0382_ _0408_ _0316_ _0422_ VDD VSS gf180mcu_fd_sc_mcu9t5v0__aoi22_4
X_1101_ _0238_ _0414_ _0423_ VDD VSS gf180mcu_fd_sc_mcu9t5v0__and2_2
X_1102_ _0730_ _0380_ _0424_ VDD VSS gf180mcu_fd_sc_mcu9t5v0__or2_2
X_1103_ _0271_ _0399_ _0425_ VDD VSS gf180mcu_fd_sc_mcu9t5v0__or2_2
X_1104_ _0297_ _0424_ _0425_ _0426_ VDD VSS gf180mcu_fd_sc_mcu9t5v0__and3_2
X_1105_ _0289_ _0416_ _0423_ _0412_ _0426_ _0427_ VDD VSS
+ gf180mcu_fd_sc_mcu9t5v0__aoi221_4
X_1106_ _0383_ _0391_ _0248_ _0428_ VDD VSS gf180mcu_fd_sc_mcu9t5v0__mux2_2
X_1107_ _0281_ _0390_ _0428_ _0316_ _0429_ VDD VSS gf180mcu_fd_sc_mcu9t5v0__aoi22_4
X_1108_ _0421_ _0422_ _0427_ _0429_ _0430_ VDD VSS gf180mcu_fd_sc_mcu9t5v0__and4_2
X_1109_ _0409_ _0418_ _0430_ _0431_ VDD VSS gf180mcu_fd_sc_mcu9t5v0__and3_2
X_1110_ _0407_ _0431_ _0338_ _0432_ VDD VSS gf180mcu_fd_sc_mcu9t5v0__aoi21_2
X_1111_ _0397_ _0432_ _0858_ VDD VSS gf180mcu_fd_sc_mcu9t5v0__xnor2_2
X_1112_ _0298_ _0378_ _0433_ VDD VSS gf180mcu_fd_sc_mcu9t5v0__nand2_2
X_1113_ _0401_ _0406_ _0434_ VDD VSS gf180mcu_fd_sc_mcu9t5v0__nand2_2
X_1114_ _0832_ _0434_ _0435_ VDD VSS gf180mcu_fd_sc_mcu9t5v0__and2_2
X_1115_ _0397_ _0431_ _0435_ _0436_ VDD VSS gf180mcu_fd_sc_mcu9t5v0__and3_2
X_1116_ _0377_ _0391_ _0730_ _0437_ VDD VSS gf180mcu_fd_sc_mcu9t5v0__mux2_2
X_1117_ iteration\[2\] _0398_ _0438_ VDD VSS gf180mcu_fd_sc_mcu9t5v0__or2_2
X_1118_ y\[15\] _0439_ VDD VSS gf180mcu_fd_sc_mcu9t5v0__clkinv_2
X_1119_ _0248_ _0267_ _0439_ iteration\[2\] _0440_ VDD VSS
+ gf180mcu_fd_sc_mcu9t5v0__oai31_2
X_1120_ _0731_ _0402_ _0441_ VDD VSS gf180mcu_fd_sc_mcu9t5v0__and2_2
X_1121_ _0437_ _0438_ _0440_ _0441_ _0242_ _0442_ VDD VSS
+ gf180mcu_fd_sc_mcu9t5v0__oai221_4
X_1122_ _0436_ _0442_ _0338_ _0443_ VDD VSS gf180mcu_fd_sc_mcu9t5v0__aoi21_2
X_1123_ _0433_ _0443_ _0867_ VDD VSS gf180mcu_fd_sc_mcu9t5v0__xnor2_2
X_1124_ _0248_ _0376_ _0444_ VDD VSS gf180mcu_fd_sc_mcu9t5v0__or2_2
X_1125_ _0730_ _0388_ _0444_ _0297_ _0445_ VDD VSS gf180mcu_fd_sc_mcu9t5v0__oai211_4
X_1126_ _0397_ _0407_ _0431_ _0446_ VDD VSS gf180mcu_fd_sc_mcu9t5v0__and3_2
X_1127_ _0433_ _0442_ _0447_ VDD VSS gf180mcu_fd_sc_mcu9t5v0__and2_2
X_1128_ _0446_ _0447_ _0338_ _0448_ VDD VSS gf180mcu_fd_sc_mcu9t5v0__aoi21_2
X_1129_ _0445_ _0448_ _0870_ VDD VSS gf180mcu_fd_sc_mcu9t5v0__xnor2_2
X_1130_ state\[0\] _0876_ VDD VSS gf180mcu_fd_sc_mcu9t5v0__clkinv_2
X_1131_ _0716_ _0713_ VDD VSS gf180mcu_fd_sc_mcu9t5v0__clkinv_2
X_1132_ _0715_ _0449_ VDD VSS gf180mcu_fd_sc_mcu9t5v0__clkinv_2
X_1133_ _0718_ _0449_ _0265_ _0701_ VDD VSS gf180mcu_fd_sc_mcu9t5v0__mux2_2
X_1134_ _0740_ _0249_ _0253_ _0450_ VDD VSS gf180mcu_fd_sc_mcu9t5v0__mux2_2
X_1135_ _0264_ _0717_ _0451_ VDD VSS gf180mcu_fd_sc_mcu9t5v0__or2_2
X_1136_ _0450_ _0451_ _0721_ VDD VSS gf180mcu_fd_sc_mcu9t5v0__xnor2_2
X_1137_ _0738_ _0734_ _0255_ _0452_ VDD VSS gf180mcu_fd_sc_mcu9t5v0__oai21_2
X_1138_ _0713_ _0449_ _0450_ _0373_ _0453_ VDD VSS gf180mcu_fd_sc_mcu9t5v0__oai31_2
X_1139_ _0452_ _0453_ _0724_ VDD VSS gf180mcu_fd_sc_mcu9t5v0__xor2_2
X_1140_ _0261_ _0454_ VDD VSS gf180mcu_fd_sc_mcu9t5v0__clkinv_2
X_1141_ _0717_ _0257_ _0338_ _0455_ VDD VSS gf180mcu_fd_sc_mcu9t5v0__aoi21_2
X_1142_ _0454_ _0455_ _0727_ VDD VSS gf180mcu_fd_sc_mcu9t5v0__xnor2_2
X_1143_ _0716_ _0715_ _0257_ _0454_ _0456_ VDD VSS gf180mcu_fd_sc_mcu9t5v0__and4_2
X_1144_ z\[15\] _0456_ _0457_ VDD VSS gf180mcu_fd_sc_mcu9t5v0__or2_2
X_1145_ _0259_ _0457_ _0748_ VDD VSS gf180mcu_fd_sc_mcu9t5v0__xnor2_2
X_1146_ _0733_ _0249_ _0238_ _0458_ VDD VSS gf180mcu_fd_sc_mcu9t5v0__mux2_2
X_1147_ _0351_ _0458_ _0459_ VDD VSS gf180mcu_fd_sc_mcu9t5v0__nand2_2
X_1148_ _0312_ _0263_ _0460_ VDD VSS gf180mcu_fd_sc_mcu9t5v0__nor2_2
X_1149_ _0459_ _0460_ _0751_ VDD VSS gf180mcu_fd_sc_mcu9t5v0__xnor2_2
X_1150_ _0243_ _0458_ _0259_ _0461_ VDD VSS gf180mcu_fd_sc_mcu9t5v0__aoi21_2
X_1151_ _0456_ _0461_ _0462_ VDD VSS gf180mcu_fd_sc_mcu9t5v0__and2_2
X_1152_ _0338_ _0462_ _0463_ VDD VSS gf180mcu_fd_sc_mcu9t5v0__nor2_2
X_1153_ _0730_ _0733_ _0282_ _0464_ VDD VSS gf180mcu_fd_sc_mcu9t5v0__mux2_2
X_1154_ _0351_ _0464_ _0465_ VDD VSS gf180mcu_fd_sc_mcu9t5v0__nand2_2
X_1155_ _0463_ _0465_ _0754_ VDD VSS gf180mcu_fd_sc_mcu9t5v0__xnor2_2
X_1156_ _0274_ _0733_ _0351_ _0466_ VDD VSS gf180mcu_fd_sc_mcu9t5v0__oai21_2
X_1157_ _0263_ _0466_ _0467_ VDD VSS gf180mcu_fd_sc_mcu9t5v0__nand2_2
X_1158_ _0373_ _0467_ _0468_ VDD VSS gf180mcu_fd_sc_mcu9t5v0__nand2_2
X_1159_ _0251_ _0740_ _0274_ _0469_ VDD VSS gf180mcu_fd_sc_mcu9t5v0__mux2_2
X_1160_ _0351_ _0469_ _0470_ VDD VSS gf180mcu_fd_sc_mcu9t5v0__and2_2
X_1161_ _0468_ _0470_ _0757_ VDD VSS gf180mcu_fd_sc_mcu9t5v0__xnor2_2
X_1162_ _0740_ _0732_ _0274_ _0471_ VDD VSS gf180mcu_fd_sc_mcu9t5v0__mux2_2
X_1163_ _0351_ _0471_ _0472_ VDD VSS gf180mcu_fd_sc_mcu9t5v0__nand2_2
X_1164_ _0463_ _0472_ _0760_ VDD VSS gf180mcu_fd_sc_mcu9t5v0__xnor2_2
X_1165_ _0744_ _0361_ _0473_ VDD VSS gf180mcu_fd_sc_mcu9t5v0__and2_2
X_1166_ _0468_ _0473_ _0763_ VDD VSS gf180mcu_fd_sc_mcu9t5v0__xnor2_2
X_1167_ _0251_ _0744_ _0474_ VDD VSS gf180mcu_fd_sc_mcu9t5v0__or2_2
X_1168_ _0732_ _0474_ _0282_ _0475_ VDD VSS gf180mcu_fd_sc_mcu9t5v0__mux2_2
X_1169_ _0740_ _0475_ _0351_ _0476_ VDD VSS gf180mcu_fd_sc_mcu9t5v0__oai21_2
X_1170_ _0462_ _0476_ _0477_ VDD VSS gf180mcu_fd_sc_mcu9t5v0__and2_2
X_1171_ z\[15\] _0477_ _0478_ VDD VSS gf180mcu_fd_sc_mcu9t5v0__or2_2
X_1172_ _0736_ _0361_ _0479_ VDD VSS gf180mcu_fd_sc_mcu9t5v0__and2_2
X_1173_ _0478_ _0479_ _0766_ VDD VSS gf180mcu_fd_sc_mcu9t5v0__xnor2_2
X_1174_ _0312_ _0736_ _0361_ _0480_ VDD VSS gf180mcu_fd_sc_mcu9t5v0__oai21_2
X_1175_ _0740_ _0361_ _0481_ VDD VSS gf180mcu_fd_sc_mcu9t5v0__nand2_2
X_1176_ _0476_ _0480_ _0481_ _0265_ _0482_ VDD VSS gf180mcu_fd_sc_mcu9t5v0__aoi22_2
X_1177_ _0482_ _0483_ VDD VSS gf180mcu_fd_sc_mcu9t5v0__clkinv_2
X_1178_ _0265_ _0481_ _0484_ VDD VSS gf180mcu_fd_sc_mcu9t5v0__nor2_2
X_1179_ _0468_ _0483_ _0484_ _0769_ VDD VSS gf180mcu_fd_sc_mcu9t5v0__aoi21_2
X_1180_ _0373_ _0736_ _0732_ _0485_ VDD VSS gf180mcu_fd_sc_mcu9t5v0__aoi21_2
X_1181_ _0274_ _0253_ _0485_ _0478_ _0486_ VDD VSS gf180mcu_fd_sc_mcu9t5v0__oai31_2
X_1182_ _0736_ _0487_ VDD VSS gf180mcu_fd_sc_mcu9t5v0__clkinv_2
X_1183_ _0487_ _0477_ _0488_ VDD VSS gf180mcu_fd_sc_mcu9t5v0__nand2_2
X_1184_ _0373_ _0732_ _0361_ _0488_ _0489_ VDD VSS gf180mcu_fd_sc_mcu9t5v0__nand4_2
X_1185_ _0486_ _0489_ _0772_ VDD VSS gf180mcu_fd_sc_mcu9t5v0__and2_2
X_1186_ _0779_ _0783_ VDD VSS gf180mcu_fd_sc_mcu9t5v0__clkinv_2
X_1187_ _0785_ _0490_ VDD VSS gf180mcu_fd_sc_mcu9t5v0__clkinv_2
X_1188_ _0490_ _0782_ _0265_ _0705_ VDD VSS gf180mcu_fd_sc_mcu9t5v0__mux2_2
X_1189_ _0312_ _0832_ _0491_ VDD VSS gf180mcu_fd_sc_mcu9t5v0__nor2_2
X_1190_ _0434_ _0491_ _0837_ VDD VSS gf180mcu_fd_sc_mcu9t5v0__xnor2_2
X_1191_ _0312_ _0407_ _0492_ VDD VSS gf180mcu_fd_sc_mcu9t5v0__nor2_2
X_1192_ _0427_ _0492_ _0840_ VDD VSS gf180mcu_fd_sc_mcu9t5v0__xnor2_2
X_1193_ _0427_ _0435_ _0338_ _0493_ VDD VSS gf180mcu_fd_sc_mcu9t5v0__aoi21_2
X_1194_ _0422_ _0493_ _0843_ VDD VSS gf180mcu_fd_sc_mcu9t5v0__xnor2_2
X_1195_ _0422_ _0427_ _0494_ VDD VSS gf180mcu_fd_sc_mcu9t5v0__and2_2
X_1196_ _0407_ _0494_ _0338_ _0495_ VDD VSS gf180mcu_fd_sc_mcu9t5v0__aoi21_2
X_1197_ _0429_ _0495_ _0846_ VDD VSS gf180mcu_fd_sc_mcu9t5v0__xnor2_2
X_1198_ _0494_ _0429_ _0435_ _0496_ VDD VSS gf180mcu_fd_sc_mcu9t5v0__and3_2
X_1199_ _0312_ _0496_ _0497_ VDD VSS gf180mcu_fd_sc_mcu9t5v0__nor2_2
X_1200_ _0421_ _0497_ _0849_ VDD VSS gf180mcu_fd_sc_mcu9t5v0__xnor2_2
X_1201_ _0407_ _0430_ _0264_ _0498_ VDD VSS gf180mcu_fd_sc_mcu9t5v0__aoi21_2
X_1202_ _0418_ _0498_ _0852_ VDD VSS gf180mcu_fd_sc_mcu9t5v0__xnor2_2
X_1203_ _0418_ _0430_ _0435_ _0499_ VDD VSS gf180mcu_fd_sc_mcu9t5v0__and3_2
X_1204_ _0312_ _0499_ _0500_ VDD VSS gf180mcu_fd_sc_mcu9t5v0__nor2_2
X_1205_ _0409_ _0500_ _0855_ VDD VSS gf180mcu_fd_sc_mcu9t5v0__xnor2_2
X_1206_ _0441_ _0420_ _0282_ _0501_ VDD VSS gf180mcu_fd_sc_mcu9t5v0__mux2_2
X_1207_ _0351_ _0501_ _0502_ VDD VSS gf180mcu_fd_sc_mcu9t5v0__nand2_2
X_1208_ _0338_ _0436_ _0503_ VDD VSS gf180mcu_fd_sc_mcu9t5v0__nor2_2
X_1209_ _0502_ _0503_ _0861_ VDD VSS gf180mcu_fd_sc_mcu9t5v0__xnor2_2
X_1210_ _0446_ _0502_ _0264_ _0504_ VDD VSS gf180mcu_fd_sc_mcu9t5v0__aoi21_2
X_1211_ y\[15\] _0352_ _0505_ VDD VSS gf180mcu_fd_sc_mcu9t5v0__and2_2
X_1212_ _0416_ _0505_ _0274_ _0506_ VDD VSS gf180mcu_fd_sc_mcu9t5v0__mux2_2
X_1213_ _0351_ _0506_ _0507_ VDD VSS gf180mcu_fd_sc_mcu9t5v0__nand2_2
X_1214_ _0504_ _0507_ _0864_ VDD VSS gf180mcu_fd_sc_mcu9t5v0__xnor2_2
X_1215_ _0298_ _0441_ _0508_ VDD VSS gf180mcu_fd_sc_mcu9t5v0__nand2_2
X_1216_ _0445_ _0447_ _0509_ VDD VSS gf180mcu_fd_sc_mcu9t5v0__and2_2
X_1217_ _0436_ _0509_ _0264_ _0510_ VDD VSS gf180mcu_fd_sc_mcu9t5v0__aoi21_2
X_1218_ _0508_ _0510_ _0873_ VDD VSS gf180mcu_fd_sc_mcu9t5v0__xnor2_2
X_1219_ state\[1\] _0877_ VDD VSS gf180mcu_fd_sc_mcu9t5v0__clkinv_2
X_1220_ next_state\[1\] _0511_ VDD VSS gf180mcu_fd_sc_mcu9t5v0__clkinv_2
X_1221_ _0881_ _0512_ VDD VSS gf180mcu_fd_sc_mcu9t5v0__buf_4
X_1222_ _0512_ next_state\[1\] _0513_ VDD VSS gf180mcu_fd_sc_mcu9t5v0__and2_2
X_1223_ _0511_ _0513_ _0730_ _0001_ VDD VSS gf180mcu_fd_sc_mcu9t5v0__mux2_2
X_1224_ _0881_ _0514_ VDD VSS gf180mcu_fd_sc_mcu9t5v0__clkbuf_8
X_1225_ _0514_ _0733_ _0515_ VDD VSS gf180mcu_fd_sc_mcu9t5v0__and2_2
X_1226_ next_state\[1\] _0516_ VDD VSS gf180mcu_fd_sc_mcu9t5v0__buf_8
X_1227_ _0516_ _0517_ VDD VSS gf180mcu_fd_sc_mcu9t5v0__clkbuf_8
X_1228_ _0251_ _0515_ _0517_ _0002_ VDD VSS gf180mcu_fd_sc_mcu9t5v0__mux2_2
X_1229_ _0881_ _0518_ VDD VSS gf180mcu_fd_sc_mcu9t5v0__inv_3
X_1230_ _0746_ _0518_ _0516_ _0519_ VDD VSS gf180mcu_fd_sc_mcu9t5v0__oai21_2
X_1231_ _0282_ _0746_ _0520_ VDD VSS gf180mcu_fd_sc_mcu9t5v0__and2_2
X_1232_ _0274_ _0519_ _0520_ _0513_ _0521_ VDD VSS gf180mcu_fd_sc_mcu9t5v0__aoi22_2
X_1233_ _0521_ _0003_ VDD VSS gf180mcu_fd_sc_mcu9t5v0__clkinv_2
X_1234_ _0274_ _0249_ _0251_ _0522_ VDD VSS gf180mcu_fd_sc_mcu9t5v0__and3_2
X_1235_ _0518_ _0522_ _0516_ _0523_ VDD VSS gf180mcu_fd_sc_mcu9t5v0__oai21_2
X_1236_ _0513_ _0522_ _0524_ VDD VSS gf180mcu_fd_sc_mcu9t5v0__and2_2
X_1237_ _0523_ _0524_ _0351_ _0004_ VDD VSS gf180mcu_fd_sc_mcu9t5v0__mux2_2
X_1238_ net2 _0525_ VDD VSS gf180mcu_fd_sc_mcu9t5v0__clkinv_2
X_1239_ _0525_ _0878_ _0526_ VDD VSS gf180mcu_fd_sc_mcu9t5v0__and2_2
X_1240_ _0253_ _0520_ _0527_ VDD VSS gf180mcu_fd_sc_mcu9t5v0__nand2_2
X_1241_ _0514_ _0527_ _0526_ _0528_ VDD VSS gf180mcu_fd_sc_mcu9t5v0__aoi21_2
X_1242_ _0514_ _0879_ _0526_ _0528_ state\[0\] _0529_ VDD
+ VSS gf180mcu_fd_sc_mcu9t5v0__oai32_2
X_1243_ _0529_ _0005_ VDD VSS gf180mcu_fd_sc_mcu9t5v0__clkinv_2
X_1244_ state\[1\] _0517_ _0528_ _0006_ VDD VSS gf180mcu_fd_sc_mcu9t5v0__mux2_2
X_1245_ net3 _0829_ _0514_ _0530_ VDD VSS gf180mcu_fd_sc_mcu9t5v0__mux2_2
X_1246_ x\[0\] _0530_ _0517_ _0007_ VDD VSS gf180mcu_fd_sc_mcu9t5v0__mux2_2
X_1247_ _0850_ _0531_ VDD VSS gf180mcu_fd_sc_mcu9t5v0__clkinv_2
X_1248_ _0848_ _0847_ _0851_ _0532_ VDD VSS gf180mcu_fd_sc_mcu9t5v0__oai21_2
X_1249_ _0531_ _0532_ _0533_ VDD VSS gf180mcu_fd_sc_mcu9t5v0__nand2_2
X_1250_ _0854_ _0533_ _0534_ VDD VSS gf180mcu_fd_sc_mcu9t5v0__nand2_2
X_1251_ _0842_ _0535_ VDD VSS gf180mcu_fd_sc_mcu9t5v0__clkinv_2
X_1252_ _0711_ _0536_ VDD VSS gf180mcu_fd_sc_mcu9t5v0__clkinv_2
X_1253_ _0536_ _0839_ _0838_ _0537_ VDD VSS gf180mcu_fd_sc_mcu9t5v0__aoi21_2
X_1254_ _0841_ _0538_ VDD VSS gf180mcu_fd_sc_mcu9t5v0__clkinv_2
X_1255_ _0535_ _0537_ _0538_ _0539_ VDD VSS gf180mcu_fd_sc_mcu9t5v0__oai21_2
X_1256_ _0844_ _0847_ _0850_ _0540_ VDD VSS gf180mcu_fd_sc_mcu9t5v0__or3_2
X_1257_ _0845_ _0539_ _0540_ _0541_ VDD VSS gf180mcu_fd_sc_mcu9t5v0__aoi21_2
X_1258_ _0853_ _0856_ _0542_ VDD VSS gf180mcu_fd_sc_mcu9t5v0__nor2_2
X_1259_ _0534_ _0541_ _0542_ _0543_ VDD VSS gf180mcu_fd_sc_mcu9t5v0__oai21_2
X_1260_ _0857_ _0856_ _0544_ VDD VSS gf180mcu_fd_sc_mcu9t5v0__or2_2
X_1261_ _0860_ _0544_ _0545_ VDD VSS gf180mcu_fd_sc_mcu9t5v0__and2_2
X_1262_ _0543_ _0545_ _0859_ _0546_ VDD VSS gf180mcu_fd_sc_mcu9t5v0__aoi21_2
X_1263_ _0863_ _0546_ _0547_ VDD VSS gf180mcu_fd_sc_mcu9t5v0__xnor2_2
X_1264_ net4 _0547_ _0514_ _0548_ VDD VSS gf180mcu_fd_sc_mcu9t5v0__mux2_2
X_1265_ x\[10\] _0548_ _0517_ _0008_ VDD VSS gf180mcu_fd_sc_mcu9t5v0__mux2_2
X_1266_ _0859_ _0549_ VDD VSS gf180mcu_fd_sc_mcu9t5v0__clkinv_2
X_1267_ _0545_ _0550_ VDD VSS gf180mcu_fd_sc_mcu9t5v0__clkinv_2
X_1268_ _0828_ _0836_ _0835_ _0838_ _0551_ VDD VSS gf180mcu_fd_sc_mcu9t5v0__aoi211_4
X_1269_ _0839_ _0838_ _0842_ _0552_ VDD VSS gf180mcu_fd_sc_mcu9t5v0__oai21_2
X_1270_ _0844_ _0847_ _0850_ _0553_ VDD VSS gf180mcu_fd_sc_mcu9t5v0__nor3_2
X_1271_ _0551_ _0552_ _0538_ _0553_ _0554_ VDD VSS gf180mcu_fd_sc_mcu9t5v0__oai211_2
X_1272_ _0854_ _0555_ VDD VSS gf180mcu_fd_sc_mcu9t5v0__clkinv_2
X_1273_ _0531_ _0532_ _0555_ _0556_ VDD VSS gf180mcu_fd_sc_mcu9t5v0__aoi21_2
X_1274_ _0845_ _0540_ _0554_ _0556_ _0557_ VDD VSS gf180mcu_fd_sc_mcu9t5v0__oai211_4
X_1275_ _0549_ _0542_ _0558_ VDD VSS gf180mcu_fd_sc_mcu9t5v0__and2_2