
* cell cordic
* pin x_out[13]
* pin x_in[13]
* pin x_in[12]
* pin x_out[12]
* pin x_in[11]
* pin x_out[11]
* pin x_in[10]
* pin x_out[10]
* pin x_out[0]
* pin x_out[2]
* pin x_out[1]
* pin x_in[0]
* pin x_in[1]
* pin x_in[9]
* pin x_in[2]
* pin x_in[3]
* pin x_in[4]
* pin x_in[8]
* pin x_in[5]
* pin x_out[14]
* pin x_in[6]
* pin x_out[15]
* pin x_in[7]
* pin x_out[4]
* pin x_in[15]
* pin x_in[14]
* pin x_out[3]
* pin x_out[5]
* pin x_out[9]
* pin start
* pin x_out[8]
* pin x_out[7]
* pin x_out[6]
* pin z_in[15]
* pin y_in[15]
* pin z_out[3]
* pin z_out[2]
* pin y_in[0]
* pin y_out[0]
* pin z_out[5]
* pin z_in[3]
* pin done
* pin y_out[11]
* pin y_out[10]
* pin z_in[2]
* pin y_out[15]
* pin y_out[2]
* pin z_in[5]
* pin y_out[3]
* pin clk
* pin z_in[6]
* pin y_in[1]
* pin y_out[1]
* pin z_out[6]
* pin z_in[1]
* pin y_in[10]
* pin y_in[2]
* pin y_in[3]
* pin z_out[1]
* pin z_out[4]
* pin z_in[4]
* pin y_in[4]
* pin y_out[4]
* pin z_in[7]
* pin y_in[5]
* pin z_out[7]
* pin y_out[5]
* pin z_in[9]
* pin z_in[8]
* pin y_in[11]
* pin z_out[8]
* pin z_out[9]
* pin z_in[10]
* pin y_out[13]
* pin y_out[7]
* pin z_out[13]
* pin y_out[9]
* pin z_out[0]
* pin z_out[10]
* pin z_in[0]
* pin z_in[11]
* pin z_out[11]
* pin z_in[12]
* pin z_out[12]
* pin z_in[13]
* pin z_in[14]
* pin z_out[14]
* pin z_out[15]
* pin y_in[9]
* pin y_out[8]
* pin y_in[8]
* pin y_in[7]
* pin y_in[6]
* pin y_in[13]
* pin y_out[6]
* pin y_in[14]
* pin y_in[12]
* pin rst_n
* pin y_out[14]
* pin y_out[12]
* pin PWELL,gf180mcu_gnd
* pin NWELL
.SUBCKT cordic 1 2 3 4 5 6 7 8 9 10 11 12 13 14 15 75 97 130 161 176 201 209
+ 226 257 263 264 287 288 316 327 361 362 363 403 404 405 406 428 429 470 471
+ 472 493 494 503 530 531 539 565 573 601 621 622 672 673 709 710 750 763 764
+ 765 809 810 820 875 892 919 931 932 961 975 1009 1010 1110 1112 1113 1114
+ 1115 1116 1117 1118 1119 1120 1121 1122 1123 1124 1125 1126 1127 1128 1129
+ 1130 1131 1132 1133 1134 1135 1136 1137 1140 1141
* net 1 x_out[13]
* net 2 x_in[13]
* net 3 x_in[12]
* net 4 x_out[12]
* net 5 x_in[11]
* net 6 x_out[11]
* net 7 x_in[10]
* net 8 x_out[10]
* net 9 x_out[0]
* net 10 x_out[2]
* net 11 x_out[1]
* net 12 x_in[0]
* net 13 x_in[1]
* net 14 x_in[9]
* net 15 x_in[2]
* net 75 x_in[3]
* net 97 x_in[4]
* net 130 x_in[8]
* net 161 x_in[5]
* net 176 x_out[14]
* net 201 x_in[6]
* net 209 x_out[15]
* net 226 x_in[7]
* net 257 x_out[4]
* net 263 x_in[15]
* net 264 x_in[14]
* net 287 x_out[3]
* net 288 x_out[5]
* net 316 x_out[9]
* net 327 start
* net 361 x_out[8]
* net 362 x_out[7]
* net 363 x_out[6]
* net 403 z_in[15]
* net 404 y_in[15]
* net 405 z_out[3]
* net 406 z_out[2]
* net 428 y_in[0]
* net 429 y_out[0]
* net 470 z_out[5]
* net 471 z_in[3]
* net 472 done
* net 493 y_out[11]
* net 494 y_out[10]
* net 503 z_in[2]
* net 530 y_out[15]
* net 531 y_out[2]
* net 539 z_in[5]
* net 565 y_out[3]
* net 573 clk
* net 601 z_in[6]
* net 621 y_in[1]
* net 622 y_out[1]
* net 672 z_out[6]
* net 673 z_in[1]
* net 709 y_in[10]
* net 710 y_in[2]
* net 750 y_in[3]
* net 763 z_out[1]
* net 764 z_out[4]
* net 765 z_in[4]
* net 809 y_in[4]
* net 810 y_out[4]
* net 820 z_in[7]
* net 875 y_in[5]
* net 892 z_out[7]
* net 919 y_out[5]
* net 931 z_in[9]
* net 932 z_in[8]
* net 961 y_in[11]
* net 975 z_out[8]
* net 1009 z_out[9]
* net 1010 z_in[10]
* net 1110 y_out[13]
* net 1112 y_out[7]
* net 1113 z_out[13]
* net 1114 y_out[9]
* net 1115 z_out[0]
* net 1116 z_out[10]
* net 1117 z_in[0]
* net 1118 z_in[11]
* net 1119 z_out[11]
* net 1120 z_in[12]
* net 1121 z_out[12]
* net 1122 z_in[13]
* net 1123 z_in[14]
* net 1124 z_out[14]
* net 1125 z_out[15]
* net 1126 y_in[9]
* net 1127 y_out[8]
* net 1128 y_in[8]
* net 1129 y_in[7]
* net 1130 y_in[6]
* net 1131 y_in[13]
* net 1132 y_out[6]
* net 1133 y_in[14]
* net 1134 y_in[12]
* net 1135 rst_n
* net 1136 y_out[14]
* net 1137 y_out[12]
* net 1140 PWELL,gf180mcu_gnd
* net 1141 NWELL
* cell instance $2 r0 *1 1310.96,5.04
X$2 20 1141 1140 1 gf180mcu_fd_sc_mcu9t5v0__dlyb_2
* cell instance $7 r0 *1 1314.32,15.12
X$7 1140 2 56 1141 gf180mcu_fd_sc_mcu9t5v0__clkbuf_8
* cell instance $11 r0 *1 1322.16,5.04
X$11 1140 3 25 1141 gf180mcu_fd_sc_mcu9t5v0__clkbuf_8
* cell instance $15 r0 *1 1344.56,5.04
X$15 21 1141 1140 4 gf180mcu_fd_sc_mcu9t5v0__dlyb_2
* cell instance $18 r0 *1 1361.36,5.04
X$18 1140 5 19 1141 gf180mcu_fd_sc_mcu9t5v0__clkbuf_8
* cell instance $22 r0 *1 1359.12,15.12
X$22 22 1141 1140 6 gf180mcu_fd_sc_mcu9t5v0__dlyb_2
* cell instance $26 m0 *1 1382.08,15.12
X$26 1140 7 34 1141 gf180mcu_fd_sc_mcu9t5v0__clkbuf_8
* cell instance $30 r0 *1 1380.96,5.04
X$30 23 1141 1140 8 gf180mcu_fd_sc_mcu9t5v0__dlyb_2
* cell instance $34 m0 *1 1403.36,15.12
X$34 16 1141 1140 9 gf180mcu_fd_sc_mcu9t5v0__dlyb_2
* cell instance $39 r0 *1 1407.28,5.04
X$39 18 1141 1140 10 gf180mcu_fd_sc_mcu9t5v0__dlyb_2
* cell instance $42 r0 *1 1419.04,5.04
X$42 24 1141 1140 11 gf180mcu_fd_sc_mcu9t5v0__dlyb_2
* cell instance $46 r0 *1 1438.64,5.04
X$46 1140 12 26 1141 gf180mcu_fd_sc_mcu9t5v0__clkbuf_8
* cell instance $51 m0 *1 1442,15.12
X$51 1140 13 63 1141 gf180mcu_fd_sc_mcu9t5v0__clkbuf_8
* cell instance $55 m0 *1 1485.12,15.12
X$55 1140 14 45 1141 gf180mcu_fd_sc_mcu9t5v0__clkbuf_8
* cell instance $58 r0 *1 1500.24,5.04
X$58 1140 15 17 1141 gf180mcu_fd_sc_mcu9t5v0__clkbuf_8
* cell instance $62 r0 *1 1394.4,1234.8
X$62 1140 28 16 35 82 1141 gf180mcu_fd_sc_mcu9t5v0__dffrnq_4
* cell instance $64 m0 *1 1401.68,1234.8
X$64 1140 1141 82 62 30 16 gf180mcu_fd_sc_mcu9t5v0__mux2_2
* cell instance $78 m0 *1 1491.84,1224.72
X$78 1140 1141 44 46 72 17 gf180mcu_fd_sc_mcu9t5v0__mux2_2
* cell instance $89 r0 *1 1395.52,1214.64
X$89 1140 28 18 35 51 1141 gf180mcu_fd_sc_mcu9t5v0__dffrnq_4
* cell instance $91 m0 *1 1405.04,1224.72
X$91 1140 1141 51 36 30 18 gf180mcu_fd_sc_mcu9t5v0__mux2_2
* cell instance $100 r0 *1 1359.12,1234.8
X$100 1140 1141 81 88 58 19 gf180mcu_fd_sc_mcu9t5v0__mux2_2
* cell instance $111 r0 *1 1298.08,1224.72
X$111 1140 28 20 53 79 1141 gf180mcu_fd_sc_mcu9t5v0__dffrnq_4
* cell instance $113 m0 *1 1308.16,1224.72
X$113 1140 1141 79 52 30 20 gf180mcu_fd_sc_mcu9t5v0__mux2_2
* cell instance $133 m0 *1 1329.44,1224.72
X$133 1140 28 21 53 49 1141 gf180mcu_fd_sc_mcu9t5v0__dffrnq_4
* cell instance $135 r0 *1 1336.72,1214.64
X$135 1140 1141 49 31 30 21 gf180mcu_fd_sc_mcu9t5v0__mux2_2
* cell instance $149 r0 *1 1354.08,1204.56
X$149 1140 28 22 53 27 1141 gf180mcu_fd_sc_mcu9t5v0__dffrnq_4
* cell instance $152 r0 *1 1357.44,1214.64
X$152 1140 1141 27 50 30 22 gf180mcu_fd_sc_mcu9t5v0__mux2_2
* cell instance $171 r0 *1 1375.36,1204.56
X$171 1140 28 23 35 32 1141 gf180mcu_fd_sc_mcu9t5v0__dffrnq_4
* cell instance $180 r0 *1 1376.48,1214.64
X$180 1140 1141 32 33 30 23 gf180mcu_fd_sc_mcu9t5v0__mux2_2
* cell instance $189 r0 *1 1416.8,1214.64
X$189 1140 1141 29 37 30 24 gf180mcu_fd_sc_mcu9t5v0__mux2_2
* cell instance $191 r0 *1 1411.2,1204.56
X$191 1140 28 24 35 29 1141 gf180mcu_fd_sc_mcu9t5v0__dffrnq_4
* cell instance $206 r0 *1 1324.96,1254.96
X$206 1140 1141 102 103 25 gf180mcu_fd_sc_mcu9t5v0__nand2_2
* cell instance $208 m0 *1 1438.08,1234.8
X$208 1140 1141 85 86 58 26 gf180mcu_fd_sc_mcu9t5v0__mux2_2
* cell instance $222 m0 *1 1280.72,1547.28
X$222 1140 28 1091 1005 1109 1141 gf180mcu_fd_sc_mcu9t5v0__dffrnq_4
* cell instance $224 m0 *1 1366.96,1506.96
X$224 1140 28 1019 1005 1018 1141 gf180mcu_fd_sc_mcu9t5v0__dffrnq_4
* cell instance $226 r0 *1 1504.16,1305.36
X$226 1140 28 284 198 283 1141 gf180mcu_fd_sc_mcu9t5v0__dffrnq_4
* cell instance $228 r0 *1 1557.36,1446.48
X$228 1140 28 808 562 807 1141 gf180mcu_fd_sc_mcu9t5v0__dffrnq_4
* cell instance $231 m0 *1 1523.76,1305.36
X$231 1140 28 286 198 290 1141 gf180mcu_fd_sc_mcu9t5v0__dffrnq_4
* cell instance $233 m0 *1 1544.48,1315.44
X$233 1140 28 315 198 314 1141 gf180mcu_fd_sc_mcu9t5v0__dffrnq_4
* cell instance $236 r0 *1 1381.52,1517.04
X$236 1140 28 1050 1005 1068 1141 gf180mcu_fd_sc_mcu9t5v0__dffrnq_4
* cell instance $238 r0 *1 1167.6,1456.56
X$238 1140 28 852 541 848 1141 gf180mcu_fd_sc_mcu9t5v0__dffrnq_4
* cell instance $240 r0 *1 1545.04,1295.28
X$240 1140 28 256 198 255 1141 gf180mcu_fd_sc_mcu9t5v0__dffrnq_4
* cell instance $242 r0 *1 1160.88,1486.8
X$242 1140 28 977 541 1003 1141 gf180mcu_fd_sc_mcu9t5v0__dffrnq_4
* cell instance $244 r0 *1 1153.6,1436.4
X$244 1140 28 766 541 783 1141 gf180mcu_fd_sc_mcu9t5v0__dffrnq_4
* cell instance $249 m0 *1 1258.32,1295.28
X$249 1140 28 212 53 210 1141 gf180mcu_fd_sc_mcu9t5v0__dffrnq_4
* cell instance $251 m0 *1 1309.28,1547.28
X$251 1140 28 1093 1005 1092 1141 gf180mcu_fd_sc_mcu9t5v0__dffrnq_4
* cell instance $253 r0 *1 1325.52,1335.6
X$253 1140 28 334 366 381 1141 gf180mcu_fd_sc_mcu9t5v0__dffrnq_4
* cell instance $258 m0 *1 1254.4,1537.2
X$258 1140 28 1090 1005 1102 1141 gf180mcu_fd_sc_mcu9t5v0__dffrnq_4
* cell instance $261 m0 *1 1513.12,2746.8
X$261 1140 1139 28 1141 gf180mcu_fd_sc_mcu9t5v0__buf_20
* cell instance $263 r0 *1 1501.36,1325.52
X$263 1140 28 358 198 357 1141 gf180mcu_fd_sc_mcu9t5v0__dffrnq_4
* cell instance $265 m0 *1 1399.44,1527.12
X$265 1140 28 1051 1000 1078 1141 gf180mcu_fd_sc_mcu9t5v0__dffrnq_4
* cell instance $267 m0 *1 1516.48,1325.52
X$267 1140 28 318 198 313 1141 gf180mcu_fd_sc_mcu9t5v0__dffrnq_4
* cell instance $269 m0 *1 1519.84,1527.12
X$269 1140 28 1060 1000 1084 1141 gf180mcu_fd_sc_mcu9t5v0__dffrnq_4
* cell instance $271 r0 *1 1531.6,1325.52
X$271 1140 28 360 198 359 1141 gf180mcu_fd_sc_mcu9t5v0__dffrnq_4
* cell instance $275 r0 *1 1468.88,1547.28
X$275 1140 28 1098 1000 1105 1141 gf180mcu_fd_sc_mcu9t5v0__dffrnq_4
* cell instance $277 r0 *1 1158.64,1416.24
X$277 1140 28 675 541 661 1141 gf180mcu_fd_sc_mcu9t5v0__dffrnq_4
* cell instance $279 r0 *1 1298.64,1365.84
X$279 1140 28 452 366 501 1141 gf180mcu_fd_sc_mcu9t5v0__dffrnq_4
* cell instance $281 r0 *1 1203.44,1355.76
X$281 1140 28 431 366 466 1141 gf180mcu_fd_sc_mcu9t5v0__dffrnq_4
* cell instance $283 m0 *1 1514.8,1547.28
X$283 1140 28 1108 1000 1099 1141 gf180mcu_fd_sc_mcu9t5v0__dffrnq_4
* cell instance $288 r0 *1 1321.6,1527.12
X$288 1140 28 1015 1005 1074 1141 gf180mcu_fd_sc_mcu9t5v0__dffrnq_2
* cell instance $290 m0 *1 1555.68,1375.92
X$290 1140 28 529 198 527 1141 gf180mcu_fd_sc_mcu9t5v0__dffrnq_4
* cell instance $292 r0 *1 1340.64,1527.12
X$292 1140 28 1046 1005 1076 1141 gf180mcu_fd_sc_mcu9t5v0__dffrnq_4
* cell instance $295 r0 *1 1275.68,1285.2
X$295 1140 28 215 53 213 1141 gf180mcu_fd_sc_mcu9t5v0__dffrnq_4
* cell instance $297 r0 *1 1557.36,1406.16
X$297 1140 28 620 562 657 1141 gf180mcu_fd_sc_mcu9t5v0__dffrnq_4
* cell instance $299 r0 *1 1525.44,1345.68
X$299 1140 28 427 198 433 1141 gf180mcu_fd_sc_mcu9t5v0__dffrnq_4
* cell instance $302 r0 *1 1541.68,1365.84
X$302 1140 28 492 198 534 1141 gf180mcu_fd_sc_mcu9t5v0__dffrnq_4
* cell instance $305 m0 *1 1243.76,1375.92
X$305 1140 28 476 366 475 1141 gf180mcu_fd_sc_mcu9t5v0__dffrnq_4
* cell instance $307 m0 *1 1486.8,1547.28
X$307 1140 28 1107 1000 1106 1141 gf180mcu_fd_sc_mcu9t5v0__dffrnq_4
* cell instance $310 r0 *1 1550.64,1386
X$310 1140 28 564 562 563 1141 gf180mcu_fd_sc_mcu9t5v0__dffrnq_4
* cell instance $312 r0 *1 1547.84,1466.64
X$312 1140 28 874 562 920 1141 gf180mcu_fd_sc_mcu9t5v0__dffrnq_4
* cell instance $315 r0 *1 1174.88,1436.4
X$315 1140 28 722 541 767 1141 gf180mcu_fd_sc_mcu9t5v0__dffrnq_4
* cell instance $318 r0 *1 1298.08,1325.52
X$318 1140 28 333 366 332 1141 gf180mcu_fd_sc_mcu9t5v0__dffrnq_4
* cell instance $320 m0 *1 1522.64,1365.84
X$320 1140 28 491 198 490 1141 gf180mcu_fd_sc_mcu9t5v0__dffrnq_4
* cell instance $322 m0 *1 1498.56,1537.2
X$322 1140 28 459 1000 1082 1141 gf180mcu_fd_sc_mcu9t5v0__dffrnq_2
* cell instance $324 r0 *1 1472.24,1527.12
X$324 1140 28 559 1000 1081 1141 gf180mcu_fd_sc_mcu9t5v0__dffrnq_2
* cell instance $326 r0 *1 1503.04,1517.04
X$326 1140 28 558 1000 1061 1141 gf180mcu_fd_sc_mcu9t5v0__dffrnq_2
* cell instance $328 m0 *1 1198.4,1436.4
X$328 1140 28 724 541 756 1141 gf180mcu_fd_sc_mcu9t5v0__dffrnq_2
* cell instance $330 m0 *1 1486.8,1305.36
X$330 1140 28 224 198 254 1141 gf180mcu_fd_sc_mcu9t5v0__dffrnq_2
* cell instance $333 r0 *1 1192.8,1446.48
X$333 1140 28 787 541 788 1141 gf180mcu_fd_sc_mcu9t5v0__dffrnq_2
* cell instance $335 m0 *1 1202.88,1386
X$335 1140 28 473 541 567 1141 gf180mcu_fd_sc_mcu9t5v0__dffrnq_2
* cell instance $337 r0 *1 1199.52,1476.72
X$337 1140 28 899 541 897 1141 gf180mcu_fd_sc_mcu9t5v0__dffrnq_2
* cell instance $340 r0 *1 1537.76,1436.4
X$340 1140 28 521 562 779 1141 gf180mcu_fd_sc_mcu9t5v0__dffrnq_2
* cell instance $343 m0 *1 1242.64,1436.4
X$343 1140 28 637 541 726 1141 gf180mcu_fd_sc_mcu9t5v0__dffrnq_2
* cell instance $345 m0 *1 1538.88,1406.16
X$345 1140 28 523 562 619 1141 gf180mcu_fd_sc_mcu9t5v0__dffrnq_2
* cell instance $347 r0 *1 1255.52,1496.88
X$347 1140 28 982 1005 980 1141 gf180mcu_fd_sc_mcu9t5v0__dffrnq_2
* cell instance $350 m0 *1 1224.72,1365.84
X$350 1140 28 445 366 497 1141 gf180mcu_fd_sc_mcu9t5v0__dffrnq_2
* cell instance $352 r0 *1 1258.32,1345.68
X$352 1140 28 407 366 467 1141 gf180mcu_fd_sc_mcu9t5v0__dffrnq_2
* cell instance $354 m0 *1 1308.72,1315.44
X$354 1140 28 214 53 322 1141 gf180mcu_fd_sc_mcu9t5v0__dffrnq_2
* cell instance $356 r0 *1 1351.84,1244.88
X$356 1140 28 50 53 87 1141 gf180mcu_fd_sc_mcu9t5v0__dffrnq_2
* cell instance $358 r0 *1 1315.44,1234.8
X$358 1140 28 52 53 54 1141 gf180mcu_fd_sc_mcu9t5v0__dffrnq_2
* cell instance $361 m0 *1 1176,1355.76
X$361 1140 28 443 366 442 1141 gf180mcu_fd_sc_mcu9t5v0__dffrnq_4
* cell instance $363 m0 *1 1176,1375.92
X$363 1140 28 495 541 504 1141 gf180mcu_fd_sc_mcu9t5v0__dffrnq_4
* cell instance $365 m0 *1 1332.24,1244.88
X$365 1140 28 31 53 100 1141 gf180mcu_fd_sc_mcu9t5v0__dffrnq_2
* cell instance $368 m0 *1 1266.16,1305.36
X$368 1140 28 211 366 291 1141 gf180mcu_fd_sc_mcu9t5v0__dffrnq_2
* cell instance $371 m0 *1 1258.88,1325.52
X$371 1140 28 329 366 365 1141 gf180mcu_fd_sc_mcu9t5v0__dffrnq_2
* cell instance $373 r0 *1 1505.28,1345.68
X$373 1140 28 426 198 424 1141 gf180mcu_fd_sc_mcu9t5v0__dffrnq_2
* cell instance $376 m0 *1 1336.16,1406.16
X$376 1140 28 587 366 606 1141 gf180mcu_fd_sc_mcu9t5v0__dffrnq_2
* cell instance $378 m0 *1 1314.32,1375.92
X$378 1140 28 507 366 447 1141 gf180mcu_fd_sc_mcu9t5v0__dffrnq_2
* cell instance $381 m0 *1 1352.96,1345.68
X$381 1140 28 391 366 440 1141 gf180mcu_fd_sc_mcu9t5v0__dffrnq_2
* cell instance $383 m0 *1 1531.04,1426.32
X$383 1140 28 560 562 754 1141 gf180mcu_fd_sc_mcu9t5v0__dffrnq_2
* cell instance $385 r0 *1 1518.16,1436.4
X$385 1140 28 520 562 749 1141 gf180mcu_fd_sc_mcu9t5v0__dffrnq_2
* cell instance $388 m0 *1 1174.32,1476.72
X$388 1140 28 880 541 894 1141 gf180mcu_fd_sc_mcu9t5v0__dffrnq_2
* cell instance $390 m0 *1 1531.04,1396.08
X$390 1140 28 561 562 593 1141 gf180mcu_fd_sc_mcu9t5v0__dffrnq_2
* cell instance $393 m0 *1 1176,1496.88
X$393 1140 28 976 541 1004 1141 gf180mcu_fd_sc_mcu9t5v0__dffrnq_4
* cell instance $395 m0 *1 1420.72,1517.04
X$395 1140 28 514 1000 1052 1141 gf180mcu_fd_sc_mcu9t5v0__dffrnq_2
* cell instance $397 m0 *1 1398.32,1506.96
X$397 1140 28 509 1000 1020 1141 gf180mcu_fd_sc_mcu9t5v0__dffrnq_2
* cell instance $399 m0 *1 1424.08,1537.2
X$399 1140 28 515 1000 1096 1141 gf180mcu_fd_sc_mcu9t5v0__dffrnq_2
* cell instance $401 r0 *1 1522.64,1466.64
X$401 1140 28 592 562 873 1141 gf180mcu_fd_sc_mcu9t5v0__dffrnq_2
* cell instance $404 m0 *1 1515.36,1486.8
X$404 1140 28 522 562 963 1141 gf180mcu_fd_sc_mcu9t5v0__dffrnq_2
* cell instance $406 r0 *1 1258.88,1547.28
X$406 1140 28 1089 1005 1104 1141 gf180mcu_fd_sc_mcu9t5v0__dffrnq_4
* cell instance $408 m0 *1 1446.48,1527.12
X$408 1140 28 518 1000 1086 1141 gf180mcu_fd_sc_mcu9t5v0__dffrnq_2
* cell instance $410 r0 *1 1402.8,1537.2
X$410 1140 28 1095 1000 1094 1141 gf180mcu_fd_sc_mcu9t5v0__dffrnq_4
* cell instance $412 m0 *1 1522.08,1386
X$412 1140 28 526 562 525 1141 gf180mcu_fd_sc_mcu9t5v0__dffrnq_4
* cell instance $414 m0 *1 1295.28,1537.2
X$414 1140 28 1012 1005 1103 1141 gf180mcu_fd_sc_mcu9t5v0__dffrnq_2
* cell instance $417 r0 *1 1277.92,1527.12
X$417 1140 28 987 1005 1071 1141 gf180mcu_fd_sc_mcu9t5v0__dffrnq_2
* cell instance $420 m0 *1 1376.48,1244.88
X$420 1140 28 33 35 101 1141 gf180mcu_fd_sc_mcu9t5v0__dffrnq_2
* cell instance $423 r0 *1 1248.8,1517.04
X$423 1140 28 769 1005 1063 1141 gf180mcu_fd_sc_mcu9t5v0__dffrnq_2
* cell instance $425 m0 *1 1342.88,1506.96
X$425 1140 28 993 1005 1017 1141 gf180mcu_fd_sc_mcu9t5v0__dffrnq_2
* cell instance $427 m0 *1 1504.16,1244.88
X$427 1140 28 74 35 96 1141 gf180mcu_fd_sc_mcu9t5v0__dffrnq_2
* cell instance $429 m0 *1 1178.24,1426.32
X$429 1140 28 674 541 676 1141 gf180mcu_fd_sc_mcu9t5v0__dffrnq_2
* cell instance $431 m0 *1 1488.48,1214.64
X$431 1140 28 36 35 47 1141 gf180mcu_fd_sc_mcu9t5v0__dffrnq_2
* cell instance $434 r0 *1 1433.6,1214.64
X$434 1140 28 37 35 38 1141 gf180mcu_fd_sc_mcu9t5v0__dffrnq_2
* cell instance $436 m0 *1 1360.24,1527.12
X$436 1140 28 1048 1005 1077 1141 gf180mcu_fd_sc_mcu9t5v0__dffrnq_4
* cell instance $438 m0 *1 1413.44,1244.88
X$438 1140 28 62 35 89 1141 gf180mcu_fd_sc_mcu9t5v0__dffrnq_2
* cell instance $440 m0 *1 1496.32,1265.04
X$440 1140 28 158 35 133 1141 gf180mcu_fd_sc_mcu9t5v0__dffrnq_2
* cell instance $443 m0 *1 1526,1254.96
X$443 1140 28 129 198 131 1141 gf180mcu_fd_sc_mcu9t5v0__dffrnq_2
* cell instance $445 r0 *1 1185.52,1396.08
X$445 1140 28 540 541 575 1141 gf180mcu_fd_sc_mcu9t5v0__dffrnq_2
* cell instance $447 r0 *1 1523.76,1285.2
X$447 1140 28 223 198 225 1141 gf180mcu_fd_sc_mcu9t5v0__dffrnq_2
* cell instance $449 m0 *1 1520.96,1275.12
X$449 1140 28 182 198 160 1141 gf180mcu_fd_sc_mcu9t5v0__dffrnq_2
* cell instance $452 m0 *1 1500.24,1285.2
X$452 1140 28 183 35 196 1141 gf180mcu_fd_sc_mcu9t5v0__dffrnq_2
* cell instance $569 r0 *1 1244.88,1365.84
X$569 1140 1141 475 476 474 30 gf180mcu_fd_sc_mcu9t5v0__mux2_2
* cell instance $571 r0 *1 1265.6,1285.2
X$571 1140 1141 210 211 30 212 gf180mcu_fd_sc_mcu9t5v0__mux2_2
* cell instance $574 r0 *1 1259.44,1355.76
X$574 1140 444 30 1141 gf180mcu_fd_sc_mcu9t5v0__clkbuf_8
* cell instance $583 m0 *1 1279.6,1285.2
X$583 1140 1141 213 214 30 215 gf180mcu_fd_sc_mcu9t5v0__mux2_2
* cell instance $597 r0 *1 1334.48,1244.88
X$597 1140 1141 100 104 59 31 gf180mcu_fd_sc_mcu9t5v0__mux2_2
* cell instance $600 r0 *1 1365.28,1386
X$600 1140 700 1141 31 456 52 502 50 33 gf180mcu_fd_sc_mcu9t5v0__mux4_4
* cell instance $605 r0 *1 1342.88,1285.2
X$605 1140 216 143 232 31 1141 gf180mcu_fd_sc_mcu9t5v0__addh_2
* cell instance $607 r0 *1 1352.96,1375.92
X$607 1140 511 1141 214 395 211 479 52 31 gf180mcu_fd_sc_mcu9t5v0__mux4_4
* cell instance $609 m0 *1 1354.08,1396.08
X$609 1140 696 1141 52 390 214 555 31 50 gf180mcu_fd_sc_mcu9t5v0__mux4_4
* cell instance $611 r0 *1 1377.6,1375.92
X$611 1140 508 502 158 50 456 31 33 1141 gf180mcu_fd_sc_mcu9t5v0__mux4_2
* cell instance $621 r0 *1 1375.92,1234.8
X$621 1140 1141 101 60 59 33 gf180mcu_fd_sc_mcu9t5v0__mux2_2
* cell instance $623 r0 *1 1383.2,1365.84
X$623 1140 484 479 182 33 395 50 158 1141 gf180mcu_fd_sc_mcu9t5v0__mux4_2
* cell instance $625 r0 *1 1386.56,1386
X$625 1140 1141 556 33 555 182 gf180mcu_fd_sc_mcu9t5v0__mux2_2
* cell instance $632 r0 *1 1373.68,1275.12
X$632 1140 146 144 33 179 1141 gf180mcu_fd_sc_mcu9t5v0__addh_2
* cell instance $641 m0 *1 1379.84,1234.8
X$641 1140 1141 60 61 58 34 gf180mcu_fd_sc_mcu9t5v0__mux2_2
* cell instance $652 m0 *1 1464.4,1275.12
X$652 1140 191 35 1141 gf180mcu_fd_sc_mcu9t5v0__clkbuf_20
* cell instance $662 r0 *1 1464.4,1275.12
X$662 1140 1141 35 1145 gf180mcu_fd_sc_mcu9t5v0__inv_4
* cell instance $676 r0 *1 1483.44,1214.64
X$676 1140 1141 47 44 42 36 gf180mcu_fd_sc_mcu9t5v0__mux2_2
* cell instance $679 r0 *1 1415.68,1355.76
X$679 1140 483 502 62 36 456 74 37 1141 gf180mcu_fd_sc_mcu9t5v0__mux4_2
* cell instance $681 m0 *1 1423.52,1386
X$681 1140 557 555 37 74 456 129 36 1141 gf180mcu_fd_sc_mcu9t5v0__mux4_2
* cell instance $683 r0 *1 1410.08,1386
X$683 1140 574 502 36 129 456 223 74 1141 gf180mcu_fd_sc_mcu9t5v0__mux4_2
* cell instance $687 m0 *1 1478.4,1244.88
X$687 1140 66 69 36 94 1141 gf180mcu_fd_sc_mcu9t5v0__addh_2
* cell instance $701 r0 *1 1450.96,1234.8
X$701 1140 65 83 37 91 1141 gf180mcu_fd_sc_mcu9t5v0__addh_2
* cell instance $703 m0 *1 1435.84,1224.72
X$703 1140 1141 38 39 42 37 gf180mcu_fd_sc_mcu9t5v0__mux2_2
* cell instance $705 r0 *1 1453.76,1214.64
X$705 1140 1141 37 48 gf180mcu_fd_sc_mcu9t5v0__clkinv_2
* cell instance $721 r0 *1 1443.12,1224.72
X$721 1140 1141 39 40 58 63 gf180mcu_fd_sc_mcu9t5v0__mux2_2
* cell instance $724 m0 *1 1447.6,1224.72
X$724 1140 1141 41 40 gf180mcu_fd_sc_mcu9t5v0__clkinv_2
* cell instance $730 m0 *1 1450.96,1224.72
X$730 1140 48 41 84 64 43 1141 gf180mcu_fd_sc_mcu9t5v0__addf_2
* cell instance $732 r0 *1 1481.76,1315.44
X$732 1140 265 42 1141 gf180mcu_fd_sc_mcu9t5v0__clkbuf_8
* cell instance $735 m0 *1 1491.84,1295.28
X$735 1140 1141 254 228 42 224 gf180mcu_fd_sc_mcu9t5v0__mux2_2
* cell instance $737 m0 *1 1509.76,1345.68
X$737 1140 1141 424 425 42 426 gf180mcu_fd_sc_mcu9t5v0__mux2_2
* cell instance $739 m0 *1 1487.92,1265.04
X$739 1140 1141 133 127 42 158 gf180mcu_fd_sc_mcu9t5v0__mux2_2
* cell instance $741 r0 *1 1504.16,1234.8
X$741 1140 1141 96 73 42 74 gf180mcu_fd_sc_mcu9t5v0__mux2_2
* cell instance $746 r0 *1 1520.4,1265.04
X$746 1140 1141 160 159 42 182 gf180mcu_fd_sc_mcu9t5v0__mux2_2
* cell instance $749 m0 *1 1517.6,1254.96
X$749 1140 1141 131 128 42 129 gf180mcu_fd_sc_mcu9t5v0__mux2_2
* cell instance $751 r0 *1 1503.6,1275.12
X$751 1140 1141 196 197 42 183 gf180mcu_fd_sc_mcu9t5v0__mux2_2
* cell instance $753 m0 *1 1523.76,1285.2
X$753 1140 1141 225 199 42 223 gf180mcu_fd_sc_mcu9t5v0__mux2_2
* cell instance $766 m0 *1 1477.28,1224.72
X$766 1141 43 69 1140 46 gf180mcu_fd_sc_mcu9t5v0__xnor2_2
* cell instance $770 r0 *1 1473.36,1224.72
X$770 1140 1141 43 68 gf180mcu_fd_sc_mcu9t5v0__clkinv_2
* cell instance $772 r0 *1 1473.36,1234.8
X$772 1141 67 1140 71 70 43 gf180mcu_fd_sc_mcu9t5v0__oai21_2
* cell instance $782 r0 *1 1487.92,1254.96
X$782 1140 1141 127 132 72 45 gf180mcu_fd_sc_mcu9t5v0__mux2_2
* cell instance $798 r0 *1 1350.72,1234.8
X$798 1140 1141 87 81 59 50 gf180mcu_fd_sc_mcu9t5v0__mux2_2
* cell instance $807 m0 *1 1354.64,1275.12
X$807 1140 145 105 50 178 1141 gf180mcu_fd_sc_mcu9t5v0__addh_2
* cell instance $828 m0 *1 1316.56,1244.88
X$828 1140 1141 54 55 59 52 gf180mcu_fd_sc_mcu9t5v0__mux2_2
* cell instance $831 m0 *1 1375.36,1396.08
X$831 1140 1141 588 211 502 52 gf180mcu_fd_sc_mcu9t5v0__mux2_2
* cell instance $833 r0 *1 1337.84,1295.28
X$833 1140 237 140 261 52 1141 gf180mcu_fd_sc_mcu9t5v0__addh_2
* cell instance $854 r0 *1 1309.28,1275.12
X$854 1140 191 53 1141 gf180mcu_fd_sc_mcu9t5v0__clkbuf_20
* cell instance $858 m0 *1 1309.28,1275.12
X$858 1140 53 1141 gf180mcu_fd_sc_mcu9t5v0__clkbuf_12
* cell instance $879 m0 *1 1317.68,1234.8
X$879 1140 1141 55 57 58 56 gf180mcu_fd_sc_mcu9t5v0__mux2_2
* cell instance $884 r0 *1 1322.16,1265.04
X$884 1141 140 169 1140 57 gf180mcu_fd_sc_mcu9t5v0__xnor2_2
* cell instance $890 r0 *1 1274.56,1375.92
X$890 1140 485 58 1141 gf180mcu_fd_sc_mcu9t5v0__clkbuf_8
* cell instance $892 m0 *1 1297.52,1355.76
X$892 1140 1141 58 446 377 gf180mcu_fd_sc_mcu9t5v0__nand2_2
* cell instance $894 m0 *1 1328.88,1396.08
X$894 1141 58 586 1140 600 gf180mcu_fd_sc_mcu9t5v0__and2_2
* cell instance $896 m0 *1 1279.04,1335.6
X$896 1140 328 1141 331 399 58 gf180mcu_fd_sc_mcu9t5v0__aoi21_2
* cell instance $901 m0 *1 1277.36,1315.44
X$901 1140 1141 321 320 58 317 gf180mcu_fd_sc_mcu9t5v0__mux2_2
* cell instance $903 r0 *1 1273.44,1325.52
X$903 1141 1140 373 58 328 329 330 331 gf180mcu_fd_sc_mcu9t5v0__oai32_2
* cell instance $929 r0 *1 1336.16,1396.08
X$929 1140 1141 606 600 59 555 gf180mcu_fd_sc_mcu9t5v0__mux2_2
* cell instance $931 m0 *1 1297.52,1365.84
X$931 1141 1140 446 500 499 340 501 59 gf180mcu_fd_sc_mcu9t5v0__oai221_2
* cell instance $933 r0 *1 1289.68,1355.76
X$933 1140 499 102 1141 463 59 gf180mcu_fd_sc_mcu9t5v0__nand3_2
* cell instance $935 m0 *1 1272.88,1355.76
X$935 1140 1141 467 59 331 407 gf180mcu_fd_sc_mcu9t5v0__mux2_2
* cell instance $938 m0 *1 1285.2,1305.36
X$938 1140 265 59 1141 gf180mcu_fd_sc_mcu9t5v0__clkbuf_8
* cell instance $944 r0 *1 1275.68,1305.36
X$944 1140 1141 291 321 59 211 gf180mcu_fd_sc_mcu9t5v0__mux2_2
* cell instance $947 r0 *1 1415.68,1234.8
X$947 1140 1141 89 85 59 62 gf180mcu_fd_sc_mcu9t5v0__mux2_2
* cell instance $966 r0 *1 1373.12,1254.96
X$966 1141 144 135 1140 61 gf180mcu_fd_sc_mcu9t5v0__xnor2_2
* cell instance $970 r0 *1 1439.2,1234.8
X$970 1140 92 86 62 90 1141 gf180mcu_fd_sc_mcu9t5v0__addh_2
* cell instance $983 r0 *1 1458.24,1224.72
X$983 1140 1141 91 64 gf180mcu_fd_sc_mcu9t5v0__clkinv_2
* cell instance $985 m0 *1 1453.2,1244.88
X$985 1140 118 83 92 65 66 1141 gf180mcu_fd_sc_mcu9t5v0__aoi211_4
* cell instance $987 r0 *1 1462.72,1234.8
X$987 1140 65 1141 80 83 92 gf180mcu_fd_sc_mcu9t5v0__aoi21_2
* cell instance $992 m0 *1 1471.68,1234.8
X$992 1140 66 1141 93 69 68 gf180mcu_fd_sc_mcu9t5v0__aoi21_2
* cell instance $994 r0 *1 1470,1234.8
X$994 1140 1141 66 67 gf180mcu_fd_sc_mcu9t5v0__clkinv_2
* cell instance $996 m0 *1 1473.36,1254.96
X$996 1141 126 1140 66 123 69 gf180mcu_fd_sc_mcu9t5v0__oai21_2
* cell instance $1004 m0 *1 1478.96,1234.8
X$1004 1141 67 1140 80 78 71 gf180mcu_fd_sc_mcu9t5v0__oai21_2
* cell instance $1013 r0 *1 1480.08,1224.72
X$1013 1140 1141 69 71 gf180mcu_fd_sc_mcu9t5v0__clkinv_2
* cell instance $1025 r0 *1 1472.24,1254.96
X$1025 1140 125 1141 121 70 126 gf180mcu_fd_sc_mcu9t5v0__aoi21_2
* cell instance $1032 m0 *1 1522.08,1426.32
X$1032 1140 1141 708 713 72 712 gf180mcu_fd_sc_mcu9t5v0__mux2_2
* cell instance $1034 r0 *1 1522.64,1244.88
X$1034 1140 1141 128 99 72 98 gf180mcu_fd_sc_mcu9t5v0__mux2_2
* cell instance $1036 m0 *1 1484,1406.16
X$1036 1140 485 72 1141 gf180mcu_fd_sc_mcu9t5v0__clkbuf_8
* cell instance $1038 m0 *1 1515.92,1355.76
X$1038 1140 1141 425 462 72 432 gf180mcu_fd_sc_mcu9t5v0__mux2_2
* cell instance $1041 r0 *1 1497.44,1285.2
X$1041 1140 1141 228 229 72 203 gf180mcu_fd_sc_mcu9t5v0__mux2_2
* cell instance $1044 m0 *1 1504.16,1234.8
X$1044 1140 1141 73 77 72 76 gf180mcu_fd_sc_mcu9t5v0__mux2_2
* cell instance $1047 m0 *1 1519.84,1265.04
X$1047 1140 1141 159 163 72 162 gf180mcu_fd_sc_mcu9t5v0__mux2_2
* cell instance $1049 r0 *1 1524.88,1275.12
X$1049 1140 1141 199 200 72 204 gf180mcu_fd_sc_mcu9t5v0__mux2_2
* cell instance $1051 r0 *1 1505.84,1285.2
X$1051 1140 1141 197 227 72 202 gf180mcu_fd_sc_mcu9t5v0__mux2_2
* cell instance $1070 r0 *1 1525.44,1305.36
X$1070 1140 1141 290 74 285 286 gf180mcu_fd_sc_mcu9t5v0__mux2_2
* cell instance $1076 m0 *1 1401.68,1396.08
X$1076 1140 608 555 74 223 390 224 129 1141 gf180mcu_fd_sc_mcu9t5v0__mux4_2
* cell instance $1079 m0 *1 1475.04,1265.04
X$1079 1140 125 126 74 157 1141 gf180mcu_fd_sc_mcu9t5v0__addh_2
* cell instance $1094 r0 *1 2726.64,1224.72
X$1094 1140 75 76 1141 gf180mcu_fd_sc_mcu9t5v0__clkbuf_8
* cell instance $1101 m0 *1 1487.36,1234.8
X$1101 1141 95 78 1140 77 gf180mcu_fd_sc_mcu9t5v0__xnor2_2
* cell instance $1131 m0 *1 1464.4,1234.8
X$1131 1140 1141 92 84 gf180mcu_fd_sc_mcu9t5v0__clkinv_2
* cell instance $1146 m0 *1 1354.64,1254.96
X$1146 1141 105 173 1140 88 gf180mcu_fd_sc_mcu9t5v0__xnor2_2
* cell instance $1151 r0 *1 1449.28,1305.36
X$1151 1140 1141 90 319 gf180mcu_fd_sc_mcu9t5v0__clkinv_2
* cell instance $1153 m0 *1 1448.16,1325.52
X$1153 1140 1141 90 355 353 352 gf180mcu_fd_sc_mcu9t5v0__mux2_2
* cell instance $1159 m0 *1 1453.2,1305.36
X$1159 1140 1141 91 278 311 292 gf180mcu_fd_sc_mcu9t5v0__mux2_2
* cell instance $1171 r0 *1 1471.12,1244.88
X$1171 1141 122 1140 93 117 95 gf180mcu_fd_sc_mcu9t5v0__oai21_2
* cell instance $1173 r0 *1 1474.48,1305.36
X$1173 1141 282 281 1140 94 gf180mcu_fd_sc_mcu9t5v0__xnor2_2
* cell instance $1176 r0 *1 1481.2,1244.88
X$1176 1140 1141 126 95 gf180mcu_fd_sc_mcu9t5v0__clkinv_2
* cell instance $1185 r0 *1 2726.64,1244.88
X$1185 1140 97 98 1141 gf180mcu_fd_sc_mcu9t5v0__clkbuf_8
* cell instance $1192 m0 *1 1490.16,1254.96
X$1192 1141 115 121 1140 99 gf180mcu_fd_sc_mcu9t5v0__xnor2_2
* cell instance $1203 r0 *1 1331.12,1254.96
X$1203 1141 103 1140 104 170 102 134 gf180mcu_fd_sc_mcu9t5v0__oai31_2
* cell instance $1208 r0 *1 1290.8,1305.36
X$1208 102 1141 289 265 1140 293 gf180mcu_fd_sc_mcu9t5v0__and3_2
* cell instance $1210 m0 *1 1302.56,1375.92
X$1210 1140 1141 485 102 gf180mcu_fd_sc_mcu9t5v0__inv_3
* cell instance $1212 r0 *1 1290.8,1345.68
X$1212 102 1141 430 265 1140 436 gf180mcu_fd_sc_mcu9t5v0__and3_2
* cell instance $1214 r0 *1 1314.32,1335.6
X$1214 1141 265 1140 102 401 380 gf180mcu_fd_sc_mcu9t5v0__oai21_2
* cell instance $1217 m0 *1 1299.76,1305.36
X$1217 102 1140 239 266 1141 295 gf180mcu_fd_sc_mcu9t5v0__or3_2
* cell instance $1219 m0 *1 1330.56,1345.68
X$1219 1141 265 1140 410 439 102 gf180mcu_fd_sc_mcu9t5v0__oai21_2
* cell instance $1233 m0 *1 1352.96,1285.2
X$1233 144 1141 105 143 1140 233 gf180mcu_fd_sc_mcu9t5v0__and3_2
* cell instance $1236 m0 *1 1359.12,1285.2
X$1236 105 1141 143 146 1140 206 gf180mcu_fd_sc_mcu9t5v0__and3_2
* cell instance $1240 r0 *1 1360.8,1265.04
X$1240 1140 105 145 1141 172 gf180mcu_fd_sc_mcu9t5v0__or2_2
* cell instance $1243 r0 *1 1351.28,1275.12
X$1243 1140 177 106 143 233 206 145 1141 gf180mcu_fd_sc_mcu9t5v0__aoi221_4
* cell instance $1245 m0 *1 1358,1265.04
X$1245 1140 146 1141 173 106 144 gf180mcu_fd_sc_mcu9t5v0__aoi21_2
* cell instance $1247 m0 *1 1373.68,1265.04
X$1247 1140 175 106 149 107 150 1141 gf180mcu_fd_sc_mcu9t5v0__aoi22_4
* cell instance $1253 m0 *1 1408.96,1265.04
X$1253 1140 1141 109 166 107 gf180mcu_fd_sc_mcu9t5v0__nand2_2
* cell instance $1255 r0 *1 1438.08,1254.96
X$1255 1140 107 114 115 139 138 1141 gf180mcu_fd_sc_mcu9t5v0__oai211_4
* cell instance $1260 r0 *1 1413.44,1265.04
X$1260 155 138 108 167 152 1141 1140 gf180mcu_fd_sc_mcu9t5v0__aoi211_2
* cell instance $1262 r0 *1 1414.56,1254.96
X$1262 1140 1141 108 109 gf180mcu_fd_sc_mcu9t5v0__clkinv_2
* cell instance $1264 m0 *1 1414,1265.04
X$1264 1140 1141 110 108 152 gf180mcu_fd_sc_mcu9t5v0__nor2_2
* cell instance $1266 r0 *1 1416.8,1275.12
X$1266 1140 108 184 183 207 1141 gf180mcu_fd_sc_mcu9t5v0__addh_2
* cell instance $1271 m0 *1 1420.16,1254.96