
* cell fair_priority_arbiter
* pin priorities[5]
* pin priorities[3]
* pin priorities[7]
* pin priorities[2]
* pin priorities[4]
* pin priorities[6]
* pin priorities[1]
* pin priorities[0]
* pin PWELL
* pin NWELL
* pin grant_idx[0]
* pin grant_idx[1]
* pin rst_n
* pin grant[0]
* pin clk
* pin request[1]
* pin grant[1]
* pin valid
* pin grant[3]
* pin request[3]
* pin grant[2]
* pin request[2]
* pin request[0]
.SUBCKT fair_priority_arbiter 1 2 3 4 5 6 7 8 11 17 103 118 138 171 178 183 192
+ 199 213 232 234 235 236
* net 1 priorities[5]
* net 2 priorities[3]
* net 3 priorities[7]
* net 4 priorities[2]
* net 5 priorities[4]
* net 6 priorities[6]
* net 7 priorities[1]
* net 8 priorities[0]
* net 11 PWELL
* net 17 NWELL
* net 103 grant_idx[0]
* net 118 grant_idx[1]
* net 138 rst_n
* net 171 grant[0]
* net 178 clk
* net 183 request[1]
* net 192 grant[1]
* net 199 valid
* net 213 grant[3]
* net 232 request[3]
* net 234 grant[2]
* net 235 request[2]
* net 236 request[0]
* cell instance $2 r0 *1 18.24,1.4
X$2 1 11 17 9 BUF_X2
* cell instance $9 r0 *1 17.48,1.4
X$9 2 11 17 13 BUF_X2
* cell instance $15 r0 *1 19,1.4
X$15 3 11 17 21 BUF_X2
* cell instance $20 r0 *1 19.76,1.4
X$20 4 11 17 22 BUF_X2
* cell instance $27 r0 *1 20.9,1.4
X$27 5 11 17 23 BUF_X2
* cell instance $32 r0 *1 21.66,1.4
X$32 6 11 17 14 BUF_X2
* cell instance $38 r0 *1 23.37,1.4
X$38 7 11 17 15 BUF_X1
* cell instance $44 r0 *1 24.51,1.4
X$44 8 11 17 26 BUF_X1
* cell instance $53 r0 *1 14.06,1.4
X$53 11 9 16 41 13 12 21 10 17 AOI222_X2
* cell instance $56 m0 *1 16.72,4.2
X$56 11 21 16 27 13 20 9 12 17 AOI222_X2
* cell instance $58 r0 *1 13.49,4.2
X$58 11 21 20 49 13 16 9 10 17 AOI222_X2
* cell instance $60 m0 *1 14.06,4.2
X$60 11 10 13 28 9 20 21 12 17 AOI222_X2
* cell instance $63 r0 *1 13.49,7
X$63 39 11 17 10 CLKBUF_X3
* cell instance $70 m0 *1 18.62,7
X$70 11 14 20 30 22 16 23 10 17 AOI222_X2
* cell instance $72 r0 *1 19.95,4.2
X$72 11 23 16 38 22 12 14 10 17 AOI222_X2
* cell instance $77 r0 *1 17.29,4.2
X$77 11 10 22 37 23 20 14 12 17 AOI222_X2
* cell instance $80 m0 *1 11.97,4.2
X$80 24 11 17 12 CLKBUF_X3
* cell instance $81 m0 *1 10.07,4.2
X$81 18 29 239 17 11 24 HA_X1
* cell instance $82 m0 *1 12.92,4.2
X$82 19 11 17 16 CLKBUF_X3
* cell instance $84 m0 *1 19.38,4.2
X$84 11 14 16 35 22 20 23 12 17 AOI222_X2
* cell instance $103 r0 *1 10.83,4.2
X$103 25 29 242 17 11 19 HA_X1
* cell instance $107 r0 *1 22.61,4.2
X$107 27 11 17 32 INV_X1
* cell instance $110 r0 *1 24.7,4.2
X$110 26 11 17 33 INV_X1
* cell instance $118 m0 *1 2.47,29.4
X$118 204 11 17 199 BUF_X1
* cell instance $120 m0 *1 4.75,29.4
X$120 11 204 141 200 17 DFF_X1
* cell instance $121 m0 *1 7.98,29.4
X$121 193 141 194 202 201 11 17 OAI211_X2
* cell instance $122 m0 *1 9.69,29.4
X$122 202 194 193 17 139 11 OAI21_X1
* cell instance $133 r0 *1 7.41,29.4
X$133 201 140 11 17 219 NOR2_X1
* cell instance $134 r0 *1 7.98,29.4
X$134 184 201 11 17 228 NOR2_X1
* cell instance $138 m0 *1 12.54,29.4
X$138 164 209 206 17 193 11 OAI21_X1
* cell instance $140 m0 *1 13.3,29.4
X$140 185 195 11 17 206 NAND2_X1
* cell instance $141 m0 *1 13.87,29.4
X$141 109 153 128 11 17 195 NAND3_X1
* cell instance $145 r0 *1 12.92,29.4
X$145 163 229 210 11 209 17 AOI21_X1
* cell instance $147 m0 *1 17.1,29.4
X$147 203 190 11 17 205 NAND2_X1
* cell instance $148 m0 *1 15.77,29.4
X$148 127 117 119 11 17 203 MUX2_X1
* cell instance $149 m0 *1 17.67,29.4
X$149 203 196 11 17 198 NAND2_X1
* cell instance $155 r0 *1 18.05,29.4
X$155 119 11 17 168 INV_X1
* cell instance $158 m0 *1 20.33,29.4
X$158 155 205 197 189 17 11 202 OAI22_X2
* cell instance $161 m0 *1 22.23,29.4
X$161 180 212 222 165 140 17 11 AOI211_X2
* cell instance $168 r0 *1 21.09,29.4
X$168 11 164 175 176 197 17 NOR3_X4
* cell instance $169 r0 *1 23.75,29.4
X$169 197 189 132 11 17 212 NOR3_X1
* cell instance $183 m0 *1 3.42,32.2
X$183 218 11 17 213 BUF_X1
* cell instance $185 m0 *1 3.99,32.2
X$185 11 218 219 200 17 DFF_X1
* cell instance $190 r0 *1 6.65,32.2
X$190 172 11 17 200 CLKBUF_X3
* cell instance $193 m0 *1 8.55,32.2
X$193 11 109 214 208 207 221 17 AOI22_X4
* cell instance $195 m0 *1 12.54,32.2
X$195 108 208 11 17 210 OR2_X1
* cell instance $198 m0 *1 14.25,32.2
X$198 153 128 11 17 214 NOR2_X2
* cell instance $200 m0 *1 15.39,32.2
X$200 211 11 17 190 INV_X1
* cell instance $205 r0 *1 12.35,32.2
X$205 127 11 17 224 INV_X1
* cell instance $206 r0 *1 12.73,32.2
X$206 214 117 11 17 223 NAND2_X1
* cell instance $207 r0 *1 13.3,32.2
X$207 132 214 17 11 226 AND2_X1
* cell instance $209 r0 *1 14.25,32.2
X$209 153 11 17 221 BUF_X1
* cell instance $210 r0 *1 14.82,32.2
X$210 153 11 17 211 BUF_X1
* cell instance $212 r0 *1 15.77,32.2
X$212 117 11 17 132 CLKBUF_X3
* cell instance $213 r0 *1 16.72,32.2
X$213 11 175 127 223 215 17 AOI21_X4
* cell instance $214 m0 *1 19,32.2
X$214 208 108 176 11 17 NOR2_X4
* cell instance $215 m0 *1 17.67,32.2
X$215 109 211 168 11 17 215 NAND3_X2
* cell instance $220 r0 *1 21.47,32.2
X$220 170 231 11 17 189 NAND2_X1
* cell instance $221 r0 *1 22.04,32.2
X$221 231 170 17 11 216 AND2_X2
* cell instance $223 m0 *1 22.8,32.2
X$223 164 175 176 11 17 217 OR3_X4
* cell instance $231 r0 *1 23.37,32.2
X$231 11 222 109 217 216 17 AOI21_X4
* cell instance $232 r0 *1 25.84,32.2
X$232 217 216 109 11 17 220 NAND3_X2
* cell instance $240 m0 *1 5.89,7
X$240 25 52 237 17 11 20 HA_X1
* cell instance $243 m0 *1 11.59,7
X$243 36 43 238 17 11 31 HA_X1
* cell instance $254 r0 *1 10.83,7
X$254 18 29 243 17 11 40 HA_X1
* cell instance $255 r0 *1 12.73,7
X$255 18 11 17 36 BUF_X1
* cell instance $259 r0 *1 16.34,7
X$259 15 11 17 42 INV_X1
* cell instance $262 r0 *1 18.43,7
X$262 37 11 17 44 INV_X1
* cell instance $265 r0 *1 18.81,7
X$265 30 11 17 47 INV_X1
* cell instance $268 m0 *1 21.66,7
X$268 38 11 17 50 INV_X1
* cell instance $269 m0 *1 22.8,7
X$269 32 31 15 11 17 34 MUX2_X1
* cell instance $270 m0 *1 24.13,7
X$270 35 31 33 11 17 87 MUX2_X1
* cell instance $293 m0 *1 5.7,12.6
X$293 63 11 17 52 BUF_X1
* cell instance $295 m0 *1 6.27,12.6
X$295 25 29 241 17 11 70 HA_X1
* cell instance $296 m0 *1 8.17,12.6
X$296 70 17 53 11 BUF_X4
* cell instance $302 m0 *1 11.59,12.6
X$302 73 63 62 17 11 39 HA_X1
* cell instance $304 m0 *1 13.49,12.6
X$304 63 11 17 45 BUF_X1
* cell instance $306 r0 *1 11.59,12.6
X$306 73 11 17 18 BUF_X1
* cell instance $311 m0 *1 14.63,12.6
X$311 53 15 74 17 11 75 AND3_X1
* cell instance $313 r0 *1 14.82,12.6
X$313 74 11 17 72 BUF_X1
* cell instance $314 r0 *1 15.39,12.6
X$314 75 76 61 11 77 17 AOI21_X2
* cell instance $315 m0 *1 16.53,12.6
X$315 53 54 55 17 64 11 OAI21_X1
* cell instance $316 m0 *1 15.96,12.6
X$316 28 53 11 17 76 NOR2_X1
* cell instance $317 m0 *1 17.29,12.6
X$317 72 26 53 11 17 55 NAND3_X1
* cell instance $319 r0 *1 16.72,12.6
X$319 77 78 51 11 17 79 MUX2_X1
* cell instance $320 r0 *1 18.05,12.6
X$320 51 11 17 84 INV_X1
* cell instance $321 m0 *1 18.81,12.6
X$321 64 78 71 11 17 56 MUX2_X1
* cell instance $322 m0 *1 18.43,12.6
X$322 71 11 17 85 INV_X1
* cell instance $326 r0 *1 18.43,12.6
X$326 64 85 83 17 11 92 HA_X1
* cell instance $328 m0 *1 24.13,12.6
X$328 79 69 68 17 11 67 HA_X1
* cell instance $329 m0 *1 22.8,12.6
X$329 56 65 60 11 17 80 MUX2_X1
* cell instance $330 m0 *1 26.03,12.6
X$330 67 68 66 11 81 17 AOI21_X2
* cell instance $331 m0 *1 27.36,12.6
X$331 57 11 17 66 INV_X1
* cell instance $336 r0 *1 23.37,12.6
X$336 79 65 48 11 17 86 MUX2_X1
* cell instance $339 r0 *1 25.84,12.6
X$339 68 11 17 82 BUF_X2
* cell instance $340 r0 *1 26.6,12.6
X$340 11 177 81 82 58 17 AOI21_X4
* cell instance $351 m0 *1 6.84,23.8
X$351 140 139 141 17 11 159 AND3_X1
* cell instance $352 m0 *1 7.79,23.8
X$352 140 11 17 142 BUF_X2
* cell instance $362 r0 *1 3.99,23.8
X$362 158 11 17 171 BUF_X1
* cell instance $365 r0 *1 6.46,23.8
X$365 11 158 159 101 17 DFF_X1
* cell instance $367 m0 *1 12.54,23.8
X$367 119 160 128 11 17 161 MUX2_X1
* cell instance $368 m0 *1 11.97,23.8
X$368 143 11 17 160 BUF_X1
* cell instance $369 m0 *1 13.87,23.8
X$369 128 119 143 17 11 144 MUX2_X2
* cell instance $370 m0 *1 15.58,23.8
X$370 143 11 17 152 BUF_X1
* cell instance $372 r0 *1 12.73,23.8
X$372 145 161 117 17 11 163 MUX2_X2
* cell instance $373 r0 *1 14.44,23.8
X$373 144 11 17 146 BUF_X1
* cell instance $374 r0 *1 15.01,23.8
X$374 109 161 11 17 162 OR2_X1
* cell instance $375 r0 *1 15.77,23.8
X$375 162 132 145 17 11 149 OAI21_X2
* cell instance $377 m0 *1 16.53,23.8
X$377 145 109 11 17 130 NOR2_X1
* cell instance $378 m0 *1 17.29,23.8
X$378 132 146 121 152 131 166 11 17 OAI221_X2
* cell instance $380 m0 *1 20.14,23.8
X$380 133 11 17 147 INV_X1
* cell instance $386 r0 *1 18.43,23.8
X$386 168 98 148 11 167 17 AOI21_X1
* cell instance $387 r0 *1 19.19,23.8
X$387 154 98 148 11 169 17 AOI21_X1
* cell instance $388 r0 *1 19.95,23.8
X$388 108 11 17 154 INV_X1
* cell instance $390 m0 *1 23.37,23.8
X$390 123 134 11 17 156 NOR2_X1
* cell instance $391 m0 *1 21.66,23.8
X$391 123 134 155 149 17 11 165 OAI22_X2
* cell instance $392 m0 *1 23.94,23.8
X$392 105 157 11 17 164 NOR2_X2
* cell instance $400 r0 *1 22.23,23.8
X$400 149 155 65 11 17 NOR2_X4
* cell instance $401 r0 *1 23.94,23.8
X$401 156 163 179 11 182 17 AOI21_X1
* cell instance $402 r0 *1 24.7,23.8
X$402 105 157 163 17 170 11 OAI21_X1
* cell instance $413 m0 *1 4.37,21
X$413 29 11 17 118 BUF_X1
* cell instance $422 r0 *1 3.61,21
X$422 138 11 17 150 BUF_X1
* cell instance $424 r0 *1 4.56,21
X$424 150 11 17 129 INV_X1
* cell instance $427 r0 *1 5.89,21
X$427 129 136 139 11 95 17 AOI21_X1
* cell instance $428 m0 *1 6.27,21
X$428 107 29 11 17 136 NAND2_X1
* cell instance $431 r0 *1 6.65,21
X$431 107 129 11 17 141 NOR2_X2
* cell instance $432 m0 *1 7.41,21
X$432 172 11 17 101 CLKBUF_X3
* cell instance $434 m0 *1 8.36,21
X$434 107 104 11 17 151 NAND2_X1
* cell instance $435 m0 *1 8.93,21
X$435 101 11 17 CLKBUF_X1
* cell instance $438 m0 *1 10.45,21
X$438 119 104 53 17 207 11 NOR3_X2
* cell instance $439 m0 *1 11.78,21
X$439 11 108 128 127 119 107 17 NOR4_X4
* cell instance $440 m0 *1 15.2,21
X$440 108 120 127 11 17 74 MUX2_X1
* cell instance $441 m0 *1 16.53,21
X$441 108 117 128 11 17 126 MUX2_X1
* cell instance $442 m0 *1 17.86,21
X$442 96 125 126 17 121 11 OAI21_X1
* cell instance $443 m0 *1 18.62,21
X$443 137 133 122 11 78 17 AOI21_X2
* cell instance $444 m0 *1 19.95,21
X$444 114 124 98 11 122 17 AOI21_X2
* cell instance $445 m0 *1 21.28,21
X$445 109 135 11 17 112 NOR2_X1
* cell instance $446 m0 *1 21.85,21
X$446 114 112 11 17 123 OR2_X1
* cell instance $452 r0 *1 7.6,21
X$452 129 151 142 11 88 17 AOI21_X1
* cell instance $456 r0 *1 11.97,21
X$456 62 11 17 120 BUF_X1
* cell instance $457 r0 *1 12.54,21
X$457 62 17 143 11 BUF_X4
* cell instance $459 r0 *1 14.25,21
X$459 143 11 17 153 BUF_X1
* cell instance $461 r0 *1 15.2,21
X$461 127 110 108 11 17 145 MUX2_X1
* cell instance $462 r0 *1 16.53,21
X$462 130 11 17 131 INV_X1
* cell instance $463 r0 *1 16.91,21
X$463 146 132 131 17 137 11 OAI21_X1
* cell instance $464 r0 *1 17.67,21
X$464 146 11 17 133 BUF_X2
* cell instance $465 r0 *1 18.43,21
X$465 96 130 147 125 17 134 11 NOR4_X2
* cell instance $467 r0 *1 20.33,21
X$467 133 11 17 135 BUF_X1
* cell instance $469 r0 *1 21.09,21
X$469 147 132 122 11 17 181 OR3_X1
* cell instance $470 r0 *1 22.04,21
X$470 124 11 17 148 BUF_X1
* cell instance $491 m0 *1 1.52,18.2
X$491 25 11 17 103 BUF_X1
* cell instance $498 r0 *1 8.36,18.2
X$498 53 104 11 17 116 OR2_X1
* cell instance $499 m0 *1 8.74,18.2
X$499 25 17 104 11 BUF_X4
* cell instance $503 m0 *1 14.63,18.2
X$503 144 104 74 11 17 61 MUX2_X1
* cell instance $506 r0 *1 9.12,18.2
X$506 11 109 17 116 BUF_X8
* cell instance $509 r0 *1 12.73,18.2
X$509 104 53 117 11 17 NOR2_X4
* cell instance $512 r0 *1 15.58,18.2
X$512 120 11 17 110 BUF_X1
* cell instance $514 r0 *1 16.34,18.2
X$514 74 11 17 111 BUF_X1
* cell instance $515 r0 *1 16.91,18.2
X$515 117 111 11 17 114 NOR2_X1
* cell instance $518 m0 *1 18.05,18.2
X$518 115 83 17 11 125 AND2_X1
* cell instance $519 m0 *1 18.81,18.2
X$519 83 97 11 17 98 NAND2_X2
* cell instance $522 m0 *1 24.32,18.2
X$522 99 91 17 11 105 AND2_X2
* cell instance $523 m0 *1 25.27,18.2
X$523 100 11 17 106 INV_X1
* cell instance $529 r0 *1 19,18.2
X$529 97 11 17 115 BUF_X1
* cell instance $532 r0 *1 24.13,18.2
X$532 113 99 106 11 157 17 AOI21_X2
* cell instance $571 r0 *1 3.61,15.4
X$571 11 95 101 63 29 17 DFF_X2
* cell instance $572 r0 *1 7.22,15.4
X$572 11 88 101 73 25 17 DFF_X2
* cell instance $576 r0 *1 17.48,15.4
X$576 89 11 17 97 BUF_X2
* cell instance $577 m0 *1 17.86,15.4
X$577 77 84 89 17 11 90 HA_X1
* cell instance $580 m0 *1 19.95,15.4
X$580 92 11 17 94 INV_X1
* cell instance $581 m0 *1 20.33,15.4
X$581 89 11 17 93 INV_X1
* cell instance $584 r0 *1 18.24,15.4
X$584 90 97 94 11 96 17 AOI21_X2
* cell instance $586 r0 *1 19.76,15.4
X$586 90 11 17 102 INV_X1
* cell instance $587 r0 *1 20.14,15.4
X$587 102 92 93 17 11 124 OAI21_X4
* cell instance $590 m0 *1 24.13,15.4
X$590 87 80 91 17 11 100 HA_X1
* cell instance $597 r0 *1 24.32,15.4
X$597 34 86 99 17 11 113 HA_X1
* cell instance $616 r0 *1 7.41,35
X$616 11 233 228 200 17 DFF_X1
* cell instance $618 m0 *1 12.54,35
X$618 226 225 224 17 229 11 OAI21_X1
* cell instance $621 m0 *1 13.49,35
X$621 132 190 119 11 17 225 NOR3_X1
* cell instance $623 m0 *1 14.82,35
X$623 128 117 127 11 17 230 MUX2_X1
* cell instance $625 m0 *1 16.15,35
X$625 108 109 119 11 17 227 MUX2_X1
* cell instance $626 m0 *1 17.48,35
X$626 230 190 227 11 17 231 MUX2_X1
* cell instance $659 r0 *1 10.45,40.6
X$659 233 11 17 234 BUF_X1
* cell instance $664 r0 *1 16.72,40.6
X$664 235 17 127 11 BUF_X4
* cell instance $666 r0 *1 19.57,40.6
X$666 236 17 108 11 BUF_X4
* cell instance $693 r0 *1 16.72,37.8
X$693 232 11 17 119 CLKBUF_X3
* cell instance $704 m0 *1 7.03,26.6
X$704 178 11 17 172 CLKBUF_X3
* cell instance $706 m0 *1 17.1,26.6
X$706 132 152 108 11 17 173 NAND3_X1
* cell instance $707 m0 *1 17.86,26.6
X$707 173 167 191 169 17 11 174 OAI22_X2
* cell instance $709 m0 *1 20.33,26.6
X$709 11 177 176 175 155 17 NOR3_X4
* cell instance $710 m0 *1 22.99,26.6
X$710 177 176 175 11 17 179 OR3_X2
* cell instance $721 r0 *1 1.33,26.6
X$721 186 11 17 192 BUF_X1
* cell instance $722 r0 *1 1.9,26.6
X$722 183 11 17 128 CLKBUF_X3
* cell instance $724 r0 *1 4.37,26.6
X$724 11 186 188 200 17 DFF_X1
* cell instance $725 r0 *1 7.6,26.6
X$725 184 139 141 17 11 188 AND3_X1
* cell instance $729 r0 *1 13.3,26.6
X$729 132 190 108 11 17 185 NAND3_X1
* cell instance $732 r0 *1 16.34,26.6
X$732 152 11 17 196 BUF_X1
* cell instance $733 r0 *1 16.91,26.6
X$733 109 190 128 11 17 191 NAND3_X1
* cell instance $734 r0 *1 17.67,26.6
X$734 198 166 174 179 163 194 17 11 AOI221_X2
* cell instance $737 r0 *1 21.66,26.6
X$737 197 189 132 17 187 11 OAI21_X1
* cell instance $738 r0 *1 22.42,26.6
X$738 181 163 179 11 180 17 AOI21_X1
* cell instance $739 r0 *1 23.18,26.6
X$739 187 182 181 65 220 184 11 17 OAI221_X2
* cell instance $756 m0 *1 11.21,9.8
X$756 25 45 240 17 11 46 HA_X1
* cell instance $757 m0 *1 13.11,9.8
X$757 45 11 17 43 BUF_X1
* cell instance $764 m0 *1 15.01,9.8
X$764 49 40 42 11 17 51 MUX2_X1
* cell instance $766 m0 *1 16.34,9.8
X$766 41 46 42 11 17 48 MUX2_X1
* cell instance $768 m0 *1 18.43,9.8
X$768 47 40 26 11 17 71 MUX2_X1
* cell instance $774 r0 *1 16.34,9.8
X$774 44 61 11 17 54 NAND2_X1
* cell instance $777 m0 *1 21.66,9.8
X$777 50 46 26 11 17 60 MUX2_X1
* cell instance $785 r0 *1 24.13,9.8
X$785 60 11 17 59 INV_X1
* cell instance $786 r0 *1 24.51,9.8
X$786 48 11 17 69 INV_X1
* cell instance $789 r0 *1 25.84,9.8
X$789 56 59 58 17 11 57 HA_X1
.ENDS fair_priority_arbiter

* cell DFF_X2
* pin PWELL,VSS
* pin D
* pin CK
* pin QN
* pin Q
* pin NWELL,VDD
.SUBCKT DFF_X2 1 6 8 10 11 16
* net 1 PWELL,VSS
* net 6 D
* net 8 CK
* net 10 QN
* net 11 Q
* net 16 NWELL,VDD
* device instance $1 r0 *1 2.855,0.995 PMOS_VTL
M$1 10 9 16 16 PMOS_VTL L=0.05U W=1.26U AS=0.11025P AD=0.0882P PS=2.24U PD=1.54U
* device instance $3 r0 *1 3.235,0.995 PMOS_VTL
M$3 11 2 16 16 PMOS_VTL L=0.05U W=1.26U AS=0.0882P AD=0.11025P PS=1.54U PD=2.24U
* device instance $5 r0 *1 0.2,0.9275 PMOS_VTL
M$5 16 7 3 16 PMOS_VTL L=0.05U W=0.315U AS=0.033075P AD=0.014175P PS=0.84U
+ PD=0.455U
* device instance $6 r0 *1 0.39,1.04 PMOS_VTL
M$6 17 4 16 16 PMOS_VTL L=0.05U W=0.09U AS=0.014175P AD=0.0063P PS=0.455U
+ PD=0.23U
* device instance $7 r0 *1 0.58,1.04 PMOS_VTL
M$7 17 7 5 16 PMOS_VTL L=0.05U W=0.09U AS=0.01785P AD=0.0063P PS=0.56U PD=0.23U
* device instance $8 r0 *1 0.77,0.975 PMOS_VTL
M$8 18 3 5 16 PMOS_VTL L=0.05U W=0.42U AS=0.01785P AD=0.0294P PS=0.56U PD=0.56U
* device instance $9 r0 *1 0.96,0.975 PMOS_VTL
M$9 16 6 18 16 PMOS_VTL L=0.05U W=0.42U AS=0.0294P AD=0.025725P PS=0.56U
+ PD=0.56U
* device instance $10 r0 *1 1.15,1.0275 PMOS_VTL
M$10 4 5 16 16 PMOS_VTL L=0.05U W=0.315U AS=0.025725P AD=0.0567P PS=0.56U
+ PD=0.99U
* device instance $11 r0 *1 2.135,0.915 PMOS_VTL
M$11 20 3 9 16 PMOS_VTL L=0.05U W=0.09U AS=0.014175P AD=0.0063P PS=0.455U
+ PD=0.23U
* device instance $12 r0 *1 2.325,0.915 PMOS_VTL
M$12 20 2 16 16 PMOS_VTL L=0.05U W=0.09U AS=0.0252P AD=0.0063P PS=0.77U PD=0.23U
* device instance $13 r0 *1 1.565,1.0275 PMOS_VTL
M$13 16 8 7 16 PMOS_VTL L=0.05U W=0.315U AS=0.033075P AD=0.02205P PS=0.84U
+ PD=0.455U
* device instance $14 r0 *1 1.755,1.0275 PMOS_VTL
M$14 19 5 16 16 PMOS_VTL L=0.05U W=0.315U AS=0.02205P AD=0.02205P PS=0.455U
+ PD=0.455U
* device instance $15 r0 *1 1.945,1.0275 PMOS_VTL
M$15 9 7 19 16 PMOS_VTL L=0.05U W=0.315U AS=0.02205P AD=0.014175P PS=0.455U
+ PD=0.455U
* device instance $16 r0 *1 2.515,0.995 PMOS_VTL
M$16 2 9 16 16 PMOS_VTL L=0.05U W=0.63U AS=0.0252P AD=0.06615P PS=0.77U PD=1.47U
* device instance $17 r0 *1 2.855,0.2975 NMOS_VTL
M$17 10 9 1 1 NMOS_VTL L=0.05U W=0.83U AS=0.072625P AD=0.0581P PS=1.595U
+ PD=1.11U
* device instance $19 r0 *1 3.235,0.2975 NMOS_VTL
M$19 11 2 1 1 NMOS_VTL L=0.05U W=0.83U AS=0.0581P AD=0.072625P PS=1.11U
+ PD=1.595U
* device instance $21 r0 *1 0.39,0.31 NMOS_VTL
M$21 12 4 1 1 NMOS_VTL L=0.05U W=0.09U AS=0.0105P AD=0.0063P PS=0.35U PD=0.23U
* device instance $22 r0 *1 0.58,0.31 NMOS_VTL
M$22 12 3 5 1 NMOS_VTL L=0.05U W=0.09U AS=0.012775P AD=0.0063P PS=0.415U
+ PD=0.23U
* device instance $23 r0 *1 1.15,0.25 NMOS_VTL
M$23 4 5 1 1 NMOS_VTL L=0.05U W=0.21U AS=0.016975P AD=0.02205P PS=0.415U
+ PD=0.63U
* device instance $24 r0 *1 0.77,0.2825 NMOS_VTL
M$24 13 7 5 1 NMOS_VTL L=0.05U W=0.275U AS=0.012775P AD=0.01925P PS=0.415U
+ PD=0.415U
* device instance $25 r0 *1 0.96,0.2825 NMOS_VTL
M$25 1 6 13 1 NMOS_VTL L=0.05U W=0.275U AS=0.01925P AD=0.016975P PS=0.415U
+ PD=0.415U
* device instance $26 r0 *1 0.2,0.37 NMOS_VTL
M$26 1 7 3 1 NMOS_VTL L=0.05U W=0.21U AS=0.02205P AD=0.0105P PS=0.63U PD=0.35U
* device instance $27 r0 *1 1.565,0.35 NMOS_VTL
M$27 1 8 7 1 NMOS_VTL L=0.05U W=0.21U AS=0.02205P AD=0.0147P PS=0.63U PD=0.35U
* device instance $28 r0 *1 1.755,0.35 NMOS_VTL
M$28 14 5 1 1 NMOS_VTL L=0.05U W=0.21U AS=0.0147P AD=0.0147P PS=0.35U PD=0.35U
* device instance $29 r0 *1 1.945,0.35 NMOS_VTL
M$29 9 3 14 1 NMOS_VTL L=0.05U W=0.21U AS=0.0147P AD=0.0105P PS=0.35U PD=0.35U
* device instance $30 r0 *1 2.135,0.41 NMOS_VTL
M$30 15 7 9 1 NMOS_VTL L=0.05U W=0.09U AS=0.0105P AD=0.0063P PS=0.35U PD=0.23U
* device instance $31 r0 *1 2.325,0.41 NMOS_VTL
M$31 15 2 1 1 NMOS_VTL L=0.05U W=0.09U AS=0.017675P AD=0.0063P PS=0.555U
+ PD=0.23U
* device instance $32 r0 *1 2.515,0.2975 NMOS_VTL
M$32 2 9 1 1 NMOS_VTL L=0.05U W=0.415U AS=0.017675P AD=0.043575P PS=0.555U
+ PD=1.04U
.ENDS DFF_X2

* cell CLKBUF_X1
* pin A
* pin PWELL,VSS
* pin NWELL,VDD
.SUBCKT CLKBUF_X1 1 3 4
* net 1 A
* net 3 PWELL,VSS
* net 4 NWELL,VDD
* net 5 Z
* device instance $1 r0 *1 0.19,1.1525 PMOS_VTL
M$1 2 1 4 4 PMOS_VTL L=0.05U W=0.315U AS=0.033075P AD=0.033075P PS=0.77U
+ PD=0.84U
* device instance $2 r0 *1 0.38,0.995 PMOS_VTL
M$2 5 2 4 4 PMOS_VTL L=0.05U W=0.63U AS=0.033075P AD=0.06615P PS=0.77U PD=1.47U
* device instance $3 r0 *1 0.19,0.2075 NMOS_VTL
M$3 3 1 2 3 NMOS_VTL L=0.05U W=0.095U AS=0.009975P AD=0.01015P PS=0.4U PD=0.335U
* device instance $4 r0 *1 0.38,0.2575 NMOS_VTL
M$4 5 2 3 3 NMOS_VTL L=0.05U W=0.195U AS=0.01015P AD=0.020475P PS=0.335U PD=0.6U
.ENDS CLKBUF_X1

* cell AOI21_X2
* pin A
* pin B2
* pin B1
* pin PWELL,VSS
* pin ZN
* pin NWELL,VDD
.SUBCKT AOI21_X2 1 2 3 4 6 7
* net 1 A
* net 2 B2
* net 3 B1
* net 4 PWELL,VSS
* net 6 ZN
* net 7 NWELL,VDD
* device instance $1 r0 *1 0.21,0.995 PMOS_VTL
M$1 7 1 5 7 PMOS_VTL L=0.05U W=1.26U AS=0.11025P AD=0.0882P PS=2.24U PD=1.54U
* device instance $3 r0 *1 0.59,0.995 PMOS_VTL
M$3 6 2 5 7 PMOS_VTL L=0.05U W=1.26U AS=0.0882P AD=0.11025P PS=1.54U PD=2.24U
* device instance $4 r0 *1 0.78,0.995 PMOS_VTL
M$4 5 3 6 7 PMOS_VTL L=0.05U W=1.26U AS=0.0882P AD=0.0882P PS=1.54U PD=1.54U
* device instance $7 r0 *1 0.21,0.2975 NMOS_VTL
M$7 6 1 4 4 NMOS_VTL L=0.05U W=0.83U AS=0.072625P AD=0.0581P PS=1.595U PD=1.11U
* device instance $9 r0 *1 0.59,0.2975 NMOS_VTL
M$9 9 2 4 4 NMOS_VTL L=0.05U W=0.415U AS=0.02905P AD=0.02905P PS=0.555U
+ PD=0.555U
* device instance $10 r0 *1 0.78,0.2975 NMOS_VTL
M$10 6 3 9 4 NMOS_VTL L=0.05U W=0.415U AS=0.02905P AD=0.02905P PS=0.555U
+ PD=0.555U
* device instance $11 r0 *1 0.97,0.2975 NMOS_VTL
M$11 8 3 6 4 NMOS_VTL L=0.05U W=0.415U AS=0.02905P AD=0.02905P PS=0.555U
+ PD=0.555U
* device instance $12 r0 *1 1.16,0.2975 NMOS_VTL
M$12 4 2 8 4 NMOS_VTL L=0.05U W=0.415U AS=0.02905P AD=0.043575P PS=0.555U
+ PD=1.04U
.ENDS AOI21_X2

* cell NOR4_X4
* pin PWELL,VSS
* pin A1
* pin A2
* pin A3
* pin A4
* pin ZN
* pin NWELL,VDD
.SUBCKT NOR4_X4 1 2 3 4 5 6 10
* net 1 PWELL,VSS
* net 2 A1
* net 3 A2
* net 4 A3
* net 5 A4
* net 6 ZN
* net 10 NWELL,VDD
* device instance $1 r0 *1 1.92,0.995 PMOS_VTL
M$1 8 4 9 10 PMOS_VTL L=0.05U W=2.52U AS=0.19845P AD=0.1764P PS=3.78U PD=3.08U
* device instance $5 r0 *1 2.68,0.995 PMOS_VTL
M$5 10 5 9 10 PMOS_VTL L=0.05U W=2.52U AS=0.1764P AD=0.19845P PS=3.08U PD=3.78U
* device instance $9 r0 *1 0.17,0.995 PMOS_VTL
M$9 6 2 7 10 PMOS_VTL L=0.05U W=2.52U AS=0.19845P AD=0.1764P PS=3.78U PD=3.08U
* device instance $13 r0 *1 0.93,0.995 PMOS_VTL
M$13 8 3 7 10 PMOS_VTL L=0.05U W=2.52U AS=0.1764P AD=0.19845P PS=3.08U PD=3.78U
* device instance $17 r0 *1 1.92,0.2975 NMOS_VTL
M$17 1 4 6 1 NMOS_VTL L=0.05U W=1.66U AS=0.130725P AD=0.1162P PS=2.705U PD=2.22U
* device instance $21 r0 *1 2.68,0.2975 NMOS_VTL
M$21 1 5 6 1 NMOS_VTL L=0.05U W=1.66U AS=0.1162P AD=0.130725P PS=2.22U PD=2.705U
* device instance $25 r0 *1 0.17,0.2975 NMOS_VTL
M$25 6 2 1 1 NMOS_VTL L=0.05U W=1.66U AS=0.130725P AD=0.1162P PS=2.705U PD=2.22U
* device instance $29 r0 *1 0.93,0.2975 NMOS_VTL
M$29 6 3 1 1 NMOS_VTL L=0.05U W=1.66U AS=0.1162P AD=0.130725P PS=2.22U PD=2.705U
.ENDS NOR4_X4

* cell NAND2_X2
* pin A2
* pin A1
* pin PWELL,VSS
* pin NWELL,VDD
* pin ZN
.SUBCKT NAND2_X2 1 2 3 4 5
* net 1 A2
* net 2 A1
* net 3 PWELL,VSS
* net 4 NWELL,VDD
* net 5 ZN
* device instance $1 r0 *1 0.195,0.995 PMOS_VTL
M$1 5 1 4 4 PMOS_VTL L=0.05U W=1.26U AS=0.11025P AD=0.11025P PS=2.24U PD=2.24U
* device instance $2 r0 *1 0.385,0.995 PMOS_VTL
M$2 4 2 5 4 PMOS_VTL L=0.05U W=1.26U AS=0.0882P AD=0.0882P PS=1.54U PD=1.54U
* device instance $5 r0 *1 0.195,0.2975 NMOS_VTL
M$5 7 1 3 3 NMOS_VTL L=0.05U W=0.415U AS=0.043575P AD=0.02905P PS=1.04U
+ PD=0.555U
* device instance $6 r0 *1 0.385,0.2975 NMOS_VTL
M$6 5 2 7 3 NMOS_VTL L=0.05U W=0.415U AS=0.02905P AD=0.02905P PS=0.555U
+ PD=0.555U
* device instance $7 r0 *1 0.575,0.2975 NMOS_VTL
M$7 6 2 5 3 NMOS_VTL L=0.05U W=0.415U AS=0.02905P AD=0.02905P PS=0.555U
+ PD=0.555U
* device instance $8 r0 *1 0.765,0.2975 NMOS_VTL
M$8 3 1 6 3 NMOS_VTL L=0.05U W=0.415U AS=0.02905P AD=0.043575P PS=0.555U
+ PD=1.04U
.ENDS NAND2_X2

* cell HA_X1
* pin A
* pin B
* pin S
* pin NWELL,VDD
* pin PWELL,VSS
* pin CO
.SUBCKT HA_X1 1 2 4 5 6 9
* net 1 A
* net 2 B
* net 4 S
* net 5 NWELL,VDD
* net 6 PWELL,VSS
* net 9 CO
* device instance $1 r0 *1 0.785,1.0275 PMOS_VTL
M$1 10 2 5 5 PMOS_VTL L=0.05U W=0.315U AS=0.0338625P AD=0.02205P PS=0.775U
+ PD=0.455U
* device instance $2 r0 *1 0.975,1.0275 PMOS_VTL
M$2 7 1 10 5 PMOS_VTL L=0.05U W=0.315U AS=0.02205P AD=0.033075P PS=0.455U
+ PD=0.84U
* device instance $3 r0 *1 0.21,0.995 PMOS_VTL
M$3 4 2 3 5 PMOS_VTL L=0.05U W=0.63U AS=0.06615P AD=0.0441P PS=1.47U PD=0.77U
* device instance $4 r0 *1 0.4,0.995 PMOS_VTL
M$4 3 1 4 5 PMOS_VTL L=0.05U W=0.63U AS=0.0441P AD=0.0441P PS=0.77U PD=0.77U
* device instance $5 r0 *1 0.59,0.995 PMOS_VTL
M$5 5 7 3 5 PMOS_VTL L=0.05U W=0.63U AS=0.0441P AD=0.0338625P PS=0.77U PD=0.775U
* device instance $6 r0 *1 1.345,1.0275 PMOS_VTL
M$6 8 1 5 5 PMOS_VTL L=0.05U W=0.315U AS=0.033075P AD=0.02205P PS=0.84U
+ PD=0.455U
* device instance $7 r0 *1 1.535,1.0275 PMOS_VTL
M$7 8 2 5 5 PMOS_VTL L=0.05U W=0.315U AS=0.033075P AD=0.02205P PS=0.77U
+ PD=0.455U
* device instance $8 r0 *1 1.725,0.995 PMOS_VTL
M$8 9 8 5 5 PMOS_VTL L=0.05U W=0.63U AS=0.033075P AD=0.06615P PS=0.77U PD=1.47U
* device instance $9 r0 *1 1.345,0.195 NMOS_VTL
M$9 12 1 8 6 NMOS_VTL L=0.05U W=0.21U AS=0.02205P AD=0.0147P PS=0.63U PD=0.35U
* device instance $10 r0 *1 1.535,0.195 NMOS_VTL
M$10 6 2 12 6 NMOS_VTL L=0.05U W=0.21U AS=0.0147P AD=0.021875P PS=0.35U
+ PD=0.555U
* device instance $11 r0 *1 1.725,0.2975 NMOS_VTL
M$11 9 8 6 6 NMOS_VTL L=0.05U W=0.415U AS=0.021875P AD=0.043575P PS=0.555U
+ PD=1.04U
* device instance $12 r0 *1 0.785,0.195 NMOS_VTL
M$12 7 2 6 6 NMOS_VTL L=0.05U W=0.21U AS=0.0224P AD=0.0147P PS=0.56U PD=0.35U
* device instance $13 r0 *1 0.975,0.195 NMOS_VTL
M$13 6 1 7 6 NMOS_VTL L=0.05U W=0.21U AS=0.0147P AD=0.02205P PS=0.35U PD=0.63U
* device instance $14 r0 *1 0.21,0.2975 NMOS_VTL
M$14 11 2 6 6 NMOS_VTL L=0.05U W=0.415U AS=0.043575P AD=0.02905P PS=1.04U
+ PD=0.555U
* device instance $15 r0 *1 0.4,0.2975 NMOS_VTL
M$15 4 1 11 6 NMOS_VTL L=0.05U W=0.415U AS=0.02905P AD=0.02905P PS=0.555U
+ PD=0.555U
* device instance $16 r0 *1 0.59,0.2975 NMOS_VTL
M$16 6 7 4 6 NMOS_VTL L=0.05U W=0.415U AS=0.02905P AD=0.0224P PS=0.555U PD=0.56U
.ENDS HA_X1

* cell NOR3_X2
* pin A3
* pin A2
* pin A1
* pin NWELL,VDD
* pin ZN
* pin PWELL,VSS
.SUBCKT NOR3_X2 1 2 3 4 5 6
* net 1 A3
* net 2 A2
* net 3 A1
* net 4 NWELL,VDD
* net 5 ZN
* net 6 PWELL,VSS
* device instance $1 r0 *1 0.21,0.995 PMOS_VTL
M$1 10 1 4 4 PMOS_VTL L=0.05U W=0.63U AS=0.06615P AD=0.0441P PS=1.47U PD=0.77U
* device instance $2 r0 *1 0.4,0.995 PMOS_VTL
M$2 9 2 10 4 PMOS_VTL L=0.05U W=0.63U AS=0.0441P AD=0.0441P PS=0.77U PD=0.77U
* device instance $3 r0 *1 0.59,0.995 PMOS_VTL
M$3 5 3 9 4 PMOS_VTL L=0.05U W=0.63U AS=0.0441P AD=0.0441P PS=0.77U PD=0.77U
* device instance $4 r0 *1 0.78,0.995 PMOS_VTL
M$4 8 3 5 4 PMOS_VTL L=0.05U W=0.63U AS=0.0441P AD=0.0441P PS=0.77U PD=0.77U
* device instance $5 r0 *1 0.97,0.995 PMOS_VTL
M$5 7 2 8 4 PMOS_VTL L=0.05U W=0.63U AS=0.0441P AD=0.0441P PS=0.77U PD=0.77U
* device instance $6 r0 *1 1.16,0.995 PMOS_VTL
M$6 4 1 7 4 PMOS_VTL L=0.05U W=0.63U AS=0.0441P AD=0.06615P PS=0.77U PD=1.47U
* device instance $7 r0 *1 0.21,0.2975 NMOS_VTL
M$7 5 1 6 6 NMOS_VTL L=0.05U W=0.83U AS=0.072625P AD=0.072625P PS=1.595U
+ PD=1.595U
* device instance $8 r0 *1 0.4,0.2975 NMOS_VTL
M$8 6 2 5 6 NMOS_VTL L=0.05U W=0.83U AS=0.0581P AD=0.0581P PS=1.11U PD=1.11U
* device instance $9 r0 *1 0.59,0.2975 NMOS_VTL
M$9 5 3 6 6 NMOS_VTL L=0.05U W=0.83U AS=0.0581P AD=0.0581P PS=1.11U PD=1.11U
.ENDS NOR3_X2

* cell BUF_X8
* pin PWELL,VSS
* pin Z
* pin NWELL,VDD
* pin A
.SUBCKT BUF_X8 1 3 4 5
* net 1 PWELL,VSS
* net 3 Z
* net 4 NWELL,VDD
* net 5 A
* device instance $1 r0 *1 0.17,0.995 PMOS_VTL
M$1 2 5 4 4 PMOS_VTL L=0.05U W=2.52U AS=0.19845P AD=0.1764P PS=3.78U PD=3.08U
* device instance $5 r0 *1 0.93,0.995 PMOS_VTL
M$5 3 2 4 4 PMOS_VTL L=0.05U W=5.04U AS=0.3528P AD=0.37485P PS=6.16U PD=6.86U
* device instance $13 r0 *1 0.17,0.2975 NMOS_VTL
M$13 2 5 1 1 NMOS_VTL L=0.05U W=1.66U AS=0.130725P AD=0.1162P PS=2.705U PD=2.22U
* device instance $17 r0 *1 0.93,0.2975 NMOS_VTL
M$17 3 2 1 1 NMOS_VTL L=0.05U W=3.32U AS=0.2324P AD=0.246925P PS=4.44U PD=4.925U
.ENDS BUF_X8

* cell AOI221_X2
* pin B1
* pin B2
* pin A
* pin C2
* pin C1
* pin ZN
* pin NWELL,VDD
* pin PWELL,VSS
.SUBCKT AOI221_X2 1 2 3 4 5 6 8 9
* net 1 B1
* net 2 B2
* net 3 A
* net 4 C2
* net 5 C1
* net 6 ZN
* net 8 NWELL,VDD
* net 9 PWELL,VSS
* device instance $1 r0 *1 0.17,0.995 PMOS_VTL
M$1 7 3 10 8 PMOS_VTL L=0.05U W=1.26U AS=0.11025P AD=0.09135P PS=2.24U PD=1.55U
* device instance $2 r0 *1 0.36,0.995 PMOS_VTL
M$2 8 1 7 8 PMOS_VTL L=0.05U W=1.26U AS=0.0882P AD=0.0882P PS=1.54U PD=1.54U
* device instance $3 r0 *1 0.55,0.995 PMOS_VTL
M$3 7 2 8 8 PMOS_VTL L=0.05U W=1.26U AS=0.0882P AD=0.0882P PS=1.54U PD=1.54U
* device instance $7 r0 *1 1.32,0.995 PMOS_VTL
M$7 6 4 10 8 PMOS_VTL L=0.05U W=1.26U AS=0.09135P AD=0.11025P PS=1.55U PD=2.24U
* device instance $8 r0 *1 1.51,0.995 PMOS_VTL
M$8 10 5 6 8 PMOS_VTL L=0.05U W=1.26U AS=0.0882P AD=0.0882P PS=1.54U PD=1.54U
* device instance $11 r0 *1 0.17,0.2975 NMOS_VTL
M$11 6 3 9 9 NMOS_VTL L=0.05U W=0.83U AS=0.072625P AD=0.060175P PS=1.595U
+ PD=1.12U
* device instance $12 r0 *1 0.36,0.2975 NMOS_VTL
M$12 14 1 6 9 NMOS_VTL L=0.05U W=0.415U AS=0.02905P AD=0.02905P PS=0.555U
+ PD=0.555U
* device instance $13 r0 *1 0.55,0.2975 NMOS_VTL
M$13 9 2 14 9 NMOS_VTL L=0.05U W=0.415U AS=0.02905P AD=0.02905P PS=0.555U
+ PD=0.555U
* device instance $14 r0 *1 0.74,0.2975 NMOS_VTL
M$14 13 2 9 9 NMOS_VTL L=0.05U W=0.415U AS=0.02905P AD=0.02905P PS=0.555U
+ PD=0.555U
* device instance $15 r0 *1 0.93,0.2975 NMOS_VTL
M$15 6 1 13 9 NMOS_VTL L=0.05U W=0.415U AS=0.02905P AD=0.02905P PS=0.555U
+ PD=0.555U
* device instance $17 r0 *1 1.32,0.2975 NMOS_VTL
M$17 12 4 9 9 NMOS_VTL L=0.05U W=0.415U AS=0.031125P AD=0.02905P PS=0.565U
+ PD=0.555U
* device instance $18 r0 *1 1.51,0.2975 NMOS_VTL
M$18 6 5 12 9 NMOS_VTL L=0.05U W=0.415U AS=0.02905P AD=0.02905P PS=0.555U
+ PD=0.555U
* device instance $19 r0 *1 1.7,0.2975 NMOS_VTL
M$19 11 5 6 9 NMOS_VTL L=0.05U W=0.415U AS=0.02905P AD=0.02905P PS=0.555U
+ PD=0.555U
* device instance $20 r0 *1 1.89,0.2975 NMOS_VTL
M$20 9 4 11 9 NMOS_VTL L=0.05U W=0.415U AS=0.02905P AD=0.043575P PS=0.555U
+ PD=1.04U
.ENDS AOI221_X2

* cell NAND3_X1
* pin A3
* pin A2
* pin A1
* pin PWELL,VSS