* CDL Netlist generated by OpenROAD

*.BUSDELIMITER [

.SUBCKT configurable_param_fifo almost_empty almost_full clk
+ empty full rd_data[0] rd_data[1] rd_data[2] rd_data[3] rd_data[4]
+ rd_data[5] rd_data[6] rd_data[7] rd_en rst_n wr_data[0] wr_data[1]
+ wr_data[2] wr_data[3] wr_data[4] wr_data[5] wr_data[6] wr_data[7]
+ wr_en
X_340_ wr_ptr\[4\] rd_ptr\[4\] _152_ VDD VSS gf180mcu_fd_sc_mcu9t5v0__xnor2_2
X_341_ _330_ _325_ _328_ _322_ _153_ VDD VSS gf180mcu_fd_sc_mcu9t5v0__and4_2
X_342_ _152_ _153_ _154_ VDD VSS gf180mcu_fd_sc_mcu9t5v0__nand2_2
X_343_ _154_ net15 VDD VSS gf180mcu_fd_sc_mcu9t5v0__inv_2
X_344_ wr_ptr\[4\] rd_ptr\[4\] _155_ VDD VSS gf180mcu_fd_sc_mcu9t5v0__xor2_2
X_345_ _155_ _153_ _156_ VDD VSS gf180mcu_fd_sc_mcu9t5v0__nand2_4
X_346_ _156_ net16 VDD VSS gf180mcu_fd_sc_mcu9t5v0__clkinv_3
X_347_ net2 _154_ _157_ VDD VSS gf180mcu_fd_sc_mcu9t5v0__and2_2
X_348_ _157_ _000_ VDD VSS gf180mcu_fd_sc_mcu9t5v0__clkbuf_8
X_349_ rd_addr\[1\] _158_ VDD VSS gf180mcu_fd_sc_mcu9t5v0__buf_4
X_350_ _158_ _159_ VDD VSS gf180mcu_fd_sc_mcu9t5v0__clkbuf_8
X_351_ _159_ _317_ VDD VSS gf180mcu_fd_sc_mcu9t5v0__clkinv_2
X_352_ rd_addr\[3\] _160_ VDD VSS gf180mcu_fd_sc_mcu9t5v0__buf_4
X_353_ _160_ _323_ VDD VSS gf180mcu_fd_sc_mcu9t5v0__inv_2
X_354_ rd_addr\[2\] _161_ VDD VSS gf180mcu_fd_sc_mcu9t5v0__clkinv_2
X_355_ _161_ _326_ VDD VSS gf180mcu_fd_sc_mcu9t5v0__buf_4
X_356_ _329_ _318_ VDD VSS gf180mcu_fd_sc_mcu9t5v0__clkinv_2
X_357_ wr_addr\[0\] _002_ VDD VSS gf180mcu_fd_sc_mcu9t5v0__clkinv_2
X_358_ wr_addr\[1\] _332_ VDD VSS gf180mcu_fd_sc_mcu9t5v0__clkinv_2
X_359_ _322_ _162_ VDD VSS gf180mcu_fd_sc_mcu9t5v0__clkinv_2
X_360_ _321_ _163_ VDD VSS gf180mcu_fd_sc_mcu9t5v0__clkinv_2
X_361_ _329_ _162_ _163_ _164_ VDD VSS gf180mcu_fd_sc_mcu9t5v0__oai21_2
X_362_ _328_ _164_ _327_ _165_ VDD VSS gf180mcu_fd_sc_mcu9t5v0__aoi21_2
X_363_ _325_ _165_ _166_ VDD VSS gf180mcu_fd_sc_mcu9t5v0__xnor2_2
X_364_ _330_ _167_ VDD VSS gf180mcu_fd_sc_mcu9t5v0__clkinv_2
X_365_ _167_ _320_ _168_ VDD VSS gf180mcu_fd_sc_mcu9t5v0__nand2_2
X_366_ _325_ _328_ _319_ _169_ VDD VSS gf180mcu_fd_sc_mcu9t5v0__and3_2
X_367_ _325_ _327_ _169_ _324_ _170_ VDD VSS gf180mcu_fd_sc_mcu9t5v0__aoi211_2
X_368_ _155_ _170_ _171_ VDD VSS gf180mcu_fd_sc_mcu9t5v0__xnor2_2
X_369_ _328_ _319_ _172_ VDD VSS gf180mcu_fd_sc_mcu9t5v0__xnor2_2
X_370_ net13 _168_ _171_ _172_ _173_ VDD VSS gf180mcu_fd_sc_mcu9t5v0__oai211_2
X_371_ _166_ _173_ _154_ _004_ VDD VSS gf180mcu_fd_sc_mcu9t5v0__oai21_2
X_372_ _325_ _165_ _174_ VDD VSS gf180mcu_fd_sc_mcu9t5v0__xor2_2
X_373_ _167_ net14 _320_ _175_ VDD VSS gf180mcu_fd_sc_mcu9t5v0__aoi21_2
X_374_ _172_ _175_ _176_ VDD VSS gf180mcu_fd_sc_mcu9t5v0__or2_2
X_375_ _174_ _176_ _171_ _156_ _005_ VDD VSS gf180mcu_fd_sc_mcu9t5v0__oai211_2
X_376_ net4 _177_ VDD VSS gf180mcu_fd_sc_mcu9t5v0__buf_3
X_377_ wr_addr\[3\] _178_ VDD VSS gf180mcu_fd_sc_mcu9t5v0__clkinv_2
X_378_ wr_addr\[2\] _179_ VDD VSS gf180mcu_fd_sc_mcu9t5v0__clkinv_2
X_379_ net12 _178_ _179_ _156_ _180_ VDD VSS gf180mcu_fd_sc_mcu9t5v0__and4_2
X_380_ _333_ _180_ _181_ VDD VSS gf180mcu_fd_sc_mcu9t5v0__and2_4
X_381_ mem\[0\]\[0\] _177_ _181_ _006_ VDD VSS gf180mcu_fd_sc_mcu9t5v0__mux2_2
X_382_ net5 _182_ VDD VSS gf180mcu_fd_sc_mcu9t5v0__clkbuf_4
X_383_ mem\[0\]\[1\] _182_ _181_ _007_ VDD VSS gf180mcu_fd_sc_mcu9t5v0__mux2_2
X_384_ net6 _183_ VDD VSS gf180mcu_fd_sc_mcu9t5v0__clkbuf_4
X_385_ mem\[0\]\[2\] _183_ _181_ _008_ VDD VSS gf180mcu_fd_sc_mcu9t5v0__mux2_2
X_386_ net7 _184_ VDD VSS gf180mcu_fd_sc_mcu9t5v0__buf_4
X_387_ mem\[0\]\[3\] _184_ _181_ _009_ VDD VSS gf180mcu_fd_sc_mcu9t5v0__mux2_2
X_388_ net8 _185_ VDD VSS gf180mcu_fd_sc_mcu9t5v0__clkbuf_4
X_389_ mem\[0\]\[4\] _185_ _181_ _010_ VDD VSS gf180mcu_fd_sc_mcu9t5v0__mux2_2
X_390_ net9 _186_ VDD VSS gf180mcu_fd_sc_mcu9t5v0__buf_3
X_391_ mem\[0\]\[5\] _186_ _181_ _011_ VDD VSS gf180mcu_fd_sc_mcu9t5v0__mux2_2
X_392_ net10 _187_ VDD VSS gf180mcu_fd_sc_mcu9t5v0__clkbuf_4
X_393_ mem\[0\]\[6\] _187_ _181_ _012_ VDD VSS gf180mcu_fd_sc_mcu9t5v0__mux2_2
X_394_ net11 _188_ VDD VSS gf180mcu_fd_sc_mcu9t5v0__buf_3
X_395_ mem\[0\]\[7\] _188_ _181_ _013_ VDD VSS gf180mcu_fd_sc_mcu9t5v0__mux2_2
X_396_ net12 wr_addr\[3\] _179_ _156_ _189_ VDD VSS gf180mcu_fd_sc_mcu9t5v0__and4_2
X_397_ _334_ _189_ _190_ VDD VSS gf180mcu_fd_sc_mcu9t5v0__and2_4
X_398_ mem\[10\]\[0\] _177_ _190_ _014_ VDD VSS gf180mcu_fd_sc_mcu9t5v0__mux2_2
X_399_ mem\[10\]\[1\] _182_ _190_ _015_ VDD VSS gf180mcu_fd_sc_mcu9t5v0__mux2_2
X_400_ mem\[10\]\[2\] _183_ _190_ _016_ VDD VSS gf180mcu_fd_sc_mcu9t5v0__mux2_2
X_401_ mem\[10\]\[3\] _184_ _190_ _017_ VDD VSS gf180mcu_fd_sc_mcu9t5v0__mux2_2
X_402_ mem\[10\]\[4\] _185_ _190_ _018_ VDD VSS gf180mcu_fd_sc_mcu9t5v0__mux2_2
X_403_ mem\[10\]\[5\] _186_ _190_ _019_ VDD VSS gf180mcu_fd_sc_mcu9t5v0__mux2_2
X_404_ mem\[10\]\[6\] _187_ _190_ _020_ VDD VSS gf180mcu_fd_sc_mcu9t5v0__mux2_2
X_405_ mem\[10\]\[7\] _188_ _190_ _021_ VDD VSS gf180mcu_fd_sc_mcu9t5v0__mux2_2
X_406_ _338_ _189_ _191_ VDD VSS gf180mcu_fd_sc_mcu9t5v0__and2_4
X_407_ mem\[11\]\[0\] _177_ _191_ _022_ VDD VSS gf180mcu_fd_sc_mcu9t5v0__mux2_2
X_408_ mem\[11\]\[1\] _182_ _191_ _023_ VDD VSS gf180mcu_fd_sc_mcu9t5v0__mux2_2
X_409_ mem\[11\]\[2\] _183_ _191_ _024_ VDD VSS gf180mcu_fd_sc_mcu9t5v0__mux2_2
X_410_ mem\[11\]\[3\] _184_ _191_ _025_ VDD VSS gf180mcu_fd_sc_mcu9t5v0__mux2_2
X_411_ mem\[11\]\[4\] _185_ _191_ _026_ VDD VSS gf180mcu_fd_sc_mcu9t5v0__mux2_2
X_412_ mem\[11\]\[5\] _186_ _191_ _027_ VDD VSS gf180mcu_fd_sc_mcu9t5v0__mux2_2
X_413_ mem\[11\]\[6\] _187_ _191_ _028_ VDD VSS gf180mcu_fd_sc_mcu9t5v0__mux2_2
X_414_ mem\[11\]\[7\] _188_ _191_ _029_ VDD VSS gf180mcu_fd_sc_mcu9t5v0__mux2_2
X_415_ net12 wr_addr\[3\] wr_addr\[2\] _156_ _192_ VDD VSS
+ gf180mcu_fd_sc_mcu9t5v0__and4_2
X_416_ _333_ _192_ _193_ VDD VSS gf180mcu_fd_sc_mcu9t5v0__and2_4
X_417_ mem\[12\]\[0\] _177_ _193_ _030_ VDD VSS gf180mcu_fd_sc_mcu9t5v0__mux2_2
X_418_ mem\[12\]\[1\] _182_ _193_ _031_ VDD VSS gf180mcu_fd_sc_mcu9t5v0__mux2_2
X_419_ mem\[12\]\[2\] _183_ _193_ _032_ VDD VSS gf180mcu_fd_sc_mcu9t5v0__mux2_2
X_420_ mem\[12\]\[3\] _184_ _193_ _033_ VDD VSS gf180mcu_fd_sc_mcu9t5v0__mux2_2
X_421_ mem\[12\]\[4\] _185_ _193_ _034_ VDD VSS gf180mcu_fd_sc_mcu9t5v0__mux2_2
X_422_ mem\[12\]\[5\] _186_ _193_ _035_ VDD VSS gf180mcu_fd_sc_mcu9t5v0__mux2_2
X_423_ mem\[12\]\[6\] _187_ _193_ _036_ VDD VSS gf180mcu_fd_sc_mcu9t5v0__mux2_2
X_424_ mem\[12\]\[7\] _188_ _193_ _037_ VDD VSS gf180mcu_fd_sc_mcu9t5v0__mux2_2
X_425_ _336_ _192_ _194_ VDD VSS gf180mcu_fd_sc_mcu9t5v0__and2_4
X_426_ mem\[13\]\[0\] _177_ _194_ _038_ VDD VSS gf180mcu_fd_sc_mcu9t5v0__mux2_2
X_427_ mem\[13\]\[1\] _182_ _194_ _039_ VDD VSS gf180mcu_fd_sc_mcu9t5v0__mux2_2
X_428_ mem\[13\]\[2\] _183_ _194_ _040_ VDD VSS gf180mcu_fd_sc_mcu9t5v0__mux2_2
X_429_ mem\[13\]\[3\] _184_ _194_ _041_ VDD VSS gf180mcu_fd_sc_mcu9t5v0__mux2_2
X_430_ mem\[13\]\[4\] _185_ _194_ _042_ VDD VSS gf180mcu_fd_sc_mcu9t5v0__mux2_2
X_431_ mem\[13\]\[5\] _186_ _194_ _043_ VDD VSS gf180mcu_fd_sc_mcu9t5v0__mux2_2
X_432_ mem\[13\]\[6\] _187_ _194_ _044_ VDD VSS gf180mcu_fd_sc_mcu9t5v0__mux2_2
X_433_ mem\[13\]\[7\] _188_ _194_ _045_ VDD VSS gf180mcu_fd_sc_mcu9t5v0__mux2_2
X_434_ _334_ _192_ _195_ VDD VSS gf180mcu_fd_sc_mcu9t5v0__and2_4
X_435_ mem\[14\]\[0\] _177_ _195_ _046_ VDD VSS gf180mcu_fd_sc_mcu9t5v0__mux2_2
X_436_ mem\[14\]\[1\] _182_ _195_ _047_ VDD VSS gf180mcu_fd_sc_mcu9t5v0__mux2_2
X_437_ mem\[14\]\[2\] _183_ _195_ _048_ VDD VSS gf180mcu_fd_sc_mcu9t5v0__mux2_2
X_438_ mem\[14\]\[3\] _184_ _195_ _049_ VDD VSS gf180mcu_fd_sc_mcu9t5v0__mux2_2
X_439_ mem\[14\]\[4\] _185_ _195_ _050_ VDD VSS gf180mcu_fd_sc_mcu9t5v0__mux2_2
X_440_ mem\[14\]\[5\] _186_ _195_ _051_ VDD VSS gf180mcu_fd_sc_mcu9t5v0__mux2_2
X_441_ mem\[14\]\[6\] _187_ _195_ _052_ VDD VSS gf180mcu_fd_sc_mcu9t5v0__mux2_2
X_442_ mem\[14\]\[7\] _188_ _195_ _053_ VDD VSS gf180mcu_fd_sc_mcu9t5v0__mux2_2
X_443_ _338_ _192_ _196_ VDD VSS gf180mcu_fd_sc_mcu9t5v0__and2_2
X_444_ _196_ _197_ VDD VSS gf180mcu_fd_sc_mcu9t5v0__clkbuf_8
X_445_ mem\[15\]\[0\] _177_ _197_ _054_ VDD VSS gf180mcu_fd_sc_mcu9t5v0__mux2_2
X_446_ mem\[15\]\[1\] _182_ _197_ _055_ VDD VSS gf180mcu_fd_sc_mcu9t5v0__mux2_2
X_447_ mem\[15\]\[2\] _183_ _197_ _056_ VDD VSS gf180mcu_fd_sc_mcu9t5v0__mux2_2
X_448_ mem\[15\]\[3\] _184_ _197_ _057_ VDD VSS gf180mcu_fd_sc_mcu9t5v0__mux2_2
X_449_ mem\[15\]\[4\] _185_ _197_ _058_ VDD VSS gf180mcu_fd_sc_mcu9t5v0__mux2_2
X_450_ mem\[15\]\[5\] _186_ _197_ _059_ VDD VSS gf180mcu_fd_sc_mcu9t5v0__mux2_2
X_451_ mem\[15\]\[6\] _187_ _197_ _060_ VDD VSS gf180mcu_fd_sc_mcu9t5v0__mux2_2
X_452_ mem\[15\]\[7\] _188_ _197_ _061_ VDD VSS gf180mcu_fd_sc_mcu9t5v0__mux2_2
X_453_ _336_ _180_ _198_ VDD VSS gf180mcu_fd_sc_mcu9t5v0__and2_4
X_454_ mem\[1\]\[0\] _177_ _198_ _062_ VDD VSS gf180mcu_fd_sc_mcu9t5v0__mux2_2
X_455_ mem\[1\]\[1\] _182_ _198_ _063_ VDD VSS gf180mcu_fd_sc_mcu9t5v0__mux2_2
X_456_ mem\[1\]\[2\] _183_ _198_ _064_ VDD VSS gf180mcu_fd_sc_mcu9t5v0__mux2_2
X_457_ mem\[1\]\[3\] _184_ _198_ _065_ VDD VSS gf180mcu_fd_sc_mcu9t5v0__mux2_2
X_458_ mem\[1\]\[4\] _185_ _198_ _066_ VDD VSS gf180mcu_fd_sc_mcu9t5v0__mux2_2
X_459_ mem\[1\]\[5\] _186_ _198_ _067_ VDD VSS gf180mcu_fd_sc_mcu9t5v0__mux2_2
X_460_ mem\[1\]\[6\] _187_ _198_ _068_ VDD VSS gf180mcu_fd_sc_mcu9t5v0__mux2_2
X_461_ mem\[1\]\[7\] _188_ _198_ _069_ VDD VSS gf180mcu_fd_sc_mcu9t5v0__mux2_2
X_462_ _334_ _180_ _199_ VDD VSS gf180mcu_fd_sc_mcu9t5v0__and2_4
X_463_ mem\[2\]\[0\] _177_ _199_ _070_ VDD VSS gf180mcu_fd_sc_mcu9t5v0__mux2_2
X_464_ mem\[2\]\[1\] _182_ _199_ _071_ VDD VSS gf180mcu_fd_sc_mcu9t5v0__mux2_2
X_465_ mem\[2\]\[2\] _183_ _199_ _072_ VDD VSS gf180mcu_fd_sc_mcu9t5v0__mux2_2
X_466_ mem\[2\]\[3\] _184_ _199_ _073_ VDD VSS gf180mcu_fd_sc_mcu9t5v0__mux2_2
X_467_ mem\[2\]\[4\] _185_ _199_ _074_ VDD VSS gf180mcu_fd_sc_mcu9t5v0__mux2_2
X_468_ mem\[2\]\[5\] _186_ _199_ _075_ VDD VSS gf180mcu_fd_sc_mcu9t5v0__mux2_2
X_469_ mem\[2\]\[6\] _187_ _199_ _076_ VDD VSS gf180mcu_fd_sc_mcu9t5v0__mux2_2
X_470_ mem\[2\]\[7\] _188_ _199_ _077_ VDD VSS gf180mcu_fd_sc_mcu9t5v0__mux2_2
X_471_ _338_ _180_ _200_ VDD VSS gf180mcu_fd_sc_mcu9t5v0__and2_4
X_472_ mem\[3\]\[0\] _177_ _200_ _078_ VDD VSS gf180mcu_fd_sc_mcu9t5v0__mux2_2
X_473_ mem\[3\]\[1\] _182_ _200_ _079_ VDD VSS gf180mcu_fd_sc_mcu9t5v0__mux2_2
X_474_ mem\[3\]\[2\] _183_ _200_ _080_ VDD VSS gf180mcu_fd_sc_mcu9t5v0__mux2_2
X_475_ mem\[3\]\[3\] _184_ _200_ _081_ VDD VSS gf180mcu_fd_sc_mcu9t5v0__mux2_2
X_476_ mem\[3\]\[4\] _185_ _200_ _082_ VDD VSS gf180mcu_fd_sc_mcu9t5v0__mux2_2
X_477_ mem\[3\]\[5\] _186_ _200_ _083_ VDD VSS gf180mcu_fd_sc_mcu9t5v0__mux2_2
X_478_ mem\[3\]\[6\] _187_ _200_ _084_ VDD VSS gf180mcu_fd_sc_mcu9t5v0__mux2_2
X_479_ mem\[3\]\[7\] _188_ _200_ _085_ VDD VSS gf180mcu_fd_sc_mcu9t5v0__mux2_2
X_480_ net12 _178_ wr_addr\[2\] _156_ _201_ VDD VSS gf180mcu_fd_sc_mcu9t5v0__and4_2
X_481_ _333_ _201_ _202_ VDD VSS gf180mcu_fd_sc_mcu9t5v0__and2_4
X_482_ mem\[4\]\[0\] net4 _202_ _086_ VDD VSS gf180mcu_fd_sc_mcu9t5v0__mux2_2
X_483_ mem\[4\]\[1\] net5 _202_ _087_ VDD VSS gf180mcu_fd_sc_mcu9t5v0__mux2_2
X_484_ mem\[4\]\[2\] net6 _202_ _088_ VDD VSS gf180mcu_fd_sc_mcu9t5v0__mux2_2
X_485_ mem\[4\]\[3\] net7 _202_ _089_ VDD VSS gf180mcu_fd_sc_mcu9t5v0__mux2_2
X_486_ mem\[4\]\[4\] net8 _202_ _090_ VDD VSS gf180mcu_fd_sc_mcu9t5v0__mux2_2
X_487_ mem\[4\]\[5\] net9 _202_ _091_ VDD VSS gf180mcu_fd_sc_mcu9t5v0__mux2_2
X_488_ mem\[4\]\[6\] net10 _202_ _092_ VDD VSS gf180mcu_fd_sc_mcu9t5v0__mux2_2
X_489_ mem\[4\]\[7\] net11 _202_ _093_ VDD VSS gf180mcu_fd_sc_mcu9t5v0__mux2_2
X_490_ _336_ _201_ _203_ VDD VSS gf180mcu_fd_sc_mcu9t5v0__and2_4
X_491_ mem\[5\]\[0\] net4 _203_ _094_ VDD VSS gf180mcu_fd_sc_mcu9t5v0__mux2_2
X_492_ mem\[5\]\[1\] net5 _203_ _095_ VDD VSS gf180mcu_fd_sc_mcu9t5v0__mux2_2
X_493_ mem\[5\]\[2\] net6 _203_ _096_ VDD VSS gf180mcu_fd_sc_mcu9t5v0__mux2_2
X_494_ mem\[5\]\[3\] net7 _203_ _097_ VDD VSS gf180mcu_fd_sc_mcu9t5v0__mux2_2
X_495_ mem\[5\]\[4\] net8 _203_ _098_ VDD VSS gf180mcu_fd_sc_mcu9t5v0__mux2_2
X_496_ mem\[5\]\[5\] net9 _203_ _099_ VDD VSS gf180mcu_fd_sc_mcu9t5v0__mux2_2
X_497_ mem\[5\]\[6\] net10 _203_ _100_ VDD VSS gf180mcu_fd_sc_mcu9t5v0__mux2_2
X_498_ mem\[5\]\[7\] net11 _203_ _101_ VDD VSS gf180mcu_fd_sc_mcu9t5v0__mux2_2
X_499_ _334_ _201_ _204_ VDD VSS gf180mcu_fd_sc_mcu9t5v0__and2_4
X_500_ mem\[6\]\[0\] net4 _204_ _102_ VDD VSS gf180mcu_fd_sc_mcu9t5v0__mux2_2
X_501_ mem\[6\]\[1\] net5 _204_ _103_ VDD VSS gf180mcu_fd_sc_mcu9t5v0__mux2_2
X_502_ mem\[6\]\[2\] net6 _204_ _104_ VDD VSS gf180mcu_fd_sc_mcu9t5v0__mux2_2
X_503_ mem\[6\]\[3\] net7 _204_ _105_ VDD VSS gf180mcu_fd_sc_mcu9t5v0__mux2_2
X_504_ mem\[6\]\[4\] net8 _204_ _106_ VDD VSS gf180mcu_fd_sc_mcu9t5v0__mux2_2
X_505_ mem\[6\]\[5\] net9 _204_ _107_ VDD VSS gf180mcu_fd_sc_mcu9t5v0__mux2_2
X_506_ mem\[6\]\[6\] net10 _204_ _108_ VDD VSS gf180mcu_fd_sc_mcu9t5v0__mux2_2
X_507_ mem\[6\]\[7\] net11 _204_ _109_ VDD VSS gf180mcu_fd_sc_mcu9t5v0__mux2_2
X_508_ _338_ _201_ _205_ VDD VSS gf180mcu_fd_sc_mcu9t5v0__and2_4
X_509_ mem\[7\]\[0\] net4 _205_ _110_ VDD VSS gf180mcu_fd_sc_mcu9t5v0__mux2_2
X_510_ mem\[7\]\[1\] net5 _205_ _111_ VDD VSS gf180mcu_fd_sc_mcu9t5v0__mux2_2
X_511_ mem\[7\]\[2\] net6 _205_ _112_ VDD VSS gf180mcu_fd_sc_mcu9t5v0__mux2_2
X_512_ mem\[7\]\[3\] net7 _205_ _113_ VDD VSS gf180mcu_fd_sc_mcu9t5v0__mux2_2
X_513_ mem\[7\]\[4\] net8 _205_ _114_ VDD VSS gf180mcu_fd_sc_mcu9t5v0__mux2_2
X_514_ mem\[7\]\[5\] net9 _205_ _115_ VDD VSS gf180mcu_fd_sc_mcu9t5v0__mux2_2
X_515_ mem\[7\]\[6\] net10 _205_ _116_ VDD VSS gf180mcu_fd_sc_mcu9t5v0__mux2_2
X_516_ mem\[7\]\[7\] net11 _205_ _117_ VDD VSS gf180mcu_fd_sc_mcu9t5v0__mux2_2
X_517_ _333_ _189_ _206_ VDD VSS gf180mcu_fd_sc_mcu9t5v0__and2_4
X_518_ mem\[8\]\[0\] net4 _206_ _118_ VDD VSS gf180mcu_fd_sc_mcu9t5v0__mux2_2
X_519_ mem\[8\]\[1\] net5 _206_ _119_ VDD VSS gf180mcu_fd_sc_mcu9t5v0__mux2_2
X_520_ mem\[8\]\[2\] net6 _206_ _120_ VDD VSS gf180mcu_fd_sc_mcu9t5v0__mux2_2
X_521_ mem\[8\]\[3\] net7 _206_ _121_ VDD VSS gf180mcu_fd_sc_mcu9t5v0__mux2_2
X_522_ mem\[8\]\[4\] net8 _206_ _122_ VDD VSS gf180mcu_fd_sc_mcu9t5v0__mux2_2
X_523_ mem\[8\]\[5\] net9 _206_ _123_ VDD VSS gf180mcu_fd_sc_mcu9t5v0__mux2_2
X_524_ mem\[8\]\[6\] net10 _206_ _124_ VDD VSS gf180mcu_fd_sc_mcu9t5v0__mux2_2
X_525_ mem\[8\]\[7\] net11 _206_ _125_ VDD VSS gf180mcu_fd_sc_mcu9t5v0__mux2_2
X_526_ _336_ _189_ _207_ VDD VSS gf180mcu_fd_sc_mcu9t5v0__and2_4
X_527_ mem\[9\]\[0\] net4 _207_ _126_ VDD VSS gf180mcu_fd_sc_mcu9t5v0__mux2_2
X_528_ mem\[9\]\[1\] net5 _207_ _127_ VDD VSS gf180mcu_fd_sc_mcu9t5v0__mux2_2
X_529_ mem\[9\]\[2\] net6 _207_ _128_ VDD VSS gf180mcu_fd_sc_mcu9t5v0__mux2_2
X_530_ mem\[9\]\[3\] net7 _207_ _129_ VDD VSS gf180mcu_fd_sc_mcu9t5v0__mux2_2
X_531_ mem\[9\]\[4\] net8 _207_ _130_ VDD VSS gf180mcu_fd_sc_mcu9t5v0__mux2_2
X_532_ mem\[9\]\[5\] net9 _207_ _131_ VDD VSS gf180mcu_fd_sc_mcu9t5v0__mux2_2
X_533_ mem\[9\]\[6\] net10 _207_ _132_ VDD VSS gf180mcu_fd_sc_mcu9t5v0__mux2_2
X_534_ mem\[9\]\[7\] net11 _207_ _133_ VDD VSS gf180mcu_fd_sc_mcu9t5v0__mux2_2
X_535_ _158_ _208_ VDD VSS gf180mcu_fd_sc_mcu9t5v0__buf_8
X_536_ rd_addr\[2\] _209_ VDD VSS gf180mcu_fd_sc_mcu9t5v0__buf_4
X_537_ mem\[1\]\[0\] mem\[3\]\[0\] mem\[5\]\[0\] mem\[7\]\[0\]
+ _208_ _209_ _210_ VDD VSS gf180mcu_fd_sc_mcu9t5v0__mux4_2
X_538_ rd_addr\[0\] _211_ VDD VSS gf180mcu_fd_sc_mcu9t5v0__buf_4
X_539_ _211_ _323_ _212_ VDD VSS gf180mcu_fd_sc_mcu9t5v0__and2_4
X_540_ rd_addr\[0\] _213_ VDD VSS gf180mcu_fd_sc_mcu9t5v0__clkinv_2
X_541_ _213_ _214_ VDD VSS gf180mcu_fd_sc_mcu9t5v0__buf_4
X_542_ _214_ _323_ _215_ VDD VSS gf180mcu_fd_sc_mcu9t5v0__and2_4
X_543_ mem\[0\]\[0\] mem\[2\]\[0\] mem\[4\]\[0\] mem\[6\]\[0\]
+ _158_ rd_addr\[2\] _216_ VDD VSS gf180mcu_fd_sc_mcu9t5v0__mux4_2
X_544_ _210_ _212_ _215_ _216_ _217_ VDD VSS gf180mcu_fd_sc_mcu9t5v0__aoi22_2
X_545_ rd_addr\[2\] rd_addr\[3\] _218_ VDD VSS gf180mcu_fd_sc_mcu9t5v0__and2_2
X_546_ _218_ _219_ VDD VSS gf180mcu_fd_sc_mcu9t5v0__buf_4
X_547_ rd_addr\[0\] _219_ _220_ VDD VSS gf180mcu_fd_sc_mcu9t5v0__and2_4
X_548_ _158_ _221_ VDD VSS gf180mcu_fd_sc_mcu9t5v0__clkbuf_8
X_549_ mem\[13\]\[0\] mem\[15\]\[0\] _221_ _222_ VDD VSS gf180mcu_fd_sc_mcu9t5v0__mux2_2
X_550_ _213_ _161_ _160_ _223_ VDD VSS gf180mcu_fd_sc_mcu9t5v0__and3_4
X_551_ mem\[8\]\[0\] mem\[10\]\[0\] _221_ _224_ VDD VSS gf180mcu_fd_sc_mcu9t5v0__mux2_2
X_552_ _220_ _222_ _223_ _224_ _225_ VDD VSS gf180mcu_fd_sc_mcu9t5v0__aoi22_2
X_553_ mem\[12\]\[0\] mem\[14\]\[0\] _221_ _226_ VDD VSS gf180mcu_fd_sc_mcu9t5v0__mux2_2
X_554_ _214_ _219_ _226_ _227_ VDD VSS gf180mcu_fd_sc_mcu9t5v0__nand3_2
X_555_ mem\[9\]\[0\] mem\[11\]\[0\] _208_ _228_ VDD VSS gf180mcu_fd_sc_mcu9t5v0__mux2_2
X_556_ _211_ _326_ _160_ _228_ _229_ VDD VSS gf180mcu_fd_sc_mcu9t5v0__nand4_2
X_557_ _217_ _225_ _227_ _229_ _230_ VDD VSS gf180mcu_fd_sc_mcu9t5v0__nand4_2
X_558_ rd_data_reg\[0\] _230_ _000_ _134_ VDD VSS gf180mcu_fd_sc_mcu9t5v0__mux2_2
X_559_ mem\[1\]\[1\] mem\[3\]\[1\] mem\[5\]\[1\] mem\[7\]\[1\]
+ _208_ _209_ _231_ VDD VSS gf180mcu_fd_sc_mcu9t5v0__mux4_2
X_560_ _158_ _232_ VDD VSS gf180mcu_fd_sc_mcu9t5v0__buf_8
X_561_ mem\[0\]\[1\] mem\[2\]\[1\] mem\[4\]\[1\] mem\[6\]\[1\]
+ _232_ _209_ _233_ VDD VSS gf180mcu_fd_sc_mcu9t5v0__mux4_2
X_562_ _212_ _231_ _233_ _215_ _234_ VDD VSS gf180mcu_fd_sc_mcu9t5v0__aoi22_2
X_563_ mem\[12\]\[1\] mem\[14\]\[1\] _159_ _235_ VDD VSS gf180mcu_fd_sc_mcu9t5v0__mux2_2
X_564_ _214_ _219_ _235_ _236_ VDD VSS gf180mcu_fd_sc_mcu9t5v0__nand3_2
X_565_ _158_ _237_ VDD VSS gf180mcu_fd_sc_mcu9t5v0__clkbuf_8
X_566_ mem\[9\]\[1\] mem\[11\]\[1\] _237_ _238_ VDD VSS gf180mcu_fd_sc_mcu9t5v0__mux2_2
X_567_ _211_ _326_ _160_ _238_ _239_ VDD VSS gf180mcu_fd_sc_mcu9t5v0__nand4_2
X_568_ mem\[8\]\[1\] mem\[10\]\[1\] _221_ _240_ VDD VSS gf180mcu_fd_sc_mcu9t5v0__mux2_2
X_569_ mem\[13\]\[1\] mem\[15\]\[1\] _237_ _241_ VDD VSS gf180mcu_fd_sc_mcu9t5v0__mux2_2
X_570_ _223_ _240_ _241_ _220_ _242_ VDD VSS gf180mcu_fd_sc_mcu9t5v0__aoi22_2
X_571_ _234_ _236_ _239_ _242_ _243_ VDD VSS gf180mcu_fd_sc_mcu9t5v0__nand4_2
X_572_ rd_data_reg\[1\] _243_ _000_ _135_ VDD VSS gf180mcu_fd_sc_mcu9t5v0__mux2_2
X_573_ mem\[1\]\[2\] mem\[3\]\[2\] mem\[5\]\[2\] mem\[7\]\[2\]
+ _208_ _209_ _244_ VDD VSS gf180mcu_fd_sc_mcu9t5v0__mux4_2
X_574_ mem\[0\]\[2\] mem\[2\]\[2\] mem\[4\]\[2\] mem\[6\]\[2\]
+ _232_ rd_addr\[2\] _245_ VDD VSS gf180mcu_fd_sc_mcu9t5v0__mux4_2
X_575_ _212_ _244_ _245_ _215_ _246_ VDD VSS gf180mcu_fd_sc_mcu9t5v0__aoi22_2
X_576_ mem\[12\]\[2\] mem\[14\]\[2\] _159_ _247_ VDD VSS gf180mcu_fd_sc_mcu9t5v0__mux2_2
X_577_ _214_ _219_ _247_ _248_ VDD VSS gf180mcu_fd_sc_mcu9t5v0__nand3_2
X_578_ mem\[9\]\[2\] mem\[11\]\[2\] _237_ _249_ VDD VSS gf180mcu_fd_sc_mcu9t5v0__mux2_2
X_579_ _211_ _326_ _160_ _249_ _250_ VDD VSS gf180mcu_fd_sc_mcu9t5v0__nand4_2
X_580_ mem\[8\]\[2\] mem\[10\]\[2\] _221_ _251_ VDD VSS gf180mcu_fd_sc_mcu9t5v0__mux2_2
X_581_ mem\[13\]\[2\] mem\[15\]\[2\] _237_ _252_ VDD VSS gf180mcu_fd_sc_mcu9t5v0__mux2_2
X_582_ _223_ _251_ _252_ _220_ _253_ VDD VSS gf180mcu_fd_sc_mcu9t5v0__aoi22_2
X_583_ _246_ _248_ _250_ _253_ _254_ VDD VSS gf180mcu_fd_sc_mcu9t5v0__nand4_2
X_584_ rd_data_reg\[2\] _254_ _000_ _136_ VDD VSS gf180mcu_fd_sc_mcu9t5v0__mux2_2
X_585_ mem\[1\]\[3\] mem\[3\]\[3\] mem\[5\]\[3\] mem\[7\]\[3\]
+ _208_ _209_ _255_ VDD VSS gf180mcu_fd_sc_mcu9t5v0__mux4_2
X_586_ mem\[0\]\[3\] mem\[2\]\[3\] mem\[4\]\[3\] mem\[6\]\[3\]
+ _232_ rd_addr\[2\] _256_ VDD VSS gf180mcu_fd_sc_mcu9t5v0__mux4_2
X_587_ _212_ _255_ _256_ _215_ _257_ VDD VSS gf180mcu_fd_sc_mcu9t5v0__aoi22_2
X_588_ mem\[12\]\[3\] mem\[14\]\[3\] _159_ _258_ VDD VSS gf180mcu_fd_sc_mcu9t5v0__mux2_2
X_589_ _214_ _219_ _258_ _259_ VDD VSS gf180mcu_fd_sc_mcu9t5v0__nand3_2
X_590_ mem\[9\]\[3\] mem\[11\]\[3\] _237_ _260_ VDD VSS gf180mcu_fd_sc_mcu9t5v0__mux2_2
X_591_ _211_ _326_ _160_ _260_ _261_ VDD VSS gf180mcu_fd_sc_mcu9t5v0__nand4_2
X_592_ mem\[8\]\[3\] mem\[10\]\[3\] _221_ _262_ VDD VSS gf180mcu_fd_sc_mcu9t5v0__mux2_2
X_593_ mem\[13\]\[3\] mem\[15\]\[3\] _237_ _263_ VDD VSS gf180mcu_fd_sc_mcu9t5v0__mux2_2
X_594_ _223_ _262_ _263_ _220_ _264_ VDD VSS gf180mcu_fd_sc_mcu9t5v0__aoi22_2
X_595_ _257_ _259_ _261_ _264_ _265_ VDD VSS gf180mcu_fd_sc_mcu9t5v0__nand4_2
X_596_ rd_data_reg\[3\] _265_ _000_ _137_ VDD VSS gf180mcu_fd_sc_mcu9t5v0__mux2_2
X_597_ mem\[1\]\[4\] mem\[3\]\[4\] mem\[5\]\[4\] mem\[7\]\[4\]
+ _208_ _209_ _266_ VDD VSS gf180mcu_fd_sc_mcu9t5v0__mux4_2
X_598_ mem\[0\]\[4\] mem\[2\]\[4\] mem\[4\]\[4\] mem\[6\]\[4\]
+ _232_ rd_addr\[2\] _267_ VDD VSS gf180mcu_fd_sc_mcu9t5v0__mux4_2
X_599_ _212_ _266_ _267_ _215_ _268_ VDD VSS gf180mcu_fd_sc_mcu9t5v0__aoi22_2
X_600_ mem\[12\]\[4\] mem\[14\]\[4\] _159_ _269_ VDD VSS gf180mcu_fd_sc_mcu9t5v0__mux2_2
X_601_ _214_ _219_ _269_ _270_ VDD VSS gf180mcu_fd_sc_mcu9t5v0__nand3_2
X_602_ mem\[9\]\[4\] mem\[11\]\[4\] _237_ _271_ VDD VSS gf180mcu_fd_sc_mcu9t5v0__mux2_2
X_603_ _211_ _326_ _160_ _271_ _272_ VDD VSS gf180mcu_fd_sc_mcu9t5v0__nand4_2
X_604_ mem\[8\]\[4\] mem\[10\]\[4\] _221_ _273_ VDD VSS gf180mcu_fd_sc_mcu9t5v0__mux2_2
X_605_ mem\[13\]\[4\] mem\[15\]\[4\] _208_ _274_ VDD VSS gf180mcu_fd_sc_mcu9t5v0__mux2_2
X_606_ _223_ _273_ _274_ _220_ _275_ VDD VSS gf180mcu_fd_sc_mcu9t5v0__aoi22_2
X_607_ _268_ _270_ _272_ _275_ _276_ VDD VSS gf180mcu_fd_sc_mcu9t5v0__nand4_2
X_608_ rd_data_reg\[4\] _276_ _000_ _138_ VDD VSS gf180mcu_fd_sc_mcu9t5v0__mux2_2
X_609_ mem\[1\]\[5\] mem\[3\]\[5\] mem\[5\]\[5\] mem\[7\]\[5\]
+ _232_ _209_ _277_ VDD VSS gf180mcu_fd_sc_mcu9t5v0__mux4_2
X_610_ mem\[0\]\[5\] mem\[2\]\[5\] mem\[4\]\[5\] mem\[6\]\[5\]
+ _232_ rd_addr\[2\] _278_ VDD VSS gf180mcu_fd_sc_mcu9t5v0__mux4_2
X_611_ _212_ _277_ _278_ _215_ _279_ VDD VSS gf180mcu_fd_sc_mcu9t5v0__aoi22_2
X_612_ mem\[12\]\[5\] mem\[14\]\[5\] _159_ _280_ VDD VSS gf180mcu_fd_sc_mcu9t5v0__mux2_2
X_613_ _214_ _219_ _280_ _281_ VDD VSS gf180mcu_fd_sc_mcu9t5v0__nand3_2
X_614_ mem\[9\]\[5\] mem\[11\]\[5\] _237_ _282_ VDD VSS gf180mcu_fd_sc_mcu9t5v0__mux2_2
X_615_ _211_ _326_ _160_ _282_ _283_ VDD VSS gf180mcu_fd_sc_mcu9t5v0__nand4_2
X_616_ mem\[8\]\[5\] mem\[10\]\[5\] _221_ _284_ VDD VSS gf180mcu_fd_sc_mcu9t5v0__mux2_2
X_617_ mem\[13\]\[5\] mem\[15\]\[5\] _208_ _285_ VDD VSS gf180mcu_fd_sc_mcu9t5v0__mux2_2
X_618_ _223_ _284_ _285_ _220_ _286_ VDD VSS gf180mcu_fd_sc_mcu9t5v0__aoi22_2
X_619_ _279_ _281_ _283_ _286_ _287_ VDD VSS gf180mcu_fd_sc_mcu9t5v0__nand4_2
X_620_ rd_data_reg\[5\] _287_ _000_ _139_ VDD VSS gf180mcu_fd_sc_mcu9t5v0__mux2_2
X_621_ mem\[1\]\[6\] mem\[3\]\[6\] mem\[5\]\[6\] mem\[7\]\[6\]
+ _232_ _209_ _288_ VDD VSS gf180mcu_fd_sc_mcu9t5v0__mux4_2
X_622_ mem\[0\]\[6\] mem\[2\]\[6\] mem\[4\]\[6\] mem\[6\]\[6\]
+ _232_ rd_addr\[2\] _289_ VDD VSS gf180mcu_fd_sc_mcu9t5v0__mux4_2
X_623_ _212_ _288_ _289_ _215_ _290_ VDD VSS gf180mcu_fd_sc_mcu9t5v0__aoi22_2
X_624_ mem\[12\]\[6\] mem\[14\]\[6\] _159_ _291_ VDD VSS gf180mcu_fd_sc_mcu9t5v0__mux2_2
X_625_ _214_ _219_ _291_ _292_ VDD VSS gf180mcu_fd_sc_mcu9t5v0__nand3_2
X_626_ mem\[9\]\[6\] mem\[11\]\[6\] _237_ _293_ VDD VSS gf180mcu_fd_sc_mcu9t5v0__mux2_2
X_627_ _211_ _326_ _160_ _293_ _294_ VDD VSS gf180mcu_fd_sc_mcu9t5v0__nand4_2
X_628_ mem\[8\]\[6\] mem\[10\]\[6\] _221_ _295_ VDD VSS gf180mcu_fd_sc_mcu9t5v0__mux2_2
X_629_ mem\[13\]\[6\] mem\[15\]\[6\] _208_ _296_ VDD VSS gf180mcu_fd_sc_mcu9t5v0__mux2_2
X_630_ _223_ _295_ _296_ _220_ _297_ VDD VSS gf180mcu_fd_sc_mcu9t5v0__aoi22_2
X_631_ _290_ _292_ _294_ _297_ _298_ VDD VSS gf180mcu_fd_sc_mcu9t5v0__nand4_2
X_632_ rd_data_reg\[6\] _298_ _000_ _140_ VDD VSS gf180mcu_fd_sc_mcu9t5v0__mux2_2
X_633_ mem\[1\]\[7\] mem\[3\]\[7\] mem\[5\]\[7\] mem\[7\]\[7\]
+ _232_ _209_ _299_ VDD VSS gf180mcu_fd_sc_mcu9t5v0__mux4_2
X_634_ mem\[0\]\[7\] mem\[2\]\[7\] mem\[4\]\[7\] mem\[6\]\[7\]
+ _232_ rd_addr\[2\] _300_ VDD VSS gf180mcu_fd_sc_mcu9t5v0__mux4_2
X_635_ _212_ _299_ _300_ _215_ _301_ VDD VSS gf180mcu_fd_sc_mcu9t5v0__aoi22_4
X_636_ mem\[12\]\[7\] mem\[14\]\[7\] _159_ _302_ VDD VSS gf180mcu_fd_sc_mcu9t5v0__mux2_2
X_637_ _214_ _219_ _302_ _303_ VDD VSS gf180mcu_fd_sc_mcu9t5v0__nand3_2
X_638_ mem\[9\]\[7\] mem\[11\]\[7\] _237_ _304_ VDD VSS gf180mcu_fd_sc_mcu9t5v0__mux2_2
X_639_ _211_ _326_ _160_ _304_ _305_ VDD VSS gf180mcu_fd_sc_mcu9t5v0__nand4_2
X_640_ mem\[8\]\[7\] mem\[10\]\[7\] _221_ _306_ VDD VSS gf180mcu_fd_sc_mcu9t5v0__mux2_2
X_641_ mem\[13\]\[7\] mem\[15\]\[7\] _208_ _307_ VDD VSS gf180mcu_fd_sc_mcu9t5v0__mux2_2
X_642_ _223_ _306_ _307_ _220_ _308_ VDD VSS gf180mcu_fd_sc_mcu9t5v0__aoi22_2
X_643_ _301_ _303_ _305_ _308_ _309_ VDD VSS gf180mcu_fd_sc_mcu9t5v0__nand4_4
X_644_ rd_data_reg\[7\] _309_ _000_ _141_ VDD VSS gf180mcu_fd_sc_mcu9t5v0__mux2_2
X_645_ _214_ _157_ _142_ VDD VSS gf180mcu_fd_sc_mcu9t5v0__xnor2_2
X_646_ _159_ _001_ _000_ _143_ VDD VSS gf180mcu_fd_sc_mcu9t5v0__mux2_2
X_647_ _331_ _157_ _310_ VDD VSS gf180mcu_fd_sc_mcu9t5v0__and2_2
X_648_ _326_ _310_ _144_ VDD VSS gf180mcu_fd_sc_mcu9t5v0__xnor2_2
X_649_ _211_ _159_ _209_ _157_ _311_ VDD VSS gf180mcu_fd_sc_mcu9t5v0__and4_2
X_650_ _323_ _311_ _145_ VDD VSS gf180mcu_fd_sc_mcu9t5v0__xnor2_2
X_651_ _331_ _157_ _219_ _312_ VDD VSS gf180mcu_fd_sc_mcu9t5v0__and3_2
X_652_ rd_ptr\[4\] _312_ _146_ VDD VSS gf180mcu_fd_sc_mcu9t5v0__xor2_2
X_653_ net12 _156_ _313_ VDD VSS gf180mcu_fd_sc_mcu9t5v0__nand2_2
X_654_ wr_addr\[0\] _313_ _147_ VDD VSS gf180mcu_fd_sc_mcu9t5v0__xnor2_2
X_655_ _003_ wr_addr\[1\] _313_ _148_ VDD VSS gf180mcu_fd_sc_mcu9t5v0__mux2_2
X_656_ net12 _338_ _156_ _314_ VDD VSS gf180mcu_fd_sc_mcu9t5v0__nand3_2
X_657_ wr_addr\[2\] _314_ _149_ VDD VSS gf180mcu_fd_sc_mcu9t5v0__xnor2_2
X_658_ net12 wr_addr\[0\] _315_ VDD VSS gf180mcu_fd_sc_mcu9t5v0__and2_2
X_659_ wr_addr\[2\] wr_addr\[1\] _156_ _315_ _316_ VDD VSS
+ gf180mcu_fd_sc_mcu9t5v0__and4_2
X_660_ _178_ _316_ _150_ VDD VSS gf180mcu_fd_sc_mcu9t5v0__xnor2_2
X_661_ wr_ptr\[4\] _197_ _151_ VDD VSS gf180mcu_fd_sc_mcu9t5v0__xor2_2
X_662_ rd_data_reg\[0\] rd_valid net17 VDD VSS gf180mcu_fd_sc_mcu9t5v0__and2_4
X_663_ rd_data_reg\[1\] rd_valid net18 VDD VSS gf180mcu_fd_sc_mcu9t5v0__and2_4
X_664_ rd_data_reg\[2\] rd_valid net19 VDD VSS gf180mcu_fd_sc_mcu9t5v0__and2_2
X_665_ rd_data_reg\[3\] rd_valid net20 VDD VSS gf180mcu_fd_sc_mcu9t5v0__and2_4
X_666_ rd_data_reg\[4\] rd_valid net21 VDD VSS gf180mcu_fd_sc_mcu9t5v0__and2_4
X_667_ rd_data_reg\[5\] rd_valid net22 VDD VSS gf180mcu_fd_sc_mcu9t5v0__and2_2
X_668_ rd_data_reg\[6\] rd_valid net23 VDD VSS gf180mcu_fd_sc_mcu9t5v0__and2_2
X_669_ rd_data_reg\[7\] rd_valid net24 VDD VSS gf180mcu_fd_sc_mcu9t5v0__and2_2
X_670_ _317_ wr_addr\[1\] _318_ _319_ _320_ VDD VSS gf180mcu_fd_sc_mcu9t5v0__addf_2
X_671_ _317_ wr_addr\[1\] _321_ _322_ VDD VSS gf180mcu_fd_sc_mcu9t5v0__addh_1
X_672_ _323_ wr_addr\[3\] _324_ _325_ VDD VSS gf180mcu_fd_sc_mcu9t5v0__addh_2
X_673_ _326_ wr_addr\[2\] _327_ _328_ VDD VSS gf180mcu_fd_sc_mcu9t5v0__addh_2
X_674_ rd_addr\[0\] _002_ _329_ _330_ VDD VSS gf180mcu_fd_sc_mcu9t5v0__addh_1
X_675_ rd_addr\[0\] rd_addr\[1\] _331_ _001_ VDD VSS gf180mcu_fd_sc_mcu9t5v0__addh_1
X_676_ _002_ _332_ _333_ _003_ VDD VSS gf180mcu_fd_sc_mcu9t5v0__addh_2
X_677_ _002_ wr_addr\[1\] _334_ _335_ VDD VSS gf180mcu_fd_sc_mcu9t5v0__addh_2
X_678_ wr_addr\[0\] _332_ _336_ _337_ VDD VSS gf180mcu_fd_sc_mcu9t5v0__addh_2
X_679_ wr_addr\[0\] wr_addr\[1\] _338_ _339_ VDD VSS gf180mcu_fd_sc_mcu9t5v0__addh_2
Xalmost_empty_reg$_DFFE_PN1P_ _004_ net3 clknet_4_4_0_clk
+ net13 VDD VSS gf180mcu_fd_sc_mcu9t5v0__dffsnq_4
Xalmost_full_reg$_DFFE_PN0P_ _005_ net1 clknet_4_4_0_clk net14
+ VDD VSS gf180mcu_fd_sc_mcu9t5v0__dffrnq_2
Xmem\[0\]\[0\]$_DFFE_PP_ _006_ clknet_4_9_0_clk mem\[0\]\[0\]
+ VDD VSS gf180mcu_fd_sc_mcu9t5v0__dffq_2
Xmem\[0\]\[1\]$_DFFE_PP_ _007_ clknet_4_9_0_clk mem\[0\]\[1\]
+ VDD VSS gf180mcu_fd_sc_mcu9t5v0__dffq_2
Xmem\[0\]\[2\]$_DFFE_PP_ _008_ clknet_4_0_0_clk mem\[0\]\[2\]
+ VDD VSS gf180mcu_fd_sc_mcu9t5v0__dffq_2
Xmem\[0\]\[3\]$_DFFE_PP_ _009_ clknet_4_10_0_clk mem\[0\]\[3\]
+ VDD VSS gf180mcu_fd_sc_mcu9t5v0__dffq_2
Xmem\[0\]\[4\]$_DFFE_PP_ _010_ clknet_4_8_0_clk mem\[0\]\[4\]
+ VDD VSS gf180mcu_fd_sc_mcu9t5v0__dffq_2
Xmem\[0\]\[5\]$_DFFE_PP_ _011_ clknet_4_8_0_clk mem\[0\]\[5\]
+ VDD VSS gf180mcu_fd_sc_mcu9t5v0__dffq_2
Xmem\[0\]\[6\]$_DFFE_PP_ _012_ clknet_4_0_0_clk mem\[0\]\[6\]
+ VDD VSS gf180mcu_fd_sc_mcu9t5v0__dffq_2
Xmem\[0\]\[7\]$_DFFE_PP_ _013_ clknet_4_8_0_clk mem\[0\]\[7\]
+ VDD VSS gf180mcu_fd_sc_mcu9t5v0__dffq_2
Xmem\[10\]\[0\]$_DFFE_PP_ _014_ clknet_4_14_0_clk mem\[10\]\[0\]
+ VDD VSS gf180mcu_fd_sc_mcu9t5v0__dffq_2
Xmem\[10\]\[1\]$_DFFE_PP_ _015_ clknet_4_15_0_clk mem\[10\]\[1\]
+ VDD VSS gf180mcu_fd_sc_mcu9t5v0__dffq_2
Xmem\[10\]\[2\]$_DFFE_PP_ _016_ clknet_4_6_0_clk mem\[10\]\[2\]
+ VDD VSS gf180mcu_fd_sc_mcu9t5v0__dffq_2
Xmem\[10\]\[3\]$_DFFE_PP_ _017_ clknet_4_15_0_clk mem\[10\]\[3\]
+ VDD VSS gf180mcu_fd_sc_mcu9t5v0__dffq_2
Xmem\[10\]\[4\]$_DFFE_PP_ _018_ clknet_4_14_0_clk mem\[10\]\[4\]
+ VDD VSS gf180mcu_fd_sc_mcu9t5v0__dffq_2
Xmem\[10\]\[5\]$_DFFE_PP_ _019_ clknet_4_3_0_clk mem\[10\]\[5\]
+ VDD VSS gf180mcu_fd_sc_mcu9t5v0__dffq_2
Xmem\[10\]\[6\]$_DFFE_PP_ _020_ clknet_4_3_0_clk mem\[10\]\[6\]
+ VDD VSS gf180mcu_fd_sc_mcu9t5v0__dffq_2
Xmem\[10\]\[7\]$_DFFE_PP_ _021_ clknet_4_6_0_clk mem\[10\]\[7\]
+ VDD VSS gf180mcu_fd_sc_mcu9t5v0__dffq_2
Xmem\[11\]\[0\]$_DFFE_PP_ _022_ clknet_4_12_0_clk mem\[11\]\[0\]
+ VDD VSS gf180mcu_fd_sc_mcu9t5v0__dffq_2
Xmem\[11\]\[1\]$_DFFE_PP_ _023_ clknet_4_12_0_clk mem\[11\]\[1\]
+ VDD VSS gf180mcu_fd_sc_mcu9t5v0__dffq_2
Xmem\[11\]\[2\]$_DFFE_PP_ _024_ clknet_4_3_0_clk mem\[11\]\[2\]
+ VDD VSS gf180mcu_fd_sc_mcu9t5v0__dffq_2
Xmem\[11\]\[3\]$_DFFE_PP_ _025_ clknet_4_12_0_clk mem\[11\]\[3\]
+ VDD VSS gf180mcu_fd_sc_mcu9t5v0__dffq_2
Xmem\[11\]\[4\]$_DFFE_PP_ _026_ clknet_4_12_0_clk mem\[11\]\[4\]
+ VDD VSS gf180mcu_fd_sc_mcu9t5v0__dffq_2
Xmem\[11\]\[5\]$_DFFE_PP_ _027_ clknet_4_9_0_clk mem\[11\]\[5\]
+ VDD VSS gf180mcu_fd_sc_mcu9t5v0__dffq_2
Xmem\[11\]\[6\]$_DFFE_PP_ _028_ clknet_4_3_0_clk mem\[11\]\[6\]
+ VDD VSS gf180mcu_fd_sc_mcu9t5v0__dffq_2
Xmem\[11\]\[7\]$_DFFE_PP_ _029_ clknet_4_3_0_clk mem\[11\]\[7\]
+ VDD VSS gf180mcu_fd_sc_mcu9t5v0__dffq_2
Xmem\[12\]\[0\]$_DFFE_PP_ _030_ clknet_4_12_0_clk mem\[12\]\[0\]
+ VDD VSS gf180mcu_fd_sc_mcu9t5v0__dffq_2
Xmem\[12\]\[1\]$_DFFE_PP_ _031_ clknet_4_13_0_clk mem\[12\]\[1\]
+ VDD VSS gf180mcu_fd_sc_mcu9t5v0__dffq_2