
* cell configurable_param_fifo
* pin clk
* pin wr_en
* pin almost_full
* pin rd_en
* pin full
* pin almost_empty
* pin rd_data[2]
* pin empty
* pin rd_data[7]
* pin rd_data[5]
* pin rst_n
* pin rd_data[6]
* pin wr_data[5]
* pin wr_data[7]
* pin wr_data[6]
* pin rd_data[0]
* pin rd_data[3]
* pin rd_data[4]
* pin rd_data[1]
* pin wr_data[2]
* pin wr_data[4]
* pin wr_data[0]
* pin wr_data[1]
* pin wr_data[3]
* pin NWELL
* pin PWELL,gf180mcu_gnd
.SUBCKT configurable_param_fifo 1 2 3 4 5 6 7 8 9 10 11 12 535 536 537 538 539
+ 540 544 546 547 548 549 550 551 552
* net 1 clk
* net 2 wr_en
* net 3 almost_full
* net 4 rd_en
* net 5 full
* net 6 almost_empty
* net 7 rd_data[2]
* net 8 empty
* net 9 rd_data[7]
* net 10 rd_data[5]
* net 11 rst_n
* net 12 rd_data[6]
* net 535 wr_data[5]
* net 536 wr_data[7]
* net 537 wr_data[6]
* net 538 rd_data[0]
* net 539 rd_data[3]
* net 540 rd_data[4]
* net 544 rd_data[1]
* net 546 wr_data[2]
* net 547 wr_data[4]
* net 548 wr_data[0]
* net 549 wr_data[1]
* net 550 wr_data[3]
* net 551 NWELL
* net 552 PWELL,gf180mcu_gnd
* cell instance $3 m0 *1 1112.16,630
X$3 552 1 98 551 gf180mcu_fd_sc_mcu9t5v0__clkbuf_20
* cell instance $7 r0 *1 1089.76,5.04
X$7 552 551 2 23 gf180mcu_fd_sc_mcu9t5v0__buf_4
* cell instance $10 m0 *1 1176,15.12
X$10 14 551 552 3 gf180mcu_fd_sc_mcu9t5v0__dlyb_2
* cell instance $14 m0 *1 1187.2,15.12
X$14 4 551 552 22 gf180mcu_fd_sc_mcu9t5v0__buf_2
* cell instance $19 r0 *1 1183.84,5.04
X$19 13 551 552 5 gf180mcu_fd_sc_mcu9t5v0__dlyb_2
* cell instance $23 r0 *1 1186.08,15.12
X$23 15 551 552 6 gf180mcu_fd_sc_mcu9t5v0__dlyb_2
* cell instance $27 r0 *1 1199.52,15.12
X$27 17 551 552 7 gf180mcu_fd_sc_mcu9t5v0__dlyb_2
* cell instance $32 m0 *1 1188.88,25.2
X$32 16 551 552 8 gf180mcu_fd_sc_mcu9t5v0__dlyb_2
* cell instance $37 m0 *1 1198.4,15.12
X$37 21 551 552 9 gf180mcu_fd_sc_mcu9t5v0__dlyb_2
* cell instance $40 r0 *1 1203.44,5.04
X$40 18 551 552 10 gf180mcu_fd_sc_mcu9t5v0__dlyb_2
* cell instance $45 m0 *1 1208.48,15.12
X$45 552 20 11 551 gf180mcu_fd_sc_mcu9t5v0__dlyc_2
* cell instance $49 r0 *1 1215.2,5.04
X$49 19 551 552 12 gf180mcu_fd_sc_mcu9t5v0__dlyb_2
* cell instance $53 m0 *1 1181.6,488.88
X$53 552 551 50 13 gf180mcu_fd_sc_mcu9t5v0__clkinv_3
* cell instance $55 m0 *1 1160.32,478.8
X$55 552 35 14 26 37 551 gf180mcu_fd_sc_mcu9t5v0__dffrnq_2
* cell instance $58 m0 *1 1176,498.96
X$58 552 40 551 55 14 56 gf180mcu_fd_sc_mcu9t5v0__aoi21_2
* cell instance $62 m0 *1 1165.92,488.88
X$62 551 42 38 15 54 43 552 gf180mcu_fd_sc_mcu9t5v0__oai211_2
* cell instance $64 m0 *1 1173.76,468.72
X$64 552 15 26 27 25 551 gf180mcu_fd_sc_mcu9t5v0__dffsnq_4
* cell instance $74 m0 *1 1184.96,448.56
X$74 552 551 24 16 gf180mcu_fd_sc_mcu9t5v0__inv_2
* cell instance $77 r0 *1 1197.28,478.8
X$77 551 60 34 552 17 gf180mcu_fd_sc_mcu9t5v0__and2_2
* cell instance $80 m0 *1 1198.96,488.88
X$80 551 59 34 552 18 gf180mcu_fd_sc_mcu9t5v0__and2_2
* cell instance $83 r0 *1 1210.72,458.64
X$83 551 36 34 552 19 gf180mcu_fd_sc_mcu9t5v0__and2_2
* cell instance $87 m0 *1 1208.48,25.2
X$87 20 551 552 25 gf180mcu_fd_sc_mcu9t5v0__buf_3
* cell instance $91 r0 *1 1201.2,458.64
X$91 551 31 34 552 21 gf180mcu_fd_sc_mcu9t5v0__and2_2
* cell instance $97 m0 *1 1181.04,458.64
X$97 551 22 24 552 28 gf180mcu_fd_sc_mcu9t5v0__and2_2
* cell instance $101 r0 *1 1088.64,509.04
X$101 552 63 23 551 65 50 gf180mcu_fd_sc_mcu9t5v0__nand3_2
* cell instance $103 m0 *1 1118.32,539.28
X$103 23 83 66 50 552 551 109 gf180mcu_fd_sc_mcu9t5v0__and4_2
* cell instance $105 m0 *1 1107.68,539.28
X$105 23 83 107 50 552 551 125 gf180mcu_fd_sc_mcu9t5v0__and4_2
* cell instance $107 m0 *1 1089.76,539.28
X$107 23 82 66 50 552 551 124 gf180mcu_fd_sc_mcu9t5v0__and4_2
* cell instance $109 m0 *1 1097.6,539.28
X$109 23 82 107 50 552 551 108 gf180mcu_fd_sc_mcu9t5v0__and4_2
* cell instance $111 m0 *1 1114.4,519.12
X$111 551 23 67 552 68 gf180mcu_fd_sc_mcu9t5v0__and2_2
* cell instance $113 r0 *1 1114.4,498.96
X$113 552 551 23 45 50 gf180mcu_fd_sc_mcu9t5v0__nand2_2
* cell instance $126 r0 *1 1169.84,478.8
X$126 551 24 552 38 27 39 gf180mcu_fd_sc_mcu9t5v0__oai21_2
* cell instance $129 r0 *1 1178.24,519.12
X$129 552 551 99 24 78 gf180mcu_fd_sc_mcu9t5v0__nand2_2
* cell instance $138 m0 *1 1206.8,468.72
X$138 552 25 35 551 gf180mcu_fd_sc_mcu9t5v0__buf_8
* cell instance $144 r0 *1 1191.12,498.96
X$144 552 35 59 26 58 551 gf180mcu_fd_sc_mcu9t5v0__dffrnq_2
* cell instance $146 r0 *1 1177.68,458.64
X$146 552 35 31 26 29 551 gf180mcu_fd_sc_mcu9t5v0__dffrnq_2
* cell instance $148 r0 *1 1196.72,468.72
X$148 552 35 36 26 32 551 gf180mcu_fd_sc_mcu9t5v0__dffrnq_2
* cell instance $151 r0 *1 1187.76,488.88
X$151 552 35 60 26 57 551 gf180mcu_fd_sc_mcu9t5v0__dffrnq_2
* cell instance $155 r0 *1 1186.64,529.2
X$155 552 98 26 551 gf180mcu_fd_sc_mcu9t5v0__clkbuf_20
* cell instance $158 r0 *1 1186.64,539.28
X$158 552 26 556 551 gf180mcu_fd_sc_mcu9t5v0__clkbuf_12
* cell instance $160 r0 *1 1202.88,519.12
X$160 552 35 34 26 30 551 gf180mcu_fd_sc_mcu9t5v0__dffrnq_4
* cell instance $171 r0 *1 1173.2,569.52
X$171 551 163 28 552 155 gf180mcu_fd_sc_mcu9t5v0__xnor2_2
* cell instance $175 r0 *1 1174.32,468.72
X$175 552 28 30 551 gf180mcu_fd_sc_mcu9t5v0__clkbuf_8
* cell instance $177 m0 *1 1170.4,559.44
X$177 551 126 28 552 131 gf180mcu_fd_sc_mcu9t5v0__and2_2
* cell instance $180 m0 *1 1179.36,559.44
X$180 126 551 28 147 552 127 gf180mcu_fd_sc_mcu9t5v0__and3_2
* cell instance $183 r0 *1 1153.04,589.68
X$183 191 166 211 28 552 551 173 gf180mcu_fd_sc_mcu9t5v0__and4_2
* cell instance $190 m0 *1 1179.36,478.8
X$190 552 551 29 41 30 31 gf180mcu_fd_sc_mcu9t5v0__mux2_2
* cell instance $193 m0 *1 1198.4,468.72
X$193 552 551 32 33 30 36 gf180mcu_fd_sc_mcu9t5v0__mux2_2
* cell instance $195 r0 *1 1209.6,750.96
X$195 552 551 501 491 30 500 gf180mcu_fd_sc_mcu9t5v0__mux2_2
* cell instance $198 r0 *1 1201.2,750.96
X$198 552 551 498 442 30 499 gf180mcu_fd_sc_mcu9t5v0__mux2_2
* cell instance $201 r0 *1 1192.24,761.04
X$201 552 551 528 440 30 527 gf180mcu_fd_sc_mcu9t5v0__mux2_2
* cell instance $204 m0 *1 1171.52,630
X$204 552 551 279 256 30 166 gf180mcu_fd_sc_mcu9t5v0__mux2_2
* cell instance $207 m0 *1 1188.88,509.04
X$207 552 551 58 80 30 59 gf180mcu_fd_sc_mcu9t5v0__mux2_2
* cell instance $209 m0 *1 1188.88,498.96
X$209 552 551 57 61 30 60 gf180mcu_fd_sc_mcu9t5v0__mux2_2
* cell instance $211 r0 *1 1181.04,761.04
X$211 552 551 525 394 30 526 gf180mcu_fd_sc_mcu9t5v0__mux2_2
* cell instance $236 m0 *1 1183.28,579.6
X$236 552 33 171 169 170 551 194 gf180mcu_fd_sc_mcu9t5v0__nand4_2
* cell instance $241 r0 *1 1221.36,761.04
X$241 551 34 500 545 552 gf180mcu_fd_sc_mcu9t5v0__and2_4
* cell instance $243 m0 *1 1223.04,771.12
X$243 551 34 499 541 552 gf180mcu_fd_sc_mcu9t5v0__and2_4
* cell instance $245 r0 *1 1221.92,771.12
X$245 551 34 527 542 552 gf180mcu_fd_sc_mcu9t5v0__and2_4
* cell instance $248 r0 *1 1210.16,771.12
X$248 551 34 526 543 552 gf180mcu_fd_sc_mcu9t5v0__and2_4
* cell instance $263 r0 *1 1151.92,569.52
X$263 552 35 145 195 172 551 gf180mcu_fd_sc_mcu9t5v0__dffrnq_2
* cell instance $266 r0 *1 1156.96,559.44
X$266 552 35 132 96 155 551 gf180mcu_fd_sc_mcu9t5v0__dffrnq_2
* cell instance $269 m0 *1 1204.56,761.04
X$269 552 35 500 458 501 551 gf180mcu_fd_sc_mcu9t5v0__dffrnq_2
* cell instance $272 r0 *1 1115.52,488.88
X$272 552 35 67 44 46 551 gf180mcu_fd_sc_mcu9t5v0__dffrnq_2
* cell instance $278 r0 *1 1200.64,761.04
X$278 552 35 499 458 498 551 gf180mcu_fd_sc_mcu9t5v0__dffrnq_2
* cell instance $281 m0 *1 1200.08,771.12
X$281 552 35 527 458 528 551 gf180mcu_fd_sc_mcu9t5v0__dffrnq_2
* cell instance $283 m0 *1 1178.24,771.12
X$283 552 35 526 458 525 551 gf180mcu_fd_sc_mcu9t5v0__dffrnq_2
* cell instance $285 r0 *1 1158.08,630
X$285 552 35 280 195 279 551 gf180mcu_fd_sc_mcu9t5v0__dffrnq_2
* cell instance $288 m0 *1 1096.48,529.2
X$288 552 35 83 44 101 551 gf180mcu_fd_sc_mcu9t5v0__dffrnq_2
* cell instance $290 r0 *1 1184.4,549.36
X$290 552 35 95 96 111 551 gf180mcu_fd_sc_mcu9t5v0__dffrnq_2
* cell instance $292 r0 *1 1183.84,519.12
X$292 552 35 79 96 97 551 gf180mcu_fd_sc_mcu9t5v0__dffrnq_2
* cell instance $296 m0 *1 1094.24,509.04
X$296 552 35 66 44 64 551 gf180mcu_fd_sc_mcu9t5v0__dffrnq_2
* cell instance $299 m0 *1 1121.12,498.96
X$299 552 35 47 44 48 551 gf180mcu_fd_sc_mcu9t5v0__dffrnq_2
* cell instance $303 m0 *1 1149.12,559.44
X$303 552 35 122 96 133 551 gf180mcu_fd_sc_mcu9t5v0__dffrnq_4
* cell instance $332 r0 *1 1164.8,488.88
X$332 551 62 37 52 54 50 552 gf180mcu_fd_sc_mcu9t5v0__oai211_2
* cell instance $337 m0 *1 1166.48,498.96
X$337 551 53 51 552 39 gf180mcu_fd_sc_mcu9t5v0__xnor2_2
* cell instance $340 m0 *1 1175.44,488.88
X$340 552 551 56 42 40 gf180mcu_fd_sc_mcu9t5v0__nand2_2
* cell instance $342 r0 *1 1150.24,509.04
X$342 552 88 40 47 74 76 551 gf180mcu_fd_sc_mcu9t5v0__addf_2
* cell instance $349 r0 *1 1170.96,660.24
X$349 552 339 338 337 312 41 551 gf180mcu_fd_sc_mcu9t5v0__nand4_4
* cell instance $359 m0 *1 1162.56,509.04
X$359 551 75 76 552 43 gf180mcu_fd_sc_mcu9t5v0__xnor2_2
* cell instance $362 r0 *1 1174.32,488.88
X$362 552 43 55 551 62 gf180mcu_fd_sc_mcu9t5v0__or2_2
* cell instance $367 m0 *1 1098.16,559.44
X$367 552 98 44 551 gf180mcu_fd_sc_mcu9t5v0__clkbuf_20
* cell instance $372 r0 *1 1098.72,549.36
X$372 552 44 551 gf180mcu_fd_sc_mcu9t5v0__clkbuf_16
* cell instance $378 r0 *1 1100.4,579.6
X$378 552 183 44 206 551 gf180mcu_fd_sc_mcu9t5v0__dffq_2
* cell instance $384 m0 *1 1111.6,498.96
X$384 551 67 45 552 46 gf180mcu_fd_sc_mcu9t5v0__xnor2_2
* cell instance $386 r0 *1 1120.56,498.96
X$386 552 551 48 47 45 49 gf180mcu_fd_sc_mcu9t5v0__mux2_2
* cell instance $392 r0 *1 1110.48,509.04
X$392 552 65 561 67 47 551 gf180mcu_fd_sc_mcu9t5v0__addh_2
* cell instance $394 r0 *1 1124.48,519.12
X$394 552 86 560 70 47 551 gf180mcu_fd_sc_mcu9t5v0__addh_2
* cell instance $400 r0 *1 1112.16,519.12
X$400 66 47 50 68 552 551 102 gf180mcu_fd_sc_mcu9t5v0__and4_2
* cell instance $404 r0 *1 1120.56,519.12
X$404 552 551 47 85 gf180mcu_fd_sc_mcu9t5v0__clkinv_2
* cell instance $407 r0 *1 1146.88,519.12
X$407 87 552 551 88 47 92 gf180mcu_fd_sc_mcu9t5v0__addh_1
* cell instance $418 m0 *1 1121.12,519.12
X$418 552 69 49 70 85 551 gf180mcu_fd_sc_mcu9t5v0__addh_2
* cell instance $423 m0 *1 1174.32,519.12
X$423 551 552 78 50 94 gf180mcu_fd_sc_mcu9t5v0__nand2_4
* cell instance $445 m0 *1 1159.76,519.12
X$445 552 91 551 51 81 75 gf180mcu_fd_sc_mcu9t5v0__aoi21_2
* cell instance $447 m0 *1 1156.96,498.96
X$447 53 552 51 551 52 gf180mcu_fd_sc_mcu9t5v0__xor2_2
* cell instance $454 r0 *1 1149.12,529.2
X$454 552 103 53 89 83 551 gf180mcu_fd_sc_mcu9t5v0__addh_2
* cell instance $457 r0 *1 1157.52,519.12
X$457 91 53 93 100 103 551 552 gf180mcu_fd_sc_mcu9t5v0__aoi211_2
* cell instance $460 r0 *1 1169.28,509.04
X$460 77 53 75 92 552 551 78 gf180mcu_fd_sc_mcu9t5v0__and4_2
* cell instance $463 m0 *1 1162.56,529.2
X$463 53 551 75 76 552 93 gf180mcu_fd_sc_mcu9t5v0__and3_2
* cell instance $471 r0 *1 1167.6,519.12
X$471 551 94 100 552 54 gf180mcu_fd_sc_mcu9t5v0__xnor2_2
* cell instance $476 r0 *1 1172.08,498.96
X$476 552 551 77 56 gf180mcu_fd_sc_mcu9t5v0__clkinv_2
* cell instance $503 r0 *1 1180.48,579.6
X$503 552 61 199 164 201 551 193 gf180mcu_fd_sc_mcu9t5v0__nand4_2
* cell instance $512 m0 *1 1084.72,509.04
X$512 551 66 63 552 64 gf180mcu_fd_sc_mcu9t5v0__xnor2_2
* cell instance $521 m0 *1 1125.04,549.36
X$521 551 65 109 552 114 gf180mcu_fd_sc_mcu9t5v0__and2_2
* cell instance $524 r0 *1 1115.52,569.52
X$524 551 125 65 184 552 gf180mcu_fd_sc_mcu9t5v0__and2_4
* cell instance $526 r0 *1 1100.96,569.52
X$526 551 108 65 212 552 gf180mcu_fd_sc_mcu9t5v0__and2_4
* cell instance $528 m0 *1 1069.04,569.52
X$528 551 124 65 214 552 gf180mcu_fd_sc_mcu9t5v0__and2_4
* cell instance $537 m0 *1 1150.8,529.2
X$537 552 91 75 90 66 551 gf180mcu_fd_sc_mcu9t5v0__addh_2
* cell instance $539 r0 *1 1090.32,529.2
X$539 552 551 66 107 gf180mcu_fd_sc_mcu9t5v0__clkinv_2
* cell instance $554 m0 *1 1120,529.2
X$554 552 84 559 67 85 551 gf180mcu_fd_sc_mcu9t5v0__addh_2
* cell instance $559 m0 *1 1132.88,519.12
X$559 552 551 67 70 gf180mcu_fd_sc_mcu9t5v0__clkinv_2
* cell instance $566 r0 *1 1107.12,559.44
X$566 551 125 69 227 552 gf180mcu_fd_sc_mcu9t5v0__and2_4
* cell instance $568 r0 *1 1088.08,549.36
X$568 551 108 69 140 552 gf180mcu_fd_sc_mcu9t5v0__and2_4
* cell instance $570 m0 *1 1078.56,559.44
X$570 551 124 69 142 552 gf180mcu_fd_sc_mcu9t5v0__and2_4
* cell instance $573 r0 *1 1126.72,549.36
X$573 551 109 69 115 552 gf180mcu_fd_sc_mcu9t5v0__and2_4
* cell instance $585 m0 *1 1136.24,519.12
X$585 73 552 551 132 70 77 gf180mcu_fd_sc_mcu9t5v0__addh_1
* cell instance $590 m0 *1 1145.76,519.12
X$590 552 551 87 71 gf180mcu_fd_sc_mcu9t5v0__clkinv_2
* cell instance $592 m0 *1 1147.44,509.04
X$592 551 71 552 72 81 73 gf180mcu_fd_sc_mcu9t5v0__oai21_2
* cell instance $595 r0 *1 1160.88,529.2
X$595 552 551 92 72 gf180mcu_fd_sc_mcu9t5v0__clkinv_2
* cell instance $602 m0 *1 1156.4,519.12
X$602 552 551 73 74 gf180mcu_fd_sc_mcu9t5v0__clkinv_2
* cell instance $633 m0 *1 1183.28,519.12
X$633 551 79 95 552 99 gf180mcu_fd_sc_mcu9t5v0__xnor2_2
* cell instance $635 m0 *1 1183.84,529.2
X$635 79 552 95 551 94 gf180mcu_fd_sc_mcu9t5v0__xor2_2
* cell instance $637 m0 *1 1182.72,549.36
X$637 79 552 110 551 97 gf180mcu_fd_sc_mcu9t5v0__xor2_2
* cell instance $640 m0 *1 1179.92,630
X$640 552 80 286 262 257 551 281 gf180mcu_fd_sc_mcu9t5v0__nand4_2
* cell instance $649 r0 *1 1107.68,529.2
X$649 552 551 83 82 gf180mcu_fd_sc_mcu9t5v0__clkinv_2
* cell instance $655 r0 *1 1098.72,519.12
X$655 551 82 102 552 101 gf180mcu_fd_sc_mcu9t5v0__xnor2_2
* cell instance $670 r0 *1 1116.64,559.44
X$670 551 109 84 130 552 gf180mcu_fd_sc_mcu9t5v0__and2_4
* cell instance $672 r0 *1 1088.08,569.52
X$672 551 108 84 204 552 gf180mcu_fd_sc_mcu9t5v0__and2_4
* cell instance $674 m0 *1 1114.96,569.52
X$674 551 125 84 160 552 gf180mcu_fd_sc_mcu9t5v0__and2_4
* cell instance $676 r0 *1 1078.56,569.52
X$676 551 124 84 159 552 gf180mcu_fd_sc_mcu9t5v0__and2_4
* cell instance $688 m0 *1 1088.08,559.44
X$688 551 124 86 137 552 gf180mcu_fd_sc_mcu9t5v0__and2_4
* cell instance $690 m0 *1 1100.4,549.36
X$690 551 108 86 158 552 gf180mcu_fd_sc_mcu9t5v0__and2_4
* cell instance $693 r0 *1 1126.16,559.44
X$693 551 109 86 149 552 gf180mcu_fd_sc_mcu9t5v0__and2_4
* cell instance $695 m0 *1 1126.16,569.52
X$695 551 125 86 231 552 gf180mcu_fd_sc_mcu9t5v0__and2_4
* cell instance $703 m0 *1 1153.6,539.28
X$703 552 551 166 88 gf180mcu_fd_sc_mcu9t5v0__clkinv_2
* cell instance $707 m0 *1 1148,589.68
X$707 551 89 191 177 552 gf180mcu_fd_sc_mcu9t5v0__and2_4
* cell instance $709 r0 *1 1149.68,579.6
X$709 552 551 192 89 gf180mcu_fd_sc_mcu9t5v0__inv_2
* cell instance $712 m0 *1 1150.8,579.6
X$712 551 89 173 552 172 gf180mcu_fd_sc_mcu9t5v0__xnor2_2
* cell instance $714 r0 *1 1153.04,579.6
X$714 551 89 163 180 552 gf180mcu_fd_sc_mcu9t5v0__and2_4
* cell instance $720 m0 *1 1149.12,720.72
X$720 552 437 192 90 191 551 450 gf180mcu_fd_sc_mcu9t5v0__nand4_2
* cell instance $722 m0 *1 1159.2,710.64
X$722 552 423 192 90 191 551 426 gf180mcu_fd_sc_mcu9t5v0__nand4_2
* cell instance $724 m0 *1 1158.08,720.72
X$724 552 448 192 90 191 551 449 gf180mcu_fd_sc_mcu9t5v0__nand4_2
* cell instance $726 r0 *1 1154.72,549.36
X$726 551 90 131 552 133 gf180mcu_fd_sc_mcu9t5v0__xnor2_2
* cell instance $728 r0 *1 1156.4,619.92
X$728 552 551 255 90 gf180mcu_fd_sc_mcu9t5v0__buf_4
* cell instance $730 m0 *1 1157.52,630
X$730 552 286 192 90 191 551 265 gf180mcu_fd_sc_mcu9t5v0__nand4_2
* cell instance $732 m0 *1 1149.68,660.24
X$732 552 339 192 90 191 551 314 gf180mcu_fd_sc_mcu9t5v0__nand4_2
* cell instance $735 r0 *1 1152.48,690.48
X$735 552 402 192 90 191 551 381 gf180mcu_fd_sc_mcu9t5v0__nand4_2
* cell instance $737 r0 *1 1162.56,579.6
X$737 552 199 192 90 191 551 203 gf180mcu_fd_sc_mcu9t5v0__nand4_2
* cell instance $740 m0 *1 1157.52,589.68
X$740 552 171 192 90 191 551 205 gf180mcu_fd_sc_mcu9t5v0__nand4_2
* cell instance $773 m0 *1 1181.6,539.28
X$773 95 552 127 551 111 gf180mcu_fd_sc_mcu9t5v0__xor2_2
* cell instance $778 r0 *1 1219.68,559.44
X$778 552 152 96 153 551 gf180mcu_fd_sc_mcu9t5v0__dffq_2
* cell instance $783 r0 *1 1203.44,549.36
X$783 552 551 96 gf180mcu_fd_sc_mcu9t5v0__inv_4
* cell instance $785 r0 *1 1196.72,559.44
X$785 552 150 96 148 551 gf180mcu_fd_sc_mcu9t5v0__dffq_2
* cell instance $787 m0 *1 1204.56,559.44
X$787 552 151 96 128 551 gf180mcu_fd_sc_mcu9t5v0__dffq_2
* cell instance $789 m0 *1 1199.52,549.36
X$789 552 98 96 551 gf180mcu_fd_sc_mcu9t5v0__clkbuf_20
* cell instance $793 m0 *1 1221.36,559.44
X$793 552 113 96 129 551 gf180mcu_fd_sc_mcu9t5v0__dffq_2
* cell instance $804 m0 *1 1130.64,740.88
X$804 552 98 451 551 gf180mcu_fd_sc_mcu9t5v0__clkbuf_20
* cell instance $806 r0 *1 1137.92,710.64
X$806 552 98 353 551 gf180mcu_fd_sc_mcu9t5v0__clkbuf_20
* cell instance $811 r0 *1 1155.84,730.8
X$811 552 98 458 551 gf180mcu_fd_sc_mcu9t5v0__clkbuf_20
* cell instance $813 r0 *1 1172.64,710.64
X$813 552 98 331 551 gf180mcu_fd_sc_mcu9t5v0__clkbuf_20
* cell instance $816 m0 *1 1037.68,680.4
X$816 552 98 246 551 gf180mcu_fd_sc_mcu9t5v0__clkbuf_20
* cell instance $818 m0 *1 1088.08,589.68
X$818 552 98 182 551 gf180mcu_fd_sc_mcu9t5v0__clkbuf_20
* cell instance $821 m0 *1 1078.56,569.52
X$821 552 98 116 551 gf180mcu_fd_sc_mcu9t5v0__clkbuf_20
* cell instance $824 r0 *1 1111.04,589.68
X$824 552 98 186 551 gf180mcu_fd_sc_mcu9t5v0__clkbuf_20
* cell instance $826 m0 *1 1036,720.72
X$826 552 98 382 551 gf180mcu_fd_sc_mcu9t5v0__clkbuf_20
* cell instance $829 r0 *1 1056.16,720.72
X$829 552 98 428 551 gf180mcu_fd_sc_mcu9t5v0__clkbuf_20
* cell instance $835 r0 *1 1062.88,680.4
X$835 552 98 274 551 gf180mcu_fd_sc_mcu9t5v0__clkbuf_20
* cell instance $838 r0 *1 1182.16,589.68
X$838 552 98 195 551 gf180mcu_fd_sc_mcu9t5v0__clkbuf_20
* cell instance $840 m0 *1 1199.52,589.68
X$840 552 98 197 551 gf180mcu_fd_sc_mcu9t5v0__clkbuf_20
* cell instance $882 m0 *1 1009.12,569.52
X$882 552 156 122 104 136 157 138 139 551 gf180mcu_fd_sc_mcu9t5v0__mux4_2
* cell instance $884 r0 *1 1021.44,549.36
X$884 552 551 117 119 140 104 gf180mcu_fd_sc_mcu9t5v0__mux2_2
* cell instance $886 m0 *1 1013.04,559.44
X$886 552 104 116 117 551 gf180mcu_fd_sc_mcu9t5v0__dffq_2
* cell instance $888 r0 *1 1063.44,569.52
X$888 552 551 105 112 158 106 gf180mcu_fd_sc_mcu9t5v0__mux2_2
* cell instance $890 r0 *1 1056.16,549.36
X$890 552 106 116 105 551 gf180mcu_fd_sc_mcu9t5v0__dffq_2
* cell instance $893 r0 *1 1053.92,559.44
X$893 552 202 122 123 134 157 144 106 551 gf180mcu_fd_sc_mcu9t5v0__mux4_2
* cell instance $918 r0 *1 1215.76,599.76
X$918 552 551 222 112 110 196 gf180mcu_fd_sc_mcu9t5v0__mux2_2
* cell instance $921 m0 *1 1188.88,599.76
X$921 552 551 224 119 110 221 gf180mcu_fd_sc_mcu9t5v0__mux2_2
* cell instance $923 m0 *1 1198.4,640.08
X$923 552 551 258 249 110 259 gf180mcu_fd_sc_mcu9t5v0__mux2_2
* cell instance $925 m0 *1 1198.4,670.32
X$925 552 551 332 294 110 333 gf180mcu_fd_sc_mcu9t5v0__mux2_2
* cell instance $927 m0 *1 1212.96,730.8
X$927 552 551 463 363 110 444 gf180mcu_fd_sc_mcu9t5v0__mux2_2
* cell instance $929 r0 *1 1188.88,720.72
X$929 552 551 457 385 110 459 gf180mcu_fd_sc_mcu9t5v0__mux2_2
* cell instance $931 m0 *1 1144.08,730.8
X$931 552 551 454 350 110 455 gf180mcu_fd_sc_mcu9t5v0__mux2_2
* cell instance $933 r0 *1 1215.76,730.8
X$933 552 551 489 372 110 490 gf180mcu_fd_sc_mcu9t5v0__mux2_2
* cell instance $935 m0 *1 1134.56,549.36
X$935 552 114 110 551 gf180mcu_fd_sc_mcu9t5v0__clkbuf_8
* cell instance $950 r0 *1 1081.92,589.68
X$950 552 551 215 112 204 216 gf180mcu_fd_sc_mcu9t5v0__mux2_2
* cell instance $952 m0 *1 1060.64,569.52
X$952 552 551 121 112 140 123 gf180mcu_fd_sc_mcu9t5v0__mux2_2
* cell instance $954 m0 *1 1074.08,579.6
X$954 552 551 143 112 gf180mcu_fd_sc_mcu9t5v0__clkbuf_4
* cell instance $957 m0 *1 1088.64,599.76
X$957 552 551 217 112 212 218 gf180mcu_fd_sc_mcu9t5v0__mux2_2
* cell instance $960 r0 *1 1224.16,599.76
X$960 552 551 240 112 130 223 gf180mcu_fd_sc_mcu9t5v0__mux2_2
* cell instance $963 m0 *1 1122.8,589.68
X$963 552 551 185 112 184 187 gf180mcu_fd_sc_mcu9t5v0__mux2_2
* cell instance $965 m0 *1 1223.04,569.52
X$965 552 551 153 112 115 152 gf180mcu_fd_sc_mcu9t5v0__mux2_2
* cell instance $967 m0 *1 1168.16,599.76
X$967 552 551 219 112 231 220 gf180mcu_fd_sc_mcu9t5v0__mux2_2
* cell instance $970 r0 *1 1223.6,549.36
X$970 552 551 129 112 149 113 gf180mcu_fd_sc_mcu9t5v0__mux2_2
* cell instance $986 r0 *1 1225.28,569.52
X$986 552 551 167 113 166 152 gf180mcu_fd_sc_mcu9t5v0__mux2_2
* cell instance $996 m0 *1 1223.04,619.92
X$996 552 551 261 249 115 260 gf180mcu_fd_sc_mcu9t5v0__mux2_2
* cell instance $998 m0 *1 1210.72,569.52
X$998 552 551 128 119 115 151 gf180mcu_fd_sc_mcu9t5v0__mux2_2
* cell instance $1002 r0 *1 1240.96,690.48
X$1002 552 551 375 372 115 374 gf180mcu_fd_sc_mcu9t5v0__mux2_2
* cell instance $1004 m0 *1 1147.44,680.4
X$1004 552 551 355 350 115 356 gf180mcu_fd_sc_mcu9t5v0__mux2_2
* cell instance $1006 r0 *1 1221.36,690.48
X$1006 552 551 396 363 115 419 gf180mcu_fd_sc_mcu9t5v0__mux2_2
* cell instance $1008 m0 *1 1215.2,650.16
X$1008 552 551 308 294 115 307 gf180mcu_fd_sc_mcu9t5v0__mux2_2
* cell instance $1011 m0 *1 1179.36,700.56
X$1011 552 551 393 385 115 369 gf180mcu_fd_sc_mcu9t5v0__mux2_2
* cell instance $1026 r0 *1 991.76,559.44
X$1026 552 138 116 154 551 gf180mcu_fd_sc_mcu9t5v0__dffq_2
* cell instance $1030 m0 *1 1033.2,559.44
X$1030 552 134 116 120 551 gf180mcu_fd_sc_mcu9t5v0__dffq_2
* cell instance $1032 r0 *1 1037.12,559.44
X$1032 552 144 116 141 551 gf180mcu_fd_sc_mcu9t5v0__dffq_2
* cell instance $1035 r0 *1 988.96,569.52
X$1035 552 136 116 174 551 gf180mcu_fd_sc_mcu9t5v0__dffq_2
* cell instance $1037 r0 *1 1076.32,559.44
X$1037 552 116 557 551 gf180mcu_fd_sc_mcu9t5v0__clkbuf_12
* cell instance $1040 r0 *1 1015.28,559.44
X$1040 552 139 116 118 551 gf180mcu_fd_sc_mcu9t5v0__dffq_2
* cell instance $1043 m0 *1 1056.16,559.44
X$1043 552 123 116 121 551 gf180mcu_fd_sc_mcu9t5v0__dffq_2
* cell instance $1056 r0 *1 1019.76,569.52
X$1056 552 551 118 119 158 139 gf180mcu_fd_sc_mcu9t5v0__mux2_2
* cell instance $1059 m0 *1 1026.48,589.68
X$1059 552 551 135 119 gf180mcu_fd_sc_mcu9t5v0__clkbuf_4
* cell instance $1061 r0 *1 1038.8,589.68
X$1061 552 551 208 119 212 209 gf180mcu_fd_sc_mcu9t5v0__mux2_2
* cell instance $1063 r0 *1 1047.2,599.76
X$1063 552 551 178 119 204 179 gf180mcu_fd_sc_mcu9t5v0__mux2_2
* cell instance $1068 r0 *1 1135.68,599.76
X$1068 552 551 229 119 231 232 gf180mcu_fd_sc_mcu9t5v0__mux2_2
* cell instance $1071 m0 *1 1131.2,589.68
X$1071 552 551 188 119 184 189 gf180mcu_fd_sc_mcu9t5v0__mux2_2
* cell instance $1075 m0 *1 1202.32,569.52
X$1075 552 551 148 119 149 150 gf180mcu_fd_sc_mcu9t5v0__mux2_2
* cell instance $1078 m0 *1 1203.44,579.6
X$1078 552 551 165 119 130 238 gf180mcu_fd_sc_mcu9t5v0__mux2_2
* cell instance $1089 m0 *1 1037.12,569.52
X$1089 552 551 120 143 142 134 gf180mcu_fd_sc_mcu9t5v0__mux2_2
* cell instance $1094 m0 *1 1086.96,660.24
X$1094 552 348 122 326 301 291 302 325 551 gf180mcu_fd_sc_mcu9t5v0__mux4_2
* cell instance $1097 m0 *1 999.6,670.32
X$1097 552 319 122 317 346 157 316 342 551 gf180mcu_fd_sc_mcu9t5v0__mux4_2
* cell instance $1099 r0 *1 1005.2,630
X$1099 552 266 122 250 268 157 248 270 551 gf180mcu_fd_sc_mcu9t5v0__mux4_2
* cell instance $1102 r0 *1 1033.2,700.56
X$1102 552 409 122 386 407 157 408 360 551 gf180mcu_fd_sc_mcu9t5v0__mux4_2
* cell instance $1107 r0 *1 999.04,700.56
X$1107 552 425 122 384 405 157 404 383 551 gf180mcu_fd_sc_mcu9t5v0__mux4_2
* cell instance $1112 m0 *1 1167.04,569.52
X$1112 551 122 145 552 146 gf180mcu_fd_sc_mcu9t5v0__and2_2
* cell instance $1114 r0 *1 1066.24,589.68
X$1114 552 551 122 211 gf180mcu_fd_sc_mcu9t5v0__buf_4
* cell instance $1116 r0 *1 1154.16,609.84
X$1116 552 551 122 255 gf180mcu_fd_sc_mcu9t5v0__clkinv_2
* cell instance $1154 r0 *1 1167.04,619.92
X$1154 126 552 551 132 280 256 gf180mcu_fd_sc_mcu9t5v0__addh_1
* cell instance $1169 m0 *1 1200.64,630
X$1169 552 551 282 249 130 295 gf180mcu_fd_sc_mcu9t5v0__mux2_2
* cell instance $1173 m0 *1 1165.36,740.88
X$1173 552 551 494 350 130 486 gf180mcu_fd_sc_mcu9t5v0__mux2_2
* cell instance $1176 m0 *1 1207.92,660.24
X$1176 552 551 309 294 130 306 gf180mcu_fd_sc_mcu9t5v0__mux2_2
* cell instance $1178 m0 *1 1188.88,740.88
X$1178 552 551 487 385 130 488 gf180mcu_fd_sc_mcu9t5v0__mux2_2
* cell instance $1181 m0 *1 1226.96,730.8
X$1181 552 551 460 372 130 461 gf180mcu_fd_sc_mcu9t5v0__mux2_2
* cell instance $1183 m0 *1 1226.96,720.72
X$1183 552 551 445 363 130 446 gf180mcu_fd_sc_mcu9t5v0__mux2_2
* cell instance $1207 r0 *1 1157.52,609.84
X$1207 552 551 132 235 gf180mcu_fd_sc_mcu9t5v0__clkinv_2
* cell instance $1210 m0 *1 1155.28,609.84
X$1210 552 551 132 191 gf180mcu_fd_sc_mcu9t5v0__buf_4
* cell instance $1212 r0 *1 1172.08,609.84
X$1212 551 147 132 236 552 gf180mcu_fd_sc_mcu9t5v0__and2_4
* cell instance $1226 m0 *1 1015.28,589.68
X$1226 552 551 200 135 159 175 gf180mcu_fd_sc_mcu9t5v0__mux2_2
* cell instance $1228 m0 *1 999.04,579.6
X$1228 552 551 174 135 142 136 gf180mcu_fd_sc_mcu9t5v0__mux2_2
* cell instance $1231 r0 *1 1016.96,599.76
X$1231 552 551 239 135 214 207 gf180mcu_fd_sc_mcu9t5v0__mux2_2
* cell instance $1234 m0 *1 999.04,569.52
X$1234 552 551 154 135 137 138 gf180mcu_fd_sc_mcu9t5v0__mux2_2
* cell instance $1236 r0 *1 1125.04,569.52
X$1236 552 551 161 135 160 162 gf180mcu_fd_sc_mcu9t5v0__mux2_2
* cell instance $1238 m0 *1 1129.52,619.92
X$1238 552 551 243 135 227 230 gf180mcu_fd_sc_mcu9t5v0__mux2_2
* cell instance $1241 r0 *1 23.52,1103.76
X$1241 552 537 135 551 gf180mcu_fd_sc_mcu9t5v0__buf_8
* cell instance $1257 m0 *1 1045.52,569.52
X$1257 552 551 141 143 137 144 gf180mcu_fd_sc_mcu9t5v0__mux2_2
* cell instance $1259 m0 *1 1078.56,670.32
X$1259 552 551 347 300 137 302 gf180mcu_fd_sc_mcu9t5v0__mux2_2
* cell instance $1262 m0 *1 999.04,630
X$1262 552 551 263 247 137 248 gf180mcu_fd_sc_mcu9t5v0__mux2_2
* cell instance $1264 m0 *1 989.52,670.32
X$1264 552 551 315 299 137 316 gf180mcu_fd_sc_mcu9t5v0__mux2_2
* cell instance $1266 r0 *1 990.08,700.56
X$1266 552 551 424 403 137 404 gf180mcu_fd_sc_mcu9t5v0__mux2_2
* cell instance $1268 r0 *1 1067.36,700.56
X$1268 552 551 411 388 137 413 gf180mcu_fd_sc_mcu9t5v0__mux2_2
* cell instance $1270 m0 *1 1027.04,720.72
X$1270 552 551 431 430 137 408 gf180mcu_fd_sc_mcu9t5v0__mux2_2
* cell instance $1298 r0 *1 1016.96,690.48
X$1298 552 551 378 385 140 384 gf180mcu_fd_sc_mcu9t5v0__mux2_2
* cell instance $1300 m0 *1 1018.08,619.92
X$1300 552 551 264 249 140 250 gf180mcu_fd_sc_mcu9t5v0__mux2_2
* cell instance $1303 r0 *1 1098.72,660.24
X$1303 552 551 349 350 140 326 gf180mcu_fd_sc_mcu9t5v0__mux2_2
* cell instance $1306 m0 *1 1044.4,700.56
X$1306 552 551 399 372 140 386 gf180mcu_fd_sc_mcu9t5v0__mux2_2
* cell instance $1308 r0 *1 1009.68,650.16
X$1308 552 551 311 294 140 317 gf180mcu_fd_sc_mcu9t5v0__mux2_2
* cell instance $1315 m0 *1 1091.44,690.48
X$1315 552 551 380 363 140 364 gf180mcu_fd_sc_mcu9t5v0__mux2_2
* cell instance $1335 m0 *1 989.52,630
X$1335 552 551 288 247 142 268 gf180mcu_fd_sc_mcu9t5v0__mux2_2
* cell instance $1338 m0 *1 988.4,680.4
X$1338 552 551 345 299 142 346 gf180mcu_fd_sc_mcu9t5v0__mux2_2
* cell instance $1340 m0 *1 1066.24,700.56
X$1340 552 551 387 388 142 412 gf180mcu_fd_sc_mcu9t5v0__mux2_2
* cell instance $1343 m0 *1 987.28,720.72
X$1343 552 551 429 403 142 405 gf180mcu_fd_sc_mcu9t5v0__mux2_2
* cell instance $1346 m0 *1 1075.2,660.24
X$1346 552 551 344 300 142 301 gf180mcu_fd_sc_mcu9t5v0__mux2_2
* cell instance $1350 m0 *1 1018.64,720.72
X$1350 552 551 406 430 142 407 gf180mcu_fd_sc_mcu9t5v0__mux2_2
* cell instance $1364 m0 *1 1109.36,579.6
X$1364 552 551 206 143 160 183 gf180mcu_fd_sc_mcu9t5v0__mux2_2
* cell instance $1367 r0 *1 1056.72,589.68
X$1367 552 551 210 143 159 213 gf180mcu_fd_sc_mcu9t5v0__mux2_2
* cell instance $1371 r0 *1 1109.92,599.76
X$1371 552 551 226 143 227 228 gf180mcu_fd_sc_mcu9t5v0__mux2_2
* cell instance $1375 r0 *1 1065.68,599.76
X$1375 552 551 241 143 214 225 gf180mcu_fd_sc_mcu9t5v0__mux2_2
* cell instance $1377 m0 *1 6.16,1204.56
X$1377 552 546 143 551 gf180mcu_fd_sc_mcu9t5v0__clkbuf_12
* cell instance $1398 m0 *1 1165.36,579.6
X$1398 552 551 145 192 gf180mcu_fd_sc_mcu9t5v0__buf_4
* cell instance $1402 m0 *1 1172.64,569.52
X$1402 552 551 146 147 gf180mcu_fd_sc_mcu9t5v0__buf_4
* cell instance $1404 r0 *1 1184.96,569.52
X$1404 552 164 163 551 147 167 gf180mcu_fd_sc_mcu9t5v0__nand3_2
* cell instance $1407 m0 *1 1188.88,630
X$1407 552 262 163 551 147 285 gf180mcu_fd_sc_mcu9t5v0__nand3_2
* cell instance $1409 r0 *1 1183.84,700.56
X$1409 552 418 163 551 147 420 gf180mcu_fd_sc_mcu9t5v0__nand3_2
* cell instance $1412 r0 *1 1193.92,569.52
X$1412 552 169 163 551 147 168 gf180mcu_fd_sc_mcu9t5v0__nand3_2
* cell instance $1415 r0 *1 1166.48,690.48
X$1415 552 392 163 551 147 368 gf180mcu_fd_sc_mcu9t5v0__nand3_2
* cell instance $1417 m0 *1 1187.76,700.56
X$1417 552 400 163 551 147 395 gf180mcu_fd_sc_mcu9t5v0__nand3_2
* cell instance $1419 m0 *1 1184.4,660.24
X$1419 552 337 163 551 147 336 gf180mcu_fd_sc_mcu9t5v0__nand3_2
* cell instance $1421 r0 *1 1191.12,700.56
X$1421 552 421 163 551 147 397 gf180mcu_fd_sc_mcu9t5v0__nand3_2
* cell instance $1440 m0 *1 1219.12,630
X$1440 552 551 283 249 149 284 gf180mcu_fd_sc_mcu9t5v0__mux2_2
* cell instance $1443 m0 *1 1212.4,690.48
X$1443 552 551 377 363 149 371 gf180mcu_fd_sc_mcu9t5v0__mux2_2
* cell instance $1446 r0 *1 1161.44,680.4
X$1446 552 551 366 350 149 367 gf180mcu_fd_sc_mcu9t5v0__mux2_2
* cell instance $1449 r0 *1 1190.56,690.48
X$1449 552 551 379 385 149 370 gf180mcu_fd_sc_mcu9t5v0__mux2_2
* cell instance $1451 m0 *1 1219.12,660.24
X$1451 552 551 335 294 149 334 gf180mcu_fd_sc_mcu9t5v0__mux2_2
* cell instance $1454 r0 *1 1220.8,680.4
X$1454 552 551 376 372 149 373 gf180mcu_fd_sc_mcu9t5v0__mux2_2
* cell instance $1467 r0 *1 1205.12,569.52
X$1467 552 551 168 150 166 151 gf180mcu_fd_sc_mcu9t5v0__mux2_2
* cell instance $1494 r0 *1 1034.88,579.6
X$1494 552 180 551 156 170 176 177 gf180mcu_fd_sc_mcu9t5v0__aoi22_2
* cell instance $1498 m0 *1 1048.88,630
X$1498 552 251 211 276 272 157 289 273 551 gf180mcu_fd_sc_mcu9t5v0__mux4_2
* cell instance $1500 m0 *1 1028.72,599.76