
* cell pwm_generator
* pin period[7]
* pin duty_cycle[7]
* pin enable
* pin pwm_out
* pin period[6]
* pin duty_cycle[6]
* pin duty_cycle[4]
* pin duty_cycle[5]
* pin period[5]
* pin period[4]
* pin duty_cycle[3]
* pin clk
* pin period[3]
* pin duty_cycle[2]
* pin period[2]
* pin rst_n
* pin duty_cycle[1]
* pin period[1]
* pin duty_cycle[0]
* pin period[0]
.SUBCKT pwm_generator 1 2 3 4 32 38 61 79 86 96 116 121 162 165 180 181 182 185
+ 191 193
* net 1 period[7]
* net 2 duty_cycle[7]
* net 3 enable
* net 4 pwm_out
* net 32 period[6]
* net 38 duty_cycle[6]
* net 61 duty_cycle[4]
* net 79 duty_cycle[5]
* net 86 period[5]
* net 96 period[4]
* net 116 duty_cycle[3]
* net 121 clk
* net 162 period[3]
* net 165 duty_cycle[2]
* net 180 period[2]
* net 181 rst_n
* net 182 duty_cycle[1]
* net 185 period[1]
* net 191 duty_cycle[0]
* net 193 period[0]
* cell instance $3 r0 *1 45.54,2.72
X$3 9 1 8 5 9 5 sky130_fd_sc_hd__clkbuf_1
* cell instance $6 r0 *1 53.82,2.72
X$6 9 2 7 5 9 5 sky130_fd_sc_hd__clkbuf_1
* cell instance $8 r0 *1 58.42,2.72
X$8 9 3 9 5 6 5 sky130_fd_sc_hd__clkbuf_2
* cell instance $12 r0 *1 72.22,2.72
X$12 9 12 4 5 9 5 sky130_fd_sc_hd__clkbuf_1
* cell instance $662 m0 *1 51.06,40.8
X$662 9 10 13 31 9 18 5 5 sky130_fd_sc_hd__o21ai_0
* cell instance $663 m0 *1 52.9,40.8
X$663 9 14 9 5 10 5 sky130_fd_sc_hd__inv_1
* cell instance $674 m0 *1 63.94,40.8
X$674 5 11 12 15 19 9 9 5 sky130_fd_sc_hd__dfrtp_1
* cell instance $683 m0 *1 73.14,40.8
X$683 9 6 12 17 5 9 5 sky130_fd_sc_hd__nor2b_1
* cell instance $743 r0 *1 44.16,40.8
X$743 5 49 14 33 18 9 9 5 sky130_fd_sc_hd__dfstp_1
* cell instance $744 r0 *1 53.82,40.8
X$744 5 11 20 15 23 9 9 5 sky130_fd_sc_hd__dfrtp_1
* cell instance $745 r0 *1 63.02,40.8
X$745 5 16 21 20 10 9 9 5 sky130_fd_sc_hd__ha_1
* cell instance $746 r0 *1 67.62,40.8
X$746 9 21 16 22 5 9 45 5 sky130_fd_sc_hd__a21oi_1
* cell instance $752 r0 *1 70.84,40.8
X$752 5 44 22 42 28 9 9 5 sky130_fd_sc_hd__ha_1
* cell instance $753 r0 *1 75.44,40.8
X$753 5 11 29 15 30 9 9 5 sky130_fd_sc_hd__dfrtp_1
* cell instance $771 m0 *1 2.76,46.24
X$771 9 32 24 5 9 5 sky130_fd_sc_hd__clkbuf_1
* cell instance $782 m0 *1 29.9,46.24
X$782 5 47 24 48 40 9 9 5 sky130_fd_sc_hd__mux2_1
* cell instance $784 m0 *1 34.5,46.24
X$784 5 49 50 33 25 9 9 5 sky130_fd_sc_hd__dfstp_1
* cell instance $786 m0 *1 44.62,46.24
X$786 5 25 8 50 40 9 9 5 sky130_fd_sc_hd__mux2_1
* cell instance $788 m0 *1 49.22,46.24
X$788 9 84 42 52 9 5 5 sky130_fd_sc_hd__xnor2_1
* cell instance $790 m0 *1 53.36,46.24
X$790 9 7 34 31 9 5 5 sky130_fd_sc_hd__nand2_1
* cell instance $793 m0 *1 57.04,46.24
X$793 9 46 26 35 5 9 23 5 sky130_fd_sc_hd__a21oi_1
* cell instance $794 m0 *1 58.88,46.24
X$794 9 36 27 46 9 5 5 sky130_fd_sc_hd__xnor2_1
* cell instance $795 m0 *1 62.1,46.24
X$795 9 20 9 5 27 5 sky130_fd_sc_hd__inv_1
* cell instance $799 m0 *1 66.7,46.24
X$799 5 19 45 43 26 17 9 9 5 sky130_fd_sc_hd__a31o_1
* cell instance $800 m0 *1 69.92,46.24
X$800 9 16 44 101 65 41 9 43 5 5 sky130_fd_sc_hd__o2111ai_1
* cell instance $803 m0 *1 77.28,46.24
X$803 9 28 13 39 9 30 5 5 sky130_fd_sc_hd__o21ai_0
* cell instance $805 m0 *1 80.96,46.24
X$805 9 29 9 5 28 5 sky130_fd_sc_hd__inv_1
* cell instance $806 m0 *1 82.34,46.24
X$806 9 37 34 39 9 5 5 sky130_fd_sc_hd__nand2_1
* cell instance $817 m0 *1 109.02,46.24
X$817 9 38 37 5 9 5 sky130_fd_sc_hd__clkbuf_1
* cell instance $837 r0 *1 27.14,46.24
X$837 5 49 48 33 47 9 9 5 sky130_fd_sc_hd__dfstp_1
* cell instance $839 r0 *1 38.64,46.24
X$839 5 40 34 9 9 5 sky130_fd_sc_hd__buf_6
* cell instance $844 r0 *1 43.24,46.24
X$844 9 42 9 5 63 5 sky130_fd_sc_hd__inv_1
* cell instance $846 r0 *1 45.54,46.24
X$846 5 53 82 27 50 9 9 5 sky130_fd_sc_hd__ha_1
* cell instance $847 r0 *1 50.14,46.24
X$847 9 52 26 35 5 9 54 5 sky130_fd_sc_hd__a21oi_1
* cell instance $848 r0 *1 51.98,46.24
X$848 5 11 42 15 54 9 9 5 sky130_fd_sc_hd__dfrtp_1
* cell instance $849 r0 *1 61.18,46.24
X$849 9 56 42 55 36 9 5 5 sky130_fd_sc_hd__nand3_1
* cell instance $851 r0 *1 63.48,46.24
X$851 9 56 9 5 51 5 sky130_fd_sc_hd__inv_1
* cell instance $858 r0 *1 70.84,46.24
X$858 5 60 41 56 57 9 9 5 sky130_fd_sc_hd__ha_1
* cell instance $861 r0 *1 76.82,46.24
X$861 5 11 62 15 83 9 9 5 sky130_fd_sc_hd__dfrtp_1
* cell instance $890 m0 *1 40.02,51.68
X$890 9 53 67 80 9 5 5 sky130_fd_sc_hd__nand2_1
* cell instance $891 m0 *1 41.4,51.68
X$891 5 67 58 63 48 9 9 5 sky130_fd_sc_hd__ha_1
* cell instance $892 m0 *1 46,51.68
X$892 9 40 5 13 9 5 sky130_fd_sc_hd__buf_2
* cell instance $893 m0 *1 47.84,51.68
X$893 9 81 68 71 5 9 69 5 sky130_fd_sc_hd__a21oi_1
* cell instance $894 m0 *1 49.68,51.68
X$894 9 82 53 58 5 9 66 5 sky130_fd_sc_hd__a21oi_1
* cell instance $899 m0 *1 57.04,51.68
X$899 9 55 56 74 9 5 5 sky130_fd_sc_hd__xnor2_1
* cell instance $900 m0 *1 60.26,51.68
X$900 9 74 26 35 5 9 59 5 sky130_fd_sc_hd__a21oi_1
* cell instance $901 m0 *1 62.1,51.68
X$901 5 11 56 15 59 9 9 5 sky130_fd_sc_hd__dfrtp_1
* cell instance $902 m0 *1 71.3,51.68
X$902 9 60 85 77 9 65 5 5 sky130_fd_sc_hd__o21a_1
* cell instance $904 m0 *1 74.98,51.68
X$904 5 11 90 15 76 9 9 5 sky130_fd_sc_hd__dfrtp_1
* cell instance $906 m0 *1 84.64,51.68
X$906 9 78 34 64 9 5 5 sky130_fd_sc_hd__nand2_1
* cell instance $907 m0 *1 86.02,51.68
X$907 9 62 9 5 57 5 sky130_fd_sc_hd__inv_1
* cell instance $914 m0 *1 104.42,51.68
X$914 9 79 78 5 9 5 sky130_fd_sc_hd__clkbuf_1
* cell instance $917 m0 *1 107.18,51.68
X$917 9 61 89 5 9 5 sky130_fd_sc_hd__clkbuf_1
* cell instance $937 r0 *1 26.22,51.68
X$937 5 49 87 33 91 9 9 5 sky130_fd_sc_hd__dfstp_1
* cell instance $940 r0 *1 40.48,51.68
X$940 9 68 53 102 67 9 99 5 5 sky130_fd_sc_hd__nand4_1
* cell instance $943 r0 *1 43.24,51.68
X$943 5 68 81 51 87 9 9 5 sky130_fd_sc_hd__ha_1
* cell instance $944 r0 *1 47.84,51.68
X$944 9 80 66 69 9 5 70 5 sky130_fd_sc_hd__o21ai_1
* cell instance $946 r0 *1 50.14,51.68
X$946 9 73 51 72 84 5 9 5 sky130_fd_sc_hd__nor3_1
* cell instance $948 r0 *1 55.66,51.68
X$948 9 72 73 93 9 5 5 sky130_fd_sc_hd__xnor2_1
* cell instance $949 r0 *1 58.88,51.68
X$949 5 11 75 15 103 9 9 5 sky130_fd_sc_hd__dfrtp_1
* cell instance $954 r0 *1 70.84,51.68
X$954 9 60 77 94 41 5 95 9 5 sky130_fd_sc_hd__a211oi_1
* cell instance $955 r0 *1 73.6,51.68
X$955 5 85 77 75 88 9 9 5 sky130_fd_sc_hd__ha_1
* cell instance $956 r0 *1 78.2,51.68
X$956 9 57 13 64 9 83 5 5 sky130_fd_sc_hd__o21ai_0
* cell instance $957 r0 *1 80.04,51.68
X$957 9 88 13 92 9 76 5 5 sky130_fd_sc_hd__o21ai_0
* cell instance $959 r0 *1 82.8,51.68
X$959 9 90 9 5 88 5 sky130_fd_sc_hd__inv_1
* cell instance $960 r0 *1 84.18,51.68
X$960 9 89 34 92 9 5 5 sky130_fd_sc_hd__nand2_1
* cell instance $984 m0 *1 6.9,57.12
X$984 9 86 97 5 9 5 sky130_fd_sc_hd__clkbuf_1
* cell instance $987 m0 *1 12.88,57.12
X$987 9 96 98 5 9 5 sky130_fd_sc_hd__clkbuf_1
* cell instance $993 m0 *1 24.84,57.12
X$993 5 91 97 87 40 9 9 5 sky130_fd_sc_hd__mux2_1
* cell instance $997 m0 *1 30.82,57.12
X$997 5 117 98 104 40 9 9 5 sky130_fd_sc_hd__mux2_1
* cell instance $1001 m0 *1 44.16,57.12
X$1001 5 102 71 73 104 9 9 5 sky130_fd_sc_hd__ha_1
* cell instance $1005 m0 *1 55.2,57.12
X$1005 9 100 9 5 110 5 sky130_fd_sc_hd__inv_1
* cell instance $1008 m0 *1 57.96,57.12
X$1008 9 75 9 5 73 5 sky130_fd_sc_hd__inv_1
* cell instance $1009 m0 *1 59.34,57.12
X$1009 9 93 26 35 5 9 103 5 sky130_fd_sc_hd__a21oi_1
* cell instance $1011 m0 *1 62.1,57.12
X$1011 9 100 75 6 109 9 5 5 sky130_fd_sc_hd__nand3_1
* cell instance $1012 m0 *1 63.94,57.12
X$1012 5 107 15 9 9 5 sky130_fd_sc_hd__clkbuf_16
* cell instance $1013 m0 *1 73.14,57.12
X$1013 9 148 126 95 9 101 5 5 sky130_fd_sc_hd__o21ai_0
* cell instance $1043 r0 *1 29.44,57.12
X$1043 5 49 104 33 117 9 9 5 sky130_fd_sc_hd__dfstp_1
* cell instance $1046 r0 *1 40.48,57.12
X$1046 5 5 40 9 99 105 9 sky130_fd_sc_hd__nor2_2
* cell instance $1049 r0 *1 43.24,57.12
X$1049 9 168 139 106 111 9 105 5 5 sky130_fd_sc_hd__nand4_1
* cell instance $1050 r0 *1 45.54,57.12
X$1050 9 135 106 147 5 9 120 5 sky130_fd_sc_hd__a21oi_1
* cell instance $1051 r0 *1 47.38,57.12
X$1051 9 70 112 113 5 35 9 5 sky130_fd_sc_hd__o21ai_2
* cell instance $1052 r0 *1 50.6,57.12
X$1052 9 40 9 5 113 5 sky130_fd_sc_hd__inv_1
* cell instance $1053 r0 *1 51.98,57.12
X$1053 5 121 107 9 9 5 sky130_fd_sc_hd__clkbuf_16
* cell instance $1054 r0 *1 61.18,57.12
X$1054 5 11 100 15 115 9 9 5 sky130_fd_sc_hd__dfrtp_1
* cell instance $1058 r0 *1 71.76,57.12
X$1058 5 119 94 100 118 9 9 5 sky130_fd_sc_hd__ha_1
* cell instance $1060 r0 *1 76.82,57.12
X$1060 5 11 108 15 125 9 9 5 sky130_fd_sc_hd__dfrtp_1
* cell instance $1061 r0 *1 86.02,57.12
X$1061 9 108 9 5 118 5 sky130_fd_sc_hd__inv_1
* cell instance $1089 m0 *1 35.88,62.56
X$1089 9 99 134 120 5 9 112 5 sky130_fd_sc_hd__a21oi_1
* cell instance $1090 m0 *1 37.72,62.56
X$1090 9 33 5 9 5 sky130_fd_sc_hd__inv_4
* cell instance $1091 m0 *1 40.02,62.56
X$1091 5 107 33 9 9 5 sky130_fd_sc_hd__clkbuf_16
* cell instance $1096 m0 *1 50.6,62.56
X$1096 9 113 150 112 70 128 114 9 5 5 sky130_fd_sc_hd__o221ai_1
* cell instance $1097 m0 *1 53.82,62.56
X$1097 9 140 26 114 9 137 5 5 sky130_fd_sc_hd__o21ai_0
* cell instance $1101 m0 *1 57.96,62.56
X$1101 9 100 153 130 6 9 72 5 5 sky130_fd_sc_hd__nand4_1
* cell instance $1102 m0 *1 60.26,62.56
X$1102 9 35 129 26 110 115 5 9 5 sky130_fd_sc_hd__o22ai_1
* cell instance $1103 m0 *1 62.56,62.56
X$1103 9 100 122 6 136 5 9 5 sky130_fd_sc_hd__nor3b_1
* cell instance $1104 m0 *1 65.32,62.56
X$1104 9 122 109 55 5 9 5 sky130_fd_sc_hd__nor2_1
* cell instance $1107 m0 *1 68.08,62.56
X$1107 9 6 5 26 9 5 sky130_fd_sc_hd__buf_2
* cell instance $1111 m0 *1 71.76,62.56
X$1111 9 127 132 119 9 126 5 5 sky130_fd_sc_hd__o21ai_0
* cell instance $1115 m0 *1 79.58,62.56
X$1115 9 118 13 124 9 125 5 5 sky130_fd_sc_hd__o21ai_0
* cell instance $1116 m0 *1 81.42,62.56
X$1116 9 123 34 124 9 5 5 sky130_fd_sc_hd__nand2_1
* cell instance $1128 m0 *1 103.96,62.56
X$1128 9 116 123 5 9 5 sky130_fd_sc_hd__clkbuf_1
* cell instance $1148 r0 *1 27.14,62.56
X$1148 5 49 138 33 142 9 9 5 sky130_fd_sc_hd__dfstp_1
* cell instance $1152 r0 *1 40.02,62.56
X$1152 9 143 146 106 111 134 9 5 5 sky130_fd_sc_hd__o211ai_1
* cell instance $1156 r0 *1 43.24,62.56
X$1156 5 106 135 110 138 9 9 5 sky130_fd_sc_hd__ha_1
* cell instance $1157 r0 *1 47.84,62.56
X$1157 9 130 9 5 140 5 sky130_fd_sc_hd__inv_1
* cell instance $1159 r0 *1 49.68,62.56
X$1159 9 113 6 155 112 70 9 151 5 5 sky130_fd_sc_hd__o2111ai_1
* cell instance $1161 r0 *1 53.36,62.56
X$1161 5 11 130 15 137 9 9 5 sky130_fd_sc_hd__dfrtp_1
* cell instance $1163 r0 *1 63.02,62.56
X$1163 9 136 100 122 5 9 129 5 sky130_fd_sc_hd__a21oi_1
* cell instance $1164 r0 *1 64.86,62.56
X$1164 9 131 130 156 122 9 5 5 sky130_fd_sc_hd__nand3_1
* cell instance $1169 r0 *1 70.84,62.56
X$1169 5 127 132 130 144 9 9 5 sky130_fd_sc_hd__ha_1
* cell instance $1172 r0 *1 76.82,62.56
X$1172 5 11 133 15 145 9 9 5 sky130_fd_sc_hd__dfrtp_1
* cell instance $1173 r0 *1 86.02,62.56
X$1173 9 133 9 5 144 5 sky130_fd_sc_hd__inv_1
* cell instance $1189 m0 *1 5.06,68
X$1189 9 162 166 5 9 5 sky130_fd_sc_hd__clkbuf_1
* cell instance $1200 m0 *1 30.36,68
X$1200 5 142 166 138 34 9 9 5 sky130_fd_sc_hd__mux2_1
* cell instance $1203 m0 *1 36.8,68
X$1203 5 139 143 154 177 9 9 5 sky130_fd_sc_hd__ha_1
* cell instance $1204 m0 *1 41.4,68
X$1204 5 111 147 140 161 9 9 5 sky130_fd_sc_hd__ha_1
* cell instance $1207 m0 *1 46.46,68
X$1207 9 167 139 146 5 9 5 sky130_fd_sc_hd__nor2b_1
* cell instance $1209 m0 *1 49.22,68
X$1209 5 140 150 153 6 9 9 5 sky130_fd_sc_hd__and3_1
* cell instance $1210 m0 *1 51.52,68
X$1210 9 155 26 151 9 152 5 5 sky130_fd_sc_hd__o21ai_0
* cell instance $1212 m0 *1 54.28,68
X$1212 9 153 140 128 5 9 5 sky130_fd_sc_hd__nor2_1
* cell instance $1215 m0 *1 57.04,68
X$1215 9 35 160 26 154 141 5 9 5 sky130_fd_sc_hd__o22ai_1
* cell instance $1216 m0 *1 59.34,68
X$1216 9 172 26 160 9 5 5 sky130_fd_sc_hd__nand2_1
* cell instance $1217 m0 *1 60.72,68
X$1217 5 172 153 131 156 9 9 5 sky130_fd_sc_hd__ha_1
* cell instance $1218 m0 *1 65.32,68
X$1218 9 156 9 5 154 5 sky130_fd_sc_hd__inv_1
* cell instance $1219 m0 *1 66.7,68
X$1219 5 171 149 156 159 9 9 5 sky130_fd_sc_hd__ha_1
* cell instance $1221 m0 *1 71.3,68
X$1221 9 170 171 132 149 5 148 9 5 sky130_fd_sc_hd__a211oi_1
* cell instance $1225 m0 *1 79.12,68
X$1225 9 144 13 158 9 145 5 5 sky130_fd_sc_hd__o21ai_0
* cell instance $1227 m0 *1 81.88,68
X$1227 9 157 13 158 9 5 5 sky130_fd_sc_hd__nand2_1
* cell instance $1237 m0 *1 104.88,68
X$1237 9 165 157 5 9 5 sky130_fd_sc_hd__clkbuf_1
* cell instance $1257 r0 *1 27.6,68
X$1257 5 49 161 33 163 9 9 5 sky130_fd_sc_hd__dfstp_1
* cell instance $1258 r0 *1 37.26,68
X$1258 5 163 175 161 34 9 9 5 sky130_fd_sc_hd__mux2_1
* cell instance $1265 r0 *1 43.24,68
X$1265 5 168 167 131 173 9 9 5 sky130_fd_sc_hd__ha_1
* cell instance $1268 r0 *1 50.14,68
X$1268 9 131 9 5 155 5 sky130_fd_sc_hd__inv_1
* cell instance $1269 r0 *1 51.52,68
X$1269 5 11 131 33 152 9 9 5 sky130_fd_sc_hd__dfrtp_1
* cell instance $1270 r0 *1 60.72,68
X$1270 5 11 156 15 141 9 9 5 sky130_fd_sc_hd__dfrtp_1
* cell instance $1276 r0 *1 70.84,68
X$1276 9 169 131 170 5 9 5 sky130_fd_sc_hd__nand2b_1
* cell instance $1279 r0 *1 75.44,68
X$1279 5 11 164 15 178 9 9 5 sky130_fd_sc_hd__dfrtp_1
* cell instance $1280 r0 *1 84.64,68
X$1280 9 164 9 5 159 5 sky130_fd_sc_hd__inv_1
* cell instance $1297 m0 *1 3.68,73.44
X$1297 9 180 175 5 9 5 sky130_fd_sc_hd__clkbuf_1
* cell instance $1301 m0 *1 11.5,73.44
X$1301 9 187 9 5 49 5 sky130_fd_sc_hd__buf_4
* cell instance $1307 m0 *1 29.44,73.44
X$1307 5 49 177 33 188 9 9 5 sky130_fd_sc_hd__dfstp_1
* cell instance $1310 m0 *1 46.46,73.44
X$1310 9 173 13 179 9 184 5 5 sky130_fd_sc_hd__o21ai_0
* cell instance $1311 m0 *1 48.3,73.44
X$1311 9 183 9 5 173 5 sky130_fd_sc_hd__inv_1
* cell instance $1313 m0 *1 50.6,73.44
X$1313 5 49 11 9 9 5 sky130_fd_sc_hd__buf_6
* cell instance $1321 m0 *1 70.38,73.44
X$1321 5 11 169 15 190 9 9 5 sky130_fd_sc_hd__dfrtp_1
* cell instance $1322 m0 *1 79.58,73.44
X$1322 9 159 13 176 9 178 5 5 sky130_fd_sc_hd__o21ai_0
* cell instance $1323 m0 *1 81.42,73.44
X$1323 9 174 13 176 9 5 5 sky130_fd_sc_hd__nand2_1
* cell instance $1335 m0 *1 108.1,73.44
X$1335 9 182 174 5 9 5 sky130_fd_sc_hd__clkbuf_1
* cell instance $1345 r0 *1 4.6,73.44
X$1345 9 185 186 5 9 5 sky130_fd_sc_hd__clkbuf_1
* cell instance $1346 r0 *1 5.98,73.44
X$1346 9 181 9 187 5 5 sky130_fd_sc_hd__dlygate4sd3_1
* cell instance $1356 r0 *1 31.28,73.44
X$1356 5 188 186 177 34 9 9 5 sky130_fd_sc_hd__mux2_1
* cell instance $1361 r0 *1 43.24,73.44
X$1361 5 49 183 33 184 9 9 5 sky130_fd_sc_hd__dfstp_1
* cell instance $1372 r0 *1 73.6,73.44
X$1372 5 190 189 169 34 9 9 5 sky130_fd_sc_hd__mux2_1
* cell instance $1384 r0 *1 104.42,73.44
X$1384 9 191 189 5 9 5 sky130_fd_sc_hd__clkbuf_1
* cell instance $1408 m0 *1 48.3,78.88
X$1408 9 192 34 179 9 5 5 sky130_fd_sc_hd__nand2_1
* cell instance $2062 m0 *1 49.68,116.96
X$2062 9 193 192 5 9 5 sky130_fd_sc_hd__clkbuf_1
.ENDS pwm_generator

* cell sky130_fd_sc_hd__a31o_1
* pin VGND
* pin X
* pin A3
* pin A2
* pin A1
* pin B1
* pin VPWR
* pin VPB
* pin 
.SUBCKT sky130_fd_sc_hd__a31o_1 1 2 6 7 8 9 11 12 13
* net 1 VGND
* net 2 X
* net 6 A3
* net 7 A2
* net 8 A1
* net 9 B1
* net 11 VPWR
* net 12 VPB
* device instance $1 r0 *1 0.475,1.985 pfet_01v8_hvt
M$1 11 3 2 12 pfet_01v8_hvt L=150000U W=1000000U AS=265000000000P
+ AD=172500000000P PS=2530000U PD=1345000U
* device instance $2 r0 *1 0.97,1.985 pfet_01v8_hvt
M$2 10 6 11 12 pfet_01v8_hvt L=150000U W=1000000U AS=172500000000P
+ AD=160000000000P PS=1345000U PD=1320000U
* device instance $3 r0 *1 1.44,1.985 pfet_01v8_hvt
M$3 11 7 10 12 pfet_01v8_hvt L=150000U W=1000000U AS=160000000000P
+ AD=165000000000P PS=1320000U PD=1330000U
* device instance $4 r0 *1 1.92,1.985 pfet_01v8_hvt
M$4 10 8 11 12 pfet_01v8_hvt L=150000U W=1000000U AS=165000000000P
+ AD=165000000000P PS=1330000U PD=1330000U
* device instance $5 r0 *1 2.4,1.985 pfet_01v8_hvt
M$5 3 9 10 12 pfet_01v8_hvt L=150000U W=1000000U AS=165000000000P
+ AD=320000000000P PS=1330000U PD=2640000U
* device instance $6 r0 *1 0.475,0.56 nfet_01v8
M$6 1 3 2 13 nfet_01v8 L=150000U W=650000U AS=172250000000P AD=112125000000P
+ PS=1830000U PD=995000U
* device instance $7 r0 *1 0.97,0.56 nfet_01v8
M$7 4 6 1 13 nfet_01v8 L=150000U W=650000U AS=112125000000P AD=104000000000P
+ PS=995000U PD=970000U
* device instance $8 r0 *1 1.44,0.56 nfet_01v8
M$8 5 7 4 13 nfet_01v8 L=150000U W=650000U AS=104000000000P AD=107250000000P
+ PS=970000U PD=980000U
* device instance $9 r0 *1 1.92,0.56 nfet_01v8
M$9 3 8 5 13 nfet_01v8 L=150000U W=650000U AS=107250000000P AD=107250000000P
+ PS=980000U PD=980000U
* device instance $10 r0 *1 2.4,0.56 nfet_01v8
M$10 1 9 3 13 nfet_01v8 L=150000U W=650000U AS=107250000000P AD=208000000000P
+ PS=980000U PD=1940000U
.ENDS sky130_fd_sc_hd__a31o_1

* cell sky130_fd_sc_hd__o21a_1
* pin VPB
* pin B1
* pin A2
* pin A1
* pin VPWR
* pin X
* pin VGND
* pin 
.SUBCKT sky130_fd_sc_hd__o21a_1 1 2 3 4 5 7 8 10
* net 1 VPB
* net 2 B1
* net 3 A2
* net 4 A1
* net 5 VPWR
* net 7 X
* net 8 VGND
* device instance $1 r0 *1 0.49,1.985 pfet_01v8_hvt
M$1 5 9 7 1 pfet_01v8_hvt L=150000U W=1000000U AS=280000000000P
+ AD=327500000000P PS=2560000U PD=1655000U
* device instance $2 r0 *1 1.295,1.985 pfet_01v8_hvt
M$2 9 2 5 1 pfet_01v8_hvt L=150000U W=1000000U AS=327500000000P
+ AD=195000000000P PS=1655000U PD=1390000U
* device instance $3 r0 *1 1.835,1.985 pfet_01v8_hvt
M$3 11 3 9 1 pfet_01v8_hvt L=150000U W=1000000U AS=195000000000P
+ AD=152500000000P PS=1390000U PD=1305000U
* device instance $4 r0 *1 2.29,1.985 pfet_01v8_hvt
M$4 5 4 11 1 pfet_01v8_hvt L=150000U W=1000000U AS=152500000000P
+ AD=260000000000P PS=1305000U PD=2520000U
* device instance $5 r0 *1 1.41,0.56 nfet_01v8
M$5 6 2 9 10 nfet_01v8 L=150000U W=650000U AS=169000000000P AD=100750000000P
+ PS=1820000U PD=960000U
* device instance $6 r0 *1 1.87,0.56 nfet_01v8
M$6 8 3 6 10 nfet_01v8 L=150000U W=650000U AS=100750000000P AD=87750000000P
+ PS=960000U PD=920000U
* device instance $7 r0 *1 2.29,0.56 nfet_01v8
M$7 6 4 8 10 nfet_01v8 L=150000U W=650000U AS=87750000000P AD=169000000000P
+ PS=920000U PD=1820000U
* device instance $8 r0 *1 0.47,0.56 nfet_01v8
M$8 8 9 7 10 nfet_01v8 L=150000U W=650000U AS=169000000000P AD=169000000000P
+ PS=1820000U PD=1820000U
.ENDS sky130_fd_sc_hd__o21a_1

* cell sky130_fd_sc_hd__nor3_1
* pin VPB
* pin A
* pin B
* pin C
* pin Y
* pin VGND
* pin VPWR
* pin 
.SUBCKT sky130_fd_sc_hd__nor3_1 1 2 3 4 5 6 7 8
* net 1 VPB
* net 2 A
* net 3 B
* net 4 C
* net 5 Y
* net 6 VGND
* net 7 VPWR
* device instance $1 r0 *1 0.47,1.985 pfet_01v8_hvt
M$1 10 4 5 1 pfet_01v8_hvt L=150000U W=1000000U AS=260000000000P
+ AD=135000000000P PS=2520000U PD=1270000U
* device instance $2 r0 *1 0.89,1.985 pfet_01v8_hvt
M$2 9 3 10 1 pfet_01v8_hvt L=150000U W=1000000U AS=135000000000P
+ AD=135000000000P PS=1270000U PD=1270000U
* device instance $3 r0 *1 1.31,1.985 pfet_01v8_hvt
M$3 7 2 9 1 pfet_01v8_hvt L=150000U W=1000000U AS=135000000000P
+ AD=260000000000P PS=1270000U PD=2520000U
* device instance $4 r0 *1 0.47,0.56 nfet_01v8
M$4 6 4 5 8 nfet_01v8 L=150000U W=650000U AS=169000000000P AD=87750000000P
+ PS=1820000U PD=920000U
* device instance $5 r0 *1 0.89,0.56 nfet_01v8
M$5 5 3 6 8 nfet_01v8 L=150000U W=650000U AS=87750000000P AD=87750000000P
+ PS=920000U PD=920000U
* device instance $6 r0 *1 1.31,0.56 nfet_01v8
M$6 6 2 5 8 nfet_01v8 L=150000U W=650000U AS=87750000000P AD=169000000000P
+ PS=920000U PD=1820000U
.ENDS sky130_fd_sc_hd__nor3_1

* cell sky130_fd_sc_hd__o21ai_1
* pin VPB
* pin A1
* pin B1
* pin A2
* pin VPWR
* pin VGND
* pin Y
* pin 
.SUBCKT sky130_fd_sc_hd__o21ai_1 1 2 3 4 5 7 8 9
* net 1 VPB
* net 2 A1
* net 3 B1
* net 4 A2
* net 5 VPWR
* net 7 VGND
* net 8 Y
* device instance $1 r0 *1 0.47,1.985 pfet_01v8_hvt
M$1 10 2 5 1 pfet_01v8_hvt L=150000U W=1000000U AS=260000000000P
+ AD=105000000000P PS=2520000U PD=1210000U
* device instance $2 r0 *1 0.83,1.985 pfet_01v8_hvt
M$2 8 4 10 1 pfet_01v8_hvt L=150000U W=1000000U AS=105000000000P
+ AD=174000000000P PS=1210000U PD=1390000U
* device instance $3 r0 *1 1.37,2.135 pfet_01v8_hvt
M$3 5 3 8 1 pfet_01v8_hvt L=150000U W=700000U AS=174000000000P AD=182000000000P
+ PS=1390000U PD=1920000U
* device instance $4 r0 *1 0.47,0.56 nfet_01v8
M$4 7 2 6 9 nfet_01v8 L=150000U W=650000U AS=169000000000P AD=107250000000P
+ PS=1820000U PD=980000U
* device instance $5 r0 *1 0.95,0.56 nfet_01v8
M$5 6 4 7 9 nfet_01v8 L=150000U W=650000U AS=107250000000P AD=87750000000P
+ PS=980000U PD=920000U
* device instance $6 r0 *1 1.37,0.56 nfet_01v8
M$6 8 3 6 9 nfet_01v8 L=150000U W=650000U AS=87750000000P AD=169000000000P
+ PS=920000U PD=1820000U
.ENDS sky130_fd_sc_hd__o21ai_1

* cell sky130_fd_sc_hd__buf_6
* pin VGND
* pin A
* pin X
* pin VPWR
* pin VPB
* pin 
.SUBCKT sky130_fd_sc_hd__buf_6 1 2 4 5 6 7
* net 1 VGND
* net 2 A
* net 4 X
* net 5 VPWR
* net 6 VPB
* device instance $1 r0 *1 0.73,1.985 pfet_01v8_hvt
M$1 3 2 5 6 pfet_01v8_hvt L=150000U W=2000000U AS=395000000000P
+ AD=270000000000P PS=3790000U PD=2540000U
* device instance $3 r0 *1 1.57,1.985 pfet_01v8_hvt
M$3 4 3 5 6 pfet_01v8_hvt L=150000U W=6000000U AS=810000000000P
+ AD=935000000000P PS=7620000U PD=8870000U
* device instance $9 r0 *1 0.73,0.56 nfet_01v8
M$9 3 2 1 7 nfet_01v8 L=150000U W=1300000U AS=256750000000P AD=175500000000P
+ PS=2740000U PD=1840000U
* device instance $11 r0 *1 1.57,0.56 nfet_01v8
M$11 4 3 1 7 nfet_01v8 L=150000U W=3900000U AS=526500000000P AD=607750000000P
+ PS=5520000U PD=6420000U
.ENDS sky130_fd_sc_hd__buf_6

* cell sky130_fd_sc_hd__and3_1
* pin VGND
* pin B
* pin X
* pin A
* pin C
* pin VPWR
* pin VPB
* pin 
.SUBCKT sky130_fd_sc_hd__and3_1 1 2 3 6 7 9 10 11
* net 1 VGND
* net 2 B
* net 3 X
* net 6 A
* net 7 C
* net 9 VPWR
* net 10 VPB
* device instance $1 r0 *1 0.47,1.71 pfet_01v8_hvt
M$1 9 6 8 10 pfet_01v8_hvt L=150000U W=420000U AS=109200000000P AD=56700000000P
+ PS=1360000U PD=690000U
* device instance $2 r0 *1 0.89,1.71 pfet_01v8_hvt
M$2 8 2 9 10 pfet_01v8_hvt L=150000U W=420000U AS=56700000000P AD=66150000000P
+ PS=690000U PD=735000U
* device instance $3 r0 *1 1.355,1.71 pfet_01v8_hvt
M$3 8 7 9 10 pfet_01v8_hvt L=150000U W=420000U AS=142225000000P AD=66150000000P
+ PS=1335000U PD=735000U
* device instance $4 r0 *1 1.83,1.985 pfet_01v8_hvt
M$4 3 8 9 10 pfet_01v8_hvt L=150000U W=1000000U AS=142225000000P
+ AD=260000000000P PS=1335000U PD=2520000U
* device instance $5 r0 *1 0.47,0.445 nfet_01v8
M$5 5 6 8 11 nfet_01v8 L=150000U W=420000U AS=109200000000P AD=44100000000P
+ PS=1360000U PD=630000U
* device instance $6 r0 *1 0.83,0.445 nfet_01v8
M$6 4 2 5 11 nfet_01v8 L=150000U W=420000U AS=44100000000P AD=44100000000P
+ PS=630000U PD=630000U
* device instance $7 r0 *1 1.19,0.445 nfet_01v8
M$7 1 7 4 11 nfet_01v8 L=150000U W=420000U AS=44100000000P AD=131650000000P
+ PS=630000U PD=1140000U
* device instance $8 r0 *1 1.83,0.56 nfet_01v8
M$8 3 8 1 11 nfet_01v8 L=150000U W=650000U AS=131650000000P AD=169000000000P
+ PS=1140000U PD=1820000U
.ENDS sky130_fd_sc_hd__and3_1

* cell sky130_fd_sc_hd__o2111ai_1
* pin VPB
* pin D1
* pin C1
* pin B1
* pin A2
* pin A1
* pin VPWR
* pin Y
* pin VGND
* pin 
.SUBCKT sky130_fd_sc_hd__o2111ai_1 1 2 3 4 5 6 8 9 10 11
* net 1 VPB
* net 2 D1
* net 3 C1
* net 4 B1
* net 5 A2
* net 6 A1
* net 8 VPWR
* net 9 Y
* net 10 VGND
* device instance $1 r0 *1 0.67,1.985 pfet_01v8_hvt
M$1 9 2 8 1 pfet_01v8_hvt L=150000U W=1000000U AS=265000000000P
+ AD=140000000000P PS=2530000U PD=1280000U
* device instance $2 r0 *1 1.1,1.985 pfet_01v8_hvt
M$2 8 3 9 1 pfet_01v8_hvt L=150000U W=1000000U AS=140000000000P
+ AD=195000000000P PS=1280000U PD=1390000U
* device instance $3 r0 *1 1.64,1.985 pfet_01v8_hvt
M$3 9 4 8 1 pfet_01v8_hvt L=150000U W=1000000U AS=195000000000P
+ AD=202500000000P PS=1390000U PD=1405000U
* device instance $4 r0 *1 2.195,1.985 pfet_01v8_hvt
M$4 12 5 9 1 pfet_01v8_hvt L=150000U W=1000000U AS=202500000000P
+ AD=195000000000P PS=1405000U PD=1390000U
* device instance $5 r0 *1 2.735,1.985 pfet_01v8_hvt
M$5 8 6 12 1 pfet_01v8_hvt L=150000U W=1000000U AS=195000000000P
+ AD=265000000000P PS=1390000U PD=2530000U
* device instance $6 r0 *1 0.74,0.56 nfet_01v8
M$6 14 2 9 11 nfet_01v8 L=150000U W=650000U AS=172250000000P AD=68250000000P
+ PS=1830000U PD=860000U
* device instance $7 r0 *1 1.1,0.56 nfet_01v8
M$7 13 3 14 11 nfet_01v8 L=150000U W=650000U AS=68250000000P AD=126750000000P
+ PS=860000U PD=1040000U
* device instance $8 r0 *1 1.64,0.56 nfet_01v8
M$8 7 4 13 11 nfet_01v8 L=150000U W=650000U AS=126750000000P AD=131625000000P
+ PS=1040000U PD=1055000U
* device instance $9 r0 *1 2.195,0.56 nfet_01v8
M$9 10 5 7 11 nfet_01v8 L=150000U W=650000U AS=131625000000P AD=126750000000P
+ PS=1055000U PD=1040000U
* device instance $10 r0 *1 2.735,0.56 nfet_01v8
M$10 7 6 10 11 nfet_01v8 L=150000U W=650000U AS=126750000000P AD=172250000000P
+ PS=1040000U PD=1830000U
.ENDS sky130_fd_sc_hd__o2111ai_1

* cell sky130_fd_sc_hd__o211ai_1
* pin VPB
* pin A1
* pin A2
* pin B1
* pin C1
* pin Y
* pin VPWR
* pin VGND
* pin 
.SUBCKT sky130_fd_sc_hd__o211ai_1 1 2 3 4 5 7 8 9 10
* net 1 VPB
* net 2 A1
* net 3 A2
* net 4 B1
* net 5 C1
* net 7 Y
* net 8 VPWR
* net 9 VGND
* device instance $1 r0 *1 0.475,1.985 pfet_01v8_hvt
M$1 11 2 8 1 pfet_01v8_hvt L=150000U W=1000000U AS=265000000000P
+ AD=105000000000P PS=2530000U PD=1210000U
* device instance $2 r0 *1 0.835,1.985 pfet_01v8_hvt
M$2 7 3 11 1 pfet_01v8_hvt L=150000U W=1000000U AS=105000000000P
+ AD=195000000000P PS=1210000U PD=1390000U
* device instance $3 r0 *1 1.375,1.985 pfet_01v8_hvt
M$3 8 4 7 1 pfet_01v8_hvt L=150000U W=1000000U AS=195000000000P
+ AD=195000000000P PS=1390000U PD=1390000U
* device instance $4 r0 *1 1.915,1.985 pfet_01v8_hvt
M$4 7 5 8 1 pfet_01v8_hvt L=150000U W=1000000U AS=195000000000P
+ AD=635000000000P PS=1390000U PD=3270000U
* device instance $5 r0 *1 0.475,0.56 nfet_01v8
M$5 9 2 6 10 nfet_01v8 L=150000U W=650000U AS=172250000000P AD=126750000000P
+ PS=1830000U PD=1040000U
* device instance $6 r0 *1 1.015,0.56 nfet_01v8
M$6 6 3 9 10 nfet_01v8 L=150000U W=650000U AS=126750000000P AD=126750000000P
+ PS=1040000U PD=1040000U
* device instance $7 r0 *1 1.555,0.56 nfet_01v8
M$7 12 4 6 10 nfet_01v8 L=150000U W=650000U AS=126750000000P AD=68250000000P
+ PS=1040000U PD=860000U
* device instance $8 r0 *1 1.915,0.56 nfet_01v8
M$8 7 5 12 10 nfet_01v8 L=150000U W=650000U AS=68250000000P AD=393250000000P
+ PS=860000U PD=2510000U
.ENDS sky130_fd_sc_hd__o211ai_1

* cell sky130_fd_sc_hd__nor2b_1
* pin VPB
* pin A
* pin B_N
* pin Y
* pin VGND
* pin VPWR
* pin 
.SUBCKT sky130_fd_sc_hd__nor2b_1 1 2 3 4 6 7 8
* net 1 VPB
* net 2 A
* net 3 B_N
* net 4 Y
* net 6 VGND
* net 7 VPWR
* device instance $1 r0 *1 0.71,1.695 pfet_01v8_hvt
M$1 7 3 5 1 pfet_01v8_hvt L=150000U W=420000U AS=109200000000P AD=157300000000P
+ PS=1360000U PD=1390000U
* device instance $2 r0 *1 1.25,1.985 pfet_01v8_hvt
M$2 9 2 7 1 pfet_01v8_hvt L=150000U W=1000000U AS=157300000000P
+ AD=105000000000P PS=1390000U PD=1210000U
* device instance $3 r0 *1 1.61,1.985 pfet_01v8_hvt
M$3 4 5 9 1 pfet_01v8_hvt L=150000U W=1000000U AS=105000000000P
+ AD=260000000000P PS=1210000U PD=2520000U
* device instance $4 r0 *1 0.705,0.445 nfet_01v8
M$4 6 3 5 8 nfet_01v8 L=150000U W=420000U AS=109200000000P AD=100250000000P
+ PS=1360000U PD=985000U
* device instance $5 r0 *1 1.19,0.56 nfet_01v8
M$5 4 2 6 8 nfet_01v8 L=150000U W=650000U AS=100250000000P AD=87750000000P
+ PS=985000U PD=920000U
* device instance $6 r0 *1 1.61,0.56 nfet_01v8
M$6 6 5 4 8 nfet_01v8 L=150000U W=650000U AS=87750000000P AD=169000000000P
+ PS=920000U PD=1820000U
.ENDS sky130_fd_sc_hd__nor2b_1

* cell sky130_fd_sc_hd__buf_4
* pin VPB
* pin A
* pin VPWR
* pin VGND
* pin X
* pin 
.SUBCKT sky130_fd_sc_hd__buf_4 1 3 4 5 6 7
* net 1 VPB
* net 3 A
* net 4 VPWR
* net 5 VGND
* net 6 X
* device instance $1 r0 *1 0.47,1.985 pfet_01v8_hvt
M$1 4 3 2 1 pfet_01v8_hvt L=150000U W=1000000U AS=260000000000P
+ AD=135000000000P PS=2520000U PD=1270000U
* device instance $2 r0 *1 0.89,1.985 pfet_01v8_hvt
M$2 6 2 4 1 pfet_01v8_hvt L=150000U W=4000000U AS=540000000000P
+ AD=665000000000P PS=5080000U PD=6330000U
* device instance $6 r0 *1 0.47,0.56 nfet_01v8
M$6 5 3 2 7 nfet_01v8 L=150000U W=650000U AS=169000000000P AD=87750000000P
+ PS=1820000U PD=920000U
* device instance $7 r0 *1 0.89,0.56 nfet_01v8
M$7 6 2 5 7 nfet_01v8 L=150000U W=2600000U AS=351000000000P AD=432250000000P
+ PS=3680000U PD=4580000U
.ENDS sky130_fd_sc_hd__buf_4

* cell sky130_fd_sc_hd__dlygate4sd3_1
* pin VPB
* pin A
* pin VPWR
* pin X
* pin VGND
* pin 
.SUBCKT sky130_fd_sc_hd__dlygate4sd3_1 1 3 5 7 8 9
* net 1 VPB
* net 3 A
* net 5 VPWR
* net 7 X
* net 8 VGND
* device instance $1 r0 *1 2.465,2.275 pfet_01v8_hvt
M$1 6 2 5 1 pfet_01v8_hvt L=500000U W=420000U AS=140750000000P AD=109200000000P
+ PS=1325000U PD=1360000U
* device instance $2 r0 *1 3.115,1.985 pfet_01v8_hvt
M$2 7 6 5 1 pfet_01v8_hvt L=150000U W=1000000U AS=140750000000P
+ AD=260000000000P PS=1325000U PD=2520000U
* device instance $3 r0 *1 0.58,2.275 pfet_01v8_hvt
M$3 5 3 4 1 pfet_01v8_hvt L=150000U W=420000U AS=109200000000P AD=56700000000P
+ PS=1360000U PD=690000U
* device instance $4 r0 *1 1.175,2.275 pfet_01v8_hvt
M$4 2 4 5 1 pfet_01v8_hvt L=500000U W=420000U AS=56700000000P AD=109200000000P
+ PS=690000U PD=1360000U
* device instance $5 r0 *1 2.465,0.445 nfet_01v8
M$5 8 2 6 9 nfet_01v8 L=500000U W=420000U AS=109200000000P AD=97000000000P
+ PS=1360000U PD=975000U
* device instance $6 r0 *1 3.115,0.56 nfet_01v8
M$6 7 6 8 9 nfet_01v8 L=150000U W=650000U AS=97000000000P AD=169000000000P
+ PS=975000U PD=1820000U
* device instance $7 r0 *1 0.58,0.445 nfet_01v8
M$7 8 3 4 9 nfet_01v8 L=150000U W=420000U AS=109200000000P AD=56700000000P
+ PS=1360000U PD=690000U
* device instance $8 r0 *1 1.175,0.445 nfet_01v8
M$8 2 4 8 9 nfet_01v8 L=500000U W=420000U AS=56700000000P AD=109200000000P
+ PS=690000U PD=1360000U
.ENDS sky130_fd_sc_hd__dlygate4sd3_1

* cell sky130_fd_sc_hd__a211oi_1
* pin VPB
* pin A2
* pin A1
* pin C1
* pin B1
* pin VGND
* pin Y
* pin VPWR
* pin 
.SUBCKT sky130_fd_sc_hd__a211oi_1 1 2 3 4 5 6 7 9 10
* net 1 VPB
* net 2 A2
* net 3 A1