* CDL Netlist generated by OpenROAD

*.BUSDELIMITER [

.SUBCKT parameterized_cam clk compare_data[0] compare_data[1]
+ compare_data[2] compare_data[3] compare_data[4] compare_data[5]
+ compare_data[6] compare_data[7] compare_enable match match_addr[0]
+ match_addr[1] match_addr[2] match_addr[3] rst_n valid write_addr[0]
+ write_addr[1] write_addr[2] write_addr[3] write_data[0] write_data[1]
+ write_data[2] write_data[3] write_data[4] write_data[5] write_data[6]
+ write_data[7] write_enable
X_462_ net3 _149_ VDD VSS gf180mcu_fd_sc_mcu9t5v0__clkbuf_8
X_463_ _149_ cam_memory\[14\]\[1\] _150_ VDD VSS gf180mcu_fd_sc_mcu9t5v0__xnor2_2
X_464_ net8 cam_memory\[14\]\[6\] _151_ VDD VSS gf180mcu_fd_sc_mcu9t5v0__xnor2_2
X_465_ net7 cam_memory\[14\]\[5\] _152_ VDD VSS gf180mcu_fd_sc_mcu9t5v0__xnor2_2
X_466_ net9 cam_memory\[14\]\[7\] _153_ VDD VSS gf180mcu_fd_sc_mcu9t5v0__xnor2_2
X_467_ _151_ _152_ _153_ _154_ VDD VSS gf180mcu_fd_sc_mcu9t5v0__and3_2
X_468_ net6 cam_memory\[14\]\[4\] _155_ VDD VSS gf180mcu_fd_sc_mcu9t5v0__xnor2_2
X_469_ net4 cam_memory\[14\]\[2\] _156_ VDD VSS gf180mcu_fd_sc_mcu9t5v0__xnor2_2
X_470_ net5 cam_memory\[14\]\[3\] _157_ VDD VSS gf180mcu_fd_sc_mcu9t5v0__xnor2_2
X_471_ net2 cam_memory\[14\]\[0\] _158_ VDD VSS gf180mcu_fd_sc_mcu9t5v0__xnor2_2
X_472_ _155_ _156_ _157_ _158_ _159_ VDD VSS gf180mcu_fd_sc_mcu9t5v0__and4_2
X_473_ valid_bits\[14\] _150_ _154_ _159_ _160_ VDD VSS gf180mcu_fd_sc_mcu9t5v0__and4_2
X_474_ net2 _161_ VDD VSS gf180mcu_fd_sc_mcu9t5v0__clkbuf_12
X_475_ _161_ cam_memory\[15\]\[0\] _162_ VDD VSS gf180mcu_fd_sc_mcu9t5v0__xnor2_2
X_476_ net7 _163_ VDD VSS gf180mcu_fd_sc_mcu9t5v0__clkbuf_8
X_477_ _163_ cam_memory\[15\]\[5\] _164_ VDD VSS gf180mcu_fd_sc_mcu9t5v0__xnor2_2
X_478_ net8 _165_ VDD VSS gf180mcu_fd_sc_mcu9t5v0__clkbuf_8
X_479_ _165_ cam_memory\[15\]\[6\] _166_ VDD VSS gf180mcu_fd_sc_mcu9t5v0__xnor2_2
X_480_ net9 cam_memory\[15\]\[7\] _167_ VDD VSS gf180mcu_fd_sc_mcu9t5v0__xnor2_2
X_481_ _164_ _166_ _167_ _168_ VDD VSS gf180mcu_fd_sc_mcu9t5v0__and3_2
X_482_ net6 _169_ VDD VSS gf180mcu_fd_sc_mcu9t5v0__buf_8
X_483_ _169_ cam_memory\[15\]\[4\] _170_ VDD VSS gf180mcu_fd_sc_mcu9t5v0__xnor2_2
X_484_ net4 _171_ VDD VSS gf180mcu_fd_sc_mcu9t5v0__buf_8
X_485_ _171_ cam_memory\[15\]\[2\] _172_ VDD VSS gf180mcu_fd_sc_mcu9t5v0__xnor2_2
X_486_ net3 cam_memory\[15\]\[1\] _173_ VDD VSS gf180mcu_fd_sc_mcu9t5v0__xnor2_2
X_487_ net5 cam_memory\[15\]\[3\] _174_ VDD VSS gf180mcu_fd_sc_mcu9t5v0__xnor2_2
X_488_ _170_ _172_ _173_ _174_ _175_ VDD VSS gf180mcu_fd_sc_mcu9t5v0__and4_2
X_489_ valid_bits\[15\] _162_ _168_ _175_ _176_ VDD VSS gf180mcu_fd_sc_mcu9t5v0__and4_2
X_490_ _149_ cam_memory\[12\]\[1\] _177_ VDD VSS gf180mcu_fd_sc_mcu9t5v0__xnor2_2
X_491_ net9 cam_memory\[12\]\[7\] _178_ VDD VSS gf180mcu_fd_sc_mcu9t5v0__xnor2_2
X_492_ net4 cam_memory\[12\]\[2\] _179_ VDD VSS gf180mcu_fd_sc_mcu9t5v0__xnor2_2
X_493_ net8 cam_memory\[12\]\[6\] _180_ VDD VSS gf180mcu_fd_sc_mcu9t5v0__xnor2_2
X_494_ _178_ _179_ _180_ _181_ VDD VSS gf180mcu_fd_sc_mcu9t5v0__and3_2
X_495_ net7 cam_memory\[12\]\[5\] _182_ VDD VSS gf180mcu_fd_sc_mcu9t5v0__xnor2_2
X_496_ net5 cam_memory\[12\]\[3\] _183_ VDD VSS gf180mcu_fd_sc_mcu9t5v0__xnor2_2
X_497_ net2 cam_memory\[12\]\[0\] _184_ VDD VSS gf180mcu_fd_sc_mcu9t5v0__xnor2_2
X_498_ net6 cam_memory\[12\]\[4\] _185_ VDD VSS gf180mcu_fd_sc_mcu9t5v0__xnor2_2
X_499_ _182_ _183_ _184_ _185_ _186_ VDD VSS gf180mcu_fd_sc_mcu9t5v0__and4_2
X_500_ valid_bits\[12\] _177_ _181_ _186_ _187_ VDD VSS gf180mcu_fd_sc_mcu9t5v0__and4_2
X_501_ _149_ cam_memory\[13\]\[1\] _188_ VDD VSS gf180mcu_fd_sc_mcu9t5v0__xnor2_2
X_502_ net8 cam_memory\[13\]\[6\] _189_ VDD VSS gf180mcu_fd_sc_mcu9t5v0__xnor2_2
X_503_ _169_ cam_memory\[13\]\[4\] _190_ VDD VSS gf180mcu_fd_sc_mcu9t5v0__xnor2_2
X_504_ net9 cam_memory\[13\]\[7\] _191_ VDD VSS gf180mcu_fd_sc_mcu9t5v0__xnor2_2
X_505_ _189_ _190_ _191_ _192_ VDD VSS gf180mcu_fd_sc_mcu9t5v0__and3_2
X_506_ net5 cam_memory\[13\]\[3\] _193_ VDD VSS gf180mcu_fd_sc_mcu9t5v0__xnor2_2
X_507_ net7 cam_memory\[13\]\[5\] _194_ VDD VSS gf180mcu_fd_sc_mcu9t5v0__xnor2_2
X_508_ net4 cam_memory\[13\]\[2\] _195_ VDD VSS gf180mcu_fd_sc_mcu9t5v0__xnor2_2
X_509_ net2 cam_memory\[13\]\[0\] _196_ VDD VSS gf180mcu_fd_sc_mcu9t5v0__xnor2_2
X_510_ _193_ _194_ _195_ _196_ _197_ VDD VSS gf180mcu_fd_sc_mcu9t5v0__and4_2
X_511_ valid_bits\[13\] _188_ _192_ _197_ _198_ VDD VSS gf180mcu_fd_sc_mcu9t5v0__and4_2
X_512_ _160_ _176_ _187_ _198_ _199_ VDD VSS gf180mcu_fd_sc_mcu9t5v0__nor4_4
X_513_ _161_ cam_memory\[9\]\[0\] _200_ VDD VSS gf180mcu_fd_sc_mcu9t5v0__xnor2_2
X_514_ net8 cam_memory\[9\]\[6\] _201_ VDD VSS gf180mcu_fd_sc_mcu9t5v0__xnor2_2
X_515_ net7 cam_memory\[9\]\[5\] _202_ VDD VSS gf180mcu_fd_sc_mcu9t5v0__xnor2_2
X_516_ net9 cam_memory\[9\]\[7\] _203_ VDD VSS gf180mcu_fd_sc_mcu9t5v0__xnor2_2
X_517_ _201_ _202_ _203_ _204_ VDD VSS gf180mcu_fd_sc_mcu9t5v0__and3_2
X_518_ net5 cam_memory\[9\]\[3\] _205_ VDD VSS gf180mcu_fd_sc_mcu9t5v0__xnor2_2
X_519_ net4 cam_memory\[9\]\[2\] _206_ VDD VSS gf180mcu_fd_sc_mcu9t5v0__xnor2_2
X_520_ net3 cam_memory\[9\]\[1\] _207_ VDD VSS gf180mcu_fd_sc_mcu9t5v0__xnor2_2
X_521_ net6 cam_memory\[9\]\[4\] _208_ VDD VSS gf180mcu_fd_sc_mcu9t5v0__xnor2_2
X_522_ _205_ _206_ _207_ _208_ _209_ VDD VSS gf180mcu_fd_sc_mcu9t5v0__and4_2
X_523_ valid_bits\[9\] _200_ _204_ _209_ _210_ VDD VSS gf180mcu_fd_sc_mcu9t5v0__and4_2
X_524_ _149_ cam_memory\[11\]\[1\] _211_ VDD VSS gf180mcu_fd_sc_mcu9t5v0__xnor2_2
X_525_ _165_ cam_memory\[11\]\[6\] _212_ VDD VSS gf180mcu_fd_sc_mcu9t5v0__xnor2_2
X_526_ _163_ cam_memory\[11\]\[5\] _213_ VDD VSS gf180mcu_fd_sc_mcu9t5v0__xnor2_2
X_527_ net9 _214_ VDD VSS gf180mcu_fd_sc_mcu9t5v0__clkbuf_8
X_528_ _214_ cam_memory\[11\]\[7\] _215_ VDD VSS gf180mcu_fd_sc_mcu9t5v0__xnor2_2
X_529_ _212_ _213_ _215_ _216_ VDD VSS gf180mcu_fd_sc_mcu9t5v0__and3_2
X_530_ net5 _217_ VDD VSS gf180mcu_fd_sc_mcu9t5v0__clkbuf_12
X_531_ _217_ cam_memory\[11\]\[3\] _218_ VDD VSS gf180mcu_fd_sc_mcu9t5v0__xnor2_2
X_532_ _169_ cam_memory\[11\]\[4\] _219_ VDD VSS gf180mcu_fd_sc_mcu9t5v0__xnor2_2
X_533_ _171_ cam_memory\[11\]\[2\] _220_ VDD VSS gf180mcu_fd_sc_mcu9t5v0__xnor2_2
X_534_ _161_ cam_memory\[11\]\[0\] _221_ VDD VSS gf180mcu_fd_sc_mcu9t5v0__xnor2_2
X_535_ _218_ _219_ _220_ _221_ _222_ VDD VSS gf180mcu_fd_sc_mcu9t5v0__and4_2
X_536_ valid_bits\[11\] _211_ _216_ _222_ _223_ VDD VSS gf180mcu_fd_sc_mcu9t5v0__and4_2
X_537_ _210_ _223_ _224_ VDD VSS gf180mcu_fd_sc_mcu9t5v0__nor2_2
X_538_ _149_ cam_memory\[8\]\[1\] _225_ VDD VSS gf180mcu_fd_sc_mcu9t5v0__xnor2_2
X_539_ net8 cam_memory\[8\]\[6\] _226_ VDD VSS gf180mcu_fd_sc_mcu9t5v0__xnor2_2
X_540_ net9 cam_memory\[8\]\[7\] _227_ VDD VSS gf180mcu_fd_sc_mcu9t5v0__xnor2_2
X_541_ net4 cam_memory\[8\]\[2\] _228_ VDD VSS gf180mcu_fd_sc_mcu9t5v0__xnor2_2
X_542_ _226_ _227_ _228_ _229_ VDD VSS gf180mcu_fd_sc_mcu9t5v0__and3_2
X_543_ net7 cam_memory\[8\]\[5\] _230_ VDD VSS gf180mcu_fd_sc_mcu9t5v0__xnor2_2
X_544_ net5 cam_memory\[8\]\[3\] _231_ VDD VSS gf180mcu_fd_sc_mcu9t5v0__xnor2_2
X_545_ net6 cam_memory\[8\]\[4\] _232_ VDD VSS gf180mcu_fd_sc_mcu9t5v0__xnor2_2
X_546_ net2 cam_memory\[8\]\[0\] _233_ VDD VSS gf180mcu_fd_sc_mcu9t5v0__xnor2_2
X_547_ _230_ _231_ _232_ _233_ _234_ VDD VSS gf180mcu_fd_sc_mcu9t5v0__and4_2
X_548_ valid_bits\[8\] _225_ _229_ _234_ _235_ VDD VSS gf180mcu_fd_sc_mcu9t5v0__and4_2
X_549_ _161_ cam_memory\[10\]\[0\] _236_ VDD VSS gf180mcu_fd_sc_mcu9t5v0__xnor2_2
X_550_ net8 cam_memory\[10\]\[6\] _237_ VDD VSS gf180mcu_fd_sc_mcu9t5v0__xnor2_2
X_551_ net7 cam_memory\[10\]\[5\] _238_ VDD VSS gf180mcu_fd_sc_mcu9t5v0__xnor2_2
X_552_ net9 cam_memory\[10\]\[7\] _239_ VDD VSS gf180mcu_fd_sc_mcu9t5v0__xnor2_2
X_553_ _237_ _238_ _239_ _240_ VDD VSS gf180mcu_fd_sc_mcu9t5v0__and3_2
X_554_ _217_ cam_memory\[10\]\[3\] _241_ VDD VSS gf180mcu_fd_sc_mcu9t5v0__xnor2_2
X_555_ net3 cam_memory\[10\]\[1\] _242_ VDD VSS gf180mcu_fd_sc_mcu9t5v0__xnor2_2
X_556_ net4 cam_memory\[10\]\[2\] _243_ VDD VSS gf180mcu_fd_sc_mcu9t5v0__xnor2_2
X_557_ net6 cam_memory\[10\]\[4\] _244_ VDD VSS gf180mcu_fd_sc_mcu9t5v0__xnor2_2
X_558_ _241_ _242_ _243_ _244_ _245_ VDD VSS gf180mcu_fd_sc_mcu9t5v0__and4_2
X_559_ valid_bits\[10\] _236_ _240_ _245_ _246_ VDD VSS gf180mcu_fd_sc_mcu9t5v0__and4_2
X_560_ _235_ _246_ _247_ VDD VSS gf180mcu_fd_sc_mcu9t5v0__nor2_2
X_561_ _199_ _224_ _247_ _248_ VDD VSS gf180mcu_fd_sc_mcu9t5v0__nand3_2
X_562_ _149_ cam_memory\[7\]\[1\] _249_ VDD VSS gf180mcu_fd_sc_mcu9t5v0__xnor2_2
X_563_ _165_ cam_memory\[7\]\[6\] _250_ VDD VSS gf180mcu_fd_sc_mcu9t5v0__xnor2_2
X_564_ _163_ cam_memory\[7\]\[5\] _251_ VDD VSS gf180mcu_fd_sc_mcu9t5v0__xnor2_2
X_565_ _214_ cam_memory\[7\]\[7\] _252_ VDD VSS gf180mcu_fd_sc_mcu9t5v0__xnor2_2
X_566_ _250_ _251_ _252_ _253_ VDD VSS gf180mcu_fd_sc_mcu9t5v0__and3_2
X_567_ _217_ cam_memory\[7\]\[3\] _254_ VDD VSS gf180mcu_fd_sc_mcu9t5v0__xnor2_2
X_568_ net2 cam_memory\[7\]\[0\] _255_ VDD VSS gf180mcu_fd_sc_mcu9t5v0__xnor2_2
X_569_ _171_ cam_memory\[7\]\[2\] _256_ VDD VSS gf180mcu_fd_sc_mcu9t5v0__xnor2_2
X_570_ net6 cam_memory\[7\]\[4\] _257_ VDD VSS gf180mcu_fd_sc_mcu9t5v0__xnor2_2
X_571_ _254_ _255_ _256_ _257_ _258_ VDD VSS gf180mcu_fd_sc_mcu9t5v0__and4_2
X_572_ valid_bits\[7\] _249_ _253_ _258_ _259_ VDD VSS gf180mcu_fd_sc_mcu9t5v0__nand4_4
X_573_ _161_ cam_memory\[5\]\[0\] _260_ VDD VSS gf180mcu_fd_sc_mcu9t5v0__xnor2_2
X_574_ _214_ cam_memory\[5\]\[7\] _261_ VDD VSS gf180mcu_fd_sc_mcu9t5v0__xnor2_2
X_575_ _171_ cam_memory\[5\]\[2\] _262_ VDD VSS gf180mcu_fd_sc_mcu9t5v0__xnor2_2
X_576_ _165_ cam_memory\[5\]\[6\] _263_ VDD VSS gf180mcu_fd_sc_mcu9t5v0__xnor2_2
X_577_ _261_ _262_ _263_ _264_ VDD VSS gf180mcu_fd_sc_mcu9t5v0__and3_2
X_578_ _169_ cam_memory\[5\]\[4\] _265_ VDD VSS gf180mcu_fd_sc_mcu9t5v0__xnor2_2
X_579_ net3 cam_memory\[5\]\[1\] _266_ VDD VSS gf180mcu_fd_sc_mcu9t5v0__xnor2_2
X_580_ _217_ cam_memory\[5\]\[3\] _267_ VDD VSS gf180mcu_fd_sc_mcu9t5v0__xnor2_2
X_581_ _163_ cam_memory\[5\]\[5\] _268_ VDD VSS gf180mcu_fd_sc_mcu9t5v0__xnor2_2
X_582_ _265_ _266_ _267_ _268_ _269_ VDD VSS gf180mcu_fd_sc_mcu9t5v0__and4_2
X_583_ valid_bits\[5\] _260_ _264_ _269_ _270_ VDD VSS gf180mcu_fd_sc_mcu9t5v0__nand4_4
X_584_ _161_ cam_memory\[6\]\[0\] _271_ VDD VSS gf180mcu_fd_sc_mcu9t5v0__xnor2_2
X_585_ _165_ cam_memory\[6\]\[6\] _272_ VDD VSS gf180mcu_fd_sc_mcu9t5v0__xnor2_2
X_586_ _163_ cam_memory\[6\]\[5\] _273_ VDD VSS gf180mcu_fd_sc_mcu9t5v0__xnor2_2
X_587_ _214_ cam_memory\[6\]\[7\] _274_ VDD VSS gf180mcu_fd_sc_mcu9t5v0__xnor2_2
X_588_ _272_ _273_ _274_ _275_ VDD VSS gf180mcu_fd_sc_mcu9t5v0__and3_2
X_589_ _171_ cam_memory\[6\]\[2\] _276_ VDD VSS gf180mcu_fd_sc_mcu9t5v0__xnor2_2
X_590_ net3 cam_memory\[6\]\[1\] _277_ VDD VSS gf180mcu_fd_sc_mcu9t5v0__xnor2_2
X_591_ _217_ cam_memory\[6\]\[3\] _278_ VDD VSS gf180mcu_fd_sc_mcu9t5v0__xnor2_2
X_592_ _169_ cam_memory\[6\]\[4\] _279_ VDD VSS gf180mcu_fd_sc_mcu9t5v0__xnor2_2
X_593_ _276_ _277_ _278_ _279_ _280_ VDD VSS gf180mcu_fd_sc_mcu9t5v0__and4_2
X_594_ valid_bits\[6\] _271_ _275_ _280_ _281_ VDD VSS gf180mcu_fd_sc_mcu9t5v0__nand4_4
X_595_ _161_ cam_memory\[4\]\[0\] _282_ VDD VSS gf180mcu_fd_sc_mcu9t5v0__xnor2_2
X_596_ _163_ cam_memory\[4\]\[5\] _283_ VDD VSS gf180mcu_fd_sc_mcu9t5v0__xnor2_2
X_597_ _169_ cam_memory\[4\]\[4\] _284_ VDD VSS gf180mcu_fd_sc_mcu9t5v0__xnor2_2
X_598_ _214_ cam_memory\[4\]\[7\] _285_ VDD VSS gf180mcu_fd_sc_mcu9t5v0__xnor2_2
X_599_ _283_ _284_ _285_ _286_ VDD VSS gf180mcu_fd_sc_mcu9t5v0__and3_2
X_600_ _217_ cam_memory\[4\]\[3\] _287_ VDD VSS gf180mcu_fd_sc_mcu9t5v0__xnor2_2
X_601_ _149_ cam_memory\[4\]\[1\] _288_ VDD VSS gf180mcu_fd_sc_mcu9t5v0__xnor2_2
X_602_ _171_ cam_memory\[4\]\[2\] _289_ VDD VSS gf180mcu_fd_sc_mcu9t5v0__xnor2_2
X_603_ _165_ cam_memory\[4\]\[6\] _290_ VDD VSS gf180mcu_fd_sc_mcu9t5v0__xnor2_2
X_604_ _287_ _288_ _289_ _290_ _291_ VDD VSS gf180mcu_fd_sc_mcu9t5v0__and4_2
X_605_ valid_bits\[4\] _282_ _286_ _291_ _292_ VDD VSS gf180mcu_fd_sc_mcu9t5v0__nand4_2
X_606_ _259_ _270_ _281_ _292_ _293_ VDD VSS gf180mcu_fd_sc_mcu9t5v0__and4_2
X_607_ _149_ cam_memory\[3\]\[1\] _294_ VDD VSS gf180mcu_fd_sc_mcu9t5v0__xnor2_2
X_608_ _165_ cam_memory\[3\]\[6\] _295_ VDD VSS gf180mcu_fd_sc_mcu9t5v0__xnor2_2
X_609_ _169_ cam_memory\[3\]\[4\] _296_ VDD VSS gf180mcu_fd_sc_mcu9t5v0__xnor2_2
X_610_ _214_ cam_memory\[3\]\[7\] _297_ VDD VSS gf180mcu_fd_sc_mcu9t5v0__xnor2_2
X_611_ _295_ _296_ _297_ _298_ VDD VSS gf180mcu_fd_sc_mcu9t5v0__and3_2
X_612_ _171_ cam_memory\[3\]\[2\] _299_ VDD VSS gf180mcu_fd_sc_mcu9t5v0__xnor2_2
X_613_ _161_ cam_memory\[3\]\[0\] _300_ VDD VSS gf180mcu_fd_sc_mcu9t5v0__xnor2_2
X_614_ _217_ cam_memory\[3\]\[3\] _301_ VDD VSS gf180mcu_fd_sc_mcu9t5v0__xnor2_2
X_615_ _163_ cam_memory\[3\]\[5\] _302_ VDD VSS gf180mcu_fd_sc_mcu9t5v0__xnor2_2
X_616_ _299_ _300_ _301_ _302_ _303_ VDD VSS gf180mcu_fd_sc_mcu9t5v0__and4_2
X_617_ valid_bits\[3\] _294_ _298_ _303_ _304_ VDD VSS gf180mcu_fd_sc_mcu9t5v0__nand4_2
X_618_ _161_ cam_memory\[2\]\[0\] _305_ VDD VSS gf180mcu_fd_sc_mcu9t5v0__xnor2_2
X_619_ _165_ cam_memory\[2\]\[6\] _306_ VDD VSS gf180mcu_fd_sc_mcu9t5v0__xor2_2
X_620_ _163_ cam_memory\[2\]\[5\] _307_ VDD VSS gf180mcu_fd_sc_mcu9t5v0__xor2_2
X_621_ _214_ cam_memory\[2\]\[7\] _308_ VDD VSS gf180mcu_fd_sc_mcu9t5v0__xor2_2
X_622_ _306_ _307_ _308_ _309_ VDD VSS gf180mcu_fd_sc_mcu9t5v0__nor3_2
X_623_ _217_ cam_memory\[2\]\[3\] _310_ VDD VSS gf180mcu_fd_sc_mcu9t5v0__xnor2_2
X_624_ _149_ cam_memory\[2\]\[1\] _311_ VDD VSS gf180mcu_fd_sc_mcu9t5v0__xnor2_2
X_625_ _171_ cam_memory\[2\]\[2\] _312_ VDD VSS gf180mcu_fd_sc_mcu9t5v0__xnor2_2
X_626_ _169_ cam_memory\[2\]\[4\] _313_ VDD VSS gf180mcu_fd_sc_mcu9t5v0__xnor2_2
X_627_ _310_ _311_ _312_ _313_ _314_ VDD VSS gf180mcu_fd_sc_mcu9t5v0__and4_2
X_628_ valid_bits\[2\] _305_ _309_ _314_ _315_ VDD VSS gf180mcu_fd_sc_mcu9t5v0__nand4_4
X_629_ _149_ cam_memory\[0\]\[1\] _316_ VDD VSS gf180mcu_fd_sc_mcu9t5v0__xnor2_2
X_630_ _165_ cam_memory\[0\]\[6\] _317_ VDD VSS gf180mcu_fd_sc_mcu9t5v0__xnor2_2
X_631_ _169_ cam_memory\[0\]\[4\] _318_ VDD VSS gf180mcu_fd_sc_mcu9t5v0__xnor2_2
X_632_ _214_ cam_memory\[0\]\[7\] _319_ VDD VSS gf180mcu_fd_sc_mcu9t5v0__xnor2_2
X_633_ _317_ _318_ _319_ _320_ VDD VSS gf180mcu_fd_sc_mcu9t5v0__and3_2
X_634_ _217_ cam_memory\[0\]\[3\] _321_ VDD VSS gf180mcu_fd_sc_mcu9t5v0__xnor2_2
X_635_ _163_ cam_memory\[0\]\[5\] _322_ VDD VSS gf180mcu_fd_sc_mcu9t5v0__xnor2_2
X_636_ net2 cam_memory\[0\]\[0\] _323_ VDD VSS gf180mcu_fd_sc_mcu9t5v0__xnor2_2
X_637_ _171_ cam_memory\[0\]\[2\] _324_ VDD VSS gf180mcu_fd_sc_mcu9t5v0__xnor2_2
X_638_ _321_ _322_ _323_ _324_ _325_ VDD VSS gf180mcu_fd_sc_mcu9t5v0__and4_2
X_639_ valid_bits\[0\] _316_ _320_ _325_ _326_ VDD VSS gf180mcu_fd_sc_mcu9t5v0__and4_2
X_640_ _161_ cam_memory\[1\]\[0\] _327_ VDD VSS gf180mcu_fd_sc_mcu9t5v0__xnor2_2
X_641_ _165_ cam_memory\[1\]\[6\] _328_ VDD VSS gf180mcu_fd_sc_mcu9t5v0__xnor2_2
X_642_ _163_ cam_memory\[1\]\[5\] _329_ VDD VSS gf180mcu_fd_sc_mcu9t5v0__xnor2_2
X_643_ _214_ cam_memory\[1\]\[7\] _330_ VDD VSS gf180mcu_fd_sc_mcu9t5v0__xnor2_2
X_644_ _328_ _329_ _330_ _331_ VDD VSS gf180mcu_fd_sc_mcu9t5v0__and3_2
X_645_ _169_ cam_memory\[1\]\[4\] _332_ VDD VSS gf180mcu_fd_sc_mcu9t5v0__xnor2_2
X_646_ _217_ cam_memory\[1\]\[3\] _333_ VDD VSS gf180mcu_fd_sc_mcu9t5v0__xnor2_2
X_647_ net3 cam_memory\[1\]\[1\] _334_ VDD VSS gf180mcu_fd_sc_mcu9t5v0__xnor2_2
X_648_ _171_ cam_memory\[1\]\[2\] _335_ VDD VSS gf180mcu_fd_sc_mcu9t5v0__xnor2_2
X_649_ _332_ _333_ _334_ _335_ _336_ VDD VSS gf180mcu_fd_sc_mcu9t5v0__and4_2
X_650_ valid_bits\[1\] _327_ _331_ _336_ _337_ VDD VSS gf180mcu_fd_sc_mcu9t5v0__and4_2
X_651_ _326_ _337_ _338_ VDD VSS gf180mcu_fd_sc_mcu9t5v0__nor2_2
X_652_ _293_ _304_ _315_ _338_ _339_ VDD VSS gf180mcu_fd_sc_mcu9t5v0__nand4_2
X_653_ _248_ _339_ net10 _340_ VDD VSS gf180mcu_fd_sc_mcu9t5v0__oai21_2
X_654_ _340_ _000_ VDD VSS gf180mcu_fd_sc_mcu9t5v0__clkinv_2
X_655_ net11 _452_ VDD VSS gf180mcu_fd_sc_mcu9t5v0__clkinv_2
X_656_ net12 _453_ VDD VSS gf180mcu_fd_sc_mcu9t5v0__clkinv_2
X_657_ net15 _341_ VDD VSS gf180mcu_fd_sc_mcu9t5v0__buf_4
X_658_ net14 net13 _342_ VDD VSS gf180mcu_fd_sc_mcu9t5v0__nor2_4
X_659_ net23 _454_ _342_ _343_ VDD VSS gf180mcu_fd_sc_mcu9t5v0__and3_2
X_660_ _343_ _344_ VDD VSS gf180mcu_fd_sc_mcu9t5v0__buf_4
X_661_ cam_memory\[0\]\[0\] _341_ _344_ _001_ VDD VSS gf180mcu_fd_sc_mcu9t5v0__mux2_2
X_662_ net16 _345_ VDD VSS gf180mcu_fd_sc_mcu9t5v0__buf_4
X_663_ cam_memory\[0\]\[1\] _345_ _344_ _002_ VDD VSS gf180mcu_fd_sc_mcu9t5v0__mux2_2
X_664_ net17 _346_ VDD VSS gf180mcu_fd_sc_mcu9t5v0__clkbuf_8
X_665_ cam_memory\[0\]\[2\] _346_ _344_ _003_ VDD VSS gf180mcu_fd_sc_mcu9t5v0__mux2_2
X_666_ net18 _347_ VDD VSS gf180mcu_fd_sc_mcu9t5v0__clkbuf_8
X_667_ cam_memory\[0\]\[3\] _347_ _344_ _004_ VDD VSS gf180mcu_fd_sc_mcu9t5v0__mux2_2
X_668_ net19 _348_ VDD VSS gf180mcu_fd_sc_mcu9t5v0__clkbuf_8
X_669_ cam_memory\[0\]\[4\] _348_ _344_ _005_ VDD VSS gf180mcu_fd_sc_mcu9t5v0__mux2_2
X_670_ net20 _349_ VDD VSS gf180mcu_fd_sc_mcu9t5v0__buf_4
X_671_ cam_memory\[0\]\[5\] _349_ _344_ _006_ VDD VSS gf180mcu_fd_sc_mcu9t5v0__mux2_2
X_672_ net21 _350_ VDD VSS gf180mcu_fd_sc_mcu9t5v0__buf_4
X_673_ cam_memory\[0\]\[6\] _350_ _344_ _007_ VDD VSS gf180mcu_fd_sc_mcu9t5v0__mux2_2
X_674_ net22 _351_ VDD VSS gf180mcu_fd_sc_mcu9t5v0__buf_4
X_675_ cam_memory\[0\]\[7\] _351_ _344_ _008_ VDD VSS gf180mcu_fd_sc_mcu9t5v0__mux2_2
X_676_ net23 _352_ VDD VSS gf180mcu_fd_sc_mcu9t5v0__buf_4
X_677_ net14 _353_ VDD VSS gf180mcu_fd_sc_mcu9t5v0__clkinv_2
X_678_ _353_ net13 _354_ VDD VSS gf180mcu_fd_sc_mcu9t5v0__nor2_4
X_679_ _352_ _456_ _354_ _355_ VDD VSS gf180mcu_fd_sc_mcu9t5v0__and3_4
X_680_ cam_memory\[10\]\[0\] _341_ _355_ _009_ VDD VSS gf180mcu_fd_sc_mcu9t5v0__mux2_2
X_681_ cam_memory\[10\]\[1\] _345_ _355_ _010_ VDD VSS gf180mcu_fd_sc_mcu9t5v0__mux2_2
X_682_ cam_memory\[10\]\[2\] _346_ _355_ _011_ VDD VSS gf180mcu_fd_sc_mcu9t5v0__mux2_2
X_683_ cam_memory\[10\]\[3\] _347_ _355_ _012_ VDD VSS gf180mcu_fd_sc_mcu9t5v0__mux2_2
X_684_ cam_memory\[10\]\[4\] _348_ _355_ _013_ VDD VSS gf180mcu_fd_sc_mcu9t5v0__mux2_2
X_685_ cam_memory\[10\]\[5\] _349_ _355_ _014_ VDD VSS gf180mcu_fd_sc_mcu9t5v0__mux2_2
X_686_ cam_memory\[10\]\[6\] _350_ _355_ _015_ VDD VSS gf180mcu_fd_sc_mcu9t5v0__mux2_2
X_687_ cam_memory\[10\]\[7\] _351_ _355_ _016_ VDD VSS gf180mcu_fd_sc_mcu9t5v0__mux2_2
X_688_ _352_ _460_ _354_ _356_ VDD VSS gf180mcu_fd_sc_mcu9t5v0__and3_4
X_689_ cam_memory\[11\]\[0\] _341_ _356_ _017_ VDD VSS gf180mcu_fd_sc_mcu9t5v0__mux2_2
X_690_ cam_memory\[11\]\[1\] _345_ _356_ _018_ VDD VSS gf180mcu_fd_sc_mcu9t5v0__mux2_2
X_691_ cam_memory\[11\]\[2\] _346_ _356_ _019_ VDD VSS gf180mcu_fd_sc_mcu9t5v0__mux2_2
X_692_ cam_memory\[11\]\[3\] _347_ _356_ _020_ VDD VSS gf180mcu_fd_sc_mcu9t5v0__mux2_2
X_693_ cam_memory\[11\]\[4\] _348_ _356_ _021_ VDD VSS gf180mcu_fd_sc_mcu9t5v0__mux2_2
X_694_ cam_memory\[11\]\[5\] _349_ _356_ _022_ VDD VSS gf180mcu_fd_sc_mcu9t5v0__mux2_2
X_695_ cam_memory\[11\]\[6\] _350_ _356_ _023_ VDD VSS gf180mcu_fd_sc_mcu9t5v0__mux2_2
X_696_ cam_memory\[11\]\[7\] _351_ _356_ _024_ VDD VSS gf180mcu_fd_sc_mcu9t5v0__mux2_2
X_697_ net14 net13 net23 _454_ _357_ VDD VSS gf180mcu_fd_sc_mcu9t5v0__and4_2
X_698_ _357_ _358_ VDD VSS gf180mcu_fd_sc_mcu9t5v0__buf_4
X_699_ cam_memory\[12\]\[0\] _341_ _358_ _025_ VDD VSS gf180mcu_fd_sc_mcu9t5v0__mux2_2
X_700_ cam_memory\[12\]\[1\] _345_ _358_ _026_ VDD VSS gf180mcu_fd_sc_mcu9t5v0__mux2_2
X_701_ cam_memory\[12\]\[2\] _346_ _358_ _027_ VDD VSS gf180mcu_fd_sc_mcu9t5v0__mux2_2
X_702_ cam_memory\[12\]\[3\] _347_ _358_ _028_ VDD VSS gf180mcu_fd_sc_mcu9t5v0__mux2_2
X_703_ cam_memory\[12\]\[4\] _348_ _358_ _029_ VDD VSS gf180mcu_fd_sc_mcu9t5v0__mux2_2
X_704_ cam_memory\[12\]\[5\] _349_ _358_ _030_ VDD VSS gf180mcu_fd_sc_mcu9t5v0__mux2_2
X_705_ cam_memory\[12\]\[6\] _350_ _358_ _031_ VDD VSS gf180mcu_fd_sc_mcu9t5v0__mux2_2
X_706_ cam_memory\[12\]\[7\] _351_ _358_ _032_ VDD VSS gf180mcu_fd_sc_mcu9t5v0__mux2_2
X_707_ net23 _458_ _359_ VDD VSS gf180mcu_fd_sc_mcu9t5v0__and2_2
X_708_ net14 net13 _359_ _360_ VDD VSS gf180mcu_fd_sc_mcu9t5v0__and3_4
X_709_ cam_memory\[13\]\[0\] _341_ _360_ _033_ VDD VSS gf180mcu_fd_sc_mcu9t5v0__mux2_2
X_710_ cam_memory\[13\]\[1\] _345_ _360_ _034_ VDD VSS gf180mcu_fd_sc_mcu9t5v0__mux2_2
X_711_ cam_memory\[13\]\[2\] _346_ _360_ _035_ VDD VSS gf180mcu_fd_sc_mcu9t5v0__mux2_2
X_712_ cam_memory\[13\]\[3\] _347_ _360_ _036_ VDD VSS gf180mcu_fd_sc_mcu9t5v0__mux2_2
X_713_ cam_memory\[13\]\[4\] _348_ _360_ _037_ VDD VSS gf180mcu_fd_sc_mcu9t5v0__mux2_2
X_714_ cam_memory\[13\]\[5\] _349_ _360_ _038_ VDD VSS gf180mcu_fd_sc_mcu9t5v0__mux2_2
X_715_ cam_memory\[13\]\[6\] _350_ _360_ _039_ VDD VSS gf180mcu_fd_sc_mcu9t5v0__mux2_2
X_716_ cam_memory\[13\]\[7\] _351_ _360_ _040_ VDD VSS gf180mcu_fd_sc_mcu9t5v0__mux2_2
X_717_ net14 net13 net23 _456_ _361_ VDD VSS gf180mcu_fd_sc_mcu9t5v0__and4_2
X_718_ _361_ _362_ VDD VSS gf180mcu_fd_sc_mcu9t5v0__buf_4
X_719_ cam_memory\[14\]\[0\] _341_ _362_ _041_ VDD VSS gf180mcu_fd_sc_mcu9t5v0__mux2_2
X_720_ cam_memory\[14\]\[1\] _345_ _362_ _042_ VDD VSS gf180mcu_fd_sc_mcu9t5v0__mux2_2
X_721_ cam_memory\[14\]\[2\] _346_ _362_ _043_ VDD VSS gf180mcu_fd_sc_mcu9t5v0__mux2_2
X_722_ cam_memory\[14\]\[3\] _347_ _362_ _044_ VDD VSS gf180mcu_fd_sc_mcu9t5v0__mux2_2
X_723_ cam_memory\[14\]\[4\] _348_ _362_ _045_ VDD VSS gf180mcu_fd_sc_mcu9t5v0__mux2_2
X_724_ cam_memory\[14\]\[5\] _349_ _362_ _046_ VDD VSS gf180mcu_fd_sc_mcu9t5v0__mux2_2
X_725_ cam_memory\[14\]\[6\] _350_ _362_ _047_ VDD VSS gf180mcu_fd_sc_mcu9t5v0__mux2_2
X_726_ cam_memory\[14\]\[7\] _351_ _362_ _048_ VDD VSS gf180mcu_fd_sc_mcu9t5v0__mux2_2
X_727_ net14 net13 net23 _460_ _363_ VDD VSS gf180mcu_fd_sc_mcu9t5v0__and4_2
X_728_ _363_ _364_ VDD VSS gf180mcu_fd_sc_mcu9t5v0__buf_4
X_729_ cam_memory\[15\]\[0\] _341_ _364_ _049_ VDD VSS gf180mcu_fd_sc_mcu9t5v0__mux2_2
X_730_ cam_memory\[15\]\[1\] _345_ _364_ _050_ VDD VSS gf180mcu_fd_sc_mcu9t5v0__mux2_2
X_731_ cam_memory\[15\]\[2\] _346_ _364_ _051_ VDD VSS gf180mcu_fd_sc_mcu9t5v0__mux2_2
X_732_ cam_memory\[15\]\[3\] _347_ _364_ _052_ VDD VSS gf180mcu_fd_sc_mcu9t5v0__mux2_2
X_733_ cam_memory\[15\]\[4\] _348_ _364_ _053_ VDD VSS gf180mcu_fd_sc_mcu9t5v0__mux2_2
X_734_ cam_memory\[15\]\[5\] _349_ _364_ _054_ VDD VSS gf180mcu_fd_sc_mcu9t5v0__mux2_2
X_735_ cam_memory\[15\]\[6\] _350_ _364_ _055_ VDD VSS gf180mcu_fd_sc_mcu9t5v0__mux2_2
X_736_ cam_memory\[15\]\[7\] _351_ _364_ _056_ VDD VSS gf180mcu_fd_sc_mcu9t5v0__mux2_2
X_737_ _342_ _359_ _365_ VDD VSS gf180mcu_fd_sc_mcu9t5v0__and2_4
X_738_ cam_memory\[1\]\[0\] _341_ _365_ _057_ VDD VSS gf180mcu_fd_sc_mcu9t5v0__mux2_2
X_739_ cam_memory\[1\]\[1\] _345_ _365_ _058_ VDD VSS gf180mcu_fd_sc_mcu9t5v0__mux2_2
X_740_ cam_memory\[1\]\[2\] _346_ _365_ _059_ VDD VSS gf180mcu_fd_sc_mcu9t5v0__mux2_2
X_741_ cam_memory\[1\]\[3\] _347_ _365_ _060_ VDD VSS gf180mcu_fd_sc_mcu9t5v0__mux2_2
X_742_ cam_memory\[1\]\[4\] _348_ _365_ _061_ VDD VSS gf180mcu_fd_sc_mcu9t5v0__mux2_2
X_743_ cam_memory\[1\]\[5\] _349_ _365_ _062_ VDD VSS gf180mcu_fd_sc_mcu9t5v0__mux2_2
X_744_ cam_memory\[1\]\[6\] _350_ _365_ _063_ VDD VSS gf180mcu_fd_sc_mcu9t5v0__mux2_2
X_745_ cam_memory\[1\]\[7\] _351_ _365_ _064_ VDD VSS gf180mcu_fd_sc_mcu9t5v0__mux2_2
X_746_ _352_ _456_ _342_ _366_ VDD VSS gf180mcu_fd_sc_mcu9t5v0__and3_4
X_747_ cam_memory\[2\]\[0\] _341_ _366_ _065_ VDD VSS gf180mcu_fd_sc_mcu9t5v0__mux2_2
X_748_ cam_memory\[2\]\[1\] _345_ _366_ _066_ VDD VSS gf180mcu_fd_sc_mcu9t5v0__mux2_2
X_749_ cam_memory\[2\]\[2\] _346_ _366_ _067_ VDD VSS gf180mcu_fd_sc_mcu9t5v0__mux2_2
X_750_ cam_memory\[2\]\[3\] _347_ _366_ _068_ VDD VSS gf180mcu_fd_sc_mcu9t5v0__mux2_2
X_751_ cam_memory\[2\]\[4\] _348_ _366_ _069_ VDD VSS gf180mcu_fd_sc_mcu9t5v0__mux2_2
X_752_ cam_memory\[2\]\[5\] _349_ _366_ _070_ VDD VSS gf180mcu_fd_sc_mcu9t5v0__mux2_2
X_753_ cam_memory\[2\]\[6\] _350_ _366_ _071_ VDD VSS gf180mcu_fd_sc_mcu9t5v0__mux2_2
X_754_ cam_memory\[2\]\[7\] _351_ _366_ _072_ VDD VSS gf180mcu_fd_sc_mcu9t5v0__mux2_2
X_755_ _352_ _460_ _342_ _367_ VDD VSS gf180mcu_fd_sc_mcu9t5v0__and3_4
X_756_ cam_memory\[3\]\[0\] _341_ _367_ _073_ VDD VSS gf180mcu_fd_sc_mcu9t5v0__mux2_2
X_757_ cam_memory\[3\]\[1\] _345_ _367_ _074_ VDD VSS gf180mcu_fd_sc_mcu9t5v0__mux2_2
X_758_ cam_memory\[3\]\[2\] _346_ _367_ _075_ VDD VSS gf180mcu_fd_sc_mcu9t5v0__mux2_2
X_759_ cam_memory\[3\]\[3\] _347_ _367_ _076_ VDD VSS gf180mcu_fd_sc_mcu9t5v0__mux2_2
X_760_ cam_memory\[3\]\[4\] _348_ _367_ _077_ VDD VSS gf180mcu_fd_sc_mcu9t5v0__mux2_2
X_761_ cam_memory\[3\]\[5\] _349_ _367_ _078_ VDD VSS gf180mcu_fd_sc_mcu9t5v0__mux2_2
X_762_ cam_memory\[3\]\[6\] _350_ _367_ _079_ VDD VSS gf180mcu_fd_sc_mcu9t5v0__mux2_2
X_763_ cam_memory\[3\]\[7\] _351_ _367_ _080_ VDD VSS gf180mcu_fd_sc_mcu9t5v0__mux2_2
X_764_ _353_ net13 _368_ VDD VSS gf180mcu_fd_sc_mcu9t5v0__and2_2
X_765_ _352_ _454_ _368_ _369_ VDD VSS gf180mcu_fd_sc_mcu9t5v0__and3_4
X_766_ cam_memory\[4\]\[0\] net15 _369_ _081_ VDD VSS gf180mcu_fd_sc_mcu9t5v0__mux2_2
X_767_ cam_memory\[4\]\[1\] net16 _369_ _082_ VDD VSS gf180mcu_fd_sc_mcu9t5v0__mux2_2
X_768_ cam_memory\[4\]\[2\] net17 _369_ _083_ VDD VSS gf180mcu_fd_sc_mcu9t5v0__mux2_2
X_769_ cam_memory\[4\]\[3\] net18 _369_ _084_ VDD VSS gf180mcu_fd_sc_mcu9t5v0__mux2_2
X_770_ cam_memory\[4\]\[4\] net19 _369_ _085_ VDD VSS gf180mcu_fd_sc_mcu9t5v0__mux2_2
X_771_ cam_memory\[4\]\[5\] net20 _369_ _086_ VDD VSS gf180mcu_fd_sc_mcu9t5v0__mux2_2
X_772_ cam_memory\[4\]\[6\] net21 _369_ _087_ VDD VSS gf180mcu_fd_sc_mcu9t5v0__mux2_2
X_773_ cam_memory\[4\]\[7\] net22 _369_ _088_ VDD VSS gf180mcu_fd_sc_mcu9t5v0__mux2_2
X_774_ _359_ _368_ _370_ VDD VSS gf180mcu_fd_sc_mcu9t5v0__and2_4
X_775_ cam_memory\[5\]\[0\] net15 _370_ _089_ VDD VSS gf180mcu_fd_sc_mcu9t5v0__mux2_2
X_776_ cam_memory\[5\]\[1\] net16 _370_ _090_ VDD VSS gf180mcu_fd_sc_mcu9t5v0__mux2_2
X_777_ cam_memory\[5\]\[2\] net17 _370_ _091_ VDD VSS gf180mcu_fd_sc_mcu9t5v0__mux2_2
X_778_ cam_memory\[5\]\[3\] net18 _370_ _092_ VDD VSS gf180mcu_fd_sc_mcu9t5v0__mux2_2
X_779_ cam_memory\[5\]\[4\] net19 _370_ _093_ VDD VSS gf180mcu_fd_sc_mcu9t5v0__mux2_2
X_780_ cam_memory\[5\]\[5\] net20 _370_ _094_ VDD VSS gf180mcu_fd_sc_mcu9t5v0__mux2_2
X_781_ cam_memory\[5\]\[6\] net21 _370_ _095_ VDD VSS gf180mcu_fd_sc_mcu9t5v0__mux2_2
X_782_ cam_memory\[5\]\[7\] net22 _370_ _096_ VDD VSS gf180mcu_fd_sc_mcu9t5v0__mux2_2
X_783_ _352_ _456_ _368_ _371_ VDD VSS gf180mcu_fd_sc_mcu9t5v0__and3_4
X_784_ cam_memory\[6\]\[0\] net15 _371_ _097_ VDD VSS gf180mcu_fd_sc_mcu9t5v0__mux2_2
X_785_ cam_memory\[6\]\[1\] net16 _371_ _098_ VDD VSS gf180mcu_fd_sc_mcu9t5v0__mux2_2
X_786_ cam_memory\[6\]\[2\] net17 _371_ _099_ VDD VSS gf180mcu_fd_sc_mcu9t5v0__mux2_2
X_787_ cam_memory\[6\]\[3\] net18 _371_ _100_ VDD VSS gf180mcu_fd_sc_mcu9t5v0__mux2_2
X_788_ cam_memory\[6\]\[4\] net19 _371_ _101_ VDD VSS gf180mcu_fd_sc_mcu9t5v0__mux2_2
X_789_ cam_memory\[6\]\[5\] net20 _371_ _102_ VDD VSS gf180mcu_fd_sc_mcu9t5v0__mux2_2
X_790_ cam_memory\[6\]\[6\] net21 _371_ _103_ VDD VSS gf180mcu_fd_sc_mcu9t5v0__mux2_2
X_791_ cam_memory\[6\]\[7\] net22 _371_ _104_ VDD VSS gf180mcu_fd_sc_mcu9t5v0__mux2_2
X_792_ _352_ _460_ _368_ _372_ VDD VSS gf180mcu_fd_sc_mcu9t5v0__and3_4
X_793_ cam_memory\[7\]\[0\] net15 _372_ _105_ VDD VSS gf180mcu_fd_sc_mcu9t5v0__mux2_2
X_794_ cam_memory\[7\]\[1\] net16 _372_ _106_ VDD VSS gf180mcu_fd_sc_mcu9t5v0__mux2_2
X_795_ cam_memory\[7\]\[2\] net17 _372_ _107_ VDD VSS gf180mcu_fd_sc_mcu9t5v0__mux2_2
X_796_ cam_memory\[7\]\[3\] net18 _372_ _108_ VDD VSS gf180mcu_fd_sc_mcu9t5v0__mux2_2
X_797_ cam_memory\[7\]\[4\] net19 _372_ _109_ VDD VSS gf180mcu_fd_sc_mcu9t5v0__mux2_2
X_798_ cam_memory\[7\]\[5\] net20 _372_ _110_ VDD VSS gf180mcu_fd_sc_mcu9t5v0__mux2_2
X_799_ cam_memory\[7\]\[6\] net21 _372_ _111_ VDD VSS gf180mcu_fd_sc_mcu9t5v0__mux2_2
X_800_ cam_memory\[7\]\[7\] net22 _372_ _112_ VDD VSS gf180mcu_fd_sc_mcu9t5v0__mux2_2
X_801_ _352_ _454_ _354_ _373_ VDD VSS gf180mcu_fd_sc_mcu9t5v0__and3_4
X_802_ cam_memory\[8\]\[0\] net15 _373_ _113_ VDD VSS gf180mcu_fd_sc_mcu9t5v0__mux2_2
X_803_ cam_memory\[8\]\[1\] net16 _373_ _114_ VDD VSS gf180mcu_fd_sc_mcu9t5v0__mux2_2
X_804_ cam_memory\[8\]\[2\] net17 _373_ _115_ VDD VSS gf180mcu_fd_sc_mcu9t5v0__mux2_2
X_805_ cam_memory\[8\]\[3\] net18 _373_ _116_ VDD VSS gf180mcu_fd_sc_mcu9t5v0__mux2_2
X_806_ cam_memory\[8\]\[4\] net19 _373_ _117_ VDD VSS gf180mcu_fd_sc_mcu9t5v0__mux2_2
X_807_ cam_memory\[8\]\[5\] net20 _373_ _118_ VDD VSS gf180mcu_fd_sc_mcu9t5v0__mux2_2
X_808_ cam_memory\[8\]\[6\] net21 _373_ _119_ VDD VSS gf180mcu_fd_sc_mcu9t5v0__mux2_2
X_809_ cam_memory\[8\]\[7\] net22 _373_ _120_ VDD VSS gf180mcu_fd_sc_mcu9t5v0__mux2_2
X_810_ _354_ _359_ _374_ VDD VSS gf180mcu_fd_sc_mcu9t5v0__and2_4
X_811_ cam_memory\[9\]\[0\] net15 _374_ _121_ VDD VSS gf180mcu_fd_sc_mcu9t5v0__mux2_2
X_812_ cam_memory\[9\]\[1\] net16 _374_ _122_ VDD VSS gf180mcu_fd_sc_mcu9t5v0__mux2_2
X_813_ cam_memory\[9\]\[2\] net17 _374_ _123_ VDD VSS gf180mcu_fd_sc_mcu9t5v0__mux2_2
X_814_ cam_memory\[9\]\[3\] net18 _374_ _124_ VDD VSS gf180mcu_fd_sc_mcu9t5v0__mux2_2
X_815_ cam_memory\[9\]\[4\] net19 _374_ _125_ VDD VSS gf180mcu_fd_sc_mcu9t5v0__mux2_2
X_816_ cam_memory\[9\]\[5\] net20 _374_ _126_ VDD VSS gf180mcu_fd_sc_mcu9t5v0__mux2_2
X_817_ cam_memory\[9\]\[6\] net21 _374_ _127_ VDD VSS gf180mcu_fd_sc_mcu9t5v0__mux2_2
X_818_ cam_memory\[9\]\[7\] net22 _374_ _128_ VDD VSS gf180mcu_fd_sc_mcu9t5v0__mux2_2
X_819_ _259_ _270_ _375_ VDD VSS gf180mcu_fd_sc_mcu9t5v0__and2_2
X_820_ valid_bits\[0\] _316_ _320_ _325_ _376_ VDD VSS gf180mcu_fd_sc_mcu9t5v0__nand4_2
X_821_ _282_ _283_ _284_ _377_ VDD VSS gf180mcu_fd_sc_mcu9t5v0__and3_2
X_822_ _285_ _287_ _288_ _289_ _378_ VDD VSS gf180mcu_fd_sc_mcu9t5v0__and4_2
X_823_ valid_bits\[4\] _290_ _377_ _378_ _379_ VDD VSS gf180mcu_fd_sc_mcu9t5v0__nand4_4
X_824_ _306_ _307_ _380_ VDD VSS gf180mcu_fd_sc_mcu9t5v0__nor2_2
X_825_ _214_ cam_memory\[2\]\[7\] _381_ VDD VSS gf180mcu_fd_sc_mcu9t5v0__xnor2_2
X_826_ _381_ _310_ _311_ _312_ _382_ VDD VSS gf180mcu_fd_sc_mcu9t5v0__and4_2
X_827_ valid_bits\[2\] _313_ _383_ VDD VSS gf180mcu_fd_sc_mcu9t5v0__and2_2
X_828_ _305_ _380_ _382_ _383_ _384_ VDD VSS gf180mcu_fd_sc_mcu9t5v0__nand4_2
X_829_ _376_ _337_ _379_ _384_ _385_ VDD VSS gf180mcu_fd_sc_mcu9t5v0__oai211_2