
* cell parameterized_cam
* pin compare_data[2]
* pin compare_data[3]
* pin compare_data[0]
* pin compare_data[5]
* pin compare_data[6]
* pin compare_data[7]
* pin rst_n
* pin match_addr[1]
* pin match
* pin match_addr[0]
* pin compare_enable
* pin match_addr[3]
* pin valid
* pin match_addr[2]
* pin write_enable
* pin write_addr[3]
* pin clk
* pin compare_data[4]
* pin write_data[1]
* pin compare_data[1]
* pin write_data[0]
* pin write_data[3]
* pin write_data[2]
* pin write_data[5]
* pin write_data[4]
* pin write_data[7]
* pin write_data[6]
* pin write_addr[2]
* pin write_addr[0]
* pin write_addr[1]
* pin PWELL,gf180mcu_gnd
* pin NWELL
.SUBCKT parameterized_cam 1 2 3 4 5 6 42 220 221 222 247 279 307 342 343 344
+ 374 376 486 511 531 588 611 631 632 677 678 679 680 681 682 683
* net 1 compare_data[2]
* net 2 compare_data[3]
* net 3 compare_data[0]
* net 4 compare_data[5]
* net 5 compare_data[6]
* net 6 compare_data[7]
* net 42 rst_n
* net 220 match_addr[1]
* net 221 match
* net 222 match_addr[0]
* net 247 compare_enable
* net 279 match_addr[3]
* net 307 valid
* net 342 match_addr[2]
* net 343 write_enable
* net 344 write_addr[3]
* net 374 clk
* net 376 compare_data[4]
* net 486 write_data[1]
* net 511 compare_data[1]
* net 531 write_data[0]
* net 588 write_data[3]
* net 611 write_data[2]
* net 631 write_data[5]
* net 632 write_data[4]
* net 677 write_data[7]
* net 678 write_data[6]
* net 679 write_addr[2]
* net 680 write_addr[0]
* net 681 write_addr[1]
* net 682 PWELL,gf180mcu_gnd
* net 683 NWELL
* cell instance $2 r0 *1 1116.08,5.04
X$2 682 1 9 683 gf180mcu_fd_sc_mcu9t5v0__clkbuf_12
* cell instance $7 m0 *1 1121.68,15.12
X$7 682 2 11 683 gf180mcu_fd_sc_mcu9t5v0__clkbuf_12
* cell instance $11 r0 *1 1137.36,5.04
X$11 682 3 8 683 gf180mcu_fd_sc_mcu9t5v0__clkbuf_12
* cell instance $14 m0 *1 1153.04,15.12
X$14 682 4 12 683 gf180mcu_fd_sc_mcu9t5v0__buf_8
* cell instance $18 r0 *1 1180.48,15.12
X$18 682 5 10 683 gf180mcu_fd_sc_mcu9t5v0__buf_8
* cell instance $22 r0 *1 1176,5.04
X$22 682 6 7 683 gf180mcu_fd_sc_mcu9t5v0__clkbuf_12
* cell instance $26 m0 *1 1234.8,1134
X$26 683 7 63 682 86 gf180mcu_fd_sc_mcu9t5v0__xnor2_2
* cell instance $30 r0 *1 1187.2,1234.8
X$30 683 7 352 682 324 gf180mcu_fd_sc_mcu9t5v0__xnor2_2
* cell instance $33 r0 *1 1210.72,1234.8
X$33 683 7 354 682 373 gf180mcu_fd_sc_mcu9t5v0__xnor2_2
* cell instance $36 r0 *1 1202.32,1174.32
X$36 683 7 152 682 174 gf180mcu_fd_sc_mcu9t5v0__xnor2_2
* cell instance $38 m0 *1 1217.44,1103.76
X$38 683 7 22 682 37 gf180mcu_fd_sc_mcu9t5v0__xnor2_2
* cell instance $40 m0 *1 1298.64,1224.72
X$40 682 7 302 683 gf180mcu_fd_sc_mcu9t5v0__clkbuf_8
* cell instance $45 r0 *1 1275.68,1093.68
X$45 683 7 34 682 31 gf180mcu_fd_sc_mcu9t5v0__xnor2_2
* cell instance $47 r0 *1 1325.52,1123.92
X$47 683 7 69 682 94 gf180mcu_fd_sc_mcu9t5v0__xnor2_2
* cell instance $68 m0 *1 1337.28,1244.88
X$68 683 8 361 682 402 gf180mcu_fd_sc_mcu9t5v0__xnor2_2
* cell instance $70 r0 *1 1178.24,1144.08
X$70 683 8 104 682 125 gf180mcu_fd_sc_mcu9t5v0__xnor2_2
* cell instance $72 r0 *1 1154.16,1244.88
X$72 683 8 378 682 351 gf180mcu_fd_sc_mcu9t5v0__xnor2_2
* cell instance $75 m0 *1 1135.68,1265.04
X$75 683 8 436 682 428 gf180mcu_fd_sc_mcu9t5v0__xnor2_2
* cell instance $77 m0 *1 1175.44,1123.92
X$77 683 8 45 682 79 gf180mcu_fd_sc_mcu9t5v0__xnor2_2
* cell instance $80 r0 *1 1277.92,1103.76
X$80 683 8 35 682 49 gf180mcu_fd_sc_mcu9t5v0__xnor2_2
* cell instance $83 m0 *1 1284.08,1194.48
X$83 682 8 238 683 gf180mcu_fd_sc_mcu9t5v0__clkbuf_12
* cell instance $101 r0 *1 1128.4,1214.64
X$101 683 9 261 682 283 gf180mcu_fd_sc_mcu9t5v0__xnor2_2
* cell instance $103 m0 *1 1132.88,1184.4
X$103 682 9 156 683 gf180mcu_fd_sc_mcu9t5v0__buf_8
* cell instance $105 m0 *1 1187.2,1194.48
X$105 683 9 197 682 200 gf180mcu_fd_sc_mcu9t5v0__xnor2_2
* cell instance $107 m0 *1 1170.4,1214.64
X$107 683 9 264 682 287 gf180mcu_fd_sc_mcu9t5v0__xnor2_2
* cell instance $109 r0 *1 1236.48,1123.92
X$109 683 9 85 682 87 gf180mcu_fd_sc_mcu9t5v0__xnor2_2
* cell instance $112 m0 *1 1164.8,1123.92
X$112 683 9 44 682 75 gf180mcu_fd_sc_mcu9t5v0__xnor2_2
* cell instance $116 r0 *1 1261.68,1103.76
X$116 683 9 13 682 47 gf180mcu_fd_sc_mcu9t5v0__xnor2_2
* cell instance $129 r0 *1 1241.52,1134
X$129 683 10 88 682 111 gf180mcu_fd_sc_mcu9t5v0__xnor2_2
* cell instance $131 m0 *1 1228.64,1184.4
X$131 683 10 205 682 175 gf180mcu_fd_sc_mcu9t5v0__xnor2_2
* cell instance $134 m0 *1 1180.48,1214.64
X$134 683 10 265 682 289 gf180mcu_fd_sc_mcu9t5v0__xnor2_2
* cell instance $137 r0 *1 1193.92,1134
X$137 682 10 83 683 gf180mcu_fd_sc_mcu9t5v0__clkbuf_8
* cell instance $140 m0 *1 1210.16,1214.64
X$140 683 10 266 682 290 gf180mcu_fd_sc_mcu9t5v0__xnor2_2
* cell instance $144 m0 *1 1255.52,1113.84
X$144 683 10 46 682 90 gf180mcu_fd_sc_mcu9t5v0__xnor2_2
* cell instance $147 r0 *1 1237.6,1093.68
X$147 683 10 23 682 39 gf180mcu_fd_sc_mcu9t5v0__xnor2_2
* cell instance $158 m0 *1 1159.2,1214.64
X$158 683 11 313 682 371 gf180mcu_fd_sc_mcu9t5v0__xnor2_2
* cell instance $160 m0 *1 1183.28,1144.08
X$160 683 11 80 682 106 gf180mcu_fd_sc_mcu9t5v0__xnor2_2
* cell instance $163 m0 *1 1137.92,1204.56
X$163 682 11 198 683 gf180mcu_fd_sc_mcu9t5v0__clkbuf_12
* cell instance $167 r0 *1 1161.44,1123.92
X$167 683 11 61 682 97 gf180mcu_fd_sc_mcu9t5v0__xnor2_2
* cell instance $169 m0 *1 1125.6,1224.72
X$169 683 11 293 682 312 gf180mcu_fd_sc_mcu9t5v0__xnor2_2
* cell instance $173 r0 *1 1298.08,1103.76
X$173 683 11 50 682 32 gf180mcu_fd_sc_mcu9t5v0__xnor2_2
* cell instance $175 r0 *1 1313.2,1144.08
X$175 683 11 115 682 139 gf180mcu_fd_sc_mcu9t5v0__xnor2_2
* cell instance $188 r0 *1 1192.24,1144.08
X$188 683 12 82 682 147 gf180mcu_fd_sc_mcu9t5v0__xnor2_2
* cell instance $190 m0 *1 1207.36,1224.72
X$190 683 12 297 682 316 gf180mcu_fd_sc_mcu9t5v0__xnor2_2
* cell instance $193 r0 *1 1190,1123.92
X$193 682 12 72 683 gf180mcu_fd_sc_mcu9t5v0__clkbuf_8
* cell instance $197 r0 *1 1220.24,1174.32
X$197 683 12 153 682 176 gf180mcu_fd_sc_mcu9t5v0__xnor2_2
* cell instance $199 m0 *1 1226.96,1103.76
X$199 683 12 21 682 41 gf180mcu_fd_sc_mcu9t5v0__xnor2_2
* cell instance $202 m0 *1 1155.84,1224.72
X$202 683 12 320 682 322 gf180mcu_fd_sc_mcu9t5v0__xnor2_2
* cell instance $206 m0 *1 1263.92,1103.76
X$206 683 12 29 682 33 gf180mcu_fd_sc_mcu9t5v0__xnor2_2
* cell instance $219 r0 *1 1255.52,1083.6
X$219 682 683 25 27 28 13 gf180mcu_fd_sc_mcu9t5v0__mux2_2
* cell instance $222 m0 *1 1248.24,1093.68
X$222 682 16 13 17 25 683 gf180mcu_fd_sc_mcu9t5v0__dffrnq_2
* cell instance $224 r0 *1 1277.92,1083.6
X$224 682 16 34 15 14 683 gf180mcu_fd_sc_mcu9t5v0__dffrnq_2
* cell instance $226 m0 *1 1276.24,1093.68
X$226 682 683 14 30 28 34 gf180mcu_fd_sc_mcu9t5v0__mux2_2
* cell instance $228 r0 *1 1265.6,1144.08
X$228 682 16 113 15 129 683 gf180mcu_fd_sc_mcu9t5v0__dffrnq_2
* cell instance $230 m0 *1 1237.04,1154.16
X$230 682 16 112 15 127 683 gf180mcu_fd_sc_mcu9t5v0__dffrnq_2
* cell instance $232 m0 *1 1328.32,1194.48
X$232 682 16 214 15 233 683 gf180mcu_fd_sc_mcu9t5v0__dffrnq_4
* cell instance $234 m0 *1 1336.72,1184.4
X$234 682 16 184 15 183 683 gf180mcu_fd_sc_mcu9t5v0__dffrnq_4
* cell instance $236 r0 *1 1314.88,1184.4
X$236 682 201 15 683 gf180mcu_fd_sc_mcu9t5v0__clkbuf_20
* cell instance $239 m0 *1 1277.92,1164.24
X$239 682 16 136 15 135 683 gf180mcu_fd_sc_mcu9t5v0__dffrnq_2
* cell instance $241 m0 *1 1264.48,1123.92
X$241 682 16 64 15 77 683 gf180mcu_fd_sc_mcu9t5v0__dffrnq_2
* cell instance $244 m0 *1 1285.2,1103.76
X$244 682 16 35 15 57 683 gf180mcu_fd_sc_mcu9t5v0__dffrnq_2
* cell instance $247 r0 *1 1256.64,1184.4
X$247 682 16 177 15 232 683 gf180mcu_fd_sc_mcu9t5v0__dffrnq_2
* cell instance $249 m0 *1 1312.08,1184.4
X$249 682 16 182 15 192 683 gf180mcu_fd_sc_mcu9t5v0__dffrnq_2
* cell instance $252 m0 *1 1296.96,1164.24
X$252 682 16 138 15 137 683 gf180mcu_fd_sc_mcu9t5v0__dffrnq_2
* cell instance $254 m0 *1 1293.04,1184.4
X$254 682 16 181 15 193 683 gf180mcu_fd_sc_mcu9t5v0__dffrnq_2
* cell instance $257 r0 *1 1307.04,1184.4
X$257 682 683 15 gf180mcu_fd_sc_mcu9t5v0__clkbuf_4
* cell instance $270 m0 *1 1218,1224.72
X$270 682 16 299 235 317 683 gf180mcu_fd_sc_mcu9t5v0__dffrnq_2
* cell instance $272 m0 *1 1332.8,1123.92
X$272 682 16 71 51 74 683 gf180mcu_fd_sc_mcu9t5v0__dffrnq_2
* cell instance $274 m0 *1 1336.16,1113.84
X$274 682 16 54 51 53 683 gf180mcu_fd_sc_mcu9t5v0__dffrnq_2
* cell instance $277 r0 *1 1217.44,1123.92
X$277 682 16 85 17 84 683 gf180mcu_fd_sc_mcu9t5v0__dffrnq_2
* cell instance $279 m0 *1 1377.6,1174.32
X$279 682 16 163 120 162 683 gf180mcu_fd_sc_mcu9t5v0__dffrnq_2
* cell instance $281 m0 *1 1172.08,1315.44
X$281 682 16 537 415 536 683 gf180mcu_fd_sc_mcu9t5v0__dffrnq_2
* cell instance $283 m0 *1 1348.48,1305.36
X$283 682 16 522 520 521 683 gf180mcu_fd_sc_mcu9t5v0__dffrnq_2
* cell instance $286 m0 *1 1289.68,1365.84
X$286 682 16 670 519 669 683 gf180mcu_fd_sc_mcu9t5v0__dffrnq_2
* cell instance $288 m0 *1 1178.24,1184.4
X$288 682 16 151 17 194 683 gf180mcu_fd_sc_mcu9t5v0__dffrnq_2
* cell instance $290 m0 *1 1198.4,1134
X$290 682 16 82 17 98 683 gf180mcu_fd_sc_mcu9t5v0__dffrnq_2
* cell instance $293 m0 *1 1366.4,1154.16
X$293 682 16 144 120 121 683 gf180mcu_fd_sc_mcu9t5v0__dffrnq_2
* cell instance $296 r0 *1 1204,1204.56
X$296 682 16 237 235 257 683 gf180mcu_fd_sc_mcu9t5v0__dffrnq_2
* cell instance $298 m0 *1 1343.44,1214.64
X$298 682 16 216 245 282 683 gf180mcu_fd_sc_mcu9t5v0__dffrnq_2
* cell instance $301 m0 *1 1328.32,1144.08
X$301 682 16 119 51 117 683 gf180mcu_fd_sc_mcu9t5v0__dffrnq_2
* cell instance $304 m0 *1 1333.92,1315.44
X$304 682 16 552 519 551 683 gf180mcu_fd_sc_mcu9t5v0__dffrnq_2
* cell instance $306 m0 *1 1326.64,1305.36
X$306 682 16 528 520 518 683 gf180mcu_fd_sc_mcu9t5v0__dffrnq_2
* cell instance $308 r0 *1 1123.36,1265.04
X$308 682 16 436 403 455 683 gf180mcu_fd_sc_mcu9t5v0__dffrnq_2
* cell instance $311 m0 *1 1237.04,1325.52
X$311 682 16 565 519 586 683 gf180mcu_fd_sc_mcu9t5v0__dffrnq_2
* cell instance $313 m0 *1 1228.64,1335.6
X$313 682 16 569 543 599 683 gf180mcu_fd_sc_mcu9t5v0__dffrnq_2
* cell instance $315 m0 *1 1377.6,1295.28
X$315 682 16 477 520 476 683 gf180mcu_fd_sc_mcu9t5v0__dffrnq_2
* cell instance $319 m0 *1 1139.6,1113.84
X$319 682 16 44 43 58 683 gf180mcu_fd_sc_mcu9t5v0__dffrnq_2
* cell instance $321 r0 *1 1187.2,1214.64
X$321 682 16 297 235 296 683 gf180mcu_fd_sc_mcu9t5v0__dffrnq_2
* cell instance $324 m0 *1 1260.56,1365.84
X$324 682 16 666 519 637 683 gf180mcu_fd_sc_mcu9t5v0__dffrnq_2
* cell instance $326 m0 *1 1338.4,1204.56
X$326 682 16 246 245 244 683 gf180mcu_fd_sc_mcu9t5v0__dffrnq_2
* cell instance $328 r0 *1 1134.56,1244.88
X$328 682 16 378 403 429 683 gf180mcu_fd_sc_mcu9t5v0__dffrnq_2
* cell instance $330 r0 *1 1162.56,1214.64
X$330 682 16 265 253 314 683 gf180mcu_fd_sc_mcu9t5v0__dffrnq_2
* cell instance $333 r0 *1 1391.6,1174.32
X$333 682 16 189 120 190 683 gf180mcu_fd_sc_mcu9t5v0__dffrnq_2
* cell instance $336 m0 *1 1314.32,1365.84
X$336 682 16 639 519 672 683 gf180mcu_fd_sc_mcu9t5v0__dffrnq_2
* cell instance $338 m0 *1 1130.08,1244.88
X$338 682 16 350 403 404 683 gf180mcu_fd_sc_mcu9t5v0__dffrnq_2
* cell instance $340 r0 *1 1337.84,1365.84
X$340 682 16 643 520 641 683 gf180mcu_fd_sc_mcu9t5v0__dffrnq_2
* cell instance $342 m0 *1 1357.44,1244.88
X$342 682 16 363 245 400 683 gf180mcu_fd_sc_mcu9t5v0__dffrnq_2
* cell instance $344 m0 *1 1377.6,1224.72
X$344 682 16 275 245 306 683 gf180mcu_fd_sc_mcu9t5v0__dffrnq_2
* cell instance $346 m0 *1 1318.24,1244.88
X$346 682 16 361 388 360 683 gf180mcu_fd_sc_mcu9t5v0__dffrnq_2
* cell instance $348 r0 *1 1252.72,1335.6
X$348 682 16 619 519 630 683 gf180mcu_fd_sc_mcu9t5v0__dffrnq_2
* cell instance $351 r0 *1 1349.04,1154.16
X$351 682 16 143 120 141 683 gf180mcu_fd_sc_mcu9t5v0__dffrnq_2
* cell instance $353 m0 *1 1261.68,1335.6
X$353 682 16 600 519 629 683 gf180mcu_fd_sc_mcu9t5v0__dffrnq_2
* cell instance $355 m0 *1 1218,1154.16
X$355 682 16 109 17 108 683 gf180mcu_fd_sc_mcu9t5v0__dffrnq_2
* cell instance $358 m0 *1 1288,1345.68
X$358 682 16 621 519 620 683 gf180mcu_fd_sc_mcu9t5v0__dffrnq_2
* cell instance $360 m0 *1 1198.4,1325.52
X$360 682 16 567 415 566 683 gf180mcu_fd_sc_mcu9t5v0__dffrnq_2
* cell instance $362 m0 *1 1151.36,1174.32
X$362 682 16 150 43 165 683 gf180mcu_fd_sc_mcu9t5v0__dffrnq_2
* cell instance $364 r0 *1 1156.96,1174.32
X$364 682 16 170 43 169 683 gf180mcu_fd_sc_mcu9t5v0__dffrnq_2
* cell instance $366 m0 *1 1153.6,1184.4
X$366 682 16 197 43 168 683 gf180mcu_fd_sc_mcu9t5v0__dffrnq_2
* cell instance $369 m0 *1 1200.64,1295.28
X$369 682 16 494 415 506 683 gf180mcu_fd_sc_mcu9t5v0__dffrnq_2
* cell instance $372 r0 *1 1333.92,1285.2
X$372 682 16 502 392 474 683 gf180mcu_fd_sc_mcu9t5v0__dffrnq_2
* cell instance $374 m0 *1 1319.36,1154.16
X$374 682 16 140 51 116 683 gf180mcu_fd_sc_mcu9t5v0__dffrnq_2
* cell instance $376 m0 *1 1088.64,1244.88
X$376 682 16 349 403 368 683 gf180mcu_fd_sc_mcu9t5v0__dffrnq_2
* cell instance $378 m0 *1 1343.44,1224.72
X$378 682 16 305 245 310 683 gf180mcu_fd_sc_mcu9t5v0__dffrnq_4
* cell instance $380 m0 *1 1370.32,1214.64
X$380 682 16 218 120 280 683 gf180mcu_fd_sc_mcu9t5v0__dffrnq_2
* cell instance $384 r0 *1 1337.28,1164.24
X$384 682 16 158 51 157 683 gf180mcu_fd_sc_mcu9t5v0__dffrnq_2
* cell instance $386 m0 *1 1208.48,1335.6
X$386 682 16 568 543 598 683 gf180mcu_fd_sc_mcu9t5v0__dffrnq_2
* cell instance $388 m0 *1 1135.68,1234.8
X$388 682 16 320 253 345 683 gf180mcu_fd_sc_mcu9t5v0__dffrnq_2
* cell instance $390 m0 *1 1132.88,1355.76
X$390 682 16 627 532 633 683 gf180mcu_fd_sc_mcu9t5v0__dffrnq_2
* cell instance $392 r0 *1 1136.8,1305.36
X$392 682 16 534 532 582 683 gf180mcu_fd_sc_mcu9t5v0__dffrnq_2
* cell instance $394 r0 *1 1188.32,1355.76
X$394 682 16 618 543 649 683 gf180mcu_fd_sc_mcu9t5v0__dffrnq_2
* cell instance $396 r0 *1 1214.08,1275.12
X$396 682 16 438 415 459 683 gf180mcu_fd_sc_mcu9t5v0__dffrnq_2
* cell instance $399 m0 *1 1244.32,1134
X$399 682 16 88 17 99 683 gf180mcu_fd_sc_mcu9t5v0__dffrnq_2
* cell instance $402 r0 *1 1300.88,1285.2
X$402 682 16 444 388 446 683 gf180mcu_fd_sc_mcu9t5v0__dffrnq_2
* cell instance $404 r0 *1 1354.64,1244.88
X$404 682 16 394 392 393 683 gf180mcu_fd_sc_mcu9t5v0__dffrnq_2
* cell instance $406 r0 *1 1271.76,1305.36
X$406 682 16 557 388 548 683 gf180mcu_fd_sc_mcu9t5v0__dffrnq_2
* cell instance $409 r0 *1 1172.64,1244.88
X$409 682 16 352 253 406 683 gf180mcu_fd_sc_mcu9t5v0__dffrnq_2
* cell instance $413 r0 *1 1235.92,1194.48
X$413 682 16 236 235 239 683 gf180mcu_fd_sc_mcu9t5v0__dffrnq_2
* cell instance $416 r0 *1 1246,1164.24
X$416 682 16 154 17 166 683 gf180mcu_fd_sc_mcu9t5v0__dffrnq_2
* cell instance $418 r0 *1 1387.68,1315.44
X$418 682 16 553 520 578 683 gf180mcu_fd_sc_mcu9t5v0__dffrnq_2
* cell instance $420 m0 *1 1266.72,1305.36
X$420 682 16 516 388 530 683 gf180mcu_fd_sc_mcu9t5v0__dffrnq_2
* cell instance $422 m0 *1 1108.8,1214.64
X$422 682 16 261 253 281 683 gf180mcu_fd_sc_mcu9t5v0__dffrnq_2
* cell instance $424 m0 *1 1106.56,1224.72
X$424 682 16 293 253 291 683 gf180mcu_fd_sc_mcu9t5v0__dffrnq_2
* cell instance $426 r0 *1 1160.88,1103.76
X$426 682 16 45 43 59 683 gf180mcu_fd_sc_mcu9t5v0__dffrnq_2
* cell instance $428 m0 *1 1106.56,1325.52
X$428 682 16 560 532 579 683 gf180mcu_fd_sc_mcu9t5v0__dffrnq_2
* cell instance $430 m0 *1 1100.96,1335.6
X$430 682 16 590 532 589 683 gf180mcu_fd_sc_mcu9t5v0__dffrnq_2
* cell instance $432 r0 *1 1100.96,1325.52
X$432 682 16 559 532 558 683 gf180mcu_fd_sc_mcu9t5v0__dffrnq_2
* cell instance $434 m0 *1 1218,1365.84
X$434 682 16 662 543 635 683 gf180mcu_fd_sc_mcu9t5v0__dffrnq_2
* cell instance $436 r0 *1 1101.52,1234.8
X$436 682 16 318 253 347 683 gf180mcu_fd_sc_mcu9t5v0__dffrnq_2
* cell instance $438 r0 *1 1165.92,1375.92
X$438 682 16 655 543 675 683 gf180mcu_fd_sc_mcu9t5v0__dffrnq_2
* cell instance $441 m0 *1 1140.16,1214.64
X$441 682 16 264 253 262 683 gf180mcu_fd_sc_mcu9t5v0__dffrnq_2
* cell instance $443 r0 *1 1134.56,1345.68
X$443 682 16 614 532 612 683 gf180mcu_fd_sc_mcu9t5v0__dffrnq_2
* cell instance $445 r0 *1 1200.08,1254.96
X$445 682 16 354 415 416 683 gf180mcu_fd_sc_mcu9t5v0__dffrnq_2
* cell instance $447 m0 *1 1208.48,1375.92
X$447 682 16 661 543 660 683 gf180mcu_fd_sc_mcu9t5v0__dffrnq_2
* cell instance $449 m0 *1 1135.12,1224.72
X$449 682 16 313 253 294 683 gf180mcu_fd_sc_mcu9t5v0__dffrnq_2
* cell instance $451 m0 *1 1168.72,1365.84
X$451 682 16 634 543 647 683 gf180mcu_fd_sc_mcu9t5v0__dffrnq_2
* cell instance $453 m0 *1 1360.24,1335.6
X$453 682 16 606 520 605 683 gf180mcu_fd_sc_mcu9t5v0__dffrnq_2
* cell instance $456 m0 *1 1240.4,1295.28
X$456 682 16 495 388 510 683 gf180mcu_fd_sc_mcu9t5v0__dffrnq_2
* cell instance $458 r0 *1 1223.6,1244.88
X$458 682 16 375 235 408 683 gf180mcu_fd_sc_mcu9t5v0__dffrnq_2
* cell instance $460 r0 *1 1226.96,1113.84
X$460 682 16 63 17 62 683 gf180mcu_fd_sc_mcu9t5v0__dffrnq_2
* cell instance $462 r0 *1 1197.84,1093.68
X$462 682 16 21 17 36 683 gf180mcu_fd_sc_mcu9t5v0__dffrnq_2
* cell instance $465 m0 *1 1302.56,1144.08
X$465 682 16 115 51 114 683 gf180mcu_fd_sc_mcu9t5v0__dffrnq_2
* cell instance $468 m0 *1 1198.4,1103.76
X$468 682 16 22 17 18 683 gf180mcu_fd_sc_mcu9t5v0__dffrnq_2
* cell instance $470 r0 *1 1184.96,1375.92
X$470 682 16 657 543 656 683 gf180mcu_fd_sc_mcu9t5v0__dffrnq_2
* cell instance $473 r0 *1 1351.28,1325.52
X$473 682 16 604 520 576 683 gf180mcu_fd_sc_mcu9t5v0__dffrnq_2
* cell instance $475 m0 *1 1207.36,1386
X$475 682 16 674 543 676 683 gf180mcu_fd_sc_mcu9t5v0__dffrnq_2
* cell instance $477 r0 *1 1374.24,1244.88
X$477 682 16 367 392 364 683 gf180mcu_fd_sc_mcu9t5v0__dffrnq_2
* cell instance $479 r0 *1 1225.28,1375.92
X$479 682 16 664 543 663 683 gf180mcu_fd_sc_mcu9t5v0__dffrnq_2
* cell instance $482 m0 *1 1377.6,1254.96
X$482 682 16 395 392 365 683 gf180mcu_fd_sc_mcu9t5v0__dffrnq_2
* cell instance $486 r0 *1 1218.56,1093.68
X$486 682 16 23 17 38 683 gf180mcu_fd_sc_mcu9t5v0__dffrnq_2
* cell instance $489 r0 *1 1204.56,1244.88
X$489 682 16 355 235 407 683 gf180mcu_fd_sc_mcu9t5v0__dffrnq_2
* cell instance $491 m0 *1 1133.44,1345.68
X$491 682 16 613 532 592 683 gf180mcu_fd_sc_mcu9t5v0__dffrnq_2
* cell instance $497 m0 *1 1286.88,1113.84
X$497 682 16 50 51 76 683 gf180mcu_fd_sc_mcu9t5v0__dffrnq_2
* cell instance $500 r0 *1 1333.92,1244.88
X$500 682 16 391 392 390 683 gf180mcu_fd_sc_mcu9t5v0__dffrnq_2
* cell instance $502 m0 *1 1226.96,1315.44
X$502 682 16 545 543 544 683 gf180mcu_fd_sc_mcu9t5v0__dffrnq_2
* cell instance $504 m0 *1 1166.48,1164.24
X$504 682 16 105 43 131 683 gf180mcu_fd_sc_mcu9t5v0__dffrnq_2
* cell instance $507 r0 *1 1223.6,1184.4
X$507 682 16 205 235 228 683 gf180mcu_fd_sc_mcu9t5v0__dffrnq_2
* cell instance $510 m0 *1 1288.56,1325.52
X$510 682 16 571 388 570 683 gf180mcu_fd_sc_mcu9t5v0__dffrnq_2
* cell instance $512 m0 *1 1159.2,1154.16
X$512 682 16 104 43 102 683 gf180mcu_fd_sc_mcu9t5v0__dffrnq_2
* cell instance $514 m0 *1 1097.6,1265.04
X$514 682 16 412 403 411 683 gf180mcu_fd_sc_mcu9t5v0__dffrnq_2
* cell instance $516 r0 *1 1149.12,1144.08
X$516 682 16 100 43 123 683 gf180mcu_fd_sc_mcu9t5v0__dffrnq_2
* cell instance $519 m0 *1 1099.28,1285.2
X$519 682 16 462 403 461 683 gf180mcu_fd_sc_mcu9t5v0__dffrnq_2
* cell instance $521 m0 *1 1377.6,1305.36
X$521 682 16 523 520 554 683 gf180mcu_fd_sc_mcu9t5v0__dffrnq_2
* cell instance $524 r0 *1 1099.28,1275.12
X$524 682 16 434 403 432 683 gf180mcu_fd_sc_mcu9t5v0__dffrnq_2
* cell instance $526 m0 *1 1273.44,1375.92
X$526 682 16 668 519 667 683 gf180mcu_fd_sc_mcu9t5v0__dffrnq_2
* cell instance $528 r0 *1 1202.32,1224.72
X$528 682 16 266 235 315 683 gf180mcu_fd_sc_mcu9t5v0__dffrnq_2
* cell instance $530 m0 *1 1175.44,1295.28
X$530 682 16 490 415 489 683 gf180mcu_fd_sc_mcu9t5v0__dffrnq_2
* cell instance $533 r0 *1 1300.32,1254.96
X$533 682 16 420 388 409 683 gf180mcu_fd_sc_mcu9t5v0__dffrnq_2
* cell instance $535 m0 *1 1299.76,1254.96
X$535 682 16 387 388 389 683 gf180mcu_fd_sc_mcu9t5v0__dffrnq_2
* cell instance $537 m0 *1 1301.44,1315.44
X$537 682 16 549 388 550 683 gf180mcu_fd_sc_mcu9t5v0__dffrnq_2
* cell instance $539 m0 *1 1166.48,1254.96
X$539 682 16 379 415 405 683 gf180mcu_fd_sc_mcu9t5v0__dffrnq_2
* cell instance $542 r0 *1 1351.84,1275.12
X$542 682 16 475 392 478 683 gf180mcu_fd_sc_mcu9t5v0__dffrnq_2
* cell instance $544 r0 *1 1154.16,1134
X$544 682 16 61 43 78 683 gf180mcu_fd_sc_mcu9t5v0__dffrnq_2
* cell instance $546 r0 *1 1145.76,1285.2
X$546 682 16 487 403 505 683 gf180mcu_fd_sc_mcu9t5v0__dffrnq_2
* cell instance $548 m0 *1 1399.44,1265.04
X$548 682 16 399 392 424 683 gf180mcu_fd_sc_mcu9t5v0__dffrnq_2
* cell instance $550 m0 *1 1318.8,1325.52
X$550 682 16 573 519 574 683 gf180mcu_fd_sc_mcu9t5v0__dffrnq_2
* cell instance $552 r0 *1 1139.6,1295.28
X$552 682 16 488 403 527 683 gf180mcu_fd_sc_mcu9t5v0__dffrnq_2
* cell instance $554 r0 *1 1321.6,1325.52
X$554 682 16 575 519 601 683 gf180mcu_fd_sc_mcu9t5v0__dffrnq_2
* cell instance $556 r0 *1 1175.44,1275.12
X$556 682 16 437 415 464 683 gf180mcu_fd_sc_mcu9t5v0__dffrnq_2
* cell instance $558 r0 *1 1360.8,1355.76
X$558 682 16 646 520 645 683 gf180mcu_fd_sc_mcu9t5v0__dffrnq_2
* cell instance $560 r0 *1 1320.48,1355.76
X$560 682 16 651 519 671 683 gf180mcu_fd_sc_mcu9t5v0__dffrnq_2
* cell instance $562 r0 *1 1191.68,1164.24
X$562 682 16 152 17 167 683 gf180mcu_fd_sc_mcu9t5v0__dffrnq_2
* cell instance $564 m0 *1 1167.6,1134
X$564 682 16 80 43 96 683 gf180mcu_fd_sc_mcu9t5v0__dffrnq_2
* cell instance $567 r0 *1 1248.8,1093.68
X$567 682 16 29 17 26 683 gf180mcu_fd_sc_mcu9t5v0__dffrnq_2
* cell instance $570 m0 *1 1099.84,1305.36
X$570 682 16 512 532 526 683 gf180mcu_fd_sc_mcu9t5v0__dffrnq_2
* cell instance $572 r0 *1 1171.52,1345.68
X$572 682 16 617 543 628 683 gf180mcu_fd_sc_mcu9t5v0__dffrnq_2
* cell instance $574 r0 *1 1234.24,1103.76
X$574 682 16 46 17 60 683 gf180mcu_fd_sc_mcu9t5v0__dffrnq_2
* cell instance $576 m0 *1 1360.8,1275.12
X$576 682 16 452 392 453 683 gf180mcu_fd_sc_mcu9t5v0__dffrnq_2
* cell instance $579 m0 *1 1317.12,1113.84
X$579 682 16 69 51 52 683 gf180mcu_fd_sc_mcu9t5v0__dffrnq_2
* cell instance $582 m0 *1 1205.68,1174.32
X$582 682 16 153 235 195 683 gf180mcu_fd_sc_mcu9t5v0__dffrnq_2
* cell instance $584 r0 *1 1062.88,1103.76
X$584 682 55 16 683 gf180mcu_fd_sc_mcu9t5v0__buf_20
* cell instance $586 m0 *1 1145.2,1315.44
X$586 682 16 535 532 533 683 gf180mcu_fd_sc_mcu9t5v0__dffrnq_2
* cell instance $588 m0 *1 1361.92,1194.48
X$588 682 16 223 120 229 683 gf180mcu_fd_sc_mcu9t5v0__dffrnq_4
* cell instance $591 r0 *1 1426.88,1214.64
X$591 682 16 308 245 277 683 gf180mcu_fd_sc_mcu9t5v0__dffrnq_4
* cell instance $594 r0 *1 1403.36,1214.64
X$594 682 16 278 245 309 683 gf180mcu_fd_sc_mcu9t5v0__dffrnq_4
* cell instance $749 m0 *1 1198.4,1194.48
X$749 682 201 17 683 gf180mcu_fd_sc_mcu9t5v0__clkbuf_20
* cell instance $771 r0 *1 1204,1103.76
X$771 682 683 18 30 20 22 gf180mcu_fd_sc_mcu9t5v0__mux2_2
* cell instance $774 m0 *1 1280.16,1365.84
X$774 682 683 667 19 498 668 gf180mcu_fd_sc_mcu9t5v0__mux2_2
* cell instance $776 r0 *1 1208.48,1134
X$776 682 683 98 19 81 82 gf180mcu_fd_sc_mcu9t5v0__mux2_2
* cell instance $778 m0 *1 1350.16,1164.24
X$778 682 683 141 19 142 143 gf180mcu_fd_sc_mcu9t5v0__mux2_2
* cell instance $780 r0 *1 1328.32,1365.84
X$780 682 683 671 19 517 651 gf180mcu_fd_sc_mcu9t5v0__mux2_2
* cell instance $782 m0 *1 1349.6,1285.2
X$782 682 683 478 19 473 475 gf180mcu_fd_sc_mcu9t5v0__mux2_2
* cell instance $785 r0 *1 1335.6,1103.76
X$785 682 683 53 19 70 54 gf180mcu_fd_sc_mcu9t5v0__mux2_2
* cell instance $787 m0 *1 1207.92,1093.68
X$787 682 683 36 19 20 21 gf180mcu_fd_sc_mcu9t5v0__mux2_2
* cell instance $789 m0 *1 1340.08,1254.96
X$789 682 683 390 19 366 391 gf180mcu_fd_sc_mcu9t5v0__mux2_2
* cell instance $792 m0 *1 1255.52,1103.76
X$792 682 683 26 19 28 29 gf180mcu_fd_sc_mcu9t5v0__mux2_2
* cell instance $794 r0 *1 1211.84,1174.32
X$794 682 683 195 19 171 153 gf180mcu_fd_sc_mcu9t5v0__mux2_2
* cell instance $796 m0 *1 1212.4,1355.76
X$796 682 683 323 19 gf180mcu_fd_sc_mcu9t5v0__buf_4
* cell instance $814 m0 *1 1155.84,1134
X$814 682 683 78 68 20 61 gf180mcu_fd_sc_mcu9t5v0__mux2_2
* cell instance $816 r0 *1 1223.6,1154.16
X$816 682 683 108 132 20 109 gf180mcu_fd_sc_mcu9t5v0__mux2_2
* cell instance $818 m0 *1 1229.76,1093.68
X$818 682 683 38 40 20 23 gf180mcu_fd_sc_mcu9t5v0__mux2_2
* cell instance $821 m0 *1 1167.04,1113.84
X$821 682 683 59 56 20 45 gf180mcu_fd_sc_mcu9t5v0__mux2_2
* cell instance $827 m0 *1 1150.8,1154.16
X$827 682 683 123 118 20 100 gf180mcu_fd_sc_mcu9t5v0__mux2_2
* cell instance $829 m0 *1 1158.64,1113.84
X$829 682 683 58 27 20 44 gf180mcu_fd_sc_mcu9t5v0__mux2_2
* cell instance $833 m0 *1 1238.16,1164.24
X$833 682 683 231 20 gf180mcu_fd_sc_mcu9t5v0__buf_4
* cell instance $856 m0 *1 1238.16,1093.68
X$856 39 683 41 37 682 24 gf180mcu_fd_sc_mcu9t5v0__and3_2
* cell instance $858 r0 *1 1240.4,1144.08
X$858 112 110 24 124 682 683 234 gf180mcu_fd_sc_mcu9t5v0__and4_2
* cell instance $864 m0 *1 1223.6,1134
X$864 682 683 84 27 81 85 gf180mcu_fd_sc_mcu9t5v0__mux2_2
* cell instance $868 r0 *1 1323.84,1144.08
X$868 682 683 116 27 70 140 gf180mcu_fd_sc_mcu9t5v0__mux2_2
* cell instance $871 r0 *1 1161.44,1204.56
X$871 682 683 168 27 171 197 gf180mcu_fd_sc_mcu9t5v0__mux2_2
* cell instance $873 r0 *1 1369.2,1154.16
X$873 682 683 121 27 142 144 gf180mcu_fd_sc_mcu9t5v0__mux2_2
* cell instance $875 r0 *1 1271.76,1335.6
X$875 682 683 629 27 498 600 gf180mcu_fd_sc_mcu9t5v0__mux2_2
* cell instance $877 m0 *1 1379.28,1285.2
X$877 682 683 453 27 473 452 gf180mcu_fd_sc_mcu9t5v0__mux2_2
* cell instance $880 m0 *1 1358.56,1254.96
X$880 682 683 393 27 366 394 gf180mcu_fd_sc_mcu9t5v0__mux2_2
* cell instance $882 r0 *1 1366.4,1335.6
X$882 682 683 605 27 517 606 gf180mcu_fd_sc_mcu9t5v0__mux2_2
* cell instance $884 r0 *1 1151.92,1275.12
X$884 682 263 27 683 gf180mcu_fd_sc_mcu9t5v0__clkbuf_8
* cell instance $901 m0 *1 1271.76,1154.16
X$901 682 683 129 118 28 113 gf180mcu_fd_sc_mcu9t5v0__mux2_2
* cell instance $903 r0 *1 1283.52,1154.16
X$903 682 683 135 132 28 136 gf180mcu_fd_sc_mcu9t5v0__mux2_2
* cell instance $905 r0 *1 1288.56,1113.84
X$905 682 683 76 68 28 50 gf180mcu_fd_sc_mcu9t5v0__mux2_2
* cell instance $908 r0 *1 1253.28,1103.76
X$908 682 683 60 40 28 46 gf180mcu_fd_sc_mcu9t5v0__mux2_2
* cell instance $912 r0 *1 1287.44,1103.76
X$912 682 683 57 56 28 35 gf180mcu_fd_sc_mcu9t5v0__mux2_2
* cell instance $914 m0 *1 1263.92,1234.8
X$914 337 333 334 682 683 28 gf180mcu_fd_sc_mcu9t5v0__and3_4
* cell instance $926 m0 *1 1200.64,1164.24
X$926 682 683 167 30 171 152 gf180mcu_fd_sc_mcu9t5v0__mux2_2
* cell instance $929 r0 *1 1288.56,1365.84
X$929 682 683 669 30 498 670 gf180mcu_fd_sc_mcu9t5v0__mux2_2
* cell instance $931 r0 *1 1351.28,1355.76
X$931 682 683 641 30 517 643 gf180mcu_fd_sc_mcu9t5v0__mux2_2
* cell instance $934 r0 *1 1383.76,1214.64
X$934 682 683 306 30 142 275 gf180mcu_fd_sc_mcu9t5v0__mux2_2
* cell instance $936 m0 *1 1232,1123.92
X$936 682 683 62 30 81 63 gf180mcu_fd_sc_mcu9t5v0__mux2_2
* cell instance $939 m0 *1 1381.52,1244.88
X$939 682 683 365 30 366 395 gf180mcu_fd_sc_mcu9t5v0__mux2_2
* cell instance $943 r0 *1 1380.4,1275.12
X$943 682 683 476 30 473 477 gf180mcu_fd_sc_mcu9t5v0__mux2_2
* cell instance $945 r0 *1 1322.72,1113.84
X$945 682 683 52 30 70 69 gf180mcu_fd_sc_mcu9t5v0__mux2_2
* cell instance $947 r0 *1 1209.04,1355.76
X$947 682 683 380 30 gf180mcu_fd_sc_mcu9t5v0__buf_4
* cell instance $964 r0 *1 1277.36,1123.92
X$964 90 683 92 31 682 95 gf180mcu_fd_sc_mcu9t5v0__and3_2
* cell instance $966 m0 *1 1277.92,1103.76
X$966 31 32 33 47 682 683 48 gf180mcu_fd_sc_mcu9t5v0__and4_2
* cell instance $972 r0 *1 1281.28,1113.84
X$972 32 33 47 49 682 683 66 gf180mcu_fd_sc_mcu9t5v0__and4_2
* cell instance $1008 r0 *1 1383.2,1164.24
X$1008 682 683 162 40 142 163 gf180mcu_fd_sc_mcu9t5v0__mux2_2
* cell instance $1010 r0 *1 1263.36,1355.76
X$1010 682 683 637 40 498 666 gf180mcu_fd_sc_mcu9t5v0__mux2_2
* cell instance $1013 r0 *1 1319.92,1365.84
X$1013 682 683 672 40 517 639 gf180mcu_fd_sc_mcu9t5v0__mux2_2
* cell instance $1015 r0 *1 1246,1123.92
X$1015 682 683 99 40 81 88 gf180mcu_fd_sc_mcu9t5v0__mux2_2
* cell instance $1017 m0 *1 1234.8,1194.48
X$1017 682 683 228 40 171 205 gf180mcu_fd_sc_mcu9t5v0__mux2_2
* cell instance $1021 r0 *1 1399.44,1254.96
X$1021 682 683 424 40 366 399 gf180mcu_fd_sc_mcu9t5v0__mux2_2
* cell instance $1023 m0 *1 1388.24,1315.44
X$1023 682 683 578 40 473 553 gf180mcu_fd_sc_mcu9t5v0__mux2_2
* cell instance $1026 r0 *1 1331.12,1113.84
X$1026 682 683 74 40 70 71 gf180mcu_fd_sc_mcu9t5v0__mux2_2
* cell instance $1028 r0 *1 1229.2,1355.76
X$1028 682 683 298 40 gf180mcu_fd_sc_mcu9t5v0__buf_4
* cell instance $1051 r0 *1 534.24,1103.76
X$1051 682 55 42 683 gf180mcu_fd_sc_mcu9t5v0__dlyc_2
* cell instance $1065 r0 *1 1145.2,1184.4
X$1065 682 683 43 gf180mcu_fd_sc_mcu9t5v0__inv_3
* cell instance $1068 r0 *1 1158.08,1184.4
X$1068 682 201 43 683 gf180mcu_fd_sc_mcu9t5v0__clkbuf_20
* cell instance $1109 m0 *1 1283.52,1123.92
X$1109 64 49 65 48 682 683 67 gf180mcu_fd_sc_mcu9t5v0__and4_2
* cell instance $1123 m0 *1 1324.96,1174.32
X$1123 682 51 687 683 gf180mcu_fd_sc_mcu9t5v0__clkbuf_12
* cell instance $1126 r0 *1 1324.96,1174.32
X$1126 682 201 51 683 gf180mcu_fd_sc_mcu9t5v0__clkbuf_20
* cell instance $1152 r0 *1 1338.4,1123.92
X$1152 683 72 54 682 73 gf180mcu_fd_sc_mcu9t5v0__xnor2_2
* cell instance $1161 r0 *1 1336.72,1194.48
X$1161 682 683 244 56 142 246 gf180mcu_fd_sc_mcu9t5v0__mux2_2
* cell instance $1163 m0 *1 1336.72,1285.2
X$1163 682 683 474 56 473 502 gf180mcu_fd_sc_mcu9t5v0__mux2_2
* cell instance $1166 r0 *1 1314.32,1174.32
X$1166 682 683 192 56 70 182 gf180mcu_fd_sc_mcu9t5v0__mux2_2
* cell instance $1169 m0 *1 1319.36,1335.6
X$1169 682 683 601 56 517 575 gf180mcu_fd_sc_mcu9t5v0__mux2_2
* cell instance $1171 r0 *1 1168.16,1144.08
X$1171 682 683 102 56 81 104 gf180mcu_fd_sc_mcu9t5v0__mux2_2
* cell instance $1174 r0 *1 1324.4,1244.88
X$1174 682 683 360 56 366 361 gf180mcu_fd_sc_mcu9t5v0__mux2_2
* cell instance $1177 r0 *1 1288.56,1315.44
X$1177 682 683 570 56 498 571 gf180mcu_fd_sc_mcu9t5v0__mux2_2
* cell instance $1180 m0 *1 1210.16,1204.56
X$1180 682 683 257 56 171 237 gf180mcu_fd_sc_mcu9t5v0__mux2_2
* cell instance $1183 r0 *1 1192.24,1254.96