* CDL Netlist generated by OpenROAD

*.BUSDELIMITER [

.SUBCKT network_interface clk dest_id[0] dest_id[1] dest_id[2]
+ dest_id[3] dest_id[4] dest_id[5] dest_id[6] dest_id[7] mem_addr[0]
+ mem_addr[10] mem_addr[11] mem_addr[12] mem_addr[13] mem_addr[14]
+ mem_addr[15] mem_addr[16] mem_addr[17] mem_addr[18] mem_addr[19]
+ mem_addr[1] mem_addr[20] mem_addr[21] mem_addr[22] mem_addr[23]
+ mem_addr[24] mem_addr[25] mem_addr[26] mem_addr[27] mem_addr[28]
+ mem_addr[29] mem_addr[2] mem_addr[30] mem_addr[31] mem_addr[3]
+ mem_addr[4] mem_addr[5] mem_addr[6] mem_addr[7] mem_addr[8]
+ mem_addr[9] mem_rdata[0] mem_rdata[10] mem_rdata[11] mem_rdata[12]
+ mem_rdata[13] mem_rdata[14] mem_rdata[15] mem_rdata[16] mem_rdata[17]
+ mem_rdata[18] mem_rdata[19] mem_rdata[1] mem_rdata[20] mem_rdata[21]
+ mem_rdata[22] mem_rdata[23] mem_rdata[24] mem_rdata[25] mem_rdata[26]
+ mem_rdata[27] mem_rdata[28] mem_rdata[29] mem_rdata[2] mem_rdata[30]
+ mem_rdata[31] mem_rdata[3] mem_rdata[4] mem_rdata[5] mem_rdata[6]
+ mem_rdata[7] mem_rdata[8] mem_rdata[9] mem_read mem_ready
+ mem_wdata[0] mem_wdata[10] mem_wdata[11] mem_wdata[12] mem_wdata[13]
+ mem_wdata[14] mem_wdata[15] mem_wdata[16] mem_wdata[17] mem_wdata[18]
+ mem_wdata[19] mem_wdata[1] mem_wdata[20] mem_wdata[21] mem_wdata[22]
+ mem_wdata[23] mem_wdata[24] mem_wdata[25] mem_wdata[26] mem_wdata[27]
+ mem_wdata[28] mem_wdata[29] mem_wdata[2] mem_wdata[30] mem_wdata[31]
+ mem_wdata[3] mem_wdata[4] mem_wdata[5] mem_wdata[6] mem_wdata[7]
+ mem_wdata[8] mem_wdata[9] mem_write msg_type[0] msg_type[1]
+ msg_type[2] router_in_data[0] router_in_data[10] router_in_data[11]
+ router_in_data[12] router_in_data[13] router_in_data[14] router_in_data[15]
+ router_in_data[16] router_in_data[17] router_in_data[18] router_in_data[19]
+ router_in_data[1] router_in_data[20] router_in_data[21] router_in_data[22]
+ router_in_data[23] router_in_data[24] router_in_data[25] router_in_data[26]
+ router_in_data[27] router_in_data[28] router_in_data[29] router_in_data[2]
+ router_in_data[30] router_in_data[31] router_in_data[3] router_in_data[4]
+ router_in_data[5] router_in_data[6] router_in_data[7] router_in_data[8]
+ router_in_data[9] router_in_ready router_in_valid router_out_data[0]
+ router_out_data[10] router_out_data[11] router_out_data[12]
+ router_out_data[13] router_out_data[14] router_out_data[15]
+ router_out_data[16] router_out_data[17] router_out_data[18]
+ router_out_data[19] router_out_data[1] router_out_data[20]
+ router_out_data[21] router_out_data[22] router_out_data[23]
+ router_out_data[24] router_out_data[25] router_out_data[26]
+ router_out_data[27] router_out_data[28] router_out_data[29]
+ router_out_data[2] router_out_data[30] router_out_data[31]
+ router_out_data[3] router_out_data[4] router_out_data[5] router_out_data[6]
+ router_out_data[7] router_out_data[8] router_out_data[9] router_out_ready
+ router_out_valid rst_n
X_209_ state\[1\] _072_ VDD VSS gf180mcu_fd_sc_mcu9t5v0__clkinv_2
X_210_ net168 net68 is_write_op _073_ VDD VSS gf180mcu_fd_sc_mcu9t5v0__and3_2
X_211_ net168 net68 _074_ VDD VSS gf180mcu_fd_sc_mcu9t5v0__nand2_2
X_212_ state\[2\] _075_ VDD VSS gf180mcu_fd_sc_mcu9t5v0__buf_12
X_213_ _075_ _076_ VDD VSS gf180mcu_fd_sc_mcu9t5v0__clkinv_16
X_214_ net101 _072_ _073_ _074_ _076_ _002_ VDD VSS gf180mcu_fd_sc_mcu9t5v0__oai32_2
X_215_ _075_ _077_ VDD VSS gf180mcu_fd_sc_mcu9t5v0__buf_8
X_216_ net64 net31 _078_ VDD VSS gf180mcu_fd_sc_mcu9t5v0__or2_2
X_217_ _077_ _074_ _078_ state\[0\] _079_ VDD VSS gf180mcu_fd_sc_mcu9t5v0__aoi22_2
X_218_ _079_ _003_ VDD VSS gf180mcu_fd_sc_mcu9t5v0__clkinv_2
X_219_ net64 net31 _080_ VDD VSS gf180mcu_fd_sc_mcu9t5v0__nor2_2
X_220_ state\[1\] _073_ _080_ state\[0\] state\[3\] _081_
+ VDD VSS gf180mcu_fd_sc_mcu9t5v0__aoi221_2
X_221_ _081_ _001_ VDD VSS gf180mcu_fd_sc_mcu9t5v0__clkinv_2
X_222_ net168 net68 _082_ VDD VSS gf180mcu_fd_sc_mcu9t5v0__and2_2
X_223_ is_write_op _082_ _083_ VDD VSS gf180mcu_fd_sc_mcu9t5v0__nand2_2
X_224_ net101 state\[1\] _083_ _084_ VDD VSS gf180mcu_fd_sc_mcu9t5v0__and3_4
X_225_ _084_ _000_ VDD VSS gf180mcu_fd_sc_mcu9t5v0__clkbuf_12
X_226_ net6 _085_ VDD VSS gf180mcu_fd_sc_mcu9t5v0__clkinv_2
X_227_ net64 _086_ VDD VSS gf180mcu_fd_sc_mcu9t5v0__clkinv_2
X_228_ _086_ first_write_done _076_ _087_ VDD VSS gf180mcu_fd_sc_mcu9t5v0__oai21_4
X_229_ _087_ _088_ VDD VSS gf180mcu_fd_sc_mcu9t5v0__clkbuf_12
X_230_ _075_ _089_ VDD VSS gf180mcu_fd_sc_mcu9t5v0__buf_12
X_231_ _089_ net52 _090_ VDD VSS gf180mcu_fd_sc_mcu9t5v0__nand2_2
X_232_ _085_ _088_ _090_ _091_ VDD VSS gf180mcu_fd_sc_mcu9t5v0__oai21_2
X_233_ state\[0\] _092_ VDD VSS gf180mcu_fd_sc_mcu9t5v0__clkinv_3
X_234_ _076_ _082_ _078_ _092_ _093_ VDD VSS gf180mcu_fd_sc_mcu9t5v0__oai22_4
X_235_ _076_ is_write_op _074_ _094_ VDD VSS gf180mcu_fd_sc_mcu9t5v0__nor3_2
X_236_ _076_ _092_ _093_ _094_ _095_ VDD VSS gf180mcu_fd_sc_mcu9t5v0__aoi211_4
X_237_ _095_ _096_ VDD VSS gf180mcu_fd_sc_mcu9t5v0__buf_12
X_238_ net156 _091_ _096_ _004_ VDD VSS gf180mcu_fd_sc_mcu9t5v0__mux2_2
X_239_ net7 _097_ VDD VSS gf180mcu_fd_sc_mcu9t5v0__clkinv_2
X_240_ _089_ net53 _098_ VDD VSS gf180mcu_fd_sc_mcu9t5v0__nand2_2
X_241_ _097_ _088_ _098_ _099_ VDD VSS gf180mcu_fd_sc_mcu9t5v0__oai21_2
X_242_ net157 _099_ _096_ _005_ VDD VSS gf180mcu_fd_sc_mcu9t5v0__mux2_2
X_243_ net54 _100_ VDD VSS gf180mcu_fd_sc_mcu9t5v0__clkinv_2
X_244_ first_write_done _101_ VDD VSS gf180mcu_fd_sc_mcu9t5v0__clkinv_2
X_245_ net64 _101_ _075_ _102_ VDD VSS gf180mcu_fd_sc_mcu9t5v0__aoi21_4
X_246_ _102_ _103_ VDD VSS gf180mcu_fd_sc_mcu9t5v0__buf_8
X_247_ net23 _104_ VDD VSS gf180mcu_fd_sc_mcu9t5v0__clkinv_2
X_248_ _077_ _100_ _103_ _104_ _105_ VDD VSS gf180mcu_fd_sc_mcu9t5v0__aoi22_2
X_249_ net158 _105_ _096_ _006_ VDD VSS gf180mcu_fd_sc_mcu9t5v0__mux2_2
X_250_ net8 _106_ VDD VSS gf180mcu_fd_sc_mcu9t5v0__clkinv_2
X_251_ _089_ net55 _107_ VDD VSS gf180mcu_fd_sc_mcu9t5v0__nand2_2
X_252_ _106_ _088_ _107_ _108_ VDD VSS gf180mcu_fd_sc_mcu9t5v0__oai21_2
X_253_ net159 _108_ _096_ _007_ VDD VSS gf180mcu_fd_sc_mcu9t5v0__mux2_2
X_254_ net9 _109_ VDD VSS gf180mcu_fd_sc_mcu9t5v0__clkinv_2
X_255_ _089_ net56 _110_ VDD VSS gf180mcu_fd_sc_mcu9t5v0__nand2_2
X_256_ _109_ _088_ _110_ _111_ VDD VSS gf180mcu_fd_sc_mcu9t5v0__oai21_2
X_257_ net160 _111_ _096_ _008_ VDD VSS gf180mcu_fd_sc_mcu9t5v0__mux2_2
X_258_ net24 _112_ VDD VSS gf180mcu_fd_sc_mcu9t5v0__clkinv_2
X_259_ _075_ _113_ VDD VSS gf180mcu_fd_sc_mcu9t5v0__clkbuf_12
X_260_ _113_ net57 _114_ VDD VSS gf180mcu_fd_sc_mcu9t5v0__nand2_2
X_261_ _112_ _088_ _114_ _115_ VDD VSS gf180mcu_fd_sc_mcu9t5v0__oai21_2
X_262_ net161 _115_ _096_ _009_ VDD VSS gf180mcu_fd_sc_mcu9t5v0__mux2_2
X_263_ net25 _116_ VDD VSS gf180mcu_fd_sc_mcu9t5v0__clkinv_2
X_264_ _113_ net58 _117_ VDD VSS gf180mcu_fd_sc_mcu9t5v0__nand2_2
X_265_ _116_ _088_ _117_ _118_ VDD VSS gf180mcu_fd_sc_mcu9t5v0__oai21_2
X_266_ net162 _118_ _096_ _010_ VDD VSS gf180mcu_fd_sc_mcu9t5v0__mux2_2
X_267_ net59 _119_ VDD VSS gf180mcu_fd_sc_mcu9t5v0__clkinv_2
X_268_ net26 _120_ VDD VSS gf180mcu_fd_sc_mcu9t5v0__clkinv_2
X_269_ _077_ _119_ _103_ _120_ _121_ VDD VSS gf180mcu_fd_sc_mcu9t5v0__aoi22_2
X_270_ net163 _121_ _096_ _011_ VDD VSS gf180mcu_fd_sc_mcu9t5v0__mux2_2
X_271_ net60 _122_ VDD VSS gf180mcu_fd_sc_mcu9t5v0__clkinv_2
X_272_ net27 _123_ VDD VSS gf180mcu_fd_sc_mcu9t5v0__clkinv_2
X_273_ _077_ _122_ _103_ _123_ _124_ VDD VSS gf180mcu_fd_sc_mcu9t5v0__aoi22_2
X_274_ net164 _124_ _096_ _012_ VDD VSS gf180mcu_fd_sc_mcu9t5v0__mux2_2
X_275_ net28 _125_ VDD VSS gf180mcu_fd_sc_mcu9t5v0__clkinv_2
X_276_ _113_ net61 _126_ VDD VSS gf180mcu_fd_sc_mcu9t5v0__nand2_2
X_277_ _125_ _088_ _126_ _127_ VDD VSS gf180mcu_fd_sc_mcu9t5v0__oai21_2
X_278_ net165 _127_ _096_ _013_ VDD VSS gf180mcu_fd_sc_mcu9t5v0__mux2_2
X_279_ net62 _128_ VDD VSS gf180mcu_fd_sc_mcu9t5v0__clkinv_2
X_280_ net29 _129_ VDD VSS gf180mcu_fd_sc_mcu9t5v0__clkinv_2
X_281_ _077_ _128_ _103_ _129_ _130_ VDD VSS gf180mcu_fd_sc_mcu9t5v0__aoi22_2
X_282_ _095_ _131_ VDD VSS gf180mcu_fd_sc_mcu9t5v0__buf_12
X_283_ net166 _130_ _131_ _014_ VDD VSS gf180mcu_fd_sc_mcu9t5v0__mux2_2
X_284_ net30 _132_ VDD VSS gf180mcu_fd_sc_mcu9t5v0__clkinv_2
X_285_ _113_ net63 _133_ VDD VSS gf180mcu_fd_sc_mcu9t5v0__nand2_2
X_286_ _132_ _088_ _133_ _134_ VDD VSS gf180mcu_fd_sc_mcu9t5v0__oai21_2
X_287_ net167 _134_ _131_ _015_ VDD VSS gf180mcu_fd_sc_mcu9t5v0__mux2_2
X_288_ _076_ state\[1\] _073_ _135_ VDD VSS gf180mcu_fd_sc_mcu9t5v0__or3_2
X_289_ _135_ net168 _093_ _136_ VDD VSS gf180mcu_fd_sc_mcu9t5v0__mux2_2
X_290_ _089_ _072_ _083_ _093_ _137_ VDD VSS gf180mcu_fd_sc_mcu9t5v0__or4_2
X_291_ net168 _138_ VDD VSS gf180mcu_fd_sc_mcu9t5v0__clkinv_2
X_292_ _077_ state\[1\] _092_ _138_ _139_ VDD VSS gf180mcu_fd_sc_mcu9t5v0__oai31_2
X_293_ _136_ _137_ _139_ _016_ VDD VSS gf180mcu_fd_sc_mcu9t5v0__and3_2
X_294_ net64 state\[0\] _140_ VDD VSS gf180mcu_fd_sc_mcu9t5v0__and2_2
X_295_ first_write_done _140_ _017_ VDD VSS gf180mcu_fd_sc_mcu9t5v0__or2_2
X_296_ state\[0\] net31 _141_ VDD VSS gf180mcu_fd_sc_mcu9t5v0__nand2_2
X_297_ is_write_op _141_ _140_ _142_ VDD VSS gf180mcu_fd_sc_mcu9t5v0__aoi21_2
X_298_ _142_ _018_ VDD VSS gf180mcu_fd_sc_mcu9t5v0__clkinv_2
X_299_ net103 net69 _000_ _019_ VDD VSS gf180mcu_fd_sc_mcu9t5v0__mux2_2
X_300_ net104 net70 _000_ _020_ VDD VSS gf180mcu_fd_sc_mcu9t5v0__mux2_2
X_301_ net105 net71 _000_ _021_ VDD VSS gf180mcu_fd_sc_mcu9t5v0__mux2_2
X_302_ net106 net72 _000_ _022_ VDD VSS gf180mcu_fd_sc_mcu9t5v0__mux2_2
X_303_ net107 net73 _000_ _023_ VDD VSS gf180mcu_fd_sc_mcu9t5v0__mux2_2
X_304_ net108 net74 _000_ _024_ VDD VSS gf180mcu_fd_sc_mcu9t5v0__mux2_2
X_305_ net109 net75 _000_ _025_ VDD VSS gf180mcu_fd_sc_mcu9t5v0__mux2_2
X_306_ net110 net76 _000_ _026_ VDD VSS gf180mcu_fd_sc_mcu9t5v0__mux2_2
X_307_ net111 net77 _000_ _027_ VDD VSS gf180mcu_fd_sc_mcu9t5v0__mux2_2
X_308_ _084_ _143_ VDD VSS gf180mcu_fd_sc_mcu9t5v0__buf_12
X_309_ net112 net78 _143_ _028_ VDD VSS gf180mcu_fd_sc_mcu9t5v0__mux2_2
X_310_ net113 net79 _143_ _029_ VDD VSS gf180mcu_fd_sc_mcu9t5v0__mux2_2
X_311_ net114 net80 _143_ _030_ VDD VSS gf180mcu_fd_sc_mcu9t5v0__mux2_2
X_312_ net115 net81 _143_ _031_ VDD VSS gf180mcu_fd_sc_mcu9t5v0__mux2_2
X_313_ net116 net82 _143_ _032_ VDD VSS gf180mcu_fd_sc_mcu9t5v0__mux2_2
X_314_ net117 net83 _143_ _033_ VDD VSS gf180mcu_fd_sc_mcu9t5v0__mux2_2
X_315_ net118 net84 _143_ _034_ VDD VSS gf180mcu_fd_sc_mcu9t5v0__mux2_2
X_316_ net119 net85 _143_ _035_ VDD VSS gf180mcu_fd_sc_mcu9t5v0__mux2_2
X_317_ net120 net86 _143_ _036_ VDD VSS gf180mcu_fd_sc_mcu9t5v0__mux2_2
X_318_ net121 net87 _143_ _037_ VDD VSS gf180mcu_fd_sc_mcu9t5v0__mux2_2
X_319_ _084_ _144_ VDD VSS gf180mcu_fd_sc_mcu9t5v0__buf_4
X_320_ net122 net88 _144_ _038_ VDD VSS gf180mcu_fd_sc_mcu9t5v0__mux2_2
X_321_ net123 net89 _144_ _039_ VDD VSS gf180mcu_fd_sc_mcu9t5v0__mux2_2
X_322_ net124 net90 _144_ _040_ VDD VSS gf180mcu_fd_sc_mcu9t5v0__mux2_2
X_323_ net125 net91 _144_ _041_ VDD VSS gf180mcu_fd_sc_mcu9t5v0__mux2_2
X_324_ net126 net92 _144_ _042_ VDD VSS gf180mcu_fd_sc_mcu9t5v0__mux2_2
X_325_ net127 net93 _144_ _043_ VDD VSS gf180mcu_fd_sc_mcu9t5v0__mux2_2
X_326_ net128 net94 _144_ _044_ VDD VSS gf180mcu_fd_sc_mcu9t5v0__mux2_2
X_327_ net129 net95 _144_ _045_ VDD VSS gf180mcu_fd_sc_mcu9t5v0__mux2_2
X_328_ net130 net96 _144_ _046_ VDD VSS gf180mcu_fd_sc_mcu9t5v0__mux2_2
X_329_ net131 net97 _144_ _047_ VDD VSS gf180mcu_fd_sc_mcu9t5v0__mux2_2
X_330_ net132 net98 _084_ _048_ VDD VSS gf180mcu_fd_sc_mcu9t5v0__mux2_2
X_331_ net133 net99 _084_ _049_ VDD VSS gf180mcu_fd_sc_mcu9t5v0__mux2_2
X_332_ net134 net100 _084_ _050_ VDD VSS gf180mcu_fd_sc_mcu9t5v0__mux2_2
X_333_ net135 _145_ VDD VSS gf180mcu_fd_sc_mcu9t5v0__clkinv_2
X_334_ state\[0\] state\[3\] _146_ VDD VSS gf180mcu_fd_sc_mcu9t5v0__or2_2
X_335_ net101 _073_ _147_ VDD VSS gf180mcu_fd_sc_mcu9t5v0__or2_2
X_336_ _145_ _146_ _147_ _148_ VDD VSS gf180mcu_fd_sc_mcu9t5v0__mux2_2
X_337_ _145_ _146_ _148_ _072_ _051_ VDD VSS gf180mcu_fd_sc_mcu9t5v0__oai22_2
X_338_ net32 _149_ VDD VSS gf180mcu_fd_sc_mcu9t5v0__clkinv_2
X_339_ net10 _150_ VDD VSS gf180mcu_fd_sc_mcu9t5v0__clkinv_2
X_340_ _077_ _149_ _103_ _150_ _151_ VDD VSS gf180mcu_fd_sc_mcu9t5v0__aoi22_2
X_341_ net136 _151_ _131_ _052_ VDD VSS gf180mcu_fd_sc_mcu9t5v0__mux2_2
X_342_ net33 _152_ VDD VSS gf180mcu_fd_sc_mcu9t5v0__clkinv_2
X_343_ net11 _153_ VDD VSS gf180mcu_fd_sc_mcu9t5v0__clkinv_2
X_344_ _077_ _152_ _103_ _153_ _154_ VDD VSS gf180mcu_fd_sc_mcu9t5v0__aoi22_2
X_345_ net137 _154_ _131_ _053_ VDD VSS gf180mcu_fd_sc_mcu9t5v0__mux2_2
X_346_ net12 _155_ VDD VSS gf180mcu_fd_sc_mcu9t5v0__clkinv_2
X_347_ _113_ net34 _156_ VDD VSS gf180mcu_fd_sc_mcu9t5v0__nand2_2
X_348_ _155_ _088_ _156_ _157_ VDD VSS gf180mcu_fd_sc_mcu9t5v0__oai21_2
X_349_ net138 _157_ _131_ _054_ VDD VSS gf180mcu_fd_sc_mcu9t5v0__mux2_2
X_350_ net13 _158_ VDD VSS gf180mcu_fd_sc_mcu9t5v0__clkinv_2
X_351_ _113_ net35 _159_ VDD VSS gf180mcu_fd_sc_mcu9t5v0__nand2_2
X_352_ _158_ _088_ _159_ _160_ VDD VSS gf180mcu_fd_sc_mcu9t5v0__oai21_2
X_353_ net139 _160_ _131_ _055_ VDD VSS gf180mcu_fd_sc_mcu9t5v0__mux2_2
X_354_ net14 _161_ VDD VSS gf180mcu_fd_sc_mcu9t5v0__clkinv_2
X_355_ _113_ net36 _162_ VDD VSS gf180mcu_fd_sc_mcu9t5v0__nand2_2
X_356_ _161_ _087_ _162_ _163_ VDD VSS gf180mcu_fd_sc_mcu9t5v0__oai21_2
X_357_ net140 _163_ _131_ _056_ VDD VSS gf180mcu_fd_sc_mcu9t5v0__mux2_2
X_358_ net37 _164_ VDD VSS gf180mcu_fd_sc_mcu9t5v0__clkinv_2
X_359_ net15 _165_ VDD VSS gf180mcu_fd_sc_mcu9t5v0__clkinv_2
X_360_ _077_ _164_ _103_ _165_ _166_ VDD VSS gf180mcu_fd_sc_mcu9t5v0__aoi22_2
X_361_ net141 _166_ _131_ _057_ VDD VSS gf180mcu_fd_sc_mcu9t5v0__mux2_2
X_362_ net16 _167_ VDD VSS gf180mcu_fd_sc_mcu9t5v0__clkinv_2
X_363_ _113_ net38 _168_ VDD VSS gf180mcu_fd_sc_mcu9t5v0__nand2_2
X_364_ _167_ _087_ _168_ _169_ VDD VSS gf180mcu_fd_sc_mcu9t5v0__oai21_2
X_365_ net142 _169_ _131_ _058_ VDD VSS gf180mcu_fd_sc_mcu9t5v0__mux2_2
X_366_ net39 _170_ VDD VSS gf180mcu_fd_sc_mcu9t5v0__clkinv_2
X_367_ net17 _171_ VDD VSS gf180mcu_fd_sc_mcu9t5v0__clkinv_2
X_368_ _077_ _170_ _103_ _171_ _172_ VDD VSS gf180mcu_fd_sc_mcu9t5v0__aoi22_2
X_369_ net143 _172_ _131_ _059_ VDD VSS gf180mcu_fd_sc_mcu9t5v0__mux2_2
X_370_ net40 _173_ VDD VSS gf180mcu_fd_sc_mcu9t5v0__clkinv_2
X_371_ net18 _174_ VDD VSS gf180mcu_fd_sc_mcu9t5v0__clkinv_2
X_372_ _089_ _173_ _103_ _174_ _175_ VDD VSS gf180mcu_fd_sc_mcu9t5v0__aoi22_2
X_373_ _095_ _176_ VDD VSS gf180mcu_fd_sc_mcu9t5v0__buf_12
X_374_ net144 _175_ _176_ _060_ VDD VSS gf180mcu_fd_sc_mcu9t5v0__mux2_2
X_375_ net19 _177_ VDD VSS gf180mcu_fd_sc_mcu9t5v0__clkinv_2
X_376_ _113_ net41 _178_ VDD VSS gf180mcu_fd_sc_mcu9t5v0__nand2_2
X_377_ _177_ _087_ _178_ _179_ VDD VSS gf180mcu_fd_sc_mcu9t5v0__oai21_2
X_378_ net145 _179_ _176_ _061_ VDD VSS gf180mcu_fd_sc_mcu9t5v0__mux2_2
X_379_ net42 _180_ VDD VSS gf180mcu_fd_sc_mcu9t5v0__clkinv_2
X_380_ net20 _181_ VDD VSS gf180mcu_fd_sc_mcu9t5v0__clkinv_2
X_381_ _089_ _180_ _103_ _181_ _182_ VDD VSS gf180mcu_fd_sc_mcu9t5v0__aoi22_2
X_382_ net146 _182_ _176_ _062_ VDD VSS gf180mcu_fd_sc_mcu9t5v0__mux2_2
X_383_ net43 _183_ VDD VSS gf180mcu_fd_sc_mcu9t5v0__clkinv_2
X_384_ net21 _184_ VDD VSS gf180mcu_fd_sc_mcu9t5v0__clkinv_2
X_385_ _089_ _183_ _102_ _184_ _185_ VDD VSS gf180mcu_fd_sc_mcu9t5v0__aoi22_2
X_386_ net147 _185_ _176_ _063_ VDD VSS gf180mcu_fd_sc_mcu9t5v0__mux2_2
X_387_ net64 net22 _186_ VDD VSS gf180mcu_fd_sc_mcu9t5v0__or2_2
X_388_ net44 _186_ _076_ _187_ VDD VSS gf180mcu_fd_sc_mcu9t5v0__mux2_2
X_389_ net148 _187_ _176_ _064_ VDD VSS gf180mcu_fd_sc_mcu9t5v0__mux2_2
X_390_ net45 _188_ VDD VSS gf180mcu_fd_sc_mcu9t5v0__clkinv_2
X_391_ net65 _189_ VDD VSS gf180mcu_fd_sc_mcu9t5v0__clkinv_2
X_392_ _089_ _188_ _102_ _189_ _190_ VDD VSS gf180mcu_fd_sc_mcu9t5v0__aoi22_2
X_393_ net149 _190_ _176_ _065_ VDD VSS gf180mcu_fd_sc_mcu9t5v0__mux2_2
X_394_ net66 _191_ VDD VSS gf180mcu_fd_sc_mcu9t5v0__clkinv_2
X_395_ _113_ net46 _192_ VDD VSS gf180mcu_fd_sc_mcu9t5v0__nand2_2
X_396_ _191_ _087_ _192_ _193_ VDD VSS gf180mcu_fd_sc_mcu9t5v0__oai21_2
X_397_ net150 _193_ _176_ _066_ VDD VSS gf180mcu_fd_sc_mcu9t5v0__mux2_2
X_398_ net67 _194_ VDD VSS gf180mcu_fd_sc_mcu9t5v0__clkinv_2
X_399_ _075_ net47 _195_ VDD VSS gf180mcu_fd_sc_mcu9t5v0__nand2_2
X_400_ _194_ _087_ _195_ _196_ VDD VSS gf180mcu_fd_sc_mcu9t5v0__oai21_2
X_401_ net151 _196_ _176_ _067_ VDD VSS gf180mcu_fd_sc_mcu9t5v0__mux2_2
X_402_ net48 _197_ VDD VSS gf180mcu_fd_sc_mcu9t5v0__clkinv_2
X_403_ net2 _198_ VDD VSS gf180mcu_fd_sc_mcu9t5v0__clkinv_2
X_404_ _089_ _197_ _102_ _198_ _199_ VDD VSS gf180mcu_fd_sc_mcu9t5v0__aoi22_2
X_405_ net152 _199_ _176_ _068_ VDD VSS gf180mcu_fd_sc_mcu9t5v0__mux2_2
X_406_ net3 _200_ VDD VSS gf180mcu_fd_sc_mcu9t5v0__clkinv_2
X_407_ _075_ net49 _201_ VDD VSS gf180mcu_fd_sc_mcu9t5v0__nand2_2
X_408_ _200_ _087_ _201_ _202_ VDD VSS gf180mcu_fd_sc_mcu9t5v0__oai21_2
X_409_ net153 _202_ _176_ _069_ VDD VSS gf180mcu_fd_sc_mcu9t5v0__mux2_2
X_410_ net4 _203_ VDD VSS gf180mcu_fd_sc_mcu9t5v0__clkinv_2
X_411_ _075_ net50 _204_ VDD VSS gf180mcu_fd_sc_mcu9t5v0__nand2_2
X_412_ _203_ _087_ _204_ _205_ VDD VSS gf180mcu_fd_sc_mcu9t5v0__oai21_2
X_413_ net154 _205_ _095_ _070_ VDD VSS gf180mcu_fd_sc_mcu9t5v0__mux2_2
X_414_ net5 _206_ VDD VSS gf180mcu_fd_sc_mcu9t5v0__clkinv_2
X_415_ _075_ net51 _207_ VDD VSS gf180mcu_fd_sc_mcu9t5v0__nand2_2
X_416_ _206_ _087_ _207_ _208_ VDD VSS gf180mcu_fd_sc_mcu9t5v0__oai21_2
X_417_ net155 _208_ _095_ _071_ VDD VSS gf180mcu_fd_sc_mcu9t5v0__mux2_2
X_418_ state\[1\] state\[3\] net169 VDD VSS gf180mcu_fd_sc_mcu9t5v0__or2_2
Xfirst_write_done$_DFFE_PN0P_ _017_ net1 clknet_3_1__leaf_clk
+ first_write_done VDD VSS gf180mcu_fd_sc_mcu9t5v0__dffrnq_2
Xis_write_op$_DFFE_PN0P_ _018_ net1 clknet_3_1__leaf_clk is_write_op
+ VDD VSS gf180mcu_fd_sc_mcu9t5v0__dffrnq_2
Xmem_rdata\[0\]$_DFFE_PN0P_ _019_ net1 clknet_3_0__leaf_clk
+ net103 VDD VSS gf180mcu_fd_sc_mcu9t5v0__dffrnq_2
Xmem_rdata\[10\]$_DFFE_PN0P_ _020_ net1 clknet_3_0__leaf_clk
+ net104 VDD VSS gf180mcu_fd_sc_mcu9t5v0__dffrnq_2
Xmem_rdata\[11\]$_DFFE_PN0P_ _021_ net1 clknet_3_0__leaf_clk
+ net105 VDD VSS gf180mcu_fd_sc_mcu9t5v0__dffrnq_2
Xmem_rdata\[12\]$_DFFE_PN0P_ _022_ net1 clknet_3_4__leaf_clk
+ net106 VDD VSS gf180mcu_fd_sc_mcu9t5v0__dffrnq_2
Xmem_rdata\[13\]$_DFFE_PN0P_ _023_ net1 clknet_3_0__leaf_clk
+ net107 VDD VSS gf180mcu_fd_sc_mcu9t5v0__dffrnq_2
Xmem_rdata\[14\]$_DFFE_PN0P_ _024_ net1 clknet_3_0__leaf_clk
+ net108 VDD VSS gf180mcu_fd_sc_mcu9t5v0__dffrnq_2
Xmem_rdata\[15\]$_DFFE_PN0P_ _025_ net1 clknet_3_0__leaf_clk
+ net109 VDD VSS gf180mcu_fd_sc_mcu9t5v0__dffrnq_2
Xmem_rdata\[16\]$_DFFE_PN0P_ _026_ net1 clknet_3_4__leaf_clk
+ net110 VDD VSS gf180mcu_fd_sc_mcu9t5v0__dffrnq_2
Xmem_rdata\[17\]$_DFFE_PN0P_ _027_ net1 clknet_3_0__leaf_clk
+ net111 VDD VSS gf180mcu_fd_sc_mcu9t5v0__dffrnq_2
Xmem_rdata\[18\]$_DFFE_PN0P_ _028_ net1 clknet_3_5__leaf_clk
+ net112 VDD VSS gf180mcu_fd_sc_mcu9t5v0__dffrnq_2
Xmem_rdata\[19\]$_DFFE_PN0P_ _029_ net1 clknet_3_5__leaf_clk
+ net113 VDD VSS gf180mcu_fd_sc_mcu9t5v0__dffrnq_2
Xmem_rdata\[1\]$_DFFE_PN0P_ _030_ net1 clknet_3_5__leaf_clk
+ net114 VDD VSS gf180mcu_fd_sc_mcu9t5v0__dffrnq_2
Xmem_rdata\[20\]$_DFFE_PN0P_ _031_ net1 clknet_3_5__leaf_clk
+ net115 VDD VSS gf180mcu_fd_sc_mcu9t5v0__dffrnq_2
Xmem_rdata\[21\]$_DFFE_PN0P_ _032_ net1 clknet_3_5__leaf_clk
+ net116 VDD VSS gf180mcu_fd_sc_mcu9t5v0__dffrnq_2
Xmem_rdata\[22\]$_DFFE_PN0P_ _033_ net1 clknet_3_5__leaf_clk
+ net117 VDD VSS gf180mcu_fd_sc_mcu9t5v0__dffrnq_2
Xmem_rdata\[23\]$_DFFE_PN0P_ _034_ net1 clknet_3_7__leaf_clk
+ net118 VDD VSS gf180mcu_fd_sc_mcu9t5v0__dffrnq_2
Xmem_rdata\[24\]$_DFFE_PN0P_ _035_ net1 clknet_3_5__leaf_clk
+ net119 VDD VSS gf180mcu_fd_sc_mcu9t5v0__dffrnq_2
Xmem_rdata\[25\]$_DFFE_PN0P_ _036_ net1 clknet_3_5__leaf_clk
+ net120 VDD VSS gf180mcu_fd_sc_mcu9t5v0__dffrnq_2
Xmem_rdata\[26\]$_DFFE_PN0P_ _037_ net1 clknet_3_5__leaf_clk
+ net121 VDD VSS gf180mcu_fd_sc_mcu9t5v0__dffrnq_2
Xmem_rdata\[27\]$_DFFE_PN0P_ _038_ net1 clknet_3_5__leaf_clk
+ net122 VDD VSS gf180mcu_fd_sc_mcu9t5v0__dffrnq_2
Xmem_rdata\[28\]$_DFFE_PN0P_ _039_ net1 clknet_3_4__leaf_clk
+ net123 VDD VSS gf180mcu_fd_sc_mcu9t5v0__dffrnq_2
Xmem_rdata\[29\]$_DFFE_PN0P_ _040_ net1 clknet_3_4__leaf_clk
+ net124 VDD VSS gf180mcu_fd_sc_mcu9t5v0__dffrnq_2
Xmem_rdata\[2\]$_DFFE_PN0P_ _041_ net1 clknet_3_5__leaf_clk
+ net125 VDD VSS gf180mcu_fd_sc_mcu9t5v0__dffrnq_2
Xmem_rdata\[30\]$_DFFE_PN0P_ _042_ net1 clknet_3_4__leaf_clk
+ net126 VDD VSS gf180mcu_fd_sc_mcu9t5v0__dffrnq_2
Xmem_rdata\[31\]$_DFFE_PN0P_ _043_ net1 clknet_3_4__leaf_clk
+ net127 VDD VSS gf180mcu_fd_sc_mcu9t5v0__dffrnq_2
Xmem_rdata\[3\]$_DFFE_PN0P_ _044_ net1 clknet_3_5__leaf_clk
+ net128 VDD VSS gf180mcu_fd_sc_mcu9t5v0__dffrnq_2
Xmem_rdata\[4\]$_DFFE_PN0P_ _045_ net1 clknet_3_4__leaf_clk
+ net129 VDD VSS gf180mcu_fd_sc_mcu9t5v0__dffrnq_2
Xmem_rdata\[5\]$_DFFE_PN0P_ _046_ net1 clknet_3_4__leaf_clk
+ net130 VDD VSS gf180mcu_fd_sc_mcu9t5v0__dffrnq_2
Xmem_rdata\[6\]$_DFFE_PN0P_ _047_ net1 clknet_3_4__leaf_clk
+ net131 VDD VSS gf180mcu_fd_sc_mcu9t5v0__dffrnq_2
Xmem_rdata\[7\]$_DFFE_PN0P_ _048_ net1 clknet_3_4__leaf_clk
+ net132 VDD VSS gf180mcu_fd_sc_mcu9t5v0__dffrnq_2
Xmem_rdata\[8\]$_DFFE_PN0P_ _049_ net1 clknet_3_6__leaf_clk
+ net133 VDD VSS gf180mcu_fd_sc_mcu9t5v0__dffrnq_4
Xmem_rdata\[9\]$_DFFE_PN0P_ _050_ net1 clknet_3_5__leaf_clk
+ net134 VDD VSS gf180mcu_fd_sc_mcu9t5v0__dffrnq_2
Xmem_ready$_DFFE_PN0P_ _051_ net1 clknet_3_1__leaf_clk net135
+ VDD VSS gf180mcu_fd_sc_mcu9t5v0__dffrnq_2
Xstate\[0\]$_DFF_PN1_ _001_ net102 clknet_3_1__leaf_clk state\[0\]
+ VDD VSS gf180mcu_fd_sc_mcu9t5v0__dffsnq_4
Xstate\[1\]$_DFF_PN0_ _002_ net1 clknet_3_1__leaf_clk state\[1\]
+ VDD VSS gf180mcu_fd_sc_mcu9t5v0__dffrnq_2
Xstate\[2\]$_DFF_PN0_ _003_ net1 clknet_3_1__leaf_clk state\[2\]
+ VDD VSS gf180mcu_fd_sc_mcu9t5v0__dffrnq_2
Xstate\[3\]$_DFF_PN0_ _000_ net1 clknet_3_1__leaf_clk state\[3\]
+ VDD VSS gf180mcu_fd_sc_mcu9t5v0__dffrnq_2
Xtx_data\[0\]$_DFFE_PN0P_ _052_ net1 clknet_3_7__leaf_clk
+ net136 VDD VSS gf180mcu_fd_sc_mcu9t5v0__dffrnq_2
Xtx_data\[10\]$_DFFE_PN0P_ _053_ net1 clknet_3_6__leaf_clk
+ net137 VDD VSS gf180mcu_fd_sc_mcu9t5v0__dffrnq_4
Xtx_data\[11\]$_DFFE_PN0P_ _054_ net1 clknet_3_3__leaf_clk
+ net138 VDD VSS gf180mcu_fd_sc_mcu9t5v0__dffrnq_2
Xtx_data\[12\]$_DFFE_PN0P_ _055_ net1 clknet_3_3__leaf_clk
+ net139 VDD VSS gf180mcu_fd_sc_mcu9t5v0__dffrnq_2
Xtx_data\[13\]$_DFFE_PN0P_ _056_ net1 clknet_3_3__leaf_clk
+ net140 VDD VSS gf180mcu_fd_sc_mcu9t5v0__dffrnq_2
Xtx_data\[14\]$_DFFE_PN0P_ _057_ net1 clknet_3_6__leaf_clk
+ net141 VDD VSS gf180mcu_fd_sc_mcu9t5v0__dffrnq_4
Xtx_data\[15\]$_DFFE_PN0P_ _058_ net1 clknet_3_3__leaf_clk
+ net142 VDD VSS gf180mcu_fd_sc_mcu9t5v0__dffrnq_2
Xtx_data\[16\]$_DFFE_PN0P_ _059_ net1 clknet_3_7__leaf_clk
+ net143 VDD VSS gf180mcu_fd_sc_mcu9t5v0__dffrnq_2
Xtx_data\[17\]$_DFFE_PN0P_ _060_ net1 clknet_3_1__leaf_clk
+ net144 VDD VSS gf180mcu_fd_sc_mcu9t5v0__dffrnq_4
Xtx_data\[18\]$_DFFE_PN0P_ _061_ net1 clknet_3_2__leaf_clk
+ net145 VDD VSS gf180mcu_fd_sc_mcu9t5v0__dffrnq_2
Xtx_data\[19\]$_DFFE_PN0P_ _062_ net1 clknet_3_7__leaf_clk
+ net146 VDD VSS gf180mcu_fd_sc_mcu9t5v0__dffrnq_2
Xtx_data\[1\]$_DFFE_PN0P_ _063_ net1 clknet_3_2__leaf_clk
+ net147 VDD VSS gf180mcu_fd_sc_mcu9t5v0__dffrnq_2
Xtx_data\[20\]$_DFFE_PN0P_ _064_ net1 clknet_3_1__leaf_clk
+ net148 VDD VSS gf180mcu_fd_sc_mcu9t5v0__dffrnq_4
Xtx_data\[21\]$_DFFE_PN0P_ _065_ net1 clknet_3_2__leaf_clk
+ net149 VDD VSS gf180mcu_fd_sc_mcu9t5v0__dffrnq_2
Xtx_data\[22\]$_DFFE_PN0P_ _066_ net1 clknet_3_2__leaf_clk
+ net150 VDD VSS gf180mcu_fd_sc_mcu9t5v0__dffrnq_2
Xtx_data\[23\]$_DFFE_PN0P_ _067_ net1 clknet_3_2__leaf_clk
+ net151 VDD VSS gf180mcu_fd_sc_mcu9t5v0__dffrnq_2
Xtx_data\[24\]$_DFFE_PN0P_ _068_ net1 clknet_3_2__leaf_clk
+ net152 VDD VSS gf180mcu_fd_sc_mcu9t5v0__dffrnq_2
Xtx_data\[25\]$_DFFE_PN0P_ _069_ net1 clknet_3_2__leaf_clk
+ net153 VDD VSS gf180mcu_fd_sc_mcu9t5v0__dffrnq_2
Xtx_data\[26\]$_DFFE_PN0P_ _070_ net1 clknet_3_2__leaf_clk
+ net154 VDD VSS gf180mcu_fd_sc_mcu9t5v0__dffrnq_2
Xtx_data\[27\]$_DFFE_PN0P_ _071_ net1 clknet_3_2__leaf_clk
+ net155 VDD VSS gf180mcu_fd_sc_mcu9t5v0__dffrnq_2
Xtx_data\[28\]$_DFFE_PN0P_ _004_ net1 clknet_3_7__leaf_clk
+ net156 VDD VSS gf180mcu_fd_sc_mcu9t5v0__dffrnq_2
Xtx_data\[29\]$_DFFE_PN0P_ _005_ net1 clknet_3_6__leaf_clk
+ net157 VDD VSS gf180mcu_fd_sc_mcu9t5v0__dffrnq_2
Xtx_data\[2\]$_DFFE_PN0P_ _006_ net1 clknet_3_7__leaf_clk
+ net158 VDD VSS gf180mcu_fd_sc_mcu9t5v0__dffrnq_2
Xtx_data\[30\]$_DFFE_PN0P_ _007_ net1 clknet_3_3__leaf_clk
+ net159 VDD VSS gf180mcu_fd_sc_mcu9t5v0__dffrnq_2
Xtx_data\[31\]$_DFFE_PN0P_ _008_ net1 clknet_3_6__leaf_clk
+ net160 VDD VSS gf180mcu_fd_sc_mcu9t5v0__dffrnq_2
Xtx_data\[3\]$_DFFE_PN0P_ _009_ net1 clknet_3_6__leaf_clk
+ net161 VDD VSS gf180mcu_fd_sc_mcu9t5v0__dffrnq_2
Xtx_data\[4\]$_DFFE_PN0P_ _010_ net1 clknet_3_3__leaf_clk
+ net162 VDD VSS gf180mcu_fd_sc_mcu9t5v0__dffrnq_2
Xtx_data\[5\]$_DFFE_PN0P_ _011_ net1 clknet_3_7__leaf_clk
+ net163 VDD VSS gf180mcu_fd_sc_mcu9t5v0__dffrnq_2
Xtx_data\[6\]$_DFFE_PN0P_ _012_ net1 clknet_3_7__leaf_clk
+ net164 VDD VSS gf180mcu_fd_sc_mcu9t5v0__dffrnq_2
Xtx_data\[7\]$_DFFE_PN0P_ _013_ net1 clknet_3_6__leaf_clk
+ net165 VDD VSS gf180mcu_fd_sc_mcu9t5v0__dffrnq_2
Xtx_data\[8\]$_DFFE_PN0P_ _014_ net1 clknet_3_7__leaf_clk
+ net166 VDD VSS gf180mcu_fd_sc_mcu9t5v0__dffrnq_2
Xtx_data\[9\]$_DFFE_PN0P_ _015_ net1 clknet_3_3__leaf_clk
+ net167 VDD VSS gf180mcu_fd_sc_mcu9t5v0__dffrnq_2
Xtx_valid$_DFFE_PN0P_ _016_ net1 clknet_3_1__leaf_clk net168
+ VDD VSS gf180mcu_fd_sc_mcu9t5v0__dffrnq_4
Xhold1 net102 net1 VDD VSS gf180mcu_fd_sc_mcu9t5v0__buf_20
XPHY_EDGE_ROW_0_Right_0 VDD VSS gf180mcu_fd_sc_mcu9t5v0__endcap
XPHY_EDGE_ROW_1_Right_1 VDD VSS gf180mcu_fd_sc_mcu9t5v0__endcap
XPHY_EDGE_ROW_2_Right_2 VDD VSS gf180mcu_fd_sc_mcu9t5v0__endcap
XPHY_EDGE_ROW_3_Right_3 VDD VSS gf180mcu_fd_sc_mcu9t5v0__endcap
XPHY_EDGE_ROW_4_Right_4 VDD VSS gf180mcu_fd_sc_mcu9t5v0__endcap
XPHY_EDGE_ROW_5_Right_5 VDD VSS gf180mcu_fd_sc_mcu9t5v0__endcap
XPHY_EDGE_ROW_6_Right_6 VDD VSS gf180mcu_fd_sc_mcu9t5v0__endcap
XPHY_EDGE_ROW_7_Right_7 VDD VSS gf180mcu_fd_sc_mcu9t5v0__endcap
XPHY_EDGE_ROW_8_Right_8 VDD VSS gf180mcu_fd_sc_mcu9t5v0__endcap
XPHY_EDGE_ROW_9_Right_9 VDD VSS gf180mcu_fd_sc_mcu9t5v0__endcap
XPHY_EDGE_ROW_10_Right_10 VDD VSS gf180mcu_fd_sc_mcu9t5v0__endcap
XPHY_EDGE_ROW_11_Right_11 VDD VSS gf180mcu_fd_sc_mcu9t5v0__endcap
XPHY_EDGE_ROW_12_Right_12 VDD VSS gf180mcu_fd_sc_mcu9t5v0__endcap
XPHY_EDGE_ROW_13_Right_13 VDD VSS gf180mcu_fd_sc_mcu9t5v0__endcap
XPHY_EDGE_ROW_14_Right_14 VDD VSS gf180mcu_fd_sc_mcu9t5v0__endcap
XPHY_EDGE_ROW_15_Right_15 VDD VSS gf180mcu_fd_sc_mcu9t5v0__endcap
XPHY_EDGE_ROW_16_Right_16 VDD VSS gf180mcu_fd_sc_mcu9t5v0__endcap
XPHY_EDGE_ROW_17_Right_17 VDD VSS gf180mcu_fd_sc_mcu9t5v0__endcap
XPHY_EDGE_ROW_18_Right_18 VDD VSS gf180mcu_fd_sc_mcu9t5v0__endcap
XPHY_EDGE_ROW_19_Right_19 VDD VSS gf180mcu_fd_sc_mcu9t5v0__endcap
XPHY_EDGE_ROW_20_Right_20 VDD VSS gf180mcu_fd_sc_mcu9t5v0__endcap
XPHY_EDGE_ROW_21_Right_21 VDD VSS gf180mcu_fd_sc_mcu9t5v0__endcap
XPHY_EDGE_ROW_22_Right_22 VDD VSS gf180mcu_fd_sc_mcu9t5v0__endcap
XPHY_EDGE_ROW_23_Right_23 VDD VSS gf180mcu_fd_sc_mcu9t5v0__endcap
XPHY_EDGE_ROW_24_Right_24 VDD VSS gf180mcu_fd_sc_mcu9t5v0__endcap
XPHY_EDGE_ROW_25_Right_25 VDD VSS gf180mcu_fd_sc_mcu9t5v0__endcap
XPHY_EDGE_ROW_26_Right_26 VDD VSS gf180mcu_fd_sc_mcu9t5v0__endcap
XPHY_EDGE_ROW_27_Right_27 VDD VSS gf180mcu_fd_sc_mcu9t5v0__endcap
XPHY_EDGE_ROW_28_Right_28 VDD VSS gf180mcu_fd_sc_mcu9t5v0__endcap
XPHY_EDGE_ROW_29_Right_29 VDD VSS gf180mcu_fd_sc_mcu9t5v0__endcap
XPHY_EDGE_ROW_30_Right_30 VDD VSS gf180mcu_fd_sc_mcu9t5v0__endcap
XPHY_EDGE_ROW_31_Right_31 VDD VSS gf180mcu_fd_sc_mcu9t5v0__endcap
XPHY_EDGE_ROW_32_Right_32 VDD VSS gf180mcu_fd_sc_mcu9t5v0__endcap
XPHY_EDGE_ROW_33_Right_33 VDD VSS gf180mcu_fd_sc_mcu9t5v0__endcap
XPHY_EDGE_ROW_34_Right_34 VDD VSS gf180mcu_fd_sc_mcu9t5v0__endcap
XPHY_EDGE_ROW_35_Right_35 VDD VSS gf180mcu_fd_sc_mcu9t5v0__endcap
XPHY_EDGE_ROW_36_Right_36 VDD VSS gf180mcu_fd_sc_mcu9t5v0__endcap
XPHY_EDGE_ROW_37_Right_37 VDD VSS gf180mcu_fd_sc_mcu9t5v0__endcap
XPHY_EDGE_ROW_38_Right_38 VDD VSS gf180mcu_fd_sc_mcu9t5v0__endcap
XPHY_EDGE_ROW_39_Right_39 VDD VSS gf180mcu_fd_sc_mcu9t5v0__endcap
XPHY_EDGE_ROW_40_Right_40 VDD VSS gf180mcu_fd_sc_mcu9t5v0__endcap
XPHY_EDGE_ROW_41_Right_41 VDD VSS gf180mcu_fd_sc_mcu9t5v0__endcap
XPHY_EDGE_ROW_42_Right_42 VDD VSS gf180mcu_fd_sc_mcu9t5v0__endcap
XPHY_EDGE_ROW_43_Right_43 VDD VSS gf180mcu_fd_sc_mcu9t5v0__endcap
XPHY_EDGE_ROW_44_Right_44 VDD VSS gf180mcu_fd_sc_mcu9t5v0__endcap
XPHY_EDGE_ROW_45_Right_45 VDD VSS gf180mcu_fd_sc_mcu9t5v0__endcap
XPHY_EDGE_ROW_46_Right_46 VDD VSS gf180mcu_fd_sc_mcu9t5v0__endcap
XPHY_EDGE_ROW_47_Right_47 VDD VSS gf180mcu_fd_sc_mcu9t5v0__endcap
XPHY_EDGE_ROW_48_Right_48 VDD VSS gf180mcu_fd_sc_mcu9t5v0__endcap
XPHY_EDGE_ROW_49_Right_49 VDD VSS gf180mcu_fd_sc_mcu9t5v0__endcap
XPHY_EDGE_ROW_50_Right_50 VDD VSS gf180mcu_fd_sc_mcu9t5v0__endcap
XPHY_EDGE_ROW_51_Right_51 VDD VSS gf180mcu_fd_sc_mcu9t5v0__endcap
XPHY_EDGE_ROW_52_Right_52 VDD VSS gf180mcu_fd_sc_mcu9t5v0__endcap
XPHY_EDGE_ROW_53_Right_53 VDD VSS gf180mcu_fd_sc_mcu9t5v0__endcap
XPHY_EDGE_ROW_54_Right_54 VDD VSS gf180mcu_fd_sc_mcu9t5v0__endcap
XPHY_EDGE_ROW_55_Right_55 VDD VSS gf180mcu_fd_sc_mcu9t5v0__endcap
XPHY_EDGE_ROW_56_Right_56 VDD VSS gf180mcu_fd_sc_mcu9t5v0__endcap
XPHY_EDGE_ROW_57_Right_57 VDD VSS gf180mcu_fd_sc_mcu9t5v0__endcap
XPHY_EDGE_ROW_58_Right_58 VDD VSS gf180mcu_fd_sc_mcu9t5v0__endcap
XPHY_EDGE_ROW_59_Right_59 VDD VSS gf180mcu_fd_sc_mcu9t5v0__endcap
XPHY_EDGE_ROW_60_Right_60 VDD VSS gf180mcu_fd_sc_mcu9t5v0__endcap
XPHY_EDGE_ROW_61_Right_61 VDD VSS gf180mcu_fd_sc_mcu9t5v0__endcap
XPHY_EDGE_ROW_62_Right_62 VDD VSS gf180mcu_fd_sc_mcu9t5v0__endcap
XPHY_EDGE_ROW_63_Right_63 VDD VSS gf180mcu_fd_sc_mcu9t5v0__endcap
XPHY_EDGE_ROW_64_Right_64 VDD VSS gf180mcu_fd_sc_mcu9t5v0__endcap
XPHY_EDGE_ROW_65_Right_65 VDD VSS gf180mcu_fd_sc_mcu9t5v0__endcap
XPHY_EDGE_ROW_66_Right_66 VDD VSS gf180mcu_fd_sc_mcu9t5v0__endcap
XPHY_EDGE_ROW_67_Right_67 VDD VSS gf180mcu_fd_sc_mcu9t5v0__endcap
XPHY_EDGE_ROW_68_Right_68 VDD VSS gf180mcu_fd_sc_mcu9t5v0__endcap
XPHY_EDGE_ROW_69_Right_69 VDD VSS gf180mcu_fd_sc_mcu9t5v0__endcap