* CDL Netlist generated by OpenROAD

*.BUSDELIMITER [

.SUBCKT dma_controller channel_busy[0] channel_busy[1] channel_busy[2]
+ channel_busy[3] channel_done[0] channel_done[1] channel_done[2]
+ channel_done[3] channel_dst_addr[0] channel_dst_addr[100]
+ channel_dst_addr[101] channel_dst_addr[102] channel_dst_addr[103]
+ channel_dst_addr[104] channel_dst_addr[105] channel_dst_addr[106]
+ channel_dst_addr[107] channel_dst_addr[108] channel_dst_addr[109]
+ channel_dst_addr[10] channel_dst_addr[110] channel_dst_addr[111]
+ channel_dst_addr[112] channel_dst_addr[113] channel_dst_addr[114]
+ channel_dst_addr[115] channel_dst_addr[116] channel_dst_addr[117]
+ channel_dst_addr[118] channel_dst_addr[119] channel_dst_addr[11]
+ channel_dst_addr[120] channel_dst_addr[121] channel_dst_addr[122]
+ channel_dst_addr[123] channel_dst_addr[124] channel_dst_addr[125]
+ channel_dst_addr[126] channel_dst_addr[127] channel_dst_addr[12]
+ channel_dst_addr[13] channel_dst_addr[14] channel_dst_addr[15]
+ channel_dst_addr[16] channel_dst_addr[17] channel_dst_addr[18]
+ channel_dst_addr[19] channel_dst_addr[1] channel_dst_addr[20]
+ channel_dst_addr[21] channel_dst_addr[22] channel_dst_addr[23]
+ channel_dst_addr[24] channel_dst_addr[25] channel_dst_addr[26]
+ channel_dst_addr[27] channel_dst_addr[28] channel_dst_addr[29]
+ channel_dst_addr[2] channel_dst_addr[30] channel_dst_addr[31]
+ channel_dst_addr[32] channel_dst_addr[33] channel_dst_addr[34]
+ channel_dst_addr[35] channel_dst_addr[36] channel_dst_addr[37]
+ channel_dst_addr[38] channel_dst_addr[39] channel_dst_addr[3]
+ channel_dst_addr[40] channel_dst_addr[41] channel_dst_addr[42]
+ channel_dst_addr[43] channel_dst_addr[44] channel_dst_addr[45]
+ channel_dst_addr[46] channel_dst_addr[47] channel_dst_addr[48]
+ channel_dst_addr[49] channel_dst_addr[4] channel_dst_addr[50]
+ channel_dst_addr[51] channel_dst_addr[52] channel_dst_addr[53]
+ channel_dst_addr[54] channel_dst_addr[55] channel_dst_addr[56]
+ channel_dst_addr[57] channel_dst_addr[58] channel_dst_addr[59]
+ channel_dst_addr[5] channel_dst_addr[60] channel_dst_addr[61]
+ channel_dst_addr[62] channel_dst_addr[63] channel_dst_addr[64]
+ channel_dst_addr[65] channel_dst_addr[66] channel_dst_addr[67]
+ channel_dst_addr[68] channel_dst_addr[69] channel_dst_addr[6]
+ channel_dst_addr[70] channel_dst_addr[71] channel_dst_addr[72]
+ channel_dst_addr[73] channel_dst_addr[74] channel_dst_addr[75]
+ channel_dst_addr[76] channel_dst_addr[77] channel_dst_addr[78]
+ channel_dst_addr[79] channel_dst_addr[7] channel_dst_addr[80]
+ channel_dst_addr[81] channel_dst_addr[82] channel_dst_addr[83]
+ channel_dst_addr[84] channel_dst_addr[85] channel_dst_addr[86]
+ channel_dst_addr[87] channel_dst_addr[88] channel_dst_addr[89]
+ channel_dst_addr[8] channel_dst_addr[90] channel_dst_addr[91]
+ channel_dst_addr[92] channel_dst_addr[93] channel_dst_addr[94]
+ channel_dst_addr[95] channel_dst_addr[96] channel_dst_addr[97]
+ channel_dst_addr[98] channel_dst_addr[99] channel_dst_addr[9]
+ channel_enable[0] channel_enable[1] channel_enable[2] channel_enable[3]
+ channel_error[0] channel_error[1] channel_error[2] channel_error[3]
+ channel_length[0] channel_length[100] channel_length[101]
+ channel_length[102] channel_length[103] channel_length[104]
+ channel_length[105] channel_length[106] channel_length[107]
+ channel_length[108] channel_length[109] channel_length[10]
+ channel_length[110] channel_length[111] channel_length[112]
+ channel_length[113] channel_length[114] channel_length[115]
+ channel_length[116] channel_length[117] channel_length[118]
+ channel_length[119] channel_length[11] channel_length[120]
+ channel_length[121] channel_length[122] channel_length[123]
+ channel_length[124] channel_length[125] channel_length[126]
+ channel_length[127] channel_length[12] channel_length[13]
+ channel_length[14] channel_length[15] channel_length[16] channel_length[17]
+ channel_length[18] channel_length[19] channel_length[1] channel_length[20]
+ channel_length[21] channel_length[22] channel_length[23] channel_length[24]
+ channel_length[25] channel_length[26] channel_length[27] channel_length[28]
+ channel_length[29] channel_length[2] channel_length[30] channel_length[31]
+ channel_length[32] channel_length[33] channel_length[34] channel_length[35]
+ channel_length[36] channel_length[37] channel_length[38] channel_length[39]
+ channel_length[3] channel_length[40] channel_length[41] channel_length[42]
+ channel_length[43] channel_length[44] channel_length[45] channel_length[46]
+ channel_length[47] channel_length[48] channel_length[49] channel_length[4]
+ channel_length[50] channel_length[51] channel_length[52] channel_length[53]
+ channel_length[54] channel_length[55] channel_length[56] channel_length[57]
+ channel_length[58] channel_length[59] channel_length[5] channel_length[60]
+ channel_length[61] channel_length[62] channel_length[63] channel_length[64]
+ channel_length[65] channel_length[66] channel_length[67] channel_length[68]
+ channel_length[69] channel_length[6] channel_length[70] channel_length[71]
+ channel_length[72] channel_length[73] channel_length[74] channel_length[75]
+ channel_length[76] channel_length[77] channel_length[78] channel_length[79]
+ channel_length[7] channel_length[80] channel_length[81] channel_length[82]
+ channel_length[83] channel_length[84] channel_length[85] channel_length[86]
+ channel_length[87] channel_length[88] channel_length[89] channel_length[8]
+ channel_length[90] channel_length[91] channel_length[92] channel_length[93]
+ channel_length[94] channel_length[95] channel_length[96] channel_length[97]
+ channel_length[98] channel_length[99] channel_length[9] channel_mode[0]
+ channel_mode[1] channel_mode[2] channel_mode[3] channel_mode[4]
+ channel_mode[5] channel_mode[6] channel_mode[7] channel_src_addr[0]
+ channel_src_addr[100] channel_src_addr[101] channel_src_addr[102]
+ channel_src_addr[103] channel_src_addr[104] channel_src_addr[105]
+ channel_src_addr[106] channel_src_addr[107] channel_src_addr[108]
+ channel_src_addr[109] channel_src_addr[10] channel_src_addr[110]
+ channel_src_addr[111] channel_src_addr[112] channel_src_addr[113]
+ channel_src_addr[114] channel_src_addr[115] channel_src_addr[116]
+ channel_src_addr[117] channel_src_addr[118] channel_src_addr[119]
+ channel_src_addr[11] channel_src_addr[120] channel_src_addr[121]
+ channel_src_addr[122] channel_src_addr[123] channel_src_addr[124]
+ channel_src_addr[125] channel_src_addr[126] channel_src_addr[127]
+ channel_src_addr[12] channel_src_addr[13] channel_src_addr[14]
+ channel_src_addr[15] channel_src_addr[16] channel_src_addr[17]
+ channel_src_addr[18] channel_src_addr[19] channel_src_addr[1]
+ channel_src_addr[20] channel_src_addr[21] channel_src_addr[22]
+ channel_src_addr[23] channel_src_addr[24] channel_src_addr[25]
+ channel_src_addr[26] channel_src_addr[27] channel_src_addr[28]
+ channel_src_addr[29] channel_src_addr[2] channel_src_addr[30]
+ channel_src_addr[31] channel_src_addr[32] channel_src_addr[33]
+ channel_src_addr[34] channel_src_addr[35] channel_src_addr[36]
+ channel_src_addr[37] channel_src_addr[38] channel_src_addr[39]
+ channel_src_addr[3] channel_src_addr[40] channel_src_addr[41]
+ channel_src_addr[42] channel_src_addr[43] channel_src_addr[44]
+ channel_src_addr[45] channel_src_addr[46] channel_src_addr[47]
+ channel_src_addr[48] channel_src_addr[49] channel_src_addr[4]
+ channel_src_addr[50] channel_src_addr[51] channel_src_addr[52]
+ channel_src_addr[53] channel_src_addr[54] channel_src_addr[55]
+ channel_src_addr[56] channel_src_addr[57] channel_src_addr[58]
+ channel_src_addr[59] channel_src_addr[5] channel_src_addr[60]
+ channel_src_addr[61] channel_src_addr[62] channel_src_addr[63]
+ channel_src_addr[64] channel_src_addr[65] channel_src_addr[66]
+ channel_src_addr[67] channel_src_addr[68] channel_src_addr[69]
+ channel_src_addr[6] channel_src_addr[70] channel_src_addr[71]
+ channel_src_addr[72] channel_src_addr[73] channel_src_addr[74]
+ channel_src_addr[75] channel_src_addr[76] channel_src_addr[77]
+ channel_src_addr[78] channel_src_addr[79] channel_src_addr[7]
+ channel_src_addr[80] channel_src_addr[81] channel_src_addr[82]
+ channel_src_addr[83] channel_src_addr[84] channel_src_addr[85]
+ channel_src_addr[86] channel_src_addr[87] channel_src_addr[88]
+ channel_src_addr[89] channel_src_addr[8] channel_src_addr[90]
+ channel_src_addr[91] channel_src_addr[92] channel_src_addr[93]
+ channel_src_addr[94] channel_src_addr[95] channel_src_addr[96]
+ channel_src_addr[97] channel_src_addr[98] channel_src_addr[99]
+ channel_src_addr[9] channel_start[0] channel_start[1] channel_start[2]
+ channel_start[3] clk debug_active_channels[0] debug_active_channels[1]
+ debug_active_channels[2] debug_active_channels[3] debug_channel_state[0]
+ debug_channel_state[10] debug_channel_state[11] debug_channel_state[1]
+ debug_channel_state[2] debug_channel_state[3] debug_channel_state[4]
+ debug_channel_state[5] debug_channel_state[6] debug_channel_state[7]
+ debug_channel_state[8] debug_channel_state[9] debug_has_active_channels
+ debug_transfer_count[0] debug_transfer_count[100] debug_transfer_count[101]
+ debug_transfer_count[102] debug_transfer_count[103] debug_transfer_count[104]
+ debug_transfer_count[105] debug_transfer_count[106] debug_transfer_count[107]
+ debug_transfer_count[108] debug_transfer_count[109] debug_transfer_count[10]
+ debug_transfer_count[110] debug_transfer_count[111] debug_transfer_count[112]
+ debug_transfer_count[113] debug_transfer_count[114] debug_transfer_count[115]
+ debug_transfer_count[116] debug_transfer_count[117] debug_transfer_count[118]
+ debug_transfer_count[119] debug_transfer_count[11] debug_transfer_count[120]
+ debug_transfer_count[121] debug_transfer_count[122] debug_transfer_count[123]
+ debug_transfer_count[124] debug_transfer_count[125] debug_transfer_count[126]
+ debug_transfer_count[127] debug_transfer_count[12] debug_transfer_count[13]
+ debug_transfer_count[14] debug_transfer_count[15] debug_transfer_count[16]
+ debug_transfer_count[17] debug_transfer_count[18] debug_transfer_count[19]
+ debug_transfer_count[1] debug_transfer_count[20] debug_transfer_count[21]
+ debug_transfer_count[22] debug_transfer_count[23] debug_transfer_count[24]
+ debug_transfer_count[25] debug_transfer_count[26] debug_transfer_count[27]
+ debug_transfer_count[28] debug_transfer_count[29] debug_transfer_count[2]
+ debug_transfer_count[30] debug_transfer_count[31] debug_transfer_count[32]
+ debug_transfer_count[33] debug_transfer_count[34] debug_transfer_count[35]
+ debug_transfer_count[36] debug_transfer_count[37] debug_transfer_count[38]
+ debug_transfer_count[39] debug_transfer_count[3] debug_transfer_count[40]
+ debug_transfer_count[41] debug_transfer_count[42] debug_transfer_count[43]
+ debug_transfer_count[44] debug_transfer_count[45] debug_transfer_count[46]
+ debug_transfer_count[47] debug_transfer_count[48] debug_transfer_count[49]
+ debug_transfer_count[4] debug_transfer_count[50] debug_transfer_count[51]
+ debug_transfer_count[52] debug_transfer_count[53] debug_transfer_count[54]
+ debug_transfer_count[55] debug_transfer_count[56] debug_transfer_count[57]
+ debug_transfer_count[58] debug_transfer_count[59] debug_transfer_count[5]
+ debug_transfer_count[60] debug_transfer_count[61] debug_transfer_count[62]
+ debug_transfer_count[63] debug_transfer_count[64] debug_transfer_count[65]
+ debug_transfer_count[66] debug_transfer_count[67] debug_transfer_count[68]
+ debug_transfer_count[69] debug_transfer_count[6] debug_transfer_count[70]
+ debug_transfer_count[71] debug_transfer_count[72] debug_transfer_count[73]
+ debug_transfer_count[74] debug_transfer_count[75] debug_transfer_count[76]
+ debug_transfer_count[77] debug_transfer_count[78] debug_transfer_count[79]
+ debug_transfer_count[7] debug_transfer_count[80] debug_transfer_count[81]
+ debug_transfer_count[82] debug_transfer_count[83] debug_transfer_count[84]
+ debug_transfer_count[85] debug_transfer_count[86] debug_transfer_count[87]
+ debug_transfer_count[88] debug_transfer_count[89] debug_transfer_count[8]
+ debug_transfer_count[90] debug_transfer_count[91] debug_transfer_count[92]
+ debug_transfer_count[93] debug_transfer_count[94] debug_transfer_count[95]
+ debug_transfer_count[96] debug_transfer_count[97] debug_transfer_count[98]
+ debug_transfer_count[99] debug_transfer_count[9] dst_addr[0]
+ dst_addr[100] dst_addr[101] dst_addr[102] dst_addr[103] dst_addr[104]
+ dst_addr[105] dst_addr[106] dst_addr[107] dst_addr[108] dst_addr[109]
+ dst_addr[10] dst_addr[110] dst_addr[111] dst_addr[112] dst_addr[113]
+ dst_addr[114] dst_addr[115] dst_addr[116] dst_addr[117] dst_addr[118]
+ dst_addr[119] dst_addr[11] dst_addr[120] dst_addr[121] dst_addr[122]
+ dst_addr[123] dst_addr[124] dst_addr[125] dst_addr[126] dst_addr[127]
+ dst_addr[12] dst_addr[13] dst_addr[14] dst_addr[15] dst_addr[16]
+ dst_addr[17] dst_addr[18] dst_addr[19] dst_addr[1] dst_addr[20]
+ dst_addr[21] dst_addr[22] dst_addr[23] dst_addr[24] dst_addr[25]
+ dst_addr[26] dst_addr[27] dst_addr[28] dst_addr[29] dst_addr[2]
+ dst_addr[30] dst_addr[31] dst_addr[32] dst_addr[33] dst_addr[34]
+ dst_addr[35] dst_addr[36] dst_addr[37] dst_addr[38] dst_addr[39]
+ dst_addr[3] dst_addr[40] dst_addr[41] dst_addr[42] dst_addr[43]
+ dst_addr[44] dst_addr[45] dst_addr[46] dst_addr[47] dst_addr[48]
+ dst_addr[49] dst_addr[4] dst_addr[50] dst_addr[51] dst_addr[52]
+ dst_addr[53] dst_addr[54] dst_addr[55] dst_addr[56] dst_addr[57]
+ dst_addr[58] dst_addr[59] dst_addr[5] dst_addr[60] dst_addr[61]
+ dst_addr[62] dst_addr[63] dst_addr[64] dst_addr[65] dst_addr[66]
+ dst_addr[67] dst_addr[68] dst_addr[69] dst_addr[6] dst_addr[70]
+ dst_addr[71] dst_addr[72] dst_addr[73] dst_addr[74] dst_addr[75]
+ dst_addr[76] dst_addr[77] dst_addr[78] dst_addr[79] dst_addr[7]
+ dst_addr[80] dst_addr[81] dst_addr[82] dst_addr[83] dst_addr[84]
+ dst_addr[85] dst_addr[86] dst_addr[87] dst_addr[88] dst_addr[89]
+ dst_addr[8] dst_addr[90] dst_addr[91] dst_addr[92] dst_addr[93]
+ dst_addr[94] dst_addr[95] dst_addr[96] dst_addr[97] dst_addr[98]
+ dst_addr[99] dst_addr[9] dst_wdata[0] dst_wdata[100] dst_wdata[101]
+ dst_wdata[102] dst_wdata[103] dst_wdata[104] dst_wdata[105]
+ dst_wdata[106] dst_wdata[107] dst_wdata[108] dst_wdata[109]
+ dst_wdata[10] dst_wdata[110] dst_wdata[111] dst_wdata[112]
+ dst_wdata[113] dst_wdata[114] dst_wdata[115] dst_wdata[116]
+ dst_wdata[117] dst_wdata[118] dst_wdata[119] dst_wdata[11]
+ dst_wdata[120] dst_wdata[121] dst_wdata[122] dst_wdata[123]
+ dst_wdata[124] dst_wdata[125] dst_wdata[126] dst_wdata[127]
+ dst_wdata[12] dst_wdata[13] dst_wdata[14] dst_wdata[15] dst_wdata[16]
+ dst_wdata[17] dst_wdata[18] dst_wdata[19] dst_wdata[1] dst_wdata[20]
+ dst_wdata[21] dst_wdata[22] dst_wdata[23] dst_wdata[24] dst_wdata[25]
+ dst_wdata[26] dst_wdata[27] dst_wdata[28] dst_wdata[29] dst_wdata[2]
+ dst_wdata[30] dst_wdata[31] dst_wdata[32] dst_wdata[33] dst_wdata[34]
+ dst_wdata[35] dst_wdata[36] dst_wdata[37] dst_wdata[38] dst_wdata[39]
+ dst_wdata[3] dst_wdata[40] dst_wdata[41] dst_wdata[42] dst_wdata[43]
+ dst_wdata[44] dst_wdata[45] dst_wdata[46] dst_wdata[47] dst_wdata[48]
+ dst_wdata[49] dst_wdata[4] dst_wdata[50] dst_wdata[51] dst_wdata[52]
+ dst_wdata[53] dst_wdata[54] dst_wdata[55] dst_wdata[56] dst_wdata[57]
+ dst_wdata[58] dst_wdata[59] dst_wdata[5] dst_wdata[60] dst_wdata[61]
+ dst_wdata[62] dst_wdata[63] dst_wdata[64] dst_wdata[65] dst_wdata[66]
+ dst_wdata[67] dst_wdata[68] dst_wdata[69] dst_wdata[6] dst_wdata[70]
+ dst_wdata[71] dst_wdata[72] dst_wdata[73] dst_wdata[74] dst_wdata[75]
+ dst_wdata[76] dst_wdata[77] dst_wdata[78] dst_wdata[79] dst_wdata[7]
+ dst_wdata[80] dst_wdata[81] dst_wdata[82] dst_wdata[83] dst_wdata[84]
+ dst_wdata[85] dst_wdata[86] dst_wdata[87] dst_wdata[88] dst_wdata[89]
+ dst_wdata[8] dst_wdata[90] dst_wdata[91] dst_wdata[92] dst_wdata[93]
+ dst_wdata[94] dst_wdata[95] dst_wdata[96] dst_wdata[97] dst_wdata[98]
+ dst_wdata[99] dst_wdata[9] dst_wready[0] dst_wready[1] dst_wready[2]
+ dst_wready[3] dst_write[0] dst_write[1] dst_write[2] dst_write[3]
+ dst_wstrb[0] dst_wstrb[10] dst_wstrb[11] dst_wstrb[12] dst_wstrb[13]
+ dst_wstrb[14] dst_wstrb[15] dst_wstrb[1] dst_wstrb[2] dst_wstrb[3]
+ dst_wstrb[4] dst_wstrb[5] dst_wstrb[6] dst_wstrb[7] dst_wstrb[8]
+ dst_wstrb[9] rst_n src_addr[0] src_addr[100] src_addr[101]
+ src_addr[102] src_addr[103] src_addr[104] src_addr[105] src_addr[106]
+ src_addr[107] src_addr[108] src_addr[109] src_addr[10] src_addr[110]
+ src_addr[111] src_addr[112] src_addr[113] src_addr[114] src_addr[115]
+ src_addr[116] src_addr[117] src_addr[118] src_addr[119] src_addr[11]
+ src_addr[120] src_addr[121] src_addr[122] src_addr[123] src_addr[124]
+ src_addr[125] src_addr[126] src_addr[127] src_addr[12] src_addr[13]
+ src_addr[14] src_addr[15] src_addr[16] src_addr[17] src_addr[18]
+ src_addr[19] src_addr[1] src_addr[20] src_addr[21] src_addr[22]
+ src_addr[23] src_addr[24] src_addr[25] src_addr[26] src_addr[27]
+ src_addr[28] src_addr[29] src_addr[2] src_addr[30] src_addr[31]
+ src_addr[32] src_addr[33] src_addr[34] src_addr[35] src_addr[36]
+ src_addr[37] src_addr[38] src_addr[39] src_addr[3] src_addr[40]
+ src_addr[41] src_addr[42] src_addr[43] src_addr[44] src_addr[45]
+ src_addr[46] src_addr[47] src_addr[48] src_addr[49] src_addr[4]
+ src_addr[50] src_addr[51] src_addr[52] src_addr[53] src_addr[54]
+ src_addr[55] src_addr[56] src_addr[57] src_addr[58] src_addr[59]
+ src_addr[5] src_addr[60] src_addr[61] src_addr[62] src_addr[63]
+ src_addr[64] src_addr[65] src_addr[66] src_addr[67] src_addr[68]
+ src_addr[69] src_addr[6] src_addr[70] src_addr[71] src_addr[72]
+ src_addr[73] src_addr[74] src_addr[75] src_addr[76] src_addr[77]
+ src_addr[78] src_addr[79] src_addr[7] src_addr[80] src_addr[81]
+ src_addr[82] src_addr[83] src_addr[84] src_addr[85] src_addr[86]
+ src_addr[87] src_addr[88] src_addr[89] src_addr[8] src_addr[90]
+ src_addr[91] src_addr[92] src_addr[93] src_addr[94] src_addr[95]
+ src_addr[96] src_addr[97] src_addr[98] src_addr[99] src_addr[9]
+ src_rdata[0] src_rdata[100] src_rdata[101] src_rdata[102]
+ src_rdata[103] src_rdata[104] src_rdata[105] src_rdata[106]
+ src_rdata[107] src_rdata[108] src_rdata[109] src_rdata[10]
+ src_rdata[110] src_rdata[111] src_rdata[112] src_rdata[113]
+ src_rdata[114] src_rdata[115] src_rdata[116] src_rdata[117]
+ src_rdata[118] src_rdata[119] src_rdata[11] src_rdata[120]
+ src_rdata[121] src_rdata[122] src_rdata[123] src_rdata[124]
+ src_rdata[125] src_rdata[126] src_rdata[127] src_rdata[12]
+ src_rdata[13] src_rdata[14] src_rdata[15] src_rdata[16] src_rdata[17]
+ src_rdata[18] src_rdata[19] src_rdata[1] src_rdata[20] src_rdata[21]
+ src_rdata[22] src_rdata[23] src_rdata[24] src_rdata[25] src_rdata[26]
+ src_rdata[27] src_rdata[28] src_rdata[29] src_rdata[2] src_rdata[30]
+ src_rdata[31] src_rdata[32] src_rdata[33] src_rdata[34] src_rdata[35]
+ src_rdata[36] src_rdata[37] src_rdata[38] src_rdata[39] src_rdata[3]
+ src_rdata[40] src_rdata[41] src_rdata[42] src_rdata[43] src_rdata[44]
+ src_rdata[45] src_rdata[46] src_rdata[47] src_rdata[48] src_rdata[49]
+ src_rdata[4] src_rdata[50] src_rdata[51] src_rdata[52] src_rdata[53]
+ src_rdata[54] src_rdata[55] src_rdata[56] src_rdata[57] src_rdata[58]
+ src_rdata[59] src_rdata[5] src_rdata[60] src_rdata[61] src_rdata[62]
+ src_rdata[63] src_rdata[64] src_rdata[65] src_rdata[66] src_rdata[67]
+ src_rdata[68] src_rdata[69] src_rdata[6] src_rdata[70] src_rdata[71]
+ src_rdata[72] src_rdata[73] src_rdata[74] src_rdata[75] src_rdata[76]
+ src_rdata[77] src_rdata[78] src_rdata[79] src_rdata[7] src_rdata[80]
+ src_rdata[81] src_rdata[82] src_rdata[83] src_rdata[84] src_rdata[85]
+ src_rdata[86] src_rdata[87] src_rdata[88] src_rdata[89] src_rdata[8]
+ src_rdata[90] src_rdata[91] src_rdata[92] src_rdata[93] src_rdata[94]
+ src_rdata[95] src_rdata[96] src_rdata[97] src_rdata[98] src_rdata[99]
+ src_rdata[9] src_read[0] src_read[1] src_read[2] src_read[3]
+ src_rready[0] src_rready[1] src_rready[2] src_rready[3] src_rvalid[0]
+ src_rvalid[1] src_rvalid[2] src_rvalid[3] VSS VDD
X_3444_ net564 net563 VSS VSS VDD VDD _1450_ sky130_fd_sc_hd__nor2_1
X_3445_ net562 _1450_ VSS VSS VDD VDD _1451_ sky130_fd_sc_hd__and2_1
Xinput221 channel_length[64] VSS VSS VDD VDD net221 sky130_fd_sc_hd__clkdlybuf4s50_1
Xinput220 channel_length[63] VSS VSS VDD VDD net220 sky130_fd_sc_hd__clkdlybuf4s50_1
X_3448_ net556 net555 VSS VSS VDD VDD _1453_ sky130_fd_sc_hd__nor2_1
X_3449_ net565 _1453_ VSS VSS VDD VDD _1454_ sky130_fd_sc_hd__and2_1
Xinput219 channel_length[62] VSS VSS VDD VDD net219 sky130_fd_sc_hd__clkdlybuf4s50_1
Xinput218 channel_length[61] VSS VSS VDD VDD net218 sky130_fd_sc_hd__clkdlybuf4s50_1
Xinput217 channel_length[60] VSS VSS VDD VDD net217 sky130_fd_sc_hd__clkdlybuf4s50_1
Xinput216 channel_length[5] VSS VSS VDD VDD net216 sky130_fd_sc_hd__clkdlybuf4s50_1
X_3454_ net557 net554 VSS VSS VDD VDD _1458_ sky130_fd_sc_hd__nand2b_1
X_3455_ net558 _1458_ VSS VSS VDD VDD _1459_ sky130_fd_sc_hd__nor2_4
Xinput215 channel_length[59] VSS VSS VDD VDD net215 sky130_fd_sc_hd__clkdlybuf4s50_1
Xinput214 channel_length[58] VSS VSS VDD VDD net214 sky130_fd_sc_hd__clkdlybuf4s50_1
Xinput213 channel_length[57] VSS VSS VDD VDD net213 sky130_fd_sc_hd__clkdlybuf4s50_1
Xinput212 channel_length[56] VSS VSS VDD VDD net212 sky130_fd_sc_hd__clkdlybuf4s50_1
X_3460_ net1271 net1272 net1273 VSS VSS VDD VDD _1463_ sky130_fd_sc_hd__nor3b_2
Xinput211 channel_length[55] VSS VSS VDD VDD net211 sky130_fd_sc_hd__clkdlybuf4s50_1
X_3462_ net565 net400 VSS VSS VDD VDD _1464_ sky130_fd_sc_hd__nor2b_1
X_3463_ net132 _1453_ _1464_ VSS VSS VDD VDD _1465_ sky130_fd_sc_hd__and3_1
Xinput210 channel_length[54] VSS VSS VDD VDD net210 sky130_fd_sc_hd__clkdlybuf4s50_1
Xinput209 channel_length[53] VSS VSS VDD VDD net209 sky130_fd_sc_hd__clkdlybuf4s50_1
Xinput208 channel_length[52] VSS VSS VDD VDD net208 sky130_fd_sc_hd__clkdlybuf4s50_1
X_3467_ net126 net1251 VSS VSS VDD VDD _1469_ sky130_fd_sc_hd__nand2_1
X_3468_ net555 net565 net404 net556 VSS VSS VDD VDD _1470_
+ sky130_fd_sc_hd__nand4bb_2
Xinput207 channel_length[51] VSS VSS VDD VDD net207 sky130_fd_sc_hd__clkdlybuf4s50_1
X_3470_ net267 net1268 VSS VSS VDD VDD _1472_ sky130_fd_sc_hd__nor2_1
X_3471_ net132 _1453_ _1464_ VSS VSS VDD VDD _1473_ sky130_fd_sc_hd__nand3_2
X_3472_ net555 net565 net404 net556 VSS VSS VDD VDD _1474_
+ sky130_fd_sc_hd__nor4bb_4
Xinput206 channel_length[50] VSS VSS VDD VDD net206 sky130_fd_sc_hd__clkdlybuf4s50_1
X_3474_ net267 net1267 VSS VSS VDD VDD _1476_ sky130_fd_sc_hd__nand2b_1
X_3475_ net1250 _1476_ VSS VSS VDD VDD _1477_ sky130_fd_sc_hd__nand2_1
X_3476_ current_dst_addr\[3\]\[2\] _1477_ VSS VSS VDD VDD
+ _1478_ sky130_fd_sc_hd__nand2_1
X_3477_ current_dst_addr\[3\]\[2\] _1472_ _1478_ VSS VSS VDD
+ VDD _1479_ sky130_fd_sc_hd__o21ai_0
X_3478_ _1469_ _1479_ VSS VSS VDD VDD _0122_ sky130_fd_sc_hd__nand2_1
Xinput205 channel_length[4] VSS VSS VDD VDD net205 sky130_fd_sc_hd__clkdlybuf4s50_1
X_3480_ net127 net1251 VSS VSS VDD VDD _1481_ sky130_fd_sc_hd__nand2_1
Xinput204 channel_length[49] VSS VSS VDD VDD net204 sky130_fd_sc_hd__clkdlybuf4s50_1
X_3482_ current_dst_addr\[3\]\[3\] net1250 VSS VSS VDD VDD
+ _1483_ sky130_fd_sc_hd__nand2_1
X_3483_ _0382_ _1476_ VSS VSS VDD VDD _1484_ sky130_fd_sc_hd__nor2_1
X_3484_ _1476_ _1481_ _1483_ _1484_ VSS VSS VDD VDD _0125_
+ sky130_fd_sc_hd__a31oi_1
X_3485_ current_dst_addr\[3\]\[4\] VSS VSS VDD VDD _1485_
+ sky130_fd_sc_hd__inv_1
X_3486_ _0381_ _1476_ _1477_ VSS VSS VDD VDD _1486_ sky130_fd_sc_hd__o21ai_0
X_3487_ current_dst_addr\[3\]\[4\] _0381_ VSS VSS VDD VDD
+ _1487_ sky130_fd_sc_hd__nand2_1
X_3488_ net267 net1268 _1487_ VSS VSS VDD VDD _1488_ sky130_fd_sc_hd__or3_1
X_3489_ net2 net1250 _1488_ VSS VSS VDD VDD _1489_ sky130_fd_sc_hd__o21ai_0
X_3490_ _1485_ _1486_ _1489_ VSS VSS VDD VDD _0126_ sky130_fd_sc_hd__a21oi_1
Xinput203 channel_length[48] VSS VSS VDD VDD net203 sky130_fd_sc_hd__clkdlybuf4s50_1
X_3492_ current_dst_addr\[3\]\[2\] current_dst_addr\[3\]\[3\]
+ current_dst_addr\[3\]\[4\] VSS VSS VDD VDD _1491_ sky130_fd_sc_hd__nand3_1
X_3493_ _1476_ _1491_ VSS VSS VDD VDD _1492_ sky130_fd_sc_hd__nor2_1
X_3494_ _1472_ _1491_ VSS VSS VDD VDD _1493_ sky130_fd_sc_hd__nand2_1
X_3495_ _1477_ _1493_ current_dst_addr\[3\]\[5\] VSS VSS VDD
+ VDD _1494_ sky130_fd_sc_hd__a21oi_1
Xinput202 channel_length[47] VSS VSS VDD VDD net202 sky130_fd_sc_hd__clkdlybuf4s50_1
X_3497_ net3 net1250 VSS VSS VDD VDD _1496_ sky130_fd_sc_hd__nor2_1
X_3498_ current_dst_addr\[3\]\[5\] _1492_ _1494_ _1496_ VSS
+ VSS VDD VDD _0127_ sky130_fd_sc_hd__a211oi_1
X_3499_ _1476_ _1487_ VSS VSS VDD VDD _1497_ sky130_fd_sc_hd__nor2_1
X_3500_ current_dst_addr\[3\]\[4\] _0381_ current_dst_addr\[3\]\[5\]
+ VSS VSS VDD VDD _1498_ sky130_fd_sc_hd__nand3_1
X_3501_ _1472_ _1498_ VSS VSS VDD VDD _1499_ sky130_fd_sc_hd__nand2_1
X_3502_ _1477_ _1499_ current_dst_addr\[3\]\[6\] VSS VSS VDD
+ VDD _1500_ sky130_fd_sc_hd__a21oi_1
X_3503_ net4 net1250 VSS VSS VDD VDD _1501_ sky130_fd_sc_hd__nor2_1
X_3504_ current_dst_addr\[3\]\[5\] current_dst_addr\[3\]\[6\]
+ _1497_ _1500_ _1501_ VSS VSS VDD VDD _0128_ sky130_fd_sc_hd__a311oi_1
X_3505_ current_dst_addr\[3\]\[5\] current_dst_addr\[3\]\[6\]
+ _1492_ net1251 current_dst_addr\[3\]\[7\] VSS VSS VDD VDD
+ _1502_ sky130_fd_sc_hd__a311oi_1
Xinput201 channel_length[46] VSS VSS VDD VDD net201 sky130_fd_sc_hd__clkdlybuf4s50_1
Xinput200 channel_length[45] VSS VSS VDD VDD net200 sky130_fd_sc_hd__clkdlybuf4s50_1
X_3508_ net267 net1268 _1491_ VSS VSS VDD VDD _1505_ sky130_fd_sc_hd__or3_1
Xinput199 channel_length[44] VSS VSS VDD VDD net199 sky130_fd_sc_hd__clkdlybuf4s50_1
X_3510_ current_dst_addr\[3\]\[5\] current_dst_addr\[3\]\[6\]
+ current_dst_addr\[3\]\[7\] VSS VSS VDD VDD _1507_ sky130_fd_sc_hd__nand3_1
X_3511_ net5 net1250 _1505_ _1507_ VSS VSS VDD VDD _1508_
+ sky130_fd_sc_hd__o22ai_1
X_3512_ _1502_ _1508_ VSS VSS VDD VDD _0129_ sky130_fd_sc_hd__nor2_1
X_3513_ current_dst_addr\[3\]\[5\] current_dst_addr\[3\]\[6\]
+ current_dst_addr\[3\]\[7\] VSS VSS VDD VDD _1509_ sky130_fd_sc_hd__and3_1
X_3514_ _1487_ _1507_ _1472_ VSS VSS VDD VDD _1510_ sky130_fd_sc_hd__o21ai_0
X_3515_ _1477_ _1510_ current_dst_addr\[3\]\[8\] VSS VSS VDD
+ VDD _1511_ sky130_fd_sc_hd__a21oi_1
X_3516_ net6 net1250 VSS VSS VDD VDD _1512_ sky130_fd_sc_hd__nor2_1
X_3517_ current_dst_addr\[3\]\[8\] _1497_ _1509_ _1511_ _1512_
+ VSS VSS VDD VDD _0130_ sky130_fd_sc_hd__a311oi_1
X_3518_ current_dst_addr\[3\]\[8\] current_dst_addr\[3\]\[9\]
+ _1509_ VSS VSS VDD VDD _1513_ sky130_fd_sc_hd__and3_1
Xinput198 channel_length[43] VSS VSS VDD VDD net198 sky130_fd_sc_hd__clkdlybuf4s50_1
X_3520_ current_dst_addr\[3\]\[8\] _1492_ _1509_ current_dst_addr\[3\]\[9\]
+ net1251 VSS VSS VDD VDD _1515_ sky130_fd_sc_hd__a311oi_1
X_3521_ net7 net1250 VSS VSS VDD VDD _1516_ sky130_fd_sc_hd__nor2_1
X_3522_ _1492_ _1513_ _1515_ _1516_ VSS VSS VDD VDD _0131_
+ sky130_fd_sc_hd__a211oi_1
Xinput197 channel_length[42] VSS VSS VDD VDD net197 sky130_fd_sc_hd__clkdlybuf4s50_1
X_3524_ net8 net1250 VSS VSS VDD VDD _1518_ sky130_fd_sc_hd__nor2_1
Xinput196 channel_length[41] VSS VSS VDD VDD net196 sky130_fd_sc_hd__clkdlybuf4s50_1
X_3526_ _1497_ _1513_ current_dst_addr\[3\]\[10\] net1251
+ VSS VSS VDD VDD _1520_ sky130_fd_sc_hd__a211oi_1
X_3527_ current_dst_addr\[3\]\[10\] _1497_ _1513_ _1518_ _1520_
+ VSS VSS VDD VDD _0102_ sky130_fd_sc_hd__a311oi_1
X_3528_ current_dst_addr\[3\]\[10\] _1492_ _1513_ current_dst_addr\[3\]\[11\]
+ net1251 VSS VSS VDD VDD _1521_ sky130_fd_sc_hd__a311oi_1
X_3529_ current_dst_addr\[3\]\[8\] current_dst_addr\[3\]\[9\]
+ current_dst_addr\[3\]\[10\] VSS VSS VDD VDD _1522_ sky130_fd_sc_hd__and3_1
X_3530_ current_dst_addr\[3\]\[11\] _1509_ _1522_ VSS VSS
+ VDD VDD _1523_ sky130_fd_sc_hd__nand3_1
X_3531_ net9 net1250 _1505_ _1523_ VSS VSS VDD VDD _1524_
+ sky130_fd_sc_hd__o22ai_1
X_3532_ _1521_ _1524_ VSS VSS VDD VDD _0103_ sky130_fd_sc_hd__nor2_1
X_3533_ _1488_ _1523_ VSS VSS VDD VDD _1525_ sky130_fd_sc_hd__nor2_1
X_3534_ current_dst_addr\[3\]\[12\] net1251 _1525_ VSS VSS
+ VDD VDD _1526_ sky130_fd_sc_hd__nor3_1
X_3535_ net10 net1250 VSS VSS VDD VDD _1527_ sky130_fd_sc_hd__nor2_1
X_3536_ current_dst_addr\[3\]\[12\] _1525_ _1526_ _1527_ VSS
+ VSS VDD VDD _0104_ sky130_fd_sc_hd__a211oi_1
X_3537_ current_dst_addr\[3\]\[11\] _1509_ _1522_ VSS VSS
+ VDD VDD _1528_ sky130_fd_sc_hd__and3_1
X_3538_ current_dst_addr\[3\]\[12\] _1492_ _1528_ current_dst_addr\[3\]\[13\]
+ net1251 VSS VSS VDD VDD _1529_ sky130_fd_sc_hd__a311oi_1
X_3539_ current_dst_addr\[3\]\[12\] current_dst_addr\[3\]\[13\]
+ _1492_ _1528_ VSS VSS VDD VDD _1530_ sky130_fd_sc_hd__nand4_1
X_3540_ net11 net1250 _1530_ VSS VSS VDD VDD _1531_ sky130_fd_sc_hd__o21ai_0
X_3541_ _1529_ _1531_ VSS VSS VDD VDD _0105_ sky130_fd_sc_hd__nor2_1
Xinput195 channel_length[40] VSS VSS VDD VDD net195 sky130_fd_sc_hd__clkdlybuf4s50_1
X_3543_ current_dst_addr\[3\]\[11\] current_dst_addr\[3\]\[12\]
+ current_dst_addr\[3\]\[13\] VSS VSS VDD VDD _1533_ sky130_fd_sc_hd__and3_1
X_3544_ _1509_ _1522_ _1533_ VSS VSS VDD VDD _1534_ sky130_fd_sc_hd__nand3_1
X_3545_ _1488_ _1534_ VSS VSS VDD VDD _1535_ sky130_fd_sc_hd__nor2_1
X_3546_ _1487_ _1534_ _1472_ VSS VSS VDD VDD _1536_ sky130_fd_sc_hd__o21ai_0
X_3547_ _1477_ _1536_ current_dst_addr\[3\]\[14\] VSS VSS
+ VDD VDD _1537_ sky130_fd_sc_hd__a21oi_1
X_3548_ net13 net1250 VSS VSS VDD VDD _1538_ sky130_fd_sc_hd__nor2_1
X_3549_ current_dst_addr\[3\]\[14\] _1535_ _1537_ _1538_ VSS
+ VSS VDD VDD _0106_ sky130_fd_sc_hd__a211oi_1
X_3550_ _1505_ _1534_ VSS VSS VDD VDD _1539_ sky130_fd_sc_hd__nor2_1
X_3551_ current_dst_addr\[3\]\[14\] _1539_ net1251 current_dst_addr\[3\]\[15\]
+ VSS VSS VDD VDD _1540_ sky130_fd_sc_hd__a211oi_1
X_3552_ net14 net1250 VSS VSS VDD VDD _1541_ sky130_fd_sc_hd__nor2_1
X_3553_ current_dst_addr\[3\]\[14\] current_dst_addr\[3\]\[15\]
+ _1539_ _1540_ _1541_ VSS VSS VDD VDD _0107_ sky130_fd_sc_hd__a311oi_1
X_3554_ current_dst_addr\[3\]\[14\] current_dst_addr\[3\]\[15\]