
* cell configurable_conditional_sum_adder
* pin b[19]
* pin a[9]
* pin b[9]
* pin sum[19]
* pin sum[9]
* pin a[18]
* pin b[18]
* pin b[8]
* pin a[8]
* pin sum[18]
* pin sum[8]
* pin a[17]
* pin b[17]
* pin sum[17]
* pin b[16]
* pin a[16]
* pin sum[16]
* pin a[25]
* pin b[25]
* pin sum[25]
* pin b[24]
* pin a[24]
* pin b[5]
* pin a[5]
* pin b[6]
* pin sum[10]
* pin sum[6]
* pin a[6]
* pin sum[5]
* pin a[10]
* pin b[10]
* pin a[4]
* pin sum[4]
* pin sum[11]
* pin sum[7]
* pin a[11]
* pin b[4]
* pin b[11]
* pin a[7]
* pin b[7]
* pin b[3]
* pin a[3]
* pin a[19]
* pin sum[24]
* pin sum[3]
* pin sum[26]
* pin b[2]
* pin b[26]
* pin a[2]
* pin a[26]
* pin a[23]
* pin sum[23]
* pin b[23]
* pin sum[2]
* pin sum[20]
* pin b[22]
* pin a[22]
* pin a[27]
* pin sum[28]
* pin b[27]
* pin sum[27]
* pin b[28]
* pin sum[22]
* pin b[29]
* pin a[28]
* pin sum[29]
* pin a[29]
* pin b[21]
* pin b[31]
* pin a[31]
* pin a[21]
* pin sum[21]
* pin a[30]
* pin cout
* pin b[30]
* pin sum[31]
* pin sum[30]
* pin b[15]
* pin b[14]
* pin b[0]
* pin a[1]
* pin a[15]
* pin sum[0]
* pin b[13]
* pin sum[1]
* pin a[0]
* pin cin
* pin b[1]
* pin a[13]
* pin a[14]
* pin sum[13]
* pin sum[14]
* pin sum[15]
* pin b[12]
* pin a[12]
* pin sum[12]
* pin b[20]
* pin a[20]
* pin PWELL,gf180mcu_gnd
* pin NWELL
.SUBCKT configurable_conditional_sum_adder 1 2 3 4 5 6 7 8 9 10 11 12 13 14 15
+ 16 17 18 19 20 21 22 83 84 91 92 93 94 95 109 110 111 126 127 128 129 130 131
+ 133 144 169 170 171 186 192 230 238 257 263 283 286 287 288 291 319 332 333
+ 337 338 339 340 354 356 357 359 361 362 381 382 383 384 385 394 396 397 402
+ 405 437 442 450 451 452 453 454 455 458 459 460 461 462 464 465 466 468 469
+ 473 475 476 479 480
* net 1 b[19]
* net 2 a[9]
* net 3 b[9]
* net 4 sum[19]
* net 5 sum[9]
* net 6 a[18]
* net 7 b[18]
* net 8 b[8]
* net 9 a[8]
* net 10 sum[18]
* net 11 sum[8]
* net 12 a[17]
* net 13 b[17]
* net 14 sum[17]
* net 15 b[16]
* net 16 a[16]
* net 17 sum[16]
* net 18 a[25]
* net 19 b[25]
* net 20 sum[25]
* net 21 b[24]
* net 22 a[24]
* net 83 b[5]
* net 84 a[5]
* net 91 b[6]
* net 92 sum[10]
* net 93 sum[6]
* net 94 a[6]
* net 95 sum[5]
* net 109 a[10]
* net 110 b[10]
* net 111 a[4]
* net 126 sum[4]
* net 127 sum[11]
* net 128 sum[7]
* net 129 a[11]
* net 130 b[4]
* net 131 b[11]
* net 133 a[7]
* net 144 b[7]
* net 169 b[3]
* net 170 a[3]
* net 171 a[19]
* net 186 sum[24]
* net 192 sum[3]
* net 230 sum[26]
* net 238 b[2]
* net 257 b[26]
* net 263 a[2]
* net 283 a[26]
* net 286 a[23]
* net 287 sum[23]
* net 288 b[23]
* net 291 sum[2]
* net 319 sum[20]
* net 332 b[22]
* net 333 a[22]
* net 337 a[27]
* net 338 sum[28]
* net 339 b[27]
* net 340 sum[27]
* net 354 b[28]
* net 356 sum[22]
* net 357 b[29]
* net 359 a[28]
* net 361 sum[29]
* net 362 a[29]
* net 381 b[21]
* net 382 b[31]
* net 383 a[31]
* net 384 a[21]
* net 385 sum[21]
* net 394 a[30]
* net 396 cout
* net 397 b[30]
* net 402 sum[31]
* net 405 sum[30]
* net 437 b[15]
* net 442 b[14]
* net 450 b[0]
* net 451 a[1]
* net 452 a[15]
* net 453 sum[0]
* net 454 b[13]
* net 455 sum[1]
* net 458 a[0]
* net 459 cin
* net 460 b[1]
* net 461 a[13]
* net 462 a[14]
* net 464 sum[13]
* net 465 sum[14]
* net 466 sum[15]
* net 468 b[12]
* net 469 a[12]
* net 473 sum[12]
* net 475 b[20]
* net 476 a[20]
* net 479 PWELL,gf180mcu_gnd
* net 480 NWELL
* cell instance $4 m0 *1 697.76,15.12
X$4 1 480 479 40 gf180mcu_fd_sc_mcu9t5v0__dlya_2
* cell instance $8 r0 *1 708.4,5.04
X$8 2 480 479 25 gf180mcu_fd_sc_mcu9t5v0__dlyb_2
* cell instance $12 r0 *1 716.8,5.04
X$12 3 480 479 24 gf180mcu_fd_sc_mcu9t5v0__dlyb_2
* cell instance $15 r0 *1 702.8,15.12
X$15 41 480 479 4 gf180mcu_fd_sc_mcu9t5v0__dlyb_2
* cell instance $19 r0 *1 700,5.04
X$19 32 480 479 5 gf180mcu_fd_sc_mcu9t5v0__dlyb_2
* cell instance $24 m0 *1 706.16,15.12
X$24 6 480 479 42 gf180mcu_fd_sc_mcu9t5v0__dlyb_2
* cell instance $28 r0 *1 725.2,5.04
X$28 7 480 479 43 gf180mcu_fd_sc_mcu9t5v0__dlyb_2
* cell instance $32 m0 *1 715.12,25.2
X$32 8 480 479 36 gf180mcu_fd_sc_mcu9t5v0__dlyb_2
* cell instance $36 m0 *1 721.28,15.12
X$36 9 480 479 38 gf180mcu_fd_sc_mcu9t5v0__dlyb_2
* cell instance $39 r0 *1 733.6,5.04
X$39 45 480 479 10 gf180mcu_fd_sc_mcu9t5v0__dlyb_2
* cell instance $43 r0 *1 721.28,25.2
X$43 73 480 479 11 gf180mcu_fd_sc_mcu9t5v0__dlyb_2
* cell instance $48 r0 *1 742,5.04
X$48 12 480 479 31 gf180mcu_fd_sc_mcu9t5v0__dlyb_2
* cell instance $52 m0 *1 731.92,15.12
X$52 13 480 479 48 gf180mcu_fd_sc_mcu9t5v0__dlyb_2
* cell instance $55 r0 *1 750.4,5.04
X$55 26 480 479 14 gf180mcu_fd_sc_mcu9t5v0__dlyb_2
* cell instance $60 r0 *1 758.8,5.04
X$60 15 480 479 30 gf180mcu_fd_sc_mcu9t5v0__dlyb_2
* cell instance $63 r0 *1 745.92,15.12
X$63 16 480 479 53 gf180mcu_fd_sc_mcu9t5v0__dlyb_2
* cell instance $68 m0 *1 759.92,15.12
X$68 56 480 479 17 gf180mcu_fd_sc_mcu9t5v0__dlyb_2
* cell instance $72 r0 *1 771.12,5.04
X$72 479 480 18 182 gf180mcu_fd_sc_mcu9t5v0__buf_4
* cell instance $76 m0 *1 771.68,15.12
X$76 479 480 19 181 gf180mcu_fd_sc_mcu9t5v0__buf_4
* cell instance $79 r0 *1 782.88,5.04
X$79 29 480 479 20 gf180mcu_fd_sc_mcu9t5v0__dlyb_2
* cell instance $84 r0 *1 814.24,5.04
X$84 479 21 27 480 gf180mcu_fd_sc_mcu9t5v0__clkbuf_8
* cell instance $87 r0 *1 799.68,5.04
X$87 479 22 28 480 gf180mcu_fd_sc_mcu9t5v0__clkbuf_8
* cell instance $91 r0 *1 682.64,5.04
X$91 480 34 23 479 32 gf180mcu_fd_sc_mcu9t5v0__xnor2_2
* cell instance $93 r0 *1 686,25.2
X$93 479 480 23 63 64 35 gf180mcu_fd_sc_mcu9t5v0__mux2_2
* cell instance $97 m0 *1 672,35.28
X$97 479 62 82 23 61 480 gf180mcu_fd_sc_mcu9t5v0__oai21_4
* cell instance $101 m0 *1 678.16,15.12
X$101 479 480 24 25 61 gf180mcu_fd_sc_mcu9t5v0__nor2_4
* cell instance $105 r0 *1 676.48,15.12
X$105 33 479 480 25 24 34 gf180mcu_fd_sc_mcu9t5v0__addh_1
* cell instance $112 m0 *1 740.32,15.12
X$112 480 50 69 479 26 gf180mcu_fd_sc_mcu9t5v0__xnor2_2
* cell instance $121 r0 *1 1328.88,660.24
X$121 160 479 480 28 27 488 gf180mcu_fd_sc_mcu9t5v0__addh_1
* cell instance $124 r0 *1 1338.4,660.24
X$124 479 480 27 167 gf180mcu_fd_sc_mcu9t5v0__clkinv_2
* cell instance $136 r0 *1 1341.76,660.24
X$136 479 480 28 163 gf180mcu_fd_sc_mcu9t5v0__clkinv_2
* cell instance $141 m0 *1 786.8,670.32
X$141 479 29 190 191 480 gf180mcu_fd_sc_mcu9t5v0__xnor2_4
* cell instance $148 r0 *1 759.36,15.12
X$148 479 480 30 57 gf180mcu_fd_sc_mcu9t5v0__clkinv_2
* cell instance $150 m0 *1 749.84,15.12
X$150 51 479 480 53 30 485 gf180mcu_fd_sc_mcu9t5v0__addh_1
* cell instance $157 m0 *1 737.52,25.2
X$157 479 480 47 31 48 gf180mcu_fd_sc_mcu9t5v0__nor2_2
* cell instance $160 r0 *1 736.4,15.12
X$160 46 479 480 31 48 50 gf180mcu_fd_sc_mcu9t5v0__addh_1
* cell instance $167 m0 *1 674.24,25.2
X$167 479 480 33 62 gf180mcu_fd_sc_mcu9t5v0__clkinv_4
* cell instance $171 r0 *1 671.44,25.2
X$171 479 62 71 61 35 480 gf180mcu_fd_sc_mcu9t5v0__oai21_4
* cell instance $174 m0 *1 690.48,25.2
X$174 479 35 59 39 37 480 gf180mcu_fd_sc_mcu9t5v0__addh_2
* cell instance $181 m0 *1 688.24,15.12
X$181 58 479 480 38 36 482 gf180mcu_fd_sc_mcu9t5v0__addh_1
* cell instance $183 r0 *1 692.16,15.12
X$183 479 480 36 37 gf180mcu_fd_sc_mcu9t5v0__clkinv_2
* cell instance $188 r0 *1 695.52,15.12
X$188 479 480 38 39 gf180mcu_fd_sc_mcu9t5v0__clkinv_2
* cell instance $199 r0 *1 693.28,45.36
X$199 479 480 77 75 40 gf180mcu_fd_sc_mcu9t5v0__nor2_2
* cell instance $201 m0 *1 692.16,45.36
X$201 479 65 75 40 205 480 gf180mcu_fd_sc_mcu9t5v0__addh_4
* cell instance $204 m0 *1 703.36,35.28
X$204 480 65 72 479 41 gf180mcu_fd_sc_mcu9t5v0__xnor2_2
* cell instance $211 m0 *1 715.12,15.12
X$211 479 42 43 480 44 gf180mcu_fd_sc_mcu9t5v0__or2_2
* cell instance $213 r0 *1 712.88,15.12
X$213 66 479 480 42 43 60 gf180mcu_fd_sc_mcu9t5v0__addh_1
* cell instance $224 m0 *1 712.88,35.28
X$224 479 66 480 72 67 44 gf180mcu_fd_sc_mcu9t5v0__aoi21_2
* cell instance $226 r0 *1 728,35.28
X$226 479 480 44 80 79 gf180mcu_fd_sc_mcu9t5v0__nand2_2
* cell instance $228 m0 *1 720.16,35.28
X$228 479 480 44 78 74 gf180mcu_fd_sc_mcu9t5v0__nand2_2
* cell instance $231 r0 *1 724.08,15.12
X$231 60 479 67 480 45 gf180mcu_fd_sc_mcu9t5v0__xor2_2
* cell instance $234 m0 *1 734.16,25.2
X$234 479 480 46 68 gf180mcu_fd_sc_mcu9t5v0__clkinv_2
* cell instance $237 r0 *1 729.68,25.2
X$237 480 68 479 47 74 49 gf180mcu_fd_sc_mcu9t5v0__oai21_2
* cell instance $240 m0 *1 729.68,35.28
X$240 480 68 479 47 79 52 gf180mcu_fd_sc_mcu9t5v0__oai21_2
* cell instance $242 r0 *1 737.52,25.2
X$242 480 68 479 69 67 47 gf180mcu_fd_sc_mcu9t5v0__oai21_2
* cell instance $252 m0 *1 744.8,25.2
X$252 479 480 51 49 gf180mcu_fd_sc_mcu9t5v0__clkinv_2
* cell instance $254 m0 *1 740.88,35.28
X$254 479 480 69 49 70 52 gf180mcu_fd_sc_mcu9t5v0__mux2_2
* cell instance $264 m0 *1 748.16,25.2
X$264 52 479 480 54 57 55 gf180mcu_fd_sc_mcu9t5v0__addh_1
* cell instance $269 r0 *1 754.32,15.12
X$269 479 480 53 54 gf180mcu_fd_sc_mcu9t5v0__clkinv_2
* cell instance $275 r0 *1 752.08,25.2
X$275 480 55 70 479 56 gf180mcu_fd_sc_mcu9t5v0__xnor2_2
* cell instance $284 r0 *1 687.68,15.12
X$284 479 480 58 63 gf180mcu_fd_sc_mcu9t5v0__clkinv_2
* cell instance $288 m0 *1 703.92,25.2
X$288 480 59 64 479 73 gf180mcu_fd_sc_mcu9t5v0__xnor2_2
* cell instance $296 m0 *1 686.56,35.28
X$296 479 63 61 480 81 gf180mcu_fd_sc_mcu9t5v0__or2_2
* cell instance $305 r0 *1 662.48,35.28
X$305 479 142 62 81 125 480 gf180mcu_fd_sc_mcu9t5v0__aoi21_4
* cell instance $327 r0 *1 660.24,680.4
X$327 479 221 215 180 202 156 64 480 gf180mcu_fd_sc_mcu9t5v0__oai221_4
* cell instance $330 m0 *1 658.56,710.64
X$330 479 480 293 159 64 158 gf180mcu_fd_sc_mcu9t5v0__mux2_4
* cell instance $334 m0 *1 701.68,700.56
X$334 479 64 248 243 222 480 gf180mcu_fd_sc_mcu9t5v0__oai21_4
* cell instance $336 m0 *1 675.36,690.48
X$336 479 214 480 237 159 64 gf180mcu_fd_sc_mcu9t5v0__aoi21_2
* cell instance $338 r0 *1 705.04,690.48
X$338 480 64 222 479 223 gf180mcu_fd_sc_mcu9t5v0__and2_2
* cell instance $340 m0 *1 52.64,670.32
X$340 479 177 152 153 155 147 480 64 gf180mcu_fd_sc_mcu9t5v0__oai32_4
* cell instance $342 r0 *1 705.04,700.56
X$342 480 64 243 479 261 gf180mcu_fd_sc_mcu9t5v0__and2_2
* cell instance $344 m0 *1 677.6,710.64
X$344 159 64 290 308 214 480 479 gf180mcu_fd_sc_mcu9t5v0__aoi211_2
* cell instance $346 r0 *1 662.48,700.56
X$346 479 64 480 260 241 240 gf180mcu_fd_sc_mcu9t5v0__aoi21_2
* cell instance $351 r0 *1 711.2,35.28
X$351 479 480 66 76 gf180mcu_fd_sc_mcu9t5v0__inv_2
* cell instance $372 r0 *1 744.8,690.48
X$372 480 479 248 70 224 gf180mcu_fd_sc_mcu9t5v0__nand2_4
* cell instance $380 r0 *1 654.64,630
X$380 479 118 104 480 103 71 gf180mcu_fd_sc_mcu9t5v0__nand3_2
* cell instance $397 m0 *1 2.24,680.4
X$397 479 171 75 480 gf180mcu_fd_sc_mcu9t5v0__clkbuf_8
* cell instance $403 r0 *1 714.56,35.28
X$403 479 204 76 78 77 480 gf180mcu_fd_sc_mcu9t5v0__aoi21_4
* cell instance $405 m0 *1 713.44,45.36
X$405 479 168 76 80 77 480 gf180mcu_fd_sc_mcu9t5v0__aoi21_4
* cell instance $428 m0 *1 63.28,640.08
X$428 479 116 480 124 82 103 gf180mcu_fd_sc_mcu9t5v0__aoi21_2
* cell instance $430 r0 *1 69.44,630
X$430 108 479 82 480 105 gf180mcu_fd_sc_mcu9t5v0__xor2_2
* cell instance $434 r0 *1 2.24,609.84
X$434 83 480 479 86 gf180mcu_fd_sc_mcu9t5v0__clkbuf_2
* cell instance $437 m0 *1 10.64,619.92
X$437 84 480 479 85 gf180mcu_fd_sc_mcu9t5v0__clkbuf_2
* cell instance $440 r0 *1 6.72,630
X$440 479 97 96 86 85 480 113 gf180mcu_fd_sc_mcu9t5v0__oai22_4
* cell instance $443 r0 *1 14,619.92
X$443 479 85 86 480 98 gf180mcu_fd_sc_mcu9t5v0__or2_2
* cell instance $446 r0 *1 10.64,609.84
X$446 89 479 480 85 86 88 gf180mcu_fd_sc_mcu9t5v0__addh_1
* cell instance $454 m0 *1 15.68,619.92
X$454 88 479 99 480 87 gf180mcu_fd_sc_mcu9t5v0__xor2_2
* cell instance $457 m0 *1 2.24,619.92
X$457 87 480 479 95 gf180mcu_fd_sc_mcu9t5v0__dlyb_2
* cell instance $463 m0 *1 20.16,630
X$463 480 89 479 97 115 96 gf180mcu_fd_sc_mcu9t5v0__oai21_2
* cell instance $467 r0 *1 19.6,619.92
X$467 479 89 480 106 99 98 gf180mcu_fd_sc_mcu9t5v0__aoi21_2
* cell instance $471 r0 *1 26.88,619.92
X$471 480 107 106 479 90 gf180mcu_fd_sc_mcu9t5v0__xnor2_2
* cell instance $473 m0 *1 2.24,630
X$473 90 480 479 93 gf180mcu_fd_sc_mcu9t5v0__dlyb_2
* cell instance $476 m0 *1 15.12,640.08
X$476 91 480 479 97 gf180mcu_fd_sc_mcu9t5v0__clkbuf_2
* cell instance $479 m0 *1 10.64,630
X$479 105 480 479 92 gf180mcu_fd_sc_mcu9t5v0__dlyb_2
* cell instance $484 r0 *1 2.24,630
X$484 94 480 479 96 gf180mcu_fd_sc_mcu9t5v0__clkbuf_2
* cell instance $493 m0 *1 29.68,630
X$493 100 479 480 96 97 107 gf180mcu_fd_sc_mcu9t5v0__addh_1
* cell instance $516 m0 *1 19.04,670.32
X$516 479 480 99 135 147 149 gf180mcu_fd_sc_mcu9t5v0__mux2_2
* cell instance $518 r0 *1 26.32,640.08
X$518 479 480 120 121 99 gf180mcu_fd_sc_mcu9t5v0__nand2_2
* cell instance $523 r0 *1 30.24,630
X$523 479 480 100 114 gf180mcu_fd_sc_mcu9t5v0__clkinv_2
* cell instance $527 r0 *1 25.76,630
X$527 110 480 479 101 gf180mcu_fd_sc_mcu9t5v0__clkbuf_2
* cell instance $530 r0 *1 38.08,630
X$530 479 101 102 480 103 gf180mcu_fd_sc_mcu9t5v0__or2_4
* cell instance $532 r0 *1 48.16,630
X$532 479 108 102 101 116 480 gf180mcu_fd_sc_mcu9t5v0__addh_4
* cell instance $540 m0 *1 22.4,640.08
X$540 109 480 479 102 gf180mcu_fd_sc_mcu9t5v0__clkbuf_2
* cell instance $548 m0 *1 655.2,640.08
X$548 480 479 103 125 104 gf180mcu_fd_sc_mcu9t5v0__nand2_4
* cell instance $554 m0 *1 54.88,650.16
X$554 479 138 139 480 104 gf180mcu_fd_sc_mcu9t5v0__or2_4
* cell instance $556 m0 *1 633.92,650.16
X$556 480 116 104 479 141 gf180mcu_fd_sc_mcu9t5v0__and2_2
* cell instance $580 m0 *1 6.72,640.08
X$580 111 480 479 112 gf180mcu_fd_sc_mcu9t5v0__dlyb_2
* cell instance $585 r0 *1 20.72,650.16
X$585 479 480 112 165 gf180mcu_fd_sc_mcu9t5v0__clkinv_2
* cell instance $587 m0 *1 10.64,650.16
X$587 135 479 480 112 134 486 gf180mcu_fd_sc_mcu9t5v0__addh_1
* cell instance $594 r0 *1 22.4,640.08
X$594 479 480 113 120 gf180mcu_fd_sc_mcu9t5v0__clkinv_2
* cell instance $597 r0 *1 24.64,650.16
X$597 480 113 166 137 115 114 479 gf180mcu_fd_sc_mcu9t5v0__oai211_2
* cell instance $599 m0 *1 22.4,660.24
X$599 480 113 148 146 115 114 479 gf180mcu_fd_sc_mcu9t5v0__oai211_2
* cell instance $604 m0 *1 28,640.08
X$604 114 480 115 121 479 122 gf180mcu_fd_sc_mcu9t5v0__and3_2
* cell instance $620 r0 *1 51.52,650.16
X$620 479 117 139 138 140 480 gf180mcu_fd_sc_mcu9t5v0__addh_4
* cell instance $622 r0 *1 63.84,640.08
X$622 480 117 124 479 123 gf180mcu_fd_sc_mcu9t5v0__xnor2_2
* cell instance $625 r0 *1 647.92,660.24
X$625 480 479 118 156 157 gf180mcu_fd_sc_mcu9t5v0__nand2_4
* cell instance $628 r0 *1 656.88,660.24
X$628 480 157 118 479 158 gf180mcu_fd_sc_mcu9t5v0__and2_2
* cell instance $633 m0 *1 38.08,650.16
X$633 480 143 122 479 119 gf180mcu_fd_sc_mcu9t5v0__xnor2_2
* cell instance $635 r0 *1 12.32,640.08
X$635 119 480 479 128 gf180mcu_fd_sc_mcu9t5v0__dlyb_2
* cell instance $649 r0 *1 33.6,640.08
X$649 123 480 479 127 gf180mcu_fd_sc_mcu9t5v0__dlyb_2
* cell instance $659 m0 *1 2.24,650.16
X$659 132 480 479 126 gf180mcu_fd_sc_mcu9t5v0__dlyb_2
* cell instance $668 r0 *1 2.24,660.24
X$668 129 480 479 139 gf180mcu_fd_sc_mcu9t5v0__clkbuf_2
* cell instance $671 r0 *1 2.8,640.08
X$671 130 480 479 134 gf180mcu_fd_sc_mcu9t5v0__dlyb_2
* cell instance $673 r0 *1 6.72,650.16
X$673 131 480 479 138 gf180mcu_fd_sc_mcu9t5v0__clkbuf_2
* cell instance $678 r0 *1 6.72,660.24
X$678 480 164 147 479 132 gf180mcu_fd_sc_mcu9t5v0__xnor2_2
* cell instance $682 r0 *1 11.2,650.16
X$682 133 480 479 136 gf180mcu_fd_sc_mcu9t5v0__dlyb_2
* cell instance $687 r0 *1 16.24,660.24
X$687 479 480 134 145 gf180mcu_fd_sc_mcu9t5v0__clkinv_2
* cell instance $695 m0 *1 22.4,650.16
X$695 479 480 135 137 gf180mcu_fd_sc_mcu9t5v0__clkinv_2
* cell instance $700 r0 *1 28,660.24
X$700 479 136 150 480 151 gf180mcu_fd_sc_mcu9t5v0__or2_2
* cell instance $704 r0 *1 33.6,660.24
X$704 479 143 136 150 153 480 gf180mcu_fd_sc_mcu9t5v0__addh_4
* cell instance $721 r0 *1 658,650.16
X$721 140 479 141 142 480 179 gf180mcu_fd_sc_mcu9t5v0__or3_2
* cell instance $723 m0 *1 651.28,660.24
X$723 479 480 157 140 141 gf180mcu_fd_sc_mcu9t5v0__nor2_2
* cell instance $725 m0 *1 656.88,660.24
X$725 141 480 142 159 479 140 gf180mcu_fd_sc_mcu9t5v0__nor3_4
* cell instance $746 m0 *1 2.24,660.24
X$746 144 480 479 150 gf180mcu_fd_sc_mcu9t5v0__dlyb_2
* cell instance $749 m0 *1 12.88,660.24
X$749 146 479 480 165 145 164 gf180mcu_fd_sc_mcu9t5v0__addh_1
* cell instance $756 r0 *1 21.84,660.24
X$756 479 480 146 149 gf180mcu_fd_sc_mcu9t5v0__clkinv_2
* cell instance $765 r0 *1 12.88,680.4
X$765 479 147 174 194 195 480 gf180mcu_fd_sc_mcu9t5v0__aoi21_4
* cell instance $769 r0 *1 27.44,670.32
X$769 479 188 148 480 151 175 gf180mcu_fd_sc_mcu9t5v0__nand3_2
* cell instance $772 r0 *1 34.72,670.32
X$772 148 480 151 175 479 154 gf180mcu_fd_sc_mcu9t5v0__and3_2
* cell instance $787 m0 *1 33.6,670.32
X$787 480 151 166 479 152 gf180mcu_fd_sc_mcu9t5v0__and2_2
* cell instance $792 m0 *1 55.44,680.4
X$792 479 152 480 199 176 154 gf180mcu_fd_sc_mcu9t5v0__aoi21_2
* cell instance $796 m0 *1 35.28,680.4
X$796 479 213 176 154 152 153 480 gf180mcu_fd_sc_mcu9t5v0__aoi211_4
* cell instance $803 r0 *1 66.08,660.24
X$803 479 153 154 480 155 gf180mcu_fd_sc_mcu9t5v0__or2_2
* cell instance $805 m0 *1 65.52,680.4
X$805 479 480 178 153 154 gf180mcu_fd_sc_mcu9t5v0__nor2_2
* cell instance $810 m0 *1 660.24,680.4
X$810 479 153 179 480 180 gf180mcu_fd_sc_mcu9t5v0__or2_2
* cell instance $813 m0 *1 655.2,690.48
X$813 479 235 234 202 153 480 224 gf180mcu_fd_sc_mcu9t5v0__oai22_4
* cell instance $824 r0 *1 50.4,670.32
X$824 480 154 176 479 177 gf180mcu_fd_sc_mcu9t5v0__and2_2
* cell instance $836 m0 *1 661.92,700.56
X$836 201 479 200 156 480 241 gf180mcu_fd_sc_mcu9t5v0__or3_2
* cell instance $838 r0 *1 71.68,680.4
X$838 479 214 178 198 213 156 480 gf180mcu_fd_sc_mcu9t5v0__aoi211_4
* cell instance $841 r0 *1 652.4,680.4
X$841 235 480 479 200 201 156 gf180mcu_fd_sc_mcu9t5v0__nor3_2
* cell instance $852 r0 *1 655.76,700.56
X$852 201 479 158 221 480 240 gf180mcu_fd_sc_mcu9t5v0__or3_2
* cell instance $855 r0 *1 655.76,690.48
X$855 234 480 479 158 201 221 gf180mcu_fd_sc_mcu9t5v0__nor3_2
* cell instance $862 r0 *1 673.68,690.48
X$862 222 480 479 159 201 221 gf180mcu_fd_sc_mcu9t5v0__nor3_2
* cell instance $869 m0 *1 1332.8,670.32
X$869 479 480 160 161 gf180mcu_fd_sc_mcu9t5v0__clkinv_2
* cell instance $872 m0 *1 1332.8,690.48
X$872 479 480 212 161 189 gf180mcu_fd_sc_mcu9t5v0__nor2_2
* cell instance $876 r0 *1 1337.84,690.48
X$876 161 253 189 252 480 479 232 gf180mcu_fd_sc_mcu9t5v0__or4_2
* cell instance $878 r0 *1 1331.68,670.32
X$878 479 480 190 161 183 162 gf180mcu_fd_sc_mcu9t5v0__mux2_4
* cell instance $881 r0 *1 1335.04,680.4
X$881 479 162 189 480 206 gf180mcu_fd_sc_mcu9t5v0__or2_2
* cell instance $884 r0 *1 1340.64,680.4
X$884 480 207 479 189 211 162 gf180mcu_fd_sc_mcu9t5v0__oai21_2
* cell instance $887 m0 *1 1340.08,670.32
X$887 162 479 480 163 167 187 gf180mcu_fd_sc_mcu9t5v0__addh_1
* cell instance $911 r0 *1 718.48,680.4
X$911 479 480 247 205 168 gf180mcu_fd_sc_mcu9t5v0__nor2_2
* cell instance $913 r0 *1 10.64,670.32
X$913 169 480 479 173 gf180mcu_fd_sc_mcu9t5v0__dlyb_2
* cell instance $917 r0 *1 2.24,670.32
X$917 170 480 479 172 gf180mcu_fd_sc_mcu9t5v0__dlyb_2
* cell instance $922 m0 *1 15.68,690.48
X$922 479 480 196 172 173 gf180mcu_fd_sc_mcu9t5v0__nor2_2
* cell instance $924 m0 *1 3.92,690.48
X$924 479 195 216 172 173 480 gf180mcu_fd_sc_mcu9t5v0__addh_2
* cell instance $926 m0 *1 16.8,680.4
X$926 479 172 173 480 174 gf180mcu_fd_sc_mcu9t5v0__or2_2
* cell instance $942 m0 *1 30.24,680.4
X$942 479 480 197 175 196 gf180mcu_fd_sc_mcu9t5v0__nand2_2
* cell instance $949 m0 *1 28,690.48
X$949 479 176 217 218 220 197 480 gf180mcu_fd_sc_mcu9t5v0__oai211_4
* cell instance $965 m0 *1 675.92,700.56
X$965 200 480 179 243 479 201 gf180mcu_fd_sc_mcu9t5v0__nor3_4
* cell instance $971 m0 *1 773.92,680.4
X$971 479 480 181 182 189 gf180mcu_fd_sc_mcu9t5v0__nor2_4
* cell instance $973 r0 *1 772.24,670.32
X$973 479 191 182 181 184 480 gf180mcu_fd_sc_mcu9t5v0__addh_4
* cell instance $985 r0 *1 1355.76,670.32
X$985 480 187 183 479 185 gf180mcu_fd_sc_mcu9t5v0__xnor2_2
* cell instance $987 m0 *1 1338.4,690.48
X$987 480 183 210 206 232 207 479 gf180mcu_fd_sc_mcu9t5v0__oai211_2
* cell instance $989 m0 *1 1361.92,730.8
X$989 479 480 315 297 183 298 gf180mcu_fd_sc_mcu9t5v0__mux2_2
* cell instance $991 m0 *1 1361.92,700.56
X$991 479 480 258 259 183 254 gf180mcu_fd_sc_mcu9t5v0__mux2_2
* cell instance $993 r0 *1 1336.16,700.56
X$993 479 480 252 253 183 gf180mcu_fd_sc_mcu9t5v0__nor2_4
* cell instance $997 m0 *1 1354.64,690.48
X$997 480 225 479 212 226 184 gf180mcu_fd_sc_mcu9t5v0__oai21_2
* cell instance $1001 m0 *1 1340.64,680.4
X$1001 479 480 184 207 gf180mcu_fd_sc_mcu9t5v0__clkinv_2
* cell instance $1004 m0 *1 1365.84,680.4
X$1004 185 480 479 186 gf180mcu_fd_sc_mcu9t5v0__dlyb_2
* cell instance $1016 r0 *1 45.92,680.4
X$1016 479 202 188 198 199 480 gf180mcu_fd_sc_mcu9t5v0__aoi21_4
* cell instance $1036 r0 *1 2.24,680.4
X$1036 193 480 479 192 gf180mcu_fd_sc_mcu9t5v0__dlyb_2
* cell instance $1039 r0 *1 7.84,690.48
X$1039 480 216 219 479 193 gf180mcu_fd_sc_mcu9t5v0__xnor2_2
* cell instance $1045 r0 *1 29.12,690.48
X$1045 480 220 479 217 194 218 gf180mcu_fd_sc_mcu9t5v0__oai21_2
* cell instance $1051 m0 *1 25.2,680.4
X$1051 479 480 195 197 gf180mcu_fd_sc_mcu9t5v0__inv_2
* cell instance $1056 r0 *1 26.32,680.4
X$1056 479 197 198 219 196 480 gf180mcu_fd_sc_mcu9t5v0__oai21_4
* cell instance $1085 r0 *1 684.32,680.4
X$1085 479 480 200 203 gf180mcu_fd_sc_mcu9t5v0__clkinv_2
* cell instance $1087 r0 *1 674.8,710.64
X$1087 479 307 293 200 308 242 480 gf180mcu_fd_sc_mcu9t5v0__aoi211_4
* cell instance $1089 r0 *1 655.76,1355.76
X$1089 479 200 410 433 413 480 gf180mcu_fd_sc_mcu9t5v0__aoi21_4
* cell instance $1105 r0 *1 688.8,680.4
X$1105 236 480 479 205 201 204 gf180mcu_fd_sc_mcu9t5v0__nor3_2
* cell instance $1107 m0 *1 691.6,700.56
X$1107 201 479 205 204 480 242 gf180mcu_fd_sc_mcu9t5v0__or3_2
* cell instance $1111 r0 *1 639.52,1345.68
X$1111 479 414 411 412 201 480 gf180mcu_fd_sc_mcu9t5v0__addh_4
* cell instance $1121 m0 *1 682.64,690.48
X$1121 479 233 237 203 215 236 480 gf180mcu_fd_sc_mcu9t5v0__oai211_4
* cell instance $1129 m0 *1 718.48,700.56
X$1129 479 480 244 205 204 gf180mcu_fd_sc_mcu9t5v0__nor2_2
* cell instance $1150 m0 *1 1369.76,690.48
X$1150 479 480 228 208 gf180mcu_fd_sc_mcu9t5v0__clkinv_2
* cell instance $1152 m0 *1 1363.6,710.64
X$1152 479 281 480 300 226 208 gf180mcu_fd_sc_mcu9t5v0__aoi21_2
* cell instance $1154 r0 *1 1361.92,690.48
X$1154 479 480 208 231 226 gf180mcu_fd_sc_mcu9t5v0__nand2_2
* cell instance $1156 r0 *1 1364.72,700.56
X$1156 479 281 480 282 227 208 gf180mcu_fd_sc_mcu9t5v0__aoi21_2
* cell instance $1159 r0 *1 1366.96,690.48
X$1159 480 208 227 479 254 gf180mcu_fd_sc_mcu9t5v0__and2_2
* cell instance $1162 r0 *1 1372.56,690.48
X$1162 228 479 480 255 256 209 gf180mcu_fd_sc_mcu9t5v0__addh_1
* cell instance $1164 m0 *1 1380.4,690.48
X$1164 209 479 210 480 229 gf180mcu_fd_sc_mcu9t5v0__xor2_2
* cell instance $1171 m0 *1 1362.48,690.48
X$1171 479 480 225 227 211 gf180mcu_fd_sc_mcu9t5v0__nand2_2
* cell instance $1201 r0 *1 31.92,700.56
X$1201 479 480 266 217 268 gf180mcu_fd_sc_mcu9t5v0__nand2_2
* cell instance $1206 r0 *1 615.44,1365.84
X$1206 480 435 218 479 423 gf180mcu_fd_sc_mcu9t5v0__xnor2_2
* cell instance $1212 r0 *1 594.72,1375.92
X$1212 479 480 218 416 439 418 gf180mcu_fd_sc_mcu9t5v0__mux2_4
* cell instance $1221 m0 *1 28.56,710.64
X$1221 479 219 270 271 267 269 266 480 gf180mcu_fd_sc_mcu9t5v0__aoi221_4
* cell instance $1227 r0 *1 36.96,700.56
X$1227 479 269 480 220 266 271 gf180mcu_fd_sc_mcu9t5v0__aoi21_2
* cell instance $1238 m0 *1 655.2,1355.76
X$1238 479 221 410 434 413 480 gf180mcu_fd_sc_mcu9t5v0__aoi21_4
* cell instance $1240 r0 *1 678.16,700.56
X$1240 479 480 221 290 gf180mcu_fd_sc_mcu9t5v0__clkinv_2
* cell instance $1250 r0 *1 711.2,700.56
X$1250 479 223 261 260 272 262 480 251 gf180mcu_fd_sc_mcu9t5v0__oai32_4
* cell instance $1254 r0 *1 739.2,700.56
X$1254 479 250 274 246 224 248 480 gf180mcu_fd_sc_mcu9t5v0__oai211_4
* cell instance $1258 m0 *1 748.16,710.64
X$1258 224 480 248 247 479 309 gf180mcu_fd_sc_mcu9t5v0__and3_2
* cell instance $1263 m0 *1 747.04,700.56
X$1263 479 224 247 249 248 480 gf180mcu_fd_sc_mcu9t5v0__nand3_4
* cell instance $1266 m0 *1 1375.92,700.56
X$1266 479 255 256 480 225 gf180mcu_fd_sc_mcu9t5v0__or2_2
* cell instance $1286 r0 *1 1383.2,690.48
X$1286 229 480 479 230 gf180mcu_fd_sc_mcu9t5v0__dlyb_2
* cell instance $1293 r0 *1 1358.56,690.48
X$1293 479 480 231 259 gf180mcu_fd_sc_mcu9t5v0__clkinv_2
* cell instance $1301 r0 *1 1314.88,700.56
X$1301 479 480 233 311 249 gf180mcu_fd_sc_mcu9t5v0__nand2_2
* cell instance $1303 m0 *1 1312.08,710.64
X$1303 479 276 480 324 249 233 gf180mcu_fd_sc_mcu9t5v0__aoi21_2
* cell instance $1316 m0 *1 2.24,700.56
X$1316 238 480 479 239 gf180mcu_fd_sc_mcu9t5v0__dlyb_2
* cell instance $1318 m0 *1 6.16,710.64
X$1318 479 269 265 264 239 480 gf180mcu_fd_sc_mcu9t5v0__addh_2
* cell instance $1320 r0 *1 10.08,700.56
X$1320 479 264 239 480 266 gf180mcu_fd_sc_mcu9t5v0__or2_2
* cell instance $1338 m0 *1 728.56,700.56
X$1338 479 480 262 244 245 gf180mcu_fd_sc_mcu9t5v0__nor2_2
* cell instance $1342 m0 *1 722.96,710.64
X$1342 480 244 273 479 272 gf180mcu_fd_sc_mcu9t5v0__and2_2
* cell instance $1345 m0 *1 1302,720.72
X$1345 480 479 294 245 275 gf180mcu_fd_sc_mcu9t5v0__nand2_4
* cell instance $1347 m0 *1 738.64,700.56
X$1347 479 480 246 247 245 gf180mcu_fd_sc_mcu9t5v0__nor2_2
* cell instance $1358 m0 *1 741.44,710.64
X$1358 480 247 273 479 274 gf180mcu_fd_sc_mcu9t5v0__and2_2
* cell instance $1383 r0 *1 1328.32,700.56
X$1383 250 480 251 279 479 252 gf180mcu_fd_sc_mcu9t5v0__and3_2
* cell instance $1385 r0 *1 1323.28,700.56
X$1385 479 480 250 277 251 gf180mcu_fd_sc_mcu9t5v0__nand2_2
* cell instance $1400 m0 *1 1346.24,710.64
X$1400 253 479 279 297 480 280 gf180mcu_fd_sc_mcu9t5v0__or3_2
* cell instance $1403 m0 *1 1379.28,710.64
X$1403 479 253 289 285 284 480 gf180mcu_fd_sc_mcu9t5v0__addh_2
* cell instance $1407 m0 *1 1342.88,710.64
X$1407 479 480 253 278 gf180mcu_fd_sc_mcu9t5v0__clkinv_2
* cell instance $1414 m0 *1 1370.88,710.64
X$1414 283 480 479 255 gf180mcu_fd_sc_mcu9t5v0__dlyb_2
* cell instance $1419 m0 *1 1383.2,700.56
X$1419 257 480 479 256 gf180mcu_fd_sc_mcu9t5v0__dlyb_2
* cell instance $1426 m0 *1 1378.16,730.8
X$1426 480 320 258 479 318 gf180mcu_fd_sc_mcu9t5v0__xnor2_2
* cell instance $1445 r0 *1 2.8,710.64
X$1445 263 480 479 264 gf180mcu_fd_sc_mcu9t5v0__dlyb_2
* cell instance $1451 r0 *1 13.44,710.64
X$1451 480 265 302 479 292 gf180mcu_fd_sc_mcu9t5v0__xnor2_2
* cell instance $1459 m0 *1 23.52,710.64
X$1459 480 266 268 479 267 gf180mcu_fd_sc_mcu9t5v0__and2_2
* cell instance $1473 r0 *1 612.64,1355.76
X$1473 479 421 422 480 268 gf180mcu_fd_sc_mcu9t5v0__or2_4
* cell instance $1475 r0 *1 35.28,710.64
X$1475 479 271 480 302 268 270 gf180mcu_fd_sc_mcu9t5v0__aoi21_2
* cell instance $1485 r0 *1 584.08,1375.92
X$1485 479 480 270 417 439 438 gf180mcu_fd_sc_mcu9t5v0__mux2_4
* cell instance $1493 m0 *1 609.84,1365.84
X$1493 479 435 422 421 271 480 gf180mcu_fd_sc_mcu9t5v0__addh_4
* cell instance $1501 m0 *1 1306.48,710.64
X$1501 480 275 276 479 273 gf180mcu_fd_sc_mcu9t5v0__and2_2
* cell instance $1512 m0 *1 1335.6,730.8
X$1512 479 480 327 275 gf180mcu_fd_sc_mcu9t5v0__clkinv_2
* cell instance $1516 r0 *1 1333.92,710.64
X$1516 278 480 275 295 479 306 gf180mcu_fd_sc_mcu9t5v0__and3_2
* cell instance $1520 r0 *1 1323.28,740.88
X$1520 479 325 326 480 276 gf180mcu_fd_sc_mcu9t5v0__or2_2
* cell instance $1527 r0 *1 1372,700.56
X$1527 480 289 277 479 301 gf180mcu_fd_sc_mcu9t5v0__xnor2_2
* cell instance $1529 m0 *1 1310.96,720.72
X$1529 479 322 336 310 324 323 277 480 gf180mcu_fd_sc_mcu9t5v0__oai221_4
* cell instance $1536 r0 *1 1352.96,710.64
X$1536 479 278 298 480 303 gf180mcu_fd_sc_mcu9t5v0__or2_2
* cell instance $1538 m0 *1 1347.36,720.72
X$1538 479 480 305 321 278 298 gf180mcu_fd_sc_mcu9t5v0__mux2_2
* cell instance $1551 m0 *1 1364.72,720.72
X$1551 321 480 479 279 299 300 gf180mcu_fd_sc_mcu9t5v0__nor3_2
* cell instance $1553 r0 *1 1381.52,700.56
X$1553 479 285 284 480 279 gf180mcu_fd_sc_mcu9t5v0__or2_2
* cell instance $1555 m0 *1 1335.04,720.72
X$1555 479 480 279 323 312 gf180mcu_fd_sc_mcu9t5v0__nand2_2
* cell instance $1560 r0 *1 1345.68,710.64
X$1560 479 296 480 304 280 303 gf180mcu_fd_sc_mcu9t5v0__aoi21_2
* cell instance $1567 m0 *1 1372.56,730.8
X$1567 479 480 281 316 317 gf180mcu_fd_sc_mcu9t5v0__nor2_2
* cell instance $1569 r0 *1 1366.96,710.64
X$1569 479 480 298 299 282 gf180mcu_fd_sc_mcu9t5v0__nor2_2
* cell instance $1576 r0 *1 1374.8,710.64
X$1576 288 480 479 284 gf180mcu_fd_sc_mcu9t5v0__dlyb_2
* cell instance $1582 r0 *1 1383.2,710.64
X$1582 286 480 479 285 gf180mcu_fd_sc_mcu9t5v0__dlyb_2
* cell instance $1587 m0 *1 1383.2,720.72
X$1587 301 480 479 287 gf180mcu_fd_sc_mcu9t5v0__dlyb_2
* cell instance $1600 m0 *1 10.64,720.72
X$1600 292 480 479 291 gf180mcu_fd_sc_mcu9t5v0__dlyb_2
* cell instance $1609 r0 *1 652.96,1375.92
X$1609 479 480 430 445 293 446 gf180mcu_fd_sc_mcu9t5v0__mux2_2
* cell instance $1611 r0 *1 675.92,1375.92
X$1611 480 448 293 479 474 gf180mcu_fd_sc_mcu9t5v0__xnor2_2
* cell instance $1617 r0 *1 1312.64,730.8
X$1617 479 480 343 294 gf180mcu_fd_sc_mcu9t5v0__clkinv_2
* cell instance $1619 r0 *1 1304.8,710.64
X$1619 480 306 479 310 309 307 294 gf180mcu_fd_sc_mcu9t5v0__oai31_2
* cell instance $1624 m0 *1 1341.2,730.8
X$1624 479 480 295 313 297 314 gf180mcu_fd_sc_mcu9t5v0__mux2_2
* cell instance $1629 m0 *1 1355.2,740.88
X$1629 296 479 480 365 342 330 gf180mcu_fd_sc_mcu9t5v0__addh_1
* cell instance $1632 m0 *1 1349.6,730.8
X$1632 479 480 296 314 gf180mcu_fd_sc_mcu9t5v0__clkinv_2
* cell instance $1641 r0 *1 1366.4,720.72
X$1641 479 480 297 299 300 gf180mcu_fd_sc_mcu9t5v0__nor2_2
* cell instance $1646 r0 *1 1341.2,720.72
X$1646 479 480 312 313 298 314 gf180mcu_fd_sc_mcu9t5v0__mux2_2
* cell instance $1657 r0 *1 1372,720.72
X$1657 479 299 320 316 317 480 gf180mcu_fd_sc_mcu9t5v0__addh_2
* cell instance $1679 m0 *1 1340.08,720.72
X$1679 479 304 480 322 305 313 gf180mcu_fd_sc_mcu9t5v0__aoi21_2
* cell instance $1702 m0 *1 1316,740.88