* CDL Netlist generated by OpenROAD

*.BUSDELIMITER [

.SUBCKT configurable_conditional_sum_adder a[0] a[10] a[11]
+ a[12] a[13] a[14] a[15] a[16] a[17] a[18] a[19] a[1] a[20]
+ a[21] a[22] a[23] a[24] a[25] a[26] a[27] a[28] a[29] a[2]
+ a[30] a[31] a[3] a[4] a[5] a[6] a[7] a[8] a[9] b[0] b[10]
+ b[11] b[12] b[13] b[14] b[15] b[16] b[17] b[18] b[19] b[1]
+ b[20] b[21] b[22] b[23] b[24] b[25] b[26] b[27] b[28] b[29]
+ b[2] b[30] b[31] b[3] b[4] b[5] b[6] b[7] b[8] b[9] cin cout
+ sum[0] sum[10] sum[11] sum[12] sum[13] sum[14] sum[15] sum[16]
+ sum[17] sum[18] sum[19] sum[1] sum[20] sum[21] sum[22] sum[23]
+ sum[24] sum[25] sum[26] sum[27] sum[28] sum[29] sum[2] sum[30]
+ sum[31] sum[3] sum[4] sum[5] sum[6] sum[7] sum[8] sum[9]
X_290_ net13 _196_ VDD VSS gf180mcu_fd_sc_mcu9t5v0__clkinv_2
X_291_ net17 _202_ VDD VSS gf180mcu_fd_sc_mcu9t5v0__clkinv_2
X_292_ net21 _208_ VDD VSS gf180mcu_fd_sc_mcu9t5v0__clkinv_2
X_293_ net27 _214_ VDD VSS gf180mcu_fd_sc_mcu9t5v0__clkinv_2
X_294_ net31 _268_ VDD VSS gf180mcu_fd_sc_mcu9t5v0__clkinv_2
X_295_ net4 _274_ VDD VSS gf180mcu_fd_sc_mcu9t5v0__clkinv_2
X_296_ net1 _280_ VDD VSS gf180mcu_fd_sc_mcu9t5v0__clkinv_2
X_297_ net8 _286_ VDD VSS gf180mcu_fd_sc_mcu9t5v0__clkinv_2
X_298_ net45 _197_ VDD VSS gf180mcu_fd_sc_mcu9t5v0__clkinv_2
X_299_ net49 _203_ VDD VSS gf180mcu_fd_sc_mcu9t5v0__clkinv_2
X_300_ net53 _209_ VDD VSS gf180mcu_fd_sc_mcu9t5v0__clkinv_2
X_301_ net59 _215_ VDD VSS gf180mcu_fd_sc_mcu9t5v0__clkinv_2
X_302_ net63 _269_ VDD VSS gf180mcu_fd_sc_mcu9t5v0__clkinv_2
X_303_ net36 _275_ VDD VSS gf180mcu_fd_sc_mcu9t5v0__clkinv_2
X_304_ net33 _281_ VDD VSS gf180mcu_fd_sc_mcu9t5v0__clkinv_2
X_305_ net40 _287_ VDD VSS gf180mcu_fd_sc_mcu9t5v0__clkinv_2
X_306_ net22 net54 _000_ VDD VSS gf180mcu_fd_sc_mcu9t5v0__or2_2
X_307_ _246_ _001_ VDD VSS gf180mcu_fd_sc_mcu9t5v0__inv_2
X_308_ net10 net42 _002_ VDD VSS gf180mcu_fd_sc_mcu9t5v0__or2_2
X_309_ net9 net41 _003_ VDD VSS gf180mcu_fd_sc_mcu9t5v0__nor2_2
X_310_ _248_ _004_ VDD VSS gf180mcu_fd_sc_mcu9t5v0__clkinv_2
X_311_ _288_ _003_ _004_ _005_ VDD VSS gf180mcu_fd_sc_mcu9t5v0__oai21_2
X_312_ _002_ _005_ _006_ VDD VSS gf180mcu_fd_sc_mcu9t5v0__nand2_2
X_313_ net11 net43 _007_ VDD VSS gf180mcu_fd_sc_mcu9t5v0__nor2_2
X_314_ _001_ _006_ _007_ _008_ VDD VSS gf180mcu_fd_sc_mcu9t5v0__aoi21_4
X_315_ _244_ _008_ _009_ VDD VSS gf180mcu_fd_sc_mcu9t5v0__nor2_2
X_316_ _252_ _010_ VDD VSS gf180mcu_fd_sc_mcu9t5v0__clkinv_2
X_317_ net15 net47 _011_ VDD VSS gf180mcu_fd_sc_mcu9t5v0__nor2_2
X_318_ _198_ _012_ VDD VSS gf180mcu_fd_sc_mcu9t5v0__clkinv_2
X_319_ net14 net46 _013_ VDD VSS gf180mcu_fd_sc_mcu9t5v0__or2_2
X_320_ _012_ _013_ _254_ _014_ VDD VSS gf180mcu_fd_sc_mcu9t5v0__aoi21_2
X_321_ _011_ _014_ _015_ VDD VSS gf180mcu_fd_sc_mcu9t5v0__nor2_2
X_322_ _015_ _016_ VDD VSS gf180mcu_fd_sc_mcu9t5v0__clkinv_2
X_323_ _010_ _016_ _017_ VDD VSS gf180mcu_fd_sc_mcu9t5v0__nand2_4
X_324_ _009_ _017_ _018_ VDD VSS gf180mcu_fd_sc_mcu9t5v0__nor2_2
X_325_ _200_ _013_ _254_ _019_ VDD VSS gf180mcu_fd_sc_mcu9t5v0__aoi21_2
X_326_ _011_ _019_ _020_ VDD VSS gf180mcu_fd_sc_mcu9t5v0__or2_2
X_327_ _010_ _020_ _021_ VDD VSS gf180mcu_fd_sc_mcu9t5v0__and2_2
X_328_ _009_ _021_ _022_ VDD VSS gf180mcu_fd_sc_mcu9t5v0__and2_2
X_329_ net28 net60 net29 net61 _023_ VDD VSS gf180mcu_fd_sc_mcu9t5v0__oai22_4
X_330_ net29 net61 _230_ _024_ VDD VSS gf180mcu_fd_sc_mcu9t5v0__oai21_2
X_331_ _228_ _025_ VDD VSS gf180mcu_fd_sc_mcu9t5v0__clkinv_2
X_332_ _216_ _023_ _024_ _025_ _026_ VDD VSS gf180mcu_fd_sc_mcu9t5v0__oai211_2
X_333_ net30 net62 _027_ VDD VSS gf180mcu_fd_sc_mcu9t5v0__or2_2
X_334_ _220_ _028_ VDD VSS gf180mcu_fd_sc_mcu9t5v0__inv_2
X_335_ net26 net58 _029_ VDD VSS gf180mcu_fd_sc_mcu9t5v0__nor2_2
X_336_ _028_ _029_ _030_ VDD VSS gf180mcu_fd_sc_mcu9t5v0__nand2_2
X_337_ _026_ _027_ _030_ _031_ VDD VSS gf180mcu_fd_sc_mcu9t5v0__nand3_2
X_338_ net23 net55 _032_ VDD VSS gf180mcu_fd_sc_mcu9t5v0__or2_2
X_339_ _282_ _033_ VDD VSS gf180mcu_fd_sc_mcu9t5v0__clkinv_2
X_340_ _284_ _033_ net65 _034_ VDD VSS gf180mcu_fd_sc_mcu9t5v0__mux2_4
X_341_ net12 net44 _035_ VDD VSS gf180mcu_fd_sc_mcu9t5v0__or2_4
X_342_ _032_ _035_ _036_ VDD VSS gf180mcu_fd_sc_mcu9t5v0__and2_2
X_343_ _224_ _032_ _034_ _036_ _222_ _037_ VDD VSS gf180mcu_fd_sc_mcu9t5v0__aoi221_4
X_344_ _029_ _037_ _028_ _038_ VDD VSS gf180mcu_fd_sc_mcu9t5v0__oai21_4
X_345_ _026_ _027_ _030_ _039_ VDD VSS gf180mcu_fd_sc_mcu9t5v0__and3_2
X_346_ _284_ _040_ VDD VSS gf180mcu_fd_sc_mcu9t5v0__clkinv_2
X_347_ _040_ _282_ net65 _041_ VDD VSS gf180mcu_fd_sc_mcu9t5v0__mux2_4
X_348_ _032_ _035_ _042_ VDD VSS gf180mcu_fd_sc_mcu9t5v0__nand2_2
X_349_ _224_ _032_ _222_ _043_ VDD VSS gf180mcu_fd_sc_mcu9t5v0__aoi21_2
X_350_ _041_ _042_ _043_ _028_ _044_ VDD VSS gf180mcu_fd_sc_mcu9t5v0__oai211_4
X_351_ _218_ _045_ VDD VSS gf180mcu_fd_sc_mcu9t5v0__clkinv_2
X_352_ _045_ _023_ _024_ _025_ _046_ VDD VSS gf180mcu_fd_sc_mcu9t5v0__oai211_2
X_353_ _027_ _046_ _047_ VDD VSS gf180mcu_fd_sc_mcu9t5v0__and2_2
X_354_ _039_ _044_ _047_ _048_ VDD VSS gf180mcu_fd_sc_mcu9t5v0__aoi21_2
X_355_ _031_ _038_ _048_ _049_ VDD VSS gf180mcu_fd_sc_mcu9t5v0__aoi21_4
X_356_ net3 net35 _050_ VDD VSS gf180mcu_fd_sc_mcu9t5v0__or2_4
X_357_ _234_ _050_ _051_ VDD VSS gf180mcu_fd_sc_mcu9t5v0__and2_2
X_358_ _232_ _051_ _052_ VDD VSS gf180mcu_fd_sc_mcu9t5v0__nor2_2
X_359_ net2 net34 _053_ VDD VSS gf180mcu_fd_sc_mcu9t5v0__or2_4
X_360_ net32 net64 _054_ VDD VSS gf180mcu_fd_sc_mcu9t5v0__nor2_4
X_361_ _236_ _055_ VDD VSS gf180mcu_fd_sc_mcu9t5v0__clkinv_4
X_362_ _270_ _054_ _055_ _056_ VDD VSS gf180mcu_fd_sc_mcu9t5v0__oai21_4
X_363_ _050_ _053_ _056_ _057_ VDD VSS gf180mcu_fd_sc_mcu9t5v0__nand3_2
X_364_ _052_ _057_ _058_ VDD VSS gf180mcu_fd_sc_mcu9t5v0__and2_2
X_365_ _240_ _059_ VDD VSS gf180mcu_fd_sc_mcu9t5v0__clkinv_3
X_366_ net6 net38 _060_ VDD VSS gf180mcu_fd_sc_mcu9t5v0__nor2_2
X_367_ _276_ _061_ VDD VSS gf180mcu_fd_sc_mcu9t5v0__clkinv_2
X_368_ net5 net37 _062_ VDD VSS gf180mcu_fd_sc_mcu9t5v0__or2_2
X_369_ _061_ _062_ _242_ _063_ VDD VSS gf180mcu_fd_sc_mcu9t5v0__aoi21_2
X_370_ _060_ _063_ _064_ VDD VSS gf180mcu_fd_sc_mcu9t5v0__or2_2
X_371_ net7 net39 _065_ VDD VSS gf180mcu_fd_sc_mcu9t5v0__nor2_2
X_372_ _059_ _064_ _065_ _066_ VDD VSS gf180mcu_fd_sc_mcu9t5v0__aoi21_4
X_373_ _238_ _058_ _066_ _067_ VDD VSS gf180mcu_fd_sc_mcu9t5v0__nor3_2
X_374_ _278_ _062_ _242_ _068_ VDD VSS gf180mcu_fd_sc_mcu9t5v0__aoi21_2
X_375_ _060_ _068_ _069_ VDD VSS gf180mcu_fd_sc_mcu9t5v0__or2_2
X_376_ _059_ _069_ _065_ _070_ VDD VSS gf180mcu_fd_sc_mcu9t5v0__aoi21_4
X_377_ _052_ _057_ _071_ VDD VSS gf180mcu_fd_sc_mcu9t5v0__nand2_4
X_378_ _238_ _070_ _071_ _072_ VDD VSS gf180mcu_fd_sc_mcu9t5v0__nor3_2
X_379_ _226_ _049_ _067_ _072_ _073_ VDD VSS gf180mcu_fd_sc_mcu9t5v0__oai22_4
X_380_ _272_ _074_ VDD VSS gf180mcu_fd_sc_mcu9t5v0__clkinv_2
X_381_ _074_ _054_ _075_ VDD VSS gf180mcu_fd_sc_mcu9t5v0__or2_2
X_382_ _050_ _053_ _076_ VDD VSS gf180mcu_fd_sc_mcu9t5v0__nand2_4
X_383_ _055_ _075_ _076_ _077_ VDD VSS gf180mcu_fd_sc_mcu9t5v0__aoi21_4
X_384_ _232_ _051_ _077_ _078_ VDD VSS gf180mcu_fd_sc_mcu9t5v0__nor3_4
X_385_ _238_ _078_ _066_ _079_ VDD VSS gf180mcu_fd_sc_mcu9t5v0__nor3_2
X_386_ _232_ _051_ _077_ _080_ VDD VSS gf180mcu_fd_sc_mcu9t5v0__or3_2
X_387_ _238_ _070_ _080_ _081_ VDD VSS gf180mcu_fd_sc_mcu9t5v0__nor3_4
X_388_ _039_ _044_ _082_ VDD VSS gf180mcu_fd_sc_mcu9t5v0__and2_2
X_389_ net26 net58 _083_ VDD VSS gf180mcu_fd_sc_mcu9t5v0__or2_2
X_390_ _041_ _042_ _043_ _084_ VDD VSS gf180mcu_fd_sc_mcu9t5v0__oai21_2
X_391_ _083_ _084_ _220_ _085_ VDD VSS gf180mcu_fd_sc_mcu9t5v0__aoi21_4
X_392_ _226_ _039_ _086_ VDD VSS gf180mcu_fd_sc_mcu9t5v0__or2_2
X_393_ _226_ _082_ _047_ _085_ _086_ _087_ VDD VSS gf180mcu_fd_sc_mcu9t5v0__oai32_4
X_394_ _079_ _081_ _087_ _088_ VDD VSS gf180mcu_fd_sc_mcu9t5v0__oai21_4
X_395_ _018_ _022_ _073_ _088_ _089_ VDD VSS gf180mcu_fd_sc_mcu9t5v0__oai211_4
X_396_ _238_ _058_ _066_ _090_ VDD VSS gf180mcu_fd_sc_mcu9t5v0__or3_2
X_397_ _238_ _070_ _071_ _091_ VDD VSS gf180mcu_fd_sc_mcu9t5v0__or3_2
X_398_ _090_ _091_ _087_ _092_ VDD VSS gf180mcu_fd_sc_mcu9t5v0__aoi21_2
X_399_ _087_ _079_ _093_ VDD VSS gf180mcu_fd_sc_mcu9t5v0__and2_2
X_400_ _087_ _081_ _094_ VDD VSS gf180mcu_fd_sc_mcu9t5v0__and2_2
X_401_ _194_ _095_ VDD VSS gf180mcu_fd_sc_mcu9t5v0__clkinv_2
X_402_ _095_ _003_ _004_ _096_ VDD VSS gf180mcu_fd_sc_mcu9t5v0__oai21_2
X_403_ _002_ _096_ _097_ VDD VSS gf180mcu_fd_sc_mcu9t5v0__nand2_2
X_404_ _001_ _097_ _007_ _098_ VDD VSS gf180mcu_fd_sc_mcu9t5v0__aoi21_4
X_405_ _244_ _098_ _099_ VDD VSS gf180mcu_fd_sc_mcu9t5v0__nor2_2
X_406_ _099_ _017_ _100_ VDD VSS gf180mcu_fd_sc_mcu9t5v0__nor2_2
X_407_ _099_ _021_ _101_ VDD VSS gf180mcu_fd_sc_mcu9t5v0__and2_2
X_408_ _092_ _093_ _094_ _100_ _101_ _102_ VDD VSS gf180mcu_fd_sc_mcu9t5v0__oai32_4
X_409_ _089_ _102_ _103_ VDD VSS gf180mcu_fd_sc_mcu9t5v0__nand2_2
X_410_ net16 net48 _104_ VDD VSS gf180mcu_fd_sc_mcu9t5v0__or2_2
X_411_ _210_ _105_ VDD VSS gf180mcu_fd_sc_mcu9t5v0__clkinv_2
X_412_ _258_ _106_ VDD VSS gf180mcu_fd_sc_mcu9t5v0__clkinv_2
X_413_ net19 net51 _107_ VDD VSS gf180mcu_fd_sc_mcu9t5v0__or2_2
X_414_ net18 net50 _108_ VDD VSS gf180mcu_fd_sc_mcu9t5v0__nor2_4
X_415_ _260_ _109_ VDD VSS gf180mcu_fd_sc_mcu9t5v0__clkinv_2
X_416_ _204_ _108_ _109_ _110_ VDD VSS gf180mcu_fd_sc_mcu9t5v0__oai21_2
X_417_ _107_ _110_ _111_ VDD VSS gf180mcu_fd_sc_mcu9t5v0__nand2_2
X_418_ net20 net52 _112_ VDD VSS gf180mcu_fd_sc_mcu9t5v0__nor2_2
X_419_ _106_ _111_ _112_ _113_ VDD VSS gf180mcu_fd_sc_mcu9t5v0__aoi21_2
X_420_ _256_ _113_ _114_ VDD VSS gf180mcu_fd_sc_mcu9t5v0__nor2_2
X_421_ _105_ _212_ _114_ _115_ VDD VSS gf180mcu_fd_sc_mcu9t5v0__mux2_2
X_422_ _104_ _115_ _116_ VDD VSS gf180mcu_fd_sc_mcu9t5v0__nand2_2
X_423_ _058_ _078_ _087_ _117_ VDD VSS gf180mcu_fd_sc_mcu9t5v0__mux2_4
X_424_ _066_ _118_ VDD VSS gf180mcu_fd_sc_mcu9t5v0__clkinv_2
X_425_ _226_ _039_ _119_ VDD VSS gf180mcu_fd_sc_mcu9t5v0__nor2_2
X_426_ _039_ _044_ _047_ _226_ _120_ VDD VSS gf180mcu_fd_sc_mcu9t5v0__aoi211_4
X_427_ _038_ _119_ _120_ _071_ _121_ VDD VSS gf180mcu_fd_sc_mcu9t5v0__aoi211_4
X_428_ _087_ _078_ _118_ _121_ _122_ VDD VSS gf180mcu_fd_sc_mcu9t5v0__aoi211_2
X_429_ _238_ _244_ _098_ _123_ VDD VSS gf180mcu_fd_sc_mcu9t5v0__or3_2
X_430_ _070_ _117_ _122_ _123_ _124_ VDD VSS gf180mcu_fd_sc_mcu9t5v0__aoi211_4
X_431_ _073_ _088_ _009_ _125_ VDD VSS gf180mcu_fd_sc_mcu9t5v0__and3_2
X_432_ _250_ _126_ VDD VSS gf180mcu_fd_sc_mcu9t5v0__clkinv_2
X_433_ _206_ _127_ VDD VSS gf180mcu_fd_sc_mcu9t5v0__clkinv_2
X_434_ _127_ _108_ _128_ VDD VSS gf180mcu_fd_sc_mcu9t5v0__nor2_2
X_435_ _260_ _128_ _107_ _129_ VDD VSS gf180mcu_fd_sc_mcu9t5v0__oai21_2
X_436_ _106_ _129_ _112_ _130_ VDD VSS gf180mcu_fd_sc_mcu9t5v0__aoi21_2
X_437_ _256_ _130_ _131_ VDD VSS gf180mcu_fd_sc_mcu9t5v0__nor2_2
X_438_ _105_ _212_ _131_ _132_ VDD VSS gf180mcu_fd_sc_mcu9t5v0__mux2_2
X_439_ _126_ _010_ _132_ _133_ VDD VSS gf180mcu_fd_sc_mcu9t5v0__and3_2
X_440_ _124_ _125_ _016_ _133_ _134_ VDD VSS gf180mcu_fd_sc_mcu9t5v0__oai31_2
X_441_ _070_ _135_ VDD VSS gf180mcu_fd_sc_mcu9t5v0__clkinv_2
X_442_ _087_ _078_ _121_ _136_ VDD VSS gf180mcu_fd_sc_mcu9t5v0__aoi21_2
X_443_ _226_ _080_ _137_ VDD VSS gf180mcu_fd_sc_mcu9t5v0__or2_2
X_444_ _087_ _071_ _137_ _049_ _066_ _138_ VDD VSS gf180mcu_fd_sc_mcu9t5v0__oai221_4
X_445_ _238_ _244_ _098_ _139_ VDD VSS gf180mcu_fd_sc_mcu9t5v0__nor3_2
X_446_ _135_ _136_ _138_ _139_ _140_ VDD VSS gf180mcu_fd_sc_mcu9t5v0__oai211_4
X_447_ _073_ _088_ _009_ _141_ VDD VSS gf180mcu_fd_sc_mcu9t5v0__nand3_4
X_448_ _140_ _141_ _020_ _142_ VDD VSS gf180mcu_fd_sc_mcu9t5v0__aoi21_2
X_449_ _256_ _104_ _130_ _143_ VDD VSS gf180mcu_fd_sc_mcu9t5v0__nor3_2
X_450_ _114_ _143_ _126_ _144_ VDD VSS gf180mcu_fd_sc_mcu9t5v0__mux2_2
X_451_ _126_ _114_ _145_ VDD VSS gf180mcu_fd_sc_mcu9t5v0__or2_2
X_452_ _250_ _104_ _131_ _146_ VDD VSS gf180mcu_fd_sc_mcu9t5v0__or3_2
X_453_ _145_ _146_ _210_ _147_ VDD VSS gf180mcu_fd_sc_mcu9t5v0__aoi21_2
X_454_ _212_ _144_ _147_ _148_ VDD VSS gf180mcu_fd_sc_mcu9t5v0__aoi21_2
X_455_ _103_ _116_ _134_ _142_ _148_ _149_ VDD VSS gf180mcu_fd_sc_mcu9t5v0__oai221_4
X_456_ _000_ _149_ _266_ _150_ VDD VSS gf180mcu_fd_sc_mcu9t5v0__aoi21_2
X_457_ net25 net57 _151_ VDD VSS gf180mcu_fd_sc_mcu9t5v0__or2_2
X_458_ net24 net56 _151_ _152_ VDD VSS gf180mcu_fd_sc_mcu9t5v0__oai21_2
X_459_ _264_ _151_ _262_ _153_ VDD VSS gf180mcu_fd_sc_mcu9t5v0__aoi21_2
X_460_ _150_ _152_ _153_ net66 VDD VSS gf180mcu_fd_sc_mcu9t5v0__oai21_2
X_461_ net65 _283_ net67 VDD VSS gf180mcu_fd_sc_mcu9t5v0__xor2_2
X_462_ _270_ _074_ _087_ _154_ VDD VSS gf180mcu_fd_sc_mcu9t5v0__mux2_2
X_463_ _054_ _154_ _055_ _155_ VDD VSS gf180mcu_fd_sc_mcu9t5v0__oai21_4
X_464_ _235_ _155_ net68 VDD VSS gf180mcu_fd_sc_mcu9t5v0__xor2_2
X_465_ _053_ _155_ _234_ _156_ VDD VSS gf180mcu_fd_sc_mcu9t5v0__aoi21_2
X_466_ _233_ _156_ net69 VDD VSS gf180mcu_fd_sc_mcu9t5v0__xnor2_2
X_467_ _277_ _117_ net70 VDD VSS gf180mcu_fd_sc_mcu9t5v0__xnor2_2
X_468_ _061_ _278_ _117_ _157_ VDD VSS gf180mcu_fd_sc_mcu9t5v0__mux2_2
X_469_ _243_ _157_ net71 VDD VSS gf180mcu_fd_sc_mcu9t5v0__xor2_2
X_470_ _062_ _157_ _242_ _158_ VDD VSS gf180mcu_fd_sc_mcu9t5v0__aoi21_2
X_471_ _241_ _158_ net72 VDD VSS gf180mcu_fd_sc_mcu9t5v0__xnor2_2
X_472_ _060_ _158_ _059_ _159_ VDD VSS gf180mcu_fd_sc_mcu9t5v0__oai21_2
X_473_ _239_ _159_ net73 VDD VSS gf180mcu_fd_sc_mcu9t5v0__xor2_2
X_474_ _073_ _088_ _160_ VDD VSS gf180mcu_fd_sc_mcu9t5v0__nand2_4
X_475_ _289_ _160_ net74 VDD VSS gf180mcu_fd_sc_mcu9t5v0__xnor2_2
X_476_ _288_ _095_ _160_ _161_ VDD VSS gf180mcu_fd_sc_mcu9t5v0__mux2_2
X_477_ _249_ _161_ net75 VDD VSS gf180mcu_fd_sc_mcu9t5v0__xnor2_2
X_478_ _003_ _161_ _004_ _162_ VDD VSS gf180mcu_fd_sc_mcu9t5v0__oai21_2
X_479_ _247_ _162_ net76 VDD VSS gf180mcu_fd_sc_mcu9t5v0__xor2_2
X_480_ _002_ _162_ _246_ _163_ VDD VSS gf180mcu_fd_sc_mcu9t5v0__aoi21_2
X_481_ _245_ _163_ net77 VDD VSS gf180mcu_fd_sc_mcu9t5v0__xnor2_2
X_482_ _225_ _041_ net78 VDD VSS gf180mcu_fd_sc_mcu9t5v0__xnor2_2
X_483_ _140_ _141_ _164_ VDD VSS gf180mcu_fd_sc_mcu9t5v0__nand2_2
X_484_ _199_ _164_ net79 VDD VSS gf180mcu_fd_sc_mcu9t5v0__xnor2_2
X_485_ _012_ _200_ _164_ _165_ VDD VSS gf180mcu_fd_sc_mcu9t5v0__mux2_2
X_486_ _255_ _165_ net80 VDD VSS gf180mcu_fd_sc_mcu9t5v0__xor2_2
X_487_ _013_ _165_ _254_ _166_ VDD VSS gf180mcu_fd_sc_mcu9t5v0__aoi21_2
X_488_ _253_ _166_ net81 VDD VSS gf180mcu_fd_sc_mcu9t5v0__xnor2_2
X_489_ _251_ _103_ net82 VDD VSS gf180mcu_fd_sc_mcu9t5v0__xnor2_2
X_490_ _089_ _102_ _104_ _167_ VDD VSS gf180mcu_fd_sc_mcu9t5v0__and3_2
X_491_ _250_ _167_ _168_ VDD VSS gf180mcu_fd_sc_mcu9t5v0__nor2_4
X_492_ _205_ _168_ net83 VDD VSS gf180mcu_fd_sc_mcu9t5v0__xnor2_2
X_493_ _204_ _127_ _168_ _169_ VDD VSS gf180mcu_fd_sc_mcu9t5v0__mux2_4
X_494_ _261_ _169_ net84 VDD VSS gf180mcu_fd_sc_mcu9t5v0__xnor2_4
X_495_ _204_ _108_ _170_ VDD VSS gf180mcu_fd_sc_mcu9t5v0__or2_2
X_496_ _127_ _250_ _108_ _167_ _171_ VDD VSS gf180mcu_fd_sc_mcu9t5v0__or4_2
X_497_ _170_ _168_ _171_ _109_ _172_ VDD VSS gf180mcu_fd_sc_mcu9t5v0__oai211_2
X_498_ _259_ _172_ net85 VDD VSS gf180mcu_fd_sc_mcu9t5v0__xor2_2
X_499_ _106_ _111_ _173_ VDD VSS gf180mcu_fd_sc_mcu9t5v0__and2_2
X_500_ _106_ _129_ _174_ VDD VSS gf180mcu_fd_sc_mcu9t5v0__nand2_2
X_501_ _174_ _175_ VDD VSS gf180mcu_fd_sc_mcu9t5v0__clkinv_2
X_502_ _173_ _175_ _168_ _176_ VDD VSS gf180mcu_fd_sc_mcu9t5v0__mux2_2
X_503_ _257_ _176_ net86 VDD VSS gf180mcu_fd_sc_mcu9t5v0__xnor2_2
X_504_ _114_ _131_ _168_ _177_ VDD VSS gf180mcu_fd_sc_mcu9t5v0__mux2_2
X_505_ _211_ _177_ net87 VDD VSS gf180mcu_fd_sc_mcu9t5v0__xnor2_2
X_506_ _267_ _149_ net88 VDD VSS gf180mcu_fd_sc_mcu9t5v0__xor2_2
X_507_ _034_ _035_ _224_ _178_ VDD VSS gf180mcu_fd_sc_mcu9t5v0__aoi21_2
X_508_ _223_ _178_ net89 VDD VSS gf180mcu_fd_sc_mcu9t5v0__xnor2_2
X_509_ _265_ _150_ net90 VDD VSS gf180mcu_fd_sc_mcu9t5v0__xnor2_2
X_510_ _263_ _264_ _266_ _179_ VDD VSS gf180mcu_fd_sc_mcu9t5v0__or3_2
X_511_ net24 net56 _263_ _000_ _180_ VDD VSS gf180mcu_fd_sc_mcu9t5v0__oai211_2
X_512_ _179_ _180_ _149_ _181_ VDD VSS gf180mcu_fd_sc_mcu9t5v0__mux2_2
X_513_ net24 net56 _263_ _266_ _182_ VDD VSS gf180mcu_fd_sc_mcu9t5v0__oai211_2
X_514_ net24 net56 _263_ _264_ _183_ VDD VSS gf180mcu_fd_sc_mcu9t5v0__or4_2
X_515_ _182_ _183_ _184_ VDD VSS gf180mcu_fd_sc_mcu9t5v0__and2_2
X_516_ _263_ _264_ _266_ _000_ _185_ VDD VSS gf180mcu_fd_sc_mcu9t5v0__or4_2
X_517_ _263_ _264_ _186_ VDD VSS gf180mcu_fd_sc_mcu9t5v0__nand2_2
X_518_ _181_ _184_ _185_ _186_ net91 VDD VSS gf180mcu_fd_sc_mcu9t5v0__and4_2
X_519_ _221_ _037_ net92 VDD VSS gf180mcu_fd_sc_mcu9t5v0__xnor2_2
X_520_ _217_ _085_ net93 VDD VSS gf180mcu_fd_sc_mcu9t5v0__xnor2_2
X_521_ _216_ _187_ VDD VSS gf180mcu_fd_sc_mcu9t5v0__clkinv_2
X_522_ _187_ _218_ _085_ _188_ VDD VSS gf180mcu_fd_sc_mcu9t5v0__mux2_2
X_523_ _231_ _188_ net94 VDD VSS gf180mcu_fd_sc_mcu9t5v0__xor2_2
X_524_ net28 net60 _189_ VDD VSS gf180mcu_fd_sc_mcu9t5v0__or2_2
X_525_ _189_ _188_ _230_ _190_ VDD VSS gf180mcu_fd_sc_mcu9t5v0__aoi21_2
X_526_ _229_ _190_ net95 VDD VSS gf180mcu_fd_sc_mcu9t5v0__xnor2_2
X_527_ _023_ _191_ VDD VSS gf180mcu_fd_sc_mcu9t5v0__clkinv_2
X_528_ _191_ _188_ _192_ VDD VSS gf180mcu_fd_sc_mcu9t5v0__nand2_2
X_529_ _025_ _024_ _192_ _193_ VDD VSS gf180mcu_fd_sc_mcu9t5v0__and3_2
X_530_ _227_ _193_ net96 VDD VSS gf180mcu_fd_sc_mcu9t5v0__xnor2_2
X_531_ _271_ _087_ net97 VDD VSS gf180mcu_fd_sc_mcu9t5v0__xnor2_2
X_532_ _237_ _154_ net98 VDD VSS gf180mcu_fd_sc_mcu9t5v0__xnor2_2
X_533_ net8 net40 _194_ _195_ VDD VSS gf180mcu_fd_sc_mcu9t5v0__addh_1
X_534_ _196_ _197_ _198_ _199_ VDD VSS gf180mcu_fd_sc_mcu9t5v0__addh_1
X_535_ net13 net45 _200_ _201_ VDD VSS gf180mcu_fd_sc_mcu9t5v0__addh_1
X_536_ _202_ _203_ _204_ _205_ VDD VSS gf180mcu_fd_sc_mcu9t5v0__addh_1
X_537_ net17 net49 _206_ _207_ VDD VSS gf180mcu_fd_sc_mcu9t5v0__addh_1
X_538_ _208_ _209_ _210_ _211_ VDD VSS gf180mcu_fd_sc_mcu9t5v0__addh_1
X_539_ net21 net53 _212_ _213_ VDD VSS gf180mcu_fd_sc_mcu9t5v0__addh_2
X_540_ _214_ _215_ _216_ _217_ VDD VSS gf180mcu_fd_sc_mcu9t5v0__addh_1
X_541_ net27 net59 _218_ _219_ VDD VSS gf180mcu_fd_sc_mcu9t5v0__addh_1
X_542_ net26 net58 _220_ _221_ VDD VSS gf180mcu_fd_sc_mcu9t5v0__addh_2
X_543_ net23 net55 _222_ _223_ VDD VSS gf180mcu_fd_sc_mcu9t5v0__addh_2
X_544_ net12 net44 _224_ _225_ VDD VSS gf180mcu_fd_sc_mcu9t5v0__addh_4
X_545_ net30 net62 _226_ _227_ VDD VSS gf180mcu_fd_sc_mcu9t5v0__addh_4
X_546_ net29 net61 _228_ _229_ VDD VSS gf180mcu_fd_sc_mcu9t5v0__addh_1
X_547_ net28 net60 _230_ _231_ VDD VSS gf180mcu_fd_sc_mcu9t5v0__addh_1
X_548_ net3 net35 _232_ _233_ VDD VSS gf180mcu_fd_sc_mcu9t5v0__addh_4
X_549_ net2 net34 _234_ _235_ VDD VSS gf180mcu_fd_sc_mcu9t5v0__addh_4
X_550_ net32 net64 _236_ _237_ VDD VSS gf180mcu_fd_sc_mcu9t5v0__addh_1
X_551_ net7 net39 _238_ _239_ VDD VSS gf180mcu_fd_sc_mcu9t5v0__addh_4
X_552_ net6 net38 _240_ _241_ VDD VSS gf180mcu_fd_sc_mcu9t5v0__addh_1
X_553_ net5 net37 _242_ _243_ VDD VSS gf180mcu_fd_sc_mcu9t5v0__addh_2
X_554_ net11 net43 _244_ _245_ VDD VSS gf180mcu_fd_sc_mcu9t5v0__addh_4
X_555_ net10 net42 _246_ _247_ VDD VSS gf180mcu_fd_sc_mcu9t5v0__addh_1
X_556_ net9 net41 _248_ _249_ VDD VSS gf180mcu_fd_sc_mcu9t5v0__addh_1
X_557_ net16 net48 _250_ _251_ VDD VSS gf180mcu_fd_sc_mcu9t5v0__addh_2
X_558_ net15 net47 _252_ _253_ VDD VSS gf180mcu_fd_sc_mcu9t5v0__addh_1
X_559_ net14 net46 _254_ _255_ VDD VSS gf180mcu_fd_sc_mcu9t5v0__addh_2
X_560_ net20 net52 _256_ _257_ VDD VSS gf180mcu_fd_sc_mcu9t5v0__addh_2
X_561_ net19 net51 _258_ _259_ VDD VSS gf180mcu_fd_sc_mcu9t5v0__addh_1
X_562_ net18 net50 _260_ _261_ VDD VSS gf180mcu_fd_sc_mcu9t5v0__addh_4
X_563_ net25 net57 _262_ _263_ VDD VSS gf180mcu_fd_sc_mcu9t5v0__addh_2
X_564_ net24 net56 _264_ _265_ VDD VSS gf180mcu_fd_sc_mcu9t5v0__addh_2
X_565_ net22 net54 _266_ _267_ VDD VSS gf180mcu_fd_sc_mcu9t5v0__addh_2
X_566_ _268_ _269_ _270_ _271_ VDD VSS gf180mcu_fd_sc_mcu9t5v0__addh_2
X_567_ net31 net63 _272_ _273_ VDD VSS gf180mcu_fd_sc_mcu9t5v0__addh_1
X_568_ _274_ _275_ _276_ _277_ VDD VSS gf180mcu_fd_sc_mcu9t5v0__addh_1
X_569_ net4 net36 _278_ _279_ VDD VSS gf180mcu_fd_sc_mcu9t5v0__addh_1
X_570_ _280_ _281_ _282_ _283_ VDD VSS gf180mcu_fd_sc_mcu9t5v0__addh_1
X_571_ net1 net33 _284_ _285_ VDD VSS gf180mcu_fd_sc_mcu9t5v0__addh_1
X_572_ _286_ _287_ _288_ _289_ VDD VSS gf180mcu_fd_sc_mcu9t5v0__addh_1
XPHY_EDGE_ROW_0_Right_0 VDD VSS gf180mcu_fd_sc_mcu9t5v0__endcap
XPHY_EDGE_ROW_1_Right_1 VDD VSS gf180mcu_fd_sc_mcu9t5v0__endcap
XPHY_EDGE_ROW_2_Right_2 VDD VSS gf180mcu_fd_sc_mcu9t5v0__endcap
XPHY_EDGE_ROW_3_Right_3 VDD VSS gf180mcu_fd_sc_mcu9t5v0__endcap
XPHY_EDGE_ROW_4_Right_4 VDD VSS gf180mcu_fd_sc_mcu9t5v0__endcap
XPHY_EDGE_ROW_5_Right_5 VDD VSS gf180mcu_fd_sc_mcu9t5v0__endcap
XPHY_EDGE_ROW_6_Right_6 VDD VSS gf180mcu_fd_sc_mcu9t5v0__endcap
XPHY_EDGE_ROW_7_Right_7 VDD VSS gf180mcu_fd_sc_mcu9t5v0__endcap
XPHY_EDGE_ROW_8_Right_8 VDD VSS gf180mcu_fd_sc_mcu9t5v0__endcap
XPHY_EDGE_ROW_9_Right_9 VDD VSS gf180mcu_fd_sc_mcu9t5v0__endcap
XPHY_EDGE_ROW_10_Right_10 VDD VSS gf180mcu_fd_sc_mcu9t5v0__endcap
XPHY_EDGE_ROW_11_Right_11 VDD VSS gf180mcu_fd_sc_mcu9t5v0__endcap
XPHY_EDGE_ROW_12_Right_12 VDD VSS gf180mcu_fd_sc_mcu9t5v0__endcap
XPHY_EDGE_ROW_13_Right_13 VDD VSS gf180mcu_fd_sc_mcu9t5v0__endcap
XPHY_EDGE_ROW_14_Right_14 VDD VSS gf180mcu_fd_sc_mcu9t5v0__endcap
XPHY_EDGE_ROW_15_Right_15 VDD VSS gf180mcu_fd_sc_mcu9t5v0__endcap
XPHY_EDGE_ROW_16_Right_16 VDD VSS gf180mcu_fd_sc_mcu9t5v0__endcap
XPHY_EDGE_ROW_17_Right_17 VDD VSS gf180mcu_fd_sc_mcu9t5v0__endcap
XPHY_EDGE_ROW_18_Right_18 VDD VSS gf180mcu_fd_sc_mcu9t5v0__endcap
XPHY_EDGE_ROW_19_Right_19 VDD VSS gf180mcu_fd_sc_mcu9t5v0__endcap
XPHY_EDGE_ROW_20_Right_20 VDD VSS gf180mcu_fd_sc_mcu9t5v0__endcap
XPHY_EDGE_ROW_21_Right_21 VDD VSS gf180mcu_fd_sc_mcu9t5v0__endcap
XPHY_EDGE_ROW_22_Right_22 VDD VSS gf180mcu_fd_sc_mcu9t5v0__endcap
XPHY_EDGE_ROW_23_Right_23 VDD VSS gf180mcu_fd_sc_mcu9t5v0__endcap
XPHY_EDGE_ROW_24_Right_24 VDD VSS gf180mcu_fd_sc_mcu9t5v0__endcap
XPHY_EDGE_ROW_25_Right_25 VDD VSS gf180mcu_fd_sc_mcu9t5v0__endcap
XPHY_EDGE_ROW_26_Right_26 VDD VSS gf180mcu_fd_sc_mcu9t5v0__endcap
XPHY_EDGE_ROW_27_Right_27 VDD VSS gf180mcu_fd_sc_mcu9t5v0__endcap
XPHY_EDGE_ROW_28_Right_28 VDD VSS gf180mcu_fd_sc_mcu9t5v0__endcap
XPHY_EDGE_ROW_29_Right_29 VDD VSS gf180mcu_fd_sc_mcu9t5v0__endcap
XPHY_EDGE_ROW_30_Right_30 VDD VSS gf180mcu_fd_sc_mcu9t5v0__endcap
XPHY_EDGE_ROW_31_Right_31 VDD VSS gf180mcu_fd_sc_mcu9t5v0__endcap
XPHY_EDGE_ROW_32_Right_32 VDD VSS gf180mcu_fd_sc_mcu9t5v0__endcap
XPHY_EDGE_ROW_33_Right_33 VDD VSS gf180mcu_fd_sc_mcu9t5v0__endcap
XPHY_EDGE_ROW_34_Right_34 VDD VSS gf180mcu_fd_sc_mcu9t5v0__endcap
XPHY_EDGE_ROW_35_Right_35 VDD VSS gf180mcu_fd_sc_mcu9t5v0__endcap
XPHY_EDGE_ROW_36_Right_36 VDD VSS gf180mcu_fd_sc_mcu9t5v0__endcap
XPHY_EDGE_ROW_37_Right_37 VDD VSS gf180mcu_fd_sc_mcu9t5v0__endcap
XPHY_EDGE_ROW_38_Right_38 VDD VSS gf180mcu_fd_sc_mcu9t5v0__endcap
XPHY_EDGE_ROW_39_Right_39 VDD VSS gf180mcu_fd_sc_mcu9t5v0__endcap
XPHY_EDGE_ROW_40_Right_40 VDD VSS gf180mcu_fd_sc_mcu9t5v0__endcap
XPHY_EDGE_ROW_41_Right_41 VDD VSS gf180mcu_fd_sc_mcu9t5v0__endcap
XPHY_EDGE_ROW_42_Right_42 VDD VSS gf180mcu_fd_sc_mcu9t5v0__endcap
XPHY_EDGE_ROW_43_Right_43 VDD VSS gf180mcu_fd_sc_mcu9t5v0__endcap
XPHY_EDGE_ROW_44_Right_44 VDD VSS gf180mcu_fd_sc_mcu9t5v0__endcap
XPHY_EDGE_ROW_45_Right_45 VDD VSS gf180mcu_fd_sc_mcu9t5v0__endcap
XPHY_EDGE_ROW_46_Right_46 VDD VSS gf180mcu_fd_sc_mcu9t5v0__endcap
XPHY_EDGE_ROW_47_Right_47 VDD VSS gf180mcu_fd_sc_mcu9t5v0__endcap
XPHY_EDGE_ROW_48_Right_48 VDD VSS gf180mcu_fd_sc_mcu9t5v0__endcap
XPHY_EDGE_ROW_49_Right_49 VDD VSS gf180mcu_fd_sc_mcu9t5v0__endcap
XPHY_EDGE_ROW_50_Right_50 VDD VSS gf180mcu_fd_sc_mcu9t5v0__endcap
XPHY_EDGE_ROW_51_Right_51 VDD VSS gf180mcu_fd_sc_mcu9t5v0__endcap
XPHY_EDGE_ROW_52_Right_52 VDD VSS gf180mcu_fd_sc_mcu9t5v0__endcap
XPHY_EDGE_ROW_53_Right_53 VDD VSS gf180mcu_fd_sc_mcu9t5v0__endcap
XPHY_EDGE_ROW_54_Right_54 VDD VSS gf180mcu_fd_sc_mcu9t5v0__endcap
XPHY_EDGE_ROW_55_Right_55 VDD VSS gf180mcu_fd_sc_mcu9t5v0__endcap
XPHY_EDGE_ROW_56_Right_56 VDD VSS gf180mcu_fd_sc_mcu9t5v0__endcap
XPHY_EDGE_ROW_57_Right_57 VDD VSS gf180mcu_fd_sc_mcu9t5v0__endcap
XPHY_EDGE_ROW_58_Right_58 VDD VSS gf180mcu_fd_sc_mcu9t5v0__endcap
XPHY_EDGE_ROW_59_Right_59 VDD VSS gf180mcu_fd_sc_mcu9t5v0__endcap
XPHY_EDGE_ROW_60_Right_60 VDD VSS gf180mcu_fd_sc_mcu9t5v0__endcap
XPHY_EDGE_ROW_61_Right_61 VDD VSS gf180mcu_fd_sc_mcu9t5v0__endcap
XPHY_EDGE_ROW_62_Right_62 VDD VSS gf180mcu_fd_sc_mcu9t5v0__endcap
XPHY_EDGE_ROW_63_Right_63 VDD VSS gf180mcu_fd_sc_mcu9t5v0__endcap
XPHY_EDGE_ROW_64_Right_64 VDD VSS gf180mcu_fd_sc_mcu9t5v0__endcap
XPHY_EDGE_ROW_65_Right_65 VDD VSS gf180mcu_fd_sc_mcu9t5v0__endcap
XPHY_EDGE_ROW_66_Right_66 VDD VSS gf180mcu_fd_sc_mcu9t5v0__endcap
XPHY_EDGE_ROW_67_Right_67 VDD VSS gf180mcu_fd_sc_mcu9t5v0__endcap
XPHY_EDGE_ROW_68_Right_68 VDD VSS gf180mcu_fd_sc_mcu9t5v0__endcap
XPHY_EDGE_ROW_69_Right_69 VDD VSS gf180mcu_fd_sc_mcu9t5v0__endcap
XPHY_EDGE_ROW_70_Right_70 VDD VSS gf180mcu_fd_sc_mcu9t5v0__endcap
XPHY_EDGE_ROW_71_Right_71 VDD VSS gf180mcu_fd_sc_mcu9t5v0__endcap
XPHY_EDGE_ROW_72_Right_72 VDD VSS gf180mcu_fd_sc_mcu9t5v0__endcap
XPHY_EDGE_ROW_73_Right_73 VDD VSS gf180mcu_fd_sc_mcu9t5v0__endcap
XPHY_EDGE_ROW_74_Right_74 VDD VSS gf180mcu_fd_sc_mcu9t5v0__endcap
XPHY_EDGE_ROW_75_Right_75 VDD VSS gf180mcu_fd_sc_mcu9t5v0__endcap
XPHY_EDGE_ROW_76_Right_76 VDD VSS gf180mcu_fd_sc_mcu9t5v0__endcap
XPHY_EDGE_ROW_77_Right_77 VDD VSS gf180mcu_fd_sc_mcu9t5v0__endcap
XPHY_EDGE_ROW_78_Right_78 VDD VSS gf180mcu_fd_sc_mcu9t5v0__endcap
XPHY_EDGE_ROW_79_Right_79 VDD VSS gf180mcu_fd_sc_mcu9t5v0__endcap
XPHY_EDGE_ROW_80_Right_80 VDD VSS gf180mcu_fd_sc_mcu9t5v0__endcap
XPHY_EDGE_ROW_81_Right_81 VDD VSS gf180mcu_fd_sc_mcu9t5v0__endcap
XPHY_EDGE_ROW_82_Right_82 VDD VSS gf180mcu_fd_sc_mcu9t5v0__endcap
XPHY_EDGE_ROW_83_Right_83 VDD VSS gf180mcu_fd_sc_mcu9t5v0__endcap
XPHY_EDGE_ROW_84_Right_84 VDD VSS gf180mcu_fd_sc_mcu9t5v0__endcap
XPHY_EDGE_ROW_85_Right_85 VDD VSS gf180mcu_fd_sc_mcu9t5v0__endcap
XPHY_EDGE_ROW_86_Right_86 VDD VSS gf180mcu_fd_sc_mcu9t5v0__endcap
XPHY_EDGE_ROW_87_Right_87 VDD VSS gf180mcu_fd_sc_mcu9t5v0__endcap
XPHY_EDGE_ROW_88_Right_88 VDD VSS gf180mcu_fd_sc_mcu9t5v0__endcap
XPHY_EDGE_ROW_89_Right_89 VDD VSS gf180mcu_fd_sc_mcu9t5v0__endcap
XPHY_EDGE_ROW_90_Right_90 VDD VSS gf180mcu_fd_sc_mcu9t5v0__endcap
XPHY_EDGE_ROW_91_Right_91 VDD VSS gf180mcu_fd_sc_mcu9t5v0__endcap
XPHY_EDGE_ROW_92_Right_92 VDD VSS gf180mcu_fd_sc_mcu9t5v0__endcap
XPHY_EDGE_ROW_93_Right_93 VDD VSS gf180mcu_fd_sc_mcu9t5v0__endcap
XPHY_EDGE_ROW_94_Right_94 VDD VSS gf180mcu_fd_sc_mcu9t5v0__endcap
XPHY_EDGE_ROW_95_Right_95 VDD VSS gf180mcu_fd_sc_mcu9t5v0__endcap
XPHY_EDGE_ROW_96_Right_96 VDD VSS gf180mcu_fd_sc_mcu9t5v0__endcap
XPHY_EDGE_ROW_97_Right_97 VDD VSS gf180mcu_fd_sc_mcu9t5v0__endcap
XPHY_EDGE_ROW_98_Right_98 VDD VSS gf180mcu_fd_sc_mcu9t5v0__endcap
XPHY_EDGE_ROW_99_Right_99 VDD VSS gf180mcu_fd_sc_mcu9t5v0__endcap
XPHY_EDGE_ROW_100_Right_100 VDD VSS gf180mcu_fd_sc_mcu9t5v0__endcap
XPHY_EDGE_ROW_101_Right_101 VDD VSS gf180mcu_fd_sc_mcu9t5v0__endcap
XPHY_EDGE_ROW_102_Right_102 VDD VSS gf180mcu_fd_sc_mcu9t5v0__endcap
XPHY_EDGE_ROW_103_Right_103 VDD VSS gf180mcu_fd_sc_mcu9t5v0__endcap
XPHY_EDGE_ROW_104_Right_104 VDD VSS gf180mcu_fd_sc_mcu9t5v0__endcap
XPHY_EDGE_ROW_105_Right_105 VDD VSS gf180mcu_fd_sc_mcu9t5v0__endcap
XPHY_EDGE_ROW_106_Right_106 VDD VSS gf180mcu_fd_sc_mcu9t5v0__endcap
XPHY_EDGE_ROW_107_Right_107 VDD VSS gf180mcu_fd_sc_mcu9t5v0__endcap
XPHY_EDGE_ROW_108_Right_108 VDD VSS gf180mcu_fd_sc_mcu9t5v0__endcap
XPHY_EDGE_ROW_109_Right_109 VDD VSS gf180mcu_fd_sc_mcu9t5v0__endcap
XPHY_EDGE_ROW_110_Right_110 VDD VSS gf180mcu_fd_sc_mcu9t5v0__endcap
XPHY_EDGE_ROW_111_Right_111 VDD VSS gf180mcu_fd_sc_mcu9t5v0__endcap
XPHY_EDGE_ROW_112_Right_112 VDD VSS gf180mcu_fd_sc_mcu9t5v0__endcap
XPHY_EDGE_ROW_113_Right_113 VDD VSS gf180mcu_fd_sc_mcu9t5v0__endcap
XPHY_EDGE_ROW_114_Right_114 VDD VSS gf180mcu_fd_sc_mcu9t5v0__endcap
XPHY_EDGE_ROW_115_Right_115 VDD VSS gf180mcu_fd_sc_mcu9t5v0__endcap
XPHY_EDGE_ROW_116_Right_116 VDD VSS gf180mcu_fd_sc_mcu9t5v0__endcap
XPHY_EDGE_ROW_117_Right_117 VDD VSS gf180mcu_fd_sc_mcu9t5v0__endcap
XPHY_EDGE_ROW_118_Right_118 VDD VSS gf180mcu_fd_sc_mcu9t5v0__endcap
XPHY_EDGE_ROW_119_Right_119 VDD VSS gf180mcu_fd_sc_mcu9t5v0__endcap
XPHY_EDGE_ROW_120_Right_120 VDD VSS gf180mcu_fd_sc_mcu9t5v0__endcap
XPHY_EDGE_ROW_121_Right_121 VDD VSS gf180mcu_fd_sc_mcu9t5v0__endcap
XPHY_EDGE_ROW_122_Right_122 VDD VSS gf180mcu_fd_sc_mcu9t5v0__endcap
XPHY_EDGE_ROW_123_Right_123 VDD VSS gf180mcu_fd_sc_mcu9t5v0__endcap
XPHY_EDGE_ROW_124_Right_124 VDD VSS gf180mcu_fd_sc_mcu9t5v0__endcap
XPHY_EDGE_ROW_125_Right_125 VDD VSS gf180mcu_fd_sc_mcu9t5v0__endcap
XPHY_EDGE_ROW_126_Right_126 VDD VSS gf180mcu_fd_sc_mcu9t5v0__endcap
XPHY_EDGE_ROW_127_Right_127 VDD VSS gf180mcu_fd_sc_mcu9t5v0__endcap
XPHY_EDGE_ROW_128_Right_128 VDD VSS gf180mcu_fd_sc_mcu9t5v0__endcap
XPHY_EDGE_ROW_129_Right_129 VDD VSS gf180mcu_fd_sc_mcu9t5v0__endcap
XPHY_EDGE_ROW_130_Right_130 VDD VSS gf180mcu_fd_sc_mcu9t5v0__endcap
XPHY_EDGE_ROW_131_Right_131 VDD VSS gf180mcu_fd_sc_mcu9t5v0__endcap
XPHY_EDGE_ROW_132_Right_132 VDD VSS gf180mcu_fd_sc_mcu9t5v0__endcap
XPHY_EDGE_ROW_133_Right_133 VDD VSS gf180mcu_fd_sc_mcu9t5v0__endcap
XPHY_EDGE_ROW_134_Right_134 VDD VSS gf180mcu_fd_sc_mcu9t5v0__endcap
XPHY_EDGE_ROW_135_Right_135 VDD VSS gf180mcu_fd_sc_mcu9t5v0__endcap
XPHY_EDGE_ROW_136_Right_136 VDD VSS gf180mcu_fd_sc_mcu9t5v0__endcap
XPHY_EDGE_ROW_137_Right_137 VDD VSS gf180mcu_fd_sc_mcu9t5v0__endcap
XPHY_EDGE_ROW_138_Right_138 VDD VSS gf180mcu_fd_sc_mcu9t5v0__endcap
XPHY_EDGE_ROW_139_Right_139 VDD VSS gf180mcu_fd_sc_mcu9t5v0__endcap
XPHY_EDGE_ROW_140_Right_140 VDD VSS gf180mcu_fd_sc_mcu9t5v0__endcap
XPHY_EDGE_ROW_141_Right_141 VDD VSS gf180mcu_fd_sc_mcu9t5v0__endcap
XPHY_EDGE_ROW_142_Right_142 VDD VSS gf180mcu_fd_sc_mcu9t5v0__endcap
XPHY_EDGE_ROW_143_Right_143 VDD VSS gf180mcu_fd_sc_mcu9t5v0__endcap
XPHY_EDGE_ROW_144_Right_144 VDD VSS gf180mcu_fd_sc_mcu9t5v0__endcap
XPHY_EDGE_ROW_145_Right_145 VDD VSS gf180mcu_fd_sc_mcu9t5v0__endcap
XPHY_EDGE_ROW_146_Right_146 VDD VSS gf180mcu_fd_sc_mcu9t5v0__endcap
XPHY_EDGE_ROW_147_Right_147 VDD VSS gf180mcu_fd_sc_mcu9t5v0__endcap
XPHY_EDGE_ROW_148_Right_148 VDD VSS gf180mcu_fd_sc_mcu9t5v0__endcap