* CDL Netlist generated by OpenROAD

*.BUSDELIMITER [

.SUBCKT parameterized_freq_divider clk_in clk_out divide_value[0]
+ divide_value[10] divide_value[11] divide_value[12] divide_value[13]
+ divide_value[14] divide_value[15] divide_value[1] divide_value[2]
+ divide_value[3] divide_value[4] divide_value[5] divide_value[6]
+ divide_value[7] divide_value[8] divide_value[9] duty_cycle[0]
+ duty_cycle[1] duty_cycle[2] duty_cycle[3] duty_cycle[4] duty_cycle[5]
+ duty_cycle[6] enable rst_n
X_2647_ _2532_ _1602_ VDD VSS gf180mcu_fd_sc_mcu9t5v0__clkinv_2
X_2648_ _2374_ _1603_ VDD VSS gf180mcu_fd_sc_mcu9t5v0__clkinv_2
X_2649_ _2558_ _1603_ _2563_ _2557_ _1604_ VDD VSS gf180mcu_fd_sc_mcu9t5v0__aoi211_4
X_2650_ _2564_ _2563_ _1605_ VDD VSS gf180mcu_fd_sc_mcu9t5v0__or2_4
X_2651_ _1605_ _1606_ VDD VSS gf180mcu_fd_sc_mcu9t5v0__clkinv_2
X_2652_ _1602_ _1604_ _1606_ _1607_ VDD VSS gf180mcu_fd_sc_mcu9t5v0__or3_2
X_2653_ _1604_ _1606_ _1602_ _1608_ VDD VSS gf180mcu_fd_sc_mcu9t5v0__oai21_2
X_2654_ _1607_ _1608_ _1609_ VDD VSS gf180mcu_fd_sc_mcu9t5v0__and2_2
X_2655_ _2375_ _1610_ VDD VSS gf180mcu_fd_sc_mcu9t5v0__inv_3
X_2656_ _2505_ _2569_ _2570_ _1611_ VDD VSS gf180mcu_fd_sc_mcu9t5v0__and3_2
X_2657_ _1610_ _2567_ _1611_ _1612_ VDD VSS gf180mcu_fd_sc_mcu9t5v0__or3_2
X_2658_ _2558_ _2374_ _1613_ VDD VSS gf180mcu_fd_sc_mcu9t5v0__xnor2_4
X_2659_ _2564_ _1614_ VDD VSS gf180mcu_fd_sc_mcu9t5v0__clkinv_3
X_2660_ _2565_ _2560_ _2557_ _2559_ _1615_ VDD VSS gf180mcu_fd_sc_mcu9t5v0__aoi211_4
X_2661_ _2558_ _2557_ _1616_ VDD VSS gf180mcu_fd_sc_mcu9t5v0__nor2_2
X_2662_ _1614_ net116 _1616_ _1617_ VDD VSS gf180mcu_fd_sc_mcu9t5v0__or3_4
X_2663_ net116 _1616_ _1614_ _1618_ VDD VSS gf180mcu_fd_sc_mcu9t5v0__oai21_4
X_2664_ _1612_ _1613_ _1617_ _1618_ _1619_ VDD VSS gf180mcu_fd_sc_mcu9t5v0__and4_2
X_2665_ _1609_ _1619_ _1620_ VDD VSS gf180mcu_fd_sc_mcu9t5v0__xnor2_4
X_2666_ _2573_ _1621_ VDD VSS gf180mcu_fd_sc_mcu9t5v0__clkinv_2
X_2667_ _1621_ _2571_ _1622_ VDD VSS gf180mcu_fd_sc_mcu9t5v0__and2_4
X_2668_ _2567_ _1611_ _1623_ VDD VSS gf180mcu_fd_sc_mcu9t5v0__xor2_4
X_2669_ _1622_ _1623_ _1624_ VDD VSS gf180mcu_fd_sc_mcu9t5v0__and2_4
X_2670_ _1613_ _1624_ _1625_ VDD VSS gf180mcu_fd_sc_mcu9t5v0__and2_4
X_2671_ _1620_ _1625_ _1626_ VDD VSS gf180mcu_fd_sc_mcu9t5v0__and2_2
X_2672_ _2558_ _1627_ VDD VSS gf180mcu_fd_sc_mcu9t5v0__clkinv_2
X_2673_ _2557_ _2563_ _1628_ VDD VSS gf180mcu_fd_sc_mcu9t5v0__nor2_2
X_2674_ _1627_ _2374_ _1628_ _1629_ VDD VSS gf180mcu_fd_sc_mcu9t5v0__oai21_4
X_2675_ _2529_ _2532_ _1605_ _1630_ VDD VSS gf180mcu_fd_sc_mcu9t5v0__and3_2
X_2676_ _2529_ _2531_ _2528_ _1631_ VDD VSS gf180mcu_fd_sc_mcu9t5v0__aoi21_4
X_2677_ _1631_ _1632_ VDD VSS gf180mcu_fd_sc_mcu9t5v0__clkinv_2
X_2678_ _1630_ _1629_ _1632_ _1633_ VDD VSS gf180mcu_fd_sc_mcu9t5v0__aoi21_4
X_2679_ net10 _1633_ _1634_ VDD VSS gf180mcu_fd_sc_mcu9t5v0__xnor2_2
X_2680_ _2563_ _2532_ _2531_ _1635_ VDD VSS gf180mcu_fd_sc_mcu9t5v0__aoi21_4
X_2681_ _2529_ _1635_ _1636_ VDD VSS gf180mcu_fd_sc_mcu9t5v0__xnor2_2
X_2682_ _1607_ _1608_ _1619_ _1636_ _1637_ VDD VSS gf180mcu_fd_sc_mcu9t5v0__and4_4
X_2683_ _1634_ _1637_ _1638_ VDD VSS gf180mcu_fd_sc_mcu9t5v0__xnor2_2
X_2684_ _1638_ _1639_ VDD VSS gf180mcu_fd_sc_mcu9t5v0__clkbuf_8
X_2685_ _1626_ _1639_ _1640_ VDD VSS gf180mcu_fd_sc_mcu9t5v0__nand2_2
X_2686_ _2519_ _2515_ _2522_ _1641_ VDD VSS gf180mcu_fd_sc_mcu9t5v0__and3_2
X_2687_ _2512_ _2508_ _1642_ VDD VSS gf180mcu_fd_sc_mcu9t5v0__and2_2
X_2688_ _2525_ _1641_ _1642_ _1643_ VDD VSS gf180mcu_fd_sc_mcu9t5v0__and3_2
X_2689_ _1643_ _1644_ VDD VSS gf180mcu_fd_sc_mcu9t5v0__clkinv_2
X_2690_ _2508_ _2511_ _1645_ VDD VSS gf180mcu_fd_sc_mcu9t5v0__and2_2
X_2691_ _2507_ _1645_ _1646_ VDD VSS gf180mcu_fd_sc_mcu9t5v0__or2_2
X_2692_ _2522_ _2524_ _2521_ _1647_ VDD VSS gf180mcu_fd_sc_mcu9t5v0__aoi21_4
X_2693_ _2512_ _1648_ VDD VSS gf180mcu_fd_sc_mcu9t5v0__clkbuf_8
X_2694_ _1648_ net11 _2508_ _2515_ _1649_ VDD VSS gf180mcu_fd_sc_mcu9t5v0__nand4_2
X_2695_ _2512_ _2508_ _2514_ _1650_ VDD VSS gf180mcu_fd_sc_mcu9t5v0__nand3_2
X_2696_ _2512_ _2508_ _2515_ _2518_ _1651_ VDD VSS gf180mcu_fd_sc_mcu9t5v0__nand4_2
X_2697_ _1649_ _1647_ _1650_ _1651_ _1652_ VDD VSS gf180mcu_fd_sc_mcu9t5v0__oai211_4
X_2698_ _1646_ _1652_ _1653_ VDD VSS gf180mcu_fd_sc_mcu9t5v0__nor2_2
X_2699_ _2599_ _2602_ _2598_ _1654_ VDD VSS gf180mcu_fd_sc_mcu9t5v0__aoi21_2
X_2700_ _2607_ _2609_ _2606_ _1655_ VDD VSS gf180mcu_fd_sc_mcu9t5v0__aoi21_4
X_2701_ _1654_ _1655_ _1656_ VDD VSS gf180mcu_fd_sc_mcu9t5v0__and2_2
X_2702_ _2593_ _1656_ _1657_ VDD VSS gf180mcu_fd_sc_mcu9t5v0__and2_2
X_2703_ _1633_ _1644_ _1653_ _1657_ _1658_ VDD VSS gf180mcu_fd_sc_mcu9t5v0__oai211_2
X_2704_ _2603_ _2602_ _1659_ VDD VSS gf180mcu_fd_sc_mcu9t5v0__or2_2
X_2705_ _2599_ _1659_ _2598_ _1660_ VDD VSS gf180mcu_fd_sc_mcu9t5v0__aoi21_2
X_2706_ _2607_ _2610_ _1661_ VDD VSS gf180mcu_fd_sc_mcu9t5v0__nand2_2
X_2707_ _2593_ _1661_ _1662_ VDD VSS gf180mcu_fd_sc_mcu9t5v0__and2_2
X_2708_ _2593_ _1660_ _1656_ _1662_ _1663_ VDD VSS gf180mcu_fd_sc_mcu9t5v0__aoi22_2
X_2709_ _1658_ _1663_ _1664_ VDD VSS gf180mcu_fd_sc_mcu9t5v0__and2_2
X_2710_ _2529_ _2532_ _1605_ _1665_ VDD VSS gf180mcu_fd_sc_mcu9t5v0__nand3_4
X_2711_ _1604_ _1665_ _1631_ _1666_ VDD VSS gf180mcu_fd_sc_mcu9t5v0__oai21_4
X_2712_ _2508_ _2511_ _2507_ _1667_ VDD VSS gf180mcu_fd_sc_mcu9t5v0__aoi21_4
X_2713_ _1656_ _1667_ _1668_ VDD VSS gf180mcu_fd_sc_mcu9t5v0__nand2_2
X_2714_ _1666_ _1643_ _1652_ _1668_ _1669_ VDD VSS gf180mcu_fd_sc_mcu9t5v0__aoi211_2
X_2715_ _1656_ _1661_ _1670_ VDD VSS gf180mcu_fd_sc_mcu9t5v0__and2_2
X_2716_ _2593_ _1660_ _1669_ _1670_ _1671_ VDD VSS gf180mcu_fd_sc_mcu9t5v0__or4_2
X_2717_ _1664_ _1671_ _1672_ VDD VSS gf180mcu_fd_sc_mcu9t5v0__nand2_4
X_2718_ _1666_ _1643_ _1646_ _1652_ _1673_ VDD VSS gf180mcu_fd_sc_mcu9t5v0__aoi211_4
X_2719_ _1673_ _2610_ _1674_ VDD VSS gf180mcu_fd_sc_mcu9t5v0__xnor2_4
X_2720_ _1667_ _1650_ _1675_ VDD VSS gf180mcu_fd_sc_mcu9t5v0__nand2_2
X_2721_ _1648_ _2508_ _2515_ _2610_ _1676_ VDD VSS gf180mcu_fd_sc_mcu9t5v0__and4_2
X_2722_ _2519_ _2522_ _1677_ VDD VSS gf180mcu_fd_sc_mcu9t5v0__nand2_2
X_2723_ _2528_ _2525_ _2524_ _1678_ VDD VSS gf180mcu_fd_sc_mcu9t5v0__aoi21_4
X_2724_ _2519_ _2521_ _2518_ _1679_ VDD VSS gf180mcu_fd_sc_mcu9t5v0__aoi21_4
X_2725_ _1677_ _1678_ _1679_ _1680_ VDD VSS gf180mcu_fd_sc_mcu9t5v0__oai21_4
X_2726_ _2610_ _1675_ _1676_ _1680_ _2609_ _1681_ VDD VSS
+ gf180mcu_fd_sc_mcu9t5v0__aoi221_4
X_2727_ _2557_ _2558_ _2564_ _2532_ _1682_ VDD VSS gf180mcu_fd_sc_mcu9t5v0__oai211_4
X_2728_ _1682_ _1615_ _1635_ _1683_ VDD VSS gf180mcu_fd_sc_mcu9t5v0__oai21_4
X_2729_ _2519_ _2525_ _2529_ _2522_ _1684_ VDD VSS gf180mcu_fd_sc_mcu9t5v0__and4_2
X_2730_ _1684_ _1676_ _1685_ VDD VSS gf180mcu_fd_sc_mcu9t5v0__and2_2
X_2731_ _1683_ _1685_ _1686_ VDD VSS gf180mcu_fd_sc_mcu9t5v0__nand2_2
X_2732_ _2607_ _1687_ VDD VSS gf180mcu_fd_sc_mcu9t5v0__clkinv_2
X_2733_ _1681_ _1686_ _1687_ _1688_ VDD VSS gf180mcu_fd_sc_mcu9t5v0__aoi21_2
X_2734_ _1687_ _1681_ _1686_ _1689_ VDD VSS gf180mcu_fd_sc_mcu9t5v0__and3_2
X_2735_ _1688_ _1689_ _1690_ VDD VSS gf180mcu_fd_sc_mcu9t5v0__nor2_4
X_2736_ _2603_ _1655_ _1691_ VDD VSS gf180mcu_fd_sc_mcu9t5v0__xnor2_2
X_2737_ _1682_ _1615_ _1678_ _1635_ _1692_ VDD VSS gf180mcu_fd_sc_mcu9t5v0__oai211_4
X_2738_ _2524_ _1693_ VDD VSS gf180mcu_fd_sc_mcu9t5v0__clkinv_2
X_2739_ _2529_ _2528_ _2525_ _1694_ VDD VSS gf180mcu_fd_sc_mcu9t5v0__oai21_2
X_2740_ _2512_ _2519_ _2515_ _2522_ _1695_ VDD VSS gf180mcu_fd_sc_mcu9t5v0__nand4_2
X_2741_ _1693_ _1694_ _1695_ _1696_ VDD VSS gf180mcu_fd_sc_mcu9t5v0__aoi21_2
X_2742_ _1648_ _2515_ _1697_ VDD VSS gf180mcu_fd_sc_mcu9t5v0__nand2_2
X_2743_ _1648_ _2514_ _2511_ _1698_ VDD VSS gf180mcu_fd_sc_mcu9t5v0__aoi21_2
X_2744_ _1679_ _1697_ _1698_ _1699_ VDD VSS gf180mcu_fd_sc_mcu9t5v0__oai21_2
X_2745_ _1692_ _1696_ _1699_ _1700_ VDD VSS gf180mcu_fd_sc_mcu9t5v0__aoi21_4
X_2746_ _2508_ _2603_ _2607_ _2610_ _1701_ VDD VSS gf180mcu_fd_sc_mcu9t5v0__nand4_2
X_2747_ _2610_ _2507_ _2606_ _2609_ _1702_ VDD VSS gf180mcu_fd_sc_mcu9t5v0__aoi211_4
X_2748_ _2607_ _2606_ _2603_ _1703_ VDD VSS gf180mcu_fd_sc_mcu9t5v0__oai21_2
X_2749_ _2602_ _1704_ VDD VSS gf180mcu_fd_sc_mcu9t5v0__clkinv_2
X_2750_ _1700_ _1701_ _1702_ _1703_ _1704_ _1705_ VDD VSS
+ gf180mcu_fd_sc_mcu9t5v0__oai221_4
X_2751_ _2599_ _1705_ _1706_ VDD VSS gf180mcu_fd_sc_mcu9t5v0__xor2_4
X_2752_ _1674_ _1690_ _1691_ _1706_ _1707_ VDD VSS gf180mcu_fd_sc_mcu9t5v0__and4_4
X_2753_ _1672_ _1707_ _1708_ VDD VSS gf180mcu_fd_sc_mcu9t5v0__nand2_2
X_2754_ _2525_ _1641_ _1709_ VDD VSS gf180mcu_fd_sc_mcu9t5v0__and2_2
X_2755_ _2586_ _2593_ _2599_ _2603_ _1710_ VDD VSS gf180mcu_fd_sc_mcu9t5v0__and4_2
X_2756_ _2607_ _2610_ _1642_ _1710_ _1711_ VDD VSS gf180mcu_fd_sc_mcu9t5v0__and4_2
X_2757_ _1709_ _1711_ _1712_ VDD VSS gf180mcu_fd_sc_mcu9t5v0__nand2_2
X_2758_ net11 _2515_ _1713_ VDD VSS gf180mcu_fd_sc_mcu9t5v0__nand2_2
X_2759_ _2515_ _2518_ _2514_ _1714_ VDD VSS gf180mcu_fd_sc_mcu9t5v0__aoi21_2
X_2760_ _1647_ _1713_ _1714_ _1715_ VDD VSS gf180mcu_fd_sc_mcu9t5v0__oai21_4
X_2761_ _1715_ _1711_ _1716_ VDD VSS gf180mcu_fd_sc_mcu9t5v0__nand2_2
X_2762_ _2593_ _1717_ VDD VSS gf180mcu_fd_sc_mcu9t5v0__clkinv_2
X_2763_ _2592_ _1718_ VDD VSS gf180mcu_fd_sc_mcu9t5v0__clkinv_2
X_2764_ _1717_ _1654_ _1718_ _1719_ VDD VSS gf180mcu_fd_sc_mcu9t5v0__oai21_2
X_2765_ _1661_ _1667_ _1655_ _1720_ VDD VSS gf180mcu_fd_sc_mcu9t5v0__oai21_2
X_2766_ _2586_ _1719_ _1710_ _1720_ _2585_ _1721_ VDD VSS
+ gf180mcu_fd_sc_mcu9t5v0__aoi221_4
X_2767_ _1633_ _1712_ _1716_ _1721_ _1722_ VDD VSS gf180mcu_fd_sc_mcu9t5v0__oai211_4
X_2768_ _2577_ _1722_ _1723_ VDD VSS gf180mcu_fd_sc_mcu9t5v0__xor2_2
X_2769_ _2593_ _2599_ _2603_ _2607_ _1724_ VDD VSS gf180mcu_fd_sc_mcu9t5v0__and4_2
X_2770_ _2586_ _1724_ _1725_ VDD VSS gf180mcu_fd_sc_mcu9t5v0__and2_2
X_2771_ _2603_ _2606_ _2602_ _1726_ VDD VSS gf180mcu_fd_sc_mcu9t5v0__aoi21_2
X_2772_ _2593_ _2599_ _1727_ VDD VSS gf180mcu_fd_sc_mcu9t5v0__nand2_2
X_2773_ _2593_ _2598_ _1728_ VDD VSS gf180mcu_fd_sc_mcu9t5v0__nand2_2
X_2774_ _1726_ _1727_ _1728_ _1718_ _1729_ VDD VSS gf180mcu_fd_sc_mcu9t5v0__oai211_2
X_2775_ _1683_ _1685_ _1729_ _2586_ _1730_ VDD VSS gf180mcu_fd_sc_mcu9t5v0__aoi211_2
X_2776_ _1725_ _1730_ _1681_ _1731_ VDD VSS gf180mcu_fd_sc_mcu9t5v0__mux2_2
X_2777_ _2586_ _1724_ _1732_ VDD VSS gf180mcu_fd_sc_mcu9t5v0__nor2_2
X_2778_ _1732_ _2586_ _1729_ _1733_ VDD VSS gf180mcu_fd_sc_mcu9t5v0__mux2_2
X_2779_ _1683_ _1685_ _1725_ _1734_ VDD VSS gf180mcu_fd_sc_mcu9t5v0__and3_2
X_2780_ _1731_ _1733_ _1734_ _1735_ VDD VSS gf180mcu_fd_sc_mcu9t5v0__nor3_4
X_2781_ _1723_ _1735_ _1736_ VDD VSS gf180mcu_fd_sc_mcu9t5v0__nand2_2
X_2782_ _2532_ _1629_ _1605_ _1737_ VDD VSS gf180mcu_fd_sc_mcu9t5v0__and3_2
X_2783_ _1629_ _1605_ _2532_ _1738_ VDD VSS gf180mcu_fd_sc_mcu9t5v0__aoi21_4
X_2784_ _1636_ _1739_ VDD VSS gf180mcu_fd_sc_mcu9t5v0__clkinv_2
X_2785_ _2573_ _2569_ _2567_ _1740_ VDD VSS gf180mcu_fd_sc_mcu9t5v0__aoi21_4
X_2786_ _2558_ _2374_ _1741_ VDD VSS gf180mcu_fd_sc_mcu9t5v0__xor2_2
X_2787_ _2375_ _1740_ _1741_ _1742_ VDD VSS gf180mcu_fd_sc_mcu9t5v0__aoi21_4
X_2788_ _1617_ _1618_ _1742_ _1743_ VDD VSS gf180mcu_fd_sc_mcu9t5v0__nand3_2
X_2789_ _1737_ _1738_ _1739_ _1743_ _1744_ VDD VSS gf180mcu_fd_sc_mcu9t5v0__nor4_4
X_2790_ _1634_ _1744_ _1745_ VDD VSS gf180mcu_fd_sc_mcu9t5v0__and2_2
X_2791_ _2508_ _1700_ _1746_ VDD VSS gf180mcu_fd_sc_mcu9t5v0__xnor2_2
X_2792_ _1684_ _1683_ _1680_ _1747_ VDD VSS gf180mcu_fd_sc_mcu9t5v0__aoi21_2
X_2793_ _2515_ _1747_ _1748_ VDD VSS gf180mcu_fd_sc_mcu9t5v0__xor2_4
X_2794_ _1604_ _1665_ _1631_ _1647_ _1749_ VDD VSS gf180mcu_fd_sc_mcu9t5v0__oai211_4
X_2795_ _2525_ _1750_ VDD VSS gf180mcu_fd_sc_mcu9t5v0__clkinv_2
X_2796_ _2522_ _1751_ VDD VSS gf180mcu_fd_sc_mcu9t5v0__clkinv_2
X_2797_ _1750_ _1751_ _1647_ _1752_ VDD VSS gf180mcu_fd_sc_mcu9t5v0__oai21_2
X_2798_ net11 _1749_ _1752_ _1753_ VDD VSS gf180mcu_fd_sc_mcu9t5v0__and3_2
X_2799_ _1749_ _1752_ net11 _1754_ VDD VSS gf180mcu_fd_sc_mcu9t5v0__aoi21_4
X_2800_ _1693_ _1694_ _1755_ VDD VSS gf180mcu_fd_sc_mcu9t5v0__nand2_2
X_2801_ _1755_ _1692_ _1756_ VDD VSS gf180mcu_fd_sc_mcu9t5v0__nand2_2
X_2802_ _1751_ _1756_ _1757_ VDD VSS gf180mcu_fd_sc_mcu9t5v0__xnor2_2
X_2803_ _1757_ _1753_ _1754_ _1748_ _1758_ VDD VSS gf180mcu_fd_sc_mcu9t5v0__nor4_4
X_2804_ _1648_ net10 _1641_ _1759_ VDD VSS gf180mcu_fd_sc_mcu9t5v0__and3_2
X_2805_ _1648_ _1715_ _1759_ _1666_ _1760_ VDD VSS gf180mcu_fd_sc_mcu9t5v0__aoi22_2
X_2806_ net10 _1641_ _1761_ VDD VSS gf180mcu_fd_sc_mcu9t5v0__nand2_2
X_2807_ _1648_ _1715_ _1762_ VDD VSS gf180mcu_fd_sc_mcu9t5v0__nor2_2
X_2808_ _1633_ _1761_ _1762_ _1763_ VDD VSS gf180mcu_fd_sc_mcu9t5v0__oai21_2
X_2809_ _1634_ _1760_ _1763_ _1637_ _1764_ VDD VSS gf180mcu_fd_sc_mcu9t5v0__and4_4
X_2810_ _1764_ _1758_ _1746_ _1765_ VDD VSS gf180mcu_fd_sc_mcu9t5v0__and3_4
X_2811_ _1745_ net19 _1766_ VDD VSS gf180mcu_fd_sc_mcu9t5v0__nand2_2
X_2812_ _1708_ _1736_ _1766_ _1767_ VDD VSS gf180mcu_fd_sc_mcu9t5v0__or3_4
X_2813_ _1664_ _1671_ _1768_ VDD VSS gf180mcu_fd_sc_mcu9t5v0__and2_2
X_2814_ _1768_ _1736_ net19 _1706_ _1769_ VDD VSS gf180mcu_fd_sc_mcu9t5v0__oai31_2
X_2815_ _2508_ _1700_ _1770_ VDD VSS gf180mcu_fd_sc_mcu9t5v0__xor2_4
X_2816_ _1753_ _1748_ _1754_ _1757_ _1771_ VDD VSS gf180mcu_fd_sc_mcu9t5v0__or4_4
X_2817_ _2610_ _1673_ _1772_ VDD VSS gf180mcu_fd_sc_mcu9t5v0__xor2_2
X_2818_ _1691_ _1773_ VDD VSS gf180mcu_fd_sc_mcu9t5v0__clkinv_2
X_2819_ _1688_ _1689_ _1773_ _1774_ VDD VSS gf180mcu_fd_sc_mcu9t5v0__or3_2
X_2820_ _1774_ _1771_ _1772_ _1770_ _1775_ VDD VSS gf180mcu_fd_sc_mcu9t5v0__nor4_4
X_2821_ _1634_ _1744_ _1760_ _1763_ _1776_ VDD VSS gf180mcu_fd_sc_mcu9t5v0__and4_2
X_2822_ _1775_ _1776_ _1777_ VDD VSS gf180mcu_fd_sc_mcu9t5v0__and2_2
X_2823_ _1706_ _1769_ _1777_ _1778_ VDD VSS gf180mcu_fd_sc_mcu9t5v0__mux2_2
X_2824_ _1674_ _1690_ _1779_ VDD VSS gf180mcu_fd_sc_mcu9t5v0__and2_2
X_2825_ _1779_ _1765_ _1780_ VDD VSS gf180mcu_fd_sc_mcu9t5v0__and2_2
X_2826_ _1661_ _1673_ _1655_ _1781_ VDD VSS gf180mcu_fd_sc_mcu9t5v0__oai21_2
X_2827_ _2603_ _1781_ _1782_ VDD VSS gf180mcu_fd_sc_mcu9t5v0__xor2_2
X_2828_ _1780_ _1782_ _1783_ VDD VSS gf180mcu_fd_sc_mcu9t5v0__xnor2_4
X_2829_ net140 _1690_ _1784_ VDD VSS gf180mcu_fd_sc_mcu9t5v0__nor2_2
X_2830_ net125 _1776_ _1785_ VDD VSS gf180mcu_fd_sc_mcu9t5v0__nand2_2
X_2831_ _1770_ _1784_ _1785_ _1786_ VDD VSS gf180mcu_fd_sc_mcu9t5v0__nand3_2
X_2832_ _1634_ _1637_ _1787_ VDD VSS gf180mcu_fd_sc_mcu9t5v0__and2_2
X_2833_ net140 _1690_ _1787_ _1788_ VDD VSS gf180mcu_fd_sc_mcu9t5v0__and3_2
X_2834_ net140 _1690_ _1787_ _1789_ VDD VSS gf180mcu_fd_sc_mcu9t5v0__nor3_2
X_2835_ _1746_ _1758_ _1776_ _1790_ VDD VSS gf180mcu_fd_sc_mcu9t5v0__and3_2
X_2836_ _1788_ _1789_ _1790_ _1791_ VDD VSS gf180mcu_fd_sc_mcu9t5v0__oai21_2
X_2837_ _1750_ _1633_ _1792_ VDD VSS gf180mcu_fd_sc_mcu9t5v0__xnor2_2
X_2838_ _1737_ _1738_ _1739_ _1743_ _1793_ VDD VSS gf180mcu_fd_sc_mcu9t5v0__or4_2
X_2839_ _1792_ _1793_ _1757_ _1794_ VDD VSS gf180mcu_fd_sc_mcu9t5v0__oai21_2
X_2840_ _1612_ _1613_ _1795_ VDD VSS gf180mcu_fd_sc_mcu9t5v0__and2_2
X_2841_ _1795_ _1757_ _1792_ _1793_ _1796_ VDD VSS gf180mcu_fd_sc_mcu9t5v0__or4_2
X_2842_ _1648_ net10 _1641_ _1797_ VDD VSS gf180mcu_fd_sc_mcu9t5v0__nand3_2
X_2843_ _1648_ _1715_ _1798_ VDD VSS gf180mcu_fd_sc_mcu9t5v0__nand2_2
X_2844_ _1633_ _1797_ _1798_ _1799_ VDD VSS gf180mcu_fd_sc_mcu9t5v0__oai21_2
X_2845_ _1666_ _1709_ _1715_ _1648_ _1800_ VDD VSS gf180mcu_fd_sc_mcu9t5v0__aoi211_4
X_2846_ _1799_ _1800_ _1748_ _1801_ VDD VSS gf180mcu_fd_sc_mcu9t5v0__oai21_2
X_2847_ _1753_ _1754_ _1802_ VDD VSS gf180mcu_fd_sc_mcu9t5v0__nor2_2
X_2848_ _1794_ _1796_ _1801_ _1802_ _1803_ VDD VSS gf180mcu_fd_sc_mcu9t5v0__aoi211_4
X_2849_ net125 _1776_ _1787_ _1804_ VDD VSS gf180mcu_fd_sc_mcu9t5v0__and3_2
X_2850_ _1610_ _1740_ _1805_ VDD VSS gf180mcu_fd_sc_mcu9t5v0__xnor2_4
X_2851_ _2573_ _2569_ _1806_ VDD VSS gf180mcu_fd_sc_mcu9t5v0__xnor2_2
X_2852_ _1805_ _1806_ _1807_ VDD VSS gf180mcu_fd_sc_mcu9t5v0__and2_2
X_2853_ _1737_ _1738_ _1743_ _1808_ VDD VSS gf180mcu_fd_sc_mcu9t5v0__or3_2
X_2854_ _2529_ _1683_ _1808_ _1809_ VDD VSS gf180mcu_fd_sc_mcu9t5v0__xor3_2
X_2855_ _1610_ _2567_ _1611_ _1810_ VDD VSS gf180mcu_fd_sc_mcu9t5v0__nor3_2
X_2856_ _1810_ _1617_ _1618_ _1742_ _1811_ VDD VSS gf180mcu_fd_sc_mcu9t5v0__and4_2
X_2857_ _1617_ _1618_ _1742_ _1812_ VDD VSS gf180mcu_fd_sc_mcu9t5v0__aoi21_2
X_2858_ _1737_ _1738_ _1811_ _1812_ _1813_ VDD VSS gf180mcu_fd_sc_mcu9t5v0__oai22_2
X_2859_ _1737_ _1738_ _1810_ _1743_ _1814_ VDD VSS gf180mcu_fd_sc_mcu9t5v0__or4_2
X_2860_ _1613_ _1624_ _1815_ VDD VSS gf180mcu_fd_sc_mcu9t5v0__nand2_4
X_2861_ _1813_ _1814_ _1815_ _1816_ VDD VSS gf180mcu_fd_sc_mcu9t5v0__aoi21_2
X_2862_ _1807_ _1809_ _1816_ _1639_ _1817_ VDD VSS gf180mcu_fd_sc_mcu9t5v0__and4_4
X_2863_ _1803_ _1804_ _1817_ _1818_ VDD VSS gf180mcu_fd_sc_mcu9t5v0__oai21_4
X_2864_ _1786_ _1791_ _1818_ _1819_ VDD VSS gf180mcu_fd_sc_mcu9t5v0__aoi21_2
X_2865_ _1770_ _1771_ _1772_ _1774_ _1820_ VDD VSS gf180mcu_fd_sc_mcu9t5v0__or4_2
X_2866_ _1658_ _1663_ _1821_ VDD VSS gf180mcu_fd_sc_mcu9t5v0__nand2_2
X_2867_ _2593_ _1660_ _1669_ _1670_ _1822_ VDD VSS gf180mcu_fd_sc_mcu9t5v0__nor4_2
X_2868_ _1821_ _1822_ _1706_ _1823_ VDD VSS gf180mcu_fd_sc_mcu9t5v0__oai21_2
X_2869_ _1776_ _1764_ _1824_ VDD VSS gf180mcu_fd_sc_mcu9t5v0__nor2_2
X_2870_ _1723_ _1735_ _1825_ VDD VSS gf180mcu_fd_sc_mcu9t5v0__and2_2
X_2871_ _1820_ _1823_ _1824_ _1825_ _1826_ VDD VSS gf180mcu_fd_sc_mcu9t5v0__oai31_4
X_2872_ _2577_ _1722_ _1827_ VDD VSS gf180mcu_fd_sc_mcu9t5v0__xnor2_2
X_2873_ _1792_ _1793_ _1799_ _1800_ _1828_ VDD VSS gf180mcu_fd_sc_mcu9t5v0__or4_4
X_2874_ _1827_ _1828_ _1735_ _1764_ _1829_ VDD VSS gf180mcu_fd_sc_mcu9t5v0__and4_2
X_2875_ _1827_ _1828_ _1735_ _1830_ VDD VSS gf180mcu_fd_sc_mcu9t5v0__nor3_2
X_2876_ _2599_ _1705_ _1831_ VDD VSS gf180mcu_fd_sc_mcu9t5v0__xnor2_2
X_2877_ _1664_ _1671_ _1831_ _1832_ VDD VSS gf180mcu_fd_sc_mcu9t5v0__aoi21_2
X_2878_ _1829_ _1830_ _1775_ _1832_ _1833_ VDD VSS gf180mcu_fd_sc_mcu9t5v0__oai211_4
X_2879_ _1826_ _1833_ _1834_ VDD VSS gf180mcu_fd_sc_mcu9t5v0__nand2_4
X_2880_ _1834_ _1835_ VDD VSS gf180mcu_fd_sc_mcu9t5v0__buf_8
X_2881_ _1783_ _1819_ _1835_ _1836_ VDD VSS gf180mcu_fd_sc_mcu9t5v0__oai21_2
X_2882_ _1778_ _1836_ _1837_ VDD VSS gf180mcu_fd_sc_mcu9t5v0__nand2_2
X_2883_ _1831_ _1775_ _1828_ _1764_ _1838_ VDD VSS gf180mcu_fd_sc_mcu9t5v0__and4_4
X_2884_ _1779_ _1765_ _1782_ _1706_ _1839_ VDD VSS gf180mcu_fd_sc_mcu9t5v0__aoi211_4
X_2885_ _1707_ _1745_ _1765_ _1840_ VDD VSS gf180mcu_fd_sc_mcu9t5v0__and3_4
X_2886_ _1838_ _1839_ _1840_ _1841_ VDD VSS gf180mcu_fd_sc_mcu9t5v0__or3_4
X_2887_ _1707_ _1842_ VDD VSS gf180mcu_fd_sc_mcu9t5v0__clkinv_2
X_2888_ _1746_ net125 _1776_ _1843_ VDD VSS gf180mcu_fd_sc_mcu9t5v0__and3_2
X_2889_ net9 _1637_ _1844_ VDD VSS gf180mcu_fd_sc_mcu9t5v0__nand2_2
X_2890_ _1723_ _1735_ _1844_ _1845_ VDD VSS gf180mcu_fd_sc_mcu9t5v0__and3_2
X_2891_ _1843_ _1845_ net19 _1846_ VDD VSS gf180mcu_fd_sc_mcu9t5v0__aoi21_2
X_2892_ _1842_ _1846_ _1672_ _1847_ VDD VSS gf180mcu_fd_sc_mcu9t5v0__oai21_4
X_2893_ _1768_ _1707_ _1765_ _1848_ VDD VSS gf180mcu_fd_sc_mcu9t5v0__and3_4
X_2894_ _1848_ _1849_ VDD VSS gf180mcu_fd_sc_mcu9t5v0__clkinv_2
X_2895_ _1833_ _1826_ _1850_ VDD VSS gf180mcu_fd_sc_mcu9t5v0__and2_4
X_2896_ _1847_ _1849_ _1850_ _1851_ VDD VSS gf180mcu_fd_sc_mcu9t5v0__aoi21_4
X_2897_ _1841_ _1851_ _1852_ VDD VSS gf180mcu_fd_sc_mcu9t5v0__nand2_2
X_2898_ _1850_ _1783_ _1853_ VDD VSS gf180mcu_fd_sc_mcu9t5v0__or2_2
X_2899_ _1786_ _1791_ _1854_ VDD VSS gf180mcu_fd_sc_mcu9t5v0__and2_2
X_2900_ _1778_ _1854_ _1818_ _1855_ VDD VSS gf180mcu_fd_sc_mcu9t5v0__or3_2
X_2901_ _1853_ _1855_ _1856_ VDD VSS gf180mcu_fd_sc_mcu9t5v0__or2_2
X_2902_ _1767_ _1837_ _1852_ _1856_ _1857_ VDD VSS gf180mcu_fd_sc_mcu9t5v0__nand4_4
X_2903_ _1840_ _1839_ _1838_ _1858_ VDD VSS gf180mcu_fd_sc_mcu9t5v0__nor3_4
X_2904_ _1770_ _1771_ _1828_ _1859_ VDD VSS gf180mcu_fd_sc_mcu9t5v0__or3_2
X_2905_ _1746_ _1758_ _1764_ _1860_ VDD VSS gf180mcu_fd_sc_mcu9t5v0__nand3_2
X_2906_ _1787_ _1736_ _1859_ _1860_ _1861_ VDD VSS gf180mcu_fd_sc_mcu9t5v0__oai31_4
X_2907_ _1861_ _1707_ _1768_ _1862_ VDD VSS gf180mcu_fd_sc_mcu9t5v0__aoi21_4
X_2908_ _1862_ _1858_ _1848_ _1863_ VDD VSS gf180mcu_fd_sc_mcu9t5v0__or3_4
X_2909_ _1708_ _1736_ _1860_ _1864_ VDD VSS gf180mcu_fd_sc_mcu9t5v0__or3_2
X_2910_ _1770_ _1785_ _1865_ VDD VSS gf180mcu_fd_sc_mcu9t5v0__and2_2
X_2911_ _1790_ _1864_ _1865_ _1866_ VDD VSS gf180mcu_fd_sc_mcu9t5v0__aoi21_2
X_2912_ _1772_ net19 _1867_ VDD VSS gf180mcu_fd_sc_mcu9t5v0__xnor2_4
X_2913_ _1765_ _1674_ _1868_ VDD VSS gf180mcu_fd_sc_mcu9t5v0__xnor2_4
X_2914_ _1770_ _1785_ _1869_ VDD VSS gf180mcu_fd_sc_mcu9t5v0__xnor2_2
X_2915_ _1868_ _1869_ _1870_ VDD VSS gf180mcu_fd_sc_mcu9t5v0__nand2_4
X_2916_ _1746_ _1758_ _1745_ _1764_ _1871_ VDD VSS gf180mcu_fd_sc_mcu9t5v0__and4_2
X_2917_ _1707_ _1672_ _1825_ _1871_ _1872_ VDD VSS gf180mcu_fd_sc_mcu9t5v0__nand4_4
X_2918_ _1826_ _1872_ _1833_ _1873_ VDD VSS gf180mcu_fd_sc_mcu9t5v0__and3_4
X_2919_ _1873_ _1818_ _1874_ VDD VSS gf180mcu_fd_sc_mcu9t5v0__nor2_2
X_2920_ _1866_ _1863_ _1867_ _1870_ _1874_ _1875_ VDD VSS
+ gf180mcu_fd_sc_mcu9t5v0__oai32_4
X_2921_ _1794_ _1796_ _1876_ VDD VSS gf180mcu_fd_sc_mcu9t5v0__and2_2
X_2922_ _1802_ _1876_ _1801_ _1877_ VDD VSS gf180mcu_fd_sc_mcu9t5v0__or3_2
X_2923_ _1770_ _1787_ _1878_ VDD VSS gf180mcu_fd_sc_mcu9t5v0__nand2_2
X_2924_ _1877_ _1878_ _1867_ _1865_ _1879_ VDD VSS gf180mcu_fd_sc_mcu9t5v0__aoi211_2
X_2925_ _1863_ _1835_ _1817_ _1879_ _1880_ VDD VSS gf180mcu_fd_sc_mcu9t5v0__and4_4
X_2926_ _1875_ _1880_ _1881_ VDD VSS gf180mcu_fd_sc_mcu9t5v0__nor2_2
X_2927_ _1834_ _1783_ _1872_ _1882_ VDD VSS gf180mcu_fd_sc_mcu9t5v0__oai21_4
X_2928_ _1835_ _1783_ _1883_ VDD VSS gf180mcu_fd_sc_mcu9t5v0__and2_2
X_2929_ net5 _1883_ _1884_ VDD VSS gf180mcu_fd_sc_mcu9t5v0__and2_2
X_2930_ _1882_ _1884_ _1885_ VDD VSS gf180mcu_fd_sc_mcu9t5v0__or2_4
X_2931_ _1672_ _1775_ _1706_ _1776_ _1886_ VDD VSS gf180mcu_fd_sc_mcu9t5v0__and4_2
X_2932_ _1735_ _1886_ _1887_ VDD VSS gf180mcu_fd_sc_mcu9t5v0__xor2_2
X_2933_ _1862_ _1848_ _1887_ _1888_ VDD VSS gf180mcu_fd_sc_mcu9t5v0__oai21_4
X_2934_ _1746_ net125 net140 _1776_ _1889_ VDD VSS gf180mcu_fd_sc_mcu9t5v0__and4_2
X_2935_ _1690_ _1889_ _1890_ VDD VSS gf180mcu_fd_sc_mcu9t5v0__xnor2_2
X_2936_ _1835_ _1888_ _1890_ _1891_ VDD VSS gf180mcu_fd_sc_mcu9t5v0__or3_2
X_2937_ _1885_ _1881_ _1857_ _1891_ _1892_ VDD VSS gf180mcu_fd_sc_mcu9t5v0__nor4_4
X_2938_ _1622_ _1835_ _1893_ VDD VSS gf180mcu_fd_sc_mcu9t5v0__and2_2
X_2939_ _1621_ _2571_ _1894_ VDD VSS gf180mcu_fd_sc_mcu9t5v0__nand2_4
X_2940_ _1753_ _1754_ _1895_ VDD VSS gf180mcu_fd_sc_mcu9t5v0__or2_2
X_2941_ _2522_ _1756_ _1896_ VDD VSS gf180mcu_fd_sc_mcu9t5v0__xnor2_2
X_2942_ _1896_ net9 _1637_ _1897_ VDD VSS gf180mcu_fd_sc_mcu9t5v0__nand3_2
X_2943_ _1748_ _1895_ _1897_ _1735_ _1898_ VDD VSS gf180mcu_fd_sc_mcu9t5v0__oai31_2
X_2944_ _1621_ _2571_ _1827_ _1828_ _1899_ VDD VSS gf180mcu_fd_sc_mcu9t5v0__or4_2
X_2945_ _1820_ _1823_ _1898_ _1899_ _1900_ VDD VSS gf180mcu_fd_sc_mcu9t5v0__or4_4
X_2946_ _1807_ _1900_ _1901_ VDD VSS gf180mcu_fd_sc_mcu9t5v0__and2_2
X_2947_ _1894_ _1872_ _1901_ _1902_ VDD VSS gf180mcu_fd_sc_mcu9t5v0__oai21_2
X_2948_ _1893_ net76 _1902_ _1903_ VDD VSS gf180mcu_fd_sc_mcu9t5v0__aoi21_4
X_2949_ _1858_ _1862_ _1848_ _1834_ _1904_ VDD VSS gf180mcu_fd_sc_mcu9t5v0__oai31_4
X_2950_ _2569_ _1905_ VDD VSS gf180mcu_fd_sc_mcu9t5v0__clkinv_4
X_2951_ _2375_ _1740_ _1906_ VDD VSS gf180mcu_fd_sc_mcu9t5v0__xnor2_2
X_2952_ _1905_ _1894_ _1906_ _1907_ VDD VSS gf180mcu_fd_sc_mcu9t5v0__or3_2
X_2953_ _1904_ _1767_ _1907_ _1908_ VDD VSS gf180mcu_fd_sc_mcu9t5v0__aoi21_4
X_2954_ _1625_ _1807_ _1909_ VDD VSS gf180mcu_fd_sc_mcu9t5v0__and2_2
X_2955_ _1909_ _1835_ _1910_ VDD VSS gf180mcu_fd_sc_mcu9t5v0__and2_2
X_2956_ _1807_ _1900_ _1911_ VDD VSS gf180mcu_fd_sc_mcu9t5v0__nand2_2
X_2957_ _1617_ _1618_ _1912_ VDD VSS gf180mcu_fd_sc_mcu9t5v0__and2_2
X_2958_ _1912_ _1742_ _1913_ VDD VSS gf180mcu_fd_sc_mcu9t5v0__xnor2_2
X_2959_ _1815_ _1911_ _1872_ _1913_ _1914_ VDD VSS gf180mcu_fd_sc_mcu9t5v0__oai31_2
X_2960_ net5 _1910_ _1914_ _1915_ VDD VSS gf180mcu_fd_sc_mcu9t5v0__aoi21_4
X_2961_ _1625_ _1807_ _1916_ VDD VSS gf180mcu_fd_sc_mcu9t5v0__nand2_2
X_2962_ _1767_ _1904_ _1913_ _1916_ _1917_ VDD VSS gf180mcu_fd_sc_mcu9t5v0__aoi211_4
X_2963_ _1908_ _1903_ _1917_ _1915_ _1918_ VDD VSS gf180mcu_fd_sc_mcu9t5v0__oai22_4
X_2964_ _1760_ _1763_ _1919_ VDD VSS gf180mcu_fd_sc_mcu9t5v0__and2_2
X_2965_ _1748_ _1895_ _1897_ _1920_ VDD VSS gf180mcu_fd_sc_mcu9t5v0__or3_2
X_2966_ _1919_ _1920_ _1921_ VDD VSS gf180mcu_fd_sc_mcu9t5v0__xnor2_4
X_2967_ _2515_ _1747_ _1922_ VDD VSS gf180mcu_fd_sc_mcu9t5v0__xnor2_2
X_2968_ _1896_ net9 _1744_ _1923_ VDD VSS gf180mcu_fd_sc_mcu9t5v0__and3_2
X_2969_ _1802_ _1923_ _1924_ VDD VSS gf180mcu_fd_sc_mcu9t5v0__and2_2
X_2970_ _1922_ _1924_ _1925_ VDD VSS gf180mcu_fd_sc_mcu9t5v0__xnor2_2
X_2971_ _1925_ _1767_ _1904_ _1926_ VDD VSS gf180mcu_fd_sc_mcu9t5v0__and3_4
X_2972_ _1841_ _1847_ _1849_ _1927_ VDD VSS gf180mcu_fd_sc_mcu9t5v0__and3_2
X_2973_ _1813_ _1814_ _1928_ VDD VSS gf180mcu_fd_sc_mcu9t5v0__nand2_2
X_2974_ _1909_ _1928_ _1809_ _1639_ _1929_ VDD VSS gf180mcu_fd_sc_mcu9t5v0__and4_2
X_2975_ _1895_ _1897_ _1930_ VDD VSS gf180mcu_fd_sc_mcu9t5v0__xnor2_2
X_2976_ _1930_ _1931_ VDD VSS gf180mcu_fd_sc_mcu9t5v0__buf_8
X_2977_ _1929_ _1931_ _1932_ VDD VSS gf180mcu_fd_sc_mcu9t5v0__nand2_2
X_2978_ net9 _1744_ _1896_ _1933_ VDD VSS gf180mcu_fd_sc_mcu9t5v0__aoi21_2
X_2979_ _1895_ _1923_ _1933_ _1748_ _1934_ VDD VSS gf180mcu_fd_sc_mcu9t5v0__aoi211_2
X_2980_ _1922_ _1924_ _1935_ VDD VSS gf180mcu_fd_sc_mcu9t5v0__nor2_2
X_2981_ _1850_ _1932_ _1934_ _1935_ _1936_ VDD VSS gf180mcu_fd_sc_mcu9t5v0__or4_2
X_2982_ _1933_ _1923_ _1937_ VDD VSS gf180mcu_fd_sc_mcu9t5v0__nor2_2
X_2983_ _1937_ _1932_ _1925_ _1938_ VDD VSS gf180mcu_fd_sc_mcu9t5v0__oai21_2
X_2984_ _1927_ _1936_ _1938_ _1939_ VDD VSS gf180mcu_fd_sc_mcu9t5v0__oai21_4
X_2985_ _1933_ _1923_ _1940_ VDD VSS gf180mcu_fd_sc_mcu9t5v0__or2_2
X_2986_ _1929_ _1940_ _1941_ VDD VSS gf180mcu_fd_sc_mcu9t5v0__nand2_2
X_2987_ _1826_ _1833_ _1941_ _1942_ VDD VSS gf180mcu_fd_sc_mcu9t5v0__aoi21_2
X_2988_ _1858_ _1862_ _1848_ _1942_ _1943_ VDD VSS gf180mcu_fd_sc_mcu9t5v0__oai31_2
X_2989_ _1858_ _1862_ _1848_ _1940_ _1944_ VDD VSS gf180mcu_fd_sc_mcu9t5v0__or4_2
X_2990_ _1872_ _1941_ _1945_ VDD VSS gf180mcu_fd_sc_mcu9t5v0__nor2_2
X_2991_ _1929_ _1940_ _1946_ VDD VSS gf180mcu_fd_sc_mcu9t5v0__nor2_2
X_2992_ _1850_ _1937_ _1945_ _1946_ _1947_ VDD VSS gf180mcu_fd_sc_mcu9t5v0__aoi211_4
X_2993_ _1943_ _1944_ _1947_ _1948_ VDD VSS gf180mcu_fd_sc_mcu9t5v0__and3_4
X_2994_ _1926_ _1939_ _1948_ _1949_ VDD VSS gf180mcu_fd_sc_mcu9t5v0__oai21_2
X_2995_ _1809_ _1872_ _1950_ VDD VSS gf180mcu_fd_sc_mcu9t5v0__nand2_2
X_2996_ _1928_ _1951_ VDD VSS gf180mcu_fd_sc_mcu9t5v0__clkinv_2
X_2997_ _1916_ _1951_ _1809_ _1952_ VDD VSS gf180mcu_fd_sc_mcu9t5v0__or3_2
X_2998_ _1826_ _1833_ _1952_ _1953_ VDD VSS gf180mcu_fd_sc_mcu9t5v0__aoi21_2
X_2999_ _1858_ _1862_ _1848_ _1953_ _1954_ VDD VSS gf180mcu_fd_sc_mcu9t5v0__oai31_2
X_3000_ _1625_ _1928_ _1955_ VDD VSS gf180mcu_fd_sc_mcu9t5v0__nand2_2
X_3001_ _1911_ _1955_ _1873_ _1809_ _1956_ VDD VSS gf180mcu_fd_sc_mcu9t5v0__oai31_2
X_3002_ net5 _1950_ _1954_ _1956_ _1957_ VDD VSS gf180mcu_fd_sc_mcu9t5v0__oai211_4
X_3003_ _1626_ _1639_ _1958_ VDD VSS gf180mcu_fd_sc_mcu9t5v0__and2_4
X_3004_ _1931_ _1958_ _1959_ VDD VSS gf180mcu_fd_sc_mcu9t5v0__and2_4
X_3005_ _1957_ _1959_ _1960_ VDD VSS gf180mcu_fd_sc_mcu9t5v0__nand2_4
X_3006_ _1918_ _1921_ _1949_ _1960_ _1961_ VDD VSS gf180mcu_fd_sc_mcu9t5v0__or4_4
X_3007_ net76 _1950_ _1962_ VDD VSS gf180mcu_fd_sc_mcu9t5v0__or2_2
X_3008_ _1962_ _1954_ _1956_ _1963_ VDD VSS gf180mcu_fd_sc_mcu9t5v0__and3_4
X_3009_ _1835_ _1888_ _1882_ _1890_ _1964_ VDD VSS gf180mcu_fd_sc_mcu9t5v0__nor4_2
X_3010_ _1609_ _1619_ _1965_ VDD VSS gf180mcu_fd_sc_mcu9t5v0__xor2_4
X_3011_ _1612_ _1613_ _1966_ VDD VSS gf180mcu_fd_sc_mcu9t5v0__xnor2_4
X_3012_ _2505_ _1967_ VDD VSS gf180mcu_fd_sc_mcu9t5v0__clkinv_2
X_3013_ net40 net23 _1967_ _2572_ _1968_ VDD VSS gf180mcu_fd_sc_mcu9t5v0__aoi211_4
X_3014_ _1623_ _1968_ _1969_ VDD VSS gf180mcu_fd_sc_mcu9t5v0__and2_2
X_3015_ _1966_ _1969_ _1970_ VDD VSS gf180mcu_fd_sc_mcu9t5v0__nand2_4
X_3016_ _1965_ _1970_ _1971_ VDD VSS gf180mcu_fd_sc_mcu9t5v0__nor2_4
X_3017_ _1639_ _1930_ _1972_ VDD VSS gf180mcu_fd_sc_mcu9t5v0__and2_2
X_3018_ _1971_ _1972_ _1973_ VDD VSS gf180mcu_fd_sc_mcu9t5v0__and2_2
X_3019_ _1919_ _1920_ _1974_ VDD VSS gf180mcu_fd_sc_mcu9t5v0__xor2_4
X_3020_ _1973_ _1974_ _1940_ _1925_ _1975_ VDD VSS gf180mcu_fd_sc_mcu9t5v0__and4_2
X_3021_ _1875_ _1880_ _1964_ _1975_ _1976_ VDD VSS gf180mcu_fd_sc_mcu9t5v0__oai211_2
X_3022_ _1672_ _1707_ _1825_ _1871_ _1977_ VDD VSS gf180mcu_fd_sc_mcu9t5v0__and4_2
X_3023_ _1778_ _1836_ _1851_ _1841_ _1977_ _1978_ VDD VSS
+ gf180mcu_fd_sc_mcu9t5v0__aoi221_2
X_3024_ _1835_ _1978_ _1888_ _1979_ VDD VSS gf180mcu_fd_sc_mcu9t5v0__or3_2
X_3025_ _1918_ _1976_ _1963_ _1979_ _1980_ VDD VSS gf180mcu_fd_sc_mcu9t5v0__oai31_4
X_3026_ _1827_ _1898_ _1981_ VDD VSS gf180mcu_fd_sc_mcu9t5v0__nor2_2
X_3027_ _1672_ _1707_ _1735_ net19 _1982_ VDD VSS gf180mcu_fd_sc_mcu9t5v0__and4_2
X_3028_ _1723_ _1982_ _1983_ VDD VSS gf180mcu_fd_sc_mcu9t5v0__xnor2_2
X_3029_ _1886_ _1981_ _1983_ _1984_ VDD VSS gf180mcu_fd_sc_mcu9t5v0__aoi21_2
X_3030_ _1904_ _1984_ _1985_ VDD VSS gf180mcu_fd_sc_mcu9t5v0__nand2_2
X_3031_ _1847_ _1849_ _1986_ VDD VSS gf180mcu_fd_sc_mcu9t5v0__nand2_2
X_3032_ _1855_ _1841_ _1986_ _1850_ _1987_ VDD VSS gf180mcu_fd_sc_mcu9t5v0__or4_4
X_3033_ _1985_ _1987_ _1988_ VDD VSS gf180mcu_fd_sc_mcu9t5v0__and2_4
X_3034_ _1835_ _1888_ _1989_ VDD VSS gf180mcu_fd_sc_mcu9t5v0__nor2_4
X_3035_ _1837_ _1989_ _1990_ VDD VSS gf180mcu_fd_sc_mcu9t5v0__nand2_2
X_3036_ _1850_ _1818_ _1870_ _1890_ _1991_ VDD VSS gf180mcu_fd_sc_mcu9t5v0__or4_2
X_3037_ _1873_ _1818_ _1870_ _1890_ _1992_ VDD VSS gf180mcu_fd_sc_mcu9t5v0__oai31_4
X_3038_ _1872_ _1890_ _1993_ VDD VSS gf180mcu_fd_sc_mcu9t5v0__nand2_2
X_3039_ _1858_ _1862_ _1848_ _1993_ _1994_ VDD VSS gf180mcu_fd_sc_mcu9t5v0__or4_2
X_3040_ _1927_ _1991_ _1992_ _1994_ _1995_ VDD VSS gf180mcu_fd_sc_mcu9t5v0__oai211_4
X_3041_ _1880_ _1875_ _1995_ _1996_ VDD VSS gf180mcu_fd_sc_mcu9t5v0__or3_4