
* cell parameterized_freq_divider
* pin duty_cycle[6]
* pin duty_cycle[4]
* pin duty_cycle[5]
* pin divide_value[15]
* pin divide_value[14]
* pin duty_cycle[2]
* pin divide_value[13]
* pin duty_cycle[3]
* pin divide_value[12]
* pin duty_cycle[1]
* pin divide_value[9]
* pin divide_value[4]
* pin divide_value[10]
* pin divide_value[11]
* pin divide_value[1]
* pin duty_cycle[0]
* pin divide_value[8]
* pin divide_value[5]
* pin divide_value[0]
* pin divide_value[7]
* pin divide_value[2]
* pin divide_value[3]
* pin divide_value[6]
* pin clk_in
* pin rst_n
* pin enable
* pin clk_out
* pin NWELL
* pin PWELL,gf180mcu_gnd
.SUBCKT parameterized_freq_divider 1 2 3 24 25 26 49 50 51 52 53 95 96 97 98 99
+ 100 101 102 103 243 244 284 1278 2834 2836 2837 2838 2839
* net 1 duty_cycle[6]
* net 2 duty_cycle[4]
* net 3 duty_cycle[5]
* net 24 divide_value[15]
* net 25 divide_value[14]
* net 26 duty_cycle[2]
* net 49 divide_value[13]
* net 50 duty_cycle[3]
* net 51 divide_value[12]
* net 52 duty_cycle[1]
* net 53 divide_value[9]
* net 95 divide_value[4]
* net 96 divide_value[10]
* net 97 divide_value[11]
* net 98 divide_value[1]
* net 99 duty_cycle[0]
* net 100 divide_value[8]
* net 101 divide_value[5]
* net 102 divide_value[0]
* net 103 divide_value[7]
* net 243 divide_value[2]
* net 244 divide_value[3]
* net 284 divide_value[6]
* net 1278 clk_in
* net 2834 rst_n
* net 2836 enable
* net 2837 clk_out
* net 2838 NWELL
* net 2839 PWELL,gf180mcu_gnd
* cell instance $2 r0 *1 15.68,2162.16
X$2 2839 2838 1 14 gf180mcu_fd_sc_mcu9t5v0__buf_4
* cell instance $6 m0 *1 17.36,2172.24
X$6 2839 2838 2 15 gf180mcu_fd_sc_mcu9t5v0__buf_4
* cell instance $9 m0 *1 25.76,2172.24
X$9 2839 2838 3 10 gf180mcu_fd_sc_mcu9t5v0__buf_4
* cell instance $26 m0 *1 100.24,2182.32
X$26 2839 2838 4 19 13 gf180mcu_fd_sc_mcu9t5v0__nand2_2
* cell instance $28 m0 *1 91.84,2182.32
X$28 2838 4 27 2839 5 gf180mcu_fd_sc_mcu9t5v0__and2_2
* cell instance $31 r0 *1 30.8,2252.88
X$31 2838 4 131 2839 285 gf180mcu_fd_sc_mcu9t5v0__and2_2
* cell instance $34 r0 *1 12.88,2293.2
X$34 2839 2838 4 523 494 gf180mcu_fd_sc_mcu9t5v0__nand2_2
* cell instance $36 r0 *1 16.24,2273.04
X$36 2838 4 107 2839 425 gf180mcu_fd_sc_mcu9t5v0__and2_2
* cell instance $38 r0 *1 5.6,2283.12
X$38 2838 4 439 2839 480 gf180mcu_fd_sc_mcu9t5v0__and2_2
* cell instance $40 m0 *1 16.8,2222.64
X$40 2838 4 146 2839 132 gf180mcu_fd_sc_mcu9t5v0__and2_2
* cell instance $42 m0 *1 18.48,2212.56
X$42 2838 4 108 2839 75 gf180mcu_fd_sc_mcu9t5v0__and2_2
* cell instance $44 m0 *1 11.76,2242.8
X$44 2838 4 196 2839 246 gf180mcu_fd_sc_mcu9t5v0__and2_2
* cell instance $46 m0 *1 63.28,2202.48
X$46 2838 4 54 2839 63 gf180mcu_fd_sc_mcu9t5v0__and2_2
* cell instance $48 m0 *1 34.16,2202.48
X$48 2839 59 4 2838 gf180mcu_fd_sc_mcu9t5v0__buf_8
* cell instance $52 r0 *1 91.28,2172.24
X$52 16 2839 2838 5 30 42 gf180mcu_fd_sc_mcu9t5v0__addh_1
* cell instance $54 m0 *1 111.44,2192.4
X$54 2839 6 34 88 21 35 2838 gf180mcu_fd_sc_mcu9t5v0__addf_1
* cell instance $56 r0 *1 112,2172.24
X$56 2839 19 6 7 17 20 2838 gf180mcu_fd_sc_mcu9t5v0__addf_1
* cell instance $58 m0 *1 130.48,2182.32
X$58 2839 2838 7 22 gf180mcu_fd_sc_mcu9t5v0__clkinv_2
* cell instance $61 r0 *1 134.96,2182.32
X$61 2838 10 31 2839 8 gf180mcu_fd_sc_mcu9t5v0__and2_2
* cell instance $63 r0 *1 133.28,2172.24
X$63 12 2839 2838 9 8 23 gf180mcu_fd_sc_mcu9t5v0__addh_1
* cell instance $65 m0 *1 133.84,2182.32
X$65 2838 15 27 2839 9 gf180mcu_fd_sc_mcu9t5v0__and2_2
* cell instance $70 r0 *1 85.12,2394
X$70 10 14 106 235 2838 2839 975 gf180mcu_fd_sc_mcu9t5v0__or4_2
* cell instance $85 m0 *1 157.92,2182.32
X$85 2838 10 13 2839 37 gf180mcu_fd_sc_mcu9t5v0__and2_2
* cell instance $89 r0 *1 145.6,2172.24
X$89 2838 10 27 2839 11 gf180mcu_fd_sc_mcu9t5v0__and2_2
* cell instance $91 r0 *1 156.24,2394
X$91 10 2838 14 920 2839 986 gf180mcu_fd_sc_mcu9t5v0__and3_2
* cell instance $94 r0 *1 71.12,2394
X$94 2838 10 494 2839 915 gf180mcu_fd_sc_mcu9t5v0__and2_2
* cell instance $97 r0 *1 86.24,2212.56
X$97 2838 10 108 2839 113 gf180mcu_fd_sc_mcu9t5v0__and2_2
* cell instance $102 r0 *1 56,2232.72
X$102 2839 10 201 2838 gf180mcu_fd_sc_mcu9t5v0__buf_8
* cell instance $104 m0 *1 105.84,2202.48
X$104 2838 10 54 2839 67 gf180mcu_fd_sc_mcu9t5v0__and2_2
* cell instance $107 r0 *1 143.36,2182.32
X$107 44 2839 2838 11 43 45 gf180mcu_fd_sc_mcu9t5v0__addh_1
* cell instance $111 m0 *1 138.88,2182.32
X$111 2839 45 89 46 22 12 2838 gf180mcu_fd_sc_mcu9t5v0__addf_1
* cell instance $114 r0 *1 139.44,2414.16
X$114 2839 13 1027 2838 1028 gf180mcu_fd_sc_mcu9t5v0__or2_2
* cell instance $130 r0 *1 129.92,2182.32
X$130 2838 15 13 2839 43 gf180mcu_fd_sc_mcu9t5v0__and2_2
* cell instance $132 r0 *1 155.68,2192.4
X$132 2838 14 13 2839 92 gf180mcu_fd_sc_mcu9t5v0__and2_2
* cell instance $134 r0 *1 91.84,2182.32
X$134 2838 29 13 2839 30 gf180mcu_fd_sc_mcu9t5v0__and2_2
* cell instance $137 r0 *1 145.6,2414.16
X$137 2838 13 1062 2839 1063 gf180mcu_fd_sc_mcu9t5v0__xnor2_2
* cell instance $140 m0 *1 3.36,2192.4
X$140 2839 2838 24 13 gf180mcu_fd_sc_mcu9t5v0__buf_4
* cell instance $143 r0 *1 78.96,2192.4
X$143 2838 106 13 2839 78 gf180mcu_fd_sc_mcu9t5v0__and2_2
* cell instance $146 r0 *1 54.32,2222.64
X$146 2838 184 13 2839 152 gf180mcu_fd_sc_mcu9t5v0__and2_2
* cell instance $160 r0 *1 83.44,2333.52
X$160 2838 14 717 2839 641 gf180mcu_fd_sc_mcu9t5v0__and2_2
* cell instance $162 m0 *1 131.04,2202.48
X$162 2838 14 31 2839 70 gf180mcu_fd_sc_mcu9t5v0__and2_2
* cell instance $165 m0 *1 154,2192.4
X$165 2838 14 27 2839 48 gf180mcu_fd_sc_mcu9t5v0__and2_2
* cell instance $169 m0 *1 112,2343.6
X$169 2838 14 232 2839 687 gf180mcu_fd_sc_mcu9t5v0__and2_2
* cell instance $173 m0 *1 116.48,2242.8
X$173 2839 2838 14 114 gf180mcu_fd_sc_mcu9t5v0__buf_4
* cell instance $175 r0 *1 72.24,2303.28
X$175 2838 14 198 2839 543 gf180mcu_fd_sc_mcu9t5v0__and2_2
* cell instance $179 m0 *1 85.12,2394
X$179 15 2839 59 29 2838 920 gf180mcu_fd_sc_mcu9t5v0__or3_2
* cell instance $195 m0 *1 91.84,2394
X$195 2838 15 232 2839 959 gf180mcu_fd_sc_mcu9t5v0__and2_2
* cell instance $197 m0 *1 26.88,2394
X$197 2838 15 494 2839 911 gf180mcu_fd_sc_mcu9t5v0__and2_2
* cell instance $201 m0 *1 76.72,2212.56
X$201 2838 15 54 2839 79 gf180mcu_fd_sc_mcu9t5v0__and2_2
* cell instance $203 m0 *1 104.72,2192.4
X$203 2838 15 31 2839 32 gf180mcu_fd_sc_mcu9t5v0__and2_2
* cell instance $205 m0 *1 46.48,2313.36
X$205 2839 15 200 2838 gf180mcu_fd_sc_mcu9t5v0__buf_8
* cell instance $209 r0 *1 104.16,2172.24
X$209 2839 2838 16 17 gf180mcu_fd_sc_mcu9t5v0__clkinv_2
* cell instance $216 m0 *1 105.28,2182.32
X$216 18 2839 2838 32 67 33 gf180mcu_fd_sc_mcu9t5v0__addh_1
* cell instance $219 m0 *1 116.48,2182.32
X$219 2839 2838 18 35 gf180mcu_fd_sc_mcu9t5v0__clkinv_2
* cell instance $228 r0 *1 129.92,2172.24
X$228 2839 2838 23 20 gf180mcu_fd_sc_mcu9t5v0__clkinv_2
* cell instance $231 m0 *1 119.84,2172.24
X$231 2839 2838 36 21 gf180mcu_fd_sc_mcu9t5v0__clkinv_2
* cell instance $247 m0 *1 11.2,2182.32
X$247 2839 2838 25 27 gf180mcu_fd_sc_mcu9t5v0__buf_4
* cell instance $250 r0 *1 3.36,2182.32
X$250 2839 26 29 2838 gf180mcu_fd_sc_mcu9t5v0__buf_8
* cell instance $252 r0 *1 137.2,2404.08
X$252 2839 27 974 2838 1027 gf180mcu_fd_sc_mcu9t5v0__or2_2
* cell instance $255 m0 *1 16.8,2242.8
X$255 2839 2838 184 233 27 gf180mcu_fd_sc_mcu9t5v0__nand2_2
* cell instance $273 r0 *1 153.44,2404.08
X$273 2838 27 1012 2839 1013 gf180mcu_fd_sc_mcu9t5v0__xnor2_2
* cell instance $277 r0 *1 49.84,2202.48
X$277 2838 56 27 2839 61 gf180mcu_fd_sc_mcu9t5v0__and2_2
* cell instance $279 r0 *1 84,2192.4
X$279 2838 29 27 2839 28 gf180mcu_fd_sc_mcu9t5v0__and2_2
* cell instance $282 m0 *1 76.16,2192.4
X$282 2839 65 76 41 28 78 2838 gf180mcu_fd_sc_mcu9t5v0__addf_1
* cell instance $284 r0 *1 52.64,2373.84
X$284 2838 29 683 2839 879 gf180mcu_fd_sc_mcu9t5v0__and2_2
* cell instance $308 m0 *1 23.52,2273.04
X$308 2839 29 109 2838 gf180mcu_fd_sc_mcu9t5v0__buf_8
* cell instance $311 r0 *1 10.64,2383.92
X$311 2838 29 494 2839 949 gf180mcu_fd_sc_mcu9t5v0__and2_2
* cell instance $313 r0 *1 57.12,2394
X$313 2838 29 633 2839 914 gf180mcu_fd_sc_mcu9t5v0__and2_2
* cell instance $315 m0 *1 57.12,2202.48
X$315 2838 29 31 2839 62 gf180mcu_fd_sc_mcu9t5v0__and2_2
* cell instance $321 m0 *1 126,2404.08
X$321 31 2839 54 426 2838 974 gf180mcu_fd_sc_mcu9t5v0__or3_2
* cell instance $324 m0 *1 26.32,2202.48
X$324 2839 2838 49 31 gf180mcu_fd_sc_mcu9t5v0__buf_4
* cell instance $337 m0 *1 132.72,2404.08
X$337 31 2839 973 2838 1011 gf180mcu_fd_sc_mcu9t5v0__xor2_2
* cell instance $340 r0 *1 31.92,2202.48
X$340 2838 56 31 2839 58 gf180mcu_fd_sc_mcu9t5v0__and2_2
* cell instance $342 m0 *1 76.72,2202.48
X$342 2838 59 31 2839 65 gf180mcu_fd_sc_mcu9t5v0__and2_2
* cell instance $344 r0 *1 58.24,2242.8
X$344 2838 184 31 2839 250 gf180mcu_fd_sc_mcu9t5v0__and2_2
* cell instance $350 r0 *1 101.92,2182.32
X$350 2839 42 83 36 41 33 2838 gf180mcu_fd_sc_mcu9t5v0__addf_1
* cell instance $353 r0 *1 113.68,2192.4
X$353 2839 2838 34 68 gf180mcu_fd_sc_mcu9t5v0__clkinv_2
* cell instance $360 r0 *1 156.24,2182.32
X$360 39 2839 2838 44 37 38 gf180mcu_fd_sc_mcu9t5v0__addh_1
* cell instance $362 m0 *1 159.04,2192.4
X$362 2839 38 47 46 48 40 2838 gf180mcu_fd_sc_mcu9t5v0__addf_2
* cell instance $367 r0 *1 165.76,2192.4
X$367 2839 94 93 92 39 2838 gf180mcu_fd_sc_mcu9t5v0__addh_2
* cell instance $370 r0 *1 177.52,2192.4
X$370 2839 73 129 93 40 2838 gf180mcu_fd_sc_mcu9t5v0__addh_2
* cell instance $400 r0 *1 148.4,2202.48
X$400 2839 121 47 71 72 2838 gf180mcu_fd_sc_mcu9t5v0__addh_4
* cell instance $409 r0 *1 2.24,2202.48
X$409 2839 50 59 2838 gf180mcu_fd_sc_mcu9t5v0__buf_8
* cell instance $412 m0 *1 3.36,2202.48
X$412 2839 2838 51 54 gf180mcu_fd_sc_mcu9t5v0__buf_4
* cell instance $415 m0 *1 2.24,2222.64
X$415 2839 52 106 2838 gf180mcu_fd_sc_mcu9t5v0__buf_8
* cell instance $418 r0 *1 2.24,2212.56
X$418 53 2838 2839 104 gf180mcu_fd_sc_mcu9t5v0__buf_2
* cell instance $421 r0 *1 127.12,2394
X$421 54 2839 426 969 2838 973 gf180mcu_fd_sc_mcu9t5v0__or3_2
* cell instance $434 r0 *1 124.88,2404.08
X$434 2838 54 1009 2839 976 gf180mcu_fd_sc_mcu9t5v0__xnor2_2
* cell instance $436 m0 *1 119.84,2222.64
X$436 2839 2838 114 117 54 gf180mcu_fd_sc_mcu9t5v0__nand2_2
* cell instance $438 r0 *1 49.84,2262.96
X$438 2838 184 54 2839 343 gf180mcu_fd_sc_mcu9t5v0__and2_2
* cell instance $440 r0 *1 16.8,2202.48
X$440 2838 56 54 2839 55 gf180mcu_fd_sc_mcu9t5v0__and2_2
* cell instance $444 r0 *1 33.6,2212.56
X$444 2838 109 54 2839 111 gf180mcu_fd_sc_mcu9t5v0__and2_2
* cell instance $451 r0 *1 6.72,2212.56
X$451 2839 132 105 110 133 55 2838 gf180mcu_fd_sc_mcu9t5v0__addf_1
* cell instance $453 m0 *1 15.12,2323.44
X$453 2838 56 107 2839 587 gf180mcu_fd_sc_mcu9t5v0__and2_2
* cell instance $455 r0 *1 36.4,2252.88
X$455 2838 56 146 2839 286 gf180mcu_fd_sc_mcu9t5v0__and2_2
* cell instance $457 r0 *1 22.96,2273.04
X$457 2838 56 196 2839 389 gf180mcu_fd_sc_mcu9t5v0__and2_2
* cell instance $465 m0 *1 62.72,2373.84
X$465 2838 56 494 2839 865 gf180mcu_fd_sc_mcu9t5v0__and2_2
* cell instance $468 m0 *1 19.6,2373.84
X$468 2839 2838 56 835 633 gf180mcu_fd_sc_mcu9t5v0__nand2_2
* cell instance $470 r0 *1 27.44,2283.12
X$470 2838 56 131 2839 441 gf180mcu_fd_sc_mcu9t5v0__and2_2
* cell instance $475 r0 *1 10.64,2242.8
X$475 2839 106 56 2838 gf180mcu_fd_sc_mcu9t5v0__buf_8
* cell instance $482 r0 *1 30.24,2242.8
X$482 2838 56 108 2839 248 gf180mcu_fd_sc_mcu9t5v0__and2_2
* cell instance $485 r0 *1 22.96,2202.48
X$485 2839 2838 74 57 gf180mcu_fd_sc_mcu9t5v0__clkinv_2
* cell instance $487 m0 *1 22.4,2222.64
X$487 2839 57 147 150 110 149 2838 gf180mcu_fd_sc_mcu9t5v0__addf_1
* cell instance $490 m0 *1 25.2,2212.56
X$490 2839 75 74 135 111 58 2838 gf180mcu_fd_sc_mcu9t5v0__addf_1
* cell instance $493 r0 *1 10.08,2353.68
X$493 2838 59 198 2839 780 gf180mcu_fd_sc_mcu9t5v0__and2_2
* cell instance $509 m0 *1 5.04,2323.44
X$509 2838 59 245 2839 586 gf180mcu_fd_sc_mcu9t5v0__and2_2
* cell instance $511 m0 *1 43.68,2363.76
X$511 2838 59 683 2839 782 gf180mcu_fd_sc_mcu9t5v0__and2_2
* cell instance $513 r0 *1 35.28,2373.84
X$513 2838 59 633 2839 897 gf180mcu_fd_sc_mcu9t5v0__and2_2
* cell instance $515 m0 *1 37.52,2394
X$515 2838 59 232 2839 952 gf180mcu_fd_sc_mcu9t5v0__and2_2
* cell instance $521 r0 *1 44.8,2212.56
X$521 2839 134 182 136 60 135 2838 gf180mcu_fd_sc_mcu9t5v0__addf_1
* cell instance $523 r0 *1 54.88,2202.48
X$523 2839 61 60 77 63 62 2838 gf180mcu_fd_sc_mcu9t5v0__addf_1
* cell instance $533 r0 *1 73.36,2202.48
X$533 2839 76 64 82 66 80 2838 gf180mcu_fd_sc_mcu9t5v0__addf_1
* cell instance $535 r0 *1 68.88,2212.56
X$535 2839 64 185 137 136 112 2838 gf180mcu_fd_sc_mcu9t5v0__addf_1
* cell instance $539 m0 *1 84,2202.48
X$539 2839 2838 77 66 gf180mcu_fd_sc_mcu9t5v0__clkinv_2
* cell instance $545 m0 *1 114.8,2212.56
X$545 2839 68 116 87 85 117 2838 gf180mcu_fd_sc_mcu9t5v0__addf_1
* cell instance $547 m0 *1 142.24,2212.56
X$547 2839 118 119 90 69 2838 gf180mcu_fd_sc_mcu9t5v0__addh_2
* cell instance $549 r0 *1 144.48,2202.48
X$549 2839 2838 87 69 gf180mcu_fd_sc_mcu9t5v0__clkinv_2
* cell instance $551 m0 *1 136.08,2202.48
X$551 2839 89 90 71 91 70 2838 gf180mcu_fd_sc_mcu9t5v0__addf_1
* cell instance $559 r0 *1 161.28,2212.56
X$559 2839 2838 72 120 gf180mcu_fd_sc_mcu9t5v0__clkinv_2
* cell instance $562 m0 *1 174.16,2232.72
X$562 2839 169 205 129 166 73 238 2838 gf180mcu_fd_sc_mcu9t5v0__aoi221_4
* cell instance $584 m0 *1 81.76,2212.56
X$584 115 2839 2838 79 113 81 gf180mcu_fd_sc_mcu9t5v0__addh_1
* cell instance $587 r0 *1 90.16,2202.48
X$587 2839 2838 81 80 gf180mcu_fd_sc_mcu9t5v0__clkinv_2
* cell instance $596 r0 *1 94.08,2202.48
X$596 2839 2838 82 84 gf180mcu_fd_sc_mcu9t5v0__clkinv_2
* cell instance $602 m0 *1 98,2202.48
X$602 2839 2838 83 139 gf180mcu_fd_sc_mcu9t5v0__clkinv_2
* cell instance $604 m0 *1 96.32,2212.56
X$604 2839 139 138 86 84 115 2838 gf180mcu_fd_sc_mcu9t5v0__addf_1
* cell instance $612 r0 *1 120.4,2202.48
X$612 2839 2838 86 85 gf180mcu_fd_sc_mcu9t5v0__clkinv_2
* cell instance $625 r0 *1 139.44,2192.4
X$625 2839 2838 88 91 gf180mcu_fd_sc_mcu9t5v0__clkinv_2
* cell instance $645 m0 *1 234.08,2222.64
X$645 2838 94 176 2839 214 gf180mcu_fd_sc_mcu9t5v0__xnor2_2
* cell instance $650 r0 *1 236.32,2222.64
X$650 94 2839 176 2838 195 gf180mcu_fd_sc_mcu9t5v0__xor2_2
* cell instance $653 m0 *1 2.24,2232.72
X$653 2839 2838 95 198 gf180mcu_fd_sc_mcu9t5v0__buf_4
* cell instance $656 r0 *1 2.24,2222.64
X$656 2839 2838 96 146 gf180mcu_fd_sc_mcu9t5v0__buf_4
* cell instance $659 r0 *1 2.24,2232.72
X$659 2839 2838 97 108 gf180mcu_fd_sc_mcu9t5v0__buf_4
* cell instance $662 m0 *1 10.08,2232.72
X$662 2839 2838 98 232 gf180mcu_fd_sc_mcu9t5v0__buf_4
* cell instance $665 m0 *1 17.92,2232.72
X$665 2839 2838 99 235 gf180mcu_fd_sc_mcu9t5v0__buf_4
* cell instance $668 m0 *1 2.24,2212.56
X$668 100 2838 2839 131 gf180mcu_fd_sc_mcu9t5v0__buf_3
* cell instance $671 m0 *1 2.24,2242.8
X$671 2839 2838 101 245 gf180mcu_fd_sc_mcu9t5v0__buf_4
* cell instance $674 r0 *1 10.08,2222.64
X$674 2839 102 494 2838 gf180mcu_fd_sc_mcu9t5v0__clkbuf_8
* cell instance $677 m0 *1 10.64,2212.56
X$677 2839 2838 103 107 gf180mcu_fd_sc_mcu9t5v0__buf_4
* cell instance $682 m0 *1 73.36,2333.52
X$682 2839 2838 104 497 gf180mcu_fd_sc_mcu9t5v0__buf_4
* cell instance $684 r0 *1 11.76,2252.88
X$684 2839 104 196 2838 gf180mcu_fd_sc_mcu9t5v0__clkbuf_8
* cell instance $687 m0 *1 12.32,2283.12
X$687 108 146 104 131 2838 2839 426 gf180mcu_fd_sc_mcu9t5v0__or4_2
* cell instance $694 r0 *1 24.64,2222.64
X$694 2839 2838 105 180 gf180mcu_fd_sc_mcu9t5v0__clkinv_2
* cell instance $708 r0 *1 15.12,2343.6
X$708 2838 106 439 2839 726 gf180mcu_fd_sc_mcu9t5v0__and2_2
* cell instance $712 m0 *1 17.36,2383.92
X$712 2838 106 232 2839 877 gf180mcu_fd_sc_mcu9t5v0__and2_2
* cell instance $714 m0 *1 48.72,2363.76
X$714 2838 106 245 2839 783 gf180mcu_fd_sc_mcu9t5v0__and2_2
* cell instance $716 r0 *1 43.68,2373.84
X$716 2838 106 198 2839 899 gf180mcu_fd_sc_mcu9t5v0__and2_2
* cell instance $722 r0 *1 47.6,2394
X$722 2838 106 683 2839 913 gf180mcu_fd_sc_mcu9t5v0__and2_2
* cell instance $727 r0 *1 101.92,2414.16
X$727 2839 107 1026 2838 969 gf180mcu_fd_sc_mcu9t5v0__or2_2
* cell instance $729 m0 *1 98,2424.24
X$729 107 2839 439 672 2838 1079 gf180mcu_fd_sc_mcu9t5v0__or3_2
* cell instance $731 m0 *1 100.24,2273.04
X$731 2839 2838 114 434 107 gf180mcu_fd_sc_mcu9t5v0__nand2_2
* cell instance $749 r0 *1 101.92,2424.24
X$749 107 2839 1026 2838 1105 gf180mcu_fd_sc_mcu9t5v0__xor2_2
* cell instance $751 m0 *1 50.96,2333.52
X$751 2838 235 107 2839 677 gf180mcu_fd_sc_mcu9t5v0__and2_2
* cell instance $756 m0 *1 19.6,2293.2
X$756 2838 109 107 2839 442 gf180mcu_fd_sc_mcu9t5v0__and2_2
* cell instance $760 r0 *1 81.76,2283.12
X$760 2838 200 107 2839 393 gf180mcu_fd_sc_mcu9t5v0__and2_2
* cell instance $763 m0 *1 53.2,2252.88
X$763 2838 201 107 2839 290 gf180mcu_fd_sc_mcu9t5v0__and2_2
* cell instance $781 r0 *1 101.92,2394
X$781 108 2839 1007 2838 1008 gf180mcu_fd_sc_mcu9t5v0__xor2_2
* cell instance $783 m0 *1 105.28,2222.64
X$783 2839 2838 114 188 108 gf180mcu_fd_sc_mcu9t5v0__nand2_2
* cell instance $785 r0 *1 68.32,2273.04
X$785 2838 184 108 2839 430 gf180mcu_fd_sc_mcu9t5v0__and2_2
* cell instance $788 r0 *1 64.4,2222.64
X$788 2838 200 108 2839 154 gf180mcu_fd_sc_mcu9t5v0__and2_2
* cell instance $791 r0 *1 23.52,2212.56
X$791 2838 109 108 2839 133 gf180mcu_fd_sc_mcu9t5v0__and2_2
* cell instance $798 r0 *1 21.28,2343.6
X$798 2838 109 245 2839 727 gf180mcu_fd_sc_mcu9t5v0__and2_2
* cell instance $800 m0 *1 19.6,2313.36
X$800 2838 109 439 2839 540 gf180mcu_fd_sc_mcu9t5v0__and2_2
* cell instance $809 m0 *1 23.52,2363.76
X$809 2839 2838 109 781 232 gf180mcu_fd_sc_mcu9t5v0__nand2_2
* cell instance $811 r0 *1 39.76,2353.68
X$811 2838 109 198 2839 758 gf180mcu_fd_sc_mcu9t5v0__and2_2
* cell instance $814 r0 *1 40.32,2262.96
X$814 2838 109 196 2839 287 gf180mcu_fd_sc_mcu9t5v0__and2_2
* cell instance $817 r0 *1 29.68,2273.04
X$817 2838 109 131 2839 390 gf180mcu_fd_sc_mcu9t5v0__and2_2
* cell instance $822 r0 *1 25.2,2242.8
X$822 2838 109 146 2839 247 gf180mcu_fd_sc_mcu9t5v0__and2_2
* cell instance $834 m0 *1 54.32,2222.64
X$834 2839 152 134 112 154 153 2838 gf180mcu_fd_sc_mcu9t5v0__addf_1
* cell instance $849 r0 *1 91.28,2353.68
X$849 2839 2838 114 786 494 gf180mcu_fd_sc_mcu9t5v0__nand2_2
* cell instance $852 m0 *1 109.76,2333.52
X$852 2839 2838 114 643 642 gf180mcu_fd_sc_mcu9t5v0__nand2_2
* cell instance $859 m0 *1 93.52,2262.96
X$859 2839 2838 114 292 131 gf180mcu_fd_sc_mcu9t5v0__nand2_2
* cell instance $862 m0 *1 81.2,2222.64
X$862 2839 2838 114 155 146 gf180mcu_fd_sc_mcu9t5v0__nand2_2
* cell instance $866 m0 *1 90.72,2242.8
X$866 2838 114 497 2839 252 gf180mcu_fd_sc_mcu9t5v0__and2_2
* cell instance $868 r0 *1 78.96,2293.2
X$868 2839 2838 114 533 245 gf180mcu_fd_sc_mcu9t5v0__nand2_2
* cell instance $870 r0 *1 101.92,2283.12
X$870 2838 114 439 2839 448 gf180mcu_fd_sc_mcu9t5v0__and2_2
* cell instance $877 m0 *1 115.36,2222.64
X$877 2839 2838 116 140 gf180mcu_fd_sc_mcu9t5v0__clkinv_2
* cell instance $886 m0 *1 150.64,2222.64
X$886 2839 2838 121 142 118 gf180mcu_fd_sc_mcu9t5v0__nand2_2
* cell instance $888 r0 *1 155.68,2222.64
X$888 2839 118 2838 164 161 119 gf180mcu_fd_sc_mcu9t5v0__aoi21_2
* cell instance $891 r0 *1 148.4,2222.64
X$891 2839 118 2838 171 191 119 gf180mcu_fd_sc_mcu9t5v0__aoi21_2
* cell instance $903 r0 *1 182,2222.64
X$903 121 119 160 167 2839 2838 130 gf180mcu_fd_sc_mcu9t5v0__and4_2
* cell instance $905 m0 *1 166.32,2222.64
X$905 2839 2838 121 143 119 gf180mcu_fd_sc_mcu9t5v0__nand2_2
* cell instance $908 r0 *1 175.84,2232.72
X$908 129 121 119 160 2839 2838 205 gf180mcu_fd_sc_mcu9t5v0__and4_2
* cell instance $910 m0 *1 218.4,2222.64
X$910 2838 119 172 2839 177 gf180mcu_fd_sc_mcu9t5v0__xnor2_2
* cell instance $912 r0 *1 215.6,2222.64
X$912 2839 174 172 119 2838 gf180mcu_fd_sc_mcu9t5v0__xor2_4
* cell instance $915 m0 *1 163.52,2232.72
X$915 2838 120 2839 164 238 165 gf180mcu_fd_sc_mcu9t5v0__oai21_2
* cell instance $917 m0 *1 156.8,2222.64
X$917 2838 143 124 162 142 120 2839 gf180mcu_fd_sc_mcu9t5v0__oai211_2
* cell instance $919 r0 *1 199.36,2232.72
X$919 121 171 209 210 2838 2839 173 gf180mcu_fd_sc_mcu9t5v0__or4_2
* cell instance $921 m0 *1 201.6,2232.72
X$921 2839 194 210 2838 209 121 171 gf180mcu_fd_sc_mcu9t5v0__nor4_2
* cell instance $933 m0 *1 195.44,2252.88
X$933 2838 121 208 2839 335 gf180mcu_fd_sc_mcu9t5v0__and2_2
* cell instance $935 r0 *1 194.32,2232.72
X$935 2838 121 207 2839 170 gf180mcu_fd_sc_mcu9t5v0__and2_2
* cell instance $937 r0 *1 166.88,2222.64
X$937 2839 2838 121 165 gf180mcu_fd_sc_mcu9t5v0__clkinv_2
* cell instance $942 r0 *1 198.8,2222.64
X$942 2839 170 2838 208 192 171 121 gf180mcu_fd_sc_mcu9t5v0__aoi22_2
* cell instance $946 m0 *1 168.56,2273.04
X$946 2838 546 348 2839 122 gf180mcu_fd_sc_mcu9t5v0__and2_2
* cell instance $948 m0 *1 173.04,2222.64
X$948 123 2838 122 127 2839 125 gf180mcu_fd_sc_mcu9t5v0__and3_2
* cell instance $950 r0 *1 175.84,2242.8
X$950 2839 2838 123 281 122 gf180mcu_fd_sc_mcu9t5v0__nand2_2
* cell instance $952 r0 *1 174.72,2212.56
X$952 122 123 124 126 129 2838 2839 gf180mcu_fd_sc_mcu9t5v0__aoi211_2
* cell instance $954 m0 *1 155.68,2343.6
X$954 2839 692 123 690 691 2838 gf180mcu_fd_sc_mcu9t5v0__oai21_4
* cell instance $966 r0 *1 199.36,2333.52
X$966 2839 592 614 123 721 2838 gf180mcu_fd_sc_mcu9t5v0__xor3_2
* cell instance $969 m0 *1 161.28,2313.36
X$969 2839 504 2838 547 123 546 gf180mcu_fd_sc_mcu9t5v0__aoi21_2
* cell instance $971 r0 *1 184.24,2212.56
X$971 2839 2838 128 129 124 145 gf180mcu_fd_sc_mcu9t5v0__mux2_2
* cell instance $979 m0 *1 178.64,2212.56
X$979 128 2838 125 168 2839 144 gf180mcu_fd_sc_mcu9t5v0__nor3_4
* cell instance $981 m0 *1 179.2,2222.64
X$981 2839 2838 144 126 206 127 gf180mcu_fd_sc_mcu9t5v0__mux2_2
* cell instance $984 m0 *1 189.84,2222.64
X$984 2838 129 130 2839 127 gf180mcu_fd_sc_mcu9t5v0__and2_2
* cell instance $994 r0 *1 192.64,2212.56
X$994 2839 2838 145 129 130 gf180mcu_fd_sc_mcu9t5v0__nor2_2
* cell instance $1012 m0 *1 94.64,2414.16
X$1012 2839 2838 1061 131 969 gf180mcu_fd_sc_mcu9t5v0__nor2_2
* cell instance $1036 r0 *1 104.16,2404.08
X$1036 497 2839 131 971 2838 970 gf180mcu_fd_sc_mcu9t5v0__or3_2
* cell instance $1039 m0 *1 26.32,2343.6
X$1039 2838 184 131 2839 682 gf180mcu_fd_sc_mcu9t5v0__and2_2
* cell instance $1041 m0 *1 146.72,2434.32
X$1041 131 2839 971 2838 1131 gf180mcu_fd_sc_mcu9t5v0__xor2_2
* cell instance $1043 r0 *1 92.96,2394
X$1043 146 497 131 969 2838 2839 1007 gf180mcu_fd_sc_mcu9t5v0__or4_2
* cell instance $1045 m0 *1 67.76,2252.88
X$1045 2838 201 131 2839 251 gf180mcu_fd_sc_mcu9t5v0__and2_2
* cell instance $1049 r0 *1 59.36,2262.96
X$1049 2838 200 131 2839 375 gf180mcu_fd_sc_mcu9t5v0__and2_2
* cell instance $1073 m0 *1 110.32,2222.64
X$1073 2839 2838 137 157 gf180mcu_fd_sc_mcu9t5v0__clkinv_2
* cell instance $1080 r0 *1 103.04,2222.64
X$1080 2839 138 156 158 157 188 2838 gf180mcu_fd_sc_mcu9t5v0__addf_1
* cell instance $1086 r0 *1 125.44,2222.64
X$1086 2839 160 140 159 161 2838 gf180mcu_fd_sc_mcu9t5v0__addh_4
* cell instance $1089 r0 *1 77.28,2222.64
X$1089 2839 185 141 187 186 155 2838 gf180mcu_fd_sc_mcu9t5v0__addf_1
* cell instance $1095 m0 *1 124.32,2242.8
X$1095 2839 2838 141 202 gf180mcu_fd_sc_mcu9t5v0__clkinv_2
* cell instance $1129 m0 *1 104.72,2404.08
X$1129 146 2839 970 2838 972 gf180mcu_fd_sc_mcu9t5v0__xor2_2
* cell instance $1135 r0 *1 49.28,2293.2
X$1135 2838 184 146 2839 495 gf180mcu_fd_sc_mcu9t5v0__and2_2
* cell instance $1142 r0 *1 34.16,2232.72
X$1142 2839 2838 200 236 146 gf180mcu_fd_sc_mcu9t5v0__nand2_2
* cell instance $1144 r0 *1 59.36,2222.64
X$1144 2838 201 146 2839 153 gf180mcu_fd_sc_mcu9t5v0__and2_2
* cell instance $1149 r0 *1 50.4,2222.64
X$1149 2839 2838 147 151 gf180mcu_fd_sc_mcu9t5v0__clkinv_2
* cell instance $1151 m0 *1 31.36,2232.72
X$1151 2839 2838 199 148 gf180mcu_fd_sc_mcu9t5v0__clkinv_2
* cell instance $1153 r0 *1 29.68,2222.64
X$1153 2839 148 181 182 150 183 2838 gf180mcu_fd_sc_mcu9t5v0__addf_2
* cell instance $1157 m0 *1 25.76,2232.72
X$1157 2839 2838 234 149 gf180mcu_fd_sc_mcu9t5v0__clkinv_2
* cell instance $1165 m0 *1 72.24,2242.8
X$1165 2839 151 278 279 275 277 2838 gf180mcu_fd_sc_mcu9t5v0__addf_1
* cell instance $1178 m0 *1 117.04,2232.72
X$1178 2839 2838 156 190 gf180mcu_fd_sc_mcu9t5v0__clkinv_2
* cell instance $1183 r0 *1 120.96,2222.64
X$1183 2839 2838 158 159 gf180mcu_fd_sc_mcu9t5v0__clkinv_2
* cell instance $1189 m0 *1 205.52,2242.8
X$1189 2838 160 204 2839 213 gf180mcu_fd_sc_mcu9t5v0__xnor2_2
* cell instance $1191 m0 *1 152.88,2232.72
X$1191 2839 161 2838 162 163 160 gf180mcu_fd_sc_mcu9t5v0__aoi21_2
* cell instance $1193 m0 *1 143.92,2232.72
X$1193 2839 160 161 2838 191 gf180mcu_fd_sc_mcu9t5v0__or2_2
* cell instance $1196 r0 *1 145.04,2242.8
X$1196 2838 160 2839 163 332 167 gf180mcu_fd_sc_mcu9t5v0__oai21_2
* cell instance $1207 r0 *1 152.88,2242.8
X$1207 2839 280 167 160 298 2838 254 gf180mcu_fd_sc_mcu9t5v0__nand4_2
* cell instance $1211 r0 *1 207.2,2232.72
X$1211 160 2839 211 2838 223 gf180mcu_fd_sc_mcu9t5v0__xor2_2
* cell instance $1218 r0 *1 153.44,2232.72
X$1218 2839 2838 161 203 gf180mcu_fd_sc_mcu9t5v0__clkinv_2
* cell instance $1233 m0 *1 120.96,2232.72
X$1233 2839 167 190 189 163 2838 gf180mcu_fd_sc_mcu9t5v0__addh_4
* cell instance $1235 r0 *1 161.84,2242.8
X$1235 2839 204 167 297 163 2838 gf180mcu_fd_sc_mcu9t5v0__aoi21_4
* cell instance $1237 r0 *1 133.84,2252.88
X$1237 2839 331 296 254 163 297 2838 gf180mcu_fd_sc_mcu9t5v0__aoi211_4
* cell instance $1244 r0 *1 183.12,2232.72
X$1244 2838 164 204 2839 208 gf180mcu_fd_sc_mcu9t5v0__and2_2
* cell instance $1249 m0 *1 174.16,2242.8
X$1249 2838 204 2839 255 166 207 gf180mcu_fd_sc_mcu9t5v0__oai21_2
* cell instance $1265 r0 *1 184.24,2242.8
X$1265 2839 2838 167 207 254 gf180mcu_fd_sc_mcu9t5v0__nand2_2
* cell instance $1268 m0 *1 173.6,2252.88
X$1268 2839 2838 167 300 gf180mcu_fd_sc_mcu9t5v0__clkinv_2
* cell instance $1270 m0 *1 179.76,2262.96
X$1270 167 254 301 205 2839 2838 400 gf180mcu_fd_sc_mcu9t5v0__and4_2
* cell instance $1272 m0 *1 255.92,2313.36
X$1272 2838 168 2839 508 553 411 598 gf180mcu_fd_sc_mcu9t5v0__oai31_2
* cell instance $1287 r0 *1 267.12,2232.72
X$1287 2839 2838 195 218 168 gf180mcu_fd_sc_mcu9t5v0__nand2_2
* cell instance $1289 r0 *1 235.2,2232.72
X$1289 215 2838 2839 239 214 168 gf180mcu_fd_sc_mcu9t5v0__nor3_2
* cell instance $1292 r0 *1 247.52,2242.8
X$1292 214 239 168 258 2839 2838 216 gf180mcu_fd_sc_mcu9t5v0__and4_2
* cell instance $1294 r0 *1 270.48,2262.96
X$1294 2838 195 168 2839 353 gf180mcu_fd_sc_mcu9t5v0__and2_2
* cell instance $1296 m0 *1 273.28,2303.28
X$1296 168 2839 312 2838 511 gf180mcu_fd_sc_mcu9t5v0__xor2_2
* cell instance $1298 m0 *1 271.6,2273.04
X$1298 195 2838 168 381 2839 382 gf180mcu_fd_sc_mcu9t5v0__and3_2
* cell instance $1300 r0 *1 263.2,2262.96
X$1300 259 222 168 262 2839 2838 380 gf180mcu_fd_sc_mcu9t5v0__and4_2
* cell instance $1302 m0 *1 182.56,2273.04
X$1302 2839 176 437 304 402 169 2838 gf180mcu_fd_sc_mcu9t5v0__oai211_4
* cell instance $1319 m0 *1 142.8,2252.88
X$1319 2839 203 172 331 332 280 299 2838 gf180mcu_fd_sc_mcu9t5v0__oai221_4
* cell instance $1324 m0 *1 260.96,2232.72
X$1324 2838 178 173 2839 217 gf180mcu_fd_sc_mcu9t5v0__and2_2
* cell instance $1327 m0 *1 243.6,2232.72
X$1327 2839 177 2838 240 173 178 gf180mcu_fd_sc_mcu9t5v0__aoi21_2
* cell instance $1330 m0 *1 252,2232.72
X$1330 2838 2839 173 259 178 gf180mcu_fd_sc_mcu9t5v0__nand2_4
* cell instance $1333 m0 *1 293.44,2232.72
X$1333 2839 224 267 179 223 174 2838 gf180mcu_fd_sc_mcu9t5v0__aoi211_4
* cell instance $1335 r0 *1 271.6,2242.8
X$1335 2838 174 2839 261 218 217 262 gf180mcu_fd_sc_mcu9t5v0__oai31_2
* cell instance $1338 m0 *1 221.76,2232.72
X$1338 2838 174 2839 194 175 193 gf180mcu_fd_sc_mcu9t5v0__oai21_2
* cell instance $1348 m0 *1 274.96,2252.88
X$1348 2839 2838 313 261 339 174 gf180mcu_fd_sc_mcu9t5v0__mux2_2
* cell instance $1350 m0 *1 233.52,2242.8
X$1350 2839 213 310 227 222 174 2838 gf180mcu_fd_sc_mcu9t5v0__and4_4
* cell instance $1354 r0 *1 265.44,2252.88
X$1354 259 242 174 270 2839 2838 312 gf180mcu_fd_sc_mcu9t5v0__and4_2
* cell instance $1356 r0 *1 250.88,2273.04
X$1356 2839 351 353 421 175 406 2838 gf180mcu_fd_sc_mcu9t5v0__oai31_4
* cell instance $1362 r0 *1 257.04,2303.28
X$1362 2839 599 579 508 175 406 2838 gf180mcu_fd_sc_mcu9t5v0__or4_4
* cell instance $1371 m0 *1 246.96,2242.8
X$1371 2839 239 177 242 225 258 2838 gf180mcu_fd_sc_mcu9t5v0__and4_4
* cell instance $1378 r0 *1 216.72,2232.72
X$1378 2838 212 192 2839 178 gf180mcu_fd_sc_mcu9t5v0__and2_2
* cell instance $1386 m0 *1 313.6,2232.72
X$1386 2838 179 267 2839 226 gf180mcu_fd_sc_mcu9t5v0__and2_2
* cell instance $1388 r0 *1 312.48,2242.8
X$1388 2838 310 227 2839 179 gf180mcu_fd_sc_mcu9t5v0__and2_2
* cell instance $1393 m0 *1 50.4,2242.8
X$1393 2839 180 273 275 274 249 2838 gf180mcu_fd_sc_mcu9t5v0__addf_1
* cell instance $1401 m0 *1 95.76,2242.8
X$1401 2839 252 237 181 279 253 2838 gf180mcu_fd_sc_mcu9t5v0__addf_2
* cell instance $1405 r0 *1 70,2222.64
X$1405 2839 2838 183 186 gf180mcu_fd_sc_mcu9t5v0__clkinv_2
* cell instance $1427 r0 *1 86.24,2363.76
X$1427 2839 235 184 2838 gf180mcu_fd_sc_mcu9t5v0__buf_8
* cell instance $1430 m0 *1 14.56,2373.84
X$1430 2839 2838 184 834 717 gf180mcu_fd_sc_mcu9t5v0__nand2_2
* cell instance $1433 m0 *1 20.72,2303.28
X$1433 2838 184 497 2839 524 gf180mcu_fd_sc_mcu9t5v0__and2_2
* cell instance $1437 m0 *1 107.52,2373.84
X$1437 2838 184 232 2839 883 gf180mcu_fd_sc_mcu9t5v0__and2_2
* cell instance $1450 m0 *1 110.32,2232.72
X$1450 2839 2838 187 189 gf180mcu_fd_sc_mcu9t5v0__clkinv_2
* cell instance $1473 m0 *1 216.72,2232.72
X$1473 2839 2838 212 193 192 gf180mcu_fd_sc_mcu9t5v0__nand2_2
* cell instance $1492 m0 *1 260.96,2273.04
X$1492 2838 195 380 2839 407 gf180mcu_fd_sc_mcu9t5v0__xnor2_2
* cell instance $1502 r0 *1 80.08,2242.8
X$1502 2838 200 196 2839 276 gf180mcu_fd_sc_mcu9t5v0__and2_2
* cell instance $1509 m0 *1 26.32,2242.8
X$1509 2839 2838 201 197 196 gf180mcu_fd_sc_mcu9t5v0__nand2_2
* cell instance $1513 r0 *1 17.36,2232.72
X$1513 2839 233 234 199 236 197 2838 gf180mcu_fd_sc_mcu9t5v0__addf_1
* cell instance $1516 m0 *1 65.52,2424.24