* CDL Netlist generated by OpenROAD

*.BUSDELIMITER [

.SUBCKT dma_controller channel_busy[0] channel_busy[1] channel_busy[2]
+ channel_busy[3] channel_done[0] channel_done[1] channel_done[2]
+ channel_done[3] channel_dst_addr[0] channel_dst_addr[100]
+ channel_dst_addr[101] channel_dst_addr[102] channel_dst_addr[103]
+ channel_dst_addr[104] channel_dst_addr[105] channel_dst_addr[106]
+ channel_dst_addr[107] channel_dst_addr[108] channel_dst_addr[109]
+ channel_dst_addr[10] channel_dst_addr[110] channel_dst_addr[111]
+ channel_dst_addr[112] channel_dst_addr[113] channel_dst_addr[114]
+ channel_dst_addr[115] channel_dst_addr[116] channel_dst_addr[117]
+ channel_dst_addr[118] channel_dst_addr[119] channel_dst_addr[11]
+ channel_dst_addr[120] channel_dst_addr[121] channel_dst_addr[122]
+ channel_dst_addr[123] channel_dst_addr[124] channel_dst_addr[125]
+ channel_dst_addr[126] channel_dst_addr[127] channel_dst_addr[12]
+ channel_dst_addr[13] channel_dst_addr[14] channel_dst_addr[15]
+ channel_dst_addr[16] channel_dst_addr[17] channel_dst_addr[18]
+ channel_dst_addr[19] channel_dst_addr[1] channel_dst_addr[20]
+ channel_dst_addr[21] channel_dst_addr[22] channel_dst_addr[23]
+ channel_dst_addr[24] channel_dst_addr[25] channel_dst_addr[26]
+ channel_dst_addr[27] channel_dst_addr[28] channel_dst_addr[29]
+ channel_dst_addr[2] channel_dst_addr[30] channel_dst_addr[31]
+ channel_dst_addr[32] channel_dst_addr[33] channel_dst_addr[34]
+ channel_dst_addr[35] channel_dst_addr[36] channel_dst_addr[37]
+ channel_dst_addr[38] channel_dst_addr[39] channel_dst_addr[3]
+ channel_dst_addr[40] channel_dst_addr[41] channel_dst_addr[42]
+ channel_dst_addr[43] channel_dst_addr[44] channel_dst_addr[45]
+ channel_dst_addr[46] channel_dst_addr[47] channel_dst_addr[48]
+ channel_dst_addr[49] channel_dst_addr[4] channel_dst_addr[50]
+ channel_dst_addr[51] channel_dst_addr[52] channel_dst_addr[53]
+ channel_dst_addr[54] channel_dst_addr[55] channel_dst_addr[56]
+ channel_dst_addr[57] channel_dst_addr[58] channel_dst_addr[59]
+ channel_dst_addr[5] channel_dst_addr[60] channel_dst_addr[61]
+ channel_dst_addr[62] channel_dst_addr[63] channel_dst_addr[64]
+ channel_dst_addr[65] channel_dst_addr[66] channel_dst_addr[67]
+ channel_dst_addr[68] channel_dst_addr[69] channel_dst_addr[6]
+ channel_dst_addr[70] channel_dst_addr[71] channel_dst_addr[72]
+ channel_dst_addr[73] channel_dst_addr[74] channel_dst_addr[75]
+ channel_dst_addr[76] channel_dst_addr[77] channel_dst_addr[78]
+ channel_dst_addr[79] channel_dst_addr[7] channel_dst_addr[80]
+ channel_dst_addr[81] channel_dst_addr[82] channel_dst_addr[83]
+ channel_dst_addr[84] channel_dst_addr[85] channel_dst_addr[86]
+ channel_dst_addr[87] channel_dst_addr[88] channel_dst_addr[89]
+ channel_dst_addr[8] channel_dst_addr[90] channel_dst_addr[91]
+ channel_dst_addr[92] channel_dst_addr[93] channel_dst_addr[94]
+ channel_dst_addr[95] channel_dst_addr[96] channel_dst_addr[97]
+ channel_dst_addr[98] channel_dst_addr[99] channel_dst_addr[9]
+ channel_enable[0] channel_enable[1] channel_enable[2] channel_enable[3]
+ channel_error[0] channel_error[1] channel_error[2] channel_error[3]
+ channel_length[0] channel_length[100] channel_length[101]
+ channel_length[102] channel_length[103] channel_length[104]
+ channel_length[105] channel_length[106] channel_length[107]
+ channel_length[108] channel_length[109] channel_length[10]
+ channel_length[110] channel_length[111] channel_length[112]
+ channel_length[113] channel_length[114] channel_length[115]
+ channel_length[116] channel_length[117] channel_length[118]
+ channel_length[119] channel_length[11] channel_length[120]
+ channel_length[121] channel_length[122] channel_length[123]
+ channel_length[124] channel_length[125] channel_length[126]
+ channel_length[127] channel_length[12] channel_length[13]
+ channel_length[14] channel_length[15] channel_length[16] channel_length[17]
+ channel_length[18] channel_length[19] channel_length[1] channel_length[20]
+ channel_length[21] channel_length[22] channel_length[23] channel_length[24]
+ channel_length[25] channel_length[26] channel_length[27] channel_length[28]
+ channel_length[29] channel_length[2] channel_length[30] channel_length[31]
+ channel_length[32] channel_length[33] channel_length[34] channel_length[35]
+ channel_length[36] channel_length[37] channel_length[38] channel_length[39]
+ channel_length[3] channel_length[40] channel_length[41] channel_length[42]
+ channel_length[43] channel_length[44] channel_length[45] channel_length[46]
+ channel_length[47] channel_length[48] channel_length[49] channel_length[4]
+ channel_length[50] channel_length[51] channel_length[52] channel_length[53]
+ channel_length[54] channel_length[55] channel_length[56] channel_length[57]
+ channel_length[58] channel_length[59] channel_length[5] channel_length[60]
+ channel_length[61] channel_length[62] channel_length[63] channel_length[64]
+ channel_length[65] channel_length[66] channel_length[67] channel_length[68]
+ channel_length[69] channel_length[6] channel_length[70] channel_length[71]
+ channel_length[72] channel_length[73] channel_length[74] channel_length[75]
+ channel_length[76] channel_length[77] channel_length[78] channel_length[79]
+ channel_length[7] channel_length[80] channel_length[81] channel_length[82]
+ channel_length[83] channel_length[84] channel_length[85] channel_length[86]
+ channel_length[87] channel_length[88] channel_length[89] channel_length[8]
+ channel_length[90] channel_length[91] channel_length[92] channel_length[93]
+ channel_length[94] channel_length[95] channel_length[96] channel_length[97]
+ channel_length[98] channel_length[99] channel_length[9] channel_mode[0]
+ channel_mode[1] channel_mode[2] channel_mode[3] channel_mode[4]
+ channel_mode[5] channel_mode[6] channel_mode[7] channel_src_addr[0]
+ channel_src_addr[100] channel_src_addr[101] channel_src_addr[102]
+ channel_src_addr[103] channel_src_addr[104] channel_src_addr[105]
+ channel_src_addr[106] channel_src_addr[107] channel_src_addr[108]
+ channel_src_addr[109] channel_src_addr[10] channel_src_addr[110]
+ channel_src_addr[111] channel_src_addr[112] channel_src_addr[113]
+ channel_src_addr[114] channel_src_addr[115] channel_src_addr[116]
+ channel_src_addr[117] channel_src_addr[118] channel_src_addr[119]
+ channel_src_addr[11] channel_src_addr[120] channel_src_addr[121]
+ channel_src_addr[122] channel_src_addr[123] channel_src_addr[124]
+ channel_src_addr[125] channel_src_addr[126] channel_src_addr[127]
+ channel_src_addr[12] channel_src_addr[13] channel_src_addr[14]
+ channel_src_addr[15] channel_src_addr[16] channel_src_addr[17]
+ channel_src_addr[18] channel_src_addr[19] channel_src_addr[1]
+ channel_src_addr[20] channel_src_addr[21] channel_src_addr[22]
+ channel_src_addr[23] channel_src_addr[24] channel_src_addr[25]
+ channel_src_addr[26] channel_src_addr[27] channel_src_addr[28]
+ channel_src_addr[29] channel_src_addr[2] channel_src_addr[30]
+ channel_src_addr[31] channel_src_addr[32] channel_src_addr[33]
+ channel_src_addr[34] channel_src_addr[35] channel_src_addr[36]
+ channel_src_addr[37] channel_src_addr[38] channel_src_addr[39]
+ channel_src_addr[3] channel_src_addr[40] channel_src_addr[41]
+ channel_src_addr[42] channel_src_addr[43] channel_src_addr[44]
+ channel_src_addr[45] channel_src_addr[46] channel_src_addr[47]
+ channel_src_addr[48] channel_src_addr[49] channel_src_addr[4]
+ channel_src_addr[50] channel_src_addr[51] channel_src_addr[52]
+ channel_src_addr[53] channel_src_addr[54] channel_src_addr[55]
+ channel_src_addr[56] channel_src_addr[57] channel_src_addr[58]
+ channel_src_addr[59] channel_src_addr[5] channel_src_addr[60]
+ channel_src_addr[61] channel_src_addr[62] channel_src_addr[63]
+ channel_src_addr[64] channel_src_addr[65] channel_src_addr[66]
+ channel_src_addr[67] channel_src_addr[68] channel_src_addr[69]
+ channel_src_addr[6] channel_src_addr[70] channel_src_addr[71]
+ channel_src_addr[72] channel_src_addr[73] channel_src_addr[74]
+ channel_src_addr[75] channel_src_addr[76] channel_src_addr[77]
+ channel_src_addr[78] channel_src_addr[79] channel_src_addr[7]
+ channel_src_addr[80] channel_src_addr[81] channel_src_addr[82]
+ channel_src_addr[83] channel_src_addr[84] channel_src_addr[85]
+ channel_src_addr[86] channel_src_addr[87] channel_src_addr[88]
+ channel_src_addr[89] channel_src_addr[8] channel_src_addr[90]
+ channel_src_addr[91] channel_src_addr[92] channel_src_addr[93]
+ channel_src_addr[94] channel_src_addr[95] channel_src_addr[96]
+ channel_src_addr[97] channel_src_addr[98] channel_src_addr[99]
+ channel_src_addr[9] channel_start[0] channel_start[1] channel_start[2]
+ channel_start[3] clk debug_active_channels[0] debug_active_channels[1]
+ debug_active_channels[2] debug_active_channels[3] debug_channel_state[0]
+ debug_channel_state[10] debug_channel_state[11] debug_channel_state[1]
+ debug_channel_state[2] debug_channel_state[3] debug_channel_state[4]
+ debug_channel_state[5] debug_channel_state[6] debug_channel_state[7]
+ debug_channel_state[8] debug_channel_state[9] debug_has_active_channels
+ debug_transfer_count[0] debug_transfer_count[100] debug_transfer_count[101]
+ debug_transfer_count[102] debug_transfer_count[103] debug_transfer_count[104]
+ debug_transfer_count[105] debug_transfer_count[106] debug_transfer_count[107]
+ debug_transfer_count[108] debug_transfer_count[109] debug_transfer_count[10]
+ debug_transfer_count[110] debug_transfer_count[111] debug_transfer_count[112]
+ debug_transfer_count[113] debug_transfer_count[114] debug_transfer_count[115]
+ debug_transfer_count[116] debug_transfer_count[117] debug_transfer_count[118]
+ debug_transfer_count[119] debug_transfer_count[11] debug_transfer_count[120]
+ debug_transfer_count[121] debug_transfer_count[122] debug_transfer_count[123]
+ debug_transfer_count[124] debug_transfer_count[125] debug_transfer_count[126]
+ debug_transfer_count[127] debug_transfer_count[12] debug_transfer_count[13]
+ debug_transfer_count[14] debug_transfer_count[15] debug_transfer_count[16]
+ debug_transfer_count[17] debug_transfer_count[18] debug_transfer_count[19]
+ debug_transfer_count[1] debug_transfer_count[20] debug_transfer_count[21]
+ debug_transfer_count[22] debug_transfer_count[23] debug_transfer_count[24]
+ debug_transfer_count[25] debug_transfer_count[26] debug_transfer_count[27]
+ debug_transfer_count[28] debug_transfer_count[29] debug_transfer_count[2]
+ debug_transfer_count[30] debug_transfer_count[31] debug_transfer_count[32]
+ debug_transfer_count[33] debug_transfer_count[34] debug_transfer_count[35]
+ debug_transfer_count[36] debug_transfer_count[37] debug_transfer_count[38]
+ debug_transfer_count[39] debug_transfer_count[3] debug_transfer_count[40]
+ debug_transfer_count[41] debug_transfer_count[42] debug_transfer_count[43]
+ debug_transfer_count[44] debug_transfer_count[45] debug_transfer_count[46]
+ debug_transfer_count[47] debug_transfer_count[48] debug_transfer_count[49]
+ debug_transfer_count[4] debug_transfer_count[50] debug_transfer_count[51]
+ debug_transfer_count[52] debug_transfer_count[53] debug_transfer_count[54]
+ debug_transfer_count[55] debug_transfer_count[56] debug_transfer_count[57]
+ debug_transfer_count[58] debug_transfer_count[59] debug_transfer_count[5]
+ debug_transfer_count[60] debug_transfer_count[61] debug_transfer_count[62]
+ debug_transfer_count[63] debug_transfer_count[64] debug_transfer_count[65]
+ debug_transfer_count[66] debug_transfer_count[67] debug_transfer_count[68]
+ debug_transfer_count[69] debug_transfer_count[6] debug_transfer_count[70]
+ debug_transfer_count[71] debug_transfer_count[72] debug_transfer_count[73]
+ debug_transfer_count[74] debug_transfer_count[75] debug_transfer_count[76]
+ debug_transfer_count[77] debug_transfer_count[78] debug_transfer_count[79]
+ debug_transfer_count[7] debug_transfer_count[80] debug_transfer_count[81]
+ debug_transfer_count[82] debug_transfer_count[83] debug_transfer_count[84]
+ debug_transfer_count[85] debug_transfer_count[86] debug_transfer_count[87]
+ debug_transfer_count[88] debug_transfer_count[89] debug_transfer_count[8]
+ debug_transfer_count[90] debug_transfer_count[91] debug_transfer_count[92]
+ debug_transfer_count[93] debug_transfer_count[94] debug_transfer_count[95]
+ debug_transfer_count[96] debug_transfer_count[97] debug_transfer_count[98]
+ debug_transfer_count[99] debug_transfer_count[9] dst_addr[0]
+ dst_addr[100] dst_addr[101] dst_addr[102] dst_addr[103] dst_addr[104]
+ dst_addr[105] dst_addr[106] dst_addr[107] dst_addr[108] dst_addr[109]
+ dst_addr[10] dst_addr[110] dst_addr[111] dst_addr[112] dst_addr[113]
+ dst_addr[114] dst_addr[115] dst_addr[116] dst_addr[117] dst_addr[118]
+ dst_addr[119] dst_addr[11] dst_addr[120] dst_addr[121] dst_addr[122]
+ dst_addr[123] dst_addr[124] dst_addr[125] dst_addr[126] dst_addr[127]
+ dst_addr[12] dst_addr[13] dst_addr[14] dst_addr[15] dst_addr[16]
+ dst_addr[17] dst_addr[18] dst_addr[19] dst_addr[1] dst_addr[20]
+ dst_addr[21] dst_addr[22] dst_addr[23] dst_addr[24] dst_addr[25]
+ dst_addr[26] dst_addr[27] dst_addr[28] dst_addr[29] dst_addr[2]
+ dst_addr[30] dst_addr[31] dst_addr[32] dst_addr[33] dst_addr[34]
+ dst_addr[35] dst_addr[36] dst_addr[37] dst_addr[38] dst_addr[39]
+ dst_addr[3] dst_addr[40] dst_addr[41] dst_addr[42] dst_addr[43]
+ dst_addr[44] dst_addr[45] dst_addr[46] dst_addr[47] dst_addr[48]
+ dst_addr[49] dst_addr[4] dst_addr[50] dst_addr[51] dst_addr[52]
+ dst_addr[53] dst_addr[54] dst_addr[55] dst_addr[56] dst_addr[57]
+ dst_addr[58] dst_addr[59] dst_addr[5] dst_addr[60] dst_addr[61]
+ dst_addr[62] dst_addr[63] dst_addr[64] dst_addr[65] dst_addr[66]
+ dst_addr[67] dst_addr[68] dst_addr[69] dst_addr[6] dst_addr[70]
+ dst_addr[71] dst_addr[72] dst_addr[73] dst_addr[74] dst_addr[75]
+ dst_addr[76] dst_addr[77] dst_addr[78] dst_addr[79] dst_addr[7]
+ dst_addr[80] dst_addr[81] dst_addr[82] dst_addr[83] dst_addr[84]
+ dst_addr[85] dst_addr[86] dst_addr[87] dst_addr[88] dst_addr[89]
+ dst_addr[8] dst_addr[90] dst_addr[91] dst_addr[92] dst_addr[93]
+ dst_addr[94] dst_addr[95] dst_addr[96] dst_addr[97] dst_addr[98]
+ dst_addr[99] dst_addr[9] dst_wdata[0] dst_wdata[100] dst_wdata[101]
+ dst_wdata[102] dst_wdata[103] dst_wdata[104] dst_wdata[105]
+ dst_wdata[106] dst_wdata[107] dst_wdata[108] dst_wdata[109]
+ dst_wdata[10] dst_wdata[110] dst_wdata[111] dst_wdata[112]
+ dst_wdata[113] dst_wdata[114] dst_wdata[115] dst_wdata[116]
+ dst_wdata[117] dst_wdata[118] dst_wdata[119] dst_wdata[11]
+ dst_wdata[120] dst_wdata[121] dst_wdata[122] dst_wdata[123]
+ dst_wdata[124] dst_wdata[125] dst_wdata[126] dst_wdata[127]
+ dst_wdata[12] dst_wdata[13] dst_wdata[14] dst_wdata[15] dst_wdata[16]
+ dst_wdata[17] dst_wdata[18] dst_wdata[19] dst_wdata[1] dst_wdata[20]
+ dst_wdata[21] dst_wdata[22] dst_wdata[23] dst_wdata[24] dst_wdata[25]
+ dst_wdata[26] dst_wdata[27] dst_wdata[28] dst_wdata[29] dst_wdata[2]
+ dst_wdata[30] dst_wdata[31] dst_wdata[32] dst_wdata[33] dst_wdata[34]
+ dst_wdata[35] dst_wdata[36] dst_wdata[37] dst_wdata[38] dst_wdata[39]
+ dst_wdata[3] dst_wdata[40] dst_wdata[41] dst_wdata[42] dst_wdata[43]
+ dst_wdata[44] dst_wdata[45] dst_wdata[46] dst_wdata[47] dst_wdata[48]
+ dst_wdata[49] dst_wdata[4] dst_wdata[50] dst_wdata[51] dst_wdata[52]
+ dst_wdata[53] dst_wdata[54] dst_wdata[55] dst_wdata[56] dst_wdata[57]
+ dst_wdata[58] dst_wdata[59] dst_wdata[5] dst_wdata[60] dst_wdata[61]
+ dst_wdata[62] dst_wdata[63] dst_wdata[64] dst_wdata[65] dst_wdata[66]
+ dst_wdata[67] dst_wdata[68] dst_wdata[69] dst_wdata[6] dst_wdata[70]
+ dst_wdata[71] dst_wdata[72] dst_wdata[73] dst_wdata[74] dst_wdata[75]
+ dst_wdata[76] dst_wdata[77] dst_wdata[78] dst_wdata[79] dst_wdata[7]
+ dst_wdata[80] dst_wdata[81] dst_wdata[82] dst_wdata[83] dst_wdata[84]
+ dst_wdata[85] dst_wdata[86] dst_wdata[87] dst_wdata[88] dst_wdata[89]
+ dst_wdata[8] dst_wdata[90] dst_wdata[91] dst_wdata[92] dst_wdata[93]
+ dst_wdata[94] dst_wdata[95] dst_wdata[96] dst_wdata[97] dst_wdata[98]
+ dst_wdata[99] dst_wdata[9] dst_wready[0] dst_wready[1] dst_wready[2]
+ dst_wready[3] dst_write[0] dst_write[1] dst_write[2] dst_write[3]
+ dst_wstrb[0] dst_wstrb[10] dst_wstrb[11] dst_wstrb[12] dst_wstrb[13]
+ dst_wstrb[14] dst_wstrb[15] dst_wstrb[1] dst_wstrb[2] dst_wstrb[3]
+ dst_wstrb[4] dst_wstrb[5] dst_wstrb[6] dst_wstrb[7] dst_wstrb[8]
+ dst_wstrb[9] rst_n src_addr[0] src_addr[100] src_addr[101]
+ src_addr[102] src_addr[103] src_addr[104] src_addr[105] src_addr[106]
+ src_addr[107] src_addr[108] src_addr[109] src_addr[10] src_addr[110]
+ src_addr[111] src_addr[112] src_addr[113] src_addr[114] src_addr[115]
+ src_addr[116] src_addr[117] src_addr[118] src_addr[119] src_addr[11]
+ src_addr[120] src_addr[121] src_addr[122] src_addr[123] src_addr[124]
+ src_addr[125] src_addr[126] src_addr[127] src_addr[12] src_addr[13]
+ src_addr[14] src_addr[15] src_addr[16] src_addr[17] src_addr[18]
+ src_addr[19] src_addr[1] src_addr[20] src_addr[21] src_addr[22]
+ src_addr[23] src_addr[24] src_addr[25] src_addr[26] src_addr[27]
+ src_addr[28] src_addr[29] src_addr[2] src_addr[30] src_addr[31]
+ src_addr[32] src_addr[33] src_addr[34] src_addr[35] src_addr[36]
+ src_addr[37] src_addr[38] src_addr[39] src_addr[3] src_addr[40]
+ src_addr[41] src_addr[42] src_addr[43] src_addr[44] src_addr[45]
+ src_addr[46] src_addr[47] src_addr[48] src_addr[49] src_addr[4]
+ src_addr[50] src_addr[51] src_addr[52] src_addr[53] src_addr[54]
+ src_addr[55] src_addr[56] src_addr[57] src_addr[58] src_addr[59]
+ src_addr[5] src_addr[60] src_addr[61] src_addr[62] src_addr[63]
+ src_addr[64] src_addr[65] src_addr[66] src_addr[67] src_addr[68]
+ src_addr[69] src_addr[6] src_addr[70] src_addr[71] src_addr[72]
+ src_addr[73] src_addr[74] src_addr[75] src_addr[76] src_addr[77]
+ src_addr[78] src_addr[79] src_addr[7] src_addr[80] src_addr[81]
+ src_addr[82] src_addr[83] src_addr[84] src_addr[85] src_addr[86]
+ src_addr[87] src_addr[88] src_addr[89] src_addr[8] src_addr[90]
+ src_addr[91] src_addr[92] src_addr[93] src_addr[94] src_addr[95]
+ src_addr[96] src_addr[97] src_addr[98] src_addr[99] src_addr[9]
+ src_rdata[0] src_rdata[100] src_rdata[101] src_rdata[102]
+ src_rdata[103] src_rdata[104] src_rdata[105] src_rdata[106]
+ src_rdata[107] src_rdata[108] src_rdata[109] src_rdata[10]
+ src_rdata[110] src_rdata[111] src_rdata[112] src_rdata[113]
+ src_rdata[114] src_rdata[115] src_rdata[116] src_rdata[117]
+ src_rdata[118] src_rdata[119] src_rdata[11] src_rdata[120]
+ src_rdata[121] src_rdata[122] src_rdata[123] src_rdata[124]
+ src_rdata[125] src_rdata[126] src_rdata[127] src_rdata[12]
+ src_rdata[13] src_rdata[14] src_rdata[15] src_rdata[16] src_rdata[17]
+ src_rdata[18] src_rdata[19] src_rdata[1] src_rdata[20] src_rdata[21]
+ src_rdata[22] src_rdata[23] src_rdata[24] src_rdata[25] src_rdata[26]
+ src_rdata[27] src_rdata[28] src_rdata[29] src_rdata[2] src_rdata[30]
+ src_rdata[31] src_rdata[32] src_rdata[33] src_rdata[34] src_rdata[35]
+ src_rdata[36] src_rdata[37] src_rdata[38] src_rdata[39] src_rdata[3]
+ src_rdata[40] src_rdata[41] src_rdata[42] src_rdata[43] src_rdata[44]
+ src_rdata[45] src_rdata[46] src_rdata[47] src_rdata[48] src_rdata[49]
+ src_rdata[4] src_rdata[50] src_rdata[51] src_rdata[52] src_rdata[53]
+ src_rdata[54] src_rdata[55] src_rdata[56] src_rdata[57] src_rdata[58]
+ src_rdata[59] src_rdata[5] src_rdata[60] src_rdata[61] src_rdata[62]
+ src_rdata[63] src_rdata[64] src_rdata[65] src_rdata[66] src_rdata[67]
+ src_rdata[68] src_rdata[69] src_rdata[6] src_rdata[70] src_rdata[71]
+ src_rdata[72] src_rdata[73] src_rdata[74] src_rdata[75] src_rdata[76]
+ src_rdata[77] src_rdata[78] src_rdata[79] src_rdata[7] src_rdata[80]
+ src_rdata[81] src_rdata[82] src_rdata[83] src_rdata[84] src_rdata[85]
+ src_rdata[86] src_rdata[87] src_rdata[88] src_rdata[89] src_rdata[8]
+ src_rdata[90] src_rdata[91] src_rdata[92] src_rdata[93] src_rdata[94]
+ src_rdata[95] src_rdata[96] src_rdata[97] src_rdata[98] src_rdata[99]
+ src_rdata[9] src_read[0] src_read[1] src_read[2] src_read[3]
+ src_rready[0] src_rready[1] src_rready[2] src_rready[3] src_rvalid[0]
+ src_rvalid[1] src_rvalid[2] src_rvalid[3]
X_1868_ rst_n _1087_ VDD VSS BUF_X8
X_1869_ _1087_ _1088_ VDD VSS BUF_X4
X_1870_ _1088_ _1089_ VDD VSS BUF_X4
X_1871_ _1089_ _1090_ VDD VSS BUF_X4
X_1872_ channel_state\[2\]\[0\] _1091_ VDD VSS CLKBUF_X3
X_1873_ channel_state\[2\]\[4\] _1091_ _1092_ VDD VSS NOR2_X1
X_1874_ net129 _1093_ VDD VSS INV_X1
X_1875_ channel_enable[2] _1094_ VDD VSS BUF_X2
X_1876_ _1094_ _1095_ VDD VSS INV_X1
X_1877_ _1093_ _1091_ _1095_ _1096_ VDD VSS AOI21_X1
X_1878_ _1090_ _1092_ _1096_ _0014_ VDD VSS OAI21_X1
X_1879_ transfer_count\[2\]\[5\] _1097_ VDD VSS BUF_X2
X_1880_ transfer_count\[2\]\[3\] _1098_ VDD VSS CLKBUF_X3
X_1881_ transfer_count\[2\]\[4\] _1099_ VDD VSS BUF_X2
X_1882_ transfer_count\[2\]\[2\] _1100_ VDD VSS CLKBUF_X3
X_1883_ _1100_ transfer_count\[2\]\[1\] transfer_count\[2\]\[0\]
+ _1101_ VDD VSS NAND3_X2
X_1884_ _1101_ _1102_ VDD VSS INV_X1
X_1885_ _1098_ _1099_ _1102_ _1103_ VDD VSS NAND3_X1
X_1886_ _1097_ _1103_ _1486_ VDD VSS XOR2_X2
X_1887_ transfer_count\[2\]\[13\] _1104_ VDD VSS INV_X1
X_1888_ transfer_count\[2\]\[12\] _1105_ VDD VSS BUF_X1
X_1889_ _1105_ _1106_ VDD VSS INV_X1
X_1890_ transfer_count\[2\]\[11\] _1107_ VDD VSS INV_X1
X_1891_ transfer_count\[2\]\[7\] _1108_ VDD VSS BUF_X2
X_1892_ _1100_ transfer_count\[2\]\[1\] transfer_count\[2\]\[0\]
+ _1108_ _1109_ VDD VSS NAND4_X4
X_1893_ transfer_count\[2\]\[10\] _1110_ VDD VSS INV_X1
X_1894_ transfer_count\[2\]\[9\] _1111_ VDD VSS INV_X1
X_1895_ transfer_count\[2\]\[8\] _1112_ VDD VSS CLKBUF_X2
X_1896_ _1112_ _1113_ VDD VSS INV_X1
X_1897_ _1098_ transfer_count\[2\]\[6\] _1097_ _1099_ _1114_
+ VDD VSS NAND4_X4
X_1898_ _1110_ _1111_ _1113_ _1114_ _1115_ VDD VSS OR4_X1
X_1899_ _1106_ _1107_ _1109_ _1115_ _1116_ VDD VSS OR4_X1
X_1900_ _1104_ _1116_ _1498_ VDD VSS XNOR2_X1
X_1901_ _1113_ _1109_ _1114_ _1117_ VDD VSS NOR3_X2
X_1902_ transfer_count\[2\]\[9\] _1117_ _1510_ VDD VSS XNOR2_X2
X_1903_ transfer_count\[2\]\[29\] _1118_ VDD VSS BUF_X1
X_1904_ transfer_count\[2\]\[11\] transfer_count\[2\]\[10\]
+ transfer_count\[2\]\[9\] _1112_ _1119_ VDD VSS NAND4_X1
X_1905_ _1109_ _1114_ _1119_ _1120_ VDD VSS OR3_X4
X_1906_ transfer_count\[2\]\[28\] _1121_ VDD VSS CLKBUF_X2
X_1907_ transfer_count\[2\]\[27\] _1122_ VDD VSS CLKBUF_X2
X_1908_ transfer_count\[2\]\[26\] _1123_ VDD VSS BUF_X2
X_1909_ _1121_ _1122_ _1123_ _1124_ VDD VSS NAND3_X1
X_1910_ transfer_count\[2\]\[24\] _1125_ VDD VSS BUF_X2
X_1911_ transfer_count\[2\]\[21\] _1126_ VDD VSS BUF_X2
X_1912_ transfer_count\[2\]\[20\] _1127_ VDD VSS CLKBUF_X3
X_1913_ transfer_count\[2\]\[23\] transfer_count\[2\]\[22\]
+ _1126_ _1127_ _1128_ VDD VSS AND4_X2
X_1914_ transfer_count\[2\]\[25\] _1125_ _1128_ _1129_ VDD
+ VSS NAND3_X4
X_1915_ transfer_count\[2\]\[16\] _1130_ VDD VSS BUF_X2
X_1916_ transfer_count\[2\]\[14\] _1131_ VDD VSS BUF_X1
X_1917_ _1131_ transfer_count\[2\]\[13\] _1105_ transfer_count\[2\]\[15\]
+ _1132_ VDD VSS AND4_X1
X_1918_ transfer_count\[2\]\[18\] _1133_ VDD VSS BUF_X1
X_1919_ transfer_count\[2\]\[17\] _1134_ VDD VSS BUF_X1
X_1920_ transfer_count\[2\]\[19\] _1133_ _1134_ _1135_ VDD
+ VSS AND3_X1
X_1921_ _1130_ _1132_ _1135_ _1136_ VDD VSS NAND3_X4
X_1922_ _1120_ _1124_ _1129_ _1136_ _1137_ VDD VSS NOR4_X2
X_1923_ _1118_ _1137_ _1522_ VDD VSS XNOR2_X1
X_1924_ transfer_count\[2\]\[25\] _1138_ VDD VSS INV_X1
X_1925_ _1125_ _1128_ _1139_ VDD VSS AND2_X1
X_1926_ _1120_ _1136_ _1140_ VDD VSS NOR2_X4
X_1927_ _1139_ _1140_ _1141_ VDD VSS NAND2_X1
X_1928_ _1138_ _1141_ _1534_ VDD VSS XNOR2_X1
X_1929_ _1127_ _1140_ _1142_ VDD VSS NAND2_X1
X_1930_ _1126_ _1142_ _1546_ VDD VSS XOR2_X2
X_1931_ _1130_ _1132_ _1143_ VDD VSS NAND2_X1
X_1932_ _1120_ _1143_ _1144_ VDD VSS NOR2_X2
X_1933_ _1134_ _1144_ _1558_ VDD VSS XNOR2_X1
X_1934_ _1518_ _1524_ _1521_ _1527_ _1145_ VDD VSS NAND4_X2
X_1935_ _1530_ _1536_ _1533_ _1539_ _1146_ VDD VSS NAND4_X1
X_1936_ _1542_ _1548_ _1545_ _1551_ _1147_ VDD VSS NAND4_X2
X_1937_ _1145_ _1146_ _1147_ _1148_ VDD VSS NOR3_X1
X_1938_ _1553_ _1556_ _1554_ _1149_ VDD VSS AOI21_X1
X_1939_ _1559_ _1562_ _1560_ _1150_ VDD VSS AOI21_X1
X_1940_ _1554_ _1557_ _1151_ VDD VSS NAND2_X1
X_1941_ _1149_ _1150_ _1151_ _1152_ VDD VSS OAI21_X1
X_1942_ _1524_ _1521_ _1526_ _1153_ VDD VSS NAND3_X1
X_1943_ _1520_ _1523_ _1521_ _1154_ VDD VSS AOI21_X1
X_1944_ _1153_ _1154_ _1155_ VDD VSS NAND2_X1
X_1945_ _1517_ _1148_ _1152_ _1155_ _1518_ _1156_ VDD VSS
+ AOI221_X2
X_1946_ _1542_ _1545_ _1157_ VDD VSS AND2_X1
X_1947_ _1547_ _1550_ _1548_ _1158_ VDD VSS AOI21_X1
X_1948_ _1158_ _1159_ VDD VSS INV_X1
X_1949_ _1541_ _1157_ _1159_ _1544_ _1542_ _1160_ VDD VSS
+ AOI221_X2
X_1950_ _1145_ _1146_ _1161_ VDD VSS OR2_X2
X_1951_ _1532_ _1162_ VDD VSS INV_X1
X_1952_ _1535_ _1538_ _1536_ _1163_ VDD VSS AOI21_X1
X_1953_ _1533_ _1164_ VDD VSS INV_X1
X_1954_ _1162_ _1163_ _1164_ _1165_ VDD VSS OAI21_X1
X_1955_ _1529_ _1165_ _1530_ _1166_ VDD VSS AOI21_X1
X_1956_ _1156_ _1160_ _1161_ _1145_ _1166_ _1167_ VDD VSS
+ OAI221_X2
X_1957_ _1476_ _1479_ _1168_ VDD VSS AND2_X1
X_1958_ _1506_ _1512_ _1509_ _1515_ _1169_ VDD VSS NAND4_X4
X_1959_ _1494_ _1500_ _1497_ _1503_ _1170_ VDD VSS NAND4_X4
X_1960_ _1482_ _1485_ _1171_ VDD VSS NAND2_X2
X_1961_ _1488_ _1491_ _1172_ VDD VSS NAND2_X2
X_1962_ _1169_ _1170_ _1171_ _1172_ _1173_ VDD VSS NOR4_X4
X_1963_ _1560_ _1563_ _1174_ VDD VSS NAND2_X1
X_1964_ _1161_ _1147_ _1151_ _1174_ _1175_ VDD VSS NOR4_X4
X_1965_ _1473_ _1468_ _1176_ VDD VSS AND2_X1
X_1966_ _1168_ _1173_ _1175_ _1176_ _1177_ VDD VSS NAND4_X4
X_1967_ _1087_ _1178_ VDD VSS INV_X8
X_1968_ channel_state\[2\]\[1\] _1179_ VDD VSS CLKBUF_X3
X_1969_ net132 _1179_ _1180_ VDD VSS NAND2_X4
X_1970_ _1178_ _1180_ _1181_ VDD VSS NOR2_X4
X_1971_ _1167_ _1177_ _1181_ _1182_ VDD VSS NAND3_X1
X_1972_ _1177_ _1181_ _1183_ VDD VSS NAND2_X1
X_1973_ _1169_ _1170_ _1184_ VDD VSS NOR2_X1
X_1974_ _1481_ _1484_ _1482_ _1185_ VDD VSS AOI21_X1
X_1975_ _1487_ _1490_ _1488_ _1186_ VDD VSS AOI21_X1
X_1976_ _1185_ _1171_ _1186_ _1187_ VDD VSS OAI21_X1
X_1977_ _1500_ _1497_ _1502_ _1188_ VDD VSS NAND3_X1
X_1978_ _1496_ _1499_ _1497_ _1189_ VDD VSS AOI21_X1
X_1979_ _1188_ _1189_ _1190_ VDD VSS NAND2_X1
X_1980_ _1493_ _1184_ _1187_ _1190_ _1494_ _1191_ VDD VSS
+ AOI221_X2
X_1981_ _1170_ _1192_ VDD VSS INV_X1
X_1982_ _1505_ _1508_ _1506_ _1193_ VDD VSS AOI21_X1
X_1983_ _1506_ _1509_ _1194_ VDD VSS NAND2_X1
X_1984_ _1511_ _1514_ _1512_ _1195_ VDD VSS AOI21_X1
X_1985_ _1193_ _1194_ _1195_ _1196_ VDD VSS OAI21_X1
X_1986_ _1192_ _1196_ _1197_ VDD VSS NAND2_X1
X_1987_ _1472_ _1198_ VDD VSS INV_X1
X_1988_ _1473_ _1199_ VDD VSS INV_X1
X_1989_ _1198_ _1467_ _1199_ _1200_ VDD VSS OAI21_X1
X_1990_ _1475_ _1200_ _1168_ _1478_ _1476_ _1201_ VDD VSS
+ AOI221_X2
X_1991_ _1169_ _1170_ _1171_ _1172_ _1202_ VDD VSS OR4_X2
X_1992_ _1191_ _1197_ _1201_ _1202_ _1203_ VDD VSS OAI211_X4
X_1993_ _1203_ _1175_ _1204_ VDD VSS NAND2_X1
X_1994_ _1178_ _1205_ VDD VSS BUF_X8
X_1995_ _1205_ _1206_ VDD VSS BUF_X4
X_1996_ net129 _1091_ _1094_ _1207_ VDD VSS NAND3_X4
X_1997_ _1182_ _1183_ _1204_ _1206_ _1207_ _0017_ VDD VSS
+ OAI221_X1
X_1998_ transfer_count\[1\]\[28\] _1208_ VDD VSS CLKBUF_X2
X_1999_ transfer_count\[1\]\[27\] _1209_ VDD VSS BUF_X2
X_2000_ transfer_count\[1\]\[26\] _1210_ VDD VSS BUF_X1
X_2001_ transfer_count\[1\]\[25\] _1211_ VDD VSS CLKBUF_X2
X_2002_ transfer_count\[1\]\[24\] _1212_ VDD VSS BUF_X2
X_2003_ transfer_count\[1\]\[23\] _1213_ VDD VSS BUF_X2
X_2004_ _1210_ _1211_ _1212_ _1213_ _1214_ VDD VSS AND4_X2
X_2005_ _1208_ _1209_ _1214_ _1215_ VDD VSS NAND3_X1
X_2006_ transfer_count\[1\]\[22\] _1216_ VDD VSS BUF_X2
X_2007_ transfer_count\[1\]\[21\] _1217_ VDD VSS CLKBUF_X3
X_2008_ _1216_ _1217_ _1218_ VDD VSS NAND2_X4
X_2009_ transfer_count\[1\]\[20\] _1219_ VDD VSS BUF_X2
X_2010_ transfer_count\[1\]\[16\] _1220_ VDD VSS BUF_X2
X_2011_ transfer_count\[1\]\[15\] _1221_ VDD VSS BUF_X2
X_2012_ transfer_count\[1\]\[14\] _1222_ VDD VSS BUF_X4
X_2013_ transfer_count\[1\]\[17\] _1220_ _1221_ _1222_ _1223_
+ VDD VSS AND4_X2
X_2014_ transfer_count\[1\]\[18\] _1224_ VDD VSS BUF_X2
X_2015_ transfer_count\[1\]\[19\] _1224_ _1225_ VDD VSS AND2_X2
X_2016_ _1219_ _1223_ _1225_ _1226_ VDD VSS NAND3_X4
X_2017_ transfer_count\[1\]\[6\] _1227_ VDD VSS BUF_X2
X_2018_ transfer_count\[1\]\[5\] _1228_ VDD VSS BUF_X2
X_2019_ transfer_count\[1\]\[4\] _1229_ VDD VSS BUF_X2
X_2020_ _1227_ _1228_ _1229_ _1230_ VDD VSS NAND3_X4
X_2021_ transfer_count\[1\]\[3\] _1231_ VDD VSS CLKBUF_X3
X_2022_ transfer_count\[1\]\[2\] _1232_ VDD VSS CLKBUF_X3
X_2023_ _1231_ _1232_ transfer_count\[1\]\[1\] transfer_count\[1\]\[0\]
+ _1233_ VDD VSS NAND4_X4
X_2024_ _1230_ _1233_ _1234_ VDD VSS OR2_X2
X_2025_ transfer_count\[1\]\[8\] _1235_ VDD VSS BUF_X4
X_2026_ transfer_count\[1\]\[7\] _1236_ VDD VSS BUF_X4
X_2027_ transfer_count\[1\]\[10\] transfer_count\[1\]\[9\]
+ _1235_ _1236_ _1237_ VDD VSS NAND4_X4
X_2028_ transfer_count\[1\]\[12\] _1238_ VDD VSS BUF_X2
X_2029_ transfer_count\[1\]\[11\] _1239_ VDD VSS CLKBUF_X3
X_2030_ transfer_count\[1\]\[13\] _1238_ _1239_ _1240_ VDD
+ VSS NAND3_X4
X_2031_ _1237_ _1240_ _1241_ VDD VSS OR2_X2
X_2032_ _1226_ _1234_ _1241_ _1242_ VDD VSS OR3_X4
X_2033_ _1215_ _1218_ _1242_ _1243_ VDD VSS NOR3_X2
X_2034_ transfer_count\[1\]\[29\] _1243_ _1570_ VDD VSS XNOR2_X2
X_2035_ _1218_ _1226_ _1234_ _1241_ _1244_ VDD VSS NOR4_X4
X_2036_ _1214_ _1244_ _1245_ VDD VSS NAND2_X1
X_2037_ _1209_ _1245_ _1576_ VDD VSS XOR2_X2
X_2038_ _1212_ _1213_ _1246_ VDD VSS NAND2_X1
X_2039_ _1246_ _1218_ _1242_ _1247_ VDD VSS NOR3_X2
X_2040_ _1211_ _1247_ _1582_ VDD VSS XNOR2_X2
X_2041_ _1213_ _1244_ _1588_ VDD VSS XNOR2_X1
X_2042_ _1217_ _1242_ _1594_ VDD VSS XOR2_X2
X_2043_ _1224_ transfer_count\[1\]\[17\] _1220_ _1248_ VDD
+ VSS NAND3_X1
X_2044_ _1230_ _1233_ _1237_ _1240_ _1249_ VDD VSS NOR4_X4
X_2045_ _1221_ _1222_ _1249_ _1250_ VDD VSS NAND3_X1
X_2046_ _1248_ _1250_ _1251_ VDD VSS NOR2_X2
X_2047_ transfer_count\[1\]\[19\] _1251_ _1600_ VDD VSS XNOR2_X2
X_2048_ _1222_ _1249_ _1252_ VDD VSS NAND2_X1