
* cell configurable_sync_fifo
* pin data_in[2]
* pin data_in[0]
* pin data_in[1]
* pin rst_n
* pin data_out[5]
* pin wr_en
* pin full
* pin fill_level[2]
* pin fill_level[1]
* pin fill_level[0]
* pin almost_full
* pin fill_level[3]
* pin fill_level[4]
* pin almost_empty
* pin empty
* pin rd_en
* pin data_out[6]
* pin data_out[2]
* pin data_out[1]
* pin data_out[4]
* pin data_out[3]
* pin data_out[7]
* pin data_out[0]
* pin clk
* pin data_in[3]
* pin data_in[4]
* pin data_in[7]
* pin data_in[6]
* pin data_in[5]
.SUBCKT configurable_sync_fifo 1 2 3 4 5 6 7 8 51 63 118 119 120 141 152 168
+ 196 198 227 237 248 261 270 325 411 452 465 471 478
* net 1 data_in[2]
* net 2 data_in[0]
* net 3 data_in[1]
* net 4 rst_n
* net 5 data_out[5]
* net 6 wr_en
* net 7 full
* net 8 fill_level[2]
* net 51 fill_level[1]
* net 63 fill_level[0]
* net 118 almost_full
* net 119 fill_level[3]
* net 120 fill_level[4]
* net 141 almost_empty
* net 152 empty
* net 168 rd_en
* net 196 data_out[6]
* net 198 data_out[2]
* net 227 data_out[1]
* net 237 data_out[4]
* net 248 data_out[3]
* net 261 data_out[7]
* net 270 data_out[0]
* net 325 clk
* net 411 data_in[3]
* net 452 data_in[4]
* net 465 data_in[7]
* net 471 data_in[6]
* net 478 data_in[5]
* cell instance $3 r0 *1 19.78,2.72
X$3 34 1 34 10 18 10 sky130_fd_sc_hd__buf_4
* cell instance $6 r0 *1 33.58,2.72
X$6 34 2 34 20 10 10 sky130_fd_sc_hd__dlygate4sd3_1
* cell instance $9 r0 *1 39.1,2.72
X$9 34 3 34 10 11 10 sky130_fd_sc_hd__buf_4
* cell instance $11 r0 *1 57.5,2.72
X$11 34 4 34 12 10 10 sky130_fd_sc_hd__dlygate4sd3_1
* cell instance $15 r0 *1 76.36,2.72
X$15 34 21 5 10 34 10 sky130_fd_sc_hd__clkbuf_1
* cell instance $18 r0 *1 79.12,2.72
X$18 34 6 19 10 34 10 sky130_fd_sc_hd__clkbuf_1
* cell instance $21 r0 *1 77.74,2.72
X$21 34 16 7 10 34 10 sky130_fd_sc_hd__clkbuf_1
* cell instance $24 r0 *1 84.64,2.72
X$24 34 17 8 10 34 10 sky130_fd_sc_hd__clkbuf_1
* cell instance $27 r0 *1 61.18,2.72
X$27 10 491 26 9 25 34 34 10 sky130_fd_sc_hd__ha_1
* cell instance $29 m0 *1 57.04,8.16
X$29 10 39 9 31 36 34 34 10 sky130_fd_sc_hd__dfrtp_1
* cell instance $32 m0 *1 66.24,8.16
X$32 34 9 25 26 10 34 130 10 sky130_fd_sc_hd__a21o_1
* cell instance $35 r0 *1 68.54,2.72
X$35 34 9 34 10 14 10 sky130_fd_sc_hd__inv_1
* cell instance $37 r0 *1 62.56,8.16
X$37 10 490 75 9 60 34 34 10 sky130_fd_sc_hd__ha_1
* cell instance $74 r0 *1 43.24,2.72
X$74 10 13 24 23 22 34 34 10 sky130_fd_sc_hd__edfxtp_1
* cell instance $79 r0 *1 65.78,2.72
X$79 34 12 10 15 34 10 sky130_fd_sc_hd__clkbuf_4
* cell instance $83 r0 *1 70.84,2.72
X$83 10 15 39 34 34 10 sky130_fd_sc_hd__buf_8
* cell instance $104 m0 *1 6.9,8.16
X$104 10 27 45 28 18 34 34 10 sky130_fd_sc_hd__edfxtp_1
* cell instance $105 m0 *1 17.94,8.16
X$105 10 13 37 28 11 34 34 10 sky130_fd_sc_hd__edfxtp_1
* cell instance $109 m0 *1 33.58,8.16
X$109 34 20 34 10 22 10 sky130_fd_sc_hd__buf_4
* cell instance $111 m0 *1 40.02,8.16
X$111 10 27 29 23 22 34 34 10 sky130_fd_sc_hd__edfxtp_1
* cell instance $113 m0 *1 54.74,8.16
X$113 34 14 38 30 34 36 10 10 sky130_fd_sc_hd__o21ai_0
* cell instance $116 m0 *1 69.92,8.16
X$116 10 39 58 31 59 34 34 10 sky130_fd_sc_hd__dfrtp_1
* cell instance $118 m0 *1 79.58,8.16
X$118 34 16 19 55 10 34 10 sky130_fd_sc_hd__nor2b_1
* cell instance $119 m0 *1 81.88,8.16
X$119 34 32 40 33 34 35 10 10 sky130_fd_sc_hd__o21ai_0
* cell instance $122 m0 *1 84.64,8.16
X$122 34 41 78 34 40 10 10 sky130_fd_sc_hd__xor2_1
* cell instance $123 m0 *1 87.86,8.16
X$123 34 17 32 33 34 10 10 sky130_fd_sc_hd__nand2_1
* cell instance $125 m0 *1 91.08,8.16
X$125 34 42 34 10 54 10 sky130_fd_sc_hd__inv_1
* cell instance $126 m0 *1 92.46,8.16
X$126 10 82 53 43 32 34 34 10 sky130_fd_sc_hd__mux2i_1
* cell instance $127 m0 *1 96.14,8.16
X$127 10 39 42 44 52 34 34 10 sky130_fd_sc_hd__dfrtp_2
* cell instance $130 r0 *1 4.14,8.16
X$130 10 13 64 28 18 34 34 10 sky130_fd_sc_hd__edfxtp_1
* cell instance $134 r0 *1 16.56,8.16
X$134 34 45 47 64 46 34 65 10 10 sky130_fd_sc_hd__a22oi_1
* cell instance $136 r0 *1 23,8.16
X$136 10 27 56 28 11 34 34 10 sky130_fd_sc_hd__edfxtp_1
* cell instance $137 r0 *1 34.04,8.16
X$137 34 56 47 37 46 34 66 10 10 sky130_fd_sc_hd__a22oi_1
* cell instance $145 r0 *1 47.84,8.16
X$145 10 68 24 67 103 34 34 10 sky130_fd_sc_hd__mux2_1
* cell instance $148 r0 *1 53.36,8.16
X$148 10 39 25 23 70 34 34 10 sky130_fd_sc_hd__dfrtp_1
* cell instance $149 r0 *1 67.16,8.16
X$149 34 38 48 57 74 10 73 34 10 sky130_fd_sc_hd__a22o_1
* cell instance $152 r0 *1 70.84,8.16
X$152 34 72 49 59 34 10 10 sky130_fd_sc_hd__xnor2_1
* cell instance $153 r0 *1 74.06,8.16
X$153 10 58 49 34 34 10 sky130_fd_sc_hd__buf_6
* cell instance $154 r0 *1 78.2,8.16
X$154 10 39 17 44 35 34 34 10 sky130_fd_sc_hd__dfrtp_2
* cell instance $155 r0 *1 87.86,8.16
X$155 10 41 53 54 62 43 34 34 10 sky130_fd_sc_hd__fa_1
* cell instance $156 r0 *1 95.22,8.16
X$156 34 50 34 10 43 10 sky130_fd_sc_hd__inv_1
* cell instance $161 r0 *1 98.44,8.16
X$161 34 32 42 52 34 10 10 sky130_fd_sc_hd__xnor2_1
* cell instance $164 r0 *1 103.04,8.16
X$164 34 50 51 10 34 10 sky130_fd_sc_hd__clkbuf_1
* cell instance $165 r0 *1 104.42,8.16
X$165 34 42 63 10 34 10 sky130_fd_sc_hd__clkbuf_1
* cell instance $177 m0 *1 7.36,13.6
X$177 10 13 81 28 79 34 34 10 sky130_fd_sc_hd__edfxtp_1
* cell instance $187 m0 *1 37.26,13.6
X$187 10 83 67 23 22 34 34 10 sky130_fd_sc_hd__edfxtp_1
* cell instance $188 m0 *1 48.3,13.6
X$188 10 86 90 89 34 34 10 sky130_fd_sc_hd__nor2_4
* cell instance $190 m0 *1 52.9,13.6
X$190 34 14 38 71 30 34 10 10 sky130_fd_sc_hd__nand3_1
* cell instance $191 m0 *1 54.74,13.6
X$191 34 60 38 87 34 70 10 10 sky130_fd_sc_hd__o21ai_0
* cell instance $193 m0 *1 57.04,13.6
X$193 34 76 38 87 34 10 10 sky130_fd_sc_hd__nand2_1
* cell instance $194 m0 *1 58.42,13.6
X$194 34 49 57 26 71 34 10 10 sky130_fd_sc_hd__nand3_1
* cell instance $195 m0 *1 60.26,13.6
X$195 10 38 26 15 34 89 34 10 sky130_fd_sc_hd__nand3_4
* cell instance $196 m0 *1 66.7,13.6
X$196 10 55 75 15 34 88 34 10 sky130_fd_sc_hd__nand3_4
* cell instance $197 m0 *1 73.14,13.6
X$197 34 26 38 72 34 10 10 sky130_fd_sc_hd__nand2_1
* cell instance $198 m0 *1 74.52,13.6
X$198 34 55 10 38 34 10 sky130_fd_sc_hd__clkbuf_4
* cell instance $199 m0 *1 77.28,13.6
X$199 10 85 57 34 34 10 sky130_fd_sc_hd__buf_6
* cell instance $202 m0 *1 82.8,13.6
X$202 34 41 34 10 84 10 sky130_fd_sc_hd__inv_1
* cell instance $204 m0 *1 84.64,13.6
X$204 10 78 69 17 61 34 34 10 sky130_fd_sc_hd__ha_1
* cell instance $205 m0 *1 89.24,13.6
X$205 10 77 492 17 61 34 34 10 sky130_fd_sc_hd__ha_1
* cell instance $206 m0 *1 93.84,13.6
X$206 10 39 50 44 82 34 34 10 sky130_fd_sc_hd__dfrtp_1
* cell instance $207 m0 *1 103.04,13.6
X$207 34 17 42 50 34 80 10 10 sky130_fd_sc_hd__o21a_1
* cell instance $210 r0 *1 4.14,13.6
X$210 10 27 107 28 79 34 34 10 sky130_fd_sc_hd__edfxtp_1
* cell instance $215 r0 *1 15.64,13.6
X$215 10 83 109 28 18 34 34 10 sky130_fd_sc_hd__edfxtp_1
* cell instance $219 r0 *1 31.74,13.6
X$219 10 90 112 23 22 34 34 10 sky130_fd_sc_hd__edfxtp_1
* cell instance $225 r0 *1 43.7,13.6
X$225 10 91 89 101 34 34 10 sky130_fd_sc_hd__nor2_8
* cell instance $226 r0 *1 51.06,13.6
X$226 10 489 92 14 25 34 34 10 sky130_fd_sc_hd__ha_1
* cell instance $227 r0 *1 55.66,13.6
X$227 10 38 92 15 34 115 34 10 sky130_fd_sc_hd__nand3_4
* cell instance $228 r0 *1 62.1,13.6
X$228 34 14 60 86 48 10 34 10 sky130_fd_sc_hd__nor3_1
* cell instance $229 r0 *1 63.94,13.6
X$229 10 76 111 14 60 34 34 10 sky130_fd_sc_hd__ha_1
* cell instance $230 r0 *1 68.54,13.6
X$230 34 25 34 10 60 10 sky130_fd_sc_hd__inv_1
* cell instance $236 r0 *1 70.84,13.6
X$236 10 39 85 31 73 34 34 10 sky130_fd_sc_hd__dfrtp_1
* cell instance $238 r0 *1 81.88,13.6
X$238 34 84 77 69 10 34 108 10 sky130_fd_sc_hd__a21o_1
* cell instance $239 r0 *1 84.64,13.6
X$239 34 69 78 94 10 34 93 10 sky130_fd_sc_hd__a21oi_1
* cell instance $240 r0 *1 86.48,13.6
X$240 34 95 93 110 34 10 10 sky130_fd_sc_hd__nand2_1
* cell instance $241 r0 *1 87.86,13.6
X$241 34 62 34 10 61 10 sky130_fd_sc_hd__inv_1
* cell instance $242 r0 *1 89.24,13.6
X$242 34 42 100 77 95 34 10 10 sky130_fd_sc_hd__nand3_1
* cell instance $243 r0 *1 91.08,13.6
X$243 10 100 94 50 61 34 34 10 sky130_fd_sc_hd__ha_1
* cell instance $248 r0 *1 96.6,13.6
X$248 34 97 96 16 10 34 10 sky130_fd_sc_hd__nor2_1
* cell instance $250 r0 *1 98.44,13.6
X$250 34 50 42 105 17 96 34 10 10 sky130_fd_sc_hd__or4_1
* cell instance $251 r0 *1 101.2,13.6
X$251 34 105 17 99 34 10 10 sky130_fd_sc_hd__nand2_1
* cell instance $252 r0 *1 102.58,13.6
X$252 34 98 34 10 97 10 sky130_fd_sc_hd__inv_1
* cell instance $253 r0 *1 103.96,13.6
X$253 34 97 99 106 34 10 10 sky130_fd_sc_hd__nand2_1
* cell instance $257 m0 *1 6.9,19.04
X$257 10 83 121 28 79 34 34 10 sky130_fd_sc_hd__edfxtp_1
* cell instance $258 m0 *1 17.94,19.04
X$258 10 90 125 28 11 34 34 10 sky130_fd_sc_hd__edfxtp_1
* cell instance $262 m0 *1 31.74,19.04
X$262 10 101 104 23 22 34 34 10 sky130_fd_sc_hd__edfxtp_1
* cell instance $263 m0 *1 42.78,19.04
X$263 10 102 13 91 34 34 10 sky130_fd_sc_hd__nor2_4
* cell instance $265 m0 *1 48.76,19.04
X$265 10 103 112 104 34 131 34 10 sky130_fd_sc_hd__mux2i_2
* cell instance $269 m0 *1 57.04,19.04
X$269 10 57 49 34 91 34 10 sky130_fd_sc_hd__nand2_8
* cell instance $270 m0 *1 64.4,19.04
X$270 10 38 111 15 34 102 34 10 sky130_fd_sc_hd__nand3_4
* cell instance $271 m0 *1 70.84,19.04
X$271 34 49 55 130 74 34 10 10 sky130_fd_sc_hd__nand3_1
* cell instance $276 m0 *1 79.58,19.04
X$276 10 128 62 38 165 34 34 10 sky130_fd_sc_hd__ha_1
* cell instance $279 m0 *1 85.1,19.04
X$279 34 61 32 127 10 34 10 sky130_fd_sc_hd__nor2_1
* cell instance $280 m0 *1 86.48,19.04
X$280 34 110 126 116 34 10 10 sky130_fd_sc_hd__xnor2_1
* cell instance $281 m0 *1 89.7,19.04
X$281 10 126 124 105 61 34 34 10 sky130_fd_sc_hd__ha_1
* cell instance $283 m0 *1 95.22,19.04
X$283 10 39 105 44 123 34 34 10 sky130_fd_sc_hd__dfrtp_1
* cell instance $284 m0 *1 104.42,19.04
X$284 34 106 118 10 34 10 sky130_fd_sc_hd__clkbuf_1
* cell instance $287 r0 *1 4.14,19.04
X$287 10 113 122 28 18 34 34 10 sky130_fd_sc_hd__edfxtp_1
* cell instance $292 r0 *1 17.02,19.04
X$292 34 107 47 81 46 34 134 10 10 sky130_fd_sc_hd__a22oi_1
* cell instance $295 r0 *1 22.08,19.04
X$295 10 101 144 28 11 34 34 10 sky130_fd_sc_hd__edfxtp_1
* cell instance $298 r0 *1 38.64,19.04
X$298 10 115 27 91 34 34 10 sky130_fd_sc_hd__nor2_4
* cell instance $302 r0 *1 43.7,19.04
X$302 10 115 86 113 34 34 10 sky130_fd_sc_hd__nor2_8
* cell instance $303 r0 *1 51.06,19.04
X$303 10 88 138 114 34 34 10 sky130_fd_sc_hd__nor2_8
* cell instance $304 r0 *1 58.42,19.04
X$304 10 57 138 49 34 34 10 sky130_fd_sc_hd__nand2b_4
* cell instance $306 r0 *1 64.4,19.04
X$306 10 49 132 57 88 34 34 10 sky130_fd_sc_hd__nor3_4
* cell instance $309 r0 *1 70.84,19.04
X$309 10 49 129 57 102 34 34 10 sky130_fd_sc_hd__nor3_4
* cell instance $312 r0 *1 80.96,19.04
X$312 34 128 34 10 32 10 sky130_fd_sc_hd__clkbuf_2
* cell instance $315 r0 *1 86.94,19.04
X$315 34 62 32 145 10 34 10 sky130_fd_sc_hd__nor2_1
* cell instance $316 r0 *1 88.32,19.04
X$316 10 143 127 145 139 34 34 10 sky130_fd_sc_hd__mux2i_1
* cell instance $317 r0 *1 92,19.04
X$317 34 124 126 108 10 34 139 10 sky130_fd_sc_hd__a21oi_1
* cell instance $318 r0 *1 93.84,19.04
X$318 34 32 116 142 34 123 10 10 sky130_fd_sc_hd__o21ai_0
* cell instance $319 r0 *1 95.68,19.04
X$319 34 105 32 142 34 10 10 sky130_fd_sc_hd__nand2_1
* cell instance $324 r0 *1 98.9,19.04
X$324 34 117 141 10 34 10 sky130_fd_sc_hd__clkbuf_1
* cell instance $326 r0 *1 100.74,19.04
X$326 34 105 98 80 117 10 34 10 sky130_fd_sc_hd__nor3_1
* cell instance $327 r0 *1 102.58,19.04
X$327 34 105 119 10 34 10 sky130_fd_sc_hd__clkbuf_1
* cell instance $329 r0 *1 104.42,19.04
X$329 34 98 120 10 34 10 sky130_fd_sc_hd__clkbuf_1
* cell instance $341 m0 *1 9.66,24.48
X$341 10 133 135 28 79 34 34 10 sky130_fd_sc_hd__edfxtp_1
* cell instance $342 m0 *1 20.7,24.48
X$342 34 135 149 154 34 10 10 sky130_fd_sc_hd__nand2_1
* cell instance $349 m0 *1 31.28,24.48
X$349 10 156 125 144 157 34 34 10 sky130_fd_sc_hd__mux2i_1
* cell instance $354 m0 *1 41.86,24.48
X$354 10 83 158 23 136 34 34 10 sky130_fd_sc_hd__edfxtp_1
* cell instance $355 m0 *1 52.9,24.48
X$355 34 210 46 68 146 34 10 10 sky130_fd_sc_hd__nand3_1
* cell instance $358 m0 *1 57.04,24.48
X$358 10 88 91 133 34 34 10 sky130_fd_sc_hd__nor2_8
* cell instance $359 m0 *1 64.4,24.48
X$359 10 49 86 57 34 34 10 sky130_fd_sc_hd__nand2b_4
* cell instance $360 m0 *1 69.46,24.48
X$360 10 129 153 31 136 34 34 10 sky130_fd_sc_hd__edfxtp_1
* cell instance $366 m0 *1 92.46,24.48
X$366 34 143 98 140 34 10 10 sky130_fd_sc_hd__xnor2_1
* cell instance $367 m0 *1 95.68,24.48
X$367 10 39 98 44 140 34 34 10 sky130_fd_sc_hd__dfrtp_1
* cell instance $371 r0 *1 4.14,24.48
X$371 10 113 147 28 79 34 34 10 sky130_fd_sc_hd__edfxtp_1
* cell instance $376 r0 *1 16.1,24.48
X$376 10 171 47 121 157 147 148 34 34 10 sky130_fd_sc_hd__a221oi_1
* cell instance $378 r0 *1 19.78,24.48
X$378 10 137 154 134 160 171 34 34 10 sky130_fd_sc_hd__a31oi_2
* cell instance $379 r0 *1 24.38,24.48
X$379 10 150 47 109 157 122 148 34 34 10 sky130_fd_sc_hd__a221oi_1
* cell instance $380 r0 *1 27.6,24.48
X$380 34 161 65 160 150 10 34 175 10 sky130_fd_sc_hd__a31oi_1
* cell instance $382 r0 *1 31.74,24.48
X$382 10 132 159 23 136 34 34 10 sky130_fd_sc_hd__edfxtp_1
* cell instance $387 r0 *1 43.7,24.48
X$387 10 86 83 102 34 34 10 sky130_fd_sc_hd__nor2_4
* cell instance $388 r0 *1 47.84,24.48
X$388 34 159 149 173 47 34 163 10 10 sky130_fd_sc_hd__a22oi_1
* cell instance $389 r0 *1 50.6,24.48
X$389 10 138 115 164 34 34 10 sky130_fd_sc_hd__nor2_8
* cell instance $391 r0 *1 58.42,24.48
X$391 10 39 21 31 155 34 34 10 sky130_fd_sc_hd__dfrtp_1
* cell instance $397 r0 *1 70.84,24.48
X$397 10 129 172 31 18 34 34 10 sky130_fd_sc_hd__edfxtp_1
* cell instance $407 r0 *1 98.44,24.48
X$407 34 167 96 98 10 34 170 10 sky130_fd_sc_hd__o21a_2
* cell instance $408 r0 *1 101.66,24.48
X$408 34 98 96 151 10 34 10 sky130_fd_sc_hd__nor2_1
* cell instance $409 r0 *1 103.04,24.48
X$409 34 168 167 10 34 10 sky130_fd_sc_hd__clkbuf_1
* cell instance $410 r0 *1 104.42,24.48
X$410 34 151 152 10 34 10 sky130_fd_sc_hd__clkbuf_1
* cell instance $418 m0 *1 7.36,29.92
X$418 10 133 169 28 18 34 34 10 sky130_fd_sc_hd__edfxtp_1
* cell instance $419 m0 *1 18.4,29.92
X$419 10 183 28 34 34 10 sky130_fd_sc_hd__clkbuf_16
* cell instance $424 m0 *1 31.28,29.92
X$424 10 186 173 23 136 34 34 10 sky130_fd_sc_hd__edfxtp_1
* cell instance $425 m0 *1 42.32,29.92
X$425 34 188 149 162 47 34 174 10 10 sky130_fd_sc_hd__a22oi_1
* cell instance $426 m0 *1 45.08,29.92
X$426 10 88 86 209 34 34 10 sky130_fd_sc_hd__nor2_8
* cell instance $427 m0 *1 52.44,29.92
X$427 10 102 177 138 34 34 10 sky130_fd_sc_hd__nor2_4
* cell instance $429 m0 *1 57.04,29.92
X$429 10 49 186 57 115 34 34 10 sky130_fd_sc_hd__nor3_4
* cell instance $431 m0 *1 63.48,29.92
X$431 10 49 187 57 89 34 34 10 sky130_fd_sc_hd__nor3_4
* cell instance $433 m0 *1 69.92,29.92
X$433 10 39 195 31 205 34 34 10 sky130_fd_sc_hd__dfrtp_1
* cell instance $435 m0 *1 79.58,29.92
X$435 34 153 165 166 178 34 10 10 sky130_fd_sc_hd__or3_1
* cell instance $436 m0 *1 81.88,29.92
X$436 34 172 165 166 184 34 10 10 sky130_fd_sc_hd__or3_1
* cell instance $438 m0 *1 84.64,29.92
X$438 10 129 182 44 79 34 34 10 sky130_fd_sc_hd__edfxtp_1
* cell instance $439 m0 *1 95.68,29.92
X$439 10 39 180 44 181 34 34 10 sky130_fd_sc_hd__dfrtp_1
* cell instance $446 r0 *1 11.96,29.92
X$446 34 191 34 10 10 sky130_fd_sc_hd__clkinvlp_4
* cell instance $452 r0 *1 18.4,29.92
X$452 34 169 149 161 34 10 10 sky130_fd_sc_hd__nand2_1
* cell instance $454 r0 *1 20.7,29.92
X$454 10 114 200 28 18 34 34 10 sky130_fd_sc_hd__edfxtp_1
* cell instance $455 r0 *1 31.74,29.92
X$455 10 132 188 23 185 34 34 10 sky130_fd_sc_hd__edfxtp_1
* cell instance $458 r0 *1 43.24,29.92
X$458 10 183 23 34 34 10 sky130_fd_sc_hd__clkbuf_16
* cell instance $459 r0 *1 52.44,29.92
X$459 10 138 190 89 34 34 10 sky130_fd_sc_hd__nor2_4
* cell instance $460 r0 *1 56.58,29.92
X$460 34 176 189 175 10 34 193 10 sky130_fd_sc_hd__a21oi_1
* cell instance $462 r0 *1 59.34,29.92
X$462 10 177 207 31 18 34 34 10 sky130_fd_sc_hd__edfxtp_1
* cell instance $465 r0 *1 70.84,29.92
X$465 34 103 34 10 160 10 sky130_fd_sc_hd__buf_4
* cell instance $466 r0 *1 73.6,29.92
X$466 34 203 264 193 10 34 205 10 sky130_fd_sc_hd__a21oi_1
* cell instance $468 r0 *1 75.9,29.92
X$468 34 21 194 178 34 204 10 10 sky130_fd_sc_hd__o21ai_0
* cell instance $469 r0 *1 77.74,29.92
X$469 10 129 179 44 11 34 34 10 sky130_fd_sc_hd__edfxtp_1
* cell instance $470 r0 *1 88.78,29.92
X$470 10 39 197 226 201 34 34 10 sky130_fd_sc_hd__dfrtp_1
* cell instance $473 r0 *1 98.44,29.92
X$473 34 182 165 166 199 34 10 10 sky130_fd_sc_hd__or3_1
* cell instance $474 r0 *1 100.74,29.92
X$474 34 170 10 194 34 10 sky130_fd_sc_hd__buf_2
* cell instance $476 r0 *1 104.42,29.92
X$476 34 180 196 10 34 10 sky130_fd_sc_hd__clkbuf_1
* cell instance $487 m0 *1 6.9,35.36
X$487 10 90 216 191 79 34 34 10 sky130_fd_sc_hd__edfxtp_1
* cell instance $488 m0 *1 17.94,35.36
X$488 10 183 191 34 34 10 sky130_fd_sc_hd__clkbuf_16
* cell instance $492 m0 *1 29.9,35.36
X$492 34 23 34 10 10 sky130_fd_sc_hd__clkinv_2
* cell instance $493 m0 *1 31.74,35.36
X$493 10 186 162 23 185 34 34 10 sky130_fd_sc_hd__edfxtp_1
* cell instance $494 m0 *1 42.78,35.36
X$494 10 83 192 23 185 34 34 10 sky130_fd_sc_hd__edfxtp_1
* cell instance $495 m0 *1 53.82,35.36
X$495 34 210 192 46 219 34 10 10 sky130_fd_sc_hd__nand3_1
* cell instance $498 m0 *1 57.04,35.36
X$498 10 187 208 31 11 34 34 10 sky130_fd_sc_hd__edfxtp_1
* cell instance $499 m0 *1 68.08,35.36
X$499 10 183 31 34 34 10 sky130_fd_sc_hd__clkbuf_16
* cell instance $501 m0 *1 80.96,35.36
X$501 34 195 194 184 34 203 10 10 sky130_fd_sc_hd__o21ai_0
* cell instance $502 m0 *1 82.8,35.36
X$502 34 213 212 202 10 34 10 sky130_fd_sc_hd__nor2_1
* cell instance $505 m0 *1 85.56,35.36
X$505 34 44 10 34 10 sky130_fd_sc_hd__clkinv_4
* cell instance $506 m0 *1 88.78,35.36
X$506 10 183 44 34 34 10 sky130_fd_sc_hd__clkbuf_16
* cell instance $507 m0 *1 97.98,35.36
X$507 34 180 170 199 34 214 10 10 sky130_fd_sc_hd__o21ai_0
* cell instance $509 m0 *1 100.28,35.36
X$509 34 195 198 10 34 10 sky130_fd_sc_hd__clkbuf_1
* cell instance $514 r0 *1 4.14,35.36
X$514 10 101 228 191 79 34 34 10 sky130_fd_sc_hd__edfxtp_1
* cell instance $517 r0 *1 15.64,35.36
X$517 10 157 216 228 34 229 34 10 sky130_fd_sc_hd__mux2i_2
* cell instance $519 r0 *1 21.62,35.36
X$519 10 164 230 220 18 34 34 10 sky130_fd_sc_hd__edfxtp_1
* cell instance $521 r0 *1 33.58,35.36
X$521 10 183 220 34 34 10 sky130_fd_sc_hd__clkbuf_16
* cell instance $524 r0 *1 43.24,35.36
X$524 34 156 242 66 233 222 10 34 10 sky130_fd_sc_hd__o22ai_1
* cell instance $526 r0 *1 46.46,35.36
X$526 34 210 158 46 218 34 10 10 sky130_fd_sc_hd__nand3_1
* cell instance $527 r0 *1 48.3,35.36
X$527 34 221 206 231 160 189 34 176 10 10 sky130_fd_sc_hd__a311oi_1
* cell instance $528 r0 *1 51.52,35.36
X$528 34 210 174 219 34 234 10 10 sky130_fd_sc_hd__o21ai_0
* cell instance $530 r0 *1 53.82,35.36
X$530 34 213 233 223 10 34 224 10 sky130_fd_sc_hd__a21oi_1
* cell instance $533 r0 *1 57.96,35.36
X$533 34 204 256 224 10 34 155 10 sky130_fd_sc_hd__a21oi_1
* cell instance $537 r0 *1 63.02,35.36
X$537 34 380 189 137 10 34 217 10 sky130_fd_sc_hd__a21oi_1
* cell instance $538 r0 *1 64.86,35.36
X$538 34 160 211 208 10 34 232 10 sky130_fd_sc_hd__a21oi_1
* cell instance $539 r0 *1 66.7,35.36
X$539 34 31 10 34 10 sky130_fd_sc_hd__clkinv_4
* cell instance $544 r0 *1 71.76,35.36
X$544 34 46 207 211 225 34 206 10 10 sky130_fd_sc_hd__a22oi_1
* cell instance $546 r0 *1 74.98,35.36
X$546 10 190 225 44 18 34 34 10 sky130_fd_sc_hd__edfxtp_1
* cell instance $548 r0 *1 86.48,35.36
X$548 10 10 166 213 170 34 34 sky130_fd_sc_hd__nand2_2
* cell instance $549 r0 *1 88.78,35.36
X$549 10 39 215 226 274 34 34 10 sky130_fd_sc_hd__dfrtp_1
* cell instance $552 r0 *1 98.44,35.36
X$552 34 214 202 217 10 34 181 10 sky130_fd_sc_hd__a21oi_1
* cell instance $553 r0 *1 100.28,35.36
X$553 34 197 227 10 34 10 sky130_fd_sc_hd__clkbuf_1
* cell instance $566 m0 *1 5.52,40.8
X$566 10 90 239 191 18 34 34 10 sky130_fd_sc_hd__edfxtp_1
* cell instance $567 m0 *1 16.56,40.8
X$567 10 209 253 191 22 34 34 10 sky130_fd_sc_hd__edfxtp_1
* cell instance $573 m0 *1 30.82,40.8
X$573 34 200 254 230 241 34 221 10 10 sky130_fd_sc_hd__a22oi_1
* cell instance $574 m0 *1 33.58,40.8
X$574 34 220 34 10 10 sky130_fd_sc_hd__inv_6
* cell instance $575 m0 *1 36.8,40.8
X$575 10 186 255 220 18 34 34 10 sky130_fd_sc_hd__edfxtp_1
* cell instance $576 m0 *1 47.84,40.8
X$576 34 210 163 218 34 223 10 10 sky130_fd_sc_hd__o21ai_0
* cell instance $579 m0 *1 51.06,40.8
X$579 34 103 10 34 233 10 sky130_fd_sc_hd__inv_2
* cell instance $582 m0 *1 53.82,40.8
X$582 34 213 233 234 10 34 240 10 sky130_fd_sc_hd__a21oi_1
* cell instance $587 m0 *1 59.8,40.8
X$587 34 189 245 232 246 10 34 10 sky130_fd_sc_hd__nor3_1
* cell instance $588 m0 *1 61.64,40.8
X$588 34 246 189 222 10 34 252 10 sky130_fd_sc_hd__a21oi_1
* cell instance $590 m0 *1 63.94,40.8
X$590 34 229 243 299 160 212 10 34 10 sky130_fd_sc_hd__o22ai_1
* cell instance $591 m0 *1 66.24,40.8
X$591 10 183 267 34 34 10 sky130_fd_sc_hd__clkbuf_16
* cell instance $592 m0 *1 75.44,40.8
X$592 34 211 34 10 242 10 sky130_fd_sc_hd__inv_1
* cell instance $596 m0 *1 84.64,40.8
X$596 34 197 194 235 34 251 10 10 sky130_fd_sc_hd__o21ai_0
* cell instance $597 m0 *1 86.48,40.8
X$597 34 251 252 236 10 34 201 10 sky130_fd_sc_hd__a21oi_1
* cell instance $599 m0 *1 88.78,40.8
X$599 34 179 165 166 235 34 10 10 sky130_fd_sc_hd__or3_1
* cell instance $600 m0 *1 91.08,40.8
X$600 10 183 226 34 34 10 sky130_fd_sc_hd__clkbuf_16
* cell instance $601 m0 *1 100.28,40.8
X$601 34 215 170 249 34 250 10 10 sky130_fd_sc_hd__o21ai_0
* cell instance $603 m0 *1 103.04,40.8
X$603 34 215 261 10 34 10 sky130_fd_sc_hd__clkbuf_1
* cell instance $604 m0 *1 104.42,40.8
X$604 34 238 237 10 34 10 sky130_fd_sc_hd__clkbuf_1
* cell instance $607 r0 *1 4.14,40.8
X$607 10 101 262 191 18 34 34 10 sky130_fd_sc_hd__edfxtp_1
* cell instance $611 r0 *1 16.1,40.8
X$611 10 157 239 262 34 263 34 10 sky130_fd_sc_hd__mux2i_2
* cell instance $614 r0 *1 25.3,40.8
X$614 10 164 244 220 11 34 34 10 sky130_fd_sc_hd__edfxtp_1
* cell instance $615 r0 *1 36.34,40.8
X$615 10 245 254 244 233 272 241 34 34 10 sky130_fd_sc_hd__a221oi_1
* cell instance $623 r0 *1 46,40.8
X$623 10 231 265 255 157 276 241 34 34 10 sky130_fd_sc_hd__a221oi_1
* cell instance $624 r0 *1 49.22,40.8
X$624 34 160 29 47 277 34 10 10 sky130_fd_sc_hd__nand3_1
* cell instance $627 r0 *1 56.58,40.8
X$627 10 187 266 267 18 34 34 10 sky130_fd_sc_hd__edfxtp_1
* cell instance $628 r0 *1 67.62,40.8
X$628 34 263 243 259 160 260 10 34 10 sky130_fd_sc_hd__o22ai_1
* cell instance $632 r0 *1 70.84,40.8
X$632 34 213 260 264 10 34 10 sky130_fd_sc_hd__nor2_1
* cell instance $636 r0 *1 80.5,40.8
X$636 10 129 247 226 185 34 34 10 sky130_fd_sc_hd__edfxtp_1
* cell instance $637 r0 *1 91.54,40.8
X$637 34 226 34 10 10 sky130_fd_sc_hd__inv_6
* cell instance $638 r0 *1 94.76,40.8
X$638 34 247 165 166 249 34 10 10 sky130_fd_sc_hd__or3_1
* cell instance $645 r0 *1 104.42,40.8
X$645 34 293 248 10 34 10 sky130_fd_sc_hd__clkbuf_1
* cell instance $659 m0 *1 16.56,46.24
X$659 10 113 268 191 22 34 34 10 sky130_fd_sc_hd__edfxtp_1
* cell instance $663 m0 *1 29.44,46.24
X$663 10 253 254 257 268 47 34 34 10 sky130_fd_sc_hd__a22oi_2
* cell instance $665 m0 *1 34.96,46.24
X$665 10 132 276 220 18 34 34 10 sky130_fd_sc_hd__edfxtp_1
* cell instance $667 m0 *1 49.68,46.24
X$667 10 258 160 189 277 257 34 34 10 sky130_fd_sc_hd__o211ai_2
* cell instance $671 m0 *1 57.04,46.24
X$671 10 209 278 267 18 34 34 10 sky130_fd_sc_hd__edfxtp_1
* cell instance $672 m0 *1 68.08,46.24
X$672 34 267 34 10 10 sky130_fd_sc_hd__inv_6
* cell instance $674 m0 *1 73.14,46.24
X$674 10 190 275 267 11 34 34 10 sky130_fd_sc_hd__edfxtp_1
* cell instance $678 m0 *1 90.16,46.24
X$678 34 250 273 240 10 34 274 10 sky130_fd_sc_hd__a21oi_1
* cell instance $681 m0 *1 96.14,46.24
X$681 10 39 238 226 271 34 34 10 sky130_fd_sc_hd__dfrtp_1
* cell instance $693 r0 *1 23.46,46.24
X$693 10 114 272 191 11 34 34 10 sky130_fd_sc_hd__edfxtp_1
* cell instance $703 r0 *1 50.14,46.24
X$703 10 146 269 243 131 280 287 34 34 10 sky130_fd_sc_hd__o221ai_2
* cell instance $708 r0 *1 65.32,46.24
X$708 34 266 279 149 278 210 259 10 34 10 sky130_fd_sc_hd__a32oi_1
* cell instance $713 r0 *1 71.3,46.24
X$713 10 177 286 267 11 34 34 10 sky130_fd_sc_hd__edfxtp_1
* cell instance $714 r0 *1 82.34,46.24
X$714 34 46 286 211 275 34 310 10 10 sky130_fd_sc_hd__a22oi_1
* cell instance $718 r0 *1 91.08,46.24
X$718 34 170 10 34 285 10 sky130_fd_sc_hd__inv_2
* cell instance $719 r0 *1 92.46,46.24
X$719 34 283 309 281 213 271 10 34 10 sky130_fd_sc_hd__o22ai_1
* cell instance $723 r0 *1 96.14,46.24
X$723 34 238 194 283 10 34 10 sky130_fd_sc_hd__nor2_1
* cell instance $729 r0 *1 104.42,46.24
X$729 34 282 270 10 34 10 sky130_fd_sc_hd__clkbuf_1
* cell instance $738 m0 *1 1.38,51.68
X$738 10 27 284 191 288 34 34 10 sky130_fd_sc_hd__edfxtp_1
* cell instance $739 m0 *1 12.42,51.68
X$739 10 133 296 191 288 34 34 10 sky130_fd_sc_hd__edfxtp_1
* cell instance $745 m0 *1 32.2,51.68
X$745 10 114 300 220 22 34 34 10 sky130_fd_sc_hd__edfxtp_1
* cell instance $746 m0 *1 43.24,51.68
X$746 10 177 301 220 22 34 34 10 sky130_fd_sc_hd__edfxtp_1
* cell instance $750 m0 *1 57.04,51.68
X$750 10 209 298 267 79 34 34 10 sky130_fd_sc_hd__edfxtp_1
* cell instance $754 m0 *1 73.14,51.68
X$754 10 129 297 267 22 34 34 10 sky130_fd_sc_hd__edfxtp_1
* cell instance $758 m0 *1 89.24,51.68
X$758 34 297 285 166 295 34 10 10 sky130_fd_sc_hd__or3_1
* cell instance $759 m0 *1 91.54,51.68
X$759 10 285 165 34 34 10 sky130_fd_sc_hd__buf_6
* cell instance $761 m0 *1 96.6,51.68
X$761 10 39 293 226 305 34 34 10 sky130_fd_sc_hd__dfrtp_1
* cell instance $764 r0 *1 4.14,51.68
X$764 10 13 304 191 288 34 34 10 sky130_fd_sc_hd__edfxtp_1
* cell instance $767 r0 *1 15.64,51.68
X$767 10 289 304 148 296 265 284 307 34 34 10 sky130_fd_sc_hd__a222oi_1
* cell instance $769 r0 *1 23,51.68
X$769 34 233 320 289 34 10 312 10 sky130_fd_sc_hd__o21ai_1
* cell instance $782 r0 *1 48.3,51.68
X$782 34 300 254 301 148 34 287 10 10 sky130_fd_sc_hd__a22oi_1
* cell instance $783 r0 *1 51.06,51.68
X$783 34 290 10 189 34 10 sky130_fd_sc_hd__clkbuf_4
* cell instance $784 r0 *1 53.82,51.68
X$784 10 187 314 220 79 34 34 10 sky130_fd_sc_hd__edfxtp_1
* cell instance $785 r0 *1 64.86,51.68
X$785 34 314 279 149 298 290 299 10 34 10 sky130_fd_sc_hd__a32oi_1
* cell instance $790 r0 *1 70.84,51.68
X$790 10 190 313 267 22 34 34 10 sky130_fd_sc_hd__edfxtp_1
* cell instance $791 r0 *1 81.88,51.68
X$791 34 280 310 166 34 311 10 10 sky130_fd_sc_hd__o21ai_0
* cell instance $794 r0 *1 87.86,51.68
X$794 34 291 302 194 292 10 34 294 10 sky130_fd_sc_hd__a31oi_1
* cell instance $796 r0 *1 91.08,51.68
X$796 34 282 170 295 34 292 10 10 sky130_fd_sc_hd__o21ai_0
* cell instance $797 r0 *1 92.92,51.68
X$797 34 165 318 329 10 34 309 10 sky130_fd_sc_hd__a21oi_1
* cell instance $798 r0 *1 94.76,51.68
X$798 34 306 308 303 213 305 10 34 10 sky130_fd_sc_hd__o22ai_1
* cell instance $802 r0 *1 98.44,51.68
X$802 34 293 194 306 10 34 10 sky130_fd_sc_hd__nor2_1
* cell instance $817 m0 *1 12.42,57.12
X$817 10 83 319 317 288 34 34 10 sky130_fd_sc_hd__edfxtp_1
* cell instance $818 m0 *1 23.46,57.12
X$818 34 233 319 46 320 34 10 10 sky130_fd_sc_hd__nand3_1
* cell instance $823 m0 *1 32.2,57.12
X$823 10 132 324 321 11 34 34 10 sky130_fd_sc_hd__edfxtp_1
* cell instance $827 m0 *1 46.46,57.12
X$827 34 290 324 254 10 34 340 10 sky130_fd_sc_hd__a21oi_1
* cell instance $831 m0 *1 54.74,57.12
X$831 34 315 189 312 10 34 281 10 sky130_fd_sc_hd__a21oi_1
* cell instance $833 m0 *1 57.04,57.12
X$833 10 325 183 34 34 10 sky130_fd_sc_hd__clkbuf_8
* cell instance $836 m0 *1 66.24,57.12
X$836 10 164 323 267 22 34 34 10 sky130_fd_sc_hd__edfxtp_1
* cell instance $837 m0 *1 77.28,57.12
X$837 10 323 211 316 280 241 313 34 34 10 sky130_fd_sc_hd__a221o_1
* cell instance $838 m0 *1 80.96,57.12
X$838 34 258 322 316 291 34 10 10 sky130_fd_sc_hd__nand3_1
* cell instance $842 m0 *1 84.64,57.12
X$842 10 129 318 226 288 34 34 10 sky130_fd_sc_hd__edfxtp_1
* cell instance $844 m0 *1 96.6,57.12
X$844 10 39 282 226 294 34 34 10 sky130_fd_sc_hd__dfrtp_1
* cell instance $857 r0 *1 26.22,57.12
X$857 10 209 337 317 11 34 34 10 sky130_fd_sc_hd__edfxtp_1
* cell instance $860 r0 *1 38.64,57.12
X$860 34 336 241 327 34 10 10 sky130_fd_sc_hd__nand2_1
* cell instance $861 r0 *1 40.02,57.12
X$861 34 337 265 349 326 34 344 10 10 sky130_fd_sc_hd__a22oi_1
* cell instance $864 r0 *1 43.24,57.12
X$864 10 328 327 344 290 157 340 34 34 10 sky130_fd_sc_hd__a311oi_2
* cell instance $867 r0 *1 50.14,57.12
X$867 10 133 342 321 22 34 34 10 sky130_fd_sc_hd__edfxtp_1
* cell instance $869 r0 *1 62.1,57.12
X$869 34 290 157 342 345 34 10 10 sky130_fd_sc_hd__nand3_1
* cell instance $871 r0 *1 64.4,57.12
X$871 34 339 34 10 341 10 sky130_fd_sc_hd__inv_1
* cell instance $872 r0 *1 65.78,57.12
X$872 34 341 346 345 34 338 10 10 sky130_fd_sc_hd__o21ai_0
* cell instance $873 r0 *1 67.62,57.12
X$873 34 338 149 269 329 10 302 34 10 sky130_fd_sc_hd__a211oi_1
* cell instance $877 r0 *1 71.3,57.12
X$877 34 290 326 103 34 10 330 10 sky130_fd_sc_hd__o21ai_1
* cell instance $881 r0 *1 76.36,57.12
X$881 34 330 335 329 34 10 10 sky130_fd_sc_hd__and2_0
* cell instance $882 r0 *1 78.66,57.12
X$882 10 10 335 166 330 34 34 sky130_fd_sc_hd__nand2_2
* cell instance $884 r0 *1 81.42,57.12
X$884 34 311 328 165 331 10 236 34 10 sky130_fd_sc_hd__nor4_1
* cell instance $886 r0 *1 84.64,57.12
X$886 10 129 333 334 332 34 34 10 sky130_fd_sc_hd__edfxtp_1
* cell instance $887 r0 *1 95.68,57.12
X$887 34 165 333 329 10 34 308 10 sky130_fd_sc_hd__a21oi_1
* cell instance $904 m0 *1 6.44,62.56
X$904 10 133 355 317 332 34 34 10 sky130_fd_sc_hd__edfxtp_1
* cell instance $907 m0 *1 21.62,62.56
X$907 34 233 356 46 343 34 10 10 sky130_fd_sc_hd__nand3_1
* cell instance $908 m0 *1 23.46,62.56
X$908 34 233 343 348 34 10 347 10 sky130_fd_sc_hd__o21ai_1