
* cell configurable_prng
* pin seed_in[6]
* pin seed_in[7]
* pin random[4]
* pin seed_in[5]
* pin seed_in[4]
* pin reseed
* pin seed_in[2]
* pin seed_in[0]
* pin seed_in[3]
* pin random[3]
* pin seed_in[1]
* pin random[0]
* pin random[1]
* pin random[2]
* pin random[5]
* pin random[6]
* pin random[7]
* pin valid
* pin random[8]
* pin seed_in[9]
* pin seed_in[8]
* pin clk
* pin seed_in[11]
* pin random[9]
* pin random[10]
* pin seed_in[14]
* pin enable
* pin random[14]
* pin random[15]
* pin random[13]
* pin seed_in[13]
* pin random[11]
* pin seed_in[15]
* pin seed_in[10]
* pin seed_in[12]
* pin rst_n
* pin random[12]
.SUBCKT configurable_prng 1 2 3 4 5 6 7 8 9 10 11 12 13 14 15 67 69 70 75 84 85
+ 87 89 91 95 97 124 126 127 128 129 130 131 132 133 134 135
* net 1 seed_in[6]
* net 2 seed_in[7]
* net 3 random[4]
* net 4 seed_in[5]
* net 5 seed_in[4]
* net 6 reseed
* net 7 seed_in[2]
* net 8 seed_in[0]
* net 9 seed_in[3]
* net 10 random[3]
* net 11 seed_in[1]
* net 12 random[0]
* net 13 random[1]
* net 14 random[2]
* net 15 random[5]
* net 67 random[6]
* net 69 random[7]
* net 70 valid
* net 75 random[8]
* net 84 seed_in[9]
* net 85 seed_in[8]
* net 87 clk
* net 89 seed_in[11]
* net 91 random[9]
* net 95 random[10]
* net 97 seed_in[14]
* net 124 enable
* net 126 random[14]
* net 127 random[15]
* net 128 random[13]
* net 129 seed_in[13]
* net 130 random[11]
* net 131 seed_in[15]
* net 132 seed_in[10]
* net 133 seed_in[12]
* net 134 rst_n
* net 135 random[12]
* cell instance $2 r0 *1 30.36,2.72
X$2 26 1 21 20 26 20 sky130_fd_sc_hd__clkbuf_1
* cell instance $6 r0 *1 31.74,2.72
X$6 26 2 22 20 26 20 sky130_fd_sc_hd__clkbuf_1
* cell instance $9 m0 *1 35.88,8.16
X$9 26 34 3 20 26 20 sky130_fd_sc_hd__clkbuf_1
* cell instance $12 r0 *1 34.5,2.72
X$12 26 4 29 20 26 20 sky130_fd_sc_hd__clkbuf_1
* cell instance $15 r0 *1 33.12,2.72
X$15 26 5 28 20 26 20 sky130_fd_sc_hd__clkbuf_1
* cell instance $18 r0 *1 36.34,2.72
X$18 26 6 20 16 26 20 sky130_fd_sc_hd__buf_2
* cell instance $21 r0 *1 38.18,2.72
X$21 26 7 24 20 26 20 sky130_fd_sc_hd__clkbuf_1
* cell instance $23 r0 *1 38.64,8.16
X$23 26 8 43 20 26 20 sky130_fd_sc_hd__clkbuf_1
* cell instance $26 r0 *1 39.56,2.72
X$26 26 9 31 20 26 20 sky130_fd_sc_hd__clkbuf_1
* cell instance $33 m0 *1 53.82,8.16
X$33 26 23 10 20 26 20 sky130_fd_sc_hd__clkbuf_1
* cell instance $39 r0 *1 41.4,2.72
X$39 26 11 32 20 26 20 sky130_fd_sc_hd__clkbuf_1
* cell instance $41 r0 *1 43.24,2.72
X$41 26 17 12 20 26 20 sky130_fd_sc_hd__clkbuf_1
* cell instance $45 r0 *1 47.84,2.72
X$45 26 18 13 20 26 20 sky130_fd_sc_hd__clkbuf_1
* cell instance $48 r0 *1 49.22,2.72
X$48 26 19 14 20 26 20 sky130_fd_sc_hd__clkbuf_1
* cell instance $51 r0 *1 27.6,2.72
X$51 26 27 15 20 26 20 sky130_fd_sc_hd__clkbuf_1
* cell instance $64 r0 *1 44.62,2.72
X$64 26 16 25 30 26 37 20 20 sky130_fd_sc_hd__o21ai_0
* cell instance $66 r0 *1 43.24,35.36
X$66 26 16 74 78 26 73 20 20 sky130_fd_sc_hd__o21ai_0
* cell instance $68 r0 *1 40.02,29.92
X$68 26 16 20 44 26 20 sky130_fd_sc_hd__buf_2
* cell instance $70 m0 *1 30.36,8.16
X$70 26 16 33 36 26 41 20 20 sky130_fd_sc_hd__o21ai_0
* cell instance $73 r0 *1 43.24,40.8
X$73 26 16 82 94 26 100 20 20 sky130_fd_sc_hd__o21ai_0
* cell instance $75 r0 *1 39.56,40.8
X$75 26 16 20 46 26 20 sky130_fd_sc_hd__buf_2
* cell instance $77 r0 *1 43.7,8.16
X$77 26 16 40 45 26 42 20 20 sky130_fd_sc_hd__o21ai_0
* cell instance $79 m0 *1 36.34,40.8
X$79 20 86 51 16 26 26 20 sky130_fd_sc_hd__nand2_4
* cell instance $84 r0 *1 43.24,13.6
X$84 20 47 18 17 35 26 26 20 sky130_fd_sc_hd__mux2i_1
* cell instance $86 m0 *1 35.42,24.48
X$86 20 56 17 38 62 26 26 20 sky130_fd_sc_hd__dfstp_1
* cell instance $88 r0 *1 45.08,24.48
X$88 26 49 17 64 20 26 20 sky130_fd_sc_hd__nor2_1
* cell instance $96 m0 *1 39.56,19.04
X$96 20 39 18 38 50 26 26 20 sky130_fd_sc_hd__dfrtp_1
* cell instance $99 r0 *1 50.6,2.72
X$99 20 25 19 18 35 26 26 20 sky130_fd_sc_hd__mux2i_1
* cell instance $104 m0 *1 40.94,8.16
X$104 20 39 19 38 37 26 26 20 sky130_fd_sc_hd__dfrtp_1
* cell instance $108 m0 *1 50.14,8.16
X$108 20 40 23 19 35 26 26 20 sky130_fd_sc_hd__mux2i_1
* cell instance $135 r0 *1 46.46,2.72
X$135 26 44 24 30 26 20 20 sky130_fd_sc_hd__nand2_1
* cell instance $164 m0 *1 32.2,8.16
X$164 26 44 28 36 26 20 20 sky130_fd_sc_hd__nand2_1
* cell instance $165 m0 *1 33.58,8.16
X$165 26 22 29 24 28 20 76 26 20 sky130_fd_sc_hd__nor4_1
* cell instance $166 m0 *1 37.26,8.16
X$166 20 33 34 23 35 26 26 20 sky130_fd_sc_hd__mux2i_1
* cell instance $187 r0 *1 28.52,8.16
X$187 20 39 34 38 41 26 26 20 sky130_fd_sc_hd__dfrtp_1
* cell instance $191 r0 *1 41.4,8.16
X$191 26 44 31 45 26 20 20 sky130_fd_sc_hd__nand2_1
* cell instance $195 r0 *1 45.54,8.16
X$195 20 39 23 38 42 26 26 20 sky130_fd_sc_hd__dfrtp_1
* cell instance $219 m0 *1 38.64,13.6
X$219 26 21 43 32 31 20 57 26 20 sky130_fd_sc_hd__nor4_1
* cell instance $221 m0 *1 41.4,13.6
X$221 26 44 32 48 26 20 20 sky130_fd_sc_hd__nand2_1
* cell instance $254 r0 *1 36.34,13.6
X$254 20 53 34 27 49 26 26 20 sky130_fd_sc_hd__mux2_1
* cell instance $256 r0 *1 40.94,13.6
X$256 26 46 47 48 26 50 20 20 sky130_fd_sc_hd__o21ai_0
* cell instance $286 m0 *1 34.04,19.04
X$286 26 53 46 51 29 52 20 26 20 sky130_fd_sc_hd__o22a_1
* cell instance $312 r0 *1 29.9,19.04
X$312 26 54 46 51 21 55 20 26 20 sky130_fd_sc_hd__o22a_1
* cell instance $313 r0 *1 33.12,19.04
X$313 20 56 27 38 52 26 26 20 sky130_fd_sc_hd__dfstp_1
* cell instance $341 m0 *1 31.28,24.48
X$341 20 54 27 58 49 26 26 20 sky130_fd_sc_hd__mux2_1
* cell instance $344 m0 *1 45.08,24.48
X$344 20 49 35 26 26 20 sky130_fd_sc_hd__buf_6
* cell instance $366 r0 *1 23.46,24.48
X$366 20 56 58 38 55 26 26 20 sky130_fd_sc_hd__dfstp_1
* cell instance $369 r0 *1 34.5,24.48
X$369 26 59 44 51 43 62 20 26 20 sky130_fd_sc_hd__o22a_1
* cell instance $370 r0 *1 37.72,24.48
X$370 20 63 38 26 26 20 sky130_fd_sc_hd__clkbuf_8
* cell instance $373 r0 *1 43.24,24.48
X$373 26 64 35 81 20 26 59 20 sky130_fd_sc_hd__a21oi_1
* cell instance $374 r0 *1 46.46,24.48
X$374 26 44 60 65 20 26 20 sky130_fd_sc_hd__nor2_1
* cell instance $377 r0 *1 51.98,24.48
X$377 26 35 61 60 20 26 20 sky130_fd_sc_hd__nor2_1
* cell instance $400 m0 *1 31.28,29.92
X$400 26 66 46 51 22 71 20 26 20 sky130_fd_sc_hd__o22a_1
* cell instance $408 m0 *1 45.08,29.92
X$408 20 39 61 38 65 26 26 20 sky130_fd_sc_hd__dfrtp_1
* cell instance $422 r0 *1 2.76,29.92
X$422 26 58 67 20 26 20 sky130_fd_sc_hd__clkbuf_1
* cell instance $434 r0 *1 32.66,29.92
X$434 20 66 58 68 49 26 26 20 sky130_fd_sc_hd__mux2_1
* cell instance $435 r0 *1 36.8,29.92
X$435 26 56 20 39 26 20 sky130_fd_sc_hd__clkbuf_4
* cell instance $446 r0 *1 62.1,29.92
X$446 26 61 70 20 26 20 sky130_fd_sc_hd__clkbuf_1
* cell instance $466 m0 *1 29.44,35.36
X$466 20 56 68 38 71 26 26 20 sky130_fd_sc_hd__dfstp_1
* cell instance $472 m0 *1 45.08,35.36
X$472 20 74 72 68 35 26 26 20 sky130_fd_sc_hd__mux2i_1
* cell instance $479 m0 *1 61.64,35.36
X$479 26 68 69 20 26 20 sky130_fd_sc_hd__clkbuf_1
* cell instance $501 r0 *1 34.04,35.36
X$501 26 57 77 119 76 26 86 20 20 sky130_fd_sc_hd__nand4_1
* cell instance $502 r0 *1 36.34,35.36
X$502 20 87 63 26 26 20 sky130_fd_sc_hd__clkbuf_8
* cell instance $509 r0 *1 45.08,35.36
X$509 20 39 72 93 73 26 26 20 sky130_fd_sc_hd__dfrtp_1
* cell instance $512 r0 *1 61.64,35.36
X$512 26 72 75 20 26 20 sky130_fd_sc_hd__clkbuf_1
* cell instance $532 m0 *1 31.74,40.8
X$532 26 98 46 51 79 92 20 26 20 sky130_fd_sc_hd__o22a_1
* cell instance $535 m0 *1 40.48,40.8
X$535 26 90 80 83 79 20 77 26 20 sky130_fd_sc_hd__nor4_1
* cell instance $536 m0 *1 42.78,40.8
X$536 26 44 80 78 26 20 20 sky130_fd_sc_hd__nand2_1
* cell instance $537 m0 *1 44.16,40.8
X$537 20 82 88 72 35 26 26 20 sky130_fd_sc_hd__mux2i_1
* cell instance $545 m0 *1 61.18,40.8
X$545 26 85 80 20 26 20 sky130_fd_sc_hd__clkbuf_1
* cell instance $548 m0 *1 63.94,40.8
X$548 26 84 83 20 26 20 sky130_fd_sc_hd__clkbuf_1
* cell instance $552 r0 *1 1.38,40.8
X$552 26 89 79 20 26 20 sky130_fd_sc_hd__clkbuf_1
* cell instance $566 r0 *1 29.9,40.8
X$566 20 56 99 93 92 26 26 20 sky130_fd_sc_hd__dfstp_1
* cell instance $571 r0 *1 45.08,40.8
X$571 26 44 83 94 26 20 20 sky130_fd_sc_hd__nand2_1
* cell instance $577 r0 *1 62.1,40.8
X$577 26 88 91 20 26 20 sky130_fd_sc_hd__clkbuf_1
* cell instance $580 r0 *1 64.86,40.8
X$580 26 97 90 20 26 20 sky130_fd_sc_hd__clkbuf_1
* cell instance $589 m0 *1 2.76,46.24
X$589 26 96 95 20 26 20 sky130_fd_sc_hd__clkbuf_1
* cell instance $603 m0 *1 34.04,46.24
X$603 20 98 96 99 49 26 26 20 sky130_fd_sc_hd__mux2_1
* cell instance $606 m0 *1 40.48,46.24
X$606 26 44 90 104 26 20 20 sky130_fd_sc_hd__nand2_1
* cell instance $610 m0 *1 45.54,46.24
X$610 20 39 88 93 100 26 26 20 sky130_fd_sc_hd__dfrtp_1
* cell instance $636 r0 *1 33.58,46.24
X$636 20 105 88 96 49 26 26 20 sky130_fd_sc_hd__mux2_1
* cell instance $637 r0 *1 37.72,46.24
X$637 26 93 136 20 26 20 sky130_fd_sc_hd__clkbuf_1
* cell instance $638 r0 *1 39.1,46.24
X$638 26 101 111 81 26 20 20 sky130_fd_sc_hd__xnor2_1
* cell instance $643 r0 *1 43.24,46.24
X$643 20 107 102 103 35 26 26 20 sky130_fd_sc_hd__mux2i_1
* cell instance $644 r0 *1 46.92,46.24
X$644 26 106 103 101 26 20 20 sky130_fd_sc_hd__xnor2_1
* cell instance $666 m0 *1 29.44,51.68
X$666 20 56 96 93 109 26 26 20 sky130_fd_sc_hd__dfstp_1
* cell instance $667 m0 *1 39.1,51.68
X$667 20 63 93 26 26 20 sky130_fd_sc_hd__clkbuf_8
* cell instance $670 m0 *1 45.08,51.68
X$670 20 39 102 93 110 26 26 20 sky130_fd_sc_hd__dfrtp_1
* cell instance $693 r0 *1 31.28,51.68
X$693 26 105 46 51 108 109 20 26 20 sky130_fd_sc_hd__o22a_1
* cell instance $695 r0 *1 35.42,51.68
X$695 26 96 116 111 26 20 20 sky130_fd_sc_hd__xnor2_1
* cell instance $696 r0 *1 38.64,51.68
X$696 20 114 106 99 35 26 26 20 sky130_fd_sc_hd__mux2i_1
* cell instance $700 r0 *1 43.24,51.68
X$700 26 46 107 104 26 110 20 20 sky130_fd_sc_hd__o21ai_0
* cell instance $726 m0 *1 30.36,57.12
X$726 26 112 46 51 115 118 20 26 20 sky130_fd_sc_hd__o22a_1
* cell instance $728 m0 *1 34.5,57.12
X$728 20 112 102 116 49 26 26 20 sky130_fd_sc_hd__mux2_1
* cell instance $729 m0 *1 38.64,57.12
X$729 26 46 114 120 26 113 20 20 sky130_fd_sc_hd__o21ai_0
* cell instance $730 m0 *1 40.48,57.12
X$730 20 39 106 93 113 26 26 20 sky130_fd_sc_hd__dfrtp_1
* cell instance $758 r0 *1 26.22,57.12
X$758 20 56 116 93 118 26 26 20 sky130_fd_sc_hd__dfstp_1
* cell instance $759 r0 *1 35.88,57.12
X$759 26 115 122 108 117 20 119 26 20 sky130_fd_sc_hd__nor4_1
* cell instance $761 r0 *1 38.64,57.12
X$761 26 44 117 120 26 20 20 sky130_fd_sc_hd__nand2_1
* cell instance $793 m0 *1 35.88,62.56
X$793 26 121 46 51 122 123 20 26 20 sky130_fd_sc_hd__o22a_1
* cell instance $795 m0 *1 40.02,62.56
X$795 20 121 106 103 49 26 26 20 sky130_fd_sc_hd__mux2_1
* cell instance $827 r0 *1 33.12,62.56
X$827 20 56 103 93 123 26 26 20 sky130_fd_sc_hd__dfstp_1
* cell instance $834 r0 *1 46,62.56
X$834 26 124 26 20 49 20 sky130_fd_sc_hd__buf_4
* cell instance $898 m0 *1 33.12,73.44
X$898 26 131 115 20 26 20 sky130_fd_sc_hd__clkbuf_1
* cell instance $902 m0 *1 36.8,73.44
X$902 26 133 117 20 26 20 sky130_fd_sc_hd__clkbuf_1
* cell instance $904 m0 *1 38.18,73.44
X$904 26 125 20 56 26 20 sky130_fd_sc_hd__clkbuf_4
* cell instance $954 r0 *1 33.58,73.44
X$954 26 116 127 20 26 20 sky130_fd_sc_hd__clkbuf_1
* cell instance $955 r0 *1 34.96,73.44
X$955 26 132 108 20 26 20 sky130_fd_sc_hd__clkbuf_1
* cell instance $956 r0 *1 36.34,73.44
X$956 26 129 122 20 26 20 sky130_fd_sc_hd__clkbuf_1
* cell instance $958 r0 *1 38.64,73.44
X$958 26 134 26 125 20 20 sky130_fd_sc_hd__dlygate4sd3_1
* cell instance $963 r0 *1 43.24,73.44
X$963 26 99 130 20 26 20 sky130_fd_sc_hd__clkbuf_1
* cell instance $964 r0 *1 44.62,73.44
X$964 26 103 128 20 26 20 sky130_fd_sc_hd__clkbuf_1
* cell instance $966 r0 *1 47.84,73.44
X$966 26 106 135 20 26 20 sky130_fd_sc_hd__clkbuf_1
* cell instance $969 r0 *1 53.36,73.44
X$969 26 102 126 20 26 20 sky130_fd_sc_hd__clkbuf_1
.ENDS configurable_prng

* cell sky130_fd_sc_hd__a21oi_1
* pin VPB
* pin B1
* pin A1
* pin A2
* pin VGND
* pin VPWR
* pin Y
* pin 
.SUBCKT sky130_fd_sc_hd__a21oi_1 1 2 3 4 5 7 8 9
* net 1 VPB
* net 2 B1
* net 3 A1
* net 4 A2
* net 5 VGND
* net 7 VPWR
* net 8 Y
* device instance $1 r0 *1 0.49,1.985 pfet_01v8_hvt
M$1 6 2 8 1 pfet_01v8_hvt L=150000U W=1000000U AS=265000000000P
+ AD=140000000000P PS=2530000U PD=1280000U
* device instance $2 r0 *1 0.92,1.985 pfet_01v8_hvt
M$2 7 3 6 1 pfet_01v8_hvt L=150000U W=1000000U AS=140000000000P
+ AD=147500000000P PS=1280000U PD=1295000U
* device instance $3 r0 *1 1.365,1.985 pfet_01v8_hvt
M$3 6 4 7 1 pfet_01v8_hvt L=150000U W=1000000U AS=147500000000P
+ AD=265000000000P PS=1295000U PD=2530000U
* device instance $4 r0 *1 0.49,0.56 nfet_01v8
M$4 8 2 5 9 nfet_01v8 L=150000U W=650000U AS=172250000000P AD=91000000000P
+ PS=1830000U PD=930000U
* device instance $5 r0 *1 0.92,0.56 nfet_01v8
M$5 10 3 8 9 nfet_01v8 L=150000U W=650000U AS=91000000000P AD=95875000000P
+ PS=930000U PD=945000U
* device instance $6 r0 *1 1.365,0.56 nfet_01v8
M$6 5 4 10 9 nfet_01v8 L=150000U W=650000U AS=95875000000P AD=172250000000P
+ PS=945000U PD=1830000U
.ENDS sky130_fd_sc_hd__a21oi_1

* cell sky130_fd_sc_hd__nor2_1
* pin VPB
* pin A
* pin B
* pin Y
* pin VGND
* pin VPWR
* pin 
.SUBCKT sky130_fd_sc_hd__nor2_1 1 2 3 4 5 6 7
* net 1 VPB
* net 2 A
* net 3 B
* net 4 Y
* net 5 VGND
* net 6 VPWR
* device instance $1 r0 *1 0.47,1.985 pfet_01v8_hvt
M$1 8 3 4 1 pfet_01v8_hvt L=150000U W=1000000U AS=260000000000P
+ AD=105000000000P PS=2520000U PD=1210000U
* device instance $2 r0 *1 0.83,1.985 pfet_01v8_hvt
M$2 6 2 8 1 pfet_01v8_hvt L=150000U W=1000000U AS=105000000000P
+ AD=260000000000P PS=1210000U PD=2520000U
* device instance $3 r0 *1 0.47,0.56 nfet_01v8
M$3 4 3 5 7 nfet_01v8 L=150000U W=650000U AS=169000000000P AD=87750000000P
+ PS=1820000U PD=920000U
* device instance $4 r0 *1 0.89,0.56 nfet_01v8
M$4 5 2 4 7 nfet_01v8 L=150000U W=650000U AS=87750000000P AD=169000000000P
+ PS=920000U PD=1820000U
.ENDS sky130_fd_sc_hd__nor2_1

* cell sky130_fd_sc_hd__buf_6
* pin VGND
* pin A
* pin X
* pin VPWR
* pin VPB
* pin 
.SUBCKT sky130_fd_sc_hd__buf_6 1 2 4 5 6 7
* net 1 VGND
* net 2 A
* net 4 X
* net 5 VPWR
* net 6 VPB
* device instance $1 r0 *1 0.73,1.985 pfet_01v8_hvt
M$1 3 2 5 6 pfet_01v8_hvt L=150000U W=2000000U AS=395000000000P
+ AD=270000000000P PS=3790000U PD=2540000U
* device instance $3 r0 *1 1.57,1.985 pfet_01v8_hvt
M$3 4 3 5 6 pfet_01v8_hvt L=150000U W=6000000U AS=810000000000P
+ AD=935000000000P PS=7620000U PD=8870000U
* device instance $9 r0 *1 0.73,0.56 nfet_01v8
M$9 3 2 1 7 nfet_01v8 L=150000U W=1300000U AS=256750000000P AD=175500000000P
+ PS=2740000U PD=1840000U
* device instance $11 r0 *1 1.57,0.56 nfet_01v8
M$11 4 3 1 7 nfet_01v8 L=150000U W=3900000U AS=526500000000P AD=607750000000P
+ PS=5520000U PD=6420000U
.ENDS sky130_fd_sc_hd__buf_6

* cell sky130_fd_sc_hd__nand4_1
* pin VPB
* pin C
* pin A
* pin B
* pin D
* pin VPWR
* pin Y
* pin VGND
* pin 
.SUBCKT sky130_fd_sc_hd__nand4_1 1 2 3 4 5 6 7 8 9
* net 1 VPB
* net 2 C
* net 3 A
* net 4 B
* net 5 D
* net 6 VPWR
* net 7 Y
* net 8 VGND
* device instance $1 r0 *1 0.47,1.985 pfet_01v8_hvt
M$1 7 5 6 1 pfet_01v8_hvt L=150000U W=1000000U AS=260000000000P
+ AD=135000000000P PS=2520000U PD=1270000U
* device instance $2 r0 *1 0.89,1.985 pfet_01v8_hvt
M$2 6 2 7 1 pfet_01v8_hvt L=150000U W=1000000U AS=135000000000P
+ AD=135000000000P PS=1270000U PD=1270000U
* device instance $3 r0 *1 1.31,1.985 pfet_01v8_hvt
M$3 7 4 6 1 pfet_01v8_hvt L=150000U W=1000000U AS=135000000000P
+ AD=165000000000P PS=1270000U PD=1330000U
* device instance $4 r0 *1 1.79,1.985 pfet_01v8_hvt
M$4 6 3 7 1 pfet_01v8_hvt L=150000U W=1000000U AS=165000000000P
+ AD=300000000000P PS=1330000U PD=2600000U
* device instance $5 r0 *1 0.47,0.56 nfet_01v8
M$5 12 5 8 9 nfet_01v8 L=150000U W=650000U AS=169000000000P AD=87750000000P
+ PS=1820000U PD=920000U
* device instance $6 r0 *1 0.89,0.56 nfet_01v8
M$6 11 2 12 9 nfet_01v8 L=150000U W=650000U AS=87750000000P AD=87750000000P
+ PS=920000U PD=920000U
* device instance $7 r0 *1 1.31,0.56 nfet_01v8
M$7 10 4 11 9 nfet_01v8 L=150000U W=650000U AS=87750000000P AD=107250000000P
+ PS=920000U PD=980000U
* device instance $8 r0 *1 1.79,0.56 nfet_01v8
M$8 7 3 10 9 nfet_01v8 L=150000U W=650000U AS=107250000000P AD=195000000000P
+ PS=980000U PD=1900000U
.ENDS sky130_fd_sc_hd__nand4_1

* cell sky130_fd_sc_hd__dfrtp_1
* pin VGND
* pin RESET_B
* pin Q
* pin CLK
* pin D
* pin VPWR
* pin VPB
* pin 
.SUBCKT sky130_fd_sc_hd__dfrtp_1 1 6 9 14 15 17 18 21
* net 1 VGND
* net 6 RESET_B
* net 9 Q
* net 14 CLK
* net 15 D
* net 17 VPWR
* net 18 VPB
* device instance $1 r0 *1 8.73,1.985 pfet_01v8_hvt
M$1 9 8 17 18 pfet_01v8_hvt L=150000U W=1000000U AS=301200000000P
+ AD=260000000000P PS=2660000U PD=2520000U
* device instance $2 r0 *1 5.35,2.065 pfet_01v8_hvt
M$2 16 5 17 18 pfet_01v8_hvt L=150000U W=840000U AS=218400000000P
+ AD=129150000000P PS=2200000U PD=1185000U
* device instance $3 r0 *1 5.845,2.275 pfet_01v8_hvt
M$3 7 2 16 18 pfet_01v8_hvt L=150000U W=420000U AS=129150000000P
+ AD=58800000000P PS=1185000U PD=700000U
* device instance $4 r0 *1 6.275,2.275 pfet_01v8_hvt
M$4 20 3 7 18 pfet_01v8_hvt L=150000U W=420000U AS=58800000000P AD=56700000000P
+ PS=700000U PD=690000U
* device instance $5 r0 *1 6.695,2.275 pfet_01v8_hvt
M$5 17 8 20 18 pfet_01v8_hvt L=150000U W=420000U AS=56700000000P
+ AD=81900000000P PS=690000U PD=810000U
* device instance $6 r0 *1 7.235,2.275 pfet_01v8_hvt
M$6 8 6 17 18 pfet_01v8_hvt L=150000U W=420000U AS=81900000000P AD=56700000000P
+ PS=810000U PD=690000U
* device instance $7 r0 *1 7.655,2.275 pfet_01v8_hvt
M$7 17 7 8 18 pfet_01v8_hvt L=150000U W=420000U AS=56700000000P
+ AD=113400000000P PS=690000U PD=1380000U
* device instance $8 r0 *1 2.225,2.275 pfet_01v8_hvt
M$8 4 15 17 18 pfet_01v8_hvt L=150000U W=420000U AS=109200000000P
+ AD=65100000000P PS=1360000U PD=730000U
* device instance $9 r0 *1 2.685,2.275 pfet_01v8_hvt
M$9 5 3 4 18 pfet_01v8_hvt L=150000U W=420000U AS=65100000000P AD=72450000000P
+ PS=730000U PD=765000U
* device instance $10 r0 *1 3.18,2.275 pfet_01v8_hvt
M$10 19 2 5 18 pfet_01v8_hvt L=150000U W=420000U AS=72450000000P
+ AD=115500000000P PS=765000U PD=970000U
* device instance $11 r0 *1 3.88,2.275 pfet_01v8_hvt
M$11 17 16 19 18 pfet_01v8_hvt L=150000U W=420000U AS=115500000000P
+ AD=70350000000P PS=970000U PD=755000U
* device instance $12 r0 *1 4.365,2.275 pfet_01v8_hvt
M$12 19 6 17 18 pfet_01v8_hvt L=150000U W=420000U AS=70350000000P
+ AD=109200000000P PS=755000U PD=1360000U
* device instance $13 r0 *1 0.47,2.135 pfet_01v8_hvt
M$13 17 14 2 18 pfet_01v8_hvt L=150000U W=640000U AS=166400000000P
+ AD=86400000000P PS=1800000U PD=910000U
* device instance $14 r0 *1 0.89,2.135 pfet_01v8_hvt
M$14 3 2 17 18 pfet_01v8_hvt L=150000U W=640000U AS=86400000000P
+ AD=166400000000P PS=910000U PD=1800000U
* device instance $15 r0 *1 8.73,0.56 nfet_01v8
M$15 9 8 1 21 nfet_01v8 L=150000U W=650000U AS=208700000000P AD=169000000000P
+ PS=2020000U PD=1820000U
* device instance $16 r0 *1 0.47,0.445 nfet_01v8
M$16 1 14 2 21 nfet_01v8 L=150000U W=420000U AS=109200000000P AD=56700000000P
+ PS=1360000U PD=690000U
* device instance $17 r0 *1 0.89,0.445 nfet_01v8
M$17 3 2 1 21 nfet_01v8 L=150000U W=420000U AS=56700000000P AD=109200000000P
+ PS=690000U PD=1360000U
* device instance $18 r0 *1 2.64,0.415 nfet_01v8
M$18 5 2 4 21 nfet_01v8 L=150000U W=360000U AS=66000000000P AD=59400000000P
+ PS=745000U PD=690000U
* device instance $19 r0 *1 3.12,0.415 nfet_01v8
M$19 12 3 5 21 nfet_01v8 L=150000U W=360000U AS=59400000000P AD=140100000000P
+ PS=690000U PD=1100000U
* device instance $20 r0 *1 5.465,0.415 nfet_01v8
M$20 7 3 16 21 nfet_01v8 L=150000U W=360000U AS=99900000000P AD=71100000000P
+ PS=985000U PD=755000U
* device instance $21 r0 *1 6.01,0.415 nfet_01v8
M$21 11 2 7 21 nfet_01v8 L=150000U W=360000U AS=71100000000P AD=66900000000P
+ PS=755000U PD=750000U
* device instance $22 r0 *1 2.165,0.445 nfet_01v8
M$22 4 15 1 21 nfet_01v8 L=150000U W=420000U AS=220500000000P AD=66000000000P
+ PS=1890000U PD=745000U
* device instance $23 r0 *1 3.95,0.445 nfet_01v8
M$23 13 16 12 21 nfet_01v8 L=150000U W=420000U AS=140100000000P AD=44100000000P
+ PS=1100000U PD=630000U
* device instance $24 r0 *1 4.31,0.445 nfet_01v8
M$24 1 6 13 21 nfet_01v8 L=150000U W=420000U AS=44100000000P AD=134600000000P
+ PS=630000U PD=1150000U
* device instance $25 r0 *1 6.49,0.445 nfet_01v8
M$25 1 8 11 21 nfet_01v8 L=150000U W=420000U AS=66900000000P AD=124950000000P
+ PS=750000U PD=1015000U
* device instance $26 r0 *1 7.235,0.445 nfet_01v8
M$26 10 6 1 21 nfet_01v8 L=150000U W=420000U AS=124950000000P AD=64050000000P
+ PS=1015000U PD=725000U
* device instance $27 r0 *1 7.69,0.445 nfet_01v8
M$27 8 7 10 21 nfet_01v8 L=150000U W=420000U AS=64050000000P AD=109200000000P
+ PS=725000U PD=1360000U
* device instance $28 r0 *1 4.97,0.555 nfet_01v8
M$28 16 5 1 21 nfet_01v8 L=150000U W=640000U AS=134600000000P AD=99900000000P
+ PS=1150000U PD=985000U
.ENDS sky130_fd_sc_hd__dfrtp_1

* cell sky130_fd_sc_hd__xnor2_1
* pin VPB
* pin B
* pin A
* pin Y
* pin VPWR
* pin VGND
* pin 
.SUBCKT sky130_fd_sc_hd__xnor2_1 1 2 3 4 5 7 9
* net 1 VPB
* net 2 B
* net 3 A
* net 4 Y
* net 5 VPWR
* net 7 VGND
* device instance $1 r0 *1 0.51,1.985 pfet_01v8_hvt
M$1 8 2 5 1 pfet_01v8_hvt L=150000U W=1000000U AS=300000000000P
+ AD=135000000000P PS=2600000U PD=1270000U
* device instance $2 r0 *1 0.93,1.985 pfet_01v8_hvt
M$2 5 3 8 1 pfet_01v8_hvt L=150000U W=1000000U AS=135000000000P
+ AD=365000000000P PS=1270000U PD=1730000U
* device instance $3 r0 *1 1.81,1.985 pfet_01v8_hvt
M$3 10 3 5 1 pfet_01v8_hvt L=150000U W=1000000U AS=365000000000P
+ AD=105000000000P PS=1730000U PD=1210000U
* device instance $4 r0 *1 2.17,1.985 pfet_01v8_hvt
M$4 4 2 10 1 pfet_01v8_hvt L=150000U W=1000000U AS=105000000000P
+ AD=165000000000P PS=1210000U PD=1330000U
* device instance $5 r0 *1 2.65,1.985 pfet_01v8_hvt
M$5 5 8 4 1 pfet_01v8_hvt L=150000U W=1000000U AS=165000000000P
+ AD=360000000000P PS=1330000U PD=2720000U
* device instance $6 r0 *1 2.29,0.56 nfet_01v8
M$6 6 2 7 9 nfet_01v8 L=150000U W=650000U AS=169000000000P AD=87750000000P
+ PS=1820000U PD=920000U
* device instance $7 r0 *1 2.71,0.56 nfet_01v8
M$7 4 8 6 9 nfet_01v8 L=150000U W=650000U AS=87750000000P AD=195000000000P
+ PS=920000U PD=1900000U
* device instance $8 r0 *1 0.57,0.56 nfet_01v8
M$8 11 2 8 9 nfet_01v8 L=150000U W=650000U AS=169000000000P AD=68250000000P
+ PS=1820000U PD=860000U
* device instance $9 r0 *1 0.93,0.56 nfet_01v8
M$9 7 3 11 9 nfet_01v8 L=150000U W=650000U AS=68250000000P AD=87750000000P
+ PS=860000U PD=920000U
* device instance $10 r0 *1 1.35,0.56 nfet_01v8
M$10 6 3 7 9 nfet_01v8 L=150000U W=650000U AS=87750000000P AD=169000000000P
+ PS=920000U PD=1820000U
.ENDS sky130_fd_sc_hd__xnor2_1

* cell sky130_fd_sc_hd__buf_2
* pin VPB
* pin A
* pin VGND
* pin X
* pin VPWR
* pin 
.SUBCKT sky130_fd_sc_hd__buf_2 1 3 4 5 6 7
* net 1 VPB
* net 3 A
* net 4 VGND
* net 5 X
* net 6 VPWR
* device instance $1 r0 *1 0.47,2.125 pfet_01v8_hvt
M$1 2 3 6 1 pfet_01v8_hvt L=150000U W=640000U AS=149000000000P AD=166400000000P
+ PS=1325000U PD=1800000U
* device instance $2 r0 *1 0.945,1.985 pfet_01v8_hvt
M$2 5 2 6 1 pfet_01v8_hvt L=150000U W=2000000U AS=284000000000P
+ AD=400000000000P PS=2595000U PD=3800000U
* device instance $4 r0 *1 0.47,0.445 nfet_01v8
M$4 4 3 2 7 nfet_01v8 L=150000U W=420000U AS=109200000000P AD=97000000000P
+ PS=1360000U PD=975000U
* device instance $5 r0 *1 0.945,0.56 nfet_01v8
M$5 5 2 4 7 nfet_01v8 L=150000U W=1300000U AS=184750000000P AD=260000000000P
+ PS=1895000U PD=2750000U
.ENDS sky130_fd_sc_hd__buf_2

* cell sky130_fd_sc_hd__buf_4
* pin VPB
* pin A
* pin VPWR
* pin VGND
* pin X
* pin 
.SUBCKT sky130_fd_sc_hd__buf_4 1 3 4 5 6 7
* net 1 VPB
* net 3 A
* net 4 VPWR
* net 5 VGND
* net 6 X
* device instance $1 r0 *1 0.47,1.985 pfet_01v8_hvt
M$1 4 3 2 1 pfet_01v8_hvt L=150000U W=1000000U AS=260000000000P
+ AD=135000000000P PS=2520000U PD=1270000U
* device instance $2 r0 *1 0.89,1.985 pfet_01v8_hvt
M$2 6 2 4 1 pfet_01v8_hvt L=150000U W=4000000U AS=540000000000P
+ AD=665000000000P PS=5080000U PD=6330000U
* device instance $6 r0 *1 0.47,0.56 nfet_01v8
M$6 5 3 2 7 nfet_01v8 L=150000U W=650000U AS=169000000000P AD=87750000000P
+ PS=1820000U PD=920000U
* device instance $7 r0 *1 0.89,0.56 nfet_01v8
M$7 6 2 5 7 nfet_01v8 L=150000U W=2600000U AS=351000000000P AD=432250000000P
+ PS=3680000U PD=4580000U
.ENDS sky130_fd_sc_hd__buf_4

* cell sky130_fd_sc_hd__dfstp_1
* pin VGND
* pin SET_B
* pin Q
* pin CLK
* pin D
* pin VPB
* pin VPWR
* pin 
.SUBCKT sky130_fd_sc_hd__dfstp_1 1 6 11 17 18 19 20 24
* net 1 VGND
* net 6 SET_B
* net 11 Q
* net 17 CLK
* net 18 D
* net 19 VPB
* net 20 VPWR
* device instance $1 r0 *1 6.925,2.275 pfet_01v8_hvt
M$1 8 6 20 19 pfet_01v8_hvt L=150000U W=420000U AS=122850000000P
+ AD=109200000000P PS=1170000U PD=1360000U
* device instance $2 r0 *1 7.405,2.065 pfet_01v8_hvt
M$2 9 8 20 19 pfet_01v8_hvt L=150000U W=840000U AS=122850000000P
+ AD=218400000000P PS=1170000U PD=2200000U
* device instance $3 r0 *1 0.47,2.135 pfet_01v8_hvt
M$3 20 17 2 19 pfet_01v8_hvt L=150000U W=640000U AS=166400000000P
+ AD=86400000000P PS=1800000U PD=910000U
* device instance $4 r0 *1 0.89,2.135 pfet_01v8_hvt
M$4 3 2 20 19 pfet_01v8_hvt L=150000U W=640000U AS=86400000000P
+ AD=166400000000P PS=910000U PD=1800000U
* device instance $5 r0 *1 1.83,2.065 pfet_01v8_hvt
M$5 4 18 20 19 pfet_01v8_hvt L=150000U W=840000U AS=218400000000P
+ AD=124950000000P PS=2200000U PD=1175000U
* device instance $6 r0 *1 2.315,2.275 pfet_01v8_hvt
M$6 5 3 4 19 pfet_01v8_hvt L=150000U W=420000U AS=124950000000P AD=56700000000P
+ PS=1175000U PD=690000U
* device instance $7 r0 *1 2.735,2.275 pfet_01v8_hvt
M$7 21 2 5 19 pfet_01v8_hvt L=150000U W=420000U AS=56700000000P AD=94500000000P
+ PS=690000U PD=870000U
* device instance $8 r0 *1 3.335,2.275 pfet_01v8_hvt
M$8 20 7 21 19 pfet_01v8_hvt L=150000U W=420000U AS=94500000000P
+ AD=79800000000P PS=870000U PD=800000U
* device instance $9 r0 *1 3.865,2.275 pfet_01v8_hvt
M$9 7 6 20 19 pfet_01v8_hvt L=150000U W=420000U AS=79800000000P AD=56700000000P
+ PS=800000U PD=690000U
* device instance $10 r0 *1 4.285,2.275 pfet_01v8_hvt
M$10 20 5 7 19 pfet_01v8_hvt L=150000U W=420000U AS=56700000000P
+ AD=56700000000P PS=690000U PD=690000U
* device instance $11 r0 *1 4.705,2.275 pfet_01v8_hvt
M$11 22 5 20 19 pfet_01v8_hvt L=150000U W=420000U AS=56700000000P
+ AD=48300000000P PS=690000U PD=650000U
* device instance $12 r0 *1 5.085,2.275 pfet_01v8_hvt
M$12 8 2 22 19 pfet_01v8_hvt L=150000U W=420000U AS=48300000000P
+ AD=81900000000P PS=650000U PD=810000U
* device instance $13 r0 *1 5.625,2.275 pfet_01v8_hvt
M$13 23 3 8 19 pfet_01v8_hvt L=150000U W=420000U AS=81900000000P
+ AD=44100000000P PS=810000U PD=630000U
* device instance $14 r0 *1 5.985,2.275 pfet_01v8_hvt
M$14 20 9 23 19 pfet_01v8_hvt L=150000U W=420000U AS=44100000000P
+ AD=109200000000P PS=630000U PD=1360000U
* device instance $15 r0 *1 8.345,2.165 pfet_01v8_hvt
M$15 10 8 20 19 pfet_01v8_hvt L=150000U W=640000U AS=149000000000P
+ AD=166400000000P PS=1325000U PD=1800000U
* device instance $16 r0 *1 8.82,1.985 pfet_01v8_hvt
M$16 11 10 20 19 pfet_01v8_hvt L=150000U W=1000000U AS=149000000000P
+ AD=260000000000P PS=1325000U PD=2520000U
* device instance $17 r0 *1 8.345,0.445 nfet_01v8
M$17 1 8 10 24 nfet_01v8 L=150000U W=420000U AS=109200000000P AD=97000000000P
+ PS=1360000U PD=975000U
* device instance $18 r0 *1 8.82,0.56 nfet_01v8
M$18 11 10 1 24 nfet_01v8 L=150000U W=650000U AS=97000000000P AD=169000000000P
+ PS=975000U PD=1820000U
* device instance $19 r0 *1 2.305,0.415 nfet_01v8
M$19 5 2 4 24 nfet_01v8 L=150000U W=360000U AS=93500000000P AD=72000000000P
+ PS=965000U PD=760000U
* device instance $20 r0 *1 2.855,0.415 nfet_01v8
M$20 14 3 5 24 nfet_01v8 L=150000U W=360000U AS=72000000000P AD=67050000000P
+ PS=760000U PD=750000U
* device instance $21 r0 *1 3.335,0.445 nfet_01v8
M$21 1 7 14 24 nfet_01v8 L=150000U W=420000U AS=67050000000P AD=88200000000P
+ PS=750000U PD=840000U
* device instance $22 r0 *1 3.905,0.445 nfet_01v8
M$22 16 6 1 24 nfet_01v8 L=150000U W=420000U AS=88200000000P AD=44100000000P
+ PS=840000U PD=630000U
* device instance $23 r0 *1 4.265,0.445 nfet_01v8
M$23 7 5 16 24 nfet_01v8 L=150000U W=420000U AS=44100000000P AD=109200000000P
+ PS=630000U PD=1360000U
* device instance $24 r0 *1 1.83,0.555 nfet_01v8
M$24 4 18 1 24 nfet_01v8 L=150000U W=640000U AS=166400000000P AD=93500000000P
+ PS=1800000U PD=965000U
* device instance $25 r0 *1 0.47,0.445 nfet_01v8
M$25 1 17 2 24 nfet_01v8 L=150000U W=420000U AS=109200000000P AD=56700000000P
+ PS=1360000U PD=690000U
* device instance $26 r0 *1 0.89,0.445 nfet_01v8
M$26 3 2 1 24 nfet_01v8 L=150000U W=420000U AS=56700000000P AD=109200000000P
+ PS=690000U PD=1360000U
* device instance $27 r0 *1 5.205,0.445 nfet_01v8
M$27 15 5 1 24 nfet_01v8 L=150000U W=420000U AS=109200000000P AD=44100000000P
+ PS=1360000U PD=630000U
* device instance $28 r0 *1 5.565,0.445 nfet_01v8
M$28 8 3 15 24 nfet_01v8 L=150000U W=420000U AS=44100000000P AD=69300000000P
+ PS=630000U PD=750000U
* device instance $29 r0 *1 6.045,0.445 nfet_01v8
M$29 12 2 8 24 nfet_01v8 L=150000U W=420000U AS=69300000000P AD=44100000000P
+ PS=750000U PD=630000U
* device instance $30 r0 *1 6.405,0.445 nfet_01v8
M$30 13 9 12 24 nfet_01v8 L=150000U W=420000U AS=44100000000P AD=48300000000P
+ PS=630000U PD=650000U
* device instance $31 r0 *1 6.785,0.445 nfet_01v8
M$31 1 6 13 24 nfet_01v8 L=150000U W=420000U AS=48300000000P AD=113700000000P
+ PS=650000U PD=1010000U
* device instance $32 r0 *1 7.405,0.505 nfet_01v8
M$32 9 8 1 24 nfet_01v8 L=150000U W=540000U AS=113700000000P AD=140400000000P
+ PS=1010000U PD=1600000U
.ENDS sky130_fd_sc_hd__dfstp_1

* cell sky130_fd_sc_hd__dlygate4sd3_1
* pin VPB
* pin A
* pin VPWR
* pin X
* pin VGND
* pin 
.SUBCKT sky130_fd_sc_hd__dlygate4sd3_1 1 3 5 7 8 9
* net 1 VPB
* net 3 A
* net 5 VPWR
* net 7 X
* net 8 VGND
* device instance $1 r0 *1 2.465,2.275 pfet_01v8_hvt
M$1 6 2 5 1 pfet_01v8_hvt L=500000U W=420000U AS=140750000000P AD=109200000000P
+ PS=1325000U PD=1360000U