* CDL Netlist generated by OpenROAD

*.BUSDELIMITER [

.SUBCKT configurable_carry_lookahead_adder a[0] a[10] a[11]
+ a[12] a[13] a[14] a[15] a[16] a[17] a[18] a[19] a[1] a[20]
+ a[21] a[22] a[23] a[24] a[25] a[26] a[27] a[28] a[29] a[2]
+ a[30] a[31] a[3] a[4] a[5] a[6] a[7] a[8] a[9] b[0] b[10]
+ b[11] b[12] b[13] b[14] b[15] b[16] b[17] b[18] b[19] b[1]
+ b[20] b[21] b[22] b[23] b[24] b[25] b[26] b[27] b[28] b[29]
+ b[2] b[30] b[31] b[3] b[4] b[5] b[6] b[7] b[8] b[9] cin cout
+ sum[0] sum[10] sum[11] sum[12] sum[13] sum[14] sum[15] sum[16]
+ sum[17] sum[18] sum[19] sum[1] sum[20] sum[21] sum[22] sum[23]
+ sum[24] sum[25] sum[26] sum[27] sum[28] sum[29] sum[2] sum[30]
+ sum[31] sum[3] sum[4] sum[5] sum[6] sum[7] sum[8] sum[9]
X_070_ net65 _000_ VDD VSS gf180mcu_fd_sc_mcu9t5v0__clkinv_2
X_071_ net25 _052_ VDD VSS gf180mcu_fd_sc_mcu9t5v0__clkinv_2
X_072_ net1 _001_ VDD VSS gf180mcu_fd_sc_mcu9t5v0__clkinv_2
X_073_ net57 _053_ VDD VSS gf180mcu_fd_sc_mcu9t5v0__clkinv_2
X_074_ net33 _002_ VDD VSS gf180mcu_fd_sc_mcu9t5v0__clkinv_2
X_075_ _006_ net68 VDD VSS gf180mcu_fd_sc_mcu9t5v0__clkinv_2
X_076_ _008_ net69 VDD VSS gf180mcu_fd_sc_mcu9t5v0__clkinv_2
X_077_ _010_ net70 VDD VSS gf180mcu_fd_sc_mcu9t5v0__clkinv_2
X_078_ _012_ net71 VDD VSS gf180mcu_fd_sc_mcu9t5v0__clkinv_2
X_079_ _014_ net72 VDD VSS gf180mcu_fd_sc_mcu9t5v0__clkinv_2
X_080_ _016_ net73 VDD VSS gf180mcu_fd_sc_mcu9t5v0__clkinv_2
X_081_ _018_ net74 VDD VSS gf180mcu_fd_sc_mcu9t5v0__clkinv_2
X_082_ _020_ net75 VDD VSS gf180mcu_fd_sc_mcu9t5v0__clkinv_2
X_083_ _022_ net76 VDD VSS gf180mcu_fd_sc_mcu9t5v0__clkinv_2
X_084_ _024_ net77 VDD VSS gf180mcu_fd_sc_mcu9t5v0__clkinv_2
X_085_ _027_ net78 VDD VSS gf180mcu_fd_sc_mcu9t5v0__clkinv_2
X_086_ _029_ net79 VDD VSS gf180mcu_fd_sc_mcu9t5v0__clkinv_2
X_087_ _031_ net80 VDD VSS gf180mcu_fd_sc_mcu9t5v0__clkinv_2
X_088_ _033_ net81 VDD VSS gf180mcu_fd_sc_mcu9t5v0__clkinv_2
X_089_ _035_ net82 VDD VSS gf180mcu_fd_sc_mcu9t5v0__clkinv_2
X_090_ _037_ net83 VDD VSS gf180mcu_fd_sc_mcu9t5v0__clkinv_2
X_091_ _039_ net84 VDD VSS gf180mcu_fd_sc_mcu9t5v0__clkinv_2
X_092_ _041_ net85 VDD VSS gf180mcu_fd_sc_mcu9t5v0__clkinv_2
X_093_ _043_ net86 VDD VSS gf180mcu_fd_sc_mcu9t5v0__clkinv_2
X_094_ _045_ net87 VDD VSS gf180mcu_fd_sc_mcu9t5v0__clkinv_2
X_095_ _047_ net88 VDD VSS gf180mcu_fd_sc_mcu9t5v0__clkinv_2
X_096_ _049_ net89 VDD VSS gf180mcu_fd_sc_mcu9t5v0__clkinv_2
X_097_ _051_ net90 VDD VSS gf180mcu_fd_sc_mcu9t5v0__clkinv_2
X_098_ _056_ net91 VDD VSS gf180mcu_fd_sc_mcu9t5v0__clkinv_2
X_099_ _058_ net92 VDD VSS gf180mcu_fd_sc_mcu9t5v0__clkinv_2
X_100_ _060_ net93 VDD VSS gf180mcu_fd_sc_mcu9t5v0__clkinv_2
X_101_ _062_ net94 VDD VSS gf180mcu_fd_sc_mcu9t5v0__clkinv_2
X_102_ _064_ net95 VDD VSS gf180mcu_fd_sc_mcu9t5v0__clkinv_2
X_103_ _066_ net96 VDD VSS gf180mcu_fd_sc_mcu9t5v0__clkinv_2
X_104_ _068_ net97 VDD VSS gf180mcu_fd_sc_mcu9t5v0__clkinv_2
X_105_ _069_ net98 VDD VSS gf180mcu_fd_sc_mcu9t5v0__clkinv_2
X_106_ _050_ _054_ VDD VSS gf180mcu_fd_sc_mcu9t5v0__clkinv_2
X_107_ _055_ net66 VDD VSS gf180mcu_fd_sc_mcu9t5v0__clkinv_2
X_108_ _003_ _025_ VDD VSS gf180mcu_fd_sc_mcu9t5v0__clkinv_2
X_109_ _000_ _001_ _002_ _003_ net67 VDD VSS gf180mcu_fd_sc_mcu9t5v0__addf_1
X_110_ net2 net34 _004_ _005_ _006_ VDD VSS gf180mcu_fd_sc_mcu9t5v0__addf_1
X_111_ net3 net35 _005_ _007_ _008_ VDD VSS gf180mcu_fd_sc_mcu9t5v0__addf_1
X_112_ net4 net36 _007_ _009_ _010_ VDD VSS gf180mcu_fd_sc_mcu9t5v0__addf_1
X_113_ net5 net37 _009_ _011_ _012_ VDD VSS gf180mcu_fd_sc_mcu9t5v0__addf_1
X_114_ net6 net38 _011_ _013_ _014_ VDD VSS gf180mcu_fd_sc_mcu9t5v0__addf_1
X_115_ net7 net39 _013_ _015_ _016_ VDD VSS gf180mcu_fd_sc_mcu9t5v0__addf_1
X_116_ net8 net40 _015_ _017_ _018_ VDD VSS gf180mcu_fd_sc_mcu9t5v0__addf_4
X_117_ net9 net41 _017_ _019_ _020_ VDD VSS gf180mcu_fd_sc_mcu9t5v0__addf_1
X_118_ net10 net42 _019_ _021_ _022_ VDD VSS gf180mcu_fd_sc_mcu9t5v0__addf_1
X_119_ net11 net43 _021_ _023_ _024_ VDD VSS gf180mcu_fd_sc_mcu9t5v0__addf_1
X_120_ net12 net44 _025_ _026_ _027_ VDD VSS gf180mcu_fd_sc_mcu9t5v0__addf_1
X_121_ net13 net45 _023_ _028_ _029_ VDD VSS gf180mcu_fd_sc_mcu9t5v0__addf_1
X_122_ net14 net46 _028_ _030_ _031_ VDD VSS gf180mcu_fd_sc_mcu9t5v0__addf_1
X_123_ net15 net47 _030_ _032_ _033_ VDD VSS gf180mcu_fd_sc_mcu9t5v0__addf_4
X_124_ net16 net48 _032_ _034_ _035_ VDD VSS gf180mcu_fd_sc_mcu9t5v0__addf_1
X_125_ net17 net49 _034_ _036_ _037_ VDD VSS gf180mcu_fd_sc_mcu9t5v0__addf_1
X_126_ net18 net50 _036_ _038_ _039_ VDD VSS gf180mcu_fd_sc_mcu9t5v0__addf_1
X_127_ net19 net51 _038_ _040_ _041_ VDD VSS gf180mcu_fd_sc_mcu9t5v0__addf_1
X_128_ net20 net52 _040_ _042_ _043_ VDD VSS gf180mcu_fd_sc_mcu9t5v0__addf_1
X_129_ net21 net53 _042_ _044_ _045_ VDD VSS gf180mcu_fd_sc_mcu9t5v0__addf_1
X_130_ net22 net54 _044_ _046_ _047_ VDD VSS gf180mcu_fd_sc_mcu9t5v0__addf_1
X_131_ net23 net55 _026_ _048_ _049_ VDD VSS gf180mcu_fd_sc_mcu9t5v0__addf_1
X_132_ net24 net56 _046_ _050_ _051_ VDD VSS gf180mcu_fd_sc_mcu9t5v0__addf_1
X_133_ _052_ _053_ _054_ _055_ _056_ VDD VSS gf180mcu_fd_sc_mcu9t5v0__addf_1
X_134_ net26 net58 _048_ _057_ _058_ VDD VSS gf180mcu_fd_sc_mcu9t5v0__addf_1
X_135_ net27 net59 _057_ _059_ _060_ VDD VSS gf180mcu_fd_sc_mcu9t5v0__addf_1
X_136_ net28 net60 _059_ _061_ _062_ VDD VSS gf180mcu_fd_sc_mcu9t5v0__addf_1
X_137_ net29 net61 _061_ _063_ _064_ VDD VSS gf180mcu_fd_sc_mcu9t5v0__addf_1
X_138_ net30 net62 _063_ _065_ _066_ VDD VSS gf180mcu_fd_sc_mcu9t5v0__addf_1
X_139_ net31 net63 _065_ _067_ _068_ VDD VSS gf180mcu_fd_sc_mcu9t5v0__addf_1
X_140_ net32 net64 _067_ _004_ _069_ VDD VSS gf180mcu_fd_sc_mcu9t5v0__addf_1
XPHY_EDGE_ROW_0_Right_0 VDD VSS gf180mcu_fd_sc_mcu9t5v0__endcap
XPHY_EDGE_ROW_1_Right_1 VDD VSS gf180mcu_fd_sc_mcu9t5v0__endcap
XPHY_EDGE_ROW_2_Right_2 VDD VSS gf180mcu_fd_sc_mcu9t5v0__endcap
XPHY_EDGE_ROW_3_Right_3 VDD VSS gf180mcu_fd_sc_mcu9t5v0__endcap
XPHY_EDGE_ROW_4_Right_4 VDD VSS gf180mcu_fd_sc_mcu9t5v0__endcap
XPHY_EDGE_ROW_5_Right_5 VDD VSS gf180mcu_fd_sc_mcu9t5v0__endcap
XPHY_EDGE_ROW_6_Right_6 VDD VSS gf180mcu_fd_sc_mcu9t5v0__endcap
XPHY_EDGE_ROW_7_Right_7 VDD VSS gf180mcu_fd_sc_mcu9t5v0__endcap
XPHY_EDGE_ROW_8_Right_8 VDD VSS gf180mcu_fd_sc_mcu9t5v0__endcap
XPHY_EDGE_ROW_9_Right_9 VDD VSS gf180mcu_fd_sc_mcu9t5v0__endcap
XPHY_EDGE_ROW_10_Right_10 VDD VSS gf180mcu_fd_sc_mcu9t5v0__endcap
XPHY_EDGE_ROW_11_Right_11 VDD VSS gf180mcu_fd_sc_mcu9t5v0__endcap
XPHY_EDGE_ROW_12_Right_12 VDD VSS gf180mcu_fd_sc_mcu9t5v0__endcap
XPHY_EDGE_ROW_13_Right_13 VDD VSS gf180mcu_fd_sc_mcu9t5v0__endcap
XPHY_EDGE_ROW_14_Right_14 VDD VSS gf180mcu_fd_sc_mcu9t5v0__endcap
XPHY_EDGE_ROW_15_Right_15 VDD VSS gf180mcu_fd_sc_mcu9t5v0__endcap
XPHY_EDGE_ROW_16_Right_16 VDD VSS gf180mcu_fd_sc_mcu9t5v0__endcap
XPHY_EDGE_ROW_17_Right_17 VDD VSS gf180mcu_fd_sc_mcu9t5v0__endcap
XPHY_EDGE_ROW_18_Right_18 VDD VSS gf180mcu_fd_sc_mcu9t5v0__endcap
XPHY_EDGE_ROW_19_Right_19 VDD VSS gf180mcu_fd_sc_mcu9t5v0__endcap
XPHY_EDGE_ROW_20_Right_20 VDD VSS gf180mcu_fd_sc_mcu9t5v0__endcap
XPHY_EDGE_ROW_21_Right_21 VDD VSS gf180mcu_fd_sc_mcu9t5v0__endcap
XPHY_EDGE_ROW_22_Right_22 VDD VSS gf180mcu_fd_sc_mcu9t5v0__endcap
XPHY_EDGE_ROW_23_Right_23 VDD VSS gf180mcu_fd_sc_mcu9t5v0__endcap
XPHY_EDGE_ROW_24_Right_24 VDD VSS gf180mcu_fd_sc_mcu9t5v0__endcap
XPHY_EDGE_ROW_25_Right_25 VDD VSS gf180mcu_fd_sc_mcu9t5v0__endcap
XPHY_EDGE_ROW_26_Right_26 VDD VSS gf180mcu_fd_sc_mcu9t5v0__endcap
XPHY_EDGE_ROW_27_Right_27 VDD VSS gf180mcu_fd_sc_mcu9t5v0__endcap
XPHY_EDGE_ROW_28_Right_28 VDD VSS gf180mcu_fd_sc_mcu9t5v0__endcap
XPHY_EDGE_ROW_29_Right_29 VDD VSS gf180mcu_fd_sc_mcu9t5v0__endcap
XPHY_EDGE_ROW_30_Right_30 VDD VSS gf180mcu_fd_sc_mcu9t5v0__endcap
XPHY_EDGE_ROW_31_Right_31 VDD VSS gf180mcu_fd_sc_mcu9t5v0__endcap
XPHY_EDGE_ROW_32_Right_32 VDD VSS gf180mcu_fd_sc_mcu9t5v0__endcap
XPHY_EDGE_ROW_33_Right_33 VDD VSS gf180mcu_fd_sc_mcu9t5v0__endcap
XPHY_EDGE_ROW_34_Right_34 VDD VSS gf180mcu_fd_sc_mcu9t5v0__endcap
XPHY_EDGE_ROW_35_Right_35 VDD VSS gf180mcu_fd_sc_mcu9t5v0__endcap
XPHY_EDGE_ROW_36_Right_36 VDD VSS gf180mcu_fd_sc_mcu9t5v0__endcap
XPHY_EDGE_ROW_37_Right_37 VDD VSS gf180mcu_fd_sc_mcu9t5v0__endcap
XPHY_EDGE_ROW_38_Right_38 VDD VSS gf180mcu_fd_sc_mcu9t5v0__endcap
XPHY_EDGE_ROW_39_Right_39 VDD VSS gf180mcu_fd_sc_mcu9t5v0__endcap
XPHY_EDGE_ROW_40_Right_40 VDD VSS gf180mcu_fd_sc_mcu9t5v0__endcap
XPHY_EDGE_ROW_41_Right_41 VDD VSS gf180mcu_fd_sc_mcu9t5v0__endcap
XPHY_EDGE_ROW_42_Right_42 VDD VSS gf180mcu_fd_sc_mcu9t5v0__endcap
XPHY_EDGE_ROW_43_Right_43 VDD VSS gf180mcu_fd_sc_mcu9t5v0__endcap
XPHY_EDGE_ROW_44_Right_44 VDD VSS gf180mcu_fd_sc_mcu9t5v0__endcap
XPHY_EDGE_ROW_45_Right_45 VDD VSS gf180mcu_fd_sc_mcu9t5v0__endcap
XPHY_EDGE_ROW_46_Right_46 VDD VSS gf180mcu_fd_sc_mcu9t5v0__endcap
XPHY_EDGE_ROW_47_Right_47 VDD VSS gf180mcu_fd_sc_mcu9t5v0__endcap
XPHY_EDGE_ROW_48_Right_48 VDD VSS gf180mcu_fd_sc_mcu9t5v0__endcap
XPHY_EDGE_ROW_49_Right_49 VDD VSS gf180mcu_fd_sc_mcu9t5v0__endcap
XPHY_EDGE_ROW_50_Right_50 VDD VSS gf180mcu_fd_sc_mcu9t5v0__endcap
XPHY_EDGE_ROW_51_Right_51 VDD VSS gf180mcu_fd_sc_mcu9t5v0__endcap
XPHY_EDGE_ROW_52_Right_52 VDD VSS gf180mcu_fd_sc_mcu9t5v0__endcap
XPHY_EDGE_ROW_53_Right_53 VDD VSS gf180mcu_fd_sc_mcu9t5v0__endcap
XPHY_EDGE_ROW_54_Right_54 VDD VSS gf180mcu_fd_sc_mcu9t5v0__endcap
XPHY_EDGE_ROW_55_Right_55 VDD VSS gf180mcu_fd_sc_mcu9t5v0__endcap
XPHY_EDGE_ROW_56_Right_56 VDD VSS gf180mcu_fd_sc_mcu9t5v0__endcap
XPHY_EDGE_ROW_57_Right_57 VDD VSS gf180mcu_fd_sc_mcu9t5v0__endcap
XPHY_EDGE_ROW_58_Right_58 VDD VSS gf180mcu_fd_sc_mcu9t5v0__endcap
XPHY_EDGE_ROW_59_Right_59 VDD VSS gf180mcu_fd_sc_mcu9t5v0__endcap
XPHY_EDGE_ROW_60_Right_60 VDD VSS gf180mcu_fd_sc_mcu9t5v0__endcap
XPHY_EDGE_ROW_61_Right_61 VDD VSS gf180mcu_fd_sc_mcu9t5v0__endcap
XPHY_EDGE_ROW_62_Right_62 VDD VSS gf180mcu_fd_sc_mcu9t5v0__endcap
XPHY_EDGE_ROW_63_Right_63 VDD VSS gf180mcu_fd_sc_mcu9t5v0__endcap
XPHY_EDGE_ROW_64_Right_64 VDD VSS gf180mcu_fd_sc_mcu9t5v0__endcap
XPHY_EDGE_ROW_65_Right_65 VDD VSS gf180mcu_fd_sc_mcu9t5v0__endcap
XPHY_EDGE_ROW_66_Right_66 VDD VSS gf180mcu_fd_sc_mcu9t5v0__endcap
XPHY_EDGE_ROW_67_Right_67 VDD VSS gf180mcu_fd_sc_mcu9t5v0__endcap
XPHY_EDGE_ROW_68_Right_68 VDD VSS gf180mcu_fd_sc_mcu9t5v0__endcap
XPHY_EDGE_ROW_69_Right_69 VDD VSS gf180mcu_fd_sc_mcu9t5v0__endcap
XPHY_EDGE_ROW_70_Right_70 VDD VSS gf180mcu_fd_sc_mcu9t5v0__endcap
XPHY_EDGE_ROW_71_Right_71 VDD VSS gf180mcu_fd_sc_mcu9t5v0__endcap
XPHY_EDGE_ROW_72_Right_72 VDD VSS gf180mcu_fd_sc_mcu9t5v0__endcap
XPHY_EDGE_ROW_73_Right_73 VDD VSS gf180mcu_fd_sc_mcu9t5v0__endcap
XPHY_EDGE_ROW_74_Right_74 VDD VSS gf180mcu_fd_sc_mcu9t5v0__endcap
XPHY_EDGE_ROW_75_Right_75 VDD VSS gf180mcu_fd_sc_mcu9t5v0__endcap
XPHY_EDGE_ROW_76_Right_76 VDD VSS gf180mcu_fd_sc_mcu9t5v0__endcap
XPHY_EDGE_ROW_77_Right_77 VDD VSS gf180mcu_fd_sc_mcu9t5v0__endcap
XPHY_EDGE_ROW_78_Right_78 VDD VSS gf180mcu_fd_sc_mcu9t5v0__endcap
XPHY_EDGE_ROW_79_Right_79 VDD VSS gf180mcu_fd_sc_mcu9t5v0__endcap
XPHY_EDGE_ROW_80_Right_80 VDD VSS gf180mcu_fd_sc_mcu9t5v0__endcap
XPHY_EDGE_ROW_81_Right_81 VDD VSS gf180mcu_fd_sc_mcu9t5v0__endcap
XPHY_EDGE_ROW_82_Right_82 VDD VSS gf180mcu_fd_sc_mcu9t5v0__endcap
XPHY_EDGE_ROW_83_Right_83 VDD VSS gf180mcu_fd_sc_mcu9t5v0__endcap
XPHY_EDGE_ROW_84_Right_84 VDD VSS gf180mcu_fd_sc_mcu9t5v0__endcap
XPHY_EDGE_ROW_85_Right_85 VDD VSS gf180mcu_fd_sc_mcu9t5v0__endcap
XPHY_EDGE_ROW_86_Right_86 VDD VSS gf180mcu_fd_sc_mcu9t5v0__endcap
XPHY_EDGE_ROW_87_Right_87 VDD VSS gf180mcu_fd_sc_mcu9t5v0__endcap
XPHY_EDGE_ROW_88_Right_88 VDD VSS gf180mcu_fd_sc_mcu9t5v0__endcap
XPHY_EDGE_ROW_89_Right_89 VDD VSS gf180mcu_fd_sc_mcu9t5v0__endcap
XPHY_EDGE_ROW_90_Right_90 VDD VSS gf180mcu_fd_sc_mcu9t5v0__endcap
XPHY_EDGE_ROW_91_Right_91 VDD VSS gf180mcu_fd_sc_mcu9t5v0__endcap
XPHY_EDGE_ROW_92_Right_92 VDD VSS gf180mcu_fd_sc_mcu9t5v0__endcap
XPHY_EDGE_ROW_93_Right_93 VDD VSS gf180mcu_fd_sc_mcu9t5v0__endcap
XPHY_EDGE_ROW_94_Right_94 VDD VSS gf180mcu_fd_sc_mcu9t5v0__endcap
XPHY_EDGE_ROW_95_Right_95 VDD VSS gf180mcu_fd_sc_mcu9t5v0__endcap
XPHY_EDGE_ROW_96_Right_96 VDD VSS gf180mcu_fd_sc_mcu9t5v0__endcap
XPHY_EDGE_ROW_97_Right_97 VDD VSS gf180mcu_fd_sc_mcu9t5v0__endcap
XPHY_EDGE_ROW_98_Right_98 VDD VSS gf180mcu_fd_sc_mcu9t5v0__endcap
XPHY_EDGE_ROW_99_Right_99 VDD VSS gf180mcu_fd_sc_mcu9t5v0__endcap
XPHY_EDGE_ROW_100_Right_100 VDD VSS gf180mcu_fd_sc_mcu9t5v0__endcap
XPHY_EDGE_ROW_101_Right_101 VDD VSS gf180mcu_fd_sc_mcu9t5v0__endcap
XPHY_EDGE_ROW_102_Right_102 VDD VSS gf180mcu_fd_sc_mcu9t5v0__endcap
XPHY_EDGE_ROW_103_Right_103 VDD VSS gf180mcu_fd_sc_mcu9t5v0__endcap
XPHY_EDGE_ROW_104_Right_104 VDD VSS gf180mcu_fd_sc_mcu9t5v0__endcap
XPHY_EDGE_ROW_105_Right_105 VDD VSS gf180mcu_fd_sc_mcu9t5v0__endcap
XPHY_EDGE_ROW_106_Right_106 VDD VSS gf180mcu_fd_sc_mcu9t5v0__endcap
XPHY_EDGE_ROW_107_Right_107 VDD VSS gf180mcu_fd_sc_mcu9t5v0__endcap
XPHY_EDGE_ROW_108_Right_108 VDD VSS gf180mcu_fd_sc_mcu9t5v0__endcap
XPHY_EDGE_ROW_109_Right_109 VDD VSS gf180mcu_fd_sc_mcu9t5v0__endcap
XPHY_EDGE_ROW_110_Right_110 VDD VSS gf180mcu_fd_sc_mcu9t5v0__endcap
XPHY_EDGE_ROW_111_Right_111 VDD VSS gf180mcu_fd_sc_mcu9t5v0__endcap
XPHY_EDGE_ROW_112_Right_112 VDD VSS gf180mcu_fd_sc_mcu9t5v0__endcap
XPHY_EDGE_ROW_113_Right_113 VDD VSS gf180mcu_fd_sc_mcu9t5v0__endcap
XPHY_EDGE_ROW_114_Right_114 VDD VSS gf180mcu_fd_sc_mcu9t5v0__endcap
XPHY_EDGE_ROW_115_Right_115 VDD VSS gf180mcu_fd_sc_mcu9t5v0__endcap
XPHY_EDGE_ROW_116_Right_116 VDD VSS gf180mcu_fd_sc_mcu9t5v0__endcap
XPHY_EDGE_ROW_117_Right_117 VDD VSS gf180mcu_fd_sc_mcu9t5v0__endcap
XPHY_EDGE_ROW_118_Right_118 VDD VSS gf180mcu_fd_sc_mcu9t5v0__endcap
XPHY_EDGE_ROW_119_Right_119 VDD VSS gf180mcu_fd_sc_mcu9t5v0__endcap
XPHY_EDGE_ROW_120_Right_120 VDD VSS gf180mcu_fd_sc_mcu9t5v0__endcap
XPHY_EDGE_ROW_121_Right_121 VDD VSS gf180mcu_fd_sc_mcu9t5v0__endcap
XPHY_EDGE_ROW_122_Right_122 VDD VSS gf180mcu_fd_sc_mcu9t5v0__endcap
XPHY_EDGE_ROW_123_Right_123 VDD VSS gf180mcu_fd_sc_mcu9t5v0__endcap
XPHY_EDGE_ROW_124_Right_124 VDD VSS gf180mcu_fd_sc_mcu9t5v0__endcap
XPHY_EDGE_ROW_125_Right_125 VDD VSS gf180mcu_fd_sc_mcu9t5v0__endcap
XPHY_EDGE_ROW_126_Right_126 VDD VSS gf180mcu_fd_sc_mcu9t5v0__endcap
XPHY_EDGE_ROW_127_Right_127 VDD VSS gf180mcu_fd_sc_mcu9t5v0__endcap
XPHY_EDGE_ROW_128_Right_128 VDD VSS gf180mcu_fd_sc_mcu9t5v0__endcap
XPHY_EDGE_ROW_129_Right_129 VDD VSS gf180mcu_fd_sc_mcu9t5v0__endcap
XPHY_EDGE_ROW_130_Right_130 VDD VSS gf180mcu_fd_sc_mcu9t5v0__endcap
XPHY_EDGE_ROW_131_Right_131 VDD VSS gf180mcu_fd_sc_mcu9t5v0__endcap
XPHY_EDGE_ROW_132_Right_132 VDD VSS gf180mcu_fd_sc_mcu9t5v0__endcap
XPHY_EDGE_ROW_133_Right_133 VDD VSS gf180mcu_fd_sc_mcu9t5v0__endcap
XPHY_EDGE_ROW_134_Right_134 VDD VSS gf180mcu_fd_sc_mcu9t5v0__endcap
XPHY_EDGE_ROW_135_Right_135 VDD VSS gf180mcu_fd_sc_mcu9t5v0__endcap
XPHY_EDGE_ROW_136_Right_136 VDD VSS gf180mcu_fd_sc_mcu9t5v0__endcap
XPHY_EDGE_ROW_137_Right_137 VDD VSS gf180mcu_fd_sc_mcu9t5v0__endcap
XPHY_EDGE_ROW_138_Right_138 VDD VSS gf180mcu_fd_sc_mcu9t5v0__endcap
XPHY_EDGE_ROW_139_Right_139 VDD VSS gf180mcu_fd_sc_mcu9t5v0__endcap
XPHY_EDGE_ROW_140_Right_140 VDD VSS gf180mcu_fd_sc_mcu9t5v0__endcap
XPHY_EDGE_ROW_141_Right_141 VDD VSS gf180mcu_fd_sc_mcu9t5v0__endcap
XPHY_EDGE_ROW_142_Right_142 VDD VSS gf180mcu_fd_sc_mcu9t5v0__endcap
XPHY_EDGE_ROW_143_Right_143 VDD VSS gf180mcu_fd_sc_mcu9t5v0__endcap
XPHY_EDGE_ROW_144_Right_144 VDD VSS gf180mcu_fd_sc_mcu9t5v0__endcap
XPHY_EDGE_ROW_145_Right_145 VDD VSS gf180mcu_fd_sc_mcu9t5v0__endcap
XPHY_EDGE_ROW_146_Right_146 VDD VSS gf180mcu_fd_sc_mcu9t5v0__endcap
XPHY_EDGE_ROW_147_Right_147 VDD VSS gf180mcu_fd_sc_mcu9t5v0__endcap
XPHY_EDGE_ROW_148_Right_148 VDD VSS gf180mcu_fd_sc_mcu9t5v0__endcap
XPHY_EDGE_ROW_149_Right_149 VDD VSS gf180mcu_fd_sc_mcu9t5v0__endcap
XPHY_EDGE_ROW_150_Right_150 VDD VSS gf180mcu_fd_sc_mcu9t5v0__endcap
XPHY_EDGE_ROW_151_Right_151 VDD VSS gf180mcu_fd_sc_mcu9t5v0__endcap
XPHY_EDGE_ROW_152_Right_152 VDD VSS gf180mcu_fd_sc_mcu9t5v0__endcap
XPHY_EDGE_ROW_153_Right_153 VDD VSS gf180mcu_fd_sc_mcu9t5v0__endcap
XPHY_EDGE_ROW_0_Left_154 VDD VSS gf180mcu_fd_sc_mcu9t5v0__endcap
XPHY_EDGE_ROW_1_Left_155 VDD VSS gf180mcu_fd_sc_mcu9t5v0__endcap
XPHY_EDGE_ROW_2_Left_156 VDD VSS gf180mcu_fd_sc_mcu9t5v0__endcap
XPHY_EDGE_ROW_3_Left_157 VDD VSS gf180mcu_fd_sc_mcu9t5v0__endcap
XPHY_EDGE_ROW_4_Left_158 VDD VSS gf180mcu_fd_sc_mcu9t5v0__endcap
XPHY_EDGE_ROW_5_Left_159 VDD VSS gf180mcu_fd_sc_mcu9t5v0__endcap
XPHY_EDGE_ROW_6_Left_160 VDD VSS gf180mcu_fd_sc_mcu9t5v0__endcap
XPHY_EDGE_ROW_7_Left_161 VDD VSS gf180mcu_fd_sc_mcu9t5v0__endcap
XPHY_EDGE_ROW_8_Left_162 VDD VSS gf180mcu_fd_sc_mcu9t5v0__endcap
XPHY_EDGE_ROW_9_Left_163 VDD VSS gf180mcu_fd_sc_mcu9t5v0__endcap
XPHY_EDGE_ROW_10_Left_164 VDD VSS gf180mcu_fd_sc_mcu9t5v0__endcap
XPHY_EDGE_ROW_11_Left_165 VDD VSS gf180mcu_fd_sc_mcu9t5v0__endcap
XPHY_EDGE_ROW_12_Left_166 VDD VSS gf180mcu_fd_sc_mcu9t5v0__endcap
XPHY_EDGE_ROW_13_Left_167 VDD VSS gf180mcu_fd_sc_mcu9t5v0__endcap
XPHY_EDGE_ROW_14_Left_168 VDD VSS gf180mcu_fd_sc_mcu9t5v0__endcap
XPHY_EDGE_ROW_15_Left_169 VDD VSS gf180mcu_fd_sc_mcu9t5v0__endcap
XPHY_EDGE_ROW_16_Left_170 VDD VSS gf180mcu_fd_sc_mcu9t5v0__endcap
XPHY_EDGE_ROW_17_Left_171 VDD VSS gf180mcu_fd_sc_mcu9t5v0__endcap
XPHY_EDGE_ROW_18_Left_172 VDD VSS gf180mcu_fd_sc_mcu9t5v0__endcap
XPHY_EDGE_ROW_19_Left_173 VDD VSS gf180mcu_fd_sc_mcu9t5v0__endcap
XPHY_EDGE_ROW_20_Left_174 VDD VSS gf180mcu_fd_sc_mcu9t5v0__endcap
XPHY_EDGE_ROW_21_Left_175 VDD VSS gf180mcu_fd_sc_mcu9t5v0__endcap
XPHY_EDGE_ROW_22_Left_176 VDD VSS gf180mcu_fd_sc_mcu9t5v0__endcap
XPHY_EDGE_ROW_23_Left_177 VDD VSS gf180mcu_fd_sc_mcu9t5v0__endcap
XPHY_EDGE_ROW_24_Left_178 VDD VSS gf180mcu_fd_sc_mcu9t5v0__endcap
XPHY_EDGE_ROW_25_Left_179 VDD VSS gf180mcu_fd_sc_mcu9t5v0__endcap
XPHY_EDGE_ROW_26_Left_180 VDD VSS gf180mcu_fd_sc_mcu9t5v0__endcap
XPHY_EDGE_ROW_27_Left_181 VDD VSS gf180mcu_fd_sc_mcu9t5v0__endcap
XPHY_EDGE_ROW_28_Left_182 VDD VSS gf180mcu_fd_sc_mcu9t5v0__endcap
XPHY_EDGE_ROW_29_Left_183 VDD VSS gf180mcu_fd_sc_mcu9t5v0__endcap
XPHY_EDGE_ROW_30_Left_184 VDD VSS gf180mcu_fd_sc_mcu9t5v0__endcap
XPHY_EDGE_ROW_31_Left_185 VDD VSS gf180mcu_fd_sc_mcu9t5v0__endcap
XPHY_EDGE_ROW_32_Left_186 VDD VSS gf180mcu_fd_sc_mcu9t5v0__endcap
XPHY_EDGE_ROW_33_Left_187 VDD VSS gf180mcu_fd_sc_mcu9t5v0__endcap
XPHY_EDGE_ROW_34_Left_188 VDD VSS gf180mcu_fd_sc_mcu9t5v0__endcap
XPHY_EDGE_ROW_35_Left_189 VDD VSS gf180mcu_fd_sc_mcu9t5v0__endcap
XPHY_EDGE_ROW_36_Left_190 VDD VSS gf180mcu_fd_sc_mcu9t5v0__endcap
XPHY_EDGE_ROW_37_Left_191 VDD VSS gf180mcu_fd_sc_mcu9t5v0__endcap
XPHY_EDGE_ROW_38_Left_192 VDD VSS gf180mcu_fd_sc_mcu9t5v0__endcap
XPHY_EDGE_ROW_39_Left_193 VDD VSS gf180mcu_fd_sc_mcu9t5v0__endcap
XPHY_EDGE_ROW_40_Left_194 VDD VSS gf180mcu_fd_sc_mcu9t5v0__endcap
XPHY_EDGE_ROW_41_Left_195 VDD VSS gf180mcu_fd_sc_mcu9t5v0__endcap
XPHY_EDGE_ROW_42_Left_196 VDD VSS gf180mcu_fd_sc_mcu9t5v0__endcap
XPHY_EDGE_ROW_43_Left_197 VDD VSS gf180mcu_fd_sc_mcu9t5v0__endcap
XPHY_EDGE_ROW_44_Left_198 VDD VSS gf180mcu_fd_sc_mcu9t5v0__endcap
XPHY_EDGE_ROW_45_Left_199 VDD VSS gf180mcu_fd_sc_mcu9t5v0__endcap
XPHY_EDGE_ROW_46_Left_200 VDD VSS gf180mcu_fd_sc_mcu9t5v0__endcap
XPHY_EDGE_ROW_47_Left_201 VDD VSS gf180mcu_fd_sc_mcu9t5v0__endcap
XPHY_EDGE_ROW_48_Left_202 VDD VSS gf180mcu_fd_sc_mcu9t5v0__endcap
XPHY_EDGE_ROW_49_Left_203 VDD VSS gf180mcu_fd_sc_mcu9t5v0__endcap
XPHY_EDGE_ROW_50_Left_204 VDD VSS gf180mcu_fd_sc_mcu9t5v0__endcap
XPHY_EDGE_ROW_51_Left_205 VDD VSS gf180mcu_fd_sc_mcu9t5v0__endcap
XPHY_EDGE_ROW_52_Left_206 VDD VSS gf180mcu_fd_sc_mcu9t5v0__endcap
XPHY_EDGE_ROW_53_Left_207 VDD VSS gf180mcu_fd_sc_mcu9t5v0__endcap
XPHY_EDGE_ROW_54_Left_208 VDD VSS gf180mcu_fd_sc_mcu9t5v0__endcap
XPHY_EDGE_ROW_55_Left_209 VDD VSS gf180mcu_fd_sc_mcu9t5v0__endcap
XPHY_EDGE_ROW_56_Left_210 VDD VSS gf180mcu_fd_sc_mcu9t5v0__endcap
XPHY_EDGE_ROW_57_Left_211 VDD VSS gf180mcu_fd_sc_mcu9t5v0__endcap
XPHY_EDGE_ROW_58_Left_212 VDD VSS gf180mcu_fd_sc_mcu9t5v0__endcap
XPHY_EDGE_ROW_59_Left_213 VDD VSS gf180mcu_fd_sc_mcu9t5v0__endcap
XPHY_EDGE_ROW_60_Left_214 VDD VSS gf180mcu_fd_sc_mcu9t5v0__endcap
XPHY_EDGE_ROW_61_Left_215 VDD VSS gf180mcu_fd_sc_mcu9t5v0__endcap
XPHY_EDGE_ROW_62_Left_216 VDD VSS gf180mcu_fd_sc_mcu9t5v0__endcap
XPHY_EDGE_ROW_63_Left_217 VDD VSS gf180mcu_fd_sc_mcu9t5v0__endcap
XPHY_EDGE_ROW_64_Left_218 VDD VSS gf180mcu_fd_sc_mcu9t5v0__endcap
XPHY_EDGE_ROW_65_Left_219 VDD VSS gf180mcu_fd_sc_mcu9t5v0__endcap
XPHY_EDGE_ROW_66_Left_220 VDD VSS gf180mcu_fd_sc_mcu9t5v0__endcap
XPHY_EDGE_ROW_67_Left_221 VDD VSS gf180mcu_fd_sc_mcu9t5v0__endcap
XPHY_EDGE_ROW_68_Left_222 VDD VSS gf180mcu_fd_sc_mcu9t5v0__endcap
XPHY_EDGE_ROW_69_Left_223 VDD VSS gf180mcu_fd_sc_mcu9t5v0__endcap
XPHY_EDGE_ROW_70_Left_224 VDD VSS gf180mcu_fd_sc_mcu9t5v0__endcap
XPHY_EDGE_ROW_71_Left_225 VDD VSS gf180mcu_fd_sc_mcu9t5v0__endcap
XPHY_EDGE_ROW_72_Left_226 VDD VSS gf180mcu_fd_sc_mcu9t5v0__endcap
XPHY_EDGE_ROW_73_Left_227 VDD VSS gf180mcu_fd_sc_mcu9t5v0__endcap
XPHY_EDGE_ROW_74_Left_228 VDD VSS gf180mcu_fd_sc_mcu9t5v0__endcap
XPHY_EDGE_ROW_75_Left_229 VDD VSS gf180mcu_fd_sc_mcu9t5v0__endcap
XPHY_EDGE_ROW_76_Left_230 VDD VSS gf180mcu_fd_sc_mcu9t5v0__endcap
XPHY_EDGE_ROW_77_Left_231 VDD VSS gf180mcu_fd_sc_mcu9t5v0__endcap
XPHY_EDGE_ROW_78_Left_232 VDD VSS gf180mcu_fd_sc_mcu9t5v0__endcap
XPHY_EDGE_ROW_79_Left_233 VDD VSS gf180mcu_fd_sc_mcu9t5v0__endcap
XPHY_EDGE_ROW_80_Left_234 VDD VSS gf180mcu_fd_sc_mcu9t5v0__endcap
XPHY_EDGE_ROW_81_Left_235 VDD VSS gf180mcu_fd_sc_mcu9t5v0__endcap
XPHY_EDGE_ROW_82_Left_236 VDD VSS gf180mcu_fd_sc_mcu9t5v0__endcap
XPHY_EDGE_ROW_83_Left_237 VDD VSS gf180mcu_fd_sc_mcu9t5v0__endcap
XPHY_EDGE_ROW_84_Left_238 VDD VSS gf180mcu_fd_sc_mcu9t5v0__endcap
XPHY_EDGE_ROW_85_Left_239 VDD VSS gf180mcu_fd_sc_mcu9t5v0__endcap
XPHY_EDGE_ROW_86_Left_240 VDD VSS gf180mcu_fd_sc_mcu9t5v0__endcap
XPHY_EDGE_ROW_87_Left_241 VDD VSS gf180mcu_fd_sc_mcu9t5v0__endcap
XPHY_EDGE_ROW_88_Left_242 VDD VSS gf180mcu_fd_sc_mcu9t5v0__endcap
XPHY_EDGE_ROW_89_Left_243 VDD VSS gf180mcu_fd_sc_mcu9t5v0__endcap
XPHY_EDGE_ROW_90_Left_244 VDD VSS gf180mcu_fd_sc_mcu9t5v0__endcap
XPHY_EDGE_ROW_91_Left_245 VDD VSS gf180mcu_fd_sc_mcu9t5v0__endcap
XPHY_EDGE_ROW_92_Left_246 VDD VSS gf180mcu_fd_sc_mcu9t5v0__endcap
XPHY_EDGE_ROW_93_Left_247 VDD VSS gf180mcu_fd_sc_mcu9t5v0__endcap
XPHY_EDGE_ROW_94_Left_248 VDD VSS gf180mcu_fd_sc_mcu9t5v0__endcap
XPHY_EDGE_ROW_95_Left_249 VDD VSS gf180mcu_fd_sc_mcu9t5v0__endcap
XPHY_EDGE_ROW_96_Left_250 VDD VSS gf180mcu_fd_sc_mcu9t5v0__endcap
XPHY_EDGE_ROW_97_Left_251 VDD VSS gf180mcu_fd_sc_mcu9t5v0__endcap
XPHY_EDGE_ROW_98_Left_252 VDD VSS gf180mcu_fd_sc_mcu9t5v0__endcap
XPHY_EDGE_ROW_99_Left_253 VDD VSS gf180mcu_fd_sc_mcu9t5v0__endcap
XPHY_EDGE_ROW_100_Left_254 VDD VSS gf180mcu_fd_sc_mcu9t5v0__endcap
XPHY_EDGE_ROW_101_Left_255 VDD VSS gf180mcu_fd_sc_mcu9t5v0__endcap
XPHY_EDGE_ROW_102_Left_256 VDD VSS gf180mcu_fd_sc_mcu9t5v0__endcap
XPHY_EDGE_ROW_103_Left_257 VDD VSS gf180mcu_fd_sc_mcu9t5v0__endcap
XPHY_EDGE_ROW_104_Left_258 VDD VSS gf180mcu_fd_sc_mcu9t5v0__endcap
XPHY_EDGE_ROW_105_Left_259 VDD VSS gf180mcu_fd_sc_mcu9t5v0__endcap
XPHY_EDGE_ROW_106_Left_260 VDD VSS gf180mcu_fd_sc_mcu9t5v0__endcap
XPHY_EDGE_ROW_107_Left_261 VDD VSS gf180mcu_fd_sc_mcu9t5v0__endcap
XPHY_EDGE_ROW_108_Left_262 VDD VSS gf180mcu_fd_sc_mcu9t5v0__endcap
XPHY_EDGE_ROW_109_Left_263 VDD VSS gf180mcu_fd_sc_mcu9t5v0__endcap
XPHY_EDGE_ROW_110_Left_264 VDD VSS gf180mcu_fd_sc_mcu9t5v0__endcap
XPHY_EDGE_ROW_111_Left_265 VDD VSS gf180mcu_fd_sc_mcu9t5v0__endcap
XPHY_EDGE_ROW_112_Left_266 VDD VSS gf180mcu_fd_sc_mcu9t5v0__endcap
XPHY_EDGE_ROW_113_Left_267 VDD VSS gf180mcu_fd_sc_mcu9t5v0__endcap
XPHY_EDGE_ROW_114_Left_268 VDD VSS gf180mcu_fd_sc_mcu9t5v0__endcap
XPHY_EDGE_ROW_115_Left_269 VDD VSS gf180mcu_fd_sc_mcu9t5v0__endcap
XPHY_EDGE_ROW_116_Left_270 VDD VSS gf180mcu_fd_sc_mcu9t5v0__endcap
XPHY_EDGE_ROW_117_Left_271 VDD VSS gf180mcu_fd_sc_mcu9t5v0__endcap
XPHY_EDGE_ROW_118_Left_272 VDD VSS gf180mcu_fd_sc_mcu9t5v0__endcap
XPHY_EDGE_ROW_119_Left_273 VDD VSS gf180mcu_fd_sc_mcu9t5v0__endcap
XPHY_EDGE_ROW_120_Left_274 VDD VSS gf180mcu_fd_sc_mcu9t5v0__endcap
XPHY_EDGE_ROW_121_Left_275 VDD VSS gf180mcu_fd_sc_mcu9t5v0__endcap
XPHY_EDGE_ROW_122_Left_276 VDD VSS gf180mcu_fd_sc_mcu9t5v0__endcap
XPHY_EDGE_ROW_123_Left_277 VDD VSS gf180mcu_fd_sc_mcu9t5v0__endcap
XPHY_EDGE_ROW_124_Left_278 VDD VSS gf180mcu_fd_sc_mcu9t5v0__endcap
XPHY_EDGE_ROW_125_Left_279 VDD VSS gf180mcu_fd_sc_mcu9t5v0__endcap
XPHY_EDGE_ROW_126_Left_280 VDD VSS gf180mcu_fd_sc_mcu9t5v0__endcap
XPHY_EDGE_ROW_127_Left_281 VDD VSS gf180mcu_fd_sc_mcu9t5v0__endcap
XPHY_EDGE_ROW_128_Left_282 VDD VSS gf180mcu_fd_sc_mcu9t5v0__endcap
XPHY_EDGE_ROW_129_Left_283 VDD VSS gf180mcu_fd_sc_mcu9t5v0__endcap
XPHY_EDGE_ROW_130_Left_284 VDD VSS gf180mcu_fd_sc_mcu9t5v0__endcap
XPHY_EDGE_ROW_131_Left_285 VDD VSS gf180mcu_fd_sc_mcu9t5v0__endcap
XPHY_EDGE_ROW_132_Left_286 VDD VSS gf180mcu_fd_sc_mcu9t5v0__endcap
XPHY_EDGE_ROW_133_Left_287 VDD VSS gf180mcu_fd_sc_mcu9t5v0__endcap
XPHY_EDGE_ROW_134_Left_288 VDD VSS gf180mcu_fd_sc_mcu9t5v0__endcap
XPHY_EDGE_ROW_135_Left_289 VDD VSS gf180mcu_fd_sc_mcu9t5v0__endcap
XPHY_EDGE_ROW_136_Left_290 VDD VSS gf180mcu_fd_sc_mcu9t5v0__endcap
XPHY_EDGE_ROW_137_Left_291 VDD VSS gf180mcu_fd_sc_mcu9t5v0__endcap
XPHY_EDGE_ROW_138_Left_292 VDD VSS gf180mcu_fd_sc_mcu9t5v0__endcap
XPHY_EDGE_ROW_139_Left_293 VDD VSS gf180mcu_fd_sc_mcu9t5v0__endcap
XPHY_EDGE_ROW_140_Left_294 VDD VSS gf180mcu_fd_sc_mcu9t5v0__endcap
XPHY_EDGE_ROW_141_Left_295 VDD VSS gf180mcu_fd_sc_mcu9t5v0__endcap
XPHY_EDGE_ROW_142_Left_296 VDD VSS gf180mcu_fd_sc_mcu9t5v0__endcap
XPHY_EDGE_ROW_143_Left_297 VDD VSS gf180mcu_fd_sc_mcu9t5v0__endcap
XPHY_EDGE_ROW_144_Left_298 VDD VSS gf180mcu_fd_sc_mcu9t5v0__endcap
XPHY_EDGE_ROW_145_Left_299 VDD VSS gf180mcu_fd_sc_mcu9t5v0__endcap
XPHY_EDGE_ROW_146_Left_300 VDD VSS gf180mcu_fd_sc_mcu9t5v0__endcap
XPHY_EDGE_ROW_147_Left_301 VDD VSS gf180mcu_fd_sc_mcu9t5v0__endcap
XPHY_EDGE_ROW_148_Left_302 VDD VSS gf180mcu_fd_sc_mcu9t5v0__endcap
XPHY_EDGE_ROW_149_Left_303 VDD VSS gf180mcu_fd_sc_mcu9t5v0__endcap
XPHY_EDGE_ROW_150_Left_304 VDD VSS gf180mcu_fd_sc_mcu9t5v0__endcap
XPHY_EDGE_ROW_151_Left_305 VDD VSS gf180mcu_fd_sc_mcu9t5v0__endcap
XPHY_EDGE_ROW_152_Left_306 VDD VSS gf180mcu_fd_sc_mcu9t5v0__endcap
XPHY_EDGE_ROW_153_Left_307 VDD VSS gf180mcu_fd_sc_mcu9t5v0__endcap
XTAP_TAPCELL_ROW_0_308 VDD VSS gf180mcu_fd_sc_mcu9t5v0__filltie
XTAP_TAPCELL_ROW_0_309 VDD VSS gf180mcu_fd_sc_mcu9t5v0__filltie
XTAP_TAPCELL_ROW_0_310 VDD VSS gf180mcu_fd_sc_mcu9t5v0__filltie
XTAP_TAPCELL_ROW_0_311 VDD VSS gf180mcu_fd_sc_mcu9t5v0__filltie
XTAP_TAPCELL_ROW_0_312 VDD VSS gf180mcu_fd_sc_mcu9t5v0__filltie
XTAP_TAPCELL_ROW_0_313 VDD VSS gf180mcu_fd_sc_mcu9t5v0__filltie
XTAP_TAPCELL_ROW_0_314 VDD VSS gf180mcu_fd_sc_mcu9t5v0__filltie
XTAP_TAPCELL_ROW_1_315 VDD VSS gf180mcu_fd_sc_mcu9t5v0__filltie
XTAP_TAPCELL_ROW_1_316 VDD VSS gf180mcu_fd_sc_mcu9t5v0__filltie
XTAP_TAPCELL_ROW_1_317 VDD VSS gf180mcu_fd_sc_mcu9t5v0__filltie
XTAP_TAPCELL_ROW_2_318 VDD VSS gf180mcu_fd_sc_mcu9t5v0__filltie
XTAP_TAPCELL_ROW_2_319 VDD VSS gf180mcu_fd_sc_mcu9t5v0__filltie
XTAP_TAPCELL_ROW_2_320 VDD VSS gf180mcu_fd_sc_mcu9t5v0__filltie
XTAP_TAPCELL_ROW_2_321 VDD VSS gf180mcu_fd_sc_mcu9t5v0__filltie
XTAP_TAPCELL_ROW_3_322 VDD VSS gf180mcu_fd_sc_mcu9t5v0__filltie
XTAP_TAPCELL_ROW_3_323 VDD VSS gf180mcu_fd_sc_mcu9t5v0__filltie
XTAP_TAPCELL_ROW_3_324 VDD VSS gf180mcu_fd_sc_mcu9t5v0__filltie
XTAP_TAPCELL_ROW_4_325 VDD VSS gf180mcu_fd_sc_mcu9t5v0__filltie
XTAP_TAPCELL_ROW_4_326 VDD VSS gf180mcu_fd_sc_mcu9t5v0__filltie
XTAP_TAPCELL_ROW_4_327 VDD VSS gf180mcu_fd_sc_mcu9t5v0__filltie
XTAP_TAPCELL_ROW_4_328 VDD VSS gf180mcu_fd_sc_mcu9t5v0__filltie
XTAP_TAPCELL_ROW_5_329 VDD VSS gf180mcu_fd_sc_mcu9t5v0__filltie
XTAP_TAPCELL_ROW_5_330 VDD VSS gf180mcu_fd_sc_mcu9t5v0__filltie
XTAP_TAPCELL_ROW_5_331 VDD VSS gf180mcu_fd_sc_mcu9t5v0__filltie
XTAP_TAPCELL_ROW_6_332 VDD VSS gf180mcu_fd_sc_mcu9t5v0__filltie
XTAP_TAPCELL_ROW_6_333 VDD VSS gf180mcu_fd_sc_mcu9t5v0__filltie
XTAP_TAPCELL_ROW_6_334 VDD VSS gf180mcu_fd_sc_mcu9t5v0__filltie
XTAP_TAPCELL_ROW_6_335 VDD VSS gf180mcu_fd_sc_mcu9t5v0__filltie
XTAP_TAPCELL_ROW_7_336 VDD VSS gf180mcu_fd_sc_mcu9t5v0__filltie
XTAP_TAPCELL_ROW_7_337 VDD VSS gf180mcu_fd_sc_mcu9t5v0__filltie
XTAP_TAPCELL_ROW_7_338 VDD VSS gf180mcu_fd_sc_mcu9t5v0__filltie
XTAP_TAPCELL_ROW_8_339 VDD VSS gf180mcu_fd_sc_mcu9t5v0__filltie
XTAP_TAPCELL_ROW_8_340 VDD VSS gf180mcu_fd_sc_mcu9t5v0__filltie
XTAP_TAPCELL_ROW_8_341 VDD VSS gf180mcu_fd_sc_mcu9t5v0__filltie
XTAP_TAPCELL_ROW_8_342 VDD VSS gf180mcu_fd_sc_mcu9t5v0__filltie
XTAP_TAPCELL_ROW_9_343 VDD VSS gf180mcu_fd_sc_mcu9t5v0__filltie
XTAP_TAPCELL_ROW_9_344 VDD VSS gf180mcu_fd_sc_mcu9t5v0__filltie
XTAP_TAPCELL_ROW_9_345 VDD VSS gf180mcu_fd_sc_mcu9t5v0__filltie
XTAP_TAPCELL_ROW_10_346 VDD VSS gf180mcu_fd_sc_mcu9t5v0__filltie
XTAP_TAPCELL_ROW_10_347 VDD VSS gf180mcu_fd_sc_mcu9t5v0__filltie
XTAP_TAPCELL_ROW_10_348 VDD VSS gf180mcu_fd_sc_mcu9t5v0__filltie
XTAP_TAPCELL_ROW_10_349 VDD VSS gf180mcu_fd_sc_mcu9t5v0__filltie
XTAP_TAPCELL_ROW_11_350 VDD VSS gf180mcu_fd_sc_mcu9t5v0__filltie
XTAP_TAPCELL_ROW_11_351 VDD VSS gf180mcu_fd_sc_mcu9t5v0__filltie
XTAP_TAPCELL_ROW_11_352 VDD VSS gf180mcu_fd_sc_mcu9t5v0__filltie
XTAP_TAPCELL_ROW_12_353 VDD VSS gf180mcu_fd_sc_mcu9t5v0__filltie
XTAP_TAPCELL_ROW_12_354 VDD VSS gf180mcu_fd_sc_mcu9t5v0__filltie
XTAP_TAPCELL_ROW_12_355 VDD VSS gf180mcu_fd_sc_mcu9t5v0__filltie
XTAP_TAPCELL_ROW_12_356 VDD VSS gf180mcu_fd_sc_mcu9t5v0__filltie
XTAP_TAPCELL_ROW_13_357 VDD VSS gf180mcu_fd_sc_mcu9t5v0__filltie
XTAP_TAPCELL_ROW_13_358 VDD VSS gf180mcu_fd_sc_mcu9t5v0__filltie
XTAP_TAPCELL_ROW_13_359 VDD VSS gf180mcu_fd_sc_mcu9t5v0__filltie
XTAP_TAPCELL_ROW_14_360 VDD VSS gf180mcu_fd_sc_mcu9t5v0__filltie
XTAP_TAPCELL_ROW_14_361 VDD VSS gf180mcu_fd_sc_mcu9t5v0__filltie
XTAP_TAPCELL_ROW_14_362 VDD VSS gf180mcu_fd_sc_mcu9t5v0__filltie
XTAP_TAPCELL_ROW_14_363 VDD VSS gf180mcu_fd_sc_mcu9t5v0__filltie
XTAP_TAPCELL_ROW_15_364 VDD VSS gf180mcu_fd_sc_mcu9t5v0__filltie
XTAP_TAPCELL_ROW_15_365 VDD VSS gf180mcu_fd_sc_mcu9t5v0__filltie
XTAP_TAPCELL_ROW_15_366 VDD VSS gf180mcu_fd_sc_mcu9t5v0__filltie
XTAP_TAPCELL_ROW_16_367 VDD VSS gf180mcu_fd_sc_mcu9t5v0__filltie
XTAP_TAPCELL_ROW_16_368 VDD VSS gf180mcu_fd_sc_mcu9t5v0__filltie