* CDL Netlist generated by OpenROAD

*.BUSDELIMITER [

.SUBCKT sync_fifo almost_empty almost_full clk empty full
+ rd_count[0] rd_count[1] rd_count[2] rd_count[3] rd_count[4]
+ rd_data[0] rd_data[1] rd_data[2] rd_data[3] rd_data[4] rd_data[5]
+ rd_data[6] rd_data[7] rd_en rst_n wr_count[0] wr_count[1]
+ wr_count[2] wr_count[3] wr_count[4] wr_data[0] wr_data[1]
+ wr_data[2] wr_data[3] wr_data[4] wr_data[5] wr_data[6] wr_data[7]
+ wr_en
X_309_ _292_ _297_ _289_ _150_ VDD VSS gf180mcu_fd_sc_mcu9t5v0__and3_2
X_310_ _292_ _296_ _150_ _291_ _151_ VDD VSS gf180mcu_fd_sc_mcu9t5v0__aoi211_2
X_311_ wr_ptr\[4\] rd_ptr\[4\] _152_ VDD VSS gf180mcu_fd_sc_mcu9t5v0__xor2_2
X_312_ _151_ _152_ _153_ VDD VSS gf180mcu_fd_sc_mcu9t5v0__xnor2_2
X_313_ _153_ net20 VDD VSS gf180mcu_fd_sc_mcu9t5v0__clkinv_8
X_314_ _308_ net16 VDD VSS gf180mcu_fd_sc_mcu9t5v0__clkinv_8
X_315_ _294_ _154_ VDD VSS gf180mcu_fd_sc_mcu9t5v0__clkinv_2
X_316_ _293_ _296_ _155_ VDD VSS gf180mcu_fd_sc_mcu9t5v0__nor2_2
X_317_ _154_ _307_ _155_ _156_ VDD VSS gf180mcu_fd_sc_mcu9t5v0__oai21_2
X_318_ _297_ _296_ _157_ VDD VSS gf180mcu_fd_sc_mcu9t5v0__or2_2
X_319_ _292_ _156_ _157_ _158_ VDD VSS gf180mcu_fd_sc_mcu9t5v0__and3_2
X_320_ _156_ _157_ _292_ _159_ VDD VSS gf180mcu_fd_sc_mcu9t5v0__aoi21_4
X_321_ _158_ _159_ net19 VDD VSS gf180mcu_fd_sc_mcu9t5v0__nor2_4
X_322_ _297_ _289_ net18 VDD VSS gf180mcu_fd_sc_mcu9t5v0__xor2_4
X_323_ net16 net17 net18 _160_ VDD VSS gf180mcu_fd_sc_mcu9t5v0__nor3_4
X_324_ _158_ _159_ _160_ net20 _161_ VDD VSS gf180mcu_fd_sc_mcu9t5v0__oai211_4
X_325_ _161_ _162_ VDD VSS gf180mcu_fd_sc_mcu9t5v0__clkbuf_8
X_326_ _162_ net15 VDD VSS gf180mcu_fd_sc_mcu9t5v0__inv_4
X_327_ _158_ _159_ _160_ _153_ _163_ VDD VSS gf180mcu_fd_sc_mcu9t5v0__oai211_4
X_328_ _163_ net14 VDD VSS gf180mcu_fd_sc_mcu9t5v0__clkinv_2
X_329_ net2 _163_ _164_ VDD VSS gf180mcu_fd_sc_mcu9t5v0__nand2_2
X_330_ _164_ _165_ VDD VSS gf180mcu_fd_sc_mcu9t5v0__clkbuf_8
X_331_ _165_ _000_ VDD VSS gf180mcu_fd_sc_mcu9t5v0__clkinv_2
X_332_ rd_ptr\[3\] _166_ VDD VSS gf180mcu_fd_sc_mcu9t5v0__buf_4
X_333_ _166_ _290_ VDD VSS gf180mcu_fd_sc_mcu9t5v0__clkinv_2
X_334_ rd_ptr\[1\] _287_ VDD VSS gf180mcu_fd_sc_mcu9t5v0__clkinv_8
X_335_ _307_ _288_ VDD VSS gf180mcu_fd_sc_mcu9t5v0__clkinv_2
X_336_ rd_ptr\[2\] _295_ VDD VSS gf180mcu_fd_sc_mcu9t5v0__clkinv_8
X_337_ wr_ptr\[0\] _002_ VDD VSS gf180mcu_fd_sc_mcu9t5v0__clkinv_2
X_338_ wr_ptr\[1\] _299_ VDD VSS gf180mcu_fd_sc_mcu9t5v0__clkinv_2
X_339_ net3 _167_ VDD VSS gf180mcu_fd_sc_mcu9t5v0__clkbuf_4
X_340_ net11 _168_ VDD VSS gf180mcu_fd_sc_mcu9t5v0__clkbuf_3
X_341_ wr_ptr\[3\] _169_ VDD VSS gf180mcu_fd_sc_mcu9t5v0__clkinv_2
X_342_ wr_ptr\[2\] _170_ VDD VSS gf180mcu_fd_sc_mcu9t5v0__clkinv_2
X_343_ _169_ _170_ _171_ VDD VSS gf180mcu_fd_sc_mcu9t5v0__and2_2
X_344_ _168_ _300_ _162_ _171_ _172_ VDD VSS gf180mcu_fd_sc_mcu9t5v0__and4_2
X_345_ _172_ _173_ VDD VSS gf180mcu_fd_sc_mcu9t5v0__clkbuf_8
X_346_ mem\[0\]\[0\] _167_ _173_ _004_ VDD VSS gf180mcu_fd_sc_mcu9t5v0__mux2_2
X_347_ net4 _174_ VDD VSS gf180mcu_fd_sc_mcu9t5v0__buf_3
X_348_ mem\[0\]\[1\] _174_ _173_ _005_ VDD VSS gf180mcu_fd_sc_mcu9t5v0__mux2_2
X_349_ net5 _175_ VDD VSS gf180mcu_fd_sc_mcu9t5v0__clkbuf_4
X_350_ mem\[0\]\[2\] _175_ _173_ _006_ VDD VSS gf180mcu_fd_sc_mcu9t5v0__mux2_2
X_351_ net6 _176_ VDD VSS gf180mcu_fd_sc_mcu9t5v0__clkbuf_4
X_352_ mem\[0\]\[3\] _176_ _173_ _007_ VDD VSS gf180mcu_fd_sc_mcu9t5v0__mux2_2
X_353_ net7 _177_ VDD VSS gf180mcu_fd_sc_mcu9t5v0__clkbuf_4
X_354_ mem\[0\]\[4\] _177_ _173_ _008_ VDD VSS gf180mcu_fd_sc_mcu9t5v0__mux2_2
X_355_ net8 _178_ VDD VSS gf180mcu_fd_sc_mcu9t5v0__buf_3
X_356_ mem\[0\]\[5\] _178_ _173_ _009_ VDD VSS gf180mcu_fd_sc_mcu9t5v0__mux2_2
X_357_ net9 _179_ VDD VSS gf180mcu_fd_sc_mcu9t5v0__clkbuf_4
X_358_ mem\[0\]\[6\] _179_ _173_ _010_ VDD VSS gf180mcu_fd_sc_mcu9t5v0__mux2_2
X_359_ net10 _180_ VDD VSS gf180mcu_fd_sc_mcu9t5v0__buf_3
X_360_ mem\[0\]\[7\] _180_ _173_ _011_ VDD VSS gf180mcu_fd_sc_mcu9t5v0__mux2_2
X_361_ wr_ptr\[3\] _170_ _181_ VDD VSS gf180mcu_fd_sc_mcu9t5v0__and2_2
X_362_ _168_ _301_ _162_ _181_ _182_ VDD VSS gf180mcu_fd_sc_mcu9t5v0__and4_2
X_363_ _182_ _183_ VDD VSS gf180mcu_fd_sc_mcu9t5v0__clkbuf_8
X_364_ mem\[10\]\[0\] _167_ _183_ _012_ VDD VSS gf180mcu_fd_sc_mcu9t5v0__mux2_2
X_365_ mem\[10\]\[1\] _174_ _183_ _013_ VDD VSS gf180mcu_fd_sc_mcu9t5v0__mux2_2
X_366_ mem\[10\]\[2\] _175_ _183_ _014_ VDD VSS gf180mcu_fd_sc_mcu9t5v0__mux2_2
X_367_ mem\[10\]\[3\] _176_ _183_ _015_ VDD VSS gf180mcu_fd_sc_mcu9t5v0__mux2_2
X_368_ mem\[10\]\[4\] _177_ _183_ _016_ VDD VSS gf180mcu_fd_sc_mcu9t5v0__mux2_2
X_369_ mem\[10\]\[5\] _178_ _183_ _017_ VDD VSS gf180mcu_fd_sc_mcu9t5v0__mux2_2
X_370_ mem\[10\]\[6\] _179_ _183_ _018_ VDD VSS gf180mcu_fd_sc_mcu9t5v0__mux2_2
X_371_ mem\[10\]\[7\] _180_ _183_ _019_ VDD VSS gf180mcu_fd_sc_mcu9t5v0__mux2_2
X_372_ net11 _305_ _184_ VDD VSS gf180mcu_fd_sc_mcu9t5v0__and2_2
X_373_ _162_ _181_ _184_ _185_ VDD VSS gf180mcu_fd_sc_mcu9t5v0__and3_4
X_374_ mem\[11\]\[0\] _167_ _185_ _020_ VDD VSS gf180mcu_fd_sc_mcu9t5v0__mux2_2
X_375_ mem\[11\]\[1\] _174_ _185_ _021_ VDD VSS gf180mcu_fd_sc_mcu9t5v0__mux2_2
X_376_ mem\[11\]\[2\] _175_ _185_ _022_ VDD VSS gf180mcu_fd_sc_mcu9t5v0__mux2_2
X_377_ mem\[11\]\[3\] _176_ _185_ _023_ VDD VSS gf180mcu_fd_sc_mcu9t5v0__mux2_2
X_378_ mem\[11\]\[4\] _177_ _185_ _024_ VDD VSS gf180mcu_fd_sc_mcu9t5v0__mux2_2
X_379_ mem\[11\]\[5\] _178_ _185_ _025_ VDD VSS gf180mcu_fd_sc_mcu9t5v0__mux2_2
X_380_ mem\[11\]\[6\] _179_ _185_ _026_ VDD VSS gf180mcu_fd_sc_mcu9t5v0__mux2_2
X_381_ mem\[11\]\[7\] _180_ _185_ _027_ VDD VSS gf180mcu_fd_sc_mcu9t5v0__mux2_2
X_382_ wr_ptr\[3\] wr_ptr\[2\] _186_ VDD VSS gf180mcu_fd_sc_mcu9t5v0__and2_2
X_383_ _168_ _300_ _162_ _186_ _187_ VDD VSS gf180mcu_fd_sc_mcu9t5v0__and4_2
X_384_ _187_ _188_ VDD VSS gf180mcu_fd_sc_mcu9t5v0__clkbuf_8
X_385_ mem\[12\]\[0\] _167_ _188_ _028_ VDD VSS gf180mcu_fd_sc_mcu9t5v0__mux2_2
X_386_ mem\[12\]\[1\] _174_ _188_ _029_ VDD VSS gf180mcu_fd_sc_mcu9t5v0__mux2_2
X_387_ mem\[12\]\[2\] _175_ _188_ _030_ VDD VSS gf180mcu_fd_sc_mcu9t5v0__mux2_2
X_388_ mem\[12\]\[3\] _176_ _188_ _031_ VDD VSS gf180mcu_fd_sc_mcu9t5v0__mux2_2
X_389_ mem\[12\]\[4\] _177_ _188_ _032_ VDD VSS gf180mcu_fd_sc_mcu9t5v0__mux2_2
X_390_ mem\[12\]\[5\] _178_ _188_ _033_ VDD VSS gf180mcu_fd_sc_mcu9t5v0__mux2_2
X_391_ mem\[12\]\[6\] _179_ _188_ _034_ VDD VSS gf180mcu_fd_sc_mcu9t5v0__mux2_2
X_392_ mem\[12\]\[7\] _180_ _188_ _035_ VDD VSS gf180mcu_fd_sc_mcu9t5v0__mux2_2
X_393_ _161_ _189_ VDD VSS gf180mcu_fd_sc_mcu9t5v0__clkbuf_8
X_394_ _168_ _303_ _189_ _186_ _190_ VDD VSS gf180mcu_fd_sc_mcu9t5v0__and4_2
X_395_ _190_ _191_ VDD VSS gf180mcu_fd_sc_mcu9t5v0__clkbuf_8
X_396_ mem\[13\]\[0\] _167_ _191_ _036_ VDD VSS gf180mcu_fd_sc_mcu9t5v0__mux2_2
X_397_ mem\[13\]\[1\] _174_ _191_ _037_ VDD VSS gf180mcu_fd_sc_mcu9t5v0__mux2_2
X_398_ mem\[13\]\[2\] _175_ _191_ _038_ VDD VSS gf180mcu_fd_sc_mcu9t5v0__mux2_2
X_399_ mem\[13\]\[3\] _176_ _191_ _039_ VDD VSS gf180mcu_fd_sc_mcu9t5v0__mux2_2
X_400_ mem\[13\]\[4\] _177_ _191_ _040_ VDD VSS gf180mcu_fd_sc_mcu9t5v0__mux2_2
X_401_ mem\[13\]\[5\] _178_ _191_ _041_ VDD VSS gf180mcu_fd_sc_mcu9t5v0__mux2_2
X_402_ mem\[13\]\[6\] _179_ _191_ _042_ VDD VSS gf180mcu_fd_sc_mcu9t5v0__mux2_2
X_403_ mem\[13\]\[7\] _180_ _191_ _043_ VDD VSS gf180mcu_fd_sc_mcu9t5v0__mux2_2
X_404_ _168_ _301_ _189_ _186_ _192_ VDD VSS gf180mcu_fd_sc_mcu9t5v0__and4_2
X_405_ _192_ _193_ VDD VSS gf180mcu_fd_sc_mcu9t5v0__clkbuf_8
X_406_ mem\[14\]\[0\] _167_ _193_ _044_ VDD VSS gf180mcu_fd_sc_mcu9t5v0__mux2_2
X_407_ mem\[14\]\[1\] _174_ _193_ _045_ VDD VSS gf180mcu_fd_sc_mcu9t5v0__mux2_2
X_408_ mem\[14\]\[2\] _175_ _193_ _046_ VDD VSS gf180mcu_fd_sc_mcu9t5v0__mux2_2
X_409_ mem\[14\]\[3\] _176_ _193_ _047_ VDD VSS gf180mcu_fd_sc_mcu9t5v0__mux2_2
X_410_ mem\[14\]\[4\] _177_ _193_ _048_ VDD VSS gf180mcu_fd_sc_mcu9t5v0__mux2_2
X_411_ mem\[14\]\[5\] _178_ _193_ _049_ VDD VSS gf180mcu_fd_sc_mcu9t5v0__mux2_2
X_412_ mem\[14\]\[6\] _179_ _193_ _050_ VDD VSS gf180mcu_fd_sc_mcu9t5v0__mux2_2
X_413_ mem\[14\]\[7\] _180_ _193_ _051_ VDD VSS gf180mcu_fd_sc_mcu9t5v0__mux2_2
X_414_ _189_ _184_ _186_ _194_ VDD VSS gf180mcu_fd_sc_mcu9t5v0__and3_2
X_415_ _194_ _195_ VDD VSS gf180mcu_fd_sc_mcu9t5v0__clkbuf_8
X_416_ mem\[15\]\[0\] _167_ _195_ _052_ VDD VSS gf180mcu_fd_sc_mcu9t5v0__mux2_2
X_417_ mem\[15\]\[1\] _174_ _195_ _053_ VDD VSS gf180mcu_fd_sc_mcu9t5v0__mux2_2
X_418_ mem\[15\]\[2\] _175_ _195_ _054_ VDD VSS gf180mcu_fd_sc_mcu9t5v0__mux2_2
X_419_ mem\[15\]\[3\] _176_ _195_ _055_ VDD VSS gf180mcu_fd_sc_mcu9t5v0__mux2_2
X_420_ mem\[15\]\[4\] _177_ _195_ _056_ VDD VSS gf180mcu_fd_sc_mcu9t5v0__mux2_2
X_421_ mem\[15\]\[5\] _178_ _195_ _057_ VDD VSS gf180mcu_fd_sc_mcu9t5v0__mux2_2
X_422_ mem\[15\]\[6\] _179_ _195_ _058_ VDD VSS gf180mcu_fd_sc_mcu9t5v0__mux2_2
X_423_ mem\[15\]\[7\] _180_ _195_ _059_ VDD VSS gf180mcu_fd_sc_mcu9t5v0__mux2_2
X_424_ _168_ _303_ _189_ _171_ _196_ VDD VSS gf180mcu_fd_sc_mcu9t5v0__and4_2
X_425_ _196_ _197_ VDD VSS gf180mcu_fd_sc_mcu9t5v0__clkbuf_8
X_426_ mem\[1\]\[0\] _167_ _197_ _060_ VDD VSS gf180mcu_fd_sc_mcu9t5v0__mux2_2
X_427_ mem\[1\]\[1\] _174_ _197_ _061_ VDD VSS gf180mcu_fd_sc_mcu9t5v0__mux2_2
X_428_ mem\[1\]\[2\] _175_ _197_ _062_ VDD VSS gf180mcu_fd_sc_mcu9t5v0__mux2_2
X_429_ mem\[1\]\[3\] _176_ _197_ _063_ VDD VSS gf180mcu_fd_sc_mcu9t5v0__mux2_2
X_430_ mem\[1\]\[4\] _177_ _197_ _064_ VDD VSS gf180mcu_fd_sc_mcu9t5v0__mux2_2
X_431_ mem\[1\]\[5\] _178_ _197_ _065_ VDD VSS gf180mcu_fd_sc_mcu9t5v0__mux2_2
X_432_ mem\[1\]\[6\] _179_ _197_ _066_ VDD VSS gf180mcu_fd_sc_mcu9t5v0__mux2_2
X_433_ mem\[1\]\[7\] _180_ _197_ _067_ VDD VSS gf180mcu_fd_sc_mcu9t5v0__mux2_2
X_434_ _168_ _301_ _189_ _171_ _198_ VDD VSS gf180mcu_fd_sc_mcu9t5v0__and4_2
X_435_ _198_ _199_ VDD VSS gf180mcu_fd_sc_mcu9t5v0__clkbuf_8
X_436_ mem\[2\]\[0\] _167_ _199_ _068_ VDD VSS gf180mcu_fd_sc_mcu9t5v0__mux2_2
X_437_ mem\[2\]\[1\] _174_ _199_ _069_ VDD VSS gf180mcu_fd_sc_mcu9t5v0__mux2_2
X_438_ mem\[2\]\[2\] _175_ _199_ _070_ VDD VSS gf180mcu_fd_sc_mcu9t5v0__mux2_2
X_439_ mem\[2\]\[3\] _176_ _199_ _071_ VDD VSS gf180mcu_fd_sc_mcu9t5v0__mux2_2
X_440_ mem\[2\]\[4\] _177_ _199_ _072_ VDD VSS gf180mcu_fd_sc_mcu9t5v0__mux2_2
X_441_ mem\[2\]\[5\] _178_ _199_ _073_ VDD VSS gf180mcu_fd_sc_mcu9t5v0__mux2_2
X_442_ mem\[2\]\[6\] _179_ _199_ _074_ VDD VSS gf180mcu_fd_sc_mcu9t5v0__mux2_2
X_443_ mem\[2\]\[7\] _180_ _199_ _075_ VDD VSS gf180mcu_fd_sc_mcu9t5v0__mux2_2
X_444_ _162_ _171_ _184_ _200_ VDD VSS gf180mcu_fd_sc_mcu9t5v0__and3_4
X_445_ mem\[3\]\[0\] _167_ _200_ _076_ VDD VSS gf180mcu_fd_sc_mcu9t5v0__mux2_2
X_446_ mem\[3\]\[1\] _174_ _200_ _077_ VDD VSS gf180mcu_fd_sc_mcu9t5v0__mux2_2
X_447_ mem\[3\]\[2\] _175_ _200_ _078_ VDD VSS gf180mcu_fd_sc_mcu9t5v0__mux2_2
X_448_ mem\[3\]\[3\] _176_ _200_ _079_ VDD VSS gf180mcu_fd_sc_mcu9t5v0__mux2_2
X_449_ mem\[3\]\[4\] _177_ _200_ _080_ VDD VSS gf180mcu_fd_sc_mcu9t5v0__mux2_2
X_450_ mem\[3\]\[5\] _178_ _200_ _081_ VDD VSS gf180mcu_fd_sc_mcu9t5v0__mux2_2
X_451_ mem\[3\]\[6\] _179_ _200_ _082_ VDD VSS gf180mcu_fd_sc_mcu9t5v0__mux2_2
X_452_ mem\[3\]\[7\] _180_ _200_ _083_ VDD VSS gf180mcu_fd_sc_mcu9t5v0__mux2_2
X_453_ _169_ wr_ptr\[2\] _201_ VDD VSS gf180mcu_fd_sc_mcu9t5v0__and2_2
X_454_ _168_ _300_ _189_ _201_ _202_ VDD VSS gf180mcu_fd_sc_mcu9t5v0__and4_2
X_455_ _202_ _203_ VDD VSS gf180mcu_fd_sc_mcu9t5v0__clkbuf_8
X_456_ mem\[4\]\[0\] net3 _203_ _084_ VDD VSS gf180mcu_fd_sc_mcu9t5v0__mux2_2
X_457_ mem\[4\]\[1\] net4 _203_ _085_ VDD VSS gf180mcu_fd_sc_mcu9t5v0__mux2_2
X_458_ mem\[4\]\[2\] net5 _203_ _086_ VDD VSS gf180mcu_fd_sc_mcu9t5v0__mux2_2
X_459_ mem\[4\]\[3\] net6 _203_ _087_ VDD VSS gf180mcu_fd_sc_mcu9t5v0__mux2_2
X_460_ mem\[4\]\[4\] net7 _203_ _088_ VDD VSS gf180mcu_fd_sc_mcu9t5v0__mux2_2
X_461_ mem\[4\]\[5\] net8 _203_ _089_ VDD VSS gf180mcu_fd_sc_mcu9t5v0__mux2_2
X_462_ mem\[4\]\[6\] net9 _203_ _090_ VDD VSS gf180mcu_fd_sc_mcu9t5v0__mux2_2
X_463_ mem\[4\]\[7\] net10 _203_ _091_ VDD VSS gf180mcu_fd_sc_mcu9t5v0__mux2_2
X_464_ _168_ _303_ _189_ _201_ _204_ VDD VSS gf180mcu_fd_sc_mcu9t5v0__and4_2
X_465_ _204_ _205_ VDD VSS gf180mcu_fd_sc_mcu9t5v0__clkbuf_8
X_466_ mem\[5\]\[0\] net3 _205_ _092_ VDD VSS gf180mcu_fd_sc_mcu9t5v0__mux2_2
X_467_ mem\[5\]\[1\] net4 _205_ _093_ VDD VSS gf180mcu_fd_sc_mcu9t5v0__mux2_2
X_468_ mem\[5\]\[2\] net5 _205_ _094_ VDD VSS gf180mcu_fd_sc_mcu9t5v0__mux2_2
X_469_ mem\[5\]\[3\] net6 _205_ _095_ VDD VSS gf180mcu_fd_sc_mcu9t5v0__mux2_2
X_470_ mem\[5\]\[4\] net7 _205_ _096_ VDD VSS gf180mcu_fd_sc_mcu9t5v0__mux2_2
X_471_ mem\[5\]\[5\] net8 _205_ _097_ VDD VSS gf180mcu_fd_sc_mcu9t5v0__mux2_2
X_472_ mem\[5\]\[6\] net9 _205_ _098_ VDD VSS gf180mcu_fd_sc_mcu9t5v0__mux2_2
X_473_ mem\[5\]\[7\] net10 _205_ _099_ VDD VSS gf180mcu_fd_sc_mcu9t5v0__mux2_2
X_474_ net11 _301_ _189_ _201_ _206_ VDD VSS gf180mcu_fd_sc_mcu9t5v0__and4_2
X_475_ _206_ _207_ VDD VSS gf180mcu_fd_sc_mcu9t5v0__clkbuf_8
X_476_ mem\[6\]\[0\] net3 _207_ _100_ VDD VSS gf180mcu_fd_sc_mcu9t5v0__mux2_2
X_477_ mem\[6\]\[1\] net4 _207_ _101_ VDD VSS gf180mcu_fd_sc_mcu9t5v0__mux2_2
X_478_ mem\[6\]\[2\] net5 _207_ _102_ VDD VSS gf180mcu_fd_sc_mcu9t5v0__mux2_2
X_479_ mem\[6\]\[3\] net6 _207_ _103_ VDD VSS gf180mcu_fd_sc_mcu9t5v0__mux2_2
X_480_ mem\[6\]\[4\] net7 _207_ _104_ VDD VSS gf180mcu_fd_sc_mcu9t5v0__mux2_2
X_481_ mem\[6\]\[5\] net8 _207_ _105_ VDD VSS gf180mcu_fd_sc_mcu9t5v0__mux2_2
X_482_ mem\[6\]\[6\] net9 _207_ _106_ VDD VSS gf180mcu_fd_sc_mcu9t5v0__mux2_2
X_483_ mem\[6\]\[7\] net10 _207_ _107_ VDD VSS gf180mcu_fd_sc_mcu9t5v0__mux2_2
X_484_ _162_ _184_ _201_ _208_ VDD VSS gf180mcu_fd_sc_mcu9t5v0__and3_4
X_485_ mem\[7\]\[0\] net3 _208_ _108_ VDD VSS gf180mcu_fd_sc_mcu9t5v0__mux2_2
X_486_ mem\[7\]\[1\] net4 _208_ _109_ VDD VSS gf180mcu_fd_sc_mcu9t5v0__mux2_2
X_487_ mem\[7\]\[2\] net5 _208_ _110_ VDD VSS gf180mcu_fd_sc_mcu9t5v0__mux2_2
X_488_ mem\[7\]\[3\] net6 _208_ _111_ VDD VSS gf180mcu_fd_sc_mcu9t5v0__mux2_2
X_489_ mem\[7\]\[4\] net7 _208_ _112_ VDD VSS gf180mcu_fd_sc_mcu9t5v0__mux2_2
X_490_ mem\[7\]\[5\] net8 _208_ _113_ VDD VSS gf180mcu_fd_sc_mcu9t5v0__mux2_2
X_491_ mem\[7\]\[6\] net9 _208_ _114_ VDD VSS gf180mcu_fd_sc_mcu9t5v0__mux2_2
X_492_ mem\[7\]\[7\] net10 _208_ _115_ VDD VSS gf180mcu_fd_sc_mcu9t5v0__mux2_2
X_493_ net11 _300_ _189_ _181_ _209_ VDD VSS gf180mcu_fd_sc_mcu9t5v0__and4_2
X_494_ _209_ _210_ VDD VSS gf180mcu_fd_sc_mcu9t5v0__clkbuf_8
X_495_ mem\[8\]\[0\] net3 _210_ _116_ VDD VSS gf180mcu_fd_sc_mcu9t5v0__mux2_2
X_496_ mem\[8\]\[1\] net4 _210_ _117_ VDD VSS gf180mcu_fd_sc_mcu9t5v0__mux2_2
X_497_ mem\[8\]\[2\] net5 _210_ _118_ VDD VSS gf180mcu_fd_sc_mcu9t5v0__mux2_2
X_498_ mem\[8\]\[3\] net6 _210_ _119_ VDD VSS gf180mcu_fd_sc_mcu9t5v0__mux2_2
X_499_ mem\[8\]\[4\] net7 _210_ _120_ VDD VSS gf180mcu_fd_sc_mcu9t5v0__mux2_2
X_500_ mem\[8\]\[5\] net8 _210_ _121_ VDD VSS gf180mcu_fd_sc_mcu9t5v0__mux2_2
X_501_ mem\[8\]\[6\] net9 _210_ _122_ VDD VSS gf180mcu_fd_sc_mcu9t5v0__mux2_2
X_502_ mem\[8\]\[7\] net10 _210_ _123_ VDD VSS gf180mcu_fd_sc_mcu9t5v0__mux2_2
X_503_ net11 _303_ _189_ _181_ _211_ VDD VSS gf180mcu_fd_sc_mcu9t5v0__and4_2
X_504_ _211_ _212_ VDD VSS gf180mcu_fd_sc_mcu9t5v0__clkbuf_8
X_505_ mem\[9\]\[0\] net3 _212_ _124_ VDD VSS gf180mcu_fd_sc_mcu9t5v0__mux2_2
X_506_ mem\[9\]\[1\] net4 _212_ _125_ VDD VSS gf180mcu_fd_sc_mcu9t5v0__mux2_2
X_507_ mem\[9\]\[2\] net5 _212_ _126_ VDD VSS gf180mcu_fd_sc_mcu9t5v0__mux2_2
X_508_ mem\[9\]\[3\] net6 _212_ _127_ VDD VSS gf180mcu_fd_sc_mcu9t5v0__mux2_2
X_509_ mem\[9\]\[4\] net7 _212_ _128_ VDD VSS gf180mcu_fd_sc_mcu9t5v0__mux2_2
X_510_ mem\[9\]\[5\] net8 _212_ _129_ VDD VSS gf180mcu_fd_sc_mcu9t5v0__mux2_2
X_511_ mem\[9\]\[6\] net9 _212_ _130_ VDD VSS gf180mcu_fd_sc_mcu9t5v0__mux2_2
X_512_ mem\[9\]\[7\] net10 _212_ _131_ VDD VSS gf180mcu_fd_sc_mcu9t5v0__mux2_2
X_513_ rd_ptr\[0\] _213_ VDD VSS gf180mcu_fd_sc_mcu9t5v0__buf_4
X_514_ _213_ _214_ VDD VSS gf180mcu_fd_sc_mcu9t5v0__clkbuf_8
X_515_ rd_ptr\[2\] _215_ VDD VSS gf180mcu_fd_sc_mcu9t5v0__buf_4
X_516_ mem\[2\]\[0\] mem\[3\]\[0\] mem\[6\]\[0\] mem\[7\]\[0\]
+ _214_ _215_ _216_ VDD VSS gf180mcu_fd_sc_mcu9t5v0__mux4_2
X_517_ _213_ _217_ VDD VSS gf180mcu_fd_sc_mcu9t5v0__buf_8
X_518_ mem\[0\]\[0\] mem\[1\]\[0\] mem\[4\]\[0\] mem\[5\]\[0\]
+ _217_ rd_ptr\[2\] _218_ VDD VSS gf180mcu_fd_sc_mcu9t5v0__mux4_2
X_519_ _216_ _218_ _287_ _219_ VDD VSS gf180mcu_fd_sc_mcu9t5v0__mux2_2
X_520_ rd_ptr\[1\] _220_ VDD VSS gf180mcu_fd_sc_mcu9t5v0__buf_4
X_521_ mem\[12\]\[0\] mem\[13\]\[0\] mem\[14\]\[0\] mem\[15\]\[0\]
+ _217_ _220_ _221_ VDD VSS gf180mcu_fd_sc_mcu9t5v0__mux4_2
X_522_ _213_ _222_ VDD VSS gf180mcu_fd_sc_mcu9t5v0__buf_8
X_523_ mem\[8\]\[0\] mem\[9\]\[0\] mem\[10\]\[0\] mem\[11\]\[0\]
+ _222_ rd_ptr\[1\] _223_ VDD VSS gf180mcu_fd_sc_mcu9t5v0__mux4_2
X_524_ _221_ _223_ _295_ _224_ VDD VSS gf180mcu_fd_sc_mcu9t5v0__mux2_2
X_525_ _219_ _224_ _166_ _225_ VDD VSS gf180mcu_fd_sc_mcu9t5v0__mux2_2
X_526_ _225_ rd_data_reg\[0\] _165_ _132_ VDD VSS gf180mcu_fd_sc_mcu9t5v0__mux2_2
X_527_ mem\[2\]\[1\] mem\[3\]\[1\] mem\[6\]\[1\] mem\[7\]\[1\]
+ _214_ _215_ _226_ VDD VSS gf180mcu_fd_sc_mcu9t5v0__mux4_2
X_528_ mem\[0\]\[1\] mem\[1\]\[1\] mem\[4\]\[1\] mem\[5\]\[1\]
+ _217_ rd_ptr\[2\] _227_ VDD VSS gf180mcu_fd_sc_mcu9t5v0__mux4_2
X_529_ _226_ _227_ _287_ _228_ VDD VSS gf180mcu_fd_sc_mcu9t5v0__mux2_2
X_530_ mem\[12\]\[1\] mem\[13\]\[1\] mem\[14\]\[1\] mem\[15\]\[1\]
+ _217_ _220_ _229_ VDD VSS gf180mcu_fd_sc_mcu9t5v0__mux4_2
X_531_ mem\[8\]\[1\] mem\[9\]\[1\] mem\[10\]\[1\] mem\[11\]\[1\]
+ _222_ rd_ptr\[1\] _230_ VDD VSS gf180mcu_fd_sc_mcu9t5v0__mux4_2
X_532_ _229_ _230_ _295_ _231_ VDD VSS gf180mcu_fd_sc_mcu9t5v0__mux2_2
X_533_ _228_ _231_ _166_ _232_ VDD VSS gf180mcu_fd_sc_mcu9t5v0__mux2_2
X_534_ _232_ rd_data_reg\[1\] _165_ _133_ VDD VSS gf180mcu_fd_sc_mcu9t5v0__mux2_2
X_535_ mem\[2\]\[2\] mem\[3\]\[2\] mem\[6\]\[2\] mem\[7\]\[2\]
+ _214_ _215_ _233_ VDD VSS gf180mcu_fd_sc_mcu9t5v0__mux4_2
X_536_ mem\[0\]\[2\] mem\[1\]\[2\] mem\[4\]\[2\] mem\[5\]\[2\]
+ _217_ rd_ptr\[2\] _234_ VDD VSS gf180mcu_fd_sc_mcu9t5v0__mux4_2
X_537_ _233_ _234_ _287_ _235_ VDD VSS gf180mcu_fd_sc_mcu9t5v0__mux2_2
X_538_ mem\[12\]\[2\] mem\[13\]\[2\] mem\[14\]\[2\] mem\[15\]\[2\]
+ _222_ _220_ _236_ VDD VSS gf180mcu_fd_sc_mcu9t5v0__mux4_2
X_539_ mem\[8\]\[2\] mem\[9\]\[2\] mem\[10\]\[2\] mem\[11\]\[2\]
+ _222_ rd_ptr\[1\] _237_ VDD VSS gf180mcu_fd_sc_mcu9t5v0__mux4_2
X_540_ _236_ _237_ _295_ _238_ VDD VSS gf180mcu_fd_sc_mcu9t5v0__mux2_2
X_541_ _235_ _238_ _166_ _239_ VDD VSS gf180mcu_fd_sc_mcu9t5v0__mux2_2
X_542_ _239_ rd_data_reg\[2\] _165_ _134_ VDD VSS gf180mcu_fd_sc_mcu9t5v0__mux2_2
X_543_ mem\[2\]\[3\] mem\[3\]\[3\] mem\[6\]\[3\] mem\[7\]\[3\]
+ _214_ _215_ _240_ VDD VSS gf180mcu_fd_sc_mcu9t5v0__mux4_2
X_544_ mem\[0\]\[3\] mem\[1\]\[3\] mem\[4\]\[3\] mem\[5\]\[3\]
+ _217_ rd_ptr\[2\] _241_ VDD VSS gf180mcu_fd_sc_mcu9t5v0__mux4_2
X_545_ _240_ _241_ _287_ _242_ VDD VSS gf180mcu_fd_sc_mcu9t5v0__mux2_2
X_546_ mem\[12\]\[3\] mem\[13\]\[3\] mem\[14\]\[3\] mem\[15\]\[3\]
+ _222_ _220_ _243_ VDD VSS gf180mcu_fd_sc_mcu9t5v0__mux4_2
X_547_ mem\[8\]\[3\] mem\[9\]\[3\] mem\[10\]\[3\] mem\[11\]\[3\]
+ _222_ rd_ptr\[1\] _244_ VDD VSS gf180mcu_fd_sc_mcu9t5v0__mux4_2
X_548_ _243_ _244_ _295_ _245_ VDD VSS gf180mcu_fd_sc_mcu9t5v0__mux2_2
X_549_ _242_ _245_ _166_ _246_ VDD VSS gf180mcu_fd_sc_mcu9t5v0__mux2_2
X_550_ _246_ rd_data_reg\[3\] _165_ _135_ VDD VSS gf180mcu_fd_sc_mcu9t5v0__mux2_2
X_551_ mem\[2\]\[4\] mem\[3\]\[4\] mem\[6\]\[4\] mem\[7\]\[4\]
+ _214_ _215_ _247_ VDD VSS gf180mcu_fd_sc_mcu9t5v0__mux4_2
X_552_ mem\[0\]\[4\] mem\[1\]\[4\] mem\[4\]\[4\] mem\[5\]\[4\]
+ _217_ rd_ptr\[2\] _248_ VDD VSS gf180mcu_fd_sc_mcu9t5v0__mux4_2
X_553_ _247_ _248_ _287_ _249_ VDD VSS gf180mcu_fd_sc_mcu9t5v0__mux2_2
X_554_ mem\[12\]\[4\] mem\[13\]\[4\] mem\[14\]\[4\] mem\[15\]\[4\]
+ _222_ _220_ _250_ VDD VSS gf180mcu_fd_sc_mcu9t5v0__mux4_2
X_555_ mem\[8\]\[4\] mem\[9\]\[4\] mem\[10\]\[4\] mem\[11\]\[4\]
+ _213_ rd_ptr\[1\] _251_ VDD VSS gf180mcu_fd_sc_mcu9t5v0__mux4_2
X_556_ _250_ _251_ _295_ _252_ VDD VSS gf180mcu_fd_sc_mcu9t5v0__mux2_2
X_557_ _249_ _252_ _166_ _253_ VDD VSS gf180mcu_fd_sc_mcu9t5v0__mux2_2
X_558_ _253_ rd_data_reg\[4\] _165_ _136_ VDD VSS gf180mcu_fd_sc_mcu9t5v0__mux2_2
X_559_ mem\[2\]\[5\] mem\[3\]\[5\] mem\[6\]\[5\] mem\[7\]\[5\]
+ _214_ _215_ _254_ VDD VSS gf180mcu_fd_sc_mcu9t5v0__mux4_2
X_560_ mem\[0\]\[5\] mem\[1\]\[5\] mem\[4\]\[5\] mem\[5\]\[5\]
+ _217_ rd_ptr\[2\] _255_ VDD VSS gf180mcu_fd_sc_mcu9t5v0__mux4_2
X_561_ _254_ _255_ _287_ _256_ VDD VSS gf180mcu_fd_sc_mcu9t5v0__mux2_2
X_562_ mem\[12\]\[5\] mem\[13\]\[5\] mem\[14\]\[5\] mem\[15\]\[5\]
+ _222_ _220_ _257_ VDD VSS gf180mcu_fd_sc_mcu9t5v0__mux4_2
X_563_ mem\[8\]\[5\] mem\[9\]\[5\] mem\[10\]\[5\] mem\[11\]\[5\]
+ _213_ rd_ptr\[1\] _258_ VDD VSS gf180mcu_fd_sc_mcu9t5v0__mux4_2
X_564_ _257_ _258_ _295_ _259_ VDD VSS gf180mcu_fd_sc_mcu9t5v0__mux2_2
X_565_ _256_ _259_ _166_ _260_ VDD VSS gf180mcu_fd_sc_mcu9t5v0__mux2_2
X_566_ _260_ rd_data_reg\[5\] _165_ _137_ VDD VSS gf180mcu_fd_sc_mcu9t5v0__mux2_2
X_567_ mem\[2\]\[6\] mem\[3\]\[6\] mem\[6\]\[6\] mem\[7\]\[6\]
+ _214_ _215_ _261_ VDD VSS gf180mcu_fd_sc_mcu9t5v0__mux4_2
X_568_ mem\[0\]\[6\] mem\[1\]\[6\] mem\[4\]\[6\] mem\[5\]\[6\]
+ _217_ rd_ptr\[2\] _262_ VDD VSS gf180mcu_fd_sc_mcu9t5v0__mux4_2
X_569_ _261_ _262_ _287_ _263_ VDD VSS gf180mcu_fd_sc_mcu9t5v0__mux2_2
X_570_ mem\[12\]\[6\] mem\[13\]\[6\] mem\[14\]\[6\] mem\[15\]\[6\]
+ _222_ _220_ _264_ VDD VSS gf180mcu_fd_sc_mcu9t5v0__mux4_2
X_571_ mem\[8\]\[6\] mem\[9\]\[6\] mem\[10\]\[6\] mem\[11\]\[6\]
+ _213_ rd_ptr\[1\] _265_ VDD VSS gf180mcu_fd_sc_mcu9t5v0__mux4_2
X_572_ _264_ _265_ _295_ _266_ VDD VSS gf180mcu_fd_sc_mcu9t5v0__mux2_2
X_573_ _263_ _266_ _166_ _267_ VDD VSS gf180mcu_fd_sc_mcu9t5v0__mux2_2
X_574_ _267_ rd_data_reg\[6\] _165_ _138_ VDD VSS gf180mcu_fd_sc_mcu9t5v0__mux2_2
X_575_ mem\[2\]\[7\] mem\[3\]\[7\] mem\[6\]\[7\] mem\[7\]\[7\]
+ _214_ _215_ _268_ VDD VSS gf180mcu_fd_sc_mcu9t5v0__mux4_2
X_576_ mem\[0\]\[7\] mem\[1\]\[7\] mem\[4\]\[7\] mem\[5\]\[7\]
+ _217_ rd_ptr\[2\] _269_ VDD VSS gf180mcu_fd_sc_mcu9t5v0__mux4_2
X_577_ _268_ _269_ _287_ _270_ VDD VSS gf180mcu_fd_sc_mcu9t5v0__mux2_2
X_578_ mem\[12\]\[7\] mem\[13\]\[7\] mem\[14\]\[7\] mem\[15\]\[7\]
+ _222_ _220_ _271_ VDD VSS gf180mcu_fd_sc_mcu9t5v0__mux4_2
X_579_ mem\[8\]\[7\] mem\[9\]\[7\] mem\[10\]\[7\] mem\[11\]\[7\]
+ _213_ rd_ptr\[1\] _272_ VDD VSS gf180mcu_fd_sc_mcu9t5v0__mux4_2
X_580_ _271_ _272_ _295_ _273_ VDD VSS gf180mcu_fd_sc_mcu9t5v0__mux2_2
X_581_ _270_ _273_ _166_ _274_ VDD VSS gf180mcu_fd_sc_mcu9t5v0__mux2_2
X_582_ _274_ rd_data_reg\[7\] _165_ _139_ VDD VSS gf180mcu_fd_sc_mcu9t5v0__mux2_2
X_583_ _214_ _164_ _140_ VDD VSS gf180mcu_fd_sc_mcu9t5v0__xnor2_2
X_584_ _001_ _220_ _165_ _141_ VDD VSS gf180mcu_fd_sc_mcu9t5v0__mux2_2
X_585_ net2 _298_ _163_ _275_ VDD VSS gf180mcu_fd_sc_mcu9t5v0__and3_2
X_586_ _295_ _275_ _142_ VDD VSS gf180mcu_fd_sc_mcu9t5v0__xnor2_2
X_587_ _214_ net2 _220_ _215_ _276_ VDD VSS gf180mcu_fd_sc_mcu9t5v0__and4_2
X_588_ _163_ _276_ _277_ VDD VSS gf180mcu_fd_sc_mcu9t5v0__and2_2
X_589_ _290_ _277_ _143_ VDD VSS gf180mcu_fd_sc_mcu9t5v0__xnor2_2
X_590_ net2 _215_ _166_ _298_ _278_ VDD VSS gf180mcu_fd_sc_mcu9t5v0__and4_2
X_591_ _163_ _278_ _279_ VDD VSS gf180mcu_fd_sc_mcu9t5v0__nand2_2
X_592_ rd_ptr\[4\] _279_ _144_ VDD VSS gf180mcu_fd_sc_mcu9t5v0__xnor2_2
X_593_ _168_ _162_ _280_ VDD VSS gf180mcu_fd_sc_mcu9t5v0__nand2_2
X_594_ wr_ptr\[0\] _280_ _145_ VDD VSS gf180mcu_fd_sc_mcu9t5v0__xnor2_2
X_595_ _003_ wr_ptr\[1\] _280_ _146_ VDD VSS gf180mcu_fd_sc_mcu9t5v0__mux2_2
X_596_ _162_ _184_ _281_ VDD VSS gf180mcu_fd_sc_mcu9t5v0__and2_2
X_597_ _170_ _281_ _147_ VDD VSS gf180mcu_fd_sc_mcu9t5v0__xnor2_2
X_598_ net11 wr_ptr\[2\] wr_ptr\[1\] wr_ptr\[0\] _282_ VDD
+ VSS gf180mcu_fd_sc_mcu9t5v0__and4_2
X_599_ _162_ _282_ _283_ VDD VSS gf180mcu_fd_sc_mcu9t5v0__and2_2
X_600_ _169_ _283_ _148_ VDD VSS gf180mcu_fd_sc_mcu9t5v0__xnor2_2
X_601_ wr_ptr\[4\] _195_ _149_ VDD VSS gf180mcu_fd_sc_mcu9t5v0__xor2_2
X_602_ net20 net19 _284_ VDD VSS gf180mcu_fd_sc_mcu9t5v0__nor2_2
X_603_ net16 net17 net18 _285_ VDD VSS gf180mcu_fd_sc_mcu9t5v0__aoi21_2
X_604_ _284_ _285_ net12 VDD VSS gf180mcu_fd_sc_mcu9t5v0__and2_2
X_605_ net17 net19 net18 _286_ VDD VSS gf180mcu_fd_sc_mcu9t5v0__and3_2
X_606_ net20 _286_ net13 VDD VSS gf180mcu_fd_sc_mcu9t5v0__or2_2
X_607_ rd_data_reg\[0\] rd_valid net21 VDD VSS gf180mcu_fd_sc_mcu9t5v0__and2_4
X_608_ rd_data_reg\[1\] rd_valid net22 VDD VSS gf180mcu_fd_sc_mcu9t5v0__and2_4
X_609_ rd_data_reg\[2\] rd_valid net23 VDD VSS gf180mcu_fd_sc_mcu9t5v0__and2_4
X_610_ rd_data_reg\[3\] rd_valid net24 VDD VSS gf180mcu_fd_sc_mcu9t5v0__and2_4
X_611_ rd_data_reg\[4\] rd_valid net25 VDD VSS gf180mcu_fd_sc_mcu9t5v0__and2_4
X_612_ rd_data_reg\[5\] rd_valid net26 VDD VSS gf180mcu_fd_sc_mcu9t5v0__and2_4
X_613_ rd_data_reg\[6\] rd_valid net27 VDD VSS gf180mcu_fd_sc_mcu9t5v0__and2_4
X_614_ rd_data_reg\[7\] rd_valid net28 VDD VSS gf180mcu_fd_sc_mcu9t5v0__and2_4
X_615_ _287_ wr_ptr\[1\] _288_ _289_ net17 VDD VSS gf180mcu_fd_sc_mcu9t5v0__addf_4
X_616_ _290_ wr_ptr\[3\] _291_ _292_ VDD VSS gf180mcu_fd_sc_mcu9t5v0__addh_2
X_617_ _287_ wr_ptr\[1\] _293_ _294_ VDD VSS gf180mcu_fd_sc_mcu9t5v0__addh_1
X_618_ _295_ wr_ptr\[2\] _296_ _297_ VDD VSS gf180mcu_fd_sc_mcu9t5v0__addh_2
X_619_ rd_ptr\[0\] rd_ptr\[1\] _298_ _001_ VDD VSS gf180mcu_fd_sc_mcu9t5v0__addh_1
X_620_ _002_ _299_ _300_ _003_ VDD VSS gf180mcu_fd_sc_mcu9t5v0__addh_2
X_621_ _002_ wr_ptr\[1\] _301_ _302_ VDD VSS gf180mcu_fd_sc_mcu9t5v0__addh_2
X_622_ wr_ptr\[0\] _299_ _303_ _304_ VDD VSS gf180mcu_fd_sc_mcu9t5v0__addh_2
X_623_ wr_ptr\[0\] wr_ptr\[1\] _305_ _306_ VDD VSS gf180mcu_fd_sc_mcu9t5v0__addh_1
X_624_ rd_ptr\[0\] _002_ _307_ _308_ VDD VSS gf180mcu_fd_sc_mcu9t5v0__addh_2
X_625_ net16 net29 VDD VSS gf180mcu_fd_sc_mcu9t5v0__clkbuf_2
X_626_ net17 net30 VDD VSS gf180mcu_fd_sc_mcu9t5v0__clkbuf_2
X_627_ net18 net31 VDD VSS gf180mcu_fd_sc_mcu9t5v0__clkbuf_2
X_628_ net19 net32 VDD VSS gf180mcu_fd_sc_mcu9t5v0__clkbuf_2
X_629_ net20 net33 VDD VSS gf180mcu_fd_sc_mcu9t5v0__clkbuf_2
Xmem\[0\]\[0\]$_DFFE_PP_ _004_ clknet_4_9_0_clk mem\[0\]\[0\]
+ VDD VSS gf180mcu_fd_sc_mcu9t5v0__dffq_2
Xmem\[0\]\[1\]$_DFFE_PP_ _005_ clknet_4_11_0_clk mem\[0\]\[1\]
+ VDD VSS gf180mcu_fd_sc_mcu9t5v0__dffq_2
Xmem\[0\]\[2\]$_DFFE_PP_ _006_ clknet_4_10_0_clk mem\[0\]\[2\]
+ VDD VSS gf180mcu_fd_sc_mcu9t5v0__dffq_2
Xmem\[0\]\[3\]$_DFFE_PP_ _007_ clknet_4_10_0_clk mem\[0\]\[3\]
+ VDD VSS gf180mcu_fd_sc_mcu9t5v0__dffq_2
Xmem\[0\]\[4\]$_DFFE_PP_ _008_ clknet_4_8_0_clk mem\[0\]\[4\]
+ VDD VSS gf180mcu_fd_sc_mcu9t5v0__dffq_2
Xmem\[0\]\[5\]$_DFFE_PP_ _009_ clknet_4_3_0_clk mem\[0\]\[5\]
+ VDD VSS gf180mcu_fd_sc_mcu9t5v0__dffq_2
Xmem\[0\]\[6\]$_DFFE_PP_ _010_ clknet_4_0_0_clk mem\[0\]\[6\]
+ VDD VSS gf180mcu_fd_sc_mcu9t5v0__dffq_2
Xmem\[0\]\[7\]$_DFFE_PP_ _011_ clknet_4_2_0_clk mem\[0\]\[7\]
+ VDD VSS gf180mcu_fd_sc_mcu9t5v0__dffq_2
Xmem\[10\]\[0\]$_DFFE_PP_ _012_ clknet_4_12_0_clk mem\[10\]\[0\]
+ VDD VSS gf180mcu_fd_sc_mcu9t5v0__dffq_2
Xmem\[10\]\[1\]$_DFFE_PP_ _013_ clknet_4_12_0_clk mem\[10\]\[1\]
+ VDD VSS gf180mcu_fd_sc_mcu9t5v0__dffq_2
Xmem\[10\]\[2\]$_DFFE_PP_ _014_ clknet_4_14_0_clk mem\[10\]\[2\]
+ VDD VSS gf180mcu_fd_sc_mcu9t5v0__dffq_2
Xmem\[10\]\[3\]$_DFFE_PP_ _015_ clknet_4_14_0_clk mem\[10\]\[3\]
+ VDD VSS gf180mcu_fd_sc_mcu9t5v0__dffq_2
Xmem\[10\]\[4\]$_DFFE_PP_ _016_ clknet_4_12_0_clk mem\[10\]\[4\]
+ VDD VSS gf180mcu_fd_sc_mcu9t5v0__dffq_2
Xmem\[10\]\[5\]$_DFFE_PP_ _017_ clknet_4_6_0_clk mem\[10\]\[5\]
+ VDD VSS gf180mcu_fd_sc_mcu9t5v0__dffq_2
Xmem\[10\]\[6\]$_DFFE_PP_ _018_ clknet_4_4_0_clk mem\[10\]\[6\]
+ VDD VSS gf180mcu_fd_sc_mcu9t5v0__dffq_2
Xmem\[10\]\[7\]$_DFFE_PP_ _019_ clknet_4_6_0_clk mem\[10\]\[7\]
+ VDD VSS gf180mcu_fd_sc_mcu9t5v0__dffq_2
Xmem\[11\]\[0\]$_DFFE_PP_ _020_ clknet_4_12_0_clk mem\[11\]\[0\]
+ VDD VSS gf180mcu_fd_sc_mcu9t5v0__dffq_2
Xmem\[11\]\[1\]$_DFFE_PP_ _021_ clknet_4_12_0_clk mem\[11\]\[1\]
+ VDD VSS gf180mcu_fd_sc_mcu9t5v0__dffq_2
Xmem\[11\]\[2\]$_DFFE_PP_ _022_ clknet_4_14_0_clk mem\[11\]\[2\]
+ VDD VSS gf180mcu_fd_sc_mcu9t5v0__dffq_2
Xmem\[11\]\[3\]$_DFFE_PP_ _023_ clknet_4_14_0_clk mem\[11\]\[3\]
+ VDD VSS gf180mcu_fd_sc_mcu9t5v0__dffq_2
Xmem\[11\]\[4\]$_DFFE_PP_ _024_ clknet_4_6_0_clk mem\[11\]\[4\]
+ VDD VSS gf180mcu_fd_sc_mcu9t5v0__dffq_2
Xmem\[11\]\[5\]$_DFFE_PP_ _025_ clknet_4_6_0_clk mem\[11\]\[5\]
+ VDD VSS gf180mcu_fd_sc_mcu9t5v0__dffq_2
Xmem\[11\]\[6\]$_DFFE_PP_ _026_ clknet_4_4_0_clk mem\[11\]\[6\]
+ VDD VSS gf180mcu_fd_sc_mcu9t5v0__dffq_2
Xmem\[11\]\[7\]$_DFFE_PP_ _027_ clknet_4_6_0_clk mem\[11\]\[7\]
+ VDD VSS gf180mcu_fd_sc_mcu9t5v0__dffq_2
Xmem\[12\]\[0\]$_DFFE_PP_ _028_ clknet_4_12_0_clk mem\[12\]\[0\]
+ VDD VSS gf180mcu_fd_sc_mcu9t5v0__dffq_2
Xmem\[12\]\[1\]$_DFFE_PP_ _029_ clknet_4_15_0_clk mem\[12\]\[1\]
+ VDD VSS gf180mcu_fd_sc_mcu9t5v0__dffq_2
Xmem\[12\]\[2\]$_DFFE_PP_ _030_ clknet_4_15_0_clk mem\[12\]\[2\]
+ VDD VSS gf180mcu_fd_sc_mcu9t5v0__dffq_2
Xmem\[12\]\[3\]$_DFFE_PP_ _031_ clknet_4_15_0_clk mem\[12\]\[3\]
+ VDD VSS gf180mcu_fd_sc_mcu9t5v0__dffq_2
Xmem\[12\]\[4\]$_DFFE_PP_ _032_ clknet_4_13_0_clk mem\[12\]\[4\]
+ VDD VSS gf180mcu_fd_sc_mcu9t5v0__dffq_2
Xmem\[12\]\[5\]$_DFFE_PP_ _033_ clknet_4_7_0_clk mem\[12\]\[5\]
+ VDD VSS gf180mcu_fd_sc_mcu9t5v0__dffq_2
Xmem\[12\]\[6\]$_DFFE_PP_ _034_ clknet_4_5_0_clk mem\[12\]\[6\]
+ VDD VSS gf180mcu_fd_sc_mcu9t5v0__dffq_2
Xmem\[12\]\[7\]$_DFFE_PP_ _035_ clknet_4_7_0_clk mem\[12\]\[7\]
+ VDD VSS gf180mcu_fd_sc_mcu9t5v0__dffq_2
Xmem\[13\]\[0\]$_DFFE_PP_ _036_ clknet_4_13_0_clk mem\[13\]\[0\]
+ VDD VSS gf180mcu_fd_sc_mcu9t5v0__dffq_2
Xmem\[13\]\[1\]$_DFFE_PP_ _037_ clknet_4_15_0_clk mem\[13\]\[1\]
+ VDD VSS gf180mcu_fd_sc_mcu9t5v0__dffq_2
Xmem\[13\]\[2\]$_DFFE_PP_ _038_ clknet_4_15_0_clk mem\[13\]\[2\]
+ VDD VSS gf180mcu_fd_sc_mcu9t5v0__dffq_2
Xmem\[13\]\[3\]$_DFFE_PP_ _039_ clknet_4_15_0_clk mem\[13\]\[3\]
+ VDD VSS gf180mcu_fd_sc_mcu9t5v0__dffq_2
Xmem\[13\]\[4\]$_DFFE_PP_ _040_ clknet_4_13_0_clk mem\[13\]\[4\]
+ VDD VSS gf180mcu_fd_sc_mcu9t5v0__dffq_2
Xmem\[13\]\[5\]$_DFFE_PP_ _041_ clknet_4_7_0_clk mem\[13\]\[5\]
+ VDD VSS gf180mcu_fd_sc_mcu9t5v0__dffq_2
Xmem\[13\]\[6\]$_DFFE_PP_ _042_ clknet_4_7_0_clk mem\[13\]\[6\]
+ VDD VSS gf180mcu_fd_sc_mcu9t5v0__dffq_2