
* cell sync_fifo
* pin wr_data[7]
* pin wr_data[3]
* pin wr_data[4]
* pin wr_data[2]
* pin wr_data[0]
* pin wr_data[1]
* pin full
* pin wr_data[6]
* pin wr_data[5]
* pin clk
* pin wr_en
* pin wr_count[1]
* pin wr_count[0]
* pin rd_data[0]
* pin rd_data[3]
* pin rd_data[4]
* pin rd_data[7]
* pin rd_data[2]
* pin wr_count[2]
* pin rd_count[0]
* pin rd_count[2]
* pin rd_count[3]
* pin almost_empty
* pin empty
* pin almost_full
* pin rd_count[1]
* pin wr_count[3]
* pin rd_data[1]
* pin wr_count[4]
* pin rd_count[4]
* pin rst_n
* pin rd_en
* pin rd_data[5]
* pin rd_data[6]
* pin NWELL
* pin PWELL,gf180mcu_gnd
.SUBCKT sync_fifo 1 2 3 4 76 140 192 232 233 234 261 374 375 394 395 416 417
+ 418 426 427 428 468 469 470 471 472 473 485 491 492 494 536 537 538 539 540
* net 1 wr_data[7]
* net 2 wr_data[3]
* net 3 wr_data[4]
* net 4 wr_data[2]
* net 76 wr_data[0]
* net 140 wr_data[1]
* net 192 full
* net 232 wr_data[6]
* net 233 wr_data[5]
* net 234 clk
* net 261 wr_en
* net 374 wr_count[1]
* net 375 wr_count[0]
* net 394 rd_data[0]
* net 395 rd_data[3]
* net 416 rd_data[4]
* net 417 rd_data[7]
* net 418 rd_data[2]
* net 426 wr_count[2]
* net 427 rd_count[0]
* net 428 rd_count[2]
* net 468 rd_count[3]
* net 469 almost_empty
* net 470 empty
* net 471 almost_full
* net 472 rd_count[1]
* net 473 wr_count[3]
* net 485 rd_data[1]
* net 491 wr_count[4]
* net 492 rd_count[4]
* net 494 rst_n
* net 536 rd_en
* net 537 rd_data[5]
* net 538 rd_data[6]
* net 539 NWELL
* net 540 PWELL,gf180mcu_gnd
* cell instance $3 m0 *1 1108.8,15.12
X$3 540 1 31 539 gf180mcu_fd_sc_mcu9t5v0__clkbuf_8
* cell instance $6 m0 *1 1134.56,15.12
X$6 540 2 6 539 gf180mcu_fd_sc_mcu9t5v0__clkbuf_8
* cell instance $11 r0 *1 1146.32,5.04
X$11 540 3 18 539 gf180mcu_fd_sc_mcu9t5v0__clkbuf_8
* cell instance $14 r0 *1 1182.72,5.04
X$14 540 4 5 539 gf180mcu_fd_sc_mcu9t5v0__buf_8
* cell instance $18 m0 *1 1112.16,1013.04
X$18 540 539 51 5 41 52 gf180mcu_fd_sc_mcu9t5v0__mux2_2
* cell instance $20 m0 *1 1164.8,1113.84
X$20 540 539 256 5 215 253 gf180mcu_fd_sc_mcu9t5v0__mux2_2
* cell instance $24 m0 *1 1154.16,1002.96
X$24 540 539 26 5 27 67 gf180mcu_fd_sc_mcu9t5v0__mux2_2
* cell instance $28 m0 *1 1142.4,1033.2
X$28 540 539 91 5 78 92 gf180mcu_fd_sc_mcu9t5v0__mux2_2
* cell instance $30 r0 *1 1179.36,1113.84
X$30 540 539 254 5 242 294 gf180mcu_fd_sc_mcu9t5v0__mux2_2
* cell instance $32 r0 *1 1109.92,992.88
X$32 540 539 21 5 11 22 gf180mcu_fd_sc_mcu9t5v0__mux2_2
* cell instance $34 m0 *1 1132.88,1103.76
X$34 540 539 5 24 gf180mcu_fd_sc_mcu9t5v0__clkbuf_4
* cell instance $48 m0 *1 1173.2,1002.96
X$48 540 539 29 6 27 28 gf180mcu_fd_sc_mcu9t5v0__mux2_2
* cell instance $51 r0 *1 1106.56,1023.12
X$51 540 539 87 6 11 65 gf180mcu_fd_sc_mcu9t5v0__mux2_2
* cell instance $53 m0 *1 1107.68,1043.28
X$53 540 539 100 6 41 119 gf180mcu_fd_sc_mcu9t5v0__mux2_2
* cell instance $55 r0 *1 1153.04,1103.76
X$55 540 539 252 6 215 229 gf180mcu_fd_sc_mcu9t5v0__mux2_2
* cell instance $58 r0 *1 1169.28,1033.2
X$58 540 539 123 6 78 94 gf180mcu_fd_sc_mcu9t5v0__mux2_2
* cell instance $60 m0 *1 1177.12,1123.92
X$60 540 539 277 6 242 276 gf180mcu_fd_sc_mcu9t5v0__mux2_2
* cell instance $64 r0 *1 1171.52,1113.84
X$64 540 539 6 73 gf180mcu_fd_sc_mcu9t5v0__clkbuf_4
* cell instance $76 m0 *1 1007.44,1033.2
X$76 540 62 7 80 539 gf180mcu_fd_sc_mcu9t5v0__dffq_2
* cell instance $78 m0 *1 1040.48,1043.28
X$78 540 84 7 125 539 gf180mcu_fd_sc_mcu9t5v0__dffq_2
* cell instance $80 r0 *1 1008,1033.2
X$80 540 82 7 81 539 gf180mcu_fd_sc_mcu9t5v0__dffq_2
* cell instance $82 r0 *1 1007.44,992.88
X$82 540 10 7 8 539 gf180mcu_fd_sc_mcu9t5v0__dffq_2
* cell instance $84 m0 *1 1022.56,1053.36
X$84 540 127 7 539 gf180mcu_fd_sc_mcu9t5v0__clkbuf_20
* cell instance $86 m0 *1 1034.32,1033.2
X$86 540 85 7 63 539 gf180mcu_fd_sc_mcu9t5v0__dffq_2
* cell instance $88 r0 *1 1022.56,1043.28
X$88 540 7 539 gf180mcu_fd_sc_mcu9t5v0__clkbuf_12
* cell instance $90 m0 *1 1014.16,1002.96
X$90 540 42 7 9 539 gf180mcu_fd_sc_mcu9t5v0__dffq_2
* cell instance $92 m0 *1 1031.52,1013.04
X$92 540 44 7 43 539 gf180mcu_fd_sc_mcu9t5v0__dffq_2
* cell instance $95 r0 *1 1034.32,992.88
X$95 540 13 7 12 539 gf180mcu_fd_sc_mcu9t5v0__dffq_2
* cell instance $97 m0 *1 999.04,1053.36
X$97 540 108 7 107 539 gf180mcu_fd_sc_mcu9t5v0__dffq_2
* cell instance $105 r0 *1 1016.96,1002.96
X$105 540 539 8 31 11 10 gf180mcu_fd_sc_mcu9t5v0__mux2_2
* cell instance $110 m0 *1 1016.96,1013.04
X$110 540 539 9 31 41 42 gf180mcu_fd_sc_mcu9t5v0__mux2_2
* cell instance $113 r0 *1 1026.48,1002.96
X$113 540 83 49 13 10 47 42 44 539 gf180mcu_fd_sc_mcu9t5v0__mux4_2
* cell instance $120 r0 *1 1033.76,1053.36
X$120 540 539 143 129 11 128 gf180mcu_fd_sc_mcu9t5v0__mux2_2
* cell instance $123 m0 *1 1074.64,1073.52
X$123 540 539 164 148 11 149 gf180mcu_fd_sc_mcu9t5v0__mux2_2
* cell instance $125 m0 *1 1115.52,1083.6
X$125 540 539 178 179 11 180 gf180mcu_fd_sc_mcu9t5v0__mux2_2
* cell instance $127 m0 *1 939.68,1073.52
X$127 540 186 11 539 gf180mcu_fd_sc_mcu9t5v0__clkbuf_8
* cell instance $130 m0 *1 964.32,1023.12
X$130 540 539 35 57 11 59 gf180mcu_fd_sc_mcu9t5v0__mux2_2
* cell instance $133 r0 *1 1064.56,992.88
X$133 540 539 17 18 11 19 gf180mcu_fd_sc_mcu9t5v0__mux2_2
* cell instance $152 m0 *1 1036,1002.96
X$152 540 539 12 15 14 13 gf180mcu_fd_sc_mcu9t5v0__mux2_2
* cell instance $158 m0 *1 999.04,1013.04
X$158 540 539 38 37 14 40 gf180mcu_fd_sc_mcu9t5v0__mux2_2
* cell instance $160 r0 *1 1054.48,1063.44
X$160 540 539 163 146 14 147 gf180mcu_fd_sc_mcu9t5v0__mux2_2
* cell instance $163 m0 *1 1092,1002.96
X$163 540 539 32 33 14 20 gf180mcu_fd_sc_mcu9t5v0__mux2_2
* cell instance $168 r0 *1 1098.72,1073.52
X$168 540 539 177 138 14 151 gf180mcu_fd_sc_mcu9t5v0__mux2_2
* cell instance $170 m0 *1 1136.8,1043.28
X$170 540 539 126 73 14 120 gf180mcu_fd_sc_mcu9t5v0__mux2_2
* cell instance $172 r0 *1 1141.84,1083.6
X$172 540 539 165 182 14 154 gf180mcu_fd_sc_mcu9t5v0__mux2_2
* cell instance $174 r0 *1 1139.04,1013.04
X$174 540 539 23 24 14 55 gf180mcu_fd_sc_mcu9t5v0__mux2_2
* cell instance $176 r0 *1 962.08,1083.6
X$176 540 208 14 539 gf180mcu_fd_sc_mcu9t5v0__clkbuf_8
* cell instance $190 r0 *1 1032.64,1154.16
X$190 540 539 325 15 289 307 gf180mcu_fd_sc_mcu9t5v0__mux2_2
* cell instance $193 r0 *1 1045.52,1184.4
X$193 540 539 446 15 448 481 gf180mcu_fd_sc_mcu9t5v0__mux2_2
* cell instance $195 m0 *1 1030.96,1144.08
X$195 540 539 306 15 265 308 gf180mcu_fd_sc_mcu9t5v0__mux2_2
* cell instance $198 r0 *1 1043.84,1033.2
X$198 540 539 125 15 69 84 gf180mcu_fd_sc_mcu9t5v0__mux2_2
* cell instance $200 m0 *1 1052.24,1093.68
X$200 31 539 540 15 gf180mcu_fd_sc_mcu9t5v0__buf_3
* cell instance $203 r0 *1 1039.36,1023.12
X$203 540 539 63 15 64 85 gf180mcu_fd_sc_mcu9t5v0__mux2_2
* cell instance $207 r0 *1 1045.52,1002.96
X$207 540 539 43 15 25 44 gf180mcu_fd_sc_mcu9t5v0__mux2_2
* cell instance $209 m0 *1 1034.88,1194.48
X$209 540 539 445 15 328 480 gf180mcu_fd_sc_mcu9t5v0__mux2_2
* cell instance $212 m0 *1 1024.8,1194.48
X$212 540 539 490 15 345 444 gf180mcu_fd_sc_mcu9t5v0__mux2_2
* cell instance $215 r0 *1 1055.6,1194.48
X$215 540 539 447 15 482 449 gf180mcu_fd_sc_mcu9t5v0__mux2_2
* cell instance $227 r0 *1 1074.64,1033.2
X$227 540 101 16 86 539 gf180mcu_fd_sc_mcu9t5v0__dffq_2
* cell instance $229 m0 *1 1091.44,1063.44
X$229 540 127 16 539 gf180mcu_fd_sc_mcu9t5v0__clkbuf_20
* cell instance $232 m0 *1 1060.08,1043.28
X$232 540 114 16 112 539 gf180mcu_fd_sc_mcu9t5v0__dffq_2
* cell instance $234 r0 *1 1056.16,1043.28
X$234 540 113 16 111 539 gf180mcu_fd_sc_mcu9t5v0__dffq_2
* cell instance $236 m0 *1 1086.96,1063.44
X$236 540 539 16 gf180mcu_fd_sc_mcu9t5v0__clkinv_3
* cell instance $238 m0 *1 1085.28,1043.28
X$238 540 118 16 117 539 gf180mcu_fd_sc_mcu9t5v0__dffq_2
* cell instance $240 r0 *1 1100.4,1033.2
X$240 540 119 16 100 539 gf180mcu_fd_sc_mcu9t5v0__dffq_2
* cell instance $242 m0 *1 1098.72,1033.2
X$242 540 65 16 87 539 gf180mcu_fd_sc_mcu9t5v0__dffq_2
* cell instance $244 r0 *1 1060.08,1002.96
X$244 540 46 16 45 539 gf180mcu_fd_sc_mcu9t5v0__dffq_2
* cell instance $247 m0 *1 1058.4,1002.96
X$247 540 19 16 17 539 gf180mcu_fd_sc_mcu9t5v0__dffq_2
* cell instance $249 m0 *1 1104.88,1002.96
X$249 540 22 16 21 539 gf180mcu_fd_sc_mcu9t5v0__dffq_2
* cell instance $251 r0 *1 1102.08,1002.96
X$251 540 52 16 51 539 gf180mcu_fd_sc_mcu9t5v0__dffq_2
* cell instance $254 r0 *1 1076.88,1002.96
X$254 540 50 16 48 539 gf180mcu_fd_sc_mcu9t5v0__dffq_2
* cell instance $257 m0 *1 1075.2,1002.96
X$257 540 20 16 32 539 gf180mcu_fd_sc_mcu9t5v0__dffq_2
* cell instance $273 m0 *1 1063.44,1053.36
X$273 540 539 111 18 27 113 gf180mcu_fd_sc_mcu9t5v0__mux2_2
* cell instance $275 r0 *1 1064.56,1033.2
X$275 540 539 112 18 78 114 gf180mcu_fd_sc_mcu9t5v0__mux2_2
* cell instance $279 m0 *1 1065.12,1013.04
X$279 540 539 45 18 41 46 gf180mcu_fd_sc_mcu9t5v0__mux2_2
* cell instance $281 m0 *1 1069.04,1103.76
X$281 540 539 219 18 215 221 gf180mcu_fd_sc_mcu9t5v0__mux2_2
* cell instance $283 r0 *1 1080.24,1103.76
X$283 540 539 259 18 242 222 gf180mcu_fd_sc_mcu9t5v0__mux2_2
* cell instance $285 m0 *1 1069.04,1033.2
X$285 540 539 18 33 gf180mcu_fd_sc_mcu9t5v0__clkbuf_4
* cell instance $291 m0 *1 1073.52,1013.04
X$291 540 115 49 20 19 47 46 50 539 gf180mcu_fd_sc_mcu9t5v0__mux4_2
* cell instance $303 m0 *1 1125.6,1013.04
X$303 540 66 49 55 22 47 52 54 539 gf180mcu_fd_sc_mcu9t5v0__mux4_2
* cell instance $311 r0 *1 1130.08,992.88
X$311 540 55 53 23 539 gf180mcu_fd_sc_mcu9t5v0__dffq_2
* cell instance $315 r0 *1 1113.28,1194.48
X$315 540 539 483 24 345 484 gf180mcu_fd_sc_mcu9t5v0__mux2_2
* cell instance $318 m0 *1 1113.28,1214.64
X$318 540 539 501 24 328 502 gf180mcu_fd_sc_mcu9t5v0__mux2_2
* cell instance $320 m0 *1 1132.88,1214.64
X$320 540 539 503 24 482 504 gf180mcu_fd_sc_mcu9t5v0__mux2_2
* cell instance $322 r0 *1 1148.56,1204.56
X$322 540 539 505 24 448 506 gf180mcu_fd_sc_mcu9t5v0__mux2_2
* cell instance $325 m0 *1 1135.12,1002.96
X$325 540 539 30 24 25 54 gf180mcu_fd_sc_mcu9t5v0__mux2_2
* cell instance $329 r0 *1 1162,1013.04
X$329 540 539 56 24 64 71 gf180mcu_fd_sc_mcu9t5v0__mux2_2
* cell instance $332 m0 *1 1159.76,1023.12
X$332 540 539 68 24 69 70 gf180mcu_fd_sc_mcu9t5v0__mux2_2
* cell instance $334 m0 *1 1141.84,1144.08
X$334 540 539 318 24 265 313 gf180mcu_fd_sc_mcu9t5v0__mux2_2
* cell instance $337 m0 *1 1128.96,1144.08
X$337 540 539 311 24 289 312 gf180mcu_fd_sc_mcu9t5v0__mux2_2
* cell instance $348 m0 *1 1046.64,1063.44
X$348 540 539 130 146 25 131 gf180mcu_fd_sc_mcu9t5v0__mux2_2
* cell instance $350 r0 *1 1080.24,1013.04
X$350 540 539 48 33 25 50 gf180mcu_fd_sc_mcu9t5v0__mux2_2
* cell instance $352 m0 *1 1123.92,1033.2
X$352 540 539 89 73 25 90 gf180mcu_fd_sc_mcu9t5v0__mux2_2
* cell instance $356 r0 *1 1089.2,1083.6
X$356 540 539 176 138 25 150 gf180mcu_fd_sc_mcu9t5v0__mux2_2
* cell instance $358 r0 *1 1133.44,1083.6
X$358 540 539 181 182 25 183 gf180mcu_fd_sc_mcu9t5v0__mux2_2
* cell instance $360 r0 *1 982.8,1002.96
X$360 540 539 36 37 25 39 gf180mcu_fd_sc_mcu9t5v0__mux2_2
* cell instance $362 m0 *1 958.16,1083.6
X$362 540 188 25 539 gf180mcu_fd_sc_mcu9t5v0__clkbuf_8
* cell instance $383 m0 *1 1149.12,1013.04
X$383 540 67 53 26 539 gf180mcu_fd_sc_mcu9t5v0__dffq_2
* cell instance $387 r0 *1 1167.6,1093.68
X$387 540 539 228 179 27 201 gf180mcu_fd_sc_mcu9t5v0__mux2_2
* cell instance $389 r0 *1 1168.16,1073.52
X$389 540 539 136 148 27 157 gf180mcu_fd_sc_mcu9t5v0__mux2_2
* cell instance $392 m0 *1 964.88,1053.36
X$392 540 539 103 57 27 104 gf180mcu_fd_sc_mcu9t5v0__mux2_2
* cell instance $394 r0 *1 1014.72,1023.12
X$394 540 539 80 31 27 62 gf180mcu_fd_sc_mcu9t5v0__mux2_2
* cell instance $396 r0 *1 938,1093.68
X$396 168 193 195 540 539 27 gf180mcu_fd_sc_mcu9t5v0__and3_4
* cell instance $398 m0 *1 999.04,1083.6
X$398 540 539 189 129 27 173 gf180mcu_fd_sc_mcu9t5v0__mux2_2
* cell instance $412 r0 *1 1174.32,1002.96
X$412 540 28 53 29 539 gf180mcu_fd_sc_mcu9t5v0__dffq_2
* cell instance $415 m0 *1 1178.24,1033.2
X$415 540 97 95 74 94 88 28 96 539 gf180mcu_fd_sc_mcu9t5v0__mux4_2
* cell instance $426 r0 *1 1125.6,1002.96
X$426 540 54 53 30 539 gf180mcu_fd_sc_mcu9t5v0__dffq_2
* cell instance $429 m0 *1 1013.6,1043.28
X$429 540 539 81 31 78 82 gf180mcu_fd_sc_mcu9t5v0__mux2_2
* cell instance $434 r0 *1 1046.08,1093.68
X$434 540 539 216 31 215 218 gf180mcu_fd_sc_mcu9t5v0__mux2_2
* cell instance $437 m0 *1 1048.32,1113.84
X$437 540 539 217 31 242 247 gf180mcu_fd_sc_mcu9t5v0__mux2_2
* cell instance $456 r0 *1 1054.48,1134
X$456 540 539 298 33 265 288 gf180mcu_fd_sc_mcu9t5v0__mux2_2
* cell instance $458 r0 *1 1064.56,1134
X$458 540 539 268 33 289 269 gf180mcu_fd_sc_mcu9t5v0__mux2_2
* cell instance $461 m0 *1 1066.24,1214.64
X$461 540 539 516 33 328 497 gf180mcu_fd_sc_mcu9t5v0__mux2_2
* cell instance $463 m0 *1 1076.88,1043.28
X$463 540 539 86 33 69 101 gf180mcu_fd_sc_mcu9t5v0__mux2_2
* cell instance $465 m0 *1 1089.2,1053.36
X$465 540 539 117 33 64 118 gf180mcu_fd_sc_mcu9t5v0__mux2_2
* cell instance $470 r0 *1 1079.12,1204.56
X$470 540 539 498 33 448 499 gf180mcu_fd_sc_mcu9t5v0__mux2_2
* cell instance $473 r0 *1 1087.52,1204.56
X$473 540 539 508 33 482 500 gf180mcu_fd_sc_mcu9t5v0__mux2_2
* cell instance $476 r0 *1 1065.12,1204.56
X$476 540 539 495 33 345 496 gf180mcu_fd_sc_mcu9t5v0__mux2_2
* cell instance $489 m0 *1 981.12,1013.04
X$489 540 39 34 36 539 gf180mcu_fd_sc_mcu9t5v0__dffq_2
* cell instance $491 r0 *1 958.72,1043.28
X$491 540 104 34 103 539 gf180mcu_fd_sc_mcu9t5v0__dffq_2
* cell instance $493 m0 *1 955.92,1043.28
X$493 540 77 34 102 539 gf180mcu_fd_sc_mcu9t5v0__dffq_2
* cell instance $496 r0 *1 966.56,1053.36
X$496 540 539 34 543 gf180mcu_fd_sc_mcu9t5v0__clkinv_8
* cell instance $498 r0 *1 976.64,1053.36
X$498 540 127 34 539 gf180mcu_fd_sc_mcu9t5v0__clkbuf_20
* cell instance $501 m0 *1 981.12,1053.36
X$501 540 106 34 105 539 gf180mcu_fd_sc_mcu9t5v0__dffq_2
* cell instance $503 r0 *1 991.2,1002.96
X$503 540 40 34 38 539 gf180mcu_fd_sc_mcu9t5v0__dffq_2
* cell instance $505 r0 *1 966,1013.04
X$505 540 60 34 58 539 gf180mcu_fd_sc_mcu9t5v0__dffq_2
* cell instance $508 m0 *1 959.84,1013.04
X$508 540 59 34 35 539 gf180mcu_fd_sc_mcu9t5v0__dffq_2
* cell instance $522 r0 *1 990.08,1144.08
X$522 540 539 320 37 265 283 gf180mcu_fd_sc_mcu9t5v0__mux2_2
* cell instance $524 r0 *1 976.08,1224.72
X$524 540 539 520 37 328 509 gf180mcu_fd_sc_mcu9t5v0__mux2_2
* cell instance $526 m0 *1 974.96,1214.64
X$526 540 539 519 37 345 510 gf180mcu_fd_sc_mcu9t5v0__mux2_2
* cell instance $529 m0 *1 986.72,1214.64
X$529 540 539 511 37 482 512 gf180mcu_fd_sc_mcu9t5v0__mux2_2
* cell instance $532 r0 *1 1000.16,1043.28
X$532 540 539 107 37 64 108 gf180mcu_fd_sc_mcu9t5v0__mux2_2
* cell instance $534 m0 *1 989.52,1043.28
X$534 540 539 105 37 69 106 gf180mcu_fd_sc_mcu9t5v0__mux2_2
* cell instance $537 m0 *1 999.04,1224.72
X$537 540 539 521 37 448 513 gf180mcu_fd_sc_mcu9t5v0__mux2_2
* cell instance $539 r0 *1 972.72,1023.12
X$539 540 539 57 37 gf180mcu_fd_sc_mcu9t5v0__clkbuf_4
* cell instance $543 m0 *1 971.04,1154.16
X$543 540 539 303 37 289 304 gf180mcu_fd_sc_mcu9t5v0__mux2_2
* cell instance $563 r0 *1 985.04,1013.04
X$563 540 61 49 40 59 47 60 39 539 gf180mcu_fd_sc_mcu9t5v0__mux4_2
* cell instance $572 r0 *1 1025.36,1073.52
X$572 540 539 144 129 41 145 gf180mcu_fd_sc_mcu9t5v0__mux2_2
* cell instance $574 m0 *1 1075.76,1063.44
X$574 540 539 132 148 41 133 gf180mcu_fd_sc_mcu9t5v0__mux2_2
* cell instance $581 r0 *1 1117.76,1053.36
X$581 540 539 134 179 41 153 gf180mcu_fd_sc_mcu9t5v0__mux2_2
* cell instance $583 m0 *1 972.72,1023.12
X$583 540 539 58 57 41 60 gf180mcu_fd_sc_mcu9t5v0__mux2_2
* cell instance $586 r0 *1 962.08,1073.52
X$586 540 187 41 539 gf180mcu_fd_sc_mcu9t5v0__clkbuf_8
* cell instance $623 m0 *1 1078,1174.32
X$623 540 340 350 386 383 47 384 385 539 gf180mcu_fd_sc_mcu9t5v0__mux4_2
* cell instance $625 m0 *1 1117.76,1043.28
X$625 540 124 49 120 65 47 119 90 539 gf180mcu_fd_sc_mcu9t5v0__mux4_2
* cell instance $627 r0 *1 1015.28,1144.08
X$627 540 305 47 539 gf180mcu_fd_sc_mcu9t5v0__buf_8
* cell instance $632 r0 *1 1035.44,1073.52
X$632 540 191 49 147 128 47 145 131 539 gf180mcu_fd_sc_mcu9t5v0__mux4_2
* cell instance $636 r0 *1 1126.16,1073.52
X$636 540 185 49 154 180 47 153 183 539 gf180mcu_fd_sc_mcu9t5v0__mux4_2
* cell instance $638 r0 *1 1120,1164.24
X$638 540 357 350 358 387 47 329 388 539 gf180mcu_fd_sc_mcu9t5v0__mux4_2
* cell instance $641 r0 *1 1078.56,1063.44
X$641 540 155 49 151 149 47 133 150 539 gf180mcu_fd_sc_mcu9t5v0__mux4_2
* cell instance $664 r0 *1 1043.84,1043.28
X$664 540 539 49 95 gf180mcu_fd_sc_mcu9t5v0__buf_4
* cell instance $667 m0 *1 1054.48,1164.24
X$667 540 539 49 347 gf180mcu_fd_sc_mcu9t5v0__clkinv_8
* cell instance $677 m0 *1 1006.88,1164.24
X$677 540 236 49 285 349 539 gf180mcu_fd_sc_mcu9t5v0__dffrnq_4
* cell instance $706 r0 *1 1161.44,1053.36
X$706 540 157 53 136 539 gf180mcu_fd_sc_mcu9t5v0__dffq_2
* cell instance $708 r0 *1 1118.32,1033.2
X$708 540 90 53 89 539 gf180mcu_fd_sc_mcu9t5v0__dffq_2
* cell instance $710 r0 *1 1125.04,1043.28
X$710 540 120 53 126 539 gf180mcu_fd_sc_mcu9t5v0__dffq_2
* cell instance $712 r0 *1 1137.92,1063.44
X$712 540 127 53 539 gf180mcu_fd_sc_mcu9t5v0__clkbuf_20
* cell instance $716 r0 *1 1186.64,1023.12
X$716 540 96 53 75 539 gf180mcu_fd_sc_mcu9t5v0__dffq_2
* cell instance $719 m0 *1 1180.48,1063.44
X$719 540 139 53 137 539 gf180mcu_fd_sc_mcu9t5v0__dffq_2
* cell instance $723 m0 *1 1174.32,1023.12
X$723 540 74 53 72 539 gf180mcu_fd_sc_mcu9t5v0__dffq_2
* cell instance $728 r0 *1 1113.28,1063.44
X$728 540 153 53 134 539 gf180mcu_fd_sc_mcu9t5v0__dffq_2
* cell instance $730 r0 *1 1157.52,1002.96
X$730 540 71 53 56 539 gf180mcu_fd_sc_mcu9t5v0__dffq_2
* cell instance $732 r0 *1 1136.24,1033.2
X$732 540 92 53 91 539 gf180mcu_fd_sc_mcu9t5v0__dffq_2
* cell instance $734 m0 *1 1165.92,1043.28
X$734 540 94 53 123 539 gf180mcu_fd_sc_mcu9t5v0__dffq_2
* cell instance $736 r0 *1 1155.28,1023.12
X$736 540 70 53 68 539 gf180mcu_fd_sc_mcu9t5v0__dffq_2
* cell instance $764 r0 *1 2.24,1113.84
X$764 540 232 57 539 gf180mcu_fd_sc_mcu9t5v0__clkbuf_8
* cell instance $766 r0 *1 962.64,1033.2
X$766 540 539 102 57 78 77 gf180mcu_fd_sc_mcu9t5v0__mux2_2
* cell instance $769 r0 *1 987.28,1103.76
X$769 540 539 240 57 215 214 gf180mcu_fd_sc_mcu9t5v0__mux2_2
* cell instance $772 r0 *1 988.4,1113.84
X$772 540 539 241 57 242 264 gf180mcu_fd_sc_mcu9t5v0__mux2_2
* cell instance $796 r0 *1 987.28,1033.2
X$796 540 539 79 61 110 122 gf180mcu_fd_sc_mcu9t5v0__mux2_2
* cell instance $799 r0 *1 1024.8,1033.2
X$799 540 99 95 85 82 88 62 84 539 gf180mcu_fd_sc_mcu9t5v0__mux4_2
* cell instance $810 r0 *1 1182.72,1083.6
X$810 540 539 202 182 64 204 gf180mcu_fd_sc_mcu9t5v0__mux2_2
* cell instance $812 r0 *1 1187.2,1053.36
X$812 540 539 137 138 64 139 gf180mcu_fd_sc_mcu9t5v0__mux2_2
* cell instance $817 m0 *1 1015.84,1083.6
X$817 540 539 174 146 64 175 gf180mcu_fd_sc_mcu9t5v0__mux2_2
* cell instance $819 m0 *1 958.72,1093.68
X$819 540 209 64 539 gf180mcu_fd_sc_mcu9t5v0__clkbuf_8
* cell instance $821 r0 *1 1178.24,1023.12
X$821 540 539 72 73 64 74 gf180mcu_fd_sc_mcu9t5v0__mux2_2
* cell instance $841 r0 *1 1153.04,1033.2
X$841 540 539 98 66 110 93 gf180mcu_fd_sc_mcu9t5v0__mux2_2
* cell instance $845 m0 *1 1153.04,1033.2
X$845 540 93 95 71 92 88 67 70 539 gf180mcu_fd_sc_mcu9t5v0__mux4_2
* cell instance $857 r0 *1 1189.44,1033.2
X$857 540 539 75 73 69 96 gf180mcu_fd_sc_mcu9t5v0__mux2_2
* cell instance $860 r0 *1 1191.68,1063.44
X$860 540 539 158 138 69 159 gf180mcu_fd_sc_mcu9t5v0__mux2_2
* cell instance $862 m0 *1 1013.04,1103.76
X$862 540 539 196 146 69 197 gf180mcu_fd_sc_mcu9t5v0__mux2_2
* cell instance $866 r0 *1 1195.04,1093.68
X$866 540 539 205 182 69 203 gf180mcu_fd_sc_mcu9t5v0__mux2_2
* cell instance $868 r0 *1 949.2,1093.68
X$868 193 170 195 540 539 69 gf180mcu_fd_sc_mcu9t5v0__and3_4
* cell instance $892 m0 *1 1114.4,1224.72
X$892 540 539 517 73 345 527 gf180mcu_fd_sc_mcu9t5v0__mux2_2
* cell instance $894 m0 *1 1125.6,1234.8
X$894 540 539 533 73 328 528 gf180mcu_fd_sc_mcu9t5v0__mux2_2
* cell instance $899 m0 *1 1136.24,1134
X$899 540 539 279 73 289 273 gf180mcu_fd_sc_mcu9t5v0__mux2_2
* cell instance $903 r0 *1 1149.12,1224.72
X$903 540 539 530 73 448 529 gf180mcu_fd_sc_mcu9t5v0__mux2_2
* cell instance $906 m0 *1 1139.6,1224.72
X$906 540 539 518 73 482 531 gf180mcu_fd_sc_mcu9t5v0__mux2_2
* cell instance $909 r0 *1 1151.36,1134
X$909 540 539 274 73 265 275 gf180mcu_fd_sc_mcu9t5v0__mux2_2
* cell instance $934 m0 *1 2241.12,1023.12
X$934 540 76 148 539 gf180mcu_fd_sc_mcu9t5v0__buf_8
* cell instance $937 r0 *1 981.12,1043.28
X$937 540 122 95 108 77 88 104 106 539 gf180mcu_fd_sc_mcu9t5v0__mux4_2
* cell instance $945 r0 *1 1163.12,1083.6
X$945 540 539 199 179 78 200 gf180mcu_fd_sc_mcu9t5v0__mux2_2
* cell instance $947 r0 *1 1159.76,1073.52
X$947 540 539 156 148 78 141 gf180mcu_fd_sc_mcu9t5v0__mux2_2
* cell instance $950 m0 *1 986.72,1083.6
X$950 540 539 171 129 78 172 gf180mcu_fd_sc_mcu9t5v0__mux2_2
* cell instance $956 r0 *1 946.4,1063.44
X$956 540 160 78 539 gf180mcu_fd_sc_mcu9t5v0__clkbuf_8
* cell instance $969 r0 *1 990.08,1154.16
X$969 540 539 337 324 355 79 gf180mcu_fd_sc_mcu9t5v0__mux2_2
* cell instance $983 m0 *1 1030.4,1043.28
X$983 540 539 109 83 110 99 gf180mcu_fd_sc_mcu9t5v0__mux2_2
* cell instance $1003 r0 *1 1005.2,1083.6
X$1003 540 190 95 175 172 88 173 197 539 gf180mcu_fd_sc_mcu9t5v0__mux4_2
* cell instance $1005 r0 *1 1176,1093.68
X$1005 540 207 95 204 200 88 201 203 539 gf180mcu_fd_sc_mcu9t5v0__mux4_2
* cell instance $1007 r0 *1 1055.04,1164.24
X$1007 540 305 88 539 gf180mcu_fd_sc_mcu9t5v0__clkbuf_8
* cell instance $1012 r0 *1 1072.96,1043.28
X$1012 540 116 95 118 114 88 113 101 539 gf180mcu_fd_sc_mcu9t5v0__mux4_2
* cell instance $1014 m0 *1 988.4,1184.4
X$1014 539 88 443 540 372 gf180mcu_fd_sc_mcu9t5v0__xnor2_2
* cell instance $1017 r0 *1 1172.64,1063.44
X$1017 540 161 95 139 141 88 157 159 539 gf180mcu_fd_sc_mcu9t5v0__mux4_2
* cell instance $1022 r0 *1 1002.96,1184.4
X$1022 88 408 350 95 540 539 466 gf180mcu_fd_sc_mcu9t5v0__and4_2
* cell instance $1070 r0 *1 995.68,1184.4
X$1070 408 95 355 409 540 539 463 gf180mcu_fd_sc_mcu9t5v0__and4_2
* cell instance $1095 m0 *1 1151.92,1043.28
X$1095 540 539 121 124 110 97 gf180mcu_fd_sc_mcu9t5v0__mux2_2
* cell instance $1101 m0 *1 1153.04,1164.24
X$1101 540 539 367 360 355 98 gf180mcu_fd_sc_mcu9t5v0__mux2_2
* cell instance $1148 r0 *1 1038.8,1174.32
X$1148 540 539 421 353 355 109 gf180mcu_fd_sc_mcu9t5v0__mux2_2
* cell instance $1152 m0 *1 897.68,1174.32
X$1152 540 110 403 278 399 378 539 gf180mcu_fd_sc_mcu9t5v0__addf_4
* cell instance $1158 r0 *1 1036,1083.6
X$1158 540 539 198 191 110 190 gf180mcu_fd_sc_mcu9t5v0__mux2_2
* cell instance $1161 m0 *1 1074.64,1053.36
X$1161 540 539 220 115 110 116 gf180mcu_fd_sc_mcu9t5v0__mux2_2
* cell instance $1163 r0 *1 1149.12,1073.52
X$1163 540 539 184 155 110 161 gf180mcu_fd_sc_mcu9t5v0__mux2_2
* cell instance $1165 r0 *1 1141.84,1093.68
X$1165 540 539 227 185 110 207 gf180mcu_fd_sc_mcu9t5v0__mux2_2
* cell instance $1168 m0 *1 906.64,1164.24
X$1168 370 540 539 110 278 343 gf180mcu_fd_sc_mcu9t5v0__addh_1
* cell instance $1172 m0 *1 1078.56,1164.24
X$1172 540 539 280 110 gf180mcu_fd_sc_mcu9t5v0__clkinv_8
* cell instance $1225 m0 *1 1151.92,1174.32
X$1225 540 539 369 389 355 121 gf180mcu_fd_sc_mcu9t5v0__mux2_2
* cell instance $1243 m0 *1 1143.52,1154.16
X$1243 540 127 331 539 gf180mcu_fd_sc_mcu9t5v0__clkbuf_20
* cell instance $1245 m0 *1 1089.76,1073.52
X$1245 540 127 152 539 gf180mcu_fd_sc_mcu9t5v0__clkbuf_20
* cell instance $1252 r0 *1 1051.68,1113.84
X$1252 540 234 127 539 gf180mcu_fd_sc_mcu9t5v0__clkbuf_20
* cell instance $1259 m0 *1 1141.28,1073.52
X$1259 540 127 135 539 gf180mcu_fd_sc_mcu9t5v0__clkbuf_20
* cell instance $1263 r0 *1 1144.08,1154.16
X$1263 540 127 251 539 gf180mcu_fd_sc_mcu9t5v0__clkbuf_20
* cell instance $1265 m0 *1 963.2,1174.32
X$1265 540 127 299 539 gf180mcu_fd_sc_mcu9t5v0__clkbuf_20
* cell instance $1268 r0 *1 973.84,1063.44
X$1268 540 127 142 539 gf180mcu_fd_sc_mcu9t5v0__clkbuf_20
* cell instance $1270 m0 *1 1017.52,1184.4
X$1270 540 127 411 539 gf180mcu_fd_sc_mcu9t5v0__clkbuf_20
* cell instance $1272 m0 *1 1097.04,1174.32
X$1272 540 127 382 539 gf180mcu_fd_sc_mcu9t5v0__clkbuf_20
* cell instance $1274 r0 *1 973.28,1174.32
X$1274 540 127 346 539 gf180mcu_fd_sc_mcu9t5v0__clkbuf_20
* cell instance $1276 m0 *1 1017.52,1174.32
X$1276 540 127 285 539 gf180mcu_fd_sc_mcu9t5v0__clkbuf_20
* cell instance $1280 m0 *1 1025.36,1073.52
X$1280 540 127 162 539 gf180mcu_fd_sc_mcu9t5v0__clkbuf_20
* cell instance $1284 m0 *1 1090.32,1164.24
X$1284 540 127 270 539 gf180mcu_fd_sc_mcu9t5v0__clkbuf_20
* cell instance $1297 r0 *1 1016.96,1053.36
X$1297 540 128 142 143 539 gf180mcu_fd_sc_mcu9t5v0__dffq_2
* cell instance $1307 m0 *1 1027.6,1123.92
X$1307 540 539 244 129 242 246 gf180mcu_fd_sc_mcu9t5v0__mux2_2
* cell instance $1311 r0 *1 1020.88,1103.76
X$1311 540 539 243 129 215 245 gf180mcu_fd_sc_mcu9t5v0__mux2_2
* cell instance $1316 r0 *1 16.8,1113.84
X$1316 540 233 129 539 gf180mcu_fd_sc_mcu9t5v0__clkbuf_8
* cell instance $1318 m0 *1 1026.48,1093.68
X$1318 129 539 540 146 gf180mcu_fd_sc_mcu9t5v0__buf_3
* cell instance $1327 m0 *1 1042.72,1083.6
X$1327 540 131 162 130 539 gf180mcu_fd_sc_mcu9t5v0__dffq_2
* cell instance $1336 m0 *1 1072.4,1083.6
X$1336 540 133 152 132 539 gf180mcu_fd_sc_mcu9t5v0__dffq_2
* cell instance $1345 r0 *1 1123.92,1103.76
X$1345 540 250 135 226 539 gf180mcu_fd_sc_mcu9t5v0__dffq_2
* cell instance $1351 m0 *1 1153.6,1063.44
X$1351 540 141 135 156 539 gf180mcu_fd_sc_mcu9t5v0__dffq_2
* cell instance $1354 r0 *1 1187.2,1103.76
X$1354 540 203 135 205 539 gf180mcu_fd_sc_mcu9t5v0__dffq_2
* cell instance $1356 m0 *1 1141.28,1063.44
X$1356 540 539 135 549 gf180mcu_fd_sc_mcu9t5v0__inv_4
* cell instance $1359 m0 *1 1116.08,1103.76
X$1359 540 249 135 225 539 gf180mcu_fd_sc_mcu9t5v0__dffq_2
* cell instance $1361 m0 *1 1165.92,1103.76
X$1361 540 201 135 228 539 gf180mcu_fd_sc_mcu9t5v0__dffq_2
* cell instance $1363 m0 *1 1180.48,1073.52
X$1363 540 159 135 158 539 gf180mcu_fd_sc_mcu9t5v0__dffq_2
* cell instance $1365 m0 *1 1180.48,1093.68
X$1365 540 204 135 202 539 gf180mcu_fd_sc_mcu9t5v0__dffq_2
* cell instance $1368 m0 *1 1158.08,1093.68
X$1368 540 200 135 199 539 gf180mcu_fd_sc_mcu9t5v0__dffq_2
* cell instance $1371 m0 *1 1130.64,1083.6
X$1371 540 183 135 181 539 gf180mcu_fd_sc_mcu9t5v0__dffq_2
* cell instance $1374 m0 *1 1124.48,1073.52
X$1374 540 154 135 165 539 gf180mcu_fd_sc_mcu9t5v0__dffq_2
* cell instance $1389 m0 *1 1070.72,1184.4
X$1389 540 539 424 138 328 384 gf180mcu_fd_sc_mcu9t5v0__mux2_2
* cell instance $1392 m0 *1 1089.76,1184.4
X$1392 540 539 423 138 482 386 gf180mcu_fd_sc_mcu9t5v0__mux2_2
* cell instance $1395 m0 *1 1081.36,1184.4
X$1395 540 539 412 138 448 385 gf180mcu_fd_sc_mcu9t5v0__mux2_2
* cell instance $1398 r0 *1 1069.6,1164.24
X$1398 540 539 402 138 345 383 gf180mcu_fd_sc_mcu9t5v0__mux2_2
* cell instance $1400 m0 *1 1088.08,1144.08
X$1400 540 539 310 138 265 292 gf180mcu_fd_sc_mcu9t5v0__mux2_2
* cell instance $1402 r0 *1 1075.76,1134
X$1402 540 539 309 138 289 290 gf180mcu_fd_sc_mcu9t5v0__mux2_2
* cell instance $1409 m0 *1 1188.32,1103.76
X$1409 540 539 148 138 gf180mcu_fd_sc_mcu9t5v0__clkbuf_4
* cell instance $1424 m0 *1 2236.08,1063.44
X$1424 540 140 179 539 gf180mcu_fd_sc_mcu9t5v0__clkbuf_8
* cell instance $1434 r0 *1 983.92,1083.6
X$1434 540 172 142 171 539 gf180mcu_fd_sc_mcu9t5v0__dffq_2
* cell instance $1436 m0 *1 969.92,1063.44
X$1436 540 142 539 gf180mcu_fd_sc_mcu9t5v0__clkbuf_16
* cell instance $1440 r0 *1 991.2,1073.52
X$1440 540 173 142 189 539 gf180mcu_fd_sc_mcu9t5v0__dffq_2
* cell instance $1447 m0 *1 981.12,1113.84
X$1447 540 214 142 240 539 gf180mcu_fd_sc_mcu9t5v0__dffq_2
* cell instance $1449 m0 *1 909.44,1113.84
X$1449 540 236 237 142 255 539 gf180mcu_fd_sc_mcu9t5v0__dffrnq_2
* cell instance $1451 r0 *1 903.28,1103.76
X$1451 540 236 210 142 231 539 gf180mcu_fd_sc_mcu9t5v0__dffrnq_2
* cell instance $1463 m0 *1 1020.32,1063.44
X$1463 540 145 162 144 539 gf180mcu_fd_sc_mcu9t5v0__dffq_2
* cell instance $1472 r0 *1 1013.04,1134
X$1472 540 539 286 146 289 287 gf180mcu_fd_sc_mcu9t5v0__mux2_2
* cell instance $1478 m0 *1 1052.8,1224.72
X$1478 540 539 514 146 482 515 gf180mcu_fd_sc_mcu9t5v0__mux2_2
* cell instance $1482 m0 *1 1037.12,1234.8
X$1482 540 539 525 146 448 526 gf180mcu_fd_sc_mcu9t5v0__mux2_2
* cell instance $1485 m0 *1 1019.2,1234.8
X$1485 540 539 532 146 328 524 gf180mcu_fd_sc_mcu9t5v0__mux2_2
* cell instance $1488 r0 *1 1014.72,1224.72
X$1488 540 539 522 146 345 523 gf180mcu_fd_sc_mcu9t5v0__mux2_2
* cell instance $1491 r0 *1 1013.04,1123.92
X$1491 540 539 266 146 265 267 gf180mcu_fd_sc_mcu9t5v0__mux2_2
* cell instance $1505 r0 *1 1044.4,1083.6
X$1505 540 147 162 163 539 gf180mcu_fd_sc_mcu9t5v0__dffq_2
* cell instance $1510 r0 *1 1098.72,1103.76
X$1510 540 539 223 148 242 224 gf180mcu_fd_sc_mcu9t5v0__mux2_2
* cell instance $1513 r0 *1 1089.2,1103.76
X$1513 540 539 260 148 215 248 gf180mcu_fd_sc_mcu9t5v0__mux2_2
* cell instance $1531 r0 *1 1064,1073.52
X$1531 540 149 152 164 539 gf180mcu_fd_sc_mcu9t5v0__dffq_2
* cell instance $1534 r0 *1 1080.8,1073.52
X$1534 540 150 152 176 539 gf180mcu_fd_sc_mcu9t5v0__dffq_2
* cell instance $1540 r0 *1 1098.72,1083.6
X$1540 540 151 152 177 539 gf180mcu_fd_sc_mcu9t5v0__dffq_2
* cell instance $1544 m0 *1 1091.44,1103.76
X$1544 540 224 152 223 539 gf180mcu_fd_sc_mcu9t5v0__dffq_2
* cell instance $1546 r0 *1 1063.44,1103.76
X$1546 540 221 152 219 539 gf180mcu_fd_sc_mcu9t5v0__dffq_2
* cell instance $1548 m0 *1 1088.64,1113.84
X$1548 540 248 152 260 539 gf180mcu_fd_sc_mcu9t5v0__dffq_2
* cell instance $1552 m0 *1 1089.76,1083.6
X$1552 540 152 539 gf180mcu_fd_sc_mcu9t5v0__clkbuf_12
* cell instance $1556 r0 *1 1109.36,1073.52
X$1556 540 180 152 178 539 gf180mcu_fd_sc_mcu9t5v0__dffq_2
* cell instance $1603 m0 *1 931.84,1103.76
X$1603 238 213 167 168 540 539 160 gf180mcu_fd_sc_mcu9t5v0__and4_2
* cell instance $1615 m0 *1 1040.48,1103.76
X$1615 540 218 162 216 539 gf180mcu_fd_sc_mcu9t5v0__dffq_2
* cell instance $1617 m0 *1 1009.68,1093.68
X$1617 540 175 162 174 539 gf180mcu_fd_sc_mcu9t5v0__dffq_2