
* cell loadable_updown_counter
* pin load_val[4]
* pin count[7]
* pin count[4]
* pin load_en
* pin count[5]
* pin count[6]
* pin overflow
* pin up_down
* pin load_val[2]
* pin count[2]
* pin enable
* pin underflow
* pin load_val[6]
* pin load_val[7]
* pin load_val[5]
* pin rst_n
* pin count[1]
* pin load_val[0]
* pin load_val[3]
* pin count[3]
* pin count[0]
* pin load_val[1]
* pin clk
* pin NWELL
* pin PWELL,gf180mcu_gnd
.SUBCKT loadable_updown_counter 1 30 31 36 37 44 57 63 67 83 86 87 98 105 116
+ 130 131 134 136 137 138 139 140 141 142
* net 1 load_val[4]
* net 30 count[7]
* net 31 count[4]
* net 36 load_en
* net 37 count[5]
* net 44 count[6]
* net 57 overflow
* net 63 up_down
* net 67 load_val[2]
* net 83 count[2]
* net 86 enable
* net 87 underflow
* net 98 load_val[6]
* net 105 load_val[7]
* net 116 load_val[5]
* net 130 rst_n
* net 131 count[1]
* net 134 load_val[0]
* net 136 load_val[3]
* net 137 count[3]
* net 138 count[0]
* net 139 load_val[1]
* net 140 clk
* net 141 NWELL
* net 142 PWELL,gf180mcu_gnd
* cell instance $4 r0 *1 101.92,5.04
X$4 1 141 142 2 gf180mcu_fd_sc_mcu9t5v0__dlyb_2
* cell instance $9 r0 *1 108.64,65.52
X$9 142 141 5 3 2 gf180mcu_fd_sc_mcu9t5v0__nand2_2
* cell instance $12 m0 *1 108.64,75.6
X$12 141 3 142 8 9 5 4 gf180mcu_fd_sc_mcu9t5v0__oai31_2
* cell instance $14 r0 *1 109.2,85.68
X$14 141 22 24 142 4 gf180mcu_fd_sc_mcu9t5v0__and2_2
* cell instance $25 m0 *1 136.64,136.08
X$25 142 141 5 77 gf180mcu_fd_sc_mcu9t5v0__inv_4
* cell instance $28 m0 *1 169.68,136.08
X$28 141 5 91 142 114 gf180mcu_fd_sc_mcu9t5v0__and2_2
* cell instance $32 r0 *1 194.32,85.68
X$32 142 141 36 5 gf180mcu_fd_sc_mcu9t5v0__buf_4
* cell instance $36 m0 *1 186.48,85.68
X$36 142 141 38 5 29 gf180mcu_fd_sc_mcu9t5v0__nor2_2
* cell instance $38 r0 *1 103.6,136.08
X$38 142 141 118 119 5 101 gf180mcu_fd_sc_mcu9t5v0__mux2_2
* cell instance $40 r0 *1 170.8,85.68
X$40 142 5 29 141 28 gf180mcu_fd_sc_mcu9t5v0__or2_2
* cell instance $44 r0 *1 120.4,75.6
X$44 142 12 141 16 7 6 gf180mcu_fd_sc_mcu9t5v0__aoi21_2
* cell instance $47 r0 *1 110.88,75.6
X$47 13 11 7 9 6 141 142 gf180mcu_fd_sc_mcu9t5v0__aoi211_2
* cell instance $50 m0 *1 110.88,85.68
X$50 141 6 142 7 23 11 gf180mcu_fd_sc_mcu9t5v0__oai21_2
* cell instance $52 m0 *1 130.48,85.68
X$52 142 141 11 17 6 gf180mcu_fd_sc_mcu9t5v0__nand2_2
* cell instance $54 m0 *1 118.72,85.68
X$54 142 12 6 14 15 141 gf180mcu_fd_sc_mcu9t5v0__addh_2
* cell instance $61 m0 *1 98.56,85.68
X$61 142 141 7 21 gf180mcu_fd_sc_mcu9t5v0__clkinv_2
* cell instance $65 r0 *1 119.28,95.76
X$65 142 7 11 54 15 141 gf180mcu_fd_sc_mcu9t5v0__addh_2
* cell instance $69 r0 *1 88.48,95.76
X$69 47 48 49 45 7 141 142 gf180mcu_fd_sc_mcu9t5v0__aoi211_2
* cell instance $76 r0 *1 117.6,115.92
X$76 142 141 90 8 91 14 gf180mcu_fd_sc_mcu9t5v0__mux2_2
* cell instance $84 r0 *1 88.48,85.68
X$84 141 10 22 19 18 21 142 gf180mcu_fd_sc_mcu9t5v0__oai211_2
* cell instance $86 r0 *1 85.12,95.76
X$86 142 141 10 47 gf180mcu_fd_sc_mcu9t5v0__clkinv_2
* cell instance $88 r0 *1 82.88,105.84
X$88 141 48 10 142 74 gf180mcu_fd_sc_mcu9t5v0__xnor2_2
* cell instance $91 m0 *1 91.28,126
X$91 142 101 95 102 72 10 141 gf180mcu_fd_sc_mcu9t5v0__addf_2
* cell instance $93 m0 *1 90.72,85.68
X$93 141 18 142 10 13 19 gf180mcu_fd_sc_mcu9t5v0__oai21_2
* cell instance $98 r0 *1 126,105.84
X$98 11 142 50 141 70 gf180mcu_fd_sc_mcu9t5v0__xor2_2
* cell instance $105 r0 *1 120.96,85.68
X$105 142 12 141 39 24 22 gf180mcu_fd_sc_mcu9t5v0__aoi21_2
* cell instance $107 r0 *1 117.6,85.68
X$107 142 141 12 25 gf180mcu_fd_sc_mcu9t5v0__clkinv_2
* cell instance $117 r0 *1 165.2,115.92
X$117 34 14 27 29 142 141 82 gf180mcu_fd_sc_mcu9t5v0__and4_2
* cell instance $121 m0 *1 164.08,126
X$121 34 14 27 29 141 142 104 gf180mcu_fd_sc_mcu9t5v0__or4_2
* cell instance $125 m0 *1 116.48,126
X$125 142 96 14 94 90 141 gf180mcu_fd_sc_mcu9t5v0__dffrnq_2
* cell instance $128 m0 *1 192.08,85.68
X$128 14 141 142 31 gf180mcu_fd_sc_mcu9t5v0__dlyb_2
* cell instance $140 r0 *1 101.92,105.84
X$140 55 142 141 75 15 68 gf180mcu_fd_sc_mcu9t5v0__addh_1
* cell instance $142 m0 *1 115.36,115.92
X$142 142 141 72 15 gf180mcu_fd_sc_mcu9t5v0__inv_4
* cell instance $145 m0 *1 183.68,115.92
X$145 142 141 77 73 15 gf180mcu_fd_sc_mcu9t5v0__nand2_2
* cell instance $147 m0 *1 96.32,115.92
X$147 142 49 48 84 15 141 gf180mcu_fd_sc_mcu9t5v0__addh_2
* cell instance $151 m0 *1 180.88,95.76
X$151 141 35 51 42 38 15 142 gf180mcu_fd_sc_mcu9t5v0__oai211_2
* cell instance $153 m0 *1 170.8,95.76
X$153 15 42 35 28 141 142 43 gf180mcu_fd_sc_mcu9t5v0__or4_2
* cell instance $155 m0 *1 156.8,95.76
X$155 142 40 41 34 15 141 gf180mcu_fd_sc_mcu9t5v0__addh_2
* cell instance $157 r0 *1 158.48,85.68
X$157 142 32 26 27 15 141 gf180mcu_fd_sc_mcu9t5v0__addh_2
* cell instance $163 r0 *1 143.36,85.68
X$163 141 20 142 33 35 16 gf180mcu_fd_sc_mcu9t5v0__oai21_2
* cell instance $165 r0 *1 132.72,95.76
X$165 141 16 142 17 66 50 gf180mcu_fd_sc_mcu9t5v0__oai21_2
* cell instance $167 m0 *1 124.32,105.84
X$167 142 42 59 69 17 33 141 gf180mcu_fd_sc_mcu9t5v0__aoi211_4
* cell instance $173 m0 *1 92.4,95.76
X$173 142 141 49 18 gf180mcu_fd_sc_mcu9t5v0__clkinv_2
* cell instance $181 m0 *1 87.92,95.76
X$181 142 141 48 19 gf180mcu_fd_sc_mcu9t5v0__clkinv_2
* cell instance $184 r0 *1 151.2,85.68
X$184 142 32 141 20 40 26 gf180mcu_fd_sc_mcu9t5v0__aoi21_2
* cell instance $199 r0 *1 114.24,85.68
X$199 142 141 23 24 gf180mcu_fd_sc_mcu9t5v0__clkinv_2
* cell instance $201 m0 *1 110.32,95.76
X$201 141 25 142 23 46 45 gf180mcu_fd_sc_mcu9t5v0__oai21_2
* cell instance $214 m0 *1 157.36,115.92
X$214 141 26 79 142 71 gf180mcu_fd_sc_mcu9t5v0__and2_2
* cell instance $216 m0 *1 150.64,95.76
X$216 142 141 41 33 26 gf180mcu_fd_sc_mcu9t5v0__nand2_2
* cell instance $220 r0 *1 155.68,126
X$220 142 26 97 141 109 gf180mcu_fd_sc_mcu9t5v0__or2_2
* cell instance $229 m0 *1 174.72,136.08
X$229 142 114 141 106 108 27 115 gf180mcu_fd_sc_mcu9t5v0__aoi22_2
* cell instance $231 r0 *1 194.32,95.76
X$231 27 141 142 44 gf180mcu_fd_sc_mcu9t5v0__dlyb_2
* cell instance $233 r0 *1 160.72,136.08
X$233 142 96 27 112 113 141 gf180mcu_fd_sc_mcu9t5v0__dffrnq_2
* cell instance $244 m0 *1 176.4,115.92
X$244 77 91 29 72 142 141 62 gf180mcu_fd_sc_mcu9t5v0__and4_2
* cell instance $248 r0 *1 163.52,126
X$248 142 96 29 112 99 141 gf180mcu_fd_sc_mcu9t5v0__dffrnq_2
* cell instance $250 r0 *1 179.2,115.92
X$250 142 91 29 141 100 gf180mcu_fd_sc_mcu9t5v0__or2_2
* cell instance $252 r0 *1 184.24,105.84
X$252 142 141 81 52 29 gf180mcu_fd_sc_mcu9t5v0__nand2_2
* cell instance $254 r0 *1 185.92,85.68
X$254 29 141 142 30 gf180mcu_fd_sc_mcu9t5v0__dlyb_2
* cell instance $280 r0 *1 181.44,136.08
X$280 142 114 141 120 121 34 115 gf180mcu_fd_sc_mcu9t5v0__aoi22_2
* cell instance $282 m0 *1 192.08,95.76
X$282 34 141 142 37 gf180mcu_fd_sc_mcu9t5v0__dlyb_2
* cell instance $287 m0 *1 150.64,146.16
X$287 142 96 34 112 111 141 gf180mcu_fd_sc_mcu9t5v0__dffrnq_2
* cell instance $296 m0 *1 180.32,105.84
X$296 141 62 142 35 58 42 gf180mcu_fd_sc_mcu9t5v0__oai21_2
* cell instance $298 r0 *1 184.24,95.76
X$298 42 35 52 73 141 142 53 gf180mcu_fd_sc_mcu9t5v0__or4_2
* cell instance $310 r0 *1 157.36,105.84
X$310 141 39 80 60 71 61 142 gf180mcu_fd_sc_mcu9t5v0__oai211_2
* cell instance $314 r0 *1 157.36,95.76
X$314 142 40 141 56 46 41 gf180mcu_fd_sc_mcu9t5v0__aoi21_2
* cell instance $318 m0 *1 161.84,105.84
X$318 142 141 40 61 gf180mcu_fd_sc_mcu9t5v0__clkinv_2
* cell instance $325 m0 *1 146.16,105.84
X$325 141 41 66 142 85 gf180mcu_fd_sc_mcu9t5v0__xnor2_2
* cell instance $328 m0 *1 158.48,105.84
X$328 142 141 41 60 gf180mcu_fd_sc_mcu9t5v0__clkinv_2
* cell instance $344 r0 *1 176.96,95.76
X$344 58 53 51 43 142 141 92 gf180mcu_fd_sc_mcu9t5v0__and4_2
* cell instance $367 m0 *1 100.8,105.84
X$367 142 49 141 59 55 48 gf180mcu_fd_sc_mcu9t5v0__aoi21_2
* cell instance $369 m0 *1 108.08,115.92
X$369 142 69 78 141 48 68 gf180mcu_fd_sc_mcu9t5v0__nand3_2
* cell instance $382 r0 *1 120.96,105.84
X$382 141 69 59 142 50 gf180mcu_fd_sc_mcu9t5v0__and2_2
* cell instance $400 m0 *1 136.08,126
X$400 142 93 103 141 84 78 54 gf180mcu_fd_sc_mcu9t5v0__nor4_2
* cell instance $402 m0 *1 141.68,115.92
X$402 78 54 84 88 142 141 65 gf180mcu_fd_sc_mcu9t5v0__and4_2
* cell instance $405 r0 *1 127.12,136.08
X$405 142 141 115 122 54 gf180mcu_fd_sc_mcu9t5v0__nand2_2
* cell instance $409 r0 *1 120.4,196.56
X$409 54 141 142 137 gf180mcu_fd_sc_mcu9t5v0__dlyb_2
* cell instance $411 r0 *1 126.56,146.16
X$411 142 96 54 112 129 141 gf180mcu_fd_sc_mcu9t5v0__dffrnq_2
* cell instance $419 m0 *1 160.16,136.08
X$419 141 109 113 56 80 108 142 gf180mcu_fd_sc_mcu9t5v0__oai211_2
* cell instance $421 m0 *1 192.08,105.84
X$421 65 141 142 57 gf180mcu_fd_sc_mcu9t5v0__dlyb_2
* cell instance $441 r0 *1 194.88,105.84
X$441 142 141 63 72 gf180mcu_fd_sc_mcu9t5v0__clkbuf_3
* cell instance $444 m0 *1 79.52,115.92
X$444 142 141 76 74 77 64 gf180mcu_fd_sc_mcu9t5v0__mux2_2
* cell instance $446 r0 *1 19.6,105.84
X$446 67 141 142 64 gf180mcu_fd_sc_mcu9t5v0__dlyb_2
* cell instance $471 m0 *1 134.4,146.16
X$471 142 141 128 70 77 123 gf180mcu_fd_sc_mcu9t5v0__mux2_2
* cell instance $484 m0 *1 147.84,126
X$484 75 72 97 104 141 142 103 gf180mcu_fd_sc_mcu9t5v0__or4_2
* cell instance $487 r0 *1 148.4,115.92
X$487 75 72 79 82 142 141 88 gf180mcu_fd_sc_mcu9t5v0__and4_2
* cell instance $505 m0 *1 111.44,126
X$505 142 141 75 102 gf180mcu_fd_sc_mcu9t5v0__clkinv_2
* cell instance $507 r0 *1 114.8,186.48
X$507 75 141 142 131 gf180mcu_fd_sc_mcu9t5v0__dlyb_2
* cell instance $509 r0 *1 77.84,146.16
X$509 142 96 75 94 126 141 gf180mcu_fd_sc_mcu9t5v0__dffrnq_2
* cell instance $512 m0 *1 89.04,146.16
X$512 142 141 126 124 91 75 gf180mcu_fd_sc_mcu9t5v0__mux2_2
* cell instance $515 r0 *1 77.28,115.92
X$515 142 141 89 76 91 84 gf180mcu_fd_sc_mcu9t5v0__mux2_2
* cell instance $523 m0 *1 151.2,115.92
X$523 141 77 91 142 79 gf180mcu_fd_sc_mcu9t5v0__and2_2
* cell instance $525 m0 *1 149.52,136.08
X$525 142 141 77 97 91 gf180mcu_fd_sc_mcu9t5v0__nand2_2
* cell instance $532 m0 *1 80.64,146.16
X$532 142 141 124 125 77 133 gf180mcu_fd_sc_mcu9t5v0__mux2_2
* cell instance $536 m0 *1 183.68,136.08
X$536 77 142 115 117 141 107 gf180mcu_fd_sc_mcu9t5v0__or3_2
* cell instance $547 m0 *1 108.08,136.08
X$547 142 141 78 101 gf180mcu_fd_sc_mcu9t5v0__clkinv_2
* cell instance $551 r0 *1 107.52,146.16
X$551 142 96 78 94 127 141 gf180mcu_fd_sc_mcu9t5v0__dffrnq_2
* cell instance $554 m0 *1 103.6,146.16
X$554 142 141 127 118 91 78 gf180mcu_fd_sc_mcu9t5v0__mux2_2
* cell instance $556 r0 *1 112,196.56
X$556 78 141 142 138 gf180mcu_fd_sc_mcu9t5v0__dlyb_2
* cell instance $572 r0 *1 186.48,115.92
X$572 142 141 81 91 gf180mcu_fd_sc_mcu9t5v0__buf_4
* cell instance $575 m0 *1 192.08,115.92
X$575 86 141 142 81 gf180mcu_fd_sc_mcu9t5v0__dlyb_2
* cell instance $583 m0 *1 18.48,115.92
X$583 84 141 142 83 gf180mcu_fd_sc_mcu9t5v0__dlyb_2
* cell instance $594 m0 *1 72.24,126
X$594 142 96 84 94 89 141 gf180mcu_fd_sc_mcu9t5v0__dffrnq_2
* cell instance $600 r0 *1 150.08,136.08
X$600 141 121 142 97 111 85 gf180mcu_fd_sc_mcu9t5v0__oai21_2
* cell instance $604 r0 *1 194.32,115.92
X$604 93 141 142 87 gf180mcu_fd_sc_mcu9t5v0__dlyb_2
* cell instance $627 r0 *1 136.64,136.08
X$627 142 141 91 115 gf180mcu_fd_sc_mcu9t5v0__clkinv_3
* cell instance $641 m0 *1 180.32,126
X$641 92 141 107 100 142 99 gf180mcu_fd_sc_mcu9t5v0__and3_2
* cell instance $658 r0 *1 92.96,136.08
X$658 142 141 110 94 gf180mcu_fd_sc_mcu9t5v0__clkbuf_4
* cell instance $660 r0 *1 89.6,136.08
X$660 142 141 95 125 gf180mcu_fd_sc_mcu9t5v0__clkinv_2
* cell instance $670 m0 *1 79.52,166.32
X$670 142 141 132 96 gf180mcu_fd_sc_mcu9t5v0__clkbuf_4
* cell instance $689 r0 *1 194.32,126
X$689 98 141 142 106 gf180mcu_fd_sc_mcu9t5v0__dlyb_2
* cell instance $716 r0 *1 190.4,136.08
X$716 105 141 142 117 gf180mcu_fd_sc_mcu9t5v0__dlyb_2
* cell instance $738 m0 *1 142.8,146.16
X$738 142 141 110 112 gf180mcu_fd_sc_mcu9t5v0__clkbuf_4
* cell instance $740 r0 *1 119.28,136.08
X$740 142 141 140 110 gf180mcu_fd_sc_mcu9t5v0__clkbuf_4
* cell instance $774 m0 *1 124.32,146.16
X$774 141 122 142 128 129 115 gf180mcu_fd_sc_mcu9t5v0__oai21_2
* cell instance $777 m0 *1 179.2,146.16
X$777 116 141 142 120 gf180mcu_fd_sc_mcu9t5v0__dlyb_2
* cell instance $786 m0 *1 96.88,196.56
X$786 134 141 142 119 gf180mcu_fd_sc_mcu9t5v0__dlyb_2
* cell instance $800 m0 *1 136.08,186.48
X$800 142 141 135 123 gf180mcu_fd_sc_mcu9t5v0__clkinv_2
* cell instance $827 r0 *1 75.6,186.48
X$827 142 132 130 141 gf180mcu_fd_sc_mcu9t5v0__dlyc_2
* cell instance $3645 r0 *1 80.08,196.56
X$3645 139 141 142 133 gf180mcu_fd_sc_mcu9t5v0__dlyb_2
* cell instance $3651 m0 *1 129.92,196.56
X$3651 136 141 142 135 gf180mcu_fd_sc_mcu9t5v0__dlyb_2
.ENDS loadable_updown_counter

* cell gf180mcu_fd_sc_mcu9t5v0__oai31_2
* pin NWELL,VDD
* pin B
* pin PWELL,VSS,gf180mcu_gnd
* pin ZN
* pin A2
* pin A1
* pin A3
.SUBCKT gf180mcu_fd_sc_mcu9t5v0__oai31_2 1 2 3 4 5 6 7
* net 1 NWELL,VDD
* net 2 B
* net 3 PWELL,VSS,gf180mcu_gnd
* net 4 ZN
* net 5 A2
* net 6 A1
* net 7 A3
* device instance $1 r0 *1 0.92,3.872 pmos_5p0
M$1 4 2 1 1 pmos_5p0 L=0.5U W=3.29U AS=1.353P AD=0.93765P PS=6.72U PD=4.43U
* device instance $3 r0 *1 3.21,3.78 pmos_5p0
M$3 12 7 1 1 pmos_5p0 L=0.5U W=1.83U AS=0.6292P AD=0.52155P PS=2.55U PD=2.4U
* device instance $4 r0 *1 4.28,3.78 pmos_5p0
M$4 11 5 12 1 pmos_5p0 L=0.5U W=1.83U AS=0.52155P AD=0.5673P PS=2.4U PD=2.45U
* device instance $5 r0 *1 5.4,3.78 pmos_5p0
M$5 4 6 11 1 pmos_5p0 L=0.5U W=1.83U AS=0.5673P AD=0.5673P PS=2.45U PD=2.45U
* device instance $6 r0 *1 6.52,3.78 pmos_5p0
M$6 10 6 4 1 pmos_5p0 L=0.5U W=1.83U AS=0.5673P AD=0.5673P PS=2.45U PD=2.45U
* device instance $7 r0 *1 7.64,3.78 pmos_5p0
M$7 9 5 10 1 pmos_5p0 L=0.5U W=1.83U AS=0.5673P AD=0.52155P PS=2.45U PD=2.4U
* device instance $8 r0 *1 8.71,3.78 pmos_5p0
M$8 1 7 9 1 pmos_5p0 L=0.5U W=1.83U AS=0.52155P AD=0.8052P PS=2.4U PD=4.54U
* device instance $9 r0 *1 0.92,1.005 nmos_5p0
M$9 3 2 8 3 nmos_5p0 L=0.6U W=2.64U AS=0.924P AD=0.6864P PS=5.36U PD=3.68U
* device instance $11 r0 *1 3.16,1.005 nmos_5p0
M$11 4 7 8 3 nmos_5p0 L=0.6U W=2.64U AS=0.6864P AD=1.2342P PS=3.68U PD=5.83U
* device instance $12 r0 *1 4.28,1.005 nmos_5p0
M$12 8 5 4 3 nmos_5p0 L=0.6U W=2.64U AS=0.6864P AD=0.6864P PS=3.68U PD=3.68U
* device instance $13 r0 *1 5.4,1.005 nmos_5p0
M$13 4 6 8 3 nmos_5p0 L=0.6U W=2.64U AS=0.6864P AD=0.6864P PS=3.68U PD=3.68U
.ENDS gf180mcu_fd_sc_mcu9t5v0__oai31_2

* cell gf180mcu_fd_sc_mcu9t5v0__nor2_2
* pin PWELL,VSS,gf180mcu_gnd
* pin NWELL,VDD
* pin ZN
* pin A1
* pin A2
.SUBCKT gf180mcu_fd_sc_mcu9t5v0__nor2_2 1 2 3 4 5
* net 1 PWELL,VSS,gf180mcu_gnd
* net 2 NWELL,VDD
* net 3 ZN
* net 4 A1
* net 5 A2
* device instance $1 r0 *1 0.92,3.78 pmos_5p0
M$1 7 5 2 2 pmos_5p0 L=0.5U W=1.83U AS=0.8052P AD=0.5673P PS=4.54U PD=2.45U
* device instance $2 r0 *1 2.04,3.78 pmos_5p0
M$2 3 4 7 2 pmos_5p0 L=0.5U W=1.83U AS=0.5673P AD=0.52155P PS=2.45U PD=2.4U
* device instance $3 r0 *1 3.11,3.78 pmos_5p0
M$3 6 4 3 2 pmos_5p0 L=0.5U W=1.83U AS=0.52155P AD=0.61305P PS=2.4U PD=2.5U
* device instance $4 r0 *1 4.28,3.78 pmos_5p0
M$4 2 5 6 2 pmos_5p0 L=0.5U W=1.83U AS=0.61305P AD=0.8052P PS=2.5U PD=4.54U
* device instance $5 r0 *1 0.92,1.04 nmos_5p0
M$5 3 5 1 1 nmos_5p0 L=0.6U W=1.84U AS=0.644P AD=0.644P PS=4.16U PD=4.16U
* device instance $6 r0 *1 2.04,1.04 nmos_5p0
M$6 1 4 3 1 nmos_5p0 L=0.6U W=1.84U AS=0.4784P AD=0.4784P PS=2.88U PD=2.88U
.ENDS gf180mcu_fd_sc_mcu9t5v0__nor2_2

* cell gf180mcu_fd_sc_mcu9t5v0__aoi211_2
* pin A2
* pin A1
* pin B
* pin ZN
* pin C
* pin NWELL,VDD
* pin PWELL,VSS,gf180mcu_gnd
.SUBCKT gf180mcu_fd_sc_mcu9t5v0__aoi211_2 1 2 4 5 6 7 8
* net 1 A2
* net 2 A1
* net 4 B
* net 5 ZN
* net 6 C
* net 7 NWELL,VDD
* net 8 PWELL,VSS,gf180mcu_gnd
* device instance $1 r0 *1 0.87,3.78 pmos_5p0
M$1 5 1 3 7 pmos_5p0 L=0.5U W=3.66U AS=1.281P AD=1.3359P PS=6.89U PD=5.12U
* device instance $2 r0 *1 1.89,3.78 pmos_5p0
M$2 3 2 5 7 pmos_5p0 L=0.5U W=3.66U AS=0.9516P AD=0.9516P PS=4.7U PD=4.7U
* device instance $5 r0 *1 5.37,3.78 pmos_5p0
M$5 12 4 3 7 pmos_5p0 L=0.5U W=1.83U AS=0.8601P AD=0.2196P PS=2.77U PD=2.07U
* device instance $6 r0 *1 6.11,3.78 pmos_5p0
M$6 7 6 12 7 pmos_5p0 L=0.5U W=1.83U AS=0.2196P AD=0.549P PS=2.07U PD=2.43U
* device instance $7 r0 *1 7.21,3.78 pmos_5p0
M$7 11 6 7 7 pmos_5p0 L=0.5U W=1.83U AS=0.549P AD=0.4392P PS=2.43U PD=2.31U
* device instance $8 r0 *1 8.19,3.78 pmos_5p0
M$8 3 4 11 7 pmos_5p0 L=0.5U W=1.83U AS=0.4392P AD=0.8052P PS=2.31U PD=4.54U
* device instance $9 r0 *1 5.02,0.745 nmos_5p0
M$9 5 4 8 8 nmos_5p0 L=0.6U W=1.58U AS=0.5609P AD=0.553P PS=3.195U PD=3.77U
* device instance $10 r0 *1 6.14,0.745 nmos_5p0
M$10 8 6 5 8 nmos_5p0 L=0.6U W=1.58U AS=0.4108P AD=0.4108P PS=2.62U PD=2.62U
* device instance $13 r0 *1 0.92,0.942 nmos_5p0
M$13 10 1 8 8 nmos_5p0 L=0.6U W=1.185U AS=0.5214P AD=0.1422P PS=3.25U PD=1.425U
* device instance $14 r0 *1 1.76,0.942 nmos_5p0
M$14 5 2 10 8 nmos_5p0 L=0.6U W=1.185U AS=0.1422P AD=0.3081P PS=1.425U PD=1.705U
* device instance $15 r0 *1 2.88,0.942 nmos_5p0
M$15 9 2 5 8 nmos_5p0 L=0.6U W=1.185U AS=0.3081P AD=0.1422P PS=1.705U PD=1.425U
* device instance $16 r0 *1 3.72,0.942 nmos_5p0
M$16 8 1 9 8 nmos_5p0 L=0.6U W=1.185U AS=0.1422P AD=0.3555P PS=1.425U PD=1.885U
.ENDS gf180mcu_fd_sc_mcu9t5v0__aoi211_2

* cell gf180mcu_fd_sc_mcu9t5v0__dlyc_2
* pin PWELL,VSS,gf180mcu_gnd
* pin Z
* pin I
* pin NWELL,VDD
.SUBCKT gf180mcu_fd_sc_mcu9t5v0__dlyc_2 1 7 11 13
* net 1 PWELL,VSS,gf180mcu_gnd
* net 7 Z
* net 11 I
* net 13 NWELL,VDD
* device instance $1 r0 *1 8.34,3.365 pmos_5p0
M$1 6 5 17 13 pmos_5p0 L=0.5U W=0.36U AS=0.27P AD=0.1584P PS=1.98U PD=1.6U
* device instance $2 r0 *1 8.34,4.085 pmos_5p0
M$2 17 5 13 13 pmos_5p0 L=0.5U W=0.36U AS=0.528P AD=0.27P PS=3.13U PD=1.98U
* device instance $3 r0 *1 10.14,3.785 pmos_5p0
M$3 7 6 13 13 pmos_5p0 L=0.5U W=3.66U AS=1.14105P AD=1.41825P PS=5.63U PD=7.04U
* device instance $5 r0 *1 4.34,3.365 pmos_5p0
M$5 4 3 14 13 pmos_5p0 L=0.5U W=0.36U AS=0.27P AD=0.1584P PS=1.98U PD=1.6U
* device instance $6 r0 *1 6.18,3.365 pmos_5p0
M$6 16 4 5 13 pmos_5p0 L=0.5U W=0.36U AS=0.1584P AD=0.27P PS=1.6U PD=1.98U
* device instance $7 r0 *1 4.34,4.085 pmos_5p0
M$7 13 3 14 13 pmos_5p0 L=0.5U W=0.36U AS=0.27P AD=0.2412P PS=1.98U PD=1.7U
* device instance $8 r0 *1 6.18,4.085 pmos_5p0
M$8 13 4 16 13 pmos_5p0 L=0.5U W=0.36U AS=0.27P AD=0.2412P PS=1.98U PD=1.7U
* device instance $9 r0 *1 2.18,3.365 pmos_5p0
M$9 15 2 3 13 pmos_5p0 L=0.5U W=0.36U AS=0.1584P AD=0.27P PS=1.6U PD=1.98U
* device instance $10 r0 *1 0.87,4.085 pmos_5p0
M$10 13 11 2 13 pmos_5p0 L=0.5U W=0.36U AS=0.1584P AD=0.1458P PS=1.6U PD=1.17U
* device instance $11 r0 *1 2.18,4.085 pmos_5p0
M$11 13 2 15 13 pmos_5p0 L=0.5U W=0.36U AS=0.27P AD=0.1458P PS=1.98U PD=1.17U
* device instance $12 r0 *1 0.92,0.795 nmos_5p0
M$12 1 11 2 1 nmos_5p0 L=0.6U W=0.36U AS=0.1584P AD=0.1278P PS=1.6U PD=1.07U
* device instance $13 r0 *1 2.23,0.795 nmos_5p0
M$13 12 2 1 1 nmos_5p0 L=0.6U W=0.36U AS=0.1278P AD=0.27P PS=1.07U PD=1.98U
* device instance $14 r0 *1 2.23,1.515 nmos_5p0
M$14 3 2 12 1 nmos_5p0 L=0.6U W=0.36U AS=0.27P AD=0.1584P PS=1.98U PD=1.6U
* device instance $15 r0 *1 4.39,0.52 nmos_5p0
M$15 1 3 8 1 nmos_5p0 L=0.6U W=0.36U AS=0.27P AD=0.2232P PS=1.98U PD=1.6U
* device instance $16 r0 *1 6.23,0.52 nmos_5p0
M$16 10 4 1 1 nmos_5p0 L=0.6U W=0.36U AS=0.2232P AD=0.27P PS=1.6U PD=1.98U
* device instance $17 r0 *1 4.39,1.24 nmos_5p0
M$17 4 3 8 1 nmos_5p0 L=0.6U W=0.36U AS=0.27P AD=0.1584P PS=1.98U PD=1.6U
* device instance $18 r0 *1 6.23,1.24 nmos_5p0
M$18 5 4 10 1 nmos_5p0 L=0.6U W=0.36U AS=0.27P AD=0.1584P PS=1.98U PD=1.6U
* device instance $19 r0 *1 8.39,0.525 nmos_5p0
M$19 1 5 9 1 nmos_5p0 L=0.6U W=0.36U AS=0.27P AD=0.408P PS=1.98U PD=2.52U
* device instance $20 r0 *1 8.39,1.245 nmos_5p0
M$20 6 5 9 1 nmos_5p0 L=0.6U W=0.36U AS=0.27P AD=0.1584P PS=1.98U PD=1.6U
* device instance $21 r0 *1 10.19,1.005 nmos_5p0
M$21 7 6 1 1 nmos_5p0 L=0.6U W=2.64U AS=0.7512P AD=0.924P PS=4.36U PD=5.36U
.ENDS gf180mcu_fd_sc_mcu9t5v0__dlyc_2

* cell gf180mcu_fd_sc_mcu9t5v0__clkbuf_3
* pin PWELL,VSS,gf180mcu_gnd
* pin NWELL,VDD
* pin I
* pin Z
.SUBCKT gf180mcu_fd_sc_mcu9t5v0__clkbuf_3 1 2 3 5
* net 1 PWELL,VSS,gf180mcu_gnd
* net 2 NWELL,VDD
* net 3 I
* net 5 Z
* device instance $1 r0 *1 0.87,3.552 pmos_5p0
M$1 4 3 2 2 pmos_5p0 L=0.5U W=2.75U AS=1.03125P AD=0.97625P PS=5.625U PD=4.17U
* device instance $3 r0 *1 3.29,3.552 pmos_5p0
M$3 5 4 2 2 pmos_5p0 L=0.5U W=5.5U AS=1.82875P AD=1.88375P PS=8.16U PD=9.615U
* device instance $7 r0 *1 0.92,1.34 nmos_5p0
M$7 4 3 1 1 nmos_5p0 L=0.6U W=1.1U AS=0.385P AD=0.3455P PS=3.05U PD=2.37U
* device instance $9 r0 *1 3.34,1.365 nmos_5p0
M$9 5 4 1 1 nmos_5p0 L=0.6U W=2.4U AS=0.6705P AD=0.732P PS=4.66U PD=5.44U
.ENDS gf180mcu_fd_sc_mcu9t5v0__clkbuf_3

* cell gf180mcu_fd_sc_mcu9t5v0__and3_2
* pin A1
* pin NWELL,VDD
* pin A2
* pin A3
* pin PWELL,VSS,gf180mcu_gnd
* pin Z
.SUBCKT gf180mcu_fd_sc_mcu9t5v0__and3_2 2 3 4 5 6 7
* net 2 A1
* net 3 NWELL,VDD
* net 4 A2
* net 5 A3
* net 6 PWELL,VSS,gf180mcu_gnd
* net 7 Z
* device instance $1 r0 *1 0.925,3.965 pmos_5p0
M$1 3 2 1 3 pmos_5p0 L=0.5U W=1.46U AS=0.6424P AD=0.3796P PS=3.8U PD=1.98U
* device instance $2 r0 *1 1.945,3.965 pmos_5p0
M$2 1 4 3 3 pmos_5p0 L=0.5U W=1.46U AS=0.3796P AD=0.3796P PS=1.98U PD=1.98U
* device instance $3 r0 *1 2.965,3.965 pmos_5p0
M$3 1 5 3 3 pmos_5p0 L=0.5U W=1.46U AS=0.585P AD=0.3796P PS=2.53U PD=1.98U
* device instance $4 r0 *1 4.165,3.78 pmos_5p0
M$4 7 1 3 3 pmos_5p0 L=0.5U W=3.66U AS=1.0608P AD=1.281P PS=4.88U PD=6.89U
* device instance $6 r0 *1 0.975,1.005 nmos_5p0
M$6 9 2 1 6 nmos_5p0 L=0.6U W=1.32U AS=0.5808P AD=0.2112P PS=3.52U PD=1.64U
* device instance $7 r0 *1 1.895,1.005 nmos_5p0
M$7 8 4 9 6 nmos_5p0 L=0.6U W=1.32U AS=0.2112P AD=0.2772P PS=1.64U PD=1.74U
* device instance $8 r0 *1 2.915,1.005 nmos_5p0
M$8 6 5 8 6 nmos_5p0 L=0.6U W=1.32U AS=0.2772P AD=0.3432P PS=1.74U PD=1.84U
* device instance $9 r0 *1 4.035,1.005 nmos_5p0
M$9 7 1 6 6 nmos_5p0 L=0.6U W=2.64U AS=0.6864P AD=0.924P PS=3.68U PD=5.36U
.ENDS gf180mcu_fd_sc_mcu9t5v0__and3_2

* cell gf180mcu_fd_sc_mcu9t5v0__or3_2
* pin A1
* pin PWELL,VSS,gf180mcu_gnd
* pin A2
* pin A3
* pin NWELL,VDD
* pin Z
.SUBCKT gf180mcu_fd_sc_mcu9t5v0__or3_2 2 3 4 5 6 7
* net 2 A1
* net 3 PWELL,VSS,gf180mcu_gnd
* net 4 A2
* net 5 A3
* net 6 NWELL,VDD
* net 7 Z
* device instance $1 r0 *1 0.97,3.78 pmos_5p0
M$1 9 2 1 6 pmos_5p0 L=0.5U W=1.83U AS=0.8052P AD=0.52155P PS=4.54U PD=2.4U
* device instance $2 r0 *1 2.04,3.78 pmos_5p0
M$2 8 4 9 6 pmos_5p0 L=0.5U W=1.83U AS=0.52155P AD=0.5673P PS=2.4U PD=2.45U
* device instance $3 r0 *1 3.16,3.78 pmos_5p0
M$3 6 5 8 6 pmos_5p0 L=0.5U W=1.83U AS=0.5673P AD=0.732P PS=2.45U PD=2.63U
* device instance $4 r0 *1 4.46,3.78 pmos_5p0
M$4 7 1 6 6 pmos_5p0 L=0.5U W=3.66U AS=1.25355P AD=1.32675P PS=5.03U PD=6.94U
* device instance $6 r0 *1 0.92,0.87 nmos_5p0
M$6 3 2 1 3 nmos_5p0 L=0.6U W=1.05U AS=0.462P AD=0.273P PS=2.98U PD=1.57U
* device instance $7 r0 *1 2.04,0.87 nmos_5p0
M$7 1 4 3 3 nmos_5p0 L=0.6U W=1.05U AS=0.273P AD=0.273P PS=1.57U PD=1.57U
* device instance $8 r0 *1 3.16,0.87 nmos_5p0
M$8 3 5 1 3 nmos_5p0 L=0.6U W=1.05U AS=0.273P AD=0.4215P PS=1.57U PD=2.02U
* device instance $9 r0 *1 4.46,1.005 nmos_5p0
M$9 7 1 3 3 nmos_5p0 L=0.6U W=2.64U AS=0.7647P AD=0.924P PS=3.86U PD=5.36U
.ENDS gf180mcu_fd_sc_mcu9t5v0__or3_2

* cell gf180mcu_fd_sc_mcu9t5v0__or2_2
* pin PWELL,VSS,gf180mcu_gnd
* pin A1
* pin A2
* pin NWELL,VDD
* pin Z
.SUBCKT gf180mcu_fd_sc_mcu9t5v0__or2_2 1 2 4 5 6
* net 1 PWELL,VSS,gf180mcu_gnd
* net 2 A1
* net 4 A2
* net 5 NWELL,VDD
* net 6 Z
* device instance $1 r0 *1 0.97,3.78 pmos_5p0
M$1 7 2 3 5 pmos_5p0 L=0.5U W=1.83U AS=0.8052P AD=0.52155P PS=4.54U PD=2.4U
* device instance $2 r0 *1 2.04,3.78 pmos_5p0
M$2 5 4 7 5 pmos_5p0 L=0.5U W=1.83U AS=0.52155P AD=0.5673P PS=2.4U PD=2.45U
* device instance $3 r0 *1 3.16,3.78 pmos_5p0
M$3 6 3 5 5 pmos_5p0 L=0.5U W=3.66U AS=1.08885P AD=1.32675P PS=4.85U PD=6.94U
* device instance $5 r0 *1 0.92,1.005 nmos_5p0
M$5 3 2 1 1 nmos_5p0 L=0.6U W=1.32U AS=0.5808P AD=0.3432P PS=3.52U PD=1.84U
* device instance $6 r0 *1 2.04,1.005 nmos_5p0
M$6 1 4 3 1 nmos_5p0 L=0.6U W=1.32U AS=0.3432P AD=0.3432P PS=1.84U PD=1.84U
* device instance $7 r0 *1 3.16,1.005 nmos_5p0
M$7 6 3 1 1 nmos_5p0 L=0.6U W=2.64U AS=0.6864P AD=0.924P PS=3.68U PD=5.36U
.ENDS gf180mcu_fd_sc_mcu9t5v0__or2_2

* cell gf180mcu_fd_sc_mcu9t5v0__aoi22_2
* pin PWELL,VSS,gf180mcu_gnd
* pin B2
* pin NWELL,VDD
* pin B1
* pin ZN
* pin A2
* pin A1
.SUBCKT gf180mcu_fd_sc_mcu9t5v0__aoi22_2 1 2 3 4 5 7 8
* net 1 PWELL,VSS,gf180mcu_gnd
* net 2 B2
* net 3 NWELL,VDD
* net 4 B1
* net 5 ZN
* net 7 A2
* net 8 A1
* device instance $1 r0 *1 0.87,3.78 pmos_5p0
M$1 3 2 6 3 pmos_5p0 L=0.5U W=3.66U AS=1.281P AD=0.9516P PS=6.89U PD=4.7U
* device instance $2 r0 *1 1.89,3.78 pmos_5p0
M$2 6 4 3 3 pmos_5p0 L=0.5U W=3.66U AS=0.9516P AD=0.9516P PS=4.7U PD=4.7U
* device instance $5 r0 *1 4.95,3.78 pmos_5p0
M$5 5 7 6 3 pmos_5p0 L=0.5U W=3.66U AS=0.9516P AD=1.281P PS=4.7U PD=6.89U
* device instance $6 r0 *1 5.97,3.78 pmos_5p0
M$6 6 8 5 3 pmos_5p0 L=0.5U W=3.66U AS=0.9516P AD=0.9516P PS=4.7U PD=4.7U
* device instance $9 r0 *1 0.92,1.005 nmos_5p0
M$9 12 2 1 1 nmos_5p0 L=0.6U W=1.32U AS=0.5808P AD=0.2112P PS=3.52U PD=1.64U
* device instance $10 r0 *1 1.84,1.005 nmos_5p0
M$10 5 4 12 1 nmos_5p0 L=0.6U W=1.32U AS=0.2112P AD=0.3663P PS=1.64U PD=1.875U
* device instance $11 r0 *1 2.995,1.005 nmos_5p0
M$11 11 4 5 1 nmos_5p0 L=0.6U W=1.32U AS=0.3663P AD=0.1881P PS=1.875U PD=1.605U
* device instance $12 r0 *1 3.88,1.005 nmos_5p0
M$12 1 2 11 1 nmos_5p0 L=0.6U W=1.32U AS=0.1881P AD=0.3432P PS=1.605U PD=1.84U
* device instance $13 r0 *1 5,1.005 nmos_5p0
M$13 10 7 1 1 nmos_5p0 L=0.6U W=1.32U AS=0.3432P AD=0.2112P PS=1.84U PD=1.64U
* device instance $14 r0 *1 5.92,1.005 nmos_5p0
M$14 5 8 10 1 nmos_5p0 L=0.6U W=1.32U AS=0.2112P AD=0.3432P PS=1.64U PD=1.84U
* device instance $15 r0 *1 7.04,1.005 nmos_5p0
M$15 9 8 5 1 nmos_5p0 L=0.6U W=1.32U AS=0.3432P AD=0.2112P PS=1.84U PD=1.64U
* device instance $16 r0 *1 7.96,1.005 nmos_5p0
M$16 1 7 9 1 nmos_5p0 L=0.6U W=1.32U AS=0.2112P AD=0.5808P PS=1.64U PD=3.52U
.ENDS gf180mcu_fd_sc_mcu9t5v0__aoi22_2

* cell gf180mcu_fd_sc_mcu9t5v0__oai211_2
* pin NWELL,VDD
* pin A2
* pin ZN
* pin A1
* pin B
* pin C
* pin PWELL,VSS,gf180mcu_gnd
.SUBCKT gf180mcu_fd_sc_mcu9t5v0__oai211_2 1 2 3 4 5 6 7
* net 1 NWELL,VDD
* net 2 A2
* net 3 ZN
* net 4 A1
* net 5 B
* net 6 C
* net 7 PWELL,VSS,gf180mcu_gnd
* device instance $1 r0 *1 0.97,3.78 pmos_5p0
M$1 12 2 1 1 pmos_5p0 L=0.5U W=1.83U AS=0.8052P AD=0.52155P PS=4.54U PD=2.4U
* device instance $2 r0 *1 2.04,3.78 pmos_5p0
M$2 3 4 12 1 pmos_5p0 L=0.5U W=1.83U AS=0.52155P AD=0.5673P PS=2.4U PD=2.45U
* device instance $3 r0 *1 3.16,3.78 pmos_5p0
M$3 11 4 3 1 pmos_5p0 L=0.5U W=1.83U AS=0.5673P AD=0.52155P PS=2.45U PD=2.4U
* device instance $4 r0 *1 4.23,3.78 pmos_5p0
M$4 1 2 11 1 pmos_5p0 L=0.5U W=1.83U AS=0.52155P AD=0.585P PS=2.4U PD=2.53U
* device instance $5 r0 *1 5.43,3.965 pmos_5p0
M$5 3 5 1 1 pmos_5p0 L=0.5U W=2.92U AS=0.9646P AD=1.022P PS=4.51U PD=5.78U
* device instance $6 r0 *1 6.45,3.965 pmos_5p0
M$6 1 6 3 1 pmos_5p0 L=0.5U W=2.92U AS=0.7592P AD=0.7592P PS=3.96U PD=3.96U
* device instance $9 r0 *1 0.92,1.005 nmos_5p0
M$9 3 2 8 7 nmos_5p0 L=0.6U W=2.64U AS=0.924P AD=0.7062P PS=5.36U PD=3.71U
* device instance $10 r0 *1 2.04,1.005 nmos_5p0
M$10 8 4 3 7 nmos_5p0 L=0.6U W=2.64U AS=0.6864P AD=0.6864P PS=3.68U PD=3.68U
* device instance $13 r0 *1 5.43,1.005 nmos_5p0
M$13 9 5 8 7 nmos_5p0 L=0.6U W=1.32U AS=0.363P AD=0.2442P PS=1.87U PD=1.69U
* device instance $14 r0 *1 6.4,1.005 nmos_5p0
M$14 7 6 9 7 nmos_5p0 L=0.6U W=1.32U AS=0.2442P AD=0.3432P PS=1.69U PD=1.84U
* device instance $15 r0 *1 7.52,1.005 nmos_5p0
M$15 10 6 7 7 nmos_5p0 L=0.6U W=1.32U AS=0.3432P AD=0.2112P PS=1.84U PD=1.64U
* device instance $16 r0 *1 8.44,1.005 nmos_5p0
M$16 8 5 10 7 nmos_5p0 L=0.6U W=1.32U AS=0.2112P AD=0.5808P PS=1.64U PD=3.52U
.ENDS gf180mcu_fd_sc_mcu9t5v0__oai211_2

* cell gf180mcu_fd_sc_mcu9t5v0__buf_4
* pin PWELL,VSS,gf180mcu_gnd
* pin NWELL,VDD
* pin I
* pin Z
.SUBCKT gf180mcu_fd_sc_mcu9t5v0__buf_4 1 2 3 5
* net 1 PWELL,VSS,gf180mcu_gnd
* net 2 NWELL,VDD
* net 3 I
* net 5 Z
* device instance $1 r0 *1 0.87,3.78 pmos_5p0
M$1 4 3 2 2 pmos_5p0 L=0.5U W=3.66U AS=1.3725P AD=1.1346P PS=6.99U PD=4.9U
* device instance $3 r0 *1 3.11,3.78 pmos_5p0
M$3 5 4 2 2 pmos_5p0 L=0.5U W=7.32U AS=2.2692P AD=2.5071P PS=9.8U PD=11.89U
* device instance $7 r0 *1 0.92,1.005 nmos_5p0
M$7 4 3 1 1 nmos_5p0 L=0.6U W=2.64U AS=0.924P AD=0.6864P PS=5.36U PD=3.68U
* device instance $9 r0 *1 3.16,1.005 nmos_5p0
M$9 5 4 1 1 nmos_5p0 L=0.6U W=5.28U AS=1.3728P AD=1.6104P PS=7.36U PD=9.04U
.ENDS gf180mcu_fd_sc_mcu9t5v0__buf_4

* cell gf180mcu_fd_sc_mcu9t5v0__clkbuf_4
* pin PWELL,VSS,gf180mcu_gnd
* pin NWELL,VDD
* pin I
* pin Z
.SUBCKT gf180mcu_fd_sc_mcu9t5v0__clkbuf_4 1 2 3 5
* net 1 PWELL,VSS,gf180mcu_gnd
* net 2 NWELL,VDD
* net 3 I
* net 5 Z
* device instance $1 r0 *1 0.87,3.78 pmos_5p0
M$1 4 3 2 2 pmos_5p0 L=0.5U W=3.66U AS=1.3725P AD=1.2993P PS=6.99U PD=5.08U
* device instance $3 r0 *1 3.29,3.78 pmos_5p0
M$3 5 4 2 2 pmos_5p0 L=0.5U W=7.32U AS=2.4339P AD=2.5071P PS=9.98U PD=11.89U
* device instance $7 r0 *1 0.92,1.23 nmos_5p0
M$7 4 3 1 1 nmos_5p0 L=0.6U W=1.46U AS=0.511P AD=0.4593P PS=3.59U PD=2.75U
* device instance $9 r0 *1 3.34,1.265 nmos_5p0
M$9 5 4 1 1 nmos_5p0 L=0.6U W=3.2U AS=0.8935P AD=0.976P PS=5.46U PD=6.44U
.ENDS gf180mcu_fd_sc_mcu9t5v0__clkbuf_4

* cell gf180mcu_fd_sc_mcu9t5v0__nor4_2
* pin PWELL,VSS,gf180mcu_gnd
* pin ZN
* pin A4
* pin NWELL,VDD
* pin A3
* pin A1
* pin A2
.SUBCKT gf180mcu_fd_sc_mcu9t5v0__nor4_2 1 2 3 4 5 6 7
* net 1 PWELL,VSS,gf180mcu_gnd
* net 2 ZN
* net 3 A4
* net 4 NWELL,VDD
* net 5 A3
* net 6 A1
* net 7 A2
* device instance $1 r0 *1 0.975,3.78 pmos_5p0
M$1 13 5 8 4 pmos_5p0 L=0.5U W=1.83U AS=0.8052P AD=0.52155P PS=4.54U PD=2.4U
* device instance $2 r0 *1 2.045,3.78 pmos_5p0
M$2 4 3 13 4 pmos_5p0 L=0.5U W=1.83U AS=0.52155P AD=0.5673P PS=2.4U PD=2.45U
* device instance $3 r0 *1 3.165,3.78 pmos_5p0
M$3 12 3 4 4 pmos_5p0 L=0.5U W=1.83U AS=0.5673P AD=0.732P PS=2.45U PD=2.63U