
* cell configurable_sync_fifo
* pin data_in[1]
* pin PWELL
* pin NWELL
* pin clk
* pin fill_level[2]
* pin fill_level[1]
* pin fill_level[0]
* pin fill_level[3]
* pin almost_empty
* pin almost_full
* pin data_in[4]
* pin data_in[6]
* pin full
* pin fill_level[4]
* pin wr_en
* pin rst_n
* pin empty
* pin data_out[4]
* pin rd_en
* pin data_out[1]
* pin data_out[6]
* pin data_out[3]
* pin data_in[3]
* pin data_out[7]
* pin data_out[5]
* pin data_out[2]
* pin data_out[0]
* pin data_in[5]
* pin data_in[2]
* pin data_in[7]
* pin data_in[0]
.SUBCKT configurable_sync_fifo 1 3 5 14 15 27 28 108 156 157 167 168 217 218
+ 229 254 292 293 328 329 330 388 393 402 403 404 428 634 635 636 637
* net 1 data_in[1]
* net 3 PWELL
* net 5 NWELL
* net 14 clk
* net 15 fill_level[2]
* net 27 fill_level[1]
* net 28 fill_level[0]
* net 108 fill_level[3]
* net 156 almost_empty
* net 157 almost_full
* net 167 data_in[4]
* net 168 data_in[6]
* net 217 full
* net 218 fill_level[4]
* net 229 wr_en
* net 254 rst_n
* net 292 empty
* net 293 data_out[4]
* net 328 rd_en
* net 329 data_out[1]
* net 330 data_out[6]
* net 388 data_out[3]
* net 393 data_in[3]
* net 402 data_out[7]
* net 403 data_out[5]
* net 404 data_out[2]
* net 428 data_out[0]
* net 634 data_in[5]
* net 635 data_in[2]
* net 636 data_in[7]
* net 637 data_in[0]
* cell instance $2 r0 *1 15.01,1.4
X$2 1 3 5 17 CLKBUF_X2
* cell instance $9 r0 *1 38.76,4.2
X$9 2 7 25 5 3 40 HA_X1
* cell instance $12 r0 *1 36.86,4.2
X$12 2 23 787 5 3 24 HA_X1
* cell instance $15 r0 *1 35.72,1.4
X$15 3 22 6 2 4 5 DFF_X2
* cell instance $16 m0 *1 10.83,9.8
X$16 38 3 5 117 BUF_X2
* cell instance $19 m0 *1 12.35,9.8
X$19 3 654 160 92 81 5 DFF_X1
* cell instance $20 m0 *1 15.58,9.8
X$20 3 701 97 93 84 5 DFF_X1
* cell instance $23 m0 *1 20.52,9.8
X$23 3 642 85 143 84 5 DFF_X1
* cell instance $26 m0 *1 24.7,9.8
X$26 42 95 64 3 5 144 MUX2_X1
* cell instance $27 m0 *1 26.03,9.8
X$27 3 643 64 86 54 5 DFF_X1
* cell instance $30 m0 *1 30.97,9.8
X$30 55 95 76 3 5 103 MUX2_X1
* cell instance $33 m0 *1 36.86,9.8
X$33 87 78 5 3 65 XNOR2_X1
* cell instance $34 m0 *1 38,9.8
X$34 59 23 4 94 3 5 139 NAND4_X1
* cell instance $35 m0 *1 38.95,9.8
X$35 88 23 4 3 113 5 AOI21_X1
* cell instance $36 m0 *1 39.71,9.8
X$36 59 88 3 5 78 NAND2_X1
* cell instance $37 m0 *1 40.28,9.8
X$37 4 88 106 3 39 5 AOI21_X1
* cell instance $40 m0 *1 45.6,9.8
X$40 112 3 5 19 BUF_X2
* cell instance $41 m0 *1 46.36,9.8
X$41 19 46 3 5 109 NOR2_X1
* cell instance $42 m0 *1 46.93,9.8
X$42 19 26 3 5 134 NOR2_X1
* cell instance $48 m0 *1 3.8,9.8
X$48 3 657 82 62 81 5 DFF_X1
* cell instance $49 m0 *1 7.03,9.8
X$49 3 676 83 110 81 5 DFF_X1
* cell instance $57 r0 *1 3.04,9.8
X$57 3 774 118 115 81 5 DFF_X1
* cell instance $59 r0 *1 6.65,9.8
X$59 38 111 83 3 5 110 MUX2_X1
* cell instance $62 r0 *1 8.55,9.8
X$62 3 718 119 135 81 5 DFF_X1
* cell instance $64 r0 *1 12.16,9.8
X$64 3 758 147 120 81 5 DFF_X1
* cell instance $66 r0 *1 16.15,9.8
X$66 17 111 63 3 5 72 MUX2_X1
* cell instance $68 r0 *1 17.67,9.8
X$68 63 96 97 3 5 121 MUX2_X1
* cell instance $69 r0 *1 19,9.8
X$69 3 746 98 141 84 5 DFF_X1
* cell instance $70 r0 *1 22.23,9.8
X$70 38 122 85 3 5 143 MUX2_X1
* cell instance $72 r0 *1 23.75,9.8
X$72 98 96 85 3 5 100 MUX2_X1
* cell instance $73 r0 *1 25.08,9.8
X$73 100 99 144 3 5 125 MUX2_X1
* cell instance $76 r0 *1 27.55,9.8
X$76 3 713 101 127 54 5 DFF_X1
* cell instance $77 r0 *1 30.78,9.8
X$77 101 95 142 3 5 102 MUX2_X1
* cell instance $79 r0 *1 32.3,9.8
X$79 102 99 103 3 5 128 MUX2_X1
* cell instance $80 r0 *1 33.63,9.8
X$80 3 737 129 114 6 5 DFF_X1
* cell instance $82 r0 *1 37.05,9.8
X$82 113 87 105 3 5 104 NOR3_X1
* cell instance $83 r0 *1 37.81,9.8
X$83 104 59 16 105 139 3 5 114 AOI221_X1
* cell instance $85 r0 *1 39.14,9.8
X$85 87 105 106 3 5 NOR2_X4
* cell instance $87 r0 *1 41.04,9.8
X$87 3 59 106 88 130 140 5 NAND4_X4
* cell instance $90 r0 *1 45.6,9.8
X$90 59 136 112 5 3 46 HA_X1
* cell instance $91 r0 *1 47.5,9.8
X$91 134 89 109 3 5 152 MUX2_X1
* cell instance $93 m0 *1 47.88,9.8
X$93 91 68 70 3 89 5 AOI21_X1
* cell instance $94 m0 *1 48.83,9.8
X$94 70 73 3 5 133 XOR2_X1
* cell instance $98 r0 *1 49.4,9.8
X$98 133 19 132 3 5 107 MUX2_X1
* cell instance $100 m0 *1 50.35,9.8
X$100 90 26 70 5 3 91 HA_X1
* cell instance $102 m0 *1 53.2,9.8
X$102 90 3 5 108 BUF_X1
* cell instance $104 r0 *1 50.73,9.8
X$104 107 16 3 5 162 NOR2_X1
* cell instance $105 r0 *1 51.3,9.8
X$105 90 3 5 132 INV_X1
* cell instance $106 r0 *1 51.68,9.8
X$106 131 132 153 3 175 5 AOI21_X1
* cell instance $111 m0 *1 1.9,29.4
X$111 3 684 376 389 273 5 DFF_X1
* cell instance $113 m0 *1 5.13,29.4
X$113 376 169 359 3 5 405 MUX2_X1
* cell instance $115 m0 *1 6.65,29.4
X$115 360 241 323 3 5 352 MUX2_X1
* cell instance $116 m0 *1 7.98,29.4
X$116 367 181 353 3 5 362 MUX2_X1
* cell instance $117 m0 *1 9.31,29.4
X$117 323 169 353 3 5 377 MUX2_X1
* cell instance $129 r0 *1 3.23,29.4
X$129 393 3 5 360 CLKBUF_X2
* cell instance $130 r0 *1 3.99,29.4
X$130 376 189 367 3 5 389 MUX2_X1
* cell instance $134 r0 *1 7.41,29.4
X$134 360 3 5 367 BUF_X2
* cell instance $137 r0 *1 9.88,29.4
X$137 405 146 377 3 5 378 MUX2_X1
* cell instance $138 r0 *1 11.21,29.4
X$138 378 242 395 3 5 391 MUX2_X1
* cell instance $139 r0 *1 12.54,29.4
X$139 3 717 396 379 418 5 DFF_X1
* cell instance $140 m0 *1 16.15,29.4
X$140 3 690 368 374 304 5 DFF_X1
* cell instance $141 m0 *1 14.82,29.4
X$141 367 140 368 3 5 374 MUX2_X1
* cell instance $146 m0 *1 19.95,29.4
X$146 3 688 375 392 304 5 DFF_X1
* cell instance $148 m0 *1 23.18,29.4
X$148 360 122 375 3 5 392 MUX2_X1
* cell instance $150 m0 *1 24.7,29.4
X$150 360 37 366 3 5 355 MUX2_X1
* cell instance $152 r0 *1 19.76,29.4
X$152 411 126 367 3 5 397 MUX2_X1
* cell instance $155 r0 *1 22.99,29.4
X$155 411 96 375 3 5 435 MUX2_X1
* cell instance $157 r0 *1 24.51,29.4
X$157 3 716 415 413 380 5 DFF_X1
* cell instance $159 m0 *1 26.41,29.4
X$159 366 95 415 3 5 381 MUX2_X1
* cell instance $160 m0 *1 28.5,29.4
X$160 360 219 369 3 5 382 MUX2_X1
* cell instance $163 r0 *1 28.5,29.4
X$163 3 722 369 382 384 5 DFF_X1
* cell instance $165 m0 *1 30.21,29.4
X$165 262 391 383 261 3 5 372 AOI22_X2
* cell instance $166 m0 *1 32.68,29.4
X$166 369 291 410 3 5 438 MUX2_X1
* cell instance $168 m0 *1 34.2,29.4
X$168 367 216 385 3 5 373 MUX2_X1
* cell instance $169 m0 *1 35.53,29.4
X$169 3 655 385 373 384 5 DFF_X1
* cell instance $170 m0 *1 38.76,29.4
X$170 3 354 341 5 BUF_X16
* cell instance $173 r0 *1 31.73,29.4
X$173 3 772 410 414 384 5 DFF_X1
* cell instance $176 r0 *1 35.53,29.4
X$176 398 238 385 3 5 409 MUX2_X1
* cell instance $179 r0 *1 40.28,29.4
X$179 301 5 237 3 BUF_X4
* cell instance $183 r0 *1 44.08,29.4
X$183 3 725 387 390 356 5 DFF_X1
* cell instance $184 m0 *1 44.84,29.4
X$184 31 364 5 3 390 AND2_X1
* cell instance $187 m0 *1 46.36,29.4
X$187 363 387 386 5 3 312 HA_X1
* cell instance $188 m0 *1 48.26,29.4
X$188 227 3 5 31 BUF_X2
* cell instance $191 r0 *1 47.31,29.4
X$191 387 5 242 3 BUF_X4
* cell instance $193 r0 *1 49.02,29.4
X$193 136 406 227 3 5 399 NAND3_X1
* cell instance $194 r0 *1 49.78,29.4
X$194 3 738 370 407 356 5 DFF_X1
* cell instance $195 m0 *1 50.35,29.4
X$195 371 372 3 5 407 NAND2_X1
* cell instance $198 m0 *1 51.49,29.4
X$198 136 370 31 3 5 371 NAND3_X1
* cell instance $202 m0 *1 53.2,29.4
X$202 370 3 5 388 BUF_X1
* cell instance $204 r0 *1 53.01,29.4
X$204 406 3 5 402 BUF_X1
* cell instance $207 m0 *1 14.44,32.2
X$207 396 96 368 3 5 408 MUX2_X1
* cell instance $208 m0 *1 13.11,32.2
X$208 360 111 396 3 5 379 MUX2_X1
* cell instance $211 m0 *1 19.57,32.2
X$211 3 660 411 397 380 5 DFF_X1
* cell instance $215 m0 *1 25.27,32.2
X$215 367 43 415 3 5 413 MUX2_X1
* cell instance $216 m0 *1 26.6,32.2
X$216 435 99 381 3 5 437 MUX2_X1
* cell instance $220 m0 *1 30.4,32.2
X$220 437 246 412 3 5 383 MUX2_X1
* cell instance $221 m0 *1 31.73,32.2
X$221 367 123 410 3 5 414 MUX2_X1
* cell instance $222 m0 *1 33.06,32.2
X$222 409 237 438 3 5 412 MUX2_X1
* cell instance $225 m0 *1 35.34,32.2
X$225 398 188 367 3 5 423 MUX2_X1
* cell instance $226 m0 *1 36.67,32.2
X$226 3 664 398 423 384 5 DFF_X1
* cell instance $230 m0 *1 47.69,32.2
X$230 242 3 5 246 CLKBUF_X3
* cell instance $232 m0 *1 48.83,32.2
X$232 399 400 3 5 433 NAND2_X1
* cell instance $233 m0 *1 49.4,32.2
X$233 3 681 406 433 356 5 DFF_X1
* cell instance $234 m0 *1 52.63,32.2
X$234 401 3 5 404 BUF_X1
* cell instance $238 m0 *1 4.37,32.2
X$238 419 145 367 3 5 416 MUX2_X1
* cell instance $247 r0 *1 3.42,32.2
X$247 3 721 419 416 418 5 DFF_X1
* cell instance $248 m0 *1 6.27,32.2
X$248 367 116 394 3 5 430 MUX2_X1
* cell instance $252 r0 *1 6.65,32.2
X$252 3 769 394 430 418 5 DFF_X1
* cell instance $254 m0 *1 8.74,32.2
X$254 419 138 394 3 5 431 MUX2_X1
* cell instance $256 m0 *1 10.64,32.2
X$256 431 146 408 3 5 395 MUX2_X1
* cell instance $262 r0 *1 13.49,32.2
X$262 3 708 455 434 418 5 DFF_X1
* cell instance $270 r0 *1 40.47,32.2
X$270 3 734 425 436 384 5 DFF_X1
* cell instance $275 r0 *1 48.83,32.2
X$275 136 429 31 3 5 426 NAND3_X1
* cell instance $276 r0 *1 49.59,32.2
X$276 136 401 31 3 5 449 NAND3_X1
* cell instance $277 r0 *1 50.35,32.2
X$277 136 432 31 3 5 427 NAND3_X1
* cell instance $279 r0 *1 52.63,32.2
X$279 429 3 5 403 BUF_X1
* cell instance $280 r0 *1 53.2,32.2
X$280 432 3 5 428 BUF_X1
* cell instance $284 m0 *1 36.29,49
X$284 611 341 631 3 5 575 MUX2_X1
* cell instance $286 m0 *1 37.62,49
X$286 611 189 459 3 5 613 MUX2_X1
* cell instance $289 r0 *1 36.1,49
X$289 3 759 611 613 530 5 DFF_X1
* cell instance $292 m0 *1 40.09,49
X$292 602 189 424 3 5 619 MUX2_X1
* cell instance $293 m0 *1 41.61,49
X$293 585 241 607 3 5 609 MUX2_X1
* cell instance $294 m0 *1 42.94,49
X$294 3 679 607 609 530 5 DFF_X1
* cell instance $297 r0 *1 40.09,49
X$297 3 727 602 619 530 5 DFF_X1
* cell instance $298 r0 *1 43.32,49
X$298 602 341 630 3 5 578 MUX2_X1
* cell instance $300 r0 *1 45.03,49
X$300 3 291 5 341 BUF_X8
* cell instance $301 r0 *1 47.5,49
X$301 585 37 620 3 5 621 MUX2_X1
* cell instance $302 m0 *1 48.26,49
X$302 620 291 603 3 5 588 MUX2_X1
* cell instance $304 m0 *1 49.59,49
X$304 424 43 603 3 5 622 MUX2_X1
* cell instance $310 r0 *1 49.97,49
X$310 3 766 603 622 530 5 DFF_X1
* cell instance $314 m0 *1 4.37,18.2
X$314 168 3 5 230 CLKBUF_X2
* cell instance $315 m0 *1 5.13,18.2
X$315 208 169 240 3 5 231 MUX2_X1
* cell instance $317 m0 *1 7.22,18.2
X$317 210 169 180 3 5 232 MUX2_X1
* cell instance $318 m0 *1 8.55,18.2
X$318 231 146 232 3 5 233 MUX2_X1
* cell instance $321 m0 *1 13.11,18.2
X$321 81 3 5 781 INV_X2
* cell instance $322 m0 *1 13.68,18.2
X$322 186 3 5 81 CLKBUF_X3
* cell instance $323 m0 *1 14.63,18.2
X$323 17 235 211 3 5 220 MUX2_X1
* cell instance $328 r0 *1 1.52,18.2
X$328 3 724 240 252 81 5 DFF_X1
* cell instance $332 r0 *1 4.75,18.2
X$332 38 235 240 3 5 252 MUX2_X1
* cell instance $333 r0 *1 6.08,18.2
X$333 38 241 210 3 5 209 MUX2_X1
* cell instance $338 r0 *1 10.26,18.2
X$338 233 242 255 3 5 259 MUX2_X1
* cell instance $341 r0 *1 13.49,18.2
X$341 3 761 221 256 304 5 DFF_X1
* cell instance $342 r0 *1 16.72,18.2
X$342 17 241 221 3 5 256 MUX2_X1
* cell instance $344 m0 *1 17.1,18.2
X$344 200 146 212 3 5 223 MUX2_X1
* cell instance $346 m0 *1 19.38,18.2
X$346 84 3 5 INV_X4
* cell instance $347 m0 *1 20.33,18.2
X$347 186 3 5 84 CLKBUF_X3
* cell instance $348 m0 *1 21.28,18.2
X$348 3 670 243 239 84 5 DFF_X1
* cell instance $349 m0 *1 24.51,18.2
X$349 3 671 224 244 54 5 DFF_X1
* cell instance $350 m0 *1 27.74,18.2
X$350 245 237 222 3 5 225 MUX2_X1
* cell instance $353 r0 *1 18.43,18.2
X$353 223 242 148 3 5 258 MUX2_X1
* cell instance $357 r0 *1 22.23,18.2
X$357 38 219 213 3 5 185 MUX2_X1
* cell instance $358 r0 *1 23.56,18.2
X$358 243 188 117 3 5 239 MUX2_X1
* cell instance $360 r0 *1 25.08,18.2
X$360 117 216 224 3 5 244 MUX2_X1
* cell instance $362 r0 *1 26.6,18.2
X$362 243 238 224 3 5 245 MUX2_X1
* cell instance $364 r0 *1 28.31,18.2
X$364 125 246 225 3 5 260 MUX2_X1
* cell instance $365 m0 *1 29.64,18.2
X$365 3 691 215 214 54 5 DFF_X1
* cell instance $370 r0 *1 30.02,18.2
X$370 262 259 260 261 3 5 251 AOI22_X2
* cell instance $373 r0 *1 32.3,18.2
X$373 215 291 178 3 5 247 MUX2_X1
* cell instance $374 r0 *1 33.63,18.2
X$374 257 237 247 3 5 248 MUX2_X1
* cell instance $375 m0 *1 35.34,18.2
X$375 3 667 226 236 278 5 DFF_X1
* cell instance $376 m0 *1 34.01,18.2
X$376 205 238 226 3 5 257 MUX2_X1
* cell instance $379 m0 *1 39.52,18.2
X$379 66 227 204 3 216 5 NAND3_X4
* cell instance $385 r0 *1 40.09,18.2
X$385 227 88 234 3 111 5 NAND3_X4
* cell instance $386 m0 *1 42.56,18.2
X$386 66 227 234 3 219 5 NAND3_X4
* cell instance $390 m0 *1 45.98,18.2
X$390 3 227 5 130 BUF_X8
* cell instance $391 m0 *1 48.45,18.2
X$391 249 5 130 3 BUF_X4
* cell instance $393 m0 *1 51.3,18.2
X$393 228 3 5 174 CLKBUF_X2
* cell instance $394 m0 *1 52.06,18.2
X$394 228 3 5 218 BUF_X1
* cell instance $395 m0 *1 52.63,18.2
X$395 229 3 5 194 BUF_X1
* cell instance $397 r0 *1 42.56,18.2
X$397 227 137 234 3 37 5 NAND3_X4
* cell instance $400 r0 *1 48.45,18.2
X$400 249 3 5 263 INV_X2
* cell instance $402 r0 *1 49.21,18.2
X$402 254 3 5 249 BUF_X1
* cell instance $405 r0 *1 50.35,18.2
X$405 253 251 3 5 250 NAND2_X1
* cell instance $413 m0 *1 6.65,21
X$413 3 687 267 266 273 5 DFF_X1
* cell instance $414 m0 *1 9.88,21
X$414 230 111 267 3 5 266 MUX2_X1
* cell instance $420 r0 *1 2.66,21
X$420 3 730 283 282 273 5 DFF_X1
* cell instance $423 r0 *1 7.03,21
X$423 230 3 5 270 BUF_X2
* cell instance $426 r0 *1 8.93,21
X$426 270 140 285 3 5 284 MUX2_X1
* cell instance $429 r0 *1 10.83,21
X$429 270 181 274 3 5 271 MUX2_X1
* cell instance $431 m0 *1 11.59,21
X$431 3 639 274 271 273 5 DFF_X1
* cell instance $434 r0 *1 12.16,21
X$434 3 742 286 272 273 5 DFF_X1
* cell instance $435 r0 *1 15.39,21
X$435 286 169 274 3 5 300 MUX2_X1
* cell instance $438 m0 *1 19.19,21
X$438 3 638 269 268 84 5 DFF_X1
* cell instance $440 m0 *1 22.42,21
X$440 230 122 269 3 5 268 MUX2_X1
* cell instance $445 r0 *1 19.19,21
X$445 3 753 287 325 304 5 DFF_X1
* cell instance $447 r0 *1 23.94,21
X$447 3 743 308 275 187 5 DFF_X1
* cell instance $452 r0 *1 30.02,21
X$452 186 3 5 187 CLKBUF_X3
* cell instance $453 r0 *1 30.97,21
X$453 187 3 5 INV_X8
* cell instance $454 r0 *1 32.68,21
X$454 270 216 297 3 5 276 MUX2_X1
* cell instance $455 m0 *1 33.25,21
X$455 128 246 248 3 5 277 MUX2_X1
* cell instance $456 m0 *1 34.58,21
X$456 262 258 261 277 3 5 265 AOI22_X1
* cell instance $460 r0 *1 34.01,21
X$460 3 770 297 276 278 5 DFF_X1
* cell instance $462 r0 *1 38,21
X$462 186 3 5 278 CLKBUF_X3
* cell instance $463 r0 *1 38.95,21
X$463 278 3 5 INV_X4
* cell instance $464 m0 *1 39.9,21
X$464 227 88 204 3 116 5 NAND3_X4
* cell instance $466 m0 *1 42.37,21
X$466 151 227 234 3 241 5 NAND3_X4
* cell instance $468 m0 *1 46.36,21
X$468 3 279 290 263 281 261 5 NOR4_X4
* cell instance $470 m0 *1 49.97,21
X$470 3 685 264 250 278 5 DFF_X1
* cell instance $473 r0 *1 40.09,21
X$473 151 227 204 3 235 5 NAND3_X4
* cell instance $477 r0 *1 46.17,21
X$477 3 279 289 263 281 262 5 NOR4_X4
* cell instance $479 r0 *1 49.97,21
X$479 3 768 280 295 278 5 DFF_X1
* cell instance $480 r0 *1 53.2,21
X$480 281 3 5 292 BUF_X1
* cell instance $491 m0 *1 6.65,37.8
X$491 417 138 451 3 5 476 MUX2_X1
* cell instance $494 m0 *1 12.54,37.8
X$494 3 651 440 467 418 5 DFF_X1
* cell instance $495 m0 *1 15.77,37.8
X$495 418 3 5 INV_X4
* cell instance $506 r0 *1 7.98,37.8
X$506 487 146 518 3 5 500 MUX2_X1
* cell instance $507 r0 *1 9.31,37.8
X$507 476 146 539 3 5 488 MUX2_X1
* cell instance $508 r0 *1 10.64,37.8
X$508 500 242 488 3 5 482 MUX2_X1
* cell instance $511 r0 *1 12.92,37.8
X$511 420 140 502 3 5 489 MUX2_X1
* cell instance $512 r0 *1 14.25,37.8
X$512 540 138 502 3 5 491 MUX2_X1
* cell instance $513 r0 *1 15.58,37.8
X$513 490 146 491 3 5 503 MUX2_X1
* cell instance $515 r0 *1 17.29,37.8
X$515 492 242 503 3 5 481 MUX2_X1
* cell instance $517 r0 *1 19,37.8
X$517 468 146 544 3 5 504 MUX2_X1
* cell instance $519 r0 *1 21.09,37.8
X$519 524 242 504 3 5 505 MUX2_X1
* cell instance $520 m0 *1 21.85,37.8
X$520 186 3 5 380 CLKBUF_X3
* cell instance $522 m0 *1 22.8,37.8
X$522 464 188 420 3 5 442 MUX2_X1
* cell instance $526 m0 *1 29.45,37.8
X$526 262 481 510 261 3 5 400 AOI22_X2
* cell instance $530 r0 *1 22.8,37.8
X$530 3 778 494 493 525 5 DFF_X1
* cell instance $532 r0 *1 26.79,37.8
X$532 480 99 495 3 5 508 MUX2_X1
* cell instance $533 r0 *1 28.12,37.8
X$533 509 242 508 3 5 510 MUX2_X1
* cell instance $537 r0 *1 31.54,37.8
X$537 422 123 514 3 5 548 MUX2_X1
* cell instance $538 m0 *1 34.01,37.8
X$538 484 237 469 3 5 511 MUX2_X1
* cell instance $539 m0 *1 32.3,37.8
X$539 262 482 483 261 3 5 479 AOI22_X2
* cell instance $540 m0 *1 35.34,37.8
X$540 186 3 5 384 CLKBUF_X3
* cell instance $541 m0 *1 36.29,37.8
X$541 384 3 5 INV_X4
* cell instance $543 r0 *1 32.87,37.8
X$543 496 246 511 3 5 483 MUX2_X1
* cell instance $547 r0 *1 36.29,37.8
X$547 497 246 507 3 5 486 MUX2_X1
* cell instance $548 m0 *1 38.95,37.8
X$548 262 505 261 486 3 5 447 AOI22_X1
* cell instance $549 m0 *1 37.62,37.8
X$549 446 238 471 3 5 470 MUX2_X1
* cell instance $551 m0 *1 40.66,37.8
X$551 3 695 454 458 356 5 DFF_X1
* cell instance $552 m0 *1 43.89,37.8
X$552 3 702 472 485 356 5 DFF_X1
* cell instance $556 r0 *1 38.19,37.8
X$556 470 237 506 3 5 507 MUX2_X1
* cell instance $560 r0 *1 43.13,37.8
X$560 454 341 472 3 5 545 MUX2_X1
* cell instance $562 r0 *1 44.84,37.8
X$562 515 242 498 3 5 501 MUX2_X1
* cell instance $564 r0 *1 46.93,37.8
X$564 473 237 538 3 5 499 MUX2_X1
* cell instance $566 m0 *1 47.5,37.8
X$566 501 262 474 261 3 5 478 AOI22_X1
* cell instance $568 m0 *1 49.4,37.8
X$568 427 478 3 5 477 NAND2_X1
* cell instance $569 m0 *1 49.97,37.8
X$569 3 650 432 477 356 5 DFF_X1
* cell instance $571 r0 *1 48.26,37.8
X$571 516 246 499 3 5 474 MUX2_X1
* cell instance $583 m0 *1 6.84,26.6
X$583 3 683 323 352 273 5 DFF_X1
* cell instance $589 r0 *1 1.9,26.6
X$589 3 751 359 358 273 5 DFF_X1
* cell instance $593 r0 *1 5.13,26.6
X$593 360 235 359 3 5 358 MUX2_X1
* cell instance $596 r0 *1 7.41,26.6
X$596 3 775 353 362 273 5 DFF_X1
* cell instance $599 m0 *1 11.97,26.6
X$599 273 3 5 780 INV_X2
* cell instance $602 m0 *1 13.87,26.6
X$602 324 189 270 3 5 335 MUX2_X1
* cell instance $608 m0 *1 4.37,35
X$608 417 145 422 3 5 475 MUX2_X1
* cell instance $609 m0 *1 5.7,35
X$609 422 116 451 3 5 452 MUX2_X1
* cell instance $613 m0 *1 11.02,35
X$613 3 640 439 456 418 5 DFF_X1
* cell instance $614 m0 *1 14.25,35
X$614 439 145 420 3 5 456 MUX2_X1
* cell instance $618 r0 *1 1.71,35
X$618 3 714 417 475 418 5 DFF_X1
* cell instance $622 r0 *1 4.94,35
X$622 3 771 451 452 418 5 DFF_X1
* cell instance $627 r0 *1 12.54,35
X$627 420 116 440 3 5 467 MUX2_X1
* cell instance $628 r0 *1 13.87,35
X$628 186 3 5 418 CLKBUF_X3
* cell instance $629 r0 *1 14.82,35
X$629 439 138 440 3 5 490 MUX2_X1
* cell instance $631 m0 *1 15.96,35
X$631 455 145 459 3 5 434 MUX2_X1
* cell instance $633 r0 *1 16.91,35
X$633 455 138 461 3 5 468 MUX2_X1
* cell instance $635 m0 *1 17.67,35
X$635 459 116 461 3 5 441 MUX2_X1
* cell instance $637 r0 *1 18.24,35
X$637 3 749 461 441 380 5 DFF_X1
* cell instance $638 m0 *1 23.37,35
X$638 3 661 443 421 380 5 DFF_X1
* cell instance $639 m0 *1 20.14,35
X$639 3 656 464 442 380 5 DFF_X1
* cell instance $642 m0 *1 29.83,35
X$642 444 188 422 3 5 466 MUX2_X1
* cell instance $643 m0 *1 31.16,35
X$643 422 216 465 3 5 463 MUX2_X1
* cell instance $644 m0 *1 32.49,35
X$644 3 674 465 463 384 5 DFF_X1
* cell instance $646 m0 *1 35.91,35
X$646 3 675 471 460 384 5 DFF_X1
* cell instance $650 r0 *1 21.85,35
X$650 380 3 5 INV_X8
* cell instance $653 r0 *1 24.13,35
X$653 420 216 443 3 5 421 MUX2_X1
* cell instance $654 r0 *1 25.46,35
X$654 464 95 443 3 5 480 MUX2_X1
* cell instance $658 r0 *1 28.88,35
X$658 3 764 444 466 384 5 DFF_X1
* cell instance $660 r0 *1 32.3,35
X$660 444 238 465 3 5 484 MUX2_X1
* cell instance $662 r0 *1 33.82,35
X$662 3 741 446 462 445 5 DFF_X1
* cell instance $664 r0 *1 37.24,35
X$664 446 188 459 3 5 462 MUX2_X1
* cell instance $666 r0 *1 38.76,35
X$666 459 216 471 3 5 460 MUX2_X1
* cell instance $668 r0 *1 40.28,35
X$668 356 3 5 782 INV_X2
* cell instance $669 r0 *1 40.85,35
X$669 454 145 424 3 5 458 MUX2_X1
* cell instance $670 m0 *1 41.23,35
X$670 424 216 425 3 5 436 MUX2_X1
* cell instance $672 m0 *1 42.56,35
X$672 3 673 453 457 356 5 DFF_X1
* cell instance $676 r0 *1 42.18,35
X$676 453 188 424 3 5 457 MUX2_X1
* cell instance $677 r0 *1 43.51,35
X$677 424 116 472 3 5 485 MUX2_X1
* cell instance $678 r0 *1 44.84,35
X$678 186 3 5 356 CLKBUF_X3
* cell instance $679 r0 *1 45.79,35
X$679 453 291 425 3 5 473 MUX2_X1
* cell instance $681 m0 *1 49.02,35
X$681 3 672 429 448 356 5 DFF_X1
* cell instance $682 m0 *1 48.45,35
X$682 426 447 3 5 448 NAND2_X1
* cell instance $686 r0 *1 48.83,35
X$686 449 479 3 5 450 NAND2_X1
* cell instance $687 r0 *1 49.4,35
X$687 3 731 401 450 356 5 DFF_X1
* cell instance $695 m0 *1 6.08,46.2
X$695 3 649 581 570 521 5 DFF_X1
* cell instance $696 m0 *1 9.31,46.2
X$696 581 169 571 3 5 518 MUX2_X1
* cell instance $707 r0 *1 5.51,46.2
X$707 536 241 581 3 5 570 MUX2_X1
* cell instance $708 r0 *1 6.84,46.2
X$708 3 755 571 589 521 5 DFF_X1
* cell instance $709 r0 *1 10.07,46.2
X$709 422 181 571 3 5 589 MUX2_X1
* cell instance $713 r0 *1 12.73,46.2
X$713 536 3 5 422 BUF_X2
* cell instance $715 r0 *1 13.87,46.2
X$715 420 181 582 3 5 595 MUX2_X1
* cell instance $716 m0 *1 15.01,46.2
X$716 513 241 572 3 5 580 MUX2_X1
* cell instance $718 m0 *1 16.34,46.2
X$718 573 301 574 3 5 492 MUX2_X1
* cell instance $722 m0 *1 20.14,46.2
X$722 575 301 592 3 5 524 MUX2_X1
* cell instance $726 r0 *1 16.15,46.2
X$726 572 169 582 3 5 574 MUX2_X1
* cell instance $728 r0 *1 17.67,46.2
X$728 459 181 598 3 5 597 MUX2_X1
* cell instance $729 r0 *1 19,46.2
X$729 615 169 598 3 5 592 MUX2_X1
* cell instance $732 m0 *1 21.85,46.2
X$732 3 696 605 593 525 5 DFF_X1
* cell instance $735 r0 *1 22.23,46.2
X$735 513 122 605 3 5 593 MUX2_X1
* cell instance $737 r0 *1 25.08,46.2
X$737 553 3 5 459 BUF_X2
* cell instance $739 m0 *1 26.41,46.2
X$739 536 122 576 3 5 594 MUX2_X1
* cell instance $741 m0 *1 27.74,46.2
X$741 3 665 576 594 445 5 DFF_X1
* cell instance $742 m0 *1 30.97,46.2
X$742 563 95 576 3 5 579 MUX2_X1
* cell instance $745 m0 *1 33.25,46.2
X$745 3 705 566 567 445 5 DFF_X1
* cell instance $748 m0 *1 42.75,46.2
X$748 424 181 590 3 5 584 MUX2_X1
* cell instance $749 m0 *1 44.08,46.2
X$749 578 301 591 3 5 515 MUX2_X1
* cell instance $751 m0 *1 45.6,46.2
X$751 3 682 564 587 530 5 DFF_X1
* cell instance $752 m0 *1 48.83,46.2
X$752 564 126 424 3 5 587 MUX2_X1
* cell instance $758 r0 *1 31.54,46.2
X$758 459 43 583 3 5 601 MUX2_X1
* cell instance $760 r0 *1 33.63,46.2
X$760 618 95 583 3 5 555 MUX2_X1
* cell instance $761 r0 *1 34.96,46.2
X$761 553 122 610 3 5 612 MUX2_X1
* cell instance $762 r0 *1 36.29,46.2
X$762 3 747 610 612 445 5 DFF_X1
* cell instance $764 r0 *1 42.56,46.2
X$764 3 773 590 584 530 5 DFF_X1
* cell instance $765 r0 *1 45.79,46.2
X$765 607 341 590 3 5 591 MUX2_X1
* cell instance $766 r0 *1 47.12,46.2
X$766 585 3 5 424 BUF_X2
* cell instance $767 r0 *1 47.88,46.2
X$767 585 122 586 3 5 604 MUX2_X1
* cell instance $768 r0 *1 49.21,46.2
X$768 3 750 586 604 530 5 DFF_X1
* cell instance $774 m0 *1 2.28,23.8
X$774 3 648 302 314 273 5 DFF_X1
* cell instance $775 m0 *1 5.51,23.8
X$775 283 145 270 3 5 282 MUX2_X1
* cell instance $776 m0 *1 6.84,23.8
X$776 3 693 285 284 273 5 DFF_X1
* cell instance $777 m0 *1 10.07,23.8
X$777 267 138 285 3 5 331 MUX2_X1
* cell instance $779 m0 *1 11.59,23.8
X$779 230 241 286 3 5 272 MUX2_X1
* cell instance $780 m0 *1 12.92,23.8
X$780 3 663 315 303 273 5 DFF_X1
* cell instance $782 m0 *1 16.34,23.8
X$782 305 301 300 3 5 306 MUX2_X1
* cell instance $791 r0 *1 3.99,23.8
X$791 270 116 302 3 5 314 MUX2_X1
* cell instance $792 r0 *1 5.32,23.8
X$792 283 138 302 3 5 333 MUX2_X1
* cell instance $795 r0 *1 10.45,23.8
X$795 333 146 331 3 5 337 MUX2_X1
* cell instance $797 r0 *1 11.97,23.8
X$797 186 3 5 273 CLKBUF_X3
* cell instance $798 r0 *1 12.92,23.8
X$798 230 235 315 3 5 303 MUX2_X1
* cell instance $799 r0 *1 14.25,23.8
X$799 3 757 324 335 304 5 DFF_X1
* cell instance $800 r0 *1 17.48,23.8
X$800 306 242 337 3 5 317 MUX2_X1
* cell instance $801 m0 *1 19,23.8
X$801 304 3 5 INV_X8
* cell instance $802 m0 *1 18.05,23.8
X$802 186 3 5 304 CLKBUF_X3
* cell instance $804 m0 *1 20.9,23.8
X$804 230 37 318 3 5 307 MUX2_X1
* cell instance $805 m0 *1 22.23,23.8
X$805 287 96 269 3 5 299 MUX2_X1
* cell instance $808 m0 *1 24.51,23.8
X$808 318 95 308 3 5 320 MUX2_X1
* cell instance $810 m0 *1 26.03,23.8
X$810 230 219 310 3 5 321 MUX2_X1
* cell instance $811 m0 *1 27.36,23.8
X$811 3 652 310 321 187 5 DFF_X1
* cell instance $812 m0 *1 30.59,23.8
X$812 310 238 342 3 5 322 MUX2_X1
* cell instance $813 m0 *1 31.92,23.8
X$813 288 188 270 3 5 298 MUX2_X1
* cell instance $814 m0 *1 33.25,23.8
X$814 288 238 297 3 5 345 MUX2_X1
* cell instance $818 m0 *1 39.9,23.8
X$818 3 678 319 311 278 5 DFF_X1
* cell instance $819 m0 *1 43.13,23.8
X$819 319 3 5 301 CLKBUF_X3
* cell instance $822 m0 *1 46.36,23.8
X$822 296 289 3 5 351 NAND2_X1
* cell instance $823 m0 *1 46.93,23.8
X$823 290 3 5 289 INV_X1
* cell instance $825 m0 *1 47.5,23.8
X$825 312 291 237 3 5 296 NAND3_X1
* cell instance $827 m0 *1 48.45,23.8
X$827 263 3 5 16 CLKBUF_X3
* cell instance $828 m0 *1 49.4,23.8
X$828 176 3 5 281 INV_X2
* cell instance $832 r0 *1 19.38,23.8
X$832 287 126 270 3 5 325 MUX2_X1
* cell instance $834 r0 *1 20.9,23.8
X$834 3 740 318 307 304 5 DFF_X1
* cell instance $835 r0 *1 24.13,23.8
X$835 270 43 308 3 5 275 MUX2_X1
* cell instance $836 r0 *1 25.46,23.8
X$836 299 99 320 3 5 339 MUX2_X1
* cell instance $838 r0 *1 27.17,23.8
X$838 270 123 342 3 5 309 MUX2_X1
* cell instance $839 r0 *1 28.5,23.8
X$839 3 719 342 309 187 5 DFF_X1
* cell instance $840 r0 *1 31.73,23.8
X$840 345 99 322 3 5 343 MUX2_X1
* cell instance $841 r0 *1 33.06,23.8
X$841 3 776 288 298 278 5 DFF_X1
* cell instance $845 r0 *1 41.23,23.8
X$845 348 16 3 5 311 NOR2_X1
* cell instance $848 r0 *1 43.7,23.8
X$848 237 338 3 5 348 XOR2_X1
* cell instance $849 r0 *1 44.84,23.8
X$849 291 326 316 3 5 350 OR3_X1
* cell instance $850 r0 *1 45.79,23.8
X$850 246 290 3 5 326 NAND2_X1
* cell instance $851 r0 *1 46.36,23.8
X$851 351 136 289 3 5 346 MUX2_X1
* cell instance $853 r0 *1 47.88,23.8
X$853 176 237 313 3 5 316 NAND3_X1
* cell instance $854 r0 *1 48.64,23.8
X$854 313 3 5 279 INV_X2
* cell instance $856 r0 *1 49.59,23.8
X$856 176 312 313 3 5 338 NAND3_X1
* cell instance $857 m0 *1 50.54,23.8
X$857 294 265 3 5 295 NAND2_X1
* cell instance $859 m0 *1 51.11,23.8
X$859 136 264 31 3 5 253 NAND3_X1
* cell instance $860 m0 *1 51.87,23.8
X$860 136 280 31 3 5 294 NAND3_X1
* cell instance $863 r0 *1 51.87,23.8
X$863 328 3 5 313 BUF_X1
* cell instance $865 m0 *1 53.2,23.8
X$865 264 3 5 293 BUF_X1
* cell instance $868 r0 *1 53.2,23.8
X$868 280 3 5 329 BUF_X1
* cell instance $871 m0 *1 28.5,15.4
X$871 54 3 5 INV_X4
* cell instance $873 m0 *1 30.97,15.4
X$873 74 123 178 3 5 179 MUX2_X1
* cell instance $876 r0 *1 28.5,15.4
X$876 186 3 5 54 CLKBUF_X3
* cell instance $877 r0 *1 29.45,15.4
X$877 17 219 215 3 5 214 MUX2_X1
* cell instance $879 r0 *1 30.97,15.4
X$879 3 762 205 170 187 5 DFF_X1
* cell instance $880 m0 *1 32.87,15.4
X$880 205 188 74 3 5 170 MUX2_X1
* cell instance $884 r0 *1 34.2,15.4
X$884 74 216 226 3 5 236 MUX2_X1
* cell instance $885 m0 *1 35.53,15.4
X$885 6 3 5 INV_X4
* cell instance $888 r0 *1 35.53,15.4
X$888 186 3 5 6 CLKBUF_X3
* cell instance $891 m0 *1 36.86,15.4
X$891 3 149 94 206 189 5 NOR3_X4
* cell instance $892 r0 *1 37.24,15.4
X$892 3 149 94 207 188 5 NOR3_X4
* cell instance $894 m0 *1 40.85,15.4
X$894 150 66 130 3 5 207 NAND3_X1
* cell instance $895 m0 *1 39.9,15.4
X$895 105 94 150 5 3 190 AND3_X1
* cell instance $896 m0 *1 41.61,15.4
X$896 150 151 130 3 5 206 NAND3_X1
* cell instance $897 m0 *1 42.37,15.4
X$897 150 130 137 3 5 166 NAND3_X1
* cell instance $900 m0 *1 47.69,15.4
X$900 177 172 173 3 5 176 NAND3_X2
* cell instance $901 m0 *1 49.02,15.4
X$901 16 153 3 5 191 NOR2_X1
* cell instance $902 m0 *1 49.59,15.4
X$902 3 150 198 192 174 5 AOI21_X4
* cell instance $903 m0 *1 52.06,15.4
X$903 175 3 5 157 BUF_X1
* cell instance $904 m0 *1 52.63,15.4
X$904 154 153 3 5 195 NAND2_X1
* cell instance $905 m0 *1 53.2,15.4
X$905 196 3 5 156 BUF_X1
* cell instance $907 r0 *1 40.09,15.4
X$907 171 5 204 3 BUF_X4
* cell instance $908 r0 *1 41.42,15.4
X$908 190 5 234 3 BUF_X4
* cell instance $909 r0 *1 42.75,15.4
X$909 130 137 204 3 122 5 NAND3_X4
* cell instance $911 r0 *1 45.6,15.4
X$911 3 173 228 202 6 5 DFF_X1
* cell instance $913 r0 *1 49.21,15.4
X$913 191 152 201 3 5 202 MUX2_X1
* cell instance $914 r0 *1 50.54,15.4
X$914 16 174 3 5 201 NOR2_X1
* cell instance $915 r0 *1 51.11,15.4
X$915 174 3 5 153 INV_X1
* cell instance $918 r0 *1 52.06,15.4
X$918 174 192 5 3 193 AND2_X1
* cell instance $919 r0 *1 52.82,15.4
X$919 194 3 5 198 INV_X1
* cell instance $920 r0 *1 53.2,15.4
X$920 193 3 5 217 BUF_X1
* cell instance $925 m0 *1 3.61,15.4
X$925 167 3 5 38 CLKBUF_X2
* cell instance $931 r0 *1 1.9,15.4
X$931 3 729 208 197 81 5 DFF_X1
* cell instance $936 r0 *1 5.32,15.4
X$936 208 189 117 3 5 197 MUX2_X1
* cell instance $937 m0 *1 6.46,15.4
X$937 3 662 210 209 81 5 DFF_X1
* cell instance $941 m0 *1 11.97,15.4
X$941 3 697 183 182 81 5 DFF_X1
* cell instance $943 m0 *1 15.39,15.4
X$943 183 169 211 3 5 200 MUX2_X1
* cell instance $945 m0 *1 17.48,15.4
X$945 74 181 203 3 5 184 MUX2_X1
* cell instance $950 r0 *1 6.84,15.4
X$950 117 181 180 3 5 199 MUX2_X1
* cell instance $952 r0 *1 8.36,15.4
X$952 3 735 180 199 81 5 DFF_X1
* cell instance $954 r0 *1 11.97,15.4
X$954 183 189 74 3 5 182 MUX2_X1
* cell instance $955 r0 *1 13.3,15.4
X$955 3 763 211 220 81 5 DFF_X1
* cell instance $957 r0 *1 16.91,15.4
X$957 221 138 203 3 5 212 MUX2_X1
* cell instance $958 r0 *1 18.24,15.4
X$958 3 744 203 184 84 5 DFF_X1
* cell instance $960 r0 *1 22.23,15.4
X$960 3 723 213 185 84 5 DFF_X1
* cell instance $963 r0 *1 26.6,15.4
X$963 213 238 124 3 5 222 MUX2_X1
* cell instance $967 m0 *1 2.85,40.6
X$967 3 692 512 535 521 5 DFF_X1