* CDL Netlist generated by OpenROAD

*.BUSDELIMITER [

.SUBCKT riscv aluout[0] aluout[10] aluout[11] aluout[12] aluout[13]
+ aluout[14] aluout[15] aluout[16] aluout[17] aluout[18] aluout[19]
+ aluout[1] aluout[20] aluout[21] aluout[22] aluout[23] aluout[24]
+ aluout[25] aluout[26] aluout[27] aluout[28] aluout[29] aluout[2]
+ aluout[30] aluout[31] aluout[3] aluout[4] aluout[5] aluout[6]
+ aluout[7] aluout[8] aluout[9] clk instr[0] instr[10] instr[11]
+ instr[12] instr[13] instr[14] instr[15] instr[16] instr[17]
+ instr[18] instr[19] instr[1] instr[20] instr[21] instr[22]
+ instr[23] instr[24] instr[25] instr[26] instr[27] instr[28]
+ instr[29] instr[2] instr[30] instr[31] instr[3] instr[4] instr[5]
+ instr[6] instr[7] instr[8] instr[9] memread memwrite pc[0]
+ pc[10] pc[11] pc[12] pc[13] pc[14] pc[15] pc[16] pc[17] pc[18]
+ pc[19] pc[1] pc[20] pc[21] pc[22] pc[23] pc[24] pc[25] pc[26]
+ pc[27] pc[28] pc[29] pc[2] pc[30] pc[31] pc[3] pc[4] pc[5]
+ pc[6] pc[7] pc[8] pc[9] readdata[0] readdata[10] readdata[11]
+ readdata[12] readdata[13] readdata[14] readdata[15] readdata[16]
+ readdata[17] readdata[18] readdata[19] readdata[1] readdata[20]
+ readdata[21] readdata[22] readdata[23] readdata[24] readdata[25]
+ readdata[26] readdata[27] readdata[28] readdata[29] readdata[2]
+ readdata[30] readdata[31] readdata[3] readdata[4] readdata[5]
+ readdata[6] readdata[7] readdata[8] readdata[9] reset suspend
+ writedata[0] writedata[10] writedata[11] writedata[12] writedata[13]
+ writedata[14] writedata[15] writedata[16] writedata[17] writedata[18]
+ writedata[19] writedata[1] writedata[20] writedata[21] writedata[22]
+ writedata[23] writedata[24] writedata[25] writedata[26] writedata[27]
+ writedata[28] writedata[29] writedata[2] writedata[30] writedata[31]
+ writedata[3] writedata[4] writedata[5] writedata[6] writedata[7]
+ writedata[8] writedata[9]
XTAP_TAPCELL_ROW_26_363 VSS VDD sky130_fd_sc_hd__tapvpwrvgnd_1
X_3654_ net29 VSS VSS VDD VDD _0035_ sky130_fd_sc_hd__inv_1
XTAP_TAPCELL_ROW_26_362 VSS VDD sky130_fd_sc_hd__tapvpwrvgnd_1
X_3656_ net27 net28 VSS VSS VDD VDD _0037_ sky130_fd_sc_hd__nand2b_2
XTAP_TAPCELL_ROW_26_361 VSS VDD sky130_fd_sc_hd__tapvpwrvgnd_1
XTAP_TAPCELL_ROW_26_360 VSS VDD sky130_fd_sc_hd__tapvpwrvgnd_1
XTAP_TAPCELL_ROW_26_359 VSS VDD sky130_fd_sc_hd__tapvpwrvgnd_1
X_3660_ net26 net23 net1 net12 VSS VSS VDD VDD _0041_ sky130_fd_sc_hd__and4bb_4
X_3661_ _0037_ _0041_ VSS VSS VDD VDD _0042_ sky130_fd_sc_hd__nor2b_4
XTAP_TAPCELL_ROW_26_358 VSS VDD sky130_fd_sc_hd__tapvpwrvgnd_1
X_3663_ _0035_ _0042_ VSS VSS VDD VDD net99 sky130_fd_sc_hd__and2_4
XTAP_TAPCELL_ROW_26_357 VSS VDD sky130_fd_sc_hd__tapvpwrvgnd_1
XTAP_TAPCELL_ROW_26_356 VSS VDD sky130_fd_sc_hd__tapvpwrvgnd_1
X_3666_ net17 net15 VSS VSS VDD VDD _0046_ sky130_fd_sc_hd__nor2_8
XTAP_TAPCELL_ROW_26_355 VSS VDD sky130_fd_sc_hd__tapvpwrvgnd_1
XTAP_TAPCELL_ROW_26_354 VSS VDD sky130_fd_sc_hd__tapvpwrvgnd_1
XTAP_TAPCELL_ROW_26_353 VSS VDD sky130_fd_sc_hd__tapvpwrvgnd_1
XTAP_TAPCELL_ROW_26_352 VSS VDD sky130_fd_sc_hd__tapvpwrvgnd_1
X_3671_ dp.rf.rf\[1\]\[0\] net212 VSS VSS VDD VDD _0051_ sky130_fd_sc_hd__nand2_1
XTAP_TAPCELL_ROW_26_351 VSS VDD sky130_fd_sc_hd__tapvpwrvgnd_1
XTAP_TAPCELL_ROW_25_350 VSS VDD sky130_fd_sc_hd__tapvpwrvgnd_1
X_3674_ net274 net16 VSS VSS VDD VDD _0054_ sky130_fd_sc_hd__nor2_8
X_3675_ _0051_ _0054_ VSS VSS VDD VDD _0055_ sky130_fd_sc_hd__nand2_1
XTAP_TAPCELL_ROW_25_349 VSS VDD sky130_fd_sc_hd__tapvpwrvgnd_1
X_3677_ net274 VSS VSS VDD VDD _0057_ sky130_fd_sc_hd__clkinvlp_4
X_3678_ dp.rf.rf\[2\]\[0\] dp.rf.rf\[3\]\[0\] dp.rf.rf\[10\]\[0\]
+ dp.rf.rf\[11\]\[0\] net212 net16 VSS VSS VDD VDD _0058_ sky130_fd_sc_hd__mux4_2
XTAP_TAPCELL_ROW_25_348 VSS VDD sky130_fd_sc_hd__tapvpwrvgnd_1
X_3680_ dp.rf.rf\[8\]\[0\] dp.rf.rf\[9\]\[0\] net212 VSS VSS
+ VDD VDD _0060_ sky130_fd_sc_hd__mux2i_1
X_3681_ net274 net16 VSS VSS VDD VDD _0061_ sky130_fd_sc_hd__nor2b_4
X_3682_ _0057_ _0058_ _0060_ _0061_ VSS VSS VDD VDD _0062_
+ sky130_fd_sc_hd__a2bb2oi_2
X_3683_ _0046_ _0055_ _0062_ VSS VSS VDD VDD _0063_ sky130_fd_sc_hd__and3_4
X_3684_ net17 net15 VSS VSS VDD VDD _0064_ sky130_fd_sc_hd__nand2b_4
XTAP_TAPCELL_ROW_25_347 VSS VDD sky130_fd_sc_hd__tapvpwrvgnd_1
X_3686_ net274 net16 VSS VSS VDD VDD _0066_ sky130_fd_sc_hd__and2_4
XTAP_TAPCELL_ROW_25_346 VSS VDD sky130_fd_sc_hd__tapvpwrvgnd_1
XTAP_TAPCELL_ROW_25_345 VSS VDD sky130_fd_sc_hd__tapvpwrvgnd_1
XTAP_TAPCELL_ROW_25_344 VSS VDD sky130_fd_sc_hd__tapvpwrvgnd_1
XTAP_TAPCELL_ROW_25_343 VSS VDD sky130_fd_sc_hd__tapvpwrvgnd_1
X_3691_ dp.rf.rf\[14\]\[0\] dp.rf.rf\[15\]\[0\] net212 VSS
+ VSS VDD VDD _0071_ sky130_fd_sc_hd__mux2i_1
XTAP_TAPCELL_ROW_25_342 VSS VDD sky130_fd_sc_hd__tapvpwrvgnd_1
XTAP_TAPCELL_ROW_25_341 VSS VDD sky130_fd_sc_hd__tapvpwrvgnd_1
X_3694_ dp.rf.rf\[12\]\[0\] dp.rf.rf\[13\]\[0\] net212 VSS
+ VSS VDD VDD _0074_ sky130_fd_sc_hd__mux2i_1
XTAP_TAPCELL_ROW_25_340 VSS VDD sky130_fd_sc_hd__tapvpwrvgnd_1
X_3696_ _0066_ _0071_ _0074_ _0061_ VSS VSS VDD VDD _0076_
+ sky130_fd_sc_hd__a22oi_1
X_3697_ dp.rf.rf\[4\]\[0\] dp.rf.rf\[5\]\[0\] net212 VSS VSS
+ VDD VDD _0077_ sky130_fd_sc_hd__mux2i_1
XTAP_TAPCELL_ROW_25_339 VSS VDD sky130_fd_sc_hd__tapvpwrvgnd_1
XTAP_TAPCELL_ROW_25_338 VSS VDD sky130_fd_sc_hd__tapvpwrvgnd_1
X_3700_ dp.rf.rf\[6\]\[0\] dp.rf.rf\[7\]\[0\] net212 VSS VSS
+ VDD VDD _0080_ sky130_fd_sc_hd__mux2i_1
X_3701_ net16 net274 VSS VSS VDD VDD _0081_ sky130_fd_sc_hd__nor2b_4
XTAP_TAPCELL_ROW_24_337 VSS VDD sky130_fd_sc_hd__tapvpwrvgnd_1
X_3703_ _0054_ _0077_ _0080_ _0081_ VSS VSS VDD VDD _0083_
+ sky130_fd_sc_hd__a22oi_1
X_3704_ _0076_ _0083_ VSS VSS VDD VDD _0084_ sky130_fd_sc_hd__nand2_1
XTAP_TAPCELL_ROW_24_336 VSS VDD sky130_fd_sc_hd__tapvpwrvgnd_1
X_3706_ net17 VSS VSS VDD VDD _0086_ sky130_fd_sc_hd__clkinv_16
XTAP_TAPCELL_ROW_24_335 VSS VDD sky130_fd_sc_hd__tapvpwrvgnd_1
X_3708_ _0086_ net15 VSS VSS VDD VDD _0088_ sky130_fd_sc_hd__nor2_4
X_3709_ dp.rf.rf\[26\]\[0\] dp.rf.rf\[27\]\[0\] net212 VSS
+ VSS VDD VDD _0089_ sky130_fd_sc_hd__mux2i_1
XTAP_TAPCELL_ROW_24_334 VSS VDD sky130_fd_sc_hd__tapvpwrvgnd_1
XTAP_TAPCELL_ROW_24_333 VSS VDD sky130_fd_sc_hd__tapvpwrvgnd_1
X_3712_ dp.rf.rf\[24\]\[0\] dp.rf.rf\[25\]\[0\] net212 VSS
+ VSS VDD VDD _0092_ sky130_fd_sc_hd__mux2i_1
X_3713_ _0066_ _0089_ _0092_ _0061_ VSS VSS VDD VDD _0093_
+ sky130_fd_sc_hd__a22oi_1
X_3714_ dp.rf.rf\[18\]\[0\] dp.rf.rf\[19\]\[0\] net212 VSS
+ VSS VDD VDD _0094_ sky130_fd_sc_hd__mux2i_1
X_3715_ dp.rf.rf\[16\]\[0\] dp.rf.rf\[17\]\[0\] net212 VSS
+ VSS VDD VDD _0095_ sky130_fd_sc_hd__mux2i_1
XTAP_TAPCELL_ROW_24_332 VSS VDD sky130_fd_sc_hd__tapvpwrvgnd_1
X_3717_ _0081_ _0094_ _0095_ _0054_ VSS VSS VDD VDD _0097_
+ sky130_fd_sc_hd__a22oi_1
X_3718_ _0088_ _0093_ _0097_ VSS VSS VDD VDD _0098_ sky130_fd_sc_hd__nand3_1
X_3719_ _0064_ _0084_ _0098_ VSS VSS VDD VDD _0099_ sky130_fd_sc_hd__o21ai_2
X_3720_ dp.rf.rf\[20\]\[0\] dp.rf.rf\[21\]\[0\] dp.rf.rf\[22\]\[0\]
+ dp.rf.rf\[23\]\[0\] net212 net274 VSS VSS VDD VDD _0100_ sky130_fd_sc_hd__mux4_2
X_3721_ net17 net15 VSS VSS VDD VDD _0101_ sky130_fd_sc_hd__nand2_2
X_3722_ net16 _0101_ VSS VSS VDD VDD _0102_ sky130_fd_sc_hd__nor2_4
X_3723_ net16 VSS VSS VDD VDD _0103_ sky130_fd_sc_hd__clkinv_16
X_3724_ _0103_ _0101_ VSS VSS VDD VDD _0104_ sky130_fd_sc_hd__nor2_4
X_3725_ dp.rf.rf\[28\]\[0\] dp.rf.rf\[29\]\[0\] dp.rf.rf\[30\]\[0\]
+ dp.rf.rf\[31\]\[0\] net212 net274 VSS VSS VDD VDD _0105_ sky130_fd_sc_hd__mux4_2
X_3726_ _0100_ _0102_ _0104_ _0105_ VSS VSS VDD VDD _0106_
+ sky130_fd_sc_hd__a22o_1
X_3727_ _0063_ _0099_ _0106_ VSS VSS VDD VDD net133 sky130_fd_sc_hd__or3_4
XTAP_TAPCELL_ROW_24_331 VSS VDD sky130_fd_sc_hd__tapvpwrvgnd_1
X_3729_ _0035_ _0041_ VSS VSS VDD VDD _0108_ sky130_fd_sc_hd__nand2_4
X_3730_ net4 net5 VSS VSS VDD VDD _0109_ sky130_fd_sc_hd__nor2_2
X_3731_ net28 net24 _0109_ VSS VSS VDD VDD _0110_ sky130_fd_sc_hd__nand3_1
X_3732_ net28 net24 VSS VSS VDD VDD _0111_ sky130_fd_sc_hd__nand2_1
X_3733_ net5 _0111_ VSS VSS VDD VDD _0112_ sky130_fd_sc_hd__nand2_1
X_3734_ _0108_ _0110_ _0112_ VSS VSS VDD VDD _0113_ sky130_fd_sc_hd__o21ai_0
X_3735_ net5 _0108_ _0113_ net27 VSS VSS VDD VDD _0114_ sky130_fd_sc_hd__a22oi_1
X_3736_ net1 net12 net23 VSS VSS VDD VDD _0115_ sky130_fd_sc_hd__and3_4
XTAP_TAPCELL_ROW_24_330 VSS VDD sky130_fd_sc_hd__tapvpwrvgnd_1
X_3738_ net26 net29 net27 VSS VSS VDD VDD _0117_ sky130_fd_sc_hd__nor3b_4
XTAP_TAPCELL_ROW_24_329 VSS VDD sky130_fd_sc_hd__tapvpwrvgnd_1
X_3740_ _0115_ _0117_ VSS VSS VDD VDD _0119_ sky130_fd_sc_hd__nand2_8
X_3741_ net29 _0042_ VSS VSS VDD VDD _0120_ sky130_fd_sc_hd__nand2_8
X_3742_ _0119_ _0120_ VSS VSS VDD VDD _0121_ sky130_fd_sc_hd__nand2_4
X_3743_ net6 _0114_ _0121_ VSS VSS VDD VDD _0122_ sky130_fd_sc_hd__or3_4
XTAP_TAPCELL_ROW_24_328 VSS VDD sky130_fd_sc_hd__tapvpwrvgnd_1
XTAP_TAPCELL_ROW_24_327 VSS VDD sky130_fd_sc_hd__tapvpwrvgnd_1
X_3746_ net28 net29 _0037_ VSS VSS VDD VDD _0125_ sky130_fd_sc_hd__o21ai_2
X_3747_ net1 net12 net23 VSS VSS VDD VDD _0126_ sky130_fd_sc_hd__nand3_4
X_3748_ net28 net29 VSS VSS VDD VDD _0127_ sky130_fd_sc_hd__nand2_1
X_3749_ net27 _0126_ _0127_ VSS VSS VDD VDD _0128_ sky130_fd_sc_hd__nor3_4
X_3750_ net26 net29 net27 VSS VSS VDD VDD _0129_ sky130_fd_sc_hd__or3b_4
X_3751_ _0126_ _0129_ VSS VSS VDD VDD _0130_ sky130_fd_sc_hd__nor2_8
XTAP_TAPCELL_ROW_24_326 VSS VDD sky130_fd_sc_hd__tapvpwrvgnd_1
X_3753_ _0041_ _0125_ net202 _0130_ VSS VSS VDD VDD _0132_
+ sky130_fd_sc_hd__a211oi_4
X_3754_ net26 _0128_ VSS VSS VDD VDD _0133_ sky130_fd_sc_hd__and2_4
XTAP_TAPCELL_ROW_24_325 VSS VDD sky130_fd_sc_hd__tapvpwrvgnd_1
XTAP_TAPCELL_ROW_23_324 VSS VDD sky130_fd_sc_hd__tapvpwrvgnd_1
X_3757_ net29 net30 VSS VSS VDD VDD _0136_ sky130_fd_sc_hd__nor2b_1
X_3758_ net13 _0136_ _0042_ VSS VSS VDD VDD _0137_ sky130_fd_sc_hd__mux2i_2
X_3759_ _0130_ _0133_ _0137_ VSS VSS VDD VDD _3530_ sky130_fd_sc_hd__nor3_4
X_3760_ _0041_ _0125_ net202 _0130_ VSS VSS VDD VDD _0138_
+ sky130_fd_sc_hd__a211o_4
X_3761_ _0106_ _0063_ _0138_ VSS VSS VDD VDD _0139_ sky130_fd_sc_hd__or3_4
X_3762_ net179 _3530_ _0139_ _0099_ VSS VSS VDD VDD _0140_
+ sky130_fd_sc_hd__o22a_4
XTAP_TAPCELL_ROW_23_323 VSS VDD sky130_fd_sc_hd__tapvpwrvgnd_1
XTAP_TAPCELL_ROW_23_322 VSS VDD sky130_fd_sc_hd__tapvpwrvgnd_1
XTAP_TAPCELL_ROW_23_321 VSS VDD sky130_fd_sc_hd__tapvpwrvgnd_1
X_3766_ _0122_ _0140_ VSS VSS VDD VDD _3276_ sky130_fd_sc_hd__xnor2_1
X_3767_ _3276_ VSS VSS VDD VDD _3280_ sky130_fd_sc_hd__inv_1
XTAP_TAPCELL_ROW_23_320 VSS VDD sky130_fd_sc_hd__tapvpwrvgnd_1
X_3769_ net10 VSS VSS VDD VDD _0145_ sky130_fd_sc_hd__inv_8
XTAP_TAPCELL_ROW_23_319 VSS VDD sky130_fd_sc_hd__tapvpwrvgnd_1
XTAP_TAPCELL_ROW_23_318 VSS VDD sky130_fd_sc_hd__tapvpwrvgnd_1
X_3772_ net208 VSS VSS VDD VDD _0148_ sky130_fd_sc_hd__clkinv_16
XTAP_TAPCELL_ROW_23_317 VSS VDD sky130_fd_sc_hd__tapvpwrvgnd_1
XTAP_TAPCELL_ROW_23_316 VSS VDD sky130_fd_sc_hd__tapvpwrvgnd_1
XTAP_TAPCELL_ROW_23_315 VSS VDD sky130_fd_sc_hd__tapvpwrvgnd_1
XTAP_TAPCELL_ROW_23_314 VSS VDD sky130_fd_sc_hd__tapvpwrvgnd_1
XTAP_TAPCELL_ROW_23_313 VSS VDD sky130_fd_sc_hd__tapvpwrvgnd_1
XTAP_TAPCELL_ROW_23_312 VSS VDD sky130_fd_sc_hd__tapvpwrvgnd_1
XTAP_TAPCELL_ROW_22_311 VSS VDD sky130_fd_sc_hd__tapvpwrvgnd_1
XTAP_TAPCELL_ROW_22_310 VSS VDD sky130_fd_sc_hd__tapvpwrvgnd_1
X_3781_ dp.rf.rf\[16\]\[0\] dp.rf.rf\[17\]\[0\] dp.rf.rf\[18\]\[0\]
+ dp.rf.rf\[19\]\[0\] net209 net8 VSS VSS VDD VDD _0157_ sky130_fd_sc_hd__mux4_1
X_3782_ _0148_ _0157_ VSS VSS VDD VDD _0158_ sky130_fd_sc_hd__nand2_1
XTAP_TAPCELL_ROW_22_309 VSS VDD sky130_fd_sc_hd__tapvpwrvgnd_1
XTAP_TAPCELL_ROW_22_308 VSS VDD sky130_fd_sc_hd__tapvpwrvgnd_1
XTAP_TAPCELL_ROW_22_307 VSS VDD sky130_fd_sc_hd__tapvpwrvgnd_1
XTAP_TAPCELL_ROW_22_306 VSS VDD sky130_fd_sc_hd__tapvpwrvgnd_1
X_3787_ dp.rf.rf\[20\]\[0\] dp.rf.rf\[21\]\[0\] dp.rf.rf\[22\]\[0\]
+ dp.rf.rf\[23\]\[0\] net209 net8 VSS VSS VDD VDD _0163_ sky130_fd_sc_hd__mux4_1
X_3788_ net206 _0163_ VSS VSS VDD VDD _0164_ sky130_fd_sc_hd__nand2_1
XTAP_TAPCELL_ROW_22_305 VSS VDD sky130_fd_sc_hd__tapvpwrvgnd_1
X_3790_ net11 _0119_ VSS VSS VDD VDD _0166_ sky130_fd_sc_hd__nand2_8
XTAP_TAPCELL_ROW_22_304 VSS VDD sky130_fd_sc_hd__tapvpwrvgnd_1
X_3792_ _0145_ _0158_ _0164_ _0166_ VSS VSS VDD VDD _0168_
+ sky130_fd_sc_hd__a31oi_2
XTAP_TAPCELL_ROW_22_303 VSS VDD sky130_fd_sc_hd__tapvpwrvgnd_1
X_3794_ net211 net8 VSS VSS VDD VDD _0170_ sky130_fd_sc_hd__or2_4
XTAP_TAPCELL_ROW_22_302 VSS VDD sky130_fd_sc_hd__tapvpwrvgnd_1
X_3796_ _0119_ _0170_ dp.rf.rf\[24\]\[0\] VSS VSS VDD VDD
+ _0172_ sky130_fd_sc_hd__a21oi_1
XTAP_TAPCELL_ROW_22_301 VSS VDD sky130_fd_sc_hd__tapvpwrvgnd_1
XTAP_TAPCELL_ROW_22_300 VSS VDD sky130_fd_sc_hd__tapvpwrvgnd_1
XTAP_TAPCELL_ROW_22_299 VSS VDD sky130_fd_sc_hd__tapvpwrvgnd_1
X_3800_ _0126_ _0129_ net210 VSS VSS VDD VDD _0176_ sky130_fd_sc_hd__o21ai_4
XTAP_TAPCELL_ROW_21_298 VSS VDD sky130_fd_sc_hd__tapvpwrvgnd_1
XTAP_TAPCELL_ROW_21_297 VSS VDD sky130_fd_sc_hd__tapvpwrvgnd_1
XTAP_TAPCELL_ROW_21_296 VSS VDD sky130_fd_sc_hd__tapvpwrvgnd_1
XTAP_TAPCELL_ROW_21_295 VSS VDD sky130_fd_sc_hd__tapvpwrvgnd_1
X_3805_ dp.rf.rf\[26\]\[0\] dp.rf.rf\[27\]\[0\] net209 VSS
+ VSS VDD VDD _0181_ sky130_fd_sc_hd__mux2i_1
XTAP_TAPCELL_ROW_21_294 VSS VDD sky130_fd_sc_hd__tapvpwrvgnd_1
XTAP_TAPCELL_ROW_21_293 VSS VDD sky130_fd_sc_hd__tapvpwrvgnd_1
XTAP_TAPCELL_ROW_21_292 VSS VDD sky130_fd_sc_hd__tapvpwrvgnd_1
X_3809_ net8 _0181_ net206 VSS VSS VDD VDD _0185_ sky130_fd_sc_hd__a21oi_1
X_3810_ dp.rf.rf\[25\]\[0\] net8 _0176_ _0185_ VSS VSS VDD
+ VDD _0186_ sky130_fd_sc_hd__o31ai_1
XTAP_TAPCELL_ROW_21_291 VSS VDD sky130_fd_sc_hd__tapvpwrvgnd_1
XTAP_TAPCELL_ROW_21_290 VSS VDD sky130_fd_sc_hd__tapvpwrvgnd_1
XTAP_TAPCELL_ROW_21_289 VSS VDD sky130_fd_sc_hd__tapvpwrvgnd_1
X_3814_ dp.rf.rf\[28\]\[0\] dp.rf.rf\[29\]\[0\] dp.rf.rf\[30\]\[0\]
+ dp.rf.rf\[31\]\[0\] net209 net8 VSS VSS VDD VDD _0190_ sky130_fd_sc_hd__mux4_1
XTAP_TAPCELL_ROW_21_288 VSS VDD sky130_fd_sc_hd__tapvpwrvgnd_1
X_3816_ _0126_ _0129_ net10 VSS VSS VDD VDD _0192_ sky130_fd_sc_hd__o21ai_4
XTAP_TAPCELL_ROW_21_287 VSS VDD sky130_fd_sc_hd__tapvpwrvgnd_1
X_3818_ net206 _0190_ net199 VSS VSS VDD VDD _0194_ sky130_fd_sc_hd__a21oi_1
X_3819_ _0172_ _0186_ _0194_ VSS VSS VDD VDD _0195_ sky130_fd_sc_hd__o21ai_1
XTAP_TAPCELL_ROW_21_286 VSS VDD sky130_fd_sc_hd__tapvpwrvgnd_1
XTAP_TAPCELL_ROW_20_285 VSS VDD sky130_fd_sc_hd__tapvpwrvgnd_1
XTAP_TAPCELL_ROW_20_284 VSS VDD sky130_fd_sc_hd__tapvpwrvgnd_1
XTAP_TAPCELL_ROW_20_283 VSS VDD sky130_fd_sc_hd__tapvpwrvgnd_1
XTAP_TAPCELL_ROW_20_282 VSS VDD sky130_fd_sc_hd__tapvpwrvgnd_1
X_3825_ dp.rf.rf\[2\]\[0\] dp.rf.rf\[3\]\[0\] dp.rf.rf\[6\]\[0\]
+ dp.rf.rf\[7\]\[0\] net209 net206 VSS VSS VDD VDD _0201_ sky130_fd_sc_hd__mux4_1
X_3826_ _0126_ _0129_ _0145_ VSS VSS VDD VDD _0202_ sky130_fd_sc_hd__o21ai_4
XTAP_TAPCELL_ROW_20_281 VSS VDD sky130_fd_sc_hd__tapvpwrvgnd_1
XTAP_TAPCELL_ROW_20_280 VSS VDD sky130_fd_sc_hd__tapvpwrvgnd_1
X_3829_ _0201_ net196 VSS VSS VDD VDD _0205_ sky130_fd_sc_hd__nor2_1
XTAP_TAPCELL_ROW_20_279 VSS VDD sky130_fd_sc_hd__tapvpwrvgnd_1
X_3831_ dp.rf.rf\[0\]\[0\] dp.rf.rf\[1\]\[0\] dp.rf.rf\[4\]\[0\]
+ dp.rf.rf\[5\]\[0\] net209 net206 VSS VSS VDD VDD _0207_ sky130_fd_sc_hd__mux4_1
X_3832_ net210 net8 net208 net10 VSS VSS VDD VDD _0208_ sky130_fd_sc_hd__nor4_2
X_3833_ _0115_ _0117_ _0208_ net11 VSS VSS VDD VDD _0209_
+ sky130_fd_sc_hd__a211oi_4
X_3834_ net8 net10 _0207_ net194 VSS VSS VDD VDD _0210_ sky130_fd_sc_hd__o31ai_2
X_3835_ net8 _0205_ _0210_ VSS VSS VDD VDD _0211_ sky130_fd_sc_hd__a21oi_2
X_3836_ _0126_ _0129_ net8 VSS VSS VDD VDD _0212_ sky130_fd_sc_hd__o21ai_4
XTAP_TAPCELL_ROW_20_278 VSS VDD sky130_fd_sc_hd__tapvpwrvgnd_1
XTAP_TAPCELL_ROW_20_277 VSS VDD sky130_fd_sc_hd__tapvpwrvgnd_1
XTAP_TAPCELL_ROW_20_276 VSS VDD sky130_fd_sc_hd__tapvpwrvgnd_1
XTAP_TAPCELL_ROW_20_275 VSS VDD sky130_fd_sc_hd__tapvpwrvgnd_1
X_3841_ net209 dp.rf.rf\[14\]\[0\] VSS VSS VDD VDD _0217_
+ sky130_fd_sc_hd__nor2b_1
X_3842_ dp.rf.rf\[15\]\[0\] net209 _0148_ _0217_ VSS VSS VDD
+ VDD _0218_ sky130_fd_sc_hd__a211oi_1
XTAP_TAPCELL_ROW_20_274 VSS VDD sky130_fd_sc_hd__tapvpwrvgnd_1
XTAP_TAPCELL_ROW_20_273 VSS VDD sky130_fd_sc_hd__tapvpwrvgnd_1
X_3845_ _0115_ _0117_ _0148_ VSS VSS VDD VDD _0221_ sky130_fd_sc_hd__a21oi_4
XTAP_TAPCELL_ROW_19_272 VSS VDD sky130_fd_sc_hd__tapvpwrvgnd_1
X_3847_ net268 net209 _0176_ net269 _0221_ VSS VSS VDD VDD
+ _0223_ sky130_fd_sc_hd__a221oi_2
X_3848_ net8 VSS VSS VDD VDD _0224_ sky130_fd_sc_hd__clkinv_16
XTAP_TAPCELL_ROW_19_271 VSS VDD sky130_fd_sc_hd__tapvpwrvgnd_1
XTAP_TAPCELL_ROW_19_270 VSS VDD sky130_fd_sc_hd__tapvpwrvgnd_1
XTAP_TAPCELL_ROW_19_269 VSS VDD sky130_fd_sc_hd__tapvpwrvgnd_1
X_3852_ dp.rf.rf\[8\]\[0\] dp.rf.rf\[9\]\[0\] dp.rf.rf\[12\]\[0\]
+ dp.rf.rf\[13\]\[0\] net209 net206 VSS VSS VDD VDD _0228_ sky130_fd_sc_hd__mux4_1
X_3853_ net205 _0228_ net199 VSS VSS VDD VDD _0229_ sky130_fd_sc_hd__a21oi_1
X_3854_ _0212_ _0218_ _0223_ _0229_ VSS VSS VDD VDD _0230_
+ sky130_fd_sc_hd__o31ai_2
X_3855_ _0168_ _0195_ _0230_ _0211_ VSS VSS VDD VDD _3279_
+ sky130_fd_sc_hd__a22oi_4
X_3856_ net11 VSS VSS VDD VDD _0231_ sky130_fd_sc_hd__inv_6
X_3857_ _0115_ _0117_ _0231_ VSS VSS VDD VDD _0232_ sky130_fd_sc_hd__a21oi_4
X_3858_ _0119_ _0170_ dp.rf.rf\[24\]\[31\] VSS VSS VDD VDD
+ _0233_ sky130_fd_sc_hd__a21oi_1
XTAP_TAPCELL_ROW_19_268 VSS VDD sky130_fd_sc_hd__tapvpwrvgnd_1
XTAP_TAPCELL_ROW_19_267 VSS VDD sky130_fd_sc_hd__tapvpwrvgnd_1
XTAP_TAPCELL_ROW_19_266 VSS VDD sky130_fd_sc_hd__tapvpwrvgnd_1
X_3862_ dp.rf.rf\[26\]\[31\] dp.rf.rf\[27\]\[31\] net211 VSS
+ VSS VDD VDD _0237_ sky130_fd_sc_hd__mux2i_1
XTAP_TAPCELL_ROW_19_265 VSS VDD sky130_fd_sc_hd__tapvpwrvgnd_1
XTAP_TAPCELL_ROW_19_264 VSS VDD sky130_fd_sc_hd__tapvpwrvgnd_1
X_3865_ net8 _0237_ net207 VSS VSS VDD VDD _0240_ sky130_fd_sc_hd__a21oi_1
X_3866_ dp.rf.rf\[25\]\[31\] net8 net201 _0240_ VSS VSS VDD
+ VDD _0241_ sky130_fd_sc_hd__o31ai_1
X_3867_ dp.rf.rf\[28\]\[31\] dp.rf.rf\[29\]\[31\] dp.rf.rf\[30\]\[31\]
+ dp.rf.rf\[31\]\[31\] net211 net8 VSS VSS VDD VDD _0242_ sky130_fd_sc_hd__mux4_1
X_3868_ net207 _0242_ net198 VSS VSS VDD VDD _0243_ sky130_fd_sc_hd__a21oi_1
X_3869_ _0233_ _0241_ _0243_ VSS VSS VDD VDD _0244_ sky130_fd_sc_hd__o21ai_1
X_3870_ net211 VSS VSS VDD VDD _0245_ sky130_fd_sc_hd__clkinv_16
X_3871_ dp.rf.rf\[17\]\[31\] dp.rf.rf\[19\]\[31\] net8 VSS
+ VSS VDD VDD _0246_ sky130_fd_sc_hd__mux2_1
X_3872_ net211 net8 VSS VSS VDD VDD _0247_ sky130_fd_sc_hd__nand2b_4
X_3873_ _0245_ _0246_ _0247_ dp.rf.rf\[18\]\[31\] _0148_ VSS
+ VSS VDD VDD _0248_ sky130_fd_sc_hd__o221a_1
X_3874_ net196 _0248_ VSS VSS VDD VDD _0249_ sky130_fd_sc_hd__nor2_1
XTAP_TAPCELL_ROW_19_263 VSS VDD sky130_fd_sc_hd__tapvpwrvgnd_1
X_3876_ _0245_ net205 _0145_ VSS VSS VDD VDD _0251_ sky130_fd_sc_hd__nand3_1
X_3877_ _0119_ _0251_ dp.rf.rf\[16\]\[31\] VSS VSS VDD VDD
+ _0252_ sky130_fd_sc_hd__a21oi_1
X_3878_ dp.rf.rf\[20\]\[31\] dp.rf.rf\[21\]\[31\] dp.rf.rf\[22\]\[31\]
+ dp.rf.rf\[23\]\[31\] net211 net8 VSS VSS VDD VDD _0253_ sky130_fd_sc_hd__mux4_1
X_3879_ net190 _0253_ VSS VSS VDD VDD _0254_ sky130_fd_sc_hd__nand2_1
X_3880_ _0249_ _0252_ _0254_ VSS VSS VDD VDD _0255_ sky130_fd_sc_hd__o21ai_1
X_3881_ _0115_ _0117_ _0145_ VSS VSS VDD VDD _0256_ sky130_fd_sc_hd__a21oi_4
X_3882_ dp.rf.rf\[10\]\[31\] dp.rf.rf\[11\]\[31\] dp.rf.rf\[14\]\[31\]
+ dp.rf.rf\[15\]\[31\] net211 net207 VSS VSS VDD VDD _0257_
+ sky130_fd_sc_hd__mux4_1
XTAP_TAPCELL_ROW_19_262 VSS VDD sky130_fd_sc_hd__tapvpwrvgnd_1
X_3884_ dp.rf.rf\[8\]\[31\] dp.rf.rf\[9\]\[31\] dp.rf.rf\[12\]\[31\]
+ dp.rf.rf\[13\]\[31\] net211 net207 VSS VSS VDD VDD _0259_
+ sky130_fd_sc_hd__mux4_1
X_3885_ _0257_ _0259_ _0224_ VSS VSS VDD VDD _0260_ sky130_fd_sc_hd__mux2i_2
X_3886_ dp.rf.rf\[2\]\[31\] dp.rf.rf\[3\]\[31\] dp.rf.rf\[6\]\[31\]
+ dp.rf.rf\[7\]\[31\] net211 net207 VSS VSS VDD VDD _0261_ sky130_fd_sc_hd__mux4_1
X_3887_ dp.rf.rf\[4\]\[31\] VSS VSS VDD VDD _0262_ sky130_fd_sc_hd__inv_1
X_3888_ net211 net208 VSS VSS VDD VDD _0263_ sky130_fd_sc_hd__nor2b_4
XTAP_TAPCELL_ROW_19_261 VSS VDD sky130_fd_sc_hd__tapvpwrvgnd_1
XTAP_TAPCELL_ROW_19_260 VSS VDD sky130_fd_sc_hd__tapvpwrvgnd_1
X_3891_ dp.rf.rf\[1\]\[31\] dp.rf.rf\[5\]\[31\] net207 VSS
+ VSS VDD VDD _0266_ sky130_fd_sc_hd__mux2i_1
XTAP_TAPCELL_ROW_18_259 VSS VDD sky130_fd_sc_hd__tapvpwrvgnd_1
XTAP_TAPCELL_ROW_18_258 VSS VDD sky130_fd_sc_hd__tapvpwrvgnd_1
X_3894_ _0262_ net203 _0266_ net211 net8 VSS VSS VDD VDD _0269_
+ sky130_fd_sc_hd__a221oi_1
X_3895_ net8 _0261_ _0269_ net196 VSS VSS VDD VDD _0270_ sky130_fd_sc_hd__a211oi_1
X_3896_ net11 _0130_ _0208_ VSS VSS VDD VDD _0271_ sky130_fd_sc_hd__or3_4
XTAP_TAPCELL_ROW_18_257 VSS VDD sky130_fd_sc_hd__tapvpwrvgnd_1
X_3898_ net185 _0260_ _0270_ _0271_ VSS VSS VDD VDD _0273_
+ sky130_fd_sc_hd__a211oi_2
X_3899_ net187 _0244_ _0255_ _0273_ VSS VSS VDD VDD _0274_
+ sky130_fd_sc_hd__a31oi_4
XTAP_TAPCELL_ROW_18_256 VSS VDD sky130_fd_sc_hd__tapvpwrvgnd_1
XTAP_TAPCELL_ROW_18_255 VSS VDD sky130_fd_sc_hd__tapvpwrvgnd_1
XTAP_TAPCELL_ROW_18_254 VSS VDD sky130_fd_sc_hd__tapvpwrvgnd_1
XTAP_TAPCELL_ROW_18_253 VSS VDD sky130_fd_sc_hd__tapvpwrvgnd_1
XTAP_TAPCELL_ROW_18_252 VSS VDD sky130_fd_sc_hd__tapvpwrvgnd_1
XTAP_TAPCELL_ROW_18_251 VSS VDD sky130_fd_sc_hd__tapvpwrvgnd_1
X_3906_ dp.rf.rf\[24\]\[31\] dp.rf.rf\[25\]\[31\] dp.rf.rf\[26\]\[31\]
+ dp.rf.rf\[27\]\[31\] net213 net274 VSS VSS VDD VDD _0280_
+ sky130_fd_sc_hd__mux4_1
X_3907_ dp.rf.rf\[16\]\[31\] dp.rf.rf\[17\]\[31\] dp.rf.rf\[18\]\[31\]
+ dp.rf.rf\[19\]\[31\] net212 net274 VSS VSS VDD VDD _0281_
+ sky130_fd_sc_hd__mux4_1
X_3908_ dp.rf.rf\[28\]\[31\] dp.rf.rf\[29\]\[31\] dp.rf.rf\[30\]\[31\]
+ dp.rf.rf\[31\]\[31\] net213 net274 VSS VSS VDD VDD _0282_
+ sky130_fd_sc_hd__mux4_1
XTAP_TAPCELL_ROW_18_250 VSS VDD sky130_fd_sc_hd__tapvpwrvgnd_1
X_3910_ dp.rf.rf\[20\]\[31\] dp.rf.rf\[21\]\[31\] dp.rf.rf\[22\]\[31\]
+ dp.rf.rf\[23\]\[31\] net213 net274 VSS VSS VDD VDD _0284_
+ sky130_fd_sc_hd__mux4_1
X_3911_ _0280_ _0281_ _0282_ _0284_ _0103_ net15 VSS VSS VDD
+ VDD _0285_ sky130_fd_sc_hd__mux4_1
X_3912_ net15 VSS VSS VDD VDD _0286_ sky130_fd_sc_hd__clkinv_16
XTAP_TAPCELL_ROW_18_249 VSS VDD sky130_fd_sc_hd__tapvpwrvgnd_1
XTAP_TAPCELL_ROW_18_248 VSS VDD sky130_fd_sc_hd__tapvpwrvgnd_1
X_3915_ net274 net212 net16 VSS VSS VDD VDD _0289_ sky130_fd_sc_hd__nor3_4
X_3916_ _0286_ _0289_ net17 VSS VSS VDD VDD _0290_ sky130_fd_sc_hd__a21oi_4
X_3917_ dp.rf.rf\[8\]\[31\] dp.rf.rf\[9\]\[31\] dp.rf.rf\[10\]\[31\]
+ dp.rf.rf\[11\]\[31\] net213 net274 VSS VSS VDD VDD _0291_
+ sky130_fd_sc_hd__mux4_1
X_3918_ dp.rf.rf\[0\]\[31\] dp.rf.rf\[1\]\[31\] dp.rf.rf\[2\]\[31\]
+ dp.rf.rf\[3\]\[31\] net213 net274 VSS VSS VDD VDD _0292_ sky130_fd_sc_hd__mux4_1
X_3919_ dp.rf.rf\[12\]\[31\] dp.rf.rf\[13\]\[31\] dp.rf.rf\[14\]\[31\]
+ dp.rf.rf\[15\]\[31\] net213 net274 VSS VSS VDD VDD _0293_
+ sky130_fd_sc_hd__mux4_1
X_3920_ dp.rf.rf\[4\]\[31\] dp.rf.rf\[5\]\[31\] dp.rf.rf\[6\]\[31\]
+ dp.rf.rf\[7\]\[31\] net213 net274 VSS VSS VDD VDD _0294_ sky130_fd_sc_hd__mux4_1
XTAP_TAPCELL_ROW_18_247 VSS VDD sky130_fd_sc_hd__tapvpwrvgnd_1
XTAP_TAPCELL_ROW_17_246 VSS VDD sky130_fd_sc_hd__tapvpwrvgnd_1
X_3923_ _0291_ _0292_ _0293_ _0294_ _0103_ net15 VSS VSS VDD
+ VDD _0297_ sky130_fd_sc_hd__mux4_2
X_3924_ net17 _0285_ _0290_ _0297_ VSS VSS VDD VDD _0298_
+ sky130_fd_sc_hd__a22oi_4
X_3925_ net179 _0298_ VSS VSS VDD VDD _0299_ sky130_fd_sc_hd__nand2_1
X_3926_ net25 net179 _0299_ VSS VSS VDD VDD _0300_ sky130_fd_sc_hd__o21ai_1
X_3927_ _0122_ _0300_ VSS VSS VDD VDD _3283_ sky130_fd_sc_hd__xor2_1
X_3928_ _3283_ VSS VSS VDD VDD _3287_ sky130_fd_sc_hd__inv_1
XTAP_TAPCELL_ROW_17_245 VSS VDD sky130_fd_sc_hd__tapvpwrvgnd_1
XTAP_TAPCELL_ROW_17_244 VSS VDD sky130_fd_sc_hd__tapvpwrvgnd_1
XTAP_TAPCELL_ROW_17_243 VSS VDD sky130_fd_sc_hd__tapvpwrvgnd_1
X_3932_ net25 _0119_ VSS VSS VDD VDD _0304_ sky130_fd_sc_hd__nand2_4
XTAP_TAPCELL_ROW_17_242 VSS VDD sky130_fd_sc_hd__tapvpwrvgnd_1
XTAP_TAPCELL_ROW_17_241 VSS VDD sky130_fd_sc_hd__tapvpwrvgnd_1
XTAP_TAPCELL_ROW_17_240 VSS VDD sky130_fd_sc_hd__tapvpwrvgnd_1
XTAP_TAPCELL_ROW_17_239 VSS VDD sky130_fd_sc_hd__tapvpwrvgnd_1
X_3937_ net24 _0130_ VSS VSS VDD VDD _0309_ sky130_fd_sc_hd__nand2_1
X_3938_ _0304_ _0309_ VSS VSS VDD VDD _3649_ sky130_fd_sc_hd__nand2_1
XTAP_TAPCELL_ROW_17_238 VSS VDD sky130_fd_sc_hd__tapvpwrvgnd_1
X_3940_ _0046_ _0289_ VSS VSS VDD VDD _0311_ sky130_fd_sc_hd__nand2_8
XTAP_TAPCELL_ROW_17_237 VSS VDD sky130_fd_sc_hd__tapvpwrvgnd_1
X_3942_ dp.rf.rf\[24\]\[30\] dp.rf.rf\[25\]\[30\] dp.rf.rf\[26\]\[30\]
+ dp.rf.rf\[27\]\[30\] net212 net274 VSS VSS VDD VDD _0313_
+ sky130_fd_sc_hd__mux4_1
X_3943_ dp.rf.rf\[16\]\[30\] dp.rf.rf\[17\]\[30\] dp.rf.rf\[18\]\[30\]
+ dp.rf.rf\[19\]\[30\] net212 net274 VSS VSS VDD VDD _0314_
+ sky130_fd_sc_hd__mux4_1
X_3944_ dp.rf.rf\[28\]\[30\] dp.rf.rf\[29\]\[30\] dp.rf.rf\[30\]\[30\]
+ dp.rf.rf\[31\]\[30\] net212 net274 VSS VSS VDD VDD _0315_
+ sky130_fd_sc_hd__mux4_1
X_3945_ dp.rf.rf\[20\]\[30\] dp.rf.rf\[21\]\[30\] dp.rf.rf\[22\]\[30\]
+ dp.rf.rf\[23\]\[30\] net212 net274 VSS VSS VDD VDD _0316_
+ sky130_fd_sc_hd__mux4_1
X_3946_ _0313_ _0314_ _0315_ _0316_ _0103_ net15 VSS VSS VDD
+ VDD _0317_ sky130_fd_sc_hd__mux4_1
X_3947_ dp.rf.rf\[8\]\[30\] dp.rf.rf\[9\]\[30\] dp.rf.rf\[10\]\[30\]
+ dp.rf.rf\[11\]\[30\] net213 net274 VSS VSS VDD VDD _0318_
+ sky130_fd_sc_hd__mux4_1
X_3948_ dp.rf.rf\[0\]\[30\] dp.rf.rf\[1\]\[30\] dp.rf.rf\[2\]\[30\]
+ dp.rf.rf\[3\]\[30\] net213 net274 VSS VSS VDD VDD _0319_ sky130_fd_sc_hd__mux4_1
X_3949_ dp.rf.rf\[12\]\[30\] dp.rf.rf\[13\]\[30\] dp.rf.rf\[14\]\[30\]
+ dp.rf.rf\[15\]\[30\] net213 net274 VSS VSS VDD VDD _0320_
+ sky130_fd_sc_hd__mux4_1
X_3950_ dp.rf.rf\[4\]\[30\] dp.rf.rf\[5\]\[30\] dp.rf.rf\[6\]\[30\]
+ dp.rf.rf\[7\]\[30\] net213 net274 VSS VSS VDD VDD _0321_ sky130_fd_sc_hd__mux4_1
X_3951_ _0318_ _0319_ _0320_ _0321_ _0103_ net15 VSS VSS VDD
+ VDD _0322_ sky130_fd_sc_hd__mux4_1
X_3952_ _0317_ _0322_ _0086_ VSS VSS VDD VDD _0323_ sky130_fd_sc_hd__mux2_1
X_3953_ _0311_ _0323_ VSS VSS VDD VDD _0324_ sky130_fd_sc_hd__nand2_4
X_3954_ _0138_ _0324_ VSS VSS VDD VDD _0325_ sky130_fd_sc_hd__nor2_1
X_3955_ _0138_ _3649_ _0325_ VSS VSS VDD VDD _0326_ sky130_fd_sc_hd__a21oi_1
X_3956_ _0122_ _0326_ VSS VSS VDD VDD _3292_ sky130_fd_sc_hd__xor2_1
X_3957_ _3292_ VSS VSS VDD VDD _3296_ sky130_fd_sc_hd__inv_1
XTAP_TAPCELL_ROW_17_236 VSS VDD sky130_fd_sc_hd__tapvpwrvgnd_1
XTAP_TAPCELL_ROW_17_235 VSS VDD sky130_fd_sc_hd__tapvpwrvgnd_1
XTAP_TAPCELL_ROW_17_234 VSS VDD sky130_fd_sc_hd__tapvpwrvgnd_1
X_3961_ dp.rf.rf\[10\]\[30\] dp.rf.rf\[11\]\[30\] dp.rf.rf\[14\]\[30\]
+ dp.rf.rf\[15\]\[30\] net209 net207 VSS VSS VDD VDD _0330_
+ sky130_fd_sc_hd__mux4_1
X_3962_ net8 _0330_ VSS VSS VDD VDD _0331_ sky130_fd_sc_hd__nand2_1
X_3963_ dp.rf.rf\[8\]\[30\] dp.rf.rf\[9\]\[30\] dp.rf.rf\[12\]\[30\]
+ dp.rf.rf\[13\]\[30\] net209 net207 VSS VSS VDD VDD _0332_
+ sky130_fd_sc_hd__mux4_1
X_3964_ net205 _0332_ VSS VSS VDD VDD _0333_ sky130_fd_sc_hd__nand2_1
X_3965_ net185 _0331_ _0333_ VSS VSS VDD VDD _0334_ sky130_fd_sc_hd__nand3_2
XTAP_TAPCELL_ROW_16_233 VSS VDD sky130_fd_sc_hd__tapvpwrvgnd_1
X_3967_ dp.rf.rf\[6\]\[30\] dp.rf.rf\[7\]\[30\] net209 VSS
+ VSS VDD VDD _0336_ sky130_fd_sc_hd__mux2_1
X_3968_ _0115_ _0117_ net205 VSS VSS VDD VDD _0337_ sky130_fd_sc_hd__a21oi_4
XTAP_TAPCELL_ROW_16_232 VSS VDD sky130_fd_sc_hd__tapvpwrvgnd_1
X_3970_ _0148_ _0336_ net182 VSS VSS VDD VDD _0339_ sky130_fd_sc_hd__o21ai_0
X_3971_ dp.rf.rf\[3\]\[30\] net209 net201 dp.rf.rf\[2\]\[30\]
+ net190 VSS VSS VDD VDD _0340_ sky130_fd_sc_hd__a221oi_1
XTAP_TAPCELL_ROW_16_231 VSS VDD sky130_fd_sc_hd__tapvpwrvgnd_1
X_3973_ dp.rf.rf\[4\]\[30\] VSS VSS VDD VDD _0342_ sky130_fd_sc_hd__inv_1
XTAP_TAPCELL_ROW_16_230 VSS VDD sky130_fd_sc_hd__tapvpwrvgnd_1
X_3975_ dp.rf.rf\[1\]\[30\] dp.rf.rf\[5\]\[30\] net207 VSS
+ VSS VDD VDD _0344_ sky130_fd_sc_hd__mux2i_1
XTAP_TAPCELL_ROW_16_229 VSS VDD sky130_fd_sc_hd__tapvpwrvgnd_1
X_3977_ _0342_ net203 _0344_ net209 net8 VSS VSS VDD VDD _0346_
+ sky130_fd_sc_hd__a221oi_1
X_3978_ net210 net208 VSS VSS VDD VDD _0347_ sky130_fd_sc_hd__nor2_2
X_3979_ _0115_ _0117_ _0347_ _0145_ VSS VSS VDD VDD _0348_
+ sky130_fd_sc_hd__a22oi_4
XTAP_TAPCELL_ROW_16_228 VSS VDD sky130_fd_sc_hd__tapvpwrvgnd_1
X_3981_ net196 _0346_ net181 dp.rf.rf\[0\]\[30\] VSS VSS VDD
+ VDD _0350_ sky130_fd_sc_hd__o22ai_1
X_3982_ _0339_ _0340_ _0350_ VSS VSS VDD VDD _0351_ sky130_fd_sc_hd__o21ai_2
XTAP_TAPCELL_ROW_16_227 VSS VDD sky130_fd_sc_hd__tapvpwrvgnd_1
X_3984_ dp.rf.rf\[26\]\[30\] dp.rf.rf\[27\]\[30\] dp.rf.rf\[30\]\[30\]
+ dp.rf.rf\[31\]\[30\] net209 net206 VSS VSS VDD VDD _0353_
+ sky130_fd_sc_hd__mux4_1
X_3985_ net8 _0353_ VSS VSS VDD VDD _0354_ sky130_fd_sc_hd__nand2_1
X_3986_ dp.rf.rf\[24\]\[30\] dp.rf.rf\[25\]\[30\] dp.rf.rf\[28\]\[30\]
+ dp.rf.rf\[29\]\[30\] net209 net206 VSS VSS VDD VDD _0355_
+ sky130_fd_sc_hd__mux4_1
X_3987_ net205 _0355_ VSS VSS VDD VDD _0356_ sky130_fd_sc_hd__nand2_1
X_3988_ net10 _0354_ _0356_ _0166_ VSS VSS VDD VDD _0357_
+ sky130_fd_sc_hd__a31oi_2
X_3989_ dp.rf.rf\[22\]\[30\] dp.rf.rf\[23\]\[30\] net209 VSS
+ VSS VDD VDD _0358_ sky130_fd_sc_hd__mux2_1
XTAP_TAPCELL_ROW_16_226 VSS VDD sky130_fd_sc_hd__tapvpwrvgnd_1
X_3991_ _0148_ _0358_ net182 VSS VSS VDD VDD _0360_ sky130_fd_sc_hd__o21ai_0
XTAP_TAPCELL_ROW_16_225 VSS VDD sky130_fd_sc_hd__tapvpwrvgnd_1
XTAP_TAPCELL_ROW_16_224 VSS VDD sky130_fd_sc_hd__tapvpwrvgnd_1
XTAP_TAPCELL_ROW_16_223 VSS VDD sky130_fd_sc_hd__tapvpwrvgnd_1
X_3995_ dp.rf.rf\[19\]\[30\] net209 net201 dp.rf.rf\[18\]\[30\]
+ net190 VSS VSS VDD VDD _0364_ sky130_fd_sc_hd__a221oi_1
XTAP_TAPCELL_ROW_16_222 VSS VDD sky130_fd_sc_hd__tapvpwrvgnd_1
X_3997_ dp.rf.rf\[20\]\[30\] VSS VSS VDD VDD _0366_ sky130_fd_sc_hd__inv_1
X_3998_ dp.rf.rf\[17\]\[30\] dp.rf.rf\[21\]\[30\] net206 VSS
+ VSS VDD VDD _0367_ sky130_fd_sc_hd__mux2i_1
X_3999_ _0366_ net203 _0367_ net209 net8 VSS VSS VDD VDD _0368_
+ sky130_fd_sc_hd__a221oi_1
X_4000_ dp.rf.rf\[16\]\[30\] net181 _0368_ net196 VSS VSS
+ VDD VDD _0369_ sky130_fd_sc_hd__o22ai_1
X_4001_ _0360_ _0364_ _0369_ VSS VSS VDD VDD _0370_ sky130_fd_sc_hd__o21ai_1
X_4002_ net194 _0334_ _0351_ _0357_ _0370_ VSS VSS VDD VDD
+ _0371_ sky130_fd_sc_hd__a32oi_4
XTAP_TAPCELL_ROW_16_221 VSS VDD sky130_fd_sc_hd__tapvpwrvgnd_1