
* cell gray_counter
* pin binary_out[1]
* pin direction
* pin binary_out[2]
* pin binary_out[3]
* pin binary_out[0]
* pin gray_out[3]
* pin data_in[2]
* pin data_in[0]
* pin data_in[3]
* pin data_in[1]
* pin gray_out[2]
* pin clk
* pin enable
* pin rst_n
* pin load
* pin gray_out[0]
* pin gray_out[1]
* pin NWELL
* pin PWELL,gf180mcu_gnd
.SUBCKT gray_counter 1 2 3 16 36 42 50 52 59 61 67 69 70 76 78 79 80 81 82
* net 1 binary_out[1]
* net 2 direction
* net 3 binary_out[2]
* net 16 binary_out[3]
* net 36 binary_out[0]
* net 42 gray_out[3]
* net 50 data_in[2]
* net 52 data_in[0]
* net 59 data_in[3]
* net 61 data_in[1]
* net 67 gray_out[2]
* net 69 clk
* net 70 enable
* net 76 rst_n
* net 78 load
* net 79 gray_out[0]
* net 80 gray_out[1]
* net 81 NWELL
* net 82 PWELL,gf180mcu_gnd
* cell instance $3 r0 *1 84.56,5.04
X$3 4 81 82 1 gf180mcu_fd_sc_mcu9t5v0__dlyb_2
* cell instance $6 m0 *1 96.32,15.12
X$6 82 81 2 6 gf180mcu_fd_sc_mcu9t5v0__clkbuf_3
* cell instance $11 r0 *1 112,5.04
X$11 5 81 82 3 gf180mcu_fd_sc_mcu9t5v0__dlyb_2
* cell instance $14 r0 *1 81.76,95.76
X$14 82 17 25 4 6 12 81 gf180mcu_fd_sc_mcu9t5v0__addf_2
* cell instance $16 m0 *1 81.76,105.84
X$16 82 81 24 25 32 4 gf180mcu_fd_sc_mcu9t5v0__mux2_2
* cell instance $19 r0 *1 91.28,85.68
X$19 8 82 81 4 6 11 gf180mcu_fd_sc_mcu9t5v0__addh_1
* cell instance $26 r0 *1 71.68,105.84
X$26 82 35 4 30 31 81 gf180mcu_fd_sc_mcu9t5v0__dffrnq_2
* cell instance $28 m0 *1 111.44,85.68
X$28 82 7 9 5 6 81 gf180mcu_fd_sc_mcu9t5v0__addh_2
* cell instance $31 r0 *1 108.64,105.84
X$31 82 81 33 34 32 5 gf180mcu_fd_sc_mcu9t5v0__mux2_2
* cell instance $33 m0 *1 100.24,115.92
X$33 82 35 5 30 38 81 gf180mcu_fd_sc_mcu9t5v0__dffrnq_2
* cell instance $38 r0 *1 110.32,85.68
X$38 82 10 6 21 13 7 81 gf180mcu_fd_sc_mcu9t5v0__oai31_4
* cell instance $47 m0 *1 113.12,95.76
X$47 6 7 13 10 81 82 14 gf180mcu_fd_sc_mcu9t5v0__or4_2
* cell instance $55 r0 *1 101.92,85.68
X$55 81 9 8 82 10 gf180mcu_fd_sc_mcu9t5v0__and2_2
* cell instance $61 m0 *1 100.8,95.76
X$61 17 81 9 11 82 13 gf180mcu_fd_sc_mcu9t5v0__and3_2
* cell instance $63 r0 *1 102.48,95.76
X$63 9 82 12 81 34 gf180mcu_fd_sc_mcu9t5v0__xor2_2
* cell instance $65 r0 *1 118.16,95.76
X$65 82 9 19 18 12 81 gf180mcu_fd_sc_mcu9t5v0__xnor3_2
* cell instance $93 r0 *1 138.32,95.76
X$93 14 21 22 23 20 81 82 gf180mcu_fd_sc_mcu9t5v0__aoi211_2
* cell instance $95 m0 *1 138.32,95.76
X$95 20 21 14 27 82 81 15 gf180mcu_fd_sc_mcu9t5v0__and4_2
* cell instance $98 r0 *1 132.72,105.84
X$98 21 14 27 18 82 81 48 gf180mcu_fd_sc_mcu9t5v0__and4_2
* cell instance $100 m0 *1 132.72,115.92
X$100 82 39 81 51 14 21 gf180mcu_fd_sc_mcu9t5v0__aoi21_2
* cell instance $106 m0 *1 142.8,105.84
X$106 23 82 15 28 81 29 gf180mcu_fd_sc_mcu9t5v0__or3_2
* cell instance $109 r0 *1 212.24,95.76
X$109 19 81 82 16 gf180mcu_fd_sc_mcu9t5v0__dlyb_2
* cell instance $111 r0 *1 78.96,115.92
X$111 81 17 25 82 46 gf180mcu_fd_sc_mcu9t5v0__xnor2_2
* cell instance $113 m0 *1 57.12,115.92
X$113 32 82 17 81 37 gf180mcu_fd_sc_mcu9t5v0__xor2_2
* cell instance $121 m0 *1 18.48,115.92
X$121 17 81 82 36 gf180mcu_fd_sc_mcu9t5v0__dlyb_2
* cell instance $126 r0 *1 59.92,115.92
X$126 82 35 17 30 44 81 gf180mcu_fd_sc_mcu9t5v0__dffrnq_2
* cell instance $132 r0 *1 126,105.84
X$132 22 82 26 18 81 39 gf180mcu_fd_sc_mcu9t5v0__or3_2
* cell instance $135 m0 *1 146.72,115.92
X$135 82 19 81 40 43 49 22 gf180mcu_fd_sc_mcu9t5v0__aoi22_2
* cell instance $137 r0 *1 134.96,95.76
X$137 82 81 19 20 gf180mcu_fd_sc_mcu9t5v0__clkinv_2
* cell instance $147 r0 *1 147.84,105.84
X$147 82 35 19 57 29 81 gf180mcu_fd_sc_mcu9t5v0__dffrnq_2
* cell instance $150 m0 *1 207.2,115.92
X$150 19 81 82 41 gf180mcu_fd_sc_mcu9t5v0__dlyb_2
* cell instance $167 r0 *1 103.04,115.92
X$167 82 81 38 47 22 33 gf180mcu_fd_sc_mcu9t5v0__mux2_2
* cell instance $170 m0 *1 126.56,136.08
X$170 82 54 22 81 gf180mcu_fd_sc_mcu9t5v0__clkbuf_8
* cell instance $172 m0 *1 147.28,126
X$172 82 22 81 58 68 40 66 gf180mcu_fd_sc_mcu9t5v0__aoi22_2
* cell instance $186 m0 *1 128.8,105.84
X$186 82 81 27 22 26 gf180mcu_fd_sc_mcu9t5v0__nor2_2
* cell instance $190 m0 *1 103.6,136.08
X$190 82 81 73 72 22 74 gf180mcu_fd_sc_mcu9t5v0__mux2_2
* cell instance $193 r0 *1 70.56,126
X$193 82 81 62 63 22 64 gf180mcu_fd_sc_mcu9t5v0__mux2_2
* cell instance $196 m0 *1 58.24,126
X$196 82 81 44 53 22 37 gf180mcu_fd_sc_mcu9t5v0__mux2_2
* cell instance $198 m0 *1 75.04,115.92
X$198 82 81 31 45 22 24 gf180mcu_fd_sc_mcu9t5v0__mux2_2
* cell instance $204 m0 *1 103.04,126
X$204 25 82 34 81 65 gf180mcu_fd_sc_mcu9t5v0__xor2_2
* cell instance $213 m0 *1 125.44,105.84
X$213 82 81 32 26 gf180mcu_fd_sc_mcu9t5v0__clkinv_2
* cell instance $223 m0 *1 150.64,105.84
X$223 82 81 43 28 gf180mcu_fd_sc_mcu9t5v0__clkinv_2
* cell instance $234 m0 *1 70.56,136.08
X$234 82 35 71 30 62 81 gf180mcu_fd_sc_mcu9t5v0__dffrnq_2
* cell instance $241 m0 *1 83.44,126
X$241 82 81 60 30 gf180mcu_fd_sc_mcu9t5v0__clkbuf_4
* cell instance $247 m0 *1 26.88,136.08
X$247 82 81 70 32 gf180mcu_fd_sc_mcu9t5v0__buf_4
* cell instance $250 m0 *1 127.68,126
X$250 82 81 40 54 32 gf180mcu_fd_sc_mcu9t5v0__nor2_2
* cell instance $262 r0 *1 108.08,126
X$262 82 81 74 65 32 75 gf180mcu_fd_sc_mcu9t5v0__mux2_2
* cell instance $264 r0 *1 80.64,126
X$264 82 81 64 46 32 71 gf180mcu_fd_sc_mcu9t5v0__mux2_2
* cell instance $287 r0 *1 5.04,136.08
X$287 77 81 82 35 gf180mcu_fd_sc_mcu9t5v0__buf_3
* cell instance $290 r0 *1 103.6,136.08
X$290 82 35 75 57 73 81 gf180mcu_fd_sc_mcu9t5v0__dffrnq_2
* cell instance $292 r0 *1 143.92,126
X$292 82 35 66 57 56 81 gf180mcu_fd_sc_mcu9t5v0__dffrnq_2
* cell instance $312 r0 *1 212.24,115.92
X$312 41 81 82 42 gf180mcu_fd_sc_mcu9t5v0__dlyb_2
* cell instance $321 m0 *1 66.64,126
X$321 53 82 45 81 63 gf180mcu_fd_sc_mcu9t5v0__xor2_2
* cell instance $323 m0 *1 93.52,126
X$323 45 82 47 81 72 gf180mcu_fd_sc_mcu9t5v0__xor2_2
* cell instance $328 m0 *1 17.92,126
X$328 61 81 82 45 gf180mcu_fd_sc_mcu9t5v0__clkbuf_2
* cell instance $335 r0 *1 148.96,115.92
X$335 47 82 49 81 58 gf180mcu_fd_sc_mcu9t5v0__xor2_2
* cell instance $342 r0 *1 204.4,115.92
X$342 50 81 82 47 gf180mcu_fd_sc_mcu9t5v0__clkbuf_2
* cell instance $347 r0 *1 141.68,115.92
X$347 48 82 51 55 81 56 gf180mcu_fd_sc_mcu9t5v0__or3_2
* cell instance $354 r0 *1 191.52,115.92
X$354 59 81 82 49 gf180mcu_fd_sc_mcu9t5v0__dlyb_2
* cell instance $362 m0 *1 24.08,126
X$362 52 81 82 53 gf180mcu_fd_sc_mcu9t5v0__dlyb_2
* cell instance $372 r0 *1 128.8,216.72
X$372 78 81 82 54 gf180mcu_fd_sc_mcu9t5v0__clkbuf_2
* cell instance $376 m0 *1 143.92,126
X$376 82 81 68 55 gf180mcu_fd_sc_mcu9t5v0__clkinv_2
* cell instance $382 r0 *1 126.56,126
X$382 82 81 57 gf180mcu_fd_sc_mcu9t5v0__clkinv_1
* cell instance $384 r0 *1 128.8,126
X$384 82 81 60 57 gf180mcu_fd_sc_mcu9t5v0__clkbuf_4
* cell instance $400 m0 *1 112.56,126
X$400 82 81 69 60 gf180mcu_fd_sc_mcu9t5v0__clkbuf_4
* cell instance $422 m0 *1 210,126
X$422 66 81 82 67 gf180mcu_fd_sc_mcu9t5v0__dlyb_2
* cell instance $437 r0 *1 85.68,216.72
X$437 71 81 82 79 gf180mcu_fd_sc_mcu9t5v0__dlyb_2
* cell instance $448 r0 *1 113.12,216.72
X$448 75 81 82 80 gf180mcu_fd_sc_mcu9t5v0__dlyb_2
* cell instance $454 m0 *1 2.8,146.16
X$454 82 77 76 81 gf180mcu_fd_sc_mcu9t5v0__dlyc_2
.ENDS gray_counter

* cell gf180mcu_fd_sc_mcu9t5v0__or4_2
* pin A1
* pin A2
* pin A3
* pin A4
* pin NWELL,VDD
* pin PWELL,VSS,gf180mcu_gnd
* pin Z
.SUBCKT gf180mcu_fd_sc_mcu9t5v0__or4_2 1 3 4 5 6 7 8
* net 1 A1
* net 3 A2
* net 4 A3
* net 5 A4
* net 6 NWELL,VDD
* net 7 PWELL,VSS,gf180mcu_gnd
* net 8 Z
* device instance $1 r0 *1 0.97,3.78 pmos_5p0
M$1 11 1 2 6 pmos_5p0 L=0.5U W=1.83U AS=0.8052P AD=0.52155P PS=4.54U PD=2.4U
* device instance $2 r0 *1 2.04,3.78 pmos_5p0
M$2 10 3 11 6 pmos_5p0 L=0.5U W=1.83U AS=0.52155P AD=0.5673P PS=2.4U PD=2.45U
* device instance $3 r0 *1 3.16,3.78 pmos_5p0
M$3 9 4 10 6 pmos_5p0 L=0.5U W=1.83U AS=0.5673P AD=0.5673P PS=2.45U PD=2.45U
* device instance $4 r0 *1 4.28,3.78 pmos_5p0
M$4 6 5 9 6 pmos_5p0 L=0.5U W=1.83U AS=0.5673P AD=0.732P PS=2.45U PD=2.63U
* device instance $5 r0 *1 5.58,3.78 pmos_5p0
M$5 8 2 6 6 pmos_5p0 L=0.5U W=3.66U AS=1.25355P AD=1.32675P PS=5.03U PD=6.94U
* device instance $7 r0 *1 0.92,0.74 nmos_5p0
M$7 2 1 7 7 nmos_5p0 L=0.6U W=0.79U AS=0.3476P AD=0.2054P PS=2.46U PD=1.31U
* device instance $8 r0 *1 2.04,0.74 nmos_5p0
M$8 7 3 2 7 nmos_5p0 L=0.6U W=0.79U AS=0.2054P AD=0.2054P PS=1.31U PD=1.31U
* device instance $9 r0 *1 3.16,0.74 nmos_5p0
M$9 2 4 7 7 nmos_5p0 L=0.6U W=0.79U AS=0.2054P AD=0.2054P PS=1.31U PD=1.31U
* device instance $10 r0 *1 4.28,0.74 nmos_5p0
M$10 7 5 2 7 nmos_5p0 L=0.6U W=0.79U AS=0.2054P AD=0.3825P PS=1.31U PD=2.02U
* device instance $11 r0 *1 5.58,1.005 nmos_5p0
M$11 8 2 7 7 nmos_5p0 L=0.6U W=2.64U AS=0.7257P AD=0.924P PS=3.86U PD=5.36U
.ENDS gf180mcu_fd_sc_mcu9t5v0__or4_2

* cell gf180mcu_fd_sc_mcu9t5v0__xnor3_2
* pin PWELL,VSS,gf180mcu_gnd
* pin A2
* pin A1
* pin ZN
* pin A3
* pin NWELL,VDD
.SUBCKT gf180mcu_fd_sc_mcu9t5v0__xnor3_2 1 3 4 8 11 12
* net 1 PWELL,VSS,gf180mcu_gnd
* net 3 A2
* net 4 A1
* net 8 ZN
* net 11 A3
* net 12 NWELL,VDD
* device instance $1 r0 *1 13.64,3.78 pmos_5p0
M$1 12 7 8 12 pmos_5p0 L=0.5U W=3.66U AS=1.3725P AD=1.3725P PS=6.99U PD=6.99U
* device instance $3 r0 *1 1.09,3.772 pmos_5p0
M$3 15 3 2 12 pmos_5p0 L=0.5U W=0.495U AS=0.2178P AD=0.15345P PS=1.87U PD=1.115U
* device instance $4 r0 *1 2.21,3.772 pmos_5p0
M$4 15 4 12 12 pmos_5p0 L=0.5U W=0.495U AS=0.282P AD=0.15345P PS=1.715U
+ PD=1.115U
* device instance $5 r0 *1 3.51,3.967 pmos_5p0
M$5 13 2 12 12 pmos_5p0 L=0.5U W=0.915U AS=0.282P AD=0.2379P PS=1.715U PD=1.435U
* device instance $6 r0 *1 4.53,3.967 pmos_5p0
M$6 5 4 13 12 pmos_5p0 L=0.5U W=0.915U AS=0.2379P AD=0.2379P PS=1.435U PD=1.435U
* device instance $7 r0 *1 5.55,3.967 pmos_5p0
M$7 13 3 5 12 pmos_5p0 L=0.5U W=0.915U AS=0.2379P AD=0.4026P PS=1.435U PD=2.71U
* device instance $8 r0 *1 7.39,3.977 pmos_5p0
M$8 16 5 6 12 pmos_5p0 L=0.5U W=0.915U AS=0.4026P AD=0.2379P PS=2.71U PD=1.435U
* device instance $9 r0 *1 8.41,3.977 pmos_5p0
M$9 16 11 12 12 pmos_5p0 L=0.5U W=0.915U AS=0.571875P AD=0.2379P PS=2.68U
+ PD=1.435U
* device instance $10 r0 *1 9.76,3.78 pmos_5p0
M$10 14 6 12 12 pmos_5p0 L=0.5U W=1.83U AS=0.571875P AD=0.52155P PS=2.68U
+ PD=2.4U
* device instance $11 r0 *1 10.83,3.78 pmos_5p0
M$11 7 11 14 12 pmos_5p0 L=0.5U W=1.83U AS=0.52155P AD=0.4758P PS=2.4U PD=2.35U
* device instance $12 r0 *1 11.85,3.78 pmos_5p0
M$12 14 5 7 12 pmos_5p0 L=0.5U W=1.83U AS=0.4758P AD=0.8052P PS=2.35U PD=4.54U
* device instance $13 r0 *1 1.04,1.015 nmos_5p0
M$13 2 3 1 1 nmos_5p0 L=0.6U W=0.36U AS=0.1584P AD=0.0936P PS=1.6U PD=0.88U
* device instance $14 r0 *1 2.16,1.015 nmos_5p0
M$14 1 4 2 1 nmos_5p0 L=0.6U W=0.36U AS=0.0936P AD=0.186P PS=0.88U PD=1.36U
* device instance $15 r0 *1 3.46,1.165 nmos_5p0
M$15 5 2 1 1 nmos_5p0 L=0.6U W=0.66U AS=0.186P AD=0.1716P PS=1.36U PD=1.18U
* device instance $16 r0 *1 4.58,1.165 nmos_5p0
M$16 9 4 5 1 nmos_5p0 L=0.6U W=0.66U AS=0.1716P AD=0.1056P PS=1.18U PD=0.98U
* device instance $17 r0 *1 5.5,1.165 nmos_5p0
M$17 1 3 9 1 nmos_5p0 L=0.6U W=0.66U AS=0.1056P AD=0.2904P PS=0.98U PD=2.2U
* device instance $18 r0 *1 13.64,1.005 nmos_5p0
M$18 1 7 8 1 nmos_5p0 L=0.6U W=2.64U AS=0.924P AD=0.924P PS=5.36U PD=5.36U
* device instance $20 r0 *1 7.34,1.165 nmos_5p0
M$20 6 5 1 1 nmos_5p0 L=0.6U W=0.66U AS=0.2904P AD=0.1716P PS=2.2U PD=1.18U
* device instance $21 r0 *1 8.46,1.165 nmos_5p0
M$21 6 11 1 1 nmos_5p0 L=0.6U W=0.66U AS=0.363P AD=0.1716P PS=2.02U PD=1.18U
* device instance $22 r0 *1 9.76,1 nmos_5p0
M$22 7 6 1 1 nmos_5p0 L=0.6U W=1.32U AS=0.363P AD=0.3432P PS=2.02U PD=1.84U
* device instance $23 r0 *1 10.88,1 nmos_5p0
M$23 10 11 7 1 nmos_5p0 L=0.6U W=1.32U AS=0.3432P AD=0.2112P PS=1.84U PD=1.64U
* device instance $24 r0 *1 11.8,1 nmos_5p0
M$24 1 5 10 1 nmos_5p0 L=0.6U W=1.32U AS=0.2112P AD=0.5808P PS=1.64U PD=3.52U
.ENDS gf180mcu_fd_sc_mcu9t5v0__xnor3_2

* cell gf180mcu_fd_sc_mcu9t5v0__and4_2
* pin A1
* pin A2
* pin A3
* pin A4
* pin PWELL,VSS,gf180mcu_gnd
* pin NWELL,VDD
* pin Z
.SUBCKT gf180mcu_fd_sc_mcu9t5v0__and4_2 1 2 3 4 5 6 8
* net 1 A1
* net 2 A2
* net 3 A3
* net 4 A4
* net 5 PWELL,VSS,gf180mcu_gnd
* net 6 NWELL,VDD
* net 8 Z
* device instance $1 r0 *1 0.925,4.055 pmos_5p0
M$1 7 1 6 6 pmos_5p0 L=0.5U W=1.28U AS=0.5632P AD=0.3328P PS=3.44U PD=1.8U
* device instance $2 r0 *1 1.945,4.055 pmos_5p0
M$2 6 2 7 6 pmos_5p0 L=0.5U W=1.28U AS=0.3328P AD=0.3328P PS=1.8U PD=1.8U
* device instance $3 r0 *1 2.965,4.055 pmos_5p0
M$3 7 3 6 6 pmos_5p0 L=0.5U W=1.28U AS=0.3328P AD=0.3328P PS=1.8U PD=1.8U
* device instance $4 r0 *1 3.985,4.055 pmos_5p0
M$4 7 4 6 6 pmos_5p0 L=0.5U W=1.28U AS=0.558P AD=0.3328P PS=2.53U PD=1.8U
* device instance $5 r0 *1 5.185,3.78 pmos_5p0
M$5 8 7 6 6 pmos_5p0 L=0.5U W=3.66U AS=1.0338P AD=1.281P PS=4.88U PD=6.89U
* device instance $7 r0 *1 0.975,1.005 nmos_5p0
M$7 11 1 7 5 nmos_5p0 L=0.6U W=1.32U AS=0.5808P AD=0.2112P PS=3.52U PD=1.64U
* device instance $8 r0 *1 1.895,1.005 nmos_5p0
M$8 10 2 11 5 nmos_5p0 L=0.6U W=1.32U AS=0.2112P AD=0.2772P PS=1.64U PD=1.74U
* device instance $9 r0 *1 2.915,1.005 nmos_5p0
M$9 9 3 10 5 nmos_5p0 L=0.6U W=1.32U AS=0.2772P AD=0.2772P PS=1.74U PD=1.74U
* device instance $10 r0 *1 3.935,1.005 nmos_5p0
M$10 5 4 9 5 nmos_5p0 L=0.6U W=1.32U AS=0.2772P AD=0.3432P PS=1.74U PD=1.84U
* device instance $11 r0 *1 5.055,1.005 nmos_5p0
M$11 8 7 5 5 nmos_5p0 L=0.6U W=2.64U AS=0.6864P AD=0.924P PS=3.68U PD=5.36U
.ENDS gf180mcu_fd_sc_mcu9t5v0__and4_2

* cell gf180mcu_fd_sc_mcu9t5v0__aoi211_2
* pin A2
* pin A1
* pin B
* pin ZN
* pin C
* pin NWELL,VDD
* pin PWELL,VSS,gf180mcu_gnd
.SUBCKT gf180mcu_fd_sc_mcu9t5v0__aoi211_2 1 2 4 5 6 7 8
* net 1 A2
* net 2 A1
* net 4 B
* net 5 ZN
* net 6 C
* net 7 NWELL,VDD
* net 8 PWELL,VSS,gf180mcu_gnd
* device instance $1 r0 *1 0.87,3.78 pmos_5p0
M$1 5 1 3 7 pmos_5p0 L=0.5U W=3.66U AS=1.281P AD=1.3359P PS=6.89U PD=5.12U
* device instance $2 r0 *1 1.89,3.78 pmos_5p0
M$2 3 2 5 7 pmos_5p0 L=0.5U W=3.66U AS=0.9516P AD=0.9516P PS=4.7U PD=4.7U
* device instance $5 r0 *1 5.37,3.78 pmos_5p0
M$5 12 4 3 7 pmos_5p0 L=0.5U W=1.83U AS=0.8601P AD=0.2196P PS=2.77U PD=2.07U
* device instance $6 r0 *1 6.11,3.78 pmos_5p0
M$6 7 6 12 7 pmos_5p0 L=0.5U W=1.83U AS=0.2196P AD=0.549P PS=2.07U PD=2.43U
* device instance $7 r0 *1 7.21,3.78 pmos_5p0
M$7 11 6 7 7 pmos_5p0 L=0.5U W=1.83U AS=0.549P AD=0.4392P PS=2.43U PD=2.31U
* device instance $8 r0 *1 8.19,3.78 pmos_5p0
M$8 3 4 11 7 pmos_5p0 L=0.5U W=1.83U AS=0.4392P AD=0.8052P PS=2.31U PD=4.54U
* device instance $9 r0 *1 5.02,0.745 nmos_5p0
M$9 5 4 8 8 nmos_5p0 L=0.6U W=1.58U AS=0.5609P AD=0.553P PS=3.195U PD=3.77U
* device instance $10 r0 *1 6.14,0.745 nmos_5p0
M$10 8 6 5 8 nmos_5p0 L=0.6U W=1.58U AS=0.4108P AD=0.4108P PS=2.62U PD=2.62U
* device instance $13 r0 *1 0.92,0.942 nmos_5p0
M$13 10 1 8 8 nmos_5p0 L=0.6U W=1.185U AS=0.5214P AD=0.1422P PS=3.25U PD=1.425U
* device instance $14 r0 *1 1.76,0.942 nmos_5p0
M$14 5 2 10 8 nmos_5p0 L=0.6U W=1.185U AS=0.1422P AD=0.3081P PS=1.425U PD=1.705U
* device instance $15 r0 *1 2.88,0.942 nmos_5p0
M$15 9 2 5 8 nmos_5p0 L=0.6U W=1.185U AS=0.3081P AD=0.1422P PS=1.705U PD=1.425U
* device instance $16 r0 *1 3.72,0.942 nmos_5p0
M$16 8 1 9 8 nmos_5p0 L=0.6U W=1.185U AS=0.1422P AD=0.3555P PS=1.425U PD=1.885U
.ENDS gf180mcu_fd_sc_mcu9t5v0__aoi211_2

* cell gf180mcu_fd_sc_mcu9t5v0__clkbuf_3
* pin PWELL,VSS,gf180mcu_gnd
* pin NWELL,VDD
* pin I
* pin Z
.SUBCKT gf180mcu_fd_sc_mcu9t5v0__clkbuf_3 1 2 3 5
* net 1 PWELL,VSS,gf180mcu_gnd
* net 2 NWELL,VDD
* net 3 I
* net 5 Z
* device instance $1 r0 *1 0.87,3.552 pmos_5p0
M$1 4 3 2 2 pmos_5p0 L=0.5U W=2.75U AS=1.03125P AD=0.97625P PS=5.625U PD=4.17U
* device instance $3 r0 *1 3.29,3.552 pmos_5p0
M$3 5 4 2 2 pmos_5p0 L=0.5U W=5.5U AS=1.82875P AD=1.88375P PS=8.16U PD=9.615U
* device instance $7 r0 *1 0.92,1.34 nmos_5p0
M$7 4 3 1 1 nmos_5p0 L=0.6U W=1.1U AS=0.385P AD=0.3455P PS=3.05U PD=2.37U
* device instance $9 r0 *1 3.34,1.365 nmos_5p0
M$9 5 4 1 1 nmos_5p0 L=0.6U W=2.4U AS=0.6705P AD=0.732P PS=4.66U PD=5.44U
.ENDS gf180mcu_fd_sc_mcu9t5v0__clkbuf_3

* cell gf180mcu_fd_sc_mcu9t5v0__addh_1
* pin CO
* pin PWELL,VSS,gf180mcu_gnd
* pin NWELL,VDD
* pin A
* pin B
* pin S
.SUBCKT gf180mcu_fd_sc_mcu9t5v0__addh_1 1 2 3 4 5 9
* net 1 CO
* net 2 PWELL,VSS,gf180mcu_gnd
* net 3 NWELL,VDD
* net 4 A
* net 5 B
* net 9 S
* device instance $1 r0 *1 5.01,3.912 pmos_5p0
M$1 11 5 3 3 pmos_5p0 L=0.5U W=0.915U AS=0.4026P AD=0.2379P PS=2.71U PD=1.435U
* device instance $2 r0 *1 6.03,3.912 pmos_5p0
M$2 8 4 11 3 pmos_5p0 L=0.5U W=0.915U AS=0.2379P AD=0.3294P PS=1.435U PD=1.635U
* device instance $3 r0 *1 7.25,3.912 pmos_5p0
M$3 8 6 3 3 pmos_5p0 L=0.5U W=0.915U AS=0.50325P AD=0.3294P PS=2.53U PD=1.635U
* device instance $4 r0 *1 8.45,3.78 pmos_5p0
M$4 9 8 3 3 pmos_5p0 L=0.5U W=1.83U AS=0.50325P AD=0.8052P PS=2.53U PD=4.54U
* device instance $5 r0 *1 2.23,3.912 pmos_5p0
M$5 6 4 3 3 pmos_5p0 L=0.5U W=0.915U AS=0.5307P AD=0.2379P PS=2.59U PD=1.435U
* device instance $6 r0 *1 3.25,3.912 pmos_5p0
M$6 3 5 6 3 pmos_5p0 L=0.5U W=0.915U AS=0.2379P AD=0.4026P PS=1.435U PD=2.71U
* device instance $7 r0 *1 0.97,3.78 pmos_5p0
M$7 3 6 1 3 pmos_5p0 L=0.5U W=1.83U AS=0.8052P AD=0.5307P PS=4.54U PD=2.59U
* device instance $8 r0 *1 4.96,1.335 nmos_5p0
M$8 8 5 7 2 nmos_5p0 L=0.6U W=0.66U AS=0.2904P AD=0.1716P PS=2.2U PD=1.18U
* device instance $9 r0 *1 6.08,1.335 nmos_5p0
M$9 7 4 8 2 nmos_5p0 L=0.6U W=0.66U AS=0.1716P AD=0.1716P PS=1.18U PD=1.18U
* device instance $10 r0 *1 7.2,1.335 nmos_5p0
M$10 7 6 2 2 nmos_5p0 L=0.6U W=0.66U AS=0.363P AD=0.1716P PS=2.02U PD=1.18U
* device instance $11 r0 *1 8.5,1.005 nmos_5p0
M$11 9 8 2 2 nmos_5p0 L=0.6U W=1.32U AS=0.363P AD=0.5808P PS=2.02U PD=3.52U
* device instance $12 r0 *1 0.92,1.005 nmos_5p0
M$12 2 6 1 2 nmos_5p0 L=0.6U W=1.32U AS=0.5808P AD=0.3828P PS=3.52U PD=2.08U
* device instance $13 r0 *1 2.28,1.335 nmos_5p0
M$13 10 4 2 2 nmos_5p0 L=0.6U W=0.66U AS=0.3828P AD=0.0792P PS=2.08U PD=0.9U
* device instance $14 r0 *1 3.12,1.335 nmos_5p0
M$14 6 5 10 2 nmos_5p0 L=0.6U W=0.66U AS=0.0792P AD=0.2904P PS=0.9U PD=2.2U
.ENDS gf180mcu_fd_sc_mcu9t5v0__addh_1

* cell gf180mcu_fd_sc_mcu9t5v0__addf_2
* pin PWELL,VSS,gf180mcu_gnd
* pin A
* pin S
* pin B
* pin CI
* pin CO
* pin NWELL,VDD
.SUBCKT gf180mcu_fd_sc_mcu9t5v0__addf_2 1 2 3 5 6 10 14
* net 1 PWELL,VSS,gf180mcu_gnd
* net 2 A
* net 3 S
* net 5 B
* net 6 CI
* net 10 CO
* net 14 NWELL,VDD
* device instance $1 r0 *1 11.37,3.56 pmos_5p0
M$1 14 5 16 14 pmos_5p0 L=0.5U W=1.39U AS=0.6116P AD=0.4309P PS=3.66U PD=2.01U
* device instance $2 r0 *1 12.49,3.56 pmos_5p0
M$2 16 2 14 14 pmos_5p0 L=0.5U W=1.39U AS=0.4309P AD=0.5004P PS=2.01U PD=2.11U
* device instance $3 r0 *1 13.71,3.56 pmos_5p0
M$3 9 6 16 14 pmos_5p0 L=0.5U W=1.39U AS=0.5004P AD=0.4309P PS=2.11U PD=2.01U
* device instance $4 r0 *1 14.83,3.56 pmos_5p0
M$4 19 5 9 14 pmos_5p0 L=0.5U W=1.39U AS=0.4309P AD=0.1668P PS=2.01U PD=1.63U
* device instance $5 r0 *1 15.57,3.56 pmos_5p0
M$5 14 2 19 14 pmos_5p0 L=0.5U W=1.39U AS=0.1668P AD=0.5685P PS=1.63U PD=2.5U
* device instance $6 r0 *1 16.77,3.765 pmos_5p0
M$6 10 9 14 14 pmos_5p0 L=0.5U W=3.6U AS=1.0365P AD=1.26P PS=4.82U PD=6.8U
* device instance $8 r0 *1 3.57,3.56 pmos_5p0
M$8 18 2 14 14 pmos_5p0 L=0.5U W=1.39U AS=0.6601P AD=0.1668P PS=2.62U PD=1.63U
* device instance $9 r0 *1 4.31,3.56 pmos_5p0
M$9 17 5 18 14 pmos_5p0 L=0.5U W=1.39U AS=0.1668P AD=0.2363P PS=1.63U PD=1.73U
* device instance $10 r0 *1 5.15,3.56 pmos_5p0
M$10 4 6 17 14 pmos_5p0 L=0.5U W=1.39U AS=0.2363P AD=0.3614P PS=1.73U PD=1.91U
* device instance $11 r0 *1 6.17,3.56 pmos_5p0
M$11 15 9 4 14 pmos_5p0 L=0.5U W=1.39U AS=0.3614P AD=0.5004P PS=1.91U PD=2.11U
* device instance $12 r0 *1 7.39,3.56 pmos_5p0
M$12 14 2 15 14 pmos_5p0 L=0.5U W=1.39U AS=0.5004P AD=0.3614P PS=2.11U PD=1.91U
* device instance $13 r0 *1 8.41,3.56 pmos_5p0
M$13 15 5 14 14 pmos_5p0 L=0.5U W=1.39U AS=0.3614P AD=0.5004P PS=1.91U PD=2.11U
* device instance $14 r0 *1 9.63,3.56 pmos_5p0
M$14 14 6 15 14 pmos_5p0 L=0.5U W=1.39U AS=0.5004P AD=0.6116P PS=2.11U PD=3.66U
* device instance $15 r0 *1 1.23,3.765 pmos_5p0
M$15 3 4 14 14 pmos_5p0 L=0.5U W=3.6U AS=1.26P AD=1.1281P PS=6.8U PD=4.94U
* device instance $17 r0 *1 11.42,1.265 nmos_5p0
M$17 1 5 8 1 nmos_5p0 L=0.6U W=0.8U AS=0.352P AD=0.208P PS=2.48U PD=1.32U
* device instance $18 r0 *1 12.54,1.265 nmos_5p0
M$18 8 2 1 1 nmos_5p0 L=0.6U W=0.8U AS=0.208P AD=0.208P PS=1.32U PD=1.32U
* device instance $19 r0 *1 13.66,1.265 nmos_5p0
M$19 9 6 8 1 nmos_5p0 L=0.6U W=0.8U AS=0.208P AD=0.208P PS=1.32U PD=1.32U
* device instance $20 r0 *1 14.78,1.265 nmos_5p0
M$20 13 5 9 1 nmos_5p0 L=0.6U W=0.8U AS=0.208P AD=0.096P PS=1.32U PD=1.04U
* device instance $21 r0 *1 15.62,1.265 nmos_5p0
M$21 13 2 1 1 nmos_5p0 L=0.6U W=0.8U AS=0.3972P AD=0.096P PS=2.04U PD=1.04U
* device instance $22 r0 *1 16.94,1.005 nmos_5p0
M$22 10 9 1 1 nmos_5p0 L=0.6U W=2.64U AS=0.7404P AD=0.924P PS=3.88U PD=5.36U
* device instance $24 r0 *1 0.96,1.005 nmos_5p0
M$24 3 4 1 1 nmos_5p0 L=0.6U W=2.64U AS=0.924P AD=0.7536P PS=5.36U PD=3.9U
* device instance $26 r0 *1 3.42,1.265 nmos_5p0
M$26 11 2 1 1 nmos_5p0 L=0.6U W=0.8U AS=0.4104P AD=0.096P PS=2.06U PD=1.04U
* device instance $27 r0 *1 4.26,1.265 nmos_5p0
M$27 12 5 11 1 nmos_5p0 L=0.6U W=0.8U AS=0.096P AD=0.096P PS=1.04U PD=1.04U
* device instance $28 r0 *1 5.1,1.265 nmos_5p0
M$28 4 6 12 1 nmos_5p0 L=0.6U W=0.8U AS=0.096P AD=0.208P PS=1.04U PD=1.32U
* device instance $29 r0 *1 6.22,1.265 nmos_5p0
M$29 7 9 4 1 nmos_5p0 L=0.6U W=0.8U AS=0.208P AD=0.208P PS=1.32U PD=1.32U
* device instance $30 r0 *1 7.34,1.265 nmos_5p0
M$30 1 2 7 1 nmos_5p0 L=0.6U W=0.8U AS=0.208P AD=0.208P PS=1.32U PD=1.32U
* device instance $31 r0 *1 8.46,1.265 nmos_5p0
M$31 7 5 1 1 nmos_5p0 L=0.6U W=0.8U AS=0.208P AD=0.208P PS=1.32U PD=1.32U
* device instance $32 r0 *1 9.58,1.265 nmos_5p0
M$32 1 6 7 1 nmos_5p0 L=0.6U W=0.8U AS=0.208P AD=0.352P PS=1.32U PD=2.48U
.ENDS gf180mcu_fd_sc_mcu9t5v0__addf_2

* cell gf180mcu_fd_sc_mcu9t5v0__and2_2
* pin NWELL,VDD
* pin A1
* pin A2
* pin PWELL,VSS,gf180mcu_gnd
* pin Z
.SUBCKT gf180mcu_fd_sc_mcu9t5v0__and2_2 2 3 4 5 6
* net 2 NWELL,VDD
* net 3 A1
* net 4 A2
* net 5 PWELL,VSS,gf180mcu_gnd
* net 6 Z
* device instance $1 r0 *1 0.885,3.685 pmos_5p0
M$1 1 3 2 2 pmos_5p0 L=0.5U W=1.64U AS=0.7216P AD=0.4264P PS=4.16U PD=2.16U
* device instance $2 r0 *1 1.905,3.685 pmos_5p0
M$2 2 4 1 2 pmos_5p0 L=0.5U W=1.64U AS=0.4264P AD=0.6486P PS=2.16U PD=2.57U
* device instance $3 r0 *1 3.145,3.78 pmos_5p0
M$3 6 1 2 2 pmos_5p0 L=0.5U W=3.66U AS=1.1244P AD=1.281P PS=4.92U PD=6.89U
* device instance $5 r0 *1 0.935,1.005 nmos_5p0
M$5 7 3 1 5 nmos_5p0 L=0.6U W=1.32U AS=0.5808P AD=0.2112P PS=3.52U PD=1.64U
* device instance $6 r0 *1 1.855,1.005 nmos_5p0
M$6 5 4 7 5 nmos_5p0 L=0.6U W=1.32U AS=0.2112P AD=0.3432P PS=1.64U PD=1.84U
* device instance $7 r0 *1 2.975,1.005 nmos_5p0
M$7 6 1 5 5 nmos_5p0 L=0.6U W=2.64U AS=0.6864P AD=0.924P PS=3.68U PD=5.36U
.ENDS gf180mcu_fd_sc_mcu9t5v0__and2_2

* cell gf180mcu_fd_sc_mcu9t5v0__and3_2
* pin A1
* pin NWELL,VDD
* pin A2
* pin A3
* pin PWELL,VSS,gf180mcu_gnd
* pin Z
.SUBCKT gf180mcu_fd_sc_mcu9t5v0__and3_2 2 3 4 5 6 7
* net 2 A1
* net 3 NWELL,VDD
* net 4 A2
* net 5 A3
* net 6 PWELL,VSS,gf180mcu_gnd
* net 7 Z
* device instance $1 r0 *1 0.925,3.965 pmos_5p0
M$1 3 2 1 3 pmos_5p0 L=0.5U W=1.46U AS=0.6424P AD=0.3796P PS=3.8U PD=1.98U
* device instance $2 r0 *1 1.945,3.965 pmos_5p0
M$2 1 4 3 3 pmos_5p0 L=0.5U W=1.46U AS=0.3796P AD=0.3796P PS=1.98U PD=1.98U
* device instance $3 r0 *1 2.965,3.965 pmos_5p0
M$3 1 5 3 3 pmos_5p0 L=0.5U W=1.46U AS=0.585P AD=0.3796P PS=2.53U PD=1.98U
* device instance $4 r0 *1 4.165,3.78 pmos_5p0
M$4 7 1 3 3 pmos_5p0 L=0.5U W=3.66U AS=1.0608P AD=1.281P PS=4.88U PD=6.89U
* device instance $6 r0 *1 0.975,1.005 nmos_5p0
M$6 9 2 1 6 nmos_5p0 L=0.6U W=1.32U AS=0.5808P AD=0.2112P PS=3.52U PD=1.64U
* device instance $7 r0 *1 1.895,1.005 nmos_5p0
M$7 8 4 9 6 nmos_5p0 L=0.6U W=1.32U AS=0.2112P AD=0.2772P PS=1.64U PD=1.74U
* device instance $8 r0 *1 2.915,1.005 nmos_5p0
M$8 6 5 8 6 nmos_5p0 L=0.6U W=1.32U AS=0.2772P AD=0.3432P PS=1.74U PD=1.84U
* device instance $9 r0 *1 4.035,1.005 nmos_5p0
M$9 7 1 6 6 nmos_5p0 L=0.6U W=2.64U AS=0.6864P AD=0.924P PS=3.68U PD=5.36U
.ENDS gf180mcu_fd_sc_mcu9t5v0__and3_2

* cell gf180mcu_fd_sc_mcu9t5v0__xnor2_2
* pin NWELL,VDD
* pin A1
* pin A2
* pin PWELL,VSS,gf180mcu_gnd
* pin ZN
.SUBCKT gf180mcu_fd_sc_mcu9t5v0__xnor2_2 1 5 6 7 8
* net 1 NWELL,VDD
* net 5 A1
* net 6 A2
* net 7 PWELL,VSS,gf180mcu_gnd
* net 8 ZN
* device instance $1 r0 *1 0.97,3.327 pmos_5p0
M$1 10 6 2 1 pmos_5p0 L=0.5U W=0.915U AS=0.4026P AD=0.260775P PS=2.71U PD=1.485U
* device instance $2 r0 *1 2.04,3.327 pmos_5p0
M$2 1 5 10 1 pmos_5p0 L=0.5U W=0.915U AS=0.260775P AD=0.571875P PS=1.485U
+ PD=2.68U
* device instance $3 r0 *1 3.39,3.785 pmos_5p0
M$3 4 2 1 1 pmos_5p0 L=0.5U W=1.83U AS=0.571875P AD=0.4758P PS=2.68U PD=2.35U
* device instance $4 r0 *1 4.41,3.785 pmos_5p0
M$4 3 5 4 1 pmos_5p0 L=0.5U W=1.83U AS=0.4758P AD=0.4758P PS=2.35U PD=2.35U
* device instance $5 r0 *1 5.43,3.785 pmos_5p0
M$5 4 6 3 1 pmos_5p0 L=0.5U W=1.83U AS=0.4758P AD=0.8052P PS=2.35U PD=4.54U
* device instance $6 r0 *1 7.17,3.78 pmos_5p0
M$6 8 3 1 1 pmos_5p0 L=0.5U W=3.66U AS=1.3725P AD=1.3725P PS=6.99U PD=6.99U
* device instance $8 r0 *1 7.22,1.005 nmos_5p0
M$8 8 3 7 7 nmos_5p0 L=0.6U W=2.64U AS=0.924P AD=0.924P PS=5.36U PD=5.36U
* device instance $10 r0 *1 0.92,0.675 nmos_5p0
M$10 2 6 7 7 nmos_5p0 L=0.6U W=0.66U AS=0.2904P AD=0.1716P PS=2.2U PD=1.18U
* device instance $11 r0 *1 2.04,0.675 nmos_5p0
M$11 7 5 2 7 nmos_5p0 L=0.6U W=0.66U AS=0.1716P AD=0.363P PS=1.18U PD=2.02U
* device instance $12 r0 *1 3.34,1.005 nmos_5p0
M$12 3 2 7 7 nmos_5p0 L=0.6U W=1.32U AS=0.363P AD=0.3432P PS=2.02U PD=1.84U
* device instance $13 r0 *1 4.46,1.005 nmos_5p0
M$13 9 5 3 7 nmos_5p0 L=0.6U W=1.32U AS=0.3432P AD=0.2112P PS=1.84U PD=1.64U
* device instance $14 r0 *1 5.38,1.005 nmos_5p0
M$14 7 6 9 7 nmos_5p0 L=0.6U W=1.32U AS=0.2112P AD=0.5808P PS=1.64U PD=3.52U
.ENDS gf180mcu_fd_sc_mcu9t5v0__xnor2_2

* cell gf180mcu_fd_sc_mcu9t5v0__buf_4
* pin PWELL,VSS,gf180mcu_gnd
* pin NWELL,VDD
* pin I
* pin Z
.SUBCKT gf180mcu_fd_sc_mcu9t5v0__buf_4 1 2 3 5
* net 1 PWELL,VSS,gf180mcu_gnd
* net 2 NWELL,VDD
* net 3 I
* net 5 Z
* device instance $1 r0 *1 0.87,3.78 pmos_5p0
M$1 4 3 2 2 pmos_5p0 L=0.5U W=3.66U AS=1.3725P AD=1.1346P PS=6.99U PD=4.9U
* device instance $3 r0 *1 3.11,3.78 pmos_5p0
M$3 5 4 2 2 pmos_5p0 L=0.5U W=7.32U AS=2.2692P AD=2.5071P PS=9.8U PD=11.89U
* device instance $7 r0 *1 0.92,1.005 nmos_5p0
M$7 4 3 1 1 nmos_5p0 L=0.6U W=2.64U AS=0.924P AD=0.6864P PS=5.36U PD=3.68U
* device instance $9 r0 *1 3.16,1.005 nmos_5p0
M$9 5 4 1 1 nmos_5p0 L=0.6U W=5.28U AS=1.3728P AD=1.6104P PS=7.36U PD=9.04U
.ENDS gf180mcu_fd_sc_mcu9t5v0__buf_4

* cell gf180mcu_fd_sc_mcu9t5v0__dlyc_2
* pin PWELL,VSS,gf180mcu_gnd
* pin Z
* pin I
* pin NWELL,VDD
.SUBCKT gf180mcu_fd_sc_mcu9t5v0__dlyc_2 1 7 11 13
* net 1 PWELL,VSS,gf180mcu_gnd
* net 7 Z
* net 11 I
* net 13 NWELL,VDD
* device instance $1 r0 *1 8.34,3.365 pmos_5p0
M$1 6 5 17 13 pmos_5p0 L=0.5U W=0.36U AS=0.27P AD=0.1584P PS=1.98U PD=1.6U
* device instance $2 r0 *1 8.34,4.085 pmos_5p0
M$2 17 5 13 13 pmos_5p0 L=0.5U W=0.36U AS=0.528P AD=0.27P PS=3.13U PD=1.98U
* device instance $3 r0 *1 10.14,3.785 pmos_5p0
M$3 7 6 13 13 pmos_5p0 L=0.5U W=3.66U AS=1.14105P AD=1.41825P PS=5.63U PD=7.04U
* device instance $5 r0 *1 4.34,3.365 pmos_5p0
M$5 4 3 14 13 pmos_5p0 L=0.5U W=0.36U AS=0.27P AD=0.1584P PS=1.98U PD=1.6U
* device instance $6 r0 *1 6.18,3.365 pmos_5p0
M$6 16 4 5 13 pmos_5p0 L=0.5U W=0.36U AS=0.1584P AD=0.27P PS=1.6U PD=1.98U
* device instance $7 r0 *1 4.34,4.085 pmos_5p0
M$7 13 3 14 13 pmos_5p0 L=0.5U W=0.36U AS=0.27P AD=0.2412P PS=1.98U PD=1.7U
* device instance $8 r0 *1 6.18,4.085 pmos_5p0
M$8 13 4 16 13 pmos_5p0 L=0.5U W=0.36U AS=0.27P AD=0.2412P PS=1.98U PD=1.7U
* device instance $9 r0 *1 2.18,3.365 pmos_5p0
M$9 15 2 3 13 pmos_5p0 L=0.5U W=0.36U AS=0.1584P AD=0.27P PS=1.6U PD=1.98U
* device instance $10 r0 *1 0.87,4.085 pmos_5p0
M$10 13 11 2 13 pmos_5p0 L=0.5U W=0.36U AS=0.1584P AD=0.1458P PS=1.6U PD=1.17U
* device instance $11 r0 *1 2.18,4.085 pmos_5p0
M$11 13 2 15 13 pmos_5p0 L=0.5U W=0.36U AS=0.27P AD=0.1458P PS=1.98U PD=1.17U
* device instance $12 r0 *1 0.92,0.795 nmos_5p0
M$12 1 11 2 1 nmos_5p0 L=0.6U W=0.36U AS=0.1584P AD=0.1278P PS=1.6U PD=1.07U
* device instance $13 r0 *1 2.23,0.795 nmos_5p0
M$13 12 2 1 1 nmos_5p0 L=0.6U W=0.36U AS=0.1278P AD=0.27P PS=1.07U PD=1.98U
* device instance $14 r0 *1 2.23,1.515 nmos_5p0
M$14 3 2 12 1 nmos_5p0 L=0.6U W=0.36U AS=0.27P AD=0.1584P PS=1.98U PD=1.6U
* device instance $15 r0 *1 4.39,0.52 nmos_5p0
M$15 1 3 8 1 nmos_5p0 L=0.6U W=0.36U AS=0.27P AD=0.2232P PS=1.98U PD=1.6U
* device instance $16 r0 *1 6.23,0.52 nmos_5p0
M$16 10 4 1 1 nmos_5p0 L=0.6U W=0.36U AS=0.2232P AD=0.27P PS=1.6U PD=1.98U
* device instance $17 r0 *1 4.39,1.24 nmos_5p0
M$17 4 3 8 1 nmos_5p0 L=0.6U W=0.36U AS=0.27P AD=0.1584P PS=1.98U PD=1.6U
* device instance $18 r0 *1 6.23,1.24 nmos_5p0
M$18 5 4 10 1 nmos_5p0 L=0.6U W=0.36U AS=0.27P AD=0.1584P PS=1.98U PD=1.6U
* device instance $19 r0 *1 8.39,0.525 nmos_5p0
M$19 1 5 9 1 nmos_5p0 L=0.6U W=0.36U AS=0.27P AD=0.408P PS=1.98U PD=2.52U
* device instance $20 r0 *1 8.39,1.245 nmos_5p0
M$20 6 5 9 1 nmos_5p0 L=0.6U W=0.36U AS=0.27P AD=0.1584P PS=1.98U PD=1.6U
* device instance $21 r0 *1 10.19,1.005 nmos_5p0
M$21 7 6 1 1 nmos_5p0 L=0.6U W=2.64U AS=0.7512P AD=0.924P PS=4.36U PD=5.36U
.ENDS gf180mcu_fd_sc_mcu9t5v0__dlyc_2

* cell gf180mcu_fd_sc_mcu9t5v0__buf_3
* pin I
* pin NWELL,VDD
* pin PWELL,VSS,gf180mcu_gnd
* pin Z
.SUBCKT gf180mcu_fd_sc_mcu9t5v0__buf_3 1 2 3 5
* net 1 I
* net 2 NWELL,VDD
* net 3 PWELL,VSS,gf180mcu_gnd
* net 5 Z
* device instance $1 r0 *1 0.87,3.78 pmos_5p0
M$1 2 1 4 2 pmos_5p0 L=0.5U W=1.83U AS=0.8052P AD=0.74115P PS=4.54U PD=2.64U
* device instance $2 r0 *1 2.18,3.78 pmos_5p0
M$2 5 4 2 2 pmos_5p0 L=0.5U W=5.49U AS=1.87575P AD=1.9398P PS=7.54U PD=9.44U
* device instance $5 r0 *1 0.92,1.005 nmos_5p0
M$5 3 1 4 3 nmos_5p0 L=0.6U W=1.32U AS=0.5808P AD=0.4686P PS=3.52U PD=2.03U
* device instance $6 r0 *1 2.23,1.005 nmos_5p0