* CDL Netlist generated by OpenROAD

*.BUSDELIMITER [

.SUBCKT ahb_lite_master haddr[0] haddr[10] haddr[11] haddr[12]
+ haddr[13] haddr[14] haddr[15] haddr[16] haddr[17] haddr[18]
+ haddr[19] haddr[1] haddr[20] haddr[21] haddr[22] haddr[23]
+ haddr[24] haddr[25] haddr[26] haddr[27] haddr[28] haddr[29]
+ haddr[2] haddr[30] haddr[31] haddr[3] haddr[4] haddr[5] haddr[6]
+ haddr[7] haddr[8] haddr[9] hburst[0] hburst[1] hburst[2] hbusreq
+ hclk hgrant hrdata[0] hrdata[10] hrdata[11] hrdata[12] hrdata[13]
+ hrdata[14] hrdata[15] hrdata[16] hrdata[17] hrdata[18] hrdata[19]
+ hrdata[1] hrdata[20] hrdata[21] hrdata[22] hrdata[23] hrdata[24]
+ hrdata[25] hrdata[26] hrdata[27] hrdata[28] hrdata[29] hrdata[2]
+ hrdata[30] hrdata[31] hrdata[3] hrdata[4] hrdata[5] hrdata[6]
+ hrdata[7] hrdata[8] hrdata[9] hready hreset hresp[0] hresp[1]
+ hsize[0] hsize[1] hsize[2] htrans[0] htrans[1] hwdata[0] hwdata[10]
+ hwdata[11] hwdata[12] hwdata[13] hwdata[14] hwdata[15] hwdata[16]
+ hwdata[17] hwdata[18] hwdata[19] hwdata[1] hwdata[20] hwdata[21]
+ hwdata[22] hwdata[23] hwdata[24] hwdata[25] hwdata[26] hwdata[27]
+ hwdata[28] hwdata[29] hwdata[2] hwdata[30] hwdata[31] hwdata[3]
+ hwdata[4] hwdata[5] hwdata[6] hwdata[7] hwdata[8] hwdata[9]
+ hwrite read_data[0] read_data[10] read_data[11] read_data[12]
+ read_data[13] read_data[14] read_data[15] read_data[16] read_data[17]
+ read_data[18] read_data[19] read_data[1] read_data[20] read_data[21]
+ read_data[22] read_data[23] read_data[24] read_data[25] read_data[26]
+ read_data[27] read_data[28] read_data[29] read_data[2] read_data[30]
+ read_data[31] read_data[3] read_data[4] read_data[5] read_data[6]
+ read_data[7] read_data[8] read_data[9] start_trans trans_addr[0]
+ trans_addr[10] trans_addr[11] trans_addr[12] trans_addr[13]
+ trans_addr[14] trans_addr[15] trans_addr[16] trans_addr[17]
+ trans_addr[18] trans_addr[19] trans_addr[1] trans_addr[20]
+ trans_addr[21] trans_addr[22] trans_addr[23] trans_addr[24]
+ trans_addr[25] trans_addr[26] trans_addr[27] trans_addr[28]
+ trans_addr[29] trans_addr[2] trans_addr[30] trans_addr[31]
+ trans_addr[3] trans_addr[4] trans_addr[5] trans_addr[6] trans_addr[7]
+ trans_addr[8] trans_addr[9] trans_burst[0] trans_burst[1]
+ trans_burst[2] trans_done trans_resp[0] trans_resp[1] trans_size[0]
+ trans_size[1] trans_size[2] trans_write write_data[0] write_data[10]
+ write_data[11] write_data[12] write_data[13] write_data[14]
+ write_data[15] write_data[16] write_data[17] write_data[18]
+ write_data[19] write_data[1] write_data[20] write_data[21]
+ write_data[22] write_data[23] write_data[24] write_data[25]
+ write_data[26] write_data[27] write_data[28] write_data[29]
+ write_data[2] write_data[30] write_data[31] write_data[3]
+ write_data[4] write_data[5] write_data[6] write_data[7] write_data[8]
+ write_data[9]
X_0521_ burst_total\[3\] burst_total\[2\] burst_total\[0\]
+ _0479_ VDD VSS gf180mcu_fd_sc_mcu9t5v0__nor3_4
X_0522_ burst_total\[4\] _0478_ VDD VSS gf180mcu_fd_sc_mcu9t5v0__clkinv_2
X_0523_ burst_total\[3\] _0489_ _0484_ VDD VSS gf180mcu_fd_sc_mcu9t5v0__xnor2_2
X_0524_ net149 _0121_ VDD VSS gf180mcu_fd_sc_mcu9t5v0__clkinv_2
X_0525_ net147 _0121_ _0122_ VDD VSS gf180mcu_fd_sc_mcu9t5v0__nand2_2
X_0526_ net148 _0122_ _0465_ VDD VSS gf180mcu_fd_sc_mcu9t5v0__or2_2
X_0527_ _0465_ _0498_ VDD VSS gf180mcu_fd_sc_mcu9t5v0__clkinv_2
X_0528_ net148 _0123_ VDD VSS gf180mcu_fd_sc_mcu9t5v0__clkinv_2
X_0529_ _0123_ net147 net149 _0501_ VDD VSS gf180mcu_fd_sc_mcu9t5v0__nor3_2
X_0530_ _0123_ _0122_ _0504_ VDD VSS gf180mcu_fd_sc_mcu9t5v0__nor2_2
X_0531_ net148 net147 _0124_ VDD VSS gf180mcu_fd_sc_mcu9t5v0__nor2_2
X_0532_ net149 _0124_ _0507_ VDD VSS gf180mcu_fd_sc_mcu9t5v0__and2_2
X_0533_ _0123_ net147 net149 _0510_ VDD VSS gf180mcu_fd_sc_mcu9t5v0__and3_2
X_0534_ _0123_ net147 _0121_ _0513_ VDD VSS gf180mcu_fd_sc_mcu9t5v0__nor3_2
X_0535_ net148 net147 net149 _0516_ VDD VSS gf180mcu_fd_sc_mcu9t5v0__and3_2
X_0536_ state\[0\] _0125_ VDD VSS gf180mcu_fd_sc_mcu9t5v0__clkinv_2
X_0537_ state\[1\] _0126_ VDD VSS gf180mcu_fd_sc_mcu9t5v0__clkinv_3
X_0538_ net35 _0127_ VDD VSS gf180mcu_fd_sc_mcu9t5v0__clkinv_2
X_0539_ state\[2\] _0125_ _0126_ _0127_ _0128_ VDD VSS gf180mcu_fd_sc_mcu9t5v0__or4_2
X_0540_ _0485_ _0129_ VDD VSS gf180mcu_fd_sc_mcu9t5v0__clkinv_2
X_0541_ _0492_ _0491_ _0486_ _0130_ VDD VSS gf180mcu_fd_sc_mcu9t5v0__oai21_2
X_0542_ burst_total\[0\] burst_count\[0\] _0494_ _0131_ VDD
+ VSS gf180mcu_fd_sc_mcu9t5v0__oai21_2
X_0543_ _0485_ _0491_ _0493_ _0132_ VDD VSS gf180mcu_fd_sc_mcu9t5v0__nor3_2
X_0544_ _0471_ _0474_ _0477_ _0483_ _0133_ VDD VSS gf180mcu_fd_sc_mcu9t5v0__nand4_2
X_0545_ _0129_ _0130_ _0131_ _0132_ _0133_ _0134_ VDD VSS
+ gf180mcu_fd_sc_mcu9t5v0__aoi221_4
X_0546_ _0471_ _0474_ _0135_ VDD VSS gf180mcu_fd_sc_mcu9t5v0__nand2_2
X_0547_ _0482_ _0477_ _0476_ _0136_ VDD VSS gf180mcu_fd_sc_mcu9t5v0__aoi21_2
X_0548_ _0471_ _0473_ _0470_ _0137_ VDD VSS gf180mcu_fd_sc_mcu9t5v0__aoi21_2
X_0549_ _0135_ _0136_ _0137_ _0138_ VDD VSS gf180mcu_fd_sc_mcu9t5v0__oai21_2
X_0550_ _0480_ _0139_ VDD VSS gf180mcu_fd_sc_mcu9t5v0__clkinv_2
X_0551_ _0134_ _0138_ _0139_ _0140_ VDD VSS gf180mcu_fd_sc_mcu9t5v0__oai21_2
X_0552_ _0128_ _0140_ _0141_ VDD VSS gf180mcu_fd_sc_mcu9t5v0__nor2_4
X_0553_ state\[1\] _0142_ VDD VSS gf180mcu_fd_sc_mcu9t5v0__buf_4
X_0554_ net2 net35 _0142_ _0143_ VDD VSS gf180mcu_fd_sc_mcu9t5v0__mux2_2
X_0555_ _0126_ net39 _0144_ VDD VSS gf180mcu_fd_sc_mcu9t5v0__and2_2
X_0556_ _0142_ net35 _0144_ state\[0\] _0145_ VDD VSS gf180mcu_fd_sc_mcu9t5v0__aoi211_2
X_0557_ state\[0\] _0143_ _0145_ state\[2\] _0146_ VDD VSS
+ gf180mcu_fd_sc_mcu9t5v0__aoi211_2
X_0558_ _0141_ _0146_ _0461_ VDD VSS gf180mcu_fd_sc_mcu9t5v0__or2_2
X_0559_ _0142_ _0127_ _0147_ VDD VSS gf180mcu_fd_sc_mcu9t5v0__nand2_2
X_0560_ state\[0\] _0126_ net2 _0148_ VDD VSS gf180mcu_fd_sc_mcu9t5v0__nand3_2
X_0561_ _0147_ _0148_ _0149_ VDD VSS gf180mcu_fd_sc_mcu9t5v0__and2_2
X_0562_ state\[2\] _0142_ _0150_ VDD VSS gf180mcu_fd_sc_mcu9t5v0__xnor2_2
X_0563_ state\[2\] _0149_ _0150_ state\[0\] _0462_ VDD VSS
+ gf180mcu_fd_sc_mcu9t5v0__oai22_2
X_0564_ _0128_ _0463_ VDD VSS gf180mcu_fd_sc_mcu9t5v0__clkinv_2
X_0565_ net122 _0464_ VDD VSS gf180mcu_fd_sc_mcu9t5v0__clkinv_2
X_0566_ _0496_ _0466_ VDD VSS gf180mcu_fd_sc_mcu9t5v0__clkinv_2
X_0567_ burst_total\[0\] _0487_ VDD VSS gf180mcu_fd_sc_mcu9t5v0__clkinv_2
X_0568_ _0489_ _0151_ VDD VSS gf180mcu_fd_sc_mcu9t5v0__clkinv_2
X_0569_ burst_total\[3\] burst_total\[4\] _0151_ _0469_ VDD
+ VSS gf180mcu_fd_sc_mcu9t5v0__or3_2
X_0570_ _0478_ _0479_ _0472_ VDD VSS gf180mcu_fd_sc_mcu9t5v0__nand2_2
X_0571_ _0478_ _0479_ _0475_ VDD VSS gf180mcu_fd_sc_mcu9t5v0__nand2_2
X_0572_ burst_total\[2\] _0488_ VDD VSS gf180mcu_fd_sc_mcu9t5v0__clkinv_2
X_0573_ _0121_ _0124_ _0495_ VDD VSS gf180mcu_fd_sc_mcu9t5v0__and2_2
X_0574_ state\[2\] state\[0\] _0152_ VDD VSS gf180mcu_fd_sc_mcu9t5v0__nor2_4
X_0575_ state\[1\] net35 _0152_ _0153_ VDD VSS gf180mcu_fd_sc_mcu9t5v0__and3_2
X_0576_ _0140_ _0153_ _0154_ VDD VSS gf180mcu_fd_sc_mcu9t5v0__and2_2
X_0577_ state\[1\] _0152_ _0155_ VDD VSS gf180mcu_fd_sc_mcu9t5v0__nand2_4
X_0578_ _0127_ _0134_ _0138_ _0155_ _0156_ VDD VSS gf180mcu_fd_sc_mcu9t5v0__or4_4
X_0579_ _0126_ net39 _0152_ _0157_ VDD VSS gf180mcu_fd_sc_mcu9t5v0__and3_4
X_0580_ _0480_ _0153_ _0157_ _0158_ VDD VSS gf180mcu_fd_sc_mcu9t5v0__aoi21_4
X_0581_ _0156_ _0158_ _0159_ VDD VSS gf180mcu_fd_sc_mcu9t5v0__and2_2
X_0582_ _0154_ _0159_ burst_count\[0\] _0000_ VDD VSS gf180mcu_fd_sc_mcu9t5v0__mux2_2
X_0583_ _0142_ _0152_ _0160_ VDD VSS gf180mcu_fd_sc_mcu9t5v0__and2_2
X_0584_ _0520_ _0160_ _0161_ VDD VSS gf180mcu_fd_sc_mcu9t5v0__and2_2
X_0585_ _0156_ _0158_ _0162_ VDD VSS gf180mcu_fd_sc_mcu9t5v0__nand2_2
X_0586_ burst_count\[1\] _0161_ _0162_ _0001_ VDD VSS gf180mcu_fd_sc_mcu9t5v0__mux2_2
X_0587_ _0144_ _0152_ _0163_ VDD VSS gf180mcu_fd_sc_mcu9t5v0__nand2_2
X_0588_ burst_count\[2\] _0164_ VDD VSS gf180mcu_fd_sc_mcu9t5v0__clkinv_2
X_0589_ _0519_ _0165_ VDD VSS gf180mcu_fd_sc_mcu9t5v0__clkinv_2
X_0590_ _0156_ _0158_ _0165_ _0166_ VDD VSS gf180mcu_fd_sc_mcu9t5v0__aoi21_2
X_0591_ _0164_ _0166_ _0167_ VDD VSS gf180mcu_fd_sc_mcu9t5v0__xnor2_2
X_0592_ _0163_ _0167_ _0002_ VDD VSS gf180mcu_fd_sc_mcu9t5v0__and2_2
X_0593_ burst_count\[3\] _0168_ VDD VSS gf180mcu_fd_sc_mcu9t5v0__clkinv_2
X_0594_ burst_count\[2\] burst_count\[0\] burst_count\[1\]
+ _0169_ VDD VSS gf180mcu_fd_sc_mcu9t5v0__nand3_2
X_0595_ _0156_ _0158_ _0169_ _0170_ VDD VSS gf180mcu_fd_sc_mcu9t5v0__aoi21_2
X_0596_ _0168_ _0170_ _0171_ VDD VSS gf180mcu_fd_sc_mcu9t5v0__xnor2_2
X_0597_ _0163_ _0171_ _0003_ VDD VSS gf180mcu_fd_sc_mcu9t5v0__and2_2
X_0598_ burst_count\[4\] _0172_ VDD VSS gf180mcu_fd_sc_mcu9t5v0__clkinv_2
X_0599_ _0164_ _0165_ _0168_ _0173_ VDD VSS gf180mcu_fd_sc_mcu9t5v0__or3_2
X_0600_ _0156_ _0158_ _0173_ _0174_ VDD VSS gf180mcu_fd_sc_mcu9t5v0__aoi21_2
X_0601_ _0172_ _0174_ _0175_ VDD VSS gf180mcu_fd_sc_mcu9t5v0__xnor2_2
X_0602_ _0163_ _0175_ _0004_ VDD VSS gf180mcu_fd_sc_mcu9t5v0__and2_2
X_0603_ burst_count\[5\] _0163_ _0176_ VDD VSS gf180mcu_fd_sc_mcu9t5v0__and2_2
X_0604_ burst_count\[5\] _0157_ _0177_ VDD VSS gf180mcu_fd_sc_mcu9t5v0__nor2_2
X_0605_ _0172_ _0169_ _0178_ VDD VSS gf180mcu_fd_sc_mcu9t5v0__nor2_2
X_0606_ burst_count\[3\] _0162_ _0178_ _0179_ VDD VSS gf180mcu_fd_sc_mcu9t5v0__and3_2
X_0607_ _0176_ _0177_ _0179_ _0005_ VDD VSS gf180mcu_fd_sc_mcu9t5v0__mux2_2
X_0608_ burst_count\[4\] burst_count\[2\] _0519_ burst_count\[3\]
+ _0180_ VDD VSS gf180mcu_fd_sc_mcu9t5v0__and4_2
X_0609_ burst_count\[5\] _0180_ _0181_ VDD VSS gf180mcu_fd_sc_mcu9t5v0__nand2_2
X_0610_ _0159_ _0181_ burst_count\[6\] _0182_ VDD VSS gf180mcu_fd_sc_mcu9t5v0__oai21_2
X_0611_ burst_count\[6\] _0159_ _0181_ _0183_ VDD VSS gf180mcu_fd_sc_mcu9t5v0__or3_2
X_0612_ _0182_ _0183_ _0157_ _0006_ VDD VSS gf180mcu_fd_sc_mcu9t5v0__aoi21_2
X_0613_ burst_count\[6\] burst_count\[5\] burst_count\[3\]
+ _0178_ _0184_ VDD VSS gf180mcu_fd_sc_mcu9t5v0__nand4_2
X_0614_ _0159_ _0184_ burst_count\[7\] _0185_ VDD VSS gf180mcu_fd_sc_mcu9t5v0__oai21_2
X_0615_ burst_count\[7\] _0159_ _0184_ _0186_ VDD VSS gf180mcu_fd_sc_mcu9t5v0__or3_2
X_0616_ _0185_ _0186_ _0157_ _0007_ VDD VSS gf180mcu_fd_sc_mcu9t5v0__aoi21_2
X_0617_ net74 net72 net73 _0163_ _0187_ VDD VSS gf180mcu_fd_sc_mcu9t5v0__or4_2
X_0618_ _0487_ _0157_ _0187_ _0008_ VDD VSS gf180mcu_fd_sc_mcu9t5v0__oai21_2
X_0619_ net72 _0188_ VDD VSS gf180mcu_fd_sc_mcu9t5v0__clkinv_2
X_0620_ net73 _0189_ VDD VSS gf180mcu_fd_sc_mcu9t5v0__clkinv_2
X_0621_ _0188_ _0189_ net74 _0190_ VDD VSS gf180mcu_fd_sc_mcu9t5v0__aoi21_2
X_0622_ burst_total\[2\] _0190_ _0157_ _0009_ VDD VSS gf180mcu_fd_sc_mcu9t5v0__mux2_2
X_0623_ net74 _0189_ _0191_ VDD VSS gf180mcu_fd_sc_mcu9t5v0__and2_2
X_0624_ burst_total\[3\] _0191_ _0157_ _0010_ VDD VSS gf180mcu_fd_sc_mcu9t5v0__mux2_2
X_0625_ net74 net73 _0192_ VDD VSS gf180mcu_fd_sc_mcu9t5v0__and2_2
X_0626_ burst_total\[4\] _0192_ _0157_ _0011_ VDD VSS gf180mcu_fd_sc_mcu9t5v0__mux2_2
X_0627_ state\[2\] _0193_ VDD VSS gf180mcu_fd_sc_mcu9t5v0__clkinv_2
X_0628_ _0193_ state\[0\] _0126_ net2 _0194_ VDD VSS gf180mcu_fd_sc_mcu9t5v0__and4_2
X_0629_ _0194_ _0195_ VDD VSS gf180mcu_fd_sc_mcu9t5v0__clkbuf_8
X_0630_ net143 net72 _0195_ _0012_ VDD VSS gf180mcu_fd_sc_mcu9t5v0__mux2_2
X_0631_ net144 net73 _0195_ _0013_ VDD VSS gf180mcu_fd_sc_mcu9t5v0__mux2_2
X_0632_ net145 net74 _0195_ _0014_ VDD VSS gf180mcu_fd_sc_mcu9t5v0__mux2_2
X_0633_ state\[2\] _0125_ _0142_ _0196_ VDD VSS gf180mcu_fd_sc_mcu9t5v0__or3_2
X_0634_ _0155_ _0197_ VDD VSS gf180mcu_fd_sc_mcu9t5v0__clkbuf_8
X_0635_ net39 _0197_ _0198_ VDD VSS gf180mcu_fd_sc_mcu9t5v0__nand2_2
X_0636_ _0196_ _0198_ _0199_ VDD VSS gf180mcu_fd_sc_mcu9t5v0__nand2_2
X_0637_ _0125_ net35 _0200_ VDD VSS gf180mcu_fd_sc_mcu9t5v0__nand2_2
X_0638_ net145 net144 net143 _0201_ VDD VSS gf180mcu_fd_sc_mcu9t5v0__or3_2
X_0639_ _0140_ _0160_ _0201_ _0202_ VDD VSS gf180mcu_fd_sc_mcu9t5v0__and3_2
X_0640_ _0142_ _0200_ _0202_ state\[2\] _0203_ VDD VSS gf180mcu_fd_sc_mcu9t5v0__aoi211_4
X_0641_ net146 _0199_ _0203_ _0015_ VDD VSS gf180mcu_fd_sc_mcu9t5v0__mux2_2
X_0642_ net147 net75 _0195_ _0016_ VDD VSS gf180mcu_fd_sc_mcu9t5v0__mux2_2
X_0643_ net148 net76 _0195_ _0017_ VDD VSS gf180mcu_fd_sc_mcu9t5v0__mux2_2
X_0644_ net149 net77 _0195_ _0018_ VDD VSS gf180mcu_fd_sc_mcu9t5v0__mux2_2
X_0645_ net150 _0204_ VDD VSS gf180mcu_fd_sc_mcu9t5v0__clkinv_2
X_0646_ _0193_ _0126_ net2 _0205_ VDD VSS gf180mcu_fd_sc_mcu9t5v0__and3_2
X_0647_ _0147_ _0152_ _0205_ _0206_ VDD VSS gf180mcu_fd_sc_mcu9t5v0__aoi21_2
X_0648_ net2 _0196_ _0207_ VDD VSS gf180mcu_fd_sc_mcu9t5v0__or2_2
X_0649_ _0204_ _0206_ _0203_ _0207_ _0019_ VDD VSS gf180mcu_fd_sc_mcu9t5v0__aoi22_2
X_0650_ net151 _0208_ VDD VSS gf180mcu_fd_sc_mcu9t5v0__clkinv_2
X_0651_ _0208_ _0206_ _0203_ _0196_ _0020_ VDD VSS gf180mcu_fd_sc_mcu9t5v0__aoi22_2
X_0652_ net184 _0153_ _0209_ VDD VSS gf180mcu_fd_sc_mcu9t5v0__and2_2
X_0653_ _0209_ _0210_ VDD VSS gf180mcu_fd_sc_mcu9t5v0__buf_4
X_0654_ net152 net79 _0210_ _0021_ VDD VSS gf180mcu_fd_sc_mcu9t5v0__mux2_2
X_0655_ net153 net80 _0210_ _0022_ VDD VSS gf180mcu_fd_sc_mcu9t5v0__mux2_2
X_0656_ net154 net81 _0210_ _0023_ VDD VSS gf180mcu_fd_sc_mcu9t5v0__mux2_2
X_0657_ net155 net82 _0210_ _0024_ VDD VSS gf180mcu_fd_sc_mcu9t5v0__mux2_2
X_0658_ net156 net83 _0210_ _0025_ VDD VSS gf180mcu_fd_sc_mcu9t5v0__mux2_2
X_0659_ net157 net84 _0210_ _0026_ VDD VSS gf180mcu_fd_sc_mcu9t5v0__mux2_2
X_0660_ net158 net85 _0210_ _0027_ VDD VSS gf180mcu_fd_sc_mcu9t5v0__mux2_2
X_0661_ net159 net86 _0210_ _0028_ VDD VSS gf180mcu_fd_sc_mcu9t5v0__mux2_2
X_0662_ net160 net87 _0210_ _0029_ VDD VSS gf180mcu_fd_sc_mcu9t5v0__mux2_2
X_0663_ net161 net88 _0210_ _0030_ VDD VSS gf180mcu_fd_sc_mcu9t5v0__mux2_2
X_0664_ _0209_ _0211_ VDD VSS gf180mcu_fd_sc_mcu9t5v0__buf_4
X_0665_ net162 net89 _0211_ _0031_ VDD VSS gf180mcu_fd_sc_mcu9t5v0__mux2_2
X_0666_ net163 net90 _0211_ _0032_ VDD VSS gf180mcu_fd_sc_mcu9t5v0__mux2_2
X_0667_ net164 net91 _0211_ _0033_ VDD VSS gf180mcu_fd_sc_mcu9t5v0__mux2_2
X_0668_ net165 net92 _0211_ _0034_ VDD VSS gf180mcu_fd_sc_mcu9t5v0__mux2_2
X_0669_ net166 net93 _0211_ _0035_ VDD VSS gf180mcu_fd_sc_mcu9t5v0__mux2_2
X_0670_ net167 net94 _0211_ _0036_ VDD VSS gf180mcu_fd_sc_mcu9t5v0__mux2_2
X_0671_ net168 net95 _0211_ _0037_ VDD VSS gf180mcu_fd_sc_mcu9t5v0__mux2_2
X_0672_ net169 net96 _0211_ _0038_ VDD VSS gf180mcu_fd_sc_mcu9t5v0__mux2_2
X_0673_ net170 net97 _0211_ _0039_ VDD VSS gf180mcu_fd_sc_mcu9t5v0__mux2_2
X_0674_ net171 net98 _0211_ _0040_ VDD VSS gf180mcu_fd_sc_mcu9t5v0__mux2_2
X_0675_ _0209_ _0212_ VDD VSS gf180mcu_fd_sc_mcu9t5v0__buf_4
X_0676_ net172 net99 _0212_ _0041_ VDD VSS gf180mcu_fd_sc_mcu9t5v0__mux2_2
X_0677_ net173 net100 _0212_ _0042_ VDD VSS gf180mcu_fd_sc_mcu9t5v0__mux2_2
X_0678_ net174 net101 _0212_ _0043_ VDD VSS gf180mcu_fd_sc_mcu9t5v0__mux2_2
X_0679_ net175 net102 _0212_ _0044_ VDD VSS gf180mcu_fd_sc_mcu9t5v0__mux2_2
X_0680_ net176 net103 _0212_ _0045_ VDD VSS gf180mcu_fd_sc_mcu9t5v0__mux2_2
X_0681_ net177 net104 _0212_ _0046_ VDD VSS gf180mcu_fd_sc_mcu9t5v0__mux2_2
X_0682_ net178 net105 _0212_ _0047_ VDD VSS gf180mcu_fd_sc_mcu9t5v0__mux2_2
X_0683_ net179 net106 _0212_ _0048_ VDD VSS gf180mcu_fd_sc_mcu9t5v0__mux2_2
X_0684_ net180 net107 _0212_ _0049_ VDD VSS gf180mcu_fd_sc_mcu9t5v0__mux2_2
X_0685_ net181 net108 _0212_ _0050_ VDD VSS gf180mcu_fd_sc_mcu9t5v0__mux2_2
X_0686_ net182 net109 _0209_ _0051_ VDD VSS gf180mcu_fd_sc_mcu9t5v0__mux2_2
X_0687_ net183 net110 _0209_ _0052_ VDD VSS gf180mcu_fd_sc_mcu9t5v0__mux2_2
X_0688_ net184 net78 _0195_ _0053_ VDD VSS gf180mcu_fd_sc_mcu9t5v0__mux2_2
X_0689_ net145 net144 _0213_ VDD VSS gf180mcu_fd_sc_mcu9t5v0__nor2_2
X_0690_ net143 _0213_ _0214_ VDD VSS gf180mcu_fd_sc_mcu9t5v0__nor2_2
X_0691_ _0155_ _0214_ _0215_ VDD VSS gf180mcu_fd_sc_mcu9t5v0__nor2_4
X_0692_ _0215_ _0216_ VDD VSS gf180mcu_fd_sc_mcu9t5v0__buf_4
X_0693_ net40 _0197_ _0216_ _0497_ _0217_ VDD VSS gf180mcu_fd_sc_mcu9t5v0__aoi22_2
X_0694_ _0217_ _0218_ VDD VSS gf180mcu_fd_sc_mcu9t5v0__clkinv_2
X_0695_ _0142_ net35 _0152_ _0201_ _0219_ VDD VSS gf180mcu_fd_sc_mcu9t5v0__nand4_2
X_0696_ _0134_ _0138_ _0219_ _0220_ VDD VSS gf180mcu_fd_sc_mcu9t5v0__or3_2
X_0697_ _0142_ net35 _0152_ _0201_ _0221_ VDD VSS gf180mcu_fd_sc_mcu9t5v0__and4_2
X_0698_ _0480_ _0221_ _0195_ _0222_ VDD VSS gf180mcu_fd_sc_mcu9t5v0__aoi21_2
X_0699_ _0220_ _0222_ _0223_ VDD VSS gf180mcu_fd_sc_mcu9t5v0__nand2_4
X_0700_ net111 _0218_ _0223_ _0054_ VDD VSS gf180mcu_fd_sc_mcu9t5v0__mux2_2
X_0701_ net112 _0224_ VDD VSS gf180mcu_fd_sc_mcu9t5v0__clkinv_2
X_0702_ _0515_ _0514_ _0225_ VDD VSS gf180mcu_fd_sc_mcu9t5v0__or2_2
X_0703_ _0518_ _0225_ _0226_ VDD VSS gf180mcu_fd_sc_mcu9t5v0__and2_2
X_0704_ net141 net142 _0227_ VDD VSS gf180mcu_fd_sc_mcu9t5v0__and2_2
X_0705_ _0517_ _0226_ _0227_ _0228_ VDD VSS gf180mcu_fd_sc_mcu9t5v0__oai21_2
X_0706_ _0506_ _0505_ _0229_ VDD VSS gf180mcu_fd_sc_mcu9t5v0__or2_2
X_0707_ _0509_ _0512_ _0229_ _0230_ VDD VSS gf180mcu_fd_sc_mcu9t5v0__and3_2
X_0708_ _0503_ _0231_ VDD VSS gf180mcu_fd_sc_mcu9t5v0__clkinv_2
X_0709_ _0502_ _0232_ VDD VSS gf180mcu_fd_sc_mcu9t5v0__clkinv_2
X_0710_ _0505_ _0233_ VDD VSS gf180mcu_fd_sc_mcu9t5v0__clkinv_2
X_0711_ _0467_ _0231_ _0232_ _0233_ _0234_ VDD VSS gf180mcu_fd_sc_mcu9t5v0__oai211_4
X_0712_ _0512_ _0508_ _0511_ _0235_ VDD VSS gf180mcu_fd_sc_mcu9t5v0__aoi21_2
X_0713_ _0235_ _0236_ VDD VSS gf180mcu_fd_sc_mcu9t5v0__clkinv_2
X_0714_ _0518_ _0514_ _0517_ _0237_ VDD VSS gf180mcu_fd_sc_mcu9t5v0__aoi21_2
X_0715_ _0237_ _0238_ VDD VSS gf180mcu_fd_sc_mcu9t5v0__clkinv_2
X_0716_ _0230_ _0234_ _0236_ _0238_ _0239_ VDD VSS gf180mcu_fd_sc_mcu9t5v0__aoi211_4
X_0717_ _0239_ _0240_ VDD VSS gf180mcu_fd_sc_mcu9t5v0__buf_4
X_0718_ _0228_ _0240_ _0216_ _0241_ VDD VSS gf180mcu_fd_sc_mcu9t5v0__oai21_2
X_0719_ _0223_ _0241_ _0242_ VDD VSS gf180mcu_fd_sc_mcu9t5v0__and2_2
X_0720_ _0155_ _0243_ VDD VSS gf180mcu_fd_sc_mcu9t5v0__clkbuf_8
X_0721_ _0228_ _0239_ _0244_ VDD VSS gf180mcu_fd_sc_mcu9t5v0__nor2_2
X_0722_ _0224_ _0216_ _0245_ VDD VSS gf180mcu_fd_sc_mcu9t5v0__and2_2
X_0723_ net41 _0243_ _0244_ _0245_ _0246_ VDD VSS gf180mcu_fd_sc_mcu9t5v0__aoi22_2
X_0724_ _0220_ _0222_ _0247_ VDD VSS gf180mcu_fd_sc_mcu9t5v0__and2_2
X_0725_ _0247_ _0248_ VDD VSS gf180mcu_fd_sc_mcu9t5v0__clkbuf_8
X_0726_ _0224_ _0242_ _0246_ _0248_ _0055_ VDD VSS gf180mcu_fd_sc_mcu9t5v0__oai22_2
X_0727_ _0247_ _0249_ VDD VSS gf180mcu_fd_sc_mcu9t5v0__clkbuf_8
X_0728_ _0249_ _0250_ VDD VSS gf180mcu_fd_sc_mcu9t5v0__clkbuf_8
X_0729_ _0155_ _0251_ VDD VSS gf180mcu_fd_sc_mcu9t5v0__buf_4
X_0730_ net113 _0252_ VDD VSS gf180mcu_fd_sc_mcu9t5v0__clkinv_2
X_0731_ _0511_ _0253_ VDD VSS gf180mcu_fd_sc_mcu9t5v0__clkinv_2
X_0732_ _0515_ _0518_ _0254_ VDD VSS gf180mcu_fd_sc_mcu9t5v0__nand2_2
X_0733_ _0512_ _0515_ _0518_ _0255_ VDD VSS gf180mcu_fd_sc_mcu9t5v0__nand3_2
X_0734_ _0509_ _0505_ _0508_ _0256_ VDD VSS gf180mcu_fd_sc_mcu9t5v0__aoi21_2
X_0735_ _0253_ _0254_ _0255_ _0256_ _0237_ _0257_ VDD VSS
+ gf180mcu_fd_sc_mcu9t5v0__oai221_2
X_0736_ _0503_ _0502_ _0509_ _0506_ _0258_ VDD VSS gf180mcu_fd_sc_mcu9t5v0__oai211_4
X_0737_ _0496_ _0500_ _0499_ _0502_ _0259_ VDD VSS gf180mcu_fd_sc_mcu9t5v0__aoi211_4
X_0738_ _0255_ _0258_ _0259_ _0260_ VDD VSS gf180mcu_fd_sc_mcu9t5v0__nor3_2
X_0739_ _0257_ _0260_ _0261_ VDD VSS gf180mcu_fd_sc_mcu9t5v0__or2_2
X_0740_ _0261_ _0262_ VDD VSS gf180mcu_fd_sc_mcu9t5v0__buf_4
X_0741_ _0227_ _0263_ VDD VSS gf180mcu_fd_sc_mcu9t5v0__clkbuf_4
X_0742_ net112 _0263_ _0264_ VDD VSS gf180mcu_fd_sc_mcu9t5v0__and2_2
X_0743_ _0252_ _0216_ _0262_ _0264_ _0265_ VDD VSS gf180mcu_fd_sc_mcu9t5v0__and4_2
X_0744_ net42 _0251_ _0265_ _0266_ VDD VSS gf180mcu_fd_sc_mcu9t5v0__aoi21_2
X_0745_ _0247_ _0267_ VDD VSS gf180mcu_fd_sc_mcu9t5v0__clkbuf_8
X_0746_ _0155_ _0214_ _0268_ VDD VSS gf180mcu_fd_sc_mcu9t5v0__or2_4
X_0747_ _0262_ _0264_ _0268_ _0269_ VDD VSS gf180mcu_fd_sc_mcu9t5v0__aoi21_2
X_0748_ _0267_ _0269_ net113 _0270_ VDD VSS gf180mcu_fd_sc_mcu9t5v0__oai21_2
X_0749_ _0250_ _0266_ _0270_ _0056_ VDD VSS gf180mcu_fd_sc_mcu9t5v0__oai21_2
X_0750_ net114 _0271_ VDD VSS gf180mcu_fd_sc_mcu9t5v0__clkinv_2
X_0751_ _0230_ _0234_ _0236_ _0272_ VDD VSS gf180mcu_fd_sc_mcu9t5v0__aoi21_4
X_0752_ _0515_ _0518_ _0273_ VDD VSS gf180mcu_fd_sc_mcu9t5v0__and2_2
X_0753_ net112 net113 _0263_ _0273_ _0274_ VDD VSS gf180mcu_fd_sc_mcu9t5v0__nand4_2
X_0754_ net112 net113 _0263_ _0238_ _0275_ VDD VSS gf180mcu_fd_sc_mcu9t5v0__nand4_2
X_0755_ _0272_ _0274_ _0275_ _0216_ _0276_ VDD VSS gf180mcu_fd_sc_mcu9t5v0__oai211_2
X_0756_ _0223_ _0276_ _0277_ VDD VSS gf180mcu_fd_sc_mcu9t5v0__and2_2
X_0757_ _0272_ _0274_ _0275_ _0278_ VDD VSS gf180mcu_fd_sc_mcu9t5v0__oai21_2
X_0758_ _0215_ _0279_ VDD VSS gf180mcu_fd_sc_mcu9t5v0__clkbuf_4
X_0759_ _0271_ _0279_ _0280_ VDD VSS gf180mcu_fd_sc_mcu9t5v0__and2_2
X_0760_ net43 _0243_ _0278_ _0280_ _0281_ VDD VSS gf180mcu_fd_sc_mcu9t5v0__aoi22_2
X_0761_ _0271_ _0277_ _0281_ _0248_ _0057_ VDD VSS gf180mcu_fd_sc_mcu9t5v0__oai22_2
X_0762_ net112 net113 net114 _0282_ VDD VSS gf180mcu_fd_sc_mcu9t5v0__and3_2
X_0763_ _0215_ _0263_ _0261_ _0282_ _0283_ VDD VSS gf180mcu_fd_sc_mcu9t5v0__and4_2
X_0764_ net115 _0284_ VDD VSS gf180mcu_fd_sc_mcu9t5v0__clkinv_2
X_0765_ net44 _0251_ _0283_ _0284_ _0285_ VDD VSS gf180mcu_fd_sc_mcu9t5v0__aoi22_2
X_0766_ _0215_ _0286_ VDD VSS gf180mcu_fd_sc_mcu9t5v0__clkbuf_8
X_0767_ _0263_ _0262_ _0282_ _0287_ VDD VSS gf180mcu_fd_sc_mcu9t5v0__nand3_2
X_0768_ _0286_ _0287_ _0249_ _0288_ VDD VSS gf180mcu_fd_sc_mcu9t5v0__aoi21_2
X_0769_ _0250_ _0285_ _0288_ _0284_ _0058_ VDD VSS gf180mcu_fd_sc_mcu9t5v0__oai22_2
X_0770_ net116 _0289_ VDD VSS gf180mcu_fd_sc_mcu9t5v0__clkinv_2
X_0771_ net115 _0289_ _0215_ _0282_ _0290_ VDD VSS gf180mcu_fd_sc_mcu9t5v0__and4_2
X_0772_ net45 _0251_ _0244_ _0290_ _0291_ VDD VSS gf180mcu_fd_sc_mcu9t5v0__aoi22_2
X_0773_ net115 _0244_ _0282_ _0292_ VDD VSS gf180mcu_fd_sc_mcu9t5v0__and3_2
X_0774_ net116 _0286_ _0293_ VDD VSS gf180mcu_fd_sc_mcu9t5v0__nand2_2
X_0775_ net116 _0267_ _0294_ VDD VSS gf180mcu_fd_sc_mcu9t5v0__nand2_2
X_0776_ _0250_ _0291_ _0292_ _0293_ _0294_ _0059_ VDD VSS
+ gf180mcu_fd_sc_mcu9t5v0__oai221_2
X_0777_ net117 _0295_ VDD VSS gf180mcu_fd_sc_mcu9t5v0__clkinv_2
X_0778_ _0216_ _0296_ VDD VSS gf180mcu_fd_sc_mcu9t5v0__clkbuf_8
X_0779_ net115 net116 _0227_ _0282_ _0297_ VDD VSS gf180mcu_fd_sc_mcu9t5v0__and4_2
X_0780_ _0262_ _0297_ _0298_ VDD VSS gf180mcu_fd_sc_mcu9t5v0__nand2_2
X_0781_ _0247_ _0299_ VDD VSS gf180mcu_fd_sc_mcu9t5v0__buf_4
X_0782_ _0296_ _0298_ _0299_ _0300_ VDD VSS gf180mcu_fd_sc_mcu9t5v0__aoi21_2
X_0783_ _0295_ _0279_ _0262_ _0297_ _0301_ VDD VSS gf180mcu_fd_sc_mcu9t5v0__and4_2
X_0784_ net46 _0251_ _0301_ _0302_ VDD VSS gf180mcu_fd_sc_mcu9t5v0__aoi21_2
X_0785_ _0295_ _0300_ _0302_ _0248_ _0060_ VDD VSS gf180mcu_fd_sc_mcu9t5v0__oai22_2
X_0786_ net118 _0303_ VDD VSS gf180mcu_fd_sc_mcu9t5v0__clkinv_2
X_0787_ net115 net116 net117 _0304_ VDD VSS gf180mcu_fd_sc_mcu9t5v0__and3_2
X_0788_ _0282_ _0304_ _0305_ VDD VSS gf180mcu_fd_sc_mcu9t5v0__and2_2
X_0789_ _0517_ _0226_ _0305_ _0227_ _0306_ VDD VSS gf180mcu_fd_sc_mcu9t5v0__oai211_4
X_0790_ _0306_ _0307_ VDD VSS gf180mcu_fd_sc_mcu9t5v0__clkbuf_4
X_0791_ _0240_ _0307_ _0216_ _0308_ VDD VSS gf180mcu_fd_sc_mcu9t5v0__oai21_2
X_0792_ _0223_ _0308_ _0309_ VDD VSS gf180mcu_fd_sc_mcu9t5v0__and2_2
X_0793_ _0268_ _0239_ _0306_ _0310_ VDD VSS gf180mcu_fd_sc_mcu9t5v0__nor3_4
X_0794_ net47 _0243_ _0310_ _0303_ _0311_ VDD VSS gf180mcu_fd_sc_mcu9t5v0__aoi22_2
X_0795_ _0303_ _0309_ _0311_ _0248_ _0061_ VDD VSS gf180mcu_fd_sc_mcu9t5v0__oai22_2
X_0796_ _0263_ _0261_ _0282_ _0304_ _0312_ VDD VSS gf180mcu_fd_sc_mcu9t5v0__and4_2
X_0797_ _0303_ net119 _0268_ _0313_ VDD VSS gf180mcu_fd_sc_mcu9t5v0__nor3_2
X_0798_ net48 _0251_ _0312_ _0313_ _0314_ VDD VSS gf180mcu_fd_sc_mcu9t5v0__aoi22_2
X_0799_ net118 _0312_ _0315_ VDD VSS gf180mcu_fd_sc_mcu9t5v0__and2_2
X_0800_ net119 _0286_ _0316_ VDD VSS gf180mcu_fd_sc_mcu9t5v0__nand2_2
X_0801_ net119 _0267_ _0317_ VDD VSS gf180mcu_fd_sc_mcu9t5v0__nand2_2
X_0802_ _0250_ _0314_ _0315_ _0316_ _0317_ _0062_ VDD VSS
+ gf180mcu_fd_sc_mcu9t5v0__oai221_2
X_0803_ net118 net119 _0318_ VDD VSS gf180mcu_fd_sc_mcu9t5v0__nand2_2
X_0804_ net120 _0318_ _0319_ VDD VSS gf180mcu_fd_sc_mcu9t5v0__nor2_2
X_0805_ net49 _0251_ _0310_ _0319_ _0320_ VDD VSS gf180mcu_fd_sc_mcu9t5v0__aoi22_2
X_0806_ _0240_ _0307_ _0318_ _0321_ VDD VSS gf180mcu_fd_sc_mcu9t5v0__or3_2
X_0807_ _0286_ _0321_ _0249_ _0322_ VDD VSS gf180mcu_fd_sc_mcu9t5v0__aoi21_2
X_0808_ net120 _0323_ VDD VSS gf180mcu_fd_sc_mcu9t5v0__clkinv_2
X_0809_ _0250_ _0320_ _0322_ _0323_ _0063_ VDD VSS gf180mcu_fd_sc_mcu9t5v0__oai22_2
X_0810_ net121 _0324_ VDD VSS gf180mcu_fd_sc_mcu9t5v0__clkinv_2
X_0811_ _0323_ _0318_ _0325_ VDD VSS gf180mcu_fd_sc_mcu9t5v0__nor2_2
X_0812_ _0263_ _0262_ _0305_ _0325_ _0326_ VDD VSS gf180mcu_fd_sc_mcu9t5v0__nand4_2
X_0813_ _0296_ _0326_ _0299_ _0327_ VDD VSS gf180mcu_fd_sc_mcu9t5v0__aoi21_2
X_0814_ _0263_ _0261_ _0305_ _0325_ _0328_ VDD VSS gf180mcu_fd_sc_mcu9t5v0__and4_2
X_0815_ _0324_ _0279_ _0329_ VDD VSS gf180mcu_fd_sc_mcu9t5v0__and2_2
X_0816_ net50 _0243_ _0328_ _0329_ _0330_ VDD VSS gf180mcu_fd_sc_mcu9t5v0__aoi22_2
X_0817_ _0324_ _0327_ _0330_ _0248_ _0064_ VDD VSS gf180mcu_fd_sc_mcu9t5v0__oai22_2
X_0818_ net51 _0197_ _0286_ _0468_ _0249_ _0331_ VDD VSS gf180mcu_fd_sc_mcu9t5v0__aoi221_2
X_0819_ _0464_ _0250_ _0331_ _0065_ VDD VSS gf180mcu_fd_sc_mcu9t5v0__aoi21_2
X_0820_ net123 _0332_ VDD VSS gf180mcu_fd_sc_mcu9t5v0__clkinv_2
X_0821_ net118 net119 net120 net121 _0333_ VDD VSS gf180mcu_fd_sc_mcu9t5v0__and4_2
X_0822_ _0333_ _0334_ VDD VSS gf180mcu_fd_sc_mcu9t5v0__clkinv_2
X_0823_ _0240_ _0307_ _0334_ _0335_ VDD VSS gf180mcu_fd_sc_mcu9t5v0__or3_2
X_0824_ _0296_ _0335_ _0299_ _0336_ VDD VSS gf180mcu_fd_sc_mcu9t5v0__aoi21_2
X_0825_ _0240_ _0307_ _0334_ _0337_ VDD VSS gf180mcu_fd_sc_mcu9t5v0__nor3_2
X_0826_ _0332_ _0279_ _0338_ VDD VSS gf180mcu_fd_sc_mcu9t5v0__and2_2
X_0827_ net52 _0243_ _0337_ _0338_ _0339_ VDD VSS gf180mcu_fd_sc_mcu9t5v0__aoi22_2
X_0828_ _0332_ _0336_ _0339_ _0248_ _0066_ VDD VSS gf180mcu_fd_sc_mcu9t5v0__oai22_2
X_0829_ net124 _0340_ VDD VSS gf180mcu_fd_sc_mcu9t5v0__clkinv_2
X_0830_ net123 _0340_ _0304_ _0333_ _0341_ VDD VSS gf180mcu_fd_sc_mcu9t5v0__and4_2
X_0831_ net53 _0251_ _0283_ _0341_ _0342_ VDD VSS gf180mcu_fd_sc_mcu9t5v0__aoi22_2
X_0832_ net123 _0312_ _0333_ _0343_ VDD VSS gf180mcu_fd_sc_mcu9t5v0__and3_2
X_0833_ net124 _0286_ _0344_ VDD VSS gf180mcu_fd_sc_mcu9t5v0__nand2_2
X_0834_ net124 _0299_ _0345_ VDD VSS gf180mcu_fd_sc_mcu9t5v0__nand2_2
X_0835_ _0250_ _0342_ _0343_ _0344_ _0345_ _0067_ VDD VSS
+ gf180mcu_fd_sc_mcu9t5v0__oai221_2
X_0836_ net125 _0346_ VDD VSS gf180mcu_fd_sc_mcu9t5v0__clkinv_2
X_0837_ net123 net124 _0333_ _0347_ VDD VSS gf180mcu_fd_sc_mcu9t5v0__nand3_2
X_0838_ _0240_ _0307_ _0347_ _0348_ VDD VSS gf180mcu_fd_sc_mcu9t5v0__or3_2
X_0839_ _0296_ _0348_ _0299_ _0349_ VDD VSS gf180mcu_fd_sc_mcu9t5v0__aoi21_2
X_0840_ net125 _0347_ _0350_ VDD VSS gf180mcu_fd_sc_mcu9t5v0__nor2_2
X_0841_ net54 _0243_ _0310_ _0350_ _0351_ VDD VSS gf180mcu_fd_sc_mcu9t5v0__aoi22_2
X_0842_ _0346_ _0349_ _0351_ _0248_ _0068_ VDD VSS gf180mcu_fd_sc_mcu9t5v0__oai22_2
X_0843_ net126 _0352_ VDD VSS gf180mcu_fd_sc_mcu9t5v0__clkinv_2
X_0844_ net123 net124 net125 _0333_ _0353_ VDD VSS gf180mcu_fd_sc_mcu9t5v0__and4_2
X_0845_ _0353_ _0354_ VDD VSS gf180mcu_fd_sc_mcu9t5v0__buf_3
X_0846_ _0263_ _0262_ _0305_ _0354_ _0355_ VDD VSS gf180mcu_fd_sc_mcu9t5v0__nand4_2
X_0847_ _0296_ _0355_ _0299_ _0356_ VDD VSS gf180mcu_fd_sc_mcu9t5v0__aoi21_2
X_0848_ _0263_ _0261_ _0305_ _0354_ _0357_ VDD VSS gf180mcu_fd_sc_mcu9t5v0__and4_2
X_0849_ _0352_ _0279_ _0358_ VDD VSS gf180mcu_fd_sc_mcu9t5v0__and2_2
X_0850_ net55 _0243_ _0357_ _0358_ _0359_ VDD VSS gf180mcu_fd_sc_mcu9t5v0__aoi22_2
X_0851_ _0352_ _0356_ _0359_ _0248_ _0069_ VDD VSS gf180mcu_fd_sc_mcu9t5v0__oai22_2
X_0852_ net127 _0360_ VDD VSS gf180mcu_fd_sc_mcu9t5v0__clkinv_2
X_0853_ _0346_ _0347_ _0361_ VDD VSS gf180mcu_fd_sc_mcu9t5v0__or2_2
X_0854_ _0352_ _0240_ _0307_ _0361_ _0362_ VDD VSS gf180mcu_fd_sc_mcu9t5v0__or4_2
X_0855_ _0296_ _0362_ _0299_ _0363_ VDD VSS gf180mcu_fd_sc_mcu9t5v0__aoi21_2
X_0856_ net126 _0360_ _0354_ _0364_ VDD VSS gf180mcu_fd_sc_mcu9t5v0__and3_2
X_0857_ net56 _0243_ _0310_ _0364_ _0365_ VDD VSS gf180mcu_fd_sc_mcu9t5v0__aoi22_2
X_0858_ _0360_ _0363_ _0365_ _0248_ _0070_ VDD VSS gf180mcu_fd_sc_mcu9t5v0__oai22_2
X_0859_ net126 net127 _0366_ VDD VSS gf180mcu_fd_sc_mcu9t5v0__and2_2
X_0860_ _0312_ _0354_ _0366_ _0367_ VDD VSS gf180mcu_fd_sc_mcu9t5v0__and3_2
X_0861_ net128 _0286_ _0368_ VDD VSS gf180mcu_fd_sc_mcu9t5v0__nand2_2
X_0862_ net128 _0369_ VDD VSS gf180mcu_fd_sc_mcu9t5v0__clkinv_2
X_0863_ _0369_ _0215_ _0354_ _0366_ _0370_ VDD VSS gf180mcu_fd_sc_mcu9t5v0__and4_2
X_0864_ net57 _0197_ _0312_ _0370_ _0371_ VDD VSS gf180mcu_fd_sc_mcu9t5v0__aoi22_2
X_0865_ net128 _0299_ _0372_ VDD VSS gf180mcu_fd_sc_mcu9t5v0__nand2_2
X_0866_ _0367_ _0368_ _0371_ _0267_ _0372_ _0071_ VDD VSS
+ gf180mcu_fd_sc_mcu9t5v0__oai221_2
X_0867_ net129 _0373_ VDD VSS gf180mcu_fd_sc_mcu9t5v0__clkinv_2
X_0868_ net128 _0366_ _0374_ VDD VSS gf180mcu_fd_sc_mcu9t5v0__nand2_2
X_0869_ _0240_ _0307_ _0361_ _0374_ _0375_ VDD VSS gf180mcu_fd_sc_mcu9t5v0__or4_2
X_0870_ _0296_ _0375_ _0249_ _0376_ VDD VSS gf180mcu_fd_sc_mcu9t5v0__aoi21_2
X_0871_ net128 _0373_ _0354_ _0366_ _0377_ VDD VSS gf180mcu_fd_sc_mcu9t5v0__and4_2
X_0872_ net58 _0197_ _0378_ VDD VSS gf180mcu_fd_sc_mcu9t5v0__and2_2
X_0873_ _0310_ _0377_ _0378_ _0379_ VDD VSS gf180mcu_fd_sc_mcu9t5v0__aoi21_2
X_0874_ _0373_ _0376_ _0379_ _0267_ _0072_ VDD VSS gf180mcu_fd_sc_mcu9t5v0__oai22_2
X_0875_ net130 _0380_ VDD VSS gf180mcu_fd_sc_mcu9t5v0__clkinv_2
X_0876_ net126 net127 net128 net129 _0381_ VDD VSS gf180mcu_fd_sc_mcu9t5v0__and4_2
X_0877_ _0380_ _0279_ _0381_ _0382_ VDD VSS gf180mcu_fd_sc_mcu9t5v0__and3_2
X_0878_ net59 _0243_ _0357_ _0382_ _0383_ VDD VSS gf180mcu_fd_sc_mcu9t5v0__aoi22_2
X_0879_ _0357_ _0381_ _0384_ VDD VSS gf180mcu_fd_sc_mcu9t5v0__and2_2
X_0880_ net130 _0286_ _0385_ VDD VSS gf180mcu_fd_sc_mcu9t5v0__nand2_2
X_0881_ net130 _0299_ _0386_ VDD VSS gf180mcu_fd_sc_mcu9t5v0__nand2_2
X_0882_ _0250_ _0383_ _0384_ _0385_ _0386_ _0073_ VDD VSS
+ gf180mcu_fd_sc_mcu9t5v0__oai221_2