
* cell pulse_width_detector
* pin pulse_detected
* pin threshold[3]
* pin threshold[4]
* pin threshold[5]
* pin threshold[7]
* pin threshold[6]
* pin clk
* pin threshold[0]
* pin threshold[1]
* pin threshold[2]
* pin rst
* pin signal_in
.SUBCKT pulse_width_detector 1 2 3 4 5 6 85 86 87 100 118 120
* net 1 pulse_detected
* net 2 threshold[3]
* net 3 threshold[4]
* net 4 threshold[5]
* net 5 threshold[7]
* net 6 threshold[6]
* net 85 clk
* net 86 threshold[0]
* net 87 threshold[1]
* net 100 threshold[2]
* net 118 rst
* net 120 signal_in
* cell instance $2 r0 *1 29.44,2.72
X$2 13 8 1 7 13 7 sky130_fd_sc_hd__clkbuf_1
* cell instance $6 r0 *1 30.82,2.72
X$6 13 2 38 7 13 7 sky130_fd_sc_hd__clkbuf_1
* cell instance $9 r0 *1 36.34,2.72
X$9 13 3 9 7 13 7 sky130_fd_sc_hd__clkbuf_1
* cell instance $12 r0 *1 34.96,2.72
X$12 13 4 15 7 13 7 sky130_fd_sc_hd__clkbuf_1
* cell instance $14 r0 *1 37.72,2.72
X$14 13 5 10 7 13 7 sky130_fd_sc_hd__clkbuf_1
* cell instance $18 r0 *1 40.94,2.72
X$18 13 6 14 7 13 7 sky130_fd_sc_hd__clkbuf_1
* cell instance $68 m0 *1 33.58,8.16
X$68 7 16 18 39 15 13 13 7 sky130_fd_sc_hd__ha_1
* cell instance $69 m0 *1 38.18,8.16
X$69 7 19 12 17 14 13 13 7 sky130_fd_sc_hd__ha_1
* cell instance $72 m0 *1 42.78,8.16
X$72 13 12 19 18 7 13 11 7 sky130_fd_sc_hd__a21oi_1
* cell instance $98 r0 *1 31.28,8.16
X$98 13 16 26 19 20 13 24 7 7 sky130_fd_sc_hd__nand4_1
* cell instance $99 r0 *1 33.58,8.16
X$99 7 20 22 21 9 13 13 7 sky130_fd_sc_hd__ha_1
* cell instance $100 r0 *1 38.18,8.16
X$100 13 22 19 16 23 13 7 7 sky130_fd_sc_hd__nand3_1
* cell instance $101 r0 *1 40.02,8.16
X$101 13 23 11 27 13 7 7 sky130_fd_sc_hd__nand2_1
* cell instance $102 r0 *1 41.4,8.16
X$102 13 25 13 7 17 7 sky130_fd_sc_hd__inv_1
* cell instance $129 m0 *1 32.2,13.6
X$129 13 41 28 26 27 13 31 7 7 sky130_fd_sc_hd__a211o_1
* cell instance $130 m0 *1 35.42,13.6
X$130 7 26 28 32 10 13 13 7 sky130_fd_sc_hd__ha_1
* cell instance $132 m0 *1 40.48,13.6
X$132 13 25 32 29 13 7 7 sky130_fd_sc_hd__nand2_1
* cell instance $133 m0 *1 41.86,13.6
X$133 7 30 29 25 62 13 13 7 sky130_fd_sc_hd__mux2i_1
* cell instance $151 r0 *1 21.16,13.6
X$151 7 33 8 40 34 13 13 7 sky130_fd_sc_hd__dfrtp_1
* cell instance $152 r0 *1 30.36,13.6
X$152 13 31 43 46 45 34 13 7 7 sky130_fd_sc_hd__o211ai_1
* cell instance $153 r0 *1 33.12,13.6
X$153 13 8 35 45 13 7 7 sky130_fd_sc_hd__nand2_1
* cell instance $155 r0 *1 38.18,13.6
X$155 13 37 13 7 32 7 sky130_fd_sc_hd__inv_1
* cell instance $156 r0 *1 39.56,13.6
X$156 13 25 35 42 13 7 7 sky130_fd_sc_hd__nand2_1
* cell instance $157 r0 *1 40.94,13.6
X$157 13 41 30 42 13 36 7 7 sky130_fd_sc_hd__o21ai_0
* cell instance $160 r0 *1 43.24,13.6
X$160 7 33 25 57 36 13 13 7 sky130_fd_sc_hd__dfrtp_1
* cell instance $181 m0 *1 27.14,19.04
X$181 13 24 60 48 7 13 43 7 sky130_fd_sc_hd__a21oi_1
* cell instance $184 m0 *1 29.9,19.04
X$184 13 24 84 49 7 13 7 sky130_fd_sc_hd__nor2_1
* cell instance $185 m0 *1 31.28,19.04
X$185 13 8 49 44 13 46 7 7 sky130_fd_sc_hd__o21ai_0
* cell instance $188 m0 *1 37.72,19.04
X$188 13 51 13 7 39 7 sky130_fd_sc_hd__inv_1
* cell instance $209 r0 *1 21.16,19.04
X$209 13 58 77 47 74 60 13 7 7 sky130_fd_sc_hd__o211ai_1
* cell instance $212 r0 *1 26.22,19.04
X$212 13 50 47 61 7 13 48 7 sky130_fd_sc_hd__a21oi_1
* cell instance $214 r0 *1 28.52,19.04
X$214 7 47 50 54 38 13 13 7 sky130_fd_sc_hd__ha_1
* cell instance $215 r0 *1 33.12,19.04
X$215 13 55 13 7 54 7 sky130_fd_sc_hd__inv_1
* cell instance $218 r0 *1 37.26,19.04
X$218 13 64 39 63 13 7 7 sky130_fd_sc_hd__xnor2_1
* cell instance $219 r0 *1 40.48,19.04
X$219 13 51 53 25 52 13 7 7 sky130_fd_sc_hd__nand3_1
* cell instance $223 r0 *1 43.24,19.04
X$223 7 33 51 57 59 13 13 7 sky130_fd_sc_hd__dfrtp_1
* cell instance $238 m0 *1 16.56,24.48
X$238 7 73 58 71 70 13 13 7 sky130_fd_sc_hd__ha_1
* cell instance $239 m0 *1 21.16,24.48
X$239 13 65 13 7 71 7 sky130_fd_sc_hd__inv_1
* cell instance $241 m0 *1 23,24.48
X$241 7 74 61 78 96 13 13 7 sky130_fd_sc_hd__ha_1
* cell instance $246 m0 *1 30.36,24.48
X$246 13 41 54 56 7 13 66 7 sky130_fd_sc_hd__a21oi_1
* cell instance $247 m0 *1 32.2,24.48
X$247 13 66 55 35 7 13 97 7 sky130_fd_sc_hd__a21oi_1
* cell instance $249 m0 *1 34.5,24.48
X$249 13 80 56 67 94 7 13 7 sky130_fd_sc_hd__nor3_1
* cell instance $251 m0 *1 36.8,24.48
X$251 7 64 69 21 67 56 68 13 13 7 sky130_fd_sc_hd__a2111o_1
* cell instance $252 m0 *1 40.94,24.48
X$252 13 53 13 7 21 7 sky130_fd_sc_hd__inv_1
* cell instance $255 m0 *1 42.32,24.48
X$255 13 72 63 59 7 13 7 sky130_fd_sc_hd__nor2_1
* cell instance $256 m0 *1 43.7,24.48
X$256 13 51 53 69 62 13 7 7 sky130_fd_sc_hd__nand3_1
* cell instance $258 m0 *1 47.38,24.48
X$258 13 37 25 53 51 7 13 68 7 sky130_fd_sc_hd__and4_1
* cell instance $278 r0 *1 19.78,24.48
X$278 13 82 73 77 7 13 7 sky130_fd_sc_hd__nor2b_1
* cell instance $279 r0 *1 22.08,24.48
X$279 13 73 47 74 92 13 84 7 7 sky130_fd_sc_hd__nand4_1
* cell instance $281 r0 *1 25.3,24.48
X$281 13 75 13 7 78 7 sky130_fd_sc_hd__inv_1
* cell instance $282 r0 *1 26.68,24.48
X$282 7 56 75 76 65 13 13 7 sky130_fd_sc_hd__nand3_2
* cell instance $283 r0 *1 30.36,24.48
X$283 7 85 81 13 13 7 sky130_fd_sc_hd__clkbuf_8
* cell instance $286 r0 *1 36.8,24.48
X$286 7 79 37 67 56 52 69 13 13 7 sky130_fd_sc_hd__o41ai_1
* cell instance $287 r0 *1 40.02,24.48
X$287 13 37 52 56 67 83 13 7 7 sky130_fd_sc_hd__or4_1
* cell instance $290 r0 *1 43.24,24.48
X$290 7 81 57 13 13 7 sky130_fd_sc_hd__clkbuf_8
* cell instance $308 m0 *1 5.98,29.92
X$308 13 86 88 7 13 7 sky130_fd_sc_hd__clkbuf_1
* cell instance $309 m0 *1 7.36,29.92
X$309 13 87 70 7 13 7 sky130_fd_sc_hd__clkbuf_1
* cell instance $312 m0 *1 11.04,29.92
X$312 13 88 13 7 91 7 sky130_fd_sc_hd__inv_1
* cell instance $316 m0 *1 17.48,29.92
X$316 7 92 82 76 91 13 13 7 sky130_fd_sc_hd__ha_1
* cell instance $318 m0 *1 23,29.92
X$318 13 89 41 93 13 95 7 7 sky130_fd_sc_hd__o21ai_0
* cell instance $319 m0 *1 24.84,29.92
X$319 13 80 76 13 89 7 7 sky130_fd_sc_hd__xor2_1
* cell instance $322 m0 *1 29.44,29.92
X$322 7 33 55 40 98 13 13 7 sky130_fd_sc_hd__dfrtp_1
* cell instance $325 m0 *1 40.02,29.92
X$325 13 57 121 7 13 7 sky130_fd_sc_hd__clkbuf_1
* cell instance $326 m0 *1 41.4,29.92
X$326 13 72 79 83 7 13 90 7 sky130_fd_sc_hd__a21oi_1
* cell instance $328 m0 *1 44.16,29.92
X$328 7 33 37 57 90 13 13 7 sky130_fd_sc_hd__dfrtp_1
* cell instance $339 r0 *1 3.68,29.92
X$339 13 100 96 7 13 7 sky130_fd_sc_hd__clkbuf_1
* cell instance $348 r0 *1 15.64,29.92
X$348 7 33 76 40 95 13 13 7 sky130_fd_sc_hd__dfrtp_1
* cell instance $349 r0 *1 24.84,29.92
X$349 13 76 35 93 13 7 7 sky130_fd_sc_hd__nand2_1
* cell instance $353 r0 *1 32.2,29.92
X$353 13 94 97 98 7 13 7 sky130_fd_sc_hd__nor2_1
* cell instance $355 r0 *1 34.04,29.92
X$355 13 101 55 67 13 7 7 sky130_fd_sc_hd__nand2_1
* cell instance $357 r0 *1 35.88,29.92
X$357 13 99 13 7 80 7 sky130_fd_sc_hd__clkbuf_2
* cell instance $359 r0 *1 38.64,29.92
X$359 13 69 68 99 13 7 7 sky130_fd_sc_hd__and2_0
* cell instance $366 r0 *1 44.16,29.92
X$366 13 68 69 108 7 13 7 sky130_fd_sc_hd__nor2b_1
* cell instance $385 m0 *1 21.16,35.36
X$385 7 81 40 13 13 7 sky130_fd_sc_hd__clkbuf_8
* cell instance $391 m0 *1 30.82,35.36
X$391 13 75 101 102 7 13 109 7 sky130_fd_sc_hd__a21oi_1
* cell instance $393 m0 *1 33.12,35.36
X$393 7 75 103 55 102 13 13 7 sky130_fd_sc_hd__and3_1
* cell instance $396 m0 *1 36.8,35.36
X$396 13 103 13 7 69 7 sky130_fd_sc_hd__clkbuf_2
* cell instance $399 m0 *1 43.24,35.36
X$399 13 53 69 104 7 13 7 sky130_fd_sc_hd__nor2_1
* cell instance $400 m0 *1 44.62,35.36
X$400 13 104 53 108 7 13 105 7 sky130_fd_sc_hd__a21oi_1
* cell instance $421 r0 *1 23.92,35.36
X$421 7 115 102 76 65 13 13 7 sky130_fd_sc_hd__ha_1
* cell instance $423 r0 *1 32.2,35.36
X$423 13 72 111 109 113 7 13 7 sky130_fd_sc_hd__nor3_1
* cell instance $424 r0 *1 34.04,35.36
X$424 13 101 75 102 106 13 7 7 sky130_fd_sc_hd__nand3_1
* cell instance $425 r0 *1 35.88,35.36
X$425 13 80 106 111 7 13 7 sky130_fd_sc_hd__nor2_1
* cell instance $426 r0 *1 37.26,35.36
X$426 13 101 112 44 13 7 7 sky130_fd_sc_hd__and2_0
* cell instance $427 r0 *1 39.56,35.36
X$427 13 44 105 53 35 7 107 13 7 sky130_fd_sc_hd__a22o_1
* cell instance $431 r0 *1 43.24,35.36
X$431 7 33 53 57 107 13 13 7 sky130_fd_sc_hd__dfrtp_2
* cell instance $447 m0 *1 21.62,40.8
X$447 13 65 35 110 13 7 7 sky130_fd_sc_hd__nand2_1
* cell instance $448 m0 *1 23,40.8
X$448 7 114 115 65 80 13 13 7 sky130_fd_sc_hd__mux2i_1
* cell instance $449 m0 *1 26.68,40.8
X$449 13 41 114 110 13 117 7 7 sky130_fd_sc_hd__o21ai_0
* cell instance $452 m0 *1 29.44,40.8
X$452 7 33 75 57 113 13 13 7 sky130_fd_sc_hd__dfrtp_1
* cell instance $453 m0 *1 38.64,40.8
X$453 7 7 112 41 101 13 13 sky130_fd_sc_hd__nand2_2
* cell instance $454 m0 *1 40.94,40.8
X$454 13 112 101 13 72 7 7 sky130_fd_sc_hd__xor2_1
* cell instance $477 r0 *1 20.7,40.8
X$477 7 33 65 40 117 13 13 7 sky130_fd_sc_hd__dfrtp_1
* cell instance $478 r0 *1 29.9,40.8
X$478 7 33 112 40 101 13 13 7 sky130_fd_sc_hd__dfrtp_1
* cell instance $479 r0 *1 39.1,40.8
X$479 7 7 35 13 101 112 13 sky130_fd_sc_hd__nor2_2
* cell instance $513 m0 *1 53.36,46.24
X$513 13 116 7 33 13 7 sky130_fd_sc_hd__clkinv_4
* cell instance $566 r0 *1 56.58,46.24
X$566 7 116 119 13 13 7 sky130_fd_sc_hd__dlymetal6s2s_1
* cell instance $573 m0 *1 63.94,51.68
X$573 13 118 13 119 7 7 sky130_fd_sc_hd__dlygate4sd3_1
* cell instance $727 m0 *1 40.02,68
X$727 13 120 7 101 13 7 sky130_fd_sc_hd__buf_2
.ENDS pulse_width_detector

* cell sky130_fd_sc_hd__and4_1
* pin VPB
* pin D
* pin C
* pin B
* pin A
* pin VGND
* pin VPWR
* pin X
* pin 
.SUBCKT sky130_fd_sc_hd__and4_1 1 3 4 5 6 7 8 9 10
* net 1 VPB
* net 3 D
* net 4 C
* net 5 B
* net 6 A
* net 7 VGND
* net 8 VPWR
* net 9 X
* device instance $1 r0 *1 0.47,2.275 pfet_01v8_hvt
M$1 2 6 8 1 pfet_01v8_hvt L=150000U W=420000U AS=109200000000P AD=73500000000P
+ PS=1360000U PD=770000U
* device instance $2 r0 *1 0.97,2.275 pfet_01v8_hvt
M$2 8 5 2 1 pfet_01v8_hvt L=150000U W=420000U AS=73500000000P AD=77700000000P
+ PS=770000U PD=790000U
* device instance $3 r0 *1 1.49,2.275 pfet_01v8_hvt
M$3 2 4 8 1 pfet_01v8_hvt L=150000U W=420000U AS=77700000000P AD=58800000000P
+ PS=790000U PD=700000U
* device instance $4 r0 *1 1.92,2.275 pfet_01v8_hvt
M$4 2 3 8 1 pfet_01v8_hvt L=150000U W=420000U AS=312450000000P AD=58800000000P
+ PS=1680000U PD=700000U
* device instance $5 r0 *1 2.75,1.985 pfet_01v8_hvt
M$5 9 2 8 1 pfet_01v8_hvt L=150000U W=1000000U AS=312450000000P
+ AD=260000000000P PS=1680000U PD=2520000U
* device instance $6 r0 *1 0.47,0.445 nfet_01v8
M$6 13 6 2 10 nfet_01v8 L=150000U W=420000U AS=109200000000P AD=60900000000P
+ PS=1360000U PD=710000U
* device instance $7 r0 *1 0.91,0.445 nfet_01v8
M$7 11 5 13 10 nfet_01v8 L=150000U W=420000U AS=60900000000P AD=79800000000P
+ PS=710000U PD=800000U
* device instance $8 r0 *1 1.44,0.445 nfet_01v8
M$8 12 4 11 10 nfet_01v8 L=150000U W=420000U AS=79800000000P AD=69300000000P
+ PS=800000U PD=750000U
* device instance $9 r0 *1 1.92,0.445 nfet_01v8
M$9 7 3 12 10 nfet_01v8 L=150000U W=420000U AS=69300000000P AD=196275000000P
+ PS=750000U PD=1330000U
* device instance $10 r0 *1 2.75,0.56 nfet_01v8
M$10 9 2 7 10 nfet_01v8 L=150000U W=650000U AS=196275000000P AD=169000000000P
+ PS=1330000U PD=1820000U
.ENDS sky130_fd_sc_hd__and4_1

* cell sky130_fd_sc_hd__or4_1
* pin VPB
* pin A
* pin B
* pin C
* pin D
* pin X
* pin VPWR
* pin VGND
* pin 
.SUBCKT sky130_fd_sc_hd__or4_1 1 2 3 4 5 7 8 9 10
* net 1 VPB
* net 2 A
* net 3 B
* net 4 C
* net 5 D
* net 7 X
* net 8 VPWR
* net 9 VGND
* device instance $1 r0 *1 0.47,1.695 pfet_01v8_hvt
M$1 13 5 6 1 pfet_01v8_hvt L=150000U W=420000U AS=109200000000P AD=69300000000P
+ PS=1360000U PD=750000U
* device instance $2 r0 *1 0.95,1.695 pfet_01v8_hvt
M$2 12 4 13 1 pfet_01v8_hvt L=150000U W=420000U AS=69300000000P AD=44100000000P
+ PS=750000U PD=630000U
* device instance $3 r0 *1 1.31,1.695 pfet_01v8_hvt
M$3 11 3 12 1 pfet_01v8_hvt L=150000U W=420000U AS=44100000000P AD=69300000000P
+ PS=630000U PD=750000U
* device instance $4 r0 *1 1.79,1.695 pfet_01v8_hvt
M$4 8 2 11 1 pfet_01v8_hvt L=150000U W=420000U AS=69300000000P AD=148250000000P
+ PS=750000U PD=1340000U
* device instance $5 r0 *1 2.28,1.985 pfet_01v8_hvt
M$5 7 6 8 1 pfet_01v8_hvt L=150000U W=1000000U AS=148250000000P
+ AD=270000000000P PS=1340000U PD=2540000U
* device instance $6 r0 *1 0.47,0.475 nfet_01v8
M$6 6 5 9 10 nfet_01v8 L=150000U W=420000U AS=109200000000P AD=69300000000P
+ PS=1360000U PD=750000U
* device instance $7 r0 *1 0.95,0.475 nfet_01v8
M$7 9 4 6 10 nfet_01v8 L=150000U W=420000U AS=69300000000P AD=56700000000P
+ PS=750000U PD=690000U
* device instance $8 r0 *1 1.37,0.475 nfet_01v8
M$8 6 3 9 10 nfet_01v8 L=150000U W=420000U AS=56700000000P AD=56700000000P
+ PS=690000U PD=690000U
* device instance $9 r0 *1 1.79,0.475 nfet_01v8
M$9 6 2 9 10 nfet_01v8 L=150000U W=420000U AS=101875000000P AD=56700000000P
+ PS=990000U PD=690000U
* device instance $10 r0 *1 2.28,0.56 nfet_01v8
M$10 7 6 9 10 nfet_01v8 L=150000U W=650000U AS=101875000000P AD=175500000000P
+ PS=990000U PD=1840000U
.ENDS sky130_fd_sc_hd__or4_1

* cell sky130_fd_sc_hd__o41ai_1
* pin VGND
* pin Y
* pin B1
* pin A4
* pin A3
* pin A2
* pin A1
* pin VPWR
* pin VPB
* pin 
.SUBCKT sky130_fd_sc_hd__o41ai_1 1 2 4 5 6 7 8 9 10 14
* net 1 VGND
* net 2 Y
* net 4 B1
* net 5 A4
* net 6 A3
* net 7 A2
* net 8 A1
* net 9 VPWR
* net 10 VPB
* device instance $1 r0 *1 0.47,1.985 pfet_01v8_hvt
M$1 2 4 9 10 pfet_01v8_hvt L=150000U W=1000000U AS=260000000000P
+ AD=135000000000P PS=2520000U PD=1270000U
* device instance $2 r0 *1 0.89,1.985 pfet_01v8_hvt
M$2 11 5 2 10 pfet_01v8_hvt L=150000U W=1000000U AS=135000000000P
+ AD=312500000000P PS=1270000U PD=1625000U
* device instance $3 r0 *1 1.665,1.985 pfet_01v8_hvt
M$3 13 6 11 10 pfet_01v8_hvt L=150000U W=1000000U AS=312500000000P
+ AD=135000000000P PS=1625000U PD=1270000U
* device instance $4 r0 *1 2.085,1.985 pfet_01v8_hvt
M$4 12 7 13 10 pfet_01v8_hvt L=150000U W=1000000U AS=135000000000P
+ AD=175000000000P PS=1270000U PD=1350000U
* device instance $5 r0 *1 2.585,1.985 pfet_01v8_hvt
M$5 9 8 12 10 pfet_01v8_hvt L=150000U W=1000000U AS=175000000000P
+ AD=280000000000P PS=1350000U PD=2560000U
* device instance $6 r0 *1 0.47,0.56 nfet_01v8
M$6 3 4 2 14 nfet_01v8 L=150000U W=650000U AS=169000000000P AD=203125000000P
+ PS=1820000U PD=1275000U
* device instance $7 r0 *1 1.245,0.56 nfet_01v8
M$7 1 5 3 14 nfet_01v8 L=150000U W=650000U AS=203125000000P AD=87750000000P
+ PS=1275000U PD=920000U
* device instance $8 r0 *1 1.665,0.56 nfet_01v8
M$8 3 6 1 14 nfet_01v8 L=150000U W=650000U AS=87750000000P AD=87750000000P
+ PS=920000U PD=920000U
* device instance $9 r0 *1 2.085,0.56 nfet_01v8
M$9 1 7 3 14 nfet_01v8 L=150000U W=650000U AS=87750000000P AD=113750000000P
+ PS=920000U PD=1000000U
* device instance $10 r0 *1 2.585,0.56 nfet_01v8
M$10 3 8 1 14 nfet_01v8 L=150000U W=650000U AS=113750000000P AD=182000000000P
+ PS=1000000U PD=1860000U
.ENDS sky130_fd_sc_hd__o41ai_1

* cell sky130_fd_sc_hd__a2111o_1
* pin VGND
* pin X
* pin A1
* pin D1
* pin C1
* pin B1
* pin A2
* pin VPB
* pin VPWR
* pin 
.SUBCKT sky130_fd_sc_hd__a2111o_1 1 2 4 5 6 7 8 11 12 15
* net 1 VGND
* net 2 X
* net 4 A1
* net 5 D1
* net 6 C1
* net 7 B1
* net 8 A2
* net 11 VPB
* net 12 VPWR
* device instance $1 r0 *1 1.595,1.985 pfet_01v8_hvt
M$1 13 5 3 11 pfet_01v8_hvt L=150000U W=1000000U AS=385000000000P
+ AD=125000000000P PS=2770000U PD=1250000U
* device instance $2 r0 *1 1.995,1.985 pfet_01v8_hvt
M$2 14 6 13 11 pfet_01v8_hvt L=150000U W=1000000U AS=125000000000P
+ AD=180000000000P PS=1250000U PD=1360000U
* device instance $3 r0 *1 2.505,1.985 pfet_01v8_hvt
M$3 10 7 14 11 pfet_01v8_hvt L=150000U W=1000000U AS=180000000000P
+ AD=280000000000P PS=1360000U PD=1560000U
* device instance $4 r0 *1 3.215,1.985 pfet_01v8_hvt
M$4 12 4 10 11 pfet_01v8_hvt L=150000U W=1000000U AS=280000000000P
+ AD=135000000000P PS=1560000U PD=1270000U
* device instance $5 r0 *1 3.635,1.985 pfet_01v8_hvt
M$5 10 8 12 11 pfet_01v8_hvt L=150000U W=1000000U AS=135000000000P
+ AD=290000000000P PS=1270000U PD=2580000U
* device instance $6 r0 *1 0.5,1.985 pfet_01v8_hvt
M$6 12 3 2 11 pfet_01v8_hvt L=150000U W=1000000U AS=290000000000P
+ AD=265000000000P PS=2580000U PD=2530000U
* device instance $7 r0 *1 0.54,0.56 nfet_01v8
M$7 1 3 2 15 nfet_01v8 L=150000U W=650000U AS=214500000000P AD=274625000000P
+ PS=1960000U PD=1495000U
* device instance $8 r0 *1 1.535,0.56 nfet_01v8
M$8 3 5 1 15 nfet_01v8 L=150000U W=650000U AS=274625000000P AD=100750000000P
+ PS=1495000U PD=960000U
* device instance $9 r0 *1 1.995,0.56 nfet_01v8
M$9 1 6 3 15 nfet_01v8 L=150000U W=650000U AS=100750000000P AD=117000000000P
+ PS=960000U PD=1010000U
* device instance $10 r0 *1 2.505,0.56 nfet_01v8
M$10 3 7 1 15 nfet_01v8 L=150000U W=650000U AS=117000000000P AD=185250000000P
+ PS=1010000U PD=1220000U
* device instance $11 r0 *1 3.225,0.56 nfet_01v8
M$11 9 4 3 15 nfet_01v8 L=150000U W=650000U AS=185250000000P AD=82875000000P
+ PS=1220000U PD=905000U
* device instance $12 r0 *1 3.63,0.56 nfet_01v8
M$12 1 8 9 15 nfet_01v8 L=150000U W=650000U AS=82875000000P AD=188500000000P
+ PS=905000U PD=1880000U
.ENDS sky130_fd_sc_hd__a2111o_1

* cell sky130_fd_sc_hd__xnor2_1
* pin VPB
* pin B
* pin A
* pin Y
* pin VPWR
* pin VGND
* pin 
.SUBCKT sky130_fd_sc_hd__xnor2_1 1 2 3 4 5 7 9
* net 1 VPB
* net 2 B
* net 3 A
* net 4 Y
* net 5 VPWR
* net 7 VGND
* device instance $1 r0 *1 0.51,1.985 pfet_01v8_hvt
M$1 8 2 5 1 pfet_01v8_hvt L=150000U W=1000000U AS=300000000000P
+ AD=135000000000P PS=2600000U PD=1270000U
* device instance $2 r0 *1 0.93,1.985 pfet_01v8_hvt
M$2 5 3 8 1 pfet_01v8_hvt L=150000U W=1000000U AS=135000000000P
+ AD=365000000000P PS=1270000U PD=1730000U
* device instance $3 r0 *1 1.81,1.985 pfet_01v8_hvt
M$3 10 3 5 1 pfet_01v8_hvt L=150000U W=1000000U AS=365000000000P
+ AD=105000000000P PS=1730000U PD=1210000U
* device instance $4 r0 *1 2.17,1.985 pfet_01v8_hvt
M$4 4 2 10 1 pfet_01v8_hvt L=150000U W=1000000U AS=105000000000P
+ AD=165000000000P PS=1210000U PD=1330000U
* device instance $5 r0 *1 2.65,1.985 pfet_01v8_hvt
M$5 5 8 4 1 pfet_01v8_hvt L=150000U W=1000000U AS=165000000000P
+ AD=360000000000P PS=1330000U PD=2720000U
* device instance $6 r0 *1 2.29,0.56 nfet_01v8
M$6 6 2 7 9 nfet_01v8 L=150000U W=650000U AS=169000000000P AD=87750000000P
+ PS=1820000U PD=920000U
* device instance $7 r0 *1 2.71,0.56 nfet_01v8
M$7 4 8 6 9 nfet_01v8 L=150000U W=650000U AS=87750000000P AD=195000000000P
+ PS=920000U PD=1900000U
* device instance $8 r0 *1 0.57,0.56 nfet_01v8
M$8 11 2 8 9 nfet_01v8 L=150000U W=650000U AS=169000000000P AD=68250000000P
+ PS=1820000U PD=860000U
* device instance $9 r0 *1 0.93,0.56 nfet_01v8
M$9 7 3 11 9 nfet_01v8 L=150000U W=650000U AS=68250000000P AD=87750000000P
+ PS=860000U PD=920000U
* device instance $10 r0 *1 1.35,0.56 nfet_01v8
M$10 6 3 7 9 nfet_01v8 L=150000U W=650000U AS=87750000000P AD=169000000000P
+ PS=920000U PD=1820000U
.ENDS sky130_fd_sc_hd__xnor2_1

* cell sky130_fd_sc_hd__a211o_1
* pin VPB
* pin B1
* pin C1
* pin A1
* pin A2
* pin VPWR
* pin X
* pin VGND
* pin 
.SUBCKT sky130_fd_sc_hd__a211o_1 1 2 3 4 5 7 8 9 11
* net 1 VPB
* net 2 B1
* net 3 C1
* net 4 A1
* net 5 A2
* net 7 VPWR
* net 8 X
* net 9 VGND
* device instance $1 r0 *1 1.425,1.985 pfet_01v8_hvt
M$1 7 5 10 1 pfet_01v8_hvt L=150000U W=1000000U AS=265000000000P
+ AD=140000000000P PS=2530000U PD=1280000U
* device instance $2 r0 *1 1.855,1.985 pfet_01v8_hvt
M$2 10 4 7 1 pfet_01v8_hvt L=150000U W=1000000U AS=140000000000P
+ AD=140000000000P PS=1280000U PD=1280000U
* device instance $3 r0 *1 2.285,1.985 pfet_01v8_hvt
M$3 12 2 10 1 pfet_01v8_hvt L=150000U W=1000000U AS=140000000000P
+ AD=155000000000P PS=1280000U PD=1310000U
* device instance $4 r0 *1 2.745,1.985 pfet_01v8_hvt
M$4 6 3 12 1 pfet_01v8_hvt L=150000U W=1000000U AS=155000000000P
+ AD=265000000000P PS=1310000U PD=2530000U
* device instance $5 r0 *1 0.475,1.985 pfet_01v8_hvt
M$5 7 6 8 1 pfet_01v8_hvt L=150000U W=1000000U AS=265000000000P
+ AD=265000000000P PS=2530000U PD=2530000U
* device instance $6 r0 *1 0.475,0.56 nfet_01v8
M$6 9 6 8 11 nfet_01v8 L=150000U W=650000U AS=172250000000P AD=260000000000P
+ PS=1830000U PD=1450000U
* device instance $7 r0 *1 1.425,0.56 nfet_01v8
M$7 13 5 9 11 nfet_01v8 L=150000U W=650000U AS=260000000000P AD=91000000000P
+ PS=1450000U PD=930000U
* device instance $8 r0 *1 1.855,0.56 nfet_01v8
M$8 6 4 13 11 nfet_01v8 L=150000U W=650000U AS=91000000000P AD=91000000000P
+ PS=930000U PD=930000U
* device instance $9 r0 *1 2.285,0.56 nfet_01v8
M$9 9 2 6 11 nfet_01v8 L=150000U W=650000U AS=91000000000P AD=100750000000P
+ PS=930000U PD=960000U
* device instance $10 r0 *1 2.745,0.56 nfet_01v8
M$10 6 3 9 11 nfet_01v8 L=150000U W=650000U AS=100750000000P AD=172250000000P
+ PS=960000U PD=1830000U
.ENDS sky130_fd_sc_hd__a211o_1

* cell sky130_fd_sc_hd__nand4_1
* pin VPB
* pin C
* pin A
* pin B
* pin D
* pin VPWR
* pin Y
* pin VGND
* pin 
.SUBCKT sky130_fd_sc_hd__nand4_1 1 2 3 4 5 6 7 8 9
* net 1 VPB
* net 2 C
* net 3 A
* net 4 B
* net 5 D
* net 6 VPWR
* net 7 Y
* net 8 VGND
* device instance $1 r0 *1 0.47,1.985 pfet_01v8_hvt
M$1 7 5 6 1 pfet_01v8_hvt L=150000U W=1000000U AS=260000000000P
+ AD=135000000000P PS=2520000U PD=1270000U
* device instance $2 r0 *1 0.89,1.985 pfet_01v8_hvt
M$2 6 2 7 1 pfet_01v8_hvt L=150000U W=1000000U AS=135000000000P
+ AD=135000000000P PS=1270000U PD=1270000U
* device instance $3 r0 *1 1.31,1.985 pfet_01v8_hvt
M$3 7 4 6 1 pfet_01v8_hvt L=150000U W=1000000U AS=135000000000P
+ AD=165000000000P PS=1270000U PD=1330000U
* device instance $4 r0 *1 1.79,1.985 pfet_01v8_hvt
M$4 6 3 7 1 pfet_01v8_hvt L=150000U W=1000000U AS=165000000000P
+ AD=300000000000P PS=1330000U PD=2600000U
* device instance $5 r0 *1 0.47,0.56 nfet_01v8
M$5 12 5 8 9 nfet_01v8 L=150000U W=650000U AS=169000000000P AD=87750000000P
+ PS=1820000U PD=920000U
* device instance $6 r0 *1 0.89,0.56 nfet_01v8
M$6 11 2 12 9 nfet_01v8 L=150000U W=650000U AS=87750000000P AD=87750000000P
+ PS=920000U PD=920000U
* device instance $7 r0 *1 1.31,0.56 nfet_01v8
M$7 10 4 11 9 nfet_01v8 L=150000U W=650000U AS=87750000000P AD=107250000000P
+ PS=920000U PD=980000U
* device instance $8 r0 *1 1.79,0.56 nfet_01v8
M$8 7 3 10 9 nfet_01v8 L=150000U W=650000U AS=107250000000P AD=195000000000P
+ PS=980000U PD=1900000U
.ENDS sky130_fd_sc_hd__nand4_1

* cell sky130_fd_sc_hd__nor2b_1
* pin VPB
* pin A
* pin B_N
* pin Y
* pin VGND
* pin VPWR
* pin 
.SUBCKT sky130_fd_sc_hd__nor2b_1 1 2 3 4 6 7 8
* net 1 VPB
* net 2 A
* net 3 B_N
* net 4 Y
* net 6 VGND
* net 7 VPWR
* device instance $1 r0 *1 0.71,1.695 pfet_01v8_hvt
M$1 7 3 5 1 pfet_01v8_hvt L=150000U W=420000U AS=109200000000P AD=157300000000P
+ PS=1360000U PD=1390000U
* device instance $2 r0 *1 1.25,1.985 pfet_01v8_hvt
M$2 9 2 7 1 pfet_01v8_hvt L=150000U W=1000000U AS=157300000000P
+ AD=105000000000P PS=1390000U PD=1210000U
* device instance $3 r0 *1 1.61,1.985 pfet_01v8_hvt
M$3 4 5 9 1 pfet_01v8_hvt L=150000U W=1000000U AS=105000000000P
+ AD=260000000000P PS=1210000U PD=2520000U
* device instance $4 r0 *1 0.705,0.445 nfet_01v8
M$4 6 3 5 8 nfet_01v8 L=150000U W=420000U AS=109200000000P AD=100250000000P
+ PS=1360000U PD=985000U
* device instance $5 r0 *1 1.19,0.56 nfet_01v8
M$5 4 2 6 8 nfet_01v8 L=150000U W=650000U AS=100250000000P AD=87750000000P
+ PS=985000U PD=920000U
* device instance $6 r0 *1 1.61,0.56 nfet_01v8
M$6 6 5 4 8 nfet_01v8 L=150000U W=650000U AS=87750000000P AD=169000000000P
+ PS=920000U PD=1820000U
.ENDS sky130_fd_sc_hd__nor2b_1

* cell sky130_fd_sc_hd__nand3_2
* pin VGND
* pin Y
* pin A
* pin B
* pin C
* pin VPWR
* pin VPB
* pin 
.SUBCKT sky130_fd_sc_hd__nand3_2 1 3 5 6 7 8 9 10
* net 1 VGND
* net 3 Y
* net 5 A
* net 6 B
* net 7 C
* net 8 VPWR
* net 9 VPB
* device instance $1 r0 *1 2.67,1.985 pfet_01v8_hvt
M$1 3 7 8 9 pfet_01v8_hvt L=150000U W=2000000U AS=395000000000P
+ AD=445000000000P PS=3790000U PD=3890000U
* device instance $3 r0 *1 0.47,1.985 pfet_01v8_hvt
M$3 3 5 8 9 pfet_01v8_hvt L=150000U W=2000000U AS=395000000000P
+ AD=270000000000P PS=3790000U PD=2540000U
* device instance $5 r0 *1 1.31,1.985 pfet_01v8_hvt
M$5 3 6 8 9 pfet_01v8_hvt L=150000U W=2000000U AS=270000000000P
+ AD=395000000000P PS=2540000U PD=3790000U
* device instance $7 r0 *1 2.67,0.56 nfet_01v8
M$7 4 7 1 10 nfet_01v8 L=150000U W=1300000U AS=256750000000P AD=289250000000P
+ PS=2740000U PD=2840000U
* device instance $9 r0 *1 0.47,0.56 nfet_01v8
M$9 3 5 2 10 nfet_01v8 L=150000U W=1300000U AS=256750000000P AD=175500000000P
+ PS=2740000U PD=1840000U
* device instance $11 r0 *1 1.31,0.56 nfet_01v8
M$11 4 6 2 10 nfet_01v8 L=150000U W=1300000U AS=175500000000P AD=256750000000P
+ PS=1840000U PD=2740000U
.ENDS sky130_fd_sc_hd__nand3_2

* cell sky130_fd_sc_hd__o211ai_1
* pin VPB
* pin A1
* pin A2
* pin B1
* pin C1
* pin Y
* pin VPWR
* pin VGND
* pin 
.SUBCKT sky130_fd_sc_hd__o211ai_1 1 2 3 4 5 7 8 9 10
* net 1 VPB
* net 2 A1
* net 3 A2
* net 4 B1
* net 5 C1
* net 7 Y
* net 8 VPWR
* net 9 VGND
* device instance $1 r0 *1 0.475,1.985 pfet_01v8_hvt
M$1 11 2 8 1 pfet_01v8_hvt L=150000U W=1000000U AS=265000000000P
+ AD=105000000000P PS=2530000U PD=1210000U
* device instance $2 r0 *1 0.835,1.985 pfet_01v8_hvt
M$2 7 3 11 1 pfet_01v8_hvt L=150000U W=1000000U AS=105000000000P
+ AD=195000000000P PS=1210000U PD=1390000U
* device instance $3 r0 *1 1.375,1.985 pfet_01v8_hvt
M$3 8 4 7 1 pfet_01v8_hvt L=150000U W=1000000U AS=195000000000P
+ AD=195000000000P PS=1390000U PD=1390000U
* device instance $4 r0 *1 1.915,1.985 pfet_01v8_hvt
M$4 7 5 8 1 pfet_01v8_hvt L=150000U W=1000000U AS=195000000000P
+ AD=635000000000P PS=1390000U PD=3270000U
* device instance $5 r0 *1 0.475,0.56 nfet_01v8
M$5 9 2 6 10 nfet_01v8 L=150000U W=650000U AS=172250000000P AD=126750000000P
+ PS=1830000U PD=1040000U
* device instance $6 r0 *1 1.015,0.56 nfet_01v8
M$6 6 3 9 10 nfet_01v8 L=150000U W=650000U AS=126750000000P AD=126750000000P
+ PS=1040000U PD=1040000U
* device instance $7 r0 *1 1.555,0.56 nfet_01v8
M$7 12 4 6 10 nfet_01v8 L=150000U W=650000U AS=126750000000P AD=68250000000P
+ PS=1040000U PD=860000U
* device instance $8 r0 *1 1.915,0.56 nfet_01v8
M$8 7 5 12 10 nfet_01v8 L=150000U W=650000U AS=68250000000P AD=393250000000P
+ PS=860000U PD=2510000U
.ENDS sky130_fd_sc_hd__o211ai_1

* cell sky130_fd_sc_hd__inv_1
* pin VPB
* pin A
* pin VPWR
* pin VGND
* pin Y
* pin 
.SUBCKT sky130_fd_sc_hd__inv_1 1 2 3 4 5 6
* net 1 VPB
* net 2 A
* net 3 VPWR
* net 4 VGND
* net 5 Y
* device instance $1 r0 *1 0.675,1.985 pfet_01v8_hvt
M$1 5 2 3 1 pfet_01v8_hvt L=150000U W=1000000U AS=260000000000P
+ AD=260000000000P PS=2520000U PD=2520000U
* device instance $2 r0 *1 0.675,0.56 nfet_01v8
M$2 5 2 4 6 nfet_01v8 L=150000U W=650000U AS=169000000000P AD=169000000000P
+ PS=1820000U PD=1820000U
.ENDS sky130_fd_sc_hd__inv_1

* cell sky130_fd_sc_hd__mux2i_1
* pin VGND
* pin Y
* pin A0
* pin A1
* pin S
* pin VPWR
* pin VPB
* pin 
.SUBCKT sky130_fd_sc_hd__mux2i_1 1 3 6 7 8 10 11 13
* net 1 VGND
* net 3 Y
* net 6 A0
* net 7 A1
* net 8 S
* net 10 VPWR
* net 11 VPB
* device instance $1 r0 *1 3.21,1.985 pfet_01v8_hvt
M$1 10 8 5 11 pfet_01v8_hvt L=150000U W=1000000U AS=290000000000P
+ AD=260000000000P PS=2580000U PD=2520000U
* device instance $2 r0 *1 0.49,1.985 pfet_01v8_hvt
M$2 3 6 9 11 pfet_01v8_hvt L=150000U W=1000000U AS=280000000000P
+ AD=152500000000P PS=2560000U PD=1305000U
* device instance $3 r0 *1 0.945,1.985 pfet_01v8_hvt
M$3 12 7 3 11 pfet_01v8_hvt L=150000U W=1000000U AS=152500000000P
+ AD=197500000000P PS=1305000U PD=1395000U
* device instance $4 r0 *1 1.49,1.985 pfet_01v8_hvt
M$4 10 5 12 11 pfet_01v8_hvt L=150000U W=1000000U AS=197500000000P
+ AD=300000000000P PS=1395000U PD=1600000U
* device instance $5 r0 *1 2.24,1.985 pfet_01v8_hvt
M$5 9 8 10 11 pfet_01v8_hvt L=150000U W=1000000U AS=300000000000P
+ AD=260000000000P PS=1600000U PD=2520000U
* device instance $6 r0 *1 3.21,0.56 nfet_01v8
M$6 1 8 5 13 nfet_01v8 L=150000U W=650000U AS=169000000000P AD=169000000000P
+ PS=1820000U PD=1820000U
* device instance $7 r0 *1 1.85,0.56 nfet_01v8
M$7 1 5 2 13 nfet_01v8 L=150000U W=650000U AS=169000000000P AD=87750000000P
+ PS=1820000U PD=920000U
* device instance $8 r0 *1 2.27,0.56 nfet_01v8
M$8 4 8 1 13 nfet_01v8 L=150000U W=650000U AS=87750000000P AD=169000000000P
+ PS=920000U PD=1820000U
* device instance $9 r0 *1 0.47,0.56 nfet_01v8
M$9 3 6 2 13 nfet_01v8 L=150000U W=650000U AS=169000000000P AD=87750000000P
+ PS=1820000U PD=920000U
* device instance $10 r0 *1 0.89,0.56 nfet_01v8
M$10 4 7 3 13 nfet_01v8 L=150000U W=650000U AS=87750000000P AD=182000000000P
+ PS=920000U PD=1860000U
.ENDS sky130_fd_sc_hd__mux2i_1

* cell sky130_fd_sc_hd__o21ai_0
* pin VPB
* pin A1
* pin A2
* pin B1
* pin VPWR
* pin Y
* pin VGND
* pin 
.SUBCKT sky130_fd_sc_hd__o21ai_0 1 2 3 4 5 6 8 9
* net 1 VPB
* net 2 A1
* net 3 A2
* net 4 B1
* net 5 VPWR
* net 6 Y
* net 8 VGND
* device instance $1 r0 *1 0.525,2.165 pfet_01v8_hvt
M$1 10 2 5 1 pfet_01v8_hvt L=150000U W=640000U AS=169600000000P AD=76800000000P
+ PS=1810000U PD=880000U
* device instance $2 r0 *1 0.915,2.165 pfet_01v8_hvt
M$2 6 3 10 1 pfet_01v8_hvt L=150000U W=640000U AS=76800000000P AD=89600000000P
+ PS=880000U PD=920000U
* device instance $3 r0 *1 1.345,2.165 pfet_01v8_hvt
M$3 5 4 6 1 pfet_01v8_hvt L=150000U W=640000U AS=89600000000P AD=182400000000P
+ PS=920000U PD=1850000U
* device instance $4 r0 *1 0.5,0.445 nfet_01v8
M$4 8 2 7 9 nfet_01v8 L=150000U W=420000U AS=111300000000P AD=58800000000P
+ PS=1370000U PD=700000U
* device instance $5 r0 *1 0.93,0.445 nfet_01v8
M$5 7 3 8 9 nfet_01v8 L=150000U W=420000U AS=58800000000P AD=58800000000P
+ PS=700000U PD=700000U
* device instance $6 r0 *1 1.36,0.445 nfet_01v8
M$6 6 4 7 9 nfet_01v8 L=150000U W=420000U AS=58800000000P AD=111300000000P
+ PS=700000U PD=1370000U
.ENDS sky130_fd_sc_hd__o21ai_0

* cell sky130_fd_sc_hd__nand2_1
* pin VPB
* pin A
* pin B
* pin Y
* pin VPWR
* pin VGND
* pin 
.SUBCKT sky130_fd_sc_hd__nand2_1 1 2 3 4 5 6 7
* net 1 VPB
* net 2 A
* net 3 B
* net 4 Y
* net 5 VPWR
* net 6 VGND
* device instance $1 r0 *1 0.49,1.985 pfet_01v8_hvt
M$1 4 3 5 1 pfet_01v8_hvt L=150000U W=1000000U AS=260000000000P