* CDL Netlist generated by OpenROAD

*.BUSDELIMITER [

.SUBCKT smart_fifo almost_empty almost_full clear_errors clk
+ data_count[0] data_count[1] data_count[2] data_count[3] data_count[4]
+ empty error_count[0] error_count[10] error_count[11] error_count[12]
+ error_count[13] error_count[14] error_count[15] error_count[1]
+ error_count[2] error_count[3] error_count[4] error_count[5]
+ error_count[6] error_count[7] error_count[8] error_count[9]
+ error_detected full overflow_detected rd_data[0] rd_data[10]
+ rd_data[11] rd_data[12] rd_data[13] rd_data[14] rd_data[15]
+ rd_data[16] rd_data[17] rd_data[18] rd_data[19] rd_data[1]
+ rd_data[20] rd_data[21] rd_data[22] rd_data[23] rd_data[24]
+ rd_data[25] rd_data[26] rd_data[27] rd_data[28] rd_data[29]
+ rd_data[2] rd_data[30] rd_data[31] rd_data[3] rd_data[4] rd_data[5]
+ rd_data[6] rd_data[7] rd_data[8] rd_data[9] rd_en rd_valid
+ rst_n underflow_detected wr_data[0] wr_data[10] wr_data[11]
+ wr_data[12] wr_data[13] wr_data[14] wr_data[15] wr_data[16]
+ wr_data[17] wr_data[18] wr_data[19] wr_data[1] wr_data[20]
+ wr_data[21] wr_data[22] wr_data[23] wr_data[24] wr_data[25]
+ wr_data[26] wr_data[27] wr_data[28] wr_data[29] wr_data[2]
+ wr_data[30] wr_data[31] wr_data[3] wr_data[4] wr_data[5] wr_data[6]
+ wr_data[7] wr_data[8] wr_data[9] wr_en wr_ready
X_0518_ _0517_ VSS VSS VDD VDD net38 sky130_fd_sc_hd__inv_1
X_0519_ _0505_ _0497_ VSS VSS VDD VDD net40 sky130_fd_sc_hd__xor2_2
X_0520_ _0516_ _0502_ _0505_ VSS VSS VDD VDD _0279_ sky130_fd_sc_hd__nand3b_1
X_0521_ _0505_ _0501_ _0504_ VSS VSS VDD VDD _0280_ sky130_fd_sc_hd__a21oi_1
X_0522_ _0279_ _0280_ VSS VSS VDD VDD _0281_ sky130_fd_sc_hd__nand2_1
X_0523_ _0500_ _0281_ VSS VSS VDD VDD net41 sky130_fd_sc_hd__xor2_1
X_0524_ _0500_ _0505_ _0497_ VSS VSS VDD VDD _0282_ sky130_fd_sc_hd__nand3_1
X_0525_ _0500_ _0504_ _0499_ VSS VSS VDD VDD _0283_ sky130_fd_sc_hd__a21oi_1
X_0526_ wr_ptr\[4\] rd_ptr\[4\] VSS VSS VDD VDD _0284_ sky130_fd_sc_hd__xor2_2
X_0527_ _0282_ _0283_ _0284_ VSS VSS VDD VDD _0285_ sky130_fd_sc_hd__a21oi_4
X_0528_ _0282_ _0283_ _0284_ VSS VSS VDD VDD _0286_ sky130_fd_sc_hd__and3_2
X_0529_ _0285_ _0286_ VSS VSS VDD VDD net42 sky130_fd_sc_hd__nor2_1
X_0530_ net39 _0517_ _0500_ VSS VSS VDD VDD _0287_ sky130_fd_sc_hd__nand3b_1
X_0531_ _0279_ _0280_ _0287_ net40 VSS VSS VDD VDD _0288_
+ sky130_fd_sc_hd__a211o_1
X_0532_ _0500_ net39 _0517_ VSS VSS VDD VDD _0289_ sky130_fd_sc_hd__nor3b_1
X_0533_ net40 _0279_ _0280_ _0289_ VSS VSS VDD VDD _0290_
+ sky130_fd_sc_hd__nand4b_2
X_0534_ _0288_ _0290_ _0285_ _0286_ VSS VSS VDD VDD net61
+ sky130_fd_sc_hd__a211oi_4
X_0535_ _0285_ _0286_ _0288_ _0290_ VSS VSS VDD VDD net43
+ sky130_fd_sc_hd__a2bb2oi_4
X_0536_ net43 VSS VSS VDD VDD _0291_ sky130_fd_sc_hd__clkinv_4
X_0537_ _0291_ VSS VSS VDD VDD _0292_ sky130_fd_sc_hd__buf_6
X_0538_ _0292_ VSS VSS VDD VDD net95 sky130_fd_sc_hd__buf_4
X_0539_ net133 VSS VSS VDD VDD _0293_ sky130_fd_sc_hd__clkbuf_4
X_0540_ _0293_ net43 VSS VSS VDD VDD _0294_ sky130_fd_sc_hd__nand2_1
X_0541_ _0294_ VSS VSS VDD VDD net96 sky130_fd_sc_hd__inv_1
X_0542_ net60 VSS VSS VDD VDD _0295_ sky130_fd_sc_hd__inv_1
X_0543_ _0295_ net2 _0294_ VSS VSS VDD VDD _0000_ sky130_fd_sc_hd__o21ai_0
X_0544_ wr_ptr\[2\] net35 VSS VSS VDD VDD _0296_ sky130_fd_sc_hd__nor2b_1
X_0545_ wr_ptr\[3\] _0296_ VSS VSS VDD VDD _0297_ sky130_fd_sc_hd__nor2b_1
X_0546_ _0509_ _0297_ VSS VSS VDD VDD _0001_ sky130_fd_sc_hd__and2_4
X_0547_ _0512_ _0297_ VSS VSS VDD VDD _0008_ sky130_fd_sc_hd__and2_4
X_0548_ _0510_ _0297_ VSS VSS VDD VDD _0009_ sky130_fd_sc_hd__and2_4
X_0549_ _0514_ _0297_ VSS VSS VDD VDD _0010_ sky130_fd_sc_hd__and2_4
X_0550_ net35 wr_ptr\[2\] VSS VSS VDD VDD _0298_ sky130_fd_sc_hd__nand2_1
X_0551_ wr_ptr\[3\] _0298_ VSS VSS VDD VDD _0299_ sky130_fd_sc_hd__nor2_1
X_0552_ _0509_ _0299_ VSS VSS VDD VDD _0011_ sky130_fd_sc_hd__and2_4
X_0553_ _0512_ _0299_ VSS VSS VDD VDD _0012_ sky130_fd_sc_hd__and2_4
X_0554_ _0510_ _0299_ VSS VSS VDD VDD _0013_ sky130_fd_sc_hd__and2_4
X_0555_ _0514_ _0299_ VSS VSS VDD VDD _0014_ sky130_fd_sc_hd__and2_4
X_0556_ wr_ptr\[3\] _0509_ _0296_ VSS VSS VDD VDD _0015_ sky130_fd_sc_hd__and3_4
X_0557_ wr_ptr\[3\] _0512_ _0296_ VSS VSS VDD VDD _0016_ sky130_fd_sc_hd__and3_4
X_0558_ wr_ptr\[3\] _0510_ _0296_ VSS VSS VDD VDD _0002_ sky130_fd_sc_hd__and3_4
X_0559_ wr_ptr\[3\] _0514_ _0296_ VSS VSS VDD VDD _0003_ sky130_fd_sc_hd__and3_4
X_0560_ net35 wr_ptr\[3\] wr_ptr\[2\] VSS VSS VDD VDD _0300_
+ sky130_fd_sc_hd__and3_1
X_0561_ _0509_ _0300_ VSS VSS VDD VDD _0004_ sky130_fd_sc_hd__and2_4
X_0562_ _0512_ _0300_ VSS VSS VDD VDD _0005_ sky130_fd_sc_hd__and2_4
X_0563_ _0510_ _0300_ VSS VSS VDD VDD _0006_ sky130_fd_sc_hd__and2_4
X_0564_ _0514_ _0300_ VSS VSS VDD VDD _0007_ sky130_fd_sc_hd__and2_4
X_0565_ rd_ptr\[3\] VSS VSS VDD VDD _0498_ sky130_fd_sc_hd__inv_1
X_0566_ rd_ptr\[1\] VSS VSS VDD VDD _0301_ sky130_fd_sc_hd__clkbuf_2
X_0567_ _0301_ VSS VSS VDD VDD _0302_ sky130_fd_sc_hd__buf_4
X_0568_ _0302_ VSS VSS VDD VDD _0303_ sky130_fd_sc_hd__buf_6
X_0569_ _0303_ VSS VSS VDD VDD _0495_ sky130_fd_sc_hd__inv_1
X_0570_ _0516_ VSS VSS VDD VDD _0496_ sky130_fd_sc_hd__inv_1
X_0571_ rd_ptr\[2\] VSS VSS VDD VDD _0304_ sky130_fd_sc_hd__buf_4
X_0572_ _0304_ VSS VSS VDD VDD _0305_ sky130_fd_sc_hd__buf_4
X_0573_ _0305_ VSS VSS VDD VDD _0503_ sky130_fd_sc_hd__inv_1
X_0574_ wr_ptr\[0\] VSS VSS VDD VDD _0017_ sky130_fd_sc_hd__inv_1
X_0575_ wr_ptr\[1\] VSS VSS VDD VDD _0508_ sky130_fd_sc_hd__inv_1
X_0576_ net44 _0294_ VSS VSS VDD VDD _0021_ sky130_fd_sc_hd__xnor2_1
X_0577_ net55 net56 net57 net58 VSS VSS VDD VDD _0306_ sky130_fd_sc_hd__nand4_2
X_0578_ net52 net53 net54 VSS VSS VDD VDD _0307_ sky130_fd_sc_hd__and3_1
X_0579_ net59 _0307_ VSS VSS VDD VDD _0308_ sky130_fd_sc_hd__nand2_1
X_0580_ _0293_ _0507_ VSS VSS VDD VDD _0309_ sky130_fd_sc_hd__nand2_2
X_0581_ _0292_ _0306_ _0308_ _0309_ VSS VSS VDD VDD _0310_
+ sky130_fd_sc_hd__nor4_1
X_0582_ net45 _0310_ VSS VSS VDD VDD _0022_ sky130_fd_sc_hd__xor2_1
X_0583_ net59 net45 VSS VSS VDD VDD _0311_ sky130_fd_sc_hd__nand2_1
X_0584_ net44 net51 _0307_ VSS VSS VDD VDD _0312_ sky130_fd_sc_hd__and3_1
X_0585_ _0293_ _0312_ VSS VSS VDD VDD _0313_ sky130_fd_sc_hd__nand2_2
X_0586_ _0291_ _0306_ _0311_ _0313_ VSS VSS VDD VDD _0314_
+ sky130_fd_sc_hd__nor4_1
X_0587_ net46 _0314_ VSS VSS VDD VDD _0023_ sky130_fd_sc_hd__xor2_1
X_0588_ _0306_ _0311_ VSS VSS VDD VDD _0315_ sky130_fd_sc_hd__nor2_1
X_0589_ net46 _0307_ _0315_ VSS VSS VDD VDD _0316_ sky130_fd_sc_hd__nand3_1
X_0590_ _0292_ _0309_ _0316_ VSS VSS VDD VDD _0317_ sky130_fd_sc_hd__nor3_1
X_0591_ net47 _0317_ VSS VSS VDD VDD _0024_ sky130_fd_sc_hd__xor2_1
X_0592_ net46 net47 _0315_ VSS VSS VDD VDD _0318_ sky130_fd_sc_hd__nand3_1
X_0593_ _0292_ _0313_ _0318_ VSS VSS VDD VDD _0319_ sky130_fd_sc_hd__nor3_1
X_0594_ net48 _0319_ VSS VSS VDD VDD _0025_ sky130_fd_sc_hd__xor2_1
X_0595_ net52 net53 net54 VSS VSS VDD VDD _0320_ sky130_fd_sc_hd__nand3_1
X_0596_ net46 net47 net48 _0315_ VSS VSS VDD VDD _0321_ sky130_fd_sc_hd__nand4_1
X_0597_ _0291_ _0320_ _0309_ _0321_ VSS VSS VDD VDD _0322_
+ sky130_fd_sc_hd__nor4_1
X_0598_ net49 _0322_ VSS VSS VDD VDD _0026_ sky130_fd_sc_hd__xor2_1
X_0599_ _0293_ net49 _0312_ VSS VSS VDD VDD _0323_ sky130_fd_sc_hd__nand3_1
X_0600_ _0292_ _0321_ _0323_ VSS VSS VDD VDD _0324_ sky130_fd_sc_hd__nor3_1
X_0601_ net50 _0324_ VSS VSS VDD VDD _0027_ sky130_fd_sc_hd__xor2_1
X_0602_ net51 _0020_ net96 VSS VSS VDD VDD _0028_ sky130_fd_sc_hd__mux2_1
X_0603_ _0291_ VSS VSS VDD VDD _0325_ sky130_fd_sc_hd__clkbuf_4
X_0604_ _0325_ _0309_ VSS VSS VDD VDD _0326_ sky130_fd_sc_hd__nor2_1
X_0605_ net52 _0326_ VSS VSS VDD VDD _0029_ sky130_fd_sc_hd__xor2_1
X_0606_ _0293_ VSS VSS VDD VDD _0327_ sky130_fd_sc_hd__inv_1
X_0607_ net44 net52 net51 VSS VSS VDD VDD _0328_ sky130_fd_sc_hd__nand3_1
X_0608_ _0327_ _0325_ _0328_ VSS VSS VDD VDD _0329_ sky130_fd_sc_hd__nor3_1
X_0609_ net53 _0329_ VSS VSS VDD VDD _0030_ sky130_fd_sc_hd__xor2_1
X_0610_ net52 net53 VSS VSS VDD VDD _0330_ sky130_fd_sc_hd__nand2_1
X_0611_ _0292_ _0330_ _0309_ VSS VSS VDD VDD _0331_ sky130_fd_sc_hd__nor3_1
X_0612_ net54 _0331_ VSS VSS VDD VDD _0031_ sky130_fd_sc_hd__xor2_1
X_0613_ _0325_ _0313_ VSS VSS VDD VDD _0332_ sky130_fd_sc_hd__nor2_1
X_0614_ net55 _0332_ VSS VSS VDD VDD _0032_ sky130_fd_sc_hd__xor2_1
X_0615_ net55 _0307_ VSS VSS VDD VDD _0333_ sky130_fd_sc_hd__nand2_1
X_0616_ _0292_ _0309_ _0333_ VSS VSS VDD VDD _0334_ sky130_fd_sc_hd__nor3_1
X_0617_ net56 _0334_ VSS VSS VDD VDD _0033_ sky130_fd_sc_hd__xor2_1
X_0618_ net55 net56 VSS VSS VDD VDD _0335_ sky130_fd_sc_hd__nand2_1
X_0619_ _0292_ _0335_ _0313_ VSS VSS VDD VDD _0336_ sky130_fd_sc_hd__nor3_1
X_0620_ net57 _0336_ VSS VSS VDD VDD _0034_ sky130_fd_sc_hd__xor2_1
X_0621_ net55 net56 net57 VSS VSS VDD VDD _0337_ sky130_fd_sc_hd__nand3_1
X_0622_ _0291_ _0320_ _0337_ _0309_ VSS VSS VDD VDD _0338_
+ sky130_fd_sc_hd__nor4_1
X_0623_ net58 _0338_ VSS VSS VDD VDD _0035_ sky130_fd_sc_hd__xor2_1
X_0624_ _0292_ _0306_ _0313_ VSS VSS VDD VDD _0339_ sky130_fd_sc_hd__nor3_1
X_0625_ net59 _0339_ VSS VSS VDD VDD _0036_ sky130_fd_sc_hd__xor2_1
X_0626_ rd_ptr\[0\] VSS VSS VDD VDD _0340_ sky130_fd_sc_hd__clkbuf_2
X_0627_ _0340_ VSS VSS VDD VDD _0341_ sky130_fd_sc_hd__buf_6
X_0628_ _0304_ VSS VSS VDD VDD _0342_ sky130_fd_sc_hd__buf_4
X_0629_ mem\[0\]\[0\] mem\[1\]\[0\] mem\[4\]\[0\] mem\[5\]\[0\]
+ _0341_ _0342_ VSS VSS VDD VDD _0343_ sky130_fd_sc_hd__mux4_1
X_0630_ _0301_ rd_ptr\[3\] VSS VSS VDD VDD _0344_ sky130_fd_sc_hd__or2_0
X_0631_ _0344_ VSS VSS VDD VDD _0345_ sky130_fd_sc_hd__clkbuf_2
X_0632_ rd_ptr\[3\] _0301_ VSS VSS VDD VDD _0346_ sky130_fd_sc_hd__nand2b_2
X_0633_ _0346_ VSS VSS VDD VDD _0347_ sky130_fd_sc_hd__buf_4
X_0634_ _0340_ VSS VSS VDD VDD _0348_ sky130_fd_sc_hd__buf_6
X_0635_ _0348_ VSS VSS VDD VDD _0349_ sky130_fd_sc_hd__buf_6
X_0636_ mem\[2\]\[0\] mem\[3\]\[0\] mem\[6\]\[0\] mem\[7\]\[0\]
+ _0349_ _0305_ VSS VSS VDD VDD _0350_ sky130_fd_sc_hd__mux4_1
X_0637_ _0343_ _0345_ _0347_ _0350_ VSS VSS VDD VDD _0351_
+ sky130_fd_sc_hd__o22ai_1
X_0638_ mem\[8\]\[0\] mem\[9\]\[0\] mem\[10\]\[0\] mem\[11\]\[0\]
+ _0341_ _0302_ VSS VSS VDD VDD _0352_ sky130_fd_sc_hd__mux4_1
X_0639_ _0342_ rd_ptr\[3\] VSS VSS VDD VDD _0353_ sky130_fd_sc_hd__nand2b_2
X_0640_ _0342_ rd_ptr\[3\] VSS VSS VDD VDD _0354_ sky130_fd_sc_hd__nand2_2
X_0641_ _0354_ VSS VSS VDD VDD _0355_ sky130_fd_sc_hd__buf_4
X_0642_ mem\[12\]\[0\] mem\[13\]\[0\] mem\[14\]\[0\] mem\[15\]\[0\]
+ _0349_ _0303_ VSS VSS VDD VDD _0356_ sky130_fd_sc_hd__mux4_1
X_0643_ _0352_ _0353_ _0355_ _0356_ VSS VSS VDD VDD _0357_
+ sky130_fd_sc_hd__o22ai_1
X_0644_ _0351_ _0357_ VSS VSS VDD VDD _0358_ sky130_fd_sc_hd__nor2_1
X_0645_ _0293_ _0291_ VSS VSS VDD VDD _0359_ sky130_fd_sc_hd__nand2_8
X_0646_ _0359_ VSS VSS VDD VDD _0360_ sky130_fd_sc_hd__buf_6
X_0647_ _0358_ last_valid_data\[0\] _0360_ VSS VSS VDD VDD
+ _0037_ sky130_fd_sc_hd__mux2_1
X_0648_ _0348_ VSS VSS VDD VDD _0361_ sky130_fd_sc_hd__buf_6
X_0649_ _0304_ VSS VSS VDD VDD _0362_ sky130_fd_sc_hd__clkbuf_8
X_0650_ mem\[2\]\[10\] mem\[3\]\[10\] mem\[6\]\[10\] mem\[7\]\[10\]
+ _0361_ _0362_ VSS VSS VDD VDD _0363_ sky130_fd_sc_hd__mux4_1
X_0651_ _0348_ VSS VSS VDD VDD _0364_ sky130_fd_sc_hd__buf_6
X_0652_ mem\[0\]\[10\] mem\[1\]\[10\] mem\[4\]\[10\] mem\[5\]\[10\]
+ _0364_ _0305_ VSS VSS VDD VDD _0365_ sky130_fd_sc_hd__mux4_1
X_0653_ _0345_ VSS VSS VDD VDD _0366_ sky130_fd_sc_hd__buf_4
X_0654_ _0347_ _0363_ _0365_ _0366_ VSS VSS VDD VDD _0367_
+ sky130_fd_sc_hd__o22ai_1
X_0655_ _0348_ VSS VSS VDD VDD _0368_ sky130_fd_sc_hd__buf_6
X_0656_ _0301_ VSS VSS VDD VDD _0369_ sky130_fd_sc_hd__clkbuf_8
X_0657_ mem\[12\]\[10\] mem\[13\]\[10\] mem\[14\]\[10\] mem\[15\]\[10\]
+ _0368_ _0369_ VSS VSS VDD VDD _0370_ sky130_fd_sc_hd__mux4_1
X_0658_ mem\[8\]\[10\] mem\[9\]\[10\] mem\[10\]\[10\] mem\[11\]\[10\]
+ _0349_ _0303_ VSS VSS VDD VDD _0371_ sky130_fd_sc_hd__mux4_1
X_0659_ _0353_ VSS VSS VDD VDD _0372_ sky130_fd_sc_hd__buf_4
X_0660_ _0355_ _0370_ _0371_ _0372_ VSS VSS VDD VDD _0373_
+ sky130_fd_sc_hd__o22ai_1
X_0661_ _0367_ _0373_ VSS VSS VDD VDD _0374_ sky130_fd_sc_hd__nor2_1
X_0662_ _0374_ last_valid_data\[10\] _0360_ VSS VSS VDD VDD
+ _0038_ sky130_fd_sc_hd__mux2_1
X_0663_ mem\[2\]\[11\] mem\[3\]\[11\] mem\[6\]\[11\] mem\[7\]\[11\]
+ _0361_ _0362_ VSS VSS VDD VDD _0375_ sky130_fd_sc_hd__mux4_1
X_0664_ mem\[0\]\[11\] mem\[1\]\[11\] mem\[4\]\[11\] mem\[5\]\[11\]
+ _0364_ _0305_ VSS VSS VDD VDD _0376_ sky130_fd_sc_hd__mux4_1
X_0665_ _0347_ _0375_ _0376_ _0366_ VSS VSS VDD VDD _0377_
+ sky130_fd_sc_hd__o22ai_1
X_0666_ mem\[12\]\[11\] mem\[13\]\[11\] mem\[14\]\[11\] mem\[15\]\[11\]
+ _0368_ _0369_ VSS VSS VDD VDD _0378_ sky130_fd_sc_hd__mux4_1
X_0667_ mem\[8\]\[11\] mem\[9\]\[11\] mem\[10\]\[11\] mem\[11\]\[11\]
+ _0349_ _0303_ VSS VSS VDD VDD _0379_ sky130_fd_sc_hd__mux4_1
X_0668_ _0355_ _0378_ _0379_ _0372_ VSS VSS VDD VDD _0380_
+ sky130_fd_sc_hd__o22ai_1
X_0669_ _0377_ _0380_ VSS VSS VDD VDD _0381_ sky130_fd_sc_hd__nor2_1
X_0670_ _0381_ last_valid_data\[11\] _0360_ VSS VSS VDD VDD
+ _0039_ sky130_fd_sc_hd__mux2_1
X_0671_ mem\[2\]\[12\] mem\[3\]\[12\] mem\[6\]\[12\] mem\[7\]\[12\]
+ _0361_ _0362_ VSS VSS VDD VDD _0382_ sky130_fd_sc_hd__mux4_1
X_0672_ mem\[0\]\[12\] mem\[1\]\[12\] mem\[4\]\[12\] mem\[5\]\[12\]
+ _0364_ _0305_ VSS VSS VDD VDD _0383_ sky130_fd_sc_hd__mux4_1
X_0673_ _0347_ _0382_ _0383_ _0366_ VSS VSS VDD VDD _0384_
+ sky130_fd_sc_hd__o22ai_1
X_0674_ mem\[12\]\[12\] mem\[13\]\[12\] mem\[14\]\[12\] mem\[15\]\[12\]
+ _0368_ _0369_ VSS VSS VDD VDD _0385_ sky130_fd_sc_hd__mux4_1
X_0675_ mem\[8\]\[12\] mem\[9\]\[12\] mem\[10\]\[12\] mem\[11\]\[12\]
+ _0349_ _0303_ VSS VSS VDD VDD _0386_ sky130_fd_sc_hd__mux4_1
X_0676_ _0355_ _0385_ _0386_ _0372_ VSS VSS VDD VDD _0387_
+ sky130_fd_sc_hd__o22ai_1
X_0677_ _0384_ _0387_ VSS VSS VDD VDD _0388_ sky130_fd_sc_hd__nor2_1
X_0678_ _0388_ last_valid_data\[12\] _0360_ VSS VSS VDD VDD
+ _0040_ sky130_fd_sc_hd__mux2_1
X_0679_ _0340_ VSS VSS VDD VDD _0389_ sky130_fd_sc_hd__buf_6
X_0680_ mem\[2\]\[13\] mem\[3\]\[13\] mem\[6\]\[13\] mem\[7\]\[13\]
+ _0389_ _0362_ VSS VSS VDD VDD _0390_ sky130_fd_sc_hd__mux4_1
X_0681_ mem\[0\]\[13\] mem\[1\]\[13\] mem\[4\]\[13\] mem\[5\]\[13\]
+ _0364_ _0305_ VSS VSS VDD VDD _0391_ sky130_fd_sc_hd__mux4_1
X_0682_ _0347_ _0390_ _0391_ _0366_ VSS VSS VDD VDD _0392_
+ sky130_fd_sc_hd__o22ai_1
X_0683_ mem\[12\]\[13\] mem\[13\]\[13\] mem\[14\]\[13\] mem\[15\]\[13\]
+ _0368_ _0369_ VSS VSS VDD VDD _0393_ sky130_fd_sc_hd__mux4_1
X_0684_ mem\[8\]\[13\] mem\[9\]\[13\] mem\[10\]\[13\] mem\[11\]\[13\]
+ _0349_ _0303_ VSS VSS VDD VDD _0394_ sky130_fd_sc_hd__mux4_1
X_0685_ _0355_ _0393_ _0394_ _0372_ VSS VSS VDD VDD _0395_
+ sky130_fd_sc_hd__o22ai_1
X_0686_ _0392_ _0395_ VSS VSS VDD VDD _0396_ sky130_fd_sc_hd__nor2_1
X_0687_ _0396_ last_valid_data\[13\] _0360_ VSS VSS VDD VDD
+ _0041_ sky130_fd_sc_hd__mux2_1
X_0688_ _0304_ VSS VSS VDD VDD _0397_ sky130_fd_sc_hd__buf_4
X_0689_ mem\[2\]\[14\] mem\[3\]\[14\] mem\[6\]\[14\] mem\[7\]\[14\]
+ _0389_ _0397_ VSS VSS VDD VDD _0398_ sky130_fd_sc_hd__mux4_1
X_0690_ _0348_ VSS VSS VDD VDD _0399_ sky130_fd_sc_hd__buf_6
X_0691_ mem\[0\]\[14\] mem\[1\]\[14\] mem\[4\]\[14\] mem\[5\]\[14\]
+ _0399_ _0305_ VSS VSS VDD VDD _0400_ sky130_fd_sc_hd__mux4_1
X_0692_ _0347_ _0398_ _0400_ _0366_ VSS VSS VDD VDD _0401_
+ sky130_fd_sc_hd__o22ai_1
X_0693_ mem\[12\]\[14\] mem\[13\]\[14\] mem\[14\]\[14\] mem\[15\]\[14\]
+ _0368_ _0369_ VSS VSS VDD VDD _0402_ sky130_fd_sc_hd__mux4_1
X_0694_ mem\[8\]\[14\] mem\[9\]\[14\] mem\[10\]\[14\] mem\[11\]\[14\]
+ _0349_ _0303_ VSS VSS VDD VDD _0403_ sky130_fd_sc_hd__mux4_1
X_0695_ _0355_ _0402_ _0403_ _0372_ VSS VSS VDD VDD _0404_
+ sky130_fd_sc_hd__o22ai_1
X_0696_ _0401_ _0404_ VSS VSS VDD VDD _0405_ sky130_fd_sc_hd__nor2_1
X_0697_ _0405_ last_valid_data\[14\] _0360_ VSS VSS VDD VDD
+ _0042_ sky130_fd_sc_hd__mux2_1
X_0698_ mem\[2\]\[15\] mem\[3\]\[15\] mem\[6\]\[15\] mem\[7\]\[15\]
+ _0389_ _0397_ VSS VSS VDD VDD _0406_ sky130_fd_sc_hd__mux4_1
X_0699_ _0304_ VSS VSS VDD VDD _0407_ sky130_fd_sc_hd__buf_4
X_0700_ mem\[0\]\[15\] mem\[1\]\[15\] mem\[4\]\[15\] mem\[5\]\[15\]
+ _0399_ _0407_ VSS VSS VDD VDD _0408_ sky130_fd_sc_hd__mux4_1
X_0701_ _0347_ _0406_ _0408_ _0366_ VSS VSS VDD VDD _0409_
+ sky130_fd_sc_hd__o22ai_1
X_0702_ _0348_ VSS VSS VDD VDD _0410_ sky130_fd_sc_hd__buf_6
X_0703_ _0301_ VSS VSS VDD VDD _0411_ sky130_fd_sc_hd__buf_6
X_0704_ mem\[12\]\[15\] mem\[13\]\[15\] mem\[14\]\[15\] mem\[15\]\[15\]
+ _0410_ _0411_ VSS VSS VDD VDD _0412_ sky130_fd_sc_hd__mux4_1
X_0705_ mem\[8\]\[15\] mem\[9\]\[15\] mem\[10\]\[15\] mem\[11\]\[15\]
+ _0349_ _0303_ VSS VSS VDD VDD _0413_ sky130_fd_sc_hd__mux4_1
X_0706_ _0355_ _0412_ _0413_ _0372_ VSS VSS VDD VDD _0414_
+ sky130_fd_sc_hd__o22ai_1
X_0707_ _0409_ _0414_ VSS VSS VDD VDD _0415_ sky130_fd_sc_hd__nor2_1
X_0708_ _0415_ last_valid_data\[15\] _0360_ VSS VSS VDD VDD
+ _0043_ sky130_fd_sc_hd__mux2_1
X_0709_ mem\[2\]\[16\] mem\[3\]\[16\] mem\[6\]\[16\] mem\[7\]\[16\]
+ _0389_ _0397_ VSS VSS VDD VDD _0416_ sky130_fd_sc_hd__mux4_1
X_0710_ mem\[0\]\[16\] mem\[1\]\[16\] mem\[4\]\[16\] mem\[5\]\[16\]
+ _0399_ _0407_ VSS VSS VDD VDD _0417_ sky130_fd_sc_hd__mux4_1
X_0711_ _0347_ _0416_ _0417_ _0366_ VSS VSS VDD VDD _0418_
+ sky130_fd_sc_hd__o22ai_1
X_0712_ mem\[12\]\[16\] mem\[13\]\[16\] mem\[14\]\[16\] mem\[15\]\[16\]
+ _0410_ _0411_ VSS VSS VDD VDD _0419_ sky130_fd_sc_hd__mux4_1
X_0713_ _0348_ VSS VSS VDD VDD _0420_ sky130_fd_sc_hd__clkbuf_8
X_0714_ _0302_ VSS VSS VDD VDD _0421_ sky130_fd_sc_hd__buf_4
X_0715_ mem\[8\]\[16\] mem\[9\]\[16\] mem\[10\]\[16\] mem\[11\]\[16\]
+ _0420_ _0421_ VSS VSS VDD VDD _0422_ sky130_fd_sc_hd__mux4_1
X_0716_ _0355_ _0419_ _0422_ _0372_ VSS VSS VDD VDD _0423_
+ sky130_fd_sc_hd__o22ai_1
X_0717_ _0418_ _0423_ VSS VSS VDD VDD _0424_ sky130_fd_sc_hd__nor2_1
X_0718_ _0424_ last_valid_data\[16\] _0360_ VSS VSS VDD VDD
+ _0044_ sky130_fd_sc_hd__mux2_1
X_0719_ mem\[2\]\[17\] mem\[3\]\[17\] mem\[6\]\[17\] mem\[7\]\[17\]
+ _0389_ _0397_ VSS VSS VDD VDD _0425_ sky130_fd_sc_hd__mux4_1
X_0720_ mem\[0\]\[17\] mem\[1\]\[17\] mem\[4\]\[17\] mem\[5\]\[17\]
+ _0399_ _0407_ VSS VSS VDD VDD _0426_ sky130_fd_sc_hd__mux4_1
X_0721_ _0347_ _0425_ _0426_ _0366_ VSS VSS VDD VDD _0427_
+ sky130_fd_sc_hd__o22ai_1
X_0722_ mem\[12\]\[17\] mem\[13\]\[17\] mem\[14\]\[17\] mem\[15\]\[17\]
+ _0410_ _0411_ VSS VSS VDD VDD _0428_ sky130_fd_sc_hd__mux4_1
X_0723_ mem\[8\]\[17\] mem\[9\]\[17\] mem\[10\]\[17\] mem\[11\]\[17\]
+ _0420_ _0421_ VSS VSS VDD VDD _0429_ sky130_fd_sc_hd__mux4_1
X_0724_ _0355_ _0428_ _0429_ _0372_ VSS VSS VDD VDD _0430_
+ sky130_fd_sc_hd__o22ai_1
X_0725_ _0427_ _0430_ VSS VSS VDD VDD _0431_ sky130_fd_sc_hd__nor2_1
X_0726_ _0359_ VSS VSS VDD VDD _0432_ sky130_fd_sc_hd__buf_6
X_0727_ _0431_ last_valid_data\[17\] _0432_ VSS VSS VDD VDD
+ _0045_ sky130_fd_sc_hd__mux2_1
X_0728_ mem\[2\]\[18\] mem\[3\]\[18\] mem\[6\]\[18\] mem\[7\]\[18\]
+ _0389_ _0397_ VSS VSS VDD VDD _0433_ sky130_fd_sc_hd__mux4_1
X_0729_ mem\[0\]\[18\] mem\[1\]\[18\] mem\[4\]\[18\] mem\[5\]\[18\]
+ _0399_ _0407_ VSS VSS VDD VDD _0434_ sky130_fd_sc_hd__mux4_1
X_0730_ _0347_ _0433_ _0434_ _0366_ VSS VSS VDD VDD _0435_
+ sky130_fd_sc_hd__o22ai_1
X_0731_ mem\[12\]\[18\] mem\[13\]\[18\] mem\[14\]\[18\] mem\[15\]\[18\]
+ _0410_ _0411_ VSS VSS VDD VDD _0436_ sky130_fd_sc_hd__mux4_1
X_0732_ mem\[8\]\[18\] mem\[9\]\[18\] mem\[10\]\[18\] mem\[11\]\[18\]
+ _0420_ _0421_ VSS VSS VDD VDD _0437_ sky130_fd_sc_hd__mux4_1
X_0733_ _0355_ _0436_ _0437_ _0372_ VSS VSS VDD VDD _0438_
+ sky130_fd_sc_hd__o22ai_1
X_0734_ _0435_ _0438_ VSS VSS VDD VDD _0439_ sky130_fd_sc_hd__nor2_1
X_0735_ _0439_ last_valid_data\[18\] _0432_ VSS VSS VDD VDD
+ _0046_ sky130_fd_sc_hd__mux2_1
X_0736_ _0346_ VSS VSS VDD VDD _0440_ sky130_fd_sc_hd__buf_6
X_0737_ mem\[2\]\[19\] mem\[3\]\[19\] mem\[6\]\[19\] mem\[7\]\[19\]
+ _0389_ _0397_ VSS VSS VDD VDD _0441_ sky130_fd_sc_hd__mux4_1
X_0738_ mem\[0\]\[19\] mem\[1\]\[19\] mem\[4\]\[19\] mem\[5\]\[19\]
+ _0399_ _0407_ VSS VSS VDD VDD _0442_ sky130_fd_sc_hd__mux4_1
X_0739_ _0440_ _0441_ _0442_ _0366_ VSS VSS VDD VDD _0443_
+ sky130_fd_sc_hd__o22ai_1
X_0740_ _0354_ VSS VSS VDD VDD _0444_ sky130_fd_sc_hd__buf_6
X_0741_ mem\[12\]\[19\] mem\[13\]\[19\] mem\[14\]\[19\] mem\[15\]\[19\]
+ _0410_ _0411_ VSS VSS VDD VDD _0445_ sky130_fd_sc_hd__mux4_1
X_0742_ mem\[8\]\[19\] mem\[9\]\[19\] mem\[10\]\[19\] mem\[11\]\[19\]
+ _0420_ _0421_ VSS VSS VDD VDD _0446_ sky130_fd_sc_hd__mux4_1
X_0743_ _0444_ _0445_ _0446_ _0372_ VSS VSS VDD VDD _0447_
+ sky130_fd_sc_hd__o22ai_1
X_0744_ _0443_ _0447_ VSS VSS VDD VDD _0448_ sky130_fd_sc_hd__nor2_1
X_0745_ _0448_ last_valid_data\[19\] _0432_ VSS VSS VDD VDD
+ _0047_ sky130_fd_sc_hd__mux2_1
X_0746_ mem\[2\]\[1\] mem\[3\]\[1\] mem\[6\]\[1\] mem\[7\]\[1\]
+ _0389_ _0397_ VSS VSS VDD VDD _0449_ sky130_fd_sc_hd__mux4_1
X_0747_ mem\[0\]\[1\] mem\[1\]\[1\] mem\[4\]\[1\] mem\[5\]\[1\]
+ _0399_ _0407_ VSS VSS VDD VDD _0450_ sky130_fd_sc_hd__mux4_1
X_0748_ _0345_ VSS VSS VDD VDD _0451_ sky130_fd_sc_hd__buf_4
X_0749_ _0440_ _0449_ _0450_ _0451_ VSS VSS VDD VDD _0452_
+ sky130_fd_sc_hd__o22ai_2
X_0750_ mem\[12\]\[1\] mem\[13\]\[1\] mem\[14\]\[1\] mem\[15\]\[1\]
+ _0410_ _0411_ VSS VSS VDD VDD _0453_ sky130_fd_sc_hd__mux4_1
X_0751_ mem\[8\]\[1\] mem\[9\]\[1\] mem\[10\]\[1\] mem\[11\]\[1\]
+ _0420_ _0421_ VSS VSS VDD VDD _0454_ sky130_fd_sc_hd__mux4_1
X_0752_ _0353_ VSS VSS VDD VDD _0455_ sky130_fd_sc_hd__buf_6
X_0753_ _0444_ _0453_ _0454_ _0455_ VSS VSS VDD VDD _0456_
+ sky130_fd_sc_hd__o22ai_1
X_0754_ _0452_ _0456_ VSS VSS VDD VDD _0457_ sky130_fd_sc_hd__nor2_1
X_0755_ _0457_ last_valid_data\[1\] _0432_ VSS VSS VDD VDD
+ _0048_ sky130_fd_sc_hd__mux2_1
X_0756_ mem\[2\]\[20\] mem\[3\]\[20\] mem\[6\]\[20\] mem\[7\]\[20\]
+ _0389_ _0397_ VSS VSS VDD VDD _0458_ sky130_fd_sc_hd__mux4_1
X_0757_ mem\[0\]\[20\] mem\[1\]\[20\] mem\[4\]\[20\] mem\[5\]\[20\]
+ _0399_ _0407_ VSS VSS VDD VDD _0459_ sky130_fd_sc_hd__mux4_1
X_0758_ _0440_ _0458_ _0459_ _0451_ VSS VSS VDD VDD _0460_
+ sky130_fd_sc_hd__o22ai_2
X_0759_ mem\[12\]\[20\] mem\[13\]\[20\] mem\[14\]\[20\] mem\[15\]\[20\]
+ _0410_ _0411_ VSS VSS VDD VDD _0461_ sky130_fd_sc_hd__mux4_1
X_0760_ mem\[8\]\[20\] mem\[9\]\[20\] mem\[10\]\[20\] mem\[11\]\[20\]
+ _0420_ _0421_ VSS VSS VDD VDD _0462_ sky130_fd_sc_hd__mux4_1
X_0761_ _0444_ _0461_ _0462_ _0455_ VSS VSS VDD VDD _0463_
+ sky130_fd_sc_hd__o22ai_1
X_0762_ _0460_ _0463_ VSS VSS VDD VDD _0464_ sky130_fd_sc_hd__nor2_1
X_0763_ _0464_ last_valid_data\[20\] _0432_ VSS VSS VDD VDD
+ _0049_ sky130_fd_sc_hd__mux2_1
X_0764_ mem\[2\]\[21\] mem\[3\]\[21\] mem\[6\]\[21\] mem\[7\]\[21\]
+ _0389_ _0397_ VSS VSS VDD VDD _0465_ sky130_fd_sc_hd__mux4_1
X_0765_ mem\[0\]\[21\] mem\[1\]\[21\] mem\[4\]\[21\] mem\[5\]\[21\]
+ _0399_ _0407_ VSS VSS VDD VDD _0466_ sky130_fd_sc_hd__mux4_1
X_0766_ _0440_ _0465_ _0466_ _0451_ VSS VSS VDD VDD _0467_
+ sky130_fd_sc_hd__o22ai_1
X_0767_ mem\[12\]\[21\] mem\[13\]\[21\] mem\[14\]\[21\] mem\[15\]\[21\]
+ _0410_ _0411_ VSS VSS VDD VDD _0468_ sky130_fd_sc_hd__mux4_1
X_0768_ mem\[8\]\[21\] mem\[9\]\[21\] mem\[10\]\[21\] mem\[11\]\[21\]
+ _0420_ _0421_ VSS VSS VDD VDD _0469_ sky130_fd_sc_hd__mux4_1
X_0769_ _0444_ _0468_ _0469_ _0455_ VSS VSS VDD VDD _0470_
+ sky130_fd_sc_hd__o22ai_1
X_0770_ _0467_ _0470_ VSS VSS VDD VDD _0471_ sky130_fd_sc_hd__nor2_1
X_0771_ _0471_ last_valid_data\[21\] _0432_ VSS VSS VDD VDD
+ _0050_ sky130_fd_sc_hd__mux2_1
X_0772_ _0340_ VSS VSS VDD VDD _0472_ sky130_fd_sc_hd__buf_6
X_0773_ mem\[2\]\[22\] mem\[3\]\[22\] mem\[6\]\[22\] mem\[7\]\[22\]
+ _0472_ _0397_ VSS VSS VDD VDD _0473_ sky130_fd_sc_hd__mux4_1
X_0774_ mem\[0\]\[22\] mem\[1\]\[22\] mem\[4\]\[22\] mem\[5\]\[22\]
+ _0399_ _0407_ VSS VSS VDD VDD _0474_ sky130_fd_sc_hd__mux4_1
X_0775_ _0440_ _0473_ _0474_ _0451_ VSS VSS VDD VDD _0475_
+ sky130_fd_sc_hd__o22ai_1
X_0776_ mem\[12\]\[22\] mem\[13\]\[22\] mem\[14\]\[22\] mem\[15\]\[22\]
+ _0410_ _0411_ VSS VSS VDD VDD _0476_ sky130_fd_sc_hd__mux4_1
X_0777_ mem\[8\]\[22\] mem\[9\]\[22\] mem\[10\]\[22\] mem\[11\]\[22\]
+ _0420_ _0421_ VSS VSS VDD VDD _0477_ sky130_fd_sc_hd__mux4_1
X_0778_ _0444_ _0476_ _0477_ _0455_ VSS VSS VDD VDD _0478_
+ sky130_fd_sc_hd__o22ai_1
X_0779_ _0475_ _0478_ VSS VSS VDD VDD _0479_ sky130_fd_sc_hd__nor2_1
X_0780_ _0479_ last_valid_data\[22\] _0432_ VSS VSS VDD VDD
+ _0051_ sky130_fd_sc_hd__mux2_1
X_0781_ _0304_ VSS VSS VDD VDD _0480_ sky130_fd_sc_hd__buf_4
X_0782_ mem\[2\]\[23\] mem\[3\]\[23\] mem\[6\]\[23\] mem\[7\]\[23\]
+ _0472_ _0480_ VSS VSS VDD VDD _0481_ sky130_fd_sc_hd__mux4_1
X_0783_ _0348_ VSS VSS VDD VDD _0482_ sky130_fd_sc_hd__clkbuf_8
X_0784_ mem\[0\]\[23\] mem\[1\]\[23\] mem\[4\]\[23\] mem\[5\]\[23\]
+ _0482_ _0407_ VSS VSS VDD VDD _0483_ sky130_fd_sc_hd__mux4_1
X_0785_ _0440_ _0481_ _0483_ _0451_ VSS VSS VDD VDD _0484_
+ sky130_fd_sc_hd__o22ai_1
X_0786_ mem\[12\]\[23\] mem\[13\]\[23\] mem\[14\]\[23\] mem\[15\]\[23\]
+ _0410_ _0411_ VSS VSS VDD VDD _0485_ sky130_fd_sc_hd__mux4_1
X_0787_ mem\[8\]\[23\] mem\[9\]\[23\] mem\[10\]\[23\] mem\[11\]\[23\]
+ _0420_ _0421_ VSS VSS VDD VDD _0486_ sky130_fd_sc_hd__mux4_1
X_0788_ _0444_ _0485_ _0486_ _0455_ VSS VSS VDD VDD _0487_
+ sky130_fd_sc_hd__o22ai_1
X_0789_ _0484_ _0487_ VSS VSS VDD VDD _0488_ sky130_fd_sc_hd__nor2_1
X_0790_ _0488_ last_valid_data\[23\] _0432_ VSS VSS VDD VDD
+ _0052_ sky130_fd_sc_hd__mux2_1
X_0791_ mem\[2\]\[24\] mem\[3\]\[24\] mem\[6\]\[24\] mem\[7\]\[24\]
+ _0472_ _0480_ VSS VSS VDD VDD _0489_ sky130_fd_sc_hd__mux4_1
X_0792_ _0304_ VSS VSS VDD VDD _0490_ sky130_fd_sc_hd__buf_6
X_0793_ mem\[0\]\[24\] mem\[1\]\[24\] mem\[4\]\[24\] mem\[5\]\[24\]
+ _0482_ _0490_ VSS VSS VDD VDD _0491_ sky130_fd_sc_hd__mux4_1
X_0794_ _0440_ _0489_ _0491_ _0451_ VSS VSS VDD VDD _0492_
+ sky130_fd_sc_hd__o22ai_1
X_0795_ _0348_ VSS VSS VDD VDD _0493_ sky130_fd_sc_hd__buf_6
X_0796_ _0301_ VSS VSS VDD VDD _0494_ sky130_fd_sc_hd__buf_6
X_0797_ mem\[12\]\[24\] mem\[13\]\[24\] mem\[14\]\[24\] mem\[15\]\[24\]
+ _0493_ _0494_ VSS VSS VDD VDD _0080_ sky130_fd_sc_hd__mux4_1
X_0798_ mem\[8\]\[24\] mem\[9\]\[24\] mem\[10\]\[24\] mem\[11\]\[24\]
+ _0420_ _0421_ VSS VSS VDD VDD _0081_ sky130_fd_sc_hd__mux4_1
X_0799_ _0444_ _0080_ _0081_ _0455_ VSS VSS VDD VDD _0082_
+ sky130_fd_sc_hd__o22ai_1
X_0800_ _0492_ _0082_ VSS VSS VDD VDD _0083_ sky130_fd_sc_hd__nor2_1
X_0801_ _0083_ last_valid_data\[24\] _0432_ VSS VSS VDD VDD
+ _0053_ sky130_fd_sc_hd__mux2_1
X_0802_ mem\[2\]\[25\] mem\[3\]\[25\] mem\[6\]\[25\] mem\[7\]\[25\]
+ _0472_ _0480_ VSS VSS VDD VDD _0084_ sky130_fd_sc_hd__mux4_1
X_0803_ mem\[0\]\[25\] mem\[1\]\[25\] mem\[4\]\[25\] mem\[5\]\[25\]
+ _0482_ _0490_ VSS VSS VDD VDD _0085_ sky130_fd_sc_hd__mux4_1
X_0804_ _0440_ _0084_ _0085_ _0451_ VSS VSS VDD VDD _0086_
+ sky130_fd_sc_hd__o22ai_1
X_0805_ mem\[12\]\[25\] mem\[13\]\[25\] mem\[14\]\[25\] mem\[15\]\[25\]
+ _0493_ _0494_ VSS VSS VDD VDD _0087_ sky130_fd_sc_hd__mux4_1
X_0806_ _0348_ VSS VSS VDD VDD _0088_ sky130_fd_sc_hd__buf_4
X_0807_ _0302_ VSS VSS VDD VDD _0089_ sky130_fd_sc_hd__buf_4
X_0808_ mem\[8\]\[25\] mem\[9\]\[25\] mem\[10\]\[25\] mem\[11\]\[25\]
+ _0088_ _0089_ VSS VSS VDD VDD _0090_ sky130_fd_sc_hd__mux4_1
X_0809_ _0444_ _0087_ _0090_ _0455_ VSS VSS VDD VDD _0091_
+ sky130_fd_sc_hd__o22ai_1
X_0810_ _0086_ _0091_ VSS VSS VDD VDD _0092_ sky130_fd_sc_hd__nor2_1
X_0811_ _0092_ last_valid_data\[25\] _0432_ VSS VSS VDD VDD
+ _0054_ sky130_fd_sc_hd__mux2_1
X_0812_ mem\[2\]\[26\] mem\[3\]\[26\] mem\[6\]\[26\] mem\[7\]\[26\]
+ _0472_ _0480_ VSS VSS VDD VDD _0093_ sky130_fd_sc_hd__mux4_1
X_0813_ mem\[0\]\[26\] mem\[1\]\[26\] mem\[4\]\[26\] mem\[5\]\[26\]
+ _0482_ _0490_ VSS VSS VDD VDD _0094_ sky130_fd_sc_hd__mux4_1
X_0814_ _0440_ _0093_ _0094_ _0451_ VSS VSS VDD VDD _0095_
+ sky130_fd_sc_hd__o22ai_1
X_0815_ mem\[12\]\[26\] mem\[13\]\[26\] mem\[14\]\[26\] mem\[15\]\[26\]
+ _0493_ _0494_ VSS VSS VDD VDD _0096_ sky130_fd_sc_hd__mux4_1
X_0816_ mem\[8\]\[26\] mem\[9\]\[26\] mem\[10\]\[26\] mem\[11\]\[26\]
+ _0088_ _0089_ VSS VSS VDD VDD _0097_ sky130_fd_sc_hd__mux4_1
X_0817_ _0444_ _0096_ _0097_ _0455_ VSS VSS VDD VDD _0098_
+ sky130_fd_sc_hd__o22ai_2
X_0818_ _0095_ _0098_ VSS VSS VDD VDD _0099_ sky130_fd_sc_hd__nor2_1
X_0819_ _0359_ VSS VSS VDD VDD _0100_ sky130_fd_sc_hd__buf_6
X_0820_ _0099_ last_valid_data\[26\] _0100_ VSS VSS VDD VDD
+ _0055_ sky130_fd_sc_hd__mux2_1
X_0821_ mem\[2\]\[27\] mem\[3\]\[27\] mem\[6\]\[27\] mem\[7\]\[27\]
+ _0472_ _0480_ VSS VSS VDD VDD _0101_ sky130_fd_sc_hd__mux4_1
X_0822_ mem\[0\]\[27\] mem\[1\]\[27\] mem\[4\]\[27\] mem\[5\]\[27\]
+ _0482_ _0490_ VSS VSS VDD VDD _0102_ sky130_fd_sc_hd__mux4_1
X_0823_ _0440_ _0101_ _0102_ _0451_ VSS VSS VDD VDD _0103_
+ sky130_fd_sc_hd__o22ai_1
X_0824_ mem\[12\]\[27\] mem\[13\]\[27\] mem\[14\]\[27\] mem\[15\]\[27\]
+ _0493_ _0494_ VSS VSS VDD VDD _0104_ sky130_fd_sc_hd__mux4_1
X_0825_ mem\[8\]\[27\] mem\[9\]\[27\] mem\[10\]\[27\] mem\[11\]\[27\]
+ _0088_ _0089_ VSS VSS VDD VDD _0105_ sky130_fd_sc_hd__mux4_1
X_0826_ _0444_ _0104_ _0105_ _0455_ VSS VSS VDD VDD _0106_
+ sky130_fd_sc_hd__o22ai_1
X_0827_ _0103_ _0106_ VSS VSS VDD VDD _0107_ sky130_fd_sc_hd__nor2_1
X_0828_ _0107_ last_valid_data\[27\] _0100_ VSS VSS VDD VDD
+ _0056_ sky130_fd_sc_hd__mux2_1
X_0829_ _0346_ VSS VSS VDD VDD _0108_ sky130_fd_sc_hd__buf_4
X_0830_ mem\[2\]\[28\] mem\[3\]\[28\] mem\[6\]\[28\] mem\[7\]\[28\]
+ _0472_ _0480_ VSS VSS VDD VDD _0109_ sky130_fd_sc_hd__mux4_1
X_0831_ mem\[0\]\[28\] mem\[1\]\[28\] mem\[4\]\[28\] mem\[5\]\[28\]
+ _0482_ _0490_ VSS VSS VDD VDD _0110_ sky130_fd_sc_hd__mux4_1
X_0832_ _0108_ _0109_ _0110_ _0451_ VSS VSS VDD VDD _0111_
+ sky130_fd_sc_hd__o22ai_1
X_0833_ _0354_ VSS VSS VDD VDD _0112_ sky130_fd_sc_hd__buf_4
X_0834_ mem\[12\]\[28\] mem\[13\]\[28\] mem\[14\]\[28\] mem\[15\]\[28\]
+ _0493_ _0494_ VSS VSS VDD VDD _0113_ sky130_fd_sc_hd__mux4_1
X_0835_ mem\[8\]\[28\] mem\[9\]\[28\] mem\[10\]\[28\] mem\[11\]\[28\]
+ _0088_ _0089_ VSS VSS VDD VDD _0114_ sky130_fd_sc_hd__mux4_1
X_0836_ _0112_ _0113_ _0114_ _0455_ VSS VSS VDD VDD _0115_
+ sky130_fd_sc_hd__o22ai_1
X_0837_ _0111_ _0115_ VSS VSS VDD VDD _0116_ sky130_fd_sc_hd__nor2_1
X_0838_ _0116_ last_valid_data\[28\] _0100_ VSS VSS VDD VDD
+ _0057_ sky130_fd_sc_hd__mux2_1