
* cell smart_fifo
* pin wr_data[17]
* pin wr_data[15]
* pin rd_data[17]
* pin rd_valid
* pin wr_data[14]
* pin rd_data[15]
* pin rd_data[14]
* pin rd_data[0]
* pin wr_data[9]
* pin wr_data[10]
* pin rd_data[13]
* pin wr_data[12]
* pin rd_data[11]
* pin rd_data[12]
* pin wr_en
* pin wr_data[11]
* pin rst_n
* pin overflow_detected
* pin data_count[2]
* pin wr_ready
* pin full
* pin data_count[1]
* pin error_count[12]
* pin empty
* pin almost_full
* pin data_count[0]
* pin almost_empty
* pin data_count[3]
* pin data_count[4]
* pin error_count[15]
* pin rd_data[16]
* pin wr_data[13]
* pin rd_data[10]
* pin error_count[13]
* pin wr_data[18]
* pin error_count[1]
* pin error_count[11]
* pin error_count[14]
* pin error_detected
* pin underflow_detected
* pin clear_errors
* pin rd_en
* pin wr_data[16]
* pin error_count[0]
* pin error_count[10]
* pin error_count[2]
* pin error_count[3]
* pin error_count[4]
* pin error_count[9]
* pin rd_data[18]
* pin wr_data[8]
* pin error_count[5]
* pin error_count[7]
* pin error_count[8]
* pin rd_data[8]
* pin error_count[6]
* pin rd_data[19]
* pin wr_data[19]
* pin wr_data[7]
* pin rd_data[9]
* pin rd_data[7]
* pin rd_data[1]
* pin wr_data[1]
* pin rd_data[6]
* pin rd_data[5]
* pin clk
* pin wr_data[0]
* pin wr_data[6]
* pin rd_data[21]
* pin wr_data[4]
* pin rd_data[20]
* pin wr_data[21]
* pin rd_data[4]
* pin wr_data[20]
* pin rd_data[3]
* pin wr_data[3]
* pin rd_data[22]
* pin wr_data[22]
* pin rd_data[23]
* pin wr_data[24]
* pin rd_data[28]
* pin wr_data[29]
* pin wr_data[31]
* pin wr_data[25]
* pin rd_data[29]
* pin rd_data[2]
* pin rd_data[31]
* pin rd_data[24]
* pin rd_data[30]
* pin rd_data[25]
* pin wr_data[27]
* pin wr_data[30]
* pin wr_data[26]
* pin rd_data[27]
* pin wr_data[5]
* pin rd_data[26]
* pin wr_data[23]
* pin wr_data[28]
* pin wr_data[2]
.SUBCKT smart_fifo 1 2 3 4 5 6 7 8 9 10 11 12 13 14 15 16 17 18 19 20 21 22 23
+ 24 25 26 27 28 29 30 31 32 33 348 375 381 421 446 447 462 463 484 493 501 517
+ 518 538 539 540 551 556 598 616 617 641 642 658 659 718 719 736 752 753 759
+ 771 780 781 787 809 865 882 896 941 954 976 998 1017 1047 1059 1330 1343 1344
+ 1345 1346 1347 1348 1349 1350 1351 1352 1353 1354 1355 1356 1357 1358 1359
+ 1360 1361
* net 1 wr_data[17]
* net 2 wr_data[15]
* net 3 rd_data[17]
* net 4 rd_valid
* net 5 wr_data[14]
* net 6 rd_data[15]
* net 7 rd_data[14]
* net 8 rd_data[0]
* net 9 wr_data[9]
* net 10 wr_data[10]
* net 11 rd_data[13]
* net 12 wr_data[12]
* net 13 rd_data[11]
* net 14 rd_data[12]
* net 15 wr_en
* net 16 wr_data[11]
* net 17 rst_n
* net 18 overflow_detected
* net 19 data_count[2]
* net 20 wr_ready
* net 21 full
* net 22 data_count[1]
* net 23 error_count[12]
* net 24 empty
* net 25 almost_full
* net 26 data_count[0]
* net 27 almost_empty
* net 28 data_count[3]
* net 29 data_count[4]
* net 30 error_count[15]
* net 31 rd_data[16]
* net 32 wr_data[13]
* net 33 rd_data[10]
* net 348 error_count[13]
* net 375 wr_data[18]
* net 381 error_count[1]
* net 421 error_count[11]
* net 446 error_count[14]
* net 447 error_detected
* net 462 underflow_detected
* net 463 clear_errors
* net 484 rd_en
* net 493 wr_data[16]
* net 501 error_count[0]
* net 517 error_count[10]
* net 518 error_count[2]
* net 538 error_count[3]
* net 539 error_count[4]
* net 540 error_count[9]
* net 551 rd_data[18]
* net 556 wr_data[8]
* net 598 error_count[5]
* net 616 error_count[7]
* net 617 error_count[8]
* net 641 rd_data[8]
* net 642 error_count[6]
* net 658 rd_data[19]
* net 659 wr_data[19]
* net 718 wr_data[7]
* net 719 rd_data[9]
* net 736 rd_data[7]
* net 752 rd_data[1]
* net 753 wr_data[1]
* net 759 rd_data[6]
* net 771 rd_data[5]
* net 780 clk
* net 781 wr_data[0]
* net 787 wr_data[6]
* net 809 rd_data[21]
* net 865 wr_data[4]
* net 882 rd_data[20]
* net 896 wr_data[21]
* net 941 rd_data[4]
* net 954 wr_data[20]
* net 976 rd_data[3]
* net 998 wr_data[3]
* net 1017 rd_data[22]
* net 1047 wr_data[22]
* net 1059 rd_data[23]
* net 1330 wr_data[24]
* net 1343 rd_data[28]
* net 1344 wr_data[29]
* net 1345 wr_data[31]
* net 1346 wr_data[25]
* net 1347 rd_data[29]
* net 1348 rd_data[2]
* net 1349 rd_data[31]
* net 1350 rd_data[24]
* net 1351 rd_data[30]
* net 1352 rd_data[25]
* net 1353 wr_data[27]
* net 1354 wr_data[30]
* net 1355 wr_data[26]
* net 1356 rd_data[27]
* net 1357 wr_data[5]
* net 1358 rd_data[26]
* net 1359 wr_data[23]
* net 1360 wr_data[28]
* net 1361 wr_data[2]
* cell instance $2 r0 *1 3.68,2.72
X$2 91 1 91 45 34 34 sky130_fd_sc_hd__dlygate4sd3_1
* cell instance $6 r0 *1 34.5,2.72
X$6 91 2 91 47 34 34 sky130_fd_sc_hd__dlygate4sd3_1
* cell instance $9 r0 *1 66.24,2.72
X$9 91 62 3 34 91 34 sky130_fd_sc_hd__clkbuf_1
* cell instance $12 r0 *1 69,2.72
X$12 91 53 4 34 91 34 sky130_fd_sc_hd__clkbuf_1
* cell instance $14 r0 *1 70.84,2.72
X$14 91 5 91 50 34 34 sky130_fd_sc_hd__dlygate4sd3_1
* cell instance $18 r0 *1 79.58,2.72
X$18 91 36 6 34 91 34 sky130_fd_sc_hd__clkbuf_1
* cell instance $21 r0 *1 80.96,2.72
X$21 91 54 7 34 91 34 sky130_fd_sc_hd__clkbuf_1
* cell instance $24 r0 *1 96.6,2.72
X$24 91 119 8 34 91 34 sky130_fd_sc_hd__clkbuf_1
* cell instance $27 r0 *1 98.44,2.72
X$27 91 9 91 70 34 34 sky130_fd_sc_hd__dlygate4sd3_1
* cell instance $29 r0 *1 104.88,2.72
X$29 91 10 91 51 34 34 sky130_fd_sc_hd__dlygate4sd3_1
* cell instance $33 r0 *1 114.08,2.72
X$33 91 38 11 34 91 34 sky130_fd_sc_hd__clkbuf_1
* cell instance $36 r0 *1 121.9,2.72
X$36 91 12 91 49 34 34 sky130_fd_sc_hd__dlygate4sd3_1
* cell instance $39 r0 *1 133.86,2.72
X$39 91 39 13 34 91 34 sky130_fd_sc_hd__clkbuf_1
* cell instance $41 m0 *1 135.24,8.16
X$41 91 118 14 34 91 34 sky130_fd_sc_hd__clkbuf_1
* cell instance $44 r0 *1 184.92,2.72
X$44 91 15 91 48 34 34 sky130_fd_sc_hd__dlygate4sd3_1
* cell instance $48 r0 *1 181.24,2.72
X$48 91 16 91 40 34 34 sky130_fd_sc_hd__dlygate4sd3_1
* cell instance $51 m0 *1 190.44,8.16
X$51 91 17 91 128 34 34 sky130_fd_sc_hd__dlygate4sd3_1
* cell instance $54 r0 *1 188.6,2.72
X$54 91 41 18 34 91 34 sky130_fd_sc_hd__clkbuf_1
* cell instance $57 m0 *1 189.06,8.16
X$57 91 44 19 34 91 34 sky130_fd_sc_hd__clkbuf_1
* cell instance $60 r0 *1 201.02,13.6
X$60 91 165 20 34 91 34 sky130_fd_sc_hd__clkbuf_1
* cell instance $63 m0 *1 199.64,19.04
X$63 91 67 21 34 91 34 sky130_fd_sc_hd__clkbuf_1
* cell instance $66 r0 *1 196.42,13.6
X$66 91 43 22 34 91 34 sky130_fd_sc_hd__clkbuf_1
* cell instance $69 r0 *1 195.04,13.6
X$69 91 181 23 34 91 34 sky130_fd_sc_hd__clkbuf_1
* cell instance $72 m0 *1 195.04,13.6
X$72 91 164 24 34 91 34 sky130_fd_sc_hd__clkbuf_1
* cell instance $75 m0 *1 197.8,13.6
X$75 91 145 25 34 91 34 sky130_fd_sc_hd__clkbuf_1
* cell instance $78 m0 *1 196.42,13.6
X$78 91 46 26 34 91 34 sky130_fd_sc_hd__clkbuf_1
* cell instance $81 m0 *1 199.18,13.6
X$81 91 61 27 34 91 34 sky130_fd_sc_hd__clkbuf_1
* cell instance $84 m0 *1 200.56,13.6
X$84 91 60 28 34 91 34 sky130_fd_sc_hd__clkbuf_1
* cell instance $87 r0 *1 197.8,13.6
X$87 91 58 29 34 91 34 sky130_fd_sc_hd__clkbuf_1
* cell instance $89 r0 *1 199.64,13.6
X$89 91 279 30 34 91 34 sky130_fd_sc_hd__clkbuf_1
* cell instance $92 r0 *1 67.62,2.72
X$92 91 63 31 34 91 34 sky130_fd_sc_hd__clkbuf_1
* cell instance $96 m0 *1 85.56,8.16
X$96 91 32 91 98 34 34 sky130_fd_sc_hd__dlygate4sd3_1
* cell instance $99 r0 *1 117.76,2.72
X$99 91 76 33 34 91 34 sky130_fd_sc_hd__clkbuf_1
* cell instance $151 r0 *1 7.36,2.72
X$151 91 45 34 59 91 34 sky130_fd_sc_hd__clkbuf_4
* cell instance $166 r0 *1 38.18,2.72
X$166 91 47 34 80 91 34 sky130_fd_sc_hd__clkbuf_4
* cell instance $181 r0 *1 74.52,2.72
X$181 91 50 34 64 91 34 sky130_fd_sc_hd__clkbuf_4
* cell instance $183 r0 *1 77.74,2.72
X$183 91 53 65 35 91 34 34 sky130_fd_sc_hd__nand2_1
* cell instance $185 r0 *1 82.34,2.72
X$185 91 37 55 35 91 36 34 34 sky130_fd_sc_hd__o21ai_0
* cell instance $187 r0 *1 84.64,2.72
X$187 91 98 34 86 91 34 sky130_fd_sc_hd__clkbuf_4
* cell instance $188 r0 *1 87.4,2.72
X$188 34 82 68 66 52 91 91 34 sky130_fd_sc_hd__dfrtp_1
* cell instance $191 r0 *1 102.12,2.72
X$191 91 70 91 34 69 34 sky130_fd_sc_hd__buf_4
* cell instance $192 r0 *1 108.56,2.72
X$192 91 51 34 72 91 34 sky130_fd_sc_hd__clkbuf_4
* cell instance $195 r0 *1 112.24,2.72
X$195 91 37 96 121 91 38 34 34 sky130_fd_sc_hd__o21ai_0
* cell instance $198 r0 *1 119.14,2.72
X$198 91 49 34 117 91 34 sky130_fd_sc_hd__clkbuf_4
* cell instance $203 r0 *1 128.34,2.72
X$203 34 77 79 56 85 91 91 34 sky130_fd_sc_hd__mux2_1
* cell instance $204 r0 *1 132.48,2.72
X$204 91 83 79 78 91 34 34 sky130_fd_sc_hd__nand2_1
* cell instance $205 r0 *1 135.24,2.72
X$205 91 37 78 75 91 39 34 34 sky130_fd_sc_hd__o21ai_0
* cell instance $207 r0 *1 138,2.72
X$207 91 53 56 75 91 34 34 sky130_fd_sc_hd__nand2_1
* cell instance $224 r0 *1 171.58,2.72
X$224 91 74 91 34 73 34 sky130_fd_sc_hd__inv_1
* cell instance $225 r0 *1 172.96,2.72
X$225 91 40 34 114 91 34 sky130_fd_sc_hd__clkbuf_4
* cell instance $227 r0 *1 176.64,2.72
X$227 91 48 91 34 71 34 sky130_fd_sc_hd__clkbuf_2
* cell instance $229 r0 *1 178.48,2.72
X$229 91 71 67 41 91 34 34 sky130_fd_sc_hd__and2_0
* cell instance $232 r0 *1 190.44,2.72
X$232 91 43 42 91 57 34 34 sky130_fd_sc_hd__xor2_1
* cell instance $235 r0 *1 195.04,2.72
X$235 91 43 90 42 109 34 91 34 sky130_fd_sc_hd__nor3b_1
* cell instance $236 r0 *1 197.8,2.72
X$236 91 57 60 44 58 34 61 91 34 sky130_fd_sc_hd__nor4_1
* cell instance $237 r0 *1 200.1,2.72
X$237 91 42 91 34 46 34 sky130_fd_sc_hd__inv_1
* cell instance $266 m0 *1 41.4,8.16
X$266 34 81 92 110 80 91 91 34 sky130_fd_sc_hd__edfxtp_1
* cell instance $272 m0 *1 61.18,8.16
X$272 34 81 94 66 64 91 91 34 sky130_fd_sc_hd__edfxtp_1
* cell instance $273 m0 *1 72.22,8.16
X$273 34 82 84 66 112 91 91 34 sky130_fd_sc_hd__dfrtp_1
* cell instance $274 m0 *1 81.42,8.16
X$274 91 83 84 55 91 34 34 sky130_fd_sc_hd__nand2_1
* cell instance $275 m0 *1 82.8,8.16
X$275 91 83 100 115 91 34 34 sky130_fd_sc_hd__nand2_1
* cell instance $278 m0 *1 89.24,8.16
X$278 34 52 68 116 85 91 91 34 sky130_fd_sc_hd__mux2_1
* cell instance $279 m0 *1 93.38,8.16
X$279 34 81 97 66 86 91 91 34 sky130_fd_sc_hd__edfxtp_1
* cell instance $281 m0 *1 108.1,8.16
X$281 91 53 120 121 91 34 34 sky130_fd_sc_hd__nand2_1
* cell instance $282 m0 *1 109.48,8.16
X$282 91 83 101 96 91 34 34 sky130_fd_sc_hd__nand2_1
* cell instance $288 m0 *1 115.46,8.16
X$288 34 82 87 88 95 91 91 34 sky130_fd_sc_hd__dfrtp_1
* cell instance $289 m0 *1 124.66,8.16
X$289 91 83 87 134 91 34 34 sky130_fd_sc_hd__nand2_1
* cell instance $290 m0 *1 126.04,8.16
X$290 34 82 79 88 77 91 91 34 sky130_fd_sc_hd__dfrtp_1
* cell instance $295 m0 *1 140.76,8.16
X$295 34 81 93 130 117 91 91 34 sky130_fd_sc_hd__edfxtp_1
* cell instance $298 m0 *1 155.94,8.16
X$298 34 81 113 125 114 91 91 34 sky130_fd_sc_hd__edfxtp_1
* cell instance $304 m0 *1 174.34,8.16
X$304 34 105 73 43 126 129 91 91 34 sky130_fd_sc_hd__fa_2
* cell instance $306 m0 *1 183.08,8.16
X$306 34 140 44 107 108 109 91 91 34 sky130_fd_sc_hd__nand4b_2
* cell instance $310 m0 *1 195.04,8.16
X$310 91 89 90 91 60 34 34 sky130_fd_sc_hd__xor2_1
* cell instance $311 m0 *1 198.26,8.16
X$311 34 145 60 44 43 58 91 91 34 sky130_fd_sc_hd__a31o_1
* cell instance $326 r0 *1 31.74,8.16
X$326 34 104 147 110 80 91 91 34 sky130_fd_sc_hd__edfxtp_1
* cell instance $329 r0 *1 43.24,8.16
X$329 34 99 111 110 80 91 91 34 sky130_fd_sc_hd__edfxtp_1
* cell instance $333 r0 *1 59.34,8.16
X$333 34 99 150 66 64 91 91 34 sky130_fd_sc_hd__edfxtp_1
* cell instance $336 r0 *1 70.84,8.16
X$336 34 112 84 65 85 91 91 34 sky130_fd_sc_hd__mux2_1
* cell instance $337 r0 *1 74.98,8.16
X$337 34 138 66 91 91 34 sky130_fd_sc_hd__clkbuf_16
* cell instance $338 r0 *1 84.18,8.16
X$338 34 82 100 66 153 91 91 34 sky130_fd_sc_hd__dfrtp_1
* cell instance $339 r0 *1 93.38,8.16
X$339 91 53 116 122 91 34 34 sky130_fd_sc_hd__nand2_1
* cell instance $340 r0 *1 94.76,8.16
X$340 91 83 68 131 91 34 34 sky130_fd_sc_hd__nand2_1
* cell instance $342 r0 *1 96.14,8.16
X$342 91 37 131 122 91 119 34 34 sky130_fd_sc_hd__o21ai_0
* cell instance $347 r0 *1 103.5,8.16
X$347 34 157 101 120 85 91 91 34 sky130_fd_sc_hd__mux2_1
* cell instance $348 r0 *1 107.64,8.16
X$348 34 81 160 88 72 91 91 34 sky130_fd_sc_hd__edfxtp_1
* cell instance $349 r0 *1 118.68,8.16
X$349 34 95 87 102 85 91 91 34 sky130_fd_sc_hd__mux2_1
* cell instance $350 r0 *1 122.82,8.16
X$350 91 37 134 123 91 76 34 34 sky130_fd_sc_hd__o21ai_0
* cell instance $355 r0 *1 126.96,8.16
X$355 91 53 102 123 91 34 34 sky130_fd_sc_hd__nand2_1
* cell instance $356 r0 *1 128.34,8.16
X$356 34 172 124 103 85 91 91 34 sky130_fd_sc_hd__mux2_1
* cell instance $357 r0 *1 132.48,8.16
X$357 91 83 124 133 91 34 34 sky130_fd_sc_hd__nand2_1
* cell instance $358 r0 *1 133.86,8.16
X$358 91 37 133 132 91 118 34 34 sky130_fd_sc_hd__o21ai_0
* cell instance $360 r0 *1 136.62,8.16
X$360 91 53 103 132 91 34 34 sky130_fd_sc_hd__nand2_1
* cell instance $363 r0 *1 142.14,8.16
X$363 34 104 158 130 117 91 91 34 sky130_fd_sc_hd__edfxtp_1
* cell instance $368 r0 *1 158.24,8.16
X$368 34 104 155 125 114 91 91 34 sky130_fd_sc_hd__edfxtp_1
* cell instance $371 r0 *1 173.42,8.16
X$371 34 106 152 126 129 91 91 34 sky130_fd_sc_hd__ha_1
* cell instance $373 r0 *1 178.02,8.16
X$373 91 74 127 106 107 34 91 34 sky130_fd_sc_hd__nand3b_1
* cell instance $375 r0 *1 181.24,8.16
X$375 34 127 105 44 91 91 34 sky130_fd_sc_hd__xor2_2
* cell instance $376 r0 *1 187.22,8.16
X$376 91 149 44 107 108 91 141 34 34 sky130_fd_sc_hd__a211o_1
* cell instance $377 r0 *1 190.44,8.16
X$377 91 107 108 89 91 34 34 sky130_fd_sc_hd__nand2_1
* cell instance $379 r0 *1 192.28,8.16
X$379 34 128 82 91 91 34 sky130_fd_sc_hd__buf_16
* cell instance $399 m0 *1 17.94,13.6
X$399 34 161 166 144 59 91 91 34 sky130_fd_sc_hd__edfxtp_1
* cell instance $403 m0 *1 34.96,13.6
X$403 34 135 146 110 80 91 91 34 sky130_fd_sc_hd__edfxtp_1
* cell instance $405 m0 *1 46.46,13.6
X$405 34 137 167 146 92 111 147 136 91 91 34 sky130_fd_sc_hd__mux4_1
* cell instance $408 m0 *1 57.04,13.6
X$408 34 135 148 66 64 91 91 34 sky130_fd_sc_hd__edfxtp_1
* cell instance $409 m0 *1 68.08,13.6
X$409 34 137 168 148 94 150 151 136 91 91 34 sky130_fd_sc_hd__mux4_1
* cell instance $411 m0 *1 78.2,13.6
X$411 34 153 100 139 85 91 91 34 sky130_fd_sc_hd__mux2_1
* cell instance $415 m0 *1 85.1,13.6
X$415 91 37 115 154 91 54 34 34 sky130_fd_sc_hd__o21ai_0
* cell instance $416 m0 *1 86.94,13.6
X$416 91 53 139 154 91 34 34 sky130_fd_sc_hd__nand2_1
* cell instance $420 m0 *1 91.54,13.6
X$420 34 99 171 66 86 91 91 34 sky130_fd_sc_hd__edfxtp_1
* cell instance $421 m0 *1 102.58,13.6
X$421 34 82 101 88 157 91 91 34 sky130_fd_sc_hd__dfrtp_1
* cell instance $425 m0 *1 116.38,13.6
X$425 34 82 163 88 191 91 91 34 sky130_fd_sc_hd__dfrtp_4
* cell instance $426 m0 *1 126.96,13.6
X$426 34 82 124 130 172 91 91 34 sky130_fd_sc_hd__dfrtp_1
* cell instance $431 m0 *1 139.84,13.6
X$431 34 99 159 130 117 91 91 34 sky130_fd_sc_hd__edfxtp_1
* cell instance $435 m0 *1 155.94,13.6
X$435 34 135 156 125 114 91 91 34 sky130_fd_sc_hd__edfxtp_1
* cell instance $437 m0 *1 167.44,13.6
X$437 34 137 169 156 113 170 155 136 91 91 34 sky130_fd_sc_hd__mux4_1
* cell instance $438 m0 *1 177.1,13.6
X$438 91 136 91 34 126 34 sky130_fd_sc_hd__inv_1
* cell instance $441 m0 *1 181.24,13.6
X$441 91 180 127 152 34 91 108 34 sky130_fd_sc_hd__a21oi_1
* cell instance $442 m0 *1 183.08,13.6
X$442 34 140 141 67 143 142 91 91 34 sky130_fd_sc_hd__a211oi_4
* cell instance $443 m0 *1 190.44,13.6
X$443 91 43 90 42 149 34 91 34 sky130_fd_sc_hd__nand3b_1
* cell instance $444 m0 *1 193.2,13.6
X$444 91 143 142 58 34 91 34 sky130_fd_sc_hd__nor2_1
* cell instance $459 r0 *1 22.08,13.6
X$459 34 162 182 110 59 91 91 34 sky130_fd_sc_hd__edfxtp_1
* cell instance $474 r0 *1 59.34,13.6
X$474 34 104 151 66 64 91 91 34 sky130_fd_sc_hd__edfxtp_1
* cell instance $481 r0 *1 74.98,13.6
X$481 91 66 1384 34 91 34 sky130_fd_sc_hd__clkbuf_1
* cell instance $487 r0 *1 86.94,13.6
X$487 34 135 188 66 86 91 91 34 sky130_fd_sc_hd__edfxtp_1
* cell instance $495 r0 *1 104.42,13.6
X$495 34 99 190 88 72 91 91 34 sky130_fd_sc_hd__edfxtp_1
* cell instance $496 r0 *1 115.46,13.6
X$496 34 227 88 91 91 34 sky130_fd_sc_hd__clkbuf_16
* cell instance $506 r0 *1 134.78,13.6
X$506 34 135 189 130 117 91 91 34 sky130_fd_sc_hd__edfxtp_1
* cell instance $516 r0 *1 158.7,13.6
X$516 34 99 170 125 114 91 91 34 sky130_fd_sc_hd__edfxtp_1
* cell instance $519 r0 *1 174.34,13.6
X$519 34 42 74 163 186 91 91 34 sky130_fd_sc_hd__ha_1
* cell instance $526 r0 *1 182.16,13.6
X$526 91 90 127 105 185 91 34 34 sky130_fd_sc_hd__nand3_1
* cell instance $527 r0 *1 184,13.6
X$527 34 140 141 164 143 142 91 91 34 sky130_fd_sc_hd__a2bb2oi_4
* cell instance $536 m0 *1 17.94,19.04
X$536 34 200 201 110 59 91 91 34 sky130_fd_sc_hd__edfxtp_1
* cell instance $538 m0 *1 29.44,19.04
X$538 34 173 242 202 201 182 166 192 91 91 34 sky130_fd_sc_hd__mux4_1
* cell instance $539 m0 *1 39.1,19.04
X$539 34 162 204 110 80 91 91 34 sky130_fd_sc_hd__edfxtp_1
* cell instance $542 m0 *1 54.28,19.04
X$542 91 167 174 205 175 193 34 91 34 sky130_fd_sc_hd__o22ai_1
* cell instance $544 m0 *1 57.04,19.04
X$544 91 206 193 65 34 91 34 sky130_fd_sc_hd__nor2_1
* cell instance $549 m0 *1 68.08,19.04
X$549 34 162 208 66 64 91 91 34 sky130_fd_sc_hd__edfxtp_1
* cell instance $550 m0 *1 79.12,19.04
X$550 91 168 174 187 175 176 34 91 34 sky130_fd_sc_hd__o22ai_1
* cell instance $551 m0 *1 81.42,19.04
X$551 91 194 176 139 34 91 34 sky130_fd_sc_hd__nor2_1
* cell instance $555 m0 *1 84.64,19.04
X$555 34 104 212 66 86 91 91 34 sky130_fd_sc_hd__edfxtp_1
* cell instance $556 m0 *1 95.68,19.04
X$556 34 137 213 188 97 171 212 136 91 91 34 sky130_fd_sc_hd__mux4_1
* cell instance $562 m0 *1 113.16,19.04
X$562 91 88 1379 34 91 34 sky130_fd_sc_hd__clkbuf_1
* cell instance $564 m0 *1 115.46,19.04
X$564 91 85 137 191 91 34 34 sky130_fd_sc_hd__xnor2_1
* cell instance $567 m0 *1 120.98,19.04
X$567 34 162 211 88 117 91 91 34 sky130_fd_sc_hd__edfxtp_1
* cell instance $570 m0 *1 134.78,19.04
X$570 91 210 177 103 34 91 34 sky130_fd_sc_hd__nor2_1
* cell instance $572 m0 *1 138,19.04
X$572 91 196 178 56 34 91 34 sky130_fd_sc_hd__nor2_1
* cell instance $574 m0 *1 139.84,19.04
X$574 91 197 174 207 175 177 34 91 34 sky130_fd_sc_hd__o22ai_1
* cell instance $576 m0 *1 142.6,19.04
X$576 91 169 174 179 175 178 34 91 34 sky130_fd_sc_hd__o22ai_1
* cell instance $578 m0 *1 145.36,19.04
X$578 34 137 197 189 93 159 158 136 91 91 34 sky130_fd_sc_hd__mux4_1
* cell instance $581 m0 *1 157.78,19.04
X$581 34 82 198 125 203 91 91 34 sky130_fd_sc_hd__dfrtp_1
* cell instance $583 m0 *1 167.44,19.04
X$583 34 82 129 125 218 91 91 34 sky130_fd_sc_hd__dfrtp_2
* cell instance $585 m0 *1 177.56,19.04
X$585 34 127 180 261 233 91 91 34 sky130_fd_sc_hd__ha_1
* cell instance $588 m0 *1 186.3,19.04
X$588 91 232 90 180 34 91 184 34 sky130_fd_sc_hd__a21oi_1
* cell instance $589 m0 *1 188.14,19.04
X$589 91 185 184 199 34 91 142 34 sky130_fd_sc_hd__and3_2
* cell instance $594 m0 *1 201.02,19.04
X$594 91 67 91 34 165 34 sky130_fd_sc_hd__inv_1
* cell instance $595 r0 *1 1.38,19.04
X$595 34 81 216 144 59 91 91 34 sky130_fd_sc_hd__edfxtp_1
* cell instance $603 r0 *1 18.86,19.04
X$603 34 183 202 110 59 91 91 34 sky130_fd_sc_hd__edfxtp_1
* cell instance $605 r0 *1 30.36,19.04
X$605 91 110 1383 34 91 34 sky130_fd_sc_hd__clkbuf_1
* cell instance $606 r0 *1 31.74,19.04
X$606 34 183 219 110 80 91 91 34 sky130_fd_sc_hd__edfxtp_1
* cell instance $611 r0 *1 46,19.04
X$611 34 173 205 219 220 204 221 192 91 91 34 sky130_fd_sc_hd__mux4_1
* cell instance $613 r0 *1 59.34,19.04
X$613 34 200 223 238 64 91 91 34 sky130_fd_sc_hd__edfxtp_1
* cell instance $622 r0 *1 86.94,19.04
X$622 34 161 229 228 86 91 91 34 sky130_fd_sc_hd__edfxtp_1
* cell instance $627 r0 *1 102.58,19.04
X$627 34 135 230 88 72 91 91 34 sky130_fd_sc_hd__edfxtp_1
* cell instance $628 r0 *1 113.62,19.04
X$628 34 104 226 88 72 91 91 34 sky130_fd_sc_hd__edfxtp_1
* cell instance $635 r0 *1 132.02,19.04
X$635 34 224 207 225 195 211 209 222 91 91 34 sky130_fd_sc_hd__mux4_1
* cell instance $644 r0 *1 161,19.04
X$644 34 125 91 91 34 sky130_fd_sc_hd__bufinv_16
* cell instance $645 r0 *1 172.04,19.04
X$645 34 1370 217 198 129 91 91 34 sky130_fd_sc_hd__ha_1
* cell instance $646 r0 *1 176.64,19.04
X$646 91 215 198 203 91 34 34 sky130_fd_sc_hd__xnor2_1
* cell instance $650 r0 *1 181.24,19.04
X$650 91 71 67 215 34 91 34 sky130_fd_sc_hd__nand2b_1
* cell instance $653 r0 *1 185.84,19.04
X$653 34 143 199 184 185 91 91 34 sky130_fd_sc_hd__a21oi_4
* cell instance $677 m0 *1 8.28,24.48
X$677 34 104 235 144 59 91 91 34 sky130_fd_sc_hd__edfxtp_1
* cell instance $685 m0 *1 32.2,24.48
X$685 34 200 220 110 80 91 91 34 sky130_fd_sc_hd__edfxtp_1
* cell instance $686 m0 *1 43.24,24.48
X$686 34 161 221 110 80 91 91 34 sky130_fd_sc_hd__edfxtp_1
* cell instance $695 m0 *1 70.84,24.48
X$695 34 161 239 238 64 91 91 34 sky130_fd_sc_hd__edfxtp_1
* cell instance $700 m0 *1 85.1,24.48
X$700 34 200 240 228 86 91 91 34 sky130_fd_sc_hd__edfxtp_1
* cell instance $704 m0 *1 102.12,24.48
X$704 91 213 174 271 175 214 34 91 34 sky130_fd_sc_hd__o22ai_1
* cell instance $706 m0 *1 104.88,24.48
X$706 91 241 214 120 34 91 34 sky130_fd_sc_hd__nor2_1
* cell instance $713 m0 *1 121.44,24.48
X$713 34 183 225 88 117 91 91 34 sky130_fd_sc_hd__edfxtp_1
* cell instance $720 m0 *1 140.3,24.48
X$720 34 200 195 130 117 91 91 34 sky130_fd_sc_hd__edfxtp_1
* cell instance $722 m0 *1 152.26,24.48
X$722 34 183 237 125 114 91 91 34 sky130_fd_sc_hd__edfxtp_1
* cell instance $725 m0 *1 165.6,24.48
X$725 91 198 91 34 186 34 sky130_fd_sc_hd__inv_1
* cell instance $727 m0 *1 167.44,24.48
X$727 34 1368 236 186 129 91 91 34 sky130_fd_sc_hd__ha_1
* cell instance $728 m0 *1 172.04,24.48
X$728 34 218 129 264 215 91 91 34 sky130_fd_sc_hd__mux2_1
* cell instance $729 m0 *1 176.18,24.48
X$729 34 82 233 231 234 91 91 34 sky130_fd_sc_hd__dfrtp_1
* cell instance $738 r0 *1 4.14,24.48
X$738 34 99 245 144 59 91 91 34 sky130_fd_sc_hd__edfxtp_1
* cell instance $747 r0 *1 28.98,24.48
X$747 91 249 174 242 175 250 34 91 34 sky130_fd_sc_hd__o22ai_1
* cell instance $750 r0 *1 32.66,24.48
X$750 34 138 110 91 91 34 sky130_fd_sc_hd__clkbuf_16
* cell instance $761 r0 *1 59.34,24.48
X$761 34 183 251 238 64 91 91 34 sky130_fd_sc_hd__edfxtp_1
* cell instance $767 r0 *1 73.6,24.48
X$767 34 224 187 251 223 208 239 222 91 91 34 sky130_fd_sc_hd__mux4_1
* cell instance $769 r0 *1 83.72,24.48
X$769 34 183 254 228 86 91 91 34 sky130_fd_sc_hd__edfxtp_1
* cell instance $782 r0 *1 112.7,24.48
X$782 34 137 255 230 160 190 226 136 91 91 34 sky130_fd_sc_hd__mux4_1
* cell instance $783 r0 *1 122.36,24.48
X$783 91 255 174 252 175 253 34 91 34 sky130_fd_sc_hd__o22ai_1
* cell instance $789 r0 *1 127.88,24.48
X$789 34 161 209 130 117 91 91 34 sky130_fd_sc_hd__edfxtp_1
* cell instance $790 r0 *1 138.92,24.48
X$790 34 200 248 130 114 91 91 34 sky130_fd_sc_hd__edfxtp_1
* cell instance $797 r0 *1 153.64,24.48
X$797 34 161 247 125 114 91 91 34 sky130_fd_sc_hd__edfxtp_1
* cell instance $798 r0 *1 164.68,24.48
X$798 34 227 125 91 91 34 sky130_fd_sc_hd__clkbuf_16
* cell instance $799 r0 *1 173.88,24.48
X$799 91 129 91 34 246 34 sky130_fd_sc_hd__inv_1
* cell instance $800 r0 *1 175.26,24.48
X$800 91 244 233 234 91 34 34 sky130_fd_sc_hd__xnor2_1
* cell instance $806 r0 *1 181.24,24.48
X$806 34 90 232 243 295 91 91 34 sky130_fd_sc_hd__ha_1
* cell instance $820 m0 *1 1.84,29.92
X$820 34 135 260 144 59 91 91 34 sky130_fd_sc_hd__edfxtp_1
* cell instance $822 m0 *1 13.8,29.92
X$822 34 262 249 260 216 245 235 286 91 91 34 sky130_fd_sc_hd__mux4_1
* cell instance $828 m0 *1 33.58,29.92
X$828 34 256 265 110 59 91 91 34 sky130_fd_sc_hd__edfxtp_1
* cell instance $835 m0 *1 58.88,29.92
X$835 34 256 270 238 80 91 91 34 sky130_fd_sc_hd__edfxtp_1
* cell instance $837 m0 *1 71.76,29.92
X$837 34 162 257 238 86 91 91 34 sky130_fd_sc_hd__edfxtp_1
* cell instance $845 m0 *1 93.38,29.92
X$845 34 224 271 254 240 257 229 222 91 91 34 sky130_fd_sc_hd__mux4_1
* cell instance $852 m0 *1 112.7,29.92
X$852 34 161 273 88 72 91 91 34 sky130_fd_sc_hd__edfxtp_1
* cell instance $853 m0 *1 123.74,29.92
X$853 91 272 253 102 34 91 34 sky130_fd_sc_hd__nor2_1
* cell instance $861 m0 *1 139.84,29.92
X$861 91 130 1375 34 91 34 sky130_fd_sc_hd__clkbuf_1
* cell instance $863 m0 *1 141.68,29.92
X$863 34 162 258 130 114 91 91 34 sky130_fd_sc_hd__edfxtp_1
* cell instance $865 m0 *1 153.64,29.92
X$865 34 224 179 237 248 258 247 222 91 91 34 sky130_fd_sc_hd__mux4_1
* cell instance $868 m0 *1 167.44,29.92
X$868 34 264 269 186 246 91 91 34 sky130_fd_sc_hd__ha_1
* cell instance $870 m0 *1 172.5,29.92
X$870 91 67 71 217 244 34 91 34 sky130_fd_sc_hd__nand3b_1
* cell instance $871 m0 *1 175.26,29.92
X$871 91 268 186 246 67 34 266 91 34 sky130_fd_sc_hd__nor4_1
* cell instance $872 m0 *1 177.56,29.92
X$872 91 263 91 34 261 34 sky130_fd_sc_hd__inv_1
* cell instance $875 m0 *1 181.24,29.92
X$875 91 162 67 259 34 91 34 sky130_fd_sc_hd__nand2b_1
* cell instance $884 r0 *1 5.52,29.92
X$884 34 138 144 91 91 34 sky130_fd_sc_hd__clkbuf_16
* cell instance $888 r0 *1 15.64,29.92
X$888 34 144 1366 91 91 34 sky130_fd_sc_hd__clkbuf_8
* cell instance $892 r0 *1 31.74,29.92
X$892 34 267 304 110 59 91 91 34 sky130_fd_sc_hd__edfxtp_1
* cell instance $897 r0 *1 46,29.92
X$897 34 282 290 238 80 91 91 34 sky130_fd_sc_hd__edfxtp_1
* cell instance $898 r0 *1 57.04,29.92
X$898 34 267 305 238 80 91 91 34 sky130_fd_sc_hd__edfxtp_1
* cell instance $901 r0 *1 69,29.92
X$901 91 53 275 307 91 34 34 sky130_fd_sc_hd__nand2_1
* cell instance $903 r0 *1 70.84,29.92
X$903 34 82 292 228 324 91 91 34 sky130_fd_sc_hd__dfrtp_1
* cell instance $907 r0 *1 88.32,29.92
X$907 34 138 228 91 91 34 sky130_fd_sc_hd__clkbuf_16
* cell instance $914 r0 *1 104.88,29.92
X$914 34 183 285 294 72 91 91 34 sky130_fd_sc_hd__edfxtp_1
* cell instance $915 r0 *1 115.92,29.92
X$915 34 224 252 285 312 311 273 222 91 91 34 sky130_fd_sc_hd__mux4_1
* cell instance $920 r0 *1 131.56,29.92
X$920 34 284 323 309 341 276 283 263 91 91 34 sky130_fd_sc_hd__mux4_1
* cell instance $921 r0 *1 141.22,29.92
X$921 34 227 130 91 91 34 sky130_fd_sc_hd__clkbuf_16
* cell instance $928 r0 *1 157.78,29.92
X$928 34 236 104 295 277 91 91 34 sky130_fd_sc_hd__and3_4
* cell instance $929 r0 *1 161.92,29.92
X$929 34 269 81 295 277 91 91 34 sky130_fd_sc_hd__and3_4
* cell instance $932 r0 *1 167.44,29.92
X$932 34 1369 315 198 246 91 91 34 sky130_fd_sc_hd__ha_1
* cell instance $933 r0 *1 172.04,29.92
X$933 91 71 233 268 91 34 34 sky130_fd_sc_hd__nand2_1
* cell instance $934 r0 *1 173.42,29.92
X$934 34 295 317 71 233 91 91 34 sky130_fd_sc_hd__and3_1
* cell instance $935 r0 *1 175.72,29.92
X$935 91 233 71 277 34 91 34 sky130_fd_sc_hd__nor2b_1
* cell instance $941 r0 *1 182.16,29.92
X$941 34 278 281 199 91 91 34 sky130_fd_sc_hd__xor2_2
* cell instance $944 r0 *1 190.9,29.92
X$944 34 82 279 231 280 91 91 34 sky130_fd_sc_hd__dfrtp_1
* cell instance $961 m0 *1 1.38,35.36
X$961 34 81 299 144 297 91 91 34 sky130_fd_sc_hd__edfxtp_1
* cell instance $962 m0 *1 12.42,35.36
X$962 34 262 301 349 299 319 300 286 91 91 34 sky130_fd_sc_hd__mux4_1
* cell instance $968 m0 *1 29.44,35.36
X$968 34 287 303 302 59 91 91 34 sky130_fd_sc_hd__edfxtp_1
* cell instance $969 m0 *1 40.48,35.36
X$969 34 274 321 303 304 320 265 288 91 91 34 sky130_fd_sc_hd__mux4_1
* cell instance $972 m0 *1 54.74,35.36
X$972 91 238 91 34 34 sky130_fd_sc_hd__clkinv_2
* cell instance $975 m0 *1 57.5,35.36
X$975 34 274 306 289 305 290 270 288 91 91 34 sky130_fd_sc_hd__mux4_1
* cell instance $977 m0 *1 67.62,35.36
X$977 91 291 307 308 91 34 63 34 sky130_fd_sc_hd__o21ai_1
* cell instance $979 m0 *1 69.92,35.36
X$979 91 83 292 308 91 34 34 sky130_fd_sc_hd__nand2_1
* cell instance $981 m0 *1 71.76,35.36
X$981 34 267 310 293 64 91 91 34 sky130_fd_sc_hd__edfxtp_1
* cell instance $986 m0 *1 88.32,35.36
X$986 91 228 1373 34 91 34 sky130_fd_sc_hd__clkbuf_1
* cell instance $987 m0 *1 89.7,35.36
X$987 34 256 313 228 86 91 91 34 sky130_fd_sc_hd__edfxtp_1
* cell instance $988 m0 *1 100.74,35.36
X$988 34 200 312 228 72 91 91 34 sky130_fd_sc_hd__edfxtp_1
* cell instance $990 m0 *1 112.24,35.36
X$990 34 162 311 88 72 91 91 34 sky130_fd_sc_hd__edfxtp_1
* cell instance $991 m0 *1 123.28,35.36
X$991 34 287 309 294 117 91 91 34 sky130_fd_sc_hd__edfxtp_1
* cell instance $1004 m0 *1 161.46,35.36
X$1004 34 315 135 295 277 91 91 34 sky130_fd_sc_hd__and3_4
* cell instance $1005 m0 *1 165.6,35.36
X$1005 91 295 268 316 34 91 34 sky130_fd_sc_hd__nor2_1
* cell instance $1007 m0 *1 167.44,35.36
X$1007 34 217 99 295 277 91 91 34 sky130_fd_sc_hd__and3_4
* cell instance $1008 m0 *1 171.58,35.36
X$1008 91 266 295 91 296 34 34 sky130_fd_sc_hd__xor2_1
* cell instance $1009 m0 *1 174.8,35.36
X$1009 34 82 295 231 296 91 91 34 sky130_fd_sc_hd__dfrtp_4
* cell instance $1010 m0 *1 185.38,35.36
X$1010 34 82 278 231 318 91 91 34 sky130_fd_sc_hd__dfrtp_1
* cell instance $1012 m0 *1 195.04,35.36
X$1012 91 298 279 91 280 34 34 sky130_fd_sc_hd__xor2_1
* cell instance $1017 r0 *1 4.14,35.36
X$1017 34 99 319 144 297 91 91 34 sky130_fd_sc_hd__edfxtp_1
* cell instance $1024 r0 *1 19.78,35.36
X$1024 34 161 332 302 297 91 91 34 sky130_fd_sc_hd__edfxtp_1
* cell instance $1026 r0 *1 31.74,35.36
X$1026 34 282 320 302 59 91 91 34 sky130_fd_sc_hd__edfxtp_1
* cell instance $1034 r0 *1 49.68,35.36
X$1034 91 335 250 322 34 91 34 sky130_fd_sc_hd__nor2_1
* cell instance $1035 r0 *1 51.06,35.36
X$1035 91 321 329 336 314 335 34 91 34 sky130_fd_sc_hd__o22ai_1
* cell instance $1039 r0 *1 59.34,35.36
X$1039 34 287 289 293 80 91 91 34 sky130_fd_sc_hd__edfxtp_1
* cell instance $1045 r0 *1 71.3,35.36
X$1045 34 324 292 275 85 91 91 34 sky130_fd_sc_hd__mux2_1
* cell instance $1047 r0 *1 75.9,35.36
X$1047 34 282 328 293 86 91 91 34 sky130_fd_sc_hd__edfxtp_1
* cell instance $1048 r0 *1 86.94,35.36
X$1048 34 267 344 228 86 91 91 34 sky130_fd_sc_hd__edfxtp_1
* cell instance $1053 r0 *1 98.44,35.36
X$1053 34 284 325 342 344 328 313 263 91 91 34 sky130_fd_sc_hd__mux4_1
* cell instance $1054 r0 *1 108.1,35.36
X$1054 91 325 329 343 314 241 34 91 34 sky130_fd_sc_hd__o22ai_1
* cell instance $1064 r0 *1 126.04,35.36
X$1064 34 256 283 294 117 91 91 34 sky130_fd_sc_hd__edfxtp_1