
* cell loadable_updown_counter
* pin load_val[7]
* pin enable
* pin count[6]
* pin load_val[5]
* pin load_val[6]
* pin load_en
* pin rst_n
* pin count[5]
* pin count[4]
* pin count[7]
* pin count[3]
* pin clk
* pin load_val[2]
* pin count[1]
* pin overflow
* pin load_val[4]
* pin up_down
* pin load_val[0]
* pin load_val[3]
* pin count[2]
* pin count[0]
* pin load_val[1]
* pin underflow
.SUBCKT loadable_updown_counter 1 2 3 4 5 13 15 17 29 33 58 80 122 127 128 130
+ 131 133 134 135 136 137 138
* net 1 load_val[7]
* net 2 enable
* net 3 count[6]
* net 4 load_val[5]
* net 5 load_val[6]
* net 13 load_en
* net 15 rst_n
* net 17 count[5]
* net 29 count[4]
* net 33 count[7]
* net 58 count[3]
* net 80 clk
* net 122 load_val[2]
* net 127 count[1]
* net 128 overflow
* net 130 load_val[4]
* net 131 up_down
* net 133 load_val[0]
* net 134 load_val[3]
* net 135 count[2]
* net 136 count[0]
* net 137 load_val[1]
* net 138 underflow
* cell instance $3 m0 *1 41.86,8.16
X$3 8 1 9 6 8 6 sky130_fd_sc_hd__clkbuf_1
* cell instance $6 m0 *1 41.4,29.92
X$6 8 2 6 10 8 6 sky130_fd_sc_hd__buf_2
* cell instance $9 r0 *1 44.16,2.72
X$9 8 11 3 6 8 6 sky130_fd_sc_hd__clkbuf_1
* cell instance $12 r0 *1 46.92,2.72
X$12 8 4 7 6 8 6 sky130_fd_sc_hd__clkbuf_1
* cell instance $15 r0 *1 45.54,2.72
X$15 8 5 19 6 8 6 sky130_fd_sc_hd__clkbuf_1
* cell instance $415 m0 *1 45.54,35.36
X$415 8 10 11 20 6 8 6 sky130_fd_sc_hd__nor2b_1
* cell instance $420 m0 *1 50.6,35.36
X$420 8 10 12 21 6 8 6 sky130_fd_sc_hd__nor2b_1
* cell instance $440 m0 *1 73.14,35.36
X$440 8 13 6 14 8 6 sky130_fd_sc_hd__buf_2
* cell instance $442 m0 *1 74.98,35.36
X$442 8 12 17 6 8 6 sky130_fd_sc_hd__clkbuf_1
* cell instance $454 r0 *1 11.04,35.36
X$454 8 15 8 18 6 6 sky130_fd_sc_hd__dlygate4sd3_1
* cell instance $462 r0 *1 20.7,35.36
X$462 8 18 6 24 8 6 sky130_fd_sc_hd__clkbuf_4
* cell instance $474 r0 *1 45.54,35.36
X$474 8 19 10 16 20 6 8 23 6 sky130_fd_sc_hd__a31oi_1
* cell instance $477 r0 *1 49.22,35.36
X$477 8 7 10 16 21 6 8 22 6 sky130_fd_sc_hd__a31oi_1
* cell instance $507 m0 *1 44.62,40.8
X$507 6 24 11 28 27 8 8 6 sky130_fd_sc_hd__dfrtp_2
* cell instance $508 m0 *1 54.28,40.8
X$508 8 25 30 22 8 26 6 6 sky130_fd_sc_hd__o21ai_0
* cell instance $513 m0 *1 58.42,40.8
X$513 6 24 12 28 26 8 8 6 sky130_fd_sc_hd__dfrtp_2
* cell instance $543 r0 *1 44.62,40.8
X$543 8 16 10 39 8 6 6 sky130_fd_sc_hd__nand2_1
* cell instance $546 r0 *1 48.3,40.8
X$546 8 14 6 16 8 6 sky130_fd_sc_hd__buf_2
* cell instance $547 r0 *1 50.14,40.8
X$547 8 31 40 23 27 8 6 6 sky130_fd_sc_hd__nand3_1
* cell instance $549 r0 *1 52.9,40.8
X$549 8 10 14 30 6 8 6 sky130_fd_sc_hd__nand2b_1
* cell instance $550 r0 *1 55.2,40.8
X$550 8 35 36 25 8 6 6 sky130_fd_sc_hd__xnor2_1
* cell instance $561 r0 *1 82.8,40.8
X$561 8 34 29 6 8 6 sky130_fd_sc_hd__clkbuf_1
* cell instance $582 m0 *1 44.62,46.24
X$582 8 9 39 32 10 43 6 8 6 sky130_fd_sc_hd__o22ai_1
* cell instance $584 m0 *1 47.84,46.24
X$584 8 11 12 34 32 8 44 6 6 sky130_fd_sc_hd__nand4_1
* cell instance $586 m0 *1 50.6,46.24
X$586 8 42 37 54 40 8 6 6 sky130_fd_sc_hd__or3_1
* cell instance $587 m0 *1 52.9,46.24
X$587 8 42 37 38 8 31 6 6 sky130_fd_sc_hd__o21ai_0
* cell instance $588 m0 *1 54.74,46.24
X$588 8 41 30 38 6 8 6 sky130_fd_sc_hd__nor2_1
* cell instance $598 m0 *1 72.22,46.24
X$598 8 32 33 6 8 6 sky130_fd_sc_hd__clkbuf_1
* cell instance $620 r0 *1 41.4,46.24
X$620 8 45 43 51 6 8 6 sky130_fd_sc_hd__nor2_1
* cell instance $623 r0 *1 43.24,46.24
X$623 8 32 34 12 11 6 48 8 6 sky130_fd_sc_hd__nor4_1
* cell instance $624 r0 *1 45.54,46.24
X$624 6 46 28 8 8 6 sky130_fd_sc_hd__clkbuf_8
* cell instance $626 r0 *1 51.06,46.24
X$626 6 41 49 11 47 8 8 6 sky130_fd_sc_hd__ha_1
* cell instance $627 r0 *1 55.66,46.24
X$627 8 36 41 52 8 6 6 sky130_fd_sc_hd__nand2_1
* cell instance $628 r0 *1 57.04,46.24
X$628 6 36 42 12 47 8 8 6 sky130_fd_sc_hd__ha_1
* cell instance $654 m0 *1 36.34,51.68
X$654 6 24 32 28 51 8 8 6 sky130_fd_sc_hd__dfrtp_2
* cell instance $658 m0 *1 46.46,51.68
X$658 8 14 10 50 6 8 6 sky130_fd_sc_hd__nor2b_1
* cell instance $659 m0 *1 48.76,51.68
X$659 8 28 139 6 8 6 sky130_fd_sc_hd__clkbuf_1
* cell instance $660 m0 *1 50.14,51.68
X$660 8 41 50 54 8 6 6 sky130_fd_sc_hd__nand2_1
* cell instance $664 m0 *1 54.74,51.68
X$664 8 49 41 42 6 8 53 6 sky130_fd_sc_hd__a21oi_1
* cell instance $666 m0 *1 57.04,51.68
X$666 8 36 68 57 8 37 6 6 sky130_fd_sc_hd__o21a_1
* cell instance $697 r0 *1 43.24,51.68
X$697 8 69 71 60 61 8 45 6 6 sky130_fd_sc_hd__nand4_1
* cell instance $698 r0 *1 45.54,51.68
X$698 6 71 55 14 47 62 63 8 8 6 sky130_fd_sc_hd__a2111o_1
* cell instance $699 r0 *1 49.68,51.68
X$699 8 10 32 62 8 6 6 sky130_fd_sc_hd__nand2_1
* cell instance $701 r0 *1 51.52,51.68
X$701 8 64 52 74 56 8 55 6 6 sky130_fd_sc_hd__a211o_1
* cell instance $702 r0 *1 54.74,51.68
X$702 8 53 52 67 8 63 6 6 sky130_fd_sc_hd__o21a_1
* cell instance $703 r0 *1 57.5,51.68
X$703 8 57 59 70 6 8 67 6 sky130_fd_sc_hd__a21oi_1
* cell instance $704 r0 *1 59.34,51.68
X$704 6 59 57 34 47 8 8 6 sky130_fd_sc_hd__ha_1
* cell instance $733 m0 *1 43.7,57.12
X$733 6 69 55 73 32 14 63 8 8 6 sky130_fd_sc_hd__a2111o_1
* cell instance $734 m0 *1 47.84,57.12
X$734 8 55 63 78 60 8 6 6 sky130_fd_sc_hd__nand3_1
* cell instance $735 m0 *1 49.68,57.12
X$735 8 63 73 55 72 8 61 6 6 sky130_fd_sc_hd__nand4_1
* cell instance $736 m0 *1 51.98,57.12
X$736 8 74 56 64 6 8 65 6 sky130_fd_sc_hd__a21o_1
* cell instance $737 m0 *1 54.74,57.12
X$737 8 67 65 35 8 6 6 sky130_fd_sc_hd__nand2_1
* cell instance $741 m0 *1 57.96,57.12
X$741 8 77 84 14 68 6 66 8 6 sky130_fd_sc_hd__a211oi_1
* cell instance $742 m0 *1 60.72,57.12
X$742 8 59 70 77 6 8 6 sky130_fd_sc_hd__nor2_1
* cell instance $749 m0 *1 71.76,57.12
X$749 8 76 58 6 8 6 sky130_fd_sc_hd__clkbuf_1
* cell instance $768 r0 *1 33.12,57.12
X$768 6 24 34 28 83 8 8 6 sky130_fd_sc_hd__dfrtp_2
* cell instance $772 r0 *1 43.7,57.12
X$772 8 10 6 86 8 6 sky130_fd_sc_hd__buf_2
* cell instance $775 r0 *1 46.92,57.12
X$775 8 14 73 62 78 6 8 6 sky130_fd_sc_hd__nor3_1
* cell instance $777 r0 *1 49.68,57.12
X$777 8 14 79 85 6 8 93 6 sky130_fd_sc_hd__a21oi_1
* cell instance $779 r0 *1 51.98,57.12
X$779 8 75 74 56 79 8 6 6 sky130_fd_sc_hd__nand3_1
* cell instance $780 r0 *1 53.82,57.12
X$780 8 14 32 72 6 8 6 sky130_fd_sc_hd__nor2_1
* cell instance $781 r0 *1 55.2,57.12
X$781 6 75 70 76 47 8 8 6 sky130_fd_sc_hd__ha_1
* cell instance $783 r0 *1 60.72,57.12
X$783 8 59 70 75 8 88 6 6 sky130_fd_sc_hd__o21a_1
* cell instance $808 m0 *1 40.48,62.56
X$808 8 89 86 81 6 8 83 6 sky130_fd_sc_hd__a21oi_1
* cell instance $811 m0 *1 42.32,62.56
X$811 8 86 34 89 6 8 6 sky130_fd_sc_hd__nor2_1
* cell instance $813 m0 *1 44.16,62.56
X$813 8 66 16 126 6 8 81 6 sky130_fd_sc_hd__a21oi_1
* cell instance $814 m0 *1 46,62.56
X$814 6 80 46 8 8 6 sky130_fd_sc_hd__clkbuf_8
* cell instance $816 m0 *1 51.52,62.56
X$816 8 74 56 75 6 8 85 6 sky130_fd_sc_hd__a21o_1
* cell instance $817 m0 *1 54.28,62.56
X$817 8 75 59 64 8 6 6 sky130_fd_sc_hd__nand2_1
* cell instance $820 m0 *1 57.04,62.56
X$820 8 87 82 75 8 84 6 6 sky130_fd_sc_hd__o21ai_0
* cell instance $821 m0 *1 58.88,62.56
X$821 6 68 87 70 82 88 8 8 6 sky130_fd_sc_hd__o31a_1
* cell instance $851 r0 *1 43.7,62.56
X$851 8 86 76 92 6 8 6 sky130_fd_sc_hd__nor2_1
* cell instance $852 r0 *1 45.08,62.56
X$852 8 92 86 94 6 8 96 6 sky130_fd_sc_hd__a21oi_1
* cell instance $854 r0 *1 47.84,62.56
X$854 8 73 47 8 6 6 sky130_fd_sc_hd__clkinv_2
* cell instance $855 r0 *1 49.68,62.56
X$855 8 93 16 90 6 8 94 6 sky130_fd_sc_hd__a21oi_1
* cell instance $857 r0 *1 51.98,62.56
X$857 6 100 97 91 47 8 8 6 sky130_fd_sc_hd__ha_1
* cell instance $858 r0 *1 56.58,62.56
X$858 8 95 87 97 8 56 6 6 sky130_fd_sc_hd__a21oi_2
* cell instance $883 m0 *1 34.96,68
X$883 6 24 76 104 96 8 8 6 sky130_fd_sc_hd__dfrtp_2
* cell instance $888 m0 *1 46,68
X$888 8 50 99 47 48 8 101 6 6 sky130_fd_sc_hd__nand4_1
* cell instance $890 m0 *1 50.14,68
X$890 8 91 73 50 102 8 6 6 sky130_fd_sc_hd__nand3_1
* cell instance $891 m0 *1 51.98,68
X$891 8 103 95 100 74 8 6 6 sky130_fd_sc_hd__nand3_1
* cell instance $895 m0 *1 57.04,68
X$895 6 95 87 98 47 8 8 6 sky130_fd_sc_hd__ha_1
* cell instance $926 r0 *1 43.7,68
X$926 6 46 104 8 8 6 sky130_fd_sc_hd__clkbuf_8
* cell instance $927 r0 *1 48.76,68
X$927 8 101 76 103 98 6 106 8 6 sky130_fd_sc_hd__nor4_1
* cell instance $928 r0 *1 51.06,68
X$928 8 103 76 98 105 8 6 6 sky130_fd_sc_hd__nand3_1
* cell instance $929 r0 *1 52.9,68
X$929 8 44 102 105 132 6 8 6 sky130_fd_sc_hd__nor3_1
* cell instance $956 m0 *1 40.94,73.44
X$956 6 107 109 111 73 99 8 8 6 sky130_fd_sc_hd__fa_1
* cell instance $961 m0 *1 49.68,73.44
X$961 8 91 8 6 99 6 sky130_fd_sc_hd__inv_1
* cell instance $965 m0 *1 54.28,73.44
X$965 8 107 95 82 6 8 6 sky130_fd_sc_hd__nor2b_1
* cell instance $967 m0 *1 57.04,73.44
X$967 8 95 107 108 6 8 6 sky130_fd_sc_hd__nor2b_1
* cell instance $968 m0 *1 59.34,73.44
X$968 8 14 108 82 116 6 8 6 sky130_fd_sc_hd__nor3_1
* cell instance $1003 r0 *1 43.7,73.44
X$1003 8 103 8 6 111 6 sky130_fd_sc_hd__inv_1
* cell instance $1005 r0 *1 45.54,73.44
X$1005 8 16 109 120 8 113 6 6 sky130_fd_sc_hd__o21ai_0
* cell instance $1006 r0 *1 47.38,73.44
X$1006 8 86 99 114 8 110 6 6 sky130_fd_sc_hd__o21ai_0
* cell instance $1007 r0 *1 49.22,73.44
X$1007 6 24 91 104 110 8 8 6 sky130_fd_sc_hd__dfrtp_1
* cell instance $1032 m0 *1 37.26,78.88
X$1032 6 24 103 104 123 8 8 6 sky130_fd_sc_hd__dfrtp_2
* cell instance $1033 m0 *1 46.92,78.88
X$1033 8 86 113 114 8 6 6 sky130_fd_sc_hd__nand2_1
* cell instance $1035 m0 *1 48.76,78.88
X$1035 8 86 98 118 6 8 6 sky130_fd_sc_hd__nor2_1
* cell instance $1037 m0 *1 51.06,78.88
X$1037 8 116 16 129 6 8 112 6 sky130_fd_sc_hd__a21oi_1
* cell instance $1066 r0 *1 39.1,78.88
X$1066 8 86 103 117 6 8 6 sky130_fd_sc_hd__nor2_1
* cell instance $1068 r0 *1 40.94,78.88
X$1068 8 117 86 115 6 8 123 6 sky130_fd_sc_hd__a21oi_1
* cell instance $1071 r0 *1 43.24,78.88
X$1071 8 119 16 124 6 8 115 6 sky130_fd_sc_hd__a21oi_1
* cell instance $1072 r0 *1 45.08,78.88
X$1072 8 16 103 119 6 8 6 sky130_fd_sc_hd__nor2_1
* cell instance $1073 r0 *1 46.46,78.88
X$1073 8 16 125 120 8 6 6 sky130_fd_sc_hd__nand2_1
* cell instance $1075 r0 *1 48.3,78.88
X$1075 8 118 86 112 6 8 121 6 sky130_fd_sc_hd__a21oi_1
* cell instance $1076 r0 *1 50.14,78.88
X$1076 6 24 98 104 121 8 8 6 sky130_fd_sc_hd__dfrtp_1
* cell instance $1077 r0 *1 59.34,78.88
X$1077 8 91 127 6 8 6 sky130_fd_sc_hd__clkbuf_1
* cell instance $1110 m0 *1 43.24,84.32
X$1110 8 133 124 6 8 6 sky130_fd_sc_hd__clkbuf_1
* cell instance $1111 m0 *1 44.62,84.32
X$1111 8 130 126 6 8 6 sky130_fd_sc_hd__clkbuf_1
* cell instance $1112 m0 *1 46,84.32
X$1112 8 137 125 6 8 6 sky130_fd_sc_hd__clkbuf_1
* cell instance $1113 m0 *1 47.38,84.32
X$1113 8 134 90 6 8 6 sky130_fd_sc_hd__clkbuf_1
* cell instance $1114 m0 *1 48.76,84.32
X$1114 8 106 138 6 8 6 sky130_fd_sc_hd__clkbuf_1
* cell instance $1116 m0 *1 50.6,84.32
X$1116 8 131 8 6 73 6 sky130_fd_sc_hd__clkbuf_2
* cell instance $1117 m0 *1 52.44,84.32
X$1117 8 122 129 6 8 6 sky130_fd_sc_hd__clkbuf_1
* cell instance $1118 m0 *1 53.82,84.32
X$1118 8 132 128 6 8 6 sky130_fd_sc_hd__clkbuf_1
* cell instance $1119 m0 *1 55.2,84.32
X$1119 8 103 136 6 8 6 sky130_fd_sc_hd__clkbuf_1
* cell instance $1123 m0 *1 59.34,84.32
X$1123 8 98 135 6 8 6 sky130_fd_sc_hd__clkbuf_1
.ENDS loadable_updown_counter

* cell sky130_fd_sc_hd__a31oi_1
* pin VPB
* pin A3
* pin A2
* pin A1
* pin B1
* pin VGND
* pin VPWR
* pin Y
* pin 
.SUBCKT sky130_fd_sc_hd__a31oi_1 1 2 3 4 5 6 8 9 10
* net 1 VPB
* net 2 A3
* net 3 A2
* net 4 A1
* net 5 B1
* net 6 VGND
* net 8 VPWR
* net 9 Y
* device instance $1 r0 *1 0.47,1.985 pfet_01v8_hvt
M$1 7 2 8 1 pfet_01v8_hvt L=150000U W=1000000U AS=260000000000P
+ AD=135000000000P PS=2520000U PD=1270000U
* device instance $2 r0 *1 0.89,1.985 pfet_01v8_hvt
M$2 8 3 7 1 pfet_01v8_hvt L=150000U W=1000000U AS=135000000000P
+ AD=152500000000P PS=1270000U PD=1305000U
* device instance $3 r0 *1 1.345,1.985 pfet_01v8_hvt
M$3 7 4 8 1 pfet_01v8_hvt L=150000U W=1000000U AS=152500000000P
+ AD=162500000000P PS=1305000U PD=1325000U
* device instance $4 r0 *1 1.82,1.985 pfet_01v8_hvt
M$4 9 5 7 1 pfet_01v8_hvt L=150000U W=1000000U AS=162500000000P
+ AD=270000000000P PS=1325000U PD=2540000U
* device instance $5 r0 *1 0.47,0.56 nfet_01v8
M$5 12 2 6 10 nfet_01v8 L=150000U W=650000U AS=169000000000P AD=68250000000P
+ PS=1820000U PD=860000U
* device instance $6 r0 *1 0.83,0.56 nfet_01v8
M$6 11 3 12 10 nfet_01v8 L=150000U W=650000U AS=68250000000P AD=118625000000P
+ PS=860000U PD=1015000U
* device instance $7 r0 *1 1.345,0.56 nfet_01v8
M$7 9 4 11 10 nfet_01v8 L=150000U W=650000U AS=118625000000P AD=105625000000P
+ PS=1015000U PD=975000U
* device instance $8 r0 *1 1.82,0.56 nfet_01v8
M$8 6 5 9 10 nfet_01v8 L=150000U W=650000U AS=105625000000P AD=175500000000P
+ PS=975000U PD=1840000U
.ENDS sky130_fd_sc_hd__a31oi_1

* cell sky130_fd_sc_hd__dlygate4sd3_1
* pin VPB
* pin A
* pin VPWR
* pin X
* pin VGND
* pin 
.SUBCKT sky130_fd_sc_hd__dlygate4sd3_1 1 3 5 7 8 9
* net 1 VPB
* net 3 A
* net 5 VPWR
* net 7 X
* net 8 VGND
* device instance $1 r0 *1 2.465,2.275 pfet_01v8_hvt
M$1 6 2 5 1 pfet_01v8_hvt L=500000U W=420000U AS=140750000000P AD=109200000000P
+ PS=1325000U PD=1360000U
* device instance $2 r0 *1 3.115,1.985 pfet_01v8_hvt
M$2 7 6 5 1 pfet_01v8_hvt L=150000U W=1000000U AS=140750000000P
+ AD=260000000000P PS=1325000U PD=2520000U
* device instance $3 r0 *1 0.58,2.275 pfet_01v8_hvt
M$3 5 3 4 1 pfet_01v8_hvt L=150000U W=420000U AS=109200000000P AD=56700000000P
+ PS=1360000U PD=690000U
* device instance $4 r0 *1 1.175,2.275 pfet_01v8_hvt
M$4 2 4 5 1 pfet_01v8_hvt L=500000U W=420000U AS=56700000000P AD=109200000000P
+ PS=690000U PD=1360000U
* device instance $5 r0 *1 2.465,0.445 nfet_01v8
M$5 8 2 6 9 nfet_01v8 L=500000U W=420000U AS=109200000000P AD=97000000000P
+ PS=1360000U PD=975000U
* device instance $6 r0 *1 3.115,0.56 nfet_01v8
M$6 7 6 8 9 nfet_01v8 L=150000U W=650000U AS=97000000000P AD=169000000000P
+ PS=975000U PD=1820000U
* device instance $7 r0 *1 0.58,0.445 nfet_01v8
M$7 8 3 4 9 nfet_01v8 L=150000U W=420000U AS=109200000000P AD=56700000000P
+ PS=1360000U PD=690000U
* device instance $8 r0 *1 1.175,0.445 nfet_01v8
M$8 2 4 8 9 nfet_01v8 L=500000U W=420000U AS=56700000000P AD=109200000000P
+ PS=690000U PD=1360000U
.ENDS sky130_fd_sc_hd__dlygate4sd3_1

* cell sky130_fd_sc_hd__clkbuf_4
* pin VPB
* pin A
* pin VGND
* pin X
* pin VPWR
* pin 
.SUBCKT sky130_fd_sc_hd__clkbuf_4 1 3 4 5 6 7
* net 1 VPB
* net 3 A
* net 4 VGND
* net 5 X
* net 6 VPWR
* device instance $1 r0 *1 0.475,1.985 pfet_01v8_hvt
M$1 6 3 2 1 pfet_01v8_hvt L=150000U W=1000000U AS=265000000000P
+ AD=165000000000P PS=2530000U PD=1330000U
* device instance $2 r0 *1 0.955,1.985 pfet_01v8_hvt
M$2 5 2 6 1 pfet_01v8_hvt L=150000U W=4000000U AS=585000000000P
+ AD=720000000000P PS=5170000U PD=6440000U
* device instance $6 r0 *1 0.475,0.445 nfet_01v8
M$6 4 3 2 7 nfet_01v8 L=150000U W=420000U AS=111300000000P AD=70350000000P
+ PS=1370000U PD=755000U
* device instance $7 r0 *1 0.96,0.445 nfet_01v8
M$7 5 2 4 7 nfet_01v8 L=150000U W=1680000U AS=246750000000P AD=298200000000P
+ PS=2855000U PD=3520000U
.ENDS sky130_fd_sc_hd__clkbuf_4

* cell sky130_fd_sc_hd__a2111o_1
* pin VGND
* pin X
* pin A1
* pin D1
* pin C1
* pin B1
* pin A2
* pin VPB
* pin VPWR
* pin 
.SUBCKT sky130_fd_sc_hd__a2111o_1 1 2 4 5 6 7 8 11 12 15
* net 1 VGND
* net 2 X
* net 4 A1
* net 5 D1
* net 6 C1
* net 7 B1
* net 8 A2
* net 11 VPB
* net 12 VPWR
* device instance $1 r0 *1 1.595,1.985 pfet_01v8_hvt
M$1 13 5 3 11 pfet_01v8_hvt L=150000U W=1000000U AS=385000000000P
+ AD=125000000000P PS=2770000U PD=1250000U
* device instance $2 r0 *1 1.995,1.985 pfet_01v8_hvt
M$2 14 6 13 11 pfet_01v8_hvt L=150000U W=1000000U AS=125000000000P
+ AD=180000000000P PS=1250000U PD=1360000U
* device instance $3 r0 *1 2.505,1.985 pfet_01v8_hvt
M$3 10 7 14 11 pfet_01v8_hvt L=150000U W=1000000U AS=180000000000P
+ AD=280000000000P PS=1360000U PD=1560000U
* device instance $4 r0 *1 3.215,1.985 pfet_01v8_hvt
M$4 12 4 10 11 pfet_01v8_hvt L=150000U W=1000000U AS=280000000000P
+ AD=135000000000P PS=1560000U PD=1270000U
* device instance $5 r0 *1 3.635,1.985 pfet_01v8_hvt
M$5 10 8 12 11 pfet_01v8_hvt L=150000U W=1000000U AS=135000000000P
+ AD=290000000000P PS=1270000U PD=2580000U
* device instance $6 r0 *1 0.5,1.985 pfet_01v8_hvt
M$6 12 3 2 11 pfet_01v8_hvt L=150000U W=1000000U AS=290000000000P
+ AD=265000000000P PS=2580000U PD=2530000U
* device instance $7 r0 *1 0.54,0.56 nfet_01v8
M$7 1 3 2 15 nfet_01v8 L=150000U W=650000U AS=214500000000P AD=274625000000P
+ PS=1960000U PD=1495000U
* device instance $8 r0 *1 1.535,0.56 nfet_01v8
M$8 3 5 1 15 nfet_01v8 L=150000U W=650000U AS=274625000000P AD=100750000000P
+ PS=1495000U PD=960000U
* device instance $9 r0 *1 1.995,0.56 nfet_01v8
M$9 1 6 3 15 nfet_01v8 L=150000U W=650000U AS=100750000000P AD=117000000000P
+ PS=960000U PD=1010000U
* device instance $10 r0 *1 2.505,0.56 nfet_01v8
M$10 3 7 1 15 nfet_01v8 L=150000U W=650000U AS=117000000000P AD=185250000000P
+ PS=1010000U PD=1220000U
* device instance $11 r0 *1 3.225,0.56 nfet_01v8
M$11 9 4 3 15 nfet_01v8 L=150000U W=650000U AS=185250000000P AD=82875000000P
+ PS=1220000U PD=905000U
* device instance $12 r0 *1 3.63,0.56 nfet_01v8
M$12 1 8 9 15 nfet_01v8 L=150000U W=650000U AS=82875000000P AD=188500000000P
+ PS=905000U PD=1880000U
.ENDS sky130_fd_sc_hd__a2111o_1

* cell sky130_fd_sc_hd__a211o_1
* pin VPB
* pin B1
* pin C1
* pin A1
* pin A2
* pin VPWR
* pin X
* pin VGND
* pin 
.SUBCKT sky130_fd_sc_hd__a211o_1 1 2 3 4 5 7 8 9 11
* net 1 VPB
* net 2 B1
* net 3 C1
* net 4 A1
* net 5 A2
* net 7 VPWR
* net 8 X
* net 9 VGND
* device instance $1 r0 *1 1.425,1.985 pfet_01v8_hvt
M$1 7 5 10 1 pfet_01v8_hvt L=150000U W=1000000U AS=265000000000P
+ AD=140000000000P PS=2530000U PD=1280000U
* device instance $2 r0 *1 1.855,1.985 pfet_01v8_hvt
M$2 10 4 7 1 pfet_01v8_hvt L=150000U W=1000000U AS=140000000000P
+ AD=140000000000P PS=1280000U PD=1280000U
* device instance $3 r0 *1 2.285,1.985 pfet_01v8_hvt
M$3 12 2 10 1 pfet_01v8_hvt L=150000U W=1000000U AS=140000000000P
+ AD=155000000000P PS=1280000U PD=1310000U
* device instance $4 r0 *1 2.745,1.985 pfet_01v8_hvt
M$4 6 3 12 1 pfet_01v8_hvt L=150000U W=1000000U AS=155000000000P
+ AD=265000000000P PS=1310000U PD=2530000U
* device instance $5 r0 *1 0.475,1.985 pfet_01v8_hvt
M$5 7 6 8 1 pfet_01v8_hvt L=150000U W=1000000U AS=265000000000P
+ AD=265000000000P PS=2530000U PD=2530000U
* device instance $6 r0 *1 0.475,0.56 nfet_01v8
M$6 9 6 8 11 nfet_01v8 L=150000U W=650000U AS=172250000000P AD=260000000000P
+ PS=1830000U PD=1450000U
* device instance $7 r0 *1 1.425,0.56 nfet_01v8
M$7 13 5 9 11 nfet_01v8 L=150000U W=650000U AS=260000000000P AD=91000000000P
+ PS=1450000U PD=930000U
* device instance $8 r0 *1 1.855,0.56 nfet_01v8
M$8 6 4 13 11 nfet_01v8 L=150000U W=650000U AS=91000000000P AD=91000000000P
+ PS=930000U PD=930000U
* device instance $9 r0 *1 2.285,0.56 nfet_01v8
M$9 9 2 6 11 nfet_01v8 L=150000U W=650000U AS=91000000000P AD=100750000000P
+ PS=930000U PD=960000U
* device instance $10 r0 *1 2.745,0.56 nfet_01v8
M$10 6 3 9 11 nfet_01v8 L=150000U W=650000U AS=100750000000P AD=172250000000P
+ PS=960000U PD=1830000U
.ENDS sky130_fd_sc_hd__a211o_1

* cell sky130_fd_sc_hd__a211oi_1
* pin VPB
* pin A2
* pin A1
* pin C1
* pin B1
* pin VGND
* pin Y
* pin VPWR
* pin 
.SUBCKT sky130_fd_sc_hd__a211oi_1 1 2 3 4 5 6 7 9 10
* net 1 VPB
* net 2 A2
* net 3 A1
* net 4 C1
* net 5 B1
* net 6 VGND
* net 7 Y
* net 9 VPWR
* device instance $1 r0 *1 0.62,1.985 pfet_01v8_hvt
M$1 9 2 8 1 pfet_01v8_hvt L=150000U W=1000000U AS=265000000000P
+ AD=140000000000P PS=2530000U PD=1280000U
* device instance $2 r0 *1 1.05,1.985 pfet_01v8_hvt
M$2 8 3 9 1 pfet_01v8_hvt L=150000U W=1000000U AS=140000000000P
+ AD=140000000000P PS=1280000U PD=1280000U
* device instance $3 r0 *1 1.48,1.985 pfet_01v8_hvt
M$3 11 5 8 1 pfet_01v8_hvt L=150000U W=1000000U AS=140000000000P
+ AD=155000000000P PS=1280000U PD=1310000U
* device instance $4 r0 *1 1.94,1.985 pfet_01v8_hvt
M$4 7 4 11 1 pfet_01v8_hvt L=150000U W=1000000U AS=155000000000P
+ AD=265000000000P PS=1310000U PD=2530000U
* device instance $5 r0 *1 0.62,0.56 nfet_01v8
M$5 12 2 6 10 nfet_01v8 L=150000U W=650000U AS=266500000000P AD=91000000000P
+ PS=2120000U PD=930000U
* device instance $6 r0 *1 1.05,0.56 nfet_01v8
M$6 7 3 12 10 nfet_01v8 L=150000U W=650000U AS=91000000000P AD=91000000000P
+ PS=930000U PD=930000U
* device instance $7 r0 *1 1.48,0.56 nfet_01v8
M$7 6 5 7 10 nfet_01v8 L=150000U W=650000U AS=91000000000P AD=100750000000P
+ PS=930000U PD=960000U
* device instance $8 r0 *1 1.94,0.56 nfet_01v8
M$8 7 4 6 10 nfet_01v8 L=150000U W=650000U AS=100750000000P AD=172250000000P
+ PS=960000U PD=1830000U
.ENDS sky130_fd_sc_hd__a211oi_1

* cell sky130_fd_sc_hd__o31a_1
* pin VGND
* pin X
* pin A1
* pin A2
* pin A3
* pin B1
* pin VPWR
* pin VPB
* pin 
.SUBCKT sky130_fd_sc_hd__o31a_1 1 2 5 6 7 8 9 10 13
* net 1 VGND
* net 2 X
* net 5 A1
* net 6 A2
* net 7 A3
* net 8 B1
* net 9 VPWR
* net 10 VPB
* device instance $1 r0 *1 0.65,1.985 pfet_01v8_hvt
M$1 9 4 2 10 pfet_01v8_hvt L=150000U W=1000000U AS=360000000000P
+ AD=195000000000P PS=2720000U PD=1390000U
* device instance $2 r0 *1 1.19,1.985 pfet_01v8_hvt
M$2 12 5 9 10 pfet_01v8_hvt L=150000U W=1000000U AS=195000000000P
+ AD=135000000000P PS=1390000U PD=1270000U
* device instance $3 r0 *1 1.61,1.985 pfet_01v8_hvt
M$3 11 6 12 10 pfet_01v8_hvt L=150000U W=1000000U AS=135000000000P
+ AD=165000000000P PS=1270000U PD=1330000U
* device instance $4 r0 *1 2.09,1.985 pfet_01v8_hvt
M$4 4 7 11 10 pfet_01v8_hvt L=150000U W=1000000U AS=165000000000P
+ AD=212500000000P PS=1330000U PD=1425000U
* device instance $5 r0 *1 2.665,1.985 pfet_01v8_hvt
M$5 9 8 4 10 pfet_01v8_hvt L=150000U W=1000000U AS=212500000000P
+ AD=345000000000P PS=1425000U PD=2690000U
* device instance $6 r0 *1 0.65,0.56 nfet_01v8
M$6 1 4 2 13 nfet_01v8 L=150000U W=650000U AS=234000000000P AD=126750000000P
+ PS=2020000U PD=1040000U
* device instance $7 r0 *1 1.19,0.56 nfet_01v8
M$7 3 5 1 13 nfet_01v8 L=150000U W=650000U AS=126750000000P AD=87750000000P
+ PS=1040000U PD=920000U
* device instance $8 r0 *1 1.61,0.56 nfet_01v8
M$8 1 6 3 13 nfet_01v8 L=150000U W=650000U AS=87750000000P AD=107250000000P
+ PS=920000U PD=980000U
* device instance $9 r0 *1 2.09,0.56 nfet_01v8
M$9 3 7 1 13 nfet_01v8 L=150000U W=650000U AS=107250000000P AD=107250000000P
+ PS=980000U PD=980000U
* device instance $10 r0 *1 2.57,0.56 nfet_01v8
M$10 4 8 3 13 nfet_01v8 L=150000U W=650000U AS=107250000000P AD=201500000000P
+ PS=980000U PD=1920000U
.ENDS sky130_fd_sc_hd__o31a_1

* cell sky130_fd_sc_hd__o21a_1
* pin VPB
* pin B1
* pin A2
* pin A1
* pin VPWR
* pin X
* pin VGND
* pin 
.SUBCKT sky130_fd_sc_hd__o21a_1 1 2 3 4 5 7 8 10
* net 1 VPB
* net 2 B1
* net 3 A2
* net 4 A1
* net 5 VPWR
* net 7 X
* net 8 VGND
* device instance $1 r0 *1 0.49,1.985 pfet_01v8_hvt
M$1 5 9 7 1 pfet_01v8_hvt L=150000U W=1000000U AS=280000000000P
+ AD=327500000000P PS=2560000U PD=1655000U
* device instance $2 r0 *1 1.295,1.985 pfet_01v8_hvt
M$2 9 2 5 1 pfet_01v8_hvt L=150000U W=1000000U AS=327500000000P
+ AD=195000000000P PS=1655000U PD=1390000U
* device instance $3 r0 *1 1.835,1.985 pfet_01v8_hvt
M$3 11 3 9 1 pfet_01v8_hvt L=150000U W=1000000U AS=195000000000P
+ AD=152500000000P PS=1390000U PD=1305000U
* device instance $4 r0 *1 2.29,1.985 pfet_01v8_hvt
M$4 5 4 11 1 pfet_01v8_hvt L=150000U W=1000000U AS=152500000000P
+ AD=260000000000P PS=1305000U PD=2520000U
* device instance $5 r0 *1 1.41,0.56 nfet_01v8
M$5 6 2 9 10 nfet_01v8 L=150000U W=650000U AS=169000000000P AD=100750000000P
+ PS=1820000U PD=960000U
* device instance $6 r0 *1 1.87,0.56 nfet_01v8
M$6 8 3 6 10 nfet_01v8 L=150000U W=650000U AS=100750000000P AD=87750000000P
+ PS=960000U PD=920000U
* device instance $7 r0 *1 2.29,0.56 nfet_01v8
M$7 6 4 8 10 nfet_01v8 L=150000U W=650000U AS=87750000000P AD=169000000000P
+ PS=920000U PD=1820000U
* device instance $8 r0 *1 0.47,0.56 nfet_01v8
M$8 8 9 7 10 nfet_01v8 L=150000U W=650000U AS=169000000000P AD=169000000000P
+ PS=1820000U PD=1820000U
.ENDS sky130_fd_sc_hd__o21a_1

* cell sky130_fd_sc_hd__a21o_1
* pin VPB
* pin A1
* pin A2
* pin B1
* pin VGND
* pin VPWR
* pin X
* pin 
.SUBCKT sky130_fd_sc_hd__a21o_1 1 2 3 4 5 7 9 10
* net 1 VPB
* net 2 A1
* net 3 A2
* net 4 B1
* net 5 VGND
* net 7 VPWR
* net 9 X
* device instance $1 r0 *1 1.42,1.985 pfet_01v8_hvt
M$1 6 4 8 1 pfet_01v8_hvt L=150000U W=1000000U AS=260000000000P
+ AD=137500000000P PS=2520000U PD=1275000U
* device instance $2 r0 *1 1.845,1.985 pfet_01v8_hvt
M$2 7 2 6 1 pfet_01v8_hvt L=150000U W=1000000U AS=137500000000P
+ AD=140000000000P PS=1275000U PD=1280000U
* device instance $3 r0 *1 2.275,1.985 pfet_01v8_hvt
M$3 6 3 7 1 pfet_01v8_hvt L=150000U W=1000000U AS=140000000000P
+ AD=265000000000P PS=1280000U PD=2530000U
* device instance $4 r0 *1 0.48,1.985 pfet_01v8_hvt
M$4 7 8 9 1 pfet_01v8_hvt L=150000U W=1000000U AS=260000000000P
+ AD=260000000000P PS=2520000U PD=2520000U
* device instance $5 r0 *1 0.48,0.56 nfet_01v8
M$5 5 8 9 10 nfet_01v8 L=150000U W=650000U AS=169000000000P AD=256750000000P
+ PS=1820000U PD=1440000U
* device instance $6 r0 *1 1.42,0.56 nfet_01v8
M$6 8 4 5 10 nfet_01v8 L=150000U W=650000U AS=256750000000P AD=89375000000P
+ PS=1440000U PD=925000U
* device instance $7 r0 *1 1.845,0.56 nfet_01v8
M$7 11 2 8 10 nfet_01v8 L=150000U W=650000U AS=89375000000P AD=91000000000P
+ PS=925000U PD=930000U
* device instance $8 r0 *1 2.275,0.56 nfet_01v8
M$8 5 3 11 10 nfet_01v8 L=150000U W=650000U AS=91000000000P AD=172250000000P
+ PS=930000U PD=1830000U
.ENDS sky130_fd_sc_hd__a21o_1

* cell sky130_fd_sc_hd__clkbuf_2
* pin VPB
* pin A
* pin VPWR
* pin VGND
* pin X
* pin 
.SUBCKT sky130_fd_sc_hd__clkbuf_2 1 2 3 4 6 7
* net 1 VPB
* net 2 A
* net 3 VPWR
* net 4 VGND
* net 6 X
* device instance $1 r0 *1 0.475,1.985 pfet_01v8_hvt
M$1 3 2 5 1 pfet_01v8_hvt L=150000U W=1000000U AS=265000000000P
+ AD=162500000000P PS=2530000U PD=1325000U
* device instance $2 r0 *1 0.95,1.985 pfet_01v8_hvt
M$2 6 5 3 1 pfet_01v8_hvt L=150000U W=2000000U AS=297500000000P
+ AD=395000000000P PS=2595000U PD=3790000U
* device instance $4 r0 *1 0.475,0.445 nfet_01v8
M$4 4 2 5 7 nfet_01v8 L=150000U W=420000U AS=111300000000P AD=68250000000P
+ PS=1370000U PD=745000U
* device instance $5 r0 *1 0.95,0.445 nfet_01v8
M$5 6 5 4 7 nfet_01v8 L=150000U W=840000U AS=124950000000P AD=165900000000P
+ PS=1435000U PD=2050000U
.ENDS sky130_fd_sc_hd__clkbuf_2

* cell sky130_fd_sc_hd__dfrtp_1
* pin VGND
* pin RESET_B
* pin Q
* pin CLK
* pin D
* pin VPWR
* pin VPB
* pin 
.SUBCKT sky130_fd_sc_hd__dfrtp_1 1 6 9 14 15 17 18 21
* net 1 VGND
* net 6 RESET_B
* net 9 Q
* net 14 CLK
* net 15 D
* net 17 VPWR
* net 18 VPB
* device instance $1 r0 *1 8.73,1.985 pfet_01v8_hvt
M$1 9 8 17 18 pfet_01v8_hvt L=150000U W=1000000U AS=301200000000P
+ AD=260000000000P PS=2660000U PD=2520000U
* device instance $2 r0 *1 5.35,2.065 pfet_01v8_hvt
M$2 16 5 17 18 pfet_01v8_hvt L=150000U W=840000U AS=218400000000P
+ AD=129150000000P PS=2200000U PD=1185000U
* device instance $3 r0 *1 5.845,2.275 pfet_01v8_hvt
M$3 7 2 16 18 pfet_01v8_hvt L=150000U W=420000U AS=129150000000P
+ AD=58800000000P PS=1185000U PD=700000U
* device instance $4 r0 *1 6.275,2.275 pfet_01v8_hvt
M$4 20 3 7 18 pfet_01v8_hvt L=150000U W=420000U AS=58800000000P AD=56700000000P
+ PS=700000U PD=690000U
* device instance $5 r0 *1 6.695,2.275 pfet_01v8_hvt
M$5 17 8 20 18 pfet_01v8_hvt L=150000U W=420000U AS=56700000000P
+ AD=81900000000P PS=690000U PD=810000U
* device instance $6 r0 *1 7.235,2.275 pfet_01v8_hvt
M$6 8 6 17 18 pfet_01v8_hvt L=150000U W=420000U AS=81900000000P AD=56700000000P
+ PS=810000U PD=690000U
* device instance $7 r0 *1 7.655,2.275 pfet_01v8_hvt
M$7 17 7 8 18 pfet_01v8_hvt L=150000U W=420000U AS=56700000000P
+ AD=113400000000P PS=690000U PD=1380000U
* device instance $8 r0 *1 2.225,2.275 pfet_01v8_hvt
M$8 4 15 17 18 pfet_01v8_hvt L=150000U W=420000U AS=109200000000P
+ AD=65100000000P PS=1360000U PD=730000U
* device instance $9 r0 *1 2.685,2.275 pfet_01v8_hvt
M$9 5 3 4 18 pfet_01v8_hvt L=150000U W=420000U AS=65100000000P AD=72450000000P
+ PS=730000U PD=765000U
* device instance $10 r0 *1 3.18,2.275 pfet_01v8_hvt
M$10 19 2 5 18 pfet_01v8_hvt L=150000U W=420000U AS=72450000000P
+ AD=115500000000P PS=765000U PD=970000U
* device instance $11 r0 *1 3.88,2.275 pfet_01v8_hvt
M$11 17 16 19 18 pfet_01v8_hvt L=150000U W=420000U AS=115500000000P
+ AD=70350000000P PS=970000U PD=755000U
* device instance $12 r0 *1 4.365,2.275 pfet_01v8_hvt
M$12 19 6 17 18 pfet_01v8_hvt L=150000U W=420000U AS=70350000000P
+ AD=109200000000P PS=755000U PD=1360000U
* device instance $13 r0 *1 0.47,2.135 pfet_01v8_hvt
M$13 17 14 2 18 pfet_01v8_hvt L=150000U W=640000U AS=166400000000P
+ AD=86400000000P PS=1800000U PD=910000U
* device instance $14 r0 *1 0.89,2.135 pfet_01v8_hvt
M$14 3 2 17 18 pfet_01v8_hvt L=150000U W=640000U AS=86400000000P
+ AD=166400000000P PS=910000U PD=1800000U
* device instance $15 r0 *1 8.73,0.56 nfet_01v8
M$15 9 8 1 21 nfet_01v8 L=150000U W=650000U AS=208700000000P AD=169000000000P
+ PS=2020000U PD=1820000U
* device instance $16 r0 *1 0.47,0.445 nfet_01v8
M$16 1 14 2 21 nfet_01v8 L=150000U W=420000U AS=109200000000P AD=56700000000P
+ PS=1360000U PD=690000U
* device instance $17 r0 *1 0.89,0.445 nfet_01v8
M$17 3 2 1 21 nfet_01v8 L=150000U W=420000U AS=56700000000P AD=109200000000P
+ PS=690000U PD=1360000U
* device instance $18 r0 *1 2.64,0.415 nfet_01v8
M$18 5 2 4 21 nfet_01v8 L=150000U W=360000U AS=66000000000P AD=59400000000P
+ PS=745000U PD=690000U
* device instance $19 r0 *1 3.12,0.415 nfet_01v8
M$19 12 3 5 21 nfet_01v8 L=150000U W=360000U AS=59400000000P AD=140100000000P
+ PS=690000U PD=1100000U
* device instance $20 r0 *1 5.465,0.415 nfet_01v8
M$20 7 3 16 21 nfet_01v8 L=150000U W=360000U AS=99900000000P AD=71100000000P
+ PS=985000U PD=755000U
* device instance $21 r0 *1 6.01,0.415 nfet_01v8
M$21 11 2 7 21 nfet_01v8 L=150000U W=360000U AS=71100000000P AD=66900000000P
+ PS=755000U PD=750000U
* device instance $22 r0 *1 2.165,0.445 nfet_01v8