* CDL Netlist generated by OpenROAD

*.BUSDELIMITER [

.SUBCKT power_domain_controller clk domain_clock_on[0] domain_clock_on[1]
+ domain_clock_on[2] domain_clock_on[3] domain_enable[0] domain_enable[1]
+ domain_enable[2] domain_enable[3] domain_isolate[0] domain_isolate[1]
+ domain_isolate[2] domain_isolate[3] domain_isolation_on[0]
+ domain_isolation_on[1] domain_isolation_on[2] domain_isolation_on[3]
+ domain_power_on[0] domain_power_on[1] domain_power_on[2] domain_power_on[3]
+ domain_reset_n[0] domain_reset_n[1] domain_reset_n[2] domain_reset_n[3]
+ domain_status[0] domain_status[1] domain_status[2] domain_status[3]
+ domain_transition[0] domain_transition[1] domain_transition[2]
+ domain_transition[3] rst_n start_transition transition_done
X_167_ delay_counter\[0\] _161_ VDD VSS gf180mcu_fd_sc_mcu9t5v0__clkinv_3
X_168_ delay_counter\[1\] _162_ VDD VSS gf180mcu_fd_sc_mcu9t5v0__clkinv_2
X_169_ state\[0\] _154_ VDD VSS gf180mcu_fd_sc_mcu9t5v0__inv_4
X_170_ state\[1\] _154_ _155_ VDD VSS gf180mcu_fd_sc_mcu9t5v0__and2_2
X_171_ state\[2\] _155_ _156_ VDD VSS gf180mcu_fd_sc_mcu9t5v0__and2_2
X_172_ net35 _156_ _157_ VDD VSS gf180mcu_fd_sc_mcu9t5v0__nand2_2
X_173_ target_status\[3\] net31 _157_ _000_ VDD VSS gf180mcu_fd_sc_mcu9t5v0__mux2_2
X_174_ net34 _156_ _158_ VDD VSS gf180mcu_fd_sc_mcu9t5v0__nand2_2
X_175_ target_status\[2\] net30 _158_ _001_ VDD VSS gf180mcu_fd_sc_mcu9t5v0__mux2_2
X_176_ net33 _156_ _159_ VDD VSS gf180mcu_fd_sc_mcu9t5v0__nand2_2
X_177_ target_status\[1\] net29 _159_ _002_ VDD VSS gf180mcu_fd_sc_mcu9t5v0__mux2_2
X_178_ net32 _156_ _160_ VDD VSS gf180mcu_fd_sc_mcu9t5v0__nand2_2
X_179_ target_status\[0\] net28 _160_ _003_ VDD VSS gf180mcu_fd_sc_mcu9t5v0__mux2_2
X_180_ state\[1\] _036_ VDD VSS gf180mcu_fd_sc_mcu9t5v0__clkinv_3
X_181_ _036_ _154_ _037_ VDD VSS gf180mcu_fd_sc_mcu9t5v0__and2_2
X_182_ state\[2\] _037_ _038_ VDD VSS gf180mcu_fd_sc_mcu9t5v0__and2_2
X_183_ net35 _038_ _039_ VDD VSS gf180mcu_fd_sc_mcu9t5v0__nand2_2
X_184_ target_status\[3\] net15 _039_ _004_ VDD VSS gf180mcu_fd_sc_mcu9t5v0__mux2_2
X_185_ net34 _038_ _040_ VDD VSS gf180mcu_fd_sc_mcu9t5v0__nand2_2
X_186_ target_status\[2\] net14 _040_ _005_ VDD VSS gf180mcu_fd_sc_mcu9t5v0__mux2_2
X_187_ net33 _038_ _041_ VDD VSS gf180mcu_fd_sc_mcu9t5v0__nand2_2
X_188_ target_status\[1\] net13 _041_ _006_ VDD VSS gf180mcu_fd_sc_mcu9t5v0__mux2_2
X_189_ net32 _038_ _042_ VDD VSS gf180mcu_fd_sc_mcu9t5v0__nand2_2
X_190_ target_status\[0\] net12 _042_ _007_ VDD VSS gf180mcu_fd_sc_mcu9t5v0__mux2_2
X_191_ state\[2\] _043_ VDD VSS gf180mcu_fd_sc_mcu9t5v0__clkinv_4
X_192_ _043_ _155_ _044_ VDD VSS gf180mcu_fd_sc_mcu9t5v0__and2_2
X_193_ net35 _044_ _045_ VDD VSS gf180mcu_fd_sc_mcu9t5v0__nand2_2
X_194_ target_status\[3\] net23 _045_ _008_ VDD VSS gf180mcu_fd_sc_mcu9t5v0__mux2_2
X_195_ net34 _044_ _046_ VDD VSS gf180mcu_fd_sc_mcu9t5v0__nand2_2
X_196_ target_status\[2\] net22 _046_ _009_ VDD VSS gf180mcu_fd_sc_mcu9t5v0__mux2_2
X_197_ net33 _044_ _047_ VDD VSS gf180mcu_fd_sc_mcu9t5v0__nand2_2
X_198_ target_status\[1\] net21 _047_ _010_ VDD VSS gf180mcu_fd_sc_mcu9t5v0__mux2_2
X_199_ net32 _044_ _048_ VDD VSS gf180mcu_fd_sc_mcu9t5v0__nand2_2
X_200_ target_status\[0\] net20 _048_ _011_ VDD VSS gf180mcu_fd_sc_mcu9t5v0__mux2_2
X_201_ state\[2\] _049_ VDD VSS gf180mcu_fd_sc_mcu9t5v0__buf_4
X_202_ delay_counter\[2\] _050_ VDD VSS gf180mcu_fd_sc_mcu9t5v0__clkinv_2
X_203_ delay_counter\[3\] _051_ VDD VSS gf180mcu_fd_sc_mcu9t5v0__clkinv_2
X_204_ _050_ _051_ _165_ _052_ VDD VSS gf180mcu_fd_sc_mcu9t5v0__and3_2
X_205_ _154_ delay_counter\[0\] _052_ _053_ VDD VSS gf180mcu_fd_sc_mcu9t5v0__or3_2
X_206_ state\[1\] state\[0\] _054_ VDD VSS gf180mcu_fd_sc_mcu9t5v0__or2_2
X_207_ net11 _161_ _054_ _055_ VDD VSS gf180mcu_fd_sc_mcu9t5v0__or3_2
X_208_ state\[1\] _056_ VDD VSS gf180mcu_fd_sc_mcu9t5v0__buf_4
X_209_ _161_ _052_ _056_ _057_ VDD VSS gf180mcu_fd_sc_mcu9t5v0__oai21_2
X_210_ _053_ _055_ _057_ _058_ VDD VSS gf180mcu_fd_sc_mcu9t5v0__and3_2
X_211_ state\[2\] _059_ VDD VSS gf180mcu_fd_sc_mcu9t5v0__clkbuf_4
X_212_ net5 net31 _060_ VDD VSS gf180mcu_fd_sc_mcu9t5v0__xor2_2
X_213_ net2 net28 _061_ VDD VSS gf180mcu_fd_sc_mcu9t5v0__xor2_2
X_214_ net4 net30 _062_ VDD VSS gf180mcu_fd_sc_mcu9t5v0__xor2_2
X_215_ net3 net29 _063_ VDD VSS gf180mcu_fd_sc_mcu9t5v0__xor2_2
X_216_ _060_ _061_ _062_ _063_ _064_ VDD VSS gf180mcu_fd_sc_mcu9t5v0__or4_2
X_217_ _059_ _161_ _054_ _064_ _065_ VDD VSS gf180mcu_fd_sc_mcu9t5v0__or4_2
X_218_ _165_ _066_ VDD VSS gf180mcu_fd_sc_mcu9t5v0__clkinv_2
X_219_ delay_counter\[2\] delay_counter\[3\] _066_ _067_ VDD
+ VSS gf180mcu_fd_sc_mcu9t5v0__or3_2
X_220_ state\[2\] _036_ _068_ VDD VSS gf180mcu_fd_sc_mcu9t5v0__and2_2
X_221_ _161_ _067_ _068_ _069_ VDD VSS gf180mcu_fd_sc_mcu9t5v0__nand3_2
X_222_ _065_ _069_ _070_ VDD VSS gf180mcu_fd_sc_mcu9t5v0__and2_2
X_223_ state\[0\] _052_ _071_ VDD VSS gf180mcu_fd_sc_mcu9t5v0__and2_2
X_224_ _056_ _071_ delay_counter\[0\] _049_ _072_ VDD VSS
+ gf180mcu_fd_sc_mcu9t5v0__oai211_2
X_225_ _049_ _058_ _070_ _072_ _012_ VDD VSS gf180mcu_fd_sc_mcu9t5v0__oai211_2
X_226_ _164_ _052_ _155_ _073_ VDD VSS gf180mcu_fd_sc_mcu9t5v0__oai21_2
X_227_ delay_counter\[2\] delay_counter\[3\] _066_ _164_ _074_
+ VDD VSS gf180mcu_fd_sc_mcu9t5v0__oai31_2
X_228_ delay_counter\[1\] _074_ _036_ _075_ VDD VSS gf180mcu_fd_sc_mcu9t5v0__mux2_2
X_229_ _073_ _075_ _059_ _076_ VDD VSS gf180mcu_fd_sc_mcu9t5v0__mux2_2
X_230_ net11 _064_ _077_ VDD VSS gf180mcu_fd_sc_mcu9t5v0__and2_2
X_231_ _059_ delay_counter\[1\] _054_ _077_ _078_ VDD VSS
+ gf180mcu_fd_sc_mcu9t5v0__or4_2
X_232_ _059_ _074_ _079_ VDD VSS gf180mcu_fd_sc_mcu9t5v0__nor2_2
X_233_ _059_ _162_ _052_ _080_ VDD VSS gf180mcu_fd_sc_mcu9t5v0__and3_2
X_234_ _079_ _080_ state\[0\] _081_ VDD VSS gf180mcu_fd_sc_mcu9t5v0__oai21_2
X_235_ _076_ _078_ _081_ _013_ VDD VSS gf180mcu_fd_sc_mcu9t5v0__and3_2
X_236_ _051_ _165_ _082_ VDD VSS gf180mcu_fd_sc_mcu9t5v0__nand2_2
X_237_ state\[0\] _050_ _163_ _082_ _083_ VDD VSS gf180mcu_fd_sc_mcu9t5v0__and4_2
X_238_ _163_ _084_ VDD VSS gf180mcu_fd_sc_mcu9t5v0__clkinv_2
X_239_ state\[1\] _084_ _085_ VDD VSS gf180mcu_fd_sc_mcu9t5v0__and2_2
X_240_ state\[1\] delay_counter\[2\] _086_ VDD VSS gf180mcu_fd_sc_mcu9t5v0__xnor2_2
X_241_ _082_ _085_ _086_ state\[0\] _087_ VDD VSS gf180mcu_fd_sc_mcu9t5v0__aoi211_2
X_242_ _083_ _087_ _043_ _088_ VDD VSS gf180mcu_fd_sc_mcu9t5v0__oai21_2
X_243_ _036_ _163_ _089_ VDD VSS gf180mcu_fd_sc_mcu9t5v0__and2_2
X_244_ _059_ _050_ _082_ _089_ _090_ VDD VSS gf180mcu_fd_sc_mcu9t5v0__and4_2
X_245_ _059_ _056_ delay_counter\[2\] _091_ VDD VSS gf180mcu_fd_sc_mcu9t5v0__and3_2
X_246_ delay_counter\[2\] _084_ _090_ _091_ _092_ VDD VSS
+ gf180mcu_fd_sc_mcu9t5v0__aoi211_2
X_247_ _084_ _054_ state\[2\] _093_ VDD VSS gf180mcu_fd_sc_mcu9t5v0__aoi21_2
X_248_ _089_ _093_ _094_ VDD VSS gf180mcu_fd_sc_mcu9t5v0__or2_2
X_249_ delay_counter\[2\] _077_ _094_ _095_ VDD VSS gf180mcu_fd_sc_mcu9t5v0__and3_2
X_250_ _088_ _092_ _095_ _014_ VDD VSS gf180mcu_fd_sc_mcu9t5v0__aoi21_2
X_251_ delay_counter\[0\] delay_counter\[1\] _096_ VDD VSS
+ gf180mcu_fd_sc_mcu9t5v0__or2_2
X_252_ state\[1\] _096_ _066_ _097_ VDD VSS gf180mcu_fd_sc_mcu9t5v0__mux2_2
X_253_ delay_counter\[2\] _096_ delay_counter\[3\] _098_ VDD
+ VSS gf180mcu_fd_sc_mcu9t5v0__oai21_2
X_254_ delay_counter\[2\] delay_counter\[3\] _097_ _098_ _099_
+ VDD VSS gf180mcu_fd_sc_mcu9t5v0__oai31_2
X_255_ _043_ _054_ _099_ _100_ VDD VSS gf180mcu_fd_sc_mcu9t5v0__and3_2
X_256_ _049_ _051_ _054_ _077_ _101_ VDD VSS gf180mcu_fd_sc_mcu9t5v0__nor4_2
X_257_ _051_ _066_ _102_ VDD VSS gf180mcu_fd_sc_mcu9t5v0__and2_2
X_258_ state\[1\] delay_counter\[2\] _096_ _103_ VDD VSS gf180mcu_fd_sc_mcu9t5v0__or3_2
X_259_ _102_ delay_counter\[3\] _103_ _104_ VDD VSS gf180mcu_fd_sc_mcu9t5v0__mux2_2
X_260_ _049_ _104_ _105_ VDD VSS gf180mcu_fd_sc_mcu9t5v0__and2_2
X_261_ _100_ _101_ _105_ _015_ VDD VSS gf180mcu_fd_sc_mcu9t5v0__or3_2
X_262_ _036_ state\[0\] _106_ VDD VSS gf180mcu_fd_sc_mcu9t5v0__and2_2
X_263_ net32 target_status\[0\] _107_ VDD VSS gf180mcu_fd_sc_mcu9t5v0__nand2_2
X_264_ _056_ _154_ _107_ net16 _108_ VDD VSS gf180mcu_fd_sc_mcu9t5v0__oai31_2
X_265_ target_status\[0\] _109_ VDD VSS gf180mcu_fd_sc_mcu9t5v0__clkinv_2
X_266_ net32 _109_ net16 _110_ VDD VSS gf180mcu_fd_sc_mcu9t5v0__aoi21_2
X_267_ _049_ _108_ _110_ _111_ VDD VSS gf180mcu_fd_sc_mcu9t5v0__aoi21_2
X_268_ net16 _106_ _111_ net6 _112_ VDD VSS gf180mcu_fd_sc_mcu9t5v0__oai22_2
X_269_ _112_ _016_ VDD VSS gf180mcu_fd_sc_mcu9t5v0__clkinv_2
X_270_ net33 target_status\[1\] _113_ VDD VSS gf180mcu_fd_sc_mcu9t5v0__nand2_2
X_271_ _056_ _154_ _113_ net17 _114_ VDD VSS gf180mcu_fd_sc_mcu9t5v0__oai31_2
X_272_ target_status\[1\] _115_ VDD VSS gf180mcu_fd_sc_mcu9t5v0__clkinv_2
X_273_ net33 _115_ net17 _116_ VDD VSS gf180mcu_fd_sc_mcu9t5v0__aoi21_2
X_274_ _049_ _114_ _116_ _117_ VDD VSS gf180mcu_fd_sc_mcu9t5v0__aoi21_2
X_275_ net17 _106_ _117_ net7 _118_ VDD VSS gf180mcu_fd_sc_mcu9t5v0__oai22_2
X_276_ _118_ _017_ VDD VSS gf180mcu_fd_sc_mcu9t5v0__clkinv_2
X_277_ net34 target_status\[2\] _119_ VDD VSS gf180mcu_fd_sc_mcu9t5v0__nand2_2
X_278_ _056_ _154_ _119_ net18 _120_ VDD VSS gf180mcu_fd_sc_mcu9t5v0__oai31_2
X_279_ target_status\[2\] _121_ VDD VSS gf180mcu_fd_sc_mcu9t5v0__clkinv_2
X_280_ net34 _121_ net18 _122_ VDD VSS gf180mcu_fd_sc_mcu9t5v0__aoi21_2
X_281_ _049_ _120_ _122_ _123_ VDD VSS gf180mcu_fd_sc_mcu9t5v0__aoi21_2
X_282_ net18 _106_ _123_ net8 _124_ VDD VSS gf180mcu_fd_sc_mcu9t5v0__oai22_2
X_283_ _124_ _018_ VDD VSS gf180mcu_fd_sc_mcu9t5v0__clkinv_2
X_284_ net35 target_status\[3\] _125_ VDD VSS gf180mcu_fd_sc_mcu9t5v0__nand2_2
X_285_ _056_ _154_ _125_ net19 _126_ VDD VSS gf180mcu_fd_sc_mcu9t5v0__oai31_2
X_286_ target_status\[3\] _127_ VDD VSS gf180mcu_fd_sc_mcu9t5v0__clkinv_2
X_287_ net35 _127_ net19 _128_ VDD VSS gf180mcu_fd_sc_mcu9t5v0__aoi21_2
X_288_ _049_ _126_ _128_ _129_ VDD VSS gf180mcu_fd_sc_mcu9t5v0__aoi21_2
X_289_ net19 _106_ _129_ net9 _130_ VDD VSS gf180mcu_fd_sc_mcu9t5v0__oai22_2
X_290_ _130_ _019_ VDD VSS gf180mcu_fd_sc_mcu9t5v0__clkinv_2
X_291_ _043_ state\[1\] state\[0\] _131_ VDD VSS gf180mcu_fd_sc_mcu9t5v0__and3_2
X_292_ net32 _109_ _131_ _132_ VDD VSS gf180mcu_fd_sc_mcu9t5v0__and3_2
X_293_ _052_ _131_ _133_ VDD VSS gf180mcu_fd_sc_mcu9t5v0__and2_2
X_294_ net32 _133_ net24 _134_ VDD VSS gf180mcu_fd_sc_mcu9t5v0__aoi21_2
X_295_ _132_ _134_ _020_ VDD VSS gf180mcu_fd_sc_mcu9t5v0__nor2_2
X_296_ net33 _115_ _131_ _135_ VDD VSS gf180mcu_fd_sc_mcu9t5v0__and3_2
X_297_ net33 _133_ net25 _136_ VDD VSS gf180mcu_fd_sc_mcu9t5v0__aoi21_2
X_298_ _135_ _136_ _021_ VDD VSS gf180mcu_fd_sc_mcu9t5v0__nor2_2
X_299_ net34 _121_ _131_ _137_ VDD VSS gf180mcu_fd_sc_mcu9t5v0__and3_2
X_300_ net34 _133_ net26 _138_ VDD VSS gf180mcu_fd_sc_mcu9t5v0__aoi21_2
X_301_ _137_ _138_ _022_ VDD VSS gf180mcu_fd_sc_mcu9t5v0__nor2_2
X_302_ net35 _127_ _131_ _139_ VDD VSS gf180mcu_fd_sc_mcu9t5v0__and3_2
X_303_ net35 _133_ net27 _140_ VDD VSS gf180mcu_fd_sc_mcu9t5v0__aoi21_2
X_304_ _139_ _140_ _023_ VDD VSS gf180mcu_fd_sc_mcu9t5v0__nor2_2
X_305_ _059_ _155_ _141_ VDD VSS gf180mcu_fd_sc_mcu9t5v0__nand2_2
X_306_ net32 _141_ _142_ VDD VSS gf180mcu_fd_sc_mcu9t5v0__and2_2
X_307_ _043_ _037_ _077_ _143_ VDD VSS gf180mcu_fd_sc_mcu9t5v0__nand3_4
X_308_ _061_ _142_ _143_ _024_ VDD VSS gf180mcu_fd_sc_mcu9t5v0__mux2_2
X_309_ net33 _141_ _144_ VDD VSS gf180mcu_fd_sc_mcu9t5v0__and2_2
X_310_ _063_ _144_ _143_ _025_ VDD VSS gf180mcu_fd_sc_mcu9t5v0__mux2_2
X_311_ net34 _141_ _145_ VDD VSS gf180mcu_fd_sc_mcu9t5v0__and2_2
X_312_ _062_ _145_ _143_ _026_ VDD VSS gf180mcu_fd_sc_mcu9t5v0__mux2_2
X_313_ net35 _141_ _146_ VDD VSS gf180mcu_fd_sc_mcu9t5v0__and2_2
X_314_ _060_ _146_ _143_ _027_ VDD VSS gf180mcu_fd_sc_mcu9t5v0__mux2_2
X_315_ _059_ _054_ _077_ _147_ VDD VSS gf180mcu_fd_sc_mcu9t5v0__or3_2
X_316_ _049_ _056_ _154_ _067_ _148_ VDD VSS gf180mcu_fd_sc_mcu9t5v0__oai211_2
X_317_ _049_ _056_ _071_ _149_ VDD VSS gf180mcu_fd_sc_mcu9t5v0__aoi21_2
X_318_ _147_ _148_ _149_ _028_ VDD VSS gf180mcu_fd_sc_mcu9t5v0__and3_2
X_319_ _043_ _056_ _150_ VDD VSS gf180mcu_fd_sc_mcu9t5v0__and2_2
X_320_ _150_ _036_ _071_ _029_ VDD VSS gf180mcu_fd_sc_mcu9t5v0__mux2_2
X_321_ _068_ _133_ _030_ VDD VSS gf180mcu_fd_sc_mcu9t5v0__or2_2
X_322_ net2 target_status\[0\] _143_ _031_ VDD VSS gf180mcu_fd_sc_mcu9t5v0__mux2_2
X_323_ net3 target_status\[1\] _143_ _032_ VDD VSS gf180mcu_fd_sc_mcu9t5v0__mux2_2
X_324_ net4 target_status\[2\] _143_ _033_ VDD VSS gf180mcu_fd_sc_mcu9t5v0__mux2_2
X_325_ net5 target_status\[3\] _143_ _034_ VDD VSS gf180mcu_fd_sc_mcu9t5v0__mux2_2
X_326_ net36 _151_ VDD VSS gf180mcu_fd_sc_mcu9t5v0__clkinv_2
X_327_ state\[0\] _068_ _151_ _152_ VDD VSS gf180mcu_fd_sc_mcu9t5v0__oai21_2
X_328_ _059_ _036_ net36 _153_ VDD VSS gf180mcu_fd_sc_mcu9t5v0__or3_2
X_329_ _143_ _152_ _153_ _035_ VDD VSS gf180mcu_fd_sc_mcu9t5v0__and3_2
X_330_ _161_ _162_ _163_ _164_ VDD VSS gf180mcu_fd_sc_mcu9t5v0__addh_1
X_331_ _161_ _162_ _165_ _166_ VDD VSS gf180mcu_fd_sc_mcu9t5v0__addh_2
X_332_ _000_ net1 clknet_2_1__leaf_clk net31 VDD VSS gf180mcu_fd_sc_mcu9t5v0__dffrnq_2
X_333_ _001_ net1 clknet_2_1__leaf_clk net30 VDD VSS gf180mcu_fd_sc_mcu9t5v0__dffrnq_4
X_334_ _002_ net1 clknet_2_0__leaf_clk net29 VDD VSS gf180mcu_fd_sc_mcu9t5v0__dffrnq_2
X_335_ _003_ net1 clknet_2_0__leaf_clk net28 VDD VSS gf180mcu_fd_sc_mcu9t5v0__dffrnq_2
X_336_ _004_ net1 clknet_2_1__leaf_clk net15 VDD VSS gf180mcu_fd_sc_mcu9t5v0__dffrnq_2
X_337_ _005_ net1 clknet_2_3__leaf_clk net14 VDD VSS gf180mcu_fd_sc_mcu9t5v0__dffrnq_2
X_338_ _006_ net1 clknet_2_0__leaf_clk net13 VDD VSS gf180mcu_fd_sc_mcu9t5v0__dffrnq_2
X_339_ _007_ net1 clknet_2_0__leaf_clk net12 VDD VSS gf180mcu_fd_sc_mcu9t5v0__dffrnq_2
X_340_ _008_ net1 clknet_2_1__leaf_clk net23 VDD VSS gf180mcu_fd_sc_mcu9t5v0__dffrnq_2
X_341_ _009_ net1 clknet_2_3__leaf_clk net22 VDD VSS gf180mcu_fd_sc_mcu9t5v0__dffrnq_2
X_342_ _010_ net1 clknet_2_0__leaf_clk net21 VDD VSS gf180mcu_fd_sc_mcu9t5v0__dffrnq_2
X_343_ _011_ net1 clknet_2_0__leaf_clk net20 VDD VSS gf180mcu_fd_sc_mcu9t5v0__dffrnq_2
Xdelay_counter\[0\]$_DFFE_PN0P_ _012_ net1 clknet_2_3__leaf_clk
+ delay_counter\[0\] VDD VSS gf180mcu_fd_sc_mcu9t5v0__dffrnq_2
Xdelay_counter\[1\]$_DFFE_PN0P_ _013_ net1 clknet_2_1__leaf_clk
+ delay_counter\[1\] VDD VSS gf180mcu_fd_sc_mcu9t5v0__dffrnq_2
Xdelay_counter\[2\]$_DFFE_PN0P_ _014_ net1 clknet_2_0__leaf_clk
+ delay_counter\[2\] VDD VSS gf180mcu_fd_sc_mcu9t5v0__dffrnq_4
Xdelay_counter\[3\]$_DFFE_PN0P_ _015_ net1 clknet_2_2__leaf_clk
+ delay_counter\[3\] VDD VSS gf180mcu_fd_sc_mcu9t5v0__dffrnq_2
Xdomain_isolation_on\[0\]$_DFFE_PN1P_ _016_ net10 clknet_2_2__leaf_clk
+ net16 VDD VSS gf180mcu_fd_sc_mcu9t5v0__dffsnq_4
Xdomain_isolation_on\[1\]$_DFFE_PN1P_ _017_ net10 clknet_2_2__leaf_clk
+ net17 VDD VSS gf180mcu_fd_sc_mcu9t5v0__dffsnq_4
Xdomain_isolation_on\[2\]$_DFFE_PN1P_ _018_ net10 clknet_2_3__leaf_clk
+ net18 VDD VSS gf180mcu_fd_sc_mcu9t5v0__dffsnq_4
Xdomain_isolation_on\[3\]$_DFFE_PN1P_ _019_ net10 clknet_2_2__leaf_clk
+ net19 VDD VSS gf180mcu_fd_sc_mcu9t5v0__dffsnq_4
Xdomain_reset_n\[0\]$_DFFE_PN0P_ _020_ net1 clknet_2_2__leaf_clk
+ net24 VDD VSS gf180mcu_fd_sc_mcu9t5v0__dffrnq_2
Xdomain_reset_n\[1\]$_DFFE_PN0P_ _021_ net1 clknet_2_2__leaf_clk
+ net25 VDD VSS gf180mcu_fd_sc_mcu9t5v0__dffrnq_2
Xdomain_reset_n\[2\]$_DFFE_PN0P_ _022_ net1 clknet_2_3__leaf_clk
+ net26 VDD VSS gf180mcu_fd_sc_mcu9t5v0__dffrnq_2
Xdomain_reset_n\[3\]$_DFFE_PN0P_ _023_ net1 clknet_2_3__leaf_clk
+ net27 VDD VSS gf180mcu_fd_sc_mcu9t5v0__dffrnq_2
Xdomain_transition\[0\]$_DFFE_PN0P_ _024_ net1 clknet_2_0__leaf_clk
+ net32 VDD VSS gf180mcu_fd_sc_mcu9t5v0__dffrnq_4
Xdomain_transition\[1\]$_DFFE_PN0P_ _025_ net1 clknet_2_1__leaf_clk
+ net33 VDD VSS gf180mcu_fd_sc_mcu9t5v0__dffrnq_4
Xdomain_transition\[2\]$_DFFE_PN0P_ _026_ net1 clknet_2_1__leaf_clk
+ net34 VDD VSS gf180mcu_fd_sc_mcu9t5v0__dffrnq_4
Xdomain_transition\[3\]$_DFFE_PN0P_ _027_ net1 clknet_2_1__leaf_clk
+ net35 VDD VSS gf180mcu_fd_sc_mcu9t5v0__dffrnq_4
Xstate\[0\]$_DFFE_PN0P_ _028_ net1 clknet_2_3__leaf_clk state\[0\]
+ VDD VSS gf180mcu_fd_sc_mcu9t5v0__dffrnq_4
Xstate\[1\]$_DFFE_PN0P_ _029_ net1 clknet_2_2__leaf_clk state\[1\]
+ VDD VSS gf180mcu_fd_sc_mcu9t5v0__dffrnq_2
Xstate\[2\]$_DFFE_PN0P_ _030_ net1 clknet_2_3__leaf_clk state\[2\]
+ VDD VSS gf180mcu_fd_sc_mcu9t5v0__dffrnq_2
Xtarget_status\[0\]$_DFFE_PN0P_ _031_ net1 clknet_2_0__leaf_clk
+ target_status\[0\] VDD VSS gf180mcu_fd_sc_mcu9t5v0__dffrnq_2
Xtarget_status\[1\]$_DFFE_PN0P_ _032_ net1 clknet_2_0__leaf_clk
+ target_status\[1\] VDD VSS gf180mcu_fd_sc_mcu9t5v0__dffrnq_2
Xtarget_status\[2\]$_DFFE_PN0P_ _033_ net1 clknet_2_3__leaf_clk
+ target_status\[2\] VDD VSS gf180mcu_fd_sc_mcu9t5v0__dffrnq_2
Xtarget_status\[3\]$_DFFE_PN0P_ _034_ net1 clknet_2_1__leaf_clk
+ target_status\[3\] VDD VSS gf180mcu_fd_sc_mcu9t5v0__dffrnq_2
Xtransition_done$_DFFE_PN1P_ _035_ net10 clknet_2_3__leaf_clk
+ net36 VDD VSS gf180mcu_fd_sc_mcu9t5v0__dffsnq_4
Xhold1 net10 net1 VDD VSS gf180mcu_fd_sc_mcu9t5v0__buf_12
XPHY_EDGE_ROW_0_Right_0 VDD VSS gf180mcu_fd_sc_mcu9t5v0__endcap
XPHY_EDGE_ROW_1_Right_1 VDD VSS gf180mcu_fd_sc_mcu9t5v0__endcap
XPHY_EDGE_ROW_2_Right_2 VDD VSS gf180mcu_fd_sc_mcu9t5v0__endcap
XPHY_EDGE_ROW_3_Right_3 VDD VSS gf180mcu_fd_sc_mcu9t5v0__endcap
XPHY_EDGE_ROW_4_Right_4 VDD VSS gf180mcu_fd_sc_mcu9t5v0__endcap
XPHY_EDGE_ROW_5_Right_5 VDD VSS gf180mcu_fd_sc_mcu9t5v0__endcap
XPHY_EDGE_ROW_6_Right_6 VDD VSS gf180mcu_fd_sc_mcu9t5v0__endcap
XPHY_EDGE_ROW_7_Right_7 VDD VSS gf180mcu_fd_sc_mcu9t5v0__endcap
XPHY_EDGE_ROW_8_Right_8 VDD VSS gf180mcu_fd_sc_mcu9t5v0__endcap
XPHY_EDGE_ROW_9_Right_9 VDD VSS gf180mcu_fd_sc_mcu9t5v0__endcap
XPHY_EDGE_ROW_10_Right_10 VDD VSS gf180mcu_fd_sc_mcu9t5v0__endcap
XPHY_EDGE_ROW_11_Right_11 VDD VSS gf180mcu_fd_sc_mcu9t5v0__endcap
XPHY_EDGE_ROW_12_Right_12 VDD VSS gf180mcu_fd_sc_mcu9t5v0__endcap
XPHY_EDGE_ROW_13_Right_13 VDD VSS gf180mcu_fd_sc_mcu9t5v0__endcap
XPHY_EDGE_ROW_14_Right_14 VDD VSS gf180mcu_fd_sc_mcu9t5v0__endcap
XPHY_EDGE_ROW_15_Right_15 VDD VSS gf180mcu_fd_sc_mcu9t5v0__endcap
XPHY_EDGE_ROW_16_Right_16 VDD VSS gf180mcu_fd_sc_mcu9t5v0__endcap
XPHY_EDGE_ROW_17_Right_17 VDD VSS gf180mcu_fd_sc_mcu9t5v0__endcap
XPHY_EDGE_ROW_18_Right_18 VDD VSS gf180mcu_fd_sc_mcu9t5v0__endcap
XPHY_EDGE_ROW_19_Right_19 VDD VSS gf180mcu_fd_sc_mcu9t5v0__endcap
XPHY_EDGE_ROW_20_Right_20 VDD VSS gf180mcu_fd_sc_mcu9t5v0__endcap
XPHY_EDGE_ROW_21_Right_21 VDD VSS gf180mcu_fd_sc_mcu9t5v0__endcap
XPHY_EDGE_ROW_22_Right_22 VDD VSS gf180mcu_fd_sc_mcu9t5v0__endcap
XPHY_EDGE_ROW_23_Right_23 VDD VSS gf180mcu_fd_sc_mcu9t5v0__endcap
XPHY_EDGE_ROW_24_Right_24 VDD VSS gf180mcu_fd_sc_mcu9t5v0__endcap
XPHY_EDGE_ROW_25_Right_25 VDD VSS gf180mcu_fd_sc_mcu9t5v0__endcap
XPHY_EDGE_ROW_26_Right_26 VDD VSS gf180mcu_fd_sc_mcu9t5v0__endcap
XPHY_EDGE_ROW_27_Right_27 VDD VSS gf180mcu_fd_sc_mcu9t5v0__endcap
XPHY_EDGE_ROW_28_Right_28 VDD VSS gf180mcu_fd_sc_mcu9t5v0__endcap
XPHY_EDGE_ROW_29_Right_29 VDD VSS gf180mcu_fd_sc_mcu9t5v0__endcap
XPHY_EDGE_ROW_30_Right_30 VDD VSS gf180mcu_fd_sc_mcu9t5v0__endcap
XPHY_EDGE_ROW_31_Right_31 VDD VSS gf180mcu_fd_sc_mcu9t5v0__endcap
XPHY_EDGE_ROW_32_Right_32 VDD VSS gf180mcu_fd_sc_mcu9t5v0__endcap
XPHY_EDGE_ROW_33_Right_33 VDD VSS gf180mcu_fd_sc_mcu9t5v0__endcap
XPHY_EDGE_ROW_34_Right_34 VDD VSS gf180mcu_fd_sc_mcu9t5v0__endcap
XPHY_EDGE_ROW_35_Right_35 VDD VSS gf180mcu_fd_sc_mcu9t5v0__endcap
XPHY_EDGE_ROW_36_Right_36 VDD VSS gf180mcu_fd_sc_mcu9t5v0__endcap
XPHY_EDGE_ROW_37_Right_37 VDD VSS gf180mcu_fd_sc_mcu9t5v0__endcap
XPHY_EDGE_ROW_38_Right_38 VDD VSS gf180mcu_fd_sc_mcu9t5v0__endcap
XPHY_EDGE_ROW_39_Right_39 VDD VSS gf180mcu_fd_sc_mcu9t5v0__endcap
XPHY_EDGE_ROW_40_Right_40 VDD VSS gf180mcu_fd_sc_mcu9t5v0__endcap
XPHY_EDGE_ROW_41_Right_41 VDD VSS gf180mcu_fd_sc_mcu9t5v0__endcap
XPHY_EDGE_ROW_42_Right_42 VDD VSS gf180mcu_fd_sc_mcu9t5v0__endcap
XPHY_EDGE_ROW_43_Right_43 VDD VSS gf180mcu_fd_sc_mcu9t5v0__endcap
XPHY_EDGE_ROW_44_Right_44 VDD VSS gf180mcu_fd_sc_mcu9t5v0__endcap
XPHY_EDGE_ROW_45_Right_45 VDD VSS gf180mcu_fd_sc_mcu9t5v0__endcap
XPHY_EDGE_ROW_46_Right_46 VDD VSS gf180mcu_fd_sc_mcu9t5v0__endcap
XPHY_EDGE_ROW_47_Right_47 VDD VSS gf180mcu_fd_sc_mcu9t5v0__endcap
XPHY_EDGE_ROW_48_Right_48 VDD VSS gf180mcu_fd_sc_mcu9t5v0__endcap
XPHY_EDGE_ROW_49_Right_49 VDD VSS gf180mcu_fd_sc_mcu9t5v0__endcap
XPHY_EDGE_ROW_50_Right_50 VDD VSS gf180mcu_fd_sc_mcu9t5v0__endcap
XPHY_EDGE_ROW_51_Right_51 VDD VSS gf180mcu_fd_sc_mcu9t5v0__endcap
XPHY_EDGE_ROW_52_Right_52 VDD VSS gf180mcu_fd_sc_mcu9t5v0__endcap
XPHY_EDGE_ROW_53_Right_53 VDD VSS gf180mcu_fd_sc_mcu9t5v0__endcap
XPHY_EDGE_ROW_54_Right_54 VDD VSS gf180mcu_fd_sc_mcu9t5v0__endcap
XPHY_EDGE_ROW_55_Right_55 VDD VSS gf180mcu_fd_sc_mcu9t5v0__endcap
XPHY_EDGE_ROW_56_Right_56 VDD VSS gf180mcu_fd_sc_mcu9t5v0__endcap
XPHY_EDGE_ROW_57_Right_57 VDD VSS gf180mcu_fd_sc_mcu9t5v0__endcap
XPHY_EDGE_ROW_58_Right_58 VDD VSS gf180mcu_fd_sc_mcu9t5v0__endcap
XPHY_EDGE_ROW_59_Right_59 VDD VSS gf180mcu_fd_sc_mcu9t5v0__endcap
XPHY_EDGE_ROW_60_Right_60 VDD VSS gf180mcu_fd_sc_mcu9t5v0__endcap
XPHY_EDGE_ROW_61_Right_61 VDD VSS gf180mcu_fd_sc_mcu9t5v0__endcap
XPHY_EDGE_ROW_62_Right_62 VDD VSS gf180mcu_fd_sc_mcu9t5v0__endcap
XPHY_EDGE_ROW_63_Right_63 VDD VSS gf180mcu_fd_sc_mcu9t5v0__endcap
XPHY_EDGE_ROW_64_Right_64 VDD VSS gf180mcu_fd_sc_mcu9t5v0__endcap
XPHY_EDGE_ROW_65_Right_65 VDD VSS gf180mcu_fd_sc_mcu9t5v0__endcap
XPHY_EDGE_ROW_66_Right_66 VDD VSS gf180mcu_fd_sc_mcu9t5v0__endcap
XPHY_EDGE_ROW_67_Right_67 VDD VSS gf180mcu_fd_sc_mcu9t5v0__endcap
XPHY_EDGE_ROW_68_Right_68 VDD VSS gf180mcu_fd_sc_mcu9t5v0__endcap
XPHY_EDGE_ROW_69_Right_69 VDD VSS gf180mcu_fd_sc_mcu9t5v0__endcap
XPHY_EDGE_ROW_70_Right_70 VDD VSS gf180mcu_fd_sc_mcu9t5v0__endcap
XPHY_EDGE_ROW_71_Right_71 VDD VSS gf180mcu_fd_sc_mcu9t5v0__endcap
XPHY_EDGE_ROW_72_Right_72 VDD VSS gf180mcu_fd_sc_mcu9t5v0__endcap
XPHY_EDGE_ROW_73_Right_73 VDD VSS gf180mcu_fd_sc_mcu9t5v0__endcap
XPHY_EDGE_ROW_74_Right_74 VDD VSS gf180mcu_fd_sc_mcu9t5v0__endcap
XPHY_EDGE_ROW_75_Right_75 VDD VSS gf180mcu_fd_sc_mcu9t5v0__endcap
XPHY_EDGE_ROW_76_Right_76 VDD VSS gf180mcu_fd_sc_mcu9t5v0__endcap
XPHY_EDGE_ROW_77_Right_77 VDD VSS gf180mcu_fd_sc_mcu9t5v0__endcap
XPHY_EDGE_ROW_78_Right_78 VDD VSS gf180mcu_fd_sc_mcu9t5v0__endcap
XPHY_EDGE_ROW_79_Right_79 VDD VSS gf180mcu_fd_sc_mcu9t5v0__endcap
XPHY_EDGE_ROW_80_Right_80 VDD VSS gf180mcu_fd_sc_mcu9t5v0__endcap
XPHY_EDGE_ROW_81_Right_81 VDD VSS gf180mcu_fd_sc_mcu9t5v0__endcap
XPHY_EDGE_ROW_82_Right_82 VDD VSS gf180mcu_fd_sc_mcu9t5v0__endcap
XPHY_EDGE_ROW_83_Right_83 VDD VSS gf180mcu_fd_sc_mcu9t5v0__endcap
XPHY_EDGE_ROW_84_Right_84 VDD VSS gf180mcu_fd_sc_mcu9t5v0__endcap
XPHY_EDGE_ROW_85_Right_85 VDD VSS gf180mcu_fd_sc_mcu9t5v0__endcap
XPHY_EDGE_ROW_86_Right_86 VDD VSS gf180mcu_fd_sc_mcu9t5v0__endcap
XPHY_EDGE_ROW_87_Right_87 VDD VSS gf180mcu_fd_sc_mcu9t5v0__endcap
XPHY_EDGE_ROW_88_Right_88 VDD VSS gf180mcu_fd_sc_mcu9t5v0__endcap
XPHY_EDGE_ROW_89_Right_89 VDD VSS gf180mcu_fd_sc_mcu9t5v0__endcap
XPHY_EDGE_ROW_90_Right_90 VDD VSS gf180mcu_fd_sc_mcu9t5v0__endcap
XPHY_EDGE_ROW_91_Right_91 VDD VSS gf180mcu_fd_sc_mcu9t5v0__endcap
XPHY_EDGE_ROW_92_Right_92 VDD VSS gf180mcu_fd_sc_mcu9t5v0__endcap
XPHY_EDGE_ROW_93_Right_93 VDD VSS gf180mcu_fd_sc_mcu9t5v0__endcap
XPHY_EDGE_ROW_94_Right_94 VDD VSS gf180mcu_fd_sc_mcu9t5v0__endcap
XPHY_EDGE_ROW_95_Right_95 VDD VSS gf180mcu_fd_sc_mcu9t5v0__endcap
XPHY_EDGE_ROW_96_Right_96 VDD VSS gf180mcu_fd_sc_mcu9t5v0__endcap
XPHY_EDGE_ROW_97_Right_97 VDD VSS gf180mcu_fd_sc_mcu9t5v0__endcap
XPHY_EDGE_ROW_98_Right_98 VDD VSS gf180mcu_fd_sc_mcu9t5v0__endcap
XPHY_EDGE_ROW_99_Right_99 VDD VSS gf180mcu_fd_sc_mcu9t5v0__endcap
XPHY_EDGE_ROW_100_Right_100 VDD VSS gf180mcu_fd_sc_mcu9t5v0__endcap
XPHY_EDGE_ROW_101_Right_101 VDD VSS gf180mcu_fd_sc_mcu9t5v0__endcap
XPHY_EDGE_ROW_102_Right_102 VDD VSS gf180mcu_fd_sc_mcu9t5v0__endcap
XPHY_EDGE_ROW_103_Right_103 VDD VSS gf180mcu_fd_sc_mcu9t5v0__endcap
XPHY_EDGE_ROW_104_Right_104 VDD VSS gf180mcu_fd_sc_mcu9t5v0__endcap
XPHY_EDGE_ROW_105_Right_105 VDD VSS gf180mcu_fd_sc_mcu9t5v0__endcap
XPHY_EDGE_ROW_106_Right_106 VDD VSS gf180mcu_fd_sc_mcu9t5v0__endcap
XPHY_EDGE_ROW_107_Right_107 VDD VSS gf180mcu_fd_sc_mcu9t5v0__endcap
XPHY_EDGE_ROW_108_Right_108 VDD VSS gf180mcu_fd_sc_mcu9t5v0__endcap
XPHY_EDGE_ROW_109_Right_109 VDD VSS gf180mcu_fd_sc_mcu9t5v0__endcap
XPHY_EDGE_ROW_110_Right_110 VDD VSS gf180mcu_fd_sc_mcu9t5v0__endcap
XPHY_EDGE_ROW_111_Right_111 VDD VSS gf180mcu_fd_sc_mcu9t5v0__endcap
XPHY_EDGE_ROW_112_Right_112 VDD VSS gf180mcu_fd_sc_mcu9t5v0__endcap
XPHY_EDGE_ROW_113_Right_113 VDD VSS gf180mcu_fd_sc_mcu9t5v0__endcap
XPHY_EDGE_ROW_114_Right_114 VDD VSS gf180mcu_fd_sc_mcu9t5v0__endcap
XPHY_EDGE_ROW_115_Right_115 VDD VSS gf180mcu_fd_sc_mcu9t5v0__endcap
XPHY_EDGE_ROW_116_Right_116 VDD VSS gf180mcu_fd_sc_mcu9t5v0__endcap
XPHY_EDGE_ROW_117_Right_117 VDD VSS gf180mcu_fd_sc_mcu9t5v0__endcap
XPHY_EDGE_ROW_118_Right_118 VDD VSS gf180mcu_fd_sc_mcu9t5v0__endcap
XPHY_EDGE_ROW_119_Right_119 VDD VSS gf180mcu_fd_sc_mcu9t5v0__endcap
XPHY_EDGE_ROW_120_Right_120 VDD VSS gf180mcu_fd_sc_mcu9t5v0__endcap
XPHY_EDGE_ROW_121_Right_121 VDD VSS gf180mcu_fd_sc_mcu9t5v0__endcap
XPHY_EDGE_ROW_122_Right_122 VDD VSS gf180mcu_fd_sc_mcu9t5v0__endcap
XPHY_EDGE_ROW_123_Right_123 VDD VSS gf180mcu_fd_sc_mcu9t5v0__endcap
XPHY_EDGE_ROW_124_Right_124 VDD VSS gf180mcu_fd_sc_mcu9t5v0__endcap
XPHY_EDGE_ROW_125_Right_125 VDD VSS gf180mcu_fd_sc_mcu9t5v0__endcap
XPHY_EDGE_ROW_126_Right_126 VDD VSS gf180mcu_fd_sc_mcu9t5v0__endcap
XPHY_EDGE_ROW_127_Right_127 VDD VSS gf180mcu_fd_sc_mcu9t5v0__endcap
XPHY_EDGE_ROW_128_Right_128 VDD VSS gf180mcu_fd_sc_mcu9t5v0__endcap
XPHY_EDGE_ROW_129_Right_129 VDD VSS gf180mcu_fd_sc_mcu9t5v0__endcap
XPHY_EDGE_ROW_130_Right_130 VDD VSS gf180mcu_fd_sc_mcu9t5v0__endcap
XPHY_EDGE_ROW_131_Right_131 VDD VSS gf180mcu_fd_sc_mcu9t5v0__endcap
XPHY_EDGE_ROW_132_Right_132 VDD VSS gf180mcu_fd_sc_mcu9t5v0__endcap
XPHY_EDGE_ROW_133_Right_133 VDD VSS gf180mcu_fd_sc_mcu9t5v0__endcap
XPHY_EDGE_ROW_134_Right_134 VDD VSS gf180mcu_fd_sc_mcu9t5v0__endcap
XPHY_EDGE_ROW_135_Right_135 VDD VSS gf180mcu_fd_sc_mcu9t5v0__endcap
XPHY_EDGE_ROW_136_Right_136 VDD VSS gf180mcu_fd_sc_mcu9t5v0__endcap
XPHY_EDGE_ROW_137_Right_137 VDD VSS gf180mcu_fd_sc_mcu9t5v0__endcap
XPHY_EDGE_ROW_138_Right_138 VDD VSS gf180mcu_fd_sc_mcu9t5v0__endcap
XPHY_EDGE_ROW_139_Right_139 VDD VSS gf180mcu_fd_sc_mcu9t5v0__endcap
XPHY_EDGE_ROW_140_Right_140 VDD VSS gf180mcu_fd_sc_mcu9t5v0__endcap
XPHY_EDGE_ROW_141_Right_141 VDD VSS gf180mcu_fd_sc_mcu9t5v0__endcap
XPHY_EDGE_ROW_142_Right_142 VDD VSS gf180mcu_fd_sc_mcu9t5v0__endcap
XPHY_EDGE_ROW_143_Right_143 VDD VSS gf180mcu_fd_sc_mcu9t5v0__endcap
XPHY_EDGE_ROW_144_Right_144 VDD VSS gf180mcu_fd_sc_mcu9t5v0__endcap
XPHY_EDGE_ROW_145_Right_145 VDD VSS gf180mcu_fd_sc_mcu9t5v0__endcap
XPHY_EDGE_ROW_146_Right_146 VDD VSS gf180mcu_fd_sc_mcu9t5v0__endcap
XPHY_EDGE_ROW_147_Right_147 VDD VSS gf180mcu_fd_sc_mcu9t5v0__endcap
XPHY_EDGE_ROW_148_Right_148 VDD VSS gf180mcu_fd_sc_mcu9t5v0__endcap
XPHY_EDGE_ROW_149_Right_149 VDD VSS gf180mcu_fd_sc_mcu9t5v0__endcap
XPHY_EDGE_ROW_150_Right_150 VDD VSS gf180mcu_fd_sc_mcu9t5v0__endcap
XPHY_EDGE_ROW_151_Right_151 VDD VSS gf180mcu_fd_sc_mcu9t5v0__endcap
XPHY_EDGE_ROW_152_Right_152 VDD VSS gf180mcu_fd_sc_mcu9t5v0__endcap
XPHY_EDGE_ROW_153_Right_153 VDD VSS gf180mcu_fd_sc_mcu9t5v0__endcap
XPHY_EDGE_ROW_154_Right_154 VDD VSS gf180mcu_fd_sc_mcu9t5v0__endcap
XPHY_EDGE_ROW_155_Right_155 VDD VSS gf180mcu_fd_sc_mcu9t5v0__endcap
XPHY_EDGE_ROW_156_Right_156 VDD VSS gf180mcu_fd_sc_mcu9t5v0__endcap
XPHY_EDGE_ROW_157_Right_157 VDD VSS gf180mcu_fd_sc_mcu9t5v0__endcap
XPHY_EDGE_ROW_158_Right_158 VDD VSS gf180mcu_fd_sc_mcu9t5v0__endcap
XPHY_EDGE_ROW_159_Right_159 VDD VSS gf180mcu_fd_sc_mcu9t5v0__endcap
XPHY_EDGE_ROW_160_Right_160 VDD VSS gf180mcu_fd_sc_mcu9t5v0__endcap
XPHY_EDGE_ROW_161_Right_161 VDD VSS gf180mcu_fd_sc_mcu9t5v0__endcap
XPHY_EDGE_ROW_162_Right_162 VDD VSS gf180mcu_fd_sc_mcu9t5v0__endcap
XPHY_EDGE_ROW_163_Right_163 VDD VSS gf180mcu_fd_sc_mcu9t5v0__endcap
XPHY_EDGE_ROW_164_Right_164 VDD VSS gf180mcu_fd_sc_mcu9t5v0__endcap
XPHY_EDGE_ROW_165_Right_165 VDD VSS gf180mcu_fd_sc_mcu9t5v0__endcap
XPHY_EDGE_ROW_166_Right_166 VDD VSS gf180mcu_fd_sc_mcu9t5v0__endcap
XPHY_EDGE_ROW_167_Right_167 VDD VSS gf180mcu_fd_sc_mcu9t5v0__endcap
XPHY_EDGE_ROW_168_Right_168 VDD VSS gf180mcu_fd_sc_mcu9t5v0__endcap
XPHY_EDGE_ROW_169_Right_169 VDD VSS gf180mcu_fd_sc_mcu9t5v0__endcap
XPHY_EDGE_ROW_170_Right_170 VDD VSS gf180mcu_fd_sc_mcu9t5v0__endcap
XPHY_EDGE_ROW_171_Right_171 VDD VSS gf180mcu_fd_sc_mcu9t5v0__endcap
XPHY_EDGE_ROW_172_Right_172 VDD VSS gf180mcu_fd_sc_mcu9t5v0__endcap
XPHY_EDGE_ROW_173_Right_173 VDD VSS gf180mcu_fd_sc_mcu9t5v0__endcap
XPHY_EDGE_ROW_174_Right_174 VDD VSS gf180mcu_fd_sc_mcu9t5v0__endcap
XPHY_EDGE_ROW_175_Right_175 VDD VSS gf180mcu_fd_sc_mcu9t5v0__endcap
XPHY_EDGE_ROW_176_Right_176 VDD VSS gf180mcu_fd_sc_mcu9t5v0__endcap
XPHY_EDGE_ROW_177_Right_177 VDD VSS gf180mcu_fd_sc_mcu9t5v0__endcap
XPHY_EDGE_ROW_178_Right_178 VDD VSS gf180mcu_fd_sc_mcu9t5v0__endcap
XPHY_EDGE_ROW_179_Right_179 VDD VSS gf180mcu_fd_sc_mcu9t5v0__endcap
XPHY_EDGE_ROW_180_Right_180 VDD VSS gf180mcu_fd_sc_mcu9t5v0__endcap
XPHY_EDGE_ROW_181_Right_181 VDD VSS gf180mcu_fd_sc_mcu9t5v0__endcap
XPHY_EDGE_ROW_182_Right_182 VDD VSS gf180mcu_fd_sc_mcu9t5v0__endcap
XPHY_EDGE_ROW_183_Right_183 VDD VSS gf180mcu_fd_sc_mcu9t5v0__endcap
XPHY_EDGE_ROW_184_Right_184 VDD VSS gf180mcu_fd_sc_mcu9t5v0__endcap
XPHY_EDGE_ROW_185_Right_185 VDD VSS gf180mcu_fd_sc_mcu9t5v0__endcap
XPHY_EDGE_ROW_186_Right_186 VDD VSS gf180mcu_fd_sc_mcu9t5v0__endcap
XPHY_EDGE_ROW_187_Right_187 VDD VSS gf180mcu_fd_sc_mcu9t5v0__endcap
XPHY_EDGE_ROW_188_Right_188 VDD VSS gf180mcu_fd_sc_mcu9t5v0__endcap
XPHY_EDGE_ROW_189_Right_189 VDD VSS gf180mcu_fd_sc_mcu9t5v0__endcap
XPHY_EDGE_ROW_190_Right_190 VDD VSS gf180mcu_fd_sc_mcu9t5v0__endcap
XPHY_EDGE_ROW_191_Right_191 VDD VSS gf180mcu_fd_sc_mcu9t5v0__endcap
XPHY_EDGE_ROW_192_Right_192 VDD VSS gf180mcu_fd_sc_mcu9t5v0__endcap
XPHY_EDGE_ROW_193_Right_193 VDD VSS gf180mcu_fd_sc_mcu9t5v0__endcap
XPHY_EDGE_ROW_194_Right_194 VDD VSS gf180mcu_fd_sc_mcu9t5v0__endcap
XPHY_EDGE_ROW_195_Right_195 VDD VSS gf180mcu_fd_sc_mcu9t5v0__endcap