
* cell barrel_rotator
* pin data_in[5]
* pin data_out[5]
* pin data_in[1]
* pin data_in[3]
* pin rotate_amount[2]
* pin data_in[4]
* pin rotate_amount[0]
* pin data_in[6]
* pin data_out[2]
* pin data_out[1]
* pin data_in[2]
* pin data_out[6]
* pin data_in[7]
* pin data_in[0]
* pin rotate_amount[1]
* pin data_out[3]
* pin direction
* pin data_out[0]
* pin data_out[4]
* pin data_out[7]
.SUBCKT barrel_rotator 1 2 3 4 5 12 17 40 41 59 72 82 115 124 129 153 154 155
+ 156 157
* net 1 data_in[5]
* net 2 data_out[5]
* net 3 data_in[1]
* net 4 data_in[3]
* net 5 rotate_amount[2]
* net 12 data_in[4]
* net 17 rotate_amount[0]
* net 40 data_in[6]
* net 41 data_out[2]
* net 59 data_out[1]
* net 72 data_in[2]
* net 82 data_out[6]
* net 115 data_in[7]
* net 124 data_in[0]
* net 129 rotate_amount[1]
* net 153 data_out[3]
* net 154 direction
* net 155 data_out[0]
* net 156 data_out[4]
* net 157 data_out[7]
* cell instance $2 r0 *1 34.96,2.72
X$2 9 1 6 8 9 6 sky130_fd_sc_hd__buf_2
* cell instance $6 r0 *1 48.76,2.72
X$6 9 7 2 6 9 6 sky130_fd_sc_hd__clkbuf_1
* cell instance $9 r0 *1 56.12,29.92
X$9 9 3 6 10 9 6 sky130_fd_sc_hd__clkbuf_4
* cell instance $11 r0 *1 57.96,2.72
X$11 6 27 4 9 9 6 sky130_fd_sc_hd__dlymetal6s2s_1
* cell instance $15 r0 *1 58.88,29.92
X$15 6 5 11 9 9 6 sky130_fd_sc_hd__buf_6
* cell instance $426 m0 *1 3.22,35.36
X$426 9 12 6 14 9 6 sky130_fd_sc_hd__clkbuf_4
* cell instance $453 m0 *1 38.64,35.36
X$453 6 13 15 14 11 9 9 6 sky130_fd_sc_hd__mux2i_4
* cell instance $501 r0 *1 4.14,35.36
X$501 6 17 18 9 9 6 sky130_fd_sc_hd__buf_6
* cell instance $513 r0 *1 26.68,35.36
X$513 6 18 20 10 13 8 14 16 9 9 6 sky130_fd_sc_hd__mux4_1
* cell instance $514 r0 *1 36.34,35.36
X$514 6 16 14 13 9 21 9 6 sky130_fd_sc_hd__mux2i_2
* cell instance $522 r0 *1 44.16,35.36
X$522 6 8 19 10 11 9 9 6 sky130_fd_sc_hd__mux2i_4
* cell instance $549 m0 *1 17.02,40.8
X$549 6 16 23 9 9 6 sky130_fd_sc_hd__buf_6
* cell instance $551 m0 *1 23,40.8
X$551 6 18 24 9 9 6 sky130_fd_sc_hd__buf_6
* cell instance $556 m0 *1 32.2,40.8
X$556 6 23 10 8 9 94 9 6 sky130_fd_sc_hd__mux2i_2
* cell instance $558 m0 *1 39.1,40.8
X$558 6 24 65 22 10 25 8 23 9 9 6 sky130_fd_sc_hd__mux4_1
* cell instance $559 m0 *1 48.76,40.8
X$559 9 8 16 26 6 9 6 sky130_fd_sc_hd__nor2b_1
* cell instance $560 m0 *1 51.06,40.8
X$560 6 11 16 9 9 6 sky130_fd_sc_hd__buf_6
* cell instance $564 m0 *1 57.04,40.8
X$564 9 27 6 28 9 6 sky130_fd_sc_hd__clkbuf_4
* cell instance $587 r0 *1 20.24,40.8
X$587 6 36 13 10 18 9 9 6 sky130_fd_sc_hd__mux2_1
* cell instance $589 r0 *1 24.84,40.8
X$589 6 31 25 8 24 9 9 6 sky130_fd_sc_hd__mux2i_1
* cell instance $593 r0 *1 31.74,40.8
X$593 6 43 25 30 24 9 9 6 sky130_fd_sc_hd__mux2i_1
* cell instance $594 r0 *1 35.42,40.8
X$594 9 28 16 24 39 6 9 6 sky130_fd_sc_hd__nor3b_1
* cell instance $600 r0 *1 44.16,40.8
X$600 6 25 37 22 11 9 9 6 sky130_fd_sc_hd__mux2i_4
* cell instance $603 r0 *1 54.74,40.8
X$603 6 30 29 27 11 9 9 6 sky130_fd_sc_hd__mux2i_4
* cell instance $625 m0 *1 5.06,46.24
X$625 9 49 41 6 9 6 sky130_fd_sc_hd__clkbuf_1
* cell instance $629 m0 *1 12.88,46.24
X$629 6 18 51 28 14 30 13 16 9 9 6 sky130_fd_sc_hd__mux4_1
* cell instance $630 m0 *1 22.54,46.24
X$630 9 10 16 24 38 6 9 6 sky130_fd_sc_hd__nor3b_1
* cell instance $631 m0 *1 25.3,46.24
X$631 9 31 23 32 38 6 33 9 6 sky130_fd_sc_hd__a211oi_1
* cell instance $636 m0 *1 30.82,46.24
X$636 9 18 6 9 34 6 sky130_fd_sc_hd__inv_2
* cell instance $637 m0 *1 32.2,46.24
X$637 9 43 23 32 39 6 46 9 6 sky130_fd_sc_hd__a211oi_1
* cell instance $638 m0 *1 34.96,46.24
X$638 9 33 76 52 47 9 53 6 6 sky130_fd_sc_hd__a211o_1
* cell instance $639 m0 *1 38.18,46.24
X$639 9 35 34 15 6 9 47 6 sky130_fd_sc_hd__a21oi_1
* cell instance $640 m0 *1 40.02,46.24
X$640 6 34 50 29 37 26 15 35 9 9 6 sky130_fd_sc_hd__mux4_1
* cell instance $641 m0 *1 49.68,46.24
X$641 9 8 42 48 6 9 6 sky130_fd_sc_hd__nor2_1
* cell instance $659 r0 *1 1.38,46.24
X$659 9 40 6 25 9 6 sky130_fd_sc_hd__buf_2
* cell instance $666 r0 *1 15.64,46.24
X$666 6 18 61 9 9 6 sky130_fd_sc_hd__buf_6
* cell instance $668 r0 *1 20.24,46.24
X$668 9 23 36 14 54 9 67 6 6 sky130_fd_sc_hd__a22oi_1
* cell instance $669 r0 *1 23,46.24
X$669 9 32 23 62 9 6 6 sky130_fd_sc_hd__nand2_1
* cell instance $671 r0 *1 24.84,46.24
X$671 9 31 56 62 9 6 69 6 sky130_fd_sc_hd__o21ai_1
* cell instance $673 r0 *1 27.14,46.24
X$673 9 16 24 54 6 9 6 sky130_fd_sc_hd__nor2b_1
* cell instance $674 r0 *1 29.44,46.24
X$674 6 49 22 42 55 53 9 9 6 sky130_fd_sc_hd__o211a_1
* cell instance $675 r0 *1 33.12,46.24
X$675 9 56 46 45 71 44 55 6 9 6 sky130_fd_sc_hd__a311o_1
* cell instance $676 r0 *1 36.8,46.24
X$676 9 34 21 44 9 6 6 sky130_fd_sc_hd__nand2_1
* cell instance $678 r0 *1 38.64,46.24
X$678 9 61 19 71 9 6 6 sky130_fd_sc_hd__nand2_1
* cell instance $685 r0 *1 46,46.24
X$685 9 34 29 70 9 6 6 sky130_fd_sc_hd__nand2_1
* cell instance $686 r0 *1 47.38,46.24
X$686 6 7 48 60 56 63 9 9 6 sky130_fd_sc_hd__a211oi_2
* cell instance $687 r0 *1 51.98,46.24
X$687 9 10 16 68 6 9 6 sky130_fd_sc_hd__nor2b_1
* cell instance $689 r0 *1 54.74,46.24
X$689 9 56 50 10 42 9 57 6 6 sky130_fd_sc_hd__o2bb2ai_1
* cell instance $691 r0 *1 58.88,46.24
X$691 9 85 57 58 6 9 6 sky130_fd_sc_hd__nor2_1
* cell instance $702 r0 *1 82.34,46.24
X$702 9 58 59 6 9 6 sky130_fd_sc_hd__clkbuf_1
* cell instance $719 m0 *1 6.44,51.68
X$719 9 72 6 22 9 6 sky130_fd_sc_hd__buf_2
* cell instance $723 m0 *1 19.32,51.68
X$723 9 84 22 97 9 6 6 sky130_fd_sc_hd__nand2_1
* cell instance $724 m0 *1 20.7,51.68
X$724 6 63 86 67 32 62 73 9 9 6 sky130_fd_sc_hd__o221a_1
* cell instance $725 m0 *1 24.84,51.68
X$725 6 73 30 25 61 9 9 6 sky130_fd_sc_hd__mux2i_1
* cell instance $728 m0 *1 29.44,51.68
X$728 9 24 6 80 9 6 sky130_fd_sc_hd__buf_2
* cell instance $729 m0 *1 31.28,51.68
X$729 9 32 23 92 6 9 74 6 sky130_fd_sc_hd__a21oi_1
* cell instance $730 m0 *1 33.12,51.68
X$730 9 74 71 76 51 6 103 9 6 sky130_fd_sc_hd__a211oi_1
* cell instance $731 m0 *1 35.88,51.68
X$731 9 74 52 56 20 6 81 9 6 sky130_fd_sc_hd__a211oi_1
* cell instance $732 m0 *1 38.64,51.68
X$732 9 80 29 52 9 6 6 sky130_fd_sc_hd__nand2_1
* cell instance $733 m0 *1 40.02,51.68
X$733 9 24 84 75 6 9 6 sky130_fd_sc_hd__nand2b_1
* cell instance $735 m0 *1 43.24,51.68
X$735 6 78 22 25 64 9 9 6 sky130_fd_sc_hd__mux2i_1
* cell instance $736 m0 *1 46.92,51.68
X$736 9 70 87 45 79 6 9 60 6 sky130_fd_sc_hd__a31oi_1
* cell instance $737 m0 *1 49.22,51.68
X$737 9 76 78 26 77 75 66 9 6 6 sky130_fd_sc_hd__o221ai_1
* cell instance $739 m0 *1 52.9,51.68
X$739 9 16 6 64 9 6 sky130_fd_sc_hd__buf_2
* cell instance $757 r0 *1 3.22,51.68
X$757 9 83 82 6 9 6 sky130_fd_sc_hd__clkbuf_1
* cell instance $769 r0 *1 17.02,51.68
X$769 6 89 61 86 23 84 97 9 9 6 sky130_fd_sc_hd__a221o_1
* cell instance $770 r0 *1 20.7,51.68
X$770 9 24 28 89 6 9 6 sky130_fd_sc_hd__nor2_1
* cell instance $772 r0 *1 23,51.68
X$772 9 22 84 99 6 9 6 sky130_fd_sc_hd__nor2b_1
* cell instance $773 r0 *1 25.3,51.68
X$773 9 32 61 10 100 9 6 6 sky130_fd_sc_hd__nand3_1
* cell instance $775 r0 *1 28.06,51.68
X$775 9 64 22 80 102 6 9 6 sky130_fd_sc_hd__nand3b_1
* cell instance $777 r0 *1 31.74,51.68
X$777 9 24 22 92 6 9 6 sky130_fd_sc_hd__nor2_1
* cell instance $780 r0 *1 35.42,51.68
X$780 6 83 103 81 93 106 37 9 9 6 sky130_fd_sc_hd__a2111oi_2
* cell instance $781 r0 *1 40.94,51.68
X$781 9 75 88 105 6 9 93 6 sky130_fd_sc_hd__a21oi_1
* cell instance $786 r0 *1 43.24,51.68
X$786 9 56 19 88 9 6 6 sky130_fd_sc_hd__nand2_1
* cell instance $787 r0 *1 44.62,51.68
X$787 6 104 94 15 80 9 9 6 sky130_fd_sc_hd__mux2i_1
* cell instance $788 r0 *1 48.3,51.68
X$788 9 80 15 87 9 6 6 sky130_fd_sc_hd__nand2_1
* cell instance $790 r0 *1 50.14,51.68
X$790 9 80 21 101 9 6 6 sky130_fd_sc_hd__nand2_1
* cell instance $791 r0 *1 51.52,51.68
X$791 9 76 68 75 37 77 79 9 6 6 sky130_fd_sc_hd__o221ai_1
* cell instance $794 r0 *1 56.12,51.68
X$794 9 28 9 6 98 6 sky130_fd_sc_hd__inv_1
* cell instance $796 r0 *1 57.96,51.68
X$796 9 101 96 45 66 6 9 85 6 sky130_fd_sc_hd__a31oi_1
* cell instance $821 m0 *1 15.64,57.12
X$821 6 90 13 30 61 9 9 6 sky130_fd_sc_hd__mux2i_1
* cell instance $823 m0 *1 19.78,57.12
X$823 6 108 107 90 23 9 9 6 sky130_fd_sc_hd__mux2i_1
* cell instance $825 m0 *1 23.92,57.12
X$825 9 80 28 107 9 6 6 sky130_fd_sc_hd__nand2_1
* cell instance $826 m0 *1 25.3,57.12
X$826 9 61 99 100 9 119 6 6 sky130_fd_sc_hd__o21ai_0
* cell instance $829 m0 *1 29.44,57.12
X$829 9 109 73 102 35 91 9 6 6 sky130_fd_sc_hd__o211ai_1
* cell instance $830 m0 *1 32.2,57.12
X$830 9 64 43 113 9 6 6 sky130_fd_sc_hd__nand2_1
* cell instance $832 m0 *1 34.04,57.12
X$832 6 6 106 9 32 61 9 sky130_fd_sc_hd__nor2_2
* cell instance $836 m0 *1 39.56,57.12
X$836 9 61 84 77 6 9 6 sky130_fd_sc_hd__or2_1
* cell instance $837 m0 *1 41.86,57.12
X$837 9 76 29 105 9 6 6 sky130_fd_sc_hd__nand2_1
* cell instance $840 m0 *1 44.62,57.12
X$840 9 35 91 104 9 6 126 6 sky130_fd_sc_hd__o21ai_1
* cell instance $842 m0 *1 46.92,57.12
X$842 9 28 23 111 6 9 6 sky130_fd_sc_hd__nor2b_1
* cell instance $844 m0 *1 49.68,57.12
X$844 9 56 111 75 37 77 114 9 6 6 sky130_fd_sc_hd__o221ai_1
* cell instance $845 m0 *1 52.9,57.12
X$845 9 64 77 112 6 9 6 sky130_fd_sc_hd__nor2_1
* cell instance $847 m0 *1 54.74,57.12
X$847 9 80 64 30 6 9 95 6 sky130_fd_sc_hd__a21oi_1
* cell instance $849 m0 *1 57.04,57.12
X$849 9 64 98 95 9 96 6 6 sky130_fd_sc_hd__o21ai_0
* cell instance $866 r0 *1 4.14,57.12
X$866 9 115 6 30 9 6 sky130_fd_sc_hd__buf_2
* cell instance $876 r0 *1 21.16,57.12
X$876 9 84 6 32 9 6 sky130_fd_sc_hd__buf_2
* cell instance $877 r0 *1 23,57.12
X$877 6 69 140 35 108 119 109 9 9 6 sky130_fd_sc_hd__a221oi_2
* cell instance $878 r0 *1 28.52,57.12
X$878 9 64 9 6 109 6 sky130_fd_sc_hd__inv_1
* cell instance $880 r0 *1 30.36,57.12
X$880 9 28 61 110 6 9 6 sky130_fd_sc_hd__nor2b_1
* cell instance $881 r0 *1 32.66,57.12
X$881 9 92 110 109 9 121 6 6 sky130_fd_sc_hd__o21ai_0
* cell instance $882 r0 *1 34.5,57.12
X$882 9 109 13 106 9 122 6 6 sky130_fd_sc_hd__o21ai_0
* cell instance $883 r0 *1 36.34,57.12
X$883 9 80 76 94 132 9 6 6 sky130_fd_sc_hd__nand3_1
* cell instance $886 r0 *1 39.56,57.12
X$886 9 84 34 29 123 9 6 6 sky130_fd_sc_hd__or3_1
* cell instance $893 r0 *1 44.16,57.12
X$893 9 80 37 147 6 9 6 sky130_fd_sc_hd__nor2_1
* cell instance $897 r0 *1 53.82,57.12
X$897 9 80 37 117 9 6 6 sky130_fd_sc_hd__nand2_1
* cell instance $898 r0 *1 55.2,57.12
X$898 9 56 28 112 6 9 120 6 sky130_fd_sc_hd__a21oi_1
* cell instance $899 r0 *1 57.04,57.12
X$899 9 45 95 128 6 9 6 sky130_fd_sc_hd__nor2_1
* cell instance $918 m0 *1 1.38,62.56
X$918 9 124 6 13 9 6 sky130_fd_sc_hd__buf_2
* cell instance $923 m0 *1 11.96,62.56
X$923 9 129 9 6 84 6 sky130_fd_sc_hd__clkbuf_2
* cell instance $928 m0 *1 23.92,62.56
X$928 9 32 6 45 9 6 sky130_fd_sc_hd__buf_2
* cell instance $930 m0 *1 26.22,62.56
X$930 9 32 6 9 35 6 sky130_fd_sc_hd__inv_2
* cell instance $935 m0 *1 29.9,62.56
X$935 9 14 56 64 32 116 6 9 6 sky130_fd_sc_hd__o22ai_1
* cell instance $936 m0 *1 32.2,62.56
X$936 9 143 132 121 113 45 131 6 9 6 sky130_fd_sc_hd__a32oi_1
* cell instance $937 m0 *1 35.42,62.56
X$937 6 6 106 42 109 9 9 sky130_fd_sc_hd__nand2_2
* cell instance $938 m0 *1 37.72,62.56
X$938 6 136 35 125 123 133 9 9 6 sky130_fd_sc_hd__o211a_1
* cell instance $939 m0 *1 41.4,62.56
X$939 6 125 37 19 34 9 9 6 sky130_fd_sc_hd__mux2_1
* cell instance $940 m0 *1 45.54,62.56
X$940 9 34 19 35 9 135 6 6 sky130_fd_sc_hd__o21ai_0
* cell instance $941 m0 *1 47.38,62.56
X$941 9 34 19 118 9 6 6 sky130_fd_sc_hd__nand2_1
* cell instance $943 m0 *1 49.68,62.56
X$943 9 118 101 45 114 6 9 134 6 sky130_fd_sc_hd__a31oi_1
* cell instance $944 m0 *1 51.98,62.56
X$944 6 126 150 130 127 120 9 9 6 sky130_fd_sc_hd__a22oi_2
* cell instance $946 m0 *1 57.04,62.56
X$946 9 128 101 118 117 45 127 6 9 6 sky130_fd_sc_hd__a32oi_1
* cell instance $971 r0 *1 23.92,62.56
X$971 6 137 28 14 61 9 9 6 sky130_fd_sc_hd__mux2i_1
* cell instance $972 r0 *1 27.6,62.56
X$972 6 139 137 142 45 64 54 9 9 6 sky130_fd_sc_hd__a221oi_1
* cell instance $973 r0 *1 30.82,62.56
X$973 9 34 116 45 76 9 143 6 6 sky130_fd_sc_hd__a22oi_1
* cell instance $974 r0 *1 33.58,62.56
X$974 9 42 142 131 136 144 6 9 6 sky130_fd_sc_hd__o22ai_1
* cell instance $976 r0 *1 37.72,62.56
X$976 9 14 42 146 6 9 6 sky130_fd_sc_hd__nor2_1
* cell instance $977 r0 *1 39.1,62.56
X$977 9 106 14 64 76 6 9 133 6 sky130_fd_sc_hd__a31oi_1
* cell instance $978 r0 *1 41.4,62.56
X$978 9 34 29 148 6 9 6 sky130_fd_sc_hd__nor2_1
* cell instance $983 r0 *1 43.24,62.56
X$983 9 35 147 148 135 9 6 138 6 sky130_fd_sc_hd__o31ai_1
* cell instance $985 r0 *1 47.84,62.56
X$985 9 65 45 56 139 6 149 9 6 sky130_fd_sc_hd__a211oi_1
* cell instance $987 r0 *1 51.06,62.56
X$987 9 151 134 149 152 6 9 6 sky130_fd_sc_hd__nor3_1
* cell instance $988 r0 *1 52.9,62.56
X$988 9 76 28 112 6 9 150 6 sky130_fd_sc_hd__a21oi_1
* cell instance $990 r0 *1 55.2,62.56
X$990 9 30 42 151 6 9 6 sky130_fd_sc_hd__nor2_1
* cell instance $1021 m0 *1 30.82,68
X$1021 9 13 9 6 142 6 sky130_fd_sc_hd__inv_1
* cell instance $1023 m0 *1 32.66,68
X$1023 6 145 138 122 76 140 146 9 9 6 sky130_fd_sc_hd__a311oi_2
* cell instance $1029 m0 *1 51.98,68
X$1029 9 141 6 9 76 6 sky130_fd_sc_hd__inv_2
* cell instance $1030 m0 *1 53.36,68
X$1030 9 141 6 56 9 6 sky130_fd_sc_hd__clkbuf_4
* cell instance $1359 r0 *1 52.44,89.76
X$1359 9 130 153 6 9 6 sky130_fd_sc_hd__clkbuf_1
* cell instance $1413 m0 *1 34.5,95.2
X$1413 9 144 155 6 9 6 sky130_fd_sc_hd__clkbuf_1
* cell instance $1416 m0 *1 38.64,95.2
X$1416 9 145 156 6 9 6 sky130_fd_sc_hd__clkbuf_1
* cell instance $1425 m0 *1 51.06,95.2
X$1425 9 152 157 6 9 6 sky130_fd_sc_hd__clkbuf_1
* cell instance $1428 m0 *1 53.82,95.2
X$1428 9 154 141 6 9 6 sky130_fd_sc_hd__clkbuf_1
.ENDS barrel_rotator

* cell sky130_fd_sc_hd__dlymetal6s2s_1
* pin VGND
* pin X
* pin A
* pin VPWR
* pin VPB
* pin 
.SUBCKT sky130_fd_sc_hd__dlymetal6s2s_1 1 3 8 9 10 11
* net 1 VGND
* net 3 X
* net 8 A
* net 9 VPWR
* net 10 VPB
* device instance $1 r0 *1 3.655,2.275 pfet_01v8_hvt
M$1 6 5 9 10 pfet_01v8_hvt L=150000U W=420000U AS=140750000000P
+ AD=109200000000P PS=1325000U PD=1360000U
* device instance $2 r0 *1 4.13,1.985 pfet_01v8_hvt
M$2 7 6 9 10 pfet_01v8_hvt L=150000U W=1000000U AS=140750000000P
+ AD=260000000000P PS=1325000U PD=2520000U
* device instance $3 r0 *1 2.24,2.275 pfet_01v8_hvt
M$3 4 3 9 10 pfet_01v8_hvt L=150000U W=420000U AS=140750000000P
+ AD=109200000000P PS=1325000U PD=1360000U
* device instance $4 r0 *1 2.715,1.985 pfet_01v8_hvt
M$4 5 4 9 10 pfet_01v8_hvt L=150000U W=1000000U AS=140750000000P
+ AD=260000000000P PS=1325000U PD=2520000U
* device instance $5 r0 *1 0.645,2.275 pfet_01v8_hvt
M$5 2 8 9 10 pfet_01v8_hvt L=150000U W=420000U AS=140750000000P
+ AD=109200000000P PS=1325000U PD=1360000U
* device instance $6 r0 *1 1.12,1.985 pfet_01v8_hvt
M$6 3 2 9 10 pfet_01v8_hvt L=150000U W=1000000U AS=140750000000P
+ AD=260000000000P PS=1325000U PD=2520000U
* device instance $7 r0 *1 3.655,0.445 nfet_01v8
M$7 1 5 6 11 nfet_01v8 L=150000U W=420000U AS=109200000000P AD=97000000000P
+ PS=1360000U PD=975000U
* device instance $8 r0 *1 4.13,0.56 nfet_01v8
M$8 7 6 1 11 nfet_01v8 L=150000U W=650000U AS=97000000000P AD=169000000000P
+ PS=975000U PD=1820000U
* device instance $9 r0 *1 0.645,0.445 nfet_01v8
M$9 1 8 2 11 nfet_01v8 L=150000U W=420000U AS=109200000000P AD=97000000000P
+ PS=1360000U PD=975000U
* device instance $10 r0 *1 1.12,0.56 nfet_01v8
M$10 3 2 1 11 nfet_01v8 L=150000U W=650000U AS=97000000000P AD=169000000000P
+ PS=975000U PD=1820000U
* device instance $11 r0 *1 2.24,0.445 nfet_01v8
M$11 1 3 4 11 nfet_01v8 L=150000U W=420000U AS=109200000000P AD=97000000000P
+ PS=1360000U PD=975000U
* device instance $12 r0 *1 2.715,0.56 nfet_01v8
M$12 5 4 1 11 nfet_01v8 L=150000U W=650000U AS=97000000000P AD=169000000000P
+ PS=975000U PD=1820000U
.ENDS sky130_fd_sc_hd__dlymetal6s2s_1

* cell sky130_fd_sc_hd__a211o_1
* pin VPB
* pin B1
* pin C1
* pin A1
* pin A2
* pin VPWR
* pin X
* pin VGND
* pin 
.SUBCKT sky130_fd_sc_hd__a211o_1 1 2 3 4 5 7 8 9 11
* net 1 VPB
* net 2 B1
* net 3 C1
* net 4 A1
* net 5 A2
* net 7 VPWR
* net 8 X
* net 9 VGND
* device instance $1 r0 *1 1.425,1.985 pfet_01v8_hvt
M$1 7 5 10 1 pfet_01v8_hvt L=150000U W=1000000U AS=265000000000P
+ AD=140000000000P PS=2530000U PD=1280000U
* device instance $2 r0 *1 1.855,1.985 pfet_01v8_hvt
M$2 10 4 7 1 pfet_01v8_hvt L=150000U W=1000000U AS=140000000000P
+ AD=140000000000P PS=1280000U PD=1280000U
* device instance $3 r0 *1 2.285,1.985 pfet_01v8_hvt
M$3 12 2 10 1 pfet_01v8_hvt L=150000U W=1000000U AS=140000000000P
+ AD=155000000000P PS=1280000U PD=1310000U
* device instance $4 r0 *1 2.745,1.985 pfet_01v8_hvt
M$4 6 3 12 1 pfet_01v8_hvt L=150000U W=1000000U AS=155000000000P
+ AD=265000000000P PS=1310000U PD=2530000U
* device instance $5 r0 *1 0.475,1.985 pfet_01v8_hvt
M$5 7 6 8 1 pfet_01v8_hvt L=150000U W=1000000U AS=265000000000P
+ AD=265000000000P PS=2530000U PD=2530000U
* device instance $6 r0 *1 0.475,0.56 nfet_01v8
M$6 9 6 8 11 nfet_01v8 L=150000U W=650000U AS=172250000000P AD=260000000000P
+ PS=1830000U PD=1450000U
* device instance $7 r0 *1 1.425,0.56 nfet_01v8
M$7 13 5 9 11 nfet_01v8 L=150000U W=650000U AS=260000000000P AD=91000000000P
+ PS=1450000U PD=930000U
* device instance $8 r0 *1 1.855,0.56 nfet_01v8
M$8 6 4 13 11 nfet_01v8 L=150000U W=650000U AS=91000000000P AD=91000000000P
+ PS=930000U PD=930000U
* device instance $9 r0 *1 2.285,0.56 nfet_01v8
M$9 9 2 6 11 nfet_01v8 L=150000U W=650000U AS=91000000000P AD=100750000000P
+ PS=930000U PD=960000U
* device instance $10 r0 *1 2.745,0.56 nfet_01v8
M$10 6 3 9 11 nfet_01v8 L=150000U W=650000U AS=100750000000P AD=172250000000P
+ PS=960000U PD=1830000U
.ENDS sky130_fd_sc_hd__a211o_1

* cell sky130_fd_sc_hd__mux2i_2
* pin VGND
* pin S
* pin A0
* pin A1
* pin VPWR
* pin Y
* pin VPB
* pin 
.SUBCKT sky130_fd_sc_hd__mux2i_2 1 2 6 7 8 11 12 13
* net 1 VGND
* net 2 S
* net 6 A0
* net 7 A1
* net 8 VPWR
* net 11 Y
* net 12 VPB
* device instance $1 r0 *1 3.09,1.985 pfet_01v8_hvt
M$1 9 6 11 12 pfet_01v8_hvt L=150000U W=2000000U AS=395000000000P
+ AD=290000000000P PS=3790000U PD=2580000U
* device instance $3 r0 *1 3.97,1.985 pfet_01v8_hvt
M$3 10 7 11 12 pfet_01v8_hvt L=150000U W=2000000U AS=292500000000P
+ AD=592500000000P PS=2585000U PD=4185000U
* device instance $5 r0 *1 0.47,1.985 pfet_01v8_hvt
M$5 8 2 3 12 pfet_01v8_hvt L=150000U W=1000000U AS=260000000000P
+ AD=135000000000P PS=2520000U PD=1270000U
* device instance $6 r0 *1 0.89,1.985 pfet_01v8_hvt
M$6 9 2 8 12 pfet_01v8_hvt L=150000U W=2000000U AS=270000000000P
+ AD=270000000000P PS=2540000U PD=2540000U
* device instance $8 r0 *1 1.73,1.985 pfet_01v8_hvt
M$8 10 3 8 12 pfet_01v8_hvt L=150000U W=2000000U AS=270000000000P
+ AD=395000000000P PS=2540000U PD=3790000U
* device instance $10 r0 *1 3.09,0.56 nfet_01v8
M$10 5 6 11 13 nfet_01v8 L=150000U W=1300000U AS=256750000000P AD=188500000000P
+ PS=2740000U PD=1880000U
* device instance $12 r0 *1 3.97,0.56 nfet_01v8
M$12 4 7 11 13 nfet_01v8 L=150000U W=1300000U AS=190125000000P AD=385125000000P
+ PS=1885000U PD=3135000U
* device instance $14 r0 *1 0.47,0.56 nfet_01v8
M$14 1 2 3 13 nfet_01v8 L=150000U W=650000U AS=169000000000P AD=87750000000P
+ PS=1820000U PD=920000U
* device instance $15 r0 *1 0.89,0.56 nfet_01v8
M$15 4 2 1 13 nfet_01v8 L=150000U W=1300000U AS=175500000000P AD=175500000000P
+ PS=1840000U PD=1840000U
* device instance $17 r0 *1 1.73,0.56 nfet_01v8
M$17 5 3 1 13 nfet_01v8 L=150000U W=1300000U AS=175500000000P AD=256750000000P
+ PS=1840000U PD=2740000U
.ENDS sky130_fd_sc_hd__mux2i_2

* cell sky130_fd_sc_hd__nor3b_1
* pin VPB
* pin B
* pin A
* pin C_N
* pin Y
* pin VGND
* pin VPWR
* pin 
.SUBCKT sky130_fd_sc_hd__nor3b_1 1 2 3 4 5 6 7 9
* net 1 VPB
* net 2 B
* net 3 A
* net 4 C_N
* net 5 Y
* net 6 VGND
* net 7 VPWR
* device instance $1 r0 *1 2.055,1.86 pfet_01v8_hvt
M$1 8 4 7 1 pfet_01v8_hvt L=150000U W=420000U AS=145750000000P AD=109200000000P
+ PS=1335000U PD=1360000U
* device instance $2 r0 *1 0.73,1.985 pfet_01v8_hvt
M$2 11 8 5 1 pfet_01v8_hvt L=150000U W=1000000U AS=320000000000P
+ AD=135000000000P PS=2640000U PD=1270000U
* device instance $3 r0 *1 1.15,1.985 pfet_01v8_hvt
M$3 10 2 11 1 pfet_01v8_hvt L=150000U W=1000000U AS=135000000000P
+ AD=135000000000P PS=1270000U PD=1270000U
* device instance $4 r0 *1 1.57,1.985 pfet_01v8_hvt
M$4 7 3 10 1 pfet_01v8_hvt L=150000U W=1000000U AS=135000000000P
+ AD=145750000000P PS=1270000U PD=1335000U
* device instance $5 r0 *1 0.73,0.56 nfet_01v8
M$5 6 8 5 9 nfet_01v8 L=150000U W=650000U AS=221000000000P AD=87750000000P
+ PS=1980000U PD=920000U
* device instance $6 r0 *1 1.15,0.56 nfet_01v8
M$6 5 2 6 9 nfet_01v8 L=150000U W=650000U AS=87750000000P AD=87750000000P
+ PS=920000U PD=920000U
* device instance $7 r0 *1 1.57,0.56 nfet_01v8
M$7 6 3 5 9 nfet_01v8 L=150000U W=650000U AS=87750000000P AD=100250000000P
+ PS=920000U PD=985000U
* device instance $8 r0 *1 2.055,0.675 nfet_01v8
M$8 8 4 6 9 nfet_01v8 L=150000U W=420000U AS=100250000000P AD=109200000000P
+ PS=985000U PD=1360000U
.ENDS sky130_fd_sc_hd__nor3b_1

* cell sky130_fd_sc_hd__a221oi_1
* pin VGND
* pin Y
* pin B1
* pin A1
* pin C1
* pin B2
* pin A2
* pin VPB
* pin VPWR
* pin 
.SUBCKT sky130_fd_sc_hd__a221oi_1 1 2 3 4 5 6 7 10 11 14
* net 1 VGND
* net 2 Y
* net 3 B1
* net 4 A1
* net 5 C1
* net 6 B2
* net 7 A2
* net 10 VPB
* net 11 VPWR
* device instance $1 r0 *1 2.25,1.985 pfet_01v8_hvt
M$1 13 4 11 10 pfet_01v8_hvt L=150000U W=1000000U AS=260000000000P
+ AD=152500000000P PS=2520000U PD=1305000U
* device instance $2 r0 *1 2.705,1.985 pfet_01v8_hvt
M$2 11 7 13 10 pfet_01v8_hvt L=150000U W=1000000U AS=152500000000P
+ AD=305000000000P PS=1305000U PD=2610000U
* device instance $3 r0 *1 0.47,1.985 pfet_01v8_hvt
M$3 12 5 2 10 pfet_01v8_hvt L=150000U W=1000000U AS=260000000000P
+ AD=135000000000P PS=2520000U PD=1270000U
* device instance $4 r0 *1 0.89,1.985 pfet_01v8_hvt
M$4 13 6 12 10 pfet_01v8_hvt L=150000U W=1000000U AS=135000000000P
+ AD=135000000000P PS=1270000U PD=1270000U
* device instance $5 r0 *1 1.31,1.985 pfet_01v8_hvt
M$5 12 3 13 10 pfet_01v8_hvt L=150000U W=1000000U AS=135000000000P
+ AD=260000000000P PS=1270000U PD=2520000U
* device instance $6 r0 *1 2.25,0.56 nfet_01v8
M$6 9 4 2 14 nfet_01v8 L=150000U W=650000U AS=169000000000P AD=99125000000P
+ PS=1820000U PD=955000U
* device instance $7 r0 *1 2.705,0.56 nfet_01v8
M$7 1 7 9 14 nfet_01v8 L=150000U W=650000U AS=99125000000P AD=198250000000P
+ PS=955000U PD=1910000U
* device instance $8 r0 *1 0.47,0.56 nfet_01v8
M$8 1 5 2 14 nfet_01v8 L=150000U W=650000U AS=169000000000P AD=105625000000P
+ PS=1820000U PD=975000U
* device instance $9 r0 *1 0.945,0.56 nfet_01v8
M$9 8 6 1 14 nfet_01v8 L=150000U W=650000U AS=105625000000P AD=69875000000P
+ PS=975000U PD=865000U
* device instance $10 r0 *1 1.31,0.56 nfet_01v8
M$10 2 3 8 14 nfet_01v8 L=150000U W=650000U AS=69875000000P AD=169000000000P
+ PS=865000U PD=1820000U
.ENDS sky130_fd_sc_hd__a221oi_1

* cell sky130_fd_sc_hd__a2111oi_2
* pin VGND
* pin Y
* pin C1
* pin D1
* pin B1
* pin A1
* pin A2
* pin VPB
* pin VPWR
* pin 
.SUBCKT sky130_fd_sc_hd__a2111oi_2 1 2 3 4 5 6 7 10 11 16
* net 1 VGND
* net 2 Y
* net 3 C1
* net 4 D1
* net 5 B1
* net 6 A1
* net 7 A2
* net 10 VPB
* net 11 VPWR
* device instance $1 r0 *1 3.64,1.985 pfet_01v8_hvt
M$1 11 6 13 10 pfet_01v8_hvt L=150000U W=2000000U AS=420000000000P
+ AD=475000000000P PS=3840000U PD=3950000U
* device instance $2 r0 *1 4.07,1.985 pfet_01v8_hvt
M$2 13 7 11 10 pfet_01v8_hvt L=150000U W=2000000U AS=280000000000P
+ AD=300000000000P PS=2560000U PD=2600000U
* device instance $5 r0 *1 0.5,1.985 pfet_01v8_hvt
M$5 14 3 12 10 pfet_01v8_hvt L=150000U W=1000000U AS=285000000000P
+ AD=140000000000P PS=2570000U PD=1280000U
* device instance $6 r0 *1 0.93,1.985 pfet_01v8_hvt
M$6 2 4 14 10 pfet_01v8_hvt L=150000U W=1000000U AS=140000000000P
+ AD=140000000000P PS=1280000U PD=1280000U
* device instance $7 r0 *1 1.36,1.985 pfet_01v8_hvt
M$7 15 4 2 10 pfet_01v8_hvt L=150000U W=1000000U AS=140000000000P
+ AD=140000000000P PS=1280000U PD=1280000U
* device instance $8 r0 *1 1.79,1.985 pfet_01v8_hvt
M$8 12 3 15 10 pfet_01v8_hvt L=150000U W=1000000U AS=140000000000P
+ AD=160000000000P PS=1280000U PD=1320000U
* device instance $9 r0 *1 2.26,1.985 pfet_01v8_hvt
M$9 13 5 12 10 pfet_01v8_hvt L=150000U W=2000000U AS=300000000000P
+ AD=400000000000P PS=2600000U PD=3800000U
* device instance $11 r0 *1 0.5,0.56 nfet_01v8
M$11 1 3 2 16 nfet_01v8 L=150000U W=1300000U AS=312000000000P AD=196625000000P
+ PS=2910000U PD=1905000U
* device instance $12 r0 *1 0.93,0.56 nfet_01v8
M$12 2 4 1 16 nfet_01v8 L=150000U W=1300000U AS=182000000000P AD=217750000000P
+ PS=1860000U PD=1970000U
* device instance $15 r0 *1 2.375,0.56 nfet_01v8
M$15 1 5 2 16 nfet_01v8 L=150000U W=1300000U AS=232375000000P AD=217750000000P
+ PS=2015000U PD=1970000U
* device instance $17 r0 *1 3.345,0.56 nfet_01v8
M$17 9 6 2 16 nfet_01v8 L=150000U W=650000U AS=91000000000P AD=178750000000P
+ PS=930000U PD=1200000U
* device instance $18 r0 *1 4.045,0.56 nfet_01v8
M$18 1 7 9 16 nfet_01v8 L=150000U W=650000U AS=178750000000P AD=112125000000P
+ PS=1200000U PD=995000U
* device instance $19 r0 *1 4.54,0.56 nfet_01v8
M$19 8 7 1 16 nfet_01v8 L=150000U W=650000U AS=112125000000P AD=91000000000P
+ PS=995000U PD=930000U
* device instance $20 r0 *1 4.97,0.56 nfet_01v8
M$20 2 6 8 16 nfet_01v8 L=150000U W=650000U AS=91000000000P AD=172250000000P
+ PS=930000U PD=1830000U
.ENDS sky130_fd_sc_hd__a2111oi_2

* cell sky130_fd_sc_hd__a311oi_2
* pin VGND
* pin Y
* pin A3
* pin A2
* pin A1
* pin B1
* pin C1
* pin VPWR
* pin VPB
* pin 
.SUBCKT sky130_fd_sc_hd__a311oi_2 1 4 5 6 7 8 9 10 13 14
* net 1 VGND
* net 4 Y
* net 5 A3
* net 6 A2
* net 7 A1
* net 8 B1
* net 9 C1
* net 10 VPWR
* net 13 VPB
* device instance $1 r0 *1 3.54,1.985 pfet_01v8_hvt
M$1 11 8 12 13 pfet_01v8_hvt L=150000U W=2000000U AS=395000000000P
+ AD=395000000000P PS=3790000U PD=2790000U
* device instance $3 r0 *1 4.63,1.985 pfet_01v8_hvt
M$3 4 9 12 13 pfet_01v8_hvt L=150000U W=2000000U AS=395000000000P
+ AD=395000000000P PS=2790000U PD=3790000U
* device instance $5 r0 *1 0.47,1.985 pfet_01v8_hvt
M$5 11 5 10 13 pfet_01v8_hvt L=150000U W=2000000U AS=395000000000P
+ AD=270000000000P PS=3790000U PD=2540000U
* device instance $7 r0 *1 1.31,1.985 pfet_01v8_hvt
M$7 11 6 10 13 pfet_01v8_hvt L=150000U W=2000000U AS=275000000000P
+ AD=285000000000P PS=2550000U PD=2570000U
* device instance $9 r0 *1 2.18,1.985 pfet_01v8_hvt
M$9 11 7 10 13 pfet_01v8_hvt L=150000U W=2000000U AS=280000000000P
+ AD=395000000000P PS=2560000U PD=3790000U
* device instance $11 r0 *1 2.67,0.56 nfet_01v8
M$11 3 7 4 14 nfet_01v8 L=150000U W=1300000U AS=256750000000P AD=185250000000P
+ PS=2740000U PD=1870000U
* device instance $13 r0 *1 3.54,0.56 nfet_01v8
M$13 1 8 4 14 nfet_01v8 L=150000U W=1300000U AS=185250000000P AD=256750000000P
+ PS=1870000U PD=2090000U
* device instance $15 r0 *1 4.63,0.56 nfet_01v8
M$15 1 9 4 14 nfet_01v8 L=150000U W=1300000U AS=256750000000P AD=256750000000P
+ PS=2090000U PD=2740000U
* device instance $17 r0 *1 0.47,0.56 nfet_01v8
M$17 1 5 2 14 nfet_01v8 L=150000U W=1300000U AS=256750000000P AD=175500000000P
+ PS=2740000U PD=1840000U
* device instance $19 r0 *1 1.31,0.56 nfet_01v8
M$19 3 6 2 14 nfet_01v8 L=150000U W=1300000U AS=175500000000P AD=256750000000P
+ PS=1840000U PD=2740000U
.ENDS sky130_fd_sc_hd__a311oi_2

* cell sky130_fd_sc_hd__o31ai_1
* pin VPB
* pin A1
* pin A2
* pin A3
* pin B1
* pin VPWR
* pin VGND
* pin Y
* pin 
.SUBCKT sky130_fd_sc_hd__o31ai_1 1 2 3 4 5 6 7 9 10
* net 1 VPB
* net 2 A1
* net 3 A2
* net 4 A3
* net 5 B1
* net 6 VPWR
* net 7 VGND
* net 9 Y
* device instance $1 r0 *1 0.47,1.985 pfet_01v8_hvt
M$1 12 2 6 1 pfet_01v8_hvt L=150000U W=1000000U AS=260000000000P
+ AD=135000000000P PS=2520000U PD=1270000U
* device instance $2 r0 *1 0.89,1.985 pfet_01v8_hvt
M$2 11 3 12 1 pfet_01v8_hvt L=150000U W=1000000U AS=135000000000P
+ AD=135000000000P PS=1270000U PD=1270000U
* device instance $3 r0 *1 1.31,1.985 pfet_01v8_hvt
M$3 9 4 11 1 pfet_01v8_hvt L=150000U W=1000000U AS=135000000000P
+ AD=392500000000P PS=1270000U PD=1785000U
* device instance $4 r0 *1 2.245,1.985 pfet_01v8_hvt
M$4 6 5 9 1 pfet_01v8_hvt L=150000U W=1000000U AS=392500000000P
+ AD=300000000000P PS=1785000U PD=2600000U
* device instance $5 r0 *1 0.47,0.56 nfet_01v8
M$5 8 2 7 10 nfet_01v8 L=150000U W=650000U AS=169000000000P AD=87750000000P
+ PS=1820000U PD=920000U
* device instance $6 r0 *1 0.89,0.56 nfet_01v8
M$6 7 3 8 10 nfet_01v8 L=150000U W=650000U AS=87750000000P AD=87750000000P
+ PS=920000U PD=920000U
* device instance $7 r0 *1 1.31,0.56 nfet_01v8
M$7 8 4 7 10 nfet_01v8 L=150000U W=650000U AS=87750000000P AD=198250000000P
+ PS=920000U PD=1260000U
* device instance $8 r0 *1 2.07,0.56 nfet_01v8
M$8 9 5 8 10 nfet_01v8 L=150000U W=650000U AS=198250000000P AD=221000000000P
+ PS=1260000U PD=1980000U
.ENDS sky130_fd_sc_hd__o31ai_1

* cell sky130_fd_sc_hd__o211ai_1
* pin VPB
* pin A1
* pin A2
* pin B1
* pin C1
* pin Y
* pin VPWR
* pin VGND
* pin 
.SUBCKT sky130_fd_sc_hd__o211ai_1 1 2 3 4 5 7 8 9 10
* net 1 VPB
* net 2 A1
* net 3 A2
* net 4 B1
* net 5 C1
* net 7 Y
* net 8 VPWR
* net 9 VGND
* device instance $1 r0 *1 0.475,1.985 pfet_01v8_hvt
M$1 11 2 8 1 pfet_01v8_hvt L=150000U W=1000000U AS=265000000000P
+ AD=105000000000P PS=2530000U PD=1210000U
* device instance $2 r0 *1 0.835,1.985 pfet_01v8_hvt
M$2 7 3 11 1 pfet_01v8_hvt L=150000U W=1000000U AS=105000000000P
+ AD=195000000000P PS=1210000U PD=1390000U
* device instance $3 r0 *1 1.375,1.985 pfet_01v8_hvt
M$3 8 4 7 1 pfet_01v8_hvt L=150000U W=1000000U AS=195000000000P
+ AD=195000000000P PS=1390000U PD=1390000U
* device instance $4 r0 *1 1.915,1.985 pfet_01v8_hvt
M$4 7 5 8 1 pfet_01v8_hvt L=150000U W=1000000U AS=195000000000P
+ AD=635000000000P PS=1390000U PD=3270000U
* device instance $5 r0 *1 0.475,0.56 nfet_01v8
M$5 9 2 6 10 nfet_01v8 L=150000U W=650000U AS=172250000000P AD=126750000000P
+ PS=1830000U PD=1040000U
* device instance $6 r0 *1 1.015,0.56 nfet_01v8
M$6 6 3 9 10 nfet_01v8 L=150000U W=650000U AS=126750000000P AD=126750000000P
+ PS=1040000U PD=1040000U
* device instance $7 r0 *1 1.555,0.56 nfet_01v8