
* cell gray_counter
* pin binary_out[0]
* pin binary_out[1]
* pin PWELL
* pin NWELL
* pin binary_out[2]
* pin gray_out[0]
* pin data_in[0]
* pin direction
* pin data_in[1]
* pin clk
* pin load
* pin rst_n
* pin enable
* pin binary_out[3]
* pin gray_out[1]
* pin gray_out[3]
* pin data_in[3]
* pin data_in[2]
* pin gray_out[2]
.SUBCKT gray_counter 1 2 3 4 5 6 9 12 35 51 62 67 68 80 82 83 84 85 86
* net 1 binary_out[0]
* net 2 binary_out[1]
* net 3 PWELL
* net 4 NWELL
* net 5 binary_out[2]
* net 6 gray_out[0]
* net 9 data_in[0]
* net 12 direction
* net 35 data_in[1]
* net 51 clk
* net 62 load
* net 67 rst_n
* net 68 enable
* net 80 binary_out[3]
* net 82 gray_out[1]
* net 83 gray_out[3]
* net 84 data_in[3]
* net 85 data_in[2]
* net 86 gray_out[2]
* cell instance $2 r0 *1 44.84,11.2
X$2 7 3 4 1 BUF_X1
* cell instance $8 r0 *1 46.74,11.2
X$8 11 3 4 2 BUF_X1
* cell instance $13 m0 *1 51.49,89.6
X$13 85 3 4 42 CLKBUF_X2
* cell instance $14 m0 *1 50.92,89.6
X$14 84 3 4 73 BUF_X1
* cell instance $18 m0 *1 54.72,89.6
X$18 81 3 4 83 BUF_X1
* cell instance $47 m0 *1 12.73,50.4
X$47 35 3 4 24 BUF_X1
* cell instance $52 m0 *1 28.69,50.4
X$52 3 13 39 15 4 DFF_X1
* cell instance $55 m0 *1 32.87,50.4
X$55 23 24 3 4 46 XOR2_X1
* cell instance $68 r0 *1 30.59,50.4
X$68 36 45 4 3 39 AND2_X1
* cell instance $69 r0 *1 31.35,50.4
X$69 22 43 46 3 4 45 MUX2_X1
* cell instance $71 m0 *1 35.15,50.4
X$71 23 47 40 3 4 25 MUX2_X1
* cell instance $72 m0 *1 36.48,50.4
X$72 36 25 4 3 32 AND2_X1
* cell instance $73 m0 *1 37.24,50.4
X$73 7 21 26 3 4 40 MUX2_X1
* cell instance $74 m0 *1 38.57,50.4
X$74 3 41 15 87 11 4 DFF_X2
* cell instance $78 r0 *1 36.48,50.4
X$78 15 3 4 CLKBUF_X1
* cell instance $79 r0 *1 37.05,50.4
X$79 24 47 27 3 4 48 MUX2_X1
* cell instance $80 r0 *1 38.38,50.4
X$80 57 3 4 15 CLKBUF_X3
* cell instance $81 r0 *1 39.33,50.4
X$81 36 48 4 3 41 AND2_X1
* cell instance $84 r0 *1 40.66,50.4
X$84 24 42 3 4 58 XOR2_X1
* cell instance $87 m0 *1 43.32,50.4
X$87 14 37 3 4 34 XOR2_X1
* cell instance $88 m0 *1 46.55,50.4
X$88 17 7 19 3 4 44 NAND3_X1
* cell instance $89 m0 *1 44.84,50.4
X$89 16 19 4 37 3 XOR2_X2
* cell instance $92 m0 *1 48.26,50.4
X$92 8 21 37 3 4 38 MUX2_X1
* cell instance $93 m0 *1 49.59,50.4
X$93 42 47 38 3 4 29 MUX2_X1
* cell instance $98 r0 *1 46.93,50.4
X$98 28 44 3 4 61 NAND2_X1
* cell instance $99 r0 *1 47.5,50.4
X$99 21 10 44 28 4 3 49 AND4_X1
* cell instance $101 m0 *1 51.49,50.4
X$101 36 29 4 3 30 AND2_X1
* cell instance $142 m0 *1 13.49,47.6
X$142 13 3 4 6 BUF_X1
* cell instance $151 r0 *1 16.72,47.6
X$151 9 3 4 23 BUF_X1
* cell instance $155 r0 *1 30.97,47.6
X$155 13 21 20 3 4 22 MUX2_X1
* cell instance $158 r0 *1 35.53,47.6
X$158 3 32 15 26 7 4 DFF_X2
* cell instance $160 m0 *1 38.95,47.6
X$160 14 7 4 3 20 XNOR2_X1
* cell instance $164 r0 *1 39.14,47.6
X$164 11 21 14 3 4 27 MUX2_X1
* cell instance $168 m0 *1 44.46,47.6
X$168 3 11 16 14 10 7 4 FA_X1
* cell instance $169 m0 *1 47.5,47.6
X$169 8 10 19 4 3 31 HA_X1
* cell instance $180 r0 *1 45.98,47.6
X$180 11 10 17 4 3 33 HA_X1
* cell instance $181 r0 *1 47.88,47.6
X$181 31 19 33 3 28 4 AOI21_X2
* cell instance $184 r0 *1 51.11,47.6
X$184 3 30 18 89 8 4 DFF_X2
* cell instance $191 m0 *1 82.65,47.6
X$191 12 3 4 10 CLKBUF_X3
* cell instance $193 m0 *1 86.64,47.6
X$193 8 3 4 5 BUF_X1
* cell instance $208 m0 *1 46.93,89.6
X$208 77 3 4 86 BUF_X1
* cell instance $262 r0 *1 54.34,86.8
X$262 50 3 4 80 BUF_X1
* cell instance $264 r0 *1 55.1,86.8
X$264 50 3 4 81 BUF_X1
* cell instance $685 m0 *1 41.61,53.2
X$685 51 3 4 57 CLKBUF_X3
* cell instance $686 m0 *1 42.56,53.2
X$686 47 58 36 4 54 3 OAI21_X1
* cell instance $687 m0 *1 43.32,53.2
X$687 34 21 3 4 60 NAND2_X1
* cell instance $693 r0 *1 16.72,53.2
X$693 62 3 4 43 BUF_X2
* cell instance $698 r0 *1 27.55,53.2
X$698 67 3 4 36 CLKBUF_X2
* cell instance $704 r0 *1 39.9,53.2
X$704 43 3 4 47 INV_X2
* cell instance $706 r0 *1 41.99,53.2
X$706 54 60 74 3 70 4 AOI21_X1
* cell instance $711 m0 *1 45.22,53.2
X$711 10 59 28 44 55 4 3 AOI211_X2
* cell instance $712 m0 *1 46.93,53.2
X$712 61 53 4 3 56 XNOR2_X1
* cell instance $713 m0 *1 48.07,53.2
X$713 37 52 4 3 53 XNOR2_X1
* cell instance $715 r0 *1 45.41,53.2
X$715 21 3 4 59 INV_X1
* cell instance $717 r0 *1 46.55,53.2
X$717 55 49 66 4 65 3 OAI21_X1
* cell instance $718 r0 *1 47.31,53.2
X$718 43 50 55 49 3 4 64 OR4_X1
* cell instance $719 r0 *1 48.45,53.2
X$719 57 3 4 18 CLKBUF_X3
* cell instance $720 r0 *1 49.4,53.2
X$720 47 50 4 3 66 AND2_X1
* cell instance $722 m0 *1 49.59,53.2
X$722 50 10 4 3 52 XNOR2_X1
* cell instance $733 r0 *1 50.35,53.2
X$733 36 64 65 69 4 3 63 AND4_X1
* cell instance $734 r0 *1 51.49,53.2
X$734 3 63 18 88 50 4 DFF_X2
* cell instance $764 m0 *1 26.6,56
X$764 68 3 4 21 BUF_X2
* cell instance $772 m0 *1 40.66,56
X$772 3 71 70 18 4 DFF_X1
* cell instance $773 m0 *1 44.65,56
X$773 43 71 59 3 74 4 AOI21_X1
* cell instance $775 m0 *1 45.6,56
X$775 59 43 3 4 75 NOR2_X1
* cell instance $778 r0 *1 44.08,56
X$778 3 77 78 18 4 DFF_X1
* cell instance $780 m0 *1 46.74,56
X$780 75 56 76 47 72 3 4 78 AOI221_X1
* cell instance $781 m0 *1 47.88,56
X$781 47 79 36 4 76 3 OAI21_X1
* cell instance $782 m0 *1 48.64,56
X$782 42 73 3 4 79 XOR2_X1
* cell instance $783 m0 *1 49.78,56
X$783 47 73 3 4 69 OR2_X1
* cell instance $793 r0 *1 47.31,56
X$793 77 21 3 4 72 NOR2_X1
* cell instance $817 m0 *1 45.98,89.6
X$817 71 3 4 82 BUF_X1
.ENDS gray_counter

* cell HA_X1
* pin A
* pin B
* pin S
* pin NWELL,VDD
* pin PWELL,VSS
* pin CO
.SUBCKT HA_X1 1 2 4 5 6 9
* net 1 A
* net 2 B
* net 4 S
* net 5 NWELL,VDD
* net 6 PWELL,VSS
* net 9 CO
* device instance $1 r0 *1 0.785,1.0275 PMOS_VTL
M$1 10 2 5 5 PMOS_VTL L=0.05U W=0.315U AS=0.0338625P AD=0.02205P PS=0.775U
+ PD=0.455U
* device instance $2 r0 *1 0.975,1.0275 PMOS_VTL
M$2 7 1 10 5 PMOS_VTL L=0.05U W=0.315U AS=0.02205P AD=0.033075P PS=0.455U
+ PD=0.84U
* device instance $3 r0 *1 0.21,0.995 PMOS_VTL
M$3 4 2 3 5 PMOS_VTL L=0.05U W=0.63U AS=0.06615P AD=0.0441P PS=1.47U PD=0.77U
* device instance $4 r0 *1 0.4,0.995 PMOS_VTL
M$4 3 1 4 5 PMOS_VTL L=0.05U W=0.63U AS=0.0441P AD=0.0441P PS=0.77U PD=0.77U
* device instance $5 r0 *1 0.59,0.995 PMOS_VTL
M$5 5 7 3 5 PMOS_VTL L=0.05U W=0.63U AS=0.0441P AD=0.0338625P PS=0.77U PD=0.775U
* device instance $6 r0 *1 1.345,1.0275 PMOS_VTL
M$6 8 1 5 5 PMOS_VTL L=0.05U W=0.315U AS=0.033075P AD=0.02205P PS=0.84U
+ PD=0.455U
* device instance $7 r0 *1 1.535,1.0275 PMOS_VTL
M$7 8 2 5 5 PMOS_VTL L=0.05U W=0.315U AS=0.033075P AD=0.02205P PS=0.77U
+ PD=0.455U
* device instance $8 r0 *1 1.725,0.995 PMOS_VTL
M$8 9 8 5 5 PMOS_VTL L=0.05U W=0.63U AS=0.033075P AD=0.06615P PS=0.77U PD=1.47U
* device instance $9 r0 *1 1.345,0.195 NMOS_VTL
M$9 12 1 8 6 NMOS_VTL L=0.05U W=0.21U AS=0.02205P AD=0.0147P PS=0.63U PD=0.35U
* device instance $10 r0 *1 1.535,0.195 NMOS_VTL
M$10 6 2 12 6 NMOS_VTL L=0.05U W=0.21U AS=0.0147P AD=0.021875P PS=0.35U
+ PD=0.555U
* device instance $11 r0 *1 1.725,0.2975 NMOS_VTL
M$11 9 8 6 6 NMOS_VTL L=0.05U W=0.415U AS=0.021875P AD=0.043575P PS=0.555U
+ PD=1.04U
* device instance $12 r0 *1 0.785,0.195 NMOS_VTL
M$12 7 2 6 6 NMOS_VTL L=0.05U W=0.21U AS=0.0224P AD=0.0147P PS=0.56U PD=0.35U
* device instance $13 r0 *1 0.975,0.195 NMOS_VTL
M$13 6 1 7 6 NMOS_VTL L=0.05U W=0.21U AS=0.0147P AD=0.02205P PS=0.35U PD=0.63U
* device instance $14 r0 *1 0.21,0.2975 NMOS_VTL
M$14 11 2 6 6 NMOS_VTL L=0.05U W=0.415U AS=0.043575P AD=0.02905P PS=1.04U
+ PD=0.555U
* device instance $15 r0 *1 0.4,0.2975 NMOS_VTL
M$15 4 1 11 6 NMOS_VTL L=0.05U W=0.415U AS=0.02905P AD=0.02905P PS=0.555U
+ PD=0.555U
* device instance $16 r0 *1 0.59,0.2975 NMOS_VTL
M$16 6 7 4 6 NMOS_VTL L=0.05U W=0.415U AS=0.02905P AD=0.0224P PS=0.555U PD=0.56U
.ENDS HA_X1

* cell FA_X1
* pin PWELL,VSS
* pin B
* pin CO
* pin S
* pin CI
* pin A
* pin NWELL,VDD
.SUBCKT FA_X1 1 2 3 8 11 12 14
* net 1 PWELL,VSS
* net 2 B
* net 3 CO
* net 8 S
* net 11 CI
* net 12 A
* net 14 NWELL,VDD
* device instance $1 r0 *1 0.385,1.0275 PMOS_VTL
M$1 17 2 14 14 PMOS_VTL L=0.05U W=0.315U AS=0.033075P AD=0.02205P PS=0.77U
+ PD=0.455U
* device instance $2 r0 *1 0.575,1.0275 PMOS_VTL
M$2 4 12 17 14 PMOS_VTL L=0.05U W=0.315U AS=0.02205P AD=0.02205P PS=0.455U
+ PD=0.455U
* device instance $3 r0 *1 0.765,1.0275 PMOS_VTL
M$3 15 11 4 14 PMOS_VTL L=0.05U W=0.315U AS=0.02205P AD=0.02265P PS=0.455U
+ PD=0.535U
* device instance $4 r0 *1 0.96,1.1025 PMOS_VTL
M$4 14 12 15 14 PMOS_VTL L=0.05U W=0.315U AS=0.02265P AD=0.02205P PS=0.535U
+ PD=0.455U
* device instance $5 r0 *1 1.15,1.1025 PMOS_VTL
M$5 15 2 14 14 PMOS_VTL L=0.05U W=0.315U AS=0.02205P AD=0.033075P PS=0.455U
+ PD=0.84U
* device instance $6 r0 *1 0.195,0.995 PMOS_VTL
M$6 14 4 3 14 PMOS_VTL L=0.05U W=0.63U AS=0.06615P AD=0.033075P PS=1.47U
+ PD=0.77U
* device instance $7 r0 *1 1.49,1.1525 PMOS_VTL
M$7 16 2 14 14 PMOS_VTL L=0.05U W=0.315U AS=0.033075P AD=0.02205P PS=0.84U
+ PD=0.455U
* device instance $8 r0 *1 1.68,1.1525 PMOS_VTL
M$8 14 11 16 14 PMOS_VTL L=0.05U W=0.315U AS=0.02205P AD=0.02205P PS=0.455U
+ PD=0.455U
* device instance $9 r0 *1 1.87,1.1525 PMOS_VTL
M$9 16 12 14 14 PMOS_VTL L=0.05U W=0.315U AS=0.02205P AD=0.02205P PS=0.455U
+ PD=0.455U
* device instance $10 r0 *1 2.06,1.1525 PMOS_VTL
M$10 7 4 16 14 PMOS_VTL L=0.05U W=0.315U AS=0.02205P AD=0.023625P PS=0.455U
+ PD=0.465U
* device instance $11 r0 *1 2.26,1.1525 PMOS_VTL
M$11 18 11 7 14 PMOS_VTL L=0.05U W=0.315U AS=0.023625P AD=0.02205P PS=0.465U
+ PD=0.455U
* device instance $12 r0 *1 2.45,1.1525 PMOS_VTL
M$12 19 2 18 14 PMOS_VTL L=0.05U W=0.315U AS=0.02205P AD=0.02205P PS=0.455U
+ PD=0.455U
* device instance $13 r0 *1 2.64,1.1525 PMOS_VTL
M$13 19 12 14 14 PMOS_VTL L=0.05U W=0.315U AS=0.033075P AD=0.02205P PS=0.77U
+ PD=0.455U
* device instance $14 r0 *1 2.83,0.995 PMOS_VTL
M$14 8 7 14 14 PMOS_VTL L=0.05U W=0.63U AS=0.033075P AD=0.06615P PS=0.77U
+ PD=1.47U
* device instance $15 r0 *1 0.385,0.32 NMOS_VTL
M$15 13 2 1 1 NMOS_VTL L=0.05U W=0.21U AS=0.021875P AD=0.0147P PS=0.555U
+ PD=0.35U
* device instance $16 r0 *1 0.575,0.32 NMOS_VTL
M$16 4 12 13 1 NMOS_VTL L=0.05U W=0.21U AS=0.0147P AD=0.0147P PS=0.35U PD=0.35U
* device instance $17 r0 *1 0.765,0.32 NMOS_VTL
M$17 5 11 4 1 NMOS_VTL L=0.05U W=0.21U AS=0.0147P AD=0.015225P PS=0.35U
+ PD=0.355U
* device instance $18 r0 *1 0.96,0.32 NMOS_VTL
M$18 1 12 5 1 NMOS_VTL L=0.05U W=0.21U AS=0.015225P AD=0.0147P PS=0.355U
+ PD=0.35U
* device instance $19 r0 *1 1.15,0.32 NMOS_VTL
M$19 5 2 1 1 NMOS_VTL L=0.05U W=0.21U AS=0.0147P AD=0.02205P PS=0.35U PD=0.63U
* device instance $20 r0 *1 0.195,0.2975 NMOS_VTL
M$20 1 4 3 1 NMOS_VTL L=0.05U W=0.415U AS=0.043575P AD=0.021875P PS=1.04U
+ PD=0.555U
* device instance $21 r0 *1 1.49,0.195 NMOS_VTL
M$21 6 2 1 1 NMOS_VTL L=0.05U W=0.21U AS=0.02205P AD=0.0147P PS=0.63U PD=0.35U
* device instance $22 r0 *1 1.68,0.195 NMOS_VTL
M$22 1 11 6 1 NMOS_VTL L=0.05U W=0.21U AS=0.0147P AD=0.0147P PS=0.35U PD=0.35U
* device instance $23 r0 *1 1.87,0.195 NMOS_VTL
M$23 6 12 1 1 NMOS_VTL L=0.05U W=0.21U AS=0.0147P AD=0.0147P PS=0.35U PD=0.35U
* device instance $24 r0 *1 2.06,0.195 NMOS_VTL
M$24 7 4 6 1 NMOS_VTL L=0.05U W=0.21U AS=0.0147P AD=0.01575P PS=0.35U PD=0.36U
* device instance $25 r0 *1 2.26,0.195 NMOS_VTL
M$25 9 11 7 1 NMOS_VTL L=0.05U W=0.21U AS=0.01575P AD=0.0147P PS=0.36U PD=0.35U
* device instance $26 r0 *1 2.45,0.195 NMOS_VTL
M$26 10 2 9 1 NMOS_VTL L=0.05U W=0.21U AS=0.0147P AD=0.0147P PS=0.35U PD=0.35U
* device instance $27 r0 *1 2.64,0.195 NMOS_VTL
M$27 1 12 10 1 NMOS_VTL L=0.05U W=0.21U AS=0.0147P AD=0.021875P PS=0.35U
+ PD=0.555U
* device instance $28 r0 *1 2.83,0.2975 NMOS_VTL
M$28 8 7 1 1 NMOS_VTL L=0.05U W=0.415U AS=0.021875P AD=0.043575P PS=0.555U
+ PD=1.04U
.ENDS FA_X1

* cell AOI21_X2
* pin A
* pin B2
* pin B1
* pin PWELL,VSS
* pin ZN
* pin NWELL,VDD
.SUBCKT AOI21_X2 1 2 3 4 6 7
* net 1 A
* net 2 B2
* net 3 B1
* net 4 PWELL,VSS
* net 6 ZN
* net 7 NWELL,VDD
* device instance $1 r0 *1 0.21,0.995 PMOS_VTL
M$1 7 1 5 7 PMOS_VTL L=0.05U W=1.26U AS=0.11025P AD=0.0882P PS=2.24U PD=1.54U
* device instance $3 r0 *1 0.59,0.995 PMOS_VTL
M$3 6 2 5 7 PMOS_VTL L=0.05U W=1.26U AS=0.0882P AD=0.11025P PS=1.54U PD=2.24U
* device instance $4 r0 *1 0.78,0.995 PMOS_VTL
M$4 5 3 6 7 PMOS_VTL L=0.05U W=1.26U AS=0.0882P AD=0.0882P PS=1.54U PD=1.54U
* device instance $7 r0 *1 0.21,0.2975 NMOS_VTL
M$7 6 1 4 4 NMOS_VTL L=0.05U W=0.83U AS=0.072625P AD=0.0581P PS=1.595U PD=1.11U
* device instance $9 r0 *1 0.59,0.2975 NMOS_VTL
M$9 9 2 4 4 NMOS_VTL L=0.05U W=0.415U AS=0.02905P AD=0.02905P PS=0.555U
+ PD=0.555U
* device instance $10 r0 *1 0.78,0.2975 NMOS_VTL
M$10 6 3 9 4 NMOS_VTL L=0.05U W=0.415U AS=0.02905P AD=0.02905P PS=0.555U
+ PD=0.555U
* device instance $11 r0 *1 0.97,0.2975 NMOS_VTL
M$11 8 3 6 4 NMOS_VTL L=0.05U W=0.415U AS=0.02905P AD=0.02905P PS=0.555U
+ PD=0.555U
* device instance $12 r0 *1 1.16,0.2975 NMOS_VTL
M$12 4 2 8 4 NMOS_VTL L=0.05U W=0.415U AS=0.02905P AD=0.043575P PS=0.555U
+ PD=1.04U
.ENDS AOI21_X2

* cell AOI221_X1
* pin B2
* pin B1
* pin A
* pin C2
* pin C1
* pin PWELL,VSS
* pin NWELL,VDD
* pin ZN
.SUBCKT AOI221_X1 1 2 3 4 5 6 8 9
* net 1 B2
* net 2 B1
* net 3 A
* net 4 C2
* net 5 C1
* net 6 PWELL,VSS
* net 8 NWELL,VDD
* net 9 ZN
* device instance $1 r0 *1 0.17,0.995 PMOS_VTL
M$1 8 1 7 8 PMOS_VTL L=0.05U W=0.63U AS=0.06615P AD=0.0441P PS=1.47U PD=0.77U
* device instance $2 r0 *1 0.36,0.995 PMOS_VTL
M$2 7 2 8 8 PMOS_VTL L=0.05U W=0.63U AS=0.0441P AD=0.0441P PS=0.77U PD=0.77U
* device instance $3 r0 *1 0.55,0.995 PMOS_VTL
M$3 10 3 7 8 PMOS_VTL L=0.05U W=0.63U AS=0.0441P AD=0.0441P PS=0.77U PD=0.77U
* device instance $4 r0 *1 0.74,0.995 PMOS_VTL
M$4 9 4 10 8 PMOS_VTL L=0.05U W=0.63U AS=0.0441P AD=0.0441P PS=0.77U PD=0.77U
* device instance $5 r0 *1 0.93,0.995 PMOS_VTL
M$5 10 5 9 8 PMOS_VTL L=0.05U W=0.63U AS=0.0441P AD=0.06615P PS=0.77U PD=1.47U
* device instance $6 r0 *1 0.17,0.2975 NMOS_VTL
M$6 12 1 6 6 NMOS_VTL L=0.05U W=0.415U AS=0.043575P AD=0.02905P PS=1.04U
+ PD=0.555U
* device instance $7 r0 *1 0.36,0.2975 NMOS_VTL
M$7 9 2 12 6 NMOS_VTL L=0.05U W=0.415U AS=0.02905P AD=0.02905P PS=0.555U
+ PD=0.555U
* device instance $8 r0 *1 0.55,0.2975 NMOS_VTL
M$8 6 3 9 6 NMOS_VTL L=0.05U W=0.415U AS=0.02905P AD=0.02905P PS=0.555U
+ PD=0.555U
* device instance $9 r0 *1 0.74,0.2975 NMOS_VTL
M$9 11 4 6 6 NMOS_VTL L=0.05U W=0.415U AS=0.02905P AD=0.02905P PS=0.555U
+ PD=0.555U
* device instance $10 r0 *1 0.93,0.2975 NMOS_VTL
M$10 9 5 11 6 NMOS_VTL L=0.05U W=0.415U AS=0.02905P AD=0.043575P PS=0.555U
+ PD=1.04U
.ENDS AOI221_X1

* cell NOR2_X1
* pin A2
* pin A1
* pin PWELL,VSS
* pin NWELL,VDD
* pin ZN
.SUBCKT NOR2_X1 1 2 3 4 5
* net 1 A2
* net 2 A1
* net 3 PWELL,VSS
* net 4 NWELL,VDD
* net 5 ZN
* device instance $1 r0 *1 0.185,0.995 PMOS_VTL
M$1 6 1 4 4 PMOS_VTL L=0.05U W=0.63U AS=0.06615P AD=0.0441P PS=1.47U PD=0.77U
* device instance $2 r0 *1 0.375,0.995 PMOS_VTL
M$2 5 2 6 4 PMOS_VTL L=0.05U W=0.63U AS=0.0441P AD=0.06615P PS=0.77U PD=1.47U
* device instance $3 r0 *1 0.185,0.2975 NMOS_VTL
M$3 5 1 3 3 NMOS_VTL L=0.05U W=0.415U AS=0.043575P AD=0.02905P PS=1.04U
+ PD=0.555U
* device instance $4 r0 *1 0.375,0.2975 NMOS_VTL
M$4 3 2 5 3 NMOS_VTL L=0.05U W=0.415U AS=0.02905P AD=0.043575P PS=0.555U
+ PD=1.04U
.ENDS NOR2_X1

* cell AOI21_X1
* pin A
* pin B2
* pin B1
* pin PWELL,VSS
* pin ZN
* pin NWELL,VDD
.SUBCKT AOI21_X1 1 2 3 4 6 7
* net 1 A
* net 2 B2
* net 3 B1
* net 4 PWELL,VSS
* net 6 ZN
* net 7 NWELL,VDD
* device instance $1 r0 *1 0.21,0.995 PMOS_VTL
M$1 6 2 5 7 PMOS_VTL L=0.05U W=0.63U AS=0.06615P AD=0.0441P PS=1.47U PD=0.77U
* device instance $2 r0 *1 0.4,0.995 PMOS_VTL
M$2 5 3 6 7 PMOS_VTL L=0.05U W=0.63U AS=0.0441P AD=0.0441P PS=0.77U PD=0.77U
* device instance $3 r0 *1 0.59,0.995 PMOS_VTL
M$3 7 1 5 7 PMOS_VTL L=0.05U W=0.63U AS=0.0441P AD=0.06615P PS=0.77U PD=1.47U
* device instance $4 r0 *1 0.21,0.2975 NMOS_VTL
M$4 8 2 4 4 NMOS_VTL L=0.05U W=0.415U AS=0.043575P AD=0.02905P PS=1.04U
+ PD=0.555U
* device instance $5 r0 *1 0.4,0.2975 NMOS_VTL
M$5 6 3 8 4 NMOS_VTL L=0.05U W=0.415U AS=0.02905P AD=0.02905P PS=0.555U
+ PD=0.555U
* device instance $6 r0 *1 0.59,0.2975 NMOS_VTL
M$6 4 1 6 4 NMOS_VTL L=0.05U W=0.415U AS=0.02905P AD=0.043575P PS=0.555U
+ PD=1.04U
.ENDS AOI21_X1

* cell OAI21_X1
* pin B2
* pin B1
* pin A
* pin NWELL,VDD
* pin ZN
* pin PWELL,VSS
.SUBCKT OAI21_X1 1 2 3 5 6 7
* net 1 B2
* net 2 B1
* net 3 A
* net 5 NWELL,VDD
* net 6 ZN
* net 7 PWELL,VSS
* device instance $1 r0 *1 0.195,0.995 PMOS_VTL
M$1 8 1 5 5 PMOS_VTL L=0.05U W=0.63U AS=0.06615P AD=0.0441P PS=1.47U PD=0.77U
* device instance $2 r0 *1 0.385,0.995 PMOS_VTL
M$2 6 2 8 5 PMOS_VTL L=0.05U W=0.63U AS=0.0441P AD=0.0441P PS=0.77U PD=0.77U
* device instance $3 r0 *1 0.575,0.995 PMOS_VTL
M$3 5 3 6 5 PMOS_VTL L=0.05U W=0.63U AS=0.0441P AD=0.06615P PS=0.77U PD=1.47U
* device instance $4 r0 *1 0.195,0.2975 NMOS_VTL
M$4 6 1 4 7 NMOS_VTL L=0.05U W=0.415U AS=0.043575P AD=0.02905P PS=1.04U
+ PD=0.555U
* device instance $5 r0 *1 0.385,0.2975 NMOS_VTL
M$5 4 2 6 7 NMOS_VTL L=0.05U W=0.415U AS=0.02905P AD=0.02905P PS=0.555U
+ PD=0.555U
* device instance $6 r0 *1 0.575,0.2975 NMOS_VTL
M$6 7 3 4 7 NMOS_VTL L=0.05U W=0.415U AS=0.02905P AD=0.043575P PS=0.555U
+ PD=1.04U
.ENDS OAI21_X1

* cell OR4_X1
* pin A1
* pin A2
* pin A3
* pin A4
* pin PWELL,VSS
* pin NWELL,VDD
* pin ZN
.SUBCKT OR4_X1 1 2 3 4 5 7 8
* net 1 A1
* net 2 A2
* net 3 A3
* net 4 A4
* net 5 PWELL,VSS
* net 7 NWELL,VDD
* net 8 ZN
* device instance $1 r0 *1 0.17,1.1525 PMOS_VTL
M$1 10 1 6 7 PMOS_VTL L=0.05U W=0.315U AS=0.033075P AD=0.02205P PS=0.84U
+ PD=0.455U
* device instance $2 r0 *1 0.36,1.1525 PMOS_VTL
M$2 9 2 10 7 PMOS_VTL L=0.05U W=0.315U AS=0.02205P AD=0.02205P PS=0.455U
+ PD=0.455U
* device instance $3 r0 *1 0.55,1.1525 PMOS_VTL
M$3 11 3 9 7 PMOS_VTL L=0.05U W=0.315U AS=0.02205P AD=0.02205P PS=0.455U
+ PD=0.455U
* device instance $4 r0 *1 0.74,1.1525 PMOS_VTL
M$4 11 4 7 7 PMOS_VTL L=0.05U W=0.315U AS=0.033075P AD=0.02205P PS=0.77U
+ PD=0.455U
* device instance $5 r0 *1 0.93,0.995 PMOS_VTL
M$5 8 6 7 7 PMOS_VTL L=0.05U W=0.63U AS=0.033075P AD=0.06615P PS=0.77U PD=1.47U
* device instance $6 r0 *1 0.17,0.195 NMOS_VTL
M$6 6 1 5 5 NMOS_VTL L=0.05U W=0.21U AS=0.02205P AD=0.0147P PS=0.63U PD=0.35U
* device instance $7 r0 *1 0.36,0.195 NMOS_VTL
M$7 5 2 6 5 NMOS_VTL L=0.05U W=0.21U AS=0.0147P AD=0.0147P PS=0.35U PD=0.35U
* device instance $8 r0 *1 0.55,0.195 NMOS_VTL
M$8 6 3 5 5 NMOS_VTL L=0.05U W=0.21U AS=0.0147P AD=0.0147P PS=0.35U PD=0.35U
* device instance $9 r0 *1 0.74,0.195 NMOS_VTL
M$9 5 4 6 5 NMOS_VTL L=0.05U W=0.21U AS=0.0147P AD=0.021875P PS=0.35U PD=0.555U
* device instance $10 r0 *1 0.93,0.2975 NMOS_VTL
M$10 8 6 5 5 NMOS_VTL L=0.05U W=0.415U AS=0.021875P AD=0.043575P PS=0.555U
+ PD=1.04U
.ENDS OR4_X1

* cell AOI211_X2
* pin B
* pin A
* pin C2
* pin C1
* pin ZN
* pin NWELL,VDD
* pin PWELL,VSS
.SUBCKT AOI211_X2 1 2 3 4 6 7 8
* net 1 B
* net 2 A
* net 3 C2
* net 4 C1
* net 6 ZN
* net 7 NWELL,VDD
* net 8 PWELL,VSS
* device instance $1 r0 *1 0.175,0.995 PMOS_VTL
M$1 10 1 5 7 PMOS_VTL L=0.05U W=0.63U AS=0.06615P AD=0.0441P PS=1.47U PD=0.77U
* device instance $2 r0 *1 0.365,0.995 PMOS_VTL
M$2 7 2 10 7 PMOS_VTL L=0.05U W=0.63U AS=0.0441P AD=0.0441P PS=0.77U PD=0.77U
* device instance $3 r0 *1 0.555,0.995 PMOS_VTL
M$3 9 2 7 7 PMOS_VTL L=0.05U W=0.63U AS=0.0441P AD=0.0441P PS=0.77U PD=0.77U
* device instance $4 r0 *1 0.745,0.995 PMOS_VTL
M$4 5 1 9 7 PMOS_VTL L=0.05U W=0.63U AS=0.0441P AD=0.055125P PS=0.77U PD=0.805U
* device instance $5 r0 *1 0.97,0.995 PMOS_VTL
M$5 6 3 5 7 PMOS_VTL L=0.05U W=1.26U AS=0.099225P AD=0.11025P PS=1.575U PD=2.24U
* device instance $6 r0 *1 1.16,0.995 PMOS_VTL
M$6 5 4 6 7 PMOS_VTL L=0.05U W=1.26U AS=0.0882P AD=0.0882P PS=1.54U PD=1.54U
* device instance $9 r0 *1 0.175,0.2975 NMOS_VTL
M$9 6 1 8 8 NMOS_VTL L=0.05U W=0.83U AS=0.072625P AD=0.0653625P PS=1.595U
+ PD=1.145U
* device instance $10 r0 *1 0.365,0.2975 NMOS_VTL
M$10 8 2 6 8 NMOS_VTL L=0.05U W=0.83U AS=0.0581P AD=0.0581P PS=1.11U PD=1.11U
* device instance $13 r0 *1 0.97,0.2975 NMOS_VTL
M$13 11 3 8 8 NMOS_VTL L=0.05U W=0.415U AS=0.0363125P AD=0.02905P PS=0.59U
+ PD=0.555U
* device instance $14 r0 *1 1.16,0.2975 NMOS_VTL
M$14 6 4 11 8 NMOS_VTL L=0.05U W=0.415U AS=0.02905P AD=0.02905P PS=0.555U
+ PD=0.555U
* device instance $15 r0 *1 1.35,0.2975 NMOS_VTL
M$15 12 4 6 8 NMOS_VTL L=0.05U W=0.415U AS=0.02905P AD=0.02905P PS=0.555U
+ PD=0.555U
* device instance $16 r0 *1 1.54,0.2975 NMOS_VTL
M$16 8 3 12 8 NMOS_VTL L=0.05U W=0.415U AS=0.02905P AD=0.043575P PS=0.555U
+ PD=1.04U
.ENDS AOI211_X2

* cell INV_X1
* pin A
* pin PWELL,VSS
* pin NWELL,VDD
* pin ZN
.SUBCKT INV_X1 1 2 3 4
* net 1 A
* net 2 PWELL,VSS
* net 3 NWELL,VDD
* net 4 ZN
* device instance $1 r0 *1 0.17,0.995 PMOS_VTL
M$1 4 1 3 3 PMOS_VTL L=0.05U W=0.63U AS=0.06615P AD=0.06615P PS=1.47U PD=1.47U
* device instance $2 r0 *1 0.17,0.2975 NMOS_VTL
M$2 4 1 2 2 NMOS_VTL L=0.05U W=0.415U AS=0.043575P AD=0.043575P PS=1.04U
+ PD=1.04U
.ENDS INV_X1

* cell INV_X2
* pin A
* pin PWELL,VSS
* pin NWELL,VDD
* pin ZN
.SUBCKT INV_X2 1 2 3 4
* net 1 A
* net 2 PWELL,VSS
* net 3 NWELL,VDD
* net 4 ZN
* device instance $1 r0 *1 0.185,0.995 PMOS_VTL
M$1 4 1 3 3 PMOS_VTL L=0.05U W=1.26U AS=0.11025P AD=0.11025P PS=2.24U PD=2.24U
* device instance $3 r0 *1 0.185,0.2975 NMOS_VTL
M$3 4 1 2 2 NMOS_VTL L=0.05U W=0.83U AS=0.072625P AD=0.072625P PS=1.595U
+ PD=1.595U
.ENDS INV_X2

* cell BUF_X2
* pin A
* pin PWELL,VSS
* pin NWELL,VDD
* pin Z
.SUBCKT BUF_X2 1 3 4 5
* net 1 A
* net 3 PWELL,VSS
* net 4 NWELL,VDD
* net 5 Z
* device instance $1 r0 *1 0.21,0.995 PMOS_VTL
M$1 4 1 2 4 PMOS_VTL L=0.05U W=0.63U AS=0.06615P AD=0.0441P PS=1.47U PD=0.77U
* device instance $2 r0 *1 0.4,0.995 PMOS_VTL
M$2 5 2 4 4 PMOS_VTL L=0.05U W=1.26U AS=0.0882P AD=0.11025P PS=1.54U PD=2.24U
* device instance $4 r0 *1 0.21,0.2975 NMOS_VTL
M$4 3 1 2 3 NMOS_VTL L=0.05U W=0.415U AS=0.043575P AD=0.02905P PS=1.04U
+ PD=0.555U
* device instance $5 r0 *1 0.4,0.2975 NMOS_VTL
M$5 5 2 3 3 NMOS_VTL L=0.05U W=0.83U AS=0.0581P AD=0.072625P PS=1.11U PD=1.595U
.ENDS BUF_X2

* cell CLKBUF_X2
* pin A
* pin PWELL,VSS
* pin NWELL,VDD
* pin Z
.SUBCKT CLKBUF_X2 1 3 4 5
* net 1 A
* net 3 PWELL,VSS
* net 4 NWELL,VDD
* net 5 Z
* device instance $1 r0 *1 0.17,0.995 PMOS_VTL
M$1 4 1 2 4 PMOS_VTL L=0.05U W=0.63U AS=0.06615P AD=0.0441P PS=1.47U PD=0.77U
* device instance $2 r0 *1 0.36,0.995 PMOS_VTL
M$2 5 2 4 4 PMOS_VTL L=0.05U W=1.26U AS=0.0882P AD=0.11025P PS=1.54U PD=2.24U
* device instance $4 r0 *1 0.17,0.1875 NMOS_VTL
M$4 3 1 2 3 NMOS_VTL L=0.05U W=0.195U AS=0.020475P AD=0.01365P PS=0.6U PD=0.335U
* device instance $5 r0 *1 0.36,0.1875 NMOS_VTL
M$5 5 2 3 3 NMOS_VTL L=0.05U W=0.39U AS=0.0273P AD=0.034125P PS=0.67U PD=0.935U
.ENDS CLKBUF_X2

* cell DFF_X1
* pin PWELL,VSS
* pin Q
* pin D
* pin CK
* pin NWELL,VDD
.SUBCKT DFF_X1 1 9 14 15 16
* net 1 PWELL,VSS
* net 8 QN
* net 9 Q
* net 14 D
* net 15 CK
* net 16 NWELL,VDD
* device instance $1 r0 *1 2.85,0.995 PMOS_VTL
M$1 16 6 8 16 PMOS_VTL L=0.05U W=0.63U AS=0.06615P AD=0.0441P PS=1.47U PD=0.77U
* device instance $2 r0 *1 3.04,0.995 PMOS_VTL
M$2 9 7 16 16 PMOS_VTL L=0.05U W=0.63U AS=0.0441P AD=0.06615P PS=0.77U PD=1.47U
* device instance $3 r0 *1 0.185,0.9425 PMOS_VTL
M$3 16 5 2 16 PMOS_VTL L=0.05U W=0.315U AS=0.033075P AD=0.014175P PS=0.84U
+ PD=0.455U
* device instance $4 r0 *1 0.375,1.055 PMOS_VTL
M$4 17 3 16 16 PMOS_VTL L=0.05U W=0.09U AS=0.014175P AD=0.0063P PS=0.455U
+ PD=0.23U
* device instance $5 r0 *1 0.565,1.055 PMOS_VTL
M$5 17 5 4 16 PMOS_VTL L=0.05U W=0.09U AS=0.018075P AD=0.0063P PS=0.565U
+ PD=0.23U
* device instance $6 r0 *1 0.76,0.975 PMOS_VTL
M$6 18 2 4 16 PMOS_VTL L=0.05U W=0.42U AS=0.018075P AD=0.0294P PS=0.565U
+ PD=0.56U
* device instance $7 r0 *1 0.95,0.975 PMOS_VTL
M$7 16 14 18 16 PMOS_VTL L=0.05U W=0.42U AS=0.0294P AD=0.025725P PS=0.56U
+ PD=0.56U
* device instance $8 r0 *1 1.14,1.0275 PMOS_VTL
M$8 3 4 16 16 PMOS_VTL L=0.05U W=0.315U AS=0.025725P AD=0.0567P PS=0.56U
+ PD=0.99U
* device instance $9 r0 *1 1.555,1.0275 PMOS_VTL
M$9 16 15 5 16 PMOS_VTL L=0.05U W=0.315U AS=0.033075P AD=0.02205P PS=0.84U
+ PD=0.455U
* device instance $10 r0 *1 1.745,1.0275 PMOS_VTL
M$10 19 4 16 16 PMOS_VTL L=0.05U W=0.315U AS=0.02205P AD=0.02205P PS=0.455U
+ PD=0.455U
* device instance $11 r0 *1 1.935,1.0275 PMOS_VTL
M$11 6 5 19 16 PMOS_VTL L=0.05U W=0.315U AS=0.02205P AD=0.014175P PS=0.455U
+ PD=0.455U
* device instance $12 r0 *1 2.125,1.14 PMOS_VTL
M$12 20 2 6 16 PMOS_VTL L=0.05U W=0.09U AS=0.014175P AD=0.006525P PS=0.455U
+ PD=0.235U
* device instance $13 r0 *1 2.32,1.14 PMOS_VTL
M$13 20 7 16 16 PMOS_VTL L=0.05U W=0.09U AS=0.014175P AD=0.006525P PS=0.455U
+ PD=0.235U
* device instance $14 r0 *1 2.51,1.0275 PMOS_VTL
M$14 7 6 16 16 PMOS_VTL L=0.05U W=0.315U AS=0.014175P AD=0.033075P PS=0.455U
+ PD=0.84U
* device instance $15 r0 *1 2.85,0.2975 NMOS_VTL
M$15 1 6 8 1 NMOS_VTL L=0.05U W=0.415U AS=0.043575P AD=0.02905P PS=1.04U
+ PD=0.555U
* device instance $16 r0 *1 3.04,0.2975 NMOS_VTL
M$16 9 7 1 1 NMOS_VTL L=0.05U W=0.415U AS=0.02905P AD=0.043575P PS=0.555U
+ PD=1.04U
* device instance $17 r0 *1 2.125,0.345 NMOS_VTL
M$17 12 5 6 1 NMOS_VTL L=0.05U W=0.09U AS=0.0105P AD=0.006525P PS=0.35U
+ PD=0.235U
* device instance $18 r0 *1 2.32,0.345 NMOS_VTL
M$18 12 7 1 1 NMOS_VTL L=0.05U W=0.09U AS=0.0105P AD=0.006525P PS=0.35U
+ PD=0.235U
* device instance $19 r0 *1 1.555,0.36 NMOS_VTL
M$19 1 15 5 1 NMOS_VTL L=0.05U W=0.21U AS=0.02205P AD=0.0147P PS=0.63U PD=0.35U
* device instance $20 r0 *1 1.745,0.36 NMOS_VTL
M$20 13 4 1 1 NMOS_VTL L=0.05U W=0.21U AS=0.0147P AD=0.0147P PS=0.35U PD=0.35U
* device instance $21 r0 *1 1.935,0.36 NMOS_VTL
M$21 6 2 13 1 NMOS_VTL L=0.05U W=0.21U AS=0.0147P AD=0.0105P PS=0.35U PD=0.35U
* device instance $22 r0 *1 2.51,0.36 NMOS_VTL
M$22 7 6 1 1 NMOS_VTL L=0.05U W=0.21U AS=0.0105P AD=0.02205P PS=0.35U PD=0.63U
* device instance $23 r0 *1 0.185,0.285 NMOS_VTL
M$23 1 5 2 1 NMOS_VTL L=0.05U W=0.21U AS=0.02205P AD=0.0105P PS=0.63U PD=0.35U
* device instance $24 r0 *1 0.375,0.345 NMOS_VTL
M$24 10 3 1 1 NMOS_VTL L=0.05U W=0.09U AS=0.0105P AD=0.0063P PS=0.35U PD=0.23U
* device instance $25 r0 *1 0.565,0.345 NMOS_VTL
M$25 10 2 4 1 NMOS_VTL L=0.05U W=0.09U AS=0.013P AD=0.0063P PS=0.42U PD=0.23U
* device instance $26 r0 *1 1.14,0.285 NMOS_VTL
M$26 3 4 1 1 NMOS_VTL L=0.05U W=0.21U AS=0.016975P AD=0.02205P PS=0.415U
+ PD=0.63U
* device instance $27 r0 *1 0.76,0.3175 NMOS_VTL
M$27 11 5 4 1 NMOS_VTL L=0.05U W=0.275U AS=0.013P AD=0.01925P PS=0.42U PD=0.415U
* device instance $28 r0 *1 0.95,0.3175 NMOS_VTL
M$28 1 14 11 1 NMOS_VTL L=0.05U W=0.275U AS=0.01925P AD=0.016975P PS=0.415U
+ PD=0.415U
.ENDS DFF_X1

* cell CLKBUF_X1
* pin A
* pin PWELL,VSS
* pin NWELL,VDD
.SUBCKT CLKBUF_X1 1 3 4
* net 1 A
* net 3 PWELL,VSS
* net 4 NWELL,VDD
* net 5 Z
* device instance $1 r0 *1 0.19,1.1525 PMOS_VTL
M$1 2 1 4 4 PMOS_VTL L=0.05U W=0.315U AS=0.033075P AD=0.033075P PS=0.77U
+ PD=0.84U
* device instance $2 r0 *1 0.38,0.995 PMOS_VTL
M$2 5 2 4 4 PMOS_VTL L=0.05U W=0.63U AS=0.033075P AD=0.06615P PS=0.77U PD=1.47U
* device instance $3 r0 *1 0.19,0.2075 NMOS_VTL
M$3 3 1 2 3 NMOS_VTL L=0.05U W=0.095U AS=0.009975P AD=0.01015P PS=0.4U PD=0.335U
* device instance $4 r0 *1 0.38,0.2575 NMOS_VTL
M$4 5 2 3 3 NMOS_VTL L=0.05U W=0.195U AS=0.01015P AD=0.020475P PS=0.335U PD=0.6U
.ENDS CLKBUF_X1

* cell CLKBUF_X3
* pin A
* pin PWELL,VSS
* pin NWELL,VDD
* pin Z
.SUBCKT CLKBUF_X3 1 3 4 5
* net 1 A
* net 3 PWELL,VSS
* net 4 NWELL,VDD
* net 5 Z
* device instance $1 r0 *1 0.17,0.995 PMOS_VTL
M$1 4 1 2 4 PMOS_VTL L=0.05U W=0.63U AS=0.06615P AD=0.0441P PS=1.47U PD=0.77U
* device instance $2 r0 *1 0.36,0.995 PMOS_VTL
M$2 5 2 4 4 PMOS_VTL L=0.05U W=1.89U AS=0.1323P AD=0.15435P PS=2.31U PD=3.01U
* device instance $5 r0 *1 0.17,0.1875 NMOS_VTL
M$5 3 1 2 3 NMOS_VTL L=0.05U W=0.195U AS=0.020475P AD=0.01365P PS=0.6U PD=0.335U
* device instance $6 r0 *1 0.36,0.1875 NMOS_VTL
M$6 5 2 3 3 NMOS_VTL L=0.05U W=0.585U AS=0.04095P AD=0.047775P PS=1.005U
+ PD=1.27U
.ENDS CLKBUF_X3

* cell DFF_X2
* pin PWELL,VSS
* pin D
* pin CK
* pin QN
* pin Q
* pin NWELL,VDD
.SUBCKT DFF_X2 1 6 8 10 11 16
* net 1 PWELL,VSS
* net 6 D
* net 8 CK
* net 10 QN
* net 11 Q
* net 16 NWELL,VDD
* device instance $1 r0 *1 2.855,0.995 PMOS_VTL
M$1 10 9 16 16 PMOS_VTL L=0.05U W=1.26U AS=0.11025P AD=0.0882P PS=2.24U PD=1.54U
* device instance $3 r0 *1 3.235,0.995 PMOS_VTL
M$3 11 2 16 16 PMOS_VTL L=0.05U W=1.26U AS=0.0882P AD=0.11025P PS=1.54U PD=2.24U
* device instance $5 r0 *1 0.2,0.9275 PMOS_VTL
M$5 16 7 3 16 PMOS_VTL L=0.05U W=0.315U AS=0.033075P AD=0.014175P PS=0.84U
+ PD=0.455U
* device instance $6 r0 *1 0.39,1.04 PMOS_VTL
M$6 17 4 16 16 PMOS_VTL L=0.05U W=0.09U AS=0.014175P AD=0.0063P PS=0.455U
+ PD=0.23U
* device instance $7 r0 *1 0.58,1.04 PMOS_VTL
M$7 17 7 5 16 PMOS_VTL L=0.05U W=0.09U AS=0.01785P AD=0.0063P PS=0.56U PD=0.23U
* device instance $8 r0 *1 0.77,0.975 PMOS_VTL
M$8 18 3 5 16 PMOS_VTL L=0.05U W=0.42U AS=0.01785P AD=0.0294P PS=0.56U PD=0.56U
* device instance $9 r0 *1 0.96,0.975 PMOS_VTL
M$9 16 6 18 16 PMOS_VTL L=0.05U W=0.42U AS=0.0294P AD=0.025725P PS=0.56U
+ PD=0.56U
* device instance $10 r0 *1 1.15,1.0275 PMOS_VTL
M$10 4 5 16 16 PMOS_VTL L=0.05U W=0.315U AS=0.025725P AD=0.0567P PS=0.56U
+ PD=0.99U
* device instance $11 r0 *1 2.135,0.915 PMOS_VTL
M$11 20 3 9 16 PMOS_VTL L=0.05U W=0.09U AS=0.014175P AD=0.0063P PS=0.455U
+ PD=0.23U
* device instance $12 r0 *1 2.325,0.915 PMOS_VTL
M$12 20 2 16 16 PMOS_VTL L=0.05U W=0.09U AS=0.0252P AD=0.0063P PS=0.77U PD=0.23U
* device instance $13 r0 *1 1.565,1.0275 PMOS_VTL
M$13 16 8 7 16 PMOS_VTL L=0.05U W=0.315U AS=0.033075P AD=0.02205P PS=0.84U
+ PD=0.455U
* device instance $14 r0 *1 1.755,1.0275 PMOS_VTL
M$14 19 5 16 16 PMOS_VTL L=0.05U W=0.315U AS=0.02205P AD=0.02205P PS=0.455U
+ PD=0.455U
* device instance $15 r0 *1 1.945,1.0275 PMOS_VTL
M$15 9 7 19 16 PMOS_VTL L=0.05U W=0.315U AS=0.02205P AD=0.014175P PS=0.455U
+ PD=0.455U
* device instance $16 r0 *1 2.515,0.995 PMOS_VTL
M$16 2 9 16 16 PMOS_VTL L=0.05U W=0.63U AS=0.0252P AD=0.06615P PS=0.77U PD=1.47U
* device instance $17 r0 *1 2.855,0.2975 NMOS_VTL
M$17 10 9 1 1 NMOS_VTL L=0.05U W=0.83U AS=0.072625P AD=0.0581P PS=1.595U
+ PD=1.11U
* device instance $19 r0 *1 3.235,0.2975 NMOS_VTL