
* cell alu
* pin a[0]
* pin a[2]
* pin a[7]
* pin b[2]
* pin result[1]
* pin b[0]
* pin clk
* pin a[1]
* pin result[0]
* pin b[1]
* pin result[2]
* pin result[3]
* pin op_code[0]
* pin op_code[2]
* pin a[3]
* pin result[4]
* pin b[3]
* pin op_code[1]
* pin zero_flag
* pin a[4]
* pin result[6]
* pin b[4]
* pin result[7]
* pin a[5]
* pin a[6]
* pin result[5]
* pin b[5]
* pin rst_n
* pin b[6]
* pin b[7]
* pin overflow_flag
.SUBCKT alu 1 2 21 64 98 105 109 115 120 141 162 206 218 219 227 237 246 256
+ 283 290 292 303 326 332 336 338 351 352 353 354 355
* net 1 a[0]
* net 2 a[2]
* net 21 a[7]
* net 64 b[2]
* net 98 result[1]
* net 105 b[0]
* net 109 clk
* net 115 a[1]
* net 120 result[0]
* net 141 b[1]
* net 162 result[2]
* net 206 result[3]
* net 218 op_code[0]
* net 219 op_code[2]
* net 227 a[3]
* net 237 result[4]
* net 246 b[3]
* net 256 op_code[1]
* net 283 zero_flag
* net 290 a[4]
* net 292 result[6]
* net 303 b[4]
* net 326 result[7]
* net 332 a[5]
* net 336 a[6]
* net 338 result[5]
* net 351 b[5]
* net 352 rst_n
* net 353 b[6]
* net 354 b[7]
* net 355 overflow_flag
* cell instance $3 r0 *1 8.28,2.72
X$3 22 1 22 3 13 3 sky130_fd_sc_hd__clkbuf_2
* cell instance $6 r0 *1 12.42,2.72
X$6 22 2 3 15 22 3 sky130_fd_sc_hd__buf_2
* cell instance $20 r0 *1 15.64,2.72
X$20 3 6 17 4 5 22 22 3 sky130_fd_sc_hd__mux2i_4
* cell instance $27 r0 *1 31.74,2.72
X$27 3 8 4 10 5 22 22 3 sky130_fd_sc_hd__mux2i_1
* cell instance $29 r0 *1 36.34,2.72
X$29 3 32 7 12 22 22 3 sky130_fd_sc_hd__nand2b_2
* cell instance $37 r0 *1 45.54,2.72
X$37 22 9 5 16 3 22 3 sky130_fd_sc_hd__nand2b_1
* cell instance $38 r0 *1 47.84,2.72
X$38 3 5 11 22 22 3 sky130_fd_sc_hd__buf_6
* cell instance $39 r0 *1 51.98,2.72
X$39 3 14 10 9 5 22 22 3 sky130_fd_sc_hd__mux2i_1
* cell instance $51 m0 *1 5.52,8.16
X$51 3 11 24 6 4 13 37 7 22 22 3 sky130_fd_sc_hd__mux4_1
* cell instance $52 m0 *1 15.18,8.16
X$52 3 19 28 15 11 22 22 3 sky130_fd_sc_hd__mux2_1
* cell instance $53 m0 *1 19.32,8.16
X$53 3 25 19 20 22 29 22 3 sky130_fd_sc_hd__mux2i_2
* cell instance $54 m0 *1 24.38,8.16
X$54 3 20 37 13 11 22 22 3 sky130_fd_sc_hd__mux2_1
* cell instance $58 m0 *1 29.9,8.16
X$58 22 7 19 27 3 22 3 sky130_fd_sc_hd__nor2_1
* cell instance $59 m0 *1 31.28,8.16
X$59 22 12 30 31 22 3 3 sky130_fd_sc_hd__nand2_1
* cell instance $62 m0 *1 34.04,8.16
X$62 3 32 18 17 40 27 12 22 22 3 sky130_fd_sc_hd__o32ai_1
* cell instance $63 m0 *1 37.26,8.16
X$63 22 7 30 26 3 22 3 sky130_fd_sc_hd__nor2_1
* cell instance $64 m0 *1 38.64,8.16
X$64 3 32 23 8 26 39 12 22 22 3 sky130_fd_sc_hd__o32ai_1
* cell instance $65 m0 *1 41.86,8.16
X$65 22 11 9 34 3 22 3 sky130_fd_sc_hd__nor2b_1
* cell instance $66 m0 *1 44.16,8.16
X$66 3 38 8 16 25 22 22 3 sky130_fd_sc_hd__mux2_1
* cell instance $67 m0 *1 48.3,8.16
X$67 3 25 14 17 22 36 22 3 sky130_fd_sc_hd__mux2i_2
* cell instance $73 m0 *1 57.96,8.16
X$73 22 21 3 9 22 3 sky130_fd_sc_hd__buf_2
* cell instance $78 r0 *1 5.06,8.16
X$78 3 90 5 22 22 3 sky130_fd_sc_hd__buf_6
* cell instance $79 r0 *1 9.2,8.16
X$79 22 7 44 22 3 3 sky130_fd_sc_hd__clkinv_2
* cell instance $80 r0 *1 11.04,8.16
X$80 3 30 6 28 5 22 22 3 sky130_fd_sc_hd__mux2_1
* cell instance $87 r0 *1 18.4,8.16
X$87 22 11 3 41 22 3 sky130_fd_sc_hd__clkbuf_4
* cell instance $89 r0 *1 22.08,8.16
X$89 22 15 13 11 55 3 22 3 sky130_fd_sc_hd__nor3b_1
* cell instance $92 r0 *1 27.14,8.16
X$92 22 24 22 3 57 3 sky130_fd_sc_hd__inv_1
* cell instance $96 r0 *1 31.74,8.16
X$96 22 45 31 29 7 3 22 43 3 sky130_fd_sc_hd__a31oi_1
* cell instance $99 r0 *1 36.34,8.16
X$99 22 10 41 7 34 3 33 22 3 sky130_fd_sc_hd__a211oi_1
* cell instance $100 r0 *1 39.1,8.16
X$100 22 44 34 39 3 22 3 sky130_fd_sc_hd__nor2_1
* cell instance $108 r0 *1 43.7,8.16
X$108 22 35 23 43 18 54 22 3 3 sky130_fd_sc_hd__or4_1
* cell instance $110 r0 *1 47.38,8.16
X$110 22 42 23 53 3 22 3 sky130_fd_sc_hd__nor2b_1
* cell instance $112 r0 *1 50.14,8.16
X$112 22 18 42 123 3 22 3 sky130_fd_sc_hd__nand2b_1
* cell instance $113 r0 *1 52.44,8.16
X$113 3 35 42 38 51 36 22 22 3 sky130_fd_sc_hd__nand4bb_1
* cell instance $119 m0 *1 5.98,13.6
X$119 22 65 3 7 22 3 sky130_fd_sc_hd__buf_2
* cell instance $122 m0 *1 13.34,13.6
X$122 3 28 46 15 41 22 22 3 sky130_fd_sc_hd__mux2i_4
* cell instance $124 m0 *1 22.08,13.6
X$124 22 15 22 3 58 3 sky130_fd_sc_hd__inv_1
* cell instance $125 m0 *1 23.46,13.6
X$125 22 59 12 11 58 22 45 3 3 sky130_fd_sc_hd__a211o_1
* cell instance $126 m0 *1 26.68,13.6
X$126 22 37 11 59 3 22 3 sky130_fd_sc_hd__nor2_1
* cell instance $130 m0 *1 29.9,13.6
X$130 22 12 3 22 25 3 sky130_fd_sc_hd__inv_2
* cell instance $131 m0 *1 31.28,13.6
X$131 3 31 49 44 45 22 22 3 sky130_fd_sc_hd__and3_1
* cell instance $132 m0 *1 33.58,13.6
X$132 22 7 3 47 22 3 sky130_fd_sc_hd__buf_2
* cell instance $133 m0 *1 35.42,13.6
X$133 22 33 60 47 46 22 56 3 3 sky130_fd_sc_hd__a211o_1
* cell instance $134 m0 *1 38.64,13.6
X$134 22 44 48 40 3 22 3 sky130_fd_sc_hd__nor2_1
* cell instance $135 m0 *1 40.02,13.6
X$135 22 12 7 52 3 22 3 sky130_fd_sc_hd__nor2_1
* cell instance $136 m0 *1 41.4,13.6
X$136 22 47 29 63 3 22 3 sky130_fd_sc_hd__nor2_1
* cell instance $139 m0 *1 45.08,13.6
X$139 3 48 9 10 11 22 22 3 sky130_fd_sc_hd__mux2_1
* cell instance $141 m0 *1 49.68,13.6
X$141 22 49 42 47 38 22 62 3 3 sky130_fd_sc_hd__a211o_1
* cell instance $143 m0 *1 53.82,13.6
X$143 22 5 10 50 3 22 3 sky130_fd_sc_hd__nor2b_1
* cell instance $147 m0 *1 57.5,13.6
X$147 22 9 50 52 22 51 3 3 sky130_fd_sc_hd__o21ai_0
* cell instance $149 r0 *1 1.38,13.6
X$149 22 64 65 3 22 3 sky130_fd_sc_hd__clkbuf_1
* cell instance $151 r0 *1 3.22,13.6
X$151 3 357 71 65 15 22 22 3 sky130_fd_sc_hd__ha_2
* cell instance $154 r0 *1 10.12,13.6
X$154 22 11 72 61 3 73 22 3 sky130_fd_sc_hd__o21ai_2
* cell instance $156 r0 *1 13.8,13.6
X$156 22 41 28 61 22 3 3 sky130_fd_sc_hd__nand2_1
* cell instance $162 r0 *1 16.1,13.6
X$162 22 37 41 28 66 3 22 3 sky130_fd_sc_hd__nor3_1
* cell instance $164 r0 *1 18.86,13.6
X$164 22 15 37 41 3 22 75 3 sky130_fd_sc_hd__a21oi_1
* cell instance $166 r0 *1 21.16,13.6
X$166 22 75 60 66 55 78 3 22 3 sky130_fd_sc_hd__o22ai_1
* cell instance $168 r0 *1 24.38,13.6
X$168 3 15 68 37 41 22 22 3 sky130_fd_sc_hd__mux2i_4
* cell instance $169 r0 *1 32.66,13.6
X$169 22 60 46 102 3 22 3 sky130_fd_sc_hd__nor2_1
* cell instance $171 r0 *1 34.5,13.6
X$171 3 32 67 46 57 60 22 22 3 sky130_fd_sc_hd__o22ai_2
* cell instance $172 r0 *1 39.1,13.6
X$172 22 60 44 68 88 3 22 3 sky130_fd_sc_hd__nor3_1
* cell instance $173 r0 *1 40.94,13.6
X$173 22 25 56 57 22 3 76 3 sky130_fd_sc_hd__o21ai_1
* cell instance $178 r0 *1 43.24,13.6
X$178 22 77 12 95 3 22 3 sky130_fd_sc_hd__nor2b_1
* cell instance $180 r0 *1 47.38,13.6
X$180 22 63 47 36 3 22 74 3 sky130_fd_sc_hd__a21oi_1
* cell instance $182 r0 *1 49.68,13.6
X$182 22 47 42 82 3 22 3 sky130_fd_sc_hd__nor2_1
* cell instance $185 r0 *1 53.82,13.6
X$185 3 97 70 96 69 22 22 3 sky130_fd_sc_hd__dfrtp_1
* cell instance $188 m0 *1 5.52,19.04
X$188 3 364 186 15 44 22 22 3 sky130_fd_sc_hd__ha_1
* cell instance $189 m0 *1 10.12,19.04
X$189 22 6 22 3 72 3 sky130_fd_sc_hd__inv_1
* cell instance $192 m0 *1 13.8,19.04
X$192 22 83 3 12 22 3 sky130_fd_sc_hd__clkbuf_4
* cell instance $194 m0 *1 17.02,19.04
X$194 22 84 41 12 85 3 79 22 3 sky130_fd_sc_hd__a211oi_1
* cell instance $196 m0 *1 20.24,19.04
X$196 22 41 10 85 3 22 3 sky130_fd_sc_hd__nor2_1
* cell instance $197 m0 *1 21.62,19.04
X$197 22 12 3 60 22 3 sky130_fd_sc_hd__buf_2
* cell instance $199 m0 *1 24.38,19.04
X$199 3 362 77 13 113 22 22 3 sky130_fd_sc_hd__ha_1
* cell instance $201 m0 *1 29.44,19.04
X$201 3 81 73 77 78 79 60 22 22 3 sky130_fd_sc_hd__a2111oi_1
* cell instance $202 m0 *1 33.12,19.04
X$202 22 79 60 73 3 22 86 3 sky130_fd_sc_hd__a21oi_1
* cell instance $204 m0 *1 35.42,19.04
X$204 22 94 44 73 3 22 103 3 sky130_fd_sc_hd__a21boi_0
* cell instance $205 m0 *1 38.18,19.04
X$205 22 52 73 88 89 3 87 22 3 sky130_fd_sc_hd__a211oi_1
* cell instance $207 m0 *1 41.4,19.04
X$207 22 56 57 87 81 47 22 104 3 3 sky130_fd_sc_hd__o2111ai_1
* cell instance $209 m0 *1 45.54,19.04
X$209 22 82 38 80 3 22 3 sky130_fd_sc_hd__nand2b_1
* cell instance $210 m0 *1 47.84,19.04
X$210 22 36 82 101 22 3 3 sky130_fd_sc_hd__nand2_1
* cell instance $211 m0 *1 49.22,19.04
X$211 22 62 99 100 164 3 22 69 3 sky130_fd_sc_hd__a31oi_1
* cell instance $218 m0 *1 61.64,19.04
X$218 22 70 98 3 22 3 sky130_fd_sc_hd__clkbuf_1
* cell instance $221 r0 *1 2.76,19.04
X$221 22 105 90 3 22 3 sky130_fd_sc_hd__clkbuf_1
* cell instance $225 r0 *1 7.36,19.04
X$225 3 372 112 13 90 22 22 3 sky130_fd_sc_hd__ha_1
* cell instance $233 r0 *1 15.64,19.04
X$233 22 13 22 3 91 3 sky130_fd_sc_hd__inv_1
* cell instance $234 r0 *1 17.02,19.04
X$234 22 4 22 3 84 3 sky130_fd_sc_hd__inv_1
* cell instance $237 r0 *1 25.76,19.04
X$237 22 41 22 3 113 3 sky130_fd_sc_hd__inv_1
* cell instance $238 r0 *1 27.14,19.04
X$238 22 59 91 41 3 22 92 3 sky130_fd_sc_hd__a21oi_1
* cell instance $241 r0 *1 33.12,19.04
X$241 22 102 60 92 3 22 210 3 sky130_fd_sc_hd__a21oi_1
* cell instance $242 r0 *1 34.96,19.04
X$242 22 103 60 32 68 216 3 22 3 sky130_fd_sc_hd__o22ai_1
* cell instance $244 r0 *1 37.72,19.04
X$244 22 68 32 93 94 89 22 3 3 sky130_fd_sc_hd__o211ai_1
* cell instance $245 r0 *1 40.48,19.04
X$245 22 77 47 94 22 3 3 sky130_fd_sc_hd__nand2_1
* cell instance $251 r0 *1 43.24,19.04
X$251 22 25 68 95 3 22 108 3 sky130_fd_sc_hd__a21o_1
* cell instance $252 r0 *1 46,19.04
X$252 3 114 86 108 47 22 22 3 sky130_fd_sc_hd__mux2i_1
* cell instance $253 r0 *1 49.68,19.04
X$253 22 52 92 93 100 22 3 3 sky130_fd_sc_hd__nand3_1
* cell instance $256 r0 *1 53.82,19.04
X$256 3 97 110 96 111 22 22 3 sky130_fd_sc_hd__dfrtp_1
* cell instance $258 m0 *1 5.06,24.48
X$258 3 360 121 91 90 22 22 3 sky130_fd_sc_hd__ha_1
* cell instance $261 m0 *1 11.96,24.48
X$261 22 37 22 3 122 3 sky130_fd_sc_hd__inv_1
* cell instance $263 m0 *1 13.8,24.48
X$263 3 363 125 37 25 22 22 3 sky130_fd_sc_hd__ha_1
* cell instance $264 m0 *1 18.4,24.48
X$264 3 127 129 58 44 22 22 3 sky130_fd_sc_hd__ha_1
* cell instance $267 m0 *1 24.38,24.48
X$267 3 132 131 91 113 22 22 3 sky130_fd_sc_hd__ha_1
* cell instance $272 m0 *1 32.66,24.48
X$272 22 44 93 133 22 3 3 sky130_fd_sc_hd__nand2_1
* cell instance $275 m0 *1 38.64,24.48
X$275 22 106 60 47 134 3 22 3 sky130_fd_sc_hd__nor3_1
* cell instance $278 m0 *1 41.86,24.48
X$278 3 77 169 116 52 22 22 3 sky130_fd_sc_hd__and3_1
* cell instance $281 m0 *1 46.46,24.48
X$281 22 117 130 74 42 107 3 22 3 sky130_fd_sc_hd__o22ai_1
* cell instance $282 m0 *1 48.76,24.48
X$282 22 47 130 108 128 3 22 3 sky130_fd_sc_hd__nor3_1
* cell instance $283 m0 *1 50.6,24.48
X$283 22 118 126 123 22 124 3 3 sky130_fd_sc_hd__o21ai_0
* cell instance $290 m0 *1 60.26,24.48
X$290 22 110 120 3 22 3 sky130_fd_sc_hd__clkbuf_1
* cell instance $291 m0 *1 61.64,24.48
X$291 22 119 162 3 22 3 sky130_fd_sc_hd__clkbuf_1
* cell instance $293 r0 *1 5.06,24.48
X$293 22 115 3 37 22 3 sky130_fd_sc_hd__clkbuf_4
* cell instance $294 r0 *1 7.82,24.48
X$294 3 149 135 122 121 83 22 22 3 sky130_fd_sc_hd__fa_1
* cell instance $297 r0 *1 15.64,24.48
X$297 22 125 121 146 151 22 3 3 sky130_fd_sc_hd__o21ba_1
* cell instance $298 r0 *1 19.32,24.48
X$298 3 146 142 122 25 22 22 3 sky130_fd_sc_hd__ha_1
* cell instance $301 r0 *1 26.68,24.48
X$301 22 139 129 154 22 3 3 sky130_fd_sc_hd__nand2_1
* cell instance $303 r0 *1 28.52,24.48
X$303 22 106 112 140 3 22 3 sky130_fd_sc_hd__nor2_1
* cell instance $304 r0 *1 29.9,24.48
X$304 22 140 106 131 3 22 144 3 sky130_fd_sc_hd__a21oi_1
* cell instance $307 r0 *1 33.12,24.48
X$307 22 136 139 135 3 22 155 3 sky130_fd_sc_hd__a21oi_1
* cell instance $309 r0 *1 35.88,24.48
X$309 3 153 132 144 118 22 22 3 sky130_fd_sc_hd__mux2i_1
* cell instance $310 r0 *1 39.56,24.48
X$310 22 136 153 147 3 22 3 sky130_fd_sc_hd__nor2_1
* cell instance $314 r0 *1 43.24,24.48
X$314 22 107 147 116 137 132 111 3 22 3 sky130_fd_sc_hd__a311o_1
* cell instance $315 r0 *1 46.92,24.48
X$315 22 136 106 130 22 3 3 sky130_fd_sc_hd__nand2_1
* cell instance $316 r0 *1 48.3,24.48
X$316 22 128 137 150 3 22 126 3 sky130_fd_sc_hd__a21oi_1
* cell instance $318 r0 *1 53.82,24.48
X$318 3 97 119 96 138 22 22 3 sky130_fd_sc_hd__dfrtp_1
* cell instance $323 m0 *1 1.38,29.92
X$323 22 141 22 3 83 3 sky130_fd_sc_hd__clkbuf_2
* cell instance $325 m0 *1 4.14,29.92
X$325 3 366 152 37 83 22 22 3 sky130_fd_sc_hd__ha_1
* cell instance $328 m0 *1 11.04,29.92
X$328 3 177 161 37 112 83 22 22 3 sky130_fd_sc_hd__fa_1
* cell instance $329 m0 *1 18.4,29.92
X$329 22 127 22 3 165 3 sky130_fd_sc_hd__clkbuf_2
* cell instance $330 m0 *1 20.24,29.92
X$330 22 146 112 71 152 3 262 22 3 sky130_fd_sc_hd__a211oi_1
* cell instance $332 m0 *1 23.92,29.92
X$332 22 106 152 166 3 22 3 sky130_fd_sc_hd__nor2_1
* cell instance $333 m0 *1 25.3,29.92
X$333 22 166 139 142 3 22 143 3 sky130_fd_sc_hd__a21oi_1
* cell instance $334 m0 *1 27.14,29.92
X$334 22 168 167 143 3 22 99 3 sky130_fd_sc_hd__a21oi_1
* cell instance $336 m0 *1 29.44,29.92
X$336 22 139 71 154 118 158 22 3 3 sky130_fd_sc_hd__o211ai_1
* cell instance $337 m0 *1 32.2,29.92
X$337 22 118 145 168 3 22 3 sky130_fd_sc_hd__nor2_1
* cell instance $338 m0 *1 33.58,29.92
X$338 22 155 137 146 3 22 145 3 sky130_fd_sc_hd__a21oi_1
* cell instance $339 m0 *1 35.42,29.92
X$339 22 135 22 3 170 3 sky130_fd_sc_hd__inv_1
* cell instance $341 m0 *1 37.26,29.92
X$341 22 136 158 171 3 22 148 3 sky130_fd_sc_hd__a21oi_1
* cell instance $344 m0 *1 43.7,29.92
X$344 22 169 118 159 3 22 117 3 sky130_fd_sc_hd__a21oi_1
* cell instance $348 m0 *1 48.76,29.92
X$348 22 160 124 148 22 138 3 3 sky130_fd_sc_hd__o21a_1
* cell instance $349 m0 *1 51.52,29.92
X$349 3 96 358 22 22 3 sky130_fd_sc_hd__clkbuf_8
* cell instance $351 m0 *1 57.04,29.92
X$351 3 163 96 22 22 3 sky130_fd_sc_hd__clkbuf_8
* cell instance $356 r0 *1 7.36,29.92
X$356 3 207 156 72 176 22 22 3 sky130_fd_sc_hd__ha_1
* cell instance $357 r0 *1 11.96,29.92
X$357 22 165 177 179 22 3 3 sky130_fd_sc_hd__xnor2_1
* cell instance $362 r0 *1 17.94,29.92
X$362 22 149 165 22 173 3 3 sky130_fd_sc_hd__xor2_1
* cell instance $365 r0 *1 23.46,29.92
X$365 22 214 142 129 156 22 181 3 3 sky130_fd_sc_hd__nand4_1
* cell instance $367 r0 *1 27.6,29.92
X$367 22 71 112 157 184 3 22 3 sky130_fd_sc_hd__nor3_1
* cell instance $370 r0 *1 30.82,29.92
X$370 22 172 165 150 3 22 3 sky130_fd_sc_hd__nand2b_1
* cell instance $373 r0 *1 35.42,29.92
X$373 22 173 170 132 199 3 185 22 3 sky130_fd_sc_hd__nor4_1
* cell instance $374 r0 *1 37.72,29.92
X$374 22 116 139 173 171 22 3 3 sky130_fd_sc_hd__nand3_1
* cell instance $377 r0 *1 40.94,29.92
X$377 22 106 3 139 22 3 sky130_fd_sc_hd__buf_2
* cell instance $381 r0 *1 44.16,29.92
X$381 3 54 182 104 183 22 22 3 sky130_fd_sc_hd__and3_1
* cell instance $382 r0 *1 46.46,29.92
X$382 22 161 132 160 180 22 3 3 sky130_fd_sc_hd__or3_1
* cell instance $383 r0 *1 48.76,29.92
X$383 22 178 179 160 22 3 3 sky130_fd_sc_hd__nand2_1
* cell instance $385 r0 *1 51.06,29.92
X$385 22 161 193 164 3 22 3 sky130_fd_sc_hd__nor2_1
* cell instance $388 r0 *1 53.82,29.92
X$388 3 97 174 96 175 22 22 3 sky130_fd_sc_hd__dfrtp_1
* cell instance $396 m0 *1 7.82,35.36
X$396 22 207 3 187 22 3 sky130_fd_sc_hd__buf_2
* cell instance $397 m0 *1 9.66,35.36
X$397 22 186 165 149 22 3 196 3 sky130_fd_sc_hd__o21bai_1
* cell instance $400 m0 *1 15.18,35.36
X$400 22 165 151 208 3 22 3 sky130_fd_sc_hd__nor2_1
* cell instance $402 m0 *1 17.02,35.36
X$402 22 189 151 307 3 22 3 sky130_fd_sc_hd__nor2_1
* cell instance $405 m0 *1 21.16,35.36
X$405 22 165 201 187 189 22 3 3 sky130_fd_sc_hd__or3_1
* cell instance $408 m0 *1 25.76,35.36
X$408 22 184 215 167 166 22 188 3 3 sky130_fd_sc_hd__nand4_1
* cell instance $411 m0 *1 29.44,35.36
X$411 22 181 200 245 188 22 3 209 3 sky130_fd_sc_hd__o31ai_1
* cell instance $412 m0 *1 32.2,35.36
X$412 22 226 210 199 202 133 192 22 3 3 sky130_fd_sc_hd__o221ai_1
* cell instance $413 m0 *1 35.42,35.36
X$413 22 132 189 211 159 3 22 3 sky130_fd_sc_hd__nor3_1
* cell instance $416 m0 *1 38.64,35.36
X$416 22 209 136 190 3 22 183 3 sky130_fd_sc_hd__a21oi_1
* cell instance $417 m0 *1 40.48,35.36
X$417 22 195 106 191 22 3 3 sky130_fd_sc_hd__nand2_1
* cell instance $418 m0 *1 41.86,35.36
X$418 3 190 191 198 159 22 22 3 sky130_fd_sc_hd__mux2i_1
* cell instance $419 m0 *1 45.54,35.36
X$419 22 203 137 198 22 3 3 sky130_fd_sc_hd__nand2_1
* cell instance $421 m0 *1 47.84,35.36
X$421 22 53 192 197 193 175 3 22 3 sky130_fd_sc_hd__o22a_1
* cell instance $422 m0 *1 51.06,35.36
X$422 22 194 3 106 22 3 sky130_fd_sc_hd__buf_2
* cell instance $424 m0 *1 53.36,35.36
X$424 22 205 194 195 204 3 22 3 sky130_fd_sc_hd__and3b_1
* cell instance $426 m0 *1 57.04,35.36
X$426 3 42 194 205 195 22 22 3 sky130_fd_sc_hd__nand3b_2
* cell instance $428 m0 *1 61.64,35.36
X$428 22 174 206 3 22 3 sky130_fd_sc_hd__clkbuf_1
* cell instance $431 r0 *1 5.98,35.36
X$431 22 28 22 3 220 3 sky130_fd_sc_hd__inv_1
* cell instance $433 r0 *1 7.82,35.36
X$433 22 186 201 221 3 22 3 sky130_fd_sc_hd__nand2b_1
* cell instance $435 r0 *1 10.58,35.36
X$435 3 165 212 177 201 22 22 3 sky130_fd_sc_hd__and3_1
* cell instance $442 r0 *1 15.64,35.36
X$442 22 186 208 213 3 22 3 sky130_fd_sc_hd__nor2_1
* cell instance $445 r0 *1 21.62,35.36
X$445 22 213 201 202 22 3 3 sky130_fd_sc_hd__xnor2_1
* cell instance $446 r0 *1 24.84,35.36
X$446 22 172 195 167 3 22 3 sky130_fd_sc_hd__nor2b_1
* cell instance $447 r0 *1 27.14,35.36
X$447 22 106 167 200 22 3 3 sky130_fd_sc_hd__nand2_1
* cell instance $448 r0 *1 28.52,35.36
X$448 22 101 244 200 156 139 224 22 3 3 sky130_fd_sc_hd__o221ai_1
* cell instance $452 r0 *1 34.96,35.36
X$452 22 172 195 137 199 22 3 3 sky130_fd_sc_hd__or3_1
* cell instance $453 r0 *1 37.26,35.36
X$453 22 225 199 217 3 22 3 sky130_fd_sc_hd__nor2_1
* cell instance $461 r0 *1 44.16,35.36
X$461 22 203 3 116 22 3 sky130_fd_sc_hd__buf_2
* cell instance $462 r0 *1 46,35.36
X$462 22 195 22 3 203 3 sky130_fd_sc_hd__inv_1
* cell instance $463 r0 *1 47.38,35.36
X$463 22 195 172 106 22 3 193 3 sky130_fd_sc_hd__or3_2
* cell instance $464 r0 *1 50.14,35.36
X$464 22 194 22 3 137 3 sky130_fd_sc_hd__clkinvlp_4
* cell instance $465 r0 *1 52.9,35.36
X$465 22 204 3 93 22 3 sky130_fd_sc_hd__buf_2
* cell instance $466 r0 *1 54.74,35.36
X$466 22 205 3 172 22 3 sky130_fd_sc_hd__buf_2
* cell instance $467 r0 *1 56.58,35.36
X$467 22 218 22 3 194 3 sky130_fd_sc_hd__clkbuf_2
* cell instance $469 r0 *1 60.26,35.36
X$469 22 219 205 3 22 3 sky130_fd_sc_hd__clkbuf_1
* cell instance $472 m0 *1 1.38,40.8
X$472 22 227 3 28 22 3 sky130_fd_sc_hd__buf_2
* cell instance $473 m0 *1 3.22,40.8
X$473 3 238 214 220 257 22 22 3 sky130_fd_sc_hd__ha_1
* cell instance $474 m0 *1 7.82,40.8
X$474 22 238 22 3 201 3 sky130_fd_sc_hd__clkbuf_2
* cell instance $476 m0 *1 11.5,40.8
X$476 22 222 212 223 3 22 3 sky130_fd_sc_hd__or2_0
* cell instance $477 m0 *1 13.8,40.8
X$477 22 223 187 22 229 3 3 sky130_fd_sc_hd__xor2_1
* cell instance $480 m0 *1 19.78,40.8
X$480 22 165 71 240 3 22 3 sky130_fd_sc_hd__nor2_1
* cell instance $482 m0 *1 21.62,40.8
X$482 22 165 71 201 22 242 3 3 sky130_fd_sc_hd__o21ai_0
* cell instance $485 m0 *1 24.84,40.8
X$485 22 263 139 200 214 226 3 22 3 sky130_fd_sc_hd__o22a_1
* cell instance $489 m0 *1 33.12,40.8
X$489 22 106 172 232 3 22 3 sky130_fd_sc_hd__nand2b_1
* cell instance $490 m0 *1 35.42,40.8
X$490 22 216 93 217 224 3 236 22 3 sky130_fd_sc_hd__a211oi_1
* cell instance $492 m0 *1 41.86,40.8
X$492 3 136 271 118 137 22 22 3 sky130_fd_sc_hd__nor3_2
* cell instance $493 m0 *1 45.54,40.8
X$493 22 195 3 118 22 3 sky130_fd_sc_hd__buf_2
* cell instance $494 m0 *1 47.38,40.8
X$494 3 172 178 195 194 22 22 3 sky130_fd_sc_hd__nor3_2
* cell instance $495 m0 *1 51.06,40.8
X$495 3 109 163 22 22 3 sky130_fd_sc_hd__clkbuf_8
* cell instance $502 r0 *1 1.84,40.8
X$502 22 246 247 3 22 3 sky130_fd_sc_hd__clkbuf_1
* cell instance $504 r0 *1 4.14,40.8
X$504 3 369 228 28 247 22 22 3 sky130_fd_sc_hd__ha_1
* cell instance $507 r0 *1 11.04,40.8
X$507 22 201 22 3 248 3 sky130_fd_sc_hd__inv_1
* cell instance $508 r0 *1 12.42,40.8
X$508 22 71 201 228 3 22 222 3 sky130_fd_sc_hd__a21o_1
* cell instance $513 r0 *1 17.02,40.8
X$513 22 260 248 197 22 3 3 sky130_fd_sc_hd__xnor2_1
* cell instance $515 r0 *1 20.7,40.8
X$515 22 262 240 260 3 22 3 sky130_fd_sc_hd__nor2_1
* cell instance $517 r0 *1 22.54,40.8
X$517 22 262 242 215 22 243 3 3 sky130_fd_sc_hd__o21ai_0
* cell instance $518 r0 *1 24.38,40.8
X$518 22 230 116 201 3 22 263 3 sky130_fd_sc_hd__a21oi_1
* cell instance $520 r0 *1 26.68,40.8
X$520 22 265 116 187 3 22 244 3 sky130_fd_sc_hd__a21oi_1
* cell instance $522 r0 *1 29.44,40.8
X$522 22 231 131 252 251 22 245 3 3 sky130_fd_sc_hd__nand4_1
* cell instance $525 r0 *1 34.5,40.8
X$525 22 231 232 233 3 22 3 sky130_fd_sc_hd__nor2_1
* cell instance $527 r0 *1 36.8,40.8
X$527 22 251 232 234 3 22 3 sky130_fd_sc_hd__nor2_1
* cell instance $528 r0 *1 38.18,40.8
X$528 22 134 48 136 233 3 22 241 3 sky130_fd_sc_hd__a31oi_1
* cell instance $529 r0 *1 40.48,40.8
X$529 22 134 34 136 234 3 22 254 3 sky130_fd_sc_hd__a31oi_1
* cell instance $534 r0 *1 44.62,40.8
X$534 22 172 3 136 22 3 sky130_fd_sc_hd__buf_2
* cell instance $535 r0 *1 46.46,40.8
X$535 22 180 197 229 261 3 22 3 sky130_fd_sc_hd__nor3_1
* cell instance $536 r0 *1 48.3,40.8
X$536 22 193 229 235 3 22 3 sky130_fd_sc_hd__nor2_1
* cell instance $537 r0 *1 49.68,40.8
X$537 22 236 235 239 3 22 3 sky130_fd_sc_hd__nor2_1
* cell instance $540 r0 *1 53.82,40.8
X$540 3 97 255 258 239 22 22 3 sky130_fd_sc_hd__dfrtp_1
* cell instance $547 m0 *1 2.76,46.24
X$547 22 247 22 3 257 3 sky130_fd_sc_hd__inv_1
* cell instance $549 m0 *1 5.06,46.24
X$549 3 367 266 28 257 22 22 3 sky130_fd_sc_hd__ha_1
* cell instance $551 m0 *1 10.12,46.24
X$551 22 266 248 196 3 22 273 3 sky130_fd_sc_hd__a21oi_1
* cell instance $553 m0 *1 12.42,46.24
X$553 22 212 187 222 22 3 284 3 sky130_fd_sc_hd__o21ai_1
* cell instance $554 m0 *1 14.26,46.24
X$554 3 259 252 249 84 22 22 3 sky130_fd_sc_hd__ha_2
* cell instance $556 m0 *1 20.24,46.24
X$556 22 228 22 3 250 3 sky130_fd_sc_hd__inv_1
* cell instance $557 m0 *1 21.62,46.24
X$557 22 262 242 250 22 287 3 3 sky130_fd_sc_hd__o21ai_0
* cell instance $559 m0 *1 24.38,46.24
X$559 22 172 195 250 3 22 230 3 sky130_fd_sc_hd__a21oi_1
* cell instance $560 m0 *1 26.22,46.24
X$560 22 172 118 288 3 22 265 3 sky130_fd_sc_hd__a21oi_1
* cell instance $564 m0 *1 29.9,46.24
X$564 22 80 300 200 252 139 275 22 3 3 sky130_fd_sc_hd__o221ai_1
* cell instance $565 m0 *1 33.12,46.24
X$565 22 146 259 268 267 211 22 3 3 sky130_fd_sc_hd__or4_1
* cell instance $567 m0 *1 36.8,46.24
X$567 22 302 116 268 3 22 274 3 sky130_fd_sc_hd__a21oi_1
* cell instance $568 m0 *1 38.64,46.24
X$568 22 274 139 241 116 253 3 22 3 sky130_fd_sc_hd__o22ai_1
* cell instance $570 m0 *1 41.4,46.24
X$570 22 270 139 254 116 264 3 22 3 sky130_fd_sc_hd__o22ai_1
* cell instance $572 m0 *1 44.16,46.24
X$572 3 272 114 271 253 93 280 22 22 3 sky130_fd_sc_hd__a221oi_1
* cell instance $579 m0 *1 59.8,46.24
X$579 22 256 3 195 22 3 sky130_fd_sc_hd__buf_2
* cell instance $580 m0 *1 61.64,46.24
X$580 22 255 237 3 22 3 sky130_fd_sc_hd__clkbuf_1
* cell instance $582 r0 *1 3.22,46.24
X$582 22 290 3 6 22 3 sky130_fd_sc_hd__buf_2
* cell instance $586 r0 *1 8.28,46.24
X$586 22 266 22 3 293 3 sky130_fd_sc_hd__inv_1
* cell instance $593 r0 *1 17.02,46.24
X$593 22 273 187 225 22 3 3 sky130_fd_sc_hd__xnor2_1
* cell instance $596 r0 *1 22.54,46.24
X$596 22 333 276 228 297 3 215 22 3 sky130_fd_sc_hd__nor4_1
* cell instance $597 r0 *1 24.84,46.24
X$597 22 276 187 287 3 22 299 3 sky130_fd_sc_hd__a21oi_1
* cell instance $598 r0 *1 26.68,46.24
X$598 22 276 22 3 288 3 sky130_fd_sc_hd__inv_1
* cell instance $600 r0 *1 29.9,46.24
X$600 22 172 118 301 3 22 277 3 sky130_fd_sc_hd__a21oi_1
* cell instance $601 r0 *1 31.74,46.24
X$601 22 277 116 259 3 22 300 3 sky130_fd_sc_hd__a21oi_1
* cell instance $603 r0 *1 34.5,46.24
X$603 22 289 225 202 185 22 269 3 3 sky130_fd_sc_hd__nand4b_1
* cell instance $604 r0 *1 37.72,46.24
X$604 22 136 118 278 3 22 302 3 sky130_fd_sc_hd__a21oi_1
* cell instance $607 r0 *1 40.94,46.24
X$607 22 279 116 267 3 22 270 3 sky130_fd_sc_hd__a21oi_1
* cell instance $610 r0 *1 43.24,46.24
X$610 22 136 118 286 3 22 279 3 sky130_fd_sc_hd__a21oi_1
* cell instance $611 r0 *1 45.08,46.24
X$611 3 298 281 285 269 280 182 22 22 3 sky130_fd_sc_hd__o311ai_0
* cell instance $614 r0 *1 51.06,46.24
X$614 3 97 282 258 281 22 22 3 sky130_fd_sc_hd__dfrtp_1
* cell instance $615 r0 *1 60.26,46.24
X$615 22 282 283 3 22 3 sky130_fd_sc_hd__clkbuf_1
* cell instance $624 m0 *1 2.76,51.68
X$624 22 303 304 3 22 3 sky130_fd_sc_hd__clkbuf_1
* cell instance $625 m0 *1 4.14,51.68
X$625 3 359 276 6 304 22 22 3 sky130_fd_sc_hd__ha_1
* cell instance $626 m0 *1 8.74,51.68
X$626 22 187 293 221 3 22 294 3 sky130_fd_sc_hd__a21oi_1
* cell instance $628 m0 *1 12.42,51.68
X$628 22 187 259 273 305 22 3 313 3 sky130_fd_sc_hd__o31ai_1
* cell instance $629 m0 *1 15.18,51.68
X$629 22 314 306 308 3 22 305 3 sky130_fd_sc_hd__a21oi_1
* cell instance $630 m0 *1 17.02,51.68
X$630 22 306 294 307 291 3 22 3 sky130_fd_sc_hd__nor3_1
* cell instance $632 m0 *1 20.7,51.68
X$632 22 259 22 3 308 3 sky130_fd_sc_hd__inv_1
* cell instance $633 m0 *1 22.08,51.68
X$633 22 291 308 289 22 3 3 sky130_fd_sc_hd__xnor2_1
* cell instance $635 m0 *1 25.76,51.68
X$635 22 299 308 309 22 3 3 sky130_fd_sc_hd__xnor2_1
* cell instance $638 m0 *1 30.36,51.68
X$638 22 297 22 3 301 3 sky130_fd_sc_hd__inv_1
* cell instance $640 m0 *1 32.66,51.68
X$640 22 313 268 280 22 3 3 sky130_fd_sc_hd__xnor2_1
* cell instance $641 m0 *1 35.88,51.68
X$641 3 312 67 289 275 93 271 22 22 3 sky130_fd_sc_hd__a221oi_1
* cell instance $642 m0 *1 39.1,51.68
X$642 22 322 267 298 22 3 3 sky130_fd_sc_hd__xnor2_1
* cell instance $643 m0 *1 42.32,51.68
X$643 3 321 76 298 264 93 271 22 22 3 sky130_fd_sc_hd__a221oi_1
* cell instance $644 m0 *1 45.54,51.68
X$644 22 261 310 320 309 22 285 3 3 sky130_fd_sc_hd__nand4_1
* cell instance $645 m0 *1 47.84,51.68
X$645 22 272 310 178 3 22 295 3 sky130_fd_sc_hd__a21oi_1
* cell instance $646 m0 *1 49.68,51.68
X$646 22 312 178 309 3 22 296 3 sky130_fd_sc_hd__a21oi_1
* cell instance $653 m0 *1 61.64,51.68
X$653 22 311 292 3 22 3 sky130_fd_sc_hd__clkbuf_1
* cell instance $656 r0 *1 5.98,51.68
X$656 22 304 22 3 176 3 sky130_fd_sc_hd__inv_1
* cell instance $657 r0 *1 7.36,51.68
X$657 3 371 306 6 176 22 22 3 sky130_fd_sc_hd__ha_1
* cell instance $659 r0 *1 12.88,51.68
X$659 22 314 259 316 3 22 3 sky130_fd_sc_hd__nor2b_1
* cell instance $665 r0 *1 16.1,51.68
X$665 3 322 294 307 327 315 22 22 3 sky130_fd_sc_hd__o31a_1
* cell instance $666 r0 *1 19.32,51.68
X$666 22 339 268 316 22 3 315 3 sky130_fd_sc_hd__o21bai_1
* cell instance $668 r0 *1 22.54,51.68
X$668 22 297 259 268 22 317 3 3 sky130_fd_sc_hd__o21ai_0
* cell instance $669 r0 *1 24.38,51.68
X$669 22 276 297 187 329 3 22 3 sky130_fd_sc_hd__nor3_1
* cell instance $670 r0 *1 26.22,51.68
X$670 22 276 297 318 3 22 3 sky130_fd_sc_hd__nor2_1
* cell instance $672 r0 *1 28.06,51.68
X$672 22 284 318 317 3 22 319 3 sky130_fd_sc_hd__a21o_1
* cell instance $673 r0 *1 30.82,51.68
X$673 3 310 297 259 268 319 340 22 22 3 sky130_fd_sc_hd__o311ai_2
* cell instance $676 r0 *1 39.1,51.68
X$676 22 193 278 319 3 22 331 3 sky130_fd_sc_hd__a21oi_1
* cell instance $683 r0 *1 43.7,51.68
X$683 22 330 324 193 286 325 3 22 3 sky130_fd_sc_hd__o22ai_1
* cell instance $684 r0 *1 46,51.68
X$684 22 321 320 178 3 22 328 3 sky130_fd_sc_hd__a21oi_1
* cell instance $686 r0 *1 48.76,51.68
X$686 3 163 258 22 22 3 sky130_fd_sc_hd__clkbuf_8
* cell instance $687 r0 *1 53.82,51.68
X$687 3 97 311 258 295 22 22 3 sky130_fd_sc_hd__dfrtp_1
* cell instance $691 m0 *1 4.6,57.12
X$691 22 332 3 4 22 3 sky130_fd_sc_hd__buf_2
* cell instance $695 m0 *1 11.5,57.12
X$695 3 361 314 4 249 22 22 3 sky130_fd_sc_hd__ha_1
* cell instance $696 m0 *1 16.1,57.12
X$696 22 306 314 339 327 22 3 3 sky130_fd_sc_hd__or3_1
* cell instance $699 m0 *1 23,57.12
X$699 22 333 22 3 278 3 sky130_fd_sc_hd__inv_1
* cell instance $700 m0 *1 24.38,57.12
X$700 22 334 243 335 22 3 3 sky130_fd_sc_hd__nand2_1
* cell instance $702 m0 *1 26.22,57.12
X$702 22 317 329 278 22 334 3 3 sky130_fd_sc_hd__o21ai_0
* cell instance $705 m0 *1 29.44,57.12
X$705 22 268 318 284 340 3 22 3 sky130_fd_sc_hd__nand3b_1
* cell instance $710 m0 *1 39.1,57.12
X$710 22 322 341 323 22 3 3 sky130_fd_sc_hd__xnor2_1
* cell instance $711 m0 *1 42.32,57.12
X$711 22 331 271 323 3 22 330 3 sky130_fd_sc_hd__a21oi_1
* cell instance $712 m0 *1 44.16,57.12
X$712 22 335 324 320 22 3 3 sky130_fd_sc_hd__xnor2_1
* cell instance $713 m0 *1 47.38,57.12
X$713 3 97 337 258 328 22 22 3 sky130_fd_sc_hd__dfrtp_1
* cell instance $715 m0 *1 57.04,57.12
X$715 22 345 338 3 22 3 sky130_fd_sc_hd__clkbuf_1
* cell instance $716 m0 *1 58.42,57.12
X$716 22 336 3 10 22 3 sky130_fd_sc_hd__clkbuf_4
* cell instance $717 m0 *1 61.18,57.12
X$717 22 337 326 3 22 3 sky130_fd_sc_hd__clkbuf_1
* cell instance $721 r0 *1 5.98,57.12
X$721 3 356 297 342 4 22 22 3 sky130_fd_sc_hd__ha_2
* cell instance $723 r0 *1 13.34,57.12
X$723 22 342 22 3 249 3 sky130_fd_sc_hd__inv_1
* cell instance $732 r0 *1 18.86,57.12
X$732 3 370 339 10 343 22 22 3 sky130_fd_sc_hd__ha_1
* cell instance $733 r0 *1 23.46,57.12
X$733 22 346 22 3 343 3 sky130_fd_sc_hd__inv_1
* cell instance $735 r0 *1 25.3,57.12
X$735 3 268 231 343 347 22 22 3 sky130_fd_sc_hd__ha_2
* cell instance $737 r0 *1 34.5,57.12
X$737 3 267 251 341 349 22 22 3 sky130_fd_sc_hd__ha_1
* cell instance $739 r0 *1 39.56,57.12
X$739 22 9 22 3 341 3 sky130_fd_sc_hd__inv_1
* cell instance $741 r0 *1 41.4,57.12
X$741 22 157 22 3 286 3 sky130_fd_sc_hd__inv_1
* cell instance $748 r0 *1 45.54,57.12
X$748 22 267 22 3 324 3 sky130_fd_sc_hd__inv_1
* cell instance $752 r0 *1 50.14,57.12
X$752 3 97 345 258 296 22 22 3 sky130_fd_sc_hd__dfrtp_1
* cell instance $753 r0 *1 59.34,57.12
X$753 22 344 3 97 22 3 sky130_fd_sc_hd__clkbuf_4
* cell instance $758 m0 *1 12.42,62.56
X$758 22 351 342 3 22 3 sky130_fd_sc_hd__clkbuf_1
* cell instance $765 m0 *1 18.86,62.56
X$765 3 368 333 10 346 22 22 3 sky130_fd_sc_hd__ha_1
* cell instance $766 m0 *1 23.46,62.56
X$766 22 353 346 3 22 3 sky130_fd_sc_hd__clkbuf_1
* cell instance $769 m0 *1 27.6,62.56