
* cell parameterized_deserializer
* pin enable
* pin load
* pin VSS,sync_detected
* pin VDD
* pin rst_n
* pin rx_busy
* pin parallel_out[0]
* pin rx_done
* pin serial_in
* pin parallel_out[7]
* pin parallel_out[1]
* pin parallel_out[6]
* pin clk
* pin parallel_out[4]
* pin parallel_out[2]
* pin parallel_out[3]
* pin parallel_out[5]
.SUBCKT parameterized_deserializer 1 2 3 7 13 48 49 60 70 80 85 88 89 108 111
+ 112 113
* net 1 enable
* net 2 load
* net 3 VSS,sync_detected
* net 7 VDD
* net 13 rst_n
* net 48 rx_busy
* net 49 parallel_out[0]
* net 60 rx_done
* net 70 serial_in
* net 80 parallel_out[7]
* net 85 parallel_out[1]
* net 88 parallel_out[6]
* net 89 clk
* net 108 parallel_out[4]
* net 111 parallel_out[2]
* net 112 parallel_out[3]
* net 113 parallel_out[5]
* cell instance $2 m0 *1 29.44,8.16
X$2 7 1 3 7 6 3 sky130_fd_sc_hd__clkdlybuf4s50_1
* cell instance $6 r0 *1 32.66,2.72
X$6 7 2 3 7 4 3 sky130_fd_sc_hd__clkdlybuf4s50_1
* cell instance $43 m0 *1 10.58,8.16
X$43 3 14 9 8 5 7 7 3 sky130_fd_sc_hd__dfrtp_1
* cell instance $46 m0 *1 19.78,8.16
X$46 7 9 7 3 12 3 sky130_fd_sc_hd__inv_1
* cell instance $47 m0 *1 21.16,8.16
X$47 7 6 12 11 7 5 3 3 sky130_fd_sc_hd__o21ai_0
* cell instance $58 m0 *1 45.08,8.16
X$58 7 13 3 7 10 3 sky130_fd_sc_hd__clkdlybuf4s50_1
* cell instance $59 m0 *1 48.76,8.16
X$59 7 10 7 3 14 3 sky130_fd_sc_hd__buf_4
* cell instance $68 r0 *1 10.58,8.16
X$68 3 114 19 9 17 7 7 3 sky130_fd_sc_hd__ha_1
* cell instance $73 r0 *1 19.32,8.16
X$73 3 20 46 12 26 7 7 3 sky130_fd_sc_hd__ha_1
* cell instance $74 r0 *1 23.92,8.16
X$74 3 14 18 16 24 7 7 3 sky130_fd_sc_hd__dfrtp_1
* cell instance $75 r0 *1 33.12,8.16
X$75 3 14 15 16 23 7 7 3 sky130_fd_sc_hd__dfrtp_1
* cell instance $87 m0 *1 4.6,13.6
X$87 3 14 17 8 21 7 7 3 sky130_fd_sc_hd__dfrtp_1
* cell instance $89 m0 *1 14.26,13.6
X$89 7 17 7 3 26 3 sky130_fd_sc_hd__inv_1
* cell instance $92 m0 *1 16.1,13.6
X$92 3 33 25 31 19 7 7 3 sky130_fd_sc_hd__ha_1
* cell instance $93 m0 *1 20.7,13.6
X$93 7 25 34 26 6 21 3 7 3 sky130_fd_sc_hd__o22ai_1
* cell instance $94 m0 *1 23,13.6
X$94 7 27 9 25 11 7 3 3 sky130_fd_sc_hd__or3_1
* cell instance $96 m0 *1 26.22,13.6
X$96 7 6 7 3 27 3 sky130_fd_sc_hd__inv_1
* cell instance $97 m0 *1 27.6,13.6
X$97 7 18 7 3 28 3 sky130_fd_sc_hd__inv_1
* cell instance $99 m0 *1 29.44,13.6
X$99 3 24 6 30 18 4 22 7 7 3 sky130_fd_sc_hd__a32o_1
* cell instance $100 m0 *1 33.12,13.6
X$100 7 28 22 36 7 23 3 3 sky130_fd_sc_hd__o21ai_0
* cell instance $102 m0 *1 35.42,13.6
X$102 3 14 30 16 29 7 7 3 sky130_fd_sc_hd__dfstp_2
* cell instance $117 r0 *1 17.02,13.6
X$117 3 40 31 33 6 7 7 3 sky130_fd_sc_hd__mux2_2
* cell instance $118 r0 *1 21.16,13.6
X$118 7 6 20 34 7 3 3 sky130_fd_sc_hd__nand2_1
* cell instance $122 r0 *1 28.52,13.6
X$122 7 27 42 32 22 7 3 3 sky130_fd_sc_hd__or3_1
* cell instance $124 r0 *1 31.28,13.6
X$124 7 27 4 15 7 36 3 3 sky130_fd_sc_hd__o21ai_0
* cell instance $125 r0 *1 33.12,13.6
X$125 7 30 6 15 3 7 37 3 sky130_fd_sc_hd__a21oi_1
* cell instance $126 r0 *1 34.96,13.6
X$126 7 37 6 4 3 7 29 3 sky130_fd_sc_hd__a21oi_1
* cell instance $128 r0 *1 37.26,13.6
X$128 7 6 4 35 7 3 3 sky130_fd_sc_hd__nand2_1
* cell instance $129 r0 *1 38.64,13.6
X$129 7 35 15 39 4 41 3 7 3 sky130_fd_sc_hd__o22ai_1
* cell instance $130 r0 *1 40.94,13.6
X$130 7 38 7 3 39 3 sky130_fd_sc_hd__inv_1
* cell instance $137 r0 *1 48.3,13.6
X$137 7 38 3 7 48 3 sky130_fd_sc_hd__clkdlybuf4s50_1
* cell instance $149 m0 *1 13.8,19.04
X$149 3 14 31 8 40 7 7 3 sky130_fd_sc_hd__dfrtp_1
* cell instance $157 m0 *1 35.42,19.04
X$157 7 6 15 43 7 3 3 sky130_fd_sc_hd__nand2_1
* cell instance $161 m0 *1 40.02,19.04
X$161 7 30 41 38 43 3 44 7 3 sky130_fd_sc_hd__a22o_1
* cell instance $162 m0 *1 43.24,19.04
X$162 3 14 38 16 44 7 7 3 sky130_fd_sc_hd__dfrtp_1
* cell instance $167 r0 *1 4.14,19.04
X$167 7 50 3 7 49 3 sky130_fd_sc_hd__clkdlybuf4s50_1
* cell instance $175 r0 *1 21.62,19.04
X$175 7 42 45 55 7 3 3 sky130_fd_sc_hd__nand2_1
* cell instance $177 r0 *1 24.84,19.04
X$177 3 46 6 57 31 56 7 7 3 sky130_fd_sc_hd__and4b_1
* cell instance $178 r0 *1 28.52,19.04
X$178 7 18 30 6 45 3 7 3 sky130_fd_sc_hd__nand3b_1
* cell instance $179 r0 *1 31.28,19.04
X$179 7 30 18 6 7 47 3 3 sky130_fd_sc_hd__o21ai_0
* cell instance $180 r0 *1 33.12,19.04
X$180 7 51 47 54 7 3 3 sky130_fd_sc_hd__nand2_1
* cell instance $184 r0 *1 37.72,19.04
X$184 7 30 6 53 7 3 3 sky130_fd_sc_hd__nand2_1
* cell instance $196 m0 *1 1.38,24.48
X$196 3 14 50 8 64 7 7 3 sky130_fd_sc_hd__dfrtp_1
* cell instance $198 m0 *1 12.42,24.48
X$198 3 14 42 8 61 7 7 3 sky130_fd_sc_hd__dfrtp_1
* cell instance $199 m0 *1 21.62,24.48
X$199 3 61 42 55 68 7 7 3 sky130_fd_sc_hd__mux2i_1
* cell instance $200 m0 *1 25.3,24.48
X$200 7 31 46 51 56 7 32 3 3 sky130_fd_sc_hd__nand4b_1
* cell instance $203 m0 *1 29.44,24.48
X$203 7 51 57 32 18 58 7 3 3 sky130_fd_sc_hd__o211ai_1
* cell instance $204 m0 *1 32.2,24.48
X$204 7 54 58 62 7 3 3 sky130_fd_sc_hd__nand2_1
* cell instance $205 m0 *1 33.58,24.48
X$205 3 14 51 16 62 7 7 3 sky130_fd_sc_hd__dfrtp_1
* cell instance $207 m0 *1 43.24,24.48
X$207 7 59 53 52 7 3 3 sky130_fd_sc_hd__nand2_1
* cell instance $208 m0 *1 44.62,24.48
X$208 7 43 52 66 7 3 3 sky130_fd_sc_hd__nand2_1
* cell instance $211 m0 *1 48.3,24.48
X$211 7 59 3 7 60 3 sky130_fd_sc_hd__clkdlybuf4s50_1
* cell instance $215 r0 *1 5.06,24.48
X$215 3 64 65 50 43 7 7 3 sky130_fd_sc_hd__mux2_2
* cell instance $224 r0 *1 23.46,24.48
X$224 7 67 51 63 69 7 68 3 3 sky130_fd_sc_hd__nand4_1
* cell instance $225 r0 *1 25.76,24.48
X$225 3 18 46 69 31 6 7 7 3 sky130_fd_sc_hd__and4b_1
* cell instance $233 r0 *1 43.24,24.48
X$233 3 14 59 16 66 7 7 3 sky130_fd_sc_hd__dfrtp_1
* cell instance $243 m0 *1 7.82,29.92
X$243 7 70 3 7 74 3 sky130_fd_sc_hd__clkdlybuf4s50_1
* cell instance $246 m0 *1 12.88,29.92
X$246 3 14 65 8 71 7 7 3 sky130_fd_sc_hd__dfrtp_1
* cell instance $247 m0 *1 22.08,29.92
X$247 7 69 45 72 3 7 3 sky130_fd_sc_hd__nor2b_1
* cell instance $248 m0 *1 24.38,29.92
X$248 3 76 56 63 67 7 7 3 sky130_fd_sc_hd__ha_1
* cell instance $253 m0 *1 35.42,29.92
X$253 7 84 3 16 7 3 sky130_fd_sc_hd__clkbuf_4
* cell instance $256 m0 *1 45.54,29.92
X$256 3 14 75 16 73 7 7 3 sky130_fd_sc_hd__dfrtp_1
* cell instance $260 r0 *1 7.36,29.92
X$260 7 84 3 8 7 3 sky130_fd_sc_hd__clkbuf_4
* cell instance $261 r0 *1 10.12,29.92
X$261 3 8 7 7 3 sky130_fd_sc_hd__clkbuf_8
* cell instance $264 r0 *1 15.64,29.92
X$264 7 65 72 74 69 3 71 7 3 sky130_fd_sc_hd__a22o_1
* cell instance $266 r0 *1 20.7,29.92
X$266 3 14 63 8 81 7 7 3 sky130_fd_sc_hd__dfrtp_1
* cell instance $267 r0 *1 29.9,29.92
X$267 3 14 67 16 82 7 7 3 sky130_fd_sc_hd__dfrtp_1
* cell instance $272 r0 *1 46.92,29.92
X$272 3 73 78 75 43 7 7 3 sky130_fd_sc_hd__mux2_2
* cell instance $273 r0 *1 51.06,29.92
X$273 7 75 3 7 80 3 sky130_fd_sc_hd__clkdlybuf4s50_1
* cell instance $280 m0 *1 4.14,35.36
X$280 7 86 3 7 85 3 sky130_fd_sc_hd__clkdlybuf4s50_1
* cell instance $281 m0 *1 7.82,35.36
X$281 3 14 83 8 77 7 7 3 sky130_fd_sc_hd__dfrtp_1
* cell instance $282 m0 *1 17.02,35.36
X$282 7 83 72 65 69 3 77 7 3 sky130_fd_sc_hd__a22o_1
* cell instance $285 m0 *1 21.62,35.36
X$285 3 81 69 72 63 7 7 3 sky130_fd_sc_hd__mux2_2
* cell instance $286 m0 *1 25.76,35.36
X$286 7 67 72 76 69 3 82 7 3 sky130_fd_sc_hd__a22o_1
* cell instance $290 m0 *1 32.2,35.36
X$290 7 78 72 90 69 3 79 7 3 sky130_fd_sc_hd__a22o_1
* cell instance $292 m0 *1 37.26,35.36
X$292 3 14 78 16 79 7 7 3 sky130_fd_sc_hd__dfrtp_1
* cell instance $296 r0 *1 1.38,35.36
X$296 3 14 86 8 87 7 7 3 sky130_fd_sc_hd__dfrtp_1
* cell instance $297 r0 *1 10.58,35.36
X$297 3 87 83 86 43 7 7 3 sky130_fd_sc_hd__mux2_2
* cell instance $304 r0 *1 23.92,35.36
X$304 7 89 3 84 7 3 sky130_fd_sc_hd__clkbuf_4
* cell instance $324 m0 *1 14.72,40.8
X$324 7 93 72 83 69 3 99 7 3 sky130_fd_sc_hd__a22o_1
* cell instance $325 m0 *1 17.94,40.8
X$325 7 96 72 93 69 3 100 7 3 sky130_fd_sc_hd__a22o_1
* cell instance $328 m0 *1 25.76,40.8
X$328 7 94 72 96 69 3 101 7 3 sky130_fd_sc_hd__a22o_1
* cell instance $330 m0 *1 29.44,40.8
X$330 7 95 72 94 69 3 102 7 3 sky130_fd_sc_hd__a22o_1
* cell instance $331 m0 *1 32.66,40.8
X$331 7 90 72 95 69 3 91 7 3 sky130_fd_sc_hd__a22o_1
* cell instance $332 m0 *1 35.88,40.8
X$332 3 14 90 16 91 7 7 3 sky130_fd_sc_hd__dfrtp_1
* cell instance $335 m0 *1 45.08,40.8
X$335 3 92 90 98 43 7 7 3 sky130_fd_sc_hd__mux2_2
* cell instance $347 r0 *1 15.64,40.8
X$347 3 14 93 16 99 7 7 3 sky130_fd_sc_hd__dfrtp_1
* cell instance $351 r0 *1 30.82,40.8
X$351 3 14 95 16 102 7 7 3 sky130_fd_sc_hd__dfrtp_1
* cell instance $361 r0 *1 51.06,40.8
X$361 7 98 3 7 88 3 sky130_fd_sc_hd__clkdlybuf4s50_1
* cell instance $364 m0 *1 5.98,46.24
X$364 3 97 93 103 43 7 7 3 sky130_fd_sc_hd__mux2_2
* cell instance $369 m0 *1 19.78,46.24
X$369 3 14 96 8 100 7 7 3 sky130_fd_sc_hd__dfrtp_1
* cell instance $377 m0 *1 45.54,46.24
X$377 3 14 98 16 92 7 7 3 sky130_fd_sc_hd__dfrtp_1
* cell instance $378 r0 *1 1.38,46.24
X$378 3 14 103 8 97 7 7 3 sky130_fd_sc_hd__dfrtp_1
* cell instance $383 r0 *1 15.64,46.24
X$383 3 105 96 107 43 7 7 3 sky130_fd_sc_hd__mux2_2
* cell instance $384 r0 *1 19.78,46.24
X$384 3 14 94 8 101 7 7 3 sky130_fd_sc_hd__dfrtp_1
* cell instance $386 r0 *1 30.82,46.24
X$386 3 14 106 16 110 7 7 3 sky130_fd_sc_hd__dfrtp_1
* cell instance $403 m0 *1 10.12,51.68
X$403 3 14 107 8 105 7 7 3 sky130_fd_sc_hd__dfrtp_1
* cell instance $411 m0 *1 32.2,51.68
X$411 7 106 3 7 108 3 sky130_fd_sc_hd__clkdlybuf4s50_1
* cell instance $415 m0 *1 39.1,51.68
X$415 3 104 95 109 43 7 7 3 sky130_fd_sc_hd__mux2_2
* cell instance $416 m0 *1 43.24,51.68
X$416 3 14 109 16 104 7 7 3 sky130_fd_sc_hd__dfrtp_1
* cell instance $422 r0 *1 9.66,51.68
X$422 7 103 3 7 111 3 sky130_fd_sc_hd__clkdlybuf4s50_1
* cell instance $428 r0 *1 18.4,51.68
X$428 7 107 3 7 112 3 sky130_fd_sc_hd__clkdlybuf4s50_1
* cell instance $437 r0 *1 32.66,51.68
X$437 3 110 94 106 43 7 7 3 sky130_fd_sc_hd__mux2_2
* cell instance $443 r0 *1 43.24,51.68
X$443 7 109 3 7 113 3 sky130_fd_sc_hd__clkdlybuf4s50_1
.ENDS parameterized_deserializer

* cell sky130_fd_sc_hd__buf_4
* pin VPB
* pin A
* pin VPWR
* pin VGND
* pin X
* pin 
.SUBCKT sky130_fd_sc_hd__buf_4 1 3 4 5 6 7
* net 1 VPB
* net 3 A
* net 4 VPWR
* net 5 VGND
* net 6 X
* device instance $1 r0 *1 0.47,1.985 pfet_01v8_hvt
M$1 4 3 2 1 pfet_01v8_hvt L=150000U W=1000000U AS=260000000000P
+ AD=135000000000P PS=2520000U PD=1270000U
* device instance $2 r0 *1 0.89,1.985 pfet_01v8_hvt
M$2 6 2 4 1 pfet_01v8_hvt L=150000U W=4000000U AS=540000000000P
+ AD=665000000000P PS=5080000U PD=6330000U
* device instance $6 r0 *1 0.47,0.56 nfet_01v8
M$6 5 3 2 7 nfet_01v8 L=150000U W=650000U AS=169000000000P AD=87750000000P
+ PS=1820000U PD=920000U
* device instance $7 r0 *1 0.89,0.56 nfet_01v8
M$7 6 2 5 7 nfet_01v8 L=150000U W=2600000U AS=351000000000P AD=432250000000P
+ PS=3680000U PD=4580000U
.ENDS sky130_fd_sc_hd__buf_4

* cell sky130_fd_sc_hd__a32o_1
* pin VGND
* pin X
* pin A2
* pin A1
* pin B1
* pin A3
* pin B2
* pin VPWR
* pin VPB
* pin 
.SUBCKT sky130_fd_sc_hd__a32o_1 1 2 3 4 5 7 8 13 14 15
* net 1 VGND
* net 2 X
* net 3 A2
* net 4 A1
* net 5 B1
* net 7 A3
* net 8 B2
* net 13 VPWR
* net 14 VPB
* device instance $1 r0 *1 0.54,1.985 pfet_01v8_hvt
M$1 13 6 2 14 pfet_01v8_hvt L=150000U W=1000000U AS=330000000000P
+ AD=242500000000P PS=2660000U PD=1485000U
* device instance $2 r0 *1 1.175,1.985 pfet_01v8_hvt
M$2 12 7 13 14 pfet_01v8_hvt L=150000U W=1000000U AS=242500000000P
+ AD=165000000000P PS=1485000U PD=1330000U
* device instance $3 r0 *1 1.655,1.985 pfet_01v8_hvt
M$3 13 3 12 14 pfet_01v8_hvt L=150000U W=1000000U AS=165000000000P
+ AD=225000000000P PS=1330000U PD=1450000U
* device instance $4 r0 *1 2.255,1.985 pfet_01v8_hvt
M$4 12 4 13 14 pfet_01v8_hvt L=150000U W=1000000U AS=225000000000P
+ AD=185000000000P PS=1450000U PD=1370000U
* device instance $5 r0 *1 2.775,1.985 pfet_01v8_hvt
M$5 6 5 12 14 pfet_01v8_hvt L=150000U W=1000000U AS=185000000000P
+ AD=140000000000P PS=1370000U PD=1280000U
* device instance $6 r0 *1 3.205,1.985 pfet_01v8_hvt
M$6 12 8 6 14 pfet_01v8_hvt L=150000U W=1000000U AS=140000000000P
+ AD=265000000000P PS=1280000U PD=2530000U
* device instance $7 r0 *1 0.54,0.56 nfet_01v8
M$7 1 6 2 15 nfet_01v8 L=150000U W=650000U AS=214500000000P AD=167375000000P
+ PS=1960000U PD=1165000U
* device instance $8 r0 *1 1.205,0.56 nfet_01v8
M$8 9 7 1 15 nfet_01v8 L=150000U W=650000U AS=167375000000P AD=97500000000P
+ PS=1165000U PD=950000U
* device instance $9 r0 *1 1.655,0.56 nfet_01v8
M$9 11 3 9 15 nfet_01v8 L=150000U W=650000U AS=97500000000P AD=146250000000P
+ PS=950000U PD=1100000U
* device instance $10 r0 *1 2.255,0.56 nfet_01v8
M$10 6 4 11 15 nfet_01v8 L=150000U W=650000U AS=146250000000P AD=143000000000P
+ PS=1100000U PD=1090000U
* device instance $11 r0 *1 2.845,0.56 nfet_01v8
M$11 10 5 6 15 nfet_01v8 L=150000U W=650000U AS=143000000000P AD=68250000000P
+ PS=1090000U PD=860000U
* device instance $12 r0 *1 3.205,0.56 nfet_01v8
M$12 1 8 10 15 nfet_01v8 L=150000U W=650000U AS=68250000000P AD=172250000000P
+ PS=860000U PD=1830000U
.ENDS sky130_fd_sc_hd__a32o_1

* cell sky130_fd_sc_hd__nand3b_1
* pin VPB
* pin A_N
* pin C
* pin B
* pin Y
* pin VGND
* pin VPWR
* pin 
.SUBCKT sky130_fd_sc_hd__nand3b_1 1 2 3 4 5 7 8 9
* net 1 VPB
* net 2 A_N
* net 3 C
* net 4 B
* net 5 Y
* net 7 VGND
* net 8 VPWR
* device instance $1 r0 *1 0.6,1.695 pfet_01v8_hvt
M$1 8 2 6 1 pfet_01v8_hvt L=150000U W=420000U AS=109200000000P AD=145750000000P
+ PS=1360000U PD=1335000U
* device instance $2 r0 *1 1.085,1.985 pfet_01v8_hvt
M$2 5 3 8 1 pfet_01v8_hvt L=150000U W=1000000U AS=145750000000P
+ AD=135000000000P PS=1335000U PD=1270000U
* device instance $3 r0 *1 1.505,1.985 pfet_01v8_hvt
M$3 8 4 5 1 pfet_01v8_hvt L=150000U W=1000000U AS=135000000000P
+ AD=192500000000P PS=1270000U PD=1385000U
* device instance $4 r0 *1 2.04,1.985 pfet_01v8_hvt
M$4 5 6 8 1 pfet_01v8_hvt L=150000U W=1000000U AS=192500000000P
+ AD=280000000000P PS=1385000U PD=2560000U
* device instance $5 r0 *1 0.6,0.675 nfet_01v8
M$5 6 2 7 9 nfet_01v8 L=150000U W=420000U AS=100250000000P AD=109200000000P
+ PS=985000U PD=1360000U
* device instance $6 r0 *1 1.085,0.56 nfet_01v8
M$6 11 3 7 9 nfet_01v8 L=150000U W=650000U AS=100250000000P AD=87750000000P
+ PS=985000U PD=920000U
* device instance $7 r0 *1 1.505,0.56 nfet_01v8
M$7 10 4 11 9 nfet_01v8 L=150000U W=650000U AS=87750000000P AD=125125000000P
+ PS=920000U PD=1035000U
* device instance $8 r0 *1 2.04,0.56 nfet_01v8
M$8 5 6 10 9 nfet_01v8 L=150000U W=650000U AS=125125000000P AD=182000000000P
+ PS=1035000U PD=1860000U
.ENDS sky130_fd_sc_hd__nand3b_1

* cell sky130_fd_sc_hd__o211ai_1
* pin VPB
* pin A1
* pin A2
* pin B1
* pin C1
* pin Y
* pin VPWR
* pin VGND
* pin 
.SUBCKT sky130_fd_sc_hd__o211ai_1 1 2 3 4 5 7 8 9 10
* net 1 VPB
* net 2 A1
* net 3 A2
* net 4 B1
* net 5 C1
* net 7 Y
* net 8 VPWR
* net 9 VGND
* device instance $1 r0 *1 0.475,1.985 pfet_01v8_hvt
M$1 11 2 8 1 pfet_01v8_hvt L=150000U W=1000000U AS=265000000000P
+ AD=105000000000P PS=2530000U PD=1210000U
* device instance $2 r0 *1 0.835,1.985 pfet_01v8_hvt
M$2 7 3 11 1 pfet_01v8_hvt L=150000U W=1000000U AS=105000000000P
+ AD=195000000000P PS=1210000U PD=1390000U
* device instance $3 r0 *1 1.375,1.985 pfet_01v8_hvt
M$3 8 4 7 1 pfet_01v8_hvt L=150000U W=1000000U AS=195000000000P
+ AD=195000000000P PS=1390000U PD=1390000U
* device instance $4 r0 *1 1.915,1.985 pfet_01v8_hvt
M$4 7 5 8 1 pfet_01v8_hvt L=150000U W=1000000U AS=195000000000P
+ AD=635000000000P PS=1390000U PD=3270000U
* device instance $5 r0 *1 0.475,0.56 nfet_01v8
M$5 9 2 6 10 nfet_01v8 L=150000U W=650000U AS=172250000000P AD=126750000000P
+ PS=1830000U PD=1040000U
* device instance $6 r0 *1 1.015,0.56 nfet_01v8
M$6 6 3 9 10 nfet_01v8 L=150000U W=650000U AS=126750000000P AD=126750000000P
+ PS=1040000U PD=1040000U
* device instance $7 r0 *1 1.555,0.56 nfet_01v8
M$7 12 4 6 10 nfet_01v8 L=150000U W=650000U AS=126750000000P AD=68250000000P
+ PS=1040000U PD=860000U
* device instance $8 r0 *1 1.915,0.56 nfet_01v8
M$8 7 5 12 10 nfet_01v8 L=150000U W=650000U AS=68250000000P AD=393250000000P
+ PS=860000U PD=2510000U
.ENDS sky130_fd_sc_hd__o211ai_1

* cell sky130_fd_sc_hd__dfstp_2
* pin VGND
* pin SET_B
* pin Q
* pin CLK
* pin D
* pin VPB
* pin VPWR
* pin 
.SUBCKT sky130_fd_sc_hd__dfstp_2 1 6 10 16 17 19 20 24
* net 1 VGND
* net 6 SET_B
* net 10 Q
* net 16 CLK
* net 17 D
* net 19 VPB
* net 20 VPWR
* device instance $1 r0 *1 8.345,1.985 pfet_01v8_hvt
M$1 20 8 9 19 pfet_01v8_hvt L=150000U W=1000000U AS=260000000000P
+ AD=135000000000P PS=2520000U PD=1270000U
* device instance $2 r0 *1 8.765,1.985 pfet_01v8_hvt
M$2 10 9 20 19 pfet_01v8_hvt L=150000U W=2000000U AS=270000000000P
+ AD=395000000000P PS=2540000U PD=3790000U
* device instance $4 r0 *1 6.905,2.275 pfet_01v8_hvt
M$4 8 6 20 19 pfet_01v8_hvt L=150000U W=420000U AS=120750000000P
+ AD=109200000000P PS=1165000U PD=1360000U
* device instance $5 r0 *1 7.38,2.065 pfet_01v8_hvt
M$5 18 8 20 19 pfet_01v8_hvt L=150000U W=840000U AS=120750000000P
+ AD=222600000000P PS=1165000U PD=2210000U
* device instance $6 r0 *1 0.47,2.135 pfet_01v8_hvt
M$6 20 16 2 19 pfet_01v8_hvt L=150000U W=640000U AS=166400000000P
+ AD=86400000000P PS=1800000U PD=910000U
* device instance $7 r0 *1 0.89,2.135 pfet_01v8_hvt
M$7 3 2 20 19 pfet_01v8_hvt L=150000U W=640000U AS=86400000000P
+ AD=166400000000P PS=910000U PD=1800000U
* device instance $8 r0 *1 1.83,2.065 pfet_01v8_hvt
M$8 4 17 20 19 pfet_01v8_hvt L=150000U W=840000U AS=218400000000P
+ AD=124950000000P PS=2200000U PD=1175000U
* device instance $9 r0 *1 2.315,2.275 pfet_01v8_hvt
M$9 5 3 4 19 pfet_01v8_hvt L=150000U W=420000U AS=124950000000P AD=56700000000P
+ PS=1175000U PD=690000U
* device instance $10 r0 *1 2.735,2.275 pfet_01v8_hvt
M$10 21 2 5 19 pfet_01v8_hvt L=150000U W=420000U AS=56700000000P
+ AD=94500000000P PS=690000U PD=870000U
* device instance $11 r0 *1 3.335,2.275 pfet_01v8_hvt
M$11 20 7 21 19 pfet_01v8_hvt L=150000U W=420000U AS=94500000000P
+ AD=79800000000P PS=870000U PD=800000U
* device instance $12 r0 *1 3.865,2.275 pfet_01v8_hvt
M$12 7 6 20 19 pfet_01v8_hvt L=150000U W=420000U AS=79800000000P
+ AD=56700000000P PS=800000U PD=690000U
* device instance $13 r0 *1 4.285,2.275 pfet_01v8_hvt
M$13 20 5 7 19 pfet_01v8_hvt L=150000U W=420000U AS=56700000000P
+ AD=56700000000P PS=690000U PD=690000U
* device instance $14 r0 *1 4.705,2.275 pfet_01v8_hvt
M$14 22 5 20 19 pfet_01v8_hvt L=150000U W=420000U AS=56700000000P
+ AD=44100000000P PS=690000U PD=630000U
* device instance $15 r0 *1 5.065,2.275 pfet_01v8_hvt
M$15 8 2 22 19 pfet_01v8_hvt L=150000U W=420000U AS=44100000000P
+ AD=81900000000P PS=630000U PD=810000U
* device instance $16 r0 *1 5.605,2.275 pfet_01v8_hvt
M$16 23 3 8 19 pfet_01v8_hvt L=150000U W=420000U AS=81900000000P
+ AD=44100000000P PS=810000U PD=630000U
* device instance $17 r0 *1 5.965,2.275 pfet_01v8_hvt
M$17 20 18 23 19 pfet_01v8_hvt L=150000U W=420000U AS=44100000000P
+ AD=109200000000P PS=630000U PD=1360000U
* device instance $18 r0 *1 8.345,0.56 nfet_01v8
M$18 1 8 9 24 nfet_01v8 L=150000U W=650000U AS=169000000000P AD=87750000000P
+ PS=1820000U PD=920000U
* device instance $19 r0 *1 8.765,0.56 nfet_01v8
M$19 10 9 1 24 nfet_01v8 L=150000U W=1300000U AS=175500000000P AD=256750000000P
+ PS=1840000U PD=2740000U
* device instance $21 r0 *1 2.305,0.415 nfet_01v8
M$21 5 2 4 24 nfet_01v8 L=150000U W=360000U AS=93500000000P AD=72000000000P
+ PS=965000U PD=760000U
* device instance $22 r0 *1 2.855,0.415 nfet_01v8
M$22 12 3 5 24 nfet_01v8 L=150000U W=360000U AS=72000000000P AD=67050000000P
+ PS=760000U PD=750000U
* device instance $23 r0 *1 3.335,0.445 nfet_01v8
M$23 1 7 12 24 nfet_01v8 L=150000U W=420000U AS=67050000000P AD=88200000000P
+ PS=750000U PD=840000U
* device instance $24 r0 *1 3.905,0.445 nfet_01v8
M$24 15 6 1 24 nfet_01v8 L=150000U W=420000U AS=88200000000P AD=44100000000P
+ PS=840000U PD=630000U
* device instance $25 r0 *1 4.265,0.445 nfet_01v8
M$25 7 5 15 24 nfet_01v8 L=150000U W=420000U AS=44100000000P AD=109200000000P
+ PS=630000U PD=1360000U
* device instance $26 r0 *1 1.83,0.555 nfet_01v8
M$26 4 17 1 24 nfet_01v8 L=150000U W=640000U AS=166400000000P AD=93500000000P
+ PS=1800000U PD=965000U
* device instance $27 r0 *1 0.47,0.445 nfet_01v8
M$27 1 16 2 24 nfet_01v8 L=150000U W=420000U AS=109200000000P AD=56700000000P
+ PS=1360000U PD=690000U
* device instance $28 r0 *1 0.89,0.445 nfet_01v8
M$28 3 2 1 24 nfet_01v8 L=150000U W=420000U AS=56700000000P AD=109200000000P
+ PS=690000U PD=1360000U
* device instance $29 r0 *1 5.205,0.445 nfet_01v8
M$29 13 5 1 24 nfet_01v8 L=150000U W=420000U AS=109200000000P AD=44100000000P
+ PS=1360000U PD=630000U
* device instance $30 r0 *1 5.565,0.445 nfet_01v8
M$30 8 3 13 24 nfet_01v8 L=150000U W=420000U AS=44100000000P AD=73500000000P
+ PS=630000U PD=770000U
* device instance $31 r0 *1 6.065,0.445 nfet_01v8
M$31 14 2 8 24 nfet_01v8 L=150000U W=420000U AS=73500000000P AD=44100000000P
+ PS=770000U PD=630000U
* device instance $32 r0 *1 6.425,0.445 nfet_01v8
M$32 11 18 14 24 nfet_01v8 L=150000U W=420000U AS=44100000000P AD=44100000000P
+ PS=630000U PD=630000U
* device instance $33 r0 *1 6.785,0.445 nfet_01v8
M$33 1 6 11 24 nfet_01v8 L=150000U W=420000U AS=44100000000P AD=113700000000P
+ PS=630000U PD=1010000U
* device instance $34 r0 *1 7.405,0.505 nfet_01v8
M$34 18 8 1 24 nfet_01v8 L=150000U W=540000U AS=113700000000P AD=140400000000P
+ PS=1010000U PD=1600000U
.ENDS sky130_fd_sc_hd__dfstp_2

* cell sky130_fd_sc_hd__a21oi_1
* pin VPB
* pin B1
* pin A1
* pin A2
* pin VGND
* pin VPWR
* pin Y
* pin 
.SUBCKT sky130_fd_sc_hd__a21oi_1 1 2 3 4 5 7 8 9
* net 1 VPB
* net 2 B1
* net 3 A1
* net 4 A2
* net 5 VGND
* net 7 VPWR
* net 8 Y
* device instance $1 r0 *1 0.49,1.985 pfet_01v8_hvt
M$1 6 2 8 1 pfet_01v8_hvt L=150000U W=1000000U AS=265000000000P
+ AD=140000000000P PS=2530000U PD=1280000U
* device instance $2 r0 *1 0.92,1.985 pfet_01v8_hvt
M$2 7 3 6 1 pfet_01v8_hvt L=150000U W=1000000U AS=140000000000P
+ AD=147500000000P PS=1280000U PD=1295000U
* device instance $3 r0 *1 1.365,1.985 pfet_01v8_hvt
M$3 6 4 7 1 pfet_01v8_hvt L=150000U W=1000000U AS=147500000000P
+ AD=265000000000P PS=1295000U PD=2530000U
* device instance $4 r0 *1 0.49,0.56 nfet_01v8
M$4 8 2 5 9 nfet_01v8 L=150000U W=650000U AS=172250000000P AD=91000000000P
+ PS=1830000U PD=930000U
* device instance $5 r0 *1 0.92,0.56 nfet_01v8
M$5 10 3 8 9 nfet_01v8 L=150000U W=650000U AS=91000000000P AD=95875000000P
+ PS=930000U PD=945000U
* device instance $6 r0 *1 1.365,0.56 nfet_01v8
M$6 5 4 10 9 nfet_01v8 L=150000U W=650000U AS=95875000000P AD=172250000000P
+ PS=945000U PD=1830000U
.ENDS sky130_fd_sc_hd__a21oi_1

* cell sky130_fd_sc_hd__o22ai_1
* pin VPB
* pin B1
* pin B2
* pin A2
* pin A1
* pin Y
* pin VGND
* pin VPWR
* pin 
.SUBCKT sky130_fd_sc_hd__o22ai_1 1 2 3 4 5 7 8 9 10
* net 1 VPB
* net 2 B1
* net 3 B2
* net 4 A2
* net 5 A1
* net 7 Y
* net 8 VGND
* net 9 VPWR
* device instance $1 r0 *1 0.47,1.985 pfet_01v8_hvt
M$1 12 2 9 1 pfet_01v8_hvt L=150000U W=1000000U AS=260000000000P
+ AD=112500000000P PS=2520000U PD=1225000U
* device instance $2 r0 *1 0.845,1.985 pfet_01v8_hvt
M$2 7 3 12 1 pfet_01v8_hvt L=150000U W=1000000U AS=112500000000P
+ AD=232500000000P PS=1225000U PD=1465000U
* device instance $3 r0 *1 1.46,1.985 pfet_01v8_hvt
M$3 11 4 7 1 pfet_01v8_hvt L=150000U W=1000000U AS=232500000000P
+ AD=105000000000P PS=1465000U PD=1210000U
* device instance $4 r0 *1 1.82,1.985 pfet_01v8_hvt
M$4 9 5 11 1 pfet_01v8_hvt L=150000U W=1000000U AS=105000000000P
+ AD=270000000000P PS=1210000U PD=2540000U
* device instance $5 r0 *1 0.47,0.56 nfet_01v8
M$5 7 2 6 10 nfet_01v8 L=150000U W=650000U AS=169000000000P AD=92625000000P
+ PS=1820000U PD=935000U
* device instance $6 r0 *1 0.905,0.56 nfet_01v8
M$6 6 3 7 10 nfet_01v8 L=150000U W=650000U AS=92625000000P AD=115375000000P
+ PS=935000U PD=1005000U
* device instance $7 r0 *1 1.41,0.56 nfet_01v8
M$7 8 4 6 10 nfet_01v8 L=150000U W=650000U AS=115375000000P AD=87750000000P
+ PS=1005000U PD=920000U
* device instance $8 r0 *1 1.83,0.56 nfet_01v8
M$8 6 5 8 10 nfet_01v8 L=150000U W=650000U AS=87750000000P AD=169000000000P
+ PS=920000U PD=1820000U
.ENDS sky130_fd_sc_hd__o22ai_1

* cell sky130_fd_sc_hd__mux2i_1
* pin VGND
* pin Y
* pin A0
* pin A1
* pin S
* pin VPWR
* pin VPB
* pin 
.SUBCKT sky130_fd_sc_hd__mux2i_1 1 3 6 7 8 10 11 13
* net 1 VGND
* net 3 Y
* net 6 A0
* net 7 A1
* net 8 S
* net 10 VPWR
* net 11 VPB
* device instance $1 r0 *1 3.21,1.985 pfet_01v8_hvt
M$1 10 8 5 11 pfet_01v8_hvt L=150000U W=1000000U AS=290000000000P
+ AD=260000000000P PS=2580000U PD=2520000U
* device instance $2 r0 *1 0.49,1.985 pfet_01v8_hvt
M$2 3 6 9 11 pfet_01v8_hvt L=150000U W=1000000U AS=280000000000P
+ AD=152500000000P PS=2560000U PD=1305000U
* device instance $3 r0 *1 0.945,1.985 pfet_01v8_hvt
M$3 12 7 3 11 pfet_01v8_hvt L=150000U W=1000000U AS=152500000000P
+ AD=197500000000P PS=1305000U PD=1395000U
* device instance $4 r0 *1 1.49,1.985 pfet_01v8_hvt
M$4 10 5 12 11 pfet_01v8_hvt L=150000U W=1000000U AS=197500000000P
+ AD=300000000000P PS=1395000U PD=1600000U
* device instance $5 r0 *1 2.24,1.985 pfet_01v8_hvt
M$5 9 8 10 11 pfet_01v8_hvt L=150000U W=1000000U AS=300000000000P
+ AD=260000000000P PS=1600000U PD=2520000U
* device instance $6 r0 *1 3.21,0.56 nfet_01v8
M$6 1 8 5 13 nfet_01v8 L=150000U W=650000U AS=169000000000P AD=169000000000P
+ PS=1820000U PD=1820000U
* device instance $7 r0 *1 1.85,0.56 nfet_01v8
M$7 1 5 2 13 nfet_01v8 L=150000U W=650000U AS=169000000000P AD=87750000000P
+ PS=1820000U PD=920000U
* device instance $8 r0 *1 2.27,0.56 nfet_01v8
M$8 4 8 1 13 nfet_01v8 L=150000U W=650000U AS=87750000000P AD=169000000000P
+ PS=920000U PD=1820000U
* device instance $9 r0 *1 0.47,0.56 nfet_01v8
M$9 3 6 2 13 nfet_01v8 L=150000U W=650000U AS=169000000000P AD=87750000000P
+ PS=1820000U PD=920000U
* device instance $10 r0 *1 0.89,0.56 nfet_01v8
M$10 4 7 3 13 nfet_01v8 L=150000U W=650000U AS=87750000000P AD=182000000000P
+ PS=920000U PD=1860000U
.ENDS sky130_fd_sc_hd__mux2i_1

* cell sky130_fd_sc_hd__nand4_1
* pin VPB
* pin C
* pin A
* pin B
* pin D
* pin VPWR
* pin Y
* pin VGND
* pin 
.SUBCKT sky130_fd_sc_hd__nand4_1 1 2 3 4 5 6 7 8 9
* net 1 VPB
* net 2 C
* net 3 A
* net 4 B
* net 5 D
* net 6 VPWR
* net 7 Y
* net 8 VGND
* device instance $1 r0 *1 0.47,1.985 pfet_01v8_hvt
M$1 7 5 6 1 pfet_01v8_hvt L=150000U W=1000000U AS=260000000000P
+ AD=135000000000P PS=2520000U PD=1270000U
* device instance $2 r0 *1 0.89,1.985 pfet_01v8_hvt
M$2 6 2 7 1 pfet_01v8_hvt L=150000U W=1000000U AS=135000000000P
+ AD=135000000000P PS=1270000U PD=1270000U
* device instance $3 r0 *1 1.31,1.985 pfet_01v8_hvt
M$3 7 4 6 1 pfet_01v8_hvt L=150000U W=1000000U AS=135000000000P
+ AD=165000000000P PS=1270000U PD=1330000U
* device instance $4 r0 *1 1.79,1.985 pfet_01v8_hvt
M$4 6 3 7 1 pfet_01v8_hvt L=150000U W=1000000U AS=165000000000P
+ AD=300000000000P PS=1330000U PD=2600000U
* device instance $5 r0 *1 0.47,0.56 nfet_01v8
M$5 12 5 8 9 nfet_01v8 L=150000U W=650000U AS=169000000000P AD=87750000000P
+ PS=1820000U PD=920000U
* device instance $6 r0 *1 0.89,0.56 nfet_01v8
M$6 11 2 12 9 nfet_01v8 L=150000U W=650000U AS=87750000000P AD=87750000000P
+ PS=920000U PD=920000U
* device instance $7 r0 *1 1.31,0.56 nfet_01v8
M$7 10 4 11 9 nfet_01v8 L=150000U W=650000U AS=87750000000P AD=107250000000P
+ PS=920000U PD=980000U
* device instance $8 r0 *1 1.79,0.56 nfet_01v8
M$8 7 3 10 9 nfet_01v8 L=150000U W=650000U AS=107250000000P AD=195000000000P
+ PS=980000U PD=1900000U
.ENDS sky130_fd_sc_hd__nand4_1

* cell sky130_fd_sc_hd__nand2_1
* pin VPB
* pin A
* pin B
* pin Y
* pin VPWR
* pin VGND
* pin 
.SUBCKT sky130_fd_sc_hd__nand2_1 1 2 3 4 5 6 7
* net 1 VPB
* net 2 A
* net 3 B
* net 4 Y
* net 5 VPWR
* net 6 VGND
* device instance $1 r0 *1 0.49,1.985 pfet_01v8_hvt
M$1 4 3 5 1 pfet_01v8_hvt L=150000U W=1000000U AS=260000000000P
+ AD=135000000000P PS=2520000U PD=1270000U
* device instance $2 r0 *1 0.91,1.985 pfet_01v8_hvt
M$2 5 2 4 1 pfet_01v8_hvt L=150000U W=1000000U AS=135000000000P
+ AD=260000000000P PS=1270000U PD=2520000U
* device instance $3 r0 *1 0.49,0.56 nfet_01v8
M$3 8 3 6 7 nfet_01v8 L=150000U W=650000U AS=169000000000P AD=87750000000P
+ PS=1820000U PD=920000U
* device instance $4 r0 *1 0.91,0.56 nfet_01v8
M$4 4 2 8 7 nfet_01v8 L=150000U W=650000U AS=87750000000P AD=169000000000P
+ PS=920000U PD=1820000U
.ENDS sky130_fd_sc_hd__nand2_1

* cell sky130_fd_sc_hd__o21ai_0
* pin VPB
* pin A1
* pin A2
* pin B1
* pin VPWR
* pin Y
* pin VGND
* pin 
.SUBCKT sky130_fd_sc_hd__o21ai_0 1 2 3 4 5 6 8 9
* net 1 VPB
* net 2 A1
* net 3 A2
* net 4 B1
* net 5 VPWR
* net 6 Y
* net 8 VGND
* device instance $1 r0 *1 0.525,2.165 pfet_01v8_hvt
M$1 10 2 5 1 pfet_01v8_hvt L=150000U W=640000U AS=169600000000P AD=76800000000P
+ PS=1810000U PD=880000U
* device instance $2 r0 *1 0.915,2.165 pfet_01v8_hvt
M$2 6 3 10 1 pfet_01v8_hvt L=150000U W=640000U AS=76800000000P AD=89600000000P
+ PS=880000U PD=920000U
* device instance $3 r0 *1 1.345,2.165 pfet_01v8_hvt
M$3 5 4 6 1 pfet_01v8_hvt L=150000U W=640000U AS=89600000000P AD=182400000000P
+ PS=920000U PD=1850000U
* device instance $4 r0 *1 0.5,0.445 nfet_01v8
M$4 8 2 7 9 nfet_01v8 L=150000U W=420000U AS=111300000000P AD=58800000000P
+ PS=1370000U PD=700000U
* device instance $5 r0 *1 0.93,0.445 nfet_01v8
M$5 7 3 8 9 nfet_01v8 L=150000U W=420000U AS=58800000000P AD=58800000000P
+ PS=700000U PD=700000U
* device instance $6 r0 *1 1.36,0.445 nfet_01v8
M$6 6 4 7 9 nfet_01v8 L=150000U W=420000U AS=58800000000P AD=111300000000P
+ PS=700000U PD=1370000U
.ENDS sky130_fd_sc_hd__o21ai_0

* cell sky130_fd_sc_hd__or3_1
* pin VPB
* pin A
* pin B
* pin C
* pin X
* pin VPWR
* pin VGND
* pin 
.SUBCKT sky130_fd_sc_hd__or3_1 1 2 3 4 5 6 7 9
* net 1 VPB
* net 2 A
* net 3 B
* net 4 C
* net 5 X
* net 6 VPWR
* net 7 VGND
* device instance $1 r0 *1 0.48,1.695 pfet_01v8_hvt
M$1 11 4 8 1 pfet_01v8_hvt L=150000U W=420000U AS=109200000000P AD=44100000000P
+ PS=1360000U PD=630000U
* device instance $2 r0 *1 0.84,1.695 pfet_01v8_hvt
M$2 10 3 11 1 pfet_01v8_hvt L=150000U W=420000U AS=44100000000P AD=69300000000P
+ PS=630000U PD=750000U