* CDL Netlist generated by OpenROAD

*.BUSDELIMITER [

.SUBCKT register_file clk read_addr1[0] read_addr1[1] read_addr1[2]
+ read_addr1[3] read_addr1[4] read_addr2[0] read_addr2[1] read_addr2[2]
+ read_addr2[3] read_addr2[4] read_data1[0] read_data1[10] read_data1[11]
+ read_data1[12] read_data1[13] read_data1[14] read_data1[15]
+ read_data1[16] read_data1[17] read_data1[18] read_data1[19]
+ read_data1[1] read_data1[20] read_data1[21] read_data1[22]
+ read_data1[23] read_data1[24] read_data1[25] read_data1[26]
+ read_data1[27] read_data1[28] read_data1[29] read_data1[2]
+ read_data1[30] read_data1[31] read_data1[3] read_data1[4]
+ read_data1[5] read_data1[6] read_data1[7] read_data1[8] read_data1[9]
+ read_data2[0] read_data2[10] read_data2[11] read_data2[12]
+ read_data2[13] read_data2[14] read_data2[15] read_data2[16]
+ read_data2[17] read_data2[18] read_data2[19] read_data2[1]
+ read_data2[20] read_data2[21] read_data2[22] read_data2[23]
+ read_data2[24] read_data2[25] read_data2[26] read_data2[27]
+ read_data2[28] read_data2[29] read_data2[2] read_data2[30]
+ read_data2[31] read_data2[3] read_data2[4] read_data2[5] read_data2[6]
+ read_data2[7] read_data2[8] read_data2[9] read_en1 read_en2
+ rst_n write_addr[0] write_addr[1] write_addr[2] write_addr[3]
+ write_addr[4] write_data[0] write_data[10] write_data[11]
+ write_data[12] write_data[13] write_data[14] write_data[15]
+ write_data[16] write_data[17] write_data[18] write_data[19]
+ write_data[1] write_data[20] write_data[21] write_data[22]
+ write_data[23] write_data[24] write_data[25] write_data[26]
+ write_data[27] write_data[28] write_data[29] write_data[2]
+ write_data[30] write_data[31] write_data[3] write_data[4]
+ write_data[5] write_data[6] write_data[7] write_data[8] write_data[9]
+ write_en
X_06970_ write_data[31] _01088_ VDD VSS CLKBUF_X3
X_06971_ _01088_ _01089_ VDD VSS BUF_X4
X_06972_ net3 _01090_ VDD VSS BUF_X4
X_06973_ write_addr[4] _01091_ VDD VSS BUF_X4
X_06974_ write_addr[2] _01092_ VDD VSS BUF_X4
X_06975_ _01090_ _01091_ _01092_ _01093_ VDD VSS NAND3_X2
X_06976_ write_addr[1] _01094_ VDD VSS BUF_X4
X_06977_ rst_n _01095_ VDD VSS BUF_X2
X_06978_ write_addr[0] _01096_ VDD VSS CLKBUF_X3
X_06979_ _01095_ _01096_ net4 _01097_ VDD VSS NAND3_X1
X_06980_ _01094_ _01097_ _01098_ VDD VSS OR2_X2
X_06981_ _01093_ _01098_ _01099_ VDD VSS NOR2_X1
X_06982_ _01099_ _01100_ VDD VSS BUF_X4
X_06983_ _01100_ _01101_ VDD VSS BUF_X4
X_06984_ _01089_ _01101_ _01102_ VDD VSS NAND2_X1
X_06985_ _01095_ _01103_ VDD VSS BUF_X4
X_06986_ _01103_ _01104_ VDD VSS BUF_X4
X_06987_ _01104_ _01105_ VDD VSS BUF_X4
X_06988_ _01105_ registers\[29\]\[31\] _01106_ VDD VSS NAND2_X1
X_06989_ _01100_ _01107_ VDD VSS BUF_X4
X_06990_ _01102_ _01106_ _01107_ _00001_ VDD VSS OAI21_X1
X_06991_ write_data[3] _01108_ VDD VSS CLKBUF_X3
X_06992_ _01108_ _01109_ VDD VSS BUF_X4
X_06993_ _01109_ _01101_ _01110_ VDD VSS NAND2_X1
X_06994_ _01105_ registers\[29\]\[3\] _01111_ VDD VSS NAND2_X1
X_06995_ _01110_ _01111_ _01107_ _00002_ VDD VSS OAI21_X1
X_06996_ write_data[4] _01112_ VDD VSS CLKBUF_X3
X_06997_ _01112_ _01113_ VDD VSS BUF_X4
X_06998_ _01113_ _01101_ _01114_ VDD VSS NAND2_X1
X_06999_ _01105_ registers\[29\]\[4\] _01115_ VDD VSS NAND2_X1
X_07000_ _01114_ _01115_ _01107_ _00003_ VDD VSS OAI21_X1
X_07001_ write_data[5] _01116_ VDD VSS CLKBUF_X3
X_07002_ _01116_ _01117_ VDD VSS BUF_X4
X_07003_ _01117_ _01101_ _01118_ VDD VSS NAND2_X1
X_07004_ _01105_ registers\[29\]\[5\] _01119_ VDD VSS NAND2_X1
X_07005_ _01118_ _01119_ _01107_ _00004_ VDD VSS OAI21_X1
X_07006_ write_data[6] _01120_ VDD VSS BUF_X4
X_07007_ _01120_ _01121_ VDD VSS CLKBUF_X3
X_07008_ _01121_ _01101_ _01122_ VDD VSS NAND2_X1
X_07009_ _01105_ registers\[29\]\[6\] _01123_ VDD VSS NAND2_X1
X_07010_ _01122_ _01123_ _01107_ _00005_ VDD VSS OAI21_X1
X_07011_ write_data[7] _01124_ VDD VSS BUF_X4
X_07012_ _01124_ _01125_ VDD VSS CLKBUF_X3
X_07013_ _01125_ _01101_ _01126_ VDD VSS NAND2_X1
X_07014_ _01105_ registers\[29\]\[7\] _01127_ VDD VSS NAND2_X1
X_07015_ _01126_ _01127_ _01107_ _00006_ VDD VSS OAI21_X1
X_07016_ write_data[8] _01128_ VDD VSS CLKBUF_X3
X_07017_ _01128_ _01129_ VDD VSS CLKBUF_X3
X_07018_ _01129_ _01101_ _01130_ VDD VSS NAND2_X1
X_07019_ _01105_ registers\[29\]\[8\] _01131_ VDD VSS NAND2_X1
X_07020_ _01130_ _01131_ _01107_ _00007_ VDD VSS OAI21_X1
X_07021_ write_data[9] _01132_ VDD VSS CLKBUF_X3
X_07022_ _01132_ _01133_ VDD VSS BUF_X4
X_07023_ _01133_ _01101_ _01134_ VDD VSS NAND2_X1
X_07024_ _01105_ registers\[29\]\[9\] _01135_ VDD VSS NAND2_X1
X_07025_ _01134_ _01135_ _01107_ _00008_ VDD VSS OAI21_X1
X_07026_ write_data[0] _01136_ VDD VSS BUF_X2
X_07027_ _01136_ _01137_ VDD VSS CLKBUF_X3
X_07028_ net3 _01091_ _01092_ _01138_ VDD VSS OR3_X1
X_07029_ _01096_ _01139_ VDD VSS INV_X1
X_07030_ _01095_ net4 _01140_ VDD VSS AND2_X2
X_07031_ _01139_ _01094_ _01140_ _01141_ VDD VSS NAND3_X4
X_07032_ _01138_ _01141_ _01142_ VDD VSS NOR2_X1
X_07033_ _01142_ _01143_ VDD VSS CLKBUF_X3
X_07034_ _01143_ _01144_ VDD VSS CLKBUF_X3
X_07035_ _01137_ _01144_ _01145_ VDD VSS NAND2_X1
X_07036_ _01105_ registers\[2\]\[0\] _01146_ VDD VSS NAND2_X1
X_07037_ _01143_ _01147_ VDD VSS CLKBUF_X3
X_07038_ _01145_ _01146_ _01147_ _00009_ VDD VSS OAI21_X1
X_07039_ write_data[10] _01148_ VDD VSS BUF_X2
X_07040_ _01148_ _01149_ VDD VSS CLKBUF_X3
X_07041_ _01149_ _01144_ _01150_ VDD VSS NAND2_X1
X_07042_ _01105_ registers\[2\]\[10\] _01151_ VDD VSS NAND2_X1
X_07043_ _01150_ _01151_ _01147_ _00010_ VDD VSS OAI21_X1
X_07044_ write_data[11] _01152_ VDD VSS BUF_X2
X_07045_ _01152_ _01153_ VDD VSS CLKBUF_X3
X_07046_ _01153_ _01144_ _01154_ VDD VSS NAND2_X1
X_07047_ _01104_ _01155_ VDD VSS CLKBUF_X3
X_07048_ _01155_ registers\[2\]\[11\] _01156_ VDD VSS NAND2_X1
X_07049_ _01154_ _01156_ _01147_ _00011_ VDD VSS OAI21_X1
X_07050_ write_data[12] _01157_ VDD VSS BUF_X2
X_07051_ _01157_ _01158_ VDD VSS CLKBUF_X3
X_07052_ _01158_ _01144_ _01159_ VDD VSS NAND2_X1
X_07053_ _01155_ registers\[2\]\[12\] _01160_ VDD VSS NAND2_X1
X_07054_ _01159_ _01160_ _01147_ _00012_ VDD VSS OAI21_X1
X_07055_ write_data[13] _01161_ VDD VSS BUF_X2
X_07056_ _01161_ _01162_ VDD VSS BUF_X4
X_07057_ _01162_ _01144_ _01163_ VDD VSS NAND2_X1
X_07058_ _01155_ registers\[2\]\[13\] _01164_ VDD VSS NAND2_X1
X_07059_ _01163_ _01164_ _01147_ _00013_ VDD VSS OAI21_X1
X_07060_ write_data[14] _01165_ VDD VSS BUF_X2
X_07061_ _01165_ _01166_ VDD VSS BUF_X4
X_07062_ _01166_ _01144_ _01167_ VDD VSS NAND2_X1
X_07063_ _01155_ registers\[2\]\[14\] _01168_ VDD VSS NAND2_X1
X_07064_ _01167_ _01168_ _01147_ _00014_ VDD VSS OAI21_X1
X_07065_ write_data[15] _01169_ VDD VSS BUF_X2
X_07066_ _01169_ _01170_ VDD VSS BUF_X4
X_07067_ _01170_ _01144_ _01171_ VDD VSS NAND2_X1
X_07068_ _01155_ registers\[2\]\[15\] _01172_ VDD VSS NAND2_X1
X_07069_ _01171_ _01172_ _01147_ _00015_ VDD VSS OAI21_X1
X_07070_ write_data[16] _01173_ VDD VSS BUF_X2
X_07071_ _01173_ _01174_ VDD VSS CLKBUF_X3
X_07072_ _01174_ _01144_ _01175_ VDD VSS NAND2_X1
X_07073_ _01155_ registers\[2\]\[16\] _01176_ VDD VSS NAND2_X1
X_07074_ _01175_ _01176_ _01147_ _00016_ VDD VSS OAI21_X1
X_07075_ write_data[17] _01177_ VDD VSS CLKBUF_X3
X_07076_ _01177_ _01178_ VDD VSS BUF_X4
X_07077_ _01143_ _01179_ VDD VSS CLKBUF_X3
X_07078_ _01178_ _01179_ _01180_ VDD VSS NAND2_X1
X_07079_ _01155_ registers\[2\]\[17\] _01181_ VDD VSS NAND2_X1
X_07080_ _01180_ _01181_ _01147_ _00017_ VDD VSS OAI21_X1
X_07081_ write_data[18] _01182_ VDD VSS CLKBUF_X3
X_07082_ _01182_ _01183_ VDD VSS BUF_X4
X_07083_ _01183_ _01179_ _01184_ VDD VSS NAND2_X1
X_07084_ _01155_ registers\[2\]\[18\] _01185_ VDD VSS NAND2_X1
X_07085_ _01184_ _01185_ _01147_ _00018_ VDD VSS OAI21_X1
X_07086_ write_data[19] _01186_ VDD VSS BUF_X2
X_07087_ _01186_ _01187_ VDD VSS CLKBUF_X3
X_07088_ _01187_ _01179_ _01188_ VDD VSS NAND2_X1
X_07089_ _01155_ registers\[2\]\[19\] _01189_ VDD VSS NAND2_X1
X_07090_ _01143_ _01190_ VDD VSS CLKBUF_X3
X_07091_ _01188_ _01189_ _01190_ _00019_ VDD VSS OAI21_X1
X_07092_ write_data[1] _01191_ VDD VSS BUF_X2
X_07093_ _01191_ _01192_ VDD VSS CLKBUF_X3
X_07094_ _01192_ _01179_ _01193_ VDD VSS NAND2_X1
X_07095_ _01155_ registers\[2\]\[1\] _01194_ VDD VSS NAND2_X1
X_07096_ _01193_ _01194_ _01190_ _00020_ VDD VSS OAI21_X1
X_07097_ write_data[20] _01195_ VDD VSS BUF_X2
X_07098_ _01195_ _01196_ VDD VSS CLKBUF_X3
X_07099_ _01196_ _01179_ _01197_ VDD VSS NAND2_X1
X_07100_ _01104_ _01198_ VDD VSS CLKBUF_X3
X_07101_ _01198_ registers\[2\]\[20\] _01199_ VDD VSS NAND2_X1
X_07102_ _01197_ _01199_ _01190_ _00021_ VDD VSS OAI21_X1
X_07103_ write_data[21] _01200_ VDD VSS BUF_X2
X_07104_ _01200_ _01201_ VDD VSS CLKBUF_X3
X_07105_ _01201_ _01179_ _01202_ VDD VSS NAND2_X1
X_07106_ _01198_ registers\[2\]\[21\] _01203_ VDD VSS NAND2_X1
X_07107_ _01202_ _01203_ _01190_ _00022_ VDD VSS OAI21_X1
X_07108_ write_data[22] _01204_ VDD VSS BUF_X2
X_07109_ _01204_ _01205_ VDD VSS CLKBUF_X3
X_07110_ _01205_ _01179_ _01206_ VDD VSS NAND2_X1
X_07111_ _01198_ registers\[2\]\[22\] _01207_ VDD VSS NAND2_X1
X_07112_ _01206_ _01207_ _01190_ _00023_ VDD VSS OAI21_X1
X_07113_ write_data[23] _01208_ VDD VSS BUF_X2
X_07114_ _01208_ _01209_ VDD VSS CLKBUF_X3
X_07115_ _01209_ _01179_ _01210_ VDD VSS NAND2_X1
X_07116_ _01198_ registers\[2\]\[23\] _01211_ VDD VSS NAND2_X1
X_07117_ _01210_ _01211_ _01190_ _00024_ VDD VSS OAI21_X1
X_07118_ write_data[24] _01212_ VDD VSS BUF_X2
X_07119_ _01212_ _01213_ VDD VSS CLKBUF_X3
X_07120_ _01213_ _01179_ _01214_ VDD VSS NAND2_X1
X_07121_ _01198_ registers\[2\]\[24\] _01215_ VDD VSS NAND2_X1
X_07122_ _01214_ _01215_ _01190_ _00025_ VDD VSS OAI21_X1
X_07123_ write_data[25] _01216_ VDD VSS CLKBUF_X3
X_07124_ _01216_ _01217_ VDD VSS BUF_X4
X_07125_ _01217_ _01179_ _01218_ VDD VSS NAND2_X1
X_07126_ _01198_ registers\[2\]\[25\] _01219_ VDD VSS NAND2_X1
X_07127_ _01218_ _01219_ _01190_ _00026_ VDD VSS OAI21_X1
X_07128_ write_data[26] _01220_ VDD VSS CLKBUF_X3
X_07129_ _01220_ _01221_ VDD VSS CLKBUF_X3
X_07130_ _01143_ _01222_ VDD VSS CLKBUF_X3
X_07131_ _01221_ _01222_ _01223_ VDD VSS NAND2_X1
X_07132_ _01198_ registers\[2\]\[26\] _01224_ VDD VSS NAND2_X1
X_07133_ _01223_ _01224_ _01190_ _00027_ VDD VSS OAI21_X1
X_07134_ write_data[27] _01225_ VDD VSS BUF_X4
X_07135_ _01225_ _01226_ VDD VSS BUF_X4
X_07136_ _01226_ _01222_ _01227_ VDD VSS NAND2_X1
X_07137_ _01198_ registers\[2\]\[27\] _01228_ VDD VSS NAND2_X1
X_07138_ _01227_ _01228_ _01190_ _00028_ VDD VSS OAI21_X1
X_07139_ write_data[28] _01229_ VDD VSS CLKBUF_X3
X_07140_ _01229_ _01230_ VDD VSS BUF_X4
X_07141_ _01230_ _01222_ _01231_ VDD VSS NAND2_X1
X_07142_ _01198_ registers\[2\]\[28\] _01232_ VDD VSS NAND2_X1
X_07143_ _01143_ _01233_ VDD VSS CLKBUF_X3
X_07144_ _01231_ _01232_ _01233_ _00029_ VDD VSS OAI21_X1
X_07145_ write_data[29] _01234_ VDD VSS CLKBUF_X3
X_07146_ _01234_ _01235_ VDD VSS BUF_X4
X_07147_ _01235_ _01222_ _01236_ VDD VSS NAND2_X1
X_07148_ _01198_ registers\[2\]\[29\] _01237_ VDD VSS NAND2_X1
X_07149_ _01236_ _01237_ _01233_ _00030_ VDD VSS OAI21_X1
X_07150_ write_data[2] _01238_ VDD VSS BUF_X4
X_07151_ _01238_ _01239_ VDD VSS BUF_X4
X_07152_ _01239_ _01222_ _01240_ VDD VSS NAND2_X1
X_07153_ _01104_ _01241_ VDD VSS CLKBUF_X3
X_07154_ _01241_ registers\[2\]\[2\] _01242_ VDD VSS NAND2_X1
X_07155_ _01240_ _01242_ _01233_ _00031_ VDD VSS OAI21_X1
X_07156_ write_data[30] _01243_ VDD VSS CLKBUF_X3
X_07157_ _01243_ _01244_ VDD VSS BUF_X4
X_07158_ _01244_ _01222_ _01245_ VDD VSS NAND2_X1
X_07159_ _01241_ registers\[2\]\[30\] _01246_ VDD VSS NAND2_X1
X_07160_ _01245_ _01246_ _01233_ _00032_ VDD VSS OAI21_X1
X_07161_ _01089_ _01222_ _01247_ VDD VSS NAND2_X1
X_07162_ _01241_ registers\[2\]\[31\] _01248_ VDD VSS NAND2_X1
X_07163_ _01247_ _01248_ _01233_ _00033_ VDD VSS OAI21_X1
X_07164_ _01109_ _01222_ _01249_ VDD VSS NAND2_X1
X_07165_ _01241_ registers\[2\]\[3\] _01250_ VDD VSS NAND2_X1
X_07166_ _01249_ _01250_ _01233_ _00034_ VDD VSS OAI21_X1
X_07167_ _01113_ _01222_ _01251_ VDD VSS NAND2_X1
X_07168_ _01241_ registers\[2\]\[4\] _01252_ VDD VSS NAND2_X1
X_07169_ _01251_ _01252_ _01233_ _00035_ VDD VSS OAI21_X1
X_07170_ _01117_ _01222_ _01253_ VDD VSS NAND2_X1
X_07171_ _01241_ registers\[2\]\[5\] _01254_ VDD VSS NAND2_X1
X_07172_ _01253_ _01254_ _01233_ _00036_ VDD VSS OAI21_X1
X_07173_ _01121_ _01143_ _01255_ VDD VSS NAND2_X1
X_07174_ _01241_ registers\[2\]\[6\] _01256_ VDD VSS NAND2_X1
X_07175_ _01255_ _01256_ _01233_ _00037_ VDD VSS OAI21_X1
X_07176_ _01125_ _01143_ _01257_ VDD VSS NAND2_X1
X_07177_ _01241_ registers\[2\]\[7\] _01258_ VDD VSS NAND2_X1
X_07178_ _01257_ _01258_ _01233_ _00038_ VDD VSS OAI21_X1
X_07179_ _01129_ _01143_ _01259_ VDD VSS NAND2_X1
X_07180_ _01241_ registers\[2\]\[8\] _01260_ VDD VSS NAND2_X1
X_07181_ _01259_ _01260_ _01144_ _00039_ VDD VSS OAI21_X1
X_07182_ _01133_ _01143_ _01261_ VDD VSS NAND2_X1
X_07183_ _01241_ registers\[2\]\[9\] _01262_ VDD VSS NAND2_X1
X_07184_ _01261_ _01262_ _01144_ _00040_ VDD VSS OAI21_X1
X_07185_ _01093_ _01141_ _01263_ VDD VSS NOR2_X1
X_07186_ _01263_ _01264_ VDD VSS CLKBUF_X3
X_07187_ _01264_ _01265_ VDD VSS CLKBUF_X3
X_07188_ _01137_ _01265_ _01266_ VDD VSS NAND2_X1
X_07189_ _01103_ _01267_ VDD VSS BUF_X4
X_07190_ _01267_ _01268_ VDD VSS CLKBUF_X3
X_07191_ _01268_ registers\[30\]\[0\] _01269_ VDD VSS NAND2_X1
X_07192_ _01264_ _01270_ VDD VSS CLKBUF_X3
X_07193_ _01266_ _01269_ _01270_ _00041_ VDD VSS OAI21_X1
X_07194_ _01149_ _01265_ _01271_ VDD VSS NAND2_X1
X_07195_ _01268_ registers\[30\]\[10\] _01272_ VDD VSS NAND2_X1
X_07196_ _01271_ _01272_ _01270_ _00042_ VDD VSS OAI21_X1
X_07197_ _01153_ _01265_ _01273_ VDD VSS NAND2_X1
X_07198_ _01268_ registers\[30\]\[11\] _01274_ VDD VSS NAND2_X1
X_07199_ _01273_ _01274_ _01270_ _00043_ VDD VSS OAI21_X1
X_07200_ _01158_ _01265_ _01275_ VDD VSS NAND2_X1
X_07201_ _01268_ registers\[30\]\[12\] _01276_ VDD VSS NAND2_X1
X_07202_ _01275_ _01276_ _01270_ _00044_ VDD VSS OAI21_X1
X_07203_ _01162_ _01265_ _01277_ VDD VSS NAND2_X1
X_07204_ _01268_ registers\[30\]\[13\] _01278_ VDD VSS NAND2_X1
X_07205_ _01277_ _01278_ _01270_ _00045_ VDD VSS OAI21_X1
X_07206_ _01166_ _01265_ _01279_ VDD VSS NAND2_X1
X_07207_ _01268_ registers\[30\]\[14\] _01280_ VDD VSS NAND2_X1
X_07208_ _01279_ _01280_ _01270_ _00046_ VDD VSS OAI21_X1
X_07209_ _01170_ _01265_ _01281_ VDD VSS NAND2_X1
X_07210_ _01268_ registers\[30\]\[15\] _01282_ VDD VSS NAND2_X1
X_07211_ _01281_ _01282_ _01270_ _00047_ VDD VSS OAI21_X1
X_07212_ _01174_ _01265_ _01283_ VDD VSS NAND2_X1
X_07213_ _01268_ registers\[30\]\[16\] _01284_ VDD VSS NAND2_X1
X_07214_ _01283_ _01284_ _01270_ _00048_ VDD VSS OAI21_X1
X_07215_ _01264_ _01285_ VDD VSS CLKBUF_X3
X_07216_ _01178_ _01285_ _01286_ VDD VSS NAND2_X1
X_07217_ _01268_ registers\[30\]\[17\] _01287_ VDD VSS NAND2_X1
X_07218_ _01286_ _01287_ _01270_ _00049_ VDD VSS OAI21_X1
X_07219_ _01183_ _01285_ _01288_ VDD VSS NAND2_X1
X_07220_ _01268_ registers\[30\]\[18\] _01289_ VDD VSS NAND2_X1
X_07221_ _01288_ _01289_ _01270_ _00050_ VDD VSS OAI21_X1
X_07222_ _01187_ _01285_ _01290_ VDD VSS NAND2_X1
X_07223_ _01267_ _01291_ VDD VSS CLKBUF_X3
X_07224_ _01291_ registers\[30\]\[19\] _01292_ VDD VSS NAND2_X1
X_07225_ _01264_ _01293_ VDD VSS CLKBUF_X3
X_07226_ _01290_ _01292_ _01293_ _00051_ VDD VSS OAI21_X1
X_07227_ _01192_ _01285_ _01294_ VDD VSS NAND2_X1
X_07228_ _01291_ registers\[30\]\[1\] _01295_ VDD VSS NAND2_X1
X_07229_ _01294_ _01295_ _01293_ _00052_ VDD VSS OAI21_X1
X_07230_ _01196_ _01285_ _01296_ VDD VSS NAND2_X1
X_07231_ _01291_ registers\[30\]\[20\] _01297_ VDD VSS NAND2_X1
X_07232_ _01296_ _01297_ _01293_ _00053_ VDD VSS OAI21_X1
X_07233_ _01201_ _01285_ _01298_ VDD VSS NAND2_X1
X_07234_ _01291_ registers\[30\]\[21\] _01299_ VDD VSS NAND2_X1
X_07235_ _01298_ _01299_ _01293_ _00054_ VDD VSS OAI21_X1
X_07236_ _01205_ _01285_ _01300_ VDD VSS NAND2_X1
X_07237_ _01291_ registers\[30\]\[22\] _01301_ VDD VSS NAND2_X1
X_07238_ _01300_ _01301_ _01293_ _00055_ VDD VSS OAI21_X1
X_07239_ _01209_ _01285_ _01302_ VDD VSS NAND2_X1
X_07240_ _01291_ registers\[30\]\[23\] _01303_ VDD VSS NAND2_X1
X_07241_ _01302_ _01303_ _01293_ _00056_ VDD VSS OAI21_X1
X_07242_ _01213_ _01285_ _01304_ VDD VSS NAND2_X1
X_07243_ _01291_ registers\[30\]\[24\] _01305_ VDD VSS NAND2_X1
X_07244_ _01304_ _01305_ _01293_ _00057_ VDD VSS OAI21_X1
X_07245_ _01217_ _01285_ _01306_ VDD VSS NAND2_X1
X_07246_ _01291_ registers\[30\]\[25\] _01307_ VDD VSS NAND2_X1
X_07247_ _01306_ _01307_ _01293_ _00058_ VDD VSS OAI21_X1
X_07248_ _01264_ _01308_ VDD VSS CLKBUF_X3
X_07249_ _01221_ _01308_ _01309_ VDD VSS NAND2_X1
X_07250_ _01291_ registers\[30\]\[26\] _01310_ VDD VSS NAND2_X1
X_07251_ _01309_ _01310_ _01293_ _00059_ VDD VSS OAI21_X1
X_07252_ _01226_ _01308_ _01311_ VDD VSS NAND2_X1
X_07253_ _01291_ registers\[30\]\[27\] _01312_ VDD VSS NAND2_X1
X_07254_ _01311_ _01312_ _01293_ _00060_ VDD VSS OAI21_X1
X_07255_ _01230_ _01308_ _01313_ VDD VSS NAND2_X1
X_07256_ _01267_ _01314_ VDD VSS CLKBUF_X3
X_07257_ _01314_ registers\[30\]\[28\] _01315_ VDD VSS NAND2_X1
X_07258_ _01264_ _01316_ VDD VSS CLKBUF_X3
X_07259_ _01313_ _01315_ _01316_ _00061_ VDD VSS OAI21_X1
X_07260_ _01235_ _01308_ _01317_ VDD VSS NAND2_X1
X_07261_ _01314_ registers\[30\]\[29\] _01318_ VDD VSS NAND2_X1
X_07262_ _01317_ _01318_ _01316_ _00062_ VDD VSS OAI21_X1
X_07263_ _01239_ _01308_ _01319_ VDD VSS NAND2_X1
X_07264_ _01314_ registers\[30\]\[2\] _01320_ VDD VSS NAND2_X1
X_07265_ _01319_ _01320_ _01316_ _00063_ VDD VSS OAI21_X1
X_07266_ _01244_ _01308_ _01321_ VDD VSS NAND2_X1
X_07267_ _01314_ registers\[30\]\[30\] _01322_ VDD VSS NAND2_X1
X_07268_ _01321_ _01322_ _01316_ _00064_ VDD VSS OAI21_X1
X_07269_ _01089_ _01308_ _01323_ VDD VSS NAND2_X1
X_07270_ _01314_ registers\[30\]\[31\] _01324_ VDD VSS NAND2_X1
X_07271_ _01323_ _01324_ _01316_ _00065_ VDD VSS OAI21_X1
X_07272_ _01109_ _01308_ _01325_ VDD VSS NAND2_X1
X_07273_ _01314_ registers\[30\]\[3\] _01326_ VDD VSS NAND2_X1
X_07274_ _01325_ _01326_ _01316_ _00066_ VDD VSS OAI21_X1
X_07275_ _01113_ _01308_ _01327_ VDD VSS NAND2_X1
X_07276_ _01314_ registers\[30\]\[4\] _01328_ VDD VSS NAND2_X1
X_07277_ _01327_ _01328_ _01316_ _00067_ VDD VSS OAI21_X1
X_07278_ _01117_ _01308_ _01329_ VDD VSS NAND2_X1
X_07279_ _01314_ registers\[30\]\[5\] _01330_ VDD VSS NAND2_X1
X_07280_ _01329_ _01330_ _01316_ _00068_ VDD VSS OAI21_X1
X_07281_ _01121_ _01264_ _01331_ VDD VSS NAND2_X1
X_07282_ _01314_ registers\[30\]\[6\] _01332_ VDD VSS NAND2_X1
X_07283_ _01331_ _01332_ _01316_ _00069_ VDD VSS OAI21_X1
X_07284_ _01125_ _01264_ _01333_ VDD VSS NAND2_X1
X_07285_ _01314_ registers\[30\]\[7\] _01334_ VDD VSS NAND2_X1
X_07286_ _01333_ _01334_ _01316_ _00070_ VDD VSS OAI21_X1
X_07287_ _01129_ _01264_ _01335_ VDD VSS NAND2_X1
X_07288_ _01267_ _01336_ VDD VSS CLKBUF_X3
X_07289_ _01336_ registers\[30\]\[8\] _01337_ VDD VSS NAND2_X1
X_07290_ _01335_ _01337_ _01265_ _00071_ VDD VSS OAI21_X1
X_07291_ _01133_ _01264_ _01338_ VDD VSS NAND2_X1
X_07292_ _01336_ registers\[30\]\[9\] _01339_ VDD VSS NAND2_X1
X_07293_ _01338_ _01339_ _01265_ _00072_ VDD VSS OAI21_X1
X_07294_ _01096_ _01094_ _01140_ _01340_ VDD VSS NAND3_X4
X_07295_ _01093_ _01340_ _01341_ VDD VSS NOR2_X1
X_07296_ _01341_ _01342_ VDD VSS BUF_X4
X_07297_ _01342_ _01343_ VDD VSS BUF_X4
X_07298_ _01137_ _01343_ _01344_ VDD VSS NAND2_X1
X_07299_ _01336_ registers\[31\]\[0\] _01345_ VDD VSS NAND2_X1
X_07300_ _01342_ _01346_ VDD VSS BUF_X4
X_07301_ _01344_ _01345_ _01346_ _00073_ VDD VSS OAI21_X1
X_07302_ _01149_ _01343_ _01347_ VDD VSS NAND2_X1
X_07303_ _01336_ registers\[31\]\[10\] _01348_ VDD VSS NAND2_X1
X_07304_ _01347_ _01348_ _01346_ _00074_ VDD VSS OAI21_X1
X_07305_ _01153_ _01343_ _01349_ VDD VSS NAND2_X1
X_07306_ _01336_ registers\[31\]\[11\] _01350_ VDD VSS NAND2_X1
X_07307_ _01349_ _01350_ _01346_ _00075_ VDD VSS OAI21_X1
X_07308_ _01158_ _01343_ _01351_ VDD VSS NAND2_X1
X_07309_ _01336_ registers\[31\]\[12\] _01352_ VDD VSS NAND2_X1
X_07310_ _01351_ _01352_ _01346_ _00076_ VDD VSS OAI21_X1
X_07311_ _01162_ _01343_ _01353_ VDD VSS NAND2_X1
X_07312_ _01336_ registers\[31\]\[13\] _01354_ VDD VSS NAND2_X1
X_07313_ _01353_ _01354_ _01346_ _00077_ VDD VSS OAI21_X1
X_07314_ _01166_ _01343_ _01355_ VDD VSS NAND2_X1
X_07315_ _01336_ registers\[31\]\[14\] _01356_ VDD VSS NAND2_X1
X_07316_ _01355_ _01356_ _01346_ _00078_ VDD VSS OAI21_X1
X_07317_ _01170_ _01343_ _01357_ VDD VSS NAND2_X1
X_07318_ _01336_ registers\[31\]\[15\] _01358_ VDD VSS NAND2_X1
X_07319_ _01357_ _01358_ _01346_ _00079_ VDD VSS OAI21_X1
X_07320_ _01174_ _01343_ _01359_ VDD VSS NAND2_X1
X_07321_ _01336_ registers\[31\]\[16\] _01360_ VDD VSS NAND2_X1
X_07322_ _01359_ _01360_ _01346_ _00080_ VDD VSS OAI21_X1
X_07323_ _01342_ _01361_ VDD VSS CLKBUF_X3
X_07324_ _01178_ _01361_ _01362_ VDD VSS NAND2_X1
X_07325_ _01267_ _01363_ VDD VSS CLKBUF_X3
X_07326_ _01363_ registers\[31\]\[17\] _01364_ VDD VSS NAND2_X1
X_07327_ _01362_ _01364_ _01346_ _00081_ VDD VSS OAI21_X1
X_07328_ _01183_ _01361_ _01365_ VDD VSS NAND2_X1
X_07329_ _01363_ registers\[31\]\[18\] _01366_ VDD VSS NAND2_X1
X_07330_ _01365_ _01366_ _01346_ _00082_ VDD VSS OAI21_X1
X_07331_ _01187_ _01361_ _01367_ VDD VSS NAND2_X1
X_07332_ _01363_ registers\[31\]\[19\] _01368_ VDD VSS NAND2_X1
X_07333_ _01342_ _01369_ VDD VSS CLKBUF_X3
X_07334_ _01367_ _01368_ _01369_ _00083_ VDD VSS OAI21_X1
X_07335_ _01192_ _01361_ _01370_ VDD VSS NAND2_X1
X_07336_ _01363_ registers\[31\]\[1\] _01371_ VDD VSS NAND2_X1
X_07337_ _01370_ _01371_ _01369_ _00084_ VDD VSS OAI21_X1
X_07338_ _01196_ _01361_ _01372_ VDD VSS NAND2_X1
X_07339_ _01363_ registers\[31\]\[20\] _01373_ VDD VSS NAND2_X1
X_07340_ _01372_ _01373_ _01369_ _00085_ VDD VSS OAI21_X1
X_07341_ _01201_ _01361_ _01374_ VDD VSS NAND2_X1
X_07342_ _01363_ registers\[31\]\[21\] _01375_ VDD VSS NAND2_X1
X_07343_ _01374_ _01375_ _01369_ _00086_ VDD VSS OAI21_X1
X_07344_ _01205_ _01361_ _01376_ VDD VSS NAND2_X1
X_07345_ _01363_ registers\[31\]\[22\] _01377_ VDD VSS NAND2_X1
X_07346_ _01376_ _01377_ _01369_ _00087_ VDD VSS OAI21_X1
X_07347_ _01209_ _01361_ _01378_ VDD VSS NAND2_X1
X_07348_ _01363_ registers\[31\]\[23\] _01379_ VDD VSS NAND2_X1
X_07349_ _01378_ _01379_ _01369_ _00088_ VDD VSS OAI21_X1
X_07350_ _01213_ _01361_ _01380_ VDD VSS NAND2_X1
X_07351_ _01363_ registers\[31\]\[24\] _01381_ VDD VSS NAND2_X1
X_07352_ _01380_ _01381_ _01369_ _00089_ VDD VSS OAI21_X1
X_07353_ _01217_ _01361_ _01382_ VDD VSS NAND2_X1
X_07354_ _01363_ registers\[31\]\[25\] _01383_ VDD VSS NAND2_X1
X_07355_ _01382_ _01383_ _01369_ _00090_ VDD VSS OAI21_X1
X_07356_ _01342_ _01384_ VDD VSS CLKBUF_X3
X_07357_ _01221_ _01384_ _01385_ VDD VSS NAND2_X1
X_07358_ _01267_ _01386_ VDD VSS CLKBUF_X3
X_07359_ _01386_ registers\[31\]\[26\] _01387_ VDD VSS NAND2_X1
X_07360_ _01385_ _01387_ _01369_ _00091_ VDD VSS OAI21_X1
X_07361_ _01226_ _01384_ _01388_ VDD VSS NAND2_X1
X_07362_ _01386_ registers\[31\]\[27\] _01389_ VDD VSS NAND2_X1
X_07363_ _01388_ _01389_ _01369_ _00092_ VDD VSS OAI21_X1
X_07364_ _01230_ _01384_ _01390_ VDD VSS NAND2_X1
X_07365_ _01386_ registers\[31\]\[28\] _01391_ VDD VSS NAND2_X1
X_07366_ _01342_ _01392_ VDD VSS CLKBUF_X3
X_07367_ _01390_ _01391_ _01392_ _00093_ VDD VSS OAI21_X1
X_07368_ _01235_ _01384_ _01393_ VDD VSS NAND2_X1
X_07369_ _01386_ registers\[31\]\[29\] _01394_ VDD VSS NAND2_X1
X_07370_ _01393_ _01394_ _01392_ _00094_ VDD VSS OAI21_X1
X_07371_ _01239_ _01384_ _01395_ VDD VSS NAND2_X1
X_07372_ _01386_ registers\[31\]\[2\] _01396_ VDD VSS NAND2_X1
X_07373_ _01395_ _01396_ _01392_ _00095_ VDD VSS OAI21_X1
X_07374_ _01244_ _01384_ _01397_ VDD VSS NAND2_X1
X_07375_ _01386_ registers\[31\]\[30\] _01398_ VDD VSS NAND2_X1
X_07376_ _01397_ _01398_ _01392_ _00096_ VDD VSS OAI21_X1
X_07377_ _01089_ _01384_ _01399_ VDD VSS NAND2_X1
X_07378_ _01386_ registers\[31\]\[31\] _01400_ VDD VSS NAND2_X1
X_07379_ _01399_ _01400_ _01392_ _00097_ VDD VSS OAI21_X1
X_07380_ _01109_ _01384_ _01401_ VDD VSS NAND2_X1
X_07381_ _01386_ registers\[31\]\[3\] _01402_ VDD VSS NAND2_X1
X_07382_ _01401_ _01402_ _01392_ _00098_ VDD VSS OAI21_X1
X_07383_ _01113_ _01384_ _01403_ VDD VSS NAND2_X1
X_07384_ _01386_ registers\[31\]\[4\] _01404_ VDD VSS NAND2_X1
X_07385_ _01403_ _01404_ _01392_ _00099_ VDD VSS OAI21_X1
X_07386_ _01117_ _01384_ _01405_ VDD VSS NAND2_X1
X_07387_ _01386_ registers\[31\]\[5\] _01406_ VDD VSS NAND2_X1
X_07388_ _01405_ _01406_ _01392_ _00100_ VDD VSS OAI21_X1
X_07389_ _01121_ _01342_ _01407_ VDD VSS NAND2_X1
X_07390_ _01267_ _01408_ VDD VSS BUF_X4
X_07391_ _01408_ registers\[31\]\[6\] _01409_ VDD VSS NAND2_X1
X_07392_ _01407_ _01409_ _01392_ _00101_ VDD VSS OAI21_X1
X_07393_ _01125_ _01342_ _01410_ VDD VSS NAND2_X1
X_07394_ _01408_ registers\[31\]\[7\] _01411_ VDD VSS NAND2_X1
X_07395_ _01410_ _01411_ _01392_ _00102_ VDD VSS OAI21_X1
X_07396_ _01129_ _01342_ _01412_ VDD VSS NAND2_X1
X_07397_ _01408_ registers\[31\]\[8\] _01413_ VDD VSS NAND2_X1
X_07398_ _01412_ _01413_ _01343_ _00103_ VDD VSS OAI21_X1
X_07399_ _01133_ _01342_ _01414_ VDD VSS NAND2_X1
X_07400_ _01408_ registers\[31\]\[9\] _01415_ VDD VSS NAND2_X1
X_07401_ _01414_ _01415_ _01343_ _00104_ VDD VSS OAI21_X1
X_07402_ _01103_ _01416_ VDD VSS BUF_X4
X_07403_ _01416_ _01417_ VDD VSS BUF_X4
X_07404_ _01417_ _01418_ VDD VSS CLKBUF_X3
X_07405_ _01138_ _01340_ _01419_ VDD VSS OR2_X1
X_07406_ _01419_ _01420_ VDD VSS CLKBUF_X3
X_07407_ _01420_ _01421_ VDD VSS CLKBUF_X3
X_07408_ _01418_ registers\[3\]\[0\] _01421_ _01422_ VDD VSS
+ NAND3_X1
X_07409_ _01420_ _01423_ VDD VSS CLKBUF_X3
X_07410_ _01136_ _01424_ VDD VSS INV_X4
X_07411_ _01422_ _01423_ _01424_ _00105_ VDD VSS OAI21_X1
X_07412_ _01418_ registers\[3\]\[10\] _01421_ _01425_ VDD
+ VSS NAND3_X1
X_07413_ _01148_ _01426_ VDD VSS INV_X4
X_07414_ _01425_ _01423_ _01426_ _00106_ VDD VSS OAI21_X1
X_07415_ _01418_ registers\[3\]\[11\] _01421_ _01427_ VDD
+ VSS NAND3_X1
X_07416_ _01152_ _01428_ VDD VSS INV_X4
X_07417_ _01427_ _01423_ _01428_ _00107_ VDD VSS OAI21_X1
X_07418_ _01418_ registers\[3\]\[12\] _01421_ _01429_ VDD
+ VSS NAND3_X1
X_07419_ _01157_ _01430_ VDD VSS INV_X4
X_07420_ _01429_ _01423_ _01430_ _00108_ VDD VSS OAI21_X1
X_07421_ _01418_ registers\[3\]\[13\] _01421_ _01431_ VDD
+ VSS NAND3_X1
X_07422_ _01161_ _01432_ VDD VSS INV_X4
X_07423_ _01431_ _01423_ _01432_ _00109_ VDD VSS OAI21_X1
X_07424_ _01418_ registers\[3\]\[14\] _01421_ _01433_ VDD
+ VSS NAND3_X1
X_07425_ _01165_ _01434_ VDD VSS INV_X4
X_07426_ _01433_ _01423_ _01434_ _00110_ VDD VSS OAI21_X1
X_07427_ _01418_ registers\[3\]\[15\] _01421_ _01435_ VDD
+ VSS NAND3_X1
X_07428_ _01169_ _01436_ VDD VSS INV_X4
X_07429_ _01435_ _01423_ _01436_ _00111_ VDD VSS OAI21_X1
X_07430_ _01418_ registers\[3\]\[16\] _01421_ _01437_ VDD
+ VSS NAND3_X1
X_07431_ _01173_ _01438_ VDD VSS INV_X4
X_07432_ _01437_ _01423_ _01438_ _00112_ VDD VSS OAI21_X1
X_07433_ _01420_ _01439_ VDD VSS CLKBUF_X3
X_07434_ _01418_ registers\[3\]\[17\] _01439_ _01440_ VDD
+ VSS NAND3_X1
X_07435_ _01177_ _01441_ VDD VSS INV_X4
X_07436_ _01440_ _01423_ _01441_ _00113_ VDD VSS OAI21_X1
X_07437_ _01418_ registers\[3\]\[18\] _01439_ _01442_ VDD
+ VSS NAND3_X1
X_07438_ _01182_ _01443_ VDD VSS INV_X4
X_07439_ _01442_ _01423_ _01443_ _00114_ VDD VSS OAI21_X1
X_07440_ _01417_ _01444_ VDD VSS CLKBUF_X3
X_07441_ _01444_ registers\[3\]\[19\] _01439_ _01445_ VDD
+ VSS NAND3_X1
X_07442_ _01420_ _01446_ VDD VSS CLKBUF_X3
X_07443_ _01186_ _01447_ VDD VSS INV_X4
X_07444_ _01445_ _01446_ _01447_ _00115_ VDD VSS OAI21_X1
X_07445_ _01444_ registers\[3\]\[1\] _01439_ _01448_ VDD VSS
+ NAND3_X1
X_07446_ _01191_ _01449_ VDD VSS INV_X4
X_07447_ _01448_ _01446_ _01449_ _00116_ VDD VSS OAI21_X1
X_07448_ _01444_ registers\[3\]\[20\] _01439_ _01450_ VDD
+ VSS NAND3_X1
X_07449_ _01195_ _01451_ VDD VSS INV_X4
X_07450_ _01450_ _01446_ _01451_ _00117_ VDD VSS OAI21_X1
X_07451_ _01444_ registers\[3\]\[21\] _01439_ _01452_ VDD
+ VSS NAND3_X1
X_07452_ _01200_ _01453_ VDD VSS INV_X4
X_07453_ _01452_ _01446_ _01453_ _00118_ VDD VSS OAI21_X1
X_07454_ _01444_ registers\[3\]\[22\] _01439_ _01454_ VDD
+ VSS NAND3_X1
X_07455_ _01204_ _01455_ VDD VSS INV_X4
X_07456_ _01454_ _01446_ _01455_ _00119_ VDD VSS OAI21_X1
X_07457_ _01444_ registers\[3\]\[23\] _01439_ _01456_ VDD
+ VSS NAND3_X1
X_07458_ _01208_ _01457_ VDD VSS INV_X4
X_07459_ _01456_ _01446_ _01457_ _00120_ VDD VSS OAI21_X1
X_07460_ _01444_ registers\[3\]\[24\] _01439_ _01458_ VDD
+ VSS NAND3_X1
X_07461_ _01212_ _01459_ VDD VSS INV_X4
X_07462_ _01458_ _01446_ _01459_ _00121_ VDD VSS OAI21_X1
X_07463_ _01444_ registers\[3\]\[25\] _01439_ _01460_ VDD
+ VSS NAND3_X1
X_07464_ _01216_ _01461_ VDD VSS INV_X4
X_07465_ _01460_ _01446_ _01461_ _00122_ VDD VSS OAI21_X1
X_07466_ _01420_ _01462_ VDD VSS CLKBUF_X3
X_07467_ _01444_ registers\[3\]\[26\] _01462_ _01463_ VDD
+ VSS NAND3_X1
X_07468_ _01220_ _01464_ VDD VSS INV_X4
X_07469_ _01463_ _01446_ _01464_ _00123_ VDD VSS OAI21_X1
X_07470_ _01444_ registers\[3\]\[27\] _01462_ _01465_ VDD
+ VSS NAND3_X1
X_07471_ _01225_ _01466_ VDD VSS INV_X4
X_07472_ _01465_ _01446_ _01466_ _00124_ VDD VSS OAI21_X1
X_07473_ _01417_ _01467_ VDD VSS CLKBUF_X3
X_07474_ _01467_ registers\[3\]\[28\] _01462_ _01468_ VDD
+ VSS NAND3_X1
X_07475_ _01420_ _01469_ VDD VSS CLKBUF_X3
X_07476_ _01229_ _01470_ VDD VSS INV_X4
X_07477_ _01468_ _01469_ _01470_ _00125_ VDD VSS OAI21_X1
X_07478_ _01467_ registers\[3\]\[29\] _01462_ _01471_ VDD
+ VSS NAND3_X1
X_07479_ _01234_ _01472_ VDD VSS INV_X4
X_07480_ _01471_ _01469_ _01472_ _00126_ VDD VSS OAI21_X1
X_07481_ _01467_ registers\[3\]\[2\] _01462_ _01473_ VDD VSS
+ NAND3_X1
X_07482_ _01238_ _01474_ VDD VSS INV_X4
X_07483_ _01473_ _01469_ _01474_ _00127_ VDD VSS OAI21_X1
X_07484_ _01467_ registers\[3\]\[30\] _01462_ _01475_ VDD
+ VSS NAND3_X1
X_07485_ _01243_ _01476_ VDD VSS INV_X4
X_07486_ _01475_ _01469_ _01476_ _00128_ VDD VSS OAI21_X1
X_07487_ _01467_ registers\[3\]\[31\] _01462_ _01477_ VDD
+ VSS NAND3_X1
X_07488_ _01088_ _01478_ VDD VSS INV_X4
X_07489_ _01477_ _01469_ _01478_ _00129_ VDD VSS OAI21_X1
X_07490_ _01467_ registers\[3\]\[3\] _01462_ _01479_ VDD VSS
+ NAND3_X1
X_07491_ _01108_ _01480_ VDD VSS INV_X4
X_07492_ _01479_ _01469_ _01480_ _00130_ VDD VSS OAI21_X1