
* cell register_file
* pin write_data[6]
* pin write_data[17]
* pin write_data[18]
* pin write_data[7]
* pin write_data[16]
* pin write_data[15]
* pin write_data[14]
* pin write_data[9]
* pin write_data[8]
* pin write_data[13]
* pin write_data[11]
* pin write_data[10]
* pin write_data[12]
* pin write_data[0]
* pin read_addr1[2]
* pin PWELL
* pin NWELL
* pin clk
* pin write_data[23]
* pin write_data[19]
* pin write_data[4]
* pin write_data[25]
* pin write_data[5]
* pin write_data[20]
* pin write_data[3]
* pin write_data[27]
* pin write_data[21]
* pin write_data[31]
* pin read_data2[14]
* pin read_data2[17]
* pin read_data1[15]
* pin read_data2[16]
* pin read_data2[19]
* pin read_data1[30]
* pin read_data2[0]
* pin write_data[1]
* pin write_data[22]
* pin read_data2[24]
* pin read_data2[26]
* pin read_data2[30]
* pin read_data2[23]
* pin write_data[24]
* pin write_data[26]
* pin read_data2[6]
* pin read_data2[18]
* pin read_data2[12]
* pin read_data2[10]
* pin read_data2[9]
* pin read_data2[22]
* pin read_data2[21]
* pin read_data2[1]
* pin read_data2[28]
* pin read_data2[25]
* pin read_en2
* pin read_data2[15]
* pin read_data2[27]
* pin read_data2[11]
* pin read_data2[7]
* pin read_data2[3]
* pin read_data2[20]
* pin read_data2[5]
* pin read_data2[29]
* pin read_data1[7]
* pin read_data1[17]
* pin write_data[28]
* pin read_data1[1]
* pin read_data1[6]
* pin write_data[29]
* pin read_addr1[4]
* pin read_data2[4]
* pin read_data2[13]
* pin write_addr[0]
* pin write_data[2]
* pin write_data[30]
* pin write_addr[1]
* pin read_data1[22]
* pin read_data1[10]
* pin read_data1[16]
* pin read_data1[3]
* pin write_en
* pin read_data1[25]
* pin read_data1[11]
* pin write_addr[2]
* pin read_data1[28]
* pin read_data1[14]
* pin read_addr2[1]
* pin read_data1[21]
* pin read_data1[23]
* pin read_addr2[0]
* pin read_addr1[1]
* pin write_addr[3]
* pin write_addr[4]
* pin read_data2[2]
* pin read_data1[12]
* pin read_data1[20]
* pin read_data1[13]
* pin read_data1[24]
* pin read_addr1[3]
* pin read_addr2[2]
* pin read_data1[18]
* pin read_data1[19]
* pin read_data1[26]
* pin read_data1[9]
* pin read_data2[31]
* pin read_data1[0]
* pin read_data2[8]
* pin read_data1[27]
* pin read_addr1[0]
* pin read_data1[8]
* pin rst_n
* pin read_data1[4]
* pin read_data1[31]
* pin read_data1[5]
* pin read_data1[2]
* pin read_data1[29]
* pin read_en1
* pin read_addr2[3]
* pin read_addr2[4]
.SUBCKT register_file 1 2 3 4 5 6 7 8 9 10 11 12 13 14 15 25 44 87 1838 1839
+ 1840 1913 1914 1983 1984 2052 2053 2054 2631 2716 2717 2907 2908 2976 2977
+ 3020 3021 3057 3060 3061 3062 3105 3177 3238 3239 3240 3241 3242 3355 3356
+ 3357 3361 3454 3455 3555 3556 3557 3561 3647 3648 3702 3703 3704 3706 3760
+ 3793 3794 3844 3880 3889 3890 3955 3956 3957 3958 3986 3987 3988 3989 4043
+ 4072 4073 4116 4154 4155 4194 4230 4231 4232 4234 4262 4263 4296 4297 4367
+ 4368 4369 4404 4463 4464 4547 4548 4549 4550 4649 4650 4719 4720 4721 7243
+ 7244 7245 7246 7248 7250 7251 7253 7255
* net 1 write_data[6]
* net 2 write_data[17]
* net 3 write_data[18]
* net 4 write_data[7]
* net 5 write_data[16]
* net 6 write_data[15]
* net 7 write_data[14]
* net 8 write_data[9]
* net 9 write_data[8]
* net 10 write_data[13]
* net 11 write_data[11]
* net 12 write_data[10]
* net 13 write_data[12]
* net 14 write_data[0]
* net 15 read_addr1[2]
* net 25 PWELL
* net 44 NWELL
* net 87 clk
* net 1838 write_data[23]
* net 1839 write_data[19]
* net 1840 write_data[4]
* net 1913 write_data[25]
* net 1914 write_data[5]
* net 1983 write_data[20]
* net 1984 write_data[3]
* net 2052 write_data[27]
* net 2053 write_data[21]
* net 2054 write_data[31]
* net 2631 read_data2[14]
* net 2716 read_data2[17]
* net 2717 read_data1[15]
* net 2907 read_data2[16]
* net 2908 read_data2[19]
* net 2976 read_data1[30]
* net 2977 read_data2[0]
* net 3020 write_data[1]
* net 3021 write_data[22]
* net 3057 read_data2[24]
* net 3060 read_data2[26]
* net 3061 read_data2[30]
* net 3062 read_data2[23]
* net 3105 write_data[24]
* net 3177 write_data[26]
* net 3238 read_data2[6]
* net 3239 read_data2[18]
* net 3240 read_data2[12]
* net 3241 read_data2[10]
* net 3242 read_data2[9]
* net 3355 read_data2[22]
* net 3356 read_data2[21]
* net 3357 read_data2[1]
* net 3361 read_data2[28]
* net 3454 read_data2[25]
* net 3455 read_en2
* net 3555 read_data2[15]
* net 3556 read_data2[27]
* net 3557 read_data2[11]
* net 3561 read_data2[7]
* net 3647 read_data2[3]
* net 3648 read_data2[20]
* net 3702 read_data2[5]
* net 3703 read_data2[29]
* net 3704 read_data1[7]
* net 3706 read_data1[17]
* net 3760 write_data[28]
* net 3793 read_data1[1]
* net 3794 read_data1[6]
* net 3844 write_data[29]
* net 3880 read_addr1[4]
* net 3889 read_data2[4]
* net 3890 read_data2[13]
* net 3955 write_addr[0]
* net 3956 write_data[2]
* net 3957 write_data[30]
* net 3958 write_addr[1]
* net 3986 read_data1[22]
* net 3987 read_data1[10]
* net 3988 read_data1[16]
* net 3989 read_data1[3]
* net 4043 write_en
* net 4072 read_data1[25]
* net 4073 read_data1[11]
* net 4116 write_addr[2]
* net 4154 read_data1[28]
* net 4155 read_data1[14]
* net 4194 read_addr2[1]
* net 4230 read_data1[21]
* net 4231 read_data1[23]
* net 4232 read_addr2[0]
* net 4234 read_addr1[1]
* net 4262 write_addr[3]
* net 4263 write_addr[4]
* net 4296 read_data2[2]
* net 4297 read_data1[12]
* net 4367 read_data1[20]
* net 4368 read_data1[13]
* net 4369 read_data1[24]
* net 4404 read_addr1[3]
* net 4463 read_addr2[2]
* net 4464 read_data1[18]
* net 4547 read_data1[19]
* net 4548 read_data1[26]
* net 4549 read_data1[9]
* net 4550 read_data2[31]
* net 4649 read_data1[0]
* net 4650 read_data2[8]
* net 4719 read_data1[27]
* net 4720 read_addr1[0]
* net 4721 read_data1[8]
* net 7243 rst_n
* net 7244 read_data1[4]
* net 7245 read_data1[31]
* net 7246 read_data1[5]
* net 7248 read_data1[2]
* net 7250 read_data1[29]
* net 7251 read_en1
* net 7253 read_addr2[3]
* net 7255 read_addr2[4]
* cell instance $2 m0 *1 44.84,4.2
X$2 1 44 67 25 BUF_X4
* cell instance $8 r0 *1 45.6,1.4
X$8 2 25 44 54 CLKBUF_X3
* cell instance $14 r0 *1 45.22,4.2
X$14 3 25 44 172 CLKBUF_X3
* cell instance $20 m0 *1 49.4,4.2
X$20 4 44 68 25 BUF_X4
* cell instance $30 r0 *1 54.34,1.4
X$30 5 25 44 93 BUF_X2
* cell instance $33 r0 *1 56.43,1.4
X$33 6 25 44 18 BUF_X2
* cell instance $38 r0 *1 55.1,1.4
X$38 7 25 44 29 BUF_X2
* cell instance $48 r0 *1 57.19,1.4
X$48 8 25 44 351 CLKBUF_X3
* cell instance $50 r0 *1 62.51,1.4
X$50 9 25 44 317 CLKBUF_X3
* cell instance $57 r0 *1 60.23,1.4
X$57 10 25 44 71 BUF_X2
* cell instance $62 r0 *1 64.22,1.4
X$62 11 25 44 32 BUF_X2
* cell instance $69 r0 *1 64.98,1.4
X$69 12 25 44 21 BUF_X2
* cell instance $74 r0 *1 65.74,1.4
X$74 13 25 44 60 BUF_X2
* cell instance $80 r0 *1 66.5,1.4
X$80 14 25 44 98 BUF_X2
* cell instance $86 r0 *1 76.95,1.4
X$86 25 45 44 15 BUF_X8
* cell instance $92 r0 *1 43.7,9.8
X$92 147 25 44 16 CLKBUF_X3
* cell instance $107 r0 *1 61.18,1.4
X$107 16 19 53 44 30 25 OAI21_X1
* cell instance $109 r0 *1 69.54,1.4
X$109 16 52 27 44 80 25 OAI21_X1
* cell instance $111 r0 *1 69.16,4.2
X$111 16 101 100 44 186 25 OAI21_X1
* cell instance $113 r0 *1 56.62,4.2
X$113 16 56 58 44 55 25 OAI21_X1
* cell instance $115 r0 *1 52.06,1.4
X$115 16 17 48 44 47 25 OAI21_X1
* cell instance $117 r0 *1 51.87,4.2
X$117 16 132 104 44 91 25 OAI21_X1
* cell instance $119 r0 *1 43.7,60.2
X$119 16 2948 3000 44 3078 25 OAI21_X1
* cell instance $123 r0 *1 42.37,60.2
X$123 16 2946 2999 44 3001 25 OAI21_X1
* cell instance $125 m0 *1 47.31,9.8
X$125 16 287 195 44 345 25 OAI21_X1
* cell instance $127 r0 *1 48.07,4.2
X$127 16 103 90 44 89 25 OAI21_X1
* cell instance $130 r0 *1 52.82,1.4
X$130 49 35 25 44 17 NAND2_X1
* cell instance $136 r0 *1 59.66,1.4
X$136 33 18 25 44 53 NAND2_X1
* cell instance $139 r0 *1 59.09,7
X$139 133 18 25 44 201 NAND2_X1
* cell instance $143 r0 *1 58.33,9.8
X$143 18 44 312 25 BUF_X4
* cell instance $145 m0 *1 58.52,12.6
X$145 18 44 424 25 BUF_X4
* cell instance $147 m0 *1 57.38,9.8
X$147 18 25 44 179 INV_X4
* cell instance $150 r0 *1 61.94,1.4
X$150 20 35 25 44 19 NAND2_X1
* cell instance $157 m0 *1 60.42,4.2
X$157 25 20 30 31 44 DFF_X1
* cell instance $159 r0 *1 63.65,9.8
X$159 20 256 153 25 44 319 MUX2_X1
* cell instance $161 r0 *1 62.32,9.8
X$161 20 259 153 25 44 318 MUX2_X1
* cell instance $165 r0 *1 66.5,4.2
X$165 21 44 162 25 BUF_X4
* cell instance $167 r0 *1 67.26,1.4
X$167 33 21 25 44 51 NAND2_X1
* cell instance $170 m0 *1 66.31,4.2
X$170 21 25 44 59 CLKBUF_X3
* cell instance $174 m0 *1 66.12,12.6
X$174 133 21 25 44 444 NAND2_X1
* cell instance $176 m0 *1 67.26,12.6
X$176 21 25 44 220 INV_X4
* cell instance $181 m0 *1 75.62,9.8
X$181 22 256 155 25 44 300 MUX2_X1
* cell instance $184 r0 *1 71.44,1.4
X$184 22 35 25 44 52 NAND2_X1
* cell instance $186 m0 *1 69.16,4.2
X$186 25 22 80 23 44 DFF_X1
* cell instance $188 r0 *1 75.24,9.8
X$188 22 259 155 25 44 321 MUX2_X1
* cell instance $190 r0 *1 72.96,7
X$190 255 25 44 23 CLKBUF_X3
* cell instance $198 m0 *1 75.24,7
X$198 25 155 109 23 44 DFF_X1
* cell instance $200 m0 *1 69.73,9.8
X$200 25 258 354 23 44 DFF_X1
* cell instance $202 m0 *1 68.59,7
X$202 25 108 186 23 44 DFF_X1
* cell instance $205 r0 *1 72.01,4.2
X$205 25 188 82 23 44 DFF_X1
* cell instance $207 r0 *1 72.2,1.4
X$207 25 79 50 23 44 DFF_X1
* cell instance $210 r0 *1 69.16,9.8
X$210 25 320 398 23 44 DFF_X1
* cell instance $212 m0 *1 75.43,18.2
X$212 25 627 626 23 44 DFF_X1
* cell instance $220 m0 *1 87.02,9.8
X$220 25 208 207 24 44 DFF_X1
* cell instance $222 r0 *1 92.53,1.4
X$222 25 243 40 24 44 DFF_X1
* cell instance $225 r0 *1 93.29,4.2
X$225 24 25 44 CLKBUF_X1
* cell instance $227 r0 *1 90.06,4.2
X$227 25 95 96 24 44 DFF_X1
* cell instance $229 m0 *1 91.39,4.2
X$229 39 25 44 24 CLKBUF_X3
* cell instance $232 r0 *1 87.97,1.4
X$232 25 63 46 24 44 DFF_X1
* cell instance $235 m0 *1 90.06,7
X$235 25 159 137 24 44 DFF_X1
* cell instance $237 m0 *1 95.76,4.2
X$237 25 85 41 24 44 DFF_X1
* cell instance $239 r0 *1 84.36,1.4
X$239 25 37 26 24 44 DFF_X1
* cell instance $241 m0 *1 115.71,119
X$241 5907 2705 5141 2706 5902 44 25 5906 OAI221_X1
* cell instance $242 m0 *1 114.76,119
X$242 5906 5956 5910 2998 44 25 5909 OAI22_X1
* cell instance $245 m0 *1 119.13,119
X$245 3878 5904 5355 25 5880 44 AOI21_X1
* cell instance $248 r0 *1 114.76,119
X$248 5954 2705 5141 2706 5985 44 25 6091 OAI221_X1
* cell instance $252 r0 *1 115.9,119
X$252 25 6089 5697 3795 44 DFF_X2
* cell instance $253 r0 *1 119.51,119
X$253 3795 25 44 6040 INV_X1
* cell instance $256 m0 *1 138.7,107.8
X$256 5370 1726 25 44 5296 NOR2_X1
* cell instance $259 m0 *1 139.46,107.8
X$259 2163 25 44 5228 CLKBUF_X3
* cell instance $260 m0 *1 140.41,107.8
X$260 5361 2408 5371 25 44 5373 MUX2_X1
* cell instance $261 m0 *1 141.74,107.8
X$261 5361 868 5371 25 44 5370 MUX2_X1
* cell instance $262 m0 *1 143.07,107.8
X$262 5368 25 44 5369 INV_X1
* cell instance $263 m0 *1 143.45,107.8
X$263 5292 2338 5294 25 44 5368 MUX2_X1
* cell instance $264 m0 *1 144.78,107.8
X$264 5293 1802 2023 25 44 5367 NOR3_X1
* cell instance $268 r0 *1 138.7,107.8
X$268 25 5361 5445 5236 44 DFF_X1
* cell instance $270 r0 *1 143.45,107.8
X$270 25 5294 5442 5236 44 DFF_X1
* cell instance $272 m0 *1 146.68,107.8
X$272 5294 86 25 44 5441 NAND2_X1
* cell instance $274 r0 *1 146.68,107.8
X$274 5430 5441 5429 44 5442 25 OAI21_X1
* cell instance $275 r0 *1 147.44,107.8
X$275 2088 5431 25 44 5429 NAND2_X1
* cell instance $276 r0 *1 148.01,107.8
X$276 2088 25 44 5430 CLKBUF_X3
* cell instance $277 m0 *1 148.58,107.8
X$277 25 5292 5362 5074 44 DFF_X1
* cell instance $280 r0 *1 148.96,107.8
X$280 1953 5431 25 44 5437 NAND2_X1
* cell instance $281 r0 *1 149.53,107.8
X$281 5436 5432 5437 44 5362 25 OAI21_X1
* cell instance $282 r0 *1 150.29,107.8
X$282 5292 5433 25 44 5432 NAND2_X1
* cell instance $283 r0 *1 150.86,107.8
X$283 2088 44 5149 25 BUF_X4
* cell instance $284 m0 *1 152.38,107.8
X$284 2087 25 44 5433 CLKBUF_X3
* cell instance $294 m0 *1 96.9,63
X$294 3170 1907 25 44 3012 NOR2_X1
* cell instance $296 m0 *1 97.47,63
X$296 2963 1715 3045 25 44 3098 MUX2_X1
* cell instance $297 m0 *1 98.8,63
X$297 1935 3030 1938 2964 2969 3047 25 44 OAI221_X2
* cell instance $298 m0 *1 100.89,63
X$298 2963 632 3045 25 44 3096 MUX2_X1
* cell instance $300 m0 *1 102.41,63
X$300 3096 25 44 3095 INV_X1
* cell instance $302 m0 *1 102.98,63
X$302 3094 3124 3095 25 3092 44 AOI21_X1
* cell instance $304 m0 *1 103.93,63
X$304 2790 44 859 25 BUF_X4
* cell instance $305 m0 *1 105.26,63
X$305 3092 3125 859 3126 2932 3217 44 25 AOI221_X2
* cell instance $306 m0 *1 107.35,63
X$306 2967 25 44 2702 CLKBUF_X3
* cell instance $308 m0 *1 93.48,63
X$308 3172 3103 3171 44 3104 25 OAI21_X1
* cell instance $309 m0 *1 92.91,63
X$309 2366 2996 25 44 3171 NAND2_X1
* cell instance $312 r0 *1 93.1,63
X$312 2366 2812 25 44 3213 NAND2_X1
* cell instance $314 r0 *1 93.86,63
X$314 3122 1380 3044 25 44 3302 MUX2_X1
* cell instance $316 m0 *1 94.62,63
X$316 3044 768 25 44 3103 NAND2_X1
* cell instance $317 m0 *1 95.38,63
X$317 978 3101 930 3302 44 25 3094 OAI22_X1
* cell instance $319 r0 *1 95.19,63
X$319 3122 1502 3044 25 44 3170 MUX2_X1
* cell instance $324 r0 *1 101.65,63
X$324 3121 632 3123 25 44 3312 MUX2_X1
* cell instance $326 r0 *1 103.36,63
X$326 3312 25 44 3314 INV_X1
* cell instance $327 r0 *1 103.74,63
X$327 3313 3124 3314 25 3168 44 AOI21_X1
* cell instance $329 r0 *1 104.69,63
X$329 3164 3168 859 3126 3260 25 44 3315 AOI221_X1
* cell instance $331 r0 *1 106.02,63
X$331 3166 1033 3216 1036 2987 44 25 3218 OAI221_X1
* cell instance $332 r0 *1 107.16,63
X$332 3218 3315 3165 1035 44 25 3316 OAI22_X1
* cell instance $334 r0 *1 108.3,63
X$334 3310 25 44 3165 INV_X1
* cell instance $335 m0 *1 108.87,63
X$335 773 3090 3127 25 3125 44 AOI21_X1
* cell instance $338 m0 *1 109.82,63
X$338 3009 25 44 3090 INV_X1
* cell instance $342 r0 *1 108.87,63
X$342 773 3311 3127 25 3164 44 AOI21_X1
* cell instance $343 r0 *1 109.63,63
X$343 3162 25 44 3311 INV_X1
* cell instance $346 r0 *1 110.58,63
X$346 2931 3308 3048 44 3128 25 OAI21_X1
* cell instance $348 m0 *1 111.34,63
X$348 2392 2889 2440 25 44 3048 NAND3_X1
* cell instance $350 m0 *1 116.66,63
X$350 2955 3004 3049 44 3296 25 OAI21_X1
* cell instance $351 m0 *1 117.42,63
X$351 2270 3130 658 25 44 3049 NAND3_X1
* cell instance $355 r0 *1 111.34,63
X$355 2955 3308 3305 44 3219 25 OAI21_X1
* cell instance $357 r0 *1 112.29,63
X$357 2392 3129 2440 25 44 3305 NAND3_X1
* cell instance $358 r0 *1 113.05,63
X$358 3129 2465 3130 25 44 3162 MUX2_X1
* cell instance $367 r0 *1 116.09,63
X$367 25 3130 3296 3131 44 DFF_X1
* cell instance $368 r0 *1 119.32,63
X$368 3286 25 44 3224 INV_X1
* cell instance $375 m0 *1 122.36,63
X$375 25 2995 2997 2710 44 DFF_X1
* cell instance $379 r0 *1 124.07,63
X$379 2995 2275 3231 25 44 3286 MUX2_X1
* cell instance $381 r0 *1 125.78,63
X$381 2995 1153 3231 25 44 3157 MUX2_X1
* cell instance $382 m0 *1 129.2,63
X$382 2894 1088 25 44 3282 NAND2_X1
* cell instance $383 m0 *1 125.97,63
X$383 25 2894 3051 2710 44 DFF_X1
* cell instance $386 m0 *1 132.05,63
X$386 2931 3079 3080 44 3133 25 OAI21_X1
* cell instance $389 m0 *1 133.76,63
X$389 2473 3052 2471 25 44 3080 NAND3_X1
* cell instance $391 m0 *1 134.71,63
X$391 3157 1158 1231 25 44 3135 NOR3_X1
* cell instance $392 m0 *1 135.47,63
X$392 2931 3155 3074 44 3134 25 OAI21_X1
* cell instance $394 m0 *1 136.42,63
X$394 2329 3054 863 25 44 3074 NAND3_X1
* cell instance $395 m0 *1 137.18,63
X$395 3052 495 3054 25 44 3070 MUX2_X1
* cell instance $396 m0 *1 138.51,63
X$396 3052 1355 3054 25 44 3137 MUX2_X1
* cell instance $397 m0 *1 139.84,63
X$397 3070 943 25 44 3055 NOR2_X1
* cell instance $399 r0 *1 127.11,63
X$399 3132 3282 3158 44 3051 25 OAI21_X1
* cell instance $400 r0 *1 127.87,63
X$400 2709 2812 25 44 3158 NAND2_X1
* cell instance $404 r0 *1 131.1,63
X$404 25 3052 3133 2897 44 DFF_X1
* cell instance $405 r0 *1 134.33,63
X$405 25 3054 3134 2897 44 DFF_X1
* cell instance $406 r0 *1 137.56,63
X$406 3135 3274 3055 3272 44 3154 25 NOR4_X2
* cell instance $407 r0 *1 139.27,63
X$407 924 3153 926 3137 44 25 3234 OAI22_X1
* cell instance $408 r0 *1 140.22,63
X$408 3267 944 25 44 3272 NOR2_X1
* cell instance $411 m0 *1 140.79,63
X$411 3138 1109 3139 25 44 3153 MUX2_X1
* cell instance $413 m0 *1 143.83,63
X$413 2630 2996 25 44 3140 NAND2_X1
* cell instance $415 m0 *1 145.92,63
X$415 2902 3142 25 44 3068 NAND2_X1
* cell instance $416 m0 *1 146.49,63
X$416 3141 3068 3067 44 3056 25 OAI21_X1
* cell instance $417 m0 *1 147.25,63
X$417 2475 2812 25 44 3067 NAND2_X1
* cell instance $418 m0 *1 147.82,63
X$418 3136 25 44 3061 BUF_X1
* cell instance $419 m0 *1 148.39,63
X$419 3053 25 44 3057 BUF_X1
* cell instance $421 m0 *1 149.15,63
X$421 2325 25 44 2973 CLKBUF_X3
* cell instance $422 m0 *1 150.1,63
X$422 3063 888 3059 25 44 3149 MUX2_X1
* cell instance $423 m0 *1 151.43,63
X$423 3058 25 44 3060 BUF_X1
* cell instance $424 m0 *1 152,63
X$424 3063 2905 25 44 3146 NAND2_X1
* cell instance $425 m0 *1 152.57,63
X$425 25 3059 3144 2973 44 DFF_X1
* cell instance $427 r0 *1 141.17,63
X$427 3138 2802 3139 25 44 3267 MUX2_X1
* cell instance $429 r0 *1 142.88,63
X$429 3138 226 25 44 3152 NAND2_X1
* cell instance $431 r0 *1 143.83,63
X$431 2985 3152 3140 44 3263 25 OAI21_X1
* cell instance $433 r0 *1 144.78,63
X$433 3149 25 44 3265 INV_X1
* cell instance $434 r0 *1 145.16,63
X$434 3141 3256 3235 44 3257 25 OAI21_X1
* cell instance $435 r0 *1 145.92,63
X$435 2475 2996 25 44 3235 NAND2_X1
* cell instance $439 r0 *1 147.82,63
X$439 25 3063 3249 2973 44 DFF_X1
* cell instance $441 r0 *1 151.24,63
X$441 3143 3146 3147 44 3249 25 OAI21_X1
* cell instance $443 r0 *1 152.19,63
X$443 2334 2996 25 44 3147 NAND2_X1
* cell instance $445 r0 *1 152.95,63
X$445 2974 3237 2975 44 3144 25 OAI21_X1
* cell instance $446 r0 *1 153.71,63
X$446 3059 2715 25 44 3237 NAND2_X1
* cell instance $447 r0 *1 154.28,63
X$447 2625 25 44 3239 BUF_X1
* cell instance $448 r0 *1 154.85,63
X$448 2799 25 44 3242 BUF_X1
* cell instance $451 m0 *1 104.5,60.2
X$451 2790 25 44 2866 INV_X1
* cell instance $452 m0 *1 103.93,60.2
X$452 2866 1220 25 44 2937 NAND2_X1
* cell instance $453 m0 *1 104.88,60.2
X$453 2866 44 1344 25 BUF_X4
* cell instance $454 m0 *1 106.21,60.2
X$454 25 2936 2703 2888 44 DFF_X2
* cell instance $455 m0 *1 109.82,60.2
X$455 2703 25 44 CLKBUF_X1
* cell instance $456 m0 *1 110.39,60.2
X$456 2314 25 44 2703 CLKBUF_X3
* cell instance $457 m0 *1 111.34,60.2
X$457 2889 2465 2968 25 44 3009 MUX2_X1
* cell instance $460 r0 *1 104.12,60.2
X$460 2967 2790 25 44 2966 OR2_X1
* cell instance $461 r0 *1 104.88,60.2
X$461 1220 2866 25 44 3093 OR2_X1
* cell instance $464 r0 *1 106.78,60.2
X$464 2967 44 1220 25 BUF_X4
* cell instance $466 r0 *1 108.49,60.2
X$466 2967 25 44 773 CLKBUF_X3
* cell instance $467 r0 *1 109.44,60.2
X$467 25 2889 3128 2703 44 DFF_X1
* cell instance $468 r0 *1 112.67,60.2
X$468 2889 1831 2968 25 44 3046 MUX2_X1
* cell instance $469 m0 *1 116.28,60.2
X$469 2934 779 2969 732 2925 44 25 2891 OAI221_X1
* cell instance $470 m0 *1 113.05,60.2
X$470 25 2968 2890 2703 44 DFF_X1
* cell instance $472 m0 *1 117.61,60.2
X$472 2077 25 44 2998 CLKBUF_X3
* cell instance $474 m0 *1 118.75,60.2
X$474 2805 25 44 2933 INV_X1
* cell instance $477 m0 *1 120.08,60.2
X$477 25 2836 2710 2892 44 DFF_X2
* cell instance $482 r0 *1 114.57,60.2
X$482 2931 3004 3007 44 2890 25 OAI21_X1
* cell instance $486 r0 *1 115.33,60.2
X$486 2270 2968 658 25 44 3007 NAND3_X1
* cell instance $488 r0 *1 116.85,60.2
X$488 2891 3088 2933 701 44 25 3002 OAI22_X1
* cell instance $489 r0 *1 117.8,60.2
X$489 25 2805 3002 3131 44 DFF_X1
* cell instance $493 r0 *1 123.5,60.2
X$493 2931 2970 3050 44 2997 25 OAI21_X1
* cell instance $494 r0 *1 124.26,60.2
X$494 2468 2995 1228 25 44 3050 NAND3_X1
* cell instance $496 m0 *1 124.83,60.2
X$496 25 2893 2993 2710 44 DFF_X1
* cell instance $498 m0 *1 129.77,60.2
X$498 2893 1043 2894 25 44 2895 MUX2_X1
* cell instance $501 r0 *1 125.4,60.2
X$501 2955 2970 3085 44 2993 25 OAI21_X1
* cell instance $502 r0 *1 126.16,60.2
X$502 2468 2893 1228 25 44 3085 NAND3_X1
* cell instance $504 r0 *1 127.11,60.2
X$504 2325 25 44 2710 CLKBUF_X3
* cell instance $505 r0 *1 128.06,60.2
X$505 2710 25 44 CLKBUF_X1
* cell instance $509 r0 *1 129.96,60.2
X$509 2893 1153 2894 25 44 2991 MUX2_X1
* cell instance $511 m0 *1 131.67,60.2
X$511 2895 1155 1230 25 44 2896 NOR3_X1
* cell instance $513 m0 *1 132.43,60.2
X$513 25 2898 2971 2897 44 DFF_X1
* cell instance $514 m0 *1 135.66,60.2
X$514 2898 2899 2801 25 44 2926 MUX2_X1
* cell instance $515 m0 *1 136.99,60.2
X$515 2926 702 25 44 2923 NOR2_X1
* cell instance $516 m0 *1 137.56,60.2
X$516 2927 943 25 44 2924 NOR2_X1
* cell instance $517 m0 *1 138.13,60.2
X$517 2896 2915 2923 2922 44 2925 25 NOR4_X2
* cell instance $518 m0 *1 139.84,60.2
X$518 2917 789 25 44 2922 NOR2_X1
* cell instance $521 r0 *1 133.19,60.2
X$521 2955 3079 2992 44 2971 25 OAI21_X1
* cell instance $522 r0 *1 133.95,60.2
X$522 2955 3155 3076 44 2800 25 OAI21_X1
* cell instance $523 r0 *1 134.71,60.2
X$523 2473 2898 2471 25 44 2992 NAND3_X1
* cell instance $525 r0 *1 135.66,60.2
X$525 2329 2801 863 25 44 3076 NAND3_X1
* cell instance $527 r0 *1 136.8,60.2
X$527 2991 1158 1231 25 44 2990 NOR3_X1
* cell instance $529 r0 *1 137.94,60.2
X$529 2990 2986 2924 2900 44 2987 25 NOR4_X2
* cell instance $532 r0 *1 140.22,60.2
X$532 2914 946 1048 25 44 2986 NOR3_X1
* cell instance $533 m0 *1 140.98,60.2
X$533 2916 944 25 44 2900 NOR2_X1
* cell instance $535 m0 *1 141.55,60.2
X$535 2985 2920 2803 44 2918 25 OAI21_X1
* cell instance $537 m0 *1 142.5,60.2
X$537 2901 226 25 44 2920 NAND2_X1
* cell instance $539 m0 *1 143.26,60.2
X$539 2901 1540 2902 25 44 2917 MUX2_X1
* cell instance $540 m0 *1 144.59,60.2
X$540 2782 44 888 25 BUF_X4
* cell instance $543 r0 *1 141.17,60.2
X$543 25 2901 2918 2973 44 DFF_X1
* cell instance $545 r0 *1 145.16,60.2
X$545 25 2902 3056 2973 44 DFF_X1
* cell instance $547 m0 *1 146.3,60.2
X$547 2911 866 867 25 44 2915 NOR3_X1
* cell instance $548 m0 *1 148.58,60.2
X$548 2903 2713 2904 25 44 2914 MUX2_X1
* cell instance $549 m0 *1 149.91,60.2
X$549 2903 2480 2904 25 44 2911 MUX2_X1
* cell instance $550 m0 *1 151.24,60.2
X$550 2903 2905 25 44 2906 NAND2_X1
* cell instance $552 m0 *1 152,60.2
X$552 2334 2812 25 44 2982 NAND2_X1
* cell instance $553 m0 *1 152.57,60.2
X$553 25 2904 2909 2973 44 DFF_X1
* cell instance $555 r0 *1 148.39,60.2
X$555 25 2903 2983 2973 44 DFF_X1
* cell instance $556 r0 *1 151.62,60.2
X$556 3143 2906 2982 44 2983 25 OAI21_X1
* cell instance $557 r0 *1 152.38,60.2
X$557 2545 2996 25 44 2975 NAND2_X1
* cell instance $558 r0 *1 152.95,60.2
X$558 2972 25 44 3062 BUF_X1
* cell instance $559 r0 *1 153.52,60.2
X$559 2979 25 44 2976 BUF_X1
* cell instance $562 r0 *1 154.66,60.2
X$562 2079 25 44 2977 BUF_X1
* cell instance $566 m0 *1 94.81,119
X$566 2694 5919 5727 2708 44 25 5917 OAI22_X2
* cell instance $567 m0 *1 94.24,119
X$567 5798 1485 25 44 5920 NAND2_X1
* cell instance $571 r0 *1 94.43,119
X$571 6030 1485 25 44 5951 NAND2_X1
* cell instance $572 r0 *1 95,119
X$572 5952 211 6030 25 44 6099 MUX2_X1
* cell instance $573 r0 *1 96.33,119
X$573 6008 25 44 5646 CLKBUF_X3
* cell instance $574 r0 *1 97.28,119
X$574 5646 25 44 7298 INV_X1
* cell instance $577 r0 *1 98.8,119
X$577 5950 1113 5953 25 44 6104 MUX2_X1
* cell instance $579 m0 *1 99.94,119
X$579 25 5648 5799 5646 44 DFF_X1
* cell instance $582 r0 *1 100.32,119
X$582 5950 1977 5953 25 44 6005 MUX2_X1
* cell instance $583 r0 *1 101.65,119
X$583 6005 25 44 6032 INV_X1
* cell instance $586 r0 *1 102.6,119
X$586 25 6033 6004 5493 44 DFF_X1
* cell instance $587 m0 *1 106.21,119
X$587 5913 3871 4840 3872 5881 44 25 5730 OAI221_X1
* cell instance $588 m0 *1 105.07,119
X$588 6001 5915 4033 5353 5831 25 44 5801 AOI221_X1
* cell instance $590 m0 *1 108.87,119
X$590 3694 5912 5354 25 6001 44 AOI21_X1
* cell instance $594 r0 *1 106.21,119
X$594 6002 3871 4840 3872 5975 44 25 5955 OAI221_X1
* cell instance $595 r0 *1 107.35,119
X$595 5955 6094 5999 3945 44 25 6000 OAI22_X1
* cell instance $596 r0 *1 108.3,119
X$596 25 6000 5493 2979 44 DFF_X2
* cell instance $597 m0 *1 110.96,119
X$597 2979 25 44 5999 INV_X1
* cell instance $603 r0 *1 113.05,119
X$603 2696 44 4645 25 BUF_X4
* cell instance $605 m0 *1 94.24,65.8
X$605 3333 1380 3335 25 44 3301 MUX2_X1
* cell instance $607 m0 *1 95.57,65.8
X$607 978 3214 930 3301 44 25 3313 OAI22_X1
* cell instance $609 m0 *1 98.04,65.8
X$609 2931 3215 3307 44 3304 25 OAI21_X1
* cell instance $611 m0 *1 98.99,65.8
X$611 2228 3045 3306 25 44 3307 NAND3_X1
* cell instance $613 m0 *1 100.51,65.8
X$613 2955 3215 3337 44 3391 25 OAI21_X1
* cell instance $614 m0 *1 101.27,65.8
X$614 3121 888 3123 25 44 3309 MUX2_X1
* cell instance $615 m0 *1 102.6,65.8
X$615 3309 25 44 3389 INV_X1
* cell instance $618 m0 *1 105.26,65.8
X$618 3280 1033 3216 1036 3154 44 25 3388 OAI221_X1
* cell instance $620 m0 *1 106.59,65.8
X$620 25 3316 2703 3310 44 DFF_X2
* cell instance $622 m0 *1 110.39,65.8
X$622 25 3129 3219 3437 44 DFF_X1
* cell instance $624 m0 *1 113.81,65.8
X$624 3129 2275 3130 25 44 3297 MUX2_X1
* cell instance $625 m0 *1 115.14,65.8
X$625 3297 25 44 3220 INV_X1
* cell instance $628 m0 *1 118.75,65.8
X$628 698 3224 3225 25 3226 44 AOI21_X1
* cell instance $629 m0 *1 119.51,65.8
X$629 3226 3233 1150 3222 3283 25 44 3227 AOI221_X1
* cell instance $630 m0 *1 120.65,65.8
X$630 3047 3227 3290 3228 44 25 3289 OAI22_X1
* cell instance $631 m0 *1 121.6,65.8
X$631 3229 25 44 3290 INV_X1
* cell instance $634 m0 *1 123.69,65.8
X$634 25 3231 3381 2710 44 DFF_X1
* cell instance $638 m0 *1 137.56,65.8
X$638 3234 3433 3265 25 3233 44 AOI21_X1
* cell instance $642 m0 *1 90.06,65.8
X$642 3211 1109 3207 25 44 3212 MUX2_X1
* cell instance $643 m0 *1 92.91,65.8
X$643 3172 3299 3213 44 3298 25 OAI21_X1
* cell instance $645 r0 *1 90.06,65.8
X$645 3211 765 3207 25 44 3214 MUX2_X1
* cell instance $647 r0 *1 91.58,65.8
X$647 25 3335 3298 3336 44 DFF_X1
* cell instance $648 r0 *1 94.81,65.8
X$648 3335 768 25 44 3299 NAND2_X1
* cell instance $649 r0 *1 95.38,65.8
X$649 924 3212 926 3392 44 25 3390 OAI22_X1
* cell instance $651 r0 *1 96.71,65.8
X$651 25 3045 3304 3336 44 DFF_X1
* cell instance $652 r0 *1 99.94,65.8
X$652 25 3123 3391 3336 44 DFF_X1
* cell instance $653 r0 *1 103.17,65.8
X$653 3390 3433 3389 25 3303 44 AOI21_X1
* cell instance $656 r0 *1 105.07,65.8
X$656 1940 25 44 3339 CLKBUF_X3
* cell instance $657 r0 *1 106.02,65.8
X$657 3388 3217 3387 3339 44 25 3338 OAI22_X1
* cell instance $660 r0 *1 108.87,65.8
X$660 3438 25 44 3387 INV_X1
* cell instance $663 r0 *1 113.05,65.8
X$663 3303 3221 635 3222 3300 3088 44 25 AOI221_X2
* cell instance $667 r0 *1 115.14,65.8
X$667 698 3220 3225 25 3221 44 AOI21_X1
* cell instance $668 r0 *1 115.9,65.8
X$668 3343 573 25 44 3223 NAND2_X1
* cell instance $669 r0 *1 116.47,65.8
X$669 3223 25 44 779 CLKBUF_X3
* cell instance $670 r0 *1 117.42,65.8
X$670 3344 196 25 44 2077 NAND2_X2
* cell instance $673 r0 *1 120.08,65.8
X$673 2077 25 44 3228 CLKBUF_X3
* cell instance $675 r0 *1 121.22,65.8
X$675 25 3229 3289 3131 44 DFF_X1
* cell instance $677 r0 *1 124.83,65.8
X$677 3231 1088 25 44 3285 NAND2_X1
* cell instance $678 r0 *1 125.4,65.8
X$678 3132 3285 3230 44 3381 25 OAI21_X1
* cell instance $679 r0 *1 126.16,65.8
X$679 2709 2996 25 44 3230 NAND2_X1
* cell instance $682 r0 *1 127.87,65.8
X$682 2709 3334 25 44 3232 NAND2_X1
* cell instance $683 r0 *1 128.44,65.8
X$683 3132 3347 3232 44 3379 25 OAI21_X1
* cell instance $685 r0 *1 129.39,65.8
X$685 3349 1088 25 44 3347 NAND2_X1
* cell instance $687 r0 *1 130.15,65.8
X$687 3348 1043 3349 25 44 3375 MUX2_X1
* cell instance $691 r0 *1 133.95,65.8
X$691 3319 3155 3443 44 3350 25 OAI21_X1
* cell instance $695 r0 *1 137.18,65.8
X$695 2325 25 44 2897 CLKBUF_X3
* cell instance $696 r0 *1 138.13,65.8
X$696 2897 25 44 7295 INV_X1
* cell instance $698 m0 *1 139.65,65.8
X$698 3250 946 1048 25 44 3274 NOR3_X1
* cell instance $700 m0 *1 140.41,65.8
X$700 25 3138 3263 2897 44 DFF_X1
* cell instance $704 m0 *1 145.35,65.8
X$704 25 3139 3257 3236 44 DFF_X1
* cell instance $705 m0 *1 144.78,65.8
X$705 3139 3142 25 44 3256 NAND2_X1
* cell instance $708 m0 *1 149.53,65.8
X$708 2973 25 44 7290 INV_X1
* cell instance $712 r0 *1 147.06,65.8
X$712 2475 3334 25 44 3352 NAND2_X1
* cell instance $714 r0 *1 149.15,65.8
X$714 3370 25 44 3355 BUF_X1
* cell instance $716 r0 *1 149.91,65.8
X$716 3143 3369 3368 44 3459 25 OAI21_X1
* cell instance $718 m0 *1 150.29,65.8
X$718 3063 2713 3059 25 44 3250 MUX2_X1
* cell instance $720 r0 *1 150.67,65.8
X$720 3353 2905 25 44 3369 NAND2_X1
* cell instance $721 r0 *1 151.24,65.8
X$721 2334 3334 25 44 3368 NAND2_X1
* cell instance $723 r0 *1 152,65.8
X$723 3229 25 44 3357 BUF_X1
* cell instance $724 r0 *1 152.57,65.8
X$724 3354 2715 25 44 3364 NAND2_X1
* cell instance $725 m0 *1 152.95,65.8
X$725 1222 25 44 3241 BUF_X1
* cell instance $728 r0 *1 153.14,65.8
X$728 2974 3364 3363 44 3456 25 OAI21_X1
* cell instance $729 r0 *1 153.9,65.8
X$729 3365 25 44 3454 BUF_X1
* cell instance $730 m0 *1 154.09,65.8
X$730 591 25 44 3240 BUF_X1
* cell instance $732 m0 *1 154.66,65.8
X$732 3246 25 44 3238 BUF_X1
* cell instance $734 r0 *1 154.47,65.8
X$734 3346 25 44 3356 BUF_X1
* cell instance $736 r0 *1 155.23,65.8
X$736 3359 25 44 3361 BUF_X1
* cell instance $740 m0 *1 63.84,133
X$740 6691 4980 6705 25 44 6165 MUX2_X1
* cell instance $742 m0 *1 65.17,133
X$742 6759 462 6645 25 44 6691 MUX2_X1
* cell instance $743 m0 *1 66.5,133
X$743 6759 259 6645 25 44 6761 MUX2_X1
* cell instance $746 m0 *1 71.06,133
X$746 1926 25 44 6572 CLKBUF_X3
* cell instance $747 m0 *1 72.01,133
X$747 1926 5431 25 44 6647 NAND2_X1
* cell instance $748 m0 *1 72.58,133
X$748 6572 6574 6647 44 6619 25 OAI21_X1
* cell instance $751 m0 *1 79.61,133
X$751 5470 6648 6764 44 6706 25 OAI21_X1
* cell instance $754 r0 *1 63.65,133
X$754 6758 4705 6701 25 44 6705 MUX2_X1
* cell instance $757 r0 *1 65.55,133
X$757 6758 3930 6701 25 44 6762 MUX2_X1
* cell instance $758 r0 *1 66.88,133
X$758 6645 1207 25 44 6797 NAND2_X1
* cell instance $759 r0 *1 67.45,133