
* cell parameterized_i2c_master
* pin state[3]
* pin ack_error
* pin start
* pin phase[0]
* pin phase[1]
* pin busy
* pin scl_internal_debug
* pin rst_n
* pin state[1]
* pin done
* pin state[0]
* pin state[2]
* pin bit_counter_debug[2]
* pin sda_internal_debug
* pin bit_counter_debug[1]
* pin stop
* pin bit_counter_debug[0]
* pin shift_reg_debug[7]
* pin clk
* pin data_out[7]
* pin write
* pin data_in[0]
* pin data_out[6]
* pin shift_reg_debug[6]
* pin read
* pin data_out[0]
* pin scl
* pin sda
* pin data_out[2]
* pin shift_reg_debug[0]
* pin data_in[1]
* pin shift_reg_debug[1]
* pin data_out[1]
* pin addr[4]
* pin data_in[7]
* pin data_in[6]
* pin addr[2]
* pin addr[5]
* pin data_in[5]
* pin addr[6]
* pin data_out[4]
* pin addr[1]
* pin shift_reg_debug[4]
* pin data_out[3]
* pin shift_reg_debug[3]
* pin data_in[2]
* pin addr[0]
* pin data_in[4]
* pin data_in[3]
* pin addr[3]
* pin shift_reg_debug[5]
* pin data_out[5]
* pin shift_reg_debug[2]
* pin NWELL
* pin PWELL,gf180mcu_gnd
.SUBCKT parameterized_i2c_master 1 2 3 4 5 6 7 56 61 97 107 145 154 172 177 185
+ 191 210 218 226 231 247 255 256 271 293 328 329 334 356 363 372 374 377 381
+ 382 383 384 386 387 390 391 393 394 396 398 399 400 401 402 403 404 405 406
+ 407
* net 1 state[3]
* net 2 ack_error
* net 3 start
* net 4 phase[0]
* net 5 phase[1]
* net 6 busy
* net 7 scl_internal_debug
* net 56 rst_n
* net 61 state[1]
* net 97 done
* net 107 state[0]
* net 145 state[2]
* net 154 bit_counter_debug[2]
* net 172 sda_internal_debug
* net 177 bit_counter_debug[1]
* net 185 stop
* net 191 bit_counter_debug[0]
* net 210 shift_reg_debug[7]
* net 218 clk
* net 226 data_out[7]
* net 231 write
* net 247 data_in[0]
* net 255 data_out[6]
* net 256 shift_reg_debug[6]
* net 271 read
* net 293 data_out[0]
* net 328 scl
* net 329 sda
* net 334 data_out[2]
* net 356 shift_reg_debug[0]
* net 363 data_in[1]
* net 372 shift_reg_debug[1]
* net 374 data_out[1]
* net 377 addr[4]
* net 381 data_in[7]
* net 382 data_in[6]
* net 383 addr[2]
* net 384 addr[5]
* net 386 data_in[5]
* net 387 addr[6]
* net 390 data_out[4]
* net 391 addr[1]
* net 393 shift_reg_debug[4]
* net 394 data_out[3]
* net 396 shift_reg_debug[3]
* net 398 data_in[2]
* net 399 addr[0]
* net 400 data_in[4]
* net 401 data_in[3]
* net 402 addr[3]
* net 403 shift_reg_debug[5]
* net 404 data_out[5]
* net 405 shift_reg_debug[2]
* net 406 NWELL
* net 407 PWELL,gf180mcu_gnd
* cell instance $3 r0 *1 27.44,5.04
X$3 8 406 407 1 gf180mcu_fd_sc_mcu9t5v0__dlyb_2
* cell instance $7 r0 *1 42,5.04
X$7 9 406 407 2 gf180mcu_fd_sc_mcu9t5v0__dlyb_2
* cell instance $11 r0 *1 55.44,5.04
X$11 3 406 407 50 gf180mcu_fd_sc_mcu9t5v0__clkbuf_2
* cell instance $15 r0 *1 80.64,5.04
X$15 10 406 407 4 gf180mcu_fd_sc_mcu9t5v0__dlyb_2
* cell instance $19 m0 *1 90.16,15.12
X$19 11 406 407 5 gf180mcu_fd_sc_mcu9t5v0__dlyb_2
* cell instance $23 r0 *1 127.12,5.04
X$23 13 406 407 6 gf180mcu_fd_sc_mcu9t5v0__dlyb_2
* cell instance $27 m0 *1 126,15.12
X$27 12 406 407 7 gf180mcu_fd_sc_mcu9t5v0__dlyb_2
* cell instance $30 m0 *1 26.88,45.36
X$30 407 406 8 62 gf180mcu_fd_sc_mcu9t5v0__buf_4
* cell instance $35 r0 *1 17.92,35.28
X$35 407 17 8 16 32 406 gf180mcu_fd_sc_mcu9t5v0__dffrnq_2
* cell instance $37 m0 *1 40.32,45.36
X$37 407 8 46 406 47 gf180mcu_fd_sc_mcu9t5v0__or2_2
* cell instance $40 r0 *1 52.08,35.28
X$40 406 9 44 407 24 gf180mcu_fd_sc_mcu9t5v0__and2_2
* cell instance $43 r0 *1 62.16,65.52
X$43 42 9 60 100 407 406 115 gf180mcu_fd_sc_mcu9t5v0__and4_2
* cell instance $52 r0 *1 42,65.52
X$52 9 118 47 116 406 407 126 gf180mcu_fd_sc_mcu9t5v0__or4_2
* cell instance $55 m0 *1 48.16,35.28
X$55 407 17 9 16 24 406 gf180mcu_fd_sc_mcu9t5v0__dffrnq_2
* cell instance $58 m0 *1 75.6,35.28
X$58 407 406 23 33 20 10 gf180mcu_fd_sc_mcu9t5v0__mux2_2
* cell instance $60 r0 *1 90.72,35.28
X$60 41 407 406 10 34 413 gf180mcu_fd_sc_mcu9t5v0__addh_1
* cell instance $62 r0 *1 87.92,25.2
X$62 407 406 10 19 gf180mcu_fd_sc_mcu9t5v0__clkinv_2
* cell instance $64 m0 *1 87.36,25.2
X$64 407 10 11 42 406 gf180mcu_fd_sc_mcu9t5v0__addh_4
* cell instance $69 r0 *1 68.32,25.2
X$69 407 17 10 16 23 406 gf180mcu_fd_sc_mcu9t5v0__dffrnq_2
* cell instance $74 r0 *1 87.36,35.28
X$74 407 406 11 34 gf180mcu_fd_sc_mcu9t5v0__clkinv_2
* cell instance $76 m0 *1 87.36,35.28
X$76 407 19 11 39 406 gf180mcu_fd_sc_mcu9t5v0__addh_4
* cell instance $83 m0 *1 108.64,35.28
X$83 407 17 11 25 31 406 gf180mcu_fd_sc_mcu9t5v0__dffrnq_2
* cell instance $86 r0 *1 107.52,35.28
X$86 407 406 31 11 35 30 gf180mcu_fd_sc_mcu9t5v0__mux2_2
* cell instance $88 m0 *1 122.08,45.36
X$88 407 406 52 53 20 12 gf180mcu_fd_sc_mcu9t5v0__mux2_2
* cell instance $91 r0 *1 119.84,45.36
X$91 407 12 25 52 43 406 gf180mcu_fd_sc_mcu9t5v0__dffsnq_2
* cell instance $95 m0 *1 118.72,25.2
X$95 407 406 14 15 20 13 gf180mcu_fd_sc_mcu9t5v0__mux2_2
* cell instance $101 r0 *1 114.8,25.2
X$101 407 17 13 25 14 406 gf180mcu_fd_sc_mcu9t5v0__dffrnq_2
* cell instance $105 m0 *1 115.36,55.44
X$105 407 75 83 406 15 gf180mcu_fd_sc_mcu9t5v0__or2_2
* cell instance $109 m0 *1 138.88,85.68
X$109 407 131 16 159 43 406 gf180mcu_fd_sc_mcu9t5v0__dffsnq_2
* cell instance $112 m0 *1 138.32,95.76
X$112 407 171 16 181 43 406 gf180mcu_fd_sc_mcu9t5v0__dffsnq_4
* cell instance $115 m0 *1 2.24,95.76
X$115 407 17 46 16 178 406 gf180mcu_fd_sc_mcu9t5v0__dffrnq_4
* cell instance $117 m0 *1 12.32,55.44
X$117 407 17 78 16 84 406 gf180mcu_fd_sc_mcu9t5v0__dffrnq_2
* cell instance $119 m0 *1 2.8,75.6
X$119 407 17 89 16 132 406 gf180mcu_fd_sc_mcu9t5v0__dffrnq_2
* cell instance $121 r0 *1 62.16,85.68
X$121 407 406 16 411 gf180mcu_fd_sc_mcu9t5v0__inv_4
* cell instance $132 r0 *1 61.04,75.6
X$132 407 406 194 16 gf180mcu_fd_sc_mcu9t5v0__clkbuf_4
* cell instance $136 r0 *1 145.04,85.68
X$136 407 43 17 406 gf180mcu_fd_sc_mcu9t5v0__buf_12
* cell instance $168 r0 *1 165.2,146.16
X$168 407 17 300 237 312 406 gf180mcu_fd_sc_mcu9t5v0__dffrnq_2
* cell instance $170 r0 *1 165.2,176.4
X$170 407 17 362 237 373 406 gf180mcu_fd_sc_mcu9t5v0__dffrnq_2
* cell instance $173 r0 *1 162.4,156.24
X$173 407 17 330 237 336 406 gf180mcu_fd_sc_mcu9t5v0__dffrnq_2
* cell instance $175 r0 *1 147.28,55.44
X$175 407 17 98 25 99 406 gf180mcu_fd_sc_mcu9t5v0__dffrnq_2
* cell instance $178 r0 *1 123.76,176.4
X$178 407 17 370 237 369 406 gf180mcu_fd_sc_mcu9t5v0__dffrnq_2
* cell instance $182 m0 *1 109.2,176.4
X$182 407 17 319 237 355 406 gf180mcu_fd_sc_mcu9t5v0__dffrnq_2
* cell instance $184 r0 *1 53.76,136.08
X$184 407 17 198 208 295 406 gf180mcu_fd_sc_mcu9t5v0__dffrnq_2
* cell instance $186 m0 *1 168.56,115.92
X$186 407 17 238 237 240 406 gf180mcu_fd_sc_mcu9t5v0__dffrnq_2
* cell instance $188 m0 *1 7.28,146.16
X$188 407 17 204 208 289 406 gf180mcu_fd_sc_mcu9t5v0__dffrnq_2
* cell instance $190 m0 *1 133.28,35.28
X$190 407 17 28 25 26 406 gf180mcu_fd_sc_mcu9t5v0__dffrnq_2
* cell instance $195 m0 *1 24.08,166.32
X$195 407 17 311 208 347 406 gf180mcu_fd_sc_mcu9t5v0__dffrnq_2
* cell instance $199 m0 *1 5.04,115.92
X$199 407 17 232 208 239 406 gf180mcu_fd_sc_mcu9t5v0__dffrnq_2
* cell instance $201 r0 *1 119.84,156.24
X$201 407 17 310 237 326 406 gf180mcu_fd_sc_mcu9t5v0__dffrnq_2
* cell instance $204 m0 *1 126.56,166.32
X$204 407 17 318 237 348 406 gf180mcu_fd_sc_mcu9t5v0__dffrnq_2
* cell instance $206 r0 *1 41.44,146.16
X$206 407 17 299 208 305 406 gf180mcu_fd_sc_mcu9t5v0__dffrnq_2
* cell instance $211 m0 *1 168.56,136.08
X$211 407 17 268 237 275 406 gf180mcu_fd_sc_mcu9t5v0__dffrnq_2
* cell instance $213 r0 *1 157.36,136.08
X$213 407 17 267 237 282 406 gf180mcu_fd_sc_mcu9t5v0__dffrnq_2
* cell instance $216 r0 *1 147.28,166.32
X$216 407 17 361 237 376 406 gf180mcu_fd_sc_mcu9t5v0__dffrnq_2
* cell instance $218 r0 *1 153.44,25.2
X$218 407 17 22 25 21 406 gf180mcu_fd_sc_mcu9t5v0__dffrnq_2
* cell instance $220 r0 *1 66.08,156.24
X$220 407 17 309 208 332 406 gf180mcu_fd_sc_mcu9t5v0__dffrnq_2
* cell instance $223 m0 *1 141.68,176.4
X$223 407 17 371 237 360 406 gf180mcu_fd_sc_mcu9t5v0__dffrnq_2
* cell instance $226 r0 *1 88.48,45.36
X$226 65 62 42 18 406 407 67 gf180mcu_fd_sc_mcu9t5v0__or4_2
* cell instance $231 r0 *1 102.48,45.36
X$231 407 406 57 76 18 gf180mcu_fd_sc_mcu9t5v0__nand2_2
* cell instance $233 r0 *1 78.4,35.28
X$233 407 18 39 406 33 gf180mcu_fd_sc_mcu9t5v0__or2_2
* cell instance $236 r0 *1 91.28,25.2
X$236 18 407 406 19 34 30 gf180mcu_fd_sc_mcu9t5v0__addh_1
* cell instance $243 r0 *1 106.96,55.44
X$243 40 96 20 70 407 406 99 gf180mcu_fd_sc_mcu9t5v0__and4_2
* cell instance $245 r0 *1 155.12,35.28
X$245 407 406 21 37 20 gf180mcu_fd_sc_mcu9t5v0__nor2_2
* cell instance $247 m0 *1 150.64,45.36
X$247 68 406 29 20 407 54 gf180mcu_fd_sc_mcu9t5v0__nor3_4
* cell instance $249 m0 *1 54.88,65.52
X$249 50 20 88 100 407 406 106 gf180mcu_fd_sc_mcu9t5v0__and4_2
* cell instance $251 m0 *1 51.52,45.36
X$251 406 407 47 77 20 59 45 48 gf180mcu_fd_sc_mcu9t5v0__oai221_2
* cell instance $272 m0 *1 152.32,35.28
X$272 407 406 22 27 gf180mcu_fd_sc_mcu9t5v0__clkinv_2
* cell instance $277 m0 *1 157.92,35.28
X$277 407 22 28 406 29 gf180mcu_fd_sc_mcu9t5v0__or2_2
* cell instance $289 m0 *1 132.72,65.52
X$289 407 103 25 102 43 406 gf180mcu_fd_sc_mcu9t5v0__dffsnq_2
* cell instance $291 r0 *1 129.36,65.52
X$291 407 113 25 127 43 406 gf180mcu_fd_sc_mcu9t5v0__dffsnq_2
* cell instance $296 m0 *1 119.28,95.76
X$296 407 406 194 25 gf180mcu_fd_sc_mcu9t5v0__clkbuf_4
* cell instance $299 m0 *1 109.2,95.76
X$299 407 406 25 409 gf180mcu_fd_sc_mcu9t5v0__clkinv_3
* cell instance $302 r0 *1 166.88,65.52
X$302 407 124 25 125 43 406 gf180mcu_fd_sc_mcu9t5v0__dffsnq_2
* cell instance $304 r0 *1 166.88,45.36
X$304 407 54 25 58 43 406 gf180mcu_fd_sc_mcu9t5v0__dffsnq_2
* cell instance $318 r0 *1 135.52,35.28
X$318 406 36 35 407 26 gf180mcu_fd_sc_mcu9t5v0__and2_2
* cell instance $320 r0 *1 145.6,35.28
X$320 73 407 406 36 27 37 gf180mcu_fd_sc_mcu9t5v0__addh_1
* cell instance $323 r0 *1 147.28,25.2
X$323 407 406 28 36 gf180mcu_fd_sc_mcu9t5v0__clkinv_2
* cell instance $330 m0 *1 159.6,55.44
X$330 407 68 406 85 29 74 gf180mcu_fd_sc_mcu9t5v0__aoi21_2
* cell instance $332 m0 *1 156.24,75.6
X$332 131 113 103 29 406 407 133 gf180mcu_fd_sc_mcu9t5v0__or4_2
* cell instance $336 r0 *1 154.56,45.36
X$336 407 29 68 54 406 35 gf180mcu_fd_sc_mcu9t5v0__or3_4
* cell instance $344 r0 *1 150.08,65.52
X$344 407 103 29 406 123 gf180mcu_fd_sc_mcu9t5v0__or2_2
* cell instance $346 m0 *1 104.16,45.36
X$346 407 406 30 51 gf180mcu_fd_sc_mcu9t5v0__clkinv_2
* cell instance $359 m0 *1 22.96,75.6
X$359 407 406 32 40 144 134 gf180mcu_fd_sc_mcu9t5v0__mux2_2
* cell instance $368 m0 *1 161.28,85.68
X$368 407 406 35 159 153 gf180mcu_fd_sc_mcu9t5v0__nand2_2
* cell instance $372 r0 *1 134.4,55.44
X$372 407 406 35 102 87 gf180mcu_fd_sc_mcu9t5v0__nand2_2
* cell instance $379 m0 *1 117.04,85.68
X$379 407 161 35 163 196 72 406 gf180mcu_fd_sc_mcu9t5v0__nor4_4
* cell instance $381 r0 *1 95.2,65.52
X$381 407 35 115 406 121 gf180mcu_fd_sc_mcu9t5v0__or2_2
* cell instance $393 r0 *1 179.76,35.28
X$393 407 406 38 43 gf180mcu_fd_sc_mcu9t5v0__buf_4
* cell instance $395 m0 *1 175.28,45.36
X$395 407 38 56 406 gf180mcu_fd_sc_mcu9t5v0__dlyc_2
* cell instance $397 r0 *1 66.64,95.76
X$397 39 80 57 188 65 406 407 gf180mcu_fd_sc_mcu9t5v0__aoi211_2
* cell instance $399 m0 *1 65.52,45.36
X$399 49 406 39 60 407 59 gf180mcu_fd_sc_mcu9t5v0__and3_2
* cell instance $401 m0 *1 84,55.44
X$401 407 406 39 79 gf180mcu_fd_sc_mcu9t5v0__clkinv_2
* cell instance $403 m0 *1 58.24,55.44
X$403 407 39 406 60 77 88 66 gf180mcu_fd_sc_mcu9t5v0__aoi22_2
* cell instance $405 r0 *1 57.68,55.44
X$405 407 406 39 64 167 gf180mcu_fd_sc_mcu9t5v0__nand2_2
* cell instance $407 m0 *1 44.24,55.44
X$407 407 406 86 42 46 39 gf180mcu_fd_sc_mcu9t5v0__mux2_2
* cell instance $410 r0 *1 76.16,85.68
X$410 407 406 62 169 39 gf180mcu_fd_sc_mcu9t5v0__nand2_2
* cell instance $428 m0 *1 75.6,95.76
X$428 406 169 407 110 39 176 72 gf180mcu_fd_sc_mcu9t5v0__oai22_2
* cell instance $430 r0 *1 48.72,75.6
X$430 90 406 91 39 407 140 gf180mcu_fd_sc_mcu9t5v0__and3_2
* cell instance $435 m0 *1 24.08,136.08
X$435 406 40 407 261 249 272 277 gf180mcu_fd_sc_mcu9t5v0__oai22_2
* cell instance $438 m0 *1 73.92,146.16
X$438 406 407 290 40 298 342 303 314 gf180mcu_fd_sc_mcu9t5v0__oai221_2
* cell instance $440 r0 *1 31.36,166.32
X$440 407 406 57 40 gf180mcu_fd_sc_mcu9t5v0__buf_4
* cell instance $443 m0 *1 24.64,115.92
X$443 407 40 406 227 241 117 gf180mcu_fd_sc_mcu9t5v0__aoi21_2
* cell instance $445 r0 *1 48.16,156.24
X$445 406 407 331 40 321 340 335 314 gf180mcu_fd_sc_mcu9t5v0__oai221_2
* cell instance $447 r0 *1 67.76,166.32
X$447 406 407 352 40 337 357 341 314 gf180mcu_fd_sc_mcu9t5v0__oai221_2
* cell instance $450 m0 *1 95.2,166.32
X$450 406 407 343 40 338 344 333 314 gf180mcu_fd_sc_mcu9t5v0__oai221_2
* cell instance $452 m0 *1 94.08,156.24
X$452 406 40 407 323 314 316 324 gf180mcu_fd_sc_mcu9t5v0__oai22_2
* cell instance $463 m0 *1 45.92,45.36
X$463 407 40 45 406 44 gf180mcu_fd_sc_mcu9t5v0__or2_2
* cell instance $466 m0 *1 90.16,55.44
X$466 80 407 71 41 406 81 gf180mcu_fd_sc_mcu9t5v0__or3_2
* cell instance $468 r0 *1 30.24,65.52
X$468 407 116 78 406 89 42 gf180mcu_fd_sc_mcu9t5v0__nand3_2
* cell instance $471 r0 *1 103.6,95.76
X$471 407 190 42 128 171 199 406 gf180mcu_fd_sc_mcu9t5v0__oai31_4
* cell instance $473 r0 *1 118.16,55.44
X$473 407 406 42 72 gf180mcu_fd_sc_mcu9t5v0__clkinv_3
* cell instance $475 m0 *1 52.08,126
X$475 138 42 243 204 407 406 259 gf180mcu_fd_sc_mcu9t5v0__and4_2
* cell instance $479 r0 *1 101.92,115.92
X$479 407 406 42 96 gf180mcu_fd_sc_mcu9t5v0__buf_4
* cell instance $499 r0 *1 19.6,85.68
X$499 108 407 46 42 406 156 gf180mcu_fd_sc_mcu9t5v0__or3_2
* cell instance $502 m0 *1 147.28,105.84
X$502 407 190 208 197 43 406 gf180mcu_fd_sc_mcu9t5v0__dffsnq_4
* cell instance $504 r0 *1 152.32,105.84
X$504 407 199 237 228 43 406 gf180mcu_fd_sc_mcu9t5v0__dffsnq_4
* cell instance $521 m0 *1 117.04,105.84
X$521 407 179 208 212 43 406 gf180mcu_fd_sc_mcu9t5v0__dffsnq_2
* cell instance $535 r0 *1 28.56,55.44
X$535 89 406 46 70 407 90 gf180mcu_fd_sc_mcu9t5v0__nor3_4
* cell instance $538 m0 *1 52.64,55.44
X$538 407 406 46 49 gf180mcu_fd_sc_mcu9t5v0__inv_4
* cell instance $542 m0 *1 36.96,65.52
X$542 407 406 100 62 46 gf180mcu_fd_sc_mcu9t5v0__nor2_2
* cell instance $545 r0 *1 8.96,75.6
X$545 407 406 46 137 gf180mcu_fd_sc_mcu9t5v0__buf_4
* cell instance $547 m0 *1 49.84,95.76
X$547 406 147 46 407 167 gf180mcu_fd_sc_mcu9t5v0__and2_2
* cell instance $558 m0 *1 2.24,85.68
X$558 46 406 407 145 gf180mcu_fd_sc_mcu9t5v0__dlyb_2
* cell instance $563 r0 *1 78.4,65.52
X$563 406 47 111 110 122 72 407 gf180mcu_fd_sc_mcu9t5v0__oai211_2
* cell instance $572 m0 *1 62.16,75.6
X$572 406 128 407 141 77 136 47 gf180mcu_fd_sc_mcu9t5v0__oai22_2
* cell instance $577 r0 *1 54.88,45.36
X$577 407 63 406 48 64 69 gf180mcu_fd_sc_mcu9t5v0__aoi21_2
* cell instance $579 m0 *1 69.44,105.84
X$579 406 407 188 176 49 214 235 216 gf180mcu_fd_sc_mcu9t5v0__oai221_2
* cell instance $581 m0 *1 67.2,126
X$581 406 49 63 250 407 gf180mcu_fd_sc_mcu9t5v0__and2_4
* cell instance $583 r0 *1 62.72,45.36
X$583 407 406 65 69 49 gf180mcu_fd_sc_mcu9t5v0__nand2_2
* cell instance $586 r0 *1 88.48,85.68
X$586 406 407 49 62 173 163 174 141 gf180mcu_fd_sc_mcu9t5v0__oai32_2
* cell instance $588 m0 *1 90.72,115.92
X$588 407 189 49 80 57 138 406 gf180mcu_fd_sc_mcu9t5v0__aoi211_4
* cell instance $598 r0 *1 52.64,65.52
X$598 407 109 49 91 90 406 128 gf180mcu_fd_sc_mcu9t5v0__nand4_2
* cell instance $601 r0 *1 49.28,115.92
X$601 406 95 407 233 96 49 243 gf180mcu_fd_sc_mcu9t5v0__oai31_2
* cell instance $603 m0 *1 67.76,65.52
X$603 406 95 407 129 50 71 110 gf180mcu_fd_sc_mcu9t5v0__oai31_2
* cell instance $605 r0 *1 72.24,45.36
X$605 407 406 50 66 gf180mcu_fd_sc_mcu9t5v0__clkinv_2
* cell instance $615 r0 *1 101.92,55.44
X$615 407 406 95 82 51 gf180mcu_fd_sc_mcu9t5v0__nand2_2
* cell instance $617 m0 *1 103.04,75.6
X$617 142 130 57 150 51 406 407 gf180mcu_fd_sc_mcu9t5v0__aoi211_2
* cell instance $626 m0 *1 100.8,55.44
X$626 407 406 53 76 70 82 gf180mcu_fd_sc_mcu9t5v0__mux2_2
* cell instance $636 m0 *1 165.2,45.36
X$636 407 406 58 55 54 85 gf180mcu_fd_sc_mcu9t5v0__mux2_2
* cell instance $639 m0 *1 166.88,55.44
X$639 407 74 68 406 55 gf180mcu_fd_sc_mcu9t5v0__or2_2
* cell instance $645 m0 *1 109.2,55.44
X$645 57 406 72 70 407 83 gf180mcu_fd_sc_mcu9t5v0__and3_2
* cell instance $648 r0 *1 101.92,75.6
X$648 407 57 406 143 142 130 gf180mcu_fd_sc_mcu9t5v0__aoi21_2
* cell instance $650 m0 *1 98.56,176.4
X$650 406 57 407 378 314 339 368 gf180mcu_fd_sc_mcu9t5v0__oai22_2
* cell instance $668 m0 *1 49.84,176.4
X$668 406 57 407 365 314 345 366 gf180mcu_fd_sc_mcu9t5v0__oai22_2
* cell instance $672 m0 *1 26.32,126
X$672 219 138 249 203 57 406 407 gf180mcu_fd_sc_mcu9t5v0__aoi211_2
* cell instance $675 r0 *1 31.92,45.36
X$675 407 62 57 406 gf180mcu_fd_sc_mcu9t5v0__clkbuf_8
* cell instance $686 m0 *1 40.32,105.84
X$686 96 204 60 100 407 406 200 gf180mcu_fd_sc_mcu9t5v0__and4_2
* cell instance $688 r0 *1 28,105.84
X$688 60 406 221 219 407 139 gf180mcu_fd_sc_mcu9t5v0__and3_2
* cell instance $690 m0 *1 62.72,105.84
X$690 95 406 60 195 407 214 gf180mcu_fd_sc_mcu9t5v0__and3_2
* cell instance $704 r0 *1 43.12,85.68
X$704 406 60 407 118 173 165 gf180mcu_fd_sc_mcu9t5v0__oai21_2
* cell instance $706 r0 *1 23.52,55.44
X$706 406 78 89 407 60 gf180mcu_fd_sc_mcu9t5v0__and2_2
* cell instance $709 m0 *1 3.92,55.44
X$709 78 406 407 61 gf180mcu_fd_sc_mcu9t5v0__dlyb_2
* cell instance $714 m0 *1 72.24,55.44
X$714 407 62 406 75 70 66 gf180mcu_fd_sc_mcu9t5v0__aoi21_2
* cell instance $716 m0 *1 39.76,85.68
X$716 407 406 146 147 62 gf180mcu_fd_sc_mcu9t5v0__nor2_2
* cell instance $723 r0 *1 50.96,85.68
X$723 407 406 62 166 gf180mcu_fd_sc_mcu9t5v0__clkinv_2
* cell instance $733 m0 *1 19.6,85.68
X$733 407 120 156 160 91 62 406 gf180mcu_fd_sc_mcu9t5v0__aoi211_4
* cell instance $736 m0 *1 86.8,95.76
X$736 406 62 407 137 122 147 gf180mcu_fd_sc_mcu9t5v0__oai21_2
* cell instance $740 m0 *1 48.16,105.84
X$740 407 406 205 213 63 100 gf180mcu_fd_sc_mcu9t5v0__mux2_2
* cell instance $743 m0 *1 48.72,115.92
X$743 407 65 406 205 236 233 63 gf180mcu_fd_sc_mcu9t5v0__aoi22_2
* cell instance $746 m0 *1 35.84,126
X$746 407 406 63 249 71 gf180mcu_fd_sc_mcu9t5v0__nand2_2
* cell instance $748 m0 *1 81.2,65.52
X$748 407 111 406 112 105 63 gf180mcu_fd_sc_mcu9t5v0__aoi21_2
* cell instance $750 r0 *1 92.96,95.76
X$750 63 406 187 217 407 202 gf180mcu_fd_sc_mcu9t5v0__and3_2
* cell instance $753 r0 *1 46.48,45.36
X$753 407 406 90 63 gf180mcu_fd_sc_mcu9t5v0__buf_4
* cell instance $764 m0 *1 63.84,115.92
X$764 406 63 407 96 234 138 gf180mcu_fd_sc_mcu9t5v0__oai21_2
* cell instance $767 r0 *1 36.96,95.76
X$767 406 63 407 144 193 187 gf180mcu_fd_sc_mcu9t5v0__oai21_2
* cell instance $769 m0 *1 92.96,75.6
X$769 406 63 407 137 130 65 gf180mcu_fd_sc_mcu9t5v0__oai21_2
* cell instance $773 r0 *1 54.88,95.76
X$773 406 65 100 407 187 gf180mcu_fd_sc_mcu9t5v0__and2_2
* cell instance $777 r0 *1 95.76,75.6
X$777 407 406 65 142 137 gf180mcu_fd_sc_mcu9t5v0__nand2_2
* cell instance $779 m0 *1 39.2,115.92
X$779 406 220 241 65 71 80 407 gf180mcu_fd_sc_mcu9t5v0__oai211_2
* cell instance $783 r0 *1 80.64,55.44
X$783 406 95 407 105 71 65 79 gf180mcu_fd_sc_mcu9t5v0__oai31_2
* cell instance $788 m0 *1 43.12,65.52
X$788 407 406 91 65 gf180mcu_fd_sc_mcu9t5v0__buf_4
* cell instance $800 r0 *1 75.6,115.92
X$800 406 80 407 96 246 65 gf180mcu_fd_sc_mcu9t5v0__oai21_2
* cell instance $808 r0 *1 93.52,55.44
X$808 407 67 406 148 81 101 gf180mcu_fd_sc_mcu9t5v0__aoi21_2
* cell instance $818 r0 *1 155.68,65.52
X$818 124 131 113 103 406 407 68 gf180mcu_fd_sc_mcu9t5v0__or4_2
* cell instance $833 m0 *1 58.24,115.92
X$833 406 95 71 407 221 gf180mcu_fd_sc_mcu9t5v0__and2_2
* cell instance $838 m0 *1 91.28,65.52
X$838 407 406 80 101 71 gf180mcu_fd_sc_mcu9t5v0__nand2_2
* cell instance $842 m0 *1 33.6,95.76
X$842 407 406 137 71 gf180mcu_fd_sc_mcu9t5v0__buf_4
* cell instance $854 r0 *1 24.64,65.52
X$854 407 71 116 406 117 gf180mcu_fd_sc_mcu9t5v0__or2_2
* cell instance $857 r0 *1 15.68,95.76
X$857 407 406 178 71 144 211 gf180mcu_fd_sc_mcu9t5v0__mux2_2
* cell instance $859 m0 *1 12.88,126
X$859 407 406 269 248 71 204 gf180mcu_fd_sc_mcu9t5v0__mux2_2
* cell instance $866 r0 *1 85.68,95.76
X$866 95 137 72 88 407 406 180 gf180mcu_fd_sc_mcu9t5v0__and4_2
* cell instance $876 m0 *1 154.56,55.44
X$876 407 406 73 74 gf180mcu_fd_sc_mcu9t5v0__clkinv_2
* cell instance $880 m0 *1 141.68,55.44
X$880 406 103 73 407 87 gf180mcu_fd_sc_mcu9t5v0__xnor2_2
* cell instance $890 m0 *1 153.44,65.52
X$890 113 407 103 74 406 104 gf180mcu_fd_sc_mcu9t5v0__or3_2
* cell instance $892 r0 *1 72.24,55.44
X$892 407 406 92 94 75 gf180mcu_fd_sc_mcu9t5v0__nand2_2
* cell instance $909 m0 *1 31.36,55.44
X$909 407 406 78 90 gf180mcu_fd_sc_mcu9t5v0__buf_4
* cell instance $911 m0 *1 16.8,65.52
X$911 407 406 78 108 gf180mcu_fd_sc_mcu9t5v0__clkinv_2
* cell instance $928 r0 *1 58.8,126
X$928 406 167 80 263 407 gf180mcu_fd_sc_mcu9t5v0__and2_4
* cell instance $931 r0 *1 49.28,126
X$931 406 80 167 407 281 gf180mcu_fd_sc_mcu9t5v0__xnor2_2
* cell instance $933 r0 *1 20.16,126
X$933 407 80 406 269 261 250 248 gf180mcu_fd_sc_mcu9t5v0__aoi22_2
* cell instance $937 r0 *1 13.44,65.52
X$937 407 406 108 80 gf180mcu_fd_sc_mcu9t5v0__buf_4
* cell instance $939 m0 *1 25.76,95.76
X$939 80 406 138 100 407 175 gf180mcu_fd_sc_mcu9t5v0__and3_2
* cell instance $966 r0 *1 24.64,95.76
X$966 406 193 407 186 84 144 gf180mcu_fd_sc_mcu9t5v0__oai21_2
* cell instance $977 r0 *1 48.16,55.44
X$977 90 407 91 86 406 92 gf180mcu_fd_sc_mcu9t5v0__or3_2
* cell instance $987 r0 *1 55.44,75.6
X$987 407 406 88 90 147 gf180mcu_fd_sc_mcu9t5v0__nor2_2
* cell instance $989 r0 *1 75.04,105.84
X$989 407 222 221 88 96 406 230 gf180mcu_fd_sc_mcu9t5v0__nand4_2
* cell instance $999 r0 *1 31.92,75.6
X$999 407 406 89 147 gf180mcu_fd_sc_mcu9t5v0__buf_4
* cell instance $1005 m0 *1 5.04,65.52
X$1005 89 406 407 107 gf180mcu_fd_sc_mcu9t5v0__dlyb_2
* cell instance $1009 m0 *1 32.48,65.52
X$1009 407 406 89 91 gf180mcu_fd_sc_mcu9t5v0__inv_3
* cell instance $1020 m0 *1 41.44,75.6
X$1020 406 137 407 91 135 90 gf180mcu_fd_sc_mcu9t5v0__oai21_2
* cell instance $1022 r0 *1 40.88,75.6
X$1022 406 146 407 137 141 90 gf180mcu_fd_sc_mcu9t5v0__oai21_2
* cell instance $1028 m0 *1 54.88,85.68
X$1028 407 166 90 91 155 137 406 gf180mcu_fd_sc_mcu9t5v0__and4_4
* cell instance $1030 m0 *1 49.28,85.68
X$1030 407 90 147 406 110 gf180mcu_fd_sc_mcu9t5v0__or2_2
* cell instance $1054 r0 *1 68.88,55.44
X$1054 407 406 92 93 gf180mcu_fd_sc_mcu9t5v0__clkinv_2
* cell instance $1059 r0 *1 70.56,65.52
X$1059 120 121 93 129 406 407 114 gf180mcu_fd_sc_mcu9t5v0__or4_2
* cell instance $1063 r0 *1 71.68,75.6
X$1063 120 121 94 119 406 407 168 gf180mcu_fd_sc_mcu9t5v0__or4_2
* cell instance $1065 m0 *1 71.68,85.68
X$1065 120 407 121 94 406 162 gf180mcu_fd_sc_mcu9t5v0__or3_2
* cell instance $1068 r0 *1 44.24,126
X$1068 407 406 95 280 110 gf180mcu_fd_sc_mcu9t5v0__nand2_2
* cell instance $1071 m0 *1 54.88,136.08
X$1071 406 281 95 314 407 gf180mcu_fd_sc_mcu9t5v0__and2_4
* cell instance $1074 r0 *1 54.32,85.68
X$1074 407 406 166 95 gf180mcu_fd_sc_mcu9t5v0__buf_4
* cell instance $1099 r0 *1 76.16,95.76
X$1099 406 96 407 110 216 95 gf180mcu_fd_sc_mcu9t5v0__oai21_2
* cell instance $1105 r0 *1 101.92,85.68
X$1105 407 406 151 174 96 143 gf180mcu_fd_sc_mcu9t5v0__mux2_2
* cell instance $1108 m0 *1 91.28,85.68
X$1108 96 406 163 155 407 149 gf180mcu_fd_sc_mcu9t5v0__and3_2
* cell instance $1129 r0 *1 89.6,105.84
X$1129 407 96 198 406 217 gf180mcu_fd_sc_mcu9t5v0__or2_2
* cell instance $1133 r0 *1 171.92,55.44
X$1133 98 406 407 97 gf180mcu_fd_sc_mcu9t5v0__dlyb_2
* cell instance $1173 r0 *1 155.12,75.6
X$1173 131 407 104 406 153 gf180mcu_fd_sc_mcu9t5v0__xor2_2
* cell instance $1178 r0 *1 8.4,136.08
X$1178 407 406 289 276 106 204 gf180mcu_fd_sc_mcu9t5v0__mux2_2
* cell instance $1181 r0 *1 5.6,115.92
X$1181 407 406 239 242 106 232 gf180mcu_fd_sc_mcu9t5v0__mux2_2
* cell instance $1190 r0 *1 7.28,85.68
X$1190 406 165 160 164 108 137 407 gf180mcu_fd_sc_mcu9t5v0__oai211_2
* cell instance $1194 m0 *1 51.52,75.6
X$1194 406 135 119 140 126 109 407 gf180mcu_fd_sc_mcu9t5v0__oai211_2
* cell instance $1212 m0 *1 74.48,75.6
X$1212 407 112 136 121 406 144 gf180mcu_fd_sc_mcu9t5v0__or3_4
* cell instance $1217 m0 *1 146.16,75.6
X$1217 406 113 123 407 127 gf180mcu_fd_sc_mcu9t5v0__xnor2_2
* cell instance $1226 r0 *1 115.92,75.6
X$1226 407 406 152 151 114 gf180mcu_fd_sc_mcu9t5v0__nor2_2
* cell instance $1244 m0 *1 42,95.76
X$1244 407 406 204 118 gf180mcu_fd_sc_mcu9t5v0__clkinv_2
* cell instance $1256 m0 *1 31.36,75.6
X$1256 407 139 120 406 134 gf180mcu_fd_sc_mcu9t5v0__or2_2
* cell instance $1261 m0 *1 97.44,85.68
X$1261 407 206 149 406 148 121 150 gf180mcu_fd_sc_mcu9t5v0__nor4_2
* cell instance $1275 m0 *1 107.52,85.68
X$1275 121 150 148 149 406 407 157 gf180mcu_fd_sc_mcu9t5v0__or4_2
* cell instance $1278 r0 *1 92.96,115.92
X$1278 407 406 122 244 gf180mcu_fd_sc_mcu9t5v0__clkinv_2
* cell instance $1286 m0 *1 166.88,75.6
X$1286 406 124 133 407 125 gf180mcu_fd_sc_mcu9t5v0__xnor2_2
* cell instance $1311 r0 *1 101.92,105.84
X$1311 406 206 407 229 215 128 224 gf180mcu_fd_sc_mcu9t5v0__oai31_2
* cell instance $1331 r0 *1 16.8,75.6
X$1331 407 406 132 138 144 146 gf180mcu_fd_sc_mcu9t5v0__mux2_2
* cell instance $1349 r0 *1 47.6,95.76
X$1349 406 137 165 407 213 gf180mcu_fd_sc_mcu9t5v0__and2_2
* cell instance $1374 m0 *1 35.28,136.08
X$1374 407 276 406 280 294 272 138 gf180mcu_fd_sc_mcu9t5v0__aoi22_2
* cell instance $1376 m0 *1 29.12,176.4
X$1376 407 406 147 138 gf180mcu_fd_sc_mcu9t5v0__buf_4
* cell instance $1401 r0 *1 47.6,166.32
X$1401 407 406 351 350 138 299 gf180mcu_fd_sc_mcu9t5v0__mux2_2
* cell instance $1404 r0 *1 86.8,146.16
X$1404 407 406 308 315 138 309 gf180mcu_fd_sc_mcu9t5v0__mux2_2
* cell instance $1406 r0 *1 90.72,166.32
X$1406 407 406 359 354 138 318 gf180mcu_fd_sc_mcu9t5v0__mux2_2
* cell instance $1414 r0 *1 117.04,85.68
X$1414 407 406 158 170 141 gf180mcu_fd_sc_mcu9t5v0__nor2_2
* cell instance $1457 m0 *1 77.28,136.08
X$1457 407 406 283 262 147 267 gf180mcu_fd_sc_mcu9t5v0__mux2_2
* cell instance $1478 r0 *1 34.16,176.4
X$1478 407 406 375 379 147 311 gf180mcu_fd_sc_mcu9t5v0__mux2_2
* cell instance $1480 m0 *1 84,186.48
X$1480 407 406 397 388 147 319 gf180mcu_fd_sc_mcu9t5v0__mux2_2
* cell instance $1482 r0 *1 67.76,176.4
X$1482 407 406 367 380 147 310 gf180mcu_fd_sc_mcu9t5v0__mux2_2
* cell instance $1506 r0 *1 122.64,85.68
X$1506 151 407 162 158 406 183 gf180mcu_fd_sc_mcu9t5v0__or3_2
* cell instance $1510 m0 *1 113.68,95.76
X$1510 407 406 182 151 162 gf180mcu_fd_sc_mcu9t5v0__nor2_2
* cell instance $1516 r0 *1 147.28,95.76
X$1516 407 406 197 192 152 190 gf180mcu_fd_sc_mcu9t5v0__mux2_2
* cell instance $1518 r0 *1 143.92,105.84
X$1518 407 406 228 225 152 199 gf180mcu_fd_sc_mcu9t5v0__mux2_2
* cell instance $1523 r0 *1 171.36,85.68
X$1523 171 406 407 154 gf180mcu_fd_sc_mcu9t5v0__dlyb_2
* cell instance $1525 m0 *1 120.4,115.92
X$1525 407 406 155 196 gf180mcu_fd_sc_mcu9t5v0__clkinv_2
* cell instance $1527 m0 *1 71.68,156.24
X$1527 406 270 337 313 155 309 407 gf180mcu_fd_sc_mcu9t5v0__oai211_2
* cell instance $1533 r0 *1 118.72,146.16
X$1533 310 406 155 302 407 322 gf180mcu_fd_sc_mcu9t5v0__and3_2
* cell instance $1535 m0 *1 123.2,156.24
X$1535 318 406 155 296 407 327 gf180mcu_fd_sc_mcu9t5v0__and3_2
* cell instance $1543 m0 *1 88.48,146.16
X$1543 406 270 298 304 155 198 407 gf180mcu_fd_sc_mcu9t5v0__oai211_2
* cell instance $1545 r0 *1 90.72,136.08
X$1545 406 155 285 407 278 gf180mcu_fd_sc_mcu9t5v0__and2_2
* cell instance $1547 m0 *1 64.4,156.24
X$1547 407 321 311 406 155 306 gf180mcu_fd_sc_mcu9t5v0__nand3_2
* cell instance $1549 m0 *1 104.16,156.24
X$1549 407 338 319 406 155 317 gf180mcu_fd_sc_mcu9t5v0__nand3_2
* cell instance $1556 m0 *1 104.72,105.84
X$1556 407 207 202 406 224 157 215 gf180mcu_fd_sc_mcu9t5v0__nor4_2
* cell instance $1570 m0 *1 169.12,176.4
X$1570 407 406 373 311 161 362 gf180mcu_fd_sc_mcu9t5v0__mux2_2
* cell instance $1579 r0 *1 170.8,115.92
X$1579 407 406 240 198 161 238 gf180mcu_fd_sc_mcu9t5v0__mux2_2
* cell instance $1582 m0 *1 164.08,156.24
X$1582 407 406 336 318 161 330 gf180mcu_fd_sc_mcu9t5v0__mux2_2
* cell instance $1584 m0 *1 167.44,146.16
X$1584 407 406 312 299 161 300 gf180mcu_fd_sc_mcu9t5v0__mux2_2
* cell instance $1586 r0 *1 145.6,176.4
X$1586 407 406 360 310 161 371 gf180mcu_fd_sc_mcu9t5v0__mux2_2
* cell instance $1589 r0 *1 168.56,126
X$1589 407 406 275 267 161 268 gf180mcu_fd_sc_mcu9t5v0__mux2_2
* cell instance $1591 r0 *1 154,176.4
X$1591 407 406 376 309 161 361 gf180mcu_fd_sc_mcu9t5v0__mux2_2
* cell instance $1594 m0 *1 129.92,176.4
X$1594 407 406 369 319 161 370 gf180mcu_fd_sc_mcu9t5v0__mux2_2
* cell instance $1613 r0 *1 112,105.84
X$1613 407 406 209 230 163 gf180mcu_fd_sc_mcu9t5v0__nand2_2
* cell instance $1615 m0 *1 100.8,136.08
X$1615 254 407 163 270 406 285 gf180mcu_fd_sc_mcu9t5v0__or3_2
* cell instance $1617 r0 *1 113.68,115.92
X$1617 199 407 171 190 406 163 gf180mcu_fd_sc_mcu9t5v0__or3_2
* cell instance $1621 r0 *1 8.4,105.84
X$1621 407 406 232 164 gf180mcu_fd_sc_mcu9t5v0__clkinv_2
* cell instance $1623 m0 *1 33.6,115.92
X$1623 407 406 165 243 gf180mcu_fd_sc_mcu9t5v0__clkinv_2
* cell instance $1631 r0 *1 5.04,95.76
X$1631 185 406 407 165 gf180mcu_fd_sc_mcu9t5v0__clkbuf_2
* cell instance $1649 m0 *1 76.72,126
X$1649 407 168 273 406 gf180mcu_fd_sc_mcu9t5v0__clkbuf_8
* cell instance $1654 r0 *1 126.56,95.76
X$1654 171 406 170 189 407 184 gf180mcu_fd_sc_mcu9t5v0__and3_2
* cell instance $1661 r0 *1 110.32,126
X$1661 406 171 170 407 270 gf180mcu_fd_sc_mcu9t5v0__xnor2_2
* cell instance $1664 m0 *1 129.92,126
X$1664 407 406 245 252 170 171 gf180mcu_fd_sc_mcu9t5v0__mux2_2
* cell instance $1666 r0 *1 127.12,126
X$1666 407 406 264 171 170 252 gf180mcu_fd_sc_mcu9t5v0__mux2_2
* cell instance $1669 r0 *1 137.2,126
X$1669 407 170 254 265 266 406 gf180mcu_fd_sc_mcu9t5v0__addh_2
* cell instance $1672 m0 *1 143.92,105.84
X$1672 407 406 171 201 gf180mcu_fd_sc_mcu9t5v0__clkinv_2
* cell instance $1675 r0 *1 146.16,146.16
X$1675 407 279 171 299 310 190 309 311 406 gf180mcu_fd_sc_mcu9t5v0__mux4_2
* cell instance $1694 r0 *1 135.52,136.08