
* cell lfsr
* pin seed[0]
* pin seed[1]
* pin bit_out
* pin seed[2]
* pin lfsr_out[0]
* pin lfsr_out[1]
* pin rst_n
* pin enable
* pin lfsr_out[2]
* pin lfsr_out[3]
* pin load
* pin seed[7]
* pin clk
* pin seed[6]
* pin lfsr_out[4]
* pin seed[5]
* pin seed[4]
* pin lfsr_out[6]
* pin lfsr_out[5]
* pin seed[3]
* pin lfsr_out[7]
.SUBCKT lfsr 1 2 3 4 5 6 26 29 30 34 37 39 41 73 74 75 76 77 78 79 80
* net 1 seed[0]
* net 2 seed[1]
* net 3 bit_out
* net 4 seed[2]
* net 5 lfsr_out[0]
* net 6 lfsr_out[1]
* net 26 rst_n
* net 29 enable
* net 30 lfsr_out[2]
* net 34 lfsr_out[3]
* net 37 load
* net 39 seed[7]
* net 41 clk
* net 73 seed[6]
* net 74 lfsr_out[4]
* net 75 seed[5]
* net 76 seed[4]
* net 77 lfsr_out[6]
* net 78 lfsr_out[5]
* net 79 seed[3]
* net 80 lfsr_out[7]
* cell instance $2 r0 *1 30.36,2.72
X$2 13 1 9 7 13 7 sky130_fd_sc_hd__clkbuf_1
* cell instance $6 r0 *1 32.66,2.72
X$6 13 2 10 7 13 7 sky130_fd_sc_hd__clkbuf_1
* cell instance $9 m0 *1 36.34,8.16
X$9 13 12 3 7 13 7 sky130_fd_sc_hd__clkbuf_1
* cell instance $12 r0 *1 35.42,2.72
X$12 13 4 11 7 13 7 sky130_fd_sc_hd__clkbuf_1
* cell instance $14 r0 *1 36.8,2.72
X$14 13 14 5 7 13 7 sky130_fd_sc_hd__clkbuf_1
* cell instance $18 r0 *1 39.56,2.72
X$18 13 8 6 7 13 7 sky130_fd_sc_hd__clkbuf_1
* cell instance $69 m0 *1 37.72,8.16
X$69 13 12 14 7 13 7 sky130_fd_sc_hd__clkbuf_1
* cell instance $198 r0 *1 30.82,19.04
X$198 13 17 9 21 13 7 7 sky130_fd_sc_hd__nand2_1
* cell instance $200 r0 *1 34.04,19.04
X$200 13 17 10 18 13 7 7 sky130_fd_sc_hd__nand2_1
* cell instance $202 r0 *1 35.88,19.04
X$202 13 17 11 32 13 7 7 sky130_fd_sc_hd__nand2_1
* cell instance $226 m0 *1 29.9,24.48
X$226 13 17 15 21 13 16 7 7 sky130_fd_sc_hd__o21ai_0
* cell instance $227 m0 *1 31.74,24.48
X$227 7 22 12 19 16 13 13 7 sky130_fd_sc_hd__dfrtp_1
* cell instance $228 m0 *1 40.94,24.48
X$228 7 15 12 8 20 13 13 7 sky130_fd_sc_hd__mux2i_1
* cell instance $251 r0 *1 31.28,24.48
X$251 13 17 24 18 13 23 7 7 sky130_fd_sc_hd__o21ai_0
* cell instance $252 r0 *1 33.12,24.48
X$252 7 22 8 19 23 13 13 7 sky130_fd_sc_hd__dfrtp_1
* cell instance $258 r0 *1 43.24,24.48
X$258 7 24 8 25 20 13 13 7 sky130_fd_sc_hd__mux2i_1
* cell instance $269 m0 *1 8.28,29.92
X$269 13 26 13 31 7 7 sky130_fd_sc_hd__dlygate4sd3_1
* cell instance $272 m0 *1 16.1,29.92
X$272 13 31 7 22 13 7 sky130_fd_sc_hd__buf_2
* cell instance $280 m0 *1 35.42,29.92
X$280 13 17 27 32 13 28 7 7 sky130_fd_sc_hd__o21ai_0
* cell instance $281 m0 *1 37.26,29.92
X$281 7 22 25 19 28 13 13 7 sky130_fd_sc_hd__dfrtp_1
* cell instance $282 m0 *1 46.46,29.92
X$282 7 27 25 33 20 13 13 7 sky130_fd_sc_hd__mux2i_1
* cell instance $283 m0 *1 50.14,29.92
X$283 7 29 20 13 13 7 sky130_fd_sc_hd__buf_6
* cell instance $288 m0 *1 58.88,29.92
X$288 13 25 30 7 13 7 sky130_fd_sc_hd__clkbuf_1
* cell instance $305 r0 *1 35.88,29.92
X$305 7 35 19 13 13 7 sky130_fd_sc_hd__clkbuf_8
* cell instance $313 r0 *1 56.12,29.92
X$313 13 33 34 7 13 7 sky130_fd_sc_hd__clkbuf_1
* cell instance $396 r0 *1 36.34,40.8
X$396 13 47 7 17 13 7 sky130_fd_sc_hd__buf_2
* cell instance $408 r0 *1 47.84,40.8
X$408 7 20 46 38 36 13 13 33 7 sky130_fd_sc_hd__or4b_1
* cell instance $411 r0 *1 51.52,40.8
X$411 13 36 13 7 47 7 sky130_fd_sc_hd__clkbuf_2
* cell instance $412 r0 *1 53.36,40.8
X$412 13 37 36 7 13 7 sky130_fd_sc_hd__clkbuf_1
* cell instance $437 m0 *1 35.42,46.24
X$437 7 41 35 13 13 7 sky130_fd_sc_hd__clkbuf_8
* cell instance $438 m0 *1 40.48,46.24
X$438 7 22 38 19 42 13 13 7 sky130_fd_sc_hd__dfrtp_1
* cell instance $442 m0 *1 50.14,46.24
X$442 13 43 40 51 42 7 13 7 sky130_fd_sc_hd__nand3b_1
* cell instance $462 r0 *1 33.12,46.24
X$462 7 22 33 49 50 13 13 7 sky130_fd_sc_hd__dfrtp_2
* cell instance $466 r0 *1 43.24,46.24
X$466 13 33 20 38 47 44 7 13 7 sky130_fd_sc_hd__nor4bb_1
* cell instance $468 r0 *1 47.38,46.24
X$468 13 44 54 48 13 51 7 7 sky130_fd_sc_hd__o21ai_0
* cell instance $470 r0 *1 49.68,46.24
X$470 13 48 46 45 7 13 43 7 sky130_fd_sc_hd__a21oi_1
* cell instance $472 r0 *1 51.98,46.24
X$472 13 47 38 33 45 7 13 7 sky130_fd_sc_hd__nand3b_1
* cell instance $477 r0 *1 64.86,46.24
X$477 13 39 56 7 13 7 sky130_fd_sc_hd__clkbuf_1
* cell instance $491 m0 *1 37.72,51.68
X$491 13 47 52 57 13 50 7 7 sky130_fd_sc_hd__o21ai_0
* cell instance $495 m0 *1 41.86,51.68
X$495 7 52 33 55 20 13 13 7 sky130_fd_sc_hd__mux2i_1
* cell instance $496 m0 *1 45.54,51.68
X$496 13 33 47 38 54 7 13 7 sky130_fd_sc_hd__nor3b_1
* cell instance $498 m0 *1 48.76,51.68
X$498 13 47 20 53 7 13 7 sky130_fd_sc_hd__nor2_1
* cell instance $499 m0 *1 50.14,51.68
X$499 13 38 53 47 56 13 40 7 7 sky130_fd_sc_hd__a22oi_1
* cell instance $518 r0 *1 34.5,51.68
X$518 7 35 49 13 13 7 sky130_fd_sc_hd__clkbuf_8
* cell instance $519 r0 *1 39.56,51.68
X$519 13 47 58 61 13 60 7 7 sky130_fd_sc_hd__o21ai_0
* cell instance $520 r0 *1 41.4,51.68
X$520 13 17 59 57 13 7 7 sky130_fd_sc_hd__nand2_1
* cell instance $524 r0 *1 43.7,51.68
X$524 13 67 55 48 13 7 7 sky130_fd_sc_hd__xnor2_1
* cell instance $543 m0 *1 30.36,57.12
X$543 13 17 70 61 13 7 7 sky130_fd_sc_hd__nand2_1
* cell instance $544 m0 *1 31.74,57.12
X$544 13 17 72 63 13 7 7 sky130_fd_sc_hd__nand2_1
* cell instance $545 m0 *1 33.12,57.12
X$545 13 49 81 7 13 7 sky130_fd_sc_hd__clkbuf_1
* cell instance $546 m0 *1 34.5,57.12
X$546 13 47 62 63 13 65 7 7 sky130_fd_sc_hd__o21ai_0
* cell instance $547 m0 *1 36.34,57.12
X$547 7 22 55 49 60 13 13 7 sky130_fd_sc_hd__dfrtp_1
* cell instance $570 r0 *1 29.9,57.12
X$570 13 17 71 68 13 7 7 sky130_fd_sc_hd__nand2_1
* cell instance $571 r0 *1 31.28,57.12
X$571 13 47 64 68 13 69 7 7 sky130_fd_sc_hd__o21ai_0
* cell instance $573 r0 *1 33.58,57.12
X$573 7 22 66 49 65 13 13 7 sky130_fd_sc_hd__dfrtp_1
* cell instance $576 r0 *1 43.24,57.12
X$576 7 58 55 67 20 13 13 7 sky130_fd_sc_hd__mux2i_1
* cell instance $577 r0 *1 46.92,57.12
X$577 7 62 66 38 20 13 13 7 sky130_fd_sc_hd__mux2i_1
* cell instance $595 m0 *1 33.12,62.56
X$595 7 22 67 49 69 13 13 7 sky130_fd_sc_hd__dfrtp_1
* cell instance $598 m0 *1 42.32,62.56
X$598 7 64 67 66 20 13 13 7 sky130_fd_sc_hd__mux2i_1
* cell instance $619 r0 *1 27.6,62.56
X$619 13 75 71 7 13 7 sky130_fd_sc_hd__clkbuf_1
* cell instance $623 r0 *1 30.82,62.56
X$623 13 76 70 7 13 7 sky130_fd_sc_hd__clkbuf_1
* cell instance $624 r0 *1 32.2,62.56
X$624 13 73 72 7 13 7 sky130_fd_sc_hd__clkbuf_1
* cell instance $626 r0 *1 35.42,62.56
X$626 13 66 77 7 13 7 sky130_fd_sc_hd__clkbuf_1
* cell instance $629 r0 *1 38.18,62.56
X$629 13 79 59 7 13 7 sky130_fd_sc_hd__clkbuf_1
* cell instance $630 r0 *1 39.56,62.56
X$630 13 67 78 7 13 7 sky130_fd_sc_hd__clkbuf_1
* cell instance $631 r0 *1 40.94,62.56
X$631 13 55 74 7 13 7 sky130_fd_sc_hd__clkbuf_1
* cell instance $637 r0 *1 48.76,62.56
X$637 13 38 80 7 13 7 sky130_fd_sc_hd__clkbuf_1
.ENDS lfsr

* cell sky130_fd_sc_hd__buf_6
* pin VGND
* pin A
* pin X
* pin VPWR
* pin VPB
* pin 
.SUBCKT sky130_fd_sc_hd__buf_6 1 2 4 5 6 7
* net 1 VGND
* net 2 A
* net 4 X
* net 5 VPWR
* net 6 VPB
* device instance $1 r0 *1 0.73,1.985 pfet_01v8_hvt
M$1 3 2 5 6 pfet_01v8_hvt L=150000U W=2000000U AS=395000000000P
+ AD=270000000000P PS=3790000U PD=2540000U
* device instance $3 r0 *1 1.57,1.985 pfet_01v8_hvt
M$3 4 3 5 6 pfet_01v8_hvt L=150000U W=6000000U AS=810000000000P
+ AD=935000000000P PS=7620000U PD=8870000U
* device instance $9 r0 *1 0.73,0.56 nfet_01v8
M$9 3 2 1 7 nfet_01v8 L=150000U W=1300000U AS=256750000000P AD=175500000000P
+ PS=2740000U PD=1840000U
* device instance $11 r0 *1 1.57,0.56 nfet_01v8
M$11 4 3 1 7 nfet_01v8 L=150000U W=3900000U AS=526500000000P AD=607750000000P
+ PS=5520000U PD=6420000U
.ENDS sky130_fd_sc_hd__buf_6

* cell sky130_fd_sc_hd__dlygate4sd3_1
* pin VPB
* pin A
* pin VPWR
* pin X
* pin VGND
* pin 
.SUBCKT sky130_fd_sc_hd__dlygate4sd3_1 1 3 5 7 8 9
* net 1 VPB
* net 3 A
* net 5 VPWR
* net 7 X
* net 8 VGND
* device instance $1 r0 *1 2.465,2.275 pfet_01v8_hvt
M$1 6 2 5 1 pfet_01v8_hvt L=500000U W=420000U AS=140750000000P AD=109200000000P
+ PS=1325000U PD=1360000U
* device instance $2 r0 *1 3.115,1.985 pfet_01v8_hvt
M$2 7 6 5 1 pfet_01v8_hvt L=150000U W=1000000U AS=140750000000P
+ AD=260000000000P PS=1325000U PD=2520000U
* device instance $3 r0 *1 0.58,2.275 pfet_01v8_hvt
M$3 5 3 4 1 pfet_01v8_hvt L=150000U W=420000U AS=109200000000P AD=56700000000P
+ PS=1360000U PD=690000U
* device instance $4 r0 *1 1.175,2.275 pfet_01v8_hvt
M$4 2 4 5 1 pfet_01v8_hvt L=500000U W=420000U AS=56700000000P AD=109200000000P
+ PS=690000U PD=1360000U
* device instance $5 r0 *1 2.465,0.445 nfet_01v8
M$5 8 2 6 9 nfet_01v8 L=500000U W=420000U AS=109200000000P AD=97000000000P
+ PS=1360000U PD=975000U
* device instance $6 r0 *1 3.115,0.56 nfet_01v8
M$6 7 6 8 9 nfet_01v8 L=150000U W=650000U AS=97000000000P AD=169000000000P
+ PS=975000U PD=1820000U
* device instance $7 r0 *1 0.58,0.445 nfet_01v8
M$7 8 3 4 9 nfet_01v8 L=150000U W=420000U AS=109200000000P AD=56700000000P
+ PS=1360000U PD=690000U
* device instance $8 r0 *1 1.175,0.445 nfet_01v8
M$8 2 4 8 9 nfet_01v8 L=500000U W=420000U AS=56700000000P AD=109200000000P
+ PS=690000U PD=1360000U
.ENDS sky130_fd_sc_hd__dlygate4sd3_1

* cell sky130_fd_sc_hd__clkbuf_2
* pin VPB
* pin A
* pin VPWR
* pin VGND
* pin X
* pin 
.SUBCKT sky130_fd_sc_hd__clkbuf_2 1 2 3 4 6 7
* net 1 VPB
* net 2 A
* net 3 VPWR
* net 4 VGND
* net 6 X
* device instance $1 r0 *1 0.475,1.985 pfet_01v8_hvt
M$1 3 2 5 1 pfet_01v8_hvt L=150000U W=1000000U AS=265000000000P
+ AD=162500000000P PS=2530000U PD=1325000U
* device instance $2 r0 *1 0.95,1.985 pfet_01v8_hvt
M$2 6 5 3 1 pfet_01v8_hvt L=150000U W=2000000U AS=297500000000P
+ AD=395000000000P PS=2595000U PD=3790000U
* device instance $4 r0 *1 0.475,0.445 nfet_01v8
M$4 4 2 5 7 nfet_01v8 L=150000U W=420000U AS=111300000000P AD=68250000000P
+ PS=1370000U PD=745000U
* device instance $5 r0 *1 0.95,0.445 nfet_01v8
M$5 6 5 4 7 nfet_01v8 L=150000U W=840000U AS=124950000000P AD=165900000000P
+ PS=1435000U PD=2050000U
.ENDS sky130_fd_sc_hd__clkbuf_2

* cell sky130_fd_sc_hd__buf_2
* pin VPB
* pin A
* pin VGND
* pin X
* pin VPWR
* pin 
.SUBCKT sky130_fd_sc_hd__buf_2 1 3 4 5 6 7
* net 1 VPB
* net 3 A
* net 4 VGND
* net 5 X
* net 6 VPWR
* device instance $1 r0 *1 0.47,2.125 pfet_01v8_hvt
M$1 2 3 6 1 pfet_01v8_hvt L=150000U W=640000U AS=149000000000P AD=166400000000P
+ PS=1325000U PD=1800000U
* device instance $2 r0 *1 0.945,1.985 pfet_01v8_hvt
M$2 5 2 6 1 pfet_01v8_hvt L=150000U W=2000000U AS=284000000000P
+ AD=400000000000P PS=2595000U PD=3800000U
* device instance $4 r0 *1 0.47,0.445 nfet_01v8
M$4 4 3 2 7 nfet_01v8 L=150000U W=420000U AS=109200000000P AD=97000000000P
+ PS=1360000U PD=975000U
* device instance $5 r0 *1 0.945,0.56 nfet_01v8
M$5 5 2 4 7 nfet_01v8 L=150000U W=1300000U AS=184750000000P AD=260000000000P
+ PS=1895000U PD=2750000U
.ENDS sky130_fd_sc_hd__buf_2

* cell sky130_fd_sc_hd__nor4bb_1
* pin VPB
* pin C_N
* pin D_N
* pin B
* pin A
* pin Y
* pin VGND
* pin VPWR
* pin 
.SUBCKT sky130_fd_sc_hd__nor4bb_1 1 2 3 5 6 8 9 10 11
* net 1 VPB
* net 2 C_N
* net 3 D_N
* net 5 B
* net 6 A
* net 8 Y
* net 9 VGND
* net 10 VPWR
* device instance $1 r0 *1 1.89,1.985 pfet_01v8_hvt
M$1 14 7 8 1 pfet_01v8_hvt L=150000U W=1000000U AS=255900000000P
+ AD=135000000000P PS=2520000U PD=1270000U
* device instance $2 r0 *1 2.31,1.985 pfet_01v8_hvt
M$2 13 4 14 1 pfet_01v8_hvt L=150000U W=1000000U AS=135000000000P
+ AD=165000000000P PS=1270000U PD=1330000U
* device instance $3 r0 *1 2.79,1.985 pfet_01v8_hvt
M$3 12 5 13 1 pfet_01v8_hvt L=150000U W=1000000U AS=165000000000P
+ AD=135000000000P PS=1330000U PD=1270000U
* device instance $4 r0 *1 3.21,1.985 pfet_01v8_hvt
M$4 10 6 12 1 pfet_01v8_hvt L=150000U W=1000000U AS=135000000000P
+ AD=260000000000P PS=1270000U PD=2520000U
* device instance $5 r0 *1 0.955,1.695 pfet_01v8_hvt
M$5 7 3 10 1 pfet_01v8_hvt L=150000U W=420000U AS=122612500000P
+ AD=108500000000P PS=1320000U PD=1360000U
* device instance $6 r0 *1 0.47,2.26 pfet_01v8_hvt
M$6 4 2 10 1 pfet_01v8_hvt L=150000U W=420000U AS=122612500000P
+ AD=109200000000P PS=1320000U PD=1360000U
* device instance $7 r0 *1 1.89,0.56 nfet_01v8
M$7 8 7 9 11 nfet_01v8 L=150000U W=650000U AS=169000000000P AD=87750000000P
+ PS=1820000U PD=920000U
* device instance $8 r0 *1 2.31,0.56 nfet_01v8
M$8 9 4 8 11 nfet_01v8 L=150000U W=650000U AS=87750000000P AD=107250000000P
+ PS=920000U PD=980000U
* device instance $9 r0 *1 2.79,0.56 nfet_01v8
M$9 8 5 9 11 nfet_01v8 L=150000U W=650000U AS=107250000000P AD=87750000000P
+ PS=980000U PD=920000U
* device instance $10 r0 *1 3.21,0.56 nfet_01v8
M$10 9 6 8 11 nfet_01v8 L=150000U W=650000U AS=87750000000P AD=169000000000P
+ PS=920000U PD=1820000U
* device instance $11 r0 *1 0.51,0.675 nfet_01v8
M$11 9 2 4 11 nfet_01v8 L=150000U W=420000U AS=109200000000P AD=60900000000P
+ PS=1360000U PD=710000U
* device instance $12 r0 *1 0.95,0.675 nfet_01v8
M$12 7 3 9 11 nfet_01v8 L=150000U W=420000U AS=60900000000P AD=109200000000P
+ PS=710000U PD=1360000U
.ENDS sky130_fd_sc_hd__nor4bb_1

* cell sky130_fd_sc_hd__clkbuf_8
* pin VGND
* pin A
* pin X
* pin VPWR
* pin VPB
* pin 
.SUBCKT sky130_fd_sc_hd__clkbuf_8 1 2 4 5 6 7
* net 1 VGND
* net 2 A
* net 4 X
* net 5 VPWR
* net 6 VPB
* device instance $1 r0 *1 0.475,1.985 pfet_01v8_hvt
M$1 3 2 5 6 pfet_01v8_hvt L=150000U W=2000000U AS=405000000000P
+ AD=280000000000P PS=3810000U PD=2560000U
* device instance $3 r0 *1 1.335,1.985 pfet_01v8_hvt
M$3 4 3 5 6 pfet_01v8_hvt L=150000U W=8000000U AS=1.12e+12P AD=1.245e+12P
+ PS=10240000U PD=11490000U
* device instance $11 r0 *1 0.475,0.445 nfet_01v8
M$11 3 2 1 7 nfet_01v8 L=150000U W=840000U AS=170100000000P AD=117600000000P
+ PS=2070000U PD=1400000U
* device instance $13 r0 *1 1.335,0.445 nfet_01v8
M$13 4 3 1 7 nfet_01v8 L=150000U W=3360000U AS=470400000000P AD=525000000000P
+ PS=5600000U PD=6280000U
.ENDS sky130_fd_sc_hd__clkbuf_8

* cell sky130_fd_sc_hd__xnor2_1
* pin VPB
* pin B
* pin A
* pin Y
* pin VPWR
* pin VGND
* pin 
.SUBCKT sky130_fd_sc_hd__xnor2_1 1 2 3 4 5 7 9
* net 1 VPB
* net 2 B
* net 3 A
* net 4 Y
* net 5 VPWR
* net 7 VGND
* device instance $1 r0 *1 0.51,1.985 pfet_01v8_hvt
M$1 8 2 5 1 pfet_01v8_hvt L=150000U W=1000000U AS=300000000000P
+ AD=135000000000P PS=2600000U PD=1270000U
* device instance $2 r0 *1 0.93,1.985 pfet_01v8_hvt
M$2 5 3 8 1 pfet_01v8_hvt L=150000U W=1000000U AS=135000000000P
+ AD=365000000000P PS=1270000U PD=1730000U
* device instance $3 r0 *1 1.81,1.985 pfet_01v8_hvt
M$3 10 3 5 1 pfet_01v8_hvt L=150000U W=1000000U AS=365000000000P
+ AD=105000000000P PS=1730000U PD=1210000U
* device instance $4 r0 *1 2.17,1.985 pfet_01v8_hvt
M$4 4 2 10 1 pfet_01v8_hvt L=150000U W=1000000U AS=105000000000P
+ AD=165000000000P PS=1210000U PD=1330000U
* device instance $5 r0 *1 2.65,1.985 pfet_01v8_hvt
M$5 5 8 4 1 pfet_01v8_hvt L=150000U W=1000000U AS=165000000000P
+ AD=360000000000P PS=1330000U PD=2720000U
* device instance $6 r0 *1 2.29,0.56 nfet_01v8
M$6 6 2 7 9 nfet_01v8 L=150000U W=650000U AS=169000000000P AD=87750000000P
+ PS=1820000U PD=920000U
* device instance $7 r0 *1 2.71,0.56 nfet_01v8
M$7 4 8 6 9 nfet_01v8 L=150000U W=650000U AS=87750000000P AD=195000000000P
+ PS=920000U PD=1900000U
* device instance $8 r0 *1 0.57,0.56 nfet_01v8
M$8 11 2 8 9 nfet_01v8 L=150000U W=650000U AS=169000000000P AD=68250000000P
+ PS=1820000U PD=860000U
* device instance $9 r0 *1 0.93,0.56 nfet_01v8
M$9 7 3 11 9 nfet_01v8 L=150000U W=650000U AS=68250000000P AD=87750000000P
+ PS=860000U PD=920000U
* device instance $10 r0 *1 1.35,0.56 nfet_01v8
M$10 6 3 7 9 nfet_01v8 L=150000U W=650000U AS=87750000000P AD=169000000000P
+ PS=920000U PD=1820000U
.ENDS sky130_fd_sc_hd__xnor2_1

* cell sky130_fd_sc_hd__nand2_1
* pin VPB
* pin A
* pin B
* pin Y
* pin VPWR
* pin VGND
* pin 
.SUBCKT sky130_fd_sc_hd__nand2_1 1 2 3 4 5 6 7
* net 1 VPB
* net 2 A
* net 3 B
* net 4 Y
* net 5 VPWR
* net 6 VGND
* device instance $1 r0 *1 0.49,1.985 pfet_01v8_hvt
M$1 4 3 5 1 pfet_01v8_hvt L=150000U W=1000000U AS=260000000000P
+ AD=135000000000P PS=2520000U PD=1270000U
* device instance $2 r0 *1 0.91,1.985 pfet_01v8_hvt
M$2 5 2 4 1 pfet_01v8_hvt L=150000U W=1000000U AS=135000000000P
+ AD=260000000000P PS=1270000U PD=2520000U
* device instance $3 r0 *1 0.49,0.56 nfet_01v8
M$3 8 3 6 7 nfet_01v8 L=150000U W=650000U AS=169000000000P AD=87750000000P
+ PS=1820000U PD=920000U
* device instance $4 r0 *1 0.91,0.56 nfet_01v8
M$4 4 2 8 7 nfet_01v8 L=150000U W=650000U AS=87750000000P AD=169000000000P
+ PS=920000U PD=1820000U
.ENDS sky130_fd_sc_hd__nand2_1

* cell sky130_fd_sc_hd__a22oi_1
* pin VPB
* pin B2
* pin B1
* pin A1
* pin A2
* pin VPWR
* pin Y
* pin VGND
* pin 
.SUBCKT sky130_fd_sc_hd__a22oi_1 1 2 3 4 5 7 8 9 10
* net 1 VPB
* net 2 B2
* net 3 B1
* net 4 A1
* net 5 A2
* net 7 VPWR
* net 8 Y
* net 9 VGND
* device instance $1 r0 *1 1.83,1.985 pfet_01v8_hvt
M$1 6 4 7 1 pfet_01v8_hvt L=150000U W=1000000U AS=260000000000P
+ AD=135000000000P PS=2520000U PD=1270000U
* device instance $2 r0 *1 2.25,1.985 pfet_01v8_hvt
M$2 7 5 6 1 pfet_01v8_hvt L=150000U W=1000000U AS=135000000000P
+ AD=300000000000P PS=1270000U PD=2600000U
* device instance $3 r0 *1 0.47,1.985 pfet_01v8_hvt
M$3 6 2 8 1 pfet_01v8_hvt L=150000U W=1000000U AS=260000000000P
+ AD=135000000000P PS=2520000U PD=1270000U
* device instance $4 r0 *1 0.89,1.985 pfet_01v8_hvt
M$4 8 3 6 1 pfet_01v8_hvt L=150000U W=1000000U AS=135000000000P
+ AD=260000000000P PS=1270000U PD=2520000U
* device instance $5 r0 *1 1.83,0.56 nfet_01v8
M$5 11 4 8 10 nfet_01v8 L=150000U W=650000U AS=169000000000P AD=68250000000P
+ PS=1820000U PD=860000U
* device instance $6 r0 *1 2.19,0.56 nfet_01v8
M$6 9 5 11 10 nfet_01v8 L=150000U W=650000U AS=68250000000P AD=234000000000P
+ PS=860000U PD=2020000U
* device instance $7 r0 *1 0.47,0.56 nfet_01v8
M$7 12 2 9 10 nfet_01v8 L=150000U W=650000U AS=169000000000P AD=74750000000P
+ PS=1820000U PD=880000U
* device instance $8 r0 *1 0.85,0.56 nfet_01v8
M$8 8 3 12 10 nfet_01v8 L=150000U W=650000U AS=74750000000P AD=169000000000P
+ PS=880000U PD=1820000U
.ENDS sky130_fd_sc_hd__a22oi_1

* cell sky130_fd_sc_hd__nor2_1
* pin VPB
* pin A
* pin B
* pin Y
* pin VGND
* pin VPWR
* pin 
.SUBCKT sky130_fd_sc_hd__nor2_1 1 2 3 4 5 6 7
* net 1 VPB
* net 2 A
* net 3 B
* net 4 Y
* net 5 VGND
* net 6 VPWR
* device instance $1 r0 *1 0.47,1.985 pfet_01v8_hvt
M$1 8 3 4 1 pfet_01v8_hvt L=150000U W=1000000U AS=260000000000P
+ AD=105000000000P PS=2520000U PD=1210000U
* device instance $2 r0 *1 0.83,1.985 pfet_01v8_hvt
M$2 6 2 8 1 pfet_01v8_hvt L=150000U W=1000000U AS=105000000000P
+ AD=260000000000P PS=1210000U PD=2520000U
* device instance $3 r0 *1 0.47,0.56 nfet_01v8
M$3 4 3 5 7 nfet_01v8 L=150000U W=650000U AS=169000000000P AD=87750000000P
+ PS=1820000U PD=920000U
* device instance $4 r0 *1 0.89,0.56 nfet_01v8
M$4 5 2 4 7 nfet_01v8 L=150000U W=650000U AS=87750000000P AD=169000000000P
+ PS=920000U PD=1820000U
.ENDS sky130_fd_sc_hd__nor2_1

* cell sky130_fd_sc_hd__nor3b_1
* pin VPB
* pin B
* pin A
* pin C_N
* pin Y
* pin VGND
* pin VPWR
* pin 
.SUBCKT sky130_fd_sc_hd__nor3b_1 1 2 3 4 5 6 7 9
* net 1 VPB
* net 2 B
* net 3 A
* net 4 C_N
* net 5 Y
* net 6 VGND
* net 7 VPWR
* device instance $1 r0 *1 2.055,1.86 pfet_01v8_hvt
M$1 8 4 7 1 pfet_01v8_hvt L=150000U W=420000U AS=145750000000P AD=109200000000P
+ PS=1335000U PD=1360000U
* device instance $2 r0 *1 0.73,1.985 pfet_01v8_hvt
M$2 11 8 5 1 pfet_01v8_hvt L=150000U W=1000000U AS=320000000000P
+ AD=135000000000P PS=2640000U PD=1270000U
* device instance $3 r0 *1 1.15,1.985 pfet_01v8_hvt
M$3 10 2 11 1 pfet_01v8_hvt L=150000U W=1000000U AS=135000000000P
+ AD=135000000000P PS=1270000U PD=1270000U
* device instance $4 r0 *1 1.57,1.985 pfet_01v8_hvt
M$4 7 3 10 1 pfet_01v8_hvt L=150000U W=1000000U AS=135000000000P
+ AD=145750000000P PS=1270000U PD=1335000U
* device instance $5 r0 *1 0.73,0.56 nfet_01v8
M$5 6 8 5 9 nfet_01v8 L=150000U W=650000U AS=221000000000P AD=87750000000P
+ PS=1980000U PD=920000U
* device instance $6 r0 *1 1.15,0.56 nfet_01v8
M$6 5 2 6 9 nfet_01v8 L=150000U W=650000U AS=87750000000P AD=87750000000P
+ PS=920000U PD=920000U
* device instance $7 r0 *1 1.57,0.56 nfet_01v8
M$7 6 3 5 9 nfet_01v8 L=150000U W=650000U AS=87750000000P AD=100250000000P
+ PS=920000U PD=985000U
* device instance $8 r0 *1 2.055,0.675 nfet_01v8
M$8 8 4 6 9 nfet_01v8 L=150000U W=420000U AS=100250000000P AD=109200000000P
+ PS=985000U PD=1360000U
.ENDS sky130_fd_sc_hd__nor3b_1

* cell sky130_fd_sc_hd__a21oi_1
* pin VPB
* pin B1
* pin A1
* pin A2
* pin VGND
* pin VPWR
* pin Y
* pin 
.SUBCKT sky130_fd_sc_hd__a21oi_1 1 2 3 4 5 7 8 9
* net 1 VPB
* net 2 B1
* net 3 A1
* net 4 A2
* net 5 VGND
* net 7 VPWR
* net 8 Y
* device instance $1 r0 *1 0.49,1.985 pfet_01v8_hvt
M$1 6 2 8 1 pfet_01v8_hvt L=150000U W=1000000U AS=265000000000P
+ AD=140000000000P PS=2530000U PD=1280000U
* device instance $2 r0 *1 0.92,1.985 pfet_01v8_hvt
M$2 7 3 6 1 pfet_01v8_hvt L=150000U W=1000000U AS=140000000000P
+ AD=147500000000P PS=1280000U PD=1295000U
* device instance $3 r0 *1 1.365,1.985 pfet_01v8_hvt
M$3 6 4 7 1 pfet_01v8_hvt L=150000U W=1000000U AS=147500000000P
+ AD=265000000000P PS=1295000U PD=2530000U
* device instance $4 r0 *1 0.49,0.56 nfet_01v8
M$4 8 2 5 9 nfet_01v8 L=150000U W=650000U AS=172250000000P AD=91000000000P
+ PS=1830000U PD=930000U
* device instance $5 r0 *1 0.92,0.56 nfet_01v8
M$5 10 3 8 9 nfet_01v8 L=150000U W=650000U AS=91000000000P AD=95875000000P
+ PS=930000U PD=945000U
* device instance $6 r0 *1 1.365,0.56 nfet_01v8
M$6 5 4 10 9 nfet_01v8 L=150000U W=650000U AS=95875000000P AD=172250000000P
+ PS=945000U PD=1830000U
.ENDS sky130_fd_sc_hd__a21oi_1

* cell sky130_fd_sc_hd__nand3b_1
* pin VPB
* pin A_N
* pin C
* pin B
* pin Y
* pin VGND
* pin VPWR
* pin 
.SUBCKT sky130_fd_sc_hd__nand3b_1 1 2 3 4 5 7 8 9
* net 1 VPB
* net 2 A_N
* net 3 C
* net 4 B
* net 5 Y
* net 7 VGND
* net 8 VPWR
* device instance $1 r0 *1 0.6,1.695 pfet_01v8_hvt
M$1 8 2 6 1 pfet_01v8_hvt L=150000U W=420000U AS=109200000000P AD=145750000000P
+ PS=1360000U PD=1335000U
* device instance $2 r0 *1 1.085,1.985 pfet_01v8_hvt
M$2 5 3 8 1 pfet_01v8_hvt L=150000U W=1000000U AS=145750000000P
+ AD=135000000000P PS=1335000U PD=1270000U
* device instance $3 r0 *1 1.505,1.985 pfet_01v8_hvt
M$3 8 4 5 1 pfet_01v8_hvt L=150000U W=1000000U AS=135000000000P
+ AD=192500000000P PS=1270000U PD=1385000U
* device instance $4 r0 *1 2.04,1.985 pfet_01v8_hvt
M$4 5 6 8 1 pfet_01v8_hvt L=150000U W=1000000U AS=192500000000P
+ AD=280000000000P PS=1385000U PD=2560000U
* device instance $5 r0 *1 0.6,0.675 nfet_01v8
M$5 6 2 7 9 nfet_01v8 L=150000U W=420000U AS=100250000000P AD=109200000000P
+ PS=985000U PD=1360000U
* device instance $6 r0 *1 1.085,0.56 nfet_01v8
M$6 11 3 7 9 nfet_01v8 L=150000U W=650000U AS=100250000000P AD=87750000000P
+ PS=985000U PD=920000U
* device instance $7 r0 *1 1.505,0.56 nfet_01v8
M$7 10 4 11 9 nfet_01v8 L=150000U W=650000U AS=87750000000P AD=125125000000P
+ PS=920000U PD=1035000U
* device instance $8 r0 *1 2.04,0.56 nfet_01v8
M$8 5 6 10 9 nfet_01v8 L=150000U W=650000U AS=125125000000P AD=182000000000P
+ PS=1035000U PD=1860000U
.ENDS sky130_fd_sc_hd__nand3b_1

* cell sky130_fd_sc_hd__or4b_1
* pin VGND
* pin D_N
* pin X
* pin C
* pin A
* pin VPWR
* pin VPB
* pin B
* pin 
.SUBCKT sky130_fd_sc_hd__or4b_1 1 2 5 6 7 8 9 10 14
* net 1 VGND
* net 2 D_N
* net 5 X
* net 6 C
* net 7 A
* net 8 VPWR
* net 9 VPB
* net 10 B
* device instance $1 r0 *1 1.41,1.695 pfet_01v8_hvt
M$1 11 3 4 9 pfet_01v8_hvt L=150000U W=420000U AS=109200000000P AD=68250000000P
+ PS=1360000U PD=745000U
* device instance $2 r0 *1 1.885,1.695 pfet_01v8_hvt
M$2 13 6 11 9 pfet_01v8_hvt L=150000U W=420000U AS=68250000000P AD=45150000000P
+ PS=745000U PD=635000U
* device instance $3 r0 *1 2.25,1.695 pfet_01v8_hvt
M$3 12 10 13 9 pfet_01v8_hvt L=150000U W=420000U AS=45150000000P
+ AD=64050000000P PS=635000U PD=725000U
* device instance $4 r0 *1 2.705,1.695 pfet_01v8_hvt
M$4 8 7 12 9 pfet_01v8_hvt L=150000U W=420000U AS=64050000000P AD=148250000000P
+ PS=725000U PD=1340000U
* device instance $5 r0 *1 3.195,1.985 pfet_01v8_hvt
M$5 5 4 8 9 pfet_01v8_hvt L=150000U W=1000000U AS=148250000000P
+ AD=275000000000P PS=1340000U PD=2550000U
* device instance $6 r0 *1 0.47,1.695 pfet_01v8_hvt
M$6 3 2 8 9 pfet_01v8_hvt L=150000U W=420000U AS=109200000000P AD=109200000000P
+ PS=1360000U PD=1360000U
* device instance $7 r0 *1 1.41,0.475 nfet_01v8
M$7 4 3 1 14 nfet_01v8 L=150000U W=420000U AS=109200000000P AD=64050000000P
+ PS=1360000U PD=725000U
* device instance $8 r0 *1 1.865,0.475 nfet_01v8
M$8 1 6 4 14 nfet_01v8 L=150000U W=420000U AS=64050000000P AD=56700000000P
+ PS=725000U PD=690000U
* device instance $9 r0 *1 2.285,0.475 nfet_01v8
M$9 4 10 1 14 nfet_01v8 L=150000U W=420000U AS=56700000000P AD=56700000000P
+ PS=690000U PD=690000U
* device instance $10 r0 *1 2.705,0.475 nfet_01v8
M$10 4 7 1 14 nfet_01v8 L=150000U W=420000U AS=101875000000P AD=56700000000P
+ PS=990000U PD=690000U
* device instance $11 r0 *1 3.195,0.56 nfet_01v8
M$11 5 4 1 14 nfet_01v8 L=150000U W=650000U AS=101875000000P AD=178750000000P
+ PS=990000U PD=1850000U
* device instance $12 r0 *1 0.47,0.475 nfet_01v8
M$12 3 2 1 14 nfet_01v8 L=150000U W=420000U AS=109200000000P AD=109200000000P
+ PS=1360000U PD=1360000U
.ENDS sky130_fd_sc_hd__or4b_1

* cell sky130_fd_sc_hd__o21ai_0
* pin VPB
* pin A1
* pin A2
* pin B1
* pin VPWR
* pin Y
* pin VGND
* pin 
.SUBCKT sky130_fd_sc_hd__o21ai_0 1 2 3 4 5 6 8 9
* net 1 VPB
* net 2 A1
* net 3 A2
* net 4 B1
* net 5 VPWR
* net 6 Y
* net 8 VGND
* device instance $1 r0 *1 0.525,2.165 pfet_01v8_hvt
M$1 10 2 5 1 pfet_01v8_hvt L=150000U W=640000U AS=169600000000P AD=76800000000P
+ PS=1810000U PD=880000U
* device instance $2 r0 *1 0.915,2.165 pfet_01v8_hvt
M$2 6 3 10 1 pfet_01v8_hvt L=150000U W=640000U AS=76800000000P AD=89600000000P
+ PS=880000U PD=920000U
* device instance $3 r0 *1 1.345,2.165 pfet_01v8_hvt
M$3 5 4 6 1 pfet_01v8_hvt L=150000U W=640000U AS=89600000000P AD=182400000000P
+ PS=920000U PD=1850000U
* device instance $4 r0 *1 0.5,0.445 nfet_01v8
M$4 8 2 7 9 nfet_01v8 L=150000U W=420000U AS=111300000000P AD=58800000000P
+ PS=1370000U PD=700000U
* device instance $5 r0 *1 0.93,0.445 nfet_01v8
M$5 7 3 8 9 nfet_01v8 L=150000U W=420000U AS=58800000000P AD=58800000000P
+ PS=700000U PD=700000U
* device instance $6 r0 *1 1.36,0.445 nfet_01v8
M$6 6 4 7 9 nfet_01v8 L=150000U W=420000U AS=58800000000P AD=111300000000P
+ PS=700000U PD=1370000U
.ENDS sky130_fd_sc_hd__o21ai_0

* cell sky130_fd_sc_hd__mux2i_1
* pin VGND
* pin Y
* pin A0
* pin A1
* pin S
* pin VPWR
* pin VPB
* pin 
.SUBCKT sky130_fd_sc_hd__mux2i_1 1 3 6 7 8 10 11 13
* net 1 VGND
* net 3 Y
* net 6 A0
* net 7 A1
* net 8 S
* net 10 VPWR
* net 11 VPB
* device instance $1 r0 *1 3.21,1.985 pfet_01v8_hvt
M$1 10 8 5 11 pfet_01v8_hvt L=150000U W=1000000U AS=290000000000P
+ AD=260000000000P PS=2580000U PD=2520000U
* device instance $2 r0 *1 0.49,1.985 pfet_01v8_hvt
M$2 3 6 9 11 pfet_01v8_hvt L=150000U W=1000000U AS=280000000000P
+ AD=152500000000P PS=2560000U PD=1305000U
* device instance $3 r0 *1 0.945,1.985 pfet_01v8_hvt
M$3 12 7 3 11 pfet_01v8_hvt L=150000U W=1000000U AS=152500000000P
+ AD=197500000000P PS=1305000U PD=1395000U
* device instance $4 r0 *1 1.49,1.985 pfet_01v8_hvt
M$4 10 5 12 11 pfet_01v8_hvt L=150000U W=1000000U AS=197500000000P
+ AD=300000000000P PS=1395000U PD=1600000U
* device instance $5 r0 *1 2.24,1.985 pfet_01v8_hvt
M$5 9 8 10 11 pfet_01v8_hvt L=150000U W=1000000U AS=300000000000P
+ AD=260000000000P PS=1600000U PD=2520000U
* device instance $6 r0 *1 3.21,0.56 nfet_01v8
M$6 1 8 5 13 nfet_01v8 L=150000U W=650000U AS=169000000000P AD=169000000000P
+ PS=1820000U PD=1820000U
* device instance $7 r0 *1 1.85,0.56 nfet_01v8
M$7 1 5 2 13 nfet_01v8 L=150000U W=650000U AS=169000000000P AD=87750000000P
+ PS=1820000U PD=920000U
* device instance $8 r0 *1 2.27,0.56 nfet_01v8
M$8 4 8 1 13 nfet_01v8 L=150000U W=650000U AS=87750000000P AD=169000000000P
+ PS=920000U PD=1820000U
* device instance $9 r0 *1 0.47,0.56 nfet_01v8
M$9 3 6 2 13 nfet_01v8 L=150000U W=650000U AS=169000000000P AD=87750000000P
+ PS=1820000U PD=920000U
* device instance $10 r0 *1 0.89,0.56 nfet_01v8
M$10 4 7 3 13 nfet_01v8 L=150000U W=650000U AS=87750000000P AD=182000000000P
+ PS=920000U PD=1860000U
.ENDS sky130_fd_sc_hd__mux2i_1

* cell sky130_fd_sc_hd__dfrtp_2
* pin VGND
* pin RESET_B
* pin Q
* pin CLK
* pin D
* pin VPWR
* pin VPB
* pin 
.SUBCKT sky130_fd_sc_hd__dfrtp_2 1 6 9 14 15 17 18 21
* net 1 VGND
* net 6 RESET_B
* net 9 Q
* net 14 CLK
* net 15 D
* net 17 VPWR
* net 18 VPB
* device instance $1 r0 *1 8.73,1.985 pfet_01v8_hvt
M$1 9 8 17 18 pfet_01v8_hvt L=150000U W=2000000U AS=436200000000P
+ AD=395000000000P PS=3930000U PD=3790000U
* device instance $3 r0 *1 5.35,2.065 pfet_01v8_hvt
M$3 16 5 17 18 pfet_01v8_hvt L=150000U W=840000U AS=218400000000P
+ AD=129150000000P PS=2200000U PD=1185000U
* device instance $4 r0 *1 5.845,2.275 pfet_01v8_hvt
M$4 7 2 16 18 pfet_01v8_hvt L=150000U W=420000U AS=129150000000P
+ AD=58800000000P PS=1185000U PD=700000U
* device instance $5 r0 *1 6.275,2.275 pfet_01v8_hvt
M$5 20 3 7 18 pfet_01v8_hvt L=150000U W=420000U AS=58800000000P AD=56700000000P
+ PS=700000U PD=690000U
* device instance $6 r0 *1 6.695,2.275 pfet_01v8_hvt
M$6 17 8 20 18 pfet_01v8_hvt L=150000U W=420000U AS=56700000000P
+ AD=81900000000P PS=690000U PD=810000U
* device instance $7 r0 *1 7.235,2.275 pfet_01v8_hvt
M$7 8 6 17 18 pfet_01v8_hvt L=150000U W=420000U AS=81900000000P AD=56700000000P
+ PS=810000U PD=690000U
* device instance $8 r0 *1 7.655,2.275 pfet_01v8_hvt
M$8 17 7 8 18 pfet_01v8_hvt L=150000U W=420000U AS=56700000000P
+ AD=113400000000P PS=690000U PD=1380000U
* device instance $9 r0 *1 2.225,2.275 pfet_01v8_hvt
M$9 4 15 17 18 pfet_01v8_hvt L=150000U W=420000U AS=109200000000P
+ AD=65100000000P PS=1360000U PD=730000U
* device instance $10 r0 *1 2.685,2.275 pfet_01v8_hvt
M$10 5 3 4 18 pfet_01v8_hvt L=150000U W=420000U AS=65100000000P AD=72450000000P
+ PS=730000U PD=765000U
* device instance $11 r0 *1 3.18,2.275 pfet_01v8_hvt
M$11 19 2 5 18 pfet_01v8_hvt L=150000U W=420000U AS=72450000000P
+ AD=115500000000P PS=765000U PD=970000U
* device instance $12 r0 *1 3.88,2.275 pfet_01v8_hvt
M$12 17 16 19 18 pfet_01v8_hvt L=150000U W=420000U AS=115500000000P