
* cell arbiter_rr
* pin request[0]
* pin request[2]
* pin request[1]
* pin request[3]
* pin clk
* pin active
* pin grant[1]
* pin grant[0]
* pin grant[3]
* pin rst_n
* pin grant[2]
* pin NWELL
* pin PWELL,gf180mcu_gnd
.SUBCKT arbiter_rr 1 2 3 4 67 78 79 80 81 82 83 84 85
* net 1 request[0]
* net 2 request[2]
* net 3 request[1]
* net 4 request[3]
* net 67 clk
* net 78 active
* net 79 grant[1]
* net 80 grant[0]
* net 81 grant[3]
* net 82 rst_n
* net 83 grant[2]
* net 84 NWELL
* net 85 PWELL,gf180mcu_gnd
* cell instance $3 r0 *1 322,5.04
X$3 85 84 1 5 gf180mcu_fd_sc_mcu9t5v0__buf_4
* cell instance $6 m0 *1 321.44,15.12
X$6 85 84 2 8 gf180mcu_fd_sc_mcu9t5v0__buf_4
* cell instance $11 r0 *1 329.84,5.04
X$11 85 84 3 6 gf180mcu_fd_sc_mcu9t5v0__buf_4
* cell instance $15 m0 *1 330.96,15.12
X$15 85 84 4 7 gf180mcu_fd_sc_mcu9t5v0__buf_4
* cell instance $18 r0 *1 325.92,609.84
X$18 85 34 12 8 5 9 6 7 84 gf180mcu_fd_sc_mcu9t5v0__mux4_2
* cell instance $20 m0 *1 328.72,609.84
X$20 85 39 9 6 5 11 8 7 84 gf180mcu_fd_sc_mcu9t5v0__mux4_2
* cell instance $23 m0 *1 352.8,589.68
X$23 5 6 8 7 84 85 10 gf180mcu_fd_sc_mcu9t5v0__or4_2
* cell instance $25 m0 *1 347.76,609.84
X$25 85 84 30 5 11 8 gf180mcu_fd_sc_mcu9t5v0__mux2_2
* cell instance $28 r0 *1 336,599.76
X$28 85 23 12 5 8 9 7 6 84 gf180mcu_fd_sc_mcu9t5v0__mux4_2
* cell instance $32 r0 *1 337.12,589.68
X$32 85 5 84 22 21 20 gf180mcu_fd_sc_mcu9t5v0__aoi21_2
* cell instance $39 r0 *1 355.6,609.84
X$39 85 84 38 6 11 7 gf180mcu_fd_sc_mcu9t5v0__mux2_2
* cell instance $46 r0 *1 361.2,589.68
X$46 85 84 6 16 14 gf180mcu_fd_sc_mcu9t5v0__nand2_2
* cell instance $50 m0 *1 362.88,589.68
X$50 85 84 6 19 gf180mcu_fd_sc_mcu9t5v0__clkinv_2
* cell instance $62 m0 *1 356.16,609.84
X$62 31 7 12 30 84 85 32 gf180mcu_fd_sc_mcu9t5v0__or4_2
* cell instance $69 r0 *1 331.52,589.68
X$69 85 9 7 84 21 gf180mcu_fd_sc_mcu9t5v0__or2_2
* cell instance $74 m0 *1 342.72,589.68
X$74 85 13 12 84 7 9 8 gf180mcu_fd_sc_mcu9t5v0__nor4_2
* cell instance $90 r0 *1 345.52,609.84
X$90 85 24 11 84 37 31 8 gf180mcu_fd_sc_mcu9t5v0__nor4_2
* cell instance $103 m0 *1 347.76,640.08
X$103 85 51 9 37 84 gf180mcu_fd_sc_mcu9t5v0__addh_2
* cell instance $105 r0 *1 333.2,630
X$105 85 40 9 12 84 gf180mcu_fd_sc_mcu9t5v0__addh_2
* cell instance $108 m0 *1 358.96,650.16
X$108 85 9 53 48 47 84 gf180mcu_fd_sc_mcu9t5v0__dffsnq_4
* cell instance $111 m0 *1 346.08,619.92
X$111 85 84 36 30 9 38 gf180mcu_fd_sc_mcu9t5v0__mux2_4
* cell instance $117 m0 *1 332.08,589.68
X$117 85 84 9 20 11 gf180mcu_fd_sc_mcu9t5v0__nand2_2
* cell instance $119 m0 *1 358.96,630
X$119 85 84 9 31 gf180mcu_fd_sc_mcu9t5v0__clkinv_3
* cell instance $122 m0 *1 349.44,650.16
X$122 84 9 45 85 48 gf180mcu_fd_sc_mcu9t5v0__xnor2_2
* cell instance $135 r0 *1 366.24,589.68
X$135 85 26 16 15 18 12 10 17 84 gf180mcu_fd_sc_mcu9t5v0__oai222_2
* cell instance $138 m0 *1 364,599.76
X$138 11 84 10 26 85 27 gf180mcu_fd_sc_mcu9t5v0__and3_2
* cell instance $140 m0 *1 366.8,589.68
X$140 85 18 19 84 11 10 gf180mcu_fd_sc_mcu9t5v0__nand3_2
* cell instance $151 r0 *1 357.84,589.68
X$151 85 84 11 14 gf180mcu_fd_sc_mcu9t5v0__clkinv_2
* cell instance $156 r0 *1 346.08,630
X$156 85 11 31 37 52 84 gf180mcu_fd_sc_mcu9t5v0__addh_4
* cell instance $168 r0 *1 367.36,630
X$168 85 12 53 43 47 84 gf180mcu_fd_sc_mcu9t5v0__dffsnq_4
* cell instance $173 m0 *1 360.64,640.08
X$173 85 46 31 12 84 gf180mcu_fd_sc_mcu9t5v0__addh_2
* cell instance $175 r0 *1 349.44,619.92
X$175 85 84 12 37 gf180mcu_fd_sc_mcu9t5v0__clkinv_2
* cell instance $181 r0 *1 347.2,589.68
X$181 22 12 13 15 24 84 85 gf180mcu_fd_sc_mcu9t5v0__aoi211_2
* cell instance $201 r0 *1 361.2,599.76
X$201 14 25 29 15 85 84 28 gf180mcu_fd_sc_mcu9t5v0__and4_2
* cell instance $212 r0 *1 368.48,599.76
X$212 43 84 85 27 28 17 gf180mcu_fd_sc_mcu9t5v0__nor3_2
* cell instance $236 r0 *1 341.6,619.92
X$236 85 84 23 41 gf180mcu_fd_sc_mcu9t5v0__clkbuf_4
* cell instance $238 r0 *1 355.04,599.76
X$238 85 84 23 25 gf180mcu_fd_sc_mcu9t5v0__clkinv_2
* cell instance $243 m0 *1 364,609.84
X$243 85 26 25 84 33 32 gf180mcu_fd_sc_mcu9t5v0__nand3_2
* cell instance $259 r0 *1 365.12,609.84
X$259 84 33 32 85 29 gf180mcu_fd_sc_mcu9t5v0__and2_2
* cell instance $273 m0 *1 361.76,619.92
X$273 85 84 31 33 38 gf180mcu_fd_sc_mcu9t5v0__nand2_2
* cell instance $288 m0 *1 330.96,630
X$288 41 35 36 34 84 85 42 gf180mcu_fd_sc_mcu9t5v0__or4_2
* cell instance $291 r0 *1 329.84,630
X$291 85 84 34 49 gf180mcu_fd_sc_mcu9t5v0__clkinv_2
* cell instance $295 r0 *1 332.08,619.92
X$295 85 84 39 35 gf180mcu_fd_sc_mcu9t5v0__clkinv_2
* cell instance $298 m0 *1 343.84,660.24
X$298 85 51 84 44 41 36 60 52 gf180mcu_fd_sc_mcu9t5v0__aoi221_2
* cell instance $301 m0 *1 330.4,660.24
X$301 85 52 84 44 41 36 68 40 gf180mcu_fd_sc_mcu9t5v0__aoi221_2
* cell instance $304 m0 *1 330.4,650.16
X$304 85 40 84 44 41 36 50 46 gf180mcu_fd_sc_mcu9t5v0__aoi221_2
* cell instance $307 r0 *1 336,650.16
X$307 85 46 84 44 41 36 58 51 gf180mcu_fd_sc_mcu9t5v0__aoi221_2
* cell instance $312 m0 *1 329.28,640.08
X$312 85 84 49 36 44 gf180mcu_fd_sc_mcu9t5v0__nor2_4
* cell instance $331 r0 *1 338.8,660.24
X$331 85 84 40 57 gf180mcu_fd_sc_mcu9t5v0__clkinv_2
* cell instance $339 m0 *1 342.72,680.4
X$339 84 54 41 85 70 gf180mcu_fd_sc_mcu9t5v0__and2_2
* cell instance $341 m0 *1 343.84,650.16
X$341 85 84 45 41 44 gf180mcu_fd_sc_mcu9t5v0__nor2_2
* cell instance $345 m0 *1 342.72,670.32
X$345 84 57 41 85 69 gf180mcu_fd_sc_mcu9t5v0__and2_2
* cell instance $347 m0 *1 334.88,670.32
X$347 84 59 41 85 55 gf180mcu_fd_sc_mcu9t5v0__and2_2
* cell instance $350 r0 *1 357.84,660.24
X$350 84 64 41 85 66 gf180mcu_fd_sc_mcu9t5v0__and2_2
* cell instance $364 r0 *1 344.4,670.32
X$364 84 70 85 58 42 61 57 gf180mcu_fd_sc_mcu9t5v0__oai22_2
* cell instance $367 m0 *1 347.76,670.32
X$367 84 69 85 60 42 63 64 gf180mcu_fd_sc_mcu9t5v0__oai22_2
* cell instance $370 r0 *1 347.76,660.24
X$370 84 66 85 68 42 62 59 gf180mcu_fd_sc_mcu9t5v0__oai22_2
* cell instance $374 r0 *1 334.32,670.32
X$374 84 55 85 50 42 56 54 gf180mcu_fd_sc_mcu9t5v0__oai22_2
* cell instance $397 r0 *1 356.16,650.16
X$397 85 84 46 64 gf180mcu_fd_sc_mcu9t5v0__clkinv_2
* cell instance $401 m0 *1 378,700.56
X$401 47 84 85 74 gf180mcu_fd_sc_mcu9t5v0__clkbuf_2
* cell instance $404 r0 *1 384.16,700.56
X$404 82 84 85 47 gf180mcu_fd_sc_mcu9t5v0__dlyb_2
* cell instance $424 r0 *1 344.4,660.24
X$424 85 84 51 59 gf180mcu_fd_sc_mcu9t5v0__clkinv_2
* cell instance $432 m0 *1 331.52,670.32
X$432 85 84 52 54 gf180mcu_fd_sc_mcu9t5v0__clkinv_2
* cell instance $436 r0 *1 364.56,650.16
X$436 53 85 84 gf180mcu_fd_sc_mcu9t5v0__clkbuf_1
* cell instance $439 r0 *1 362.32,690.48
X$439 85 74 77 53 63 84 gf180mcu_fd_sc_mcu9t5v0__dffrnq_2
* cell instance $442 r0 *1 367.92,650.16
X$442 85 65 53 84 gf180mcu_fd_sc_mcu9t5v0__clkbuf_16
* cell instance $457 r0 *1 343.28,690.48
X$457 85 74 73 71 56 84 gf180mcu_fd_sc_mcu9t5v0__dffrnq_2
* cell instance $480 m0 *1 350,700.56
X$480 85 74 75 71 61 84 gf180mcu_fd_sc_mcu9t5v0__dffrnq_2
* cell instance $483 r0 *1 355.04,680.4
X$483 85 74 72 71 62 84 gf180mcu_fd_sc_mcu9t5v0__dffrnq_2
* cell instance $494 m0 *1 352.8,690.48
X$494 85 65 71 84 gf180mcu_fd_sc_mcu9t5v0__clkbuf_16
* cell instance $496 m0 *1 357.84,670.32
X$496 85 67 65 84 gf180mcu_fd_sc_mcu9t5v0__clkbuf_16
* cell instance $525 m0 *1 366.24,710.64
X$525 72 84 85 83 gf180mcu_fd_sc_mcu9t5v0__dlyb_2
* cell instance $527 m0 *1 370.16,700.56
X$527 73 75 77 72 84 85 76 gf180mcu_fd_sc_mcu9t5v0__or4_2
* cell instance $534 r0 *1 366.24,700.56
X$534 73 84 85 79 gf180mcu_fd_sc_mcu9t5v0__dlyb_2
* cell instance $551 m0 *1 374.64,710.64
X$551 75 84 85 80 gf180mcu_fd_sc_mcu9t5v0__dlyb_2
* cell instance $556 r0 *1 375.76,700.56
X$556 76 84 85 78 gf180mcu_fd_sc_mcu9t5v0__dlyb_2
* cell instance $560 m0 *1 383.04,710.64
X$560 77 84 85 81 gf180mcu_fd_sc_mcu9t5v0__dlyb_2
.ENDS arbiter_rr

* cell gf180mcu_fd_sc_mcu9t5v0__buf_4
* pin PWELL,VSS,gf180mcu_gnd
* pin NWELL,VDD
* pin I
* pin Z
.SUBCKT gf180mcu_fd_sc_mcu9t5v0__buf_4 1 2 3 5
* net 1 PWELL,VSS,gf180mcu_gnd
* net 2 NWELL,VDD
* net 3 I
* net 5 Z
* device instance $1 r0 *1 0.87,3.78 pmos_5p0
M$1 4 3 2 2 pmos_5p0 L=0.5U W=3.66U AS=1.3725P AD=1.1346P PS=6.99U PD=4.9U
* device instance $3 r0 *1 3.11,3.78 pmos_5p0
M$3 5 4 2 2 pmos_5p0 L=0.5U W=7.32U AS=2.2692P AD=2.5071P PS=9.8U PD=11.89U
* device instance $7 r0 *1 0.92,1.005 nmos_5p0
M$7 4 3 1 1 nmos_5p0 L=0.6U W=2.64U AS=0.924P AD=0.6864P PS=5.36U PD=3.68U
* device instance $9 r0 *1 3.16,1.005 nmos_5p0
M$9 5 4 1 1 nmos_5p0 L=0.6U W=5.28U AS=1.3728P AD=1.6104P PS=7.36U PD=9.04U
.ENDS gf180mcu_fd_sc_mcu9t5v0__buf_4

* cell gf180mcu_fd_sc_mcu9t5v0__aoi211_2
* pin A2
* pin A1
* pin B
* pin ZN
* pin C
* pin NWELL,VDD
* pin PWELL,VSS,gf180mcu_gnd
.SUBCKT gf180mcu_fd_sc_mcu9t5v0__aoi211_2 1 2 4 5 6 7 8
* net 1 A2
* net 2 A1
* net 4 B
* net 5 ZN
* net 6 C
* net 7 NWELL,VDD
* net 8 PWELL,VSS,gf180mcu_gnd
* device instance $1 r0 *1 0.87,3.78 pmos_5p0
M$1 5 1 3 7 pmos_5p0 L=0.5U W=3.66U AS=1.281P AD=1.3359P PS=6.89U PD=5.12U
* device instance $2 r0 *1 1.89,3.78 pmos_5p0
M$2 3 2 5 7 pmos_5p0 L=0.5U W=3.66U AS=0.9516P AD=0.9516P PS=4.7U PD=4.7U
* device instance $5 r0 *1 5.37,3.78 pmos_5p0
M$5 12 4 3 7 pmos_5p0 L=0.5U W=1.83U AS=0.8601P AD=0.2196P PS=2.77U PD=2.07U
* device instance $6 r0 *1 6.11,3.78 pmos_5p0
M$6 7 6 12 7 pmos_5p0 L=0.5U W=1.83U AS=0.2196P AD=0.549P PS=2.07U PD=2.43U
* device instance $7 r0 *1 7.21,3.78 pmos_5p0
M$7 11 6 7 7 pmos_5p0 L=0.5U W=1.83U AS=0.549P AD=0.4392P PS=2.43U PD=2.31U
* device instance $8 r0 *1 8.19,3.78 pmos_5p0
M$8 3 4 11 7 pmos_5p0 L=0.5U W=1.83U AS=0.4392P AD=0.8052P PS=2.31U PD=4.54U
* device instance $9 r0 *1 5.02,0.745 nmos_5p0
M$9 5 4 8 8 nmos_5p0 L=0.6U W=1.58U AS=0.5609P AD=0.553P PS=3.195U PD=3.77U
* device instance $10 r0 *1 6.14,0.745 nmos_5p0
M$10 8 6 5 8 nmos_5p0 L=0.6U W=1.58U AS=0.4108P AD=0.4108P PS=2.62U PD=2.62U
* device instance $13 r0 *1 0.92,0.942 nmos_5p0
M$13 10 1 8 8 nmos_5p0 L=0.6U W=1.185U AS=0.5214P AD=0.1422P PS=3.25U PD=1.425U
* device instance $14 r0 *1 1.76,0.942 nmos_5p0
M$14 5 2 10 8 nmos_5p0 L=0.6U W=1.185U AS=0.1422P AD=0.3081P PS=1.425U PD=1.705U
* device instance $15 r0 *1 2.88,0.942 nmos_5p0
M$15 9 2 5 8 nmos_5p0 L=0.6U W=1.185U AS=0.3081P AD=0.1422P PS=1.705U PD=1.425U
* device instance $16 r0 *1 3.72,0.942 nmos_5p0
M$16 8 1 9 8 nmos_5p0 L=0.6U W=1.185U AS=0.1422P AD=0.3555P PS=1.425U PD=1.885U
.ENDS gf180mcu_fd_sc_mcu9t5v0__aoi211_2

* cell gf180mcu_fd_sc_mcu9t5v0__nor4_2
* pin PWELL,VSS,gf180mcu_gnd
* pin ZN
* pin A4
* pin NWELL,VDD
* pin A3
* pin A1
* pin A2
.SUBCKT gf180mcu_fd_sc_mcu9t5v0__nor4_2 1 2 3 4 5 6 7
* net 1 PWELL,VSS,gf180mcu_gnd
* net 2 ZN
* net 3 A4
* net 4 NWELL,VDD
* net 5 A3
* net 6 A1
* net 7 A2
* device instance $1 r0 *1 0.975,3.78 pmos_5p0
M$1 13 5 8 4 pmos_5p0 L=0.5U W=1.83U AS=0.8052P AD=0.52155P PS=4.54U PD=2.4U
* device instance $2 r0 *1 2.045,3.78 pmos_5p0
M$2 4 3 13 4 pmos_5p0 L=0.5U W=1.83U AS=0.52155P AD=0.5673P PS=2.4U PD=2.45U
* device instance $3 r0 *1 3.165,3.78 pmos_5p0
M$3 12 3 4 4 pmos_5p0 L=0.5U W=1.83U AS=0.5673P AD=0.732P PS=2.45U PD=2.63U
* device instance $4 r0 *1 4.465,3.78 pmos_5p0
M$4 11 5 12 4 pmos_5p0 L=0.5U W=1.83U AS=0.732P AD=0.77775P PS=2.63U PD=2.68U
* device instance $5 r0 *1 5.815,3.78 pmos_5p0
M$5 10 7 11 4 pmos_5p0 L=0.5U W=1.83U AS=0.77775P AD=0.52155P PS=2.68U PD=2.4U
* device instance $6 r0 *1 6.885,3.78 pmos_5p0
M$6 2 6 10 4 pmos_5p0 L=0.5U W=1.83U AS=0.52155P AD=0.61305P PS=2.4U PD=2.5U
* device instance $7 r0 *1 8.055,3.78 pmos_5p0
M$7 9 6 2 4 pmos_5p0 L=0.5U W=1.83U AS=0.61305P AD=0.4758P PS=2.5U PD=2.35U
* device instance $8 r0 *1 9.075,3.78 pmos_5p0
M$8 8 7 9 4 pmos_5p0 L=0.5U W=1.83U AS=0.4758P AD=0.8052P PS=2.35U PD=4.54U
* device instance $9 r0 *1 4.465,0.695 nmos_5p0
M$9 1 5 2 1 nmos_5p0 L=0.6U W=1.32U AS=0.52165P AD=0.40285P PS=3.565U PD=2.545U
* device instance $11 r0 *1 2.045,0.7 nmos_5p0
M$11 1 3 2 1 nmos_5p0 L=0.6U W=1.32U AS=0.40285P AD=0.3432P PS=2.545U PD=2.36U
* device instance $13 r0 *1 5.765,0.7 nmos_5p0
M$13 2 7 1 1 nmos_5p0 L=0.6U W=1.32U AS=0.40285P AD=0.462P PS=2.545U PD=3.38U
* device instance $14 r0 *1 6.885,0.7 nmos_5p0
M$14 1 6 2 1 nmos_5p0 L=0.6U W=1.32U AS=0.3432P AD=0.3432P PS=2.36U PD=2.36U
.ENDS gf180mcu_fd_sc_mcu9t5v0__nor4_2

* cell gf180mcu_fd_sc_mcu9t5v0__aoi21_2
* pin PWELL,VSS,gf180mcu_gnd
* pin B
* pin NWELL,VDD
* pin ZN
* pin A2
* pin A1
.SUBCKT gf180mcu_fd_sc_mcu9t5v0__aoi21_2 1 3 4 5 6 7
* net 1 PWELL,VSS,gf180mcu_gnd
* net 3 B
* net 4 NWELL,VDD
* net 5 ZN
* net 6 A2
* net 7 A1
* device instance $1 r0 *1 0.935,3.78 pmos_5p0
M$1 4 3 2 4 pmos_5p0 L=0.5U W=3.66U AS=1.3725P AD=1.0431P PS=6.99U PD=4.8U
* device instance $3 r0 *1 3.075,3.78 pmos_5p0
M$3 5 6 2 4 pmos_5p0 L=0.5U W=3.66U AS=0.9516P AD=1.3908P PS=4.7U PD=7.01U
* device instance $4 r0 *1 4.215,3.78 pmos_5p0
M$4 2 7 5 4 pmos_5p0 L=0.5U W=3.66U AS=1.0614P AD=0.9516P PS=4.82U PD=4.7U
* device instance $7 r0 *1 0.985,0.805 nmos_5p0
M$7 5 3 1 1 nmos_5p0 L=0.6U W=1.84U AS=0.644P AD=0.6412P PS=4.16U PD=3.46U
* device instance $9 r0 *1 3.405,1.005 nmos_5p0
M$9 9 6 1 1 nmos_5p0 L=0.6U W=1.32U AS=0.402P AD=0.1584P PS=2.02U PD=1.56U
* device instance $10 r0 *1 4.245,1.005 nmos_5p0
M$10 5 7 9 1 nmos_5p0 L=0.6U W=1.32U AS=0.1584P AD=0.3432P PS=1.56U PD=1.84U
* device instance $11 r0 *1 5.365,1.005 nmos_5p0
M$11 8 7 5 1 nmos_5p0 L=0.6U W=1.32U AS=0.3432P AD=0.1584P PS=1.84U PD=1.56U
* device instance $12 r0 *1 6.205,1.005 nmos_5p0
M$12 1 6 8 1 nmos_5p0 L=0.6U W=1.32U AS=0.1584P AD=0.5808P PS=1.56U PD=3.52U
.ENDS gf180mcu_fd_sc_mcu9t5v0__aoi21_2

* cell gf180mcu_fd_sc_mcu9t5v0__or2_2
* pin PWELL,VSS,gf180mcu_gnd
* pin A1
* pin A2
* pin NWELL,VDD
* pin Z
.SUBCKT gf180mcu_fd_sc_mcu9t5v0__or2_2 1 2 4 5 6
* net 1 PWELL,VSS,gf180mcu_gnd
* net 2 A1
* net 4 A2
* net 5 NWELL,VDD
* net 6 Z
* device instance $1 r0 *1 0.97,3.78 pmos_5p0
M$1 7 2 3 5 pmos_5p0 L=0.5U W=1.83U AS=0.8052P AD=0.52155P PS=4.54U PD=2.4U
* device instance $2 r0 *1 2.04,3.78 pmos_5p0
M$2 5 4 7 5 pmos_5p0 L=0.5U W=1.83U AS=0.52155P AD=0.5673P PS=2.4U PD=2.45U
* device instance $3 r0 *1 3.16,3.78 pmos_5p0
M$3 6 3 5 5 pmos_5p0 L=0.5U W=3.66U AS=1.08885P AD=1.32675P PS=4.85U PD=6.94U
* device instance $5 r0 *1 0.92,1.005 nmos_5p0
M$5 3 2 1 1 nmos_5p0 L=0.6U W=1.32U AS=0.5808P AD=0.3432P PS=3.52U PD=1.84U
* device instance $6 r0 *1 2.04,1.005 nmos_5p0
M$6 1 4 3 1 nmos_5p0 L=0.6U W=1.32U AS=0.3432P AD=0.3432P PS=1.84U PD=1.84U
* device instance $7 r0 *1 3.16,1.005 nmos_5p0
M$7 6 3 1 1 nmos_5p0 L=0.6U W=2.64U AS=0.6864P AD=0.924P PS=3.68U PD=5.36U
.ENDS gf180mcu_fd_sc_mcu9t5v0__or2_2

* cell gf180mcu_fd_sc_mcu9t5v0__mux2_4
* pin PWELL,VSS,gf180mcu_gnd
* pin NWELL,VDD
* pin Z
* pin I1
* pin S
* pin I0
.SUBCKT gf180mcu_fd_sc_mcu9t5v0__mux2_4 1 2 3 4 5 7
* net 1 PWELL,VSS,gf180mcu_gnd
* net 2 NWELL,VDD
* net 3 Z
* net 4 I1
* net 5 S
* net 7 I0
* device instance $1 r0 *1 0.975,3.78 pmos_5p0
M$1 3 6 2 2 pmos_5p0 L=0.5U W=7.32U AS=2.46135P AD=2.31495P PS=11.84U PD=9.85U
* device instance $5 r0 *1 5.505,3.78 pmos_5p0
M$5 12 4 2 2 pmos_5p0 L=0.5U W=1.83U AS=0.6588P AD=0.7137P PS=2.55U PD=2.61U
* device instance $6 r0 *1 6.785,3.78 pmos_5p0
M$6 6 8 12 2 pmos_5p0 L=0.5U W=1.83U AS=0.7137P AD=0.4758P PS=2.61U PD=2.35U
* device instance $7 r0 *1 7.805,3.78 pmos_5p0
M$7 11 5 6 2 pmos_5p0 L=0.5U W=1.83U AS=0.4758P AD=0.2196P PS=2.35U PD=2.07U
* device instance $8 r0 *1 8.545,3.78 pmos_5p0
M$8 2 7 11 2 pmos_5p0 L=0.5U W=1.83U AS=0.2196P AD=0.4758P PS=2.07U PD=2.35U
* device instance $9 r0 *1 9.565,3.78 pmos_5p0
M$9 8 5 2 2 pmos_5p0 L=0.5U W=1.83U AS=0.4758P AD=0.8052P PS=2.35U PD=4.54U
* device instance $10 r0 *1 0.975,1.005 nmos_5p0
M$10 3 6 1 1 nmos_5p0 L=0.6U W=5.28U AS=1.6104P AD=1.3728P PS=9.04U PD=7.36U
* device instance $14 r0 *1 5.455,1.005 nmos_5p0
M$14 9 4 1 1 nmos_5p0 L=0.6U W=1.32U AS=0.3432P AD=0.1584P PS=1.84U PD=1.56U
* device instance $15 r0 *1 6.295,1.005 nmos_5p0
M$15 6 5 9 1 nmos_5p0 L=0.6U W=1.32U AS=0.1584P AD=0.3432P PS=1.56U PD=1.84U
* device instance $16 r0 *1 7.415,1.005 nmos_5p0
M$16 10 8 6 1 nmos_5p0 L=0.6U W=1.32U AS=0.3432P AD=0.3168P PS=1.84U PD=1.8U
* device instance $17 r0 *1 8.495,1.005 nmos_5p0
M$17 1 7 10 1 nmos_5p0 L=0.6U W=1.32U AS=0.3168P AD=0.3432P PS=1.8U PD=1.84U
* device instance $18 r0 *1 9.615,1.005 nmos_5p0
M$18 8 5 1 1 nmos_5p0 L=0.6U W=1.32U AS=0.3432P AD=0.5808P PS=1.84U PD=3.52U
.ENDS gf180mcu_fd_sc_mcu9t5v0__mux2_4

* cell gf180mcu_fd_sc_mcu9t5v0__mux4_2
* pin PWELL,VSS,gf180mcu_gnd
* pin Z
* pin S1
* pin I0
* pin I2
* pin S0
* pin I3
* pin I1
* pin NWELL,VDD
.SUBCKT gf180mcu_fd_sc_mcu9t5v0__mux4_2 1 6 7 11 12 13 14 16 18
* net 1 PWELL,VSS,gf180mcu_gnd
* net 6 Z
* net 7 S1
* net 11 I0
* net 12 I2
* net 13 S0
* net 14 I3
* net 16 I1
* net 18 NWELL,VDD
* device instance $1 r0 *1 0.97,3.62 pmos_5p0
M$1 3 12 18 18 pmos_5p0 L=0.5U W=1.28U AS=0.6848P AD=0.5504P PS=3.63U PD=2.14U
* device instance $2 r0 *1 2.33,3.62 pmos_5p0
M$2 4 13 3 18 pmos_5p0 L=0.5U W=1.28U AS=0.5504P AD=0.4544P PS=2.14U PD=1.99U
* device instance $3 r0 *1 3.54,3.62 pmos_5p0
M$3 5 17 4 18 pmos_5p0 L=0.5U W=1.28U AS=0.4544P AD=0.4032P PS=1.99U PD=1.91U
* device instance $4 r0 *1 4.67,3.62 pmos_5p0
M$4 18 14 5 18 pmos_5p0 L=0.5U W=1.28U AS=0.4032P AD=0.6432P PS=1.91U PD=2.4U
* device instance $5 r0 *1 6.13,3.62 pmos_5p0
M$5 6 2 18 18 pmos_5p0 L=0.5U W=2.56U AS=0.976P AD=0.896P PS=4.2U PD=5.24U
* device instance $7 r0 *1 9.555,3.62 pmos_5p0
M$7 2 15 4 18 pmos_5p0 L=0.5U W=1.28U AS=0.7616P AD=0.4672P PS=3.75U PD=2.01U
* device instance $8 r0 *1 10.785,3.62 pmos_5p0
M$8 8 7 2 18 pmos_5p0 L=0.5U W=1.28U AS=0.4672P AD=0.5632P PS=2.01U PD=3.44U
* device instance $9 r0 *1 12.605,3.62 pmos_5p0
M$9 18 7 15 18 pmos_5p0 L=0.5U W=1.28U AS=0.5632P AD=0.3712P PS=3.44U PD=1.86U
* device instance $10 r0 *1 13.685,3.62 pmos_5p0
M$10 9 16 18 18 pmos_5p0 L=0.5U W=1.28U AS=0.3712P AD=0.3776P PS=1.86U PD=1.87U
* device instance $11 r0 *1 14.775,3.62 pmos_5p0
M$11 8 17 9 18 pmos_5p0 L=0.5U W=1.28U AS=0.3776P AD=0.3328P PS=1.87U PD=1.8U
* device instance $12 r0 *1 15.795,3.62 pmos_5p0
M$12 10 13 8 18 pmos_5p0 L=0.5U W=1.28U AS=0.3328P AD=0.416P PS=1.8U PD=1.93U
* device instance $13 r0 *1 16.945,3.62 pmos_5p0
M$13 18 11 10 18 pmos_5p0 L=0.5U W=1.28U AS=0.416P AD=0.3968P PS=1.93U PD=1.9U
* device instance $14 r0 *1 18.065,3.62 pmos_5p0
M$14 17 13 18 18 pmos_5p0 L=0.5U W=1.28U AS=0.3968P AD=0.5632P PS=1.9U PD=3.44U
* device instance $15 r0 *1 12.515,1.18 nmos_5p0
M$15 1 7 15 1 nmos_5p0 L=0.6U W=0.8U AS=0.352P AD=0.208P PS=2.48U PD=1.32U
* device instance $16 r0 *1 13.635,1.18 nmos_5p0
M$16 9 16 1 1 nmos_5p0 L=0.6U W=0.8U AS=0.208P AD=0.208P PS=1.32U PD=1.32U
* device instance $17 r0 *1 14.755,1.18 nmos_5p0
M$17 8 13 9 1 nmos_5p0 L=0.6U W=0.8U AS=0.208P AD=0.208P PS=1.32U PD=1.32U
* device instance $18 r0 *1 15.875,1.18 nmos_5p0
M$18 10 17 8 1 nmos_5p0 L=0.6U W=0.8U AS=0.208P AD=0.208P PS=1.32U PD=1.32U
* device instance $19 r0 *1 16.995,1.18 nmos_5p0
M$19 1 11 10 1 nmos_5p0 L=0.6U W=0.8U AS=0.208P AD=0.208P PS=1.32U PD=1.32U
* device instance $20 r0 *1 18.115,1.18 nmos_5p0
M$20 17 13 1 1 nmos_5p0 L=0.6U W=0.8U AS=0.208P AD=0.352P PS=1.32U PD=2.48U
* device instance $21 r0 *1 0.92,1.18 nmos_5p0
M$21 3 12 1 1 nmos_5p0 L=0.6U W=0.8U AS=0.352P AD=0.48P PS=2.48U PD=2U
* device instance $22 r0 *1 2.72,1.18 nmos_5p0
M$22 4 17 3 1 nmos_5p0 L=0.6U W=0.8U AS=0.48P AD=0.208P PS=2U PD=1.32U
* device instance $23 r0 *1 3.84,1.18 nmos_5p0
M$23 5 13 4 1 nmos_5p0 L=0.6U W=0.8U AS=0.208P AD=0.208P PS=1.32U PD=1.32U
* device instance $24 r0 *1 4.96,1.18 nmos_5p0
M$24 1 14 5 1 nmos_5p0 L=0.6U W=0.8U AS=0.208P AD=0.208P PS=1.32U PD=1.32U
* device instance $25 r0 *1 6.08,1.18 nmos_5p0
M$25 6 2 1 1 nmos_5p0 L=0.6U W=1.6U AS=0.416P AD=0.56P PS=2.64U PD=3.8U
* device instance $27 r0 *1 9.555,1.18 nmos_5p0
M$27 2 7 4 1 nmos_5p0 L=0.6U W=0.8U AS=0.544P AD=0.208P PS=2.96U PD=1.32U
* device instance $28 r0 *1 10.675,1.18 nmos_5p0
M$28 8 15 2 1 nmos_5p0 L=0.6U W=0.8U AS=0.208P AD=0.352P PS=1.32U PD=2.48U
.ENDS gf180mcu_fd_sc_mcu9t5v0__mux4_2

* cell gf180mcu_fd_sc_mcu9t5v0__nor2_2
* pin PWELL,VSS,gf180mcu_gnd
* pin NWELL,VDD
* pin ZN
* pin A1
* pin A2
.SUBCKT gf180mcu_fd_sc_mcu9t5v0__nor2_2 1 2 3 4 5
* net 1 PWELL,VSS,gf180mcu_gnd
* net 2 NWELL,VDD
* net 3 ZN
* net 4 A1
* net 5 A2
* device instance $1 r0 *1 0.92,3.78 pmos_5p0
M$1 7 5 2 2 pmos_5p0 L=0.5U W=1.83U AS=0.8052P AD=0.5673P PS=4.54U PD=2.45U
* device instance $2 r0 *1 2.04,3.78 pmos_5p0
M$2 3 4 7 2 pmos_5p0 L=0.5U W=1.83U AS=0.5673P AD=0.52155P PS=2.45U PD=2.4U
* device instance $3 r0 *1 3.11,3.78 pmos_5p0
M$3 6 4 3 2 pmos_5p0 L=0.5U W=1.83U AS=0.52155P AD=0.61305P PS=2.4U PD=2.5U
* device instance $4 r0 *1 4.28,3.78 pmos_5p0
M$4 2 5 6 2 pmos_5p0 L=0.5U W=1.83U AS=0.61305P AD=0.8052P PS=2.5U PD=4.54U
* device instance $5 r0 *1 0.92,1.04 nmos_5p0
M$5 3 5 1 1 nmos_5p0 L=0.6U W=1.84U AS=0.644P AD=0.644P PS=4.16U PD=4.16U
* device instance $6 r0 *1 2.04,1.04 nmos_5p0
M$6 1 4 3 1 nmos_5p0 L=0.6U W=1.84U AS=0.4784P AD=0.4784P PS=2.88U PD=2.88U
.ENDS gf180mcu_fd_sc_mcu9t5v0__nor2_2

* cell gf180mcu_fd_sc_mcu9t5v0__aoi221_2
* pin PWELL,VSS,gf180mcu_gnd
* pin B2
* pin NWELL,VDD
* pin B1
* pin C
* pin A2
* pin ZN
* pin A1
.SUBCKT gf180mcu_fd_sc_mcu9t5v0__aoi221_2 1 3 4 5 6 8 9 10
* net 1 PWELL,VSS,gf180mcu_gnd
* net 3 B2
* net 4 NWELL,VDD
* net 5 B1
* net 6 C
* net 8 A2
* net 9 ZN
* net 10 A1
* device instance $1 r0 *1 0.97,3.78 pmos_5p0
M$1 2 6 7 4 pmos_5p0 L=0.5U W=3.66U AS=1.4457P AD=0.983625P PS=7.07U PD=4.735U
* device instance $2 r0 *1 1.99,3.78 pmos_5p0
M$2 4 3 2 4 pmos_5p0 L=0.5U W=3.66U AS=0.9516P AD=1.1163P PS=4.7U PD=4.88U
* device instance $3 r0 *1 3.01,3.78 pmos_5p0
M$3 2 5 4 4 pmos_5p0 L=0.5U W=3.66U AS=0.9699P AD=0.9699P PS=4.72U PD=4.72U
* device instance $7 r0 *1 7.325,3.78 pmos_5p0
M$7 9 10 7 4 pmos_5p0 L=0.5U W=3.66U AS=0.983625P AD=1.281P PS=4.735U PD=6.89U
* device instance $8 r0 *1 8.345,3.78 pmos_5p0
M$8 7 8 9 4 pmos_5p0 L=0.5U W=3.66U AS=0.9516P AD=0.9516P PS=4.7U PD=4.7U
* device instance $11 r0 *1 6.32,0.875 nmos_5p0
M$11 9 6 1 1 nmos_5p0 L=0.6U W=1.58U AS=0.711P AD=0.709025P PS=3.77U PD=4.36U
* device instance $13 r0 *1 2.22,1.072 nmos_5p0
M$13 14 3 1 1 nmos_5p0 L=0.6U W=1.185U AS=0.3555P AD=0.1422P PS=1.885U PD=1.425U
* device instance $14 r0 *1 3.06,1.072 nmos_5p0
M$14 9 5 14 1 nmos_5p0 L=0.6U W=1.185U AS=0.1422P AD=0.3081P PS=1.425U PD=1.705U
* device instance $15 r0 *1 4.18,1.072 nmos_5p0
M$15 12 5 9 1 nmos_5p0 L=0.6U W=1.185U AS=0.3081P AD=0.1422P PS=1.705U PD=1.425U
* device instance $16 r0 *1 5.02,1.072 nmos_5p0
M$16 1 3 12 1 nmos_5p0 L=0.6U W=1.185U AS=0.1422P AD=0.3555P PS=1.425U PD=1.885U
* device instance $17 r0 *1 7.635,1.072 nmos_5p0
M$17 13 10 9 1 nmos_5p0 L=0.6U W=1.185U AS=0.361425P AD=0.1422P PS=1.9U
+ PD=1.425U
* device instance $18 r0 *1 8.475,1.072 nmos_5p0
M$18 1 8 13 1 nmos_5p0 L=0.6U W=1.185U AS=0.1422P AD=0.3081P PS=1.425U PD=1.705U
* device instance $19 r0 *1 9.595,1.072 nmos_5p0
M$19 11 8 1 1 nmos_5p0 L=0.6U W=1.185U AS=0.3081P AD=0.1422P PS=1.705U PD=1.425U
* device instance $20 r0 *1 10.435,1.072 nmos_5p0
M$20 9 10 11 1 nmos_5p0 L=0.6U W=1.185U AS=0.1422P AD=0.5214P PS=1.425U PD=3.25U
.ENDS gf180mcu_fd_sc_mcu9t5v0__aoi221_2

* cell gf180mcu_fd_sc_mcu9t5v0__nor2_4
* pin PWELL,VSS,gf180mcu_gnd
* pin NWELL,VDD
* pin A2
* pin A1
* pin ZN
.SUBCKT gf180mcu_fd_sc_mcu9t5v0__nor2_4 1 2 3 4 5
* net 1 PWELL,VSS,gf180mcu_gnd
* net 2 NWELL,VDD
* net 3 A2
* net 4 A1
* net 5 ZN
* device instance $1 r0 *1 0.92,3.78 pmos_5p0
M$1 9 3 2 2 pmos_5p0 L=0.5U W=1.83U AS=0.8052P AD=0.61305P PS=4.54U PD=2.5U
* device instance $2 r0 *1 2.09,3.78 pmos_5p0
M$2 5 4 9 2 pmos_5p0 L=0.5U W=1.83U AS=0.61305P AD=0.52155P PS=2.5U PD=2.4U
* device instance $3 r0 *1 3.16,3.78 pmos_5p0
M$3 8 4 5 2 pmos_5p0 L=0.5U W=1.83U AS=0.52155P AD=0.5673P PS=2.4U PD=2.45U
* device instance $4 r0 *1 4.28,3.78 pmos_5p0
M$4 2 3 8 2 pmos_5p0 L=0.5U W=1.83U AS=0.5673P AD=0.5673P PS=2.45U PD=2.45U
* device instance $5 r0 *1 5.4,3.78 pmos_5p0
M$5 7 3 2 2 pmos_5p0 L=0.5U W=1.83U AS=0.5673P AD=0.5673P PS=2.45U PD=2.45U
* device instance $6 r0 *1 6.52,3.78 pmos_5p0
M$6 5 4 7 2 pmos_5p0 L=0.5U W=1.83U AS=0.5673P AD=0.5673P PS=2.45U PD=2.45U
* device instance $7 r0 *1 7.64,3.78 pmos_5p0
M$7 6 4 5 2 pmos_5p0 L=0.5U W=1.83U AS=0.5673P AD=0.5673P PS=2.45U PD=2.45U
* device instance $8 r0 *1 8.76,3.78 pmos_5p0
M$8 2 3 6 2 pmos_5p0 L=0.5U W=1.83U AS=0.5673P AD=0.8052P PS=2.45U PD=4.54U
* device instance $9 r0 *1 0.92,1.04 nmos_5p0
M$9 5 3 1 1 nmos_5p0 L=0.6U W=3.68U AS=1.1224P AD=1.1224P PS=7.04U PD=7.04U
* device instance $10 r0 *1 2.04,1.04 nmos_5p0
M$10 1 4 5 1 nmos_5p0 L=0.6U W=3.68U AS=0.9568P AD=0.9568P PS=5.76U PD=5.76U
.ENDS gf180mcu_fd_sc_mcu9t5v0__nor2_4

* cell gf180mcu_fd_sc_mcu9t5v0__clkbuf_4
* pin PWELL,VSS,gf180mcu_gnd
* pin NWELL,VDD
* pin I
* pin Z
.SUBCKT gf180mcu_fd_sc_mcu9t5v0__clkbuf_4 1 2 3 5
* net 1 PWELL,VSS,gf180mcu_gnd
* net 2 NWELL,VDD
* net 3 I
* net 5 Z
* device instance $1 r0 *1 0.87,3.78 pmos_5p0
M$1 4 3 2 2 pmos_5p0 L=0.5U W=3.66U AS=1.3725P AD=1.2993P PS=6.99U PD=5.08U
* device instance $3 r0 *1 3.29,3.78 pmos_5p0
M$3 5 4 2 2 pmos_5p0 L=0.5U W=7.32U AS=2.4339P AD=2.5071P PS=9.98U PD=11.89U
* device instance $7 r0 *1 0.92,1.23 nmos_5p0
M$7 4 3 1 1 nmos_5p0 L=0.6U W=1.46U AS=0.511P AD=0.4593P PS=3.59U PD=2.75U
* device instance $9 r0 *1 3.34,1.265 nmos_5p0
M$9 5 4 1 1 nmos_5p0 L=0.6U W=3.2U AS=0.8935P AD=0.976P PS=5.46U PD=6.44U
.ENDS gf180mcu_fd_sc_mcu9t5v0__clkbuf_4

* cell gf180mcu_fd_sc_mcu9t5v0__nor3_2
* pin ZN
* pin NWELL,VDD
* pin PWELL,VSS,gf180mcu_gnd
* pin A2
* pin A1
* pin A3
.SUBCKT gf180mcu_fd_sc_mcu9t5v0__nor3_2 1 2 3 4 5 6
* net 1 ZN
* net 2 NWELL,VDD
* net 3 PWELL,VSS,gf180mcu_gnd
* net 4 A2
* net 5 A1
* net 6 A3
* device instance $1 r0 *1 0.97,3.78 pmos_5p0
M$1 10 6 2 2 pmos_5p0 L=0.5U W=1.83U AS=0.8052P AD=0.5673P PS=4.54U PD=2.45U
* device instance $2 r0 *1 2.09,3.78 pmos_5p0
M$2 9 4 10 2 pmos_5p0 L=0.5U W=1.83U AS=0.5673P AD=0.52155P PS=2.45U PD=2.4U
* device instance $3 r0 *1 3.16,3.78 pmos_5p0
M$3 1 5 9 2 pmos_5p0 L=0.5U W=1.83U AS=0.52155P AD=0.5673P PS=2.4U PD=2.45U
* device instance $4 r0 *1 4.28,3.78 pmos_5p0
M$4 8 5 1 2 pmos_5p0 L=0.5U W=1.83U AS=0.5673P AD=0.5673P PS=2.45U PD=2.45U
* device instance $5 r0 *1 5.4,3.78 pmos_5p0
M$5 7 4 8 2 pmos_5p0 L=0.5U W=1.83U AS=0.5673P AD=0.52155P PS=2.45U PD=2.4U
* device instance $6 r0 *1 6.47,3.78 pmos_5p0
M$6 2 6 7 2 pmos_5p0 L=0.5U W=1.83U AS=0.52155P AD=0.8052P PS=2.4U PD=4.54U
* device instance $7 r0 *1 0.92,0.74 nmos_5p0
M$7 3 6 1 3 nmos_5p0 L=0.6U W=1.58U AS=0.553P AD=0.553P PS=3.77U PD=3.77U
* device instance $8 r0 *1 2.04,0.74 nmos_5p0
M$8 1 4 3 3 nmos_5p0 L=0.6U W=1.58U AS=0.4108P AD=0.4108P PS=2.62U PD=2.62U
* device instance $9 r0 *1 3.16,0.74 nmos_5p0
M$9 3 5 1 3 nmos_5p0 L=0.6U W=1.58U AS=0.4108P AD=0.4108P PS=2.62U PD=2.62U
.ENDS gf180mcu_fd_sc_mcu9t5v0__nor3_2

* cell gf180mcu_fd_sc_mcu9t5v0__oai222_2
* pin PWELL,VSS,gf180mcu_gnd
* pin C1
* pin C2
* pin B1
* pin B2
* pin A1
* pin A2
* pin ZN
* pin NWELL,VDD
.SUBCKT gf180mcu_fd_sc_mcu9t5v0__oai222_2 1 4 5 6 7 8 9 10 11
* net 1 PWELL,VSS,gf180mcu_gnd
* net 4 C1
* net 5 C2
* net 6 B1
* net 7 B2
* net 8 A1
* net 9 A2
* net 10 ZN
* net 11 NWELL,VDD
* device instance $1 r0 *1 0.97,3.78 pmos_5p0
M$1 12 4 10 11 pmos_5p0 L=0.5U W=1.83U AS=0.8052P AD=0.52155P PS=4.54U PD=2.4U
* device instance $2 r0 *1 2.04,3.78 pmos_5p0
M$2 11 5 12 11 pmos_5p0 L=0.5U W=1.83U AS=0.52155P AD=0.5673P PS=2.4U PD=2.45U
* device instance $3 r0 *1 3.16,3.78 pmos_5p0
M$3 13 5 11 11 pmos_5p0 L=0.5U W=1.83U AS=0.5673P AD=0.5673P PS=2.45U PD=2.45U
* device instance $4 r0 *1 4.28,3.78 pmos_5p0
M$4 10 4 13 11 pmos_5p0 L=0.5U W=1.83U AS=0.5673P AD=1.2261P PS=2.45U PD=3.17U
* device instance $5 r0 *1 6.12,3.78 pmos_5p0
M$5 14 6 10 11 pmos_5p0 L=0.5U W=1.83U AS=1.2261P AD=0.5673P PS=3.17U PD=2.45U
* device instance $6 r0 *1 7.24,3.78 pmos_5p0
M$6 11 7 14 11 pmos_5p0 L=0.5U W=1.83U AS=0.5673P AD=0.5673P PS=2.45U PD=2.45U
* device instance $7 r0 *1 8.36,3.78 pmos_5p0
M$7 15 7 11 11 pmos_5p0 L=0.5U W=1.83U AS=0.5673P AD=0.5673P PS=2.45U PD=2.45U
* device instance $8 r0 *1 9.48,3.78 pmos_5p0
M$8 10 6 15 11 pmos_5p0 L=0.5U W=1.83U AS=0.5673P AD=0.5673P PS=2.45U PD=2.45U
* device instance $9 r0 *1 10.6,3.78 pmos_5p0
M$9 17 8 10 11 pmos_5p0 L=0.5U W=1.83U AS=0.5673P AD=0.5673P PS=2.45U PD=2.45U
* device instance $10 r0 *1 11.72,3.78 pmos_5p0
M$10 11 9 17 11 pmos_5p0 L=0.5U W=1.83U AS=0.5673P AD=0.5673P PS=2.45U PD=2.45U
* device instance $11 r0 *1 12.84,3.78 pmos_5p0
M$11 16 9 11 11 pmos_5p0 L=0.5U W=1.83U AS=0.5673P AD=0.5673P PS=2.45U PD=2.45U
* device instance $12 r0 *1 13.96,3.78 pmos_5p0
M$12 10 8 16 11 pmos_5p0 L=0.5U W=1.83U AS=0.5673P AD=0.8052P PS=2.45U PD=4.54U
* device instance $13 r0 *1 0.92,1.005 nmos_5p0
M$13 2 4 1 1 nmos_5p0 L=0.6U W=2.64U AS=0.924P AD=0.924P PS=5.36U PD=5.36U
* device instance $14 r0 *1 2.04,1.005 nmos_5p0
M$14 1 5 2 1 nmos_5p0 L=0.6U W=2.64U AS=0.6864P AD=0.6864P PS=3.68U PD=3.68U
* device instance $17 r0 *1 6.12,1.005 nmos_5p0
M$17 2 6 3 1 nmos_5p0 L=0.6U W=2.64U AS=0.924P AD=0.6864P PS=5.36U PD=3.68U
* device instance $18 r0 *1 7.24,1.005 nmos_5p0
M$18 3 7 2 1 nmos_5p0 L=0.6U W=2.64U AS=0.6864P AD=0.6864P PS=3.68U PD=3.68U
* device instance $21 r0 *1 10.6,1.005 nmos_5p0
M$21 10 8 3 1 nmos_5p0 L=0.6U W=2.64U AS=0.6864P AD=0.924P PS=3.68U PD=5.36U
* device instance $22 r0 *1 11.72,1.005 nmos_5p0
M$22 3 9 10 1 nmos_5p0 L=0.6U W=2.64U AS=0.6864P AD=0.6864P PS=3.68U PD=3.68U
.ENDS gf180mcu_fd_sc_mcu9t5v0__oai222_2

* cell gf180mcu_fd_sc_mcu9t5v0__and3_2
* pin A1
* pin NWELL,VDD
* pin A2
* pin A3
* pin PWELL,VSS,gf180mcu_gnd
* pin Z
.SUBCKT gf180mcu_fd_sc_mcu9t5v0__and3_2 2 3 4 5 6 7
* net 2 A1
* net 3 NWELL,VDD
* net 4 A2
* net 5 A3
* net 6 PWELL,VSS,gf180mcu_gnd
* net 7 Z
* device instance $1 r0 *1 0.925,3.965 pmos_5p0
M$1 3 2 1 3 pmos_5p0 L=0.5U W=1.46U AS=0.6424P AD=0.3796P PS=3.8U PD=1.98U
* device instance $2 r0 *1 1.945,3.965 pmos_5p0
M$2 1 4 3 3 pmos_5p0 L=0.5U W=1.46U AS=0.3796P AD=0.3796P PS=1.98U PD=1.98U
* device instance $3 r0 *1 2.965,3.965 pmos_5p0
M$3 1 5 3 3 pmos_5p0 L=0.5U W=1.46U AS=0.585P AD=0.3796P PS=2.53U PD=1.98U