
* cell simple_spi
* pin clk_i
* pin dat_i[4]
* pin miso_i
* pin dat_i[5]
* pin mosi_o
* pin dat_o[4]
* pin dat_o[5]
* pin rst_i
* pin dat_o[2]
* pin dat_i[7]
* pin dat_i[2]
* pin cyc_i
* pin we_i
* pin stb_i
* pin ack_o
* pin dat_i[3]
* pin dat_o[1]
* pin dat_o[3]
* pin dat_i[0]
* pin adr_i[0]
* pin dat_o[0]
* pin adr_i[1]
* pin dat_i[1]
* pin dat_i[6]
* pin dat_o[7]
* pin dat_o[6]
* pin inta_o
* pin sck_o
.SUBCKT simple_spi 1 2 3 4 141 190 202 203 220 221 228 242 259 274 275 285 292
+ 293 304 312 313 328 338 370 377 378 385 509
* net 1 clk_i
* net 2 dat_i[4]
* net 3 miso_i
* net 4 dat_i[5]
* net 141 mosi_o
* net 190 dat_o[4]
* net 202 dat_o[5]
* net 203 rst_i
* net 220 dat_o[2]
* net 221 dat_i[7]
* net 228 dat_i[2]
* net 242 cyc_i
* net 259 we_i
* net 274 stb_i
* net 275 ack_o
* net 285 dat_i[3]
* net 292 dat_o[1]
* net 293 dat_o[3]
* net 304 dat_i[0]
* net 312 adr_i[0]
* net 313 dat_o[0]
* net 328 adr_i[1]
* net 338 dat_i[1]
* net 370 dat_i[6]
* net 377 dat_o[7]
* net 378 dat_o[6]
* net 385 inta_o
* net 509 sck_o
* cell instance $2 r0 *1 63.02,65.28
X$2 5 1 71 12 12 5 sky130_fd_sc_hd__clkbuf_16
* cell instance $10 r0 *1 30.82,5.44
X$10 12 2 12 5 6 5 sky130_fd_sc_hd__clkbuf_2
* cell instance $13 r0 *1 51.06,5.44
X$13 12 3 7 5 12 5 sky130_fd_sc_hd__clkbuf_1
* cell instance $16 r0 *1 44.62,5.44
X$16 12 4 12 5 8 5 sky130_fd_sc_hd__clkbuf_2
* cell instance $118 m0 *1 76.82,10.88
X$118 5 19 14 15 9 12 12 5 sky130_fd_sc_hd__edfxtp_1
* cell instance $120 m0 *1 88.32,10.88
X$120 5 10 13 15 9 12 12 5 sky130_fd_sc_hd__edfxtp_1
* cell instance $121 m0 *1 99.36,10.88
X$121 5 10 17 11 16 12 12 5 sky130_fd_sc_hd__edfxtp_1
* cell instance $171 r0 *1 81.42,10.88
X$171 5 20 22 15 9 12 12 5 sky130_fd_sc_hd__edfxtp_1
* cell instance $179 r0 *1 102.12,10.88
X$179 5 18 21 11 16 12 12 5 sky130_fd_sc_hd__edfxtp_1
* cell instance $208 m0 *1 69.46,16.32
X$208 5 19 27 15 23 12 12 5 sky130_fd_sc_hd__edfxtp_1
* cell instance $215 m0 *1 94.76,16.32
X$215 5 20 26 11 16 12 12 5 sky130_fd_sc_hd__edfxtp_1
* cell instance $253 r0 *1 63.02,16.32
X$253 5 20 34 28 23 12 12 5 sky130_fd_sc_hd__edfxtp_1
* cell instance $258 r0 *1 74.52,16.32
X$258 5 18 35 15 23 12 12 5 sky130_fd_sc_hd__edfxtp_1
* cell instance $259 r0 *1 85.56,16.32
X$259 5 18 36 15 9 12 12 5 sky130_fd_sc_hd__edfxtp_1
* cell instance $269 r0 *1 106.26,16.32
X$269 5 24 32 33 26 21 17 25 12 12 5 sky130_fd_sc_hd__mux4_1
* cell instance $296 m0 *1 65.78,21.76
X$296 5 10 29 28 23 12 12 5 sky130_fd_sc_hd__edfxtp_1
* cell instance $297 m0 *1 76.82,21.76
X$297 5 24 30 27 34 35 29 25 12 12 5 sky130_fd_sc_hd__mux4_1
* cell instance $303 m0 *1 91.08,21.76
X$303 5 24 31 14 22 36 13 25 12 12 5 sky130_fd_sc_hd__mux4_1
* cell instance $305 m0 *1 104.42,21.76
X$305 5 19 33 11 16 12 12 5 sky130_fd_sc_hd__edfxtp_1
* cell instance $331 r0 *1 49.68,21.76
X$331 5 16 28 37 12 12 5 sky130_fd_sc_hd__dfxtp_1
* cell instance $332 r0 *1 57.04,21.76
X$332 5 23 28 40 12 12 5 sky130_fd_sc_hd__dfxtp_1
* cell instance $352 r0 *1 104.42,21.76
X$352 5 20 38 11 39 12 12 5 sky130_fd_sc_hd__edfxtp_1
* cell instance $364 m0 *1 23.46,27.2
X$364 5 71 44 12 12 5 sky130_fd_sc_hd__clkbuf_16
* cell instance $368 m0 *1 35.88,27.2
X$368 5 45 55 44 6 12 12 5 sky130_fd_sc_hd__edfxtp_1
* cell instance $374 m0 *1 50.14,27.2
X$374 12 41 7 56 12 5 5 sky130_fd_sc_hd__nand2_1
* cell instance $377 m0 *1 53.82,27.2
X$377 12 42 57 43 12 5 5 sky130_fd_sc_hd__nand2_1
* cell instance $378 m0 *1 55.2,27.2
X$378 12 41 16 58 12 5 5 sky130_fd_sc_hd__nand2_1
* cell instance $389 m0 *1 82.8,27.2
X$389 12 15 525 5 12 5 sky130_fd_sc_hd__clkbuf_1
* cell instance $395 m0 *1 93.38,27.2
X$395 5 18 53 11 50 12 12 5 sky130_fd_sc_hd__edfxtp_1
* cell instance $398 m0 *1 104.42,27.2
X$398 5 18 51 11 39 12 12 5 sky130_fd_sc_hd__edfxtp_1
* cell instance $412 r0 *1 19.78,27.2
X$412 5 45 69 44 52 12 12 5 sky130_fd_sc_hd__edfxtp_1
* cell instance $415 r0 *1 35.42,27.2
X$415 5 54 70 44 6 12 12 5 sky130_fd_sc_hd__edfxtp_1
* cell instance $420 r0 *1 49.68,27.2
X$420 12 72 56 62 46 5 12 37 5 sky130_fd_sc_hd__a31oi_1
* cell instance $421 r0 *1 51.98,27.2
X$421 12 16 62 63 12 46 5 5 sky130_fd_sc_hd__o21ai_0
* cell instance $422 r0 *1 53.82,27.2
X$422 12 47 58 62 48 5 12 49 5 sky130_fd_sc_hd__a31oi_1
* cell instance $423 r0 *1 56.12,27.2
X$423 12 50 62 63 12 48 5 5 sky130_fd_sc_hd__o21ai_0
* cell instance $424 r0 *1 57.96,27.2
X$424 12 41 50 64 12 5 5 sky130_fd_sc_hd__nand2_1
* cell instance $426 r0 *1 60.26,27.2
X$426 5 50 28 49 12 12 5 sky130_fd_sc_hd__dfxtp_1
* cell instance $436 r0 *1 81.42,27.2
X$436 5 71 15 12 12 5 sky130_fd_sc_hd__clkbuf_16
* cell instance $437 r0 *1 90.62,27.2
X$437 5 10 68 15 50 12 12 5 sky130_fd_sc_hd__edfxtp_1
* cell instance $442 r0 *1 106.26,27.2
X$442 5 10 66 11 39 12 12 5 sky130_fd_sc_hd__edfxtp_1
* cell instance $458 m0 *1 11.96,32.64
X$458 5 73 78 44 52 12 12 5 sky130_fd_sc_hd__edfxtp_1
* cell instance $459 m0 *1 23,32.64
X$459 5 67 57 78 59 60 69 61 12 12 5 sky130_fd_sc_hd__mux4_1
* cell instance $461 m0 *1 33.12,32.64
X$461 5 73 81 44 6 12 12 5 sky130_fd_sc_hd__edfxtp_1
* cell instance $462 m0 *1 44.16,32.64
X$462 5 67 65 81 70 82 55 61 12 12 5 sky130_fd_sc_hd__mux4_1
* cell instance $463 m0 *1 53.82,32.64
X$463 12 42 83 47 12 5 5 sky130_fd_sc_hd__nand2_1
* cell instance $465 m0 *1 55.66,32.64
X$465 12 43 64 62 93 5 12 40 5 sky130_fd_sc_hd__a31oi_1
* cell instance $466 m0 *1 57.96,32.64
X$466 12 41 23 88 12 5 5 sky130_fd_sc_hd__nand2_1
* cell instance $470 m0 *1 61.64,32.64
X$470 12 74 84 62 94 5 12 87 5 sky130_fd_sc_hd__a31oi_1
* cell instance $471 m0 *1 63.94,32.64
X$471 12 42 65 74 12 5 5 sky130_fd_sc_hd__nand2_1
* cell instance $474 m0 *1 68.08,32.64
X$474 5 19 80 76 75 12 12 5 sky130_fd_sc_hd__edfxtp_1
* cell instance $480 m0 *1 88.32,32.64
X$480 5 19 79 15 50 12 12 5 sky130_fd_sc_hd__edfxtp_1
* cell instance $483 m0 *1 102.12,32.64
X$483 12 11 523 5 12 5 sky130_fd_sc_hd__clkbuf_1
* cell instance $485 m0 *1 104.42,32.64
X$485 5 19 77 11 39 12 12 5 sky130_fd_sc_hd__edfxtp_1
* cell instance $493 r0 *1 7.82,32.64
X$493 5 85 60 44 52 12 12 5 sky130_fd_sc_hd__edfxtp_1
* cell instance $499 r0 *1 23,32.64
X$499 5 54 59 44 52 12 12 5 sky130_fd_sc_hd__edfxtp_1
* cell instance $502 r0 *1 35.42,32.64
X$502 5 85 82 44 6 12 12 5 sky130_fd_sc_hd__edfxtp_1
* cell instance $508 r0 *1 47.38,32.64
X$508 12 42 247 72 12 5 5 sky130_fd_sc_hd__nand2_1
* cell instance $509 r0 *1 48.76,32.64
X$509 5 75 28 89 12 12 5 sky130_fd_sc_hd__dfxtp_1
* cell instance $510 r0 *1 56.12,32.64
X$510 5 71 28 12 12 5 sky130_fd_sc_hd__clkbuf_16
* cell instance $511 r0 *1 65.32,32.64
X$511 5 39 28 87 12 12 5 sky130_fd_sc_hd__dfxtp_1
* cell instance $518 r0 *1 74.52,32.64
X$518 5 18 92 76 75 12 12 5 sky130_fd_sc_hd__edfxtp_1
* cell instance $520 r0 *1 86.02,32.64
X$520 5 20 91 15 50 12 12 5 sky130_fd_sc_hd__edfxtp_1
* cell instance $527 r0 *1 102.12,32.64
X$527 5 71 11 12 12 5 sky130_fd_sc_hd__clkbuf_16
* cell instance $528 r0 *1 111.32,32.64
X$528 5 24 86 77 38 51 66 25 12 12 5 sky130_fd_sc_hd__mux4_1
* cell instance $536 m0 *1 18.4,38.08
X$536 5 44 12 12 5 sky130_fd_sc_hd__clkbuf_8
* cell instance $537 m0 *1 23.46,38.08
X$537 5 71 95 12 12 5 sky130_fd_sc_hd__clkbuf_16
* cell instance $540 m0 *1 36.8,38.08
X$540 5 73 105 106 8 12 12 5 sky130_fd_sc_hd__edfxtp_1
* cell instance $541 m0 *1 47.84,38.08
X$541 12 42 103 97 12 5 5 sky130_fd_sc_hd__nand2_1
* cell instance $542 m0 *1 49.22,38.08
X$542 12 28 511 12 5 5 sky130_fd_sc_hd__clkinv_2
* cell instance $543 m0 *1 51.06,38.08
X$543 5 71 106 12 12 5 sky130_fd_sc_hd__clkbuf_16
* cell instance $545 m0 *1 60.72,38.08
X$545 12 23 98 90 12 93 5 5 sky130_fd_sc_hd__o21ai_0
* cell instance $546 m0 *1 62.56,38.08
X$546 12 39 98 90 12 94 5 5 sky130_fd_sc_hd__o21ai_0
* cell instance $547 m0 *1 64.4,38.08
X$547 12 75 98 90 12 104 5 5 sky130_fd_sc_hd__o21ai_0
* cell instance $551 m0 *1 72.22,38.08
X$551 5 10 102 76 75 12 12 5 sky130_fd_sc_hd__edfxtp_1
* cell instance $552 m0 *1 83.26,38.08
X$552 12 76 524 5 12 5 sky130_fd_sc_hd__clkbuf_1
* cell instance $559 m0 *1 95.68,38.08
X$559 5 24 101 79 91 53 68 25 12 12 5 sky130_fd_sc_hd__mux4_1
* cell instance $561 m0 *1 106.26,38.08
X$561 5 71 100 12 12 5 sky130_fd_sc_hd__clkbuf_16
* cell instance $569 r0 *1 7.82,38.08
X$569 5 45 117 95 107 12 12 5 sky130_fd_sc_hd__edfxtp_1
* cell instance $574 r0 *1 22.08,38.08
X$574 12 95 528 5 12 5 sky130_fd_sc_hd__clkbuf_1
* cell instance $575 r0 *1 23.46,38.08
X$575 5 67 103 116 96 108 117 61 12 12 5 sky130_fd_sc_hd__mux4_1
* cell instance $578 r0 *1 35.42,38.08
X$578 5 45 109 95 8 12 12 5 sky130_fd_sc_hd__edfxtp_1
* cell instance $581 r0 *1 46.92,38.08
X$581 5 67 110 105 120 131 109 61 12 12 5 sky130_fd_sc_hd__mux4_1
* cell instance $582 r0 *1 56.58,38.08
X$582 12 97 88 62 104 5 12 89 5 sky130_fd_sc_hd__a31oi_1
* cell instance $584 r0 *1 59.8,38.08
X$584 12 9 98 90 12 135 5 5 sky130_fd_sc_hd__o21ai_0
* cell instance $585 r0 *1 61.64,38.08
X$585 12 41 75 84 12 5 5 sky130_fd_sc_hd__nand2_1
* cell instance $586 r0 *1 63.02,38.08
X$586 5 20 121 106 75 12 12 5 sky130_fd_sc_hd__edfxtp_1
* cell instance $590 r0 *1 75.44,38.08
X$590 12 90 5 63 12 5 sky130_fd_sc_hd__clkbuf_4
* cell instance $591 r0 *1 78.2,38.08
X$591 5 24 119 80 121 92 102 25 12 12 5 sky130_fd_sc_hd__mux4_1
* cell instance $599 r0 *1 102.12,38.08
X$599 5 20 118 100 99 12 12 5 sky130_fd_sc_hd__edfxtp_1
* cell instance $600 r0 *1 113.16,38.08
X$600 12 100 526 5 12 5 sky130_fd_sc_hd__clkbuf_1
* cell instance $601 r0 *1 114.54,38.08
X$601 5 18 113 100 99 12 12 5 sky130_fd_sc_hd__edfxtp_1
* cell instance $611 m0 *1 8.74,43.52
X$611 5 85 108 95 107 12 12 5 sky130_fd_sc_hd__edfxtp_1
* cell instance $612 m0 *1 19.78,43.52
X$612 5 73 116 95 107 12 12 5 sky130_fd_sc_hd__edfxtp_1
* cell instance $617 m0 *1 37.26,43.52
X$617 5 54 120 95 8 12 12 5 sky130_fd_sc_hd__edfxtp_1
* cell instance $620 m0 *1 49.68,43.52
X$620 5 9 106 122 12 12 5 sky130_fd_sc_hd__dfxtp_1
* cell instance $621 m0 *1 57.04,43.52
X$621 12 132 133 62 135 5 12 122 5 sky130_fd_sc_hd__a31oi_1
* cell instance $625 m0 *1 61.64,43.52
X$625 12 123 39 133 12 5 5 sky130_fd_sc_hd__nand2_1
* cell instance $626 m0 *1 63.02,43.52
X$626 12 42 110 132 12 5 5 sky130_fd_sc_hd__nand2_1
* cell instance $631 m0 *1 77.28,43.52
X$631 5 71 76 12 12 5 sky130_fd_sc_hd__clkbuf_16
* cell instance $638 m0 *1 94.3,43.52
X$638 12 111 12 5 130 5 sky130_fd_sc_hd__inv_1
* cell instance $639 m0 *1 95.68,43.52
X$639 12 112 12 5 129 5 sky130_fd_sc_hd__inv_1
* cell instance $641 m0 *1 97.52,43.52
X$641 5 517 126 112 111 12 12 5 sky130_fd_sc_hd__ha_1
* cell instance $644 m0 *1 104.42,43.52
X$644 5 19 115 100 99 12 12 5 sky130_fd_sc_hd__edfxtp_1
* cell instance $646 m0 *1 115.92,43.52
X$646 5 114 128 115 118 113 127 142 12 12 5 sky130_fd_sc_hd__mux4_1
* cell instance $654 r0 *1 19.32,43.52
X$654 5 54 96 95 107 12 12 5 sky130_fd_sc_hd__edfxtp_1
* cell instance $658 r0 *1 35.42,43.52
X$658 5 85 131 95 8 12 12 5 sky130_fd_sc_hd__edfxtp_1
* cell instance $664 r0 *1 53.36,43.52
X$664 12 106 527 5 12 5 sky130_fd_sc_hd__clkbuf_1
* cell instance $667 r0 *1 56.12,43.52
X$667 12 123 9 143 12 5 5 sky130_fd_sc_hd__nand2_1
* cell instance $669 r0 *1 58.42,43.52
X$669 12 123 124 136 12 5 5 sky130_fd_sc_hd__nand2_1
* cell instance $670 r0 *1 59.8,43.52
X$670 12 124 98 90 12 134 5 5 sky130_fd_sc_hd__o21ai_0
* cell instance $673 r0 *1 63.02,43.52
X$673 5 20 145 106 124 12 12 5 sky130_fd_sc_hd__edfxtp_1
* cell instance $676 r0 *1 74.52,43.52
X$676 5 18 146 76 124 12 12 5 sky130_fd_sc_hd__edfxtp_1
* cell instance $678 r0 *1 89.24,43.52
X$678 5 519 140 129 111 12 12 5 sky130_fd_sc_hd__ha_1
* cell instance $679 r0 *1 93.84,43.52
X$679 5 147 138 129 130 12 12 5 sky130_fd_sc_hd__ha_1
* cell instance $680 r0 *1 98.44,43.52
X$680 12 125 138 5 20 12 5 sky130_fd_sc_hd__and2_4
* cell instance $683 r0 *1 102.12,43.52
X$683 12 125 140 5 10 12 5 sky130_fd_sc_hd__and2_4
* cell instance $684 r0 *1 105.34,43.52
X$684 12 125 126 5 18 12 5 sky130_fd_sc_hd__and2_4
* cell instance $687 r0 *1 109.94,43.52
X$687 5 10 127 100 99 12 12 5 sky130_fd_sc_hd__edfxtp_1
* cell instance $688 r0 *1 120.98,43.52
X$688 12 99 141 5 12 5 sky130_fd_sc_hd__clkbuf_1
* cell instance $704 m0 *1 16.56,48.96
X$704 5 45 155 95 154 12 12 5 sky130_fd_sc_hd__edfxtp_1
* cell instance $715 m0 *1 52.44,48.96
X$715 12 161 143 62 134 5 12 162 5 sky130_fd_sc_hd__a31oi_1
* cell instance $719 m0 *1 57.96,48.96
X$719 12 144 136 62 137 5 12 163 5 sky130_fd_sc_hd__a31oi_1
* cell instance $721 m0 *1 60.72,48.96
X$721 12 98 12 5 62 5 sky130_fd_sc_hd__buf_4
* cell instance $722 m0 *1 63.48,48.96
X$722 12 99 98 90 12 137 5 5 sky130_fd_sc_hd__o21ai_0
* cell instance $725 m0 *1 70.84,48.96
X$725 5 19 160 76 124 12 12 5 sky130_fd_sc_hd__edfxtp_1
* cell instance $730 m0 *1 88.32,48.96
X$730 5 152 111 76 157 12 12 5 sky130_fd_sc_hd__dfrtp_1
* cell instance $731 m0 *1 97.52,48.96
X$731 5 513 139 112 130 12 12 5 sky130_fd_sc_hd__ha_1
* cell instance $732 m0 *1 102.12,48.96
X$732 12 125 139 5 19 12 5 sky130_fd_sc_hd__and2_4
* cell instance $735 m0 *1 112.7,48.96
X$735 12 114 12 5 24 5 sky130_fd_sc_hd__buf_4
* cell instance $739 m0 *1 118.68,48.96
X$739 12 142 12 5 25 5 sky130_fd_sc_hd__buf_4
* cell instance $750 r0 *1 20.24,48.96
X$750 5 85 156 95 154 12 12 5 sky130_fd_sc_hd__edfxtp_1
* cell instance $760 r0 *1 49.22,48.96
X$760 12 42 159 161 12 5 5 sky130_fd_sc_hd__nand2_1
* cell instance $761 r0 *1 50.6,48.96
X$761 5 124 106 162 12 12 5 sky130_fd_sc_hd__dfxtp_1
* cell instance $762 r0 *1 57.96,48.96
X$762 5 99 106 163 12 12 5 sky130_fd_sc_hd__dfxtp_1
* cell instance $771 r0 *1 76.82,48.96
X$771 5 24 170 160 145 146 158 25 12 12 5 sky130_fd_sc_hd__mux4_1
* cell instance $774 r0 *1 89.24,48.96
X$774 12 149 148 157 5 12 5 sky130_fd_sc_hd__nor2_1
* cell instance $776 r0 *1 91.08,48.96
X$776 5 148 111 147 125 12 12 5 sky130_fd_sc_hd__mux2i_1
* cell instance $780 r0 *1 97.98,48.96
X$780 12 111 25 12 169 5 5 sky130_fd_sc_hd__xor2_1
* cell instance $788 r0 *1 109.02,48.96
X$788 12 149 150 153 5 12 5 sky130_fd_sc_hd__nor2_1
* cell instance $789 r0 *1 110.4,48.96
X$789 5 152 142 100 153 12 12 5 sky130_fd_sc_hd__dfrtp_1
* cell instance $793 r0 *1 122.82,48.96
X$793 12 151 190 5 12 5 sky130_fd_sc_hd__clkbuf_1
* cell instance $800 m0 *1 11.96,54.4
X$800 5 73 166 95 154 12 12 5 sky130_fd_sc_hd__edfxtp_1
* cell instance $803 m0 *1 23,54.4
X$803 5 67 159 166 164 156 155 61 12 12 5 sky130_fd_sc_hd__mux4_1
* cell instance $809 m0 *1 40.02,54.4
X$809 5 54 176 106 167 12 12 5 sky130_fd_sc_hd__edfxtp_1
* cell instance $814 m0 *1 55.66,54.4
X$814 12 42 179 144 12 5 5 sky130_fd_sc_hd__nand2_1
* cell instance $816 m0 *1 57.5,54.4
X$816 12 123 42 12 5 5 sky130_fd_sc_hd__clkinv_2
* cell instance $822 m0 *1 65.78,54.4
X$822 5 10 158 106 124 12 12 5 sky130_fd_sc_hd__edfxtp_1
* cell instance $830 m0 *1 92,54.4
X$830 12 147 25 178 12 5 5 sky130_fd_sc_hd__xnor2_1
* cell instance $831 m0 *1 95.22,54.4
X$831 12 125 112 177 12 5 5 sky130_fd_sc_hd__xnor2_1
* cell instance $837 m0 *1 106.26,54.4
X$837 5 152 114 100 168 12 12 5 sky130_fd_sc_hd__dfrtp_1
* cell instance $841 m0 *1 117.3,54.4
X$841 5 151 100 165 12 12 5 sky130_fd_sc_hd__dfxtp_1
* cell instance $852 r0 *1 23.46,54.4
X$852 5 54 164 171 154 12 12 5 sky130_fd_sc_hd__edfxtp_1
* cell instance $854 r0 *1 35.42,54.4
X$854 5 73 175 171 167 12 12 5 sky130_fd_sc_hd__edfxtp_1
* cell instance $857 r0 *1 46.92,54.4
X$857 5 67 179 175 176 192 193 61 12 12 5 sky130_fd_sc_hd__mux4_1
* cell instance $858 r0 *1 56.58,54.4
X$858 5 152 184 106 194 12 12 5 sky130_fd_sc_hd__dfrtp_1
* cell instance $866 r0 *1 81.88,54.4
X$866 5 152 185 76 196 12 12 5 sky130_fd_sc_hd__dfrtp_1
* cell instance $868 r0 *1 92,54.4
X$868 5 152 112 100 180 12 12 5 sky130_fd_sc_hd__dfrtp_2
* cell instance $873 r0 *1 104.88,54.4
X$873 12 219 24 172 12 5 5 sky130_fd_sc_hd__xnor2_1
* cell instance $874 r0 *1 108.1,54.4
X$874 12 149 172 168 5 12 5 sky130_fd_sc_hd__nor2_1
* cell instance $875 r0 *1 109.48,54.4
X$875 12 191 25 150 12 5 5 sky130_fd_sc_hd__xnor2_1
* cell instance $878 r0 *1 116.84,54.4
X$878 5 174 100 173 12 12 5 sky130_fd_sc_hd__dfxtp_1
* cell instance $879 r0 *1 124.2,54.4
X$879 12 174 202 5 12 5 sky130_fd_sc_hd__clkbuf_1
* cell instance $892 m0 *1 17.02,59.84
X$892 5 73 207 204 205 12 12 5 sky130_fd_sc_hd__edfxtp_1
* cell instance $897 m0 *1 36.8,59.84
X$897 5 85 192 171 167 12 12 5 sky130_fd_sc_hd__edfxtp_1
* cell instance $901 m0 *1 56.12,59.84
X$901 5 194 6 184 181 12 12 5 sky130_fd_sc_hd__mux2_1
* cell instance $903 m0 *1 60.72,59.84
X$903 5 209 107 210 181 12 12 5 sky130_fd_sc_hd__mux2_1
* cell instance $905 m0 *1 66.7,59.84
X$905 5 152 182 76 211 12 12 5 sky130_fd_sc_hd__dfrtp_1
* cell instance $908 m0 *1 78.2,59.84
X$908 5 183 206 30 215 182 213 187 12 12 5 sky130_fd_sc_hd__mux4_1
* cell instance $910 m0 *1 88.32,59.84
X$910 5 196 185 8 198 12 12 5 sky130_fd_sc_hd__mux2_1
* cell instance $911 m0 *1 92.46,59.84
X$911 5 212 185 31 183 12 12 5 sky130_fd_sc_hd__mux2i_1
* cell instance $912 m0 *1 96.14,59.84
X$912 12 149 177 180 5 12 5 sky130_fd_sc_hd__nor2_1
* cell instance $913 m0 *1 97.52,59.84
X$913 12 24 112 12 195 5 5 sky130_fd_sc_hd__xor2_1
* cell instance $915 m0 *1 104.42,59.84
X$915 12 183 184 186 12 5 5 sky130_fd_sc_hd__nand2_1
* cell instance $916 m0 *1 105.8,59.84
X$916 12 183 12 5 199 5 sky130_fd_sc_hd__inv_1
* cell instance $917 m0 *1 107.18,59.84
X$917 12 187 199 86 200 5 12 5 sky130_fd_sc_hd__nor3_1
* cell instance $918 m0 *1 109.02,59.84
X$918 12 200 187 186 5 12 165 5 sky130_fd_sc_hd__a21oi_1
* cell instance $919 m0 *1 110.86,59.84
X$919 12 188 201 224 24 5 191 12 5 sky130_fd_sc_hd__nor4b_1
* cell instance $923 m0 *1 115.92,59.84
X$923 5 189 100 206 12 12 5 sky130_fd_sc_hd__dfxtp_1
* cell instance $924 m0 *1 123.28,59.84
X$924 12 189 220 5 12 5 sky130_fd_sc_hd__clkbuf_1
* cell instance $934 r0 *1 20.24,59.84
X$934 5 45 223 171 205 12 12 5 sky130_fd_sc_hd__edfxtp_1
* cell instance $937 r0 *1 35.42,59.84
X$937 5 45 193 171 167 12 12 5 sky130_fd_sc_hd__edfxtp_1
* cell instance $944 r0 *1 55.66,59.84
X$944 5 152 210 225 209 12 12 5 sky130_fd_sc_hd__dfrtp_1
* cell instance $947 r0 *1 67.62,59.84
X$947 5 211 52 182 181 12 12 5 sky130_fd_sc_hd__mux2_1
* cell instance $953 r0 *1 76.36,59.84
X$953 5 152 197 76 216 12 12 5 sky130_fd_sc_hd__dfrtp_1
* cell instance $954 r0 *1 85.56,59.84
X$954 5 216 8 197 181 12 12 5 sky130_fd_sc_hd__mux2_1
* cell instance $955 r0 *1 89.7,59.84
X$955 12 187 183 197 217 12 5 5 sky130_fd_sc_hd__nand3_1
* cell instance $956 r0 *1 91.54,59.84
X$956 12 187 212 217 12 173 5 5 sky130_fd_sc_hd__o21ai_0
* cell instance $958 r0 *1 94.3,59.84
X$958 12 125 195 178 234 12 5 5 sky130_fd_sc_hd__nand3_1
* cell instance $964 r0 *1 103.04,59.84
X$964 12 187 199 101 12 5 281 5 sky130_fd_sc_hd__o21bai_1
* cell instance $966 r0 *1 106.26,59.84
X$966 12 208 199 32 226 5 12 5 sky130_fd_sc_hd__nor3_1
* cell instance $968 r0 *1 109.94,59.84
X$968 12 224 201 188 219 5 12 5 sky130_fd_sc_hd__nor3_1
* cell instance $970 r0 *1 113.62,59.84
X$970 12 221 5 167 12 5 sky130_fd_sc_hd__buf_2
* cell instance $971 r0 *1 115.46,59.84
X$971 5 222 152 12 12 5 sky130_fd_sc_hd__buf_16
* cell instance $981 m0 *1 5.98,65.28
X$981 12 228 5 52 12 5 sky130_fd_sc_hd__buf_2
* cell instance $984 m0 *1 9.2,65.28
X$984 5 85 238 204 205 12 12 5 sky130_fd_sc_hd__edfxtp_1
* cell instance $987 m0 *1 21.62,65.28
X$987 5 54 244 204 205 12 12 5 sky130_fd_sc_hd__edfxtp_1
* cell instance $990 m0 *1 34.04,65.28
X$990 12 235 236 5 45 12 5 sky130_fd_sc_hd__and2_4
* cell instance $993 m0 *1 38.64,65.28
X$993 12 67 214 246 12 5 5 sky130_fd_sc_hd__nand2_1
* cell instance $996 m0 *1 41.4,65.28
X$996 12 214 67 245 12 5 5 sky130_fd_sc_hd__xnor2_1
* cell instance $1001 m0 *1 56.58,65.28
X$1001 12 123 5 41 12 5 sky130_fd_sc_hd__clkbuf_4
* cell instance $1007 m0 *1 66.7,65.28
X$1007 5 229 215 52 198 12 12 5 sky130_fd_sc_hd__mux2_1
* cell instance $1008 m0 *1 70.84,65.28
X$1008 5 152 215 237 229 12 12 5 sky130_fd_sc_hd__dfrtp_1
* cell instance $1012 m0 *1 85.1,65.28
X$1012 12 63 152 230 12 5 5 sky130_fd_sc_hd__nand2_1
* cell instance $1019 m0 *1 93.38,65.28
X$1019 12 230 253 234 5 12 218 5 sky130_fd_sc_hd__a21oi_1
* cell instance $1020 m0 *1 95.22,65.28
X$1020 5 227 231 218 12 12 5 sky130_fd_sc_hd__dfxtp_1
* cell instance $1021 m0 *1 102.58,65.28
X$1021 12 227 219 253 5 12 5 sky130_fd_sc_hd__nand2b_1
* cell instance $1025 m0 *1 111.32,65.28
X$1025 5 188 208 233 232 12 12 5 sky130_fd_sc_hd__nand3b_2
* cell instance $1027 m0 *1 115.92,65.28
X$1027 5 152 233 231 243 12 12 5 sky130_fd_sc_hd__dfrtp_1
* cell instance $1041 r0 *1 27.6,65.28
X$1041 5 67 247 207 244 238 223 61 12 12 5 sky130_fd_sc_hd__mux4_1
* cell instance $1042 r0 *1 37.26,65.28
X$1042 5 171 522 12 12 5 sky130_fd_sc_hd__clkbuf_16
* cell instance $1049 r0 *1 54.28,65.28
X$1049 12 230 262 250 5 12 5 sky130_fd_sc_hd__nor2_1
* cell instance $1050 r0 *1 55.66,65.28
X$1050 5 268 225 250 12 12 5 sky130_fd_sc_hd__dfxtp_1
* cell instance $1061 r0 *1 92.92,65.28
X$1061 12 208 5 187 12 5 sky130_fd_sc_hd__buf_2
* cell instance $1064 r0 *1 97.52,65.28
X$1064 12 169 254 195 239 5 12 5 sky130_fd_sc_hd__nor3_1
* cell instance $1065 r0 *1 99.36,65.28
X$1065 12 195 169 227 254 5 240 12 5 sky130_fd_sc_hd__nor4_1
* cell instance $1070 r0 *1 102.12,65.28
X$1070 12 239 227 251 183 187 252 5 12 5 sky130_fd_sc_hd__a32oi_1
* cell instance $1072 r0 *1 107.18,65.28
X$1072 5 249 236 201 188 12 12 5 sky130_fd_sc_hd__nor3_4
* cell instance $1073 r0 *1 113.16,65.28
X$1073 5 248 241 258 224 12 12 5 sky130_fd_sc_hd__nand3_2
* cell instance $1074 r0 *1 116.84,65.28
X$1074 12 233 201 243 5 12 5 sky130_fd_sc_hd__nor2_1
* cell instance $1077 r0 *1 120.98,65.28
X$1077 5 224 259 12 12 5 sky130_fd_sc_hd__dlymetal6s2s_1
* cell instance $1081 m0 *1 12.88,70.72
X$1081 5 45 277 204 255 12 12 5 sky130_fd_sc_hd__edfxtp_1
* cell instance $1082 m0 *1 23.92,70.72
X$1082 5 277 294 83 67 276 61 278 12 12 5 sky130_fd_sc_hd__mux4_2
* cell instance $1086 m0 *1 33.58,70.72
X$1086 12 246 61 12 260 5 5 sky130_fd_sc_hd__xor2_1
* cell instance $1087 m0 *1 36.8,70.72
X$1087 12 355 236 5 85 12 5 sky130_fd_sc_hd__and2_4
* cell instance $1089 m0 *1 40.48,70.72
X$1089 5 152 264 171 296 12 12 5 sky130_fd_sc_hd__dfrtp_1
* cell instance $1090 m0 *1 49.68,70.72
X$1090 12 264 5 61 12 5 sky130_fd_sc_hd__clkbuf_4
* cell instance $1091 m0 *1 52.44,70.72
X$1091 12 214 12 5 263 5 sky130_fd_sc_hd__inv_1
* cell instance $1092 m0 *1 53.82,70.72
X$1092 12 268 263 256 236 266 262 5 12 5 sky130_fd_sc_hd__a32oi_1
* cell instance $1097 m0 *1 60.72,70.72
X$1097 12 266 267 269 5 12 5 sky130_fd_sc_hd__nor2_1
* cell instance $1098 m0 *1 62.1,70.72
X$1098 5 152 257 225 283 12 12 5 sky130_fd_sc_hd__dfrtp_1
* cell instance $1103 m0 *1 78.2,70.72
X$1103 5 232 271 119 257 210 284 187 12 12 5 sky130_fd_sc_hd__mux4_1
* cell instance $1106 m0 *1 88.78,70.72
X$1106 12 232 5 183 12 5 sky130_fd_sc_hd__clkbuf_4
* cell instance $1109 m0 *1 96.14,70.72
X$1109 12 208 232 301 12 5 5 sky130_fd_sc_hd__nand2_1
* cell instance $1111 m0 *1 97.98,70.72
X$1111 12 208 232 254 5 12 5 sky130_fd_sc_hd__nand2b_1
* cell instance $1114 m0 *1 101.66,70.72
X$1114 12 187 183 282 272 5 12 5 sky130_fd_sc_hd__nor3_1
* cell instance $1115 m0 *1 103.5,70.72
X$1115 12 272 281 252 5 12 261 5 sky130_fd_sc_hd__a21oi_1
* cell instance $1116 m0 *1 105.34,70.72
X$1116 12 226 187 279 5 12 280 5 sky130_fd_sc_hd__a21oi_1
* cell instance $1118 m0 *1 107.64,70.72
X$1118 12 208 232 248 273 12 5 5 sky130_fd_sc_hd__or3_1
* cell instance $1120 m0 *1 110.4,70.72
X$1120 12 273 5 198 12 5 sky130_fd_sc_hd__clkbuf_4
* cell instance $1122 m0 *1 113.62,70.72
X$1122 12 224 12 5 249 5 sky130_fd_sc_hd__inv_1
* cell instance $1125 m0 *1 115.92,70.72
X$1125 5 5 258 201 241 12 12 sky130_fd_sc_hd__nand2_2
* cell instance $1127 m0 *1 118.68,70.72
X$1127 12 242 258 5 12 5 sky130_fd_sc_hd__clkbuf_1
* cell instance $1129 m0 *1 120.52,70.72
X$1129 12 233 275 5 12 5 sky130_fd_sc_hd__clkbuf_1
* cell instance $1130 m0 *1 121.9,70.72
X$1130 12 203 12 222 5 5 sky130_fd_sc_hd__dlygate4sd3_1
* cell instance $1132 r0 *1 5.52,70.72
X$1132 12 285 5 107 12 5 sky130_fd_sc_hd__buf_2
* cell instance $1134 r0 *1 7.82,70.72
X$1134 5 85 276 204 255 12 12 5 sky130_fd_sc_hd__edfxtp_1
* cell instance $1139 r0 *1 21.62,70.72
X$1139 12 204 512 12 5 5 sky130_fd_sc_hd__clkinv_2
* cell instance $1140 r0 *1 23.46,70.72
X$1140 5 71 204 12 12 5 sky130_fd_sc_hd__clkbuf_16
* cell instance $1143 r0 *1 34.04,70.72
X$1143 5 71 171 12 12 5 sky130_fd_sc_hd__clkbuf_16
* cell instance $1144 r0 *1 43.24,70.72
X$1144 12 297 61 256 12 5 5 sky130_fd_sc_hd__xnor2_1
* cell instance $1147 r0 *1 46.92,70.72
X$1147 12 287 12 5 67 5 sky130_fd_sc_hd__buf_4
* cell instance $1148 r0 *1 49.68,70.72
X$1148 5 214 225 265 12 12 5 sky130_fd_sc_hd__dfxtp_1
* cell instance $1149 r0 *1 57.04,70.72
X$1149 12 213 298 265 5 12 5 sky130_fd_sc_hd__nor2_1
* cell instance $1150 r0 *1 58.42,70.72
X$1150 5 268 213 266 267 12 12 5 sky130_fd_sc_hd__nor3_2
* cell instance $1152 r0 *1 63.02,70.72
X$1152 5 283 257 107 198 12 12 5 sky130_fd_sc_hd__mux2_1
* cell instance $1159 r0 *1 74.52,70.72
X$1159 5 320 154 270 181 12 12 5 sky130_fd_sc_hd__mux2_1
* cell instance $1160 r0 *1 78.66,70.72
X$1160 12 268 269 284 12 5 5 sky130_fd_sc_hd__and2_0
* cell instance $1162 r0 *1 81.42,70.72
X$1162 5 208 289 310 303 270 170 183 12 12 5 sky130_fd_sc_hd__mux4_1
* cell instance $1166 r0 *1 96.14,70.72
X$1166 5 248 181 301 12 12 5 sky130_fd_sc_hd__nor2_4
* cell instance $1168 r0 *1 100.28,70.72
X$1168 12 254 248 299 5 12 5 sky130_fd_sc_hd__nor2_1
* cell instance $1170 r0 *1 102.12,70.72
X$1170 5 290 208 183 351 280 240 12 12 5 sky130_fd_sc_hd__o32a_1
* cell instance $1171 r0 *1 105.8,70.72
X$1171 12 183 352 279 12 5 5 sky130_fd_sc_hd__nand2_1
* cell instance $1172 r0 *1 107.18,70.72
X$1172 5 295 231 271 12 12 5 sky130_fd_sc_hd__dfxtp_1
* cell instance $1175 r0 *1 115.92,70.72
X$1175 5 291 231 261 12 12 5 sky130_fd_sc_hd__dfxtp_1
* cell instance $1177 r0 *1 123.74,70.72
X$1177 12 274 241 5 12 5 sky130_fd_sc_hd__clkbuf_1
* cell instance $1191 m0 *1 19.78,76.16
X$1191 5 54 294 204 255 12 12 5 sky130_fd_sc_hd__edfxtp_1
* cell instance $1193 m0 *1 31.28,76.16
X$1193 12 305 12 5 306 5 sky130_fd_sc_hd__inv_1
* cell instance $1195 m0 *1 33.12,76.16
X$1195 5 515 235 306 286 12 12 5 sky130_fd_sc_hd__ha_1
* cell instance $1197 m0 *1 38.64,76.16
X$1197 12 149 260 296 5 12 5 sky130_fd_sc_hd__nor2_1
* cell instance $1198 m0 *1 40.02,76.16
X$1198 5 152 287 225 317 12 12 5 sky130_fd_sc_hd__dfrtp_1
* cell instance $1199 m0 *1 49.22,76.16
X$1199 12 264 286 12 267 5 5 sky130_fd_sc_hd__xor2_1
* cell instance $1202 m0 *1 55.2,76.16
X$1202 12 266 267 268 307 5 318 12 5 sky130_fd_sc_hd__nor4b_1
* cell instance $1203 m0 *1 58.42,76.16
X$1203 12 63 307 298 12 5 5 sky130_fd_sc_hd__nand2_1
* cell instance $1208 m0 *1 64.86,76.16
X$1208 12 309 215 288 333 12 5 5 sky130_fd_sc_hd__nand3_1
* cell instance $1209 m0 *1 66.7,76.16
X$1209 12 257 288 334 12 5 5 sky130_fd_sc_hd__nand2_1
* cell instance $1210 m0 *1 68.08,76.16
X$1210 12 215 12 5 321 5 sky130_fd_sc_hd__inv_1
* cell instance $1212 m0 *1 69.92,76.16
X$1212 5 152 270 237 320 12 12 5 sky130_fd_sc_hd__dfrtp_1
* cell instance $1214 m0 *1 79.58,76.16
X$1214 12 236 269 268 310 5 12 319 5 sky130_fd_sc_hd__a31oi_1
* cell instance $1216 m0 *1 82.34,76.16
X$1216 12 90 125 311 5 12 5 sky130_fd_sc_hd__nand2b_1
* cell instance $1219 m0 *1 86.02,76.16
X$1219 12 270 90 300 5 12 302 5 sky130_fd_sc_hd__a21oi_1
* cell instance $1221 m0 *1 88.32,76.16
X$1221 5 311 300 237 316 12 12 5 sky130_fd_sc_hd__edfxtp_1
* cell instance $1222 m0 *1 99.36,76.16
X$1222 5 152 327 231 315 12 12 5 sky130_fd_sc_hd__dfrtp_1
* cell instance $1228 m0 *1 115.92,76.16
X$1228 5 314 231 290 12 12 5 sky130_fd_sc_hd__dfxtp_1
* cell instance $1229 m0 *1 123.28,76.16
X$1229 12 291 292 5 12 5 sky130_fd_sc_hd__clkbuf_1
* cell instance $1233 r0 *1 7.36,76.16
X$1233 12 304 5 205 12 5 sky130_fd_sc_hd__buf_2
* cell instance $1240 r0 *1 19.32,76.16
X$1240 5 73 278 204 255 12 12 5 sky130_fd_sc_hd__edfxtp_1
* cell instance $1243 r0 *1 32.66,76.16
X$1243 12 286 12 5 329 5 sky130_fd_sc_hd__inv_1
* cell instance $1244 r0 *1 34.04,76.16
X$1244 5 297 330 306 329 12 12 5 sky130_fd_sc_hd__ha_1
* cell instance $1245 r0 *1 38.64,76.16
X$1245 12 330 236 5 54 12 5 sky130_fd_sc_hd__and2_4
* cell instance $1247 r0 *1 42.78,76.16
X$1247 12 149 245 317 5 12 5 sky130_fd_sc_hd__nor2_1
* cell instance $1253 r0 *1 47.84,76.16
X$1253 5 287 305 266 12 12 5 sky130_fd_sc_hd__xor2_2
* cell instance $1257 r0 *1 62.1,76.16
X$1257 12 42 322 332 12 344 5 5 sky130_fd_sc_hd__o21ai_0
* cell instance $1258 r0 *1 63.94,76.16
X$1258 12 323 308 257 5 12 322 5 sky130_fd_sc_hd__a21oi_1
* cell instance $1260 r0 *1 66.24,76.16
X$1260 5 324 333 334 213 12 12 5 sky130_fd_sc_hd__mux2i_1
* cell instance $1265 r0 *1 74.52,76.16
X$1265 5 310 237 325 12 12 5 sky130_fd_sc_hd__dfxtp_1
* cell instance $1266 r0 *1 81.88,76.16
X$1266 12 299 154 350 319 5 325 12 5 sky130_fd_sc_hd__a211oi_1
* cell instance $1267 r0 *1 84.64,76.16
X$1267 5 311 336 237 337 12 12 5 sky130_fd_sc_hd__edfxtp_1
* cell instance $1269 r0 *1 97.52,76.16
X$1269 5 315 167 327 181 12 12 5 sky130_fd_sc_hd__mux2_1
* cell instance $1276 r0 *1 110.86,76.16
X$1276 5 232 353 128 342 327 331 208 12 12 5 sky130_fd_sc_hd__mux4_1
* cell instance $1277 r0 *1 120.52,76.16
X$1277 12 295 293 5 12 5 sky130_fd_sc_hd__clkbuf_1
* cell instance $1279 r0 *1 122.36,76.16
X$1279 12 312 5 208 12 5 sky130_fd_sc_hd__buf_2
* cell instance $1280 r0 *1 124.2,76.16
X$1280 12 314 313 5 12 5 sky130_fd_sc_hd__clkbuf_1
* cell instance $1289 m0 *1 5.06,81.6
X$1289 12 338 5 255 12 5 sky130_fd_sc_hd__buf_2
* cell instance $1298 m0 *1 33.12,81.6
X$1298 5 516 343 305 329 12 12 5 sky130_fd_sc_hd__ha_1
* cell instance $1299 m0 *1 37.72,81.6
X$1299 12 343 236 5 73 12 5 sky130_fd_sc_hd__and2_4
* cell instance $1304 m0 *1 51.06,81.6
X$1304 5 71 225 12 12 5 sky130_fd_sc_hd__clkbuf_16
* cell instance $1306 m0 *1 60.72,81.6
X$1306 5 360 324 345 344 369 63 12 12 5 sky130_fd_sc_hd__o311a_1
* cell instance $1307 m0 *1 64.4,81.6
X$1307 12 308 339 323 5 12 5 sky130_fd_sc_hd__nor2_1
* cell instance $1308 m0 *1 65.78,81.6