
* cell bist_controller
* pin error_count[7]
* pin error_count[6]
* pin error_count[13]
* pin error_count[14]
* pin error_count[9]
* pin error_count[12]
* pin error_count[10]
* pin error_count[8]
* pin error_count[16]
* pin bist_pass
* pin error_count[15]
* pin error_count[17]
* pin error_count[11]
* pin error_count[19]
* pin rst_n
* pin mem_rdata[26]
* pin mem_rdata[15]
* pin error_count[18]
* pin error_count[29]
* pin mem_wdata[22]
* pin error_count[20]
* pin error_count[21]
* pin mem_rdata[24]
* pin mem_rdata[5]
* pin error_count[22]
* pin error_count[24]
* pin mem_rdata[29]
* pin mem_rdata[2]
* pin mem_rdata[11]
* pin error_count[23]
* pin mem_rdata[10]
* pin mem_rdata[21]
* pin error_count[5]
* pin mem_rdata[0]
* pin mem_rdata[27]
* pin error_count[25]
* pin error_count[2]
* pin error_count[0]
* pin mem_rdata[9]
* pin mem_rdata[12]
* pin error_count[27]
* pin error_count[26]
* pin error_count[31]
* pin error_count[1]
* pin error_count[30]
* pin error_count[4]
* pin mem_rdata[8]
* pin mem_rdata[3]
* pin error_count[3]
* pin error_count[28]
* pin bist_done
* pin mem_rdata[6]
* pin mem_rdata[14]
* pin error_addr[0]
* pin error_addr[4]
* pin mem_rdata[13]
* pin mem_wdata[17]
* pin mem_rdata[7]
* pin clk
* pin error_addr[2]
* pin mem_wdata[18]
* pin error_addr[3]
* pin mem_wdata[14]
* pin mem_wdata[19]
* pin mem_rdata[1]
* pin mem_wdata[0]
* pin error_addr[1]
* pin mem_wdata[10]
* pin mem_rdata[4]
* pin mem_wdata[20]
* pin mem_rdata[23]
* pin mem_addr[4]
* pin mem_rdata[17]
* pin mem_wdata[23]
* pin mem_rdata[20]
* pin mem_rdata[22]
* pin mem_rdata[28]
* pin mem_rdata[31]
* pin mem_addr[0]
* pin mem_rdata[25]
* pin mem_rdata[30]
* pin mem_wdata[13]
* pin mem_wdata[15]
* pin mem_wdata[27]
* pin mem_wdata[16]
* pin mem_wdata[11]
* pin mem_addr[2]
* pin mem_addr[1]
* pin mem_rdata[16]
* pin mem_wdata[26]
* pin mem_wdata[29]
* pin mem_wdata[21]
* pin mem_wdata[24]
* pin mem_wdata[4]
* pin mem_wdata[6]
* pin mem_wdata[30]
* pin mem_wdata[8]
* pin mem_wdata[28]
* pin mem_wdata[1]
* pin mem_wdata[5]
* pin mem_wdata[3]
* pin mem_rdata[18]
* pin mem_wdata[9]
* pin mem_wdata[2]
* pin mem_addr[3]
* pin mem_enable
* pin bist_start
* pin mem_write
* pin mem_wdata[25]
* pin mem_wdata[12]
* pin mem_wdata[31]
* pin mem_wdata[7]
* pin mem_rdata[19]
.SUBCKT bist_controller 1 2 3 4 5 6 7 8 9 10 11 12 13 14 15 16 17 19 35 37 48
+ 60 84 85 99 112 126 127 141 155 171 172 184 192 193 199 205 206 213 214 218
+ 225 232 233 250 256 261 269 272 278 296 302 303 309 310 317 318 331 334 337
+ 341 346 349 350 358 366 372 380 381 392 405 413 423 424 440 441 470 471 481
+ 484 501 512 513 515 534 535 545 546 550 551 559 562 564 565 567 570 572 574
+ 575 576 577 586 587 588 589 590 591 592 593 594 595 596 597
* net 1 error_count[7]
* net 2 error_count[6]
* net 3 error_count[13]
* net 4 error_count[14]
* net 5 error_count[9]
* net 6 error_count[12]
* net 7 error_count[10]
* net 8 error_count[8]
* net 9 error_count[16]
* net 10 bist_pass
* net 11 error_count[15]
* net 12 error_count[17]
* net 13 error_count[11]
* net 14 error_count[19]
* net 15 rst_n
* net 16 mem_rdata[26]
* net 17 mem_rdata[15]
* net 19 error_count[18]
* net 35 error_count[29]
* net 37 mem_wdata[22]
* net 48 error_count[20]
* net 60 error_count[21]
* net 84 mem_rdata[24]
* net 85 mem_rdata[5]
* net 99 error_count[22]
* net 112 error_count[24]
* net 126 mem_rdata[29]
* net 127 mem_rdata[2]
* net 141 mem_rdata[11]
* net 155 error_count[23]
* net 171 mem_rdata[10]
* net 172 mem_rdata[21]
* net 184 error_count[5]
* net 192 mem_rdata[0]
* net 193 mem_rdata[27]
* net 199 error_count[25]
* net 205 error_count[2]
* net 206 error_count[0]
* net 213 mem_rdata[9]
* net 214 mem_rdata[12]
* net 218 error_count[27]
* net 225 error_count[26]
* net 232 error_count[31]
* net 233 error_count[1]
* net 250 error_count[30]
* net 256 error_count[4]
* net 261 mem_rdata[8]
* net 269 mem_rdata[3]
* net 272 error_count[3]
* net 278 error_count[28]
* net 296 bist_done
* net 302 mem_rdata[6]
* net 303 mem_rdata[14]
* net 309 error_addr[0]
* net 310 error_addr[4]
* net 317 mem_rdata[13]
* net 318 mem_wdata[17]
* net 331 mem_rdata[7]
* net 334 clk
* net 337 error_addr[2]
* net 341 mem_wdata[18]
* net 346 error_addr[3]
* net 349 mem_wdata[14]
* net 350 mem_wdata[19]
* net 358 mem_rdata[1]
* net 366 mem_wdata[0]
* net 372 error_addr[1]
* net 380 mem_wdata[10]
* net 381 mem_rdata[4]
* net 392 mem_wdata[20]
* net 405 mem_rdata[23]
* net 413 mem_addr[4]
* net 423 mem_rdata[17]
* net 424 mem_wdata[23]
* net 440 mem_rdata[20]
* net 441 mem_rdata[22]
* net 470 mem_rdata[28]
* net 471 mem_rdata[31]
* net 481 mem_addr[0]
* net 484 mem_rdata[25]
* net 501 mem_rdata[30]
* net 512 mem_wdata[13]
* net 513 mem_wdata[15]
* net 515 mem_wdata[27]
* net 534 mem_wdata[16]
* net 535 mem_wdata[11]
* net 545 mem_addr[2]
* net 546 mem_addr[1]
* net 550 mem_rdata[16]
* net 551 mem_wdata[26]
* net 559 mem_wdata[29]
* net 562 mem_wdata[21]
* net 564 mem_wdata[24]
* net 565 mem_wdata[4]
* net 567 mem_wdata[6]
* net 570 mem_wdata[30]
* net 572 mem_wdata[8]
* net 574 mem_wdata[28]
* net 575 mem_wdata[1]
* net 576 mem_wdata[5]
* net 577 mem_wdata[3]
* net 586 mem_rdata[18]
* net 587 mem_wdata[9]
* net 588 mem_wdata[2]
* net 589 mem_addr[3]
* net 590 mem_enable
* net 591 bist_start
* net 592 mem_write
* net 593 mem_wdata[25]
* net 594 mem_wdata[12]
* net 595 mem_wdata[31]
* net 596 mem_wdata[7]
* net 597 mem_rdata[19]
* cell instance $3 m0 *1 16.56,8.16
X$3 49 58 1 20 49 20 sky130_fd_sc_hd__clkbuf_1
* cell instance $5 m0 *1 18.4,8.16
X$5 49 59 2 20 49 20 sky130_fd_sc_hd__clkbuf_1
* cell instance $9 r0 *1 24.84,2.72
X$9 49 22 3 20 49 20 sky130_fd_sc_hd__clkbuf_1
* cell instance $12 r0 *1 26.22,2.72
X$12 49 30 4 20 49 20 sky130_fd_sc_hd__clkbuf_1
* cell instance $14 r0 *1 29.44,2.72
X$14 49 39 5 20 49 20 sky130_fd_sc_hd__clkbuf_1
* cell instance $18 r0 *1 34.5,2.72
X$18 49 55 6 20 49 20 sky130_fd_sc_hd__clkbuf_1
* cell instance $21 m0 *1 31.74,8.16
X$21 49 79 7 20 49 20 sky130_fd_sc_hd__clkbuf_1
* cell instance $26 r0 *1 30.82,2.72
X$26 49 31 8 20 49 20 sky130_fd_sc_hd__clkbuf_1
* cell instance $31 r0 *1 32.2,2.72
X$31 49 23 9 20 49 20 sky130_fd_sc_hd__clkbuf_1
* cell instance $34 r0 *1 40.48,2.72
X$34 49 43 10 20 49 20 sky130_fd_sc_hd__clkbuf_1
* cell instance $37 r0 *1 44.62,2.72
X$37 49 24 11 20 49 20 sky130_fd_sc_hd__clkbuf_1
* cell instance $41 r0 *1 46,2.72
X$41 49 76 12 20 49 20 sky130_fd_sc_hd__clkbuf_1
* cell instance $44 r0 *1 43.24,2.72
X$44 49 33 13 20 49 20 sky130_fd_sc_hd__clkbuf_1
* cell instance $48 r0 *1 51.98,2.72
X$48 49 40 14 20 49 20 sky130_fd_sc_hd__clkbuf_1
* cell instance $50 r0 *1 74.06,8.16
X$50 49 15 49 72 20 20 sky130_fd_sc_hd__dlygate4sd3_1
* cell instance $55 r0 *1 67.62,2.72
X$55 49 16 21 20 49 20 sky130_fd_sc_hd__clkbuf_1
* cell instance $59 r0 *1 69,2.72
X$59 49 17 26 20 49 20 sky130_fd_sc_hd__clkbuf_1
* cell instance $60 m0 *1 17.48,78.88
X$60 20 18 368 297 552 49 49 20 sky130_fd_sc_hd__dfrtp_4
* cell instance $64 m0 *1 33.58,78.88
X$64 20 18 548 321 554 49 49 20 sky130_fd_sc_hd__dfrtp_1
* cell instance $65 m0 *1 44.62,8.16
X$65 20 18 40 46 113 49 49 20 sky130_fd_sc_hd__dfrtp_1
* cell instance $66 m0 *1 68.54,24.48
X$66 20 18 170 46 169 49 49 20 sky130_fd_sc_hd__dfrtp_1
* cell instance $67 m0 *1 8.28,78.88
X$67 20 18 571 297 536 49 49 20 sky130_fd_sc_hd__dfrtp_1
* cell instance $68 r0 *1 22.54,40.8
X$68 20 18 312 321 332 49 49 20 sky130_fd_sc_hd__dfrtp_1
* cell instance $69 r0 *1 30.36,46.24
X$69 20 18 339 297 351 49 49 20 sky130_fd_sc_hd__dfrtp_1
* cell instance $70 r0 *1 15.64,46.24
X$70 20 18 338 297 343 49 49 20 sky130_fd_sc_hd__dfrtp_1
* cell instance $71 r0 *1 43.24,46.24
X$71 20 18 353 321 345 49 49 20 sky130_fd_sc_hd__dfrtp_1
* cell instance $72 m0 *1 11.5,57.12
X$72 20 18 320 297 393 49 49 20 sky130_fd_sc_hd__dfrtp_2
* cell instance $73 m0 *1 11.04,46.24
X$73 20 18 201 297 304 49 49 20 sky130_fd_sc_hd__dfrtp_2
* cell instance $74 m0 *1 65.78,19.04
X$74 20 18 73 46 157 49 49 20 sky130_fd_sc_hd__dfrtp_2
* cell instance $75 m0 *1 29.44,40.8
X$75 20 18 228 297 290 49 49 20 sky130_fd_sc_hd__dfrtp_2
* cell instance $76 m0 *1 61.64,8.16
X$76 20 18 34 46 52 49 49 20 sky130_fd_sc_hd__dfrtp_2
* cell instance $77 r0 *1 23,19.04
X$77 20 18 39 29 180 49 49 20 sky130_fd_sc_hd__dfrtp_2
* cell instance $78 r0 *1 57.04,46.24
X$78 20 18 231 321 344 49 49 20 sky130_fd_sc_hd__dfrtp_2
* cell instance $79 r0 *1 43.24,24.48
X$79 20 18 24 46 204 49 49 20 sky130_fd_sc_hd__dfrtp_2
* cell instance $80 r0 *1 1.38,73.44
X$80 20 18 425 297 524 49 49 20 sky130_fd_sc_hd__dfrtp_2
* cell instance $82 r0 *1 19.78,51.68
X$82 20 18 382 297 408 49 49 20 sky130_fd_sc_hd__dfrtp_2
* cell instance $86 r0 *1 47.38,29.92
X$86 20 18 244 46 271 49 49 20 sky130_fd_sc_hd__dfrtp_1
* cell instance $88 r0 *1 1.84,46.24
X$88 20 18 325 297 342 49 49 20 sky130_fd_sc_hd__dfrtp_1
* cell instance $91 m0 *1 4.6,51.68
X$91 20 18 362 297 367 49 49 20 sky130_fd_sc_hd__dfrtp_1
* cell instance $94 r0 *1 1.38,57.12
X$94 20 18 388 297 399 49 49 20 sky130_fd_sc_hd__dfrtp_1
* cell instance $98 m0 *1 35.42,35.36
X$98 20 18 43 29 268 49 49 20 sky130_fd_sc_hd__dfrtp_1
* cell instance $100 r0 *1 20.24,29.92
X$100 20 18 221 29 222 49 49 20 sky130_fd_sc_hd__dfrtp_2
* cell instance $103 m0 *1 17.94,40.8
X$103 20 18 208 297 288 49 49 20 sky130_fd_sc_hd__dfrtp_2
* cell instance $105 r0 *1 50.14,8.16
X$105 20 18 76 46 92 49 49 20 sky130_fd_sc_hd__dfrtp_2
* cell instance $109 r0 *1 70.84,29.92
X$109 20 18 211 46 234 49 49 20 sky130_fd_sc_hd__dfrtp_1
* cell instance $111 m0 *1 70.84,29.92
X$111 20 18 197 46 212 49 49 20 sky130_fd_sc_hd__dfrtp_1
* cell instance $116 m0 *1 63.94,46.24
X$116 20 18 198 321 324 49 49 20 sky130_fd_sc_hd__dfrtp_2
* cell instance $119 m0 *1 44.62,51.68
X$119 20 18 390 321 359 49 49 20 sky130_fd_sc_hd__dfrtp_1
* cell instance $122 r0 *1 47.84,40.8
X$122 20 18 70 46 323 49 49 20 sky130_fd_sc_hd__dfrtp_4
* cell instance $125 r0 *1 47.84,51.68
X$125 20 18 384 321 385 49 49 20 sky130_fd_sc_hd__dfrtp_2
* cell instance $132 m0 *1 1.84,19.04
X$132 20 18 59 29 143 49 49 20 sky130_fd_sc_hd__dfrtp_1
* cell instance $134 r0 *1 5.52,2.72
X$134 20 18 22 29 61 49 49 20 sky130_fd_sc_hd__dfrtp_2
* cell instance $137 m0 *1 66.7,40.8
X$137 20 18 242 46 307 49 49 20 sky130_fd_sc_hd__dfrtp_1
* cell instance $140 r0 *1 71.3,13.6
X$140 20 18 74 46 124 49 49 20 sky130_fd_sc_hd__dfrtp_2
* cell instance $144 r0 *1 60.72,68
X$144 20 18 394 321 505 49 49 20 sky130_fd_sc_hd__dfrtp_2
* cell instance $146 m0 *1 1.38,13.6
X$146 20 18 58 29 93 49 49 20 sky130_fd_sc_hd__dfrtp_2
* cell instance $150 m0 *1 69.92,13.6
X$150 20 18 83 46 98 49 49 20 sky130_fd_sc_hd__dfrtp_2
* cell instance $152 m0 *1 35.42,8.16
X$152 20 18 23 29 42 49 49 20 sky130_fd_sc_hd__dfrtp_1
* cell instance $160 r0 *1 70.84,2.72
X$160 20 18 36 46 27 49 49 20 sky130_fd_sc_hd__dfrtp_1
* cell instance $163 r0 *1 15.64,2.72
X$163 20 18 30 29 75 49 49 20 sky130_fd_sc_hd__dfrtp_1
* cell instance $165 m0 *1 19.78,8.16
X$165 20 18 31 29 62 49 49 20 sky130_fd_sc_hd__dfrtp_1
* cell instance $167 r0 *1 24.38,8.16
X$167 20 18 79 29 91 49 49 20 sky130_fd_sc_hd__dfrtp_2
* cell instance $172 m0 *1 1.38,35.36
X$172 20 18 245 29 237 49 49 20 sky130_fd_sc_hd__dfrtp_1
* cell instance $175 r0 *1 1.38,24.48
X$175 20 18 147 29 215 49 49 20 sky130_fd_sc_hd__dfrtp_4
* cell instance $178 m0 *1 33.12,29.92
X$178 20 18 33 29 220 49 49 20 sky130_fd_sc_hd__dfrtp_1
* cell instance $180 m0 *1 34.96,24.48
X$180 20 18 55 29 182 49 49 20 sky130_fd_sc_hd__dfrtp_1
* cell instance $182 r0 *1 49.22,73.44
X$182 20 18 438 321 558 49 49 20 sky130_fd_sc_hd__dfrtp_4
* cell instance $184 m0 *1 1.84,40.8
X$184 20 18 311 297 319 49 49 20 sky130_fd_sc_hd__dfrtp_1
* cell instance $186 m0 *1 71.76,8.16
X$186 20 72 18 49 49 20 sky130_fd_sc_hd__buf_16
* cell instance $191 r0 *1 66.24,2.72
X$191 49 34 19 20 49 20 sky130_fd_sc_hd__clkbuf_1
* cell instance $209 r0 *1 35.88,2.72
X$209 49 23 47 56 32 49 20 42 20 sky130_fd_sc_hd__o31ai_1
* cell instance $210 r0 *1 38.64,2.72
X$210 49 25 45 23 49 32 20 20 sky130_fd_sc_hd__o21ai_0
* cell instance $215 r0 *1 47.84,2.72
X$215 49 24 23 28 49 20 20 sky130_fd_sc_hd__and2_0
* cell instance $216 r0 *1 50.14,2.72
X$216 49 28 49 20 41 20 sky130_fd_sc_hd__clkbuf_2
* cell instance $223 r0 *1 59.8,2.72
X$223 49 25 38 34 49 53 20 20 sky130_fd_sc_hd__o21ai_0
* cell instance $227 r0 *1 64.86,2.72
X$227 49 51 37 20 49 20 sky130_fd_sc_hd__clkbuf_1
* cell instance $230 r0 *1 80.04,2.72
X$230 49 85 50 20 49 20 sky130_fd_sc_hd__clkbuf_1
* cell instance $241 m0 *1 12.42,8.16
X$241 49 22 47 44 57 49 20 61 20 sky130_fd_sc_hd__o31ai_1
* cell instance $248 m0 *1 33.12,8.16
X$248 49 22 30 64 49 20 20 sky130_fd_sc_hd__and2_0
* cell instance $252 m0 *1 57.04,8.16
X$252 49 76 41 63 54 49 20 20 sky130_fd_sc_hd__nand3_1
* cell instance $253 m0 *1 58.88,8.16
X$253 49 34 47 54 53 49 20 52 20 sky130_fd_sc_hd__o31ai_1
* cell instance $259 r0 *1 11.5,8.16
X$259 49 58 71 65 44 49 20 20 sky130_fd_sc_hd__nand3_1
* cell instance $260 r0 *1 13.34,8.16
X$260 49 25 86 22 49 57 20 20 sky130_fd_sc_hd__o21ai_0
* cell instance $263 r0 *1 15.64,8.16
X$263 49 22 101 65 87 49 20 20 sky130_fd_sc_hd__nand3_1
* cell instance $264 r0 *1 17.48,8.16
X$264 49 30 47 87 66 49 20 75 20 sky130_fd_sc_hd__o31ai_1
* cell instance $265 r0 *1 20.24,8.16
X$265 49 25 88 30 49 66 20 20 sky130_fd_sc_hd__o21ai_0
* cell instance $268 r0 *1 34.04,8.16
X$268 49 23 30 79 24 20 145 49 20 sky130_fd_sc_hd__nor4_1
* cell instance $269 r0 *1 36.34,8.16
X$269 49 67 55 24 64 49 56 20 20 sky130_fd_sc_hd__nand4_1
* cell instance $271 r0 *1 39.56,8.16
X$271 20 45 67 24 69 64 55 49 49 20 sky130_fd_sc_hd__a41oi_1
* cell instance $278 r0 *1 59.8,8.16
X$278 49 63 41 76 69 20 49 38 20 sky130_fd_sc_hd__a31oi_1
* cell instance $279 r0 *1 62.1,8.16
X$279 49 41 63 68 90 49 20 20 sky130_fd_sc_hd__nand3_1
* cell instance $281 r0 *1 64.4,8.16
X$281 49 36 81 90 89 49 20 27 20 sky130_fd_sc_hd__o31ai_1
* cell instance $287 r0 *1 70.84,8.16
X$287 49 74 99 20 49 20 sky130_fd_sc_hd__clkbuf_1
* cell instance $288 r0 *1 72.22,8.16
X$288 49 70 35 20 49 20 sky130_fd_sc_hd__clkbuf_1
* cell instance $290 r0 *1 77.74,8.16
X$290 49 73 112 20 49 20 sky130_fd_sc_hd__clkbuf_1
* cell instance $291 r0 *1 79.12,8.16
X$291 49 83 60 20 49 20 sky130_fd_sc_hd__clkbuf_1
* cell instance $292 r0 *1 80.5,8.16
X$292 49 36 48 20 49 20 sky130_fd_sc_hd__clkbuf_1
* cell instance $300 m0 *1 11.5,13.6
X$300 49 65 71 58 77 20 49 86 20 sky130_fd_sc_hd__a31oi_1
* cell instance $301 m0 *1 13.8,13.6
X$301 49 77 71 100 20 49 20 sky130_fd_sc_hd__nor2_1
* cell instance $303 m0 *1 18.86,13.6
X$303 49 65 101 22 77 20 49 88 20 sky130_fd_sc_hd__a31oi_1
* cell instance $308 m0 *1 29.44,13.6
X$308 49 31 49 20 94 20 sky130_fd_sc_hd__clkbuf_2
* cell instance $311 m0 *1 32.66,13.6
X$311 49 95 78 65 20 49 20 sky130_fd_sc_hd__nor2_1
* cell instance $312 m0 *1 34.04,13.6
X$312 49 79 33 55 78 49 20 20 sky130_fd_sc_hd__nand3_1
* cell instance $313 m0 *1 35.88,13.6
X$313 49 95 78 64 104 49 20 20 sky130_fd_sc_hd__or3b_1
* cell instance $318 m0 *1 47.84,13.6
X$318 49 76 47 105 96 49 20 92 20 sky130_fd_sc_hd__o31ai_1
* cell instance $319 m0 *1 50.6,13.6
X$319 49 25 134 76 49 96 20 20 sky130_fd_sc_hd__o21ai_0
* cell instance $320 m0 *1 52.44,13.6
X$320 20 23 106 24 36 49 49 20 sky130_fd_sc_hd__and3_1
* cell instance $321 m0 *1 54.74,13.6
X$321 49 40 36 83 80 20 49 20 sky130_fd_sc_hd__nor3_1
* cell instance $323 m0 *1 57.04,13.6
X$323 49 68 106 123 49 20 20 sky130_fd_sc_hd__and2_0
* cell instance $324 m0 *1 59.34,13.6
X$324 49 83 81 97 131 49 20 98 20 sky130_fd_sc_hd__o31ai_1
* cell instance $325 m0 *1 62.1,13.6
X$325 49 68 63 41 69 20 49 82 20 sky130_fd_sc_hd__a31oi_1
* cell instance $327 m0 *1 64.86,13.6
X$327 49 25 82 36 49 89 20 20 sky130_fd_sc_hd__o21ai_0
* cell instance $329 m0 *1 67.16,13.6
X$329 49 25 103 74 49 102 20 20 sky130_fd_sc_hd__o21ai_0
* cell instance $331 m0 *1 79.58,13.6
X$331 49 84 142 20 49 20 sky130_fd_sc_hd__clkbuf_1
* cell instance $337 r0 *1 10.12,13.6
X$337 49 163 71 128 49 20 20 sky130_fd_sc_hd__nand2_1
* cell instance $338 r0 *1 11.5,13.6
X$338 49 47 128 115 49 93 20 20 sky130_fd_sc_hd__o21ai_0
* cell instance $339 r0 *1 13.34,13.6
X$339 49 114 100 58 49 115 20 20 sky130_fd_sc_hd__o21ai_0
* cell instance $345 r0 *1 18.86,13.6
X$345 49 94 107 116 129 49 20 62 20 sky130_fd_sc_hd__o31ai_1
* cell instance $347 r0 *1 22.08,13.6
X$347 49 39 58 59 94 20 130 49 20 sky130_fd_sc_hd__nor4_1
* cell instance $348 r0 *1 24.38,13.6
X$348 49 101 39 94 77 20 49 119 20 sky130_fd_sc_hd__a31oi_1
* cell instance $349 r0 *1 26.68,13.6
X$349 49 118 119 79 49 108 20 20 sky130_fd_sc_hd__o21ai_0
* cell instance $350 r0 *1 28.52,13.6
X$350 20 91 108 95 116 107 79 49 49 20 sky130_fd_sc_hd__o41ai_1
* cell instance $351 r0 *1 31.74,13.6
X$351 49 94 39 95 49 20 20 sky130_fd_sc_hd__nand2_1
* cell instance $352 r0 *1 33.12,13.6
X$352 49 76 55 33 22 20 146 49 20 sky130_fd_sc_hd__nor4_1
* cell instance $354 r0 *1 36.34,13.6
X$354 49 79 33 120 49 20 20 sky130_fd_sc_hd__nand2_1
* cell instance $356 r0 *1 38.18,13.6
X$356 49 116 95 120 67 20 49 20 sky130_fd_sc_hd__nor3_1
* cell instance $358 r0 *1 40.48,13.6
X$358 49 104 20 132 49 20 sky130_fd_sc_hd__buf_2
* cell instance $363 r0 *1 45.08,13.6
X$363 49 118 121 40 49 109 20 20 sky130_fd_sc_hd__o21ai_0
* cell instance $364 r0 *1 46.92,13.6
X$364 20 113 109 110 105 107 40 49 49 20 sky130_fd_sc_hd__o41ai_1
* cell instance $365 r0 *1 50.14,13.6
X$365 49 76 34 110 49 20 20 sky130_fd_sc_hd__nand2_1
* cell instance $366 r0 *1 51.52,13.6
X$366 20 121 139 34 69 41 76 49 49 20 sky130_fd_sc_hd__a41oi_1
* cell instance $367 r0 *1 54.74,13.6
X$367 20 34 68 76 40 49 49 20 sky130_fd_sc_hd__and3_1
* cell instance $368 r0 *1 57.04,13.6
X$368 20 106 83 68 74 49 133 49 20 sky130_fd_sc_hd__nand4_4
* cell instance $369 r0 *1 64.86,13.6
X$369 49 83 63 123 111 49 20 20 sky130_fd_sc_hd__nand3_1
* cell instance $371 r0 *1 67.62,13.6
X$371 49 74 81 111 102 49 20 124 20 sky130_fd_sc_hd__o31ai_1
* cell instance $383 m0 *1 11.04,19.04
X$383 20 143 135 148 144 107 59 49 49 20 sky130_fd_sc_hd__o41ai_1
* cell instance $384 m0 *1 14.26,19.04
X$384 49 25 149 59 49 135 20 20 sky130_fd_sc_hd__o21ai_0
* cell instance $386 m0 *1 17.02,19.04
X$386 49 59 58 166 49 20 20 sky130_fd_sc_hd__and2_0
* cell instance $387 m0 *1 19.32,19.04
X$387 49 136 101 137 20 49 20 sky130_fd_sc_hd__nor2_1
* cell instance $388 m0 *1 20.7,19.04
X$388 49 138 137 94 49 129 20 20 sky130_fd_sc_hd__o21ai_0
* cell instance $389 m0 *1 22.54,19.04
X$389 49 71 94 58 69 20 49 117 20 sky130_fd_sc_hd__a31oi_1
* cell instance $390 m0 *1 24.84,19.04
X$390 49 138 117 39 49 158 20 20 sky130_fd_sc_hd__o21ai_0
* cell instance $395 m0 *1 30.36,19.04
X$395 49 94 39 79 159 49 20 20 sky130_fd_sc_hd__nand3_1
* cell instance $397 m0 *1 33.12,19.04
X$397 49 145 130 203 146 49 160 20 20 sky130_fd_sc_hd__nand4_1
* cell instance $399 m0 *1 36.34,19.04
X$399 49 67 55 161 20 49 20 sky130_fd_sc_hd__nand2b_1
* cell instance $400 m0 *1 38.64,19.04
X$400 49 77 67 181 20 49 20 sky130_fd_sc_hd__nor2_1
* cell instance $405 m0 *1 48.76,19.04
X$405 49 139 41 105 49 20 20 sky130_fd_sc_hd__nand2_1
* cell instance $406 m0 *1 50.14,19.04
X$406 49 136 139 41 20 49 134 20 sky130_fd_sc_hd__a21oi_1
* cell instance $407 m0 *1 51.98,19.04
X$407 20 20 63 49 116 132 49 sky130_fd_sc_hd__nor2_2
* cell instance $408 m0 *1 54.28,19.04
X$408 49 136 139 123 20 49 122 20 sky130_fd_sc_hd__a21oi_1
* cell instance $412 m0 *1 57.5,19.04
X$412 49 139 123 97 49 20 20 sky130_fd_sc_hd__nand2_1
* cell instance $414 m0 *1 59.34,19.04
X$414 49 25 122 83 49 131 20 20 sky130_fd_sc_hd__o21ai_0
* cell instance $416 m0 *1 63.02,19.04
X$416 49 123 63 83 69 20 49 103 20 sky130_fd_sc_hd__a31oi_1
* cell instance $418 m0 *1 75.44,19.04
X$418 49 140 154 142 21 20 156 49 20 sky130_fd_sc_hd__nor4_1
* cell instance $419 m0 *1 77.74,19.04
X$419 49 127 125 20 49 20 sky130_fd_sc_hd__clkbuf_1
* cell instance $420 m0 *1 79.12,19.04
X$420 49 170 155 20 49 20 sky130_fd_sc_hd__clkbuf_1
* cell instance $421 m0 *1 80.5,19.04
X$421 49 126 140 20 49 20 sky130_fd_sc_hd__clkbuf_1
* cell instance $424 r0 *1 8.74,19.04
X$424 49 147 59 174 49 20 20 sky130_fd_sc_hd__nand2_1
* cell instance $425 r0 *1 10.12,19.04
X$425 49 58 49 20 163 20 sky130_fd_sc_hd__inv_1
* cell instance $426 r0 *1 11.5,19.04
X$426 49 164 147 148 49 20 20 sky130_fd_sc_hd__nand2_1
* cell instance $427 r0 *1 12.88,19.04
X$427 49 165 147 164 77 20 49 149 20 sky130_fd_sc_hd__a31oi_1
* cell instance $430 r0 *1 15.64,19.04
X$430 20 101 144 148 166 49 49 20 sky130_fd_sc_hd__nor3b_2
* cell instance $432 r0 *1 20.7,19.04
X$432 49 58 94 71 178 49 20 20 sky130_fd_sc_hd__nand3_1
* cell instance $436 r0 *1 36.8,19.04
X$436 49 47 161 150 49 182 20 20 sky130_fd_sc_hd__o21ai_0
* cell instance $437 r0 *1 38.64,19.04
X$437 49 138 181 55 49 150 20 20 sky130_fd_sc_hd__o21ai_0
* cell instance $443 r0 *1 44.16,19.04
X$443 49 118 151 24 49 183 20 20 sky130_fd_sc_hd__o21ai_0
* cell instance $445 r0 *1 46.46,19.04
X$445 49 136 139 151 20 49 20 sky130_fd_sc_hd__nor2_1
* cell instance $447 r0 *1 48.3,19.04
X$447 20 20 139 49 152 132 49 sky130_fd_sc_hd__nor2_2
* cell instance $448 r0 *1 50.6,19.04
X$448 20 152 179 132 133 49 49 20 sky130_fd_sc_hd__nor3_4
* cell instance $452 r0 *1 59.8,19.04
X$452 49 114 20 25 49 20 sky130_fd_sc_hd__buf_2
* cell instance $456 r0 *1 64.86,19.04
X$456 49 25 177 73 49 153 20 20 sky130_fd_sc_hd__o21ai_0
* cell instance $457 r0 *1 66.7,19.04
X$457 49 73 81 176 153 49 20 157 20 sky130_fd_sc_hd__o31ai_1
* cell instance $462 r0 *1 74.52,19.04
X$462 49 172 455 20 49 20 sky130_fd_sc_hd__clkbuf_1
* cell instance $463 r0 *1 75.9,19.04
X$463 49 21 142 154 140 49 175 20 20 sky130_fd_sc_hd__nand4_1
* cell instance $464 r0 *1 78.2,19.04
X$464 49 193 154 20 49 20 sky130_fd_sc_hd__clkbuf_1
* cell instance $466 r0 *1 80.04,19.04
X$466 49 171 173 20 49 20 sky130_fd_sc_hd__clkbuf_1
* cell instance $476 m0 *1 2.76,24.48
X$476 49 147 184 20 49 20 sky130_fd_sc_hd__clkbuf_1
* cell instance $479 m0 *1 8.28,24.48
X$479 20 162 71 185 174 49 49 20 sky130_fd_sc_hd__nor3_2
* cell instance $480 m0 *1 11.96,24.48
X$480 49 163 162 185 174 186 49 20 20 sky130_fd_sc_hd__or4_1
* cell instance $481 m0 *1 14.72,24.48
X$481 20 166 164 165 147 49 116 49 20 sky130_fd_sc_hd__nand4_4
* cell instance $482 m0 *1 22.54,24.48
X$482 49 39 107 178 158 49 20 180 20 sky130_fd_sc_hd__o31ai_1
* cell instance $483 m0 *1 25.3,24.48
X$483 49 186 49 20 152 20 sky130_fd_sc_hd__clkbuf_2
* cell instance $486 m0 *1 29.44,24.48
X$486 49 152 159 187 20 49 20 sky130_fd_sc_hd__nor2_1
* cell instance $487 m0 *1 30.82,24.48
X$487 49 118 167 33 49 202 20 20 sky130_fd_sc_hd__o21ai_0
* cell instance $488 m0 *1 32.66,24.48
X$488 49 136 187 167 20 49 20 sky130_fd_sc_hd__nor2_1
* cell instance $490 m0 *1 44.16,24.48
X$490 20 204 183 132 152 107 24 49 49 20 sky130_fd_sc_hd__o41ai_1
* cell instance $493 m0 *1 48.76,24.48
X$493 49 46 601 20 49 20 sky130_fd_sc_hd__clkbuf_1
* cell instance $495 m0 *1 50.6,24.48
X$495 20 116 191 132 133 49 49 20 sky130_fd_sc_hd__nor3_4
* cell instance $497 m0 *1 57.04,24.48
X$497 49 77 179 188 20 49 20 sky130_fd_sc_hd__nor2_1
* cell instance $499 m0 *1 59.34,24.48
X$499 49 114 188 190 49 189 20 20 sky130_fd_sc_hd__o21ai_0
* cell instance $500 m0 *1 61.18,24.48
X$500 49 47 168 189 49 169 20 20 sky130_fd_sc_hd__o21ai_0
* cell instance $501 m0 *1 63.02,24.48
X$501 49 179 190 168 20 49 20 sky130_fd_sc_hd__nand2b_1
* cell instance $502 m0 *1 65.32,24.48
X$502 49 77 190 191 20 49 177 20 sky130_fd_sc_hd__a21oi_1
* cell instance $503 m0 *1 67.16,24.48
X$503 49 190 191 176 49 20 20 sky130_fd_sc_hd__nand2_1
* cell instance $504 m0 *1 77.74,24.48
X$504 49 170 49 20 190 20 sky130_fd_sc_hd__clkbuf_2
* cell instance $506 m0 *1 80.5,24.48
X$506 49 141 251 20 49 20 sky130_fd_sc_hd__clkbuf_1
* cell instance $507 r0 *1 11.96,24.48
X$507 49 162 185 194 20 49 20 sky130_fd_sc_hd__nor2_1
* cell instance $508 r0 *1 13.34,24.48
X$508 49 136 194 200 20 49 20 sky130_fd_sc_hd__nor2_1
* cell instance $514 r0 *1 15.64,24.48
X$514 49 118 200 147 49 207 20 20 sky130_fd_sc_hd__o21ai_0
* cell instance $517 r0 *1 18.86,24.48
X$517 49 147 208 201 164 20 203 49 20 sky130_fd_sc_hd__nor4_1
* cell instance $522 r0 *1 29.9,24.48
X$522 20 195 29 49 49 20 sky130_fd_sc_hd__clkbuf_8
* cell instance $523 r0 *1 34.96,24.48
X$523 20 220 202 159 152 107 33 49 49 20 sky130_fd_sc_hd__o41ai_1
* cell instance $530 r0 *1 52.9,24.48
X$530 20 195 46 49 49 20 sky130_fd_sc_hd__clkbuf_8
* cell instance $534 r0 *1 63.02,24.48
X$534 49 179 73 190 69 20 49 196 20 sky130_fd_sc_hd__a31oi_1
* cell instance $535 r0 *1 65.32,24.48
X$535 49 138 196 197 49 219 20 20 sky130_fd_sc_hd__o21ai_0
* cell instance $545 r0 *1 74.98,24.48
X$545 49 198 218 20 49 20 sky130_fd_sc_hd__clkbuf_1
* cell instance $546 r0 *1 76.36,24.48
X$546 49 197 199 20 49 20 sky130_fd_sc_hd__clkbuf_1
* cell instance $547 r0 *1 77.74,24.48
X$547 49 192 217 20 49 20 sky130_fd_sc_hd__clkbuf_1
* cell instance $548 r0 *1 79.12,24.48
X$548 49 211 225 20 49 20 sky130_fd_sc_hd__clkbuf_1
* cell instance $549 r0 *1 80.5,24.48
X$549 49 214 216 20 49 20 sky130_fd_sc_hd__clkbuf_1
* cell instance $552 m0 *1 4.14,29.92
X$552 49 221 206 20 49 20 sky130_fd_sc_hd__clkbuf_1
* cell instance $554 m0 *1 7.36,29.92
X$554 49 201 205 20 49 20 sky130_fd_sc_hd__clkbuf_1
* cell instance $555 m0 *1 8.74,29.92
X$555 20 215 207 185 162 107 147 49 49 20 sky130_fd_sc_hd__o41ai_1
* cell instance $557 m0 *1 12.42,29.92
X$557 49 201 208 164 162 49 20 20 sky130_fd_sc_hd__nand3_1
* cell instance $560 m0 *1 15.64,29.92
X$560 49 164 144 235 49 20 20 sky130_fd_sc_hd__nand2_1
* cell instance $562 m0 *1 17.48,29.92
X$562 49 164 118 236 49 20 20 sky130_fd_sc_hd__nand2_1
* cell instance $564 m0 *1 19.32,29.92
X$564 49 221 118 239 49 20 20 sky130_fd_sc_hd__nand2_1
* cell instance $578 m0 *1 60.72,29.92
X$578 49 197 190 74 73 20 227 49 20 sky130_fd_sc_hd__nor4_1
* cell instance $580 m0 *1 63.48,29.92
X$580 49 190 73 179 209 49 20 20 sky130_fd_sc_hd__nand3_1
* cell instance $581 m0 *1 65.32,29.92
X$581 49 197 81 209 219 49 20 212 20 sky130_fd_sc_hd__o31ai_1
* cell instance $582 m0 *1 68.08,29.92
X$582 49 138 210 211 49 226 20 20 sky130_fd_sc_hd__o21ai_0
* cell instance $585 m0 *1 80.5,29.92
X$585 49 213 224 20 49 20 sky130_fd_sc_hd__clkbuf_1
* cell instance $586 r0 *1 1.38,29.92
X$586 49 228 233 20 49 20 sky130_fd_sc_hd__clkbuf_1
* cell instance $590 r0 *1 5.98,29.92
X$590 20 599 229 221 228 49 49 20 sky130_fd_sc_hd__ha_1
* cell instance $591 r0 *1 10.58,29.92
X$591 49 221 228 185 49 20 20 sky130_fd_sc_hd__nand2_1
* cell instance $593 r0 *1 12.88,29.92
X$593 20 201 165 229 208 49 49 20 sky130_fd_sc_hd__and3_1
* cell instance $596 r0 *1 15.64,29.92
X$596 49 136 235 236 238 237 49 20 20 sky130_fd_sc_hd__o211ai_1
* cell instance $597 r0 *1 18.4,29.92
X$597 49 221 47 239 49 222 20 20 sky130_fd_sc_hd__o21ai_0
* cell instance $599 r0 *1 30.36,29.92
X$599 49 221 49 20 240 20 sky130_fd_sc_hd__inv_1
* cell instance $601 r0 *1 32.2,29.92
X$601 49 228 49 20 241 20 sky130_fd_sc_hd__inv_1
* cell instance $604 r0 *1 34.96,29.92
X$604 49 314 230 160 267 49 20 268 20 sky130_fd_sc_hd__o31ai_1
* cell instance $606 r0 *1 39.56,29.92
X$606 49 114 20 118 49 20 sky130_fd_sc_hd__buf_2
* cell instance $614 r0 *1 57.04,29.92
X$614 49 227 243 223 80 49 230 20 20 sky130_fd_sc_hd__nand4_1
* cell instance $617 r0 *1 61.64,29.92
X$617 49 70 198 34 242 20 223 49 20 sky130_fd_sc_hd__nor4_1
* cell instance $619 r0 *1 64.4,29.92
X$619 20 210 197 73 69 191 190 49 49 20 sky130_fd_sc_hd__a41oi_1
* cell instance $620 r0 *1 67.62,29.92
X$620 49 211 81 254 226 49 20 234 20 sky130_fd_sc_hd__o31ai_1
* cell instance $623 r0 *1 80.04,29.92
X$623 49 231 250 20 49 20 sky130_fd_sc_hd__clkbuf_1
* cell instance $631 m0 *1 10.58,35.36
X$631 49 245 20 164 49 20 sky130_fd_sc_hd__buf_2
* cell instance $632 m0 *1 12.42,35.36
X$632 49 229 201 208 144 49 20 20 sky130_fd_sc_hd__nand3_1
* cell instance $634 m0 *1 15.18,35.36
X$634 49 164 246 114 144 238 49 20 20 sky130_fd_sc_hd__or4_1
* cell instance $635 m0 *1 17.94,35.36
X$635 49 221 201 228 257 49 20 20 sky130_fd_sc_hd__nand3_1
* cell instance $636 m0 *1 19.78,35.36
X$636 49 208 257 262 49 20 20 sky130_fd_sc_hd__nand2_1
* cell instance $637 m0 *1 21.16,35.36
X$637 49 208 246 114 257 264 49 20 20 sky130_fd_sc_hd__or4_1
* cell instance $639 m0 *1 27.6,35.36
X$639 49 228 118 265 49 20 20 sky130_fd_sc_hd__nand2_1
* cell instance $642 m0 *1 29.9,35.36
X$642 20 281 247 240 241 49 49 20 sky130_fd_sc_hd__ha_1
* cell instance $646 m0 *1 46,35.36
X$646 49 244 107 255 258 49 20 271 20 sky130_fd_sc_hd__o31ai_1
* cell instance $647 m0 *1 48.76,35.36
X$647 49 138 270 244 49 258 20 20 sky130_fd_sc_hd__o21ai_0
* cell instance $650 m0 *1 51.98,35.36
X$650 49 179 70 231 274 49 255 20 20 sky130_fd_sc_hd__nand4_1
* cell instance $655 m0 *1 57.96,35.36
X$655 49 244 231 211 247 20 243 49 20 sky130_fd_sc_hd__nor4b_1
* cell instance $657 m0 *1 62.1,35.36
X$657 49 211 197 73 190 20 49 259 20 sky130_fd_sc_hd__and4_1
* cell instance $659 m0 *1 67.16,35.36
X$659 49 197 190 73 191 49 254 20 20 sky130_fd_sc_hd__nand4_1
* cell instance $660 m0 *1 69.46,35.36
X$660 49 244 232 20 49 20 sky130_fd_sc_hd__clkbuf_1
* cell instance $663 m0 *1 73.6,35.36
X$663 49 269 248 20 49 20 sky130_fd_sc_hd__clkbuf_1
* cell instance $664 m0 *1 74.98,35.36
X$664 49 125 217 266 248 20 253 49 20 sky130_fd_sc_hd__nor4_1
* cell instance $665 m0 *1 77.28,35.36
X$665 49 173 249 224 251 20 263 49 20 sky130_fd_sc_hd__nor4_1
* cell instance $666 m0 *1 79.58,35.36
X$666 49 251 224 249 173 49 252 20 20 sky130_fd_sc_hd__nand4_1
* cell instance $667 r0 *1 1.38,35.36
X$667 49 208 272 20 49 20 sky130_fd_sc_hd__clkbuf_1
* cell instance $669 r0 *1 4.6,35.36
X$669 49 245 256 20 49 20 sky130_fd_sc_hd__clkbuf_1
* cell instance $672 r0 *1 10.12,35.36
X$672 49 229 201 279 20 49 20 sky130_fd_sc_hd__nand2b_1
* cell instance $675 r0 *1 13.8,35.36
X$675 49 229 136 287 20 49 20 sky130_fd_sc_hd__nor2_1
* cell instance $682 r0 *1 17.94,35.36
X$682 49 208 118 280 49 20 20 sky130_fd_sc_hd__nand2_1
* cell instance $683 r0 *1 19.32,35.36
X$683 49 136 262 280 264 288 49 20 20 sky130_fd_sc_hd__o211ai_1