* CDL Netlist generated by OpenROAD

*.BUSDELIMITER [

.SUBCKT dma_controller channel_busy[0] channel_busy[1] channel_busy[2]
+ channel_busy[3] channel_done[0] channel_done[1] channel_done[2]
+ channel_done[3] channel_dst_addr[0] channel_dst_addr[100]
+ channel_dst_addr[101] channel_dst_addr[102] channel_dst_addr[103]
+ channel_dst_addr[104] channel_dst_addr[105] channel_dst_addr[106]
+ channel_dst_addr[107] channel_dst_addr[108] channel_dst_addr[109]
+ channel_dst_addr[10] channel_dst_addr[110] channel_dst_addr[111]
+ channel_dst_addr[112] channel_dst_addr[113] channel_dst_addr[114]
+ channel_dst_addr[115] channel_dst_addr[116] channel_dst_addr[117]
+ channel_dst_addr[118] channel_dst_addr[119] channel_dst_addr[11]
+ channel_dst_addr[120] channel_dst_addr[121] channel_dst_addr[122]
+ channel_dst_addr[123] channel_dst_addr[124] channel_dst_addr[125]
+ channel_dst_addr[126] channel_dst_addr[127] channel_dst_addr[12]
+ channel_dst_addr[13] channel_dst_addr[14] channel_dst_addr[15]
+ channel_dst_addr[16] channel_dst_addr[17] channel_dst_addr[18]
+ channel_dst_addr[19] channel_dst_addr[1] channel_dst_addr[20]
+ channel_dst_addr[21] channel_dst_addr[22] channel_dst_addr[23]
+ channel_dst_addr[24] channel_dst_addr[25] channel_dst_addr[26]
+ channel_dst_addr[27] channel_dst_addr[28] channel_dst_addr[29]
+ channel_dst_addr[2] channel_dst_addr[30] channel_dst_addr[31]
+ channel_dst_addr[32] channel_dst_addr[33] channel_dst_addr[34]
+ channel_dst_addr[35] channel_dst_addr[36] channel_dst_addr[37]
+ channel_dst_addr[38] channel_dst_addr[39] channel_dst_addr[3]
+ channel_dst_addr[40] channel_dst_addr[41] channel_dst_addr[42]
+ channel_dst_addr[43] channel_dst_addr[44] channel_dst_addr[45]
+ channel_dst_addr[46] channel_dst_addr[47] channel_dst_addr[48]
+ channel_dst_addr[49] channel_dst_addr[4] channel_dst_addr[50]
+ channel_dst_addr[51] channel_dst_addr[52] channel_dst_addr[53]
+ channel_dst_addr[54] channel_dst_addr[55] channel_dst_addr[56]
+ channel_dst_addr[57] channel_dst_addr[58] channel_dst_addr[59]
+ channel_dst_addr[5] channel_dst_addr[60] channel_dst_addr[61]
+ channel_dst_addr[62] channel_dst_addr[63] channel_dst_addr[64]
+ channel_dst_addr[65] channel_dst_addr[66] channel_dst_addr[67]
+ channel_dst_addr[68] channel_dst_addr[69] channel_dst_addr[6]
+ channel_dst_addr[70] channel_dst_addr[71] channel_dst_addr[72]
+ channel_dst_addr[73] channel_dst_addr[74] channel_dst_addr[75]
+ channel_dst_addr[76] channel_dst_addr[77] channel_dst_addr[78]
+ channel_dst_addr[79] channel_dst_addr[7] channel_dst_addr[80]
+ channel_dst_addr[81] channel_dst_addr[82] channel_dst_addr[83]
+ channel_dst_addr[84] channel_dst_addr[85] channel_dst_addr[86]
+ channel_dst_addr[87] channel_dst_addr[88] channel_dst_addr[89]
+ channel_dst_addr[8] channel_dst_addr[90] channel_dst_addr[91]
+ channel_dst_addr[92] channel_dst_addr[93] channel_dst_addr[94]
+ channel_dst_addr[95] channel_dst_addr[96] channel_dst_addr[97]
+ channel_dst_addr[98] channel_dst_addr[99] channel_dst_addr[9]
+ channel_enable[0] channel_enable[1] channel_enable[2] channel_enable[3]
+ channel_error[0] channel_error[1] channel_error[2] channel_error[3]
+ channel_length[0] channel_length[100] channel_length[101]
+ channel_length[102] channel_length[103] channel_length[104]
+ channel_length[105] channel_length[106] channel_length[107]
+ channel_length[108] channel_length[109] channel_length[10]
+ channel_length[110] channel_length[111] channel_length[112]
+ channel_length[113] channel_length[114] channel_length[115]
+ channel_length[116] channel_length[117] channel_length[118]
+ channel_length[119] channel_length[11] channel_length[120]
+ channel_length[121] channel_length[122] channel_length[123]
+ channel_length[124] channel_length[125] channel_length[126]
+ channel_length[127] channel_length[12] channel_length[13]
+ channel_length[14] channel_length[15] channel_length[16] channel_length[17]
+ channel_length[18] channel_length[19] channel_length[1] channel_length[20]
+ channel_length[21] channel_length[22] channel_length[23] channel_length[24]
+ channel_length[25] channel_length[26] channel_length[27] channel_length[28]
+ channel_length[29] channel_length[2] channel_length[30] channel_length[31]
+ channel_length[32] channel_length[33] channel_length[34] channel_length[35]
+ channel_length[36] channel_length[37] channel_length[38] channel_length[39]
+ channel_length[3] channel_length[40] channel_length[41] channel_length[42]
+ channel_length[43] channel_length[44] channel_length[45] channel_length[46]
+ channel_length[47] channel_length[48] channel_length[49] channel_length[4]
+ channel_length[50] channel_length[51] channel_length[52] channel_length[53]
+ channel_length[54] channel_length[55] channel_length[56] channel_length[57]
+ channel_length[58] channel_length[59] channel_length[5] channel_length[60]
+ channel_length[61] channel_length[62] channel_length[63] channel_length[64]
+ channel_length[65] channel_length[66] channel_length[67] channel_length[68]
+ channel_length[69] channel_length[6] channel_length[70] channel_length[71]
+ channel_length[72] channel_length[73] channel_length[74] channel_length[75]
+ channel_length[76] channel_length[77] channel_length[78] channel_length[79]
+ channel_length[7] channel_length[80] channel_length[81] channel_length[82]
+ channel_length[83] channel_length[84] channel_length[85] channel_length[86]
+ channel_length[87] channel_length[88] channel_length[89] channel_length[8]
+ channel_length[90] channel_length[91] channel_length[92] channel_length[93]
+ channel_length[94] channel_length[95] channel_length[96] channel_length[97]
+ channel_length[98] channel_length[99] channel_length[9] channel_mode[0]
+ channel_mode[1] channel_mode[2] channel_mode[3] channel_mode[4]
+ channel_mode[5] channel_mode[6] channel_mode[7] channel_src_addr[0]
+ channel_src_addr[100] channel_src_addr[101] channel_src_addr[102]
+ channel_src_addr[103] channel_src_addr[104] channel_src_addr[105]
+ channel_src_addr[106] channel_src_addr[107] channel_src_addr[108]
+ channel_src_addr[109] channel_src_addr[10] channel_src_addr[110]
+ channel_src_addr[111] channel_src_addr[112] channel_src_addr[113]
+ channel_src_addr[114] channel_src_addr[115] channel_src_addr[116]
+ channel_src_addr[117] channel_src_addr[118] channel_src_addr[119]
+ channel_src_addr[11] channel_src_addr[120] channel_src_addr[121]
+ channel_src_addr[122] channel_src_addr[123] channel_src_addr[124]
+ channel_src_addr[125] channel_src_addr[126] channel_src_addr[127]
+ channel_src_addr[12] channel_src_addr[13] channel_src_addr[14]
+ channel_src_addr[15] channel_src_addr[16] channel_src_addr[17]
+ channel_src_addr[18] channel_src_addr[19] channel_src_addr[1]
+ channel_src_addr[20] channel_src_addr[21] channel_src_addr[22]
+ channel_src_addr[23] channel_src_addr[24] channel_src_addr[25]
+ channel_src_addr[26] channel_src_addr[27] channel_src_addr[28]
+ channel_src_addr[29] channel_src_addr[2] channel_src_addr[30]
+ channel_src_addr[31] channel_src_addr[32] channel_src_addr[33]
+ channel_src_addr[34] channel_src_addr[35] channel_src_addr[36]
+ channel_src_addr[37] channel_src_addr[38] channel_src_addr[39]
+ channel_src_addr[3] channel_src_addr[40] channel_src_addr[41]
+ channel_src_addr[42] channel_src_addr[43] channel_src_addr[44]
+ channel_src_addr[45] channel_src_addr[46] channel_src_addr[47]
+ channel_src_addr[48] channel_src_addr[49] channel_src_addr[4]
+ channel_src_addr[50] channel_src_addr[51] channel_src_addr[52]
+ channel_src_addr[53] channel_src_addr[54] channel_src_addr[55]
+ channel_src_addr[56] channel_src_addr[57] channel_src_addr[58]
+ channel_src_addr[59] channel_src_addr[5] channel_src_addr[60]
+ channel_src_addr[61] channel_src_addr[62] channel_src_addr[63]
+ channel_src_addr[64] channel_src_addr[65] channel_src_addr[66]
+ channel_src_addr[67] channel_src_addr[68] channel_src_addr[69]
+ channel_src_addr[6] channel_src_addr[70] channel_src_addr[71]
+ channel_src_addr[72] channel_src_addr[73] channel_src_addr[74]
+ channel_src_addr[75] channel_src_addr[76] channel_src_addr[77]
+ channel_src_addr[78] channel_src_addr[79] channel_src_addr[7]
+ channel_src_addr[80] channel_src_addr[81] channel_src_addr[82]
+ channel_src_addr[83] channel_src_addr[84] channel_src_addr[85]
+ channel_src_addr[86] channel_src_addr[87] channel_src_addr[88]
+ channel_src_addr[89] channel_src_addr[8] channel_src_addr[90]
+ channel_src_addr[91] channel_src_addr[92] channel_src_addr[93]
+ channel_src_addr[94] channel_src_addr[95] channel_src_addr[96]
+ channel_src_addr[97] channel_src_addr[98] channel_src_addr[99]
+ channel_src_addr[9] channel_start[0] channel_start[1] channel_start[2]
+ channel_start[3] clk debug_active_channels[0] debug_active_channels[1]
+ debug_active_channels[2] debug_active_channels[3] debug_channel_state[0]
+ debug_channel_state[10] debug_channel_state[11] debug_channel_state[1]
+ debug_channel_state[2] debug_channel_state[3] debug_channel_state[4]
+ debug_channel_state[5] debug_channel_state[6] debug_channel_state[7]
+ debug_channel_state[8] debug_channel_state[9] debug_has_active_channels
+ debug_transfer_count[0] debug_transfer_count[100] debug_transfer_count[101]
+ debug_transfer_count[102] debug_transfer_count[103] debug_transfer_count[104]
+ debug_transfer_count[105] debug_transfer_count[106] debug_transfer_count[107]
+ debug_transfer_count[108] debug_transfer_count[109] debug_transfer_count[10]
+ debug_transfer_count[110] debug_transfer_count[111] debug_transfer_count[112]
+ debug_transfer_count[113] debug_transfer_count[114] debug_transfer_count[115]
+ debug_transfer_count[116] debug_transfer_count[117] debug_transfer_count[118]
+ debug_transfer_count[119] debug_transfer_count[11] debug_transfer_count[120]
+ debug_transfer_count[121] debug_transfer_count[122] debug_transfer_count[123]
+ debug_transfer_count[124] debug_transfer_count[125] debug_transfer_count[126]
+ debug_transfer_count[127] debug_transfer_count[12] debug_transfer_count[13]
+ debug_transfer_count[14] debug_transfer_count[15] debug_transfer_count[16]
+ debug_transfer_count[17] debug_transfer_count[18] debug_transfer_count[19]
+ debug_transfer_count[1] debug_transfer_count[20] debug_transfer_count[21]
+ debug_transfer_count[22] debug_transfer_count[23] debug_transfer_count[24]
+ debug_transfer_count[25] debug_transfer_count[26] debug_transfer_count[27]
+ debug_transfer_count[28] debug_transfer_count[29] debug_transfer_count[2]
+ debug_transfer_count[30] debug_transfer_count[31] debug_transfer_count[32]
+ debug_transfer_count[33] debug_transfer_count[34] debug_transfer_count[35]
+ debug_transfer_count[36] debug_transfer_count[37] debug_transfer_count[38]
+ debug_transfer_count[39] debug_transfer_count[3] debug_transfer_count[40]
+ debug_transfer_count[41] debug_transfer_count[42] debug_transfer_count[43]
+ debug_transfer_count[44] debug_transfer_count[45] debug_transfer_count[46]
+ debug_transfer_count[47] debug_transfer_count[48] debug_transfer_count[49]
+ debug_transfer_count[4] debug_transfer_count[50] debug_transfer_count[51]
+ debug_transfer_count[52] debug_transfer_count[53] debug_transfer_count[54]
+ debug_transfer_count[55] debug_transfer_count[56] debug_transfer_count[57]
+ debug_transfer_count[58] debug_transfer_count[59] debug_transfer_count[5]
+ debug_transfer_count[60] debug_transfer_count[61] debug_transfer_count[62]
+ debug_transfer_count[63] debug_transfer_count[64] debug_transfer_count[65]
+ debug_transfer_count[66] debug_transfer_count[67] debug_transfer_count[68]
+ debug_transfer_count[69] debug_transfer_count[6] debug_transfer_count[70]
+ debug_transfer_count[71] debug_transfer_count[72] debug_transfer_count[73]
+ debug_transfer_count[74] debug_transfer_count[75] debug_transfer_count[76]
+ debug_transfer_count[77] debug_transfer_count[78] debug_transfer_count[79]
+ debug_transfer_count[7] debug_transfer_count[80] debug_transfer_count[81]
+ debug_transfer_count[82] debug_transfer_count[83] debug_transfer_count[84]
+ debug_transfer_count[85] debug_transfer_count[86] debug_transfer_count[87]
+ debug_transfer_count[88] debug_transfer_count[89] debug_transfer_count[8]
+ debug_transfer_count[90] debug_transfer_count[91] debug_transfer_count[92]
+ debug_transfer_count[93] debug_transfer_count[94] debug_transfer_count[95]
+ debug_transfer_count[96] debug_transfer_count[97] debug_transfer_count[98]
+ debug_transfer_count[99] debug_transfer_count[9] dst_addr[0]
+ dst_addr[100] dst_addr[101] dst_addr[102] dst_addr[103] dst_addr[104]
+ dst_addr[105] dst_addr[106] dst_addr[107] dst_addr[108] dst_addr[109]
+ dst_addr[10] dst_addr[110] dst_addr[111] dst_addr[112] dst_addr[113]
+ dst_addr[114] dst_addr[115] dst_addr[116] dst_addr[117] dst_addr[118]
+ dst_addr[119] dst_addr[11] dst_addr[120] dst_addr[121] dst_addr[122]
+ dst_addr[123] dst_addr[124] dst_addr[125] dst_addr[126] dst_addr[127]
+ dst_addr[12] dst_addr[13] dst_addr[14] dst_addr[15] dst_addr[16]
+ dst_addr[17] dst_addr[18] dst_addr[19] dst_addr[1] dst_addr[20]
+ dst_addr[21] dst_addr[22] dst_addr[23] dst_addr[24] dst_addr[25]
+ dst_addr[26] dst_addr[27] dst_addr[28] dst_addr[29] dst_addr[2]
+ dst_addr[30] dst_addr[31] dst_addr[32] dst_addr[33] dst_addr[34]
+ dst_addr[35] dst_addr[36] dst_addr[37] dst_addr[38] dst_addr[39]
+ dst_addr[3] dst_addr[40] dst_addr[41] dst_addr[42] dst_addr[43]
+ dst_addr[44] dst_addr[45] dst_addr[46] dst_addr[47] dst_addr[48]
+ dst_addr[49] dst_addr[4] dst_addr[50] dst_addr[51] dst_addr[52]
+ dst_addr[53] dst_addr[54] dst_addr[55] dst_addr[56] dst_addr[57]
+ dst_addr[58] dst_addr[59] dst_addr[5] dst_addr[60] dst_addr[61]
+ dst_addr[62] dst_addr[63] dst_addr[64] dst_addr[65] dst_addr[66]
+ dst_addr[67] dst_addr[68] dst_addr[69] dst_addr[6] dst_addr[70]
+ dst_addr[71] dst_addr[72] dst_addr[73] dst_addr[74] dst_addr[75]
+ dst_addr[76] dst_addr[77] dst_addr[78] dst_addr[79] dst_addr[7]
+ dst_addr[80] dst_addr[81] dst_addr[82] dst_addr[83] dst_addr[84]
+ dst_addr[85] dst_addr[86] dst_addr[87] dst_addr[88] dst_addr[89]
+ dst_addr[8] dst_addr[90] dst_addr[91] dst_addr[92] dst_addr[93]
+ dst_addr[94] dst_addr[95] dst_addr[96] dst_addr[97] dst_addr[98]
+ dst_addr[99] dst_addr[9] dst_wdata[0] dst_wdata[100] dst_wdata[101]
+ dst_wdata[102] dst_wdata[103] dst_wdata[104] dst_wdata[105]
+ dst_wdata[106] dst_wdata[107] dst_wdata[108] dst_wdata[109]
+ dst_wdata[10] dst_wdata[110] dst_wdata[111] dst_wdata[112]
+ dst_wdata[113] dst_wdata[114] dst_wdata[115] dst_wdata[116]
+ dst_wdata[117] dst_wdata[118] dst_wdata[119] dst_wdata[11]
+ dst_wdata[120] dst_wdata[121] dst_wdata[122] dst_wdata[123]
+ dst_wdata[124] dst_wdata[125] dst_wdata[126] dst_wdata[127]
+ dst_wdata[12] dst_wdata[13] dst_wdata[14] dst_wdata[15] dst_wdata[16]
+ dst_wdata[17] dst_wdata[18] dst_wdata[19] dst_wdata[1] dst_wdata[20]
+ dst_wdata[21] dst_wdata[22] dst_wdata[23] dst_wdata[24] dst_wdata[25]
+ dst_wdata[26] dst_wdata[27] dst_wdata[28] dst_wdata[29] dst_wdata[2]
+ dst_wdata[30] dst_wdata[31] dst_wdata[32] dst_wdata[33] dst_wdata[34]
+ dst_wdata[35] dst_wdata[36] dst_wdata[37] dst_wdata[38] dst_wdata[39]
+ dst_wdata[3] dst_wdata[40] dst_wdata[41] dst_wdata[42] dst_wdata[43]
+ dst_wdata[44] dst_wdata[45] dst_wdata[46] dst_wdata[47] dst_wdata[48]
+ dst_wdata[49] dst_wdata[4] dst_wdata[50] dst_wdata[51] dst_wdata[52]
+ dst_wdata[53] dst_wdata[54] dst_wdata[55] dst_wdata[56] dst_wdata[57]
+ dst_wdata[58] dst_wdata[59] dst_wdata[5] dst_wdata[60] dst_wdata[61]
+ dst_wdata[62] dst_wdata[63] dst_wdata[64] dst_wdata[65] dst_wdata[66]
+ dst_wdata[67] dst_wdata[68] dst_wdata[69] dst_wdata[6] dst_wdata[70]
+ dst_wdata[71] dst_wdata[72] dst_wdata[73] dst_wdata[74] dst_wdata[75]
+ dst_wdata[76] dst_wdata[77] dst_wdata[78] dst_wdata[79] dst_wdata[7]
+ dst_wdata[80] dst_wdata[81] dst_wdata[82] dst_wdata[83] dst_wdata[84]
+ dst_wdata[85] dst_wdata[86] dst_wdata[87] dst_wdata[88] dst_wdata[89]
+ dst_wdata[8] dst_wdata[90] dst_wdata[91] dst_wdata[92] dst_wdata[93]
+ dst_wdata[94] dst_wdata[95] dst_wdata[96] dst_wdata[97] dst_wdata[98]
+ dst_wdata[99] dst_wdata[9] dst_wready[0] dst_wready[1] dst_wready[2]
+ dst_wready[3] dst_write[0] dst_write[1] dst_write[2] dst_write[3]
+ dst_wstrb[0] dst_wstrb[10] dst_wstrb[11] dst_wstrb[12] dst_wstrb[13]
+ dst_wstrb[14] dst_wstrb[15] dst_wstrb[1] dst_wstrb[2] dst_wstrb[3]
+ dst_wstrb[4] dst_wstrb[5] dst_wstrb[6] dst_wstrb[7] dst_wstrb[8]
+ dst_wstrb[9] rst_n src_addr[0] src_addr[100] src_addr[101]
+ src_addr[102] src_addr[103] src_addr[104] src_addr[105] src_addr[106]
+ src_addr[107] src_addr[108] src_addr[109] src_addr[10] src_addr[110]
+ src_addr[111] src_addr[112] src_addr[113] src_addr[114] src_addr[115]
+ src_addr[116] src_addr[117] src_addr[118] src_addr[119] src_addr[11]
+ src_addr[120] src_addr[121] src_addr[122] src_addr[123] src_addr[124]
+ src_addr[125] src_addr[126] src_addr[127] src_addr[12] src_addr[13]
+ src_addr[14] src_addr[15] src_addr[16] src_addr[17] src_addr[18]
+ src_addr[19] src_addr[1] src_addr[20] src_addr[21] src_addr[22]
+ src_addr[23] src_addr[24] src_addr[25] src_addr[26] src_addr[27]
+ src_addr[28] src_addr[29] src_addr[2] src_addr[30] src_addr[31]
+ src_addr[32] src_addr[33] src_addr[34] src_addr[35] src_addr[36]
+ src_addr[37] src_addr[38] src_addr[39] src_addr[3] src_addr[40]
+ src_addr[41] src_addr[42] src_addr[43] src_addr[44] src_addr[45]
+ src_addr[46] src_addr[47] src_addr[48] src_addr[49] src_addr[4]
+ src_addr[50] src_addr[51] src_addr[52] src_addr[53] src_addr[54]
+ src_addr[55] src_addr[56] src_addr[57] src_addr[58] src_addr[59]
+ src_addr[5] src_addr[60] src_addr[61] src_addr[62] src_addr[63]
+ src_addr[64] src_addr[65] src_addr[66] src_addr[67] src_addr[68]
+ src_addr[69] src_addr[6] src_addr[70] src_addr[71] src_addr[72]
+ src_addr[73] src_addr[74] src_addr[75] src_addr[76] src_addr[77]
+ src_addr[78] src_addr[79] src_addr[7] src_addr[80] src_addr[81]
+ src_addr[82] src_addr[83] src_addr[84] src_addr[85] src_addr[86]
+ src_addr[87] src_addr[88] src_addr[89] src_addr[8] src_addr[90]
+ src_addr[91] src_addr[92] src_addr[93] src_addr[94] src_addr[95]
+ src_addr[96] src_addr[97] src_addr[98] src_addr[99] src_addr[9]
+ src_rdata[0] src_rdata[100] src_rdata[101] src_rdata[102]
+ src_rdata[103] src_rdata[104] src_rdata[105] src_rdata[106]
+ src_rdata[107] src_rdata[108] src_rdata[109] src_rdata[10]
+ src_rdata[110] src_rdata[111] src_rdata[112] src_rdata[113]
+ src_rdata[114] src_rdata[115] src_rdata[116] src_rdata[117]
+ src_rdata[118] src_rdata[119] src_rdata[11] src_rdata[120]
+ src_rdata[121] src_rdata[122] src_rdata[123] src_rdata[124]
+ src_rdata[125] src_rdata[126] src_rdata[127] src_rdata[12]
+ src_rdata[13] src_rdata[14] src_rdata[15] src_rdata[16] src_rdata[17]
+ src_rdata[18] src_rdata[19] src_rdata[1] src_rdata[20] src_rdata[21]
+ src_rdata[22] src_rdata[23] src_rdata[24] src_rdata[25] src_rdata[26]
+ src_rdata[27] src_rdata[28] src_rdata[29] src_rdata[2] src_rdata[30]
+ src_rdata[31] src_rdata[32] src_rdata[33] src_rdata[34] src_rdata[35]
+ src_rdata[36] src_rdata[37] src_rdata[38] src_rdata[39] src_rdata[3]
+ src_rdata[40] src_rdata[41] src_rdata[42] src_rdata[43] src_rdata[44]
+ src_rdata[45] src_rdata[46] src_rdata[47] src_rdata[48] src_rdata[49]
+ src_rdata[4] src_rdata[50] src_rdata[51] src_rdata[52] src_rdata[53]
+ src_rdata[54] src_rdata[55] src_rdata[56] src_rdata[57] src_rdata[58]
+ src_rdata[59] src_rdata[5] src_rdata[60] src_rdata[61] src_rdata[62]
+ src_rdata[63] src_rdata[64] src_rdata[65] src_rdata[66] src_rdata[67]
+ src_rdata[68] src_rdata[69] src_rdata[6] src_rdata[70] src_rdata[71]
+ src_rdata[72] src_rdata[73] src_rdata[74] src_rdata[75] src_rdata[76]
+ src_rdata[77] src_rdata[78] src_rdata[79] src_rdata[7] src_rdata[80]
+ src_rdata[81] src_rdata[82] src_rdata[83] src_rdata[84] src_rdata[85]
+ src_rdata[86] src_rdata[87] src_rdata[88] src_rdata[89] src_rdata[8]
+ src_rdata[90] src_rdata[91] src_rdata[92] src_rdata[93] src_rdata[94]
+ src_rdata[95] src_rdata[96] src_rdata[97] src_rdata[98] src_rdata[99]
+ src_rdata[9] src_read[0] src_read[1] src_read[2] src_read[3]
+ src_rready[0] src_rready[1] src_rready[2] src_rready[3] src_rvalid[0]
+ src_rvalid[1] src_rvalid[2] src_rvalid[3]
X_1392_ transfer_count\[1\]\[0\] transfer_count\[1\]\[1\]
+ transfer_count\[1\]\[4\] transfer_count\[1\]\[5\] _0747_ VDD
+ VSS gf180mcu_fd_sc_mcu9t5v0__and4_2
X_1393_ transfer_count\[1\]\[2\] transfer_count\[1\]\[3\]
+ _0747_ _0748_ VDD VSS gf180mcu_fd_sc_mcu9t5v0__and3_2
X_1394_ transfer_count\[1\]\[7\] transfer_count\[1\]\[6\]
+ _0748_ _0749_ VDD VSS gf180mcu_fd_sc_mcu9t5v0__and3_4
X_1395_ transfer_count\[1\]\[10\] transfer_count\[1\]\[9\]
+ transfer_count\[1\]\[8\] _0750_ VDD VSS gf180mcu_fd_sc_mcu9t5v0__and3_2
X_1396_ transfer_count\[1\]\[12\] transfer_count\[1\]\[11\]
+ _0749_ _0750_ _0751_ VDD VSS gf180mcu_fd_sc_mcu9t5v0__nand4_4
X_1397_ transfer_count\[1\]\[13\] _0751_ _0988_ VDD VSS gf180mcu_fd_sc_mcu9t5v0__xor2_2
X_1398_ transfer_count\[1\]\[8\] _0749_ _0752_ VDD VSS gf180mcu_fd_sc_mcu9t5v0__and2_2
X_1399_ transfer_count\[1\]\[9\] _0752_ _1000_ VDD VSS gf180mcu_fd_sc_mcu9t5v0__xnor2_2
X_1400_ transfer_count\[1\]\[28\] transfer_count\[1\]\[27\]
+ transfer_count\[1\]\[26\] _0753_ VDD VSS gf180mcu_fd_sc_mcu9t5v0__and3_2
X_1401_ transfer_count\[1\]\[13\] transfer_count\[1\]\[12\]
+ transfer_count\[1\]\[11\] _0754_ VDD VSS gf180mcu_fd_sc_mcu9t5v0__and3_2
X_1402_ transfer_count\[1\]\[14\] transfer_count\[1\]\[15\]
+ _0755_ VDD VSS gf180mcu_fd_sc_mcu9t5v0__and2_2
X_1403_ transfer_count\[1\]\[16\] _0750_ _0754_ _0755_ _0756_
+ VDD VSS gf180mcu_fd_sc_mcu9t5v0__and4_2
X_1404_ transfer_count\[1\]\[19\] transfer_count\[1\]\[18\]
+ transfer_count\[1\]\[17\] _0757_ VDD VSS gf180mcu_fd_sc_mcu9t5v0__and3_2
X_1405_ transfer_count\[1\]\[20\] _0757_ _0758_ VDD VSS gf180mcu_fd_sc_mcu9t5v0__and2_2
X_1406_ transfer_count\[1\]\[22\] transfer_count\[1\]\[21\]
+ _0756_ _0758_ _0759_ VDD VSS gf180mcu_fd_sc_mcu9t5v0__and4_2
X_1407_ transfer_count\[1\]\[25\] transfer_count\[1\]\[24\]
+ transfer_count\[1\]\[23\] _0760_ VDD VSS gf180mcu_fd_sc_mcu9t5v0__and3_2
X_1408_ _0749_ _0753_ _0759_ _0760_ _0761_ VDD VSS gf180mcu_fd_sc_mcu9t5v0__and4_2
X_1409_ transfer_count\[1\]\[29\] _0761_ _1012_ VDD VSS gf180mcu_fd_sc_mcu9t5v0__xnor2_2
X_1410_ _0749_ _0759_ _0762_ VDD VSS gf180mcu_fd_sc_mcu9t5v0__and2_2
X_1411_ transfer_count\[1\]\[24\] transfer_count\[1\]\[23\]
+ _0762_ _0763_ VDD VSS gf180mcu_fd_sc_mcu9t5v0__and3_2
X_1412_ transfer_count\[1\]\[25\] _0763_ _1024_ VDD VSS gf180mcu_fd_sc_mcu9t5v0__xnor2_2
X_1413_ _0749_ _0756_ _0764_ VDD VSS gf180mcu_fd_sc_mcu9t5v0__and2_2
X_1414_ _0758_ _0764_ _0765_ VDD VSS gf180mcu_fd_sc_mcu9t5v0__and2_2
X_1415_ transfer_count\[1\]\[21\] _0765_ _1036_ VDD VSS gf180mcu_fd_sc_mcu9t5v0__xnor2_2
X_1416_ transfer_count\[1\]\[17\] _0764_ _1048_ VDD VSS gf180mcu_fd_sc_mcu9t5v0__xnor2_2
X_1417_ channel_state\[1\]\[0\] channel_state\[1\]\[1\] _0766_
+ VDD VSS gf180mcu_fd_sc_mcu9t5v0__nor2_4
X_1418_ net139 channel_state\[1\]\[2\] _0767_ VDD VSS gf180mcu_fd_sc_mcu9t5v0__and2_2
X_1419_ _0766_ _0767_ _0768_ VDD VSS gf180mcu_fd_sc_mcu9t5v0__and2_2
X_1420_ _0768_ _0769_ VDD VSS gf180mcu_fd_sc_mcu9t5v0__buf_4
X_1421_ _1002_ _0993_ _0999_ _1005_ _0770_ VDD VSS gf180mcu_fd_sc_mcu9t5v0__and4_2
X_1422_ _0984_ _0990_ _0987_ _0771_ VDD VSS gf180mcu_fd_sc_mcu9t5v0__and3_2
X_1423_ _0996_ _0770_ _0771_ _0772_ VDD VSS gf180mcu_fd_sc_mcu9t5v0__and3_2
X_1424_ _1374_ _1380_ _1377_ _1383_ _0773_ VDD VSS gf180mcu_fd_sc_mcu9t5v0__and4_2
X_1425_ _0772_ _0773_ _0774_ VDD VSS gf180mcu_fd_sc_mcu9t5v0__nand2_2
X_1426_ _1365_ _0775_ VDD VSS gf180mcu_fd_sc_mcu9t5v0__clkinv_2
X_1427_ _1364_ _0776_ VDD VSS gf180mcu_fd_sc_mcu9t5v0__clkinv_2
X_1428_ _0775_ _1359_ _0776_ _0777_ VDD VSS gf180mcu_fd_sc_mcu9t5v0__oai21_2
X_1429_ _1368_ _1371_ _0778_ VDD VSS gf180mcu_fd_sc_mcu9t5v0__and2_2
X_1430_ _1368_ _1370_ _0777_ _0778_ _1367_ _0779_ VDD VSS
+ gf180mcu_fd_sc_mcu9t5v0__aoi221_4
X_1431_ _1374_ _1377_ _0780_ VDD VSS gf180mcu_fd_sc_mcu9t5v0__nand2_2
X_1432_ _1380_ _1382_ _1379_ _0781_ VDD VSS gf180mcu_fd_sc_mcu9t5v0__aoi21_2
X_1433_ _1374_ _1376_ _1373_ _0782_ VDD VSS gf180mcu_fd_sc_mcu9t5v0__aoi21_2
X_1434_ _0780_ _0781_ _0782_ _0783_ VDD VSS gf180mcu_fd_sc_mcu9t5v0__oai21_2
X_1435_ _0772_ _0783_ _0784_ VDD VSS gf180mcu_fd_sc_mcu9t5v0__nand2_2
X_1436_ _0774_ _0779_ _0784_ _0785_ VDD VSS gf180mcu_fd_sc_mcu9t5v0__oai21_2
X_1437_ _1002_ _1004_ _1001_ _0998_ _0786_ VDD VSS gf180mcu_fd_sc_mcu9t5v0__aoi211_2
X_1438_ _0999_ _0998_ _0996_ _0787_ VDD VSS gf180mcu_fd_sc_mcu9t5v0__oai21_2
X_1439_ _0992_ _0995_ _0788_ VDD VSS gf180mcu_fd_sc_mcu9t5v0__nor2_2
X_1440_ _0786_ _0787_ _0788_ _0789_ VDD VSS gf180mcu_fd_sc_mcu9t5v0__oai21_2
X_1441_ _0993_ _0992_ _0771_ _0789_ _0790_ VDD VSS gf180mcu_fd_sc_mcu9t5v0__oai211_2
X_1442_ _0987_ _0989_ _0791_ VDD VSS gf180mcu_fd_sc_mcu9t5v0__and2_2
X_1443_ _0986_ _0791_ _0792_ VDD VSS gf180mcu_fd_sc_mcu9t5v0__or2_2
X_1444_ _0984_ _0792_ _0983_ _0793_ VDD VSS gf180mcu_fd_sc_mcu9t5v0__aoi21_2
X_1445_ _0790_ _0793_ _0794_ VDD VSS gf180mcu_fd_sc_mcu9t5v0__nand2_2
X_1446_ _1035_ _1037_ _0795_ VDD VSS gf180mcu_fd_sc_mcu9t5v0__and2_2
X_1447_ _1034_ _0795_ _0796_ VDD VSS gf180mcu_fd_sc_mcu9t5v0__or2_2
X_1448_ _1050_ _1052_ _1049_ _1046_ _0797_ VDD VSS gf180mcu_fd_sc_mcu9t5v0__aoi211_2
X_1449_ _1047_ _1046_ _1044_ _0798_ VDD VSS gf180mcu_fd_sc_mcu9t5v0__oai21_2
X_1450_ _1040_ _1043_ _0799_ VDD VSS gf180mcu_fd_sc_mcu9t5v0__nor2_2
X_1451_ _0797_ _0798_ _0799_ _0800_ VDD VSS gf180mcu_fd_sc_mcu9t5v0__oai21_2
X_1452_ _1041_ _1040_ _0801_ VDD VSS gf180mcu_fd_sc_mcu9t5v0__or2_2
X_1453_ _1032_ _1038_ _1035_ _0801_ _0802_ VDD VSS gf180mcu_fd_sc_mcu9t5v0__and4_2
X_1454_ _1032_ _0796_ _0800_ _0802_ _1031_ _0803_ VDD VSS
+ gf180mcu_fd_sc_mcu9t5v0__aoi221_4
X_1455_ _1008_ _1014_ _1011_ _1017_ _0804_ VDD VSS gf180mcu_fd_sc_mcu9t5v0__and4_2
X_1456_ _1026_ _1028_ _1025_ _0805_ VDD VSS gf180mcu_fd_sc_mcu9t5v0__aoi21_2
X_1457_ _1020_ _1023_ _0806_ VDD VSS gf180mcu_fd_sc_mcu9t5v0__nand2_2
X_1458_ _1020_ _1022_ _1019_ _0807_ VDD VSS gf180mcu_fd_sc_mcu9t5v0__aoi21_2
X_1459_ _0805_ _0806_ _0807_ _0808_ VDD VSS gf180mcu_fd_sc_mcu9t5v0__oai21_2
X_1460_ _1008_ _1011_ _0809_ VDD VSS gf180mcu_fd_sc_mcu9t5v0__nand2_2
X_1461_ _1014_ _1016_ _1013_ _0810_ VDD VSS gf180mcu_fd_sc_mcu9t5v0__aoi21_2
X_1462_ _1008_ _1010_ _1007_ _0811_ VDD VSS gf180mcu_fd_sc_mcu9t5v0__aoi21_2
X_1463_ _0809_ _0810_ _0811_ _0812_ VDD VSS gf180mcu_fd_sc_mcu9t5v0__oai21_2
X_1464_ _0804_ _0808_ _0812_ _0813_ VDD VSS gf180mcu_fd_sc_mcu9t5v0__aoi21_2
X_1465_ _0803_ _0813_ _0814_ VDD VSS gf180mcu_fd_sc_mcu9t5v0__nand2_2
X_1466_ _1032_ _1038_ _1050_ _1035_ _0815_ VDD VSS gf180mcu_fd_sc_mcu9t5v0__nand4_4
X_1467_ _1044_ _1041_ _1047_ _1053_ _0816_ VDD VSS gf180mcu_fd_sc_mcu9t5v0__nand4_4
X_1468_ _0809_ _0810_ _0815_ _0816_ _0811_ _0817_ VDD VSS
+ gf180mcu_fd_sc_mcu9t5v0__oai221_2
X_1469_ _0804_ _0808_ _0817_ _0818_ VDD VSS gf180mcu_fd_sc_mcu9t5v0__aoi21_2
X_1470_ _1020_ _1026_ _1023_ _1029_ _0819_ VDD VSS gf180mcu_fd_sc_mcu9t5v0__and4_2
X_1471_ _0804_ _0819_ _0820_ VDD VSS gf180mcu_fd_sc_mcu9t5v0__and2_2
X_1472_ _0804_ _0808_ _0812_ _0820_ _0821_ VDD VSS gf180mcu_fd_sc_mcu9t5v0__aoi211_2
X_1473_ _1368_ _1365_ _1360_ _1371_ _0822_ VDD VSS gf180mcu_fd_sc_mcu9t5v0__nand4_4
X_1474_ _0815_ _0816_ _0822_ _0823_ VDD VSS gf180mcu_fd_sc_mcu9t5v0__nor3_2
X_1475_ _0820_ _0772_ _0773_ _0823_ _0824_ VDD VSS gf180mcu_fd_sc_mcu9t5v0__and4_2
X_1476_ _0803_ _0818_ _0821_ _0824_ _0825_ VDD VSS gf180mcu_fd_sc_mcu9t5v0__aoi211_4
X_1477_ _0785_ _0794_ _0814_ _0825_ _0826_ VDD VSS gf180mcu_fd_sc_mcu9t5v0__oai31_4
X_1478_ channel_state\[1\]\[2\] _0827_ VDD VSS gf180mcu_fd_sc_mcu9t5v0__clkinv_3
X_1479_ net3 _0827_ _0828_ VDD VSS gf180mcu_fd_sc_mcu9t5v0__and2_2
X_1480_ net135 _0828_ _0829_ VDD VSS gf180mcu_fd_sc_mcu9t5v0__and2_2
X_1481_ _0766_ _0829_ net147 _0830_ VDD VSS gf180mcu_fd_sc_mcu9t5v0__aoi21_2
X_1482_ _0769_ _0826_ _0830_ _0005_ VDD VSS gf180mcu_fd_sc_mcu9t5v0__aoi21_2
X_1483_ transfer_count\[3\]\[27\] transfer_count\[3\]\[26\]
+ transfer_count\[3\]\[25\] transfer_count\[3\]\[24\] _0831_
+ VDD VSS gf180mcu_fd_sc_mcu9t5v0__and4_2
X_1484_ transfer_count\[3\]\[28\] _0831_ _0832_ VDD VSS gf180mcu_fd_sc_mcu9t5v0__and2_2
X_1485_ transfer_count\[3\]\[19\] transfer_count\[3\]\[18\]
+ _0833_ VDD VSS gf180mcu_fd_sc_mcu9t5v0__and2_2
X_1486_ transfer_count\[3\]\[22\] transfer_count\[3\]\[21\]
+ transfer_count\[3\]\[20\] _0833_ _0834_ VDD VSS gf180mcu_fd_sc_mcu9t5v0__and4_2
X_1487_ transfer_count\[3\]\[17\] transfer_count\[3\]\[16\]
+ transfer_count\[3\]\[15\] _0835_ VDD VSS gf180mcu_fd_sc_mcu9t5v0__and3_2
X_1488_ transfer_count\[3\]\[14\] transfer_count\[3\]\[13\]
+ transfer_count\[3\]\[12\] transfer_count\[3\]\[11\] _0836_
+ VDD VSS gf180mcu_fd_sc_mcu9t5v0__and4_2
X_1489_ _0835_ _0836_ _0837_ VDD VSS gf180mcu_fd_sc_mcu9t5v0__and2_2
X_1490_ transfer_count\[3\]\[10\] transfer_count\[3\]\[9\]
+ transfer_count\[3\]\[8\] transfer_count\[3\]\[7\] _0838_ VDD
+ VSS gf180mcu_fd_sc_mcu9t5v0__and4_2
X_1491_ transfer_count\[3\]\[5\] transfer_count\[3\]\[4\]
+ transfer_count\[3\]\[3\] transfer_count\[3\]\[2\] _0839_ VDD
+ VSS gf180mcu_fd_sc_mcu9t5v0__and4_2
X_1492_ transfer_count\[3\]\[1\] transfer_count\[3\]\[0\]
+ _0840_ VDD VSS gf180mcu_fd_sc_mcu9t5v0__and2_2
X_1493_ transfer_count\[3\]\[6\] _0838_ _0839_ _0840_ _0841_
+ VDD VSS gf180mcu_fd_sc_mcu9t5v0__and4_2
X_1494_ transfer_count\[3\]\[23\] _0834_ _0837_ _0841_ _0842_
+ VDD VSS gf180mcu_fd_sc_mcu9t5v0__and4_2
X_1495_ _0832_ _0842_ _0843_ VDD VSS gf180mcu_fd_sc_mcu9t5v0__nand2_2
X_1496_ transfer_count\[3\]\[29\] _0843_ _1060_ VDD VSS gf180mcu_fd_sc_mcu9t5v0__xor2_2
X_1497_ transfer_count\[3\]\[26\] transfer_count\[3\]\[25\]
+ transfer_count\[3\]\[24\] _0842_ _0844_ VDD VSS gf180mcu_fd_sc_mcu9t5v0__nand4_4
X_1498_ transfer_count\[3\]\[27\] _0844_ _1066_ VDD VSS gf180mcu_fd_sc_mcu9t5v0__xor2_2
X_1499_ transfer_count\[3\]\[24\] _0842_ _0845_ VDD VSS gf180mcu_fd_sc_mcu9t5v0__nand2_2
X_1500_ transfer_count\[3\]\[25\] _0845_ _1072_ VDD VSS gf180mcu_fd_sc_mcu9t5v0__xor2_2
X_1501_ _0837_ _0841_ _0846_ VDD VSS gf180mcu_fd_sc_mcu9t5v0__and2_2