* CDL Netlist generated by OpenROAD

*.BUSDELIMITER [

.SUBCKT radix4_booth_multiplier clk done multiplicand[0] multiplicand[1]
+ multiplicand[2] multiplicand[3] multiplicand[4] multiplicand[5]
+ multiplicand[6] multiplicand[7] multiplier[0] multiplier[1]
+ multiplier[2] multiplier[3] multiplier[4] multiplier[5] multiplier[6]
+ multiplier[7] product[0] product[10] product[11] product[12]
+ product[13] product[14] product[15] product[1] product[2]
+ product[3] product[4] product[5] product[6] product[7] product[8]
+ product[9] rst_n start
X_386_ b_reg\[0\] _033_ VDD VSS gf180mcu_fd_sc_mcu9t5v0__buf_4
X_387_ _033_ a_reg\[6\] _101_ VDD VSS gf180mcu_fd_sc_mcu9t5v0__nand2_2
X_388_ b_reg\[1\] a_reg\[5\] _100_ VDD VSS gf180mcu_fd_sc_mcu9t5v0__nand2_2
X_389_ b_reg\[2\] a_reg\[4\] _099_ VDD VSS gf180mcu_fd_sc_mcu9t5v0__nand2_2
X_390_ b_reg\[1\] a_reg\[4\] _113_ VDD VSS gf180mcu_fd_sc_mcu9t5v0__and2_2
X_391_ b_reg\[2\] a_reg\[3\] _112_ VDD VSS gf180mcu_fd_sc_mcu9t5v0__and2_2
X_392_ a_reg\[3\] b_reg\[3\] _106_ VDD VSS gf180mcu_fd_sc_mcu9t5v0__and2_2
X_393_ b_reg\[4\] a_reg\[2\] _105_ VDD VSS gf180mcu_fd_sc_mcu9t5v0__and2_2
X_394_ b_reg\[5\] a_reg\[1\] _104_ VDD VSS gf180mcu_fd_sc_mcu9t5v0__and2_2
X_395_ b_reg\[1\] a_reg\[3\] _131_ VDD VSS gf180mcu_fd_sc_mcu9t5v0__and2_2
X_396_ b_reg\[2\] a_reg\[2\] _130_ VDD VSS gf180mcu_fd_sc_mcu9t5v0__and2_2
X_397_ a_reg\[0\] b_reg\[6\] _298_ VDD VSS gf180mcu_fd_sc_mcu9t5v0__and2_2
X_398_ _033_ a_reg\[3\] _146_ VDD VSS gf180mcu_fd_sc_mcu9t5v0__nand2_2
X_399_ b_reg\[3\] a_reg\[1\] _301_ VDD VSS gf180mcu_fd_sc_mcu9t5v0__and2_2
X_400_ b_reg\[4\] a_reg\[0\] _300_ VDD VSS gf180mcu_fd_sc_mcu9t5v0__and2_2
X_401_ _033_ a_reg\[2\] _154_ VDD VSS gf180mcu_fd_sc_mcu9t5v0__nand2_2
X_402_ b_reg\[3\] a_reg\[0\] _149_ VDD VSS gf180mcu_fd_sc_mcu9t5v0__and2_2
X_403_ _033_ a_reg\[1\] _376_ VDD VSS gf180mcu_fd_sc_mcu9t5v0__and2_2
X_404_ b_reg\[1\] a_reg\[0\] _377_ VDD VSS gf180mcu_fd_sc_mcu9t5v0__and2_2
X_405_ a_reg\[6\] b_reg\[1\] _164_ VDD VSS gf180mcu_fd_sc_mcu9t5v0__nand2_2
X_406_ a_reg\[5\] b_reg\[2\] _168_ VDD VSS gf180mcu_fd_sc_mcu9t5v0__nand2_2
X_407_ a_reg\[4\] b_reg\[3\] _170_ VDD VSS gf180mcu_fd_sc_mcu9t5v0__nand2_2
X_408_ a_reg\[3\] b_reg\[4\] _169_ VDD VSS gf180mcu_fd_sc_mcu9t5v0__nand2_2
X_409_ b_reg\[7\] _163_ VDD VSS gf180mcu_fd_sc_mcu9t5v0__inv_4
X_410_ a_reg\[0\] _163_ _175_ VDD VSS gf180mcu_fd_sc_mcu9t5v0__or2_2
X_411_ _187_ _183_ VDD VSS gf180mcu_fd_sc_mcu9t5v0__clkinv_2
X_412_ a_reg\[6\] b_reg\[2\] _320_ VDD VSS gf180mcu_fd_sc_mcu9t5v0__and2_2
X_413_ a_reg\[5\] b_reg\[3\] _190_ VDD VSS gf180mcu_fd_sc_mcu9t5v0__nand2_2
X_414_ a_reg\[4\] b_reg\[4\] _189_ VDD VSS gf180mcu_fd_sc_mcu9t5v0__nand2_2
X_415_ a_reg\[3\] b_reg\[5\] _188_ VDD VSS gf180mcu_fd_sc_mcu9t5v0__nand2_2
X_416_ a_reg\[2\] b_reg\[6\] _325_ VDD VSS gf180mcu_fd_sc_mcu9t5v0__and2_2
X_417_ a_reg\[1\] _163_ _324_ VDD VSS gf180mcu_fd_sc_mcu9t5v0__nor2_2
X_418_ b_reg\[2\] a_reg\[7\] _330_ VDD VSS gf180mcu_fd_sc_mcu9t5v0__and2_2
X_419_ _033_ b_reg\[1\] a_reg\[7\] _034_ VDD VSS gf180mcu_fd_sc_mcu9t5v0__and3_2
X_420_ _322_ _034_ _211_ VDD VSS gf180mcu_fd_sc_mcu9t5v0__nor2_2
X_421_ a_reg\[6\] b_reg\[3\] _207_ VDD VSS gf180mcu_fd_sc_mcu9t5v0__nand2_2
X_422_ a_reg\[5\] b_reg\[4\] _208_ VDD VSS gf180mcu_fd_sc_mcu9t5v0__nand2_2
X_423_ a_reg\[4\] b_reg\[5\] _206_ VDD VSS gf180mcu_fd_sc_mcu9t5v0__nand2_2
X_424_ a_reg\[3\] b_reg\[6\] _334_ VDD VSS gf180mcu_fd_sc_mcu9t5v0__and2_2
X_425_ a_reg\[2\] _163_ _333_ VDD VSS gf180mcu_fd_sc_mcu9t5v0__nor2_2
X_426_ _331_ _034_ _231_ VDD VSS gf180mcu_fd_sc_mcu9t5v0__nor2_4
X_427_ b_reg\[3\] a_reg\[7\] _225_ VDD VSS gf180mcu_fd_sc_mcu9t5v0__and2_2
X_428_ a_reg\[6\] b_reg\[4\] _226_ VDD VSS gf180mcu_fd_sc_mcu9t5v0__and2_2
X_429_ a_reg\[5\] b_reg\[5\] _227_ VDD VSS gf180mcu_fd_sc_mcu9t5v0__and2_2
X_430_ a_reg\[4\] b_reg\[6\] _338_ VDD VSS gf180mcu_fd_sc_mcu9t5v0__and2_2
X_431_ a_reg\[3\] _163_ _339_ VDD VSS gf180mcu_fd_sc_mcu9t5v0__nor2_2
X_432_ _314_ _158_ VDD VSS gf180mcu_fd_sc_mcu9t5v0__clkinv_2
X_433_ b_reg\[4\] a_reg\[7\] _246_ VDD VSS gf180mcu_fd_sc_mcu9t5v0__and2_2
X_434_ a_reg\[6\] b_reg\[5\] _245_ VDD VSS gf180mcu_fd_sc_mcu9t5v0__and2_2
X_435_ a_reg\[5\] b_reg\[6\] _344_ VDD VSS gf180mcu_fd_sc_mcu9t5v0__and2_2
X_436_ a_reg\[4\] _163_ _345_ VDD VSS gf180mcu_fd_sc_mcu9t5v0__nor2_2
X_437_ b_reg\[5\] a_reg\[7\] _262_ VDD VSS gf180mcu_fd_sc_mcu9t5v0__and2_2
X_438_ a_reg\[6\] b_reg\[6\] _351_ VDD VSS gf180mcu_fd_sc_mcu9t5v0__and2_2
X_439_ a_reg\[5\] _163_ _352_ VDD VSS gf180mcu_fd_sc_mcu9t5v0__nor2_2
X_440_ b_reg\[6\] a_reg\[7\] _361_ VDD VSS gf180mcu_fd_sc_mcu9t5v0__and2_2
X_441_ a_reg\[6\] _163_ _360_ VDD VSS gf180mcu_fd_sc_mcu9t5v0__nor2_2
X_442_ b_reg\[5\] a_reg\[0\] _117_ VDD VSS gf180mcu_fd_sc_mcu9t5v0__nand2_2
X_443_ b_reg\[2\] a_reg\[1\] _144_ VDD VSS gf180mcu_fd_sc_mcu9t5v0__nand2_2
X_444_ b_reg\[2\] a_reg\[0\] _153_ VDD VSS gf180mcu_fd_sc_mcu9t5v0__nand2_2
X_445_ b_reg\[4\] a_reg\[1\] _118_ VDD VSS gf180mcu_fd_sc_mcu9t5v0__nand2_2
X_446_ _302_ _135_ VDD VSS gf180mcu_fd_sc_mcu9t5v0__clkinv_2
X_447_ b_reg\[1\] a_reg\[2\] _145_ VDD VSS gf180mcu_fd_sc_mcu9t5v0__nand2_2
X_448_ a_reg\[2\] b_reg\[5\] _176_ VDD VSS gf180mcu_fd_sc_mcu9t5v0__nand2_2
X_449_ b_reg\[3\] a_reg\[2\] _119_ VDD VSS gf180mcu_fd_sc_mcu9t5v0__nand2_2
X_450_ b_reg\[1\] a_reg\[1\] _155_ VDD VSS gf180mcu_fd_sc_mcu9t5v0__nand2_2
X_451_ _033_ a_reg\[7\] _165_ VDD VSS gf180mcu_fd_sc_mcu9t5v0__nand2_2
X_452_ a_reg\[1\] b_reg\[6\] _177_ VDD VSS gf180mcu_fd_sc_mcu9t5v0__nand2_2
X_453_ _116_ _128_ VDD VSS gf180mcu_fd_sc_mcu9t5v0__clkinv_2
X_454_ _126_ _304_ VDD VSS gf180mcu_fd_sc_mcu9t5v0__clkinv_2
X_455_ _133_ _140_ VDD VSS gf180mcu_fd_sc_mcu9t5v0__clkinv_2
X_456_ _219_ _220_ VDD VSS gf180mcu_fd_sc_mcu9t5v0__clkinv_2
X_457_ _229_ _230_ VDD VSS gf180mcu_fd_sc_mcu9t5v0__clkinv_2
X_458_ _238_ _239_ VDD VSS gf180mcu_fd_sc_mcu9t5v0__clkinv_2
X_459_ _248_ _249_ VDD VSS gf180mcu_fd_sc_mcu9t5v0__clkinv_2
X_460_ _255_ _256_ VDD VSS gf180mcu_fd_sc_mcu9t5v0__clkinv_2
X_461_ _264_ _265_ VDD VSS gf180mcu_fd_sc_mcu9t5v0__clkinv_2
X_462_ _271_ _272_ VDD VSS gf180mcu_fd_sc_mcu9t5v0__clkinv_2
X_463_ _281_ _282_ VDD VSS gf180mcu_fd_sc_mcu9t5v0__clkinv_2
X_464_ _291_ _292_ VDD VSS gf180mcu_fd_sc_mcu9t5v0__clkinv_2
X_465_ _115_ _109_ VDD VSS gf180mcu_fd_sc_mcu9t5v0__clkinv_2
X_466_ _125_ _184_ VDD VSS gf180mcu_fd_sc_mcu9t5v0__clkinv_2
X_467_ _141_ _134_ VDD VSS gf180mcu_fd_sc_mcu9t5v0__clkinv_2
X_468_ _218_ _242_ VDD VSS gf180mcu_fd_sc_mcu9t5v0__clkinv_2
X_469_ _237_ _259_ VDD VSS gf180mcu_fd_sc_mcu9t5v0__clkinv_2
X_470_ _254_ _275_ VDD VSS gf180mcu_fd_sc_mcu9t5v0__clkinv_2
X_471_ _270_ _285_ VDD VSS gf180mcu_fd_sc_mcu9t5v0__clkinv_2
X_472_ _280_ _295_ VDD VSS gf180mcu_fd_sc_mcu9t5v0__clkinv_2
X_473_ _143_ _139_ VDD VSS gf180mcu_fd_sc_mcu9t5v0__clkinv_2
X_474_ _136_ _303_ VDD VSS gf180mcu_fd_sc_mcu9t5v0__clkinv_2
X_475_ _147_ _148_ VDD VSS gf180mcu_fd_sc_mcu9t5v0__clkinv_2
X_476_ _137_ _310_ VDD VSS gf180mcu_fd_sc_mcu9t5v0__clkinv_2
X_477_ _179_ _315_ VDD VSS gf180mcu_fd_sc_mcu9t5v0__clkinv_2
X_478_ _186_ _317_ VDD VSS gf180mcu_fd_sc_mcu9t5v0__clkinv_2
X_479_ _200_ _201_ VDD VSS gf180mcu_fd_sc_mcu9t5v0__clkinv_2
X_480_ _185_ _327_ VDD VSS gf180mcu_fd_sc_mcu9t5v0__clkinv_2
X_481_ _223_ _340_ VDD VSS gf180mcu_fd_sc_mcu9t5v0__clkinv_2
X_482_ _243_ _346_ VDD VSS gf180mcu_fd_sc_mcu9t5v0__clkinv_2
X_483_ _267_ _350_ VDD VSS gf180mcu_fd_sc_mcu9t5v0__clkinv_2
X_484_ _277_ _353_ VDD VSS gf180mcu_fd_sc_mcu9t5v0__clkinv_2
X_485_ _287_ _362_ VDD VSS gf180mcu_fd_sc_mcu9t5v0__clkinv_2
X_486_ _286_ _370_ VDD VSS gf180mcu_fd_sc_mcu9t5v0__clkinv_2
X_487_ _033_ a_reg\[5\] _114_ VDD VSS gf180mcu_fd_sc_mcu9t5v0__and2_2
X_488_ _033_ a_reg\[4\] _132_ VDD VSS gf180mcu_fd_sc_mcu9t5v0__and2_2
X_489_ _111_ _124_ VDD VSS gf180mcu_fd_sc_mcu9t5v0__clkinv_2
X_490_ _120_ _299_ VDD VSS gf180mcu_fd_sc_mcu9t5v0__clkinv_2
X_491_ _156_ _150_ VDD VSS gf180mcu_fd_sc_mcu9t5v0__clkinv_2
X_492_ _181_ _202_ VDD VSS gf180mcu_fd_sc_mcu9t5v0__clkinv_2
X_493_ b_reg\[0\] b_reg\[1\] _035_ VDD VSS gf180mcu_fd_sc_mcu9t5v0__xor2_2
X_494_ a_reg\[7\] _035_ _321_ VDD VSS gf180mcu_fd_sc_mcu9t5v0__and2_2
X_495_ _191_ _216_ VDD VSS gf180mcu_fd_sc_mcu9t5v0__clkinv_2
X_496_ _224_ _335_ VDD VSS gf180mcu_fd_sc_mcu9t5v0__clkinv_2
X_497_ _209_ _236_ VDD VSS gf180mcu_fd_sc_mcu9t5v0__clkinv_2
X_498_ _244_ _341_ VDD VSS gf180mcu_fd_sc_mcu9t5v0__clkinv_2
X_499_ _261_ _347_ VDD VSS gf180mcu_fd_sc_mcu9t5v0__clkinv_2
X_500_ _260_ _354_ VDD VSS gf180mcu_fd_sc_mcu9t5v0__clkinv_2
X_501_ _266_ _357_ VDD VSS gf180mcu_fd_sc_mcu9t5v0__clkinv_2
X_502_ _276_ _363_ VDD VSS gf180mcu_fd_sc_mcu9t5v0__clkinv_2
X_503_ a_reg\[7\] _163_ _366_ VDD VSS gf180mcu_fd_sc_mcu9t5v0__nor2_2
X_504_ _297_ _371_ VDD VSS gf180mcu_fd_sc_mcu9t5v0__clkinv_2
X_505_ _157_ _380_ VDD VSS gf180mcu_fd_sc_mcu9t5v0__clkinv_2
X_506_ _306_ _160_ VDD VSS gf180mcu_fd_sc_mcu9t5v0__clkinv_2
X_507_ _316_ _180_ VDD VSS gf180mcu_fd_sc_mcu9t5v0__clkinv_2
X_508_ _323_ _193_ VDD VSS gf180mcu_fd_sc_mcu9t5v0__clkinv_2
X_509_ _332_ _212_ VDD VSS gf180mcu_fd_sc_mcu9t5v0__inv_2
X_510_ _326_ _196_ VDD VSS gf180mcu_fd_sc_mcu9t5v0__clkinv_2
X_511_ _307_ _159_ VDD VSS gf180mcu_fd_sc_mcu9t5v0__clkinv_2
X_512_ state\[0\] _036_ VDD VSS gf180mcu_fd_sc_mcu9t5v0__clkinv_2
X_513_ _036_ net18 _037_ VDD VSS gf180mcu_fd_sc_mcu9t5v0__nand2_2
X_514_ state\[1\] _037_ _038_ VDD VSS gf180mcu_fd_sc_mcu9t5v0__or2_4
X_515_ _038_ _039_ VDD VSS gf180mcu_fd_sc_mcu9t5v0__clkbuf_8
X_516_ net2 a_reg\[0\] _039_ _000_ VDD VSS gf180mcu_fd_sc_mcu9t5v0__mux2_2
X_517_ net3 a_reg\[1\] _039_ _001_ VDD VSS gf180mcu_fd_sc_mcu9t5v0__mux2_2
X_518_ net4 a_reg\[2\] _039_ _002_ VDD VSS gf180mcu_fd_sc_mcu9t5v0__mux2_2
X_519_ net5 a_reg\[3\] _039_ _003_ VDD VSS gf180mcu_fd_sc_mcu9t5v0__mux2_2
X_520_ net6 a_reg\[4\] _039_ _004_ VDD VSS gf180mcu_fd_sc_mcu9t5v0__mux2_2
X_521_ net7 a_reg\[5\] _039_ _005_ VDD VSS gf180mcu_fd_sc_mcu9t5v0__mux2_2
X_522_ net8 a_reg\[6\] _039_ _006_ VDD VSS gf180mcu_fd_sc_mcu9t5v0__mux2_2
X_523_ net9 a_reg\[7\] _039_ _007_ VDD VSS gf180mcu_fd_sc_mcu9t5v0__mux2_2
X_524_ net10 _033_ _039_ _008_ VDD VSS gf180mcu_fd_sc_mcu9t5v0__mux2_2
X_525_ net11 b_reg\[1\] _038_ _009_ VDD VSS gf180mcu_fd_sc_mcu9t5v0__mux2_2
X_526_ net12 b_reg\[2\] _038_ _010_ VDD VSS gf180mcu_fd_sc_mcu9t5v0__mux2_2
X_527_ net13 b_reg\[3\] _038_ _011_ VDD VSS gf180mcu_fd_sc_mcu9t5v0__mux2_2
X_528_ net14 b_reg\[4\] _038_ _012_ VDD VSS gf180mcu_fd_sc_mcu9t5v0__mux2_2
X_529_ net15 b_reg\[5\] _038_ _013_ VDD VSS gf180mcu_fd_sc_mcu9t5v0__mux2_2
X_530_ net16 b_reg\[6\] _038_ _014_ VDD VSS gf180mcu_fd_sc_mcu9t5v0__mux2_2
X_531_ net17 b_reg\[7\] _038_ _015_ VDD VSS gf180mcu_fd_sc_mcu9t5v0__mux2_2
X_532_ state\[1\] _036_ net19 _037_ _040_ VDD VSS gf180mcu_fd_sc_mcu9t5v0__aoi22_2
X_533_ _040_ _016_ VDD VSS gf180mcu_fd_sc_mcu9t5v0__clkinv_2
X_534_ _033_ a_reg\[0\] _041_ VDD VSS gf180mcu_fd_sc_mcu9t5v0__and2_2
X_535_ state\[1\] _042_ VDD VSS gf180mcu_fd_sc_mcu9t5v0__clkinv_2
X_536_ _042_ state\[0\] _043_ VDD VSS gf180mcu_fd_sc_mcu9t5v0__nand2_4
X_537_ _043_ _044_ VDD VSS gf180mcu_fd_sc_mcu9t5v0__clkinv_2
X_538_ _044_ next_state\[1\] VDD VSS gf180mcu_fd_sc_mcu9t5v0__clkbuf_8
X_539_ net20 _041_ next_state\[1\] _017_ VDD VSS gf180mcu_fd_sc_mcu9t5v0__mux2_2
X_540_ _309_ _314_ _308_ _318_ _045_ VDD VSS gf180mcu_fd_sc_mcu9t5v0__aoi211_2
X_541_ _319_ _318_ _329_ _046_ VDD VSS gf180mcu_fd_sc_mcu9t5v0__oai21_2
X_542_ _328_ _047_ VDD VSS gf180mcu_fd_sc_mcu9t5v0__clkinv_2
X_543_ _045_ _046_ _047_ _048_ VDD VSS gf180mcu_fd_sc_mcu9t5v0__oai21_2
X_544_ _337_ _048_ _336_ _049_ VDD VSS gf180mcu_fd_sc_mcu9t5v0__aoi21_4
X_545_ _343_ _049_ _050_ VDD VSS gf180mcu_fd_sc_mcu9t5v0__xnor2_2
X_546_ net21 _050_ next_state\[1\] _018_ VDD VSS gf180mcu_fd_sc_mcu9t5v0__mux2_2
X_547_ _161_ _051_ VDD VSS gf180mcu_fd_sc_mcu9t5v0__clkinv_2
X_548_ _319_ _051_ _318_ _328_ _052_ VDD VSS gf180mcu_fd_sc_mcu9t5v0__aoi211_4
X_549_ _329_ _328_ _337_ _053_ VDD VSS gf180mcu_fd_sc_mcu9t5v0__oai21_2
X_550_ _336_ _054_ VDD VSS gf180mcu_fd_sc_mcu9t5v0__clkinv_2
X_551_ _052_ _053_ _054_ _055_ VDD VSS gf180mcu_fd_sc_mcu9t5v0__oai21_2
X_552_ _343_ _055_ _342_ _056_ VDD VSS gf180mcu_fd_sc_mcu9t5v0__aoi21_2
X_553_ _349_ _056_ _057_ VDD VSS gf180mcu_fd_sc_mcu9t5v0__xnor2_2
X_554_ net22 _057_ next_state\[1\] _019_ VDD VSS gf180mcu_fd_sc_mcu9t5v0__mux2_2
X_555_ _343_ _349_ _058_ VDD VSS gf180mcu_fd_sc_mcu9t5v0__nand2_2
X_556_ _349_ _342_ _348_ _059_ VDD VSS gf180mcu_fd_sc_mcu9t5v0__aoi21_2
X_557_ _049_ _058_ _059_ _060_ VDD VSS gf180mcu_fd_sc_mcu9t5v0__oai21_2
X_558_ _356_ _060_ _061_ VDD VSS gf180mcu_fd_sc_mcu9t5v0__xor2_2
X_559_ net23 _061_ next_state\[1\] _020_ VDD VSS gf180mcu_fd_sc_mcu9t5v0__mux2_2
X_560_ _059_ _062_ VDD VSS gf180mcu_fd_sc_mcu9t5v0__clkinv_2
X_561_ _343_ _349_ _356_ _063_ VDD VSS gf180mcu_fd_sc_mcu9t5v0__and3_2
X_562_ _356_ _062_ _063_ _055_ _355_ _064_ VDD VSS gf180mcu_fd_sc_mcu9t5v0__aoi221_2
X_563_ _365_ _064_ _065_ VDD VSS gf180mcu_fd_sc_mcu9t5v0__xnor2_2
X_564_ net24 _065_ next_state\[1\] _021_ VDD VSS gf180mcu_fd_sc_mcu9t5v0__mux2_2
X_565_ net25 _043_ _066_ VDD VSS gf180mcu_fd_sc_mcu9t5v0__and2_2
X_566_ _349_ _356_ _365_ _067_ VDD VSS gf180mcu_fd_sc_mcu9t5v0__and3_2
X_567_ _343_ _067_ _068_ VDD VSS gf180mcu_fd_sc_mcu9t5v0__nand2_2
X_568_ _373_ _068_ _069_ VDD VSS gf180mcu_fd_sc_mcu9t5v0__nand2_2
X_569_ _356_ _365_ _070_ VDD VSS gf180mcu_fd_sc_mcu9t5v0__and2_2
X_570_ _365_ _355_ _062_ _070_ _364_ _071_ VDD VSS gf180mcu_fd_sc_mcu9t5v0__aoi221_4
X_571_ _373_ _069_ _071_ _072_ VDD VSS gf180mcu_fd_sc_mcu9t5v0__mux2_2
X_572_ _043_ _072_ _073_ VDD VSS gf180mcu_fd_sc_mcu9t5v0__nor2_2
X_573_ _373_ _043_ _049_ _068_ _074_ VDD VSS gf180mcu_fd_sc_mcu9t5v0__nor4_2
X_574_ _373_ _044_ _049_ _071_ _075_ VDD VSS gf180mcu_fd_sc_mcu9t5v0__and4_2
X_575_ _066_ _073_ _074_ _075_ _022_ VDD VSS gf180mcu_fd_sc_mcu9t5v0__or4_2
X_576_ _293_ _296_ _076_ VDD VSS gf180mcu_fd_sc_mcu9t5v0__xor2_2
X_577_ _290_ _369_ _076_ _077_ VDD VSS gf180mcu_fd_sc_mcu9t5v0__xnor3_2
X_578_ _367_ _359_ _077_ _078_ VDD VSS gf180mcu_fd_sc_mcu9t5v0__xnor3_2
X_579_ _342_ _079_ VDD VSS gf180mcu_fd_sc_mcu9t5v0__clkinv_2
X_580_ _052_ _053_ _054_ _079_ _080_ VDD VSS gf180mcu_fd_sc_mcu9t5v0__oai211_2
X_581_ _343_ _342_ _081_ VDD VSS gf180mcu_fd_sc_mcu9t5v0__or2_2
X_582_ _373_ _067_ _081_ _082_ VDD VSS gf180mcu_fd_sc_mcu9t5v0__and3_2
X_583_ _356_ _348_ _083_ VDD VSS gf180mcu_fd_sc_mcu9t5v0__and2_2
X_584_ _355_ _083_ _365_ _373_ _084_ VDD VSS gf180mcu_fd_sc_mcu9t5v0__oai211_2
X_585_ _373_ _364_ _372_ _085_ VDD VSS gf180mcu_fd_sc_mcu9t5v0__aoi21_2
X_586_ _084_ _085_ _086_ VDD VSS gf180mcu_fd_sc_mcu9t5v0__nand2_2
X_587_ _080_ _082_ _086_ _087_ VDD VSS gf180mcu_fd_sc_mcu9t5v0__aoi21_2
X_588_ _078_ _087_ _088_ VDD VSS gf180mcu_fd_sc_mcu9t5v0__xnor2_2
X_589_ net26 _088_ next_state\[1\] _023_ VDD VSS gf180mcu_fd_sc_mcu9t5v0__mux2_2
X_590_ _379_ net27 _043_ _024_ VDD VSS gf180mcu_fd_sc_mcu9t5v0__mux2_2
X_591_ _382_ net28 _043_ _025_ VDD VSS gf180mcu_fd_sc_mcu9t5v0__mux2_2
X_592_ _384_ net29 _043_ _026_ VDD VSS gf180mcu_fd_sc_mcu9t5v0__mux2_2
X_593_ _385_ net30 _043_ _027_ VDD VSS gf180mcu_fd_sc_mcu9t5v0__mux2_2
X_594_ _375_ net31 _043_ _028_ VDD VSS gf180mcu_fd_sc_mcu9t5v0__mux2_2
X_595_ _162_ _089_ VDD VSS gf180mcu_fd_sc_mcu9t5v0__clkinv_2
X_596_ _089_ net32 _043_ _029_ VDD VSS gf180mcu_fd_sc_mcu9t5v0__mux2_2
X_597_ _319_ _161_ _090_ VDD VSS gf180mcu_fd_sc_mcu9t5v0__xnor2_2
X_598_ net33 _090_ next_state\[1\] _030_ VDD VSS gf180mcu_fd_sc_mcu9t5v0__mux2_2
X_599_ _309_ _314_ _091_ VDD VSS gf180mcu_fd_sc_mcu9t5v0__and2_2
X_600_ _308_ _091_ _092_ VDD VSS gf180mcu_fd_sc_mcu9t5v0__or2_2
X_601_ _319_ _092_ _318_ _093_ VDD VSS gf180mcu_fd_sc_mcu9t5v0__aoi21_2
X_602_ _329_ _093_ _094_ VDD VSS gf180mcu_fd_sc_mcu9t5v0__xnor2_2
X_603_ net34 _094_ next_state\[1\] _031_ VDD VSS gf180mcu_fd_sc_mcu9t5v0__mux2_2
X_604_ _319_ _051_ _095_ VDD VSS gf180mcu_fd_sc_mcu9t5v0__and2_2
X_605_ _318_ _095_ _329_ _096_ VDD VSS gf180mcu_fd_sc_mcu9t5v0__oai21_2
X_606_ _047_ _096_ _097_ VDD VSS gf180mcu_fd_sc_mcu9t5v0__and2_2
X_607_ _337_ _097_ _098_ VDD VSS gf180mcu_fd_sc_mcu9t5v0__xnor2_2
X_608_ net35 _098_ next_state\[1\] _032_ VDD VSS gf180mcu_fd_sc_mcu9t5v0__mux2_2
X_609_ _039_ next_state\[0\] VDD VSS gf180mcu_fd_sc_mcu9t5v0__clkinv_2
X_610_ _099_ _100_ _101_ _102_ _103_ VDD VSS gf180mcu_fd_sc_mcu9t5v0__addf_1
X_611_ _104_ _105_ _106_ _107_ _108_ VDD VSS gf180mcu_fd_sc_mcu9t5v0__addf_1
X_612_ _108_ _109_ _103_ _110_ _111_ VDD VSS gf180mcu_fd_sc_mcu9t5v0__addf_1
X_613_ _112_ _113_ _114_ _115_ _116_ VDD VSS gf180mcu_fd_sc_mcu9t5v0__addf_1
X_614_ _117_ _118_ _119_ _120_ _121_ VDD VSS gf180mcu_fd_sc_mcu9t5v0__addf_1
X_615_ _122_ _123_ _124_ _125_ _126_ VDD VSS gf180mcu_fd_sc_mcu9t5v0__addf_1
X_616_ _121_ _127_ _128_ _123_ _129_ VDD VSS gf180mcu_fd_sc_mcu9t5v0__addf_1
X_617_ _130_ _131_ _132_ _127_ _133_ VDD VSS gf180mcu_fd_sc_mcu9t5v0__addf_1
X_618_ _134_ _135_ _129_ _136_ _137_ VDD VSS gf180mcu_fd_sc_mcu9t5v0__addf_1
X_619_ _138_ _139_ _140_ _141_ _142_ VDD VSS gf180mcu_fd_sc_mcu9t5v0__addf_1
X_620_ _144_ _145_ _146_ _143_ _147_ VDD VSS gf180mcu_fd_sc_mcu9t5v0__addf_1
X_621_ _148_ _149_ _150_ _151_ _152_ VDD VSS gf180mcu_fd_sc_mcu9t5v0__addf_1
X_622_ _153_ _154_ _155_ _156_ _157_ VDD VSS gf180mcu_fd_sc_mcu9t5v0__addf_1
X_623_ _158_ _159_ _160_ _161_ _162_ VDD VSS gf180mcu_fd_sc_mcu9t5v0__addf_2
X_624_ _163_ _164_ _165_ _166_ _167_ VDD VSS gf180mcu_fd_sc_mcu9t5v0__addf_1
X_625_ _168_ _169_ _170_ _171_ _172_ VDD VSS gf180mcu_fd_sc_mcu9t5v0__addf_1
X_626_ _167_ _172_ _102_ _173_ _174_ VDD VSS gf180mcu_fd_sc_mcu9t5v0__addf_1
X_627_ _175_ _176_ _177_ _178_ _179_ VDD VSS gf180mcu_fd_sc_mcu9t5v0__addf_1
X_628_ _180_ _174_ _110_ _181_ _182_ VDD VSS gf180mcu_fd_sc_mcu9t5v0__addf_1
X_629_ _183_ _182_ _184_ _185_ _186_ VDD VSS gf180mcu_fd_sc_mcu9t5v0__addf_1
X_630_ _188_ _189_ _190_ _191_ _192_ VDD VSS gf180mcu_fd_sc_mcu9t5v0__addf_1
X_631_ _192_ _193_ _166_ _194_ _195_ VDD VSS gf180mcu_fd_sc_mcu9t5v0__addf_1
X_632_ _196_ _171_ _178_ _197_ _198_ VDD VSS gf180mcu_fd_sc_mcu9t5v0__addf_1
X_633_ _195_ _173_ _198_ _199_ _200_ VDD VSS gf180mcu_fd_sc_mcu9t5v0__addf_1
X_634_ _201_ _202_ _203_ _204_ _205_ VDD VSS gf180mcu_fd_sc_mcu9t5v0__addf_1
X_635_ _206_ _207_ _208_ _209_ _210_ VDD VSS gf180mcu_fd_sc_mcu9t5v0__addf_1
X_636_ _210_ _211_ _212_ _213_ _214_ VDD VSS gf180mcu_fd_sc_mcu9t5v0__addf_1
X_637_ _215_ _216_ _217_ _218_ _219_ VDD VSS gf180mcu_fd_sc_mcu9t5v0__addf_1
X_638_ _214_ _220_ _194_ _221_ _222_ VDD VSS gf180mcu_fd_sc_mcu9t5v0__addf_1
X_639_ _199_ _197_ _222_ _223_ _224_ VDD VSS gf180mcu_fd_sc_mcu9t5v0__addf_1
X_640_ _225_ _226_ _227_ _228_ _229_ VDD VSS gf180mcu_fd_sc_mcu9t5v0__addf_1
X_641_ _230_ _231_ _212_ _232_ _233_ VDD VSS gf180mcu_fd_sc_mcu9t5v0__addf_1
X_642_ _234_ _235_ _236_ _237_ _238_ VDD VSS gf180mcu_fd_sc_mcu9t5v0__addf_1
X_643_ _239_ _213_ _233_ _240_ _241_ VDD VSS gf180mcu_fd_sc_mcu9t5v0__addf_1
X_644_ _241_ _242_ _221_ _243_ _244_ VDD VSS gf180mcu_fd_sc_mcu9t5v0__addf_1
X_645_ _245_ _246_ _225_ _247_ _248_ VDD VSS gf180mcu_fd_sc_mcu9t5v0__addf_1
X_646_ _249_ _231_ _212_ _250_ _251_ VDD VSS gf180mcu_fd_sc_mcu9t5v0__addf_1
X_647_ _228_ _252_ _253_ _254_ _255_ VDD VSS gf180mcu_fd_sc_mcu9t5v0__addf_1
X_648_ _232_ _251_ _256_ _257_ _258_ VDD VSS gf180mcu_fd_sc_mcu9t5v0__addf_1
X_649_ _258_ _240_ _259_ _260_ _261_ VDD VSS gf180mcu_fd_sc_mcu9t5v0__addf_1
X_650_ _246_ _225_ _262_ _263_ _264_ VDD VSS gf180mcu_fd_sc_mcu9t5v0__addf_2
X_651_ _231_ _212_ _265_ _266_ _267_ VDD VSS gf180mcu_fd_sc_mcu9t5v0__addf_4
X_652_ _247_ _268_ _269_ _270_ _271_ VDD VSS gf180mcu_fd_sc_mcu9t5v0__addf_1
X_653_ _267_ _250_ _272_ _273_ _274_ VDD VSS gf180mcu_fd_sc_mcu9t5v0__addf_1
X_654_ _257_ _274_ _275_ _276_ _277_ VDD VSS gf180mcu_fd_sc_mcu9t5v0__addf_1
X_655_ _278_ _279_ _263_ _280_ _281_ VDD VSS gf180mcu_fd_sc_mcu9t5v0__addf_1
X_656_ _267_ _266_ _282_ _283_ _284_ VDD VSS gf180mcu_fd_sc_mcu9t5v0__addf_1
X_657_ _285_ _273_ _284_ _286_ _287_ VDD VSS gf180mcu_fd_sc_mcu9t5v0__addf_1
X_658_ _263_ _288_ _289_ _290_ _291_ VDD VSS gf180mcu_fd_sc_mcu9t5v0__addf_1
X_659_ _267_ _266_ _292_ _293_ _294_ VDD VSS gf180mcu_fd_sc_mcu9t5v0__addf_1
X_660_ _283_ _295_ _294_ _296_ _297_ VDD VSS gf180mcu_fd_sc_mcu9t5v0__addf_1
X_661_ _298_ _299_ _187_ _122_ VDD VSS gf180mcu_fd_sc_mcu9t5v0__addh_1
X_662_ _300_ _301_ _302_ _138_ VDD VSS gf180mcu_fd_sc_mcu9t5v0__addh_1
X_663_ _303_ _304_ _305_ _306_ VDD VSS gf180mcu_fd_sc_mcu9t5v0__addh_1
X_664_ _307_ _306_ _308_ _309_ VDD VSS gf180mcu_fd_sc_mcu9t5v0__addh_1
X_665_ _310_ _311_ _307_ _312_ VDD VSS gf180mcu_fd_sc_mcu9t5v0__addh_1
X_666_ _142_ _151_ _311_ _313_ VDD VSS gf180mcu_fd_sc_mcu9t5v0__addh_1
X_667_ _315_ _107_ _203_ _316_ VDD VSS gf180mcu_fd_sc_mcu9t5v0__addh_1
X_668_ _317_ _305_ _318_ _319_ VDD VSS gf180mcu_fd_sc_mcu9t5v0__addh_2
X_669_ _320_ _321_ _322_ _323_ VDD VSS gf180mcu_fd_sc_mcu9t5v0__addh_1
X_670_ _324_ _325_ _217_ _326_ VDD VSS gf180mcu_fd_sc_mcu9t5v0__addh_1
X_671_ _327_ _205_ _328_ _329_ VDD VSS gf180mcu_fd_sc_mcu9t5v0__addh_2
X_672_ _330_ _321_ _331_ _332_ VDD VSS gf180mcu_fd_sc_mcu9t5v0__addh_1
X_673_ _333_ _334_ _234_ _215_ VDD VSS gf180mcu_fd_sc_mcu9t5v0__addh_1
X_674_ _204_ _335_ _336_ _337_ VDD VSS gf180mcu_fd_sc_mcu9t5v0__addh_2
X_675_ _338_ _339_ _253_ _235_ VDD VSS gf180mcu_fd_sc_mcu9t5v0__addh_1
X_676_ _340_ _341_ _342_ _343_ VDD VSS gf180mcu_fd_sc_mcu9t5v0__addh_2
X_677_ _344_ _345_ _268_ _252_ VDD VSS gf180mcu_fd_sc_mcu9t5v0__addh_1
X_678_ _346_ _347_ _348_ _349_ VDD VSS gf180mcu_fd_sc_mcu9t5v0__addh_2
X_679_ _351_ _352_ _279_ _269_ VDD VSS gf180mcu_fd_sc_mcu9t5v0__addh_1
X_680_ _353_ _354_ _355_ _356_ VDD VSS gf180mcu_fd_sc_mcu9t5v0__addh_2
X_681_ _350_ _357_ _358_ _359_ VDD VSS gf180mcu_fd_sc_mcu9t5v0__addh_1
X_682_ _360_ _361_ _289_ _278_ VDD VSS gf180mcu_fd_sc_mcu9t5v0__addh_1
X_683_ _362_ _363_ _364_ _365_ VDD VSS gf180mcu_fd_sc_mcu9t5v0__addh_2
X_684_ _361_ _366_ _367_ _288_ VDD VSS gf180mcu_fd_sc_mcu9t5v0__addh_1
X_685_ _263_ _288_ _368_ _369_ VDD VSS gf180mcu_fd_sc_mcu9t5v0__addh_1
X_686_ _370_ _371_ _372_ _373_ VDD VSS gf180mcu_fd_sc_mcu9t5v0__addh_2
X_687_ _312_ _374_ _314_ _375_ VDD VSS gf180mcu_fd_sc_mcu9t5v0__addh_2
X_688_ _376_ _377_ _378_ _379_ VDD VSS gf180mcu_fd_sc_mcu9t5v0__addh_1
X_689_ _378_ _380_ _381_ _382_ VDD VSS gf180mcu_fd_sc_mcu9t5v0__addh_1
X_690_ _152_ _381_ _383_ _384_ VDD VSS gf180mcu_fd_sc_mcu9t5v0__addh_1
X_691_ _313_ _383_ _374_ _385_ VDD VSS gf180mcu_fd_sc_mcu9t5v0__addh_1
Xa_reg\[0\]$_DFFE_PN0P_ _000_ net1 clknet_2_1__leaf_clk a_reg\[0\]
+ VDD VSS gf180mcu_fd_sc_mcu9t5v0__dffrnq_2
Xa_reg\[1\]$_DFFE_PN0P_ _001_ net1 clknet_2_1__leaf_clk a_reg\[1\]
+ VDD VSS gf180mcu_fd_sc_mcu9t5v0__dffrnq_4
Xa_reg\[2\]$_DFFE_PN0P_ _002_ net1 clknet_2_1__leaf_clk a_reg\[2\]
+ VDD VSS gf180mcu_fd_sc_mcu9t5v0__dffrnq_4
Xa_reg\[3\]$_DFFE_PN0P_ _003_ net1 clknet_2_0__leaf_clk a_reg\[3\]
+ VDD VSS gf180mcu_fd_sc_mcu9t5v0__dffrnq_4
Xa_reg\[4\]$_DFFE_PN0P_ _004_ net1 clknet_2_0__leaf_clk a_reg\[4\]
+ VDD VSS gf180mcu_fd_sc_mcu9t5v0__dffrnq_4
Xa_reg\[5\]$_DFFE_PN0P_ _005_ net1 clknet_2_2__leaf_clk a_reg\[5\]
+ VDD VSS gf180mcu_fd_sc_mcu9t5v0__dffrnq_4
Xa_reg\[6\]$_DFFE_PN0P_ _006_ net1 clknet_2_2__leaf_clk a_reg\[6\]
+ VDD VSS gf180mcu_fd_sc_mcu9t5v0__dffrnq_4
Xa_reg\[7\]$_DFFE_PN0P_ _007_ net1 clknet_2_2__leaf_clk a_reg\[7\]
+ VDD VSS gf180mcu_fd_sc_mcu9t5v0__dffrnq_2
Xb_reg\[0\]$_DFFE_PN0P_ _008_ net1 clknet_2_2__leaf_clk b_reg\[0\]
+ VDD VSS gf180mcu_fd_sc_mcu9t5v0__dffrnq_2
Xb_reg\[1\]$_DFFE_PN0P_ _009_ net1 clknet_2_0__leaf_clk b_reg\[1\]
+ VDD VSS gf180mcu_fd_sc_mcu9t5v0__dffrnq_4
Xb_reg\[2\]$_DFFE_PN0P_ _010_ net1 clknet_2_0__leaf_clk b_reg\[2\]
+ VDD VSS gf180mcu_fd_sc_mcu9t5v0__dffrnq_4
Xb_reg\[3\]$_DFFE_PN0P_ _011_ net1 clknet_2_0__leaf_clk b_reg\[3\]
+ VDD VSS gf180mcu_fd_sc_mcu9t5v0__dffrnq_4
Xb_reg\[4\]$_DFFE_PN0P_ _012_ net1 clknet_2_0__leaf_clk b_reg\[4\]
+ VDD VSS gf180mcu_fd_sc_mcu9t5v0__dffrnq_4
Xb_reg\[5\]$_DFFE_PN0P_ _013_ net1 clknet_2_0__leaf_clk b_reg\[5\]
+ VDD VSS gf180mcu_fd_sc_mcu9t5v0__dffrnq_4
Xb_reg\[6\]$_DFFE_PN0P_ _014_ net1 clknet_2_0__leaf_clk b_reg\[6\]
+ VDD VSS gf180mcu_fd_sc_mcu9t5v0__dffrnq_2
Xb_reg\[7\]$_DFFE_PN0P_ _015_ net1 clknet_2_0__leaf_clk b_reg\[7\]
+ VDD VSS gf180mcu_fd_sc_mcu9t5v0__dffrnq_2
Xdone$_DFFE_PN0P_ _016_ net1 clknet_2_0__leaf_clk net19 VDD
+ VSS gf180mcu_fd_sc_mcu9t5v0__dffrnq_4
Xproduct\[0\]$_DFFE_PN0N_ _017_ net1 clknet_2_1__leaf_clk
+ net20 VDD VSS gf180mcu_fd_sc_mcu9t5v0__dffrnq_4
Xproduct\[10\]$_DFFE_PN0N_ _018_ net1 clknet_2_3__leaf_clk
+ net21 VDD VSS gf180mcu_fd_sc_mcu9t5v0__dffrnq_4
Xproduct\[11\]$_DFFE_PN0N_ _019_ net1 clknet_2_3__leaf_clk
+ net22 VDD VSS gf180mcu_fd_sc_mcu9t5v0__dffrnq_4
Xproduct\[12\]$_DFFE_PN0N_ _020_ net1 clknet_2_3__leaf_clk
+ net23 VDD VSS gf180mcu_fd_sc_mcu9t5v0__dffrnq_4
Xproduct\[13\]$_DFFE_PN0N_ _021_ net1 clknet_2_2__leaf_clk
+ net24 VDD VSS gf180mcu_fd_sc_mcu9t5v0__dffrnq_4
Xproduct\[14\]$_DFFE_PN0N_ _022_ net1 clknet_2_3__leaf_clk
+ net25 VDD VSS gf180mcu_fd_sc_mcu9t5v0__dffrnq_4
Xproduct\[15\]$_DFFE_PN0N_ _023_ net1 clknet_2_2__leaf_clk
+ net26 VDD VSS gf180mcu_fd_sc_mcu9t5v0__dffrnq_4
Xproduct\[1\]$_DFFE_PN0N_ _024_ net1 clknet_2_1__leaf_clk
+ net27 VDD VSS gf180mcu_fd_sc_mcu9t5v0__dffrnq_4
Xproduct\[2\]$_DFFE_PN0N_ _025_ net1 clknet_2_1__leaf_clk
+ net28 VDD VSS gf180mcu_fd_sc_mcu9t5v0__dffrnq_4
Xproduct\[3\]$_DFFE_PN0N_ _026_ net1 clknet_2_1__leaf_clk
+ net29 VDD VSS gf180mcu_fd_sc_mcu9t5v0__dffrnq_4
Xproduct\[4\]$_DFFE_PN0N_ _027_ net1 clknet_2_1__leaf_clk
+ net30 VDD VSS gf180mcu_fd_sc_mcu9t5v0__dffrnq_4
Xproduct\[5\]$_DFFE_PN0N_ _028_ net1 clknet_2_1__leaf_clk
+ net31 VDD VSS gf180mcu_fd_sc_mcu9t5v0__dffrnq_4
Xproduct\[6\]$_DFFE_PN0N_ _029_ net1 clknet_2_1__leaf_clk
+ net32 VDD VSS gf180mcu_fd_sc_mcu9t5v0__dffrnq_4
Xproduct\[7\]$_DFFE_PN0N_ _030_ net1 clknet_2_3__leaf_clk
+ net33 VDD VSS gf180mcu_fd_sc_mcu9t5v0__dffrnq_4
Xproduct\[8\]$_DFFE_PN0N_ _031_ net1 clknet_2_3__leaf_clk
+ net34 VDD VSS gf180mcu_fd_sc_mcu9t5v0__dffrnq_4
Xproduct\[9\]$_DFFE_PN0N_ _032_ net1 clknet_2_3__leaf_clk
+ net35 VDD VSS gf180mcu_fd_sc_mcu9t5v0__dffrnq_4
Xstate\[0\]$_DFF_PN0_ next_state\[0\] net1 clknet_2_0__leaf_clk
+ state\[0\] VDD VSS gf180mcu_fd_sc_mcu9t5v0__dffrnq_2
Xstate\[1\]$_DFF_PN0_ next_state\[1\] net1 clknet_2_1__leaf_clk
+ state\[1\] VDD VSS gf180mcu_fd_sc_mcu9t5v0__dffrnq_2
Xhold1 net36 net1 VDD VSS gf180mcu_fd_sc_mcu9t5v0__buf_16
XPHY_EDGE_ROW_0_Right_0 VDD VSS gf180mcu_fd_sc_mcu9t5v0__endcap
XPHY_EDGE_ROW_1_Right_1 VDD VSS gf180mcu_fd_sc_mcu9t5v0__endcap
XPHY_EDGE_ROW_2_Right_2 VDD VSS gf180mcu_fd_sc_mcu9t5v0__endcap
XPHY_EDGE_ROW_3_Right_3 VDD VSS gf180mcu_fd_sc_mcu9t5v0__endcap
XPHY_EDGE_ROW_4_Right_4 VDD VSS gf180mcu_fd_sc_mcu9t5v0__endcap
XPHY_EDGE_ROW_5_Right_5 VDD VSS gf180mcu_fd_sc_mcu9t5v0__endcap
XPHY_EDGE_ROW_6_Right_6 VDD VSS gf180mcu_fd_sc_mcu9t5v0__endcap
XPHY_EDGE_ROW_7_Right_7 VDD VSS gf180mcu_fd_sc_mcu9t5v0__endcap
XPHY_EDGE_ROW_8_Right_8 VDD VSS gf180mcu_fd_sc_mcu9t5v0__endcap
XPHY_EDGE_ROW_9_Right_9 VDD VSS gf180mcu_fd_sc_mcu9t5v0__endcap
XPHY_EDGE_ROW_10_Right_10 VDD VSS gf180mcu_fd_sc_mcu9t5v0__endcap
XPHY_EDGE_ROW_11_Right_11 VDD VSS gf180mcu_fd_sc_mcu9t5v0__endcap
XPHY_EDGE_ROW_12_Right_12 VDD VSS gf180mcu_fd_sc_mcu9t5v0__endcap
XPHY_EDGE_ROW_13_Right_13 VDD VSS gf180mcu_fd_sc_mcu9t5v0__endcap
XPHY_EDGE_ROW_14_Right_14 VDD VSS gf180mcu_fd_sc_mcu9t5v0__endcap
XPHY_EDGE_ROW_15_Right_15 VDD VSS gf180mcu_fd_sc_mcu9t5v0__endcap
XPHY_EDGE_ROW_16_Right_16 VDD VSS gf180mcu_fd_sc_mcu9t5v0__endcap
XPHY_EDGE_ROW_17_Right_17 VDD VSS gf180mcu_fd_sc_mcu9t5v0__endcap
XPHY_EDGE_ROW_18_Right_18 VDD VSS gf180mcu_fd_sc_mcu9t5v0__endcap
XPHY_EDGE_ROW_19_Right_19 VDD VSS gf180mcu_fd_sc_mcu9t5v0__endcap
XPHY_EDGE_ROW_20_Right_20 VDD VSS gf180mcu_fd_sc_mcu9t5v0__endcap
XPHY_EDGE_ROW_21_Right_21 VDD VSS gf180mcu_fd_sc_mcu9t5v0__endcap
XPHY_EDGE_ROW_22_Right_22 VDD VSS gf180mcu_fd_sc_mcu9t5v0__endcap
XPHY_EDGE_ROW_23_Right_23 VDD VSS gf180mcu_fd_sc_mcu9t5v0__endcap
XPHY_EDGE_ROW_24_Right_24 VDD VSS gf180mcu_fd_sc_mcu9t5v0__endcap
XPHY_EDGE_ROW_25_Right_25 VDD VSS gf180mcu_fd_sc_mcu9t5v0__endcap
XPHY_EDGE_ROW_26_Right_26 VDD VSS gf180mcu_fd_sc_mcu9t5v0__endcap
XPHY_EDGE_ROW_27_Right_27 VDD VSS gf180mcu_fd_sc_mcu9t5v0__endcap
XPHY_EDGE_ROW_28_Right_28 VDD VSS gf180mcu_fd_sc_mcu9t5v0__endcap
XPHY_EDGE_ROW_29_Right_29 VDD VSS gf180mcu_fd_sc_mcu9t5v0__endcap
XPHY_EDGE_ROW_30_Right_30 VDD VSS gf180mcu_fd_sc_mcu9t5v0__endcap
XPHY_EDGE_ROW_31_Right_31 VDD VSS gf180mcu_fd_sc_mcu9t5v0__endcap
XPHY_EDGE_ROW_32_Right_32 VDD VSS gf180mcu_fd_sc_mcu9t5v0__endcap
XPHY_EDGE_ROW_33_Right_33 VDD VSS gf180mcu_fd_sc_mcu9t5v0__endcap
XPHY_EDGE_ROW_34_Right_34 VDD VSS gf180mcu_fd_sc_mcu9t5v0__endcap
XPHY_EDGE_ROW_35_Right_35 VDD VSS gf180mcu_fd_sc_mcu9t5v0__endcap
XPHY_EDGE_ROW_36_Right_36 VDD VSS gf180mcu_fd_sc_mcu9t5v0__endcap
XPHY_EDGE_ROW_37_Right_37 VDD VSS gf180mcu_fd_sc_mcu9t5v0__endcap
XPHY_EDGE_ROW_38_Right_38 VDD VSS gf180mcu_fd_sc_mcu9t5v0__endcap
XPHY_EDGE_ROW_39_Right_39 VDD VSS gf180mcu_fd_sc_mcu9t5v0__endcap
XPHY_EDGE_ROW_40_Right_40 VDD VSS gf180mcu_fd_sc_mcu9t5v0__endcap
XPHY_EDGE_ROW_41_Right_41 VDD VSS gf180mcu_fd_sc_mcu9t5v0__endcap
XPHY_EDGE_ROW_42_Right_42 VDD VSS gf180mcu_fd_sc_mcu9t5v0__endcap
XPHY_EDGE_ROW_43_Right_43 VDD VSS gf180mcu_fd_sc_mcu9t5v0__endcap
XPHY_EDGE_ROW_44_Right_44 VDD VSS gf180mcu_fd_sc_mcu9t5v0__endcap
XPHY_EDGE_ROW_45_Right_45 VDD VSS gf180mcu_fd_sc_mcu9t5v0__endcap
XPHY_EDGE_ROW_46_Right_46 VDD VSS gf180mcu_fd_sc_mcu9t5v0__endcap
XPHY_EDGE_ROW_47_Right_47 VDD VSS gf180mcu_fd_sc_mcu9t5v0__endcap
XPHY_EDGE_ROW_48_Right_48 VDD VSS gf180mcu_fd_sc_mcu9t5v0__endcap
XPHY_EDGE_ROW_49_Right_49 VDD VSS gf180mcu_fd_sc_mcu9t5v0__endcap
XPHY_EDGE_ROW_50_Right_50 VDD VSS gf180mcu_fd_sc_mcu9t5v0__endcap
XPHY_EDGE_ROW_51_Right_51 VDD VSS gf180mcu_fd_sc_mcu9t5v0__endcap
XPHY_EDGE_ROW_52_Right_52 VDD VSS gf180mcu_fd_sc_mcu9t5v0__endcap
XPHY_EDGE_ROW_53_Right_53 VDD VSS gf180mcu_fd_sc_mcu9t5v0__endcap
XPHY_EDGE_ROW_54_Right_54 VDD VSS gf180mcu_fd_sc_mcu9t5v0__endcap
XPHY_EDGE_ROW_55_Right_55 VDD VSS gf180mcu_fd_sc_mcu9t5v0__endcap
XPHY_EDGE_ROW_56_Right_56 VDD VSS gf180mcu_fd_sc_mcu9t5v0__endcap
XPHY_EDGE_ROW_57_Right_57 VDD VSS gf180mcu_fd_sc_mcu9t5v0__endcap
XPHY_EDGE_ROW_58_Right_58 VDD VSS gf180mcu_fd_sc_mcu9t5v0__endcap