
* cell radix4_booth_multiplier
* pin done
* pin start
* pin multiplier[3]
* pin multiplier[2]
* pin multiplicand[3]
* pin multiplier[1]
* pin multiplicand[4]
* pin multiplier[5]
* pin multiplier[4]
* pin multiplier[7]
* pin multiplier[6]
* pin multiplier[0]
* pin multiplicand[5]
* pin multiplicand[6]
* pin multiplicand[7]
* pin product[0]
* pin product[15]
* pin multiplicand[0]
* pin clk
* pin multiplicand[1]
* pin multiplicand[2]
* pin product[13]
* pin product[1]
* pin product[12]
* pin product[2]
* pin product[3]
* pin product[6]
* pin product[5]
* pin rst_n
* pin product[4]
* pin product[7]
* pin product[8]
* pin product[9]
* pin product[10]
* pin product[14]
* pin product[11]
* pin PWELL,gf180mcu_gnd
* pin NWELL
.SUBCKT radix4_booth_multiplier 1 2 3 4 5 6 7 8 9 10 11 12 13 14 15 164 201 214
+ 239 243 244 295 331 356 402 448 469 470 471 472 476 477 478 479 480 481 482
+ 483
* net 1 done
* net 2 start
* net 3 multiplier[3]
* net 4 multiplier[2]
* net 5 multiplicand[3]
* net 6 multiplier[1]
* net 7 multiplicand[4]
* net 8 multiplier[5]
* net 9 multiplier[4]
* net 10 multiplier[7]
* net 11 multiplier[6]
* net 12 multiplier[0]
* net 13 multiplicand[5]
* net 14 multiplicand[6]
* net 15 multiplicand[7]
* net 164 product[0]
* net 201 product[15]
* net 214 multiplicand[0]
* net 239 clk
* net 243 multiplicand[1]
* net 244 multiplicand[2]
* net 295 product[13]
* net 331 product[1]
* net 356 product[12]
* net 402 product[2]
* net 448 product[3]
* net 469 product[6]
* net 470 product[5]
* net 471 rst_n
* net 472 product[4]
* net 476 product[7]
* net 477 product[8]
* net 478 product[9]
* net 479 product[10]
* net 480 product[14]
* net 481 product[11]
* net 482 PWELL,gf180mcu_gnd
* net 483 NWELL
* cell instance $2 m0 *1 753.76,15.12
X$2 17 483 482 1 gf180mcu_fd_sc_mcu9t5v0__dlyb_2
* cell instance $6 r0 *1 760.48,5.04
X$6 482 483 2 20 gf180mcu_fd_sc_mcu9t5v0__buf_4
* cell instance $10 r0 *1 770,15.12
X$10 482 483 3 23 gf180mcu_fd_sc_mcu9t5v0__clkbuf_4
* cell instance $15 r0 *1 775.04,5.04
X$15 482 483 4 19 gf180mcu_fd_sc_mcu9t5v0__clkbuf_4
* cell instance $19 m0 *1 776.72,15.12
X$19 482 483 5 18 gf180mcu_fd_sc_mcu9t5v0__clkbuf_4
* cell instance $23 r0 *1 782.88,5.04
X$23 482 483 6 16 gf180mcu_fd_sc_mcu9t5v0__clkbuf_4
* cell instance $27 r0 *1 790.72,5.04
X$27 482 483 7 25 gf180mcu_fd_sc_mcu9t5v0__clkbuf_4
* cell instance $31 m0 *1 790.72,15.12
X$31 482 483 8 24 gf180mcu_fd_sc_mcu9t5v0__clkbuf_4
* cell instance $34 m0 *1 804.72,15.12
X$34 482 483 9 21 gf180mcu_fd_sc_mcu9t5v0__clkbuf_4
* cell instance $38 r0 *1 805.28,5.04
X$38 482 483 10 22 gf180mcu_fd_sc_mcu9t5v0__clkbuf_4
* cell instance $42 m0 *1 814.8,15.12
X$42 482 483 11 26 gf180mcu_fd_sc_mcu9t5v0__clkbuf_4
* cell instance $47 r0 *1 813.12,5.04
X$47 482 483 12 90 gf180mcu_fd_sc_mcu9t5v0__clkbuf_4
* cell instance $50 r0 *1 824.32,5.04
X$50 482 483 13 43 gf180mcu_fd_sc_mcu9t5v0__clkbuf_4
* cell instance $54 r0 *1 837.2,5.04
X$54 482 483 14 45 gf180mcu_fd_sc_mcu9t5v0__clkbuf_4
* cell instance $59 r0 *1 845.04,5.04
X$59 482 483 15 46 gf180mcu_fd_sc_mcu9t5v0__clkbuf_4
* cell instance $62 r0 *1 780.64,781.2
X$62 482 483 114 95 36 16 gf180mcu_fd_sc_mcu9t5v0__mux2_2
* cell instance $66 m0 *1 756,781.2
X$66 482 72 483 17 53 71 94 gf180mcu_fd_sc_mcu9t5v0__aoi22_2
* cell instance $69 m0 *1 744.24,771.12
X$69 482 31 17 29 52 483 gf180mcu_fd_sc_mcu9t5v0__dffrnq_4
* cell instance $81 r0 *1 771.68,791.28
X$81 482 483 157 121 38 18 gf180mcu_fd_sc_mcu9t5v0__mux2_2
* cell instance $85 r0 *1 768.88,761.04
X$85 482 483 54 55 36 19 gf180mcu_fd_sc_mcu9t5v0__mux2_2
* cell instance $90 r0 *1 762.72,771.12
X$90 482 483 71 72 20 gf180mcu_fd_sc_mcu9t5v0__nand2_2
* cell instance $93 r0 *1 804.16,761.04
X$93 482 483 58 59 36 21 gf180mcu_fd_sc_mcu9t5v0__mux2_2
* cell instance $97 m0 *1 800.24,750.96
X$97 482 483 30 32 36 22 gf180mcu_fd_sc_mcu9t5v0__mux2_2
* cell instance $101 m0 *1 766.64,750.96
X$101 482 483 27 28 36 23 gf180mcu_fd_sc_mcu9t5v0__mux2_2
* cell instance $104 r0 *1 785.12,740.88
X$104 482 483 37 35 36 24 gf180mcu_fd_sc_mcu9t5v0__mux2_2
* cell instance $108 m0 *1 785.68,761.04
X$108 482 483 56 57 38 25 gf180mcu_fd_sc_mcu9t5v0__mux2_2
* cell instance $111 m0 *1 815.36,740.88
X$111 482 483 33 34 36 26 gf180mcu_fd_sc_mcu9t5v0__mux2_2
* cell instance $116 r0 *1 762.16,740.88
X$116 482 31 28 29 27 483 gf180mcu_fd_sc_mcu9t5v0__dffrnq_4
* cell instance $121 m0 *1 834.4,821.52
X$121 482 483 57 193 28 gf180mcu_fd_sc_mcu9t5v0__nand2_2
* cell instance $124 m0 *1 793.52,831.6
X$124 483 121 28 482 242 gf180mcu_fd_sc_mcu9t5v0__and2_2
* cell instance $126 m0 *1 851.76,821.52
X$126 482 483 41 209 28 gf180mcu_fd_sc_mcu9t5v0__nand2_2
* cell instance $129 m0 *1 855.12,771.12
X$129 483 28 47 482 74 gf180mcu_fd_sc_mcu9t5v0__and2_2
* cell instance $132 m0 *1 859.04,791.28
X$132 482 483 44 137 28 gf180mcu_fd_sc_mcu9t5v0__nand2_2
* cell instance $134 r0 *1 755.44,851.76
X$134 483 28 184 482 326 gf180mcu_fd_sc_mcu9t5v0__and2_2
* cell instance $137 r0 *1 760.48,851.76
X$137 483 28 247 482 306 gf180mcu_fd_sc_mcu9t5v0__and2_2
* cell instance $140 r0 *1 771.12,851.76
X$140 482 483 28 256 217 gf180mcu_fd_sc_mcu9t5v0__nand2_2
* cell instance $153 r0 *1 743.68,791.28
X$153 482 31 120 29 119 483 gf180mcu_fd_sc_mcu9t5v0__dffrnq_2
* cell instance $155 r0 *1 772.8,771.12
X$155 29 482 483 gf180mcu_fd_sc_mcu9t5v0__clkbuf_1
* cell instance $161 r0 *1 782.88,761.04
X$161 482 31 57 29 56 483 gf180mcu_fd_sc_mcu9t5v0__dffrnq_4
* cell instance $164 m0 *1 777.28,750.96
X$164 482 31 35 29 37 483 gf180mcu_fd_sc_mcu9t5v0__dffrnq_4
* cell instance $166 r0 *1 776.16,771.12
X$166 482 142 29 483 gf180mcu_fd_sc_mcu9t5v0__clkbuf_20
* cell instance $168 m0 *1 801.36,771.12
X$168 482 31 59 29 58 483 gf180mcu_fd_sc_mcu9t5v0__dffrnq_4
* cell instance $170 r0 *1 794.64,740.88
X$170 482 31 32 29 30 483 gf180mcu_fd_sc_mcu9t5v0__dffrnq_2
* cell instance $173 r0 *1 813.68,740.88
X$173 482 31 34 29 33 483 gf180mcu_fd_sc_mcu9t5v0__dffrnq_2
* cell instance $176 m0 *1 765.52,801.36
X$176 482 31 121 29 157 483 gf180mcu_fd_sc_mcu9t5v0__dffrnq_4
* cell instance $178 m0 *1 765.52,771.12
X$178 482 31 55 29 54 483 gf180mcu_fd_sc_mcu9t5v0__dffrnq_4
* cell instance $180 m0 *1 777.28,791.28
X$180 482 31 95 29 114 483 gf180mcu_fd_sc_mcu9t5v0__dffrnq_4
* cell instance $195 m0 *1 933.52,831.6
X$195 482 31 200 39 232 483 gf180mcu_fd_sc_mcu9t5v0__dffrnq_4
* cell instance $197 m0 *1 841.12,750.96
X$197 482 31 47 39 50 483 gf180mcu_fd_sc_mcu9t5v0__dffrnq_2
* cell instance $199 r0 *1 21.84,912.24
X$199 482 31 475 483 gf180mcu_fd_sc_mcu9t5v0__buf_16
* cell instance $201 r0 *1 801.36,781.2
X$201 482 31 97 39 115 483 gf180mcu_fd_sc_mcu9t5v0__dffrnq_2
* cell instance $210 r0 *1 746.48,811.44
X$210 482 31 94 166 167 483 gf180mcu_fd_sc_mcu9t5v0__dffrnq_2
* cell instance $212 m0 *1 716.8,831.6
X$212 482 31 184 166 216 483 gf180mcu_fd_sc_mcu9t5v0__dffrnq_2
* cell instance $217 m0 *1 820.96,761.04
X$217 482 31 41 39 40 483 gf180mcu_fd_sc_mcu9t5v0__dffrnq_4
* cell instance $219 m0 *1 697.76,841.68
X$219 482 31 217 166 215 483 gf180mcu_fd_sc_mcu9t5v0__dffrnq_4
* cell instance $229 m0 *1 730.24,821.52
X$229 482 31 165 166 207 483 gf180mcu_fd_sc_mcu9t5v0__dffrnq_4
* cell instance $231 r0 *1 932.4,892.08
X$231 482 31 417 382 440 483 gf180mcu_fd_sc_mcu9t5v0__dffrnq_4
* cell instance $233 r0 *1 934.64,871.92
X$233 482 31 355 382 387 483 gf180mcu_fd_sc_mcu9t5v0__dffrnq_4
* cell instance $235 m0 *1 842.24,761.04
X$235 482 31 44 39 51 483 gf180mcu_fd_sc_mcu9t5v0__dffrnq_4
* cell instance $237 m0 *1 910.56,902.16
X$237 482 31 460 382 438 483 gf180mcu_fd_sc_mcu9t5v0__dffrnq_4
* cell instance $239 r0 *1 855.12,912.24
X$239 482 31 456 382 455 483 gf180mcu_fd_sc_mcu9t5v0__dffrnq_4
* cell instance $242 r0 *1 876.96,912.24
X$242 482 31 459 382 461 483 gf180mcu_fd_sc_mcu9t5v0__dffrnq_4
* cell instance $245 r0 *1 871.92,902.16
X$245 482 31 457 382 435 483 gf180mcu_fd_sc_mcu9t5v0__dffrnq_4
* cell instance $247 m0 *1 736.4,912.24
X$247 482 31 451 166 450 483 gf180mcu_fd_sc_mcu9t5v0__dffrnq_4
* cell instance $249 r0 *1 750.96,912.24
X$249 482 31 452 166 463 483 gf180mcu_fd_sc_mcu9t5v0__dffrnq_4
* cell instance $252 m0 *1 710.64,902.16
X$252 482 31 425 166 441 483 gf180mcu_fd_sc_mcu9t5v0__dffrnq_4
* cell instance $255 m0 *1 706.72,912.24
X$255 482 31 449 166 462 483 gf180mcu_fd_sc_mcu9t5v0__dffrnq_4
* cell instance $257 m0 *1 720.16,892.08
X$257 482 31 403 166 418 483 gf180mcu_fd_sc_mcu9t5v0__dffrnq_4
* cell instance $259 m0 *1 934.64,851.76
X$259 482 31 294 39 269 483 gf180mcu_fd_sc_mcu9t5v0__dffrnq_4
* cell instance $261 m0 *1 827.68,922.32
X$261 482 31 474 382 473 483 gf180mcu_fd_sc_mcu9t5v0__dffrnq_4
* cell instance $263 m0 *1 703.92,851.76
X$263 482 31 247 166 245 483 gf180mcu_fd_sc_mcu9t5v0__dffrnq_4
* cell instance $265 r0 *1 708.4,861.84
X$265 482 31 303 166 322 483 gf180mcu_fd_sc_mcu9t5v0__dffrnq_4
* cell instance $302 m0 *1 810.88,750.96
X$302 482 483 32 42 gf180mcu_fd_sc_mcu9t5v0__inv_4
* cell instance $310 m0 *1 880.88,781.2
X$310 483 41 34 482 103 gf180mcu_fd_sc_mcu9t5v0__and2_2
* cell instance $312 m0 *1 889.84,761.04
X$312 483 34 47 482 48 gf180mcu_fd_sc_mcu9t5v0__and2_2
* cell instance $315 m0 *1 873.6,761.04
X$315 483 44 34 482 69 gf180mcu_fd_sc_mcu9t5v0__and2_2
* cell instance $318 m0 *1 808.08,851.76
X$318 482 483 247 302 34 gf180mcu_fd_sc_mcu9t5v0__nand2_2
* cell instance $320 r0 *1 801.92,851.76
X$320 483 184 34 482 330 gf180mcu_fd_sc_mcu9t5v0__and2_2
* cell instance $323 m0 *1 829.92,851.76
X$323 483 217 34 482 258 gf180mcu_fd_sc_mcu9t5v0__and2_2
* cell instance $326 m0 *1 845.6,831.6
X$326 483 121 34 482 223 gf180mcu_fd_sc_mcu9t5v0__and2_2
* cell instance $328 m0 *1 870.24,821.52
X$328 483 57 34 482 195 gf180mcu_fd_sc_mcu9t5v0__and2_2
* cell instance $343 r0 *1 824.88,841.68
X$343 482 483 217 288 35 gf180mcu_fd_sc_mcu9t5v0__nand2_2
* cell instance $347 m0 *1 799.68,841.68
X$347 483 35 247 482 283 gf180mcu_fd_sc_mcu9t5v0__and2_2
* cell instance $349 r0 *1 847.84,791.28
X$349 482 483 57 124 35 gf180mcu_fd_sc_mcu9t5v0__nand2_2
* cell instance $351 m0 *1 846.16,821.52
X$351 482 483 121 211 35 gf180mcu_fd_sc_mcu9t5v0__nand2_2
* cell instance $353 m0 *1 882.56,771.12
X$353 483 35 47 482 89 gf180mcu_fd_sc_mcu9t5v0__and2_2
* cell instance $356 m0 *1 877.52,771.12
X$356 483 44 35 482 76 gf180mcu_fd_sc_mcu9t5v0__and2_2
* cell instance $359 m0 *1 861.28,771.12
X$359 483 41 35 482 92 gf180mcu_fd_sc_mcu9t5v0__and2_2
* cell instance $362 r0 *1 792.96,841.68
X$362 482 483 35 278 184 gf180mcu_fd_sc_mcu9t5v0__nand2_2
* cell instance $380 m0 *1 764.96,781.2
X$380 482 72 94 483 36 gf180mcu_fd_sc_mcu9t5v0__or2_4
* cell instance $385 m0 *1 771.12,761.04
X$385 482 36 38 483 gf180mcu_fd_sc_mcu9t5v0__clkbuf_8
* cell instance $397 r0 *1 842.8,750.96
X$397 482 483 50 47 38 46 gf180mcu_fd_sc_mcu9t5v0__mux2_2
* cell instance $400 r0 *1 822.64,750.96
X$400 482 483 40 41 38 43 gf180mcu_fd_sc_mcu9t5v0__mux2_2
* cell instance $403 r0 *1 831.6,750.96
X$403 482 483 51 44 38 45 gf180mcu_fd_sc_mcu9t5v0__mux2_2
* cell instance $406 m0 *1 805.84,781.2
X$406 482 483 115 96 38 90 gf180mcu_fd_sc_mcu9t5v0__mux2_2
* cell instance $409 r0 *1 702.8,831.6
X$409 482 483 215 217 38 230 gf180mcu_fd_sc_mcu9t5v0__mux2_2
* cell instance $411 r0 *1 719.6,821.52
X$411 482 483 216 184 38 202 gf180mcu_fd_sc_mcu9t5v0__mux2_2
* cell instance $415 r0 *1 702.24,841.68
X$415 482 483 245 247 38 270 gf180mcu_fd_sc_mcu9t5v0__mux2_2
* cell instance $417 m0 *1 744.8,791.28
X$417 482 483 38 119 gf180mcu_fd_sc_mcu9t5v0__clkinv_2
* cell instance $429 m0 *1 861.84,811.44
X$429 482 483 39 486 gf180mcu_fd_sc_mcu9t5v0__inv_4
* cell instance $437 r0 *1 861.84,801.36
X$437 482 142 39 483 gf180mcu_fd_sc_mcu9t5v0__clkbuf_20
* cell instance $451 m0 *1 878.64,761.04
X$451 482 483 70 41 42 gf180mcu_fd_sc_mcu9t5v0__nor2_2
* cell instance $453 r0 *1 804.16,811.44
X$453 483 96 41 482 168 gf180mcu_fd_sc_mcu9t5v0__and2_2
* cell instance $458 r0 *1 812.56,801.36
X$458 482 483 95 160 41 gf180mcu_fd_sc_mcu9t5v0__nand2_2
* cell instance $460 m0 *1 828.24,821.52
X$460 482 483 41 191 55 gf180mcu_fd_sc_mcu9t5v0__nand2_2
* cell instance $464 m0 *1 854,791.28
X$464 482 483 41 138 59 gf180mcu_fd_sc_mcu9t5v0__nand2_2
* cell instance $483 m0 *1 822.08,811.44
X$483 482 42 241 179 145 144 483 gf180mcu_fd_sc_mcu9t5v0__addf_1
* cell instance $485 r0 *1 812,841.68
X$485 482 184 42 483 257 gf180mcu_fd_sc_mcu9t5v0__or2_2
* cell instance $490 m0 *1 833.84,841.68
X$490 482 483 279 217 42 gf180mcu_fd_sc_mcu9t5v0__nor2_2
* cell instance $492 m0 *1 863.52,821.52
X$492 482 483 208 121 42 gf180mcu_fd_sc_mcu9t5v0__nor2_2
* cell instance $494 r0 *1 873.04,781.2
X$494 482 483 113 57 42 gf180mcu_fd_sc_mcu9t5v0__nor2_2
* cell instance $497 m0 *1 884.24,761.04
X$497 482 483 66 47 42 gf180mcu_fd_sc_mcu9t5v0__nor2_2
* cell instance $499 r0 *1 880.88,750.96
X$499 482 483 49 44 42 gf180mcu_fd_sc_mcu9t5v0__nor2_2
* cell instance $501 r0 *1 818.72,841.68
X$501 482 483 282 247 42 gf180mcu_fd_sc_mcu9t5v0__nor2_2
* cell instance $521 m0 *1 824.32,781.2
X$521 483 44 55 482 117 gf180mcu_fd_sc_mcu9t5v0__and2_2
* cell instance $523 r0 *1 807.52,801.36
X$523 482 483 96 143 44 gf180mcu_fd_sc_mcu9t5v0__nand2_2
* cell instance $526 r0 *1 832.16,801.36
X$526 482 483 44 145 95 gf180mcu_fd_sc_mcu9t5v0__nand2_2
* cell instance $532 m0 *1 864.64,781.2
X$532 483 44 59 482 91 gf180mcu_fd_sc_mcu9t5v0__and2_2
* cell instance $558 r0 *1 826,791.28
X$558 482 483 96 144 47 gf180mcu_fd_sc_mcu9t5v0__nand2_2
* cell instance $560 m0 *1 827.12,791.28
X$560 96 483 95 47 482 122 gf180mcu_fd_sc_mcu9t5v0__and3_2
* cell instance $562 r0 *1 832.16,781.2
X$562 483 47 118 482 99 gf180mcu_fd_sc_mcu9t5v0__and2_2
* cell instance $565 r0 *1 833.28,771.12
X$565 483 55 47 482 93 gf180mcu_fd_sc_mcu9t5v0__and2_2
* cell instance $568 m0 *1 870.24,771.12
X$568 483 59 47 482 78 gf180mcu_fd_sc_mcu9t5v0__and2_2
* cell instance $585 m0 *1 906.08,761.04
X$585 62 482 483 49 48 67 gf180mcu_fd_sc_mcu9t5v0__addh_1
* cell instance $588 m0 *1 915.6,761.04
X$588 86 482 483 48 66 63 gf180mcu_fd_sc_mcu9t5v0__addh_1
* cell instance $601 r0 *1 752.08,761.04
X$601 482 483 53 52 gf180mcu_fd_sc_mcu9t5v0__clkinv_2
* cell instance $615 r0 *1 802.48,801.36
X$615 482 483 55 159 57 gf180mcu_fd_sc_mcu9t5v0__nand2_2
* cell instance $617 r0 *1 777.28,811.44
X$617 483 55 121 482 181 gf180mcu_fd_sc_mcu9t5v0__and2_2
* cell instance $620 r0 *1 764.4,831.6
X$620 483 55 217 482 237 gf180mcu_fd_sc_mcu9t5v0__and2_2
* cell instance $622 m0 *1 753.2,841.68
X$622 482 483 55 276 247 gf180mcu_fd_sc_mcu9t5v0__nand2_2
* cell instance $625 r0 *1 738.08,841.68
X$625 482 483 55 298 184 gf180mcu_fd_sc_mcu9t5v0__nand2_2
* cell instance $648 m0 *1 793.52,811.44
X$648 483 95 57 482 169 gf180mcu_fd_sc_mcu9t5v0__and2_2
* cell instance $652 r0 *1 785.12,821.52
X$652 483 96 57 482 185 gf180mcu_fd_sc_mcu9t5v0__and2_2
* cell instance $655 m0 *1 857.92,821.52
X$655 482 483 57 171 59 gf180mcu_fd_sc_mcu9t5v0__nand2_2
* cell instance $673 r0 *1 808.64,831.6
X$673 483 59 217 482 240 gf180mcu_fd_sc_mcu9t5v0__and2_2
* cell instance $677 m0 *1 840.56,831.6
X$677 482 483 121 213 59 gf180mcu_fd_sc_mcu9t5v0__nand2_2
* cell instance $682 r0 *1 766.08,851.76
X$682 483 59 184 482 308 gf180mcu_fd_sc_mcu9t5v0__and2_2
* cell instance $684 m0 *1 792.96,851.76
X$684 482 483 59 281 247 gf180mcu_fd_sc_mcu9t5v0__nand2_2
* cell instance $700 r0 *1 911.68,761.04
X$700 482 67 60 84 65 61 483 gf180mcu_fd_sc_mcu9t5v0__addf_1
* cell instance $702 r0 *1 912.24,771.12
X$702 482 483 60 154 gf180mcu_fd_sc_mcu9t5v0__clkinv_2
* cell instance $706 r0 *1 931.84,761.04
X$706 484 482 483 61 63 64 gf180mcu_fd_sc_mcu9t5v0__addh_1
* cell instance $708 m0 *1 890.96,771.12
X$708 482 78 88 74 89 61 483 gf180mcu_fd_sc_mcu9t5v0__addf_2
* cell instance $711 m0 *1 910.56,771.12
X$711 482 61 87 85 63 62 483 gf180mcu_fd_sc_mcu9t5v0__addf_1
* cell instance $727 r0 *1 934.08,771.12
X$727 482 64 85 83 110 483 gf180mcu_fd_sc_mcu9t5v0__xnor3_2
* cell instance $730 r0 *1 882,761.04
X$730 65 482 483 69 70 68 gf180mcu_fd_sc_mcu9t5v0__addh_1
* cell instance $741 m0 *1 892.08,781.2
X$741 482 79 112 104 111 68 483 gf180mcu_fd_sc_mcu9t5v0__addf_1
* cell instance $754 r0 *1 759.36,781.2
X$754 482 483 120 71 gf180mcu_fd_sc_mcu9t5v0__clkinv_2
* cell instance $764 r0 *1 859.6,771.12
X$764 482 74 73 75 91 92 483 gf180mcu_fd_sc_mcu9t5v0__addf_1
* cell instance $766 m0 *1 861.28,781.2
X$766 482 483 73 102 gf180mcu_fd_sc_mcu9t5v0__clkinv_2
* cell instance $768 r0 *1 880.88,771.12
X$768 482 76 77 79 78 74 483 gf180mcu_fd_sc_mcu9t5v0__addf_1
* cell instance $779 m0 *1 875.84,811.44
X$779 482 75 163 178 151 172 483 gf180mcu_fd_sc_mcu9t5v0__addf_1
* cell instance $784 m0 *1 883.12,791.28
X$784 482 483 77 162 gf180mcu_fd_sc_mcu9t5v0__clkinv_2
* cell instance $793 r0 *1 922.32,771.12
X$793 482 483 87 80 gf180mcu_fd_sc_mcu9t5v0__clkinv_2
* cell instance $795 r0 *1 923.44,791.28
X$795 482 135 131 132 130 80 483 gf180mcu_fd_sc_mcu9t5v0__addf_1
* cell instance $799 m0 *1 927.36,771.12
X$799 482 483 84 81 gf180mcu_fd_sc_mcu9t5v0__clkinv_2
* cell instance $801 r0 *1 925.68,801.36
X$801 482 155 177 133 81 131 483 gf180mcu_fd_sc_mcu9t5v0__addf_1
* cell instance $805 r0 *1 939.12,831.6
X$805 483 82 296 482 231 gf180mcu_fd_sc_mcu9t5v0__xnor2_2
* cell instance $807 m0 *1 929.04,781.2
X$807 482 109 86 82 83 483 gf180mcu_fd_sc_mcu9t5v0__xnor3_2
* cell instance $829 m0 *1 908.88,781.2
X$829 482 483 88 105 gf180mcu_fd_sc_mcu9t5v0__clkinv_2
* cell instance $850 m0 *1 838.88,781.2
X$850 140 482 483 93 99 101 gf180mcu_fd_sc_mcu9t5v0__addh_1
* cell instance $857 r0 *1 762.72,791.28
X$857 482 483 94 156 gf180mcu_fd_sc_mcu9t5v0__clkinv_2
* cell instance $863 r0 *1 822.64,781.2
X$863 97 482 95 483 118 gf180mcu_fd_sc_mcu9t5v0__xor2_2
* cell instance $869 m0 *1 762.72,841.68
X$869 482 483 95 251 217 gf180mcu_fd_sc_mcu9t5v0__nand2_2
* cell instance $873 m0 *1 780.64,831.6
X$873 483 95 121 482 218 gf180mcu_fd_sc_mcu9t5v0__and2_2
* cell instance $875 r0 *1 743.12,841.68
X$875 482 483 95 248 247 gf180mcu_fd_sc_mcu9t5v0__nand2_2
* cell instance $878 r0 *1 733.04,841.68
X$878 483 95 184 482 246 gf180mcu_fd_sc_mcu9t5v0__and2_2
* cell instance $898 m0 *1 818.16,791.28
X$898 482 483 97 96 gf180mcu_fd_sc_mcu9t5v0__buf_4
* cell instance $901 r0 *1 733.6,821.52
X$901 483 96 184 482 205 gf180mcu_fd_sc_mcu9t5v0__and2_2
* cell instance $907 m0 *1 767.76,841.68
X$907 482 483 96 277 121 gf180mcu_fd_sc_mcu9t5v0__nand2_2
* cell instance $909 r0 *1 748.16,841.68
X$909 482 483 96 249 217 gf180mcu_fd_sc_mcu9t5v0__nand2_2
* cell instance $911 m0 *1 730.24,851.76
X$911 483 96 247 482 284 gf180mcu_fd_sc_mcu9t5v0__and2_2
* cell instance $930 m0 *1 829.36,781.2
X$930 98 482 483 117 99 116 gf180mcu_fd_sc_mcu9t5v0__addh_1
* cell instance $932 m0 *1 834.96,791.28
X$932 482 483 139 98 122 gf180mcu_fd_sc_mcu9t5v0__nor2_2
* cell instance $942 r0 *1 840.56,781.2
X$942 482 483 116 100 gf180mcu_fd_sc_mcu9t5v0__clkinv_2
* cell instance $944 r0 *1 832.16,811.44
X$944 482 180 192 170 100 179 483 gf180mcu_fd_sc_mcu9t5v0__addf_1
* cell instance $947 m0 *1 842.8,801.36
X$947 482 483 101 147 gf180mcu_fd_sc_mcu9t5v0__inv_2
* cell instance $950 m0 *1 869.68,801.36
X$950 482 102 150 161 136 147 483 gf180mcu_fd_sc_mcu9t5v0__addf_1
* cell instance $955 r0 *1 878.64,781.2
X$955 111 482 483 103 113 151 gf180mcu_fd_sc_mcu9t5v0__addh_1
* cell instance $958 r0 *1 908.88,781.2
X$958 482 483 104 106 gf180mcu_fd_sc_mcu9t5v0__clkinv_2
* cell instance $961 r0 *1 899.92,791.28
X$961 482 136 135 147 105 130 483 gf180mcu_fd_sc_mcu9t5v0__addf_4
* cell instance $964 m0 *1 909.44,811.44
X$964 482 106 175 176 153 152 483 gf180mcu_fd_sc_mcu9t5v0__addf_1
* cell instance $966 m0 *1 926.24,791.28
X$966 482 483 135 107 gf180mcu_fd_sc_mcu9t5v0__clkinv_2
* cell instance $968 r0 *1 924.56,781.2
X$968 485 482 483 107 108 109 gf180mcu_fd_sc_mcu9t5v0__addh_1
* cell instance $970 m0 *1 929.6,791.28
X$970 482 483 130 108 gf180mcu_fd_sc_mcu9t5v0__clkinv_2
* cell instance $975 m0 *1 936.32,791.28
X$975 132 482 133 483 110 gf180mcu_fd_sc_mcu9t5v0__xor2_2
* cell instance $984 m0 *1 907.2,791.28
X$984 482 483 112 134 gf180mcu_fd_sc_mcu9t5v0__clkinv_2
* cell instance $1015 m0 *1 755.44,801.36
X$1015 483 482 120 141 156 gf180mcu_fd_sc_mcu9t5v0__nand2_4
* cell instance $1041 m0 *1 842.24,791.28
X$1041 482 483 122 140 136 gf180mcu_fd_sc_mcu9t5v0__nor2_4
* cell instance $1045 r0 *1 852.88,791.28
X$1045 482 124 123 125 137 138 483 gf180mcu_fd_sc_mcu9t5v0__addf_1
* cell instance $1047 m0 *1 849.52,801.36
X$1047 482 123 146 148 139 147 483 gf180mcu_fd_sc_mcu9t5v0__addf_1
* cell instance $1051 m0 *1 866.32,801.36
X$1051 482 483 125 149 gf180mcu_fd_sc_mcu9t5v0__clkinv_2
* cell instance $1054 r0 *1 878.08,791.28
X$1054 482 161 126 129 128 127 483 gf180mcu_fd_sc_mcu9t5v0__addf_1
* cell instance $1056 m0 *1 882.56,841.68
X$1056 482 126 274 272 262 273 483 gf180mcu_fd_sc_mcu9t5v0__addf_1
* cell instance $1064 m0 *1 872.48,811.44
X$1064 482 483 163 127 gf180mcu_fd_sc_mcu9t5v0__clkinv_2
* cell instance $1068 m0 *1 891.52,801.36
X$1068 482 162 128 158 136 147 483 gf180mcu_fd_sc_mcu9t5v0__addf_1
* cell instance $1070 m0 *1 888.72,821.52
X$1070 482 129 204 203 173 196 483 gf180mcu_fd_sc_mcu9t5v0__addf_1
* cell instance $1074 m0 *1 922.32,801.36
X$1074 482 135 152 155 130 154 483 gf180mcu_fd_sc_mcu9t5v0__addf_1
* cell instance $1092 r0 *1 905.52,801.36
X$1092 482 135 173 153 158 134 483 gf180mcu_fd_sc_mcu9t5v0__addf_1
* cell instance $1129 r0 *1 720.72,902.16
X$1129 482 483 462 449 141 421 gf180mcu_fd_sc_mcu9t5v0__mux2_2
* cell instance $1132 r0 *1 722.4,892.08
X$1132 482 483 441 425 141 391 gf180mcu_fd_sc_mcu9t5v0__mux2_2
* cell instance $1134 m0 *1 720.16,861.84
X$1134 482 483 322 303 141 325 gf180mcu_fd_sc_mcu9t5v0__mux2_2
* cell instance $1136 r0 *1 731.36,882
X$1136 482 483 418 403 141 333 gf180mcu_fd_sc_mcu9t5v0__mux2_2
* cell instance $1139 r0 *1 744.8,902.16
X$1139 482 483 450 451 141 443 gf180mcu_fd_sc_mcu9t5v0__mux2_2
* cell instance $1141 r0 *1 904.96,882
X$1141 482 483 415 141 414 gf180mcu_fd_sc_mcu9t5v0__nor2_2
* cell instance $1143 m0 *1 913.92,892.08
X$1143 482 483 141 416 gf180mcu_fd_sc_mcu9t5v0__clkinv_2
* cell instance $1145 m0 *1 907.76,882
X$1145 482 437 351 483 384 199 141 gf180mcu_fd_sc_mcu9t5v0__nor4_2
* cell instance $1147 r0 *1 912.24,902.16
X$1147 483 460 141 482 436 gf180mcu_fd_sc_mcu9t5v0__and2_2
* cell instance $1150 m0 *1 758.24,912.24
X$1150 482 483 463 452 141 465 gf180mcu_fd_sc_mcu9t5v0__mux2_2
* cell instance $1165 r0 *1 817.04,831.6
X$1165 482 239 142 483 gf180mcu_fd_sc_mcu9t5v0__clkbuf_20
* cell instance $1168 m0 *1 873.04,882
X$1168 482 142 382 483 gf180mcu_fd_sc_mcu9t5v0__clkbuf_20
* cell instance $1171 m0 *1 752.08,851.76
X$1171 482 142 166 483 gf180mcu_fd_sc_mcu9t5v0__clkbuf_20
* cell instance $1182 m0 *1 800.24,811.44
X$1182 482 159 210 190 160 143 483 gf180mcu_fd_sc_mcu9t5v0__addf_1
* cell instance $1191 r0 *1 853.44,851.76
X$1191 482 146 319 312 290 170 483 gf180mcu_fd_sc_mcu9t5v0__addf_1
* cell instance $1204 r0 *1 877.52,831.6
X$1204 482 225 226 262 148 150 483 gf180mcu_fd_sc_mcu9t5v0__addf_1
* cell instance $1209 m0 *1 856.8,831.6
X$1209 482 236 235 224 206 149 483 gf180mcu_fd_sc_mcu9t5v0__addf_1
* cell instance $1262 m0 *1 10.64,821.52
X$1262 165 483 482 164 gf180mcu_fd_sc_mcu9t5v0__dlyb_2
* cell instance $1267 r0 *1 738.64,821.52
X$1267 482 483 207 205 167 165 gf180mcu_fd_sc_mcu9t5v0__mux2_2
* cell instance $1299 m0 *1 888.16,912.24
X$1299 482 483 461 458 167 459 gf180mcu_fd_sc_mcu9t5v0__mux2_2
* cell instance $1301 r0 *1 948.64,831.6
X$1301 482 483 232 231 167 200 gf180mcu_fd_sc_mcu9t5v0__mux2_2
* cell instance $1305 m0 *1 936.32,871.92
X$1305 482 483 387 358 167 355 gf180mcu_fd_sc_mcu9t5v0__mux2_2
* cell instance $1307 m0 *1 935.2,892.08
X$1307 482 483 440 386 167 417 gf180mcu_fd_sc_mcu9t5v0__mux2_2
* cell instance $1310 m0 *1 874.16,902.16
X$1310 482 483 435 445 167 457 gf180mcu_fd_sc_mcu9t5v0__mux2_2
* cell instance $1312 r0 *1 831.6,912.24
X$1312 482 483 473 453 167 474 gf180mcu_fd_sc_mcu9t5v0__mux2_2
* cell instance $1314 r0 *1 936.32,841.68
X$1314 482 483 269 271 167 294 gf180mcu_fd_sc_mcu9t5v0__mux2_2
* cell instance $1318 m0 *1 917.28,892.08
X$1318 482 416 167 483 gf180mcu_fd_sc_mcu9t5v0__clkbuf_8
* cell instance $1321 m0 *1 859.04,912.24
X$1321 482 483 455 454 167 456 gf180mcu_fd_sc_mcu9t5v0__mux2_2
* cell instance $1333 r0 *1 782.32,811.44
X$1333 482 181 182 183 169 168 483 gf180mcu_fd_sc_mcu9t5v0__addf_1
* cell instance $1344 r0 *1 846.72,821.52
X$1344 482 211 180 259 171 209 483 gf180mcu_fd_sc_mcu9t5v0__addf_1
* cell instance $1347 r0 *1 868.56,821.52
X$1347 172 482 483 195 208 206 gf180mcu_fd_sc_mcu9t5v0__addh_1
* cell instance $1354 r0 *1 917.28,811.44
X$1354 482 483 177 174 gf180mcu_fd_sc_mcu9t5v0__clkinv_2
* cell instance $1356 r0 *1 914.48,821.52
X$1356 482 197 199 198 174 483 gf180mcu_fd_sc_mcu9t5v0__addh_2
* cell instance $1360 m0 *1 924,831.6
X$1360 482 483 175 233 gf180mcu_fd_sc_mcu9t5v0__clkinv_2
* cell instance $1364 m0 *1 921.2,821.52
X$1364 482 483 176 198 gf180mcu_fd_sc_mcu9t5v0__clkinv_2
* cell instance $1373 r0 *1 891.52,811.44
X$1373 482 483 178 196 gf180mcu_fd_sc_mcu9t5v0__clkinv_2
* cell instance $1389 r0 *1 779.52,821.52
X$1389 482 483 182 219 gf180mcu_fd_sc_mcu9t5v0__clkinv_2
* cell instance $1394 m0 *1 805.28,821.52
X$1394 482 483 183 188 gf180mcu_fd_sc_mcu9t5v0__clkinv_2
* cell instance $1420 r0 *1 770.56,831.6
X$1420 482 237 238 254 218 185 483 gf180mcu_fd_sc_mcu9t5v0__addf_1
* cell instance $1423 r0 *1 794.64,821.52
X$1423 482 187 186 189 188 210 483 gf180mcu_fd_sc_mcu9t5v0__addf_1
* cell instance $1425 m0 *1 790.72,861.84
X$1425 482 483 186 309 gf180mcu_fd_sc_mcu9t5v0__clkinv_2
* cell instance $1427 r0 *1 791.84,831.6
X$1427 482 283 187 220 240 242 483 gf180mcu_fd_sc_mcu9t5v0__addf_1
* cell instance $1434 m0 *1 809.76,871.92
X$1434 482 343 375 366 221 189 483 gf180mcu_fd_sc_mcu9t5v0__addf_1
* cell instance $1439 m0 *1 819.28,831.6
X$1439 482 241 221 222 212 190 483 gf180mcu_fd_sc_mcu9t5v0__addf_1
* cell instance $1444 r0 *1 828.24,821.52
X$1444 482 191 212 194 213 193 483 gf180mcu_fd_sc_mcu9t5v0__addf_1
* cell instance $1448 m0 *1 831.04,861.84
X$1448 482 192 367 321 222 323 483 gf180mcu_fd_sc_mcu9t5v0__addf_1
* cell instance $1452 r0 *1 832.16,851.76
X$1452 482 327 323 320 194 289 483 gf180mcu_fd_sc_mcu9t5v0__addf_1
* cell instance $1462 r0 *1 912.8,831.6
X$1462 482 197 483 227 228 199 gf180mcu_fd_sc_mcu9t5v0__aoi21_2
* cell instance $1468 m0 *1 912.8,851.76
X$1468 483 293 266 264 229 199 482 gf180mcu_fd_sc_mcu9t5v0__oai211_2
* cell instance $1470 r0 *1 915.6,861.84
X$1470 199 483 353 359 482 357 gf180mcu_fd_sc_mcu9t5v0__and3_2
* cell instance $1473 m0 *1 908.32,871.92
X$1473 482 483 199 360 351 gf180mcu_fd_sc_mcu9t5v0__nand2_2
* cell instance $1475 m0 *1 905.52,892.08
X$1475 482 483 414 360 385 199 gf180mcu_fd_sc_mcu9t5v0__mux2_2
* cell instance $1477 r0 *1 910.56,882
X$1477 199 416 384 385 482 483 439 gf180mcu_fd_sc_mcu9t5v0__and4_2
* cell instance $1485 m0 *1 1659.28,831.6
X$1485 200 483 482 201 gf180mcu_fd_sc_mcu9t5v0__dlyb_2
* cell instance $1494 m0 *1 10.64,831.6
X$1494 482 483 214 202 gf180mcu_fd_sc_mcu9t5v0__clkbuf_4
* cell instance $1500 r0 *1 907.2,821.52
X$1500 482 483 203 234 gf180mcu_fd_sc_mcu9t5v0__clkinv_2
* cell instance $1506 r0 *1 903.84,831.6
X$1506 482 483 204 263 gf180mcu_fd_sc_mcu9t5v0__clkinv_2
* cell instance $1572 m0 *1 772.8,841.68
X$1572 482 253 252 255 254 219 483 gf180mcu_fd_sc_mcu9t5v0__addf_1
* cell instance $1578 r0 *1 807.52,861.84
X$1578 341 482 483 310 220 342 gf180mcu_fd_sc_mcu9t5v0__addh_1
* cell instance $1589 m0 *1 846.72,841.68
X$1589 236 482 483 279 223 280 gf180mcu_fd_sc_mcu9t5v0__addh_1
* cell instance $1592 r0 *1 874.16,831.6
X$1592 482 483 224 273 gf180mcu_fd_sc_mcu9t5v0__clkinv_2
* cell instance $1594 m0 *1 873.6,831.6
X$1594 482 483 235 225 gf180mcu_fd_sc_mcu9t5v0__clkinv_2
* cell instance $1598 m0 *1 871.36,861.84
X$1598 482 226 311 313 291 312 483 gf180mcu_fd_sc_mcu9t5v0__addf_1
* cell instance $1601 m0 *1 914.48,841.68
X$1601 482 483 266 268 227 gf180mcu_fd_sc_mcu9t5v0__nand2_2
* cell instance $1603 m0 *1 912.24,831.6
X$1603 482 228 229 233 234 483 gf180mcu_fd_sc_mcu9t5v0__addh_2
* cell instance $1605 r0 *1 906.64,851.76
X$1605 482 385 317 229 297 228 264 483 gf180mcu_fd_sc_mcu9t5v0__aoi221_4
* cell instance $1615 r0 *1 909.44,861.84
X$1615 315 483 292 229 482 353 gf180mcu_fd_sc_mcu9t5v0__and3_2
* cell instance $1617 r0 *1 915.04,841.68
X$1617 483 229 267 482 271 gf180mcu_fd_sc_mcu9t5v0__xnor2_2
* cell instance $1619 m0 *1 922.32,851.76
X$1619 483 292 229 482 297 gf180mcu_fd_sc_mcu9t5v0__and2_2
* cell instance $1625 r0 *1 15.12,831.6
X$1625 482 483 244 230 gf180mcu_fd_sc_mcu9t5v0__clkbuf_4
* cell instance $1660 m0 *1 759.36,841.68
X$1660 482 483 238 250 gf180mcu_fd_sc_mcu9t5v0__clkinv_2
* cell instance $1677 r0 *1 12.32,841.68
X$1677 482 483 243 270 gf180mcu_fd_sc_mcu9t5v0__clkbuf_4
* cell instance $1687 m0 *1 731.36,861.84
X$1687 361 482 483 284 246 325 gf180mcu_fd_sc_mcu9t5v0__addh_1
* cell instance $1711 m0 *1 735.28,851.76
X$1711 482 298 304 285 249 248 483 gf180mcu_fd_sc_mcu9t5v0__addf_1
* cell instance $1716 r0 *1 752.08,861.84
X$1716 482 328 335 337 307 250 483 gf180mcu_fd_sc_mcu9t5v0__addf_1
* cell instance $1719 r0 *1 754.88,841.68
X$1719 482 276 275 329 251 277 483 gf180mcu_fd_sc_mcu9t5v0__addf_1
* cell instance $1722 r0 *1 761.6,871.92
X$1722 482 336 371 372 338 252 483 gf180mcu_fd_sc_mcu9t5v0__addf_1
* cell instance $1724 r0 *1 776.16,841.68
X$1724 482 278 253 286 281 256 483 gf180mcu_fd_sc_mcu9t5v0__addf_1
* cell instance $1730 m0 *1 781.76,871.92
X$1730 482 364 394 340 255 309 483 gf180mcu_fd_sc_mcu9t5v0__addf_1
* cell instance $1739 m0 *1 813.12,851.76
X$1739 482 257 287 289 288 302 483 gf180mcu_fd_sc_mcu9t5v0__addf_1
* cell instance $1742 r0 *1 829.92,841.68
X$1742 260 482 483 282 258 324 gf180mcu_fd_sc_mcu9t5v0__addh_1
* cell instance $1745 m0 *1 864.08,841.68
X$1745 482 483 259 261 gf180mcu_fd_sc_mcu9t5v0__clkinv_2
* cell instance $1749 r0 *1 852.32,841.68
X$1749 482 280 301 300 261 260 483 gf180mcu_fd_sc_mcu9t5v0__addf_1
* cell instance $1756 r0 *1 903.28,841.68
X$1756 482 264 292 263 265 483 gf180mcu_fd_sc_mcu9t5v0__addh_2