
* cell parameterized_pwm
* pin clk
* pin div[11]
* pin div[8]
* pin pwm_out
* pin div[9]
* pin div[14]
* pin duty[5]
* pin div[10]
* pin duty[6]
* pin duty[7]
* pin div[12]
* pin div[13]
* pin div[15]
* pin duty[4]
* pin duty[3]
* pin div[7]
* pin div[5]
* pin duty[0]
* pin div[4]
* pin duty[1]
* pin div[2]
* pin div[6]
* pin duty[2]
* pin div[3]
* pin div[1]
* pin rst_n
* pin enable
* pin div[0]
* pin NWELL
* pin PWELL,gf180mcu_gnd
.SUBCKT parameterized_pwm 1 30 38 44 46 48 49 55 64 78 122 133 144 148 158 196
+ 197 200 211 219 228 241 247 252 263 268 316 317 318 319
* net 1 clk
* net 30 div[11]
* net 38 div[8]
* net 44 pwm_out
* net 46 div[9]
* net 48 div[14]
* net 49 duty[5]
* net 55 div[10]
* net 64 duty[6]
* net 78 duty[7]
* net 122 div[12]
* net 133 div[13]
* net 144 div[15]
* net 148 duty[4]
* net 158 duty[3]
* net 196 div[7]
* net 197 div[5]
* net 200 duty[0]
* net 211 div[4]
* net 219 duty[1]
* net 228 div[2]
* net 241 div[6]
* net 247 duty[2]
* net 252 div[3]
* net 263 div[1]
* net 268 rst_n
* net 316 enable
* net 317 div[0]
* net 318 NWELL
* net 319 PWELL,gf180mcu_gnd
* cell instance $3 r0 *1 101.92,115.92
X$3 319 318 1 154 gf180mcu_fd_sc_mcu9t5v0__clkbuf_4
* cell instance $18 r0 *1 119.84,136.08
X$18 319 163 2 222 318 gf180mcu_fd_sc_mcu9t5v0__dffq_2
* cell instance $20 m0 *1 123.2,115.92
X$20 319 318 154 2 gf180mcu_fd_sc_mcu9t5v0__clkbuf_4
* cell instance $22 m0 *1 159.04,55.44
X$22 319 3 2 4 318 gf180mcu_fd_sc_mcu9t5v0__dffq_2
* cell instance $24 m0 *1 124.32,176.4
X$24 319 275 2 314 318 gf180mcu_fd_sc_mcu9t5v0__dffq_2
* cell instance $27 m0 *1 155.68,85.68
X$27 319 69 2 70 318 gf180mcu_fd_sc_mcu9t5v0__dffq_2
* cell instance $29 r0 *1 114.8,105.84
X$29 319 155 2 130 318 gf180mcu_fd_sc_mcu9t5v0__dffq_2
* cell instance $31 m0 *1 148.96,176.4
X$31 319 286 2 304 318 gf180mcu_fd_sc_mcu9t5v0__dffq_2
* cell instance $33 r0 *1 133.28,95.76
X$33 319 97 2 117 318 gf180mcu_fd_sc_mcu9t5v0__dffq_2
* cell instance $35 r0 *1 158.48,105.84
X$35 319 131 2 142 318 gf180mcu_fd_sc_mcu9t5v0__dffq_2
* cell instance $37 m0 *1 147.84,156.24
X$37 319 260 2 277 318 gf180mcu_fd_sc_mcu9t5v0__dffq_2
* cell instance $39 m0 *1 105.28,166.32
X$39 319 273 2 299 318 gf180mcu_fd_sc_mcu9t5v0__dffq_2
* cell instance $42 r0 *1 122.64,55.44
X$42 319 6 2 5 318 gf180mcu_fd_sc_mcu9t5v0__dffq_2
* cell instance $44 r0 *1 113.12,126
X$44 319 164 2 188 318 gf180mcu_fd_sc_mcu9t5v0__dffq_2
* cell instance $47 r0 *1 114.8,75.6
X$47 319 23 2 51 318 gf180mcu_fd_sc_mcu9t5v0__dffq_2
* cell instance $49 r0 *1 164.64,55.44
X$49 319 17 2 10 318 gf180mcu_fd_sc_mcu9t5v0__dffq_2
* cell instance $51 r0 *1 104.72,65.52
X$51 319 15 2 34 318 gf180mcu_fd_sc_mcu9t5v0__dffq_2
* cell instance $61 m0 *1 178.64,85.68
X$61 71 319 318 75 3 72 gf180mcu_fd_sc_mcu9t5v0__addh_1
* cell instance $63 m0 *1 149.52,75.6
X$63 318 3 16 319 36 gf180mcu_fd_sc_mcu9t5v0__and2_2
* cell instance $65 r0 *1 148.4,55.44
X$65 318 3 13 319 11 gf180mcu_fd_sc_mcu9t5v0__xnor2_2
* cell instance $70 r0 *1 157.92,55.44
X$70 7 318 8 11 319 4 gf180mcu_fd_sc_mcu9t5v0__and3_2
* cell instance $72 m0 *1 124.88,65.52
X$72 7 318 8 22 319 5 gf180mcu_fd_sc_mcu9t5v0__and3_2
* cell instance $81 m0 *1 143.36,65.52
X$81 23 15 6 17 319 318 16 gf180mcu_fd_sc_mcu9t5v0__and4_2
* cell instance $83 m0 *1 127.12,55.44
X$83 6 319 14 318 22 gf180mcu_fd_sc_mcu9t5v0__xor2_2
* cell instance $85 r0 *1 190.4,65.52
X$85 33 319 318 45 6 27 gf180mcu_fd_sc_mcu9t5v0__addh_1
* cell instance $87 r0 *1 143.92,65.52
X$87 23 15 6 35 319 318 24 gf180mcu_fd_sc_mcu9t5v0__and4_2
* cell instance $103 m0 *1 118.16,176.4
X$103 7 318 8 309 319 314 gf180mcu_fd_sc_mcu9t5v0__and3_2
* cell instance $105 m0 *1 121.52,105.84
X$105 60 318 319 7 gf180mcu_fd_sc_mcu9t5v0__buf_3
* cell instance $108 m0 *1 157.92,115.92
X$108 7 318 8 141 319 142 gf180mcu_fd_sc_mcu9t5v0__and3_2
* cell instance $111 r0 *1 154.56,75.6
X$111 7 318 8 62 319 70 gf180mcu_fd_sc_mcu9t5v0__and3_2
* cell instance $114 r0 *1 106.4,156.24
X$114 318 7 284 319 299 gf180mcu_fd_sc_mcu9t5v0__and2_2
* cell instance $117 r0 *1 148.96,146.16
X$117 7 318 8 267 319 277 gf180mcu_fd_sc_mcu9t5v0__and3_2
* cell instance $119 m0 *1 135.52,105.84
X$119 7 318 8 127 319 117 gf180mcu_fd_sc_mcu9t5v0__and3_2
* cell instance $121 r0 *1 152.88,166.32
X$121 7 318 8 294 319 304 gf180mcu_fd_sc_mcu9t5v0__and3_2
* cell instance $123 m0 *1 160.16,65.52
X$123 7 318 8 21 319 10 gf180mcu_fd_sc_mcu9t5v0__and3_2
* cell instance $136 r0 *1 114.8,95.76
X$136 319 318 68 8 gf180mcu_fd_sc_mcu9t5v0__clkbuf_4
* cell instance $143 m0 *1 121.52,136.08
X$143 60 318 8 236 319 222 gf180mcu_fd_sc_mcu9t5v0__and3_2
* cell instance $153 r0 *1 199.92,55.44
X$153 319 31 318 9 29 18 gf180mcu_fd_sc_mcu9t5v0__aoi21_2
* cell instance $155 m0 *1 185.92,75.6
X$155 319 32 37 9 43 318 gf180mcu_fd_sc_mcu9t5v0__oai21_4
* cell instance $171 m0 *1 134.4,126
X$171 163 164 155 180 319 318 12 gf180mcu_fd_sc_mcu9t5v0__and4_2
* cell instance $173 m0 *1 131.04,65.52
X$173 23 318 15 12 319 14 gf180mcu_fd_sc_mcu9t5v0__and3_2
* cell instance $175 r0 *1 131.6,75.6
X$175 23 319 12 318 63 gf180mcu_fd_sc_mcu9t5v0__xor2_2
* cell instance $178 m0 *1 143.36,105.84
X$178 319 318 12 126 108 gf180mcu_fd_sc_mcu9t5v0__nand2_2
* cell instance $180 r0 *1 143.36,55.44
X$180 319 318 12 13 16 gf180mcu_fd_sc_mcu9t5v0__nand2_2
* cell instance $193 m0 *1 117.6,75.6
X$193 318 15 42 319 61 gf180mcu_fd_sc_mcu9t5v0__xnor2_2
* cell instance $195 m0 *1 203.84,75.6
X$195 31 319 318 41 15 18 gf180mcu_fd_sc_mcu9t5v0__addh_1
* cell instance $208 m0 *1 181.44,65.52
X$208 319 25 26 19 17 318 gf180mcu_fd_sc_mcu9t5v0__addh_2
* cell instance $213 m0 *1 150.64,65.52
X$213 17 319 24 318 21 gf180mcu_fd_sc_mcu9t5v0__xor2_2
* cell instance $219 m0 *1 201.6,65.52
X$219 26 20 18 27 319 318 28 gf180mcu_fd_sc_mcu9t5v0__and4_2
* cell instance $225 r0 *1 214.48,65.52
X$225 319 318 39 19 gf180mcu_fd_sc_mcu9t5v0__clkinv_2
* cell instance $228 r0 *1 204.96,65.52
X$228 29 319 318 40 23 20 gf180mcu_fd_sc_mcu9t5v0__addh_1
* cell instance $248 m0 *1 134.96,75.6
X$248 319 318 23 42 35 gf180mcu_fd_sc_mcu9t5v0__nand2_2
* cell instance $256 r0 *1 183.12,65.52
X$256 319 25 318 32 33 26 gf180mcu_fd_sc_mcu9t5v0__aoi21_2
* cell instance $265 m0 *1 193.2,65.52
X$265 319 318 26 43 27 gf180mcu_fd_sc_mcu9t5v0__nand2_2
* cell instance $275 r0 *1 185.36,105.84
X$275 318 132 28 319 156 gf180mcu_fd_sc_mcu9t5v0__and2_2
* cell instance $281 m0 *1 211.68,65.52
X$281 30 318 319 39 gf180mcu_fd_sc_mcu9t5v0__dlyb_2
* cell instance $293 r0 *1 108.64,75.6
X$293 60 318 68 61 319 34 gf180mcu_fd_sc_mcu9t5v0__and3_2
* cell instance $302 r0 *1 135.52,115.92
X$302 163 164 155 189 319 318 35 gf180mcu_fd_sc_mcu9t5v0__and4_2
* cell instance $304 r0 *1 147.84,75.6
X$304 319 318 35 52 36 gf180mcu_fd_sc_mcu9t5v0__nand2_2
* cell instance $306 r0 *1 150.08,95.76
X$306 97 318 35 108 319 135 gf180mcu_fd_sc_mcu9t5v0__and3_2
* cell instance $309 r0 *1 151.2,85.68
X$309 318 69 36 319 108 gf180mcu_fd_sc_mcu9t5v0__and2_2
* cell instance $314 m0 *1 187.04,105.84
X$314 319 140 132 37 145 318 gf180mcu_fd_sc_mcu9t5v0__aoi21_4
* cell instance $317 m0 *1 180.32,115.92
X$317 319 182 37 132 143 120 318 gf180mcu_fd_sc_mcu9t5v0__aoi211_4
* cell instance $320 m0 *1 211.68,85.68
X$320 38 318 319 53 gf180mcu_fd_sc_mcu9t5v0__dlyb_2
* cell instance $323 r0 *1 212.24,75.6
X$323 47 53 39 59 318 319 54 gf180mcu_fd_sc_mcu9t5v0__or4_2
* cell instance $327 m0 *1 216.72,75.6
X$327 319 318 53 40 gf180mcu_fd_sc_mcu9t5v0__clkinv_2
* cell instance $333 m0 *1 213.36,75.6
X$333 319 318 47 41 gf180mcu_fd_sc_mcu9t5v0__clkinv_2
* cell instance $344 r0 *1 2.24,75.6
X$344 56 318 319 44 gf180mcu_fd_sc_mcu9t5v0__dlyb_2
* cell instance $347 r0 *1 195.44,75.6
X$347 319 318 88 45 gf180mcu_fd_sc_mcu9t5v0__clkinv_2
* cell instance $351 r0 *1 203.28,75.6
X$351 46 318 319 47 gf180mcu_fd_sc_mcu9t5v0__dlyb_2
* cell instance $359 m0 *1 203.28,85.68
X$359 48 318 319 59 gf180mcu_fd_sc_mcu9t5v0__dlyb_2
* cell instance $362 r0 *1 10.64,75.6
X$362 49 318 319 57 gf180mcu_fd_sc_mcu9t5v0__dlyb_2
* cell instance $364 r0 *1 20.72,105.84
X$364 157 318 150 138 319 50 gf180mcu_fd_sc_mcu9t5v0__and3_2
* cell instance $366 r0 *1 26.32,75.6
X$366 319 56 58 50 318 gf180mcu_fd_sc_mcu9t5v0__dffq_2
* cell instance $368 m0 *1 114.24,85.68
X$368 60 318 68 63 319 51 gf180mcu_fd_sc_mcu9t5v0__and3_2
* cell instance $371 m0 *1 146.16,85.68
X$371 318 69 52 319 62 gf180mcu_fd_sc_mcu9t5v0__xnor2_2
* cell instance $377 r0 *1 198.8,115.92
X$377 319 153 123 193 195 54 318 gf180mcu_fd_sc_mcu9t5v0__nor4_4
* cell instance $381 r0 *1 211.68,85.68
X$381 55 318 319 88 gf180mcu_fd_sc_mcu9t5v0__dlyb_2
* cell instance $390 m0 *1 22.96,85.68
X$390 74 319 318 76 57 101 gf180mcu_fd_sc_mcu9t5v0__addh_1
* cell instance $403 r0 *1 84,85.68
X$403 319 96 58 86 318 gf180mcu_fd_sc_mcu9t5v0__dffq_2
* cell instance $405 m0 *1 79.52,115.92
X$405 319 318 154 58 gf180mcu_fd_sc_mcu9t5v0__clkbuf_4
* cell instance $407 m0 *1 52.64,85.68
X$407 319 77 58 84 318 gf180mcu_fd_sc_mcu9t5v0__dffq_2
* cell instance $411 r0 *1 42,156.24
X$411 319 221 58 289 318 gf180mcu_fd_sc_mcu9t5v0__dffq_2
* cell instance $413 r0 *1 84,156.24
X$413 319 258 58 283 318 gf180mcu_fd_sc_mcu9t5v0__dffq_2
* cell instance $415 m0 *1 39.76,115.92
X$415 319 168 58 161 318 gf180mcu_fd_sc_mcu9t5v0__dffq_2
* cell instance $418 m0 *1 68.88,156.24
X$418 319 203 58 280 318 gf180mcu_fd_sc_mcu9t5v0__dffq_2
* cell instance $421 m0 *1 30.8,156.24
X$421 319 185 58 279 318 gf180mcu_fd_sc_mcu9t5v0__dffq_2
* cell instance $424 r0 *1 62.72,126
X$424 319 172 58 186 318 gf180mcu_fd_sc_mcu9t5v0__dffq_2
* cell instance $427 m0 *1 34.72,95.76
X$427 319 83 58 105 318 gf180mcu_fd_sc_mcu9t5v0__dffq_2
* cell instance $429 r0 *1 89.04,115.92
X$429 319 318 58 gf180mcu_fd_sc_mcu9t5v0__inv_4
* cell instance $435 r0 *1 201.6,85.68
X$435 319 318 59 102 gf180mcu_fd_sc_mcu9t5v0__clkinv_2
* cell instance $452 m0 *1 86.24,95.76
X$452 319 107 60 318 76 115 gf180mcu_fd_sc_mcu9t5v0__nand3_2
* cell instance $455 r0 *1 66.08,85.68
X$455 319 318 80 60 gf180mcu_fd_sc_mcu9t5v0__clkbuf_4
* cell instance $457 m0 *1 70.56,95.76
X$457 319 103 60 318 85 95 gf180mcu_fd_sc_mcu9t5v0__nand3_2
* cell instance $460 r0 *1 72.24,115.92
X$460 319 174 60 318 169 173 gf180mcu_fd_sc_mcu9t5v0__nand3_2
* cell instance $462 m0 *1 115.36,105.84
X$462 60 318 68 136 319 130 gf180mcu_fd_sc_mcu9t5v0__and3_2
* cell instance $466 m0 *1 111.44,126
X$466 60 318 68 184 319 188 gf180mcu_fd_sc_mcu9t5v0__and3_2
* cell instance $471 r0 *1 77.84,136.08
X$471 318 60 203 319 237 gf180mcu_fd_sc_mcu9t5v0__and2_2
* cell instance $486 m0 *1 9.52,85.68
X$486 64 318 319 65 gf180mcu_fd_sc_mcu9t5v0__dlyb_2
* cell instance $489 r0 *1 10.64,85.68
X$489 89 319 318 81 65 66 gf180mcu_fd_sc_mcu9t5v0__addh_1
* cell instance $493 m0 *1 17.92,85.68
X$493 318 66 74 319 67 gf180mcu_fd_sc_mcu9t5v0__and2_2
* cell instance $495 m0 *1 19.04,95.76
X$495 92 318 66 101 319 94 gf180mcu_fd_sc_mcu9t5v0__and3_2
* cell instance $497 r0 *1 20.16,85.68
X$497 319 89 67 318 93 gf180mcu_fd_sc_mcu9t5v0__or2_2
* cell instance $504 m0 *1 109.76,115.92
X$504 319 318 128 68 152 gf180mcu_fd_sc_mcu9t5v0__nand2_2
* cell instance $514 r0 *1 191.52,85.68
X$514 73 319 318 90 69 87 gf180mcu_fd_sc_mcu9t5v0__addh_1
* cell instance $524 r0 *1 182,85.68
X$524 71 87 73 91 98 318 319 gf180mcu_fd_sc_mcu9t5v0__aoi211_2
* cell instance $528 r0 *1 187.04,95.76
X$528 119 72 87 109 319 318 132 gf180mcu_fd_sc_mcu9t5v0__and4_2
* cell instance $535 m0 *1 193.2,95.76
X$535 319 318 100 75 gf180mcu_fd_sc_mcu9t5v0__clkinv_2
* cell instance $545 r0 *1 81.76,95.76
X$545 318 319 76 106 116 104 86 107 gf180mcu_fd_sc_mcu9t5v0__oai32_2
* cell instance $548 m0 *1 80.64,95.76
X$548 319 318 96 76 gf180mcu_fd_sc_mcu9t5v0__clkinv_2
* cell instance $551 r0 *1 63.84,95.76
X$551 77 83 96 124 319 318 125 gf180mcu_fd_sc_mcu9t5v0__and4_2
* cell instance $555 r0 *1 62.16,85.68
X$555 319 318 77 85 gf180mcu_fd_sc_mcu9t5v0__clkinv_2
* cell instance $558 r0 *1 2.24,85.68
X$558 78 318 319 79 gf180mcu_fd_sc_mcu9t5v0__dlyb_2
* cell instance $561 m0 *1 9.52,95.76
X$561 112 319 318 85 79 92 gf180mcu_fd_sc_mcu9t5v0__addh_1
* cell instance $573 m0 *1 56,105.84
X$573 319 318 80 106 gf180mcu_fd_sc_mcu9t5v0__inv_3
* cell instance $575 r0 *1 39.76,85.68
X$575 318 80 81 319 82 gf180mcu_fd_sc_mcu9t5v0__and2_2
* cell instance $577 r0 *1 24.08,146.16
X$577 319 318 268 80 gf180mcu_fd_sc_mcu9t5v0__clkbuf_4
* cell instance $580 r0 *1 55.44,146.16
X$580 318 80 221 319 266 gf180mcu_fd_sc_mcu9t5v0__and2_2
* cell instance $583 r0 *1 60.48,146.16
X$583 318 80 257 319 269 gf180mcu_fd_sc_mcu9t5v0__and2_2
* cell instance $586 r0 *1 33.6,115.92
X$586 318 80 151 319 177 gf180mcu_fd_sc_mcu9t5v0__and2_2
* cell instance $588 m0 *1 40.88,126
X$588 318 80 168 319 170 gf180mcu_fd_sc_mcu9t5v0__and2_2
* cell instance $590 m0 *1 43.12,146.16
X$590 318 80 185 319 249 gf180mcu_fd_sc_mcu9t5v0__and2_2
* cell instance $592 r0 *1 41.44,95.76
X$592 318 80 83 319 114 gf180mcu_fd_sc_mcu9t5v0__and2_2
* cell instance $594 r0 *1 32.48,146.16
X$594 318 80 256 319 265 gf180mcu_fd_sc_mcu9t5v0__and2_2
* cell instance $599 r0 *1 44.8,85.68
X$599 319 318 83 81 gf180mcu_fd_sc_mcu9t5v0__clkinv_2
* cell instance $603 m0 *1 41.44,105.84
X$603 319 318 105 114 146 82 gf180mcu_fd_sc_mcu9t5v0__mux2_2
* cell instance $613 r0 *1 71.12,95.76
X$613 83 318 96 115 319 95 gf180mcu_fd_sc_mcu9t5v0__and3_2
* cell instance $619 m0 *1 58.24,95.76
X$619 318 319 85 106 111 104 84 103 gf180mcu_fd_sc_mcu9t5v0__oai32_2
* cell instance $642 m0 *1 208.88,95.76
X$642 88 99 100 110 318 319 123 gf180mcu_fd_sc_mcu9t5v0__or4_2
* cell instance $650 r0 *1 204.96,85.68
X$650 319 318 99 90 gf180mcu_fd_sc_mcu9t5v0__clkinv_2
* cell instance $656 m0 *1 179.2,105.84
X$656 319 318 143 91 118 gf180mcu_fd_sc_mcu9t5v0__nor2_2
* cell instance $662 r0 *1 19.04,95.76
X$662 318 92 93 319 113 gf180mcu_fd_sc_mcu9t5v0__and2_2
* cell instance $670 m0 *1 16.8,105.84
X$670 112 319 94 113 318 138 gf180mcu_fd_sc_mcu9t5v0__or3_2
* cell instance $672 r0 *1 23.52,126
X$672 202 318 94 215 319 216 gf180mcu_fd_sc_mcu9t5v0__and3_2
* cell instance $678 m0 *1 68.88,105.84
X$678 318 128 319 95 129 125 gf180mcu_fd_sc_mcu9t5v0__oai21_2
* cell instance $683 m0 *1 62.72,105.84
X$683 128 318 96 124 319 134 gf180mcu_fd_sc_mcu9t5v0__and3_2
* cell instance $693 m0 *1 182,95.76
X$693 98 319 318 102 97 109 gf180mcu_fd_sc_mcu9t5v0__addh_1
* cell instance $696 m0 *1 141.12,95.76
X$696 318 97 126 319 127 gf180mcu_fd_sc_mcu9t5v0__xnor2_2
* cell instance $702 r0 *1 179.2,95.76
X$702 318 119 319 98 118 109 gf180mcu_fd_sc_mcu9t5v0__oai21_2
* cell instance $710 m0 *1 211.68,105.84
X$710 133 318 319 99 gf180mcu_fd_sc_mcu9t5v0__dlyb_2
* cell instance $715 r0 *1 211.68,95.76
X$715 122 318 319 100 gf180mcu_fd_sc_mcu9t5v0__dlyb_2
* cell instance $741 r0 *1 81.2,115.92
X$741 318 128 319 152 104 153 gf180mcu_fd_sc_mcu9t5v0__oai21_2
* cell instance $743 m0 *1 65.52,126
X$743 318 319 169 106 198 104 186 174 gf180mcu_fd_sc_mcu9t5v0__oai32_2
* cell instance $761 m0 *1 75.6,146.16
X$761 250 318 319 203 106 125 gf180mcu_fd_sc_mcu9t5v0__nor3_2
* cell instance $766 m0 *1 88.48,156.24
X$766 319 106 318 283 271 270 gf180mcu_fd_sc_mcu9t5v0__aoi21_2
* cell instance $768 r0 *1 30.8,126
X$768 157 318 319 204 106 216 gf180mcu_fd_sc_mcu9t5v0__nor3_2
* cell instance $785 r0 *1 211.68,105.84
X$785 144 318 319 110 gf180mcu_fd_sc_mcu9t5v0__dlyb_2
* cell instance $788 r0 *1 207.76,95.76
X$788 319 318 110 121 gf180mcu_fd_sc_mcu9t5v0__clkinv_2
* cell instance $794 r0 *1 75.04,105.84
X$794 319 129 318 111 140 139 gf180mcu_fd_sc_mcu9t5v0__aoi21_2
* cell instance $801 r0 *1 10.64,105.84
X$801 159 318 319 137 112 113 gf180mcu_fd_sc_mcu9t5v0__nor3_2
* cell instance $814 m0 *1 81.2,105.84
X$814 318 128 319 115 147 125 gf180mcu_fd_sc_mcu9t5v0__oai21_2
* cell instance $817 r0 *1 66.08,115.92
X$817 168 318 172 173 319 115 gf180mcu_fd_sc_mcu9t5v0__and3_2
* cell instance $820 r0 *1 82.88,105.84
X$820 319 147 318 116 140 139 gf180mcu_fd_sc_mcu9t5v0__aoi21_2
* cell instance $830 r0 *1 198.24,95.76
X$830 120 319 318 121 131 119 gf180mcu_fd_sc_mcu9t5v0__addh_1
* cell instance $835 r0 *1 193.76,105.84
X$835 120 319 153 143 318 145 gf180mcu_fd_sc_mcu9t5v0__or3_2
* cell instance $846 m0 *1 58.24,126
X$846 168 185 172 179 319 318 124 gf180mcu_fd_sc_mcu9t5v0__and4_2
* cell instance $857 m0 *1 80.64,126
X$857 318 128 319 173 199 125 gf180mcu_fd_sc_mcu9t5v0__oai21_2
* cell instance $881 r0 *1 57.68,136.08
X$881 318 152 246 153 128 179 319 gf180mcu_fd_sc_mcu9t5v0__oai211_2
* cell instance $883 m0 *1 112.56,156.24
X$883 319 318 128 281 282 gf180mcu_fd_sc_mcu9t5v0__nand2_2
* cell instance $886 m0 *1 50.96,126
X$886 128 185 172 179 319 318 171 gf180mcu_fd_sc_mcu9t5v0__and4_2
* cell instance $890 r0 *1 116.48,146.16
X$890 319 318 259 128 gf180mcu_fd_sc_mcu9t5v0__buf_4
* cell instance $893 m0 *1 89.6,136.08
X$893 319 318 128 204 gf180mcu_fd_sc_mcu9t5v0__clkinv_3
* cell instance $902 m0 *1 156.8,105.84
X$902 131 319 135 318 141 gf180mcu_fd_sc_mcu9t5v0__xor2_2
* cell instance $916 r0 *1 62.16,105.84
X$916 318 134 319 152 146 153 gf180mcu_fd_sc_mcu9t5v0__oai21_2
* cell instance $923 m0 *1 131.04,115.92
X$923 155 319 162 318 136 gf180mcu_fd_sc_mcu9t5v0__xor2_2
* cell instance $928 m0 *1 10.08,115.92
X$928 137 319 318 151 149 160 gf180mcu_fd_sc_mcu9t5v0__addh_1
* cell instance $939 r0 *1 79.52,126
X$939 319 204 318 187 140 139 gf180mcu_fd_sc_mcu9t5v0__aoi21_2
* cell instance $941 m0 *1 88.48,126
X$941 319 199 318 198 140 139 gf180mcu_fd_sc_mcu9t5v0__aoi21_2
* cell instance $944 r0 *1 183.68,126
X$944 319 156 139 217 224 208 318 gf180mcu_fd_sc_mcu9t5v0__aoi22_4
* cell instance $979 r0 *1 2.24,105.84
X$979 148 318 319 149 gf180mcu_fd_sc_mcu9t5v0__dlyb_2
* cell instance $984 r0 *1 16.24,115.92
X$984 318 159 319 176 150 167 gf180mcu_fd_sc_mcu9t5v0__oai21_2
* cell instance $987 m0 *1 36.4,115.92
X$987 319 318 168 151 gf180mcu_fd_sc_mcu9t5v0__clkinv_2
* cell instance $1003 m0 *1 104.72,156.24
X$1003 318 272 319 281 284 152 gf180mcu_fd_sc_mcu9t5v0__oai21_2
* cell instance $1006 m0 *1 177.52,136.08
X$1006 319 152 233 226 232 182 318 gf180mcu_fd_sc_mcu9t5v0__oai211_4
* cell instance $1011 r0 *1 86.24,146.16
X$1011 204 319 258 152 318 270 gf180mcu_fd_sc_mcu9t5v0__or3_2
* cell instance $1014 r0 *1 54.88,115.92
X$1014 318 171 319 152 165 153 gf180mcu_fd_sc_mcu9t5v0__oai21_2
* cell instance $1040 m0 *1 146.72,126
X$1040 319 190 191 181 155 318 gf180mcu_fd_sc_mcu9t5v0__addh_2
* cell instance $1049 r0 *1 185.92,136.08
X$1049 319 318 156 232 224 gf180mcu_fd_sc_mcu9t5v0__nand2_2
* cell instance $1051 r0 *1 176.4,126
X$1051 225 239 156 207 319 318 217 gf180mcu_fd_sc_mcu9t5v0__and4_2
* cell instance $1056 r0 *1 176.96,136.08
X$1056 319 233 156 239 225 318 207 gf180mcu_fd_sc_mcu9t5v0__nand4_2
* cell instance $1063 m0 *1 2.24,126
X$1063 158 318 319 166 gf180mcu_fd_sc_mcu9t5v0__dlyb_2
* cell instance $1068 r0 *1 15.68,126
X$1068 178 213 230 160 319 318 215 gf180mcu_fd_sc_mcu9t5v0__and4_2
* cell instance $1070 m0 *1 18.48,126
X$1070 319 318 160 167 gf180mcu_fd_sc_mcu9t5v0__clkinv_2
* cell instance $1073 r0 *1 39.76,115.92
X$1073 319 318 161 170 165 177 gf180mcu_fd_sc_mcu9t5v0__mux2_2
* cell instance $1077 r0 *1 129.36,115.92
X$1077 163 318 164 189 319 162 gf180mcu_fd_sc_mcu9t5v0__and3_2
* cell instance $1083 m0 *1 127.68,136.08
X$1083 163 319 189 318 236 gf180mcu_fd_sc_mcu9t5v0__xor2_2
* cell instance $1087 r0 *1 161.84,136.08
X$1087 319 223 225 231 163 318 gf180mcu_fd_sc_mcu9t5v0__addh_2
* cell instance $1092 m0 *1 129.36,126
X$1092 319 318 163 183 180 gf180mcu_fd_sc_mcu9t5v0__nand2_2
* cell instance $1100 m0 *1 119.84,126
X$1100 318 164 183 319 184 gf180mcu_fd_sc_mcu9t5v0__xnor2_2
* cell instance $1107 r0 *1 150.64,126
X$1107 218 319 318 205 164 192 gf180mcu_fd_sc_mcu9t5v0__addh_1
* cell instance $1114 r0 *1 6.16,115.92
X$1114 175 319 318 169 166 178 gf180mcu_fd_sc_mcu9t5v0__addh_1
* cell instance $1134 r0 *1 62.72,115.92
X$1134 319 318 172 169 gf180mcu_fd_sc_mcu9t5v0__clkinv_2
* cell instance $1158 m0 *1 57.12,136.08
X$1158 185 318 203 221 319 173 gf180mcu_fd_sc_mcu9t5v0__and3_2
* cell instance $1167 m0 *1 10.64,126
X$1167 319 175 318 176 214 178 gf180mcu_fd_sc_mcu9t5v0__aoi21_2
* cell instance $1181 m0 *1 53.76,146.16
X$1181 179 319 318 203 221 257 gf180mcu_fd_sc_mcu9t5v0__addh_1
* cell instance $1189 m0 *1 136.64,146.16
X$1189 318 260 274 319 180 gf180mcu_fd_sc_mcu9t5v0__and2_2
* cell instance $1198 m0 *1 203.28,126
X$1198 319 318 194 181 gf180mcu_fd_sc_mcu9t5v0__clkinv_2
* cell instance $1224 r0 *1 37.52,146.16
X$1224 319 318 185 256 gf180mcu_fd_sc_mcu9t5v0__clkinv_2
* cell instance $1231 r0 *1 75.04,146.16
X$1231 319 318 280 250 187 237 gf180mcu_fd_sc_mcu9t5v0__mux2_2
* cell instance $1234 m0 *1 60.48,156.24
X$1234 319 318 289 269 187 266 gf180mcu_fd_sc_mcu9t5v0__mux2_2
* cell instance $1243 m0 *1 137.76,156.24
X$1243 275 286 260 276 319 318 189 gf180mcu_fd_sc_mcu9t5v0__and4_2
* cell instance $1249 m0 *1 148.96,136.08
X$1249 319 190 318 235 218 191 gf180mcu_fd_sc_mcu9t5v0__aoi21_2
* cell instance $1254 r0 *1 160.16,126
X$1254 319 318 191 206 192 gf180mcu_fd_sc_mcu9t5v0__nand2_2
* cell instance $1257 r0 *1 165.2,126
X$1257 318 191 192 319 207 gf180mcu_fd_sc_mcu9t5v0__and2_2
* cell instance $1264 r0 *1 195.44,146.16
X$1264 251 278 262 240 318 319 193 gf180mcu_fd_sc_mcu9t5v0__or4_2
* cell instance $1268 m0 *1 211.68,126
X$1268 196 318 319 194 gf180mcu_fd_sc_mcu9t5v0__dlyb_2
* cell instance $1271 r0 *1 201.6,126
X$1271 209 210 227 194 318 319 195 gf180mcu_fd_sc_mcu9t5v0__or4_2
* cell instance $1278 r0 *1 209.44,126
X$1278 197 318 319 210 gf180mcu_fd_sc_mcu9t5v0__dlyb_2
* cell instance $1288 r0 *1 2.24,126
X$1288 200 318 319 201 gf180mcu_fd_sc_mcu9t5v0__dlyb_2
* cell instance $1291 r0 *1 11.2,126
X$1291 319 318 201 212 gf180mcu_fd_sc_mcu9t5v0__clkinv_2
* cell instance $1294 r0 *1 12.88,146.16
X$1294 255 319 318 256 264 202 gf180mcu_fd_sc_mcu9t5v0__addh_1
* cell instance $1296 m0 *1 21.84,146.16
X$1296 319 318 202 254 gf180mcu_fd_sc_mcu9t5v0__clkinv_2
* cell instance $1303 m0 *1 17.36,136.08
X$1303 229 319 318 203 212 230 gf180mcu_fd_sc_mcu9t5v0__addh_1
* cell instance $1320 r0 *1 101.92,146.16
X$1320 319 318 204 272 273 gf180mcu_fd_sc_mcu9t5v0__nand2_2
* cell instance $1322 r0 *1 92.96,146.16
X$1322 319 318 204 271 258 gf180mcu_fd_sc_mcu9t5v0__nand2_2
* cell instance $1327 m0 *1 197.12,146.16
X$1327 319 318 240 205 gf180mcu_fd_sc_mcu9t5v0__clkinv_2
* cell instance $1332 m0 *1 158.48,136.08
X$1332 318 235 319 234 224 206 gf180mcu_fd_sc_mcu9t5v0__oai21_2
* cell instance $1340 m0 *1 191.52,166.32
X$1340 318 301 319 300 208 292 gf180mcu_fd_sc_mcu9t5v0__oai21_2
* cell instance $1345 m0 *1 211.12,136.08
X$1345 228 318 319 209 gf180mcu_fd_sc_mcu9t5v0__dlyb_2
* cell instance $1348 r0 *1 189.84,146.16
X$1348 319 318 209 261 gf180mcu_fd_sc_mcu9t5v0__clkinv_2
* cell instance $1355 m0 *1 195.44,136.08
X$1355 319 318 210 231 gf180mcu_fd_sc_mcu9t5v0__clkinv_2
* cell instance $1358 m0 *1 201.6,136.08
X$1358 211 318 319 227 gf180mcu_fd_sc_mcu9t5v0__dlyb_2
* cell instance $1369 m0 *1 6.72,146.16
X$1369 319 243 318 253 220 213 gf180mcu_fd_sc_mcu9t5v0__aoi21_2
* cell instance $1371 r0 *1 11.76,136.08
X$1371 243 319 318 244 242 213 gf180mcu_fd_sc_mcu9t5v0__addh_1
* cell instance $1376 m0 *1 14,146.16
X$1376 318 248 319 253 214 254 gf180mcu_fd_sc_mcu9t5v0__oai21_2
* cell instance $1395 r0 *1 2.24,136.08
X$1395 219 318 319 242 gf180mcu_fd_sc_mcu9t5v0__dlyb_2
* cell instance $1398 m0 *1 10.64,136.08
X$1398 319 318 229 220 gf180mcu_fd_sc_mcu9t5v0__clkinv_2
* cell instance $1405 r0 *1 37.52,136.08
X$1405 319 318 221 244 gf180mcu_fd_sc_mcu9t5v0__clkinv_2
* cell instance $1413 m0 *1 166.32,136.08
X$1413 319 223 318 234 238 225 gf180mcu_fd_sc_mcu9t5v0__aoi21_2
* cell instance $1428 r0 *1 173.04,166.32
X$1428 319 226 310 291 295 290 307 318 gf180mcu_fd_sc_mcu9t5v0__aoi221_4
* cell instance $1435 r0 *1 192.64,136.08
X$1435 319 318 227 245 gf180mcu_fd_sc_mcu9t5v0__clkinv_2
* cell instance $1469 m0 *1 169.12,146.16
X$1469 238 319 318 245 260 239 gf180mcu_fd_sc_mcu9t5v0__addh_1
* cell instance $1479 m0 *1 211.68,146.16
X$1479 241 318 319 240 gf180mcu_fd_sc_mcu9t5v0__dlyb_2
* cell instance $1501 r0 *1 42,146.16
X$1501 319 318 279 249 246 265 gf180mcu_fd_sc_mcu9t5v0__mux2_2
* cell instance $1506 r0 *1 2.24,146.16
X$1506 247 318 319 264 gf180mcu_fd_sc_mcu9t5v0__dlyb_2
* cell instance $1509 m0 *1 13.44,156.24
X$1509 319 318 255 248 gf180mcu_fd_sc_mcu9t5v0__clkinv_2
* cell instance $1518 r0 *1 211.68,146.16
X$1518 263 318 319 251 gf180mcu_fd_sc_mcu9t5v0__dlyb_2
* cell instance $1521 r0 *1 210,156.24
X$1521 319 318 251 293 gf180mcu_fd_sc_mcu9t5v0__clkinv_2
* cell instance $1524 r0 *1 203.28,146.16
X$1524 252 318 319 262 gf180mcu_fd_sc_mcu9t5v0__dlyb_2
* cell instance $1548 r0 *1 136.08,156.24
X$1548 259 318 258 273 319 276 gf180mcu_fd_sc_mcu9t5v0__and3_2
* cell instance $1551 r0 *1 164.08,166.32
X$1551 319 318 258 315 gf180mcu_fd_sc_mcu9t5v0__clkinv_2
* cell instance $1553 m0 *1 120.4,156.24
X$1553 285 319 318 258 273 282 gf180mcu_fd_sc_mcu9t5v0__addh_1
* cell instance $1565 m0 *1 114.8,216.72
X$1565 316 318 319 259 gf180mcu_fd_sc_mcu9t5v0__clkbuf_2
* cell instance $1567 m0 *1 122.08,166.32
X$1567 319 318 259 303 285 gf180mcu_fd_sc_mcu9t5v0__nand2_2
* cell instance $1569 m0 *1 130.48,156.24
X$1569 259 285 275 286 319 318 274 gf180mcu_fd_sc_mcu9t5v0__and4_2
* cell instance $1581 r0 *1 139.44,146.16
X$1581 260 319 274 318 267 gf180mcu_fd_sc_mcu9t5v0__xor2_2
* cell instance $1586 m0 *1 182,156.24
X$1586 287 319 318 261 275 297 gf180mcu_fd_sc_mcu9t5v0__addh_1
* cell instance $1591 m0 *1 193.2,156.24
X$1591 319 318 262 288 gf180mcu_fd_sc_mcu9t5v0__clkinv_2
* cell instance $1631 m0 *1 206.08,166.32
X$1631 319 298 305 293 273 318 gf180mcu_fd_sc_mcu9t5v0__addh_2
* cell instance $1646 r0 *1 121.52,166.32
X$1646 318 275 303 319 309 gf180mcu_fd_sc_mcu9t5v0__xnor2_2
* cell instance $1648 m0 *1 143.36,166.32
X$1648 318 275 276 319 302 gf180mcu_fd_sc_mcu9t5v0__and2_2
* cell instance $1665 m0 *1 158.48,216.72
X$1665 317 318 319 278 gf180mcu_fd_sc_mcu9t5v0__dlyb_2
* cell instance $1669 m0 *1 165.76,176.4
X$1669 312 319 318 278 315 311 gf180mcu_fd_sc_mcu9t5v0__addh_1
* cell instance $1705 r0 *1 174.16,156.24
X$1705 319 290 295 288 286 318 gf180mcu_fd_sc_mcu9t5v0__addh_2
* cell instance $1707 m0 *1 148.4,166.32
X$1707 286 319 302 318 294 gf180mcu_fd_sc_mcu9t5v0__xor2_2
* cell instance $1713 m0 *1 176.4,166.32
X$1713 318 295 319 296 301 287 gf180mcu_fd_sc_mcu9t5v0__oai21_2
* cell instance $1715 m0 *1 181.44,176.4
X$1715 319 287 296 318 310 gf180mcu_fd_sc_mcu9t5v0__or2_2
* cell instance $1729 r0 *1 193.2,156.24
X$1729 319 318 292 290 291 gf180mcu_fd_sc_mcu9t5v0__nor2_2
* cell instance $1733 r0 *1 197.68,166.32
X$1733 308 305 298 300 290 318 319 gf180mcu_fd_sc_mcu9t5v0__aoi211_2
* cell instance $1736 m0 *1 186.48,166.32
X$1736 318 295 297 319 291 gf180mcu_fd_sc_mcu9t5v0__and2_2
* cell instance $1757 m0 *1 187.04,176.4
X$1757 305 318 311 297 319 296 gf180mcu_fd_sc_mcu9t5v0__and3_2
* cell instance $1766 r0 *1 208.32,166.32
X$1766 319 318 298 306 gf180mcu_fd_sc_mcu9t5v0__clkinv_2
* cell instance $1793 m0 *1 212.8,176.4
X$1793 319 318 305 313 gf180mcu_fd_sc_mcu9t5v0__clkinv_2
* cell instance $1797 m0 *1 204.96,176.4
X$1797 318 306 319 312 307 313 gf180mcu_fd_sc_mcu9t5v0__oai21_2
* cell instance $1804 m0 *1 197.12,176.4
X$1804 319 318 312 308 gf180mcu_fd_sc_mcu9t5v0__clkinv_2
.ENDS parameterized_pwm

* cell gf180mcu_fd_sc_mcu9t5v0__buf_3
* pin I
* pin NWELL,VDD
* pin PWELL,VSS,gf180mcu_gnd
* pin Z
.SUBCKT gf180mcu_fd_sc_mcu9t5v0__buf_3 1 2 3 5
* net 1 I
* net 2 NWELL,VDD
* net 3 PWELL,VSS,gf180mcu_gnd
* net 5 Z
* device instance $1 r0 *1 0.87,3.78 pmos_5p0
M$1 2 1 4 2 pmos_5p0 L=0.5U W=1.83U AS=0.8052P AD=0.74115P PS=4.54U PD=2.64U
* device instance $2 r0 *1 2.18,3.78 pmos_5p0
M$2 5 4 2 2 pmos_5p0 L=0.5U W=5.49U AS=1.87575P AD=1.9398P PS=7.54U PD=9.44U
* device instance $5 r0 *1 0.92,1.005 nmos_5p0
M$5 3 1 4 3 nmos_5p0 L=0.6U W=1.32U AS=0.5808P AD=0.4686P PS=3.52U PD=2.03U
* device instance $6 r0 *1 2.23,1.005 nmos_5p0
M$6 5 4 3 3 nmos_5p0 L=0.6U W=3.96U AS=1.155P AD=1.2672P PS=5.71U PD=7.2U
.ENDS gf180mcu_fd_sc_mcu9t5v0__buf_3

* cell gf180mcu_fd_sc_mcu9t5v0__aoi21_4
* pin PWELL,VSS,gf180mcu_gnd
* pin ZN
* pin A1
* pin A2
* pin B
* pin NWELL,VDD
.SUBCKT gf180mcu_fd_sc_mcu9t5v0__aoi21_4 1 2 3 4 5 11
* net 1 PWELL,VSS,gf180mcu_gnd
* net 2 ZN
* net 3 A1
* net 4 A2
* net 5 B
* net 11 NWELL,VDD
* device instance $1 r0 *1 1.07,3.785 pmos_5p0
M$1 2 4 10 11 pmos_5p0 L=0.5U W=7.32U AS=2.2326P AD=2.1594P PS=11.59U PD=9.68U
* device instance $2 r0 *1 2.09,3.785 pmos_5p0
M$2 10 3 2 11 pmos_5p0 L=0.5U W=7.32U AS=1.9032P AD=1.9032P PS=9.4U PD=9.4U
* device instance $9 r0 *1 9.51,3.785 pmos_5p0
M$9 11 5 10 11 pmos_5p0 L=0.5U W=7.32U AS=2.1594P AD=2.2326P PS=9.68U PD=11.59U
* device instance $13 r0 *1 1.14,1 nmos_5p0
M$13 7 4 1 1 nmos_5p0 L=0.6U W=1.32U AS=0.5808P AD=0.1584P PS=3.52U PD=1.56U
* device instance $14 r0 *1 1.98,1 nmos_5p0
M$14 2 3 7 1 nmos_5p0 L=0.6U W=1.32U AS=0.1584P AD=0.3432P PS=1.56U PD=1.84U
* device instance $15 r0 *1 3.1,1 nmos_5p0
M$15 6 3 2 1 nmos_5p0 L=0.6U W=1.32U AS=0.3432P AD=0.1584P PS=1.84U PD=1.56U
* device instance $16 r0 *1 3.94,1 nmos_5p0
M$16 1 4 6 1 nmos_5p0 L=0.6U W=1.32U AS=0.1584P AD=0.3432P PS=1.56U PD=1.84U
* device instance $17 r0 *1 5.06,1 nmos_5p0
M$17 8 4 1 1 nmos_5p0 L=0.6U W=1.32U AS=0.3432P AD=0.1584P PS=1.84U PD=1.56U
* device instance $18 r0 *1 5.9,1 nmos_5p0
M$18 2 3 8 1 nmos_5p0 L=0.6U W=1.32U AS=0.1584P AD=0.3432P PS=1.56U PD=1.84U
* device instance $19 r0 *1 7.02,1 nmos_5p0
M$19 9 3 2 1 nmos_5p0 L=0.6U W=1.32U AS=0.3432P AD=0.1584P PS=1.84U PD=1.56U
* device instance $20 r0 *1 7.86,1 nmos_5p0
M$20 1 4 9 1 nmos_5p0 L=0.6U W=1.32U AS=0.1584P AD=0.402P PS=1.56U PD=2.02U
* device instance $21 r0 *1 9.16,1.2 nmos_5p0
M$21 2 5 1 1 nmos_5p0 L=0.6U W=3.68U AS=1.1196P AD=1.1224P PS=6.34U PD=7.04U
.ENDS gf180mcu_fd_sc_mcu9t5v0__aoi21_4

* cell gf180mcu_fd_sc_mcu9t5v0__oai21_4
* pin PWELL,VSS,gf180mcu_gnd
* pin B
* pin ZN
* pin A2
* pin A1
* pin NWELL,VDD
.SUBCKT gf180mcu_fd_sc_mcu9t5v0__oai21_4 1 2 4 5 6 7
* net 1 PWELL,VSS,gf180mcu_gnd
* net 2 B
* net 4 ZN
* net 5 A2
* net 6 A1
* net 7 NWELL,VDD