* CDL Netlist generated by OpenROAD

*.BUSDELIMITER [

.SUBCKT ddr_controller clk cmd_addr[0] cmd_addr[10] cmd_addr[11]
+ cmd_addr[12] cmd_addr[13] cmd_addr[14] cmd_addr[15] cmd_addr[16]
+ cmd_addr[17] cmd_addr[18] cmd_addr[19] cmd_addr[1] cmd_addr[20]
+ cmd_addr[21] cmd_addr[22] cmd_addr[23] cmd_addr[24] cmd_addr[25]
+ cmd_addr[26] cmd_addr[27] cmd_addr[2] cmd_addr[3] cmd_addr[4]
+ cmd_addr[5] cmd_addr[6] cmd_addr[7] cmd_addr[8] cmd_addr[9]
+ cmd_burst_len[0] cmd_burst_len[1] cmd_burst_len[2] cmd_burst_len[3]
+ cmd_ready cmd_valid cmd_write init_done phy_addr[0] phy_addr[10]
+ phy_addr[11] phy_addr[12] phy_addr[13] phy_addr[1] phy_addr[2]
+ phy_addr[3] phy_addr[4] phy_addr[5] phy_addr[6] phy_addr[7]
+ phy_addr[8] phy_addr[9] phy_bank[0] phy_bank[1] phy_bank[2]
+ phy_bank_group[0] phy_bank_group[1] phy_cas_n phy_cke phy_clk
+ phy_cs_n phy_dm[0] phy_dm[1] phy_dm[2] phy_dm[3] phy_dm[4]
+ phy_dm[5] phy_dm[6] phy_dm[7] phy_dq[0] phy_dq[10] phy_dq[11]
+ phy_dq[12] phy_dq[13] phy_dq[14] phy_dq[15] phy_dq[16] phy_dq[17]
+ phy_dq[18] phy_dq[19] phy_dq[1] phy_dq[20] phy_dq[21] phy_dq[22]
+ phy_dq[23] phy_dq[24] phy_dq[25] phy_dq[26] phy_dq[27] phy_dq[28]
+ phy_dq[29] phy_dq[2] phy_dq[30] phy_dq[31] phy_dq[32] phy_dq[33]
+ phy_dq[34] phy_dq[35] phy_dq[36] phy_dq[37] phy_dq[38] phy_dq[39]
+ phy_dq[3] phy_dq[40] phy_dq[41] phy_dq[42] phy_dq[43] phy_dq[44]
+ phy_dq[45] phy_dq[46] phy_dq[47] phy_dq[48] phy_dq[49] phy_dq[4]
+ phy_dq[50] phy_dq[51] phy_dq[52] phy_dq[53] phy_dq[54] phy_dq[55]
+ phy_dq[56] phy_dq[57] phy_dq[58] phy_dq[59] phy_dq[5] phy_dq[60]
+ phy_dq[61] phy_dq[62] phy_dq[63] phy_dq[6] phy_dq[7] phy_dq[8]
+ phy_dq[9] phy_dqs_n[0] phy_dqs_n[1] phy_dqs_n[2] phy_dqs_n[3]
+ phy_dqs_n[4] phy_dqs_n[5] phy_dqs_n[6] phy_dqs_n[7] phy_dqs_p[0]
+ phy_dqs_p[1] phy_dqs_p[2] phy_dqs_p[3] phy_dqs_p[4] phy_dqs_p[5]
+ phy_dqs_p[6] phy_dqs_p[7] phy_odt phy_ras_n phy_reset_n phy_we_n
+ rd_data[0] rd_data[10] rd_data[11] rd_data[12] rd_data[13]
+ rd_data[14] rd_data[15] rd_data[16] rd_data[17] rd_data[18]
+ rd_data[19] rd_data[1] rd_data[20] rd_data[21] rd_data[22]
+ rd_data[23] rd_data[24] rd_data[25] rd_data[26] rd_data[27]
+ rd_data[28] rd_data[29] rd_data[2] rd_data[30] rd_data[31]
+ rd_data[32] rd_data[33] rd_data[34] rd_data[35] rd_data[36]
+ rd_data[37] rd_data[38] rd_data[39] rd_data[3] rd_data[40]
+ rd_data[41] rd_data[42] rd_data[43] rd_data[44] rd_data[45]
+ rd_data[46] rd_data[47] rd_data[48] rd_data[49] rd_data[4]
+ rd_data[50] rd_data[51] rd_data[52] rd_data[53] rd_data[54]
+ rd_data[55] rd_data[56] rd_data[57] rd_data[58] rd_data[59]
+ rd_data[5] rd_data[60] rd_data[61] rd_data[62] rd_data[63]
+ rd_data[6] rd_data[7] rd_data[8] rd_data[9] rd_ready rd_valid
+ rst_n state[0] state[1] wr_data[0] wr_data[10] wr_data[11]
+ wr_data[12] wr_data[13] wr_data[14] wr_data[15] wr_data[16]
+ wr_data[17] wr_data[18] wr_data[19] wr_data[1] wr_data[20]
+ wr_data[21] wr_data[22] wr_data[23] wr_data[24] wr_data[25]
+ wr_data[26] wr_data[27] wr_data[28] wr_data[29] wr_data[2]
+ wr_data[30] wr_data[31] wr_data[32] wr_data[33] wr_data[34]
+ wr_data[35] wr_data[36] wr_data[37] wr_data[38] wr_data[39]
+ wr_data[3] wr_data[40] wr_data[41] wr_data[42] wr_data[43]
+ wr_data[44] wr_data[45] wr_data[46] wr_data[47] wr_data[48]
+ wr_data[49] wr_data[4] wr_data[50] wr_data[51] wr_data[52]
+ wr_data[53] wr_data[54] wr_data[55] wr_data[56] wr_data[57]
+ wr_data[58] wr_data[59] wr_data[5] wr_data[60] wr_data[61]
+ wr_data[62] wr_data[63] wr_data[6] wr_data[7] wr_data[8] wr_data[9]
+ wr_mask[0] wr_mask[1] wr_mask[2] wr_mask[3] wr_mask[4] wr_mask[5]
+ wr_mask[6] wr_mask[7] wr_ready wr_valid
X_0887_ _0876_ _0478_ VDD VSS gf180mcu_fd_sc_mcu9t5v0__buf_4
X_0888_ _0870_ _0479_ VDD VSS gf180mcu_fd_sc_mcu9t5v0__clkinv_2
X_0889_ timer\[5\] timer\[4\] timer\[7\] timer\[6\] _0480_
+ VDD VSS gf180mcu_fd_sc_mcu9t5v0__or4_2
X_0890_ timer\[3\] timer\[2\] _0479_ _0480_ _0481_ VDD VSS
+ gf180mcu_fd_sc_mcu9t5v0__or4_2
X_0891_ timer\[13\] timer\[14\] _0482_ VDD VSS gf180mcu_fd_sc_mcu9t5v0__or2_2
X_0892_ timer\[9\] timer\[8\] timer\[10\] timer\[11\] _0483_
+ VDD VSS gf180mcu_fd_sc_mcu9t5v0__or4_2
X_0893_ timer\[12\] timer\[15\] _0482_ _0483_ _0484_ VDD VSS
+ gf180mcu_fd_sc_mcu9t5v0__or4_2
X_0894_ _0481_ _0484_ _0485_ VDD VSS gf180mcu_fd_sc_mcu9t5v0__nor2_4
X_0895_ _0485_ _0486_ VDD VSS gf180mcu_fd_sc_mcu9t5v0__buf_4
X_0896_ _0478_ _0486_ _0487_ VDD VSS gf180mcu_fd_sc_mcu9t5v0__and2_4
X_0897_ init_state\[2\] init_state\[4\] _0487_ _0003_ VDD
+ VSS gf180mcu_fd_sc_mcu9t5v0__mux2_2
X_0898_ init_state\[3\] init_state\[5\] _0487_ _0004_ VDD
+ VSS gf180mcu_fd_sc_mcu9t5v0__mux2_2
X_0899_ init_state\[4\] init_state\[0\] _0487_ _0005_ VDD
+ VSS gf180mcu_fd_sc_mcu9t5v0__mux2_2
X_0900_ init_state\[5\] init_state\[1\] _0487_ _0006_ VDD
+ VSS gf180mcu_fd_sc_mcu9t5v0__mux2_2
X_0901_ net121 _0844_ VDD VSS gf180mcu_fd_sc_mcu9t5v0__clkinv_2
X_0902_ _0487_ _0488_ VDD VSS gf180mcu_fd_sc_mcu9t5v0__clkinv_2
X_0903_ init_state\[0\] _0488_ _0001_ VDD VSS gf180mcu_fd_sc_mcu9t5v0__and2_2
X_0904_ init_state\[1\] init_state\[6\] _0487_ _0002_ VDD
+ VSS gf180mcu_fd_sc_mcu9t5v0__mux2_2
X_0905_ init_state\[6\] init_state\[2\] _0487_ _0007_ VDD
+ VSS gf180mcu_fd_sc_mcu9t5v0__mux2_2
X_0906_ init_state\[3\] _0487_ _0489_ VDD VSS gf180mcu_fd_sc_mcu9t5v0__and2_2
X_0907_ init_state\[7\] _0489_ _0008_ VDD VSS gf180mcu_fd_sc_mcu9t5v0__or2_2
X_0908_ burst_counter\[0\] _0849_ VDD VSS gf180mcu_fd_sc_mcu9t5v0__clkinv_2
X_0909_ net5 _0490_ VDD VSS gf180mcu_fd_sc_mcu9t5v0__clkinv_8
X_0910_ _0490_ _0491_ VDD VSS gf180mcu_fd_sc_mcu9t5v0__clkbuf_8
X_0911_ net3 _0492_ VDD VSS gf180mcu_fd_sc_mcu9t5v0__clkbuf_12
X_0912_ _0492_ _0493_ VDD VSS gf180mcu_fd_sc_mcu9t5v0__clkbuf_8
X_0913_ net4 _0494_ VDD VSS gf180mcu_fd_sc_mcu9t5v0__clkbuf_8
X_0914_ _0494_ _0495_ VDD VSS gf180mcu_fd_sc_mcu9t5v0__clkbuf_8
X_0915_ bank_active\[4\] bank_active\[5\] bank_active\[6\]
+ bank_active\[7\] _0493_ _0495_ _0496_ VDD VSS gf180mcu_fd_sc_mcu9t5v0__mux4_2
X_0916_ _0491_ _0496_ _0497_ VDD VSS gf180mcu_fd_sc_mcu9t5v0__nor2_2
X_0917_ net4 _0498_ VDD VSS gf180mcu_fd_sc_mcu9t5v0__clkbuf_12
X_0918_ net5 _0498_ _0499_ VDD VSS gf180mcu_fd_sc_mcu9t5v0__or2_2
X_0919_ _0492_ _0500_ VDD VSS gf180mcu_fd_sc_mcu9t5v0__buf_8
X_0920_ bank_active\[0\] bank_active\[1\] _0500_ _0501_ VDD
+ VSS gf180mcu_fd_sc_mcu9t5v0__mux2_2
X_0921_ net5 _0502_ VDD VSS gf180mcu_fd_sc_mcu9t5v0__clkbuf_8
X_0922_ _0502_ _0503_ VDD VSS gf180mcu_fd_sc_mcu9t5v0__buf_4
X_0923_ net4 _0504_ VDD VSS gf180mcu_fd_sc_mcu9t5v0__clkinv_3
X_0924_ _0504_ _0505_ VDD VSS gf180mcu_fd_sc_mcu9t5v0__clkbuf_8
X_0925_ _0505_ _0506_ VDD VSS gf180mcu_fd_sc_mcu9t5v0__buf_4
X_0926_ bank_active\[2\] bank_active\[3\] _0492_ _0507_ VDD
+ VSS gf180mcu_fd_sc_mcu9t5v0__mux2_2
X_0927_ _0503_ _0506_ _0507_ _0508_ VDD VSS gf180mcu_fd_sc_mcu9t5v0__or3_2
X_0928_ _0499_ _0501_ _0508_ _0509_ VDD VSS gf180mcu_fd_sc_mcu9t5v0__oai21_2
X_0929_ _0497_ _0509_ _0510_ VDD VSS gf180mcu_fd_sc_mcu9t5v0__or2_2
X_0930_ active_row\[0\]\[0\] _0511_ VDD VSS gf180mcu_fd_sc_mcu9t5v0__clkinv_2
X_0931_ active_row\[0\]\[6\] _0512_ VDD VSS gf180mcu_fd_sc_mcu9t5v0__clkinv_2
X_0932_ _0511_ net6 _0512_ net13 _0513_ VDD VSS gf180mcu_fd_sc_mcu9t5v0__aoi22_2
X_0933_ active_row\[0\]\[2\] _0514_ VDD VSS gf180mcu_fd_sc_mcu9t5v0__clkinv_2
X_0934_ active_row\[0\]\[9\] _0515_ VDD VSS gf180mcu_fd_sc_mcu9t5v0__clkinv_2
X_0935_ active_row\[0\]\[12\] _0516_ VDD VSS gf180mcu_fd_sc_mcu9t5v0__clkinv_2
X_0936_ _0514_ net8 _0515_ net16 _0516_ net19 _0517_ VDD VSS
+ gf180mcu_fd_sc_mcu9t5v0__aoi222_2
X_0937_ active_row\[0\]\[3\] _0518_ VDD VSS gf180mcu_fd_sc_mcu9t5v0__clkinv_2
X_0938_ active_row\[0\]\[5\] _0519_ VDD VSS gf180mcu_fd_sc_mcu9t5v0__clkinv_2
X_0939_ _0518_ net9 _0519_ net11 _0520_ VDD VSS gf180mcu_fd_sc_mcu9t5v0__aoi22_2
X_0940_ active_row\[0\]\[1\] _0521_ VDD VSS gf180mcu_fd_sc_mcu9t5v0__clkinv_2
X_0941_ active_row\[0\]\[8\] _0522_ VDD VSS gf180mcu_fd_sc_mcu9t5v0__clkinv_2
X_0942_ _0521_ net7 _0522_ net15 _0523_ VDD VSS gf180mcu_fd_sc_mcu9t5v0__aoi22_2
X_0943_ _0517_ _0520_ _0523_ _0524_ VDD VSS gf180mcu_fd_sc_mcu9t5v0__and3_2
X_0944_ _0500_ _0499_ _0525_ VDD VSS gf180mcu_fd_sc_mcu9t5v0__or2_4
X_0945_ _0513_ _0524_ _0525_ _0526_ VDD VSS gf180mcu_fd_sc_mcu9t5v0__aoi21_2
X_0946_ _0493_ _0499_ _0527_ VDD VSS gf180mcu_fd_sc_mcu9t5v0__nor2_4
X_0947_ active_row\[1\]\[2\] active_row\[3\]\[2\] _0498_ _0528_
+ VDD VSS gf180mcu_fd_sc_mcu9t5v0__mux2_2
X_0948_ _0491_ _0528_ _0529_ VDD VSS gf180mcu_fd_sc_mcu9t5v0__and2_2
X_0949_ _0504_ _0530_ VDD VSS gf180mcu_fd_sc_mcu9t5v0__buf_4
X_0950_ _0502_ _0530_ active_row\[5\]\[2\] _0531_ VDD VSS
+ gf180mcu_fd_sc_mcu9t5v0__and3_2
X_0951_ _0529_ _0531_ _0500_ _0532_ VDD VSS gf180mcu_fd_sc_mcu9t5v0__oai21_2
X_0952_ _0505_ active_row\[2\]\[2\] _0533_ VDD VSS gf180mcu_fd_sc_mcu9t5v0__or2_2
X_0953_ net5 _0492_ _0534_ VDD VSS gf180mcu_fd_sc_mcu9t5v0__nor2_4
X_0954_ net5 _0494_ _0535_ VDD VSS gf180mcu_fd_sc_mcu9t5v0__and2_4
X_0955_ net3 _0536_ VDD VSS gf180mcu_fd_sc_mcu9t5v0__clkbuf_8
X_0956_ active_row\[6\]\[2\] active_row\[7\]\[2\] _0536_ _0537_
+ VDD VSS gf180mcu_fd_sc_mcu9t5v0__mux2_2
X_0957_ _0492_ _0498_ _0538_ VDD VSS gf180mcu_fd_sc_mcu9t5v0__nor2_4
X_0958_ _0533_ _0534_ _0535_ _0537_ _0538_ active_row\[4\]\[2\]
+ _0539_ VDD VSS gf180mcu_fd_sc_mcu9t5v0__aoi222_4
X_0959_ _0514_ _0527_ _0532_ _0539_ net8 _0540_ VDD VSS gf180mcu_fd_sc_mcu9t5v0__aoi221_2
X_0960_ _0512_ _0527_ net13 _0541_ VDD VSS gf180mcu_fd_sc_mcu9t5v0__aoi21_2
X_0961_ active_row\[4\]\[6\] active_row\[6\]\[6\] _0498_ _0542_
+ VDD VSS gf180mcu_fd_sc_mcu9t5v0__mux2_2
X_0962_ _0491_ _0542_ _0543_ VDD VSS gf180mcu_fd_sc_mcu9t5v0__nor2_2
X_0963_ net3 _0544_ VDD VSS gf180mcu_fd_sc_mcu9t5v0__clkinv_4
X_0964_ _0544_ _0545_ VDD VSS gf180mcu_fd_sc_mcu9t5v0__buf_4
X_0965_ _0502_ _0505_ active_row\[2\]\[6\] _0545_ _0546_ VDD
+ VSS gf180mcu_fd_sc_mcu9t5v0__oai31_2
X_0966_ active_row\[1\]\[6\] active_row\[3\]\[6\] active_row\[5\]\[6\]
+ active_row\[7\]\[6\] _0498_ net5 _0547_ VDD VSS gf180mcu_fd_sc_mcu9t5v0__mux4_2
X_0967_ _0500_ _0547_ _0548_ VDD VSS gf180mcu_fd_sc_mcu9t5v0__nand2_2
X_0968_ _0543_ _0546_ _0548_ _0549_ VDD VSS gf180mcu_fd_sc_mcu9t5v0__oai21_4
X_0969_ net13 _0541_ _0549_ _0550_ VDD VSS gf180mcu_fd_sc_mcu9t5v0__mux2_2
X_0970_ _0510_ _0526_ _0540_ _0550_ _0551_ VDD VSS gf180mcu_fd_sc_mcu9t5v0__or4_2
X_0971_ _0521_ _0527_ net7 _0552_ VDD VSS gf180mcu_fd_sc_mcu9t5v0__aoi21_2
X_0972_ active_row\[2\]\[1\] active_row\[3\]\[1\] active_row\[6\]\[1\]
+ active_row\[7\]\[1\] _0493_ _0503_ _0553_ VDD VSS gf180mcu_fd_sc_mcu9t5v0__mux4_2
X_0973_ _0495_ _0553_ _0554_ VDD VSS gf180mcu_fd_sc_mcu9t5v0__nand2_2
X_0974_ _0490_ _0536_ _0555_ VDD VSS gf180mcu_fd_sc_mcu9t5v0__nand2_4
X_0975_ active_row\[4\]\[1\] active_row\[5\]\[1\] _0536_ _0556_
+ VDD VSS gf180mcu_fd_sc_mcu9t5v0__mux2_2
X_0976_ active_row\[1\]\[1\] _0555_ _0556_ _0491_ _0506_ _0557_
+ VDD VSS gf180mcu_fd_sc_mcu9t5v0__oai221_2
X_0977_ _0554_ _0557_ _0558_ VDD VSS gf180mcu_fd_sc_mcu9t5v0__nand2_2
X_0978_ net7 _0552_ _0558_ _0559_ VDD VSS gf180mcu_fd_sc_mcu9t5v0__mux2_2
X_0979_ active_row\[1\]\[0\] active_row\[3\]\[0\] _0494_ _0560_
+ VDD VSS gf180mcu_fd_sc_mcu9t5v0__mux2_2
X_0980_ _0491_ _0560_ _0561_ VDD VSS gf180mcu_fd_sc_mcu9t5v0__and2_2
X_0981_ _0503_ _0506_ active_row\[5\]\[0\] _0562_ VDD VSS
+ gf180mcu_fd_sc_mcu9t5v0__and3_2
X_0982_ _0561_ _0562_ _0500_ _0563_ VDD VSS gf180mcu_fd_sc_mcu9t5v0__oai21_2
X_0983_ _0506_ active_row\[2\]\[0\] _0564_ VDD VSS gf180mcu_fd_sc_mcu9t5v0__or2_2
X_0984_ active_row\[6\]\[0\] active_row\[7\]\[0\] _0500_ _0565_
+ VDD VSS gf180mcu_fd_sc_mcu9t5v0__mux2_2
X_0985_ _0503_ active_row\[4\]\[0\] _0538_ _0566_ VDD VSS
+ gf180mcu_fd_sc_mcu9t5v0__and3_2
X_0986_ _0534_ _0564_ _0565_ _0535_ _0566_ _0567_ VDD VSS
+ gf180mcu_fd_sc_mcu9t5v0__aoi221_4
X_0987_ net6 _0563_ _0567_ _0568_ VDD VSS gf180mcu_fd_sc_mcu9t5v0__nand3_2
X_0988_ _0491_ _0493_ _0494_ active_row\[3\]\[5\] _0569_ VDD
+ VSS gf180mcu_fd_sc_mcu9t5v0__and4_2
X_0989_ _0502_ _0493_ _0505_ active_row\[5\]\[5\] _0570_ VDD
+ VSS gf180mcu_fd_sc_mcu9t5v0__and4_2
X_0990_ _0569_ _0570_ _0571_ VDD VSS gf180mcu_fd_sc_mcu9t5v0__or2_2
X_0991_ _0491_ _0493_ _0530_ active_row\[1\]\[5\] _0572_ VDD
+ VSS gf180mcu_fd_sc_mcu9t5v0__nand4_2
X_0992_ _0502_ _0545_ _0505_ active_row\[4\]\[5\] _0573_ VDD
+ VSS gf180mcu_fd_sc_mcu9t5v0__nand4_2
X_0993_ _0572_ _0573_ _0574_ VDD VSS gf180mcu_fd_sc_mcu9t5v0__nand2_2
X_0994_ active_row\[6\]\[5\] active_row\[7\]\[5\] _0492_ _0575_
+ VDD VSS gf180mcu_fd_sc_mcu9t5v0__mux2_2
X_0995_ _0535_ _0575_ _0576_ VDD VSS gf180mcu_fd_sc_mcu9t5v0__and2_2
X_0996_ active_row\[2\]\[5\] _0577_ VDD VSS gf180mcu_fd_sc_mcu9t5v0__clkinv_2
X_0997_ _0495_ _0577_ _0502_ _0493_ _0578_ VDD VSS gf180mcu_fd_sc_mcu9t5v0__aoi211_2
X_0998_ _0576_ _0578_ _0579_ VDD VSS gf180mcu_fd_sc_mcu9t5v0__or2_2
X_0999_ _0519_ _0527_ net11 _0580_ VDD VSS gf180mcu_fd_sc_mcu9t5v0__aoi21_2
X_1000_ _0571_ _0574_ _0579_ _0580_ _0581_ VDD VSS gf180mcu_fd_sc_mcu9t5v0__oai31_2
X_1001_ _0490_ _0493_ _0505_ active_row\[1\]\[3\] _0582_ VDD
+ VSS gf180mcu_fd_sc_mcu9t5v0__and4_2
X_1002_ _0502_ _0545_ _0505_ active_row\[4\]\[3\] _0583_ VDD
+ VSS gf180mcu_fd_sc_mcu9t5v0__and4_2
X_1003_ _0582_ _0583_ _0584_ VDD VSS gf180mcu_fd_sc_mcu9t5v0__or2_2
X_1004_ _0495_ active_row\[3\]\[3\] _0585_ VDD VSS gf180mcu_fd_sc_mcu9t5v0__nand2_2
X_1005_ _0506_ active_row\[5\]\[3\] _0586_ VDD VSS gf180mcu_fd_sc_mcu9t5v0__nand2_2
X_1006_ _0502_ _0536_ _0587_ VDD VSS gf180mcu_fd_sc_mcu9t5v0__nand2_4
X_1007_ _0555_ _0585_ _0586_ _0587_ _0588_ VDD VSS gf180mcu_fd_sc_mcu9t5v0__oai22_2
X_1008_ active_row\[6\]\[3\] active_row\[7\]\[3\] _0536_ _0589_
+ VDD VSS gf180mcu_fd_sc_mcu9t5v0__mux2_2
X_1009_ _0535_ _0589_ _0590_ VDD VSS gf180mcu_fd_sc_mcu9t5v0__nand2_2
X_1010_ _0506_ active_row\[2\]\[3\] _0534_ _0591_ VDD VSS
+ gf180mcu_fd_sc_mcu9t5v0__oai21_2
X_1011_ _0590_ _0591_ _0592_ VDD VSS gf180mcu_fd_sc_mcu9t5v0__nand2_2
X_1012_ _0518_ _0527_ net9 _0593_ VDD VSS gf180mcu_fd_sc_mcu9t5v0__aoi21_2
X_1013_ _0584_ _0588_ _0592_ _0593_ _0594_ VDD VSS gf180mcu_fd_sc_mcu9t5v0__oai31_2
X_1014_ net9 _0595_ VDD VSS gf180mcu_fd_sc_mcu9t5v0__clkinv_2
X_1015_ _0595_ _0584_ _0588_ _0592_ _0596_ VDD VSS gf180mcu_fd_sc_mcu9t5v0__or4_2
X_1016_ _0568_ _0581_ _0594_ _0596_ _0597_ VDD VSS gf180mcu_fd_sc_mcu9t5v0__nand4_2
X_1017_ net8 _0532_ _0539_ _0598_ VDD VSS gf180mcu_fd_sc_mcu9t5v0__and3_2
X_1018_ _0569_ _0570_ _0599_ VDD VSS gf180mcu_fd_sc_mcu9t5v0__nor2_2
X_1019_ _0572_ _0573_ _0600_ VDD VSS gf180mcu_fd_sc_mcu9t5v0__and2_2
X_1020_ _0576_ _0578_ _0601_ VDD VSS gf180mcu_fd_sc_mcu9t5v0__nor2_2
X_1021_ net11 _0599_ _0600_ _0601_ _0602_ VDD VSS gf180mcu_fd_sc_mcu9t5v0__and4_2
X_1022_ active_row\[6\]\[8\] active_row\[7\]\[8\] _0492_ _0603_
+ VDD VSS gf180mcu_fd_sc_mcu9t5v0__mux2_2
X_1023_ _0536_ active_row\[3\]\[8\] _0604_ VDD VSS gf180mcu_fd_sc_mcu9t5v0__and2_2
X_1024_ _0603_ _0604_ _0490_ _0605_ VDD VSS gf180mcu_fd_sc_mcu9t5v0__mux2_2
X_1025_ _0495_ _0605_ _0606_ VDD VSS gf180mcu_fd_sc_mcu9t5v0__nand2_2
X_1026_ _0530_ active_row\[2\]\[8\] _0534_ _0607_ VDD VSS
+ gf180mcu_fd_sc_mcu9t5v0__oai21_2
X_1027_ active_row\[4\]\[8\] _0538_ _0608_ VDD VSS gf180mcu_fd_sc_mcu9t5v0__nand2_2
X_1028_ active_row\[1\]\[8\] active_row\[5\]\[8\] net5 _0609_
+ VDD VSS gf180mcu_fd_sc_mcu9t5v0__mux2_2
X_1029_ _0493_ _0530_ _0609_ _0610_ VDD VSS gf180mcu_fd_sc_mcu9t5v0__nand3_2
X_1030_ _0607_ _0608_ _0610_ _0611_ VDD VSS gf180mcu_fd_sc_mcu9t5v0__and3_2
X_1031_ _0522_ _0527_ _0606_ _0611_ net15 _0612_ VDD VSS gf180mcu_fd_sc_mcu9t5v0__aoi221_2
X_1032_ net15 _0606_ _0611_ _0613_ VDD VSS gf180mcu_fd_sc_mcu9t5v0__and3_2
X_1033_ _0598_ _0602_ _0612_ _0613_ _0614_ VDD VSS gf180mcu_fd_sc_mcu9t5v0__or4_2
X_1034_ _0551_ _0559_ _0597_ _0614_ _0615_ VDD VSS gf180mcu_fd_sc_mcu9t5v0__or4_2
X_1035_ _0495_ active_row\[3\]\[9\] _0616_ VDD VSS gf180mcu_fd_sc_mcu9t5v0__nand2_2
X_1036_ _0506_ active_row\[5\]\[9\] _0617_ VDD VSS gf180mcu_fd_sc_mcu9t5v0__nand2_2
X_1037_ _0555_ _0616_ _0617_ _0587_ _0618_ VDD VSS gf180mcu_fd_sc_mcu9t5v0__oai22_2
X_1038_ _0491_ _0500_ _0506_ active_row\[1\]\[9\] _0619_ VDD
+ VSS gf180mcu_fd_sc_mcu9t5v0__and4_2
X_1039_ _0503_ _0545_ _0506_ active_row\[4\]\[9\] _0620_ VDD
+ VSS gf180mcu_fd_sc_mcu9t5v0__and4_2
X_1040_ _0619_ _0620_ _0621_ VDD VSS gf180mcu_fd_sc_mcu9t5v0__or2_2
X_1041_ active_row\[6\]\[9\] active_row\[7\]\[9\] _0500_ _0622_
+ VDD VSS gf180mcu_fd_sc_mcu9t5v0__mux2_2
X_1042_ _0535_ _0622_ _0623_ VDD VSS gf180mcu_fd_sc_mcu9t5v0__nand2_2
X_1043_ _0506_ active_row\[2\]\[9\] _0491_ _0545_ _0624_ VDD
+ VSS gf180mcu_fd_sc_mcu9t5v0__oai211_2
X_1044_ _0623_ _0624_ _0625_ VDD VSS gf180mcu_fd_sc_mcu9t5v0__nand2_2
X_1045_ _0515_ _0527_ net16 _0626_ VDD VSS gf180mcu_fd_sc_mcu9t5v0__aoi21_2
X_1046_ _0618_ _0621_ _0625_ _0626_ _0627_ VDD VSS gf180mcu_fd_sc_mcu9t5v0__oai31_2
X_1047_ _0627_ _0628_ VDD VSS gf180mcu_fd_sc_mcu9t5v0__clkinv_2
X_1048_ net16 _0629_ VDD VSS gf180mcu_fd_sc_mcu9t5v0__clkinv_2
X_1049_ _0629_ _0618_ _0621_ _0625_ _0630_ VDD VSS gf180mcu_fd_sc_mcu9t5v0__nor4_2
X_1050_ active_row\[5\]\[4\] active_row\[7\]\[4\] _0498_ _0631_
+ VDD VSS gf180mcu_fd_sc_mcu9t5v0__mux2_2
X_1051_ active_row\[4\]\[4\] active_row\[6\]\[4\] _0498_ _0632_
+ VDD VSS gf180mcu_fd_sc_mcu9t5v0__mux2_2
X_1052_ active_row\[1\]\[4\] active_row\[3\]\[4\] _0498_ _0633_
+ VDD VSS gf180mcu_fd_sc_mcu9t5v0__mux2_2
X_1053_ _0504_ active_row\[2\]\[4\] _0634_ VDD VSS gf180mcu_fd_sc_mcu9t5v0__or2_2
X_1054_ _0631_ _0632_ _0633_ _0634_ _0544_ _0491_ _0635_ VDD
+ VSS gf180mcu_fd_sc_mcu9t5v0__mux4_4
X_1055_ active_row\[0\]\[4\] _0525_ _0635_ _0636_ VDD VSS
+ gf180mcu_fd_sc_mcu9t5v0__oai21_2
X_1056_ net10 _0636_ _0637_ VDD VSS gf180mcu_fd_sc_mcu9t5v0__xnor2_2
X_1057_ _0628_ _0630_ _0637_ _0638_ VDD VSS gf180mcu_fd_sc_mcu9t5v0__or3_2
X_1058_ _0495_ active_row\[3\]\[7\] _0639_ VDD VSS gf180mcu_fd_sc_mcu9t5v0__nand2_2
X_1059_ _0530_ active_row\[5\]\[7\] _0640_ VDD VSS gf180mcu_fd_sc_mcu9t5v0__nand2_2
X_1060_ _0555_ _0639_ _0640_ _0587_ _0641_ VDD VSS gf180mcu_fd_sc_mcu9t5v0__oai22_2
X_1061_ _0490_ _0536_ _0505_ active_row\[1\]\[7\] _0642_ VDD
+ VSS gf180mcu_fd_sc_mcu9t5v0__and4_2
X_1062_ _0502_ _0544_ _0505_ active_row\[4\]\[7\] _0643_ VDD
+ VSS gf180mcu_fd_sc_mcu9t5v0__and4_2
X_1063_ _0642_ _0643_ _0644_ VDD VSS gf180mcu_fd_sc_mcu9t5v0__or2_2
X_1064_ active_row\[6\]\[7\] active_row\[7\]\[7\] _0492_ _0645_
+ VDD VSS gf180mcu_fd_sc_mcu9t5v0__mux2_2
X_1065_ _0535_ _0645_ _0646_ VDD VSS gf180mcu_fd_sc_mcu9t5v0__nand2_2
X_1066_ _0530_ active_row\[2\]\[7\] _0490_ _0545_ _0647_ VDD
+ VSS gf180mcu_fd_sc_mcu9t5v0__oai211_2
X_1067_ _0646_ _0647_ _0648_ VDD VSS gf180mcu_fd_sc_mcu9t5v0__nand2_2
X_1068_ _0641_ _0644_ _0648_ _0525_ active_row\[0\]\[7\] _0649_
+ VDD VSS gf180mcu_fd_sc_mcu9t5v0__oai32_2
X_1069_ net14 _0649_ _0650_ VDD VSS gf180mcu_fd_sc_mcu9t5v0__xnor2_2
X_1070_ _0494_ active_row\[3\]\[13\] _0651_ VDD VSS gf180mcu_fd_sc_mcu9t5v0__nand2_2
X_1071_ _0505_ active_row\[5\]\[13\] _0652_ VDD VSS gf180mcu_fd_sc_mcu9t5v0__nand2_2
X_1072_ _0555_ _0651_ _0652_ _0587_ _0653_ VDD VSS gf180mcu_fd_sc_mcu9t5v0__oai22_2
X_1073_ _0490_ _0536_ _0504_ active_row\[1\]\[13\] _0654_
+ VDD VSS gf180mcu_fd_sc_mcu9t5v0__and4_2
X_1074_ net5 _0544_ _0504_ active_row\[4\]\[13\] _0655_ VDD
+ VSS gf180mcu_fd_sc_mcu9t5v0__and4_2
X_1075_ _0654_ _0655_ _0656_ VDD VSS gf180mcu_fd_sc_mcu9t5v0__or2_2
X_1076_ active_row\[6\]\[13\] active_row\[7\]\[13\] _0492_
+ _0657_ VDD VSS gf180mcu_fd_sc_mcu9t5v0__mux2_2
X_1077_ _0535_ _0657_ _0658_ VDD VSS gf180mcu_fd_sc_mcu9t5v0__nand2_2
X_1078_ _0530_ active_row\[2\]\[13\] _0490_ _0545_ _0659_
+ VDD VSS gf180mcu_fd_sc_mcu9t5v0__oai211_2
X_1079_ _0658_ _0659_ _0660_ VDD VSS gf180mcu_fd_sc_mcu9t5v0__nand2_2
X_1080_ _0653_ _0656_ _0660_ _0525_ active_row\[0\]\[13\]
+ _0661_ VDD VSS gf180mcu_fd_sc_mcu9t5v0__oai32_2
X_1081_ net20 _0661_ _0662_ VDD VSS gf180mcu_fd_sc_mcu9t5v0__xnor2_2
X_1082_ _0650_ _0662_ _0663_ VDD VSS gf180mcu_fd_sc_mcu9t5v0__or2_2
X_1083_ _0563_ _0567_ _0664_ VDD VSS gf180mcu_fd_sc_mcu9t5v0__and2_2
X_1084_ net6 _0665_ VDD VSS gf180mcu_fd_sc_mcu9t5v0__clkinv_2
X_1085_ active_row\[0\]\[0\] _0525_ _0665_ _0666_ VDD VSS
+ gf180mcu_fd_sc_mcu9t5v0__oai21_2
X_1086_ active_row\[5\]\[12\] active_row\[7\]\[12\] _0495_
+ _0667_ VDD VSS gf180mcu_fd_sc_mcu9t5v0__mux2_2
X_1087_ _0587_ _0667_ _0668_ VDD VSS gf180mcu_fd_sc_mcu9t5v0__nor2_2
X_1088_ _0503_ _0545_ _0669_ VDD VSS gf180mcu_fd_sc_mcu9t5v0__nand2_2
X_1089_ active_row\[4\]\[12\] active_row\[6\]\[12\] _0494_
+ _0670_ VDD VSS gf180mcu_fd_sc_mcu9t5v0__mux2_2
X_1090_ active_row\[1\]\[12\] active_row\[3\]\[12\] _0494_
+ _0671_ VDD VSS gf180mcu_fd_sc_mcu9t5v0__mux2_2
X_1091_ _0669_ _0670_ _0671_ _0555_ _0672_ VDD VSS gf180mcu_fd_sc_mcu9t5v0__oai22_2
X_1092_ active_row\[2\]\[12\] _0673_ VDD VSS gf180mcu_fd_sc_mcu9t5v0__clkinv_2
X_1093_ _0495_ _0673_ _0534_ _0674_ VDD VSS gf180mcu_fd_sc_mcu9t5v0__and3_2
X_1094_ _0668_ _0672_ _0674_ net19 _0675_ VDD VSS gf180mcu_fd_sc_mcu9t5v0__oai31_2
X_1095_ net19 _0676_ VDD VSS gf180mcu_fd_sc_mcu9t5v0__clkinv_2
X_1096_ active_row\[0\]\[12\] _0525_ _0676_ _0677_ VDD VSS
+ gf180mcu_fd_sc_mcu9t5v0__oai21_2
X_1097_ _0668_ _0672_ _0674_ _0677_ _0678_ VDD VSS gf180mcu_fd_sc_mcu9t5v0__or4_2
X_1098_ _0664_ _0666_ _0675_ _0678_ _0679_ VDD VSS gf180mcu_fd_sc_mcu9t5v0__oai211_2
X_1099_ active_row\[0\]\[11\] _0680_ VDD VSS gf180mcu_fd_sc_mcu9t5v0__clkinv_2
X_1100_ active_row\[1\]\[11\] _0681_ VDD VSS gf180mcu_fd_sc_mcu9t5v0__clkinv_2
X_1101_ _0500_ _0681_ _0499_ _0682_ VDD VSS gf180mcu_fd_sc_mcu9t5v0__aoi21_2
X_1102_ _0502_ _0536_ _0494_ active_row\[7\]\[11\] _0683_
+ VDD VSS gf180mcu_fd_sc_mcu9t5v0__and4_2
X_1103_ active_row\[2\]\[11\] active_row\[3\]\[11\] _0492_
+ _0684_ VDD VSS gf180mcu_fd_sc_mcu9t5v0__mux2_2
X_1104_ _0490_ _0494_ _0684_ _0685_ VDD VSS gf180mcu_fd_sc_mcu9t5v0__and3_2
X_1105_ _0682_ _0683_ _0685_ _0686_ VDD VSS gf180mcu_fd_sc_mcu9t5v0__nor3_2
X_1106_ active_row\[4\]\[11\] active_row\[6\]\[11\] _0498_
+ _0687_ VDD VSS gf180mcu_fd_sc_mcu9t5v0__mux2_2
X_1107_ _0545_ _0687_ _0688_ VDD VSS gf180mcu_fd_sc_mcu9t5v0__and2_2
X_1108_ _0493_ _0530_ active_row\[5\]\[11\] _0689_ VDD VSS
+ gf180mcu_fd_sc_mcu9t5v0__and3_2
X_1109_ _0688_ _0689_ _0503_ _0690_ VDD VSS gf180mcu_fd_sc_mcu9t5v0__oai21_2
X_1110_ _0680_ _0527_ _0686_ _0690_ _0691_ VDD VSS gf180mcu_fd_sc_mcu9t5v0__aoi22_2
X_1111_ net18 _0691_ _0692_ VDD VSS gf180mcu_fd_sc_mcu9t5v0__xor2_2
X_1112_ _0490_ _0536_ _0494_ active_row\[3\]\[10\] _0693_
+ VDD VSS gf180mcu_fd_sc_mcu9t5v0__and4_2
X_1113_ active_row\[4\]\[10\] _0538_ _0694_ VDD VSS gf180mcu_fd_sc_mcu9t5v0__and2_2
X_1114_ _0693_ _0694_ _0695_ VDD VSS gf180mcu_fd_sc_mcu9t5v0__or2_2
X_1115_ _0530_ active_row\[1\]\[10\] _0696_ VDD VSS gf180mcu_fd_sc_mcu9t5v0__nand2_2
X_1116_ _0530_ active_row\[2\]\[10\] _0545_ _0697_ VDD VSS
+ gf180mcu_fd_sc_mcu9t5v0__oai21_2
X_1117_ _0696_ _0697_ _0503_ _0698_ VDD VSS gf180mcu_fd_sc_mcu9t5v0__aoi21_2
X_1118_ active_row\[5\]\[10\] active_row\[7\]\[10\] net4 _0699_
+ VDD VSS gf180mcu_fd_sc_mcu9t5v0__mux2_2
X_1119_ _0498_ active_row\[6\]\[10\] _0700_ VDD VSS gf180mcu_fd_sc_mcu9t5v0__and2_2
X_1120_ _0699_ _0700_ _0544_ _0701_ VDD VSS gf180mcu_fd_sc_mcu9t5v0__mux2_2
X_1121_ _0503_ _0701_ _0702_ VDD VSS gf180mcu_fd_sc_mcu9t5v0__and2_2
X_1122_ _0695_ _0698_ _0702_ _0525_ active_row\[0\]\[10\]
+ _0703_ VDD VSS gf180mcu_fd_sc_mcu9t5v0__oai32_2
X_1123_ net17 _0703_ _0704_ VDD VSS gf180mcu_fd_sc_mcu9t5v0__xnor2_2
X_1124_ _0679_ _0692_ _0704_ _0705_ VDD VSS gf180mcu_fd_sc_mcu9t5v0__or3_2
X_1125_ _0615_ _0638_ _0663_ _0705_ _0706_ VDD VSS gf180mcu_fd_sc_mcu9t5v0__or4_2
X_1126_ net33 _0486_ _0707_ VDD VSS gf180mcu_fd_sc_mcu9t5v0__and2_2
X_1127_ net34 _0707_ _0708_ VDD VSS gf180mcu_fd_sc_mcu9t5v0__nand2_2
X_1128_ _0706_ _0708_ _0709_ VDD VSS gf180mcu_fd_sc_mcu9t5v0__nor2_2
X_1129_ refresh_counter\[4\] refresh_counter\[3\] refresh_counter\[2\]
+ _0710_ VDD VSS gf180mcu_fd_sc_mcu9t5v0__nand3_2
X_1130_ _0861_ _0859_ _0711_ VDD VSS gf180mcu_fd_sc_mcu9t5v0__nor2_2
X_1131_ refresh_counter\[6\] refresh_counter\[5\] _0712_ VDD
+ VSS gf180mcu_fd_sc_mcu9t5v0__nor2_2
X_1132_ _0710_ _0711_ _0712_ _0713_ VDD VSS gf180mcu_fd_sc_mcu9t5v0__oai21_2
X_1133_ refresh_counter\[10\] refresh_counter\[9\] refresh_counter\[8\]
+ refresh_counter\[7\] _0714_ VDD VSS gf180mcu_fd_sc_mcu9t5v0__and4_2
X_1134_ refresh_counter\[15\] refresh_counter\[14\] refresh_counter\[13\]
+ refresh_counter\[12\] _0715_ VDD VSS gf180mcu_fd_sc_mcu9t5v0__or4_2
X_1135_ _0713_ _0714_ refresh_counter\[11\] _0715_ _0716_
+ VDD VSS gf180mcu_fd_sc_mcu9t5v0__aoi211_4
X_1136_ _0716_ _0855_ VDD VSS gf180mcu_fd_sc_mcu9t5v0__buf_4
X_1137_ _0880_ _0855_ _0717_ VDD VSS gf180mcu_fd_sc_mcu9t5v0__and2_4
X_1138_ _0709_ _0717_ _0718_ VDD VSS gf180mcu_fd_sc_mcu9t5v0__nand2_2
X_1139_ _0882_ _0719_ VDD VSS gf180mcu_fd_sc_mcu9t5v0__clkinv_3
X_1140_ _0719_ _0720_ VDD VSS gf180mcu_fd_sc_mcu9t5v0__buf_4
X_1141_ _0878_ _0720_ net34 _0721_ VDD VSS gf180mcu_fd_sc_mcu9t5v0__and3_2
X_1142_ _0882_ _0722_ VDD VSS gf180mcu_fd_sc_mcu9t5v0__clkbuf_8
X_1143_ net134 _0723_ VDD VSS gf180mcu_fd_sc_mcu9t5v0__clkinv_2
X_1144_ burst_counter\[2\] _0724_ VDD VSS gf180mcu_fd_sc_mcu9t5v0__inv_2
X_1145_ burst_counter\[3\] _0725_ VDD VSS gf180mcu_fd_sc_mcu9t5v0__clkinv_2
X_1146_ _0724_ _0725_ _0851_ _0726_ VDD VSS gf180mcu_fd_sc_mcu9t5v0__nand3_4
X_1147_ net122 _0727_ VDD VSS gf180mcu_fd_sc_mcu9t5v0__clkinv_2
X_1148_ net132 _0727_ _0728_ VDD VSS gf180mcu_fd_sc_mcu9t5v0__and2_2
X_1149_ _0722_ _0723_ _0726_ _0728_ _0729_ VDD VSS gf180mcu_fd_sc_mcu9t5v0__and4_2
X_1150_ _0486_ _0730_ VDD VSS gf180mcu_fd_sc_mcu9t5v0__clkbuf_8
X_1151_ _0721_ _0729_ _0730_ _0731_ VDD VSS gf180mcu_fd_sc_mcu9t5v0__oai21_2
X_1152_ _0718_ _0731_ _0478_ _0886_ VDD VSS gf180mcu_fd_sc_mcu9t5v0__aoi21_2
X_1153_ _0880_ _0732_ VDD VSS gf180mcu_fd_sc_mcu9t5v0__clkinv_8
X_1154_ _0709_ _0855_ _0733_ VDD VSS gf180mcu_fd_sc_mcu9t5v0__and2_2
X_1155_ net34 _0486_ _0734_ VDD VSS gf180mcu_fd_sc_mcu9t5v0__nand2_2
X_1156_ _0878_ _0734_ _0735_ VDD VSS gf180mcu_fd_sc_mcu9t5v0__nand2_2
X_1157_ _0876_ _0736_ VDD VSS gf180mcu_fd_sc_mcu9t5v0__inv_4
X_1158_ _0878_ _0737_ VDD VSS gf180mcu_fd_sc_mcu9t5v0__inv_4
X_1159_ _0736_ _0737_ _0738_ VDD VSS gf180mcu_fd_sc_mcu9t5v0__and2_2
X_1160_ _0732_ _0720_ _0738_ _0739_ VDD VSS gf180mcu_fd_sc_mcu9t5v0__and3_4
X_1161_ init_state\[5\] init_state\[1\] init_state\[6\] _0740_
+ VDD VSS gf180mcu_fd_sc_mcu9t5v0__or3_2
X_1162_ _0485_ _0740_ _0741_ VDD VSS gf180mcu_fd_sc_mcu9t5v0__nand2_2
X_1163_ _0478_ _0741_ _0742_ VDD VSS gf180mcu_fd_sc_mcu9t5v0__and2_2
X_1164_ _0724_ _0725_ _0851_ _0743_ VDD VSS gf180mcu_fd_sc_mcu9t5v0__and3_2
X_1165_ _0486_ _0743_ _0744_ VDD VSS gf180mcu_fd_sc_mcu9t5v0__nand2_2
X_1166_ _0882_ _0744_ _0745_ VDD VSS gf180mcu_fd_sc_mcu9t5v0__and2_2
X_1167_ _0739_ _0742_ _0745_ _0746_ VDD VSS gf180mcu_fd_sc_mcu9t5v0__nor3_2
X_1168_ _0732_ _0733_ _0735_ _0746_ _0799_ VDD VSS gf180mcu_fd_sc_mcu9t5v0__oai211_2
X_1169_ _0485_ _0747_ VDD VSS gf180mcu_fd_sc_mcu9t5v0__clkinv_4
X_1170_ _0747_ _0748_ VDD VSS gf180mcu_fd_sc_mcu9t5v0__buf_4
X_1171_ _0732_ _0748_ _0878_ _0749_ VDD VSS gf180mcu_fd_sc_mcu9t5v0__mux2_2
X_1172_ _0722_ _0750_ VDD VSS gf180mcu_fd_sc_mcu9t5v0__buf_4
X_1173_ _0736_ _0749_ _0742_ _0750_ _0751_ VDD VSS gf180mcu_fd_sc_mcu9t5v0__aoi211_2
X_1174_ net33 _0486_ _0752_ VDD VSS gf180mcu_fd_sc_mcu9t5v0__nand2_4
X_1175_ _0650_ _0662_ _0692_ _0753_ VDD VSS gf180mcu_fd_sc_mcu9t5v0__or3_2
X_1176_ _0679_ _0704_ _0754_ VDD VSS gf180mcu_fd_sc_mcu9t5v0__or2_2
X_1177_ _0615_ _0638_ _0753_ _0754_ _0755_ VDD VSS gf180mcu_fd_sc_mcu9t5v0__or4_4
X_1178_ _0755_ _0756_ VDD VSS gf180mcu_fd_sc_mcu9t5v0__clkbuf_12
X_1179_ _0752_ _0756_ _0717_ _0757_ VDD VSS gf180mcu_fd_sc_mcu9t5v0__oai21_2
X_1180_ _0751_ _0757_ _0800_ VDD VSS gf180mcu_fd_sc_mcu9t5v0__nand2_2
X_1181_ _0707_ _0756_ _0758_ VDD VSS gf180mcu_fd_sc_mcu9t5v0__nand2_2
X_1182_ _0717_ _0758_ _0759_ VDD VSS gf180mcu_fd_sc_mcu9t5v0__nand2_2
X_1183_ _0737_ _0746_ _0759_ _0801_ VDD VSS gf180mcu_fd_sc_mcu9t5v0__nand3_2
X_1184_ init_state\[7\] _0485_ _0760_ VDD VSS gf180mcu_fd_sc_mcu9t5v0__and2_2
X_1185_ _0880_ _0760_ _0876_ _0761_ VDD VSS gf180mcu_fd_sc_mcu9t5v0__mux2_2
X_1186_ _0880_ _0762_ VDD VSS gf180mcu_fd_sc_mcu9t5v0__buf_4
X_1187_ _0762_ _0763_ VDD VSS gf180mcu_fd_sc_mcu9t5v0__clkbuf_8
X_1188_ _0763_ _0857_ _0764_ VDD VSS gf180mcu_fd_sc_mcu9t5v0__nand2_2
X_1189_ _0858_ _0761_ _0764_ _0802_ VDD VSS gf180mcu_fd_sc_mcu9t5v0__oai21_2
X_1190_ _0880_ _0855_ _0765_ VDD VSS gf180mcu_fd_sc_mcu9t5v0__nand2_2
X_1191_ _0765_ _0761_ _0766_ VDD VSS gf180mcu_fd_sc_mcu9t5v0__nand2_2
X_1192_ _0766_ _0767_ VDD VSS gf180mcu_fd_sc_mcu9t5v0__buf_3
X_1193_ _0860_ _0768_ VDD VSS gf180mcu_fd_sc_mcu9t5v0__clkinv_2
X_1194_ refresh_counter\[1\] _0768_ _0855_ _0769_ VDD VSS
+ gf180mcu_fd_sc_mcu9t5v0__mux2_2
X_1195_ _0767_ _0769_ _0809_ VDD VSS gf180mcu_fd_sc_mcu9t5v0__and2_2
X_1196_ _0861_ _0855_ _0770_ VDD VSS gf180mcu_fd_sc_mcu9t5v0__and2_2
X_1197_ refresh_counter\[2\] _0770_ _0771_ VDD VSS gf180mcu_fd_sc_mcu9t5v0__xor2_2
X_1198_ _0767_ _0771_ _0810_ VDD VSS gf180mcu_fd_sc_mcu9t5v0__and2_2
X_1199_ refresh_counter\[2\] refresh_counter\[1\] refresh_counter\[0\]
+ _0855_ _0772_ VDD VSS gf180mcu_fd_sc_mcu9t5v0__and4_2
X_1200_ refresh_counter\[3\] _0772_ _0773_ VDD VSS gf180mcu_fd_sc_mcu9t5v0__xor2_2
X_1201_ _0767_ _0773_ _0811_ VDD VSS gf180mcu_fd_sc_mcu9t5v0__and2_2
X_1202_ refresh_counter\[3\] refresh_counter\[2\] _0770_ _0774_
+ VDD VSS gf180mcu_fd_sc_mcu9t5v0__and3_2
X_1203_ refresh_counter\[4\] _0774_ _0775_ VDD VSS gf180mcu_fd_sc_mcu9t5v0__xor2_2
X_1204_ _0767_ _0775_ _0812_ VDD VSS gf180mcu_fd_sc_mcu9t5v0__and2_2
X_1205_ refresh_counter\[4\] refresh_counter\[3\] _0772_ _0776_
+ VDD VSS gf180mcu_fd_sc_mcu9t5v0__and3_2
X_1206_ refresh_counter\[5\] _0776_ _0777_ VDD VSS gf180mcu_fd_sc_mcu9t5v0__xor2_2
X_1207_ _0767_ _0777_ _0813_ VDD VSS gf180mcu_fd_sc_mcu9t5v0__and2_2
X_1208_ refresh_counter\[4\] refresh_counter\[3\] refresh_counter\[2\]
+ _0770_ _0778_ VDD VSS gf180mcu_fd_sc_mcu9t5v0__and4_2
X_1209_ refresh_counter\[5\] _0778_ _0779_ VDD VSS gf180mcu_fd_sc_mcu9t5v0__nand2_2
X_1210_ refresh_counter\[6\] _0779_ _0780_ VDD VSS gf180mcu_fd_sc_mcu9t5v0__xnor2_2
X_1211_ _0767_ _0780_ _0814_ VDD VSS gf180mcu_fd_sc_mcu9t5v0__and2_2