* CDL Netlist generated by OpenROAD

*.BUSDELIMITER [

.SUBCKT ddr_controller clk cmd_addr[0] cmd_addr[10] cmd_addr[11]
+ cmd_addr[12] cmd_addr[13] cmd_addr[14] cmd_addr[15] cmd_addr[16]
+ cmd_addr[17] cmd_addr[18] cmd_addr[19] cmd_addr[1] cmd_addr[20]
+ cmd_addr[21] cmd_addr[22] cmd_addr[23] cmd_addr[24] cmd_addr[25]
+ cmd_addr[26] cmd_addr[27] cmd_addr[2] cmd_addr[3] cmd_addr[4]
+ cmd_addr[5] cmd_addr[6] cmd_addr[7] cmd_addr[8] cmd_addr[9]
+ cmd_burst_len[0] cmd_burst_len[1] cmd_burst_len[2] cmd_burst_len[3]
+ cmd_ready cmd_valid cmd_write init_done phy_addr[0] phy_addr[10]
+ phy_addr[11] phy_addr[12] phy_addr[13] phy_addr[1] phy_addr[2]
+ phy_addr[3] phy_addr[4] phy_addr[5] phy_addr[6] phy_addr[7]
+ phy_addr[8] phy_addr[9] phy_bank[0] phy_bank[1] phy_bank[2]
+ phy_bank_group[0] phy_bank_group[1] phy_cas_n phy_cke phy_clk
+ phy_cs_n phy_dm[0] phy_dm[1] phy_dm[2] phy_dm[3] phy_dm[4]
+ phy_dm[5] phy_dm[6] phy_dm[7] phy_dq[0] phy_dq[10] phy_dq[11]
+ phy_dq[12] phy_dq[13] phy_dq[14] phy_dq[15] phy_dq[16] phy_dq[17]
+ phy_dq[18] phy_dq[19] phy_dq[1] phy_dq[20] phy_dq[21] phy_dq[22]
+ phy_dq[23] phy_dq[24] phy_dq[25] phy_dq[26] phy_dq[27] phy_dq[28]
+ phy_dq[29] phy_dq[2] phy_dq[30] phy_dq[31] phy_dq[32] phy_dq[33]
+ phy_dq[34] phy_dq[35] phy_dq[36] phy_dq[37] phy_dq[38] phy_dq[39]
+ phy_dq[3] phy_dq[40] phy_dq[41] phy_dq[42] phy_dq[43] phy_dq[44]
+ phy_dq[45] phy_dq[46] phy_dq[47] phy_dq[48] phy_dq[49] phy_dq[4]
+ phy_dq[50] phy_dq[51] phy_dq[52] phy_dq[53] phy_dq[54] phy_dq[55]
+ phy_dq[56] phy_dq[57] phy_dq[58] phy_dq[59] phy_dq[5] phy_dq[60]
+ phy_dq[61] phy_dq[62] phy_dq[63] phy_dq[6] phy_dq[7] phy_dq[8]
+ phy_dq[9] phy_dqs_n[0] phy_dqs_n[1] phy_dqs_n[2] phy_dqs_n[3]
+ phy_dqs_n[4] phy_dqs_n[5] phy_dqs_n[6] phy_dqs_n[7] phy_dqs_p[0]
+ phy_dqs_p[1] phy_dqs_p[2] phy_dqs_p[3] phy_dqs_p[4] phy_dqs_p[5]
+ phy_dqs_p[6] phy_dqs_p[7] phy_odt phy_ras_n phy_reset_n phy_we_n
+ rd_data[0] rd_data[10] rd_data[11] rd_data[12] rd_data[13]
+ rd_data[14] rd_data[15] rd_data[16] rd_data[17] rd_data[18]
+ rd_data[19] rd_data[1] rd_data[20] rd_data[21] rd_data[22]
+ rd_data[23] rd_data[24] rd_data[25] rd_data[26] rd_data[27]
+ rd_data[28] rd_data[29] rd_data[2] rd_data[30] rd_data[31]
+ rd_data[32] rd_data[33] rd_data[34] rd_data[35] rd_data[36]
+ rd_data[37] rd_data[38] rd_data[39] rd_data[3] rd_data[40]
+ rd_data[41] rd_data[42] rd_data[43] rd_data[44] rd_data[45]
+ rd_data[46] rd_data[47] rd_data[48] rd_data[49] rd_data[4]
+ rd_data[50] rd_data[51] rd_data[52] rd_data[53] rd_data[54]
+ rd_data[55] rd_data[56] rd_data[57] rd_data[58] rd_data[59]
+ rd_data[5] rd_data[60] rd_data[61] rd_data[62] rd_data[63]
+ rd_data[6] rd_data[7] rd_data[8] rd_data[9] rd_ready rd_valid
+ rst_n state[0] state[1] wr_data[0] wr_data[10] wr_data[11]
+ wr_data[12] wr_data[13] wr_data[14] wr_data[15] wr_data[16]
+ wr_data[17] wr_data[18] wr_data[19] wr_data[1] wr_data[20]
+ wr_data[21] wr_data[22] wr_data[23] wr_data[24] wr_data[25]
+ wr_data[26] wr_data[27] wr_data[28] wr_data[29] wr_data[2]
+ wr_data[30] wr_data[31] wr_data[32] wr_data[33] wr_data[34]
+ wr_data[35] wr_data[36] wr_data[37] wr_data[38] wr_data[39]
+ wr_data[3] wr_data[40] wr_data[41] wr_data[42] wr_data[43]
+ wr_data[44] wr_data[45] wr_data[46] wr_data[47] wr_data[48]
+ wr_data[49] wr_data[4] wr_data[50] wr_data[51] wr_data[52]
+ wr_data[53] wr_data[54] wr_data[55] wr_data[56] wr_data[57]
+ wr_data[58] wr_data[59] wr_data[5] wr_data[60] wr_data[61]
+ wr_data[62] wr_data[63] wr_data[6] wr_data[7] wr_data[8] wr_data[9]
+ wr_mask[0] wr_mask[1] wr_mask[2] wr_mask[3] wr_mask[4] wr_mask[5]
+ wr_mask[6] wr_mask[7] wr_ready wr_valid VSS VDD
X_0888_ _0546_ _0776_ _0802_ VDD VSS gf180mcu_fd_sc_mcu9t5v0__and2_2
Xinput89 wr_data[38] net88 VDD VSS gf180mcu_fd_sc_mcu9t5v0__dlyb_2
X_0890_ _0521_ _0804_ VDD VSS gf180mcu_fd_sc_mcu9t5v0__inv_2
X_0891_ net232 _0804_ _0805_ VDD VSS gf180mcu_fd_sc_mcu9t5v0__nand2_2
X_0892_ net232 net231 _0805_ _0806_ VDD VSS gf180mcu_fd_sc_mcu9t5v0__oai21_2
X_0893_ _0793_ _0806_ _0807_ VDD VSS gf180mcu_fd_sc_mcu9t5v0__nand2_2
Xinput88 wr_data[37] net87 VDD VSS gf180mcu_fd_sc_mcu9t5v0__dlyb_2
Xinput87 wr_data[36] net86 VDD VSS gf180mcu_fd_sc_mcu9t5v0__dlyb_2
X_0896_ net233 _0788_ net234 _0810_ VDD VSS gf180mcu_fd_sc_mcu9t5v0__aoi21_2
X_0897_ _0801_ _0802_ _0807_ _0810_ _0841_ VDD VSS gf180mcu_fd_sc_mcu9t5v0__oai211_2
X_0898_ net52 _0811_ VDD VSS gf180mcu_fd_sc_mcu9t5v0__clkinv_2
X_0899_ _0811_ _0519_ _0520_ _0812_ VDD VSS gf180mcu_fd_sc_mcu9t5v0__or3_2
X_0900_ _0812_ _0776_ _0813_ VDD VSS gf180mcu_fd_sc_mcu9t5v0__or2_2
X_0901_ _0545_ _0813_ _0814_ VDD VSS gf180mcu_fd_sc_mcu9t5v0__nand2_2
X_0902_ _0795_ _0798_ _0814_ _0842_ VDD VSS gf180mcu_fd_sc_mcu9t5v0__nand3_2
X_0903_ _0793_ net231 _0815_ VDD VSS gf180mcu_fd_sc_mcu9t5v0__and2_2
X_0904_ init_state\[7\] _0514_ _0816_ VDD VSS gf180mcu_fd_sc_mcu9t5v0__and2_2
X_0905_ _0815_ _0816_ _0801_ _0817_ VDD VSS gf180mcu_fd_sc_mcu9t5v0__oai21_2
Xinput86 wr_data[35] net85 VDD VSS gf180mcu_fd_sc_mcu9t5v0__dlyb_2
X_0907_ refresh_counter\[0\] _0023_ VDD VSS gf180mcu_fd_sc_mcu9t5v0__clkinv_2
X_0908_ _0023_ _0543_ _0819_ VDD VSS gf180mcu_fd_sc_mcu9t5v0__xnor2_2
X_0909_ _0817_ _0819_ _0843_ VDD VSS gf180mcu_fd_sc_mcu9t5v0__and2_2
X_0910_ _0025_ _0820_ VDD VSS gf180mcu_fd_sc_mcu9t5v0__clkinv_2
X_0911_ refresh_counter\[1\] _0820_ _0543_ _0821_ VDD VSS
+ gf180mcu_fd_sc_mcu9t5v0__mux2_2
X_0912_ _0817_ _0821_ _0850_ VDD VSS gf180mcu_fd_sc_mcu9t5v0__and2_2
X_0913_ _0026_ _0543_ _0822_ VDD VSS gf180mcu_fd_sc_mcu9t5v0__nand2_2
X_0914_ refresh_counter\[2\] _0822_ _0823_ VDD VSS gf180mcu_fd_sc_mcu9t5v0__xnor2_2
X_0915_ _0817_ _0823_ _0851_ VDD VSS gf180mcu_fd_sc_mcu9t5v0__and2_2
X_0916_ refresh_counter\[2\] refresh_counter\[1\] refresh_counter\[0\]
+ _0543_ _0824_ VDD VSS gf180mcu_fd_sc_mcu9t5v0__and4_2
X_0917_ refresh_counter\[3\] _0824_ _0825_ VDD VSS gf180mcu_fd_sc_mcu9t5v0__xor2_2
X_0918_ _0817_ _0825_ _0852_ VDD VSS gf180mcu_fd_sc_mcu9t5v0__and2_2
X_0919_ refresh_counter\[2\] _0026_ _0543_ _0826_ VDD VSS
+ gf180mcu_fd_sc_mcu9t5v0__and3_2
X_0920_ refresh_counter\[3\] _0826_ _0827_ VDD VSS gf180mcu_fd_sc_mcu9t5v0__nand2_2
X_0921_ refresh_counter\[4\] _0827_ _0828_ VDD VSS gf180mcu_fd_sc_mcu9t5v0__xnor2_2
X_0922_ _0817_ _0828_ _0853_ VDD VSS gf180mcu_fd_sc_mcu9t5v0__and2_2
X_0923_ refresh_counter\[4\] refresh_counter\[3\] _0824_ _0829_
+ VDD VSS gf180mcu_fd_sc_mcu9t5v0__and3_2
X_0924_ refresh_counter\[5\] _0829_ _0830_ VDD VSS gf180mcu_fd_sc_mcu9t5v0__xor2_2
X_0925_ _0817_ _0830_ _0854_ VDD VSS gf180mcu_fd_sc_mcu9t5v0__and2_2
X_0926_ refresh_counter\[5\] refresh_counter\[4\] refresh_counter\[3\]
+ _0826_ _0831_ VDD VSS gf180mcu_fd_sc_mcu9t5v0__and4_2
X_0927_ refresh_counter\[6\] _0831_ _0832_ VDD VSS gf180mcu_fd_sc_mcu9t5v0__xor2_2
X_0928_ _0817_ _0832_ _0855_ VDD VSS gf180mcu_fd_sc_mcu9t5v0__and2_2
X_0929_ refresh_counter\[6\] refresh_counter\[5\] refresh_counter\[4\]
+ refresh_counter\[3\] _0833_ VDD VSS gf180mcu_fd_sc_mcu9t5v0__and4_2
X_0930_ _0824_ _0833_ _0834_ VDD VSS gf180mcu_fd_sc_mcu9t5v0__and2_2
X_0931_ _0536_ _0834_ _0835_ VDD VSS gf180mcu_fd_sc_mcu9t5v0__xnor2_2
X_0932_ _0817_ _0835_ _0856_ VDD VSS gf180mcu_fd_sc_mcu9t5v0__and2_2
X_0933_ refresh_counter\[2\] _0026_ _0543_ _0836_ VDD VSS
+ gf180mcu_fd_sc_mcu9t5v0__and3_2
X_0934_ refresh_counter\[7\] _0833_ _0837_ VDD VSS gf180mcu_fd_sc_mcu9t5v0__and2_2
X_0935_ _0836_ _0837_ _0838_ VDD VSS gf180mcu_fd_sc_mcu9t5v0__nand2_2
X_0936_ refresh_counter\[8\] _0838_ _0251_ VDD VSS gf180mcu_fd_sc_mcu9t5v0__xnor2_2
X_0937_ _0817_ _0251_ _0857_ VDD VSS gf180mcu_fd_sc_mcu9t5v0__and2_2
X_0938_ refresh_counter\[8\] _0837_ _0252_ VDD VSS gf180mcu_fd_sc_mcu9t5v0__and2_2
X_0939_ _0824_ _0252_ _0253_ VDD VSS gf180mcu_fd_sc_mcu9t5v0__nand2_2
X_0940_ refresh_counter\[9\] _0253_ _0254_ VDD VSS gf180mcu_fd_sc_mcu9t5v0__xnor2_2
X_0941_ _0817_ _0254_ _0858_ VDD VSS gf180mcu_fd_sc_mcu9t5v0__and2_2
X_0942_ refresh_counter\[9\] _0836_ _0252_ _0255_ VDD VSS
+ gf180mcu_fd_sc_mcu9t5v0__and3_2
X_0943_ refresh_counter\[10\] _0255_ _0256_ VDD VSS gf180mcu_fd_sc_mcu9t5v0__or2_2
X_0944_ _0817_ _0256_ _0844_ VDD VSS gf180mcu_fd_sc_mcu9t5v0__and2_2
X_0945_ refresh_counter\[11\] _0817_ _0845_ VDD VSS gf180mcu_fd_sc_mcu9t5v0__and2_2
X_0946_ refresh_counter\[12\] _0817_ _0846_ VDD VSS gf180mcu_fd_sc_mcu9t5v0__and2_2
X_0947_ refresh_counter\[13\] _0817_ _0847_ VDD VSS gf180mcu_fd_sc_mcu9t5v0__and2_2
X_0948_ refresh_counter\[14\] _0817_ _0848_ VDD VSS gf180mcu_fd_sc_mcu9t5v0__and2_2
X_0949_ refresh_counter\[15\] _0817_ _0849_ VDD VSS gf180mcu_fd_sc_mcu9t5v0__and2_2
X_0950_ _0033_ _0509_ _0257_ VDD VSS gf180mcu_fd_sc_mcu9t5v0__and2_2
X_0951_ _0035_ _0509_ _0258_ VDD VSS gf180mcu_fd_sc_mcu9t5v0__nand2_2
X_0952_ _0511_ _0520_ _0259_ VDD VSS gf180mcu_fd_sc_mcu9t5v0__nor2_2
X_0953_ net153 _0530_ _0259_ _0260_ VDD VSS gf180mcu_fd_sc_mcu9t5v0__nand3_2
X_0954_ _0257_ _0258_ _0260_ _0261_ VDD VSS gf180mcu_fd_sc_mcu9t5v0__aoi21_2
X_0955_ net218 net55 _0262_ VDD VSS gf180mcu_fd_sc_mcu9t5v0__and2_2
X_0956_ net121 _0262_ net153 _0263_ VDD VSS gf180mcu_fd_sc_mcu9t5v0__mux2_2
X_0957_ _0530_ _0263_ _0264_ VDD VSS gf180mcu_fd_sc_mcu9t5v0__and2_2
X_0958_ _0030_ _0791_ _0264_ _0265_ VDD VSS gf180mcu_fd_sc_mcu9t5v0__mux2_2
X_0959_ _0261_ _0265_ _0266_ VDD VSS gf180mcu_fd_sc_mcu9t5v0__or2_2
X_0960_ _0510_ _0258_ _0267_ VDD VSS gf180mcu_fd_sc_mcu9t5v0__nand2_2
X_0961_ timer\[0\] _0260_ _0267_ _0268_ VDD VSS gf180mcu_fd_sc_mcu9t5v0__or3_2
X_0962_ _0266_ _0268_ _0269_ VDD VSS gf180mcu_fd_sc_mcu9t5v0__and2_2
Xinput85 wr_data[34] net84 VDD VSS gf180mcu_fd_sc_mcu9t5v0__dlyb_2
X_0964_ net234 _0804_ _0271_ VDD VSS gf180mcu_fd_sc_mcu9t5v0__nand2_2
X_0965_ net234 _0528_ _0272_ VDD VSS gf180mcu_fd_sc_mcu9t5v0__nand2_2
X_0966_ _0804_ _0272_ _0273_ VDD VSS gf180mcu_fd_sc_mcu9t5v0__or2_2
X_0967_ _0030_ _0274_ VDD VSS gf180mcu_fd_sc_mcu9t5v0__clkinv_2
X_0968_ init_state\[2\] _0787_ _0275_ VDD VSS gf180mcu_fd_sc_mcu9t5v0__or2_2
X_0969_ init_state\[4\] init_state\[3\] init_state\[0\] _0275_
+ _0276_ VDD VSS gf180mcu_fd_sc_mcu9t5v0__or4_2
X_0970_ _0274_ _0029_ _0276_ _0277_ VDD VSS gf180mcu_fd_sc_mcu9t5v0__mux2_2
X_0971_ _0794_ _0796_ _0278_ VDD VSS gf180mcu_fd_sc_mcu9t5v0__or2_2
X_0972_ _0795_ _0031_ _0278_ _0279_ VDD VSS gf180mcu_fd_sc_mcu9t5v0__oai21_2
X_0973_ net233 _0277_ _0279_ _0280_ VDD VSS gf180mcu_fd_sc_mcu9t5v0__aoi21_2
X_0974_ _0269_ _0271_ _0273_ _0030_ _0280_ _0281_ VDD VSS
+ gf180mcu_fd_sc_mcu9t5v0__oai221_2
X_0975_ _0546_ _0281_ _0278_ _0282_ VDD VSS gf180mcu_fd_sc_mcu9t5v0__oai21_2
X_0976_ _0545_ _0813_ _0281_ _0283_ VDD VSS gf180mcu_fd_sc_mcu9t5v0__aoi21_2
X_0977_ _0030_ _0282_ _0283_ _0859_ VDD VSS gf180mcu_fd_sc_mcu9t5v0__aoi21_2
X_0978_ timer\[1\] _0032_ VDD VSS gf180mcu_fd_sc_mcu9t5v0__clkinv_2
X_0979_ _0801_ _0778_ _0284_ VDD VSS gf180mcu_fd_sc_mcu9t5v0__or2_2
X_0980_ net52 _0278_ timer\[1\] _0285_ VDD VSS gf180mcu_fd_sc_mcu9t5v0__aoi21_2
X_0981_ _0034_ _0285_ _0521_ _0286_ VDD VSS gf180mcu_fd_sc_mcu9t5v0__mux2_2
X_0982_ init_state\[4\] init_state\[3\] init_state\[0\] _0287_
+ VDD VSS gf180mcu_fd_sc_mcu9t5v0__nor3_2
X_0983_ timer\[1\] _0287_ _0288_ VDD VSS gf180mcu_fd_sc_mcu9t5v0__and2_2
X_0984_ _0804_ _0275_ _0288_ net233 _0289_ VDD VSS gf180mcu_fd_sc_mcu9t5v0__oai31_2
X_0985_ _0278_ _0800_ _0289_ _0290_ VDD VSS gf180mcu_fd_sc_mcu9t5v0__and3_2
X_0986_ net153 _0530_ _0259_ _0291_ VDD VSS gf180mcu_fd_sc_mcu9t5v0__and3_2
X_0987_ _0035_ _0509_ _0292_ VDD VSS gf180mcu_fd_sc_mcu9t5v0__and2_2
X_0988_ net153 _0510_ _0530_ _0259_ _0293_ VDD VSS gf180mcu_fd_sc_mcu9t5v0__nand4_2
X_0989_ _0291_ _0292_ _0264_ _0293_ _0294_ VDD VSS gf180mcu_fd_sc_mcu9t5v0__aoi22_2
X_0990_ _0294_ _0295_ VDD VSS gf180mcu_fd_sc_mcu9t5v0__clkinv_2
X_0991_ _0290_ _0295_ _0034_ _0296_ VDD VSS gf180mcu_fd_sc_mcu9t5v0__aoi21_2
X_0992_ _0513_ _0528_ _0297_ VDD VSS gf180mcu_fd_sc_mcu9t5v0__nand2_2
X_0993_ timer\[1\] _0297_ net234 _0298_ VDD VSS gf180mcu_fd_sc_mcu9t5v0__oai21_2
X_0994_ _0290_ _0298_ _0299_ VDD VSS gf180mcu_fd_sc_mcu9t5v0__nand2_2
Xinput84 wr_data[33] net83 VDD VSS gf180mcu_fd_sc_mcu9t5v0__dlyb_2
X_0996_ timer\[1\] _0804_ _0278_ _0300_ VDD VSS gf180mcu_fd_sc_mcu9t5v0__or3_2
X_0997_ _0521_ _0296_ _0299_ _0300_ _0301_ VDD VSS gf180mcu_fd_sc_mcu9t5v0__oai211_2
X_0998_ _0284_ _0286_ _0301_ _0866_ VDD VSS gf180mcu_fd_sc_mcu9t5v0__oai21_2
X_0999_ init_state\[0\] _0804_ net233 _0302_ VDD VSS gf180mcu_fd_sc_mcu9t5v0__oai21_2
X_1000_ net234 _0294_ _0303_ VDD VSS gf180mcu_fd_sc_mcu9t5v0__and2_2
X_1001_ net231 _0797_ _0303_ _0804_ _0304_ VDD VSS gf180mcu_fd_sc_mcu9t5v0__oai31_2
X_1002_ _0800_ _0302_ _0304_ _0305_ VDD VSS gf180mcu_fd_sc_mcu9t5v0__and3_2
X_1003_ timer\[2\] _0033_ _0306_ VDD VSS gf180mcu_fd_sc_mcu9t5v0__xnor2_2
X_1004_ _0305_ _0306_ _0307_ VDD VSS gf180mcu_fd_sc_mcu9t5v0__or2_2
X_1005_ net231 _0784_ _0308_ VDD VSS gf180mcu_fd_sc_mcu9t5v0__nand2_2
X_1006_ net231 _0776_ _0309_ VDD VSS gf180mcu_fd_sc_mcu9t5v0__nand2_2
X_1007_ net53 _0812_ _0309_ _0310_ VDD VSS gf180mcu_fd_sc_mcu9t5v0__or3_2
X_1008_ _0307_ _0308_ _0310_ _0867_ VDD VSS gf180mcu_fd_sc_mcu9t5v0__nand3_2
X_1009_ init_state\[4\] init_state\[3\] _0275_ net233 _0311_
+ VDD VSS gf180mcu_fd_sc_mcu9t5v0__oai31_2
X_1010_ _0795_ net53 _0528_ _0523_ _0311_ _0312_ VDD VSS gf180mcu_fd_sc_mcu9t5v0__oai221_2
X_1011_ net233 _0303_ _0804_ _0313_ VDD VSS gf180mcu_fd_sc_mcu9t5v0__oai21_2
X_1012_ timer\[2\] timer\[0\] timer\[1\] timer\[3\] _0314_
+ VDD VSS gf180mcu_fd_sc_mcu9t5v0__oai31_2
X_1013_ timer\[0\] _0027_ VDD VSS gf180mcu_fd_sc_mcu9t5v0__clkinv_2
X_1014_ _0027_ _0032_ _0509_ _0315_ VDD VSS gf180mcu_fd_sc_mcu9t5v0__nand3_2
X_1015_ _0314_ _0315_ _0316_ VDD VSS gf180mcu_fd_sc_mcu9t5v0__and2_2
X_1016_ _0800_ _0313_ _0316_ _0317_ VDD VSS gf180mcu_fd_sc_mcu9t5v0__aoi21_2
X_1017_ _0521_ _0312_ _0317_ _0797_ _0318_ VDD VSS gf180mcu_fd_sc_mcu9t5v0__aoi211_2
X_1018_ net52 _0312_ _0278_ _0319_ VDD VSS gf180mcu_fd_sc_mcu9t5v0__oai21_2
X_1019_ _0316_ _0319_ _0521_ _0320_ VDD VSS gf180mcu_fd_sc_mcu9t5v0__mux2_2
X_1020_ _0284_ _0318_ _0320_ _0868_ VDD VSS gf180mcu_fd_sc_mcu9t5v0__aoi21_2
X_1021_ _0528_ _0294_ _0804_ _0321_ VDD VSS gf180mcu_fd_sc_mcu9t5v0__mux2_2
X_1022_ net234 _0321_ _0322_ VDD VSS gf180mcu_fd_sc_mcu9t5v0__nand2_2
X_1023_ _0793_ _0276_ _0278_ _0323_ VDD VSS gf180mcu_fd_sc_mcu9t5v0__oai21_2
X_1024_ net233 _0804_ _0323_ _0324_ VDD VSS gf180mcu_fd_sc_mcu9t5v0__aoi21_2
X_1025_ _0795_ _0780_ _0322_ _0324_ _0325_ VDD VSS gf180mcu_fd_sc_mcu9t5v0__nand4_2
X_1026_ timer\[4\] _0259_ _0326_ VDD VSS gf180mcu_fd_sc_mcu9t5v0__nor2_2
X_1027_ timer\[4\] _0326_ _0257_ _0327_ VDD VSS gf180mcu_fd_sc_mcu9t5v0__mux2_2
X_1028_ _0325_ _0327_ _0328_ VDD VSS gf180mcu_fd_sc_mcu9t5v0__nand2_2
X_1029_ _0308_ _0328_ _0869_ VDD VSS gf180mcu_fd_sc_mcu9t5v0__nand2_2
X_1030_ _0792_ _0294_ net232 _0545_ _0329_ VDD VSS gf180mcu_fd_sc_mcu9t5v0__aoi211_2
X_1031_ _0278_ _0302_ _0329_ _0330_ VDD VSS gf180mcu_fd_sc_mcu9t5v0__and3_2
X_1032_ timer\[4\] _0315_ timer\[5\] _0331_ VDD VSS gf180mcu_fd_sc_mcu9t5v0__oai21_2
X_1033_ _0511_ _0315_ _0332_ VDD VSS gf180mcu_fd_sc_mcu9t5v0__or2_2
X_1034_ _0804_ _0331_ _0332_ _0333_ VDD VSS gf180mcu_fd_sc_mcu9t5v0__and3_2
X_1035_ _0521_ _0302_ _0330_ _0333_ _0870_ VDD VSS gf180mcu_fd_sc_mcu9t5v0__aoi211_2
X_1036_ _0545_ _0812_ _0323_ net232 _0334_ VDD VSS gf180mcu_fd_sc_mcu9t5v0__aoi211_2
X_1037_ _0523_ _0261_ _0264_ _0334_ _0335_ VDD VSS gf180mcu_fd_sc_mcu9t5v0__oai31_2
X_1038_ _0804_ _0275_ _0336_ VDD VSS gf180mcu_fd_sc_mcu9t5v0__nand2_2
X_1039_ _0287_ _0336_ _0337_ VDD VSS gf180mcu_fd_sc_mcu9t5v0__nand2_2
X_1040_ _0804_ _0335_ _0337_ net233 _0338_ VDD VSS gf180mcu_fd_sc_mcu9t5v0__aoi22_2
X_1041_ timer\[6\] _0519_ _0339_ VDD VSS gf180mcu_fd_sc_mcu9t5v0__xor2_2
X_1042_ _0338_ _0339_ _0871_ VDD VSS gf180mcu_fd_sc_mcu9t5v0__nor2_2
X_1043_ timer\[6\] _0332_ _0340_ VDD VSS gf180mcu_fd_sc_mcu9t5v0__nor2_2
X_1044_ timer\[7\] _0340_ _0341_ VDD VSS gf180mcu_fd_sc_mcu9t5v0__xnor2_2
X_1045_ init_state\[0\] _0275_ _0342_ VDD VSS gf180mcu_fd_sc_mcu9t5v0__or2_2
X_1046_ _0804_ _0342_ _0343_ VDD VSS gf180mcu_fd_sc_mcu9t5v0__and2_2
X_1047_ init_state\[4\] init_state\[3\] _0343_ _0344_ VDD
+ VSS gf180mcu_fd_sc_mcu9t5v0__or3_2
X_1048_ _0523_ _0295_ _0334_ _0345_ VDD VSS gf180mcu_fd_sc_mcu9t5v0__oai21_2
X_1049_ net233 _0344_ _0345_ _0804_ _0346_ VDD VSS gf180mcu_fd_sc_mcu9t5v0__aoi22_2
X_1050_ _0804_ _0341_ _0346_ _0872_ VDD VSS gf180mcu_fd_sc_mcu9t5v0__aoi21_2
X_1051_ net233 _0345_ _0347_ VDD VSS gf180mcu_fd_sc_mcu9t5v0__or2_2
X_1052_ _0804_ _0347_ _0348_ VDD VSS gf180mcu_fd_sc_mcu9t5v0__and2_2
X_1053_ timer\[7\] timer\[6\] _0519_ _0349_ VDD VSS gf180mcu_fd_sc_mcu9t5v0__nor3_2
X_1054_ timer\[8\] _0349_ _0350_ VDD VSS gf180mcu_fd_sc_mcu9t5v0__xor2_2
X_1055_ _0348_ _0350_ _0873_ VDD VSS gf180mcu_fd_sc_mcu9t5v0__and2_2
X_1056_ timer\[7\] timer\[6\] timer\[8\] _0332_ _0351_ VDD
+ VSS gf180mcu_fd_sc_mcu9t5v0__or4_2
X_1057_ timer\[9\] _0351_ _0352_ VDD VSS gf180mcu_fd_sc_mcu9t5v0__xnor2_2
X_1058_ _0348_ _0352_ _0874_ VDD VSS gf180mcu_fd_sc_mcu9t5v0__and2_2
X_1059_ _0519_ _0507_ _0353_ VDD VSS gf180mcu_fd_sc_mcu9t5v0__nor2_2
X_1060_ timer\[10\] _0353_ _0354_ VDD VSS gf180mcu_fd_sc_mcu9t5v0__xor2_2
X_1061_ _0348_ _0354_ _0860_ VDD VSS gf180mcu_fd_sc_mcu9t5v0__and2_2
X_1062_ _0507_ _0332_ _0355_ VDD VSS gf180mcu_fd_sc_mcu9t5v0__or2_2
X_1063_ timer\[10\] _0355_ _0356_ VDD VSS gf180mcu_fd_sc_mcu9t5v0__or2_2
X_1064_ timer\[11\] _0356_ _0357_ VDD VSS gf180mcu_fd_sc_mcu9t5v0__xnor2_2
X_1065_ _0348_ _0357_ _0861_ VDD VSS gf180mcu_fd_sc_mcu9t5v0__and2_2
X_1066_ _0324_ _0329_ _0358_ VDD VSS gf180mcu_fd_sc_mcu9t5v0__nand2_2
X_1067_ timer\[15\] timer\[14\] _0508_ _0359_ VDD VSS gf180mcu_fd_sc_mcu9t5v0__nor3_2
X_1068_ timer\[12\] _0359_ _0360_ VDD VSS gf180mcu_fd_sc_mcu9t5v0__nor2_2
X_1069_ timer\[10\] timer\[11\] _0519_ _0507_ _0361_ VDD VSS
+ gf180mcu_fd_sc_mcu9t5v0__or4_2
X_1070_ _0360_ timer\[12\] _0361_ _0362_ VDD VSS gf180mcu_fd_sc_mcu9t5v0__mux2_2
X_1071_ _0358_ _0362_ _0862_ VDD VSS gf180mcu_fd_sc_mcu9t5v0__and2_2
X_1072_ timer\[10\] timer\[11\] timer\[12\] _0355_ _0363_
+ VDD VSS gf180mcu_fd_sc_mcu9t5v0__or4_2
X_1073_ timer\[13\] _0363_ _0364_ VDD VSS gf180mcu_fd_sc_mcu9t5v0__xnor2_2
X_1074_ _0804_ _0347_ _0364_ _0863_ VDD VSS gf180mcu_fd_sc_mcu9t5v0__and3_2
X_1075_ _0519_ _0507_ _0508_ _0365_ VDD VSS gf180mcu_fd_sc_mcu9t5v0__or3_2
X_1076_ timer\[14\] _0365_ _0366_ VDD VSS gf180mcu_fd_sc_mcu9t5v0__xnor2_2
X_1077_ _0348_ _0366_ _0864_ VDD VSS gf180mcu_fd_sc_mcu9t5v0__and2_2
X_1078_ timer\[14\] _0508_ _0355_ _0367_ VDD VSS gf180mcu_fd_sc_mcu9t5v0__or3_2
X_1079_ timer\[15\] _0367_ _0368_ VDD VSS gf180mcu_fd_sc_mcu9t5v0__xnor2_2
X_1080_ _0348_ _0368_ _0865_ VDD VSS gf180mcu_fd_sc_mcu9t5v0__and2_2
X_1081_ net234 net153 _0530_ _0369_ VDD VSS gf180mcu_fd_sc_mcu9t5v0__and3_4
Xinput83 wr_data[32] net82 VDD VSS gf180mcu_fd_sc_mcu9t5v0__dlyb_2
Xinput82 wr_data[31] net81 VDD VSS gf180mcu_fd_sc_mcu9t5v0__dlyb_2
X_1084_ _0033_ net55 _0528_ _0372_ VDD VSS gf180mcu_fd_sc_mcu9t5v0__nand3_2
X_1085_ _0259_ _0267_ _0369_ _0372_ _0000_ VDD VSS gf180mcu_fd_sc_mcu9t5v0__and4_2
X_1086_ net138 _0009_ VDD VSS gf180mcu_fd_sc_mcu9t5v0__clkinv_2
X_1087_ net219 _0036_ VDD VSS gf180mcu_fd_sc_mcu9t5v0__clkinv_2
X_1088_ net139 _0010_ VDD VSS gf180mcu_fd_sc_mcu9t5v0__clkinv_2
X_1089_ burst_counter\[1\] _0020_ VDD VSS gf180mcu_fd_sc_mcu9t5v0__clkinv_2
X_1090_ net220 _0037_ VDD VSS gf180mcu_fd_sc_mcu9t5v0__clkinv_2
X_1091_ net56 net232 _0513_ _0373_ VDD VSS gf180mcu_fd_sc_mcu9t5v0__and3_2
X_1092_ _0016_ _0373_ _0374_ VDD VSS gf180mcu_fd_sc_mcu9t5v0__and2_2
Xinput81 wr_data[30] net80 VDD VSS gf180mcu_fd_sc_mcu9t5v0__dlyb_2
X_1094_ active_row\[0\]\[0\] net124 _0374_ _0043_ VDD VSS
+ gf180mcu_fd_sc_mcu9t5v0__mux2_2
X_1095_ active_row\[0\]\[10\] net125 _0374_ _0044_ VDD VSS
+ gf180mcu_fd_sc_mcu9t5v0__mux2_2
X_1096_ active_row\[0\]\[11\] net126 _0374_ _0045_ VDD VSS
+ gf180mcu_fd_sc_mcu9t5v0__mux2_2
X_1097_ active_row\[0\]\[12\] net127 _0374_ _0046_ VDD VSS
+ gf180mcu_fd_sc_mcu9t5v0__mux2_2
X_1098_ active_row\[0\]\[13\] net128 _0374_ _0047_ VDD VSS
+ gf180mcu_fd_sc_mcu9t5v0__mux2_2
X_1099_ active_row\[0\]\[1\] net129 _0374_ _0048_ VDD VSS
+ gf180mcu_fd_sc_mcu9t5v0__mux2_2
X_1100_ active_row\[0\]\[2\] net130 _0374_ _0049_ VDD VSS
+ gf180mcu_fd_sc_mcu9t5v0__mux2_2
X_1101_ active_row\[0\]\[3\] net131 _0374_ _0050_ VDD VSS
+ gf180mcu_fd_sc_mcu9t5v0__mux2_2
X_1102_ active_row\[0\]\[4\] net132 _0374_ _0051_ VDD VSS
+ gf180mcu_fd_sc_mcu9t5v0__mux2_2
X_1103_ active_row\[0\]\[5\] net133 _0374_ _0052_ VDD VSS
+ gf180mcu_fd_sc_mcu9t5v0__mux2_2
X_1104_ active_row\[0\]\[6\] net134 _0374_ _0053_ VDD VSS
+ gf180mcu_fd_sc_mcu9t5v0__mux2_2
X_1105_ active_row\[0\]\[7\] net135 _0374_ _0054_ VDD VSS
+ gf180mcu_fd_sc_mcu9t5v0__mux2_2
X_1106_ active_row\[0\]\[8\] net136 _0374_ _0055_ VDD VSS
+ gf180mcu_fd_sc_mcu9t5v0__mux2_2
X_1107_ active_row\[0\]\[9\] net137 _0374_ _0056_ VDD VSS
+ gf180mcu_fd_sc_mcu9t5v0__mux2_2
X_1108_ _0015_ _0373_ _0376_ VDD VSS gf180mcu_fd_sc_mcu9t5v0__and2_2
X_1109_ _0013_ _0376_ _0377_ VDD VSS gf180mcu_fd_sc_mcu9t5v0__and2_2
Xinput80 wr_data[2] net79 VDD VSS gf180mcu_fd_sc_mcu9t5v0__dlyb_2
X_1111_ active_row\[1\]\[0\] net124 _0377_ _0057_ VDD VSS
+ gf180mcu_fd_sc_mcu9t5v0__mux2_2
X_1112_ active_row\[1\]\[10\] net125 _0377_ _0058_ VDD VSS
+ gf180mcu_fd_sc_mcu9t5v0__mux2_2
X_1113_ active_row\[1\]\[11\] net126 _0377_ _0059_ VDD VSS
+ gf180mcu_fd_sc_mcu9t5v0__mux2_2
X_1114_ active_row\[1\]\[12\] net127 _0377_ _0060_ VDD VSS
+ gf180mcu_fd_sc_mcu9t5v0__mux2_2
X_1115_ active_row\[1\]\[13\] net128 _0377_ _0061_ VDD VSS
+ gf180mcu_fd_sc_mcu9t5v0__mux2_2
X_1116_ active_row\[1\]\[1\] net129 _0377_ _0062_ VDD VSS
+ gf180mcu_fd_sc_mcu9t5v0__mux2_2
X_1117_ active_row\[1\]\[2\] net130 _0377_ _0063_ VDD VSS
+ gf180mcu_fd_sc_mcu9t5v0__mux2_2
X_1118_ active_row\[1\]\[3\] net131 _0377_ _0064_ VDD VSS
+ gf180mcu_fd_sc_mcu9t5v0__mux2_2
X_1119_ active_row\[1\]\[4\] net132 _0377_ _0065_ VDD VSS
+ gf180mcu_fd_sc_mcu9t5v0__mux2_2
X_1120_ active_row\[1\]\[5\] net133 _0377_ _0066_ VDD VSS
+ gf180mcu_fd_sc_mcu9t5v0__mux2_2
X_1121_ active_row\[1\]\[6\] net134 _0377_ _0067_ VDD VSS
+ gf180mcu_fd_sc_mcu9t5v0__mux2_2
X_1122_ active_row\[1\]\[7\] net135 _0377_ _0068_ VDD VSS
+ gf180mcu_fd_sc_mcu9t5v0__mux2_2
X_1123_ active_row\[1\]\[8\] net136 _0377_ _0069_ VDD VSS
+ gf180mcu_fd_sc_mcu9t5v0__mux2_2
X_1124_ active_row\[1\]\[9\] net137 _0377_ _0070_ VDD VSS
+ gf180mcu_fd_sc_mcu9t5v0__mux2_2
X_1125_ _0012_ _0376_ _0379_ VDD VSS gf180mcu_fd_sc_mcu9t5v0__and2_2
Xinput79 wr_data[29] net78 VDD VSS gf180mcu_fd_sc_mcu9t5v0__dlyb_2
X_1127_ active_row\[2\]\[0\] net124 _0379_ _0071_ VDD VSS
+ gf180mcu_fd_sc_mcu9t5v0__mux2_2
X_1128_ active_row\[2\]\[10\] net125 _0379_ _0072_ VDD VSS
+ gf180mcu_fd_sc_mcu9t5v0__mux2_2
X_1129_ active_row\[2\]\[11\] net126 _0379_ _0073_ VDD VSS
+ gf180mcu_fd_sc_mcu9t5v0__mux2_2
X_1130_ active_row\[2\]\[12\] net127 _0379_ _0074_ VDD VSS
+ gf180mcu_fd_sc_mcu9t5v0__mux2_2
X_1131_ active_row\[2\]\[13\] net128 _0379_ _0075_ VDD VSS
+ gf180mcu_fd_sc_mcu9t5v0__mux2_2
X_1132_ active_row\[2\]\[1\] net129 _0379_ _0076_ VDD VSS
+ gf180mcu_fd_sc_mcu9t5v0__mux2_2
X_1133_ active_row\[2\]\[2\] net130 _0379_ _0077_ VDD VSS
+ gf180mcu_fd_sc_mcu9t5v0__mux2_2
X_1134_ active_row\[2\]\[3\] net131 _0379_ _0078_ VDD VSS
+ gf180mcu_fd_sc_mcu9t5v0__mux2_2
X_1135_ active_row\[2\]\[4\] net132 _0379_ _0079_ VDD VSS
+ gf180mcu_fd_sc_mcu9t5v0__mux2_2
X_1136_ active_row\[2\]\[5\] net133 _0379_ _0080_ VDD VSS
+ gf180mcu_fd_sc_mcu9t5v0__mux2_2
X_1137_ active_row\[2\]\[6\] net134 _0379_ _0081_ VDD VSS
+ gf180mcu_fd_sc_mcu9t5v0__mux2_2
X_1138_ active_row\[2\]\[7\] net135 _0379_ _0082_ VDD VSS
+ gf180mcu_fd_sc_mcu9t5v0__mux2_2
X_1139_ active_row\[2\]\[8\] net136 _0379_ _0083_ VDD VSS
+ gf180mcu_fd_sc_mcu9t5v0__mux2_2
X_1140_ active_row\[2\]\[9\] net137 _0379_ _0084_ VDD VSS
+ gf180mcu_fd_sc_mcu9t5v0__mux2_2
X_1141_ _0014_ _0376_ _0381_ VDD VSS gf180mcu_fd_sc_mcu9t5v0__and2_2
Xinput78 wr_data[28] net77 VDD VSS gf180mcu_fd_sc_mcu9t5v0__dlyb_2
X_1143_ active_row\[3\]\[0\] net124 _0381_ _0085_ VDD VSS
+ gf180mcu_fd_sc_mcu9t5v0__mux2_2
X_1144_ active_row\[3\]\[10\] net125 _0381_ _0086_ VDD VSS
+ gf180mcu_fd_sc_mcu9t5v0__mux2_2
X_1145_ active_row\[3\]\[11\] net126 _0381_ _0087_ VDD VSS
+ gf180mcu_fd_sc_mcu9t5v0__mux2_2
X_1146_ active_row\[3\]\[12\] net127 _0381_ _0088_ VDD VSS
+ gf180mcu_fd_sc_mcu9t5v0__mux2_2
X_1147_ active_row\[3\]\[13\] net128 _0381_ _0089_ VDD VSS
+ gf180mcu_fd_sc_mcu9t5v0__mux2_2
X_1148_ active_row\[3\]\[1\] net129 _0381_ _0090_ VDD VSS
+ gf180mcu_fd_sc_mcu9t5v0__mux2_2
X_1149_ active_row\[3\]\[2\] net130 _0381_ _0091_ VDD VSS
+ gf180mcu_fd_sc_mcu9t5v0__mux2_2
X_1150_ active_row\[3\]\[3\] net131 _0381_ _0092_ VDD VSS
+ gf180mcu_fd_sc_mcu9t5v0__mux2_2
X_1151_ active_row\[3\]\[4\] net132 _0381_ _0093_ VDD VSS
+ gf180mcu_fd_sc_mcu9t5v0__mux2_2
X_1152_ active_row\[3\]\[5\] net133 _0381_ _0094_ VDD VSS
+ gf180mcu_fd_sc_mcu9t5v0__mux2_2
X_1153_ active_row\[3\]\[6\] net134 _0381_ _0095_ VDD VSS
+ gf180mcu_fd_sc_mcu9t5v0__mux2_2
X_1154_ active_row\[3\]\[7\] net135 _0381_ _0096_ VDD VSS
+ gf180mcu_fd_sc_mcu9t5v0__mux2_2
X_1155_ active_row\[3\]\[8\] net136 _0381_ _0097_ VDD VSS
+ gf180mcu_fd_sc_mcu9t5v0__mux2_2
X_1156_ active_row\[3\]\[9\] net137 _0381_ _0098_ VDD VSS
+ gf180mcu_fd_sc_mcu9t5v0__mux2_2
X_1157_ _0018_ _0373_ _0383_ VDD VSS gf180mcu_fd_sc_mcu9t5v0__and2_2
Xinput77 wr_data[27] net76 VDD VSS gf180mcu_fd_sc_mcu9t5v0__dlyb_2
X_1159_ active_row\[4\]\[0\] net124 _0383_ _0099_ VDD VSS
+ gf180mcu_fd_sc_mcu9t5v0__mux2_2
X_1160_ active_row\[4\]\[10\] net125 _0383_ _0100_ VDD VSS
+ gf180mcu_fd_sc_mcu9t5v0__mux2_2
X_1161_ active_row\[4\]\[11\] net126 _0383_ _0101_ VDD VSS
+ gf180mcu_fd_sc_mcu9t5v0__mux2_2
X_1162_ active_row\[4\]\[12\] net127 _0383_ _0102_ VDD VSS
+ gf180mcu_fd_sc_mcu9t5v0__mux2_2
X_1163_ active_row\[4\]\[13\] net128 _0383_ _0103_ VDD VSS
+ gf180mcu_fd_sc_mcu9t5v0__mux2_2
X_1164_ active_row\[4\]\[1\] net129 _0383_ _0104_ VDD VSS
+ gf180mcu_fd_sc_mcu9t5v0__mux2_2
X_1165_ active_row\[4\]\[2\] net130 _0383_ _0105_ VDD VSS
+ gf180mcu_fd_sc_mcu9t5v0__mux2_2
X_1166_ active_row\[4\]\[3\] net131 _0383_ _0106_ VDD VSS
+ gf180mcu_fd_sc_mcu9t5v0__mux2_2
X_1167_ active_row\[4\]\[4\] net132 _0383_ _0107_ VDD VSS
+ gf180mcu_fd_sc_mcu9t5v0__mux2_2
X_1168_ active_row\[4\]\[5\] net133 _0383_ _0108_ VDD VSS
+ gf180mcu_fd_sc_mcu9t5v0__mux2_2
X_1169_ active_row\[4\]\[6\] net134 _0383_ _0109_ VDD VSS
+ gf180mcu_fd_sc_mcu9t5v0__mux2_2
X_1170_ active_row\[4\]\[7\] net135 _0383_ _0110_ VDD VSS
+ gf180mcu_fd_sc_mcu9t5v0__mux2_2
X_1171_ active_row\[4\]\[8\] net136 _0383_ _0111_ VDD VSS
+ gf180mcu_fd_sc_mcu9t5v0__mux2_2
X_1172_ active_row\[4\]\[9\] net137 _0383_ _0112_ VDD VSS
+ gf180mcu_fd_sc_mcu9t5v0__mux2_2
X_1173_ net140 _0013_ _0373_ _0385_ VDD VSS gf180mcu_fd_sc_mcu9t5v0__and3_2
Xinput76 wr_data[26] net75 VDD VSS gf180mcu_fd_sc_mcu9t5v0__dlyb_2
X_1175_ active_row\[5\]\[0\] net124 _0385_ _0113_ VDD VSS
+ gf180mcu_fd_sc_mcu9t5v0__mux2_2
X_1176_ active_row\[5\]\[10\] net125 _0385_ _0114_ VDD VSS
+ gf180mcu_fd_sc_mcu9t5v0__mux2_2
X_1177_ active_row\[5\]\[11\] net126 _0385_ _0115_ VDD VSS
+ gf180mcu_fd_sc_mcu9t5v0__mux2_2
X_1178_ active_row\[5\]\[12\] net127 _0385_ _0116_ VDD VSS
+ gf180mcu_fd_sc_mcu9t5v0__mux2_2
X_1179_ active_row\[5\]\[13\] net128 _0385_ _0117_ VDD VSS
+ gf180mcu_fd_sc_mcu9t5v0__mux2_2
X_1180_ active_row\[5\]\[1\] net129 _0385_ _0118_ VDD VSS
+ gf180mcu_fd_sc_mcu9t5v0__mux2_2
X_1181_ active_row\[5\]\[2\] net130 _0385_ _0119_ VDD VSS
+ gf180mcu_fd_sc_mcu9t5v0__mux2_2
X_1182_ active_row\[5\]\[3\] net131 _0385_ _0120_ VDD VSS
+ gf180mcu_fd_sc_mcu9t5v0__mux2_2
X_1183_ active_row\[5\]\[4\] net132 _0385_ _0121_ VDD VSS
+ gf180mcu_fd_sc_mcu9t5v0__mux2_2
X_1184_ active_row\[5\]\[5\] net133 _0385_ _0122_ VDD VSS
+ gf180mcu_fd_sc_mcu9t5v0__mux2_2
X_1185_ active_row\[5\]\[6\] net134 _0385_ _0123_ VDD VSS
+ gf180mcu_fd_sc_mcu9t5v0__mux2_2
X_1186_ active_row\[5\]\[7\] net135 _0385_ _0124_ VDD VSS
+ gf180mcu_fd_sc_mcu9t5v0__mux2_2
X_1187_ active_row\[5\]\[8\] net136 _0385_ _0125_ VDD VSS
+ gf180mcu_fd_sc_mcu9t5v0__mux2_2
X_1188_ active_row\[5\]\[9\] net137 _0385_ _0126_ VDD VSS
+ gf180mcu_fd_sc_mcu9t5v0__mux2_2
X_1189_ net140 _0012_ _0373_ _0387_ VDD VSS gf180mcu_fd_sc_mcu9t5v0__and3_2
Xinput75 wr_data[25] net74 VDD VSS gf180mcu_fd_sc_mcu9t5v0__dlyb_2
X_1191_ active_row\[6\]\[0\] net124 _0387_ _0127_ VDD VSS
+ gf180mcu_fd_sc_mcu9t5v0__mux2_2
X_1192_ active_row\[6\]\[10\] net125 _0387_ _0128_ VDD VSS
+ gf180mcu_fd_sc_mcu9t5v0__mux2_2
X_1193_ active_row\[6\]\[11\] net126 _0387_ _0129_ VDD VSS
+ gf180mcu_fd_sc_mcu9t5v0__mux2_2
X_1194_ active_row\[6\]\[12\] net127 _0387_ _0130_ VDD VSS
+ gf180mcu_fd_sc_mcu9t5v0__mux2_2
X_1195_ active_row\[6\]\[13\] net128 _0387_ _0131_ VDD VSS
+ gf180mcu_fd_sc_mcu9t5v0__mux2_2
X_1196_ active_row\[6\]\[1\] net129 _0387_ _0132_ VDD VSS
+ gf180mcu_fd_sc_mcu9t5v0__mux2_2
X_1197_ active_row\[6\]\[2\] net130 _0387_ _0133_ VDD VSS
+ gf180mcu_fd_sc_mcu9t5v0__mux2_2
X_1198_ active_row\[6\]\[3\] net131 _0387_ _0134_ VDD VSS
+ gf180mcu_fd_sc_mcu9t5v0__mux2_2
X_1199_ active_row\[6\]\[4\] net132 _0387_ _0135_ VDD VSS
+ gf180mcu_fd_sc_mcu9t5v0__mux2_2
X_1200_ active_row\[6\]\[5\] net133 _0387_ _0136_ VDD VSS
+ gf180mcu_fd_sc_mcu9t5v0__mux2_2
X_1201_ active_row\[6\]\[6\] net134 _0387_ _0137_ VDD VSS
+ gf180mcu_fd_sc_mcu9t5v0__mux2_2
X_1202_ active_row\[6\]\[7\] net135 _0387_ _0138_ VDD VSS
+ gf180mcu_fd_sc_mcu9t5v0__mux2_2
X_1203_ active_row\[6\]\[8\] net136 _0387_ _0139_ VDD VSS
+ gf180mcu_fd_sc_mcu9t5v0__mux2_2
X_1204_ active_row\[6\]\[9\] net137 _0387_ _0140_ VDD VSS
+ gf180mcu_fd_sc_mcu9t5v0__mux2_2
X_1205_ net140 _0014_ _0373_ _0389_ VDD VSS gf180mcu_fd_sc_mcu9t5v0__and3_2
Xinput74 wr_data[24] net73 VDD VSS gf180mcu_fd_sc_mcu9t5v0__dlyb_2
X_1207_ active_row\[7\]\[0\] net124 _0389_ _0141_ VDD VSS
+ gf180mcu_fd_sc_mcu9t5v0__mux2_2
X_1208_ active_row\[7\]\[10\] net125 _0389_ _0142_ VDD VSS
+ gf180mcu_fd_sc_mcu9t5v0__mux2_2
X_1209_ active_row\[7\]\[11\] net126 _0389_ _0143_ VDD VSS
+ gf180mcu_fd_sc_mcu9t5v0__mux2_2
X_1210_ active_row\[7\]\[12\] net127 _0389_ _0144_ VDD VSS
+ gf180mcu_fd_sc_mcu9t5v0__mux2_2
X_1211_ active_row\[7\]\[13\] net128 _0389_ _0145_ VDD VSS
+ gf180mcu_fd_sc_mcu9t5v0__mux2_2