
* cell multi_phase_pwm_controller
* pin deadtime[5]
* pin deadtime[4]
* pin deadtime[3]
* pin deadtime[2]
* pin deadtime[1]
* pin duty[1]
* pin duty[2]
* pin duty[3]
* pin duty[0]
* pin deadtime[0]
* pin duty[5]
* pin duty[4]
* pin duty[6]
* pin duty[7]
* pin pwm_p_out[0]
* pin pwm_p_out[2]
* pin pwm_p_out[1]
* pin pwm_n_out[1]
* pin clk
* pin pwm_n_out[0]
* pin pwm_n_out[2]
* pin enable
* pin rst_n
* pin NWELL
* pin PWELL,gf180mcu_gnd
.SUBCKT multi_phase_pwm_controller 1 2 3 4 5 124 132 147 197 199 293 309 310
+ 327 328 334 363 383 535 536 537 538 539 540 541
* net 1 deadtime[5]
* net 2 deadtime[4]
* net 3 deadtime[3]
* net 4 deadtime[2]
* net 5 deadtime[1]
* net 124 duty[1]
* net 132 duty[2]
* net 147 duty[3]
* net 197 duty[0]
* net 199 deadtime[0]
* net 293 duty[5]
* net 309 duty[4]
* net 310 duty[6]
* net 327 duty[7]
* net 328 pwm_p_out[0]
* net 334 pwm_p_out[2]
* net 363 pwm_p_out[1]
* net 383 pwm_n_out[1]
* net 535 clk
* net 536 pwm_n_out[0]
* net 537 pwm_n_out[2]
* net 538 enable
* net 539 rst_n
* net 540 NWELL
* net 541 PWELL,gf180mcu_gnd
* cell instance $4 r0 *1 81.2,5.04
X$4 1 540 541 48 gf180mcu_fd_sc_mcu9t5v0__dlyb_2
* cell instance $8 r0 *1 92.4,5.04
X$8 2 540 541 6 gf180mcu_fd_sc_mcu9t5v0__dlyb_2
* cell instance $12 r0 *1 124.88,5.04
X$12 3 540 541 7 gf180mcu_fd_sc_mcu9t5v0__dlyb_2
* cell instance $16 r0 *1 154,5.04
X$16 4 540 541 9 gf180mcu_fd_sc_mcu9t5v0__dlyb_2
* cell instance $20 r0 *1 214.48,5.04
X$20 5 540 541 23 gf180mcu_fd_sc_mcu9t5v0__buf_2
* cell instance $25 r0 *1 108.64,15.12
X$25 19 541 540 34 6 20 gf180mcu_fd_sc_mcu9t5v0__addh_1
* cell instance $27 r0 *1 105.28,15.12
X$27 541 540 6 87 gf180mcu_fd_sc_mcu9t5v0__clkinv_2
* cell instance $29 m0 *1 95.76,15.12
X$29 541 10 543 6 11 540 gf180mcu_fd_sc_mcu9t5v0__addh_2
* cell instance $34 r0 *1 141.68,25.2
X$34 541 540 7 51 gf180mcu_fd_sc_mcu9t5v0__clkinv_2
* cell instance $36 m0 *1 133.84,25.2
X$36 50 541 540 7 35 548 gf180mcu_fd_sc_mcu9t5v0__addh_1
* cell instance $39 r0 *1 127.68,15.12
X$39 30 541 540 21 7 29 gf180mcu_fd_sc_mcu9t5v0__addh_1
* cell instance $44 r0 *1 143.36,15.12
X$44 541 28 540 13 42 8 gf180mcu_fd_sc_mcu9t5v0__aoi21_2
* cell instance $46 m0 *1 157.92,15.12
X$46 541 540 16 8 gf180mcu_fd_sc_mcu9t5v0__clkinv_2
* cell instance $50 r0 *1 165.2,25.2
X$50 541 62 545 9 52 540 gf180mcu_fd_sc_mcu9t5v0__addh_2
* cell instance $52 m0 *1 164.08,35.28
X$52 541 540 9 69 gf180mcu_fd_sc_mcu9t5v0__clkinv_2
* cell instance $54 r0 *1 161.28,15.12
X$54 16 541 540 36 9 22 gf180mcu_fd_sc_mcu9t5v0__addh_1
* cell instance $62 r0 *1 70,35.28
X$62 541 72 540 73 10 86 gf180mcu_fd_sc_mcu9t5v0__aoi21_2
* cell instance $65 r0 *1 101.92,45.36
X$65 541 10 540 115 108 88 gf180mcu_fd_sc_mcu9t5v0__aoi21_2
* cell instance $67 r0 *1 94.08,45.36
X$67 541 10 97 540 117 gf180mcu_fd_sc_mcu9t5v0__or2_2
* cell instance $69 r0 *1 77.28,35.28
X$69 10 541 83 72 540 81 gf180mcu_fd_sc_mcu9t5v0__or3_2
* cell instance $80 r0 *1 85.12,15.12
X$80 541 540 11 57 gf180mcu_fd_sc_mcu9t5v0__clkinv_2
* cell instance $83 m0 *1 63.84,115.92
X$83 315 541 540 11 161 324 gf180mcu_fd_sc_mcu9t5v0__addh_1
* cell instance $85 r0 *1 60.48,95.76
X$85 248 541 540 11 180 266 gf180mcu_fd_sc_mcu9t5v0__addh_1
* cell instance $88 m0 *1 14.56,115.92
X$88 541 540 309 11 gf180mcu_fd_sc_mcu9t5v0__clkbuf_3
* cell instance $91 r0 *1 101.92,55.44
X$91 541 128 98 87 11 540 gf180mcu_fd_sc_mcu9t5v0__addh_2
* cell instance $95 m0 *1 103.04,25.2
X$95 18 541 540 33 48 12 gf180mcu_fd_sc_mcu9t5v0__addh_1
* cell instance $97 m0 *1 109.2,15.12
X$97 541 18 540 142 17 12 gf180mcu_fd_sc_mcu9t5v0__aoi21_2
* cell instance $102 m0 *1 116.48,15.12
X$102 19 541 13 14 540 17 gf180mcu_fd_sc_mcu9t5v0__or3_2
* cell instance $105 r0 *1 118.16,15.12
X$105 540 20 30 541 14 gf180mcu_fd_sc_mcu9t5v0__and2_2
* cell instance $107 r0 *1 154,15.12
X$107 541 27 540 45 24 15 gf180mcu_fd_sc_mcu9t5v0__aoi21_2
* cell instance $109 m0 *1 148.4,15.12
X$109 27 541 540 21 46 15 gf180mcu_fd_sc_mcu9t5v0__addh_1
* cell instance $127 r0 *1 137.2,15.12
X$127 541 540 29 28 20 gf180mcu_fd_sc_mcu9t5v0__nand2_2
* cell instance $145 m0 *1 136.08,206.64
X$145 540 21 507 541 511 gf180mcu_fd_sc_mcu9t5v0__and2_2
* cell instance $147 m0 *1 144.48,196.56
X$147 541 540 21 349 gf180mcu_fd_sc_mcu9t5v0__clkinv_4
* cell instance $149 m0 *1 156.24,206.64
X$149 21 540 36 509 541 513 gf180mcu_fd_sc_mcu9t5v0__and3_2
* cell instance $151 m0 *1 138.32,186.48
X$151 21 541 505 540 257 gf180mcu_fd_sc_mcu9t5v0__xor2_2
* cell instance $153 r0 *1 151.2,176.4
X$153 541 21 540 493 53 36 gf180mcu_fd_sc_mcu9t5v0__aoi21_2
* cell instance $158 m0 *1 143.36,216.72
X$158 541 21 358 527 540 gf180mcu_fd_sc_mcu9t5v0__dffq_4
* cell instance $160 r0 *1 154.56,115.92
X$160 540 21 541 320 319 36 gf180mcu_fd_sc_mcu9t5v0__oai21_2
* cell instance $163 r0 *1 170.8,15.12
X$163 540 22 541 37 42 40 gf180mcu_fd_sc_mcu9t5v0__oai21_2
* cell instance $170 m0 *1 205.52,35.28
X$170 541 540 23 63 gf180mcu_fd_sc_mcu9t5v0__inv_2
* cell instance $173 r0 *1 201.6,15.12
X$173 40 541 540 53 23 554 gf180mcu_fd_sc_mcu9t5v0__addh_1
* cell instance $177 r0 *1 211.12,35.28
X$177 93 541 540 23 39 552 gf180mcu_fd_sc_mcu9t5v0__addh_1
* cell instance $180 r0 *1 207.76,45.36
X$180 541 23 126 39 113 78 540 gf180mcu_fd_sc_mcu9t5v0__addf_2
* cell instance $184 r0 *1 188.72,15.12
X$184 541 540 25 24 58 gf180mcu_fd_sc_mcu9t5v0__nand2_2
* cell instance $188 r0 *1 182,15.12
X$188 541 540 38 25 gf180mcu_fd_sc_mcu9t5v0__clkinv_2
* cell instance $195 r0 *1 88.48,15.12
X$195 540 43 541 32 26 45 gf180mcu_fd_sc_mcu9t5v0__oai21_2
* cell instance $198 m0 *1 64.96,146.16
X$198 541 397 540 26 379 369 346 384 gf180mcu_fd_sc_mcu9t5v0__aoi221_2
* cell instance $215 m0 *1 92.4,25.2
X$215 541 540 31 32 44 gf180mcu_fd_sc_mcu9t5v0__nand2_2
* cell instance $218 m0 *1 75.6,25.2
X$218 541 41 540 43 31 47 gf180mcu_fd_sc_mcu9t5v0__aoi21_2
* cell instance $221 r0 *1 70.56,15.12
X$221 41 541 540 33 67 31 gf180mcu_fd_sc_mcu9t5v0__addh_1
* cell instance $231 r0 *1 82.32,206.64
X$231 360 33 34 511 541 540 506 gf180mcu_fd_sc_mcu9t5v0__and4_2
* cell instance $234 r0 *1 109.2,196.56
X$234 541 540 33 414 gf180mcu_fd_sc_mcu9t5v0__clkinv_3
* cell instance $236 m0 *1 90.72,216.72
X$236 541 33 358 529 540 gf180mcu_fd_sc_mcu9t5v0__dffq_4
* cell instance $238 m0 *1 109.76,126
X$238 541 540 33 343 345 gf180mcu_fd_sc_mcu9t5v0__nand2_2
* cell instance $240 r0 *1 110.88,115.92
X$240 540 33 317 541 188 gf180mcu_fd_sc_mcu9t5v0__xnor2_2
* cell instance $244 m0 *1 107.52,136.08
X$244 541 360 540 366 317 33 gf180mcu_fd_sc_mcu9t5v0__aoi21_2
* cell instance $246 m0 *1 111.44,206.64
X$246 541 524 33 540 34 513 gf180mcu_fd_sc_mcu9t5v0__nand3_2
* cell instance $249 m0 *1 103.6,196.56
X$249 540 360 541 500 504 33 gf180mcu_fd_sc_mcu9t5v0__oai21_2
* cell instance $261 r0 *1 125.44,206.64
X$261 541 34 351 526 540 gf180mcu_fd_sc_mcu9t5v0__dffq_4
* cell instance $264 m0 *1 82.88,25.2
X$264 47 541 540 34 57 44 gf180mcu_fd_sc_mcu9t5v0__addh_1
* cell instance $267 m0 *1 91.28,206.64
X$267 540 34 511 541 512 gf180mcu_fd_sc_mcu9t5v0__and2_2
* cell instance $270 r0 *1 123.2,196.56
X$270 541 540 34 347 gf180mcu_fd_sc_mcu9t5v0__inv_3
* cell instance $274 m0 *1 122.64,115.92
X$274 540 34 319 541 180 gf180mcu_fd_sc_mcu9t5v0__xnor2_2
* cell instance $285 m0 *1 202.16,105.84
X$285 280 541 540 35 257 242 gf180mcu_fd_sc_mcu9t5v0__addh_1
* cell instance $287 r0 *1 229.6,95.76
X$287 267 541 540 35 237 224 gf180mcu_fd_sc_mcu9t5v0__addh_1
* cell instance $289 r0 *1 150.64,15.12
X$289 541 540 35 46 gf180mcu_fd_sc_mcu9t5v0__clkinv_2
* cell instance $293 m0 *1 240.8,65.52
X$293 541 540 147 35 gf180mcu_fd_sc_mcu9t5v0__clkbuf_3
* cell instance $296 r0 *1 139.44,35.28
X$296 541 89 61 51 35 540 gf180mcu_fd_sc_mcu9t5v0__addh_2
* cell instance $306 m0 *1 151.76,196.56
X$306 505 541 540 53 36 546 gf180mcu_fd_sc_mcu9t5v0__addh_1
* cell instance $310 m0 *1 163.52,115.92
X$310 36 541 320 540 194 gf180mcu_fd_sc_mcu9t5v0__xor2_2
* cell instance $312 r0 *1 157.92,126
X$312 541 36 540 348 356 195 gf180mcu_fd_sc_mcu9t5v0__aoi21_2
* cell instance $314 m0 *1 179.76,25.2
X$314 38 541 540 36 68 59 gf180mcu_fd_sc_mcu9t5v0__addh_1
* cell instance $318 m0 *1 165.2,216.72
X$318 541 36 351 528 540 gf180mcu_fd_sc_mcu9t5v0__dffq_4
* cell instance $320 m0 *1 166.32,196.56
X$320 541 540 36 362 gf180mcu_fd_sc_mcu9t5v0__clkinv_2
* cell instance $324 r0 *1 173.6,65.52
X$324 541 540 37 159 169 gf180mcu_fd_sc_mcu9t5v0__nor2_2
* cell instance $335 r0 *1 207.2,85.68
X$335 210 541 540 53 39 553 gf180mcu_fd_sc_mcu9t5v0__addh_1
* cell instance $338 r0 *1 202.72,55.44
X$338 541 63 131 39 134 120 540 gf180mcu_fd_sc_mcu9t5v0__addf_2
* cell instance $340 r0 *1 241.36,45.36
X$340 541 540 124 39 gf180mcu_fd_sc_mcu9t5v0__clkbuf_4
* cell instance $345 r0 *1 235.2,85.68
X$345 227 541 540 39 155 213 gf180mcu_fd_sc_mcu9t5v0__addh_1
* cell instance $348 m0 *1 207.2,25.2
X$348 541 540 39 54 gf180mcu_fd_sc_mcu9t5v0__clkinv_2
* cell instance $350 m0 *1 188.72,45.36
X$350 541 105 79 63 39 540 gf180mcu_fd_sc_mcu9t5v0__addh_2
* cell instance $385 m0 *1 72.8,35.28
X$385 72 541 540 48 56 547 gf180mcu_fd_sc_mcu9t5v0__addh_1
* cell instance $387 m0 *1 91.84,35.28
X$387 541 540 48 149 gf180mcu_fd_sc_mcu9t5v0__inv_2
* cell instance $389 r0 *1 131.6,35.28
X$389 540 49 541 80 108 61 gf180mcu_fd_sc_mcu9t5v0__oai21_2
* cell instance $391 m0 *1 130.48,35.28
X$391 540 49 541 60 70 61 gf180mcu_fd_sc_mcu9t5v0__oai21_2
* cell instance $393 r0 *1 132.16,25.2
X$393 541 540 50 49 gf180mcu_fd_sc_mcu9t5v0__clkinv_2
* cell instance $397 m0 *1 141.68,35.28
X$397 541 50 540 71 62 90 gf180mcu_fd_sc_mcu9t5v0__aoi21_2
* cell instance $402 m0 *1 145.6,85.68
X$402 204 541 540 51 257 183 gf180mcu_fd_sc_mcu9t5v0__addh_1
* cell instance $404 r0 *1 145.04,75.6
X$404 153 541 540 51 237 181 gf180mcu_fd_sc_mcu9t5v0__addh_1
* cell instance $413 m0 *1 201.6,95.76
X$413 222 541 540 52 221 223 gf180mcu_fd_sc_mcu9t5v0__addh_1
* cell instance $416 m0 *1 224.56,95.76
X$416 229 541 540 52 194 225 gf180mcu_fd_sc_mcu9t5v0__addh_1
* cell instance $419 r0 *1 182,25.2
X$419 541 540 52 68 gf180mcu_fd_sc_mcu9t5v0__clkinv_2
* cell instance $422 r0 *1 244.16,55.44
X$422 541 540 132 52 gf180mcu_fd_sc_mcu9t5v0__clkbuf_3
* cell instance $427 m0 *1 164.08,45.36
X$427 541 109 106 69 52 540 gf180mcu_fd_sc_mcu9t5v0__addh_2
* cell instance $438 r0 *1 189.84,196.56
X$438 541 53 351 510 540 gf180mcu_fd_sc_mcu9t5v0__dffq_4
* cell instance $444 r0 *1 203.28,25.2
X$444 541 55 64 53 54 540 gf180mcu_fd_sc_mcu9t5v0__addh_2
* cell instance $447 m0 *1 188.72,75.6
X$447 174 541 540 53 63 169 gf180mcu_fd_sc_mcu9t5v0__addh_1
* cell instance $450 r0 *1 204.96,156.24
X$450 541 540 53 410 gf180mcu_fd_sc_mcu9t5v0__clkinv_2
* cell instance $452 m0 *1 202.16,176.4
X$452 470 541 540 131 53 439 gf180mcu_fd_sc_mcu9t5v0__addh_1
* cell instance $454 r0 *1 183.12,146.16
X$454 408 541 540 53 126 555 gf180mcu_fd_sc_mcu9t5v0__addh_1
* cell instance $456 m0 *1 165.2,136.08
X$456 541 356 221 53 362 540 gf180mcu_fd_sc_mcu9t5v0__addh_2
* cell instance $458 r0 *1 179.76,196.56
X$458 541 540 503 501 508 53 gf180mcu_fd_sc_mcu9t5v0__mux2_2
* cell instance $461 m0 *1 173.04,196.56
X$461 541 320 501 195 53 540 gf180mcu_fd_sc_mcu9t5v0__addh_2
* cell instance $468 r0 *1 193.76,25.2
X$468 540 59 541 66 58 55 gf180mcu_fd_sc_mcu9t5v0__oai21_2
* cell instance $476 m0 *1 53.76,95.76
X$476 218 541 540 56 188 228 gf180mcu_fd_sc_mcu9t5v0__addh_1
* cell instance $479 r0 *1 72.24,65.52
X$479 541 95 149 56 138 540 gf180mcu_fd_sc_mcu9t5v0__addh_4
* cell instance $481 r0 *1 61.6,105.84
X$481 313 541 540 56 187 316 gf180mcu_fd_sc_mcu9t5v0__addh_1
* cell instance $483 r0 *1 73.36,25.2
X$483 541 540 56 67 gf180mcu_fd_sc_mcu9t5v0__clkinv_2
* cell instance $487 m0 *1 30.24,115.92
X$487 541 540 293 56 gf180mcu_fd_sc_mcu9t5v0__clkbuf_3
* cell instance $499 m0 *1 138.32,35.28
X$499 541 540 62 60 gf180mcu_fd_sc_mcu9t5v0__clkinv_2
* cell instance $506 r0 *1 149.52,45.36
X$506 540 61 111 541 116 gf180mcu_fd_sc_mcu9t5v0__xnor2_2
* cell instance $508 m0 *1 144.48,45.36
X$508 541 540 61 90 gf180mcu_fd_sc_mcu9t5v0__clkinv_2
* cell instance $510 r0 *1 134.96,45.36
X$510 106 541 98 61 540 107 gf180mcu_fd_sc_mcu9t5v0__or3_2
* cell instance $518 r0 *1 160.72,35.28
X$518 541 62 540 80 78 77 gf180mcu_fd_sc_mcu9t5v0__aoi21_2
* cell instance $520 r0 *1 153.44,35.28
X$520 541 62 540 75 76 77 gf180mcu_fd_sc_mcu9t5v0__aoi21_2
* cell instance $532 r0 *1 193.2,65.52
X$532 541 157 144 63 155 540 gf180mcu_fd_sc_mcu9t5v0__addh_2
* cell instance $540 m0 *1 213.92,35.28
X$540 540 64 65 541 66 gf180mcu_fd_sc_mcu9t5v0__and2_2
* cell instance $542 m0 *1 218.96,95.76
X$542 541 540 268 64 212 gf180mcu_fd_sc_mcu9t5v0__nor2_2
* cell instance $544 r0 *1 216.72,85.68
X$544 541 540 230 64 215 gf180mcu_fd_sc_mcu9t5v0__nor2_2
* cell instance $549 m0 *1 217.28,45.36
X$549 541 540 101 65 gf180mcu_fd_sc_mcu9t5v0__clkinv_2
* cell instance $563 m0 *1 170.24,75.6
X$563 168 541 540 69 221 170 gf180mcu_fd_sc_mcu9t5v0__addh_1
* cell instance $566 m0 *1 159.04,75.6
X$566 182 541 540 69 194 176 gf180mcu_fd_sc_mcu9t5v0__addh_1
* cell instance $572 r0 *1 101.92,35.28
X$572 541 82 76 88 74 81 70 540 gf180mcu_fd_sc_mcu9t5v0__aoi221_4
* cell instance $579 m0 *1 129.92,45.36
X$579 540 107 541 104 71 97 98 gf180mcu_fd_sc_mcu9t5v0__oai22_2
* cell instance $586 r0 *1 66.64,35.28
X$586 541 540 72 84 gf180mcu_fd_sc_mcu9t5v0__clkinv_2
* cell instance $591 m0 *1 67.2,45.36
X$591 540 83 541 94 73 102 85 gf180mcu_fd_sc_mcu9t5v0__oai22_2
* cell instance $596 r0 *1 126,35.28
X$596 541 540 107 74 gf180mcu_fd_sc_mcu9t5v0__clkinv_4
* cell instance $599 m0 *1 151.2,45.36
X$599 540 90 75 541 100 gf180mcu_fd_sc_mcu9t5v0__xnor2_2
* cell instance $605 r0 *1 196.56,35.28
X$605 541 92 76 112 79 540 gf180mcu_fd_sc_mcu9t5v0__oai21_4
* cell instance $612 m0 *1 160.72,45.36
X$612 541 540 106 77 gf180mcu_fd_sc_mcu9t5v0__clkinv_2
* cell instance $621 r0 *1 168,45.36
X$621 540 106 78 541 121 gf180mcu_fd_sc_mcu9t5v0__xnor2_2
* cell instance $623 r0 *1 193.2,35.28
X$623 541 540 79 91 gf180mcu_fd_sc_mcu9t5v0__clkinv_2
* cell instance $636 m0 *1 88.48,45.36
X$636 541 96 103 97 102 82 540 gf180mcu_fd_sc_mcu9t5v0__aoi211_4
* cell instance $642 m0 *1 67.2,55.44
X$642 541 540 125 85 83 gf180mcu_fd_sc_mcu9t5v0__nand2_2
* cell instance $645 m0 *1 68.32,85.68
X$645 540 83 191 541 192 gf180mcu_fd_sc_mcu9t5v0__xnor2_2
* cell instance $647 m0 *1 69.44,126
X$647 541 540 311 83 gf180mcu_fd_sc_mcu9t5v0__clkinv_3
* cell instance $649 r0 *1 66.08,146.16
X$649 367 541 540 448 83 384 gf180mcu_fd_sc_mcu9t5v0__addh_1
* cell instance $652 r0 *1 66.08,45.36
X$652 541 129 540 94 84 95 gf180mcu_fd_sc_mcu9t5v0__aoi21_2
* cell instance $655 r0 *1 76.16,45.36
X$655 540 84 541 115 140 95 gf180mcu_fd_sc_mcu9t5v0__oai21_2
* cell instance $660 m0 *1 82.88,45.36
X$660 541 540 103 95 85 gf180mcu_fd_sc_mcu9t5v0__nor2_2
* cell instance $669 m0 *1 77.28,45.36
X$669 541 540 95 86 gf180mcu_fd_sc_mcu9t5v0__clkinv_2
* cell instance $672 r0 *1 120.96,65.52
X$672 175 541 540 87 180 152 gf180mcu_fd_sc_mcu9t5v0__addh_1
* cell instance $675 m0 *1 104.16,75.6
X$675 541 160 162 87 161 540 gf180mcu_fd_sc_mcu9t5v0__addh_2
* cell instance $684 r0 *1 109.2,45.36
X$684 540 88 110 541 118 gf180mcu_fd_sc_mcu9t5v0__xnor2_2
* cell instance $687 m0 *1 113.12,45.36
X$687 541 540 98 88 gf180mcu_fd_sc_mcu9t5v0__inv_2
* cell instance $689 m0 *1 140,45.36
X$689 541 540 89 99 gf180mcu_fd_sc_mcu9t5v0__clkinv_2
* cell instance $696 m0 *1 142.24,55.44
X$696 540 99 541 111 127 90 gf180mcu_fd_sc_mcu9t5v0__oai21_2
* cell instance $700 r0 *1 141.68,45.36
X$700 540 99 541 119 110 90 gf180mcu_fd_sc_mcu9t5v0__oai21_2
* cell instance $704 m0 *1 202.16,45.36
X$704 541 93 540 104 113 91 gf180mcu_fd_sc_mcu9t5v0__aoi21_2
* cell instance $706 r0 *1 196,45.36
X$706 540 122 541 123 114 91 gf180mcu_fd_sc_mcu9t5v0__oai21_2
* cell instance $711 m0 *1 209.44,45.36
X$711 541 540 93 92 gf180mcu_fd_sc_mcu9t5v0__clkinv_2
* cell instance $730 m0 *1 68.88,65.52
X$730 541 138 540 206 135 95 gf180mcu_fd_sc_mcu9t5v0__aoi21_2
* cell instance $735 m0 *1 64.4,75.6
X$735 540 95 133 541 172 gf180mcu_fd_sc_mcu9t5v0__xnor2_2
* cell instance $737 r0 *1 59.36,65.52
X$737 540 541 95 125 138 139 191 136 gf180mcu_fd_sc_mcu9t5v0__oai32_2
* cell instance $740 m0 *1 94.08,65.52
X$740 540 95 117 541 148 gf180mcu_fd_sc_mcu9t5v0__xnor2_2
* cell instance $751 m0 *1 100.8,105.84
X$751 274 540 96 278 541 306 gf180mcu_fd_sc_mcu9t5v0__and3_2
* cell instance $753 r0 *1 97.44,146.16
X$753 541 540 96 402 gf180mcu_fd_sc_mcu9t5v0__clkinv_2
* cell instance $756 r0 *1 95.2,105.84
X$756 541 96 278 540 295 gf180mcu_fd_sc_mcu9t5v0__or2_2
* cell instance $758 m0 *1 127.68,166.32
X$758 541 474 368 540 96 438 gf180mcu_fd_sc_mcu9t5v0__nand3_2
* cell instance $760 r0 *1 123.76,166.32
X$760 540 419 541 209 438 437 96 gf180mcu_fd_sc_mcu9t5v0__oai22_2
* cell instance $773 r0 *1 123.2,55.44
X$773 540 98 108 541 235 gf180mcu_fd_sc_mcu9t5v0__xnor2_2
* cell instance $775 m0 *1 114.24,55.44
X$775 540 98 110 541 130 gf180mcu_fd_sc_mcu9t5v0__and2_2
* cell instance $779 m0 *1 127.12,55.44
X$779 540 98 127 541 136 gf180mcu_fd_sc_mcu9t5v0__and2_2
* cell instance $790 r0 *1 145.04,95.76
X$790 254 541 540 100 237 238 gf180mcu_fd_sc_mcu9t5v0__addh_1
* cell instance $793 r0 *1 140.56,136.08
X$793 381 541 540 257 100 380 gf180mcu_fd_sc_mcu9t5v0__addh_1
* cell instance $795 m0 *1 155.68,136.08
X$795 376 541 540 349 100 361 gf180mcu_fd_sc_mcu9t5v0__addh_1
* cell instance $801 r0 *1 224.56,55.44
X$801 101 541 540 154 145 557 gf180mcu_fd_sc_mcu9t5v0__addh_1
* cell instance $817 r0 *1 192.64,45.36
X$817 541 540 105 122 gf180mcu_fd_sc_mcu9t5v0__clkinv_2
* cell instance $823 r0 *1 169.12,55.44
X$823 106 541 120 540 137 gf180mcu_fd_sc_mcu9t5v0__xor2_2
* cell instance $832 r0 *1 160.72,45.36
X$832 541 109 540 111 114 106 gf180mcu_fd_sc_mcu9t5v0__aoi21_2
* cell instance $835 m0 *1 160.16,55.44
X$835 541 109 540 119 120 106 gf180mcu_fd_sc_mcu9t5v0__aoi21_2
* cell instance $871 r0 *1 204.4,45.36
X$871 541 540 113 112 gf180mcu_fd_sc_mcu9t5v0__clkinv_2
* cell instance $880 m0 *1 221.76,65.52
X$880 541 113 544 146 145 540 gf180mcu_fd_sc_mcu9t5v0__addh_2
* cell instance $894 m0 *1 175.84,115.92
X$894 541 326 298 116 237 540 gf180mcu_fd_sc_mcu9t5v0__addh_2
* cell instance $896 m0 *1 153.44,176.4
X$896 488 541 540 349 116 467 gf180mcu_fd_sc_mcu9t5v0__addh_1
* cell instance $898 r0 *1 180.88,176.4
X$898 486 541 540 257 116 497 gf180mcu_fd_sc_mcu9t5v0__addh_1
* cell instance $910 r0 *1 89.6,85.68
X$910 207 541 540 118 180 208 gf180mcu_fd_sc_mcu9t5v0__addh_1
* cell instance $913 m0 *1 100.8,166.32
X$913 444 541 540 347 118 451 gf180mcu_fd_sc_mcu9t5v0__addh_1
* cell instance $915 r0 *1 62.72,166.32
X$915 433 541 540 161 118 457 gf180mcu_fd_sc_mcu9t5v0__addh_1
* cell instance $928 r0 *1 169.68,95.76
X$928 249 541 540 121 194 260 gf180mcu_fd_sc_mcu9t5v0__addh_1
* cell instance $930 m0 *1 171.36,146.16
X$930 406 541 540 362 121 407 gf180mcu_fd_sc_mcu9t5v0__addh_1
* cell instance $933 m0 *1 170.8,156.24
X$933 427 541 540 221 121 422 gf180mcu_fd_sc_mcu9t5v0__addh_1
* cell instance $940 m0 *1 206.64,55.44
X$940 541 540 123 134 gf180mcu_fd_sc_mcu9t5v0__clkinv_2
* cell instance $943 r0 *1 204.4,75.6
X$943 541 123 211 146 196 540 gf180mcu_fd_sc_mcu9t5v0__addh_2
* cell instance $952 r0 *1 18.48,115.92
X$952 541 540 310 125 gf180mcu_fd_sc_mcu9t5v0__clkbuf_3
* cell instance $955 m0 *1 52.64,126
X$955 336 541 540 419 125 312 gf180mcu_fd_sc_mcu9t5v0__addh_1
* cell instance $959 r0 *1 63.84,55.44
X$959 541 540 125 129 gf180mcu_fd_sc_mcu9t5v0__clkinv_2
* cell instance $961 r0 *1 36.96,95.76
X$961 263 541 540 125 217 233 gf180mcu_fd_sc_mcu9t5v0__addh_1
* cell instance $963 m0 *1 62.16,65.52
X$963 125 541 138 128 540 139 gf180mcu_fd_sc_mcu9t5v0__or3_2
* cell instance $969 m0 *1 182.56,105.84
X$969 286 541 540 126 155 285 gf180mcu_fd_sc_mcu9t5v0__addh_1
* cell instance $974 m0 *1 201.6,146.16
X$974 541 395 391 410 126 540 gf180mcu_fd_sc_mcu9t5v0__addh_2
* cell instance $982 r0 *1 67.2,55.44
X$982 541 540 133 128 136 gf180mcu_fd_sc_mcu9t5v0__nor2_2
* cell instance $988 r0 *1 82.32,55.44
X$988 541 128 130 540 135 gf180mcu_fd_sc_mcu9t5v0__or2_2
* cell instance $996 m0 *1 77.28,65.52
X$996 540 129 140 541 141 gf180mcu_fd_sc_mcu9t5v0__xnor2_2
* cell instance $1001 r0 *1 70,136.08
X$1001 369 541 540 360 129 370 gf180mcu_fd_sc_mcu9t5v0__addh_1
* cell instance $1003 r0 *1 68.88,85.68
X$1003 540 129 206 541 219 gf180mcu_fd_sc_mcu9t5v0__xnor2_2
* cell instance $1009 r0 *1 197.68,166.32
X$1009 458 541 540 410 131 455 gf180mcu_fd_sc_mcu9t5v0__addh_1
* cell instance $1012 r0 *1 199.36,126
X$1012 331 541 540 131 155 332 gf180mcu_fd_sc_mcu9t5v0__addh_1
* cell instance $1034 m0 *1 187.6,115.92
X$1034 321 541 540 137 194 322 gf180mcu_fd_sc_mcu9t5v0__addh_1
* cell instance $1036 r0 *1 188.16,166.32
X$1036 453 541 540 221 137 442 gf180mcu_fd_sc_mcu9t5v0__addh_1
* cell instance $1039 m0 *1 170.24,176.4
X$1039 460 541 540 362 137 468 gf180mcu_fd_sc_mcu9t5v0__addh_1
* cell instance $1059 m0 *1 128.8,105.84
X$1059 296 541 540 141 217 297 gf180mcu_fd_sc_mcu9t5v0__addh_1
* cell instance $1061 m0 *1 87.92,146.16
X$1061 385 541 540 355 141 371 gf180mcu_fd_sc_mcu9t5v0__addh_1
* cell instance $1063 m0 *1 131.6,156.24
X$1063 541 418 420 419 141 540 gf180mcu_fd_sc_mcu9t5v0__addh_2
* cell instance $1067 m0 *1 106.96,156.24
X$1067 540 426 541 415 142 416 417 gf180mcu_fd_sc_mcu9t5v0__oai22_2
* cell instance $1069 r0 *1 140,65.52
X$1069 540 152 541 167 143 153 gf180mcu_fd_sc_mcu9t5v0__oai21_2
* cell instance $1071 m0 *1 140,75.6
X$1071 540 173 165 166 177 143 541 gf180mcu_fd_sc_mcu9t5v0__oai211_2
* cell instance $1075 m0 *1 201.6,75.6
X$1075 541 157 540 173 144 171 gf180mcu_fd_sc_mcu9t5v0__aoi21_2
* cell instance $1077 r0 *1 133.28,65.52
X$1077 541 540 150 151 144 gf180mcu_fd_sc_mcu9t5v0__nand2_2
* cell instance $1083 r0 *1 227.92,75.6
X$1083 541 540 145 196 gf180mcu_fd_sc_mcu9t5v0__clkinv_2
* cell instance $1086 r0 *1 242.48,75.6
X$1086 197 540 541 145 gf180mcu_fd_sc_mcu9t5v0__dlyb_2
* cell instance $1096 r0 *1 212.8,65.52
X$1096 156 541 540 154 146 556 gf180mcu_fd_sc_mcu9t5v0__addh_1
* cell instance $1100 r0 *1 231.28,75.6
X$1100 199 540 541 146 gf180mcu_fd_sc_mcu9t5v0__buf_2
* cell instance $1102 r0 *1 188.72,75.6
X$1102 185 541 540 195 146 558 gf180mcu_fd_sc_mcu9t5v0__addh_1
* cell instance $1105 r0 *1 188.72,65.52
X$1105 541 540 146 158 gf180mcu_fd_sc_mcu9t5v0__clkinv_2
* cell instance $1114 r0 *1 120.96,105.84
X$1114 307 541 540 148 188 256 gf180mcu_fd_sc_mcu9t5v0__addh_1
* cell instance $1117 m0 *1 125.44,146.16
X$1117 403 541 540 187 148 390 gf180mcu_fd_sc_mcu9t5v0__addh_1
* cell instance $1119 m0 *1 103.04,146.16
X$1119 372 541 540 414 148 386 gf180mcu_fd_sc_mcu9t5v0__addh_1
* cell instance $1126 m0 *1 115.92,75.6
X$1126 163 541 540 149 188 150 gf180mcu_fd_sc_mcu9t5v0__addh_1
* cell instance $1131 r0 *1 109.2,75.6
X$1131 541 202 178 149 187 540 gf180mcu_fd_sc_mcu9t5v0__addh_2
* cell instance $1135 r0 *1 131.04,75.6
X$1135 540 163 279 150 189 165 541 gf180mcu_fd_sc_mcu9t5v0__oai211_2
* cell instance $1141 m0 *1 133.28,75.6
X$1141 164 541 166 151 540 189 gf180mcu_fd_sc_mcu9t5v0__or3_2
* cell instance $1149 m0 *1 149.52,75.6
X$1149 541 166 181 540 152 176 gf180mcu_fd_sc_mcu9t5v0__nand3_2
* cell instance $1161 r0 *1 225.68,85.68
X$1161 200 541 540 154 196 212 gf180mcu_fd_sc_mcu9t5v0__addh_1
* cell instance $1164 r0 *1 212.8,115.92
X$1164 541 540 195 154 gf180mcu_fd_sc_mcu9t5v0__clkinv_4
* cell instance $1167 r0 *1 208.88,126
X$1167 541 350 339 154 211 540 gf180mcu_fd_sc_mcu9t5v0__addh_2
* cell instance $1170 r0 *1 179.2,65.52
X$1170 159 541 540 154 158 164 gf180mcu_fd_sc_mcu9t5v0__addh_1
* cell instance $1174 r0 *1 163.52,105.84
X$1174 541 288 287 154 211 540 gf180mcu_fd_sc_mcu9t5v0__addh_2
* cell instance $1187 r0 *1 184.24,186.48
X$1187 541 540 501 155 gf180mcu_fd_sc_mcu9t5v0__inv_2
* cell instance $1190 r0 *1 207.76,65.52
X$1190 541 540 156 171 gf180mcu_fd_sc_mcu9t5v0__clkinv_2
* cell instance $1207 m0 *1 103.6,85.68
X$1207 541 201 178 160 202 204 540 gf180mcu_fd_sc_mcu9t5v0__aoi211_4
* cell instance $1210 r0 *1 109.76,85.68
X$1210 541 160 162 540 179 gf180mcu_fd_sc_mcu9t5v0__or2_2
* cell instance $1224 m0 *1 127.68,136.08
X$1224 374 541 540 161 235 375 gf180mcu_fd_sc_mcu9t5v0__addh_1
* cell instance $1228 m0 *1 125.44,186.48
X$1228 540 347 493 541 161 gf180mcu_fd_sc_mcu9t5v0__xnor2_2
* cell instance $1235 m0 *1 124.32,85.68
X$1235 164 178 162 190 541 540 193 gf180mcu_fd_sc_mcu9t5v0__and4_2
* cell instance $1242 m0 *1 125.44,75.6
X$1242 541 540 177 175 163 gf180mcu_fd_sc_mcu9t5v0__nor2_2
* cell instance $1264 r0 *1 154.56,75.6
X$1264 540 181 182 541 167 gf180mcu_fd_sc_mcu9t5v0__and2_2
* cell instance $1268 r0 *1 169.12,75.6
X$1268 540 183 541 216 186 168 184 gf180mcu_fd_sc_mcu9t5v0__oai31_2
* cell instance $1274 r0 *1 162.96,75.6
X$1274 183 540 169 170 541 190 gf180mcu_fd_sc_mcu9t5v0__and3_2
* cell instance $1278 r0 *1 179.2,75.6
X$1278 169 540 170 203 541 184 gf180mcu_fd_sc_mcu9t5v0__and3_2
* cell instance $1285 m0 *1 179.76,75.6
X$1285 540 170 174 541 186 gf180mcu_fd_sc_mcu9t5v0__and2_2
* cell instance $1296 m0 *1 55.44,176.4
X$1296 462 541 540 187 172 447 gf180mcu_fd_sc_mcu9t5v0__addh_1
* cell instance $1298 m0 *1 92.4,176.4
X$1298 449 541 540 414 172 450 gf180mcu_fd_sc_mcu9t5v0__addh_1
* cell instance $1300 m0 *1 80.64,95.76
X$1300 253 541 540 172 188 220 gf180mcu_fd_sc_mcu9t5v0__addh_1
* cell instance $1330 r0 *1 120.96,75.6
X$1330 541 202 540 205 179 178 gf180mcu_fd_sc_mcu9t5v0__aoi21_2
* cell instance $1341 r0 *1 127.12,95.76
X$1341 269 541 540 235 180 236 gf180mcu_fd_sc_mcu9t5v0__addh_1
* cell instance $1360 r0 *1 185.36,75.6
X$1360 541 540 185 203 gf180mcu_fd_sc_mcu9t5v0__clkinv_2
* cell instance $1376 r0 *1 112.56,186.48
X$1376 540 414 500 541 187 gf180mcu_fd_sc_mcu9t5v0__xnor2_2
* cell instance $1404 m0 *1 73.92,176.4
X$1404 483 541 540 368 192 463 gf180mcu_fd_sc_mcu9t5v0__addh_1
* cell instance $1407 r0 *1 87.36,176.4
X$1407 485 541 540 413 192 465 gf180mcu_fd_sc_mcu9t5v0__addh_1
* cell instance $1409 m0 *1 80.64,105.84
X$1409 284 541 540 192 274 276 gf180mcu_fd_sc_mcu9t5v0__addh_1
* cell instance $1412 r0 *1 117.6,85.68
X$1412 541 209 216 201 193 205 540 gf180mcu_fd_sc_mcu9t5v0__aoi211_4
* cell instance $1436 r0 *1 193.76,206.64
X$1436 541 195 351 519 540 gf180mcu_fd_sc_mcu9t5v0__dffq_4
* cell instance $1439 r0 *1 143.92,196.56
X$1439 508 540 195 505 541 507 gf180mcu_fd_sc_mcu9t5v0__and3_2
* cell instance $1442 m0 *1 219.52,85.68
X$1442 215 541 540 195 196 550 gf180mcu_fd_sc_mcu9t5v0__addh_1
* cell instance $1447 m0 *1 203.84,156.24
X$1447 409 541 540 195 211 549 gf180mcu_fd_sc_mcu9t5v0__addh_1
* cell instance $1450 r0 *1 213.36,156.24
X$1450 440 541 540 195 211 551 gf180mcu_fd_sc_mcu9t5v0__addh_1
* cell instance $1452 m0 *1 182,206.64
X$1452 508 541 195 540 518 gf180mcu_fd_sc_mcu9t5v0__xor2_2
* cell instance $1467 r0 *1 244.72,85.68
X$1467 540 213 198 541 214 gf180mcu_fd_sc_mcu9t5v0__and2_2
* cell instance $1469 m0 *1 243.6,85.68
X$1469 541 540 200 198 gf180mcu_fd_sc_mcu9t5v0__clkinv_2
* cell instance $1501 m0 *1 90.16,95.76
X$1501 540 207 220 541 231 gf180mcu_fd_sc_mcu9t5v0__and2_2
* cell instance $1505 r0 *1 89.6,95.76
X$1505 276 234 220 208 541 540 294 gf180mcu_fd_sc_mcu9t5v0__and4_2
* cell instance $1513 m0 *1 211.12,95.76
X$1513 540 223 541 230 232 210 gf180mcu_fd_sc_mcu9t5v0__oai21_2
* cell instance $1530 m0 *1 234.64,95.76
X$1530 212 224 225 213 541 540 226 gf180mcu_fd_sc_mcu9t5v0__and4_2
* cell instance $1539 m0 *1 241.92,95.76
X$1539 540 225 541 214 244 227 gf180mcu_fd_sc_mcu9t5v0__oai21_2
* cell instance $1553 r0 *1 97.44,95.76
X$1553 541 540 277 217 gf180mcu_fd_sc_mcu9t5v0__clkinv_2
* cell instance $1555 m0 *1 71.12,95.76
X$1555 250 541 540 219 217 234 gf180mcu_fd_sc_mcu9t5v0__addh_1
* cell instance $1558 r0 *1 47.04,95.76
X$1558 540 233 541 247 265 218 gf180mcu_fd_sc_mcu9t5v0__oai21_2
* cell instance $1562 r0 *1 53.2,166.32
X$1562 432 541 540 419 219 446 gf180mcu_fd_sc_mcu9t5v0__addh_1
* cell instance $1565 r0 *1 82.32,166.32
X$1565 435 541 540 355 219 436 gf180mcu_fd_sc_mcu9t5v0__addh_1
* cell instance $1581 r0 *1 200.48,95.76
X$1581 541 540 222 241 gf180mcu_fd_sc_mcu9t5v0__clkinv_2
* cell instance $1584 m0 *1 211.68,105.84
X$1584 242 223 270 268 541 540 299 gf180mcu_fd_sc_mcu9t5v0__and4_2
* cell instance $1590 m0 *1 235.76,105.84
X$1590 540 224 262 541 264 gf180mcu_fd_sc_mcu9t5v0__and2_2
* cell instance $1600 r0 *1 219.52,105.84
X$1600 541 275 540 282 301 226 353 261 gf180mcu_fd_sc_mcu9t5v0__aoi221_2
* cell instance $1610 m0 *1 56.56,105.84
X$1610 273 228 266 233 541 540 261 gf180mcu_fd_sc_mcu9t5v0__and4_2
* cell instance $1612 r0 *1 54.88,95.76
X$1612 540 228 248 541 247 gf180mcu_fd_sc_mcu9t5v0__and2_2
* cell instance $1618 r0 *1 239.12,95.76
X$1618 541 540 229 245 gf180mcu_fd_sc_mcu9t5v0__clkinv_2
* cell instance $1627 r0 *1 81.76,95.76
X$1627 540 234 541 231 252 253 gf180mcu_fd_sc_mcu9t5v0__oai21_2
* cell instance $1633 r0 *1 203.84,95.76
X$1633 541 540 241 246 232 gf180mcu_fd_sc_mcu9t5v0__nand2_2
* cell instance $1651 r0 *1 109.2,136.08
X$1651 382 541 540 347 235 373 gf180mcu_fd_sc_mcu9t5v0__addh_1
* cell instance $1656 r0 *1 138.88,95.76
X$1656 256 540 236 254 541 292 gf180mcu_fd_sc_mcu9t5v0__and3_2
* cell instance $1658 r0 *1 154.56,95.76
X$1658 238 540 256 236 541 239 gf180mcu_fd_sc_mcu9t5v0__and3_2
* cell instance $1670 r0 *1 143.92,126
X$1670 540 349 348 541 237 gf180mcu_fd_sc_mcu9t5v0__xnor2_2
* cell instance $1678 r0 *1 161.84,95.76
X$1678 540 239 541 240 259 249 gf180mcu_fd_sc_mcu9t5v0__oai21_2
* cell instance $1681 m0 *1 166.88,105.84
X$1681 541 258 285 540 260 239 gf180mcu_fd_sc_mcu9t5v0__nand3_2
* cell instance $1686 m0 *1 177.52,105.84
X$1686 540 260 286 541 240 gf180mcu_fd_sc_mcu9t5v0__and2_2
* cell instance $1692 r0 *1 208.88,95.76
X$1692 540 242 246 541 243 gf180mcu_fd_sc_mcu9t5v0__and2_2
* cell instance $1696 r0 *1 207.76,105.84
X$1696 540 270 541 243 281 280 gf180mcu_fd_sc_mcu9t5v0__oai21_2
* cell instance $1699 r0 *1 243.04,95.76
X$1699 541 540 245 262 244 gf180mcu_fd_sc_mcu9t5v0__nand2_2
* cell instance $1721 r0 *1 71.12,95.76
X$1721 541 540 250 251 gf180mcu_fd_sc_mcu9t5v0__clkinv_2
* cell instance $1725 r0 *1 74.48,95.76