* CDL Netlist generated by OpenROAD

*.BUSDELIMITER [

.SUBCKT barrel_shifter data_in[0] data_in[10] data_in[11]
+ data_in[12] data_in[13] data_in[14] data_in[15] data_in[16]
+ data_in[17] data_in[18] data_in[19] data_in[1] data_in[20]
+ data_in[21] data_in[22] data_in[23] data_in[24] data_in[25]
+ data_in[26] data_in[27] data_in[28] data_in[29] data_in[2]
+ data_in[30] data_in[31] data_in[3] data_in[4] data_in[5] data_in[6]
+ data_in[7] data_in[8] data_in[9] data_out[0] data_out[10]
+ data_out[11] data_out[12] data_out[13] data_out[14] data_out[15]
+ data_out[16] data_out[17] data_out[18] data_out[19] data_out[1]
+ data_out[20] data_out[21] data_out[22] data_out[23] data_out[24]
+ data_out[25] data_out[26] data_out[27] data_out[28] data_out[29]
+ data_out[2] data_out[30] data_out[31] data_out[3] data_out[4]
+ data_out[5] data_out[6] data_out[7] data_out[8] data_out[9]
+ rotate shift_amount[0] shift_amount[1] shift_amount[2] shift_amount[3]
+ shift_amount[4] shift_direction
X_0924_ net33 VSS VSS VDD VDD _0672_ sky130_fd_sc_hd__buf_6
X_0925_ _0672_ VSS VSS VDD VDD _0683_ sky130_fd_sc_hd__buf_6
X_0926_ _0683_ VSS VSS VDD VDD _0693_ sky130_fd_sc_hd__clkinv_2
X_0927_ _0693_ VSS VSS VDD VDD _0704_ sky130_fd_sc_hd__buf_6
X_0928_ _0704_ VSS VSS VDD VDD _0920_ sky130_fd_sc_hd__buf_4
X_0929_ net34 VSS VSS VDD VDD _0724_ sky130_fd_sc_hd__buf_4
X_0930_ _0724_ VSS VSS VDD VDD _0734_ sky130_fd_sc_hd__buf_6
X_0931_ _0734_ VSS VSS VDD VDD _0745_ sky130_fd_sc_hd__buf_4
X_0932_ _0745_ VSS VSS VDD VDD _0921_ sky130_fd_sc_hd__clkinv_2
X_0933_ _0672_ VSS VSS VDD VDD _0765_ sky130_fd_sc_hd__buf_6
X_0934_ _0765_ VSS VSS VDD VDD _0775_ sky130_fd_sc_hd__buf_6
X_0935_ _0775_ VSS VSS VDD VDD _0785_ sky130_fd_sc_hd__buf_6
X_0936_ _0785_ net1 VSS VSS VDD VDD _0796_ sky130_fd_sc_hd__nor2b_2
X_0937_ _0923_ VSS VSS VDD VDD _0806_ sky130_fd_sc_hd__buf_6
X_0938_ _0806_ VSS VSS VDD VDD _0816_ sky130_fd_sc_hd__buf_6
X_0939_ _0816_ VSS VSS VDD VDD _0826_ sky130_fd_sc_hd__buf_4
X_0940_ _0826_ VSS VSS VDD VDD _0837_ sky130_fd_sc_hd__buf_4
X_0941_ _0837_ VSS VSS VDD VDD _0847_ sky130_fd_sc_hd__buf_4
X_0942_ _0922_ VSS VSS VDD VDD _0858_ sky130_fd_sc_hd__buf_4
X_0943_ shift_amount[3] VSS VSS VDD VDD _0868_ sky130_fd_sc_hd__buf_4
X_0944_ _0868_ net35 net33 net34 VSS VSS VDD VDD _0879_ sky130_fd_sc_hd__nor4_4
X_0945_ _0672_ _0724_ VSS VSS VDD VDD _0889_ sky130_fd_sc_hd__nor2_2
X_0946_ net35 VSS VSS VDD VDD _0899_ sky130_fd_sc_hd__buf_6
X_0947_ _0899_ _0922_ VSS VSS VDD VDD _0910_ sky130_fd_sc_hd__nand2b_1
X_0948_ _0858_ _0899_ VSS VSS VDD VDD _0000_ sky130_fd_sc_hd__nand2b_1
X_0949_ _0889_ _0910_ _0000_ VSS VSS VDD VDD _0010_ sky130_fd_sc_hd__o21ai_1
X_0950_ _0868_ VSS VSS VDD VDD _0020_ sky130_fd_sc_hd__buf_6
X_0951_ _0858_ _0879_ _0010_ _0020_ VSS VSS VDD VDD _0030_
+ sky130_fd_sc_hd__a22oi_4
X_0952_ shift_amount[4] VSS VSS VDD VDD _0031_ sky130_fd_sc_hd__buf_6
X_0953_ _0031_ _0868_ _0899_ _0724_ VSS VSS VDD VDD _0032_
+ sky130_fd_sc_hd__or4_4
X_0954_ _0775_ _0032_ net32 VSS VSS VDD VDD _0033_ sky130_fd_sc_hd__o21a_2
X_0955_ _0031_ VSS VSS VDD VDD _0034_ sky130_fd_sc_hd__inv_4
X_0956_ _0868_ _0899_ _0858_ VSS VSS VDD VDD _0035_ sky130_fd_sc_hd__nor3b_4
X_0957_ _0034_ _0035_ VSS VSS VDD VDD _0036_ sky130_fd_sc_hd__xnor2_4
X_0958_ _0033_ _0036_ VSS VSS VDD VDD _0037_ sky130_fd_sc_hd__nand2_4
X_0959_ _0037_ VSS VSS VDD VDD _0038_ sky130_fd_sc_hd__buf_4
X_0960_ _0847_ _0030_ _0038_ VSS VSS VDD VDD _0039_ sky130_fd_sc_hd__nor3_1
X_0961_ shift_direction VSS VSS VDD VDD _0040_ sky130_fd_sc_hd__buf_4
X_0962_ _0040_ VSS VSS VDD VDD _0041_ sky130_fd_sc_hd__buf_2
X_0963_ _0041_ VSS VSS VDD VDD _0042_ sky130_fd_sc_hd__buf_2
X_0964_ _0031_ VSS VSS VDD VDD _0043_ sky130_fd_sc_hd__buf_2
X_0965_ _0043_ VSS VSS VDD VDD _0044_ sky130_fd_sc_hd__clkbuf_4
X_0966_ _0020_ VSS VSS VDD VDD _0045_ sky130_fd_sc_hd__buf_2
X_0967_ _0045_ VSS VSS VDD VDD _0046_ sky130_fd_sc_hd__clkbuf_4
X_0968_ net18 VSS VSS VDD VDD _0047_ sky130_fd_sc_hd__buf_2
X_0969_ net20 VSS VSS VDD VDD _0048_ sky130_fd_sc_hd__buf_2
X_0970_ _0047_ _0048_ _0724_ VSS VSS VDD VDD _0049_ sky130_fd_sc_hd__mux2_1
X_0971_ net17 VSS VSS VDD VDD _0050_ sky130_fd_sc_hd__buf_2
X_0972_ net19 VSS VSS VDD VDD _0051_ sky130_fd_sc_hd__buf_2
X_0973_ _0050_ _0051_ _0724_ VSS VSS VDD VDD _0052_ sky130_fd_sc_hd__mux2_1
X_0974_ _0693_ VSS VSS VDD VDD _0053_ sky130_fd_sc_hd__buf_6
X_0975_ _0049_ _0052_ _0053_ VSS VSS VDD VDD _0054_ sky130_fd_sc_hd__mux2i_4
X_0976_ net22 VSS VSS VDD VDD _0055_ sky130_fd_sc_hd__buf_2
X_0977_ data_in[31] VSS VSS VDD VDD _0056_ sky130_fd_sc_hd__buf_4
X_0978_ _0055_ _0056_ _0734_ VSS VSS VDD VDD _0057_ sky130_fd_sc_hd__mux2i_2
X_0979_ net21 VSS VSS VDD VDD _0058_ sky130_fd_sc_hd__buf_2
X_0980_ net24 VSS VSS VDD VDD _0059_ sky130_fd_sc_hd__clkbuf_4
X_0981_ _0724_ VSS VSS VDD VDD _0060_ sky130_fd_sc_hd__clkbuf_4
X_0982_ _0058_ _0059_ _0060_ VSS VSS VDD VDD _0061_ sky130_fd_sc_hd__mux2i_1
X_0983_ _0057_ _0061_ _0053_ VSS VSS VDD VDD _0062_ sky130_fd_sc_hd__mux2_4
X_0984_ _0899_ VSS VSS VDD VDD _0063_ sky130_fd_sc_hd__buf_4
X_0985_ _0063_ VSS VSS VDD VDD _0064_ sky130_fd_sc_hd__buf_4
X_0986_ _0054_ _0062_ _0064_ VSS VSS VDD VDD _0065_ sky130_fd_sc_hd__mux2i_4
X_0987_ _0020_ VSS VSS VDD VDD _0066_ sky130_fd_sc_hd__clkbuf_4
X_0988_ net13 net14 net15 net16 _0683_ _0734_ VSS VSS VDD
+ VDD _0067_ sky130_fd_sc_hd__mux4_4
X_0989_ net8 VSS VSS VDD VDD _0068_ sky130_fd_sc_hd__clkbuf_4
X_0990_ net9 VSS VSS VDD VDD _0069_ sky130_fd_sc_hd__buf_2
X_0991_ net10 VSS VSS VDD VDD _0070_ sky130_fd_sc_hd__buf_2
X_0992_ net11 VSS VSS VDD VDD _0071_ sky130_fd_sc_hd__buf_2
X_0993_ _0672_ VSS VSS VDD VDD _0072_ sky130_fd_sc_hd__buf_4
X_0994_ _0068_ _0069_ _0070_ _0071_ _0072_ _0745_ VSS VSS
+ VDD VDD _0073_ sky130_fd_sc_hd__mux4_4
X_0995_ _0063_ VSS VSS VDD VDD _0074_ sky130_fd_sc_hd__inv_1
X_0996_ _0074_ VSS VSS VDD VDD _0075_ sky130_fd_sc_hd__buf_6
X_0997_ _0067_ _0073_ _0075_ VSS VSS VDD VDD _0076_ sky130_fd_sc_hd__mux2i_4
X_0998_ _0066_ _0076_ VSS VSS VDD VDD _0077_ sky130_fd_sc_hd__nor2_1
X_0999_ _0046_ _0065_ _0077_ VSS VSS VDD VDD _0078_ sky130_fd_sc_hd__a21oi_1
X_1000_ net26 VSS VSS VDD VDD _0079_ sky130_fd_sc_hd__clkbuf_4
X_1001_ net27 VSS VSS VDD VDD _0080_ sky130_fd_sc_hd__clkbuf_4
X_1002_ net28 VSS VSS VDD VDD _0081_ sky130_fd_sc_hd__buf_2
X_1003_ net29 VSS VSS VDD VDD _0082_ sky130_fd_sc_hd__clkbuf_4
X_1004_ _0683_ VSS VSS VDD VDD _0083_ sky130_fd_sc_hd__buf_6
X_1005_ _0734_ VSS VSS VDD VDD _0084_ sky130_fd_sc_hd__clkbuf_4
X_1006_ _0079_ _0080_ _0081_ _0082_ _0083_ _0084_ VSS VSS
+ VDD VDD _0085_ sky130_fd_sc_hd__mux4_1
X_1007_ _0075_ _0085_ VSS VSS VDD VDD _0086_ sky130_fd_sc_hd__nor2_1
X_1008_ _0063_ VSS VSS VDD VDD _0087_ sky130_fd_sc_hd__buf_2
X_1009_ net23 VSS VSS VDD VDD _0088_ sky130_fd_sc_hd__clkbuf_4
X_1010_ net25 VSS VSS VDD VDD _0089_ sky130_fd_sc_hd__clkbuf_4
X_1011_ _0060_ VSS VSS VDD VDD _0090_ sky130_fd_sc_hd__clkbuf_4
X_1012_ net1 net12 _0088_ _0089_ _0775_ _0090_ VSS VSS VDD
+ VDD _0091_ sky130_fd_sc_hd__mux4_1
X_1013_ _0087_ _0091_ VSS VSS VDD VDD _0092_ sky130_fd_sc_hd__nor2_1
X_1014_ net5 VSS VSS VDD VDD _0093_ sky130_fd_sc_hd__buf_4
X_1015_ net6 VSS VSS VDD VDD _0094_ sky130_fd_sc_hd__buf_4
X_1016_ net7 VSS VSS VDD VDD _0095_ sky130_fd_sc_hd__clkbuf_4
X_1017_ _0672_ VSS VSS VDD VDD _0096_ sky130_fd_sc_hd__buf_4
X_1018_ _0724_ VSS VSS VDD VDD _0097_ sky130_fd_sc_hd__clkbuf_4
X_1019_ net4 _0093_ _0094_ _0095_ _0096_ _0097_ VSS VSS VDD
+ VDD _0098_ sky130_fd_sc_hd__mux4_2
X_1020_ net3 VSS VSS VDD VDD _0099_ sky130_fd_sc_hd__buf_2
X_1021_ net30 net31 net2 _0099_ _0096_ _0097_ VSS VSS VDD
+ VDD _0100_ sky130_fd_sc_hd__mux4_1
X_1022_ _0074_ VSS VSS VDD VDD _0101_ sky130_fd_sc_hd__buf_4
X_1023_ _0098_ _0100_ _0101_ VSS VSS VDD VDD _0102_ sky130_fd_sc_hd__mux2_1
X_1024_ _0066_ _0102_ VSS VSS VDD VDD _0103_ sky130_fd_sc_hd__nand2_1
X_1025_ _0045_ _0086_ _0092_ _0103_ _0034_ VSS VSS VDD VDD
+ _0104_ sky130_fd_sc_hd__o311a_1
X_1026_ _0044_ _0078_ _0104_ VSS VSS VDD VDD _0105_ sky130_fd_sc_hd__a21oi_1
X_1027_ _0796_ _0039_ _0042_ _0105_ VSS VSS VDD VDD _0106_
+ sky130_fd_sc_hd__a211oi_1
X_1028_ _0775_ _0032_ net32 VSS VSS VDD VDD _0107_ sky130_fd_sc_hd__o21ai_4
X_1029_ _0031_ _0035_ VSS VSS VDD VDD _0108_ sky130_fd_sc_hd__xnor2_4
X_1030_ _0107_ _0108_ VSS VSS VDD VDD _0109_ sky130_fd_sc_hd__nor2_1
X_1031_ _0109_ VSS VSS VDD VDD _0110_ sky130_fd_sc_hd__buf_6
X_1032_ _0110_ VSS VSS VDD VDD _0111_ sky130_fd_sc_hd__buf_4
X_1033_ _0899_ _0858_ VSS VSS VDD VDD _0112_ sky130_fd_sc_hd__xnor2_4
X_1034_ _0112_ VSS VSS VDD VDD _0113_ sky130_fd_sc_hd__buf_4
X_1035_ _0113_ VSS VSS VDD VDD _0114_ sky130_fd_sc_hd__clkbuf_4
X_1036_ net31 VSS VSS VDD VDD _0115_ sky130_fd_sc_hd__clkbuf_4
X_1037_ _0115_ _0099_ _0826_ VSS VSS VDD VDD _0116_ sky130_fd_sc_hd__mux2i_2
X_1038_ net30 VSS VSS VDD VDD _0117_ sky130_fd_sc_hd__clkbuf_4
X_1039_ net2 VSS VSS VDD VDD _0118_ sky130_fd_sc_hd__clkbuf_4
X_1040_ _0118_ _0837_ VSS VSS VDD VDD _0119_ sky130_fd_sc_hd__nand2b_1
X_1041_ _0053_ VSS VSS VDD VDD _0120_ sky130_fd_sc_hd__clkbuf_4
X_1042_ _0117_ _0847_ _0119_ _0120_ VSS VSS VDD VDD _0121_
+ sky130_fd_sc_hd__o211ai_2
X_1043_ _0920_ _0116_ _0121_ VSS VSS VDD VDD _0122_ sky130_fd_sc_hd__o21ai_4
X_1044_ _0672_ VSS VSS VDD VDD _0123_ sky130_fd_sc_hd__buf_6
X_1045_ _0123_ VSS VSS VDD VDD _0124_ sky130_fd_sc_hd__buf_6
X_1046_ net1 net12 _0088_ _0089_ _0124_ _0847_ VSS VSS VDD
+ VDD _0125_ sky130_fd_sc_hd__mux4_1
X_1047_ _0899_ _0672_ net34 _0868_ VSS VSS VDD VDD _0126_
+ sky130_fd_sc_hd__o31a_1
X_1048_ _0879_ _0126_ VSS VSS VDD VDD _0127_ sky130_fd_sc_hd__or2_0
X_1049_ _0127_ VSS VSS VDD VDD _0128_ sky130_fd_sc_hd__buf_6
X_1050_ _0128_ VSS VSS VDD VDD _0129_ sky130_fd_sc_hd__buf_4
X_1051_ _0122_ _0125_ _0129_ VSS VSS VDD VDD _0130_ sky130_fd_sc_hd__mux2i_2
X_1052_ _0128_ VSS VSS VDD VDD _0131_ sky130_fd_sc_hd__buf_6
X_1053_ _0131_ VSS VSS VDD VDD _0132_ sky130_fd_sc_hd__buf_6
X_1054_ _0816_ VSS VSS VDD VDD _0133_ sky130_fd_sc_hd__buf_4
X_1055_ _0093_ _0095_ _0133_ VSS VSS VDD VDD _0134_ sky130_fd_sc_hd__mux2i_2
X_1056_ net4 VSS VSS VDD VDD _0135_ sky130_fd_sc_hd__clkbuf_4
X_1057_ _0135_ _0094_ _0837_ VSS VSS VDD VDD _0136_ sky130_fd_sc_hd__mux2i_2
X_1058_ _0134_ _0136_ _0704_ VSS VSS VDD VDD _0137_ sky130_fd_sc_hd__mux2i_4
X_1059_ _0133_ VSS VSS VDD VDD _0138_ sky130_fd_sc_hd__buf_4
X_1060_ _0080_ _0082_ _0138_ VSS VSS VDD VDD _0139_ sky130_fd_sc_hd__mux2i_2
X_1061_ _0079_ _0081_ _0837_ VSS VSS VDD VDD _0140_ sky130_fd_sc_hd__mux2i_1
X_1062_ _0140_ _0704_ VSS VSS VDD VDD _0141_ sky130_fd_sc_hd__nand2b_1
X_1063_ _0920_ _0139_ _0141_ _0129_ VSS VSS VDD VDD _0142_
+ sky130_fd_sc_hd__o211ai_2
X_1064_ _0112_ VSS VSS VDD VDD _0143_ sky130_fd_sc_hd__buf_4
X_1065_ _0143_ VSS VSS VDD VDD _0144_ sky130_fd_sc_hd__buf_4
X_1066_ _0132_ _0137_ _0142_ _0144_ VSS VSS VDD VDD _0145_
+ sky130_fd_sc_hd__o211ai_1
X_1067_ _0114_ _0130_ _0145_ VSS VSS VDD VDD _0146_ sky130_fd_sc_hd__o21ai_1
X_1068_ _0107_ _0036_ VSS VSS VDD VDD _0147_ sky130_fd_sc_hd__nor2_4
X_1069_ _0147_ VSS VSS VDD VDD _0148_ sky130_fd_sc_hd__clkbuf_4
X_1070_ net14 net16 _0816_ VSS VSS VDD VDD _0149_ sky130_fd_sc_hd__mux2i_4
X_1071_ net13 VSS VSS VDD VDD _0150_ sky130_fd_sc_hd__buf_2
X_1072_ net15 VSS VSS VDD VDD _0151_ sky130_fd_sc_hd__buf_2
X_1073_ _0150_ _0151_ _0826_ VSS VSS VDD VDD _0152_ sky130_fd_sc_hd__mux2i_2
X_1074_ _0149_ _0152_ _0053_ VSS VSS VDD VDD _0153_ sky130_fd_sc_hd__mux2i_4
X_1075_ net9 net11 _0816_ VSS VSS VDD VDD _0154_ sky130_fd_sc_hd__mux2i_4
X_1076_ _0068_ _0070_ _0826_ VSS VSS VDD VDD _0155_ sky130_fd_sc_hd__mux2i_2
X_1077_ _0154_ _0155_ _0053_ VSS VSS VDD VDD _0156_ sky130_fd_sc_hd__mux2i_4
X_1078_ net35 _0922_ VSS VSS VDD VDD _0157_ sky130_fd_sc_hd__xor2_4
X_1079_ _0157_ VSS VSS VDD VDD _0158_ sky130_fd_sc_hd__buf_6
X_1080_ _0158_ VSS VSS VDD VDD _0159_ sky130_fd_sc_hd__buf_4
X_1081_ _0153_ _0156_ _0159_ VSS VSS VDD VDD _0160_ sky130_fd_sc_hd__mux2i_2
X_1082_ net21 net22 net24 _0056_ _0672_ _0816_ VSS VSS VDD
+ VDD _0161_ sky130_fd_sc_hd__mux4_4
X_1083_ net17 net18 net19 net20 _0672_ _0816_ VSS VSS VDD
+ VDD _0162_ sky130_fd_sc_hd__mux4_4
X_1084_ _0161_ _0162_ _0158_ VSS VSS VDD VDD _0163_ sky130_fd_sc_hd__mux2_2
X_1085_ _0131_ _0163_ VSS VSS VDD VDD _0164_ sky130_fd_sc_hd__nor2_1
X_1086_ _0131_ _0160_ _0164_ VSS VSS VDD VDD _0165_ sky130_fd_sc_hd__a21oi_2
X_1087_ _0123_ net1 VSS VSS VDD VDD _0166_ sky130_fd_sc_hd__nand2b_2
X_1088_ _0040_ VSS VSS VDD VDD _0167_ sky130_fd_sc_hd__clkbuf_4
X_1089_ _0166_ _0032_ _0167_ VSS VSS VDD VDD _0168_ sky130_fd_sc_hd__o21ai_0
X_1090_ _0111_ _0146_ _0148_ _0165_ _0168_ VSS VSS VDD VDD
+ _0169_ sky130_fd_sc_hd__a221oi_1
X_1091_ _0106_ _0169_ VSS VSS VDD VDD net36 sky130_fd_sc_hd__nor2_1
X_1092_ _0034_ VSS VSS VDD VDD _0170_ sky130_fd_sc_hd__clkbuf_4
X_1093_ net15 net16 net17 _0047_ _0683_ _0734_ VSS VSS VDD
+ VDD _0171_ sky130_fd_sc_hd__mux4_2
X_1094_ net14 VSS VSS VDD VDD _0172_ sky130_fd_sc_hd__buf_2
X_1095_ _0070_ _0071_ _0150_ _0172_ _0083_ _0084_ VSS VSS
+ VDD VDD _0173_ sky130_fd_sc_hd__mux4_1
X_1096_ _0171_ _0173_ _0075_ VSS VSS VDD VDD _0174_ sky130_fd_sc_hd__mux2i_1
X_1097_ net6 net7 net8 net9 _0765_ _0060_ VSS VSS VDD VDD
+ _0175_ sky130_fd_sc_hd__mux4_2
X_1098_ net2 net3 net4 net5 _0683_ _0060_ VSS VSS VDD VDD
+ _0176_ sky130_fd_sc_hd__mux4_2
X_1099_ _0074_ VSS VSS VDD VDD _0177_ sky130_fd_sc_hd__buf_6
X_1100_ _0177_ VSS VSS VDD VDD _0178_ sky130_fd_sc_hd__clkbuf_4
X_1101_ _0175_ _0176_ _0178_ VSS VSS VDD VDD _0179_ sky130_fd_sc_hd__mux2i_1
X_1102_ _0020_ VSS VSS VDD VDD _0180_ sky130_fd_sc_hd__inv_2
X_1103_ _0180_ VSS VSS VDD VDD _0181_ sky130_fd_sc_hd__buf_4
X_1104_ _0174_ _0179_ _0181_ VSS VSS VDD VDD _0182_ sky130_fd_sc_hd__mux2i_1
X_1105_ net19 net21 _0724_ VSS VSS VDD VDD _0183_ sky130_fd_sc_hd__mux2_2
X_1106_ net20 _0055_ _0724_ VSS VSS VDD VDD _0184_ sky130_fd_sc_hd__mux2_1
X_1107_ _0183_ _0184_ _0124_ VSS VSS VDD VDD _0185_ sky130_fd_sc_hd__mux2i_4
X_1108_ _0063_ _0921_ VSS VSS VDD VDD _0186_ sky130_fd_sc_hd__nand2_2
X_1109_ _0059_ _0056_ _0775_ VSS VSS VDD VDD _0187_ sky130_fd_sc_hd__mux2i_4
X_1110_ _0064_ _0185_ _0186_ _0187_ VSS VSS VDD VDD _0188_
+ sky130_fd_sc_hd__o22ai_4
X_1111_ _0034_ _0020_ VSS VSS VDD VDD _0189_ sky130_fd_sc_hd__nor2_4
X_1112_ _0170_ _0182_ _0188_ _0189_ VSS VSS VDD VDD _0190_
+ sky130_fd_sc_hd__a22oi_1
X_1113_ _0110_ VSS VSS VDD VDD _0191_ sky130_fd_sc_hd__clkbuf_4
X_1114_ _0879_ _0126_ VSS VSS VDD VDD _0192_ sky130_fd_sc_hd__nor2_2
X_1115_ _0192_ VSS VSS VDD VDD _0193_ sky130_fd_sc_hd__buf_4
X_1116_ _0193_ VSS VSS VDD VDD _0194_ sky130_fd_sc_hd__clkbuf_4
X_1117_ _0785_ VSS VSS VDD VDD _0195_ sky130_fd_sc_hd__buf_6
X_1118_ _0806_ VSS VSS VDD VDD _0196_ sky130_fd_sc_hd__buf_6
X_1119_ _0080_ _0089_ _0196_ VSS VSS VDD VDD _0197_ sky130_fd_sc_hd__mux2i_4
X_1120_ _0115_ _0082_ _0196_ VSS VSS VDD VDD _0198_ sky130_fd_sc_hd__mux2i_4
X_1121_ _0197_ _0198_ _0158_ VSS VSS VDD VDD _0199_ sky130_fd_sc_hd__mux2i_4
X_1122_ net28 net26 _0806_ VSS VSS VDD VDD _0200_ sky130_fd_sc_hd__mux2i_4
X_1123_ _0118_ _0117_ _0196_ VSS VSS VDD VDD _0201_ sky130_fd_sc_hd__mux2_1
X_1124_ _0112_ _0201_ VSS VSS VDD VDD _0202_ sky130_fd_sc_hd__nor2_1
X_1125_ _0143_ _0200_ _0202_ _0195_ VSS VSS VDD VDD _0203_
+ sky130_fd_sc_hd__a211oi_1
X_1126_ _0195_ _0199_ _0203_ VSS VSS VDD VDD _0204_ sky130_fd_sc_hd__a21oi_2
X_1127_ net12 _0124_ VSS VSS VDD VDD _0205_ sky130_fd_sc_hd__nand2_2
X_1128_ net23 net1 _0806_ VSS VSS VDD VDD _0206_ sky130_fd_sc_hd__mux2i_4
X_1129_ _0765_ VSS VSS VDD VDD _0207_ sky130_fd_sc_hd__buf_6
X_1130_ _0207_ VSS VSS VDD VDD _0208_ sky130_fd_sc_hd__buf_6
X_1131_ _0837_ _0205_ _0206_ _0208_ VSS VSS VDD VDD _0209_
+ sky130_fd_sc_hd__o22ai_4
X_1132_ _0879_ _0126_ _0112_ VSS VSS VDD VDD _0210_ sky130_fd_sc_hd__nor3_2
X_1133_ _0209_ _0210_ VSS VSS VDD VDD _0211_ sky130_fd_sc_hd__nand2_1
X_1134_ _0194_ _0204_ _0211_ VSS VSS VDD VDD _0212_ sky130_fd_sc_hd__o21ai_1
X_1135_ _0041_ VSS VSS VDD VDD _0213_ sky130_fd_sc_hd__clkbuf_4
X_1136_ _0191_ _0212_ _0213_ VSS VSS VDD VDD _0214_ sky130_fd_sc_hd__a21oi_1
X_1137_ _0033_ VSS VSS VDD VDD _0215_ sky130_fd_sc_hd__clkbuf_4
X_1138_ _0108_ VSS VSS VDD VDD _0216_ sky130_fd_sc_hd__clkbuf_4
X_1139_ _0196_ VSS VSS VDD VDD _0217_ sky130_fd_sc_hd__buf_4
X_1140_ net10 net11 net13 _0172_ _0096_ _0217_ VSS VSS VDD
+ VDD _0218_ sky130_fd_sc_hd__mux4_2
X_1141_ _0118_ _0099_ _0135_ _0093_ _0083_ _0837_ VSS VSS
+ VDD VDD _0219_ sky130_fd_sc_hd__mux4_1
X_1142_ _0218_ _0219_ _0129_ VSS VSS VDD VDD _0220_ sky130_fd_sc_hd__mux2i_1
X_1143_ _0112_ VSS VSS VDD VDD _0221_ sky130_fd_sc_hd__clkbuf_4
X_1144_ _0051_ _0048_ _0058_ _0055_ _0096_ _0133_ VSS VSS
+ VDD VDD _0222_ sky130_fd_sc_hd__mux4_1
X_1145_ _0847_ _0187_ _0221_ VSS VSS VDD VDD _0223_ sky130_fd_sc_hd__o21ai_0
X_1146_ _0221_ _0222_ _0223_ VSS VSS VDD VDD _0224_ sky130_fd_sc_hd__o21ai_1
X_1147_ _0108_ _0131_ VSS VSS VDD VDD _0225_ sky130_fd_sc_hd__nand2_1
X_1148_ _0216_ _0144_ _0220_ _0224_ _0225_ VSS VSS VDD VDD
+ _0226_ sky130_fd_sc_hd__o32ai_1
X_1149_ _0080_ _0089_ _0734_ VSS VSS VDD VDD _0227_ sky130_fd_sc_hd__mux2i_1
X_1150_ _0081_ _0079_ _0745_ VSS VSS VDD VDD _0228_ sky130_fd_sc_hd__mux2i_1
X_1151_ _0227_ _0228_ _0704_ VSS VSS VDD VDD _0229_ sky130_fd_sc_hd__mux2i_2
X_1152_ net2 net31 net30 net29 _0096_ _0097_ VSS VSS VDD VDD
+ _0230_ sky130_fd_sc_hd__mux4_1
X_1153_ _0101_ VSS VSS VDD VDD _0231_ sky130_fd_sc_hd__clkbuf_4
X_1154_ _0229_ _0230_ _0231_ VSS VSS VDD VDD _0232_ sky130_fd_sc_hd__mux2i_1
X_1155_ _0088_ net1 _0734_ VSS VSS VDD VDD _0233_ sky130_fd_sc_hd__mux2i_2
X_1156_ _0195_ _0233_ _0205_ _0090_ VSS VSS VDD VDD _0234_
+ sky130_fd_sc_hd__o22a_1
X_1157_ _0899_ _0868_ VSS VSS VDD VDD _0235_ sky130_fd_sc_hd__nand2b_2
X_1158_ _0066_ _0232_ _0234_ _0235_ VSS VSS VDD VDD _0236_
+ sky130_fd_sc_hd__o22ai_1
X_1159_ _0158_ VSS VSS VDD VDD _0237_ sky130_fd_sc_hd__buf_4
X_1160_ _0237_ VSS VSS VDD VDD _0238_ sky130_fd_sc_hd__clkbuf_4
X_1161_ net16 VSS VSS VDD VDD _0239_ sky130_fd_sc_hd__buf_2
X_1162_ net15 _0239_ _0050_ _0047_ _0683_ _0133_ VSS VSS VDD
+ VDD _0240_ sky130_fd_sc_hd__mux4_2
X_1163_ _0132_ _0240_ VSS VSS VDD VDD _0241_ sky130_fd_sc_hd__nor2_1
X_1164_ _0094_ _0095_ _0068_ _0069_ _0072_ _0217_ VSS VSS
+ VDD VDD _0242_ sky130_fd_sc_hd__mux4_2
X_1165_ _0194_ _0242_ VSS VSS VDD VDD _0243_ sky130_fd_sc_hd__nor2_1
X_1166_ _0037_ _0238_ _0241_ _0243_ _0167_ VSS VSS VDD VDD
+ _0244_ sky130_fd_sc_hd__o41ai_1
X_1167_ _0215_ _0226_ _0236_ _0170_ _0244_ VSS VSS VDD VDD
+ _0245_ sky130_fd_sc_hd__a221oi_1
X_1168_ _0190_ _0214_ _0245_ VSS VSS VDD VDD net37 sky130_fd_sc_hd__a21oi_1
X_1169_ _0131_ VSS VSS VDD VDD _0246_ sky130_fd_sc_hd__clkbuf_4
X_1170_ net7 net8 net9 net10 _0683_ _0133_ VSS VSS VDD VDD
+ _0247_ sky130_fd_sc_hd__mux4_2
X_1171_ _0099_ _0135_ _0093_ _0094_ _0775_ _0138_ VSS VSS
+ VDD VDD _0248_ sky130_fd_sc_hd__mux4_1
X_1172_ _0247_ _0248_ _0237_ VSS VSS VDD VDD _0249_ sky130_fd_sc_hd__mux2i_4
X_1173_ _0672_ _0056_ VSS VSS VDD VDD _0250_ sky130_fd_sc_hd__nor2b_2
X_1174_ _0826_ _0250_ VSS VSS VDD VDD _0251_ sky130_fd_sc_hd__nand2b_1
X_1175_ net20 net21 net22 _0059_ _0683_ _0826_ VSS VSS VDD
+ VDD _0252_ sky130_fd_sc_hd__mux4_1
X_1176_ _0221_ _0252_ VSS VSS VDD VDD _0253_ sky130_fd_sc_hd__nor2_1
X_1177_ _0113_ _0251_ _0253_ VSS VSS VDD VDD _0254_ sky130_fd_sc_hd__a21oi_2
X_1178_ _0216_ _0254_ VSS VSS VDD VDD _0255_ sky130_fd_sc_hd__nand2_1
X_1179_ _0216_ _0249_ _0255_ VSS VSS VDD VDD _0256_ sky130_fd_sc_hd__o21ai_0
X_1180_ _0031_ VSS VSS VDD VDD _0257_ sky130_fd_sc_hd__buf_4
X_1181_ _0020_ VSS VSS VDD VDD _0258_ sky130_fd_sc_hd__clkbuf_4
X_1182_ _0082_ _0081_ _0080_ _0079_ _0123_ _0084_ VSS VSS
+ VDD VDD _0259_ sky130_fd_sc_hd__mux4_2
X_1183_ _0099_ _0118_ _0115_ _0117_ _0123_ _0084_ VSS VSS
+ VDD VDD _0260_ sky130_fd_sc_hd__mux4_2
X_1184_ _0259_ _0260_ _0177_ VSS VSS VDD VDD _0261_ sky130_fd_sc_hd__mux2i_4
X_1185_ _0089_ net12 _0734_ VSS VSS VDD VDD _0262_ sky130_fd_sc_hd__mux2i_1
X_1186_ _0233_ _0262_ _0053_ VSS VSS VDD VDD _0263_ sky130_fd_sc_hd__mux2_4
X_1187_ _0258_ _0261_ _0263_ _0235_ VSS VSS VDD VDD _0264_
+ sky130_fd_sc_hd__o22a_1
X_1188_ _0193_ VSS VSS VDD VDD _0265_ sky130_fd_sc_hd__clkbuf_4
X_1189_ _0110_ _0265_ VSS VSS VDD VDD _0266_ sky130_fd_sc_hd__nand2_1
X_1190_ _0239_ net17 net18 net19 _0683_ _0826_ VSS VSS VDD
+ VDD _0267_ sky130_fd_sc_hd__mux4_2
X_1191_ net11 net13 net14 net15 _0683_ _0826_ VSS VSS VDD
+ VDD _0268_ sky130_fd_sc_hd__mux4_2
X_1192_ _0267_ _0268_ _0237_ VSS VSS VDD VDD _0269_ sky130_fd_sc_hd__mux2i_4
X_1193_ _0257_ _0264_ _0266_ _0269_ _0167_ VSS VSS VDD VDD
+ _0270_ sky130_fd_sc_hd__o221ai_1
X_1194_ _0215_ _0246_ _0256_ _0270_ VSS VSS VDD VDD _0271_
+ sky130_fd_sc_hd__a31oi_1
X_1195_ _0131_ VSS VSS VDD VDD _0272_ sky130_fd_sc_hd__buf_4
X_1196_ net25 net12 _0806_ VSS VSS VDD VDD _0273_ sky130_fd_sc_hd__mux2i_2
X_1197_ _0785_ _0273_ VSS VSS VDD VDD _0274_ sky130_fd_sc_hd__nor2_1
X_1198_ _0120_ _0206_ VSS VSS VDD VDD _0275_ sky130_fd_sc_hd__nor2_1
X_1199_ _0274_ _0275_ VSS VSS VDD VDD _0276_ sky130_fd_sc_hd__nor2_2
X_1200_ net29 net27 _0806_ VSS VSS VDD VDD _0277_ sky130_fd_sc_hd__mux2i_4
X_1201_ _0200_ _0277_ _0920_ VSS VSS VDD VDD _0278_ sky130_fd_sc_hd__mux2i_2
X_1202_ _0099_ _0115_ _0196_ VSS VSS VDD VDD _0279_ sky130_fd_sc_hd__mux2_1
X_1203_ _0201_ _0279_ _0704_ VSS VSS VDD VDD _0280_ sky130_fd_sc_hd__mux2i_4
X_1204_ _0238_ _0280_ VSS VSS VDD VDD _0281_ sky130_fd_sc_hd__nand2_1
X_1205_ _0238_ _0278_ _0281_ _0272_ VSS VSS VDD VDD _0282_
+ sky130_fd_sc_hd__o211ai_1
X_1206_ _0272_ _0144_ _0276_ _0282_ VSS VSS VDD VDD _0283_
+ sky130_fd_sc_hd__o31ai_2
X_1207_ _0239_ _0050_ _0047_ _0051_ _0765_ _0097_ VSS VSS
+ VDD VDD _0284_ sky130_fd_sc_hd__mux4_1
X_1208_ _0075_ _0284_ VSS VSS VDD VDD _0285_ sky130_fd_sc_hd__nor2_1
X_1209_ _0734_ VSS VSS VDD VDD _0286_ sky130_fd_sc_hd__clkbuf_4
X_1210_ _0071_ _0150_ _0172_ _0151_ _0083_ _0286_ VSS VSS
+ VDD VDD _0287_ sky130_fd_sc_hd__mux4_1
X_1211_ _0064_ _0287_ VSS VSS VDD VDD _0288_ sky130_fd_sc_hd__nor2_1
X_1212_ _0285_ _0288_ VSS VSS VDD VDD _0289_ sky130_fd_sc_hd__nor2_2
X_1213_ _0095_ _0068_ _0069_ _0070_ _0207_ _0090_ VSS VSS
+ VDD VDD _0290_ sky130_fd_sc_hd__mux4_2
X_1214_ _0099_ _0135_ _0093_ _0094_ _0207_ _0286_ VSS VSS
+ VDD VDD _0291_ sky130_fd_sc_hd__mux4_2
X_1215_ _0290_ _0291_ _0075_ VSS VSS VDD VDD _0292_ sky130_fd_sc_hd__mux2i_2
X_1216_ _0066_ _0292_ VSS VSS VDD VDD _0293_ sky130_fd_sc_hd__nor2_1
X_1217_ _0046_ _0289_ _0293_ VSS VSS VDD VDD _0294_ sky130_fd_sc_hd__a21oi_1
X_1218_ _0208_ VSS VSS VDD VDD _0295_ sky130_fd_sc_hd__buf_4
X_1219_ _0056_ VSS VSS VDD VDD _0296_ sky130_fd_sc_hd__inv_1
X_1220_ _0101_ _0184_ _0186_ _0296_ VSS VSS VDD VDD _0297_
+ sky130_fd_sc_hd__o2bb2ai_1
X_1221_ _0063_ VSS VSS VDD VDD _0298_ sky130_fd_sc_hd__clkbuf_4
X_1222_ _0298_ _0061_ _0295_ VSS VSS VDD VDD _0299_ sky130_fd_sc_hd__o21ai_1
X_1223_ _0295_ _0297_ _0299_ VSS VSS VDD VDD _0300_ sky130_fd_sc_hd__o21ai_4
X_1224_ _0031_ _0180_ VSS VSS VDD VDD _0301_ sky130_fd_sc_hd__nand2_4
X_1225_ _0257_ _0294_ _0300_ _0301_ VSS VSS VDD VDD _0302_
+ sky130_fd_sc_hd__o22ai_2
X_1226_ _0191_ _0283_ _0302_ _0213_ VSS VSS VDD VDD _0303_
+ sky130_fd_sc_hd__a211oi_1
X_1227_ _0271_ _0303_ VSS VSS VDD VDD net38 sky130_fd_sc_hd__nor2_1
X_1228_ _0053_ _0273_ VSS VSS VDD VDD _0304_ sky130_fd_sc_hd__nor2_1
X_1229_ _0079_ _0088_ _0196_ VSS VSS VDD VDD _0305_ sky130_fd_sc_hd__mux2i_4
X_1230_ _0124_ _0305_ VSS VSS VDD VDD _0306_ sky130_fd_sc_hd__nor2_1
X_1231_ _0304_ _0306_ _0158_ VSS VSS VDD VDD _0307_ sky130_fd_sc_hd__o21ai_4
X_1232_ _0099_ _0115_ _0826_ VSS VSS VDD VDD _0308_ sky130_fd_sc_hd__mux2i_1
X_1233_ _0277_ _0308_ _0158_ VSS VSS VDD VDD _0309_ sky130_fd_sc_hd__mux2i_1
X_1234_ _0117_ net28 _0196_ VSS VSS VDD VDD _0310_ sky130_fd_sc_hd__mux2i_4
X_1235_ net4 _0118_ _0816_ VSS VSS VDD VDD _0311_ sky130_fd_sc_hd__mux2i_4
X_1236_ _0310_ _0311_ _0158_ VSS VSS VDD VDD _0312_ sky130_fd_sc_hd__mux2i_1
X_1237_ _0309_ _0312_ _0053_ VSS VSS VDD VDD _0313_ sky130_fd_sc_hd__mux2_2
X_1238_ _0132_ _0313_ VSS VSS VDD VDD _0314_ sky130_fd_sc_hd__nand2_1
X_1239_ _0217_ _0166_ VSS VSS VDD VDD _0315_ sky130_fd_sc_hd__nor2_4
X_1240_ _0063_ _0745_ VSS VSS VDD VDD _0316_ sky130_fd_sc_hd__nor2_4
X_1241_ _0020_ _0316_ VSS VSS VDD VDD _0317_ sky130_fd_sc_hd__xnor2_2
X_1242_ _0113_ _0315_ _0317_ VSS VSS VDD VDD _0318_ sky130_fd_sc_hd__nand3_1
X_1243_ _0132_ _0307_ _0314_ _0318_ VSS VSS VDD VDD _0319_
+ sky130_fd_sc_hd__o211ai_2
X_1244_ _0298_ VSS VSS VDD VDD _0320_ sky130_fd_sc_hd__clkbuf_4
X_1245_ _0320_ _0062_ _0301_ VSS VSS VDD VDD _0321_ sky130_fd_sc_hd__nor3_1
X_1246_ _0063_ _0067_ VSS VSS VDD VDD _0322_ sky130_fd_sc_hd__nor2_1
X_1247_ _0298_ _0054_ _0322_ VSS VSS VDD VDD _0323_ sky130_fd_sc_hd__a21o_1
X_1248_ _0073_ _0098_ _0101_ VSS VSS VDD VDD _0324_ sky130_fd_sc_hd__mux2i_4
X_1249_ _0323_ _0324_ _0180_ VSS VSS VDD VDD _0325_ sky130_fd_sc_hd__mux2_1
X_1250_ _0043_ _0325_ VSS VSS VDD VDD _0326_ sky130_fd_sc_hd__nor2_1
X_1251_ _0041_ VSS VSS VDD VDD _0327_ sky130_fd_sc_hd__clkbuf_4
X_1252_ _0111_ _0319_ _0321_ _0326_ _0327_ VSS VSS VDD VDD
+ _0328_ sky130_fd_sc_hd__a2111oi_1
X_1253_ _0237_ VSS VSS VDD VDD _0329_ sky130_fd_sc_hd__clkbuf_4
X_1254_ _0329_ _0162_ VSS VSS VDD VDD _0330_ sky130_fd_sc_hd__nor2_1
X_1255_ _0114_ _0153_ VSS VSS VDD VDD _0331_ sky130_fd_sc_hd__nor2_1
X_1256_ _0108_ _0128_ VSS VSS VDD VDD _0332_ sky130_fd_sc_hd__nor2_4
X_1257_ _0330_ _0331_ _0332_ VSS VSS VDD VDD _0333_ sky130_fd_sc_hd__o21ai_0
X_1258_ _0114_ _0156_ _0265_ VSS VSS VDD VDD _0334_ sky130_fd_sc_hd__a21oi_1
X_1259_ _0036_ _0137_ VSS VSS VDD VDD _0335_ sky130_fd_sc_hd__nand2_1
X_1260_ _0216_ _0132_ _0161_ VSS VSS VDD VDD _0336_ sky130_fd_sc_hd__nand3_1
X_1261_ _0335_ _0336_ _0144_ VSS VSS VDD VDD _0337_ sky130_fd_sc_hd__a21oi_1
X_1262_ _0216_ _0334_ _0337_ VSS VSS VDD VDD _0338_ sky130_fd_sc_hd__o21bai_1
X_1263_ net26 net25 _0088_ net12 _0096_ _0745_ VSS VSS VDD
+ VDD _0339_ sky130_fd_sc_hd__mux4_4
X_1264_ _0166_ _0186_ _0339_ _0177_ VSS VSS VDD VDD _0340_
+ sky130_fd_sc_hd__a2bb2oi_2
X_1265_ _0117_ _0082_ _0081_ _0080_ _0072_ _0084_ VSS VSS
+ VDD VDD _0341_ sky130_fd_sc_hd__mux4_4
X_1266_ _0135_ _0099_ _0118_ _0115_ _0072_ _0745_ VSS VSS
+ VDD VDD _0342_ sky130_fd_sc_hd__mux4_2
X_1267_ _0341_ _0342_ _0177_ VSS VSS VDD VDD _0343_ sky130_fd_sc_hd__mux2i_4
X_1268_ _0340_ _0343_ _0180_ VSS VSS VDD VDD _0344_ sky130_fd_sc_hd__mux2_1
X_1269_ _0044_ _0344_ _0327_ VSS VSS VDD VDD _0345_ sky130_fd_sc_hd__o21ai_1
X_1270_ _0215_ _0333_ _0338_ _0345_ VSS VSS VDD VDD _0346_
+ sky130_fd_sc_hd__a31oi_1
X_1271_ _0328_ _0346_ VSS VSS VDD VDD net39 sky130_fd_sc_hd__nor2_1
X_1272_ net15 net17 _0816_ VSS VSS VDD VDD _0347_ sky130_fd_sc_hd__mux2i_1
X_1273_ _0149_ _0347_ _0072_ VSS VSS VDD VDD _0348_ sky130_fd_sc_hd__mux2_2
X_1274_ net18 net20 _0806_ VSS VSS VDD VDD _0349_ sky130_fd_sc_hd__mux2_1
X_1275_ net19 net21 _0806_ VSS VSS VDD VDD _0350_ sky130_fd_sc_hd__mux2_1
X_1276_ _0349_ _0350_ _0785_ VSS VSS VDD VDD _0351_ sky130_fd_sc_hd__mux2i_1
X_1277_ _0348_ _0351_ _0112_ VSS VSS VDD VDD _0352_ sky130_fd_sc_hd__mux2_1
X_1278_ _0094_ _0068_ _0133_ VSS VSS VDD VDD _0353_ sky130_fd_sc_hd__mux2i_1
X_1279_ _0134_ _0353_ _0208_ VSS VSS VDD VDD _0354_ sky130_fd_sc_hd__mux2_2
X_1280_ net22 _0056_ _0806_ VSS VSS VDD VDD _0355_ sky130_fd_sc_hd__mux2_1
X_1281_ _0806_ net24 VSS VSS VDD VDD _0356_ sky130_fd_sc_hd__nor2b_1
X_1282_ _0355_ _0356_ _0208_ VSS VSS VDD VDD _0357_ sky130_fd_sc_hd__mux2i_4
X_1283_ _0216_ _0354_ _0357_ _0225_ VSS VSS VDD VDD _0358_
+ sky130_fd_sc_hd__o22ai_1
X_1284_ net10 net13 _0816_ VSS VSS VDD VDD _0359_ sky130_fd_sc_hd__mux2i_1
X_1285_ _0154_ _0359_ _0096_ VSS VSS VDD VDD _0360_ sky130_fd_sc_hd__mux2_2
X_1286_ _0237_ _0360_ _0129_ VSS VSS VDD VDD _0361_ sky130_fd_sc_hd__o21ai_0
X_1287_ _0036_ VSS VSS VDD VDD _0362_ sky130_fd_sc_hd__clkbuf_4
X_1288_ _0238_ _0358_ _0361_ _0362_ VSS VSS VDD VDD _0363_
+ sky130_fd_sc_hd__a22oi_1
X_1289_ _0332_ _0352_ _0363_ _0107_ VSS VSS VDD VDD _0364_
+ sky130_fd_sc_hd__a211o_1
X_1290_ net12 net1 _0123_ VSS VSS VDD VDD _0365_ sky130_fd_sc_hd__mux2i_4
X_1291_ _0079_ _0088_ _0060_ VSS VSS VDD VDD _0366_ sky130_fd_sc_hd__mux2i_1
X_1292_ _0227_ _0366_ _0124_ VSS VSS VDD VDD _0367_ sky130_fd_sc_hd__mux2_1
X_1293_ _0186_ _0365_ _0367_ _0064_ VSS VSS VDD VDD _0368_
+ sky130_fd_sc_hd__o22a_2
X_1294_ _0115_ _0117_ _0082_ _0081_ _0083_ _0286_ VSS VSS
+ VDD VDD _0369_ sky130_fd_sc_hd__mux4_2
X_1295_ _0093_ _0135_ _0099_ _0118_ _0207_ _0286_ VSS VSS
+ VDD VDD _0370_ sky130_fd_sc_hd__mux4_4
X_1296_ _0369_ _0370_ _0075_ VSS VSS VDD VDD _0371_ sky130_fd_sc_hd__mux2i_4
X_1297_ _0368_ _0371_ _0181_ VSS VSS VDD VDD _0372_ sky130_fd_sc_hd__mux2i_2
X_1298_ _0170_ _0372_ VSS VSS VDD VDD _0373_ sky130_fd_sc_hd__nand2_1
X_1299_ _0198_ _0310_ _0208_ VSS VSS VDD VDD _0374_ sky130_fd_sc_hd__mux2i_1
X_1300_ _0093_ net3 _0816_ VSS VSS VDD VDD _0375_ sky130_fd_sc_hd__mux2i_4
X_1301_ _0311_ _0375_ _0704_ VSS VSS VDD VDD _0376_ sky130_fd_sc_hd__mux2i_1
X_1302_ _0374_ _0376_ _0159_ VSS VSS VDD VDD _0377_ sky130_fd_sc_hd__mux2_2
X_1303_ _0197_ _0305_ _0785_ VSS VSS VDD VDD _0378_ sky130_fd_sc_hd__mux2i_2
X_1304_ _0138_ _0365_ _0143_ VSS VSS VDD VDD _0379_ sky130_fd_sc_hd__o21ai_1
X_1305_ _0221_ _0378_ _0379_ _0193_ VSS VSS VDD VDD _0380_
+ sky130_fd_sc_hd__o211ai_1
X_1306_ _0132_ _0377_ _0380_ VSS VSS VDD VDD _0381_ sky130_fd_sc_hd__a21boi_2
X_1307_ _0049_ _0183_ _0208_ VSS VSS VDD VDD _0382_ sky130_fd_sc_hd__mux2i_4
X_1308_ _0172_ _0151_ _0239_ _0050_ _0123_ _0084_ VSS VSS
+ VDD VDD _0383_ sky130_fd_sc_hd__mux4_2
X_1309_ _0064_ _0383_ VSS VSS VDD VDD _0384_ sky130_fd_sc_hd__nor2_1
X_1310_ _0087_ _0382_ _0384_ VSS VSS VDD VDD _0385_ sky130_fd_sc_hd__a21oi_1
X_1311_ _0069_ _0070_ _0071_ _0150_ _0123_ _0084_ VSS VSS
+ VDD VDD _0386_ sky130_fd_sc_hd__mux4_4
X_1312_ _0093_ net6 net7 _0068_ _0765_ _0097_ VSS VSS VDD
+ VDD _0387_ sky130_fd_sc_hd__mux4_2
X_1313_ _0386_ _0387_ _0177_ VSS VSS VDD VDD _0388_ sky130_fd_sc_hd__mux2i_4
X_1314_ _0066_ _0388_ VSS VSS VDD VDD _0389_ sky130_fd_sc_hd__nor2_1
X_1315_ _0046_ _0385_ _0389_ VSS VSS VDD VDD _0390_ sky130_fd_sc_hd__a21oi_1
X_1316_ _0181_ VSS VSS VDD VDD _0391_ sky130_fd_sc_hd__clkbuf_4
X_1317_ _0097_ _0059_ _0124_ VSS VSS VDD VDD _0392_ sky130_fd_sc_hd__nand3b_1