
* cell barrel_shifter
* pin data_in[7]
* pin data_in[5]
* pin data_in[3]
* pin data_in[4]
* pin data_in[6]
* pin data_in[0]
* pin data_out[26]
* pin data_in[2]
* pin shift_amount[2]
* pin shift_amount[1]
* pin shift_amount[0]
* pin shift_amount[3]
* pin rotate
* pin data_in[29]
* pin data_out[12]
* pin data_out[11]
* pin data_out[21]
* pin data_out[27]
* pin data_out[24]
* pin data_in[30]
* pin data_in[25]
* pin data_out[25]
* pin data_out[1]
* pin data_out[8]
* pin data_out[10]
* pin data_in[24]
* pin data_in[23]
* pin data_out[31]
* pin data_out[18]
* pin data_in[22]
* pin data_out[28]
* pin data_in[27]
* pin data_out[0]
* pin data_in[26]
* pin data_in[21]
* pin data_out[7]
* pin data_out[4]
* pin data_in[20]
* pin data_in[19]
* pin data_out[13]
* pin data_out[29]
* pin data_in[18]
* pin shift_direction
* pin data_out[5]
* pin data_in[8]
* pin data_in[16]
* pin data_out[23]
* pin data_out[19]
* pin data_in[17]
* pin data_out[9]
* pin data_in[11]
* pin data_out[20]
* pin data_in[9]
* pin data_in[15]
* pin data_out[16]
* pin data_in[13]
* pin data_in[10]
* pin data_in[14]
* pin data_in[12]
* pin data_in[28]
* pin shift_amount[4]
* pin data_in[31]
* pin data_in[1]
* pin data_out[2]
* pin data_out[30]
* pin data_out[14]
* pin data_out[6]
* pin data_out[22]
* pin data_out[3]
* pin data_out[15]
* pin data_out[17]
.SUBCKT barrel_shifter 1 2 3 4 5 6 7 8 9 153 154 196 430 431 450 482 483 506
+ 507 519 520 538 539 540 568 585 586 592 593 611 620 630 642 650 651 662 663
+ 673 674 684 685 696 710 711 725 726 739 740 750 767 777 786 799 800 818 826
+ 827 848 883 898 943 1051 1053 1057 1058 1059 1060 1061 1062 1063 1064
* net 1 data_in[7]
* net 2 data_in[5]
* net 3 data_in[3]
* net 4 data_in[4]
* net 5 data_in[6]
* net 6 data_in[0]
* net 7 data_out[26]
* net 8 data_in[2]
* net 9 shift_amount[2]
* net 153 shift_amount[1]
* net 154 shift_amount[0]
* net 196 shift_amount[3]
* net 430 rotate
* net 431 data_in[29]
* net 450 data_out[12]
* net 482 data_out[11]
* net 483 data_out[21]
* net 506 data_out[27]
* net 507 data_out[24]
* net 519 data_in[30]
* net 520 data_in[25]
* net 538 data_out[25]
* net 539 data_out[1]
* net 540 data_out[8]
* net 568 data_out[10]
* net 585 data_in[24]
* net 586 data_in[23]
* net 592 data_out[31]
* net 593 data_out[18]
* net 611 data_in[22]
* net 620 data_out[28]
* net 630 data_in[27]
* net 642 data_out[0]
* net 650 data_in[26]
* net 651 data_in[21]
* net 662 data_out[7]
* net 663 data_out[4]
* net 673 data_in[20]
* net 674 data_in[19]
* net 684 data_out[13]
* net 685 data_out[29]
* net 696 data_in[18]
* net 710 shift_direction
* net 711 data_out[5]
* net 725 data_in[8]
* net 726 data_in[16]
* net 739 data_out[23]
* net 740 data_out[19]
* net 750 data_in[17]
* net 767 data_out[9]
* net 777 data_in[11]
* net 786 data_out[20]
* net 799 data_in[9]
* net 800 data_in[15]
* net 818 data_out[16]
* net 826 data_in[13]
* net 827 data_in[10]
* net 848 data_in[14]
* net 883 data_in[12]
* net 898 data_in[28]
* net 943 shift_amount[4]
* net 1051 data_in[31]
* net 1053 data_in[1]
* net 1057 data_out[2]
* net 1058 data_out[30]
* net 1059 data_out[14]
* net 1060 data_out[6]
* net 1061 data_out[22]
* net 1062 data_out[3]
* net 1063 data_out[15]
* net 1064 data_out[17]
* cell instance $3 r0 *1 23,2.72
X$3 24 1 24 19 64 19 sky130_fd_sc_hd__clkbuf_2
* cell instance $6 r0 *1 57.04,2.72
X$6 24 2 39 19 24 19 sky130_fd_sc_hd__clkbuf_1
* cell instance $9 m0 *1 57.04,8.16
X$9 24 3 24 19 59 19 sky130_fd_sc_hd__clkbuf_2
* cell instance $12 r0 *1 58.42,2.72
X$12 24 4 24 19 11 19 sky130_fd_sc_hd__clkbuf_2
* cell instance $15 r0 *1 60.26,2.72
X$15 24 5 24 19 10 19 sky130_fd_sc_hd__clkbuf_2
* cell instance $18 m0 *1 53.82,8.16
X$18 24 6 19 22 24 19 sky130_fd_sc_hd__clkbuf_4
* cell instance $21 r0 *1 62.1,2.72
X$21 24 38 7 19 24 19 sky130_fd_sc_hd__clkbuf_1
* cell instance $24 r0 *1 64.86,2.72
X$24 19 23 8 24 24 19 sky130_fd_sc_hd__dlymetal6s2s_1
* cell instance $27 r0 *1 86.48,2.72
X$27 24 9 19 12 24 19 sky130_fd_sc_hd__clkbuf_4
* cell instance $33 r0 *1 29.44,2.72
X$33 19 10 16 11 14 24 24 19 sky130_fd_sc_hd__mux2i_4
* cell instance $36 m0 *1 16.56,13.6
X$36 19 201 85 10 20 24 24 19 sky130_fd_sc_hd__mux2i_4
* cell instance $41 r0 *1 13.34,13.6
X$41 24 10 19 170 24 19 sky130_fd_sc_hd__buf_2
* cell instance $58 m0 *1 32.66,68
X$58 19 319 676 103 60 79 11 633 24 24 19 sky130_fd_sc_hd__mux4_1
* cell instance $61 r0 *1 33.58,62.56
X$61 19 60 11 671 509 125 633 59 24 24 19 sky130_fd_sc_hd__mux4_4
* cell instance $63 r0 *1 21.16,8.16
X$63 24 11 19 65 24 19 sky130_fd_sc_hd__clkbuf_4
* cell instance $73 r0 *1 51.52,2.72
X$73 19 12 30 24 24 19 sky130_fd_sc_hd__buf_6
* cell instance $76 m0 *1 42.78,8.16
X$76 19 12 82 63 24 24 19 sky130_fd_sc_hd__xor2_4
* cell instance $79 m0 *1 74.06,8.16
X$79 19 51 52 18 12 28 24 24 19 sky130_fd_sc_hd__nor4_4
* cell instance $105 r0 *1 46,19.04
X$105 24 13 191 213 19 24 19 sky130_fd_sc_hd__nor2_1
* cell instance $107 r0 *1 47.38,8.16
X$107 19 34 30 13 24 24 19 sky130_fd_sc_hd__xnor2_4
* cell instance $109 r0 *1 52.44,13.6
X$109 24 13 80 169 24 19 19 sky130_fd_sc_hd__nand2_1
* cell instance $111 m0 *1 39.1,57.12
X$111 24 13 390 574 19 24 19 sky130_fd_sc_hd__nor2_1
* cell instance $113 r0 *1 40.48,46.24
X$113 24 13 443 447 19 24 19 sky130_fd_sc_hd__nor2_1
* cell instance $117 r0 *1 66.24,13.6
X$117 24 13 24 19 128 19 sky130_fd_sc_hd__buf_4
* cell instance $119 m0 *1 70.38,24.48
X$119 24 13 24 19 78 19 sky130_fd_sc_hd__buf_4
* cell instance $121 r0 *1 20.24,2.72
X$121 24 13 19 142 24 19 sky130_fd_sc_hd__clkbuf_4
* cell instance $124 r0 *1 17.48,46.24
X$124 19 433 442 193 13 24 24 19 sky130_fd_sc_hd__mux2_1
* cell instance $126 m0 *1 79.12,13.6
X$126 19 52 54 27 13 24 24 19 sky130_fd_sc_hd__nor3_2
* cell instance $128 r0 *1 82.8,13.6
X$128 24 13 131 130 24 19 19 sky130_fd_sc_hd__nand2_1
* cell instance $148 r0 *1 5.52,2.72
X$148 19 14 20 24 24 19 sky130_fd_sc_hd__buf_6
* cell instance $150 m0 *1 29.44,8.16
X$150 19 64 46 39 14 24 24 19 sky130_fd_sc_hd__mux2i_4
* cell instance $154 r0 *1 51.06,19.04
X$154 19 14 59 125 24 80 24 19 sky130_fd_sc_hd__mux2i_2
* cell instance $157 r0 *1 43.24,8.16
X$157 19 137 14 24 24 19 sky130_fd_sc_hd__buf_6
* cell instance $161 r0 *1 43.24,2.72
X$161 19 23 66 22 14 24 24 19 sky130_fd_sc_hd__mux2i_4
* cell instance $164 m0 *1 1.38,19.04
X$164 19 14 133 24 24 19 sky130_fd_sc_hd__buf_6
* cell instance $166 m0 *1 23.92,51.68
X$166 19 441 521 440 14 24 24 19 sky130_fd_sc_hd__mux2_1
* cell instance $168 m0 *1 5.98,57.12
X$168 24 14 496 419 19 24 19 sky130_fd_sc_hd__nor2b_1
* cell instance $170 r0 *1 1.38,35.36
X$170 19 361 348 357 14 24 24 19 sky130_fd_sc_hd__mux2_1
* cell instance $173 r0 *1 11.04,40.8
X$173 19 388 418 417 14 24 24 19 sky130_fd_sc_hd__mux2_1
* cell instance $198 r0 *1 33.12,24.48
X$198 19 66 15 116 237 86 24 24 19 sky130_fd_sc_hd__o22ai_4
* cell instance $200 r0 *1 37.72,2.72
X$200 19 15 16 17 24 40 24 19 sky130_fd_sc_hd__mux2i_2
* cell instance $202 m0 *1 29.9,51.68
X$202 19 15 412 462 418 420 455 105 24 24 19 sky130_fd_sc_hd__mux4_1
* cell instance $204 r0 *1 2.76,95.2
X$204 19 545 15 24 24 19 sky130_fd_sc_hd__buf_6
* cell instance $207 r0 *1 37.72,89.76
X$207 19 15 881 899 24 936 24 19 sky130_fd_sc_hd__mux2i_2
* cell instance $209 m0 *1 29.44,95.2
X$209 19 846 899 691 15 24 24 19 sky130_fd_sc_hd__mux2i_1
* cell instance $213 m0 *1 20.7,73.44
X$213 19 675 745 627 15 24 24 19 sky130_fd_sc_hd__mux2i_4
* cell instance $215 r0 *1 1.38,19.04
X$215 19 197 234 177 15 24 24 19 sky130_fd_sc_hd__mux2_2
* cell instance $217 m0 *1 9.66,24.48
X$217 24 15 24 19 75 19 sky130_fd_sc_hd__buf_4
* cell instance $219 r0 *1 16.1,2.72
X$219 19 96 43 85 15 24 24 19 sky130_fd_sc_hd__mux2i_1
* cell instance $222 r0 *1 16.1,40.8
X$222 19 388 365 419 15 24 24 19 sky130_fd_sc_hd__mux2i_4
* cell instance $234 r0 *1 43.24,19.04
X$234 24 16 128 42 213 19 187 24 19 sky130_fd_sc_hd__a211oi_1
* cell instance $236 r0 *1 32.2,8.16
X$236 19 80 66 83 63 46 84 16 24 24 19 sky130_fd_sc_hd__mux4_4
* cell instance $238 m0 *1 49.68,19.04
X$238 19 73 16 46 24 174 24 19 sky130_fd_sc_hd__mux2i_2
* cell instance $246 m0 *1 29.9,13.6
X$246 19 79 17 103 20 24 24 19 sky130_fd_sc_hd__mux2i_4
* cell instance $248 m0 *1 37.72,8.16
X$248 19 47 17 48 24 49 24 19 sky130_fd_sc_hd__mux2i_2
* cell instance $252 m0 *1 14.72,8.16
X$252 19 17 61 43 37 24 24 19 sky130_fd_sc_hd__mux2i_4
* cell instance $272 r0 *1 99.36,8.16
X$272 19 18 69 24 24 19 sky130_fd_sc_hd__buf_6
* cell instance $274 m0 *1 57.04,62.56
X$274 24 34 18 615 629 19 24 19 sky130_fd_sc_hd__nand3b_1
* cell instance $277 r0 *1 104.42,19.04
X$277 24 196 24 19 18 19 sky130_fd_sc_hd__buf_4
* cell instance $280 m0 *1 71.3,13.6
X$280 19 33 138 94 18 52 24 24 19 sky130_fd_sc_hd__a22o_2
* cell instance $285 r0 *1 74.98,2.72
X$285 19 27 30 29 28 18 24 24 19 sky130_fd_sc_hd__o31a_1
* cell instance $287 r0 *1 58.42,62.56
X$287 19 648 30 18 24 24 19 sky130_fd_sc_hd__nand2b_2
* cell instance $289 m0 *1 67.62,62.56
X$289 19 77 427 30 18 590 24 24 19 sky130_fd_sc_hd__or4_4
* cell instance $291 r0 *1 70.84,62.56
X$291 19 18 30 604 34 24 24 19 sky130_fd_sc_hd__nor3b_4
* cell instance $293 m0 *1 74.98,13.6
X$293 19 87 34 113 18 52 24 24 19 sky130_fd_sc_hd__a22o_2
* cell instance $313 r0 *1 9.66,2.72
X$313 24 37 24 19 26 19 sky130_fd_sc_hd__buf_4
* cell instance $314 r0 *1 12.42,2.72
X$314 24 106 19 31 24 19 sky130_fd_sc_hd__clkbuf_4
* cell instance $320 r0 *1 25.3,2.72
X$320 19 35 46 21 37 24 24 19 sky130_fd_sc_hd__mux2i_1
* cell instance $331 r0 *1 70.84,2.72
X$331 24 68 114 32 24 33 19 19 sky130_fd_sc_hd__o21ai_0
* cell instance $332 r0 *1 72.68,2.72
X$332 24 30 34 32 24 19 19 sky130_fd_sc_hd__nand2_1
* cell instance $362 m0 *1 3.68,8.16
X$362 24 143 24 19 116 19 sky130_fd_sc_hd__buf_4
* cell instance $363 m0 *1 6.44,8.16
X$363 24 93 24 19 73 19 sky130_fd_sc_hd__buf_4
* cell instance $364 m0 *1 9.2,8.16
X$364 24 75 41 74 19 24 19 sky130_fd_sc_hd__nor2_1
* cell instance $365 m0 *1 10.58,8.16
X$365 19 47 42 24 24 19 sky130_fd_sc_hd__buf_6
* cell instance $366 m0 *1 23,8.16
X$366 24 120 78 42 45 19 44 24 19 sky130_fd_sc_hd__a211oi_1
* cell instance $368 m0 *1 26.22,8.16
X$368 24 39 19 79 24 19 sky130_fd_sc_hd__clkbuf_4
* cell instance $372 m0 *1 58.88,8.16
X$372 24 23 19 60 24 19 sky130_fd_sc_hd__clkbuf_4
* cell instance $373 m0 *1 61.64,8.16
X$373 24 57 49 81 19 58 24 19 sky130_fd_sc_hd__o21ai_2
* cell instance $374 m0 *1 64.86,8.16
X$374 24 82 24 19 34 19 sky130_fd_sc_hd__buf_4
* cell instance $376 m0 *1 68.54,8.16
X$376 24 30 34 98 19 24 19 sky130_fd_sc_hd__nand2b_1
* cell instance $377 m0 *1 70.84,8.16
X$377 19 19 68 24 29 77 24 sky130_fd_sc_hd__nor2_2
* cell instance $379 m0 *1 81.88,8.16
X$379 24 27 52 76 19 24 19 sky130_fd_sc_hd__or2_0
* cell instance $383 m0 *1 86.02,8.16
X$383 19 76 89 24 24 19 sky130_fd_sc_hd__buf_6
* cell instance $384 m0 *1 90.16,8.16
X$384 24 53 70 72 19 24 19 sky130_fd_sc_hd__nor2_1
* cell instance $386 m0 *1 92.46,8.16
X$386 24 72 57 111 24 19 161 19 sky130_fd_sc_hd__o21ai_1
* cell instance $389 m0 *1 95.68,8.16
X$389 24 55 54 108 24 19 19 sky130_fd_sc_hd__and2_0
* cell instance $397 r0 *1 1.38,8.16
X$397 24 115 84 24 19 19 sky130_fd_sc_hd__clkinv_2
* cell instance $398 r0 *1 3.22,8.16
X$398 19 62 41 92 93 24 24 19 sky130_fd_sc_hd__mux2i_1
* cell instance $399 r0 *1 6.9,8.16
X$399 19 63 37 24 24 19 sky130_fd_sc_hd__buf_6
* cell instance $400 r0 *1 11.04,8.16
X$400 19 36 96 62 26 24 24 19 sky130_fd_sc_hd__mux2_2
* cell instance $407 r0 *1 17.02,8.16
X$407 19 25 55 56 37 24 24 19 sky130_fd_sc_hd__mux2_2
* cell instance $408 r0 *1 23.92,8.16
X$408 19 65 48 60 20 24 24 19 sky130_fd_sc_hd__mux2i_4
* cell instance $409 r0 *1 41.4,8.16
X$409 24 47 80 101 19 24 19 sky130_fd_sc_hd__nor2_1
* cell instance $414 r0 *1 57.5,8.16
X$414 19 26 70 102 24 90 24 19 sky130_fd_sc_hd__mux2i_2
* cell instance $415 r0 *1 62.56,8.16
X$415 24 86 54 100 24 19 19 sky130_fd_sc_hd__nand2_1
* cell instance $417 r0 *1 64.86,8.16
X$417 24 82 30 99 19 24 19 sky130_fd_sc_hd__nand2b_1
* cell instance $419 r0 *1 68.08,8.16
X$419 24 68 98 99 24 19 87 19 sky130_fd_sc_hd__o21ai_1
* cell instance $425 r0 *1 70.84,8.16
X$425 19 87 34 69 97 52 24 24 19 sky130_fd_sc_hd__a22oi_4
* cell instance $426 r0 *1 78.66,8.16
X$426 19 51 29 24 24 19 sky130_fd_sc_hd__buf_6
* cell instance $427 r0 *1 82.8,8.16
X$427 19 71 88 24 24 19 sky130_fd_sc_hd__buf_6
* cell instance $428 r0 *1 86.94,8.16
X$428 19 89 71 24 24 19 sky130_fd_sc_hd__buf_6
* cell instance $429 r0 *1 91.08,8.16
X$429 24 71 91 90 24 95 19 19 sky130_fd_sc_hd__a21oi_2
* cell instance $434 r0 *1 96.14,8.16
X$434 24 71 25 91 19 24 19 sky130_fd_sc_hd__nor2_1
* cell instance $443 m0 *1 1.38,13.6
X$443 24 133 24 19 118 19 sky130_fd_sc_hd__buf_4
* cell instance $444 m0 *1 4.14,13.6
X$444 19 84 93 24 24 19 sky130_fd_sc_hd__buf_6
* cell instance $446 m0 *1 8.74,13.6
X$446 19 84 106 24 24 19 sky130_fd_sc_hd__buf_6
* cell instance $447 m0 *1 12.88,13.6
X$447 19 119 85 41 37 24 24 19 sky130_fd_sc_hd__mux2i_1
* cell instance $448 m0 *1 24.84,13.6
X$448 19 50 35 119 106 24 24 19 sky130_fd_sc_hd__mux2_2
* cell instance $451 m0 *1 38.18,13.6
X$451 19 86 67 40 26 24 24 19 sky130_fd_sc_hd__mux2i_4
* cell instance $452 m0 *1 46.46,13.6
X$452 19 126 141 60 125 65 103 105 24 24 19 sky130_fd_sc_hd__mux4_1
* cell instance $455 m0 *1 57.04,13.6
X$455 24 106 80 104 19 24 19 sky130_fd_sc_hd__nor2_1
* cell instance $458 m0 *1 61.18,13.6
X$458 24 142 49 81 132 140 24 19 19 sky130_fd_sc_hd__o211ai_1
* cell instance $460 m0 *1 64.86,13.6
X$460 19 140 129 36 88 24 24 19 sky130_fd_sc_hd__a21boi_2
* cell instance $461 m0 *1 69,13.6
X$461 24 34 30 114 19 24 19 sky130_fd_sc_hd__or2_0
* cell instance $469 m0 *1 87.86,13.6
X$469 24 149 107 130 19 24 112 19 sky130_fd_sc_hd__a21oi_1
* cell instance $470 m0 *1 89.7,13.6
X$470 24 89 24 19 53 19 sky130_fd_sc_hd__buf_4
* cell instance $471 m0 *1 92.46,13.6
X$471 24 132 136 111 19 24 19 sky130_fd_sc_hd__nor2_1
* cell instance $472 m0 *1 93.84,13.6
X$472 24 54 102 135 19 24 19 sky130_fd_sc_hd__nand2b_1
* cell instance $473 m0 *1 96.14,13.6
X$473 19 94 113 110 108 56 70 24 24 19 sky130_fd_sc_hd__a221o_1
* cell instance $475 m0 *1 103.5,13.6
X$475 24 88 50 109 24 19 19 sky130_fd_sc_hd__nand2_1
* cell instance $477 m0 *1 105.8,13.6
X$477 19 355 88 134 109 107 24 24 19 sky130_fd_sc_hd__o211ai_2
* cell instance $482 r0 *1 1.38,13.6
X$482 19 29 115 24 24 19 sky130_fd_sc_hd__buf_6
* cell instance $483 r0 *1 5.52,13.6
X$483 19 116 117 158 24 159 24 19 sky130_fd_sc_hd__mux2i_2
* cell instance $484 r0 *1 10.58,13.6
X$484 24 118 24 19 160 19 sky130_fd_sc_hd__buf_4
* cell instance $487 r0 *1 15.64,13.6
X$487 19 92 162 120 93 24 24 19 sky130_fd_sc_hd__mux2i_4
* cell instance $488 r0 *1 23.92,13.6
X$488 24 116 121 252 19 24 19 sky130_fd_sc_hd__nand2b_1
* cell instance $489 r0 *1 26.22,13.6
X$489 19 48 144 85 37 24 24 19 sky130_fd_sc_hd__mux2i_4
* cell instance $490 r0 *1 34.5,13.6
X$490 19 61 124 144 47 24 24 19 sky130_fd_sc_hd__mux2i_4
* cell instance $493 r0 *1 43.24,13.6
X$493 19 137 82 123 73 24 24 19 sky130_fd_sc_hd__ha_2
* cell instance $494 r0 *1 48.76,13.6
X$494 24 26 46 166 24 19 19 sky130_fd_sc_hd__nand2_1
* cell instance $495 r0 *1 50.14,13.6
X$495 24 126 48 167 19 24 19 sky130_fd_sc_hd__nor2_1
* cell instance $497 r0 *1 53.82,13.6
X$497 19 53 127 168 24 164 24 19 sky130_fd_sc_hd__mux2i_2
* cell instance $499 r0 *1 62.56,13.6
X$499 24 54 146 188 24 19 19 sky130_fd_sc_hd__nand2_1
* cell instance $506 r0 *1 70.84,13.6
X$506 24 148 83 185 24 19 19 sky130_fd_sc_hd__and2_0
* cell instance $507 r0 *1 73.14,13.6
X$507 24 34 24 19 138 19 sky130_fd_sc_hd__inv_1
* cell instance $508 r0 *1 74.52,13.6
X$508 24 28 24 19 77 19 sky130_fd_sc_hd__buf_4
* cell instance $509 r0 *1 77.28,13.6
X$509 19 19 148 24 52 27 24 sky130_fd_sc_hd__nor2_2
* cell instance $513 r0 *1 84.18,13.6
X$513 24 148 333 107 130 24 152 19 19 sky130_fd_sc_hd__a211o_1
* cell instance $515 r0 *1 88.32,13.6
X$515 19 150 127 163 135 161 97 24 24 19 sky130_fd_sc_hd__o2111ai_4
* cell instance $518 r0 *1 98.44,13.6
X$518 24 50 132 227 275 19 24 155 19 sky130_fd_sc_hd__a31oi_1
* cell instance $519 r0 *1 100.74,13.6
X$519 24 128 151 157 19 24 19 sky130_fd_sc_hd__nor2_1
* cell instance $523 r0 *1 108.56,13.6
X$523 24 153 24 19 28 19 sky130_fd_sc_hd__clkbuf_2
* cell instance $524 r0 *1 110.4,13.6
X$524 24 154 24 19 51 19 sky130_fd_sc_hd__clkbuf_2
* cell instance $534 m0 *1 5.52,19.04
X$534 19 177 158 156 118 24 24 19 sky130_fd_sc_hd__mux2i_1
* cell instance $535 m0 *1 9.2,19.04
X$535 19 158 120 117 143 24 24 19 sky130_fd_sc_hd__mux2i_4
* cell instance $536 m0 *1 17.48,19.04
X$536 24 73 181 337 24 19 19 sky130_fd_sc_hd__nand2_1
* cell instance $538 m0 *1 19.32,19.04
X$538 19 120 147 171 106 24 24 19 sky130_fd_sc_hd__mux2i_4
* cell instance $539 m0 *1 27.6,19.04
X$539 24 139 172 183 19 24 19 sky130_fd_sc_hd__nor2_1
* cell instance $542 m0 *1 29.9,19.04
X$542 19 126 168 125 22 103 60 105 24 24 19 sky130_fd_sc_hd__mux4_1
* cell instance $543 m0 *1 39.56,19.04
X$543 24 42 187 61 24 122 19 19 sky130_fd_sc_hd__a21oi_2
* cell instance $545 m0 *1 43.7,19.04
X$545 19 167 37 104 107 24 24 19 sky130_fd_sc_hd__o21ai_4
* cell instance $546 m0 *1 54.74,19.04
X$546 24 160 145 146 19 24 19 sky130_fd_sc_hd__nor2_1
* cell instance $550 m0 *1 57.5,19.04
X$550 24 160 128 145 24 19 81 19 sky130_fd_sc_hd__o21ai_1
* cell instance $552 m0 *1 60.26,19.04
X$552 24 132 124 188 19 165 24 19 sky130_fd_sc_hd__o21ai_2
* cell instance $555 m0 *1 66.24,19.04
X$555 24 88 141 182 24 19 19 sky130_fd_sc_hd__nand2_1
* cell instance $558 m0 *1 69,19.04
X$558 24 147 24 19 175 19 sky130_fd_sc_hd__inv_1
* cell instance $561 m0 *1 71.76,19.04
X$561 19 175 185 186 113 94 184 24 24 19 sky130_fd_sc_hd__a221oi_4
* cell instance $567 m0 *1 86.02,19.04
X$567 24 148 24 19 132 19 sky130_fd_sc_hd__buf_4
* cell instance $571 m0 *1 94.76,19.04
X$571 24 128 24 19 57 19 sky130_fd_sc_hd__buf_4
* cell instance $574 m0 *1 98.9,19.04
X$574 24 139 210 179 19 24 19 sky130_fd_sc_hd__nor2_1
* cell instance $575 m0 *1 100.28,19.04
X$575 19 178 149 179 157 155 152 24 24 19 sky130_fd_sc_hd__o311a_1
* cell instance $576 m0 *1 103.96,19.04
X$576 24 78 131 276 134 24 19 19 sky130_fd_sc_hd__nand3_1
* cell instance $582 r0 *1 5.52,19.04
X$582 19 92 180 189 37 24 24 19 sky130_fd_sc_hd__mux2i_4
* cell instance $583 r0 *1 13.8,19.04
X$583 24 93 43 200 19 24 19 sky130_fd_sc_hd__nor2_1
* cell instance $586 r0 *1 15.64,19.04
X$586 19 255 43 204 20 24 24 19 sky130_fd_sc_hd__mux2i_4
* cell instance $587 r0 *1 23.92,19.04
X$587 19 171 210 190 106 24 24 19 sky130_fd_sc_hd__mux2i_4
* cell instance $588 r0 *1 32.2,19.04
X$588 19 211 170 201 160 24 24 19 sky130_fd_sc_hd__mux2i_1
* cell instance $590 r0 *1 36.8,19.04
X$590 19 173 31 169 166 24 24 19 sky130_fd_sc_hd__a21oi_4
* cell instance $593 r0 *1 47.38,19.04
X$593 24 31 66 192 19 24 19 sky130_fd_sc_hd__nor2_1
* cell instance $594 r0 *1 48.76,19.04
X$594 19 19 214 24 101 192 24 sky130_fd_sc_hd__nor2_2
* cell instance $595 r0 *1 56.12,19.04
X$595 24 59 19 103 24 19 sky130_fd_sc_hd__clkbuf_4
* cell instance $596 r0 *1 58.88,19.04
X$596 24 148 19 212 24 19 sky130_fd_sc_hd__clkbuf_4
* cell instance $597 r0 *1 61.64,19.04
X$597 24 128 162 231 19 24 19 sky130_fd_sc_hd__nor2_1
* cell instance $598 r0 *1 63.02,19.04
X$598 19 132 67 209 162 97 24 24 19 sky130_fd_sc_hd__o2bb2ai_2
* cell instance $603 r0 *1 74.52,19.04
X$603 24 207 184 208 24 19 19 sky130_fd_sc_hd__nand2_1
* cell instance $604 r0 *1 75.9,19.04
X$604 24 207 174 208 195 206 24 19 19 sky130_fd_sc_hd__o211ai_1
* cell instance $607 r0 *1 80.96,19.04
X$607 24 195 205 182 176 203 24 19 19 sky130_fd_sc_hd__o211ai_1
* cell instance $610 r0 *1 87.86,19.04
X$610 24 71 24 19 195 19 sky130_fd_sc_hd__buf_4
* cell instance $612 r0 *1 91.54,19.04
X$612 24 195 136 194 176 199 24 19 19 sky130_fd_sc_hd__o211ai_1
* cell instance $613 r0 *1 94.3,19.04
X$613 19 198 102 127 88 24 24 19 sky130_fd_sc_hd__mux2i_1
* cell instance $619 r0 *1 101.66,19.04
X$619 24 139 19 176 24 19 sky130_fd_sc_hd__clkbuf_4
* cell instance $632 m0 *1 1.38,24.48
X$632 19 233 171 215 118 24 24 19 sky130_fd_sc_hd__mux2i_4
* cell instance $633 m0 *1 12.42,24.48
X$633 19 156 190 158 20 24 24 19 sky130_fd_sc_hd__mux2i_4
* cell instance $634 m0 *1 20.7,24.48
X$634 19 216 230 73 127 24 24 19 sky130_fd_sc_hd__o21ai_4
* cell instance $635 m0 *1 26.68,24.48
X$635 24 218 217 253 19 24 19 sky130_fd_sc_hd__nand2b_1
* cell instance $638 m0 *1 29.9,24.48
X$638 19 219 121 117 118 24 24 19 sky130_fd_sc_hd__mux2i_1
* cell instance $640 m0 *1 34.04,24.48
X$640 19 191 184 238 93 24 24 19 sky130_fd_sc_hd__mux2i_4
* cell instance $642 m0 *1 42.78,24.48
X$642 19 194 73 53 220 221 24 24 19 sky130_fd_sc_hd__o211ai_2
* cell instance $644 m0 *1 47.84,24.48
X$644 19 53 147 301 24 258 24 19 sky130_fd_sc_hd__mux2i_2
* cell instance $645 m0 *1 52.9,24.48
X$645 24 212 184 284 24 19 19 sky130_fd_sc_hd__nand2_1
* cell instance $649 m0 *1 57.04,24.48
X$649 24 139 19 207 24 19 sky130_fd_sc_hd__clkbuf_4
* cell instance $651 m0 *1 63.48,24.48
X$651 24 231 142 257 19 24 222 19 sky130_fd_sc_hd__a21oi_1
* cell instance $652 m0 *1 65.32,24.48
X$652 24 142 147 242 24 19 19 sky130_fd_sc_hd__nand2_1
* cell instance $654 m0 *1 67.62,24.48
X$654 19 19 223 24 224 148 24 sky130_fd_sc_hd__nor2_2
* cell instance $658 m0 *1 75.9,24.48
X$658 24 207 208 174 24 19 254 19 sky130_fd_sc_hd__o21ai_1
* cell instance $660 m0 *1 78.2,24.48
X$660 19 195 57 214 269 206 24 24 19 sky130_fd_sc_hd__o31ai_2
* cell instance $661 m0 *1 82.8,24.48
X$661 24 225 224 227 19 24 19 sky130_fd_sc_hd__nor2_1
* cell instance $665 m0 *1 87.4,24.48
X$665 24 176 226 203 24 250 19 19 sky130_fd_sc_hd__o21ai_0
* cell instance $667 m0 *1 89.7,24.48
X$667 24 53 202 197 24 19 226 19 sky130_fd_sc_hd__o21ai_1
* cell instance $668 m0 *1 91.54,24.48
X$668 24 88 136 194 57 228 24 19 19 sky130_fd_sc_hd__o211ai_1
* cell instance $670 m0 *1 94.76,24.48
X$670 24 229 228 164 24 19 249 19 sky130_fd_sc_hd__o21ai_1
* cell instance $671 m0 *1 96.6,24.48
X$671 24 176 199 198 24 19 248 19 sky130_fd_sc_hd__o21ai_1
* cell instance $672 m0 *1 98.44,24.48
X$672 19 227 247 24 24 19 sky130_fd_sc_hd__buf_6
* cell instance $675 m0 *1 103.96,24.48
X$675 24 78 19 229 24 19 sky130_fd_sc_hd__clkbuf_4
* cell instance $682 r0 *1 1.84,24.48
X$682 19 118 215 233 24 234 24 19 sky130_fd_sc_hd__mux2i_2
* cell instance $683 r0 *1 6.9,24.48
X$683 19 234 136 159 93 24 24 19 sky130_fd_sc_hd__mux2i_4
* cell instance $688 r0 *1 15.64,24.48
X$688 19 279 235 180 93 24 24 19 sky130_fd_sc_hd__mux2i_4
* cell instance $689 r0 *1 23.92,24.48
X$689 19 230 201 31 252 105 24 24 19 sky130_fd_sc_hd__o211ai_2
* cell instance $691 r0 *1 28.98,24.48
X$691 19 238 255 262 20 24 24 19 sky130_fd_sc_hd__mux2_1
* cell instance $692 r0 *1 40.48,24.48
X$692 19 19 239 24 75 144 24 sky130_fd_sc_hd__nor2_2
* cell instance $697 r0 *1 43.24,24.48
X$697 24 37 24 19 139 19 sky130_fd_sc_hd__buf_4
* cell instance $699 r0 *1 46.46,24.48
X$699 24 142 263 45 19 24 19 sky130_fd_sc_hd__nor2_1
* cell instance $700 r0 *1 47.84,24.48
X$700 24 73 221 259 24 19 19 sky130_fd_sc_hd__nand2_1
* cell instance $701 r0 *1 49.22,24.48
X$701 24 53 264 259 202 24 19 19 sky130_fd_sc_hd__nand3_1
* cell instance $702 r0 *1 51.06,24.48
X$702 24 116 24 19 105 19 sky130_fd_sc_hd__buf_4
* cell instance $704 r0 *1 54.74,24.48
X$704 24 246 146 241 19 24 240 19 sky130_fd_sc_hd__a21oi_1
* cell instance $705 r0 *1 56.58,24.48
X$705 19 124 240 266 244 235 223 24 24 19 sky130_fd_sc_hd__a221oi_4
* cell instance $706 r0 *1 66.24,24.48
X$706 24 257 94 282 24 19 19 sky130_fd_sc_hd__and2_1
* cell instance $707 r0 *1 68.54,24.48
X$707 24 273 53 242 19 24 243 19 sky130_fd_sc_hd__a21oi_1
* cell instance $712 r0 *1 70.84,24.48
X$712 24 243 207 281 19 24 256 19 sky130_fd_sc_hd__a21oi_1
* cell instance $714 r0 *1 74.52,24.48
X$714 19 244 254 268 256 225 24 24 19 sky130_fd_sc_hd__a211oi_4
* cell instance $716 r0 *1 82.8,24.48
X$716 19 251 245 205 71 24 24 19 sky130_fd_sc_hd__mux2i_1
* cell instance $717 r0 *1 86.48,24.48
X$717 24 78 251 272 19 24 19 sky130_fd_sc_hd__nand2b_1
* cell instance $720 r0 *1 90.16,24.48
X$720 24 246 136 280 24 19 19 sky130_fd_sc_hd__nand2_1
* cell instance $722 r0 *1 95.22,24.48
X$722 24 247 24 19 150 19 sky130_fd_sc_hd__buf_4
* cell instance $733 m0 *1 1.38,29.92
X$733 19 277 41 121 133 24 24 19 sky130_fd_sc_hd__mux2i_4
* cell instance $734 m0 *1 9.66,29.92
X$734 19 37 41 190 24 279 24 19 sky130_fd_sc_hd__mux2i_2
* cell instance $735 m0 *1 14.72,29.92
X$735 24 42 44 180 24 297 19 19 sky130_fd_sc_hd__a21oi_2
* cell instance $736 m0 *1 17.94,29.92
X$736 19 20 260 233 24 189 24 19 sky130_fd_sc_hd__mux2i_2
* cell instance $738 m0 *1 23.46,29.92
X$738 19 143 255 262 24 216 24 19 sky130_fd_sc_hd__mux2i_2
* cell instance $741 m0 *1 29.44,29.92
X$741 19 21 262 255 143 24 24 19 sky130_fd_sc_hd__mux2i_1
* cell instance $742 m0 *1 33.12,29.92
X$742 24 190 31 261 19 24 19 sky130_fd_sc_hd__or2_0
* cell instance $743 m0 *1 35.42,29.92
X$743 19 205 219 216 126 24 24 19 sky130_fd_sc_hd__mux2_1
* cell instance $745 m0 *1 40.48,29.92
X$745 24 75 74 238 24 278 19 19 sky130_fd_sc_hd__a21oi_2
* cell instance $746 m0 *1 43.7,29.92
X$746 24 42 211 264 24 19 19 sky130_fd_sc_hd__nand2_1
* cell instance $748 m0 *1 45.54,29.92
X$748 19 160 79 204 24 221 24 19 sky130_fd_sc_hd__mux2i_2
* cell instance $749 m0 *1 50.6,29.92
X$749 24 200 31 191 19 24 257 19 sky130_fd_sc_hd__a21oi_1
* cell instance $750 m0 *1 52.44,29.92
X$750 24 229 284 302 265 24 19 19 sky130_fd_sc_hd__nand3_1
* cell instance $754 m0 *1 57.04,29.92
X$754 19 382 229 283 265 258 24 24 19 sky130_fd_sc_hd__o211ai_2
* cell instance $757 m0 *1 67.16,29.92
X$757 24 291 273 214 267 281 19 24 19 sky130_fd_sc_hd__o22ai_1
* cell instance $758 m0 *1 69.46,29.92
X$758 24 224 71 267 24 19 19 sky130_fd_sc_hd__nand2_1
* cell instance $762 m0 *1 75.9,29.92
X$762 24 224 19 273 24 19 sky130_fd_sc_hd__clkbuf_4
* cell instance $765 m0 *1 80.04,29.92
X$765 19 246 270 225 24 24 19 sky130_fd_sc_hd__nor2_4
* cell instance $767 m0 *1 84.64,29.92
X$767 19 207 271 247 251 24 24 19 sky130_fd_sc_hd__and3_1
* cell instance $769 m0 *1 87.4,29.92
X$769 19 400 229 150 272 226 24 24 19 sky130_fd_sc_hd__o211ai_2
* cell instance $771 m0 *1 92.92,29.92
X$771 24 57 280 274 19 24 318 19 sky130_fd_sc_hd__a21oi_1
* cell instance $772 m0 *1 94.76,29.92
X$772 24 273 88 55 274 24 19 19 sky130_fd_sc_hd__nand3_1
* cell instance $774 m0 *1 97.06,29.92
X$774 19 293 131 270 113 275 24 24 19 sky130_fd_sc_hd__a31o_1
* cell instance $776 m0 *1 103.96,29.92
X$776 19 132 173 294 276 239 24 24 19 sky130_fd_sc_hd__a22oi_2
* cell instance $782 r0 *1 1.38,29.92
X$782 19 215 92 285 133 24 24 19 sky130_fd_sc_hd__mux2i_4
* cell instance $783 r0 *1 9.66,29.92
X$783 19 193 295 296 319 24 24 19 sky130_fd_sc_hd__mux2_2
* cell instance $784 r0 *1 13.8,29.92
X$784 24 73 305 320 24 19 19 sky130_fd_sc_hd__nand2_1
* cell instance $787 r0 *1 15.64,29.92
X$787 19 263 291 289 31 24 24 19 sky130_fd_sc_hd__mux2i_4
* cell instance $788 r0 *1 23.92,29.92
X$788 19 289 260 298 20 24 24 19 sky130_fd_sc_hd__mux2_1
* cell instance $789 r0 *1 28.06,29.92
X$789 19 191 201 121 20 24 24 19 sky130_fd_sc_hd__mux2_1
* cell instance $790 r0 *1 32.2,29.92
X$790 24 60 160 286 31 287 24 19 19 sky130_fd_sc_hd__o211ai_1
* cell instance $791 r0 *1 34.96,29.92
X$791 24 31 308 287 24 300 19 19 sky130_fd_sc_hd__o21ai_0
* cell instance $792 r0 *1 36.8,29.92
X$792 19 288 65 170 116 24 24 19 sky130_fd_sc_hd__mux2i_1
* cell instance $793 r0 *1 40.48,29.92
X$793 24 93 288 220 19 24 19 sky130_fd_sc_hd__nand2b_1
* cell instance $796 r0 *1 43.24,29.92
X$796 24 31 263 307 24 19 19 sky130_fd_sc_hd__nand2_1
* cell instance $797 r0 *1 44.62,29.92
X$797 24 47 289 236 24 19 19 sky130_fd_sc_hd__nand2_1
* cell instance $798 r0 *1 46,29.92
X$798 24 73 309 310 19 24 19 sky130_fd_sc_hd__nor2_1
* cell instance $799 r0 *1 47.38,29.92
X$799 24 31 288 311 19 24 19 sky130_fd_sc_hd__nor2_1
* cell instance $800 r0 *1 48.76,29.92
X$800 24 20 24 19 218 19 sky130_fd_sc_hd__buf_4
* cell instance $801 r0 *1 51.52,29.92
X$801 24 195 291 302 24 19 19 sky130_fd_sc_hd__nand2_1
* cell instance $803 r0 *1 53.36,29.92
X$803 24 212 291 321 24 19 19 sky130_fd_sc_hd__nand2_1
* cell instance $806 r0 *1 59.34,29.92
X$806 24 176 258 299 19 24 19 sky130_fd_sc_hd__nor2_1
* cell instance $814 r0 *1 72.68,29.92
X$814 24 246 19 283 24 19 sky130_fd_sc_hd__clkbuf_4
* cell instance $817 r0 *1 82.8,29.92
X$817 19 89 244 224 24 24 19 sky130_fd_sc_hd__nor2_4
* cell instance $821 r0 *1 94.76,29.92
X$821 19 292 278 97 210 94 24 24 19 sky130_fd_sc_hd__a2bb2oi_1
* cell instance $826 r0 *1 103.04,29.92
X$826 19 292 294 247 315 293 24 24 19 sky130_fd_sc_hd__a31oi_4
* cell instance $838 m0 *1 1.38,35.36
X$838 19 143 156 336 24 403 24 19 sky130_fd_sc_hd__mux2i_2
* cell instance $839 m0 *1 6.44,35.36
X$839 19 218 217 336 24 303 24 19 sky130_fd_sc_hd__mux2i_2
* cell instance $840 m0 *1 11.5,35.36
X$840 19 303 236 47 151 24 24 19 sky130_fd_sc_hd__o21ai_4
* cell instance $842 m0 *1 17.94,35.36
X$842 19 232 337 261 78 304 24 24 19 sky130_fd_sc_hd__a31oi_2
* cell instance $843 m0 *1 22.54,35.36
X$843 24 339 42 305 19 24 324 19 sky130_fd_sc_hd__a21oi_1
* cell instance $844 m0 *1 24.38,35.36
X$844 19 330 306 307 142 340 24 24 19 sky130_fd_sc_hd__a31oi_2
* cell instance $846 m0 *1 29.44,35.36
X$846 19 263 156 336 118 24 24 19 sky130_fd_sc_hd__mux2_1
* cell instance $847 m0 *1 33.58,35.36
X$847 24 133 24 19 143 19 sky130_fd_sc_hd__buf_4
* cell instance $848 m0 *1 36.34,35.36
X$848 19 308 103 79 116 24 24 19 sky130_fd_sc_hd__mux2i_1
* cell instance $849 m0 *1 40.02,35.36
X$849 24 75 181 306 24 19 19 sky130_fd_sc_hd__nand2_1
* cell instance $850 m0 *1 41.4,35.36
X$850 24 75 308 326 19 24 19 sky130_fd_sc_hd__nor2_1
* cell instance $851 m0 *1 42.78,35.36
X$851 24 142 172 304 19 24 19 sky130_fd_sc_hd__nor2_1
* cell instance $852 m0 *1 44.16,35.36
X$852 19 210 290 325 88 24 24 19 sky130_fd_sc_hd__mux2i_4
* cell instance $854 m0 *1 53.36,35.36
X$854 24 328 301 344 19 24 19 sky130_fd_sc_hd__nor2_1
* cell instance $856 m0 *1 55.2,35.36
X$856 24 229 329 347 19 24 19 sky130_fd_sc_hd__nor2_1
* cell instance $859 m0 *1 58.88,35.36