
* cell parameterized_barrel_rotator
* pin rotate_amount[0]
* pin data_in[14]
* pin data_in[10]
* pin data_in[18]
* pin data_in[8]
* pin data_in[12]
* pin data_in[11]
* pin data_in[3]
* pin data_in[7]
* pin data_in[5]
* pin data_in[9]
* pin data_in[13]
* pin data_in[16]
* pin data_in[15]
* pin data_in[17]
* pin data_in[20]
* pin data_in[19]
* pin data_in[21]
* pin direction
* pin data_in[22]
* pin data_in[6]
* pin rotate_amount[1]
* pin data_in[4]
* pin data_in[30]
* pin data_in[23]
* pin data_in[26]
* pin data_in[27]
* pin data_in[25]
* pin rotate_amount[2]
* pin data_in[24]
* pin data_in[28]
* pin data_in[2]
* pin data_in[29]
* pin data_in[31]
* pin data_in[0]
* pin rotate_amount[4]
* pin data_out[6]
* pin data_out[22]
* pin data_out[24]
* pin data_out[8]
* pin rotate_amount[3]
* pin data_out[7]
* pin data_in[1]
* pin data_out[25]
* pin data_out[15]
* pin data_out[26]
* pin data_out[27]
* pin data_out[16]
* pin data_out[0]
* pin data_out[9]
* pin data_out[23]
* pin data_out[31]
* pin data_out[20]
* pin data_out[4]
* pin data_out[28]
* pin data_out[12]
* pin data_out[30]
* pin data_out[2]
* pin data_out[18]
* pin data_out[10]
* pin data_out[14]
* pin data_out[29]
* pin data_out[13]
* pin data_out[11]
* pin data_out[19]
* pin data_out[3]
* pin data_out[17]
* pin data_out[5]
* pin data_out[21]
* pin data_out[1]
.SUBCKT parameterized_barrel_rotator 1 2 3 4 5 6 7 8 9 10 11 12 13 14 15 126
+ 127 143 152 162 186 220 221 228 240 241 260 261 268 273 274 282 292 298 310
+ 345 353 354 389 407 481 483 486 493 496 500 505 506 507 508 509 510 511 512
+ 513 514 515 516 517 518 519 520 521 522 523 524 525 526 527 528
* net 1 rotate_amount[0]
* net 2 data_in[14]
* net 3 data_in[10]
* net 4 data_in[18]
* net 5 data_in[8]
* net 6 data_in[12]
* net 7 data_in[11]
* net 8 data_in[3]
* net 9 data_in[7]
* net 10 data_in[5]
* net 11 data_in[9]
* net 12 data_in[13]
* net 13 data_in[16]
* net 14 data_in[15]
* net 15 data_in[17]
* net 126 data_in[20]
* net 127 data_in[19]
* net 143 data_in[21]
* net 152 direction
* net 162 data_in[22]
* net 186 data_in[6]
* net 220 rotate_amount[1]
* net 221 data_in[4]
* net 228 data_in[30]
* net 240 data_in[23]
* net 241 data_in[26]
* net 260 data_in[27]
* net 261 data_in[25]
* net 268 rotate_amount[2]
* net 273 data_in[24]
* net 274 data_in[28]
* net 282 data_in[2]
* net 292 data_in[29]
* net 298 data_in[31]
* net 310 data_in[0]
* net 345 rotate_amount[4]
* net 353 data_out[6]
* net 354 data_out[22]
* net 389 data_out[24]
* net 407 data_out[8]
* net 481 rotate_amount[3]
* net 483 data_out[7]
* net 486 data_in[1]
* net 493 data_out[25]
* net 496 data_out[15]
* net 500 data_out[26]
* net 505 data_out[27]
* net 506 data_out[16]
* net 507 data_out[0]
* net 508 data_out[9]
* net 509 data_out[23]
* net 510 data_out[31]
* net 511 data_out[20]
* net 512 data_out[4]
* net 513 data_out[28]
* net 514 data_out[12]
* net 515 data_out[30]
* net 516 data_out[2]
* net 517 data_out[18]
* net 518 data_out[10]
* net 519 data_out[14]
* net 520 data_out[29]
* net 521 data_out[13]
* net 522 data_out[11]
* net 523 data_out[19]
* net 524 data_out[3]
* net 525 data_out[17]
* net 526 data_out[5]
* net 527 data_out[21]
* net 528 data_out[1]
* cell instance $3 r0 *1 7.82,2.72
X$3 33 1 20 18 33 20 sky130_fd_sc_hd__buf_2
* cell instance $6 r0 *1 13.34,2.72
X$6 33 2 33 20 23 20 sky130_fd_sc_hd__clkbuf_2
* cell instance $9 m0 *1 17.48,8.16
X$9 33 3 33 20 49 20 sky130_fd_sc_hd__clkbuf_2
* cell instance $12 r0 *1 11.5,2.72
X$12 33 4 33 20 42 20 sky130_fd_sc_hd__clkbuf_2
* cell instance $15 r0 *1 22.54,2.72
X$15 20 81 5 33 33 20 sky130_fd_sc_hd__dlymetal6s2s_1
* cell instance $18 r0 *1 20.7,2.72
X$18 33 6 33 20 37 20 sky130_fd_sc_hd__clkbuf_2
* cell instance $21 r0 *1 27.14,2.72
X$21 33 7 33 20 17 20 sky130_fd_sc_hd__clkbuf_2
* cell instance $24 r0 *1 33.58,2.72
X$24 33 8 20 120 33 20 sky130_fd_sc_hd__buf_2
* cell instance $27 r0 *1 31.74,2.72
X$27 33 9 33 20 41 20 sky130_fd_sc_hd__clkbuf_2
* cell instance $29 r0 *1 35.42,2.72
X$29 33 10 33 20 39 20 sky130_fd_sc_hd__clkbuf_2
* cell instance $33 r0 *1 38.18,2.72
X$33 33 11 33 20 26 20 sky130_fd_sc_hd__clkbuf_2
* cell instance $36 r0 *1 44.62,2.72
X$36 33 12 33 20 22 20 sky130_fd_sc_hd__clkbuf_2
* cell instance $39 r0 *1 51.06,2.72
X$39 20 27 13 33 33 20 sky130_fd_sc_hd__dlymetal6s2s_1
* cell instance $42 r0 *1 57.04,2.72
X$42 33 14 45 20 33 20 sky130_fd_sc_hd__clkbuf_1
* cell instance $44 r0 *1 58.42,2.72
X$44 20 29 15 33 33 20 sky130_fd_sc_hd__dlymetal6s2s_1
* cell instance $61 r0 *1 40.48,2.72
X$61 33 16 31 25 20 33 20 sky130_fd_sc_hd__nor2b_1
* cell instance $63 r0 *1 43.24,8.16
X$63 20 20 52 33 16 31 33 sky130_fd_sc_hd__nor2_2
* cell instance $66 r0 *1 70.84,8.16
X$66 33 16 33 20 28 20 sky130_fd_sc_hd__buf_4
* cell instance $68 r0 *1 66.24,8.16
X$68 20 85 74 73 16 33 33 20 sky130_fd_sc_hd__mux2_1
* cell instance $71 r0 *1 63.02,2.72
X$71 33 18 33 20 16 20 sky130_fd_sc_hd__buf_4
* cell instance $74 m0 *1 57.04,8.16
X$74 20 75 27 45 16 33 33 20 sky130_fd_sc_hd__mux2_1
* cell instance $77 r0 *1 65.32,13.6
X$77 20 16 84 73 33 112 33 20 sky130_fd_sc_hd__mux2i_2
* cell instance $79 m0 *1 70.84,13.6
X$79 33 16 33 20 132 20 sky130_fd_sc_hd__buf_4
* cell instance $81 m0 *1 60.72,40.8
X$81 20 16 180 264 33 262 33 20 sky130_fd_sc_hd__mux2i_2
* cell instance $83 m0 *1 64.86,35.36
X$83 20 144 239 231 16 33 33 20 sky130_fd_sc_hd__mux2i_4
* cell instance $85 r0 *1 55.66,19.04
X$85 20 16 74 144 33 142 33 20 sky130_fd_sc_hd__mux2i_2
* cell instance $92 r0 *1 44.62,13.6
X$92 33 17 34 78 33 20 20 sky130_fd_sc_hd__nand2_1
* cell instance $94 r0 *1 37.72,13.6
X$94 20 56 26 17 33 121 33 20 sky130_fd_sc_hd__mux2i_2
* cell instance $96 m0 *1 41.4,13.6
X$96 20 17 105 22 83 33 33 20 sky130_fd_sc_hd__mux2i_4
* cell instance $98 r0 *1 29.44,2.72
X$98 33 17 24 38 20 33 20 sky130_fd_sc_hd__nand2b_1
* cell instance $102 r0 *1 26.68,13.6
X$102 33 24 17 110 33 20 20 sky130_fd_sc_hd__nand2_1
* cell instance $113 m0 *1 61.18,8.16
X$113 20 54 42 29 18 33 33 20 sky130_fd_sc_hd__mux2_1
* cell instance $115 r0 *1 11.96,19.04
X$115 33 79 18 33 20 122 20 sky130_fd_sc_hd__and2b_2
* cell instance $117 m0 *1 15.18,24.48
X$117 33 18 20 33 130 20 sky130_fd_sc_hd__inv_2
* cell instance $119 m0 *1 10.58,13.6
X$119 20 95 79 18 33 33 20 sky130_fd_sc_hd__nand2b_2
* cell instance $122 m0 *1 9.2,35.36
X$122 33 203 18 254 33 20 20 sky130_fd_sc_hd__or2_2
* cell instance $125 m0 *1 11.5,35.36
X$125 33 114 18 153 222 33 20 20 sky130_fd_sc_hd__or3_1
* cell instance $134 m0 *1 11.04,19.04
X$134 20 122 94 19 33 33 20 sky130_fd_sc_hd__xnor2_4
* cell instance $152 r0 *1 18.4,46.24
X$152 33 214 19 325 33 20 20 sky130_fd_sc_hd__nand2_1
* cell instance $154 r0 *1 46.92,2.72
X$154 33 25 30 53 19 21 77 20 33 20 sky130_fd_sc_hd__a32oi_1
* cell instance $156 m0 *1 65.32,8.16
X$156 33 19 54 55 33 20 20 sky130_fd_sc_hd__nand2_1
* cell instance $159 r0 *1 70.84,57.12
X$159 33 19 336 399 33 20 20 sky130_fd_sc_hd__nand2_1
* cell instance $161 r0 *1 61.64,8.16
X$161 20 86 75 54 19 33 33 20 sky130_fd_sc_hd__mux2_1
* cell instance $163 r0 *1 70.84,13.6
X$163 33 19 112 55 20 113 33 20 sky130_fd_sc_hd__o21ai_2
* cell instance $165 r0 *1 61.18,57.12
X$165 33 439 397 329 19 20 33 398 20 sky130_fd_sc_hd__a31oi_1
* cell instance $167 r0 *1 63.48,57.12
X$167 33 398 19 421 20 33 431 20 sky130_fd_sc_hd__a21oi_1
* cell instance $170 r0 *1 70.84,51.68
X$170 33 19 239 352 33 20 20 sky130_fd_sc_hd__nand2_1
* cell instance $172 m0 *1 61.18,24.48
X$172 20 161 165 142 19 33 33 20 sky130_fd_sc_hd__mux2i_4
* cell instance $190 r0 *1 17.02,2.72
X$190 20 35 23 49 24 33 33 20 sky130_fd_sc_hd__mux2i_1
* cell instance $196 r0 *1 43.24,2.72
X$196 33 26 25 36 33 20 20 sky130_fd_sc_hd__nand2_1
* cell instance $202 r0 *1 66.24,2.72
X$202 33 28 33 20 21 20 sky130_fd_sc_hd__buf_4
* cell instance $216 m0 *1 1.38,8.16
X$216 20 43 68 40 33 33 20 sky130_fd_sc_hd__xnor2_4
* cell instance $217 m0 *1 11.5,8.16
X$217 33 24 23 57 33 20 20 sky130_fd_sc_hd__and2_0
* cell instance $218 m0 *1 13.8,8.16
X$218 20 58 23 42 24 33 33 20 sky130_fd_sc_hd__mux2i_1
* cell instance $220 m0 *1 19.78,8.16
X$220 33 43 46 35 59 20 33 20 sky130_fd_sc_hd__nor3_1
* cell instance $222 m0 *1 22.54,8.16
X$222 20 61 91 92 32 33 33 20 sky130_fd_sc_hd__mux2_1
* cell instance $223 m0 *1 26.68,8.16
X$223 33 41 24 64 20 33 20 sky130_fd_sc_hd__nand2b_1
* cell instance $226 m0 *1 29.9,8.16
X$226 33 43 38 66 20 33 63 20 sky130_fd_sc_hd__a21oi_1
* cell instance $229 m0 *1 33.12,8.16
X$229 20 147 47 67 32 33 33 20 sky130_fd_sc_hd__mux2_1
* cell instance $230 m0 *1 37.26,8.16
X$230 33 40 20 72 33 20 sky130_fd_sc_hd__clkbuf_4
* cell instance $232 m0 *1 40.94,8.16
X$232 20 44 36 65 34 33 33 20 sky130_fd_sc_hd__mux2_1
* cell instance $233 m0 *1 45.08,8.16
X$233 20 40 37 27 33 53 33 20 sky130_fd_sc_hd__mux2i_2
* cell instance $234 m0 *1 50.14,8.16
X$234 20 30 22 29 60 33 33 20 sky130_fd_sc_hd__mux2i_1
* cell instance $235 m0 *1 53.82,8.16
X$235 33 32 20 34 33 20 sky130_fd_sc_hd__clkbuf_4
* cell instance $237 m0 *1 66.7,8.16
X$237 20 82 56 33 33 20 sky130_fd_sc_hd__buf_6
* cell instance $238 m0 *1 70.84,8.16
X$238 33 127 33 20 84 20 sky130_fd_sc_hd__clkbuf_2
* cell instance $243 r0 *1 3.68,8.16
X$243 33 68 20 33 48 20 sky130_fd_sc_hd__inv_2
* cell instance $244 r0 *1 5.06,8.16
X$244 20 43 48 32 33 33 20 sky130_fd_sc_hd__xnor2_4
* cell instance $247 r0 *1 15.64,8.16
X$247 33 48 49 57 20 33 50 20 sky130_fd_sc_hd__a21o_1
* cell instance $248 r0 *1 18.4,8.16
X$248 33 50 96 21 59 20 33 69 20 sky130_fd_sc_hd__a31oi_1
* cell instance $249 r0 *1 20.7,8.16
X$249 20 61 69 44 70 33 80 33 20 sky130_fd_sc_hd__nand4_2
* cell instance $250 r0 *1 25.3,8.16
X$250 33 43 110 64 20 33 51 20 sky130_fd_sc_hd__a21boi_0
* cell instance $251 r0 *1 28.06,8.16
X$251 33 51 63 52 33 70 20 20 sky130_fd_sc_hd__o21ai_0
* cell instance $253 r0 *1 30.36,8.16
X$253 33 24 41 66 33 20 20 sky130_fd_sc_hd__nand2_1
* cell instance $255 r0 *1 32.66,8.16
X$255 33 39 52 47 33 20 20 sky130_fd_sc_hd__nand2_1
* cell instance $256 r0 *1 34.04,8.16
X$256 20 41 90 26 82 33 33 20 sky130_fd_sc_hd__mux2i_4
* cell instance $260 r0 *1 45.54,8.16
X$260 33 52 78 71 62 33 20 20 sky130_fd_sc_hd__nand3_1
* cell instance $261 r0 *1 47.38,8.16
X$261 20 89 88 77 62 33 33 20 sky130_fd_sc_hd__and3_1
* cell instance $262 r0 *1 49.68,8.16
X$262 33 45 72 71 33 20 20 sky130_fd_sc_hd__nand2_1
* cell instance $263 r0 *1 51.06,8.16
X$263 33 40 33 20 60 20 sky130_fd_sc_hd__buf_4
* cell instance $264 r0 *1 53.82,8.16
X$264 20 118 29 45 83 33 33 20 sky130_fd_sc_hd__mux2_1
* cell instance $265 r0 *1 57.96,8.16
X$265 20 76 42 73 56 33 33 20 sky130_fd_sc_hd__mux2i_1
* cell instance $277 m0 *1 1.84,13.6
X$277 33 68 20 24 33 20 sky130_fd_sc_hd__buf_2
* cell instance $279 m0 *1 5.52,13.6
X$279 33 79 93 100 20 33 20 sky130_fd_sc_hd__nand2b_1
* cell instance $280 m0 *1 7.82,13.6
X$280 33 100 20 43 33 20 sky130_fd_sc_hd__clkbuf_4
* cell instance $283 m0 *1 15.18,13.6
X$283 20 46 97 48 57 43 42 33 33 20 sky130_fd_sc_hd__a2111oi_0
* cell instance $284 m0 *1 18.4,13.6
X$284 33 58 96 21 97 20 33 89 20 sky130_fd_sc_hd__a31oi_1
* cell instance $285 m0 *1 20.7,13.6
X$285 33 87 49 101 33 20 20 sky130_fd_sc_hd__nand2_1
* cell instance $286 m0 *1 22.08,13.6
X$286 33 28 87 46 33 20 20 sky130_fd_sc_hd__nand2_1
* cell instance $287 m0 *1 23.46,13.6
X$287 33 28 81 98 91 33 20 20 sky130_fd_sc_hd__nand3_1
* cell instance $289 m0 *1 26.22,13.6
X$289 33 28 37 98 92 33 20 20 sky130_fd_sc_hd__nand3_1
* cell instance $292 m0 *1 29.44,13.6
X$292 33 51 63 25 33 104 20 20 sky130_fd_sc_hd__o21ai_0
* cell instance $294 m0 *1 33.12,13.6
X$294 20 39 99 41 82 33 33 20 sky130_fd_sc_hd__mux2i_4
* cell instance $295 m0 *1 49.68,13.6
X$295 20 82 22 45 33 103 33 20 sky130_fd_sc_hd__mux2i_2
* cell instance $300 m0 *1 58.42,13.6
X$300 20 160 42 73 87 33 33 20 sky130_fd_sc_hd__mux2i_1
* cell instance $302 m0 *1 62.56,13.6
X$302 20 29 137 84 82 33 33 20 sky130_fd_sc_hd__mux2i_4
* cell instance $305 r0 *1 5.06,13.6
X$305 20 79 94 98 33 33 20 sky130_fd_sc_hd__xor2_4
* cell instance $309 r0 *1 15.64,13.6
X$309 33 114 106 87 107 33 20 20 sky130_fd_sc_hd__nand3_1
* cell instance $310 r0 *1 17.48,13.6
X$310 33 114 87 107 33 96 20 20 sky130_fd_sc_hd__o21ai_0
* cell instance $312 r0 *1 20.24,13.6
X$312 33 95 101 108 20 33 109 20 sky130_fd_sc_hd__a21oi_1
* cell instance $313 r0 *1 22.08,13.6
X$313 33 37 31 108 20 33 20 sky130_fd_sc_hd__nand2b_1
* cell instance $314 r0 *1 24.38,13.6
X$314 33 49 31 115 20 33 20 sky130_fd_sc_hd__nand2b_1
* cell instance $316 r0 *1 28.98,13.6
X$316 20 82 81 49 33 119 33 20 sky130_fd_sc_hd__mux2i_2
* cell instance $318 r0 *1 34.96,13.6
X$318 33 26 52 67 33 20 20 sky130_fd_sc_hd__nand2_1
* cell instance $324 r0 *1 43.24,13.6
X$324 33 22 25 65 33 20 20 sky130_fd_sc_hd__nand2_1
* cell instance $325 r0 *1 46,13.6
X$325 20 125 37 23 56 33 33 20 sky130_fd_sc_hd__mux2i_1
* cell instance $327 r0 *1 50.6,13.6
X$327 20 111 23 27 87 33 33 20 sky130_fd_sc_hd__mux2i_1
* cell instance $329 r0 *1 55.2,13.6
X$329 20 117 23 27 56 33 33 20 sky130_fd_sc_hd__mux2i_1
* cell instance $330 r0 *1 58.88,13.6
X$330 20 102 86 116 34 33 33 20 sky130_fd_sc_hd__mux2_1
* cell instance $342 m0 *1 6.44,19.04
X$342 33 79 33 20 114 20 sky130_fd_sc_hd__buf_4
* cell instance $346 m0 *1 22.54,19.04
X$346 33 87 37 123 33 20 20 sky130_fd_sc_hd__nand2_1
* cell instance $348 m0 *1 24.38,19.04
X$348 33 122 115 123 20 33 124 20 sky130_fd_sc_hd__a21oi_1
* cell instance $349 m0 *1 26.22,19.04
X$349 33 124 109 132 72 145 33 20 20 sky130_fd_sc_hd__o211ai_1
* cell instance $351 m0 *1 29.44,19.04
X$351 20 139 49 23 60 33 33 20 sky130_fd_sc_hd__mux2i_1
* cell instance $353 m0 *1 34.04,19.04
X$353 20 120 129 39 82 33 33 20 sky130_fd_sc_hd__mux2i_4
* cell instance $356 m0 *1 43.7,19.04
X$356 20 20 176 33 130 32 33 sky130_fd_sc_hd__nor2_2
* cell instance $357 m0 *1 46,19.04
X$357 20 56 27 42 33 138 33 20 sky130_fd_sc_hd__mux2i_2
* cell instance $359 m0 *1 51.98,19.04
X$359 20 73 126 33 33 20 sky130_fd_sc_hd__dlymetal6s2s_1
* cell instance $361 m0 *1 57.04,19.04
X$361 20 76 137 128 32 117 135 103 33 33 20 sky130_fd_sc_hd__mux4_2
* cell instance $363 m0 *1 65.78,19.04
X$363 20 84 136 74 83 33 33 20 sky130_fd_sc_hd__mux2i_4
* cell instance $367 r0 *1 6.44,19.04
X$367 33 93 20 106 33 20 sky130_fd_sc_hd__clkbuf_4
* cell instance $368 r0 *1 9.2,19.04
X$368 33 164 33 20 94 20 sky130_fd_sc_hd__buf_4
* cell instance $371 r0 *1 15.64,19.04
X$371 20 95 94 82 33 33 20 sky130_fd_sc_hd__xnor2_4
* cell instance $372 r0 *1 25.76,19.04
X$372 33 115 123 131 33 20 20 sky130_fd_sc_hd__and2_0
* cell instance $374 r0 *1 28.98,19.04
X$374 20 145 104 170 147 33 146 33 20 sky130_fd_sc_hd__nand4_2
* cell instance $378 r0 *1 36.8,19.04
X$378 33 39 83 207 33 20 20 sky130_fd_sc_hd__nand2_1
* cell instance $379 r0 *1 38.18,19.04
X$379 33 140 125 141 119 33 149 20 20 sky130_fd_sc_hd__a22oi_1
* cell instance $381 r0 *1 41.4,19.04
X$381 33 132 34 140 20 33 20 sky130_fd_sc_hd__nor2_1
* cell instance $384 r0 *1 43.24,19.04
X$384 33 28 60 141 20 33 20 sky130_fd_sc_hd__nor2_1
* cell instance $385 r0 *1 44.62,19.04
X$385 33 135 134 133 150 33 20 20 sky130_fd_sc_hd__nand3_1
* cell instance $386 r0 *1 46.46,19.04
X$386 20 151 131 111 72 33 33 20 sky130_fd_sc_hd__mux2i_1
* cell instance $388 r0 *1 50.6,19.04
X$388 33 132 20 135 33 20 sky130_fd_sc_hd__clkbuf_4
* cell instance $390 r0 *1 53.82,19.04
X$390 33 135 134 118 148 33 20 20 sky130_fd_sc_hd__nand3_1
* cell instance $391 r0 *1 60.72,19.04
X$391 20 116 112 142 56 33 33 20 sky130_fd_sc_hd__mux2i_1
* cell instance $394 r0 *1 65.78,19.04
X$394 20 74 143 33 33 20 sky130_fd_sc_hd__dlymetal6s2s_1
* cell instance $397 r0 *1 70.84,19.04
X$397 33 34 20 134 33 20 sky130_fd_sc_hd__clkbuf_4
* cell instance $405 m0 *1 1.38,24.48
X$405 33 152 20 79 33 20 sky130_fd_sc_hd__buf_2
* cell instance $406 m0 *1 3.22,24.48
X$406 33 79 33 20 171 20 sky130_fd_sc_hd__inv_1
* cell instance $407 m0 *1 4.6,24.48
X$407 33 68 93 163 20 33 20 sky130_fd_sc_hd__nor2_1
* cell instance $408 m0 *1 5.98,24.48
X$408 33 94 203 163 33 20 181 20 sky130_fd_sc_hd__o21ai_1
* cell instance $410 m0 *1 8.28,24.48
X$410 20 164 93 156 166 33 33 20 sky130_fd_sc_hd__ha_1
* cell instance $414 m0 *1 17.02,24.48
X$414 33 81 94 168 20 33 20 sky130_fd_sc_hd__nand2b_1
* cell instance $416 m0 *1 19.78,24.48
X$416 33 95 168 182 20 33 169 20 sky130_fd_sc_hd__a21oi_1
* cell instance $419 m0 *1 23,24.48
X$419 33 153 81 184 33 20 20 sky130_fd_sc_hd__nand2_1
* cell instance $420 m0 *1 24.38,24.48
X$420 33 122 184 155 20 33 154 20 sky130_fd_sc_hd__a21oi_1
* cell instance $421 m0 *1 26.22,24.48
X$421 33 154 169 21 134 170 33 20 20 sky130_fd_sc_hd__o211ai_1
* cell instance $426 m0 *1 32.66,24.48
X$426 33 156 157 149 20 185 33 20 sky130_fd_sc_hd__o21ai_2
* cell instance $427 m0 *1 35.88,24.48
X$427 20 72 121 103 33 157 33 20 sky130_fd_sc_hd__mux2i_2
* cell instance $428 m0 *1 40.94,24.48
X$428 33 140 90 141 129 33 158 20 20 sky130_fd_sc_hd__a22oi_1
* cell instance $429 m0 *1 43.7,24.48
X$429 20 103 137 159 130 125 134 138 33 33 20 sky130_fd_sc_hd__mux4_2
* cell instance $431 m0 *1 52.44,24.48
X$431 20 167 83 33 33 20 sky130_fd_sc_hd__buf_6
* cell instance $433 m0 *1 57.04,24.48
X$433 20 183 160 111 60 33 33 20 sky130_fd_sc_hd__mux2_1
* cell instance $434 m0 *1 69.46,24.48
X$434 20 144 162 33 33 20 sky130_fd_sc_hd__dlymetal6s2s_1
* cell instance $437 r0 *1 2.76,24.48
X$437 20 189 171 130 187 172 181 33 33 20 sky130_fd_sc_hd__a41oi_4
* cell instance $444 r0 *1 15.64,24.48
X$444 33 94 20 153 33 20 sky130_fd_sc_hd__clkbuf_4
* cell instance $445 r0 *1 18.4,24.48
X$445 33 173 94 155 20 33 20 sky130_fd_sc_hd__nand2b_1
* cell instance $446 r0 *1 20.7,24.48
X$446 33 153 173 182 33 20 20 sky130_fd_sc_hd__nand2_1
* cell instance $448 r0 *1 22.54,24.48
X$448 33 154 169 194 20 33 20 sky130_fd_sc_hd__nor2_1
* cell instance $450 r0 *1 24.84,24.48
X$450 33 179 184 155 195 33 20 20 sky130_fd_sc_hd__nand3_1
* cell instance $452 r0 *1 27.14,24.48
X$452 33 174 131 196 33 20 20 sky130_fd_sc_hd__nand2_1
* cell instance $454 r0 *1 30.36,24.48
X$454 33 130 20 175 33 20 sky130_fd_sc_hd__clkbuf_4
* cell instance $455 r0 *1 33.12,24.48
X$455 20 175 202 119 121 133 99 134 33 33 20 sky130_fd_sc_hd__mux4_1
* cell instance $460 r0 *1 43.24,24.48
X$460 33 176 119 200 33 20 20 sky130_fd_sc_hd__nand2_1
* cell instance $461 r0 *1 44.62,24.48
X$461 20 200 197 150 158 33 33 20 sky130_fd_sc_hd__and3_1
* cell instance $462 r0 *1 46.92,24.48
X$462 20 178 137 138 177 198 33 33 20 sky130_fd_sc_hd__o22ai_4
* cell instance $463 r0 *1 54.28,24.48
X$463 33 175 134 177 33 20 20 sky130_fd_sc_hd__nand2_1
* cell instance $464 r0 *1 55.66,24.48
X$464 20 135 148 193 183 188 136 33 33 20 sky130_fd_sc_hd__o221ai_4
* cell instance $465 r0 *1 65.32,24.48
X$465 20 28 190 180 33 191 33 20 sky130_fd_sc_hd__mux2i_2
* cell instance $470 r0 *1 70.84,24.48
X$470 33 34 33 20 179 20 sky130_fd_sc_hd__buf_4
* cell instance $473 m0 *1 2.3,29.92
X$473 33 220 203 20 33 20 sky130_fd_sc_hd__clkbuf_1
* cell instance $474 m0 *1 3.68,29.92
X$474 33 203 94 230 20 33 20 sky130_fd_sc_hd__nor2_1
* cell instance $476 m0 *1 5.52,29.92
X$476 20 189 130 166 48 171 33 33 20 sky130_fd_sc_hd__a31oi_2
* cell instance $477 m0 *1 10.12,29.92
X$477 20 173 186 33 33 20 sky130_fd_sc_hd__dlymetal6s2s_1
* cell instance $479 m0 *1 15.18,29.92
X$479 20 205 133 173 82 33 33 20 sky130_fd_sc_hd__mux2i_4
* cell instance $483 m0 *1 26.68,29.92
X$483 33 156 196 195 206 33 20 20 sky130_fd_sc_hd__nand3_1
* cell instance $487 m0 *1 30.36,29.92
X$487 33 21 216 219 33 20 20 sky130_fd_sc_hd__nand2_1
* cell instance $488 m0 *1 31.74,29.92
X$488 20 219 201 53 139 83 175 33 33 20 sky130_fd_sc_hd__o32ai_1
* cell instance $489 m0 *1 34.96,29.92
X$489 20 188 206 331 105 178 90 33 33 20 sky130_fd_sc_hd__o221ai_4
* cell instance $490 m0 *1 44.62,29.92
X$490 20 218 199 176 118 151 156 33 33 20 sky130_fd_sc_hd__a221oi_2
* cell instance $491 m0 *1 50.14,29.92
X$491 20 215 213 208 40 33 33 20 sky130_fd_sc_hd__mux2_1
* cell instance $493 m0 *1 54.74,29.92
X$493 33 175 212 98 20 33 209 20 sky130_fd_sc_hd__a21oi_1
* cell instance $495 m0 *1 57.04,29.92
X$495 20 60 188 132 33 33 20 sky130_fd_sc_hd__nand2_4
* cell instance $497 m0 *1 62.1,29.92
X$497 20 211 136 160 175 33 33 20 sky130_fd_sc_hd__mux2i_1
* cell instance $498 m0 *1 65.78,29.92
X$498 20 161 192 191 56 33 33 20 sky130_fd_sc_hd__mux2i_4
* cell instance $499 r0 *1 1.38,29.92
X$499 33 24 106 203 243 20 33 20 sky130_fd_sc_hd__nand3b_1
* cell instance $501 r0 *1 4.6,29.92
X$501 20 230 172 68 94 106 33 33 20 sky130_fd_sc_hd__o22ai_2
* cell instance $502 r0 *1 9.2,29.92
X$502 33 203 33 20 166 20 sky130_fd_sc_hd__inv_1
* cell instance $504 r0 *1 11.04,29.92
X$504 20 223 205 204 153 33 33 20 sky130_fd_sc_hd__mux2_1
* cell instance $508 r0 *1 19.32,29.92
X$508 20 82 204 205 33 233 33 20 sky130_fd_sc_hd__mux2i_2
* cell instance $509 r0 *1 24.38,29.92
X$509 33 153 33 20 31 20 sky130_fd_sc_hd__buf_4
* cell instance $510 r0 *1 27.14,29.92
X$510 20 235 223 217 40 33 33 20 sky130_fd_sc_hd__mux2_1
* cell instance $512 r0 *1 31.74,29.92
X$512 33 156 201 157 33 247 20 20 sky130_fd_sc_hd__a21oi_2
* cell instance $513 r0 *1 34.96,29.92
X$513 33 175 20 156 33 20 sky130_fd_sc_hd__clkbuf_4
* cell instance $515 r0 *1 38.64,29.92
X$515 33 207 251 236 33 20 20 sky130_fd_sc_hd__nand2_1
* cell instance $516 r0 *1 40.02,29.92
X$516 33 156 174 105 218 20 33 20 sky130_fd_sc_hd__nor3_1
* cell instance $520 r0 *1 43.24,29.92
X$520 20 21 225 437 215 188 232 33 33 20 sky130_fd_sc_hd__o221ai_4
* cell instance $521 r0 *1 52.9,29.92
X$521 20 226 212 214 98 33 33 20 sky130_fd_sc_hd__mux2_1
* cell instance $522 r0 *1 57.04,29.92
X$522 20 134 192 116 33 227 33 20 sky130_fd_sc_hd__mux2i_2
* cell instance $523 r0 *1 62.1,29.92
X$523 20 190 238 264 31 33 33 20 sky130_fd_sc_hd__mux2i_4
* cell instance $526 r0 *1 70.84,29.92
X$526 33 175 209 208 33 210 20 20 sky130_fd_sc_hd__a21oi_2
* cell instance $533 m0 *1 1.38,35.36
X$533 20 311 222 242 243 244 33 33 20 sky130_fd_sc_hd__a211oi_2
* cell instance $535 m0 *1 6.44,35.36
X$535 33 222 106 166 245 20 33 20 sky130_fd_sc_hd__nand3b_1
* cell instance $536 m0 *1 13.8,35.36
X$536 20 167 153 114 33 33 20 sky130_fd_sc_hd__xnor2_2
* cell instance $538 m0 *1 20.24,35.36
X$538 20 204 232 205 83 33 33 20 sky130_fd_sc_hd__mux2i_4
* cell instance $541 m0 *1 29.44,35.36
X$541 20 224 234 120 82 33 33 20 sky130_fd_sc_hd__mux2i_4
* cell instance $542 m0 *1 37.72,35.36
X$542 20 249 252 156 235 236 176 33 33 20 sky130_fd_sc_hd__a221oi_2
* cell instance $543 m0 *1 43.24,35.36
X$543 20 213 224 120 31 33 33 20 sky130_fd_sc_hd__mux2i_1
* cell instance $544 m0 *1 46.92,35.36
X$544 20 237 250 248 175 226 176 33 33 20 sky130_fd_sc_hd__a221oi_4
* cell instance $546 m0 *1 57.04,35.36
X$546 33 60 33 20 174 20 sky130_fd_sc_hd__buf_4
* cell instance $547 m0 *1 59.8,35.36
X$547 20 167 180 229 33 257 33 20 sky130_fd_sc_hd__mux2i_2
* cell instance $551 r0 *1 3.68,35.36
X$551 33 24 106 244 20 33 20 sky130_fd_sc_hd__nand2b_1
* cell instance $553 r0 *1 6.44,35.36
X$553 20 275 254 106 48 114 33 33 20 sky130_fd_sc_hd__a31oi_2
* cell instance $554 r0 *1 11.04,35.36
X$554 33 221 33 20 205 20 sky130_fd_sc_hd__clkbuf_2
* cell instance $564 r0 *1 18.86,35.36
X$564 20 40 265 99 234 194 233 28 33 33 20 sky130_fd_sc_hd__mux4_1
* cell instance $565 r0 *1 28.52,35.36
X$565 20 217 214 212 153 33 33 20 sky130_fd_sc_hd__mux2_1
* cell instance $566 r0 *1 32.66,35.36
X$566 33 132 217 280 20 33 20 sky130_fd_sc_hd__nor2_1
* cell instance $568 r0 *1 35.88,35.36
X$568 33 175 72 267 249 20 33 20 sky130_fd_sc_hd__nor3_1
* cell instance $570 r0 *1 38.18,35.36
X$570 33 120 98 251 33 20 20 sky130_fd_sc_hd__nand2_1
* cell instance $573 r0 *1 40.94,35.36
X$573 33 21 34 226 225 33 20 20 sky130_fd_sc_hd__nand3_1
* cell instance $578 r0 *1 43.24,35.36
X$578 20 34 178 132 33 33 20 sky130_fd_sc_hd__nand2_4
* cell instance $579 r0 *1 47.38,35.36
X$579 33 175 60 257 250 20 33 20 sky130_fd_sc_hd__nor3_1
* cell instance $580 r0 *1 49.22,35.36
X$580 20 40 238 208 33 237 33 20 sky130_fd_sc_hd__mux2i_2
* cell instance $581 r0 *1 54.28,35.36
X$581 20 180 241 33 33 20 sky130_fd_sc_hd__dlymetal6s2s_1
* cell instance $582 r0 *1 58.88,35.36
X$582 33 246 179 211 20 33 369 20 sky130_fd_sc_hd__a21oi_1
* cell instance $583 r0 *1 60.72,35.36
X$583 33 255 83 259 33 20 20 sky130_fd_sc_hd__nand2_1
* cell instance $584 r0 *1 62.1,35.36
X$584 20 238 263 257 132 33 33 20 sky130_fd_sc_hd__mux2i_4
* cell instance $589 r0 *1 70.84,35.36
X$589 33 34 216 239 246 20 33 20 sky130_fd_sc_hd__nor3_1
* cell instance $592 m0 *1 1.38,40.8
X$592 33 294 269 242 33 20 20 sky130_fd_sc_hd__nand2_1
* cell instance $593 m0 *1 2.76,40.8
X$593 33 269 24 253 20 33 20 sky130_fd_sc_hd__nor2_1
* cell instance $594 m0 *1 4.14,40.8
X$594 20 253 106 114 277 275 33 33 20 sky130_fd_sc_hd__a31oi_4
* cell instance $596 m0 *1 12.88,40.8
X$596 33 114 106 278 270 33 20 20 sky130_fd_sc_hd__or3_1
* cell instance $597 m0 *1 15.18,40.8
X$597 33 270 20 272 33 20 sky130_fd_sc_hd__buf_2
* cell instance $598 m0 *1 17.02,40.8
X$598 33 153 33 20 87 20 sky130_fd_sc_hd__buf_4
* cell instance $601 m0 *1 23.92,40.8
X$601 20 83 214 204 33 256 33 20 sky130_fd_sc_hd__mux2i_2
* cell instance $603 m0 *1 29.44,40.8
X$603 33 132 255 271 33 20 20 sky130_fd_sc_hd__nand2_1
* cell instance $604 m0 *1 30.82,40.8
X$604 33 212 33 20 266 20 sky130_fd_sc_hd__inv_1
* cell instance $605 m0 *1 32.2,40.8
X$605 33 280 135 267 20 33 330 20 sky130_fd_sc_hd__a21oi_1
* cell instance $607 m0 *1 34.5,40.8
X$607 20 267 224 255 98 33 33 20 sky130_fd_sc_hd__mux2i_1
* cell instance $610 m0 *1 39.56,40.8
X$610 33 174 129 306 20 33 288 20 sky130_fd_sc_hd__a21o_1
* cell instance $612 m0 *1 43.24,40.8
X$612 33 228 20 212 33 20 sky130_fd_sc_hd__buf_2
* cell instance $613 m0 *1 45.08,40.8
X$613 33 308 135 281 178 314 20 33 20 sky130_fd_sc_hd__o22ai_1
* cell instance $614 m0 *1 47.38,40.8
X$614 20 231 240 33 33 20 sky130_fd_sc_hd__dlymetal6s2s_1
* cell instance $615 m0 *1 51.98,40.8
X$615 20 264 260 33 33 20 sky130_fd_sc_hd__dlymetal6s2s_1
* cell instance $617 m0 *1 57.04,40.8
X$617 33 179 279 192 33 258 20 20 sky130_fd_sc_hd__a21oi_2
* cell instance $619 m0 *1 65.78,40.8
X$619 20 231 161 276 28 33 33 20 sky130_fd_sc_hd__mux2i_4
* cell instance $620 r0 *1 1.38,40.8
X$620 33 268 20 68 33 20 sky130_fd_sc_hd__clkbuf_4
* cell instance $622 r0 *1 4.6,40.8
X$622 33 295 254 278 20 33 20 sky130_fd_sc_hd__or2_0
* cell instance $623 r0 *1 6.9,40.8
X$623 33 153 106 299 20 33 20 sky130_fd_sc_hd__nor2b_1
* cell instance $624 r0 *1 9.2,40.8
X$624 33 114 299 278 300 33 20 20 sky130_fd_sc_hd__or3_1
* cell instance $625 r0 *1 11.5,40.8
X$625 20 114 283 106 278 33 33 20 sky130_fd_sc_hd__nor3_2
* cell instance $630 r0 *1 17.02,40.8
X$630 20 284 204 214 31 33 33 20 sky130_fd_sc_hd__mux2_1
* cell instance $633 r0 *1 23.46,40.8
X$633 33 21 284 174 33 303 20 20 sky130_fd_sc_hd__o21ai_0
* cell instance $635 r0 *1 27.14,40.8
X$635 33 285 52 255 286 20 33 304 20 sky130_fd_sc_hd__a31oi_1
* cell instance $636 r0 *1 29.44,40.8
X$636 20 83 349 271 266 87 132 33 33 20 sky130_fd_sc_hd__o32ai_1
* cell instance $637 r0 *1 32.66,40.8
X$637 33 90 272 286 20 33 20 sky130_fd_sc_hd__nor2_1
* cell instance $639 r0 *1 37.72,40.8
X$639 33 153 255 287 20 33 20 sky130_fd_sc_hd__nor2b_1
* cell instance $640 r0 *1 40.02,40.8
X$640 33 87 224 287 20 33 296 20 sky130_fd_sc_hd__a21o_1
* cell instance $643 r0 *1 43.24,40.8
X$643 20 288 309 256 178 188 133 33 33 20 sky130_fd_sc_hd__o221ai_2
* cell instance $644 r0 *1 48.76,40.8
X$644 20 289 208 255 31 33 33 20 sky130_fd_sc_hd__mux2i_4
* cell instance $645 r0 *1 57.04,40.8
X$645 33 290 293 302 135 179 33 279 20 20 sky130_fd_sc_hd__a311oi_1
* cell instance $646 r0 *1 60.26,40.8
X$646 20 301 132 291 87 212 33 33 20 sky130_fd_sc_hd__a211oi_2
* cell instance $647 r0 *1 64.86,40.8
X$647 20 229 274 33 33 20 sky130_fd_sc_hd__dlymetal6s2s_1
* cell instance $651 r0 *1 70.84,40.8
X$651 33 31 229 291 20 33 20 sky130_fd_sc_hd__nor2b_1
* cell instance $659 m0 *1 1.38,46.24
X$659 33 294 269 68 295 33 20 20 sky130_fd_sc_hd__or3_1
* cell instance $660 m0 *1 3.68,46.24
X$660 33 254 295 312 20 33 20 sky130_fd_sc_hd__nor2_1
* cell instance $661 m0 *1 5.06,46.24
X$661 20 299 318 114 254 295 33 33 20 sky130_fd_sc_hd__nor4_4
* cell instance $662 m0 *1 12.88,46.24
X$662 33 310 33 20 214 20 sky130_fd_sc_hd__clkbuf_2
* cell instance $665 m0 *1 20.24,46.24
X$665 33 72 284 319 20 33 20 sky130_fd_sc_hd__nor2_1
* cell instance $668 m0 *1 24.38,46.24
X$668 33 135 234 303 20 33 305 20 sky130_fd_sc_hd__a21o_1
* cell instance $669 m0 *1 27.14,46.24
X$669 33 255 179 52 327 33 20 20 sky130_fd_sc_hd__nand3_1
* cell instance $672 m0 *1 29.9,46.24
X$672 20 60 323 194 233 90 129 135 33 33 20 sky130_fd_sc_hd__mux4_1
* cell instance $674 m0 *1 40.02,46.24
X$674 33 72 296 156 33 306 20 20 sky130_fd_sc_hd__o21ai_0
* cell instance $675 m0 *1 41.86,46.24
X$675 33 129 272 322 20 33 20 sky130_fd_sc_hd__nor2_1
* cell instance $676 m0 *1 43.24,46.24
X$676 33 72 296 316 33 20 20 sky130_fd_sc_hd__nand2_1
* cell instance $677 m0 *1 44.62,46.24
X$677 20 308 297 287 60 33 33 20 sky130_fd_sc_hd__mux2i_1
* cell instance $678 m0 *1 48.3,46.24
X$678 33 34 297 320 33 20 20 sky130_fd_sc_hd__nand2_1
* cell instance $680 m0 *1 50.14,46.24
X$680 33 256 188 281 178 307 20 33 20 sky130_fd_sc_hd__o22ai_1
* cell instance $681 m0 *1 52.44,46.24
X$681 20 297 289 264 31 33 33 20 sky130_fd_sc_hd__mux2_1
* cell instance $683 m0 *1 57.04,46.24
X$683 20 281 229 212 56 33 33 20 sky130_fd_sc_hd__mux2i_1
* cell instance $684 m0 *1 60.72,46.24
X$684 20 259 338 21 317 301 33 33 20 sky130_fd_sc_hd__a31oi_4
* cell instance $685 m0 *1 68.54,46.24
X$685 20 276 273 33 33 20 sky130_fd_sc_hd__dlymetal6s2s_1
* cell instance $687 r0 *1 1.38,46.24
X$687 33 282 20 204 33 20 sky130_fd_sc_hd__buf_2
* cell instance $688 r0 *1 3.22,46.24
X$688 33 312 245 311 20 33 335 20 sky130_fd_sc_hd__a21o_1
* cell instance $690 r0 *1 6.44,46.24
X$690 33 312 311 245 33 313 20 20 sky130_fd_sc_hd__a21oi_2
* cell instance $692 r0 *1 10.12,46.24
X$692 33 300 20 329 33 20 sky130_fd_sc_hd__clkbuf_4
* cell instance $701 r0 *1 17.02,46.24
X$701 33 325 337 363 33 20 20 sky130_fd_sc_hd__nand2_1