
* cell hamming_code
* pin corrected_code[5]
* pin corrected_code[3]
* pin received_in[0]
* pin corrected_code[0]
* pin corrected_code[1]
* pin data_out[2]
* pin data_out[0]
* pin received_in[3]
* pin corrected_code[2]
* pin received_in[2]
* pin received_in[1]
* pin single_bit_error
* pin received_in[5]
* pin received_in[6]
* pin corrected_code[6]
* pin data_out[3]
* pin corrected_code[4]
* pin received_in[4]
* pin data_out[1]
* pin data_in[0]
* pin encoded_out[1]
* pin encoded_out[0]
* pin encoded_out[3]
* pin encoded_out[4]
* pin encoded_out[6]
* pin encoded_out[5]
* pin encoded_out[2]
* pin data_in[2]
* pin data_in[1]
* pin data_in[3]
* pin NWELL
* pin PWELL,gf180mcu_gnd
.SUBCKT hamming_code 1 2 6 23 25 33 36 37 48 49 50 60 78 81 94 97 100 101 109
+ 124 126 127 128 131 132 134 135 136 137 138 139 140
* net 1 corrected_code[5]
* net 2 corrected_code[3]
* net 6 received_in[0]
* net 23 corrected_code[0]
* net 25 corrected_code[1]
* net 33 data_out[2]
* net 36 data_out[0]
* net 37 received_in[3]
* net 48 corrected_code[2]
* net 49 received_in[2]
* net 50 received_in[1]
* net 60 single_bit_error
* net 78 received_in[5]
* net 81 received_in[6]
* net 94 corrected_code[6]
* net 97 data_out[3]
* net 100 corrected_code[4]
* net 101 received_in[4]
* net 109 data_out[1]
* net 124 data_in[0]
* net 126 encoded_out[1]
* net 127 encoded_out[0]
* net 128 encoded_out[3]
* net 131 encoded_out[4]
* net 132 encoded_out[6]
* net 134 encoded_out[5]
* net 135 encoded_out[2]
* net 136 data_in[2]
* net 137 data_in[1]
* net 138 data_in[3]
* net 139 NWELL
* net 140 PWELL,gf180mcu_gnd
* cell instance $2 r0 *1 84.56,5.04
X$2 3 139 140 1 gf180mcu_fd_sc_mcu9t5v0__dlyb_2
* cell instance $7 m0 *1 93.52,15.12
X$7 4 139 140 2 gf180mcu_fd_sc_mcu9t5v0__dlyb_2
* cell instance $10 m0 *1 76.72,65.52
X$10 139 46 140 3 55 45 43 gf180mcu_fd_sc_mcu9t5v0__oai31_2
* cell instance $14 r0 *1 129.92,55.44
X$14 3 139 140 22 gf180mcu_fd_sc_mcu9t5v0__clkbuf_2
* cell instance $18 m0 *1 94.64,55.44
X$18 140 139 4 20 13 14 gf180mcu_fd_sc_mcu9t5v0__mux2_2
* cell instance $20 r0 *1 34.16,45.36
X$20 140 139 5 11 12 gf180mcu_fd_sc_mcu9t5v0__nor2_2
* cell instance $22 r0 *1 31.92,65.52
X$22 140 139 62 5 18 39 gf180mcu_fd_sc_mcu9t5v0__mux2_2
* cell instance $24 m0 *1 31.92,65.52
X$24 140 139 52 5 27 39 gf180mcu_fd_sc_mcu9t5v0__mux2_2
* cell instance $27 r0 *1 2.8,45.36
X$27 6 139 140 8 gf180mcu_fd_sc_mcu9t5v0__dlyb_2
* cell instance $30 r0 *1 17.36,45.36
X$30 139 8 9 140 7 gf180mcu_fd_sc_mcu9t5v0__xnor2_2
* cell instance $33 m0 *1 10.64,55.44
X$33 7 139 140 23 gf180mcu_fd_sc_mcu9t5v0__dlyb_2
* cell instance $36 r0 *1 17.92,55.44
X$36 38 140 8 139 26 gf180mcu_fd_sc_mcu9t5v0__xor2_2
* cell instance $42 m0 *1 21.28,65.52
X$42 139 38 8 140 40 gf180mcu_fd_sc_mcu9t5v0__xnor2_2
* cell instance $46 r0 *1 21.28,65.52
X$46 140 139 52 9 63 gf180mcu_fd_sc_mcu9t5v0__nand2_2
* cell instance $49 m0 *1 89.6,105.84
X$49 140 10 139 90 18 89 gf180mcu_fd_sc_mcu9t5v0__aoi21_2
* cell instance $51 r0 *1 78.96,95.76
X$51 140 10 139 99 77 27 gf180mcu_fd_sc_mcu9t5v0__aoi21_2
* cell instance $53 m0 *1 26.32,55.44
X$53 13 140 10 139 12 gf180mcu_fd_sc_mcu9t5v0__xor2_2
* cell instance $56 r0 *1 101.92,55.44
X$56 10 139 34 65 140 21 gf180mcu_fd_sc_mcu9t5v0__and3_2
* cell instance $58 m0 *1 14,105.84
X$58 140 87 10 139 gf180mcu_fd_sc_mcu9t5v0__clkbuf_8
* cell instance $61 r0 *1 82.88,85.68
X$61 140 139 10 45 gf180mcu_fd_sc_mcu9t5v0__clkinv_2
* cell instance $63 r0 *1 89.04,55.44
X$63 140 10 139 59 35 53 20 32 gf180mcu_fd_sc_mcu9t5v0__aoi221_2
* cell instance $77 r0 *1 101.92,95.76
X$77 139 10 140 57 85 18 gf180mcu_fd_sc_mcu9t5v0__oai21_2
* cell instance $80 r0 *1 68.88,55.44
X$80 10 42 19 30 139 140 46 gf180mcu_fd_sc_mcu9t5v0__or4_2
* cell instance $83 r0 *1 42.56,105.84
X$83 140 139 102 106 10 105 gf180mcu_fd_sc_mcu9t5v0__mux2_2
* cell instance $85 r0 *1 63.28,95.76
X$85 139 10 140 72 84 27 gf180mcu_fd_sc_mcu9t5v0__oai21_2
* cell instance $88 m0 *1 36.4,55.44
X$88 139 11 12 140 39 gf180mcu_fd_sc_mcu9t5v0__and2_2
* cell instance $91 r0 *1 27.44,55.44
X$91 54 140 17 139 11 gf180mcu_fd_sc_mcu9t5v0__xor2_2
* cell instance $99 r0 *1 73.36,95.76
X$99 140 139 13 75 gf180mcu_fd_sc_mcu9t5v0__inv_2
* cell instance $101 m0 *1 67.2,75.6
X$101 13 28 27 57 140 139 30 gf180mcu_fd_sc_mcu9t5v0__and4_2
* cell instance $103 r0 *1 60.48,65.52
X$103 140 139 13 68 44 gf180mcu_fd_sc_mcu9t5v0__nand2_2
* cell instance $106 m0 *1 2.24,105.84
X$106 140 139 101 13 gf180mcu_fd_sc_mcu9t5v0__buf_4
* cell instance $109 m0 *1 77.84,55.44
X$109 140 13 139 43 15 64 gf180mcu_fd_sc_mcu9t5v0__aoi21_2
* cell instance $112 m0 *1 70.56,65.52
X$112 13 139 44 31 140 19 gf180mcu_fd_sc_mcu9t5v0__and3_2
* cell instance $128 m0 *1 54.32,105.84
X$128 139 13 140 88 95 86 28 gf180mcu_fd_sc_mcu9t5v0__oai22_2
* cell instance $131 m0 *1 77.28,105.84
X$131 13 104 108 99 139 140 98 gf180mcu_fd_sc_mcu9t5v0__or4_2
* cell instance $133 m0 *1 42,65.52
X$133 13 17 26 53 139 140 47 gf180mcu_fd_sc_mcu9t5v0__or4_2
* cell instance $138 m0 *1 101.92,65.52
X$138 140 45 139 67 21 57 14 32 gf180mcu_fd_sc_mcu9t5v0__aoi221_2
* cell instance $143 r0 *1 82.32,55.44
X$143 140 139 44 15 31 gf180mcu_fd_sc_mcu9t5v0__nand2_2
* cell instance $146 r0 *1 2.8,65.52
X$146 16 139 140 73 gf180mcu_fd_sc_mcu9t5v0__clkbuf_2
* cell instance $148 m0 *1 11.76,65.52
X$148 140 139 16 51 52 38 gf180mcu_fd_sc_mcu9t5v0__mux2_2
* cell instance $151 m0 *1 2.24,55.44
X$151 16 139 140 48 gf180mcu_fd_sc_mcu9t5v0__dlyb_2
* cell instance $153 m0 *1 19.04,55.44
X$153 37 139 140 17 gf180mcu_fd_sc_mcu9t5v0__buf_2
* cell instance $156 r0 *1 50.4,65.52
X$156 140 139 17 28 gf180mcu_fd_sc_mcu9t5v0__clkbuf_4
* cell instance $158 m0 *1 49.84,65.52
X$158 140 139 17 32 gf180mcu_fd_sc_mcu9t5v0__inv_4
* cell instance $165 r0 *1 70,105.84
X$165 44 32 18 57 140 139 104 gf180mcu_fd_sc_mcu9t5v0__and4_2
* cell instance $167 m0 *1 94.64,65.52
X$167 140 32 139 58 53 18 gf180mcu_fd_sc_mcu9t5v0__aoi21_2
* cell instance $169 r0 *1 49.84,95.76
X$169 139 75 18 140 83 gf180mcu_fd_sc_mcu9t5v0__and2_2
* cell instance $171 r0 *1 101.92,65.52
X$171 140 32 139 66 57 18 gf180mcu_fd_sc_mcu9t5v0__aoi21_2
* cell instance $174 r0 *1 60.48,55.44
X$174 139 28 18 140 29 gf180mcu_fd_sc_mcu9t5v0__and2_2
* cell instance $191 m0 *1 74.48,75.6
X$191 139 28 140 72 71 18 gf180mcu_fd_sc_mcu9t5v0__oai21_2
* cell instance $196 m0 *1 92.4,75.6
X$196 139 28 140 53 34 18 gf180mcu_fd_sc_mcu9t5v0__oai21_2
* cell instance $198 r0 *1 44.8,55.44
X$198 140 40 18 139 gf180mcu_fd_sc_mcu9t5v0__clkbuf_8
* cell instance $209 r0 *1 134.4,55.44
X$209 22 139 140 33 gf180mcu_fd_sc_mcu9t5v0__dlyb_2
* cell instance $216 r0 *1 3.92,55.44
X$216 24 139 140 25 gf180mcu_fd_sc_mcu9t5v0__dlyb_2
* cell instance $218 r0 *1 12.88,65.52
X$218 140 139 24 61 62 69 gf180mcu_fd_sc_mcu9t5v0__mux2_2
* cell instance $223 r0 *1 36.96,55.44
X$223 140 139 26 27 gf180mcu_fd_sc_mcu9t5v0__buf_4
* cell instance $230 r0 *1 80.08,105.84
X$230 140 139 27 95 57 gf180mcu_fd_sc_mcu9t5v0__nand2_2
* cell instance $233 m0 *1 63.28,85.68
X$233 75 28 27 57 139 140 70 gf180mcu_fd_sc_mcu9t5v0__or4_2
* cell instance $236 r0 *1 78.4,65.52
X$236 140 139 44 65 27 gf180mcu_fd_sc_mcu9t5v0__nand2_2
* cell instance $250 m0 *1 48.16,115.92
X$250 32 140 27 72 139 112 gf180mcu_fd_sc_mcu9t5v0__or3_2
* cell instance $252 m0 *1 45.36,95.76
X$252 140 54 139 86 80 27 106 75 gf180mcu_fd_sc_mcu9t5v0__aoi221_2
* cell instance $255 r0 *1 76.72,55.44
X$255 140 139 32 31 27 gf180mcu_fd_sc_mcu9t5v0__nand2_2
* cell instance $258 r0 *1 54.88,95.76
X$258 139 28 72 140 88 gf180mcu_fd_sc_mcu9t5v0__and2_2
* cell instance $261 r0 *1 87.92,95.76
X$261 140 139 44 89 28 gf180mcu_fd_sc_mcu9t5v0__nand2_2
* cell instance $263 m0 *1 68.32,105.84
X$263 54 139 28 84 140 108 gf180mcu_fd_sc_mcu9t5v0__and3_2
* cell instance $280 m0 *1 57.12,95.76
X$280 139 75 140 57 76 28 gf180mcu_fd_sc_mcu9t5v0__oai21_2
* cell instance $285 m0 *1 57.68,65.52
X$285 139 140 29 41 47 54 42 53 gf180mcu_fd_sc_mcu9t5v0__oai221_2
* cell instance $287 r0 *1 65.52,65.52
X$287 139 140 29 68 70 54 55 57 gf180mcu_fd_sc_mcu9t5v0__oai221_2
* cell instance $302 r0 *1 92.96,65.52
X$302 139 31 140 66 67 54 gf180mcu_fd_sc_mcu9t5v0__oai21_2
* cell instance $306 m0 *1 86.8,65.52
X$306 139 31 140 58 59 54 gf180mcu_fd_sc_mcu9t5v0__oai21_2
* cell instance $309 m0 *1 92.96,95.76
X$309 54 139 32 85 140 79 gf180mcu_fd_sc_mcu9t5v0__and3_2
* cell instance $311 m0 *1 82.88,95.76
X$311 140 139 44 77 32 gf180mcu_fd_sc_mcu9t5v0__nand2_2
* cell instance $333 m0 *1 50.96,75.6
X$333 32 140 40 72 139 64 gf180mcu_fd_sc_mcu9t5v0__or3_2
* cell instance $346 r0 *1 83.44,65.52
X$346 45 139 65 71 140 35 gf180mcu_fd_sc_mcu9t5v0__and3_2
* cell instance $349 m0 *1 2.24,85.68
X$349 73 139 140 36 gf180mcu_fd_sc_mcu9t5v0__dlyb_2
* cell instance $355 m0 *1 19.04,75.6
X$355 38 140 69 139 53 gf180mcu_fd_sc_mcu9t5v0__xor2_2
* cell instance $357 r0 *1 7.84,65.52
X$357 49 139 140 38 gf180mcu_fd_sc_mcu9t5v0__buf_2
* cell instance $359 m0 *1 9.52,75.6
X$359 139 38 74 140 61 gf180mcu_fd_sc_mcu9t5v0__xnor2_2
* cell instance $368 m0 *1 17.92,85.68
X$368 140 72 69 38 139 gf180mcu_fd_sc_mcu9t5v0__xnor2_4
* cell instance $381 r0 *1 59.92,85.68
X$381 140 139 75 41 44 gf180mcu_fd_sc_mcu9t5v0__nand2_2
* cell instance $384 m0 *1 62.16,115.92
X$384 140 139 103 88 41 gf180mcu_fd_sc_mcu9t5v0__nor2_2
* cell instance $393 m0 *1 106.4,105.84
X$393 139 44 57 140 107 gf180mcu_fd_sc_mcu9t5v0__xnor2_2
* cell instance $395 m0 *1 54.88,115.92
X$395 140 44 139 111 112 76 gf180mcu_fd_sc_mcu9t5v0__aoi21_2
* cell instance $417 m0 *1 68.32,115.92
X$417 140 139 54 44 gf180mcu_fd_sc_mcu9t5v0__inv_4
* cell instance $420 m0 *1 96.88,105.84
X$420 140 98 139 92 93 107 45 gf180mcu_fd_sc_mcu9t5v0__aoi22_2
* cell instance $444 m0 *1 2.24,75.6
X$444 50 139 140 69 gf180mcu_fd_sc_mcu9t5v0__dlya_2
* cell instance $446 r0 *1 8.4,75.6
X$446 139 69 74 140 51 gf180mcu_fd_sc_mcu9t5v0__xnor2_2
* cell instance $469 r0 *1 20.16,95.76
X$469 140 139 82 54 gf180mcu_fd_sc_mcu9t5v0__buf_4
* cell instance $476 r0 *1 52.64,85.68
X$476 140 54 139 80 64 76 gf180mcu_fd_sc_mcu9t5v0__aoi21_2
* cell instance $504 r0 *1 19.04,75.6
X$504 140 139 63 56 62 gf180mcu_fd_sc_mcu9t5v0__nand2_2
* cell instance $506 m0 *1 3.36,65.52
X$506 56 139 140 60 gf180mcu_fd_sc_mcu9t5v0__dlyb_2
* cell instance $527 m0 *1 39.76,105.84
X$527 140 72 57 139 gf180mcu_fd_sc_mcu9t5v0__clkbuf_8
* cell instance $549 r0 *1 16.8,85.68
X$549 139 72 74 140 63 gf180mcu_fd_sc_mcu9t5v0__xnor2_2
* cell instance $615 r0 *1 10.64,95.76
X$615 139 87 82 140 74 gf180mcu_fd_sc_mcu9t5v0__xnor2_2
* cell instance $632 r0 *1 92.96,95.76
X$632 75 90 91 79 139 140 92 gf180mcu_fd_sc_mcu9t5v0__or4_2
* cell instance $641 m0 *1 2.24,95.76
X$641 78 139 140 82 gf180mcu_fd_sc_mcu9t5v0__dlyb_2
* cell instance $650 r0 *1 2.24,95.76
X$650 81 139 140 87 gf180mcu_fd_sc_mcu9t5v0__dlyb_2
* cell instance $658 r0 *1 54.88,105.84
X$658 140 105 111 139 83 103 104 gf180mcu_fd_sc_mcu9t5v0__nor4_2
* cell instance $681 r0 *1 92.4,105.84
X$681 140 139 91 89 95 gf180mcu_fd_sc_mcu9t5v0__nor2_2
* cell instance $690 r0 *1 147.28,95.76
X$690 93 139 140 94 gf180mcu_fd_sc_mcu9t5v0__dlyb_2
* cell instance $694 m0 *1 146.16,105.84
X$694 93 139 140 96 gf180mcu_fd_sc_mcu9t5v0__dlyb_2
* cell instance $706 m0 *1 155.68,105.84
X$706 96 139 140 97 gf180mcu_fd_sc_mcu9t5v0__dlyb_2
* cell instance $716 r0 *1 2.24,105.84
X$716 102 139 140 100 gf180mcu_fd_sc_mcu9t5v0__dlyb_2
* cell instance $723 r0 *1 10.64,105.84
X$723 102 139 140 110 gf180mcu_fd_sc_mcu9t5v0__clkbuf_2
* cell instance $753 m0 *1 11.76,115.92
X$753 110 139 140 109 gf180mcu_fd_sc_mcu9t5v0__dlyb_2
* cell instance $763 r0 *1 101.92,136.08
X$763 140 123 115 113 117 139 gf180mcu_fd_sc_mcu9t5v0__xor3_2
* cell instance $766 r0 *1 91.28,136.08
X$766 139 113 114 140 116 gf180mcu_fd_sc_mcu9t5v0__xnor2_2
* cell instance $771 m0 *1 85.12,156.24
X$771 113 139 140 129 gf180mcu_fd_sc_mcu9t5v0__dlyb_2
* cell instance $773 r0 *1 101.92,146.16
X$773 124 139 140 113 gf180mcu_fd_sc_mcu9t5v0__dlyb_2
* cell instance $776 m0 *1 106.96,146.16
X$776 139 117 114 140 119 gf180mcu_fd_sc_mcu9t5v0__xnor2_2
* cell instance $779 m0 *1 89.04,146.16
X$779 139 123 121 140 114 gf180mcu_fd_sc_mcu9t5v0__xnor2_2
* cell instance $783 m0 *1 118.72,156.24
X$783 115 139 140 125 gf180mcu_fd_sc_mcu9t5v0__dlyb_2
* cell instance $786 m0 *1 98.56,146.16
X$786 116 139 140 120 gf180mcu_fd_sc_mcu9t5v0__dlyb_2
* cell instance $791 r0 *1 110.32,156.24
X$791 136 139 140 117 gf180mcu_fd_sc_mcu9t5v0__dlyb_2
* cell instance $794 r0 *1 118.72,156.24
X$794 117 139 140 133 gf180mcu_fd_sc_mcu9t5v0__dlyb_2
* cell instance $799 m0 *1 118.72,146.16
X$799 119 139 140 118 gf180mcu_fd_sc_mcu9t5v0__dlyb_2
* cell instance $801 m0 *1 110.32,156.24
X$801 118 139 140 128 gf180mcu_fd_sc_mcu9t5v0__dlyb_2
* cell instance $810 r0 *1 110.32,146.16
X$810 120 139 140 127 gf180mcu_fd_sc_mcu9t5v0__dlyb_2
* cell instance $815 r0 *1 91.28,146.16
X$815 121 139 140 122 gf180mcu_fd_sc_mcu9t5v0__clkbuf_2
* cell instance $817 r0 *1 92.4,156.24
X$817 137 139 140 121 gf180mcu_fd_sc_mcu9t5v0__dlyb_2
* cell instance $820 m0 *1 93.52,156.24
X$820 122 139 140 131 gf180mcu_fd_sc_mcu9t5v0__dlyb_2
* cell instance $827 r0 *1 95.76,146.16
X$827 123 139 140 130 gf180mcu_fd_sc_mcu9t5v0__clkbuf_2
* cell instance $831 r0 *1 101.92,156.24
X$831 138 139 140 123 gf180mcu_fd_sc_mcu9t5v0__dlyb_2
* cell instance $837 r0 *1 118.72,146.16
X$837 125 139 140 126 gf180mcu_fd_sc_mcu9t5v0__dlyb_2
* cell instance $2537 r0 *1 84,156.24
X$2537 129 139 140 135 gf180mcu_fd_sc_mcu9t5v0__dlyb_2
* cell instance $2542 m0 *1 101.92,156.24
X$2542 130 139 140 132 gf180mcu_fd_sc_mcu9t5v0__dlyb_2
* cell instance $3112 r0 *1 127.12,156.24
X$3112 133 139 140 134 gf180mcu_fd_sc_mcu9t5v0__dlyb_2
.ENDS hamming_code

* cell gf180mcu_fd_sc_mcu9t5v0__buf_2
* pin I
* pin NWELL,VDD
* pin PWELL,VSS,gf180mcu_gnd
* pin Z
.SUBCKT gf180mcu_fd_sc_mcu9t5v0__buf_2 1 2 3 5
* net 1 I
* net 2 NWELL,VDD
* net 3 PWELL,VSS,gf180mcu_gnd
* net 5 Z
* device instance $1 r0 *1 0.87,3.78 pmos_5p0
M$1 2 1 4 2 pmos_5p0 L=0.5U W=1.83U AS=0.8052P AD=0.5673P PS=4.54U PD=2.45U
* device instance $2 r0 *1 1.99,3.78 pmos_5p0
M$2 5 4 2 2 pmos_5p0 L=0.5U W=3.66U AS=1.1346P AD=1.3725P PS=4.9U PD=6.99U
* device instance $4 r0 *1 0.92,1.005 nmos_5p0
M$4 3 1 4 3 nmos_5p0 L=0.6U W=1.32U AS=0.5808P AD=0.3432P PS=3.52U PD=1.84U
* device instance $5 r0 *1 2.04,1.005 nmos_5p0
M$5 5 4 3 3 nmos_5p0 L=0.6U W=2.64U AS=0.6864P AD=0.924P PS=3.68U PD=5.36U
.ENDS gf180mcu_fd_sc_mcu9t5v0__buf_2

* cell gf180mcu_fd_sc_mcu9t5v0__dlya_2
* pin I
* pin NWELL,VDD
* pin PWELL,VSS,gf180mcu_gnd
* pin Z
.SUBCKT gf180mcu_fd_sc_mcu9t5v0__dlya_2 1 2 3 7
* net 1 I
* net 2 NWELL,VDD
* net 3 PWELL,VSS,gf180mcu_gnd
* net 7 Z
* device instance $1 r0 *1 3.735,3.655 pmos_5p0
M$1 6 5 2 2 pmos_5p0 L=0.5U W=0.36U AS=0.4299P AD=0.1584P PS=2.585U PD=1.6U
* device instance $2 r0 *1 4.99,3.785 pmos_5p0
M$2 7 6 2 2 pmos_5p0 L=0.5U W=3.66U AS=0.9972P AD=1.3725P PS=5.035U PD=6.99U
* device instance $4 r0 *1 0.87,3.655 pmos_5p0
M$4 2 1 4 2 pmos_5p0 L=0.5U W=0.36U AS=0.1584P AD=0.1116P PS=1.6U PD=0.98U
* device instance $5 r0 *1 1.99,3.655 pmos_5p0
M$5 5 4 2 2 pmos_5p0 L=0.5U W=0.36U AS=0.1116P AD=0.1584P PS=0.98U PD=1.6U
* device instance $6 r0 *1 3.685,0.795 nmos_5p0
M$6 6 5 3 3 nmos_5p0 L=0.6U W=0.36U AS=0.3279P AD=0.1584P PS=2.075U PD=1.6U
* device instance $7 r0 *1 5.04,1.005 nmos_5p0
M$7 7 6 3 3 nmos_5p0 L=0.6U W=2.64U AS=0.6711P AD=0.9504P PS=3.915U PD=5.4U
* device instance $9 r0 *1 0.92,1.475 nmos_5p0
M$9 3 1 4 3 nmos_5p0 L=0.6U W=0.36U AS=0.1584P AD=0.0936P PS=1.6U PD=0.88U
* device instance $10 r0 *1 2.04,1.475 nmos_5p0
M$10 5 4 3 3 nmos_5p0 L=0.6U W=0.36U AS=0.0936P AD=0.1584P PS=0.88U PD=1.6U
.ENDS gf180mcu_fd_sc_mcu9t5v0__dlya_2

* cell gf180mcu_fd_sc_mcu9t5v0__xor2_2
* pin A1
* pin PWELL,VSS,gf180mcu_gnd
* pin A2
* pin NWELL,VDD
* pin Z
.SUBCKT gf180mcu_fd_sc_mcu9t5v0__xor2_2 1 2 6 7 8
* net 1 A1
* net 2 PWELL,VSS,gf180mcu_gnd
* net 6 A2
* net 7 NWELL,VDD
* net 8 Z
* device instance $1 r0 *1 0.87,3.947 pmos_5p0
M$1 3 6 7 7 pmos_5p0 L=0.5U W=0.915U AS=0.4026P AD=0.2379P PS=2.71U PD=1.435U
* device instance $2 r0 *1 1.89,3.947 pmos_5p0
M$2 3 1 7 7 pmos_5p0 L=0.5U W=0.915U AS=0.526125P AD=0.2379P PS=2.58U PD=1.435U
* device instance $3 r0 *1 3.14,3.785 pmos_5p0
M$3 5 3 7 7 pmos_5p0 L=0.5U W=1.83U AS=0.526125P AD=0.61305P PS=2.58U PD=2.5U
* device instance $4 r0 *1 4.31,3.785 pmos_5p0
M$4 10 1 5 7 pmos_5p0 L=0.5U W=1.83U AS=0.61305P AD=0.4758P PS=2.5U PD=2.35U
* device instance $5 r0 *1 5.33,3.785 pmos_5p0
M$5 7 6 10 7 pmos_5p0 L=0.5U W=1.83U AS=0.4758P AD=0.8052P PS=2.35U PD=4.54U
* device instance $6 r0 *1 7.27,3.78 pmos_5p0
M$6 8 5 7 7 pmos_5p0 L=0.5U W=3.66U AS=1.281P AD=1.281P PS=6.89U PD=6.89U
* device instance $8 r0 *1 7.22,1.005 nmos_5p0
M$8 8 5 2 2 nmos_5p0 L=0.6U W=2.64U AS=0.924P AD=0.924P PS=5.36U PD=5.36U
* device instance $10 r0 *1 0.92,1.16 nmos_5p0
M$10 9 6 3 2 nmos_5p0 L=0.6U W=0.66U AS=0.2904P AD=0.1056P PS=2.2U PD=0.98U
* device instance $11 r0 *1 1.84,1.16 nmos_5p0
M$11 9 1 2 2 nmos_5p0 L=0.6U W=0.66U AS=0.363P AD=0.1056P PS=2.02U PD=0.98U
* device instance $12 r0 *1 3.14,1.005 nmos_5p0
M$12 4 3 2 2 nmos_5p0 L=0.6U W=1.32U AS=0.363P AD=0.3432P PS=2.02U PD=1.84U
* device instance $13 r0 *1 4.26,1.005 nmos_5p0
M$13 5 1 4 2 nmos_5p0 L=0.6U W=1.32U AS=0.3432P AD=0.3432P PS=1.84U PD=1.84U
* device instance $14 r0 *1 5.38,1.005 nmos_5p0
M$14 4 6 5 2 nmos_5p0 L=0.6U W=1.32U AS=0.3432P AD=0.5808P PS=1.84U PD=3.52U
.ENDS gf180mcu_fd_sc_mcu9t5v0__xor2_2

* cell gf180mcu_fd_sc_mcu9t5v0__oai221_2
* pin NWELL,VDD
* pin PWELL,VSS,gf180mcu_gnd
* pin B1
* pin B2
* pin C
* pin A1
* pin ZN
* pin A2
.SUBCKT gf180mcu_fd_sc_mcu9t5v0__oai221_2 1 3 4 5 6 8 9 10
* net 1 NWELL,VDD
* net 3 PWELL,VSS,gf180mcu_gnd
* net 4 B1
* net 5 B2
* net 6 C
* net 8 A1
* net 9 ZN
* net 10 A2
* device instance $1 r0 *1 0.92,3.965 pmos_5p0
M$1 9 6 1 1 pmos_5p0 L=0.5U W=2.92U AS=1.17P AD=1.2274P PS=5.06U PD=6.33U
* device instance $2 r0 *1 2.12,3.78 pmos_5p0
M$2 14 5 1 1 pmos_5p0 L=0.5U W=1.83U AS=0.585P AD=0.4758P PS=2.53U PD=2.35U
* device instance $3 r0 *1 3.14,3.78 pmos_5p0
M$3 9 4 14 1 pmos_5p0 L=0.5U W=1.83U AS=0.4758P AD=0.61305P PS=2.35U PD=2.5U
* device instance $4 r0 *1 4.31,3.78 pmos_5p0
M$4 13 4 9 1 pmos_5p0 L=0.5U W=1.83U AS=0.61305P AD=0.52155P PS=2.5U PD=2.4U
* device instance $5 r0 *1 5.38,3.78 pmos_5p0
M$5 1 5 13 1 pmos_5p0 L=0.5U W=1.83U AS=0.52155P AD=0.585P PS=2.4U PD=2.53U
* device instance $7 r0 *1 7.78,3.78 pmos_5p0
M$7 12 8 9 1 pmos_5p0 L=0.5U W=1.83U AS=0.585P AD=0.52155P PS=2.53U PD=2.4U
* device instance $8 r0 *1 8.85,3.78 pmos_5p0
M$8 1 10 12 1 pmos_5p0 L=0.5U W=1.83U AS=0.52155P AD=0.5673P PS=2.4U PD=2.45U
* device instance $9 r0 *1 9.97,3.78 pmos_5p0
M$9 11 10 1 1 pmos_5p0 L=0.5U W=1.83U AS=0.5673P AD=0.52155P PS=2.45U PD=2.4U
* device instance $10 r0 *1 11.04,3.78 pmos_5p0
M$10 9 8 11 1 pmos_5p0 L=0.5U W=1.83U AS=0.52155P AD=0.8052P PS=2.4U PD=4.54U
* device instance $11 r0 *1 0.92,1.005 nmos_5p0
M$11 2 6 7 3 nmos_5p0 L=0.6U W=2.64U AS=0.924P AD=0.7458P PS=5.36U PD=3.77U
* device instance $12 r0 *1 2.07,1.005 nmos_5p0
M$12 3 5 2 3 nmos_5p0 L=0.6U W=2.64U AS=0.7062P AD=0.6864P PS=3.71U PD=3.68U
* device instance $13 r0 *1 3.19,1.005 nmos_5p0
M$13 2 4 3 3 nmos_5p0 L=0.6U W=2.64U AS=0.6864P AD=0.6864P PS=3.68U PD=3.68U
* device instance $17 r0 *1 7.73,1.005 nmos_5p0
M$17 9 8 7 3 nmos_5p0 L=0.6U W=2.64U AS=0.726P AD=0.924P PS=3.74U PD=5.36U
* device instance $18 r0 *1 8.85,1.005 nmos_5p0
M$18 7 10 9 3 nmos_5p0 L=0.6U W=2.64U AS=0.6864P AD=0.6864P PS=3.68U PD=3.68U
.ENDS gf180mcu_fd_sc_mcu9t5v0__oai221_2

* cell gf180mcu_fd_sc_mcu9t5v0__clkbuf_4
* pin PWELL,VSS,gf180mcu_gnd
* pin NWELL,VDD
* pin I
* pin Z
.SUBCKT gf180mcu_fd_sc_mcu9t5v0__clkbuf_4 1 2 3 5
* net 1 PWELL,VSS,gf180mcu_gnd
* net 2 NWELL,VDD
* net 3 I
* net 5 Z
* device instance $1 r0 *1 0.87,3.78 pmos_5p0
M$1 4 3 2 2 pmos_5p0 L=0.5U W=3.66U AS=1.3725P AD=1.2993P PS=6.99U PD=5.08U
* device instance $3 r0 *1 3.29,3.78 pmos_5p0
M$3 5 4 2 2 pmos_5p0 L=0.5U W=7.32U AS=2.4339P AD=2.5071P PS=9.98U PD=11.89U
* device instance $7 r0 *1 0.92,1.23 nmos_5p0
M$7 4 3 1 1 nmos_5p0 L=0.6U W=1.46U AS=0.511P AD=0.4593P PS=3.59U PD=2.75U
* device instance $9 r0 *1 3.34,1.265 nmos_5p0
M$9 5 4 1 1 nmos_5p0 L=0.6U W=3.2U AS=0.8935P AD=0.976P PS=5.46U PD=6.44U
.ENDS gf180mcu_fd_sc_mcu9t5v0__clkbuf_4

* cell gf180mcu_fd_sc_mcu9t5v0__inv_4
* pin PWELL,VSS,gf180mcu_gnd
* pin NWELL,VDD
* pin I
* pin ZN
.SUBCKT gf180mcu_fd_sc_mcu9t5v0__inv_4 1 2 3 4
* net 1 PWELL,VSS,gf180mcu_gnd
* net 2 NWELL,VDD
* net 3 I
* net 4 ZN
* device instance $1 r0 *1 0.87,3.78 pmos_5p0
M$1 4 3 2 2 pmos_5p0 L=0.5U W=7.32U AS=2.5071P AD=2.5071P PS=11.89U PD=11.89U
* device instance $5 r0 *1 0.92,1.005 nmos_5p0
M$5 4 3 1 1 nmos_5p0 L=0.6U W=5.28U AS=1.6104P AD=1.6104P PS=9.04U PD=9.04U
.ENDS gf180mcu_fd_sc_mcu9t5v0__inv_4

* cell gf180mcu_fd_sc_mcu9t5v0__and2_2
* pin NWELL,VDD
* pin A1
* pin A2
* pin PWELL,VSS,gf180mcu_gnd
* pin Z
.SUBCKT gf180mcu_fd_sc_mcu9t5v0__and2_2 2 3 4 5 6
* net 2 NWELL,VDD
* net 3 A1
* net 4 A2
* net 5 PWELL,VSS,gf180mcu_gnd
* net 6 Z
* device instance $1 r0 *1 0.885,3.685 pmos_5p0
M$1 1 3 2 2 pmos_5p0 L=0.5U W=1.64U AS=0.7216P AD=0.4264P PS=4.16U PD=2.16U
* device instance $2 r0 *1 1.905,3.685 pmos_5p0
M$2 2 4 1 2 pmos_5p0 L=0.5U W=1.64U AS=0.4264P AD=0.6486P PS=2.16U PD=2.57U
* device instance $3 r0 *1 3.145,3.78 pmos_5p0
M$3 6 1 2 2 pmos_5p0 L=0.5U W=3.66U AS=1.1244P AD=1.281P PS=4.92U PD=6.89U
* device instance $5 r0 *1 0.935,1.005 nmos_5p0
M$5 7 3 1 5 nmos_5p0 L=0.6U W=1.32U AS=0.5808P AD=0.2112P PS=3.52U PD=1.64U
* device instance $6 r0 *1 1.855,1.005 nmos_5p0
M$6 5 4 7 5 nmos_5p0 L=0.6U W=1.32U AS=0.2112P AD=0.3432P PS=1.64U PD=1.84U
* device instance $7 r0 *1 2.975,1.005 nmos_5p0
M$7 6 1 5 5 nmos_5p0 L=0.6U W=2.64U AS=0.6864P AD=0.924P PS=3.68U PD=5.36U
.ENDS gf180mcu_fd_sc_mcu9t5v0__and2_2

* cell gf180mcu_fd_sc_mcu9t5v0__mux2_2
* pin PWELL,VSS,gf180mcu_gnd
* pin NWELL,VDD
* pin Z
* pin I1
* pin S
* pin I0
.SUBCKT gf180mcu_fd_sc_mcu9t5v0__mux2_2 1 2 3 4 5 7
* net 1 PWELL,VSS,gf180mcu_gnd
* net 2 NWELL,VDD
* net 3 Z
* net 4 I1
* net 5 S
* net 7 I0
* device instance $1 r0 *1 0.92,3.78 pmos_5p0
M$1 3 6 2 2 pmos_5p0 L=0.5U W=3.66U AS=1.32675P AD=1.18035P PS=6.94U PD=4.95U
* device instance $3 r0 *1 3.21,3.78 pmos_5p0
M$3 12 4 2 2 pmos_5p0 L=0.5U W=1.83U AS=0.6588P AD=0.7137P PS=2.55U PD=2.61U
* device instance $4 r0 *1 4.49,3.78 pmos_5p0
M$4 6 8 12 2 pmos_5p0 L=0.5U W=1.83U AS=0.7137P AD=0.4758P PS=2.61U PD=2.35U
* device instance $5 r0 *1 5.51,3.78 pmos_5p0
M$5 11 5 6 2 pmos_5p0 L=0.5U W=1.83U AS=0.4758P AD=0.2196P PS=2.35U PD=2.07U
* device instance $6 r0 *1 6.25,3.78 pmos_5p0
M$6 2 7 11 2 pmos_5p0 L=0.5U W=1.83U AS=0.2196P AD=0.4758P PS=2.07U PD=2.35U
* device instance $7 r0 *1 7.27,3.78 pmos_5p0
M$7 8 5 2 2 pmos_5p0 L=0.5U W=1.83U AS=0.4758P AD=0.8052P PS=2.35U PD=4.54U
* device instance $8 r0 *1 0.92,1.005 nmos_5p0
M$8 3 6 1 1 nmos_5p0 L=0.6U W=2.64U AS=0.924P AD=0.6864P PS=5.36U PD=3.68U
* device instance $10 r0 *1 3.16,1.005 nmos_5p0
M$10 10 4 1 1 nmos_5p0 L=0.6U W=1.32U AS=0.3432P AD=0.1584P PS=1.84U PD=1.56U
* device instance $11 r0 *1 4,1.005 nmos_5p0
M$11 6 5 10 1 nmos_5p0 L=0.6U W=1.32U AS=0.1584P AD=0.3432P PS=1.56U PD=1.84U
* device instance $12 r0 *1 5.12,1.005 nmos_5p0
M$12 9 8 6 1 nmos_5p0 L=0.6U W=1.32U AS=0.3432P AD=0.3168P PS=1.84U PD=1.8U
* device instance $13 r0 *1 6.2,1.005 nmos_5p0
M$13 1 7 9 1 nmos_5p0 L=0.6U W=1.32U AS=0.3168P AD=0.3432P PS=1.8U PD=1.84U
* device instance $14 r0 *1 7.32,1.005 nmos_5p0
M$14 8 5 1 1 nmos_5p0 L=0.6U W=1.32U AS=0.3432P AD=0.5808P PS=1.84U PD=3.52U
.ENDS gf180mcu_fd_sc_mcu9t5v0__mux2_2

* cell gf180mcu_fd_sc_mcu9t5v0__oai22_2
* pin NWELL,VDD
* pin B2
* pin PWELL,VSS,gf180mcu_gnd
* pin B1
* pin A2
* pin ZN
* pin A1
.SUBCKT gf180mcu_fd_sc_mcu9t5v0__oai22_2 1 2 3 4 5 6 7
* net 1 NWELL,VDD
* net 2 B2
* net 3 PWELL,VSS,gf180mcu_gnd
* net 4 B1
* net 5 A2
* net 6 ZN
* net 7 A1
* device instance $1 r0 *1 0.97,3.78 pmos_5p0
M$1 12 2 1 1 pmos_5p0 L=0.5U W=1.83U AS=0.8052P AD=0.4758P PS=4.54U PD=2.35U
* device instance $2 r0 *1 1.99,3.78 pmos_5p0
M$2 6 4 12 1 pmos_5p0 L=0.5U W=1.83U AS=0.4758P AD=0.61305P PS=2.35U PD=2.5U
* device instance $3 r0 *1 3.16,3.78 pmos_5p0
M$3 9 4 6 1 pmos_5p0 L=0.5U W=1.83U AS=0.61305P AD=0.52155P PS=2.5U PD=2.4U
* device instance $4 r0 *1 4.23,3.78 pmos_5p0
M$4 1 2 9 1 pmos_5p0 L=0.5U W=1.83U AS=0.52155P AD=0.6588P PS=2.4U PD=2.55U
* device instance $5 r0 *1 5.45,3.78 pmos_5p0
M$5 11 5 1 1 pmos_5p0 L=0.5U W=1.83U AS=0.6588P AD=0.52155P PS=2.55U PD=2.4U
* device instance $6 r0 *1 6.52,3.78 pmos_5p0
M$6 6 7 11 1 pmos_5p0 L=0.5U W=1.83U AS=0.52155P AD=0.5673P PS=2.4U PD=2.45U
* device instance $7 r0 *1 7.64,3.78 pmos_5p0
M$7 10 7 6 1 pmos_5p0 L=0.5U W=1.83U AS=0.5673P AD=0.52155P PS=2.45U PD=2.4U
* device instance $8 r0 *1 8.71,3.78 pmos_5p0
M$8 1 5 10 1 pmos_5p0 L=0.5U W=1.83U AS=0.52155P AD=0.8052P PS=2.4U PD=4.54U
* device instance $9 r0 *1 0.92,1.005 nmos_5p0
M$9 3 2 8 3 nmos_5p0 L=0.6U W=2.64U AS=0.924P AD=0.6864P PS=5.36U PD=3.68U
* device instance $10 r0 *1 2.04,1.005 nmos_5p0
M$10 8 4 3 3 nmos_5p0 L=0.6U W=2.64U AS=0.6864P AD=0.6864P PS=3.68U PD=3.68U
* device instance $13 r0 *1 5.4,1.005 nmos_5p0
M$13 6 5 8 3 nmos_5p0 L=0.6U W=2.64U AS=0.6864P AD=0.924P PS=3.68U PD=5.36U
* device instance $14 r0 *1 6.52,1.005 nmos_5p0
M$14 8 7 6 3 nmos_5p0 L=0.6U W=2.64U AS=0.6864P AD=0.6864P PS=3.68U PD=3.68U
.ENDS gf180mcu_fd_sc_mcu9t5v0__oai22_2

* cell gf180mcu_fd_sc_mcu9t5v0__nor4_2
* pin PWELL,VSS,gf180mcu_gnd
* pin ZN
* pin A4
* pin NWELL,VDD
* pin A3
* pin A1
* pin A2
.SUBCKT gf180mcu_fd_sc_mcu9t5v0__nor4_2 1 2 3 4 5 6 7
* net 1 PWELL,VSS,gf180mcu_gnd
* net 2 ZN
* net 3 A4
* net 4 NWELL,VDD
* net 5 A3
* net 6 A1
* net 7 A2
* device instance $1 r0 *1 0.975,3.78 pmos_5p0
M$1 13 5 8 4 pmos_5p0 L=0.5U W=1.83U AS=0.8052P AD=0.52155P PS=4.54U PD=2.4U
* device instance $2 r0 *1 2.045,3.78 pmos_5p0
M$2 4 3 13 4 pmos_5p0 L=0.5U W=1.83U AS=0.52155P AD=0.5673P PS=2.4U PD=2.45U
* device instance $3 r0 *1 3.165,3.78 pmos_5p0
M$3 12 3 4 4 pmos_5p0 L=0.5U W=1.83U AS=0.5673P AD=0.732P PS=2.45U PD=2.63U
* device instance $4 r0 *1 4.465,3.78 pmos_5p0
M$4 11 5 12 4 pmos_5p0 L=0.5U W=1.83U AS=0.732P AD=0.77775P PS=2.63U PD=2.68U
* device instance $5 r0 *1 5.815,3.78 pmos_5p0
M$5 10 7 11 4 pmos_5p0 L=0.5U W=1.83U AS=0.77775P AD=0.52155P PS=2.68U PD=2.4U
* device instance $6 r0 *1 6.885,3.78 pmos_5p0
M$6 2 6 10 4 pmos_5p0 L=0.5U W=1.83U AS=0.52155P AD=0.61305P PS=2.4U PD=2.5U
* device instance $7 r0 *1 8.055,3.78 pmos_5p0
M$7 9 6 2 4 pmos_5p0 L=0.5U W=1.83U AS=0.61305P AD=0.4758P PS=2.5U PD=2.35U
* device instance $8 r0 *1 9.075,3.78 pmos_5p0
M$8 8 7 9 4 pmos_5p0 L=0.5U W=1.83U AS=0.4758P AD=0.8052P PS=2.35U PD=4.54U
* device instance $9 r0 *1 4.465,0.695 nmos_5p0
M$9 1 5 2 1 nmos_5p0 L=0.6U W=1.32U AS=0.52165P AD=0.40285P PS=3.565U PD=2.545U
* device instance $11 r0 *1 2.045,0.7 nmos_5p0
M$11 1 3 2 1 nmos_5p0 L=0.6U W=1.32U AS=0.40285P AD=0.3432P PS=2.545U PD=2.36U
* device instance $13 r0 *1 5.765,0.7 nmos_5p0
M$13 2 7 1 1 nmos_5p0 L=0.6U W=1.32U AS=0.40285P AD=0.462P PS=2.545U PD=3.38U
* device instance $14 r0 *1 6.885,0.7 nmos_5p0
M$14 1 6 2 1 nmos_5p0 L=0.6U W=1.32U AS=0.3432P AD=0.3432P PS=2.36U PD=2.36U
.ENDS gf180mcu_fd_sc_mcu9t5v0__nor4_2

* cell gf180mcu_fd_sc_mcu9t5v0__or3_2
* pin A1
* pin PWELL,VSS,gf180mcu_gnd
* pin A2
* pin A3
* pin NWELL,VDD
* pin Z
.SUBCKT gf180mcu_fd_sc_mcu9t5v0__or3_2 2 3 4 5 6 7
* net 2 A1
* net 3 PWELL,VSS,gf180mcu_gnd
* net 4 A2
* net 5 A3
* net 6 NWELL,VDD
* net 7 Z
* device instance $1 r0 *1 0.97,3.78 pmos_5p0
M$1 9 2 1 6 pmos_5p0 L=0.5U W=1.83U AS=0.8052P AD=0.52155P PS=4.54U PD=2.4U
* device instance $2 r0 *1 2.04,3.78 pmos_5p0
M$2 8 4 9 6 pmos_5p0 L=0.5U W=1.83U AS=0.52155P AD=0.5673P PS=2.4U PD=2.45U
* device instance $3 r0 *1 3.16,3.78 pmos_5p0
M$3 6 5 8 6 pmos_5p0 L=0.5U W=1.83U AS=0.5673P AD=0.732P PS=2.45U PD=2.63U
* device instance $4 r0 *1 4.46,3.78 pmos_5p0
M$4 7 1 6 6 pmos_5p0 L=0.5U W=3.66U AS=1.25355P AD=1.32675P PS=5.03U PD=6.94U
* device instance $6 r0 *1 0.92,0.87 nmos_5p0
M$6 3 2 1 3 nmos_5p0 L=0.6U W=1.05U AS=0.462P AD=0.273P PS=2.98U PD=1.57U
* device instance $7 r0 *1 2.04,0.87 nmos_5p0
M$7 1 4 3 3 nmos_5p0 L=0.6U W=1.05U AS=0.273P AD=0.273P PS=1.57U PD=1.57U
* device instance $8 r0 *1 3.16,0.87 nmos_5p0
M$8 3 5 1 3 nmos_5p0 L=0.6U W=1.05U AS=0.273P AD=0.4215P PS=1.57U PD=2.02U
* device instance $9 r0 *1 4.46,1.005 nmos_5p0
M$9 7 1 3 3 nmos_5p0 L=0.6U W=2.64U AS=0.7647P AD=0.924P PS=3.86U PD=5.36U
.ENDS gf180mcu_fd_sc_mcu9t5v0__or3_2

* cell gf180mcu_fd_sc_mcu9t5v0__and4_2
* pin A1
* pin A2
* pin A3
* pin A4
* pin PWELL,VSS,gf180mcu_gnd
* pin NWELL,VDD
* pin Z
.SUBCKT gf180mcu_fd_sc_mcu9t5v0__and4_2 1 2 3 4 5 6 8
* net 1 A1
* net 2 A2
* net 3 A3
* net 4 A4
* net 5 PWELL,VSS,gf180mcu_gnd
* net 6 NWELL,VDD
* net 8 Z
* device instance $1 r0 *1 0.925,4.055 pmos_5p0
M$1 7 1 6 6 pmos_5p0 L=0.5U W=1.28U AS=0.5632P AD=0.3328P PS=3.44U PD=1.8U
* device instance $2 r0 *1 1.945,4.055 pmos_5p0
M$2 6 2 7 6 pmos_5p0 L=0.5U W=1.28U AS=0.3328P AD=0.3328P PS=1.8U PD=1.8U
* device instance $3 r0 *1 2.965,4.055 pmos_5p0
M$3 7 3 6 6 pmos_5p0 L=0.5U W=1.28U AS=0.3328P AD=0.3328P PS=1.8U PD=1.8U
* device instance $4 r0 *1 3.985,4.055 pmos_5p0
M$4 7 4 6 6 pmos_5p0 L=0.5U W=1.28U AS=0.558P AD=0.3328P PS=2.53U PD=1.8U
* device instance $5 r0 *1 5.185,3.78 pmos_5p0
M$5 8 7 6 6 pmos_5p0 L=0.5U W=3.66U AS=1.0338P AD=1.281P PS=4.88U PD=6.89U
* device instance $7 r0 *1 0.975,1.005 nmos_5p0
M$7 11 1 7 5 nmos_5p0 L=0.6U W=1.32U AS=0.5808P AD=0.2112P PS=3.52U PD=1.64U
* device instance $8 r0 *1 1.895,1.005 nmos_5p0
M$8 10 2 11 5 nmos_5p0 L=0.6U W=1.32U AS=0.2112P AD=0.2772P PS=1.64U PD=1.74U
* device instance $9 r0 *1 2.915,1.005 nmos_5p0
M$9 9 3 10 5 nmos_5p0 L=0.6U W=1.32U AS=0.2772P AD=0.2772P PS=1.74U PD=1.74U
* device instance $10 r0 *1 3.935,1.005 nmos_5p0
M$10 5 4 9 5 nmos_5p0 L=0.6U W=1.32U AS=0.2772P AD=0.3432P PS=1.74U PD=1.84U
* device instance $11 r0 *1 5.055,1.005 nmos_5p0
M$11 8 7 5 5 nmos_5p0 L=0.6U W=2.64U AS=0.6864P AD=0.924P PS=3.68U PD=5.36U
.ENDS gf180mcu_fd_sc_mcu9t5v0__and4_2