* CDL Netlist generated by OpenROAD

*.BUSDELIMITER [

.SUBCKT configurable_carry_select_adder a[0] a[10] a[11] a[12]
+ a[13] a[14] a[15] a[16] a[17] a[18] a[19] a[1] a[20] a[21]
+ a[22] a[23] a[24] a[25] a[26] a[27] a[28] a[29] a[2] a[30]
+ a[31] a[32] a[33] a[34] a[35] a[36] a[37] a[38] a[39] a[3]
+ a[40] a[41] a[42] a[43] a[44] a[45] a[46] a[47] a[48] a[49]
+ a[4] a[50] a[51] a[52] a[53] a[54] a[55] a[56] a[57] a[58]
+ a[59] a[5] a[60] a[61] a[62] a[63] a[6] a[7] a[8] a[9] b[0]
+ b[10] b[11] b[12] b[13] b[14] b[15] b[16] b[17] b[18] b[19]
+ b[1] b[20] b[21] b[22] b[23] b[24] b[25] b[26] b[27] b[28]
+ b[29] b[2] b[30] b[31] b[32] b[33] b[34] b[35] b[36] b[37]
+ b[38] b[39] b[3] b[40] b[41] b[42] b[43] b[44] b[45] b[46]
+ b[47] b[48] b[49] b[4] b[50] b[51] b[52] b[53] b[54] b[55]
+ b[56] b[57] b[58] b[59] b[5] b[60] b[61] b[62] b[63] b[6]
+ b[7] b[8] b[9] cin cout sum[0] sum[10] sum[11] sum[12] sum[13]
+ sum[14] sum[15] sum[16] sum[17] sum[18] sum[19] sum[1] sum[20]
+ sum[21] sum[22] sum[23] sum[24] sum[25] sum[26] sum[27] sum[28]
+ sum[29] sum[2] sum[30] sum[31] sum[32] sum[33] sum[34] sum[35]
+ sum[36] sum[37] sum[38] sum[39] sum[3] sum[40] sum[41] sum[42]
+ sum[43] sum[44] sum[45] sum[46] sum[47] sum[48] sum[49] sum[4]
+ sum[50] sum[51] sum[52] sum[53] sum[54] sum[55] sum[56] sum[57]
+ sum[58] sum[59] sum[5] sum[60] sum[61] sum[62] sum[63] sum[6]
+ sum[7] sum[8] sum[9]
X_429_ net1 _270_ VDD VSS gf180mcu_fd_sc_mcu9t5v0__clkinv_2
X_430_ net65 _271_ VDD VSS gf180mcu_fd_sc_mcu9t5v0__clkinv_2
X_431_ net129 _272_ VDD VSS gf180mcu_fd_sc_mcu9t5v0__clkinv_2
X_432_ _273_ _274_ VDD VSS gf180mcu_fd_sc_mcu9t5v0__clkinv_2
X_433_ _276_ first_block.full_adders\[1\].fa.sum VDD VSS gf180mcu_fd_sc_mcu9t5v0__clkinv_2
X_434_ _278_ first_block.full_adders\[2\].fa.sum VDD VSS gf180mcu_fd_sc_mcu9t5v0__clkinv_2
X_435_ _280_ first_block.full_adders\[3\].fa.sum VDD VSS gf180mcu_fd_sc_mcu9t5v0__clkinv_2
X_436_ _282_ first_block.full_adders\[4\].fa.sum VDD VSS gf180mcu_fd_sc_mcu9t5v0__clkinv_2
X_437_ _284_ first_block.full_adders\[5\].fa.sum VDD VSS gf180mcu_fd_sc_mcu9t5v0__clkinv_2
X_438_ _286_ first_block.full_adders\[6\].fa.sum VDD VSS gf180mcu_fd_sc_mcu9t5v0__clkinv_2
X_439_ _288_ first_block.full_adders\[7\].fa.sum VDD VSS gf180mcu_fd_sc_mcu9t5v0__clkinv_2
X_440_ net43 _289_ VDD VSS gf180mcu_fd_sc_mcu9t5v0__clkinv_2
X_441_ net52 _295_ VDD VSS gf180mcu_fd_sc_mcu9t5v0__clkinv_2
X_442_ net8 _301_ VDD VSS gf180mcu_fd_sc_mcu9t5v0__clkinv_2
X_443_ net17 _307_ VDD VSS gf180mcu_fd_sc_mcu9t5v0__clkinv_2
X_444_ net26 _313_ VDD VSS gf180mcu_fd_sc_mcu9t5v0__clkinv_2
X_445_ net35 _319_ VDD VSS gf180mcu_fd_sc_mcu9t5v0__clkinv_2
X_446_ net63 _423_ VDD VSS gf180mcu_fd_sc_mcu9t5v0__clkinv_2
X_447_ net107 _290_ VDD VSS gf180mcu_fd_sc_mcu9t5v0__clkinv_2
X_448_ net116 _296_ VDD VSS gf180mcu_fd_sc_mcu9t5v0__clkinv_2
X_449_ net72 _302_ VDD VSS gf180mcu_fd_sc_mcu9t5v0__clkinv_2
X_450_ net81 _308_ VDD VSS gf180mcu_fd_sc_mcu9t5v0__clkinv_2
X_451_ net90 _314_ VDD VSS gf180mcu_fd_sc_mcu9t5v0__clkinv_2
X_452_ net99 _320_ VDD VSS gf180mcu_fd_sc_mcu9t5v0__clkinv_2
X_453_ net127 _424_ VDD VSS gf180mcu_fd_sc_mcu9t5v0__clkinv_2
X_454_ net59 net123 _000_ VDD VSS gf180mcu_fd_sc_mcu9t5v0__or2_2
X_455_ net58 net122 _413_ _001_ VDD VSS gf180mcu_fd_sc_mcu9t5v0__or3_2
X_456_ _000_ _001_ _002_ VDD VSS gf180mcu_fd_sc_mcu9t5v0__and2_2
X_457_ net57 net121 _003_ VDD VSS gf180mcu_fd_sc_mcu9t5v0__or2_2
X_458_ net55 net119 _004_ VDD VSS gf180mcu_fd_sc_mcu9t5v0__nor2_2
X_459_ net54 net118 _005_ VDD VSS gf180mcu_fd_sc_mcu9t5v0__or2_2
X_460_ net53 net117 _006_ VDD VSS gf180mcu_fd_sc_mcu9t5v0__nor2_2
X_461_ _421_ _007_ VDD VSS gf180mcu_fd_sc_mcu9t5v0__clkinv_2
X_462_ _297_ _006_ _007_ _008_ VDD VSS gf180mcu_fd_sc_mcu9t5v0__oai21_2
X_463_ _005_ _008_ _419_ _009_ VDD VSS gf180mcu_fd_sc_mcu9t5v0__aoi21_2
X_464_ _417_ _010_ VDD VSS gf180mcu_fd_sc_mcu9t5v0__clkinv_2
X_465_ _004_ _009_ _010_ _011_ VDD VSS gf180mcu_fd_sc_mcu9t5v0__oai21_2
X_466_ _003_ _011_ _012_ VDD VSS gf180mcu_fd_sc_mcu9t5v0__and2_2
X_467_ _299_ _013_ VDD VSS gf180mcu_fd_sc_mcu9t5v0__clkinv_2
X_468_ _013_ _006_ _007_ _014_ VDD VSS gf180mcu_fd_sc_mcu9t5v0__oai21_2
X_469_ _005_ _014_ _419_ _015_ VDD VSS gf180mcu_fd_sc_mcu9t5v0__aoi21_2
X_470_ _004_ _015_ _010_ _016_ VDD VSS gf180mcu_fd_sc_mcu9t5v0__oai21_2
X_471_ _003_ _016_ _017_ VDD VSS gf180mcu_fd_sc_mcu9t5v0__and2_2
X_472_ _353_ _355_ _357_ _018_ VDD VSS gf180mcu_fd_sc_mcu9t5v0__nor3_4
X_473_ net21 net85 _019_ VDD VSS gf180mcu_fd_sc_mcu9t5v0__or2_2
X_474_ net20 net84 _020_ VDD VSS gf180mcu_fd_sc_mcu9t5v0__or2_2
X_475_ net19 net83 _363_ _021_ VDD VSS gf180mcu_fd_sc_mcu9t5v0__or3_2
X_476_ _019_ _020_ _021_ _022_ VDD VSS gf180mcu_fd_sc_mcu9t5v0__and3_2
X_477_ _311_ _023_ VDD VSS gf180mcu_fd_sc_mcu9t5v0__clkinv_2
X_478_ net18 net82 _024_ VDD VSS gf180mcu_fd_sc_mcu9t5v0__nor2_2
X_479_ _365_ _025_ VDD VSS gf180mcu_fd_sc_mcu9t5v0__clkinv_2
X_480_ _363_ _026_ VDD VSS gf180mcu_fd_sc_mcu9t5v0__clkinv_2
X_481_ _023_ _024_ _025_ _026_ _027_ VDD VSS gf180mcu_fd_sc_mcu9t5v0__oai211_2
X_482_ _361_ _019_ _022_ _027_ _359_ _028_ VDD VSS gf180mcu_fd_sc_mcu9t5v0__aoi221_4
X_483_ net25 net89 _029_ VDD VSS gf180mcu_fd_sc_mcu9t5v0__nor2_2
X_484_ net24 net88 _355_ _030_ VDD VSS gf180mcu_fd_sc_mcu9t5v0__nor3_2
X_485_ net22 net86 _355_ _357_ _031_ VDD VSS gf180mcu_fd_sc_mcu9t5v0__nor4_2
X_486_ _353_ _032_ VDD VSS gf180mcu_fd_sc_mcu9t5v0__clkinv_2
X_487_ _029_ _030_ _031_ _032_ _033_ VDD VSS gf180mcu_fd_sc_mcu9t5v0__oai31_2
X_488_ _033_ _034_ VDD VSS gf180mcu_fd_sc_mcu9t5v0__clkinv_2
X_489_ _018_ _028_ _034_ _035_ VDD VSS gf180mcu_fd_sc_mcu9t5v0__aoi21_4
X_490_ net16 net80 _036_ VDD VSS gf180mcu_fd_sc_mcu9t5v0__or2_2
X_491_ net15 net79 _037_ VDD VSS gf180mcu_fd_sc_mcu9t5v0__or2_2
X_492_ _036_ _037_ _038_ VDD VSS gf180mcu_fd_sc_mcu9t5v0__and2_2
X_493_ _341_ _036_ _038_ _343_ _339_ _039_ VDD VSS gf180mcu_fd_sc_mcu9t5v0__aoi221_4
X_494_ net10 net74 _040_ VDD VSS gf180mcu_fd_sc_mcu9t5v0__or2_2
X_495_ _351_ _040_ _041_ VDD VSS gf180mcu_fd_sc_mcu9t5v0__and2_2
X_496_ _349_ _042_ VDD VSS gf180mcu_fd_sc_mcu9t5v0__clkinv_2
X_497_ _345_ _347_ _043_ VDD VSS gf180mcu_fd_sc_mcu9t5v0__nor2_4
X_498_ _042_ _043_ _044_ VDD VSS gf180mcu_fd_sc_mcu9t5v0__nand2_2
X_499_ net9 net73 _045_ VDD VSS gf180mcu_fd_sc_mcu9t5v0__or2_2
X_500_ _305_ _040_ _045_ _046_ VDD VSS gf180mcu_fd_sc_mcu9t5v0__and3_2
X_501_ net11 net75 _047_ VDD VSS gf180mcu_fd_sc_mcu9t5v0__nor2_2
X_502_ net13 net77 _345_ _048_ VDD VSS gf180mcu_fd_sc_mcu9t5v0__nor3_4
X_503_ net14 net78 net15 net79 net16 net80 _049_ VDD VSS gf180mcu_fd_sc_mcu9t5v0__oai222_4
X_504_ _047_ _043_ _048_ _049_ _050_ VDD VSS gf180mcu_fd_sc_mcu9t5v0__aoi211_4
X_505_ _041_ _044_ _046_ _050_ _051_ VDD VSS gf180mcu_fd_sc_mcu9t5v0__oai31_2
X_506_ _039_ _051_ _052_ VDD VSS gf180mcu_fd_sc_mcu9t5v0__and2_2
X_507_ net7 net71 _325_ _053_ VDD VSS gf180mcu_fd_sc_mcu9t5v0__or3_4
X_508_ _053_ _054_ VDD VSS gf180mcu_fd_sc_mcu9t5v0__clkinv_2
X_509_ net6 net70 _055_ VDD VSS gf180mcu_fd_sc_mcu9t5v0__or2_2
X_510_ _329_ _056_ VDD VSS gf180mcu_fd_sc_mcu9t5v0__clkinv_2
X_511_ net5 net69 _331_ _057_ VDD VSS gf180mcu_fd_sc_mcu9t5v0__oai21_2
X_512_ _056_ _057_ _058_ VDD VSS gf180mcu_fd_sc_mcu9t5v0__nand2_2
X_513_ _055_ _058_ _325_ _327_ _059_ VDD VSS gf180mcu_fd_sc_mcu9t5v0__aoi211_4
X_514_ _054_ _059_ _060_ VDD VSS gf180mcu_fd_sc_mcu9t5v0__or2_4
X_515_ net3 net67 _061_ VDD VSS gf180mcu_fd_sc_mcu9t5v0__or2_2
X_516_ net2 net66 _333_ _335_ _062_ VDD VSS gf180mcu_fd_sc_mcu9t5v0__or4_2
X_517_ net4 net68 _333_ _061_ _062_ _063_ VDD VSS gf180mcu_fd_sc_mcu9t5v0__oai221_4
X_518_ _425_ _064_ VDD VSS gf180mcu_fd_sc_mcu9t5v0__clkinv_2
X_519_ _427_ _064_ _287_ _065_ VDD VSS gf180mcu_fd_sc_mcu9t5v0__mux2_2
X_520_ net64 net128 _066_ VDD VSS gf180mcu_fd_sc_mcu9t5v0__or2_2
X_521_ _333_ _335_ _337_ _067_ VDD VSS gf180mcu_fd_sc_mcu9t5v0__or3_2
X_522_ _065_ _066_ _067_ _068_ VDD VSS gf180mcu_fd_sc_mcu9t5v0__aoi21_4
X_523_ net5 net69 _055_ _069_ VDD VSS gf180mcu_fd_sc_mcu9t5v0__oai21_2
X_524_ _054_ _063_ _068_ _069_ _070_ VDD VSS gf180mcu_fd_sc_mcu9t5v0__or4_4
X_525_ _035_ _052_ _060_ _070_ _071_ VDD VSS gf180mcu_fd_sc_mcu9t5v0__and4_2
X_526_ _303_ _072_ VDD VSS gf180mcu_fd_sc_mcu9t5v0__clkinv_2
X_527_ _072_ _040_ _045_ _073_ VDD VSS gf180mcu_fd_sc_mcu9t5v0__and3_2
X_528_ _041_ _044_ _073_ _050_ _074_ VDD VSS gf180mcu_fd_sc_mcu9t5v0__oai31_2
X_529_ _039_ _074_ _075_ VDD VSS gf180mcu_fd_sc_mcu9t5v0__and2_2
X_530_ _063_ _068_ _069_ _059_ _076_ VDD VSS gf180mcu_fd_sc_mcu9t5v0__oai31_4
X_531_ _035_ _053_ _075_ _076_ _077_ VDD VSS gf180mcu_fd_sc_mcu9t5v0__and4_2
X_532_ net20 net84 _361_ _078_ VDD VSS gf180mcu_fd_sc_mcu9t5v0__or3_2
X_533_ _019_ _078_ _079_ VDD VSS gf180mcu_fd_sc_mcu9t5v0__and2_2
X_534_ net19 net83 _080_ VDD VSS gf180mcu_fd_sc_mcu9t5v0__nor2_2
X_535_ net18 net82 _365_ _081_ VDD VSS gf180mcu_fd_sc_mcu9t5v0__nor3_2
X_536_ _309_ _025_ _080_ _081_ _082_ VDD VSS gf180mcu_fd_sc_mcu9t5v0__aoi211_2
X_537_ _359_ _361_ _363_ _083_ VDD VSS gf180mcu_fd_sc_mcu9t5v0__or3_2
X_538_ _359_ _079_ _082_ _083_ _084_ VDD VSS gf180mcu_fd_sc_mcu9t5v0__oai22_2
X_539_ _018_ _084_ _085_ VDD VSS gf180mcu_fd_sc_mcu9t5v0__nand2_2
X_540_ _035_ _085_ _086_ VDD VSS gf180mcu_fd_sc_mcu9t5v0__and2_4
X_541_ _071_ _077_ _086_ _087_ VDD VSS gf180mcu_fd_sc_mcu9t5v0__or3_4
X_542_ _033_ _085_ _088_ VDD VSS gf180mcu_fd_sc_mcu9t5v0__nand2_4
X_543_ _052_ _060_ _070_ _089_ VDD VSS gf180mcu_fd_sc_mcu9t5v0__and3_2
X_544_ _039_ _074_ _090_ VDD VSS gf180mcu_fd_sc_mcu9t5v0__nand2_2
X_545_ _060_ _070_ _090_ _091_ VDD VSS gf180mcu_fd_sc_mcu9t5v0__aoi21_4
X_546_ _088_ _089_ _091_ _092_ VDD VSS gf180mcu_fd_sc_mcu9t5v0__nor3_4
X_547_ net33 net97 _093_ VDD VSS gf180mcu_fd_sc_mcu9t5v0__or2_2
X_548_ net32 net96 _094_ VDD VSS gf180mcu_fd_sc_mcu9t5v0__or2_2
X_549_ net31 net95 _095_ VDD VSS gf180mcu_fd_sc_mcu9t5v0__or2_2
X_550_ net30 net94 _096_ VDD VSS gf180mcu_fd_sc_mcu9t5v0__or2_2
X_551_ _094_ _095_ _096_ _097_ VDD VSS gf180mcu_fd_sc_mcu9t5v0__and3_2
X_552_ _093_ _097_ _098_ VDD VSS gf180mcu_fd_sc_mcu9t5v0__and2_2
X_553_ net29 net93 _099_ VDD VSS gf180mcu_fd_sc_mcu9t5v0__nor2_2
X_554_ net28 net92 _100_ VDD VSS gf180mcu_fd_sc_mcu9t5v0__or2_2
X_555_ net27 net91 _101_ VDD VSS gf180mcu_fd_sc_mcu9t5v0__nor2_4
X_556_ _379_ _102_ VDD VSS gf180mcu_fd_sc_mcu9t5v0__clkinv_2
X_557_ _315_ _101_ _102_ _103_ VDD VSS gf180mcu_fd_sc_mcu9t5v0__oai21_2
X_558_ _100_ _103_ _377_ _104_ VDD VSS gf180mcu_fd_sc_mcu9t5v0__aoi21_4
X_559_ _375_ _105_ VDD VSS gf180mcu_fd_sc_mcu9t5v0__clkinv_2
X_560_ _099_ _104_ _105_ _106_ VDD VSS gf180mcu_fd_sc_mcu9t5v0__oai21_2
X_561_ net32 net96 _107_ VDD VSS gf180mcu_fd_sc_mcu9t5v0__nor2_2
X_562_ _373_ _095_ _371_ _108_ VDD VSS gf180mcu_fd_sc_mcu9t5v0__aoi21_2
X_563_ _369_ _109_ VDD VSS gf180mcu_fd_sc_mcu9t5v0__clkinv_2
X_564_ _107_ _108_ _109_ _110_ VDD VSS gf180mcu_fd_sc_mcu9t5v0__oai21_2
X_565_ _110_ _093_ _111_ VDD VSS gf180mcu_fd_sc_mcu9t5v0__and2_2
X_566_ _367_ _111_ _112_ VDD VSS gf180mcu_fd_sc_mcu9t5v0__or2_2
X_567_ _098_ _106_ _112_ _113_ VDD VSS gf180mcu_fd_sc_mcu9t5v0__aoi21_2
X_568_ _087_ _092_ _113_ _114_ VDD VSS gf180mcu_fd_sc_mcu9t5v0__oai21_4
X_569_ _317_ _115_ VDD VSS gf180mcu_fd_sc_mcu9t5v0__clkinv_2
X_570_ _115_ _101_ _102_ _116_ VDD VSS gf180mcu_fd_sc_mcu9t5v0__oai21_2
X_571_ _100_ _116_ _377_ _117_ VDD VSS gf180mcu_fd_sc_mcu9t5v0__aoi21_4
X_572_ _099_ _117_ _105_ _118_ VDD VSS gf180mcu_fd_sc_mcu9t5v0__oai21_2
X_573_ _098_ _118_ _119_ VDD VSS gf180mcu_fd_sc_mcu9t5v0__and2_2
X_574_ _112_ _087_ _092_ _119_ _120_ VDD VSS gf180mcu_fd_sc_mcu9t5v0__or4_4
X_575_ net50 net114 _121_ VDD VSS gf180mcu_fd_sc_mcu9t5v0__or2_2
X_576_ net47 net111 _122_ VDD VSS gf180mcu_fd_sc_mcu9t5v0__or2_2
X_577_ net46 net110 _123_ VDD VSS gf180mcu_fd_sc_mcu9t5v0__nor2_2
X_578_ _291_ _124_ VDD VSS gf180mcu_fd_sc_mcu9t5v0__clkinv_2
X_579_ net44 net108 _125_ VDD VSS gf180mcu_fd_sc_mcu9t5v0__or2_2
X_580_ _124_ _125_ _407_ _126_ VDD VSS gf180mcu_fd_sc_mcu9t5v0__aoi21_2
X_581_ _405_ _127_ VDD VSS gf180mcu_fd_sc_mcu9t5v0__clkinv_2
X_582_ _123_ _126_ _127_ _128_ VDD VSS gf180mcu_fd_sc_mcu9t5v0__oai21_2
X_583_ _122_ _128_ _403_ _129_ VDD VSS gf180mcu_fd_sc_mcu9t5v0__aoi21_2
X_584_ net48 net112 _130_ VDD VSS gf180mcu_fd_sc_mcu9t5v0__nor2_2
X_585_ _401_ _131_ VDD VSS gf180mcu_fd_sc_mcu9t5v0__clkinv_2
X_586_ _129_ _130_ _131_ _132_ VDD VSS gf180mcu_fd_sc_mcu9t5v0__oai21_4
X_587_ net49 net113 _133_ VDD VSS gf180mcu_fd_sc_mcu9t5v0__or2_2
X_588_ _121_ _133_ _134_ VDD VSS gf180mcu_fd_sc_mcu9t5v0__and2_2
X_589_ _399_ _121_ _132_ _134_ _397_ _135_ VDD VSS gf180mcu_fd_sc_mcu9t5v0__aoi221_4
X_590_ net42 net106 _136_ VDD VSS gf180mcu_fd_sc_mcu9t5v0__or2_4
X_591_ net41 net105 _137_ VDD VSS gf180mcu_fd_sc_mcu9t5v0__or2_2
X_592_ net40 net104 _138_ VDD VSS gf180mcu_fd_sc_mcu9t5v0__or2_2
X_593_ _137_ _138_ _139_ VDD VSS gf180mcu_fd_sc_mcu9t5v0__nand2_2
X_594_ net39 net103 _140_ VDD VSS gf180mcu_fd_sc_mcu9t5v0__or2_2
X_595_ net38 net102 _141_ VDD VSS gf180mcu_fd_sc_mcu9t5v0__nor2_2
X_596_ net37 net101 _142_ VDD VSS gf180mcu_fd_sc_mcu9t5v0__or2_2
X_597_ _323_ _143_ VDD VSS gf180mcu_fd_sc_mcu9t5v0__clkinv_2
X_598_ net36 net100 _144_ VDD VSS gf180mcu_fd_sc_mcu9t5v0__nor2_2
X_599_ _393_ _145_ VDD VSS gf180mcu_fd_sc_mcu9t5v0__clkinv_2
X_600_ _143_ _144_ _145_ _146_ VDD VSS gf180mcu_fd_sc_mcu9t5v0__oai21_2
X_601_ _142_ _146_ _391_ _147_ VDD VSS gf180mcu_fd_sc_mcu9t5v0__aoi21_2
X_602_ _389_ _148_ VDD VSS gf180mcu_fd_sc_mcu9t5v0__clkinv_2
X_603_ _141_ _147_ _148_ _149_ VDD VSS gf180mcu_fd_sc_mcu9t5v0__oai21_2
X_604_ _140_ _149_ _387_ _150_ VDD VSS gf180mcu_fd_sc_mcu9t5v0__aoi21_2
X_605_ _385_ _137_ _383_ _151_ VDD VSS gf180mcu_fd_sc_mcu9t5v0__aoi21_4
X_606_ _139_ _150_ _151_ _152_ VDD VSS gf180mcu_fd_sc_mcu9t5v0__oai21_4
X_607_ _135_ _136_ _152_ _153_ VDD VSS gf180mcu_fd_sc_mcu9t5v0__nand3_2
X_608_ _114_ _120_ _153_ _154_ VDD VSS gf180mcu_fd_sc_mcu9t5v0__aoi21_2
X_609_ _321_ _144_ _145_ _155_ VDD VSS gf180mcu_fd_sc_mcu9t5v0__oai21_2
X_610_ _142_ _155_ _391_ _156_ VDD VSS gf180mcu_fd_sc_mcu9t5v0__aoi21_2
X_611_ _141_ _156_ _148_ _157_ VDD VSS gf180mcu_fd_sc_mcu9t5v0__oai21_2
X_612_ _140_ _157_ _387_ _158_ VDD VSS gf180mcu_fd_sc_mcu9t5v0__aoi21_2
X_613_ _158_ _139_ _151_ _159_ VDD VSS gf180mcu_fd_sc_mcu9t5v0__oai21_4
X_614_ _135_ _159_ _160_ VDD VSS gf180mcu_fd_sc_mcu9t5v0__and2_2
X_615_ _136_ _114_ _120_ _160_ _161_ VDD VSS gf180mcu_fd_sc_mcu9t5v0__and4_2
X_616_ _381_ _135_ _162_ VDD VSS gf180mcu_fd_sc_mcu9t5v0__and2_2
X_617_ _154_ _161_ _162_ _163_ VDD VSS gf180mcu_fd_sc_mcu9t5v0__nor3_4
X_618_ net50 net114 _164_ VDD VSS gf180mcu_fd_sc_mcu9t5v0__nor2_2
X_619_ _293_ _125_ _407_ _165_ VDD VSS gf180mcu_fd_sc_mcu9t5v0__aoi21_2
X_620_ _123_ _165_ _127_ _166_ VDD VSS gf180mcu_fd_sc_mcu9t5v0__oai21_2
X_621_ _122_ _166_ _403_ _167_ VDD VSS gf180mcu_fd_sc_mcu9t5v0__aoi21_2
X_622_ _130_ _167_ _131_ _168_ VDD VSS gf180mcu_fd_sc_mcu9t5v0__oai21_2
X_623_ _133_ _168_ _399_ _169_ VDD VSS gf180mcu_fd_sc_mcu9t5v0__aoi21_2
X_624_ _397_ _170_ VDD VSS gf180mcu_fd_sc_mcu9t5v0__clkinv_2
X_625_ _164_ _169_ _170_ _171_ VDD VSS gf180mcu_fd_sc_mcu9t5v0__oai21_2
X_626_ _381_ _395_ _171_ _172_ VDD VSS gf180mcu_fd_sc_mcu9t5v0__or3_2
X_627_ _136_ _152_ _173_ VDD VSS gf180mcu_fd_sc_mcu9t5v0__nand2_2
X_628_ _114_ _120_ _173_ _174_ VDD VSS gf180mcu_fd_sc_mcu9t5v0__aoi21_2
X_629_ _136_ _114_ _120_ _159_ _175_ VDD VSS gf180mcu_fd_sc_mcu9t5v0__and4_2
X_630_ _174_ _175_ _176_ VDD VSS gf180mcu_fd_sc_mcu9t5v0__or2_2
X_631_ net51 net115 _395_ _177_ VDD VSS gf180mcu_fd_sc_mcu9t5v0__or3_2
X_632_ _395_ _163_ _172_ _176_ _177_ _178_ VDD VSS gf180mcu_fd_sc_mcu9t5v0__oai221_4
X_633_ _012_ _017_ _178_ _179_ VDD VSS gf180mcu_fd_sc_mcu9t5v0__mux2_2
X_634_ _411_ _413_ _415_ _180_ VDD VSS gf180mcu_fd_sc_mcu9t5v0__or3_2
X_635_ _411_ _002_ _179_ _180_ _181_ VDD VSS gf180mcu_fd_sc_mcu9t5v0__oai22_4
X_636_ net60 net124 _182_ VDD VSS gf180mcu_fd_sc_mcu9t5v0__nor2_2
X_637_ _409_ _183_ VDD VSS gf180mcu_fd_sc_mcu9t5v0__clkinv_2
X_638_ _181_ _182_ _183_ net130 VDD VSS gf180mcu_fd_sc_mcu9t5v0__oai21_2
X_639_ _065_ _066_ _337_ _184_ VDD VSS gf180mcu_fd_sc_mcu9t5v0__aoi21_2
X_640_ _336_ _184_ net132 VDD VSS gf180mcu_fd_sc_mcu9t5v0__xnor2_2
X_641_ net2 net66 _185_ VDD VSS gf180mcu_fd_sc_mcu9t5v0__nor2_2
X_642_ _335_ _186_ VDD VSS gf180mcu_fd_sc_mcu9t5v0__clkinv_2
X_643_ _185_ _184_ _186_ _187_ VDD VSS gf180mcu_fd_sc_mcu9t5v0__oai21_2
X_644_ _334_ _187_ net133 VDD VSS gf180mcu_fd_sc_mcu9t5v0__xor2_2
X_645_ _061_ _187_ _333_ _188_ VDD VSS gf180mcu_fd_sc_mcu9t5v0__aoi21_2
X_646_ _332_ _188_ net134 VDD VSS gf180mcu_fd_sc_mcu9t5v0__xnor2_2
X_647_ _331_ _189_ VDD VSS gf180mcu_fd_sc_mcu9t5v0__clkinv_2
X_648_ _063_ _068_ _189_ _190_ VDD VSS gf180mcu_fd_sc_mcu9t5v0__oai21_2
X_649_ _330_ _190_ net135 VDD VSS gf180mcu_fd_sc_mcu9t5v0__xor2_2
X_650_ net5 net69 _191_ VDD VSS gf180mcu_fd_sc_mcu9t5v0__nor2_2
X_651_ _191_ _063_ _068_ _192_ VDD VSS gf180mcu_fd_sc_mcu9t5v0__or3_2
X_652_ _056_ _057_ _192_ _193_ VDD VSS gf180mcu_fd_sc_mcu9t5v0__nand3_2
X_653_ _328_ _193_ net136 VDD VSS gf180mcu_fd_sc_mcu9t5v0__xor2_2
X_654_ _055_ _193_ _327_ _194_ VDD VSS gf180mcu_fd_sc_mcu9t5v0__aoi21_2
X_655_ _326_ _194_ net137 VDD VSS gf180mcu_fd_sc_mcu9t5v0__xnor2_2
X_656_ _060_ _070_ _195_ VDD VSS gf180mcu_fd_sc_mcu9t5v0__and2_2
X_657_ _304_ _195_ net138 VDD VSS gf180mcu_fd_sc_mcu9t5v0__xnor2_4
X_658_ _072_ _305_ _195_ _196_ VDD VSS gf180mcu_fd_sc_mcu9t5v0__mux2_2
X_659_ _352_ _196_ net139 VDD VSS gf180mcu_fd_sc_mcu9t5v0__xor2_4
X_660_ _045_ _196_ _351_ _197_ VDD VSS gf180mcu_fd_sc_mcu9t5v0__aoi21_2
X_661_ _350_ _197_ net140 VDD VSS gf180mcu_fd_sc_mcu9t5v0__xnor2_4
X_662_ _040_ _198_ VDD VSS gf180mcu_fd_sc_mcu9t5v0__clkinv_2
X_663_ _198_ _197_ _042_ _199_ VDD VSS gf180mcu_fd_sc_mcu9t5v0__oai21_4
X_664_ _348_ _199_ net141 VDD VSS gf180mcu_fd_sc_mcu9t5v0__xor2_4
X_665_ net11 net75 _200_ VDD VSS gf180mcu_fd_sc_mcu9t5v0__or2_2
X_666_ _200_ _199_ _347_ _201_ VDD VSS gf180mcu_fd_sc_mcu9t5v0__aoi21_2
X_667_ _346_ _201_ net143 VDD VSS gf180mcu_fd_sc_mcu9t5v0__xnor2_2
X_668_ _047_ _043_ _048_ _202_ VDD VSS gf180mcu_fd_sc_mcu9t5v0__aoi21_2
X_669_ _345_ _347_ _199_ _202_ _203_ VDD VSS gf180mcu_fd_sc_mcu9t5v0__oai31_2
X_670_ _344_ _203_ net144 VDD VSS gf180mcu_fd_sc_mcu9t5v0__xnor2_2
X_671_ net14 net78 _204_ VDD VSS gf180mcu_fd_sc_mcu9t5v0__nor2_2
X_672_ _343_ _205_ VDD VSS gf180mcu_fd_sc_mcu9t5v0__clkinv_2
X_673_ _204_ _203_ _205_ _206_ VDD VSS gf180mcu_fd_sc_mcu9t5v0__oai21_2
X_674_ _342_ _206_ net145 VDD VSS gf180mcu_fd_sc_mcu9t5v0__xor2_2
X_675_ _037_ _206_ _341_ _207_ VDD VSS gf180mcu_fd_sc_mcu9t5v0__aoi21_2
X_676_ _340_ _207_ net146 VDD VSS gf180mcu_fd_sc_mcu9t5v0__xnor2_2
X_677_ _089_ _091_ _208_ VDD VSS gf180mcu_fd_sc_mcu9t5v0__nor2_4
X_678_ _310_ _208_ net147 VDD VSS gf180mcu_fd_sc_mcu9t5v0__xor2_2
X_679_ _023_ _309_ _208_ _209_ VDD VSS gf180mcu_fd_sc_mcu9t5v0__mux2_2
X_680_ _366_ _209_ net148 VDD VSS gf180mcu_fd_sc_mcu9t5v0__xnor2_2
X_681_ _024_ _209_ _210_ VDD VSS gf180mcu_fd_sc_mcu9t5v0__or2_2
X_682_ _025_ _210_ _211_ VDD VSS gf180mcu_fd_sc_mcu9t5v0__and2_2
X_683_ _364_ _211_ net149 VDD VSS gf180mcu_fd_sc_mcu9t5v0__xnor2_2
X_684_ _080_ _211_ _026_ _212_ VDD VSS gf180mcu_fd_sc_mcu9t5v0__oai21_2
X_685_ _362_ _212_ net150 VDD VSS gf180mcu_fd_sc_mcu9t5v0__xor2_2
X_686_ _020_ _212_ _361_ _213_ VDD VSS gf180mcu_fd_sc_mcu9t5v0__aoi21_2
X_687_ _360_ _213_ net151 VDD VSS gf180mcu_fd_sc_mcu9t5v0__xnor2_2
X_688_ _028_ _084_ _208_ _214_ VDD VSS gf180mcu_fd_sc_mcu9t5v0__mux2_2
X_689_ _358_ _214_ net152 VDD VSS gf180mcu_fd_sc_mcu9t5v0__xnor2_2
X_690_ net22 net86 _215_ VDD VSS gf180mcu_fd_sc_mcu9t5v0__nor2_2
X_691_ _357_ _216_ VDD VSS gf180mcu_fd_sc_mcu9t5v0__clkinv_2
X_692_ _215_ _214_ _216_ _217_ VDD VSS gf180mcu_fd_sc_mcu9t5v0__oai21_2
X_693_ _356_ _217_ net154 VDD VSS gf180mcu_fd_sc_mcu9t5v0__xor2_2
X_694_ net24 net88 _218_ VDD VSS gf180mcu_fd_sc_mcu9t5v0__or2_2
X_695_ _218_ _217_ _355_ _219_ VDD VSS gf180mcu_fd_sc_mcu9t5v0__aoi21_2
X_696_ _354_ _219_ net155 VDD VSS gf180mcu_fd_sc_mcu9t5v0__xnor2_2
X_697_ _071_ _077_ _086_ _220_ VDD VSS gf180mcu_fd_sc_mcu9t5v0__nor3_2
X_698_ _088_ _089_ _091_ _221_ VDD VSS gf180mcu_fd_sc_mcu9t5v0__or3_2
X_699_ _220_ _221_ _222_ VDD VSS gf180mcu_fd_sc_mcu9t5v0__and2_2
X_700_ _316_ _222_ net156 VDD VSS gf180mcu_fd_sc_mcu9t5v0__xnor2_4
X_701_ _115_ _220_ _221_ _223_ VDD VSS gf180mcu_fd_sc_mcu9t5v0__and3_2
X_702_ _315_ _224_ VDD VSS gf180mcu_fd_sc_mcu9t5v0__clkinv_2
X_703_ _220_ _221_ _224_ _225_ VDD VSS gf180mcu_fd_sc_mcu9t5v0__aoi21_2
X_704_ _223_ _225_ _226_ VDD VSS gf180mcu_fd_sc_mcu9t5v0__or2_2
X_705_ _380_ _226_ net157 VDD VSS gf180mcu_fd_sc_mcu9t5v0__xnor2_4
X_706_ _101_ _223_ _225_ _102_ _227_ VDD VSS gf180mcu_fd_sc_mcu9t5v0__oai31_4
X_707_ _378_ _227_ net158 VDD VSS gf180mcu_fd_sc_mcu9t5v0__xor2_4
X_708_ _100_ _227_ _377_ _228_ VDD VSS gf180mcu_fd_sc_mcu9t5v0__aoi21_4
X_709_ _376_ _228_ net159 VDD VSS gf180mcu_fd_sc_mcu9t5v0__xnor2_2
X_710_ _099_ _228_ _105_ _229_ VDD VSS gf180mcu_fd_sc_mcu9t5v0__oai21_2
X_711_ _374_ _229_ net160 VDD VSS gf180mcu_fd_sc_mcu9t5v0__xor2_2
X_712_ _096_ _229_ _373_ _230_ VDD VSS gf180mcu_fd_sc_mcu9t5v0__aoi21_2
X_713_ _372_ _230_ net161 VDD VSS gf180mcu_fd_sc_mcu9t5v0__xnor2_2
X_714_ net31 net95 _231_ VDD VSS gf180mcu_fd_sc_mcu9t5v0__nor2_2
X_715_ _371_ _232_ VDD VSS gf180mcu_fd_sc_mcu9t5v0__clkinv_2
X_716_ _231_ _230_ _232_ _233_ VDD VSS gf180mcu_fd_sc_mcu9t5v0__oai21_2
X_717_ _370_ _233_ net162 VDD VSS gf180mcu_fd_sc_mcu9t5v0__xor2_2
X_718_ _097_ _229_ _110_ _234_ VDD VSS gf180mcu_fd_sc_mcu9t5v0__aoi21_2
X_719_ _368_ _234_ net163 VDD VSS gf180mcu_fd_sc_mcu9t5v0__xnor2_2
X_720_ _114_ _120_ _235_ VDD VSS gf180mcu_fd_sc_mcu9t5v0__nand2_4
X_721_ _322_ _235_ net165 VDD VSS gf180mcu_fd_sc_mcu9t5v0__xnor2_2
X_722_ _321_ _236_ VDD VSS gf180mcu_fd_sc_mcu9t5v0__clkinv_2
X_723_ _236_ _323_ _235_ _237_ VDD VSS gf180mcu_fd_sc_mcu9t5v0__mux2_2
X_724_ _394_ _237_ net166 VDD VSS gf180mcu_fd_sc_mcu9t5v0__xor2_2
X_725_ net36 net100 _238_ VDD VSS gf180mcu_fd_sc_mcu9t5v0__or2_2
X_726_ _238_ _237_ _393_ _239_ VDD VSS gf180mcu_fd_sc_mcu9t5v0__aoi21_2
X_727_ _392_ _239_ net167 VDD VSS gf180mcu_fd_sc_mcu9t5v0__xnor2_2
X_728_ net37 net101 _240_ VDD VSS gf180mcu_fd_sc_mcu9t5v0__nor2_2
X_729_ _391_ _241_ VDD VSS gf180mcu_fd_sc_mcu9t5v0__clkinv_2
X_730_ _240_ _239_ _241_ _242_ VDD VSS gf180mcu_fd_sc_mcu9t5v0__oai21_2
X_731_ _390_ _242_ net168 VDD VSS gf180mcu_fd_sc_mcu9t5v0__xor2_2
X_732_ net38 net102 _243_ VDD VSS gf180mcu_fd_sc_mcu9t5v0__or2_2
X_733_ _243_ _242_ _389_ _244_ VDD VSS gf180mcu_fd_sc_mcu9t5v0__aoi21_2
X_734_ _388_ _244_ net169 VDD VSS gf180mcu_fd_sc_mcu9t5v0__xnor2_2
X_735_ _158_ _150_ _235_ _245_ VDD VSS gf180mcu_fd_sc_mcu9t5v0__mux2_2
X_736_ _386_ _245_ net170 VDD VSS gf180mcu_fd_sc_mcu9t5v0__xnor2_2
X_737_ _245_ _246_ VDD VSS gf180mcu_fd_sc_mcu9t5v0__clkinv_2
X_738_ _138_ _246_ _385_ _247_ VDD VSS gf180mcu_fd_sc_mcu9t5v0__aoi21_2
X_739_ _384_ _247_ net171 VDD VSS gf180mcu_fd_sc_mcu9t5v0__xnor2_2
X_740_ _159_ _152_ _235_ _248_ VDD VSS gf180mcu_fd_sc_mcu9t5v0__mux2_2
X_741_ _382_ _248_ net172 VDD VSS gf180mcu_fd_sc_mcu9t5v0__xor2_2
X_742_ _381_ _174_ _175_ _249_ VDD VSS gf180mcu_fd_sc_mcu9t5v0__or3_4
X_743_ _292_ _249_ net173 VDD VSS gf180mcu_fd_sc_mcu9t5v0__xor2_2
X_744_ _293_ _124_ _249_ _250_ VDD VSS gf180mcu_fd_sc_mcu9t5v0__mux2_2
X_745_ _408_ _250_ net174 VDD VSS gf180mcu_fd_sc_mcu9t5v0__xor2_2
X_746_ _125_ _250_ _407_ _251_ VDD VSS gf180mcu_fd_sc_mcu9t5v0__aoi21_2
X_747_ _406_ _251_ net176 VDD VSS gf180mcu_fd_sc_mcu9t5v0__xnor2_2
X_748_ _123_ _251_ _127_ _252_ VDD VSS gf180mcu_fd_sc_mcu9t5v0__oai21_2
X_749_ _404_ _252_ net177 VDD VSS gf180mcu_fd_sc_mcu9t5v0__xor2_2
X_750_ _167_ _129_ _249_ _253_ VDD VSS gf180mcu_fd_sc_mcu9t5v0__mux2_2
X_751_ _402_ _253_ net178 VDD VSS gf180mcu_fd_sc_mcu9t5v0__xnor2_2
X_752_ _168_ _132_ _249_ _254_ VDD VSS gf180mcu_fd_sc_mcu9t5v0__mux2_2
X_753_ _400_ _254_ net179 VDD VSS gf180mcu_fd_sc_mcu9t5v0__xor2_2
X_754_ _132_ _133_ _399_ _255_ VDD VSS gf180mcu_fd_sc_mcu9t5v0__aoi21_2
X_755_ _169_ _255_ _249_ _256_ VDD VSS gf180mcu_fd_sc_mcu9t5v0__mux2_2
X_756_ _398_ _256_ net180 VDD VSS gf180mcu_fd_sc_mcu9t5v0__xnor2_2
X_757_ _249_ _171_ _163_ _257_ VDD VSS gf180mcu_fd_sc_mcu9t5v0__oai21_2
X_758_ _396_ _257_ net181 VDD VSS gf180mcu_fd_sc_mcu9t5v0__xnor2_2
X_759_ _298_ _178_ net182 VDD VSS gf180mcu_fd_sc_mcu9t5v0__xnor2_2
X_760_ _297_ _013_ _178_ _258_ VDD VSS gf180mcu_fd_sc_mcu9t5v0__mux2_2
X_761_ _422_ _258_ net183 VDD VSS gf180mcu_fd_sc_mcu9t5v0__xnor2_2
X_762_ _395_ _259_ VDD VSS gf180mcu_fd_sc_mcu9t5v0__clkinv_2
X_763_ _154_ _161_ _162_ _260_ VDD VSS gf180mcu_fd_sc_mcu9t5v0__or3_2
X_764_ _381_ _395_ _171_ _261_ VDD VSS gf180mcu_fd_sc_mcu9t5v0__nor3_2
X_765_ _174_ _175_ _262_ VDD VSS gf180mcu_fd_sc_mcu9t5v0__nor2_2
X_766_ net51 net115 _395_ _263_ VDD VSS gf180mcu_fd_sc_mcu9t5v0__nor3_2
X_767_ _259_ _260_ _261_ _262_ _263_ _264_ VDD VSS gf180mcu_fd_sc_mcu9t5v0__aoi221_4
X_768_ _014_ _008_ _264_ _265_ VDD VSS gf180mcu_fd_sc_mcu9t5v0__mux2_2
X_769_ _420_ _265_ net184 VDD VSS gf180mcu_fd_sc_mcu9t5v0__xor2_2
X_770_ _005_ _265_ _419_ _266_ VDD VSS gf180mcu_fd_sc_mcu9t5v0__aoi21_2
X_771_ _418_ _266_ net185 VDD VSS gf180mcu_fd_sc_mcu9t5v0__xnor2_2
X_772_ _016_ _011_ _264_ _267_ VDD VSS gf180mcu_fd_sc_mcu9t5v0__mux2_2
X_773_ _416_ _267_ net187 VDD VSS gf180mcu_fd_sc_mcu9t5v0__xor2_2
X_774_ _415_ _179_ _268_ VDD VSS gf180mcu_fd_sc_mcu9t5v0__nor2_2
X_775_ _414_ _268_ net188 VDD VSS gf180mcu_fd_sc_mcu9t5v0__xnor2_4
X_776_ _413_ _415_ _179_ _001_ _269_ VDD VSS gf180mcu_fd_sc_mcu9t5v0__oai31_2
X_777_ _412_ _269_ net189 VDD VSS gf180mcu_fd_sc_mcu9t5v0__xnor2_2
X_778_ _410_ _181_ net190 VDD VSS gf180mcu_fd_sc_mcu9t5v0__xnor2_4
X_779_ _287_ _426_ net193 VDD VSS gf180mcu_fd_sc_mcu9t5v0__xor2_2
X_780_ _338_ _065_ net194 VDD VSS gf180mcu_fd_sc_mcu9t5v0__xor2_2
X_781_ _270_ _271_ _272_ _273_ first_block.full_adders\[0\].fa.sum
+ VDD VSS gf180mcu_fd_sc_mcu9t5v0__addf_1
X_782_ net12 net76 _274_ _275_ _276_ VDD VSS gf180mcu_fd_sc_mcu9t5v0__addf_1
X_783_ net23 net87 _275_ _277_ _278_ VDD VSS gf180mcu_fd_sc_mcu9t5v0__addf_1
X_784_ net34 net98 _277_ _279_ _280_ VDD VSS gf180mcu_fd_sc_mcu9t5v0__addf_1
X_785_ net45 net109 _279_ _281_ _282_ VDD VSS gf180mcu_fd_sc_mcu9t5v0__addf_1
X_786_ net56 net120 _281_ _283_ _284_ VDD VSS gf180mcu_fd_sc_mcu9t5v0__addf_1
X_787_ net61 net125 _283_ _285_ _286_ VDD VSS gf180mcu_fd_sc_mcu9t5v0__addf_1
X_788_ net62 net126 _285_ _287_ _288_ VDD VSS gf180mcu_fd_sc_mcu9t5v0__addf_4
X_789_ _289_ _290_ _291_ _292_ VDD VSS gf180mcu_fd_sc_mcu9t5v0__addh_1
X_790_ net43 net107 _293_ _294_ VDD VSS gf180mcu_fd_sc_mcu9t5v0__addh_1
X_791_ _295_ _296_ _297_ _298_ VDD VSS gf180mcu_fd_sc_mcu9t5v0__addh_1
X_792_ net52 net116 _299_ _300_ VDD VSS gf180mcu_fd_sc_mcu9t5v0__addh_1
X_793_ _301_ _302_ _303_ _304_ VDD VSS gf180mcu_fd_sc_mcu9t5v0__addh_1
X_794_ net8 net72 _305_ _306_ VDD VSS gf180mcu_fd_sc_mcu9t5v0__addh_1
X_795_ _307_ _308_ _309_ _310_ VDD VSS gf180mcu_fd_sc_mcu9t5v0__addh_1
X_796_ net17 net81 _311_ _312_ VDD VSS gf180mcu_fd_sc_mcu9t5v0__addh_1
X_797_ _313_ _314_ _315_ _316_ VDD VSS gf180mcu_fd_sc_mcu9t5v0__addh_1
X_798_ net26 net90 _317_ _318_ VDD VSS gf180mcu_fd_sc_mcu9t5v0__addh_1
X_799_ _319_ _320_ _321_ _322_ VDD VSS gf180mcu_fd_sc_mcu9t5v0__addh_1
X_800_ net35 net99 _323_ _324_ VDD VSS gf180mcu_fd_sc_mcu9t5v0__addh_1
X_801_ net7 net71 _325_ _326_ VDD VSS gf180mcu_fd_sc_mcu9t5v0__addh_2
X_802_ net6 net70 _327_ _328_ VDD VSS gf180mcu_fd_sc_mcu9t5v0__addh_2
X_803_ net5 net69 _329_ _330_ VDD VSS gf180mcu_fd_sc_mcu9t5v0__addh_1
X_804_ net4 net68 _331_ _332_ VDD VSS gf180mcu_fd_sc_mcu9t5v0__addh_1
X_805_ net3 net67 _333_ _334_ VDD VSS gf180mcu_fd_sc_mcu9t5v0__addh_2
X_806_ net2 net66 _335_ _336_ VDD VSS gf180mcu_fd_sc_mcu9t5v0__addh_1
X_807_ net64 net128 _337_ _338_ VDD VSS gf180mcu_fd_sc_mcu9t5v0__addh_1
X_808_ net16 net80 _339_ _340_ VDD VSS gf180mcu_fd_sc_mcu9t5v0__addh_1
X_809_ net15 net79 _341_ _342_ VDD VSS gf180mcu_fd_sc_mcu9t5v0__addh_2
X_810_ net14 net78 _343_ _344_ VDD VSS gf180mcu_fd_sc_mcu9t5v0__addh_2
X_811_ net13 net77 _345_ _346_ VDD VSS gf180mcu_fd_sc_mcu9t5v0__addh_2
X_812_ net11 net75 _347_ _348_ VDD VSS gf180mcu_fd_sc_mcu9t5v0__addh_2
X_813_ net10 net74 _349_ _350_ VDD VSS gf180mcu_fd_sc_mcu9t5v0__addh_1
X_814_ net9 net73 _351_ _352_ VDD VSS gf180mcu_fd_sc_mcu9t5v0__addh_1
X_815_ net25 net89 _353_ _354_ VDD VSS gf180mcu_fd_sc_mcu9t5v0__addh_2
X_816_ net24 net88 _355_ _356_ VDD VSS gf180mcu_fd_sc_mcu9t5v0__addh_2
X_817_ net22 net86 _357_ _358_ VDD VSS gf180mcu_fd_sc_mcu9t5v0__addh_2
X_818_ net21 net85 _359_ _360_ VDD VSS gf180mcu_fd_sc_mcu9t5v0__addh_2
X_819_ net20 net84 _361_ _362_ VDD VSS gf180mcu_fd_sc_mcu9t5v0__addh_2
X_820_ net19 net83 _363_ _364_ VDD VSS gf180mcu_fd_sc_mcu9t5v0__addh_1
X_821_ net18 net82 _365_ _366_ VDD VSS gf180mcu_fd_sc_mcu9t5v0__addh_1
X_822_ net33 net97 _367_ _368_ VDD VSS gf180mcu_fd_sc_mcu9t5v0__addh_1
X_823_ net32 net96 _369_ _370_ VDD VSS gf180mcu_fd_sc_mcu9t5v0__addh_1
X_824_ net31 net95 _371_ _372_ VDD VSS gf180mcu_fd_sc_mcu9t5v0__addh_1
X_825_ net30 net94 _373_ _374_ VDD VSS gf180mcu_fd_sc_mcu9t5v0__addh_1
X_826_ net29 net93 _375_ _376_ VDD VSS gf180mcu_fd_sc_mcu9t5v0__addh_1
X_827_ net28 net92 _377_ _378_ VDD VSS gf180mcu_fd_sc_mcu9t5v0__addh_2
X_828_ net27 net91 _379_ _380_ VDD VSS gf180mcu_fd_sc_mcu9t5v0__addh_1
X_829_ net42 net106 _381_ _382_ VDD VSS gf180mcu_fd_sc_mcu9t5v0__addh_4
X_830_ net41 net105 _383_ _384_ VDD VSS gf180mcu_fd_sc_mcu9t5v0__addh_1
X_831_ net40 net104 _385_ _386_ VDD VSS gf180mcu_fd_sc_mcu9t5v0__addh_2
X_832_ net39 net103 _387_ _388_ VDD VSS gf180mcu_fd_sc_mcu9t5v0__addh_1
X_833_ net38 net102 _389_ _390_ VDD VSS gf180mcu_fd_sc_mcu9t5v0__addh_1
X_834_ net37 net101 _391_ _392_ VDD VSS gf180mcu_fd_sc_mcu9t5v0__addh_2
X_835_ net36 net100 _393_ _394_ VDD VSS gf180mcu_fd_sc_mcu9t5v0__addh_1
X_836_ net51 net115 _395_ _396_ VDD VSS gf180mcu_fd_sc_mcu9t5v0__addh_2
X_837_ net50 net114 _397_ _398_ VDD VSS gf180mcu_fd_sc_mcu9t5v0__addh_2
X_838_ net49 net113 _399_ _400_ VDD VSS gf180mcu_fd_sc_mcu9t5v0__addh_2
X_839_ net48 net112 _401_ _402_ VDD VSS gf180mcu_fd_sc_mcu9t5v0__addh_1
X_840_ net47 net111 _403_ _404_ VDD VSS gf180mcu_fd_sc_mcu9t5v0__addh_1
X_841_ net46 net110 _405_ _406_ VDD VSS gf180mcu_fd_sc_mcu9t5v0__addh_1