* CDL Netlist generated by OpenROAD

*.BUSDELIMITER [

.SUBCKT shadow_register clk main_data_in[0] main_data_in[10]
+ main_data_in[11] main_data_in[12] main_data_in[13] main_data_in[14]
+ main_data_in[15] main_data_in[16] main_data_in[17] main_data_in[18]
+ main_data_in[19] main_data_in[1] main_data_in[20] main_data_in[21]
+ main_data_in[22] main_data_in[23] main_data_in[24] main_data_in[25]
+ main_data_in[26] main_data_in[27] main_data_in[28] main_data_in[29]
+ main_data_in[2] main_data_in[30] main_data_in[31] main_data_in[3]
+ main_data_in[4] main_data_in[5] main_data_in[6] main_data_in[7]
+ main_data_in[8] main_data_in[9] main_data_out[0] main_data_out[10]
+ main_data_out[11] main_data_out[12] main_data_out[13] main_data_out[14]
+ main_data_out[15] main_data_out[16] main_data_out[17] main_data_out[18]
+ main_data_out[19] main_data_out[1] main_data_out[20] main_data_out[21]
+ main_data_out[22] main_data_out[23] main_data_out[24] main_data_out[25]
+ main_data_out[26] main_data_out[27] main_data_out[28] main_data_out[29]
+ main_data_out[2] main_data_out[30] main_data_out[31] main_data_out[3]
+ main_data_out[4] main_data_out[5] main_data_out[6] main_data_out[7]
+ main_data_out[8] main_data_out[9] main_load_en rst_n shadow_capture_en
+ shadow_data_in[0] shadow_data_in[10] shadow_data_in[11] shadow_data_in[12]
+ shadow_data_in[13] shadow_data_in[14] shadow_data_in[15] shadow_data_in[16]
+ shadow_data_in[17] shadow_data_in[18] shadow_data_in[19] shadow_data_in[1]
+ shadow_data_in[20] shadow_data_in[21] shadow_data_in[22] shadow_data_in[23]
+ shadow_data_in[24] shadow_data_in[25] shadow_data_in[26] shadow_data_in[27]
+ shadow_data_in[28] shadow_data_in[29] shadow_data_in[2] shadow_data_in[30]
+ shadow_data_in[31] shadow_data_in[3] shadow_data_in[4] shadow_data_in[5]
+ shadow_data_in[6] shadow_data_in[7] shadow_data_in[8] shadow_data_in[9]
+ shadow_data_out[0] shadow_data_out[10] shadow_data_out[11]
+ shadow_data_out[12] shadow_data_out[13] shadow_data_out[14]
+ shadow_data_out[15] shadow_data_out[16] shadow_data_out[17]
+ shadow_data_out[18] shadow_data_out[19] shadow_data_out[1]
+ shadow_data_out[20] shadow_data_out[21] shadow_data_out[22]
+ shadow_data_out[23] shadow_data_out[24] shadow_data_out[25]
+ shadow_data_out[26] shadow_data_out[27] shadow_data_out[28]
+ shadow_data_out[29] shadow_data_out[2] shadow_data_out[30]
+ shadow_data_out[31] shadow_data_out[3] shadow_data_out[4]
+ shadow_data_out[5] shadow_data_out[6] shadow_data_out[7] shadow_data_out[8]
+ shadow_data_out[9] shadow_load_en use_shadow_out
X_108_ net34 _064_ VDD VSS gf180mcu_fd_sc_mcu9t5v0__buf_4
X_109_ main_reg\[0\] net2 _064_ _000_ VDD VSS gf180mcu_fd_sc_mcu9t5v0__mux2_2
X_110_ main_reg\[10\] net3 _064_ _001_ VDD VSS gf180mcu_fd_sc_mcu9t5v0__mux2_2
X_111_ main_reg\[11\] net4 _064_ _002_ VDD VSS gf180mcu_fd_sc_mcu9t5v0__mux2_2
X_112_ main_reg\[12\] net5 _064_ _003_ VDD VSS gf180mcu_fd_sc_mcu9t5v0__mux2_2
X_113_ main_reg\[13\] net6 _064_ _004_ VDD VSS gf180mcu_fd_sc_mcu9t5v0__mux2_2
X_114_ main_reg\[14\] net7 _064_ _005_ VDD VSS gf180mcu_fd_sc_mcu9t5v0__mux2_2
X_115_ main_reg\[15\] net8 _064_ _006_ VDD VSS gf180mcu_fd_sc_mcu9t5v0__mux2_2
X_116_ main_reg\[16\] net9 _064_ _007_ VDD VSS gf180mcu_fd_sc_mcu9t5v0__mux2_2
X_117_ main_reg\[17\] net10 _064_ _008_ VDD VSS gf180mcu_fd_sc_mcu9t5v0__mux2_2
X_118_ main_reg\[18\] net11 _064_ _009_ VDD VSS gf180mcu_fd_sc_mcu9t5v0__mux2_2
X_119_ net34 _065_ VDD VSS gf180mcu_fd_sc_mcu9t5v0__clkbuf_12
X_120_ main_reg\[19\] net12 _065_ _010_ VDD VSS gf180mcu_fd_sc_mcu9t5v0__mux2_2
X_121_ main_reg\[1\] net13 _065_ _011_ VDD VSS gf180mcu_fd_sc_mcu9t5v0__mux2_2
X_122_ main_reg\[20\] net14 _065_ _012_ VDD VSS gf180mcu_fd_sc_mcu9t5v0__mux2_2
X_123_ main_reg\[21\] net15 _065_ _013_ VDD VSS gf180mcu_fd_sc_mcu9t5v0__mux2_2
X_124_ main_reg\[22\] net16 _065_ _014_ VDD VSS gf180mcu_fd_sc_mcu9t5v0__mux2_2
X_125_ main_reg\[23\] net17 _065_ _015_ VDD VSS gf180mcu_fd_sc_mcu9t5v0__mux2_2
X_126_ main_reg\[24\] net18 _065_ _016_ VDD VSS gf180mcu_fd_sc_mcu9t5v0__mux2_2
X_127_ main_reg\[25\] net19 _065_ _017_ VDD VSS gf180mcu_fd_sc_mcu9t5v0__mux2_2
X_128_ main_reg\[26\] net20 _065_ _018_ VDD VSS gf180mcu_fd_sc_mcu9t5v0__mux2_2
X_129_ main_reg\[27\] net21 _065_ _019_ VDD VSS gf180mcu_fd_sc_mcu9t5v0__mux2_2
X_130_ net34 _066_ VDD VSS gf180mcu_fd_sc_mcu9t5v0__clkbuf_12
X_131_ main_reg\[28\] net22 _066_ _020_ VDD VSS gf180mcu_fd_sc_mcu9t5v0__mux2_2
X_132_ main_reg\[29\] net23 _066_ _021_ VDD VSS gf180mcu_fd_sc_mcu9t5v0__mux2_2
X_133_ main_reg\[2\] net24 _066_ _022_ VDD VSS gf180mcu_fd_sc_mcu9t5v0__mux2_2
X_134_ main_reg\[30\] net25 _066_ _023_ VDD VSS gf180mcu_fd_sc_mcu9t5v0__mux2_2
X_135_ main_reg\[31\] net26 _066_ _024_ VDD VSS gf180mcu_fd_sc_mcu9t5v0__mux2_2
X_136_ main_reg\[3\] net27 _066_ _025_ VDD VSS gf180mcu_fd_sc_mcu9t5v0__mux2_2
X_137_ main_reg\[4\] net28 _066_ _026_ VDD VSS gf180mcu_fd_sc_mcu9t5v0__mux2_2
X_138_ main_reg\[5\] net29 _066_ _027_ VDD VSS gf180mcu_fd_sc_mcu9t5v0__mux2_2
X_139_ main_reg\[6\] net30 _066_ _028_ VDD VSS gf180mcu_fd_sc_mcu9t5v0__mux2_2
X_140_ main_reg\[7\] net31 _066_ _029_ VDD VSS gf180mcu_fd_sc_mcu9t5v0__mux2_2
X_141_ main_reg\[8\] net32 net34 _030_ VDD VSS gf180mcu_fd_sc_mcu9t5v0__mux2_2
X_142_ main_reg\[9\] net33 net34 _031_ VDD VSS gf180mcu_fd_sc_mcu9t5v0__mux2_2
X_143_ net68 _067_ VDD VSS gf180mcu_fd_sc_mcu9t5v0__clkbuf_12
X_144_ net102 net36 _067_ _068_ VDD VSS gf180mcu_fd_sc_mcu9t5v0__mux2_2
X_145_ net35 _069_ VDD VSS gf180mcu_fd_sc_mcu9t5v0__buf_4
X_146_ _068_ main_reg\[0\] _069_ _032_ VDD VSS gf180mcu_fd_sc_mcu9t5v0__mux2_2
X_147_ net103 net37 _067_ _070_ VDD VSS gf180mcu_fd_sc_mcu9t5v0__mux2_2
X_148_ _070_ main_reg\[10\] _069_ _033_ VDD VSS gf180mcu_fd_sc_mcu9t5v0__mux2_2
X_149_ net104 net38 _067_ _071_ VDD VSS gf180mcu_fd_sc_mcu9t5v0__mux2_2
X_150_ _071_ main_reg\[11\] _069_ _034_ VDD VSS gf180mcu_fd_sc_mcu9t5v0__mux2_2
X_151_ net105 net39 _067_ _072_ VDD VSS gf180mcu_fd_sc_mcu9t5v0__mux2_2
X_152_ _072_ main_reg\[12\] _069_ _035_ VDD VSS gf180mcu_fd_sc_mcu9t5v0__mux2_2
X_153_ net106 net40 _067_ _073_ VDD VSS gf180mcu_fd_sc_mcu9t5v0__mux2_2
X_154_ _073_ main_reg\[13\] _069_ _036_ VDD VSS gf180mcu_fd_sc_mcu9t5v0__mux2_2
X_155_ net107 net41 _067_ _074_ VDD VSS gf180mcu_fd_sc_mcu9t5v0__mux2_2
X_156_ _074_ main_reg\[14\] _069_ _037_ VDD VSS gf180mcu_fd_sc_mcu9t5v0__mux2_2
X_157_ net108 net42 _067_ _075_ VDD VSS gf180mcu_fd_sc_mcu9t5v0__mux2_2
X_158_ _075_ main_reg\[15\] _069_ _038_ VDD VSS gf180mcu_fd_sc_mcu9t5v0__mux2_2
X_159_ net109 net43 _067_ _076_ VDD VSS gf180mcu_fd_sc_mcu9t5v0__mux2_2
X_160_ _076_ main_reg\[16\] _069_ _039_ VDD VSS gf180mcu_fd_sc_mcu9t5v0__mux2_2
X_161_ net110 net44 _067_ _077_ VDD VSS gf180mcu_fd_sc_mcu9t5v0__mux2_2
X_162_ _077_ main_reg\[17\] _069_ _040_ VDD VSS gf180mcu_fd_sc_mcu9t5v0__mux2_2
X_163_ net111 net45 _067_ _078_ VDD VSS gf180mcu_fd_sc_mcu9t5v0__mux2_2
X_164_ _078_ main_reg\[18\] _069_ _041_ VDD VSS gf180mcu_fd_sc_mcu9t5v0__mux2_2
X_165_ net68 _079_ VDD VSS gf180mcu_fd_sc_mcu9t5v0__buf_12
X_166_ net112 net46 _079_ _080_ VDD VSS gf180mcu_fd_sc_mcu9t5v0__mux2_2
X_167_ net35 _081_ VDD VSS gf180mcu_fd_sc_mcu9t5v0__clkbuf_12
X_168_ _080_ main_reg\[19\] _081_ _042_ VDD VSS gf180mcu_fd_sc_mcu9t5v0__mux2_2
X_169_ net113 net47 _079_ _082_ VDD VSS gf180mcu_fd_sc_mcu9t5v0__mux2_2
X_170_ _082_ main_reg\[1\] _081_ _043_ VDD VSS gf180mcu_fd_sc_mcu9t5v0__mux2_2
X_171_ net114 net48 _079_ _083_ VDD VSS gf180mcu_fd_sc_mcu9t5v0__mux2_2
X_172_ _083_ main_reg\[20\] _081_ _044_ VDD VSS gf180mcu_fd_sc_mcu9t5v0__mux2_2
X_173_ net115 net49 _079_ _084_ VDD VSS gf180mcu_fd_sc_mcu9t5v0__mux2_2
X_174_ _084_ main_reg\[21\] _081_ _045_ VDD VSS gf180mcu_fd_sc_mcu9t5v0__mux2_2
X_175_ net116 net50 _079_ _085_ VDD VSS gf180mcu_fd_sc_mcu9t5v0__mux2_2
X_176_ _085_ main_reg\[22\] _081_ _046_ VDD VSS gf180mcu_fd_sc_mcu9t5v0__mux2_2
X_177_ net117 net51 _079_ _086_ VDD VSS gf180mcu_fd_sc_mcu9t5v0__mux2_2
X_178_ _086_ main_reg\[23\] _081_ _047_ VDD VSS gf180mcu_fd_sc_mcu9t5v0__mux2_2
X_179_ net118 net52 _079_ _087_ VDD VSS gf180mcu_fd_sc_mcu9t5v0__mux2_2
X_180_ _087_ main_reg\[24\] _081_ _048_ VDD VSS gf180mcu_fd_sc_mcu9t5v0__mux2_2
X_181_ net119 net53 _079_ _088_ VDD VSS gf180mcu_fd_sc_mcu9t5v0__mux2_2
X_182_ _088_ main_reg\[25\] _081_ _049_ VDD VSS gf180mcu_fd_sc_mcu9t5v0__mux2_2
X_183_ net120 net54 _079_ _089_ VDD VSS gf180mcu_fd_sc_mcu9t5v0__mux2_2
X_184_ _089_ main_reg\[26\] _081_ _050_ VDD VSS gf180mcu_fd_sc_mcu9t5v0__mux2_2
X_185_ net121 net55 _079_ _090_ VDD VSS gf180mcu_fd_sc_mcu9t5v0__mux2_2
X_186_ _090_ main_reg\[27\] _081_ _051_ VDD VSS gf180mcu_fd_sc_mcu9t5v0__mux2_2
X_187_ net68 _091_ VDD VSS gf180mcu_fd_sc_mcu9t5v0__buf_12
X_188_ net122 net56 _091_ _092_ VDD VSS gf180mcu_fd_sc_mcu9t5v0__mux2_2
X_189_ net35 _093_ VDD VSS gf180mcu_fd_sc_mcu9t5v0__clkbuf_12
X_190_ _092_ main_reg\[28\] _093_ _052_ VDD VSS gf180mcu_fd_sc_mcu9t5v0__mux2_2
X_191_ net123 net57 _091_ _094_ VDD VSS gf180mcu_fd_sc_mcu9t5v0__mux2_2
X_192_ _094_ main_reg\[29\] _093_ _053_ VDD VSS gf180mcu_fd_sc_mcu9t5v0__mux2_2
X_193_ net124 net58 _091_ _095_ VDD VSS gf180mcu_fd_sc_mcu9t5v0__mux2_2
X_194_ _095_ main_reg\[2\] _093_ _054_ VDD VSS gf180mcu_fd_sc_mcu9t5v0__mux2_2
X_195_ net125 net59 _091_ _096_ VDD VSS gf180mcu_fd_sc_mcu9t5v0__mux2_2
X_196_ _096_ main_reg\[30\] _093_ _055_ VDD VSS gf180mcu_fd_sc_mcu9t5v0__mux2_2
X_197_ net126 net60 _091_ _097_ VDD VSS gf180mcu_fd_sc_mcu9t5v0__mux2_2
X_198_ _097_ main_reg\[31\] _093_ _056_ VDD VSS gf180mcu_fd_sc_mcu9t5v0__mux2_2
X_199_ net127 net61 _091_ _098_ VDD VSS gf180mcu_fd_sc_mcu9t5v0__mux2_2
X_200_ _098_ main_reg\[3\] _093_ _057_ VDD VSS gf180mcu_fd_sc_mcu9t5v0__mux2_2
X_201_ net128 net62 _091_ _099_ VDD VSS gf180mcu_fd_sc_mcu9t5v0__mux2_2
X_202_ _099_ main_reg\[4\] _093_ _058_ VDD VSS gf180mcu_fd_sc_mcu9t5v0__mux2_2
X_203_ net129 net63 _091_ _100_ VDD VSS gf180mcu_fd_sc_mcu9t5v0__mux2_2
X_204_ _100_ main_reg\[5\] _093_ _059_ VDD VSS gf180mcu_fd_sc_mcu9t5v0__mux2_2
X_205_ net130 net64 _091_ _101_ VDD VSS gf180mcu_fd_sc_mcu9t5v0__mux2_2
X_206_ _101_ main_reg\[6\] _093_ _060_ VDD VSS gf180mcu_fd_sc_mcu9t5v0__mux2_2
X_207_ net131 net65 _091_ _102_ VDD VSS gf180mcu_fd_sc_mcu9t5v0__mux2_2
X_208_ _102_ main_reg\[7\] _093_ _061_ VDD VSS gf180mcu_fd_sc_mcu9t5v0__mux2_2
X_209_ net132 net66 net68 _103_ VDD VSS gf180mcu_fd_sc_mcu9t5v0__mux2_2
X_210_ _103_ main_reg\[8\] net35 _062_ VDD VSS gf180mcu_fd_sc_mcu9t5v0__mux2_2
X_211_ net133 net67 net68 _104_ VDD VSS gf180mcu_fd_sc_mcu9t5v0__mux2_2
X_212_ _104_ main_reg\[9\] net35 _063_ VDD VSS gf180mcu_fd_sc_mcu9t5v0__mux2_2
X_213_ net69 _105_ VDD VSS gf180mcu_fd_sc_mcu9t5v0__buf_4
X_214_ main_reg\[0\] net102 _105_ net70 VDD VSS gf180mcu_fd_sc_mcu9t5v0__mux2_2
X_215_ main_reg\[10\] net103 _105_ net71 VDD VSS gf180mcu_fd_sc_mcu9t5v0__mux2_2
X_216_ main_reg\[11\] net104 _105_ net72 VDD VSS gf180mcu_fd_sc_mcu9t5v0__mux2_2
X_217_ main_reg\[12\] net105 _105_ net73 VDD VSS gf180mcu_fd_sc_mcu9t5v0__mux2_2
X_218_ main_reg\[13\] net106 _105_ net74 VDD VSS gf180mcu_fd_sc_mcu9t5v0__mux2_2
X_219_ main_reg\[14\] net107 _105_ net75 VDD VSS gf180mcu_fd_sc_mcu9t5v0__mux2_2
X_220_ main_reg\[15\] net108 _105_ net76 VDD VSS gf180mcu_fd_sc_mcu9t5v0__mux2_2
X_221_ main_reg\[16\] net109 _105_ net77 VDD VSS gf180mcu_fd_sc_mcu9t5v0__mux2_2
X_222_ main_reg\[17\] net110 _105_ net78 VDD VSS gf180mcu_fd_sc_mcu9t5v0__mux2_2
X_223_ main_reg\[18\] net111 _105_ net79 VDD VSS gf180mcu_fd_sc_mcu9t5v0__mux2_2
X_224_ net69 _106_ VDD VSS gf180mcu_fd_sc_mcu9t5v0__clkbuf_12
X_225_ main_reg\[19\] net112 _106_ net80 VDD VSS gf180mcu_fd_sc_mcu9t5v0__mux2_2
X_226_ main_reg\[1\] net113 _106_ net81 VDD VSS gf180mcu_fd_sc_mcu9t5v0__mux2_2
X_227_ main_reg\[20\] net114 _106_ net82 VDD VSS gf180mcu_fd_sc_mcu9t5v0__mux2_2
X_228_ main_reg\[21\] net115 _106_ net83 VDD VSS gf180mcu_fd_sc_mcu9t5v0__mux2_2
X_229_ main_reg\[22\] net116 _106_ net84 VDD VSS gf180mcu_fd_sc_mcu9t5v0__mux2_2
X_230_ main_reg\[23\] net117 _106_ net85 VDD VSS gf180mcu_fd_sc_mcu9t5v0__mux2_2
X_231_ main_reg\[24\] net118 _106_ net86 VDD VSS gf180mcu_fd_sc_mcu9t5v0__mux2_2
X_232_ main_reg\[25\] net119 _106_ net87 VDD VSS gf180mcu_fd_sc_mcu9t5v0__mux2_2
X_233_ main_reg\[26\] net120 _106_ net88 VDD VSS gf180mcu_fd_sc_mcu9t5v0__mux2_2
X_234_ main_reg\[27\] net121 _106_ net89 VDD VSS gf180mcu_fd_sc_mcu9t5v0__mux2_2
X_235_ net69 _107_ VDD VSS gf180mcu_fd_sc_mcu9t5v0__clkbuf_12
X_236_ main_reg\[28\] net122 _107_ net90 VDD VSS gf180mcu_fd_sc_mcu9t5v0__mux2_2
X_237_ main_reg\[29\] net123 _107_ net91 VDD VSS gf180mcu_fd_sc_mcu9t5v0__mux2_2
X_238_ main_reg\[2\] net124 _107_ net92 VDD VSS gf180mcu_fd_sc_mcu9t5v0__mux2_2
X_239_ main_reg\[30\] net125 _107_ net93 VDD VSS gf180mcu_fd_sc_mcu9t5v0__mux2_2
X_240_ main_reg\[31\] net126 _107_ net94 VDD VSS gf180mcu_fd_sc_mcu9t5v0__mux2_2
X_241_ main_reg\[3\] net127 _107_ net95 VDD VSS gf180mcu_fd_sc_mcu9t5v0__mux2_2
X_242_ main_reg\[4\] net128 _107_ net96 VDD VSS gf180mcu_fd_sc_mcu9t5v0__mux2_2
X_243_ main_reg\[5\] net129 _107_ net97 VDD VSS gf180mcu_fd_sc_mcu9t5v0__mux2_2
X_244_ main_reg\[6\] net130 _107_ net98 VDD VSS gf180mcu_fd_sc_mcu9t5v0__mux2_2
X_245_ main_reg\[7\] net131 _107_ net99 VDD VSS gf180mcu_fd_sc_mcu9t5v0__mux2_2
X_246_ main_reg\[8\] net132 net69 net100 VDD VSS gf180mcu_fd_sc_mcu9t5v0__mux2_2
X_247_ main_reg\[9\] net133 net69 net101 VDD VSS gf180mcu_fd_sc_mcu9t5v0__mux2_2
Xmain_reg\[0\]$_DFFE_PN0P_ _000_ net1 clknet_3_2__leaf_clk
+ main_reg\[0\] VDD VSS gf180mcu_fd_sc_mcu9t5v0__dffrnq_2
Xmain_reg\[10\]$_DFFE_PN0P_ _001_ net1 clknet_3_3__leaf_clk
+ main_reg\[10\] VDD VSS gf180mcu_fd_sc_mcu9t5v0__dffrnq_2
Xmain_reg\[11\]$_DFFE_PN0P_ _002_ net1 clknet_3_2__leaf_clk
+ main_reg\[11\] VDD VSS gf180mcu_fd_sc_mcu9t5v0__dffrnq_2
Xmain_reg\[12\]$_DFFE_PN0P_ _003_ net1 clknet_3_3__leaf_clk
+ main_reg\[12\] VDD VSS gf180mcu_fd_sc_mcu9t5v0__dffrnq_2
Xmain_reg\[13\]$_DFFE_PN0P_ _004_ net1 clknet_3_3__leaf_clk
+ main_reg\[13\] VDD VSS gf180mcu_fd_sc_mcu9t5v0__dffrnq_2
Xmain_reg\[14\]$_DFFE_PN0P_ _005_ net1 clknet_3_2__leaf_clk
+ main_reg\[14\] VDD VSS gf180mcu_fd_sc_mcu9t5v0__dffrnq_2
Xmain_reg\[15\]$_DFFE_PN0P_ _006_ net1 clknet_3_3__leaf_clk
+ main_reg\[15\] VDD VSS gf180mcu_fd_sc_mcu9t5v0__dffrnq_2
Xmain_reg\[16\]$_DFFE_PN0P_ _007_ net1 clknet_3_6__leaf_clk
+ main_reg\[16\] VDD VSS gf180mcu_fd_sc_mcu9t5v0__dffrnq_2
Xmain_reg\[17\]$_DFFE_PN0P_ _008_ net1 clknet_3_3__leaf_clk
+ main_reg\[17\] VDD VSS gf180mcu_fd_sc_mcu9t5v0__dffrnq_2
Xmain_reg\[18\]$_DFFE_PN0P_ _009_ net1 clknet_3_2__leaf_clk
+ main_reg\[18\] VDD VSS gf180mcu_fd_sc_mcu9t5v0__dffrnq_2
Xmain_reg\[19\]$_DFFE_PN0P_ _010_ net1 clknet_3_1__leaf_clk
+ main_reg\[19\] VDD VSS gf180mcu_fd_sc_mcu9t5v0__dffrnq_2
Xmain_reg\[1\]$_DFFE_PN0P_ _011_ net1 clknet_3_3__leaf_clk
+ main_reg\[1\] VDD VSS gf180mcu_fd_sc_mcu9t5v0__dffrnq_2
Xmain_reg\[20\]$_DFFE_PN0P_ _012_ net1 clknet_3_0__leaf_clk
+ main_reg\[20\] VDD VSS gf180mcu_fd_sc_mcu9t5v0__dffrnq_2
Xmain_reg\[21\]$_DFFE_PN0P_ _013_ net1 clknet_3_0__leaf_clk
+ main_reg\[21\] VDD VSS gf180mcu_fd_sc_mcu9t5v0__dffrnq_2
Xmain_reg\[22\]$_DFFE_PN0P_ _014_ net1 clknet_3_1__leaf_clk
+ main_reg\[22\] VDD VSS gf180mcu_fd_sc_mcu9t5v0__dffrnq_2
Xmain_reg\[23\]$_DFFE_PN0P_ _015_ net1 clknet_3_1__leaf_clk
+ main_reg\[23\] VDD VSS gf180mcu_fd_sc_mcu9t5v0__dffrnq_2
Xmain_reg\[24\]$_DFFE_PN0P_ _016_ net1 clknet_3_1__leaf_clk
+ main_reg\[24\] VDD VSS gf180mcu_fd_sc_mcu9t5v0__dffrnq_2
Xmain_reg\[25\]$_DFFE_PN0P_ _017_ net1 clknet_3_0__leaf_clk
+ main_reg\[25\] VDD VSS gf180mcu_fd_sc_mcu9t5v0__dffrnq_2
Xmain_reg\[26\]$_DFFE_PN0P_ _018_ net1 clknet_3_0__leaf_clk
+ main_reg\[26\] VDD VSS gf180mcu_fd_sc_mcu9t5v0__dffrnq_2
Xmain_reg\[27\]$_DFFE_PN0P_ _019_ net1 clknet_3_3__leaf_clk
+ main_reg\[27\] VDD VSS gf180mcu_fd_sc_mcu9t5v0__dffrnq_2
Xmain_reg\[28\]$_DFFE_PN0P_ _020_ net1 clknet_3_7__leaf_clk
+ main_reg\[28\] VDD VSS gf180mcu_fd_sc_mcu9t5v0__dffrnq_2
Xmain_reg\[29\]$_DFFE_PN0P_ _021_ net1 clknet_3_5__leaf_clk
+ main_reg\[29\] VDD VSS gf180mcu_fd_sc_mcu9t5v0__dffrnq_2
Xmain_reg\[2\]$_DFFE_PN0P_ _022_ net1 clknet_3_4__leaf_clk
+ main_reg\[2\] VDD VSS gf180mcu_fd_sc_mcu9t5v0__dffrnq_2
Xmain_reg\[30\]$_DFFE_PN0P_ _023_ net1 clknet_3_6__leaf_clk
+ main_reg\[30\] VDD VSS gf180mcu_fd_sc_mcu9t5v0__dffrnq_2
Xmain_reg\[31\]$_DFFE_PN0P_ _024_ net1 clknet_3_4__leaf_clk
+ main_reg\[31\] VDD VSS gf180mcu_fd_sc_mcu9t5v0__dffrnq_2
Xmain_reg\[3\]$_DFFE_PN0P_ _025_ net1 clknet_3_6__leaf_clk
+ main_reg\[3\] VDD VSS gf180mcu_fd_sc_mcu9t5v0__dffrnq_2
Xmain_reg\[4\]$_DFFE_PN0P_ _026_ net1 clknet_3_7__leaf_clk
+ main_reg\[4\] VDD VSS gf180mcu_fd_sc_mcu9t5v0__dffrnq_2
Xmain_reg\[5\]$_DFFE_PN0P_ _027_ net1 clknet_3_5__leaf_clk
+ main_reg\[5\] VDD VSS gf180mcu_fd_sc_mcu9t5v0__dffrnq_2
Xmain_reg\[6\]$_DFFE_PN0P_ _028_ net1 clknet_3_4__leaf_clk
+ main_reg\[6\] VDD VSS gf180mcu_fd_sc_mcu9t5v0__dffrnq_2
Xmain_reg\[7\]$_DFFE_PN0P_ _029_ net1 clknet_3_5__leaf_clk
+ main_reg\[7\] VDD VSS gf180mcu_fd_sc_mcu9t5v0__dffrnq_2
Xmain_reg\[8\]$_DFFE_PN0P_ _030_ net1 clknet_3_5__leaf_clk
+ main_reg\[8\] VDD VSS gf180mcu_fd_sc_mcu9t5v0__dffrnq_2
Xmain_reg\[9\]$_DFFE_PN0P_ _031_ net1 clknet_3_5__leaf_clk
+ main_reg\[9\] VDD VSS gf180mcu_fd_sc_mcu9t5v0__dffrnq_2
Xshadow_reg\[0\]$_DFFE_PN0P_ _032_ net1 clknet_3_2__leaf_clk
+ net102 VDD VSS gf180mcu_fd_sc_mcu9t5v0__dffrnq_2
Xshadow_reg\[10\]$_DFFE_PN0P_ _033_ net1 clknet_3_3__leaf_clk
+ net103 VDD VSS gf180mcu_fd_sc_mcu9t5v0__dffrnq_2
Xshadow_reg\[11\]$_DFFE_PN0P_ _034_ net1 clknet_3_6__leaf_clk
+ net104 VDD VSS gf180mcu_fd_sc_mcu9t5v0__dffrnq_2
Xshadow_reg\[12\]$_DFFE_PN0P_ _035_ net1 clknet_3_2__leaf_clk
+ net105 VDD VSS gf180mcu_fd_sc_mcu9t5v0__dffrnq_2
Xshadow_reg\[13\]$_DFFE_PN0P_ _036_ net1 clknet_3_3__leaf_clk
+ net106 VDD VSS gf180mcu_fd_sc_mcu9t5v0__dffrnq_2
Xshadow_reg\[14\]$_DFFE_PN0P_ _037_ net1 clknet_3_2__leaf_clk
+ net107 VDD VSS gf180mcu_fd_sc_mcu9t5v0__dffrnq_2
Xshadow_reg\[15\]$_DFFE_PN0P_ _038_ net1 clknet_3_2__leaf_clk
+ net108 VDD VSS gf180mcu_fd_sc_mcu9t5v0__dffrnq_2
Xshadow_reg\[16\]$_DFFE_PN0P_ _039_ net1 clknet_3_2__leaf_clk
+ net109 VDD VSS gf180mcu_fd_sc_mcu9t5v0__dffrnq_2
Xshadow_reg\[17\]$_DFFE_PN0P_ _040_ net1 clknet_3_3__leaf_clk
+ net110 VDD VSS gf180mcu_fd_sc_mcu9t5v0__dffrnq_2
Xshadow_reg\[18\]$_DFFE_PN0P_ _041_ net1 clknet_3_3__leaf_clk
+ net111 VDD VSS gf180mcu_fd_sc_mcu9t5v0__dffrnq_2
Xshadow_reg\[19\]$_DFFE_PN0P_ _042_ net1 clknet_3_1__leaf_clk
+ net112 VDD VSS gf180mcu_fd_sc_mcu9t5v0__dffrnq_2
Xshadow_reg\[1\]$_DFFE_PN0P_ _043_ net1 clknet_3_3__leaf_clk
+ net113 VDD VSS gf180mcu_fd_sc_mcu9t5v0__dffrnq_2
Xshadow_reg\[20\]$_DFFE_PN0P_ _044_ net1 clknet_3_0__leaf_clk
+ net114 VDD VSS gf180mcu_fd_sc_mcu9t5v0__dffrnq_2
Xshadow_reg\[21\]$_DFFE_PN0P_ _045_ net1 clknet_3_0__leaf_clk
+ net115 VDD VSS gf180mcu_fd_sc_mcu9t5v0__dffrnq_2
Xshadow_reg\[22\]$_DFFE_PN0P_ _046_ net1 clknet_3_1__leaf_clk
+ net116 VDD VSS gf180mcu_fd_sc_mcu9t5v0__dffrnq_2
Xshadow_reg\[23\]$_DFFE_PN0P_ _047_ net1 clknet_3_1__leaf_clk
+ net117 VDD VSS gf180mcu_fd_sc_mcu9t5v0__dffrnq_2
Xshadow_reg\[24\]$_DFFE_PN0P_ _048_ net1 clknet_3_1__leaf_clk
+ net118 VDD VSS gf180mcu_fd_sc_mcu9t5v0__dffrnq_2
Xshadow_reg\[25\]$_DFFE_PN0P_ _049_ net1 clknet_3_1__leaf_clk
+ net119 VDD VSS gf180mcu_fd_sc_mcu9t5v0__dffrnq_2
Xshadow_reg\[26\]$_DFFE_PN0P_ _050_ net1 clknet_3_0__leaf_clk
+ net120 VDD VSS gf180mcu_fd_sc_mcu9t5v0__dffrnq_2
Xshadow_reg\[27\]$_DFFE_PN0P_ _051_ net1 clknet_3_3__leaf_clk
+ net121 VDD VSS gf180mcu_fd_sc_mcu9t5v0__dffrnq_2
Xshadow_reg\[28\]$_DFFE_PN0P_ _052_ net1 clknet_3_6__leaf_clk
+ net122 VDD VSS gf180mcu_fd_sc_mcu9t5v0__dffrnq_2
Xshadow_reg\[29\]$_DFFE_PN0P_ _053_ net1 clknet_3_4__leaf_clk
+ net123 VDD VSS gf180mcu_fd_sc_mcu9t5v0__dffrnq_2
Xshadow_reg\[2\]$_DFFE_PN0P_ _054_ net1 clknet_3_4__leaf_clk
+ net124 VDD VSS gf180mcu_fd_sc_mcu9t5v0__dffrnq_2
Xshadow_reg\[30\]$_DFFE_PN0P_ _055_ net1 clknet_3_6__leaf_clk
+ net125 VDD VSS gf180mcu_fd_sc_mcu9t5v0__dffrnq_2
Xshadow_reg\[31\]$_DFFE_PN0P_ _056_ net1 clknet_3_4__leaf_clk
+ net126 VDD VSS gf180mcu_fd_sc_mcu9t5v0__dffrnq_2
Xshadow_reg\[3\]$_DFFE_PN0P_ _057_ net1 clknet_3_6__leaf_clk
+ net127 VDD VSS gf180mcu_fd_sc_mcu9t5v0__dffrnq_2
Xshadow_reg\[4\]$_DFFE_PN0P_ _058_ net1 clknet_3_7__leaf_clk
+ net128 VDD VSS gf180mcu_fd_sc_mcu9t5v0__dffrnq_2
Xshadow_reg\[5\]$_DFFE_PN0P_ _059_ net1 clknet_3_5__leaf_clk
+ net129 VDD VSS gf180mcu_fd_sc_mcu9t5v0__dffrnq_2
Xshadow_reg\[6\]$_DFFE_PN0P_ _060_ net1 clknet_3_7__leaf_clk
+ net130 VDD VSS gf180mcu_fd_sc_mcu9t5v0__dffrnq_2
Xshadow_reg\[7\]$_DFFE_PN0P_ _061_ net1 clknet_3_5__leaf_clk
+ net131 VDD VSS gf180mcu_fd_sc_mcu9t5v0__dffrnq_2
Xshadow_reg\[8\]$_DFFE_PN0P_ _062_ net1 clknet_3_5__leaf_clk
+ net132 VDD VSS gf180mcu_fd_sc_mcu9t5v0__dffrnq_2
Xshadow_reg\[9\]$_DFFE_PN0P_ _063_ net1 clknet_3_5__leaf_clk
+ net133 VDD VSS gf180mcu_fd_sc_mcu9t5v0__dffrnq_2
Xhold1 net134 net1 VDD VSS gf180mcu_fd_sc_mcu9t5v0__buf_20
XPHY_EDGE_ROW_0_Right_0 VDD VSS gf180mcu_fd_sc_mcu9t5v0__endcap
XPHY_EDGE_ROW_1_Right_1 VDD VSS gf180mcu_fd_sc_mcu9t5v0__endcap
XPHY_EDGE_ROW_2_Right_2 VDD VSS gf180mcu_fd_sc_mcu9t5v0__endcap
XPHY_EDGE_ROW_3_Right_3 VDD VSS gf180mcu_fd_sc_mcu9t5v0__endcap
XPHY_EDGE_ROW_4_Right_4 VDD VSS gf180mcu_fd_sc_mcu9t5v0__endcap
XPHY_EDGE_ROW_5_Right_5 VDD VSS gf180mcu_fd_sc_mcu9t5v0__endcap
XPHY_EDGE_ROW_6_Right_6 VDD VSS gf180mcu_fd_sc_mcu9t5v0__endcap
XPHY_EDGE_ROW_7_Right_7 VDD VSS gf180mcu_fd_sc_mcu9t5v0__endcap
XPHY_EDGE_ROW_8_Right_8 VDD VSS gf180mcu_fd_sc_mcu9t5v0__endcap
XPHY_EDGE_ROW_9_Right_9 VDD VSS gf180mcu_fd_sc_mcu9t5v0__endcap
XPHY_EDGE_ROW_10_Right_10 VDD VSS gf180mcu_fd_sc_mcu9t5v0__endcap
XPHY_EDGE_ROW_11_Right_11 VDD VSS gf180mcu_fd_sc_mcu9t5v0__endcap
XPHY_EDGE_ROW_12_Right_12 VDD VSS gf180mcu_fd_sc_mcu9t5v0__endcap
XPHY_EDGE_ROW_13_Right_13 VDD VSS gf180mcu_fd_sc_mcu9t5v0__endcap
XPHY_EDGE_ROW_14_Right_14 VDD VSS gf180mcu_fd_sc_mcu9t5v0__endcap
XPHY_EDGE_ROW_15_Right_15 VDD VSS gf180mcu_fd_sc_mcu9t5v0__endcap
XPHY_EDGE_ROW_16_Right_16 VDD VSS gf180mcu_fd_sc_mcu9t5v0__endcap
XPHY_EDGE_ROW_17_Right_17 VDD VSS gf180mcu_fd_sc_mcu9t5v0__endcap
XPHY_EDGE_ROW_18_Right_18 VDD VSS gf180mcu_fd_sc_mcu9t5v0__endcap
XPHY_EDGE_ROW_19_Right_19 VDD VSS gf180mcu_fd_sc_mcu9t5v0__endcap
XPHY_EDGE_ROW_20_Right_20 VDD VSS gf180mcu_fd_sc_mcu9t5v0__endcap
XPHY_EDGE_ROW_21_Right_21 VDD VSS gf180mcu_fd_sc_mcu9t5v0__endcap
XPHY_EDGE_ROW_22_Right_22 VDD VSS gf180mcu_fd_sc_mcu9t5v0__endcap
XPHY_EDGE_ROW_23_Right_23 VDD VSS gf180mcu_fd_sc_mcu9t5v0__endcap
XPHY_EDGE_ROW_24_Right_24 VDD VSS gf180mcu_fd_sc_mcu9t5v0__endcap
XPHY_EDGE_ROW_25_Right_25 VDD VSS gf180mcu_fd_sc_mcu9t5v0__endcap
XPHY_EDGE_ROW_26_Right_26 VDD VSS gf180mcu_fd_sc_mcu9t5v0__endcap
XPHY_EDGE_ROW_27_Right_27 VDD VSS gf180mcu_fd_sc_mcu9t5v0__endcap
XPHY_EDGE_ROW_28_Right_28 VDD VSS gf180mcu_fd_sc_mcu9t5v0__endcap
XPHY_EDGE_ROW_29_Right_29 VDD VSS gf180mcu_fd_sc_mcu9t5v0__endcap
XPHY_EDGE_ROW_30_Right_30 VDD VSS gf180mcu_fd_sc_mcu9t5v0__endcap
XPHY_EDGE_ROW_31_Right_31 VDD VSS gf180mcu_fd_sc_mcu9t5v0__endcap
XPHY_EDGE_ROW_32_Right_32 VDD VSS gf180mcu_fd_sc_mcu9t5v0__endcap
XPHY_EDGE_ROW_33_Right_33 VDD VSS gf180mcu_fd_sc_mcu9t5v0__endcap
XPHY_EDGE_ROW_34_Right_34 VDD VSS gf180mcu_fd_sc_mcu9t5v0__endcap
XPHY_EDGE_ROW_35_Right_35 VDD VSS gf180mcu_fd_sc_mcu9t5v0__endcap
XPHY_EDGE_ROW_36_Right_36 VDD VSS gf180mcu_fd_sc_mcu9t5v0__endcap
XPHY_EDGE_ROW_37_Right_37 VDD VSS gf180mcu_fd_sc_mcu9t5v0__endcap
XPHY_EDGE_ROW_38_Right_38 VDD VSS gf180mcu_fd_sc_mcu9t5v0__endcap
XPHY_EDGE_ROW_39_Right_39 VDD VSS gf180mcu_fd_sc_mcu9t5v0__endcap
XPHY_EDGE_ROW_40_Right_40 VDD VSS gf180mcu_fd_sc_mcu9t5v0__endcap
XPHY_EDGE_ROW_41_Right_41 VDD VSS gf180mcu_fd_sc_mcu9t5v0__endcap
XPHY_EDGE_ROW_42_Right_42 VDD VSS gf180mcu_fd_sc_mcu9t5v0__endcap
XPHY_EDGE_ROW_43_Right_43 VDD VSS gf180mcu_fd_sc_mcu9t5v0__endcap
XPHY_EDGE_ROW_44_Right_44 VDD VSS gf180mcu_fd_sc_mcu9t5v0__endcap
XPHY_EDGE_ROW_45_Right_45 VDD VSS gf180mcu_fd_sc_mcu9t5v0__endcap
XPHY_EDGE_ROW_46_Right_46 VDD VSS gf180mcu_fd_sc_mcu9t5v0__endcap
XPHY_EDGE_ROW_47_Right_47 VDD VSS gf180mcu_fd_sc_mcu9t5v0__endcap
XPHY_EDGE_ROW_48_Right_48 VDD VSS gf180mcu_fd_sc_mcu9t5v0__endcap
XPHY_EDGE_ROW_49_Right_49 VDD VSS gf180mcu_fd_sc_mcu9t5v0__endcap
XPHY_EDGE_ROW_50_Right_50 VDD VSS gf180mcu_fd_sc_mcu9t5v0__endcap
XPHY_EDGE_ROW_51_Right_51 VDD VSS gf180mcu_fd_sc_mcu9t5v0__endcap
XPHY_EDGE_ROW_52_Right_52 VDD VSS gf180mcu_fd_sc_mcu9t5v0__endcap
XPHY_EDGE_ROW_53_Right_53 VDD VSS gf180mcu_fd_sc_mcu9t5v0__endcap
XPHY_EDGE_ROW_54_Right_54 VDD VSS gf180mcu_fd_sc_mcu9t5v0__endcap
XPHY_EDGE_ROW_55_Right_55 VDD VSS gf180mcu_fd_sc_mcu9t5v0__endcap
XPHY_EDGE_ROW_56_Right_56 VDD VSS gf180mcu_fd_sc_mcu9t5v0__endcap
XPHY_EDGE_ROW_57_Right_57 VDD VSS gf180mcu_fd_sc_mcu9t5v0__endcap
XPHY_EDGE_ROW_58_Right_58 VDD VSS gf180mcu_fd_sc_mcu9t5v0__endcap
XPHY_EDGE_ROW_59_Right_59 VDD VSS gf180mcu_fd_sc_mcu9t5v0__endcap
XPHY_EDGE_ROW_60_Right_60 VDD VSS gf180mcu_fd_sc_mcu9t5v0__endcap
XPHY_EDGE_ROW_61_Right_61 VDD VSS gf180mcu_fd_sc_mcu9t5v0__endcap
XPHY_EDGE_ROW_62_Right_62 VDD VSS gf180mcu_fd_sc_mcu9t5v0__endcap
XPHY_EDGE_ROW_63_Right_63 VDD VSS gf180mcu_fd_sc_mcu9t5v0__endcap
XPHY_EDGE_ROW_64_Right_64 VDD VSS gf180mcu_fd_sc_mcu9t5v0__endcap
XPHY_EDGE_ROW_65_Right_65 VDD VSS gf180mcu_fd_sc_mcu9t5v0__endcap
XPHY_EDGE_ROW_66_Right_66 VDD VSS gf180mcu_fd_sc_mcu9t5v0__endcap
XPHY_EDGE_ROW_67_Right_67 VDD VSS gf180mcu_fd_sc_mcu9t5v0__endcap
XPHY_EDGE_ROW_68_Right_68 VDD VSS gf180mcu_fd_sc_mcu9t5v0__endcap
XPHY_EDGE_ROW_69_Right_69 VDD VSS gf180mcu_fd_sc_mcu9t5v0__endcap
XPHY_EDGE_ROW_70_Right_70 VDD VSS gf180mcu_fd_sc_mcu9t5v0__endcap
XPHY_EDGE_ROW_71_Right_71 VDD VSS gf180mcu_fd_sc_mcu9t5v0__endcap
XPHY_EDGE_ROW_72_Right_72 VDD VSS gf180mcu_fd_sc_mcu9t5v0__endcap
XPHY_EDGE_ROW_73_Right_73 VDD VSS gf180mcu_fd_sc_mcu9t5v0__endcap
XPHY_EDGE_ROW_74_Right_74 VDD VSS gf180mcu_fd_sc_mcu9t5v0__endcap
XPHY_EDGE_ROW_75_Right_75 VDD VSS gf180mcu_fd_sc_mcu9t5v0__endcap
XPHY_EDGE_ROW_76_Right_76 VDD VSS gf180mcu_fd_sc_mcu9t5v0__endcap
XPHY_EDGE_ROW_77_Right_77 VDD VSS gf180mcu_fd_sc_mcu9t5v0__endcap
XPHY_EDGE_ROW_78_Right_78 VDD VSS gf180mcu_fd_sc_mcu9t5v0__endcap
XPHY_EDGE_ROW_79_Right_79 VDD VSS gf180mcu_fd_sc_mcu9t5v0__endcap
XPHY_EDGE_ROW_80_Right_80 VDD VSS gf180mcu_fd_sc_mcu9t5v0__endcap
XPHY_EDGE_ROW_81_Right_81 VDD VSS gf180mcu_fd_sc_mcu9t5v0__endcap
XPHY_EDGE_ROW_82_Right_82 VDD VSS gf180mcu_fd_sc_mcu9t5v0__endcap
XPHY_EDGE_ROW_83_Right_83 VDD VSS gf180mcu_fd_sc_mcu9t5v0__endcap
XPHY_EDGE_ROW_84_Right_84 VDD VSS gf180mcu_fd_sc_mcu9t5v0__endcap
XPHY_EDGE_ROW_85_Right_85 VDD VSS gf180mcu_fd_sc_mcu9t5v0__endcap
XPHY_EDGE_ROW_86_Right_86 VDD VSS gf180mcu_fd_sc_mcu9t5v0__endcap
XPHY_EDGE_ROW_87_Right_87 VDD VSS gf180mcu_fd_sc_mcu9t5v0__endcap
XPHY_EDGE_ROW_88_Right_88 VDD VSS gf180mcu_fd_sc_mcu9t5v0__endcap
XPHY_EDGE_ROW_89_Right_89 VDD VSS gf180mcu_fd_sc_mcu9t5v0__endcap
XPHY_EDGE_ROW_90_Right_90 VDD VSS gf180mcu_fd_sc_mcu9t5v0__endcap
XPHY_EDGE_ROW_91_Right_91 VDD VSS gf180mcu_fd_sc_mcu9t5v0__endcap
XPHY_EDGE_ROW_92_Right_92 VDD VSS gf180mcu_fd_sc_mcu9t5v0__endcap
XPHY_EDGE_ROW_93_Right_93 VDD VSS gf180mcu_fd_sc_mcu9t5v0__endcap
XPHY_EDGE_ROW_94_Right_94 VDD VSS gf180mcu_fd_sc_mcu9t5v0__endcap
XPHY_EDGE_ROW_95_Right_95 VDD VSS gf180mcu_fd_sc_mcu9t5v0__endcap
XPHY_EDGE_ROW_96_Right_96 VDD VSS gf180mcu_fd_sc_mcu9t5v0__endcap
XPHY_EDGE_ROW_97_Right_97 VDD VSS gf180mcu_fd_sc_mcu9t5v0__endcap
XPHY_EDGE_ROW_98_Right_98 VDD VSS gf180mcu_fd_sc_mcu9t5v0__endcap
XPHY_EDGE_ROW_99_Right_99 VDD VSS gf180mcu_fd_sc_mcu9t5v0__endcap
XPHY_EDGE_ROW_100_Right_100 VDD VSS gf180mcu_fd_sc_mcu9t5v0__endcap
XPHY_EDGE_ROW_101_Right_101 VDD VSS gf180mcu_fd_sc_mcu9t5v0__endcap
XPHY_EDGE_ROW_102_Right_102 VDD VSS gf180mcu_fd_sc_mcu9t5v0__endcap
XPHY_EDGE_ROW_103_Right_103 VDD VSS gf180mcu_fd_sc_mcu9t5v0__endcap
XPHY_EDGE_ROW_104_Right_104 VDD VSS gf180mcu_fd_sc_mcu9t5v0__endcap
XPHY_EDGE_ROW_105_Right_105 VDD VSS gf180mcu_fd_sc_mcu9t5v0__endcap
XPHY_EDGE_ROW_106_Right_106 VDD VSS gf180mcu_fd_sc_mcu9t5v0__endcap
XPHY_EDGE_ROW_107_Right_107 VDD VSS gf180mcu_fd_sc_mcu9t5v0__endcap
XPHY_EDGE_ROW_108_Right_108 VDD VSS gf180mcu_fd_sc_mcu9t5v0__endcap
XPHY_EDGE_ROW_109_Right_109 VDD VSS gf180mcu_fd_sc_mcu9t5v0__endcap
XPHY_EDGE_ROW_110_Right_110 VDD VSS gf180mcu_fd_sc_mcu9t5v0__endcap
XPHY_EDGE_ROW_111_Right_111 VDD VSS gf180mcu_fd_sc_mcu9t5v0__endcap
XPHY_EDGE_ROW_112_Right_112 VDD VSS gf180mcu_fd_sc_mcu9t5v0__endcap
XPHY_EDGE_ROW_113_Right_113 VDD VSS gf180mcu_fd_sc_mcu9t5v0__endcap
XPHY_EDGE_ROW_114_Right_114 VDD VSS gf180mcu_fd_sc_mcu9t5v0__endcap
XPHY_EDGE_ROW_115_Right_115 VDD VSS gf180mcu_fd_sc_mcu9t5v0__endcap
XPHY_EDGE_ROW_116_Right_116 VDD VSS gf180mcu_fd_sc_mcu9t5v0__endcap
XPHY_EDGE_ROW_117_Right_117 VDD VSS gf180mcu_fd_sc_mcu9t5v0__endcap
XPHY_EDGE_ROW_118_Right_118 VDD VSS gf180mcu_fd_sc_mcu9t5v0__endcap
XPHY_EDGE_ROW_119_Right_119 VDD VSS gf180mcu_fd_sc_mcu9t5v0__endcap
XPHY_EDGE_ROW_120_Right_120 VDD VSS gf180mcu_fd_sc_mcu9t5v0__endcap
XPHY_EDGE_ROW_121_Right_121 VDD VSS gf180mcu_fd_sc_mcu9t5v0__endcap
XPHY_EDGE_ROW_122_Right_122 VDD VSS gf180mcu_fd_sc_mcu9t5v0__endcap
XPHY_EDGE_ROW_123_Right_123 VDD VSS gf180mcu_fd_sc_mcu9t5v0__endcap
XPHY_EDGE_ROW_124_Right_124 VDD VSS gf180mcu_fd_sc_mcu9t5v0__endcap
XPHY_EDGE_ROW_125_Right_125 VDD VSS gf180mcu_fd_sc_mcu9t5v0__endcap
XPHY_EDGE_ROW_126_Right_126 VDD VSS gf180mcu_fd_sc_mcu9t5v0__endcap
XPHY_EDGE_ROW_127_Right_127 VDD VSS gf180mcu_fd_sc_mcu9t5v0__endcap
XPHY_EDGE_ROW_128_Right_128 VDD VSS gf180mcu_fd_sc_mcu9t5v0__endcap
XPHY_EDGE_ROW_129_Right_129 VDD VSS gf180mcu_fd_sc_mcu9t5v0__endcap
XPHY_EDGE_ROW_130_Right_130 VDD VSS gf180mcu_fd_sc_mcu9t5v0__endcap
XPHY_EDGE_ROW_131_Right_131 VDD VSS gf180mcu_fd_sc_mcu9t5v0__endcap
XPHY_EDGE_ROW_132_Right_132 VDD VSS gf180mcu_fd_sc_mcu9t5v0__endcap
XPHY_EDGE_ROW_133_Right_133 VDD VSS gf180mcu_fd_sc_mcu9t5v0__endcap
XPHY_EDGE_ROW_134_Right_134 VDD VSS gf180mcu_fd_sc_mcu9t5v0__endcap
XPHY_EDGE_ROW_135_Right_135 VDD VSS gf180mcu_fd_sc_mcu9t5v0__endcap
XPHY_EDGE_ROW_136_Right_136 VDD VSS gf180mcu_fd_sc_mcu9t5v0__endcap
XPHY_EDGE_ROW_137_Right_137 VDD VSS gf180mcu_fd_sc_mcu9t5v0__endcap
XPHY_EDGE_ROW_138_Right_138 VDD VSS gf180mcu_fd_sc_mcu9t5v0__endcap