* CDL Netlist generated by OpenROAD

*.BUSDELIMITER [

.SUBCKT digital_thermometer_controller adc_valid adc_value[0]
+ adc_value[1] adc_value[2] adc_value[3] adc_value[4] adc_value[5]
+ adc_value[6] adc_value[7] adc_value[8] adc_value[9] alert
+ clk force_update rst_n status[0] status[1] status[2] temperature[0]
+ temperature[1] temperature[2] temperature[3] temperature[4]
+ temperature[5] temperature[6] temperature[7] units_select
+ update valid
X_087_ fahrenheit_value\[2\] net25 _040_ _052_ VDD VSS gf180mcu_fd_sc_mcu9t5v0__mux2_2
X_088_ _042_ _038_ _052_ _024_ VDD VSS gf180mcu_fd_sc_mcu9t5v0__and3_2
X_089_ net13 _042_ _053_ VDD VSS gf180mcu_fd_sc_mcu9t5v0__and2_2
X_090_ units_changed _053_ _025_ VDD VSS gf180mcu_fd_sc_mcu9t5v0__or2_2
X_091_ input_count\[2\] input_count\[3\] _084_ _054_ VDD VSS
+ gf180mcu_fd_sc_mcu9t5v0__nor3_2
X_092_ net27 _055_ VDD VSS gf180mcu_fd_sc_mcu9t5v0__clkinv_2
X_093_ _069_ _054_ _055_ _056_ VDD VSS gf180mcu_fd_sc_mcu9t5v0__oai21_2
X_094_ _038_ _056_ _026_ VDD VSS gf180mcu_fd_sc_mcu9t5v0__and2_2
X_095_ initialized _060_ _011_ VDD VSS gf180mcu_fd_sc_mcu9t5v0__or2_2
X_096_ net13 net2 _000_ VDD VSS gf180mcu_fd_sc_mcu9t5v0__or2_2
X_097_ input_count\[0\] _001_ VDD VSS gf180mcu_fd_sc_mcu9t5v0__clkinv_2
X_098_ input_count\[1\] _082_ VDD VSS gf180mcu_fd_sc_mcu9t5v0__clkinv_2
X_099_ net16 _057_ VDD VSS gf180mcu_fd_sc_mcu9t5v0__clkinv_2
X_100_ _083_ _058_ VDD VSS gf180mcu_fd_sc_mcu9t5v0__inv_2
X_101_ input_count\[2\] _058_ seen_high_temp input_count\[3\]
+ _059_ VDD VSS gf180mcu_fd_sc_mcu9t5v0__oai211_4
X_102_ input_count\[2\] input_count\[3\] _058_ initialized
+ _060_ VDD VSS gf180mcu_fd_sc_mcu9t5v0__nor4_4
X_103_ _057_ _059_ _060_ _003_ VDD VSS gf180mcu_fd_sc_mcu9t5v0__aoi21_2
X_104_ net5 _061_ VDD VSS gf180mcu_fd_sc_mcu9t5v0__clkinv_2
X_105_ _061_ net8 _062_ VDD VSS gf180mcu_fd_sc_mcu9t5v0__or2_2
X_106_ net10 _063_ VDD VSS gf180mcu_fd_sc_mcu9t5v0__clkinv_2
X_107_ net9 _064_ VDD VSS gf180mcu_fd_sc_mcu9t5v0__clkinv_2
X_108_ net7 _063_ _064_ net12 _065_ VDD VSS gf180mcu_fd_sc_mcu9t5v0__or4_2
X_109_ net2 _066_ VDD VSS gf180mcu_fd_sc_mcu9t5v0__clkinv_3
X_110_ net6 _067_ VDD VSS gf180mcu_fd_sc_mcu9t5v0__clkinv_2
X_111_ _066_ net4 net3 _067_ _068_ VDD VSS gf180mcu_fd_sc_mcu9t5v0__or4_2
X_112_ _062_ _065_ _068_ _069_ VDD VSS gf180mcu_fd_sc_mcu9t5v0__or3_4
X_113_ net11 _070_ VDD VSS gf180mcu_fd_sc_mcu9t5v0__clkinv_3
X_114_ net8 net7 _071_ VDD VSS gf180mcu_fd_sc_mcu9t5v0__nand2_2
X_115_ net10 net9 _072_ VDD VSS gf180mcu_fd_sc_mcu9t5v0__or2_2
X_116_ net12 _070_ _071_ _072_ _073_ VDD VSS gf180mcu_fd_sc_mcu9t5v0__nor4_4
X_117_ net4 net3 _067_ _061_ _074_ VDD VSS gf180mcu_fd_sc_mcu9t5v0__and4_2
X_118_ net2 _073_ _074_ _075_ VDD VSS gf180mcu_fd_sc_mcu9t5v0__nand3_4
X_119_ celsius_value\[0\] _069_ _075_ _076_ VDD VSS gf180mcu_fd_sc_mcu9t5v0__and3_2
X_120_ _070_ _069_ _077_ VDD VSS gf180mcu_fd_sc_mcu9t5v0__nor2_2
X_121_ _076_ _077_ _004_ VDD VSS gf180mcu_fd_sc_mcu9t5v0__or2_2
X_122_ celsius_value\[1\] _069_ _078_ VDD VSS gf180mcu_fd_sc_mcu9t5v0__nand2_2
X_123_ _075_ _078_ _005_ VDD VSS gf180mcu_fd_sc_mcu9t5v0__nand2_2
X_124_ celsius_value\[2\] _079_ VDD VSS gf180mcu_fd_sc_mcu9t5v0__clkinv_2
X_125_ _069_ _075_ _080_ VDD VSS gf180mcu_fd_sc_mcu9t5v0__and2_2
X_126_ _079_ _080_ _006_ VDD VSS gf180mcu_fd_sc_mcu9t5v0__nand2_2
X_127_ celsius_value\[3\] _081_ VDD VSS gf180mcu_fd_sc_mcu9t5v0__clkinv_2
X_128_ net11 _069_ _027_ VDD VSS gf180mcu_fd_sc_mcu9t5v0__nor2_2
X_129_ _081_ _080_ _027_ _007_ VDD VSS gf180mcu_fd_sc_mcu9t5v0__aoi21_2
X_130_ celsius_value\[4\] _028_ VDD VSS gf180mcu_fd_sc_mcu9t5v0__clkinv_2
X_131_ _028_ _080_ _077_ _008_ VDD VSS gf180mcu_fd_sc_mcu9t5v0__aoi21_2
X_132_ fahrenheit_value\[2\] _029_ VDD VSS gf180mcu_fd_sc_mcu9t5v0__clkinv_2
X_133_ _073_ _074_ _030_ VDD VSS gf180mcu_fd_sc_mcu9t5v0__and2_2
X_134_ net4 net3 _067_ net11 _031_ VDD VSS gf180mcu_fd_sc_mcu9t5v0__or4_2
X_135_ _062_ _065_ _031_ _032_ VDD VSS gf180mcu_fd_sc_mcu9t5v0__nor3_4
X_136_ _030_ _032_ net2 _033_ VDD VSS gf180mcu_fd_sc_mcu9t5v0__oai21_2
X_137_ _029_ _033_ _009_ VDD VSS gf180mcu_fd_sc_mcu9t5v0__nand2_2
X_138_ fahrenheit_value\[1\] _034_ VDD VSS gf180mcu_fd_sc_mcu9t5v0__clkinv_2
X_139_ _034_ _027_ _075_ _010_ VDD VSS gf180mcu_fd_sc_mcu9t5v0__oai21_2
X_140_ net2 input_count\[0\] _012_ VDD VSS gf180mcu_fd_sc_mcu9t5v0__xor2_2
X_141_ input_count\[1\] _002_ net2 _013_ VDD VSS gf180mcu_fd_sc_mcu9t5v0__mux2_2
X_142_ net2 _084_ _035_ VDD VSS gf180mcu_fd_sc_mcu9t5v0__nand2_2
X_143_ input_count\[2\] _035_ _014_ VDD VSS gf180mcu_fd_sc_mcu9t5v0__xnor2_2
X_144_ input_count\[2\] net2 input_count\[1\] input_count\[0\]
+ _036_ VDD VSS gf180mcu_fd_sc_mcu9t5v0__and4_2
X_145_ input_count\[3\] _036_ _015_ VDD VSS gf180mcu_fd_sc_mcu9t5v0__xor2_2
X_146_ seen_high_temp _077_ _016_ VDD VSS gf180mcu_fd_sc_mcu9t5v0__or2_2
X_147_ _066_ net17 _059_ _037_ VDD VSS gf180mcu_fd_sc_mcu9t5v0__and3_2
X_148_ _060_ _037_ _017_ VDD VSS gf180mcu_fd_sc_mcu9t5v0__or2_2
X_149_ input_count\[2\] input_count\[3\] _058_ initialized
+ _038_ VDD VSS gf180mcu_fd_sc_mcu9t5v0__or4_4
X_150_ _066_ net18 _038_ _039_ VDD VSS gf180mcu_fd_sc_mcu9t5v0__nand3_2
X_151_ _059_ _039_ _018_ VDD VSS gf180mcu_fd_sc_mcu9t5v0__nand2_2
X_152_ net13 units_changed _040_ VDD VSS gf180mcu_fd_sc_mcu9t5v0__nor2_4
X_153_ fahrenheit_value\[1\] net20 _040_ _041_ VDD VSS gf180mcu_fd_sc_mcu9t5v0__mux2_2
X_154_ net15 _042_ VDD VSS gf180mcu_fd_sc_mcu9t5v0__inv_3
X_155_ celsius_value\[1\] _041_ _042_ _043_ VDD VSS gf180mcu_fd_sc_mcu9t5v0__mux2_2
X_156_ _038_ _043_ _019_ VDD VSS gf180mcu_fd_sc_mcu9t5v0__and2_2
X_157_ fahrenheit_value\[2\] net21 _040_ _044_ VDD VSS gf180mcu_fd_sc_mcu9t5v0__mux2_2
X_158_ celsius_value\[2\] _044_ _042_ _045_ VDD VSS gf180mcu_fd_sc_mcu9t5v0__mux2_2
X_159_ _038_ _045_ _020_ VDD VSS gf180mcu_fd_sc_mcu9t5v0__and2_2
X_160_ net22 _040_ _046_ VDD VSS gf180mcu_fd_sc_mcu9t5v0__and2_2
X_161_ celsius_value\[3\] _046_ _042_ _047_ VDD VSS gf180mcu_fd_sc_mcu9t5v0__mux2_2
X_162_ _038_ _047_ _021_ VDD VSS gf180mcu_fd_sc_mcu9t5v0__and2_2
X_163_ fahrenheit_value\[1\] net23 _040_ _048_ VDD VSS gf180mcu_fd_sc_mcu9t5v0__mux2_2
X_164_ celsius_value\[4\] _048_ _042_ _049_ VDD VSS gf180mcu_fd_sc_mcu9t5v0__mux2_2
X_165_ _038_ _049_ _022_ VDD VSS gf180mcu_fd_sc_mcu9t5v0__and2_2
X_166_ net24 _040_ _050_ VDD VSS gf180mcu_fd_sc_mcu9t5v0__and2_2
X_167_ celsius_value\[0\] _050_ _042_ _051_ VDD VSS gf180mcu_fd_sc_mcu9t5v0__mux2_2
X_168_ _038_ _051_ _023_ VDD VSS gf180mcu_fd_sc_mcu9t5v0__and2_2
X_169_ _001_ _082_ _083_ _002_ VDD VSS gf180mcu_fd_sc_mcu9t5v0__addh_1
X_170_ input_count\[0\] input_count\[1\] _084_ _085_ VDD VSS
+ gf180mcu_fd_sc_mcu9t5v0__addh_1
Xclkbuf_0_clk clk clknet_0_clk VDD VSS gf180mcu_fd_sc_mcu9t5v0__clkbuf_20
X_172_ net28 status[1] VDD VSS gf180mcu_fd_sc_mcu9t5v0__dlya_4
X_173_ net24 net19 VDD VSS gf180mcu_fd_sc_mcu9t5v0__dlyb_2
X_174_ net29 temperature[7] VDD VSS gf180mcu_fd_sc_mcu9t5v0__dlya_4
Xalert$_DFFE_PN0P_ _003_ net1 clknet_1_1__leaf_clk net16 VDD
+ VSS gf180mcu_fd_sc_mcu9t5v0__dffrnq_2
Xcelsius_value\[0\]$_DFFE_PN0P_ _004_ net1 clknet_1_0__leaf_clk
+ celsius_value\[0\] VDD VSS gf180mcu_fd_sc_mcu9t5v0__dffrnq_2
Xcelsius_value\[1\]$_DFFE_PN0P_ _005_ net1 clknet_1_0__leaf_clk
+ celsius_value\[1\] VDD VSS gf180mcu_fd_sc_mcu9t5v0__dffrnq_2
Xcelsius_value\[2\]$_DFFE_PN0P_ _006_ net1 clknet_1_0__leaf_clk
+ celsius_value\[2\] VDD VSS gf180mcu_fd_sc_mcu9t5v0__dffrnq_2
Xcelsius_value\[3\]$_DFFE_PN0P_ _007_ net1 clknet_1_0__leaf_clk
+ celsius_value\[3\] VDD VSS gf180mcu_fd_sc_mcu9t5v0__dffrnq_2
Xcelsius_value\[4\]$_DFFE_PN0P_ _008_ net1 clknet_1_0__leaf_clk
+ celsius_value\[4\] VDD VSS gf180mcu_fd_sc_mcu9t5v0__dffrnq_2
Xfahrenheit_value\[2\]$_DFFE_PN0P_ _009_ net1 clknet_1_1__leaf_clk
+ fahrenheit_value\[2\] VDD VSS gf180mcu_fd_sc_mcu9t5v0__dffrnq_2
Xfahrenheit_value\[4\]$_DFFE_PN0P_ _010_ net1 clknet_1_0__leaf_clk
+ fahrenheit_value\[1\] VDD VSS gf180mcu_fd_sc_mcu9t5v0__dffrnq_2
Xinitialized$_DFFE_PN0N_ _011_ net1 clknet_1_1__leaf_clk initialized
+ VDD VSS gf180mcu_fd_sc_mcu9t5v0__dffrnq_2
Xinput_count\[0\]$_DFFE_PN0P_ _012_ net1 clknet_1_1__leaf_clk
+ input_count\[0\] VDD VSS gf180mcu_fd_sc_mcu9t5v0__dffrnq_2
Xinput_count\[1\]$_DFFE_PN0P_ _013_ net1 clknet_1_1__leaf_clk
+ input_count\[1\] VDD VSS gf180mcu_fd_sc_mcu9t5v0__dffrnq_2
Xinput_count\[2\]$_DFFE_PN0P_ _014_ net1 clknet_1_1__leaf_clk
+ input_count\[2\] VDD VSS gf180mcu_fd_sc_mcu9t5v0__dffrnq_2
Xinput_count\[3\]$_DFFE_PN0P_ _015_ net1 clknet_1_1__leaf_clk
+ input_count\[3\] VDD VSS gf180mcu_fd_sc_mcu9t5v0__dffrnq_2
Xseen_high_temp$_DFFE_PN0P_ _016_ net1 clknet_1_1__leaf_clk
+ seen_high_temp VDD VSS gf180mcu_fd_sc_mcu9t5v0__dffrnq_2
Xstatus\[0\]$_DFFE_PN1P_ _017_ net14 clknet_1_1__leaf_clk
+ net17 VDD VSS gf180mcu_fd_sc_mcu9t5v0__dffsnq_2
Xstatus\[2\]$_DFFE_PN0P_ _018_ net1 clknet_1_1__leaf_clk net18
+ VDD VSS gf180mcu_fd_sc_mcu9t5v0__dffrnq_2
Xtemperature\[1\]$_DFFE_PN0P_ _019_ net1 clknet_1_0__leaf_clk
+ net20 VDD VSS gf180mcu_fd_sc_mcu9t5v0__dffrnq_2
Xtemperature\[2\]$_DFFE_PN0P_ _020_ net1 clknet_1_0__leaf_clk
+ net21 VDD VSS gf180mcu_fd_sc_mcu9t5v0__dffrnq_2
Xtemperature\[3\]$_DFFE_PN0P_ _021_ net1 clknet_1_0__leaf_clk
+ net22 VDD VSS gf180mcu_fd_sc_mcu9t5v0__dffrnq_2
Xtemperature\[4\]$_DFFE_PN0P_ _022_ net1 clknet_1_0__leaf_clk
+ net23 VDD VSS gf180mcu_fd_sc_mcu9t5v0__dffrnq_2
Xtemperature\[5\]$_DFFE_PN0P_ _023_ net1 clknet_1_0__leaf_clk
+ net24 VDD VSS gf180mcu_fd_sc_mcu9t5v0__dffrnq_2
Xtemperature\[6\]$_DFFE_PN0P_ _024_ net1 clknet_1_0__leaf_clk
+ net25 VDD VSS gf180mcu_fd_sc_mcu9t5v0__dffrnq_2
Xunits_changed$_DFFE_PN0P_ _025_ net1 clknet_1_0__leaf_clk
+ units_changed VDD VSS gf180mcu_fd_sc_mcu9t5v0__dffrnq_2
Xupdate$_DFF_PN0_ _000_ net1 clknet_1_0__leaf_clk net26 VDD
+ VSS gf180mcu_fd_sc_mcu9t5v0__dffrnq_2
Xvalid$_DFFE_PN0P_ _026_ net1 clknet_1_1__leaf_clk net27 VDD
+ VSS gf180mcu_fd_sc_mcu9t5v0__dffrnq_2
Xhold1 net14 net1 VDD VSS gf180mcu_fd_sc_mcu9t5v0__clkbuf_12
XPHY_EDGE_ROW_0_Right_0 VDD VSS gf180mcu_fd_sc_mcu9t5v0__endcap
XPHY_EDGE_ROW_1_Right_1 VDD VSS gf180mcu_fd_sc_mcu9t5v0__endcap
XPHY_EDGE_ROW_2_Right_2 VDD VSS gf180mcu_fd_sc_mcu9t5v0__endcap
XPHY_EDGE_ROW_3_Right_3 VDD VSS gf180mcu_fd_sc_mcu9t5v0__endcap
XPHY_EDGE_ROW_4_Right_4 VDD VSS gf180mcu_fd_sc_mcu9t5v0__endcap
XPHY_EDGE_ROW_5_Right_5 VDD VSS gf180mcu_fd_sc_mcu9t5v0__endcap
XPHY_EDGE_ROW_6_Right_6 VDD VSS gf180mcu_fd_sc_mcu9t5v0__endcap
XPHY_EDGE_ROW_7_Right_7 VDD VSS gf180mcu_fd_sc_mcu9t5v0__endcap
XPHY_EDGE_ROW_8_Right_8 VDD VSS gf180mcu_fd_sc_mcu9t5v0__endcap
XPHY_EDGE_ROW_9_Right_9 VDD VSS gf180mcu_fd_sc_mcu9t5v0__endcap
XPHY_EDGE_ROW_10_Right_10 VDD VSS gf180mcu_fd_sc_mcu9t5v0__endcap
XPHY_EDGE_ROW_11_Right_11 VDD VSS gf180mcu_fd_sc_mcu9t5v0__endcap
XPHY_EDGE_ROW_12_Right_12 VDD VSS gf180mcu_fd_sc_mcu9t5v0__endcap
XPHY_EDGE_ROW_13_Right_13 VDD VSS gf180mcu_fd_sc_mcu9t5v0__endcap
XPHY_EDGE_ROW_14_Right_14 VDD VSS gf180mcu_fd_sc_mcu9t5v0__endcap
XPHY_EDGE_ROW_15_Right_15 VDD VSS gf180mcu_fd_sc_mcu9t5v0__endcap
XPHY_EDGE_ROW_16_Right_16 VDD VSS gf180mcu_fd_sc_mcu9t5v0__endcap
XPHY_EDGE_ROW_17_Right_17 VDD VSS gf180mcu_fd_sc_mcu9t5v0__endcap
XPHY_EDGE_ROW_18_Right_18 VDD VSS gf180mcu_fd_sc_mcu9t5v0__endcap
XPHY_EDGE_ROW_19_Right_19 VDD VSS gf180mcu_fd_sc_mcu9t5v0__endcap
XPHY_EDGE_ROW_20_Right_20 VDD VSS gf180mcu_fd_sc_mcu9t5v0__endcap
XPHY_EDGE_ROW_21_Right_21 VDD VSS gf180mcu_fd_sc_mcu9t5v0__endcap
XPHY_EDGE_ROW_22_Right_22 VDD VSS gf180mcu_fd_sc_mcu9t5v0__endcap
XPHY_EDGE_ROW_23_Right_23 VDD VSS gf180mcu_fd_sc_mcu9t5v0__endcap
XPHY_EDGE_ROW_24_Right_24 VDD VSS gf180mcu_fd_sc_mcu9t5v0__endcap
XPHY_EDGE_ROW_25_Right_25 VDD VSS gf180mcu_fd_sc_mcu9t5v0__endcap
XPHY_EDGE_ROW_26_Right_26 VDD VSS gf180mcu_fd_sc_mcu9t5v0__endcap
XPHY_EDGE_ROW_27_Right_27 VDD VSS gf180mcu_fd_sc_mcu9t5v0__endcap
XPHY_EDGE_ROW_28_Right_28 VDD VSS gf180mcu_fd_sc_mcu9t5v0__endcap
XPHY_EDGE_ROW_29_Right_29 VDD VSS gf180mcu_fd_sc_mcu9t5v0__endcap
XPHY_EDGE_ROW_30_Right_30 VDD VSS gf180mcu_fd_sc_mcu9t5v0__endcap
XPHY_EDGE_ROW_31_Right_31 VDD VSS gf180mcu_fd_sc_mcu9t5v0__endcap
XPHY_EDGE_ROW_32_Right_32 VDD VSS gf180mcu_fd_sc_mcu9t5v0__endcap
XPHY_EDGE_ROW_33_Right_33 VDD VSS gf180mcu_fd_sc_mcu9t5v0__endcap
XPHY_EDGE_ROW_34_Right_34 VDD VSS gf180mcu_fd_sc_mcu9t5v0__endcap
XPHY_EDGE_ROW_35_Right_35 VDD VSS gf180mcu_fd_sc_mcu9t5v0__endcap
XPHY_EDGE_ROW_36_Right_36 VDD VSS gf180mcu_fd_sc_mcu9t5v0__endcap
XPHY_EDGE_ROW_37_Right_37 VDD VSS gf180mcu_fd_sc_mcu9t5v0__endcap
XPHY_EDGE_ROW_38_Right_38 VDD VSS gf180mcu_fd_sc_mcu9t5v0__endcap
XPHY_EDGE_ROW_39_Right_39 VDD VSS gf180mcu_fd_sc_mcu9t5v0__endcap
XPHY_EDGE_ROW_40_Right_40 VDD VSS gf180mcu_fd_sc_mcu9t5v0__endcap
XPHY_EDGE_ROW_41_Right_41 VDD VSS gf180mcu_fd_sc_mcu9t5v0__endcap
XPHY_EDGE_ROW_42_Right_42 VDD VSS gf180mcu_fd_sc_mcu9t5v0__endcap
XPHY_EDGE_ROW_43_Right_43 VDD VSS gf180mcu_fd_sc_mcu9t5v0__endcap
XPHY_EDGE_ROW_44_Right_44 VDD VSS gf180mcu_fd_sc_mcu9t5v0__endcap
XPHY_EDGE_ROW_45_Right_45 VDD VSS gf180mcu_fd_sc_mcu9t5v0__endcap
XPHY_EDGE_ROW_46_Right_46 VDD VSS gf180mcu_fd_sc_mcu9t5v0__endcap
XPHY_EDGE_ROW_47_Right_47 VDD VSS gf180mcu_fd_sc_mcu9t5v0__endcap
XPHY_EDGE_ROW_48_Right_48 VDD VSS gf180mcu_fd_sc_mcu9t5v0__endcap
XPHY_EDGE_ROW_49_Right_49 VDD VSS gf180mcu_fd_sc_mcu9t5v0__endcap
XPHY_EDGE_ROW_50_Right_50 VDD VSS gf180mcu_fd_sc_mcu9t5v0__endcap
XPHY_EDGE_ROW_51_Right_51 VDD VSS gf180mcu_fd_sc_mcu9t5v0__endcap
XPHY_EDGE_ROW_52_Right_52 VDD VSS gf180mcu_fd_sc_mcu9t5v0__endcap
XPHY_EDGE_ROW_53_Right_53 VDD VSS gf180mcu_fd_sc_mcu9t5v0__endcap
XPHY_EDGE_ROW_54_Right_54 VDD VSS gf180mcu_fd_sc_mcu9t5v0__endcap
XPHY_EDGE_ROW_55_Right_55 VDD VSS gf180mcu_fd_sc_mcu9t5v0__endcap
XPHY_EDGE_ROW_56_Right_56 VDD VSS gf180mcu_fd_sc_mcu9t5v0__endcap
XPHY_EDGE_ROW_57_Right_57 VDD VSS gf180mcu_fd_sc_mcu9t5v0__endcap
XPHY_EDGE_ROW_58_Right_58 VDD VSS gf180mcu_fd_sc_mcu9t5v0__endcap
XPHY_EDGE_ROW_59_Right_59 VDD VSS gf180mcu_fd_sc_mcu9t5v0__endcap
XPHY_EDGE_ROW_60_Right_60 VDD VSS gf180mcu_fd_sc_mcu9t5v0__endcap
XPHY_EDGE_ROW_61_Right_61 VDD VSS gf180mcu_fd_sc_mcu9t5v0__endcap
XPHY_EDGE_ROW_62_Right_62 VDD VSS gf180mcu_fd_sc_mcu9t5v0__endcap
XPHY_EDGE_ROW_63_Right_63 VDD VSS gf180mcu_fd_sc_mcu9t5v0__endcap
XPHY_EDGE_ROW_64_Right_64 VDD VSS gf180mcu_fd_sc_mcu9t5v0__endcap
XPHY_EDGE_ROW_65_Right_65 VDD VSS gf180mcu_fd_sc_mcu9t5v0__endcap
XPHY_EDGE_ROW_66_Right_66 VDD VSS gf180mcu_fd_sc_mcu9t5v0__endcap
XPHY_EDGE_ROW_67_Right_67 VDD VSS gf180mcu_fd_sc_mcu9t5v0__endcap
XPHY_EDGE_ROW_68_Right_68 VDD VSS gf180mcu_fd_sc_mcu9t5v0__endcap
XPHY_EDGE_ROW_69_Right_69 VDD VSS gf180mcu_fd_sc_mcu9t5v0__endcap
XPHY_EDGE_ROW_70_Right_70 VDD VSS gf180mcu_fd_sc_mcu9t5v0__endcap
XPHY_EDGE_ROW_71_Right_71 VDD VSS gf180mcu_fd_sc_mcu9t5v0__endcap
XPHY_EDGE_ROW_72_Right_72 VDD VSS gf180mcu_fd_sc_mcu9t5v0__endcap
XPHY_EDGE_ROW_73_Right_73 VDD VSS gf180mcu_fd_sc_mcu9t5v0__endcap
XPHY_EDGE_ROW_74_Right_74 VDD VSS gf180mcu_fd_sc_mcu9t5v0__endcap
XPHY_EDGE_ROW_75_Right_75 VDD VSS gf180mcu_fd_sc_mcu9t5v0__endcap
XPHY_EDGE_ROW_76_Right_76 VDD VSS gf180mcu_fd_sc_mcu9t5v0__endcap
XPHY_EDGE_ROW_77_Right_77 VDD VSS gf180mcu_fd_sc_mcu9t5v0__endcap
XPHY_EDGE_ROW_78_Right_78 VDD VSS gf180mcu_fd_sc_mcu9t5v0__endcap
XPHY_EDGE_ROW_79_Right_79 VDD VSS gf180mcu_fd_sc_mcu9t5v0__endcap
XPHY_EDGE_ROW_80_Right_80 VDD VSS gf180mcu_fd_sc_mcu9t5v0__endcap
XPHY_EDGE_ROW_81_Right_81 VDD VSS gf180mcu_fd_sc_mcu9t5v0__endcap
XPHY_EDGE_ROW_82_Right_82 VDD VSS gf180mcu_fd_sc_mcu9t5v0__endcap
XPHY_EDGE_ROW_83_Right_83 VDD VSS gf180mcu_fd_sc_mcu9t5v0__endcap
XPHY_EDGE_ROW_84_Right_84 VDD VSS gf180mcu_fd_sc_mcu9t5v0__endcap
XPHY_EDGE_ROW_85_Right_85 VDD VSS gf180mcu_fd_sc_mcu9t5v0__endcap
XPHY_EDGE_ROW_86_Right_86 VDD VSS gf180mcu_fd_sc_mcu9t5v0__endcap
XPHY_EDGE_ROW_87_Right_87 VDD VSS gf180mcu_fd_sc_mcu9t5v0__endcap
XPHY_EDGE_ROW_88_Right_88 VDD VSS gf180mcu_fd_sc_mcu9t5v0__endcap
XPHY_EDGE_ROW_89_Right_89 VDD VSS gf180mcu_fd_sc_mcu9t5v0__endcap
XPHY_EDGE_ROW_90_Right_90 VDD VSS gf180mcu_fd_sc_mcu9t5v0__endcap
XPHY_EDGE_ROW_91_Right_91 VDD VSS gf180mcu_fd_sc_mcu9t5v0__endcap
XPHY_EDGE_ROW_92_Right_92 VDD VSS gf180mcu_fd_sc_mcu9t5v0__endcap
XPHY_EDGE_ROW_93_Right_93 VDD VSS gf180mcu_fd_sc_mcu9t5v0__endcap
XPHY_EDGE_ROW_94_Right_94 VDD VSS gf180mcu_fd_sc_mcu9t5v0__endcap
XPHY_EDGE_ROW_95_Right_95 VDD VSS gf180mcu_fd_sc_mcu9t5v0__endcap
XPHY_EDGE_ROW_96_Right_96 VDD VSS gf180mcu_fd_sc_mcu9t5v0__endcap
XPHY_EDGE_ROW_97_Right_97 VDD VSS gf180mcu_fd_sc_mcu9t5v0__endcap
XPHY_EDGE_ROW_98_Right_98 VDD VSS gf180mcu_fd_sc_mcu9t5v0__endcap
XPHY_EDGE_ROW_99_Right_99 VDD VSS gf180mcu_fd_sc_mcu9t5v0__endcap
XPHY_EDGE_ROW_100_Right_100 VDD VSS gf180mcu_fd_sc_mcu9t5v0__endcap
XPHY_EDGE_ROW_101_Right_101 VDD VSS gf180mcu_fd_sc_mcu9t5v0__endcap
XPHY_EDGE_ROW_102_Right_102 VDD VSS gf180mcu_fd_sc_mcu9t5v0__endcap
XPHY_EDGE_ROW_103_Right_103 VDD VSS gf180mcu_fd_sc_mcu9t5v0__endcap
XPHY_EDGE_ROW_104_Right_104 VDD VSS gf180mcu_fd_sc_mcu9t5v0__endcap
XPHY_EDGE_ROW_105_Right_105 VDD VSS gf180mcu_fd_sc_mcu9t5v0__endcap
XPHY_EDGE_ROW_106_Right_106 VDD VSS gf180mcu_fd_sc_mcu9t5v0__endcap
XPHY_EDGE_ROW_107_Right_107 VDD VSS gf180mcu_fd_sc_mcu9t5v0__endcap
XPHY_EDGE_ROW_108_Right_108 VDD VSS gf180mcu_fd_sc_mcu9t5v0__endcap
XPHY_EDGE_ROW_109_Right_109 VDD VSS gf180mcu_fd_sc_mcu9t5v0__endcap
XPHY_EDGE_ROW_110_Right_110 VDD VSS gf180mcu_fd_sc_mcu9t5v0__endcap
XPHY_EDGE_ROW_111_Right_111 VDD VSS gf180mcu_fd_sc_mcu9t5v0__endcap
XPHY_EDGE_ROW_112_Right_112 VDD VSS gf180mcu_fd_sc_mcu9t5v0__endcap
XPHY_EDGE_ROW_113_Right_113 VDD VSS gf180mcu_fd_sc_mcu9t5v0__endcap
XPHY_EDGE_ROW_114_Right_114 VDD VSS gf180mcu_fd_sc_mcu9t5v0__endcap
XPHY_EDGE_ROW_115_Right_115 VDD VSS gf180mcu_fd_sc_mcu9t5v0__endcap
XPHY_EDGE_ROW_116_Right_116 VDD VSS gf180mcu_fd_sc_mcu9t5v0__endcap
XPHY_EDGE_ROW_117_Right_117 VDD VSS gf180mcu_fd_sc_mcu9t5v0__endcap
XPHY_EDGE_ROW_118_Right_118 VDD VSS gf180mcu_fd_sc_mcu9t5v0__endcap
XPHY_EDGE_ROW_119_Right_119 VDD VSS gf180mcu_fd_sc_mcu9t5v0__endcap
XPHY_EDGE_ROW_120_Right_120 VDD VSS gf180mcu_fd_sc_mcu9t5v0__endcap
XPHY_EDGE_ROW_121_Right_121 VDD VSS gf180mcu_fd_sc_mcu9t5v0__endcap
XPHY_EDGE_ROW_122_Right_122 VDD VSS gf180mcu_fd_sc_mcu9t5v0__endcap
XPHY_EDGE_ROW_123_Right_123 VDD VSS gf180mcu_fd_sc_mcu9t5v0__endcap
XPHY_EDGE_ROW_124_Right_124 VDD VSS gf180mcu_fd_sc_mcu9t5v0__endcap
XPHY_EDGE_ROW_125_Right_125 VDD VSS gf180mcu_fd_sc_mcu9t5v0__endcap
XPHY_EDGE_ROW_126_Right_126 VDD VSS gf180mcu_fd_sc_mcu9t5v0__endcap
XPHY_EDGE_ROW_127_Right_127 VDD VSS gf180mcu_fd_sc_mcu9t5v0__endcap
XPHY_EDGE_ROW_128_Right_128 VDD VSS gf180mcu_fd_sc_mcu9t5v0__endcap
XPHY_EDGE_ROW_129_Right_129 VDD VSS gf180mcu_fd_sc_mcu9t5v0__endcap
XPHY_EDGE_ROW_130_Right_130 VDD VSS gf180mcu_fd_sc_mcu9t5v0__endcap
XPHY_EDGE_ROW_131_Right_131 VDD VSS gf180mcu_fd_sc_mcu9t5v0__endcap
XPHY_EDGE_ROW_132_Right_132 VDD VSS gf180mcu_fd_sc_mcu9t5v0__endcap
XPHY_EDGE_ROW_133_Right_133 VDD VSS gf180mcu_fd_sc_mcu9t5v0__endcap
XPHY_EDGE_ROW_134_Right_134 VDD VSS gf180mcu_fd_sc_mcu9t5v0__endcap
XPHY_EDGE_ROW_135_Right_135 VDD VSS gf180mcu_fd_sc_mcu9t5v0__endcap
XPHY_EDGE_ROW_136_Right_136 VDD VSS gf180mcu_fd_sc_mcu9t5v0__endcap
XPHY_EDGE_ROW_137_Right_137 VDD VSS gf180mcu_fd_sc_mcu9t5v0__endcap
XPHY_EDGE_ROW_138_Right_138 VDD VSS gf180mcu_fd_sc_mcu9t5v0__endcap
XPHY_EDGE_ROW_139_Right_139 VDD VSS gf180mcu_fd_sc_mcu9t5v0__endcap
XPHY_EDGE_ROW_140_Right_140 VDD VSS gf180mcu_fd_sc_mcu9t5v0__endcap
XPHY_EDGE_ROW_141_Right_141 VDD VSS gf180mcu_fd_sc_mcu9t5v0__endcap
XPHY_EDGE_ROW_142_Right_142 VDD VSS gf180mcu_fd_sc_mcu9t5v0__endcap
XPHY_EDGE_ROW_143_Right_143 VDD VSS gf180mcu_fd_sc_mcu9t5v0__endcap
XPHY_EDGE_ROW_144_Right_144 VDD VSS gf180mcu_fd_sc_mcu9t5v0__endcap
XPHY_EDGE_ROW_145_Right_145 VDD VSS gf180mcu_fd_sc_mcu9t5v0__endcap
XPHY_EDGE_ROW_146_Right_146 VDD VSS gf180mcu_fd_sc_mcu9t5v0__endcap
XPHY_EDGE_ROW_147_Right_147 VDD VSS gf180mcu_fd_sc_mcu9t5v0__endcap
XPHY_EDGE_ROW_148_Right_148 VDD VSS gf180mcu_fd_sc_mcu9t5v0__endcap
XPHY_EDGE_ROW_149_Right_149 VDD VSS gf180mcu_fd_sc_mcu9t5v0__endcap
XPHY_EDGE_ROW_150_Right_150 VDD VSS gf180mcu_fd_sc_mcu9t5v0__endcap
XPHY_EDGE_ROW_151_Right_151 VDD VSS gf180mcu_fd_sc_mcu9t5v0__endcap
XPHY_EDGE_ROW_152_Right_152 VDD VSS gf180mcu_fd_sc_mcu9t5v0__endcap
XPHY_EDGE_ROW_153_Right_153 VDD VSS gf180mcu_fd_sc_mcu9t5v0__endcap
XPHY_EDGE_ROW_154_Right_154 VDD VSS gf180mcu_fd_sc_mcu9t5v0__endcap
XPHY_EDGE_ROW_155_Right_155 VDD VSS gf180mcu_fd_sc_mcu9t5v0__endcap
XPHY_EDGE_ROW_156_Right_156 VDD VSS gf180mcu_fd_sc_mcu9t5v0__endcap
XPHY_EDGE_ROW_157_Right_157 VDD VSS gf180mcu_fd_sc_mcu9t5v0__endcap
XPHY_EDGE_ROW_158_Right_158 VDD VSS gf180mcu_fd_sc_mcu9t5v0__endcap
XPHY_EDGE_ROW_159_Right_159 VDD VSS gf180mcu_fd_sc_mcu9t5v0__endcap
XPHY_EDGE_ROW_160_Right_160 VDD VSS gf180mcu_fd_sc_mcu9t5v0__endcap
XPHY_EDGE_ROW_161_Right_161 VDD VSS gf180mcu_fd_sc_mcu9t5v0__endcap
XPHY_EDGE_ROW_162_Right_162 VDD VSS gf180mcu_fd_sc_mcu9t5v0__endcap
XPHY_EDGE_ROW_163_Right_163 VDD VSS gf180mcu_fd_sc_mcu9t5v0__endcap
XPHY_EDGE_ROW_164_Right_164 VDD VSS gf180mcu_fd_sc_mcu9t5v0__endcap
XPHY_EDGE_ROW_165_Right_165 VDD VSS gf180mcu_fd_sc_mcu9t5v0__endcap
XPHY_EDGE_ROW_166_Right_166 VDD VSS gf180mcu_fd_sc_mcu9t5v0__endcap
XPHY_EDGE_ROW_167_Right_167 VDD VSS gf180mcu_fd_sc_mcu9t5v0__endcap
XPHY_EDGE_ROW_168_Right_168 VDD VSS gf180mcu_fd_sc_mcu9t5v0__endcap
XPHY_EDGE_ROW_169_Right_169 VDD VSS gf180mcu_fd_sc_mcu9t5v0__endcap
XPHY_EDGE_ROW_170_Right_170 VDD VSS gf180mcu_fd_sc_mcu9t5v0__endcap
XPHY_EDGE_ROW_171_Right_171 VDD VSS gf180mcu_fd_sc_mcu9t5v0__endcap
XPHY_EDGE_ROW_172_Right_172 VDD VSS gf180mcu_fd_sc_mcu9t5v0__endcap
XPHY_EDGE_ROW_173_Right_173 VDD VSS gf180mcu_fd_sc_mcu9t5v0__endcap
XPHY_EDGE_ROW_174_Right_174 VDD VSS gf180mcu_fd_sc_mcu9t5v0__endcap
XPHY_EDGE_ROW_175_Right_175 VDD VSS gf180mcu_fd_sc_mcu9t5v0__endcap
XPHY_EDGE_ROW_176_Right_176 VDD VSS gf180mcu_fd_sc_mcu9t5v0__endcap
XPHY_EDGE_ROW_177_Right_177 VDD VSS gf180mcu_fd_sc_mcu9t5v0__endcap
XPHY_EDGE_ROW_178_Right_178 VDD VSS gf180mcu_fd_sc_mcu9t5v0__endcap
XPHY_EDGE_ROW_179_Right_179 VDD VSS gf180mcu_fd_sc_mcu9t5v0__endcap
XPHY_EDGE_ROW_180_Right_180 VDD VSS gf180mcu_fd_sc_mcu9t5v0__endcap
XPHY_EDGE_ROW_181_Right_181 VDD VSS gf180mcu_fd_sc_mcu9t5v0__endcap
XPHY_EDGE_ROW_182_Right_182 VDD VSS gf180mcu_fd_sc_mcu9t5v0__endcap
XPHY_EDGE_ROW_183_Right_183 VDD VSS gf180mcu_fd_sc_mcu9t5v0__endcap
XPHY_EDGE_ROW_184_Right_184 VDD VSS gf180mcu_fd_sc_mcu9t5v0__endcap
XPHY_EDGE_ROW_185_Right_185 VDD VSS gf180mcu_fd_sc_mcu9t5v0__endcap
XPHY_EDGE_ROW_186_Right_186 VDD VSS gf180mcu_fd_sc_mcu9t5v0__endcap
XPHY_EDGE_ROW_187_Right_187 VDD VSS gf180mcu_fd_sc_mcu9t5v0__endcap
XPHY_EDGE_ROW_188_Right_188 VDD VSS gf180mcu_fd_sc_mcu9t5v0__endcap
XPHY_EDGE_ROW_189_Right_189 VDD VSS gf180mcu_fd_sc_mcu9t5v0__endcap
XPHY_EDGE_ROW_190_Right_190 VDD VSS gf180mcu_fd_sc_mcu9t5v0__endcap
XPHY_EDGE_ROW_191_Right_191 VDD VSS gf180mcu_fd_sc_mcu9t5v0__endcap
XPHY_EDGE_ROW_192_Right_192 VDD VSS gf180mcu_fd_sc_mcu9t5v0__endcap
XPHY_EDGE_ROW_193_Right_193 VDD VSS gf180mcu_fd_sc_mcu9t5v0__endcap
XPHY_EDGE_ROW_194_Right_194 VDD VSS gf180mcu_fd_sc_mcu9t5v0__endcap
XPHY_EDGE_ROW_0_Left_195 VDD VSS gf180mcu_fd_sc_mcu9t5v0__endcap
XPHY_EDGE_ROW_1_Left_196 VDD VSS gf180mcu_fd_sc_mcu9t5v0__endcap
XPHY_EDGE_ROW_2_Left_197 VDD VSS gf180mcu_fd_sc_mcu9t5v0__endcap
XPHY_EDGE_ROW_3_Left_198 VDD VSS gf180mcu_fd_sc_mcu9t5v0__endcap
XPHY_EDGE_ROW_4_Left_199 VDD VSS gf180mcu_fd_sc_mcu9t5v0__endcap
XPHY_EDGE_ROW_5_Left_200 VDD VSS gf180mcu_fd_sc_mcu9t5v0__endcap
XPHY_EDGE_ROW_6_Left_201 VDD VSS gf180mcu_fd_sc_mcu9t5v0__endcap
XPHY_EDGE_ROW_7_Left_202 VDD VSS gf180mcu_fd_sc_mcu9t5v0__endcap
XPHY_EDGE_ROW_8_Left_203 VDD VSS gf180mcu_fd_sc_mcu9t5v0__endcap
XPHY_EDGE_ROW_9_Left_204 VDD VSS gf180mcu_fd_sc_mcu9t5v0__endcap
XPHY_EDGE_ROW_10_Left_205 VDD VSS gf180mcu_fd_sc_mcu9t5v0__endcap
XPHY_EDGE_ROW_11_Left_206 VDD VSS gf180mcu_fd_sc_mcu9t5v0__endcap
XPHY_EDGE_ROW_12_Left_207 VDD VSS gf180mcu_fd_sc_mcu9t5v0__endcap
XPHY_EDGE_ROW_13_Left_208 VDD VSS gf180mcu_fd_sc_mcu9t5v0__endcap
XPHY_EDGE_ROW_14_Left_209 VDD VSS gf180mcu_fd_sc_mcu9t5v0__endcap
XPHY_EDGE_ROW_15_Left_210 VDD VSS gf180mcu_fd_sc_mcu9t5v0__endcap
XPHY_EDGE_ROW_16_Left_211 VDD VSS gf180mcu_fd_sc_mcu9t5v0__endcap
XPHY_EDGE_ROW_17_Left_212 VDD VSS gf180mcu_fd_sc_mcu9t5v0__endcap
XPHY_EDGE_ROW_18_Left_213 VDD VSS gf180mcu_fd_sc_mcu9t5v0__endcap
XPHY_EDGE_ROW_19_Left_214 VDD VSS gf180mcu_fd_sc_mcu9t5v0__endcap
XPHY_EDGE_ROW_20_Left_215 VDD VSS gf180mcu_fd_sc_mcu9t5v0__endcap
XPHY_EDGE_ROW_21_Left_216 VDD VSS gf180mcu_fd_sc_mcu9t5v0__endcap
XPHY_EDGE_ROW_22_Left_217 VDD VSS gf180mcu_fd_sc_mcu9t5v0__endcap
XPHY_EDGE_ROW_23_Left_218 VDD VSS gf180mcu_fd_sc_mcu9t5v0__endcap
XPHY_EDGE_ROW_24_Left_219 VDD VSS gf180mcu_fd_sc_mcu9t5v0__endcap
XPHY_EDGE_ROW_25_Left_220 VDD VSS gf180mcu_fd_sc_mcu9t5v0__endcap
XPHY_EDGE_ROW_26_Left_221 VDD VSS gf180mcu_fd_sc_mcu9t5v0__endcap
XPHY_EDGE_ROW_27_Left_222 VDD VSS gf180mcu_fd_sc_mcu9t5v0__endcap
XPHY_EDGE_ROW_28_Left_223 VDD VSS gf180mcu_fd_sc_mcu9t5v0__endcap
XPHY_EDGE_ROW_29_Left_224 VDD VSS gf180mcu_fd_sc_mcu9t5v0__endcap
XPHY_EDGE_ROW_30_Left_225 VDD VSS gf180mcu_fd_sc_mcu9t5v0__endcap
XPHY_EDGE_ROW_31_Left_226 VDD VSS gf180mcu_fd_sc_mcu9t5v0__endcap
XPHY_EDGE_ROW_32_Left_227 VDD VSS gf180mcu_fd_sc_mcu9t5v0__endcap
XPHY_EDGE_ROW_33_Left_228 VDD VSS gf180mcu_fd_sc_mcu9t5v0__endcap
XPHY_EDGE_ROW_34_Left_229 VDD VSS gf180mcu_fd_sc_mcu9t5v0__endcap
XPHY_EDGE_ROW_35_Left_230 VDD VSS gf180mcu_fd_sc_mcu9t5v0__endcap
XPHY_EDGE_ROW_36_Left_231 VDD VSS gf180mcu_fd_sc_mcu9t5v0__endcap
XPHY_EDGE_ROW_37_Left_232 VDD VSS gf180mcu_fd_sc_mcu9t5v0__endcap
XPHY_EDGE_ROW_38_Left_233 VDD VSS gf180mcu_fd_sc_mcu9t5v0__endcap
XPHY_EDGE_ROW_39_Left_234 VDD VSS gf180mcu_fd_sc_mcu9t5v0__endcap
XPHY_EDGE_ROW_40_Left_235 VDD VSS gf180mcu_fd_sc_mcu9t5v0__endcap
XPHY_EDGE_ROW_41_Left_236 VDD VSS gf180mcu_fd_sc_mcu9t5v0__endcap
XPHY_EDGE_ROW_42_Left_237 VDD VSS gf180mcu_fd_sc_mcu9t5v0__endcap
XPHY_EDGE_ROW_43_Left_238 VDD VSS gf180mcu_fd_sc_mcu9t5v0__endcap
XPHY_EDGE_ROW_44_Left_239 VDD VSS gf180mcu_fd_sc_mcu9t5v0__endcap
XPHY_EDGE_ROW_45_Left_240 VDD VSS gf180mcu_fd_sc_mcu9t5v0__endcap
XPHY_EDGE_ROW_46_Left_241 VDD VSS gf180mcu_fd_sc_mcu9t5v0__endcap
XPHY_EDGE_ROW_47_Left_242 VDD VSS gf180mcu_fd_sc_mcu9t5v0__endcap
XPHY_EDGE_ROW_48_Left_243 VDD VSS gf180mcu_fd_sc_mcu9t5v0__endcap
XPHY_EDGE_ROW_49_Left_244 VDD VSS gf180mcu_fd_sc_mcu9t5v0__endcap
XPHY_EDGE_ROW_50_Left_245 VDD VSS gf180mcu_fd_sc_mcu9t5v0__endcap
XPHY_EDGE_ROW_51_Left_246 VDD VSS gf180mcu_fd_sc_mcu9t5v0__endcap
XPHY_EDGE_ROW_52_Left_247 VDD VSS gf180mcu_fd_sc_mcu9t5v0__endcap
XPHY_EDGE_ROW_53_Left_248 VDD VSS gf180mcu_fd_sc_mcu9t5v0__endcap
XPHY_EDGE_ROW_54_Left_249 VDD VSS gf180mcu_fd_sc_mcu9t5v0__endcap
XPHY_EDGE_ROW_55_Left_250 VDD VSS gf180mcu_fd_sc_mcu9t5v0__endcap
XPHY_EDGE_ROW_56_Left_251 VDD VSS gf180mcu_fd_sc_mcu9t5v0__endcap
XPHY_EDGE_ROW_57_Left_252 VDD VSS gf180mcu_fd_sc_mcu9t5v0__endcap
XPHY_EDGE_ROW_58_Left_253 VDD VSS gf180mcu_fd_sc_mcu9t5v0__endcap
XPHY_EDGE_ROW_59_Left_254 VDD VSS gf180mcu_fd_sc_mcu9t5v0__endcap
XPHY_EDGE_ROW_60_Left_255 VDD VSS gf180mcu_fd_sc_mcu9t5v0__endcap
XPHY_EDGE_ROW_61_Left_256 VDD VSS gf180mcu_fd_sc_mcu9t5v0__endcap
XPHY_EDGE_ROW_62_Left_257 VDD VSS gf180mcu_fd_sc_mcu9t5v0__endcap
XPHY_EDGE_ROW_63_Left_258 VDD VSS gf180mcu_fd_sc_mcu9t5v0__endcap
XPHY_EDGE_ROW_64_Left_259 VDD VSS gf180mcu_fd_sc_mcu9t5v0__endcap
XPHY_EDGE_ROW_65_Left_260 VDD VSS gf180mcu_fd_sc_mcu9t5v0__endcap
XPHY_EDGE_ROW_66_Left_261 VDD VSS gf180mcu_fd_sc_mcu9t5v0__endcap
XPHY_EDGE_ROW_67_Left_262 VDD VSS gf180mcu_fd_sc_mcu9t5v0__endcap
XPHY_EDGE_ROW_68_Left_263 VDD VSS gf180mcu_fd_sc_mcu9t5v0__endcap
XPHY_EDGE_ROW_69_Left_264 VDD VSS gf180mcu_fd_sc_mcu9t5v0__endcap
XPHY_EDGE_ROW_70_Left_265 VDD VSS gf180mcu_fd_sc_mcu9t5v0__endcap
XPHY_EDGE_ROW_71_Left_266 VDD VSS gf180mcu_fd_sc_mcu9t5v0__endcap
XPHY_EDGE_ROW_72_Left_267 VDD VSS gf180mcu_fd_sc_mcu9t5v0__endcap
XPHY_EDGE_ROW_73_Left_268 VDD VSS gf180mcu_fd_sc_mcu9t5v0__endcap
XPHY_EDGE_ROW_74_Left_269 VDD VSS gf180mcu_fd_sc_mcu9t5v0__endcap
XPHY_EDGE_ROW_75_Left_270 VDD VSS gf180mcu_fd_sc_mcu9t5v0__endcap
XPHY_EDGE_ROW_76_Left_271 VDD VSS gf180mcu_fd_sc_mcu9t5v0__endcap
XPHY_EDGE_ROW_77_Left_272 VDD VSS gf180mcu_fd_sc_mcu9t5v0__endcap
XPHY_EDGE_ROW_78_Left_273 VDD VSS gf180mcu_fd_sc_mcu9t5v0__endcap
XPHY_EDGE_ROW_79_Left_274 VDD VSS gf180mcu_fd_sc_mcu9t5v0__endcap
XPHY_EDGE_ROW_80_Left_275 VDD VSS gf180mcu_fd_sc_mcu9t5v0__endcap
XPHY_EDGE_ROW_81_Left_276 VDD VSS gf180mcu_fd_sc_mcu9t5v0__endcap
XPHY_EDGE_ROW_82_Left_277 VDD VSS gf180mcu_fd_sc_mcu9t5v0__endcap
XPHY_EDGE_ROW_83_Left_278 VDD VSS gf180mcu_fd_sc_mcu9t5v0__endcap
XPHY_EDGE_ROW_84_Left_279 VDD VSS gf180mcu_fd_sc_mcu9t5v0__endcap
XPHY_EDGE_ROW_85_Left_280 VDD VSS gf180mcu_fd_sc_mcu9t5v0__endcap
XPHY_EDGE_ROW_86_Left_281 VDD VSS gf180mcu_fd_sc_mcu9t5v0__endcap
XPHY_EDGE_ROW_87_Left_282 VDD VSS gf180mcu_fd_sc_mcu9t5v0__endcap
XPHY_EDGE_ROW_88_Left_283 VDD VSS gf180mcu_fd_sc_mcu9t5v0__endcap
XPHY_EDGE_ROW_89_Left_284 VDD VSS gf180mcu_fd_sc_mcu9t5v0__endcap
XPHY_EDGE_ROW_90_Left_285 VDD VSS gf180mcu_fd_sc_mcu9t5v0__endcap
XPHY_EDGE_ROW_91_Left_286 VDD VSS gf180mcu_fd_sc_mcu9t5v0__endcap
XPHY_EDGE_ROW_92_Left_287 VDD VSS gf180mcu_fd_sc_mcu9t5v0__endcap
XPHY_EDGE_ROW_93_Left_288 VDD VSS gf180mcu_fd_sc_mcu9t5v0__endcap
XPHY_EDGE_ROW_94_Left_289 VDD VSS gf180mcu_fd_sc_mcu9t5v0__endcap
XPHY_EDGE_ROW_95_Left_290 VDD VSS gf180mcu_fd_sc_mcu9t5v0__endcap
XPHY_EDGE_ROW_96_Left_291 VDD VSS gf180mcu_fd_sc_mcu9t5v0__endcap
XPHY_EDGE_ROW_97_Left_292 VDD VSS gf180mcu_fd_sc_mcu9t5v0__endcap
XPHY_EDGE_ROW_98_Left_293 VDD VSS gf180mcu_fd_sc_mcu9t5v0__endcap
XPHY_EDGE_ROW_99_Left_294 VDD VSS gf180mcu_fd_sc_mcu9t5v0__endcap
XPHY_EDGE_ROW_100_Left_295 VDD VSS gf180mcu_fd_sc_mcu9t5v0__endcap
XPHY_EDGE_ROW_101_Left_296 VDD VSS gf180mcu_fd_sc_mcu9t5v0__endcap
XPHY_EDGE_ROW_102_Left_297 VDD VSS gf180mcu_fd_sc_mcu9t5v0__endcap
XPHY_EDGE_ROW_103_Left_298 VDD VSS gf180mcu_fd_sc_mcu9t5v0__endcap
XPHY_EDGE_ROW_104_Left_299 VDD VSS gf180mcu_fd_sc_mcu9t5v0__endcap
XPHY_EDGE_ROW_105_Left_300 VDD VSS gf180mcu_fd_sc_mcu9t5v0__endcap
XPHY_EDGE_ROW_106_Left_301 VDD VSS gf180mcu_fd_sc_mcu9t5v0__endcap