
* cell digital_thermometer_controller
* pin force_update
* pin update
* pin units_select
* pin temperature[4]
* pin temperature[6]
* pin temperature[2]
* pin valid
* pin temperature[0]
* pin temperature[5]
* pin adc_valid
* pin temperature[1]
* pin temperature[3]
* pin clk
* pin status[1]
* pin temperature[7]
* pin adc_value[2]
* pin adc_value[3]
* pin adc_value[5]
* pin adc_value[0]
* pin adc_value[7]
* pin adc_value[6]
* pin adc_value[9]
* pin rst_n
* pin status[0]
* pin alert
* pin adc_value[1]
* pin status[2]
* pin adc_value[4]
* pin adc_value[8]
* pin PWELL,gf180mcu_gnd
* pin NWELL
.SUBCKT digital_thermometer_controller 1 2 3 4 5 6 11 25 26 40 45 46 49 71 72
+ 146 147 148 149 150 151 152 153 154 155 156 157 159 160 161 162
* net 1 force_update
* net 2 update
* net 3 units_select
* net 4 temperature[4]
* net 5 temperature[6]
* net 6 temperature[2]
* net 11 valid
* net 25 temperature[0]
* net 26 temperature[5]
* net 40 adc_valid
* net 45 temperature[1]
* net 46 temperature[3]
* net 49 clk
* net 71 status[1]
* net 72 temperature[7]
* net 146 adc_value[2]
* net 147 adc_value[3]
* net 148 adc_value[5]
* net 149 adc_value[0]
* net 150 adc_value[7]
* net 151 adc_value[6]
* net 152 adc_value[9]
* net 153 rst_n
* net 154 status[0]
* net 155 alert
* net 156 adc_value[1]
* net 157 status[2]
* net 159 adc_value[4]
* net 160 adc_value[8]
* net 161 PWELL,gf180mcu_gnd
* net 162 NWELL
* cell instance $2 r0 *1 488.32,5.04
X$2 161 162 1 13 gf180mcu_fd_sc_mcu9t5v0__clkbuf_4
* cell instance $6 r0 *1 500.64,5.04
X$6 7 162 161 2 gf180mcu_fd_sc_mcu9t5v0__dlyb_2
* cell instance $11 m0 *1 525.84,15.12
X$11 161 162 3 17 gf180mcu_fd_sc_mcu9t5v0__clkbuf_3
* cell instance $14 r0 *1 524.72,5.04
X$14 8 162 161 4 gf180mcu_fd_sc_mcu9t5v0__dlyb_2
* cell instance $19 m0 *1 537.04,15.12
X$19 9 162 161 5 gf180mcu_fd_sc_mcu9t5v0__dlyb_2
* cell instance $23 m0 *1 545.44,15.12
X$23 10 162 161 6 gf180mcu_fd_sc_mcu9t5v0__dlyb_2
* cell instance $26 m0 *1 487.2,478.8
X$26 161 16 7 15 14 162 gf180mcu_fd_sc_mcu9t5v0__dffrnq_2
* cell instance $36 m0 *1 496.72,529.2
X$36 161 162 55 8 33 48 gf180mcu_fd_sc_mcu9t5v0__mux2_2
* cell instance $38 m0 *1 483.84,519.12
X$38 161 16 8 15 41 162 gf180mcu_fd_sc_mcu9t5v0__dffrnq_2
* cell instance $47 m0 *1 518,488.88
X$47 161 162 21 9 33 23 gf180mcu_fd_sc_mcu9t5v0__mux2_2
* cell instance $49 r0 *1 520.8,478.8
X$49 161 16 9 15 22 162 gf180mcu_fd_sc_mcu9t5v0__dffrnq_2
* cell instance $54 m0 *1 520.8,498.96
X$54 161 162 35 10 33 23 gf180mcu_fd_sc_mcu9t5v0__mux2_2
* cell instance $56 r0 *1 515.76,488.88
X$56 161 16 10 15 27 162 gf180mcu_fd_sc_mcu9t5v0__dffrnq_2
* cell instance $66 m0 *1 9.52,478.8
X$66 12 162 161 11 gf180mcu_fd_sc_mcu9t5v0__dlyb_2
* cell instance $72 m0 *1 455.28,640.08
X$72 161 16 12 82 85 162 gf180mcu_fd_sc_mcu9t5v0__dffrnq_2
* cell instance $75 m0 *1 474.32,640.08
X$75 161 162 12 83 gf180mcu_fd_sc_mcu9t5v0__clkinv_2
* cell instance $80 r0 *1 485.52,488.88
X$80 161 13 29 162 14 gf180mcu_fd_sc_mcu9t5v0__or2_2
* cell instance $82 r0 *1 484.4,478.8
X$82 162 13 19 161 18 gf180mcu_fd_sc_mcu9t5v0__and2_2
* cell instance $84 m0 *1 500.64,488.88
X$84 161 162 20 13 33 gf180mcu_fd_sc_mcu9t5v0__nor2_4
* cell instance $92 m0 *1 485.52,559.44
X$92 161 81 15 162 gf180mcu_fd_sc_mcu9t5v0__clkbuf_20
* cell instance $97 m0 *1 481.6,488.88
X$97 161 16 20 15 28 162 gf180mcu_fd_sc_mcu9t5v0__dffrnq_2
* cell instance $99 m0 *1 509.04,549.36
X$99 161 16 36 15 62 162 gf180mcu_fd_sc_mcu9t5v0__dffrnq_2
* cell instance $102 r0 *1 506.24,549.36
X$102 161 16 51 15 75 162 gf180mcu_fd_sc_mcu9t5v0__dffrnq_2
* cell instance $104 r0 *1 480.48,498.96
X$104 161 16 32 15 38 162 gf180mcu_fd_sc_mcu9t5v0__dffrnq_2
* cell instance $106 r0 *1 472.64,549.36
X$106 161 16 31 15 65 162 gf180mcu_fd_sc_mcu9t5v0__dffrnq_2
* cell instance $109 m0 *1 493.36,579.6
X$109 161 16 48 15 77 162 gf180mcu_fd_sc_mcu9t5v0__dffrnq_2
* cell instance $111 r0 *1 505.68,519.12
X$111 161 16 43 15 47 162 gf180mcu_fd_sc_mcu9t5v0__dffrnq_2
* cell instance $115 r0 *1 480.48,539.28
X$115 161 16 61 15 59 162 gf180mcu_fd_sc_mcu9t5v0__dffrnq_2
* cell instance $117 m0 *1 519.12,519.12
X$117 161 16 44 15 53 162 gf180mcu_fd_sc_mcu9t5v0__dffrnq_2
* cell instance $119 r0 *1 480.48,569.52
X$119 161 16 50 15 78 162 gf180mcu_fd_sc_mcu9t5v0__dffrnq_2
* cell instance $133 r0 *1 431.76,670.32
X$133 161 16 93 82 92 162 gf180mcu_fd_sc_mcu9t5v0__dffrnq_2
* cell instance $135 r0 *1 457.52,680.4
X$135 161 16 90 82 97 162 gf180mcu_fd_sc_mcu9t5v0__dffrnq_2
* cell instance $140 m0 *1 455.84,720.72
X$140 161 16 120 82 117 162 gf180mcu_fd_sc_mcu9t5v0__dffrnq_2
* cell instance $142 r0 *1 469.28,670.32
X$142 161 16 89 82 100 162 gf180mcu_fd_sc_mcu9t5v0__dffrnq_2
* cell instance $144 m0 *1 501.76,710.64
X$144 161 16 23 82 109 162 gf180mcu_fd_sc_mcu9t5v0__dffrnq_2
* cell instance $148 m0 *1 473.76,700.56
X$148 161 16 106 82 111 162 gf180mcu_fd_sc_mcu9t5v0__dffrnq_2
* cell instance $152 r0 *1 438.48,690.48
X$152 161 16 103 82 101 162 gf180mcu_fd_sc_mcu9t5v0__dffrnq_2
* cell instance $159 m0 *1 434.56,730.8
X$159 161 122 16 162 gf180mcu_fd_sc_mcu9t5v0__clkbuf_12
* cell instance $161 m0 *1 429.52,720.72
X$161 161 16 114 82 112 162 gf180mcu_fd_sc_mcu9t5v0__dffrnq_2
* cell instance $167 m0 *1 441.28,660.24
X$167 161 16 87 82 91 162 gf180mcu_fd_sc_mcu9t5v0__dffrnq_2
* cell instance $198 r0 *1 523.6,468.72
X$198 161 162 17 19 gf180mcu_fd_sc_mcu9t5v0__inv_3
* cell instance $204 r0 *1 489.44,478.8
X$204 161 20 18 162 28 gf180mcu_fd_sc_mcu9t5v0__or2_2
* cell instance $207 r0 *1 516.88,498.96
X$207 161 162 39 35 19 36 gf180mcu_fd_sc_mcu9t5v0__mux2_2
* cell instance $209 m0 *1 505.12,529.2
X$209 161 162 57 42 19 50 gf180mcu_fd_sc_mcu9t5v0__mux2_2
* cell instance $212 m0 *1 484.96,509.04
X$212 161 162 37 30 19 31 gf180mcu_fd_sc_mcu9t5v0__mux2_2
* cell instance $215 m0 *1 520.24,529.2
X$215 161 162 54 52 19 51 gf180mcu_fd_sc_mcu9t5v0__mux2_2
* cell instance $219 m0 *1 514.64,498.96
X$219 19 162 34 21 161 22 gf180mcu_fd_sc_mcu9t5v0__and3_2
* cell instance $222 m0 *1 488.32,529.2
X$222 161 162 56 55 19 61 gf180mcu_fd_sc_mcu9t5v0__mux2_2
* cell instance $247 r0 *1 503.44,700.56
X$247 161 162 23 108 gf180mcu_fd_sc_mcu9t5v0__clkinv_2
* cell instance $253 r0 *1 982.24,488.88
X$253 24 162 161 25 gf180mcu_fd_sc_mcu9t5v0__dlyb_2
* cell instance $255 m0 *1 976.08,498.96
X$255 32 162 161 24 gf180mcu_fd_sc_mcu9t5v0__dlyb_2
* cell instance $259 r0 *1 982.24,498.96
X$259 32 162 161 26 gf180mcu_fd_sc_mcu9t5v0__dlyb_2
* cell instance $262 r0 *1 511.84,498.96
X$262 162 34 39 161 27 gf180mcu_fd_sc_mcu9t5v0__and2_2
* cell instance $272 r0 *1 23.52,509.04
X$272 161 40 29 162 gf180mcu_fd_sc_mcu9t5v0__clkbuf_8
* cell instance $275 m0 *1 435.12,680.4
X$275 161 162 92 98 29 93 gf180mcu_fd_sc_mcu9t5v0__mux2_2
* cell instance $277 r0 *1 484.96,720.72
X$277 162 29 161 127 110 126 gf180mcu_fd_sc_mcu9t5v0__oai21_2
* cell instance $280 r0 *1 463.68,660.24
X$280 161 162 29 99 88 gf180mcu_fd_sc_mcu9t5v0__nand2_2
* cell instance $282 r0 *1 454.16,720.72
X$282 161 162 29 119 gf180mcu_fd_sc_mcu9t5v0__clkinv_3
* cell instance $285 m0 *1 481.6,730.8
X$285 161 29 124 73 125 162 gf180mcu_fd_sc_mcu9t5v0__nand3_4
* cell instance $287 r0 *1 452.48,670.32
X$287 89 29 93 87 161 162 96 gf180mcu_fd_sc_mcu9t5v0__and4_2
* cell instance $289 r0 *1 445.2,660.24
X$289 29 161 87 162 91 gf180mcu_fd_sc_mcu9t5v0__xor2_2
* cell instance $300 r0 *1 505.12,498.96
X$300 162 32 33 161 30 gf180mcu_fd_sc_mcu9t5v0__and2_2
* cell instance $307 m0 *1 479.36,559.44
X$307 31 162 66 73 161 58 gf180mcu_fd_sc_mcu9t5v0__and3_2
* cell instance $323 m0 *1 504,519.12
X$323 161 162 42 43 33 48 gf180mcu_fd_sc_mcu9t5v0__mux2_2
* cell instance $328 r0 *1 525.28,519.12
X$328 162 44 33 161 52 gf180mcu_fd_sc_mcu9t5v0__and2_2
* cell instance $337 r0 *1 457.52,690.48
X$337 161 34 103 105 90 89 162 gf180mcu_fd_sc_mcu9t5v0__or4_4
* cell instance $340 r0 *1 462.56,710.64
X$340 161 118 119 162 120 34 gf180mcu_fd_sc_mcu9t5v0__nand3_2
* cell instance $342 m0 *1 479.92,509.04
X$342 162 34 37 161 38 gf180mcu_fd_sc_mcu9t5v0__and2_2
* cell instance $344 r0 *1 459.76,640.08
X$344 162 34 86 161 85 gf180mcu_fd_sc_mcu9t5v0__and2_2
* cell instance $346 r0 *1 500.64,519.12
X$346 162 34 57 161 47 gf180mcu_fd_sc_mcu9t5v0__and2_2
* cell instance $351 r0 *1 484.4,519.12
X$351 162 34 56 161 41 gf180mcu_fd_sc_mcu9t5v0__and2_2
* cell instance $354 m0 *1 515.2,529.2
X$354 162 34 54 161 53 gf180mcu_fd_sc_mcu9t5v0__and2_2
* cell instance $370 r0 *1 514.08,539.28
X$370 161 162 36 63 gf180mcu_fd_sc_mcu9t5v0__clkinv_2
* cell instance $389 m0 *1 982.24,519.12
X$389 43 162 161 45 gf180mcu_fd_sc_mcu9t5v0__dlyb_2
* cell instance $396 m0 *1 969.36,519.12
X$396 44 162 161 46 gf180mcu_fd_sc_mcu9t5v0__dlyb_2
* cell instance $414 r0 *1 501.2,569.52
X$414 161 162 48 76 gf180mcu_fd_sc_mcu9t5v0__clkinv_2
* cell instance $421 m0 *1 474.32,599.76
X$421 161 49 81 162 gf180mcu_fd_sc_mcu9t5v0__clkbuf_20
* cell instance $429 m0 *1 490.56,569.52
X$429 161 162 50 67 66 gf180mcu_fd_sc_mcu9t5v0__nand2_2
* cell instance $435 r0 *1 525.28,549.36
X$435 161 162 51 74 gf180mcu_fd_sc_mcu9t5v0__clkinv_2
* cell instance $461 m0 *1 480.48,549.36
X$461 161 58 64 162 65 gf180mcu_fd_sc_mcu9t5v0__or2_2
* cell instance $466 m0 *1 486.64,549.36
X$466 161 64 162 59 68 60 gf180mcu_fd_sc_mcu9t5v0__aoi21_2
* cell instance $472 m0 *1 491.68,539.28
X$472 161 162 61 60 gf180mcu_fd_sc_mcu9t5v0__clkinv_2
* cell instance $481 r0 *1 512.4,559.44
X$481 161 162 63 62 68 gf180mcu_fd_sc_mcu9t5v0__nand2_2
* cell instance $485 r0 *1 477.12,690.48
X$485 161 106 64 162 111 gf180mcu_fd_sc_mcu9t5v0__or2_2
* cell instance $490 r0 *1 482.72,700.56
X$490 161 162 64 107 66 gf180mcu_fd_sc_mcu9t5v0__nor2_2
* cell instance $497 m0 *1 468.72,650.16
X$497 162 83 161 84 86 66 gf180mcu_fd_sc_mcu9t5v0__oai21_2
* cell instance $500 m0 *1 478.24,952.56
X$500 161 135 134 132 162 66 gf180mcu_fd_sc_mcu9t5v0__or3_4
* cell instance $502 m0 *1 491.68,589.68
X$502 161 162 80 79 66 gf180mcu_fd_sc_mcu9t5v0__nor2_2
* cell instance $507 r0 *1 487.76,559.44
X$507 162 66 73 161 68 gf180mcu_fd_sc_mcu9t5v0__and2_2
* cell instance $516 m0 *1 486.64,579.6
X$516 161 162 73 78 67 gf180mcu_fd_sc_mcu9t5v0__nand2_2
* cell instance $522 r0 *1 505.12,559.44
X$522 161 80 162 75 68 74 gf180mcu_fd_sc_mcu9t5v0__aoi21_2
* cell instance $527 m0 *1 978.88,569.52
X$527 161 162 69 gf180mcu_fd_sc_mcu9t5v0__tiel
* cell instance $529 r0 *1 981.12,559.44
X$529 69 71 162 161 gf180mcu_fd_sc_mcu9t5v0__dlya_4
* cell instance $531 m0 *1 981.12,569.52
X$531 70 72 162 161 gf180mcu_fd_sc_mcu9t5v0__dlya_4
* cell instance $533 r0 *1 981.12,569.52
X$533 161 162 70 gf180mcu_fd_sc_mcu9t5v0__tiel
* cell instance $539 r0 *1 491.68,579.6
X$539 162 73 161 80 77 76 gf180mcu_fd_sc_mcu9t5v0__oai21_2
* cell instance $561 r0 *1 493.92,982.8
X$561 160 162 161 79 gf180mcu_fd_sc_mcu9t5v0__buf_3
* cell instance $564 m0 *1 483.28,720.72
X$564 161 162 79 107 gf180mcu_fd_sc_mcu9t5v0__clkinv_3
* cell instance $567 m0 *1 474.88,962.64
X$567 128 129 130 79 162 161 133 gf180mcu_fd_sc_mcu9t5v0__or4_2
* cell instance $582 r0 *1 464.8,640.08
X$582 161 81 82 162 gf180mcu_fd_sc_mcu9t5v0__clkbuf_20
* cell instance $588 m0 *1 464.24,650.16
X$588 161 162 82 163 gf180mcu_fd_sc_mcu9t5v0__clkinv_3
* cell instance $600 r0 *1 425.6,720.72
X$600 161 123 82 121 122 162 gf180mcu_fd_sc_mcu9t5v0__dffsnq_2
* cell instance $625 m0 *1 469.28,670.32
X$625 84 162 161 90 89 88 gf180mcu_fd_sc_mcu9t5v0__nor3_2
* cell instance $637 m0 *1 448,680.4
X$637 161 162 87 95 gf180mcu_fd_sc_mcu9t5v0__clkinv_2
* cell instance $639 m0 *1 453.04,670.32
X$639 88 161 162 87 93 164 gf180mcu_fd_sc_mcu9t5v0__addh_1
* cell instance $656 m0 *1 452.48,700.56
X$656 161 104 90 105 103 89 162 gf180mcu_fd_sc_mcu9t5v0__nor4_4
* cell instance $660 r0 *1 459.76,670.32
X$660 162 89 99 161 100 gf180mcu_fd_sc_mcu9t5v0__xnor2_2
* cell instance $663 r0 *1 458.08,700.56
X$663 161 116 105 89 106 90 162 gf180mcu_fd_sc_mcu9t5v0__oai211_4
* cell instance $675 m0 *1 454.16,680.4
X$675 90 161 96 162 97 gf180mcu_fd_sc_mcu9t5v0__xor2_2
* cell instance $687 m0 *1 443.52,680.4
X$687 161 162 93 94 gf180mcu_fd_sc_mcu9t5v0__clkinv_2
* cell instance $698 m0 *1 442.4,670.32
X$698 102 161 162 95 94 98 gf180mcu_fd_sc_mcu9t5v0__addh_1
* cell instance $719 m0 *1 441.28,700.56
X$719 161 103 104 162 101 gf180mcu_fd_sc_mcu9t5v0__or2_2
* cell instance $723 m0 *1 447.44,700.56
X$723 161 162 102 105 gf180mcu_fd_sc_mcu9t5v0__inv_2
* cell instance $736 r0 *1 449.12,710.64
X$736 161 104 115 162 121 gf180mcu_fd_sc_mcu9t5v0__or2_2
* cell instance $738 r0 *1 441.84,710.64
X$738 161 104 162 112 116 113 gf180mcu_fd_sc_mcu9t5v0__aoi21_2
* cell instance $761 r0 *1 472.08,972.72
X$761 161 125 107 138 140 145 162 gf180mcu_fd_sc_mcu9t5v0__nor4_4
* cell instance $767 m0 *1 496.72,710.64
X$767 161 162 108 109 110 gf180mcu_fd_sc_mcu9t5v0__nand2_2
* cell instance $789 r0 *1 446.32,720.72
X$789 161 162 114 113 gf180mcu_fd_sc_mcu9t5v0__clkinv_2
* cell instance $791 r0 *1 442.4,982.8
X$791 114 162 161 155 gf180mcu_fd_sc_mcu9t5v0__dlyb_2
* cell instance $798 m0 *1 455.84,730.8
X$798 119 162 123 116 161 115 gf180mcu_fd_sc_mcu9t5v0__and3_2
* cell instance $803 r0 *1 457.52,710.64
X$803 161 162 116 117 118 gf180mcu_fd_sc_mcu9t5v0__nand2_2
* cell instance $815 r0 *1 467.04,952.56
X$815 119 128 129 130 162 161 135 gf180mcu_fd_sc_mcu9t5v0__or4_2
* cell instance $822 r0 *1 450.8,982.8
X$822 120 162 161 157 gf180mcu_fd_sc_mcu9t5v0__dlyb_2
* cell instance $837 r0 *1 432.88,982.8
X$837 161 162 153 122 gf180mcu_fd_sc_mcu9t5v0__clkbuf_3
* cell instance $841 r0 *1 442.96,972.72
X$841 123 162 161 154 gf180mcu_fd_sc_mcu9t5v0__dlyb_2
* cell instance $846 r0 *1 481.04,730.8
X$846 162 125 124 161 126 gf180mcu_fd_sc_mcu9t5v0__and2_2
* cell instance $848 m0 *1 467.6,962.64
X$848 128 129 130 131 161 162 124 gf180mcu_fd_sc_mcu9t5v0__and4_2
* cell instance $863 r0 *1 478.8,952.56
X$863 134 162 133 127 161 132 gf180mcu_fd_sc_mcu9t5v0__nor3_4
* cell instance $869 r0 *1 459.2,982.8
X$869 156 162 161 128 gf180mcu_fd_sc_mcu9t5v0__dlyb_2
* cell instance $876 m0 *1 470.4,982.8
X$876 149 162 161 129 gf180mcu_fd_sc_mcu9t5v0__dlyb_2
* cell instance $883 r0 *1 468.72,962.64
X$883 161 162 136 130 gf180mcu_fd_sc_mcu9t5v0__clkinv_2
* cell instance $890 r0 *1 472.08,962.64
X$890 161 131 137 162 132 gf180mcu_fd_sc_mcu9t5v0__or2_2
* cell instance $893 m0 *1 468.16,972.72
X$893 161 162 158 131 gf180mcu_fd_sc_mcu9t5v0__clkinv_2
* cell instance $906 r0 *1 481.04,962.64
X$906 141 142 143 145 162 161 134 gf180mcu_fd_sc_mcu9t5v0__or4_2
* cell instance $915 r0 *1 463.68,972.72
X$915 147 162 161 136 gf180mcu_fd_sc_mcu9t5v0__dlyb_2
* cell instance $918 r0 *1 467.6,982.8
X$918 148 162 161 137 gf180mcu_fd_sc_mcu9t5v0__dlyb_2
* cell instance $921 m0 *1 471.52,972.72
X$921 161 162 137 138 141 gf180mcu_fd_sc_mcu9t5v0__nand2_2
* cell instance $925 r0 *1 476,982.8
X$925 150 162 161 139 gf180mcu_fd_sc_mcu9t5v0__dlyb_2
* cell instance $927 m0 *1 476.56,972.72
X$927 161 139 144 162 140 gf180mcu_fd_sc_mcu9t5v0__or2_2
* cell instance $929 r0 *1 477.68,962.64
X$929 161 162 139 142 gf180mcu_fd_sc_mcu9t5v0__clkinv_2
* cell instance $937 r0 *1 484.4,982.8
X$937 159 162 161 141 gf180mcu_fd_sc_mcu9t5v0__dlyb_2
* cell instance $947 m0 *1 484.4,972.72
X$947 161 162 144 143 gf180mcu_fd_sc_mcu9t5v0__clkinv_2
* cell instance $949 m0 *1 478.8,982.8
X$949 151 162 161 144 gf180mcu_fd_sc_mcu9t5v0__dlyb_2
* cell instance $955 m0 *1 487.2,982.8
X$955 152 162 161 145 gf180mcu_fd_sc_mcu9t5v0__dlyb_2
* cell instance $963 m0 *1 462,982.8
X$963 146 162 161 158 gf180mcu_fd_sc_mcu9t5v0__dlyb_2
.ENDS digital_thermometer_controller

* cell gf180mcu_fd_sc_mcu9t5v0__inv_3
* pin PWELL,VSS,gf180mcu_gnd
* pin NWELL,VDD
* pin I
* pin ZN
.SUBCKT gf180mcu_fd_sc_mcu9t5v0__inv_3 1 2 3 4
* net 1 PWELL,VSS,gf180mcu_gnd
* net 2 NWELL,VDD
* net 3 I
* net 4 ZN
* device instance $1 r0 *1 0.87,3.78 pmos_5p0
M$1 4 3 2 2 pmos_5p0 L=0.5U W=5.49U AS=1.9398P AD=1.9398P PS=9.44U PD=9.44U
* device instance $4 r0 *1 0.92,1.005 nmos_5p0
M$4 4 3 1 1 nmos_5p0 L=0.6U W=3.96U AS=1.2672P AD=1.2672P PS=7.2U PD=7.2U
.ENDS gf180mcu_fd_sc_mcu9t5v0__inv_3

* cell gf180mcu_fd_sc_mcu9t5v0__nor2_4
* pin PWELL,VSS,gf180mcu_gnd
* pin NWELL,VDD
* pin A2
* pin A1
* pin ZN
.SUBCKT gf180mcu_fd_sc_mcu9t5v0__nor2_4 1 2 3 4 5
* net 1 PWELL,VSS,gf180mcu_gnd
* net 2 NWELL,VDD
* net 3 A2
* net 4 A1
* net 5 ZN
* device instance $1 r0 *1 0.92,3.78 pmos_5p0
M$1 9 3 2 2 pmos_5p0 L=0.5U W=1.83U AS=0.8052P AD=0.61305P PS=4.54U PD=2.5U
* device instance $2 r0 *1 2.09,3.78 pmos_5p0
M$2 5 4 9 2 pmos_5p0 L=0.5U W=1.83U AS=0.61305P AD=0.52155P PS=2.5U PD=2.4U
* device instance $3 r0 *1 3.16,3.78 pmos_5p0
M$3 8 4 5 2 pmos_5p0 L=0.5U W=1.83U AS=0.52155P AD=0.5673P PS=2.4U PD=2.45U
* device instance $4 r0 *1 4.28,3.78 pmos_5p0
M$4 2 3 8 2 pmos_5p0 L=0.5U W=1.83U AS=0.5673P AD=0.5673P PS=2.45U PD=2.45U
* device instance $5 r0 *1 5.4,3.78 pmos_5p0
M$5 7 3 2 2 pmos_5p0 L=0.5U W=1.83U AS=0.5673P AD=0.5673P PS=2.45U PD=2.45U
* device instance $6 r0 *1 6.52,3.78 pmos_5p0
M$6 5 4 7 2 pmos_5p0 L=0.5U W=1.83U AS=0.5673P AD=0.5673P PS=2.45U PD=2.45U
* device instance $7 r0 *1 7.64,3.78 pmos_5p0
M$7 6 4 5 2 pmos_5p0 L=0.5U W=1.83U AS=0.5673P AD=0.5673P PS=2.45U PD=2.45U
* device instance $8 r0 *1 8.76,3.78 pmos_5p0
M$8 2 3 6 2 pmos_5p0 L=0.5U W=1.83U AS=0.5673P AD=0.8052P PS=2.45U PD=4.54U
* device instance $9 r0 *1 0.92,1.04 nmos_5p0
M$9 5 3 1 1 nmos_5p0 L=0.6U W=3.68U AS=1.1224P AD=1.1224P PS=7.04U PD=7.04U
* device instance $10 r0 *1 2.04,1.04 nmos_5p0
M$10 1 4 5 1 nmos_5p0 L=0.6U W=3.68U AS=0.9568P AD=0.9568P PS=5.76U PD=5.76U
.ENDS gf180mcu_fd_sc_mcu9t5v0__nor2_4

* cell gf180mcu_fd_sc_mcu9t5v0__nor3_2
* pin ZN
* pin NWELL,VDD
* pin PWELL,VSS,gf180mcu_gnd
* pin A2
* pin A1
* pin A3
.SUBCKT gf180mcu_fd_sc_mcu9t5v0__nor3_2 1 2 3 4 5 6
* net 1 ZN
* net 2 NWELL,VDD
* net 3 PWELL,VSS,gf180mcu_gnd
* net 4 A2
* net 5 A1
* net 6 A3
* device instance $1 r0 *1 0.97,3.78 pmos_5p0
M$1 10 6 2 2 pmos_5p0 L=0.5U W=1.83U AS=0.8052P AD=0.5673P PS=4.54U PD=2.45U
* device instance $2 r0 *1 2.09,3.78 pmos_5p0
M$2 9 4 10 2 pmos_5p0 L=0.5U W=1.83U AS=0.5673P AD=0.52155P PS=2.45U PD=2.4U
* device instance $3 r0 *1 3.16,3.78 pmos_5p0
M$3 1 5 9 2 pmos_5p0 L=0.5U W=1.83U AS=0.52155P AD=0.5673P PS=2.4U PD=2.45U
* device instance $4 r0 *1 4.28,3.78 pmos_5p0
M$4 8 5 1 2 pmos_5p0 L=0.5U W=1.83U AS=0.5673P AD=0.5673P PS=2.45U PD=2.45U
* device instance $5 r0 *1 5.4,3.78 pmos_5p0
M$5 7 4 8 2 pmos_5p0 L=0.5U W=1.83U AS=0.5673P AD=0.52155P PS=2.45U PD=2.4U
* device instance $6 r0 *1 6.47,3.78 pmos_5p0
M$6 2 6 7 2 pmos_5p0 L=0.5U W=1.83U AS=0.52155P AD=0.8052P PS=2.4U PD=4.54U
* device instance $7 r0 *1 0.92,0.74 nmos_5p0
M$7 3 6 1 3 nmos_5p0 L=0.6U W=1.58U AS=0.553P AD=0.553P PS=3.77U PD=3.77U
* device instance $8 r0 *1 2.04,0.74 nmos_5p0
M$8 1 4 3 3 nmos_5p0 L=0.6U W=1.58U AS=0.4108P AD=0.4108P PS=2.62U PD=2.62U
* device instance $9 r0 *1 3.16,0.74 nmos_5p0
M$9 3 5 1 3 nmos_5p0 L=0.6U W=1.58U AS=0.4108P AD=0.4108P PS=2.62U PD=2.62U
.ENDS gf180mcu_fd_sc_mcu9t5v0__nor3_2

* cell gf180mcu_fd_sc_mcu9t5v0__addh_1
* pin CO
* pin PWELL,VSS,gf180mcu_gnd
* pin NWELL,VDD
* pin A
* pin B
* pin S
.SUBCKT gf180mcu_fd_sc_mcu9t5v0__addh_1 1 2 3 4 5 9
* net 1 CO
* net 2 PWELL,VSS,gf180mcu_gnd
* net 3 NWELL,VDD
* net 4 A
* net 5 B
* net 9 S
* device instance $1 r0 *1 5.01,3.912 pmos_5p0
M$1 11 5 3 3 pmos_5p0 L=0.5U W=0.915U AS=0.4026P AD=0.2379P PS=2.71U PD=1.435U
* device instance $2 r0 *1 6.03,3.912 pmos_5p0
M$2 8 4 11 3 pmos_5p0 L=0.5U W=0.915U AS=0.2379P AD=0.3294P PS=1.435U PD=1.635U
* device instance $3 r0 *1 7.25,3.912 pmos_5p0
M$3 8 6 3 3 pmos_5p0 L=0.5U W=0.915U AS=0.50325P AD=0.3294P PS=2.53U PD=1.635U
* device instance $4 r0 *1 8.45,3.78 pmos_5p0
M$4 9 8 3 3 pmos_5p0 L=0.5U W=1.83U AS=0.50325P AD=0.8052P PS=2.53U PD=4.54U
* device instance $5 r0 *1 2.23,3.912 pmos_5p0
M$5 6 4 3 3 pmos_5p0 L=0.5U W=0.915U AS=0.5307P AD=0.2379P PS=2.59U PD=1.435U
* device instance $6 r0 *1 3.25,3.912 pmos_5p0
M$6 3 5 6 3 pmos_5p0 L=0.5U W=0.915U AS=0.2379P AD=0.4026P PS=1.435U PD=2.71U
* device instance $7 r0 *1 0.97,3.78 pmos_5p0
M$7 3 6 1 3 pmos_5p0 L=0.5U W=1.83U AS=0.8052P AD=0.5307P PS=4.54U PD=2.59U
* device instance $8 r0 *1 4.96,1.335 nmos_5p0
M$8 8 5 7 2 nmos_5p0 L=0.6U W=0.66U AS=0.2904P AD=0.1716P PS=2.2U PD=1.18U
* device instance $9 r0 *1 6.08,1.335 nmos_5p0
M$9 7 4 8 2 nmos_5p0 L=0.6U W=0.66U AS=0.1716P AD=0.1716P PS=1.18U PD=1.18U
* device instance $10 r0 *1 7.2,1.335 nmos_5p0
M$10 7 6 2 2 nmos_5p0 L=0.6U W=0.66U AS=0.363P AD=0.1716P PS=2.02U PD=1.18U
* device instance $11 r0 *1 8.5,1.005 nmos_5p0
M$11 9 8 2 2 nmos_5p0 L=0.6U W=1.32U AS=0.363P AD=0.5808P PS=2.02U PD=3.52U
* device instance $12 r0 *1 0.92,1.005 nmos_5p0
M$12 2 6 1 2 nmos_5p0 L=0.6U W=1.32U AS=0.5808P AD=0.3828P PS=3.52U PD=2.08U
* device instance $13 r0 *1 2.28,1.335 nmos_5p0
M$13 10 4 2 2 nmos_5p0 L=0.6U W=0.66U AS=0.3828P AD=0.0792P PS=2.08U PD=0.9U
* device instance $14 r0 *1 3.12,1.335 nmos_5p0
M$14 6 5 10 2 nmos_5p0 L=0.6U W=0.66U AS=0.0792P AD=0.2904P PS=0.9U PD=2.2U
.ENDS gf180mcu_fd_sc_mcu9t5v0__addh_1

* cell gf180mcu_fd_sc_mcu9t5v0__xnor2_2
* pin NWELL,VDD
* pin A1
* pin A2
* pin PWELL,VSS,gf180mcu_gnd
* pin ZN
.SUBCKT gf180mcu_fd_sc_mcu9t5v0__xnor2_2 1 5 6 7 8
* net 1 NWELL,VDD
* net 5 A1
* net 6 A2
* net 7 PWELL,VSS,gf180mcu_gnd
* net 8 ZN
* device instance $1 r0 *1 0.97,3.327 pmos_5p0
M$1 10 6 2 1 pmos_5p0 L=0.5U W=0.915U AS=0.4026P AD=0.260775P PS=2.71U PD=1.485U
* device instance $2 r0 *1 2.04,3.327 pmos_5p0
M$2 1 5 10 1 pmos_5p0 L=0.5U W=0.915U AS=0.260775P AD=0.571875P PS=1.485U
+ PD=2.68U
* device instance $3 r0 *1 3.39,3.785 pmos_5p0
M$3 4 2 1 1 pmos_5p0 L=0.5U W=1.83U AS=0.571875P AD=0.4758P PS=2.68U PD=2.35U
* device instance $4 r0 *1 4.41,3.785 pmos_5p0
M$4 3 5 4 1 pmos_5p0 L=0.5U W=1.83U AS=0.4758P AD=0.4758P PS=2.35U PD=2.35U
* device instance $5 r0 *1 5.43,3.785 pmos_5p0
M$5 4 6 3 1 pmos_5p0 L=0.5U W=1.83U AS=0.4758P AD=0.8052P PS=2.35U PD=4.54U
* device instance $6 r0 *1 7.17,3.78 pmos_5p0
M$6 8 3 1 1 pmos_5p0 L=0.5U W=3.66U AS=1.3725P AD=1.3725P PS=6.99U PD=6.99U
* device instance $8 r0 *1 7.22,1.005 nmos_5p0
M$8 8 3 7 7 nmos_5p0 L=0.6U W=2.64U AS=0.924P AD=0.924P PS=5.36U PD=5.36U
* device instance $10 r0 *1 0.92,0.675 nmos_5p0
M$10 2 6 7 7 nmos_5p0 L=0.6U W=0.66U AS=0.2904P AD=0.1716P PS=2.2U PD=1.18U
* device instance $11 r0 *1 2.04,0.675 nmos_5p0
M$11 7 5 2 7 nmos_5p0 L=0.6U W=0.66U AS=0.1716P AD=0.363P PS=1.18U PD=2.02U
* device instance $12 r0 *1 3.34,1.005 nmos_5p0
M$12 3 2 7 7 nmos_5p0 L=0.6U W=1.32U AS=0.363P AD=0.3432P PS=2.02U PD=1.84U
* device instance $13 r0 *1 4.46,1.005 nmos_5p0
M$13 9 5 3 7 nmos_5p0 L=0.6U W=1.32U AS=0.3432P AD=0.2112P PS=1.84U PD=1.64U
* device instance $14 r0 *1 5.38,1.005 nmos_5p0
M$14 7 6 9 7 nmos_5p0 L=0.6U W=1.32U AS=0.2112P AD=0.5808P PS=1.64U PD=3.52U
.ENDS gf180mcu_fd_sc_mcu9t5v0__xnor2_2

* cell gf180mcu_fd_sc_mcu9t5v0__xor2_2
* pin A1
* pin PWELL,VSS,gf180mcu_gnd
* pin A2
* pin NWELL,VDD
* pin Z
.SUBCKT gf180mcu_fd_sc_mcu9t5v0__xor2_2 1 2 6 7 8
* net 1 A1
* net 2 PWELL,VSS,gf180mcu_gnd
* net 6 A2
* net 7 NWELL,VDD
* net 8 Z
* device instance $1 r0 *1 0.87,3.947 pmos_5p0
M$1 3 6 7 7 pmos_5p0 L=0.5U W=0.915U AS=0.4026P AD=0.2379P PS=2.71U PD=1.435U
* device instance $2 r0 *1 1.89,3.947 pmos_5p0
M$2 3 1 7 7 pmos_5p0 L=0.5U W=0.915U AS=0.526125P AD=0.2379P PS=2.58U PD=1.435U
* device instance $3 r0 *1 3.14,3.785 pmos_5p0
M$3 5 3 7 7 pmos_5p0 L=0.5U W=1.83U AS=0.526125P AD=0.61305P PS=2.58U PD=2.5U
* device instance $4 r0 *1 4.31,3.785 pmos_5p0
M$4 10 1 5 7 pmos_5p0 L=0.5U W=1.83U AS=0.61305P AD=0.4758P PS=2.5U PD=2.35U
* device instance $5 r0 *1 5.33,3.785 pmos_5p0
M$5 7 6 10 7 pmos_5p0 L=0.5U W=1.83U AS=0.4758P AD=0.8052P PS=2.35U PD=4.54U
* device instance $6 r0 *1 7.27,3.78 pmos_5p0
M$6 8 5 7 7 pmos_5p0 L=0.5U W=3.66U AS=1.281P AD=1.281P PS=6.89U PD=6.89U
* device instance $8 r0 *1 7.22,1.005 nmos_5p0
M$8 8 5 2 2 nmos_5p0 L=0.6U W=2.64U AS=0.924P AD=0.924P PS=5.36U PD=5.36U
* device instance $10 r0 *1 0.92,1.16 nmos_5p0
M$10 9 6 3 2 nmos_5p0 L=0.6U W=0.66U AS=0.2904P AD=0.1056P PS=2.2U PD=0.98U
* device instance $11 r0 *1 1.84,1.16 nmos_5p0
M$11 9 1 2 2 nmos_5p0 L=0.6U W=0.66U AS=0.363P AD=0.1056P PS=2.02U PD=0.98U
* device instance $12 r0 *1 3.14,1.005 nmos_5p0
M$12 4 3 2 2 nmos_5p0 L=0.6U W=1.32U AS=0.363P AD=0.3432P PS=2.02U PD=1.84U
* device instance $13 r0 *1 4.26,1.005 nmos_5p0
M$13 5 1 4 2 nmos_5p0 L=0.6U W=1.32U AS=0.3432P AD=0.3432P PS=1.84U PD=1.84U
* device instance $14 r0 *1 5.38,1.005 nmos_5p0
M$14 4 6 5 2 nmos_5p0 L=0.6U W=1.32U AS=0.3432P AD=0.5808P PS=1.84U PD=3.52U
.ENDS gf180mcu_fd_sc_mcu9t5v0__xor2_2

* cell gf180mcu_fd_sc_mcu9t5v0__nand3_2
* pin PWELL,VSS,gf180mcu_gnd
* pin ZN
* pin A1
* pin NWELL,VDD
* pin A2
* pin A3
.SUBCKT gf180mcu_fd_sc_mcu9t5v0__nand3_2 1 2 3 4 5 6
* net 1 PWELL,VSS,gf180mcu_gnd
* net 2 ZN
* net 3 A1
* net 4 NWELL,VDD
* net 5 A2
* net 6 A3
* device instance $1 r0 *1 0.87,3.85 pmos_5p0
M$1 2 6 4 4 pmos_5p0 L=0.5U W=2.92U AS=1.022P AD=1.022P PS=5.78U PD=5.78U
* device instance $2 r0 *1 1.89,3.85 pmos_5p0
M$2 4 5 2 4 pmos_5p0 L=0.5U W=2.92U AS=0.7592P AD=0.7592P PS=3.96U PD=3.96U
* device instance $3 r0 *1 2.91,3.85 pmos_5p0
M$3 2 3 4 4 pmos_5p0 L=0.5U W=2.92U AS=0.7592P AD=0.7592P PS=3.96U PD=3.96U
* device instance $7 r0 *1 1.06,1 nmos_5p0
M$7 10 6 1 1 nmos_5p0 L=0.6U W=1.32U AS=0.5808P AD=0.1848P PS=3.52U PD=1.6U
* device instance $8 r0 *1 1.94,1 nmos_5p0
M$8 9 5 10 1 nmos_5p0 L=0.6U W=1.32U AS=0.1848P AD=0.2112P PS=1.6U PD=1.64U
* device instance $9 r0 *1 2.86,1 nmos_5p0
M$9 2 3 9 1 nmos_5p0 L=0.6U W=1.32U AS=0.2112P AD=0.3432P PS=1.64U PD=1.84U
* device instance $10 r0 *1 3.98,1 nmos_5p0
M$10 8 3 2 1 nmos_5p0 L=0.6U W=1.32U AS=0.3432P AD=0.2112P PS=1.84U PD=1.64U
* device instance $11 r0 *1 4.9,1 nmos_5p0
M$11 7 5 8 1 nmos_5p0 L=0.6U W=1.32U AS=0.2112P AD=0.2772P PS=1.64U PD=1.74U
* device instance $12 r0 *1 5.92,1 nmos_5p0
M$12 1 6 7 1 nmos_5p0 L=0.6U W=1.32U AS=0.2772P AD=0.5808P PS=1.74U PD=3.52U
.ENDS gf180mcu_fd_sc_mcu9t5v0__nand3_2

* cell gf180mcu_fd_sc_mcu9t5v0__or4_4
* pin PWELL,VSS,gf180mcu_gnd
* pin Z
* pin A4
* pin A3
* pin A2
* pin A1
* pin NWELL,VDD
.SUBCKT gf180mcu_fd_sc_mcu9t5v0__or4_4 1 3 4 5 6 7 8
* net 1 PWELL,VSS,gf180mcu_gnd
* net 3 Z
* net 4 A4
* net 5 A3
* net 6 A2
* net 7 A1
* net 8 NWELL,VDD
* device instance $1 r0 *1 0.97,3.78 pmos_5p0
M$1 11 4 8 8 pmos_5p0 L=0.5U W=1.83U AS=0.8052P AD=0.52155P PS=4.54U PD=2.4U
* device instance $2 r0 *1 2.04,3.78 pmos_5p0
M$2 10 5 11 8 pmos_5p0 L=0.5U W=1.83U AS=0.52155P AD=0.5673P PS=2.4U PD=2.45U
* device instance $3 r0 *1 3.16,3.78 pmos_5p0
M$3 9 6 10 8 pmos_5p0 L=0.5U W=1.83U AS=0.5673P AD=0.5673P PS=2.45U PD=2.45U
* device instance $4 r0 *1 4.28,3.78 pmos_5p0
M$4 2 7 9 8 pmos_5p0 L=0.5U W=1.83U AS=0.5673P AD=0.5673P PS=2.45U PD=2.45U
* device instance $5 r0 *1 5.4,3.78 pmos_5p0
M$5 12 7 2 8 pmos_5p0 L=0.5U W=1.83U AS=0.5673P AD=0.5673P PS=2.45U PD=2.45U
* device instance $6 r0 *1 6.52,3.78 pmos_5p0
M$6 13 6 12 8 pmos_5p0 L=0.5U W=1.83U AS=0.5673P AD=0.5673P PS=2.45U PD=2.45U
* device instance $7 r0 *1 7.64,3.78 pmos_5p0
M$7 14 5 13 8 pmos_5p0 L=0.5U W=1.83U AS=0.5673P AD=0.5673P PS=2.45U PD=2.45U
* device instance $8 r0 *1 8.76,3.78 pmos_5p0
M$8 8 4 14 8 pmos_5p0 L=0.5U W=1.83U AS=0.5673P AD=0.77775P PS=2.45U PD=2.68U
* device instance $9 r0 *1 10.11,3.78 pmos_5p0
M$9 3 2 8 8 pmos_5p0 L=0.5U W=7.32U AS=2.38815P AD=2.4156P PS=9.93U PD=11.79U
* device instance $13 r0 *1 0.92,0.74 nmos_5p0
M$13 2 4 1 1 nmos_5p0 L=0.6U W=1.58U AS=0.553P AD=0.5879P PS=3.77U PD=3.33U
* device instance $14 r0 *1 2.04,0.74 nmos_5p0
M$14 1 5 2 1 nmos_5p0 L=0.6U W=1.58U AS=0.4108P AD=0.4108P PS=2.62U PD=2.62U
* device instance $15 r0 *1 3.16,0.74 nmos_5p0
M$15 2 6 1 1 nmos_5p0 L=0.6U W=1.58U AS=0.4108P AD=0.4108P PS=2.62U PD=2.62U
* device instance $16 r0 *1 4.28,0.74 nmos_5p0
M$16 1 7 2 1 nmos_5p0 L=0.6U W=1.58U AS=0.4108P AD=0.4108P PS=2.62U PD=2.62U
* device instance $21 r0 *1 10.06,1.005 nmos_5p0
M$21 3 2 1 1 nmos_5p0 L=0.6U W=5.28U AS=1.4121P AD=1.6104P PS=7.54U PD=9.04U
.ENDS gf180mcu_fd_sc_mcu9t5v0__or4_4

* cell gf180mcu_fd_sc_mcu9t5v0__nand3_4
* pin PWELL,VSS,gf180mcu_gnd
* pin A1
* pin A3
* pin ZN
* pin A2
* pin NWELL,VDD
.SUBCKT gf180mcu_fd_sc_mcu9t5v0__nand3_4 1 2 4 5 11 12
* net 1 PWELL,VSS,gf180mcu_gnd
* net 2 A1
* net 4 A3
* net 5 ZN
* net 11 A2
* net 12 NWELL,VDD
* device instance $1 r0 *1 0.87,3.965 pmos_5p0
M$1 5 11 12 12 pmos_5p0 L=0.5U W=5.84U AS=1.8542P AD=1.5914P PS=9.84U PD=8.02U
* device instance $2 r0 *1 1.89,3.965 pmos_5p0
M$2 12 4 5 12 pmos_5p0 L=0.5U W=5.84U AS=1.6644P AD=1.6644P PS=8.12U PD=8.12U
* device instance $9 r0 *1 9.33,3.965 pmos_5p0
M$9 5 2 12 12 pmos_5p0 L=0.5U W=5.84U AS=1.7374P AD=2.0002P PS=8.22U PD=10.04U
* device instance $13 r0 *1 0.92,1.005 nmos_5p0
M$13 6 11 3 1 nmos_5p0 L=0.6U W=1.32U AS=0.5808P AD=0.2772P PS=3.52U PD=1.74U
* device instance $14 r0 *1 1.94,1.005 nmos_5p0
M$14 1 4 6 1 nmos_5p0 L=0.6U W=1.32U AS=0.2772P AD=0.3432P PS=1.74U PD=1.84U
* device instance $15 r0 *1 3.06,1.005 nmos_5p0
M$15 7 4 1 1 nmos_5p0 L=0.6U W=1.32U AS=0.3432P AD=0.2772P PS=1.84U PD=1.74U
* device instance $16 r0 *1 4.08,1.005 nmos_5p0
M$16 3 11 7 1 nmos_5p0 L=0.6U W=1.32U AS=0.2772P AD=0.3432P PS=1.74U PD=1.84U
* device instance $17 r0 *1 5.2,1.005 nmos_5p0
M$17 9 11 3 1 nmos_5p0 L=0.6U W=1.32U AS=0.3432P AD=0.2772P PS=1.84U PD=1.74U
* device instance $18 r0 *1 6.22,1.005 nmos_5p0
M$18 1 4 9 1 nmos_5p0 L=0.6U W=1.32U AS=0.2772P AD=0.3432P PS=1.74U PD=1.84U
* device instance $19 r0 *1 7.34,1.005 nmos_5p0
M$19 8 4 1 1 nmos_5p0 L=0.6U W=1.32U AS=0.3432P AD=0.2772P PS=1.84U PD=1.74U
* device instance $20 r0 *1 8.36,1.005 nmos_5p0
M$20 10 11 8 1 nmos_5p0 L=0.6U W=1.32U AS=0.2772P AD=0.2772P PS=1.74U PD=1.74U
* device instance $21 r0 *1 9.38,1.005 nmos_5p0
M$21 5 2 10 1 nmos_5p0 L=0.6U W=1.32U AS=0.2772P AD=0.3432P PS=1.74U PD=1.84U
* device instance $22 r0 *1 10.5,1.005 nmos_5p0
M$22 3 2 5 1 nmos_5p0 L=0.6U W=3.96U AS=1.0296P AD=1.2672P PS=5.52U PD=7.2U
.ENDS gf180mcu_fd_sc_mcu9t5v0__nand3_4

* cell gf180mcu_fd_sc_mcu9t5v0__clkinv_3
* pin PWELL,VSS,gf180mcu_gnd
* pin NWELL,VDD
* pin I
* pin ZN