
* cell circular_buffer_fifo
* pin wr_data[3]
* pin wr_data[6]
* pin wr_data[4]
* pin wr_data[7]
* pin peek_data[5]
* pin peek_en
* pin peek_data[7]
* pin peek_data[0]
* pin PWELL
* pin NWELL
* pin clk
* pin wr_data[1]
* pin wr_data[2]
* pin wr_data[5]
* pin wr_data[0]
* pin peek_data[1]
* pin peek_data[3]
* pin peek_data[2]
* pin peek_data[6]
* pin rd_data[1]
* pin peek_data[4]
* pin rd_data[5]
* pin rd_data[0]
* pin rd_data[6]
* pin rd_data[4]
* pin rd_data[7]
* pin rd_data[3]
* pin fifo_count[4]
* pin full
* pin empty
* pin rd_data[2]
* pin peek_addr[0]
* pin rd_en
* pin peek_addr[1]
* pin peek_addr[2]
* pin peek_addr[3]
* pin almost_full
* pin fifo_count[2]
* pin fifo_count[3]
* pin fifo_count[0]
* pin almost_empty
* pin fifo_count[1]
* pin wr_en
* pin rst_n
.SUBCKT circular_buffer_fifo 1 2 3 4 5 6 7 8 16 30 55 182 183 209 302 308 329
+ 358 382 402 416 459 460 498 533 555 556 589 628 631 658 715 716 743 766 805
+ 897 898 915 916 935 983 1004 1007
* net 1 wr_data[3]
* net 2 wr_data[6]
* net 3 wr_data[4]
* net 4 wr_data[7]
* net 5 peek_data[5]
* net 6 peek_en
* net 7 peek_data[7]
* net 8 peek_data[0]
* net 16 PWELL
* net 30 NWELL
* net 55 clk
* net 182 wr_data[1]
* net 183 wr_data[2]
* net 209 wr_data[5]
* net 302 wr_data[0]
* net 308 peek_data[1]
* net 329 peek_data[3]
* net 358 peek_data[2]
* net 382 peek_data[6]
* net 402 rd_data[1]
* net 416 peek_data[4]
* net 459 rd_data[5]
* net 460 rd_data[0]
* net 498 rd_data[6]
* net 533 rd_data[4]
* net 555 rd_data[7]
* net 556 rd_data[3]
* net 589 fifo_count[4]
* net 628 full
* net 631 empty
* net 658 rd_data[2]
* net 715 peek_addr[0]
* net 716 rd_en
* net 743 peek_addr[1]
* net 766 peek_addr[2]
* net 805 peek_addr[3]
* net 897 almost_full
* net 898 fifo_count[2]
* net 915 fifo_count[3]
* net 916 fifo_count[0]
* net 935 almost_empty
* net 983 fifo_count[1]
* net 1004 wr_en
* net 1007 rst_n
* cell instance $2 r0 *1 4.37,1.4
X$2 1 16 30 18 CLKBUF_X2
* cell instance $8 r0 *1 16.34,1.4
X$8 2 16 30 71 CLKBUF_X2
* cell instance $14 r0 *1 17.29,1.4
X$14 3 16 30 69 CLKBUF_X2
* cell instance $20 r0 *1 28.31,1.4
X$20 4 16 30 21 CLKBUF_X2
* cell instance $27 r0 *1 29.26,1.4
X$27 35 16 30 5 BUF_X1
* cell instance $32 r0 *1 29.83,1.4
X$32 6 16 30 23 BUF_X1
* cell instance $38 m0 *1 30.4,4.2
X$38 64 16 30 7 BUF_X1
* cell instance $45 r0 *1 32.49,1.4
X$45 17 16 30 8 BUF_X1
* cell instance $50 r0 *1 15.77,4.2
X$50 9 70 43 16 30 86 MUX2_X1
* cell instance $52 m0 *1 13.11,4.2
X$52 16 42 9 32 36 30 DFF_X1
* cell instance $54 r0 *1 15.01,1.4
X$54 69 11 9 16 30 32 MUX2_X1
* cell instance $59 m0 *1 28.12,12.6
X$59 16 202 219 204 10 30 DFF_X1
* cell instance $62 r0 *1 29.26,9.8
X$62 16 181 159 158 10 30 DFF_X1
* cell instance $64 m0 *1 29.07,7
X$64 16 112 133 99 10 30 DFF_X1
* cell instance $67 m0 *1 22.23,7
X$67 10 16 30 1030 INV_X1
* cell instance $70 m0 *1 21.66,4.2
X$70 16 44 45 61 10 30 DFF_X1
* cell instance $72 r0 *1 20.9,1.4
X$72 16 89 20 34 10 30 DFF_X1
* cell instance $74 m0 *1 27.17,4.2
X$74 16 46 22 62 10 30 DFF_X1
* cell instance $76 m0 *1 22.61,7
X$76 109 16 30 10 CLKBUF_X3
* cell instance $79 r0 *1 21.85,7
X$79 16 131 115 129 10 30 DFF_X1
* cell instance $81 m0 *1 17.29,7
X$81 16 96 95 72 10 30 DFF_X1
* cell instance $84 m0 *1 22.04,9.8
X$84 16 97 136 178 10 30 DFF_X1
* cell instance $86 r0 *1 39.52,43.4
X$86 865 799 822 30 16 11 OAI21_X4
* cell instance $92 m0 *1 8.17,15.4
X$92 160 11 221 16 30 252 MUX2_X1
* cell instance $94 m0 *1 17.29,18.2
X$94 71 11 286 16 30 267 MUX2_X1
* cell instance $96 r0 *1 25.46,12.6
X$96 21 11 233 16 30 217 MUX2_X1
* cell instance $99 m0 *1 10.07,9.8
X$99 25 11 153 16 30 134 MUX2_X1
* cell instance $106 m0 *1 41.42,15.4
X$106 276 11 225 16 30 224 MUX2_X1
* cell instance $115 r0 *1 24.13,1.4
X$115 15 11 20 16 30 34 MUX2_X1
* cell instance $120 m0 *1 9.5,7
X$120 18 11 66 16 30 82 MUX2_X1
* cell instance $128 m0 *1 39.71,7
X$128 109 16 30 12 CLKBUF_X3
* cell instance $131 m0 *1 35.72,7
X$131 16 128 76 100 12 30 DFF_X1
* cell instance $134 m0 *1 30.59,9.8
X$134 16 180 149 137 12 30 DFF_X1
* cell instance $136 m0 *1 32.49,4.2
X$136 16 47 48 63 12 30 DFF_X1
* cell instance $138 r0 *1 33.06,1.4
X$138 16 24 26 33 12 30 DFF_X1
* cell instance $140 r0 *1 41.23,12.6
X$140 16 1052 225 224 12 30 DFF_X1
* cell instance $143 m0 *1 37.05,9.8
X$143 16 147 138 179 12 30 DFF_X1
* cell instance $145 m0 *1 37.05,12.6
X$145 16 163 199 201 12 30 DFF_X1
* cell instance $147 m0 *1 39.71,4.2
X$147 16 49 27 60 12 30 DFF_X1
* cell instance $150 r0 *1 29.83,12.6
X$150 16 205 218 220 12 30 DFF_X1
* cell instance $153 r0 *1 40.66,1.4
X$153 16 50 13 31 12 30 DFF_X1
* cell instance $155 r0 *1 35.91,12.6
X$155 16 187 207 206 12 30 DFF_X1
* cell instance $160 r0 *1 38.95,4.2
X$160 27 75 13 16 30 87 MUX2_X1
* cell instance $162 r0 *1 39.33,1.4
X$162 18 14 13 16 30 31 MUX2_X1
* cell instance $165 m0 *1 35.72,4.2
X$165 25 14 26 16 30 33 MUX2_X1
* cell instance $167 r0 *1 30.4,15.4
X$167 71 14 245 16 30 262 MUX2_X1
* cell instance $182 r0 *1 49.21,1.4
X$182 15 14 53 16 30 29 MUX2_X1
* cell instance $185 r0 *1 47.5,4.2
X$185 69 14 103 16 30 83 MUX2_X1
* cell instance $189 m0 *1 35.72,12.6
X$189 160 14 199 16 30 201 MUX2_X1
* cell instance $192 m0 *1 28.5,23.8
X$192 21 14 424 16 30 423 MUX2_X1
* cell instance $195 r0 *1 41.61,40.6
X$195 798 799 822 30 16 14 OAI21_X4
* cell instance $199 r0 *1 48.83,18.2
X$199 276 14 301 16 30 303 MUX2_X1
* cell instance $220 r0 *1 48.45,12.6
X$220 15 116 208 16 30 214 MUX2_X1
* cell instance $223 m0 *1 46.74,4.2
X$223 15 51 28 16 30 59 MUX2_X1
* cell instance $225 r0 *1 55.1,12.6
X$225 209 16 30 15 BUF_X2
* cell instance $228 r0 *1 25.08,7
X$228 15 85 115 16 30 129 MUX2_X1
* cell instance $230 r0 *1 24.7,9.8
X$230 15 16 30 88 BUF_X2
* cell instance $232 m0 *1 51.87,15.4
X$232 15 119 190 16 30 189 MUX2_X1
* cell instance $233 m0 *1 43.32,26.6
X$233 450 469 511 471 470 509 16 30 540 OAI33_X1
* cell instance $234 m0 *1 41.99,26.6
X$234 514 510 471 512 449 450 16 30 492 OAI33_X1
* cell instance $235 m0 *1 44.65,26.6
X$235 400 447 16 30 510 NOR2_X1
* cell instance $238 m0 *1 46.17,26.6
X$238 496 428 495 452 16 30 505 NAND4_X1
* cell instance $239 m0 *1 47.12,26.6
X$239 455 454 494 16 30 453 NAND3_X1
* cell instance $240 m0 *1 47.88,26.6
X$240 496 428 495 456 16 30 454 NAND4_X1
* cell instance $241 m0 *1 48.83,26.6
X$241 427 456 431 16 30 455 NAND3_X1
* cell instance $245 r0 *1 42.18,26.6
X$245 492 515 526 490 493 30 16 559 OAI221_X1
* cell instance $247 r0 *1 43.7,26.6
X$247 506 540 526 493 490 30 16 530 OAI221_X1
* cell instance $248 r0 *1 44.84,26.6
X$248 529 505 530 16 30 537 NAND3_X1
* cell instance $249 r0 *1 45.6,26.6
X$249 16 1057 452 537 275 30 DFF_X1
* cell instance $250 r0 *1 48.83,26.6
X$250 427 452 431 16 30 529 NAND3_X1
* cell instance $253 r0 *1 50.16,26.6
X$253 496 428 495 532 16 30 597 NAND4_X1
* cell instance $254 r0 *1 51.11,26.6
X$254 427 532 431 16 30 531 NAND3_X1
* cell instance $255 m0 *1 52.44,26.6
X$255 457 497 463 16 30 430 NAND3_X1
* cell instance $256 m0 *1 51.49,26.6
X$256 496 428 495 458 16 30 497 NAND4_X1
* cell instance $257 m0 *1 53.2,26.6
X$257 427 458 431 16 30 457 NAND3_X1
* cell instance $259 m0 *1 54.72,26.6
X$259 456 16 30 459 BUF_X1
* cell instance $260 m0 *1 55.29,26.6
X$260 458 16 30 498 BUF_X1
* cell instance $262 r0 *1 51.87,26.6
X$262 16 1051 554 558 275 30 DFF_X1
* cell instance $263 r0 *1 55.1,26.6
X$263 452 16 30 533 BUF_X1
* cell instance $266 m0 *1 52.63,46.2
X$266 803 782 825 841 16 30 873 NAND4_X1
* cell instance $267 m0 *1 51.68,46.2
X$267 803 782 825 840 16 30 874 NAND4_X1
* cell instance $268 m0 *1 53.58,46.2
X$268 892 16 30 782 INV_X1
* cell instance $270 m0 *1 54.15,46.2
X$270 840 16 30 841 INV_X1
* cell instance $272 m0 *1 54.72,46.2
X$272 868 16 30 897 BUF_X1
* cell instance $273 m0 *1 55.29,46.2
X$273 894 16 30 898 BUF_X1
* cell instance $276 r0 *1 51.87,46.2
X$276 825 16 30 896 INV_X1
* cell instance $277 r0 *1 52.25,46.2
X$277 841 867 30 16 917 XNOR2_X1
* cell instance $278 r0 *1 53.39,46.2
X$278 623 892 894 16 893 30 AOI21_X1
* cell instance $279 r0 *1 54.15,46.2
X$279 917 893 428 895 30 16 868 OAI22_X1
* cell instance $281 r0 *1 55.29,46.2
X$281 896 16 30 916 BUF_X1
* cell instance $283 m0 *1 40.47,46.2
X$283 866 888 16 30 796 NAND2_X1
* cell instance $284 m0 *1 39.9,46.2
X$284 890 888 16 30 863 NAND2_X1
* cell instance $286 m0 *1 41.23,46.2
X$286 866 889 16 30 820 NAND2_X1
* cell instance $287 m0 *1 41.8,46.2
X$287 890 16 30 866 INV_X1
* cell instance $289 r0 *1 39.9,46.2
X$289 866 888 16 30 885 NOR2_X2
* cell instance $291 r0 *1 41.04,46.2
X$291 684 888 16 30 931 NOR2_X1
* cell instance $292 r0 *1 41.61,46.2
X$292 889 16 30 888 INV_X1
* cell instance $294 r0 *1 42.37,46.2
X$294 707 866 16 30 914 NOR2_X1
* cell instance $295 m0 *1 42.75,46.2
X$295 821 623 496 16 891 30 AOI21_X1
* cell instance $297 m0 *1 43.51,46.2
X$297 707 890 16 30 924 NOR2_X1
* cell instance $300 r0 *1 42.94,46.2
X$300 914 891 924 16 30 954 MUX2_X1
* cell instance $303 m0 *1 46.17,46.2
X$303 761 16 30 428 CLKBUF_X3
* cell instance $305 m0 *1 47.12,46.2
X$305 901 30 822 16 BUF_X4
* cell instance $307 m0 *1 49.97,46.2
X$307 874 867 873 16 30 901 MUX2_X1
* cell instance $309 r0 *1 46.55,46.2
X$309 923 889 922 30 16 980 HA_X1
* cell instance $310 r0 *1 48.45,46.2
X$310 922 30 840 16 BUF_X4
* cell instance $313 m0 *1 1.9,23.8
X$313 432 16 30 416 BUF_X1
* cell instance $315 m0 *1 2.47,23.8
X$315 16 405 417 433 151 30 DFF_X1
* cell instance $316 m0 *1 5.7,23.8
X$316 417 156 383 16 30 412 MUX2_X1
* cell instance $318 m0 *1 7.22,23.8
X$318 171 371 383 16 30 384 MUX2_X1
* cell instance $319 m0 *1 8.55,23.8
X$319 405 385 360 16 30 387 MUX2_X1
* cell instance $320 m0 *1 9.88,23.8
X$320 386 379 387 16 30 418 MUX2_X1
* cell instance $321 m0 *1 11.21,23.8
X$321 293 418 30 16 388 AND2_X1
* cell instance $333 r0 *1 3.42,23.8
X$333 236 411 480 16 30 461 MUX2_X1
* cell instance $335 r0 *1 5.13,23.8
X$335 171 411 417 16 30 433 MUX2_X1
* cell instance $338 r0 *1 7.41,23.8
X$338 462 385 501 16 30 436 MUX2_X1
* cell instance $339 r0 *1 8.74,23.8
X$339 482 379 436 16 30 409 MUX2_X1
* cell instance $343 r0 *1 13.68,23.8
X$343 94 411 419 16 30 439 MUX2_X1
* cell instance $344 m0 *1 14.06,23.8
X$344 16 389 419 439 197 30 DFF_X1
* cell instance $346 m0 *1 17.29,23.8
X$346 389 385 391 16 30 392 MUX2_X1
* cell instance $349 r0 *1 15.01,23.8
X$349 16 391 504 466 440 30 DFF_X1
* cell instance $351 r0 *1 19.76,23.8
X$351 420 16 30 265 BUF_X2
* cell instance $352 r0 *1 20.52,23.8
X$352 362 422 16 30 541 NOR2_X1
* cell instance $354 m0 *1 20.52,23.8
X$354 293 421 30 16 393 AND2_X1
* cell instance $356 m0 *1 21.85,23.8
X$356 16 364 441 415 197 30 DFF_X1
* cell instance $358 m0 *1 25.08,23.8
X$358 21 85 441 16 30 415 MUX2_X1
* cell instance $359 m0 *1 26.41,23.8
X$359 288 30 379 16 BUF_X4
* cell instance $360 m0 *1 27.74,23.8
X$360 293 396 30 16 318 AND2_X1
* cell instance $361 m0 *1 29.83,23.8
X$361 16 367 378 397 243 30 DFF_X1
* cell instance $366 r0 *1 22.42,23.8
X$366 16 365 442 468 440 30 DFF_X1
* cell instance $367 r0 *1 25.65,23.8
X$367 441 156 442 16 30 443 MUX2_X1
* cell instance $368 r0 *1 26.98,23.8
X$368 394 422 16 30 444 NOR2_X1
* cell instance $370 r0 *1 29.07,23.8
X$370 16 368 424 423 243 30 DFF_X1
* cell instance $371 r0 *1 32.3,23.8
X$371 378 118 424 16 30 475 MUX2_X1
* cell instance $372 r0 *1 33.63,23.8
X$372 478 425 16 30 477 NOR2_X1
* cell instance $373 r0 *1 34.2,23.8
X$373 272 426 16 30 479 NOR2_X1
* cell instance $374 m0 *1 34.39,23.8
X$374 414 265 16 30 398 NAND2_X1
* cell instance $378 m0 *1 37.24,23.8
X$378 407 293 16 30 323 NAND2_X1
* cell instance $379 m0 *1 37.81,23.8
X$379 256 411 399 16 30 410 MUX2_X1
* cell instance $380 m0 *1 39.14,23.8
X$380 491 162 406 16 30 407 MUX2_X1
* cell instance $381 m0 *1 40.47,23.8
X$381 399 120 324 16 30 406 MUX2_X1
* cell instance $382 m0 *1 41.8,23.8
X$382 399 118 324 16 30 472 MUX2_X1
* cell instance $386 r0 *1 35.15,23.8
X$386 91 426 16 30 445 NOR2_X1
* cell instance $389 r0 *1 36.29,23.8
X$389 161 425 16 30 446 NOR2_X1
* cell instance $392 r0 *1 37.81,23.8
X$392 422 16 30 425 CLKBUF_X3
* cell instance $394 r0 *1 39.14,23.8
X$394 146 425 16 30 474 NOR2_X1
* cell instance $396 r0 *1 40.47,23.8
X$396 273 426 16 30 528 NOR2_X1
* cell instance $397 r0 *1 41.04,23.8
X$397 229 425 16 30 448 NOR2_X1
* cell instance $399 r0 *1 41.8,23.8
X$399 438 422 16 30 514 NOR2_X1
* cell instance $402 r0 *1 42.94,23.8
X$402 472 425 16 30 449 NOR2_X1
* cell instance $404 r0 *1 44.27,23.8
X$404 188 425 16 30 509 NOR2_X1
* cell instance $405 r0 *1 44.84,23.8
X$405 84 426 16 30 451 NOR2_X1
* cell instance $407 r0 *1 45.6,23.8
X$407 141 426 16 30 470 NOR2_X1
* cell instance $408 r0 *1 46.17,23.8
X$408 16 1053 456 453 275 30 DFF_X1
* cell instance $409 m0 *1 47.31,23.8
X$409 16 1039 404 437 275 30 DFF_X1
* cell instance $410 m0 *1 46.55,23.8
X$410 464 16 30 288 BUF_X2
* cell instance $411 m0 *1 50.54,23.8
X$411 427 404 431 16 30 435 NAND3_X1
* cell instance $413 r0 *1 49.4,23.8
X$413 435 465 559 16 30 437 NAND3_X1
* cell instance $414 r0 *1 50.16,23.8
X$414 496 428 427 404 16 30 465 NAND4_X1
* cell instance $415 r0 *1 51.11,23.8
X$415 496 428 427 401 16 30 429 NAND4_X1
* cell instance $416 m0 *1 51.87,23.8
X$416 403 429 434 16 30 369 NAND3_X1
* cell instance $418 m0 *1 52.63,23.8
X$418 427 401 431 16 30 403 NAND3_X1
* cell instance $421 r0 *1 52.06,23.8
X$421 16 1050 458 430 275 30 DFF_X1
* cell instance $423 m0 *1 54.53,23.8
X$423 401 16 30 402 BUF_X1
* cell instance $425 r0 *1 55.29,23.8
X$425 404 16 30 460 BUF_X1
* cell instance $436 m0 *1 22.61,15.4
X$436 16 261 242 240 197 30 DFF_X1
* cell instance $442 r0 *1 22.61,15.4
X$442 241 67 242 16 30 240 MUX2_X1
* cell instance $443 r0 *1 23.94,15.4
X$443 260 58 261 16 30 289 MUX2_X1
* cell instance $445 r0 *1 26.03,15.4
X$445 233 70 242 16 30 394 MUX2_X1
* cell instance $448 r0 *1 29.26,15.4
X$448 21 16 30 241 BUF_X2
* cell instance $451 m0 *1 30.02,15.4
X$451 23 16 30 270 INV_X2
* cell instance $452 m0 *1 31.16,15.4
X$452 219 118 218 16 30 291 MUX2_X1
* cell instance $456 m0 *1 36.29,15.4
X$456 207 75 199 16 30 231 MUX2_X1
* cell instance $457 m0 *1 37.62,15.4
X$457 256 113 223 16 30 246 MUX2_X1
* cell instance $460 m0 *1 39.9,15.4
X$460 256 67 248 16 30 247 MUX2_X1
* cell instance $462 m0 *1 42.75,15.4
X$462 251 120 223 16 30 255 MUX2_X1
* cell instance $463 m0 *1 44.08,15.4
X$463 225 120 248 16 30 249 MUX2_X1
* cell instance $466 r0 *1 31.73,15.4
X$466 16 244 245 262 243 30 DFF_X1
* cell instance $469 r0 *1 37.24,15.4
X$469 16 1061 223 246 243 30 DFF_X1
* cell instance $470 r0 *1 40.47,15.4
X$470 16 1059 248 247 243 30 DFF_X1
* cell instance $471 r0 *1 43.7,15.4
X$471 255 162 249 16 30 253 MUX2_X1
* cell instance $472 r0 *1 45.03,15.4
X$472 16 1064 251 274 275 30 DFF_X1
* cell instance $474 m0 *1 49.02,15.4
X$474 208 118 190 16 30 229 MUX2_X1
* cell instance $478 m0 *1 53.96,15.4
X$478 79 162 226 16 30 227 MUX2_X1
* cell instance $492 m0 *1 3.8,9.8
X$492 25 85 168 16 30 150 MUX2_X1
* cell instance $498 r0 *1 2.85,9.8
X$498 182 16 30 25 CLKBUF_X2
* cell instance $502 r0 *1 3.61,9.8
X$502 16 152 168 150 151 30 DFF_X1
* cell instance $505 r0 *1 8.74,9.8
X$505 25 16 30 171 BUF_X2
* cell instance $507 r0 *1 9.88,9.8
X$507 16 154 153 134 151 30 DFF_X1
* cell instance $513 r0 *1 14.82,9.8
X$513 16 174 196 195 197 30 DFF_X1
* cell instance $514 m0 *1 16.53,9.8
X$514 175 98 111 16 30 155 MUX2_X1
* cell instance $519 m0 *1 18.24,9.8
X$519 95 156 135 16 30 177 MUX2_X1
* cell instance $522 m0 *1 25.27,9.8
X$522 88 113 136 16 30 178 MUX2_X1
* cell instance $523 m0 *1 26.6,9.8
X$523 115 156 136 16 30 395 MUX2_X1
* cell instance $528 r0 *1 22.8,9.8
X$528 157 30 58 16 BUF_X4
* cell instance $533 m0 *1 29.26,9.8
X$533 71 119 159 16 30 158 MUX2_X1
* cell instance $537 r0 *1 32.49,9.8
X$537 149 118 159 16 30 478 MUX2_X1
* cell instance $538 r0 *1 33.82,9.8
X$538 180 77 181 16 30 298 MUX2_X1
* cell instance $540 m0 *1 35.72,9.8
X$540 160 116 138 16 30 179 MUX2_X1
* cell instance $545 r0 *1 37.81,9.8
X$545 176 162 139 16 30 198 MUX2_X1
* cell instance $546 r0 *1 39.14,9.8
X$546 187 77 163 16 30 176 MUX2_X1
* cell instance $549 m0 *1 42.18,9.8
X$549 70 16 30 118 CLKBUF_X3
* cell instance $550 m0 *1 43.89,9.8
X$550 173 162 143 16 30 145 MUX2_X1
* cell instance $552 m0 *1 46.74,9.8
X$552 109 16 30 52 CLKBUF_X3
* cell instance $556 r0 *1 45.41,9.8
X$556 157 30 77 16 BUF_X4
* cell instance $557 r0 *1 46.74,9.8
X$557 16 169 164 172 52 30 DFF_X1
* cell instance $558 m0 *1 49.4,9.8
X$558 69 119 165 16 30 170 MUX2_X1
* cell instance $559 m0 *1 48.07,9.8
X$559 69 116 164 16 30 172 MUX2_X1
* cell instance $560 m0 *1 50.73,9.8
X$560 169 77 167 16 30 166 MUX2_X1
* cell instance $561 m0 *1 52.06,9.8
X$561 78 162 166 16 30 140 MUX2_X1
* cell instance $568 r0 *1 50.92,9.8
X$568 16 167 165 170 52 30 DFF_X1
* cell instance $573 m0 *1 2.47,18.2
X$573 16 280 328 279 151 30 DFF_X1
* cell instance $574 m0 *1 7.22,18.2
X$574 16 254 282 281 151 30 DFF_X1
* cell instance $575 m0 *1 10.45,18.2
X$575 283 98 263 16 30 264 MUX2_X1
* cell instance $576 m0 *1 11.78,18.2
X$576 295 264 30 16 311 AND2_X1
* cell instance $580 m0 *1 15.01,18.2
X$580 265 132 30 16 266 AND2_X1
* cell instance $592 r0 *1 3.42,18.2
X$592 236 113 328 16 30 279 MUX2_X1
* cell instance $594 r0 *1 4.94,18.2
X$594 235 156 328 16 30 499 MUX2_X1
* cell instance $598 r0 *1 8.74,18.2
X$598 221 232 282 16 30 330 MUX2_X1
* cell instance $601 r0 *1 10.64,18.2
X$601 293 238 30 16 310 AND2_X1
* cell instance $602 r0 *1 11.4,18.2
X$602 284 294 309 16 30 312 MUX2_X1
* cell instance $603 r0 *1 12.73,18.2
X$603 332 294 307 16 30 313 MUX2_X1
* cell instance $607 r0 *1 15.39,18.2
X$607 336 294 266 16 30 337 MUX2_X1
* cell instance $609 m0 *1 16.15,18.2
X$609 265 145 30 16 307 AND2_X1
* cell instance $612 r0 *1 17.29,18.2
X$612 295 155 30 16 339 AND2_X1
* cell instance $614 r0 *1 18.05,18.2
X$614 265 198 30 16 338 AND2_X1
* cell instance $616 m0 *1 20.33,18.2
X$616 185 288 287 16 30 296 MUX2_X1
* cell instance $617 m0 *1 19,18.2
X$617 286 70 258 16 30 362 MUX2_X1
* cell instance $620 m0 *1 24.89,18.2
X$620 268 288 289 16 30 346 MUX2_X1
* cell instance $621 m0 *1 26.22,18.2
X$621 295 74 30 16 269 AND2_X1
* cell instance $627 r0 *1 20.9,18.2
X$627 295 296 30 16 316 AND2_X1
* cell instance $631 r0 *1 22.99,18.2
X$631 265 140 30 16 341 AND2_X1
* cell instance $633 r0 *1 24.13,18.2
X$633 265 305 30 16 344 AND2_X1
* cell instance $636 r0 *1 25.84,18.2
X$636 295 346 30 16 348 AND2_X1
* cell instance $638 r0 *1 26.79,18.2
X$638 269 315 349 16 30 353 MUX2_X1
* cell instance $641 r0 *1 28.69,18.2
X$641 355 319 270 353 30 35 16 NOR4_X2
* cell instance $642 m0 *1 29.83,18.2
X$642 71 51 271 16 30 292 MUX2_X1
* cell instance $644 m0 *1 31.16,18.2
X$644 16 290 271 292 243 30 DFF_X1
* cell instance $645 m0 *1 34.39,18.2
X$645 271 118 245 16 30 272 MUX2_X1
* cell instance $646 m0 *1 35.72,18.2
X$646 265 227 30 16 304 AND2_X1
* cell instance $649 r0 *1 30.4,18.2
X$649 306 294 304 16 30 355 MUX2_X1
* cell instance $650 r0 *1 31.73,18.2
X$650 265 356 30 16 321 AND2_X1
* cell instance $653 r0 *1 33.06,18.2
X$653 290 366 244 16 30 297 MUX2_X1
* cell instance $654 r0 *1 34.39,18.2
X$654 297 162 298 16 30 305 MUX2_X1
* cell instance $656 r0 *1 37.24,18.2
X$656 253 293 16 30 322 NAND2_X1
* cell instance $659 m0 *1 41.23,18.2
X$659 225 75 248 16 30 325 MUX2_X1
* cell instance $660 m0 *1 39.9,18.2
X$660 251 75 223 16 30 273 MUX2_X1
* cell instance $663 m0 *1 43.51,18.2
X$663 276 85 251 16 30 274 MUX2_X1
* cell instance $667 r0 *1 40.47,18.2
X$667 109 16 30 243 CLKBUF_X3
* cell instance $668 r0 *1 41.42,18.2
X$668 276 16 30 256 BUF_X2
* cell instance $669 r0 *1 42.18,18.2
X$669 243 16 30 1038 INV_X2
* cell instance $670 r0 *1 42.75,18.2
X$670 299 70 277 16 30 438 MUX2_X1
* cell instance $671 r0 *1 44.08,18.2
X$671 299 120 277 16 30 334 MUX2_X1
* cell instance $672 r0 *1 45.41,18.2
X$672 276 51 326 16 30 335 MUX2_X1
* cell instance $673 r0 *1 46.74,18.2
X$673 276 116 299 16 30 300 MUX2_X1
* cell instance $675 m0 *1 46.74,18.2
X$675 16 1043 299 300 275 30 DFF_X1
* cell instance $678 r0 *1 50.16,18.2
X$678 16 1060 301 303 275 30 DFF_X1
* cell instance $679 m0 *1 51.3,18.2
X$679 276 119 277 16 30 278 MUX2_X1
* cell instance $681 m0 *1 52.63,18.2
X$681 16 1041 277 278 275 30 DFF_X1
* cell instance $683 r0 *1 53.39,18.2
X$683 302 16 30 276 BUF_X1
* cell instance $689 m0 *1 2.85,26.6
X$689 16 462 480 461 500 30 DFF_X1
* cell instance $690 m0 *1 6.08,26.6
X$690 16 501 520 481 500 30 DFF_X1
* cell instance $693 m0 *1 10.26,26.6
X$693 142 483 16 30 549 NOR2_X1
* cell instance $703 r0 *1 6.84,26.6
X$703 236 371 520 16 30 481 MUX2_X1
* cell instance $704 r0 *1 8.17,26.6
X$704 480 232 520 16 30 535 MUX2_X1
* cell instance $707 r0 *1 10.64,26.6
X$707 499 483 16 30 560 NOR2_X1
* cell instance $708 m0 *1 11.78,26.6
X$708 285 485 16 30 484 NOR2_X1
* cell instance $709 m0 *1 11.21,26.6
X$709 230 483 16 30 502 NOR2_X1
* cell instance $710 m0 *1 12.35,26.6
X$710 107 485 16 30 522 NOR2_X1
* cell instance $712 m0 *1 15.96,26.6
X$712 94 371 504 16 30 466 MUX2_X1
* cell instance $713 m0 *1 17.29,26.6
X$713 419 232 504 16 30 467 MUX2_X1
* cell instance $715 m0 *1 18.81,26.6
X$715 177 483 16 30 539 NOR2_X1
* cell instance $716 m0 *1 19.38,26.6
X$716 234 483 16 30 507 NOR2_X1
* cell instance $720 r0 *1 11.4,26.6
X$720 330 485 16 30 521 NOR2_X1
* cell instance $721 r0 *1 11.97,26.6
X$721 486 484 502 473 561 564 16 30 503 OAI33_X1
* cell instance $722 r0 *1 13.3,26.6
X$722 412 523 16 30 536 NOR2_X1
* cell instance $724 r0 *1 14.06,26.6
X$724 535 523 16 30 525 NOR2_X1
* cell instance $727 r0 *1 16.91,26.6
X$727 598 483 16 30 511 NOR2_X1
* cell instance $728 r0 *1 17.48,26.6
X$728 86 485 16 30 538 NOR2_X1
* cell instance $731 r0 *1 18.62,26.6
X$731 486 538 539 473 550 551 16 30 506 OAI33_X1
* cell instance $734 r0 *1 20.52,26.6
X$734 486 541 507 473 552 577 16 30 508 OAI33_X1
* cell instance $736 m0 *1 21.85,26.6
X$736 467 485 16 30 469 NOR2_X1
* cell instance $738 m0 *1 23.37,26.6
X$738 241 113 442 16 30 468 MUX2_X1
* cell instance $744 r0 *1 23.18,26.6
X$744 422 16 30 523 CLKBUF_X3
* cell instance $745 r0 *1 24.13,26.6
X$745 422 16 30 485 CLKBUF_X3
* cell instance $748 r0 *1 26.03,26.6
X$748 92 485 16 30 569 NOR2_X1
* cell instance $750 m0 *1 26.6,26.6
X$750 443 447 16 30 487 NOR2_X1
* cell instance $751 r0 *1 26.6,26.6
X$751 486 444 487 473 542 579 16 30 513 OAI33_X1
* cell instance $752 m0 *1 27.74,26.6
X$752 395 483 16 30 568 NOR2_X1
* cell instance $757 r0 *1 28.12,26.6
X$757 447 16 30 483 CLKBUF_X3
* cell instance $759 r0 *1 29.45,26.6
X$759 677 483 16 30 545 NOR2_X1
* cell instance $763 m0 *1 31.92,26.6
X$763 450 604 517 471 479 477 16 30 518 OAI33_X1
* cell instance $764 m0 *1 33.25,26.6
X$764 291 425 16 30 489 NOR2_X1
* cell instance $765 m0 *1 33.82,26.6
X$765 475 426 16 30 488 NOR2_X1
* cell instance $766 m0 *1 34.39,26.6
X$766 148 425 16 30 546 NOR2_X1
* cell instance $769 r0 *1 32.68,26.6
X$769 450 581 545 471 488 489 16 30 516 OAI33_X1
* cell instance $770 r0 *1 34.01,26.6
X$770 450 536 524 471 445 546 16 30 519 OAI33_X1
* cell instance $772 m0 *1 35.34,26.6
X$772 493 490 518 508 526 463 16 30 OAI221_X2
* cell instance $773 r0 *1 35.34,26.6
X$773 493 490 519 503 526 434 16 30 OAI221_X2
* cell instance $774 r0 *1 37.43,26.6
X$774 493 490 516 513 526 534 16 30 OAI221_X2
* cell instance $775 m0 *1 38.38,26.6
X$775 447 16 30 422 INV_X2
* cell instance $776 m0 *1 37.81,26.6
X$776 231 426 16 30 527 NOR2_X1
* cell instance $778 m0 *1 39.52,26.6
X$778 87 426 16 30 476 NOR2_X1
* cell instance $782 m0 *1 41.04,26.6
X$782 325 425 16 30 543 NOR2_X1
* cell instance $785 r0 *1 40.28,26.6
X$785 645 544 473 528 543 486 16 30 515 OAI33_X1
* cell instance $792 r0 *1 2.09,15.4
X$792 16 250 235 228 151 30 DFF_X1
* cell instance $796 m0 *1 3.42,15.4
X$796 160 85 235 16 30 228 MUX2_X1
* cell instance $799 m0 *1 5.32,15.4
X$799 160 16 30 236 BUF_X2
* cell instance $804 r0 *1 5.51,15.4
X$804 250 58 280 16 30 283 MUX2_X1
* cell instance $805 r0 *1 6.84,15.4
X$805 236 67 282 16 30 281 MUX2_X1
* cell instance $808 m0 *1 10.26,15.4
X$808 237 58 254 16 30 263 MUX2_X1
* cell instance $812 m0 *1 16.34,15.4
X$812 16 259 258 257 197 30 DFF_X1
* cell instance $814 r0 *1 8.17,15.4
X$814 16 237 221 252 151 30 DFF_X1
* cell instance $816 r0 *1 11.59,15.4
X$816 109 16 30 151 CLKBUF_X3
* cell instance $817 r0 *1 12.54,15.4
X$817 295 144 30 16 284 AND2_X1
* cell instance $818 r0 *1 13.3,15.4
X$818 151 16 30 CLKBUF_X1
* cell instance $822 r0 *1 15.96,15.4
X$822 222 67 258 16 30 257 MUX2_X1
* cell instance $823 r0 *1 17.29,15.4
X$823 16 239 286 267 197 30 DFF_X1
* cell instance $825 m0 *1 19.95,15.4
X$825 239 58 259 16 30 287 MUX2_X1
* cell instance $827 r0 *1 20.52,15.4
X$827 109 16 30 197 CLKBUF_X3
* cell instance $828 r0 *1 21.47,15.4
X$828 197 16 30 1036 INV_X2
* cell instance $833 m0 *1 3.04,51.8
X$833 965 778 171 16 30 984 MUX2_X1
* cell instance $834 m0 *1 4.37,51.8
X$834 16 985 965 984 812 30 DFF_X1
* cell instance $835 m0 *1 7.6,51.8
X$835 965 693 966 16 30 633 MUX2_X1
* cell instance $837 m0 *1 9.69,51.8
X$837 986 857 171 16 30 967 MUX2_X1
* cell instance $838 m0 *1 11.02,51.8
X$838 968 856 171 16 30 999 MUX2_X1
* cell instance $849 r0 *1 7.22,51.8
X$849 966 786 171 16 30 997 MUX2_X1
* cell instance $850 r0 *1 8.55,51.8
X$850 985 366 1009 16 30 1010 MUX2_X1
* cell instance $851 r0 *1 9.88,51.8
X$851 16 998 986 967 816 30 DFF_X1
* cell instance $853 m0 *1 12.73,51.8
X$853 986 729 968 16 30 635 MUX2_X1
* cell instance $855 r0 *1 13.11,51.8
X$855 998 366 992 16 30 1011 MUX2_X1
* cell instance $856 r0 *1 14.44,51.8
X$856 1010 379 1011 16 30 375 MUX2_X1
* cell instance $857 r0 *1 15.77,51.8
X$857 970 857 222 16 30 1000 MUX2_X1
* cell instance $859 m0 *1 15.96,51.8
X$859 16 956 941 969 816 30 DFF_X1
* cell instance $861 r0 *1 17.1,51.8
X$861 16 993 970 1000 816 30 DFF_X1
* cell instance $863 m0 *1 20.33,51.8
X$863 970 729 994 16 30 576 MUX2_X1
* cell instance $864 m0 *1 22.42,51.8
X$864 912 786 88 16 30 990 MUX2_X1
* cell instance $865 m0 *1 23.75,51.8
X$865 16 958 912 990 834 30 DFF_X1
* cell instance $867 m0 *1 27.74,51.8
X$867 971 729 972 16 30 605 MUX2_X1
* cell instance $871 r0 *1 20.33,51.8
X$871 993 366 1013 16 30 1001 MUX2_X1
* cell instance $872 r0 *1 21.66,51.8
X$872 957 379 1001 16 30 776 MUX2_X1
* cell instance $875 r0 *1 23.94,51.8
X$875 972 856 88 16 30 1014 MUX2_X1
* cell instance $876 r0 *1 25.27,51.8
X$876 16 1016 972 1014 834 30 DFF_X1
* cell instance $877 r0 *1 28.5,51.8
X$877 1002 366 1016 16 30 928 MUX2_X1
* cell instance $880 m0 *1 31.73,51.8
X$880 16 786 991 623 827 30 AOI21_X4
* cell instance $881 m0 *1 34.39,51.8
X$881 973 959 1025 30 16 974 HA_X1
* cell instance $883 r0 *1 32.87,51.8
X$883 973 1017 1019 30 16 929 HA_X1
* cell instance $885 r0 *1 34.96,51.8
X$885 960 1017 1027 30 16 930 HA_X1
* cell instance $887 m0 *1 36.67,51.8
X$887 885 974 884 16 30 991 NAND3_X2
* cell instance $888 m0 *1 38.19,51.8
X$888 973 709 30 16 975 AND2_X1
* cell instance $889 m0 *1 38.95,51.8
X$889 960 495 30 16 976 AND2_X1
* cell instance $893 r0 *1 36.86,51.8
X$893 1019 709 30 16 1003 AND2_X1
* cell instance $894 r0 *1 37.62,51.8
X$894 959 495 30 16 1020 AND2_X1
* cell instance $895 r0 *1 38.38,51.8
X$895 975 886 976 16 30 1005 MUX2_X1
* cell instance $898 r0 *1 41.61,51.8
X$898 1021 856 977 16 30 1006 MUX2_X1
* cell instance $900 m0 *1 42.37,51.8
X$900 707 978 16 30 977 NOR2_X1
* cell instance $902 m0 *1 43.89,51.8
X$902 709 16 30 495 BUF_X2
* cell instance $903 m0 *1 44.65,51.8
X$903 707 962 16 30 979 NOR2_X1
* cell instance $904 m0 *1 45.22,51.8
X$904 978 962 30 16 989 XNOR2_X1
* cell instance $906 r0 *1 42.94,51.8
X$906 978 709 30 16 1021 AND2_X1
* cell instance $908 r0 *1 43.89,51.8
X$908 962 709 30 16 995 AND2_X1
* cell instance $909 r0 *1 44.65,51.8
X$909 995 838 979 16 30 1022 MUX2_X1
* cell instance $911 m0 *1 46.74,51.8
X$911 989 988 30 823 16 XOR2_X2
* cell instance $912 m0 *1 48.45,51.8
X$912 987 840 980 981 963 988 30 16 AOI221_X2
* cell instance $913 m0 *1 50.54,51.8
X$913 1023 996 987 933 1008 867 30 16 AOI221_X2
* cell instance $915 m0 *1 53.39,51.8
X$915 982 16 30 892 CLKBUF_X2
* cell instance $916 m0 *1 54.15,51.8
X$916 982 16 30 983 BUF_X1
* cell instance $917 m0 *1 54.72,51.8
X$917 934 16 30 915 BUF_X1
* cell instance $918 m0 *1 55.29,51.8
X$918 964 16 30 935 BUF_X1
* cell instance $921 r0 *1 49.21,51.8
X$921 932 16 30 996 INV_X1
* cell instance $922 r0 *1 49.59,51.8
X$922 933 1024 30 16 1023 AND2_X1
* cell instance $923 r0 *1 50.35,51.8
X$923 16 959 981 982 996 710 30 FA_X1
* cell instance $930 m0 *1 1.52,7
X$930 16 105 114 122 36 30 DFF_X1
* cell instance $932 m0 *1 4.94,7
X$932 18 85 65 16 30 80 MUX2_X1
* cell instance $934 m0 *1 6.46,7
X$934 38 58 105 16 30 125 MUX2_X1
* cell instance $946 r0 *1 4.18,7
X$946 37 113 114 16 30 122 MUX2_X1
* cell instance $948 r0 *1 5.89,7
X$948 65 156 114 16 30 142 MUX2_X1
* cell instance $951 r0 *1 10.64,7
X$951 125 98 41 16 30 144 MUX2_X1
* cell instance $953 m0 *1 11.21,7
X$953 66 70 39 16 30 107 MUX2_X1
* cell instance $954 m0 *1 12.73,7
X$954 94 67 43 16 30 68 MUX2_X1
* cell instance $956 m0 *1 14.25,7
X$956 109 16 30 36 CLKBUF_X3
* cell instance $957 m0 *1 15.2,7
X$957 42 58 108 16 30 111 MUX2_X1
* cell instance $958 m0 *1 16.53,7
X$958 69 16 30 94 BUF_X2
* cell instance $962 m0 *1 23.75,7
X$962 131 157 97 16 30 73 MUX2_X1
* cell instance $963 m0 *1 25.08,7
X$963 73 98 90 16 30 74 MUX2_X1
* cell instance $969 r0 *1 14.25,7
X$969 36 16 30 1037 INV_X2
* cell instance $970 r0 *1 14.82,7
X$970 94 113 135 16 30 127 MUX2_X1
* cell instance $971 r0 *1 16.15,7
X$971 16 130 135 127 36 30 DFF_X1
* cell instance $972 r0 *1 19.38,7
X$972 96 157 130 16 30 175 MUX2_X1
* cell instance $978 r0 *1 28.88,7
X$978 25 119 133 16 30 99 MUX2_X1
* cell instance $980 m0 *1 32.49,7
X$980 46 120 112 16 30 117 MUX2_X1
* cell instance $983 r0 *1 30.21,7
X$983 71 116 149 16 30 137 MUX2_X1
* cell instance $984 r0 *1 31.54,7
X$984 22 118 133 16 30 148 MUX2_X1
* cell instance $986 r0 *1 33.06,7
X$986 93 162 117 16 30 132 MUX2_X1
* cell instance $988 r0 *1 35.15,7
X$988 160 119 76 16 30 100 MUX2_X1