* CDL Netlist generated by OpenROAD

*.BUSDELIMITER [

.SUBCKT true_random_generator clk data_valid enable entropy_low
+ random_data[0] random_data[10] random_data[11] random_data[12]
+ random_data[13] random_data[14] random_data[15] random_data[16]
+ random_data[17] random_data[18] random_data[19] random_data[1]
+ random_data[20] random_data[21] random_data[22] random_data[23]
+ random_data[24] random_data[25] random_data[26] random_data[27]
+ random_data[28] random_data[29] random_data[2] random_data[30]
+ random_data[31] random_data[3] random_data[4] random_data[5]
+ random_data[6] random_data[7] random_data[8] random_data[9]
+ read_next rst_n test_failed
X_0576_ state\[0\] state\[1\] VSS VSS VDD VDD _0141_ sky130_fd_sc_hd__nor2b_2
X_0577_ _0141_ VSS VSS VDD VDD _0142_ sky130_fd_sc_hd__clkbuf_2
X_0578_ mixed_output\[1\] _0142_ VSS VSS VDD VDD net15 sky130_fd_sc_hd__and2_0
X_0579_ mixed_output\[0\] _0142_ VSS VSS VDD VDD net4 sky130_fd_sc_hd__and2_0
X_0580_ mixed_output\[3\] _0142_ VSS VSS VDD VDD net29 sky130_fd_sc_hd__and2_0
X_0581_ mixed_output\[2\] _0141_ VSS VSS VDD VDD net26 sky130_fd_sc_hd__and2_0
X_0582_ mixed_output\[5\] _0142_ VSS VSS VDD VDD net31 sky130_fd_sc_hd__and2_0
X_0583_ mixed_output\[4\] _0142_ VSS VSS VDD VDD net30 sky130_fd_sc_hd__and2_0
X_0584_ mixed_output\[7\] _0142_ VSS VSS VDD VDD net33 sky130_fd_sc_hd__and2_0
X_0585_ mixed_output\[6\] _0142_ VSS VSS VDD VDD net32 sky130_fd_sc_hd__and2_0
X_0586_ mixed_output\[9\] _0142_ VSS VSS VDD VDD net35 sky130_fd_sc_hd__and2_0
X_0587_ mixed_output\[8\] _0142_ VSS VSS VDD VDD net34 sky130_fd_sc_hd__and2_0
X_0588_ mixed_output\[11\] _0142_ VSS VSS VDD VDD net6 sky130_fd_sc_hd__and2_0
X_0589_ _0141_ VSS VSS VDD VDD _0143_ sky130_fd_sc_hd__clkbuf_2
X_0590_ mixed_output\[10\] _0143_ VSS VSS VDD VDD net5 sky130_fd_sc_hd__and2_0
X_0591_ mixed_output\[13\] _0143_ VSS VSS VDD VDD net8 sky130_fd_sc_hd__and2_0
X_0592_ mixed_output\[12\] _0143_ VSS VSS VDD VDD net7 sky130_fd_sc_hd__and2_0
X_0593_ mixed_output\[15\] _0143_ VSS VSS VDD VDD net10 sky130_fd_sc_hd__and2_0
X_0594_ mixed_output\[14\] _0143_ VSS VSS VDD VDD net9 sky130_fd_sc_hd__and2_0
X_0595_ mixed_output\[17\] _0143_ VSS VSS VDD VDD net12 sky130_fd_sc_hd__and2_0
X_0596_ mixed_output\[16\] _0143_ VSS VSS VDD VDD net11 sky130_fd_sc_hd__and2_0
X_0597_ mixed_output\[19\] _0143_ VSS VSS VDD VDD net14 sky130_fd_sc_hd__and2_0
X_0598_ mixed_output\[18\] _0143_ VSS VSS VDD VDD net13 sky130_fd_sc_hd__and2_0
X_0599_ mixed_output\[21\] _0143_ VSS VSS VDD VDD net17 sky130_fd_sc_hd__and2_0
X_0600_ _0141_ VSS VSS VDD VDD _0144_ sky130_fd_sc_hd__clkbuf_2
X_0601_ mixed_output\[20\] _0144_ VSS VSS VDD VDD net16 sky130_fd_sc_hd__and2_0
X_0602_ mixed_output\[23\] _0144_ VSS VSS VDD VDD net19 sky130_fd_sc_hd__and2_0
X_0603_ mixed_output\[22\] _0144_ VSS VSS VDD VDD net18 sky130_fd_sc_hd__and2_0
X_0604_ mixed_output\[25\] _0144_ VSS VSS VDD VDD net21 sky130_fd_sc_hd__and2_0
X_0605_ mixed_output\[24\] _0144_ VSS VSS VDD VDD net20 sky130_fd_sc_hd__and2_0
X_0606_ mixed_output\[27\] _0144_ VSS VSS VDD VDD net23 sky130_fd_sc_hd__and2_0
X_0607_ mixed_output\[26\] _0144_ VSS VSS VDD VDD net22 sky130_fd_sc_hd__and2_0
X_0608_ mixed_output\[29\] _0144_ VSS VSS VDD VDD net25 sky130_fd_sc_hd__and2_0
X_0609_ mixed_output\[28\] _0144_ VSS VSS VDD VDD net24 sky130_fd_sc_hd__and2_0
X_0610_ mixed_output\[31\] _0144_ VSS VSS VDD VDD net28 sky130_fd_sc_hd__and2_0
X_0611_ mixed_output\[30\] _0141_ VSS VSS VDD VDD net27 sky130_fd_sc_hd__and2_0
X_0612_ rst_n VSS VSS VDD VDD _0145_ sky130_fd_sc_hd__clkbuf_4
X_0613_ _0145_ VSS VSS VDD VDD _0146_ sky130_fd_sc_hd__inv_1
X_0614_ _0146_ VSS VSS VDD VDD _0147_ sky130_fd_sc_hd__clkbuf_4
X_0615_ _0147_ VSS VSS VDD VDD _0000_ sky130_fd_sc_hd__clkbuf_4
X_0616_ health_counter\[0\] VSS VSS VDD VDD _0570_ sky130_fd_sc_hd__inv_1
X_0617_ health_counter\[1\] VSS VSS VDD VDD _0571_ sky130_fd_sc_hd__inv_1
X_0618_ gen_ring_osc.init_osc gen_ring_osc.inv_chain\[1\]
+ VSS VSS VDD VDD gen_ring_osc.inv_chain\[1\] sky130_fd_sc_hd__or2_0
X_0619_ state\[0\] state\[1\] _0145_ VSS VSS VDD VDD _0148_
+ sky130_fd_sc_hd__nand3b_4
X_0620_ _0148_ VSS VSS VDD VDD _0149_ sky130_fd_sc_hd__inv_1
X_0621_ _0149_ VSS VSS VDD VDD _0001_ sky130_fd_sc_hd__buf_2
X_0622_ _0145_ VSS VSS VDD VDD _0150_ sky130_fd_sc_hd__clkbuf_4
X_0623_ _0150_ VSS VSS VDD VDD _0151_ sky130_fd_sc_hd__clkbuf_4
X_0624_ enable VSS VSS VDD VDD _0152_ sky130_fd_sc_hd__clkbuf_2
X_0625_ state\[1\] state\[0\] VSS VSS VDD VDD _0153_ sky130_fd_sc_hd__nor2b_2
X_0626_ _0152_ _0153_ VSS VSS VDD VDD _0154_ sky130_fd_sc_hd__nand2_1
X_0627_ _0154_ VSS VSS VDD VDD _0155_ sky130_fd_sc_hd__buf_2
X_0628_ _0155_ VSS VSS VDD VDD _0156_ sky130_fd_sc_hd__buf_2
X_0629_ entropy_pool2\[0\] _0156_ VSS VSS VDD VDD _0157_ sky130_fd_sc_hd__nand2_1
X_0630_ _0152_ _0153_ VSS VSS VDD VDD _0158_ sky130_fd_sc_hd__and2_0
X_0631_ _0158_ VSS VSS VDD VDD _0159_ sky130_fd_sc_hd__buf_2
X_0632_ _0159_ VSS VSS VDD VDD _0160_ sky130_fd_sc_hd__buf_2
X_0633_ entropy_pool2\[1\] _0160_ VSS VSS VDD VDD _0161_ sky130_fd_sc_hd__nand2_1
X_0634_ _0151_ _0157_ _0161_ VSS VSS VDD VDD _0002_ sky130_fd_sc_hd__nand3_1
X_0635_ entropy_pool2\[10\] _0156_ VSS VSS VDD VDD _0162_
+ sky130_fd_sc_hd__nand2_1
X_0636_ entropy_pool2\[11\] _0160_ VSS VSS VDD VDD _0163_
+ sky130_fd_sc_hd__nand2_1
X_0637_ _0151_ _0162_ _0163_ VSS VSS VDD VDD _0003_ sky130_fd_sc_hd__nand3_1
X_0638_ entropy_pool2\[11\] _0156_ VSS VSS VDD VDD _0164_
+ sky130_fd_sc_hd__nand2_1
X_0639_ entropy_pool2\[12\] _0160_ VSS VSS VDD VDD _0165_
+ sky130_fd_sc_hd__nand2_1
X_0640_ _0151_ _0164_ _0165_ VSS VSS VDD VDD _0004_ sky130_fd_sc_hd__nand3_1
X_0641_ _0150_ VSS VSS VDD VDD _0166_ sky130_fd_sc_hd__buf_2
X_0642_ entropy_pool2\[12\] _0156_ VSS VSS VDD VDD _0167_
+ sky130_fd_sc_hd__nand2_1
X_0643_ entropy_pool2\[13\] _0160_ VSS VSS VDD VDD _0168_
+ sky130_fd_sc_hd__nand2_1
X_0644_ _0166_ _0167_ _0168_ VSS VSS VDD VDD _0005_ sky130_fd_sc_hd__nand3_1
X_0645_ entropy_pool2\[13\] _0156_ VSS VSS VDD VDD _0169_
+ sky130_fd_sc_hd__nand2_1
X_0646_ entropy_pool2\[14\] _0160_ VSS VSS VDD VDD _0170_
+ sky130_fd_sc_hd__nand2_1
X_0647_ _0166_ _0169_ _0170_ VSS VSS VDD VDD _0006_ sky130_fd_sc_hd__nand3_1
X_0648_ entropy_pool2\[14\] _0156_ VSS VSS VDD VDD _0171_
+ sky130_fd_sc_hd__nand2_1
X_0649_ entropy_pool2\[15\] _0160_ VSS VSS VDD VDD _0172_
+ sky130_fd_sc_hd__nand2_1
X_0650_ _0166_ _0171_ _0172_ VSS VSS VDD VDD _0007_ sky130_fd_sc_hd__nand3_1
X_0651_ entropy_pool2\[15\] _0156_ VSS VSS VDD VDD _0173_
+ sky130_fd_sc_hd__nand2_1
X_0652_ entropy_pool2\[16\] _0160_ VSS VSS VDD VDD _0174_
+ sky130_fd_sc_hd__nand2_1
X_0653_ _0166_ _0173_ _0174_ VSS VSS VDD VDD _0008_ sky130_fd_sc_hd__nand3_1
X_0654_ entropy_pool2\[16\] _0156_ VSS VSS VDD VDD _0175_
+ sky130_fd_sc_hd__nand2_1
X_0655_ entropy_pool2\[17\] _0160_ VSS VSS VDD VDD _0176_
+ sky130_fd_sc_hd__nand2_1
X_0656_ _0166_ _0175_ _0176_ VSS VSS VDD VDD _0009_ sky130_fd_sc_hd__nand3_1
X_0657_ entropy_pool2\[17\] _0156_ VSS VSS VDD VDD _0177_
+ sky130_fd_sc_hd__nand2_1
X_0658_ entropy_pool2\[18\] _0160_ VSS VSS VDD VDD _0178_
+ sky130_fd_sc_hd__nand2_1
X_0659_ _0166_ _0177_ _0178_ VSS VSS VDD VDD _0010_ sky130_fd_sc_hd__nand3_1
X_0660_ entropy_pool2\[18\] _0156_ VSS VSS VDD VDD _0179_
+ sky130_fd_sc_hd__nand2_1
X_0661_ entropy_pool2\[19\] _0160_ VSS VSS VDD VDD _0180_
+ sky130_fd_sc_hd__nand2_1
X_0662_ _0166_ _0179_ _0180_ VSS VSS VDD VDD _0011_ sky130_fd_sc_hd__nand3_1
X_0663_ _0155_ VSS VSS VDD VDD _0181_ sky130_fd_sc_hd__buf_2
X_0664_ entropy_pool2\[19\] _0181_ VSS VSS VDD VDD _0182_
+ sky130_fd_sc_hd__nand2_1
X_0665_ _0159_ VSS VSS VDD VDD _0183_ sky130_fd_sc_hd__buf_2
X_0666_ entropy_pool2\[20\] _0183_ VSS VSS VDD VDD _0184_
+ sky130_fd_sc_hd__nand2_1
X_0667_ _0166_ _0182_ _0184_ VSS VSS VDD VDD _0012_ sky130_fd_sc_hd__nand3_1
X_0668_ entropy_pool2\[1\] _0181_ VSS VSS VDD VDD _0185_ sky130_fd_sc_hd__nand2_1
X_0669_ entropy_pool2\[2\] _0183_ VSS VSS VDD VDD _0186_ sky130_fd_sc_hd__nand2_1
X_0670_ _0166_ _0185_ _0186_ VSS VSS VDD VDD _0013_ sky130_fd_sc_hd__nand3_1
X_0671_ entropy_pool2\[20\] _0181_ VSS VSS VDD VDD _0187_
+ sky130_fd_sc_hd__nand2_1
X_0672_ entropy_pool2\[21\] _0183_ VSS VSS VDD VDD _0188_
+ sky130_fd_sc_hd__nand2_1
X_0673_ _0166_ _0187_ _0188_ VSS VSS VDD VDD _0014_ sky130_fd_sc_hd__nand3_1
X_0674_ _0150_ VSS VSS VDD VDD _0189_ sky130_fd_sc_hd__buf_2
X_0675_ entropy_pool2\[21\] _0181_ VSS VSS VDD VDD _0190_
+ sky130_fd_sc_hd__nand2_1
X_0676_ entropy_pool2\[22\] _0183_ VSS VSS VDD VDD _0191_
+ sky130_fd_sc_hd__nand2_1
X_0677_ _0189_ _0190_ _0191_ VSS VSS VDD VDD _0015_ sky130_fd_sc_hd__nand3_1
X_0678_ entropy_pool2\[22\] _0181_ VSS VSS VDD VDD _0192_
+ sky130_fd_sc_hd__nand2_1
X_0679_ entropy_pool2\[23\] _0183_ VSS VSS VDD VDD _0193_
+ sky130_fd_sc_hd__nand2_1
X_0680_ _0189_ _0192_ _0193_ VSS VSS VDD VDD _0016_ sky130_fd_sc_hd__nand3_1
X_0681_ entropy_pool2\[23\] _0181_ VSS VSS VDD VDD _0194_
+ sky130_fd_sc_hd__nand2_1
X_0682_ entropy_pool2\[24\] _0183_ VSS VSS VDD VDD _0195_
+ sky130_fd_sc_hd__nand2_1
X_0683_ _0189_ _0194_ _0195_ VSS VSS VDD VDD _0017_ sky130_fd_sc_hd__nand3_1
X_0684_ entropy_pool2\[24\] _0181_ VSS VSS VDD VDD _0196_
+ sky130_fd_sc_hd__nand2_1
X_0685_ entropy_pool2\[25\] _0183_ VSS VSS VDD VDD _0197_
+ sky130_fd_sc_hd__nand2_1
X_0686_ _0189_ _0196_ _0197_ VSS VSS VDD VDD _0018_ sky130_fd_sc_hd__nand3_1
X_0687_ entropy_pool2\[25\] _0181_ VSS VSS VDD VDD _0198_
+ sky130_fd_sc_hd__nand2_1
X_0688_ entropy_pool2\[26\] _0183_ VSS VSS VDD VDD _0199_
+ sky130_fd_sc_hd__nand2_1
X_0689_ _0189_ _0198_ _0199_ VSS VSS VDD VDD _0019_ sky130_fd_sc_hd__nand3_1
X_0690_ entropy_pool2\[26\] _0181_ VSS VSS VDD VDD _0200_
+ sky130_fd_sc_hd__nand2_1
X_0691_ entropy_pool2\[27\] _0183_ VSS VSS VDD VDD _0201_
+ sky130_fd_sc_hd__nand2_1
X_0692_ _0189_ _0200_ _0201_ VSS VSS VDD VDD _0020_ sky130_fd_sc_hd__nand3_1
X_0693_ entropy_pool2\[27\] _0181_ VSS VSS VDD VDD _0202_
+ sky130_fd_sc_hd__nand2_1
X_0694_ entropy_pool2\[28\] _0183_ VSS VSS VDD VDD _0203_
+ sky130_fd_sc_hd__nand2_1
X_0695_ _0189_ _0202_ _0203_ VSS VSS VDD VDD _0021_ sky130_fd_sc_hd__nand3_1
X_0696_ _0155_ VSS VSS VDD VDD _0204_ sky130_fd_sc_hd__buf_2
X_0697_ entropy_pool2\[28\] _0204_ VSS VSS VDD VDD _0205_
+ sky130_fd_sc_hd__nand2_1
X_0698_ _0159_ VSS VSS VDD VDD _0206_ sky130_fd_sc_hd__buf_2
X_0699_ entropy_pool2\[29\] _0206_ VSS VSS VDD VDD _0207_
+ sky130_fd_sc_hd__nand2_1
X_0700_ _0189_ _0205_ _0207_ VSS VSS VDD VDD _0022_ sky130_fd_sc_hd__nand3_1
X_0701_ entropy_pool2\[29\] _0204_ VSS VSS VDD VDD _0208_
+ sky130_fd_sc_hd__nand2_1
X_0702_ entropy_pool2\[30\] _0206_ VSS VSS VDD VDD _0209_
+ sky130_fd_sc_hd__nand2_1
X_0703_ _0189_ _0208_ _0209_ VSS VSS VDD VDD _0023_ sky130_fd_sc_hd__nand3_1
X_0704_ entropy_pool2\[2\] _0204_ VSS VSS VDD VDD _0210_ sky130_fd_sc_hd__nand2_1
X_0705_ entropy_pool2\[3\] _0206_ VSS VSS VDD VDD _0211_ sky130_fd_sc_hd__nand2_1
X_0706_ _0189_ _0210_ _0211_ VSS VSS VDD VDD _0024_ sky130_fd_sc_hd__nand3_1
X_0707_ _0150_ VSS VSS VDD VDD _0212_ sky130_fd_sc_hd__buf_2
X_0708_ entropy_pool2\[30\] _0204_ VSS VSS VDD VDD _0213_
+ sky130_fd_sc_hd__nand2_1
X_0709_ entropy_pool2\[31\] _0206_ VSS VSS VDD VDD _0214_
+ sky130_fd_sc_hd__nand2_1
X_0710_ _0212_ _0213_ _0214_ VSS VSS VDD VDD _0025_ sky130_fd_sc_hd__nand3_1
X_0711_ _0154_ VSS VSS VDD VDD _0215_ sky130_fd_sc_hd__buf_2
X_0712_ entropy_pool2\[0\] gen_ring_osc.toggle_sampling VSS
+ VSS VDD VDD _0216_ sky130_fd_sc_hd__xnor2_1
X_0713_ entropy_pool2\[31\] _0215_ VSS VSS VDD VDD _0217_
+ sky130_fd_sc_hd__nand2_1
X_0714_ _0215_ _0216_ _0217_ _0212_ VSS VSS VDD VDD _0026_
+ sky130_fd_sc_hd__o211ai_1
X_0715_ entropy_pool2\[3\] _0204_ VSS VSS VDD VDD _0218_ sky130_fd_sc_hd__nand2_1
X_0716_ entropy_pool2\[4\] _0206_ VSS VSS VDD VDD _0219_ sky130_fd_sc_hd__nand2_1
X_0717_ _0212_ _0218_ _0219_ VSS VSS VDD VDD _0027_ sky130_fd_sc_hd__nand3_1
X_0718_ entropy_pool2\[4\] _0204_ VSS VSS VDD VDD _0220_ sky130_fd_sc_hd__nand2_1
X_0719_ entropy_pool2\[5\] _0206_ VSS VSS VDD VDD _0221_ sky130_fd_sc_hd__nand2_1
X_0720_ _0212_ _0220_ _0221_ VSS VSS VDD VDD _0028_ sky130_fd_sc_hd__nand3_1
X_0721_ entropy_pool2\[5\] _0204_ VSS VSS VDD VDD _0222_ sky130_fd_sc_hd__nand2_1
X_0722_ entropy_pool2\[6\] _0206_ VSS VSS VDD VDD _0223_ sky130_fd_sc_hd__nand2_1
X_0723_ _0212_ _0222_ _0223_ VSS VSS VDD VDD _0029_ sky130_fd_sc_hd__nand3_1
X_0724_ entropy_pool2\[6\] _0204_ VSS VSS VDD VDD _0224_ sky130_fd_sc_hd__nand2_1
X_0725_ entropy_pool2\[7\] _0206_ VSS VSS VDD VDD _0225_ sky130_fd_sc_hd__nand2_1
X_0726_ _0212_ _0224_ _0225_ VSS VSS VDD VDD _0030_ sky130_fd_sc_hd__nand3_1
X_0727_ entropy_pool2\[7\] _0204_ VSS VSS VDD VDD _0226_ sky130_fd_sc_hd__nand2_1
X_0728_ entropy_pool2\[8\] _0206_ VSS VSS VDD VDD _0227_ sky130_fd_sc_hd__nand2_1
X_0729_ _0212_ _0226_ _0227_ VSS VSS VDD VDD _0031_ sky130_fd_sc_hd__nand3_1
X_0730_ entropy_pool2\[8\] _0204_ VSS VSS VDD VDD _0228_ sky130_fd_sc_hd__nand2_1
X_0731_ entropy_pool2\[9\] _0206_ VSS VSS VDD VDD _0229_ sky130_fd_sc_hd__nand2_1
X_0732_ _0212_ _0228_ _0229_ VSS VSS VDD VDD _0032_ sky130_fd_sc_hd__nand3_1
X_0733_ entropy_pool2\[9\] _0215_ VSS VSS VDD VDD _0230_ sky130_fd_sc_hd__nand2_1
X_0734_ _0159_ VSS VSS VDD VDD _0231_ sky130_fd_sc_hd__buf_4
X_0735_ entropy_pool2\[10\] _0231_ VSS VSS VDD VDD _0232_
+ sky130_fd_sc_hd__nand2_1
X_0736_ _0212_ _0230_ _0232_ VSS VSS VDD VDD _0033_ sky130_fd_sc_hd__nand3_1
X_0737_ entropy_pool\[31\] gen_ring_osc.toggle_sampling VSS
+ VSS VDD VDD _0233_ sky130_fd_sc_hd__xnor2_1
X_0738_ entropy_pool\[0\] _0215_ VSS VSS VDD VDD _0234_ sky130_fd_sc_hd__nand2_1
X_0739_ _0215_ _0233_ _0234_ _0212_ VSS VSS VDD VDD _0034_
+ sky130_fd_sc_hd__o211ai_1
X_0740_ entropy_pool\[9\] _0231_ VSS VSS VDD VDD _0235_ sky130_fd_sc_hd__nand2_1
X_0741_ entropy_pool\[10\] _0215_ VSS VSS VDD VDD _0236_ sky130_fd_sc_hd__nand2_1
X_0742_ _0146_ VSS VSS VDD VDD _0237_ sky130_fd_sc_hd__clkbuf_4
X_0743_ _0235_ _0236_ _0237_ VSS VSS VDD VDD _0035_ sky130_fd_sc_hd__a21oi_1
X_0744_ entropy_pool\[10\] _0231_ VSS VSS VDD VDD _0238_ sky130_fd_sc_hd__nand2_1
X_0745_ entropy_pool\[11\] _0215_ VSS VSS VDD VDD _0239_ sky130_fd_sc_hd__nand2_1
X_0746_ _0238_ _0239_ _0237_ VSS VSS VDD VDD _0036_ sky130_fd_sc_hd__a21oi_1
X_0747_ entropy_pool\[11\] _0231_ VSS VSS VDD VDD _0240_ sky130_fd_sc_hd__nand2_1
X_0748_ entropy_pool\[12\] _0215_ VSS VSS VDD VDD _0241_ sky130_fd_sc_hd__nand2_1
X_0749_ _0240_ _0241_ _0237_ VSS VSS VDD VDD _0037_ sky130_fd_sc_hd__a21oi_1
X_0750_ entropy_pool\[12\] _0231_ VSS VSS VDD VDD _0242_ sky130_fd_sc_hd__nand2_1
X_0751_ entropy_pool\[13\] _0215_ VSS VSS VDD VDD _0243_ sky130_fd_sc_hd__nand2_1
X_0752_ _0147_ VSS VSS VDD VDD _0244_ sky130_fd_sc_hd__buf_2
X_0753_ _0242_ _0243_ _0244_ VSS VSS VDD VDD _0038_ sky130_fd_sc_hd__a21oi_1
X_0754_ entropy_pool\[13\] _0231_ VSS VSS VDD VDD _0245_ sky130_fd_sc_hd__nand2_1
X_0755_ entropy_pool\[14\] _0215_ VSS VSS VDD VDD _0246_ sky130_fd_sc_hd__nand2_1
X_0756_ _0245_ _0246_ _0244_ VSS VSS VDD VDD _0039_ sky130_fd_sc_hd__a21oi_1
X_0757_ entropy_pool\[14\] _0231_ VSS VSS VDD VDD _0247_ sky130_fd_sc_hd__nand2_1
X_0758_ _0155_ VSS VSS VDD VDD _0248_ sky130_fd_sc_hd__buf_2
X_0759_ entropy_pool\[15\] _0248_ VSS VSS VDD VDD _0249_ sky130_fd_sc_hd__nand2_1
X_0760_ _0247_ _0249_ _0244_ VSS VSS VDD VDD _0040_ sky130_fd_sc_hd__a21oi_1
X_0761_ entropy_pool\[15\] _0231_ VSS VSS VDD VDD _0250_ sky130_fd_sc_hd__nand2_1
X_0762_ entropy_pool\[16\] _0248_ VSS VSS VDD VDD _0251_ sky130_fd_sc_hd__nand2_1
X_0763_ _0250_ _0251_ _0244_ VSS VSS VDD VDD _0041_ sky130_fd_sc_hd__a21oi_1
X_0764_ entropy_pool\[16\] _0231_ VSS VSS VDD VDD _0252_ sky130_fd_sc_hd__nand2_1
X_0765_ entropy_pool\[17\] _0248_ VSS VSS VDD VDD _0253_ sky130_fd_sc_hd__nand2_1
X_0766_ _0252_ _0253_ _0244_ VSS VSS VDD VDD _0042_ sky130_fd_sc_hd__a21oi_1
X_0767_ entropy_pool\[17\] _0231_ VSS VSS VDD VDD _0254_ sky130_fd_sc_hd__nand2_1
X_0768_ entropy_pool\[18\] _0248_ VSS VSS VDD VDD _0255_ sky130_fd_sc_hd__nand2_1
X_0769_ _0254_ _0255_ _0244_ VSS VSS VDD VDD _0043_ sky130_fd_sc_hd__a21oi_1
X_0770_ _0159_ VSS VSS VDD VDD _0256_ sky130_fd_sc_hd__buf_4
X_0771_ entropy_pool\[18\] _0256_ VSS VSS VDD VDD _0257_ sky130_fd_sc_hd__nand2_1
X_0772_ entropy_pool\[19\] _0248_ VSS VSS VDD VDD _0258_ sky130_fd_sc_hd__nand2_1
X_0773_ _0257_ _0258_ _0244_ VSS VSS VDD VDD _0044_ sky130_fd_sc_hd__a21oi_1
X_0774_ entropy_pool\[0\] _0256_ VSS VSS VDD VDD _0259_ sky130_fd_sc_hd__nand2_1
X_0775_ entropy_pool\[1\] _0248_ VSS VSS VDD VDD _0260_ sky130_fd_sc_hd__nand2_1
X_0776_ _0259_ _0260_ _0244_ VSS VSS VDD VDD _0045_ sky130_fd_sc_hd__a21oi_1
X_0777_ entropy_pool\[19\] _0256_ VSS VSS VDD VDD _0261_ sky130_fd_sc_hd__nand2_1
X_0778_ entropy_pool\[20\] _0248_ VSS VSS VDD VDD _0262_ sky130_fd_sc_hd__nand2_1
X_0779_ _0261_ _0262_ _0244_ VSS VSS VDD VDD _0046_ sky130_fd_sc_hd__a21oi_1
X_0780_ entropy_pool\[20\] _0256_ VSS VSS VDD VDD _0263_ sky130_fd_sc_hd__nand2_1
X_0781_ entropy_pool\[21\] _0248_ VSS VSS VDD VDD _0264_ sky130_fd_sc_hd__nand2_1
X_0782_ _0263_ _0264_ _0244_ VSS VSS VDD VDD _0047_ sky130_fd_sc_hd__a21oi_1
X_0783_ entropy_pool\[21\] _0256_ VSS VSS VDD VDD _0265_ sky130_fd_sc_hd__nand2_1
X_0784_ entropy_pool\[22\] _0248_ VSS VSS VDD VDD _0266_ sky130_fd_sc_hd__nand2_1
X_0785_ _0146_ VSS VSS VDD VDD _0267_ sky130_fd_sc_hd__clkbuf_4
X_0786_ _0265_ _0266_ _0267_ VSS VSS VDD VDD _0048_ sky130_fd_sc_hd__a21oi_1
X_0787_ entropy_pool\[22\] _0256_ VSS VSS VDD VDD _0268_ sky130_fd_sc_hd__nand2_1
X_0788_ entropy_pool\[23\] _0248_ VSS VSS VDD VDD _0269_ sky130_fd_sc_hd__nand2_1
X_0789_ _0268_ _0269_ _0267_ VSS VSS VDD VDD _0049_ sky130_fd_sc_hd__a21oi_1
X_0790_ entropy_pool\[23\] _0256_ VSS VSS VDD VDD _0270_ sky130_fd_sc_hd__nand2_1
X_0791_ _0154_ VSS VSS VDD VDD _0271_ sky130_fd_sc_hd__clkbuf_4
X_0792_ entropy_pool\[24\] _0271_ VSS VSS VDD VDD _0272_ sky130_fd_sc_hd__nand2_1
X_0793_ _0270_ _0272_ _0267_ VSS VSS VDD VDD _0050_ sky130_fd_sc_hd__a21oi_1
X_0794_ entropy_pool\[24\] _0256_ VSS VSS VDD VDD _0273_ sky130_fd_sc_hd__nand2_1
X_0795_ entropy_pool\[25\] _0271_ VSS VSS VDD VDD _0274_ sky130_fd_sc_hd__nand2_1
X_0796_ _0273_ _0274_ _0267_ VSS VSS VDD VDD _0051_ sky130_fd_sc_hd__a21oi_1
X_0797_ entropy_pool\[25\] _0256_ VSS VSS VDD VDD _0275_ sky130_fd_sc_hd__nand2_1
X_0798_ entropy_pool\[26\] _0271_ VSS VSS VDD VDD _0276_ sky130_fd_sc_hd__nand2_1
X_0799_ _0275_ _0276_ _0267_ VSS VSS VDD VDD _0052_ sky130_fd_sc_hd__a21oi_1
X_0800_ entropy_pool\[26\] _0256_ VSS VSS VDD VDD _0277_ sky130_fd_sc_hd__nand2_1
X_0801_ entropy_pool\[27\] _0271_ VSS VSS VDD VDD _0278_ sky130_fd_sc_hd__nand2_1
X_0802_ _0277_ _0278_ _0267_ VSS VSS VDD VDD _0053_ sky130_fd_sc_hd__a21oi_1
X_0803_ _0159_ VSS VSS VDD VDD _0279_ sky130_fd_sc_hd__buf_4
X_0804_ entropy_pool\[27\] _0279_ VSS VSS VDD VDD _0280_ sky130_fd_sc_hd__nand2_1
X_0805_ entropy_pool\[28\] _0271_ VSS VSS VDD VDD _0281_ sky130_fd_sc_hd__nand2_1
X_0806_ _0280_ _0281_ _0267_ VSS VSS VDD VDD _0054_ sky130_fd_sc_hd__a21oi_1
X_0807_ entropy_pool\[28\] _0279_ VSS VSS VDD VDD _0282_ sky130_fd_sc_hd__nand2_1
X_0808_ entropy_pool\[29\] _0271_ VSS VSS VDD VDD _0283_ sky130_fd_sc_hd__nand2_1
X_0809_ _0282_ _0283_ _0267_ VSS VSS VDD VDD _0055_ sky130_fd_sc_hd__a21oi_1
X_0810_ entropy_pool\[1\] _0279_ VSS VSS VDD VDD _0284_ sky130_fd_sc_hd__nand2_1
X_0811_ entropy_pool\[2\] _0271_ VSS VSS VDD VDD _0285_ sky130_fd_sc_hd__nand2_1
X_0812_ _0284_ _0285_ _0267_ VSS VSS VDD VDD _0056_ sky130_fd_sc_hd__a21oi_1
X_0813_ entropy_pool\[29\] _0279_ VSS VSS VDD VDD _0286_ sky130_fd_sc_hd__nand2_1
X_0814_ entropy_pool\[30\] _0271_ VSS VSS VDD VDD _0287_ sky130_fd_sc_hd__nand2_1
X_0815_ _0286_ _0287_ _0267_ VSS VSS VDD VDD _0057_ sky130_fd_sc_hd__a21oi_1
X_0816_ entropy_pool\[30\] _0279_ VSS VSS VDD VDD _0288_ sky130_fd_sc_hd__nand2_1
X_0817_ entropy_pool\[31\] _0271_ VSS VSS VDD VDD _0289_ sky130_fd_sc_hd__nand2_1
X_0818_ _0288_ _0289_ _0147_ VSS VSS VDD VDD _0058_ sky130_fd_sc_hd__a21oi_1
X_0819_ entropy_pool\[2\] _0279_ VSS VSS VDD VDD _0290_ sky130_fd_sc_hd__nand2_1
X_0820_ entropy_pool\[3\] _0271_ VSS VSS VDD VDD _0291_ sky130_fd_sc_hd__nand2_1
X_0821_ _0290_ _0291_ _0147_ VSS VSS VDD VDD _0059_ sky130_fd_sc_hd__a21oi_1
X_0822_ entropy_pool\[3\] _0279_ VSS VSS VDD VDD _0292_ sky130_fd_sc_hd__nand2_1
X_0823_ entropy_pool\[4\] _0155_ VSS VSS VDD VDD _0293_ sky130_fd_sc_hd__nand2_1
X_0824_ _0292_ _0293_ _0147_ VSS VSS VDD VDD _0060_ sky130_fd_sc_hd__a21oi_1
X_0825_ entropy_pool\[4\] _0279_ VSS VSS VDD VDD _0294_ sky130_fd_sc_hd__nand2_1
X_0826_ entropy_pool\[5\] _0155_ VSS VSS VDD VDD _0295_ sky130_fd_sc_hd__nand2_1
X_0827_ _0294_ _0295_ _0147_ VSS VSS VDD VDD _0061_ sky130_fd_sc_hd__a21oi_1
X_0828_ entropy_pool\[5\] _0279_ VSS VSS VDD VDD _0296_ sky130_fd_sc_hd__nand2_1
X_0829_ entropy_pool\[6\] _0155_ VSS VSS VDD VDD _0297_ sky130_fd_sc_hd__nand2_1
X_0830_ _0296_ _0297_ _0147_ VSS VSS VDD VDD _0062_ sky130_fd_sc_hd__a21oi_1
X_0831_ entropy_pool\[6\] _0279_ VSS VSS VDD VDD _0298_ sky130_fd_sc_hd__nand2_1
X_0832_ entropy_pool\[7\] _0155_ VSS VSS VDD VDD _0299_ sky130_fd_sc_hd__nand2_1
X_0833_ _0298_ _0299_ _0147_ VSS VSS VDD VDD _0063_ sky130_fd_sc_hd__a21oi_1
X_0834_ entropy_pool\[7\] _0159_ VSS VSS VDD VDD _0300_ sky130_fd_sc_hd__nand2_1
X_0835_ entropy_pool\[8\] _0155_ VSS VSS VDD VDD _0301_ sky130_fd_sc_hd__nand2_1
X_0836_ _0300_ _0301_ _0147_ VSS VSS VDD VDD _0064_ sky130_fd_sc_hd__a21oi_1
X_0837_ entropy_pool\[8\] _0159_ VSS VSS VDD VDD _0302_ sky130_fd_sc_hd__nand2_1
X_0838_ entropy_pool\[9\] _0155_ VSS VSS VDD VDD _0303_ sky130_fd_sc_hd__nand2_1
X_0839_ _0302_ _0303_ _0147_ VSS VSS VDD VDD _0065_ sky130_fd_sc_hd__a21oi_1
X_0840_ _0152_ VSS VSS VDD VDD _0304_ sky130_fd_sc_hd__buf_4
X_0841_ gen_ring_osc.toggle_sampling gen_ring_osc.inv_chain\[1\]
+ _0304_ VSS VSS VDD VDD _0305_ sky130_fd_sc_hd__mux2i_1
X_0842_ _0000_ _0305_ VSS VSS VDD VDD _0066_ sky130_fd_sc_hd__nor2_1
X_0843_ state\[1\] VSS VSS VDD VDD _0306_ sky130_fd_sc_hd__buf_2
X_0844_ _0306_ _0153_ _0570_ VSS VSS VDD VDD _0307_ sky130_fd_sc_hd__mux2i_1
X_0845_ _0000_ _0307_ VSS VSS VDD VDD _0067_ sky130_fd_sc_hd__nor2_1
X_0846_ _0306_ health_counter\[1\] _0573_ _0153_ VSS VSS VDD
+ VDD _0308_ sky130_fd_sc_hd__a22oi_1
X_0847_ _0000_ _0308_ VSS VSS VDD VDD _0068_ sky130_fd_sc_hd__nor2_1
X_0848_ state\[0\] _0306_ _0145_ VSS VSS VDD VDD _0309_ sky130_fd_sc_hd__o21ai_2
X_0849_ _0306_ _0574_ VSS VSS VDD VDD _0310_ sky130_fd_sc_hd__nor2b_1
X_0850_ health_counter\[2\] _0310_ VSS VSS VDD VDD _0311_
+ sky130_fd_sc_hd__xnor2_1
X_0851_ _0309_ _0311_ VSS VSS VDD VDD _0069_ sky130_fd_sc_hd__nor2_1
X_0852_ _0306_ health_counter\[2\] health_counter\[0\] health_counter\[1\]
+ VSS VSS VDD VDD _0312_ sky130_fd_sc_hd__nand4b_1
X_0853_ health_counter\[3\] _0312_ VSS VSS VDD VDD _0313_
+ sky130_fd_sc_hd__xor2_1
X_0854_ _0309_ _0313_ VSS VSS VDD VDD _0070_ sky130_fd_sc_hd__nor2_1
X_0855_ _0306_ health_counter\[3\] health_counter\[2\] _0574_
+ VSS VSS VDD VDD _0314_ sky130_fd_sc_hd__nand4b_1
X_0856_ health_counter\[4\] _0314_ VSS VSS VDD VDD _0315_
+ sky130_fd_sc_hd__xor2_1
X_0857_ _0309_ _0315_ VSS VSS VDD VDD _0071_ sky130_fd_sc_hd__nor2_1
X_0858_ state\[1\] health_counter\[4\] health_counter\[3\]
+ health_counter\[2\] VSS VSS VDD VDD _0316_ sky130_fd_sc_hd__and4b_1
X_0859_ health_counter\[0\] health_counter\[1\] _0316_ VSS
+ VSS VDD VDD _0317_ sky130_fd_sc_hd__nand3_1
X_0860_ health_counter\[5\] _0317_ VSS VSS VDD VDD _0318_
+ sky130_fd_sc_hd__xor2_1
X_0861_ _0309_ _0318_ VSS VSS VDD VDD _0072_ sky130_fd_sc_hd__nor2_1
X_0862_ health_counter\[5\] _0574_ _0316_ VSS VSS VDD VDD
+ _0319_ sky130_fd_sc_hd__nand3_1
X_0863_ health_counter\[6\] _0319_ VSS VSS VDD VDD _0320_
+ sky130_fd_sc_hd__xor2_1
X_0864_ _0309_ _0320_ VSS VSS VDD VDD _0073_ sky130_fd_sc_hd__nor2_1
X_0865_ health_counter\[6\] health_counter\[0\] health_counter\[1\]
+ VSS VSS VDD VDD _0321_ sky130_fd_sc_hd__and3_1
X_0866_ health_counter\[5\] _0316_ _0321_ VSS VSS VDD VDD
+ _0322_ sky130_fd_sc_hd__nand3_1
X_0867_ health_counter\[7\] _0322_ VSS VSS VDD VDD _0323_
+ sky130_fd_sc_hd__xor2_1
X_0868_ _0309_ _0323_ VSS VSS VDD VDD _0074_ sky130_fd_sc_hd__nor2_1
X_0869_ _0150_ VSS VSS VDD VDD _0324_ sky130_fd_sc_hd__buf_2
X_0870_ lfsr_reg\[31\] VSS VSS VDD VDD _0325_ sky130_fd_sc_hd__buf_2
X_0871_ _0152_ VSS VSS VDD VDD _0326_ sky130_fd_sc_hd__clkbuf_4
X_0872_ lfsr_reg\[0\] _0325_ _0326_ VSS VSS VDD VDD _0327_
+ sky130_fd_sc_hd__mux2i_1
X_0873_ _0324_ _0327_ VSS VSS VDD VDD _0075_ sky130_fd_sc_hd__nand2_1
X_0874_ lfsr_reg\[10\] lfsr_reg\[9\] _0304_ VSS VSS VDD VDD
+ _0328_ sky130_fd_sc_hd__mux2i_1
X_0875_ _0000_ _0328_ VSS VSS VDD VDD _0076_ sky130_fd_sc_hd__nor2_1
X_0876_ lfsr_reg\[30\] lfsr_reg\[10\] VSS VSS VDD VDD _0329_
+ sky130_fd_sc_hd__xnor2_1
X_0877_ _0326_ _0329_ VSS VSS VDD VDD _0330_ sky130_fd_sc_hd__nand2_1
X_0878_ _0326_ lfsr_reg\[11\] _0330_ VSS VSS VDD VDD _0331_
+ sky130_fd_sc_hd__o21ai_0
X_0879_ _0324_ _0331_ VSS VSS VDD VDD _0077_ sky130_fd_sc_hd__nand2_1
X_0880_ lfsr_reg\[12\] lfsr_reg\[11\] _0304_ VSS VSS VDD VDD
+ _0332_ sky130_fd_sc_hd__mux2i_1
X_0881_ _0000_ _0332_ VSS VSS VDD VDD _0078_ sky130_fd_sc_hd__nor2_1
X_0882_ _0152_ VSS VSS VDD VDD _0333_ sky130_fd_sc_hd__buf_4
X_0883_ lfsr_reg\[13\] lfsr_reg\[12\] _0333_ VSS VSS VDD VDD
+ _0334_ sky130_fd_sc_hd__mux2i_1
X_0884_ _0324_ _0334_ VSS VSS VDD VDD _0079_ sky130_fd_sc_hd__nand2_1
X_0885_ lfsr_reg\[14\] lfsr_reg\[13\] _0333_ VSS VSS VDD VDD
+ _0335_ sky130_fd_sc_hd__mux2i_1
X_0886_ _0324_ _0335_ VSS VSS VDD VDD _0080_ sky130_fd_sc_hd__nand2_1
X_0887_ lfsr_reg\[15\] lfsr_reg\[14\] _0333_ VSS VSS VDD VDD
+ _0336_ sky130_fd_sc_hd__mux2i_1
X_0888_ _0324_ _0336_ VSS VSS VDD VDD _0081_ sky130_fd_sc_hd__nand2_1
X_0889_ lfsr_reg\[28\] lfsr_reg\[15\] VSS VSS VDD VDD _0337_
+ sky130_fd_sc_hd__xnor2_1
X_0890_ _0326_ _0337_ VSS VSS VDD VDD _0338_ sky130_fd_sc_hd__nand2_1
X_0891_ _0326_ lfsr_reg\[16\] _0338_ VSS VSS VDD VDD _0339_
+ sky130_fd_sc_hd__o21ai_0
X_0892_ _0324_ _0339_ VSS VSS VDD VDD _0082_ sky130_fd_sc_hd__nand2_1
X_0893_ lfsr_reg\[17\] lfsr_reg\[16\] _0304_ VSS VSS VDD VDD
+ _0340_ sky130_fd_sc_hd__mux2i_1
X_0894_ _0000_ _0340_ VSS VSS VDD VDD _0083_ sky130_fd_sc_hd__nor2_1
X_0895_ lfsr_reg\[18\] lfsr_reg\[17\] _0333_ VSS VSS VDD VDD
+ _0341_ sky130_fd_sc_hd__mux2i_1
X_0896_ _0324_ _0341_ VSS VSS VDD VDD _0084_ sky130_fd_sc_hd__nand2_1
X_0897_ lfsr_reg\[19\] lfsr_reg\[18\] _0333_ VSS VSS VDD VDD
+ _0342_ sky130_fd_sc_hd__mux2i_1
X_0898_ _0324_ _0342_ VSS VSS VDD VDD _0085_ sky130_fd_sc_hd__nand2_1
X_0899_ lfsr_reg\[1\] lfsr_reg\[0\] _0304_ VSS VSS VDD VDD
+ _0343_ sky130_fd_sc_hd__mux2i_1
X_0900_ _0000_ _0343_ VSS VSS VDD VDD _0086_ sky130_fd_sc_hd__nor2_1
X_0901_ lfsr_reg\[20\] lfsr_reg\[19\] _0304_ VSS VSS VDD VDD
+ _0344_ sky130_fd_sc_hd__mux2i_1
X_0902_ _0000_ _0344_ VSS VSS VDD VDD _0087_ sky130_fd_sc_hd__nor2_1
X_0903_ lfsr_reg\[21\] lfsr_reg\[20\] _0304_ VSS VSS VDD VDD
+ _0345_ sky130_fd_sc_hd__mux2i_1
X_0904_ _0000_ _0345_ VSS VSS VDD VDD _0088_ sky130_fd_sc_hd__nor2_1
X_0905_ lfsr_reg\[22\] lfsr_reg\[21\] _0333_ VSS VSS VDD VDD
+ _0346_ sky130_fd_sc_hd__mux2i_1
X_0906_ _0324_ _0346_ VSS VSS VDD VDD _0089_ sky130_fd_sc_hd__nand2_1
X_0907_ lfsr_reg\[23\] lfsr_reg\[22\] _0333_ VSS VSS VDD VDD
+ _0347_ sky130_fd_sc_hd__mux2i_1
X_0908_ _0324_ _0347_ VSS VSS VDD VDD _0090_ sky130_fd_sc_hd__nand2_1
X_0909_ lfsr_reg\[24\] lfsr_reg\[23\] _0333_ VSS VSS VDD VDD
+ _0348_ sky130_fd_sc_hd__mux2i_1
X_0910_ _0151_ _0348_ VSS VSS VDD VDD _0091_ sky130_fd_sc_hd__nand2_1
X_0911_ lfsr_reg\[25\] lfsr_reg\[24\] _0333_ VSS VSS VDD VDD
+ _0349_ sky130_fd_sc_hd__mux2i_1
X_0912_ _0151_ _0349_ VSS VSS VDD VDD _0092_ sky130_fd_sc_hd__nand2_1
X_0913_ lfsr_reg\[26\] lfsr_reg\[25\] _0304_ VSS VSS VDD VDD
+ _0350_ sky130_fd_sc_hd__mux2i_1
X_0914_ _0237_ _0350_ VSS VSS VDD VDD _0093_ sky130_fd_sc_hd__nor2_1
X_0915_ _0325_ lfsr_reg\[26\] VSS VSS VDD VDD _0351_ sky130_fd_sc_hd__xnor2_1
X_0916_ _0326_ _0351_ VSS VSS VDD VDD _0352_ sky130_fd_sc_hd__nand2_1
X_0917_ _0326_ lfsr_reg\[27\] _0352_ VSS VSS VDD VDD _0353_
+ sky130_fd_sc_hd__o21ai_0
X_0918_ _0151_ _0353_ VSS VSS VDD VDD _0094_ sky130_fd_sc_hd__nand2_1
X_0919_ _0152_ VSS VSS VDD VDD _0354_ sky130_fd_sc_hd__buf_4
X_0920_ lfsr_reg\[28\] lfsr_reg\[27\] _0354_ VSS VSS VDD VDD
+ _0355_ sky130_fd_sc_hd__mux2i_1
X_0921_ _0237_ _0355_ VSS VSS VDD VDD _0095_ sky130_fd_sc_hd__nor2_1
X_0922_ _0325_ lfsr_reg\[28\] VSS VSS VDD VDD _0356_ sky130_fd_sc_hd__xor2_1
X_0923_ _0354_ _0356_ lfsr_reg\[29\] VSS VSS VDD VDD _0357_
+ sky130_fd_sc_hd__a21oi_1
X_0924_ _0354_ lfsr_reg\[29\] _0356_ VSS VSS VDD VDD _0358_
+ sky130_fd_sc_hd__and3_1
X_0925_ _0145_ VSS VSS VDD VDD _0359_ sky130_fd_sc_hd__buf_2
X_0926_ _0357_ _0358_ _0359_ VSS VSS VDD VDD _0096_ sky130_fd_sc_hd__o21ai_0
X_0927_ lfsr_reg\[2\] lfsr_reg\[1\] _0354_ VSS VSS VDD VDD
+ _0360_ sky130_fd_sc_hd__mux2i_1
X_0928_ _0237_ _0360_ VSS VSS VDD VDD _0097_ sky130_fd_sc_hd__nor2_1
X_0929_ _0354_ lfsr_reg\[29\] VSS VSS VDD VDD _0361_ sky130_fd_sc_hd__nand2_1
X_0930_ lfsr_reg\[30\] _0361_ VSS VSS VDD VDD _0362_ sky130_fd_sc_hd__xor2_1
X_0931_ _0237_ _0362_ VSS VSS VDD VDD _0098_ sky130_fd_sc_hd__nor2_1
X_0932_ _0354_ lfsr_reg\[30\] _0325_ VSS VSS VDD VDD _0363_
+ sky130_fd_sc_hd__a21oi_1
X_0933_ _0354_ lfsr_reg\[30\] _0325_ VSS VSS VDD VDD _0364_
+ sky130_fd_sc_hd__and3_1
X_0934_ _0363_ _0364_ _0359_ VSS VSS VDD VDD _0099_ sky130_fd_sc_hd__o21ai_0
X_0935_ lfsr_reg\[3\] lfsr_reg\[2\] _0354_ VSS VSS VDD VDD
+ _0365_ sky130_fd_sc_hd__mux2i_1
X_0936_ _0237_ _0365_ VSS VSS VDD VDD _0100_ sky130_fd_sc_hd__nor2_1
X_0937_ lfsr_reg\[4\] lfsr_reg\[3\] _0333_ VSS VSS VDD VDD
+ _0366_ sky130_fd_sc_hd__mux2i_1
X_0938_ _0151_ _0366_ VSS VSS VDD VDD _0101_ sky130_fd_sc_hd__nand2_1
X_0939_ lfsr_reg\[29\] lfsr_reg\[4\] VSS VSS VDD VDD _0367_
+ sky130_fd_sc_hd__xnor2_1
X_0940_ _0326_ _0367_ VSS VSS VDD VDD _0368_ sky130_fd_sc_hd__nand2_1
X_0941_ _0326_ lfsr_reg\[5\] _0368_ VSS VSS VDD VDD _0369_
+ sky130_fd_sc_hd__o21ai_0
X_0942_ _0151_ _0369_ VSS VSS VDD VDD _0102_ sky130_fd_sc_hd__nand2_1
X_0943_ lfsr_reg\[6\] lfsr_reg\[5\] _0304_ VSS VSS VDD VDD
+ _0370_ sky130_fd_sc_hd__mux2i_1
X_0944_ _0151_ _0370_ VSS VSS VDD VDD _0103_ sky130_fd_sc_hd__nand2_1