
* cell true_random_generator
* pin enable
* pin entropy_low
* pin data_valid
* pin read_next
* pin rst_n
* pin random_data[10]
* pin random_data[18]
* pin random_data[13]
* pin random_data[17]
* pin random_data[16]
* pin random_data[14]
* pin random_data[15]
* pin random_data[19]
* pin clk
* pin random_data[12]
* pin random_data[21]
* pin random_data[0]
* pin random_data[1]
* pin random_data[11]
* pin random_data[20]
* pin random_data[22]
* pin random_data[23]
* pin test_failed
* pin random_data[2]
* pin random_data[9]
* pin random_data[25]
* pin random_data[8]
* pin random_data[30]
* pin random_data[26]
* pin random_data[31]
* pin random_data[7]
* pin random_data[27]
* pin random_data[29]
* pin random_data[24]
* pin random_data[28]
* pin random_data[4]
* pin random_data[6]
* pin random_data[3]
* pin random_data[5]
.SUBCKT true_random_generator 1 208 236 244 266 306 307 339 340 361 362 382 383
+ 392 408 424 464 465 494 504 526 537 555 556 584 585 599 600 636 655 656 684
+ 685 699 700 804 805 806 808
* net 1 enable
* net 208 entropy_low
* net 236 data_valid
* net 244 read_next
* net 266 rst_n
* net 306 random_data[10]
* net 307 random_data[18]
* net 339 random_data[13]
* net 340 random_data[17]
* net 361 random_data[16]
* net 362 random_data[14]
* net 382 random_data[15]
* net 383 random_data[19]
* net 392 clk
* net 408 random_data[12]
* net 424 random_data[21]
* net 464 random_data[0]
* net 465 random_data[1]
* net 494 random_data[11]
* net 504 random_data[20]
* net 526 random_data[22]
* net 537 random_data[23]
* net 555 test_failed
* net 556 random_data[2]
* net 584 random_data[9]
* net 585 random_data[25]
* net 599 random_data[8]
* net 600 random_data[30]
* net 636 random_data[26]
* net 655 random_data[31]
* net 656 random_data[7]
* net 684 random_data[27]
* net 685 random_data[29]
* net 699 random_data[24]
* net 700 random_data[28]
* net 804 random_data[4]
* net 805 random_data[6]
* net 806 random_data[3]
* net 808 random_data[5]
* cell instance $2 r0 *1 30.82,2.72
X$2 14 1 14 5 4 5 sky130_fd_sc_hd__clkbuf_2
* cell instance $6 r0 *1 23.92,2.72
X$6 14 2 6 2 5 14 5 sky130_fd_sc_hd__or2_0
* cell instance $9 m0 *1 23.46,8.16
X$9 5 47 43 2 10 14 14 5 sky130_fd_sc_hd__mux2i_1
* cell instance $23 m0 *1 63.02,8.16
X$23 14 3 42 20 5 14 5 sky130_fd_sc_hd__nor2_1
* cell instance $25 m0 *1 85.1,13.6
X$25 14 3 99 34 5 14 5 sky130_fd_sc_hd__nor2_1
* cell instance $28 r0 *1 80.5,8.16
X$28 14 3 64 51 5 14 5 sky130_fd_sc_hd__nor2_1
* cell instance $30 m0 *1 26.68,13.6
X$30 14 3 69 79 5 14 5 sky130_fd_sc_hd__nor2_1
* cell instance $32 m0 *1 17.02,35.36
X$32 14 216 5 3 14 5 sky130_fd_sc_hd__clkbuf_4
* cell instance $34 m0 *1 23.92,24.48
X$34 14 3 124 117 5 14 5 sky130_fd_sc_hd__nor2_1
* cell instance $37 r0 *1 57.96,35.36
X$37 14 3 214 219 5 14 5 sky130_fd_sc_hd__nor2_1
* cell instance $39 r0 *1 16.56,2.72
X$39 5 6 9 3 14 14 5 sky130_fd_sc_hd__dfxtp_1
* cell instance $41 r0 *1 23.92,8.16
X$41 14 3 47 22 5 14 5 sky130_fd_sc_hd__nor2_1
* cell instance $44 m0 *1 51.52,13.6
X$44 14 3 73 54 5 14 5 sky130_fd_sc_hd__nor2_1
* cell instance $47 r0 *1 51.52,2.72
X$47 14 3 7 15 5 14 5 sky130_fd_sc_hd__nor2_1
* cell instance $55 m0 *1 30.82,13.6
X$55 14 4 5 75 14 5 sky130_fd_sc_hd__clkbuf_4
* cell instance $57 m0 *1 37.26,13.6
X$57 14 4 14 5 72 5 sky130_fd_sc_hd__buf_4
* cell instance $59 r0 *1 30.82,35.36
X$59 14 4 63 271 14 5 5 sky130_fd_sc_hd__and2_0
* cell instance $61 r0 *1 29.44,35.36
X$61 14 4 63 252 14 5 5 sky130_fd_sc_hd__nand2_1
* cell instance $63 r0 *1 36.8,2.72
X$63 14 4 14 5 12 5 sky130_fd_sc_hd__buf_4
* cell instance $65 r0 *1 32.66,2.72
X$65 14 4 14 5 10 5 sky130_fd_sc_hd__buf_4
* cell instance $127 r0 *1 98.44,2.72
X$127 5 28 25 8 14 14 5 sky130_fd_sc_hd__dfxtp_1
* cell instance $139 m0 *1 29.44,8.16
X$139 5 70 11 33 14 14 5 sky130_fd_sc_hd__dfxtp_1
* cell instance $140 m0 *1 36.8,8.16
X$140 5 36 35 16 72 14 14 5 sky130_fd_sc_hd__mux2i_1
* cell instance $141 m0 *1 40.48,8.16
X$141 14 38 23 39 14 5 5 sky130_fd_sc_hd__nand2_1
* cell instance $144 m0 *1 41.86,8.16
X$144 5 23 40 13 12 14 14 5 sky130_fd_sc_hd__mux2i_1
* cell instance $145 m0 *1 45.54,8.16
X$145 5 41 16 21 72 14 14 5 sky130_fd_sc_hd__mux2i_1
* cell instance $146 m0 *1 49.22,8.16
X$146 5 13 11 15 14 14 5 sky130_fd_sc_hd__dfxtp_1
* cell instance $148 m0 *1 57.04,8.16
X$148 5 19 13 21 14 14 5 sky130_fd_sc_hd__xnor2_2
* cell instance $153 m0 *1 69.92,8.16
X$153 5 17 24 37 14 14 5 sky130_fd_sc_hd__dfxtp_1
* cell instance $154 m0 *1 77.28,8.16
X$154 5 18 45 17 14 14 5 sky130_fd_sc_hd__xnor2_2
* cell instance $157 m0 *1 84.64,8.16
X$157 5 32 25 34 14 14 5 sky130_fd_sc_hd__dfxtp_1
* cell instance $160 m0 *1 94.76,8.16
X$160 5 27 25 31 14 14 5 sky130_fd_sc_hd__dfxtp_1
* cell instance $163 m0 *1 102.12,8.16
X$163 14 29 30 8 5 14 5 sky130_fd_sc_hd__nor2_1
* cell instance $174 r0 *1 16.1,8.16
X$174 5 43 9 22 14 14 5 sky130_fd_sc_hd__dfxtp_1
* cell instance $177 r0 *1 25.76,8.16
X$177 5 35 9 49 14 14 5 sky130_fd_sc_hd__dfxtp_2
* cell instance $179 r0 *1 34.04,8.16
X$179 14 38 65 33 14 5 5 sky130_fd_sc_hd__nand2_1
* cell instance $180 r0 *1 35.42,8.16
X$180 5 40 11 39 14 14 5 sky130_fd_sc_hd__dfxtp_1
* cell instance $183 r0 *1 43.24,8.16
X$183 5 16 11 52 14 14 5 sky130_fd_sc_hd__dfxtp_1
* cell instance $185 r0 *1 51.06,8.16
X$185 5 21 11 54 14 14 5 sky130_fd_sc_hd__dfxtp_1
* cell instance $187 r0 *1 59.34,8.16
X$187 5 57 24 20 14 14 5 sky130_fd_sc_hd__dfxtp_2
* cell instance $188 r0 *1 67.16,8.16
X$188 14 38 55 82 14 5 5 sky130_fd_sc_hd__nand2_1
* cell instance $191 r0 *1 69,8.16
X$191 14 38 67 37 14 5 5 sky130_fd_sc_hd__nand2_1
* cell instance $194 r0 *1 71.3,8.16
X$194 14 38 83 53 14 5 5 sky130_fd_sc_hd__nand2_1
* cell instance $196 r0 *1 73.14,8.16
X$196 5 45 24 53 14 14 5 sky130_fd_sc_hd__dfxtp_1
* cell instance $198 r0 *1 82.34,8.16
X$198 5 46 25 51 14 14 5 sky130_fd_sc_hd__dfxtp_1
* cell instance $199 r0 *1 89.7,8.16
X$199 14 46 14 5 62 5 sky130_fd_sc_hd__inv_1
* cell instance $200 r0 *1 91.08,8.16
X$200 14 26 27 46 32 14 50 5 5 sky130_fd_sc_hd__nand4b_1
* cell instance $204 r0 *1 96.6,8.16
X$204 14 29 59 31 5 14 5 sky130_fd_sc_hd__nor2_1
* cell instance $206 r0 *1 98.44,8.16
X$206 14 50 28 14 30 5 5 sky130_fd_sc_hd__xor2_1
* cell instance $207 r0 *1 101.66,8.16
X$207 14 26 28 27 48 14 94 5 5 sky130_fd_sc_hd__nand4b_1
* cell instance $208 r0 *1 104.88,8.16
X$208 14 29 93 58 5 14 5 sky130_fd_sc_hd__nor2_1
* cell instance $230 m0 *1 29.44,13.6
X$230 14 56 36 49 5 14 5 sky130_fd_sc_hd__nor2_1
* cell instance $231 m0 *1 33.58,13.6
X$231 5 65 70 40 12 14 14 5 sky130_fd_sc_hd__mux2i_1
* cell instance $232 m0 *1 40.02,13.6
X$232 5 71 40 16 14 14 5 sky130_fd_sc_hd__xnor2_2
* cell instance $233 m0 *1 46,13.6
X$233 14 56 41 52 5 14 5 sky130_fd_sc_hd__nor2_1
* cell instance $236 m0 *1 52.9,13.6
X$236 5 73 21 17 10 14 14 5 sky130_fd_sc_hd__mux2i_1
* cell instance $238 m0 *1 57.04,13.6
X$238 5 7 13 45 10 14 14 5 sky130_fd_sc_hd__mux2i_1
* cell instance $240 m0 *1 61.18,13.6
X$240 5 42 57 68 10 14 14 5 sky130_fd_sc_hd__mux2i_1
* cell instance $241 m0 *1 64.86,13.6
X$241 5 55 44 57 12 14 14 5 sky130_fd_sc_hd__mux2i_1
* cell instance $242 m0 *1 68.54,13.6
X$242 5 67 17 66 75 14 14 5 sky130_fd_sc_hd__mux2i_1
* cell instance $243 m0 *1 72.22,13.6
X$243 5 44 24 82 14 14 5 sky130_fd_sc_hd__dfxtp_1
* cell instance $245 m0 *1 80.5,13.6
X$245 5 64 26 63 62 14 14 5 sky130_fd_sc_hd__mux2i_1
* cell instance $249 m0 *1 87.4,13.6
X$249 5 80 811 62 61 14 14 5 sky130_fd_sc_hd__ha_1
* cell instance $250 m0 *1 92,13.6
X$250 14 32 14 5 61 5 sky130_fd_sc_hd__inv_1
* cell instance $252 m0 *1 95.22,13.6
X$252 14 60 27 59 14 5 5 sky130_fd_sc_hd__xnor2_1
* cell instance $254 m0 *1 99.36,13.6
X$254 5 78 25 58 14 14 5 sky130_fd_sc_hd__dfxtp_1
* cell instance $266 r0 *1 21.62,13.6
X$266 5 84 9 79 14 14 5 sky130_fd_sc_hd__dfxtp_1
* cell instance $267 r0 *1 28.98,13.6
X$267 5 69 84 70 10 14 14 5 sky130_fd_sc_hd__mux2i_1
* cell instance $268 r0 *1 32.66,13.6
X$268 5 35 70 96 14 14 5 sky130_fd_sc_hd__xor2_4
* cell instance $271 r0 *1 43.24,13.6
X$271 14 38 86 108 14 5 5 sky130_fd_sc_hd__nand2_1
* cell instance $278 r0 *1 58.88,13.6
X$278 14 56 98 111 5 14 5 sky130_fd_sc_hd__nor2_1
* cell instance $279 r0 *1 60.26,13.6
X$279 5 57 88 81 14 14 5 sky130_fd_sc_hd__xor2_4
* cell instance $283 r0 *1 72.68,13.6
X$283 14 75 45 74 14 83 5 5 sky130_fd_sc_hd__o21ai_0
* cell instance $284 r0 *1 74.52,13.6
X$284 14 90 88 91 14 5 5 sky130_fd_sc_hd__xnor2_1
* cell instance $285 r0 *1 77.74,13.6
X$285 14 75 91 74 14 5 5 sky130_fd_sc_hd__nand2_1
* cell instance $289 r0 *1 85.1,13.6
X$289 14 63 80 26 32 14 99 5 5 sky130_fd_sc_hd__a22oi_1
* cell instance $293 r0 *1 91.08,13.6
X$293 5 812 48 46 32 14 14 5 sky130_fd_sc_hd__ha_1
* cell instance $294 r0 *1 95.68,13.6
X$294 14 26 48 60 5 14 5 sky130_fd_sc_hd__nor2b_1
* cell instance $297 r0 *1 98.44,13.6
X$297 5 78 28 77 76 27 14 14 5 sky130_fd_sc_hd__and4b_1
* cell instance $298 r0 *1 102.12,13.6
X$298 14 94 78 14 93 5 5 sky130_fd_sc_hd__xor2_1
* cell instance $299 r0 *1 105.34,13.6
X$299 14 116 48 77 95 14 5 5 sky130_fd_sc_hd__nand3_1
* cell instance $316 m0 *1 21.16,19.04
X$316 5 104 9 103 14 14 5 sky130_fd_sc_hd__dfxtp_2
* cell instance $318 m0 *1 29.44,19.04
X$318 14 105 85 103 14 5 5 sky130_fd_sc_hd__nand2_1
* cell instance $320 m0 *1 31.74,19.04
X$320 5 85 104 35 12 14 14 5 sky130_fd_sc_hd__mux2i_1
* cell instance $322 m0 *1 35.88,19.04
X$322 14 38 107 106 14 5 5 sky130_fd_sc_hd__nand2_1
* cell instance $325 m0 *1 39.56,19.04
X$325 5 97 11 108 14 14 5 sky130_fd_sc_hd__dfxtp_1
* cell instance $326 m0 *1 46.92,19.04
X$326 5 109 100 97 12 14 14 5 sky130_fd_sc_hd__mux2i_1
* cell instance $327 m0 *1 50.6,19.04
X$327 14 105 139 122 14 5 5 sky130_fd_sc_hd__nand2_1
* cell instance $330 m0 *1 54.74,19.04
X$330 14 75 68 87 14 101 5 5 sky130_fd_sc_hd__o21ai_0
* cell instance $332 m0 *1 57.04,19.04
X$332 14 38 101 112 14 5 5 sky130_fd_sc_hd__nand2_1
* cell instance $333 m0 *1 58.42,19.04
X$333 5 88 24 111 14 14 5 sky130_fd_sc_hd__dfxtp_2
* cell instance $334 m0 *1 66.24,19.04
X$334 5 153 24 14 14 5 sky130_fd_sc_hd__clkbuf_16
* cell instance $335 m0 *1 75.44,19.04
X$335 14 38 89 120 14 5 5 sky130_fd_sc_hd__nand2_1
* cell instance $337 m0 *1 77.74,19.04
X$337 5 89 90 126 12 14 14 5 sky130_fd_sc_hd__mux2i_1
* cell instance $343 m0 *1 88.78,19.04
X$343 14 76 5 26 14 5 sky130_fd_sc_hd__buf_2
* cell instance $344 m0 *1 90.62,19.04
X$344 5 46 118 92 32 14 14 5 sky130_fd_sc_hd__and3_1
* cell instance $347 m0 *1 94.3,19.04
X$347 14 46 32 77 133 14 5 5 sky130_fd_sc_hd__nand3_1
* cell instance $349 m0 *1 97.06,19.04
X$349 14 95 92 14 131 5 5 sky130_fd_sc_hd__xor2_1
* cell instance $350 m0 *1 100.28,19.04
X$350 5 92 25 102 14 14 5 sky130_fd_sc_hd__dfxtp_1
* cell instance $359 r0 *1 16.56,19.04
X$359 14 56 147 113 5 14 132 5 sky130_fd_sc_hd__a21oi_1
* cell instance $361 r0 *1 20.24,19.04
X$361 5 114 9 117 14 14 5 sky130_fd_sc_hd__dfxtp_1
* cell instance $363 r0 *1 28.06,19.04
X$363 5 104 84 452 14 14 5 sky130_fd_sc_hd__xor2_4
* cell instance $364 r0 *1 38.18,19.04
X$364 5 107 121 114 12 14 14 5 sky130_fd_sc_hd__mux2i_1
* cell instance $368 r0 *1 43.24,19.04
X$368 14 104 110 136 14 5 5 sky130_fd_sc_hd__xnor2_1
* cell instance $370 r0 *1 46.92,19.04
X$370 5 140 11 122 14 14 5 sky130_fd_sc_hd__dfxtp_1
* cell instance $371 r0 *1 54.28,19.04
X$371 5 68 24 112 14 14 5 sky130_fd_sc_hd__dfxtp_1
* cell instance $372 r0 *1 61.64,19.04
X$372 5 98 88 125 72 14 14 5 sky130_fd_sc_hd__mux2i_1
* cell instance $373 r0 *1 65.32,19.04
X$373 5 24 14 14 5 sky130_fd_sc_hd__clkbuf_8
* cell instance $377 r0 *1 71.3,19.04
X$377 14 38 115 154 14 5 5 sky130_fd_sc_hd__nand2_1
* cell instance $378 r0 *1 72.68,19.04
X$378 5 90 24 120 14 14 5 sky130_fd_sc_hd__dfxtp_1
* cell instance $379 r0 *1 80.04,19.04
X$379 5 119 90 66 14 14 5 sky130_fd_sc_hd__xnor2_2
* cell instance $380 r0 *1 86.02,19.04
X$380 14 88 66 14 128 5 5 sky130_fd_sc_hd__xor2_1
* cell instance $382 r0 *1 92.92,19.04
X$382 14 116 77 118 134 14 5 5 sky130_fd_sc_hd__nand3_1
* cell instance $383 r0 *1 94.76,19.04
X$383 14 133 116 14 130 5 5 sky130_fd_sc_hd__xor2_1
* cell instance $386 r0 *1 98.44,19.04
X$386 5 153 25 14 14 5 sky130_fd_sc_hd__clkbuf_16
* cell instance $397 m0 *1 8.74,24.48
X$397 5 141 9 132 14 14 5 sky130_fd_sc_hd__dfxtp_1
* cell instance $398 m0 *1 16.1,24.48
X$398 5 148 9 123 14 14 5 sky130_fd_sc_hd__dfxtp_1
* cell instance $400 m0 *1 25.3,24.48
X$400 5 124 114 84 10 14 14 5 sky130_fd_sc_hd__mux2i_1
* cell instance $402 m0 *1 29.44,24.48
X$402 5 121 11 106 14 14 5 sky130_fd_sc_hd__dfxtp_1
* cell instance $403 m0 *1 36.8,24.48
X$403 14 75 144 150 14 151 5 5 sky130_fd_sc_hd__o21ai_0
* cell instance $404 m0 *1 38.64,24.48
X$404 5 86 97 121 12 14 14 5 sky130_fd_sc_hd__mux2i_1
* cell instance $405 m0 *1 42.32,24.48
X$405 5 153 11 14 14 5 sky130_fd_sc_hd__clkbuf_16
* cell instance $406 m0 *1 51.52,24.48
X$406 5 139 140 100 12 14 14 5 sky130_fd_sc_hd__mux2i_1
* cell instance $407 m0 *1 55.2,24.48
X$407 14 105 155 156 14 5 5 sky130_fd_sc_hd__nand2_1
* cell instance $409 m0 *1 57.04,24.48
X$409 5 125 24 156 14 14 5 sky130_fd_sc_hd__dfxtp_1
* cell instance $410 m0 *1 64.4,24.48
X$410 14 75 137 145 14 5 5 sky130_fd_sc_hd__nand2_1
* cell instance $411 m0 *1 65.78,24.48
X$411 14 138 66 137 14 5 5 sky130_fd_sc_hd__xnor2_1
* cell instance $412 m0 *1 69,24.48
X$412 14 75 125 145 14 155 5 5 sky130_fd_sc_hd__o21ai_0
* cell instance $414 m0 *1 71.3,24.48
X$414 5 126 24 154 14 14 5 sky130_fd_sc_hd__dfxtp_1
* cell instance $415 m0 *1 78.66,24.48
X$415 5 115 126 44 12 14 14 5 sky130_fd_sc_hd__mux2i_1
* cell instance $418 m0 *1 84.64,24.48
X$418 5 110 127 72 128 14 14 5 sky130_fd_sc_hd__and3_1
* cell instance $419 m0 *1 86.94,24.48
X$419 14 135 127 129 14 149 5 5 sky130_fd_sc_hd__o21ai_0
* cell instance $420 m0 *1 88.78,24.48
X$420 14 110 72 128 5 14 135 5 sky130_fd_sc_hd__a21oi_1
* cell instance $424 m0 *1 93.84,24.48
X$424 14 29 130 168 5 14 5 sky130_fd_sc_hd__nor2_1
* cell instance $425 m0 *1 95.22,24.48
X$425 5 25 14 14 5 sky130_fd_sc_hd__bufinv_16
* cell instance $426 m0 *1 106.26,24.48
X$426 14 29 131 102 5 14 5 sky130_fd_sc_hd__nor2_1
* cell instance $430 r0 *1 7.36,24.48
X$430 14 141 157 146 14 5 5 sky130_fd_sc_hd__nand2_1
* cell instance $431 r0 *1 8.74,24.48
X$431 14 158 146 159 5 14 167 5 sky130_fd_sc_hd__a21oi_1
* cell instance $433 r0 *1 11.04,24.48
X$433 14 160 161 159 14 5 5 sky130_fd_sc_hd__nand2_1
* cell instance $434 r0 *1 12.42,24.48
X$434 14 203 142 182 14 5 5 sky130_fd_sc_hd__nand2_1
* cell instance $435 r0 *1 13.8,24.48
X$435 14 141 161 113 14 5 5 sky130_fd_sc_hd__nand2_1
* cell instance $438 r0 *1 15.64,24.48
X$438 14 148 157 147 14 5 5 sky130_fd_sc_hd__nand2_1
* cell instance $439 r0 *1 17.02,24.48
X$439 14 9 14 5 5 sky130_fd_sc_hd__clkinv_2
* cell instance $440 r0 *1 18.86,24.48
X$440 5 153 9 14 14 5 sky130_fd_sc_hd__clkbuf_16
* cell instance $441 r0 *1 28.06,24.48
X$441 5 144 11 143 14 14 5 sky130_fd_sc_hd__dfxtp_1
* cell instance $442 r0 *1 35.42,24.48
X$442 14 75 136 150 14 5 5 sky130_fd_sc_hd__nand2_1
* cell instance $443 r0 *1 36.8,24.48
X$443 5 172 114 144 14 14 5 sky130_fd_sc_hd__xnor2_2
* cell instance $446 r0 *1 43.24,24.48
X$446 14 11 810 5 14 5 sky130_fd_sc_hd__clkbuf_1
* cell instance $448 r0 *1 45.08,24.48
X$448 14 105 109 173 14 5 5 sky130_fd_sc_hd__nand2_1
* cell instance $449 r0 *1 46.46,24.48
X$449 5 100 11 173 14 14 5 sky130_fd_sc_hd__dfxtp_1
* cell instance $451 r0 *1 57.5,24.48
X$451 5 68 125 447 14 14 5 sky130_fd_sc_hd__xor2_2
* cell instance $452 r0 *1 63.48,24.48
X$452 14 75 163 87 14 5 5 sky130_fd_sc_hd__nand2_1
* cell instance $453 r0 *1 64.86,24.48
X$453 14 189 164 163 14 5 5 sky130_fd_sc_hd__xnor2_1
* cell instance $454 r0 *1 68.08,24.48
X$454 14 179 5 38 14 5 sky130_fd_sc_hd__buf_2
* cell instance $460 r0 *1 73.14,24.48
X$460 5 152 44 110 14 14 5 sky130_fd_sc_hd__xnor2_2
* cell instance $461 r0 *1 79.12,24.48
X$461 5 110 170 149 14 14 5 sky130_fd_sc_hd__dfxtp_2
* cell instance $462 r0 *1 86.94,24.48
X$462 5 169 170 171 14 14 5 sky130_fd_sc_hd__dfxtp_1
* cell instance $464 r0 *1 94.76,24.48
X$464 14 134 165 14 166 5 5 sky130_fd_sc_hd__xor2_1
* cell instance $467 r0 *1 98.44,24.48
X$467 5 116 25 168 14 14 5 sky130_fd_sc_hd__dfxtp_1
* cell instance $468 r0 *1 105.8,24.48
X$468 14 29 166 181 5 14 5 sky130_fd_sc_hd__nor2_1
* cell instance $480 m0 *1 3.68,29.92
X$480 5 160 174 167 14 14 5 sky130_fd_sc_hd__dfxtp_1
* cell instance $481 m0 *1 11.04,29.92
X$481 5 153 174 14 14 5 sky130_fd_sc_hd__clkbuf_16
* cell instance $482 m0 *1 20.24,29.92
X$482 5 162 183 141 14 14 5 sky130_fd_sc_hd__xnor2_2
* cell instance $483 m0 *1 26.22,29.92
X$483 14 56 195 175 5 14 123 5 sky130_fd_sc_hd__a21oi_1
* cell instance $487 m0 *1 30.36,29.92
X$487 14 105 176 197 14 5 5 sky130_fd_sc_hd__nand2_1
* cell instance $488 m0 *1 31.74,29.92
X$488 5 176 177 144 10 14 14 5 sky130_fd_sc_hd__mux2i_1
* cell instance $489 m0 *1 35.42,29.92
X$489 5 231 178 177 72 14 14 5 sky130_fd_sc_hd__mux2i_1
* cell instance $490 m0 *1 39.1,29.92
X$490 5 200 121 177 14 14 5 sky130_fd_sc_hd__xnor2_2
* cell instance $491 m0 *1 45.08,29.92
X$491 5 199 184 178 10 14 14 5 sky130_fd_sc_hd__mux2i_1
* cell instance $492 m0 *1 48.76,29.92
X$492 14 179 5 105 14 5 sky130_fd_sc_hd__clkbuf_4
* cell instance $499 m0 *1 59.8,29.92
X$499 5 213 138 140 10 14 14 5 sky130_fd_sc_hd__mux2i_1
* cell instance $501 m0 *1 64.4,29.92
X$501 5 185 14 14 5 sky130_fd_sc_hd__bufinv_16
* cell instance $502 m0 *1 75.44,29.92
X$502 14 72 110 196 14 5 5 sky130_fd_sc_hd__nand2_1
* cell instance $505 m0 *1 78.2,29.92
X$505 14 75 179 207 14 5 5 sky130_fd_sc_hd__nand2_1
* cell instance $508 m0 *1 81.88,29.92
X$508 5 164 210 72 66 14 14 5 sky130_fd_sc_hd__and3_1
* cell instance $511 m0 *1 85.1,29.92
X$511 14 26 165 92 180 14 5 192 5 sky130_fd_sc_hd__o31ai_1
* cell instance $512 m0 *1 87.86,29.92
X$512 5 76 170 193 14 14 5 sky130_fd_sc_hd__dfxtp_2
* cell instance $513 m0 *1 95.68,29.92
X$513 14 169 5 66 14 5 sky130_fd_sc_hd__buf_2
* cell instance $515 m0 *1 97.98,29.92
X$515 5 165 170 181 14 14 5 sky130_fd_sc_hd__dfxtp_1
* cell instance $516 m0 *1 105.34,29.92
X$516 14 191 92 165 116 5 190 14 5 sky130_fd_sc_hd__nor4_1
* cell instance $519 r0 *1 2.76,29.92
X$519 5 183 174 186 14 14 5 sky130_fd_sc_hd__dfxtp_1
* cell instance $520 r0 *1 10.12,29.92
X$520 5 174 14 14 5 sky130_fd_sc_hd__clkbuf_8
* cell instance $523 r0 *1 15.64,29.92
X$523 14 158 238 182 5 14 209 5 sky130_fd_sc_hd__a21oi_1
* cell instance $525 r0 *1 17.94,29.92
X$525 14 148 161 175 14 5 5 sky130_fd_sc_hd__nand2_1
* cell instance $526 r0 *1 19.32,29.92
X$526 5 194 203 148 14 14 5 sky130_fd_sc_hd__xnor2_2
* cell instance $527 r0 *1 25.3,29.92
X$527 14 187 157 195 14 5 5 sky130_fd_sc_hd__nand2_1
* cell instance $528 r0 *1 26.68,29.92
X$528 14 187 161 204 14 5 5 sky130_fd_sc_hd__nand2_1
* cell instance $530 r0 *1 28.98,29.92
X$530 14 105 151 143 14 5 5 sky130_fd_sc_hd__nand2_1
* cell instance $531 r0 *1 30.36,29.92
X$531 5 177 205 197 14 14 5 sky130_fd_sc_hd__dfxtp_1
* cell instance $532 r0 *1 37.72,29.92
X$532 5 205 14 14 5 sky130_fd_sc_hd__clkbuf_8
* cell instance $536 r0 *1 44.16,29.92
X$536 5 184 205 211 14 14 5 sky130_fd_sc_hd__dfxtp_1
* cell instance $537 r0 *1 51.52,29.92
X$537 5 212 188 184 72 14 14 5 sky130_fd_sc_hd__mux2i_1
* cell instance $539 r0 *1 55.66,29.92
X$539 5 214 189 188 10 14 14 5 sky130_fd_sc_hd__mux2i_1
* cell instance $541 r0 *1 61.18,29.92
X$541 14 56 213 198 5 14 5 sky130_fd_sc_hd__nor2_1
* cell instance $543 r0 *1 63.02,29.92
X$543 5 138 185 198 14 14 5 sky130_fd_sc_hd__dfxtp_1
* cell instance $546 r0 *1 70.84,29.92
X$546 14 196 164 14 233 5 5 sky130_fd_sc_hd__xor2_1
* cell instance $549 r0 *1 75.44,29.92
X$549 5 289 126 164 14 14 5 sky130_fd_sc_hd__xnor2_2
* cell instance $550 r0 *1 81.42,29.92
X$550 14 66 72 164 5 14 206 5 sky130_fd_sc_hd__a21oi_1
* cell instance $551 r0 *1 83.26,29.92
X$551 14 206 210 129 14 171 5 5 sky130_fd_sc_hd__o21ai_0
* cell instance $553 r0 *1 88.78,29.92
X$553 5 153 170 14 14 5 sky130_fd_sc_hd__clkbuf_16
* cell instance $556 r0 *1 98.44,29.92
X$556 5 170 14 14 5 sky130_fd_sc_hd__clkbuf_8
* cell instance $557 r0 *1 103.5,29.92
X$557 14 180 26 234 5 29 14 5 sky130_fd_sc_hd__o21ai_2
* cell instance $569 m0 *1 2.76,35.36
X$569 14 183 142 202 14 5 5 sky130_fd_sc_hd__nand2_1
* cell instance $570 m0 *1 4.14,35.36
X$570 14 158 201 202 5 14 186 5 sky130_fd_sc_hd__a21oi_1
* cell instance $571 m0 *1 5.98,35.36
X$571 14 203 215 201 14 5 5 sky130_fd_sc_hd__nand2_1
* cell instance $572 m0 *1 7.36,35.36
X$572 5 203 174 209 14 14 5 sky130_fd_sc_hd__dfxtp_1
* cell instance $574 m0 *1 15.18,35.36
X$574 14 216 5 158 14 5 sky130_fd_sc_hd__buf_2
* cell instance $575 m0 *1 19.78,35.36
X$575 5 187 174 217 14 14 5 sky130_fd_sc_hd__dfxtp_1
* cell instance $576 m0 *1 27.14,35.36
X$576 14 56 224 204 5 14 217 5 sky130_fd_sc_hd__a21oi_1
* cell instance $578 m0 *1 29.44,35.36
X$578 14 225 5 56 14 5 sky130_fd_sc_hd__clkbuf_4
* cell instance $579 m0 *1 32.2,35.36
X$579 5 178 205 218 14 14 5 sky130_fd_sc_hd__dfxtp_1
* cell instance $580 m0 *1 39.56,35.36
X$580 5 153 205 14 14 5 sky130_fd_sc_hd__clkbuf_16
* cell instance $582 m0 *1 49.22,35.36
X$582 5 188 205 227 14 14 5 sky130_fd_sc_hd__dfxtp_1
* cell instance $584 m0 *1 57.04,35.36
X$584 5 189 185 219 14 14 5 sky130_fd_sc_hd__dfxtp_1
* cell instance $585 m0 *1 64.4,35.36
X$585 5 153 185 14 14 5 sky130_fd_sc_hd__clkbuf_16
* cell instance $586 m0 *1 73.6,35.36
X$586 5 164 185 226 14 14 5 sky130_fd_sc_hd__dfxtp_2
* cell instance $592 m0 *1 86.02,35.36
X$592 14 180 76 5 14 63 5 sky130_fd_sc_hd__nor2b_2
* cell instance $595 m0 *1 92,35.36
X$595 14 207 26 220 5 14 223 5 sky130_fd_sc_hd__a21oi_1
* cell instance $596 m0 *1 93.84,35.36
X$596 5 180 170 223 14 14 5 sky130_fd_sc_hd__dfxtp_2
* cell instance $597 m0 *1 101.66,35.36
X$597 14 221 180 220 5 14 5 sky130_fd_sc_hd__nand2b_1
* cell instance $598 m0 *1 103.96,35.36
X$598 14 26 221 222 5 14 5 sky130_fd_sc_hd__nand2b_1
* cell instance $599 m0 *1 106.26,35.36
X$599 14 244 221 5 14 5 sky130_fd_sc_hd__clkbuf_1
* cell instance $601 r0 *1 2.3,35.36
X$601 5 241 174 228 14 14 5 sky130_fd_sc_hd__dfxtp_1
* cell instance $602 r0 *1 9.66,35.36
X$602 14 158 237 245 5 14 228 5 sky130_fd_sc_hd__a21oi_1
* cell instance $605 r0 *1 12.88,35.36
X$605 14 183 215 237 14 5 5 sky130_fd_sc_hd__nand2_1
* cell instance $610 r0 *1 16.56,35.36
X$610 14 229 215 238 14 5 5 sky130_fd_sc_hd__nand2_1
* cell instance $611 r0 *1 17.94,35.36
X$611 14 229 142 247 14 5 5 sky130_fd_sc_hd__nand2_1
* cell instance $613 r0 *1 20.24,35.36
X$613 5 230 229 187 14 14 5 sky130_fd_sc_hd__xnor2_2
* cell instance $617 r0 *1 33.12,35.36
X$617 14 56 231 218 5 14 5 sky130_fd_sc_hd__nor2_1
* cell instance $623 r0 *1 43.24,35.36
X$623 14 105 199 211 14 5 5 sky130_fd_sc_hd__nand2_1
* cell instance $624 r0 *1 44.62,35.36
X$624 5 240 97 178 14 14 5 sky130_fd_sc_hd__xnor2_2
* cell instance $625 r0 *1 50.6,35.36
X$625 14 100 184 232 14 5 5 sky130_fd_sc_hd__xnor2_1
* cell instance $627 r0 *1 54.74,35.36
X$627 14 140 188 250 14 5 5 sky130_fd_sc_hd__xnor2_1
* cell instance $630 r0 *1 63.94,35.36
X$630 5 248 138 189 14 14 5 sky130_fd_sc_hd__xnor2_2
* cell instance $634 r0 *1 70.84,35.36
X$634 14 56 233 226 5 14 5 sky130_fd_sc_hd__nor2_1
* cell instance $639 r0 *1 83.72,35.36
X$639 14 234 5 129 14 5 sky130_fd_sc_hd__buf_2
* cell instance $641 r0 *1 87.4,35.36
X$641 5 246 180 76 14 14 5 sky130_fd_sc_hd__nand2b_2
* cell instance $642 r0 *1 90.62,35.36
X$642 5 235 170 239 14 14 5 sky130_fd_sc_hd__dfxtp_1
* cell instance $645 r0 *1 98.44,35.36
X$645 14 207 192 222 5 14 193 5 sky130_fd_sc_hd__a21oi_1
* cell instance $647 r0 *1 100.74,35.36
X$647 14 235 236 5 14 5 sky130_fd_sc_hd__clkbuf_1
* cell instance $649 r0 *1 103.96,35.36
X$649 14 180 26 191 5 14 5 sky130_fd_sc_hd__nor2_1
* cell instance $651 r0 *1 105.8,35.36
X$651 14 190 208 5 14 5 sky130_fd_sc_hd__clkbuf_1
* cell instance $664 m0 *1 7.36,40.8
X$664 14 241 215 267 14 5 5 sky130_fd_sc_hd__nand2_1
* cell instance $665 m0 *1 8.74,40.8
X$665 14 241 142 245 14 5 5 sky130_fd_sc_hd__nand2_1
* cell instance $666 m0 *1 10.12,40.8
X$666 5 242 241 160 14 14 5 sky130_fd_sc_hd__xnor2_2
* cell instance $667 m0 *1 16.1,40.8
X$667 5 229 174 251 14 14 5 sky130_fd_sc_hd__dfxtp_1
* cell instance $668 m0 *1 23.46,40.8
X$668 14 225 5 216 14 5 sky130_fd_sc_hd__clkbuf_4
* cell instance $670 m0 *1 26.68,40.8
X$670 14 270 157 224 14 5 5 sky130_fd_sc_hd__nand2_1
* cell instance $675 m0 *1 31.74,40.8
X$675 14 271 5 249 14 5 sky130_fd_sc_hd__buf_2
* cell instance $678 m0 *1 38.18,40.8
X$678 5 255 205 256 14 14 5 sky130_fd_sc_hd__dfxtp_1
* cell instance $679 m0 *1 45.54,40.8
X$679 14 71 255 258 14 5 5 sky130_fd_sc_hd__xnor2_1
* cell instance $680 m0 *1 48.76,40.8
X$680 14 56 212 227 5 14 5 sky130_fd_sc_hd__nor2_1
* cell instance $689 m0 *1 65.78,40.8
X$689 14 239 230 258 260 14 5 5 sky130_fd_sc_hd__nand3_1
* cell instance $690 m0 *1 67.62,40.8
X$690 14 259 230 258 261 14 5 5 sky130_fd_sc_hd__or3_1
* cell instance $691 m0 *1 69.92,40.8
X$691 14 243 14 5 259 5 sky130_fd_sc_hd__clkbuf_2
* cell instance $694 m0 *1 75.9,40.8
X$694 14 234 14 5 225 5 sky130_fd_sc_hd__inv_1
* cell instance $696 m0 *1 78.2,40.8
X$696 14 234 5 179 14 5 sky130_fd_sc_hd__clkbuf_4
* cell instance $697 m0 *1 80.96,40.8
X$697 14 259 152 263 269 14 5 5 sky130_fd_sc_hd__or3_1
* cell instance $700 m0 *1 84.64,40.8
X$700 5 76 180 243 234 14 14 5 sky130_fd_sc_hd__nand3b_4
* cell instance $703 m0 *1 96.6,40.8
X$703 14 76 180 5 14 324 5 sky130_fd_sc_hd__nor2b_2
* cell instance $704 m0 *1 99.82,40.8
X$704 14 266 5 234 14 5 sky130_fd_sc_hd__clkbuf_4
* cell instance $710 r0 *1 4.14,40.8
X$710 14 273 267 283 5 14 284 5 sky130_fd_sc_hd__a21oi_1
* cell instance $713 r0 *1 11.5,40.8
X$713 14 160 157 286 14 5 5 sky130_fd_sc_hd__nand2_1
* cell instance $720 r0 *1 17.48,40.8
X$720 14 158 268 247 5 14 251 5 sky130_fd_sc_hd__a21oi_1
* cell instance $721 r0 *1 19.32,40.8
X$721 14 288 157 268 14 5 5 sky130_fd_sc_hd__nand2_1
* cell instance $723 r0 *1 22.54,40.8
X$723 14 225 5 273 14 5 sky130_fd_sc_hd__clkbuf_4
* cell instance $724 r0 *1 25.3,40.8
X$724 14 252 5 161 14 5 sky130_fd_sc_hd__buf_2
* cell instance $729 r0 *1 34.04,40.8
X$729 14 249 5 253 14 5 sky130_fd_sc_hd__buf_2
* cell instance $730 r0 *1 35.88,40.8
X$730 14 274 254 275 14 5 5 sky130_fd_sc_hd__nand2_1
* cell instance $732 r0 *1 37.72,40.8
X$732 14 255 253 292 14 5 5 sky130_fd_sc_hd__nand2_1
* cell instance $734 r0 *1 39.56,40.8
X$734 14 255 254 311 14 5 5 sky130_fd_sc_hd__nand2_1
* cell instance $741 r0 *1 45.54,40.8
X$741 5 277 205 294 14 14 5 sky130_fd_sc_hd__dfxtp_1
* cell instance $743 r0 *1 56.58,40.8
X$743 5 257 185 295 14 14 5 sky130_fd_sc_hd__dfxtp_1
* cell instance $745 r0 *1 64.4,40.8
X$745 14 242 257 263 14 5 5 sky130_fd_sc_hd__xnor2_1
* cell instance $747 r0 *1 68.54,40.8
X$747 14 261 260 278 262 14 5 5 sky130_fd_sc_hd__nand3_1
* cell instance $751 r0 *1 70.84,40.8
X$751 5 265 185 262 14 14 5 sky130_fd_sc_hd__dfxtp_1
* cell instance $752 r0 *1 78.2,40.8
X$752 14 290 291 272 264 14 5 5 sky130_fd_sc_hd__nand3_1
* cell instance $754 r0 *1 80.5,40.8
X$754 14 239 152 263 287 14 5 5 sky130_fd_sc_hd__nand3_1
* cell instance $756 r0 *1 82.8,40.8
X$756 5 279 170 264 14 14 5 sky130_fd_sc_hd__dfxtp_1
* cell instance $765 r0 *1 101.2,40.8
X$765 14 282 306 5 14 5 sky130_fd_sc_hd__clkbuf_1
* cell instance $775 m0 *1 3.68,46.24
X$775 14 296 142 283 14 5 5 sky130_fd_sc_hd__nand2_1
* cell instance $776 m0 *1 5.06,46.24
X$776 5 296 174 284 14 14 5 sky130_fd_sc_hd__dfxtp_1
* cell instance $777 m0 *1 12.42,46.24
X$777 14 158 286 297 5 14 285 5 sky130_fd_sc_hd__a21oi_1
* cell instance $780 m0 *1 19.78,46.24
X$780 14 288 142 309 14 5 5 sky130_fd_sc_hd__nand2_1
* cell instance $782 m0 *1 24.84,46.24
X$782 14 249 14 5 157 5 sky130_fd_sc_hd__buf_4
* cell instance $787 m0 *1 30.36,46.24
X$787 5 274 205 298 14 14 5 sky130_fd_sc_hd__dfxtp_1
* cell instance $788 m0 *1 37.72,46.24
X$788 14 276 275 292 298 14 5 5 sky130_fd_sc_hd__nand3_1
* cell instance $789 m0 *1 39.56,46.24
X$789 14 276 311 327 256 14 5 5 sky130_fd_sc_hd__nand3_1
* cell instance $793 m0 *1 47.84,46.24
X$793 14 276 312 326 294 14 5 5 sky130_fd_sc_hd__nand3_1
* cell instance $795 m0 *1 50.6,46.24
X$795 14 277 254 312 14 5 5 sky130_fd_sc_hd__nand2_1
* cell instance $798 m0 *1 53.36,46.24
X$798 14 277 253 313 14 5 5 sky130_fd_sc_hd__nand2_1
* cell instance $800 m0 *1 55.2,46.24
X$800 14 257 254 325 14 5 5 sky130_fd_sc_hd__nand2_1
* cell instance $802 m0 *1 57.04,46.24
X$802 5 299 185 300 14 14 5 sky130_fd_sc_hd__dfxtp_1
* cell instance $803 m0 *1 64.4,46.24
X$803 14 230 299 301 14 5 5 sky130_fd_sc_hd__xnor2_1
* cell instance $804 m0 *1 67.62,46.24
X$804 14 314 277 293 14 5 5 sky130_fd_sc_hd__xnor2_1
* cell instance $807 m0 *1 72.22,46.24
X$807 14 259 248 301 290 14 5 5 sky130_fd_sc_hd__or3_1
* cell instance $808 m0 *1 74.52,46.24
X$808 14 239 248 301 291 14 5 5 sky130_fd_sc_hd__nand3_1
* cell instance $810 m0 *1 78.2,46.24
X$810 14 302 265 310 278 14 5 5 sky130_fd_sc_hd__nand3_1
* cell instance $811 m0 *1 80.04,46.24
X$811 14 302 279 310 272 14 5 5 sky130_fd_sc_hd__nand3_1
* cell instance $812 m0 *1 81.88,46.24
X$812 14 259 289 293 322 14 5 5 sky130_fd_sc_hd__or3_1
* cell instance $814 m0 *1 84.64,46.24
X$814 14 269 287 303 280 14 5 5 sky130_fd_sc_hd__nand3_1
* cell instance $815 m0 *1 86.48,46.24
X$815 5 281 170 280 14 14 5 sky130_fd_sc_hd__dfxtp_1
* cell instance $816 m0 *1 93.84,46.24
X$816 14 302 281 310 303 14 5 5 sky130_fd_sc_hd__nand3_1
* cell instance $819 m0 *1 97.98,46.24
X$819 14 281 304 305 14 5 5 sky130_fd_sc_hd__and2_0
* cell instance $820 m0 *1 100.28,46.24
X$820 14 279 304 282 14 5 5 sky130_fd_sc_hd__and2_0
* cell instance $822 m0 *1 103.5,46.24
X$822 14 265 304 308 14 5 5 sky130_fd_sc_hd__and2_0
* cell instance $823 m0 *1 105.8,46.24
X$823 14 308 307 5 14 5 sky130_fd_sc_hd__clkbuf_1
* cell instance $827 r0 *1 4.14,46.24
X$827 5 329 174 285 14 14 5 sky130_fd_sc_hd__dfxtp_1
* cell instance $828 r0 *1 11.5,46.24
X$828 14 329 157 343 14 5 5 sky130_fd_sc_hd__nand2_1
* cell instance $830 r0 *1 13.34,46.24
X$830 14 329 161 297 14 5 5 sky130_fd_sc_hd__nand2_1
* cell instance $837 r0 *1 17.48,46.24