* CDL Netlist generated by OpenROAD

*.BUSDELIMITER [

.SUBCKT performance_counter all_counts[0] all_counts[100]
+ all_counts[101] all_counts[102] all_counts[103] all_counts[104]
+ all_counts[105] all_counts[106] all_counts[107] all_counts[108]
+ all_counts[109] all_counts[10] all_counts[110] all_counts[111]
+ all_counts[112] all_counts[113] all_counts[114] all_counts[115]
+ all_counts[116] all_counts[117] all_counts[118] all_counts[119]
+ all_counts[11] all_counts[120] all_counts[121] all_counts[122]
+ all_counts[123] all_counts[124] all_counts[125] all_counts[126]
+ all_counts[127] all_counts[128] all_counts[129] all_counts[12]
+ all_counts[130] all_counts[131] all_counts[132] all_counts[133]
+ all_counts[134] all_counts[135] all_counts[136] all_counts[137]
+ all_counts[138] all_counts[139] all_counts[13] all_counts[140]
+ all_counts[141] all_counts[142] all_counts[143] all_counts[144]
+ all_counts[145] all_counts[146] all_counts[147] all_counts[148]
+ all_counts[149] all_counts[14] all_counts[150] all_counts[151]
+ all_counts[152] all_counts[153] all_counts[154] all_counts[155]
+ all_counts[156] all_counts[157] all_counts[158] all_counts[159]
+ all_counts[15] all_counts[160] all_counts[161] all_counts[162]
+ all_counts[163] all_counts[164] all_counts[165] all_counts[166]
+ all_counts[167] all_counts[168] all_counts[169] all_counts[16]
+ all_counts[170] all_counts[171] all_counts[172] all_counts[173]
+ all_counts[174] all_counts[175] all_counts[176] all_counts[177]
+ all_counts[178] all_counts[179] all_counts[17] all_counts[180]
+ all_counts[181] all_counts[182] all_counts[183] all_counts[184]
+ all_counts[185] all_counts[186] all_counts[187] all_counts[188]
+ all_counts[189] all_counts[18] all_counts[190] all_counts[191]
+ all_counts[192] all_counts[193] all_counts[194] all_counts[195]
+ all_counts[196] all_counts[197] all_counts[198] all_counts[199]
+ all_counts[19] all_counts[1] all_counts[200] all_counts[201]
+ all_counts[202] all_counts[203] all_counts[204] all_counts[205]
+ all_counts[206] all_counts[207] all_counts[208] all_counts[209]
+ all_counts[20] all_counts[210] all_counts[211] all_counts[212]
+ all_counts[213] all_counts[214] all_counts[215] all_counts[216]
+ all_counts[217] all_counts[218] all_counts[219] all_counts[21]
+ all_counts[220] all_counts[221] all_counts[222] all_counts[223]
+ all_counts[224] all_counts[225] all_counts[226] all_counts[227]
+ all_counts[228] all_counts[229] all_counts[22] all_counts[230]
+ all_counts[231] all_counts[232] all_counts[233] all_counts[234]
+ all_counts[235] all_counts[236] all_counts[237] all_counts[238]
+ all_counts[239] all_counts[23] all_counts[240] all_counts[241]
+ all_counts[242] all_counts[243] all_counts[244] all_counts[245]
+ all_counts[246] all_counts[247] all_counts[248] all_counts[249]
+ all_counts[24] all_counts[250] all_counts[251] all_counts[252]
+ all_counts[253] all_counts[254] all_counts[255] all_counts[25]
+ all_counts[26] all_counts[27] all_counts[28] all_counts[29]
+ all_counts[2] all_counts[30] all_counts[31] all_counts[32]
+ all_counts[33] all_counts[34] all_counts[35] all_counts[36]
+ all_counts[37] all_counts[38] all_counts[39] all_counts[3]
+ all_counts[40] all_counts[41] all_counts[42] all_counts[43]
+ all_counts[44] all_counts[45] all_counts[46] all_counts[47]
+ all_counts[48] all_counts[49] all_counts[4] all_counts[50]
+ all_counts[51] all_counts[52] all_counts[53] all_counts[54]
+ all_counts[55] all_counts[56] all_counts[57] all_counts[58]
+ all_counts[59] all_counts[5] all_counts[60] all_counts[61]
+ all_counts[62] all_counts[63] all_counts[64] all_counts[65]
+ all_counts[66] all_counts[67] all_counts[68] all_counts[69]
+ all_counts[6] all_counts[70] all_counts[71] all_counts[72]
+ all_counts[73] all_counts[74] all_counts[75] all_counts[76]
+ all_counts[77] all_counts[78] all_counts[79] all_counts[7]
+ all_counts[80] all_counts[81] all_counts[82] all_counts[83]
+ all_counts[84] all_counts[85] all_counts[86] all_counts[87]
+ all_counts[88] all_counts[89] all_counts[8] all_counts[90]
+ all_counts[91] all_counts[92] all_counts[93] all_counts[94]
+ all_counts[95] all_counts[96] all_counts[97] all_counts[98]
+ all_counts[99] all_counts[9] clear clk count_value[0] count_value[10]
+ count_value[11] count_value[12] count_value[13] count_value[14]
+ count_value[15] count_value[16] count_value[17] count_value[18]
+ count_value[19] count_value[1] count_value[20] count_value[21]
+ count_value[22] count_value[23] count_value[24] count_value[25]
+ count_value[26] count_value[27] count_value[28] count_value[29]
+ count_value[2] count_value[30] count_value[31] count_value[3]
+ count_value[4] count_value[5] count_value[6] count_value[7]
+ count_value[8] count_value[9] counter_sel[0] counter_sel[1]
+ counter_sel[2] counter_sel[3] counter_sel[4] counter_sel[5]
+ counter_sel[6] counter_sel[7] enable event_inc[0] event_inc[1]
+ event_inc[2] event_inc[3] event_inc[4] event_inc[5] event_inc[6]
+ event_inc[7] rst_n
X_1933_ _1197_ net223 _1198_ _1268_ VDD VSS AOI21_X1
X_1934_ _1222_ net188 _1269_ VDD VSS NAND2_X1
X_1935_ _1268_ _1269_ _1224_ _1270_ VDD VSS OAI21_X2
X_1936_ _1169_ _0952_ _1227_ _1271_ VDD VSS AOI21_X1
X_1937_ _1209_ _1270_ _1271_ net38 _1229_ _1272_ VDD VSS AOI221_X2
X_1938_ _1244_ net73 _1273_ VDD VSS NOR2_X1
X_1939_ _1196_ _1272_ _1273_ _1274_ VDD VSS OR3_X1
X_1940_ net180 _1275_ VDD VSS INV_X1
X_1941_ _1266_ _1267_ _1274_ _1275_ _1234_ net288 VDD VSS
+ AOI221_X1
X_1942_ _1235_ net113 _0978_ _1276_ VDD VSS NOR3_X1
X_1943_ _1218_ _1660_ _1219_ _1277_ VDD VSS AOI21_X2
X_1944_ _1197_ _0700_ _1198_ _1278_ VDD VSS AOI21_X1
X_1945_ _1222_ _1414_ _1279_ VDD VSS NAND2_X1
X_1946_ _1278_ _1279_ _1224_ _1280_ VDD VSS OAI21_X1
X_1947_ _0834_ _1281_ VDD VSS INV_X1
X_1948_ _1000_ _1281_ _1227_ _1282_ VDD VSS AOI21_X1
X_1949_ _1209_ _1280_ _1282_ _1359_ _1229_ _1283_ VDD VSS
+ AOI221_X2
X_1950_ _1244_ net43 _1284_ VDD VSS NOR2_X1
X_1951_ _1196_ _1283_ _1284_ _1285_ VDD VSS OR3_X1
X_1952_ _1276_ _1277_ _1285_ _0532_ _1234_ net289 VDD VSS
+ AOI221_X2
X_1953_ _1235_ _0403_ _0978_ _1286_ VDD VSS NOR3_X1
X_1954_ _1218_ net79 _1219_ _1287_ VDD VSS AOI21_X2
X_1955_ _1197_ _0707_ _1198_ _1288_ VDD VSS AOI21_X1
X_1956_ _1222_ _1415_ _1289_ VDD VSS NAND2_X1
X_1957_ _1288_ _1289_ _1224_ _1290_ VDD VSS OAI21_X1
X_1958_ _1000_ _0843_ _1227_ _1291_ VDD VSS AOI21_X1
X_1959_ _1209_ _1290_ _1291_ _1358_ _1229_ _1292_ VDD VSS
+ AOI221_X2
X_1960_ _1244_ net44 _1293_ VDD VSS NOR2_X1
X_1961_ _1196_ _1292_ _1293_ _1294_ VDD VSS OR3_X1
X_1962_ _1286_ _1287_ _1294_ _0544_ _1234_ net290 VDD VSS
+ AOI221_X2
X_1963_ _1235_ net115 _0978_ _1295_ VDD VSS NOR3_X1
X_1964_ _1218_ net80 _1219_ _1296_ VDD VSS AOI21_X2
X_1965_ _1197_ _0712_ _1198_ _1297_ VDD VSS AOI21_X1
X_1966_ _1222_ net219 _1298_ VDD VSS NAND2_X1
X_1967_ _1297_ _1298_ _1224_ _1299_ VDD VSS OAI21_X1
X_1968_ net229 _1300_ VDD VSS INV_X1
X_1969_ _1000_ _1300_ _1227_ _1301_ VDD VSS AOI21_X1
X_1970_ _1209_ _1299_ _1301_ _1368_ _1229_ _1302_ VDD VSS
+ AOI221_X2
X_1971_ _1244_ net45 _1303_ VDD VSS NOR2_X1
X_1972_ _1196_ _1302_ _1303_ _1304_ VDD VSS OR3_X1
X_1973_ _1295_ _1296_ _1304_ _0546_ _1234_ net291 VDD VSS
+ AOI221_X2
X_1974_ _1235_ net116 _0978_ _1305_ VDD VSS NOR3_X2
X_1975_ _1218_ _0282_ _1219_ _1306_ VDD VSS AOI21_X2
X_1976_ _0990_ _0716_ _0992_ _1307_ VDD VSS AOI21_X1
X_1977_ _1222_ _1419_ _1308_ VDD VSS NAND2_X1
X_1978_ _1307_ _1308_ _1224_ _1309_ VDD VSS OAI21_X1
X_1979_ _1000_ _0853_ _1227_ _1310_ VDD VSS AOI21_X1
X_1980_ _1209_ _1309_ _1310_ _1376_ _1229_ _1311_ VDD VSS
+ AOI221_X2
X_1981_ _1244_ _1539_ _1312_ VDD VSS NOR2_X1
X_1982_ _0984_ _1311_ _1312_ _1313_ VDD VSS OR3_X1
X_1983_ _1305_ _1306_ _1313_ _0552_ _1234_ net292 VDD VSS
+ AOI221_X2
X_1984_ _1235_ _0412_ _0978_ _1314_ VDD VSS NOR3_X2
X_1985_ _1218_ _0288_ _1219_ _1315_ VDD VSS AOI21_X2
X_1986_ _0990_ _0720_ _0992_ _1316_ VDD VSS AOI21_X1
X_1987_ _1222_ _1420_ _1317_ VDD VSS NAND2_X1
X_1988_ _1316_ _1317_ _1224_ _1318_ VDD VSS OAI21_X1
X_1989_ _0852_ _1319_ VDD VSS INV_X1
X_1990_ _1000_ _1319_ _1227_ _1320_ VDD VSS AOI21_X1
X_1991_ _0988_ _1318_ _1320_ _1380_ _1229_ _1321_ VDD VSS
+ AOI221_X2
X_1992_ _1244_ _1544_ _1322_ VDD VSS NOR2_X1
X_1993_ _0984_ _1321_ _1322_ _1323_ VDD VSS OR3_X1
X_1994_ _1314_ _1315_ _1323_ _0555_ _1234_ net293 VDD VSS
+ AOI221_X2
X_1995_ _1235_ _0422_ _0978_ _1324_ VDD VSS NOR3_X2
X_1996_ _0982_ net83 _0987_ _1325_ VDD VSS AOI21_X1
X_1997_ _0990_ _0727_ _0992_ _1326_ VDD VSS AOI21_X1
X_1998_ _0995_ net252 _1327_ VDD VSS NAND2_X1
X_1999_ _1326_ _1327_ _0993_ _1328_ VDD VSS OAI21_X1
X_2000_ _1000_ _0856_ _0991_ _1329_ VDD VSS AOI21_X1
X_2001_ _0988_ _1328_ _1329_ _1385_ _1001_ _1330_ VDD VSS
+ AOI221_X2
X_2002_ _1244_ _1549_ _1331_ VDD VSS NOR2_X1
X_2003_ _0984_ _1330_ _1331_ _1332_ VDD VSS OR3_X1
X_2004_ _0558_ _1333_ VDD VSS INV_X1
X_2005_ _1324_ _1325_ _1332_ _1333_ _0979_ net294 VDD VSS
+ AOI221_X2
X_2006_ _0977_ net121 _0978_ _1334_ VDD VSS NOR3_X2
X_2007_ _0982_ net84 _0987_ _1335_ VDD VSS AOI21_X1
X_2008_ _0990_ _0731_ _0992_ _1336_ VDD VSS AOI21_X1
X_2009_ _0995_ net263 _1337_ VDD VSS NAND2_X1
X_2010_ _1336_ _1337_ _0993_ _1338_ VDD VSS OAI21_X1
X_2011_ net234 _1339_ VDD VSS INV_X1
X_2012_ _1000_ _1339_ _0991_ _1340_ VDD VSS AOI21_X1
X_2013_ _0988_ _1338_ _1340_ _1389_ _1001_ _1341_ VDD VSS
+ AOI221_X2
X_2014_ _1007_ _1552_ _1342_ VDD VSS NOR2_X1
X_2015_ _0984_ _1341_ _1342_ _1343_ VDD VSS OR3_X1
X_2016_ _1334_ _1335_ _1343_ _0563_ _0979_ net295 VDD VSS
+ AOI221_X2
X_2017_ clear _1344_ VDD VSS BUF_X4
X_2018_ net7 _1345_ VDD VSS INV_X4
X_2019_ _1344_ _1345_ _1346_ VDD VSS NOR2_X1
X_2020_ _1346_ _1347_ VDD VSS BUF_X2
X_2021_ _1347_ _1348_ VDD VSS CLKBUF_X3
X_2022_ prev_event_inc\[0\] _1349_ VDD VSS INV_X1
X_2023_ enable _1350_ VDD VSS BUF_X4
X_2024_ _1350_ _1351_ VDD VSS BUF_X8
X_2025_ _1349_ net3 _1351_ _1352_ VDD VSS NAND3_X2
X_2026_ _0014_ net8 _1352_ _1353_ VDD VSS MUX2_X1
X_2027_ _1348_ _1353_ _0016_ VDD VSS AND2_X1
X_2028_ _1344_ _1354_ VDD VSS INV_X4
X_2029_ _1354_ net7 _1355_ VDD VSS NAND2_X2
X_2030_ _1355_ _1356_ VDD VSS BUF_X4
X_2031_ _1356_ _1357_ VDD VSS CLKBUF_X3
X_2032_ net9 _1358_ VDD VSS BUF_X2
X_2033_ net262 _1359_ VDD VSS BUF_X2
X_2034_ _1359_ _1360_ VDD VSS INV_X1
X_2035_ prev_event_inc\[3\] _1361_ VDD VSS INV_X2
X_2036_ event_inc[3] _1362_ VDD VSS CLKBUF_X3
X_2037_ net261 _1363_ VDD VSS BUF_X2
X_2038_ _1363_ _1926_ _1364_ VDD VSS AND2_X1
X_2039_ _1351_ _1361_ _1362_ _1364_ _1365_ VDD VSS NAND4_X4
X_2040_ _1360_ _1365_ _1366_ VDD VSS NOR2_X1
X_2041_ _1358_ _1366_ _1367_ VDD VSS XNOR2_X1
X_2042_ _1357_ _1367_ _0017_ VDD VSS NOR2_X1
X_2043_ net10 _1368_ VDD VSS BUF_X2
X_2044_ _1350_ _1369_ VDD VSS INV_X8
X_2045_ net260 _1370_ VDD VSS CLKBUF_X2
X_2046_ _1370_ _1363_ _1371_ VDD VSS NAND2_X1
X_2047_ _1362_ net259 _1372_ VDD VSS NAND2_X2
X_2048_ _1369_ prev_event_inc\[3\] _1371_ _1372_ _1373_ VDD
+ VSS NOR4_X4
X_2049_ _1359_ _1358_ _1373_ _1374_ VDD VSS NAND3_X1
X_2050_ _1368_ _1374_ _1375_ VDD VSS XOR2_X1
X_2051_ _1357_ _1375_ _0018_ VDD VSS NOR2_X1
X_2052_ net11 _1376_ VDD VSS CLKBUF_X2
X_2053_ _1359_ _1358_ _1368_ _1377_ VDD VSS NAND3_X1
X_2054_ _1365_ _1377_ _1378_ VDD VSS NOR2_X1
X_2055_ _1376_ _1378_ _1379_ VDD VSS XNOR2_X1
X_2056_ _1357_ _1379_ _0019_ VDD VSS NOR2_X1
X_2057_ net12 _1380_ VDD VSS CLKBUF_X2
X_2058_ _1380_ _1381_ VDD VSS INV_X1
X_2059_ _1359_ _1358_ _1368_ _1376_ _1382_ VDD VSS AND4_X2
X_2060_ _1373_ _1382_ _1383_ VDD VSS NAND2_X1
X_2061_ _1381_ _1383_ _1384_ VDD VSS XNOR2_X1
X_2062_ _1357_ _1384_ _0020_ VDD VSS NOR2_X1
X_2063_ net13 _1385_ VDD VSS BUF_X2
X_2064_ _1359_ _1358_ _1368_ _1376_ _1386_ VDD VSS NAND4_X2
X_2065_ _1381_ _1365_ _1386_ _1387_ VDD VSS NOR3_X1
X_2066_ _1385_ _1387_ _1388_ VDD VSS XNOR2_X1
X_2067_ _1357_ _1388_ _0021_ VDD VSS NOR2_X1
X_2068_ net14 _1389_ VDD VSS BUF_X2
X_2069_ _1380_ _1385_ _1373_ _1382_ _1390_ VDD VSS NAND4_X1
X_2070_ _1389_ _1390_ _1391_ VDD VSS XOR2_X1
X_2071_ _1357_ _1391_ _0022_ VDD VSS NOR2_X1
X_2072_ _1380_ _1385_ _1389_ _1392_ VDD VSS NAND3_X1
X_2073_ _1365_ _1386_ _1392_ _1393_ VDD VSS NOR3_X1
X_2074_ net15 _1393_ _1394_ VDD VSS XNOR2_X1
X_2075_ _1357_ _1394_ _0023_ VDD VSS NOR2_X1
X_2076_ net16 _1395_ VDD VSS BUF_X2
X_2077_ _1380_ _1385_ _1389_ net15 _1396_ VDD VSS AND4_X2
X_2078_ _1373_ _1382_ _1396_ _1397_ VDD VSS NAND3_X1
X_2079_ _1395_ _1397_ _1398_ VDD VSS XOR2_X1
X_2080_ _1357_ _1398_ _0024_ VDD VSS NOR2_X1
X_2081_ net17 _1399_ VDD VSS BUF_X2
X_2082_ _1395_ _1396_ _1400_ VDD VSS NAND2_X1
X_2083_ _1365_ _1386_ _1400_ _1401_ VDD VSS NOR3_X1
X_2084_ _1399_ _1401_ _1402_ VDD VSS XNOR2_X1
X_2085_ _1357_ _1402_ _0025_ VDD VSS NOR2_X1
X_2086_ net18 _1403_ VDD VSS CLKBUF_X2
X_2087_ _1403_ _1404_ VDD VSS INV_X1
X_2088_ _1350_ _1361_ _1362_ _1405_ VDD VSS NAND3_X1
X_2089_ net259 _1370_ _1406_ VDD VSS NAND2_X1
X_2090_ _1363_ _1395_ _1399_ _1396_ _1407_ VDD VSS NAND4_X1
X_2091_ _1405_ _1406_ _1386_ _1407_ _1408_ VDD VSS OR4_X1
X_2092_ _1408_ _1409_ VDD VSS BUF_X4
X_2093_ _1404_ _1409_ _1410_ VDD VSS XNOR2_X1
X_2094_ _1357_ _1410_ _0026_ VDD VSS NOR2_X1
X_2095_ _1356_ _1411_ VDD VSS CLKBUF_X3
X_2096_ _1931_ _1412_ VDD VSS INV_X1
X_2097_ net3 _1350_ _1413_ VDD VSS NAND2_X2
X_2098_ net197 _1414_ VDD VSS BUF_X2
X_2099_ net208 _1415_ VDD VSS BUF_X2
X_2100_ net186 _1414_ _1415_ net219 _1416_ VDD VSS NAND4_X4
X_2101_ prev_event_inc\[0\] _1412_ _1413_ _1416_ _1417_ VDD
+ VSS NOR4_X4
X_2102_ _1417_ _1418_ VDD VSS BUF_X4
X_2103_ net230 _1419_ VDD VSS BUF_X2
X_2104_ net241 _1420_ VDD VSS CLKBUF_X2
X_2105_ _1419_ _1420_ net252 net263 _1421_ VDD VSS AND4_X1
X_2106_ _1418_ _1421_ _1422_ VDD VSS NAND2_X1
X_2107_ net19 _1422_ _1423_ VDD VSS XOR2_X1
X_2108_ _1411_ _1423_ _0027_ VDD VSS NOR2_X1
X_2109_ net20 _1424_ VDD VSS CLKBUF_X2
X_2110_ _1382_ _1396_ _1425_ VDD VSS NAND2_X4
X_2111_ _1363_ _1395_ _1399_ _1926_ _1426_ VDD VSS AND4_X1
X_2112_ _1351_ _1361_ _1362_ _1426_ _1427_ VDD VSS NAND4_X4
X_2113_ _1404_ _1425_ _1427_ _1428_ VDD VSS NOR3_X1
X_2114_ _1424_ _1428_ _1429_ VDD VSS XNOR2_X1
X_2115_ _1411_ _1429_ _0028_ VDD VSS NOR2_X1
X_2116_ _1370_ _1363_ _1395_ _1399_ _1430_ VDD VSS NAND4_X2
X_2117_ _1369_ prev_event_inc\[3\] _1372_ _1430_ _1431_ VDD
+ VSS NOR4_X4
X_2118_ _1382_ _1396_ _1432_ VDD VSS AND2_X1
X_2119_ _1403_ _1424_ _1431_ _1432_ _1433_ VDD VSS NAND4_X1
X_2120_ net21 _1433_ _1434_ VDD VSS XOR2_X1
X_2121_ _1411_ _1434_ _0029_ VDD VSS NOR2_X1
X_2122_ _1403_ _1424_ net21 _1435_ VDD VSS NAND3_X1
X_2123_ _1425_ _1427_ _1435_ _1436_ VDD VSS NOR3_X1
X_2124_ net22 _1436_ _1437_ VDD VSS XNOR2_X1
X_2125_ _1411_ _1437_ _0030_ VDD VSS NOR2_X1
X_2126_ net23 _1438_ VDD VSS CLKBUF_X2
X_2127_ _1403_ _1424_ net21 net22 _1439_ VDD VSS AND4_X1
X_2128_ _1439_ _1440_ VDD VSS BUF_X2
X_2129_ _1431_ _1432_ _1440_ _1441_ VDD VSS NAND3_X1
X_2130_ _1438_ _1441_ _1442_ VDD VSS XOR2_X1
X_2131_ _1411_ _1442_ _0031_ VDD VSS NOR2_X1
X_2132_ net24 _1443_ VDD VSS CLKBUF_X2
X_2133_ _1438_ _1440_ _1444_ VDD VSS NAND2_X1
X_2134_ _1425_ _1427_ _1444_ _1445_ VDD VSS NOR3_X1
X_2135_ _1443_ _1445_ _1446_ VDD VSS XNOR2_X1
X_2136_ _1411_ _1446_ _0032_ VDD VSS NOR2_X1
X_2137_ _1355_ _1447_ VDD VSS BUF_X4
X_2138_ _1447_ _1448_ VDD VSS BUF_X4
X_2139_ net25 _1449_ VDD VSS BUF_X1
X_2140_ _1438_ _1443_ _1440_ _1450_ VDD VSS NAND3_X1
X_2141_ _1449_ _1409_ _1450_ _1451_ VDD VSS OAI21_X1
X_2142_ _1449_ _1409_ _1450_ _1452_ VDD VSS OR3_X1
X_2143_ _1448_ _1451_ _1452_ _0033_ VDD VSS AOI21_X1
X_2144_ _1438_ _1443_ _1449_ _1440_ _1453_ VDD VSS NAND4_X1
X_2145_ _1425_ _1427_ _1453_ _1454_ VDD VSS NOR3_X1
X_2146_ net26 _1454_ _1455_ VDD VSS XNOR2_X1
X_2147_ _1411_ _1455_ _0034_ VDD VSS NOR2_X1
X_2148_ net27 _1456_ VDD VSS BUF_X2
X_2149_ _1438_ _1443_ _1449_ net26 _1457_ VDD VSS AND4_X1
X_2150_ _1440_ _1457_ _1458_ VDD VSS AND2_X1
X_2151_ _1431_ _1432_ _1458_ _1459_ VDD VSS NAND3_X1
X_2152_ _1456_ _1459_ _1460_ VDD VSS XOR2_X1
X_2153_ _1411_ _1460_ _0035_ VDD VSS NOR2_X1
X_2154_ _1456_ _1440_ _1457_ _1461_ VDD VSS NAND3_X1
X_2155_ _1425_ _1427_ _1461_ _1462_ VDD VSS NOR3_X1
X_2156_ net28 _1462_ _1463_ VDD VSS XNOR2_X1
X_2157_ _1411_ _1463_ _0036_ VDD VSS NOR2_X1
X_2158_ net29 _1464_ VDD VSS BUF_X2
X_2159_ _1456_ net28 _1440_ _1457_ _1465_ VDD VSS NAND4_X4
X_2160_ _1464_ _1409_ _1465_ _1466_ VDD VSS OAI21_X1
X_2161_ _1464_ _1409_ _1465_ _1467_ VDD VSS OR3_X1
X_2162_ _1448_ _1466_ _1467_ _0037_ VDD VSS AOI21_X1
X_2163_ net8 net119 _1468_ VDD VSS NAND2_X2
X_2164_ prev_event_inc\[0\] _1413_ _1416_ _1468_ _1469_ VDD
+ VSS NOR4_X4
X_2165_ _1469_ _1470_ VDD VSS BUF_X4
X_2166_ net19 _1421_ _1470_ _1471_ VDD VSS NAND3_X1
X_2167_ net30 _1471_ _1472_ VDD VSS XOR2_X1
X_2168_ _1411_ _1472_ _0038_ VDD VSS NOR2_X1
X_2169_ net31 _1473_ VDD VSS BUF_X2
X_2170_ _1355_ _1474_ VDD VSS CLKBUF_X3
X_2171_ _1473_ _1474_ _1475_ VDD VSS NOR2_X1
X_2172_ _1473_ _1347_ _1476_ VDD VSS AND2_X1
X_2173_ _1425_ _1427_ _1465_ _1477_ VDD VSS NOR3_X2
X_2174_ _1464_ _1477_ _1478_ VDD VSS NAND2_X1
X_2175_ _1475_ _1476_ _1478_ _0039_ VDD VSS MUX2_X1
X_2176_ net32 _1479_ VDD VSS CLKBUF_X2
X_2177_ _1479_ _1347_ _1480_ VDD VSS AND2_X1
X_2178_ _1479_ _1447_ _1481_ VDD VSS NOR2_X1
X_2179_ _1464_ _1473_ _1482_ VDD VSS NAND2_X1
X_2180_ _1409_ _1465_ _1482_ _1483_ VDD VSS NOR3_X1
X_2181_ _1480_ _1481_ _1483_ _0040_ VDD VSS MUX2_X1
X_2182_ _1356_ _1484_ VDD VSS CLKBUF_X3
X_2183_ _1464_ _1473_ _1479_ _1485_ VDD VSS NAND3_X1
X_2184_ _1425_ _1427_ _1465_ _1485_ _1486_ VDD VSS NOR4_X1
X_2185_ net33 _1486_ _1487_ VDD VSS XNOR2_X1
X_2186_ _1484_ _1487_ _0041_ VDD VSS NOR2_X1
X_2187_ net34 _1488_ VDD VSS INV_X1
X_2188_ _1488_ _1474_ _1489_ VDD VSS NOR2_X1
X_2189_ _1355_ _1490_ VDD VSS CLKBUF_X3
X_2190_ net34 _1490_ _1491_ VDD VSS NOR2_X1
X_2191_ _1464_ _1473_ _1479_ net33 _1492_ VDD VSS NAND4_X2
X_2192_ _1409_ _1465_ _1492_ _1493_ VDD VSS NOR3_X1
X_2193_ _1489_ _1491_ _1493_ _0042_ VDD VSS MUX2_X1
X_2194_ net35 _1494_ VDD VSS CLKBUF_X2
X_2195_ _1494_ _1474_ _1495_ VDD VSS NOR2_X1
X_2196_ _1494_ _1347_ _1496_ VDD VSS AND2_X1
X_2197_ _1488_ _1492_ _1497_ VDD VSS NOR2_X2
X_2198_ _1477_ _1497_ _1498_ VDD VSS NAND2_X1
X_2199_ _1495_ _1496_ _1498_ _0043_ VDD VSS MUX2_X1
X_2200_ net36 _1499_ VDD VSS CLKBUF_X2
X_2201_ _1499_ _1346_ _1500_ VDD VSS AND2_X1
X_2202_ _1499_ _1490_ _1501_ VDD VSS NOR2_X1
X_2203_ _1494_ _1497_ _1502_ VDD VSS NAND2_X1
X_2204_ _1409_ _1465_ _1502_ _1503_ VDD VSS NOR3_X1
X_2205_ _1500_ _1501_ _1503_ _0044_ VDD VSS MUX2_X1
X_2206_ net37 _1474_ _1504_ VDD VSS NOR2_X1
X_2207_ net37 _1347_ _1505_ VDD VSS AND2_X1
X_2208_ _1494_ _1499_ _1477_ _1497_ _1506_ VDD VSS NAND4_X1
X_2209_ _1504_ _1505_ _1506_ _0045_ VDD VSS MUX2_X1
X_2210_ net38 _1346_ _1507_ VDD VSS AND2_X1
X_2211_ net38 _1490_ _1508_ VDD VSS NOR2_X1
X_2212_ _1494_ _1499_ net37 _1497_ _1509_ VDD VSS NAND4_X1
X_2213_ _1409_ _1465_ _1509_ _1510_ VDD VSS NOR3_X1
X_2214_ _1507_ _1508_ _1510_ _0046_ VDD VSS MUX2_X1
X_2215_ _1351_ _1511_ VDD VSS BUF_X4
X_2216_ prev_event_inc\[4\] _1512_ VDD VSS INV_X1
X_2217_ event_inc[4] _1513_ VDD VSS CLKBUF_X2
X_2218_ _1511_ _1512_ _1513_ _1514_ VDD VSS NAND3_X1
X_2219_ _0006_ net39 _1514_ _1515_ VDD VSS MUX2_X1
X_2220_ _1348_ _1515_ _0047_ VDD VSS AND2_X1
X_2221_ _0007_ net40 _1514_ _1516_ VDD VSS MUX2_X1
X_2222_ _1348_ _1516_ _0048_ VDD VSS AND2_X1
X_2223_ net41 _1517_ VDD VSS BUF_X2
X_2224_ net19 net30 _1421_ _1518_ VDD VSS AND3_X1
X_2225_ _1518_ _1519_ VDD VSS CLKBUF_X3
X_2226_ _1519_ _1520_ VDD VSS BUF_X4
X_2227_ _1418_ _1520_ _1521_ VDD VSS NAND2_X1
X_2228_ _1517_ _1521_ _1522_ VDD VSS XOR2_X1
X_2229_ _1484_ _1522_ _0049_ VDD VSS NOR2_X1
X_2230_ net42 _1523_ VDD VSS BUF_X2
X_2231_ _1513_ _1927_ _1524_ VDD VSS AND2_X1
X_2232_ _1351_ _1512_ _1524_ _1525_ VDD VSS AND3_X1
X_2233_ _1523_ _1525_ _1526_ VDD VSS XNOR2_X1
X_2234_ _1484_ _1526_ _0050_ VDD VSS NOR2_X1
X_2235_ net39 net40 _1527_ VDD VSS AND2_X1
X_2236_ _1350_ _1512_ _1513_ _1527_ _1528_ VDD VSS AND4_X2
X_2237_ _1523_ _1528_ _1529_ VDD VSS NAND2_X1
X_2238_ net43 _1529_ _1530_ VDD VSS XOR2_X1
X_2239_ _1484_ _1530_ _0051_ VDD VSS NOR2_X1
X_2240_ _1351_ _1512_ _1524_ _1531_ VDD VSS NAND3_X1
X_2241_ _1523_ net43 _1532_ VDD VSS NAND2_X1
X_2242_ _1531_ _1532_ _1533_ VDD VSS NOR2_X1
X_2243_ net44 _1533_ _1534_ VDD VSS XNOR2_X1
X_2244_ _1484_ _1534_ _0052_ VDD VSS NOR2_X1
X_2245_ net44 _1535_ VDD VSS INV_X1
X_2246_ _1350_ _1512_ _1513_ _1527_ _1536_ VDD VSS NAND4_X2
X_2247_ _1535_ _1536_ _1532_ _1537_ VDD VSS NOR3_X1
X_2248_ net45 _1537_ _1538_ VDD VSS XNOR2_X1
X_2249_ _1484_ _1538_ _0053_ VDD VSS NOR2_X1
X_2250_ net46 _1539_ VDD VSS CLKBUF_X3
X_2251_ _1523_ net43 net44 net45 _1540_ VDD VSS AND4_X1
X_2252_ _1350_ _1512_ _1524_ _1540_ _1541_ VDD VSS AND4_X1
X_2253_ _1541_ _1542_ VDD VSS BUF_X2
X_2254_ _1539_ _1542_ _1543_ VDD VSS XNOR2_X1
X_2255_ _1484_ _1543_ _0054_ VDD VSS NOR2_X1
X_2256_ net47 _1544_ VDD VSS CLKBUF_X2
X_2257_ _1539_ _1540_ _1545_ VDD VSS NAND2_X2
X_2258_ _1536_ _1545_ _1546_ VDD VSS OR2_X1
X_2259_ _1546_ _1547_ VDD VSS BUF_X2
X_2260_ _1544_ _1547_ _1548_ VDD VSS XOR2_X1
X_2261_ _1484_ _1548_ _0055_ VDD VSS NOR2_X1
X_2262_ net48 _1549_ VDD VSS BUF_X1
X_2263_ _1539_ _1544_ _1542_ _1550_ VDD VSS NAND3_X1
X_2264_ _1549_ _1550_ _1551_ VDD VSS XOR2_X1
X_2265_ _1484_ _1551_ _0056_ VDD VSS NOR2_X1
X_2266_ net49 _1552_ VDD VSS BUF_X2
X_2267_ _1544_ _1549_ _1553_ VDD VSS NAND2_X1
X_2268_ _1552_ _1547_ _1553_ _1554_ VDD VSS OAI21_X1
X_2269_ _1552_ _1547_ _1553_ _1555_ VDD VSS OR3_X1
X_2270_ _1448_ _1554_ _1555_ _0057_ VDD VSS AOI21_X1
X_2271_ _1552_ _1556_ VDD VSS INV_X1
X_2272_ _1556_ _1531_ _1545_ _1553_ _1557_ VDD VSS NOR4_X1
X_2273_ net50 _1557_ _1558_ VDD VSS XNOR2_X1
X_2274_ _1484_ _1558_ _0058_ VDD VSS NOR2_X1
X_2275_ _1355_ _1559_ VDD VSS CLKBUF_X3
X_2276_ _1559_ _1560_ VDD VSS CLKBUF_X3
X_2277_ net51 _1561_ VDD VSS BUF_X2
X_2278_ _1544_ _1549_ _1552_ net50 _1562_ VDD VSS AND4_X2
X_2279_ _1539_ _1528_ _1540_ _1562_ _1563_ VDD VSS AND4_X1
X_2280_ _1561_ _1563_ _1564_ VDD VSS XNOR2_X1
X_2281_ _1560_ _1564_ _0059_ VDD VSS NOR2_X1
X_2282_ net52 _1565_ VDD VSS BUF_X2
X_2283_ _1517_ _1470_ _1520_ _1566_ VDD VSS NAND3_X1
X_2284_ _1565_ _1566_ _1567_ VDD VSS XOR2_X1
X_2285_ _1560_ _1567_ _0060_ VDD VSS NOR2_X1
X_2286_ net53 _1568_ VDD VSS CLKBUF_X2
X_2287_ _1539_ _1561_ _1542_ _1562_ _1569_ VDD VSS NAND4_X1
X_2288_ _1568_ _1569_ _1570_ VDD VSS XOR2_X1
X_2289_ _1560_ _1570_ _0061_ VDD VSS NOR2_X1
X_2290_ net54 _1571_ VDD VSS BUF_X1
X_2291_ _1561_ _1568_ _1562_ _1572_ VDD VSS NAND3_X1
X_2292_ _1571_ _1547_ _1572_ _1573_ VDD VSS OAI21_X1
X_2293_ _1571_ _1547_ _1572_ _1574_ VDD VSS OR3_X1
X_2294_ _1448_ _1573_ _1574_ _0062_ VDD VSS AOI21_X1
X_2295_ _1571_ _1575_ VDD VSS INV_X1
X_2296_ _1575_ _1531_ _1545_ _1572_ _1576_ VDD VSS OR4_X1
X_2297_ net55 _1576_ _1577_ VDD VSS XOR2_X1
X_2298_ _1560_ _1577_ _0063_ VDD VSS NOR2_X1
X_2299_ _1447_ _1578_ VDD VSS CLKBUF_X3
X_2300_ net56 _1579_ VDD VSS BUF_X2
X_2301_ _1571_ net55 _1580_ VDD VSS AND2_X1
X_2302_ _1561_ _1568_ _1562_ _1580_ _1581_ VDD VSS NAND4_X2
X_2303_ _1579_ _1547_ _1581_ _1582_ VDD VSS OAI21_X1
X_2304_ _1579_ _1547_ _1581_ _1583_ VDD VSS OR3_X1
X_2305_ _1578_ _1582_ _1583_ _0064_ VDD VSS AOI21_X1
X_2306_ net57 _1584_ VDD VSS BUF_X1
X_2307_ _1561_ _1568_ _1562_ _1580_ _1585_ VDD VSS AND4_X1
X_2308_ _1585_ _1586_ VDD VSS BUF_X4
X_2309_ _1539_ _1579_ _1542_ _1586_ _1587_ VDD VSS NAND4_X1
X_2310_ _1584_ _1587_ _1588_ VDD VSS XOR2_X1
X_2311_ _1560_ _1588_ _0065_ VDD VSS NOR2_X1
X_2312_ _1579_ _1584_ _1589_ VDD VSS NAND2_X1
X_2313_ _1536_ _1545_ _1581_ _1589_ _1590_ VDD VSS NOR4_X1
X_2314_ net58 _1590_ _1591_ VDD VSS XNOR2_X1
X_2315_ _1560_ _1591_ _0066_ VDD VSS NOR2_X1
X_2316_ _1579_ _1584_ net58 _1592_ VDD VSS AND3_X1
X_2317_ _1539_ _1542_ _1586_ _1592_ _1593_ VDD VSS NAND4_X1
X_2318_ net59 _1593_ _1594_ VDD VSS XOR2_X1
X_2319_ _1560_ _1594_ _0067_ VDD VSS NOR2_X1
X_2320_ _1579_ _1584_ net58 net59 _1595_ VDD VSS AND4_X1
X_2321_ _1595_ _1596_ VDD VSS INV_X1
X_2322_ _1536_ _1545_ _1581_ _1596_ _1597_ VDD VSS NOR4_X1
X_2323_ net60 _1597_ _1598_ VDD VSS XNOR2_X1
X_2324_ _1560_ _1598_ _0068_ VDD VSS NOR2_X1
X_2325_ net60 _1595_ _1599_ VDD VSS AND2_X1
X_2326_ _1539_ _1542_ _1586_ _1599_ _1600_ VDD VSS NAND4_X1
X_2327_ net61 _1600_ _1601_ VDD VSS XOR2_X1
X_2328_ _1560_ _1601_ _0069_ VDD VSS NOR2_X1
X_2329_ net62 _1602_ VDD VSS BUF_X1
X_2330_ net60 net61 _1595_ _1603_ VDD VSS AND3_X2
X_2331_ _1586_ _1603_ _1604_ VDD VSS NAND2_X1
X_2332_ _1602_ _1547_ _1604_ _1605_ VDD VSS OAI21_X1
X_2333_ _1602_ _1547_ _1604_ _1606_ VDD VSS OR3_X1
X_2334_ _1578_ _1605_ _1606_ _0070_ VDD VSS AOI21_X1
X_2335_ net63 _1607_ VDD VSS BUF_X2
X_2336_ _1517_ _1565_ _1417_ _1519_ _1608_ VDD VSS NAND4_X1
X_2337_ _1607_ _1608_ _1609_ VDD VSS XOR2_X1
X_2338_ _1560_ _1609_ _0071_ VDD VSS NOR2_X1
X_2339_ _1539_ _1542_ _1586_ _1603_ _1610_ VDD VSS NAND4_X1
X_2340_ _1602_ _1611_ VDD VSS INV_X1
X_2341_ net64 _1610_ _1611_ _1612_ VDD VSS OAI21_X1
X_2342_ _1611_ net64 _1610_ _1613_ VDD VSS OR3_X1
X_2343_ _1578_ _1612_ _1613_ _0072_ VDD VSS AOI21_X1
X_2344_ _1559_ _1614_ VDD VSS CLKBUF_X3
X_2345_ net65 _1615_ VDD VSS INV_X1
X_2346_ net46 _1602_ net64 _1540_ _1616_ VDD VSS AND4_X2
X_2347_ _1528_ _1586_ _1603_ _1616_ _1617_ VDD VSS NAND4_X4
X_2348_ _1615_ _1617_ _1618_ VDD VSS XNOR2_X1
X_2349_ _1614_ _1618_ _0073_ VDD VSS NOR2_X1
X_2350_ net66 _1619_ VDD VSS BUF_X1
X_2351_ _1525_ _1586_ _1603_ _1616_ _1620_ VDD VSS NAND4_X4
X_2352_ _1619_ _1620_ _1615_ _1621_ VDD VSS OAI21_X1
X_2353_ _1615_ _1619_ _1620_ _1622_ VDD VSS OR3_X1
X_2354_ _1578_ _1621_ _1622_ _0074_ VDD VSS AOI21_X1
X_2355_ net65 _1619_ _1623_ VDD VSS NAND2_X1
X_2356_ net67 _1617_ _1623_ _1624_ VDD VSS OAI21_X1
X_2357_ net67 _1617_ _1623_ _1625_ VDD VSS OR3_X1
X_2358_ _1578_ _1624_ _1625_ _0075_ VDD VSS AOI21_X1
X_2359_ net65 _1619_ net67 _1626_ VDD VSS NAND3_X1
X_2360_ net68 _1620_ _1626_ _1627_ VDD VSS OAI21_X1
X_2361_ net68 _1620_ _1626_ _1628_ VDD VSS OR3_X1
X_2362_ _1578_ _1627_ _1628_ _0076_ VDD VSS AOI21_X1
X_2363_ net69 _1629_ VDD VSS CLKBUF_X2
X_2364_ net68 _1630_ VDD VSS INV_X1
X_2365_ _1630_ _1626_ _1631_ VDD VSS OR2_X1
X_2366_ _1629_ _1617_ _1631_ _1632_ VDD VSS OAI21_X1
X_2367_ _1629_ _1617_ _1631_ _1633_ VDD VSS OR3_X1
X_2368_ _1578_ _1632_ _1633_ _0077_ VDD VSS AOI21_X1
X_2369_ _1630_ _1626_ _1634_ VDD VSS NOR2_X1
X_2370_ _1629_ _1634_ _1635_ VDD VSS NAND2_X1
X_2371_ net70 _1620_ _1635_ _1636_ VDD VSS OAI21_X1
X_2372_ net70 _1620_ _1635_ _1637_ VDD VSS OR3_X1
X_2373_ _1578_ _1636_ _1637_ _0078_ VDD VSS AOI21_X1
X_2374_ _1629_ net70 _1634_ _1638_ VDD VSS NAND3_X2
X_2375_ net71 _1617_ _1638_ _1639_ VDD VSS OAI21_X1
X_2376_ net71 _1617_ _1638_ _1640_ VDD VSS OR3_X1
X_2377_ _1578_ _1639_ _1640_ _0079_ VDD VSS AOI21_X1
X_2378_ net72 _1641_ VDD VSS INV_X1
X_2379_ _1641_ _1474_ _1642_ VDD VSS NOR2_X1
X_2380_ net72 _1490_ _1643_ VDD VSS NOR2_X1
X_2381_ net71 _1644_ VDD VSS INV_X1
X_2382_ _1644_ _1620_ _1638_ _1645_ VDD VSS NOR3_X1
X_2383_ _1642_ _1643_ _1645_ _0080_ VDD VSS MUX2_X1
X_2384_ net73 _1346_ _1646_ VDD VSS AND2_X1
X_2385_ net73 _1490_ _1647_ VDD VSS NOR2_X1
X_2386_ _1644_ _1641_ _1617_ _1638_ _1648_ VDD VSS NOR4_X1
X_2387_ _1646_ _1647_ _1648_ _0081_ VDD VSS MUX2_X1
X_2388_ _1517_ _1565_ _1607_ _1649_ VDD VSS AND3_X1
X_2389_ _1470_ _1520_ _1649_ _1650_ VDD VSS NAND3_X1
X_2390_ net74 _1650_ _1651_ VDD VSS XOR2_X1
X_2391_ _1614_ _1651_ _0082_ VDD VSS NOR2_X1
X_2392_ prev_event_inc\[5\] _1652_ VDD VSS INV_X1
X_2393_ _1511_ _1652_ net5 _1653_ VDD VSS NAND3_X1
X_2394_ _0008_ net75 _1653_ _1654_ VDD VSS MUX2_X1
X_2395_ _1348_ _1654_ _0083_ VDD VSS AND2_X1
X_2396_ _0009_ net76 _1653_ _1655_ VDD VSS MUX2_X1
X_2397_ _1348_ _1655_ _0084_ VDD VSS AND2_X1
X_2398_ net77 _1656_ VDD VSS CLKBUF_X2
X_2399_ net5 _1928_ _1657_ VDD VSS AND2_X1
X_2400_ _1511_ _1652_ _1657_ _1658_ VDD VSS NAND3_X1
X_2401_ _1656_ _1658_ _1659_ VDD VSS XOR2_X1
X_2402_ _1614_ _1659_ _0085_ VDD VSS NOR2_X1
X_2403_ net78 _1660_ VDD VSS CLKBUF_X2
X_2404_ net5 _1661_ VDD VSS INV_X1
X_2405_ net75 net76 _1662_ VDD VSS NAND2_X1
X_2406_ _1369_ prev_event_inc\[5\] _1661_ _1662_ _1663_ VDD
+ VSS NOR4_X4
X_2407_ _1656_ _1663_ _1664_ VDD VSS NAND2_X1
X_2408_ _1660_ _1664_ _1665_ VDD VSS XOR2_X1
X_2409_ _1614_ _1665_ _0086_ VDD VSS NOR2_X1
X_2410_ _1656_ _1660_ _1666_ VDD VSS NAND2_X1
X_2411_ _1658_ _1666_ _1667_ VDD VSS NOR2_X1
X_2412_ net79 _1667_ _1668_ VDD VSS XNOR2_X1
X_2413_ _1614_ _1668_ _0087_ VDD VSS NOR2_X1
X_2414_ _1656_ _1660_ net79 _1663_ _0280_ VDD VSS NAND4_X1
X_2415_ net80 _0280_ _0281_ VDD VSS XOR2_X1
X_2416_ _1614_ _0281_ _0088_ VDD VSS NOR2_X1
X_2417_ net81 _0282_ VDD VSS BUF_X2
X_2418_ _1656_ _1660_ net79 net80 _0283_ VDD VSS AND4_X1
X_2419_ _0283_ _0284_ VDD VSS BUF_X4
X_2420_ _1351_ _1652_ _1657_ _0284_ _0285_ VDD VSS AND4_X2
X_2421_ _0285_ _0286_ VDD VSS BUF_X4
X_2422_ _0282_ _0286_ _0287_ VDD VSS XNOR2_X1
X_2423_ _1614_ _0287_ _0089_ VDD VSS NOR2_X1
X_2424_ net82 _0288_ VDD VSS CLKBUF_X2
X_2425_ _0282_ _1663_ _0284_ _0289_ VDD VSS NAND3_X1
X_2426_ _0288_ _0289_ _0290_ VDD VSS XOR2_X1
X_2427_ _1614_ _0290_ _0090_ VDD VSS NOR2_X1
X_2428_ _0282_ _0288_ _0286_ _0291_ VDD VSS NAND3_X1
X_2429_ net83 _0291_ _0292_ VDD VSS XOR2_X1
X_2430_ _1614_ _0292_ _0091_ VDD VSS NOR2_X1
X_2431_ _0282_ _0288_ net83 _0293_ VDD VSS AND3_X1
X_2432_ _1663_ _0284_ _0293_ _0294_ VDD VSS NAND3_X1
X_2433_ net84 _0294_ _0295_ VDD VSS XOR2_X1
X_2434_ _1614_ _0295_ _0092_ VDD VSS NOR2_X1
X_2435_ _1559_ _0296_ VDD VSS CLKBUF_X3
X_2436_ net85 _0297_ VDD VSS BUF_X2
X_2437_ _1517_ _1565_ _1607_ net74 _0298_ VDD VSS AND4_X1
X_2438_ _1418_ _1520_ _0298_ _0299_ VDD VSS NAND3_X1
X_2439_ _0297_ _0299_ _0300_ VDD VSS XOR2_X1
X_2440_ _0296_ _0300_ _0093_ VDD VSS NOR2_X1
X_2441_ net86 _0301_ VDD VSS BUF_X1
X_2442_ _0282_ _0288_ net83 net84 _0302_ VDD VSS AND4_X1
X_2443_ _0286_ _0302_ _0303_ VDD VSS NAND2_X1
X_2444_ _0301_ _0303_ _0304_ VDD VSS XOR2_X1
X_2445_ _0296_ _0304_ _0094_ VDD VSS NOR2_X1
X_2446_ _0301_ _1663_ _0284_ _0302_ _0305_ VDD VSS NAND4_X1
X_2447_ net87 _0305_ _0306_ VDD VSS XOR2_X1
X_2448_ _0296_ _0306_ _0095_ VDD VSS NOR2_X1
X_2449_ net88 _0307_ VDD VSS BUF_X2
X_2450_ _0301_ net87 _0302_ _0308_ VDD VSS AND3_X2
X_2451_ _0308_ _0309_ VDD VSS BUF_X4
X_2452_ _0286_ _0309_ _0310_ VDD VSS NAND2_X1
X_2453_ _0307_ _0310_ _0311_ VDD VSS XOR2_X1