
* cell fair_priority_arbiter
* pin request[3]
* pin request[1]
* pin priorities[0]
* pin priorities[7]
* pin priorities[3]
* pin priorities[5]
* pin priorities[1]
* pin request[0]
* pin request[2]
* pin priorities[4]
* pin priorities[6]
* pin priorities[2]
* pin valid
* pin clk
* pin grant[3]
* pin grant[0]
* pin grant[1]
* pin rst_n
* pin grant_idx[0]
* pin grant[2]
* pin grant_idx[1]
.SUBCKT fair_priority_arbiter 9 10 13 37 58 59 67 85 86 95 96 109 171 193 196
+ 197 198 199 200 202 203
* net 9 request[3]
* net 10 request[1]
* net 13 priorities[0]
* net 37 priorities[7]
* net 58 priorities[3]
* net 59 priorities[5]
* net 67 priorities[1]
* net 85 request[0]
* net 86 request[2]
* net 95 priorities[4]
* net 96 priorities[6]
* net 109 priorities[2]
* net 171 valid
* net 193 clk
* net 196 grant[3]
* net 197 grant[0]
* net 198 grant[1]
* net 199 rst_n
* net 200 grant_idx[0]
* net 202 grant[2]
* net 203 grant_idx[1]
* cell instance $200 m0 *1 35.88,24.48
X$200 2 12 2 1 6 1 sky130_fd_sc_hd__inv_1
* cell instance $202 r0 *1 37.26,19.04
X$202 1 5 3 6 4 2 2 1 sky130_fd_sc_hd__ha_2
* cell instance $203 m0 *1 37.26,24.48
X$203 1 7 18 5 11 8 2 2 1 sky130_fd_sc_hd__a2bb2oi_2
* cell instance $207 m0 *1 42.78,24.48
X$207 1 11 3 17 2 2 1 sky130_fd_sc_hd__nor2b_4
* cell instance $227 r0 *1 1.38,24.48
X$227 2 9 1 39 2 1 sky130_fd_sc_hd__buf_2
* cell instance $240 r0 *1 34.5,24.48
X$240 2 7 1 2 19 1 sky130_fd_sc_hd__dlygate4sd1_1
* cell instance $242 r0 *1 38.18,24.48
X$242 1 18 17 2 2 1 sky130_fd_sc_hd__dlymetal6s2s_1
* cell instance $246 r0 *1 44.16,24.48
X$246 1 17 15 8 16 2 2 1 sky130_fd_sc_hd__ha_4
* cell instance $250 r0 *1 56.58,24.48
X$250 2 13 14 1 2 1 sky130_fd_sc_hd__clkbuf_1
* cell instance $258 m0 *1 9.66,29.92
X$258 2 10 1 30 2 1 sky130_fd_sc_hd__buf_2
* cell instance $266 m0 *1 26.68,29.92
X$266 2 19 39 40 1 2 1 sky130_fd_sc_hd__nor2b_1
* cell instance $268 m0 *1 29.44,29.92
X$268 2 23 24 19 2 1 41 1 sky130_fd_sc_hd__o21ai_1
* cell instance $270 m0 *1 31.74,29.92
X$270 2 24 23 7 1 2 47 1 sky130_fd_sc_hd__o21a_2
* cell instance $271 m0 *1 34.96,29.92
X$271 1 48 20 34 23 24 33 2 2 1 sky130_fd_sc_hd__a2111oi_2
* cell instance $273 m0 *1 41.4,29.92
X$273 1 23 4 20 34 2 2 1 sky130_fd_sc_hd__nor3_4
* cell instance $276 m0 *1 47.38,29.92
X$276 2 7 1 2 33 1 sky130_fd_sc_hd__dlygate4sd1_1
* cell instance $277 m0 *1 50.6,29.92
X$277 2 25 26 29 2 1 44 1 sky130_fd_sc_hd__o21ai_1
* cell instance $278 m0 *1 52.44,29.92
X$278 2 25 102 2 1 20 1 sky130_fd_sc_hd__and2b_2
* cell instance $281 m0 *1 57.04,29.92
X$281 2 27 2 1 43 1 sky130_fd_sc_hd__inv_1
* cell instance $282 m0 *1 58.42,29.92
X$282 2 25 27 26 2 1 1 sky130_fd_sc_hd__nand2_1
* cell instance $285 m0 *1 61.18,29.92
X$285 1 50 42 21 28 22 36 38 2 2 1 sky130_fd_sc_hd__a222oi_1
* cell instance $288 m0 *1 66.24,29.92
X$288 2 37 21 1 2 1 sky130_fd_sc_hd__clkbuf_1
* cell instance $298 r0 *1 15.64,29.92
X$298 1 46 65 60 52 2 2 1 sky130_fd_sc_hd__mux2i_1
* cell instance $300 r0 *1 19.78,29.92
X$300 1 31 45 46 23 2 2 1 sky130_fd_sc_hd__mux2_4
* cell instance $301 r0 *1 25.3,29.92
X$301 1 45 30 39 52 2 2 1 sky130_fd_sc_hd__mux2i_1
* cell instance $303 r0 *1 29.44,29.92
X$303 2 32 31 40 61 1 2 1 sky130_fd_sc_hd__nor3_1
* cell instance $304 r0 *1 31.28,29.92
X$304 2 45 47 55 1 2 1 sky130_fd_sc_hd__nor2_1
* cell instance $307 r0 *1 35.42,29.92
X$307 1 47 49 12 48 106 2 2 1 sky130_fd_sc_hd__o22ai_4
* cell instance $312 r0 *1 43.24,29.92
X$312 2 53 2 1 64 1 sky130_fd_sc_hd__inv_1
* cell instance $314 r0 *1 45.08,29.92
X$314 1 44 16 23 2 2 1 sky130_fd_sc_hd__nand2b_4
* cell instance $315 r0 *1 50.14,29.92
X$315 2 14 25 34 1 2 1 sky130_fd_sc_hd__nor2b_1
* cell instance $316 r0 *1 52.44,29.92
X$316 1 1 15 83 47 2 2 sky130_fd_sc_hd__nand2_2
* cell instance $318 r0 *1 55.66,29.92
X$318 1 35 50 43 2 15 2 1 sky130_fd_sc_hd__mux2i_2
* cell instance $320 r0 *1 61.64,29.92
X$320 1 62 22 21 28 42 36 51 2 2 1 sky130_fd_sc_hd__a222oi_1
* cell instance $322 r0 *1 66.24,29.92
X$322 2 59 36 1 2 1 sky130_fd_sc_hd__clkbuf_1
* cell instance $326 m0 *1 10.58,35.36
X$326 1 54 76 39 60 30 65 66 2 2 1 sky130_fd_sc_hd__mux4_1
* cell instance $327 m0 *1 20.24,35.36
X$327 1 39 30 24 54 65 52 60 2 2 1 sky130_fd_sc_hd__mux4_2
* cell instance $330 m0 *1 29.44,35.36
X$330 2 39 54 70 2 1 1 sky130_fd_sc_hd__nand2_1
* cell instance $332 m0 *1 32.66,35.36
X$332 2 66 54 79 1 2 1 sky130_fd_sc_hd__nor2_1
* cell instance $333 m0 *1 34.04,35.36
X$333 2 66 56 81 2 1 1 sky130_fd_sc_hd__nand2_1
* cell instance $334 m0 *1 35.42,35.36
X$334 2 56 66 82 1 2 1 sky130_fd_sc_hd__nand2b_1
* cell instance $335 m0 *1 37.72,35.36
X$335 2 71 57 69 1 2 1 sky130_fd_sc_hd__nor2_1
* cell instance $336 m0 *1 39.1,35.36
X$336 1 84 63 53 57 2 2 1 sky130_fd_sc_hd__ha_4
* cell instance $337 m0 *1 48.3,35.36
X$337 1 16 83 47 57 2 2 1 sky130_fd_sc_hd__o21ai_4
* cell instance $338 m0 *1 54.28,35.36
X$338 2 27 72 68 2 91 1 1 sky130_fd_sc_hd__o21ai_0
* cell instance $341 m0 *1 57.04,35.36
X$341 1 63 43 77 78 2 2 1 sky130_fd_sc_hd__mux2_1
* cell instance $342 m0 *1 61.18,35.36
X$342 1 29 28 38 42 36 51 21 2 2 1 sky130_fd_sc_hd__a222oi_1
* cell instance $343 m0 *1 64.86,35.36
X$343 2 58 28 1 2 1 sky130_fd_sc_hd__clkbuf_1
* cell instance $344 m0 *1 66.24,35.36
X$344 2 67 27 1 2 1 sky130_fd_sc_hd__clkbuf_1
* cell instance $348 r0 *1 4.6,35.36
X$348 2 86 2 1 60 1 sky130_fd_sc_hd__clkbuf_2
* cell instance $358 r0 *1 18.86,35.36
X$358 2 52 1 66 2 1 sky130_fd_sc_hd__buf_2
* cell instance $359 r0 *1 20.7,35.36
X$359 2 52 39 104 1 2 1 sky130_fd_sc_hd__nand2b_1
* cell instance $362 r0 *1 25.3,35.36
X$362 2 65 2 1 32 1 sky130_fd_sc_hd__inv_1
* cell instance $364 r0 *1 28.52,35.36
X$364 2 97 54 70 2 56 1 1 sky130_fd_sc_hd__o21ai_0
* cell instance $365 r0 *1 30.36,35.36
X$365 1 89 61 30 41 66 79 2 2 1 sky130_fd_sc_hd__a221oi_1
* cell instance $366 r0 *1 33.58,35.36
X$366 1 80 71 61 81 99 82 2 2 1 sky130_fd_sc_hd__o32a_1
* cell instance $368 r0 *1 38.18,35.36
X$368 1 84 88 53 2 2 1 sky130_fd_sc_hd__nor2_4
* cell instance $372 r0 *1 43.24,35.36
X$372 2 69 63 71 1 2 90 1 sky130_fd_sc_hd__a21oi_1
* cell instance $373 r0 *1 45.08,35.36
X$373 1 93 101 90 91 2 2 1 sky130_fd_sc_hd__ha_2
* cell instance $374 r0 *1 50.6,35.36
X$374 2 72 62 68 2 1 1 sky130_fd_sc_hd__nand2_1
* cell instance $375 r0 *1 51.98,35.36
X$375 2 14 73 92 1 2 1 sky130_fd_sc_hd__nor2b_1
* cell instance $376 r0 *1 54.28,35.36
X$376 2 73 2 1 72 1 sky130_fd_sc_hd__inv_1
* cell instance $377 r0 *1 55.66,35.36
X$377 2 14 2 1 100 1 sky130_fd_sc_hd__inv_1
* cell instance $379 r0 *1 57.96,35.36
X$379 1 102 74 38 94 42 75 51 2 2 1 sky130_fd_sc_hd__a222oi_1
* cell instance $380 r0 *1 61.64,35.36
X$380 1 77 22 36 28 51 21 73 2 2 1 sky130_fd_sc_hd__a222oi_1
* cell instance $382 r0 *1 66.24,35.36
X$382 2 95 94 1 2 1 sky130_fd_sc_hd__clkbuf_1
* cell instance $387 m0 *1 1.38,40.8
X$387 2 85 2 1 65 1 sky130_fd_sc_hd__clkbuf_2
* cell instance $394 m0 *1 20.24,40.8
X$394 1 127 105 30 104 31 2 2 1 sky130_fd_sc_hd__o22ai_2
* cell instance $395 m0 *1 24.84,40.8
X$395 2 60 2 1 97 1 sky130_fd_sc_hd__inv_1
* cell instance $399 m0 *1 29.44,40.8
X$399 1 105 88 98 32 113 97 2 2 1 sky130_fd_sc_hd__a221oi_4
* cell instance $400 m0 *1 39.1,40.8
X$400 2 98 106 107 1 2 99 1 sky130_fd_sc_hd__a21boi_0
* cell instance $401 m0 *1 41.86,40.8
X$401 2 99 89 108 2 1 118 1 sky130_fd_sc_hd__o21ai_1
* cell instance $402 m0 *1 43.7,40.8
X$402 2 4 1 2 49 1 sky130_fd_sc_hd__dlygate4sd1_1
* cell instance $404 m0 *1 47.84,40.8
X$404 1 87 72 64 101 92 110 2 2 1 sky130_fd_sc_hd__a2111o_1
* cell instance $405 m0 *1 51.98,40.8
X$405 2 115 76 117 1 2 116 1 sky130_fd_sc_hd__a21o_1
* cell instance $406 m0 *1 54.74,40.8
X$406 2 93 101 103 1 2 1 sky130_fd_sc_hd__nor2_1
* cell instance $409 m0 *1 57.04,40.8
X$409 1 129 12 100 35 2 2 1 sky130_fd_sc_hd__mux2i_4
* cell instance $411 m0 *1 66.24,40.8
X$411 2 96 75 1 2 1 sky130_fd_sc_hd__clkbuf_1
* cell instance $414 r0 *1 8.74,40.8
X$414 2 65 60 39 138 2 1 1 sky130_fd_sc_hd__or3_1
* cell instance $417 r0 *1 13.34,40.8
X$417 2 39 119 111 2 1 113 1 sky130_fd_sc_hd__o21ai_1
* cell instance $421 r0 *1 15.64,40.8
X$421 2 126 66 120 2 1 111 1 sky130_fd_sc_hd__o21ai_1
* cell instance $423 r0 *1 18.4,40.8
X$423 2 66 126 120 2 1 127 1 sky130_fd_sc_hd__o21bai_1
* cell instance $424 r0 *1 21.16,40.8
X$424 2 127 60 104 31 128 1 2 1 sky130_fd_sc_hd__o22ai_1
* cell instance $425 r0 *1 23.46,40.8
X$425 2 65 30 112 1 2 1 sky130_fd_sc_hd__nor2_1
* cell instance $427 r0 *1 25.3,40.8
X$427 2 135 121 130 2 1 1 sky130_fd_sc_hd__nand2_1
* cell instance $428 r0 *1 26.68,40.8
X$428 2 76 2 1 108 1 sky130_fd_sc_hd__inv_1
* cell instance $429 r0 *1 28.06,40.8
X$429 1 105 97 131 87 32 113 2 2 1 sky130_fd_sc_hd__a221o_1
* cell instance $431 r0 *1 32.66,40.8
X$431 2 108 98 114 1 2 1 sky130_fd_sc_hd__nor2_1
* cell instance $432 r0 *1 34.04,40.8
X$432 2 98 135 108 2 1 132 1 sky130_fd_sc_hd__o21ai_1
* cell instance $433 r0 *1 35.88,40.8
X$433 2 64 115 107 2 1 1 sky130_fd_sc_hd__and2_0
* cell instance $434 r0 *1 38.18,40.8
X$434 1 71 106 115 114 64 76 2 2 1 sky130_fd_sc_hd__a41o_1
* cell instance $439 r0 *1 43.24,40.8
X$439 2 137 133 1 2 31 1 sky130_fd_sc_hd__or2_4
* cell instance $441 r0 *1 47.38,40.8
X$441 2 92 101 72 110 2 117 1 1 sky130_fd_sc_hd__a211o_1
* cell instance $443 r0 *1 51.06,40.8
X$443 2 147 1 2 122 1 sky130_fd_sc_hd__inv_2
* cell instance $445 r0 *1 53.36,40.8
X$445 1 78 123 100 2 115 2 1 sky130_fd_sc_hd__mux2i_2
* cell instance $446 r0 *1 58.42,40.8
X$446 1 110 22 75 74 42 94 51 2 2 1 sky130_fd_sc_hd__a222oi_1
* cell instance $447 r0 *1 62.1,40.8
X$447 2 109 74 1 2 1 sky130_fd_sc_hd__clkbuf_1
* cell instance $448 r0 *1 63.48,40.8
X$448 2 124 1 2 125 1 sky130_fd_sc_hd__dlygate4sd1_1
* cell instance $455 m0 *1 10.58,46.24
X$455 1 134 138 111 119 39 60 2 2 1 sky130_fd_sc_hd__o32ai_2
* cell instance $456 m0 *1 16.56,46.24
X$456 2 30 126 120 52 119 2 1 1 sky130_fd_sc_hd__or4_1
* cell instance $459 m0 *1 22.08,46.24
X$459 2 134 128 112 1 2 154 1 sky130_fd_sc_hd__a21oi_1
* cell instance $460 m0 *1 23.92,46.24
X$460 1 135 103 134 128 112 2 2 1 sky130_fd_sc_hd__a211oi_2
* cell instance $464 m0 *1 29.9,46.24
X$464 2 30 66 136 144 2 1 1 sky130_fd_sc_hd__nand3_1
* cell instance $465 m0 *1 31.74,46.24
X$465 2 31 1 136 2 1 sky130_fd_sc_hd__buf_2
* cell instance $466 m0 *1 33.58,46.24
X$466 1 140 135 131 116 2 2 1 sky130_fd_sc_hd__nand3_2
* cell instance $467 m0 *1 37.26,46.24
X$467 2 116 131 106 114 2 121 1 1 sky130_fd_sc_hd__o2bb2ai_1
* cell instance $470 m0 *1 41.86,46.24
X$470 1 126 137 2 2 1 sky130_fd_sc_hd__dlymetal6s2s_1
* cell instance $471 m0 *1 46.46,46.24
X$471 1 78 120 122 2 2 1 sky130_fd_sc_hd__ha_1
* cell instance $472 m0 *1 51.06,46.24
X$472 1 207 42 122 139 2 2 1 sky130_fd_sc_hd__ha_2
* cell instance $475 m0 *1 57.96,46.24
X$475 1 129 42 75 74 22 94 38 2 2 1 sky130_fd_sc_hd__a222oi_1
* cell instance $476 m0 *1 61.64,46.24
X$476 1 123 22 94 74 51 75 73 2 2 1 sky130_fd_sc_hd__a222oi_1
* cell instance $477 m0 *1 65.32,46.24
X$477 2 133 139 1 2 1 sky130_fd_sc_hd__buf_1
* cell instance $489 r0 *1 16.56,46.24
X$489 1 66 146 60 65 30 39 31 2 2 1 sky130_fd_sc_hd__mux4_1
* cell instance $490 r0 *1 26.22,46.24
X$490 1 32 66 136 149 144 2 2 1 sky130_fd_sc_hd__o31ai_2
* cell instance $491 r0 *1 30.82,46.24
X$491 2 41 141 71 2 1 151 1 sky130_fd_sc_hd__o21ai_1
* cell instance $492 r0 *1 32.66,46.24
X$492 1 141 132 140 146 106 2 2 1 sky130_fd_sc_hd__o211ai_2
* cell instance $494 r0 *1 38.18,46.24
X$494 1 120 150 2 2 1 sky130_fd_sc_hd__dlymetal6s2s_1
* cell instance $499 r0 *1 43.24,46.24
X$499 1 1 54 2 126 145 2 sky130_fd_sc_hd__nor2_2
* cell instance $500 r0 *1 45.54,46.24
X$500 1 52 122 38 142 2 2 1 sky130_fd_sc_hd__ha_4
* cell instance $501 r0 *1 54.74,46.24
X$501 1 73 142 122 2 2 1 sky130_fd_sc_hd__ha_1
* cell instance $502 r0 *1 59.34,46.24
X$502 2 137 1 2 25 1 sky130_fd_sc_hd__dlygate4sd1_1
* cell instance $504 r0 *1 63.48,46.24
X$504 1 143 133 2 2 1 sky130_fd_sc_hd__buf_6
* cell instance $512 m0 *1 24.38,51.68
X$512 2 146 154 158 1 2 1 sky130_fd_sc_hd__nor2_1
* cell instance $514 m0 *1 26.22,51.68
X$514 2 141 55 71 2 159 1 1 sky130_fd_sc_hd__o21a_1
* cell instance $517 m0 *1 29.9,51.68
X$517 1 130 149 118 148 184 80 2 2 1 sky130_fd_sc_hd__a32oi_4
* cell instance $519 m0 *1 41.86,51.68
X$519 2 143 1 2 142 1 sky130_fd_sc_hd__inv_4
* cell instance $520 m0 *1 44.16,51.68
X$520 2 145 1 2 150 1 sky130_fd_sc_hd__dlygate4sd1_1
* cell instance $521 m0 *1 47.38,51.68
X$521 1 205 143 137 147 2 2 1 sky130_fd_sc_hd__ha_4
* cell instance $524 m0 *1 57.5,51.68
X$524 1 208 35 156 142 2 2 1 sky130_fd_sc_hd__ha_2
* cell instance $525 m0 *1 63.02,51.68
X$525 2 153 1 2 155 1 sky130_fd_sc_hd__dlygate4sd1_1
* cell instance $540 r0 *1 24.84,51.68
X$540 1 136 159 151 166 2 2 1 sky130_fd_sc_hd__mux2_4
* cell instance $541 r0 *1 30.36,51.68
X$541 1 136 159 151 2 161 2 1 sky130_fd_sc_hd__mux2i_2
* cell instance $544 r0 *1 36.8,51.68
X$544 2 157 158 148 1 2 168 1 sky130_fd_sc_hd__a21o_1
* cell instance $553 r0 *1 43.7,51.68
X$553 2 133 1 2 145 1 sky130_fd_sc_hd__dlygate4sd1_1
* cell instance $554 r0 *1 46.92,51.68
X$554 2 158 2 1 164 1 sky130_fd_sc_hd__inv_1
* cell instance $555 r0 *1 48.3,51.68
X$555 2 155 1 2 124 1 sky130_fd_sc_hd__dlygate4sd1_1
* cell instance $556 r0 *1 51.52,51.68
X$556 2 163 1 2 162 1 sky130_fd_sc_hd__dlygate4sd1_1
* cell instance $557 r0 *1 54.74,51.68
X$557 1 209 22 152 167 2 2 1 sky130_fd_sc_hd__ha_2
* cell instance $558 r0 *1 60.26,51.68
X$558 2 152 1 2 156 1 sky130_fd_sc_hd__dlygate4sd1_1
* cell instance $559 r0 *1 63.48,51.68
X$559 2 125 1 2 160 1 sky130_fd_sc_hd__dlygate4sd1_1
* cell instance $567 m0 *1 20.24,57.12
X$567 2 166 148 1 165 2 1 sky130_fd_sc_hd__and2_4
* cell instance $568 m0 *1 23.46,57.12
X$568 1 158 187 166 148 2 2 1 sky130_fd_sc_hd__nor3_2
* cell instance $571 m0 *1 29.44,57.12
X$571 2 161 148 180 1 2 1 sky130_fd_sc_hd__nor2_1
* cell instance $572 m0 *1 30.82,57.12
X$572 2 161 148 1 189 2 1 sky130_fd_sc_hd__and2_4
* cell instance $573 m0 *1 34.04,57.12
X$573 2 170 2 1 153 1 sky130_fd_sc_hd__clkbuf_2
* cell instance $575 m0 *1 36.34,57.12
X$575 1 169 147 185 168 2 2 1 sky130_fd_sc_hd__dfrtp_4
* cell instance $576 m0 *1 46.92,57.12
X$576 2 160 1 2 163 1 sky130_fd_sc_hd__dlygate4sd1_1
* cell instance $577 m0 *1 50.14,57.12
X$577 2 162 1 2 172 1 sky130_fd_sc_hd__dlygate4sd1_1
* cell instance $578 m0 *1 53.36,57.12
X$578 2 143 1 2 167 1 sky130_fd_sc_hd__dlygate4sd1_1
* cell instance $581 m0 *1 57.5,57.12
X$581 1 206 152 51 142 2 2 1 sky130_fd_sc_hd__ha_4
* cell instance $593 r0 *1 18.86,57.12
X$593 1 169 179 173 165 2 2 1 sky130_fd_sc_hd__dfrtp_1
* cell instance $594 r0 *1 28.06,57.12
X$594 1 169 181 173 180 2 2 1 sky130_fd_sc_hd__dfrtp_1
* cell instance $597 r0 *1 41.4,57.12
X$597 2 182 171 1 2 1 sky130_fd_sc_hd__clkbuf_1
* cell instance $600 r0 *1 43.24,57.12
X$600 2 147 1 2 157 1 sky130_fd_sc_hd__dlygate4sd1_1
* cell instance $601 r0 *1 46.46,57.12
X$601 1 169 143 185 183 2 2 1 sky130_fd_sc_hd__dfrtp_4
* cell instance $602 r0 *1 57.04,57.12
X$602 2 147 1 2 174 1 sky130_fd_sc_hd__dlygate4sd1_1
* cell instance $603 r0 *1 60.26,57.12
X$603 2 177 1 2 178 1 sky130_fd_sc_hd__dlygate4sd1_1
* cell instance $604 r0 *1 63.48,57.12
X$604 2 191 1 2 176 1 sky130_fd_sc_hd__dlygate4sd1_1
* cell instance $616 m0 *1 18.4,62.56
X$616 2 173 204 1 2 1 sky130_fd_sc_hd__clkbuf_1
* cell instance $617 m0 *1 19.78,62.56
X$617 1 169 195 173 187 2 2 1 sky130_fd_sc_hd__dfrtp_1
* cell instance $620 m0 *1 29.9,62.56
X$620 2 174 203 1 2 1 sky130_fd_sc_hd__clkbuf_1
* cell instance $621 m0 *1 31.28,62.56
X$621 2 141 1 184 2 1 sky130_fd_sc_hd__buf_2
* cell instance $623 m0 *1 34.04,62.56
X$623 1 169 190 185 189 2 2 1 sky130_fd_sc_hd__dfrtp_1
* cell instance $625 m0 *1 43.7,62.56
X$625 2 142 161 164 2 1 183 1 sky130_fd_sc_hd__o21ai_1
* cell instance $626 m0 *1 45.54,62.56
X$626 1 169 182 185 164 2 2 1 sky130_fd_sc_hd__dfrtp_1
* cell instance $627 m0 *1 54.74,62.56
X$627 2 147 2 1 152 1 sky130_fd_sc_hd__clkbuf_2
* cell instance $629 m0 *1 57.04,62.56
X$629 2 175 1 2 177 1 sky130_fd_sc_hd__dlygate4sd1_1
* cell instance $630 m0 *1 60.26,62.56
X$630 2 176 1 2 175 1 sky130_fd_sc_hd__dlygate4sd1_1
* cell instance $631 m0 *1 63.48,62.56
X$631 2 188 1 2 186 1 sky130_fd_sc_hd__dlygate4sd1_1
* cell instance $642 r0 *1 20.24,62.56
X$642 1 192 173 2 2 1 sky130_fd_sc_hd__clkbuf_8
* cell instance $644 r0 *1 26.22,62.56
X$644 2 179 196 1 2 1 sky130_fd_sc_hd__clkbuf_1
* cell instance $645 r0 *1 27.6,62.56
X$645 2 195 197 1 2 1 sky130_fd_sc_hd__clkbuf_1
* cell instance $648 r0 *1 30.36,62.56
X$648 2 178 200 1 2 1 sky130_fd_sc_hd__clkbuf_1
* cell instance $649 r0 *1 31.74,62.56
X$649 2 181 198 1 2 1 sky130_fd_sc_hd__clkbuf_1
* cell instance $650 r0 *1 33.12,62.56
X$650 1 193 192 2 2 1 sky130_fd_sc_hd__clkbuf_8
* cell instance $652 r0 *1 39.1,62.56
X$652 2 199 2 201 1 1 sky130_fd_sc_hd__dlygate4sd3_1
* cell instance $655 r0 *1 43.24,62.56
X$655 2 201 1 169 2 1 sky130_fd_sc_hd__buf_2
* cell instance $657 r0 *1 45.54,62.56
X$657 1 192 185 2 2 1 sky130_fd_sc_hd__clkbuf_8
* cell instance $658 r0 *1 50.6,62.56
X$658 2 190 202 1 2 1 sky130_fd_sc_hd__clkbuf_1
* cell instance $659 r0 *1 51.98,62.56
X$659 1 143 170 2 2 1 sky130_fd_sc_hd__buf_6
* cell instance $662 r0 *1 57.04,62.56
X$662 2 172 1 2 188 1 sky130_fd_sc_hd__dlygate4sd1_1
* cell instance $663 r0 *1 60.26,62.56
X$663 2 194 1 2 191 1 sky130_fd_sc_hd__dlygate4sd1_1
* cell instance $664 r0 *1 63.48,62.56
X$664 2 186 1 2 194 1 sky130_fd_sc_hd__dlygate4sd1_1
.ENDS fair_priority_arbiter

* cell sky130_fd_sc_hd__o22ai_4
* pin VGND
* pin B1
* pin B2
* pin A1
* pin A2
* pin Y
* pin VPWR
* pin VPB
* pin 
.SUBCKT sky130_fd_sc_hd__o22ai_4 1 2 3 5 6 7 9 10 12
* net 1 VGND
* net 2 B1
* net 3 B2
* net 5 A1
* net 6 A2
* net 7 Y
* net 9 VPWR
* net 10 VPB
* device instance $1 r0 *1 0.5,1.985 pfet_01v8_hvt
M$1 8 5 9 10 pfet_01v8_hvt L=150000U W=4000000U AS=695000000000P
+ AD=565000000000P PS=6390000U PD=5130000U
* device instance $4 r0 *1 1.76,1.985 pfet_01v8_hvt
M$4 7 6 8 10 pfet_01v8_hvt L=150000U W=4000000U AS=540000000000P
+ AD=540000000000P PS=5080000U PD=5080000U
* device instance $9 r0 *1 3.91,1.985 pfet_01v8_hvt
M$9 11 2 9 10 pfet_01v8_hvt L=150000U W=4000000U AS=565000000000P
+ AD=665000000000P PS=5130000U PD=6330000U
* device instance $12 r0 *1 5.17,1.985 pfet_01v8_hvt
M$12 7 3 11 10 pfet_01v8_hvt L=150000U W=4000000U AS=540000000000P
+ AD=540000000000P PS=5080000U PD=5080000U
* device instance $17 r0 *1 0.5,0.56 nfet_01v8
M$17 1 5 4 12 nfet_01v8 L=150000U W=2600000U AS=432250000000P AD=367250000000P
+ PS=4580000U PD=3730000U
* device instance $20 r0 *1 1.76,0.56 nfet_01v8
M$20 4 6 1 12 nfet_01v8 L=150000U W=2600000U AS=351000000000P AD=351000000000P
+ PS=3680000U PD=3680000U
* device instance $25 r0 *1 3.91,0.56 nfet_01v8
M$25 7 2 4 12 nfet_01v8 L=150000U W=2600000U AS=367250000000P AD=432250000000P
+ PS=3730000U PD=4580000U
* device instance $28 r0 *1 5.17,0.56 nfet_01v8
M$28 4 3 7 12 nfet_01v8 L=150000U W=2600000U AS=351000000000P AD=351000000000P
+ PS=3680000U PD=3680000U
.ENDS sky130_fd_sc_hd__o22ai_4

* cell sky130_fd_sc_hd__nor3_4
* pin VGND
* pin A
* pin Y
* pin B
* pin C
* pin VPWR
* pin VPB
* pin 
.SUBCKT sky130_fd_sc_hd__nor3_4 1 2 3 4 5 7 9 10
* net 1 VGND
* net 2 A
* net 3 Y
* net 4 B
* net 5 C
* net 7 VPWR
* net 9 VPB
* device instance $1 r0 *1 0.49,1.985 pfet_01v8_hvt
M$1 7 2 6 9 pfet_01v8_hvt L=150000U W=4000000U AS=685000000000P
+ AD=540000000000P PS=6370000U PD=5080000U
* device instance $5 r0 *1 2.17,1.985 pfet_01v8_hvt
M$5 8 4 6 9 pfet_01v8_hvt L=150000U W=4000000U AS=540000000000P
+ AD=665000000000P PS=5080000U PD=6330000U
* device instance $8 r0 *1 3.43,1.985 pfet_01v8_hvt
M$8 3 5 8 9 pfet_01v8_hvt L=150000U W=4000000U AS=540000000000P
+ AD=540000000000P PS=5080000U PD=5080000U
* device instance $13 r0 *1 0.49,0.56 nfet_01v8
M$13 3 2 1 10 nfet_01v8 L=150000U W=2600000U AS=445250000000P AD=351000000000P
+ PS=4620000U PD=3680000U
* device instance $17 r0 *1 2.17,0.56 nfet_01v8
M$17 3 4 1 10 nfet_01v8 L=150000U W=2600000U AS=351000000000P AD=432250000000P
+ PS=3680000U PD=4580000U
* device instance $20 r0 *1 3.43,0.56 nfet_01v8
M$20 1 5 3 10 nfet_01v8 L=150000U W=2600000U AS=351000000000P AD=351000000000P
+ PS=3680000U PD=3680000U
.ENDS sky130_fd_sc_hd__nor3_4

* cell sky130_fd_sc_hd__a2111oi_2
* pin VGND
* pin Y
* pin C1
* pin D1
* pin B1
* pin A1
* pin A2
* pin VPB
* pin VPWR
* pin 
.SUBCKT sky130_fd_sc_hd__a2111oi_2 1 2 3 4 5 6 7 10 11 16
* net 1 VGND
* net 2 Y
* net 3 C1
* net 4 D1
* net 5 B1
* net 6 A1
* net 7 A2
* net 10 VPB
* net 11 VPWR
* device instance $1 r0 *1 3.64,1.985 pfet_01v8_hvt
M$1 11 6 13 10 pfet_01v8_hvt L=150000U W=2000000U AS=420000000000P
+ AD=475000000000P PS=3840000U PD=3950000U
* device instance $2 r0 *1 4.07,1.985 pfet_01v8_hvt
M$2 13 7 11 10 pfet_01v8_hvt L=150000U W=2000000U AS=280000000000P
+ AD=300000000000P PS=2560000U PD=2600000U
* device instance $5 r0 *1 0.5,1.985 pfet_01v8_hvt
M$5 14 3 12 10 pfet_01v8_hvt L=150000U W=1000000U AS=285000000000P
+ AD=140000000000P PS=2570000U PD=1280000U
* device instance $6 r0 *1 0.93,1.985 pfet_01v8_hvt
M$6 2 4 14 10 pfet_01v8_hvt L=150000U W=1000000U AS=140000000000P
+ AD=140000000000P PS=1280000U PD=1280000U
* device instance $7 r0 *1 1.36,1.985 pfet_01v8_hvt
M$7 15 4 2 10 pfet_01v8_hvt L=150000U W=1000000U AS=140000000000P
+ AD=140000000000P PS=1280000U PD=1280000U
* device instance $8 r0 *1 1.79,1.985 pfet_01v8_hvt
M$8 12 3 15 10 pfet_01v8_hvt L=150000U W=1000000U AS=140000000000P
+ AD=160000000000P PS=1280000U PD=1320000U
* device instance $9 r0 *1 2.26,1.985 pfet_01v8_hvt
M$9 13 5 12 10 pfet_01v8_hvt L=150000U W=2000000U AS=300000000000P
+ AD=400000000000P PS=2600000U PD=3800000U
* device instance $11 r0 *1 0.5,0.56 nfet_01v8
M$11 1 3 2 16 nfet_01v8 L=150000U W=1300000U AS=312000000000P AD=196625000000P
+ PS=2910000U PD=1905000U
* device instance $12 r0 *1 0.93,0.56 nfet_01v8
M$12 2 4 1 16 nfet_01v8 L=150000U W=1300000U AS=182000000000P AD=217750000000P
+ PS=1860000U PD=1970000U
* device instance $15 r0 *1 2.375,0.56 nfet_01v8
M$15 1 5 2 16 nfet_01v8 L=150000U W=1300000U AS=232375000000P AD=217750000000P
+ PS=2015000U PD=1970000U
* device instance $17 r0 *1 3.345,0.56 nfet_01v8
M$17 9 6 2 16 nfet_01v8 L=150000U W=650000U AS=91000000000P AD=178750000000P
+ PS=930000U PD=1200000U
* device instance $18 r0 *1 4.045,0.56 nfet_01v8
M$18 1 7 9 16 nfet_01v8 L=150000U W=650000U AS=178750000000P AD=112125000000P
+ PS=1200000U PD=995000U
* device instance $19 r0 *1 4.54,0.56 nfet_01v8
M$19 8 7 1 16 nfet_01v8 L=150000U W=650000U AS=112125000000P AD=91000000000P
+ PS=995000U PD=930000U
* device instance $20 r0 *1 4.97,0.56 nfet_01v8
M$20 2 6 8 16 nfet_01v8 L=150000U W=650000U AS=91000000000P AD=172250000000P
+ PS=930000U PD=1830000U
.ENDS sky130_fd_sc_hd__a2111oi_2

* cell sky130_fd_sc_hd__nand2b_4
* pin VGND
* pin B
* pin Y
* pin A_N
* pin VPWR
* pin VPB
* pin 
.SUBCKT sky130_fd_sc_hd__nand2b_4 1 2 5 6 7 8 9
* net 1 VGND
* net 2 B
* net 5 Y
* net 6 A_N
* net 7 VPWR
* net 8 VPB
* device instance $1 r0 *1 1.41,1.985 pfet_01v8_hvt
M$1 5 3 7 8 pfet_01v8_hvt L=150000U W=4000000U AS=665000000000P
+ AD=547500000000P PS=6330000U PD=5095000U
* device instance $5 r0 *1 3.105,1.985 pfet_01v8_hvt
M$5 5 2 7 8 pfet_01v8_hvt L=150000U W=4000000U AS=547500000000P
+ AD=795000000000P PS=5095000U PD=6590000U
* device instance $9 r0 *1 0.47,1.985 pfet_01v8_hvt
M$9 7 6 3 8 pfet_01v8_hvt L=150000U W=1000000U AS=260000000000P
+ AD=260000000000P PS=2520000U PD=2520000U
* device instance $10 r0 *1 1.41,0.56 nfet_01v8
M$10 5 3 4 9 nfet_01v8 L=150000U W=2600000U AS=432250000000P AD=355875000000P
+ PS=4580000U PD=3695000U
* device instance $14 r0 *1 3.105,0.56 nfet_01v8
M$14 1 2 4 9 nfet_01v8 L=150000U W=2600000U AS=355875000000P AD=516750000000P
+ PS=3695000U PD=4840000U
* device instance $18 r0 *1 0.47,0.56 nfet_01v8
M$18 1 6 3 9 nfet_01v8 L=150000U W=650000U AS=169000000000P AD=169000000000P
+ PS=1820000U PD=1820000U
.ENDS sky130_fd_sc_hd__nand2b_4

* cell sky130_fd_sc_hd__a2bb2oi_2
* pin VGND
* pin Y
* pin B1
* pin B2
* pin A1_N
* pin A2_N
* pin VPWR
* pin VPB
* pin 
.SUBCKT sky130_fd_sc_hd__a2bb2oi_2 1 3 5 6 7 8 10 11 13
* net 1 VGND
* net 3 Y
* net 5 B1
* net 6 B2
* net 7 A1_N
* net 8 A2_N
* net 10 VPWR
* net 11 VPB
* device instance $1 r0 *1 3.645,1.985 pfet_01v8_hvt
M$1 10 7 9 11 pfet_01v8_hvt L=150000U W=2000000U AS=395000000000P
+ AD=270000000000P PS=3790000U PD=2540000U
* device instance $3 r0 *1 4.485,1.985 pfet_01v8_hvt
M$3 4 8 9 11 pfet_01v8_hvt L=150000U W=2000000U AS=270000000000P
+ AD=415000000000P PS=2540000U PD=3830000U
* device instance $5 r0 *1 0.605,1.985 pfet_01v8_hvt
M$5 10 5 12 11 pfet_01v8_hvt L=150000U W=2000000U AS=395000000000P
+ AD=270000000000P PS=3790000U PD=2540000U
* device instance $6 r0 *1 1.025,1.985 pfet_01v8_hvt
M$6 12 6 10 11 pfet_01v8_hvt L=150000U W=2000000U AS=270000000000P
+ AD=270000000000P PS=2540000U PD=2540000U
* device instance $9 r0 *1 2.285,1.985 pfet_01v8_hvt
M$9 3 4 12 11 pfet_01v8_hvt L=150000U W=2000000U AS=270000000000P
+ AD=395000000000P PS=2540000U PD=3790000U
* device instance $11 r0 *1 0.605,0.56 nfet_01v8
M$11 2 5 1 13 nfet_01v8 L=150000U W=1300000U AS=256750000000P AD=175500000000P
+ PS=2740000U PD=1840000U
* device instance $12 r0 *1 1.025,0.56 nfet_01v8
M$12 3 6 2 13 nfet_01v8 L=150000U W=1300000U AS=175500000000P AD=175500000000P
+ PS=1840000U PD=1840000U
* device instance $15 r0 *1 2.285,0.56 nfet_01v8
M$15 3 4 1 13 nfet_01v8 L=150000U W=1300000U AS=175500000000P AD=344500000000P
+ PS=1840000U PD=2360000U
* device instance $17 r0 *1 3.645,0.56 nfet_01v8
M$17 4 7 1 13 nfet_01v8 L=150000U W=1300000U AS=344500000000P AD=175500000000P
+ PS=2360000U PD=1840000U
* device instance $19 r0 *1 4.485,0.56 nfet_01v8
M$19 4 8 1 13 nfet_01v8 L=150000U W=1300000U AS=175500000000P AD=269750000000P
+ PS=1840000U PD=2780000U
.ENDS sky130_fd_sc_hd__a2bb2oi_2

* cell sky130_fd_sc_hd__nor2b_4
* pin VGND
* pin Y
* pin A
* pin B_N
* pin VPWR
* pin VPB
* pin 
.SUBCKT sky130_fd_sc_hd__nor2b_4 1 3 4 5 7 8 9
* net 1 VGND
* net 3 Y
* net 4 A
* net 5 B_N
* net 7 VPWR
* net 8 VPB
* device instance $1 r0 *1 4.4,1.985 pfet_01v8_hvt
M$1 7 5 2 8 pfet_01v8_hvt L=150000U W=1000000U AS=270000000000P
+ AD=280000000000P PS=2540000U PD=2560000U
* device instance $2 r0 *1 0.49,1.985 pfet_01v8_hvt
M$2 7 4 6 8 pfet_01v8_hvt L=150000U W=4000000U AS=685000000000P
+ AD=540000000000P PS=6370000U PD=5080000U
* device instance $6 r0 *1 2.17,1.985 pfet_01v8_hvt
M$6 3 2 6 8 pfet_01v8_hvt L=150000U W=4000000U AS=540000000000P
+ AD=685000000000P PS=5080000U PD=6370000U
* device instance $10 r0 *1 4.4,0.56 nfet_01v8
M$10 1 5 2 9 nfet_01v8 L=150000U W=650000U AS=182000000000P AD=175500000000P
+ PS=1860000U PD=1840000U
* device instance $11 r0 *1 0.49,0.56 nfet_01v8
M$11 3 4 1 9 nfet_01v8 L=150000U W=2600000U AS=445250000000P AD=351000000000P
+ PS=4620000U PD=3680000U
* device instance $15 r0 *1 2.17,0.56 nfet_01v8
M$15 3 2 1 9 nfet_01v8 L=150000U W=2600000U AS=351000000000P AD=432250000000P
+ PS=3680000U PD=4580000U
.ENDS sky130_fd_sc_hd__nor2b_4

* cell sky130_fd_sc_hd__and2b_2
* pin VPB
* pin A_N
* pin B
* pin VPWR
* pin VGND
* pin X
* pin 
.SUBCKT sky130_fd_sc_hd__and2b_2 1 2 4 5 7 8 9
* net 1 VPB
* net 2 A_N
* net 4 B
* net 5 VPWR
* net 7 VGND
* net 8 X
* device instance $1 r0 *1 0.47,2.275 pfet_01v8_hvt
M$1 5 2 3 1 pfet_01v8_hvt L=150000U W=420000U AS=109200000000P AD=76650000000P
+ PS=1360000U PD=785000U
* device instance $2 r0 *1 0.985,2.275 pfet_01v8_hvt
M$2 6 3 5 1 pfet_01v8_hvt L=150000U W=420000U AS=76650000000P AD=60900000000P
+ PS=785000U PD=710000U
* device instance $3 r0 *1 1.425,2.275 pfet_01v8_hvt
M$3 6 4 5 1 pfet_01v8_hvt L=150000U W=420000U AS=228950000000P AD=60900000000P
+ PS=1745000U PD=710000U
* device instance $4 r0 *1 2.32,1.985 pfet_01v8_hvt
M$4 8 6 5 1 pfet_01v8_hvt L=150000U W=2000000U AS=363950000000P
+ AD=395000000000P PS=3015000U PD=3790000U
* device instance $6 r0 *1 1.41,0.445 nfet_01v8
M$6 10 3 6 9 nfet_01v8 L=150000U W=420000U AS=109200000000P AD=56700000000P
+ PS=1360000U PD=690000U
* device instance $7 r0 *1 1.83,0.445 nfet_01v8
M$7 7 4 10 9 nfet_01v8 L=150000U W=420000U AS=56700000000P AD=101875000000P
+ PS=690000U PD=990000U
* device instance $8 r0 *1 2.32,0.56 nfet_01v8
M$8 8 6 7 9 nfet_01v8 L=150000U W=1300000U AS=189625000000P AD=263250000000P
+ PS=1910000U PD=2760000U
* device instance $10 r0 *1 0.47,0.445 nfet_01v8
M$10 3 2 7 9 nfet_01v8 L=150000U W=420000U AS=109200000000P AD=109200000000P
+ PS=1360000U PD=1360000U
.ENDS sky130_fd_sc_hd__and2b_2

* cell sky130_fd_sc_hd__nand2_2
* pin VGND
* pin 
* pin B
* pin Y
* pin A
* pin VPB
* pin VPWR
.SUBCKT sky130_fd_sc_hd__nand2_2 1 2 4 5 6 7 8
* net 1 VGND
* net 4 B
* net 5 Y
* net 6 A
* net 7 VPB
* net 8 VPWR
* device instance $1 r0 *1 0.47,1.985 pfet_01v8_hvt
M$1 5 4 8 7 pfet_01v8_hvt L=150000U W=2000000U AS=395000000000P
+ AD=270000000000P PS=3790000U PD=2540000U
* device instance $3 r0 *1 1.31,1.985 pfet_01v8_hvt
M$3 5 6 8 7 pfet_01v8_hvt L=150000U W=2000000U AS=270000000000P
+ AD=395000000000P PS=2540000U PD=3790000U
* device instance $5 r0 *1 0.47,0.56 nfet_01v8
M$5 1 4 3 2 nfet_01v8 L=150000U W=1300000U AS=256750000000P AD=175500000000P
+ PS=2740000U PD=1840000U
* device instance $7 r0 *1 1.31,0.56 nfet_01v8
M$7 5 6 3 2 nfet_01v8 L=150000U W=1300000U AS=175500000000P AD=256750000000P
+ PS=1840000U PD=2740000U
.ENDS sky130_fd_sc_hd__nand2_2

* cell sky130_fd_sc_hd__nor3_1
* pin VPB
* pin A
* pin B
* pin C
* pin Y
* pin VGND
* pin VPWR
* pin 
.SUBCKT sky130_fd_sc_hd__nor3_1 1 2 3 4 5 6 7 8
* net 1 VPB
* net 2 A
* net 3 B
* net 4 C
* net 5 Y
* net 6 VGND
* net 7 VPWR
* device instance $1 r0 *1 0.47,1.985 pfet_01v8_hvt
M$1 10 4 5 1 pfet_01v8_hvt L=150000U W=1000000U AS=260000000000P
+ AD=135000000000P PS=2520000U PD=1270000U
* device instance $2 r0 *1 0.89,1.985 pfet_01v8_hvt
M$2 9 3 10 1 pfet_01v8_hvt L=150000U W=1000000U AS=135000000000P
+ AD=135000000000P PS=1270000U PD=1270000U
* device instance $3 r0 *1 1.31,1.985 pfet_01v8_hvt
M$3 7 2 9 1 pfet_01v8_hvt L=150000U W=1000000U AS=135000000000P
+ AD=260000000000P PS=1270000U PD=2520000U
* device instance $4 r0 *1 0.47,0.56 nfet_01v8