
* cell parameterized_serdes
* pin parallel_out[0]
* pin parallel_out[4]
* pin parallel_out[5]
* pin parallel_out[6]
* pin parallel_out[7]
* pin serial_in
* pin parallel_out[1]
* pin parallel_out[3]
* pin parallel_out[2]
* pin load
* pin rst_n
* pin rx_done
* pin clk
* pin enable
* pin mode
* pin parallel_in[2]
* pin parallel_in[1]
* pin parallel_in[0]
* pin parallel_in[6]
* pin parallel_in[5]
* pin parallel_in[3]
* pin parallel_in[7]
* pin parallel_in[4]
* pin serial_out
* pin tx_done
.SUBCKT parameterized_serdes 1 2 3 4 5 6 38 57 67 73 74 77 81 83 88 97 106 113
+ 145 150 155 157 160 161 162
* net 1 parallel_out[0]
* net 2 parallel_out[4]
* net 3 parallel_out[5]
* net 4 parallel_out[6]
* net 5 parallel_out[7]
* net 6 serial_in
* net 38 parallel_out[1]
* net 57 parallel_out[3]
* net 67 parallel_out[2]
* net 73 load
* net 74 rst_n
* net 77 rx_done
* net 81 clk
* net 83 enable
* net 88 mode
* net 97 parallel_in[2]
* net 106 parallel_in[1]
* net 113 parallel_in[0]
* net 145 parallel_in[6]
* net 150 parallel_in[5]
* net 155 parallel_in[3]
* net 157 parallel_in[7]
* net 160 parallel_in[4]
* net 161 serial_out
* net 162 tx_done
* cell instance $3 r0 *1 13.8,2.72
X$3 14 8 1 7 14 7 sky130_fd_sc_hd__clkbuf_1
* cell instance $6 r0 *1 24.38,2.72
X$6 14 22 2 7 14 7 sky130_fd_sc_hd__clkbuf_1
* cell instance $9 r0 *1 32.66,2.72
X$9 14 12 3 7 14 7 sky130_fd_sc_hd__clkbuf_1
* cell instance $12 r0 *1 43.7,2.72
X$12 14 11 4 7 14 7 sky130_fd_sc_hd__clkbuf_1
* cell instance $15 r0 *1 48.3,2.72
X$15 14 15 5 7 14 7 sky130_fd_sc_hd__clkbuf_1
* cell instance $17 r0 *1 12.42,2.72
X$17 14 6 9 7 14 7 sky130_fd_sc_hd__clkbuf_1
* cell instance $28 r0 *1 15.64,2.72
X$28 7 18 9 8 10 14 14 7 sky130_fd_sc_hd__mux2_1
* cell instance $59 m0 *1 9.2,8.16
X$59 7 16 8 13 18 14 14 7 sky130_fd_sc_hd__dfrtp_1
* cell instance $63 m0 *1 18.86,8.16
X$63 7 16 22 13 21 14 14 7 sky130_fd_sc_hd__dfrtp_1
* cell instance $66 m0 *1 29.44,8.16
X$66 7 25 20 12 10 14 14 7 sky130_fd_sc_hd__mux2_1
* cell instance $68 m0 *1 35.42,8.16
X$68 7 16 11 17 19 14 14 7 sky130_fd_sc_hd__dfrtp_1
* cell instance $71 m0 *1 44.62,8.16
X$71 7 16 15 17 23 14 14 7 sky130_fd_sc_hd__dfrtp_1
* cell instance $86 r0 *1 16.56,8.16
X$86 14 24 9 29 7 14 7 sky130_fd_sc_hd__nor2b_1
* cell instance $89 r0 *1 21.16,8.16
X$89 7 21 33 22 10 14 14 7 sky130_fd_sc_hd__mux2_1
* cell instance $90 r0 *1 25.3,8.16
X$90 7 16 12 17 25 14 14 7 sky130_fd_sc_hd__dfrtp_1
* cell instance $92 r0 *1 38.18,8.16
X$92 7 19 30 11 10 14 14 7 sky130_fd_sc_hd__mux2_1
* cell instance $98 r0 *1 44.62,8.16
X$98 7 23 32 15 10 14 14 7 sky130_fd_sc_hd__mux2_1
* cell instance $106 m0 *1 5.52,13.6
X$106 7 16 27 13 26 14 14 7 sky130_fd_sc_hd__dfrtp_1
* cell instance $109 m0 *1 14.72,13.6
X$109 7 26 29 27 31 14 14 7 sky130_fd_sc_hd__mux2_1
* cell instance $119 m0 *1 36.34,13.6
X$119 14 24 20 42 7 14 7 sky130_fd_sc_hd__nor2b_1
* cell instance $120 m0 *1 38.64,13.6
X$120 7 16 32 17 28 14 14 7 sky130_fd_sc_hd__dfrtp_1
* cell instance $142 r0 *1 25.3,13.6
X$142 14 24 33 34 7 14 7 sky130_fd_sc_hd__nor2b_1
* cell instance $143 r0 *1 27.6,13.6
X$143 7 37 34 20 31 14 14 7 sky130_fd_sc_hd__mux2_1
* cell instance $145 r0 *1 32.66,13.6
X$145 7 16 30 17 44 14 14 7 sky130_fd_sc_hd__dfrtp_1
* cell instance $149 r0 *1 43.24,13.6
X$149 7 28 36 32 31 14 14 7 sky130_fd_sc_hd__mux2_1
* cell instance $155 m0 *1 2.3,19.04
X$155 7 16 39 13 35 14 14 7 sky130_fd_sc_hd__dfrtp_1
* cell instance $156 m0 *1 11.5,19.04
X$156 7 35 27 39 10 14 14 7 sky130_fd_sc_hd__mux2_1
* cell instance $159 m0 *1 15.64,19.04
X$159 7 43 45 40 31 14 14 7 sky130_fd_sc_hd__mux2_1
* cell instance $160 m0 *1 19.78,19.04
X$160 14 24 27 45 7 14 7 sky130_fd_sc_hd__nor2b_1
* cell instance $166 m0 *1 29.44,19.04
X$166 7 16 20 17 37 14 14 7 sky130_fd_sc_hd__dfrtp_1
* cell instance $167 m0 *1 38.64,19.04
X$167 7 41 17 14 14 7 sky130_fd_sc_hd__clkbuf_8
* cell instance $170 m0 *1 43.7,19.04
X$170 14 24 30 36 7 14 7 sky130_fd_sc_hd__nor2b_1
* cell instance $180 r0 *1 1.38,19.04
X$180 14 39 38 7 14 7 sky130_fd_sc_hd__clkbuf_1
* cell instance $184 r0 *1 5.98,19.04
X$184 7 16 40 13 43 14 14 7 sky130_fd_sc_hd__dfrtp_1
* cell instance $187 r0 *1 15.64,19.04
X$187 7 41 13 14 14 7 sky130_fd_sc_hd__clkbuf_8
* cell instance $195 r0 *1 38.64,19.04
X$195 7 44 42 30 31 14 14 7 sky130_fd_sc_hd__mux2_1
* cell instance $200 r0 *1 48.76,19.04
X$200 7 16 47 17 48 14 14 7 sky130_fd_sc_hd__dfrtp_1
* cell instance $205 m0 *1 4.14,24.48
X$205 7 16 50 13 46 14 14 7 sky130_fd_sc_hd__dfrtp_1
* cell instance $206 m0 *1 13.34,24.48
X$206 7 46 40 50 10 14 14 7 sky130_fd_sc_hd__mux2_1
* cell instance $209 m0 *1 17.48,24.48
X$209 14 24 40 51 7 14 7 sky130_fd_sc_hd__nor2b_1
* cell instance $210 m0 *1 19.78,24.48
X$210 7 16 33 13 56 14 14 7 sky130_fd_sc_hd__dfrtp_1
* cell instance $221 m0 *1 47.38,24.48
X$221 7 16 53 17 55 14 14 7 sky130_fd_sc_hd__dfrtp_1
* cell instance $227 r0 *1 3.22,24.48
X$227 14 49 57 7 14 7 sky130_fd_sc_hd__clkbuf_1
* cell instance $230 r0 *1 5.98,24.48
X$230 7 16 49 13 71 14 14 7 sky130_fd_sc_hd__dfrtp_1
* cell instance $235 r0 *1 17.94,24.48
X$235 7 63 51 52 31 14 14 7 sky130_fd_sc_hd__mux2_1
* cell instance $238 r0 *1 23.46,24.48
X$238 7 56 64 33 31 14 14 7 sky130_fd_sc_hd__mux2_1
* cell instance $242 r0 *1 35.88,24.48
X$242 14 31 58 66 7 14 7 sky130_fd_sc_hd__nor2_1
* cell instance $245 r0 *1 39.56,24.48
X$245 14 65 7 24 14 7 sky130_fd_sc_hd__clkbuf_4
* cell instance $249 r0 *1 43.24,24.48
X$249 7 59 79 31 60 69 14 14 7 sky130_fd_sc_hd__a211oi_4
* cell instance $251 r0 *1 51.06,24.48
X$251 7 55 54 53 80 62 14 14 7 sky130_fd_sc_hd__a2bb2oi_1
* cell instance $253 r0 *1 54.74,24.48
X$253 7 61 60 14 14 7 sky130_fd_sc_hd__buf_6
* cell instance $262 m0 *1 1.84,29.92
X$262 14 50 67 7 14 7 sky130_fd_sc_hd__clkbuf_1
* cell instance $267 m0 *1 11.96,29.92
X$267 7 71 52 49 10 14 14 7 sky130_fd_sc_hd__mux2_1
* cell instance $269 m0 *1 17.02,29.92
X$269 7 16 52 13 63 14 14 7 sky130_fd_sc_hd__dfrtp_1
* cell instance $270 m0 *1 26.22,29.92
X$270 14 24 52 64 7 14 7 sky130_fd_sc_hd__nor2b_1
* cell instance $274 m0 *1 33.12,29.92
X$274 7 16 68 17 66 14 14 7 sky130_fd_sc_hd__dfrtp_1
* cell instance $275 m0 *1 42.32,29.92
X$275 7 10 65 68 69 59 14 14 7 sky130_fd_sc_hd__nor4b_4
* cell instance $276 m0 *1 51.06,29.92
X$276 14 69 60 54 7 14 7 sky130_fd_sc_hd__nor2_1
* cell instance $278 m0 *1 53.36,29.92
X$278 14 65 47 53 72 14 62 7 7 sky130_fd_sc_hd__a211o_1
* cell instance $280 m0 *1 57.04,29.92
X$280 14 69 60 47 14 70 7 7 sky130_fd_sc_hd__o21ai_0
* cell instance $281 m0 *1 58.88,29.92
X$281 7 48 70 78 62 60 69 14 14 7 sky130_fd_sc_hd__o41ai_1
* cell instance $302 r0 *1 44.62,29.92
X$302 14 65 14 7 79 7 sky130_fd_sc_hd__inv_1
* cell instance $305 r0 *1 50.6,29.92
X$305 14 53 72 47 7 14 59 7 sky130_fd_sc_hd__a21o_1
* cell instance $306 r0 *1 53.36,29.92
X$306 14 69 60 72 80 7 14 7 sky130_fd_sc_hd__nor3b_1
* cell instance $307 r0 *1 56.12,29.92
X$307 14 65 68 61 7 14 7 sky130_fd_sc_hd__nor2b_1
* cell instance $308 r0 *1 58.42,29.92
X$308 14 68 77 7 14 7 sky130_fd_sc_hd__clkbuf_1
* cell instance $310 r0 *1 60.26,29.92
X$310 14 73 14 7 65 7 sky130_fd_sc_hd__clkbuf_2
* cell instance $311 m0 *1 1.38,35.36
X$311 14 74 14 84 7 7 sky130_fd_sc_hd__dlygate4sd3_1
* cell instance $312 m0 *1 5.06,35.36
X$312 7 84 16 14 14 7 sky130_fd_sc_hd__buf_12
* cell instance $321 m0 *1 29.44,35.36
X$321 7 81 41 14 14 7 sky130_fd_sc_hd__clkbuf_8
* cell instance $326 m0 *1 41.86,35.36
X$326 14 68 75 85 7 14 58 7 sky130_fd_sc_hd__a21oi_1
* cell instance $331 m0 *1 50.6,35.36
X$331 14 86 14 7 89 7 sky130_fd_sc_hd__inv_1
* cell instance $332 m0 *1 51.98,35.36
X$332 7 86 72 76 82 14 14 7 sky130_fd_sc_hd__ha_1
* cell instance $334 m0 *1 57.04,35.36
X$334 14 53 76 82 78 14 7 7 sky130_fd_sc_hd__nand3_1
* cell instance $337 m0 *1 60.26,35.36
X$337 14 83 14 7 75 7 sky130_fd_sc_hd__clkbuf_2
* cell instance $340 r0 *1 5.98,35.36
X$340 7 16 96 90 94 14 14 7 sky130_fd_sc_hd__dfrtp_1
* cell instance $346 r0 *1 23.46,35.36
X$346 7 16 92 90 95 14 14 7 sky130_fd_sc_hd__dfrtp_2
* cell instance $355 r0 *1 47.38,35.36
X$355 7 85 69 75 14 14 7 sky130_fd_sc_hd__nand2_4
* cell instance $356 r0 *1 51.52,35.36
X$356 7 101 87 62 60 69 89 14 14 7 sky130_fd_sc_hd__o41ai_1
* cell instance $359 r0 *1 56.12,35.36
X$359 14 76 69 60 62 93 14 7 7 sky130_fd_sc_hd__or4_1
* cell instance $360 r0 *1 58.88,35.36
X$360 14 88 14 7 85 7 sky130_fd_sc_hd__clkbuf_2
* cell instance $368 m0 *1 2.3,40.8
X$368 7 16 110 90 109 14 14 7 sky130_fd_sc_hd__dfrtp_1
* cell instance $370 m0 *1 12.42,40.8
X$370 7 94 96 107 100 14 14 7 sky130_fd_sc_hd__mux2_1
* cell instance $374 m0 *1 24.84,40.8
X$374 7 95 104 91 92 14 14 7 sky130_fd_sc_hd__mux2_1
* cell instance $376 m0 *1 29.44,40.8
X$376 14 98 91 116 104 7 112 14 7 sky130_fd_sc_hd__a22o_1
* cell instance $378 m0 *1 33.58,40.8
X$378 7 98 111 92 116 14 14 7 sky130_fd_sc_hd__ha_1
* cell instance $380 m0 *1 38.64,40.8
X$380 14 105 103 125 91 7 14 7 sky130_fd_sc_hd__nor3_1
* cell instance $382 m0 *1 41.4,40.8
X$382 14 85 75 118 7 14 7 sky130_fd_sc_hd__nor2b_1
* cell instance $384 m0 *1 44.16,40.8
X$384 14 75 85 103 7 14 7 sky130_fd_sc_hd__nand2b_1
* cell instance $386 m0 *1 47.38,40.8
X$386 7 16 82 102 101 14 14 7 sky130_fd_sc_hd__dfrtp_1
* cell instance $388 m0 *1 57.04,40.8
X$388 14 69 60 82 14 87 7 7 sky130_fd_sc_hd__o21ai_0
* cell instance $389 m0 *1 58.88,40.8
X$389 14 99 93 119 14 7 7 sky130_fd_sc_hd__nand2_1
* cell instance $390 m0 *1 60.26,40.8
X$390 14 69 60 76 14 99 7 7 sky130_fd_sc_hd__o21ai_0
* cell instance $391 r0 *1 1.38,40.8
X$391 14 106 114 7 14 7 sky130_fd_sc_hd__clkbuf_1
* cell instance $392 r0 *1 2.76,40.8
X$392 14 97 107 7 14 7 sky130_fd_sc_hd__clkbuf_1
* cell instance $393 r0 *1 4.14,40.8
X$393 7 109 110 114 100 14 14 7 sky130_fd_sc_hd__mux2_1
* cell instance $394 r0 *1 8.28,40.8
X$394 14 113 115 7 14 7 sky130_fd_sc_hd__clkbuf_1
* cell instance $397 r0 *1 11.04,40.8
X$397 7 120 108 115 100 14 14 7 sky130_fd_sc_hd__mux2_1
* cell instance $400 r0 *1 15.64,40.8
X$400 7 92 137 96 121 108 110 116 14 14 7 sky130_fd_sc_hd__mux4_1
* cell instance $403 r0 *1 26.68,40.8
X$403 7 16 116 102 112 14 14 7 sky130_fd_sc_hd__dfrtp_2
* cell instance $404 r0 *1 36.34,40.8
X$404 14 118 117 104 14 7 7 sky130_fd_sc_hd__nand2_1
* cell instance $405 r0 *1 37.72,40.8
X$405 7 118 100 24 14 14 7 sky130_fd_sc_hd__nand2_4
* cell instance $409 r0 *1 43.24,40.8
X$409 14 105 24 117 7 14 7 sky130_fd_sc_hd__nand2b_1
* cell instance $413 r0 *1 48.76,40.8
X$413 7 16 76 102 119 14 14 7 sky130_fd_sc_hd__dfrtp_1
* cell instance $422 m0 *1 8.74,46.24
X$422 7 16 108 90 120 14 14 7 sky130_fd_sc_hd__dfrtp_1
* cell instance $429 m0 *1 36.8,46.24
X$429 14 122 123 111 7 14 127 7 sky130_fd_sc_hd__a21oi_1
* cell instance $430 m0 *1 38.64,46.24
X$430 14 24 122 123 111 14 125 7 7 sky130_fd_sc_hd__a211o_1
* cell instance $431 m0 *1 41.86,46.24
X$431 14 117 118 111 123 7 14 131 7 sky130_fd_sc_hd__a31oi_1
* cell instance $432 m0 *1 44.16,46.24
X$432 14 103 79 105 7 14 124 7 sky130_fd_sc_hd__a21oi_1
* cell instance $433 m0 *1 46,46.24
X$433 7 130 129 122 124 14 14 7 sky130_fd_sc_hd__mux2_1
* cell instance $445 r0 *1 10.12,46.24
X$445 7 41 90 14 14 7 sky130_fd_sc_hd__clkbuf_8
* cell instance $448 r0 *1 15.64,46.24
X$448 14 90 163 7 14 7 sky130_fd_sc_hd__clkbuf_1
* cell instance $449 r0 *1 17.02,46.24
X$449 7 16 133 90 136 14 14 7 sky130_fd_sc_hd__dfrtp_1
* cell instance $450 r0 *1 26.22,46.24
X$450 14 126 137 138 7 14 7 sky130_fd_sc_hd__nor2_1
* cell instance $453 r0 *1 28.98,46.24
X$453 14 123 14 7 126 7 sky130_fd_sc_hd__inv_1
* cell instance $454 r0 *1 30.36,46.24
X$454 14 123 92 139 7 14 7 sky130_fd_sc_hd__nor2_1
* cell instance $456 r0 *1 32.66,46.24
X$456 14 123 92 116 128 14 7 7 sky130_fd_sc_hd__nand3_1
* cell instance $457 r0 *1 34.5,46.24
X$457 14 102 14 7 7 sky130_fd_sc_hd__clkinv_2
* cell instance $458 r0 *1 36.34,46.24
X$458 7 41 102 14 14 7 sky130_fd_sc_hd__clkbuf_8
* cell instance $459 r0 *1 41.4,46.24
X$459 14 103 127 132 7 14 7 sky130_fd_sc_hd__nor2_1
* cell instance $462 r0 *1 43.24,46.24
X$462 14 131 124 125 7 14 141 7 sky130_fd_sc_hd__a21oi_1
* cell instance $463 r0 *1 45.08,46.24
X$463 14 125 128 129 7 14 7 sky130_fd_sc_hd__nor2_1
* cell instance $464 r0 *1 46.46,46.24
X$464 7 16 122 102 130 14 14 7 sky130_fd_sc_hd__dfrtp_1
* cell instance $474 m0 *1 6.9,51.68
X$474 7 16 135 90 153 14 14 7 sky130_fd_sc_hd__dfrtp_1
* cell instance $476 m0 *1 16.56,51.68
X$476 7 144 143 135 116 14 14 7 sky130_fd_sc_hd__mux2i_1
* cell instance $479 m0 *1 24.84,51.68
X$479 14 144 92 134 126 138 14 158 7 7 sky130_fd_sc_hd__a311oi_1
* cell instance $482 m0 *1 29.44,51.68
X$482 14 139 142 122 7 14 134 7 sky130_fd_sc_hd__a21o_1
* cell instance $483 m0 *1 32.2,51.68
X$483 7 142 133 140 116 14 14 7 sky130_fd_sc_hd__mux2i_1
* cell instance $485 m0 *1 37.72,51.68
X$485 7 16 123 102 141 14 14 7 sky130_fd_sc_hd__dfrtp_1
* cell instance $495 r0 *1 2.3,51.68
X$495 14 145 152 7 14 7 sky130_fd_sc_hd__clkbuf_1
* cell instance $496 r0 *1 3.68,51.68
X$496 7 16 143 90 151 14 14 7 sky130_fd_sc_hd__dfrtp_1
* cell instance $502 r0 *1 16.56,51.68
X$502 7 147 121 149 100 14 14 7 sky130_fd_sc_hd__mux2_1
* cell instance $506 r0 *1 23.92,51.68
X$506 7 16 140 90 146 14 14 7 sky130_fd_sc_hd__dfrtp_1
* cell instance $510 r0 *1 38.18,51.68
X$510 14 100 132 105 14 148 7 7 sky130_fd_sc_hd__o21a_1
* cell instance $521 m0 *1 3.22,57.12
X$521 7 151 143 152 100 14 14 7 sky130_fd_sc_hd__mux2_1
* cell instance $522 m0 *1 7.36,57.12
X$522 7 153 135 154 100 14 14 7 sky130_fd_sc_hd__mux2_1
* cell instance $524 m0 *1 11.96,57.12
X$524 7 16 121 90 147 14 14 7 sky130_fd_sc_hd__dfrtp_1
* cell instance $529 m0 *1 22.54,57.12
X$529 7 136 133 156 100 14 14 7 sky130_fd_sc_hd__mux2_1
* cell instance $533 m0 *1 29.44,57.12
X$533 7 146 140 159 100 14 14 7 sky130_fd_sc_hd__mux2_1
* cell instance $535 m0 *1 37.26,57.12
X$535 7 16 105 102 148 14 14 7 sky130_fd_sc_hd__dfrtp_1
* cell instance $549 r0 *1 9.2,57.12
X$549 14 160 154 7 14 7 sky130_fd_sc_hd__clkbuf_1
* cell instance $557 r0 *1 18.86,57.12
X$557 14 155 149 7 14 7 sky130_fd_sc_hd__clkbuf_1
* cell instance $560 r0 *1 24.38,57.12
X$560 14 157 156 7 14 7 sky130_fd_sc_hd__clkbuf_1
* cell instance $562 r0 *1 26.22,57.12
X$562 14 158 161 7 14 7 sky130_fd_sc_hd__clkbuf_1
* cell instance $563 r0 *1 27.6,57.12
X$563 14 150 159 7 14 7 sky130_fd_sc_hd__clkbuf_1
* cell instance $569 r0 *1 41.4,57.12
X$569 14 105 162 7 14 7 sky130_fd_sc_hd__clkbuf_1
.ENDS parameterized_serdes

* cell sky130_fd_sc_hd__clkbuf_4
* pin VPB
* pin A
* pin VGND
* pin X
* pin VPWR
* pin 
.SUBCKT sky130_fd_sc_hd__clkbuf_4 1 3 4 5 6 7
* net 1 VPB
* net 3 A
* net 4 VGND
* net 5 X
* net 6 VPWR
* device instance $1 r0 *1 0.475,1.985 pfet_01v8_hvt
M$1 6 3 2 1 pfet_01v8_hvt L=150000U W=1000000U AS=265000000000P
+ AD=165000000000P PS=2530000U PD=1330000U
* device instance $2 r0 *1 0.955,1.985 pfet_01v8_hvt
M$2 5 2 6 1 pfet_01v8_hvt L=150000U W=4000000U AS=585000000000P
+ AD=720000000000P PS=5170000U PD=6440000U
* device instance $6 r0 *1 0.475,0.445 nfet_01v8
M$6 4 3 2 7 nfet_01v8 L=150000U W=420000U AS=111300000000P AD=70350000000P
+ PS=1370000U PD=755000U
* device instance $7 r0 *1 0.96,0.445 nfet_01v8
M$7 5 2 4 7 nfet_01v8 L=150000U W=1680000U AS=246750000000P AD=298200000000P
+ PS=2855000U PD=3520000U
.ENDS sky130_fd_sc_hd__clkbuf_4

* cell sky130_fd_sc_hd__buf_6
* pin VGND
* pin A
* pin X
* pin VPWR
* pin VPB
* pin 
.SUBCKT sky130_fd_sc_hd__buf_6 1 2 4 5 6 7
* net 1 VGND
* net 2 A
* net 4 X
* net 5 VPWR
* net 6 VPB
* device instance $1 r0 *1 0.73,1.985 pfet_01v8_hvt
M$1 3 2 5 6 pfet_01v8_hvt L=150000U W=2000000U AS=395000000000P
+ AD=270000000000P PS=3790000U PD=2540000U
* device instance $3 r0 *1 1.57,1.985 pfet_01v8_hvt
M$3 4 3 5 6 pfet_01v8_hvt L=150000U W=6000000U AS=810000000000P
+ AD=935000000000P PS=7620000U PD=8870000U
* device instance $9 r0 *1 0.73,0.56 nfet_01v8
M$9 3 2 1 7 nfet_01v8 L=150000U W=1300000U AS=256750000000P AD=175500000000P
+ PS=2740000U PD=1840000U
* device instance $11 r0 *1 1.57,0.56 nfet_01v8
M$11 4 3 1 7 nfet_01v8 L=150000U W=3900000U AS=526500000000P AD=607750000000P
+ PS=5520000U PD=6420000U
.ENDS sky130_fd_sc_hd__buf_6

* cell sky130_fd_sc_hd__a2bb2oi_1
* pin VGND
* pin Y
* pin B2
* pin A1_N
* pin A2_N
* pin B1
* pin VPWR
* pin VPB
* pin 
.SUBCKT sky130_fd_sc_hd__a2bb2oi_1 1 3 4 5 6 7 10 11 13
* net 1 VGND
* net 3 Y
* net 4 B2
* net 5 A1_N
* net 6 A2_N
* net 7 B1
* net 10 VPWR
* net 11 VPB
* device instance $1 r0 *1 1.91,1.985 pfet_01v8_hvt
M$1 9 2 3 11 pfet_01v8_hvt L=150000U W=1000000U AS=340000000000P
+ AD=135000000000P PS=2680000U PD=1270000U
* device instance $2 r0 *1 2.33,1.985 pfet_01v8_hvt
M$2 10 4 9 11 pfet_01v8_hvt L=150000U W=1000000U AS=135000000000P
+ AD=135000000000P PS=1270000U PD=1270000U
* device instance $3 r0 *1 2.75,1.985 pfet_01v8_hvt
M$3 9 7 10 11 pfet_01v8_hvt L=150000U W=1000000U AS=135000000000P
+ AD=260000000000P PS=1270000U PD=2520000U
* device instance $4 r0 *1 0.47,1.985 pfet_01v8_hvt
M$4 12 5 10 11 pfet_01v8_hvt L=150000U W=1000000U AS=260000000000P
+ AD=105000000000P PS=2520000U PD=1210000U
* device instance $5 r0 *1 0.83,1.985 pfet_01v8_hvt
M$5 2 6 12 11 pfet_01v8_hvt L=150000U W=1000000U AS=105000000000P
+ AD=260000000000P PS=1210000U PD=2520000U
* device instance $6 r0 *1 0.47,0.56 nfet_01v8
M$6 2 5 1 13 nfet_01v8 L=150000U W=650000U AS=169000000000P AD=87750000000P
+ PS=1820000U PD=920000U
* device instance $7 r0 *1 0.89,0.56 nfet_01v8
M$7 1 6 2 13 nfet_01v8 L=150000U W=650000U AS=87750000000P AD=282750000000P
+ PS=920000U PD=1520000U
* device instance $8 r0 *1 1.91,0.56 nfet_01v8
M$8 3 2 1 13 nfet_01v8 L=150000U W=650000U AS=282750000000P AD=87750000000P
+ PS=1520000U PD=920000U
* device instance $9 r0 *1 2.33,0.56 nfet_01v8
M$9 8 4 3 13 nfet_01v8 L=150000U W=650000U AS=87750000000P AD=87750000000P
+ PS=920000U PD=920000U
* device instance $10 r0 *1 2.75,0.56 nfet_01v8
M$10 1 7 8 13 nfet_01v8 L=150000U W=650000U AS=87750000000P AD=169000000000P
+ PS=920000U PD=1820000U
.ENDS sky130_fd_sc_hd__a2bb2oi_1

* cell sky130_fd_sc_hd__a211oi_4
* pin VGND
* pin A2
* pin A1
* pin Y
* pin B1
* pin C1
* pin VPWR
* pin VPB
* pin 
.SUBCKT sky130_fd_sc_hd__a211oi_4 1 2 4 5 6 7 8 9 14
* net 1 VGND
* net 2 A2
* net 4 A1
* net 5 Y
* net 6 B1
* net 7 C1
* net 8 VPWR
* net 9 VPB
* device instance $1 r0 *1 0.47,1.985 pfet_01v8_hvt
M$1 8 2 10 9 pfet_01v8_hvt L=150000U W=4000000U AS=665000000000P
+ AD=540000000000P PS=6330000U PD=5080000U
* device instance $4 r0 *1 1.73,1.985 pfet_01v8_hvt
M$4 10 4 8 9 pfet_01v8_hvt L=150000U W=4000000U AS=540000000000P
+ AD=540000000000P PS=5080000U PD=5080000U
* device instance $9 r0 *1 3.83,1.985 pfet_01v8_hvt
M$9 11 6 10 9 pfet_01v8_hvt L=150000U W=2000000U AS=270000000000P
+ AD=270000000000P PS=2540000U PD=2540000U
* device instance $11 r0 *1 4.67,1.985 pfet_01v8_hvt
M$11 13 6 10 9 pfet_01v8_hvt L=150000U W=1000000U AS=135000000000P
+ AD=150000000000P PS=1270000U PD=1300000U
* device instance $12 r0 *1 5.12,1.985 pfet_01v8_hvt
M$12 5 7 13 9 pfet_01v8_hvt L=150000U W=1000000U AS=150000000000P
+ AD=140000000000P PS=1300000U PD=1280000U
* device instance $13 r0 *1 5.55,1.985 pfet_01v8_hvt
M$13 11 7 5 9 pfet_01v8_hvt L=150000U W=2000000U AS=280000000000P
+ AD=290000000000P PS=2560000U PD=2580000U
* device instance $15 r0 *1 6.43,1.985 pfet_01v8_hvt
M$15 12 7 5 9 pfet_01v8_hvt L=150000U W=1000000U AS=150000000000P
+ AD=155000000000P PS=1300000U PD=1310000U
* device instance $16 r0 *1 6.89,1.985 pfet_01v8_hvt
M$16 10 6 12 9 pfet_01v8_hvt L=150000U W=1000000U AS=155000000000P
+ AD=260000000000P PS=1310000U PD=2520000U
* device instance $17 r0 *1 0.47,0.56 nfet_01v8
M$17 3 2 1 14 nfet_01v8 L=150000U W=2600000U AS=432250000000P AD=351000000000P
+ PS=4580000U PD=3680000U
* device instance $20 r0 *1 1.73,0.56 nfet_01v8
M$20 5 4 3 14 nfet_01v8 L=150000U W=2600000U AS=351000000000P AD=351000000000P
+ PS=3680000U PD=3680000U
* device instance $25 r0 *1 3.83,0.56 nfet_01v8
M$25 5 6 1 14 nfet_01v8 L=150000U W=2600000U AS=378625000000P AD=477750000000P
+ PS=3765000U PD=4720000U
* device instance $28 r0 *1 5.17,0.56 nfet_01v8
M$28 1 7 5 14 nfet_01v8 L=150000U W=2600000U AS=352625000000P AD=354250000000P
+ PS=3685000U PD=3690000U
.ENDS sky130_fd_sc_hd__a211oi_4

* cell sky130_fd_sc_hd__nor4b_4
* pin VGND
* pin Y
* pin A
* pin B
* pin C
* pin D_N
* pin VPWR
* pin VPB
* pin 
.SUBCKT sky130_fd_sc_hd__nor4b_4 1 3 4 6 7 8 9 12 13
* net 1 VGND
* net 3 Y
* net 4 A
* net 6 B
* net 7 C
* net 8 D_N
* net 9 VPWR
* net 12 VPB
* device instance $1 r0 *1 8.23,1.985 pfet_01v8_hvt
M$1 9 8 2 12 pfet_01v8_hvt L=150000U W=1000000U AS=260000000000P
+ AD=280000000000P PS=2520000U PD=2560000U
* device instance $2 r0 *1 4.35,1.985 pfet_01v8_hvt
M$2 10 7 11 12 pfet_01v8_hvt L=150000U W=4000000U AS=665000000000P
+ AD=540000000000P PS=6330000U PD=5080000U
* device instance $6 r0 *1 6.03,1.985 pfet_01v8_hvt
M$6 3 2 11 12 pfet_01v8_hvt L=150000U W=4000000U AS=540000000000P
+ AD=665000000000P PS=5080000U PD=6330000U
* device instance $10 r0 *1 0.47,1.985 pfet_01v8_hvt
M$10 9 4 5 12 pfet_01v8_hvt L=150000U W=4000000U AS=665000000000P
+ AD=540000000000P PS=6330000U PD=5080000U
* device instance $14 r0 *1 2.15,1.985 pfet_01v8_hvt
M$14 10 6 5 12 pfet_01v8_hvt L=150000U W=4000000U AS=540000000000P
+ AD=665000000000P PS=5080000U PD=6330000U
* device instance $18 r0 *1 8.23,0.56 nfet_01v8
M$18 1 8 2 13 nfet_01v8 L=150000U W=650000U AS=169000000000P AD=182000000000P
+ PS=1820000U PD=1860000U
* device instance $19 r0 *1 0.47,0.56 nfet_01v8
M$19 3 4 1 13 nfet_01v8 L=150000U W=2600000U AS=432250000000P AD=351000000000P
+ PS=4580000U PD=3680000U
* device instance $23 r0 *1 2.15,0.56 nfet_01v8
M$23 3 6 1 13 nfet_01v8 L=150000U W=2600000U AS=351000000000P AD=520000000000P
+ PS=3680000U PD=4200000U
* device instance $27 r0 *1 4.35,0.56 nfet_01v8
M$27 3 7 1 13 nfet_01v8 L=150000U W=2600000U AS=520000000000P AD=351000000000P
+ PS=4200000U PD=3680000U
* device instance $31 r0 *1 6.03,0.56 nfet_01v8
M$31 3 2 1 13 nfet_01v8 L=150000U W=2600000U AS=351000000000P AD=432250000000P
+ PS=3680000U PD=4580000U
.ENDS sky130_fd_sc_hd__nor4b_4

* cell sky130_fd_sc_hd__dlygate4sd3_1
* pin VPB
* pin A
* pin VPWR
* pin X
* pin VGND
* pin 
.SUBCKT sky130_fd_sc_hd__dlygate4sd3_1 1 3 5 7 8 9
* net 1 VPB
* net 3 A
* net 5 VPWR
* net 7 X
* net 8 VGND
* device instance $1 r0 *1 2.465,2.275 pfet_01v8_hvt
M$1 6 2 5 1 pfet_01v8_hvt L=500000U W=420000U AS=140750000000P AD=109200000000P
+ PS=1325000U PD=1360000U
* device instance $2 r0 *1 3.115,1.985 pfet_01v8_hvt
M$2 7 6 5 1 pfet_01v8_hvt L=150000U W=1000000U AS=140750000000P
+ AD=260000000000P PS=1325000U PD=2520000U
* device instance $3 r0 *1 0.58,2.275 pfet_01v8_hvt
M$3 5 3 4 1 pfet_01v8_hvt L=150000U W=420000U AS=109200000000P AD=56700000000P
+ PS=1360000U PD=690000U
* device instance $4 r0 *1 1.175,2.275 pfet_01v8_hvt
M$4 2 4 5 1 pfet_01v8_hvt L=500000U W=420000U AS=56700000000P AD=109200000000P
+ PS=690000U PD=1360000U
* device instance $5 r0 *1 2.465,0.445 nfet_01v8
M$5 8 2 6 9 nfet_01v8 L=500000U W=420000U AS=109200000000P AD=97000000000P
+ PS=1360000U PD=975000U
* device instance $6 r0 *1 3.115,0.56 nfet_01v8
M$6 7 6 8 9 nfet_01v8 L=150000U W=650000U AS=97000000000P AD=169000000000P
+ PS=975000U PD=1820000U
* device instance $7 r0 *1 0.58,0.445 nfet_01v8
M$7 8 3 4 9 nfet_01v8 L=150000U W=420000U AS=109200000000P AD=56700000000P
+ PS=1360000U PD=690000U
* device instance $8 r0 *1 1.175,0.445 nfet_01v8
M$8 2 4 8 9 nfet_01v8 L=500000U W=420000U AS=56700000000P AD=109200000000P
+ PS=690000U PD=1360000U
.ENDS sky130_fd_sc_hd__dlygate4sd3_1

* cell sky130_fd_sc_hd__buf_12
* pin VGND
* pin A
* pin X
* pin VPWR
* pin VPB
* pin 
.SUBCKT sky130_fd_sc_hd__buf_12 1 2 4 5 6 7
* net 1 VGND
* net 2 A
* net 4 X
* net 5 VPWR
* net 6 VPB
* device instance $1 r0 *1 0.47,1.985 pfet_01v8_hvt
M$1 3 2 5 6 pfet_01v8_hvt L=150000U W=4000000U AS=665000000000P
+ AD=540000000000P PS=6330000U PD=5080000U
* device instance $5 r0 *1 2.15,1.985 pfet_01v8_hvt
M$5 4 3 5 6 pfet_01v8_hvt L=150000U W=12000000U AS=1.62e+12P AD=1.865e+12P
+ PS=15240000U PD=16730000U
* device instance $17 r0 *1 0.47,0.56 nfet_01v8
M$17 3 2 1 7 nfet_01v8 L=150000U W=2600000U AS=432250000000P AD=351000000000P
+ PS=4580000U PD=3680000U
* device instance $21 r0 *1 2.15,0.56 nfet_01v8
M$21 4 3 1 7 nfet_01v8 L=150000U W=7800000U AS=1.053e+12P AD=1.21225e+12P
+ PS=11040000U PD=12180000U
.ENDS sky130_fd_sc_hd__buf_12

* cell sky130_fd_sc_hd__a311oi_1
* pin VPB
* pin A3
* pin A2
* pin B1
* pin A1
* pin C1
* pin VPWR
* pin Y
* pin VGND
* pin 
.SUBCKT sky130_fd_sc_hd__a311oi_1 1 2 3 4 5 6 7 9 10 11
* net 1 VPB
* net 2 A3
* net 3 A2
* net 4 B1
* net 5 A1
* net 6 C1
* net 7 VPWR
* net 9 Y
* net 10 VGND
* device instance $1 r0 *1 0.47,1.985 pfet_01v8_hvt
M$1 8 2 7 1 pfet_01v8_hvt L=150000U W=1000000U AS=260000000000P
+ AD=137500000000P PS=2520000U PD=1275000U
* device instance $2 r0 *1 0.895,1.985 pfet_01v8_hvt
M$2 7 3 8 1 pfet_01v8_hvt L=150000U W=1000000U AS=137500000000P
+ AD=140000000000P PS=1275000U PD=1280000U
* device instance $3 r0 *1 1.325,1.985 pfet_01v8_hvt
M$3 8 5 7 1 pfet_01v8_hvt L=150000U W=1000000U AS=140000000000P
+ AD=165000000000P PS=1280000U PD=1330000U
* device instance $4 r0 *1 1.805,1.985 pfet_01v8_hvt
M$4 12 4 8 1 pfet_01v8_hvt L=150000U W=1000000U AS=165000000000P
+ AD=172500000000P PS=1330000U PD=1345000U
* device instance $5 r0 *1 2.3,1.985 pfet_01v8_hvt
M$5 9 6 12 1 pfet_01v8_hvt L=150000U W=1000000U AS=172500000000P
+ AD=260000000000P PS=1345000U PD=2520000U
* device instance $6 r0 *1 0.47,0.56 nfet_01v8
M$6 14 2 10 11 nfet_01v8 L=150000U W=650000U AS=169000000000P AD=89375000000P
+ PS=1820000U PD=925000U
* device instance $7 r0 *1 0.895,0.56 nfet_01v8
M$7 13 3 14 11 nfet_01v8 L=150000U W=650000U AS=89375000000P AD=91000000000P
+ PS=925000U PD=930000U
* device instance $8 r0 *1 1.325,0.56 nfet_01v8
M$8 9 5 13 11 nfet_01v8 L=150000U W=650000U AS=91000000000P AD=115375000000P
+ PS=930000U PD=1005000U
* device instance $9 r0 *1 1.83,0.56 nfet_01v8
M$9 10 4 9 11 nfet_01v8 L=150000U W=650000U AS=115375000000P AD=112125000000P
+ PS=1005000U PD=995000U
* device instance $10 r0 *1 2.325,0.56 nfet_01v8
M$10 9 6 10 11 nfet_01v8 L=150000U W=650000U AS=112125000000P AD=169000000000P
+ PS=995000U PD=1820000U
.ENDS sky130_fd_sc_hd__a311oi_1

* cell sky130_fd_sc_hd__mux4_1
* pin VGND
* pin S0
* pin X
* pin A1
* pin A0
* pin A3
* pin A2
* pin S1
* pin VPWR
* pin VPB
* pin 
.SUBCKT sky130_fd_sc_hd__mux4_1 1 3 8 9 10 14 15 16 18 19 24
* net 1 VGND
* net 3 S0
* net 8 X
* net 9 A1
* net 10 A0
* net 14 A3
* net 15 A2
* net 16 S1
* net 18 VPWR
* net 19 VPB
* device instance $1 r0 *1 9.19,1.985 pfet_01v8_hvt
M$1 8 7 18 19 pfet_01v8_hvt L=150000U W=1000000U AS=260000000000P
+ AD=260000000000P PS=2520000U PD=2520000U
* device instance $2 r0 *1 7.8,2.04 pfet_01v8_hvt
M$2 13 6 7 19 pfet_01v8_hvt L=150000U W=420000U AS=92087500000P
+ AD=268800000000P PS=990000U PD=2120000U
* device instance $3 r0 *1 7.315,2.275 pfet_01v8_hvt
M$3 11 16 7 19 pfet_01v8_hvt L=150000U W=420000U AS=92087500000P
+ AD=109200000000P PS=990000U PD=1360000U
* device instance $4 r0 *1 4.12,2.025 pfet_01v8_hvt
M$4 13 3 22 19 pfet_01v8_hvt L=150000U W=420000U AS=107900000000P
+ AD=56700000000P PS=1360000U PD=690000U
* device instance $5 r0 *1 4.54,2.025 pfet_01v8_hvt
M$5 23 12 13 19 pfet_01v8_hvt L=150000U W=420000U AS=56700000000P
+ AD=90125000000P PS=690000U PD=995000U
* device instance $6 r0 *1 5.015,2.275 pfet_01v8_hvt
M$6 18 14 23 19 pfet_01v8_hvt L=150000U W=420000U AS=90125000000P
+ AD=56700000000P PS=995000U PD=690000U
* device instance $7 r0 *1 5.435,2.275 pfet_01v8_hvt
M$7 22 15 18 19 pfet_01v8_hvt L=150000U W=420000U AS=56700000000P
+ AD=109200000000P PS=690000U PD=1360000U
* device instance $8 r0 *1 6.375,2.275 pfet_01v8_hvt
M$8 6 16 18 19 pfet_01v8_hvt L=150000U W=420000U AS=109200000000P
+ AD=109200000000P PS=1360000U PD=1360000U
* device instance $9 r0 *1 1.83,2.025 pfet_01v8_hvt
M$9 11 12 20 19 pfet_01v8_hvt L=150000U W=420000U AS=109200000000P
+ AD=56700000000P PS=1360000U PD=690000U
* device instance $10 r0 *1 2.25,2.025 pfet_01v8_hvt
M$10 21 3 11 19 pfet_01v8_hvt L=150000U W=420000U AS=56700000000P
+ AD=107900000000P PS=690000U PD=1360000U
* device instance $11 r0 *1 0.47,2.275 pfet_01v8_hvt
M$11 18 9 20 19 pfet_01v8_hvt L=150000U W=420000U AS=109200000000P
+ AD=56700000000P PS=1360000U PD=690000U
* device instance $12 r0 *1 0.89,2.275 pfet_01v8_hvt
M$12 21 10 18 19 pfet_01v8_hvt L=150000U W=420000U AS=56700000000P
+ AD=109200000000P PS=690000U PD=1360000U
* device instance $13 r0 *1 3.19,2.275 pfet_01v8_hvt
M$13 18 3 12 19 pfet_01v8_hvt L=150000U W=420000U AS=108300000000P
+ AD=107900000000P PS=1360000U PD=1360000U
* device instance $14 r0 *1 3.675,0.695 nfet_01v8
M$14 13 3 4 24 nfet_01v8 L=150000U W=420000U AS=109200000000P AD=56700000000P
+ PS=1360000U PD=690000U
* device instance $15 r0 *1 4.095,0.695 nfet_01v8
M$15 5 12 13 24 nfet_01v8 L=150000U W=420000U AS=56700000000P AD=107950000000P
+ PS=690000U PD=1360000U
* device instance $16 r0 *1 9.19,0.56 nfet_01v8
M$16 8 7 1 24 nfet_01v8 L=150000U W=650000U AS=169000000000P AD=169000000000P
+ PS=1820000U PD=1820000U
* device instance $17 r0 *1 7.325,0.445 nfet_01v8
M$17 7 16 13 24 nfet_01v8 L=150000U W=420000U AS=109200000000P AD=151025000000P
+ PS=1360000U PD=1285000U
* device instance $18 r0 *1 8.09,0.695 nfet_01v8
M$18 11 6 7 24 nfet_01v8 L=150000U W=420000U AS=151025000000P AD=109200000000P
+ PS=1285000U PD=1360000U
* device instance $19 r0 *1 0.47,0.445 nfet_01v8
M$19 1 9 2 24 nfet_01v8 L=150000U W=420000U AS=109200000000P AD=56700000000P
+ PS=1360000U PD=690000U
* device instance $20 r0 *1 0.89,0.445 nfet_01v8
M$20 17 10 1 24 nfet_01v8 L=150000U W=420000U AS=56700000000P AD=56700000000P
+ PS=690000U PD=690000U
* device instance $21 r0 *1 1.31,0.445 nfet_01v8
M$21 11 12 17 24 nfet_01v8 L=150000U W=420000U AS=56700000000P AD=85225000000P
+ PS=690000U PD=925000U
* device instance $22 r0 *1 1.795,0.615 nfet_01v8
M$22 2 3 11 24 nfet_01v8 L=150000U W=420000U AS=85225000000P AD=109200000000P
+ PS=925000U PD=1360000U
* device instance $23 r0 *1 5.025,0.445 nfet_01v8