
* cell skid_buffer
* pin m_data[7]
* pin m_data[5]
* pin m_valid
* pin m_ready
* pin s_data[5]
* pin s_data[7]
* pin s_valid
* pin m_data[2]
* pin s_data[2]
* pin s_ready
* pin clk
* pin m_data[3]
* pin s_data[3]
* pin m_data[6]
* pin m_data[0]
* pin s_data[0]
* pin m_data[1]
* pin s_data[4]
* pin s_data[1]
* pin s_data[6]
* pin m_data[4]
* pin rst_n
.SUBCKT skid_buffer 7 11 22 28 29 36 41 49 50 54 59 72 80 82 83 93 101 106 109
+ 110 114 115
* net 7 m_data[7]
* net 11 m_data[5]
* net 22 m_valid
* net 28 m_ready
* net 29 s_data[5]
* net 36 s_data[7]
* net 41 s_valid
* net 49 m_data[2]
* net 50 s_data[2]
* net 54 s_ready
* net 59 clk
* net 72 m_data[3]
* net 80 s_data[3]
* net 82 m_data[6]
* net 83 m_data[0]
* net 93 s_data[0]
* net 101 m_data[1]
* net 106 s_data[4]
* net 109 s_data[1]
* net 110 s_data[6]
* net 114 m_data[4]
* net 115 rst_n
* cell instance $197 r0 *1 2.3,214.88
X$197 1 97 114 2 1 2 sky130_fd_sc_hd__clkbuf_1
* cell instance $328 r0 *1 358.8,214.88
X$328 2 119 18 1 1 2 sky130_fd_sc_hd__buf_6
* cell instance $331 r0 *1 367.08,214.88
X$331 2 122 56 116 43 1 1 2 sky130_fd_sc_hd__mux2_1
* cell instance $332 r0 *1 371.22,214.88
X$332 1 96 120 113 89 2 107 1 2 sky130_fd_sc_hd__a211oi_1
* cell instance $334 r0 *1 374.44,214.88
X$334 2 18 108 76 112 1 1 2 sky130_fd_sc_hd__dfrtp_1
* cell instance $335 r0 *1 383.64,214.88
X$335 2 34 76 1 1 2 sky130_fd_sc_hd__clkbuf_16
* cell instance $336 r0 *1 392.84,214.88
X$336 2 121 102 118 43 1 1 2 sky130_fd_sc_hd__mux2_1
* cell instance $337 r0 *1 396.98,214.88
X$337 1 3 102 111 39 117 2 1 2 sky130_fd_sc_hd__o22ai_1
* cell instance $339 r0 *1 399.74,214.88
X$339 1 111 27 15 2 1 104 2 sky130_fd_sc_hd__a21oi_1
* cell instance $341 r0 *1 402.04,214.88
X$341 1 93 74 2 1 2 sky130_fd_sc_hd__clkbuf_1
* cell instance $413 m0 *1 179.86,220.32
X$413 1 115 1 119 2 2 sky130_fd_sc_hd__dlygate4sd3_1
* cell instance $486 m0 *1 362.48,220.32
X$486 2 18 116 76 122 1 1 2 sky130_fd_sc_hd__dfrtp_1
* cell instance $491 m0 *1 380.88,220.32
X$491 1 76 123 2 1 2 sky130_fd_sc_hd__clkbuf_1
* cell instance $495 m0 *1 388.24,220.32
X$495 2 18 118 76 121 1 1 2 sky130_fd_sc_hd__dfrtp_1
* cell instance $497 m0 *1 401.12,220.32
X$497 1 111 101 2 1 2 sky130_fd_sc_hd__clkbuf_1
* cell instance $498 m0 *1 402.5,220.32
X$498 1 109 102 2 1 2 sky130_fd_sc_hd__clkbuf_1
* cell instance $529 r0 *1 5.98,204
X$529 2 80 65 1 1 2 sky130_fd_sc_hd__clkbuf_8
* cell instance $530 r0 *1 11.04,204
X$530 1 63 72 2 1 2 sky130_fd_sc_hd__clkbuf_1
* cell instance $659 r0 *1 363.4,204
X$659 2 18 63 76 79 1 1 2 sky130_fd_sc_hd__dfrtp_4
* cell instance $661 r0 *1 374.44,204
X$661 1 70 71 77 78 2 79 1 2 sky130_fd_sc_hd__a211oi_1
* cell instance $662 r0 *1 377.2,204
X$662 1 63 27 15 2 1 78 2 sky130_fd_sc_hd__a21oi_1
* cell instance $663 r0 *1 379.04,204
X$663 2 59 34 1 1 2 sky130_fd_sc_hd__clkbuf_16
* cell instance $664 r0 *1 388.24,204
X$664 2 18 75 76 87 1 1 2 sky130_fd_sc_hd__dfrtp_1
* cell instance $665 r0 *1 397.44,204
X$665 1 3 74 73 39 84 2 1 2 sky130_fd_sc_hd__o22ai_1
* cell instance $669 r0 *1 402.5,204
X$669 1 73 83 2 1 2 sky130_fd_sc_hd__clkbuf_1
* cell instance $843 m0 *1 375.82,209.44
X$843 1 97 27 15 2 1 89 2 sky130_fd_sc_hd__a21oi_1
* cell instance $844 m0 *1 377.66,209.44
X$844 1 3 90 75 35 81 2 1 2 sky130_fd_sc_hd__o22ai_1
* cell instance $845 m0 *1 379.96,209.44
X$845 1 94 81 88 95 2 87 1 2 sky130_fd_sc_hd__a211oi_1
* cell instance $856 m0 *1 391.46,209.44
X$856 1 75 82 2 1 2 sky130_fd_sc_hd__clkbuf_1
* cell instance $857 m0 *1 392.84,209.44
X$857 1 74 25 19 1 85 2 2 sky130_fd_sc_hd__o21ai_0
* cell instance $858 m0 *1 394.68,209.44
X$858 2 18 73 76 86 1 1 2 sky130_fd_sc_hd__dfrtp_1
* cell instance $1487 m0 *1 390.08,182.24
X$1487 1 9 11 2 1 2 sky130_fd_sc_hd__clkbuf_1
* cell instance $18193 r0 *1 364.32,198.56
X$18193 2 18 64 10 62 1 1 2 sky130_fd_sc_hd__dfrtp_1
* cell instance $18196 r0 *1 374.44,198.56
X$18196 1 39 64 13 77 2 1 2 sky130_fd_sc_hd__nor3_1
* cell instance $18200 r0 *1 381.34,198.56
X$18200 2 18 57 10 61 1 1 2 sky130_fd_sc_hd__dfrtp_1
* cell instance $18201 r0 *1 390.54,198.56
X$18201 1 39 57 13 69 2 1 2 sky130_fd_sc_hd__nor3_1
* cell instance $18202 r0 *1 392.38,198.56
X$18202 2 18 55 10 60 1 1 2 sky130_fd_sc_hd__dfrtp_1
* cell instance $18204 r0 *1 402.04,198.56
X$18204 1 28 1 2 21 2 sky130_fd_sc_hd__clkbuf_2
* cell instance $18377 m0 *1 369.38,204
X$18377 2 62 65 64 43 1 1 2 sky130_fd_sc_hd__mux2_1
* cell instance $18378 m0 *1 373.52,204
X$18378 1 65 25 19 1 70 2 2 sky130_fd_sc_hd__o21ai_0
* cell instance $18379 m0 *1 375.36,204
X$18379 1 3 65 63 35 71 2 1 2 sky130_fd_sc_hd__o22ai_1
* cell instance $18385 m0 *1 382.26,204
X$18385 1 35 1 2 39 2 sky130_fd_sc_hd__buf_4
* cell instance $18389 m0 *1 388.24,204
X$18389 2 61 66 57 43 1 1 2 sky130_fd_sc_hd__mux2_1
* cell instance $18391 m0 *1 392.84,204
X$18391 1 67 68 69 58 2 60 1 2 sky130_fd_sc_hd__a211oi_1
* cell instance $18392 m0 *1 395.6,204
X$18392 1 3 66 55 35 68 2 1 2 sky130_fd_sc_hd__o22ai_1
* cell instance $18393 m0 *1 397.9,204
X$18393 1 66 25 19 1 67 2 2 sky130_fd_sc_hd__o21ai_0
* cell instance $18394 m0 *1 399.74,204
X$18394 1 50 66 2 1 2 sky130_fd_sc_hd__clkbuf_1
* cell instance $18395 m0 *1 401.12,204
X$18395 1 55 49 2 1 2 sky130_fd_sc_hd__clkbuf_1
* cell instance $18396 m0 *1 402.5,204
X$18396 1 12 54 2 1 2 sky130_fd_sc_hd__clkbuf_1
* cell instance $18530 r0 *1 369.38,193.12
X$18530 2 37 16 38 43 1 1 2 sky130_fd_sc_hd__mux2_1
* cell instance $18534 r0 *1 374.9,193.12
X$18534 1 39 38 13 33 2 1 2 sky130_fd_sc_hd__nor3_1
* cell instance $18537 r0 *1 378.12,193.12
X$18537 1 3 16 9 35 53 2 1 2 sky130_fd_sc_hd__o22ai_1
* cell instance $18540 r0 *1 381.8,193.12
X$18540 1 26 25 19 1 44 2 2 sky130_fd_sc_hd__o21ai_0
* cell instance $18542 r0 *1 384.1,193.12
X$18542 1 44 45 40 52 2 20 1 2 sky130_fd_sc_hd__a211oi_1
* cell instance $18544 r0 *1 387.32,193.12
X$18544 2 19 13 21 1 1 2 sky130_fd_sc_hd__nand2_4
* cell instance $18546 r0 *1 391.92,193.12
X$18546 1 23 14 19 1 51 2 2 sky130_fd_sc_hd__o21ai_0
* cell instance $18547 r0 *1 393.76,193.12
X$18547 1 14 1 2 35 2 sky130_fd_sc_hd__clkinvlp_4
* cell instance $18548 r0 *1 396.52,193.12
X$18548 1 30 14 48 2 1 2 sky130_fd_sc_hd__nand2b_1
* cell instance $18549 r0 *1 398.82,193.12
X$18549 1 30 14 42 2 1 2 sky130_fd_sc_hd__or2_0
* cell instance $18552 r0 *1 402.04,193.12
X$18552 1 42 2 15 1 2 sky130_fd_sc_hd__buf_2
* cell instance $18725 m0 *1 369.38,198.56
X$18725 2 18 47 10 46 1 1 2 sky130_fd_sc_hd__dfrtp_1
* cell instance $18726 m0 *1 378.58,198.56
X$18726 2 46 26 47 43 1 1 2 sky130_fd_sc_hd__mux2_1
* cell instance $18730 m0 *1 382.72,198.56
X$18730 1 39 47 13 40 2 1 2 sky130_fd_sc_hd__nor3_1
* cell instance $18735 m0 *1 388.24,198.56
X$18735 2 48 43 27 1 1 2 sky130_fd_sc_hd__nor2_4
* cell instance $18736 m0 *1 392.38,198.56
X$18736 2 48 3 1 1 2 sky130_fd_sc_hd__buf_6
* cell instance $18737 m0 *1 396.52,198.56
X$18737 1 55 27 15 2 1 58 2 sky130_fd_sc_hd__a21oi_1
* cell instance $18739 m0 *1 399.28,198.56
X$18739 2 30 41 1 1 2 sky130_fd_sc_hd__dlymetal6s2s_1
* cell instance $19023 m0 *1 374.44,187.68
X$19023 2 18 9 10 32 1 1 2 sky130_fd_sc_hd__dfrtp_1
* cell instance $19028 m0 *1 383.64,187.68
X$19028 1 9 27 15 2 1 17 2 sky130_fd_sc_hd__a21oi_1
* cell instance $19036 m0 *1 389.62,187.68
X$19036 1 29 16 2 1 2 sky130_fd_sc_hd__clkbuf_1
* cell instance $19039 m0 *1 391.92,187.68
X$19039 1 14 13 12 1 2 2 sky130_fd_sc_hd__nand2_1
* cell instance $19041 r0 *1 392.38,182.24
X$19041 1 3 51 8 1 2 2 sky130_fd_sc_hd__nand2_1
* cell instance $19043 r0 *1 393.76,182.24
X$19043 1 4 7 2 1 2 sky130_fd_sc_hd__clkbuf_1
* cell instance $19044 m0 *1 393.76,187.68
X$19044 2 18 5 10 8 1 1 2 sky130_fd_sc_hd__dfrtp_1
* cell instance $19048 r0 *1 398.36,182.24
X$19048 1 5 21 6 2 1 2 sky130_fd_sc_hd__nand2b_1
* cell instance $19051 r0 *1 402.04,182.24
X$19051 1 5 22 2 1 2 sky130_fd_sc_hd__clkbuf_1
* cell instance $19358 m0 *1 363.86,193.12
X$19358 2 18 38 10 37 1 1 2 sky130_fd_sc_hd__dfrtp_1
* cell instance $19363 r0 *1 372.14,187.68
X$19363 1 16 25 19 1 31 2 2 sky130_fd_sc_hd__o21ai_0
* cell instance $19366 m0 *1 373.98,193.12
X$19366 1 31 53 33 17 2 32 1 2 sky130_fd_sc_hd__a211oi_1
* cell instance $19370 r0 *1 376.74,187.68
X$19370 2 18 4 10 20 1 1 2 sky130_fd_sc_hd__dfrtp_1
* cell instance $19372 m0 *1 378.12,193.12
X$19372 2 34 10 1 1 2 sky130_fd_sc_hd__clkbuf_16
* cell instance $19374 r0 *1 385.94,187.68
X$19374 2 18 14 10 24 1 1 2 sky130_fd_sc_hd__dfrtp_2
* cell instance $19377 m0 *1 388.24,193.12
X$19377 1 3 26 4 35 45 2 1 2 sky130_fd_sc_hd__o22ai_1
* cell instance $19378 m0 *1 390.54,193.12
X$19378 1 4 27 15 2 1 52 2 sky130_fd_sc_hd__a21oi_1
* cell instance $19379 m0 *1 392.38,193.12
X$19379 1 27 3 12 1 24 2 2 sky130_fd_sc_hd__o21ai_0
* cell instance $19380 m0 *1 394.22,193.12
X$19380 1 36 26 2 1 2 sky130_fd_sc_hd__clkbuf_1
* cell instance $19381 m0 *1 395.6,193.12
X$19381 2 30 14 25 21 1 1 2 sky130_fd_sc_hd__nand3b_4
* cell instance $19382 r0 *1 395.6,187.68
X$19382 1 5 2 19 1 2 sky130_fd_sc_hd__buf_2
* cell instance $19383 r0 *1 397.44,187.68
X$19383 2 6 27 1 1 2 sky130_fd_sc_hd__buf_6
* cell instance $19385 r0 *1 402.04,187.68
X$19385 1 21 1 2 23 2 sky130_fd_sc_hd__inv_1
* cell instance $21577 r0 *1 372.14,209.44
X$21577 1 56 25 19 1 96 2 2 sky130_fd_sc_hd__o21ai_0
* cell instance $21579 r0 *1 374.44,209.44
X$21579 1 3 56 97 35 120 2 1 2 sky130_fd_sc_hd__o22ai_1
* cell instance $21583 r0 *1 379.04,209.44
X$21583 1 90 25 19 1 94 2 2 sky130_fd_sc_hd__o21ai_0
* cell instance $21584 r0 *1 380.88,209.44
X$21584 1 75 27 15 2 1 95 2 sky130_fd_sc_hd__a21oi_1
* cell instance $21586 r0 *1 383.64,209.44
X$21586 2 18 92 76 105 1 1 2 sky130_fd_sc_hd__dfrtp_1
* cell instance $21589 r0 *1 394.22,209.44
X$21589 1 85 84 91 100 2 86 1 2 sky130_fd_sc_hd__a211oi_1
* cell instance $21590 r0 *1 396.98,209.44
X$21590 1 99 117 98 104 2 103 1 2 sky130_fd_sc_hd__a211oi_1
* cell instance $21591 r0 *1 399.74,209.44
X$21591 1 39 92 13 91 2 1 2 sky130_fd_sc_hd__nor3_1
* cell instance $21593 r0 *1 402.04,209.44
X$21593 1 102 25 19 1 99 2 2 sky130_fd_sc_hd__o21ai_0
* cell instance $21594 m0 *1 1.38,214.88
X$21594 2 106 56 1 1 2 sky130_fd_sc_hd__clkbuf_8
* cell instance $21598 m0 *1 11.5,214.88
X$21598 2 110 90 1 1 2 sky130_fd_sc_hd__clkbuf_8
* cell instance $21766 m0 *1 362.94,214.88
X$21766 2 18 97 76 107 1 1 2 sky130_fd_sc_hd__dfrtp_4
* cell instance $21767 m0 *1 373.52,214.88
X$21767 1 39 116 13 113 2 1 2 sky130_fd_sc_hd__nor3_1
* cell instance $21769 m0 *1 376.28,214.88
X$21769 2 112 90 108 43 1 1 2 sky130_fd_sc_hd__mux2_1
* cell instance $21770 m0 *1 380.42,214.88
X$21770 1 39 108 13 88 2 1 2 sky130_fd_sc_hd__nor3_1
* cell instance $21775 m0 *1 385.94,214.88
X$21775 1 39 118 13 98 2 1 2 sky130_fd_sc_hd__nor3_1
* cell instance $21777 m0 *1 388.24,214.88
X$21777 2 105 74 92 43 1 1 2 sky130_fd_sc_hd__mux2_1
* cell instance $21778 m0 *1 392.38,214.88
X$21778 2 18 111 76 103 1 1 2 sky130_fd_sc_hd__dfrtp_1
* cell instance $21779 m0 *1 401.58,214.88
X$21779 1 73 27 15 2 1 100 2 sky130_fd_sc_hd__a21oi_1
.ENDS skid_buffer

* cell sky130_fd_sc_hd__dfrtp_2
* pin VGND
* pin RESET_B
* pin Q
* pin CLK
* pin D
* pin VPWR
* pin VPB
* pin 
.SUBCKT sky130_fd_sc_hd__dfrtp_2 1 6 9 14 15 17 18 21
* net 1 VGND
* net 6 RESET_B
* net 9 Q
* net 14 CLK
* net 15 D
* net 17 VPWR
* net 18 VPB
* device instance $1 r0 *1 8.73,1.985 pfet_01v8_hvt
M$1 9 8 17 18 pfet_01v8_hvt L=150000U W=2000000U AS=436200000000P
+ AD=395000000000P PS=3930000U PD=3790000U
* device instance $3 r0 *1 5.35,2.065 pfet_01v8_hvt
M$3 16 5 17 18 pfet_01v8_hvt L=150000U W=840000U AS=218400000000P
+ AD=129150000000P PS=2200000U PD=1185000U
* device instance $4 r0 *1 5.845,2.275 pfet_01v8_hvt
M$4 7 2 16 18 pfet_01v8_hvt L=150000U W=420000U AS=129150000000P
+ AD=58800000000P PS=1185000U PD=700000U
* device instance $5 r0 *1 6.275,2.275 pfet_01v8_hvt
M$5 20 3 7 18 pfet_01v8_hvt L=150000U W=420000U AS=58800000000P AD=56700000000P
+ PS=700000U PD=690000U
* device instance $6 r0 *1 6.695,2.275 pfet_01v8_hvt
M$6 17 8 20 18 pfet_01v8_hvt L=150000U W=420000U AS=56700000000P
+ AD=81900000000P PS=690000U PD=810000U
* device instance $7 r0 *1 7.235,2.275 pfet_01v8_hvt
M$7 8 6 17 18 pfet_01v8_hvt L=150000U W=420000U AS=81900000000P AD=56700000000P
+ PS=810000U PD=690000U
* device instance $8 r0 *1 7.655,2.275 pfet_01v8_hvt
M$8 17 7 8 18 pfet_01v8_hvt L=150000U W=420000U AS=56700000000P
+ AD=113400000000P PS=690000U PD=1380000U
* device instance $9 r0 *1 2.225,2.275 pfet_01v8_hvt
M$9 4 15 17 18 pfet_01v8_hvt L=150000U W=420000U AS=109200000000P
+ AD=65100000000P PS=1360000U PD=730000U
* device instance $10 r0 *1 2.685,2.275 pfet_01v8_hvt
M$10 5 3 4 18 pfet_01v8_hvt L=150000U W=420000U AS=65100000000P AD=72450000000P
+ PS=730000U PD=765000U
* device instance $11 r0 *1 3.18,2.275 pfet_01v8_hvt
M$11 19 2 5 18 pfet_01v8_hvt L=150000U W=420000U AS=72450000000P
+ AD=115500000000P PS=765000U PD=970000U
* device instance $12 r0 *1 3.88,2.275 pfet_01v8_hvt
M$12 17 16 19 18 pfet_01v8_hvt L=150000U W=420000U AS=115500000000P
+ AD=70350000000P PS=970000U PD=755000U
* device instance $13 r0 *1 4.365,2.275 pfet_01v8_hvt
M$13 19 6 17 18 pfet_01v8_hvt L=150000U W=420000U AS=70350000000P
+ AD=109200000000P PS=755000U PD=1360000U
* device instance $14 r0 *1 0.47,2.135 pfet_01v8_hvt
M$14 17 14 2 18 pfet_01v8_hvt L=150000U W=640000U AS=166400000000P
+ AD=86400000000P PS=1800000U PD=910000U
* device instance $15 r0 *1 0.89,2.135 pfet_01v8_hvt
M$15 3 2 17 18 pfet_01v8_hvt L=150000U W=640000U AS=86400000000P
+ AD=166400000000P PS=910000U PD=1800000U
* device instance $16 r0 *1 8.73,0.56 nfet_01v8
M$16 9 8 1 21 nfet_01v8 L=150000U W=1300000U AS=296450000000P AD=256750000000P
+ PS=2940000U PD=2740000U
* device instance $18 r0 *1 0.47,0.445 nfet_01v8
M$18 1 14 2 21 nfet_01v8 L=150000U W=420000U AS=109200000000P AD=56700000000P
+ PS=1360000U PD=690000U
* device instance $19 r0 *1 0.89,0.445 nfet_01v8
M$19 3 2 1 21 nfet_01v8 L=150000U W=420000U AS=56700000000P AD=109200000000P
+ PS=690000U PD=1360000U
* device instance $20 r0 *1 2.64,0.415 nfet_01v8
M$20 5 2 4 21 nfet_01v8 L=150000U W=360000U AS=66000000000P AD=59400000000P
+ PS=745000U PD=690000U
* device instance $21 r0 *1 3.12,0.415 nfet_01v8
M$21 11 3 5 21 nfet_01v8 L=150000U W=360000U AS=59400000000P AD=140100000000P
+ PS=690000U PD=1100000U
* device instance $22 r0 *1 5.465,0.415 nfet_01v8
M$22 7 3 16 21 nfet_01v8 L=150000U W=360000U AS=99900000000P AD=71100000000P
+ PS=985000U PD=755000U
* device instance $23 r0 *1 6.01,0.415 nfet_01v8
M$23 12 2 7 21 nfet_01v8 L=150000U W=360000U AS=71100000000P AD=66900000000P
+ PS=755000U PD=750000U
* device instance $24 r0 *1 2.165,0.445 nfet_01v8
M$24 4 15 1 21 nfet_01v8 L=150000U W=420000U AS=220500000000P AD=66000000000P
+ PS=1890000U PD=745000U
* device instance $25 r0 *1 3.95,0.445 nfet_01v8
M$25 13 16 11 21 nfet_01v8 L=150000U W=420000U AS=140100000000P AD=44100000000P
+ PS=1100000U PD=630000U
* device instance $26 r0 *1 4.31,0.445 nfet_01v8
M$26 1 6 13 21 nfet_01v8 L=150000U W=420000U AS=44100000000P AD=134600000000P
+ PS=630000U PD=1150000U
* device instance $27 r0 *1 6.49,0.445 nfet_01v8
M$27 1 8 12 21 nfet_01v8 L=150000U W=420000U AS=66900000000P AD=124950000000P
+ PS=750000U PD=1015000U
* device instance $28 r0 *1 7.235,0.445 nfet_01v8
M$28 10 6 1 21 nfet_01v8 L=150000U W=420000U AS=124950000000P AD=64050000000P
+ PS=1015000U PD=725000U
* device instance $29 r0 *1 7.69,0.445 nfet_01v8
M$29 8 7 10 21 nfet_01v8 L=150000U W=420000U AS=64050000000P AD=109200000000P
+ PS=725000U PD=1360000U
* device instance $30 r0 *1 4.97,0.555 nfet_01v8
M$30 16 5 1 21 nfet_01v8 L=150000U W=640000U AS=134600000000P AD=99900000000P
+ PS=1150000U PD=985000U
.ENDS sky130_fd_sc_hd__dfrtp_2

* cell sky130_fd_sc_hd__dlymetal6s2s_1
* pin VGND
* pin X
* pin A
* pin VPWR
* pin VPB
* pin 
.SUBCKT sky130_fd_sc_hd__dlymetal6s2s_1 1 3 8 9 10 11
* net 1 VGND
* net 3 X
* net 8 A
* net 9 VPWR
* net 10 VPB
* device instance $1 r0 *1 3.655,2.275 pfet_01v8_hvt
M$1 6 5 9 10 pfet_01v8_hvt L=150000U W=420000U AS=140750000000P
+ AD=109200000000P PS=1325000U PD=1360000U
* device instance $2 r0 *1 4.13,1.985 pfet_01v8_hvt
M$2 7 6 9 10 pfet_01v8_hvt L=150000U W=1000000U AS=140750000000P
+ AD=260000000000P PS=1325000U PD=2520000U
* device instance $3 r0 *1 2.24,2.275 pfet_01v8_hvt
M$3 4 3 9 10 pfet_01v8_hvt L=150000U W=420000U AS=140750000000P
+ AD=109200000000P PS=1325000U PD=1360000U
* device instance $4 r0 *1 2.715,1.985 pfet_01v8_hvt
M$4 5 4 9 10 pfet_01v8_hvt L=150000U W=1000000U AS=140750000000P
+ AD=260000000000P PS=1325000U PD=2520000U
* device instance $5 r0 *1 0.645,2.275 pfet_01v8_hvt
M$5 2 8 9 10 pfet_01v8_hvt L=150000U W=420000U AS=140750000000P
+ AD=109200000000P PS=1325000U PD=1360000U
* device instance $6 r0 *1 1.12,1.985 pfet_01v8_hvt
M$6 3 2 9 10 pfet_01v8_hvt L=150000U W=1000000U AS=140750000000P
+ AD=260000000000P PS=1325000U PD=2520000U
* device instance $7 r0 *1 3.655,0.445 nfet_01v8
M$7 1 5 6 11 nfet_01v8 L=150000U W=420000U AS=109200000000P AD=97000000000P
+ PS=1360000U PD=975000U
* device instance $8 r0 *1 4.13,0.56 nfet_01v8
M$8 7 6 1 11 nfet_01v8 L=150000U W=650000U AS=97000000000P AD=169000000000P
+ PS=975000U PD=1820000U
* device instance $9 r0 *1 0.645,0.445 nfet_01v8
M$9 1 8 2 11 nfet_01v8 L=150000U W=420000U AS=109200000000P AD=97000000000P
+ PS=1360000U PD=975000U
* device instance $10 r0 *1 1.12,0.56 nfet_01v8
M$10 3 2 1 11 nfet_01v8 L=150000U W=650000U AS=97000000000P AD=169000000000P
+ PS=975000U PD=1820000U
* device instance $11 r0 *1 2.24,0.445 nfet_01v8
M$11 1 3 4 11 nfet_01v8 L=150000U W=420000U AS=109200000000P AD=97000000000P
+ PS=1360000U PD=975000U
* device instance $12 r0 *1 2.715,0.56 nfet_01v8
M$12 5 4 1 11 nfet_01v8 L=150000U W=650000U AS=97000000000P AD=169000000000P
+ PS=975000U PD=1820000U
.ENDS sky130_fd_sc_hd__dlymetal6s2s_1

* cell sky130_fd_sc_hd__clkbuf_2
* pin VPB
* pin A
* pin VPWR
* pin VGND
* pin X
* pin 
.SUBCKT sky130_fd_sc_hd__clkbuf_2 1 2 3 4 6 7
* net 1 VPB
* net 2 A
* net 3 VPWR
* net 4 VGND
* net 6 X
* device instance $1 r0 *1 0.475,1.985 pfet_01v8_hvt
M$1 3 2 5 1 pfet_01v8_hvt L=150000U W=1000000U AS=265000000000P
+ AD=162500000000P PS=2530000U PD=1325000U
* device instance $2 r0 *1 0.95,1.985 pfet_01v8_hvt
M$2 6 5 3 1 pfet_01v8_hvt L=150000U W=2000000U AS=297500000000P
+ AD=395000000000P PS=2595000U PD=3790000U
* device instance $4 r0 *1 0.475,0.445 nfet_01v8
M$4 4 2 5 7 nfet_01v8 L=150000U W=420000U AS=111300000000P AD=68250000000P
+ PS=1370000U PD=745000U
* device instance $5 r0 *1 0.95,0.445 nfet_01v8
M$5 6 5 4 7 nfet_01v8 L=150000U W=840000U AS=124950000000P AD=165900000000P
+ PS=1435000U PD=2050000U
.ENDS sky130_fd_sc_hd__clkbuf_2

* cell sky130_fd_sc_hd__inv_1
* pin VPB
* pin A
* pin VPWR
* pin VGND
* pin Y
* pin 
.SUBCKT sky130_fd_sc_hd__inv_1 1 2 3 4 5 6
* net 1 VPB
* net 2 A
* net 3 VPWR
* net 4 VGND
* net 5 Y
* device instance $1 r0 *1 0.675,1.985 pfet_01v8_hvt
M$1 5 2 3 1 pfet_01v8_hvt L=150000U W=1000000U AS=260000000000P
+ AD=260000000000P PS=2520000U PD=2520000U
* device instance $2 r0 *1 0.675,0.56 nfet_01v8
M$2 5 2 4 6 nfet_01v8 L=150000U W=650000U AS=169000000000P AD=169000000000P
+ PS=1820000U PD=1820000U
.ENDS sky130_fd_sc_hd__inv_1

* cell sky130_fd_sc_hd__nor2_4
* pin VGND
* pin B
* pin Y
* pin A
* pin VPWR
* pin VPB
* pin 
.SUBCKT sky130_fd_sc_hd__nor2_4 1 2 3 4 6 7 8
* net 1 VGND
* net 2 B
* net 3 Y
* net 4 A
* net 6 VPWR
* net 7 VPB
* device instance $1 r0 *1 0.49,1.985 pfet_01v8_hvt
M$1 6 4 5 7 pfet_01v8_hvt L=150000U W=4000000U AS=685000000000P
+ AD=540000000000P PS=6370000U PD=5080000U
* device instance $5 r0 *1 2.17,1.985 pfet_01v8_hvt
M$5 3 2 5 7 pfet_01v8_hvt L=150000U W=4000000U AS=540000000000P
+ AD=675000000000P PS=5080000U PD=6350000U
* device instance $9 r0 *1 0.49,0.56 nfet_01v8
M$9 3 4 1 8 nfet_01v8 L=150000U W=2600000U AS=445250000000P AD=351000000000P
+ PS=4620000U PD=3680000U
* device instance $13 r0 *1 2.17,0.56 nfet_01v8
M$13 3 2 1 8 nfet_01v8 L=150000U W=2600000U AS=351000000000P AD=432250000000P
+ PS=3680000U PD=4580000U
.ENDS sky130_fd_sc_hd__nor2_4

* cell sky130_fd_sc_hd__or2_0
* pin VPB
* pin B
* pin A
* pin X
* pin VGND
* pin VPWR
* pin 
.SUBCKT sky130_fd_sc_hd__or2_0 1 2 3 4 6 7 8
* net 1 VPB
* net 2 B
* net 3 A
* net 4 X
* net 6 VGND
* net 7 VPWR
* device instance $1 r0 *1 0.675,1.985 pfet_01v8_hvt
M$1 9 2 5 1 pfet_01v8_hvt L=150000U W=420000U AS=109200000000P AD=44100000000P
+ PS=1360000U PD=630000U
* device instance $2 r0 *1 1.035,1.985 pfet_01v8_hvt
M$2 7 3 9 1 pfet_01v8_hvt L=150000U W=420000U AS=44100000000P AD=98950000000P
+ PS=630000U PD=975000U
* device instance $3 r0 *1 1.52,2.095 pfet_01v8_hvt
M$3 4 5 7 1 pfet_01v8_hvt L=150000U W=640000U AS=98950000000P AD=217600000000P
+ PS=975000U PD=1960000U
* device instance $4 r0 *1 0.615,0.675 nfet_01v8
M$4 5 2 6 8 nfet_01v8 L=150000U W=420000U AS=109200000000P AD=56700000000P
+ PS=1360000U PD=690000U
* device instance $5 r0 *1 1.035,0.675 nfet_01v8
M$5 6 3 5 8 nfet_01v8 L=150000U W=420000U AS=56700000000P AD=70350000000P
+ PS=690000U PD=755000U
* device instance $6 r0 *1 1.52,0.675 nfet_01v8
M$6 4 5 6 8 nfet_01v8 L=150000U W=420000U AS=70350000000P AD=109200000000P
+ PS=755000U PD=1360000U
.ENDS sky130_fd_sc_hd__or2_0

* cell sky130_fd_sc_hd__nand3b_4
* pin VGND
* pin B
* pin A_N
* pin Y
* pin C
* pin VPWR
* pin VPB
* pin 
.SUBCKT sky130_fd_sc_hd__nand3b_4 1 2 4 6 8 9 10 11
* net 1 VGND
* net 2 B
* net 4 A_N
* net 6 Y
* net 8 C
* net 9 VPWR
* net 10 VPB
* device instance $1 r0 *1 5.29,1.985 pfet_01v8_hvt
M$1 6 8 9 10 pfet_01v8_hvt L=150000U W=4000000U AS=665000000000P
+ AD=765000000000P PS=6330000U PD=6530000U
* device instance $5 r0 *1 0.47,1.985 pfet_01v8_hvt
M$5 9 4 3 10 pfet_01v8_hvt L=150000U W=1000000U AS=260000000000P
+ AD=260000000000P PS=2520000U PD=2520000U
* device instance $6 r0 *1 1.41,1.985 pfet_01v8_hvt
M$6 6 3 9 10 pfet_01v8_hvt L=150000U W=4000000U AS=665000000000P
+ AD=540000000000P PS=6330000U PD=5080000U
* device instance $10 r0 *1 3.09,1.985 pfet_01v8_hvt
M$10 6 2 9 10 pfet_01v8_hvt L=150000U W=4000000U AS=540000000000P
+ AD=665000000000P PS=5080000U PD=6330000U
* device instance $14 r0 *1 5.29,0.56 nfet_01v8
M$14 7 8 1 11 nfet_01v8 L=150000U W=2600000U AS=432250000000P AD=497250000000P
+ PS=4580000U PD=4780000U
* device instance $18 r0 *1 0.47,0.56 nfet_01v8
M$18 1 4 3 11 nfet_01v8 L=150000U W=650000U AS=169000000000P AD=169000000000P
+ PS=1820000U PD=1820000U
* device instance $19 r0 *1 1.41,0.56 nfet_01v8
M$19 6 3 5 11 nfet_01v8 L=150000U W=2600000U AS=432250000000P AD=351000000000P
+ PS=4580000U PD=3680000U
* device instance $23 r0 *1 3.09,0.56 nfet_01v8
M$23 7 2 5 11 nfet_01v8 L=150000U W=2600000U AS=351000000000P AD=432250000000P
+ PS=3680000U PD=4580000U
.ENDS sky130_fd_sc_hd__nand3b_4

* cell sky130_fd_sc_hd__nand2b_1
* pin VPB
* pin B
* pin A_N
* pin Y
* pin VGND
* pin VPWR
* pin 
.SUBCKT sky130_fd_sc_hd__nand2b_1 1 2 4 5 6 7 8
* net 1 VPB
* net 2 B
* net 4 A_N
* net 5 Y
* net 6 VGND
* net 7 VPWR
* device instance $1 r0 *1 0.47,1.695 pfet_01v8_hvt
M$1 7 4 3 1 pfet_01v8_hvt L=150000U W=420000U AS=109200000000P AD=145750000000P
+ PS=1360000U PD=1335000U
* device instance $2 r0 *1 0.955,1.985 pfet_01v8_hvt
M$2 5 2 7 1 pfet_01v8_hvt L=150000U W=1000000U AS=145750000000P
+ AD=135000000000P PS=1335000U PD=1270000U
* device instance $3 r0 *1 1.375,1.985 pfet_01v8_hvt
M$3 7 3 5 1 pfet_01v8_hvt L=150000U W=1000000U AS=135000000000P
+ AD=265000000000P PS=1270000U PD=2530000U
* device instance $4 r0 *1 0.47,0.675 nfet_01v8
M$4 3 4 6 8 nfet_01v8 L=150000U W=420000U AS=100250000000P AD=109200000000P
+ PS=985000U PD=1360000U
* device instance $5 r0 *1 0.955,0.56 nfet_01v8
M$5 9 2 6 8 nfet_01v8 L=150000U W=650000U AS=100250000000P AD=87750000000P
+ PS=985000U PD=920000U
* device instance $6 r0 *1 1.375,0.56 nfet_01v8
M$6 5 3 9 8 nfet_01v8 L=150000U W=650000U AS=87750000000P AD=169000000000P
+ PS=920000U PD=1820000U
.ENDS sky130_fd_sc_hd__nand2b_1

* cell sky130_fd_sc_hd__clkinvlp_4
* pin VPB
* pin A
* pin VPWR
* pin VGND
* pin Y
* pin 
.SUBCKT sky130_fd_sc_hd__clkinvlp_4 1 2 3 4 5 6
* net 1 VPB
* net 2 A
* net 3 VPWR
* net 4 VGND
* net 5 Y
* device instance $1 r0 *1 0.525,1.985 pfet_01v8_hvt
M$1 5 2 3 1 pfet_01v8_hvt L=250000U W=4000000U AS=685000000000P
+ AD=685000000000P PS=6370000U PD=6370000U
* device instance $5 r0 *1 0.475,0.51 nfet_01v8
M$5 8 2 4 6 nfet_01v8 L=150000U W=550000U AS=145750000000P AD=57750000000P
+ PS=1630000U PD=760000U
* device instance $6 r0 *1 0.835,0.51 nfet_01v8
M$6 5 2 8 6 nfet_01v8 L=150000U W=550000U AS=57750000000P AD=77000000000P
+ PS=760000U PD=830000U
* device instance $7 r0 *1 1.265,0.51 nfet_01v8
M$7 7 2 5 6 nfet_01v8 L=150000U W=550000U AS=77000000000P AD=57750000000P
+ PS=830000U PD=760000U
* device instance $8 r0 *1 1.625,0.51 nfet_01v8
M$8 4 2 7 6 nfet_01v8 L=150000U W=550000U AS=57750000000P AD=145750000000P
+ PS=760000U PD=1630000U
.ENDS sky130_fd_sc_hd__clkinvlp_4

* cell sky130_fd_sc_hd__nand2_1
* pin VPB
* pin A
* pin B
* pin Y
* pin VPWR
* pin VGND
* pin 
.SUBCKT sky130_fd_sc_hd__nand2_1 1 2 3 4 5 6 7
* net 1 VPB
* net 2 A
* net 3 B
* net 4 Y
* net 5 VPWR
* net 6 VGND
* device instance $1 r0 *1 0.49,1.985 pfet_01v8_hvt
M$1 4 3 5 1 pfet_01v8_hvt L=150000U W=1000000U AS=260000000000P
+ AD=135000000000P PS=2520000U PD=1270000U
* device instance $2 r0 *1 0.91,1.985 pfet_01v8_hvt
M$2 5 2 4 1 pfet_01v8_hvt L=150000U W=1000000U AS=135000000000P
+ AD=260000000000P PS=1270000U PD=2520000U
* device instance $3 r0 *1 0.49,0.56 nfet_01v8
M$3 8 3 6 7 nfet_01v8 L=150000U W=650000U AS=169000000000P AD=87750000000P
+ PS=1820000U PD=920000U
* device instance $4 r0 *1 0.91,0.56 nfet_01v8
M$4 4 2 8 7 nfet_01v8 L=150000U W=650000U AS=87750000000P AD=169000000000P
+ PS=920000U PD=1820000U
.ENDS sky130_fd_sc_hd__nand2_1

* cell sky130_fd_sc_hd__nand2_4
* pin VGND
* pin B
* pin Y
* pin A
* pin VPWR
* pin VPB
* pin 
.SUBCKT sky130_fd_sc_hd__nand2_4 1 3 4 5 6 7 8
* net 1 VGND
* net 3 B
* net 4 Y
* net 5 A
* net 6 VPWR
* net 7 VPB
* device instance $1 r0 *1 0.47,1.985 pfet_01v8_hvt
M$1 4 3 6 7 pfet_01v8_hvt L=150000U W=4000000U AS=665000000000P
+ AD=540000000000P PS=6330000U PD=5080000U
* device instance $5 r0 *1 2.15,1.985 pfet_01v8_hvt
M$5 4 5 6 7 pfet_01v8_hvt L=150000U W=4000000U AS=540000000000P
+ AD=665000000000P PS=5080000U PD=6330000U
* device instance $9 r0 *1 0.47,0.56 nfet_01v8
M$9 1 3 2 8 nfet_01v8 L=150000U W=2600000U AS=432250000000P AD=351000000000P
+ PS=4580000U PD=3680000U
* device instance $13 r0 *1 2.15,0.56 nfet_01v8
M$13 4 5 2 8 nfet_01v8 L=150000U W=2600000U AS=351000000000P AD=432250000000P
+ PS=3680000U PD=4580000U
.ENDS sky130_fd_sc_hd__nand2_4

* cell sky130_fd_sc_hd__buf_2
* pin VPB
* pin A
* pin VGND
* pin X
* pin VPWR
* pin 
.SUBCKT sky130_fd_sc_hd__buf_2 1 3 4 5 6 7
* net 1 VPB
* net 3 A
* net 4 VGND
* net 5 X
* net 6 VPWR
* device instance $1 r0 *1 0.47,2.125 pfet_01v8_hvt
M$1 2 3 6 1 pfet_01v8_hvt L=150000U W=640000U AS=149000000000P AD=166400000000P
+ PS=1325000U PD=1800000U
* device instance $2 r0 *1 0.945,1.985 pfet_01v8_hvt
M$2 5 2 6 1 pfet_01v8_hvt L=150000U W=2000000U AS=284000000000P
+ AD=400000000000P PS=2595000U PD=3800000U
* device instance $4 r0 *1 0.47,0.445 nfet_01v8
M$4 4 3 2 7 nfet_01v8 L=150000U W=420000U AS=109200000000P AD=97000000000P
+ PS=1360000U PD=975000U
* device instance $5 r0 *1 0.945,0.56 nfet_01v8
M$5 5 2 4 7 nfet_01v8 L=150000U W=1300000U AS=184750000000P AD=260000000000P
+ PS=1895000U PD=2750000U
.ENDS sky130_fd_sc_hd__buf_2

* cell sky130_fd_sc_hd__dlygate4sd3_1
* pin VPB
* pin A
* pin VPWR
* pin X
* pin VGND
* pin 
.SUBCKT sky130_fd_sc_hd__dlygate4sd3_1 1 3 5 7 8 9
* net 1 VPB
* net 3 A
* net 5 VPWR
* net 7 X
* net 8 VGND
* device instance $1 r0 *1 2.465,2.275 pfet_01v8_hvt
M$1 6 2 5 1 pfet_01v8_hvt L=500000U W=420000U AS=140750000000P AD=109200000000P
+ PS=1325000U PD=1360000U
* device instance $2 r0 *1 3.115,1.985 pfet_01v8_hvt
M$2 7 6 5 1 pfet_01v8_hvt L=150000U W=1000000U AS=140750000000P
+ AD=260000000000P PS=1325000U PD=2520000U
* device instance $3 r0 *1 0.58,2.275 pfet_01v8_hvt
M$3 5 3 4 1 pfet_01v8_hvt L=150000U W=420000U AS=109200000000P AD=56700000000P
+ PS=1360000U PD=690000U
* device instance $4 r0 *1 1.175,2.275 pfet_01v8_hvt
M$4 2 4 5 1 pfet_01v8_hvt L=500000U W=420000U AS=56700000000P AD=109200000000P
+ PS=690000U PD=1360000U
* device instance $5 r0 *1 2.465,0.445 nfet_01v8
M$5 8 2 6 9 nfet_01v8 L=500000U W=420000U AS=109200000000P AD=97000000000P
+ PS=1360000U PD=975000U
* device instance $6 r0 *1 3.115,0.56 nfet_01v8
M$6 7 6 8 9 nfet_01v8 L=150000U W=650000U AS=97000000000P AD=169000000000P
+ PS=975000U PD=1820000U
* device instance $7 r0 *1 0.58,0.445 nfet_01v8
M$7 8 3 4 9 nfet_01v8 L=150000U W=420000U AS=109200000000P AD=56700000000P
+ PS=1360000U PD=690000U
* device instance $8 r0 *1 1.175,0.445 nfet_01v8
M$8 2 4 8 9 nfet_01v8 L=500000U W=420000U AS=56700000000P AD=109200000000P
+ PS=690000U PD=1360000U
.ENDS sky130_fd_sc_hd__dlygate4sd3_1

* cell sky130_fd_sc_hd__clkbuf_8
* pin VGND
* pin A
* pin X
* pin VPWR
* pin VPB
* pin 
.SUBCKT sky130_fd_sc_hd__clkbuf_8 1 2 4 5 6 7
* net 1 VGND
* net 2 A
* net 4 X
* net 5 VPWR
* net 6 VPB
* device instance $1 r0 *1 0.475,1.985 pfet_01v8_hvt
M$1 3 2 5 6 pfet_01v8_hvt L=150000U W=2000000U AS=405000000000P
+ AD=280000000000P PS=3810000U PD=2560000U
* device instance $3 r0 *1 1.335,1.985 pfet_01v8_hvt
M$3 4 3 5 6 pfet_01v8_hvt L=150000U W=8000000U AS=1.12e+12P AD=1.245e+12P
+ PS=10240000U PD=11490000U
* device instance $11 r0 *1 0.475,0.445 nfet_01v8
M$11 3 2 1 7 nfet_01v8 L=150000U W=840000U AS=170100000000P AD=117600000000P
+ PS=2070000U PD=1400000U
* device instance $13 r0 *1 1.335,0.445 nfet_01v8
M$13 4 3 1 7 nfet_01v8 L=150000U W=3360000U AS=470400000000P AD=525000000000P
+ PS=5600000U PD=6280000U
.ENDS sky130_fd_sc_hd__clkbuf_8

* cell sky130_fd_sc_hd__dfrtp_4
* pin VGND
* pin RESET_B
* pin Q
* pin CLK
* pin D
* pin VPB
* pin VPWR
* pin 
.SUBCKT sky130_fd_sc_hd__dfrtp_4 1 6 9 14 15 17 18 21
* net 1 VGND
* net 6 RESET_B
* net 9 Q
* net 14 CLK
* net 15 D
* net 17 VPB
* net 18 VPWR
* device instance $1 r0 *1 8.63,1.985 pfet_01v8_hvt