* CDL Netlist generated by OpenROAD

*.BUSDELIMITER [

.SUBCKT skid_buffer clk m_data[0] m_data[1] m_data[2] m_data[3]
+ m_data[4] m_data[5] m_data[6] m_data[7] m_ready m_valid rst_n
+ s_data[0] s_data[1] s_data[2] s_data[3] s_data[4] s_data[5]
+ s_data[6] s_data[7] s_ready s_valid
X_064_ net20 VSS VSS VDD VDD _021_ sky130_fd_sc_hd__buf_2
X_065_ net2 _021_ VSS VSS VDD VDD _022_ sky130_fd_sc_hd__nand2_4
X_066_ skid_valid_reg _022_ VSS VSS VDD VDD net21 sky130_fd_sc_hd__nand2_1
X_067_ skid_valid_reg VSS VSS VDD VDD _023_ sky130_fd_sc_hd__clkinvlp_4
X_068_ _023_ VSS VSS VDD VDD _024_ sky130_fd_sc_hd__buf_4
X_069_ skid_valid_reg net11 VSS VSS VDD VDD _025_ sky130_fd_sc_hd__nand2b_1
X_070_ _025_ VSS VSS VDD VDD _026_ sky130_fd_sc_hd__buf_6
X_071_ _024_ net12 _026_ net3 VSS VSS VDD VDD _027_ sky130_fd_sc_hd__o22ai_1
X_072_ skid_valid_reg net11 net2 VSS VSS VDD VDD _028_ sky130_fd_sc_hd__nand3b_4
X_073_ net3 _028_ _021_ VSS VSS VDD VDD _029_ sky130_fd_sc_hd__o21ai_0
X_074_ net2 net20 VSS VSS VDD VDD _030_ sky130_fd_sc_hd__nand2b_1
X_075_ _030_ VSS VSS VDD VDD _031_ sky130_fd_sc_hd__buf_6
X_076_ skid_valid_reg net11 VSS VSS VDD VDD _032_ sky130_fd_sc_hd__or2_0
X_077_ _032_ VSS VSS VDD VDD _033_ sky130_fd_sc_hd__buf_2
X_078_ _031_ _033_ net12 VSS VSS VDD VDD _034_ sky130_fd_sc_hd__a21oi_1
X_079_ _024_ skid_reg\[0\] _022_ VSS VSS VDD VDD _035_ sky130_fd_sc_hd__nor3_1
X_080_ _027_ _029_ _034_ _035_ VSS VSS VDD VDD _000_ sky130_fd_sc_hd__a211oi_1
X_081_ _024_ net13 _026_ net4 VSS VSS VDD VDD _036_ sky130_fd_sc_hd__o22ai_1
X_082_ net4 _028_ _021_ VSS VSS VDD VDD _037_ sky130_fd_sc_hd__o21ai_0
X_083_ _031_ _033_ net13 VSS VSS VDD VDD _038_ sky130_fd_sc_hd__a21oi_1
X_084_ _024_ skid_reg\[1\] _022_ VSS VSS VDD VDD _039_ sky130_fd_sc_hd__nor3_1
X_085_ _036_ _037_ _038_ _039_ VSS VSS VDD VDD _001_ sky130_fd_sc_hd__a211oi_1
X_086_ _023_ net14 _026_ net5 VSS VSS VDD VDD _040_ sky130_fd_sc_hd__o22ai_1
X_087_ net5 _028_ _021_ VSS VSS VDD VDD _041_ sky130_fd_sc_hd__o21ai_0
X_088_ _031_ _033_ net14 VSS VSS VDD VDD _042_ sky130_fd_sc_hd__a21oi_1
X_089_ _024_ skid_reg\[2\] _022_ VSS VSS VDD VDD _043_ sky130_fd_sc_hd__nor3_1
X_090_ _040_ _041_ _042_ _043_ VSS VSS VDD VDD _002_ sky130_fd_sc_hd__a211oi_1
X_091_ _023_ net15 _026_ net6 VSS VSS VDD VDD _044_ sky130_fd_sc_hd__o22ai_1
X_092_ net6 _028_ _021_ VSS VSS VDD VDD _045_ sky130_fd_sc_hd__o21ai_0
X_093_ _031_ _033_ net15 VSS VSS VDD VDD _046_ sky130_fd_sc_hd__a21oi_1
X_094_ _024_ skid_reg\[3\] _022_ VSS VSS VDD VDD _047_ sky130_fd_sc_hd__nor3_1
X_095_ _044_ _045_ _046_ _047_ VSS VSS VDD VDD _003_ sky130_fd_sc_hd__a211oi_1
X_096_ _023_ net16 _026_ net7 VSS VSS VDD VDD _048_ sky130_fd_sc_hd__o22ai_1
X_097_ net7 _028_ _021_ VSS VSS VDD VDD _049_ sky130_fd_sc_hd__o21ai_0
X_098_ _031_ _033_ net16 VSS VSS VDD VDD _050_ sky130_fd_sc_hd__a21oi_1
X_099_ _024_ skid_reg\[4\] _022_ VSS VSS VDD VDD _051_ sky130_fd_sc_hd__nor3_1
X_100_ _048_ _049_ _050_ _051_ VSS VSS VDD VDD _004_ sky130_fd_sc_hd__a211oi_1
X_101_ _023_ net17 _026_ net8 VSS VSS VDD VDD _052_ sky130_fd_sc_hd__o22ai_1
X_102_ net8 _028_ _021_ VSS VSS VDD VDD _053_ sky130_fd_sc_hd__o21ai_0
X_103_ _031_ _033_ net17 VSS VSS VDD VDD _054_ sky130_fd_sc_hd__a21oi_1
X_104_ _024_ skid_reg\[5\] _022_ VSS VSS VDD VDD _055_ sky130_fd_sc_hd__nor3_1
X_105_ _052_ _053_ _054_ _055_ VSS VSS VDD VDD _005_ sky130_fd_sc_hd__a211oi_1
X_106_ _023_ net18 _026_ net9 VSS VSS VDD VDD _056_ sky130_fd_sc_hd__o22ai_1
X_107_ net9 _028_ _021_ VSS VSS VDD VDD _057_ sky130_fd_sc_hd__o21ai_0
X_108_ _031_ _033_ net18 VSS VSS VDD VDD _058_ sky130_fd_sc_hd__a21oi_1
X_109_ _024_ skid_reg\[6\] _022_ VSS VSS VDD VDD _059_ sky130_fd_sc_hd__nor3_1
X_110_ _056_ _057_ _058_ _059_ VSS VSS VDD VDD _006_ sky130_fd_sc_hd__a211oi_1
X_111_ _023_ net19 _026_ net10 VSS VSS VDD VDD _060_ sky130_fd_sc_hd__o22ai_1
X_112_ net10 _028_ _021_ VSS VSS VDD VDD _061_ sky130_fd_sc_hd__o21ai_0
X_113_ _031_ _033_ net19 VSS VSS VDD VDD _062_ sky130_fd_sc_hd__a21oi_1
X_114_ _024_ skid_reg\[7\] _022_ VSS VSS VDD VDD _063_ sky130_fd_sc_hd__nor3_1
X_115_ _060_ _061_ _062_ _063_ VSS VSS VDD VDD _007_ sky130_fd_sc_hd__a211oi_1
X_116_ _031_ _025_ VSS VSS VDD VDD _018_ sky130_fd_sc_hd__nor2_4
X_117_ skid_reg\[0\] net3 _018_ VSS VSS VDD VDD _008_ sky130_fd_sc_hd__mux2_1
X_118_ skid_reg\[1\] net4 _018_ VSS VSS VDD VDD _009_ sky130_fd_sc_hd__mux2_1
X_119_ skid_reg\[2\] net5 _018_ VSS VSS VDD VDD _010_ sky130_fd_sc_hd__mux2_1
X_120_ skid_reg\[3\] net6 _018_ VSS VSS VDD VDD _011_ sky130_fd_sc_hd__mux2_1
X_121_ skid_reg\[4\] net7 _018_ VSS VSS VDD VDD _012_ sky130_fd_sc_hd__mux2_1
X_122_ skid_reg\[5\] net8 _018_ VSS VSS VDD VDD _013_ sky130_fd_sc_hd__mux2_1
X_123_ skid_reg\[6\] net9 _018_ VSS VSS VDD VDD _014_ sky130_fd_sc_hd__mux2_1
X_124_ skid_reg\[7\] net10 _018_ VSS VSS VDD VDD _015_ sky130_fd_sc_hd__mux2_1
X_125_ _031_ _026_ net21 VSS VSS VDD VDD _016_ sky130_fd_sc_hd__o21ai_0
X_126_ net2 VSS VSS VDD VDD _019_ sky130_fd_sc_hd__inv_1
X_127_ _019_ skid_valid_reg _021_ VSS VSS VDD VDD _020_ sky130_fd_sc_hd__o21ai_0
X_128_ _026_ _020_ VSS VSS VDD VDD _017_ sky130_fd_sc_hd__nand2_1
Xdata_reg\[0\]$_DFFE_PN0P_ clknet_1_1__leaf_clk _000_ net1
+ VSS VSS VDD VDD net12 sky130_fd_sc_hd__dfrtp_1
Xdata_reg\[1\]$_DFFE_PN0P_ clknet_1_1__leaf_clk _001_ net1
+ VSS VSS VDD VDD net13 sky130_fd_sc_hd__dfrtp_1
Xdata_reg\[2\]$_DFFE_PN0P_ clknet_1_0__leaf_clk _002_ net1
+ VSS VSS VDD VDD net14 sky130_fd_sc_hd__dfrtp_1
Xdata_reg\[3\]$_DFFE_PN0P_ clknet_1_1__leaf_clk _003_ net1
+ VSS VSS VDD VDD net15 sky130_fd_sc_hd__dfrtp_4
Xdata_reg\[4\]$_DFFE_PN0P_ clknet_1_1__leaf_clk _004_ net1
+ VSS VSS VDD VDD net16 sky130_fd_sc_hd__dfrtp_4
Xdata_reg\[5\]$_DFFE_PN0P_ clknet_1_0__leaf_clk _005_ net1
+ VSS VSS VDD VDD net17 sky130_fd_sc_hd__dfrtp_1
Xdata_reg\[6\]$_DFFE_PN0P_ clknet_1_1__leaf_clk _006_ net1
+ VSS VSS VDD VDD net18 sky130_fd_sc_hd__dfrtp_1
Xdata_reg\[7\]$_DFFE_PN0P_ clknet_1_0__leaf_clk _007_ net1
+ VSS VSS VDD VDD net19 sky130_fd_sc_hd__dfrtp_1
Xskid_reg\[0\]$_DFFE_PN0P_ clknet_1_1__leaf_clk _008_ net1
+ VSS VSS VDD VDD skid_reg\[0\] sky130_fd_sc_hd__dfrtp_1
Xskid_reg\[1\]$_DFFE_PN0P_ clknet_1_1__leaf_clk _009_ net1
+ VSS VSS VDD VDD skid_reg\[1\] sky130_fd_sc_hd__dfrtp_1
Xskid_reg\[2\]$_DFFE_PN0P_ clknet_1_0__leaf_clk _010_ net1
+ VSS VSS VDD VDD skid_reg\[2\] sky130_fd_sc_hd__dfrtp_1
Xskid_reg\[3\]$_DFFE_PN0P_ clknet_1_0__leaf_clk _011_ net1
+ VSS VSS VDD VDD skid_reg\[3\] sky130_fd_sc_hd__dfrtp_1
Xskid_reg\[4\]$_DFFE_PN0P_ clknet_1_1__leaf_clk _012_ net1
+ VSS VSS VDD VDD skid_reg\[4\] sky130_fd_sc_hd__dfrtp_1
Xskid_reg\[5\]$_DFFE_PN0P_ clknet_1_0__leaf_clk _013_ net1
+ VSS VSS VDD VDD skid_reg\[5\] sky130_fd_sc_hd__dfrtp_1
Xskid_reg\[6\]$_DFFE_PN0P_ clknet_1_1__leaf_clk _014_ net1
+ VSS VSS VDD VDD skid_reg\[6\] sky130_fd_sc_hd__dfrtp_1
Xskid_reg\[7\]$_DFFE_PN0P_ clknet_1_0__leaf_clk _015_ net1
+ VSS VSS VDD VDD skid_reg\[7\] sky130_fd_sc_hd__dfrtp_1
Xskid_valid_reg$_DFFE_PN0P_ clknet_1_0__leaf_clk _016_ net1
+ VSS VSS VDD VDD skid_valid_reg sky130_fd_sc_hd__dfrtp_2
Xvalid_reg$_DFFE_PN0P_ clknet_1_0__leaf_clk _017_ net1 VSS
+ VSS VDD VDD net20 sky130_fd_sc_hd__dfrtp_1
Xhold1 net22 VSS VSS VDD VDD net1 sky130_fd_sc_hd__buf_6
XTAP_TAPCELL_ROW_0_0 VSS VDD sky130_fd_sc_hd__tapvpwrvgnd_1
XTAP_TAPCELL_ROW_0_1 VSS VDD sky130_fd_sc_hd__tapvpwrvgnd_1
XTAP_TAPCELL_ROW_0_2 VSS VDD sky130_fd_sc_hd__tapvpwrvgnd_1
XTAP_TAPCELL_ROW_0_3 VSS VDD sky130_fd_sc_hd__tapvpwrvgnd_1
XTAP_TAPCELL_ROW_0_4 VSS VDD sky130_fd_sc_hd__tapvpwrvgnd_1
XTAP_TAPCELL_ROW_0_5 VSS VDD sky130_fd_sc_hd__tapvpwrvgnd_1
XTAP_TAPCELL_ROW_0_6 VSS VDD sky130_fd_sc_hd__tapvpwrvgnd_1
XTAP_TAPCELL_ROW_0_7 VSS VDD sky130_fd_sc_hd__tapvpwrvgnd_1
XTAP_TAPCELL_ROW_0_8 VSS VDD sky130_fd_sc_hd__tapvpwrvgnd_1
XTAP_TAPCELL_ROW_0_9 VSS VDD sky130_fd_sc_hd__tapvpwrvgnd_1
XTAP_TAPCELL_ROW_0_10 VSS VDD sky130_fd_sc_hd__tapvpwrvgnd_1
XTAP_TAPCELL_ROW_0_11 VSS VDD sky130_fd_sc_hd__tapvpwrvgnd_1
XTAP_TAPCELL_ROW_0_12 VSS VDD sky130_fd_sc_hd__tapvpwrvgnd_1
XTAP_TAPCELL_ROW_0_13 VSS VDD sky130_fd_sc_hd__tapvpwrvgnd_1
XTAP_TAPCELL_ROW_0_14 VSS VDD sky130_fd_sc_hd__tapvpwrvgnd_1
XTAP_TAPCELL_ROW_0_15 VSS VDD sky130_fd_sc_hd__tapvpwrvgnd_1
XTAP_TAPCELL_ROW_0_16 VSS VDD sky130_fd_sc_hd__tapvpwrvgnd_1
XTAP_TAPCELL_ROW_0_17 VSS VDD sky130_fd_sc_hd__tapvpwrvgnd_1
XTAP_TAPCELL_ROW_0_18 VSS VDD sky130_fd_sc_hd__tapvpwrvgnd_1
XTAP_TAPCELL_ROW_0_19 VSS VDD sky130_fd_sc_hd__tapvpwrvgnd_1
XTAP_TAPCELL_ROW_0_20 VSS VDD sky130_fd_sc_hd__tapvpwrvgnd_1
XTAP_TAPCELL_ROW_0_21 VSS VDD sky130_fd_sc_hd__tapvpwrvgnd_1
XTAP_TAPCELL_ROW_0_22 VSS VDD sky130_fd_sc_hd__tapvpwrvgnd_1
XTAP_TAPCELL_ROW_0_23 VSS VDD sky130_fd_sc_hd__tapvpwrvgnd_1
XTAP_TAPCELL_ROW_0_24 VSS VDD sky130_fd_sc_hd__tapvpwrvgnd_1
XTAP_TAPCELL_ROW_0_25 VSS VDD sky130_fd_sc_hd__tapvpwrvgnd_1
XTAP_TAPCELL_ROW_0_26 VSS VDD sky130_fd_sc_hd__tapvpwrvgnd_1
XTAP_TAPCELL_ROW_0_27 VSS VDD sky130_fd_sc_hd__tapvpwrvgnd_1
XTAP_TAPCELL_ROW_0_28 VSS VDD sky130_fd_sc_hd__tapvpwrvgnd_1
XTAP_TAPCELL_ROW_1_29 VSS VDD sky130_fd_sc_hd__tapvpwrvgnd_1
XTAP_TAPCELL_ROW_1_30 VSS VDD sky130_fd_sc_hd__tapvpwrvgnd_1
XTAP_TAPCELL_ROW_1_31 VSS VDD sky130_fd_sc_hd__tapvpwrvgnd_1
XTAP_TAPCELL_ROW_1_32 VSS VDD sky130_fd_sc_hd__tapvpwrvgnd_1
XTAP_TAPCELL_ROW_1_33 VSS VDD sky130_fd_sc_hd__tapvpwrvgnd_1
XTAP_TAPCELL_ROW_1_34 VSS VDD sky130_fd_sc_hd__tapvpwrvgnd_1
XTAP_TAPCELL_ROW_1_35 VSS VDD sky130_fd_sc_hd__tapvpwrvgnd_1
XTAP_TAPCELL_ROW_1_36 VSS VDD sky130_fd_sc_hd__tapvpwrvgnd_1
XTAP_TAPCELL_ROW_1_37 VSS VDD sky130_fd_sc_hd__tapvpwrvgnd_1
XTAP_TAPCELL_ROW_1_38 VSS VDD sky130_fd_sc_hd__tapvpwrvgnd_1
XTAP_TAPCELL_ROW_1_39 VSS VDD sky130_fd_sc_hd__tapvpwrvgnd_1
XTAP_TAPCELL_ROW_1_40 VSS VDD sky130_fd_sc_hd__tapvpwrvgnd_1
XTAP_TAPCELL_ROW_1_41 VSS VDD sky130_fd_sc_hd__tapvpwrvgnd_1
XTAP_TAPCELL_ROW_1_42 VSS VDD sky130_fd_sc_hd__tapvpwrvgnd_1
XTAP_TAPCELL_ROW_2_43 VSS VDD sky130_fd_sc_hd__tapvpwrvgnd_1
XTAP_TAPCELL_ROW_2_44 VSS VDD sky130_fd_sc_hd__tapvpwrvgnd_1
XTAP_TAPCELL_ROW_2_45 VSS VDD sky130_fd_sc_hd__tapvpwrvgnd_1
XTAP_TAPCELL_ROW_2_46 VSS VDD sky130_fd_sc_hd__tapvpwrvgnd_1
XTAP_TAPCELL_ROW_2_47 VSS VDD sky130_fd_sc_hd__tapvpwrvgnd_1
XTAP_TAPCELL_ROW_2_48 VSS VDD sky130_fd_sc_hd__tapvpwrvgnd_1
XTAP_TAPCELL_ROW_2_49 VSS VDD sky130_fd_sc_hd__tapvpwrvgnd_1
XTAP_TAPCELL_ROW_2_50 VSS VDD sky130_fd_sc_hd__tapvpwrvgnd_1
XTAP_TAPCELL_ROW_2_51 VSS VDD sky130_fd_sc_hd__tapvpwrvgnd_1
XTAP_TAPCELL_ROW_2_52 VSS VDD sky130_fd_sc_hd__tapvpwrvgnd_1
XTAP_TAPCELL_ROW_2_53 VSS VDD sky130_fd_sc_hd__tapvpwrvgnd_1
XTAP_TAPCELL_ROW_2_54 VSS VDD sky130_fd_sc_hd__tapvpwrvgnd_1
XTAP_TAPCELL_ROW_2_55 VSS VDD sky130_fd_sc_hd__tapvpwrvgnd_1
XTAP_TAPCELL_ROW_2_56 VSS VDD sky130_fd_sc_hd__tapvpwrvgnd_1
XTAP_TAPCELL_ROW_2_57 VSS VDD sky130_fd_sc_hd__tapvpwrvgnd_1
XTAP_TAPCELL_ROW_3_58 VSS VDD sky130_fd_sc_hd__tapvpwrvgnd_1
XTAP_TAPCELL_ROW_3_59 VSS VDD sky130_fd_sc_hd__tapvpwrvgnd_1
XTAP_TAPCELL_ROW_3_60 VSS VDD sky130_fd_sc_hd__tapvpwrvgnd_1
XTAP_TAPCELL_ROW_3_61 VSS VDD sky130_fd_sc_hd__tapvpwrvgnd_1
XTAP_TAPCELL_ROW_3_62 VSS VDD sky130_fd_sc_hd__tapvpwrvgnd_1
XTAP_TAPCELL_ROW_3_63 VSS VDD sky130_fd_sc_hd__tapvpwrvgnd_1
XTAP_TAPCELL_ROW_3_64 VSS VDD sky130_fd_sc_hd__tapvpwrvgnd_1
XTAP_TAPCELL_ROW_3_65 VSS VDD sky130_fd_sc_hd__tapvpwrvgnd_1
XTAP_TAPCELL_ROW_3_66 VSS VDD sky130_fd_sc_hd__tapvpwrvgnd_1
XTAP_TAPCELL_ROW_3_67 VSS VDD sky130_fd_sc_hd__tapvpwrvgnd_1
XTAP_TAPCELL_ROW_3_68 VSS VDD sky130_fd_sc_hd__tapvpwrvgnd_1
XTAP_TAPCELL_ROW_3_69 VSS VDD sky130_fd_sc_hd__tapvpwrvgnd_1
XTAP_TAPCELL_ROW_3_70 VSS VDD sky130_fd_sc_hd__tapvpwrvgnd_1
XTAP_TAPCELL_ROW_3_71 VSS VDD sky130_fd_sc_hd__tapvpwrvgnd_1
XTAP_TAPCELL_ROW_4_72 VSS VDD sky130_fd_sc_hd__tapvpwrvgnd_1
XTAP_TAPCELL_ROW_4_73 VSS VDD sky130_fd_sc_hd__tapvpwrvgnd_1
XTAP_TAPCELL_ROW_4_74 VSS VDD sky130_fd_sc_hd__tapvpwrvgnd_1
XTAP_TAPCELL_ROW_4_75 VSS VDD sky130_fd_sc_hd__tapvpwrvgnd_1
XTAP_TAPCELL_ROW_4_76 VSS VDD sky130_fd_sc_hd__tapvpwrvgnd_1
XTAP_TAPCELL_ROW_4_77 VSS VDD sky130_fd_sc_hd__tapvpwrvgnd_1
XTAP_TAPCELL_ROW_4_78 VSS VDD sky130_fd_sc_hd__tapvpwrvgnd_1
XTAP_TAPCELL_ROW_4_79 VSS VDD sky130_fd_sc_hd__tapvpwrvgnd_1
XTAP_TAPCELL_ROW_4_80 VSS VDD sky130_fd_sc_hd__tapvpwrvgnd_1
XTAP_TAPCELL_ROW_4_81 VSS VDD sky130_fd_sc_hd__tapvpwrvgnd_1
XTAP_TAPCELL_ROW_4_82 VSS VDD sky130_fd_sc_hd__tapvpwrvgnd_1
XTAP_TAPCELL_ROW_4_83 VSS VDD sky130_fd_sc_hd__tapvpwrvgnd_1
XTAP_TAPCELL_ROW_4_84 VSS VDD sky130_fd_sc_hd__tapvpwrvgnd_1
XTAP_TAPCELL_ROW_4_85 VSS VDD sky130_fd_sc_hd__tapvpwrvgnd_1
XTAP_TAPCELL_ROW_4_86 VSS VDD sky130_fd_sc_hd__tapvpwrvgnd_1
XTAP_TAPCELL_ROW_5_87 VSS VDD sky130_fd_sc_hd__tapvpwrvgnd_1
XTAP_TAPCELL_ROW_5_88 VSS VDD sky130_fd_sc_hd__tapvpwrvgnd_1
XTAP_TAPCELL_ROW_5_89 VSS VDD sky130_fd_sc_hd__tapvpwrvgnd_1
XTAP_TAPCELL_ROW_5_90 VSS VDD sky130_fd_sc_hd__tapvpwrvgnd_1
XTAP_TAPCELL_ROW_5_91 VSS VDD sky130_fd_sc_hd__tapvpwrvgnd_1
XTAP_TAPCELL_ROW_5_92 VSS VDD sky130_fd_sc_hd__tapvpwrvgnd_1
XTAP_TAPCELL_ROW_5_93 VSS VDD sky130_fd_sc_hd__tapvpwrvgnd_1
XTAP_TAPCELL_ROW_5_94 VSS VDD sky130_fd_sc_hd__tapvpwrvgnd_1
XTAP_TAPCELL_ROW_5_95 VSS VDD sky130_fd_sc_hd__tapvpwrvgnd_1
XTAP_TAPCELL_ROW_5_96 VSS VDD sky130_fd_sc_hd__tapvpwrvgnd_1
XTAP_TAPCELL_ROW_5_97 VSS VDD sky130_fd_sc_hd__tapvpwrvgnd_1
XTAP_TAPCELL_ROW_5_98 VSS VDD sky130_fd_sc_hd__tapvpwrvgnd_1
XTAP_TAPCELL_ROW_5_99 VSS VDD sky130_fd_sc_hd__tapvpwrvgnd_1
XTAP_TAPCELL_ROW_5_100 VSS VDD sky130_fd_sc_hd__tapvpwrvgnd_1
XTAP_TAPCELL_ROW_6_101 VSS VDD sky130_fd_sc_hd__tapvpwrvgnd_1
XTAP_TAPCELL_ROW_6_102 VSS VDD sky130_fd_sc_hd__tapvpwrvgnd_1
XTAP_TAPCELL_ROW_6_103 VSS VDD sky130_fd_sc_hd__tapvpwrvgnd_1
XTAP_TAPCELL_ROW_6_104 VSS VDD sky130_fd_sc_hd__tapvpwrvgnd_1
XTAP_TAPCELL_ROW_6_105 VSS VDD sky130_fd_sc_hd__tapvpwrvgnd_1
XTAP_TAPCELL_ROW_6_106 VSS VDD sky130_fd_sc_hd__tapvpwrvgnd_1
XTAP_TAPCELL_ROW_6_107 VSS VDD sky130_fd_sc_hd__tapvpwrvgnd_1
XTAP_TAPCELL_ROW_6_108 VSS VDD sky130_fd_sc_hd__tapvpwrvgnd_1
XTAP_TAPCELL_ROW_6_109 VSS VDD sky130_fd_sc_hd__tapvpwrvgnd_1
XTAP_TAPCELL_ROW_6_110 VSS VDD sky130_fd_sc_hd__tapvpwrvgnd_1
XTAP_TAPCELL_ROW_6_111 VSS VDD sky130_fd_sc_hd__tapvpwrvgnd_1
XTAP_TAPCELL_ROW_6_112 VSS VDD sky130_fd_sc_hd__tapvpwrvgnd_1
XTAP_TAPCELL_ROW_6_113 VSS VDD sky130_fd_sc_hd__tapvpwrvgnd_1
XTAP_TAPCELL_ROW_6_114 VSS VDD sky130_fd_sc_hd__tapvpwrvgnd_1
XTAP_TAPCELL_ROW_6_115 VSS VDD sky130_fd_sc_hd__tapvpwrvgnd_1
XTAP_TAPCELL_ROW_7_116 VSS VDD sky130_fd_sc_hd__tapvpwrvgnd_1
XTAP_TAPCELL_ROW_7_117 VSS VDD sky130_fd_sc_hd__tapvpwrvgnd_1
XTAP_TAPCELL_ROW_7_118 VSS VDD sky130_fd_sc_hd__tapvpwrvgnd_1
XTAP_TAPCELL_ROW_7_119 VSS VDD sky130_fd_sc_hd__tapvpwrvgnd_1
XTAP_TAPCELL_ROW_7_120 VSS VDD sky130_fd_sc_hd__tapvpwrvgnd_1
XTAP_TAPCELL_ROW_7_121 VSS VDD sky130_fd_sc_hd__tapvpwrvgnd_1
XTAP_TAPCELL_ROW_7_122 VSS VDD sky130_fd_sc_hd__tapvpwrvgnd_1
XTAP_TAPCELL_ROW_7_123 VSS VDD sky130_fd_sc_hd__tapvpwrvgnd_1
XTAP_TAPCELL_ROW_7_124 VSS VDD sky130_fd_sc_hd__tapvpwrvgnd_1
XTAP_TAPCELL_ROW_7_125 VSS VDD sky130_fd_sc_hd__tapvpwrvgnd_1
XTAP_TAPCELL_ROW_7_126 VSS VDD sky130_fd_sc_hd__tapvpwrvgnd_1
XTAP_TAPCELL_ROW_7_127 VSS VDD sky130_fd_sc_hd__tapvpwrvgnd_1
XTAP_TAPCELL_ROW_7_128 VSS VDD sky130_fd_sc_hd__tapvpwrvgnd_1
XTAP_TAPCELL_ROW_7_129 VSS VDD sky130_fd_sc_hd__tapvpwrvgnd_1
XTAP_TAPCELL_ROW_8_130 VSS VDD sky130_fd_sc_hd__tapvpwrvgnd_1
XTAP_TAPCELL_ROW_8_131 VSS VDD sky130_fd_sc_hd__tapvpwrvgnd_1
XTAP_TAPCELL_ROW_8_132 VSS VDD sky130_fd_sc_hd__tapvpwrvgnd_1
XTAP_TAPCELL_ROW_8_133 VSS VDD sky130_fd_sc_hd__tapvpwrvgnd_1
XTAP_TAPCELL_ROW_8_134 VSS VDD sky130_fd_sc_hd__tapvpwrvgnd_1
XTAP_TAPCELL_ROW_8_135 VSS VDD sky130_fd_sc_hd__tapvpwrvgnd_1
XTAP_TAPCELL_ROW_8_136 VSS VDD sky130_fd_sc_hd__tapvpwrvgnd_1
XTAP_TAPCELL_ROW_8_137 VSS VDD sky130_fd_sc_hd__tapvpwrvgnd_1
XTAP_TAPCELL_ROW_8_138 VSS VDD sky130_fd_sc_hd__tapvpwrvgnd_1
XTAP_TAPCELL_ROW_8_139 VSS VDD sky130_fd_sc_hd__tapvpwrvgnd_1
XTAP_TAPCELL_ROW_8_140 VSS VDD sky130_fd_sc_hd__tapvpwrvgnd_1
XTAP_TAPCELL_ROW_8_141 VSS VDD sky130_fd_sc_hd__tapvpwrvgnd_1
XTAP_TAPCELL_ROW_8_142 VSS VDD sky130_fd_sc_hd__tapvpwrvgnd_1
XTAP_TAPCELL_ROW_8_143 VSS VDD sky130_fd_sc_hd__tapvpwrvgnd_1
XTAP_TAPCELL_ROW_8_144 VSS VDD sky130_fd_sc_hd__tapvpwrvgnd_1
XTAP_TAPCELL_ROW_9_145 VSS VDD sky130_fd_sc_hd__tapvpwrvgnd_1
XTAP_TAPCELL_ROW_9_146 VSS VDD sky130_fd_sc_hd__tapvpwrvgnd_1
XTAP_TAPCELL_ROW_9_147 VSS VDD sky130_fd_sc_hd__tapvpwrvgnd_1
XTAP_TAPCELL_ROW_9_148 VSS VDD sky130_fd_sc_hd__tapvpwrvgnd_1
XTAP_TAPCELL_ROW_9_149 VSS VDD sky130_fd_sc_hd__tapvpwrvgnd_1
XTAP_TAPCELL_ROW_9_150 VSS VDD sky130_fd_sc_hd__tapvpwrvgnd_1
XTAP_TAPCELL_ROW_9_151 VSS VDD sky130_fd_sc_hd__tapvpwrvgnd_1
XTAP_TAPCELL_ROW_9_152 VSS VDD sky130_fd_sc_hd__tapvpwrvgnd_1
XTAP_TAPCELL_ROW_9_153 VSS VDD sky130_fd_sc_hd__tapvpwrvgnd_1
XTAP_TAPCELL_ROW_9_154 VSS VDD sky130_fd_sc_hd__tapvpwrvgnd_1
XTAP_TAPCELL_ROW_9_155 VSS VDD sky130_fd_sc_hd__tapvpwrvgnd_1
XTAP_TAPCELL_ROW_9_156 VSS VDD sky130_fd_sc_hd__tapvpwrvgnd_1
XTAP_TAPCELL_ROW_9_157 VSS VDD sky130_fd_sc_hd__tapvpwrvgnd_1
XTAP_TAPCELL_ROW_9_158 VSS VDD sky130_fd_sc_hd__tapvpwrvgnd_1
XTAP_TAPCELL_ROW_10_159 VSS VDD sky130_fd_sc_hd__tapvpwrvgnd_1
XTAP_TAPCELL_ROW_10_160 VSS VDD sky130_fd_sc_hd__tapvpwrvgnd_1
XTAP_TAPCELL_ROW_10_161 VSS VDD sky130_fd_sc_hd__tapvpwrvgnd_1
XTAP_TAPCELL_ROW_10_162 VSS VDD sky130_fd_sc_hd__tapvpwrvgnd_1
XTAP_TAPCELL_ROW_10_163 VSS VDD sky130_fd_sc_hd__tapvpwrvgnd_1
XTAP_TAPCELL_ROW_10_164 VSS VDD sky130_fd_sc_hd__tapvpwrvgnd_1
XTAP_TAPCELL_ROW_10_165 VSS VDD sky130_fd_sc_hd__tapvpwrvgnd_1
XTAP_TAPCELL_ROW_10_166 VSS VDD sky130_fd_sc_hd__tapvpwrvgnd_1
XTAP_TAPCELL_ROW_10_167 VSS VDD sky130_fd_sc_hd__tapvpwrvgnd_1
XTAP_TAPCELL_ROW_10_168 VSS VDD sky130_fd_sc_hd__tapvpwrvgnd_1
XTAP_TAPCELL_ROW_10_169 VSS VDD sky130_fd_sc_hd__tapvpwrvgnd_1
XTAP_TAPCELL_ROW_10_170 VSS VDD sky130_fd_sc_hd__tapvpwrvgnd_1
XTAP_TAPCELL_ROW_10_171 VSS VDD sky130_fd_sc_hd__tapvpwrvgnd_1
XTAP_TAPCELL_ROW_10_172 VSS VDD sky130_fd_sc_hd__tapvpwrvgnd_1
XTAP_TAPCELL_ROW_10_173 VSS VDD sky130_fd_sc_hd__tapvpwrvgnd_1
XTAP_TAPCELL_ROW_11_174 VSS VDD sky130_fd_sc_hd__tapvpwrvgnd_1
XTAP_TAPCELL_ROW_11_175 VSS VDD sky130_fd_sc_hd__tapvpwrvgnd_1
XTAP_TAPCELL_ROW_11_176 VSS VDD sky130_fd_sc_hd__tapvpwrvgnd_1
XTAP_TAPCELL_ROW_11_177 VSS VDD sky130_fd_sc_hd__tapvpwrvgnd_1
XTAP_TAPCELL_ROW_11_178 VSS VDD sky130_fd_sc_hd__tapvpwrvgnd_1
XTAP_TAPCELL_ROW_11_179 VSS VDD sky130_fd_sc_hd__tapvpwrvgnd_1
XTAP_TAPCELL_ROW_11_180 VSS VDD sky130_fd_sc_hd__tapvpwrvgnd_1
XTAP_TAPCELL_ROW_11_181 VSS VDD sky130_fd_sc_hd__tapvpwrvgnd_1
XTAP_TAPCELL_ROW_11_182 VSS VDD sky130_fd_sc_hd__tapvpwrvgnd_1
XTAP_TAPCELL_ROW_11_183 VSS VDD sky130_fd_sc_hd__tapvpwrvgnd_1
XTAP_TAPCELL_ROW_11_184 VSS VDD sky130_fd_sc_hd__tapvpwrvgnd_1
XTAP_TAPCELL_ROW_11_185 VSS VDD sky130_fd_sc_hd__tapvpwrvgnd_1
XTAP_TAPCELL_ROW_11_186 VSS VDD sky130_fd_sc_hd__tapvpwrvgnd_1
XTAP_TAPCELL_ROW_11_187 VSS VDD sky130_fd_sc_hd__tapvpwrvgnd_1
XTAP_TAPCELL_ROW_12_188 VSS VDD sky130_fd_sc_hd__tapvpwrvgnd_1
XTAP_TAPCELL_ROW_12_189 VSS VDD sky130_fd_sc_hd__tapvpwrvgnd_1
XTAP_TAPCELL_ROW_12_190 VSS VDD sky130_fd_sc_hd__tapvpwrvgnd_1
XTAP_TAPCELL_ROW_12_191 VSS VDD sky130_fd_sc_hd__tapvpwrvgnd_1
XTAP_TAPCELL_ROW_12_192 VSS VDD sky130_fd_sc_hd__tapvpwrvgnd_1
XTAP_TAPCELL_ROW_12_193 VSS VDD sky130_fd_sc_hd__tapvpwrvgnd_1
XTAP_TAPCELL_ROW_12_194 VSS VDD sky130_fd_sc_hd__tapvpwrvgnd_1
XTAP_TAPCELL_ROW_12_195 VSS VDD sky130_fd_sc_hd__tapvpwrvgnd_1
XTAP_TAPCELL_ROW_12_196 VSS VDD sky130_fd_sc_hd__tapvpwrvgnd_1
XTAP_TAPCELL_ROW_12_197 VSS VDD sky130_fd_sc_hd__tapvpwrvgnd_1
XTAP_TAPCELL_ROW_12_198 VSS VDD sky130_fd_sc_hd__tapvpwrvgnd_1
XTAP_TAPCELL_ROW_12_199 VSS VDD sky130_fd_sc_hd__tapvpwrvgnd_1
XTAP_TAPCELL_ROW_12_200 VSS VDD sky130_fd_sc_hd__tapvpwrvgnd_1
XTAP_TAPCELL_ROW_12_201 VSS VDD sky130_fd_sc_hd__tapvpwrvgnd_1
XTAP_TAPCELL_ROW_12_202 VSS VDD sky130_fd_sc_hd__tapvpwrvgnd_1
XTAP_TAPCELL_ROW_13_203 VSS VDD sky130_fd_sc_hd__tapvpwrvgnd_1
XTAP_TAPCELL_ROW_13_204 VSS VDD sky130_fd_sc_hd__tapvpwrvgnd_1
XTAP_TAPCELL_ROW_13_205 VSS VDD sky130_fd_sc_hd__tapvpwrvgnd_1
XTAP_TAPCELL_ROW_13_206 VSS VDD sky130_fd_sc_hd__tapvpwrvgnd_1
XTAP_TAPCELL_ROW_13_207 VSS VDD sky130_fd_sc_hd__tapvpwrvgnd_1
XTAP_TAPCELL_ROW_13_208 VSS VDD sky130_fd_sc_hd__tapvpwrvgnd_1
XTAP_TAPCELL_ROW_13_209 VSS VDD sky130_fd_sc_hd__tapvpwrvgnd_1
XTAP_TAPCELL_ROW_13_210 VSS VDD sky130_fd_sc_hd__tapvpwrvgnd_1
XTAP_TAPCELL_ROW_13_211 VSS VDD sky130_fd_sc_hd__tapvpwrvgnd_1
XTAP_TAPCELL_ROW_13_212 VSS VDD sky130_fd_sc_hd__tapvpwrvgnd_1
XTAP_TAPCELL_ROW_13_213 VSS VDD sky130_fd_sc_hd__tapvpwrvgnd_1
XTAP_TAPCELL_ROW_13_214 VSS VDD sky130_fd_sc_hd__tapvpwrvgnd_1
XTAP_TAPCELL_ROW_13_215 VSS VDD sky130_fd_sc_hd__tapvpwrvgnd_1
XTAP_TAPCELL_ROW_13_216 VSS VDD sky130_fd_sc_hd__tapvpwrvgnd_1
XTAP_TAPCELL_ROW_14_217 VSS VDD sky130_fd_sc_hd__tapvpwrvgnd_1
XTAP_TAPCELL_ROW_14_218 VSS VDD sky130_fd_sc_hd__tapvpwrvgnd_1
XTAP_TAPCELL_ROW_14_219 VSS VDD sky130_fd_sc_hd__tapvpwrvgnd_1
XTAP_TAPCELL_ROW_14_220 VSS VDD sky130_fd_sc_hd__tapvpwrvgnd_1
XTAP_TAPCELL_ROW_14_221 VSS VDD sky130_fd_sc_hd__tapvpwrvgnd_1
XTAP_TAPCELL_ROW_14_222 VSS VDD sky130_fd_sc_hd__tapvpwrvgnd_1
XTAP_TAPCELL_ROW_14_223 VSS VDD sky130_fd_sc_hd__tapvpwrvgnd_1
XTAP_TAPCELL_ROW_14_224 VSS VDD sky130_fd_sc_hd__tapvpwrvgnd_1
XTAP_TAPCELL_ROW_14_225 VSS VDD sky130_fd_sc_hd__tapvpwrvgnd_1
XTAP_TAPCELL_ROW_14_226 VSS VDD sky130_fd_sc_hd__tapvpwrvgnd_1
XTAP_TAPCELL_ROW_14_227 VSS VDD sky130_fd_sc_hd__tapvpwrvgnd_1
XTAP_TAPCELL_ROW_14_228 VSS VDD sky130_fd_sc_hd__tapvpwrvgnd_1
XTAP_TAPCELL_ROW_14_229 VSS VDD sky130_fd_sc_hd__tapvpwrvgnd_1
XTAP_TAPCELL_ROW_14_230 VSS VDD sky130_fd_sc_hd__tapvpwrvgnd_1
XTAP_TAPCELL_ROW_14_231 VSS VDD sky130_fd_sc_hd__tapvpwrvgnd_1
XTAP_TAPCELL_ROW_15_232 VSS VDD sky130_fd_sc_hd__tapvpwrvgnd_1
XTAP_TAPCELL_ROW_15_233 VSS VDD sky130_fd_sc_hd__tapvpwrvgnd_1
XTAP_TAPCELL_ROW_15_234 VSS VDD sky130_fd_sc_hd__tapvpwrvgnd_1
XTAP_TAPCELL_ROW_15_235 VSS VDD sky130_fd_sc_hd__tapvpwrvgnd_1
XTAP_TAPCELL_ROW_15_236 VSS VDD sky130_fd_sc_hd__tapvpwrvgnd_1
XTAP_TAPCELL_ROW_15_237 VSS VDD sky130_fd_sc_hd__tapvpwrvgnd_1
XTAP_TAPCELL_ROW_15_238 VSS VDD sky130_fd_sc_hd__tapvpwrvgnd_1
XTAP_TAPCELL_ROW_15_239 VSS VDD sky130_fd_sc_hd__tapvpwrvgnd_1
XTAP_TAPCELL_ROW_15_240 VSS VDD sky130_fd_sc_hd__tapvpwrvgnd_1
XTAP_TAPCELL_ROW_15_241 VSS VDD sky130_fd_sc_hd__tapvpwrvgnd_1
XTAP_TAPCELL_ROW_15_242 VSS VDD sky130_fd_sc_hd__tapvpwrvgnd_1
XTAP_TAPCELL_ROW_15_243 VSS VDD sky130_fd_sc_hd__tapvpwrvgnd_1
XTAP_TAPCELL_ROW_15_244 VSS VDD sky130_fd_sc_hd__tapvpwrvgnd_1
XTAP_TAPCELL_ROW_15_245 VSS VDD sky130_fd_sc_hd__tapvpwrvgnd_1
XTAP_TAPCELL_ROW_16_246 VSS VDD sky130_fd_sc_hd__tapvpwrvgnd_1
XTAP_TAPCELL_ROW_16_247 VSS VDD sky130_fd_sc_hd__tapvpwrvgnd_1
XTAP_TAPCELL_ROW_16_248 VSS VDD sky130_fd_sc_hd__tapvpwrvgnd_1
XTAP_TAPCELL_ROW_16_249 VSS VDD sky130_fd_sc_hd__tapvpwrvgnd_1
XTAP_TAPCELL_ROW_16_250 VSS VDD sky130_fd_sc_hd__tapvpwrvgnd_1
XTAP_TAPCELL_ROW_16_251 VSS VDD sky130_fd_sc_hd__tapvpwrvgnd_1
XTAP_TAPCELL_ROW_16_252 VSS VDD sky130_fd_sc_hd__tapvpwrvgnd_1
XTAP_TAPCELL_ROW_16_253 VSS VDD sky130_fd_sc_hd__tapvpwrvgnd_1
XTAP_TAPCELL_ROW_16_254 VSS VDD sky130_fd_sc_hd__tapvpwrvgnd_1
XTAP_TAPCELL_ROW_16_255 VSS VDD sky130_fd_sc_hd__tapvpwrvgnd_1
XTAP_TAPCELL_ROW_16_256 VSS VDD sky130_fd_sc_hd__tapvpwrvgnd_1
XTAP_TAPCELL_ROW_16_257 VSS VDD sky130_fd_sc_hd__tapvpwrvgnd_1
XTAP_TAPCELL_ROW_16_258 VSS VDD sky130_fd_sc_hd__tapvpwrvgnd_1
XTAP_TAPCELL_ROW_16_259 VSS VDD sky130_fd_sc_hd__tapvpwrvgnd_1
XTAP_TAPCELL_ROW_16_260 VSS VDD sky130_fd_sc_hd__tapvpwrvgnd_1
XTAP_TAPCELL_ROW_17_261 VSS VDD sky130_fd_sc_hd__tapvpwrvgnd_1
XTAP_TAPCELL_ROW_17_262 VSS VDD sky130_fd_sc_hd__tapvpwrvgnd_1
XTAP_TAPCELL_ROW_17_263 VSS VDD sky130_fd_sc_hd__tapvpwrvgnd_1
XTAP_TAPCELL_ROW_17_264 VSS VDD sky130_fd_sc_hd__tapvpwrvgnd_1
XTAP_TAPCELL_ROW_17_265 VSS VDD sky130_fd_sc_hd__tapvpwrvgnd_1
XTAP_TAPCELL_ROW_17_266 VSS VDD sky130_fd_sc_hd__tapvpwrvgnd_1
XTAP_TAPCELL_ROW_17_267 VSS VDD sky130_fd_sc_hd__tapvpwrvgnd_1
XTAP_TAPCELL_ROW_17_268 VSS VDD sky130_fd_sc_hd__tapvpwrvgnd_1
XTAP_TAPCELL_ROW_17_269 VSS VDD sky130_fd_sc_hd__tapvpwrvgnd_1
XTAP_TAPCELL_ROW_17_270 VSS VDD sky130_fd_sc_hd__tapvpwrvgnd_1
XTAP_TAPCELL_ROW_17_271 VSS VDD sky130_fd_sc_hd__tapvpwrvgnd_1
XTAP_TAPCELL_ROW_17_272 VSS VDD sky130_fd_sc_hd__tapvpwrvgnd_1
XTAP_TAPCELL_ROW_17_273 VSS VDD sky130_fd_sc_hd__tapvpwrvgnd_1
XTAP_TAPCELL_ROW_17_274 VSS VDD sky130_fd_sc_hd__tapvpwrvgnd_1
XTAP_TAPCELL_ROW_18_275 VSS VDD sky130_fd_sc_hd__tapvpwrvgnd_1
XTAP_TAPCELL_ROW_18_276 VSS VDD sky130_fd_sc_hd__tapvpwrvgnd_1
XTAP_TAPCELL_ROW_18_277 VSS VDD sky130_fd_sc_hd__tapvpwrvgnd_1
XTAP_TAPCELL_ROW_18_278 VSS VDD sky130_fd_sc_hd__tapvpwrvgnd_1
XTAP_TAPCELL_ROW_18_279 VSS VDD sky130_fd_sc_hd__tapvpwrvgnd_1
XTAP_TAPCELL_ROW_18_280 VSS VDD sky130_fd_sc_hd__tapvpwrvgnd_1
XTAP_TAPCELL_ROW_18_281 VSS VDD sky130_fd_sc_hd__tapvpwrvgnd_1
XTAP_TAPCELL_ROW_18_282 VSS VDD sky130_fd_sc_hd__tapvpwrvgnd_1
XTAP_TAPCELL_ROW_18_283 VSS VDD sky130_fd_sc_hd__tapvpwrvgnd_1
XTAP_TAPCELL_ROW_18_284 VSS VDD sky130_fd_sc_hd__tapvpwrvgnd_1
XTAP_TAPCELL_ROW_18_285 VSS VDD sky130_fd_sc_hd__tapvpwrvgnd_1
XTAP_TAPCELL_ROW_18_286 VSS VDD sky130_fd_sc_hd__tapvpwrvgnd_1
XTAP_TAPCELL_ROW_18_287 VSS VDD sky130_fd_sc_hd__tapvpwrvgnd_1
XTAP_TAPCELL_ROW_18_288 VSS VDD sky130_fd_sc_hd__tapvpwrvgnd_1
XTAP_TAPCELL_ROW_18_289 VSS VDD sky130_fd_sc_hd__tapvpwrvgnd_1
XTAP_TAPCELL_ROW_19_290 VSS VDD sky130_fd_sc_hd__tapvpwrvgnd_1
XTAP_TAPCELL_ROW_19_291 VSS VDD sky130_fd_sc_hd__tapvpwrvgnd_1
XTAP_TAPCELL_ROW_19_292 VSS VDD sky130_fd_sc_hd__tapvpwrvgnd_1
XTAP_TAPCELL_ROW_19_293 VSS VDD sky130_fd_sc_hd__tapvpwrvgnd_1
XTAP_TAPCELL_ROW_19_294 VSS VDD sky130_fd_sc_hd__tapvpwrvgnd_1
XTAP_TAPCELL_ROW_19_295 VSS VDD sky130_fd_sc_hd__tapvpwrvgnd_1
XTAP_TAPCELL_ROW_19_296 VSS VDD sky130_fd_sc_hd__tapvpwrvgnd_1
XTAP_TAPCELL_ROW_19_297 VSS VDD sky130_fd_sc_hd__tapvpwrvgnd_1
XTAP_TAPCELL_ROW_19_298 VSS VDD sky130_fd_sc_hd__tapvpwrvgnd_1
XTAP_TAPCELL_ROW_19_299 VSS VDD sky130_fd_sc_hd__tapvpwrvgnd_1
XTAP_TAPCELL_ROW_19_300 VSS VDD sky130_fd_sc_hd__tapvpwrvgnd_1
XTAP_TAPCELL_ROW_19_301 VSS VDD sky130_fd_sc_hd__tapvpwrvgnd_1
XTAP_TAPCELL_ROW_19_302 VSS VDD sky130_fd_sc_hd__tapvpwrvgnd_1
XTAP_TAPCELL_ROW_19_303 VSS VDD sky130_fd_sc_hd__tapvpwrvgnd_1
XTAP_TAPCELL_ROW_20_304 VSS VDD sky130_fd_sc_hd__tapvpwrvgnd_1
XTAP_TAPCELL_ROW_20_305 VSS VDD sky130_fd_sc_hd__tapvpwrvgnd_1
XTAP_TAPCELL_ROW_20_306 VSS VDD sky130_fd_sc_hd__tapvpwrvgnd_1
XTAP_TAPCELL_ROW_20_307 VSS VDD sky130_fd_sc_hd__tapvpwrvgnd_1
XTAP_TAPCELL_ROW_20_308 VSS VDD sky130_fd_sc_hd__tapvpwrvgnd_1
XTAP_TAPCELL_ROW_20_309 VSS VDD sky130_fd_sc_hd__tapvpwrvgnd_1
XTAP_TAPCELL_ROW_20_310 VSS VDD sky130_fd_sc_hd__tapvpwrvgnd_1
XTAP_TAPCELL_ROW_20_311 VSS VDD sky130_fd_sc_hd__tapvpwrvgnd_1
XTAP_TAPCELL_ROW_20_312 VSS VDD sky130_fd_sc_hd__tapvpwrvgnd_1
XTAP_TAPCELL_ROW_20_313 VSS VDD sky130_fd_sc_hd__tapvpwrvgnd_1
XTAP_TAPCELL_ROW_20_314 VSS VDD sky130_fd_sc_hd__tapvpwrvgnd_1
XTAP_TAPCELL_ROW_20_315 VSS VDD sky130_fd_sc_hd__tapvpwrvgnd_1
XTAP_TAPCELL_ROW_20_316 VSS VDD sky130_fd_sc_hd__tapvpwrvgnd_1
XTAP_TAPCELL_ROW_20_317 VSS VDD sky130_fd_sc_hd__tapvpwrvgnd_1
XTAP_TAPCELL_ROW_20_318 VSS VDD sky130_fd_sc_hd__tapvpwrvgnd_1
XTAP_TAPCELL_ROW_21_319 VSS VDD sky130_fd_sc_hd__tapvpwrvgnd_1
XTAP_TAPCELL_ROW_21_320 VSS VDD sky130_fd_sc_hd__tapvpwrvgnd_1
XTAP_TAPCELL_ROW_21_321 VSS VDD sky130_fd_sc_hd__tapvpwrvgnd_1
XTAP_TAPCELL_ROW_21_322 VSS VDD sky130_fd_sc_hd__tapvpwrvgnd_1
XTAP_TAPCELL_ROW_21_323 VSS VDD sky130_fd_sc_hd__tapvpwrvgnd_1
XTAP_TAPCELL_ROW_21_324 VSS VDD sky130_fd_sc_hd__tapvpwrvgnd_1
XTAP_TAPCELL_ROW_21_325 VSS VDD sky130_fd_sc_hd__tapvpwrvgnd_1
XTAP_TAPCELL_ROW_21_326 VSS VDD sky130_fd_sc_hd__tapvpwrvgnd_1
XTAP_TAPCELL_ROW_21_327 VSS VDD sky130_fd_sc_hd__tapvpwrvgnd_1
XTAP_TAPCELL_ROW_21_328 VSS VDD sky130_fd_sc_hd__tapvpwrvgnd_1
XTAP_TAPCELL_ROW_21_329 VSS VDD sky130_fd_sc_hd__tapvpwrvgnd_1
XTAP_TAPCELL_ROW_21_330 VSS VDD sky130_fd_sc_hd__tapvpwrvgnd_1
XTAP_TAPCELL_ROW_21_331 VSS VDD sky130_fd_sc_hd__tapvpwrvgnd_1
XTAP_TAPCELL_ROW_21_332 VSS VDD sky130_fd_sc_hd__tapvpwrvgnd_1
XTAP_TAPCELL_ROW_22_333 VSS VDD sky130_fd_sc_hd__tapvpwrvgnd_1
XTAP_TAPCELL_ROW_22_334 VSS VDD sky130_fd_sc_hd__tapvpwrvgnd_1
XTAP_TAPCELL_ROW_22_335 VSS VDD sky130_fd_sc_hd__tapvpwrvgnd_1
XTAP_TAPCELL_ROW_22_336 VSS VDD sky130_fd_sc_hd__tapvpwrvgnd_1
XTAP_TAPCELL_ROW_22_337 VSS VDD sky130_fd_sc_hd__tapvpwrvgnd_1
XTAP_TAPCELL_ROW_22_338 VSS VDD sky130_fd_sc_hd__tapvpwrvgnd_1
XTAP_TAPCELL_ROW_22_339 VSS VDD sky130_fd_sc_hd__tapvpwrvgnd_1
XTAP_TAPCELL_ROW_22_340 VSS VDD sky130_fd_sc_hd__tapvpwrvgnd_1
XTAP_TAPCELL_ROW_22_341 VSS VDD sky130_fd_sc_hd__tapvpwrvgnd_1
XTAP_TAPCELL_ROW_22_342 VSS VDD sky130_fd_sc_hd__tapvpwrvgnd_1
XTAP_TAPCELL_ROW_22_343 VSS VDD sky130_fd_sc_hd__tapvpwrvgnd_1
XTAP_TAPCELL_ROW_22_344 VSS VDD sky130_fd_sc_hd__tapvpwrvgnd_1
XTAP_TAPCELL_ROW_22_345 VSS VDD sky130_fd_sc_hd__tapvpwrvgnd_1
XTAP_TAPCELL_ROW_22_346 VSS VDD sky130_fd_sc_hd__tapvpwrvgnd_1
XTAP_TAPCELL_ROW_22_347 VSS VDD sky130_fd_sc_hd__tapvpwrvgnd_1
XTAP_TAPCELL_ROW_23_348 VSS VDD sky130_fd_sc_hd__tapvpwrvgnd_1
XTAP_TAPCELL_ROW_23_349 VSS VDD sky130_fd_sc_hd__tapvpwrvgnd_1
XTAP_TAPCELL_ROW_23_350 VSS VDD sky130_fd_sc_hd__tapvpwrvgnd_1
XTAP_TAPCELL_ROW_23_351 VSS VDD sky130_fd_sc_hd__tapvpwrvgnd_1
XTAP_TAPCELL_ROW_23_352 VSS VDD sky130_fd_sc_hd__tapvpwrvgnd_1
XTAP_TAPCELL_ROW_23_353 VSS VDD sky130_fd_sc_hd__tapvpwrvgnd_1
XTAP_TAPCELL_ROW_23_354 VSS VDD sky130_fd_sc_hd__tapvpwrvgnd_1
XTAP_TAPCELL_ROW_23_355 VSS VDD sky130_fd_sc_hd__tapvpwrvgnd_1
XTAP_TAPCELL_ROW_23_356 VSS VDD sky130_fd_sc_hd__tapvpwrvgnd_1
XTAP_TAPCELL_ROW_23_357 VSS VDD sky130_fd_sc_hd__tapvpwrvgnd_1
XTAP_TAPCELL_ROW_23_358 VSS VDD sky130_fd_sc_hd__tapvpwrvgnd_1
XTAP_TAPCELL_ROW_23_359 VSS VDD sky130_fd_sc_hd__tapvpwrvgnd_1
XTAP_TAPCELL_ROW_23_360 VSS VDD sky130_fd_sc_hd__tapvpwrvgnd_1
XTAP_TAPCELL_ROW_23_361 VSS VDD sky130_fd_sc_hd__tapvpwrvgnd_1
XTAP_TAPCELL_ROW_24_362 VSS VDD sky130_fd_sc_hd__tapvpwrvgnd_1
XTAP_TAPCELL_ROW_24_363 VSS VDD sky130_fd_sc_hd__tapvpwrvgnd_1
XTAP_TAPCELL_ROW_24_364 VSS VDD sky130_fd_sc_hd__tapvpwrvgnd_1
XTAP_TAPCELL_ROW_24_365 VSS VDD sky130_fd_sc_hd__tapvpwrvgnd_1
XTAP_TAPCELL_ROW_24_366 VSS VDD sky130_fd_sc_hd__tapvpwrvgnd_1