
* cell multi_phase_pwm_controller
* pin duty[3]
* pin deadtime[2]
* pin deadtime[3]
* pin duty[7]
* pin duty[6]
* pin deadtime[1]
* pin deadtime[4]
* pin deadtime[5]
* pin duty[5]
* pin duty[4]
* pin duty[0]
* pin deadtime[0]
* pin duty[1]
* pin duty[2]
* pin pwm_p_out[2]
* pin pwm_p_out[1]
* pin pwm_n_out[2]
* pin clk
* pin rst_n
* pin pwm_n_out[0]
* pin pwm_n_out[1]
* pin enable
* pin pwm_p_out[0]
.SUBCKT multi_phase_pwm_controller 1 2 3 55 57 62 78 103 117 118 170 171 362
+ 406 427 447 457 478 487 500 502 504 505
* net 1 duty[3]
* net 2 deadtime[2]
* net 3 deadtime[3]
* net 55 duty[7]
* net 57 duty[6]
* net 62 deadtime[1]
* net 78 deadtime[4]
* net 103 deadtime[5]
* net 117 duty[5]
* net 118 duty[4]
* net 170 duty[0]
* net 171 deadtime[0]
* net 362 duty[1]
* net 406 duty[2]
* net 427 pwm_p_out[2]
* net 447 pwm_p_out[1]
* net 457 pwm_n_out[2]
* net 478 clk
* net 487 rst_n
* net 500 pwm_n_out[0]
* net 502 pwm_n_out[1]
* net 504 enable
* net 505 pwm_p_out[0]
* cell instance $3 r0 *1 23.92,2.72
X$3 34 1 34 6 13 6 sky130_fd_sc_hd__clkbuf_2
* cell instance $6 r0 *1 27.14,2.72
X$6 34 2 14 6 34 6 sky130_fd_sc_hd__clkbuf_1
* cell instance $9 r0 *1 45.54,2.72
X$9 34 3 8 6 34 6 sky130_fd_sc_hd__clkbuf_1
* cell instance $13 r0 *1 18.4,2.72
X$13 6 21 4 28 12 34 34 6 sky130_fd_sc_hd__ha_2
* cell instance $16 r0 *1 29.44,2.72
X$16 34 4 34 6 15 6 sky130_fd_sc_hd__inv_1
* cell instance $18 r0 *1 21.62,8.16
X$18 34 4 21 74 6 34 51 6 sky130_fd_sc_hd__a21oi_1
* cell instance $24 r0 *1 50.6,2.72
X$24 34 5 24 10 6 34 6 sky130_fd_sc_hd__nor2_1
* cell instance $27 r0 *1 60.72,2.72
X$27 34 5 34 6 17 6 sky130_fd_sc_hd__clkinvlp_4
* cell instance $30 m0 *1 60.26,19.04
X$30 6 135 77 5 34 34 6 sky130_fd_sc_hd__xnor2_2
* cell instance $33 r0 *1 62.1,13.6
X$33 6 5 82 102 88 34 34 6 sky130_fd_sc_hd__ha_2
* cell instance $36 m0 *1 48.3,13.6
X$36 34 66 5 50 34 6 84 6 sky130_fd_sc_hd__o21ai_1
* cell instance $56 r0 *1 25.76,2.72
X$56 34 14 34 6 12 6 sky130_fd_sc_hd__inv_1
* cell instance $59 r0 *1 30.82,2.72
X$59 6 15 61 7 11 34 34 6 sky130_fd_sc_hd__and3_1
* cell instance $61 r0 *1 36.8,2.72
X$61 34 38 9 25 6 34 6 sky130_fd_sc_hd__nor2_1
* cell instance $67 r0 *1 43.7,2.72
X$67 34 8 34 6 26 6 sky130_fd_sc_hd__inv_1
* cell instance $70 r0 *1 47.38,2.72
X$70 34 24 34 6 7 6 sky130_fd_sc_hd__clkinvlp_4
* cell instance $73 r0 *1 52.9,2.72
X$73 6 10 17 22 16 9 23 34 34 6 sky130_fd_sc_hd__a221o_1
* cell instance $76 r0 *1 63.48,2.72
X$76 34 54 18 31 16 34 6 6 sky130_fd_sc_hd__or3_1
* cell instance $81 r0 *1 70.84,2.72
X$81 34 20 34 6 19 6 sky130_fd_sc_hd__inv_1
* cell instance $93 m0 *1 7.36,8.16
X$93 34 43 34 6 27 6 sky130_fd_sc_hd__inv_1
* cell instance $95 m0 *1 9.2,8.16
X$95 34 73 44 37 6 34 6 sky130_fd_sc_hd__nor2b_1
* cell instance $96 m0 *1 11.5,8.16
X$96 34 27 21 45 34 9 6 6 sky130_fd_sc_hd__a21oi_2
* cell instance $97 m0 *1 14.72,8.16
X$97 34 46 21 37 34 6 11 6 sky130_fd_sc_hd__o21ai_1
* cell instance $98 m0 *1 16.56,8.16
X$98 6 193 49 21 34 34 6 sky130_fd_sc_hd__xnor2_2
* cell instance $100 m0 *1 23.46,8.16
X$100 6 512 38 14 28 34 34 6 sky130_fd_sc_hd__ha_1
* cell instance $104 m0 *1 29.9,8.16
X$104 34 7 15 11 6 34 50 6 sky130_fd_sc_hd__a21oi_1
* cell instance $106 m0 *1 32.2,8.16
X$106 34 7 60 38 34 52 6 6 sky130_fd_sc_hd__o21a_1
* cell instance $108 m0 *1 35.42,8.16
X$108 6 47 25 7 34 34 6 sky130_fd_sc_hd__xnor2_2
* cell instance $110 m0 *1 42.32,8.16
X$110 6 509 39 8 13 34 34 6 sky130_fd_sc_hd__ha_1
* cell instance $111 m0 *1 46.92,8.16
X$111 34 7 38 39 6 34 23 6 sky130_fd_sc_hd__a21o_1
* cell instance $113 m0 *1 50.14,8.16
X$113 34 39 52 17 34 36 6 6 sky130_fd_sc_hd__o21ai_0
* cell instance $114 m0 *1 51.98,8.16
X$114 6 9 10 29 17 23 34 34 6 sky130_fd_sc_hd__a22oi_2
* cell instance $116 m0 *1 57.04,8.16
X$116 6 20 40 29 22 30 34 35 34 6 sky130_fd_sc_hd__o311ai_4
* cell instance $117 m0 *1 66.7,8.16
X$117 6 30 41 40 42 32 34 34 6 sky130_fd_sc_hd__a2bb2oi_1
* cell instance $118 m0 *1 69.92,8.16
X$118 34 31 19 54 6 34 42 6 sky130_fd_sc_hd__a21oi_1
* cell instance $119 m0 *1 71.76,8.16
X$119 34 19 31 33 34 32 6 6 sky130_fd_sc_hd__o21ai_0
* cell instance $121 m0 *1 74.52,8.16
X$121 34 78 56 6 34 6 sky130_fd_sc_hd__clkbuf_1
* cell instance $124 r0 *1 2.3,8.16
X$124 6 519 43 79 48 34 34 6 sky130_fd_sc_hd__ha_1
* cell instance $127 r0 *1 9.2,8.16
X$127 6 44 46 58 48 34 34 6 sky130_fd_sc_hd__ha_1
* cell instance $135 r0 *1 19.32,8.16
X$135 34 21 49 60 6 34 6 sky130_fd_sc_hd__nor2b_1
* cell instance $139 r0 *1 26.68,8.16
X$139 6 69 70 59 26 34 34 6 sky130_fd_sc_hd__ha_1
* cell instance $142 r0 *1 32.66,8.16
X$142 34 50 61 71 6 34 6 sky130_fd_sc_hd__nor2_1
* cell instance $145 r0 *1 36.8,8.16
X$145 34 7 51 67 6 34 6 sky130_fd_sc_hd__nor2_1
* cell instance $152 r0 *1 43.24,8.16
X$152 6 24 66 26 13 34 34 6 sky130_fd_sc_hd__ha_1
* cell instance $155 r0 *1 50.14,8.16
X$155 34 39 52 89 6 34 6 sky130_fd_sc_hd__nor2_1
* cell instance $158 r0 *1 58.88,8.16
X$158 34 53 29 85 34 6 6 sky130_fd_sc_hd__nand2_1
* cell instance $160 r0 *1 60.72,8.16
X$160 34 20 53 36 6 34 65 6 sky130_fd_sc_hd__a21oi_1
* cell instance $161 r0 *1 62.56,8.16
X$161 34 54 34 6 53 6 sky130_fd_sc_hd__inv_1
* cell instance $163 r0 *1 64.86,8.16
X$163 34 41 6 34 18 6 sky130_fd_sc_hd__inv_2
* cell instance $164 r0 *1 66.24,8.16
X$164 34 33 18 40 34 6 6 sky130_fd_sc_hd__nand2_1
* cell instance $166 r0 *1 68.08,8.16
X$166 34 55 6 41 34 6 sky130_fd_sc_hd__buf_2
* cell instance $172 r0 *1 70.84,8.16
X$172 6 515 54 56 102 34 34 6 sky130_fd_sc_hd__ha_1
* cell instance $175 m0 *1 3.22,13.6
X$175 34 62 34 6 79 6 sky130_fd_sc_hd__clkbuf_2
* cell instance $177 m0 *1 5.98,13.6
X$177 34 79 34 6 58 6 sky130_fd_sc_hd__clkinvlp_4
* cell instance $178 m0 *1 8.74,13.6
X$178 34 72 44 45 6 34 6 sky130_fd_sc_hd__nand2b_1
* cell instance $179 m0 *1 11.04,13.6
X$179 34 73 34 6 80 6 sky130_fd_sc_hd__inv_1
* cell instance $180 m0 *1 12.42,13.6
X$180 6 74 104 58 80 48 34 34 6 sky130_fd_sc_hd__fa_1
* cell instance $181 m0 *1 19.78,13.6
X$181 6 21 74 83 34 34 6 sky130_fd_sc_hd__xor2_2
* cell instance $183 m0 *1 27.6,13.6
X$183 34 70 106 86 6 34 6 sky130_fd_sc_hd__nor2_1
* cell instance $185 m0 *1 29.44,13.6
X$185 34 69 70 87 34 109 6 6 sky130_fd_sc_hd__o21ai_0
* cell instance $186 m0 *1 31.28,13.6
X$186 6 87 75 90 88 34 34 6 sky130_fd_sc_hd__ha_1
* cell instance $187 m0 *1 35.88,13.6
X$187 6 76 75 63 96 124 34 34 6 sky130_fd_sc_hd__o31a_1
* cell instance $188 m0 *1 39.1,13.6
X$188 34 92 63 111 6 34 6 sky130_fd_sc_hd__nor2_1
* cell instance $189 m0 *1 40.48,13.6
X$189 6 92 63 91 68 34 34 6 sky130_fd_sc_hd__ha_1
* cell instance $191 m0 *1 46,13.6
X$191 34 66 67 77 6 34 6 sky130_fd_sc_hd__nor2_1
* cell instance $193 m0 *1 50.14,13.6
X$193 6 112 89 17 34 34 6 sky130_fd_sc_hd__xnor2_2
* cell instance $196 m0 *1 57.04,13.6
X$196 6 110 85 20 34 34 6 sky130_fd_sc_hd__xnor2_2
* cell instance $197 m0 *1 63.02,13.6
X$197 34 31 65 108 6 34 6 sky130_fd_sc_hd__nor2_1
* cell instance $198 m0 *1 64.4,13.6
X$198 34 82 17 77 34 6 107 6 sky130_fd_sc_hd__o21bai_1
* cell instance $199 m0 *1 67.16,13.6
X$199 34 56 34 6 88 6 sky130_fd_sc_hd__inv_1
* cell instance $200 m0 *1 68.54,13.6
X$200 6 506 31 64 81 34 34 6 sky130_fd_sc_hd__ha_1
* cell instance $201 m0 *1 73.14,13.6
X$201 34 64 34 6 68 6 sky130_fd_sc_hd__inv_1
* cell instance $203 m0 *1 74.98,13.6
X$203 34 103 64 6 34 6 sky130_fd_sc_hd__clkbuf_1
* cell instance $204 r0 *1 1.38,13.6
X$204 6 49 120 79 72 48 34 34 6 sky130_fd_sc_hd__fa_1
* cell instance $211 r0 *1 15.64,13.6
X$211 6 113 119 153 58 34 34 6 sky130_fd_sc_hd__ha_1
* cell instance $213 r0 *1 20.7,13.6
X$213 34 119 121 93 34 94 6 6 sky130_fd_sc_hd__o21ai_0
* cell instance $214 r0 *1 22.54,13.6
X$214 6 93 106 105 12 34 34 6 sky130_fd_sc_hd__ha_1
* cell instance $215 r0 *1 27.14,13.6
X$215 6 87 93 95 126 69 34 34 6 sky130_fd_sc_hd__and4b_1
* cell instance $216 r0 *1 30.82,13.6
X$216 34 109 94 86 6 34 96 6 sky130_fd_sc_hd__a21oi_1
* cell instance $219 r0 *1 34.96,13.6
X$219 34 95 92 113 111 6 34 124 6 sky130_fd_sc_hd__a31oi_1
* cell instance $221 r0 *1 38.18,13.6
X$221 6 97 101 26 123 34 34 6 sky130_fd_sc_hd__ha_1
* cell instance $228 r0 *1 46.46,13.6
X$228 34 100 101 99 98 34 125 6 6 sky130_fd_sc_hd__a211o_1
* cell instance $230 r0 *1 50.14,13.6
X$230 6 98 100 68 180 34 34 6 sky130_fd_sc_hd__ha_1
* cell instance $233 r0 *1 56.12,13.6
X$233 6 122 108 33 34 34 6 sky130_fd_sc_hd__xnor2_2
* cell instance $234 r0 *1 67.62,13.6
X$234 34 33 131 82 150 6 34 6 sky130_fd_sc_hd__nor3_1
* cell instance $241 r0 *1 73.6,13.6
X$241 34 57 6 33 34 6 sky130_fd_sc_hd__clkbuf_4
* cell instance $250 m0 *1 13.8,19.04
X$250 6 511 128 133 58 34 34 6 sky130_fd_sc_hd__ha_1
* cell instance $253 m0 *1 20.7,19.04
X$253 34 114 113 121 6 34 6 sky130_fd_sc_hd__nor2b_1
* cell instance $255 m0 *1 24.84,19.04
X$255 34 127 128 134 6 34 115 6 sky130_fd_sc_hd__a21o_1
* cell instance $262 m0 *1 37.26,19.04
X$262 34 113 97 127 129 6 34 6 sky130_fd_sc_hd__nand3b_1
* cell instance $263 m0 *1 40.02,19.04
X$263 34 114 129 116 34 136 6 6 sky130_fd_sc_hd__o21ai_0
* cell instance $264 m0 *1 41.86,19.04
X$264 34 125 97 115 6 34 116 6 sky130_fd_sc_hd__a21oi_1
* cell instance $267 m0 *1 45.08,19.04
X$267 34 130 100 152 129 137 6 34 6 sky130_fd_sc_hd__o22a_1
* cell instance $269 m0 *1 48.76,19.04
X$269 34 98 146 99 34 130 6 6 sky130_fd_sc_hd__o21a_1
* cell instance $277 m0 *1 66.24,19.04
X$277 34 33 20 131 151 6 34 6 sky130_fd_sc_hd__nor3_1
* cell instance $279 m0 *1 68.54,19.04
X$279 6 132 148 20 34 34 6 sky130_fd_sc_hd__xnor2_2
* cell instance $280 m0 *1 74.52,19.04
X$280 34 117 34 6 81 6 sky130_fd_sc_hd__clkbuf_2
* cell instance $281 r0 *1 1.38,19.04
X$281 6 514 72 138 172 34 34 6 sky130_fd_sc_hd__ha_1
* cell instance $284 r0 *1 10.58,19.04
X$284 6 126 140 149 138 34 34 6 sky130_fd_sc_hd__ha_1
* cell instance $292 r0 *1 18.86,19.04
X$292 34 140 139 188 6 34 6 sky130_fd_sc_hd__nor2b_1
* cell instance $293 r0 *1 21.16,19.04
X$293 6 127 134 12 141 34 34 6 sky130_fd_sc_hd__ha_1
* cell instance $294 r0 *1 25.76,19.04
X$294 6 155 168 26 169 34 34 6 sky130_fd_sc_hd__ha_1
* cell instance $295 r0 *1 30.36,19.04
X$295 34 126 142 139 143 34 6 6 sky130_fd_sc_hd__nand3_1
* cell instance $296 r0 *1 32.2,19.04
X$296 34 156 143 144 142 167 6 34 6 sky130_fd_sc_hd__o22ai_1
* cell instance $297 r0 *1 34.5,19.04
X$297 6 142 144 68 165 34 34 6 sky130_fd_sc_hd__ha_1
* cell instance $304 r0 *1 45.08,19.04
X$304 34 145 136 137 6 34 147 6 sky130_fd_sc_hd__a21oi_1
* cell instance $305 r0 *1 46.92,19.04
X$305 34 126 146 98 152 6 34 6 sky130_fd_sc_hd__nand3b_1
* cell instance $306 r0 *1 49.68,19.04
X$306 6 146 99 88 162 34 34 6 sky130_fd_sc_hd__ha_1
* cell instance $311 r0 *1 64.4,19.04
X$311 34 131 20 107 6 34 256 6 sky130_fd_sc_hd__a21oi_1
* cell instance $312 r0 *1 66.24,19.04
X$312 34 151 84 150 6 34 183 6 sky130_fd_sc_hd__a21oi_1
* cell instance $313 r0 *1 68.08,19.04
X$313 34 82 84 148 6 34 6 sky130_fd_sc_hd__nor2b_1
* cell instance $318 r0 *1 70.84,19.04
X$318 6 161 131 68 81 34 34 6 sky130_fd_sc_hd__ha_1
* cell instance $320 m0 *1 1.38,24.48
X$320 34 171 138 6 34 6 sky130_fd_sc_hd__clkbuf_1
* cell instance $323 m0 *1 6.9,24.48
X$323 6 195 73 138 184 34 34 6 sky130_fd_sc_hd__ha_1
* cell instance $326 m0 *1 12.88,24.48
X$326 6 139 154 58 186 34 34 6 sky130_fd_sc_hd__ha_1
* cell instance $327 m0 *1 17.48,24.48
X$327 34 133 34 6 153 6 sky130_fd_sc_hd__inv_1
* cell instance $329 m0 *1 19.32,24.48
X$329 34 156 154 188 34 6 196 6 sky130_fd_sc_hd__o21bai_1
* cell instance $330 m0 *1 22.08,24.48
X$330 6 189 190 12 166 34 34 6 sky130_fd_sc_hd__ha_1
* cell instance $331 m0 *1 26.68,24.48
X$331 34 155 174 189 156 34 6 6 sky130_fd_sc_hd__nand3_1
* cell instance $334 m0 *1 29.44,24.48
X$334 6 174 207 88 157 34 34 6 sky130_fd_sc_hd__ha_1
* cell instance $336 m0 *1 34.5,24.48
X$336 6 194 177 141 193 34 34 6 sky130_fd_sc_hd__ha_1
* cell instance $337 m0 *1 39.1,24.48
X$337 6 160 164 123 47 34 34 6 sky130_fd_sc_hd__ha_1
* cell instance $338 m0 *1 43.7,24.48
X$338 34 177 160 158 164 6 159 34 6 sky130_fd_sc_hd__a211oi_1
* cell instance $339 m0 *1 46.46,24.48
X$339 34 178 160 179 194 34 163 6 6 sky130_fd_sc_hd__nand4_1
* cell instance $340 m0 *1 48.76,24.48
X$340 34 158 178 179 34 192 6 6 sky130_fd_sc_hd__o21ai_0
* cell instance $341 m0 *1 50.6,24.48
X$341 6 179 203 180 110 34 34 6 sky130_fd_sc_hd__ha_1
* cell instance $345 m0 *1 57.04,24.48
X$345 6 187 185 91 110 34 34 6 sky130_fd_sc_hd__ha_1
* cell instance $347 m0 *1 62.56,24.48
X$347 6 182 183 41 34 34 6 sky130_fd_sc_hd__xnor2_2
* cell instance $348 m0 *1 68.54,24.48
X$348 34 161 6 20 34 6 sky130_fd_sc_hd__clkbuf_4
* cell instance $351 m0 *1 72.68,24.48
X$351 34 118 34 6 102 6 sky130_fd_sc_hd__clkbuf_2
* cell instance $355 r0 *1 2.76,24.48
X$355 34 170 172 6 34 6 sky130_fd_sc_hd__clkbuf_1
* cell instance $356 r0 *1 4.14,24.48
X$356 34 172 34 6 184 6 sky130_fd_sc_hd__inv_1
* cell instance $357 r0 *1 5.52,24.48
X$357 34 173 34 6 149 6 sky130_fd_sc_hd__inv_1
* cell instance $364 r0 *1 16.56,24.48
X$364 6 518 114 173 138 34 34 6 sky130_fd_sc_hd__ha_1
* cell instance $367 r0 *1 25.3,24.48
X$367 34 155 190 168 6 34 175 6 sky130_fd_sc_hd__a21o_1
* cell instance $368 r0 *1 28.06,24.48
X$368 34 174 175 191 34 6 6 sky130_fd_sc_hd__nand2_1
* cell instance $369 r0 *1 29.44,24.48
X$369 34 176 191 196 167 6 34 208 6 sky130_fd_sc_hd__a31oi_1
* cell instance $372 r0 *1 33.12,24.48
X$372 34 207 144 176 6 34 6 sky130_fd_sc_hd__nor2_1
* cell instance $380 r0 *1 47.84,24.48
X$380 6 178 158 162 112 34 34 6 sky130_fd_sc_hd__ha_1
* cell instance $381 r0 *1 52.44,24.48
X$381 34 203 34 6 198 6 sky130_fd_sc_hd__inv_1
* cell instance $382 r0 *1 53.82,24.48
X$382 6 206 181 90 112 34 34 6 sky130_fd_sc_hd__ha_1
* cell instance $384 r0 *1 59.34,24.48
X$384 34 181 187 185 6 34 202 6 sky130_fd_sc_hd__a21o_1
* cell instance $387 r0 *1 64.4,24.48
X$387 6 201 200 91 132 34 34 6 sky130_fd_sc_hd__ha_1
* cell instance $401 m0 *1 2.3,29.92
X$401 6 508 371 149 172 34 34 6 sky130_fd_sc_hd__ha_1
* cell instance $403 m0 *1 7.36,29.92
X$403 6 510 226 173 195 34 34 6 sky130_fd_sc_hd__ha_1
* cell instance $405 m0 *1 12.42,29.92
X$405 6 210 222 153 120 34 34 6 sky130_fd_sc_hd__ha_1
* cell instance $406 m0 *1 17.02,29.92
X$406 34 222 235 224 34 213 6 6 sky130_fd_sc_hd__o21ai_0
* cell instance $408 m0 *1 19.32,29.92
X$408 6 224 212 105 193 34 34 6 sky130_fd_sc_hd__ha_1
* cell instance $409 m0 *1 23.92,29.92
X$409 34 213 212 225 6 34 6 sky130_fd_sc_hd__nand2b_1
* cell instance $415 m0 *1 32.2,29.92
X$415 6 205 240 59 47 34 34 6 sky130_fd_sc_hd__ha_1
* cell instance $419 m0 *1 47.84,29.92
X$419 34 198 159 197 163 192 209 34 6 6 sky130_fd_sc_hd__o221ai_1
* cell instance $423 m0 *1 54.28,29.92
X$423 34 187 215 216 206 34 204 6 6 sky130_fd_sc_hd__nand4_1
* cell instance $425 m0 *1 57.04,29.92
X$425 34 217 216 202 6 34 236 6 sky130_fd_sc_hd__a21oi_1
* cell instance $426 m0 *1 58.88,29.92
X$426 6 216 217 223 122 34 34 6 sky130_fd_sc_hd__ha_1
* cell instance $428 m0 *1 65.32,29.92
X$428 6 233 221 90 135 34 34 6 sky130_fd_sc_hd__ha_1
* cell instance $429 m0 *1 69.92,29.92
X$429 34 221 201 200 6 34 199 6 sky130_fd_sc_hd__a21o_1
* cell instance $430 m0 *1 72.68,29.92
X$430 34 218 199 219 6 34 220 6 sky130_fd_sc_hd__a21o_1
* cell instance $435 r0 *1 6.44,29.92
X$435 6 513 243 133 120 34 34 6 sky130_fd_sc_hd__ha_1
* cell instance $436 r0 *1 11.04,29.92
X$436 34 210 226 252 6 34 6 sky130_fd_sc_hd__nor2_1
* cell instance $438 r0 *1 12.88,29.92
X$438 34 226 210 235 6 34 6 sky130_fd_sc_hd__nor2b_1
* cell instance $446 r0 *1 20.7,29.92
X$446 6 245 237 105 83 34 34 6 sky130_fd_sc_hd__ha_1
* cell instance $449 r0 *1 26.68,29.92
X$449 6 247 238 59 71 34 34 6 sky130_fd_sc_hd__ha_1
* cell instance $450 r0 *1 31.28,29.92
X$450 34 211 224 205 210 34 227 6 6 sky130_fd_sc_hd__nand4b_1
* cell instance $451 r0 *1 34.5,29.92
X$451 34 240 205 225 6 34 228 6 sky130_fd_sc_hd__a21oi_1
* cell instance $454 r0 *1 39.1,29.92
X$454 34 214 76 242 228 262 241 34 6 6 sky130_fd_sc_hd__o221ai_1
* cell instance $461 r0 *1 43.7,29.92
X$461 34 227 204 242 6 34 6 sky130_fd_sc_hd__nand2b_1
* cell instance $463 r0 *1 46.92,29.92
X$463 6 239 259 211 210 34 34 163 6 sky130_fd_sc_hd__or4b_1
* cell instance $465 r0 *1 51.52,29.92
X$465 34 229 230 227 204 214 6 34 6 sky130_fd_sc_hd__o22ai_1
* cell instance $467 r0 *1 54.74,29.92
X$467 34 236 215 229 6 34 6 sky130_fd_sc_hd__nor2b_1
* cell instance $468 r0 *1 57.04,29.92
X$468 6 215 230 232 35 34 34 6 sky130_fd_sc_hd__ha_1
* cell instance $471 r0 *1 65.78,29.92
X$471 6 233 201 218 250 34 234 34 6 sky130_fd_sc_hd__nand4_2
* cell instance $476 r0 *1 70.84,29.92
X$476 6 218 219 223 231 34 34 6 sky130_fd_sc_hd__ha_1
* cell instance $481 m0 *1 4.6,35.36
X$481 6 211 270 149 195 34 34 6 sky130_fd_sc_hd__ha_1
* cell instance $483 m0 *1 11.04,35.36
X$483 34 243 252 197 6 34 6 sky130_fd_sc_hd__nor2_1
* cell instance $486 m0 *1 15.18,35.36
X$486 6 244 253 153 104 34 34 6 sky130_fd_sc_hd__ha_1
* cell instance $487 m0 *1 19.78,35.36
X$487 34 253 266 267 34 6 246 6 sky130_fd_sc_hd__o21bai_1
* cell instance $488 m0 *1 22.54,35.36
X$488 34 245 246 237 6 34 255 6 sky130_fd_sc_hd__a21o_1
* cell instance $489 m0 *1 25.3,35.36
X$489 34 247 245 274 34 6 6 sky130_fd_sc_hd__nand2_1
* cell instance $491 m0 *1 27.14,35.36
X$491 34 238 247 255 6 34 248 6 sky130_fd_sc_hd__a21oi_1
* cell instance $493 m0 *1 29.44,35.36
X$493 34 234 248 249 34 268 6 6 sky130_fd_sc_hd__o21ai_0
* cell instance $495 m0 *1 32.2,35.36
X$495 6 257 260 193 166 34 34 6 sky130_fd_sc_hd__ha_1
* cell instance $498 m0 *1 38.18,35.36
X$498 6 261 264 47 169 34 34 6 sky130_fd_sc_hd__ha_1
* cell instance $500 m0 *1 43.24,35.36
X$500 6 263 265 112 157 34 34 6 sky130_fd_sc_hd__ha_1
* cell instance $503 m0 *1 49.22,35.36
X$503 6 239 258 145 122 34 34 6 sky130_fd_sc_hd__ha_1
* cell instance $511 m0 *1 63.94,35.36
X$511 34 256 254 231 34 6 6 sky130_fd_sc_hd__xnor2_1
* cell instance $513 m0 *1 67.62,35.36
X$513 6 250 251 232 182 34 34 6 sky130_fd_sc_hd__ha_1
* cell instance $514 m0 *1 72.22,35.36
X$514 34 251 250 220 6 34 249 6 sky130_fd_sc_hd__a21oi_1
* cell instance $518 r0 *1 3.22,35.36
X$518 6 517 266 173 195 34 34 6 sky130_fd_sc_hd__ha_1
* cell instance $520 r0 *1 8.28,35.36
X$520 34 270 34 6 276 6 sky130_fd_sc_hd__inv_1
* cell instance $522 r0 *1 10.58,35.36
X$522 6 275 288 120 186 34 34 6 sky130_fd_sc_hd__ha_1
* cell instance $527 r0 *1 15.64,35.36
X$527 6 267 271 104 133 34 34 6 sky130_fd_sc_hd__ha_1
* cell instance $528 r0 *1 20.24,35.36
X$528 34 271 266 244 34 6 293 6 sky130_fd_sc_hd__o21bai_1
* cell instance $531 r0 *1 25.3,35.36
X$531 6 295 268 274 234 273 267 34 34 6 sky130_fd_sc_hd__o41ai_1
* cell instance $535 r0 *1 34.96,35.36
X$535 34 263 261 269 257 34 281 6 6 sky130_fd_sc_hd__nand4_1
* cell instance $536 r0 *1 37.26,35.36
X$536 34 260 263 269 261 6 34 297 6 sky130_fd_sc_hd__and4_1
* cell instance $544 r0 *1 43.7,35.36
X$544 34 263 264 265 6 34 296 6 sky130_fd_sc_hd__a21o_1
* cell instance $547 r0 *1 49.22,35.36
X$547 34 239 209 258 6 34 285 6 sky130_fd_sc_hd__a21o_1
* cell instance $550 r0 *1 59.34,35.36
X$550 6 286 292 132 165 34 34 6 sky130_fd_sc_hd__ha_1
* cell instance $552 r0 *1 65.78,35.36
X$552 6 291 287 180 132 34 34 6 sky130_fd_sc_hd__ha_1
* cell instance $562 m0 *1 10.58,40.8
X$562 6 273 290 149 195 34 34 6 sky130_fd_sc_hd__ha_1
* cell instance $563 m0 *1 15.18,40.8
X$563 34 288 275 276 6 34 289 6 sky130_fd_sc_hd__a21oi_1
* cell instance $564 m0 *1 17.02,40.8
X$564 6 278 277 141 83 34 34 6 sky130_fd_sc_hd__ha_1
* cell instance $565 m0 *1 21.62,40.8
X$565 34 278 293 277 6 34 280 6 sky130_fd_sc_hd__a21o_1
* cell instance $566 m0 *1 24.38,40.8
X$566 6 272 278 279 273 34 34 244 6 sky130_fd_sc_hd__or4bb_1
* cell instance $571 m0 *1 30.82,40.8
X$571 6 279 310 123 71 34 34 6 sky130_fd_sc_hd__ha_1
* cell instance $572 m0 *1 35.42,40.8
X$572 34 281 289 282 34 311 6 6 sky130_fd_sc_hd__o21ai_0
* cell instance $573 m0 *1 37.26,40.8
X$573 6 283 282 269 284 297 296 34 34 6 sky130_fd_sc_hd__a2111oi_0
* cell instance $576 m0 *1 41.86,40.8
X$576 6 269 283 110 165 34 34 6 sky130_fd_sc_hd__ha_1
* cell instance $580 m0 *1 49.68,40.8
X$580 34 294 147 35 259 285 313 6 34 6 sky130_fd_sc_hd__a311o_1
* cell instance $585 m0 *1 57.04,40.8
X$585 6 349 308 135 157 34 34 6 sky130_fd_sc_hd__ha_1
* cell instance $586 m0 *1 61.64,40.8
X$586 34 308 286 292 6 34 307 6 sky130_fd_sc_hd__a21o_1
* cell instance $587 m0 *1 64.4,40.8
X$587 6 306 305 162 135 34 34 6 sky130_fd_sc_hd__ha_1
* cell instance $588 m0 *1 69,40.8
X$588 6 303 304 145 231 34 34 6 sky130_fd_sc_hd__ha_1
* cell instance $600 r0 *1 15.64,40.8
X$600 6 335 343 104 186 34 34 6 sky130_fd_sc_hd__ha_1
* cell instance $601 r0 *1 20.24,40.8
X$601 6 315 345 83 166 34 34 6 sky130_fd_sc_hd__ha_1
* cell instance $603 r0 *1 26.68,40.8
X$603 34 299 295 241 6 34 329 6 sky130_fd_sc_hd__a21oi_1
* cell instance $607 r0 *1 34.5,40.8
X$607 34 310 279 280 6 34 318 6 sky130_fd_sc_hd__a21oi_1
* cell instance $608 r0 *1 36.34,40.8
X$608 34 211 275 298 316 34 6 6 sky130_fd_sc_hd__nand3_1
* cell instance $609 r0 *1 38.18,40.8
X$609 6 332 311 281 316 284 298 34 34 6 sky130_fd_sc_hd__o221a_1
* cell instance $616 r0 *1 43.7,40.8
X$616 6 298 284 122 319 34 34 6 sky130_fd_sc_hd__ha_1
* cell instance $618 r0 *1 49.22,40.8
X$618 34 313 312 333 299 6 34 328 6 sky130_fd_sc_hd__a31oi_1
* cell instance $620 r0 *1 51.98,40.8
X$620 34 300 35 259 285 34 312 6 6 sky130_fd_sc_hd__a211o_1
* cell instance $622 r0 *1 56.12,40.8
X$622 6 302 301 231 319 34 34 6 sky130_fd_sc_hd__ha_1
* cell instance $623 r0 *1 60.72,40.8
X$623 34 301 302 307 6 34 309 6 sky130_fd_sc_hd__a21oi_1
* cell instance $626 r0 *1 65.32,40.8
X$626 34 291 325 303 306 34 321 6 6 sky130_fd_sc_hd__nand4_1
* cell instance $627 r0 *1 67.62,40.8
X$627 34 305 291 287 6 34 327 6 sky130_fd_sc_hd__a21o_1
* cell instance $633 r0 *1 71.3,40.8
X$633 34 303 327 304 6 34 341 6 sky130_fd_sc_hd__a21o_1
* cell instance $638 m0 *1 2.76,46.24
X$638 6 507 342 173 184 34 34 6 sky130_fd_sc_hd__ha_1
* cell instance $640 m0 *1 8.28,46.24
X$640 6 334 407 149 184 34 34 6 sky130_fd_sc_hd__ha_1
* cell instance $644 m0 *1 16.1,46.24
X$644 34 290 335 314 6 34 6 sky130_fd_sc_hd__nor2b_1
* cell instance $646 m0 *1 20.24,46.24
X$646 34 343 314 315 34 336 6 6 sky130_fd_sc_hd__o21ai_0
* cell instance $647 m0 *1 22.08,46.24
X$647 34 315 273 337 335 34 324 6 6 sky130_fd_sc_hd__nand4_1
* cell instance $649 m0 *1 25.3,46.24
X$649 34 336 345 359 6 34 6 sky130_fd_sc_hd__nand2b_1
* cell instance $653 m0 *1 29.44,46.24
X$653 6 337 348 71 169 34 34 6 sky130_fd_sc_hd__ha_1
* cell instance $657 m0 *1 40.02,46.24
X$657 34 319 208 350 6 34 6 sky130_fd_sc_hd__nor2_1
* cell instance $660 m0 *1 42.78,46.24
X$660 34 332 35 317 350 6 331 34 6 sky130_fd_sc_hd__a211oi_1
* cell instance $661 m0 *1 45.54,46.24
X$661 34 332 35 317 340 6 34 6 sky130_fd_sc_hd__nor3b_1
* cell instance $663 m0 *1 49.22,46.24
X$663 34 321 272 320 34 333 6 6 sky130_fd_sc_hd__o21ai_0
* cell instance $664 m0 *1 51.06,46.24
X$664 34 321 318 323 34 320 6 6 sky130_fd_sc_hd__o21ai_0
* cell instance $667 m0 *1 54.28,46.24
X$667 34 346 322 324 330 361 6 34 6 sky130_fd_sc_hd__o22ai_1
* cell instance $669 m0 *1 57.04,46.24
X$669 34 286 347 302 349 34 330 6 6 sky130_fd_sc_hd__nand4_1
* cell instance $670 m0 *1 59.34,46.24
X$670 34 309 347 346 6 34 6 sky130_fd_sc_hd__nor2b_1
* cell instance $671 m0 *1 61.64,46.24
X$671 6 325 326 294 182 34 34 6 sky130_fd_sc_hd__ha_1
* cell instance $672 m0 *1 66.24,46.24
X$672 34 326 325 341 6 34 323 6 sky130_fd_sc_hd__a21oi_1
* cell instance $678 r0 *1 4.14,46.24
X$678 6 516 357 133 48 34 34 6 sky130_fd_sc_hd__ha_1
* cell instance $688 r0 *1 17.94,46.24
X$688 34 344 352 358 34 6 6 sky130_fd_sc_hd__nand2_1
* cell instance $691 r0 *1 20.7,46.24
X$691 34 338 344 374 6 34 390 6 sky130_fd_sc_hd__a21oi_1
* cell instance $693 r0 *1 23.46,46.24
X$693 6 344 338 13 123 34 34 6 sky130_fd_sc_hd__ha_1
* cell instance $696 r0 *1 30.82,46.24
X$696 34 348 337 359 6 34 356 6 sky130_fd_sc_hd__a21oi_1
* cell instance $697 r0 *1 32.66,46.24
X$697 6 355 59 169 34 34 6 sky130_fd_sc_hd__xnor2_4
* cell instance $702 r0 *1 43.24,46.24
X$702 6 426 339 331 340 353 475 34 34 6 sky130_fd_sc_hd__o311a_1
* cell instance $705 r0 *1 49.68,46.24
X$705 34 399 6 91 34 6 sky130_fd_sc_hd__clkinv_4
* cell instance $706 r0 *1 52.9,46.24
X$706 34 330 360 356 361 34 6 339 6 sky130_fd_sc_hd__o31ai_1
* cell instance $707 r0 *1 55.66,46.24
X$707 34 330 324 360 6 34 6 sky130_fd_sc_hd__nor2_1
* cell instance $709 r0 *1 57.96,46.24
X$709 6 347 322 182 317 34 34 6 sky130_fd_sc_hd__ha_1
* cell instance $711 r0 *1 64.4,46.24
X$711 34 33 34 6 254 6 sky130_fd_sc_hd__inv_1
* cell instance $718 r0 *1 70.84,46.24
X$718 6 388 421 102 162 34 34 6 sky130_fd_sc_hd__ha_1
* cell instance $721 m0 *1 3.22,51.68
X$721 34 362 6 48 34 6 sky130_fd_sc_hd__buf_2
* cell instance $723 m0 *1 5.52,51.68
X$723 34 371 351 363 6 34 6 sky130_fd_sc_hd__nor2b_1
* cell instance $724 m0 *1 7.82,51.68
X$724 34 351 342 364 6 34 6 sky130_fd_sc_hd__nor2_1
* cell instance $725 m0 *1 9.2,51.68
X$725 34 357 364 352 34 366 6 6 sky130_fd_sc_hd__o21ai_0
* cell instance $727 m0 *1 11.96,51.68
X$727 6 352 365 28 141 34 34 6 sky130_fd_sc_hd__ha_1
* cell instance $728 m0 *1 16.56,51.68
X$728 34 366 365 374 6 34 6 sky130_fd_sc_hd__nand2b_1
* cell instance $729 m0 *1 18.86,51.68
X$729 34 358 334 351 380 6 373 34 6 sky130_fd_sc_hd__nor4_1
* cell instance $730 m0 *1 21.16,51.68
X$730 34 367 34 6 105 6 sky130_fd_sc_hd__inv_1
* cell instance $732 m0 *1 23.46,51.68
X$732 6 141 354 105 133 34 34 6 sky130_fd_sc_hd__ha_2
* cell instance $736 m0 *1 34.04,51.68
X$736 34 173 367 354 34 355 6 6 sky130_fd_sc_hd__a21oi_2
* cell instance $739 m0 *1 38.64,51.68
X$739 34 384 223 385 34 6 377 6 sky130_fd_sc_hd__o21ai_1
* cell instance $740 m0 *1 40.48,51.68
X$740 6 378 59 90 91 355 34 34 6 sky130_fd_sc_hd__o211ai_2
* cell instance $743 m0 *1 46.46,51.68
X$743 6 376 91 180 34 34 6 sky130_fd_sc_hd__xnor2_4
* cell instance $745 m0 *1 57.04,51.68
X$745 34 300 34 6 294 6 sky130_fd_sc_hd__inv_1
* cell instance $746 m0 *1 58.42,51.68
X$746 6 419 375 41 317 34 34 6 sky130_fd_sc_hd__ha_1
* cell instance $747 m0 *1 63.02,51.68
X$747 6 368 389 294 41 34 34 6 sky130_fd_sc_hd__ha_1
* cell instance $750 m0 *1 69,51.68
X$750 6 372 370 81 180 34 34 6 sky130_fd_sc_hd__ha_1
* cell instance $755 r0 *1 5.98,51.68
X$755 34 48 34 6 405 6 sky130_fd_sc_hd__inv_1
* cell instance $759 r0 *1 10.58,51.68
X$759 6 394 408 48 186 34 34 6 sky130_fd_sc_hd__ha_1
* cell instance $766 r0 *1 17.02,51.68
X$766 34 373 299 379 387 6 34 6 sky130_fd_sc_hd__nor3b_1
* cell instance $768 r0 *1 20.24,51.68
X$768 34 380 390 381 34 379 6 6 sky130_fd_sc_hd__o21ai_0
* cell instance $771 r0 *1 26.68,51.68
X$771 34 353 173 382 393 34 6 6 sky130_fd_sc_hd__nand3_1
* cell instance $773 r0 *1 30.36,51.68
X$773 34 392 382 398 6 34 6 sky130_fd_sc_hd__nor2_1
* cell instance $774 r0 *1 31.74,51.68
X$774 6 384 383 367 173 354 34 34 6 sky130_fd_sc_hd__a211oi_2
* cell instance $775 r0 *1 36.34,51.68
X$775 6 385 378 384 165 34 34 6 sky130_fd_sc_hd__o21ai_4
* cell instance $781 r0 *1 43.24,51.68
X$781 6 386 383 162 34 34 6 sky130_fd_sc_hd__xnor2_4
* cell instance $782 r0 *1 53.36,51.68
X$782 6 410 223 145 34 34 6 sky130_fd_sc_hd__xnor2_4
* cell instance $783 r0 *1 63.48,51.68
X$783 34 389 368 391 6 34 381 6 sky130_fd_sc_hd__a21oi_1
* cell instance $785 r0 *1 65.78,51.68
X$785 6 369 401 145 33 34 34 6 sky130_fd_sc_hd__ha_1
* cell instance $790 r0 *1 70.84,51.68
X$790 6 388 372 369 368 34 380 34 6 sky130_fd_sc_hd__nand4_2
* cell instance $793 m0 *1 5.06,57.12
X$793 6 351 422 133 405 34 34 6 sky130_fd_sc_hd__ha_1
* cell instance $794 m0 *1 9.66,57.12
X$794 34 406 34 6 28 6 sky130_fd_sc_hd__clkbuf_2
* cell instance $795 m0 *1 11.5,57.12
X$795 34 407 394 395 6 34 6 sky130_fd_sc_hd__nor2b_1
* cell instance $797 m0 *1 15.64,57.12
X$797 34 408 395 396 34 412 6 6 sky130_fd_sc_hd__o21ai_0
* cell instance $800 m0 *1 18.86,57.12
X$800 34 396 334 424 394 34 397 6 6 sky130_fd_sc_hd__nand4_1
* cell instance $803 m0 *1 23.46,57.12
X$803 6 424 425 13 169 34 34 6 sky130_fd_sc_hd__ha_1
* cell instance $806 m0 *1 29.44,57.12
X$806 6 392 382 123 34 34 6 sky130_fd_sc_hd__xor2_4
* cell instance $807 m0 *1 39.56,57.12
X$807 6 317 377 409 34 34 6 sky130_fd_sc_hd__xnor2_2
* cell instance $808 m0 *1 45.54,57.12
X$808 6 6 376 34 90 398 34 sky130_fd_sc_hd__nor2_2
* cell instance $809 m0 *1 47.84,57.12
X$809 34 383 399 386 34 410 6 6 sky130_fd_sc_hd__a21oi_2
* cell instance $810 m0 *1 51.06,57.12
X$810 34 399 376 432 34 400 6 6 sky130_fd_sc_hd__o21ai_0
* cell instance $812 m0 *1 53.36,57.12
X$812 34 400 232 300 34 6 6 sky130_fd_sc_hd__xnor2_1
* cell instance $815 m0 *1 57.5,57.12
X$815 6 417 423 33 319 34 34 6 sky130_fd_sc_hd__ha_1
* cell instance $818 m0 *1 64.86,57.12
X$818 34 409 34 6 232 6 sky130_fd_sc_hd__inv_1
* cell instance $819 m0 *1 66.24,57.12
X$819 34 369 402 401 6 34 391 6 sky130_fd_sc_hd__a21o_1
* cell instance $820 m0 *1 69,57.12
X$820 6 460 403 404 34 34 6 sky130_fd_sc_hd__dfxtp_1
* cell instance $821 r0 *1 1.38,57.12
X$821 6 448 434 387 34 34 6 sky130_fd_sc_hd__dfxtp_1
* cell instance $822 r0 *1 8.74,57.12
X$822 34 422 363 459 34 437 6 6 sky130_fd_sc_hd__o21ai_0
* cell instance $824 r0 *1 11.5,57.12
X$824 34 28 34 6 435 6 sky130_fd_sc_hd__inv_1
* cell instance $825 r0 *1 12.88,57.12
X$825 34 436 34 6 186 6 sky130_fd_sc_hd__inv_1
* cell instance $833 r0 *1 17.94,57.12
X$833 6 396 411 28 166 34 34 6 sky130_fd_sc_hd__ha_1
* cell instance $834 r0 *1 22.54,57.12
X$834 34 412 411 439 6 34 6 sky130_fd_sc_hd__nand2b_1
* cell instance $835 r0 *1 24.84,57.12
X$835 34 425 424 439 6 34 415 6 sky130_fd_sc_hd__a21oi_1
* cell instance $837 r0 *1 27.6,57.12
X$837 34 413 428 414 6 34 431 6 sky130_fd_sc_hd__a21oi_1
* cell instance $838 r0 *1 29.44,57.12
X$838 34 392 367 133 34 6 386 6 sky130_fd_sc_hd__a21o_2
* cell instance $839 r0 *1 32.66,57.12
X$839 6 429 90 157 34 34 6 sky130_fd_sc_hd__xnor2_4
* cell instance $844 r0 *1 43.24,57.12
X$844 6 443 403 426 34 34 6 sky130_fd_sc_hd__dfxtp_1
* cell instance $847 r0 *1 51.98,57.12
X$847 34 416 397 450 6 34 6 sky130_fd_sc_hd__nor2_1
* cell instance $848 r0 *1 53.36,57.12