
* cell pulse_width_detector
* pin threshold[6]
* pin threshold[5]
* pin threshold[7]
* pin threshold[4]
* pin pulse_detected
* pin clk
* pin threshold[3]
* pin threshold[2]
* pin threshold[1]
* pin threshold[0]
* pin signal_in
* pin rst
* pin NWELL
* pin PWELL,gf180mcu_gnd
.SUBCKT pulse_width_detector 1 2 3 4 5 78 88 89 104 105 114 115 119 120
* net 1 threshold[6]
* net 2 threshold[5]
* net 3 threshold[7]
* net 4 threshold[4]
* net 5 pulse_detected
* net 78 clk
* net 88 threshold[3]
* net 89 threshold[2]
* net 104 threshold[1]
* net 105 threshold[0]
* net 114 signal_in
* net 115 rst
* net 119 NWELL
* net 120 PWELL,gf180mcu_gnd
* cell instance $4 r0 *1 339.92,5.04
X$4 1 119 120 8 gf180mcu_fd_sc_mcu9t5v0__buf_3
* cell instance $8 r0 *1 353.36,5.04
X$8 120 119 2 7 gf180mcu_fd_sc_mcu9t5v0__clkbuf_3
* cell instance $11 r0 *1 361.2,5.04
X$11 3 119 120 6 gf180mcu_fd_sc_mcu9t5v0__buf_3
* cell instance $16 r0 *1 345.52,5.04
X$16 120 119 4 9 gf180mcu_fd_sc_mcu9t5v0__clkbuf_3
* cell instance $19 r0 *1 367.92,5.04
X$19 10 119 120 5 gf180mcu_fd_sc_mcu9t5v0__dlyb_2
* cell instance $25 m0 *1 83.44,347.76
X$25 39 120 119 37 6 28 gf180mcu_fd_sc_mcu9t5v0__addh_1
* cell instance $30 m0 *1 99.12,337.68
X$30 19 120 119 13 7 17 gf180mcu_fd_sc_mcu9t5v0__addh_1
* cell instance $33 r0 *1 81.76,327.6
X$33 31 120 119 18 8 14 gf180mcu_fd_sc_mcu9t5v0__addh_1
* cell instance $40 r0 *1 91.28,327.6
X$40 15 120 119 16 9 29 gf180mcu_fd_sc_mcu9t5v0__addh_1
* cell instance $48 r0 *1 80.08,367.92
X$48 120 10 119 54 58 55 gf180mcu_fd_sc_mcu9t5v0__aoi21_2
* cell instance $50 m0 *1 76.72,367.92
X$50 120 119 10 59 52 gf180mcu_fd_sc_mcu9t5v0__nand2_2
* cell instance $53 r0 *1 72.8,357.84
X$53 120 35 10 33 57 119 gf180mcu_fd_sc_mcu9t5v0__dffrnq_4
* cell instance $56 m0 *1 72.8,388.08
X$56 120 35 11 73 75 119 gf180mcu_fd_sc_mcu9t5v0__dffrnq_2
* cell instance $59 r0 *1 64.96,378
X$59 120 11 53 119 65 gf180mcu_fd_sc_mcu9t5v0__or2_2
* cell instance $70 r0 *1 80.64,388.08
X$70 120 119 11 87 52 gf180mcu_fd_sc_mcu9t5v0__nand2_2
* cell instance $72 r0 *1 54.88,337.68
X$72 22 11 23 24 120 119 25 gf180mcu_fd_sc_mcu9t5v0__and4_2
* cell instance $74 m0 *1 60.48,337.68
X$74 119 11 24 120 12 gf180mcu_fd_sc_mcu9t5v0__and2_2
* cell instance $76 m0 *1 58.24,388.08
X$76 120 119 11 64 53 gf180mcu_fd_sc_mcu9t5v0__nand2_2
* cell instance $78 m0 *1 91.84,327.6
X$78 120 119 11 16 gf180mcu_fd_sc_mcu9t5v0__clkinv_2
* cell instance $80 r0 *1 55.44,357.84
X$80 22 11 23 46 120 119 47 gf180mcu_fd_sc_mcu9t5v0__and4_2
* cell instance $83 r0 *1 59.36,367.92
X$83 22 119 11 53 120 49 gf180mcu_fd_sc_mcu9t5v0__and3_2
* cell instance $86 r0 *1 62.16,337.68
X$86 119 13 12 120 30 gf180mcu_fd_sc_mcu9t5v0__xnor2_2
* cell instance $89 m0 *1 65.52,337.68
X$89 120 119 22 13 gf180mcu_fd_sc_mcu9t5v0__clkinv_2
* cell instance $95 m0 *1 92.4,337.68
X$95 15 119 14 17 120 32 gf180mcu_fd_sc_mcu9t5v0__and3_2
* cell instance $100 r0 *1 92.96,337.68
X$100 28 14 17 29 120 119 55 gf180mcu_fd_sc_mcu9t5v0__and4_2
* cell instance $102 m0 *1 87.36,337.68
X$102 119 14 19 120 26 gf180mcu_fd_sc_mcu9t5v0__and2_2
* cell instance $114 m0 *1 84,337.68
X$114 120 119 23 18 gf180mcu_fd_sc_mcu9t5v0__clkinv_2
* cell instance $121 r0 *1 29.12,388.08
X$121 119 20 69 120 70 gf180mcu_fd_sc_mcu9t5v0__and2_2
* cell instance $123 r0 *1 29.12,357.84
X$123 119 44 36 120 20 gf180mcu_fd_sc_mcu9t5v0__xnor2_2
* cell instance $125 r0 *1 34.72,337.68
X$125 119 20 30 120 21 gf180mcu_fd_sc_mcu9t5v0__and2_2
* cell instance $131 r0 *1 34.72,347.76
X$131 119 20 41 120 34 gf180mcu_fd_sc_mcu9t5v0__and2_2
* cell instance $134 m0 *1 33.6,347.76
X$134 120 35 22 33 21 119 gf180mcu_fd_sc_mcu9t5v0__dffrnq_2
* cell instance $146 m0 *1 62.72,347.76
X$146 120 35 23 33 38 119 gf180mcu_fd_sc_mcu9t5v0__dffrnq_2
* cell instance $149 m0 *1 61.6,357.84
X$149 120 119 48 50 49 23 gf180mcu_fd_sc_mcu9t5v0__mux2_2
* cell instance $160 r0 *1 62.72,357.84
X$160 120 119 23 50 37 gf180mcu_fd_sc_mcu9t5v0__nand2_2
* cell instance $163 r0 *1 65.52,367.92
X$163 120 45 119 48 42 52 23 gf180mcu_fd_sc_mcu9t5v0__aoi22_2
* cell instance $165 m0 *1 43.12,378
X$165 120 24 47 53 62 63 119 gf180mcu_fd_sc_mcu9t5v0__aoi211_4
* cell instance $172 r0 *1 39.76,378
X$172 120 24 119 66 67 77 gf180mcu_fd_sc_mcu9t5v0__aoi21_2
* cell instance $178 m0 *1 52.64,347.76
X$178 119 37 25 120 41 gf180mcu_fd_sc_mcu9t5v0__xnor2_2
* cell instance $181 r0 *1 85.68,337.68
X$181 31 120 32 26 119 27 gf180mcu_fd_sc_mcu9t5v0__or3_2
* cell instance $184 r0 *1 89.6,347.76
X$184 119 28 27 120 43 gf180mcu_fd_sc_mcu9t5v0__and2_2
* cell instance $213 r0 *1 20.72,378
X$213 120 35 61 33 66 119 gf180mcu_fd_sc_mcu9t5v0__dffrnq_2
* cell instance $215 m0 *1 21.28,367.92
X$215 120 35 36 33 44 119 gf180mcu_fd_sc_mcu9t5v0__dffrnq_2
* cell instance $218 m0 *1 34.72,357.84
X$218 120 35 46 33 34 119 gf180mcu_fd_sc_mcu9t5v0__dffrnq_2
* cell instance $221 m0 *1 43.68,367.92
X$221 120 72 33 119 gf180mcu_fd_sc_mcu9t5v0__clkbuf_16
* cell instance $229 m0 *1 28.56,398.16
X$229 120 35 71 73 70 119 gf180mcu_fd_sc_mcu9t5v0__dffrnq_2
* cell instance $231 m0 *1 37.52,428.4
X$231 120 35 96 73 107 119 gf180mcu_fd_sc_mcu9t5v0__dffrnq_2
* cell instance $234 r0 *1 59.92,418.32
X$234 120 35 97 73 99 119 gf180mcu_fd_sc_mcu9t5v0__dffrnq_2
* cell instance $237 r0 *1 27.44,428.4
X$237 120 119 118 35 gf180mcu_fd_sc_mcu9t5v0__inv_4
* cell instance $260 r0 *1 44.8,347.76
X$260 120 119 44 40 36 gf180mcu_fd_sc_mcu9t5v0__nand2_2
* cell instance $262 r0 *1 40.32,357.84
X$262 119 44 36 120 45 gf180mcu_fd_sc_mcu9t5v0__and2_2
* cell instance $266 r0 *1 45.36,357.84
X$266 120 119 36 44 52 gf180mcu_fd_sc_mcu9t5v0__nor2_4
* cell instance $269 m0 *1 53.76,357.84
X$269 120 119 46 37 gf180mcu_fd_sc_mcu9t5v0__clkinv_2
* cell instance $277 r0 *1 64.96,347.76
X$277 120 119 42 38 gf180mcu_fd_sc_mcu9t5v0__clkinv_2
* cell instance $280 m0 *1 83.44,357.84
X$280 39 120 40 43 119 51 gf180mcu_fd_sc_mcu9t5v0__or3_2
* cell instance $287 m0 *1 81.76,367.92
X$287 119 120 54 40 59 51 57 56 gf180mcu_fd_sc_mcu9t5v0__oai221_2
* cell instance $301 r0 *1 18.48,428.4
X$301 114 119 120 44 gf180mcu_fd_sc_mcu9t5v0__buf_3
* cell instance $316 r0 *1 47.04,378
X$316 120 119 44 63 61 gf180mcu_fd_sc_mcu9t5v0__nand2_2
* cell instance $318 r0 *1 36.96,398.16
X$318 119 44 80 120 84 gf180mcu_fd_sc_mcu9t5v0__and2_2
* cell instance $323 m0 *1 63.28,388.08
X$323 119 64 74 47 65 45 120 gf180mcu_fd_sc_mcu9t5v0__oai211_2
* cell instance $330 m0 *1 40.88,388.08
X$330 120 119 45 77 76 gf180mcu_fd_sc_mcu9t5v0__nand2_2
* cell instance $332 m0 *1 43.12,418.32
X$332 120 45 119 85 113 52 96 gf180mcu_fd_sc_mcu9t5v0__aoi22_2
* cell instance $335 m0 *1 58.24,418.32
X$335 120 97 119 52 103 45 98 gf180mcu_fd_sc_mcu9t5v0__aoi22_2
* cell instance $353 m0 *1 53.2,388.08
X$353 120 119 53 81 47 gf180mcu_fd_sc_mcu9t5v0__nand2_2
* cell instance $376 m0 *1 45.92,388.08
X$376 120 119 61 67 52 gf180mcu_fd_sc_mcu9t5v0__nand2_2
* cell instance $383 r0 *1 42,388.08
X$383 61 119 71 80 120 53 gf180mcu_fd_sc_mcu9t5v0__and3_2
* cell instance $401 r0 *1 87.36,367.92
X$401 119 55 60 120 56 gf180mcu_fd_sc_mcu9t5v0__and2_2
* cell instance $409 m0 *1 21.84,418.32
X$409 92 79 93 112 120 119 58 gf180mcu_fd_sc_mcu9t5v0__and4_2
* cell instance $419 r0 *1 23.52,408.24
X$419 119 102 120 94 60 95 gf180mcu_fd_sc_mcu9t5v0__oai21_2
* cell instance $430 m0 *1 35.84,388.08
X$430 120 119 61 68 gf180mcu_fd_sc_mcu9t5v0__clkinv_2
* cell instance $436 m0 *1 40.88,408.24
X$436 120 62 71 119 97 96 gf180mcu_fd_sc_mcu9t5v0__nand3_2
* cell instance $439 r0 *1 36.96,388.08
X$439 120 119 68 76 62 gf180mcu_fd_sc_mcu9t5v0__nand2_2
* cell instance $455 r0 *1 6.72,408.24
X$455 120 101 92 68 90 119 gf180mcu_fd_sc_mcu9t5v0__addh_2
* cell instance $462 r0 *1 28.56,398.16
X$462 120 119 69 83 84 71 gf180mcu_fd_sc_mcu9t5v0__mux2_2
* cell instance $475 m0 *1 26.32,408.24
X$475 120 119 71 82 gf180mcu_fd_sc_mcu9t5v0__clkinv_2
* cell instance $479 r0 *1 42,398.16
X$479 120 119 71 83 81 gf180mcu_fd_sc_mcu9t5v0__nand2_2
* cell instance $481 r0 *1 48.16,388.08
X$481 120 78 72 119 gf180mcu_fd_sc_mcu9t5v0__clkbuf_16
* cell instance $487 r0 *1 50.96,408.24
X$487 120 72 73 119 gf180mcu_fd_sc_mcu9t5v0__clkbuf_16
* cell instance $496 r0 *1 50.96,418.32
X$496 120 119 73 gf180mcu_fd_sc_mcu9t5v0__clkbuf_4
* cell instance $504 m0 *1 75.6,398.16
X$504 120 119 74 75 87 gf180mcu_fd_sc_mcu9t5v0__nand2_2
* cell instance $519 r0 *1 18.48,408.24
X$519 120 119 92 94 79 gf180mcu_fd_sc_mcu9t5v0__nand2_2
* cell instance $522 m0 *1 9.52,408.24
X$522 100 120 119 82 91 79 gf180mcu_fd_sc_mcu9t5v0__addh_1
* cell instance $525 r0 *1 40.32,408.24
X$525 80 120 119 97 96 86 gf180mcu_fd_sc_mcu9t5v0__addh_1
* cell instance $532 r0 *1 49.84,398.16
X$532 120 119 85 86 81 96 gf180mcu_fd_sc_mcu9t5v0__mux2_2
* cell instance $539 m0 *1 52.64,408.24
X$539 97 120 81 119 98 gf180mcu_fd_sc_mcu9t5v0__xor2_2
* cell instance $565 m0 *1 2.24,418.32
X$565 88 119 120 90 gf180mcu_fd_sc_mcu9t5v0__dlyb_2
* cell instance $568 m0 *1 2.24,428.4
X$568 89 119 120 91 gf180mcu_fd_sc_mcu9t5v0__dlyb_2
* cell instance $575 m0 *1 10.64,418.32
X$575 120 101 119 102 100 92 gf180mcu_fd_sc_mcu9t5v0__aoi21_2
* cell instance $583 r0 *1 14,418.32
X$583 110 120 119 111 108 93 gf180mcu_fd_sc_mcu9t5v0__addh_1
* cell instance $587 r0 *1 23.52,418.32
X$587 120 110 119 95 106 93 gf180mcu_fd_sc_mcu9t5v0__aoi21_2
* cell instance $606 r0 *1 35.84,418.32
X$606 120 119 96 111 gf180mcu_fd_sc_mcu9t5v0__clkinv_2
* cell instance $620 m0 *1 16.8,428.4
X$620 117 120 119 97 109 112 gf180mcu_fd_sc_mcu9t5v0__addh_1
* cell instance $625 m0 *1 67.2,418.32
X$625 120 119 103 99 gf180mcu_fd_sc_mcu9t5v0__clkinv_2
* cell instance $646 r0 *1 5.6,418.32
X$646 104 119 120 108 gf180mcu_fd_sc_mcu9t5v0__dlyb_2
* cell instance $649 r0 *1 2.24,428.4
X$649 105 119 120 116 gf180mcu_fd_sc_mcu9t5v0__dlyb_2
* cell instance $652 m0 *1 26.32,428.4
X$652 120 119 117 106 gf180mcu_fd_sc_mcu9t5v0__clkinv_2
* cell instance $656 r0 *1 39.76,418.32
X$656 120 119 113 107 gf180mcu_fd_sc_mcu9t5v0__clkinv_2
* cell instance $663 m0 *1 10.64,428.4
X$663 120 119 116 109 gf180mcu_fd_sc_mcu9t5v0__clkinv_2
* cell instance $683 m0 *1 17.92,438.48
X$683 115 119 120 118 gf180mcu_fd_sc_mcu9t5v0__dlyb_2
.ENDS pulse_width_detector

* cell gf180mcu_fd_sc_mcu9t5v0__clkbuf_3
* pin PWELL,VSS,gf180mcu_gnd
* pin NWELL,VDD
* pin I
* pin Z
.SUBCKT gf180mcu_fd_sc_mcu9t5v0__clkbuf_3 1 2 3 5
* net 1 PWELL,VSS,gf180mcu_gnd
* net 2 NWELL,VDD
* net 3 I
* net 5 Z
* device instance $1 r0 *1 0.87,3.552 pmos_5p0
M$1 4 3 2 2 pmos_5p0 L=0.5U W=2.75U AS=1.03125P AD=0.97625P PS=5.625U PD=4.17U
* device instance $3 r0 *1 3.29,3.552 pmos_5p0
M$3 5 4 2 2 pmos_5p0 L=0.5U W=5.5U AS=1.82875P AD=1.88375P PS=8.16U PD=9.615U
* device instance $7 r0 *1 0.92,1.34 nmos_5p0
M$7 4 3 1 1 nmos_5p0 L=0.6U W=1.1U AS=0.385P AD=0.3455P PS=3.05U PD=2.37U
* device instance $9 r0 *1 3.34,1.365 nmos_5p0
M$9 5 4 1 1 nmos_5p0 L=0.6U W=2.4U AS=0.6705P AD=0.732P PS=4.66U PD=5.44U
.ENDS gf180mcu_fd_sc_mcu9t5v0__clkbuf_3

* cell gf180mcu_fd_sc_mcu9t5v0__xnor2_2
* pin NWELL,VDD
* pin A1
* pin A2
* pin PWELL,VSS,gf180mcu_gnd
* pin ZN
.SUBCKT gf180mcu_fd_sc_mcu9t5v0__xnor2_2 1 5 6 7 8
* net 1 NWELL,VDD
* net 5 A1
* net 6 A2
* net 7 PWELL,VSS,gf180mcu_gnd
* net 8 ZN
* device instance $1 r0 *1 0.97,3.327 pmos_5p0
M$1 10 6 2 1 pmos_5p0 L=0.5U W=0.915U AS=0.4026P AD=0.260775P PS=2.71U PD=1.485U
* device instance $2 r0 *1 2.04,3.327 pmos_5p0
M$2 1 5 10 1 pmos_5p0 L=0.5U W=0.915U AS=0.260775P AD=0.571875P PS=1.485U
+ PD=2.68U
* device instance $3 r0 *1 3.39,3.785 pmos_5p0
M$3 4 2 1 1 pmos_5p0 L=0.5U W=1.83U AS=0.571875P AD=0.4758P PS=2.68U PD=2.35U
* device instance $4 r0 *1 4.41,3.785 pmos_5p0
M$4 3 5 4 1 pmos_5p0 L=0.5U W=1.83U AS=0.4758P AD=0.4758P PS=2.35U PD=2.35U
* device instance $5 r0 *1 5.43,3.785 pmos_5p0
M$5 4 6 3 1 pmos_5p0 L=0.5U W=1.83U AS=0.4758P AD=0.8052P PS=2.35U PD=4.54U
* device instance $6 r0 *1 7.17,3.78 pmos_5p0
M$6 8 3 1 1 pmos_5p0 L=0.5U W=3.66U AS=1.3725P AD=1.3725P PS=6.99U PD=6.99U
* device instance $8 r0 *1 7.22,1.005 nmos_5p0
M$8 8 3 7 7 nmos_5p0 L=0.6U W=2.64U AS=0.924P AD=0.924P PS=5.36U PD=5.36U
* device instance $10 r0 *1 0.92,0.675 nmos_5p0
M$10 2 6 7 7 nmos_5p0 L=0.6U W=0.66U AS=0.2904P AD=0.1716P PS=2.2U PD=1.18U
* device instance $11 r0 *1 2.04,0.675 nmos_5p0
M$11 7 5 2 7 nmos_5p0 L=0.6U W=0.66U AS=0.1716P AD=0.363P PS=1.18U PD=2.02U
* device instance $12 r0 *1 3.34,1.005 nmos_5p0
M$12 3 2 7 7 nmos_5p0 L=0.6U W=1.32U AS=0.363P AD=0.3432P PS=2.02U PD=1.84U
* device instance $13 r0 *1 4.46,1.005 nmos_5p0
M$13 9 5 3 7 nmos_5p0 L=0.6U W=1.32U AS=0.3432P AD=0.2112P PS=1.84U PD=1.64U
* device instance $14 r0 *1 5.38,1.005 nmos_5p0
M$14 7 6 9 7 nmos_5p0 L=0.6U W=1.32U AS=0.2112P AD=0.5808P PS=1.64U PD=3.52U
.ENDS gf180mcu_fd_sc_mcu9t5v0__xnor2_2

* cell gf180mcu_fd_sc_mcu9t5v0__dffrnq_4
* pin PWELL,VSS,gf180mcu_gnd
* pin RN
* pin Q
* pin CLK
* pin D
* pin NWELL,VDD
.SUBCKT gf180mcu_fd_sc_mcu9t5v0__dffrnq_4 1 3 4 5 6 17
* net 1 PWELL,VSS,gf180mcu_gnd
* net 3 RN
* net 4 Q
* net 5 CLK
* net 6 D
* net 17 NWELL,VDD
* device instance $1 r0 *1 16.975,3.78 pmos_5p0
M$1 4 13 17 17 pmos_5p0 L=0.5U W=7.32U AS=2.2326P AD=2.2326P PS=11.59U PD=11.59U
* device instance $5 r0 *1 9.55,3.71 pmos_5p0
M$5 10 9 17 17 pmos_5p0 L=0.5U W=1U AS=0.44P AD=0.285P PS=2.88U PD=1.57U
* device instance $6 r0 *1 10.62,3.71 pmos_5p0
M$6 11 2 10 17 pmos_5p0 L=0.5U W=1U AS=0.285P AD=0.26P PS=1.57U PD=1.52U
* device instance $7 r0 *1 11.64,3.71 pmos_5p0
M$7 12 8 11 17 pmos_5p0 L=0.5U W=1U AS=0.26P AD=0.2875P PS=1.52U PD=1.575U
* device instance $8 r0 *1 12.715,3.71 pmos_5p0
M$8 12 13 17 17 pmos_5p0 L=0.5U W=1U AS=0.5457P AD=0.2875P PS=2.57U PD=1.575U
* device instance $9 r0 *1 13.955,3.78 pmos_5p0
M$9 13 3 17 17 pmos_5p0 L=0.5U W=1.83U AS=0.5457P AD=0.4758P PS=2.57U PD=2.35U
* device instance $10 r0 *1 14.975,3.78 pmos_5p0
M$10 17 11 13 17 pmos_5p0 L=0.5U W=1.83U AS=0.4758P AD=0.8052P PS=2.35U PD=4.54U
* device instance $11 r0 *1 3.73,3.41 pmos_5p0
M$11 7 6 17 17 pmos_5p0 L=0.5U W=1U AS=0.44P AD=0.26P PS=2.88U PD=1.52U
* device instance $12 r0 *1 4.75,3.41 pmos_5p0
M$12 9 8 7 17 pmos_5p0 L=0.5U W=1U AS=0.26P AD=0.26P PS=1.52U PD=1.52U
* device instance $13 r0 *1 5.77,3.41 pmos_5p0
M$13 18 2 9 17 pmos_5p0 L=0.5U W=1U AS=0.26P AD=0.26P PS=1.52U PD=1.52U
* device instance $14 r0 *1 6.79,3.41 pmos_5p0
M$14 17 10 18 17 pmos_5p0 L=0.5U W=1U AS=0.26P AD=0.26P PS=1.52U PD=1.52U
* device instance $15 r0 *1 7.81,3.41 pmos_5p0
M$15 18 3 17 17 pmos_5p0 L=0.5U W=1U AS=0.26P AD=0.44P PS=1.52U PD=2.88U
* device instance $16 r0 *1 0.97,3.555 pmos_5p0
M$16 17 5 2 17 pmos_5p0 L=0.5U W=1.38U AS=0.6072P AD=0.3588P PS=3.64U PD=1.9U
* device instance $17 r0 *1 1.99,3.555 pmos_5p0
M$17 8 2 17 17 pmos_5p0 L=0.5U W=1.38U AS=0.3588P AD=0.6072P PS=1.9U PD=3.64U
* device instance $18 r0 *1 16.925,1.005 nmos_5p0
M$18 4 13 1 1 nmos_5p0 L=0.6U W=5.28U AS=1.6104P AD=1.6104P PS=9.04U PD=9.04U
* device instance $22 r0 *1 3.9,1.315 nmos_5p0
M$22 7 6 1 1 nmos_5p0 L=0.6U W=0.59U AS=0.2596P AD=0.1534P PS=2.06U PD=1.11U
* device instance $23 r0 *1 5.02,1.315 nmos_5p0
M$23 9 2 7 1 nmos_5p0 L=0.6U W=0.59U AS=0.1534P AD=0.1534P PS=1.11U PD=1.11U
* device instance $24 r0 *1 6.14,1.315 nmos_5p0
M$24 15 8 9 1 nmos_5p0 L=0.6U W=0.59U AS=0.1534P AD=0.0708P PS=1.11U PD=0.83U
* device instance $25 r0 *1 6.98,1.315 nmos_5p0
M$25 14 10 15 1 nmos_5p0 L=0.6U W=0.59U AS=0.0708P AD=0.0826P PS=0.83U PD=0.87U
* device instance $26 r0 *1 7.86,1.315 nmos_5p0
M$26 1 3 14 1 nmos_5p0 L=0.6U W=0.59U AS=0.0826P AD=0.2124P PS=0.87U PD=1.31U
* device instance $27 r0 *1 9.18,1.315 nmos_5p0
M$27 10 9 1 1 nmos_5p0 L=0.6U W=0.59U AS=0.2124P AD=0.190275P PS=1.31U PD=1.235U
* device instance $28 r0 *1 10.425,1.315 nmos_5p0
M$28 11 8 10 1 nmos_5p0 L=0.6U W=0.59U AS=0.190275P AD=0.1534P PS=1.235U
+ PD=1.11U
* device instance $29 r0 *1 11.545,1.315 nmos_5p0
M$29 12 2 11 1 nmos_5p0 L=0.6U W=0.59U AS=0.1534P AD=0.1534P PS=1.11U PD=1.11U
* device instance $30 r0 *1 12.665,1.315 nmos_5p0
M$30 1 13 12 1 nmos_5p0 L=0.6U W=0.59U AS=0.1534P AD=0.1534P PS=1.11U PD=1.11U
* device instance $31 r0 *1 13.785,1.315 nmos_5p0
M$31 1 3 16 1 nmos_5p0 L=0.6U W=0.59U AS=0.3525P AD=0.1534P PS=2.02U PD=1.11U
* device instance $32 r0 *1 15.085,1.005 nmos_5p0
M$32 13 11 16 1 nmos_5p0 L=0.6U W=1.32U AS=0.3525P AD=0.5808P PS=2.02U PD=3.52U
* device instance $33 r0 *1 0.92,1.27 nmos_5p0
M$33 1 5 2 1 nmos_5p0 L=0.6U W=0.79U AS=0.3476P AD=0.2054P PS=2.46U PD=1.31U
* device instance $34 r0 *1 2.04,1.27 nmos_5p0
M$34 8 2 1 1 nmos_5p0 L=0.6U W=0.79U AS=0.2054P AD=0.3476P PS=1.31U PD=2.46U
.ENDS gf180mcu_fd_sc_mcu9t5v0__dffrnq_4

* cell gf180mcu_fd_sc_mcu9t5v0__oai221_2
* pin NWELL,VDD
* pin PWELL,VSS,gf180mcu_gnd
* pin B1
* pin B2
* pin C
* pin A1
* pin ZN
* pin A2
.SUBCKT gf180mcu_fd_sc_mcu9t5v0__oai221_2 1 3 4 5 6 8 9 10
* net 1 NWELL,VDD
* net 3 PWELL,VSS,gf180mcu_gnd
* net 4 B1
* net 5 B2
* net 6 C
* net 8 A1
* net 9 ZN
* net 10 A2
* device instance $1 r0 *1 0.92,3.965 pmos_5p0
M$1 9 6 1 1 pmos_5p0 L=0.5U W=2.92U AS=1.17P AD=1.2274P PS=5.06U PD=6.33U
* device instance $2 r0 *1 2.12,3.78 pmos_5p0
M$2 14 5 1 1 pmos_5p0 L=0.5U W=1.83U AS=0.585P AD=0.4758P PS=2.53U PD=2.35U
* device instance $3 r0 *1 3.14,3.78 pmos_5p0
M$3 9 4 14 1 pmos_5p0 L=0.5U W=1.83U AS=0.4758P AD=0.61305P PS=2.35U PD=2.5U
* device instance $4 r0 *1 4.31,3.78 pmos_5p0
M$4 13 4 9 1 pmos_5p0 L=0.5U W=1.83U AS=0.61305P AD=0.52155P PS=2.5U PD=2.4U
* device instance $5 r0 *1 5.38,3.78 pmos_5p0
M$5 1 5 13 1 pmos_5p0 L=0.5U W=1.83U AS=0.52155P AD=0.585P PS=2.4U PD=2.53U
* device instance $7 r0 *1 7.78,3.78 pmos_5p0
M$7 12 8 9 1 pmos_5p0 L=0.5U W=1.83U AS=0.585P AD=0.52155P PS=2.53U PD=2.4U
* device instance $8 r0 *1 8.85,3.78 pmos_5p0
M$8 1 10 12 1 pmos_5p0 L=0.5U W=1.83U AS=0.52155P AD=0.5673P PS=2.4U PD=2.45U
* device instance $9 r0 *1 9.97,3.78 pmos_5p0
M$9 11 10 1 1 pmos_5p0 L=0.5U W=1.83U AS=0.5673P AD=0.52155P PS=2.45U PD=2.4U
* device instance $10 r0 *1 11.04,3.78 pmos_5p0
M$10 9 8 11 1 pmos_5p0 L=0.5U W=1.83U AS=0.52155P AD=0.8052P PS=2.4U PD=4.54U
* device instance $11 r0 *1 0.92,1.005 nmos_5p0
M$11 2 6 7 3 nmos_5p0 L=0.6U W=2.64U AS=0.924P AD=0.7458P PS=5.36U PD=3.77U
* device instance $12 r0 *1 2.07,1.005 nmos_5p0
M$12 3 5 2 3 nmos_5p0 L=0.6U W=2.64U AS=0.7062P AD=0.6864P PS=3.71U PD=3.68U
* device instance $13 r0 *1 3.19,1.005 nmos_5p0
M$13 2 4 3 3 nmos_5p0 L=0.6U W=2.64U AS=0.6864P AD=0.6864P PS=3.68U PD=3.68U
* device instance $17 r0 *1 7.73,1.005 nmos_5p0
M$17 9 8 7 3 nmos_5p0 L=0.6U W=2.64U AS=0.726P AD=0.924P PS=3.74U PD=5.36U
* device instance $18 r0 *1 8.85,1.005 nmos_5p0
M$18 7 10 9 3 nmos_5p0 L=0.6U W=2.64U AS=0.6864P AD=0.6864P PS=3.68U PD=3.68U
.ENDS gf180mcu_fd_sc_mcu9t5v0__oai221_2

* cell gf180mcu_fd_sc_mcu9t5v0__or3_2
* pin A1
* pin PWELL,VSS,gf180mcu_gnd
* pin A2
* pin A3
* pin NWELL,VDD
* pin Z
.SUBCKT gf180mcu_fd_sc_mcu9t5v0__or3_2 2 3 4 5 6 7
* net 2 A1
* net 3 PWELL,VSS,gf180mcu_gnd
* net 4 A2
* net 5 A3
* net 6 NWELL,VDD
* net 7 Z
* device instance $1 r0 *1 0.97,3.78 pmos_5p0
M$1 9 2 1 6 pmos_5p0 L=0.5U W=1.83U AS=0.8052P AD=0.52155P PS=4.54U PD=2.4U
* device instance $2 r0 *1 2.04,3.78 pmos_5p0
M$2 8 4 9 6 pmos_5p0 L=0.5U W=1.83U AS=0.52155P AD=0.5673P PS=2.4U PD=2.45U
* device instance $3 r0 *1 3.16,3.78 pmos_5p0
M$3 6 5 8 6 pmos_5p0 L=0.5U W=1.83U AS=0.5673P AD=0.732P PS=2.45U PD=2.63U
* device instance $4 r0 *1 4.46,3.78 pmos_5p0
M$4 7 1 6 6 pmos_5p0 L=0.5U W=3.66U AS=1.25355P AD=1.32675P PS=5.03U PD=6.94U
* device instance $6 r0 *1 0.92,0.87 nmos_5p0
M$6 3 2 1 3 nmos_5p0 L=0.6U W=1.05U AS=0.462P AD=0.273P PS=2.98U PD=1.57U
* device instance $7 r0 *1 2.04,0.87 nmos_5p0
M$7 1 4 3 3 nmos_5p0 L=0.6U W=1.05U AS=0.273P AD=0.273P PS=1.57U PD=1.57U
* device instance $8 r0 *1 3.16,0.87 nmos_5p0
M$8 3 5 1 3 nmos_5p0 L=0.6U W=1.05U AS=0.273P AD=0.4215P PS=1.57U PD=2.02U
* device instance $9 r0 *1 4.46,1.005 nmos_5p0
M$9 7 1 3 3 nmos_5p0 L=0.6U W=2.64U AS=0.7647P AD=0.924P PS=3.86U PD=5.36U
.ENDS gf180mcu_fd_sc_mcu9t5v0__or3_2

* cell gf180mcu_fd_sc_mcu9t5v0__oai211_2
* pin NWELL,VDD
* pin A2
* pin ZN
* pin A1
* pin B
* pin C
* pin PWELL,VSS,gf180mcu_gnd
.SUBCKT gf180mcu_fd_sc_mcu9t5v0__oai211_2 1 2 3 4 5 6 7
* net 1 NWELL,VDD
* net 2 A2
* net 3 ZN
* net 4 A1
* net 5 B
* net 6 C
* net 7 PWELL,VSS,gf180mcu_gnd
* device instance $1 r0 *1 0.97,3.78 pmos_5p0
M$1 12 2 1 1 pmos_5p0 L=0.5U W=1.83U AS=0.8052P AD=0.52155P PS=4.54U PD=2.4U
* device instance $2 r0 *1 2.04,3.78 pmos_5p0
M$2 3 4 12 1 pmos_5p0 L=0.5U W=1.83U AS=0.52155P AD=0.5673P PS=2.4U PD=2.45U
* device instance $3 r0 *1 3.16,3.78 pmos_5p0
M$3 11 4 3 1 pmos_5p0 L=0.5U W=1.83U AS=0.5673P AD=0.52155P PS=2.45U PD=2.4U
* device instance $4 r0 *1 4.23,3.78 pmos_5p0
M$4 1 2 11 1 pmos_5p0 L=0.5U W=1.83U AS=0.52155P AD=0.585P PS=2.4U PD=2.53U
* device instance $5 r0 *1 5.43,3.965 pmos_5p0
M$5 3 5 1 1 pmos_5p0 L=0.5U W=2.92U AS=0.9646P AD=1.022P PS=4.51U PD=5.78U
* device instance $6 r0 *1 6.45,3.965 pmos_5p0
M$6 1 6 3 1 pmos_5p0 L=0.5U W=2.92U AS=0.7592P AD=0.7592P PS=3.96U PD=3.96U
* device instance $9 r0 *1 0.92,1.005 nmos_5p0
M$9 3 2 8 7 nmos_5p0 L=0.6U W=2.64U AS=0.924P AD=0.7062P PS=5.36U PD=3.71U
* device instance $10 r0 *1 2.04,1.005 nmos_5p0
M$10 8 4 3 7 nmos_5p0 L=0.6U W=2.64U AS=0.6864P AD=0.6864P PS=3.68U PD=3.68U
* device instance $13 r0 *1 5.43,1.005 nmos_5p0
M$13 9 5 8 7 nmos_5p0 L=0.6U W=1.32U AS=0.363P AD=0.2442P PS=1.87U PD=1.69U
* device instance $14 r0 *1 6.4,1.005 nmos_5p0
M$14 7 6 9 7 nmos_5p0 L=0.6U W=1.32U AS=0.2442P AD=0.3432P PS=1.69U PD=1.84U
* device instance $15 r0 *1 7.52,1.005 nmos_5p0
M$15 10 6 7 7 nmos_5p0 L=0.6U W=1.32U AS=0.3432P AD=0.2112P PS=1.84U PD=1.64U
* device instance $16 r0 *1 8.44,1.005 nmos_5p0
M$16 8 5 10 7 nmos_5p0 L=0.6U W=1.32U AS=0.2112P AD=0.5808P PS=1.64U PD=3.52U
.ENDS gf180mcu_fd_sc_mcu9t5v0__oai211_2

* cell gf180mcu_fd_sc_mcu9t5v0__or2_2
* pin PWELL,VSS,gf180mcu_gnd
* pin A1
* pin A2
* pin NWELL,VDD
* pin Z
.SUBCKT gf180mcu_fd_sc_mcu9t5v0__or2_2 1 2 4 5 6
* net 1 PWELL,VSS,gf180mcu_gnd
* net 2 A1
* net 4 A2
* net 5 NWELL,VDD
* net 6 Z
* device instance $1 r0 *1 0.97,3.78 pmos_5p0
M$1 7 2 3 5 pmos_5p0 L=0.5U W=1.83U AS=0.8052P AD=0.52155P PS=4.54U PD=2.4U
* device instance $2 r0 *1 2.04,3.78 pmos_5p0
M$2 5 4 7 5 pmos_5p0 L=0.5U W=1.83U AS=0.52155P AD=0.5673P PS=2.4U PD=2.45U
* device instance $3 r0 *1 3.16,3.78 pmos_5p0
M$3 6 3 5 5 pmos_5p0 L=0.5U W=3.66U AS=1.08885P AD=1.32675P PS=4.85U PD=6.94U
* device instance $5 r0 *1 0.92,1.005 nmos_5p0
M$5 3 2 1 1 nmos_5p0 L=0.6U W=1.32U AS=0.5808P AD=0.3432P PS=3.52U PD=1.84U
* device instance $6 r0 *1 2.04,1.005 nmos_5p0
M$6 1 4 3 1 nmos_5p0 L=0.6U W=1.32U AS=0.3432P AD=0.3432P PS=1.84U PD=1.84U
* device instance $7 r0 *1 3.16,1.005 nmos_5p0
M$7 6 3 1 1 nmos_5p0 L=0.6U W=2.64U AS=0.6864P AD=0.924P PS=3.68U PD=5.36U
.ENDS gf180mcu_fd_sc_mcu9t5v0__or2_2

* cell gf180mcu_fd_sc_mcu9t5v0__aoi211_4
* pin PWELL,VSS,gf180mcu_gnd
* pin ZN
* pin A2
* pin A1
* pin B
* pin C
* pin NWELL,VDD
.SUBCKT gf180mcu_fd_sc_mcu9t5v0__aoi211_4 1 2 3 4 5 6 12
* net 1 PWELL,VSS,gf180mcu_gnd
* net 2 ZN
* net 3 A2
* net 4 A1
* net 5 B
* net 6 C
* net 12 NWELL,VDD
* device instance $1 r0 *1 1.54,3.78 pmos_5p0
M$1 2 3 11 12 pmos_5p0 L=0.5U W=7.32U AS=2.2326P AD=2.1411P PS=11.59U PD=9.66U
* device instance $2 r0 *1 2.56,3.78 pmos_5p0
M$2 11 4 2 12 pmos_5p0 L=0.5U W=7.32U AS=1.9032P AD=1.9032P PS=9.4U PD=9.4U
* device instance $9 r0 *1 9.96,3.78 pmos_5p0
M$9 13 5 11 12 pmos_5p0 L=0.5U W=1.83U AS=0.7137P AD=0.5673P PS=2.61U PD=2.45U
* device instance $10 r0 *1 11.08,3.78 pmos_5p0
M$10 12 6 13 12 pmos_5p0 L=0.5U W=1.83U AS=0.5673P AD=0.9516P PS=2.45U PD=2.87U
* device instance $11 r0 *1 12.62,3.78 pmos_5p0
M$11 14 6 12 12 pmos_5p0 L=0.5U W=1.83U AS=0.9516P AD=0.5673P PS=2.87U PD=2.45U
* device instance $12 r0 *1 13.74,3.78 pmos_5p0
M$12 11 5 14 12 pmos_5p0 L=0.5U W=1.83U AS=0.5673P AD=0.9516P PS=2.45U PD=2.87U
* device instance $13 r0 *1 15.28,3.78 pmos_5p0
M$13 16 5 11 12 pmos_5p0 L=0.5U W=1.83U AS=0.9516P AD=0.5673P PS=2.87U PD=2.45U
* device instance $14 r0 *1 16.4,3.78 pmos_5p0
M$14 12 6 16 12 pmos_5p0 L=0.5U W=1.83U AS=0.5673P AD=0.9516P PS=2.45U PD=2.87U
* device instance $15 r0 *1 17.94,3.78 pmos_5p0
M$15 15 6 12 12 pmos_5p0 L=0.5U W=1.83U AS=0.9516P AD=0.5673P PS=2.87U PD=2.45U
* device instance $16 r0 *1 19.06,3.78 pmos_5p0
M$16 11 5 15 12 pmos_5p0 L=0.5U W=1.83U AS=0.5673P AD=0.8052P PS=2.45U PD=4.54U
* device instance $17 r0 *1 9.96,1.08 nmos_5p0
M$17 2 5 1 1 nmos_5p0 L=0.6U W=3.16U AS=1.33065P AD=0.9638P PS=6.745U PD=6.39U
* device instance $18 r0 *1 11.08,1.08 nmos_5p0
M$18 2 6 1 1 nmos_5p0 L=0.6U W=3.16U AS=1.5056P AD=0.8216P PS=7.04U PD=5.24U
* device instance $25 r0 *1 1.54,0.937 nmos_5p0
M$25 7 3 1 1 nmos_5p0 L=0.6U W=1.185U AS=0.74655P AD=0.219225P PS=3.63U
+ PD=1.555U
* device instance $26 r0 *1 2.51,0.937 nmos_5p0
M$26 2 4 7 1 nmos_5p0 L=0.6U W=1.185U AS=0.219225P AD=0.3081P PS=1.555U
+ PD=1.705U
* device instance $27 r0 *1 3.63,0.937 nmos_5p0
M$27 9 4 2 1 nmos_5p0 L=0.6U W=1.185U AS=0.3081P AD=0.1896P PS=1.705U PD=1.505U
* device instance $28 r0 *1 4.55,0.937 nmos_5p0
M$28 1 3 9 1 nmos_5p0 L=0.6U W=1.185U AS=0.1896P AD=0.3081P PS=1.505U PD=1.705U
* device instance $29 r0 *1 5.67,0.937 nmos_5p0
M$29 8 3 1 1 nmos_5p0 L=0.6U W=1.185U AS=0.3081P AD=0.1896P PS=1.705U PD=1.505U
* device instance $30 r0 *1 6.59,0.937 nmos_5p0
M$30 2 4 8 1 nmos_5p0 L=0.6U W=1.185U AS=0.1896P AD=0.3081P PS=1.505U PD=1.705U
* device instance $31 r0 *1 7.71,0.937 nmos_5p0
M$31 10 4 2 1 nmos_5p0 L=0.6U W=1.185U AS=0.3081P AD=0.1896P PS=1.705U PD=1.505U
* device instance $32 r0 *1 8.63,0.937 nmos_5p0
M$32 1 3 10 1 nmos_5p0 L=0.6U W=1.185U AS=0.1896P AD=0.37245P PS=1.505U
+ PD=1.915U
.ENDS gf180mcu_fd_sc_mcu9t5v0__aoi211_4

* cell gf180mcu_fd_sc_mcu9t5v0__nor2_4
* pin PWELL,VSS,gf180mcu_gnd
* pin NWELL,VDD
* pin A2
* pin A1
* pin ZN
.SUBCKT gf180mcu_fd_sc_mcu9t5v0__nor2_4 1 2 3 4 5
* net 1 PWELL,VSS,gf180mcu_gnd
* net 2 NWELL,VDD
* net 3 A2
* net 4 A1
* net 5 ZN
* device instance $1 r0 *1 0.92,3.78 pmos_5p0
M$1 9 3 2 2 pmos_5p0 L=0.5U W=1.83U AS=0.8052P AD=0.61305P PS=4.54U PD=2.5U
* device instance $2 r0 *1 2.09,3.78 pmos_5p0
M$2 5 4 9 2 pmos_5p0 L=0.5U W=1.83U AS=0.61305P AD=0.52155P PS=2.5U PD=2.4U
* device instance $3 r0 *1 3.16,3.78 pmos_5p0
M$3 8 4 5 2 pmos_5p0 L=0.5U W=1.83U AS=0.52155P AD=0.5673P PS=2.4U PD=2.45U
* device instance $4 r0 *1 4.28,3.78 pmos_5p0
M$4 2 3 8 2 pmos_5p0 L=0.5U W=1.83U AS=0.5673P AD=0.5673P PS=2.45U PD=2.45U
* device instance $5 r0 *1 5.4,3.78 pmos_5p0
M$5 7 3 2 2 pmos_5p0 L=0.5U W=1.83U AS=0.5673P AD=0.5673P PS=2.45U PD=2.45U
* device instance $6 r0 *1 6.52,3.78 pmos_5p0
M$6 5 4 7 2 pmos_5p0 L=0.5U W=1.83U AS=0.5673P AD=0.5673P PS=2.45U PD=2.45U
* device instance $7 r0 *1 7.64,3.78 pmos_5p0
M$7 6 4 5 2 pmos_5p0 L=0.5U W=1.83U AS=0.5673P AD=0.5673P PS=2.45U PD=2.45U
* device instance $8 r0 *1 8.76,3.78 pmos_5p0
M$8 2 3 6 2 pmos_5p0 L=0.5U W=1.83U AS=0.5673P AD=0.8052P PS=2.45U PD=4.54U
* device instance $9 r0 *1 0.92,1.04 nmos_5p0
M$9 5 3 1 1 nmos_5p0 L=0.6U W=3.68U AS=1.1224P AD=1.1224P PS=7.04U PD=7.04U
* device instance $10 r0 *1 2.04,1.04 nmos_5p0
M$10 1 4 5 1 nmos_5p0 L=0.6U W=3.68U AS=0.9568P AD=0.9568P PS=5.76U PD=5.76U
.ENDS gf180mcu_fd_sc_mcu9t5v0__nor2_4

* cell gf180mcu_fd_sc_mcu9t5v0__and3_2
* pin A1
* pin NWELL,VDD
* pin A2
* pin A3
* pin PWELL,VSS,gf180mcu_gnd
* pin Z
.SUBCKT gf180mcu_fd_sc_mcu9t5v0__and3_2 2 3 4 5 6 7
* net 2 A1
* net 3 NWELL,VDD
* net 4 A2
* net 5 A3
* net 6 PWELL,VSS,gf180mcu_gnd
* net 7 Z
* device instance $1 r0 *1 0.925,3.965 pmos_5p0
M$1 3 2 1 3 pmos_5p0 L=0.5U W=1.46U AS=0.6424P AD=0.3796P PS=3.8U PD=1.98U
* device instance $2 r0 *1 1.945,3.965 pmos_5p0
M$2 1 4 3 3 pmos_5p0 L=0.5U W=1.46U AS=0.3796P AD=0.3796P PS=1.98U PD=1.98U
* device instance $3 r0 *1 2.965,3.965 pmos_5p0
M$3 1 5 3 3 pmos_5p0 L=0.5U W=1.46U AS=0.585P AD=0.3796P PS=2.53U PD=1.98U
* device instance $4 r0 *1 4.165,3.78 pmos_5p0
M$4 7 1 3 3 pmos_5p0 L=0.5U W=3.66U AS=1.0608P AD=1.281P PS=4.88U PD=6.89U
* device instance $6 r0 *1 0.975,1.005 nmos_5p0
M$6 9 2 1 6 nmos_5p0 L=0.6U W=1.32U AS=0.5808P AD=0.2112P PS=3.52U PD=1.64U
* device instance $7 r0 *1 1.895,1.005 nmos_5p0
M$7 8 4 9 6 nmos_5p0 L=0.6U W=1.32U AS=0.2112P AD=0.2772P PS=1.64U PD=1.74U
* device instance $8 r0 *1 2.915,1.005 nmos_5p0
M$8 6 5 8 6 nmos_5p0 L=0.6U W=1.32U AS=0.2772P AD=0.3432P PS=1.74U PD=1.84U
* device instance $9 r0 *1 4.035,1.005 nmos_5p0
M$9 7 1 6 6 nmos_5p0 L=0.6U W=2.64U AS=0.6864P AD=0.924P PS=3.68U PD=5.36U
.ENDS gf180mcu_fd_sc_mcu9t5v0__and3_2

* cell gf180mcu_fd_sc_mcu9t5v0__xor2_2
* pin A1
* pin PWELL,VSS,gf180mcu_gnd
* pin A2
* pin NWELL,VDD
* pin Z
.SUBCKT gf180mcu_fd_sc_mcu9t5v0__xor2_2 1 2 6 7 8
* net 1 A1
* net 2 PWELL,VSS,gf180mcu_gnd
* net 6 A2
* net 7 NWELL,VDD
* net 8 Z
* device instance $1 r0 *1 0.87,3.947 pmos_5p0
M$1 3 6 7 7 pmos_5p0 L=0.5U W=0.915U AS=0.4026P AD=0.2379P PS=2.71U PD=1.435U
* device instance $2 r0 *1 1.89,3.947 pmos_5p0
M$2 3 1 7 7 pmos_5p0 L=0.5U W=0.915U AS=0.526125P AD=0.2379P PS=2.58U PD=1.435U
* device instance $3 r0 *1 3.14,3.785 pmos_5p0
M$3 5 3 7 7 pmos_5p0 L=0.5U W=1.83U AS=0.526125P AD=0.61305P PS=2.58U PD=2.5U
* device instance $4 r0 *1 4.31,3.785 pmos_5p0
M$4 10 1 5 7 pmos_5p0 L=0.5U W=1.83U AS=0.61305P AD=0.4758P PS=2.5U PD=2.35U
* device instance $5 r0 *1 5.33,3.785 pmos_5p0
M$5 7 6 10 7 pmos_5p0 L=0.5U W=1.83U AS=0.4758P AD=0.8052P PS=2.35U PD=4.54U
* device instance $6 r0 *1 7.27,3.78 pmos_5p0
M$6 8 5 7 7 pmos_5p0 L=0.5U W=3.66U AS=1.281P AD=1.281P PS=6.89U PD=6.89U
* device instance $8 r0 *1 7.22,1.005 nmos_5p0
M$8 8 5 2 2 nmos_5p0 L=0.6U W=2.64U AS=0.924P AD=0.924P PS=5.36U PD=5.36U
* device instance $10 r0 *1 0.92,1.16 nmos_5p0
M$10 9 6 3 2 nmos_5p0 L=0.6U W=0.66U AS=0.2904P AD=0.1056P PS=2.2U PD=0.98U
* device instance $11 r0 *1 1.84,1.16 nmos_5p0
M$11 9 1 2 2 nmos_5p0 L=0.6U W=0.66U AS=0.363P AD=0.1056P PS=2.02U PD=0.98U
* device instance $12 r0 *1 3.14,1.005 nmos_5p0
M$12 4 3 2 2 nmos_5p0 L=0.6U W=1.32U AS=0.363P AD=0.3432P PS=2.02U PD=1.84U
* device instance $13 r0 *1 4.26,1.005 nmos_5p0
M$13 5 1 4 2 nmos_5p0 L=0.6U W=1.32U AS=0.3432P AD=0.3432P PS=1.84U PD=1.84U
* device instance $14 r0 *1 5.38,1.005 nmos_5p0