
* cell pwm_generator
* pin period[7]
* pin duty_cycle[7]
* pin enable
* pin PWELL
* pin NWELL
* pin period[4]
* pin period[6]
* pin period[5]
* pin rst_n
* pin period[3]
* pin period[2]
* pin pwm_out
* pin clk
* pin duty_cycle[6]
* pin period[0]
* pin period[1]
* pin duty_cycle[5]
* pin duty_cycle[0]
* pin duty_cycle[1]
* pin duty_cycle[2]
* pin duty_cycle[3]
* pin duty_cycle[4]
.SUBCKT pwm_generator 1 2 3 6 7 9 11 19 70 86 87 92 140 180 184 205 212 240 241
+ 242 243 244
* net 1 period[7]
* net 2 duty_cycle[7]
* net 3 enable
* net 6 PWELL
* net 7 NWELL
* net 9 period[4]
* net 11 period[6]
* net 19 period[5]
* net 70 rst_n
* net 86 period[3]
* net 87 period[2]
* net 92 pwm_out
* net 140 clk
* net 180 duty_cycle[6]
* net 184 period[0]
* net 205 period[1]
* net 212 duty_cycle[5]
* net 240 duty_cycle[0]
* net 241 duty_cycle[1]
* net 242 duty_cycle[2]
* net 243 duty_cycle[3]
* net 244 duty_cycle[4]
* cell instance $5 r0 *1 30.78,1.4
X$5 1 6 7 4 BUF_X1
* cell instance $11 r0 *1 33.44,1.4
X$11 2 6 7 5 BUF_X1
* cell instance $16 m0 *1 45.79,26.6
X$16 3 7 32 6 BUF_X4
* cell instance $21 m0 *1 30.02,29.4
X$21 8 4 6 7 10 NAND2_X1
* cell instance $24 m0 *1 33.06,29.4
X$24 8 5 6 7 29 NAND2_X1
* cell instance $40 m0 *1 47.12,77
X$40 244 6 7 239 BUF_X1
* cell instance $41 m0 *1 46.55,77
X$41 243 6 7 238 BUF_X1
* cell instance $53 m0 *1 34.58,77
X$53 240 6 7 228 BUF_X1
* cell instance $56 m0 *1 35.91,77
X$56 241 6 7 236 BUF_X1
* cell instance $58 m0 *1 42.56,77
X$58 242 6 7 237 BUF_X1
* cell instance $61 m0 *1 5.7,29.4
X$61 9 6 7 14 BUF_X1
* cell instance $90 r0 *1 3.61,29.4
X$90 19 6 7 18 BUF_X1
* cell instance $93 r0 *1 4.75,29.4
X$93 11 6 7 24 BUF_X1
* cell instance $96 r0 *1 12.16,29.4
X$96 8 24 6 7 35 NAND2_X1
* cell instance $99 r0 *1 13.3,29.4
X$99 8 14 6 7 36 NAND2_X1
* cell instance $104 r0 *1 29.83,29.4
X$104 10 21 15 6 7 42 NAND3_X1
* cell instance $108 r0 *1 32.68,29.4
X$108 16 27 6 7 13 NAND2_X1
* cell instance $109 r0 *1 33.25,29.4
X$109 29 13 15 6 7 28 NAND3_X1
* cell instance $113 r0 *1 36.48,29.4
X$113 6 12 27 28 17 7 DFF_X1
* cell instance $117 r0 *1 43.7,29.4
X$117 6 38 17 251 23 7 DFF_X2
* cell instance $118 r0 *1 47.31,29.4
X$118 6 48 17 249 52 7 DFF_X2
* cell instance $150 m0 *1 6.65,37.8
X$150 86 6 7 93 BUF_X1
* cell instance $157 m0 *1 34.77,37.8
X$157 85 78 115 7 6 31 OAI21_X2
* cell instance $166 r0 *1 3.42,37.8
X$166 87 6 7 100 BUF_X1
* cell instance $170 r0 *1 11.78,37.8
X$170 8 100 6 7 101 NAND2_X1
* cell instance $171 r0 *1 12.35,37.8
X$171 8 93 6 7 107 NAND2_X1
* cell instance $172 r0 *1 12.92,37.8
X$172 101 102 15 6 7 103 NAND3_X1
* cell instance $173 r0 *1 13.68,37.8
X$173 6 104 113 103 57 7 DFF_X1
* cell instance $174 r0 *1 16.91,37.8
X$174 16 113 6 7 102 NAND2_X1
* cell instance $180 r0 *1 32.11,37.8
X$180 97 6 7 88 INV_X1
* cell instance $181 r0 *1 32.49,37.8
X$181 88 94 6 7 141 NOR2_X1
* cell instance $182 r0 *1 33.06,37.8
X$182 94 88 32 7 6 109 AND3_X1
* cell instance $183 r0 *1 34.01,37.8
X$183 96 95 7 6 144 AND2_X1
* cell instance $185 r0 *1 34.96,37.8
X$185 96 97 94 32 6 65 7 NAND4_X2
* cell instance $186 r0 *1 36.67,37.8
X$186 32 30 96 6 7 106 NAND3_X1
* cell instance $187 r0 *1 37.43,37.8
X$187 106 95 6 7 67 NOR2_X1
* cell instance $189 r0 *1 41.04,37.8
X$189 32 6 7 98 INV_X2
* cell instance $194 r0 *1 44.46,37.8
X$194 66 112 116 7 6 110 HA_X1
* cell instance $195 r0 *1 46.36,37.8
X$195 105 110 80 89 6 7 134 NOR4_X1
* cell instance $196 m0 *1 47.88,37.8
X$196 52 91 90 7 6 80 HA_X1
* cell instance $197 m0 *1 47.12,37.8
X$197 80 90 69 7 81 6 OAI21_X1
* cell instance $204 r0 *1 47.31,37.8
X$204 98 89 6 7 111 NOR2_X1
* cell instance $205 r0 *1 47.88,37.8
X$205 111 81 98 99 6 7 132 AOI22_X1
* cell instance $211 m0 *1 70.68,37.8
X$211 99 6 7 92 BUF_X1
* cell instance $456 m0 *1 35.53,54.6
X$456 206 236 6 7 233 NAND2_X1
* cell instance $458 m0 *1 42.18,54.6
X$458 206 237 6 7 234 NAND2_X1
* cell instance $474 m0 *1 45.6,54.6
X$474 206 238 6 7 235 NAND2_X1
* cell instance $607 m0 *1 32.49,51.8
X$607 155 224 221 6 220 7 AOI21_X1
* cell instance $608 m0 *1 33.25,51.8
X$608 6 207 215 227 17 7 DFF_X1
* cell instance $609 m0 *1 36.48,51.8
X$609 187 215 6 7 229 NAND2_X1
* cell instance $611 m0 *1 37.81,51.8
X$611 6 226 216 219 17 7 DFF_X1
* cell instance $612 m0 *1 41.04,51.8
X$612 187 216 6 7 222 NAND2_X1
* cell instance $613 m0 *1 41.61,51.8
X$613 155 222 234 6 219 7 AOI21_X1
* cell instance $624 r0 *1 33.06,51.8
X$624 8 228 6 7 221 NAND2_X1
* cell instance $628 r0 *1 34.96,51.8
X$628 155 229 233 6 227 7 AOI21_X1
* cell instance $631 m0 *1 42.94,51.8
X$631 6 190 225 231 17 7 DFF_X1
* cell instance $633 m0 *1 46.17,51.8
X$633 187 225 6 7 217 NAND2_X1
* cell instance $634 m0 *1 46.74,51.8
X$634 187 218 6 7 223 NAND2_X1
* cell instance $643 r0 *1 45.22,51.8
X$643 155 217 235 6 231 7 AOI21_X1
* cell instance $645 r0 *1 46.36,51.8
X$645 155 223 232 6 230 7 AOI21_X1
* cell instance $646 r0 *1 47.12,51.8
X$646 206 239 6 7 232 NAND2_X1
* cell instance $668 m0 *1 12.73,40.6
X$668 107 133 15 6 7 119 NAND3_X1
* cell instance $670 m0 *1 15.01,40.6
X$670 16 120 6 7 133 NAND2_X1
* cell instance $682 r0 *1 12.16,40.6
X$682 6 153 120 119 57 7 DFF_X1
* cell instance $685 m0 *1 19.95,40.6
X$685 97 104 122 7 6 121 HA_X1
* cell instance $689 m0 *1 25.65,40.6
X$689 127 6 7 57 CLKBUF_X3
* cell instance $690 m0 *1 26.6,40.6
X$690 57 6 7 252 INV_X2
* cell instance $691 m0 *1 27.17,40.6
X$691 114 98 126 6 7 125 NOR3_X1
* cell instance $692 m0 *1 27.93,40.6
X$692 114 98 108 6 7 139 NOR3_X1
* cell instance $693 m0 *1 28.69,40.6
X$693 138 6 7 108 INV_X1
* cell instance $696 m0 *1 30.02,40.6
X$696 126 150 138 7 6 94 HA_X1
* cell instance $697 m0 *1 31.92,40.6
X$697 98 97 6 7 128 NAND2_X1
* cell instance $699 m0 *1 32.68,40.6
X$699 141 109 85 78 115 7 6 142 OAI221_X1
* cell instance $700 m0 *1 33.82,40.6
X$700 150 97 126 6 7 95 NAND3_X1
* cell instance $701 m0 *1 34.58,40.6
X$701 144 143 85 78 115 7 6 118 OAI221_X1
* cell instance $702 m0 *1 35.72,40.6
X$702 95 98 96 6 7 143 NOR3_X1
* cell instance $705 r0 *1 20.14,40.6
X$705 121 122 123 7 135 6 OAI21_X1
* cell instance $706 r0 *1 20.9,40.6
X$706 129 153 123 7 6 137 HA_X1
* cell instance $707 r0 *1 22.8,40.6
X$707 137 6 7 168 INV_X1
* cell instance $710 r0 *1 24.13,40.6
X$710 135 6 7 170 INV_X1
* cell instance $714 r0 *1 26.98,40.6
X$714 78 115 139 7 160 6 OAI21_X1
* cell instance $715 r0 *1 27.74,40.6
X$715 78 115 125 7 124 6 OAI21_X1
* cell instance $718 r0 *1 31.92,40.6
X$718 140 6 7 127 CLKBUF_X3
* cell instance $719 r0 *1 32.87,40.6
X$719 155 142 128 6 149 7 AOI21_X1
* cell instance $722 r0 *1 35.53,40.6
X$722 129 6 7 96 BUF_X2
* cell instance $725 m0 *1 36.86,40.6
X$725 98 96 6 7 130 NAND2_X1
* cell instance $729 r0 *1 37.05,40.6
X$729 155 118 130 6 154 7 AOI21_X1
* cell instance $731 r0 *1 38.19,40.6
X$731 127 6 7 17 CLKBUF_X3
* cell instance $737 r0 *1 45.03,40.6
X$737 116 6 7 136 INV_X1
* cell instance $739 r0 *1 45.79,40.6
X$739 33 6 7 155 CLKBUF_X3
* cell instance $740 m0 *1 46.36,40.6
X$740 136 152 134 7 117 6 OAI21_X1
* cell instance $742 m0 *1 47.12,40.6
X$742 33 132 164 117 7 6 131 OAI22_X1
* cell instance $744 m0 *1 48.26,40.6
X$744 6 253 99 131 17 7 DFF_X1
* cell instance $949 m0 *1 18.81,43.4
X$949 145 6 7 156 INV_X1
* cell instance $951 m0 *1 19.38,43.4
X$951 6 146 122 145 123 158 7 NAND4_X4
* cell instance $952 m0 *1 22.8,43.4
X$952 147 156 148 7 6 171 OAI21_X2
* cell instance $953 m0 *1 24.13,43.4
X$953 6 115 159 171 170 7 AOI21_X4
* cell instance $962 r0 *1 13.68,43.4
X$962 6 254 157 176 57 7 DFF_X1
* cell instance $963 r0 *1 16.91,43.4
X$963 16 157 6 7 165 NAND2_X1
* cell instance $966 r0 *1 18.62,43.4
X$966 150 182 145 7 6 177 HA_X1
* cell instance $967 r0 *1 20.52,43.4
X$967 121 177 6 7 147 NOR2_X1
* cell instance $968 r0 *1 21.09,43.4
X$968 167 157 146 7 6 148 HA_X1
* cell instance $970 r0 *1 23.18,43.4
X$970 158 168 6 7 159 NAND2_X1
* cell instance $972 r0 *1 23.94,43.4
X$972 6 169 57 167 126 7 DFF_X2
* cell instance $973 m0 *1 27.74,43.4
X$973 98 150 6 7 161 NAND2_X1
* cell instance $974 m0 *1 26.98,43.4
X$974 155 172 124 6 169 7 AOI21_X1
* cell instance $975 m0 *1 28.31,43.4
X$975 98 126 6 7 172 NAND2_X1
* cell instance $978 m0 *1 30.59,43.4
X$978 6 149 17 247 97 7 DFF_X2
* cell instance $981 r0 *1 27.55,43.4
X$981 155 160 161 6 183 7 AOI21_X1
* cell instance $984 r0 *1 29.26,43.4
X$984 158 78 206 6 7 NOR2_X4
* cell instance $986 r0 *1 31.16,43.4
X$986 78 158 6 7 178 OR2_X1
* cell instance $988 m0 *1 37.81,43.4
X$988 6 154 17 248 129 7 DFF_X2
* cell instance $992 m0 *1 43.7,43.4
X$992 129 190 174 7 6 173 HA_X1
* cell instance $993 m0 *1 45.6,43.4
X$993 163 173 162 6 152 7 AOI21_X1
* cell instance $996 m0 *1 48.07,43.4
X$996 33 179 151 6 166 7 AOI21_X1
* cell instance $1008 r0 *1 43.32,43.4
X$1008 162 116 174 6 7 197 NAND3_X1
* cell instance $1009 r0 *1 44.08,43.4
X$1009 30 196 162 7 6 163 HA_X1
* cell instance $1012 r0 *1 46.93,43.4
X$1012 6 91 191 166 17 7 DFF_X1
* cell instance $1029 m0 *1 12.92,46.2
X$1029 8 175 6 7 185 NAND2_X1
* cell instance $1030 m0 *1 13.49,46.2
X$1030 185 165 15 6 7 176 NAND3_X1
* cell instance $1031 m0 *1 14.25,46.2
X$1031 6 182 195 193 57 7 DFF_X1
* cell instance $1036 m0 *1 26.03,46.2
X$1036 6 183 57 246 150 7 DFF_X2
* cell instance $1040 m0 *1 32.11,46.2
X$1040 178 6 7 187 BUF_X2
* cell instance $1042 m0 *1 33.06,46.2
X$1042 126 6 7 188 INV_X1
* cell instance $1046 m0 *1 38.19,46.2
X$1046 97 226 202 7 6 200 HA_X1
* cell instance $1050 r0 *1 4.37,46.2
X$1050 205 6 7 192 BUF_X1
* cell instance $1052 r0 *1 5.13,46.2
X$1052 184 6 7 175 BUF_X1
* cell instance $1057 r0 *1 13.87,46.2
X$1057 8 192 6 7 186 NAND2_X1
* cell instance $1058 r0 *1 14.44,46.2
X$1058 186 194 15 6 7 193 NAND3_X1
* cell instance $1061 r0 *1 16.34,46.2
X$1061 16 195 6 7 194 NAND2_X1
* cell instance $1065 r0 *1 32.11,46.2
X$1065 187 7 16 6 BUF_X4
* cell instance $1066 r0 *1 33.44,46.2
X$1066 189 188 210 6 203 7 AOI21_X1
* cell instance $1067 r0 *1 34.2,46.2
X$1067 199 6 7 189 INV_X1
* cell instance $1069 r0 *1 34.96,46.2
X$1069 150 207 199 7 6 204 HA_X1
* cell instance $1071 r0 *1 37.62,46.2
X$1071 203 204 202 7 198 6 OAI21_X1
* cell instance $1073 m0 *1 40.85,46.2
X$1073 197 201 198 6 164 7 AOI21_X1
* cell instance $1074 m0 *1 40.47,46.2
X$1074 200 6 7 201 INV_X1
* cell instance $1078 m0 *1 48.26,46.2
X$1078 187 191 6 7 179 NAND2_X1
* cell instance $1080 m0 *1 48.83,46.2
X$1080 206 181 6 7 151 NAND2_X1
* cell instance $1085 m0 *1 70.68,46.2
X$1085 180 6 7 181 BUF_X1
* cell instance $1120 r0 *1 30.4,49
X$1120 206 6 7 8 CLKBUF_X3
* cell instance $1122 r0 *1 31.54,49
X$1122 6 255 210 220 17 7 DFF_X1
* cell instance $1124 m0 *1 32.11,49
X$1124 16 210 6 7 224 NAND2_X1
* cell instance $1131 r0 *1 43.51,49
X$1131 6 196 218 230 17 7 DFF_X1
* cell instance $1132 m0 *1 45.41,49
X$1132 6 112 209 208 17 7 DFF_X1
* cell instance $1142 r0 *1 47.12,49
X$1142 155 214 211 6 208 7 AOI21_X1
* cell instance $1143 r0 *1 47.88,49
X$1143 187 209 6 7 214 NAND2_X1
* cell instance $1144 r0 *1 48.45,49
X$1144 206 213 6 7 211 NAND2_X1
* cell instance $1153 r0 *1 71.82,49
X$1153 212 6 7 213 BUF_X1
* cell instance $1209 m0 *1 23.56,35
X$1209 6 83 59 61 73 78 7 NAND4_X4
* cell instance $1210 m0 *1 26.98,35
X$1210 59 61 6 7 62 NAND2_X1
* cell instance $1221 r0 *1 24.13,35
X$1221 66 82 83 7 6 77 HA_X1
* cell instance $1222 r0 *1 26.03,35
X$1222 77 83 76 6 79 7 AOI21_X1
* cell instance $1223 r0 *1 26.79,35
X$1223 62 79 63 7 114 6 OAI21_X1
* cell instance $1224 r0 *1 27.55,35
X$1224 62 79 6 7 84 OR2_X1
* cell instance $1225 m0 *1 28.12,35
X$1225 64 61 60 6 63 7 AOI21_X1
* cell instance $1231 r0 *1 28.5,35
X$1231 84 63 7 6 85 AND2_X1
* cell instance $1235 m0 *1 37.05,35
X$1235 68 6 7 15 CLKBUF_X3
* cell instance $1238 m0 *1 39.71,35
X$1238 66 67 6 7 75 XOR2_X1
* cell instance $1239 m0 *1 40.85,35
X$1239 75 68 6 7 47 NAND2_X1
* cell instance $1243 m0 *1 41.8,35
X$1243 67 52 66 6 7 74 NAND3_X1
* cell instance $1248 m0 *1 45.41,35
X$1248 23 12 69 7 6 89 HA_X1
* cell instance $1251 r0 *1 45.41,35
X$1251 68 6 7 33 INV_X1
* cell instance $1253 r0 *1 46.17,35
X$1253 68 32 6 7 105 NAND2_X1
* cell instance $1255 m0 *1 47.88,35
X$1255 70 6 7 68 BUF_X1
* cell instance $1281 m0 *1 12.92,32.2
X$1281 35 37 15 6 7 71 NAND3_X1
* cell instance $1283 m0 *1 14.44,32.2
X$1283 8 18 6 7 53 NAND2_X1
* cell instance $1284 m0 *1 15.01,32.2
X$1284 16 50 6 7 37 NAND2_X1
* cell instance $1286 m0 *1 15.77,32.2
X$1286 36 49 15 6 7 39 NAND3_X1
* cell instance $1287 m0 *1 16.53,32.2
X$1287 6 40 43 39 57 7 DFF_X1
* cell instance $1291 m0 *1 24.51,32.2
X$1291 30 40 73 7 6 76 HA_X1
* cell instance $1292 m0 *1 26.41,32.2
X$1292 6 44 20 42 57 7 DFF_X1
* cell instance $1293 m0 *1 29.64,32.2
X$1293 16 20 6 7 21 NAND2_X1
* cell instance $1295 m0 *1 31.73,32.2
X$1295 6 56 17 245 30 7 DFF_X2
* cell instance $1296 m0 *1 35.34,32.2
X$1296 22 32 31 6 56 7 AOI21_X1
* cell instance $1297 m0 *1 36.1,32.2
X$1297 45 15 6 7 22 NAND2_X1
* cell instance $1300 m0 *1 40.47,32.2
X$1300 52 26 7 6 25 XNOR2_X1
* cell instance $1301 m0 *1 41.61,32.2
X$1301 74 23 7 41 6 XOR2_X2
* cell instance $1311 r0 *1 12.35,32.2
X$1311 6 51 50 71 57 7 DFF_X1
* cell instance $1312 r0 *1 15.58,32.2
X$1312 16 43 6 7 49 NAND2_X1
* cell instance $1313 r0 *1 16.15,32.2
X$1313 53 55 15 6 7 72 NAND3_X1
* cell instance $1314 r0 *1 16.91,32.2
X$1314 6 82 58 72 57 7 DFF_X1
* cell instance $1315 r0 *1 20.14,32.2
X$1315 16 58 6 7 55 NAND2_X1
* cell instance $1319 r0 *1 25.46,32.2
X$1319 52 51 59 7 6 60 HA_X1
* cell instance $1320 r0 *1 27.36,32.2
X$1320 23 44 61 7 6 64 HA_X1
* cell instance $1325 r0 *1 34.96,32.2
X$1325 30 65 7 6 45 XNOR2_X1
* cell instance $1326 r0 *1 36.1,32.2
X$1326 66 30 6 7 46 NAND2_X1
* cell instance $1327 r0 *1 36.67,32.2
X$1327 46 65 6 7 26 NOR2_X1
* cell instance $1329 r0 *1 40.28,32.2
X$1329 47 32 31 6 54 7 AOI21_X1
* cell instance $1331 r0 *1 41.42,32.2
X$1331 6 54 17 250 66 7 DFF_X2
* cell instance $1333 m0 *1 43.89,32.2
X$1333 41 33 32 31 38 7 6 AOI211_X2
* cell instance $1334 m0 *1 45.6,32.2
X$1334 33 25 6 7 34 OR2_X1
* cell instance $1335 m0 *1 46.36,32.2
X$1335 34 32 31 6 48 7 AOI21_X1
.ENDS pwm_generator

* cell AOI211_X2
* pin B
* pin A
* pin C2
* pin C1
* pin ZN
* pin NWELL,VDD
* pin PWELL,VSS
.SUBCKT AOI211_X2 1 2 3 4 6 7 8
* net 1 B
* net 2 A
* net 3 C2
* net 4 C1
* net 6 ZN
* net 7 NWELL,VDD
* net 8 PWELL,VSS
* device instance $1 r0 *1 0.175,0.995 PMOS_VTL
M$1 10 1 5 7 PMOS_VTL L=0.05U W=0.63U AS=0.06615P AD=0.0441P PS=1.47U PD=0.77U
* device instance $2 r0 *1 0.365,0.995 PMOS_VTL
M$2 7 2 10 7 PMOS_VTL L=0.05U W=0.63U AS=0.0441P AD=0.0441P PS=0.77U PD=0.77U
* device instance $3 r0 *1 0.555,0.995 PMOS_VTL
M$3 9 2 7 7 PMOS_VTL L=0.05U W=0.63U AS=0.0441P AD=0.0441P PS=0.77U PD=0.77U
* device instance $4 r0 *1 0.745,0.995 PMOS_VTL
M$4 5 1 9 7 PMOS_VTL L=0.05U W=0.63U AS=0.0441P AD=0.055125P PS=0.77U PD=0.805U
* device instance $5 r0 *1 0.97,0.995 PMOS_VTL
M$5 6 3 5 7 PMOS_VTL L=0.05U W=1.26U AS=0.099225P AD=0.11025P PS=1.575U PD=2.24U
* device instance $6 r0 *1 1.16,0.995 PMOS_VTL
M$6 5 4 6 7 PMOS_VTL L=0.05U W=1.26U AS=0.0882P AD=0.0882P PS=1.54U PD=1.54U
* device instance $9 r0 *1 0.175,0.2975 NMOS_VTL
M$9 6 1 8 8 NMOS_VTL L=0.05U W=0.83U AS=0.072625P AD=0.0653625P PS=1.595U
+ PD=1.145U
* device instance $10 r0 *1 0.365,0.2975 NMOS_VTL
M$10 8 2 6 8 NMOS_VTL L=0.05U W=0.83U AS=0.0581P AD=0.0581P PS=1.11U PD=1.11U
* device instance $13 r0 *1 0.97,0.2975 NMOS_VTL
M$13 11 3 8 8 NMOS_VTL L=0.05U W=0.415U AS=0.0363125P AD=0.02905P PS=0.59U
+ PD=0.555U
* device instance $14 r0 *1 1.16,0.2975 NMOS_VTL
M$14 6 4 11 8 NMOS_VTL L=0.05U W=0.415U AS=0.02905P AD=0.02905P PS=0.555U
+ PD=0.555U
* device instance $15 r0 *1 1.35,0.2975 NMOS_VTL
M$15 12 4 6 8 NMOS_VTL L=0.05U W=0.415U AS=0.02905P AD=0.02905P PS=0.555U
+ PD=0.555U
* device instance $16 r0 *1 1.54,0.2975 NMOS_VTL
M$16 8 3 12 8 NMOS_VTL L=0.05U W=0.415U AS=0.02905P AD=0.043575P PS=0.555U
+ PD=1.04U
.ENDS AOI211_X2

* cell XOR2_X2
* pin B
* pin A
* pin NWELL,VDD
* pin Z
* pin PWELL,VSS
.SUBCKT XOR2_X2 1 2 4 5 7
* net 1 B
* net 2 A
* net 4 NWELL,VDD
* net 5 Z
* net 7 PWELL,VSS
* device instance $1 r0 *1 0.2,0.995 PMOS_VTL
M$1 8 2 3 4 PMOS_VTL L=0.05U W=0.63U AS=0.06615P AD=0.0441P PS=1.47U PD=0.77U
* device instance $2 r0 *1 0.39,0.995 PMOS_VTL
M$2 4 1 8 4 PMOS_VTL L=0.05U W=0.63U AS=0.0441P AD=0.0441P PS=0.77U PD=0.77U
* device instance $3 r0 *1 0.58,0.995 PMOS_VTL
M$3 6 3 4 4 PMOS_VTL L=0.05U W=1.26U AS=0.0882P AD=0.11025P PS=1.54U PD=2.24U
* device instance $4 r0 *1 0.77,0.995 PMOS_VTL
M$4 5 2 6 4 PMOS_VTL L=0.05U W=1.26U AS=0.0882P AD=0.0882P PS=1.54U PD=1.54U
* device instance $5 r0 *1 0.96,0.995 PMOS_VTL
M$5 6 1 5 4 PMOS_VTL L=0.05U W=1.26U AS=0.0882P AD=0.0882P PS=1.54U PD=1.54U
* device instance $9 r0 *1 0.2,0.2975 NMOS_VTL
M$9 3 2 7 7 NMOS_VTL L=0.05U W=0.415U AS=0.043575P AD=0.02905P PS=1.04U
+ PD=0.555U
* device instance $10 r0 *1 0.39,0.2975 NMOS_VTL
M$10 7 1 3 7 NMOS_VTL L=0.05U W=0.415U AS=0.02905P AD=0.02905P PS=0.555U
+ PD=0.555U
* device instance $11 r0 *1 0.58,0.2975 NMOS_VTL
M$11 5 3 7 7 NMOS_VTL L=0.05U W=0.83U AS=0.0581P AD=0.072625P PS=1.11U PD=1.595U
* device instance $12 r0 *1 0.77,0.2975 NMOS_VTL
M$12 10 2 5 7 NMOS_VTL L=0.05U W=0.415U AS=0.02905P AD=0.02905P PS=0.555U
+ PD=0.555U
* device instance $13 r0 *1 0.96,0.2975 NMOS_VTL
M$13 7 1 10 7 NMOS_VTL L=0.05U W=0.415U AS=0.02905P AD=0.02905P PS=0.555U
+ PD=0.555U
* device instance $14 r0 *1 1.15,0.2975 NMOS_VTL
M$14 9 1 7 7 NMOS_VTL L=0.05U W=0.415U AS=0.02905P AD=0.02905P PS=0.555U
+ PD=0.555U
* device instance $15 r0 *1 1.34,0.2975 NMOS_VTL
M$15 5 2 9 7 NMOS_VTL L=0.05U W=0.415U AS=0.02905P AD=0.02905P PS=0.555U
+ PD=0.555U
.ENDS XOR2_X2

* cell XNOR2_X1
* pin A
* pin B
* pin NWELL,VDD
* pin PWELL,VSS
* pin ZN
.SUBCKT XNOR2_X1 1 2 4 5 7
* net 1 A
* net 2 B
* net 4 NWELL,VDD
* net 5 PWELL,VSS
* net 7 ZN
* device instance $1 r0 *1 0.18,1.1525 PMOS_VTL
M$1 3 1 4 4 PMOS_VTL L=0.05U W=0.315U AS=0.033075P AD=0.02205P PS=0.84U
+ PD=0.455U
* device instance $2 r0 *1 0.37,1.1525 PMOS_VTL
M$2 3 2 4 4 PMOS_VTL L=0.05U W=0.315U AS=0.0338625P AD=0.02205P PS=0.775U
+ PD=0.455U
* device instance $3 r0 *1 0.565,0.995 PMOS_VTL
M$3 7 3 4 4 PMOS_VTL L=0.05U W=0.63U AS=0.0338625P AD=0.0441P PS=0.775U PD=0.77U
* device instance $4 r0 *1 0.755,0.995 PMOS_VTL
M$4 8 1 7 4 PMOS_VTL L=0.05U W=0.63U AS=0.0441P AD=0.0441P PS=0.77U PD=0.77U
* device instance $5 r0 *1 0.945,0.995 PMOS_VTL
M$5 4 2 8 4 PMOS_VTL L=0.05U W=0.63U AS=0.0441P AD=0.06615P PS=0.77U PD=1.47U
* device instance $6 r0 *1 0.18,0.195 NMOS_VTL
M$6 9 1 3 5 NMOS_VTL L=0.05U W=0.21U AS=0.02205P AD=0.0147P PS=0.63U PD=0.35U
* device instance $7 r0 *1 0.37,0.195 NMOS_VTL
M$7 5 2 9 5 NMOS_VTL L=0.05U W=0.21U AS=0.0147P AD=0.0224P PS=0.35U PD=0.56U
* device instance $8 r0 *1 0.565,0.2975 NMOS_VTL
M$8 6 3 5 5 NMOS_VTL L=0.05U W=0.415U AS=0.0224P AD=0.02905P PS=0.56U PD=0.555U
* device instance $9 r0 *1 0.755,0.2975 NMOS_VTL
M$9 7 1 6 5 NMOS_VTL L=0.05U W=0.415U AS=0.02905P AD=0.02905P PS=0.555U
+ PD=0.555U
* device instance $10 r0 *1 0.945,0.2975 NMOS_VTL
M$10 6 2 7 5 NMOS_VTL L=0.05U W=0.415U AS=0.02905P AD=0.043575P PS=0.555U
+ PD=1.04U
.ENDS XNOR2_X1

* cell BUF_X4
* pin A
* pin NWELL,VDD
* pin Z
* pin PWELL,VSS
.SUBCKT BUF_X4 1 3 4 5
* net 1 A
* net 3 NWELL,VDD
* net 4 Z
* net 5 PWELL,VSS
* device instance $1 r0 *1 0.17,0.995 PMOS_VTL
M$1 2 1 3 3 PMOS_VTL L=0.05U W=1.26U AS=0.11025P AD=0.0882P PS=2.24U PD=1.54U
* device instance $3 r0 *1 0.55,0.995 PMOS_VTL
M$3 4 2 3 3 PMOS_VTL L=0.05U W=2.52U AS=0.1764P AD=0.19845P PS=3.08U PD=3.78U
* device instance $7 r0 *1 0.17,0.2975 NMOS_VTL
M$7 2 1 5 5 NMOS_VTL L=0.05U W=0.83U AS=0.072625P AD=0.0581P PS=1.595U PD=1.11U
* device instance $9 r0 *1 0.55,0.2975 NMOS_VTL
M$9 4 2 5 5 NMOS_VTL L=0.05U W=1.66U AS=0.1162P AD=0.130725P PS=2.22U PD=2.705U
.ENDS BUF_X4

* cell BUF_X2
* pin A
* pin PWELL,VSS
* pin NWELL,VDD
* pin Z
.SUBCKT BUF_X2 1 3 4 5
* net 1 A
* net 3 PWELL,VSS
* net 4 NWELL,VDD
* net 5 Z
* device instance $1 r0 *1 0.21,0.995 PMOS_VTL
M$1 4 1 2 4 PMOS_VTL L=0.05U W=0.63U AS=0.06615P AD=0.0441P PS=1.47U PD=0.77U
* device instance $2 r0 *1 0.4,0.995 PMOS_VTL
M$2 5 2 4 4 PMOS_VTL L=0.05U W=1.26U AS=0.0882P AD=0.11025P PS=1.54U PD=2.24U
* device instance $4 r0 *1 0.21,0.2975 NMOS_VTL
M$4 3 1 2 3 NMOS_VTL L=0.05U W=0.415U AS=0.043575P AD=0.02905P PS=1.04U
+ PD=0.555U
* device instance $5 r0 *1 0.4,0.2975 NMOS_VTL
M$5 5 2 3 3 NMOS_VTL L=0.05U W=0.83U AS=0.0581P AD=0.072625P PS=1.11U PD=1.595U
.ENDS BUF_X2

* cell OR2_X1
* pin A1
* pin A2
* pin PWELL,VSS
* pin NWELL,VDD
* pin ZN
.SUBCKT OR2_X1 1 2 3 5 6
* net 1 A1
* net 2 A2
* net 3 PWELL,VSS
* net 5 NWELL,VDD
* net 6 ZN
* device instance $1 r0 *1 0.17,1.1525 PMOS_VTL
M$1 7 1 4 5 PMOS_VTL L=0.05U W=0.315U AS=0.033075P AD=0.02205P PS=0.84U
+ PD=0.455U
* device instance $2 r0 *1 0.36,1.1525 PMOS_VTL
M$2 7 2 5 5 PMOS_VTL L=0.05U W=0.315U AS=0.033075P AD=0.02205P PS=0.77U
+ PD=0.455U
* device instance $3 r0 *1 0.55,0.995 PMOS_VTL
M$3 6 4 5 5 PMOS_VTL L=0.05U W=0.63U AS=0.033075P AD=0.06615P PS=0.77U PD=1.47U
* device instance $4 r0 *1 0.17,0.195 NMOS_VTL
M$4 4 1 3 3 NMOS_VTL L=0.05U W=0.21U AS=0.02205P AD=0.0147P PS=0.63U PD=0.35U
* device instance $5 r0 *1 0.36,0.195 NMOS_VTL
M$5 3 2 4 3 NMOS_VTL L=0.05U W=0.21U AS=0.0147P AD=0.021875P PS=0.35U PD=0.555U
* device instance $6 r0 *1 0.55,0.2975 NMOS_VTL
M$6 6 4 3 3 NMOS_VTL L=0.05U W=0.415U AS=0.021875P AD=0.043575P PS=0.555U
+ PD=1.04U
.ENDS OR2_X1

* cell AOI21_X4
* pin PWELL,VSS
* pin ZN
* pin A
* pin B2
* pin B1
* pin NWELL,VDD
.SUBCKT AOI21_X4 1 2 3 4 5 11
* net 1 PWELL,VSS
* net 2 ZN
* net 3 A
* net 4 B2
* net 5 B1
* net 11 NWELL,VDD
* device instance $1 r0 *1 0.185,0.995 PMOS_VTL
M$1 11 3 10 11 PMOS_VTL L=0.05U W=2.52U AS=0.19845P AD=0.1764P PS=3.78U PD=3.08U
* device instance $5 r0 *1 0.945,0.995 PMOS_VTL
M$5 2 4 10 11 PMOS_VTL L=0.05U W=2.52U AS=0.1764P AD=0.19845P PS=3.08U PD=3.78U
* device instance $6 r0 *1 1.135,0.995 PMOS_VTL
M$6 10 5 2 11 PMOS_VTL L=0.05U W=2.52U AS=0.1764P AD=0.1764P PS=3.08U PD=3.08U
* device instance $13 r0 *1 0.185,0.2975 NMOS_VTL
M$13 2 3 1 1 NMOS_VTL L=0.05U W=1.66U AS=0.130725P AD=0.1162P PS=2.705U PD=2.22U
* device instance $17 r0 *1 0.945,0.2975 NMOS_VTL
M$17 8 4 1 1 NMOS_VTL L=0.05U W=0.415U AS=0.02905P AD=0.02905P PS=0.555U
+ PD=0.555U
* device instance $18 r0 *1 1.135,0.2975 NMOS_VTL
M$18 2 5 8 1 NMOS_VTL L=0.05U W=0.415U AS=0.02905P AD=0.02905P PS=0.555U
+ PD=0.555U
* device instance $19 r0 *1 1.325,0.2975 NMOS_VTL
M$19 9 5 2 1 NMOS_VTL L=0.05U W=0.415U AS=0.02905P AD=0.02905P PS=0.555U
+ PD=0.555U
* device instance $20 r0 *1 1.515,0.2975 NMOS_VTL
M$20 1 4 9 1 NMOS_VTL L=0.05U W=0.415U AS=0.02905P AD=0.02905P PS=0.555U
+ PD=0.555U
* device instance $21 r0 *1 1.705,0.2975 NMOS_VTL
M$21 6 4 1 1 NMOS_VTL L=0.05U W=0.415U AS=0.02905P AD=0.02905P PS=0.555U
+ PD=0.555U
* device instance $22 r0 *1 1.895,0.2975 NMOS_VTL
M$22 2 5 6 1 NMOS_VTL L=0.05U W=0.415U AS=0.02905P AD=0.02905P PS=0.555U
+ PD=0.555U
* device instance $23 r0 *1 2.085,0.2975 NMOS_VTL
M$23 7 5 2 1 NMOS_VTL L=0.05U W=0.415U AS=0.02905P AD=0.02905P PS=0.555U
+ PD=0.555U
* device instance $24 r0 *1 2.275,0.2975 NMOS_VTL
M$24 1 4 7 1 NMOS_VTL L=0.05U W=0.415U AS=0.02905P AD=0.043575P PS=0.555U
+ PD=1.04U
.ENDS AOI21_X4

* cell OAI21_X2
* pin A
* pin B2
* pin B1
* pin NWELL,VDD
* pin PWELL,VSS
* pin ZN
.SUBCKT OAI21_X2 1 2 3 5 6 7
* net 1 A
* net 2 B2
* net 3 B1
* net 5 NWELL,VDD
* net 6 PWELL,VSS
* net 7 ZN
* device instance $1 r0 *1 0.17,0.995 PMOS_VTL
M$1 7 1 5 5 PMOS_VTL L=0.05U W=1.26U AS=0.11025P AD=0.0882P PS=2.24U PD=1.54U
* device instance $3 r0 *1 0.55,0.995 PMOS_VTL
M$3 8 2 5 5 PMOS_VTL L=0.05U W=0.63U AS=0.0441P AD=0.0441P PS=0.77U PD=0.77U
* device instance $4 r0 *1 0.74,0.995 PMOS_VTL
M$4 7 3 8 5 PMOS_VTL L=0.05U W=0.63U AS=0.0441P AD=0.0441P PS=0.77U PD=0.77U
* device instance $5 r0 *1 0.93,0.995 PMOS_VTL
M$5 9 3 7 5 PMOS_VTL L=0.05U W=0.63U AS=0.0441P AD=0.0441P PS=0.77U PD=0.77U
* device instance $6 r0 *1 1.12,0.995 PMOS_VTL
M$6 5 2 9 5 PMOS_VTL L=0.05U W=0.63U AS=0.0441P AD=0.06615P PS=0.77U PD=1.47U
* device instance $7 r0 *1 0.17,0.2975 NMOS_VTL
M$7 6 1 4 6 NMOS_VTL L=0.05U W=0.83U AS=0.072625P AD=0.0581P PS=1.595U PD=1.11U
* device instance $9 r0 *1 0.55,0.2975 NMOS_VTL
M$9 7 2 4 6 NMOS_VTL L=0.05U W=0.83U AS=0.0581P AD=0.072625P PS=1.11U PD=1.595U
* device instance $10 r0 *1 0.74,0.2975 NMOS_VTL
M$10 4 3 7 6 NMOS_VTL L=0.05U W=0.83U AS=0.0581P AD=0.0581P PS=1.11U PD=1.11U
.ENDS OAI21_X2

* cell NOR2_X4
* pin A2
* pin A1
* pin ZN
* pin PWELL,VSS
* pin NWELL,VDD
.SUBCKT NOR2_X4 1 2 3 4 5
* net 1 A2
* net 2 A1
* net 3 ZN
* net 4 PWELL,VSS
* net 5 NWELL,VDD
* device instance $1 r0 *1 0.21,0.995 PMOS_VTL
M$1 9 1 5 5 PMOS_VTL L=0.05U W=0.63U AS=0.06615P AD=0.0441P PS=1.47U PD=0.77U
* device instance $2 r0 *1 0.4,0.995 PMOS_VTL
M$2 3 2 9 5 PMOS_VTL L=0.05U W=0.63U AS=0.0441P AD=0.0441P PS=0.77U PD=0.77U
* device instance $3 r0 *1 0.59,0.995 PMOS_VTL
M$3 8 2 3 5 PMOS_VTL L=0.05U W=0.63U AS=0.0441P AD=0.0441P PS=0.77U PD=0.77U
* device instance $4 r0 *1 0.78,0.995 PMOS_VTL
M$4 5 1 8 5 PMOS_VTL L=0.05U W=0.63U AS=0.0441P AD=0.0441P PS=0.77U PD=0.77U
* device instance $5 r0 *1 0.97,0.995 PMOS_VTL
M$5 7 1 5 5 PMOS_VTL L=0.05U W=0.63U AS=0.0441P AD=0.0441P PS=0.77U PD=0.77U
* device instance $6 r0 *1 1.16,0.995 PMOS_VTL
M$6 3 2 7 5 PMOS_VTL L=0.05U W=0.63U AS=0.0441P AD=0.0441P PS=0.77U PD=0.77U
* device instance $7 r0 *1 1.35,0.995 PMOS_VTL
M$7 6 2 3 5 PMOS_VTL L=0.05U W=0.63U AS=0.0441P AD=0.0441P PS=0.77U PD=0.77U
* device instance $8 r0 *1 1.54,0.995 PMOS_VTL
M$8 5 1 6 5 PMOS_VTL L=0.05U W=0.63U AS=0.0441P AD=0.06615P PS=0.77U PD=1.47U
* device instance $9 r0 *1 0.21,0.2975 NMOS_VTL
M$9 3 1 4 4 NMOS_VTL L=0.05U W=1.66U AS=0.130725P AD=0.130725P PS=2.705U
+ PD=2.705U
* device instance $10 r0 *1 0.4,0.2975 NMOS_VTL
M$10 4 2 3 4 NMOS_VTL L=0.05U W=1.66U AS=0.1162P AD=0.1162P PS=2.22U PD=2.22U
.ENDS NOR2_X4

* cell NAND4_X4
* pin PWELL,VSS
* pin A3
* pin A4
* pin A1
* pin A2
* pin ZN
* pin NWELL,VDD
.SUBCKT NAND4_X4 1 2 3 7 8 9 10
* net 1 PWELL,VSS
* net 2 A3
* net 3 A4
* net 7 A1
* net 8 A2
* net 9 ZN
* net 10 NWELL,VDD
* device instance $1 r0 *1 0.215,0.995 PMOS_VTL
M$1 10 7 9 10 PMOS_VTL L=0.05U W=2.52U AS=0.19845P AD=0.1764P PS=3.78U PD=3.08U
* device instance $5 r0 *1 0.975,0.995 PMOS_VTL
M$5 10 8 9 10 PMOS_VTL L=0.05U W=2.52U AS=0.1764P AD=0.22365P PS=3.08U PD=3.23U
* device instance $9 r0 *1 1.885,0.995 PMOS_VTL
M$9 10 2 9 10 PMOS_VTL L=0.05U W=2.52U AS=0.22365P AD=0.1764P PS=3.23U PD=3.08U
* device instance $13 r0 *1 2.645,0.995 PMOS_VTL
M$13 10 3 9 10 PMOS_VTL L=0.05U W=2.52U AS=0.1764P AD=0.19845P PS=3.08U PD=3.78U
* device instance $17 r0 *1 1.885,0.2975 NMOS_VTL
M$17 5 2 6 1 NMOS_VTL L=0.05U W=1.66U AS=0.130725P AD=0.1162P PS=2.705U PD=2.22U
* device instance $21 r0 *1 2.645,0.2975 NMOS_VTL
M$21 1 3 6 1 NMOS_VTL L=0.05U W=1.66U AS=0.1162P AD=0.130725P PS=2.22U PD=2.705U
* device instance $25 r0 *1 0.215,0.2975 NMOS_VTL
M$25 9 7 4 1 NMOS_VTL L=0.05U W=1.66U AS=0.130725P AD=0.1162P PS=2.705U PD=2.22U
* device instance $29 r0 *1 0.975,0.2975 NMOS_VTL
M$29 5 8 4 1 NMOS_VTL L=0.05U W=1.66U AS=0.1162P AD=0.130725P PS=2.22U PD=2.705U
.ENDS NAND4_X4

* cell AOI21_X1
* pin A
* pin B2
* pin B1
* pin PWELL,VSS
* pin ZN
* pin NWELL,VDD
.SUBCKT AOI21_X1 1 2 3 4 6 7
* net 1 A
* net 2 B2
* net 3 B1
* net 4 PWELL,VSS
* net 6 ZN
* net 7 NWELL,VDD
* device instance $1 r0 *1 0.21,0.995 PMOS_VTL
M$1 6 2 5 7 PMOS_VTL L=0.05U W=0.63U AS=0.06615P AD=0.0441P PS=1.47U PD=0.77U
* device instance $2 r0 *1 0.4,0.995 PMOS_VTL
M$2 5 3 6 7 PMOS_VTL L=0.05U W=0.63U AS=0.0441P AD=0.0441P PS=0.77U PD=0.77U
* device instance $3 r0 *1 0.59,0.995 PMOS_VTL
M$3 7 1 5 7 PMOS_VTL L=0.05U W=0.63U AS=0.0441P AD=0.06615P PS=0.77U PD=1.47U
* device instance $4 r0 *1 0.21,0.2975 NMOS_VTL
M$4 8 2 4 4 NMOS_VTL L=0.05U W=0.415U AS=0.043575P AD=0.02905P PS=1.04U
+ PD=0.555U
* device instance $5 r0 *1 0.4,0.2975 NMOS_VTL
M$5 6 3 8 4 NMOS_VTL L=0.05U W=0.415U AS=0.02905P AD=0.02905P PS=0.555U
+ PD=0.555U
* device instance $6 r0 *1 0.59,0.2975 NMOS_VTL
M$6 4 1 6 4 NMOS_VTL L=0.05U W=0.415U AS=0.02905P AD=0.043575P PS=0.555U
+ PD=1.04U
.ENDS AOI21_X1

* cell DFF_X1
* pin PWELL,VSS
* pin QN
* pin Q
* pin D
* pin CK
* pin NWELL,VDD
.SUBCKT DFF_X1 1 8 9 14 15 16
* net 1 PWELL,VSS
* net 8 QN
* net 9 Q
* net 14 D
* net 15 CK
* net 16 NWELL,VDD
* device instance $1 r0 *1 2.85,0.995 PMOS_VTL
M$1 16 6 8 16 PMOS_VTL L=0.05U W=0.63U AS=0.06615P AD=0.0441P PS=1.47U PD=0.77U
* device instance $2 r0 *1 3.04,0.995 PMOS_VTL
M$2 9 7 16 16 PMOS_VTL L=0.05U W=0.63U AS=0.0441P AD=0.06615P PS=0.77U PD=1.47U
* device instance $3 r0 *1 0.185,0.9425 PMOS_VTL
M$3 16 5 2 16 PMOS_VTL L=0.05U W=0.315U AS=0.033075P AD=0.014175P PS=0.84U
+ PD=0.455U
* device instance $4 r0 *1 0.375,1.055 PMOS_VTL
M$4 17 3 16 16 PMOS_VTL L=0.05U W=0.09U AS=0.014175P AD=0.0063P PS=0.455U
+ PD=0.23U
* device instance $5 r0 *1 0.565,1.055 PMOS_VTL
M$5 17 5 4 16 PMOS_VTL L=0.05U W=0.09U AS=0.018075P AD=0.0063P PS=0.565U
+ PD=0.23U
* device instance $6 r0 *1 0.76,0.975 PMOS_VTL
M$6 18 2 4 16 PMOS_VTL L=0.05U W=0.42U AS=0.018075P AD=0.0294P PS=0.565U
+ PD=0.56U
* device instance $7 r0 *1 0.95,0.975 PMOS_VTL
M$7 16 14 18 16 PMOS_VTL L=0.05U W=0.42U AS=0.0294P AD=0.025725P PS=0.56U
+ PD=0.56U
* device instance $8 r0 *1 1.14,1.0275 PMOS_VTL
M$8 3 4 16 16 PMOS_VTL L=0.05U W=0.315U AS=0.025725P AD=0.0567P PS=0.56U
+ PD=0.99U
* device instance $9 r0 *1 1.555,1.0275 PMOS_VTL
M$9 16 15 5 16 PMOS_VTL L=0.05U W=0.315U AS=0.033075P AD=0.02205P PS=0.84U
+ PD=0.455U
* device instance $10 r0 *1 1.745,1.0275 PMOS_VTL
M$10 19 4 16 16 PMOS_VTL L=0.05U W=0.315U AS=0.02205P AD=0.02205P PS=0.455U
+ PD=0.455U
* device instance $11 r0 *1 1.935,1.0275 PMOS_VTL
M$11 6 5 19 16 PMOS_VTL L=0.05U W=0.315U AS=0.02205P AD=0.014175P PS=0.455U
+ PD=0.455U
* device instance $12 r0 *1 2.125,1.14 PMOS_VTL
M$12 20 2 6 16 PMOS_VTL L=0.05U W=0.09U AS=0.014175P AD=0.006525P PS=0.455U
+ PD=0.235U
* device instance $13 r0 *1 2.32,1.14 PMOS_VTL
M$13 20 7 16 16 PMOS_VTL L=0.05U W=0.09U AS=0.014175P AD=0.006525P PS=0.455U
+ PD=0.235U
* device instance $14 r0 *1 2.51,1.0275 PMOS_VTL