* CDL Netlist generated by OpenROAD

*.BUSDELIMITER [

.SUBCKT ddr_controller clk cmd_addr[0] cmd_addr[10] cmd_addr[11]
+ cmd_addr[12] cmd_addr[13] cmd_addr[14] cmd_addr[15] cmd_addr[16]
+ cmd_addr[17] cmd_addr[18] cmd_addr[19] cmd_addr[1] cmd_addr[20]
+ cmd_addr[21] cmd_addr[22] cmd_addr[23] cmd_addr[24] cmd_addr[25]
+ cmd_addr[26] cmd_addr[27] cmd_addr[2] cmd_addr[3] cmd_addr[4]
+ cmd_addr[5] cmd_addr[6] cmd_addr[7] cmd_addr[8] cmd_addr[9]
+ cmd_burst_len[0] cmd_burst_len[1] cmd_burst_len[2] cmd_burst_len[3]
+ cmd_ready cmd_valid cmd_write init_done phy_addr[0] phy_addr[10]
+ phy_addr[11] phy_addr[12] phy_addr[13] phy_addr[1] phy_addr[2]
+ phy_addr[3] phy_addr[4] phy_addr[5] phy_addr[6] phy_addr[7]
+ phy_addr[8] phy_addr[9] phy_bank[0] phy_bank[1] phy_bank[2]
+ phy_bank_group[0] phy_bank_group[1] phy_cas_n phy_cke phy_clk
+ phy_cs_n phy_dm[0] phy_dm[1] phy_dm[2] phy_dm[3] phy_dm[4]
+ phy_dm[5] phy_dm[6] phy_dm[7] phy_dq[0] phy_dq[10] phy_dq[11]
+ phy_dq[12] phy_dq[13] phy_dq[14] phy_dq[15] phy_dq[16] phy_dq[17]
+ phy_dq[18] phy_dq[19] phy_dq[1] phy_dq[20] phy_dq[21] phy_dq[22]
+ phy_dq[23] phy_dq[24] phy_dq[25] phy_dq[26] phy_dq[27] phy_dq[28]
+ phy_dq[29] phy_dq[2] phy_dq[30] phy_dq[31] phy_dq[32] phy_dq[33]
+ phy_dq[34] phy_dq[35] phy_dq[36] phy_dq[37] phy_dq[38] phy_dq[39]
+ phy_dq[3] phy_dq[40] phy_dq[41] phy_dq[42] phy_dq[43] phy_dq[44]
+ phy_dq[45] phy_dq[46] phy_dq[47] phy_dq[48] phy_dq[49] phy_dq[4]
+ phy_dq[50] phy_dq[51] phy_dq[52] phy_dq[53] phy_dq[54] phy_dq[55]
+ phy_dq[56] phy_dq[57] phy_dq[58] phy_dq[59] phy_dq[5] phy_dq[60]
+ phy_dq[61] phy_dq[62] phy_dq[63] phy_dq[6] phy_dq[7] phy_dq[8]
+ phy_dq[9] phy_dqs_n[0] phy_dqs_n[1] phy_dqs_n[2] phy_dqs_n[3]
+ phy_dqs_n[4] phy_dqs_n[5] phy_dqs_n[6] phy_dqs_n[7] phy_dqs_p[0]
+ phy_dqs_p[1] phy_dqs_p[2] phy_dqs_p[3] phy_dqs_p[4] phy_dqs_p[5]
+ phy_dqs_p[6] phy_dqs_p[7] phy_odt phy_ras_n phy_reset_n phy_we_n
+ rd_data[0] rd_data[10] rd_data[11] rd_data[12] rd_data[13]
+ rd_data[14] rd_data[15] rd_data[16] rd_data[17] rd_data[18]
+ rd_data[19] rd_data[1] rd_data[20] rd_data[21] rd_data[22]
+ rd_data[23] rd_data[24] rd_data[25] rd_data[26] rd_data[27]
+ rd_data[28] rd_data[29] rd_data[2] rd_data[30] rd_data[31]
+ rd_data[32] rd_data[33] rd_data[34] rd_data[35] rd_data[36]
+ rd_data[37] rd_data[38] rd_data[39] rd_data[3] rd_data[40]
+ rd_data[41] rd_data[42] rd_data[43] rd_data[44] rd_data[45]
+ rd_data[46] rd_data[47] rd_data[48] rd_data[49] rd_data[4]
+ rd_data[50] rd_data[51] rd_data[52] rd_data[53] rd_data[54]
+ rd_data[55] rd_data[56] rd_data[57] rd_data[58] rd_data[59]
+ rd_data[5] rd_data[60] rd_data[61] rd_data[62] rd_data[63]
+ rd_data[6] rd_data[7] rd_data[8] rd_data[9] rd_ready rd_valid
+ rst_n state[0] state[1] wr_data[0] wr_data[10] wr_data[11]
+ wr_data[12] wr_data[13] wr_data[14] wr_data[15] wr_data[16]
+ wr_data[17] wr_data[18] wr_data[19] wr_data[1] wr_data[20]
+ wr_data[21] wr_data[22] wr_data[23] wr_data[24] wr_data[25]
+ wr_data[26] wr_data[27] wr_data[28] wr_data[29] wr_data[2]
+ wr_data[30] wr_data[31] wr_data[32] wr_data[33] wr_data[34]
+ wr_data[35] wr_data[36] wr_data[37] wr_data[38] wr_data[39]
+ wr_data[3] wr_data[40] wr_data[41] wr_data[42] wr_data[43]
+ wr_data[44] wr_data[45] wr_data[46] wr_data[47] wr_data[48]
+ wr_data[49] wr_data[4] wr_data[50] wr_data[51] wr_data[52]
+ wr_data[53] wr_data[54] wr_data[55] wr_data[56] wr_data[57]
+ wr_data[58] wr_data[59] wr_data[5] wr_data[60] wr_data[61]
+ wr_data[62] wr_data[63] wr_data[6] wr_data[7] wr_data[8] wr_data[9]
+ wr_mask[0] wr_mask[1] wr_mask[2] wr_mask[3] wr_mask[4] wr_mask[5]
+ wr_mask[6] wr_mask[7] wr_ready wr_valid
X_0671_ _0660_ VSS VSS VDD VDD _0050_ sky130_fd_sc_hd__buf_2
X_0672_ timer\[5\] timer\[4\] VSS VSS VDD VDD _0051_ sky130_fd_sc_hd__nor2_1
X_0673_ timer\[3\] timer\[2\] VSS VSS VDD VDD _0052_ sky130_fd_sc_hd__nor2_2
X_0674_ _0654_ _0051_ _0052_ VSS VSS VDD VDD _0053_ sky130_fd_sc_hd__and3_1
X_0675_ timer\[7\] timer\[9\] timer\[8\] timer\[10\] VSS VSS
+ VDD VDD _0054_ sky130_fd_sc_hd__or4_2
X_0676_ timer\[6\] timer\[11\] VSS VSS VDD VDD _0055_ sky130_fd_sc_hd__or2_1
X_0677_ timer\[13\] timer\[12\] timer\[14\] timer\[15\] VSS
+ VSS VDD VDD _0056_ sky130_fd_sc_hd__or4_2
X_0678_ _0054_ _0055_ _0056_ VSS VSS VDD VDD _0057_ sky130_fd_sc_hd__nor3_2
X_0679_ _0050_ _0053_ _0057_ VSS VSS VDD VDD _0058_ sky130_fd_sc_hd__and3_1
X_0680_ _0058_ VSS VSS VDD VDD _0059_ sky130_fd_sc_hd__buf_2
X_0681_ init_state\[4\] _0059_ VSS VSS VDD VDD _0060_ sky130_fd_sc_hd__nand2_1
X_0682_ _0050_ VSS VSS VDD VDD _0061_ sky130_fd_sc_hd__clkbuf_4
X_0683_ _0061_ VSS VSS VDD VDD _0062_ sky130_fd_sc_hd__clkbuf_4
X_0684_ _0654_ _0051_ _0052_ VSS VSS VDD VDD _0063_ sky130_fd_sc_hd__nand3_4
X_0685_ _0054_ _0055_ _0056_ VSS VSS VDD VDD _0064_ sky130_fd_sc_hd__or3_2
X_0686_ _0063_ _0064_ VSS VSS VDD VDD _0065_ sky130_fd_sc_hd__nor2_1
X_0687_ _0065_ VSS VSS VDD VDD _0066_ sky130_fd_sc_hd__clkbuf_4
X_0688_ _0066_ VSS VSS VDD VDD _0067_ sky130_fd_sc_hd__clkbuf_4
X_0689_ _0062_ _0067_ VSS VSS VDD VDD _0068_ sky130_fd_sc_hd__nand2_2
X_0690_ init_state\[2\] _0068_ VSS VSS VDD VDD _0069_ sky130_fd_sc_hd__nand2_1
X_0691_ _0060_ _0069_ VSS VSS VDD VDD _0003_ sky130_fd_sc_hd__nand2_1
X_0692_ _0662_ VSS VSS VDD VDD _0070_ sky130_fd_sc_hd__clkbuf_4
X_0693_ net36 _0070_ _0067_ VSS VSS VDD VDD _0071_ sky130_fd_sc_hd__and3_2
X_0694_ _0631_ _0071_ VSS VSS VDD VDD _0012_ sky130_fd_sc_hd__and2_4
X_0695_ net120 VSS VSS VDD VDD _0628_ sky130_fd_sc_hd__inv_1
X_0696_ _0628_ _0626_ _0071_ VSS VSS VDD VDD _0013_ sky130_fd_sc_hd__and3_4
X_0697_ init_state\[5\] VSS VSS VDD VDD _0072_ sky130_fd_sc_hd__buf_2
X_0698_ _0072_ _0059_ VSS VSS VDD VDD _0073_ sky130_fd_sc_hd__nand2_1
X_0699_ init_state\[3\] _0068_ VSS VSS VDD VDD _0074_ sky130_fd_sc_hd__nand2_1
X_0700_ _0073_ _0074_ VSS VSS VDD VDD _0004_ sky130_fd_sc_hd__nand2_1
X_0701_ _0628_ _0622_ _0071_ VSS VSS VDD VDD _0014_ sky130_fd_sc_hd__and3_4
X_0702_ init_state\[0\] _0059_ VSS VSS VDD VDD _0075_ sky130_fd_sc_hd__nand2_1
X_0703_ init_state\[4\] _0068_ VSS VSS VDD VDD _0076_ sky130_fd_sc_hd__nand2_1
X_0704_ _0075_ _0076_ VSS VSS VDD VDD _0005_ sky130_fd_sc_hd__nand2_1
X_0705_ _0628_ _0624_ _0071_ VSS VSS VDD VDD _0015_ sky130_fd_sc_hd__and3_4
X_0706_ _0629_ _0071_ VSS VSS VDD VDD _0016_ sky130_fd_sc_hd__and2_4
X_0707_ init_state\[1\] _0059_ VSS VSS VDD VDD _0077_ sky130_fd_sc_hd__nand2_1
X_0708_ _0072_ _0068_ VSS VSS VDD VDD _0078_ sky130_fd_sc_hd__nand2_1
X_0709_ _0077_ _0078_ VSS VSS VDD VDD _0006_ sky130_fd_sc_hd__nand2_1
X_0710_ net120 _0624_ _0071_ VSS VSS VDD VDD _0011_ sky130_fd_sc_hd__and3_4
X_0711_ _0059_ init_state\[0\] VSS VSS VDD VDD _0001_ sky130_fd_sc_hd__nor2b_1
X_0712_ net120 _0626_ _0071_ VSS VSS VDD VDD _0009_ sky130_fd_sc_hd__and3_4
X_0713_ init_state\[6\] _0059_ VSS VSS VDD VDD _0079_ sky130_fd_sc_hd__nand2_1
X_0714_ init_state\[1\] _0068_ VSS VSS VDD VDD _0080_ sky130_fd_sc_hd__nand2_1
X_0715_ _0079_ _0080_ VSS VSS VDD VDD _0002_ sky130_fd_sc_hd__nand2_1
X_0716_ net120 _0622_ _0071_ VSS VSS VDD VDD _0010_ sky130_fd_sc_hd__and3_4
X_0717_ init_state\[2\] _0059_ VSS VSS VDD VDD _0081_ sky130_fd_sc_hd__nand2_1
X_0718_ init_state\[6\] _0068_ VSS VSS VDD VDD _0082_ sky130_fd_sc_hd__nand2_1
X_0719_ _0081_ _0082_ VSS VSS VDD VDD _0007_ sky130_fd_sc_hd__nand2_1
X_0720_ init_state\[3\] _0059_ init_state\[7\] VSS VSS VDD
+ VDD _0008_ sky130_fd_sc_hd__a21o_1
X_0721_ _0666_ VSS VSS VDD VDD _0083_ sky130_fd_sc_hd__clkbuf_4
X_0722_ _0083_ VSS VSS VDD VDD _0084_ sky130_fd_sc_hd__clkbuf_4
X_0723_ _0084_ VSS VSS VDD VDD _0085_ sky130_fd_sc_hd__clkbuf_4
X_0724_ net121 net131 VSS VSS VDD VDD _0086_ sky130_fd_sc_hd__nor2b_1
X_0725_ _0085_ net133 _0086_ VSS VSS VDD VDD _0017_ sky130_fd_sc_hd__and3_4
X_0726_ burst_counter\[0\] VSS VSS VDD VDD _0633_ sky130_fd_sc_hd__inv_1
X_0727_ net4 VSS VSS VDD VDD _0087_ sky130_fd_sc_hd__clkbuf_4
X_0728_ _0087_ VSS VSS VDD VDD _0088_ sky130_fd_sc_hd__clkbuf_4
X_0729_ cmd_addr[12] VSS VSS VDD VDD _0089_ sky130_fd_sc_hd__buf_6
X_0730_ _0089_ VSS VSS VDD VDD _0090_ sky130_fd_sc_hd__buf_6
X_0731_ _0090_ VSS VSS VDD VDD _0091_ sky130_fd_sc_hd__buf_6
X_0732_ _0091_ VSS VSS VDD VDD _0092_ sky130_fd_sc_hd__buf_6
X_0733_ net3 VSS VSS VDD VDD _0093_ sky130_fd_sc_hd__buf_4
X_0734_ _0093_ VSS VSS VDD VDD _0094_ sky130_fd_sc_hd__buf_6
X_0735_ _0088_ _0092_ _0094_ VSS VSS VDD VDD _0095_ sky130_fd_sc_hd__nor3b_1
X_0736_ _0088_ _0092_ VSS VSS VDD VDD _0096_ sky130_fd_sc_hd__nand2_2
X_0737_ _0093_ VSS VSS VDD VDD _0097_ sky130_fd_sc_hd__buf_6
X_0738_ active_row\[6\]\[9\] active_row\[7\]\[9\] _0097_ VSS
+ VSS VDD VDD _0098_ sky130_fd_sc_hd__mux2i_1
X_0739_ active_row\[1\]\[9\] _0095_ _0096_ _0098_ VSS VSS
+ VDD VDD _0099_ sky130_fd_sc_hd__o2bb2ai_1
X_0740_ _0089_ VSS VSS VDD VDD _0100_ sky130_fd_sc_hd__inv_1
X_0741_ _0100_ VSS VSS VDD VDD _0101_ sky130_fd_sc_hd__buf_4
X_0742_ _0091_ active_row\[4\]\[9\] VSS VSS VDD VDD _0102_
+ sky130_fd_sc_hd__nor2b_1
X_0743_ net4 VSS VSS VDD VDD _0103_ sky130_fd_sc_hd__inv_1
X_0744_ _0103_ VSS VSS VDD VDD _0104_ sky130_fd_sc_hd__buf_4
X_0745_ _0093_ VSS VSS VDD VDD _0105_ sky130_fd_sc_hd__clkinv_4
X_0746_ _0101_ active_row\[2\]\[9\] _0102_ _0104_ _0105_ VSS
+ VSS VDD VDD _0106_ sky130_fd_sc_hd__o221a_1
X_0747_ _0091_ VSS VSS VDD VDD _0107_ sky130_fd_sc_hd__buf_6
X_0748_ active_row\[5\]\[9\] VSS VSS VDD VDD _0108_ sky130_fd_sc_hd__inv_1
X_0749_ _0088_ _0097_ VSS VSS VDD VDD _0109_ sky130_fd_sc_hd__nand2_4
X_0750_ _0107_ active_row\[3\]\[9\] VSS VSS VDD VDD _0110_
+ sky130_fd_sc_hd__nand2_1
X_0751_ net4 net3 VSS VSS VDD VDD _0111_ sky130_fd_sc_hd__nand2b_4
X_0752_ _0107_ _0108_ _0109_ _0110_ _0111_ VSS VSS VDD VDD
+ _0112_ sky130_fd_sc_hd__o32ai_4
X_0753_ _0087_ _0093_ _0090_ VSS VSS VDD VDD _0113_ sky130_fd_sc_hd__or3_1
X_0754_ _0113_ VSS VSS VDD VDD _0114_ sky130_fd_sc_hd__buf_4
X_0755_ _0099_ _0106_ _0112_ _0114_ active_row\[0\]\[9\] VSS
+ VSS VDD VDD _0115_ sky130_fd_sc_hd__o32ai_4
X_0756_ net15 _0115_ VSS VSS VDD VDD _0116_ sky130_fd_sc_hd__xor2_1
X_0757_ active_row\[6\]\[3\] active_row\[7\]\[3\] _0097_ VSS
+ VSS VDD VDD _0117_ sky130_fd_sc_hd__mux2i_1
X_0758_ active_row\[1\]\[3\] _0095_ _0096_ _0117_ VSS VSS
+ VDD VDD _0118_ sky130_fd_sc_hd__o2bb2ai_1
X_0759_ _0091_ active_row\[4\]\[3\] VSS VSS VDD VDD _0119_
+ sky130_fd_sc_hd__nor2b_1
X_0760_ _0101_ active_row\[2\]\[3\] _0119_ _0104_ _0105_ VSS
+ VSS VDD VDD _0120_ sky130_fd_sc_hd__o221a_1
X_0761_ _0092_ VSS VSS VDD VDD _0121_ sky130_fd_sc_hd__buf_6
X_0762_ active_row\[5\]\[3\] VSS VSS VDD VDD _0122_ sky130_fd_sc_hd__inv_1
X_0763_ _0121_ active_row\[3\]\[3\] VSS VSS VDD VDD _0123_
+ sky130_fd_sc_hd__nand2_1
X_0764_ _0121_ _0122_ _0109_ _0123_ _0111_ VSS VSS VDD VDD
+ _0124_ sky130_fd_sc_hd__o32ai_4
X_0765_ _0118_ _0120_ _0124_ _0114_ active_row\[0\]\[3\] VSS
+ VSS VDD VDD _0125_ sky130_fd_sc_hd__o32ai_4
X_0766_ net8 _0125_ VSS VSS VDD VDD _0126_ sky130_fd_sc_hd__xor2_1
X_0767_ _0116_ _0126_ VSS VSS VDD VDD _0127_ sky130_fd_sc_hd__nand2_1
X_0768_ active_row\[1\]\[2\] active_row\[3\]\[2\] _0090_ VSS
+ VSS VDD VDD _0128_ sky130_fd_sc_hd__mux2i_1
X_0769_ _0090_ active_row\[5\]\[2\] _0087_ VSS VSS VDD VDD
+ _0129_ sky130_fd_sc_hd__nand3b_1
X_0770_ _0087_ _0128_ _0129_ VSS VSS VDD VDD _0130_ sky130_fd_sc_hd__o21ai_0
X_0771_ net4 _0089_ VSS VSS VDD VDD _0131_ sky130_fd_sc_hd__and2_0
X_0772_ active_row\[6\]\[2\] active_row\[7\]\[2\] net3 VSS
+ VSS VDD VDD _0132_ sky130_fd_sc_hd__mux2_1
X_0773_ active_row\[2\]\[2\] _0089_ VSS VSS VDD VDD _0133_
+ sky130_fd_sc_hd__nand2b_1
X_0774_ net4 net3 VSS VSS VDD VDD _0134_ sky130_fd_sc_hd__nor2_2
X_0775_ _0093_ _0090_ VSS VSS VDD VDD _0135_ sky130_fd_sc_hd__nor2_1
X_0776_ _0131_ _0132_ _0133_ _0134_ _0135_ active_row\[4\]\[2\]
+ VSS VSS VDD VDD _0136_ sky130_fd_sc_hd__a222oi_1
X_0777_ _0094_ _0130_ _0136_ VSS VSS VDD VDD _0137_ sky130_fd_sc_hd__a21boi_2
X_0778_ active_row\[0\]\[2\] _0113_ VSS VSS VDD VDD _0138_
+ sky130_fd_sc_hd__nor2_1
X_0779_ net7 _0137_ _0138_ VSS VSS VDD VDD _0139_ sky130_fd_sc_hd__or3_1
X_0780_ net7 _0137_ VSS VSS VDD VDD _0140_ sky130_fd_sc_hd__nand2_1
X_0781_ _0088_ VSS VSS VDD VDD _0141_ sky130_fd_sc_hd__buf_4
X_0782_ _0094_ VSS VSS VDD VDD _0142_ sky130_fd_sc_hd__clkbuf_8
X_0783_ active_row\[4\]\[12\] active_row\[6\]\[12\] _0107_
+ VSS VSS VDD VDD _0143_ sky130_fd_sc_hd__mux2i_1
X_0784_ _0121_ active_row\[5\]\[12\] _0142_ VSS VSS VDD VDD
+ _0144_ sky130_fd_sc_hd__nand3b_1
X_0785_ _0142_ _0143_ _0144_ VSS VSS VDD VDD _0145_ sky130_fd_sc_hd__o21ai_0
X_0786_ active_row\[3\]\[12\] active_row\[7\]\[12\] _0141_
+ VSS VSS VDD VDD _0146_ sky130_fd_sc_hd__mux2i_1
X_0787_ _0105_ _0101_ _0146_ VSS VSS VDD VDD _0147_ sky130_fd_sc_hd__nor3_1
X_0788_ _0092_ active_row\[1\]\[12\] VSS VSS VDD VDD _0148_
+ sky130_fd_sc_hd__nor2b_1
X_0789_ _0101_ active_row\[2\]\[12\] _0148_ _0105_ _0104_
+ VSS VSS VDD VDD _0149_ sky130_fd_sc_hd__o221a_1
X_0790_ _0141_ _0145_ _0147_ _0149_ VSS VSS VDD VDD _0150_
+ sky130_fd_sc_hd__a211oi_1
X_0791_ active_row\[0\]\[12\] _0114_ VSS VSS VDD VDD _0151_
+ sky130_fd_sc_hd__nor2_1
X_0792_ net18 _0150_ _0151_ VSS VSS VDD VDD _0152_ sky130_fd_sc_hd__or3_1
X_0793_ _0150_ _0151_ net18 VSS VSS VDD VDD _0153_ sky130_fd_sc_hd__o21ai_0
X_0794_ _0139_ _0140_ _0152_ _0153_ VSS VSS VDD VDD _0154_
+ sky130_fd_sc_hd__nand4_1
X_0795_ active_row\[6\]\[11\] active_row\[7\]\[11\] _0142_
+ VSS VSS VDD VDD _0155_ sky130_fd_sc_hd__mux2i_1
X_0796_ _0096_ _0155_ VSS VSS VDD VDD _0156_ sky130_fd_sc_hd__nor2_1
X_0797_ _0101_ active_row\[2\]\[11\] _0134_ VSS VSS VDD VDD
+ _0157_ sky130_fd_sc_hd__o21ai_0
X_0798_ active_row\[4\]\[11\] _0135_ VSS VSS VDD VDD _0158_
+ sky130_fd_sc_hd__nand2_1
X_0799_ active_row\[1\]\[11\] active_row\[5\]\[11\] _0088_
+ VSS VSS VDD VDD _0159_ sky130_fd_sc_hd__mux2i_1
X_0800_ _0107_ active_row\[3\]\[11\] VSS VSS VDD VDD _0160_
+ sky130_fd_sc_hd__nand2_1
X_0801_ _0105_ _0092_ _0159_ _0160_ _0111_ VSS VSS VDD VDD
+ _0161_ sky130_fd_sc_hd__o32a_1
X_0802_ _0156_ _0157_ _0158_ _0161_ VSS VSS VDD VDD _0162_
+ sky130_fd_sc_hd__and4b_1
X_0803_ active_row\[0\]\[8\] VSS VSS VDD VDD _0163_ sky130_fd_sc_hd__inv_1
X_0804_ _0087_ _0093_ _0090_ VSS VSS VDD VDD _0164_ sky130_fd_sc_hd__nor3_1
X_0805_ _0163_ _0164_ net14 VSS VSS VDD VDD _0165_ sky130_fd_sc_hd__a21oi_1
X_0806_ active_row\[5\]\[8\] active_row\[7\]\[8\] _0089_ VSS
+ VSS VDD VDD _0166_ sky130_fd_sc_hd__mux2i_1
X_0807_ _0089_ active_row\[6\]\[8\] net3 VSS VSS VDD VDD _0167_
+ sky130_fd_sc_hd__a21oi_1
X_0808_ _0093_ _0166_ _0167_ _0103_ VSS VSS VDD VDD _0168_
+ sky130_fd_sc_hd__a211oi_1
X_0809_ active_row\[1\]\[8\] active_row\[3\]\[8\] _0089_ VSS
+ VSS VDD VDD _0169_ sky130_fd_sc_hd__mux2i_1
X_0810_ _0111_ _0169_ VSS VSS VDD VDD _0170_ sky130_fd_sc_hd__nor2_1
X_0811_ _0100_ active_row\[2\]\[8\] _0134_ VSS VSS VDD VDD
+ _0171_ sky130_fd_sc_hd__o21a_1
X_0812_ active_row\[4\]\[8\] _0135_ _0168_ _0170_ _0171_ VSS
+ VSS VDD VDD _0172_ sky130_fd_sc_hd__a2111oi_2
X_0813_ _0165_ net14 _0172_ VSS VSS VDD VDD _0173_ sky130_fd_sc_hd__mux2_1
X_0814_ active_row\[1\]\[10\] active_row\[3\]\[10\] _0090_
+ VSS VSS VDD VDD _0174_ sky130_fd_sc_hd__mux2i_1
X_0815_ _0091_ active_row\[5\]\[10\] _0087_ VSS VSS VDD VDD
+ _0175_ sky130_fd_sc_hd__nand3b_1
X_0816_ _0088_ _0174_ _0175_ VSS VSS VDD VDD _0176_ sky130_fd_sc_hd__o21ai_0
X_0817_ active_row\[2\]\[10\] _0090_ VSS VSS VDD VDD _0177_
+ sky130_fd_sc_hd__nand2b_1
X_0818_ active_row\[6\]\[10\] active_row\[7\]\[10\] _0093_
+ VSS VSS VDD VDD _0178_ sky130_fd_sc_hd__mux2_1
X_0819_ active_row\[4\]\[10\] _0135_ _0177_ _0134_ _0178_
+ _0131_ VSS VSS VDD VDD _0179_ sky130_fd_sc_hd__a222oi_1
X_0820_ _0097_ _0176_ _0179_ VSS VSS VDD VDD _0180_ sky130_fd_sc_hd__a21boi_2
X_0821_ net16 VSS VSS VDD VDD _0181_ sky130_fd_sc_hd__inv_1
X_0822_ active_row\[0\]\[10\] _0113_ _0181_ VSS VSS VDD VDD
+ _0182_ sky130_fd_sc_hd__o21ai_0
X_0823_ _0180_ _0182_ VSS VSS VDD VDD _0183_ sky130_fd_sc_hd__nor2_1
X_0824_ active_row\[1\]\[6\] active_row\[3\]\[6\] _0092_ VSS
+ VSS VDD VDD _0184_ sky130_fd_sc_hd__mux2_1
X_0825_ _0097_ _0092_ VSS VSS VDD VDD _0185_ sky130_fd_sc_hd__nand2b_1
X_0826_ _0105_ _0184_ _0185_ active_row\[2\]\[6\] VSS VSS
+ VDD VDD _0186_ sky130_fd_sc_hd__o22ai_1
X_0827_ active_row\[0\]\[6\] _0114_ VSS VSS VDD VDD _0187_
+ sky130_fd_sc_hd__nor2_1
X_0828_ active_row\[4\]\[6\] active_row\[5\]\[6\] active_row\[6\]\[6\]
+ active_row\[7\]\[6\] _0097_ _0121_ VSS VSS VDD VDD _0188_
+ sky130_fd_sc_hd__mux4_1
X_0829_ net12 _0188_ _0141_ VSS VSS VDD VDD _0189_ sky130_fd_sc_hd__nand3b_1
X_0830_ _0141_ net12 _0186_ _0187_ _0189_ VSS VSS VDD VDD
+ _0190_ sky130_fd_sc_hd__o41ai_1
X_0831_ _0186_ _0187_ _0104_ net12 VSS VSS VDD VDD _0191_
+ sky130_fd_sc_hd__o211ai_1
X_0832_ _0188_ net12 _0141_ VSS VSS VDD VDD _0192_ sky130_fd_sc_hd__nand3b_1
X_0833_ _0190_ _0191_ _0192_ VSS VSS VDD VDD _0193_ sky130_fd_sc_hd__nand3b_1
X_0834_ net17 _0162_ _0173_ _0183_ _0193_ VSS VSS VDD VDD
+ _0194_ sky130_fd_sc_hd__a2111o_1
X_0835_ active_row\[0\]\[7\] _0114_ net13 VSS VSS VDD VDD
+ _0195_ sky130_fd_sc_hd__o21ai_0
X_0836_ active_row\[1\]\[7\] active_row\[3\]\[7\] _0107_ VSS
+ VSS VDD VDD _0196_ sky130_fd_sc_hd__mux2i_1
X_0837_ active_row\[2\]\[7\] _0185_ _0196_ _0142_ VSS VSS
+ VDD VDD _0197_ sky130_fd_sc_hd__a2bb2oi_1
X_0838_ net13 _0195_ _0197_ VSS VSS VDD VDD _0198_ sky130_fd_sc_hd__mux2_1
X_0839_ active_row\[4\]\[7\] active_row\[5\]\[7\] active_row\[6\]\[7\]
+ active_row\[7\]\[7\] _0097_ _0121_ VSS VSS VDD VDD _0199_
+ sky130_fd_sc_hd__mux4_1
X_0840_ net13 _0199_ VSS VSS VDD VDD _0200_ sky130_fd_sc_hd__xnor2_1
X_0841_ active_row\[0\]\[7\] net13 _0114_ VSS VSS VDD VDD
+ _0201_ sky130_fd_sc_hd__nor3_1
X_0842_ _0141_ _0200_ _0201_ VSS VSS VDD VDD _0202_ sky130_fd_sc_hd__a21oi_1
X_0843_ _0141_ _0198_ _0202_ VSS VSS VDD VDD _0203_ sky130_fd_sc_hd__o21ai_1
X_0844_ active_row\[5\]\[4\] VSS VSS VDD VDD _0204_ sky130_fd_sc_hd__inv_1
X_0845_ _0121_ active_row\[3\]\[4\] VSS VSS VDD VDD _0205_
+ sky130_fd_sc_hd__nand2_1
X_0846_ _0107_ _0204_ _0109_ _0205_ _0111_ VSS VSS VDD VDD
+ _0206_ sky130_fd_sc_hd__o32ai_4
X_0847_ _0093_ _0087_ VSS VSS VDD VDD _0207_ sky130_fd_sc_hd__nor2b_1
X_0848_ _0087_ _0091_ active_row\[1\]\[4\] _0094_ VSS VSS
+ VDD VDD _0208_ sky130_fd_sc_hd__nor4bb_1
X_0849_ _0101_ active_row\[4\]\[4\] _0207_ _0208_ VSS VSS
+ VDD VDD _0209_ sky130_fd_sc_hd__a31o_1
X_0850_ active_row\[2\]\[4\] _0092_ VSS VSS VDD VDD _0210_
+ sky130_fd_sc_hd__nor2b_1
X_0851_ active_row\[6\]\[4\] active_row\[7\]\[4\] _0142_ VSS
+ VSS VDD VDD _0211_ sky130_fd_sc_hd__mux2i_1
X_0852_ _0141_ _0142_ _0210_ _0211_ _0096_ VSS VSS VDD VDD
+ _0212_ sky130_fd_sc_hd__o32ai_2
X_0853_ _0206_ _0209_ _0212_ _0114_ active_row\[0\]\[4\] VSS
+ VSS VDD VDD _0213_ sky130_fd_sc_hd__o32ai_4
X_0854_ net9 _0213_ VSS VSS VDD VDD _0214_ sky130_fd_sc_hd__xor2_1
X_0855_ _0203_ _0214_ VSS VSS VDD VDD _0215_ sky130_fd_sc_hd__nand2_1
X_0856_ _0127_ _0154_ _0194_ _0215_ VSS VSS VDD VDD _0216_
+ sky130_fd_sc_hd__nor4_2
X_0857_ active_row\[0\]\[11\] VSS VSS VDD VDD _0217_ sky130_fd_sc_hd__inv_1
X_0858_ _0217_ _0164_ _0162_ net17 VSS VSS VDD VDD _0218_
+ sky130_fd_sc_hd__a211oi_1
X_0859_ net6 VSS VSS VDD VDD _0219_ sky130_fd_sc_hd__inv_1
X_0860_ active_row\[5\]\[1\] VSS VSS VDD VDD _0220_ sky130_fd_sc_hd__inv_1
X_0861_ _0121_ active_row\[3\]\[1\] VSS VSS VDD VDD _0221_
+ sky130_fd_sc_hd__nand2_1
X_0862_ _0121_ _0220_ _0109_ _0221_ _0111_ VSS VSS VDD VDD
+ _0222_ sky130_fd_sc_hd__o32ai_2
X_0863_ _0088_ _0092_ active_row\[1\]\[1\] _0097_ VSS VSS
+ VDD VDD _0223_ sky130_fd_sc_hd__nor4bb_1
X_0864_ _0101_ active_row\[4\]\[1\] _0207_ _0223_ VSS VSS
+ VDD VDD _0224_ sky130_fd_sc_hd__a31o_1
X_0865_ active_row\[2\]\[1\] _0107_ VSS VSS VDD VDD _0225_
+ sky130_fd_sc_hd__nor2b_1
X_0866_ active_row\[6\]\[1\] active_row\[7\]\[1\] _0142_ VSS
+ VSS VDD VDD _0226_ sky130_fd_sc_hd__mux2i_2
X_0867_ _0141_ _0142_ _0225_ _0226_ _0096_ VSS VSS VDD VDD
+ _0227_ sky130_fd_sc_hd__o32ai_4
X_0868_ _0219_ _0222_ _0224_ _0227_ VSS VSS VDD VDD _0228_
+ sky130_fd_sc_hd__nor4_1
X_0869_ _0222_ _0224_ _0227_ VSS VSS VDD VDD _0229_ sky130_fd_sc_hd__nor3_1
X_0870_ active_row\[0\]\[1\] _0114_ _0219_ VSS VSS VDD VDD
+ _0230_ sky130_fd_sc_hd__o21ai_0
X_0871_ net16 _0180_ _0229_ _0230_ VSS VSS VDD VDD _0231_
+ sky130_fd_sc_hd__o2bb2ai_1
X_0872_ _0218_ _0228_ _0231_ VSS VSS VDD VDD _0232_ sky130_fd_sc_hd__or3_1
X_0873_ _0107_ active_row\[3\]\[0\] VSS VSS VDD VDD _0233_
+ sky130_fd_sc_hd__nand2_1
X_0874_ _0092_ active_row\[5\]\[0\] _0088_ VSS VSS VDD VDD
+ _0234_ sky130_fd_sc_hd__nand3b_1
X_0875_ _0088_ _0233_ _0234_ VSS VSS VDD VDD _0235_ sky130_fd_sc_hd__o21ai_0
X_0876_ active_row\[1\]\[0\] _0094_ VSS VSS VDD VDD _0236_
+ sky130_fd_sc_hd__nand2b_1
X_0877_ _0105_ active_row\[4\]\[0\] _0236_ _0104_ VSS VSS
+ VDD VDD _0237_ sky130_fd_sc_hd__a22o_1
X_0878_ _0142_ _0235_ _0237_ _0101_ VSS VSS VDD VDD _0238_
+ sky130_fd_sc_hd__a22oi_1
X_0879_ active_row\[6\]\[0\] active_row\[7\]\[0\] _0097_ VSS
+ VSS VDD VDD _0239_ sky130_fd_sc_hd__mux2i_1
X_0880_ active_row\[2\]\[0\] _0134_ _0239_ _0104_ VSS VSS
+ VDD VDD _0240_ sky130_fd_sc_hd__o2bb2ai_1
X_0881_ _0121_ _0240_ VSS VSS VDD VDD _0241_ sky130_fd_sc_hd__nand2_1
X_0882_ _0238_ _0241_ _0114_ active_row\[0\]\[0\] VSS VSS
+ VDD VDD _0242_ sky130_fd_sc_hd__o2bb2ai_1
X_0883_ net5 _0242_ VSS VSS VDD VDD _0243_ sky130_fd_sc_hd__xnor2_1
X_0884_ active_row\[0\]\[13\] VSS VSS VDD VDD _0244_ sky130_fd_sc_hd__inv_1
X_0885_ _0163_ net14 _0217_ net17 _0244_ net19 VSS VSS VDD
+ VDD _0245_ sky130_fd_sc_hd__a222oi_1
X_0886_ active_row\[0\]\[1\] _0219_ active_row\[0\]\[10\]
+ _0181_ _0245_ VSS VSS VDD VDD _0246_ sky130_fd_sc_hd__o221ai_1
X_0887_ bank_active\[0\] bank_active\[1\] bank_active\[2\]
+ bank_active\[3\] _0094_ _0107_ VSS VSS VDD VDD _0247_ sky130_fd_sc_hd__mux4_1
X_0888_ _0141_ _0247_ VSS VSS VDD VDD _0248_ sky130_fd_sc_hd__nor2_1
X_0889_ bank_active\[4\] bank_active\[5\] bank_active\[6\]
+ bank_active\[7\] _0094_ _0107_ VSS VSS VDD VDD _0249_ sky130_fd_sc_hd__mux4_1
X_0890_ _0104_ _0249_ VSS VSS VDD VDD _0250_ sky130_fd_sc_hd__nor2_1
X_0891_ net7 _0138_ _0248_ _0250_ VSS VSS VDD VDD _0251_ sky130_fd_sc_hd__a211o_1
X_0892_ _0164_ _0246_ _0251_ VSS VSS VDD VDD _0252_ sky130_fd_sc_hd__a21oi_1
X_0893_ active_row\[1\]\[13\] active_row\[3\]\[13\] _0090_
+ VSS VSS VDD VDD _0253_ sky130_fd_sc_hd__mux2_1
X_0894_ active_row\[4\]\[13\] active_row\[6\]\[13\] _0091_
+ VSS VSS VDD VDD _0254_ sky130_fd_sc_hd__mux2i_2
X_0895_ _0111_ _0253_ _0254_ _0207_ VSS VSS VDD VDD _0255_
+ sky130_fd_sc_hd__a2bb2oi_1
X_0896_ active_row\[5\]\[13\] active_row\[7\]\[13\] _0091_
+ VSS VSS VDD VDD _0256_ sky130_fd_sc_hd__mux2i_1
X_0897_ _0087_ _0094_ active_row\[2\]\[13\] _0091_ VSS VSS
+ VDD VDD _0257_ sky130_fd_sc_hd__nor4b_1
X_0898_ _0088_ _0097_ _0256_ _0257_ VSS VSS VDD VDD _0258_
+ sky130_fd_sc_hd__a31oi_1
X_0899_ net19 VSS VSS VDD VDD _0259_ sky130_fd_sc_hd__inv_1
X_0900_ active_row\[0\]\[13\] _0113_ _0255_ _0258_ _0259_
+ VSS VSS VDD VDD _0260_ sky130_fd_sc_hd__o2111ai_1
X_0901_ _0255_ _0258_ VSS VSS VDD VDD _0261_ sky130_fd_sc_hd__nand2_1
X_0902_ net19 _0261_ VSS VSS VDD VDD _0262_ sky130_fd_sc_hd__nand2_1
X_0903_ _0252_ _0260_ _0262_ VSS VSS VDD VDD _0263_ sky130_fd_sc_hd__nand3_1
X_0904_ _0232_ _0243_ _0263_ VSS VSS VDD VDD _0264_ sky130_fd_sc_hd__nor3_2
X_0905_ _0090_ active_row\[4\]\[5\] VSS VSS VDD VDD _0265_
+ sky130_fd_sc_hd__nor2b_1
X_0906_ _0091_ active_row\[6\]\[5\] _0265_ _0094_ VSS VSS
+ VDD VDD _0266_ sky130_fd_sc_hd__a211oi_1
X_0907_ _0100_ active_row\[5\]\[5\] _0105_ VSS VSS VDD VDD
+ _0267_ sky130_fd_sc_hd__a21oi_1
X_0908_ active_row\[2\]\[5\] active_row\[3\]\[5\] _0093_ VSS
+ VSS VDD VDD _0268_ sky130_fd_sc_hd__mux2i_1
X_0909_ _0094_ active_row\[7\]\[5\] _0087_ VSS VSS VDD VDD
+ _0269_ sky130_fd_sc_hd__a21boi_0
X_0910_ _0103_ _0268_ _0269_ _0101_ VSS VSS VDD VDD _0270_
+ sky130_fd_sc_hd__a211o_1
X_0911_ _0105_ active_row\[1\]\[5\] _0101_ _0104_ VSS VSS
+ VDD VDD _0271_ sky130_fd_sc_hd__o211ai_1
X_0912_ _0104_ _0266_ _0267_ _0270_ _0271_ VSS VSS VDD VDD
+ _0272_ sky130_fd_sc_hd__o311a_1
X_0913_ active_row\[0\]\[5\] _0114_ VSS VSS VDD VDD _0273_
+ sky130_fd_sc_hd__nor2_1
X_0914_ net10 _0272_ _0273_ VSS VSS VDD VDD _0274_ sky130_fd_sc_hd__or3_1
X_0915_ _0272_ _0273_ net10 VSS VSS VDD VDD _0275_ sky130_fd_sc_hd__o21ai_0
X_0916_ _0274_ _0275_ VSS VSS VDD VDD _0276_ sky130_fd_sc_hd__and2_1
X_0917_ net32 _0053_ _0057_ VSS VSS VDD VDD _0277_ sky130_fd_sc_hd__and3_1
X_0918_ net33 _0277_ VSS VSS VDD VDD _0278_ sky130_fd_sc_hd__nand2_1
X_0919_ _0278_ VSS VSS VDD VDD _0279_ sky130_fd_sc_hd__inv_1
X_0920_ _0216_ _0264_ _0276_ _0279_ VSS VSS VDD VDD _0280_
+ sky130_fd_sc_hd__nand4_4
X_0921_ _0664_ VSS VSS VDD VDD _0281_ sky130_fd_sc_hd__clkbuf_4
X_0922_ refresh_counter\[15\] refresh_counter\[14\] refresh_counter\[13\]
+ refresh_counter\[12\] VSS VSS VDD VDD _0282_ sky130_fd_sc_hd__or4_1
X_0923_ refresh_counter\[6\] refresh_counter\[5\] VSS VSS
+ VDD VDD _0283_ sky130_fd_sc_hd__nor2_1
X_0924_ _0645_ _0643_ refresh_counter\[4\] refresh_counter\[3\]
+ refresh_counter\[2\] VSS VSS VDD VDD _0284_ sky130_fd_sc_hd__o2111ai_1
X_0925_ refresh_counter\[10\] refresh_counter\[9\] refresh_counter\[8\]
+ refresh_counter\[7\] VSS VSS VDD VDD _0285_ sky130_fd_sc_hd__nand4_1
X_0926_ _0283_ _0284_ _0285_ VSS VSS VDD VDD _0286_ sky130_fd_sc_hd__a21oi_1
X_0927_ refresh_counter\[11\] _0282_ _0286_ VSS VSS VDD VDD
+ _0287_ sky130_fd_sc_hd__or3_1
X_0928_ _0287_ VSS VSS VDD VDD _0288_ sky130_fd_sc_hd__clkbuf_4
X_0929_ _0288_ VSS VSS VDD VDD _0639_ sky130_fd_sc_hd__inv_2
X_0930_ _0281_ _0639_ VSS VSS VDD VDD _0289_ sky130_fd_sc_hd__nand2_2
X_0931_ _0083_ VSS VSS VDD VDD _0290_ sky130_fd_sc_hd__clkbuf_4
X_0932_ _0070_ VSS VSS VDD VDD _0291_ sky130_fd_sc_hd__clkbuf_4
X_0933_ _0291_ net33 VSS VSS VDD VDD _0292_ sky130_fd_sc_hd__nand2_1
X_0934_ burst_counter\[2\] burst_counter\[3\] VSS VSS VDD
+ VDD _0293_ sky130_fd_sc_hd__nor2_1
X_0935_ _0635_ _0293_ VSS VSS VDD VDD _0294_ sky130_fd_sc_hd__nand2_2
X_0936_ net133 _0086_ _0294_ _0084_ VSS VSS VDD VDD _0295_
+ sky130_fd_sc_hd__nand4b_1
X_0937_ _0290_ _0292_ _0295_ VSS VSS VDD VDD _0296_ sky130_fd_sc_hd__o21ai_0
X_0938_ _0280_ _0289_ _0296_ _0067_ VSS VSS VDD VDD _0297_
+ sky130_fd_sc_hd__a2bb2oi_1
X_0939_ _0062_ _0297_ VSS VSS VDD VDD _0670_ sky130_fd_sc_hd__nor2_1
X_0940_ _0664_ VSS VSS VDD VDD _0298_ sky130_fd_sc_hd__clkinv_2
X_0941_ _0280_ _0288_ VSS VSS VDD VDD _0299_ sky130_fd_sc_hd__nor2_1
X_0942_ _0070_ VSS VSS VDD VDD _0300_ sky130_fd_sc_hd__clkinvlp_4
X_0943_ net33 _0067_ _0300_ VSS VSS VDD VDD _0301_ sky130_fd_sc_hd__a21oi_1
X_0944_ _0050_ _0070_ VSS VSS VDD VDD _0302_ sky130_fd_sc_hd__nor2_2
X_0945_ _0664_ _0083_ VSS VSS VDD VDD _0303_ sky130_fd_sc_hd__nor2_1
X_0946_ _0302_ _0303_ VSS VSS VDD VDD _0304_ sky130_fd_sc_hd__nand2_4
X_0947_ _0065_ VSS VSS VDD VDD _0305_ sky130_fd_sc_hd__inv_1
X_0948_ _0305_ _0294_ _0083_ VSS VSS VDD VDD _0306_ sky130_fd_sc_hd__o21ai_4
X_0949_ _0305_ VSS VSS VDD VDD _0307_ sky130_fd_sc_hd__buf_2
X_0950_ _0072_ init_state\[1\] VSS VSS VDD VDD _0308_ sky130_fd_sc_hd__or2_2
X_0951_ init_state\[6\] _0308_ VSS VSS VDD VDD _0309_ sky130_fd_sc_hd__nor2_1
X_0952_ _0307_ _0309_ _0050_ VSS VSS VDD VDD _0310_ sky130_fd_sc_hd__o21ai_2
X_0953_ _0304_ _0306_ _0310_ VSS VSS VDD VDD _0311_ sky130_fd_sc_hd__nand3_1
X_0954_ _0301_ _0311_ VSS VSS VDD VDD _0312_ sky130_fd_sc_hd__nor2_1
X_0955_ _0298_ _0299_ _0312_ VSS VSS VDD VDD _0583_ sky130_fd_sc_hd__o21ai_1
X_0956_ _0063_ _0064_ _0070_ VSS VSS VDD VDD _0313_ sky130_fd_sc_hd__o21ai_4
X_0957_ _0300_ _0298_ _0313_ VSS VSS VDD VDD _0314_ sky130_fd_sc_hd__a21boi_0
X_0958_ _0062_ _0314_ _0310_ VSS VSS VDD VDD _0315_ sky130_fd_sc_hd__o21ai_0
X_0959_ _0085_ _0315_ VSS VSS VDD VDD _0316_ sky130_fd_sc_hd__nor2_1
X_0960_ net32 _0053_ _0057_ VSS VSS VDD VDD _0317_ sky130_fd_sc_hd__nand3_2
X_0961_ _0216_ _0264_ _0276_ VSS VSS VDD VDD _0318_ sky130_fd_sc_hd__nand3_4
X_0962_ _0318_ VSS VSS VDD VDD _0319_ sky130_fd_sc_hd__buf_4
X_0963_ _0298_ _0288_ VSS VSS VDD VDD _0320_ sky130_fd_sc_hd__nor2_4
X_0964_ _0317_ _0319_ _0320_ VSS VSS VDD VDD _0321_ sky130_fd_sc_hd__o21ai_0
X_0965_ _0316_ _0321_ VSS VSS VDD VDD _0584_ sky130_fd_sc_hd__nand2_1
X_0966_ _0277_ _0318_ _0289_ VSS VSS VDD VDD _0322_ sky130_fd_sc_hd__a21oi_1
X_0967_ _0291_ _0311_ _0322_ VSS VSS VDD VDD _0585_ sky130_fd_sc_hd__or3_1
X_0968_ _0050_ _0281_ VSS VSS VDD VDD _0323_ sky130_fd_sc_hd__nor2_2
X_0969_ init_state\[7\] _0066_ _0050_ VSS VSS VDD VDD _0324_
+ sky130_fd_sc_hd__a21boi_4
X_0970_ _0323_ _0324_ VSS VSS VDD VDD _0325_ sky130_fd_sc_hd__nor2_1
X_0971_ _0281_ VSS VSS VDD VDD _0326_ sky130_fd_sc_hd__clkbuf_4
X_0972_ _0326_ _0641_ VSS VSS VDD VDD _0327_ sky130_fd_sc_hd__nand2_1
X_0973_ _0642_ _0325_ _0327_ VSS VSS VDD VDD _0586_ sky130_fd_sc_hd__o21ai_0
X_0974_ _0320_ _0323_ _0324_ VSS VSS VDD VDD _0328_ sky130_fd_sc_hd__nor3_4
X_0975_ _0328_ VSS VSS VDD VDD _0329_ sky130_fd_sc_hd__buf_2
X_0976_ refresh_counter\[1\] _0639_ VSS VSS VDD VDD _0330_
+ sky130_fd_sc_hd__nor2_1
X_0977_ _0644_ _0639_ _0329_ _0330_ VSS VSS VDD VDD _0593_
+ sky130_fd_sc_hd__a211oi_1
X_0978_ _0645_ _0639_ VSS VSS VDD VDD _0331_ sky130_fd_sc_hd__nand2_1
X_0979_ refresh_counter\[2\] _0331_ VSS VSS VDD VDD _0332_
+ sky130_fd_sc_hd__xor2_1
X_0980_ _0329_ _0332_ VSS VSS VDD VDD _0594_ sky130_fd_sc_hd__nor2_1
X_0981_ refresh_counter\[2\] refresh_counter\[1\] refresh_counter\[0\]
+ _0639_ VSS VSS VDD VDD _0333_ sky130_fd_sc_hd__nand4_1
X_0982_ refresh_counter\[3\] _0333_ VSS VSS VDD VDD _0334_
+ sky130_fd_sc_hd__xor2_1
X_0983_ _0329_ _0334_ VSS VSS VDD VDD _0595_ sky130_fd_sc_hd__nor2_1
X_0984_ refresh_counter\[3\] refresh_counter\[2\] _0645_ _0639_
+ VSS VSS VDD VDD _0335_ sky130_fd_sc_hd__nand4_1
X_0985_ refresh_counter\[4\] _0335_ VSS VSS VDD VDD _0336_
+ sky130_fd_sc_hd__xor2_1
X_0986_ _0329_ _0336_ VSS VSS VDD VDD _0596_ sky130_fd_sc_hd__nor2_1
X_0987_ refresh_counter\[4\] refresh_counter\[3\] VSS VSS
+ VDD VDD _0337_ sky130_fd_sc_hd__nand2_1
X_0988_ _0337_ _0333_ VSS VSS VDD VDD _0338_ sky130_fd_sc_hd__nor2_1
X_0989_ refresh_counter\[5\] _0338_ VSS VSS VDD VDD _0339_
+ sky130_fd_sc_hd__xnor2_1
X_0990_ _0329_ _0339_ VSS VSS VDD VDD _0597_ sky130_fd_sc_hd__nor2_1
X_0991_ refresh_counter\[4\] refresh_counter\[3\] refresh_counter\[2\]