* CDL Netlist generated by OpenROAD

*.BUSDELIMITER [

.SUBCKT ddr_controller clk cmd_addr[0] cmd_addr[10] cmd_addr[11]
+ cmd_addr[12] cmd_addr[13] cmd_addr[14] cmd_addr[15] cmd_addr[16]
+ cmd_addr[17] cmd_addr[18] cmd_addr[19] cmd_addr[1] cmd_addr[20]
+ cmd_addr[21] cmd_addr[22] cmd_addr[23] cmd_addr[24] cmd_addr[25]
+ cmd_addr[26] cmd_addr[27] cmd_addr[2] cmd_addr[3] cmd_addr[4]
+ cmd_addr[5] cmd_addr[6] cmd_addr[7] cmd_addr[8] cmd_addr[9]
+ cmd_burst_len[0] cmd_burst_len[1] cmd_burst_len[2] cmd_burst_len[3]
+ cmd_ready cmd_valid cmd_write init_done phy_addr[0] phy_addr[10]
+ phy_addr[11] phy_addr[12] phy_addr[13] phy_addr[1] phy_addr[2]
+ phy_addr[3] phy_addr[4] phy_addr[5] phy_addr[6] phy_addr[7]
+ phy_addr[8] phy_addr[9] phy_bank[0] phy_bank[1] phy_bank[2]
+ phy_bank_group[0] phy_bank_group[1] phy_cas_n phy_cke phy_clk
+ phy_cs_n phy_dm[0] phy_dm[1] phy_dm[2] phy_dm[3] phy_dm[4]
+ phy_dm[5] phy_dm[6] phy_dm[7] phy_dq[0] phy_dq[10] phy_dq[11]
+ phy_dq[12] phy_dq[13] phy_dq[14] phy_dq[15] phy_dq[16] phy_dq[17]
+ phy_dq[18] phy_dq[19] phy_dq[1] phy_dq[20] phy_dq[21] phy_dq[22]
+ phy_dq[23] phy_dq[24] phy_dq[25] phy_dq[26] phy_dq[27] phy_dq[28]
+ phy_dq[29] phy_dq[2] phy_dq[30] phy_dq[31] phy_dq[32] phy_dq[33]
+ phy_dq[34] phy_dq[35] phy_dq[36] phy_dq[37] phy_dq[38] phy_dq[39]
+ phy_dq[3] phy_dq[40] phy_dq[41] phy_dq[42] phy_dq[43] phy_dq[44]
+ phy_dq[45] phy_dq[46] phy_dq[47] phy_dq[48] phy_dq[49] phy_dq[4]
+ phy_dq[50] phy_dq[51] phy_dq[52] phy_dq[53] phy_dq[54] phy_dq[55]
+ phy_dq[56] phy_dq[57] phy_dq[58] phy_dq[59] phy_dq[5] phy_dq[60]
+ phy_dq[61] phy_dq[62] phy_dq[63] phy_dq[6] phy_dq[7] phy_dq[8]
+ phy_dq[9] phy_dqs_n[0] phy_dqs_n[1] phy_dqs_n[2] phy_dqs_n[3]
+ phy_dqs_n[4] phy_dqs_n[5] phy_dqs_n[6] phy_dqs_n[7] phy_dqs_p[0]
+ phy_dqs_p[1] phy_dqs_p[2] phy_dqs_p[3] phy_dqs_p[4] phy_dqs_p[5]
+ phy_dqs_p[6] phy_dqs_p[7] phy_odt phy_ras_n phy_reset_n phy_we_n
+ rd_data[0] rd_data[10] rd_data[11] rd_data[12] rd_data[13]
+ rd_data[14] rd_data[15] rd_data[16] rd_data[17] rd_data[18]
+ rd_data[19] rd_data[1] rd_data[20] rd_data[21] rd_data[22]
+ rd_data[23] rd_data[24] rd_data[25] rd_data[26] rd_data[27]
+ rd_data[28] rd_data[29] rd_data[2] rd_data[30] rd_data[31]
+ rd_data[32] rd_data[33] rd_data[34] rd_data[35] rd_data[36]
+ rd_data[37] rd_data[38] rd_data[39] rd_data[3] rd_data[40]
+ rd_data[41] rd_data[42] rd_data[43] rd_data[44] rd_data[45]
+ rd_data[46] rd_data[47] rd_data[48] rd_data[49] rd_data[4]
+ rd_data[50] rd_data[51] rd_data[52] rd_data[53] rd_data[54]
+ rd_data[55] rd_data[56] rd_data[57] rd_data[58] rd_data[59]
+ rd_data[5] rd_data[60] rd_data[61] rd_data[62] rd_data[63]
+ rd_data[6] rd_data[7] rd_data[8] rd_data[9] rd_ready rd_valid
+ rst_n state[0] state[1] wr_data[0] wr_data[10] wr_data[11]
+ wr_data[12] wr_data[13] wr_data[14] wr_data[15] wr_data[16]
+ wr_data[17] wr_data[18] wr_data[19] wr_data[1] wr_data[20]
+ wr_data[21] wr_data[22] wr_data[23] wr_data[24] wr_data[25]
+ wr_data[26] wr_data[27] wr_data[28] wr_data[29] wr_data[2]
+ wr_data[30] wr_data[31] wr_data[32] wr_data[33] wr_data[34]
+ wr_data[35] wr_data[36] wr_data[37] wr_data[38] wr_data[39]
+ wr_data[3] wr_data[40] wr_data[41] wr_data[42] wr_data[43]
+ wr_data[44] wr_data[45] wr_data[46] wr_data[47] wr_data[48]
+ wr_data[49] wr_data[4] wr_data[50] wr_data[51] wr_data[52]
+ wr_data[53] wr_data[54] wr_data[55] wr_data[56] wr_data[57]
+ wr_data[58] wr_data[59] wr_data[5] wr_data[60] wr_data[61]
+ wr_data[62] wr_data[63] wr_data[6] wr_data[7] wr_data[8] wr_data[9]
+ wr_mask[0] wr_mask[1] wr_mask[2] wr_mask[3] wr_mask[4] wr_mask[5]
+ wr_mask[6] wr_mask[7] wr_ready wr_valid VSS VDD
Xinput85 wr_data[34] VSS VSS VDD VDD net84 sky130_fd_sc_hd__clkdlybuf4s50_1
Xinput84 wr_data[33] VSS VSS VDD VDD net83 sky130_fd_sc_hd__clkdlybuf4s50_1
X_0660_ timer\[3\] timer\[2\] _0042_ VSS VSS VDD VDD _0086_
+ sky130_fd_sc_hd__or3b_2
Xinput83 wr_data[32] VSS VSS VDD VDD net82 sky130_fd_sc_hd__clkdlybuf4s50_1
X_0662_ timer\[5\] timer\[4\] timer\[7\] timer\[6\] VSS VSS
+ VDD VDD _0088_ sky130_fd_sc_hd__or4_4
Xinput82 wr_data[31] VSS VSS VDD VDD net81 sky130_fd_sc_hd__clkdlybuf4s50_1
X_0664_ timer\[9\] timer\[8\] VSS VSS VDD VDD _0090_ sky130_fd_sc_hd__or2_2
X_0665_ _0086_ _0088_ _0090_ VSS VSS VDD VDD _0091_ sky130_fd_sc_hd__nor3_4
X_0666_ timer\[10\] timer\[11\] timer\[13\] timer\[12\] VSS
+ VSS VDD VDD _0092_ sky130_fd_sc_hd__or4_1
X_0667_ timer\[15\] timer\[14\] _0092_ VSS VSS VDD VDD _0093_
+ sky130_fd_sc_hd__nor3_1
X_0668_ _0091_ _0093_ VSS VSS VDD VDD _0094_ sky130_fd_sc_hd__and2_1
Xinput81 wr_data[30] VSS VSS VDD VDD net80 sky130_fd_sc_hd__clkdlybuf4s50_1
Xinput80 wr_data[2] VSS VSS VDD VDD net79 sky130_fd_sc_hd__clkdlybuf4s50_1
X_0671_ net243 net240 VSS VSS VDD VDD _0097_ sky130_fd_sc_hd__nand2_1
X_0672_ init_state\[4\] init_state\[2\] _0097_ VSS VSS VDD
+ VDD _0003_ sky130_fd_sc_hd__mux2_2
Xinput79 wr_data[29] VSS VSS VDD VDD net78 sky130_fd_sc_hd__clkdlybuf4s50_1
X_0674_ net56 net242 net240 VSS VSS VDD VDD _0099_ sky130_fd_sc_hd__and3_1
X_0675_ _0027_ _0099_ VSS VSS VDD VDD _0012_ sky130_fd_sc_hd__and2_1
X_0676_ net140 VSS VSS VDD VDD _0024_ sky130_fd_sc_hd__inv_1
X_0677_ _0024_ _0023_ _0099_ VSS VSS VDD VDD _0013_ sky130_fd_sc_hd__and3_1
X_0678_ init_state\[5\] init_state\[3\] _0097_ VSS VSS VDD
+ VDD _0004_ sky130_fd_sc_hd__mux2_2
X_0679_ _0024_ _0021_ _0099_ VSS VSS VDD VDD _0014_ sky130_fd_sc_hd__and3_1
X_0680_ init_state\[0\] init_state\[4\] _0097_ VSS VSS VDD
+ VDD _0005_ sky130_fd_sc_hd__mux2_2
X_0681_ _0024_ _0022_ _0099_ VSS VSS VDD VDD _0015_ sky130_fd_sc_hd__and3_1
X_0682_ _0025_ _0099_ VSS VSS VDD VDD _0016_ sky130_fd_sc_hd__and2_1
X_0683_ init_state\[1\] init_state\[5\] _0097_ VSS VSS VDD
+ VDD _0006_ sky130_fd_sc_hd__mux2_2
X_0684_ net140 _0022_ _0099_ VSS VSS VDD VDD _0011_ sky130_fd_sc_hd__and3_1
X_0685_ init_state\[0\] _0097_ VSS VSS VDD VDD _0001_ sky130_fd_sc_hd__and2_1
X_0686_ net140 _0023_ _0099_ VSS VSS VDD VDD _0009_ sky130_fd_sc_hd__and3_1
X_0687_ init_state\[6\] init_state\[1\] _0097_ VSS VSS VDD
+ VDD _0002_ sky130_fd_sc_hd__mux2_2
X_0688_ net140 _0021_ _0099_ VSS VSS VDD VDD _0010_ sky130_fd_sc_hd__and3_1
X_0689_ init_state\[2\] init_state\[6\] _0097_ VSS VSS VDD
+ VDD _0007_ sky130_fd_sc_hd__mux2_2
Xinput78 wr_data[28] VSS VSS VDD VDD net77 sky130_fd_sc_hd__clkdlybuf4s50_1
Xinput77 wr_data[27] VSS VSS VDD VDD net76 sky130_fd_sc_hd__clkdlybuf4s50_1
X_0692_ net243 init_state\[3\] net240 init_state\[7\] VSS
+ VSS VDD VDD _0008_ sky130_fd_sc_hd__a31o_2
Xinput76 wr_data[26] VSS VSS VDD VDD net75 sky130_fd_sc_hd__clkdlybuf4s50_1
Xinput75 wr_data[25] VSS VSS VDD VDD net74 sky130_fd_sc_hd__clkdlybuf4s50_1
X_0695_ net141 net151 VSS VSS VDD VDD _0104_ sky130_fd_sc_hd__nor2b_1
X_0696_ net245 net153 _0104_ VSS VSS VDD VDD _0017_ sky130_fd_sc_hd__and3_2
X_0697_ burst_counter\[0\] VSS VSS VDD VDD _0028_ sky130_fd_sc_hd__inv_1
X_0698_ refresh_counter\[10\] refresh_counter\[9\] refresh_counter\[8\]
+ VSS VSS VDD VDD _0105_ sky130_fd_sc_hd__nand3_1
X_0699_ refresh_counter\[7\] refresh_counter\[4\] refresh_counter\[3\]
+ refresh_counter\[2\] VSS VSS VDD VDD _0106_ sky130_fd_sc_hd__and4_1
X_0700_ refresh_counter\[6\] refresh_counter\[5\] _0033_ VSS
+ VSS VDD VDD _0107_ sky130_fd_sc_hd__nor3b_1
X_0701_ _0106_ _0107_ VSS VSS VDD VDD _0108_ sky130_fd_sc_hd__nand2_1
X_0702_ refresh_counter\[6\] refresh_counter\[5\] refresh_counter\[7\]
+ VSS VSS VDD VDD _0109_ sky130_fd_sc_hd__o21a_1
X_0703_ refresh_counter\[1\] _0106_ _0109_ VSS VSS VDD VDD
+ _0110_ sky130_fd_sc_hd__a21oi_1
X_0704_ refresh_counter\[14\] refresh_counter\[13\] refresh_counter\[12\]
+ refresh_counter\[11\] VSS VSS VDD VDD _0111_ sky130_fd_sc_hd__or4_1
X_0705_ refresh_counter\[15\] _0111_ VSS VSS VDD VDD _0112_
+ sky130_fd_sc_hd__nor2_1
X_0706_ _0105_ _0110_ _0112_ VSS VSS VDD VDD _0113_ sky130_fd_sc_hd__o21a_1
Xinput74 wr_data[24] VSS VSS VDD VDD net73 sky130_fd_sc_hd__clkdlybuf4s50_1
X_0708_ _0105_ _0108_ _0113_ net241 VSS VSS VDD VDD _0115_
+ sky130_fd_sc_hd__o211a_1
Xinput73 wr_data[23] VSS VSS VDD VDD net72 sky130_fd_sc_hd__clkdlybuf4s50_1
X_0710_ net52 _0091_ _0093_ VSS VSS VDD VDD _0117_ sky130_fd_sc_hd__nand3_1
Xinput72 wr_data[22] VSS VSS VDD VDD net71 sky130_fd_sc_hd__clkdlybuf4s50_1
X_0712_ net250 VSS VSS VDD VDD _0119_ sky130_fd_sc_hd__inv_1
X_0713_ _0119_ active_row\[5\]\[11\] VSS VSS VDD VDD _0120_
+ sky130_fd_sc_hd__nand2_1
Xinput71 wr_data[21] VSS VSS VDD VDD net70 sky130_fd_sc_hd__clkdlybuf4s50_1
X_0715_ net249 net251 VSS VSS VDD VDD _0122_ sky130_fd_sc_hd__nand2_1
Xinput70 wr_data[20] VSS VSS VDD VDD net69 sky130_fd_sc_hd__clkdlybuf4s50_1
X_0717_ net249 net251 VSS VSS VDD VDD _0124_ sky130_fd_sc_hd__nor2b_1
Xinput69 wr_data[1] VSS VSS VDD VDD net68 sky130_fd_sc_hd__clkdlybuf4s50_1
X_0719_ net250 active_row\[3\]\[11\] net246 VSS VSS VDD VDD
+ _0126_ sky130_fd_sc_hd__nand3_1
X_0720_ _0120_ _0122_ _0126_ VSS VSS VDD VDD _0127_ sky130_fd_sc_hd__o21ai_0
Xinput68 wr_data[19] VSS VSS VDD VDD net67 sky130_fd_sc_hd__clkdlybuf4s50_1
Xinput67 wr_data[18] VSS VSS VDD VDD net66 sky130_fd_sc_hd__clkdlybuf4s50_1
X_0723_ net251 net249 VSS VSS VDD VDD _0130_ sky130_fd_sc_hd__nor2b_1
Xinput66 wr_data[17] VSS VSS VDD VDD net65 sky130_fd_sc_hd__clkdlybuf4s50_1
X_0725_ active_row\[4\]\[11\] _0130_ net246 active_row\[1\]\[11\]
+ VSS VSS VDD VDD _0132_ sky130_fd_sc_hd__a22oi_1
X_0726_ net250 _0132_ VSS VSS VDD VDD _0133_ sky130_fd_sc_hd__nor2_1
Xinput65 wr_data[16] VSS VSS VDD VDD net64 sky130_fd_sc_hd__clkdlybuf4s50_1
X_0728_ net251 VSS VSS VDD VDD _0135_ sky130_fd_sc_hd__clkinv_1
X_0729_ _0119_ active_row\[2\]\[11\] _0135_ VSS VSS VDD VDD
+ _0136_ sky130_fd_sc_hd__o21ai_0
X_0730_ net249 net250 VSS VSS VDD VDD _0137_ sky130_fd_sc_hd__nand2_1
Xinput64 wr_data[15] VSS VSS VDD VDD net63 sky130_fd_sc_hd__clkdlybuf4s50_1
X_0732_ active_row\[6\]\[11\] active_row\[7\]\[11\] net251
+ VSS VSS VDD VDD _0139_ sky130_fd_sc_hd__mux2i_1
X_0733_ net249 _0136_ _0137_ _0139_ VSS VSS VDD VDD _0140_
+ sky130_fd_sc_hd__o22ai_1
X_0734_ _0127_ _0133_ _0140_ VSS VSS VDD VDD _0141_ sky130_fd_sc_hd__nor3_1
X_0735_ net249 net251 net250 VSS VSS VDD VDD _0142_ sky130_fd_sc_hd__or3_4
Xinput63 wr_data[14] VSS VSS VDD VDD net62 sky130_fd_sc_hd__clkdlybuf4s50_1
X_0737_ active_row\[0\]\[11\] _0142_ VSS VSS VDD VDD _0144_
+ sky130_fd_sc_hd__nor2_1
Xinput62 wr_data[13] VSS VSS VDD VDD net61 sky130_fd_sc_hd__clkdlybuf4s50_1
X_0739_ net251 net250 VSS VSS VDD VDD _0146_ sky130_fd_sc_hd__nor2_1
X_0740_ net250 active_row\[6\]\[12\] _0130_ _0146_ active_row\[4\]\[12\]
+ VSS VSS VDD VDD _0147_ sky130_fd_sc_hd__a32o_1
X_0741_ active_row\[2\]\[12\] net250 VSS VSS VDD VDD _0148_
+ sky130_fd_sc_hd__nand2b_1
X_0742_ net249 net251 VSS VSS VDD VDD _0149_ sky130_fd_sc_hd__nor2_1
X_0743_ net249 net250 VSS VSS VDD VDD _0150_ sky130_fd_sc_hd__nor2_1
X_0744_ _0148_ _0149_ _0150_ active_row\[1\]\[12\] VSS VSS
+ VDD VDD _0151_ sky130_fd_sc_hd__a22o_1
Xinput61 wr_data[12] VSS VSS VDD VDD net60 sky130_fd_sc_hd__clkdlybuf4s50_1
X_0746_ active_row\[5\]\[12\] active_row\[7\]\[12\] net250
+ VSS VSS VDD VDD _0153_ sky130_fd_sc_hd__mux2i_1
Xinput60 wr_data[11] VSS VSS VDD VDD net59 sky130_fd_sc_hd__clkdlybuf4s50_1
X_0748_ net250 active_row\[3\]\[12\] net249 VSS VSS VDD VDD
+ _0155_ sky130_fd_sc_hd__a21oi_1
X_0749_ net249 _0153_ _0155_ _0135_ VSS VSS VDD VDD _0156_
+ sky130_fd_sc_hd__a211oi_1
X_0750_ _0147_ _0151_ _0156_ VSS VSS VDD VDD _0157_ sky130_fd_sc_hd__nor3_1
X_0751_ net38 _0157_ VSS VSS VDD VDD _0158_ sky130_fd_sc_hd__nand2_1
X_0752_ net37 _0141_ _0144_ _0158_ VSS VSS VDD VDD _0159_
+ sky130_fd_sc_hd__o31ai_1
X_0753_ net32 VSS VSS VDD VDD _0160_ sky130_fd_sc_hd__inv_1
X_0754_ active_row\[0\]\[6\] _0142_ _0160_ VSS VSS VDD VDD
+ _0161_ sky130_fd_sc_hd__o21ai_0
Xinput59 wr_data[10] VSS VSS VDD VDD net58 sky130_fd_sc_hd__clkdlybuf4s50_1
Xinput58 wr_data[0] VSS VSS VDD VDD net57 sky130_fd_sc_hd__clkdlybuf4s50_1
X_0757_ active_row\[4\]\[6\] _0130_ net246 active_row\[1\]\[6\]
+ VSS VSS VDD VDD _0164_ sky130_fd_sc_hd__a22oi_1
X_0758_ _0122_ net250 active_row\[5\]\[6\] VSS VSS VDD VDD
+ _0165_ sky130_fd_sc_hd__nor3b_1
X_0759_ net250 active_row\[3\]\[6\] net246 _0165_ VSS VSS
+ VDD VDD _0166_ sky130_fd_sc_hd__a31oi_1
X_0760_ active_row\[6\]\[6\] active_row\[7\]\[6\] net251 VSS
+ VSS VDD VDD _0167_ sky130_fd_sc_hd__mux2i_1
Xinput57 net252 VSS VSS VDD VDD net56 sky130_fd_sc_hd__buf_4
X_0762_ _0119_ active_row\[2\]\[6\] _0135_ VSS VSS VDD VDD
+ _0169_ sky130_fd_sc_hd__o21ai_0
X_0763_ _0137_ _0167_ _0169_ net249 VSS VSS VDD VDD _0170_
+ sky130_fd_sc_hd__o22a_1
X_0764_ net250 _0164_ _0166_ _0170_ VSS VSS VDD VDD _0171_
+ sky130_fd_sc_hd__o211ai_1
X_0765_ _0160_ _0161_ _0171_ VSS VSS VDD VDD _0172_ sky130_fd_sc_hd__mux2i_1
X_0766_ active_row\[0\]\[12\] _0142_ VSS VSS VDD VDD _0173_
+ sky130_fd_sc_hd__nor2_1
X_0767_ net38 _0157_ _0173_ VSS VSS VDD VDD _0174_ sky130_fd_sc_hd__nor3_1
X_0768_ net33 VSS VSS VDD VDD _0175_ sky130_fd_sc_hd__inv_1
X_0769_ active_row\[0\]\[7\] _0142_ _0175_ VSS VSS VDD VDD
+ _0176_ sky130_fd_sc_hd__o21ai_0
X_0770_ _0122_ net250 active_row\[5\]\[7\] VSS VSS VDD VDD
+ _0177_ sky130_fd_sc_hd__nor3b_1
X_0771_ net250 active_row\[3\]\[7\] net246 _0177_ VSS VSS
+ VDD VDD _0178_ sky130_fd_sc_hd__a31oi_1
X_0772_ active_row\[4\]\[7\] _0130_ net246 active_row\[1\]\[7\]
+ VSS VSS VDD VDD _0179_ sky130_fd_sc_hd__a22o_1
X_0773_ _0119_ _0179_ VSS VSS VDD VDD _0180_ sky130_fd_sc_hd__nand2_1
X_0774_ active_row\[6\]\[7\] active_row\[7\]\[7\] net251 VSS
+ VSS VDD VDD _0181_ sky130_fd_sc_hd__mux2_2
X_0775_ net249 net250 _0181_ VSS VSS VDD VDD _0182_ sky130_fd_sc_hd__nand3_1
X_0776_ _0119_ active_row\[2\]\[7\] _0149_ VSS VSS VDD VDD
+ _0183_ sky130_fd_sc_hd__o21ai_0
X_0777_ _0178_ _0180_ _0182_ _0183_ VSS VSS VDD VDD _0184_
+ sky130_fd_sc_hd__nand4_1
X_0778_ _0175_ _0176_ _0184_ VSS VSS VDD VDD _0185_ sky130_fd_sc_hd__mux2i_1
X_0779_ _0159_ _0172_ _0174_ _0185_ VSS VSS VDD VDD _0186_
+ sky130_fd_sc_hd__nor4_2
X_0780_ active_row\[2\]\[2\] active_row\[3\]\[2\] active_row\[6\]\[2\]
+ active_row\[7\]\[2\] net251 net249 VSS VSS VDD VDD _0187_
+ sky130_fd_sc_hd__mux4_2
X_0781_ active_row\[1\]\[2\] VSS VSS VDD VDD _0188_ sky130_fd_sc_hd__inv_1
X_0782_ active_row\[4\]\[2\] active_row\[5\]\[2\] net251 VSS
+ VSS VDD VDD _0189_ sky130_fd_sc_hd__mux2i_1
X_0783_ _0188_ net246 _0189_ net249 net250 VSS VSS VDD VDD
+ _0190_ sky130_fd_sc_hd__a221oi_1
X_0784_ net250 _0187_ _0190_ VSS VSS VDD VDD _0191_ sky130_fd_sc_hd__a21oi_1
X_0785_ active_row\[0\]\[2\] _0142_ VSS VSS VDD VDD _0192_
+ sky130_fd_sc_hd__nor2_1
X_0786_ _0191_ _0192_ VSS VSS VDD VDD _0193_ sky130_fd_sc_hd__nor2_1
X_0787_ net27 _0193_ VSS VSS VDD VDD _0194_ sky130_fd_sc_hd__xor2_1
X_0788_ active_row\[4\]\[10\] active_row\[5\]\[10\] active_row\[6\]\[10\]
+ active_row\[7\]\[10\] net251 net250 VSS VSS VDD VDD _0195_
+ sky130_fd_sc_hd__mux4_2
Xinput56 rd_ready VSS VSS VDD VDD net55 sky130_fd_sc_hd__clkdlybuf4s50_1
X_0790_ active_row\[1\]\[10\] active_row\[3\]\[10\] net250
+ VSS VSS VDD VDD _0197_ sky130_fd_sc_hd__mux2i_1
X_0791_ net251 active_row\[2\]\[10\] net250 VSS VSS VDD VDD
+ _0198_ sky130_fd_sc_hd__nor3b_1
X_0792_ net251 _0197_ _0198_ net249 VSS VSS VDD VDD _0199_
+ sky130_fd_sc_hd__a211oi_1
X_0793_ net249 _0195_ _0199_ VSS VSS VDD VDD _0200_ sky130_fd_sc_hd__a21o_1
X_0794_ active_row\[0\]\[10\] _0142_ _0200_ VSS VSS VDD VDD
+ _0201_ sky130_fd_sc_hd__o21ai_2
X_0795_ net36 _0201_ VSS VSS VDD VDD _0202_ sky130_fd_sc_hd__xnor2_1
X_0796_ net30 VSS VSS VDD VDD _0203_ sky130_fd_sc_hd__inv_1
X_0797_ active_row\[0\]\[5\] _0142_ _0203_ VSS VSS VDD VDD
+ _0204_ sky130_fd_sc_hd__o21ai_0
X_0798_ active_row\[4\]\[5\] _0130_ net246 active_row\[1\]\[5\]
+ VSS VSS VDD VDD _0205_ sky130_fd_sc_hd__a22oi_1
X_0799_ net250 _0205_ VSS VSS VDD VDD _0206_ sky130_fd_sc_hd__nor2_1
X_0800_ net250 active_row\[3\]\[5\] net246 VSS VSS VDD VDD
+ _0207_ sky130_fd_sc_hd__and3_1
X_0801_ _0122_ net250 active_row\[5\]\[5\] VSS VSS VDD VDD
+ _0208_ sky130_fd_sc_hd__nor3b_1
X_0802_ active_row\[6\]\[5\] active_row\[7\]\[5\] net251 VSS
+ VSS VDD VDD _0209_ sky130_fd_sc_hd__mux2i_1
X_0803_ _0119_ active_row\[2\]\[5\] _0135_ VSS VSS VDD VDD
+ _0210_ sky130_fd_sc_hd__o21ai_0
X_0804_ _0137_ _0209_ _0210_ net249 VSS VSS VDD VDD _0211_
+ sky130_fd_sc_hd__o22ai_1
X_0805_ _0206_ _0207_ _0208_ _0211_ VSS VSS VDD VDD _0212_
+ sky130_fd_sc_hd__nor4_1
X_0806_ _0204_ _0203_ _0212_ VSS VSS VDD VDD _0213_ sky130_fd_sc_hd__mux2i_1
X_0807_ net250 active_row\[3\]\[3\] net246 _0146_ active_row\[4\]\[3\]
+ VSS VSS VDD VDD _0214_ sky130_fd_sc_hd__a32oi_1
X_0808_ _0119_ active_row\[2\]\[3\] _0149_ VSS VSS VDD VDD
+ _0215_ sky130_fd_sc_hd__o21ai_0
X_0809_ active_row\[1\]\[3\] _0150_ VSS VSS VDD VDD _0216_
+ sky130_fd_sc_hd__nand2_1
X_0810_ active_row\[5\]\[3\] active_row\[7\]\[3\] net250 VSS
+ VSS VDD VDD _0217_ sky130_fd_sc_hd__mux2i_1
X_0811_ net251 _0217_ VSS VSS VDD VDD _0218_ sky130_fd_sc_hd__nand2_1
X_0812_ net250 active_row\[6\]\[3\] VSS VSS VDD VDD _0219_
+ sky130_fd_sc_hd__nand2_1
X_0813_ _0135_ _0219_ VSS VSS VDD VDD _0220_ sky130_fd_sc_hd__nand2_1
X_0814_ net249 _0218_ _0220_ VSS VSS VDD VDD _0221_ sky130_fd_sc_hd__nand3_1
X_0815_ active_row\[0\]\[3\] _0142_ VSS VSS VDD VDD _0222_
+ sky130_fd_sc_hd__nor2_1
X_0816_ _0214_ _0215_ _0216_ _0221_ _0222_ VSS VSS VDD VDD
+ _0223_ sky130_fd_sc_hd__a41oi_1
X_0817_ net28 _0223_ VSS VSS VDD VDD _0224_ sky130_fd_sc_hd__xor2_1
X_0818_ _0194_ _0202_ _0213_ _0224_ VSS VSS VDD VDD _0225_
+ sky130_fd_sc_hd__nor4_2
X_0819_ active_row\[4\]\[8\] _0130_ net246 active_row\[1\]\[8\]
+ VSS VSS VDD VDD _0226_ sky130_fd_sc_hd__a22oi_1
X_0820_ net250 _0226_ VSS VSS VDD VDD _0227_ sky130_fd_sc_hd__nor2_1
X_0821_ _0122_ net250 active_row\[5\]\[8\] VSS VSS VDD VDD
+ _0228_ sky130_fd_sc_hd__nor3b_1
X_0822_ net250 active_row\[3\]\[8\] net246 _0227_ _0228_ VSS
+ VSS VDD VDD _0229_ sky130_fd_sc_hd__a311oi_1
X_0823_ active_row\[6\]\[8\] active_row\[7\]\[8\] net251 VSS
+ VSS VDD VDD _0230_ sky130_fd_sc_hd__mux2_2
X_0824_ net249 net250 _0230_ VSS VSS VDD VDD _0231_ sky130_fd_sc_hd__nand3_1
X_0825_ _0119_ active_row\[2\]\[8\] _0149_ VSS VSS VDD VDD
+ _0232_ sky130_fd_sc_hd__o21ai_0
X_0826_ active_row\[0\]\[8\] _0142_ VSS VSS VDD VDD _0233_
+ sky130_fd_sc_hd__nor2_1
X_0827_ _0229_ _0231_ _0232_ _0233_ net34 VSS VSS VDD VDD
+ _0234_ sky130_fd_sc_hd__a311oi_1
X_0828_ net26 VSS VSS VDD VDD _0235_ sky130_fd_sc_hd__inv_1
X_0829_ active_row\[0\]\[1\] _0142_ _0235_ VSS VSS VDD VDD
+ _0236_ sky130_fd_sc_hd__o21ai_0
X_0830_ active_row\[4\]\[1\] _0130_ net246 active_row\[1\]\[1\]
+ VSS VSS VDD VDD _0237_ sky130_fd_sc_hd__a22oi_1
X_0831_ active_row\[6\]\[1\] active_row\[7\]\[1\] net251 VSS
+ VSS VDD VDD _0238_ sky130_fd_sc_hd__mux2i_1
X_0832_ _0119_ active_row\[2\]\[1\] _0135_ VSS VSS VDD VDD
+ _0239_ sky130_fd_sc_hd__o21ai_0
X_0833_ _0137_ _0238_ _0239_ net249 VSS VSS VDD VDD _0240_
+ sky130_fd_sc_hd__o22a_1
X_0834_ _0122_ net250 active_row\[5\]\[1\] VSS VSS VDD VDD
+ _0241_ sky130_fd_sc_hd__nor3b_1
X_0835_ net250 active_row\[3\]\[1\] net246 _0241_ VSS VSS
+ VDD VDD _0242_ sky130_fd_sc_hd__a31oi_1
X_0836_ net250 _0237_ _0240_ _0242_ VSS VSS VDD VDD _0243_
+ sky130_fd_sc_hd__o211ai_1
X_0837_ _0235_ _0236_ _0243_ VSS VSS VDD VDD _0244_ sky130_fd_sc_hd__mux2i_1
X_0838_ bank_active\[4\] bank_active\[6\] net250 VSS VSS VDD
+ VDD _0245_ sky130_fd_sc_hd__mux2i_1
X_0839_ _0135_ _0245_ VSS VSS VDD VDD _0246_ sky130_fd_sc_hd__nand2_1
X_0840_ _0135_ _0119_ bank_active\[7\] VSS VSS VDD VDD _0247_
+ sky130_fd_sc_hd__or3_1
X_0841_ bank_active\[1\] bank_active\[3\] net250 VSS VSS VDD
+ VDD _0248_ sky130_fd_sc_hd__mux2i_1
X_0842_ net251 bank_active\[2\] VSS VSS VDD VDD _0249_ sky130_fd_sc_hd__nor2_1
X_0843_ net251 _0248_ _0249_ net250 net249 VSS VSS VDD VDD
+ _0250_ sky130_fd_sc_hd__a221oi_1
X_0844_ net249 _0246_ _0247_ _0250_ VSS VSS VDD VDD _0251_
+ sky130_fd_sc_hd__a31oi_1
X_0845_ bank_active\[5\] _0122_ VSS VSS VDD VDD _0252_ sky130_fd_sc_hd__nor2_1
X_0846_ net249 bank_active\[0\] net251 VSS VSS VDD VDD _0253_
+ sky130_fd_sc_hd__nor3_1
X_0847_ _0252_ _0253_ VSS VSS VDD VDD _0254_ sky130_fd_sc_hd__nor2_1
X_0848_ net250 _0254_ VSS VSS VDD VDD _0255_ sky130_fd_sc_hd__nor2_1
X_0849_ net37 VSS VSS VDD VDD _0256_ sky130_fd_sc_hd__inv_1
X_0850_ active_row\[0\]\[1\] _0235_ active_row\[0\]\[11\]
+ _0256_ VSS VSS VDD VDD _0257_ sky130_fd_sc_hd__o22ai_1
X_0851_ net38 VSS VSS VDD VDD _0258_ sky130_fd_sc_hd__inv_1
X_0852_ active_row\[0\]\[8\] net34 VSS VSS VDD VDD _0259_
+ sky130_fd_sc_hd__nand2b_1
X_0853_ active_row\[0\]\[7\] _0175_ active_row\[0\]\[12\]
+ _0258_ _0259_ VSS VSS VDD VDD _0260_ sky130_fd_sc_hd__o221ai_1
X_0854_ active_row\[0\]\[5\] _0203_ active_row\[0\]\[6\] _0160_
+ VSS VSS VDD VDD _0261_ sky130_fd_sc_hd__o22ai_1
X_0855_ net249 net251 net250 VSS VSS VDD VDD _0262_ sky130_fd_sc_hd__nor3_1
X_0856_ _0257_ _0260_ _0261_ _0262_ VSS VSS VDD VDD _0263_
+ sky130_fd_sc_hd__o31a_1
X_0857_ net37 _0141_ _0251_ _0255_ _0263_ VSS VSS VDD VDD
+ _0264_ sky130_fd_sc_hd__a2111oi_0
X_0858_ net34 _0229_ _0231_ _0232_ VSS VSS VDD VDD _0265_
+ sky130_fd_sc_hd__nand4_1
X_0859_ _0234_ _0244_ _0264_ _0265_ VSS VSS VDD VDD _0266_
+ sky130_fd_sc_hd__and4bb_1
X_0860_ active_row\[4\]\[13\] active_row\[5\]\[13\] active_row\[6\]\[13\]
+ active_row\[7\]\[13\] net251 net250 VSS VSS VDD VDD _0267_
+ sky130_fd_sc_hd__mux4_2
X_0861_ active_row\[1\]\[13\] active_row\[3\]\[13\] net250
+ VSS VSS VDD VDD _0268_ sky130_fd_sc_hd__mux2i_1
X_0862_ net251 active_row\[2\]\[13\] net250 VSS VSS VDD VDD
+ _0269_ sky130_fd_sc_hd__nor3b_1
X_0863_ net251 _0268_ _0269_ net249 VSS VSS VDD VDD _0270_
+ sky130_fd_sc_hd__a211oi_1
X_0864_ net249 _0267_ _0270_ VSS VSS VDD VDD _0271_ sky130_fd_sc_hd__a21o_1
X_0865_ active_row\[0\]\[13\] _0142_ _0271_ VSS VSS VDD VDD
+ _0272_ sky130_fd_sc_hd__o21ai_0
X_0866_ net39 _0272_ VSS VSS VDD VDD _0273_ sky130_fd_sc_hd__xnor2_1
X_0867_ active_row\[6\]\[4\] active_row\[7\]\[4\] net251 VSS
+ VSS VDD VDD _0274_ sky130_fd_sc_hd__mux2i_1
X_0868_ _0137_ _0274_ VSS VSS VDD VDD _0275_ sky130_fd_sc_hd__nor2_1
X_0869_ _0119_ active_row\[1\]\[4\] net246 _0275_ VSS VSS
+ VDD VDD _0276_ sky130_fd_sc_hd__a31oi_1
X_0870_ _0119_ active_row\[5\]\[4\] _0122_ VSS VSS VDD VDD
+ _0277_ sky130_fd_sc_hd__a21oi_1
X_0871_ net250 active_row\[3\]\[4\] VSS VSS VDD VDD _0278_
+ sky130_fd_sc_hd__nand2_1
X_0872_ net246 _0278_ VSS VSS VDD VDD _0279_ sky130_fd_sc_hd__nand2_1
X_0873_ active_row\[4\]\[4\] VSS VSS VDD VDD _0280_ sky130_fd_sc_hd__inv_1
X_0874_ active_row\[2\]\[4\] net250 VSS VSS VDD VDD _0281_
+ sky130_fd_sc_hd__nor2b_1
X_0875_ net250 _0280_ _0281_ net249 _0135_ VSS VSS VDD VDD
+ _0282_ sky130_fd_sc_hd__o221ai_1
X_0876_ _0277_ _0279_ _0282_ VSS VSS VDD VDD _0283_ sky130_fd_sc_hd__nand3b_1
X_0877_ _0276_ _0283_ _0142_ active_row\[0\]\[4\] VSS VSS
+ VDD VDD _0284_ sky130_fd_sc_hd__o2bb2ai_2
X_0878_ net29 _0284_ VSS VSS VDD VDD _0285_ sky130_fd_sc_hd__xnor2_1
X_0879_ active_row\[1\]\[9\] active_row\[3\]\[9\] net250 VSS
+ VSS VDD VDD _0286_ sky130_fd_sc_hd__mux2i_1
X_0880_ net250 active_row\[5\]\[9\] net249 VSS VSS VDD VDD
+ _0287_ sky130_fd_sc_hd__nand3b_1
X_0881_ net249 _0286_ _0287_ VSS VSS VDD VDD _0288_ sky130_fd_sc_hd__o21ai_0
X_0882_ net251 _0288_ VSS VSS VDD VDD _0289_ sky130_fd_sc_hd__nand2_1
X_0883_ _0119_ active_row\[2\]\[9\] _0149_ VSS VSS VDD VDD
+ _0290_ sky130_fd_sc_hd__o21ai_0
X_0884_ active_row\[4\]\[9\] _0146_ VSS VSS VDD VDD _0291_
+ sky130_fd_sc_hd__nand2_1
X_0885_ active_row\[6\]\[9\] active_row\[7\]\[9\] net251 VSS
+ VSS VDD VDD _0292_ sky130_fd_sc_hd__mux2_2
X_0886_ net249 net250 _0292_ VSS VSS VDD VDD _0293_ sky130_fd_sc_hd__nand3_1
X_0887_ active_row\[0\]\[9\] _0142_ VSS VSS VDD VDD _0294_
+ sky130_fd_sc_hd__nor2_1
X_0888_ _0289_ _0290_ _0291_ _0293_ _0294_ VSS VSS VDD VDD
+ _0295_ sky130_fd_sc_hd__a41oi_1
X_0889_ net35 _0295_ VSS VSS VDD VDD _0296_ sky130_fd_sc_hd__xor2_1
X_0890_ net250 active_row\[3\]\[0\] net246 _0146_ active_row\[4\]\[0\]
+ VSS VSS VDD VDD _0297_ sky130_fd_sc_hd__a32oi_1
X_0891_ _0119_ active_row\[2\]\[0\] _0149_ VSS VSS VDD VDD
+ _0298_ sky130_fd_sc_hd__o21ai_0
X_0892_ active_row\[1\]\[0\] _0150_ VSS VSS VDD VDD _0299_
+ sky130_fd_sc_hd__nand2_1
X_0893_ active_row\[5\]\[0\] active_row\[7\]\[0\] net250 VSS
+ VSS VDD VDD _0300_ sky130_fd_sc_hd__mux2i_1
X_0894_ net251 _0300_ VSS VSS VDD VDD _0301_ sky130_fd_sc_hd__nand2_1
X_0895_ net250 active_row\[6\]\[0\] VSS VSS VDD VDD _0302_
+ sky130_fd_sc_hd__nand2_1
X_0896_ _0135_ _0302_ VSS VSS VDD VDD _0303_ sky130_fd_sc_hd__nand2_1
X_0897_ net249 _0301_ _0303_ VSS VSS VDD VDD _0304_ sky130_fd_sc_hd__nand3_1
X_0898_ active_row\[0\]\[0\] _0142_ VSS VSS VDD VDD _0305_
+ sky130_fd_sc_hd__nor2_1
X_0899_ _0297_ _0298_ _0299_ _0304_ _0305_ VSS VSS VDD VDD
+ _0306_ sky130_fd_sc_hd__a41oi_1
X_0900_ net25 _0306_ VSS VSS VDD VDD _0307_ sky130_fd_sc_hd__xor2_1
X_0901_ _0273_ _0285_ _0296_ _0307_ VSS VSS VDD VDD _0308_
+ sky130_fd_sc_hd__nor4_1
X_0902_ _0186_ _0225_ _0266_ _0308_ VSS VSS VDD VDD _0309_
+ sky130_fd_sc_hd__nand4_1
X_0903_ _0117_ _0309_ VSS VSS VDD VDD _0310_ sky130_fd_sc_hd__nor2_1
X_0904_ net242 VSS VSS VDD VDD _0311_ sky130_fd_sc_hd__inv_1
X_0905_ net53 VSS VSS VDD VDD _0312_ sky130_fd_sc_hd__inv_1
X_0906_ burst_counter\[3\] burst_counter\[2\] VSS VSS VDD
+ VDD _0313_ sky130_fd_sc_hd__nor2_1
X_0907_ _0030_ _0313_ VSS VSS VDD VDD _0314_ sky130_fd_sc_hd__and2_1
Xinput55 phy_clk VSS VSS VDD VDD net54 sky130_fd_sc_hd__clkdlybuf4s50_1
X_0909_ net153 _0104_ net245 VSS VSS VDD VDD _0316_ sky130_fd_sc_hd__nand3b_1
X_0910_ _0311_ net245 _0312_ _0314_ _0316_ VSS VSS VDD VDD
+ _0317_ sky130_fd_sc_hd__o32ai_1
X_0911_ net53 _0115_ _0310_ _0317_ net240 VSS VSS VDD VDD
+ _0318_ sky130_fd_sc_hd__a32oi_1
X_0912_ net243 _0318_ VSS VSS VDD VDD _0609_ sky130_fd_sc_hd__nor2_1
X_0913_ net240 VSS VSS VDD VDD _0319_ sky130_fd_sc_hd__inv_2
Xinput54 cmd_write VSS VSS VDD VDD net53 sky130_fd_sc_hd__clkdlybuf4s50_1
X_0915_ _0312_ _0319_ net242 VSS VSS VDD VDD _0321_ sky130_fd_sc_hd__o21ai_0
X_0916_ net243 net241 VSS VSS VDD VDD _0322_ sky130_fd_sc_hd__nor2_1
X_0917_ _0049_ _0051_ VSS VSS VDD VDD _0323_ sky130_fd_sc_hd__nor2_1
X_0918_ _0322_ _0323_ VSS VSS VDD VDD _0324_ sky130_fd_sc_hd__nand2_1
X_0919_ init_state\[5\] init_state\[1\] VSS VSS VDD VDD _0325_
+ sky130_fd_sc_hd__or2_2
Xinput53 cmd_valid VSS VSS VDD VDD net52 sky130_fd_sc_hd__clkdlybuf4s50_1
X_0921_ init_state\[6\] _0325_ VSS VSS VDD VDD _0327_ sky130_fd_sc_hd__nor2_1
X_0922_ _0319_ _0327_ net243 VSS VSS VDD VDD _0328_ sky130_fd_sc_hd__o21ai_0
X_0923_ _0030_ _0313_ VSS VSS VDD VDD _0329_ sky130_fd_sc_hd__nand2_1
X_0924_ _0319_ _0329_ net245 VSS VSS VDD VDD _0330_ sky130_fd_sc_hd__o21ai_0
X_0925_ _0324_ _0328_ _0330_ VSS VSS VDD VDD _0331_ sky130_fd_sc_hd__and3_1
X_0926_ refresh_counter\[1\] _0107_ _0106_ VSS VSS VDD VDD
+ _0332_ sky130_fd_sc_hd__o21ai_0
X_0927_ refresh_counter\[15\] _0111_ _0109_ VSS VSS VDD VDD
+ _0333_ sky130_fd_sc_hd__nor3_1
X_0928_ _0112_ _0105_ _0332_ _0333_ VSS VSS VDD VDD _0334_
+ sky130_fd_sc_hd__a22oi_1
X_0929_ _0186_ _0225_ _0266_ _0308_ VSS VSS VDD VDD _0335_
+ sky130_fd_sc_hd__and4_1
Xinput52 cmd_burst_len[3] VSS VSS VDD VDD net51 sky130_fd_sc_hd__clkdlybuf4s50_1
Xinput51 cmd_burst_len[2] VSS VSS VDD VDD net50 sky130_fd_sc_hd__clkdlybuf4s50_1
X_0932_ net52 net240 _0335_ VSS VSS VDD VDD _0338_ sky130_fd_sc_hd__nand3_1
Xinput50 cmd_burst_len[1] VSS VSS VDD VDD net49 sky130_fd_sc_hd__clkdlybuf4s50_1
Xinput49 cmd_burst_len[0] VSS VSS VDD VDD net48 sky130_fd_sc_hd__clkdlybuf4s50_1
X_0935_ _0312_ _0334_ _0338_ net241 VSS VSS VDD VDD _0341_
+ sky130_fd_sc_hd__o31ai_1
X_0936_ _0321_ _0331_ _0341_ VSS VSS VDD VDD _0610_ sky130_fd_sc_hd__nand3_1
X_0937_ _0117_ _0309_ _0115_ VSS VSS VDD VDD _0342_ sky130_fd_sc_hd__o21a_2
X_0938_ net242 net241 VSS VSS VDD VDD _0343_ sky130_fd_sc_hd__nor2_1
X_0939_ net242 _0319_ _0343_ VSS VSS VDD VDD _0344_ sky130_fd_sc_hd__a21oi_1
X_0940_ net243 _0344_ _0328_ VSS VSS VDD VDD _0345_ sky130_fd_sc_hd__o21ai_0
X_0941_ net245 _0342_ _0345_ VSS VSS VDD VDD _0611_ sky130_fd_sc_hd__or3_1
X_0942_ _0117_ _0335_ _0115_ VSS VSS VDD VDD _0346_ sky130_fd_sc_hd__o21ai_0
X_0943_ _0311_ _0331_ _0346_ VSS VSS VDD VDD _0612_ sky130_fd_sc_hd__nand3_1
X_0944_ init_state\[7\] _0091_ _0093_ VSS VSS VDD VDD _0347_
+ sky130_fd_sc_hd__and3_1
X_0945_ net243 _0347_ VSS VSS VDD VDD _0348_ sky130_fd_sc_hd__nand2_1
X_0946_ net243 net241 VSS VSS VDD VDD _0349_ sky130_fd_sc_hd__nand2b_1
X_0947_ _0348_ _0349_ _0115_ VSS VSS VDD VDD _0350_ sky130_fd_sc_hd__a21oi_1
Xinput48 cmd_addr[9] VSS VSS VDD VDD net47 sky130_fd_sc_hd__clkdlybuf4s50_1
X_0949_ refresh_counter\[0\] _0113_ VSS VSS VDD VDD _0352_
+ sky130_fd_sc_hd__xnor2_1
X_0950_ net235 _0352_ VSS VSS VDD VDD _0613_ sky130_fd_sc_hd__nor2_1
X_0951_ refresh_counter\[1\] _0113_ VSS VSS VDD VDD _0353_
+ sky130_fd_sc_hd__nor2_1
X_0952_ _0034_ _0113_ net235 _0353_ VSS VSS VDD VDD _0620_
+ sky130_fd_sc_hd__a211oi_1
X_0953_ _0035_ _0113_ VSS VSS VDD VDD _0354_ sky130_fd_sc_hd__nand2_1
X_0954_ refresh_counter\[2\] _0354_ VSS VSS VDD VDD _0355_
+ sky130_fd_sc_hd__xor2_1
X_0955_ net235 _0355_ VSS VSS VDD VDD _0621_ sky130_fd_sc_hd__nor2_1
X_0956_ refresh_counter\[2\] refresh_counter\[1\] refresh_counter\[0\]
+ _0113_ VSS VSS VDD VDD _0356_ sky130_fd_sc_hd__nand4_1
X_0957_ refresh_counter\[3\] _0356_ VSS VSS VDD VDD _0357_
+ sky130_fd_sc_hd__xor2_1
X_0958_ net235 _0357_ VSS VSS VDD VDD _0622_ sky130_fd_sc_hd__nor2_1
X_0959_ refresh_counter\[4\] VSS VSS VDD VDD _0358_ sky130_fd_sc_hd__inv_1
X_0960_ refresh_counter\[3\] refresh_counter\[2\] _0035_ _0113_
+ VSS VSS VDD VDD _0359_ sky130_fd_sc_hd__nand4_1
X_0961_ _0358_ _0359_ VSS VSS VDD VDD _0360_ sky130_fd_sc_hd__xnor2_1
X_0962_ net235 _0360_ VSS VSS VDD VDD _0623_ sky130_fd_sc_hd__nor2_1
X_0963_ refresh_counter\[4\] refresh_counter\[3\] VSS VSS
+ VDD VDD _0361_ sky130_fd_sc_hd__nand2_1
X_0964_ _0361_ _0356_ VSS VSS VDD VDD _0362_ sky130_fd_sc_hd__or2_2
X_0965_ refresh_counter\[5\] _0362_ VSS VSS VDD VDD _0363_
+ sky130_fd_sc_hd__xor2_1
X_0966_ net235 _0363_ VSS VSS VDD VDD _0624_ sky130_fd_sc_hd__nor2_1
X_0967_ _0358_ _0359_ VSS VSS VDD VDD _0364_ sky130_fd_sc_hd__nor2_1
X_0968_ refresh_counter\[5\] _0364_ VSS VSS VDD VDD _0365_
+ sky130_fd_sc_hd__nand2_1