* CDL Netlist generated by OpenROAD

*.BUSDELIMITER [

.SUBCKT parameterized_fft busy clk data_in_imag[0] data_in_imag[10]
+ data_in_imag[11] data_in_imag[12] data_in_imag[13] data_in_imag[14]
+ data_in_imag[15] data_in_imag[1] data_in_imag[2] data_in_imag[3]
+ data_in_imag[4] data_in_imag[5] data_in_imag[6] data_in_imag[7]
+ data_in_imag[8] data_in_imag[9] data_in_real[0] data_in_real[10]
+ data_in_real[11] data_in_real[12] data_in_real[13] data_in_real[14]
+ data_in_real[15] data_in_real[1] data_in_real[2] data_in_real[3]
+ data_in_real[4] data_in_real[5] data_in_real[6] data_in_real[7]
+ data_in_real[8] data_in_real[9] data_out_imag[0] data_out_imag[100]
+ data_out_imag[101] data_out_imag[102] data_out_imag[103] data_out_imag[104]
+ data_out_imag[105] data_out_imag[106] data_out_imag[107] data_out_imag[108]
+ data_out_imag[109] data_out_imag[10] data_out_imag[110] data_out_imag[111]
+ data_out_imag[112] data_out_imag[113] data_out_imag[114] data_out_imag[115]
+ data_out_imag[116] data_out_imag[117] data_out_imag[118] data_out_imag[119]
+ data_out_imag[11] data_out_imag[120] data_out_imag[121] data_out_imag[122]
+ data_out_imag[123] data_out_imag[124] data_out_imag[125] data_out_imag[126]
+ data_out_imag[127] data_out_imag[12] data_out_imag[13] data_out_imag[14]
+ data_out_imag[15] data_out_imag[16] data_out_imag[17] data_out_imag[18]
+ data_out_imag[19] data_out_imag[1] data_out_imag[20] data_out_imag[21]
+ data_out_imag[22] data_out_imag[23] data_out_imag[24] data_out_imag[25]
+ data_out_imag[26] data_out_imag[27] data_out_imag[28] data_out_imag[29]
+ data_out_imag[2] data_out_imag[30] data_out_imag[31] data_out_imag[32]
+ data_out_imag[33] data_out_imag[34] data_out_imag[35] data_out_imag[36]
+ data_out_imag[37] data_out_imag[38] data_out_imag[39] data_out_imag[3]
+ data_out_imag[40] data_out_imag[41] data_out_imag[42] data_out_imag[43]
+ data_out_imag[44] data_out_imag[45] data_out_imag[46] data_out_imag[47]
+ data_out_imag[48] data_out_imag[49] data_out_imag[4] data_out_imag[50]
+ data_out_imag[51] data_out_imag[52] data_out_imag[53] data_out_imag[54]
+ data_out_imag[55] data_out_imag[56] data_out_imag[57] data_out_imag[58]
+ data_out_imag[59] data_out_imag[5] data_out_imag[60] data_out_imag[61]
+ data_out_imag[62] data_out_imag[63] data_out_imag[64] data_out_imag[65]
+ data_out_imag[66] data_out_imag[67] data_out_imag[68] data_out_imag[69]
+ data_out_imag[6] data_out_imag[70] data_out_imag[71] data_out_imag[72]
+ data_out_imag[73] data_out_imag[74] data_out_imag[75] data_out_imag[76]
+ data_out_imag[77] data_out_imag[78] data_out_imag[79] data_out_imag[7]
+ data_out_imag[80] data_out_imag[81] data_out_imag[82] data_out_imag[83]
+ data_out_imag[84] data_out_imag[85] data_out_imag[86] data_out_imag[87]
+ data_out_imag[88] data_out_imag[89] data_out_imag[8] data_out_imag[90]
+ data_out_imag[91] data_out_imag[92] data_out_imag[93] data_out_imag[94]
+ data_out_imag[95] data_out_imag[96] data_out_imag[97] data_out_imag[98]
+ data_out_imag[99] data_out_imag[9] data_out_real[0] data_out_real[100]
+ data_out_real[101] data_out_real[102] data_out_real[103] data_out_real[104]
+ data_out_real[105] data_out_real[106] data_out_real[107] data_out_real[108]
+ data_out_real[109] data_out_real[10] data_out_real[110] data_out_real[111]
+ data_out_real[112] data_out_real[113] data_out_real[114] data_out_real[115]
+ data_out_real[116] data_out_real[117] data_out_real[118] data_out_real[119]
+ data_out_real[11] data_out_real[120] data_out_real[121] data_out_real[122]
+ data_out_real[123] data_out_real[124] data_out_real[125] data_out_real[126]
+ data_out_real[127] data_out_real[12] data_out_real[13] data_out_real[14]
+ data_out_real[15] data_out_real[16] data_out_real[17] data_out_real[18]
+ data_out_real[19] data_out_real[1] data_out_real[20] data_out_real[21]
+ data_out_real[22] data_out_real[23] data_out_real[24] data_out_real[25]
+ data_out_real[26] data_out_real[27] data_out_real[28] data_out_real[29]
+ data_out_real[2] data_out_real[30] data_out_real[31] data_out_real[32]
+ data_out_real[33] data_out_real[34] data_out_real[35] data_out_real[36]
+ data_out_real[37] data_out_real[38] data_out_real[39] data_out_real[3]
+ data_out_real[40] data_out_real[41] data_out_real[42] data_out_real[43]
+ data_out_real[44] data_out_real[45] data_out_real[46] data_out_real[47]
+ data_out_real[48] data_out_real[49] data_out_real[4] data_out_real[50]
+ data_out_real[51] data_out_real[52] data_out_real[53] data_out_real[54]
+ data_out_real[55] data_out_real[56] data_out_real[57] data_out_real[58]
+ data_out_real[59] data_out_real[5] data_out_real[60] data_out_real[61]
+ data_out_real[62] data_out_real[63] data_out_real[64] data_out_real[65]
+ data_out_real[66] data_out_real[67] data_out_real[68] data_out_real[69]
+ data_out_real[6] data_out_real[70] data_out_real[71] data_out_real[72]
+ data_out_real[73] data_out_real[74] data_out_real[75] data_out_real[76]
+ data_out_real[77] data_out_real[78] data_out_real[79] data_out_real[7]
+ data_out_real[80] data_out_real[81] data_out_real[82] data_out_real[83]
+ data_out_real[84] data_out_real[85] data_out_real[86] data_out_real[87]
+ data_out_real[88] data_out_real[89] data_out_real[8] data_out_real[90]
+ data_out_real[91] data_out_real[92] data_out_real[93] data_out_real[94]
+ data_out_real[95] data_out_real[96] data_out_real[97] data_out_real[98]
+ data_out_real[99] data_out_real[9] data_ready data_valid_in
+ data_valid_out rst_n start
X_09753_ rst_n _00841_ VDD VSS BUF_X2
X_09754_ _00841_ _00842_ VDD VSS BUF_X4
X_09755_ _00842_ _00843_ VDD VSS INV_X4
X_09756_ _00843_ _00844_ VDD VSS BUF_X4
X_09757_ _00844_ _00845_ VDD VSS BUF_X4
X_09758_ state\[1\] _00846_ VDD VSS BUF_X2
X_09759_ stage\[2\] _00847_ VDD VSS CLKBUF_X3
X_09760_ _00847_ _00848_ VDD VSS BUF_X4
X_09761_ stage\[0\] _00849_ VDD VSS BUF_X2
X_09762_ stage\[1\] _00850_ VDD VSS BUF_X2
X_09763_ _00848_ _00849_ _00850_ _00851_ VDD VSS AOI21_X4
X_09764_ _00846_ _00851_ _00852_ VDD VSS NAND2_X1
X_09765_ state\[2\] _00853_ VDD VSS CLKBUF_X3
X_09766_ net86 _09382_ _00853_ _00854_ VDD VSS NAND3_X1
X_09767_ _00845_ _00852_ _00854_ _00011_ VDD VSS AOI21_X1
X_09768_ _00842_ _00855_ VDD VSS CLKBUF_X3
X_09769_ _00855_ _00856_ VDD VSS BUF_X4
X_09770_ state\[3\] _00857_ VDD VSS BUF_X4
X_09771_ _00857_ _00858_ VDD VSS INV_X4
X_09772_ _00858_ _00859_ VDD VSS CLKBUF_X3
X_09773_ state\[0\] _00860_ VDD VSS BUF_X2
X_09774_ net87 _00861_ VDD VSS INV_X1
X_09775_ _00860_ _00861_ _00862_ VDD VSS NAND2_X1
X_09776_ _00856_ _00859_ _00862_ _00010_ VDD VSS NAND3_X1
Xsplit56 net61 net56 VDD VSS CLKBUF_X2
Xclone60 net452 net60 VDD VSS BUF_X4
X_09779_ samples_imag\[0\]\[15\] samples_imag\[2\]\[15\] net56
+ _00865_ VDD VSS MUX2_X1
X_09780_ samples_imag\[1\]\[15\] samples_imag\[3\]\[15\] net56
+ _00866_ VDD VSS MUX2_X1
X_09781_ _00000_ _00867_ VDD VSS BUF_X4
X_09782_ _00865_ _00866_ _00867_ _00868_ VDD VSS MUX2_X1
X_09783_ samples_imag\[4\]\[15\] samples_imag\[6\]\[15\] net56
+ _00869_ VDD VSS MUX2_X1
X_09784_ samples_imag\[5\]\[15\] samples_imag\[7\]\[15\] net56
+ _00870_ VDD VSS MUX2_X1
X_09785_ _00869_ _00870_ _00867_ _00871_ VDD VSS MUX2_X1
X_09786_ _00002_ _00872_ VDD VSS BUF_X2
X_09787_ _00868_ _00871_ _00872_ _08561_ VDD VSS MUX2_X2
X_09788_ _00001_ _00873_ VDD VSS BUF_X16
X_09789_ net57 _00874_ VDD VSS BUF_X4
X_09790_ samples_imag\[0\]\[14\] samples_imag\[2\]\[14\] _00874_
+ _00875_ VDD VSS MUX2_X1
X_09791_ samples_imag\[1\]\[14\] samples_imag\[3\]\[14\] _00874_
+ _00876_ VDD VSS MUX2_X1
X_09792_ _00867_ _00877_ VDD VSS BUF_X4
X_09793_ _00875_ _00876_ _00877_ _00878_ VDD VSS MUX2_X1
X_09794_ samples_imag\[4\]\[14\] samples_imag\[6\]\[14\] _00874_
+ _00879_ VDD VSS MUX2_X1
X_09795_ samples_imag\[5\]\[14\] samples_imag\[7\]\[14\] _00874_
+ _00880_ VDD VSS MUX2_X1
X_09796_ _00879_ _00880_ _00877_ _00881_ VDD VSS MUX2_X1
X_09797_ _00872_ _00882_ VDD VSS BUF_X4
X_09798_ _00878_ _00881_ _00882_ _08553_ VDD VSS MUX2_X2
X_09799_ _00873_ _00883_ VDD VSS BUF_X16
X_09800_ samples_imag\[0\]\[13\] samples_imag\[2\]\[13\] _00883_
+ _00884_ VDD VSS MUX2_X1
X_09801_ samples_imag\[1\]\[13\] samples_imag\[3\]\[13\] _00883_
+ _00885_ VDD VSS MUX2_X1
X_09802_ _00867_ _00886_ VDD VSS BUF_X4
X_09803_ _00884_ _00885_ _00886_ _00887_ VDD VSS MUX2_X1
X_09804_ samples_imag\[4\]\[13\] samples_imag\[6\]\[13\] _00883_
+ _00888_ VDD VSS MUX2_X1
X_09805_ samples_imag\[5\]\[13\] samples_imag\[7\]\[13\] _00883_
+ _00889_ VDD VSS MUX2_X1
X_09806_ _00888_ _00889_ _00886_ _00890_ VDD VSS MUX2_X1
X_09807_ _00887_ _00890_ _00882_ _08569_ VDD VSS MUX2_X2
X_09808_ net57 _00891_ VDD VSS BUF_X4
X_09809_ samples_imag\[0\]\[12\] samples_imag\[2\]\[12\] _00891_
+ _00892_ VDD VSS MUX2_X1
X_09810_ samples_imag\[1\]\[12\] samples_imag\[3\]\[12\] _00891_
+ _00893_ VDD VSS MUX2_X1
X_09811_ _00867_ _00894_ VDD VSS BUF_X4
X_09812_ _00892_ _00893_ _00894_ _00895_ VDD VSS MUX2_X1
X_09813_ net57 _00896_ VDD VSS BUF_X4
X_09814_ samples_imag\[4\]\[12\] samples_imag\[6\]\[12\] _00896_
+ _00897_ VDD VSS MUX2_X1
X_09815_ samples_imag\[5\]\[12\] samples_imag\[7\]\[12\] _00896_
+ _00898_ VDD VSS MUX2_X1
X_09816_ _00867_ _00899_ VDD VSS BUF_X4
X_09817_ _00897_ _00898_ _00899_ _00900_ VDD VSS MUX2_X1
X_09818_ _00872_ _00901_ VDD VSS BUF_X4
X_09819_ _00895_ _00900_ _00901_ _08574_ VDD VSS MUX2_X2
X_09820_ _00873_ _00902_ VDD VSS BUF_X4
X_09821_ samples_imag\[0\]\[11\] samples_imag\[2\]\[11\] net59
+ _00903_ VDD VSS MUX2_X1
X_09822_ samples_imag\[1\]\[11\] samples_imag\[3\]\[11\] net59
+ _00904_ VDD VSS MUX2_X1
X_09823_ _00903_ _00904_ _00886_ _00905_ VDD VSS MUX2_X1
X_09824_ net57 _00906_ VDD VSS BUF_X4
X_09825_ samples_imag\[4\]\[11\] samples_imag\[6\]\[11\] _00906_
+ _00907_ VDD VSS MUX2_X1
X_09826_ samples_imag\[5\]\[11\] samples_imag\[7\]\[11\] _00906_
+ _00908_ VDD VSS MUX2_X1
X_09827_ _00907_ _00908_ _00877_ _00909_ VDD VSS MUX2_X1
X_09828_ _00905_ _00909_ _00882_ _08579_ VDD VSS MUX2_X2
X_09829_ _00873_ _00910_ VDD VSS BUF_X8
X_09830_ samples_imag\[0\]\[10\] samples_imag\[2\]\[10\] net129
+ _00911_ VDD VSS MUX2_X1
X_09831_ samples_imag\[1\]\[10\] samples_imag\[3\]\[10\] _00910_
+ _00912_ VDD VSS MUX2_X1
X_09832_ _00867_ _00913_ VDD VSS BUF_X4
X_09833_ _00911_ _00912_ _00913_ _00914_ VDD VSS MUX2_X1
X_09834_ samples_imag\[4\]\[10\] samples_imag\[6\]\[10\] _00910_
+ _00915_ VDD VSS MUX2_X1
X_09835_ samples_imag\[5\]\[10\] samples_imag\[7\]\[10\] _00910_
+ _00916_ VDD VSS MUX2_X1
X_09836_ _00915_ _00916_ _00913_ _00917_ VDD VSS MUX2_X1
X_09837_ _00872_ _00918_ VDD VSS BUF_X4
X_09838_ _00914_ _00917_ _00918_ _08584_ VDD VSS MUX2_X2
X_09839_ _00001_ _00919_ VDD VSS BUF_X8
X_09840_ samples_imag\[0\]\[9\] samples_imag\[2\]\[9\] net60
+ _00920_ VDD VSS MUX2_X1
X_09841_ _00001_ _00921_ VDD VSS BUF_X4
X_09842_ samples_imag\[1\]\[9\] samples_imag\[3\]\[9\] _00921_
+ _00922_ VDD VSS MUX2_X1
X_09843_ _00867_ _00923_ VDD VSS BUF_X4
X_09844_ _00920_ _00922_ _00923_ _00924_ VDD VSS MUX2_X1
X_09845_ samples_imag\[4\]\[9\] samples_imag\[6\]\[9\] _00921_
+ _00925_ VDD VSS MUX2_X1
X_09846_ samples_imag\[5\]\[9\] samples_imag\[7\]\[9\] _00921_
+ _00926_ VDD VSS MUX2_X1
X_09847_ _00925_ _00926_ _00923_ _00927_ VDD VSS MUX2_X1
X_09848_ _00924_ _00927_ _00918_ _08589_ VDD VSS MUX2_X2
X_09849_ samples_imag\[0\]\[8\] samples_imag\[2\]\[8\] _00921_
+ _00928_ VDD VSS MUX2_X1
X_09850_ samples_imag\[1\]\[8\] samples_imag\[3\]\[8\] _00921_
+ _00929_ VDD VSS MUX2_X1
X_09851_ _00928_ _00929_ _00923_ _00930_ VDD VSS MUX2_X1
X_09852_ _00873_ _00931_ VDD VSS BUF_X16
X_09853_ samples_imag\[4\]\[8\] samples_imag\[6\]\[8\] net476
+ _00932_ VDD VSS MUX2_X1
X_09854_ samples_imag\[5\]\[8\] samples_imag\[7\]\[8\] net476
+ _00933_ VDD VSS MUX2_X1
X_09855_ _00932_ _00933_ _00913_ _00934_ VDD VSS MUX2_X1
X_09856_ _00930_ _00934_ _00918_ _08594_ VDD VSS MUX2_X2
X_09857_ net57 _00935_ VDD VSS BUF_X4
X_09858_ samples_imag\[0\]\[7\] samples_imag\[2\]\[7\] _00935_
+ _00936_ VDD VSS MUX2_X1
X_09859_ samples_imag\[1\]\[7\] samples_imag\[3\]\[7\] _00935_
+ _00937_ VDD VSS MUX2_X1
X_09860_ _00936_ _00937_ _00899_ _00938_ VDD VSS MUX2_X1
X_09861_ samples_imag\[4\]\[7\] samples_imag\[6\]\[7\] _00935_
+ _00939_ VDD VSS MUX2_X1
X_09862_ samples_imag\[5\]\[7\] samples_imag\[7\]\[7\] _00935_
+ _00940_ VDD VSS MUX2_X1
X_09863_ _00939_ _00940_ _00899_ _00941_ VDD VSS MUX2_X1
X_09864_ _00938_ _00941_ _00901_ _08599_ VDD VSS MUX2_X2
X_09865_ _00873_ _00942_ VDD VSS BUF_X8
X_09866_ samples_imag\[0\]\[6\] samples_imag\[2\]\[6\] _00942_
+ _00943_ VDD VSS MUX2_X1
X_09867_ samples_imag\[1\]\[6\] samples_imag\[3\]\[6\] _00891_
+ _00944_ VDD VSS MUX2_X1
X_09868_ _00943_ _00944_ _00894_ _00945_ VDD VSS MUX2_X1
X_09869_ samples_imag\[4\]\[6\] samples_imag\[6\]\[6\] _00891_
+ _00946_ VDD VSS MUX2_X1
X_09870_ samples_imag\[5\]\[6\] samples_imag\[7\]\[6\] _00891_
+ _00947_ VDD VSS MUX2_X1
X_09871_ _00946_ _00947_ _00894_ _00948_ VDD VSS MUX2_X1
X_09872_ _00945_ _00948_ _00901_ _08604_ VDD VSS MUX2_X2
X_09873_ samples_imag\[0\]\[5\] samples_imag\[2\]\[5\] _00906_
+ _00949_ VDD VSS MUX2_X1
X_09874_ samples_imag\[1\]\[5\] samples_imag\[3\]\[5\] _00906_
+ _00950_ VDD VSS MUX2_X1
X_09875_ _00949_ _00950_ _00877_ _00951_ VDD VSS MUX2_X1
X_09876_ samples_imag\[4\]\[5\] samples_imag\[6\]\[5\] _00906_
+ _00952_ VDD VSS MUX2_X1
X_09877_ samples_imag\[5\]\[5\] samples_imag\[7\]\[5\] _00874_
+ _00953_ VDD VSS MUX2_X1
X_09878_ _00952_ _00953_ _00877_ _00954_ VDD VSS MUX2_X1
X_09879_ _00951_ _00954_ _00882_ _08609_ VDD VSS MUX2_X2
X_09880_ samples_imag\[0\]\[4\] samples_imag\[2\]\[4\] _00896_
+ _00955_ VDD VSS MUX2_X1
X_09881_ samples_imag\[1\]\[4\] samples_imag\[3\]\[4\] _00896_
+ _00956_ VDD VSS MUX2_X1
X_09882_ _00955_ _00956_ _00899_ _00957_ VDD VSS MUX2_X1
X_09883_ samples_imag\[4\]\[4\] samples_imag\[6\]\[4\] _00896_
+ _00958_ VDD VSS MUX2_X1
X_09884_ samples_imag\[5\]\[4\] samples_imag\[7\]\[4\] _00935_
+ _00959_ VDD VSS MUX2_X1
X_09885_ _00958_ _00959_ _00899_ _00960_ VDD VSS MUX2_X1
X_09886_ _00957_ _00960_ _00901_ _08614_ VDD VSS MUX2_X2
X_09887_ samples_imag\[0\]\[3\] samples_imag\[2\]\[3\] _00942_
+ _00961_ VDD VSS MUX2_X1
X_09888_ samples_imag\[1\]\[3\] samples_imag\[3\]\[3\] _00942_
+ _00962_ VDD VSS MUX2_X1
X_09889_ _00961_ _00962_ _00894_ _00963_ VDD VSS MUX2_X1
X_09890_ samples_imag\[4\]\[3\] samples_imag\[6\]\[3\] _00942_
+ _00964_ VDD VSS MUX2_X1
X_09891_ samples_imag\[5\]\[3\] samples_imag\[7\]\[3\] _00942_
+ _00965_ VDD VSS MUX2_X1
X_09892_ _00964_ _00965_ _00894_ _00966_ VDD VSS MUX2_X1
X_09893_ _00963_ _00966_ _00901_ _08619_ VDD VSS MUX2_X2
X_09894_ samples_imag\[0\]\[2\] samples_imag\[2\]\[2\] _00883_
+ _00967_ VDD VSS MUX2_X1
X_09895_ samples_imag\[1\]\[2\] samples_imag\[3\]\[2\] _00902_
+ _00968_ VDD VSS MUX2_X1
X_09896_ _00967_ _00968_ _00886_ _00969_ VDD VSS MUX2_X1
X_09897_ samples_imag\[4\]\[2\] samples_imag\[6\]\[2\] _00902_
+ _00970_ VDD VSS MUX2_X1
X_09898_ samples_imag\[5\]\[2\] samples_imag\[7\]\[2\] _00902_
+ _00971_ VDD VSS MUX2_X1
X_09899_ _00970_ _00971_ _00886_ _00972_ VDD VSS MUX2_X1
X_09900_ _00969_ _00972_ _00882_ _08624_ VDD VSS MUX2_X2
X_09901_ samples_imag\[0\]\[1\] samples_imag\[2\]\[1\] _00919_
+ _00973_ VDD VSS MUX2_X1
X_09902_ samples_imag\[1\]\[1\] samples_imag\[3\]\[1\] _00919_
+ _00974_ VDD VSS MUX2_X1
X_09903_ _00973_ _00974_ _00923_ _00975_ VDD VSS MUX2_X1
X_09904_ samples_imag\[4\]\[1\] samples_imag\[6\]\[1\] _00919_
+ _00976_ VDD VSS MUX2_X1
X_09905_ samples_imag\[5\]\[1\] samples_imag\[7\]\[1\] _00919_
+ _00977_ VDD VSS MUX2_X1
X_09906_ _00976_ _00977_ _00923_ _00978_ VDD VSS MUX2_X1
X_09907_ _00975_ _00978_ _00918_ _08629_ VDD VSS MUX2_X2
X_09908_ samples_imag\[0\]\[0\] samples_imag\[2\]\[0\] net511
+ _00979_ VDD VSS MUX2_X1
X_09909_ samples_imag\[1\]\[0\] samples_imag\[3\]\[0\] net511
+ _00980_ VDD VSS MUX2_X1
X_09910_ _00979_ _00980_ _00913_ _00981_ VDD VSS MUX2_X1
X_09911_ samples_imag\[4\]\[0\] samples_imag\[6\]\[0\] net511
+ _00982_ VDD VSS MUX2_X1
X_09912_ samples_imag\[5\]\[0\] samples_imag\[7\]\[0\] _00910_
+ _00983_ VDD VSS MUX2_X1
X_09913_ _00982_ _00983_ _00913_ _00984_ VDD VSS MUX2_X1
X_09914_ _00981_ _00984_ _00918_ _08559_ VDD VSS MUX2_X2
X_09915_ samples_real\[0\]\[15\] samples_real\[2\]\[15\] net56
+ _00985_ VDD VSS MUX2_X1
X_09916_ samples_real\[1\]\[15\] samples_real\[3\]\[15\] net61
+ _00986_ VDD VSS MUX2_X1
X_09917_ _00985_ _00986_ _00867_ _00987_ VDD VSS MUX2_X1
X_09918_ samples_real\[4\]\[15\] samples_real\[6\]\[15\] net61
+ _00988_ VDD VSS MUX2_X1
X_09919_ samples_real\[5\]\[15\] samples_real\[7\]\[15\] net61
+ _00989_ VDD VSS MUX2_X1
X_09920_ _00988_ _00989_ _00867_ _00990_ VDD VSS MUX2_X1
X_09921_ _00987_ _00990_ _00872_ _08642_ VDD VSS MUX2_X2
X_09922_ samples_real\[0\]\[14\] samples_real\[2\]\[14\] _00874_
+ _00991_ VDD VSS MUX2_X1
X_09923_ samples_real\[1\]\[14\] samples_real\[3\]\[14\] _00874_
+ _00992_ VDD VSS MUX2_X1
X_09924_ _00991_ _00992_ _00877_ _00993_ VDD VSS MUX2_X1
X_09925_ samples_real\[4\]\[14\] samples_real\[6\]\[14\] _00874_
+ _00994_ VDD VSS MUX2_X1
X_09926_ samples_real\[5\]\[14\] samples_real\[7\]\[14\] _00874_
+ _00995_ VDD VSS MUX2_X1
X_09927_ _00994_ _00995_ _00877_ _00996_ VDD VSS MUX2_X1
X_09928_ _00993_ _00996_ _00882_ _08634_ VDD VSS MUX2_X2
X_09929_ samples_real\[0\]\[13\] samples_real\[2\]\[13\] _00883_
+ _00997_ VDD VSS MUX2_X1
X_09930_ samples_real\[1\]\[13\] samples_real\[3\]\[13\] _00883_
+ _00998_ VDD VSS MUX2_X1
X_09931_ _00997_ _00998_ _00886_ _00999_ VDD VSS MUX2_X1
X_09932_ samples_real\[4\]\[13\] samples_real\[6\]\[13\] _00883_
+ _01000_ VDD VSS MUX2_X1
X_09933_ samples_real\[5\]\[13\] samples_real\[7\]\[13\] _00883_
+ _01001_ VDD VSS MUX2_X1
X_09934_ _01000_ _01001_ _00886_ _01002_ VDD VSS MUX2_X1
X_09935_ _00999_ _01002_ _00882_ _08650_ VDD VSS MUX2_X2
X_09936_ samples_real\[0\]\[12\] samples_real\[2\]\[12\] _00891_
+ _01003_ VDD VSS MUX2_X1
X_09937_ samples_real\[1\]\[12\] samples_real\[3\]\[12\] _00891_
+ _01004_ VDD VSS MUX2_X1
X_09938_ _01003_ _01004_ _00894_ _01005_ VDD VSS MUX2_X1
X_09939_ samples_real\[4\]\[12\] samples_real\[6\]\[12\] _00896_
+ _01006_ VDD VSS MUX2_X1
X_09940_ samples_real\[5\]\[12\] samples_real\[7\]\[12\] _00896_
+ _01007_ VDD VSS MUX2_X1
X_09941_ _01006_ _01007_ _00899_ _01008_ VDD VSS MUX2_X1
X_09942_ _01005_ _01008_ _00901_ _08655_ VDD VSS MUX2_X2
X_09943_ samples_real\[0\]\[11\] samples_real\[2\]\[11\] net59
+ _01009_ VDD VSS MUX2_X1
X_09944_ samples_real\[1\]\[11\] samples_real\[3\]\[11\] net59
+ _01010_ VDD VSS MUX2_X1
X_09945_ _01009_ _01010_ _00886_ _01011_ VDD VSS MUX2_X1
X_09946_ samples_real\[4\]\[11\] samples_real\[6\]\[11\] _00906_
+ _01012_ VDD VSS MUX2_X1
X_09947_ samples_real\[5\]\[11\] samples_real\[7\]\[11\] _00906_
+ _01013_ VDD VSS MUX2_X1
X_09948_ _01012_ _01013_ _00877_ _01014_ VDD VSS MUX2_X1
X_09949_ _01011_ _01014_ _00882_ _08660_ VDD VSS MUX2_X2
X_09950_ samples_real\[0\]\[10\] samples_real\[2\]\[10\] net129
+ _01015_ VDD VSS MUX2_X1
X_09951_ samples_real\[1\]\[10\] samples_real\[3\]\[10\] net129
+ _01016_ VDD VSS MUX2_X1
X_09952_ _01015_ _01016_ _00913_ _01017_ VDD VSS MUX2_X1
X_09953_ samples_real\[4\]\[10\] samples_real\[6\]\[10\] net129
+ _01018_ VDD VSS MUX2_X1
X_09954_ samples_real\[5\]\[10\] samples_real\[7\]\[10\] net129
+ _01019_ VDD VSS MUX2_X1
X_09955_ _01018_ _01019_ _00913_ _01020_ VDD VSS MUX2_X1
X_09956_ _01017_ _01020_ _00918_ _08665_ VDD VSS MUX2_X2
X_09957_ samples_real\[0\]\[9\] samples_real\[2\]\[9\] net60
+ _01021_ VDD VSS MUX2_X1
X_09958_ samples_real\[1\]\[9\] samples_real\[3\]\[9\] _00921_
+ _01022_ VDD VSS MUX2_X1
X_09959_ _01021_ _01022_ _00923_ _01023_ VDD VSS MUX2_X1
X_09960_ samples_real\[4\]\[9\] samples_real\[6\]\[9\] _00921_
+ _01024_ VDD VSS MUX2_X1
X_09961_ samples_real\[5\]\[9\] samples_real\[7\]\[9\] _00921_
+ _01025_ VDD VSS MUX2_X1
X_09962_ _01024_ _01025_ _00923_ _01026_ VDD VSS MUX2_X1
X_09963_ _01023_ _01026_ _00918_ _08670_ VDD VSS MUX2_X2
X_09964_ samples_real\[0\]\[8\] samples_real\[2\]\[8\] _00921_
+ _01027_ VDD VSS MUX2_X1
X_09965_ samples_real\[1\]\[8\] samples_real\[3\]\[8\] _00921_
+ _01028_ VDD VSS MUX2_X1
X_09966_ _01027_ _01028_ _00923_ _01029_ VDD VSS MUX2_X1
X_09967_ samples_real\[4\]\[8\] samples_real\[6\]\[8\] net477
+ _01030_ VDD VSS MUX2_X1
X_09968_ samples_real\[5\]\[8\] samples_real\[7\]\[8\] net477
+ _01031_ VDD VSS MUX2_X1
X_09969_ _01030_ _01031_ _00913_ _01032_ VDD VSS MUX2_X1
X_09970_ _01029_ _01032_ _00918_ _08675_ VDD VSS MUX2_X2
X_09971_ samples_real\[0\]\[7\] samples_real\[2\]\[7\] _00935_
+ _01033_ VDD VSS MUX2_X1
X_09972_ samples_real\[1\]\[7\] samples_real\[3\]\[7\] _00935_
+ _01034_ VDD VSS MUX2_X1
X_09973_ _01033_ _01034_ _00899_ _01035_ VDD VSS MUX2_X1
X_09974_ samples_real\[4\]\[7\] samples_real\[6\]\[7\] _00935_
+ _01036_ VDD VSS MUX2_X1
X_09975_ samples_real\[5\]\[7\] samples_real\[7\]\[7\] _00935_
+ _01037_ VDD VSS MUX2_X1
X_09976_ _01036_ _01037_ _00899_ _01038_ VDD VSS MUX2_X1
X_09977_ _01035_ _01038_ _00901_ _08680_ VDD VSS MUX2_X2
X_09978_ samples_real\[0\]\[6\] samples_real\[2\]\[6\] _00942_
+ _01039_ VDD VSS MUX2_X1
X_09979_ samples_real\[1\]\[6\] samples_real\[3\]\[6\] _00891_
+ _01040_ VDD VSS MUX2_X1
X_09980_ _01039_ _01040_ _00894_ _01041_ VDD VSS MUX2_X1
X_09981_ samples_real\[4\]\[6\] samples_real\[6\]\[6\] _00891_
+ _01042_ VDD VSS MUX2_X1
X_09982_ samples_real\[5\]\[6\] samples_real\[7\]\[6\] _00891_
+ _01043_ VDD VSS MUX2_X1
X_09983_ _01042_ _01043_ _00894_ _01044_ VDD VSS MUX2_X1
X_09984_ _01041_ _01044_ _00901_ _08685_ VDD VSS MUX2_X2
X_09985_ samples_real\[0\]\[5\] samples_real\[2\]\[5\] _00906_
+ _01045_ VDD VSS MUX2_X1
X_09986_ samples_real\[1\]\[5\] samples_real\[3\]\[5\] _00906_
+ _01046_ VDD VSS MUX2_X1
X_09987_ _01045_ _01046_ _00877_ _01047_ VDD VSS MUX2_X1
X_09988_ samples_real\[4\]\[5\] samples_real\[6\]\[5\] _00906_
+ _01048_ VDD VSS MUX2_X1
X_09989_ samples_real\[5\]\[5\] samples_real\[7\]\[5\] _00874_
+ _01049_ VDD VSS MUX2_X1
X_09990_ _01048_ _01049_ _00877_ _01050_ VDD VSS MUX2_X1
X_09991_ _01047_ _01050_ _00882_ _08690_ VDD VSS MUX2_X2
X_09992_ samples_real\[0\]\[4\] samples_real\[2\]\[4\] _00896_
+ _01051_ VDD VSS MUX2_X1
X_09993_ samples_real\[1\]\[4\] samples_real\[3\]\[4\] _00896_
+ _01052_ VDD VSS MUX2_X1
X_09994_ _01051_ _01052_ _00899_ _01053_ VDD VSS MUX2_X1
X_09995_ samples_real\[4\]\[4\] samples_real\[6\]\[4\] _00896_
+ _01054_ VDD VSS MUX2_X1
X_09996_ samples_real\[5\]\[4\] samples_real\[7\]\[4\] _00935_
+ _01055_ VDD VSS MUX2_X1
X_09997_ _01054_ _01055_ _00899_ _01056_ VDD VSS MUX2_X1
X_09998_ _01053_ _01056_ _00901_ _08695_ VDD VSS MUX2_X2
X_09999_ samples_real\[0\]\[3\] samples_real\[2\]\[3\] _00942_
+ _01057_ VDD VSS MUX2_X1
X_10000_ samples_real\[1\]\[3\] samples_real\[3\]\[3\] _00942_
+ _01058_ VDD VSS MUX2_X1
X_10001_ _01057_ _01058_ _00894_ _01059_ VDD VSS MUX2_X1
X_10002_ samples_real\[4\]\[3\] samples_real\[6\]\[3\] _00942_
+ _01060_ VDD VSS MUX2_X1
X_10003_ samples_real\[5\]\[3\] samples_real\[7\]\[3\] _00942_
+ _01061_ VDD VSS MUX2_X1
X_10004_ _01060_ _01061_ _00894_ _01062_ VDD VSS MUX2_X1
X_10005_ _01059_ _01062_ _00901_ _08700_ VDD VSS MUX2_X2
X_10006_ samples_real\[0\]\[2\] samples_real\[2\]\[2\] _00883_
+ _01063_ VDD VSS MUX2_X1
X_10007_ samples_real\[1\]\[2\] samples_real\[3\]\[2\] _00902_
+ _01064_ VDD VSS MUX2_X1
X_10008_ _01063_ _01064_ _00886_ _01065_ VDD VSS MUX2_X1
X_10009_ samples_real\[4\]\[2\] samples_real\[6\]\[2\] net59
+ _01066_ VDD VSS MUX2_X1
X_10010_ samples_real\[5\]\[2\] samples_real\[7\]\[2\] _00902_
+ _01067_ VDD VSS MUX2_X1
X_10011_ _01066_ _01067_ _00886_ _01068_ VDD VSS MUX2_X1
X_10012_ _01065_ _01068_ _00882_ _08705_ VDD VSS MUX2_X2
X_10013_ samples_real\[0\]\[1\] samples_real\[2\]\[1\] net60
+ _01069_ VDD VSS MUX2_X1
X_10014_ samples_real\[1\]\[1\] samples_real\[3\]\[1\] net60
+ _01070_ VDD VSS MUX2_X1
X_10015_ _01069_ _01070_ _00923_ _01071_ VDD VSS MUX2_X1
X_10016_ samples_real\[4\]\[1\] samples_real\[6\]\[1\] net60
+ _01072_ VDD VSS MUX2_X1
X_10017_ samples_real\[5\]\[1\] samples_real\[7\]\[1\] _00919_
+ _01073_ VDD VSS MUX2_X1
X_10018_ _01072_ _01073_ _00923_ _01074_ VDD VSS MUX2_X1
X_10019_ _01071_ _01074_ _00918_ _08710_ VDD VSS MUX2_X2
X_10020_ samples_real\[0\]\[0\] samples_real\[2\]\[0\] net130
+ _01075_ VDD VSS MUX2_X1
X_10021_ samples_real\[1\]\[0\] samples_real\[3\]\[0\] _00931_
+ _01076_ VDD VSS MUX2_X1
X_10022_ _01075_ _01076_ _00913_ _01077_ VDD VSS MUX2_X1
X_10023_ samples_real\[4\]\[0\] samples_real\[6\]\[0\] _00931_
+ _01078_ VDD VSS MUX2_X1
X_10024_ samples_real\[5\]\[0\] samples_real\[7\]\[0\] _00910_
+ _01079_ VDD VSS MUX2_X1
X_10025_ _01078_ _01079_ _00913_ _01080_ VDD VSS MUX2_X1
X_10026_ _01077_ _01080_ _00918_ _08640_ VDD VSS MUX2_X2
X_10027_ _00847_ _01081_ VDD VSS INV_X4
X_10028_ _09363_ _01082_ VDD VSS BUF_X4
X_10029_ _01082_ _01081_ _08715_ VDD VSS NAND2_X4
X_10030_ _09367_ _01083_ VDD VSS BUF_X4
X_10031_ _00847_ _01083_ _08777_ VDD VSS NAND2_X4
X_10032_ _08777_ _09313_ VDD VSS INV_X1
X_10033_ _09369_ _01084_ VDD VSS BUF_X4
X_10034_ _00848_ _01084_ _08764_ VDD VSS NAND2_X4
X_10035_ _08764_ _09317_ VDD VSS INV_X1
X_10036_ _00848_ _01082_ _08743_ VDD VSS NAND2_X4
X_10037_ _08743_ _09321_ VDD VSS INV_X1
X_10038_ _09340_ _01083_ _08721_ VDD VSS NAND2_X4
X_10039_ _08721_ _09329_ VDD VSS INV_X2
X_10040_ _09340_ _01084_ _07367_ VDD VSS NAND2_X4
X_10041_ _07367_ _07363_ VDD VSS INV_X2
X_10042_ _09345_ _01085_ VDD VSS BUF_X4
X_10043_ _01085_ _01086_ VDD VSS INV_X4
X_10044_ _01086_ _01087_ VDD VSS BUF_X4
X_10045_ _01087_ _01088_ VDD VSS CLKBUF_X3
X_10046_ _01088_ _01089_ VDD VSS CLKBUF_X3
X_10047_ _01089_ _01090_ VDD VSS BUF_X4
X_10048_ _01090_ _01091_ VDD VSS BUF_X4
X_10049_ _01091_ _08819_ VDD VSS BUF_X8
X_10050_ _01082_ _01092_ VDD VSS INV_X1
X_10051_ _00847_ _09340_ _01083_ _01084_ _01093_ VDD VSS OAI22_X1
X_10052_ _09342_ _01094_ VDD VSS BUF_X2
X_10053_ _00040_ _01095_ VDD VSS BUF_X4
X_10054_ _09357_ _01096_ VDD VSS BUF_X4
X_10055_ _01095_ _01096_ _01097_ VDD VSS NAND2_X4
X_10056_ _09309_ _01098_ VDD VSS BUF_X4
X_10057_ _09325_ _01098_ _01099_ VDD VSS OR2_X4
X_10058_ _01094_ _01085_ _01099_ _01097_ _01100_ VDD VSS OAI22_X4
X_10059_ _01092_ _08717_ _01093_ _01100_ _08718_ VDD VSS AND4_X4
X_10060_ net42 _09286_ VDD VSS INV_X2
X_10061_ _01082_ _01083_ _01084_ _01101_ VDD VSS NOR3_X1
X_10062_ _01086_ _01101_ _01081_ _01102_ VDD VSS OAI21_X2
X_10063_ _01094_ _01083_ _09340_ _01103_ VDD VSS AOI21_X4
X_10064_ _01103_ _01104_ VDD VSS INV_X1
X_10065_ _08720_ _01092_ _00847_ _01105_ VDD VSS OAI21_X2
Xclone22 _04633_ _04647_ _04634_ net22 VDD VSS NOR3_X2
X_10067_ _08719_ _01107_ VDD VSS INV_X2
X_10068_ _01102_ _01104_ _01107_ _01105_ _01108_ VDD VSS AOI211_X2
X_10069_ butterfly_count\[2\] _01109_ VDD VSS BUF_X4
X_10070_ _01095_ _01109_ _01110_ VDD VSS OR2_X2
X_10071_ _01096_ _01111_ VDD VSS INV_X2
X_10072_ _01110_ _01111_ _01107_ _01112_ VDD VSS AOI21_X2
X_10073_ _01110_ _01112_ _08715_ _01113_ VDD VSS MUX2_X1
X_10074_ net383 _01113_ _01114_ VDD VSS NAND2_X4
X_10075_ _01114_ _08725_ VDD VSS INV_X2
X_10076_ net31 _01115_ VDD VSS BUF_X4
X_10077_ _01115_ _01116_ VDD VSS BUF_X4
X_10078_ _01116_ _01117_ VDD VSS BUF_X4
X_10079_ _01085_ _01118_ VDD VSS BUF_X4
X_10080_ _01118_ _01119_ VDD VSS BUF_X4
X_10081_ _01119_ _01120_ VDD VSS CLKBUF_X3
X_10082_ _01120_ _01121_ VDD VSS BUF_X4
X_10083_ _01121_ _01122_ VDD VSS CLKBUF_X3
X_10084_ _09002_ _01123_ VDD VSS INV_X1
X_10085_ _08996_ _01124_ VDD VSS INV_X1
X_10086_ _08990_ _01125_ VDD VSS INV_X1
X_10087_ _08991_ _08984_ _08985_ _01126_ VDD VSS OAI21_X2
X_10088_ _01126_ _01125_ _01127_ VDD VSS NAND2_X2
X_10089_ _08988_ _01127_ _01128_ VDD VSS AND2_X4
X_10090_ _08997_ _01128_ _08987_ _01129_ VDD VSS OAI21_X4
X_10091_ _01124_ _01129_ _01130_ VDD VSS NAND2_X4
X_10092_ _08993_ _08994_ _01130_ _01131_ VDD VSS AOI21_X4
X_10093_ _09003_ _01132_ VDD VSS INV_X1
X_10094_ _01123_ _01131_ _01132_ _01133_ VDD VSS OAI21_X4
X_10095_ _09000_ _01133_ _01134_ VDD VSS AND2_X4
X_10096_ _08999_ _01134_ _01135_ VDD VSS OR2_X4
X_10097_ _01122_ _01135_ _01136_ VDD VSS NAND2_X1
X_10098_ _01117_ _01136_ _01137_ VDD VSS NAND2_X1
Xclone6 _09201_ _03966_ _09202_ net6 VDD VSS AOI21_X4
X_10100_ _08967_ _01139_ VDD VSS INV_X1
X_10101_ _08974_ _01140_ VDD VSS BUF_X2
X_10102_ _01140_ _08977_ _01141_ VDD VSS NAND2_X1
X_10103_ _08983_ _01142_ VDD VSS CLKBUF_X2
X_10104_ _01142_ _01143_ VDD VSS INV_X1
X_10105_ _01082_ _01083_ _01084_ _01144_ VDD VSS OR3_X2
X_10106_ _01085_ _01144_ _00848_ _01145_ VDD VSS AOI21_X4
X_10107_ _08720_ _01146_ VDD VSS INV_X1
X_10108_ _01146_ _01082_ _01081_ _01147_ VDD VSS AOI21_X2
X_10109_ _01145_ _01103_ _01147_ _08719_ _01148_ VDD VSS OAI211_X4
X_10110_ _01095_ _01109_ _01149_ VDD VSS AND2_X2
X_10111_ _01149_ _01150_ VDD VSS BUF_X4
X_10112_ _01148_ _01150_ _01151_ VDD VSS NAND2_X1
X_10113_ _01098_ _01152_ VDD VSS INV_X1
X_10114_ _01152_ _01153_ VDD VSS BUF_X4
X_10115_ _08733_ _01154_ VDD VSS INV_X1
X_10116_ _08742_ _08741_ _01155_ VDD VSS OR2_X1
X_10117_ _08736_ _08739_ _01156_ VDD VSS AND2_X2
X_10118_ _08735_ _01155_ _01156_ _08738_ _08736_ _01157_ VDD
+ VSS AOI221_X2
X_10119_ _01154_ _01157_ _01158_ VDD VSS NOR2_X4
X_10120_ _01145_ _01158_ _08732_ _01159_ VDD VSS OAI21_X4
X_10121_ _09325_ _08730_ VDD VSS INV_X16
X_10122_ _08724_ _01160_ VDD VSS INV_X1
X_10123_ _08727_ _08729_ _08728_ _01161_ VDD VSS OAI21_X2
X_10124_ _08726_ _01162_ VDD VSS INV_X1
X_10125_ _01160_ _01161_ _01162_ _01163_ VDD VSS AOI21_X4
X_10126_ _08730_ _01145_ _01163_ _08723_ _01164_ VDD VSS OAI211_X4
X_10127_ _01164_ _01165_ VDD VSS INV_X1
X_10128_ _08726_ _08724_ _01166_ VDD VSS NOR2_X1
X_10129_ _01163_ _01166_ _01161_ _01167_ VDD VSS AOI21_X2
X_10130_ _01159_ _01165_ _01167_ _01168_ VDD VSS NAND3_X2
X_10131_ _01109_ _01169_ VDD VSS INV_X2
X_10132_ _01169_ _01096_ _01170_ VDD VSS NAND2_X4
X_10133_ _01098_ _01170_ _01171_ VDD VSS NOR2_X2
X_10134_ _08724_ _08727_ _08730_ _08729_ _01172_ VDD VSS NAND4_X1
X_10135_ _01172_ _01144_ _00848_ _01173_ VDD VSS AOI21_X2
X_10136_ _01112_ _01149_ _01174_ VDD VSS NOR2_X4
X_10137_ _01171_ _01173_ _01148_ _01174_ _01175_ VDD VSS OAI211_X4
X_10138_ _08716_ _08720_ _01176_ VDD VSS XOR2_X1
X_10139_ _08719_ _01109_ _01095_ _01096_ _01177_ VDD VSS OR4_X4
X_10140_ _01177_ _01103_ _01178_ VDD VSS NAND2_X2