
* cell parameterized_crc_generator
* pin crc_init
* pin data_in[0]
* pin crc_out[0]
* pin data_in[1]
* pin crc_out[1]
* pin rst_n
* pin crc_out[2]
* pin data_in[2]
* pin data_in[7]
* pin clk
* pin crc_out[7]
* pin crc_out[3]
* pin data_in[6]
* pin crc_out[4]
* pin crc_out[5]
* pin data_valid
* pin crc_out[6]
* pin data_in[5]
* pin data_in[3]
* pin data_in[4]
* pin NWELL
* pin PWELL,gf180mcu_gnd
.SUBCKT parameterized_crc_generator 1 2 3 4 5 6 29 35 54 57 59 60 73 81 88 89
+ 90 91 92 93 94 95
* net 1 crc_init
* net 2 data_in[0]
* net 3 crc_out[0]
* net 4 data_in[1]
* net 5 crc_out[1]
* net 6 rst_n
* net 29 crc_out[2]
* net 35 data_in[2]
* net 54 data_in[7]
* net 57 clk
* net 59 crc_out[7]
* net 60 crc_out[3]
* net 73 data_in[6]
* net 81 crc_out[4]
* net 88 crc_out[5]
* net 89 data_valid
* net 90 crc_out[6]
* net 91 data_in[5]
* net 92 data_in[3]
* net 93 data_in[4]
* net 94 NWELL
* net 95 PWELL,gf180mcu_gnd
* cell instance $3 r0 *1 53.2,5.04
X$3 95 94 1 7 gf180mcu_fd_sc_mcu9t5v0__clkbuf_4
* cell instance $7 m0 *1 50.4,15.12
X$7 2 94 95 8 gf180mcu_fd_sc_mcu9t5v0__dlyb_2
* cell instance $11 r0 *1 58.24,15.12
X$11 11 94 95 3 gf180mcu_fd_sc_mcu9t5v0__dlyb_2
* cell instance $15 r0 *1 61.04,5.04
X$15 4 94 95 9 gf180mcu_fd_sc_mcu9t5v0__dlyb_2
* cell instance $19 m0 *1 100.24,15.12
X$19 10 94 95 5 gf180mcu_fd_sc_mcu9t5v0__dlyb_2
* cell instance $23 m0 *1 112.56,15.12
X$23 95 13 6 94 gf180mcu_fd_sc_mcu9t5v0__dlyc_2
* cell instance $26 r0 *1 56.56,75.6
X$26 95 94 52 7 49 gf180mcu_fd_sc_mcu9t5v0__nor2_2
* cell instance $28 m0 *1 82.88,45.36
X$28 95 94 22 7 12 gf180mcu_fd_sc_mcu9t5v0__nor2_2
* cell instance $30 r0 *1 75.6,95.76
X$30 95 94 79 7 78 gf180mcu_fd_sc_mcu9t5v0__nor2_2
* cell instance $32 r0 *1 86.8,75.6
X$32 95 94 56 7 50 gf180mcu_fd_sc_mcu9t5v0__nor2_2
* cell instance $45 r0 *1 60.48,45.36
X$45 31 19 23 21 7 94 95 gf180mcu_fd_sc_mcu9t5v0__aoi211_2
* cell instance $48 r0 *1 85.68,55.44
X$48 34 19 30 25 7 94 95 gf180mcu_fd_sc_mcu9t5v0__aoi211_2
* cell instance $50 r0 *1 72.24,95.76
X$50 95 94 7 41 gf180mcu_fd_sc_mcu9t5v0__inv_2
* cell instance $52 r0 *1 54.32,35.28
X$52 94 15 8 95 24 gf180mcu_fd_sc_mcu9t5v0__xnor2_2
* cell instance $55 r0 *1 70.56,45.36
X$55 94 12 9 95 33 gf180mcu_fd_sc_mcu9t5v0__xnor2_2
* cell instance $57 m0 *1 54.32,55.44
X$57 95 9 26 27 24 94 gf180mcu_fd_sc_mcu9t5v0__xor3_2
* cell instance $63 r0 *1 81.76,25.2
X$63 95 14 10 16 12 94 gf180mcu_fd_sc_mcu9t5v0__dffrnq_2
* cell instance $65 m0 *1 53.76,35.28
X$65 95 14 11 16 15 94 gf180mcu_fd_sc_mcu9t5v0__dffrnq_2
* cell instance $70 r0 *1 71.68,35.28
X$70 95 14 12 16 17 94 gf180mcu_fd_sc_mcu9t5v0__dffrnq_2
* cell instance $75 r0 *1 80.08,45.36
X$75 94 41 12 95 18 gf180mcu_fd_sc_mcu9t5v0__and2_2
* cell instance $85 r0 *1 109.76,15.12
X$85 95 13 14 94 gf180mcu_fd_sc_mcu9t5v0__clkbuf_8
* cell instance $87 r0 *1 67.2,105.84
X$87 95 14 78 44 82 94 gf180mcu_fd_sc_mcu9t5v0__dffrnq_2
* cell instance $90 m0 *1 91.28,55.44
X$90 95 14 28 16 25 94 gf180mcu_fd_sc_mcu9t5v0__dffrnq_2
* cell instance $92 m0 *1 112,105.84
X$92 95 14 76 44 68 94 gf180mcu_fd_sc_mcu9t5v0__dffrnq_2
* cell instance $94 m0 *1 111.44,85.68
X$94 95 14 61 44 50 94 gf180mcu_fd_sc_mcu9t5v0__dffrnq_2
* cell instance $96 m0 *1 92.96,75.6
X$96 95 14 50 44 45 94 gf180mcu_fd_sc_mcu9t5v0__dffrnq_2
* cell instance $98 r0 *1 37.52,75.6
X$98 95 14 58 44 49 94 gf180mcu_fd_sc_mcu9t5v0__dffrnq_2
* cell instance $103 m0 *1 42.56,45.36
X$103 95 14 15 16 21 94 gf180mcu_fd_sc_mcu9t5v0__dffrnq_2
* cell instance $106 m0 *1 32.48,75.6
X$106 95 14 49 16 46 94 gf180mcu_fd_sc_mcu9t5v0__dffrnq_2
* cell instance $108 r0 *1 79.52,115.92
X$108 95 14 86 44 78 94 gf180mcu_fd_sc_mcu9t5v0__dffrnq_2
* cell instance $110 r0 *1 101.92,105.84
X$110 95 14 68 44 77 94 gf180mcu_fd_sc_mcu9t5v0__dffrnq_2
* cell instance $113 r0 *1 35.84,105.84
X$113 95 14 74 44 72 94 gf180mcu_fd_sc_mcu9t5v0__dffrnq_2
* cell instance $116 r0 *1 110.88,55.44
X$116 95 14 37 16 28 94 gf180mcu_fd_sc_mcu9t5v0__dffrnq_2
* cell instance $118 m0 *1 43.12,115.92
X$118 95 14 85 44 74 94 gf180mcu_fd_sc_mcu9t5v0__dffrnq_2
* cell instance $141 m0 *1 61.6,45.36
X$141 95 94 23 19 15 gf180mcu_fd_sc_mcu9t5v0__nor2_2
* cell instance $158 m0 *1 70.56,55.44
X$158 95 94 32 16 gf180mcu_fd_sc_mcu9t5v0__clkbuf_3
* cell instance $161 r0 *1 70.56,55.44
X$161 95 94 16 96 gf180mcu_fd_sc_mcu9t5v0__clkbuf_4
* cell instance $169 m0 *1 74.48,45.36
X$169 95 94 17 22 20 18 gf180mcu_fd_sc_mcu9t5v0__mux2_2
* cell instance $174 r0 *1 95.2,55.44
X$174 95 94 30 19 28 gf180mcu_fd_sc_mcu9t5v0__nor2_2
* cell instance $180 m0 *1 65.52,85.68
X$180 94 19 62 95 48 gf180mcu_fd_sc_mcu9t5v0__and2_2
* cell instance $182 m0 *1 59.36,105.84
X$182 95 94 71 64 19 74 gf180mcu_fd_sc_mcu9t5v0__mux2_2
* cell instance $185 m0 *1 98.56,105.84
X$185 95 94 69 67 19 68 gf180mcu_fd_sc_mcu9t5v0__mux2_2
* cell instance $195 m0 *1 94.64,146.16
X$195 95 94 89 19 gf180mcu_fd_sc_mcu9t5v0__buf_4
* cell instance $197 m0 *1 78.4,55.44
X$197 94 19 26 95 20 gf180mcu_fd_sc_mcu9t5v0__and2_2
* cell instance $200 m0 *1 85.12,115.92
X$200 94 19 80 95 83 gf180mcu_fd_sc_mcu9t5v0__and2_2
* cell instance $202 m0 *1 87.92,75.6
X$202 94 19 42 95 51 gf180mcu_fd_sc_mcu9t5v0__and2_2
* cell instance $220 r0 *1 55.44,55.44
X$220 27 95 24 94 39 gf180mcu_fd_sc_mcu9t5v0__xor2_2
* cell instance $229 r0 *1 49.28,95.76
X$229 95 27 64 65 63 94 gf180mcu_fd_sc_mcu9t5v0__xor3_2
* cell instance $231 m0 *1 42.56,105.84
X$231 94 70 74 95 27 gf180mcu_fd_sc_mcu9t5v0__xnor2_2
* cell instance $234 m0 *1 49.84,85.68
X$234 95 43 62 27 63 94 gf180mcu_fd_sc_mcu9t5v0__xor3_2
* cell instance $241 m0 *1 97.44,65.52
X$241 36 95 28 94 40 gf180mcu_fd_sc_mcu9t5v0__xor2_2
* cell instance $245 r0 *1 133.84,55.44
X$245 37 94 95 29 gf180mcu_fd_sc_mcu9t5v0__dlyb_2
* cell instance $252 m0 *1 49.28,65.52
X$252 95 49 43 31 39 94 gf180mcu_fd_sc_mcu9t5v0__xnor3_2
* cell instance $257 r0 *1 73.36,75.6
X$257 95 94 57 32 gf180mcu_fd_sc_mcu9t5v0__clkbuf_3
* cell instance $261 m0 *1 78.4,95.76
X$261 95 94 32 44 gf180mcu_fd_sc_mcu9t5v0__clkbuf_3
* cell instance $264 r0 *1 75.6,65.52
X$264 95 33 40 42 47 94 gf180mcu_fd_sc_mcu9t5v0__xnor3_2
* cell instance $266 m0 *1 71.12,65.52
X$266 95 39 34 40 33 94 gf180mcu_fd_sc_mcu9t5v0__xor3_2
* cell instance $270 m0 *1 130.48,65.52
X$270 35 94 95 36 gf180mcu_fd_sc_mcu9t5v0__dlyb_2
* cell instance $281 r0 *1 54.88,65.52
X$281 94 41 49 95 38 gf180mcu_fd_sc_mcu9t5v0__and2_2
* cell instance $283 m0 *1 51.52,75.6
X$283 95 94 46 52 48 38 gf180mcu_fd_sc_mcu9t5v0__mux2_2
* cell instance $291 r0 *1 84.56,95.76
X$291 95 65 40 67 66 94 gf180mcu_fd_sc_mcu9t5v0__xnor3_2
* cell instance $300 m0 *1 54.32,105.84
X$300 94 41 71 95 72 gf180mcu_fd_sc_mcu9t5v0__and2_2
* cell instance $310 m0 *1 92.96,85.68
X$310 94 41 50 95 55 gf180mcu_fd_sc_mcu9t5v0__and2_2
* cell instance $315 r0 *1 86.24,105.84
X$315 94 41 78 95 84 gf180mcu_fd_sc_mcu9t5v0__and2_2
* cell instance $318 r0 *1 95.76,105.84
X$318 94 41 69 95 77 gf180mcu_fd_sc_mcu9t5v0__and2_2
* cell instance $323 r0 *1 2.24,75.6
X$323 54 94 95 43 gf180mcu_fd_sc_mcu9t5v0__dlyb_2
* cell instance $325 m0 *1 65.52,75.6
X$325 95 43 47 49 53 94 gf180mcu_fd_sc_mcu9t5v0__xor3_2
* cell instance $352 r0 *1 92.4,75.6
X$352 95 94 45 56 51 55 gf180mcu_fd_sc_mcu9t5v0__mux2_2
* cell instance $378 m0 *1 86.24,95.76
X$378 94 53 50 95 66 gf180mcu_fd_sc_mcu9t5v0__xnor2_2
* cell instance $396 r0 *1 80.64,146.16
X$396 92 94 95 53 gf180mcu_fd_sc_mcu9t5v0__dlyb_2
* cell instance $416 r0 *1 26.88,75.6
X$416 58 94 95 59 gf180mcu_fd_sc_mcu9t5v0__dlyb_2
* cell instance $423 m0 *1 142.24,85.68
X$423 61 94 95 60 gf180mcu_fd_sc_mcu9t5v0__dlyb_2
* cell instance $434 m0 *1 67.2,115.92
X$434 94 75 78 95 63 gf180mcu_fd_sc_mcu9t5v0__xnor2_2
* cell instance $442 r0 *1 104.72,95.76
X$442 87 95 68 94 65 gf180mcu_fd_sc_mcu9t5v0__xor2_2
* cell instance $450 m0 *1 72.24,105.84
X$450 95 65 75 80 66 94 gf180mcu_fd_sc_mcu9t5v0__xnor3_2
* cell instance $472 m0 *1 12.32,105.84
X$472 73 94 95 70 gf180mcu_fd_sc_mcu9t5v0__dlyb_2
* cell instance $493 r0 *1 69.44,146.16
X$493 91 94 95 75 gf180mcu_fd_sc_mcu9t5v0__dlyb_2
* cell instance $500 r0 *1 137.2,105.84
X$500 76 94 95 81 gf180mcu_fd_sc_mcu9t5v0__dlyb_2
* cell instance $518 m0 *1 76.72,115.92
X$518 95 94 82 79 83 84 gf180mcu_fd_sc_mcu9t5v0__mux2_2
* cell instance $537 r0 *1 57.68,146.16
X$537 85 94 95 90 gf180mcu_fd_sc_mcu9t5v0__dlyb_2
* cell instance $540 r0 *1 92.4,146.16
X$540 86 94 95 88 gf180mcu_fd_sc_mcu9t5v0__dlyb_2
* cell instance $2124 r0 *1 101.92,146.16
X$2124 93 94 95 87 gf180mcu_fd_sc_mcu9t5v0__dlyb_2
.ENDS parameterized_crc_generator

* cell gf180mcu_fd_sc_mcu9t5v0__dlyc_2
* pin PWELL,VSS,gf180mcu_gnd
* pin Z
* pin I
* pin NWELL,VDD
.SUBCKT gf180mcu_fd_sc_mcu9t5v0__dlyc_2 1 7 11 13
* net 1 PWELL,VSS,gf180mcu_gnd
* net 7 Z
* net 11 I
* net 13 NWELL,VDD
* device instance $1 r0 *1 8.34,3.365 pmos_5p0
M$1 6 5 17 13 pmos_5p0 L=0.5U W=0.36U AS=0.27P AD=0.1584P PS=1.98U PD=1.6U
* device instance $2 r0 *1 8.34,4.085 pmos_5p0
M$2 17 5 13 13 pmos_5p0 L=0.5U W=0.36U AS=0.528P AD=0.27P PS=3.13U PD=1.98U
* device instance $3 r0 *1 10.14,3.785 pmos_5p0
M$3 7 6 13 13 pmos_5p0 L=0.5U W=3.66U AS=1.14105P AD=1.41825P PS=5.63U PD=7.04U
* device instance $5 r0 *1 4.34,3.365 pmos_5p0
M$5 4 3 14 13 pmos_5p0 L=0.5U W=0.36U AS=0.27P AD=0.1584P PS=1.98U PD=1.6U
* device instance $6 r0 *1 6.18,3.365 pmos_5p0
M$6 16 4 5 13 pmos_5p0 L=0.5U W=0.36U AS=0.1584P AD=0.27P PS=1.6U PD=1.98U
* device instance $7 r0 *1 4.34,4.085 pmos_5p0
M$7 13 3 14 13 pmos_5p0 L=0.5U W=0.36U AS=0.27P AD=0.2412P PS=1.98U PD=1.7U
* device instance $8 r0 *1 6.18,4.085 pmos_5p0
M$8 13 4 16 13 pmos_5p0 L=0.5U W=0.36U AS=0.27P AD=0.2412P PS=1.98U PD=1.7U
* device instance $9 r0 *1 2.18,3.365 pmos_5p0
M$9 15 2 3 13 pmos_5p0 L=0.5U W=0.36U AS=0.1584P AD=0.27P PS=1.6U PD=1.98U
* device instance $10 r0 *1 0.87,4.085 pmos_5p0
M$10 13 11 2 13 pmos_5p0 L=0.5U W=0.36U AS=0.1584P AD=0.1458P PS=1.6U PD=1.17U
* device instance $11 r0 *1 2.18,4.085 pmos_5p0
M$11 13 2 15 13 pmos_5p0 L=0.5U W=0.36U AS=0.27P AD=0.1458P PS=1.98U PD=1.17U
* device instance $12 r0 *1 0.92,0.795 nmos_5p0
M$12 1 11 2 1 nmos_5p0 L=0.6U W=0.36U AS=0.1584P AD=0.1278P PS=1.6U PD=1.07U
* device instance $13 r0 *1 2.23,0.795 nmos_5p0
M$13 12 2 1 1 nmos_5p0 L=0.6U W=0.36U AS=0.1278P AD=0.27P PS=1.07U PD=1.98U
* device instance $14 r0 *1 2.23,1.515 nmos_5p0
M$14 3 2 12 1 nmos_5p0 L=0.6U W=0.36U AS=0.27P AD=0.1584P PS=1.98U PD=1.6U
* device instance $15 r0 *1 4.39,0.52 nmos_5p0
M$15 1 3 8 1 nmos_5p0 L=0.6U W=0.36U AS=0.27P AD=0.2232P PS=1.98U PD=1.6U
* device instance $16 r0 *1 6.23,0.52 nmos_5p0
M$16 10 4 1 1 nmos_5p0 L=0.6U W=0.36U AS=0.2232P AD=0.27P PS=1.6U PD=1.98U
* device instance $17 r0 *1 4.39,1.24 nmos_5p0
M$17 4 3 8 1 nmos_5p0 L=0.6U W=0.36U AS=0.27P AD=0.1584P PS=1.98U PD=1.6U
* device instance $18 r0 *1 6.23,1.24 nmos_5p0
M$18 5 4 10 1 nmos_5p0 L=0.6U W=0.36U AS=0.27P AD=0.1584P PS=1.98U PD=1.6U
* device instance $19 r0 *1 8.39,0.525 nmos_5p0
M$19 1 5 9 1 nmos_5p0 L=0.6U W=0.36U AS=0.27P AD=0.408P PS=1.98U PD=2.52U
* device instance $20 r0 *1 8.39,1.245 nmos_5p0
M$20 6 5 9 1 nmos_5p0 L=0.6U W=0.36U AS=0.27P AD=0.1584P PS=1.98U PD=1.6U
* device instance $21 r0 *1 10.19,1.005 nmos_5p0
M$21 7 6 1 1 nmos_5p0 L=0.6U W=2.64U AS=0.7512P AD=0.924P PS=4.36U PD=5.36U
.ENDS gf180mcu_fd_sc_mcu9t5v0__dlyc_2

* cell gf180mcu_fd_sc_mcu9t5v0__clkbuf_8
* pin PWELL,VSS,gf180mcu_gnd
* pin I
* pin Z
* pin NWELL,VDD
.SUBCKT gf180mcu_fd_sc_mcu9t5v0__clkbuf_8 1 2 4 5
* net 1 PWELL,VSS,gf180mcu_gnd
* net 2 I
* net 4 Z
* net 5 NWELL,VDD
* device instance $1 r0 *1 0.87,3.78 pmos_5p0
M$1 3 2 5 5 pmos_5p0 L=0.5U W=7.32U AS=2.5071P AD=2.4339P PS=11.89U PD=9.98U
* device instance $5 r0 *1 5.53,3.78 pmos_5p0
M$5 4 3 5 5 pmos_5p0 L=0.5U W=14.64U AS=4.7031P AD=4.7763P PS=19.78U PD=21.69U
* device instance $13 r0 *1 0.92,1.3 nmos_5p0
M$13 3 2 1 1 nmos_5p0 L=0.6U W=2.92U AS=0.9703P AD=0.7592P PS=6.34U PD=5U
* device instance $17 r0 *1 5.58,1.265 nmos_5p0
M$17 4 3 1 1 nmos_5p0 L=0.6U W=6.4U AS=1.7255P AD=1.808P PS=10.74U PD=11.72U
.ENDS gf180mcu_fd_sc_mcu9t5v0__clkbuf_8

* cell gf180mcu_fd_sc_mcu9t5v0__aoi211_2
* pin A2
* pin A1
* pin B
* pin ZN
* pin C
* pin NWELL,VDD
* pin PWELL,VSS,gf180mcu_gnd
.SUBCKT gf180mcu_fd_sc_mcu9t5v0__aoi211_2 1 2 4 5 6 7 8
* net 1 A2
* net 2 A1
* net 4 B
* net 5 ZN
* net 6 C
* net 7 NWELL,VDD
* net 8 PWELL,VSS,gf180mcu_gnd
* device instance $1 r0 *1 0.87,3.78 pmos_5p0
M$1 5 1 3 7 pmos_5p0 L=0.5U W=3.66U AS=1.281P AD=1.3359P PS=6.89U PD=5.12U
* device instance $2 r0 *1 1.89,3.78 pmos_5p0
M$2 3 2 5 7 pmos_5p0 L=0.5U W=3.66U AS=0.9516P AD=0.9516P PS=4.7U PD=4.7U
* device instance $5 r0 *1 5.37,3.78 pmos_5p0
M$5 12 4 3 7 pmos_5p0 L=0.5U W=1.83U AS=0.8601P AD=0.2196P PS=2.77U PD=2.07U
* device instance $6 r0 *1 6.11,3.78 pmos_5p0
M$6 7 6 12 7 pmos_5p0 L=0.5U W=1.83U AS=0.2196P AD=0.549P PS=2.07U PD=2.43U
* device instance $7 r0 *1 7.21,3.78 pmos_5p0
M$7 11 6 7 7 pmos_5p0 L=0.5U W=1.83U AS=0.549P AD=0.4392P PS=2.43U PD=2.31U
* device instance $8 r0 *1 8.19,3.78 pmos_5p0
M$8 3 4 11 7 pmos_5p0 L=0.5U W=1.83U AS=0.4392P AD=0.8052P PS=2.31U PD=4.54U
* device instance $9 r0 *1 5.02,0.745 nmos_5p0
M$9 5 4 8 8 nmos_5p0 L=0.6U W=1.58U AS=0.5609P AD=0.553P PS=3.195U PD=3.77U
* device instance $10 r0 *1 6.14,0.745 nmos_5p0
M$10 8 6 5 8 nmos_5p0 L=0.6U W=1.58U AS=0.4108P AD=0.4108P PS=2.62U PD=2.62U
* device instance $13 r0 *1 0.92,0.942 nmos_5p0
M$13 10 1 8 8 nmos_5p0 L=0.6U W=1.185U AS=0.5214P AD=0.1422P PS=3.25U PD=1.425U
* device instance $14 r0 *1 1.76,0.942 nmos_5p0
M$14 5 2 10 8 nmos_5p0 L=0.6U W=1.185U AS=0.1422P AD=0.3081P PS=1.425U PD=1.705U
* device instance $15 r0 *1 2.88,0.942 nmos_5p0
M$15 9 2 5 8 nmos_5p0 L=0.6U W=1.185U AS=0.3081P AD=0.1422P PS=1.705U PD=1.425U
* device instance $16 r0 *1 3.72,0.942 nmos_5p0
M$16 8 1 9 8 nmos_5p0 L=0.6U W=1.185U AS=0.1422P AD=0.3555P PS=1.425U PD=1.885U
.ENDS gf180mcu_fd_sc_mcu9t5v0__aoi211_2

* cell gf180mcu_fd_sc_mcu9t5v0__inv_2
* pin PWELL,VSS,gf180mcu_gnd
* pin NWELL,VDD
* pin I
* pin ZN
.SUBCKT gf180mcu_fd_sc_mcu9t5v0__inv_2 1 2 3 4
* net 1 PWELL,VSS,gf180mcu_gnd
* net 2 NWELL,VDD
* net 3 I
* net 4 ZN
* device instance $1 r0 *1 0.87,3.78 pmos_5p0
M$1 4 3 2 2 pmos_5p0 L=0.5U W=3.66U AS=1.39995P AD=1.7385P PS=7.02U PD=7.39U
* device instance $3 r0 *1 0.92,1.005 nmos_5p0
M$3 4 3 1 1 nmos_5p0 L=0.6U W=2.64U AS=0.9438P AD=0.9438P PS=5.39U PD=5.39U
.ENDS gf180mcu_fd_sc_mcu9t5v0__inv_2

* cell gf180mcu_fd_sc_mcu9t5v0__xor2_2
* pin A1
* pin PWELL,VSS,gf180mcu_gnd
* pin A2
* pin NWELL,VDD
* pin Z
.SUBCKT gf180mcu_fd_sc_mcu9t5v0__xor2_2 1 2 6 7 8
* net 1 A1
* net 2 PWELL,VSS,gf180mcu_gnd
* net 6 A2
* net 7 NWELL,VDD
* net 8 Z
* device instance $1 r0 *1 0.87,3.947 pmos_5p0
M$1 3 6 7 7 pmos_5p0 L=0.5U W=0.915U AS=0.4026P AD=0.2379P PS=2.71U PD=1.435U
* device instance $2 r0 *1 1.89,3.947 pmos_5p0
M$2 3 1 7 7 pmos_5p0 L=0.5U W=0.915U AS=0.526125P AD=0.2379P PS=2.58U PD=1.435U
* device instance $3 r0 *1 3.14,3.785 pmos_5p0
M$3 5 3 7 7 pmos_5p0 L=0.5U W=1.83U AS=0.526125P AD=0.61305P PS=2.58U PD=2.5U
* device instance $4 r0 *1 4.31,3.785 pmos_5p0
M$4 10 1 5 7 pmos_5p0 L=0.5U W=1.83U AS=0.61305P AD=0.4758P PS=2.5U PD=2.35U
* device instance $5 r0 *1 5.33,3.785 pmos_5p0
M$5 7 6 10 7 pmos_5p0 L=0.5U W=1.83U AS=0.4758P AD=0.8052P PS=2.35U PD=4.54U
* device instance $6 r0 *1 7.27,3.78 pmos_5p0
M$6 8 5 7 7 pmos_5p0 L=0.5U W=3.66U AS=1.281P AD=1.281P PS=6.89U PD=6.89U
* device instance $8 r0 *1 7.22,1.005 nmos_5p0
M$8 8 5 2 2 nmos_5p0 L=0.6U W=2.64U AS=0.924P AD=0.924P PS=5.36U PD=5.36U
* device instance $10 r0 *1 0.92,1.16 nmos_5p0
M$10 9 6 3 2 nmos_5p0 L=0.6U W=0.66U AS=0.2904P AD=0.1056P PS=2.2U PD=0.98U
* device instance $11 r0 *1 1.84,1.16 nmos_5p0
M$11 9 1 2 2 nmos_5p0 L=0.6U W=0.66U AS=0.363P AD=0.1056P PS=2.02U PD=0.98U
* device instance $12 r0 *1 3.14,1.005 nmos_5p0
M$12 4 3 2 2 nmos_5p0 L=0.6U W=1.32U AS=0.363P AD=0.3432P PS=2.02U PD=1.84U
* device instance $13 r0 *1 4.26,1.005 nmos_5p0
M$13 5 1 4 2 nmos_5p0 L=0.6U W=1.32U AS=0.3432P AD=0.3432P PS=1.84U PD=1.84U
* device instance $14 r0 *1 5.38,1.005 nmos_5p0
M$14 4 6 5 2 nmos_5p0 L=0.6U W=1.32U AS=0.3432P AD=0.5808P PS=1.84U PD=3.52U
.ENDS gf180mcu_fd_sc_mcu9t5v0__xor2_2

* cell gf180mcu_fd_sc_mcu9t5v0__buf_4
* pin PWELL,VSS,gf180mcu_gnd
* pin NWELL,VDD
* pin I
* pin Z
.SUBCKT gf180mcu_fd_sc_mcu9t5v0__buf_4 1 2 3 5
* net 1 PWELL,VSS,gf180mcu_gnd
* net 2 NWELL,VDD
* net 3 I
* net 5 Z
* device instance $1 r0 *1 0.87,3.78 pmos_5p0
M$1 4 3 2 2 pmos_5p0 L=0.5U W=3.66U AS=1.3725P AD=1.1346P PS=6.99U PD=4.9U
* device instance $3 r0 *1 3.11,3.78 pmos_5p0
M$3 5 4 2 2 pmos_5p0 L=0.5U W=7.32U AS=2.2692P AD=2.5071P PS=9.8U PD=11.89U
* device instance $7 r0 *1 0.92,1.005 nmos_5p0
M$7 4 3 1 1 nmos_5p0 L=0.6U W=2.64U AS=0.924P AD=0.6864P PS=5.36U PD=3.68U
* device instance $9 r0 *1 3.16,1.005 nmos_5p0
M$9 5 4 1 1 nmos_5p0 L=0.6U W=5.28U AS=1.3728P AD=1.6104P PS=7.36U PD=9.04U
.ENDS gf180mcu_fd_sc_mcu9t5v0__buf_4

* cell gf180mcu_fd_sc_mcu9t5v0__and2_2
* pin NWELL,VDD
* pin A1
* pin A2
* pin PWELL,VSS,gf180mcu_gnd
* pin Z
.SUBCKT gf180mcu_fd_sc_mcu9t5v0__and2_2 2 3 4 5 6
* net 2 NWELL,VDD
* net 3 A1
* net 4 A2
* net 5 PWELL,VSS,gf180mcu_gnd
* net 6 Z
* device instance $1 r0 *1 0.885,3.685 pmos_5p0
M$1 1 3 2 2 pmos_5p0 L=0.5U W=1.64U AS=0.7216P AD=0.4264P PS=4.16U PD=2.16U
* device instance $2 r0 *1 1.905,3.685 pmos_5p0
M$2 2 4 1 2 pmos_5p0 L=0.5U W=1.64U AS=0.4264P AD=0.6486P PS=2.16U PD=2.57U
* device instance $3 r0 *1 3.145,3.78 pmos_5p0
M$3 6 1 2 2 pmos_5p0 L=0.5U W=3.66U AS=1.1244P AD=1.281P PS=4.92U PD=6.89U
* device instance $5 r0 *1 0.935,1.005 nmos_5p0
M$5 7 3 1 5 nmos_5p0 L=0.6U W=1.32U AS=0.5808P AD=0.2112P PS=3.52U PD=1.64U
* device instance $6 r0 *1 1.855,1.005 nmos_5p0
M$6 5 4 7 5 nmos_5p0 L=0.6U W=1.32U AS=0.2112P AD=0.3432P PS=1.64U PD=1.84U
* device instance $7 r0 *1 2.975,1.005 nmos_5p0
M$7 6 1 5 5 nmos_5p0 L=0.6U W=2.64U AS=0.6864P AD=0.924P PS=3.68U PD=5.36U
.ENDS gf180mcu_fd_sc_mcu9t5v0__and2_2

* cell gf180mcu_fd_sc_mcu9t5v0__dlyb_2
* pin I
* pin NWELL,VDD
* pin PWELL,VSS,gf180mcu_gnd
* pin Z
.SUBCKT gf180mcu_fd_sc_mcu9t5v0__dlyb_2 1 2 3 7
* net 1 I
* net 2 NWELL,VDD
* net 3 PWELL,VSS,gf180mcu_gnd
* net 7 Z
* device instance $1 r0 *1 4.34,3.365 pmos_5p0
M$1 6 4 10 2 pmos_5p0 L=0.5U W=0.36U AS=0.27P AD=0.1584P PS=1.98U PD=1.6U
* device instance $2 r0 *1 4.34,4.085 pmos_5p0
M$2 10 4 2 2 pmos_5p0 L=0.5U W=0.36U AS=0.528P AD=0.27P PS=3.13U PD=1.98U
* device instance $3 r0 *1 6.14,3.785 pmos_5p0
M$3 7 6 2 2 pmos_5p0 L=0.5U W=3.66U AS=1.14105P AD=1.41825P PS=5.63U PD=7.04U
* device instance $5 r0 *1 2.18,3.365 pmos_5p0
M$5 11 5 4 2 pmos_5p0 L=0.5U W=0.36U AS=0.1584P AD=0.27P PS=1.6U PD=1.98U
* device instance $6 r0 *1 0.87,4.085 pmos_5p0
M$6 2 1 5 2 pmos_5p0 L=0.5U W=0.36U AS=0.1584P AD=0.1458P PS=1.6U PD=1.17U
* device instance $7 r0 *1 2.18,4.085 pmos_5p0
M$7 2 5 11 2 pmos_5p0 L=0.5U W=0.36U AS=0.27P AD=0.1458P PS=1.98U PD=1.17U
* device instance $8 r0 *1 0.92,0.795 nmos_5p0
M$8 3 1 5 3 nmos_5p0 L=0.6U W=0.36U AS=0.1584P AD=0.1278P PS=1.6U PD=1.07U
* device instance $9 r0 *1 2.23,0.795 nmos_5p0
M$9 8 5 3 3 nmos_5p0 L=0.6U W=0.36U AS=0.1278P AD=0.27P PS=1.07U PD=1.98U
* device instance $10 r0 *1 2.23,1.515 nmos_5p0
M$10 4 5 8 3 nmos_5p0 L=0.6U W=0.36U AS=0.27P AD=0.1584P PS=1.98U PD=1.6U
* device instance $11 r0 *1 4.39,0.525 nmos_5p0
M$11 3 4 9 3 nmos_5p0 L=0.6U W=0.36U AS=0.27P AD=0.408P PS=1.98U PD=2.52U
* device instance $12 r0 *1 4.39,1.245 nmos_5p0
M$12 6 4 9 3 nmos_5p0 L=0.6U W=0.36U AS=0.27P AD=0.1584P PS=1.98U PD=1.6U
* device instance $13 r0 *1 6.19,1.005 nmos_5p0
M$13 7 6 3 3 nmos_5p0 L=0.6U W=2.64U AS=0.7512P AD=0.924P PS=4.36U PD=5.36U
.ENDS gf180mcu_fd_sc_mcu9t5v0__dlyb_2

* cell gf180mcu_fd_sc_mcu9t5v0__dffrnq_2
* pin PWELL,VSS,gf180mcu_gnd
* pin RN
* pin Q
* pin CLK
* pin D
* pin NWELL,VDD
.SUBCKT gf180mcu_fd_sc_mcu9t5v0__dffrnq_2 1 2 11 15 16 17
* net 1 PWELL,VSS,gf180mcu_gnd
* net 2 RN
* net 11 Q
* net 15 CLK
* net 16 D
* net 17 NWELL,VDD
* device instance $1 r0 *1 17.05,3.78 pmos_5p0
M$1 11 3 17 17 pmos_5p0 L=0.5U W=3.66U AS=1.281P AD=1.281P PS=6.89U PD=6.89U
* device instance $3 r0 *1 9.67,3.64 pmos_5p0
M$3 8 6 17 17 pmos_5p0 L=0.5U W=1U AS=0.44P AD=0.26P PS=2.88U PD=1.52U
* device instance $4 r0 *1 10.69,3.64 pmos_5p0
M$4 9 4 8 17 pmos_5p0 L=0.5U W=1U AS=0.26P AD=0.26P PS=1.52U PD=1.52U
* device instance $5 r0 *1 11.71,3.64 pmos_5p0
M$5 10 7 9 17 pmos_5p0 L=0.5U W=1U AS=0.26P AD=0.26P PS=1.52U PD=1.52U
* device instance $6 r0 *1 12.73,3.64 pmos_5p0
M$6 10 3 17 17 pmos_5p0 L=0.5U W=1U AS=0.5471P AD=0.26P PS=2.57U PD=1.52U
* device instance $7 r0 *1 13.97,3.78 pmos_5p0
M$7 3 2 17 17 pmos_5p0 L=0.5U W=1.83U AS=0.5471P AD=0.4758P PS=2.57U PD=2.35U
* device instance $8 r0 *1 14.99,3.78 pmos_5p0
M$8 17 9 3 17 pmos_5p0 L=0.5U W=1.83U AS=0.4758P AD=0.8052P PS=2.35U PD=4.54U
* device instance $9 r0 *1 3.85,3.465 pmos_5p0
M$9 5 16 17 17 pmos_5p0 L=0.5U W=1U AS=0.44P AD=0.26P PS=2.88U PD=1.52U
* device instance $10 r0 *1 4.87,3.465 pmos_5p0
M$10 6 7 5 17 pmos_5p0 L=0.5U W=1U AS=0.26P AD=0.26P PS=1.52U PD=1.52U
* device instance $11 r0 *1 5.89,3.465 pmos_5p0
M$11 18 4 6 17 pmos_5p0 L=0.5U W=1U AS=0.26P AD=0.26P PS=1.52U PD=1.52U
* device instance $12 r0 *1 6.91,3.465 pmos_5p0
M$12 17 8 18 17 pmos_5p0 L=0.5U W=1U AS=0.26P AD=0.26P PS=1.52U PD=1.52U
* device instance $13 r0 *1 7.93,3.465 pmos_5p0
M$13 18 2 17 17 pmos_5p0 L=0.5U W=1U AS=0.26P AD=0.44P PS=1.52U PD=2.88U
* device instance $14 r0 *1 0.97,3.555 pmos_5p0
M$14 17 15 4 17 pmos_5p0 L=0.5U W=1.38U AS=0.6072P AD=0.3588P PS=3.64U PD=1.9U
* device instance $15 r0 *1 1.99,3.555 pmos_5p0
M$15 7 4 17 17 pmos_5p0 L=0.5U W=1.38U AS=0.3588P AD=0.6072P PS=1.9U PD=3.64U
* device instance $16 r0 *1 0.92,1.245 nmos_5p0
M$16 1 15 4 1 nmos_5p0 L=0.6U W=0.79U AS=0.3476P AD=0.2054P PS=2.46U PD=1.31U
* device instance $17 r0 *1 2.04,1.245 nmos_5p0
M$17 7 4 1 1 nmos_5p0 L=0.6U W=0.79U AS=0.2054P AD=0.3476P PS=1.31U PD=2.46U
* device instance $18 r0 *1 17,1.04 nmos_5p0
M$18 11 3 1 1 nmos_5p0 L=0.6U W=2.5U AS=0.875P AD=0.875P PS=5.15U PD=5.15U
* device instance $20 r0 *1 3.88,1.195 nmos_5p0
M$20 5 16 1 1 nmos_5p0 L=0.6U W=0.7U AS=0.308P AD=0.182P PS=2.28U PD=1.22U
* device instance $21 r0 *1 5,1.195 nmos_5p0
M$21 6 4 5 1 nmos_5p0 L=0.6U W=0.7U AS=0.182P AD=0.182P PS=1.22U PD=1.22U
* device instance $22 r0 *1 6.12,1.195 nmos_5p0
M$22 13 7 6 1 nmos_5p0 L=0.6U W=0.7U AS=0.182P AD=0.084P PS=1.22U PD=0.94U
* device instance $23 r0 *1 6.96,1.195 nmos_5p0
M$23 12 8 13 1 nmos_5p0 L=0.6U W=0.7U AS=0.084P AD=0.147P PS=0.94U PD=1.12U
* device instance $24 r0 *1 7.98,1.195 nmos_5p0
M$24 1 2 12 1 nmos_5p0 L=0.6U W=0.7U AS=0.147P AD=0.259P PS=1.12U PD=1.44U
* device instance $25 r0 *1 9.32,1.195 nmos_5p0
M$25 8 6 1 1 nmos_5p0 L=0.6U W=0.7U AS=0.259P AD=0.1855P PS=1.44U PD=1.23U
* device instance $26 r0 *1 10.45,1.195 nmos_5p0
M$26 9 7 8 1 nmos_5p0 L=0.6U W=0.7U AS=0.1855P AD=0.182P PS=1.23U PD=1.22U
* device instance $27 r0 *1 11.57,1.195 nmos_5p0
M$27 10 4 9 1 nmos_5p0 L=0.6U W=0.7U AS=0.182P AD=0.182P PS=1.22U PD=1.22U
* device instance $28 r0 *1 12.69,1.195 nmos_5p0
M$28 1 3 10 1 nmos_5p0 L=0.6U W=0.7U AS=0.182P AD=0.182P PS=1.22U PD=1.22U
* device instance $29 r0 *1 13.81,1.195 nmos_5p0
M$29 1 2 14 1 nmos_5p0 L=0.6U W=0.7U AS=0.341P AD=0.182P PS=1.88U PD=1.22U
* device instance $30 r0 *1 15.11,0.955 nmos_5p0
M$30 3 9 14 1 nmos_5p0 L=0.6U W=1.18U AS=0.341P AD=0.5192P PS=1.88U PD=3.24U
.ENDS gf180mcu_fd_sc_mcu9t5v0__dffrnq_2

* cell gf180mcu_fd_sc_mcu9t5v0__clkbuf_4
* pin PWELL,VSS,gf180mcu_gnd
* pin NWELL,VDD
* pin I
* pin Z
.SUBCKT gf180mcu_fd_sc_mcu9t5v0__clkbuf_4 1 2 3 5
* net 1 PWELL,VSS,gf180mcu_gnd
* net 2 NWELL,VDD
* net 3 I
* net 5 Z
* device instance $1 r0 *1 0.87,3.78 pmos_5p0
M$1 4 3 2 2 pmos_5p0 L=0.5U W=3.66U AS=1.3725P AD=1.2993P PS=6.99U PD=5.08U
* device instance $3 r0 *1 3.29,3.78 pmos_5p0
M$3 5 4 2 2 pmos_5p0 L=0.5U W=7.32U AS=2.4339P AD=2.5071P PS=9.98U PD=11.89U
* device instance $7 r0 *1 0.92,1.23 nmos_5p0
M$7 4 3 1 1 nmos_5p0 L=0.6U W=1.46U AS=0.511P AD=0.4593P PS=3.59U PD=2.75U
* device instance $9 r0 *1 3.34,1.265 nmos_5p0
M$9 5 4 1 1 nmos_5p0 L=0.6U W=3.2U AS=0.8935P AD=0.976P PS=5.46U PD=6.44U
.ENDS gf180mcu_fd_sc_mcu9t5v0__clkbuf_4

* cell gf180mcu_fd_sc_mcu9t5v0__clkbuf_3
* pin PWELL,VSS,gf180mcu_gnd
* pin NWELL,VDD
* pin I
* pin Z
.SUBCKT gf180mcu_fd_sc_mcu9t5v0__clkbuf_3 1 2 3 5
* net 1 PWELL,VSS,gf180mcu_gnd
* net 2 NWELL,VDD
* net 3 I
* net 5 Z
* device instance $1 r0 *1 0.87,3.552 pmos_5p0
M$1 4 3 2 2 pmos_5p0 L=0.5U W=2.75U AS=1.03125P AD=0.97625P PS=5.625U PD=4.17U
* device instance $3 r0 *1 3.29,3.552 pmos_5p0
M$3 5 4 2 2 pmos_5p0 L=0.5U W=5.5U AS=1.82875P AD=1.88375P PS=8.16U PD=9.615U
* device instance $7 r0 *1 0.92,1.34 nmos_5p0
M$7 4 3 1 1 nmos_5p0 L=0.6U W=1.1U AS=0.385P AD=0.3455P PS=3.05U PD=2.37U
* device instance $9 r0 *1 3.34,1.365 nmos_5p0
M$9 5 4 1 1 nmos_5p0 L=0.6U W=2.4U AS=0.6705P AD=0.732P PS=4.66U PD=5.44U
.ENDS gf180mcu_fd_sc_mcu9t5v0__clkbuf_3

* cell gf180mcu_fd_sc_mcu9t5v0__mux2_2
* pin PWELL,VSS,gf180mcu_gnd
* pin NWELL,VDD
* pin Z
* pin I1
* pin S
* pin I0
.SUBCKT gf180mcu_fd_sc_mcu9t5v0__mux2_2 1 2 3 4 5 7
* net 1 PWELL,VSS,gf180mcu_gnd
* net 2 NWELL,VDD
* net 3 Z
* net 4 I1
* net 5 S
* net 7 I0
* device instance $1 r0 *1 0.92,3.78 pmos_5p0
M$1 3 6 2 2 pmos_5p0 L=0.5U W=3.66U AS=1.32675P AD=1.18035P PS=6.94U PD=4.95U
* device instance $3 r0 *1 3.21,3.78 pmos_5p0
M$3 12 4 2 2 pmos_5p0 L=0.5U W=1.83U AS=0.6588P AD=0.7137P PS=2.55U PD=2.61U
* device instance $4 r0 *1 4.49,3.78 pmos_5p0
M$4 6 8 12 2 pmos_5p0 L=0.5U W=1.83U AS=0.7137P AD=0.4758P PS=2.61U PD=2.35U
* device instance $5 r0 *1 5.51,3.78 pmos_5p0
M$5 11 5 6 2 pmos_5p0 L=0.5U W=1.83U AS=0.4758P AD=0.2196P PS=2.35U PD=2.07U
* device instance $6 r0 *1 6.25,3.78 pmos_5p0
M$6 2 7 11 2 pmos_5p0 L=0.5U W=1.83U AS=0.2196P AD=0.4758P PS=2.07U PD=2.35U
* device instance $7 r0 *1 7.27,3.78 pmos_5p0
M$7 8 5 2 2 pmos_5p0 L=0.5U W=1.83U AS=0.4758P AD=0.8052P PS=2.35U PD=4.54U
* device instance $8 r0 *1 0.92,1.005 nmos_5p0
M$8 3 6 1 1 nmos_5p0 L=0.6U W=2.64U AS=0.924P AD=0.6864P PS=5.36U PD=3.68U
* device instance $10 r0 *1 3.16,1.005 nmos_5p0
M$10 10 4 1 1 nmos_5p0 L=0.6U W=1.32U AS=0.3432P AD=0.1584P PS=1.84U PD=1.56U
* device instance $11 r0 *1 4,1.005 nmos_5p0
M$11 6 5 10 1 nmos_5p0 L=0.6U W=1.32U AS=0.1584P AD=0.3432P PS=1.56U PD=1.84U
* device instance $12 r0 *1 5.12,1.005 nmos_5p0
M$12 9 8 6 1 nmos_5p0 L=0.6U W=1.32U AS=0.3432P AD=0.3168P PS=1.84U PD=1.8U
* device instance $13 r0 *1 6.2,1.005 nmos_5p0
M$13 1 7 9 1 nmos_5p0 L=0.6U W=1.32U AS=0.3168P AD=0.3432P PS=1.8U PD=1.84U
* device instance $14 r0 *1 7.32,1.005 nmos_5p0
M$14 8 5 1 1 nmos_5p0 L=0.6U W=1.32U AS=0.3432P AD=0.5808P PS=1.84U PD=3.52U
.ENDS gf180mcu_fd_sc_mcu9t5v0__mux2_2

* cell gf180mcu_fd_sc_mcu9t5v0__xor3_2
* pin PWELL,VSS,gf180mcu_gnd
* pin A1
* pin Z
* pin A2
* pin A3
* pin NWELL,VDD
.SUBCKT gf180mcu_fd_sc_mcu9t5v0__xor3_2 1 5 8 11 12 14
* net 1 PWELL,VSS,gf180mcu_gnd
* net 5 A1
* net 8 Z
* net 11 A2
* net 12 A3
* net 14 NWELL,VDD
* device instance $1 r0 *1 7.17,3.342 pmos_5p0
M$1 6 4 14 14 pmos_5p0 L=0.5U W=0.915U AS=0.4026P AD=0.2379P PS=2.71U PD=1.435U
* device instance $2 r0 *1 8.19,3.342 pmos_5p0
M$2 6 12 14 14 pmos_5p0 L=0.5U W=0.915U AS=0.544125P AD=0.2379P PS=2.58U
+ PD=1.435U
* device instance $3 r0 *1 9.44,3.785 pmos_5p0
M$3 7 6 14 14 pmos_5p0 L=0.5U W=1.83U AS=0.544125P AD=0.61305P PS=2.58U PD=2.5U
* device instance $4 r0 *1 10.61,3.785 pmos_5p0
M$4 16 12 7 14 pmos_5p0 L=0.5U W=1.83U AS=0.61305P AD=0.4758P PS=2.5U PD=2.35U
* device instance $5 r0 *1 11.63,3.785 pmos_5p0
M$5 14 4 16 14 pmos_5p0 L=0.5U W=1.83U AS=0.4758P AD=0.8052P PS=2.35U PD=4.54U
* device instance $6 r0 *1 13.47,3.78 pmos_5p0
M$6 14 7 8 14 pmos_5p0 L=0.5U W=3.66U AS=1.3725P AD=1.3725P PS=6.99U PD=6.99U
* device instance $8 r0 *1 0.97,3.747 pmos_5p0
M$8 15 11 3 14 pmos_5p0 L=0.5U W=0.495U AS=0.2178P AD=0.141075P PS=1.87U
+ PD=1.065U
* device instance $9 r0 *1 2.04,3.747 pmos_5p0
M$9 15 5 14 14 pmos_5p0 L=0.5U W=0.495U AS=0.282P AD=0.141075P PS=1.715U
+ PD=1.065U
* device instance $10 r0 *1 3.34,3.537 pmos_5p0
M$10 13 3 14 14 pmos_5p0 L=0.5U W=0.915U AS=0.282P AD=0.260775P PS=1.715U
+ PD=1.485U
* device instance $11 r0 *1 4.41,3.537 pmos_5p0
M$11 4 5 13 14 pmos_5p0 L=0.5U W=0.915U AS=0.260775P AD=0.2379P PS=1.485U
+ PD=1.435U
* device instance $12 r0 *1 5.43,3.537 pmos_5p0
M$12 13 11 4 14 pmos_5p0 L=0.5U W=0.915U AS=0.2379P AD=0.4026P PS=1.435U
+ PD=2.71U
* device instance $13 r0 *1 13.52,1.005 nmos_5p0
M$13 1 7 8 1 nmos_5p0 L=0.6U W=2.64U AS=0.924P AD=0.924P PS=5.36U PD=5.36U
* device instance $15 r0 *1 0.92,1.015 nmos_5p0
M$15 3 11 1 1 nmos_5p0 L=0.6U W=0.36U AS=0.1584P AD=0.0936P PS=1.6U PD=0.88U
* device instance $16 r0 *1 2.04,1.015 nmos_5p0
M$16 1 5 3 1 nmos_5p0 L=0.6U W=0.36U AS=0.0936P AD=0.186P PS=0.88U PD=1.36U
* device instance $17 r0 *1 3.34,1.165 nmos_5p0
M$17 4 3 1 1 nmos_5p0 L=0.6U W=0.66U AS=0.186P AD=0.1716P PS=1.36U PD=1.18U
* device instance $18 r0 *1 4.46,1.165 nmos_5p0
M$18 9 5 4 1 nmos_5p0 L=0.6U W=0.66U AS=0.1716P AD=0.1056P PS=1.18U PD=0.98U
* device instance $19 r0 *1 5.38,1.165 nmos_5p0
M$19 1 11 9 1 nmos_5p0 L=0.6U W=0.66U AS=0.1056P AD=0.2904P PS=0.98U PD=2.2U
* device instance $20 r0 *1 7.22,1.165 nmos_5p0
M$20 10 4 6 1 nmos_5p0 L=0.6U W=0.66U AS=0.2904P AD=0.1056P PS=2.2U PD=0.98U
* device instance $21 r0 *1 8.14,1.165 nmos_5p0
M$21 10 12 1 1 nmos_5p0 L=0.6U W=0.66U AS=0.363P AD=0.1056P PS=2.02U PD=0.98U
* device instance $22 r0 *1 9.44,1.005 nmos_5p0
M$22 2 6 1 1 nmos_5p0 L=0.6U W=1.32U AS=0.363P AD=0.3432P PS=2.02U PD=1.84U
* device instance $23 r0 *1 10.56,1.005 nmos_5p0
M$23 7 12 2 1 nmos_5p0 L=0.6U W=1.32U AS=0.3432P AD=0.3432P PS=1.84U PD=1.84U
* device instance $24 r0 *1 11.68,1.005 nmos_5p0
M$24 2 4 7 1 nmos_5p0 L=0.6U W=1.32U AS=0.3432P AD=0.5808P PS=1.84U PD=3.52U
.ENDS gf180mcu_fd_sc_mcu9t5v0__xor3_2

* cell gf180mcu_fd_sc_mcu9t5v0__nor2_2
* pin PWELL,VSS,gf180mcu_gnd
* pin NWELL,VDD
* pin ZN
* pin A1
* pin A2
.SUBCKT gf180mcu_fd_sc_mcu9t5v0__nor2_2 1 2 3 4 5
* net 1 PWELL,VSS,gf180mcu_gnd
* net 2 NWELL,VDD
* net 3 ZN
* net 4 A1
* net 5 A2
* device instance $1 r0 *1 0.92,3.78 pmos_5p0