* CDL Netlist generated by OpenROAD

*.BUSDELIMITER [

.SUBCKT aes_cipher_top clk done key[0] key[100] key[101] key[102]
+ key[103] key[104] key[105] key[106] key[107] key[108] key[109]
+ key[10] key[110] key[111] key[112] key[113] key[114] key[115]
+ key[116] key[117] key[118] key[119] key[11] key[120] key[121]
+ key[122] key[123] key[124] key[125] key[126] key[127] key[12]
+ key[13] key[14] key[15] key[16] key[17] key[18] key[19] key[1]
+ key[20] key[21] key[22] key[23] key[24] key[25] key[26] key[27]
+ key[28] key[29] key[2] key[30] key[31] key[32] key[33] key[34]
+ key[35] key[36] key[37] key[38] key[39] key[3] key[40] key[41]
+ key[42] key[43] key[44] key[45] key[46] key[47] key[48] key[49]
+ key[4] key[50] key[51] key[52] key[53] key[54] key[55] key[56]
+ key[57] key[58] key[59] key[5] key[60] key[61] key[62] key[63]
+ key[64] key[65] key[66] key[67] key[68] key[69] key[6] key[70]
+ key[71] key[72] key[73] key[74] key[75] key[76] key[77] key[78]
+ key[79] key[7] key[80] key[81] key[82] key[83] key[84] key[85]
+ key[86] key[87] key[88] key[89] key[8] key[90] key[91] key[92]
+ key[93] key[94] key[95] key[96] key[97] key[98] key[99] key[9]
+ ld rst text_in[0] text_in[100] text_in[101] text_in[102] text_in[103]
+ text_in[104] text_in[105] text_in[106] text_in[107] text_in[108]
+ text_in[109] text_in[10] text_in[110] text_in[111] text_in[112]
+ text_in[113] text_in[114] text_in[115] text_in[116] text_in[117]
+ text_in[118] text_in[119] text_in[11] text_in[120] text_in[121]
+ text_in[122] text_in[123] text_in[124] text_in[125] text_in[126]
+ text_in[127] text_in[12] text_in[13] text_in[14] text_in[15]
+ text_in[16] text_in[17] text_in[18] text_in[19] text_in[1]
+ text_in[20] text_in[21] text_in[22] text_in[23] text_in[24]
+ text_in[25] text_in[26] text_in[27] text_in[28] text_in[29]
+ text_in[2] text_in[30] text_in[31] text_in[32] text_in[33]
+ text_in[34] text_in[35] text_in[36] text_in[37] text_in[38]
+ text_in[39] text_in[3] text_in[40] text_in[41] text_in[42]
+ text_in[43] text_in[44] text_in[45] text_in[46] text_in[47]
+ text_in[48] text_in[49] text_in[4] text_in[50] text_in[51]
+ text_in[52] text_in[53] text_in[54] text_in[55] text_in[56]
+ text_in[57] text_in[58] text_in[59] text_in[5] text_in[60]
+ text_in[61] text_in[62] text_in[63] text_in[64] text_in[65]
+ text_in[66] text_in[67] text_in[68] text_in[69] text_in[6]
+ text_in[70] text_in[71] text_in[72] text_in[73] text_in[74]
+ text_in[75] text_in[76] text_in[77] text_in[78] text_in[79]
+ text_in[7] text_in[80] text_in[81] text_in[82] text_in[83]
+ text_in[84] text_in[85] text_in[86] text_in[87] text_in[88]
+ text_in[89] text_in[8] text_in[90] text_in[91] text_in[92]
+ text_in[93] text_in[94] text_in[95] text_in[96] text_in[97]
+ text_in[98] text_in[99] text_in[9] text_out[0] text_out[100]
+ text_out[101] text_out[102] text_out[103] text_out[104] text_out[105]
+ text_out[106] text_out[107] text_out[108] text_out[109] text_out[10]
+ text_out[110] text_out[111] text_out[112] text_out[113] text_out[114]
+ text_out[115] text_out[116] text_out[117] text_out[118] text_out[119]
+ text_out[11] text_out[120] text_out[121] text_out[122] text_out[123]
+ text_out[124] text_out[125] text_out[126] text_out[127] text_out[12]
+ text_out[13] text_out[14] text_out[15] text_out[16] text_out[17]
+ text_out[18] text_out[19] text_out[1] text_out[20] text_out[21]
+ text_out[22] text_out[23] text_out[24] text_out[25] text_out[26]
+ text_out[27] text_out[28] text_out[29] text_out[2] text_out[30]
+ text_out[31] text_out[32] text_out[33] text_out[34] text_out[35]
+ text_out[36] text_out[37] text_out[38] text_out[39] text_out[3]
+ text_out[40] text_out[41] text_out[42] text_out[43] text_out[44]
+ text_out[45] text_out[46] text_out[47] text_out[48] text_out[49]
+ text_out[4] text_out[50] text_out[51] text_out[52] text_out[53]
+ text_out[54] text_out[55] text_out[56] text_out[57] text_out[58]
+ text_out[59] text_out[5] text_out[60] text_out[61] text_out[62]
+ text_out[63] text_out[64] text_out[65] text_out[66] text_out[67]
+ text_out[68] text_out[69] text_out[6] text_out[70] text_out[71]
+ text_out[72] text_out[73] text_out[74] text_out[75] text_out[76]
+ text_out[77] text_out[78] text_out[79] text_out[7] text_out[80]
+ text_out[81] text_out[82] text_out[83] text_out[84] text_out[85]
+ text_out[86] text_out[87] text_out[88] text_out[89] text_out[8]
+ text_out[90] text_out[91] text_out[92] text_out[93] text_out[94]
+ text_out[95] text_out[96] text_out[97] text_out[98] text_out[99]
+ text_out[9]
X_15332_ net215 _06216_ VDD VSS BUF_X32
X_15333_ _06216_ _06217_ VDD VSS INV_X8
X_15334_ _06217_ _06218_ VDD VSS BUF_X4
X_15335_ _06218_ net69 _06219_ VDD VSS NOR2_X2
X_15336_ _06217_ _06220_ VDD VSS BUF_X4
X_15337_ u0.w\[0\]\[19\] _06221_ VDD VSS CLKBUF_X3
X_15338_ u0.w\[1\]\[19\] _06222_ VDD VSS BUF_X4
X_15339_ _06221_ _06222_ _06223_ VDD VSS XNOR2_X2
X_15340_ net50 _06223_ _06224_ VDD VSS AND2_X1
X_15341_ _06216_ _06225_ VDD VSS BUF_X16
X_15342_ _06225_ _06226_ VDD VSS BUF_X16
X_15343_ net16 _06223_ _06227_ VDD VSS NOR2_X1
X_15344_ u0.w\[2\]\[19\] _06228_ VDD VSS CLKBUF_X3
X_15345_ u0.tmp_w\[19\] _06229_ VDD VSS BUF_X4
X_15346_ _06229_ u0.subword\[19\] _06230_ VDD VSS XNOR2_X1
X_15347_ _06228_ _06230_ _06231_ VDD VSS XNOR2_X1
X_15348_ _06224_ _06227_ _06231_ _06232_ VDD VSS MUX2_X2
X_15349_ _06219_ _06232_ _06233_ VDD VSS OR2_X2
X_15350_ _06233_ _06234_ VDD VSS INV_X1
X_15351_ _06234_ _06235_ VDD VSS BUF_X4
X_15352_ _06235_ _06236_ VDD VSS BUF_X4
X_15353_ _06236_ _06237_ VDD VSS BUF_X4
X_15354_ _06237_ _06238_ VDD VSS CLKBUF_X3
X_15355_ _06238_ _00390_ VDD VSS CLKBUF_X3
X_15356_ _06218_ _06239_ VDD VSS BUF_X8
X_15357_ _06239_ net65 _06240_ VDD VSS NOR2_X2
X_15358_ u0.w\[0\]\[16\] _06241_ VDD VSS BUF_X4
X_15359_ u0.w\[1\]\[16\] _06242_ VDD VSS BUF_X4
X_15360_ _06241_ _06242_ _06243_ VDD VSS XNOR2_X2
X_15361_ _06218_ _06243_ _06244_ VDD VSS AND2_X1
X_15362_ _06225_ _06245_ VDD VSS BUF_X4
X_15363_ _06245_ _06243_ _06246_ VDD VSS NOR2_X1
X_15364_ u0.w\[2\]\[16\] _06247_ VDD VSS CLKBUF_X3
Xclone524 _00961_ net1152 VDD VSS BUF_X8
X_15366_ u0.tmp_w\[16\] u0.subword\[16\] _06249_ VDD VSS XNOR2_X2
X_15367_ _06249_ _06247_ _06250_ VDD VSS XNOR2_X2
X_15368_ _06244_ _06246_ _06250_ _06251_ VDD VSS MUX2_X2
X_15369_ _06251_ _06240_ _06252_ VDD VSS NOR2_X4
X_15370_ net856 _06253_ VDD VSS INV_X4
X_15371_ _06253_ _14664_ VDD VSS BUF_X16
X_15372_ _06239_ net66 _06254_ VDD VSS NOR2_X4
X_15373_ u0.w\[0\]\[17\] _06255_ VDD VSS BUF_X2
X_15374_ u0.w\[1\]\[17\] _06256_ VDD VSS BUF_X4
X_15375_ _06255_ _06256_ _06257_ VDD VSS XNOR2_X2
X_15376_ _06220_ _06257_ _06258_ VDD VSS AND2_X1
X_15377_ _06245_ _06257_ _06259_ VDD VSS NOR2_X1
X_15378_ u0.w\[2\]\[17\] _06260_ VDD VSS CLKBUF_X3
Xrebuffer248 _06252_ net856 VDD VSS BUF_X4
X_15380_ u0.tmp_w\[17\] u0.subword\[17\] _06262_ VDD VSS XNOR2_X2
X_15381_ _06262_ _06260_ _06263_ VDD VSS XNOR2_X2
X_15382_ _06258_ _06259_ _06263_ _06264_ VDD VSS MUX2_X2
X_15383_ _06264_ _06254_ _06265_ VDD VSS NOR2_X4
X_15384_ net524 _14669_ VDD VSS INV_X4
X_15385_ _06239_ _06266_ VDD VSS BUF_X8
X_15386_ _06266_ _06267_ VDD VSS BUF_X8
X_15387_ u0.tmp_w\[21\] _06268_ VDD VSS CLKBUF_X3
X_15388_ u0.w\[0\]\[21\] _06269_ VDD VSS CLKBUF_X3
X_15389_ u0.w\[1\]\[21\] _06270_ VDD VSS BUF_X4
X_15390_ _06269_ _06270_ _06271_ VDD VSS XOR2_X2
X_15391_ u0.w\[2\]\[21\] _06272_ VDD VSS BUF_X4
X_15392_ _06272_ u0.subword\[21\] _06273_ VDD VSS XNOR2_X1
X_15393_ _06271_ _06273_ _06274_ VDD VSS XNOR2_X1
X_15394_ _06268_ _06274_ _06275_ VDD VSS XNOR2_X1
X_15395_ _06267_ _06275_ _06276_ VDD VSS NAND2_X1
X_15396_ _06276_ net72 _06267_ _06277_ VDD VSS OAI21_X4
X_15397_ _06277_ _06278_ VDD VSS INV_X4
X_15398_ _06278_ _00392_ VDD VSS BUF_X4
X_15399_ _06245_ _06279_ VDD VSS BUF_X4
X_15400_ _06279_ net71 _06280_ VDD VSS AND2_X1
X_15401_ u0.w\[0\]\[20\] _06281_ VDD VSS CLKBUF_X3
X_15402_ u0.w\[1\]\[20\] _06282_ VDD VSS BUF_X4
X_15403_ _06281_ _06282_ _06283_ VDD VSS XNOR2_X2
X_15404_ u0.w\[2\]\[20\] _06284_ VDD VSS BUF_X4
X_15405_ u0.tmp_w\[20\] _06285_ VDD VSS CLKBUF_X3
X_15406_ _06285_ u0.subword\[20\] _06286_ VDD VSS XNOR2_X1
X_15407_ _06284_ _06286_ _06287_ VDD VSS XNOR2_X1
X_15408_ _06283_ _06287_ _06288_ VDD VSS XNOR2_X2
X_15409_ _06280_ _06288_ _06239_ _06289_ VDD VSS AOI21_X4
X_15410_ _06289_ _06290_ VDD VSS INV_X2
X_15411_ _06290_ _06291_ VDD VSS BUF_X4
X_15412_ _06291_ _06292_ VDD VSS CLKBUF_X3
X_15413_ _06292_ _06293_ VDD VSS CLKBUF_X3
X_15414_ _06293_ _00391_ VDD VSS CLKBUF_X3
X_15415_ _06245_ net67 _06294_ VDD VSS NAND2_X1
X_15416_ u0.tmp_w\[18\] _06295_ VDD VSS CLKBUF_X3
X_15417_ u0.w\[0\]\[18\] _06296_ VDD VSS BUF_X8
X_15418_ u0.w\[1\]\[18\] _06297_ VDD VSS BUF_X4
X_15419_ _06296_ _06297_ _06298_ VDD VSS XOR2_X2
X_15420_ u0.w\[2\]\[18\] _06299_ VDD VSS BUF_X4
X_15421_ _00408_ _06300_ VDD VSS BUF_X1
X_15422_ _06299_ _06300_ _06301_ VDD VSS NOR2_X1
X_15423_ _06217_ _06295_ _06298_ _06301_ _06302_ VDD VSS NAND4_X1
X_15424_ _06300_ _06303_ VDD VSS INV_X1
X_15425_ _06216_ _06295_ _06304_ VDD VSS NOR2_X1
X_15426_ _06299_ _06303_ _06298_ _06304_ _06305_ VDD VSS NAND4_X1
X_15427_ _06299_ _06306_ VDD VSS INV_X2
X_15428_ _06306_ _06300_ _06298_ _06304_ _06307_ VDD VSS NAND4_X1
X_15429_ _06295_ _06308_ VDD VSS INV_X1
X_15430_ _06296_ _06297_ _06309_ VDD VSS XNOR2_X2
X_15431_ _06299_ _06300_ _06310_ VDD VSS NAND2_X1
X_15432_ _06216_ _06308_ _06309_ _06310_ _06311_ VDD VSS OR4_X2
X_15433_ _06302_ _06305_ _06307_ _06311_ _06312_ VDD VSS AND4_X4
X_15434_ _06301_ _06304_ _06313_ VDD VSS AND2_X1
X_15435_ _06225_ _06308_ _06306_ _06300_ _06314_ VDD VSS NOR4_X1
X_15436_ _06309_ _06313_ _06314_ _06315_ VDD VSS OAI21_X1
X_15437_ _06225_ _06308_ _06299_ _06303_ _06316_ VDD VSS NOR4_X1
X_15438_ _06225_ _06295_ _06310_ _06317_ VDD VSS NOR3_X1
X_15439_ _06309_ _06316_ _06317_ _06318_ VDD VSS OAI21_X1
X_15440_ _06294_ _06312_ _06315_ _06318_ _06319_ VDD VSS AND4_X4
X_15441_ _06319_ _06320_ VDD VSS BUF_X8
X_15442_ _06320_ _06321_ VDD VSS INV_X8
X_15443_ _06321_ _06322_ VDD VSS BUF_X16
X_15444_ _06322_ _06323_ VDD VSS BUF_X8
X_15445_ _06323_ _14683_ VDD VSS BUF_X8
X_15446_ _06239_ net9 _06324_ VDD VSS NOR2_X4
X_15447_ u0.w\[0\]\[0\] _06325_ VDD VSS BUF_X4
X_15448_ u0.w\[1\]\[0\] _06326_ VDD VSS BUF_X4
X_15449_ _06326_ _06325_ _06327_ VDD VSS XNOR2_X2
X_15450_ _06220_ _06327_ _06328_ VDD VSS AND2_X1
X_15451_ _06226_ _06327_ _06329_ VDD VSS NOR2_X1
X_15452_ u0.w\[2\]\[0\] _06330_ VDD VSS BUF_X4
Xclone148 net630 net629 VDD VSS BUF_X4
X_15454_ u0.subword\[0\] u0.tmp_w\[0\] _06332_ VDD VSS XNOR2_X2
X_15455_ _06332_ _06330_ _06333_ VDD VSS XNOR2_X2
X_15456_ _06328_ _06329_ _06333_ _06334_ VDD VSS MUX2_X2
X_15457_ _06334_ _06324_ _06335_ VDD VSS NOR2_X4
X_15458_ net531 _06336_ VDD VSS INV_X8
X_15459_ _06336_ _06337_ VDD VSS BUF_X16
X_15460_ _06337_ _14732_ VDD VSS BUF_X32
X_15461_ _06239_ net70 _06338_ VDD VSS NOR2_X4
X_15462_ _06226_ _06339_ VDD VSS BUF_X16
X_15463_ u0.w\[0\]\[1\] _06340_ VDD VSS BUF_X4
X_15464_ u0.w\[1\]\[1\] _06341_ VDD VSS BUF_X4
X_15465_ _06340_ _06341_ _06342_ VDD VSS XOR2_X2
X_15466_ _06339_ _06342_ _06343_ VDD VSS NOR2_X1
X_15467_ _06340_ _06341_ _06344_ VDD VSS XNOR2_X2
X_15468_ _06339_ _06344_ _06345_ VDD VSS NOR2_X1
X_15469_ u0.w\[2\]\[1\] _06346_ VDD VSS BUF_X4
X_15470_ u0.tmp_w\[1\] _06347_ VDD VSS BUF_X4
X_15471_ _06347_ u0.subword\[1\] _06348_ VDD VSS XNOR2_X1
X_15472_ _06348_ _06346_ _06349_ VDD VSS XNOR2_X1
X_15473_ _06343_ _06345_ _06349_ _06350_ VDD VSS MUX2_X2
X_15474_ _06338_ _06350_ _06351_ VDD VSS NOR2_X4
X_15475_ _06351_ _06352_ VDD VSS INV_X4
X_15476_ _06352_ _14737_ VDD VSS BUF_X8
X_15477_ _06245_ net80 _06353_ VDD VSS NAND2_X1
X_15478_ u0.tmp_w\[2\] _06354_ VDD VSS BUF_X4
X_15479_ u0.w\[0\]\[2\] _06355_ VDD VSS BUF_X4
X_15480_ u0.w\[1\]\[2\] _06356_ VDD VSS BUF_X4
X_15481_ _06355_ _06356_ _06357_ VDD VSS XOR2_X2
X_15482_ u0.w\[2\]\[2\] _06358_ VDD VSS BUF_X4
X_15483_ _00409_ _06359_ VDD VSS BUF_X2
X_15484_ _06358_ _06359_ _06360_ VDD VSS NOR2_X1
X_15485_ _06220_ _06354_ _06357_ _06360_ _06361_ VDD VSS NAND4_X1
X_15486_ _06359_ _06362_ VDD VSS INV_X1
X_15487_ _06216_ _06354_ _06363_ VDD VSS NOR2_X1
X_15488_ _06358_ _06362_ _06357_ _06363_ _06364_ VDD VSS NAND4_X1
X_15489_ _06358_ _06365_ VDD VSS INV_X1
X_15490_ _06365_ _06359_ _06357_ _06363_ _06366_ VDD VSS NAND4_X1
X_15491_ _06354_ _06367_ VDD VSS INV_X1
X_15492_ _06355_ _06356_ _06368_ VDD VSS XNOR2_X2
X_15493_ u0.w\[2\]\[2\] _06359_ _06369_ VDD VSS NAND2_X1
X_15494_ net6 _06367_ _06368_ _06369_ _06370_ VDD VSS OR4_X1
X_15495_ _06361_ _06364_ _06366_ _06370_ _06371_ VDD VSS AND4_X1
X_15496_ _06360_ _06363_ _06372_ VDD VSS AND2_X1
X_15497_ _06226_ _06367_ _06365_ _06359_ _06373_ VDD VSS NOR4_X1
X_15498_ _06368_ _06372_ _06373_ _06374_ VDD VSS OAI21_X1
X_15499_ net16 _06367_ _06358_ _06362_ _06375_ VDD VSS NOR4_X1
X_15500_ net16 _06354_ _06369_ _06376_ VDD VSS NOR3_X1
X_15501_ _06368_ _06375_ _06376_ _06377_ VDD VSS OAI21_X1
X_15502_ _06353_ _06371_ _06374_ _06377_ _06378_ VDD VSS AND4_X2
X_15503_ _06378_ _06379_ VDD VSS BUF_X4
X_15504_ _06379_ _06380_ VDD VSS INV_X4
X_15505_ _06380_ _06381_ VDD VSS BUF_X8
X_15506_ _06381_ _06382_ VDD VSS BUF_X8
X_15507_ _06382_ _06383_ VDD VSS BUF_X4
X_15508_ _06383_ _14751_ VDD VSS BUF_X4
X_15509_ _06218_ net116 _06384_ VDD VSS OR2_X1
X_15510_ _06384_ _06385_ VDD VSS BUF_X4
X_15511_ u0.w\[0\]\[3\] _06386_ VDD VSS BUF_X4
X_15512_ u0.w\[1\]\[3\] _06387_ VDD VSS BUF_X4
X_15513_ _06386_ _06387_ _06388_ VDD VSS XNOR2_X2
X_15514_ net50 _06388_ _06389_ VDD VSS NAND2_X1
X_15515_ _06386_ _06387_ _06390_ VDD VSS XOR2_X2
X_15516_ net50 _06390_ _06391_ VDD VSS NAND2_X1
X_15517_ u0.w\[2\]\[3\] _06392_ VDD VSS BUF_X4
X_15518_ u0.tmp_w\[3\] _06393_ VDD VSS CLKBUF_X3
X_15519_ _06393_ u0.subword\[3\] _06394_ VDD VSS XNOR2_X1
X_15520_ _06392_ _06394_ _06395_ VDD VSS XNOR2_X1
X_15521_ _06389_ _06391_ _06395_ _06396_ VDD VSS MUX2_X1
X_15522_ _06396_ _06397_ VDD VSS BUF_X4
X_15523_ _06385_ _06397_ _06398_ VDD VSS NAND2_X2
X_15524_ _06398_ _06399_ VDD VSS INV_X4
X_15525_ _06399_ _06400_ VDD VSS CLKBUF_X3
X_15526_ _06400_ _00400_ VDD VSS BUF_X4
X_15527_ _06279_ _06401_ VDD VSS BUF_X4
X_15528_ _06401_ net133 _06402_ VDD VSS AND2_X1
X_15529_ u0.w\[0\]\[4\] _06403_ VDD VSS CLKBUF_X3
X_15530_ u0.w\[1\]\[4\] _06404_ VDD VSS CLKBUF_X3
X_15531_ _06403_ _06404_ _06405_ VDD VSS XNOR2_X2
X_15532_ u0.w\[2\]\[4\] _06406_ VDD VSS CLKBUF_X3
X_15533_ u0.tmp_w\[4\] _06407_ VDD VSS CLKBUF_X3
X_15534_ _06407_ u0.subword\[4\] _06408_ VDD VSS XNOR2_X1
X_15535_ _06406_ _06408_ _06409_ VDD VSS XNOR2_X1
X_15536_ _06405_ _06409_ _06410_ VDD VSS XNOR2_X2
X_15537_ _06402_ _06410_ _06267_ _06411_ VDD VSS AOI21_X4
X_15538_ _06411_ _06412_ VDD VSS INV_X4
X_15539_ _06412_ _06413_ VDD VSS BUF_X4
X_15540_ _06413_ _06414_ VDD VSS BUF_X4
X_15541_ _06414_ _00401_ VDD VSS CLKBUF_X3
X_15542_ net163 _06415_ VDD VSS INV_X1
X_15543_ u0.tmp_w\[5\] _06416_ VDD VSS CLKBUF_X3
X_15544_ u0.w\[0\]\[5\] _06417_ VDD VSS CLKBUF_X3
X_15545_ u0.w\[1\]\[5\] _06418_ VDD VSS CLKBUF_X3
X_15546_ _06417_ _06418_ _06419_ VDD VSS XOR2_X2
X_15547_ u0.w\[2\]\[5\] _06420_ VDD VSS BUF_X4
X_15548_ _06420_ u0.subword\[5\] _06421_ VDD VSS XNOR2_X1
X_15549_ _06419_ _06421_ _06422_ VDD VSS XNOR2_X2
X_15550_ _06416_ _06422_ _06423_ VDD VSS XNOR2_X1
X_15551_ _06415_ _06423_ _06266_ _06424_ VDD VSS MUX2_X1
X_15552_ _06424_ _06425_ VDD VSS BUF_X4
X_15553_ _06425_ _06426_ VDD VSS INV_X2
X_15554_ _06426_ _06427_ VDD VSS CLKBUF_X3
X_15555_ _06427_ _00402_ VDD VSS CLKBUF_X3
X_15556_ _06267_ _06428_ VDD VSS BUF_X4
X_15557_ _06428_ net180 _06429_ VDD VSS NOR2_X1
X_15558_ u0.tmp_w\[6\] _06430_ VDD VSS BUF_X2
X_15559_ u0.w\[0\]\[6\] _06431_ VDD VSS CLKBUF_X3
X_15560_ u0.w\[1\]\[6\] _06432_ VDD VSS CLKBUF_X3
X_15561_ _06431_ _06432_ _06433_ VDD VSS XOR2_X2
X_15562_ u0.w\[2\]\[6\] _06434_ VDD VSS BUF_X4
X_15563_ _06434_ u0.subword\[6\] _06435_ VDD VSS XNOR2_X1
X_15564_ _06433_ _06435_ _06436_ VDD VSS XNOR2_X2
X_15565_ _06430_ _06436_ _06437_ VDD VSS XNOR2_X2
X_15566_ _06429_ _06437_ _06428_ _06438_ VDD VSS AOI21_X4
X_15567_ _06438_ _00403_ VDD VSS BUF_X4
X_15568_ u0.w\[0\]\[7\] _06439_ VDD VSS CLKBUF_X3
X_15569_ u0.w\[1\]\[7\] _06440_ VDD VSS BUF_X4
X_15570_ _06439_ _06440_ _06441_ VDD VSS XOR2_X2
X_15571_ u0.w\[2\]\[7\] _06442_ VDD VSS CLKBUF_X3
X_15572_ _06442_ u0.subword\[7\] _06443_ VDD VSS XOR2_X1
X_15573_ _06441_ _06443_ _06444_ VDD VSS XNOR2_X1
X_15574_ u0.tmp_w\[7\] _06444_ _06445_ VDD VSS XNOR2_X1
X_15575_ net192 _06445_ _06267_ _06446_ VDD VSS MUX2_X1
X_15576_ _06446_ _06447_ VDD VSS CLKBUF_X3
X_15577_ _06447_ _06448_ VDD VSS CLKBUF_X3
X_15578_ _06448_ _00404_ VDD VSS CLKBUF_X3
X_15579_ _06239_ net203 _06449_ VDD VSS NOR2_X4
X_15580_ u0.w\[0\]\[8\] _06450_ VDD VSS BUF_X4
X_15581_ u0.w\[1\]\[8\] _06451_ VDD VSS BUF_X4
X_15582_ _06450_ _06451_ _06452_ VDD VSS XOR2_X2
X_15583_ _06339_ _06452_ _06453_ VDD VSS NOR2_X1
X_15584_ _06450_ _06451_ _06454_ VDD VSS XNOR2_X2
X_15585_ _06339_ _06454_ _06455_ VDD VSS NOR2_X1
X_15586_ u0.w\[2\]\[8\] _06456_ VDD VSS BUF_X4
X_15587_ u0.tmp_w\[8\] _06457_ VDD VSS BUF_X8
X_15588_ u0.subword\[8\] _06457_ _06458_ VDD VSS XNOR2_X2
X_15589_ _06458_ _06456_ _06459_ VDD VSS XNOR2_X2
X_15590_ _06453_ _06455_ _06459_ _06460_ VDD VSS MUX2_X2
X_15591_ _06460_ _06449_ _06461_ VDD VSS NOR2_X4
X_15592_ _06461_ _06462_ VDD VSS INV_X2
X_15593_ _06462_ _06463_ VDD VSS BUF_X4
X_15594_ _06463_ _14698_ VDD VSS BUF_X8
X_15595_ _06239_ net214 _06464_ VDD VSS NOR2_X1
X_15596_ u0.w\[0\]\[9\] _06465_ VDD VSS CLKBUF_X3
X_15597_ u0.w\[1\]\[9\] _06466_ VDD VSS CLKBUF_X3
X_15598_ _06465_ _06466_ _06467_ VDD VSS XNOR2_X2
X_15599_ _06218_ _06467_ _06468_ VDD VSS AND2_X1
X_15600_ _06339_ _06467_ _06469_ VDD VSS NOR2_X1
X_15601_ u0.w\[2\]\[9\] _06470_ VDD VSS CLKBUF_X3
X_15602_ u0.tmp_w\[9\] _06471_ VDD VSS BUF_X4
X_15603_ _06471_ u0.subword\[9\] _06472_ VDD VSS XNOR2_X2
X_15604_ _06472_ _06470_ _06473_ VDD VSS XNOR2_X2
X_15605_ _06468_ _06469_ _06473_ _06474_ VDD VSS MUX2_X2
X_15606_ _06474_ _06464_ _06475_ VDD VSS NOR2_X4
X_15607_ _06475_ _06476_ VDD VSS INV_X1
X_15608_ _06476_ _06477_ VDD VSS BUF_X4
X_15609_ _06477_ _14703_ VDD VSS BUF_X4
X_15610_ _06245_ net26 _06478_ VDD VSS NAND2_X1
X_15611_ u0.tmp_w\[10\] _06479_ VDD VSS CLKBUF_X3
X_15612_ u0.w\[0\]\[10\] _06480_ VDD VSS BUF_X8
X_15613_ _06480_ _00410_ _06481_ VDD VSS XOR2_X2
X_15614_ u0.w\[2\]\[10\] _06482_ VDD VSS BUF_X4
X_15615_ u0.w\[1\]\[10\] _06483_ VDD VSS CLKBUF_X3
X_15616_ _06482_ _06483_ _06484_ VDD VSS NOR2_X1
X_15617_ _06220_ _06479_ _06481_ _06484_ _06485_ VDD VSS NAND4_X1
X_15618_ _06483_ _06486_ VDD VSS INV_X1
X_15619_ _06216_ _06479_ _06487_ VDD VSS NOR2_X1
X_15620_ _06482_ _06486_ _06481_ _06487_ _06488_ VDD VSS NAND4_X1
X_15621_ _06482_ _06489_ VDD VSS INV_X1
X_15622_ _06489_ _06483_ _06481_ _06487_ _06490_ VDD VSS NAND4_X1
X_15623_ _06479_ _06491_ VDD VSS INV_X2
X_15624_ _06480_ _00410_ _06492_ VDD VSS XNOR2_X2
X_15625_ u0.w\[2\]\[10\] u0.w\[1\]\[10\] _06493_ VDD VSS NAND2_X1
X_15626_ _06216_ _06491_ _06492_ _06493_ _06494_ VDD VSS OR4_X1
X_15627_ _06485_ _06488_ _06490_ _06494_ _06495_ VDD VSS AND4_X1
X_15628_ _06484_ _06487_ _06496_ VDD VSS AND2_X1
X_15629_ _06226_ _06491_ _06489_ _06483_ _06497_ VDD VSS NOR4_X1
X_15630_ _06492_ _06496_ _06497_ _06498_ VDD VSS OAI21_X1
X_15631_ _06226_ _06491_ _06482_ _06486_ _06499_ VDD VSS NOR4_X1
X_15632_ net16 _06479_ _06493_ _06500_ VDD VSS NOR3_X1
X_15633_ _06492_ _06499_ _06500_ _06501_ VDD VSS OAI21_X1
X_15634_ _06478_ _06495_ _06498_ _06501_ _06502_ VDD VSS AND4_X4
X_15635_ _06502_ _06503_ VDD VSS BUF_X8
X_15636_ _06503_ _06504_ VDD VSS INV_X4
X_15637_ _06504_ _06505_ VDD VSS BUF_X8
X_15638_ _06505_ _06506_ VDD VSS BUF_X4
X_15639_ _06506_ _06507_ VDD VSS BUF_X4
X_15640_ _06507_ _14717_ VDD VSS BUF_X4
X_15641_ _06218_ net46 _06508_ VDD VSS OR2_X1
X_15642_ _06508_ _06509_ VDD VSS BUF_X8
X_15643_ u0.w\[0\]\[11\] _06510_ VDD VSS CLKBUF_X3
X_15644_ u0.w\[1\]\[11\] _06511_ VDD VSS BUF_X4
X_15645_ _06510_ _06511_ _06512_ VDD VSS XNOR2_X2
X_15646_ _06217_ _06512_ _06513_ VDD VSS NAND2_X1
X_15647_ _06510_ _06511_ _06514_ VDD VSS XOR2_X2
X_15648_ _06217_ _06514_ _06515_ VDD VSS NAND2_X1
X_15649_ u0.w\[2\]\[11\] _06516_ VDD VSS BUF_X4
X_15650_ u0.tmp_w\[11\] _06517_ VDD VSS BUF_X4
X_15651_ _06517_ u0.subword\[11\] _06518_ VDD VSS XNOR2_X1
X_15652_ _06516_ _06518_ _06519_ VDD VSS XNOR2_X1
X_15653_ _06513_ _06515_ _06519_ _06520_ VDD VSS MUX2_X2
X_15654_ _06520_ _06521_ VDD VSS BUF_X8
X_15655_ _06509_ _06521_ _06522_ VDD VSS NAND2_X4
X_15656_ _06522_ _06523_ VDD VSS INV_X4
X_15657_ _06523_ _06524_ VDD VSS BUF_X4
X_15658_ _06524_ _06525_ VDD VSS CLKBUF_X3
X_15659_ _06525_ _00385_ VDD VSS CLKBUF_X3
X_15660_ _06239_ net61 _06526_ VDD VSS NOR2_X1
X_15661_ u0.w\[0\]\[12\] _06527_ VDD VSS CLKBUF_X3
X_15662_ u0.w\[1\]\[12\] _06528_ VDD VSS CLKBUF_X3
X_15663_ _06527_ _06528_ _06529_ VDD VSS XNOR2_X2
X_15664_ _06218_ _06529_ _06530_ VDD VSS AND2_X1
X_15665_ _06245_ _06529_ _06531_ VDD VSS NOR2_X1
X_15666_ u0.w\[2\]\[12\] _06532_ VDD VSS BUF_X4
X_15667_ u0.tmp_w\[12\] _06533_ VDD VSS CLKBUF_X3
X_15668_ _06533_ u0.subword\[12\] _06534_ VDD VSS XNOR2_X1
X_15669_ _06532_ _06534_ _06535_ VDD VSS XNOR2_X1
X_15670_ _06530_ _06531_ _06535_ _06536_ VDD VSS MUX2_X2
X_15671_ _06526_ _06536_ _06537_ VDD VSS OR2_X1
X_15672_ _06537_ _06538_ VDD VSS INV_X2
X_15673_ _06538_ _06539_ VDD VSS CLKBUF_X3
X_15674_ _06539_ _06540_ VDD VSS BUF_X4
X_15675_ _06540_ _00386_ VDD VSS BUF_X4
X_15676_ net62 _06541_ VDD VSS INV_X1
X_15677_ u0.w\[0\]\[13\] _06542_ VDD VSS CLKBUF_X3
X_15678_ u0.w\[1\]\[13\] _06543_ VDD VSS CLKBUF_X3
X_15679_ _06542_ _06543_ _06544_ VDD VSS XNOR2_X2
X_15680_ u0.w\[2\]\[13\] _06545_ VDD VSS BUF_X4
X_15681_ u0.tmp_w\[13\] _06546_ VDD VSS BUF_X4
X_15682_ _06546_ u0.subword\[13\] _06547_ VDD VSS XOR2_X1
X_15683_ _06545_ _06547_ _06548_ VDD VSS XNOR2_X1
X_15684_ _06544_ _06548_ _06549_ VDD VSS XNOR2_X2
X_15685_ _06541_ _06549_ _06266_ _06550_ VDD VSS MUX2_X2
X_15686_ _06550_ _06551_ VDD VSS INV_X4
X_15687_ _06551_ _06552_ VDD VSS CLKBUF_X3
X_15688_ _06552_ _00387_ VDD VSS CLKBUF_X3
X_15689_ _06428_ net63 _06553_ VDD VSS NOR2_X1
X_15690_ u0.tmp_w\[14\] _06554_ VDD VSS CLKBUF_X3
X_15691_ u0.w\[0\]\[14\] _06555_ VDD VSS BUF_X4
X_15692_ u0.w\[1\]\[14\] _06556_ VDD VSS CLKBUF_X3
X_15693_ _06555_ _06556_ _06557_ VDD VSS XOR2_X2
X_15694_ u0.w\[2\]\[14\] _06558_ VDD VSS BUF_X4
X_15695_ _06558_ u0.subword\[14\] _06559_ VDD VSS XNOR2_X1
X_15696_ _06557_ _06559_ _06560_ VDD VSS XNOR2_X1
X_15697_ _06554_ _06560_ _06561_ VDD VSS XNOR2_X1
X_15698_ _06553_ _06561_ _06428_ _06562_ VDD VSS AOI21_X2
X_15699_ _06562_ _00388_ VDD VSS BUF_X4
X_15700_ u0.tmp_w\[15\] _06563_ VDD VSS BUF_X2
X_15701_ u0.w\[0\]\[15\] _06564_ VDD VSS BUF_X2
X_15702_ u0.w\[1\]\[15\] _06565_ VDD VSS CLKBUF_X3
X_15703_ _06564_ _06565_ _06566_ VDD VSS XOR2_X2
X_15704_ u0.w\[2\]\[15\] _06567_ VDD VSS BUF_X4
X_15705_ _06567_ u0.subword\[15\] _06568_ VDD VSS XNOR2_X1
X_15706_ _06566_ _06568_ _06569_ VDD VSS XNOR2_X2
X_15707_ _06563_ _06569_ _06570_ VDD VSS XNOR2_X1
X_15708_ _06266_ _06570_ _06571_ VDD VSS NAND2_X1
X_15709_ _06571_ net64 _06267_ _06572_ VDD VSS OAI21_X4
X_15710_ _06572_ _06573_ VDD VSS INV_X4
X_15711_ _06573_ _00389_ VDD VSS BUF_X4
X_15712_ u0.tmp_w\[22\] _06574_ VDD VSS CLKBUF_X3
X_15713_ u0.w\[0\]\[22\] _06575_ VDD VSS CLKBUF_X3
X_15714_ u0.w\[1\]\[22\] _06576_ VDD VSS BUF_X4
X_15715_ _06575_ _06576_ _06577_ VDD VSS XOR2_X2
X_15716_ u0.w\[2\]\[22\] _06578_ VDD VSS BUF_X4
X_15717_ _06578_ u0.subword\[22\] _06579_ VDD VSS XNOR2_X1
X_15718_ _06577_ _06579_ _06580_ VDD VSS XNOR2_X1
X_15719_ _06574_ _06580_ _06581_ VDD VSS XNOR2_X1
X_15720_ _06428_ _06581_ _06582_ VDD VSS NAND2_X1
X_15721_ _06582_ net73 _06428_ _06583_ VDD VSS OAI21_X2
X_15722_ _06583_ _06584_ VDD VSS INV_X1
X_15723_ _06584_ _06585_ VDD VSS CLKBUF_X3
X_15724_ _06585_ _00393_ VDD VSS CLKBUF_X3
X_15725_ u0.tmp_w\[23\] _06586_ VDD VSS CLKBUF_X3
X_15726_ u0.w\[0\]\[23\] _06587_ VDD VSS CLKBUF_X3
X_15727_ u0.w\[1\]\[23\] _06588_ VDD VSS BUF_X4
X_15728_ _06587_ _06588_ _06589_ VDD VSS XOR2_X2
X_15729_ u0.w\[2\]\[23\] _06590_ VDD VSS BUF_X4
X_15730_ _06590_ u0.subword\[23\] _06591_ VDD VSS XNOR2_X1
X_15731_ _06589_ _06591_ _06592_ VDD VSS XNOR2_X2
X_15732_ _06586_ _06592_ _06593_ VDD VSS XNOR2_X1
X_15733_ _06267_ _06593_ _06594_ VDD VSS NAND2_X1
X_15734_ _06594_ net74 _06267_ _06595_ VDD VSS OAI21_X2
X_15735_ _06595_ _06596_ VDD VSS INV_X2
X_15736_ _06596_ _00394_ VDD VSS BUF_X4
X_15737_ _06279_ net75 _06597_ VDD VSS AND2_X2
X_15738_ u0.w\[0\]\[24\] _06598_ VDD VSS CLKBUF_X3
X_15739_ _06598_ u0.subword\[24\] _06599_ VDD VSS XNOR2_X2
X_15740_ _06220_ _06599_ _06600_ VDD VSS AND2_X1
X_15741_ _06245_ _06599_ _06601_ VDD VSS NOR2_X1
X_15742_ u0.tmp_w\[24\] _06602_ VDD VSS BUF_X4
X_15743_ _06602_ u0.r0.out\[24\] _06603_ VDD VSS XNOR2_X2
Xrebuffer292 _15236_ net908 VDD VSS BUF_X1
Xrebuffer290 u0.w\[1\]\[24\] net883 VDD VSS BUF_X1
X_15746_ u0.w\[2\]\[24\] u0.w\[1\]\[24\] _06606_ VDD VSS XNOR2_X2
X_15747_ _06603_ _06606_ _06607_ VDD VSS XNOR2_X2
X_15748_ _06600_ _06601_ _06607_ _06608_ VDD VSS MUX2_X2
X_15749_ _06608_ _06597_ _06609_ VDD VSS OR2_X4
Xclone276 _06597_ net742 net741 VDD VSS OR2_X2
X_15751_ _06609_ _06611_ VDD VSS INV_X16
X_15753_ _06611_ _14766_ VDD VSS BUF_X32
X_15754_ _06279_ net76 _06613_ VDD VSS NAND2_X2
X_15755_ u0.w\[0\]\[25\] _06614_ VDD VSS BUF_X4
X_15756_ _06614_ u0.subword\[25\] _06615_ VDD VSS XNOR2_X2
X_15757_ _06218_ _06615_ _06616_ VDD VSS NAND2_X1
X_15758_ _06614_ u0.subword\[25\] _06617_ VDD VSS XOR2_X2
X_15759_ _06218_ _06617_ _06618_ VDD VSS NAND2_X1
X_15760_ u0.tmp_w\[25\] _06619_ VDD VSS BUF_X4
X_15761_ _06619_ u0.r0.out\[25\] _06620_ VDD VSS XNOR2_X2
Xrebuffer273 u0.w\[2\]\[25\] net738 VDD VSS BUF_X1
Xrebuffer570 u0.w\[1\]\[25\] net1184 VDD VSS BUF_X1
X_15764_ u0.w\[2\]\[25\] u0.w\[1\]\[25\] _06623_ VDD VSS XNOR2_X2
X_15765_ _06623_ _06620_ _06624_ VDD VSS XNOR2_X2
X_15766_ _06616_ _06618_ _06624_ _06625_ VDD VSS MUX2_X2
X_15767_ _06625_ _06613_ _06626_ VDD VSS NAND2_X4
X_15768_ _06626_ _06627_ VDD VSS INV_X2
X_15769_ _06627_ _06628_ VDD VSS BUF_X8
X_15770_ _06628_ _14771_ VDD VSS BUF_X16
X_15771_ net18 net77 _06629_ VDD VSS NAND2_X2
X_15772_ u0.w\[0\]\[26\] _06630_ VDD VSS BUF_X4
X_15773_ _06630_ u0.subword\[26\] _06631_ VDD VSS XNOR2_X2
X_15774_ net50 _06631_ _06632_ VDD VSS NAND2_X1
X_15775_ _06630_ u0.subword\[26\] _06633_ VDD VSS XOR2_X2
X_15776_ net50 _06633_ _06634_ VDD VSS NAND2_X1
X_15777_ u0.tmp_w\[26\] _06635_ VDD VSS CLKBUF_X3
X_15778_ _06635_ u0.r0.out\[26\] _06636_ VDD VSS XNOR2_X1
X_15779_ u0.w\[2\]\[26\] _06637_ VDD VSS CLKBUF_X3
X_15780_ u0.w\[1\]\[26\] _06638_ VDD VSS BUF_X4
X_15781_ _06638_ _06637_ _06639_ VDD VSS XNOR2_X2
X_15782_ _06636_ _06639_ _06640_ VDD VSS XNOR2_X2
X_15783_ _06632_ _06634_ _06640_ _06641_ VDD VSS MUX2_X2
X_15784_ _06629_ _06641_ _06642_ VDD VSS NAND2_X1
X_15785_ _06642_ _06643_ VDD VSS INV_X2
X_15786_ _06643_ _06644_ VDD VSS BUF_X4
X_15787_ _06644_ _06645_ VDD VSS CLKBUF_X3
X_15788_ _06645_ _14785_ VDD VSS BUF_X4
X_15789_ key[27] _06646_ VDD VSS BUF_X2
X_15790_ net18 _06646_ _06647_ VDD VSS AND2_X4
X_15791_ _06647_ _06648_ VDD VSS BUF_X8
X_15792_ u0.w\[0\]\[27\] _06649_ VDD VSS BUF_X4
X_15793_ _06649_ u0.subword\[27\] _06650_ VDD VSS XOR2_X2
X_15794_ net6 _06650_ _06651_ VDD VSS NOR2_X1
X_15795_ _06649_ u0.subword\[27\] _06652_ VDD VSS XNOR2_X2
X_15796_ net6 _06652_ _06653_ VDD VSS NOR2_X1
X_15797_ u0.tmp_w\[27\] _06654_ VDD VSS CLKBUF_X3
X_15798_ _06654_ u0.r0.out\[27\] _06655_ VDD VSS XNOR2_X1
X_15799_ u0.w\[2\]\[27\] _06656_ VDD VSS BUF_X2
X_15800_ u0.w\[1\]\[27\] _06657_ VDD VSS CLKBUF_X3
X_15801_ _06657_ _06656_ _06658_ VDD VSS XNOR2_X2
X_15802_ _06655_ _06658_ _06659_ VDD VSS XNOR2_X2
X_15803_ _06651_ _06653_ _06659_ _06660_ VDD VSS MUX2_X1
X_15804_ _06660_ _06661_ VDD VSS BUF_X4
X_15805_ _06648_ _06661_ _06662_ VDD VSS NOR2_X4
X_15806_ _06662_ _06663_ VDD VSS INV_X4
X_15807_ _06663_ _06664_ VDD VSS BUF_X4
X_15808_ _06664_ _00395_ VDD VSS BUF_X4
X_15809_ _06401_ net78 _06665_ VDD VSS AND2_X1
X_15810_ u0.w\[0\]\[28\] _06666_ VDD VSS CLKBUF_X3
X_15811_ _06666_ u0.subword\[28\] _06667_ VDD VSS XNOR2_X2
X_15812_ _06239_ _06667_ _06668_ VDD VSS AND2_X1
X_15813_ _06279_ _06667_ _06669_ VDD VSS NOR2_X1
X_15814_ u0.tmp_w\[28\] _06670_ VDD VSS CLKBUF_X3
X_15815_ _06670_ u0.r0.out\[28\] _06671_ VDD VSS XNOR2_X1
X_15816_ u0.w\[2\]\[28\] _06672_ VDD VSS CLKBUF_X3
X_15817_ u0.w\[1\]\[28\] _06673_ VDD VSS BUF_X2
X_15818_ _06672_ _06673_ _06674_ VDD VSS XNOR2_X2
X_15819_ _06671_ _06674_ _06675_ VDD VSS XNOR2_X1
X_15820_ _06668_ _06669_ _06675_ _06676_ VDD VSS MUX2_X2
X_15821_ _06665_ _06676_ _06677_ VDD VSS NOR2_X4
X_15822_ _06677_ _06678_ VDD VSS INV_X2
X_15823_ _06678_ _06679_ VDD VSS BUF_X4
X_15824_ _06679_ _06680_ VDD VSS BUF_X4
X_15825_ _06680_ _06681_ VDD VSS BUF_X4
X_15826_ _06681_ _00396_ VDD VSS CLKBUF_X3
X_15827_ _06279_ net79 _06682_ VDD VSS AND2_X1
X_15828_ u0.w\[0\]\[29\] _06683_ VDD VSS CLKBUF_X3
X_15829_ _06683_ u0.subword\[29\] _06684_ VDD VSS XOR2_X2
X_15830_ u0.tmp_w\[29\] _06685_ VDD VSS CLKBUF_X3
X_15831_ _06685_ u0.r0.out\[29\] _06686_ VDD VSS XNOR2_X1
X_15832_ u0.w\[2\]\[29\] _06687_ VDD VSS CLKBUF_X3
X_15833_ u0.w\[1\]\[29\] _06688_ VDD VSS CLKBUF_X3
X_15834_ _06687_ _06688_ _06689_ VDD VSS XNOR2_X2
X_15835_ _06686_ _06689_ _06690_ VDD VSS XNOR2_X1
X_15836_ _06684_ _06690_ _06691_ VDD VSS XNOR2_X2
X_15837_ _06682_ _06691_ _06266_ _06692_ VDD VSS AOI21_X4
X_15838_ _06692_ _06693_ VDD VSS INV_X1
X_15839_ _06693_ _06694_ VDD VSS BUF_X4
X_15840_ _06694_ _06695_ VDD VSS CLKBUF_X3
X_15841_ _06695_ _00397_ VDD VSS CLKBUF_X3
X_15842_ u0.w\[2\]\[30\] _06696_ VDD VSS CLKBUF_X3
X_15843_ u0.w\[1\]\[30\] _06697_ VDD VSS CLKBUF_X3
X_15844_ _06696_ _06697_ _06698_ VDD VSS XOR2_X2
X_15845_ u0.tmp_w\[30\] _06699_ VDD VSS BUF_X2
X_15846_ _06699_ u0.r0.out\[30\] _06700_ VDD VSS XNOR2_X1
X_15847_ u0.w\[0\]\[30\] _06701_ VDD VSS CLKBUF_X3
X_15848_ _06701_ u0.subword\[30\] _06702_ VDD VSS XNOR2_X2
X_15849_ _06700_ _06702_ _06703_ VDD VSS XNOR2_X1
X_15850_ _06698_ _06703_ _06704_ VDD VSS XNOR2_X1
X_15851_ net81 _06704_ _06428_ _06705_ VDD VSS MUX2_X1
X_15852_ _06705_ _00398_ VDD VSS CLKBUF_X3