
* cell alu
* pin b[1]
* pin b[3]
* pin b[0]
* pin b[2]
* pin b[4]
* pin a[4]
* pin a[5]
* pin b[5]
* pin a[0]
* pin a[1]
* pin b[6]
* pin a[6]
* pin a[3]
* pin a[2]
* pin a[7]
* pin overflow_flag
* pin zero_flag
* pin result[5]
* pin clk
* pin rst_n
* pin op_code[2]
* pin op_code[1]
* pin result[0]
* pin op_code[0]
* pin result[1]
* pin result[2]
* pin b[7]
* pin result[6]
* pin result[3]
* pin result[4]
* pin result[7]
* pin NWELL
* pin PWELL,gf180mcu_gnd
.SUBCKT alu 1 2 5 7 50 68 69 83 110 159 179 185 186 197 249 299 311 312 337 342
+ 343 344 345 346 347 348 349 350 351 352 353 354 355
* net 1 b[1]
* net 2 b[3]
* net 5 b[0]
* net 7 b[2]
* net 50 b[4]
* net 68 a[4]
* net 69 a[5]
* net 83 b[5]
* net 110 a[0]
* net 159 a[1]
* net 179 b[6]
* net 185 a[6]
* net 186 a[3]
* net 197 a[2]
* net 249 a[7]
* net 299 overflow_flag
* net 311 zero_flag
* net 312 result[5]
* net 337 clk
* net 342 rst_n
* net 343 op_code[2]
* net 344 op_code[1]
* net 345 result[0]
* net 346 op_code[0]
* net 347 result[1]
* net 348 result[2]
* net 349 b[7]
* net 350 result[6]
* net 351 result[3]
* net 352 result[4]
* net 353 result[7]
* net 354 NWELL
* net 355 PWELL,gf180mcu_gnd
* cell instance $2 m0 *1 473.2,15.12
X$2 355 354 1 4 gf180mcu_fd_sc_mcu9t5v0__buf_4
* cell instance $6 r0 *1 585.76,5.04
X$6 2 354 355 3 gf180mcu_fd_sc_mcu9t5v0__buf_3
* cell instance $10 r0 *1 570.08,509.04
X$10 355 18 366 8 3 354 gf180mcu_fd_sc_mcu9t5v0__addh_2
* cell instance $14 m0 *1 575.68,509.04
X$14 355 354 3 10 gf180mcu_fd_sc_mcu9t5v0__clkinv_2
* cell instance $17 m0 *1 509.6,529.2
X$17 355 45 363 9 4 354 gf180mcu_fd_sc_mcu9t5v0__addh_2
* cell instance $20 r0 *1 469.28,519.12
X$20 355 4 56 354 gf180mcu_fd_sc_mcu9t5v0__clkbuf_8
* cell instance $22 m0 *1 462,529.2
X$22 355 354 4 41 gf180mcu_fd_sc_mcu9t5v0__clkinv_2
* cell instance $25 m0 *1 505.68,519.12
X$25 355 12 85 4 14 28 354 gf180mcu_fd_sc_mcu9t5v0__addf_2
* cell instance $27 r0 *1 513.52,509.04
X$27 355 9 15 4 13 16 354 gf180mcu_fd_sc_mcu9t5v0__addf_2
* cell instance $35 m0 *1 2.8,488.88
X$35 355 354 5 6 gf180mcu_fd_sc_mcu9t5v0__buf_4
* cell instance $38 m0 *1 482.16,519.12
X$38 355 13 361 25 6 354 gf180mcu_fd_sc_mcu9t5v0__addh_2
* cell instance $40 r0 *1 487.76,519.12
X$40 355 14 367 26 6 354 gf180mcu_fd_sc_mcu9t5v0__addh_2
* cell instance $45 m0 *1 416.64,529.2
X$45 355 6 52 354 gf180mcu_fd_sc_mcu9t5v0__clkbuf_12
* cell instance $52 m0 *1 2.8,498.96
X$52 355 354 7 11 gf180mcu_fd_sc_mcu9t5v0__buf_4
* cell instance $55 m0 *1 417.2,569.52
X$55 355 180 71 46 128 52 161 8 354 gf180mcu_fd_sc_mcu9t5v0__mux4_2
* cell instance $57 m0 *1 453.6,559.44
X$57 355 354 112 8 52 57 gf180mcu_fd_sc_mcu9t5v0__mux2_2
* cell instance $60 r0 *1 455.28,539.28
X$60 355 86 56 9 8 52 57 46 354 gf180mcu_fd_sc_mcu9t5v0__mux4_2
* cell instance $62 m0 *1 464.8,539.28
X$62 355 67 53 25 9 56 8 46 354 gf180mcu_fd_sc_mcu9t5v0__mux4_2
* cell instance $64 m0 *1 426.16,599.76
X$64 355 257 71 161 8 53 46 128 354 gf180mcu_fd_sc_mcu9t5v0__mux4_2
* cell instance $66 r0 *1 427.28,599.76
X$66 9 355 53 8 354 250 gf180mcu_fd_sc_mcu9t5v0__or3_2
* cell instance $71 m0 *1 574,519.12
X$71 355 36 357 8 10 354 gf180mcu_fd_sc_mcu9t5v0__addh_2
* cell instance $73 r0 *1 474.32,539.28
X$73 355 354 72 46 53 8 gf180mcu_fd_sc_mcu9t5v0__mux2_2
* cell instance $75 m0 *1 2.24,579.6
X$75 355 186 8 354 gf180mcu_fd_sc_mcu9t5v0__clkbuf_8
* cell instance $77 r0 *1 554.4,509.04
X$77 355 354 8 39 gf180mcu_fd_sc_mcu9t5v0__clkinv_2
* cell instance $80 m0 *1 427.28,559.44
X$80 355 354 111 57 52 8 gf180mcu_fd_sc_mcu9t5v0__mux2_2
* cell instance $93 m0 *1 497.84,529.2
X$93 355 27 362 9 42 354 gf180mcu_fd_sc_mcu9t5v0__addh_2
* cell instance $95 m0 *1 449.12,549.36
X$95 355 87 71 70 9 52 25 57 354 gf180mcu_fd_sc_mcu9t5v0__mux4_2
* cell instance $101 m0 *1 445.2,599.76
X$101 355 354 230 9 53 46 gf180mcu_fd_sc_mcu9t5v0__mux2_2
* cell instance $107 r0 *1 482.72,539.28
X$107 355 354 73 25 53 9 gf180mcu_fd_sc_mcu9t5v0__mux2_2
* cell instance $110 r0 *1 16.8,569.52
X$110 355 159 9 354 gf180mcu_fd_sc_mcu9t5v0__clkbuf_8
* cell instance $112 r0 *1 505.12,519.12
X$112 355 354 9 12 gf180mcu_fd_sc_mcu9t5v0__clkinv_2
* cell instance $115 m0 *1 420,589.68
X$115 355 46 354 209 53 9 gf180mcu_fd_sc_mcu9t5v0__aoi21_2
* cell instance $130 r0 *1 550.48,519.12
X$130 355 21 39 10 80 354 gf180mcu_fd_sc_mcu9t5v0__addh_4
* cell instance $136 m0 *1 443.52,539.28
X$136 355 371 46 11 19 354 gf180mcu_fd_sc_mcu9t5v0__addh_4
* cell instance $138 m0 *1 435.68,559.44
X$138 355 354 11 126 gf180mcu_fd_sc_mcu9t5v0__clkinv_4
* cell instance $140 m0 *1 426.16,549.36
X$140 355 354 11 71 gf180mcu_fd_sc_mcu9t5v0__buf_4
* cell instance $147 r0 *1 500.64,529.2
X$147 355 43 44 12 42 354 gf180mcu_fd_sc_mcu9t5v0__addh_2
* cell instance $152 m0 *1 505.12,539.28
X$152 355 79 44 13 45 19 354 gf180mcu_fd_sc_mcu9t5v0__aoi211_4
* cell instance $155 m0 *1 486.64,609.84
X$155 355 354 269 252 74 13 gf180mcu_fd_sc_mcu9t5v0__mux2_2
* cell instance $157 r0 *1 522.48,589.68
X$157 226 354 355 13 19 235 gf180mcu_fd_sc_mcu9t5v0__nor3_2
* cell instance $168 m0 *1 521.36,529.2
X$168 355 354 31 44 14 gf180mcu_fd_sc_mcu9t5v0__nor2_2
* cell instance $173 m0 *1 516.32,579.6
X$173 355 354 208 15 75 gf180mcu_fd_sc_mcu9t5v0__nor2_2
* cell instance $176 r0 *1 504.56,569.52
X$176 136 125 134 15 354 355 170 gf180mcu_fd_sc_mcu9t5v0__or4_2
* cell instance $180 m0 *1 540.96,519.12
X$180 355 23 16 354 29 21 gf180mcu_fd_sc_mcu9t5v0__nand3_2
* cell instance $184 r0 *1 532.56,509.04
X$184 354 16 29 355 17 gf180mcu_fd_sc_mcu9t5v0__xnor2_2
* cell instance $189 m0 *1 538.16,579.6
X$189 354 175 17 355 187 gf180mcu_fd_sc_mcu9t5v0__and2_2
* cell instance $193 m0 *1 554.4,519.12
X$193 355 18 354 20 21 19 gf180mcu_fd_sc_mcu9t5v0__aoi21_2
* cell instance $195 r0 *1 556.08,549.36
X$195 355 354 18 76 gf180mcu_fd_sc_mcu9t5v0__clkinv_2
* cell instance $197 r0 *1 566.72,569.52
X$197 355 213 103 145 174 18 354 gf180mcu_fd_sc_mcu9t5v0__nor4_4
* cell instance $203 r0 *1 549.36,539.28
X$203 354 21 355 19 78 29 gf180mcu_fd_sc_mcu9t5v0__oai21_2
* cell instance $207 m0 *1 556.08,539.28
X$207 355 354 77 29 19 gf180mcu_fd_sc_mcu9t5v0__nor2_2
* cell instance $213 m0 *1 526.96,549.36
X$213 355 354 19 96 gf180mcu_fd_sc_mcu9t5v0__clkinv_2
* cell instance $225 m0 *1 557.2,529.2
X$225 35 354 23 20 355 48 gf180mcu_fd_sc_mcu9t5v0__and3_2
* cell instance $227 r0 *1 556.64,529.2
X$227 355 35 354 49 20 23 gf180mcu_fd_sc_mcu9t5v0__aoi21_2
* cell instance $234 r0 *1 537.04,519.12
X$234 355 21 354 37 40 32 gf180mcu_fd_sc_mcu9t5v0__aoi21_2
* cell instance $237 m0 *1 565.04,539.28
X$237 355 354 21 58 gf180mcu_fd_sc_mcu9t5v0__clkinv_2
* cell instance $241 r0 *1 544.88,519.12
X$241 355 354 33 29 21 gf180mcu_fd_sc_mcu9t5v0__nor2_2
* cell instance $243 m0 *1 540.4,549.36
X$243 354 21 47 355 98 gf180mcu_fd_sc_mcu9t5v0__xnor2_2
* cell instance $246 m0 *1 534.24,559.44
X$246 355 114 354 123 153 21 138 gf180mcu_fd_sc_mcu9t5v0__aoi22_2
* cell instance $248 m0 *1 519.12,549.36
X$248 75 29 21 44 354 355 95 gf180mcu_fd_sc_mcu9t5v0__or4_2
* cell instance $257 m0 *1 563.92,519.12
X$257 354 35 22 355 34 gf180mcu_fd_sc_mcu9t5v0__xnor2_2
* cell instance $260 r0 *1 571.76,519.12
X$260 355 354 22 36 37 gf180mcu_fd_sc_mcu9t5v0__nor2_2
* cell instance $270 m0 *1 526.96,529.2
X$270 355 354 29 24 gf180mcu_fd_sc_mcu9t5v0__clkinv_2
* cell instance $272 m0 *1 521.92,579.6
X$272 355 134 354 201 24 136 gf180mcu_fd_sc_mcu9t5v0__aoi21_2
* cell instance $274 m0 *1 530.88,519.12
X$274 354 24 355 31 54 27 gf180mcu_fd_sc_mcu9t5v0__oai21_2
* cell instance $278 r0 *1 420,589.68
X$278 25 355 163 46 354 221 gf180mcu_fd_sc_mcu9t5v0__or3_2
* cell instance $284 m0 *1 493.92,519.12
X$284 355 354 25 26 gf180mcu_fd_sc_mcu9t5v0__clkinv_2
* cell instance $287 m0 *1 3.36,559.44
X$287 355 354 110 25 gf180mcu_fd_sc_mcu9t5v0__buf_4
* cell instance $292 r0 *1 438.48,589.68
X$292 355 229 370 25 163 354 gf180mcu_fd_sc_mcu9t5v0__addh_2
* cell instance $306 r0 *1 487.76,579.6
X$306 355 200 75 26 163 354 gf180mcu_fd_sc_mcu9t5v0__addh_2
* cell instance $311 m0 *1 538.72,529.2
X$311 355 61 31 27 33 35 354 gf180mcu_fd_sc_mcu9t5v0__oai211_4
* cell instance $316 r0 *1 520.8,519.12
X$316 354 29 28 355 30 gf180mcu_fd_sc_mcu9t5v0__xnor2_2
* cell instance $319 r0 *1 530.88,519.12
X$319 355 29 28 354 40 gf180mcu_fd_sc_mcu9t5v0__or2_2
* cell instance $333 r0 *1 511.84,539.28
X$333 355 29 84 55 94 354 gf180mcu_fd_sc_mcu9t5v0__addh_4
* cell instance $346 r0 *1 519.12,559.44
X$346 354 138 355 93 30 156 139 gf180mcu_fd_sc_mcu9t5v0__oai22_2
* cell instance $348 r0 *1 527.52,549.36
X$348 355 99 116 85 97 354 30 gf180mcu_fd_sc_mcu9t5v0__nand4_2
* cell instance $360 m0 *1 535.36,529.2
X$360 355 354 38 32 gf180mcu_fd_sc_mcu9t5v0__clkinv_2
* cell instance $363 r0 *1 537.6,529.2
X$363 354 32 54 355 47 gf180mcu_fd_sc_mcu9t5v0__and2_2
* cell instance $370 r0 *1 545.44,589.68
X$370 355 113 354 258 225 116 237 34 gf180mcu_fd_sc_mcu9t5v0__aoi221_2
* cell instance $374 r0 *1 559.44,549.36
X$374 101 34 100 99 354 355 107 gf180mcu_fd_sc_mcu9t5v0__or4_2
* cell instance $379 m0 *1 575.12,529.2
X$379 354 37 216 36 119 35 355 gf180mcu_fd_sc_mcu9t5v0__oai211_2
* cell instance $383 r0 *1 569.52,529.2
X$383 355 354 59 35 gf180mcu_fd_sc_mcu9t5v0__clkinv_3
* cell instance $397 m0 *1 564.48,529.2
X$397 355 36 354 60 38 58 gf180mcu_fd_sc_mcu9t5v0__aoi21_2
* cell instance $406 r0 *1 512.4,529.2
X$406 355 38 369 46 55 354 gf180mcu_fd_sc_mcu9t5v0__addh_2
* cell instance $420 m0 *1 446.88,569.52
X$420 355 354 162 183 41 112 gf180mcu_fd_sc_mcu9t5v0__mux2_2
* cell instance $423 r0 *1 451.36,529.2
X$423 355 354 41 42 gf180mcu_fd_sc_mcu9t5v0__buf_4
* cell instance $426 r0 *1 456.96,569.52
X$426 355 41 354 166 161 163 gf180mcu_fd_sc_mcu9t5v0__aoi21_2
* cell instance $432 r0 *1 461.44,609.84
X$432 354 266 355 267 279 42 gf180mcu_fd_sc_mcu9t5v0__oai21_2
* cell instance $434 m0 *1 474.32,589.68
X$434 355 354 198 149 42 233 gf180mcu_fd_sc_mcu9t5v0__mux2_2
* cell instance $436 m0 *1 462.56,599.76
X$436 355 354 231 230 42 229 gf180mcu_fd_sc_mcu9t5v0__mux2_2
* cell instance $440 r0 *1 464.8,589.68
X$440 355 354 42 232 224 gf180mcu_fd_sc_mcu9t5v0__nand2_2
* cell instance $442 r0 *1 452.48,599.76
X$442 355 354 42 266 257 gf180mcu_fd_sc_mcu9t5v0__nand2_2
* cell instance $444 m0 *1 455.28,569.52
X$444 355 354 42 164 180 gf180mcu_fd_sc_mcu9t5v0__nand2_2
* cell instance $446 r0 *1 457.52,599.76
X$446 355 354 42 265 251 gf180mcu_fd_sc_mcu9t5v0__nand2_2
* cell instance $448 r0 *1 502.32,589.68
X$448 354 42 55 355 168 gf180mcu_fd_sc_mcu9t5v0__and2_2
* cell instance $450 r0 *1 469.84,579.6
X$450 355 354 42 199 126 gf180mcu_fd_sc_mcu9t5v0__nand2_2
* cell instance $468 r0 *1 504.56,559.44
X$468 355 157 354 158 43 134 gf180mcu_fd_sc_mcu9t5v0__aoi21_2
* cell instance $471 m0 *1 522.48,559.44
X$471 43 94 80 81 355 354 115 gf180mcu_fd_sc_mcu9t5v0__and4_2
* cell instance $480 r0 *1 508.48,549.36
X$480 355 114 354 89 90 44 137 gf180mcu_fd_sc_mcu9t5v0__aoi22_2
* cell instance $488 m0 *1 513.52,549.36
X$488 355 354 92 74 45 gf180mcu_fd_sc_mcu9t5v0__nor2_2
* cell instance $494 r0 *1 23.52,579.6
X$494 355 197 46 354 gf180mcu_fd_sc_mcu9t5v0__clkbuf_8
* cell instance $506 r0 *1 508.48,539.28
X$506 355 354 46 84 gf180mcu_fd_sc_mcu9t5v0__clkinv_2
* cell instance $526 m0 *1 551.6,549.36
X$526 354 58 47 355 100 gf180mcu_fd_sc_mcu9t5v0__xnor2_2
* cell instance $533 r0 *1 563.92,529.2
X$533 355 49 48 354 51 gf180mcu_fd_sc_mcu9t5v0__or2_2
* cell instance $537 m0 *1 600.32,589.68
X$537 354 355 49 203 190 145 256 118 gf180mcu_fd_sc_mcu9t5v0__oai221_2
* cell instance $541 r0 *1 598.08,589.68
X$541 190 355 49 203 354 244 gf180mcu_fd_sc_mcu9t5v0__or3_2
* cell instance $546 m0 *1 1058.4,539.28
X$546 50 354 355 82 gf180mcu_fd_sc_mcu9t5v0__buf_3
* cell instance $551 r0 *1 553.84,579.6
X$551 355 220 142 208 187 354 51 gf180mcu_fd_sc_mcu9t5v0__nand4_2
* cell instance $553 m0 *1 553.28,599.76
X$553 355 237 354 288 51 175 gf180mcu_fd_sc_mcu9t5v0__aoi21_2
* cell instance $560 r0 *1 448.56,559.44
X$560 355 354 183 70 52 128 gf180mcu_fd_sc_mcu9t5v0__mux2_2
* cell instance $565 r0 *1 456.96,559.44
X$565 355 354 149 70 52 57 gf180mcu_fd_sc_mcu9t5v0__mux2_2
* cell instance $570 r0 *1 423.36,529.2
X$570 355 52 53 354 gf180mcu_fd_sc_mcu9t5v0__clkbuf_16
* cell instance $575 m0 *1 438.48,569.52
X$575 355 354 160 128 52 70 gf180mcu_fd_sc_mcu9t5v0__mux2_2
* cell instance $588 m0 *1 483.28,599.76
X$588 355 354 233 161 53 128 gf180mcu_fd_sc_mcu9t5v0__mux2_2
* cell instance $598 m0 *1 432.32,579.6
X$598 355 354 53 163 gf180mcu_fd_sc_mcu9t5v0__clkinv_4
* cell instance $600 m0 *1 500.08,609.84
X$600 74 53 270 199 354 355 260 gf180mcu_fd_sc_mcu9t5v0__or4_2
* cell instance $617 r0 *1 459.76,549.36
X$617 354 55 355 86 150 67 gf180mcu_fd_sc_mcu9t5v0__oai21_2
* cell instance $622 m0 *1 497.28,589.68
X$622 355 207 55 354 169 198 gf180mcu_fd_sc_mcu9t5v0__nand3_2
* cell instance $625 r0 *1 456.4,589.68
X$625 355 354 224 112 55 229 gf180mcu_fd_sc_mcu9t5v0__mux2_2
* cell instance $627 m0 *1 482.72,589.68
X$627 355 354 211 67 55 198 gf180mcu_fd_sc_mcu9t5v0__mux2_2
* cell instance $629 m0 *1 494.48,559.44
X$629 55 354 113 109 355 133 gf180mcu_fd_sc_mcu9t5v0__and3_2
* cell instance $633 m0 *1 469.28,549.36
X$633 354 55 72 355 88 gf180mcu_fd_sc_mcu9t5v0__and2_2
* cell instance $635 r0 *1 465.36,559.44
X$635 355 354 126 55 gf180mcu_fd_sc_mcu9t5v0__buf_4
* cell instance $638 r0 *1 514.64,589.68
X$638 136 134 55 231 355 354 202 gf180mcu_fd_sc_mcu9t5v0__and4_2
* cell instance $643 m0 *1 523.6,569.52
X$643 355 354 55 181 169 gf180mcu_fd_sc_mcu9t5v0__nand2_2
* cell instance $658 r0 *1 431.2,559.44
X$658 354 147 355 129 182 56 127 gf180mcu_fd_sc_mcu9t5v0__oai31_2
* cell instance $660 r0 *1 428.96,569.52
X$660 355 147 56 354 126 160 gf180mcu_fd_sc_mcu9t5v0__nand3_2
* cell instance $662 r0 *1 449.12,569.52
X$662 355 354 152 56 160 gf180mcu_fd_sc_mcu9t5v0__nor2_2
* cell instance $664 m0 *1 465.92,569.52
X$664 355 151 56 354 126 149 gf180mcu_fd_sc_mcu9t5v0__nand3_2
* cell instance $666 r0 *1 467.6,549.36
X$666 355 354 91 88 56 87 gf180mcu_fd_sc_mcu9t5v0__mux2_2
* cell instance $668 m0 *1 474.88,549.36
X$668 355 354 109 73 56 72 gf180mcu_fd_sc_mcu9t5v0__mux2_2
* cell instance $672 m0 *1 418.32,599.76
X$672 354 247 355 209 210 56 gf180mcu_fd_sc_mcu9t5v0__oai21_2
* cell instance $674 m0 *1 460.88,589.68
X$674 355 204 56 354 126 230 gf180mcu_fd_sc_mcu9t5v0__nand3_2
* cell instance $691 m0 *1 587.44,549.36
X$691 355 103 358 57 82 354 gf180mcu_fd_sc_mcu9t5v0__addh_2
* cell instance $697 m0 *1 603.12,539.28
X$697 355 64 359 57 65 354 gf180mcu_fd_sc_mcu9t5v0__addh_2
* cell instance $699 r0 *1 3.36,539.28
X$699 355 354 68 57 gf180mcu_fd_sc_mcu9t5v0__buf_4
* cell instance $702 r0 *1 585.76,539.28
X$702 355 354 57 62 gf180mcu_fd_sc_mcu9t5v0__clkinv_2
* cell instance $714 m0 *1 561.12,549.36
X$714 354 58 355 77 102 79 gf180mcu_fd_sc_mcu9t5v0__oai21_2
* cell instance $722 m0 *1 567.28,599.76
X$722 59 118 190 254 354 355 241 gf180mcu_fd_sc_mcu9t5v0__or4_2
* cell instance $724 m0 *1 568.4,539.28
X$724 354 60 66 59 61 63 355 gf180mcu_fd_sc_mcu9t5v0__oai211_2
* cell instance $728 m0 *1 577.92,539.28
X$728 355 59 62 65 81 354 gf180mcu_fd_sc_mcu9t5v0__addh_4
* cell instance $730 m0 *1 584.08,589.68
X$730 354 355 203 59 190 145 219 118 gf180mcu_fd_sc_mcu9t5v0__oai221_2
* cell instance $732 r0 *1 560.56,589.68
X$732 355 114 354 214 223 59 138 gf180mcu_fd_sc_mcu9t5v0__aoi22_2
* cell instance $734 m0 *1 569.52,549.36
X$734 355 217 60 59 61 106 354 gf180mcu_fd_sc_mcu9t5v0__oai211_4
* cell instance $736 m0 *1 571.2,559.44
X$736 355 103 354 143 108 59 gf180mcu_fd_sc_mcu9t5v0__aoi21_2
* cell instance $758 r0 *1 593.6,539.28
X$758 355 354 64 63 gf180mcu_fd_sc_mcu9t5v0__clkinv_2
* cell instance $765 r0 *1 599.2,549.36
X$765 106 354 355 104 64 177 gf180mcu_fd_sc_mcu9t5v0__nor3_2
* cell instance $767 m0 *1 591.92,559.44
X$767 355 104 354 121 119 64 gf180mcu_fd_sc_mcu9t5v0__aoi21_2
* cell instance $774 r0 *1 600.32,539.28
X$774 355 354 82 65 gf180mcu_fd_sc_mcu9t5v0__clkinv_2
* cell instance $779 r0 *1 576.24,549.36
X$779 354 118 66 355 101 gf180mcu_fd_sc_mcu9t5v0__xnor2_2
* cell instance $794 m0 *1 3.36,549.36
X$794 355 354 69 70 gf180mcu_fd_sc_mcu9t5v0__buf_4
* cell instance $804 r0 *1 607.04,549.36
X$804 355 104 365 70 105 354 gf180mcu_fd_sc_mcu9t5v0__addh_2
* cell instance $807 r0 *1 608.72,559.44
X$807 355 145 364 70 146 354 gf180mcu_fd_sc_mcu9t5v0__addh_2
* cell instance $809 m0 *1 603.12,559.44
X$809 355 354 70 120 gf180mcu_fd_sc_mcu9t5v0__clkinv_2
* cell instance $819 r0 *1 425.6,559.44
X$819 355 354 127 71 111 gf180mcu_fd_sc_mcu9t5v0__nor2_2
* cell instance $821 r0 *1 451.92,609.84
X$821 354 222 277 71 278 265 355 gf180mcu_fd_sc_mcu9t5v0__oai211_2
* cell instance $823 m0 *1 454.72,609.84
X$823 355 354 268 231 71 162 gf180mcu_fd_sc_mcu9t5v0__mux2_2
* cell instance $825 m0 *1 453.6,599.76
X$825 355 354 251 230 71 112 gf180mcu_fd_sc_mcu9t5v0__mux2_2
* cell instance $827 r0 *1 476,549.36
X$827 355 354 132 71 86 gf180mcu_fd_sc_mcu9t5v0__nor2_2
* cell instance $829 r0 *1 476,559.44
X$829 131 71 132 155 154 354 355 gf180mcu_fd_sc_mcu9t5v0__aoi211_2
* cell instance $831 m0 *1 478.8,619.92
X$831 71 229 318 280 303 354 355 gf180mcu_fd_sc_mcu9t5v0__aoi211_2
* cell instance $858 m0 *1 492.8,569.52
X$858 168 354 73 113 355 184 gf180mcu_fd_sc_mcu9t5v0__and3_2
* cell instance $865 r0 *1 519.12,549.36
X$865 355 354 93 94 74 96 gf180mcu_fd_sc_mcu9t5v0__mux2_2
* cell instance $869 r0 *1 492.8,559.44
X$869 114 355 138 74 354 154 gf180mcu_fd_sc_mcu9t5v0__or3_2
* cell instance $874 m0 *1 506.8,549.36
X$874 355 354 74 89 85 gf180mcu_fd_sc_mcu9t5v0__nand2_2
* cell instance $877 r0 *1 494.48,630
X$877 354 303 74 355 319 gf180mcu_fd_sc_mcu9t5v0__and2_2
* cell instance $880 r0 *1 533.68,589.68
X$880 355 354 74 141 234 gf180mcu_fd_sc_mcu9t5v0__nand2_2
* cell instance $882 r0 *1 510.72,630
X$882 355 354 74 134 gf180mcu_fd_sc_mcu9t5v0__buf_4
* cell instance $885 r0 *1 515.2,640.08
X$885 355 354 321 74 gf180mcu_fd_sc_mcu9t5v0__buf_4
* cell instance $887 m0 *1 525.84,599.76
X$887 74 115 234 263 355 354 236 gf180mcu_fd_sc_mcu9t5v0__and4_2
* cell instance $906 r0 *1 485.52,619.92
X$906 355 304 114 211 169 314 284 75 354 gf180mcu_fd_sc_mcu9t5v0__aoi222_2
* cell instance $908 m0 *1 488.32,619.92
X$908 355 354 284 269 125 75 gf180mcu_fd_sc_mcu9t5v0__mux2_2
* cell instance $912 m0 *1 530.32,549.36
X$912 355 354 75 97 gf180mcu_fd_sc_mcu9t5v0__clkinv_2
* cell instance $918 r0 *1 557.2,539.28
X$918 354 76 355 78 108 79 gf180mcu_fd_sc_mcu9t5v0__oai21_2
* cell instance $920 r0 *1 551.04,559.44
X$920 355 354 125 123 76 gf180mcu_fd_sc_mcu9t5v0__nand2_2
* cell instance $929 m0 *1 561.12,559.44
X$929 355 79 78 354 117 gf180mcu_fd_sc_mcu9t5v0__or2_2
* cell instance $946 r0 *1 532.56,559.44
X$946 354 134 355 153 141 124 80 gf180mcu_fd_sc_mcu9t5v0__oai22_2
* cell instance $954 m0 *1 543.2,589.68
X$954 354 355 223 134 207 81 225 141 gf180mcu_fd_sc_mcu9t5v0__oai221_2
* cell instance $969 r0 *1 1066.8,549.36
X$969 355 354 83 146 gf180mcu_fd_sc_mcu9t5v0__clkbuf_3
* cell instance $991 r0 *1 463.12,599.76
X$991 355 354 87 267 gf180mcu_fd_sc_mcu9t5v0__clkinv_2
* cell instance $1002 m0 *1 509.04,559.44
X$1002 355 354 135 125 90 gf180mcu_fd_sc_mcu9t5v0__nor2_2
* cell instance $1006 m0 *1 543.2,559.44
X$1006 355 113 354 91 140 116 122 101 gf180mcu_fd_sc_mcu9t5v0__aoi221_2
* cell instance $1009 r0 *1 511.84,559.44
X$1009 136 355 138 92 354 157 gf180mcu_fd_sc_mcu9t5v0__or3_2
* cell instance $1013 m0 *1 531.44,589.68
X$1013 213 234 226 92 355 354 212 gf180mcu_fd_sc_mcu9t5v0__and4_2
* cell instance $1024 r0 *1 524.16,599.76
X$1024 355 241 95 354 264 gf180mcu_fd_sc_mcu9t5v0__or2_2
* cell instance $1036 r0 *1 546.56,569.52
X$1036 136 355 98 139 354 196 gf180mcu_fd_sc_mcu9t5v0__or3_2
* cell instance $1050 r0 *1 562.24,559.44
X$1050 355 354 117 142 102 gf180mcu_fd_sc_mcu9t5v0__nand2_2
* cell instance $1054 m0 *1 560.56,589.68
X$1054 355 188 103 354 214 gf180mcu_fd_sc_mcu9t5v0__or2_2
* cell instance $1056 r0 *1 587.44,579.6
X$1056 355 103 145 354 203 gf180mcu_fd_sc_mcu9t5v0__or2_2
* cell instance $1068 r0 *1 597.52,559.44
X$1068 355 354 178 119 104 gf180mcu_fd_sc_mcu9t5v0__nor2_2
* cell instance $1074 r0 *1 620.48,559.44
X$1074 355 354 146 105 gf180mcu_fd_sc_mcu9t5v0__clkinv_2
* cell instance $1077 m0 *1 606.48,559.44
X$1077 355 118 120 105 172 354 gf180mcu_fd_sc_mcu9t5v0__addh_4
* cell instance $1086 r0 *1 567.28,609.84
X$1086 354 300 296 107 242 259 355 gf180mcu_fd_sc_mcu9t5v0__oai211_2
* cell instance $1112 r0 *1 505.12,619.92
X$1112 355 354 318 125 113 gf180mcu_fd_sc_mcu9t5v0__nor2_4
* cell instance $1117 r0 *1 514.64,609.84
X$1117 355 276 113 137 275 282 268 125 354 gf180mcu_fd_sc_mcu9t5v0__aoi222_2
* cell instance $1119 r0 *1 541.52,619.92
X$1119 355 113 354 279 324 281 317 125 gf180mcu_fd_sc_mcu9t5v0__aoi221_2
* cell instance $1127 r0 *1 554.4,630
X$1127 354 114 355 235 326 138 gf180mcu_fd_sc_mcu9t5v0__oai21_2
* cell instance $1129 r0 *1 520.24,569.52
X$1129 355 114 354 156 228 165 169 gf180mcu_fd_sc_mcu9t5v0__aoi22_2
* cell instance $1135 r0 *1 539.84,609.84
X$1135 355 354 114 273 134 gf180mcu_fd_sc_mcu9t5v0__nand2_2
* cell instance $1139 r0 *1 528.64,609.84
X$1139 354 114 355 260 273 281 274 gf180mcu_fd_sc_mcu9t5v0__oai22_2
* cell instance $1141 r0 *1 525.28,630
X$1141 355 354 305 114 gf180mcu_fd_sc_mcu9t5v0__buf_4
* cell instance $1144 m0 *1 558.32,569.52
X$1144 355 114 354 173 148 118 138 gf180mcu_fd_sc_mcu9t5v0__aoi22_2
* cell instance $1165 m0 *1 562.24,619.92
X$1165 354 116 355 293 302 292 gf180mcu_fd_sc_mcu9t5v0__oai21_2
* cell instance $1169 r0 *1 570.08,630
X$1169 354 116 355 291 327 289 gf180mcu_fd_sc_mcu9t5v0__oai21_2
* cell instance $1171 m0 *1 535.92,630
X$1171 355 354 139 136 116 gf180mcu_fd_sc_mcu9t5v0__nor2_4
* cell instance $1173 r0 *1 570.08,619.92
X$1173 355 354 254 315 116 gf180mcu_fd_sc_mcu9t5v0__nand2_2
* cell instance $1184 m0 *1 566.16,589.68
X$1184 355 117 354 213 215 219 240 gf180mcu_fd_sc_mcu9t5v0__aoi22_2
* cell instance $1189 r0 *1 594.16,579.6
X$1189 145 355 118 190 354 218 gf180mcu_fd_sc_mcu9t5v0__or3_2
* cell instance $1195 m0 *1 581.84,559.44
X$1195 355 354 118 119 gf180mcu_fd_sc_mcu9t5v0__inv_2
* cell instance $1199 m0 *1 571.2,579.6
X$1199 354 118 143 355 206 gf180mcu_fd_sc_mcu9t5v0__xnor2_2
* cell instance $1217 r0 *1 580.72,559.44
X$1217 354 119 143 355 144 gf180mcu_fd_sc_mcu9t5v0__xnor2_2
* cell instance $1223 m0 *1 573.44,609.84
X$1223 355 243 354 292 121 216 gf180mcu_fd_sc_mcu9t5v0__aoi21_2
* cell instance $1225 r0 *1 575.68,599.76
X$1225 243 354 216 121 355 293 gf180mcu_fd_sc_mcu9t5v0__and3_2
* cell instance $1232 m0 *1 584.64,569.52
X$1232 355 122 354 176 144 175 gf180mcu_fd_sc_mcu9t5v0__aoi21_2
* cell instance $1240 m0 *1 498.96,569.52
X$1240 129 169 133 194 124 354 355 gf180mcu_fd_sc_mcu9t5v0__aoi211_2
* cell instance $1244 m0 *1 548.8,609.84
X$1244 354 136 355 262 243 275 125 gf180mcu_fd_sc_mcu9t5v0__oai22_2
* cell instance $1246 r0 *1 550.48,599.76
X$1246 354 125 240 355 262 gf180mcu_fd_sc_mcu9t5v0__and2_2
* cell instance $1249 m0 *1 543.76,619.92
X$1249 355 287 238 354 134 136 125 gf180mcu_fd_sc_mcu9t5v0__nor4_2
* cell instance $1256 m0 *1 484.96,630
X$1256 355 354 303 125 gf180mcu_fd_sc_mcu9t5v0__buf_4
* cell instance $1282 r0 *1 436.24,569.52
X$1282 355 126 354 182 161 163 gf180mcu_fd_sc_mcu9t5v0__aoi21_2
* cell instance $1298 r0 *1 481.04,569.52
X$1298 355 161 354 167 128 163 gf180mcu_fd_sc_mcu9t5v0__aoi21_2
* cell instance $1300 r0 *1 610.4,589.68
X$1300 355 354 128 246 gf180mcu_fd_sc_mcu9t5v0__clkinv_2
* cell instance $1302 m0 *1 16.8,579.6
X$1302 355 185 128 354 gf180mcu_fd_sc_mcu9t5v0__clkbuf_8
* cell instance $1305 r0 *1 609.84,569.52
X$1305 177 355 354 128 193 gf180mcu_fd_sc_mcu9t5v0__addh_1
* cell instance $1307 r0 *1 588,569.52
X$1307 355 174 368 128 191 354 gf180mcu_fd_sc_mcu9t5v0__addh_2
* cell instance $1321 r0 *1 476,579.6
X$1321 198 205 129 130 354 355 283 gf180mcu_fd_sc_mcu9t5v0__or4_2
* cell instance $1330 m0 *1 473.2,569.52
X$1330 355 130 150 354 151 164 gf180mcu_fd_sc_mcu9t5v0__nand3_2
* cell instance $1334 m0 *1 538.16,569.52
X$1334 355 148 134 181 131 172 141 140 354 gf180mcu_fd_sc_mcu9t5v0__oai222_2
* cell instance $1336 r0 *1 475.44,569.52
X$1336 355 166 152 354 131 gf180mcu_fd_sc_mcu9t5v0__or2_2
* cell instance $1354 r0 *1 546,630
X$1354 355 134 354 324 325 326 gf180mcu_fd_sc_mcu9t5v0__aoi21_2
* cell instance $1368 m0 *1 508.48,569.52
X$1368 135 184 158 155 354 355 171 gf180mcu_fd_sc_mcu9t5v0__or4_2
* cell instance $1371 r0 *1 505.68,599.76
X$1371 355 253 168 137 136 354 233 gf180mcu_fd_sc_mcu9t5v0__nand4_2
* cell instance $1382 r0 *1 502.88,630
X$1382 355 354 323 136 gf180mcu_fd_sc_mcu9t5v0__buf_4
* cell instance $1384 m0 *1 507.92,619.92
X$1384 355 354 136 271 316 gf180mcu_fd_sc_mcu9t5v0__nand2_2
* cell instance $1406 m0 *1 511.84,630
X$1406 355 354 321 137 gf180mcu_fd_sc_mcu9t5v0__clkinv_3
* cell instance $1408 m0 *1 516.32,630
X$1408 137 303 323 355 354 169 gf180mcu_fd_sc_mcu9t5v0__and3_4
* cell instance $1414 r0 *1 523.6,579.6
X$1414 354 138 355 201 227 202 gf180mcu_fd_sc_mcu9t5v0__oai21_2
* cell instance $1417 m0 *1 496.72,619.92
X$1417 355 354 285 301 138 264 gf180mcu_fd_sc_mcu9t5v0__mux2_2
* cell instance $1422 r0 *1 535.92,630
X$1422 355 354 188 138 gf180mcu_fd_sc_mcu9t5v0__buf_4
* cell instance $1427 m0 *1 548.24,630
X$1427 355 354 138 325 254 gf180mcu_fd_sc_mcu9t5v0__nand2_2
* cell instance $1445 m0 *1 530.88,630
X$1445 355 354 188 139 321 gf180mcu_fd_sc_mcu9t5v0__nand2_2
* cell instance $1466 m0 *1 549.92,579.6
X$1466 355 194 354 196 261 142 175 gf180mcu_fd_sc_mcu9t5v0__aoi22_2
* cell instance $1481 m0 *1 558.88,579.6
X$1481 355 188 145 354 173 gf180mcu_fd_sc_mcu9t5v0__or2_2
* cell instance $1523 r0 *1 469.84,569.52
X$1523 355 354 151 165 164 gf180mcu_fd_sc_mcu9t5v0__nand2_2
* cell instance $1529 m0 *1 473.76,579.6
X$1529 354 355 166 152 169 199 205 167 gf180mcu_fd_sc_mcu9t5v0__oai221_2
* cell instance $1569 m0 *1 8.96,599.76
X$1569 355 249 161 354 gf180mcu_fd_sc_mcu9t5v0__clkbuf_8
* cell instance $1575 m0 *1 588.56,630
X$1575 161 354 217 192 355 322 gf180mcu_fd_sc_mcu9t5v0__and3_2
* cell instance $1578 r0 *1 504.56,609.84
X$1578 355 354 161 270 gf180mcu_fd_sc_mcu9t5v0__clkinv_2
* cell instance $1582 m0 *1 548.8,640.08
X$1582 355 235 360 161 328 354 gf180mcu_fd_sc_mcu9t5v0__addh_2
* cell instance $1584 r0 *1 582.96,619.92
X$1584 355 161 354 294 192 217 gf180mcu_fd_sc_mcu9t5v0__aoi21_2
* cell instance $1600 r0 *1 426.72,589.68
X$1600 250 221 210 222 162 354 355 gf180mcu_fd_sc_mcu9t5v0__aoi211_2
* cell instance $1648 r0 *1 489.44,609.84
X$1648 355 354 229 301 168 gf180mcu_fd_sc_mcu9t5v0__nand2_2
* cell instance $1674 r0 *1 512.4,569.52
X$1674 354 170 171 355 195 gf180mcu_fd_sc_mcu9t5v0__and2_2
* cell instance $1679 r0 *1 529.76,599.76
X$1679 200 172 245 274 355 354 263 gf180mcu_fd_sc_mcu9t5v0__and4_2
* cell instance $1691 r0 *1 577.36,579.6
X$1691 355 354 174 240 gf180mcu_fd_sc_mcu9t5v0__clkinv_2
* cell instance $1694 m0 *1 567.84,630
X$1694 355 327 354 317 330 175 290 gf180mcu_fd_sc_mcu9t5v0__aoi22_2
* cell instance $1698 m0 *1 584.64,619.92
X$1698 254 354 175 255 355 295 gf180mcu_fd_sc_mcu9t5v0__and3_2
* cell instance $1700 m0 *1 560.56,630
X$1700 354 235 175 355 307 gf180mcu_fd_sc_mcu9t5v0__and2_2
* cell instance $1703 m0 *1 525.84,640.08
X$1703 354 314 305 175 355 gf180mcu_fd_sc_mcu9t5v0__and2_4
* cell instance $1716 m0 *1 603.12,619.92
X$1716 355 309 298 308 176 354 gf180mcu_fd_sc_mcu9t5v0__dffrnq_2
* cell instance $1724 r0 *1 599.76,569.52
X$1724 355 354 177 189 gf180mcu_fd_sc_mcu9t5v0__clkinv_2
* cell instance $1727 m0 *1 600.88,579.6
X$1727 354 189 355 178 192 190 gf180mcu_fd_sc_mcu9t5v0__oai21_2
* cell instance $1730 m0 *1 1053.92,569.52
X$1730 355 354 179 191 gf180mcu_fd_sc_mcu9t5v0__clkbuf_3
* cell instance $1756 m0 *1 524.16,589.68
X$1756 355 187 354 272 228 227 gf180mcu_fd_sc_mcu9t5v0__aoi21_2
* cell instance $1764 m0 *1 527.52,630
X$1764 355 354 303 188 gf180mcu_fd_sc_mcu9t5v0__clkinv_2
* cell instance $1776 m0 *1 605.36,599.76
X$1776 355 245 190 246 193 354 gf180mcu_fd_sc_mcu9t5v0__addh_2
* cell instance $1783 m0 *1 575.12,599.76
X$1783 355 354 190 243 gf180mcu_fd_sc_mcu9t5v0__clkinv_2
* cell instance $1796 r0 *1 606.48,569.52
X$1796 355 354 191 193 gf180mcu_fd_sc_mcu9t5v0__clkinv_2
* cell instance $1803 r0 *1 576.8,619.92
X$1803 254 354 217 192 355 289 gf180mcu_fd_sc_mcu9t5v0__and3_2
* cell instance $1806 m0 *1 581.28,630
X$1806 355 254 354 291 192 217 gf180mcu_fd_sc_mcu9t5v0__aoi21_2
* cell instance $1826 m0 *1 520.24,670.32
X$1826 355 309 338 329 195 354 gf180mcu_fd_sc_mcu9t5v0__dffrnq_2
* cell instance $1850 r0 *1 490,599.76
X$1850 355 354 200 252 gf180mcu_fd_sc_mcu9t5v0__clkinv_2
* cell instance $1867 m0 *1 463.12,609.84
X$1867 266 267 204 280 355 354 278 gf180mcu_fd_sc_mcu9t5v0__and4_2
* cell instance $1869 r0 *1 466.48,599.76
X$1869 355 354 204 258 232 gf180mcu_fd_sc_mcu9t5v0__nand2_2
* cell instance $1879 r0 *1 569.52,589.68
X$1879 238 239 220 206 354 355 242 gf180mcu_fd_sc_mcu9t5v0__or4_2
* cell instance $1901 m0 *1 533.12,599.76
X$1901 355 354 248 236 212 gf180mcu_fd_sc_mcu9t5v0__nor2_2
* cell instance $1913 m0 *1 563.92,609.84
X$1913 354 254 215 355 290 gf180mcu_fd_sc_mcu9t5v0__xnor2_2
* cell instance $1915 r0 *1 565.6,599.76
X$1915 254 355 215 354 239 gf180mcu_fd_sc_mcu9t5v0__xor2_2
* cell instance $1933 r0 *1 599.2,599.76
X$1933 256 354 244 218 355 238 gf180mcu_fd_sc_mcu9t5v0__and3_2
* cell instance $1977 r0 *1 435.12,599.76
X$1977 355 354 229 247 gf180mcu_fd_sc_mcu9t5v0__clkinv_2
* cell instance $2006 r0 *1 524.72,619.92
X$2006 354 305 303 355 234 gf180mcu_fd_sc_mcu9t5v0__and2_2
* cell instance $2039 r0 *1 585.2,599.76
X$2039 355 354 240 255 256 gf180mcu_fd_sc_mcu9t5v0__nand2_2
* cell instance $2062 m0 *1 529.76,609.84
X$2062 354 253 355 273 282 245 gf180mcu_fd_sc_mcu9t5v0__oai21_2
* cell instance $2076 m0 *1 507.92,609.84
X$2076 277 283 271 248 355 354 259 gf180mcu_fd_sc_mcu9t5v0__and4_2
* cell instance $2095 m0 *1 532,619.92
X$2095 355 274 254 270 286 354 gf180mcu_fd_sc_mcu9t5v0__addh_2
* cell instance $2139 m0 *1 551.6,670.32
X$2139 355 309 340 329 261 354 gf180mcu_fd_sc_mcu9t5v0__dffrnq_2
* cell instance $2152 m0 *1 500.64,630