* CDL Netlist generated by OpenROAD

*.BUSDELIMITER [

.SUBCKT alu a[0] a[1] a[2] a[3] a[4] a[5] a[6] a[7] b[0] b[1]
+ b[2] b[3] b[4] b[5] b[6] b[7] clk op_code[0] op_code[1] op_code[2]
+ overflow_flag result[0] result[1] result[2] result[3] result[4]
+ result[5] result[6] result[7] rst_n zero_flag
X_304_ _268_ _209_ VDD VSS gf180mcu_fd_sc_mcu9t5v0__clkinv_2
X_305_ _209_ _261_ _269_ _210_ VDD VSS gf180mcu_fd_sc_mcu9t5v0__aoi21_2
X_306_ _242_ _239_ _211_ VDD VSS gf180mcu_fd_sc_mcu9t5v0__nor2_2
X_307_ _260_ _268_ _212_ VDD VSS gf180mcu_fd_sc_mcu9t5v0__nor2_2
X_308_ _276_ _213_ VDD VSS gf180mcu_fd_sc_mcu9t5v0__clkinv_3
X_309_ _253_ _211_ _212_ _213_ _214_ VDD VSS gf180mcu_fd_sc_mcu9t5v0__oai211_4
X_310_ _277_ _215_ VDD VSS gf180mcu_fd_sc_mcu9t5v0__clkinv_2
X_311_ _276_ _210_ _214_ _215_ _216_ VDD VSS gf180mcu_fd_sc_mcu9t5v0__oai211_2
X_312_ _284_ _216_ _217_ VDD VSS gf180mcu_fd_sc_mcu9t5v0__xnor2_2
X_313_ _261_ _218_ VDD VSS gf180mcu_fd_sc_mcu9t5v0__clkinv_2
X_314_ _260_ _240_ _219_ VDD VSS gf180mcu_fd_sc_mcu9t5v0__or2_2
X_315_ _218_ _219_ _268_ _220_ VDD VSS gf180mcu_fd_sc_mcu9t5v0__aoi21_2
X_316_ _269_ _220_ _221_ VDD VSS gf180mcu_fd_sc_mcu9t5v0__nor2_2
X_317_ _213_ _221_ _222_ VDD VSS gf180mcu_fd_sc_mcu9t5v0__xnor2_2
X_318_ _260_ _223_ VDD VSS gf180mcu_fd_sc_mcu9t5v0__clkinv_2
X_319_ _253_ _211_ _223_ _224_ VDD VSS gf180mcu_fd_sc_mcu9t5v0__oai21_2
X_320_ _218_ _224_ _225_ VDD VSS gf180mcu_fd_sc_mcu9t5v0__and2_2
X_321_ _209_ _225_ _226_ VDD VSS gf180mcu_fd_sc_mcu9t5v0__xnor2_2
X_322_ _246_ _001_ VDD VSS gf180mcu_fd_sc_mcu9t5v0__clkinv_2
X_323_ net20 _002_ VDD VSS gf180mcu_fd_sc_mcu9t5v0__buf_4
X_324_ net19 _003_ VDD VSS gf180mcu_fd_sc_mcu9t5v0__clkinv_2
X_325_ _003_ net18 _004_ VDD VSS gf180mcu_fd_sc_mcu9t5v0__nand2_2
X_326_ _002_ _004_ _005_ VDD VSS gf180mcu_fd_sc_mcu9t5v0__nor2_4
X_327_ _260_ _240_ _006_ VDD VSS gf180mcu_fd_sc_mcu9t5v0__xnor2_2
X_328_ _001_ _241_ _005_ _006_ _007_ VDD VSS gf180mcu_fd_sc_mcu9t5v0__nand4_2
X_329_ _217_ _222_ _226_ _007_ _008_ VDD VSS gf180mcu_fd_sc_mcu9t5v0__or4_2
X_330_ _277_ _285_ _293_ _009_ VDD VSS gf180mcu_fd_sc_mcu9t5v0__nor3_2
X_331_ _276_ _210_ _214_ _009_ _010_ VDD VSS gf180mcu_fd_sc_mcu9t5v0__oai211_4
X_332_ _284_ _011_ VDD VSS gf180mcu_fd_sc_mcu9t5v0__inv_2
X_333_ _011_ _285_ _012_ VDD VSS gf180mcu_fd_sc_mcu9t5v0__nor2_2
X_334_ _293_ _013_ VDD VSS gf180mcu_fd_sc_mcu9t5v0__clkinv_2
X_335_ _292_ _012_ _013_ _014_ VDD VSS gf180mcu_fd_sc_mcu9t5v0__oai21_2
X_336_ _300_ _010_ _014_ _015_ VDD VSS gf180mcu_fd_sc_mcu9t5v0__and3_2
X_337_ _010_ _014_ _300_ _016_ VDD VSS gf180mcu_fd_sc_mcu9t5v0__aoi21_2
X_338_ _269_ _220_ _011_ _213_ _017_ VDD VSS gf180mcu_fd_sc_mcu9t5v0__oai211_2
X_339_ _277_ _011_ _285_ _018_ VDD VSS gf180mcu_fd_sc_mcu9t5v0__aoi21_2
X_340_ _292_ _019_ VDD VSS gf180mcu_fd_sc_mcu9t5v0__clkinv_2
X_341_ _017_ _018_ _019_ _020_ VDD VSS gf180mcu_fd_sc_mcu9t5v0__aoi21_2
X_342_ _019_ _017_ _018_ _021_ VDD VSS gf180mcu_fd_sc_mcu9t5v0__and3_2
X_343_ _015_ _016_ _020_ _021_ _022_ VDD VSS gf180mcu_fd_sc_mcu9t5v0__or4_2
X_344_ _236_ _260_ _268_ _023_ VDD VSS gf180mcu_fd_sc_mcu9t5v0__nand3_2
X_345_ _263_ _268_ _271_ _024_ VDD VSS gf180mcu_fd_sc_mcu9t5v0__aoi21_2
X_346_ _023_ _024_ _213_ _025_ VDD VSS gf180mcu_fd_sc_mcu9t5v0__aoi21_2
X_347_ _279_ _287_ _026_ VDD VSS gf180mcu_fd_sc_mcu9t5v0__or2_2
X_348_ _287_ _284_ _025_ _026_ _292_ _027_ VDD VSS gf180mcu_fd_sc_mcu9t5v0__oai221_2
X_349_ _292_ _025_ _026_ _028_ VDD VSS gf180mcu_fd_sc_mcu9t5v0__or3_2
X_350_ _287_ _284_ _292_ _029_ VDD VSS gf180mcu_fd_sc_mcu9t5v0__or3_2
X_351_ _027_ _028_ _029_ _030_ VDD VSS gf180mcu_fd_sc_mcu9t5v0__and3_2
X_352_ _295_ _031_ VDD VSS gf180mcu_fd_sc_mcu9t5v0__clkinv_2
X_353_ _287_ _284_ _026_ _276_ _292_ _032_ VDD VSS gf180mcu_fd_sc_mcu9t5v0__oai221_2
X_354_ _271_ _279_ _287_ _295_ _033_ VDD VSS gf180mcu_fd_sc_mcu9t5v0__nor4_4
X_355_ _235_ _242_ _255_ _263_ _034_ VDD VSS gf180mcu_fd_sc_mcu9t5v0__aoi211_4
X_356_ _260_ _263_ _268_ _035_ VDD VSS gf180mcu_fd_sc_mcu9t5v0__oai21_2
X_357_ _034_ _035_ _036_ VDD VSS gf180mcu_fd_sc_mcu9t5v0__or2_2
X_358_ _031_ _032_ _033_ _036_ _037_ VDD VSS gf180mcu_fd_sc_mcu9t5v0__aoi22_2
X_359_ _300_ _037_ _038_ VDD VSS gf180mcu_fd_sc_mcu9t5v0__xor2_2
X_360_ net20 _039_ VDD VSS gf180mcu_fd_sc_mcu9t5v0__clkinv_2
X_361_ net19 net18 _040_ VDD VSS gf180mcu_fd_sc_mcu9t5v0__nor2_2
X_362_ _039_ _040_ _041_ VDD VSS gf180mcu_fd_sc_mcu9t5v0__and2_4
X_363_ _236_ _260_ _042_ VDD VSS gf180mcu_fd_sc_mcu9t5v0__xnor2_2
X_364_ _041_ _042_ _043_ VDD VSS gf180mcu_fd_sc_mcu9t5v0__and2_2
X_365_ _237_ _246_ _044_ VDD VSS gf180mcu_fd_sc_mcu9t5v0__nor2_2
X_366_ _260_ _263_ _045_ VDD VSS gf180mcu_fd_sc_mcu9t5v0__nor2_2
X_367_ _034_ _045_ _209_ _046_ VDD VSS gf180mcu_fd_sc_mcu9t5v0__oai21_2
X_368_ _036_ _046_ _047_ VDD VSS gf180mcu_fd_sc_mcu9t5v0__nand2_2
X_369_ _213_ _023_ _024_ _048_ VDD VSS gf180mcu_fd_sc_mcu9t5v0__and3_2
X_370_ _025_ _048_ _049_ VDD VSS gf180mcu_fd_sc_mcu9t5v0__or2_2
X_371_ _043_ _044_ _047_ _049_ _050_ VDD VSS gf180mcu_fd_sc_mcu9t5v0__nand4_2
X_372_ _271_ _051_ VDD VSS gf180mcu_fd_sc_mcu9t5v0__clkinv_2
X_373_ _034_ _035_ _051_ _052_ VDD VSS gf180mcu_fd_sc_mcu9t5v0__oai21_2
X_374_ _276_ _052_ _279_ _053_ VDD VSS gf180mcu_fd_sc_mcu9t5v0__aoi21_2
X_375_ _284_ _053_ _054_ VDD VSS gf180mcu_fd_sc_mcu9t5v0__xnor2_2
X_376_ _030_ _038_ _050_ _054_ _055_ VDD VSS gf180mcu_fd_sc_mcu9t5v0__or4_2
X_377_ net12 _056_ VDD VSS gf180mcu_fd_sc_mcu9t5v0__buf_4
X_378_ net10 _057_ VDD VSS gf180mcu_fd_sc_mcu9t5v0__clkbuf_12
X_379_ _057_ _058_ VDD VSS gf180mcu_fd_sc_mcu9t5v0__clkbuf_16
X_380_ _058_ _244_ VDD VSS gf180mcu_fd_sc_mcu9t5v0__clkinv_4
X_381_ net2 _244_ net4 _059_ VDD VSS gf180mcu_fd_sc_mcu9t5v0__or3_2
X_382_ net3 _058_ net5 _060_ VDD VSS gf180mcu_fd_sc_mcu9t5v0__or3_2
X_383_ net11 _061_ VDD VSS gf180mcu_fd_sc_mcu9t5v0__clkbuf_8
X_384_ net3 _058_ net4 _062_ VDD VSS gf180mcu_fd_sc_mcu9t5v0__aoi21_2
X_385_ _248_ _063_ VDD VSS gf180mcu_fd_sc_mcu9t5v0__clkinv_2
X_386_ _061_ _062_ _063_ _064_ VDD VSS gf180mcu_fd_sc_mcu9t5v0__oai21_2
X_387_ net6 net5 _057_ _065_ VDD VSS gf180mcu_fd_sc_mcu9t5v0__mux2_2
X_388_ net8 net7 _057_ _066_ VDD VSS gf180mcu_fd_sc_mcu9t5v0__mux2_2
X_389_ net11 _067_ VDD VSS gf180mcu_fd_sc_mcu9t5v0__clkinv_2
X_390_ _065_ _066_ _067_ _068_ VDD VSS gf180mcu_fd_sc_mcu9t5v0__mux2_2
X_391_ _059_ _060_ _064_ _068_ _069_ VDD VSS gf180mcu_fd_sc_mcu9t5v0__aoi211_2
X_392_ _067_ _251_ VDD VSS gf180mcu_fd_sc_mcu9t5v0__buf_4
X_393_ net9 net8 net5 net4 _058_ _056_ _070_ VDD VSS gf180mcu_fd_sc_mcu9t5v0__mux4_2
X_394_ _251_ _070_ _071_ VDD VSS gf180mcu_fd_sc_mcu9t5v0__nand2_2
X_395_ net7 net6 net3 net2 _057_ _056_ _072_ VDD VSS gf180mcu_fd_sc_mcu9t5v0__mux4_2
X_396_ _072_ _073_ VDD VSS gf180mcu_fd_sc_mcu9t5v0__clkinv_2
X_397_ net12 _074_ VDD VSS gf180mcu_fd_sc_mcu9t5v0__clkinv_4
X_398_ net4 net3 _058_ _075_ VDD VSS gf180mcu_fd_sc_mcu9t5v0__mux2_2
X_399_ _061_ _074_ _075_ _076_ VDD VSS gf180mcu_fd_sc_mcu9t5v0__nand3_2
X_400_ net20 net18 _077_ VDD VSS gf180mcu_fd_sc_mcu9t5v0__nand2_2
X_401_ _248_ _056_ _077_ net19 _078_ VDD VSS gf180mcu_fd_sc_mcu9t5v0__aoi211_2
X_402_ _071_ _073_ _076_ _078_ _079_ VDD VSS gf180mcu_fd_sc_mcu9t5v0__and4_2
X_403_ _065_ _075_ _056_ _080_ VDD VSS gf180mcu_fd_sc_mcu9t5v0__mux2_2
X_404_ _251_ _080_ _081_ VDD VSS gf180mcu_fd_sc_mcu9t5v0__nand2_2
X_405_ _056_ _069_ _079_ _081_ _082_ VDD VSS gf180mcu_fd_sc_mcu9t5v0__oai211_2
X_406_ net8 net9 _058_ _083_ VDD VSS gf180mcu_fd_sc_mcu9t5v0__mux2_2
X_407_ net6 net7 _057_ _084_ VDD VSS gf180mcu_fd_sc_mcu9t5v0__mux2_2
X_408_ _083_ _084_ _251_ _085_ VDD VSS gf180mcu_fd_sc_mcu9t5v0__mux2_2
X_409_ _251_ _074_ _086_ VDD VSS gf180mcu_fd_sc_mcu9t5v0__nand2_2
X_410_ _244_ net8 net9 _087_ VDD VSS gf180mcu_fd_sc_mcu9t5v0__aoi21_2
X_411_ _244_ net9 _067_ _088_ VDD VSS gf180mcu_fd_sc_mcu9t5v0__aoi21_2
X_412_ net7 net8 _057_ _089_ VDD VSS gf180mcu_fd_sc_mcu9t5v0__mux2_2
X_413_ _061_ _089_ _090_ VDD VSS gf180mcu_fd_sc_mcu9t5v0__nor2_2
X_414_ net18 _091_ VDD VSS gf180mcu_fd_sc_mcu9t5v0__clkinv_3
X_415_ net20 net19 _091_ _092_ VDD VSS gf180mcu_fd_sc_mcu9t5v0__and3_4
X_416_ _086_ _087_ _088_ _090_ _092_ _093_ VDD VSS gf180mcu_fd_sc_mcu9t5v0__oai221_2
X_417_ _244_ net9 _074_ _094_ VDD VSS gf180mcu_fd_sc_mcu9t5v0__aoi21_2
X_418_ net5 net6 _057_ _095_ VDD VSS gf180mcu_fd_sc_mcu9t5v0__mux2_2
X_419_ _056_ _095_ _096_ VDD VSS gf180mcu_fd_sc_mcu9t5v0__nor2_2
X_420_ _061_ _074_ _089_ _097_ VDD VSS gf180mcu_fd_sc_mcu9t5v0__nand3_2
X_421_ _061_ _094_ _096_ _097_ _098_ VDD VSS gf180mcu_fd_sc_mcu9t5v0__oai31_2
X_422_ net2 net4 net3 net5 _061_ _058_ _099_ VDD VSS gf180mcu_fd_sc_mcu9t5v0__mux4_2
X_423_ net3 net4 net5 net6 _057_ _061_ _100_ VDD VSS gf180mcu_fd_sc_mcu9t5v0__mux4_2
X_424_ _074_ _258_ VDD VSS gf180mcu_fd_sc_mcu9t5v0__buf_4
X_425_ _099_ _100_ _258_ _101_ VDD VSS gf180mcu_fd_sc_mcu9t5v0__oai21_2
X_426_ _061_ _074_ _084_ _102_ VDD VSS gf180mcu_fd_sc_mcu9t5v0__nand3_2
X_427_ net4 net5 net8 net9 _057_ _056_ _103_ VDD VSS gf180mcu_fd_sc_mcu9t5v0__mux4_2
X_428_ _251_ _103_ _104_ VDD VSS gf180mcu_fd_sc_mcu9t5v0__nand2_2
X_429_ _101_ _102_ _104_ _105_ VDD VSS gf180mcu_fd_sc_mcu9t5v0__nand3_2
X_430_ _085_ _093_ _098_ _105_ _106_ VDD VSS gf180mcu_fd_sc_mcu9t5v0__or4_2
X_431_ net18 _107_ VDD VSS gf180mcu_fd_sc_mcu9t5v0__buf_4
X_432_ net19 _107_ _108_ VDD VSS gf180mcu_fd_sc_mcu9t5v0__and2_2
X_433_ _276_ _284_ _292_ _300_ _109_ VDD VSS gf180mcu_fd_sc_mcu9t5v0__or4_2
X_434_ _246_ _260_ _268_ _242_ _110_ VDD VSS gf180mcu_fd_sc_mcu9t5v0__or4_2
X_435_ _109_ _110_ _111_ VDD VSS gf180mcu_fd_sc_mcu9t5v0__or2_2
X_436_ _040_ _108_ _111_ _112_ VDD VSS gf180mcu_fd_sc_mcu9t5v0__mux2_2
X_437_ _002_ _112_ _113_ VDD VSS gf180mcu_fd_sc_mcu9t5v0__nand2_2
X_438_ _252_ _259_ _267_ _275_ _114_ VDD VSS gf180mcu_fd_sc_mcu9t5v0__and4_2
X_439_ _039_ net19 _115_ VDD VSS gf180mcu_fd_sc_mcu9t5v0__and2_2
X_440_ _245_ _283_ _291_ _299_ _116_ VDD VSS gf180mcu_fd_sc_mcu9t5v0__and4_2
X_441_ _107_ _114_ _115_ _116_ _117_ VDD VSS gf180mcu_fd_sc_mcu9t5v0__and4_2
X_442_ _263_ _235_ _301_ _118_ VDD VSS gf180mcu_fd_sc_mcu9t5v0__nor3_2
X_443_ _107_ _255_ _119_ VDD VSS gf180mcu_fd_sc_mcu9t5v0__nor2_2
X_444_ _033_ _115_ _118_ _119_ _120_ VDD VSS gf180mcu_fd_sc_mcu9t5v0__and4_2
X_445_ _117_ _120_ _121_ VDD VSS gf180mcu_fd_sc_mcu9t5v0__nor2_2
X_446_ _082_ _106_ _113_ _121_ _122_ VDD VSS gf180mcu_fd_sc_mcu9t5v0__and4_2
X_447_ _008_ _022_ _055_ _122_ _000_ VDD VSS gf180mcu_fd_sc_mcu9t5v0__oai211_2
X_448_ _251_ _258_ _123_ VDD VSS gf180mcu_fd_sc_mcu9t5v0__and2_2
X_449_ _248_ _123_ _124_ VDD VSS gf180mcu_fd_sc_mcu9t5v0__nand2_2
X_450_ _003_ _125_ VDD VSS gf180mcu_fd_sc_mcu9t5v0__buf_4
X_451_ _111_ _124_ _125_ _126_ VDD VSS gf180mcu_fd_sc_mcu9t5v0__mux2_2
X_452_ _085_ _099_ _258_ _127_ VDD VSS gf180mcu_fd_sc_mcu9t5v0__mux2_2
X_453_ _245_ _128_ VDD VSS gf180mcu_fd_sc_mcu9t5v0__clkinv_2
X_454_ _235_ _128_ _107_ _129_ VDD VSS gf180mcu_fd_sc_mcu9t5v0__mux2_2
X_455_ net19 _130_ VDD VSS gf180mcu_fd_sc_mcu9t5v0__buf_4
X_456_ _246_ _129_ _130_ _131_ VDD VSS gf180mcu_fd_sc_mcu9t5v0__mux2_2
X_457_ _039_ _132_ VDD VSS gf180mcu_fd_sc_mcu9t5v0__buf_4
X_458_ _246_ _040_ _092_ _127_ _131_ _132_ _133_ VDD VSS gf180mcu_fd_sc_mcu9t5v0__aoi222_2
X_459_ _077_ _126_ _133_ _227_ VDD VSS gf180mcu_fd_sc_mcu9t5v0__oai21_2
X_460_ _107_ _134_ VDD VSS gf180mcu_fd_sc_mcu9t5v0__buf_4
X_461_ _002_ _130_ _134_ _237_ _135_ VDD VSS gf180mcu_fd_sc_mcu9t5v0__or4_2
X_462_ _107_ _241_ _136_ VDD VSS gf180mcu_fd_sc_mcu9t5v0__nand2_2
X_463_ _091_ _242_ _136_ _132_ _137_ VDD VSS gf180mcu_fd_sc_mcu9t5v0__aoi22_2
X_464_ _130_ _137_ _138_ VDD VSS gf180mcu_fd_sc_mcu9t5v0__nor2_2
X_465_ net3 net2 _058_ _139_ VDD VSS gf180mcu_fd_sc_mcu9t5v0__mux2_2
X_466_ _130_ _077_ _140_ VDD VSS gf180mcu_fd_sc_mcu9t5v0__nor2_4
X_467_ _123_ _139_ _140_ _141_ VDD VSS gf180mcu_fd_sc_mcu9t5v0__and3_2
X_468_ _002_ _125_ _119_ _142_ VDD VSS gf180mcu_fd_sc_mcu9t5v0__or3_2
X_469_ _134_ _252_ _142_ _143_ VDD VSS gf180mcu_fd_sc_mcu9t5v0__aoi21_2
X_470_ _088_ _090_ _144_ VDD VSS gf180mcu_fd_sc_mcu9t5v0__or2_2
X_471_ _056_ _100_ _145_ VDD VSS gf180mcu_fd_sc_mcu9t5v0__nor2_2
X_472_ _132_ _125_ _107_ _146_ VDD VSS gf180mcu_fd_sc_mcu9t5v0__or3_2
X_473_ _056_ _144_ _145_ _146_ _147_ VDD VSS gf180mcu_fd_sc_mcu9t5v0__aoi211_2
X_474_ _138_ _141_ _143_ _147_ _148_ VDD VSS gf180mcu_fd_sc_mcu9t5v0__or4_2
X_475_ _135_ _148_ _228_ VDD VSS gf180mcu_fd_sc_mcu9t5v0__and2_2
X_476_ _248_ _075_ _251_ _149_ VDD VSS gf180mcu_fd_sc_mcu9t5v0__mux2_2
X_477_ _002_ _134_ _258_ _149_ _150_ VDD VSS gf180mcu_fd_sc_mcu9t5v0__and4_2
X_478_ _002_ _223_ _134_ _151_ VDD VSS gf180mcu_fd_sc_mcu9t5v0__aoi21_2
X_479_ _150_ _151_ _125_ _152_ VDD VSS gf180mcu_fd_sc_mcu9t5v0__oai21_2
X_480_ _102_ _104_ _153_ VDD VSS gf180mcu_fd_sc_mcu9t5v0__nand2_2
X_481_ _263_ _154_ VDD VSS gf180mcu_fd_sc_mcu9t5v0__clkinv_2
X_482_ _154_ _259_ _107_ _155_ VDD VSS gf180mcu_fd_sc_mcu9t5v0__mux2_2
X_483_ _004_ _006_ _155_ _125_ _156_ VDD VSS gf180mcu_fd_sc_mcu9t5v0__oai22_2
X_484_ _092_ _153_ _156_ _132_ _157_ VDD VSS gf180mcu_fd_sc_mcu9t5v0__aoi22_2
X_485_ _152_ _157_ _043_ _229_ VDD VSS gf180mcu_fd_sc_mcu9t5v0__aoi21_2
X_486_ _268_ _225_ _158_ VDD VSS gf180mcu_fd_sc_mcu9t5v0__xnor2_2
X_487_ _002_ _158_ _004_ _159_ VDD VSS gf180mcu_fd_sc_mcu9t5v0__or3_2
X_488_ net5 net4 _058_ _160_ VDD VSS gf180mcu_fd_sc_mcu9t5v0__mux2_2
X_489_ _160_ _139_ _061_ _161_ VDD VSS gf180mcu_fd_sc_mcu9t5v0__mux2_2
X_490_ _258_ _140_ _161_ _162_ VDD VSS gf180mcu_fd_sc_mcu9t5v0__and3_2
X_491_ _107_ _115_ _163_ VDD VSS gf180mcu_fd_sc_mcu9t5v0__nand2_2
X_492_ _130_ _051_ _164_ VDD VSS gf180mcu_fd_sc_mcu9t5v0__nand2_2
X_493_ _125_ _268_ _164_ _132_ _165_ VDD VSS gf180mcu_fd_sc_mcu9t5v0__aoi22_2
X_494_ _267_ _163_ _165_ _134_ _166_ VDD VSS gf180mcu_fd_sc_mcu9t5v0__oai22_2
X_495_ _092_ _098_ _162_ _166_ _167_ VDD VSS gf180mcu_fd_sc_mcu9t5v0__aoi211_2
X_496_ _041_ _047_ _159_ _167_ _230_ VDD VSS gf180mcu_fd_sc_mcu9t5v0__aoi22_2
X_497_ _248_ _065_ _258_ _168_ VDD VSS gf180mcu_fd_sc_mcu9t5v0__mux2_2
X_498_ _251_ _168_ _169_ VDD VSS gf180mcu_fd_sc_mcu9t5v0__nand2_2
X_499_ _076_ _169_ _170_ VDD VSS gf180mcu_fd_sc_mcu9t5v0__nand2_2
X_500_ _003_ _279_ _171_ VDD VSS gf180mcu_fd_sc_mcu9t5v0__or2_2
X_501_ _125_ _276_ _171_ _132_ _172_ VDD VSS gf180mcu_fd_sc_mcu9t5v0__aoi22_2
X_502_ _258_ _092_ _085_ _173_ VDD VSS gf180mcu_fd_sc_mcu9t5v0__nand3_2
X_503_ _275_ _163_ _172_ _134_ _173_ _174_ VDD VSS gf180mcu_fd_sc_mcu9t5v0__oai221_2
X_504_ _222_ _005_ _170_ _140_ _174_ _175_ VDD VSS gf180mcu_fd_sc_mcu9t5v0__aoi221_2
X_505_ _041_ _049_ _175_ _231_ VDD VSS gf180mcu_fd_sc_mcu9t5v0__aoi21_2
X_506_ _011_ _053_ _176_ VDD VSS gf180mcu_fd_sc_mcu9t5v0__xnor2_2
X_507_ _258_ _160_ _177_ VDD VSS gf180mcu_fd_sc_mcu9t5v0__and2_2
X_508_ _072_ _177_ _061_ _178_ VDD VSS gf180mcu_fd_sc_mcu9t5v0__mux2_2
X_509_ _258_ _092_ _179_ VDD VSS gf180mcu_fd_sc_mcu9t5v0__nand2_2
X_510_ _003_ _287_ _180_ VDD VSS gf180mcu_fd_sc_mcu9t5v0__or2_2
X_511_ _125_ _284_ _180_ _132_ _181_ VDD VSS gf180mcu_fd_sc_mcu9t5v0__aoi22_2
X_512_ _283_ _163_ _179_ _144_ _181_ _134_ _182_ VDD VSS gf180mcu_fd_sc_mcu9t5v0__oai222_2
X_513_ _217_ _005_ _178_ _140_ _182_ _183_ VDD VSS gf180mcu_fd_sc_mcu9t5v0__aoi221_2
X_514_ _041_ _176_ _183_ _232_ VDD VSS gf180mcu_fd_sc_mcu9t5v0__aoi21_2
X_515_ _132_ _134_ _184_ VDD VSS gf180mcu_fd_sc_mcu9t5v0__nand2_2
X_516_ _002_ _091_ _123_ _083_ _185_ VDD VSS gf180mcu_fd_sc_mcu9t5v0__nand4_2
X_517_ _291_ _184_ _185_ _186_ VDD VSS gf180mcu_fd_sc_mcu9t5v0__oai21_2
X_518_ _130_ _031_ _187_ VDD VSS gf180mcu_fd_sc_mcu9t5v0__and2_2
X_519_ _130_ _019_ _187_ _002_ _188_ VDD VSS gf180mcu_fd_sc_mcu9t5v0__oai22_2
X_520_ _068_ _149_ _056_ _189_ VDD VSS gf180mcu_fd_sc_mcu9t5v0__mux2_2
X_521_ _130_ _186_ _188_ _091_ _189_ _140_ _190_ VDD VSS gf180mcu_fd_sc_mcu9t5v0__aoi222_2
X_522_ _020_ _021_ _005_ _191_ VDD VSS gf180mcu_fd_sc_mcu9t5v0__oai21_2
X_523_ _002_ _130_ _134_ _030_ _192_ VDD VSS gf180mcu_fd_sc_mcu9t5v0__nor4_2
X_524_ _190_ _191_ _192_ _233_ VDD VSS gf180mcu_fd_sc_mcu9t5v0__aoi21_2
X_525_ _300_ _037_ _193_ VDD VSS gf180mcu_fd_sc_mcu9t5v0__xnor2_2
X_526_ net9 _297_ VDD VSS gf180mcu_fd_sc_mcu9t5v0__clkinv_2
X_527_ _107_ _058_ _297_ _086_ _194_ VDD VSS gf180mcu_fd_sc_mcu9t5v0__or4_2
X_528_ _299_ _184_ _194_ _132_ _195_ VDD VSS gf180mcu_fd_sc_mcu9t5v0__oai22_2
X_529_ _251_ _073_ _071_ _196_ VDD VSS gf180mcu_fd_sc_mcu9t5v0__oai21_2
X_530_ _125_ _301_ _132_ _197_ VDD VSS gf180mcu_fd_sc_mcu9t5v0__oai21_2
X_531_ _125_ _300_ _198_ VDD VSS gf180mcu_fd_sc_mcu9t5v0__nand2_2
X_532_ _197_ _198_ _134_ _199_ VDD VSS gf180mcu_fd_sc_mcu9t5v0__aoi21_2
X_533_ _130_ _195_ _196_ _140_ _199_ _200_ VDD VSS gf180mcu_fd_sc_mcu9t5v0__aoi221_2
X_534_ _015_ _016_ _005_ _201_ VDD VSS gf180mcu_fd_sc_mcu9t5v0__oai21_2
X_535_ _193_ _041_ _200_ _201_ _234_ VDD VSS gf180mcu_fd_sc_mcu9t5v0__aoi22_2
X_536_ _010_ _014_ net9 _202_ VDD VSS gf180mcu_fd_sc_mcu9t5v0__aoi21_2
X_537_ net9 _010_ _014_ _203_ VDD VSS gf180mcu_fd_sc_mcu9t5v0__and3_2
X_538_ _300_ _005_ _204_ VDD VSS gf180mcu_fd_sc_mcu9t5v0__nand2_2
X_539_ _202_ _203_ _204_ _205_ VDD VSS gf180mcu_fd_sc_mcu9t5v0__nor3_2
X_540_ _301_ _041_ _206_ VDD VSS gf180mcu_fd_sc_mcu9t5v0__and2_2
X_541_ _031_ _027_ _207_ VDD VSS gf180mcu_fd_sc_mcu9t5v0__nand2_2
X_542_ _300_ _041_ _207_ _208_ VDD VSS gf180mcu_fd_sc_mcu9t5v0__and3_2
X_543_ _205_ _206_ _208_ _303_ VDD VSS gf180mcu_fd_sc_mcu9t5v0__or3_2
X_544_ net2 _243_ VDD VSS gf180mcu_fd_sc_mcu9t5v0__clkinv_2
X_545_ net3 _238_ VDD VSS gf180mcu_fd_sc_mcu9t5v0__clkinv_2
X_546_ net4 _257_ VDD VSS gf180mcu_fd_sc_mcu9t5v0__clkinv_2
X_547_ net5 _265_ VDD VSS gf180mcu_fd_sc_mcu9t5v0__clkinv_2
X_548_ net6 _273_ VDD VSS gf180mcu_fd_sc_mcu9t5v0__clkinv_2
X_549_ net7 _281_ VDD VSS gf180mcu_fd_sc_mcu9t5v0__clkinv_2
X_550_ net8 _289_ VDD VSS gf180mcu_fd_sc_mcu9t5v0__clkinv_2
X_551_ net13 _266_ VDD VSS gf180mcu_fd_sc_mcu9t5v0__clkinv_2
X_552_ net14 _274_ VDD VSS gf180mcu_fd_sc_mcu9t5v0__clkinv_2
X_553_ net15 _282_ VDD VSS gf180mcu_fd_sc_mcu9t5v0__clkinv_2
X_554_ net16 _290_ VDD VSS gf180mcu_fd_sc_mcu9t5v0__clkinv_2
X_555_ net17 _298_ VDD VSS gf180mcu_fd_sc_mcu9t5v0__clkinv_2
X_556_ net3 net11 _235_ _236_ _237_ VDD VSS gf180mcu_fd_sc_mcu9t5v0__addf_2
X_557_ _238_ net11 _239_ _240_ _241_ VDD VSS gf180mcu_fd_sc_mcu9t5v0__addf_2
X_558_ _243_ _244_ _245_ _246_ VDD VSS gf180mcu_fd_sc_mcu9t5v0__addh_2
X_559_ _243_ net10 _239_ _247_ VDD VSS gf180mcu_fd_sc_mcu9t5v0__addh_2
X_560_ net2 _244_ _248_ _249_ VDD VSS gf180mcu_fd_sc_mcu9t5v0__addh_2
X_561_ net2 net10 _235_ _250_ VDD VSS gf180mcu_fd_sc_mcu9t5v0__addh_2
X_562_ _238_ _251_ _252_ _242_ VDD VSS gf180mcu_fd_sc_mcu9t5v0__addh_2
X_563_ net3 _251_ _253_ _254_ VDD VSS gf180mcu_fd_sc_mcu9t5v0__addh_2
X_564_ net3 net11 _255_ _256_ VDD VSS gf180mcu_fd_sc_mcu9t5v0__addh_2
X_565_ _257_ _258_ _259_ _260_ VDD VSS gf180mcu_fd_sc_mcu9t5v0__addh_4
X_566_ net4 _258_ _261_ _262_ VDD VSS gf180mcu_fd_sc_mcu9t5v0__addh_2
X_567_ net4 net12 _263_ _264_ VDD VSS gf180mcu_fd_sc_mcu9t5v0__addh_4
X_568_ _265_ _266_ _267_ _268_ VDD VSS gf180mcu_fd_sc_mcu9t5v0__addh_4
X_569_ net5 _266_ _269_ _270_ VDD VSS gf180mcu_fd_sc_mcu9t5v0__addh_2
X_570_ net5 net13 _271_ _272_ VDD VSS gf180mcu_fd_sc_mcu9t5v0__addh_2
X_571_ _273_ _274_ _275_ _276_ VDD VSS gf180mcu_fd_sc_mcu9t5v0__addh_4
X_572_ net6 _274_ _277_ _278_ VDD VSS gf180mcu_fd_sc_mcu9t5v0__addh_2
X_573_ net6 net14 _279_ _280_ VDD VSS gf180mcu_fd_sc_mcu9t5v0__addh_2
X_574_ _281_ _282_ _283_ _284_ VDD VSS gf180mcu_fd_sc_mcu9t5v0__addh_4
X_575_ net7 _282_ _285_ _286_ VDD VSS gf180mcu_fd_sc_mcu9t5v0__addh_2
X_576_ net7 net15 _287_ _288_ VDD VSS gf180mcu_fd_sc_mcu9t5v0__addh_2
X_577_ _289_ _290_ _291_ _292_ VDD VSS gf180mcu_fd_sc_mcu9t5v0__addh_2
X_578_ net8 _290_ _293_ _294_ VDD VSS gf180mcu_fd_sc_mcu9t5v0__addh_1
X_579_ net8 net16 _295_ _296_ VDD VSS gf180mcu_fd_sc_mcu9t5v0__addh_2
X_580_ _297_ _298_ _299_ _300_ VDD VSS gf180mcu_fd_sc_mcu9t5v0__addh_2
X_581_ net9 net17 _301_ _302_ VDD VSS gf180mcu_fd_sc_mcu9t5v0__addh_2
Xoverflow_flag$_DFF_PN0_ _303_ net1 clknet_1_1__leaf_clk net21
+ VDD VSS gf180mcu_fd_sc_mcu9t5v0__dffrnq_2
Xresult\[0\]$_DFF_PN0_ _227_ net1 clknet_1_0__leaf_clk net22
+ VDD VSS gf180mcu_fd_sc_mcu9t5v0__dffrnq_2
Xresult\[1\]$_DFF_PN0_ _228_ net1 clknet_1_0__leaf_clk net23
+ VDD VSS gf180mcu_fd_sc_mcu9t5v0__dffrnq_2
Xresult\[2\]$_DFF_PN0_ _229_ net1 clknet_1_0__leaf_clk net24
+ VDD VSS gf180mcu_fd_sc_mcu9t5v0__dffrnq_2
Xresult\[3\]$_DFF_PN0_ _230_ net1 clknet_1_0__leaf_clk net25
+ VDD VSS gf180mcu_fd_sc_mcu9t5v0__dffrnq_2
Xresult\[4\]$_DFF_PN0_ _231_ net1 clknet_1_0__leaf_clk net26
+ VDD VSS gf180mcu_fd_sc_mcu9t5v0__dffrnq_2
Xresult\[5\]$_DFF_PN0_ _232_ net1 clknet_1_1__leaf_clk net27
+ VDD VSS gf180mcu_fd_sc_mcu9t5v0__dffrnq_2
Xresult\[6\]$_DFF_PN0_ _233_ net1 clknet_1_0__leaf_clk net28
+ VDD VSS gf180mcu_fd_sc_mcu9t5v0__dffrnq_2
Xresult\[7\]$_DFF_PN0_ _234_ net1 clknet_1_1__leaf_clk net29
+ VDD VSS gf180mcu_fd_sc_mcu9t5v0__dffrnq_2
Xzero_flag$_DFF_PN0_ _000_ net1 clknet_1_1__leaf_clk net30
+ VDD VSS gf180mcu_fd_sc_mcu9t5v0__dffrnq_2
Xhold1 net31 net1 VDD VSS gf180mcu_fd_sc_mcu9t5v0__buf_4
XPHY_EDGE_ROW_0_Right_0 VDD VSS gf180mcu_fd_sc_mcu9t5v0__endcap
XPHY_EDGE_ROW_1_Right_1 VDD VSS gf180mcu_fd_sc_mcu9t5v0__endcap
XPHY_EDGE_ROW_2_Right_2 VDD VSS gf180mcu_fd_sc_mcu9t5v0__endcap
XPHY_EDGE_ROW_3_Right_3 VDD VSS gf180mcu_fd_sc_mcu9t5v0__endcap
XPHY_EDGE_ROW_4_Right_4 VDD VSS gf180mcu_fd_sc_mcu9t5v0__endcap
XPHY_EDGE_ROW_5_Right_5 VDD VSS gf180mcu_fd_sc_mcu9t5v0__endcap
XPHY_EDGE_ROW_6_Right_6 VDD VSS gf180mcu_fd_sc_mcu9t5v0__endcap
XPHY_EDGE_ROW_7_Right_7 VDD VSS gf180mcu_fd_sc_mcu9t5v0__endcap
XPHY_EDGE_ROW_8_Right_8 VDD VSS gf180mcu_fd_sc_mcu9t5v0__endcap
XPHY_EDGE_ROW_9_Right_9 VDD VSS gf180mcu_fd_sc_mcu9t5v0__endcap
XPHY_EDGE_ROW_10_Right_10 VDD VSS gf180mcu_fd_sc_mcu9t5v0__endcap
XPHY_EDGE_ROW_11_Right_11 VDD VSS gf180mcu_fd_sc_mcu9t5v0__endcap
XPHY_EDGE_ROW_12_Right_12 VDD VSS gf180mcu_fd_sc_mcu9t5v0__endcap
XPHY_EDGE_ROW_13_Right_13 VDD VSS gf180mcu_fd_sc_mcu9t5v0__endcap
XPHY_EDGE_ROW_14_Right_14 VDD VSS gf180mcu_fd_sc_mcu9t5v0__endcap
XPHY_EDGE_ROW_15_Right_15 VDD VSS gf180mcu_fd_sc_mcu9t5v0__endcap
XPHY_EDGE_ROW_16_Right_16 VDD VSS gf180mcu_fd_sc_mcu9t5v0__endcap
XPHY_EDGE_ROW_17_Right_17 VDD VSS gf180mcu_fd_sc_mcu9t5v0__endcap
XPHY_EDGE_ROW_18_Right_18 VDD VSS gf180mcu_fd_sc_mcu9t5v0__endcap
XPHY_EDGE_ROW_19_Right_19 VDD VSS gf180mcu_fd_sc_mcu9t5v0__endcap
XPHY_EDGE_ROW_20_Right_20 VDD VSS gf180mcu_fd_sc_mcu9t5v0__endcap
XPHY_EDGE_ROW_21_Right_21 VDD VSS gf180mcu_fd_sc_mcu9t5v0__endcap
XPHY_EDGE_ROW_22_Right_22 VDD VSS gf180mcu_fd_sc_mcu9t5v0__endcap
XPHY_EDGE_ROW_23_Right_23 VDD VSS gf180mcu_fd_sc_mcu9t5v0__endcap
XPHY_EDGE_ROW_24_Right_24 VDD VSS gf180mcu_fd_sc_mcu9t5v0__endcap
XPHY_EDGE_ROW_25_Right_25 VDD VSS gf180mcu_fd_sc_mcu9t5v0__endcap
XPHY_EDGE_ROW_26_Right_26 VDD VSS gf180mcu_fd_sc_mcu9t5v0__endcap
XPHY_EDGE_ROW_27_Right_27 VDD VSS gf180mcu_fd_sc_mcu9t5v0__endcap
XPHY_EDGE_ROW_28_Right_28 VDD VSS gf180mcu_fd_sc_mcu9t5v0__endcap
XPHY_EDGE_ROW_29_Right_29 VDD VSS gf180mcu_fd_sc_mcu9t5v0__endcap
XPHY_EDGE_ROW_30_Right_30 VDD VSS gf180mcu_fd_sc_mcu9t5v0__endcap
XPHY_EDGE_ROW_31_Right_31 VDD VSS gf180mcu_fd_sc_mcu9t5v0__endcap
XPHY_EDGE_ROW_32_Right_32 VDD VSS gf180mcu_fd_sc_mcu9t5v0__endcap
XPHY_EDGE_ROW_33_Right_33 VDD VSS gf180mcu_fd_sc_mcu9t5v0__endcap
XPHY_EDGE_ROW_34_Right_34 VDD VSS gf180mcu_fd_sc_mcu9t5v0__endcap
XPHY_EDGE_ROW_35_Right_35 VDD VSS gf180mcu_fd_sc_mcu9t5v0__endcap
XPHY_EDGE_ROW_36_Right_36 VDD VSS gf180mcu_fd_sc_mcu9t5v0__endcap
XPHY_EDGE_ROW_37_Right_37 VDD VSS gf180mcu_fd_sc_mcu9t5v0__endcap
XPHY_EDGE_ROW_38_Right_38 VDD VSS gf180mcu_fd_sc_mcu9t5v0__endcap
XPHY_EDGE_ROW_39_Right_39 VDD VSS gf180mcu_fd_sc_mcu9t5v0__endcap
XPHY_EDGE_ROW_40_Right_40 VDD VSS gf180mcu_fd_sc_mcu9t5v0__endcap
XPHY_EDGE_ROW_41_Right_41 VDD VSS gf180mcu_fd_sc_mcu9t5v0__endcap
XPHY_EDGE_ROW_42_Right_42 VDD VSS gf180mcu_fd_sc_mcu9t5v0__endcap
XPHY_EDGE_ROW_43_Right_43 VDD VSS gf180mcu_fd_sc_mcu9t5v0__endcap
XPHY_EDGE_ROW_44_Right_44 VDD VSS gf180mcu_fd_sc_mcu9t5v0__endcap
XPHY_EDGE_ROW_45_Right_45 VDD VSS gf180mcu_fd_sc_mcu9t5v0__endcap
XPHY_EDGE_ROW_46_Right_46 VDD VSS gf180mcu_fd_sc_mcu9t5v0__endcap
XPHY_EDGE_ROW_47_Right_47 VDD VSS gf180mcu_fd_sc_mcu9t5v0__endcap
XPHY_EDGE_ROW_48_Right_48 VDD VSS gf180mcu_fd_sc_mcu9t5v0__endcap
XPHY_EDGE_ROW_49_Right_49 VDD VSS gf180mcu_fd_sc_mcu9t5v0__endcap
XPHY_EDGE_ROW_50_Right_50 VDD VSS gf180mcu_fd_sc_mcu9t5v0__endcap
XPHY_EDGE_ROW_51_Right_51 VDD VSS gf180mcu_fd_sc_mcu9t5v0__endcap
XPHY_EDGE_ROW_52_Right_52 VDD VSS gf180mcu_fd_sc_mcu9t5v0__endcap
XPHY_EDGE_ROW_53_Right_53 VDD VSS gf180mcu_fd_sc_mcu9t5v0__endcap
XPHY_EDGE_ROW_54_Right_54 VDD VSS gf180mcu_fd_sc_mcu9t5v0__endcap
XPHY_EDGE_ROW_55_Right_55 VDD VSS gf180mcu_fd_sc_mcu9t5v0__endcap
XPHY_EDGE_ROW_56_Right_56 VDD VSS gf180mcu_fd_sc_mcu9t5v0__endcap
XPHY_EDGE_ROW_57_Right_57 VDD VSS gf180mcu_fd_sc_mcu9t5v0__endcap
XPHY_EDGE_ROW_58_Right_58 VDD VSS gf180mcu_fd_sc_mcu9t5v0__endcap
XPHY_EDGE_ROW_59_Right_59 VDD VSS gf180mcu_fd_sc_mcu9t5v0__endcap
XPHY_EDGE_ROW_60_Right_60 VDD VSS gf180mcu_fd_sc_mcu9t5v0__endcap
XPHY_EDGE_ROW_61_Right_61 VDD VSS gf180mcu_fd_sc_mcu9t5v0__endcap
XPHY_EDGE_ROW_62_Right_62 VDD VSS gf180mcu_fd_sc_mcu9t5v0__endcap
XPHY_EDGE_ROW_63_Right_63 VDD VSS gf180mcu_fd_sc_mcu9t5v0__endcap
XPHY_EDGE_ROW_64_Right_64 VDD VSS gf180mcu_fd_sc_mcu9t5v0__endcap
XPHY_EDGE_ROW_65_Right_65 VDD VSS gf180mcu_fd_sc_mcu9t5v0__endcap
XPHY_EDGE_ROW_66_Right_66 VDD VSS gf180mcu_fd_sc_mcu9t5v0__endcap
XPHY_EDGE_ROW_67_Right_67 VDD VSS gf180mcu_fd_sc_mcu9t5v0__endcap
XPHY_EDGE_ROW_68_Right_68 VDD VSS gf180mcu_fd_sc_mcu9t5v0__endcap
XPHY_EDGE_ROW_69_Right_69 VDD VSS gf180mcu_fd_sc_mcu9t5v0__endcap
XPHY_EDGE_ROW_70_Right_70 VDD VSS gf180mcu_fd_sc_mcu9t5v0__endcap
XPHY_EDGE_ROW_71_Right_71 VDD VSS gf180mcu_fd_sc_mcu9t5v0__endcap
XPHY_EDGE_ROW_72_Right_72 VDD VSS gf180mcu_fd_sc_mcu9t5v0__endcap
XPHY_EDGE_ROW_73_Right_73 VDD VSS gf180mcu_fd_sc_mcu9t5v0__endcap
XPHY_EDGE_ROW_74_Right_74 VDD VSS gf180mcu_fd_sc_mcu9t5v0__endcap
XPHY_EDGE_ROW_75_Right_75 VDD VSS gf180mcu_fd_sc_mcu9t5v0__endcap
XPHY_EDGE_ROW_76_Right_76 VDD VSS gf180mcu_fd_sc_mcu9t5v0__endcap
XPHY_EDGE_ROW_77_Right_77 VDD VSS gf180mcu_fd_sc_mcu9t5v0__endcap
XPHY_EDGE_ROW_78_Right_78 VDD VSS gf180mcu_fd_sc_mcu9t5v0__endcap
XPHY_EDGE_ROW_79_Right_79 VDD VSS gf180mcu_fd_sc_mcu9t5v0__endcap
XPHY_EDGE_ROW_80_Right_80 VDD VSS gf180mcu_fd_sc_mcu9t5v0__endcap
XPHY_EDGE_ROW_81_Right_81 VDD VSS gf180mcu_fd_sc_mcu9t5v0__endcap
XPHY_EDGE_ROW_82_Right_82 VDD VSS gf180mcu_fd_sc_mcu9t5v0__endcap
XPHY_EDGE_ROW_83_Right_83 VDD VSS gf180mcu_fd_sc_mcu9t5v0__endcap
XPHY_EDGE_ROW_84_Right_84 VDD VSS gf180mcu_fd_sc_mcu9t5v0__endcap
XPHY_EDGE_ROW_85_Right_85 VDD VSS gf180mcu_fd_sc_mcu9t5v0__endcap
XPHY_EDGE_ROW_86_Right_86 VDD VSS gf180mcu_fd_sc_mcu9t5v0__endcap
XPHY_EDGE_ROW_87_Right_87 VDD VSS gf180mcu_fd_sc_mcu9t5v0__endcap
XPHY_EDGE_ROW_88_Right_88 VDD VSS gf180mcu_fd_sc_mcu9t5v0__endcap
XPHY_EDGE_ROW_89_Right_89 VDD VSS gf180mcu_fd_sc_mcu9t5v0__endcap
XPHY_EDGE_ROW_90_Right_90 VDD VSS gf180mcu_fd_sc_mcu9t5v0__endcap
XPHY_EDGE_ROW_91_Right_91 VDD VSS gf180mcu_fd_sc_mcu9t5v0__endcap
XPHY_EDGE_ROW_92_Right_92 VDD VSS gf180mcu_fd_sc_mcu9t5v0__endcap
XPHY_EDGE_ROW_93_Right_93 VDD VSS gf180mcu_fd_sc_mcu9t5v0__endcap
XPHY_EDGE_ROW_94_Right_94 VDD VSS gf180mcu_fd_sc_mcu9t5v0__endcap
XPHY_EDGE_ROW_95_Right_95 VDD VSS gf180mcu_fd_sc_mcu9t5v0__endcap
XPHY_EDGE_ROW_96_Right_96 VDD VSS gf180mcu_fd_sc_mcu9t5v0__endcap
XPHY_EDGE_ROW_97_Right_97 VDD VSS gf180mcu_fd_sc_mcu9t5v0__endcap
XPHY_EDGE_ROW_98_Right_98 VDD VSS gf180mcu_fd_sc_mcu9t5v0__endcap
XPHY_EDGE_ROW_99_Right_99 VDD VSS gf180mcu_fd_sc_mcu9t5v0__endcap
XPHY_EDGE_ROW_100_Right_100 VDD VSS gf180mcu_fd_sc_mcu9t5v0__endcap
XPHY_EDGE_ROW_101_Right_101 VDD VSS gf180mcu_fd_sc_mcu9t5v0__endcap
XPHY_EDGE_ROW_102_Right_102 VDD VSS gf180mcu_fd_sc_mcu9t5v0__endcap
XPHY_EDGE_ROW_103_Right_103 VDD VSS gf180mcu_fd_sc_mcu9t5v0__endcap
XPHY_EDGE_ROW_104_Right_104 VDD VSS gf180mcu_fd_sc_mcu9t5v0__endcap
XPHY_EDGE_ROW_105_Right_105 VDD VSS gf180mcu_fd_sc_mcu9t5v0__endcap
XPHY_EDGE_ROW_106_Right_106 VDD VSS gf180mcu_fd_sc_mcu9t5v0__endcap
XPHY_EDGE_ROW_107_Right_107 VDD VSS gf180mcu_fd_sc_mcu9t5v0__endcap
XPHY_EDGE_ROW_108_Right_108 VDD VSS gf180mcu_fd_sc_mcu9t5v0__endcap
XPHY_EDGE_ROW_109_Right_109 VDD VSS gf180mcu_fd_sc_mcu9t5v0__endcap
XPHY_EDGE_ROW_110_Right_110 VDD VSS gf180mcu_fd_sc_mcu9t5v0__endcap
XPHY_EDGE_ROW_111_Right_111 VDD VSS gf180mcu_fd_sc_mcu9t5v0__endcap
XPHY_EDGE_ROW_112_Right_112 VDD VSS gf180mcu_fd_sc_mcu9t5v0__endcap
XPHY_EDGE_ROW_113_Right_113 VDD VSS gf180mcu_fd_sc_mcu9t5v0__endcap
XPHY_EDGE_ROW_114_Right_114 VDD VSS gf180mcu_fd_sc_mcu9t5v0__endcap
XPHY_EDGE_ROW_115_Right_115 VDD VSS gf180mcu_fd_sc_mcu9t5v0__endcap
XPHY_EDGE_ROW_116_Right_116 VDD VSS gf180mcu_fd_sc_mcu9t5v0__endcap
XPHY_EDGE_ROW_117_Right_117 VDD VSS gf180mcu_fd_sc_mcu9t5v0__endcap
XPHY_EDGE_ROW_118_Right_118 VDD VSS gf180mcu_fd_sc_mcu9t5v0__endcap
XPHY_EDGE_ROW_119_Right_119 VDD VSS gf180mcu_fd_sc_mcu9t5v0__endcap
XPHY_EDGE_ROW_120_Right_120 VDD VSS gf180mcu_fd_sc_mcu9t5v0__endcap
XPHY_EDGE_ROW_121_Right_121 VDD VSS gf180mcu_fd_sc_mcu9t5v0__endcap
XPHY_EDGE_ROW_122_Right_122 VDD VSS gf180mcu_fd_sc_mcu9t5v0__endcap
XPHY_EDGE_ROW_123_Right_123 VDD VSS gf180mcu_fd_sc_mcu9t5v0__endcap
XPHY_EDGE_ROW_124_Right_124 VDD VSS gf180mcu_fd_sc_mcu9t5v0__endcap
XPHY_EDGE_ROW_125_Right_125 VDD VSS gf180mcu_fd_sc_mcu9t5v0__endcap
XPHY_EDGE_ROW_126_Right_126 VDD VSS gf180mcu_fd_sc_mcu9t5v0__endcap
XPHY_EDGE_ROW_127_Right_127 VDD VSS gf180mcu_fd_sc_mcu9t5v0__endcap
XPHY_EDGE_ROW_128_Right_128 VDD VSS gf180mcu_fd_sc_mcu9t5v0__endcap
XPHY_EDGE_ROW_129_Right_129 VDD VSS gf180mcu_fd_sc_mcu9t5v0__endcap
XPHY_EDGE_ROW_130_Right_130 VDD VSS gf180mcu_fd_sc_mcu9t5v0__endcap
XPHY_EDGE_ROW_131_Right_131 VDD VSS gf180mcu_fd_sc_mcu9t5v0__endcap
XPHY_EDGE_ROW_132_Right_132 VDD VSS gf180mcu_fd_sc_mcu9t5v0__endcap
XPHY_EDGE_ROW_133_Right_133 VDD VSS gf180mcu_fd_sc_mcu9t5v0__endcap
XPHY_EDGE_ROW_134_Right_134 VDD VSS gf180mcu_fd_sc_mcu9t5v0__endcap
XPHY_EDGE_ROW_135_Right_135 VDD VSS gf180mcu_fd_sc_mcu9t5v0__endcap
XPHY_EDGE_ROW_136_Right_136 VDD VSS gf180mcu_fd_sc_mcu9t5v0__endcap
XPHY_EDGE_ROW_137_Right_137 VDD VSS gf180mcu_fd_sc_mcu9t5v0__endcap