* CDL Netlist generated by OpenROAD

*.BUSDELIMITER [

.SUBCKT uart clk m_axis_tdata[0] m_axis_tdata[1] m_axis_tdata[2]
+ m_axis_tdata[3] m_axis_tdata[4] m_axis_tdata[5] m_axis_tdata[6]
+ m_axis_tdata[7] m_axis_tready m_axis_tvalid prescale[0] prescale[10]
+ prescale[11] prescale[12] prescale[13] prescale[14] prescale[15]
+ prescale[1] prescale[2] prescale[3] prescale[4] prescale[5]
+ prescale[6] prescale[7] prescale[8] prescale[9] rst rx_busy
+ rx_frame_error rx_overrun_error rxd s_axis_tdata[0] s_axis_tdata[1]
+ s_axis_tdata[2] s_axis_tdata[3] s_axis_tdata[4] s_axis_tdata[5]
+ s_axis_tdata[6] s_axis_tdata[7] s_axis_tready s_axis_tvalid
+ tx_busy txd
X_0608_ prescale[0] _0081_ VDD VSS BUF_X2
X_0609_ _0081_ _0592_ VDD VSS INV_X1
X_0610_ net6 _0593_ VDD VSS INV_X1
X_0611_ rst _0082_ VDD VSS BUF_X4
X_0612_ _0082_ _0083_ VDD VSS INV_X4
X_0613_ uart_rx_inst.bit_cnt\[2\] _0084_ VDD VSS BUF_X2
X_0614_ _0602_ _0085_ VDD VSS CLKBUF_X2
X_0615_ _0600_ _0085_ _0086_ VDD VSS NOR2_X1
X_0616_ uart_rx_inst.bit_cnt\[3\] _0084_ _0086_ _0087_ VDD
+ VSS OAI21_X2
X_0617_ uart_rx_inst.bit_cnt\[3\] _0084_ _0088_ VDD VSS NOR2_X2
X_0618_ _0000_ _0089_ VDD VSS BUF_X2
X_0619_ _0089_ _0090_ VDD VSS INV_X1
X_0620_ _0598_ _0091_ VDD VSS BUF_X1
X_0621_ _0090_ _0091_ _0092_ VDD VSS AND2_X1
X_0622_ uart_rx_inst.bit_cnt\[1\] _0091_ _0093_ VDD VSS NOR2_X1
X_0623_ _0088_ _0092_ _0093_ _0094_ VDD VSS OAI21_X4
X_0624_ uart_rx_inst.prescale_reg\[4\] uart_rx_inst.prescale_reg\[3\]
+ _0095_ VDD VSS NOR2_X4
X_0625_ uart_rx_inst.prescale_reg\[2\] _0096_ VDD VSS BUF_X2
X_0626_ _0096_ uart_rx_inst.prescale_reg\[1\] uart_rx_inst.prescale_reg\[0\]
+ _0097_ VDD VSS NOR3_X4
X_0627_ uart_rx_inst.prescale_reg\[5\] _0098_ VDD VSS BUF_X2
X_0628_ uart_rx_inst.prescale_reg\[7\] uart_rx_inst.prescale_reg\[8\]
+ uart_rx_inst.prescale_reg\[6\] _0098_ _0099_ VDD VSS NOR4_X4
X_0629_ uart_rx_inst.prescale_reg\[9\] uart_rx_inst.prescale_reg\[10\]
+ _0100_ VDD VSS NOR2_X2
X_0630_ _0095_ _0097_ _0099_ _0100_ _0101_ VDD VSS NAND4_X4
X_0631_ uart_rx_inst.prescale_reg\[14\] _0102_ VDD VSS BUF_X1
X_0632_ uart_rx_inst.prescale_reg\[11\] _0103_ VDD VSS BUF_X2
X_0633_ uart_rx_inst.prescale_reg\[13\] _0103_ uart_rx_inst.prescale_reg\[12\]
+ _0104_ VDD VSS OR3_X2
X_0634_ uart_rx_inst.prescale_reg\[17\] uart_rx_inst.prescale_reg\[18\]
+ uart_rx_inst.prescale_reg\[16\] _0105_ VDD VSS OR3_X1
X_0635_ uart_rx_inst.prescale_reg\[15\] _0102_ _0104_ _0105_
+ _0106_ VDD VSS OR4_X2
X_0636_ _0101_ _0106_ _0107_ VDD VSS NOR2_X4
X_0637_ _0083_ _0087_ _0094_ _0107_ _0108_ VDD VSS NAND4_X4
X_0638_ _0108_ _0109_ VDD VSS BUF_X2
X_0639_ uart_rx_inst.data_reg\[0\] _0109_ _0110_ VDD VSS NAND2_X1
X_0640_ _0091_ _0088_ _0111_ VDD VSS NAND2_X1
X_0641_ _0111_ _0112_ VDD VSS CLKBUF_X3
X_0642_ _0112_ _0113_ VDD VSS CLKBUF_X3
X_0643_ uart_rx_inst.data_reg\[1\] _0113_ _0114_ VDD VSS NAND2_X1
X_0644_ _0110_ _0114_ _0109_ _0007_ VDD VSS OAI21_X1
X_0645_ uart_rx_inst.data_reg\[1\] _0109_ _0115_ VDD VSS NAND2_X1
X_0646_ uart_rx_inst.data_reg\[2\] _0113_ _0116_ VDD VSS NAND2_X1
X_0647_ _0115_ _0116_ _0109_ _0008_ VDD VSS OAI21_X1
X_0648_ uart_rx_inst.data_reg\[2\] _0109_ _0117_ VDD VSS NAND2_X1
X_0649_ uart_rx_inst.data_reg\[3\] _0113_ _0118_ VDD VSS NAND2_X1
X_0650_ _0117_ _0118_ _0109_ _0009_ VDD VSS OAI21_X1
X_0651_ uart_rx_inst.data_reg\[3\] _0108_ _0119_ VDD VSS NAND2_X1
X_0652_ uart_rx_inst.data_reg\[4\] _0113_ _0120_ VDD VSS NAND2_X1
X_0653_ _0119_ _0120_ _0109_ _0010_ VDD VSS OAI21_X1
X_0654_ uart_rx_inst.data_reg\[4\] _0108_ _0121_ VDD VSS NAND2_X1
X_0655_ uart_rx_inst.data_reg\[5\] _0113_ _0122_ VDD VSS NAND2_X1
X_0656_ _0121_ _0122_ _0109_ _0011_ VDD VSS OAI21_X1
X_0657_ uart_rx_inst.data_reg\[5\] _0108_ _0123_ VDD VSS NAND2_X1
X_0658_ uart_rx_inst.data_reg\[6\] _0113_ _0124_ VDD VSS NAND2_X1
X_0659_ _0123_ _0124_ _0109_ _0012_ VDD VSS OAI21_X1
X_0660_ uart_rx_inst.data_reg\[6\] _0108_ _0125_ VDD VSS NAND2_X1
X_0661_ uart_rx_inst.data_reg\[7\] _0113_ _0126_ VDD VSS NAND2_X1
X_0662_ _0125_ _0126_ _0109_ _0013_ VDD VSS OAI21_X1
X_0663_ uart_rx_inst.rxd_reg _0127_ VDD VSS INV_X1
X_0664_ _0091_ _0088_ _0128_ VDD VSS AND2_X2
X_0665_ _0128_ _0129_ VDD VSS CLKBUF_X3
X_0666_ _0127_ _0129_ _0130_ VDD VSS NOR2_X1
X_0667_ _0130_ uart_rx_inst.data_reg\[7\] _0108_ _0014_ VDD
+ VSS MUX2_X1
X_0668_ uart_tx_inst.bit_cnt\[2\] _0131_ VDD VSS BUF_X2
X_0669_ uart_tx_inst.bit_cnt\[1\] _0132_ VDD VSS CLKBUF_X3
X_0670_ uart_tx_inst.bit_cnt\[0\] _0133_ VDD VSS CLKBUF_X3
X_0671_ _0131_ uart_tx_inst.bit_cnt\[3\] _0132_ _0133_ _0134_
+ VDD VSS NOR4_X4
X_0672_ _0134_ _0135_ VDD VSS CLKBUF_X3
X_0673_ uart_tx_inst.data_reg\[1\] net9 _0135_ _0136_ VDD
+ VSS MUX2_X1
X_0674_ uart_tx_inst.prescale_reg\[10\] uart_tx_inst.prescale_reg\[9\]
+ _0137_ VDD VSS NOR2_X1
X_0675_ uart_tx_inst.prescale_reg\[6\] _0138_ VDD VSS CLKBUF_X2
X_0676_ uart_tx_inst.prescale_reg\[8\] uart_tx_inst.prescale_reg\[7\]
+ _0138_ _0139_ VDD VSS NOR3_X2
X_0677_ uart_tx_inst.prescale_reg\[2\] _0140_ VDD VSS BUF_X2
X_0678_ uart_tx_inst.prescale_reg\[3\] uart_tx_inst.prescale_reg\[1\]
+ _0140_ uart_tx_inst.prescale_reg\[0\] _0141_ VDD VSS NOR4_X2
X_0679_ uart_tx_inst.prescale_reg\[4\] _0142_ VDD VSS BUF_X2
X_0680_ uart_tx_inst.prescale_reg\[5\] _0142_ _0143_ VDD VSS
+ NOR2_X1
X_0681_ _0137_ _0139_ _0141_ _0143_ _0144_ VDD VSS AND4_X2
X_0682_ uart_tx_inst.prescale_reg\[13\] uart_tx_inst.prescale_reg\[12\]
+ uart_tx_inst.prescale_reg\[11\] _0145_ VDD VSS OR3_X2
X_0683_ uart_tx_inst.prescale_reg\[15\] uart_tx_inst.prescale_reg\[14\]
+ _0145_ _0146_ VDD VSS NOR3_X4
X_0684_ net17 _0147_ VDD VSS INV_X1
X_0685_ _0147_ _0134_ _0148_ VDD VSS NAND2_X4
X_0686_ uart_tx_inst.prescale_reg\[17\] uart_tx_inst.prescale_reg\[16\]
+ _0149_ VDD VSS OR2_X1
X_0687_ uart_tx_inst.prescale_reg\[18\] _0149_ _0150_ VDD
+ VSS NOR2_X2
X_0688_ _0144_ _0146_ _0148_ _0150_ _0151_ VDD VSS NAND4_X4
X_0689_ _0131_ uart_tx_inst.bit_cnt\[3\] _0132_ _0152_ VDD
+ VSS NOR3_X4
X_0690_ _0133_ _0152_ _0153_ VDD VSS AND2_X2
X_0691_ _0153_ _0154_ VDD VSS BUF_X4
X_0692_ _0082_ _0151_ _0154_ _0155_ VDD VSS NOR3_X4
X_0693_ uart_tx_inst.data_reg\[0\] _0136_ _0155_ _0051_ VDD
+ VSS MUX2_X1
X_0694_ uart_tx_inst.data_reg\[2\] net10 _0135_ _0156_ VDD
+ VSS MUX2_X1
X_0695_ uart_tx_inst.data_reg\[1\] _0156_ _0155_ _0052_ VDD
+ VSS MUX2_X1
X_0696_ uart_tx_inst.data_reg\[3\] net11 _0135_ _0157_ VDD
+ VSS MUX2_X1
X_0697_ uart_tx_inst.data_reg\[2\] _0157_ _0155_ _0053_ VDD
+ VSS MUX2_X1
X_0698_ uart_tx_inst.data_reg\[4\] net12 _0135_ _0158_ VDD
+ VSS MUX2_X1
X_0699_ uart_tx_inst.data_reg\[3\] _0158_ _0155_ _0054_ VDD
+ VSS MUX2_X1
X_0700_ uart_tx_inst.data_reg\[5\] net13 _0135_ _0159_ VDD
+ VSS MUX2_X1
X_0701_ uart_tx_inst.data_reg\[4\] _0159_ _0155_ _0055_ VDD
+ VSS MUX2_X1
X_0702_ uart_tx_inst.data_reg\[6\] net14 _0135_ _0160_ VDD
+ VSS MUX2_X1
X_0703_ uart_tx_inst.data_reg\[5\] _0160_ _0155_ _0056_ VDD
+ VSS MUX2_X1
X_0704_ uart_tx_inst.data_reg\[7\] net15 _0134_ _0161_ VDD
+ VSS MUX2_X1
X_0705_ uart_tx_inst.data_reg\[6\] _0161_ _0155_ _0057_ VDD
+ VSS MUX2_X1
X_0706_ uart_tx_inst.data_reg\[8\] net16 _0134_ _0162_ VDD
+ VSS MUX2_X1
X_0707_ uart_tx_inst.data_reg\[7\] _0162_ _0155_ _0058_ VDD
+ VSS MUX2_X1
X_0708_ _0144_ _0146_ _0150_ _0163_ VDD VSS AND3_X1
X_0709_ _0163_ _0164_ VDD VSS CLKBUF_X3
X_0710_ _0083_ _0164_ _0165_ VDD VSS NAND2_X1
X_0711_ uart_tx_inst.data_reg\[8\] _0152_ _0165_ _0166_ VDD
+ VSS OAI21_X1
X_0712_ net17 _0135_ _0167_ VDD VSS NAND2_X1
X_0713_ _0166_ _0167_ _0165_ _0059_ VDD VSS OAI21_X1
X_0714_ _0083_ _0168_ VDD VSS CLKBUF_X3
X_0715_ uart_rx_inst.bit_cnt\[3\] _0169_ VDD VSS INV_X1
X_0716_ _0600_ _0085_ _0170_ VDD VSS OR2_X1
X_0717_ _0084_ _0171_ VDD VSS INV_X1
X_0718_ _0169_ _0127_ _0170_ _0171_ _0172_ VDD VSS AOI211_X2
X_0719_ _0128_ _0172_ _0173_ VDD VSS OR2_X2
X_0720_ uart_rx_inst.bit_cnt\[0\] _0173_ _0174_ VDD VSS NOR2_X1
X_0721_ uart_rx_inst.bit_cnt\[1\] _0091_ _0175_ VDD VSS OR2_X2
X_0722_ _0085_ _0175_ _0176_ VDD VSS NOR2_X1
X_0723_ _0088_ _0092_ _0176_ _0177_ VDD VSS OAI21_X1
X_0724_ _0107_ _0177_ _0178_ VDD VSS NAND2_X1
X_0725_ _0174_ uart_rx_inst.bit_cnt\[0\] _0178_ _0179_ VDD
+ VSS MUX2_X1
X_0726_ _0168_ _0179_ _0002_ VDD VSS AND2_X1
X_0727_ _0112_ _0172_ _0599_ _0180_ VDD VSS OAI21_X1
X_0728_ _0180_ uart_rx_inst.bit_cnt\[1\] _0178_ _0181_ VDD
+ VSS MUX2_X1
X_0729_ _0168_ _0181_ _0003_ VDD VSS AND2_X1
X_0730_ _0082_ _0182_ VDD VSS CLKBUF_X3
X_0731_ _0101_ _0106_ _0183_ VDD VSS OR2_X1
X_0732_ _0183_ _0184_ VDD VSS BUF_X4
X_0733_ _0184_ _0185_ VDD VSS CLKBUF_X3
X_0734_ _0600_ _0172_ _0186_ VDD VSS NOR2_X1
X_0735_ _0084_ _0185_ _0186_ _0187_ VDD VSS OAI21_X1
X_0736_ _0600_ _0112_ _0188_ VDD VSS NAND2_X1
X_0737_ _0084_ _0178_ _0188_ _0189_ VDD VSS OR3_X1
X_0738_ _0182_ _0187_ _0189_ _0004_ VDD VSS AOI21_X1
X_0739_ _0084_ uart_rx_inst.bit_cnt\[1\] uart_rx_inst.bit_cnt\[0\]
+ _0190_ VDD VSS NOR3_X1
X_0740_ _0001_ _0190_ _0191_ VDD VSS XOR2_X1
X_0741_ _0112_ _0172_ _0191_ _0192_ VDD VSS OAI21_X1
X_0742_ _0192_ uart_rx_inst.bit_cnt\[3\] _0178_ _0193_ VDD
+ VSS MUX2_X1
X_0743_ _0168_ _0193_ _0005_ VDD VSS AND2_X1
X_0744_ _0184_ _0111_ _0194_ VDD VSS NOR2_X2
X_0745_ net27 _0089_ _0194_ _0195_ VDD VSS MUX2_X1
X_0746_ _0168_ _0195_ _0006_ VDD VSS AND2_X1
X_0747_ _0088_ _0196_ VDD VSS INV_X1
X_0748_ _0196_ _0175_ _0197_ VDD VSS NOR2_X4
X_0749_ _0089_ _0085_ _0197_ _0198_ VDD VSS NAND3_X1
X_0750_ _0182_ _0185_ _0198_ _0015_ VDD VSS NOR3_X1
X_0751_ _0090_ uart_rx_inst.bit_cnt\[0\] _0001_ _0199_ VDD
+ VSS AND3_X1
X_0752_ _0107_ _0197_ _0199_ _0200_ VDD VSS NAND3_X4
X_0753_ net18 _0200_ _0201_ VDD VSS NAND2_X1
X_0754_ _0107_ _0197_ _0199_ _0202_ VDD VSS AND3_X1
X_0755_ _0202_ _0203_ VDD VSS BUF_X2
X_0756_ uart_rx_inst.data_reg\[0\] _0203_ _0204_ VDD VSS NAND2_X1
X_0757_ _0182_ _0201_ _0204_ _0016_ VDD VSS AOI21_X1
X_0758_ net19 _0200_ _0205_ VDD VSS NAND2_X1
X_0759_ uart_rx_inst.data_reg\[1\] _0203_ _0206_ VDD VSS NAND2_X1
X_0760_ _0182_ _0205_ _0206_ _0017_ VDD VSS AOI21_X1
X_0761_ net20 _0200_ _0207_ VDD VSS NAND2_X1
X_0762_ uart_rx_inst.data_reg\[2\] _0203_ _0208_ VDD VSS NAND2_X1
X_0763_ _0182_ _0207_ _0208_ _0018_ VDD VSS AOI21_X1
X_0764_ _0082_ _0209_ VDD VSS CLKBUF_X3
X_0765_ net21 _0200_ _0210_ VDD VSS NAND2_X1
X_0766_ uart_rx_inst.data_reg\[3\] _0203_ _0211_ VDD VSS NAND2_X1
X_0767_ _0209_ _0210_ _0211_ _0019_ VDD VSS AOI21_X1
X_0768_ net22 _0200_ _0212_ VDD VSS NAND2_X1
X_0769_ uart_rx_inst.data_reg\[4\] _0203_ _0213_ VDD VSS NAND2_X1
X_0770_ _0209_ _0212_ _0213_ _0020_ VDD VSS AOI21_X1
X_0771_ net23 _0200_ _0214_ VDD VSS NAND2_X1
X_0772_ uart_rx_inst.data_reg\[5\] _0203_ _0215_ VDD VSS NAND2_X1
X_0773_ _0209_ _0214_ _0215_ _0021_ VDD VSS AOI21_X1
X_0774_ net24 _0200_ _0216_ VDD VSS NAND2_X1
X_0775_ uart_rx_inst.data_reg\[6\] _0203_ _0217_ VDD VSS NAND2_X1
X_0776_ _0209_ _0216_ _0217_ _0022_ VDD VSS AOI21_X1
X_0777_ net25 _0200_ _0218_ VDD VSS NAND2_X1
X_0778_ uart_rx_inst.data_reg\[7\] _0203_ _0219_ VDD VSS NAND2_X1
X_0779_ _0209_ _0218_ _0219_ _0023_ VDD VSS AOI21_X1
X_0780_ net1 _0220_ VDD VSS INV_X1
X_0781_ net26 _0220_ _0221_ VDD VSS NAND2_X1
X_0782_ _0107_ _0222_ VDD VSS CLKBUF_X3
X_0783_ uart_rx_inst.rxd_reg _0085_ _0222_ _0197_ _0223_ VDD
+ VSS NAND4_X1
X_0784_ _0209_ _0221_ _0223_ _0024_ VDD VSS AOI21_X1
X_0785_ uart_rx_inst.rxd_reg net26 _0085_ _0197_ _0224_ VDD
+ VSS NAND4_X1
X_0786_ _0182_ _0185_ _0224_ _0025_ VDD VSS NOR3_X1
X_0787_ _0083_ _0094_ _0184_ _0225_ VDD VSS OAI21_X4
X_0788_ _0225_ _0226_ VDD VSS CLKBUF_X3
X_0789_ _0128_ _0172_ _0227_ VDD VSS NOR2_X4
X_0790_ _0222_ _0227_ _0228_ VDD VSS NAND2_X1
X_0791_ _0588_ _0185_ _0229_ VDD VSS NAND2_X1
X_0792_ _0226_ _0228_ _0229_ _0026_ VDD VSS AOI21_X1
X_0793_ prescale[8] _0230_ VDD VSS BUF_X4
X_0794_ _0594_ _0231_ VDD VSS CLKBUF_X2
X_0795_ prescale[2] _0232_ VDD VSS BUF_X2
X_0796_ prescale[3] _0233_ VDD VSS CLKBUF_X2
X_0797_ _0232_ _0233_ _0234_ VDD VSS NOR2_X2
X_0798_ prescale[4] _0235_ VDD VSS BUF_X1
X_0799_ prescale[5] _0236_ VDD VSS BUF_X1
X_0800_ _0235_ _0236_ _0237_ VDD VSS NOR2_X1
X_0801_ prescale[6] _0238_ VDD VSS CLKBUF_X3
X_0802_ prescale[7] _0239_ VDD VSS BUF_X2
X_0803_ _0238_ _0239_ _0240_ VDD VSS NOR2_X1
X_0804_ _0231_ _0234_ _0237_ _0240_ _0241_ VDD VSS NAND4_X2
X_0805_ _0230_ _0241_ _0242_ VDD VSS XOR2_X2
X_0806_ _0232_ _0233_ _0243_ VDD VSS OR2_X1
X_0807_ _0081_ net6 _0235_ _0236_ _0244_ VDD VSS OR4_X1
X_0808_ _0238_ _0243_ _0244_ _0245_ VDD VSS NOR3_X1
X_0809_ _0239_ _0245_ _0246_ VDD VSS XNOR2_X1
X_0810_ _0107_ _0112_ _0242_ _0246_ _0173_ _0247_ VDD VSS
+ OAI221_X1
X_0811_ _0096_ _0248_ VDD VSS INV_X1
X_0812_ _0590_ _0249_ VDD VSS BUF_X1
X_0813_ _0248_ _0249_ _0095_ _0099_ _0250_ VDD VSS NAND4_X1
X_0814_ uart_rx_inst.prescale_reg\[10\] _0250_ uart_rx_inst.prescale_reg\[9\]
+ _0251_ VDD VSS OAI21_X1
X_0815_ _0099_ _0100_ _0252_ VDD VSS NAND2_X1
X_0816_ _0248_ _0249_ _0095_ _0253_ VDD VSS NAND3_X2
X_0817_ _0252_ _0253_ _0254_ VDD VSS OR2_X1
X_0818_ _0251_ _0254_ _0255_ VDD VSS NAND2_X1
X_0819_ _0247_ _0255_ _0222_ _0256_ VDD VSS OAI21_X1
X_0820_ _0226_ _0256_ _0027_ VDD VSS NOR2_X1
X_0821_ uart_rx_inst.prescale_reg\[15\] _0102_ _0104_ _0105_
+ _0257_ VDD VSS NOR4_X1
X_0822_ _0101_ _0257_ _0258_ VDD VSS OR2_X1
X_0823_ _0103_ _0258_ _0259_ VDD VSS NOR2_X1
X_0824_ _0259_ _0101_ _0103_ _0260_ VDD VSS AOI21_X1
X_0825_ _0173_ _0242_ _0261_ VDD VSS NOR2_X1
X_0826_ _0243_ _0244_ _0262_ VDD VSS OR2_X1
X_0827_ _0262_ _0263_ VDD VSS BUF_X8
X_0828_ _0238_ _0239_ _0230_ _0264_ VDD VSS OR3_X1
X_0829_ _0263_ _0264_ _0265_ VDD VSS NOR2_X1
X_0830_ net7 _0265_ _0266_ VDD VSS XOR2_X2
X_0831_ _0261_ _0266_ _0129_ _0267_ VDD VSS AOI21_X1
X_0832_ _0090_ _0091_ _0268_ VDD VSS NAND2_X1
X_0833_ _0196_ _0268_ _0175_ _0269_ VDD VSS AOI21_X1
X_0834_ _0082_ _0269_ _0107_ _0270_ VDD VSS AOI21_X2
X_0835_ _0222_ _0270_ _0271_ VDD VSS NAND2_X1
X_0836_ _0226_ _0260_ _0267_ _0271_ _0028_ VDD VSS OAI22_X1
X_0837_ prescale[10] _0272_ VDD VSS BUF_X2
X_0838_ _0231_ _0234_ _0237_ _0273_ VDD VSS NAND3_X1
X_0839_ _0273_ _0274_ VDD VSS CLKBUF_X3
X_0840_ _0238_ _0239_ _0230_ net7 _0275_ VDD VSS OR4_X2
X_0841_ _0274_ _0275_ _0276_ VDD VSS NOR2_X1
X_0842_ _0272_ _0276_ _0277_ VDD VSS XOR2_X2
X_0843_ _0227_ _0266_ _0277_ _0129_ _0278_ VDD VSS AOI22_X1
X_0844_ _0083_ _0184_ _0279_ VDD VSS NAND2_X1
X_0845_ _0103_ _0254_ _0280_ VDD VSS NOR2_X1
X_0846_ uart_rx_inst.prescale_reg\[12\] _0280_ _0281_ VDD
+ VSS XNOR2_X1
X_0847_ _0271_ _0278_ _0279_ _0281_ _0029_ VDD VSS OAI22_X1
X_0848_ uart_rx_inst.prescale_reg\[13\] _0282_ VDD VSS INV_X1
X_0849_ _0103_ uart_rx_inst.prescale_reg\[12\] _0101_ _0283_
+ VDD VSS NOR3_X1
X_0850_ _0082_ _0282_ _0283_ _0284_ VDD VSS NOR3_X1
X_0851_ _0272_ _0243_ _0244_ _0275_ _0285_ VDD VSS NOR4_X1
X_0852_ net2 _0285_ _0286_ VDD VSS XNOR2_X1
X_0853_ _0184_ _0113_ _0286_ _0287_ VDD VSS NOR3_X1
X_0854_ _0284_ _0287_ _0270_ _0288_ VDD VSS AOI21_X1
X_0855_ _0104_ _0258_ _0289_ VDD VSS NOR2_X1
X_0856_ _0184_ _0173_ _0290_ VDD VSS NOR2_X1
X_0857_ _0289_ _0277_ _0290_ _0291_ VDD VSS AOI21_X1
X_0858_ _0288_ _0291_ _0226_ _0030_ VDD VSS OAI21_X1
X_0859_ prescale[12] _0292_ VDD VSS BUF_X2
X_0860_ _0272_ net2 _0275_ _0293_ VDD VSS OR3_X1
X_0861_ _0293_ _0294_ VDD VSS BUF_X8
X_0862_ _0273_ _0294_ _0295_ VDD VSS NOR2_X1
X_0863_ _0292_ _0295_ _0296_ VDD VSS XOR2_X2
X_0864_ _0129_ _0296_ _0090_ _0297_ VDD VSS OAI21_X1
X_0865_ _0173_ _0286_ _0298_ VDD VSS NOR2_X1
X_0866_ _0184_ _0197_ _0299_ VDD VSS OR2_X1
X_0867_ _0298_ _0299_ _0300_ VDD VSS NOR2_X1
X_0868_ _0104_ _0254_ _0301_ VDD VSS NOR2_X1
X_0869_ _0102_ _0301_ _0302_ VDD VSS XNOR2_X1
X_0870_ _0225_ _0297_ _0300_ _0302_ _0185_ _0031_ VDD VSS
+ AOI221_X1
X_0871_ uart_rx_inst.prescale_reg\[15\] _0303_ VDD VSS INV_X1
X_0872_ _0303_ _0105_ _0304_ VDD VSS AND2_X1
X_0873_ _0102_ _0101_ _0104_ _0305_ VDD VSS NOR3_X1
X_0874_ uart_rx_inst.prescale_reg\[15\] _0304_ _0305_ _0306_
+ VDD VSS MUX2_X1
X_0875_ _0292_ _0263_ _0294_ _0307_ VDD VSS NOR3_X1
X_0876_ net3 _0307_ _0308_ VDD VSS XOR2_X2
X_0877_ _0306_ _0308_ _0194_ _0290_ _0296_ _0309_ VDD VSS
+ AOI221_X2
X_0878_ _0226_ _0309_ _0032_ VDD VSS NOR2_X1
X_0879_ _0299_ _0308_ _0227_ _0310_ VDD VSS AOI21_X1
X_0880_ _0292_ net3 _0311_ VDD VSS OR2_X1
X_0881_ _0273_ _0294_ _0311_ _0312_ VDD VSS OR3_X1
X_0882_ net4 _0312_ _0313_ VDD VSS XNOR2_X2
X_0883_ _0129_ _0313_ _0090_ _0314_ VDD VSS OAI21_X1
X_0884_ uart_rx_inst.prescale_reg\[15\] _0102_ _0104_ _0315_
+ VDD VSS OR3_X1
X_0885_ _0254_ _0315_ _0316_ VDD VSS NOR2_X1
X_0886_ uart_rx_inst.prescale_reg\[16\] _0316_ _0317_ VDD
+ VSS XNOR2_X1
X_0887_ _0225_ _0310_ _0314_ _0317_ _0184_ _0033_ VDD VSS
+ AOI221_X1
X_0888_ uart_rx_inst.prescale_reg\[16\] _0101_ _0315_ _0318_
+ VDD VSS NOR3_X1
X_0889_ uart_rx_inst.prescale_reg\[17\] _0318_ _0319_ VDD
+ VSS XNOR2_X1
X_0890_ net4 _0311_ _0320_ VDD VSS OR2_X1
X_0891_ _0263_ _0294_ _0320_ _0321_ VDD VSS NOR3_X2
X_0892_ net5 _0321_ _0322_ VDD VSS XOR2_X2
X_0893_ _0184_ _0227_ _0313_ _0322_ _0129_ _0323_ VDD VSS
+ AOI221_X2
X_0894_ _0226_ _0319_ _0323_ _0034_ VDD VSS NOR3_X1
X_0895_ net5 _0274_ _0294_ _0320_ _0324_ VDD VSS OR4_X1
X_0896_ _0112_ _0324_ _0089_ _0325_ VDD VSS AOI21_X1
X_0897_ _0325_ _0322_ _0227_ _0326_ VDD VSS AOI21_X1
X_0898_ uart_rx_inst.prescale_reg\[17\] uart_rx_inst.prescale_reg\[16\]
+ _0252_ _0315_ _0327_ VDD VSS OR4_X1
X_0899_ _0095_ _0097_ _0328_ VDD VSS NAND2_X1
X_0900_ _0327_ _0253_ _0328_ _0329_ VDD VSS AOI21_X1
X_0901_ uart_rx_inst.prescale_reg\[18\] _0329_ _0330_ VDD
+ VSS NOR2_X1
X_0902_ uart_rx_inst.prescale_reg\[18\] _0331_ VDD VSS INV_X1
X_0903_ _0331_ _0253_ _0327_ _0332_ VDD VSS NOR3_X1
X_0904_ _0185_ _0225_ _0326_ _0330_ _0332_ _0279_ _0035_ VDD
+ VSS OAI33_X1
X_0905_ _0591_ _0172_ _0107_ _0333_ VDD VSS MUX2_X1
X_0906_ _0226_ _0333_ _0036_ VDD VSS NOR2_X1
X_0907_ _0172_ _0129_ _0081_ _0334_ VDD VSS AOI21_X1
X_0908_ _0185_ _0334_ _0335_ VDD VSS NOR2_X1
X_0909_ _0096_ _0249_ _0336_ VDD VSS XOR2_X1
X_0910_ _0222_ _0336_ _0337_ VDD VSS NOR2_X1
X_0911_ _0226_ _0335_ _0337_ _0037_ VDD VSS NOR3_X1
X_0912_ _0595_ _0112_ _0338_ VDD VSS NOR2_X1
X_0913_ _0081_ _0129_ _0172_ _0339_ VDD VSS NOR3_X1
X_0914_ _0185_ _0338_ _0339_ _0340_ VDD VSS NOR3_X1
X_0915_ uart_rx_inst.prescale_reg\[3\] _0097_ _0341_ VDD VSS
+ XNOR2_X1
X_0916_ _0226_ _0340_ _0341_ _0038_ VDD VSS NOR3_X1
X_0917_ _0232_ _0231_ _0342_ VDD VSS XNOR2_X1
X_0918_ _0089_ _0087_ _0343_ VDD VSS NOR2_X1
X_0919_ _0595_ _0128_ _0344_ VDD VSS OR2_X1
X_0920_ _0222_ _0113_ _0342_ _0343_ _0344_ _0345_ VDD VSS
+ OAI221_X1
X_0921_ _0248_ _0249_ _0346_ VDD VSS NAND2_X1
X_0922_ uart_rx_inst.prescale_reg\[4\] uart_rx_inst.prescale_reg\[3\]
+ _0346_ _0347_ VDD VSS OAI21_X1
X_0923_ _0185_ _0253_ _0347_ _0348_ VDD VSS NAND3_X1
X_0924_ _0270_ _0345_ _0348_ _0039_ VDD VSS AND3_X1
X_0925_ _0098_ _0328_ _0349_ VDD VSS XNOR2_X1
X_0926_ _0299_ _0349_ _0350_ VDD VSS NAND2_X1
X_0927_ _0113_ _0342_ _0343_ _0351_ VDD VSS OAI21_X1
X_0928_ _0081_ _0232_ net6 _0352_ VDD VSS NOR3_X2
X_0929_ _0233_ _0352_ _0353_ VDD VSS XNOR2_X1
X_0930_ _0089_ _0129_ _0353_ _0354_ VDD VSS NAND3_X1
X_0931_ _0222_ _0351_ _0354_ _0355_ VDD VSS NAND3_X1
X_0932_ _0225_ _0350_ _0355_ _0040_ VDD VSS AOI21_X1
X_0933_ _0299_ _0356_ VDD VSS INV_X1
X_0934_ _0111_ _0343_ _0353_ _0357_ VDD VSS OAI21_X1
X_0935_ _0231_ _0234_ _0358_ VDD VSS NAND2_X1
X_0936_ _0235_ _0358_ _0359_ VDD VSS XNOR2_X1
X_0937_ _0089_ _0128_ _0360_ VDD VSS NAND2_X1
X_0938_ _0357_ _0359_ _0360_ _0361_ VDD VSS OAI21_X1
X_0939_ _0098_ _0253_ _0362_ VDD VSS NOR2_X1
X_0940_ uart_rx_inst.prescale_reg\[6\] _0362_ _0363_ VDD VSS
+ XNOR2_X1
X_0941_ _0225_ _0356_ _0361_ _0363_ _0184_ _0041_ VDD VSS
+ AOI221_X1
X_0942_ uart_rx_inst.prescale_reg\[6\] _0098_ _0328_ _0364_
+ VDD VSS NOR3_X1
X_0943_ uart_rx_inst.prescale_reg\[7\] _0364_ _0365_ VDD VSS
+ XOR2_X1
X_0944_ _0270_ _0365_ _0366_ VDD VSS NAND2_X1
X_0945_ _0233_ _0235_ _0367_ VDD VSS NOR2_X1
X_0946_ _0352_ _0367_ _0368_ VDD VSS NAND2_X1
X_0947_ _0236_ _0368_ _0369_ VDD VSS XOR2_X1
X_0948_ _0359_ _0087_ _0089_ _0370_ VDD VSS OAI21_X1
X_0949_ _0369_ _0370_ _0112_ _0371_ VDD VSS MUX2_X1
X_0950_ _0366_ _0371_ _0222_ _0042_ VDD VSS AOI21_X1
X_0951_ _0238_ _0372_ VDD VSS INV_X1
X_0952_ _0372_ _0274_ _0373_ VDD VSS XNOR2_X1
X_0953_ _0107_ _0173_ _0369_ _0373_ _0112_ _0374_ VDD VSS
+ OAI221_X1
X_0954_ uart_rx_inst.prescale_reg\[7\] uart_rx_inst.prescale_reg\[6\]
+ _0098_ _0253_ _0375_ VDD VSS OR4_X1
X_0955_ uart_rx_inst.prescale_reg\[8\] _0375_ _0376_ VDD VSS
+ XNOR2_X1
X_0956_ _0374_ _0376_ _0222_ _0377_ VDD VSS OAI21_X1
X_0957_ _0226_ _0377_ _0043_ VDD VSS NOR2_X1
X_0958_ _0238_ _0227_ _0274_ _0378_ VDD VSS NAND3_X1
X_0959_ _0239_ _0128_ _0379_ VDD VSS AND2_X1
X_0960_ _0379_ _0263_ _0238_ _0380_ VDD VSS OAI21_X1
X_0961_ _0129_ _0172_ _0274_ _0381_ VDD VSS NOR3_X1
X_0962_ _0239_ _0112_ _0263_ _0382_ VDD VSS NOR3_X1
X_0963_ _0372_ _0381_ _0382_ _0383_ VDD VSS OAI21_X1
X_0964_ _0222_ _0378_ _0380_ _0383_ _0384_ VDD VSS NAND4_X1
X_0965_ _0096_ uart_rx_inst.prescale_reg\[1\] _0385_ VDD VSS
+ NOR2_X1
X_0966_ _0588_ _0095_ _0385_ _0099_ _0386_ VDD VSS NAND4_X1
X_0967_ uart_rx_inst.prescale_reg\[9\] _0386_ _0387_ VDD VSS
+ XOR2_X1
X_0968_ _0225_ _0387_ _0185_ _0388_ VDD VSS AOI21_X1
X_0969_ _0384_ _0388_ _0044_ VDD VSS AND2_X1
X_0970_ _0209_ net8 _0045_ VDD VSS OR2_X1
X_0971_ _0147_ _0134_ _0389_ VDD VSS AND2_X1
X_0972_ _0144_ _0146_ _0150_ _0390_ VDD VSS NAND3_X2
X_0973_ _0390_ _0391_ VDD VSS BUF_X4
X_0974_ _0133_ _0389_ _0391_ _0392_ VDD VSS NOR3_X1
X_0975_ _0391_ _0393_ VDD VSS CLKBUF_X3
X_0976_ _0392_ _0393_ _0133_ _0394_ VDD VSS AOI21_X1
X_0977_ _0182_ _0394_ _0046_ VDD VSS NOR2_X1
X_0978_ _0168_ _0393_ _0167_ _0395_ VDD VSS OAI21_X1
X_0979_ _0133_ _0151_ _0396_ VDD VSS NOR2_X1
X_0980_ _0132_ _0396_ _0397_ VDD VSS XNOR2_X1
X_0981_ _0395_ _0397_ _0047_ VDD VSS NOR2_X1
X_0982_ _0132_ _0133_ _0151_ _0398_ VDD VSS NOR3_X1
X_0983_ _0131_ _0398_ _0399_ VDD VSS XNOR2_X1
X_0984_ _0395_ _0399_ _0048_ VDD VSS NOR2_X1
X_0985_ _0131_ _0132_ _0133_ _0391_ _0400_ VDD VSS NOR4_X1
X_0986_ uart_tx_inst.bit_cnt\[3\] _0401_ VDD VSS INV_X1
X_0987_ _0393_ _0167_ _0400_ _0401_ _0402_ VDD VSS OAI22_X1
X_0988_ _0168_ _0402_ _0049_ VDD VSS AND2_X1
X_0989_ _0083_ _0148_ _0390_ _0403_ VDD VSS OAI21_X4
X_0990_ net31 _0135_ _0164_ _0404_ VDD VSS AOI21_X1
X_0991_ _0403_ _0404_ _0050_ VDD VSS NOR2_X1
X_0992_ _0604_ _0164_ _0405_ VDD VSS NOR2_X1
X_0993_ _0133_ _0152_ _0406_ VDD VSS NAND2_X2
X_0994_ _0406_ _0393_ _0407_ VDD VSS NOR2_X1
X_0995_ _0403_ _0405_ _0407_ _0060_ VDD VSS NOR3_X1
X_0996_ uart_tx_inst.prescale_reg\[7\] _0138_ _0408_ VDD VSS
+ OR2_X1
X_0997_ _0606_ _0409_ VDD VSS BUF_X1
X_0998_ uart_tx_inst.prescale_reg\[5\] _0142_ uart_tx_inst.prescale_reg\[3\]
+ _0140_ _0410_ VDD VSS NOR4_X4
X_0999_ _0409_ _0410_ _0411_ VDD VSS NAND2_X1
X_1000_ uart_tx_inst.prescale_reg\[9\] uart_tx_inst.prescale_reg\[8\]
+ _0408_ _0411_ _0412_ VDD VSS OR4_X1
X_1001_ _0389_ _0412_ _0391_ _0413_ VDD VSS MUX2_X1
X_1002_ _0412_ _0164_ _0389_ _0414_ VDD VSS AOI21_X1
X_1003_ _0413_ _0414_ uart_tx_inst.prescale_reg\[10\] _0415_
+ VDD VSS MUX2_X1
X_1004_ _0238_ _0154_ _0263_ _0416_ VDD VSS NOR3_X1
X_1005_ _0239_ _0416_ _0417_ VDD VSS XOR2_X1
X_1006_ _0168_ _0151_ _0417_ _0418_ VDD VSS OAI21_X1
X_1007_ _0415_ _0418_ _0061_ VDD VSS NOR2_X1
X_1008_ _0238_ _0239_ _0153_ _0274_ _0419_ VDD VSS NOR4_X1
X_1009_ _0230_ _0419_ _0420_ VDD VSS XOR2_X1
X_1010_ _0168_ _0151_ _0420_ _0421_ VDD VSS OAI21_X1
X_1011_ _0144_ _0148_ _0391_ _0422_ VDD VSS OAI21_X1
X_1012_ uart_tx_inst.prescale_reg\[11\] _0422_ _0423_ VDD
+ VSS XOR2_X1
X_1013_ _0421_ _0423_ _0062_ VDD VSS NOR2_X1
X_1014_ _0409_ _0137_ _0139_ _0410_ _0424_ VDD VSS NAND4_X2
X_1015_ uart_tx_inst.prescale_reg\[11\] _0424_ _0425_ VDD
+ VSS NOR2_X1
X_1016_ uart_tx_inst.prescale_reg\[12\] _0425_ _0426_ VDD
+ VSS NAND2_X1
X_1017_ _0148_ _0425_ _0391_ _0427_ VDD VSS MUX2_X1
X_1018_ _0426_ _0427_ uart_tx_inst.prescale_reg\[12\] _0428_
+ VDD VSS OAI21_X1
X_1019_ _0153_ _0263_ _0264_ _0429_ VDD VSS OR3_X1
X_1020_ net7 _0429_ _0430_ VDD VSS XNOR2_X1
X_1021_ _0168_ _0151_ _0430_ _0431_ VDD VSS OAI21_X1
X_1022_ _0428_ _0431_ _0063_ VDD VSS NOR2_X1
X_1023_ _0154_ _0274_ _0275_ _0432_ VDD VSS NOR3_X1
X_1024_ _0272_ _0432_ _0433_ VDD VSS XOR2_X1
X_1025_ _0393_ _0433_ _0148_ _0434_ VDD VSS AOI21_X1
X_1026_ uart_tx_inst.prescale_reg\[12\] uart_tx_inst.prescale_reg\[11\]
+ _0435_ VDD VSS NOR2_X1
X_1027_ _0144_ _0435_ _0436_ VDD VSS NAND2_X1
X_1028_ uart_tx_inst.prescale_reg\[13\] _0436_ _0437_ VDD
+ VSS XOR2_X1
X_1029_ _0182_ _0434_ _0437_ _0064_ VDD VSS NOR3_X1
X_1030_ _0272_ _0153_ _0263_ _0275_ _0438_ VDD VSS NOR4_X1
X_1031_ net2 _0438_ _0439_ VDD VSS XNOR2_X1
X_1032_ _0145_ _0424_ _0440_ VDD VSS NOR2_X1
X_1033_ uart_tx_inst.prescale_reg\[14\] _0440_ _0441_ VDD
+ VSS XNOR2_X1
X_1034_ _0439_ _0441_ _0391_ _0442_ VDD VSS MUX2_X1
X_1035_ _0403_ _0442_ _0065_ VDD VSS NOR2_X1
X_1036_ uart_tx_inst.prescale_reg\[14\] uart_tx_inst.prescale_reg\[13\]
+ _0443_ VDD VSS OR2_X1
X_1037_ uart_tx_inst.prescale_reg\[15\] _0436_ _0443_ _0444_
+ VDD VSS OAI21_X1
X_1038_ _0144_ _0146_ _0445_ VDD VSS NAND2_X2
X_1039_ _0445_ _0446_ VDD VSS INV_X1
X_1040_ _0148_ _0150_ _0447_ VDD VSS NAND2_X1
X_1041_ _0154_ _0274_ _0294_ _0448_ VDD VSS NOR3_X1
X_1042_ _0292_ _0448_ _0449_ VDD VSS XOR2_X1
X_1043_ _0446_ _0447_ _0449_ _0450_ VDD VSS OAI21_X1
X_1044_ _0403_ _0444_ _0450_ _0066_ VDD VSS AOI21_X1
X_1045_ _0292_ _0153_ _0263_ _0294_ _0451_ VDD VSS NOR4_X1
X_1046_ net3 _0451_ _0452_ VDD VSS XNOR2_X1
X_1047_ uart_tx_inst.prescale_reg\[15\] uart_tx_inst.prescale_reg\[14\]
+ _0145_ _0424_ _0453_ VDD VSS OR4_X2
X_1048_ uart_tx_inst.prescale_reg\[16\] _0453_ _0454_ VDD
+ VSS XOR2_X1
X_1049_ _0452_ _0454_ _0391_ _0455_ VDD VSS MUX2_X1
X_1050_ _0403_ _0455_ _0067_ VDD VSS NOR2_X1
X_1051_ uart_tx_inst.prescale_reg\[17\] uart_tx_inst.prescale_reg\[16\]
+ _0445_ _0456_ VDD VSS OAI21_X1
X_1052_ _0445_ _0149_ _0457_ VDD VSS NOR2_X1
X_1053_ _0153_ _0274_ _0294_ _0311_ _0458_ VDD VSS NOR4_X1
X_1054_ net4 _0458_ _0459_ VDD VSS XOR2_X1
X_1055_ _0457_ _0459_ uart_tx_inst.prescale_reg\[18\] _0460_
+ VDD VSS OAI21_X1
X_1056_ _0403_ _0456_ _0460_ _0068_ VDD VSS AOI21_X1
X_1057_ uart_tx_inst.prescale_reg\[17\] uart_tx_inst.prescale_reg\[16\]
+ _0461_ VDD VSS NOR2_X1
X_1058_ uart_tx_inst.prescale_reg\[18\] _0461_ _0462_ VDD
+ VSS NAND2_X1
X_1059_ _0168_ _0148_ _0393_ _0453_ _0462_ _0463_ VDD VSS
+ OAI221_X1
X_1060_ _0149_ _0453_ _0445_ _0464_ VDD VSS AOI21_X1
X_1061_ _0154_ _0263_ _0294_ _0320_ _0465_ VDD VSS NOR4_X1
X_1062_ net5 _0465_ _0466_ VDD VSS XOR2_X1
X_1063_ _0464_ _0466_ _0445_ _0467_ VDD VSS OAI21_X1
X_1064_ uart_tx_inst.prescale_reg\[18\] _0468_ VDD VSS INV_X1
X_1065_ _0463_ _0467_ _0468_ _0069_ VDD VSS AOI21_X1
X_1066_ _0607_ _0164_ _0469_ VDD VSS OR2_X1
X_1067_ _0148_ _0406_ _0164_ _0470_ VDD VSS NAND3_X1
X_1068_ _0209_ _0469_ _0470_ _0070_ VDD VSS AOI21_X1
X_1069_ _0445_ _0447_ _0471_ VDD VSS NOR2_X2
X_1070_ _0140_ _0409_ _0472_ VDD VSS XOR2_X1
X_1071_ _0471_ _0406_ _0393_ _0472_ _0473_ VDD VSS AOI22_X1
X_1072_ _0182_ _0473_ _0071_ VDD VSS NOR2_X1
X_1073_ _0081_ _0154_ _0474_ VDD VSS XNOR2_X1
X_1074_ _0141_ _0393_ _0474_ _0471_ _0475_ VDD VSS AOI22_X1
X_1075_ _0148_ _0393_ _0476_ VDD VSS NOR2_X1
X_1076_ uart_tx_inst.prescale_reg\[1\] _0140_ uart_tx_inst.prescale_reg\[0\]
+ _0477_ VDD VSS OR3_X1
X_1077_ uart_tx_inst.prescale_reg\[3\] _0476_ _0477_ _0478_
+ VDD VSS OAI21_X1
X_1078_ _0209_ _0475_ _0478_ _0072_ VDD VSS AOI21_X1
X_1079_ uart_tx_inst.prescale_reg\[3\] _0140_ _0479_ VDD VSS
+ NOR2_X1
X_1080_ _0409_ _0479_ _0480_ VDD VSS NAND2_X1
X_1081_ _0142_ _0480_ _0481_ VDD VSS XOR2_X1
X_1082_ _0595_ _0593_ _0154_ _0482_ VDD VSS MUX2_X1
X_1083_ _0481_ _0482_ _0164_ _0483_ VDD VSS MUX2_X1
X_1084_ _0403_ _0483_ _0073_ VDD VSS NOR2_X1
X_1085_ uart_tx_inst.prescale_reg\[1\] _0484_ VDD VSS INV_X1
X_1086_ uart_tx_inst.prescale_reg\[0\] _0485_ VDD VSS INV_X1
X_1087_ _0484_ _0485_ _0479_ _0486_ VDD VSS NAND3_X1
X_1088_ uart_tx_inst.prescale_reg\[5\] _0142_ _0486_ _0487_
+ VDD VSS OAI21_X1
X_1089_ _0141_ _0143_ _0488_ VDD VSS NAND2_X1
X_1090_ _0231_ _0406_ _0489_ VDD VSS NAND2_X1
X_1091_ _0232_ _0489_ _0490_ VDD VSS XOR2_X1
X_1092_ _0403_ _0487_ _0488_ _0490_ _0471_ _0074_ VDD VSS
+ AOI221_X1
X_1093_ _0391_ _0411_ _0491_ VDD VSS AND2_X1
X_1094_ _0138_ _0476_ _0491_ _0492_ VDD VSS OAI21_X1
X_1095_ _0138_ _0164_ _0411_ _0493_ VDD VSS NOR3_X1
X_1096_ _0406_ _0352_ _0494_ VDD VSS NAND2_X1
X_1097_ _0233_ _0494_ _0495_ VDD VSS XNOR2_X1
X_1098_ _0493_ _0495_ _0471_ _0496_ VDD VSS AOI21_X1
X_1099_ _0209_ _0492_ _0496_ _0075_ VDD VSS AOI21_X1
X_1100_ _0138_ _0488_ _0497_ VDD VSS NOR2_X1
X_1101_ uart_tx_inst.prescale_reg\[7\] _0497_ _0498_ VDD VSS
+ XNOR2_X1
X_1102_ _0154_ _0358_ _0499_ VDD VSS NOR2_X1
X_1103_ _0235_ _0499_ _0500_ VDD VSS XOR2_X1
X_1104_ _0393_ _0500_ _0148_ _0501_ VDD VSS AOI21_X1
X_1105_ _0182_ _0498_ _0501_ _0076_ VDD VSS NOR3_X1
X_1106_ _0408_ _0411_ _0502_ VDD VSS NOR2_X1
X_1107_ uart_tx_inst.prescale_reg\[8\] _0502_ _0503_ VDD VSS
+ XNOR2_X1
X_1108_ _0154_ _0368_ _0504_ VDD VSS NOR2_X1
X_1109_ _0236_ _0504_ _0505_ VDD VSS XNOR2_X1
X_1110_ _0503_ _0505_ _0164_ _0506_ VDD VSS MUX2_X1
X_1111_ _0403_ _0506_ _0077_ VDD VSS NOR2_X1
X_1112_ _0154_ _0274_ _0507_ VDD VSS NOR2_X1
X_1113_ _0238_ _0507_ _0508_ VDD VSS XNOR2_X1
X_1114_ _0484_ _0604_ _0139_ _0410_ _0509_ VDD VSS NAND4_X1
X_1115_ uart_tx_inst.prescale_reg\[9\] _0509_ _0510_ VDD VSS
+ XOR2_X1
X_1116_ _0508_ _0510_ _0391_ _0511_ VDD VSS MUX2_X1
X_1117_ _0403_ _0511_ _0078_ VDD VSS NOR2_X1
X_1118_ net17 net30 _0135_ _0512_ VDD VSS NAND3_X1
X_1119_ _0512_ _0135_ net30 _0513_ VDD VSS OAI21_X1
X_1120_ _0165_ _0513_ _0079_ VDD VSS NOR2_X1
X_1121_ uart_tx_inst.data_reg\[0\] _0514_ VDD VSS INV_X1
X_1122_ _0406_ _0152_ _0514_ _0515_ VDD VSS OAI21_X1
X_1123_ _0082_ net32 _0151_ _0164_ _0515_ _0516_ VDD VSS AOI221_X1
X_1124_ _0516_ _0080_ VDD VSS INV_X1
X_1125_ _0588_ _0589_ _0590_ _0591_ VDD VSS HA_X1
X_1126_ _0592_ _0593_ _0594_ _0595_ VDD VSS HA_X1
X_1127_ _0596_ _0597_ _0598_ _0599_ VDD VSS HA_X1
X_1128_ _0596_ _0597_ _0600_ _0601_ VDD VSS HA_X1
X_1129_ uart_rx_inst.bit_cnt\[0\] _0597_ _0602_ _0603_ VDD
+ VSS HA_X1
X_1130_ _0604_ _0605_ _0606_ _0607_ VDD VSS HA_X1
Xuart_rx_inst.bit_cnt\[0\]$_SDFFE_PP0P_ _0002_ clknet_3_2__leaf_clk