
* cell uart
* pin s_axis_tdata[1]
* pin s_axis_tdata[2]
* pin s_axis_tdata[3]
* pin s_axis_tdata[0]
* pin s_axis_tdata[4]
* pin s_axis_tdata[5]
* pin tx_busy
* pin s_axis_tready
* pin s_axis_tvalid
* pin s_axis_tdata[6]
* pin txd
* pin s_axis_tdata[7]
* pin prescale[3]
* pin prescale[4]
* pin PWELL
* pin NWELL
* pin rst
* pin prescale[9]
* pin prescale[13]
* pin prescale[12]
* pin m_axis_tdata[0]
* pin prescale[10]
* pin prescale[7]
* pin m_axis_tdata[1]
* pin clk
* pin prescale[6]
* pin prescale[2]
* pin prescale[8]
* pin prescale[11]
* pin prescale[1]
* pin prescale[5]
* pin prescale[0]
* pin prescale[14]
* pin m_axis_tdata[2]
* pin prescale[15]
* pin m_axis_tdata[3]
* pin m_axis_tdata[7]
* pin m_axis_tdata[6]
* pin m_axis_tdata[4]
* pin m_axis_tdata[5]
* pin rxd
* pin m_axis_tready
* pin m_axis_tvalid
* pin rx_overrun_error
* pin rx_frame_error
* pin rx_busy
.SUBCKT uart 1 2 3 4 5 6 7 8 9 10 11 12 13 14 18 29 124 266 285 286 299 313 314
+ 321 324 329 340 348 349 352 362 367 377 382 398 413 586 610 611 612 681 682
+ 683 684 685 686
* net 1 s_axis_tdata[1]
* net 2 s_axis_tdata[2]
* net 3 s_axis_tdata[3]
* net 4 s_axis_tdata[0]
* net 5 s_axis_tdata[4]
* net 6 s_axis_tdata[5]
* net 7 tx_busy
* net 8 s_axis_tready
* net 9 s_axis_tvalid
* net 10 s_axis_tdata[6]
* net 11 txd
* net 12 s_axis_tdata[7]
* net 13 prescale[3]
* net 14 prescale[4]
* net 18 PWELL
* net 29 NWELL
* net 124 rst
* net 266 prescale[9]
* net 285 prescale[13]
* net 286 prescale[12]
* net 299 m_axis_tdata[0]
* net 313 prescale[10]
* net 314 prescale[7]
* net 321 m_axis_tdata[1]
* net 324 clk
* net 329 prescale[6]
* net 340 prescale[2]
* net 348 prescale[8]
* net 349 prescale[11]
* net 352 prescale[1]
* net 362 prescale[5]
* net 367 prescale[0]
* net 377 prescale[14]
* net 382 m_axis_tdata[2]
* net 398 prescale[15]
* net 413 m_axis_tdata[3]
* net 586 m_axis_tdata[7]
* net 610 m_axis_tdata[6]
* net 611 m_axis_tdata[4]
* net 612 m_axis_tdata[5]
* net 681 rxd
* net 682 m_axis_tready
* net 683 m_axis_tvalid
* net 684 rx_overrun_error
* net 685 rx_frame_error
* net 686 rx_busy
* cell instance $2 r0 *1 14.25,5.6
X$2 1 18 29 54 BUF_X1
* cell instance $8 r0 *1 13.68,5.6
X$8 2 18 29 19 BUF_X1
* cell instance $14 r0 *1 14.82,5.6
X$14 3 18 29 20 BUF_X1
* cell instance $20 r0 *1 15.39,5.6
X$20 4 18 29 78 BUF_X1
* cell instance $26 r0 *1 17.48,5.6
X$26 5 18 29 22 BUF_X1
* cell instance $32 r0 *1 20.9,5.6
X$32 6 18 29 32 BUF_X1
* cell instance $38 r0 *1 21.47,5.6
X$38 16 18 29 7 BUF_X1
* cell instance $44 r0 *1 23.56,5.6
X$44 24 18 29 8 BUF_X1
* cell instance $50 r0 *1 24.13,5.6
X$50 9 18 29 25 BUF_X1
* cell instance $56 r0 *1 26.6,5.6
X$56 10 18 29 27 BUF_X1
* cell instance $62 r0 *1 25.27,5.6
X$62 26 18 29 11 BUF_X1
* cell instance $68 r0 *1 26.03,5.6
X$68 12 18 29 34 BUF_X1
* cell instance $74 m0 *1 28.88,25.2
X$74 13 18 29 254 CLKBUF_X2
* cell instance $80 r0 *1 29.64,22.4
X$80 14 18 29 253 BUF_X1
* cell instance $86 m0 *1 17.1,8.4
X$86 15 21 33 18 29 39 MUX2_X1
* cell instance $89 r0 *1 15.96,5.6
X$89 15 31 22 18 29 30 MUX2_X1
* cell instance $91 r0 *1 17.29,8.4
X$91 18 741 15 39 40 29 DFF_X1
* cell instance $95 r0 *1 21.85,11.2
X$95 16 69 31 18 70 29 AOI21_X1
* cell instance $99 m0 *1 19,14
X$99 18 723 16 106 40 29 DFF_X1
* cell instance $102 r0 *1 34.01,16.8
X$102 17 18 29 692 INV_X4
* cell instance $104 m0 *1 33.63,14
X$104 18 712 112 89 17 29 DFF_X1
* cell instance $107 r0 *1 31.35,5.6
X$107 18 756 36 28 17 29 DFF_X1
* cell instance $109 m0 *1 31.73,8.4
X$109 18 726 44 43 17 29 DFF_X1
* cell instance $111 r0 *1 35.34,19.6
X$111 167 18 29 17 CLKBUF_X3
* cell instance $114 m0 *1 31.92,22.4
X$114 18 731 203 217 17 29 DFF_X1
* cell instance $116 m0 *1 31.35,19.6
X$116 18 732 198 182 17 29 DFF_X1
* cell instance $118 m0 *1 27.93,16.8
X$118 18 729 136 130 17 29 DFF_X1
* cell instance $120 r0 *1 26.79,16.8
X$120 18 748 175 160 17 29 DFF_X1
* cell instance $129 m0 *1 8.93,33.6
X$129 120 401 368 18 428 29 AOI21_X1
* cell instance $130 m0 *1 5.7,33.6
X$130 18 713 399 428 293 29 DFF_X1
* cell instance $132 m0 *1 9.88,33.6
X$132 18 708 371 383 293 29 DFF_X1
* cell instance $135 m0 *1 16.34,33.6
X$135 97 432 29 18 353 AND2_X1
* cell instance $136 m0 *1 17.1,33.6
X$136 407 384 372 18 29 432 MUX2_X1
* cell instance $138 m0 *1 18.62,33.6
X$138 386 372 18 29 407 NOR2_X1
* cell instance $140 r0 *1 5.7,33.6
X$140 18 754 490 472 293 29 DFF_X1
* cell instance $144 r0 *1 8.93,33.6
X$144 172 429 476 18 472 29 AOI21_X1
* cell instance $145 r0 *1 9.69,33.6
X$145 301 441 18 29 429 NAND2_X1
* cell instance $148 r0 *1 10.83,33.6
X$148 370 441 18 29 431 NAND2_X1
* cell instance $149 r0 *1 11.4,33.6
X$149 275 371 18 29 403 NAND2_X1
* cell instance $153 r0 *1 17.29,33.6
X$153 478 442 18 29 452 XOR2_X1
* cell instance $154 r0 *1 18.43,33.6
X$154 452 381 358 29 457 18 OAI21_X1
* cell instance $156 r0 *1 19.38,33.6
X$156 358 342 18 29 497 NAND2_X1
* cell instance $157 m0 *1 19.76,33.6
X$157 434 385 18 29 384 NAND2_X1
* cell instance $160 m0 *1 21.09,33.6
X$160 323 387 18 29 415 OR2_X2
* cell instance $163 m0 *1 23.75,33.6
X$163 387 443 29 18 360 AND2_X2
* cell instance $164 m0 *1 24.7,33.6
X$164 416 18 29 358 CLKBUF_X3
* cell instance $165 m0 *1 25.65,33.6
X$165 356 370 436 411 418 29 18 417 OAI221_X1
* cell instance $166 m0 *1 26.79,33.6
X$166 418 356 370 29 503 18 OAI21_X1
* cell instance $167 m0 *1 27.55,33.6
X$167 388 418 416 29 412 18 OAI21_X1
* cell instance $168 m0 *1 28.31,33.6
X$168 438 344 412 29 482 18 OAI21_X1
* cell instance $169 m0 *1 29.07,33.6
X$169 380 454 344 29 389 18 OAI21_X1
* cell instance $171 m0 *1 30.02,33.6
X$171 439 358 389 18 29 419 MUX2_X1
* cell instance $173 r0 *1 19.95,33.6
X$173 414 18 29 459 CLKBUF_X2
* cell instance $174 r0 *1 20.71,33.6
X$174 498 460 443 29 434 18 OAI21_X1
* cell instance $175 r0 *1 21.47,33.6
X$175 387 323 18 29 473 NOR2_X1
* cell instance $176 r0 *1 22.04,33.6
X$176 415 461 455 18 29 NOR2_X4
* cell instance $177 r0 *1 23.75,33.6
X$177 443 18 29 461 INV_X1
* cell instance $178 r0 *1 24.13,33.6
X$178 443 387 18 29 416 NAND2_X1
* cell instance $179 r0 *1 24.7,33.6
X$179 360 18 29 391 CLKBUF_X3
* cell instance $180 r0 *1 25.65,33.6
X$180 116 385 475 18 444 29 AOI21_X2
* cell instance $182 r0 *1 27.17,33.6
X$182 388 391 380 18 29 502 NAND3_X1
* cell instance $183 r0 *1 27.93,33.6
X$183 454 380 18 29 418 NOR2_X1
* cell instance $185 r0 *1 30.02,33.6
X$185 18 483 453 701 463 29 DFF_X2
* cell instance $186 m0 *1 32.68,33.6
X$186 439 386 385 358 390 29 18 509 OAI221_X1
* cell instance $187 m0 *1 31.73,33.6
X$187 360 381 18 29 386 OR2_X2
* cell instance $192 r0 *1 35.34,33.6
X$192 381 360 424 18 29 NOR2_X4
* cell instance $194 m0 *1 35.72,33.6
X$194 298 381 391 18 29 374 NOR3_X1
* cell instance $195 m0 *1 37.81,33.6
X$195 298 424 263 18 29 437 NAND3_X1
* cell instance $196 m0 *1 36.86,33.6
X$196 392 393 437 436 18 29 440 NAND4_X1
* cell instance $198 m0 *1 38.76,33.6
X$198 395 358 385 386 327 29 18 435 OAI221_X1
* cell instance $200 m0 *1 40.09,33.6
X$200 404 347 29 451 18 XOR2_X2
* cell instance $205 r0 *1 38.38,33.6
X$205 394 424 451 18 582 29 AOI21_X1
* cell instance $207 r0 *1 39.9,33.6
X$207 424 420 433 391 451 504 29 18 AOI221_X2
* cell instance $208 r0 *1 41.99,33.6
X$208 444 436 18 29 421 NAND2_X1
* cell instance $209 m0 *1 42.37,33.6
X$209 395 386 18 29 430 NOR2_X1
* cell instance $215 r0 *1 44.08,33.6
X$215 396 370 433 18 29 422 NOR3_X1
* cell instance $217 r0 *1 45.03,33.6
X$217 450 444 422 18 423 29 AOI21_X1
* cell instance $218 m0 *1 45.79,33.6
X$218 430 391 378 18 427 29 AOI21_X1
* cell instance $223 m0 *1 49.02,33.6
X$223 18 717 425 426 449 29 DFF_X1
* cell instance $226 r0 *1 45.79,33.6
X$226 391 445 424 378 18 29 446 AOI22_X1
* cell instance $228 r0 *1 46.93,33.6
X$228 421 427 464 469 29 18 426 OAI22_X1
* cell instance $230 r0 *1 48.07,33.6
X$230 464 447 423 29 448 18 OAI21_X1
* cell instance $232 r0 *1 49.02,33.6
X$232 18 738 470 448 449 29 DFF_X1
* cell instance $233 r0 *1 52.25,33.6
X$233 425 18 29 471 BUF_X2
* cell instance $236 m0 *1 19.57,50.4
X$236 677 18 29 676 INV_X1
* cell instance $239 m0 *1 20.14,50.4
X$239 676 642 18 29 679 NAND2_X1
* cell instance $241 m0 *1 20.9,50.4
X$241 18 714 673 680 456 29 DFF_X1
* cell instance $271 m0 *1 7.03,42
X$271 330 587 18 29 577 NAND2_X1
* cell instance $272 m0 *1 6.46,42
X$272 588 18 29 586 BUF_X1
* cell instance $273 m0 *1 7.6,42
X$273 172 598 577 18 597 29 AOI21_X1
* cell instance $275 m0 *1 8.55,42
X$275 301 510 18 29 598 NAND2_X1
* cell instance $276 m0 *1 9.12,42
X$276 301 538 18 29 614 NAND2_X1
* cell instance $277 m0 *1 9.69,42
X$277 477 538 18 29 578 NAND2_X1
* cell instance $278 m0 *1 10.26,42
X$278 301 539 18 29 630 NAND2_X1
* cell instance $285 r0 *1 5.32,42
X$285 587 18 29 611 BUF_X1
* cell instance $286 r0 *1 5.89,42
X$286 18 753 587 597 293 29 DFF_X1
* cell instance $290 r0 *1 9.12,42
X$290 616 18 29 610 BUF_X1
* cell instance $292 r0 *1 9.88,42
X$292 330 616 18 29 631 NAND2_X1
* cell instance $293 r0 *1 10.45,42
X$293 172 630 631 18 628 29 AOI21_X1
* cell instance $296 m0 *1 13.3,42
X$296 301 514 18 29 632 NAND2_X1
* cell instance $297 m0 *1 12.73,42
X$297 477 539 18 29 567 NAND2_X1
* cell instance $299 m0 *1 15.39,42
X$299 601 477 514 18 29 568 MUX2_X1
* cell instance $302 m0 *1 17.67,42
X$302 18 724 604 602 456 29 DFF_X1
* cell instance $303 m0 *1 20.9,42
X$303 604 18 29 458 BUF_X2
* cell instance $304 m0 *1 21.66,42
X$304 391 603 18 29 601 NOR2_X1
* cell instance $306 r0 *1 12.92,42
X$306 330 588 18 29 600 NAND2_X1
* cell instance $307 r0 *1 13.49,42
X$307 172 632 600 18 617 29 AOI21_X1
* cell instance $310 r0 *1 21.85,42
X$310 385 18 29 436 CLKBUF_X3
* cell instance $312 m0 *1 22.61,42
X$312 381 391 302 18 29 605 NOR3_X1
* cell instance $313 m0 *1 23.56,42
X$313 605 409 548 18 29 606 NOR3_X1
* cell instance $316 r0 *1 22.8,42
X$316 18 607 456 700 638 29 DFF_X2
* cell instance $317 m0 *1 27.17,42
X$317 381 302 391 18 590 29 AOI21_X1
* cell instance $318 m0 *1 26.22,42
X$318 444 417 584 29 18 607 AND3_X1
* cell instance $320 m0 *1 29.45,42
X$320 609 545 548 18 29 584 NAND3_X1
* cell instance $323 m0 *1 31.16,42
X$323 545 484 18 29 585 NOR2_X1
* cell instance $325 m0 *1 32.49,42
X$325 505 18 29 464 CLKBUF_X3
* cell instance $328 m0 *1 35.72,42
X$328 424 436 18 29 592 NAND2_X1
* cell instance $329 m0 *1 36.29,42
X$329 433 18 29 548 CLKBUF_X3
* cell instance $330 m0 *1 37.24,42
X$330 505 548 608 18 639 29 AOI21_X1
* cell instance $332 m0 *1 38.19,42
X$332 546 545 572 18 29 571 NOR3_X1
* cell instance $334 m0 *1 39.14,42
X$334 573 545 18 29 530 OR2_X1
* cell instance $338 r0 *1 26.41,42
X$338 637 606 464 18 29 589 NOR3_X1
* cell instance $339 r0 *1 27.17,42
X$339 590 548 18 29 619 NOR2_X1
* cell instance $341 r0 *1 28.12,42
X$341 620 624 29 18 637 XNOR2_X1
* cell instance $342 r0 *1 29.26,42
X$342 621 620 638 29 609 18 OAI21_X1
* cell instance $345 r0 *1 33.44,42
X$345 624 622 18 29 570 NAND2_X1
* cell instance $346 r0 *1 34.01,42
X$346 18 591 626 622 624 523 29 NAND4_X4
* cell instance $347 r0 *1 37.43,42
X$347 440 639 29 18 636 AND2_X1
* cell instance $348 r0 *1 38.19,42
X$348 626 591 18 29 573 NAND2_X1
* cell instance $350 r0 *1 41.8,42
X$350 599 523 385 18 29 NOR2_X4
* cell instance $352 r0 *1 43.89,42
X$352 627 29 433 18 BUF_X4
* cell instance $353 m0 *1 45.03,42
X$353 575 593 522 576 29 599 18 OR4_X2
* cell instance $355 m0 *1 46.36,42
X$355 575 593 522 18 29 551 OR3_X1
* cell instance $356 m0 *1 47.31,42
X$356 575 594 596 18 29 528 MUX2_X1
* cell instance $357 m0 *1 48.64,42
X$357 576 522 593 575 18 29 524 NOR4_X1
* cell instance $358 m0 *1 49.59,42
X$358 575 18 29 595 INV_X1
* cell instance $362 r0 *1 45.22,42
X$362 593 629 29 18 559 XNOR2_X1
* cell instance $363 r0 *1 46.36,42
X$363 530 522 18 29 629 NOR2_X1
* cell instance $364 r0 *1 46.93,42
X$364 522 523 593 18 29 594 NOR3_X1
* cell instance $367 r0 *1 48.26,42
X$367 595 576 29 18 596 AND2_X1
* cell instance $374 m0 *1 45.22,25.2
X$374 255 256 29 18 258 XNOR2_X1
* cell instance $375 r0 *1 45.22,25.2
X$375 265 289 138 281 18 29 256 NOR4_X1
* cell instance $379 r0 *1 46.74,25.2
X$379 282 283 29 18 177 XNOR2_X1
* cell instance $381 r0 *1 48.07,25.2
X$381 284 288 29 18 125 XNOR2_X1
* cell instance $385 r0 *1 50.54,25.2
X$385 285 18 29 255 BUF_X1
* cell instance $387 r0 *1 51.3,25.2
X$387 266 18 29 284 BUF_X1
* cell instance $395 m0 *1 19.19,22.4
X$395 220 120 18 29 200 NOR2_X1
* cell instance $396 m0 *1 15.58,22.4
X$396 18 236 37 698 168 29 DFF_X2
* cell instance $398 m0 *1 20.52,22.4
X$398 172 201 222 18 236 29 AOI21_X1
* cell instance $399 m0 *1 21.28,22.4
X$399 18 209 210 168 156 187 29 NOR4_X4
* cell instance $400 m0 *1 24.7,22.4
X$400 197 240 186 73 18 29 222 AOI22_X1
* cell instance $401 m0 *1 25.65,22.4
X$401 172 242 223 18 241 29 AOI21_X1
* cell instance $402 m0 *1 26.41,22.4
X$402 212 219 202 29 223 18 OAI21_X1
* cell instance $403 m0 *1 27.17,22.4
X$403 226 197 259 18 242 29 AOI21_X1
* cell instance $404 m0 *1 27.93,22.4
X$404 213 69 202 18 29 226 NOR3_X1
* cell instance $421 r0 *1 20.33,22.4
X$421 210 208 18 29 251 XOR2_X1
* cell instance $422 r0 *1 21.47,22.4
X$422 210 209 18 29 159 NOR2_X1
* cell instance $424 r0 *1 22.42,22.4
X$424 225 210 209 29 237 18 OAI21_X1
* cell instance $426 r0 *1 23.37,22.4
X$426 211 237 114 197 271 18 29 238 AOI221_X1
* cell instance $428 r0 *1 24.89,22.4
X$428 18 740 243 241 40 29 DFF_X1
* cell instance $430 r0 *1 28.5,22.4
X$430 243 18 29 202 CLKBUF_X2
* cell instance $432 m0 *1 29.07,22.4
X$432 87 213 29 18 212 AND2_X1
* cell instance $434 m0 *1 30.78,22.4
X$434 203 216 29 18 245 XNOR2_X1
* cell instance $435 m0 *1 30.21,22.4
X$435 213 215 18 29 216 NOR2_X1
* cell instance $443 r0 *1 31.54,22.4
X$443 245 69 278 18 29 244 MUX2_X1
* cell instance $444 r0 *1 32.87,22.4
X$444 244 114 18 29 217 NOR2_X1
* cell instance $448 r0 *1 37.05,22.4
X$448 18 750 227 246 92 29 DFF_X1
* cell instance $449 r0 *1 40.28,22.4
X$449 227 18 29 247 INV_X1
* cell instance $450 r0 *1 40.66,22.4
X$450 249 247 228 18 246 29 AOI21_X1
* cell instance $451 m0 *1 41.04,22.4
X$451 190 229 221 29 228 18 OAI21_X1
* cell instance $453 m0 *1 41.8,22.4
X$453 18 730 234 231 92 29 DFF_X1
* cell instance $454 m0 *1 45.03,22.4
X$454 234 205 18 29 191 OR2_X1
* cell instance $455 m0 *1 45.79,22.4
X$455 258 87 218 18 29 239 MUX2_X1
* cell instance $456 m0 *1 47.12,22.4
X$456 239 114 18 29 235 NOR2_X1
* cell instance $459 r0 *1 41.42,22.4
X$459 248 227 18 29 250 NAND2_X1
* cell instance $460 r0 *1 41.99,22.4
X$460 227 267 230 29 232 18 OAI21_X1
* cell instance $461 r0 *1 42.75,22.4
X$461 114 232 233 18 231 29 AOI21_X1
* cell instance $462 r0 *1 43.51,22.4
X$462 191 190 18 29 230 NOR2_X1
* cell instance $464 r0 *1 44.27,22.4
X$464 205 234 18 29 248 NOR2_X1
* cell instance $466 r0 *1 46.36,22.4
X$466 18 737 205 235 92 29 DFF_X1
* cell instance $473 m0 *1 5.32,28
X$473 18 720 273 315 293 29 DFF_X1
* cell instance $475 m0 *1 8.55,28
X$475 120 316 317 18 272 29 AOI21_X1
* cell instance $476 m0 *1 9.31,28
X$476 275 350 318 29 300 18 OAI21_X1
* cell instance $477 m0 *1 10.07,28
X$477 301 294 18 29 316 NAND2_X1
* cell instance $480 r0 *1 5.32,28
X$480 274 18 29 299 BUF_X1
* cell instance $482 r0 *1 6.08,28
X$482 273 18 29 321 BUF_X1
* cell instance $483 r0 *1 6.65,28
X$483 330 273 18 29 331 NAND2_X1
* cell instance $487 r0 *1 7.22,28
X$487 120 332 331 18 315 29 AOI21_X1
* cell instance $488 r0 *1 7.98,28
X$488 330 274 18 29 317 NAND2_X1
* cell instance $489 r0 *1 8.55,28
X$489 18 757 294 300 293 29 DFF_X1
* cell instance $491 m0 *1 11.02,28
X$491 275 294 18 29 318 NAND2_X1
* cell instance $497 r0 *1 12.16,28
X$497 301 341 18 29 332 NAND2_X1
* cell instance $500 r0 *1 15.01,28
X$500 18 322 293 333 323 29 DFF_X2
* cell instance $501 r0 *1 18.62,28
X$501 364 333 703 29 18 342 HA_X1
* cell instance $505 r0 *1 22.99,28
X$505 343 18 29 325 INV_X1
* cell instance $506 r0 *1 23.37,28
X$506 334 325 355 29 18 336 HA_X1
* cell instance $507 m0 *1 23.56,28
X$507 302 18 29 334 INV_X1
* cell instance $510 m0 *1 24.51,28
X$510 302 128 29 18 240 XNOR2_X1
* cell instance $512 m0 *1 25.65,28
X$512 116 18 29 172 CLKBUF_X3
* cell instance $515 m0 *1 28.88,28
X$515 304 261 18 29 303 NAND2_X1
* cell instance $516 m0 *1 29.45,28
X$516 254 277 18 29 304 NOR2_X2
* cell instance $517 m0 *1 30.4,28
X$517 277 254 18 29 307 OR2_X1
* cell instance $518 m0 *1 31.16,28
X$518 306 305 29 18 278 XNOR2_X1
* cell instance $519 m0 *1 32.3,28
X$519 307 308 18 29 320 OR2_X1
* cell instance $521 r0 *1 25.27,28
X$521 336 18 29 261 CLKBUF_X2
* cell instance $524 r0 *1 26.98,28
X$524 116 18 29 120 CLKBUF_X3
* cell instance $525 r0 *1 27.93,28
X$525 253 303 29 18 344 XNOR2_X1
* cell instance $526 r0 *1 29.07,28
X$526 324 18 29 167 CLKBUF_X3
* cell instance $528 r0 *1 30.4,28
X$528 302 343 253 306 18 29 308 OR4_X1
* cell instance $529 r0 *1 31.54,28
X$529 306 253 18 29 326 NOR2_X1
* cell instance $530 r0 *1 32.11,28
X$530 326 304 261 18 29 359 NAND3_X1
* cell instance $531 r0 *1 32.87,28
X$531 326 304 261 339 18 351 29 NAND4_X2
* cell instance $532 m0 *1 35.91,28
X$532 309 310 18 29 170 XOR2_X1
* cell instance $533 m0 *1 33.44,28
X$533 18 289 29 320 BUF_X8
* cell instance $534 m0 *1 37.05,28
X$534 289 128 263 18 29 310 NOR3_X1
* cell instance $536 m0 *1 38,28
X$536 298 138 309 263 18 29 279 NOR4_X1
* cell instance $537 m0 *1 38.95,28
X$537 295 279 18 29 127 XOR2_X1
* cell instance $538 m0 *1 40.09,28
X$538 296 298 128 18 29 292 NOR3_X1
* cell instance $541 r0 *1 35.34,28
X$541 309 263 18 29 339 NOR2_X1
* cell instance $544 r0 *1 37.81,28
X$544 308 307 263 18 29 338 NOR3_X1
* cell instance $546 r0 *1 38.76,28
X$546 309 338 29 18 327 XNOR2_X1
* cell instance $547 r0 *1 39.9,28
X$547 296 308 307 264 18 29 337 NOR4_X1
* cell instance $548 r0 *1 40.85,28
X$548 346 265 289 128 18 29 280 NOR4_X1
* cell instance $550 m0 *1 41.23,28
X$550 347 280 18 29 229 XOR2_X1
* cell instance $551 m0 *1 42.56,28
X$551 297 265 298 138 18 29 311 NOR4_X1
* cell instance $554 r0 *1 41.99,28
X$554 328 297 18 29 346 OR2_X1
* cell instance $556 r0 *1 43.13,28
X$556 282 337 29 18 396 XNOR2_X1
* cell instance $558 m0 *1 43.89,28
X$558 296 298 18 29 335 NOR2_X1
* cell instance $559 m0 *1 44.65,28
X$559 281 255 18 29 297 OR2_X1
* cell instance $562 r0 *1 44.65,28
X$562 335 264 29 445 18 XOR2_X2
* cell instance $563 m0 *1 46.74,28
X$563 296 289 138 264 18 29 283 NOR4_X1
* cell instance $564 m0 *1 45.79,28
X$564 263 309 295 18 29 312 OR3_X1
* cell instance $565 m0 *1 47.69,28
X$565 138 289 312 18 29 288 OR3_X1
* cell instance $566 m0 *1 48.64,28
X$566 264 282 296 18 29 319 OR3_X1
* cell instance $567 m0 *1 49.59,28
X$567 263 309 295 284 29 296 18 OR4_X2
* cell instance $568 m0 *1 50.92,28
X$568 286 18 29 281 BUF_X2
* cell instance $573 r0 *1 46.93,28
X$573 312 289 18 29 363 NOR2_X1
* cell instance $574 r0 *1 47.5,28
X$574 18 265 29 319 BUF_X8
* cell instance $575 r0 *1 49.97,28
X$575 314 18 29 309 BUF_X2
* cell instance $578 r0 *1 52.44,28
X$578 349 18 29 282 BUF_X1
* cell instance $580 r0 *1 53.39,28
X$580 329 18 29 263 CLKBUF_X3
* cell instance $582 m0 *1 53.58,28
X$582 313 18 29 264 BUF_X2
* cell instance $584 m0 *1 18.43,8.4
X$584 18 722 23 52 40 29 DFF_X1
* cell instance $586 m0 *1 21.85,8.4
X$586 23 21 50 18 29 52 MUX2_X1
* cell instance $588 m0 *1 23.37,8.4
X$588 31 24 25 18 29 53 NAND3_X1
* cell instance $590 m0 *1 24.32,8.4
X$590 24 31 53 29 66 18 OAI21_X1
* cell instance $592 m0 *1 25.27,8.4
X$592 57 51 34 18 29 63 MUX2_X1
* cell instance $593 m0 *1 26.6,8.4
X$593 41 51 27 18 29 50 MUX2_X1
* cell instance $596 m0 *1 31.16,8.4
X$596 47 35 18 29 28 NOR2_X1
* cell instance $597 m0 *1 34.96,8.4
X$597 36 18 29 42 BUF_X2
* cell instance $610 m0 *1 8.93,8.4
X$610 18 721 60 45 37 29 DFF_X1
* cell instance $612 m0 *1 12.16,8.4
X$612 18 707 38 48 37 29 DFF_X1
* cell instance $613 m0 *1 15.39,8.4
X$613 38 21 30 18 29 48 MUX2_X1
* cell instance $616 r0 *1 11.59,8.4
X$616 60 21 61 18 29 45 MUX2_X1
* cell instance $617 r0 *1 12.92,8.4
X$617 60 31 19 18 29 49 MUX2_X1
* cell instance $618 r0 *1 14.25,8.4
X$618 38 31 20 18 29 61 MUX2_X1
* cell instance $622 r0 *1 21.28,8.4
X$622 18 743 24 67 40 29 DFF_X1
* cell instance $623 r0 *1 24.51,8.4
X$623 66 56 18 29 67 NOR2_X1
* cell instance $626 r0 *1 25.65,8.4
X$626 41 21 63 18 29 62 MUX2_X1
* cell instance $627 r0 *1 26.98,8.4
X$627 18 758 41 62 40 29 DFF_X1
* cell instance $628 r0 *1 30.21,8.4
X$628 18 42 79 46 71 29 NOR3_X4
* cell instance $629 r0 *1 32.87,8.4
X$629 59 35 18 29 43 NOR2_X1
* cell instance $631 r0 *1 33.63,8.4
X$631 44 18 29 46 CLKBUF_X3
* cell instance $632 r0 *1 34.58,8.4
X$632 46 58 29 18 59 XNOR2_X1
* cell instance $645 m0 *1 5.89,44.8
X$645 613 18 29 612 BUF_X1
* cell instance $649 r0 *1 6.27,44.8
X$649 18 746 613 641 293 29 DFF_X1
* cell instance $650 m0 *1 7.41,44.8
X$650 172 614 615 18 641 29 AOI21_X1
* cell instance $651 m0 *1 6.84,44.8
X$651 330 613 18 29 615 NAND2_X1
* cell instance $652 m0 *1 8.17,44.8
X$652 18 719 616 628 293 29 DFF_X1
* cell instance $660 m0 *1 13.3,44.8
X$660 18 716 588 617 293 29 DFF_X1
* cell instance $664 r0 *1 17.86,44.8
X$664 18 661 618 653 456 29 DFF_X1
* cell instance $665 m0 *1 20.14,44.8
X$665 455 459 642 618 18 29 633 NAND4_X1
* cell instance $667 m0 *1 21.09,44.8
X$667 618 18 29 603 INV_X1
* cell instance $668 m0 *1 21.47,44.8
X$668 633 548 120 18 29 680 NOR3_X1
* cell instance $670 m0 *1 25.27,44.8
X$670 18 589 456 693 620 29 DFF_X2
* cell instance $671 m0 *1 28.88,44.8
X$671 620 638 622 18 29 NOR2_X4
* cell instance $672 m0 *1 30.59,44.8
X$672 623 644 18 29 621 NAND2_X1
* cell instance $673 m0 *1 31.16,44.8
X$673 622 623 644 18 29 545 NAND3_X2
* cell instance $674 m0 *1 32.49,44.8
X$674 645 385 381 18 29 640 MUX2_X1
* cell instance $676 r0 *1 21.09,44.8
X$676 455 436 459 618 18 29 660 NAND4_X1
* cell instance $677 r0 *1 22.04,44.8
X$677 455 459 380 18 29 662 NAND3_X1
* cell instance $678 r0 *1 22.8,44.8
X$678 662 548 120 18 29 678 NOR3_X1
* cell instance $682 r0 *1 27.17,44.8
X$682 664 619 464 18 29 643 NOR3_X1
* cell instance $683 r0 *1 27.93,44.8
X$683 651 436 18 29 664 NOR2_X1
* cell instance $684 r0 *1 28.5,44.8
X$684 654 623 18 29 651 XOR2_X1
* cell instance $685 r0 *1 29.64,44.8
X$685 18 668 667 652 453 29 DFF_X1
* cell instance $686 r0 *1 32.87,44.8
X$686 640 464 18 29 652 NOR2_X1
* cell instance $687 r0 *1 33.44,44.8
X$687 669 18 29 623 BUF_X1
* cell instance $688 r0 *1 34.01,44.8
X$688 591 666 622 646 18 29 650 NAND4_X1
* cell instance $690 m0 *1 34.2,44.8
X$690 591 622 623 644 18 29 635 NAND4_X1
* cell instance $691 m0 *1 35.91,44.8
X$691 625 650 18 29 608 XOR2_X1
* cell instance $693 r0 *1 34.96,44.8
X$693 548 646 18 29 647 NAND2_X1
* cell instance $695 r0 *1 35.72,44.8
X$695 464 647 592 18 655 29 AOI21_X1
* cell instance $696 r0 *1 36.48,44.8
X$696 18 762 625 636 453 29 DFF_X1
* cell instance $697 m0 *1 38.38,44.8
X$697 625 635 648 29 649 18 OAI21_X1
* cell instance $698 m0 *1 37.43,44.8
X$698 648 625 18 29 626 NOR2_X2
* cell instance $699 m0 *1 39.14,44.8
X$699 436 634 435 29 672 18 OAI21_X1
* cell instance $700 m0 *1 39.9,44.8
X$700 530 649 18 29 634 NAND2_X1
* cell instance $702 m0 *1 43.51,44.8
X$702 523 599 18 29 627 OR2_X1
* cell instance $709 r0 *1 40.09,44.8
X$709 672 464 18 29 663 NOR2_X1
* cell instance $711 r0 *1 43.7,44.8
X$711 18 736 658 574 449 29 DFF_X1
* cell instance $712 r0 *1 46.93,44.8
X$712 658 18 29 593 BUF_X1
* cell instance $716 m0 *1 5.89,36.4
X$716 490 18 29 413 BUF_X1
* cell instance $729 m0 *1 8.36,36.4
X$729 330 490 18 29 476 NAND2_X1
* cell instance $730 m0 *1 9.12,36.4
X$730 18 706 441 492 293 29 DFF_X1
* cell instance $734 r0 *1 9.31,36.4
X$734 477 510 18 29 511 NAND2_X1
* cell instance $736 r0 *1 10.26,36.4
X$736 370 510 18 29 493 NAND2_X1
* cell instance $737 r0 *1 10.83,36.4
X$737 275 493 512 29 492 18 OAI21_X1
* cell instance $738 r0 *1 11.59,36.4
X$738 477 441 18 29 512 NAND2_X1
* cell instance $740 m0 *1 13.68,36.4
X$740 167 18 29 293 CLKBUF_X3
* cell instance $742 m0 *1 14.63,36.4
X$742 18 495 456 478 479 29 DFF_X2
* cell instance $744 m0 *1 18.43,36.4
X$744 372 323 458 18 29 442 NOR3_X1
* cell instance $745 m0 *1 19.19,36.4
X$745 458 384 497 18 29 515 OR3_X1
* cell instance $746 m0 *1 20.14,36.4
X$746 458 479 18 29 443 NOR2_X2
* cell instance $747 m0 *1 21.09,36.4
X$747 465 387 29 18 460 AND2_X1
* cell instance $748 m0 *1 21.85,36.4
X$748 443 473 460 29 18 480 OAI21_X4
* cell instance $749 m0 *1 24.32,36.4
X$749 387 465 18 29 501 NAND2_X1
* cell instance $750 m0 *1 24.89,36.4
X$750 461 415 501 18 475 29 AOI21_X1
* cell instance $751 m0 *1 25.65,36.4
X$751 380 18 29 465 INV_X1
* cell instance $753 m0 *1 26.79,36.4
X$753 502 503 436 18 29 481 NAND3_X1
* cell instance $758 r0 *1 15.01,36.4
X$758 455 385 533 18 330 29 NAND3_X4
* cell instance $760 r0 *1 17.67,36.4
X$760 465 372 478 29 18 533 AND3_X1
* cell instance $762 r0 *1 18.81,36.4
X$762 457 384 479 18 29 534 MUX2_X1
* cell instance $763 r0 *1 20.14,36.4
X$763 459 342 18 29 535 NOR2_X1
* cell instance $764 r0 *1 20.71,36.4
X$764 479 535 458 29 18 454 OAI21_X2
* cell instance $765 r0 *1 22.04,36.4
X$765 415 459 18 29 498 NOR2_X1
* cell instance $766 r0 *1 22.61,36.4
X$766 18 480 385 137 454 477 29 NAND4_X4
* cell instance $767 r0 *1 26.03,36.4
X$767 137 433 480 29 18 505 OAI21_X4
* cell instance $769 m0 *1 27.93,36.4
X$769 416 433 18 29 499 NOR2_X2
* cell instance $772 r0 *1 28.69,36.4
X$772 482 537 505 433 517 18 29 516 AOI221_X1
* cell instance $773 r0 *1 29.83,36.4
X$773 518 18 29 537 INV_X1
* cell instance $774 m0 *1 30.78,36.4
X$774 463 508 18 29 507 XOR2_X1
* cell instance $775 m0 *1 30.02,36.4
X$775 462 436 419 18 483 29 AOI21_X1
* cell instance $776 m0 *1 31.92,36.4
X$776 507 444 18 29 462 NAND2_X1
* cell instance $779 r0 *1 30.97,36.4
X$779 570 484 519 18 29 508 NOR3_X1
* cell instance $782 r0 *1 32.3,36.4
X$782 18 463 543 519 484 591 29 NOR4_X4
* cell instance $783 m0 *1 33.63,36.4
X$783 474 464 18 29 544 NOR2_X1
* cell instance $784 m0 *1 32.87,36.4
X$784 436 485 509 29 474 18 OAI21_X1
* cell instance $788 m0 *1 36.67,36.4
X$788 433 137 18 29 466 NAND2_X1
* cell instance $793 r0 *1 37.62,36.4
X$793 18 765 550 506 453 29 DFF_X1
* cell instance $794 m0 *1 40.85,36.4
X$794 504 554 464 18 29 506 NOR3_X1
* cell instance $797 m0 *1 41.8,36.4
X$797 465 420 391 29 486 18 OAI21_X1
* cell instance $800 r0 *1 40.85,36.4
X$800 449 18 29 691 INV_X4
* cell instance $801 r0 *1 41.8,36.4
X$801 486 500 505 433 562 18 29 520 AOI221_X1
* cell instance $802 r0 *1 42.94,36.4
X$802 167 18 29 449 CLKBUF_X3
* cell instance $803 m0 *1 43.89,36.4
X$803 465 397 391 29 487 18 OAI21_X1
* cell instance $805 m0 *1 44.65,36.4
X$805 396 386 18 29 521 NOR2_X1
* cell instance $806 m0 *1 45.22,36.4
X$806 386 433 18 29 467 NOR2_X1
* cell instance $807 m0 *1 45.79,36.4
X$807 496 466 421 446 29 18 494 OAI22_X1
* cell instance $809 m0 *1 46.93,36.4
X$809 468 467 445 18 447 29 AOI21_X1
* cell instance $811 m0 *1 47.88,36.4
X$811 488 471 523 18 469 29 AOI21_X1
* cell instance $813 m0 *1 48.83,36.4
X$813 18 705 525 494 449 29 DFF_X1
* cell instance $814 m0 *1 52.06,36.4
X$814 470 18 29 489 INV_X1
* cell instance $815 m0 *1 52.44,36.4
X$815 491 489 116 18 29 450 NOR3_X1
* cell instance $818 r0 *1 43.89,36.4
X$818 518 424 365 18 500 29 AOI21_X1
* cell instance $819 r0 *1 44.65,36.4
X$819 365 499 528 397 467 531 29 18 AOI221_X2
* cell instance $820 r0 *1 46.74,36.4
X$820 530 471 18 29 527 NOR2_X1
* cell instance $821 r0 *1 47.31,36.4
X$821 525 527 29 18 496 XNOR2_X1
* cell instance $823 r0 *1 48.83,36.4
X$823 526 471 18 29 488 NOR2_X1
* cell instance $825 r0 *1 49.78,36.4
X$825 523 525 471 18 29 491 NOR3_X1
* cell instance $827 r0 *1 50.92,36.4
X$827 470 471 525 18 29 522 OR3_X2
* cell instance $840 m0 *1 6.27,39.2
X$840 18 711 510 556 293 29 DFF_X1
* cell instance $841 m0 *1 9.5,39.2
X$841 275 558 511 29 556 18 OAI21_X1
* cell instance $842 m0 *1 10.26,39.2
X$842 370 538 18 29 558 NAND2_X1
* cell instance $843 m0 *1 10.83,39.2
X$843 477 18 29 275 BUF_X2
* cell instance $846 m0 *1 12.54,39.2
X$846 275 513 567 29 529 18 OAI21_X1
* cell instance $852 r0 *1 6.65,39.2
X$852 18 742 538 557 293 29 DFF_X1
* cell instance $856 r0 *1 9.88,39.2
X$856 275 579 578 29 557 18 OAI21_X1
* cell instance $857 r0 *1 10.64,39.2
X$857 370 539 18 29 579 NAND2_X1
* cell instance $859 r0 *1 11.4,39.2
X$859 18 752 539 529 293 29 DFF_X1
* cell instance $861 m0 *1 13.68,39.2
X$861 370 514 18 29 513 NAND2_X1
* cell instance $862 m0 *1 15.01,39.2
X$862 560 18 29 301 BUF_X2
* cell instance $863 m0 *1 15.77,39.2
X$863 97 534 29 18 495 AND2_X1
* cell instance $864 m0 *1 16.53,39.2
X$864 385 455 533 29 18 560 AND3_X1
* cell instance $866 m0 *1 19,39.2
X$866 381 342 18 29 540 NOR2_X1
* cell instance $867 m0 *1 19.57,39.2
X$867 479 18 29 561 INV_X1
* cell instance $868 m0 *1 19.95,39.2
X$868 342 459 18 29 541 OR2_X1
* cell instance $869 m0 *1 20.71,39.2
X$869 167 18 29 456 CLKBUF_X3
* cell instance $870 m0 *1 21.66,39.2
X$870 456 18 29 689 INV_X4
* cell instance $871 m0 *1 22.61,39.2
X$871 458 18 29 583 INV_X1
* cell instance $874 m0 *1 26.22,39.2
X$874 433 455 18 29 518 OR2_X1
* cell instance $875 m0 *1 26.98,39.2
X$875 505 481 566 18 565 29 AOI21_X1
* cell instance $877 r0 *1 14.63,39.2
X$877 18 759 514 568 456 29 DFF_X1
* cell instance $879 r0 *1 18.24,39.2
X$879 120 515 581 18 602 29 AOI21_X1
* cell instance $880 r0 *1 19,39.2
X$880 540 548 458 29 581 18 OAI21_X1
* cell instance $881 r0 *1 19.76,39.2
X$881 603 561 583 541 381 29 18 AOI211_X2
* cell instance $885 r0 *1 25.46,39.2
X$885 18 751 542 565 456 29 DFF_X1
* cell instance $886 m0 *1 31.73,39.2
X$886 463 519 484 545 18 29 536 OR4_X1
* cell instance $887 m0 *1 28.12,39.2
X$887 18 516 453 695 519 29 DFF_X2
* cell instance $888 m0 *1 32.87,39.2
X$888 543 536 29 18 485 XNOR2_X1
* cell instance $890 r0 *1 28.69,39.2
X$890 542 18 29 484 BUF_X2
* cell instance $891 r0 *1 29.45,39.2
X$891 569 518 18 29 566 NAND2_X1
* cell instance $892 r0 *1 30.02,39.2
X$892 484 570 29 18 569 XNOR2_X1
* cell instance $893 r0 *1 31.16,39.2
X$893 519 585 29 18 517 XNOR2_X1
* cell instance $895 r0 *1 32.49,39.2
X$895 18 544 453 699 543 29 DFF_X2
* cell instance $896 m0 *1 35.34,39.2
X$896 167 18 29 453 CLKBUF_X3