* CDL Netlist generated by OpenROAD

*.BUSDELIMITER [

.SUBCKT gpio_controller clk gpio_dir[0] gpio_dir[10] gpio_dir[11]
+ gpio_dir[12] gpio_dir[13] gpio_dir[14] gpio_dir[15] gpio_dir[16]
+ gpio_dir[17] gpio_dir[18] gpio_dir[19] gpio_dir[1] gpio_dir[20]
+ gpio_dir[21] gpio_dir[22] gpio_dir[23] gpio_dir[24] gpio_dir[25]
+ gpio_dir[26] gpio_dir[27] gpio_dir[28] gpio_dir[29] gpio_dir[2]
+ gpio_dir[30] gpio_dir[31] gpio_dir[3] gpio_dir[4] gpio_dir[5]
+ gpio_dir[6] gpio_dir[7] gpio_dir[8] gpio_dir[9] gpio_in[0]
+ gpio_in[10] gpio_in[11] gpio_in[12] gpio_in[13] gpio_in[14]
+ gpio_in[15] gpio_in[16] gpio_in[17] gpio_in[18] gpio_in[19]
+ gpio_in[1] gpio_in[20] gpio_in[21] gpio_in[22] gpio_in[23]
+ gpio_in[24] gpio_in[25] gpio_in[26] gpio_in[27] gpio_in[28]
+ gpio_in[29] gpio_in[2] gpio_in[30] gpio_in[31] gpio_in[3]
+ gpio_in[4] gpio_in[5] gpio_in[6] gpio_in[7] gpio_in[8] gpio_in[9]
+ gpio_out[0] gpio_out[10] gpio_out[11] gpio_out[12] gpio_out[13]
+ gpio_out[14] gpio_out[15] gpio_out[16] gpio_out[17] gpio_out[18]
+ gpio_out[19] gpio_out[1] gpio_out[20] gpio_out[21] gpio_out[22]
+ gpio_out[23] gpio_out[24] gpio_out[25] gpio_out[26] gpio_out[27]
+ gpio_out[28] gpio_out[29] gpio_out[2] gpio_out[30] gpio_out[31]
+ gpio_out[3] gpio_out[4] gpio_out[5] gpio_out[6] gpio_out[7]
+ gpio_out[8] gpio_out[9] gpio_pins[0] gpio_pins[10] gpio_pins[11]
+ gpio_pins[12] gpio_pins[13] gpio_pins[14] gpio_pins[15] gpio_pins[16]
+ gpio_pins[17] gpio_pins[18] gpio_pins[19] gpio_pins[1] gpio_pins[20]
+ gpio_pins[21] gpio_pins[22] gpio_pins[23] gpio_pins[24] gpio_pins[25]
+ gpio_pins[26] gpio_pins[27] gpio_pins[28] gpio_pins[29] gpio_pins[2]
+ gpio_pins[30] gpio_pins[31] gpio_pins[3] gpio_pins[4] gpio_pins[5]
+ gpio_pins[6] gpio_pins[7] gpio_pins[8] gpio_pins[9] int_clear[0]
+ int_clear[10] int_clear[11] int_clear[12] int_clear[13] int_clear[14]
+ int_clear[15] int_clear[16] int_clear[17] int_clear[18] int_clear[19]
+ int_clear[1] int_clear[20] int_clear[21] int_clear[22] int_clear[23]
+ int_clear[24] int_clear[25] int_clear[26] int_clear[27] int_clear[28]
+ int_clear[29] int_clear[2] int_clear[30] int_clear[31] int_clear[3]
+ int_clear[4] int_clear[5] int_clear[6] int_clear[7] int_clear[8]
+ int_clear[9] int_enable[0] int_enable[10] int_enable[11] int_enable[12]
+ int_enable[13] int_enable[14] int_enable[15] int_enable[16]
+ int_enable[17] int_enable[18] int_enable[19] int_enable[1]
+ int_enable[20] int_enable[21] int_enable[22] int_enable[23]
+ int_enable[24] int_enable[25] int_enable[26] int_enable[27]
+ int_enable[28] int_enable[29] int_enable[2] int_enable[30]
+ int_enable[31] int_enable[3] int_enable[4] int_enable[5] int_enable[6]
+ int_enable[7] int_enable[8] int_enable[9] int_out int_polarity[0]
+ int_polarity[10] int_polarity[11] int_polarity[12] int_polarity[13]
+ int_polarity[14] int_polarity[15] int_polarity[16] int_polarity[17]
+ int_polarity[18] int_polarity[19] int_polarity[1] int_polarity[20]
+ int_polarity[21] int_polarity[22] int_polarity[23] int_polarity[24]
+ int_polarity[25] int_polarity[26] int_polarity[27] int_polarity[28]
+ int_polarity[29] int_polarity[2] int_polarity[30] int_polarity[31]
+ int_polarity[3] int_polarity[4] int_polarity[5] int_polarity[6]
+ int_polarity[7] int_polarity[8] int_polarity[9] int_status[0]
+ int_status[10] int_status[11] int_status[12] int_status[13]
+ int_status[14] int_status[15] int_status[16] int_status[17]
+ int_status[18] int_status[19] int_status[1] int_status[20]
+ int_status[21] int_status[22] int_status[23] int_status[24]
+ int_status[25] int_status[26] int_status[27] int_status[28]
+ int_status[29] int_status[2] int_status[30] int_status[31]
+ int_status[3] int_status[4] int_status[5] int_status[6] int_status[7]
+ int_status[8] int_status[9] int_type[0] int_type[10] int_type[11]
+ int_type[12] int_type[13] int_type[14] int_type[15] int_type[16]
+ int_type[17] int_type[18] int_type[19] int_type[1] int_type[20]
+ int_type[21] int_type[22] int_type[23] int_type[24] int_type[25]
+ int_type[26] int_type[27] int_type[28] int_type[29] int_type[2]
+ int_type[30] int_type[31] int_type[3] int_type[4] int_type[5]
+ int_type[6] int_type[7] int_type[8] int_type[9] rst_n
X_212_ gpio_in_sync2\[0\] gpio_in_prev\[0\] _032_ VDD VSS
+ gf180mcu_fd_sc_mcu9t5v0__xnor2_2
X_213_ net130 _032_ _033_ VDD VSS gf180mcu_fd_sc_mcu9t5v0__nand2_2
X_214_ gpio_in_sync2\[0\] net98 _034_ VDD VSS gf180mcu_fd_sc_mcu9t5v0__xnor2_2
X_215_ net66 _034_ _035_ VDD VSS gf180mcu_fd_sc_mcu9t5v0__and2_2
X_216_ _033_ _035_ net195 _036_ VDD VSS gf180mcu_fd_sc_mcu9t5v0__aoi21_2
X_217_ net34 _036_ _000_ VDD VSS gf180mcu_fd_sc_mcu9t5v0__nor2_2
X_218_ net196 _037_ VDD VSS gf180mcu_fd_sc_mcu9t5v0__clkinv_2
X_219_ gpio_in_prev\[10\] net131 _038_ VDD VSS gf180mcu_fd_sc_mcu9t5v0__nand2_2
X_220_ gpio_in_sync2\[10\] net99 _038_ _039_ VDD VSS gf180mcu_fd_sc_mcu9t5v0__and3_2
X_221_ gpio_in_prev\[10\] _040_ VDD VSS gf180mcu_fd_sc_mcu9t5v0__clkinv_2
X_222_ _040_ net131 net99 gpio_in_sync2\[10\] _041_ VDD VSS
+ gf180mcu_fd_sc_mcu9t5v0__aoi211_2
X_223_ _039_ _041_ net67 _042_ VDD VSS gf180mcu_fd_sc_mcu9t5v0__oai21_2
X_224_ _037_ _042_ net35 _001_ VDD VSS gf180mcu_fd_sc_mcu9t5v0__aoi21_2
X_225_ net197 _043_ VDD VSS gf180mcu_fd_sc_mcu9t5v0__clkinv_2
X_226_ gpio_in_prev\[11\] net132 _044_ VDD VSS gf180mcu_fd_sc_mcu9t5v0__nand2_2
X_227_ gpio_in_sync2\[11\] net100 _044_ _045_ VDD VSS gf180mcu_fd_sc_mcu9t5v0__and3_2
X_228_ gpio_in_prev\[11\] _046_ VDD VSS gf180mcu_fd_sc_mcu9t5v0__clkinv_2
X_229_ _046_ net132 net100 gpio_in_sync2\[11\] _047_ VDD VSS
+ gf180mcu_fd_sc_mcu9t5v0__aoi211_2
X_230_ _045_ _047_ net68 _048_ VDD VSS gf180mcu_fd_sc_mcu9t5v0__oai21_2
X_231_ _043_ _048_ net36 _002_ VDD VSS gf180mcu_fd_sc_mcu9t5v0__aoi21_2
X_232_ net198 _049_ VDD VSS gf180mcu_fd_sc_mcu9t5v0__clkinv_2
X_233_ gpio_in_prev\[12\] net133 _050_ VDD VSS gf180mcu_fd_sc_mcu9t5v0__nand2_2
X_234_ gpio_in_sync2\[12\] net101 _050_ _051_ VDD VSS gf180mcu_fd_sc_mcu9t5v0__and3_2
X_235_ gpio_in_prev\[12\] _052_ VDD VSS gf180mcu_fd_sc_mcu9t5v0__clkinv_2
X_236_ _052_ net133 net101 gpio_in_sync2\[12\] _053_ VDD VSS
+ gf180mcu_fd_sc_mcu9t5v0__aoi211_2
X_237_ _051_ _053_ net69 _054_ VDD VSS gf180mcu_fd_sc_mcu9t5v0__oai21_2
X_238_ _049_ _054_ net37 _003_ VDD VSS gf180mcu_fd_sc_mcu9t5v0__aoi21_2
X_239_ net199 _055_ VDD VSS gf180mcu_fd_sc_mcu9t5v0__clkinv_2
X_240_ gpio_in_prev\[13\] net134 _056_ VDD VSS gf180mcu_fd_sc_mcu9t5v0__nand2_2
X_241_ gpio_in_sync2\[13\] net102 _056_ _057_ VDD VSS gf180mcu_fd_sc_mcu9t5v0__and3_2
X_242_ gpio_in_prev\[13\] _058_ VDD VSS gf180mcu_fd_sc_mcu9t5v0__clkinv_2
X_243_ _058_ net134 net102 gpio_in_sync2\[13\] _059_ VDD VSS
+ gf180mcu_fd_sc_mcu9t5v0__aoi211_2
X_244_ _057_ _059_ net70 _060_ VDD VSS gf180mcu_fd_sc_mcu9t5v0__oai21_2
X_245_ _055_ _060_ net38 _004_ VDD VSS gf180mcu_fd_sc_mcu9t5v0__aoi21_2
X_246_ net200 _061_ VDD VSS gf180mcu_fd_sc_mcu9t5v0__clkinv_2
X_247_ net135 gpio_in_prev\[14\] _062_ VDD VSS gf180mcu_fd_sc_mcu9t5v0__nand2_2
X_248_ gpio_in_sync2\[14\] net103 _062_ _063_ VDD VSS gf180mcu_fd_sc_mcu9t5v0__and3_2
X_249_ gpio_in_prev\[14\] _064_ VDD VSS gf180mcu_fd_sc_mcu9t5v0__clkinv_2
X_250_ net135 _064_ gpio_in_sync2\[14\] net103 _065_ VDD VSS
+ gf180mcu_fd_sc_mcu9t5v0__aoi211_2
X_251_ _063_ _065_ net71 _066_ VDD VSS gf180mcu_fd_sc_mcu9t5v0__oai21_2
X_252_ _061_ _066_ net39 _005_ VDD VSS gf180mcu_fd_sc_mcu9t5v0__aoi21_2
X_253_ net201 _067_ VDD VSS gf180mcu_fd_sc_mcu9t5v0__clkinv_2
X_254_ net136 gpio_in_prev\[15\] _068_ VDD VSS gf180mcu_fd_sc_mcu9t5v0__nand2_2
X_255_ gpio_in_sync2\[15\] net104 _068_ _069_ VDD VSS gf180mcu_fd_sc_mcu9t5v0__and3_2
X_256_ gpio_in_prev\[15\] _070_ VDD VSS gf180mcu_fd_sc_mcu9t5v0__clkinv_2
X_257_ net136 _070_ gpio_in_sync2\[15\] net104 _071_ VDD VSS
+ gf180mcu_fd_sc_mcu9t5v0__aoi211_2
X_258_ _069_ _071_ net72 _072_ VDD VSS gf180mcu_fd_sc_mcu9t5v0__oai21_2
X_259_ _067_ _072_ net40 _006_ VDD VSS gf180mcu_fd_sc_mcu9t5v0__aoi21_2
X_260_ net202 _073_ VDD VSS gf180mcu_fd_sc_mcu9t5v0__clkinv_2
X_261_ net137 gpio_in_prev\[16\] _074_ VDD VSS gf180mcu_fd_sc_mcu9t5v0__nand2_2
X_262_ gpio_in_sync2\[16\] net105 _074_ _075_ VDD VSS gf180mcu_fd_sc_mcu9t5v0__and3_2
X_263_ gpio_in_prev\[16\] _076_ VDD VSS gf180mcu_fd_sc_mcu9t5v0__clkinv_2
X_264_ net137 _076_ gpio_in_sync2\[16\] net105 _077_ VDD VSS
+ gf180mcu_fd_sc_mcu9t5v0__aoi211_2
X_265_ _075_ _077_ net73 _078_ VDD VSS gf180mcu_fd_sc_mcu9t5v0__oai21_2
X_266_ _073_ _078_ net41 _007_ VDD VSS gf180mcu_fd_sc_mcu9t5v0__aoi21_2
X_267_ gpio_in_sync2\[17\] gpio_in_prev\[17\] _079_ VDD VSS
+ gf180mcu_fd_sc_mcu9t5v0__xnor2_2
X_268_ net138 _079_ _080_ VDD VSS gf180mcu_fd_sc_mcu9t5v0__nand2_2
X_269_ gpio_in_sync2\[17\] net106 _081_ VDD VSS gf180mcu_fd_sc_mcu9t5v0__xnor2_2
X_270_ net74 _081_ _082_ VDD VSS gf180mcu_fd_sc_mcu9t5v0__and2_2
X_271_ _080_ _082_ net203 _083_ VDD VSS gf180mcu_fd_sc_mcu9t5v0__aoi21_2
X_272_ net42 _083_ _008_ VDD VSS gf180mcu_fd_sc_mcu9t5v0__nor2_2
X_273_ gpio_in_sync2\[18\] gpio_in_prev\[18\] _084_ VDD VSS
+ gf180mcu_fd_sc_mcu9t5v0__xnor2_2
X_274_ net139 _084_ _085_ VDD VSS gf180mcu_fd_sc_mcu9t5v0__nand2_2
X_275_ gpio_in_sync2\[18\] net107 _086_ VDD VSS gf180mcu_fd_sc_mcu9t5v0__xnor2_2
X_276_ net75 _086_ _087_ VDD VSS gf180mcu_fd_sc_mcu9t5v0__and2_2
X_277_ _085_ _087_ net204 _088_ VDD VSS gf180mcu_fd_sc_mcu9t5v0__aoi21_2
X_278_ net43 _088_ _009_ VDD VSS gf180mcu_fd_sc_mcu9t5v0__nor2_2
X_279_ gpio_in_sync2\[19\] gpio_in_prev\[19\] _089_ VDD VSS
+ gf180mcu_fd_sc_mcu9t5v0__xnor2_2
X_280_ net140 _089_ _090_ VDD VSS gf180mcu_fd_sc_mcu9t5v0__nand2_2
X_281_ gpio_in_sync2\[19\] net108 _091_ VDD VSS gf180mcu_fd_sc_mcu9t5v0__xnor2_2
X_282_ net76 _091_ _092_ VDD VSS gf180mcu_fd_sc_mcu9t5v0__and2_2
X_283_ _090_ _092_ net205 _093_ VDD VSS gf180mcu_fd_sc_mcu9t5v0__aoi21_2
X_284_ net44 _093_ _010_ VDD VSS gf180mcu_fd_sc_mcu9t5v0__nor2_2
X_285_ gpio_in_sync2\[1\] gpio_in_prev\[1\] _094_ VDD VSS
+ gf180mcu_fd_sc_mcu9t5v0__xnor2_2
X_286_ net141 _094_ _095_ VDD VSS gf180mcu_fd_sc_mcu9t5v0__nand2_2
X_287_ gpio_in_sync2\[1\] net109 _096_ VDD VSS gf180mcu_fd_sc_mcu9t5v0__xnor2_2
X_288_ net77 _096_ _097_ VDD VSS gf180mcu_fd_sc_mcu9t5v0__and2_2
X_289_ _095_ _097_ net206 _098_ VDD VSS gf180mcu_fd_sc_mcu9t5v0__aoi21_2
X_290_ net45 _098_ _011_ VDD VSS gf180mcu_fd_sc_mcu9t5v0__nor2_2
X_291_ gpio_in_sync2\[20\] gpio_in_prev\[20\] _099_ VDD VSS
+ gf180mcu_fd_sc_mcu9t5v0__xnor2_2
X_292_ net142 _099_ _100_ VDD VSS gf180mcu_fd_sc_mcu9t5v0__nand2_2
X_293_ gpio_in_sync2\[20\] net110 _101_ VDD VSS gf180mcu_fd_sc_mcu9t5v0__xnor2_2
X_294_ net78 _101_ _102_ VDD VSS gf180mcu_fd_sc_mcu9t5v0__and2_2
X_295_ _100_ _102_ net207 _103_ VDD VSS gf180mcu_fd_sc_mcu9t5v0__aoi21_2
X_296_ net46 _103_ _012_ VDD VSS gf180mcu_fd_sc_mcu9t5v0__nor2_2
X_297_ gpio_in_sync2\[21\] gpio_in_prev\[21\] _104_ VDD VSS
+ gf180mcu_fd_sc_mcu9t5v0__xnor2_2
X_298_ net143 _104_ _105_ VDD VSS gf180mcu_fd_sc_mcu9t5v0__nand2_2
X_299_ gpio_in_sync2\[21\] net111 _106_ VDD VSS gf180mcu_fd_sc_mcu9t5v0__xnor2_2
X_300_ net79 _106_ _107_ VDD VSS gf180mcu_fd_sc_mcu9t5v0__and2_2
X_301_ _105_ _107_ net208 _108_ VDD VSS gf180mcu_fd_sc_mcu9t5v0__aoi21_2
X_302_ net47 _108_ _013_ VDD VSS gf180mcu_fd_sc_mcu9t5v0__nor2_2
X_303_ gpio_in_sync2\[22\] gpio_in_prev\[22\] _109_ VDD VSS
+ gf180mcu_fd_sc_mcu9t5v0__xnor2_2
X_304_ net144 _109_ _110_ VDD VSS gf180mcu_fd_sc_mcu9t5v0__nand2_2
X_305_ gpio_in_sync2\[22\] net112 _111_ VDD VSS gf180mcu_fd_sc_mcu9t5v0__xnor2_2
X_306_ net80 _111_ _112_ VDD VSS gf180mcu_fd_sc_mcu9t5v0__and2_2
X_307_ _110_ _112_ net209 _113_ VDD VSS gf180mcu_fd_sc_mcu9t5v0__aoi21_2
X_308_ net48 _113_ _014_ VDD VSS gf180mcu_fd_sc_mcu9t5v0__nor2_2
X_309_ gpio_in_sync2\[23\] gpio_in_prev\[23\] _114_ VDD VSS
+ gf180mcu_fd_sc_mcu9t5v0__xnor2_2
X_310_ net145 _114_ _115_ VDD VSS gf180mcu_fd_sc_mcu9t5v0__nand2_2
X_311_ gpio_in_sync2\[23\] net113 _116_ VDD VSS gf180mcu_fd_sc_mcu9t5v0__xnor2_2
X_312_ net81 _116_ _117_ VDD VSS gf180mcu_fd_sc_mcu9t5v0__and2_2
X_313_ _115_ _117_ net210 _118_ VDD VSS gf180mcu_fd_sc_mcu9t5v0__aoi21_2
X_314_ net49 _118_ _015_ VDD VSS gf180mcu_fd_sc_mcu9t5v0__nor2_2
X_315_ gpio_in_sync2\[24\] gpio_in_prev\[24\] _119_ VDD VSS
+ gf180mcu_fd_sc_mcu9t5v0__xnor2_2
X_316_ net146 _119_ _120_ VDD VSS gf180mcu_fd_sc_mcu9t5v0__nand2_2
X_317_ gpio_in_sync2\[24\] net114 _121_ VDD VSS gf180mcu_fd_sc_mcu9t5v0__xnor2_2
X_318_ net82 _121_ _122_ VDD VSS gf180mcu_fd_sc_mcu9t5v0__and2_2
X_319_ _120_ _122_ net211 _123_ VDD VSS gf180mcu_fd_sc_mcu9t5v0__aoi21_2
X_320_ net50 _123_ _016_ VDD VSS gf180mcu_fd_sc_mcu9t5v0__nor2_2
X_321_ gpio_in_sync2\[25\] gpio_in_prev\[25\] _124_ VDD VSS
+ gf180mcu_fd_sc_mcu9t5v0__xnor2_2
X_322_ net147 _124_ _125_ VDD VSS gf180mcu_fd_sc_mcu9t5v0__nand2_2
X_323_ gpio_in_sync2\[25\] net115 _126_ VDD VSS gf180mcu_fd_sc_mcu9t5v0__xnor2_2
X_324_ net83 _126_ _127_ VDD VSS gf180mcu_fd_sc_mcu9t5v0__and2_2
X_325_ _125_ _127_ net212 _128_ VDD VSS gf180mcu_fd_sc_mcu9t5v0__aoi21_2
X_326_ net51 _128_ _017_ VDD VSS gf180mcu_fd_sc_mcu9t5v0__nor2_2
X_327_ gpio_in_sync2\[26\] gpio_in_prev\[26\] _129_ VDD VSS
+ gf180mcu_fd_sc_mcu9t5v0__xnor2_2
X_328_ net148 _129_ _130_ VDD VSS gf180mcu_fd_sc_mcu9t5v0__nand2_2
X_329_ gpio_in_sync2\[26\] net116 _131_ VDD VSS gf180mcu_fd_sc_mcu9t5v0__xnor2_2
X_330_ net84 _131_ _132_ VDD VSS gf180mcu_fd_sc_mcu9t5v0__and2_2
X_331_ _130_ _132_ net213 _133_ VDD VSS gf180mcu_fd_sc_mcu9t5v0__aoi21_2
X_332_ net52 _133_ _018_ VDD VSS gf180mcu_fd_sc_mcu9t5v0__nor2_2
X_333_ gpio_in_sync2\[27\] gpio_in_prev\[27\] _134_ VDD VSS
+ gf180mcu_fd_sc_mcu9t5v0__xnor2_2
X_334_ net149 _134_ _135_ VDD VSS gf180mcu_fd_sc_mcu9t5v0__nand2_2
X_335_ gpio_in_sync2\[27\] net117 _136_ VDD VSS gf180mcu_fd_sc_mcu9t5v0__xnor2_2
X_336_ net85 _136_ _137_ VDD VSS gf180mcu_fd_sc_mcu9t5v0__and2_2
X_337_ _135_ _137_ net214 _138_ VDD VSS gf180mcu_fd_sc_mcu9t5v0__aoi21_2
X_338_ net53 _138_ _019_ VDD VSS gf180mcu_fd_sc_mcu9t5v0__nor2_2
X_339_ gpio_in_sync2\[28\] gpio_in_prev\[28\] _139_ VDD VSS
+ gf180mcu_fd_sc_mcu9t5v0__xnor2_2
X_340_ net150 _139_ _140_ VDD VSS gf180mcu_fd_sc_mcu9t5v0__nand2_2
X_341_ gpio_in_sync2\[28\] net118 _141_ VDD VSS gf180mcu_fd_sc_mcu9t5v0__xnor2_2
X_342_ net86 _141_ _142_ VDD VSS gf180mcu_fd_sc_mcu9t5v0__and2_2
X_343_ _140_ _142_ net215 _143_ VDD VSS gf180mcu_fd_sc_mcu9t5v0__aoi21_2
X_344_ net54 _143_ _020_ VDD VSS gf180mcu_fd_sc_mcu9t5v0__nor2_2
X_345_ gpio_in_sync2\[29\] gpio_in_prev\[29\] _144_ VDD VSS
+ gf180mcu_fd_sc_mcu9t5v0__xnor2_2
X_346_ net151 _144_ _145_ VDD VSS gf180mcu_fd_sc_mcu9t5v0__nand2_2
X_347_ gpio_in_sync2\[29\] net119 _146_ VDD VSS gf180mcu_fd_sc_mcu9t5v0__xnor2_2
X_348_ net87 _146_ _147_ VDD VSS gf180mcu_fd_sc_mcu9t5v0__and2_2
X_349_ _145_ _147_ net216 _148_ VDD VSS gf180mcu_fd_sc_mcu9t5v0__aoi21_2
X_350_ net55 _148_ _021_ VDD VSS gf180mcu_fd_sc_mcu9t5v0__nor2_2
X_351_ gpio_in_sync2\[2\] gpio_in_prev\[2\] _149_ VDD VSS
+ gf180mcu_fd_sc_mcu9t5v0__xnor2_2
X_352_ net152 _149_ _150_ VDD VSS gf180mcu_fd_sc_mcu9t5v0__nand2_2
X_353_ gpio_in_sync2\[2\] net120 _151_ VDD VSS gf180mcu_fd_sc_mcu9t5v0__xnor2_2
X_354_ net88 _151_ _152_ VDD VSS gf180mcu_fd_sc_mcu9t5v0__and2_2
X_355_ _150_ _152_ net217 _153_ VDD VSS gf180mcu_fd_sc_mcu9t5v0__aoi21_2
X_356_ net56 _153_ _022_ VDD VSS gf180mcu_fd_sc_mcu9t5v0__nor2_2
X_357_ gpio_in_sync2\[30\] gpio_in_prev\[30\] _154_ VDD VSS
+ gf180mcu_fd_sc_mcu9t5v0__xnor2_2
X_358_ net153 _154_ _155_ VDD VSS gf180mcu_fd_sc_mcu9t5v0__nand2_2
X_359_ gpio_in_sync2\[30\] net121 _156_ VDD VSS gf180mcu_fd_sc_mcu9t5v0__xnor2_2
X_360_ net89 _156_ _157_ VDD VSS gf180mcu_fd_sc_mcu9t5v0__and2_2
X_361_ _155_ _157_ net218 _158_ VDD VSS gf180mcu_fd_sc_mcu9t5v0__aoi21_2
X_362_ net57 _158_ _023_ VDD VSS gf180mcu_fd_sc_mcu9t5v0__nor2_2
X_363_ gpio_in_sync2\[31\] gpio_in_prev\[31\] _159_ VDD VSS
+ gf180mcu_fd_sc_mcu9t5v0__xnor2_2
X_364_ net154 _159_ _160_ VDD VSS gf180mcu_fd_sc_mcu9t5v0__nand2_2
X_365_ gpio_in_sync2\[31\] net122 _161_ VDD VSS gf180mcu_fd_sc_mcu9t5v0__xnor2_2
X_366_ net90 _161_ _162_ VDD VSS gf180mcu_fd_sc_mcu9t5v0__and2_2
X_367_ _160_ _162_ net219 _163_ VDD VSS gf180mcu_fd_sc_mcu9t5v0__aoi21_2
X_368_ net58 _163_ _024_ VDD VSS gf180mcu_fd_sc_mcu9t5v0__nor2_2
X_369_ gpio_in_sync2\[3\] gpio_in_prev\[3\] _164_ VDD VSS
+ gf180mcu_fd_sc_mcu9t5v0__xnor2_2
X_370_ net155 _164_ _165_ VDD VSS gf180mcu_fd_sc_mcu9t5v0__nand2_2
X_371_ gpio_in_sync2\[3\] net123 _166_ VDD VSS gf180mcu_fd_sc_mcu9t5v0__xnor2_2
X_372_ net91 _166_ _167_ VDD VSS gf180mcu_fd_sc_mcu9t5v0__and2_2
X_373_ _165_ _167_ net220 _168_ VDD VSS gf180mcu_fd_sc_mcu9t5v0__aoi21_2
X_374_ net59 _168_ _025_ VDD VSS gf180mcu_fd_sc_mcu9t5v0__nor2_2
X_375_ gpio_in_sync2\[4\] gpio_in_prev\[4\] _169_ VDD VSS
+ gf180mcu_fd_sc_mcu9t5v0__xnor2_2
X_376_ net156 _169_ _170_ VDD VSS gf180mcu_fd_sc_mcu9t5v0__nand2_2
X_377_ gpio_in_sync2\[4\] net124 _171_ VDD VSS gf180mcu_fd_sc_mcu9t5v0__xnor2_2
X_378_ net92 _171_ _172_ VDD VSS gf180mcu_fd_sc_mcu9t5v0__and2_2
X_379_ _170_ _172_ net221 _173_ VDD VSS gf180mcu_fd_sc_mcu9t5v0__aoi21_2
X_380_ net60 _173_ _026_ VDD VSS gf180mcu_fd_sc_mcu9t5v0__nor2_2
X_381_ gpio_in_sync2\[5\] gpio_in_prev\[5\] _174_ VDD VSS
+ gf180mcu_fd_sc_mcu9t5v0__xnor2_2
X_382_ net157 _174_ _175_ VDD VSS gf180mcu_fd_sc_mcu9t5v0__nand2_2
X_383_ gpio_in_sync2\[5\] net125 _176_ VDD VSS gf180mcu_fd_sc_mcu9t5v0__xnor2_2
X_384_ net93 _176_ _177_ VDD VSS gf180mcu_fd_sc_mcu9t5v0__and2_2
X_385_ _175_ _177_ net222 _178_ VDD VSS gf180mcu_fd_sc_mcu9t5v0__aoi21_2
X_386_ net61 _178_ _027_ VDD VSS gf180mcu_fd_sc_mcu9t5v0__nor2_2
X_387_ gpio_in_sync2\[6\] gpio_in_prev\[6\] _179_ VDD VSS
+ gf180mcu_fd_sc_mcu9t5v0__xnor2_2
X_388_ net158 _179_ _180_ VDD VSS gf180mcu_fd_sc_mcu9t5v0__nand2_2
X_389_ gpio_in_sync2\[6\] net126 _181_ VDD VSS gf180mcu_fd_sc_mcu9t5v0__xnor2_2
X_390_ net94 _181_ _182_ VDD VSS gf180mcu_fd_sc_mcu9t5v0__and2_2
X_391_ _180_ _182_ net223 _183_ VDD VSS gf180mcu_fd_sc_mcu9t5v0__aoi21_2
X_392_ net62 _183_ _028_ VDD VSS gf180mcu_fd_sc_mcu9t5v0__nor2_2
X_393_ net224 _184_ VDD VSS gf180mcu_fd_sc_mcu9t5v0__clkinv_2
X_394_ net159 gpio_in_prev\[7\] _185_ VDD VSS gf180mcu_fd_sc_mcu9t5v0__nand2_2
X_395_ gpio_in_sync2\[7\] net127 _185_ _186_ VDD VSS gf180mcu_fd_sc_mcu9t5v0__and3_2
X_396_ gpio_in_prev\[7\] _187_ VDD VSS gf180mcu_fd_sc_mcu9t5v0__clkinv_2
X_397_ net159 _187_ gpio_in_sync2\[7\] net127 _188_ VDD VSS
+ gf180mcu_fd_sc_mcu9t5v0__aoi211_2
X_398_ _186_ _188_ net95 _189_ VDD VSS gf180mcu_fd_sc_mcu9t5v0__oai21_2
X_399_ _184_ _189_ net63 _029_ VDD VSS gf180mcu_fd_sc_mcu9t5v0__aoi21_2
X_400_ net225 _190_ VDD VSS gf180mcu_fd_sc_mcu9t5v0__clkinv_2
X_401_ net160 gpio_in_prev\[8\] _191_ VDD VSS gf180mcu_fd_sc_mcu9t5v0__nand2_2
X_402_ gpio_in_sync2\[8\] net128 _191_ _192_ VDD VSS gf180mcu_fd_sc_mcu9t5v0__and3_2
X_403_ gpio_in_prev\[8\] _193_ VDD VSS gf180mcu_fd_sc_mcu9t5v0__clkinv_2
X_404_ net160 _193_ gpio_in_sync2\[8\] net128 _194_ VDD VSS
+ gf180mcu_fd_sc_mcu9t5v0__aoi211_2
X_405_ _192_ _194_ net96 _195_ VDD VSS gf180mcu_fd_sc_mcu9t5v0__oai21_2
X_406_ _190_ _195_ net64 _030_ VDD VSS gf180mcu_fd_sc_mcu9t5v0__aoi21_2
X_407_ net226 _196_ VDD VSS gf180mcu_fd_sc_mcu9t5v0__clkinv_2
X_408_ net161 gpio_in_prev\[9\] _197_ VDD VSS gf180mcu_fd_sc_mcu9t5v0__nand2_2
X_409_ gpio_in_sync2\[9\] net129 _197_ _198_ VDD VSS gf180mcu_fd_sc_mcu9t5v0__and3_2
X_410_ gpio_in_prev\[9\] _199_ VDD VSS gf180mcu_fd_sc_mcu9t5v0__clkinv_2
X_411_ net161 _199_ gpio_in_sync2\[9\] net129 _200_ VDD VSS
+ gf180mcu_fd_sc_mcu9t5v0__aoi211_2
X_412_ _198_ _200_ net97 _201_ VDD VSS gf180mcu_fd_sc_mcu9t5v0__oai21_2
X_413_ _196_ _201_ net65 _031_ VDD VSS gf180mcu_fd_sc_mcu9t5v0__aoi21_2
X_414_ net203 net207 net210 net209 _202_ VDD VSS gf180mcu_fd_sc_mcu9t5v0__or4_2
X_415_ net202 net205 net204 net208 _203_ VDD VSS gf180mcu_fd_sc_mcu9t5v0__or4_2
X_416_ net212 net215 net219 net218 _204_ VDD VSS gf180mcu_fd_sc_mcu9t5v0__or4_2
X_417_ net211 net214 net213 net216 _205_ VDD VSS gf180mcu_fd_sc_mcu9t5v0__or4_2
X_418_ _202_ _203_ _204_ _205_ _206_ VDD VSS gf180mcu_fd_sc_mcu9t5v0__or4_2
X_419_ net222 net221 net224 net200 _207_ VDD VSS gf180mcu_fd_sc_mcu9t5v0__or4_2
X_420_ net206 net195 net220 net217 _208_ VDD VSS gf180mcu_fd_sc_mcu9t5v0__or4_2
X_421_ net223 net199 net198 net201 _209_ VDD VSS gf180mcu_fd_sc_mcu9t5v0__or4_2
X_422_ net226 net225 net197 net196 _210_ VDD VSS gf180mcu_fd_sc_mcu9t5v0__or4_2
X_423_ _207_ _208_ _209_ _210_ _211_ VDD VSS gf180mcu_fd_sc_mcu9t5v0__or4_2
X_424_ _206_ _211_ net194 VDD VSS gf180mcu_fd_sc_mcu9t5v0__or2_2
X_425_ net2 net162 VDD VSS gf180mcu_fd_sc_mcu9t5v0__clkbuf_2
X_426_ net13 net173 VDD VSS gf180mcu_fd_sc_mcu9t5v0__dlyb_2
X_427_ net24 net184 VDD VSS gf180mcu_fd_sc_mcu9t5v0__dlyb_2
X_428_ net27 net187 VDD VSS gf180mcu_fd_sc_mcu9t5v0__clkbuf_2
X_429_ net28 net188 VDD VSS gf180mcu_fd_sc_mcu9t5v0__clkbuf_2
X_430_ net29 net189 VDD VSS gf180mcu_fd_sc_mcu9t5v0__clkbuf_2
X_431_ net30 net190 VDD VSS gf180mcu_fd_sc_mcu9t5v0__clkbuf_2
X_432_ net31 net191 VDD VSS gf180mcu_fd_sc_mcu9t5v0__clkbuf_2
X_433_ net32 net192 VDD VSS gf180mcu_fd_sc_mcu9t5v0__clkbuf_2
X_434_ net33 net193 VDD VSS gf180mcu_fd_sc_mcu9t5v0__dlyb_2
X_435_ net3 net163 VDD VSS gf180mcu_fd_sc_mcu9t5v0__clkbuf_2
X_436_ net4 net164 VDD VSS gf180mcu_fd_sc_mcu9t5v0__clkbuf_2
X_437_ net5 net165 VDD VSS gf180mcu_fd_sc_mcu9t5v0__dlyb_2
X_438_ net6 net166 VDD VSS gf180mcu_fd_sc_mcu9t5v0__clkbuf_2
X_439_ net7 net167 VDD VSS gf180mcu_fd_sc_mcu9t5v0__clkbuf_2
X_440_ net8 net168 VDD VSS gf180mcu_fd_sc_mcu9t5v0__clkbuf_2
X_441_ net9 net169 VDD VSS gf180mcu_fd_sc_mcu9t5v0__dlyb_2
X_442_ net10 net170 VDD VSS gf180mcu_fd_sc_mcu9t5v0__dlyb_2
X_443_ net11 net171 VDD VSS gf180mcu_fd_sc_mcu9t5v0__dlyb_2
X_444_ net12 net172 VDD VSS gf180mcu_fd_sc_mcu9t5v0__dlyb_2
X_445_ net14 net174 VDD VSS gf180mcu_fd_sc_mcu9t5v0__dlyb_2
X_446_ net15 net175 VDD VSS gf180mcu_fd_sc_mcu9t5v0__dlyb_2
X_447_ net16 net176 VDD VSS gf180mcu_fd_sc_mcu9t5v0__dlyb_2
X_448_ net17 net177 VDD VSS gf180mcu_fd_sc_mcu9t5v0__dlyb_2
X_449_ net18 net178 VDD VSS gf180mcu_fd_sc_mcu9t5v0__dlyb_2
X_450_ net19 net179 VDD VSS gf180mcu_fd_sc_mcu9t5v0__dlyb_2
X_451_ net20 net180 VDD VSS gf180mcu_fd_sc_mcu9t5v0__dlyb_2
X_452_ net21 net181 VDD VSS gf180mcu_fd_sc_mcu9t5v0__dlyb_2
X_453_ net22 net182 VDD VSS gf180mcu_fd_sc_mcu9t5v0__dlyb_2
X_454_ net23 net183 VDD VSS gf180mcu_fd_sc_mcu9t5v0__dlyb_2
X_455_ net25 net185 VDD VSS gf180mcu_fd_sc_mcu9t5v0__dlyb_2
X_456_ net26 net186 VDD VSS gf180mcu_fd_sc_mcu9t5v0__dlyb_2
X_457_ net2 gpio_pins[0] VDD VSS gf180mcu_fd_sc_mcu9t5v0__dlyb_2
X_458_ net13 gpio_pins[1] VDD VSS gf180mcu_fd_sc_mcu9t5v0__dlyb_2
X_459_ net24 gpio_pins[2] VDD VSS gf180mcu_fd_sc_mcu9t5v0__dlyb_2
X_460_ net27 gpio_pins[3] VDD VSS gf180mcu_fd_sc_mcu9t5v0__dlyb_2
X_461_ net28 gpio_pins[4] VDD VSS gf180mcu_fd_sc_mcu9t5v0__dlyb_2
X_462_ net29 gpio_pins[5] VDD VSS gf180mcu_fd_sc_mcu9t5v0__dlyb_2
X_463_ net30 gpio_pins[6] VDD VSS gf180mcu_fd_sc_mcu9t5v0__dlyb_2
X_464_ net31 gpio_pins[7] VDD VSS gf180mcu_fd_sc_mcu9t5v0__dlyb_2
X_465_ net32 gpio_pins[8] VDD VSS gf180mcu_fd_sc_mcu9t5v0__dlyb_2
X_466_ net33 gpio_pins[9] VDD VSS gf180mcu_fd_sc_mcu9t5v0__dlyb_2
X_467_ net3 gpio_pins[10] VDD VSS gf180mcu_fd_sc_mcu9t5v0__dlyb_2
X_468_ net4 gpio_pins[11] VDD VSS gf180mcu_fd_sc_mcu9t5v0__dlyb_2
X_469_ net5 gpio_pins[12] VDD VSS gf180mcu_fd_sc_mcu9t5v0__dlyb_2
X_470_ net6 gpio_pins[13] VDD VSS gf180mcu_fd_sc_mcu9t5v0__dlyb_2
X_471_ net7 gpio_pins[14] VDD VSS gf180mcu_fd_sc_mcu9t5v0__dlyb_2
X_472_ net8 gpio_pins[15] VDD VSS gf180mcu_fd_sc_mcu9t5v0__dlyb_2
X_473_ net9 gpio_pins[16] VDD VSS gf180mcu_fd_sc_mcu9t5v0__dlyb_2
X_474_ net10 gpio_pins[17] VDD VSS gf180mcu_fd_sc_mcu9t5v0__dlyb_2
X_475_ net11 gpio_pins[18] VDD VSS gf180mcu_fd_sc_mcu9t5v0__dlyb_2
X_476_ net12 gpio_pins[19] VDD VSS gf180mcu_fd_sc_mcu9t5v0__dlyb_2
X_477_ net14 gpio_pins[20] VDD VSS gf180mcu_fd_sc_mcu9t5v0__dlyb_2
X_478_ net15 gpio_pins[21] VDD VSS gf180mcu_fd_sc_mcu9t5v0__dlyb_2
X_479_ net16 gpio_pins[22] VDD VSS gf180mcu_fd_sc_mcu9t5v0__dlyb_2
X_480_ net17 gpio_pins[23] VDD VSS gf180mcu_fd_sc_mcu9t5v0__dlyb_2
X_481_ net18 gpio_pins[24] VDD VSS gf180mcu_fd_sc_mcu9t5v0__dlyb_2
X_482_ net19 gpio_pins[25] VDD VSS gf180mcu_fd_sc_mcu9t5v0__dlyb_2
X_483_ net20 gpio_pins[26] VDD VSS gf180mcu_fd_sc_mcu9t5v0__dlyb_2
X_484_ net21 gpio_pins[27] VDD VSS gf180mcu_fd_sc_mcu9t5v0__dlyb_2
X_485_ net22 gpio_pins[28] VDD VSS gf180mcu_fd_sc_mcu9t5v0__dlyb_2
X_486_ net23 gpio_pins[29] VDD VSS gf180mcu_fd_sc_mcu9t5v0__dlyb_2
X_487_ net25 gpio_pins[30] VDD VSS gf180mcu_fd_sc_mcu9t5v0__dlyb_2
X_488_ net26 gpio_pins[31] VDD VSS gf180mcu_fd_sc_mcu9t5v0__dlyb_2
Xgpio_in_prev\[0\]$_DFF_PN0_ gpio_in_sync2\[0\] net1 clknet_4_4_0_clk
+ gpio_in_prev\[0\] VDD VSS gf180mcu_fd_sc_mcu9t5v0__dffrnq_2
Xgpio_in_prev\[10\]$_DFF_PN0_ gpio_in_sync2\[10\] net1 clknet_4_6_0_clk
+ gpio_in_prev\[10\] VDD VSS gf180mcu_fd_sc_mcu9t5v0__dffrnq_2
Xgpio_in_prev\[11\]$_DFF_PN0_ gpio_in_sync2\[11\] net1 clknet_4_5_0_clk
+ gpio_in_prev\[11\] VDD VSS gf180mcu_fd_sc_mcu9t5v0__dffrnq_2
Xgpio_in_prev\[12\]$_DFF_PN0_ gpio_in_sync2\[12\] net1 clknet_4_2_0_clk
+ gpio_in_prev\[12\] VDD VSS gf180mcu_fd_sc_mcu9t5v0__dffrnq_2
Xgpio_in_prev\[13\]$_DFF_PN0_ gpio_in_sync2\[13\] net1 clknet_4_0_0_clk
+ gpio_in_prev\[13\] VDD VSS gf180mcu_fd_sc_mcu9t5v0__dffrnq_2
Xgpio_in_prev\[14\]$_DFF_PN0_ gpio_in_sync2\[14\] net1 clknet_4_0_0_clk
+ gpio_in_prev\[14\] VDD VSS gf180mcu_fd_sc_mcu9t5v0__dffrnq_2
Xgpio_in_prev\[15\]$_DFF_PN0_ gpio_in_sync2\[15\] net1 clknet_4_2_0_clk
+ gpio_in_prev\[15\] VDD VSS gf180mcu_fd_sc_mcu9t5v0__dffrnq_2
Xgpio_in_prev\[16\]$_DFF_PN0_ gpio_in_sync2\[16\] net1 clknet_4_15_0_clk
+ gpio_in_prev\[16\] VDD VSS gf180mcu_fd_sc_mcu9t5v0__dffrnq_2
Xgpio_in_prev\[17\]$_DFF_PN0_ gpio_in_sync2\[17\] net1 clknet_4_9_0_clk
+ gpio_in_prev\[17\] VDD VSS gf180mcu_fd_sc_mcu9t5v0__dffrnq_2
Xgpio_in_prev\[18\]$_DFF_PN0_ gpio_in_sync2\[18\] net1 clknet_4_11_0_clk
+ gpio_in_prev\[18\] VDD VSS gf180mcu_fd_sc_mcu9t5v0__dffrnq_2
Xgpio_in_prev\[19\]$_DFF_PN0_ gpio_in_sync2\[19\] net1 clknet_4_15_0_clk
+ gpio_in_prev\[19\] VDD VSS gf180mcu_fd_sc_mcu9t5v0__dffrnq_2
Xgpio_in_prev\[1\]$_DFF_PN0_ gpio_in_sync2\[1\] net1 clknet_4_6_0_clk
+ gpio_in_prev\[1\] VDD VSS gf180mcu_fd_sc_mcu9t5v0__dffrnq_2
Xgpio_in_prev\[20\]$_DFF_PN0_ gpio_in_sync2\[20\] net1 clknet_4_12_0_clk
+ gpio_in_prev\[20\] VDD VSS gf180mcu_fd_sc_mcu9t5v0__dffrnq_2
Xgpio_in_prev\[21\]$_DFF_PN0_ gpio_in_sync2\[21\] net1 clknet_4_14_0_clk
+ gpio_in_prev\[21\] VDD VSS gf180mcu_fd_sc_mcu9t5v0__dffrnq_2
Xgpio_in_prev\[22\]$_DFF_PN0_ gpio_in_sync2\[22\] net1 clknet_4_10_0_clk
+ gpio_in_prev\[22\] VDD VSS gf180mcu_fd_sc_mcu9t5v0__dffrnq_2
Xgpio_in_prev\[23\]$_DFF_PN0_ gpio_in_sync2\[23\] net1 clknet_4_11_0_clk
+ gpio_in_prev\[23\] VDD VSS gf180mcu_fd_sc_mcu9t5v0__dffrnq_2
Xgpio_in_prev\[24\]$_DFF_PN0_ gpio_in_sync2\[24\] net1 clknet_4_13_0_clk
+ gpio_in_prev\[24\] VDD VSS gf180mcu_fd_sc_mcu9t5v0__dffrnq_2
Xgpio_in_prev\[25\]$_DFF_PN0_ gpio_in_sync2\[25\] net1 clknet_4_10_0_clk
+ gpio_in_prev\[25\] VDD VSS gf180mcu_fd_sc_mcu9t5v0__dffrnq_2
Xgpio_in_prev\[26\]$_DFF_PN0_ gpio_in_sync2\[26\] net1 clknet_4_15_0_clk
+ gpio_in_prev\[26\] VDD VSS gf180mcu_fd_sc_mcu9t5v0__dffrnq_2
Xgpio_in_prev\[27\]$_DFF_PN0_ gpio_in_sync2\[27\] net1 clknet_4_14_0_clk
+ gpio_in_prev\[27\] VDD VSS gf180mcu_fd_sc_mcu9t5v0__dffrnq_2
Xgpio_in_prev\[28\]$_DFF_PN0_ gpio_in_sync2\[28\] net1 clknet_4_10_0_clk
+ gpio_in_prev\[28\] VDD VSS gf180mcu_fd_sc_mcu9t5v0__dffrnq_2
Xgpio_in_prev\[29\]$_DFF_PN0_ gpio_in_sync2\[29\] net1 clknet_4_13_0_clk
+ gpio_in_prev\[29\] VDD VSS gf180mcu_fd_sc_mcu9t5v0__dffrnq_2
Xgpio_in_prev\[2\]$_DFF_PN0_ gpio_in_sync2\[2\] net1 clknet_4_7_0_clk
+ gpio_in_prev\[2\] VDD VSS gf180mcu_fd_sc_mcu9t5v0__dffrnq_2
Xgpio_in_prev\[30\]$_DFF_PN0_ gpio_in_sync2\[30\] net1 clknet_4_10_0_clk
+ gpio_in_prev\[30\] VDD VSS gf180mcu_fd_sc_mcu9t5v0__dffrnq_2
Xgpio_in_prev\[31\]$_DFF_PN0_ gpio_in_sync2\[31\] net1 clknet_4_8_0_clk
+ gpio_in_prev\[31\] VDD VSS gf180mcu_fd_sc_mcu9t5v0__dffrnq_2
Xgpio_in_prev\[3\]$_DFF_PN0_ gpio_in_sync2\[3\] net1 clknet_4_3_0_clk
+ gpio_in_prev\[3\] VDD VSS gf180mcu_fd_sc_mcu9t5v0__dffrnq_2
Xgpio_in_prev\[4\]$_DFF_PN0_ gpio_in_sync2\[4\] net1 clknet_4_0_0_clk
+ gpio_in_prev\[4\] VDD VSS gf180mcu_fd_sc_mcu9t5v0__dffrnq_2
Xgpio_in_prev\[5\]$_DFF_PN0_ gpio_in_sync2\[5\] net1 clknet_4_1_0_clk
+ gpio_in_prev\[5\] VDD VSS gf180mcu_fd_sc_mcu9t5v0__dffrnq_2
Xgpio_in_prev\[6\]$_DFF_PN0_ gpio_in_sync2\[6\] net1 clknet_4_3_0_clk
+ gpio_in_prev\[6\] VDD VSS gf180mcu_fd_sc_mcu9t5v0__dffrnq_2
Xgpio_in_prev\[7\]$_DFF_PN0_ gpio_in_sync2\[7\] net1 clknet_4_6_0_clk
+ gpio_in_prev\[7\] VDD VSS gf180mcu_fd_sc_mcu9t5v0__dffrnq_2
Xgpio_in_prev\[8\]$_DFF_PN0_ gpio_in_sync2\[8\] net1 clknet_4_5_0_clk
+ gpio_in_prev\[8\] VDD VSS gf180mcu_fd_sc_mcu9t5v0__dffrnq_2
Xgpio_in_prev\[9\]$_DFF_PN0_ gpio_in_sync2\[9\] net1 clknet_4_7_0_clk
+ gpio_in_prev\[9\] VDD VSS gf180mcu_fd_sc_mcu9t5v0__dffrnq_2
Xgpio_in_sync1\[0\]$_DFF_PN0_ net2 net1 clknet_4_5_0_clk gpio_in_sync1\[0\]
+ VDD VSS gf180mcu_fd_sc_mcu9t5v0__dffrnq_2
Xgpio_in_sync1\[10\]$_DFF_PN0_ net3 net1 clknet_4_5_0_clk
+ gpio_in_sync1\[10\] VDD VSS gf180mcu_fd_sc_mcu9t5v0__dffrnq_2
Xgpio_in_sync1\[11\]$_DFF_PN0_ net4 net1 clknet_4_5_0_clk
+ gpio_in_sync1\[11\] VDD VSS gf180mcu_fd_sc_mcu9t5v0__dffrnq_2
Xgpio_in_sync1\[12\]$_DFF_PN0_ net5 net1 clknet_4_2_0_clk
+ gpio_in_sync1\[12\] VDD VSS gf180mcu_fd_sc_mcu9t5v0__dffrnq_2
Xgpio_in_sync1\[13\]$_DFF_PN0_ net6 net1 clknet_4_0_0_clk
+ gpio_in_sync1\[13\] VDD VSS gf180mcu_fd_sc_mcu9t5v0__dffrnq_2
Xgpio_in_sync1\[14\]$_DFF_PN0_ net7 net1 clknet_4_0_0_clk
+ gpio_in_sync1\[14\] VDD VSS gf180mcu_fd_sc_mcu9t5v0__dffrnq_2
Xgpio_in_sync1\[15\]$_DFF_PN0_ net8 net1 clknet_4_0_0_clk
+ gpio_in_sync1\[15\] VDD VSS gf180mcu_fd_sc_mcu9t5v0__dffrnq_2
Xgpio_in_sync1\[16\]$_DFF_PN0_ net9 net1 clknet_4_15_0_clk
+ gpio_in_sync1\[16\] VDD VSS gf180mcu_fd_sc_mcu9t5v0__dffrnq_2
Xgpio_in_sync1\[17\]$_DFF_PN0_ net10 net1 clknet_4_9_0_clk
+ gpio_in_sync1\[17\] VDD VSS gf180mcu_fd_sc_mcu9t5v0__dffrnq_2
Xgpio_in_sync1\[18\]$_DFF_PN0_ net11 net1 clknet_4_11_0_clk
+ gpio_in_sync1\[18\] VDD VSS gf180mcu_fd_sc_mcu9t5v0__dffrnq_2
Xgpio_in_sync1\[19\]$_DFF_PN0_ net12 net1 clknet_4_15_0_clk
+ gpio_in_sync1\[19\] VDD VSS gf180mcu_fd_sc_mcu9t5v0__dffrnq_2
Xgpio_in_sync1\[1\]$_DFF_PN0_ net13 net1 clknet_4_4_0_clk