
* cell circular_buffer_fifo
* pin rst_n
* pin fifo_count[4]
* pin rd_en
* pin empty
* pin wr_data[6]
* pin peek_addr[0]
* pin peek_addr[1]
* pin peek_addr[2]
* pin fifo_count[1]
* pin almost_empty
* pin almost_full
* pin fifo_count[2]
* pin fifo_count[0]
* pin fifo_count[3]
* pin peek_addr[3]
* pin peek_data[7]
* pin peek_data[6]
* pin peek_data[4]
* pin full
* pin wr_en
* pin clk
* pin rd_data[6]
* pin wr_data[7]
* pin rd_data[7]
* pin rd_data[4]
* pin wr_data[4]
* pin rd_data[0]
* pin wr_data[0]
* pin peek_data[0]
* pin rd_data[5]
* pin rd_data[3]
* pin peek_data[3]
* pin rd_data[2]
* pin rd_data[1]
* pin peek_data[5]
* pin peek_en
* pin peek_data[1]
* pin peek_data[2]
* pin wr_data[3]
* pin wr_data[5]
* pin wr_data[2]
* pin wr_data[1]
* pin NWELL
* pin PWELL,gf180mcu_gnd
.SUBCKT circular_buffer_fifo 1 2 3 4 5 6 7 8 9 10 11 12 13 14 15 16 17 18 19 20
+ 342 602 603 604 605 606 607 609 610 611 612 616 618 619 620 621 622 623 625
+ 626 627 628 629 630
* net 1 rst_n
* net 2 fifo_count[4]
* net 3 rd_en
* net 4 empty
* net 5 wr_data[6]
* net 6 peek_addr[0]
* net 7 peek_addr[1]
* net 8 peek_addr[2]
* net 9 fifo_count[1]
* net 10 almost_empty
* net 11 almost_full
* net 12 fifo_count[2]
* net 13 fifo_count[0]
* net 14 fifo_count[3]
* net 15 peek_addr[3]
* net 16 peek_data[7]
* net 17 peek_data[6]
* net 18 peek_data[4]
* net 19 full
* net 20 wr_en
* net 342 clk
* net 602 rd_data[6]
* net 603 wr_data[7]
* net 604 rd_data[7]
* net 605 rd_data[4]
* net 606 wr_data[4]
* net 607 rd_data[0]
* net 609 wr_data[0]
* net 610 peek_data[0]
* net 611 rd_data[5]
* net 612 rd_data[3]
* net 616 peek_data[3]
* net 618 rd_data[2]
* net 619 rd_data[1]
* net 620 peek_data[5]
* net 621 peek_en
* net 622 peek_data[1]
* net 623 peek_data[2]
* net 625 wr_data[3]
* net 626 wr_data[5]
* net 627 wr_data[2]
* net 628 wr_data[1]
* net 629 NWELL
* net 630 PWELL,gf180mcu_gnd
* cell instance $2 m0 *1 1117.2,327.6
X$2 630 40 1 629 gf180mcu_fd_sc_mcu9t5v0__dlyc_2
* cell instance $10 r0 *1 1152.48,5.04
X$10 22 629 630 2 gf180mcu_fd_sc_mcu9t5v0__dlyb_2
* cell instance $12 m0 *1 1153.6,15.12
X$12 630 629 3 23 gf180mcu_fd_sc_mcu9t5v0__buf_4
* cell instance $17 r0 *1 1160.88,5.04
X$17 24 629 630 4 gf180mcu_fd_sc_mcu9t5v0__dlyb_2
* cell instance $21 r0 *1 1173.2,5.04
X$21 630 5 113 629 gf180mcu_fd_sc_mcu9t5v0__clkbuf_8
* cell instance $25 r0 *1 1181.6,15.12
X$25 630 629 6 25 gf180mcu_fd_sc_mcu9t5v0__buf_4
* cell instance $29 m0 *1 1181.04,25.2
X$29 630 629 7 38 gf180mcu_fd_sc_mcu9t5v0__buf_4
* cell instance $33 m0 *1 1188.88,15.12
X$33 630 629 8 28 gf180mcu_fd_sc_mcu9t5v0__buf_4
* cell instance $38 m0 *1 1188.88,25.2
X$38 26 629 630 9 gf180mcu_fd_sc_mcu9t5v0__dlyb_2
* cell instance $42 m0 *1 1198.96,15.12
X$42 30 629 630 10 gf180mcu_fd_sc_mcu9t5v0__dlyb_2
* cell instance $45 m0 *1 1212.96,15.12
X$45 32 629 630 11 gf180mcu_fd_sc_mcu9t5v0__dlyb_2
* cell instance $49 r0 *1 1188.88,5.04
X$49 21 629 630 12 gf180mcu_fd_sc_mcu9t5v0__dlyb_2
* cell instance $53 r0 *1 1189.44,15.12
X$53 39 629 630 13 gf180mcu_fd_sc_mcu9t5v0__dlyb_2
* cell instance $57 r0 *1 1200.64,5.04
X$57 31 629 630 14 gf180mcu_fd_sc_mcu9t5v0__dlyb_2
* cell instance $61 r0 *1 1214.08,5.04
X$61 630 629 15 33 gf180mcu_fd_sc_mcu9t5v0__buf_4
* cell instance $66 r0 *1 1235.36,5.04
X$66 36 629 630 16 gf180mcu_fd_sc_mcu9t5v0__dlyb_2
* cell instance $69 r0 *1 1223.04,5.04
X$69 35 629 630 17 gf180mcu_fd_sc_mcu9t5v0__dlyb_2
* cell instance $73 m0 *1 1221.92,15.12
X$73 34 629 630 18 gf180mcu_fd_sc_mcu9t5v0__dlyb_2
* cell instance $77 r0 *1 1249.36,5.04
X$77 37 629 630 19 gf180mcu_fd_sc_mcu9t5v0__dlyb_2
* cell instance $82 r0 *1 1263.92,5.04
X$82 630 20 97 629 gf180mcu_fd_sc_mcu9t5v0__clkbuf_8
* cell instance $84 m0 *1 1200.64,609.84
X$84 630 50 629 51 53 21 gf180mcu_fd_sc_mcu9t5v0__aoi21_2
* cell instance $86 r0 *1 1184.96,619.92
X$86 54 39 26 21 629 630 63 gf180mcu_fd_sc_mcu9t5v0__or4_2
* cell instance $88 r0 *1 1198.96,569.52
X$88 630 629 31 48 21 gf180mcu_fd_sc_mcu9t5v0__nand2_2
* cell instance $90 r0 *1 1196.16,559.44
X$90 629 22 630 44 31 39 21 gf180mcu_fd_sc_mcu9t5v0__oai31_2
* cell instance $92 r0 *1 1192.8,619.92
X$92 57 39 26 21 629 630 64 gf180mcu_fd_sc_mcu9t5v0__or4_2
* cell instance $101 r0 *1 1201.2,640.08
X$101 630 21 79 78 629 gf180mcu_fd_sc_mcu9t5v0__xor2_4
* cell instance $103 r0 *1 1197.84,15.12
X$103 630 30 29 629 22 31 21 gf180mcu_fd_sc_mcu9t5v0__nor4_2
* cell instance $108 r0 *1 1196.16,690.48
X$108 630 116 22 629 gf180mcu_fd_sc_mcu9t5v0__inv_8
* cell instance $110 m0 *1 1156.96,549.36
X$110 630 629 43 22 24 gf180mcu_fd_sc_mcu9t5v0__nor2_4
* cell instance $113 r0 *1 1153.04,690.48
X$113 629 43 137 22 23 112 630 gf180mcu_fd_sc_mcu9t5v0__oai211_2
* cell instance $123 m0 *1 1161.44,680.4
X$123 629 92 630 43 93 22 gf180mcu_fd_sc_mcu9t5v0__oai21_2
* cell instance $125 r0 *1 1162.56,690.48
X$125 629 127 630 43 121 22 gf180mcu_fd_sc_mcu9t5v0__oai21_2
* cell instance $128 m0 *1 1145.2,700.56
X$128 630 23 123 43 22 629 gf180mcu_fd_sc_mcu9t5v0__oai21_4
* cell instance $132 r0 *1 1163.68,700.56
X$132 23 147 139 126 630 629 127 gf180mcu_fd_sc_mcu9t5v0__and4_2
* cell instance $136 m0 *1 1159.76,690.48
X$136 23 111 126 112 630 629 92 gf180mcu_fd_sc_mcu9t5v0__and4_2
* cell instance $146 r0 *1 1176,700.56
X$146 630 227 25 125 150 629 gf180mcu_fd_sc_mcu9t5v0__addh_4
* cell instance $149 m0 *1 1180.48,589.68
X$149 27 630 45 25 629 46 gf180mcu_fd_sc_mcu9t5v0__or3_2
* cell instance $151 r0 *1 1184.4,589.68
X$151 630 27 25 629 47 gf180mcu_fd_sc_mcu9t5v0__or2_2
* cell instance $154 r0 *1 1190,25.2
X$154 27 630 26 629 29 gf180mcu_fd_sc_mcu9t5v0__xor2_2
* cell instance $157 r0 *1 1188.88,569.52
X$157 630 629 26 42 gf180mcu_fd_sc_mcu9t5v0__clkinv_2
* cell instance $164 r0 *1 1189.44,650.16
X$164 630 76 26 81 77 79 629 gf180mcu_fd_sc_mcu9t5v0__addf_4
* cell instance $176 m0 *1 1198.4,680.4
X$176 630 27 125 108 109 629 gf180mcu_fd_sc_mcu9t5v0__addh_4
* cell instance $187 r0 *1 1185.52,599.76
X$187 630 629 27 39 gf180mcu_fd_sc_mcu9t5v0__inv_4
* cell instance $191 r0 *1 1183.28,690.48
X$191 120 630 629 28 128 114 gf180mcu_fd_sc_mcu9t5v0__addh_1
* cell instance $193 m0 *1 1187.76,589.68
X$193 47 49 28 50 45 629 630 gf180mcu_fd_sc_mcu9t5v0__aoi211_2
* cell instance $203 m0 *1 1176,579.6
X$203 629 49 53 45 46 28 630 gf180mcu_fd_sc_mcu9t5v0__oai211_2
* cell instance $214 r0 *1 1186.64,609.84
X$214 630 31 55 54 629 gf180mcu_fd_sc_mcu9t5v0__xnor2_4
* cell instance $218 m0 *1 1199.52,569.52
X$218 630 41 32 44 48 42 629 gf180mcu_fd_sc_mcu9t5v0__aoi22_4
* cell instance $226 r0 *1 1192.8,680.4
X$226 630 75 33 119 130 629 gf180mcu_fd_sc_mcu9t5v0__xnor3_2
* cell instance $228 m0 *1 1192.24,619.92
X$228 629 57 33 630 58 gf180mcu_fd_sc_mcu9t5v0__and2_2
* cell instance $231 r0 *1 1199.52,630
X$231 629 54 33 630 69 gf180mcu_fd_sc_mcu9t5v0__and2_2
* cell instance $237 m0 *1 1200.64,619.92
X$237 630 54 33 629 65 gf180mcu_fd_sc_mcu9t5v0__or2_2
* cell instance $240 r0 *1 1203.44,619.92
X$240 630 57 33 629 66 gf180mcu_fd_sc_mcu9t5v0__or2_2
* cell instance $249 r0 *1 1223.6,609.84
X$249 60 629 52 61 630 34 gf180mcu_fd_sc_mcu9t5v0__and3_2
* cell instance $252 r0 *1 1217.44,609.84
X$252 60 629 52 133 630 35 gf180mcu_fd_sc_mcu9t5v0__and3_2
* cell instance $255 r0 *1 1234.8,609.84
X$255 60 629 52 62 630 36 gf180mcu_fd_sc_mcu9t5v0__and3_2
* cell instance $257 m0 *1 1243.76,559.44
X$257 630 629 43 41 37 gf180mcu_fd_sc_mcu9t5v0__nor2_4
* cell instance $262 r0 *1 1181.04,710.64
X$262 164 630 629 38 145 151 gf180mcu_fd_sc_mcu9t5v0__addh_1
* cell instance $264 r0 *1 1178.24,720.72
X$264 630 629 38 185 gf180mcu_fd_sc_mcu9t5v0__clkinv_2
* cell instance $272 r0 *1 1179.92,579.6
X$272 630 45 49 38 42 629 gf180mcu_fd_sc_mcu9t5v0__addh_2
* cell instance $295 m0 *1 1114.96,650.16
X$295 630 40 71 629 gf180mcu_fd_sc_mcu9t5v0__buf_8
* cell instance $300 m0 *1 1202.32,730.8
X$300 630 166 160 41 154 132 629 gf180mcu_fd_sc_mcu9t5v0__oai211_4
* cell instance $302 r0 *1 1197.28,730.8
X$302 630 171 160 41 154 153 629 gf180mcu_fd_sc_mcu9t5v0__oai211_4
* cell instance $304 m0 *1 1199.52,690.48
X$304 630 116 41 629 gf180mcu_fd_sc_mcu9t5v0__buf_8
* cell instance $323 r0 *1 1198.4,609.84
X$323 630 52 51 56 59 41 629 gf180mcu_fd_sc_mcu9t5v0__oai211_4
* cell instance $325 r0 *1 1198.4,700.56
X$325 630 105 43 41 132 141 629 gf180mcu_fd_sc_mcu9t5v0__oai211_4
* cell instance $327 m0 *1 1233.68,740.88
X$327 630 182 160 41 177 175 629 gf180mcu_fd_sc_mcu9t5v0__oai211_4
* cell instance $329 m0 *1 1237.04,700.56
X$329 629 132 630 43 135 41 gf180mcu_fd_sc_mcu9t5v0__oai21_2
* cell instance $331 r0 *1 1244.32,660.24
X$331 629 84 630 43 85 41 gf180mcu_fd_sc_mcu9t5v0__oai21_2
* cell instance $333 r0 *1 1223.04,670.32
X$333 629 97 630 43 100 41 gf180mcu_fd_sc_mcu9t5v0__oai21_2
* cell instance $347 m0 *1 1224.72,640.08
X$347 630 68 43 629 gf180mcu_fd_sc_mcu9t5v0__clkbuf_16
* cell instance $398 r0 *1 1224.72,1224.72
X$398 391 52 60 630 629 608 gf180mcu_fd_sc_mcu9t5v0__and3_4
* cell instance $401 r0 *1 1228.08,2424.24
X$401 60 629 52 558 630 624 gf180mcu_fd_sc_mcu9t5v0__and3_2
* cell instance $406 r0 *1 1217.44,2414.16
X$406 60 629 52 617 630 613 gf180mcu_fd_sc_mcu9t5v0__and3_2
* cell instance $408 r0 *1 1223.6,2414.16
X$408 60 629 52 550 630 615 gf180mcu_fd_sc_mcu9t5v0__and3_2
* cell instance $422 m0 *1 1213.52,2424.24
X$422 60 629 52 563 630 614 gf180mcu_fd_sc_mcu9t5v0__and3_2
* cell instance $450 m0 *1 1192.24,630
X$450 630 629 54 57 gf180mcu_fd_sc_mcu9t5v0__clkinv_2
* cell instance $453 m0 *1 1198.4,650.16
X$453 54 629 78 79 630 90 gf180mcu_fd_sc_mcu9t5v0__and3_2
* cell instance $466 r0 *1 1190,660.24
X$466 630 74 54 75 82 629 gf180mcu_fd_sc_mcu9t5v0__addh_2
* cell instance $471 m0 *1 1185.52,670.32
X$471 80 54 90 107 74 629 630 gf180mcu_fd_sc_mcu9t5v0__aoi211_2
* cell instance $473 m0 *1 1198.4,660.24
X$473 630 55 88 78 77 80 91 629 gf180mcu_fd_sc_mcu9t5v0__aoi221_4
* cell instance $481 m0 *1 1198.96,630
X$481 630 629 67 63 55 64 gf180mcu_fd_sc_mcu9t5v0__mux2_2
* cell instance $484 r0 *1 1209.04,619.92
X$484 630 629 59 66 55 65 gf180mcu_fd_sc_mcu9t5v0__mux2_2
* cell instance $486 r0 *1 1190,630
X$486 630 629 56 58 55 69 gf180mcu_fd_sc_mcu9t5v0__mux2_2
* cell instance $524 m0 *1 1223.6,2434.32
X$524 630 621 60 629 gf180mcu_fd_sc_mcu9t5v0__clkbuf_12
* cell instance $534 m0 *1 1224.72,811.44
X$534 630 629 61 303 131 330 gf180mcu_fd_sc_mcu9t5v0__mux2_2
* cell instance $540 m0 *1 1229.76,791.28
X$540 630 629 62 261 131 259 gf180mcu_fd_sc_mcu9t5v0__mux2_2
* cell instance $558 m0 *1 1203.44,640.08
X$558 630 67 68 629 gf180mcu_fd_sc_mcu9t5v0__clkbuf_12
* cell instance $564 m0 *1 1198.4,740.88
X$564 630 173 68 116 175 154 629 gf180mcu_fd_sc_mcu9t5v0__oai211_4
* cell instance $567 r0 *1 1224.72,730.8
X$567 630 183 68 176 132 156 629 gf180mcu_fd_sc_mcu9t5v0__oai211_4
* cell instance $569 m0 *1 1225.28,761.04
X$569 630 204 68 176 153 156 629 gf180mcu_fd_sc_mcu9t5v0__oai211_4
* cell instance $571 r0 *1 1224.16,761.04
X$571 630 233 68 176 134 156 629 gf180mcu_fd_sc_mcu9t5v0__oai211_4
* cell instance $575 r0 *1 1229.76,720.72
X$575 630 68 160 629 gf180mcu_fd_sc_mcu9t5v0__clkbuf_12
* cell instance $578 r0 *1 1196.72,720.72
X$578 630 174 68 116 154 134 629 gf180mcu_fd_sc_mcu9t5v0__oai211_4
* cell instance $588 r0 *1 1155.84,710.64
X$588 630 70 634 629 gf180mcu_fd_sc_mcu9t5v0__inv_8
* cell instance $590 m0 *1 1151.92,660.24
X$590 630 71 72 70 87 629 gf180mcu_fd_sc_mcu9t5v0__dffrnq_2
* cell instance $592 r0 *1 1144.64,700.56
X$592 630 71 125 70 124 629 gf180mcu_fd_sc_mcu9t5v0__dffrnq_2
* cell instance $594 m0 *1 1155.84,710.64
X$594 630 178 70 629 gf180mcu_fd_sc_mcu9t5v0__clkbuf_20
* cell instance $596 m0 *1 1172.64,700.56
X$596 630 71 128 70 140 629 gf180mcu_fd_sc_mcu9t5v0__dffrnq_2
* cell instance $602 r0 *1 1157.52,680.4
X$602 630 71 94 70 122 629 gf180mcu_fd_sc_mcu9t5v0__dffrnq_2
* cell instance $604 r0 *1 1153.6,660.24
X$604 630 71 73 70 106 629 gf180mcu_fd_sc_mcu9t5v0__dffrnq_2
* cell instance $606 r0 *1 1171.52,1013.04
X$606 630 71 592 546 601 629 gf180mcu_fd_sc_mcu9t5v0__dffrnq_4
* cell instance $608 m0 *1 1127.84,720.72
X$608 630 71 145 143 162 629 gf180mcu_fd_sc_mcu9t5v0__dffrnq_4
* cell instance $611 m0 *1 1114.4,1023.12
X$611 630 71 598 544 600 629 gf180mcu_fd_sc_mcu9t5v0__dffrnq_4
* cell instance $613 m0 *1 1112.16,1013.04
X$613 630 71 597 544 596 629 gf180mcu_fd_sc_mcu9t5v0__dffrnq_4
* cell instance $615 r0 *1 1112.16,1013.04
X$615 630 71 585 544 584 629 gf180mcu_fd_sc_mcu9t5v0__dffrnq_4
* cell instance $618 r0 *1 1111.6,1002.96
X$618 630 71 586 544 594 629 gf180mcu_fd_sc_mcu9t5v0__dffrnq_4
* cell instance $620 m0 *1 1158.08,1013.04
X$620 630 71 591 546 590 629 gf180mcu_fd_sc_mcu9t5v0__dffrnq_4
* cell instance $622 m0 *1 1137.92,1002.96
X$622 630 71 588 546 587 629 gf180mcu_fd_sc_mcu9t5v0__dffrnq_4
* cell instance $625 r0 *1 1149.12,1002.96
X$625 630 71 599 546 589 629 gf180mcu_fd_sc_mcu9t5v0__dffrnq_4
* cell instance $656 r0 *1 1238.16,700.56
X$656 630 71 104 102 136 629 gf180mcu_fd_sc_mcu9t5v0__dffrnq_2
* cell instance $659 r0 *1 1237.04,670.32
X$659 630 71 83 102 103 629 gf180mcu_fd_sc_mcu9t5v0__dffrnq_2
* cell instance $661 m0 *1 1234.8,660.24
X$661 630 71 82 102 86 629 gf180mcu_fd_sc_mcu9t5v0__dffrnq_4
* cell instance $663 m0 *1 1226.4,670.32
X$663 630 71 81 102 110 629 gf180mcu_fd_sc_mcu9t5v0__dffrnq_2
* cell instance $666 m0 *1 1145.76,670.32
X$666 629 72 105 630 87 gf180mcu_fd_sc_mcu9t5v0__xnor2_2
* cell instance $670 m0 *1 1169.84,670.32
X$670 630 73 72 95 107 629 gf180mcu_fd_sc_mcu9t5v0__xnor3_2
* cell instance $674 m0 *1 1158.64,670.32
X$674 629 73 93 630 106 gf180mcu_fd_sc_mcu9t5v0__xnor2_2
* cell instance $682 m0 *1 1180.48,680.4
X$682 630 629 94 75 gf180mcu_fd_sc_mcu9t5v0__clkinv_2
* cell instance $689 r0 *1 1282.4,761.04
X$689 630 629 214 212 76 217 gf180mcu_fd_sc_mcu9t5v0__mux2_2
* cell instance $692 m0 *1 1204.56,650.16
X$692 91 630 629 76 81 89 gf180mcu_fd_sc_mcu9t5v0__addh_1
* cell instance $694 r0 *1 1173.2,730.8
X$694 630 185 172 76 149 186 629 gf180mcu_fd_sc_mcu9t5v0__addf_4
* cell instance $698 r0 *1 1285.2,801.36
X$698 630 629 293 301 76 279 gf180mcu_fd_sc_mcu9t5v0__mux2_2
* cell instance $701 r0 *1 1239.84,922.32
X$701 630 629 476 478 76 469 gf180mcu_fd_sc_mcu9t5v0__mux2_2
* cell instance $722 r0 *1 1288.56,932.4
X$722 630 629 501 505 76 503 gf180mcu_fd_sc_mcu9t5v0__mux2_2
* cell instance $724 m0 *1 1209.6,932.4
X$724 630 629 491 513 76 493 gf180mcu_fd_sc_mcu9t5v0__mux2_2
* cell instance $726 m0 *1 1272.32,932.4
X$726 630 629 499 506 76 472 gf180mcu_fd_sc_mcu9t5v0__mux2_2
* cell instance $728 r0 *1 1184.96,720.72
X$728 630 145 76 629 gf180mcu_fd_sc_mcu9t5v0__inv_8
* cell instance $730 m0 *1 1272.88,871.92
X$730 630 629 402 376 76 373 gf180mcu_fd_sc_mcu9t5v0__mux2_2
* cell instance $732 m0 *1 1232.56,831.6
X$732 630 629 319 329 76 320 gf180mcu_fd_sc_mcu9t5v0__mux2_2
* cell instance $736 r0 *1 1205.12,670.32
X$736 630 629 109 77 gf180mcu_fd_sc_mcu9t5v0__clkinv_2
* cell instance $739 r0 *1 1207.36,660.24
X$739 629 78 89 630 88 gf180mcu_fd_sc_mcu9t5v0__and2_2
* cell instance $748 m0 *1 1198.96,670.32
X$748 630 80 78 96 104 629 gf180mcu_fd_sc_mcu9t5v0__addh_2
* cell instance $763 m0 *1 1245.44,670.32
X$763 97 104 81 83 630 629 84 gf180mcu_fd_sc_mcu9t5v0__and4_2
* cell instance $765 m0 *1 1240.96,690.48
X$765 117 630 629 83 81 637 gf180mcu_fd_sc_mcu9t5v0__addh_1
* cell instance $768 m0 *1 1231.44,690.48
X$768 118 630 629 108 81 636 gf180mcu_fd_sc_mcu9t5v0__addh_1
* cell instance $771 m0 *1 1228.08,690.48
X$771 630 629 81 98 gf180mcu_fd_sc_mcu9t5v0__clkinv_2
* cell instance $777 m0 *1 1224.72,680.4
X$777 630 629 110 81 100 99 gf180mcu_fd_sc_mcu9t5v0__mux2_2
* cell instance $782 r0 *1 1225.28,660.24
X$782 629 82 85 630 86 gf180mcu_fd_sc_mcu9t5v0__xnor2_2
* cell instance $787 m0 *1 1210.16,710.64
X$787 629 104 82 141 630 gf180mcu_fd_sc_mcu9t5v0__and2_4
* cell instance $789 m0 *1 1221.92,720.72
X$789 629 155 82 154 630 gf180mcu_fd_sc_mcu9t5v0__and2_4
* cell instance $792 m0 *1 1231.44,720.72
X$792 630 629 155 82 156 gf180mcu_fd_sc_mcu9t5v0__nor2_4
* cell instance $795 m0 *1 1241.52,720.72
X$795 630 629 104 82 177 gf180mcu_fd_sc_mcu9t5v0__nor2_4
* cell instance $805 m0 *1 1233.12,680.4
X$805 101 630 629 83 98 635 gf180mcu_fd_sc_mcu9t5v0__addh_1
* cell instance $808 r0 *1 1236.48,690.48
X$808 630 629 83 108 gf180mcu_fd_sc_mcu9t5v0__clkinv_2
* cell instance $816 r0 *1 1234.8,660.24
X$816 629 83 100 630 103 gf180mcu_fd_sc_mcu9t5v0__xnor2_2
* cell instance $854 r0 *1 1176.56,680.4
X$854 630 94 111 629 gf180mcu_fd_sc_mcu9t5v0__clkbuf_8
* cell instance $861 r0 *1 1188.88,670.32
X$861 630 95 116 629 gf180mcu_fd_sc_mcu9t5v0__clkbuf_8
* cell instance $866 m0 *1 1200.64,720.72
X$866 630 629 152 96 gf180mcu_fd_sc_mcu9t5v0__clkinv_8
* cell instance $885 r0 *1 1181.6,922.32
X$885 630 629 467 489 96 435 gf180mcu_fd_sc_mcu9t5v0__mux2_2
* cell instance $888 r0 *1 1134,761.04
X$888 630 629 240 168 96 238 gf180mcu_fd_sc_mcu9t5v0__mux2_2
* cell instance $890 r0 *1 1172.64,791.28
X$890 630 629 272 247 96 306 gf180mcu_fd_sc_mcu9t5v0__mux2_2
* cell instance $892 r0 *1 1178.8,861.84
X$892 630 629 401 367 96 403 gf180mcu_fd_sc_mcu9t5v0__mux2_2
* cell instance $894 r0 *1 1154.16,932.4
X$894 630 629 511 522 96 408 gf180mcu_fd_sc_mcu9t5v0__mux2_2
* cell instance $896 m0 *1 1121.12,922.32
X$896 630 629 465 464 96 459 gf180mcu_fd_sc_mcu9t5v0__mux2_2
* cell instance $898 m0 *1 1115.52,942.48
X$898 630 629 510 516 96 385 gf180mcu_fd_sc_mcu9t5v0__mux2_2
* cell instance $901 m0 *1 1120,821.52
X$901 630 629 326 311 96 289 gf180mcu_fd_sc_mcu9t5v0__mux2_2
* cell instance $904 r0 *1 1240.96,690.48
X$904 629 117 97 132 630 gf180mcu_fd_sc_mcu9t5v0__and2_4
* cell instance $907 r0 *1 1225.84,690.48
X$907 629 118 97 153 630 gf180mcu_fd_sc_mcu9t5v0__and2_4
* cell instance $910 m0 *1 1221.36,700.56
X$910 629 138 97 175 630 gf180mcu_fd_sc_mcu9t5v0__and2_4
* cell instance $913 r0 *1 1232.56,680.4
X$913 629 101 97 134 630 gf180mcu_fd_sc_mcu9t5v0__and2_4
* cell instance $925 r0 *1 1223.04,680.4
X$925 138 630 629 108 98 99 gf180mcu_fd_sc_mcu9t5v0__addh_1
* cell instance $941 m0 *1 1284.64,730.8
X$941 630 180 102 179 629 gf180mcu_fd_sc_mcu9t5v0__dffq_2
* cell instance $944 m0 *1 1256.64,730.8
X$944 630 102 638 629 gf180mcu_fd_sc_mcu9t5v0__clkbuf_16
* cell instance $946 r0 *1 1256.64,730.8
X$946 630 178 102 629 gf180mcu_fd_sc_mcu9t5v0__clkbuf_20
* cell instance $954 r0 *1 1261.12,720.72
X$954 630 159 102 157 629 gf180mcu_fd_sc_mcu9t5v0__dffq_2
* cell instance $970 m0 *1 1238.16,710.64
X$970 629 104 135 630 136 gf180mcu_fd_sc_mcu9t5v0__xnor2_2
* cell instance $973 r0 *1 1234.24,710.64
X$973 630 629 104 155 gf180mcu_fd_sc_mcu9t5v0__clkinv_2
* cell instance $984 m0 *1 1100.96,861.84
X$984 630 629 359 382 105 361 gf180mcu_fd_sc_mcu9t5v0__mux2_2
* cell instance $1003 r0 *1 1106.56,750.96
X$1003 630 629 189 190 105 165 gf180mcu_fd_sc_mcu9t5v0__mux2_2
* cell instance $1005 r0 *1 1099.84,801.36
X$1005 630 629 302 265 105 244 gf180mcu_fd_sc_mcu9t5v0__mux2_2
* cell instance $1008 r0 *1 1140.72,892.08
X$1008 630 629 447 431 105 420 gf180mcu_fd_sc_mcu9t5v0__mux2_2
* cell instance $1011 r0 *1 1158.08,791.28
X$1011 630 629 287 270 105 245 gf180mcu_fd_sc_mcu9t5v0__mux2_2
* cell instance $1013 r0 *1 1162.56,841.68
X$1013 630 629 349 338 105 345 gf180mcu_fd_sc_mcu9t5v0__mux2_2
* cell instance $1016 r0 *1 1098.72,892.08
X$1016 630 629 425 426 105 404 gf180mcu_fd_sc_mcu9t5v0__mux2_2
* cell instance $1020 m0 *1 1187.2,902.16
X$1020 630 629 461 434 105 436 gf180mcu_fd_sc_mcu9t5v0__mux2_2
* cell instance $1047 m0 *1 1170.4,811.44
X$1047 630 629 305 272 111 293 gf180mcu_fd_sc_mcu9t5v0__mux2_2
* cell instance $1049 m0 *1 1150.24,690.48
X$1049 629 111 121 630 122 gf180mcu_fd_sc_mcu9t5v0__xnor2_2
* cell instance $1069 r0 *1 1182.16,932.4
X$1069 630 629 488 467 111 501 gf180mcu_fd_sc_mcu9t5v0__mux2_2
* cell instance $1073 m0 *1 1137.36,841.68
X$1073 630 629 335 326 111 319 gf180mcu_fd_sc_mcu9t5v0__mux2_2
* cell instance $1075 m0 *1 1177.12,871.92
X$1075 630 629 388 401 111 402 gf180mcu_fd_sc_mcu9t5v0__mux2_2
* cell instance $1078 r0 *1 1139.6,932.4
X$1078 630 629 485 510 111 491 gf180mcu_fd_sc_mcu9t5v0__mux2_2
* cell instance $1080 r0 *1 1162.56,932.4
X$1080 630 629 487 511 111 499 gf180mcu_fd_sc_mcu9t5v0__mux2_2
* cell instance $1083 r0 *1 1126.72,922.32
X$1083 630 629 466 465 111 476 gf180mcu_fd_sc_mcu9t5v0__mux2_2
* cell instance $1085 m0 *1 1132.32,771.12
X$1085 630 629 239 240 111 214 gf180mcu_fd_sc_mcu9t5v0__mux2_2
* cell instance $1092 m0 *1 1155.84,720.72
X$1092 112 630 629 125 145 163 gf180mcu_fd_sc_mcu9t5v0__addh_1
* cell instance $1095 m0 *1 1189.44,750.96
X$1095 630 629 113 165 gf180mcu_fd_sc_mcu9t5v0__clkbuf_4
* cell instance $1098 r0 *1 1254.96,761.04
X$1098 630 629 237 205 204 113 gf180mcu_fd_sc_mcu9t5v0__mux2_2
* cell instance $1100 m0 *1 1265.04,740.88
X$1100 630 629 157 159 183 113 gf180mcu_fd_sc_mcu9t5v0__mux2_2
* cell instance $1102 m0 *1 1268.4,771.12
X$1102 630 629 236 206 233 113 gf180mcu_fd_sc_mcu9t5v0__mux2_2
* cell instance $1104 m0 *1 1161.44,740.88
X$1104 630 629 198 170 173 113 gf180mcu_fd_sc_mcu9t5v0__mux2_2
* cell instance $1106 m0 *1 1169.84,740.88
X$1106 630 629 148 169 174 113 gf180mcu_fd_sc_mcu9t5v0__mux2_2
* cell instance $1114 m0 *1 1267.28,750.96
X$1114 630 629 197 193 194 113 gf180mcu_fd_sc_mcu9t5v0__mux2_2
* cell instance $1117 m0 *1 1186.08,730.8
X$1117 186 630 114 629 187 gf180mcu_fd_sc_mcu9t5v0__xor2_2
* cell instance $1119 m0 *1 1193.36,700.56
X$1119 630 629 114 142 gf180mcu_fd_sc_mcu9t5v0__clkinv_2
* cell instance $1125 m0 *1 1198.4,700.56
X$1125 629 115 630 129 130 142 gf180mcu_fd_sc_mcu9t5v0__oai21_2
* cell instance $1127 r0 *1 1192.8,690.48
X$1127 630 629 120 115 gf180mcu_fd_sc_mcu9t5v0__clkinv_2
* cell instance $1129 r0 *1 1197.84,740.88
X$1129 630 116 176 629 gf180mcu_fd_sc_mcu9t5v0__buf_8
* cell instance $1142 r0 *1 1206.8,690.48
X$1142 630 629 119 131 gf180mcu_fd_sc_mcu9t5v0__buf_4
* cell instance $1157 r0 *1 1121.12,1023.12
X$1157 630 629 596 597 123 466 gf180mcu_fd_sc_mcu9t5v0__mux2_2
* cell instance $1169 m0 *1 1142.4,710.64
X$1169 629 147 123 630 124 gf180mcu_fd_sc_mcu9t5v0__xnor2_2
* cell instance $1171 r0 *1 1140.16,710.64
X$1171 630 629 162 139 123 163 gf180mcu_fd_sc_mcu9t5v0__mux2_2
* cell instance $1173 r0 *1 1146.32,992.88
X$1173 630 629 587 588 123 305 gf180mcu_fd_sc_mcu9t5v0__mux2_2
* cell instance $1175 m0 *1 1159.2,1002.96
X$1175 630 629 590 591 123 388 gf180mcu_fd_sc_mcu9t5v0__mux2_2
* cell instance $1177 r0 *1 1179.36,1002.96
X$1177 630 629 601 592 123 488 gf180mcu_fd_sc_mcu9t5v0__mux2_2
* cell instance $1180 m0 *1 1156.96,1023.12
X$1180 630 629 589 599 123 487 gf180mcu_fd_sc_mcu9t5v0__mux2_2
* cell instance $1182 m0 *1 1122.24,1002.96
X$1182 630 629 584 585 123 239 gf180mcu_fd_sc_mcu9t5v0__mux2_2
* cell instance $1184 r0 *1 1132.88,1002.96
X$1184 630 629 594 586 123 335 gf180mcu_fd_sc_mcu9t5v0__mux2_2
* cell instance $1187 r0 *1 1133.44,1013.04
X$1187 630 629 600 598 123 485 gf180mcu_fd_sc_mcu9t5v0__mux2_2
* cell instance $1192 r0 *1 1166.48,710.64
X$1192 630 125 146 629 gf180mcu_fd_sc_mcu9t5v0__clkbuf_8
* cell instance $1202 r0 *1 1211.28,922.32
X$1202 630 493 126 439 492 147 468 450 629 gf180mcu_fd_sc_mcu9t5v0__mux4_2
* cell instance $1204 m0 *1 1274,761.04
X$1204 630 217 126 207 205 147 159 180 629 gf180mcu_fd_sc_mcu9t5v0__mux4_2
* cell instance $1206 r0 *1 1232,821.52
X$1206 630 320 126 295 318 147 317 276 629 gf180mcu_fd_sc_mcu9t5v0__mux4_2
* cell instance $1209 r0 *1 1272.32,922.32
X$1209 630 472 126 418 531 147 508 454 629 gf180mcu_fd_sc_mcu9t5v0__mux4_2
* cell instance $1212 m0 *1 1242.64,932.4
X$1212 630 469 126 416 528 147 529 457 629 gf180mcu_fd_sc_mcu9t5v0__mux4_2
* cell instance $1215 r0 *1 1275.68,851.76
X$1215 630 373 126 354 372 147 374 346 629 gf180mcu_fd_sc_mcu9t5v0__mux4_2
* cell instance $1217 m0 *1 1198.4,710.64
X$1217 630 629 128 126 gf180mcu_fd_sc_mcu9t5v0__buf_4
* cell instance $1219 m0 *1 1292.48,932.4
X$1219 630 503 126 443 502 147 504 474 629 gf180mcu_fd_sc_mcu9t5v0__mux4_2
* cell instance $1233 m0 *1 1159.76,700.56
X$1233 629 126 137 630 140 gf180mcu_fd_sc_mcu9t5v0__xnor2_2
* cell instance $1241 r0 *1 1194.48,710.64
X$1241 630 128 152 629 gf180mcu_fd_sc_mcu9t5v0__clkbuf_8
* cell instance $1246 m0 *1 1187.76,720.72
X$1246 630 164 629 129 151 150 gf180mcu_fd_sc_mcu9t5v0__aoi21_2
* cell instance $1266 r0 *1 1229.2,942.48
X$1266 630 629 558 542 131 540 gf180mcu_fd_sc_mcu9t5v0__mux2_4
* cell instance $1268 m0 *1 1218,942.48
X$1268 630 629 563 495 131 509 gf180mcu_fd_sc_mcu9t5v0__mux2_4
* cell instance $1271 m0 *1 1229.76,942.48
X$1271 630 629 550 463 131 543 gf180mcu_fd_sc_mcu9t5v0__mux2_4
* cell instance $1273 m0 *1 1216.88,761.04
X$1273 630 629 133 218 131 221 gf180mcu_fd_sc_mcu9t5v0__mux2_2
* cell instance $1276 m0 *1 1198.96,942.48
X$1276 630 629 617 539 131 490 gf180mcu_fd_sc_mcu9t5v0__mux2_4
* cell instance $1278 r0 *1 1226.96,861.84
X$1278 630 629 391 390 131 398 gf180mcu_fd_sc_mcu9t5v0__mux2_2
* cell instance $1290 m0 *1 1226.96,730.8
X$1290 630 158 160 176 177 132 629 gf180mcu_fd_sc_mcu9t5v0__oai211_4
* cell instance $1304 r0 *1 1228.64,750.96
X$1304 630 220 160 176 177 134 629 gf180mcu_fd_sc_mcu9t5v0__oai211_4
* cell instance $1308 r0 *1 1198.96,761.04
X$1308 630 243 160 176 141 134 629 gf180mcu_fd_sc_mcu9t5v0__oai211_4
* cell instance $1324 m0 *1 1112.72,801.36
X$1324 630 289 139 268 241 224 265 266 629 gf180mcu_fd_sc_mcu9t5v0__mux4_2
* cell instance $1327 m0 *1 1113.28,771.12
X$1327 630 238 139 201 223 224 190 200 629 gf180mcu_fd_sc_mcu9t5v0__mux4_2
* cell instance $1329 m0 *1 1149.12,892.08
X$1329 630 408 139 410 406 224 431 409 629 gf180mcu_fd_sc_mcu9t5v0__mux4_2
* cell instance $1332 r0 *1 1117.76,861.84
X$1332 630 385 139 387 383 224 382 364 629 gf180mcu_fd_sc_mcu9t5v0__mux4_2
* cell instance $1334 r0 *1 1186.08,892.08
X$1334 630 435 139 437 433 208 434 413 629 gf180mcu_fd_sc_mcu9t5v0__mux4_2
* cell instance $1336 m0 *1 1106.56,902.16
X$1336 630 459 139 429 428 224 426 427 629 gf180mcu_fd_sc_mcu9t5v0__mux4_2
* cell instance $1338 m0 *1 1165.36,720.72
X$1338 630 629 145 139 gf180mcu_fd_sc_mcu9t5v0__buf_4
* cell instance $1340 m0 *1 1178.24,841.68
X$1340 630 403 139 315 337 208 338 341 629 gf180mcu_fd_sc_mcu9t5v0__mux4_2
* cell instance $1342 r0 *1 1165.92,801.36
X$1342 630 306 139 273 271 224 270 292 629 gf180mcu_fd_sc_mcu9t5v0__mux4_2
* cell instance $1368 m0 *1 1198.96,761.04
X$1368 630 226 160 176 175 141 629 gf180mcu_fd_sc_mcu9t5v0__oai211_4
* cell instance $1371 m0 *1 1198.4,771.12
X$1371 630 242 160 176 153 141 629 gf180mcu_fd_sc_mcu9t5v0__oai211_4
* cell instance $1377 m0 *1 1150.8,730.8
X$1377 630 178 143 629 gf180mcu_fd_sc_mcu9t5v0__clkbuf_20
* cell instance $1381 r0 *1 1126.72,720.72
X$1381 630 144 143 161 629 gf180mcu_fd_sc_mcu9t5v0__dffq_2
* cell instance $1384 r0 *1 1153.6,771.12
X$1384 630 246 143 228 629 gf180mcu_fd_sc_mcu9t5v0__dffq_2
* cell instance $1386 r0 *1 1153.04,740.88
X$1386 630 170 143 198 629 gf180mcu_fd_sc_mcu9t5v0__dffq_2
* cell instance $1388 m0 *1 1159.2,771.12
X$1388 630 230 143 229 629 gf180mcu_fd_sc_mcu9t5v0__dffq_2
* cell instance $1391 r0 *1 1118.88,730.8
X$1391 630 167 143 184 629 gf180mcu_fd_sc_mcu9t5v0__dffq_2
* cell instance $1393 r0 *1 1155.28,730.8
X$1393 630 629 143 633 gf180mcu_fd_sc_mcu9t5v0__clkinv_8
* cell instance $1395 r0 *1 1158.08,720.72
X$1395 630 169 143 148 629 gf180mcu_fd_sc_mcu9t5v0__dffq_2
* cell instance $1406 m0 *1 1142.4,740.88
X$1406 630 191 172 170 144 227 167 169 629 gf180mcu_fd_sc_mcu9t5v0__mux4_2
* cell instance $1409 m0 *1 1134.56,730.8
X$1409 630 629 161 144 171 165 gf180mcu_fd_sc_mcu9t5v0__mux2_2
* cell instance $1411 r0 *1 1136.24,730.8
X$1411 630 168 145 170 144 146 167 169 629 gf180mcu_fd_sc_mcu9t5v0__mux4_2
* cell instance $1414 r0 *1 1173.76,851.76
X$1414 630 367 145 351 350 224 366 369 629 gf180mcu_fd_sc_mcu9t5v0__mux4_2
* cell instance $1416 m0 *1 1172.64,781.2
X$1416 630 247 145 232 246 146 230 231 629 gf180mcu_fd_sc_mcu9t5v0__mux4_2
* cell instance $1420 r0 *1 1113.84,821.52
X$1420 630 311 145 313 308 146 310 312 629 gf180mcu_fd_sc_mcu9t5v0__mux4_2
* cell instance $1422 m0 *1 1113.28,932.4
X$1422 630 464 145 484 481 146 480 483 629 gf180mcu_fd_sc_mcu9t5v0__mux4_2
* cell instance $1425 m0 *1 1114.4,952.56
X$1425 630 516 145 519 514 224 515 517 629 gf180mcu_fd_sc_mcu9t5v0__mux4_2
* cell instance $1433 r0 *1 1153.04,942.48
X$1433 630 522 145 525 521 224 523 524 629 gf180mcu_fd_sc_mcu9t5v0__mux4_2
* cell instance $1435 m0 *1 1178.24,952.56
X$1435 630 489 145 548 526 224 527 547 629 gf180mcu_fd_sc_mcu9t5v0__mux4_2
* cell instance $1456 r0 *1 1133.44,882
X$1456 630 146 224 629 gf180mcu_fd_sc_mcu9t5v0__buf_8
* cell instance $1458 r0 *1 1143.52,720.72
X$1458 630 146 147 629 gf180mcu_fd_sc_mcu9t5v0__buf_8
* cell instance $1460 m0 *1 1172.08,922.32
X$1460 630 146 208 629 gf180mcu_fd_sc_mcu9t5v0__buf_8
* cell instance $1475 m0 *1 1280.72,801.36
X$1475 630 279 152 254 278 147 297 253 629 gf180mcu_fd_sc_mcu9t5v0__mux4_2
* cell instance $1510 m0 *1 1183.84,720.72
X$1510 630 629 150 149 gf180mcu_fd_sc_mcu9t5v0__clkinv_2
* cell instance $1521 m0 *1 1293.04,761.04
X$1521 630 212 152 196 193 208 206 209 629 gf180mcu_fd_sc_mcu9t5v0__mux4_2
* cell instance $1523 r0 *1 1248.24,922.32
X$1523 630 478 152 452 498 208 470 471 629 gf180mcu_fd_sc_mcu9t5v0__mux4_2
* cell instance $1525 m0 *1 1219.12,932.4
X$1525 630 513 152 393 494 208 497 414 629 gf180mcu_fd_sc_mcu9t5v0__mux4_2
* cell instance $1527 m0 *1 1244.88,831.6
X$1527 630 329 152 323 321 208 344 322 629 gf180mcu_fd_sc_mcu9t5v0__mux4_2
* cell instance $1530 r0 *1 1309.28,801.36
X$1530 630 301 152 283 298 208 300 256 629 gf180mcu_fd_sc_mcu9t5v0__mux4_2
* cell instance $1532 m0 *1 1280.72,942.48
X$1532 630 506 152 421 534 208 533 441 629 gf180mcu_fd_sc_mcu9t5v0__mux4_2
* cell instance $1534 m0 *1 1306.48,861.84
X$1534 630 376 152 356 396 208 394 375 629 gf180mcu_fd_sc_mcu9t5v0__mux4_2
* cell instance $1536 r0 *1 1310.4,932.4
X$1536 630 505 152 446 536 208 537 455 629 gf180mcu_fd_sc_mcu9t5v0__mux4_2
* cell instance $1564 m0 *1 1228.08,771.12
X$1564 630 210 160 176 177 153 629 gf180mcu_fd_sc_mcu9t5v0__oai211_4
* cell instance $1589 m0 *1 1227.52,750.96
X$1589 630 194 160 176 175 156 629 gf180mcu_fd_sc_mcu9t5v0__oai211_4