* CDL Netlist generated by OpenROAD

*.BUSDELIMITER [

.SUBCKT circular_buffer_fifo almost_empty almost_full clk
+ empty fifo_count[0] fifo_count[1] fifo_count[2] fifo_count[3]
+ fifo_count[4] full peek_addr[0] peek_addr[1] peek_addr[2]
+ peek_addr[3] peek_data[0] peek_data[1] peek_data[2] peek_data[3]
+ peek_data[4] peek_data[5] peek_data[6] peek_data[7] peek_en
+ rd_data[0] rd_data[1] rd_data[2] rd_data[3] rd_data[4] rd_data[5]
+ rd_data[6] rd_data[7] rd_en rst_n wr_data[0] wr_data[1] wr_data[2]
+ wr_data[3] wr_data[4] wr_data[5] wr_data[6] wr_data[7] wr_en
X_392_ net21 _378_ VDD VSS gf180mcu_fd_sc_mcu9t5v0__clkinv_2
X_393_ _371_ _368_ _149_ VDD VSS gf180mcu_fd_sc_mcu9t5v0__and2_2
X_394_ _390_ _358_ VDD VSS gf180mcu_fd_sc_mcu9t5v0__clkinv_2
X_395_ _371_ _367_ _149_ _358_ _370_ _150_ VDD VSS gf180mcu_fd_sc_mcu9t5v0__aoi221_4
X_396_ _366_ _150_ net23 VDD VSS gf180mcu_fd_sc_mcu9t5v0__xnor2_4
X_397_ _371_ _359_ net22 VDD VSS gf180mcu_fd_sc_mcu9t5v0__xor2_4
X_398_ _391_ net20 VDD VSS gf180mcu_fd_sc_mcu9t5v0__inv_4
X_399_ _366_ _371_ _359_ _151_ VDD VSS gf180mcu_fd_sc_mcu9t5v0__and3_2
X_400_ _366_ _370_ _151_ _365_ _152_ VDD VSS gf180mcu_fd_sc_mcu9t5v0__aoi211_2
X_401_ wr_ptr\[4\] rd_ptr\[4\] _152_ _153_ VDD VSS gf180mcu_fd_sc_mcu9t5v0__xnor3_2
X_402_ _153_ _154_ VDD VSS gf180mcu_fd_sc_mcu9t5v0__clkbuf_8
X_403_ _154_ net24 VDD VSS gf180mcu_fd_sc_mcu9t5v0__inv_8
X_404_ _154_ _155_ VDD VSS gf180mcu_fd_sc_mcu9t5v0__buf_8
X_405_ _366_ _156_ VDD VSS gf180mcu_fd_sc_mcu9t5v0__clkinv_2
X_406_ _156_ net20 net21 net22 _157_ VDD VSS gf180mcu_fd_sc_mcu9t5v0__or4_2
X_407_ _366_ net20 net21 net22 _158_ VDD VSS gf180mcu_fd_sc_mcu9t5v0__or4_2
X_408_ _157_ _158_ _150_ _159_ VDD VSS gf180mcu_fd_sc_mcu9t5v0__mux2_2
X_409_ _159_ _160_ VDD VSS gf180mcu_fd_sc_mcu9t5v0__clkbuf_12
X_410_ _160_ _161_ VDD VSS gf180mcu_fd_sc_mcu9t5v0__clkbuf_16
X_411_ _155_ _161_ net25 VDD VSS gf180mcu_fd_sc_mcu9t5v0__nor2_4
X_412_ net24 _161_ net19 VDD VSS gf180mcu_fd_sc_mcu9t5v0__nor2_4
X_413_ net3 _360_ VDD VSS gf180mcu_fd_sc_mcu9t5v0__clkinv_2
X_414_ _372_ _361_ VDD VSS gf180mcu_fd_sc_mcu9t5v0__clkinv_2
X_415_ rd_ptr\[3\] _364_ VDD VSS gf180mcu_fd_sc_mcu9t5v0__clkinv_2
X_416_ rd_ptr\[1\] _357_ VDD VSS gf180mcu_fd_sc_mcu9t5v0__inv_8
X_417_ rd_ptr\[2\] _162_ VDD VSS gf180mcu_fd_sc_mcu9t5v0__clkbuf_8
X_418_ _162_ _369_ VDD VSS gf180mcu_fd_sc_mcu9t5v0__clkinv_8
X_419_ wr_ptr\[0\] _000_ VDD VSS gf180mcu_fd_sc_mcu9t5v0__clkinv_2
X_420_ wr_ptr\[1\] _382_ VDD VSS gf180mcu_fd_sc_mcu9t5v0__clkinv_2
X_421_ net8 _163_ VDD VSS gf180mcu_fd_sc_mcu9t5v0__buf_3
X_422_ _160_ _164_ VDD VSS gf180mcu_fd_sc_mcu9t5v0__clkbuf_12
X_423_ wr_ptr\[3\] wr_ptr\[2\] _165_ VDD VSS gf180mcu_fd_sc_mcu9t5v0__nor2_4
X_424_ net16 _383_ _166_ VDD VSS gf180mcu_fd_sc_mcu9t5v0__and2_4
X_425_ _155_ _164_ _165_ _166_ _167_ VDD VSS gf180mcu_fd_sc_mcu9t5v0__oai211_4
X_426_ _163_ mem\[0\]\[0\] _167_ _003_ VDD VSS gf180mcu_fd_sc_mcu9t5v0__mux2_2
X_427_ net9 _168_ VDD VSS gf180mcu_fd_sc_mcu9t5v0__clkbuf_4
X_428_ _168_ mem\[0\]\[1\] _167_ _004_ VDD VSS gf180mcu_fd_sc_mcu9t5v0__mux2_2
X_429_ net10 _169_ VDD VSS gf180mcu_fd_sc_mcu9t5v0__clkbuf_4
X_430_ _169_ mem\[0\]\[2\] _167_ _005_ VDD VSS gf180mcu_fd_sc_mcu9t5v0__mux2_2
X_431_ net11 _170_ VDD VSS gf180mcu_fd_sc_mcu9t5v0__clkbuf_4
X_432_ _170_ mem\[0\]\[3\] _167_ _006_ VDD VSS gf180mcu_fd_sc_mcu9t5v0__mux2_2
X_433_ net12 _171_ VDD VSS gf180mcu_fd_sc_mcu9t5v0__buf_3
X_434_ _171_ mem\[0\]\[4\] _167_ _007_ VDD VSS gf180mcu_fd_sc_mcu9t5v0__mux2_2
X_435_ net13 _172_ VDD VSS gf180mcu_fd_sc_mcu9t5v0__clkbuf_4
X_436_ _172_ mem\[0\]\[5\] _167_ _008_ VDD VSS gf180mcu_fd_sc_mcu9t5v0__mux2_2
X_437_ net14 _173_ VDD VSS gf180mcu_fd_sc_mcu9t5v0__clkbuf_4
X_438_ _173_ mem\[0\]\[6\] _167_ _009_ VDD VSS gf180mcu_fd_sc_mcu9t5v0__mux2_2
X_439_ net15 _174_ VDD VSS gf180mcu_fd_sc_mcu9t5v0__buf_3
X_440_ _174_ mem\[0\]\[7\] _167_ _010_ VDD VSS gf180mcu_fd_sc_mcu9t5v0__mux2_2
X_441_ wr_ptr\[2\] _175_ VDD VSS gf180mcu_fd_sc_mcu9t5v0__clkinv_2
X_442_ wr_ptr\[3\] _175_ _176_ VDD VSS gf180mcu_fd_sc_mcu9t5v0__and2_4
X_443_ net16 _384_ _177_ VDD VSS gf180mcu_fd_sc_mcu9t5v0__and2_4
X_444_ _155_ _164_ _176_ _177_ _178_ VDD VSS gf180mcu_fd_sc_mcu9t5v0__oai211_4
X_445_ _163_ mem\[10\]\[0\] _178_ _011_ VDD VSS gf180mcu_fd_sc_mcu9t5v0__mux2_2
X_446_ _168_ mem\[10\]\[1\] _178_ _012_ VDD VSS gf180mcu_fd_sc_mcu9t5v0__mux2_2
X_447_ _169_ mem\[10\]\[2\] _178_ _013_ VDD VSS gf180mcu_fd_sc_mcu9t5v0__mux2_2
X_448_ _170_ mem\[10\]\[3\] _178_ _014_ VDD VSS gf180mcu_fd_sc_mcu9t5v0__mux2_2
X_449_ _171_ mem\[10\]\[4\] _178_ _015_ VDD VSS gf180mcu_fd_sc_mcu9t5v0__mux2_2
X_450_ _172_ mem\[10\]\[5\] _178_ _016_ VDD VSS gf180mcu_fd_sc_mcu9t5v0__mux2_2
X_451_ _173_ mem\[10\]\[6\] _178_ _017_ VDD VSS gf180mcu_fd_sc_mcu9t5v0__mux2_2
X_452_ _174_ mem\[10\]\[7\] _178_ _018_ VDD VSS gf180mcu_fd_sc_mcu9t5v0__mux2_2
X_453_ net16 _388_ _179_ VDD VSS gf180mcu_fd_sc_mcu9t5v0__and2_4
X_454_ _155_ _164_ _176_ _179_ _180_ VDD VSS gf180mcu_fd_sc_mcu9t5v0__oai211_4
X_455_ _163_ mem\[11\]\[0\] _180_ _019_ VDD VSS gf180mcu_fd_sc_mcu9t5v0__mux2_2
X_456_ _168_ mem\[11\]\[1\] _180_ _020_ VDD VSS gf180mcu_fd_sc_mcu9t5v0__mux2_2
X_457_ _169_ mem\[11\]\[2\] _180_ _021_ VDD VSS gf180mcu_fd_sc_mcu9t5v0__mux2_2
X_458_ _170_ mem\[11\]\[3\] _180_ _022_ VDD VSS gf180mcu_fd_sc_mcu9t5v0__mux2_2
X_459_ _171_ mem\[11\]\[4\] _180_ _023_ VDD VSS gf180mcu_fd_sc_mcu9t5v0__mux2_2
X_460_ _172_ mem\[11\]\[5\] _180_ _024_ VDD VSS gf180mcu_fd_sc_mcu9t5v0__mux2_2
X_461_ _173_ mem\[11\]\[6\] _180_ _025_ VDD VSS gf180mcu_fd_sc_mcu9t5v0__mux2_2
X_462_ _174_ mem\[11\]\[7\] _180_ _026_ VDD VSS gf180mcu_fd_sc_mcu9t5v0__mux2_2
X_463_ _154_ _181_ VDD VSS gf180mcu_fd_sc_mcu9t5v0__buf_8
X_464_ wr_ptr\[3\] wr_ptr\[2\] _182_ VDD VSS gf180mcu_fd_sc_mcu9t5v0__and2_4
X_465_ _181_ _164_ _166_ _182_ _183_ VDD VSS gf180mcu_fd_sc_mcu9t5v0__oai211_4
X_466_ _163_ mem\[12\]\[0\] _183_ _027_ VDD VSS gf180mcu_fd_sc_mcu9t5v0__mux2_2
X_467_ _168_ mem\[12\]\[1\] _183_ _028_ VDD VSS gf180mcu_fd_sc_mcu9t5v0__mux2_2
X_468_ _169_ mem\[12\]\[2\] _183_ _029_ VDD VSS gf180mcu_fd_sc_mcu9t5v0__mux2_2
X_469_ _170_ mem\[12\]\[3\] _183_ _030_ VDD VSS gf180mcu_fd_sc_mcu9t5v0__mux2_2
X_470_ _171_ mem\[12\]\[4\] _183_ _031_ VDD VSS gf180mcu_fd_sc_mcu9t5v0__mux2_2
X_471_ _172_ mem\[12\]\[5\] _183_ _032_ VDD VSS gf180mcu_fd_sc_mcu9t5v0__mux2_2
X_472_ _173_ mem\[12\]\[6\] _183_ _033_ VDD VSS gf180mcu_fd_sc_mcu9t5v0__mux2_2
X_473_ _174_ mem\[12\]\[7\] _183_ _034_ VDD VSS gf180mcu_fd_sc_mcu9t5v0__mux2_2
X_474_ net16 _386_ _184_ VDD VSS gf180mcu_fd_sc_mcu9t5v0__and2_4
X_475_ _181_ _164_ _182_ _184_ _185_ VDD VSS gf180mcu_fd_sc_mcu9t5v0__oai211_4
X_476_ _163_ mem\[13\]\[0\] _185_ _035_ VDD VSS gf180mcu_fd_sc_mcu9t5v0__mux2_2
X_477_ _168_ mem\[13\]\[1\] _185_ _036_ VDD VSS gf180mcu_fd_sc_mcu9t5v0__mux2_2
X_478_ _169_ mem\[13\]\[2\] _185_ _037_ VDD VSS gf180mcu_fd_sc_mcu9t5v0__mux2_2
X_479_ _170_ mem\[13\]\[3\] _185_ _038_ VDD VSS gf180mcu_fd_sc_mcu9t5v0__mux2_2
X_480_ _171_ mem\[13\]\[4\] _185_ _039_ VDD VSS gf180mcu_fd_sc_mcu9t5v0__mux2_2
X_481_ _172_ mem\[13\]\[5\] _185_ _040_ VDD VSS gf180mcu_fd_sc_mcu9t5v0__mux2_2
X_482_ _173_ mem\[13\]\[6\] _185_ _041_ VDD VSS gf180mcu_fd_sc_mcu9t5v0__mux2_2
X_483_ _174_ mem\[13\]\[7\] _185_ _042_ VDD VSS gf180mcu_fd_sc_mcu9t5v0__mux2_2
X_484_ _181_ _164_ _177_ _182_ _186_ VDD VSS gf180mcu_fd_sc_mcu9t5v0__oai211_4
X_485_ _163_ mem\[14\]\[0\] _186_ _043_ VDD VSS gf180mcu_fd_sc_mcu9t5v0__mux2_2
X_486_ _168_ mem\[14\]\[1\] _186_ _044_ VDD VSS gf180mcu_fd_sc_mcu9t5v0__mux2_2
X_487_ _169_ mem\[14\]\[2\] _186_ _045_ VDD VSS gf180mcu_fd_sc_mcu9t5v0__mux2_2
X_488_ _170_ mem\[14\]\[3\] _186_ _046_ VDD VSS gf180mcu_fd_sc_mcu9t5v0__mux2_2
X_489_ _171_ mem\[14\]\[4\] _186_ _047_ VDD VSS gf180mcu_fd_sc_mcu9t5v0__mux2_2
X_490_ _172_ mem\[14\]\[5\] _186_ _048_ VDD VSS gf180mcu_fd_sc_mcu9t5v0__mux2_2
X_491_ _173_ mem\[14\]\[6\] _186_ _049_ VDD VSS gf180mcu_fd_sc_mcu9t5v0__mux2_2
X_492_ _174_ mem\[14\]\[7\] _186_ _050_ VDD VSS gf180mcu_fd_sc_mcu9t5v0__mux2_2
X_493_ _155_ _161_ _179_ _182_ _187_ VDD VSS gf180mcu_fd_sc_mcu9t5v0__oai211_4
X_494_ _163_ mem\[15\]\[0\] _187_ _051_ VDD VSS gf180mcu_fd_sc_mcu9t5v0__mux2_2
X_495_ _168_ mem\[15\]\[1\] _187_ _052_ VDD VSS gf180mcu_fd_sc_mcu9t5v0__mux2_2
X_496_ _169_ mem\[15\]\[2\] _187_ _053_ VDD VSS gf180mcu_fd_sc_mcu9t5v0__mux2_2
X_497_ _170_ mem\[15\]\[3\] _187_ _054_ VDD VSS gf180mcu_fd_sc_mcu9t5v0__mux2_2
X_498_ _171_ mem\[15\]\[4\] _187_ _055_ VDD VSS gf180mcu_fd_sc_mcu9t5v0__mux2_2
X_499_ _172_ mem\[15\]\[5\] _187_ _056_ VDD VSS gf180mcu_fd_sc_mcu9t5v0__mux2_2
X_500_ _173_ mem\[15\]\[6\] _187_ _057_ VDD VSS gf180mcu_fd_sc_mcu9t5v0__mux2_2
X_501_ _174_ mem\[15\]\[7\] _187_ _058_ VDD VSS gf180mcu_fd_sc_mcu9t5v0__mux2_2
X_502_ _181_ _164_ _165_ _184_ _188_ VDD VSS gf180mcu_fd_sc_mcu9t5v0__oai211_4
X_503_ _163_ mem\[1\]\[0\] _188_ _059_ VDD VSS gf180mcu_fd_sc_mcu9t5v0__mux2_2
X_504_ _168_ mem\[1\]\[1\] _188_ _060_ VDD VSS gf180mcu_fd_sc_mcu9t5v0__mux2_2
X_505_ _169_ mem\[1\]\[2\] _188_ _061_ VDD VSS gf180mcu_fd_sc_mcu9t5v0__mux2_2
X_506_ _170_ mem\[1\]\[3\] _188_ _062_ VDD VSS gf180mcu_fd_sc_mcu9t5v0__mux2_2
X_507_ _171_ mem\[1\]\[4\] _188_ _063_ VDD VSS gf180mcu_fd_sc_mcu9t5v0__mux2_2
X_508_ _172_ mem\[1\]\[5\] _188_ _064_ VDD VSS gf180mcu_fd_sc_mcu9t5v0__mux2_2
X_509_ _173_ mem\[1\]\[6\] _188_ _065_ VDD VSS gf180mcu_fd_sc_mcu9t5v0__mux2_2
X_510_ _174_ mem\[1\]\[7\] _188_ _066_ VDD VSS gf180mcu_fd_sc_mcu9t5v0__mux2_2
X_511_ _181_ _164_ _165_ _177_ _189_ VDD VSS gf180mcu_fd_sc_mcu9t5v0__oai211_4
X_512_ _163_ mem\[2\]\[0\] _189_ _067_ VDD VSS gf180mcu_fd_sc_mcu9t5v0__mux2_2
X_513_ _168_ mem\[2\]\[1\] _189_ _068_ VDD VSS gf180mcu_fd_sc_mcu9t5v0__mux2_2
X_514_ _169_ mem\[2\]\[2\] _189_ _069_ VDD VSS gf180mcu_fd_sc_mcu9t5v0__mux2_2
X_515_ _170_ mem\[2\]\[3\] _189_ _070_ VDD VSS gf180mcu_fd_sc_mcu9t5v0__mux2_2
X_516_ _171_ mem\[2\]\[4\] _189_ _071_ VDD VSS gf180mcu_fd_sc_mcu9t5v0__mux2_2
X_517_ _172_ mem\[2\]\[5\] _189_ _072_ VDD VSS gf180mcu_fd_sc_mcu9t5v0__mux2_2
X_518_ _173_ mem\[2\]\[6\] _189_ _073_ VDD VSS gf180mcu_fd_sc_mcu9t5v0__mux2_2
X_519_ _174_ mem\[2\]\[7\] _189_ _074_ VDD VSS gf180mcu_fd_sc_mcu9t5v0__mux2_2
X_520_ _181_ _164_ _165_ _179_ _190_ VDD VSS gf180mcu_fd_sc_mcu9t5v0__oai211_4
X_521_ _163_ mem\[3\]\[0\] _190_ _075_ VDD VSS gf180mcu_fd_sc_mcu9t5v0__mux2_2
X_522_ _168_ mem\[3\]\[1\] _190_ _076_ VDD VSS gf180mcu_fd_sc_mcu9t5v0__mux2_2
X_523_ _169_ mem\[3\]\[2\] _190_ _077_ VDD VSS gf180mcu_fd_sc_mcu9t5v0__mux2_2
X_524_ _170_ mem\[3\]\[3\] _190_ _078_ VDD VSS gf180mcu_fd_sc_mcu9t5v0__mux2_2
X_525_ _171_ mem\[3\]\[4\] _190_ _079_ VDD VSS gf180mcu_fd_sc_mcu9t5v0__mux2_2
X_526_ _172_ mem\[3\]\[5\] _190_ _080_ VDD VSS gf180mcu_fd_sc_mcu9t5v0__mux2_2
X_527_ _173_ mem\[3\]\[6\] _190_ _081_ VDD VSS gf180mcu_fd_sc_mcu9t5v0__mux2_2
X_528_ _174_ mem\[3\]\[7\] _190_ _082_ VDD VSS gf180mcu_fd_sc_mcu9t5v0__mux2_2
X_529_ wr_ptr\[3\] _175_ _191_ VDD VSS gf180mcu_fd_sc_mcu9t5v0__nor2_4
X_530_ _181_ _164_ _166_ _191_ _192_ VDD VSS gf180mcu_fd_sc_mcu9t5v0__oai211_4
X_531_ net8 mem\[4\]\[0\] _192_ _083_ VDD VSS gf180mcu_fd_sc_mcu9t5v0__mux2_2
X_532_ net9 mem\[4\]\[1\] _192_ _084_ VDD VSS gf180mcu_fd_sc_mcu9t5v0__mux2_2
X_533_ net10 mem\[4\]\[2\] _192_ _085_ VDD VSS gf180mcu_fd_sc_mcu9t5v0__mux2_2
X_534_ net11 mem\[4\]\[3\] _192_ _086_ VDD VSS gf180mcu_fd_sc_mcu9t5v0__mux2_2
X_535_ net12 mem\[4\]\[4\] _192_ _087_ VDD VSS gf180mcu_fd_sc_mcu9t5v0__mux2_2
X_536_ net13 mem\[4\]\[5\] _192_ _088_ VDD VSS gf180mcu_fd_sc_mcu9t5v0__mux2_2
X_537_ net14 mem\[4\]\[6\] _192_ _089_ VDD VSS gf180mcu_fd_sc_mcu9t5v0__mux2_2
X_538_ net15 mem\[4\]\[7\] _192_ _090_ VDD VSS gf180mcu_fd_sc_mcu9t5v0__mux2_2
X_539_ _181_ _160_ _184_ _191_ _193_ VDD VSS gf180mcu_fd_sc_mcu9t5v0__oai211_4
X_540_ net8 mem\[5\]\[0\] _193_ _091_ VDD VSS gf180mcu_fd_sc_mcu9t5v0__mux2_2
X_541_ net9 mem\[5\]\[1\] _193_ _092_ VDD VSS gf180mcu_fd_sc_mcu9t5v0__mux2_2
X_542_ net10 mem\[5\]\[2\] _193_ _093_ VDD VSS gf180mcu_fd_sc_mcu9t5v0__mux2_2
X_543_ net11 mem\[5\]\[3\] _193_ _094_ VDD VSS gf180mcu_fd_sc_mcu9t5v0__mux2_2
X_544_ net12 mem\[5\]\[4\] _193_ _095_ VDD VSS gf180mcu_fd_sc_mcu9t5v0__mux2_2
X_545_ net13 mem\[5\]\[5\] _193_ _096_ VDD VSS gf180mcu_fd_sc_mcu9t5v0__mux2_2
X_546_ net14 mem\[5\]\[6\] _193_ _097_ VDD VSS gf180mcu_fd_sc_mcu9t5v0__mux2_2
X_547_ net15 mem\[5\]\[7\] _193_ _098_ VDD VSS gf180mcu_fd_sc_mcu9t5v0__mux2_2
X_548_ _181_ _160_ _177_ _191_ _194_ VDD VSS gf180mcu_fd_sc_mcu9t5v0__oai211_4
X_549_ net8 mem\[6\]\[0\] _194_ _099_ VDD VSS gf180mcu_fd_sc_mcu9t5v0__mux2_2
X_550_ net9 mem\[6\]\[1\] _194_ _100_ VDD VSS gf180mcu_fd_sc_mcu9t5v0__mux2_2
X_551_ net10 mem\[6\]\[2\] _194_ _101_ VDD VSS gf180mcu_fd_sc_mcu9t5v0__mux2_2
X_552_ net11 mem\[6\]\[3\] _194_ _102_ VDD VSS gf180mcu_fd_sc_mcu9t5v0__mux2_2
X_553_ net12 mem\[6\]\[4\] _194_ _103_ VDD VSS gf180mcu_fd_sc_mcu9t5v0__mux2_2
X_554_ net13 mem\[6\]\[5\] _194_ _104_ VDD VSS gf180mcu_fd_sc_mcu9t5v0__mux2_2
X_555_ net14 mem\[6\]\[6\] _194_ _105_ VDD VSS gf180mcu_fd_sc_mcu9t5v0__mux2_2
X_556_ net15 mem\[6\]\[7\] _194_ _106_ VDD VSS gf180mcu_fd_sc_mcu9t5v0__mux2_2
X_557_ _181_ _160_ _179_ _191_ _195_ VDD VSS gf180mcu_fd_sc_mcu9t5v0__oai211_4
X_558_ net8 mem\[7\]\[0\] _195_ _107_ VDD VSS gf180mcu_fd_sc_mcu9t5v0__mux2_2
X_559_ net9 mem\[7\]\[1\] _195_ _108_ VDD VSS gf180mcu_fd_sc_mcu9t5v0__mux2_2
X_560_ net10 mem\[7\]\[2\] _195_ _109_ VDD VSS gf180mcu_fd_sc_mcu9t5v0__mux2_2
X_561_ net11 mem\[7\]\[3\] _195_ _110_ VDD VSS gf180mcu_fd_sc_mcu9t5v0__mux2_2
X_562_ net12 mem\[7\]\[4\] _195_ _111_ VDD VSS gf180mcu_fd_sc_mcu9t5v0__mux2_2
X_563_ net13 mem\[7\]\[5\] _195_ _112_ VDD VSS gf180mcu_fd_sc_mcu9t5v0__mux2_2
X_564_ net14 mem\[7\]\[6\] _195_ _113_ VDD VSS gf180mcu_fd_sc_mcu9t5v0__mux2_2
X_565_ net15 mem\[7\]\[7\] _195_ _114_ VDD VSS gf180mcu_fd_sc_mcu9t5v0__mux2_2
X_566_ _154_ _160_ _166_ _176_ _196_ VDD VSS gf180mcu_fd_sc_mcu9t5v0__oai211_4
X_567_ net8 mem\[8\]\[0\] _196_ _115_ VDD VSS gf180mcu_fd_sc_mcu9t5v0__mux2_2
X_568_ net9 mem\[8\]\[1\] _196_ _116_ VDD VSS gf180mcu_fd_sc_mcu9t5v0__mux2_2
X_569_ net10 mem\[8\]\[2\] _196_ _117_ VDD VSS gf180mcu_fd_sc_mcu9t5v0__mux2_2
X_570_ net11 mem\[8\]\[3\] _196_ _118_ VDD VSS gf180mcu_fd_sc_mcu9t5v0__mux2_2
X_571_ net12 mem\[8\]\[4\] _196_ _119_ VDD VSS gf180mcu_fd_sc_mcu9t5v0__mux2_2
X_572_ net13 mem\[8\]\[5\] _196_ _120_ VDD VSS gf180mcu_fd_sc_mcu9t5v0__mux2_2
X_573_ net14 mem\[8\]\[6\] _196_ _121_ VDD VSS gf180mcu_fd_sc_mcu9t5v0__mux2_2
X_574_ net15 mem\[8\]\[7\] _196_ _122_ VDD VSS gf180mcu_fd_sc_mcu9t5v0__mux2_2
X_575_ _154_ _160_ _176_ _184_ _197_ VDD VSS gf180mcu_fd_sc_mcu9t5v0__oai211_4
X_576_ net8 mem\[9\]\[0\] _197_ _123_ VDD VSS gf180mcu_fd_sc_mcu9t5v0__mux2_2
X_577_ net9 mem\[9\]\[1\] _197_ _124_ VDD VSS gf180mcu_fd_sc_mcu9t5v0__mux2_2
X_578_ net10 mem\[9\]\[2\] _197_ _125_ VDD VSS gf180mcu_fd_sc_mcu9t5v0__mux2_2
X_579_ net11 mem\[9\]\[3\] _197_ _126_ VDD VSS gf180mcu_fd_sc_mcu9t5v0__mux2_2
X_580_ net12 mem\[9\]\[4\] _197_ _127_ VDD VSS gf180mcu_fd_sc_mcu9t5v0__mux2_2
X_581_ net13 mem\[9\]\[5\] _197_ _128_ VDD VSS gf180mcu_fd_sc_mcu9t5v0__mux2_2
X_582_ net14 mem\[9\]\[6\] _197_ _129_ VDD VSS gf180mcu_fd_sc_mcu9t5v0__mux2_2
X_583_ net15 mem\[9\]\[7\] _197_ _130_ VDD VSS gf180mcu_fd_sc_mcu9t5v0__mux2_2
X_584_ rd_ptr\[0\] _198_ VDD VSS gf180mcu_fd_sc_mcu9t5v0__clkbuf_8
X_585_ _198_ _199_ VDD VSS gf180mcu_fd_sc_mcu9t5v0__buf_8
X_586_ rd_ptr\[2\] _200_ VDD VSS gf180mcu_fd_sc_mcu9t5v0__buf_4
X_587_ mem\[2\]\[0\] mem\[3\]\[0\] mem\[6\]\[0\] mem\[7\]\[0\]
+ _199_ _200_ _201_ VDD VSS gf180mcu_fd_sc_mcu9t5v0__mux4_2
X_588_ _198_ _202_ VDD VSS gf180mcu_fd_sc_mcu9t5v0__buf_8
X_589_ mem\[0\]\[0\] mem\[1\]\[0\] mem\[4\]\[0\] mem\[5\]\[0\]
+ _202_ _162_ _203_ VDD VSS gf180mcu_fd_sc_mcu9t5v0__mux4_2
X_590_ _201_ _203_ _357_ _204_ VDD VSS gf180mcu_fd_sc_mcu9t5v0__mux2_2
X_591_ rd_ptr\[1\] _205_ VDD VSS gf180mcu_fd_sc_mcu9t5v0__buf_4
X_592_ mem\[12\]\[0\] mem\[13\]\[0\] mem\[14\]\[0\] mem\[15\]\[0\]
+ _202_ _205_ _206_ VDD VSS gf180mcu_fd_sc_mcu9t5v0__mux4_2
X_593_ _198_ _207_ VDD VSS gf180mcu_fd_sc_mcu9t5v0__buf_8
X_594_ mem\[8\]\[0\] mem\[9\]\[0\] mem\[10\]\[0\] mem\[11\]\[0\]
+ _207_ rd_ptr\[1\] _208_ VDD VSS gf180mcu_fd_sc_mcu9t5v0__mux4_2
X_595_ _206_ _208_ _369_ _209_ VDD VSS gf180mcu_fd_sc_mcu9t5v0__mux2_2
X_596_ rd_ptr\[3\] _210_ VDD VSS gf180mcu_fd_sc_mcu9t5v0__clkbuf_8
X_597_ _204_ _209_ _210_ _211_ VDD VSS gf180mcu_fd_sc_mcu9t5v0__mux2_2
X_598_ net24 _161_ net7 _212_ VDD VSS gf180mcu_fd_sc_mcu9t5v0__oai21_4
X_599_ _211_ net34 _212_ _131_ VDD VSS gf180mcu_fd_sc_mcu9t5v0__mux2_2
X_600_ mem\[2\]\[1\] mem\[3\]\[1\] mem\[6\]\[1\] mem\[7\]\[1\]
+ _199_ _200_ _213_ VDD VSS gf180mcu_fd_sc_mcu9t5v0__mux4_2
X_601_ mem\[0\]\[1\] mem\[1\]\[1\] mem\[4\]\[1\] mem\[5\]\[1\]
+ _202_ _162_ _214_ VDD VSS gf180mcu_fd_sc_mcu9t5v0__mux4_2
X_602_ _213_ _214_ _357_ _215_ VDD VSS gf180mcu_fd_sc_mcu9t5v0__mux2_2
X_603_ mem\[12\]\[1\] mem\[13\]\[1\] mem\[14\]\[1\] mem\[15\]\[1\]
+ _202_ _205_ _216_ VDD VSS gf180mcu_fd_sc_mcu9t5v0__mux4_2
X_604_ mem\[8\]\[1\] mem\[9\]\[1\] mem\[10\]\[1\] mem\[11\]\[1\]
+ _207_ rd_ptr\[1\] _217_ VDD VSS gf180mcu_fd_sc_mcu9t5v0__mux4_2
X_605_ _216_ _217_ _369_ _218_ VDD VSS gf180mcu_fd_sc_mcu9t5v0__mux2_2
X_606_ _215_ _218_ _210_ _219_ VDD VSS gf180mcu_fd_sc_mcu9t5v0__mux2_2
X_607_ _219_ net35 _212_ _132_ VDD VSS gf180mcu_fd_sc_mcu9t5v0__mux2_2
X_608_ mem\[2\]\[2\] mem\[3\]\[2\] mem\[6\]\[2\] mem\[7\]\[2\]
+ _199_ _200_ _220_ VDD VSS gf180mcu_fd_sc_mcu9t5v0__mux4_2
X_609_ mem\[0\]\[2\] mem\[1\]\[2\] mem\[4\]\[2\] mem\[5\]\[2\]
+ _202_ _162_ _221_ VDD VSS gf180mcu_fd_sc_mcu9t5v0__mux4_2
X_610_ _220_ _221_ _357_ _222_ VDD VSS gf180mcu_fd_sc_mcu9t5v0__mux2_2
X_611_ mem\[12\]\[2\] mem\[13\]\[2\] mem\[14\]\[2\] mem\[15\]\[2\]
+ _207_ _205_ _223_ VDD VSS gf180mcu_fd_sc_mcu9t5v0__mux4_2
X_612_ mem\[8\]\[2\] mem\[9\]\[2\] mem\[10\]\[2\] mem\[11\]\[2\]
+ _207_ rd_ptr\[1\] _224_ VDD VSS gf180mcu_fd_sc_mcu9t5v0__mux4_2
X_613_ _223_ _224_ _369_ _225_ VDD VSS gf180mcu_fd_sc_mcu9t5v0__mux2_2
X_614_ _222_ _225_ _210_ _226_ VDD VSS gf180mcu_fd_sc_mcu9t5v0__mux2_2
X_615_ _226_ net36 _212_ _133_ VDD VSS gf180mcu_fd_sc_mcu9t5v0__mux2_2
X_616_ mem\[2\]\[3\] mem\[3\]\[3\] mem\[6\]\[3\] mem\[7\]\[3\]
+ _199_ _200_ _227_ VDD VSS gf180mcu_fd_sc_mcu9t5v0__mux4_2
X_617_ mem\[0\]\[3\] mem\[1\]\[3\] mem\[4\]\[3\] mem\[5\]\[3\]
+ _202_ _162_ _228_ VDD VSS gf180mcu_fd_sc_mcu9t5v0__mux4_2
X_618_ _227_ _228_ _357_ _229_ VDD VSS gf180mcu_fd_sc_mcu9t5v0__mux2_2
X_619_ mem\[12\]\[3\] mem\[13\]\[3\] mem\[14\]\[3\] mem\[15\]\[3\]
+ _207_ _205_ _230_ VDD VSS gf180mcu_fd_sc_mcu9t5v0__mux4_2
X_620_ mem\[8\]\[3\] mem\[9\]\[3\] mem\[10\]\[3\] mem\[11\]\[3\]
+ _207_ rd_ptr\[1\] _231_ VDD VSS gf180mcu_fd_sc_mcu9t5v0__mux4_2
X_621_ _230_ _231_ _369_ _232_ VDD VSS gf180mcu_fd_sc_mcu9t5v0__mux2_2
X_622_ _229_ _232_ _210_ _233_ VDD VSS gf180mcu_fd_sc_mcu9t5v0__mux2_2
X_623_ _233_ net37 _212_ _134_ VDD VSS gf180mcu_fd_sc_mcu9t5v0__mux2_2
X_624_ mem\[2\]\[4\] mem\[3\]\[4\] mem\[6\]\[4\] mem\[7\]\[4\]
+ _199_ _200_ _234_ VDD VSS gf180mcu_fd_sc_mcu9t5v0__mux4_2
X_625_ mem\[0\]\[4\] mem\[1\]\[4\] mem\[4\]\[4\] mem\[5\]\[4\]
+ _202_ _162_ _235_ VDD VSS gf180mcu_fd_sc_mcu9t5v0__mux4_2
X_626_ _234_ _235_ _357_ _236_ VDD VSS gf180mcu_fd_sc_mcu9t5v0__mux2_2
X_627_ mem\[12\]\[4\] mem\[13\]\[4\] mem\[14\]\[4\] mem\[15\]\[4\]
+ _207_ _205_ _237_ VDD VSS gf180mcu_fd_sc_mcu9t5v0__mux4_2
X_628_ mem\[8\]\[4\] mem\[9\]\[4\] mem\[10\]\[4\] mem\[11\]\[4\]
+ _198_ rd_ptr\[1\] _238_ VDD VSS gf180mcu_fd_sc_mcu9t5v0__mux4_2
X_629_ _237_ _238_ _369_ _239_ VDD VSS gf180mcu_fd_sc_mcu9t5v0__mux2_2
X_630_ _236_ _239_ _210_ _240_ VDD VSS gf180mcu_fd_sc_mcu9t5v0__mux2_2
X_631_ _240_ net38 _212_ _135_ VDD VSS gf180mcu_fd_sc_mcu9t5v0__mux2_2
X_632_ mem\[2\]\[5\] mem\[3\]\[5\] mem\[6\]\[5\] mem\[7\]\[5\]
+ _199_ _200_ _241_ VDD VSS gf180mcu_fd_sc_mcu9t5v0__mux4_2
X_633_ mem\[0\]\[5\] mem\[1\]\[5\] mem\[4\]\[5\] mem\[5\]\[5\]
+ _202_ _162_ _242_ VDD VSS gf180mcu_fd_sc_mcu9t5v0__mux4_2
X_634_ _241_ _242_ _357_ _243_ VDD VSS gf180mcu_fd_sc_mcu9t5v0__mux2_2
X_635_ mem\[12\]\[5\] mem\[13\]\[5\] mem\[14\]\[5\] mem\[15\]\[5\]
+ _207_ _205_ _244_ VDD VSS gf180mcu_fd_sc_mcu9t5v0__mux4_2
X_636_ mem\[8\]\[5\] mem\[9\]\[5\] mem\[10\]\[5\] mem\[11\]\[5\]
+ _198_ rd_ptr\[1\] _245_ VDD VSS gf180mcu_fd_sc_mcu9t5v0__mux4_2
X_637_ _244_ _245_ _369_ _246_ VDD VSS gf180mcu_fd_sc_mcu9t5v0__mux2_2
X_638_ _243_ _246_ _210_ _247_ VDD VSS gf180mcu_fd_sc_mcu9t5v0__mux2_2
X_639_ _247_ net39 _212_ _136_ VDD VSS gf180mcu_fd_sc_mcu9t5v0__mux2_2
X_640_ mem\[2\]\[6\] mem\[3\]\[6\] mem\[6\]\[6\] mem\[7\]\[6\]
+ _199_ _200_ _248_ VDD VSS gf180mcu_fd_sc_mcu9t5v0__mux4_2
X_641_ mem\[0\]\[6\] mem\[1\]\[6\] mem\[4\]\[6\] mem\[5\]\[6\]
+ _202_ _162_ _249_ VDD VSS gf180mcu_fd_sc_mcu9t5v0__mux4_2
X_642_ _248_ _249_ _357_ _250_ VDD VSS gf180mcu_fd_sc_mcu9t5v0__mux2_2
X_643_ mem\[12\]\[6\] mem\[13\]\[6\] mem\[14\]\[6\] mem\[15\]\[6\]
+ _207_ _205_ _251_ VDD VSS gf180mcu_fd_sc_mcu9t5v0__mux4_2
X_644_ mem\[8\]\[6\] mem\[9\]\[6\] mem\[10\]\[6\] mem\[11\]\[6\]
+ _198_ rd_ptr\[1\] _252_ VDD VSS gf180mcu_fd_sc_mcu9t5v0__mux4_2
X_645_ _251_ _252_ _369_ _253_ VDD VSS gf180mcu_fd_sc_mcu9t5v0__mux2_2
X_646_ _250_ _253_ _210_ _254_ VDD VSS gf180mcu_fd_sc_mcu9t5v0__mux2_2
X_647_ _254_ net40 _212_ _137_ VDD VSS gf180mcu_fd_sc_mcu9t5v0__mux2_2
X_648_ mem\[2\]\[7\] mem\[3\]\[7\] mem\[6\]\[7\] mem\[7\]\[7\]
+ _199_ _162_ _255_ VDD VSS gf180mcu_fd_sc_mcu9t5v0__mux4_2
X_649_ mem\[0\]\[7\] mem\[1\]\[7\] mem\[4\]\[7\] mem\[5\]\[7\]
+ _202_ _162_ _256_ VDD VSS gf180mcu_fd_sc_mcu9t5v0__mux4_2
X_650_ _255_ _256_ _357_ _257_ VDD VSS gf180mcu_fd_sc_mcu9t5v0__mux2_2
X_651_ mem\[12\]\[7\] mem\[13\]\[7\] mem\[14\]\[7\] mem\[15\]\[7\]
+ _207_ _205_ _258_ VDD VSS gf180mcu_fd_sc_mcu9t5v0__mux4_2
X_652_ mem\[8\]\[7\] mem\[9\]\[7\] mem\[10\]\[7\] mem\[11\]\[7\]
+ _198_ rd_ptr\[1\] _259_ VDD VSS gf180mcu_fd_sc_mcu9t5v0__mux4_2
X_653_ _258_ _259_ _369_ _260_ VDD VSS gf180mcu_fd_sc_mcu9t5v0__mux2_2
X_654_ _257_ _260_ _210_ _261_ VDD VSS gf180mcu_fd_sc_mcu9t5v0__mux2_2
X_655_ _261_ net41 _212_ _138_ VDD VSS gf180mcu_fd_sc_mcu9t5v0__mux2_2
X_656_ _199_ _212_ _139_ VDD VSS gf180mcu_fd_sc_mcu9t5v0__xnor2_2
X_657_ _002_ _205_ _212_ _140_ VDD VSS gf180mcu_fd_sc_mcu9t5v0__mux2_2
X_658_ net24 _161_ net7 _381_ _262_ VDD VSS gf180mcu_fd_sc_mcu9t5v0__oai211_2
X_659_ _200_ _262_ _141_ VDD VSS gf180mcu_fd_sc_mcu9t5v0__xnor2_2
X_660_ net7 _199_ _205_ _200_ _263_ VDD VSS gf180mcu_fd_sc_mcu9t5v0__and4_2
X_661_ net24 _161_ _263_ _264_ VDD VSS gf180mcu_fd_sc_mcu9t5v0__oai21_2
X_662_ _210_ _264_ _142_ VDD VSS gf180mcu_fd_sc_mcu9t5v0__xnor2_2
X_663_ net7 _210_ _200_ _381_ _265_ VDD VSS gf180mcu_fd_sc_mcu9t5v0__and4_2
X_664_ net24 _161_ _265_ _266_ VDD VSS gf180mcu_fd_sc_mcu9t5v0__oai21_2
X_665_ rd_ptr\[4\] _266_ _143_ VDD VSS gf180mcu_fd_sc_mcu9t5v0__xnor2_2
X_666_ _155_ _161_ net16 _267_ VDD VSS gf180mcu_fd_sc_mcu9t5v0__oai21_2
X_667_ wr_ptr\[0\] _267_ _144_ VDD VSS gf180mcu_fd_sc_mcu9t5v0__xnor2_2
X_668_ _001_ wr_ptr\[1\] _267_ _145_ VDD VSS gf180mcu_fd_sc_mcu9t5v0__mux2_2
X_669_ _155_ _161_ _179_ _268_ VDD VSS gf180mcu_fd_sc_mcu9t5v0__oai21_2
X_670_ wr_ptr\[2\] _268_ _146_ VDD VSS gf180mcu_fd_sc_mcu9t5v0__xnor2_2
X_671_ net16 wr_ptr\[2\] wr_ptr\[1\] wr_ptr\[0\] _269_ VDD
+ VSS gf180mcu_fd_sc_mcu9t5v0__and4_2
X_672_ _155_ _161_ _269_ _270_ VDD VSS gf180mcu_fd_sc_mcu9t5v0__oai21_2
X_673_ wr_ptr\[3\] _270_ _147_ VDD VSS gf180mcu_fd_sc_mcu9t5v0__xnor2_2
X_674_ wr_ptr\[4\] _187_ _148_ VDD VSS gf180mcu_fd_sc_mcu9t5v0__xnor2_2
X_675_ _391_ net21 _271_ VDD VSS gf180mcu_fd_sc_mcu9t5v0__xor2_2
X_676_ net23 net22 net24 _271_ net17 VDD VSS gf180mcu_fd_sc_mcu9t5v0__nor4_2
X_677_ net20 net23 net22 net24 _272_ VDD VSS gf180mcu_fd_sc_mcu9t5v0__oai31_2
X_678_ net23 net22 _273_ VDD VSS gf180mcu_fd_sc_mcu9t5v0__nand2_2
X_679_ _378_ _272_ _273_ _155_ net18 VDD VSS gf180mcu_fd_sc_mcu9t5v0__aoi22_4
X_680_ _366_ net5 _274_ VDD VSS gf180mcu_fd_sc_mcu9t5v0__and2_2
X_681_ _156_ net5 _275_ VDD VSS gf180mcu_fd_sc_mcu9t5v0__and2_2
X_682_ _274_ _275_ _150_ _276_ VDD VSS gf180mcu_fd_sc_mcu9t5v0__mux2_2
X_683_ _391_ _379_ net2 _277_ VDD VSS gf180mcu_fd_sc_mcu9t5v0__or3_2
X_684_ _379_ _380_ _277_ net4 _278_ VDD VSS gf180mcu_fd_sc_mcu9t5v0__oai211_2
X_685_ _391_ net2 _279_ VDD VSS gf180mcu_fd_sc_mcu9t5v0__or2_2
X_686_ _380_ _279_ net4 _379_ _280_ VDD VSS gf180mcu_fd_sc_mcu9t5v0__aoi211_2
X_687_ net22 _278_ _280_ _281_ VDD VSS gf180mcu_fd_sc_mcu9t5v0__aoi21_2
X_688_ _366_ net5 _282_ VDD VSS gf180mcu_fd_sc_mcu9t5v0__or2_2
X_689_ _156_ net5 _283_ VDD VSS gf180mcu_fd_sc_mcu9t5v0__or2_2
X_690_ _282_ _283_ _150_ _284_ VDD VSS gf180mcu_fd_sc_mcu9t5v0__mux2_2
X_691_ _276_ _281_ _284_ _155_ _285_ VDD VSS gf180mcu_fd_sc_mcu9t5v0__oai211_4
X_692_ _373_ _286_ VDD VSS gf180mcu_fd_sc_mcu9t5v0__buf_8
X_693_ _363_ _287_ VDD VSS gf180mcu_fd_sc_mcu9t5v0__buf_4
X_694_ mem\[4\]\[0\] mem\[5\]\[0\] mem\[6\]\[0\] mem\[7\]\[0\]
+ _286_ _287_ _288_ VDD VSS gf180mcu_fd_sc_mcu9t5v0__mux4_2
X_695_ mem\[0\]\[0\] mem\[1\]\[0\] mem\[2\]\[0\] mem\[3\]\[0\]
+ _286_ _287_ _289_ VDD VSS gf180mcu_fd_sc_mcu9t5v0__mux4_2
X_696_ _362_ _377_ _290_ VDD VSS gf180mcu_fd_sc_mcu9t5v0__xor2_2
X_697_ _290_ _291_ VDD VSS gf180mcu_fd_sc_mcu9t5v0__buf_4
X_698_ _291_ _292_ VDD VSS gf180mcu_fd_sc_mcu9t5v0__clkbuf_8
X_699_ _288_ _289_ _292_ _293_ VDD VSS gf180mcu_fd_sc_mcu9t5v0__mux2_2
X_700_ _373_ _294_ VDD VSS gf180mcu_fd_sc_mcu9t5v0__buf_8
X_701_ _363_ _295_ VDD VSS gf180mcu_fd_sc_mcu9t5v0__clkbuf_8
X_702_ mem\[12\]\[0\] mem\[13\]\[0\] mem\[14\]\[0\] mem\[15\]\[0\]
+ _294_ _295_ _296_ VDD VSS gf180mcu_fd_sc_mcu9t5v0__mux4_2
X_703_ _373_ _297_ VDD VSS gf180mcu_fd_sc_mcu9t5v0__buf_8
X_704_ _363_ _298_ VDD VSS gf180mcu_fd_sc_mcu9t5v0__buf_4
X_705_ mem\[8\]\[0\] mem\[9\]\[0\] mem\[10\]\[0\] mem\[11\]\[0\]
+ _297_ _298_ _299_ VDD VSS gf180mcu_fd_sc_mcu9t5v0__mux4_2
X_706_ _296_ _299_ _292_ _300_ VDD VSS gf180mcu_fd_sc_mcu9t5v0__mux2_2
X_707_ _377_ _301_ VDD VSS gf180mcu_fd_sc_mcu9t5v0__clkinv_2
X_708_ _372_ _375_ _374_ _302_ VDD VSS gf180mcu_fd_sc_mcu9t5v0__aoi21_2
X_709_ _376_ _303_ VDD VSS gf180mcu_fd_sc_mcu9t5v0__clkinv_2
X_710_ _301_ _302_ _303_ _304_ VDD VSS gf180mcu_fd_sc_mcu9t5v0__oai21_2
X_711_ net5 _364_ _304_ _305_ VDD VSS gf180mcu_fd_sc_mcu9t5v0__xnor3_2
X_712_ _305_ _306_ VDD VSS gf180mcu_fd_sc_mcu9t5v0__buf_4
X_713_ _293_ _300_ _306_ _307_ VDD VSS gf180mcu_fd_sc_mcu9t5v0__mux2_2
X_714_ net6 _285_ _307_ net26 VDD VSS gf180mcu_fd_sc_mcu9t5v0__and3_4
X_715_ mem\[4\]\[1\] mem\[5\]\[1\] mem\[6\]\[1\] mem\[7\]\[1\]
+ _286_ _287_ _308_ VDD VSS gf180mcu_fd_sc_mcu9t5v0__mux4_2
X_716_ mem\[0\]\[1\] mem\[1\]\[1\] mem\[2\]\[1\] mem\[3\]\[1\]
+ _286_ _287_ _309_ VDD VSS gf180mcu_fd_sc_mcu9t5v0__mux4_2
X_717_ _308_ _309_ _292_ _310_ VDD VSS gf180mcu_fd_sc_mcu9t5v0__mux2_2
X_718_ mem\[12\]\[1\] mem\[13\]\[1\] mem\[14\]\[1\] mem\[15\]\[1\]
+ _294_ _295_ _311_ VDD VSS gf180mcu_fd_sc_mcu9t5v0__mux4_2
X_719_ mem\[8\]\[1\] mem\[9\]\[1\] mem\[10\]\[1\] mem\[11\]\[1\]
+ _297_ _298_ _312_ VDD VSS gf180mcu_fd_sc_mcu9t5v0__mux4_2
X_720_ _311_ _312_ _292_ _313_ VDD VSS gf180mcu_fd_sc_mcu9t5v0__mux2_2
X_721_ _310_ _313_ _306_ _314_ VDD VSS gf180mcu_fd_sc_mcu9t5v0__mux2_4
X_722_ net6 _285_ _314_ net27 VDD VSS gf180mcu_fd_sc_mcu9t5v0__and3_2
X_723_ mem\[4\]\[2\] mem\[5\]\[2\] mem\[6\]\[2\] mem\[7\]\[2\]
+ _286_ _287_ _315_ VDD VSS gf180mcu_fd_sc_mcu9t5v0__mux4_2
X_724_ mem\[0\]\[2\] mem\[1\]\[2\] mem\[2\]\[2\] mem\[3\]\[2\]
+ _294_ _295_ _316_ VDD VSS gf180mcu_fd_sc_mcu9t5v0__mux4_2
X_725_ _315_ _316_ _292_ _317_ VDD VSS gf180mcu_fd_sc_mcu9t5v0__mux2_2
X_726_ mem\[12\]\[2\] mem\[13\]\[2\] mem\[14\]\[2\] mem\[15\]\[2\]
+ _294_ _295_ _318_ VDD VSS gf180mcu_fd_sc_mcu9t5v0__mux4_2
X_727_ mem\[8\]\[2\] mem\[9\]\[2\] mem\[10\]\[2\] mem\[11\]\[2\]
+ _297_ _298_ _319_ VDD VSS gf180mcu_fd_sc_mcu9t5v0__mux4_2
X_728_ _318_ _319_ _291_ _320_ VDD VSS gf180mcu_fd_sc_mcu9t5v0__mux2_2
X_729_ _317_ _320_ _306_ _321_ VDD VSS gf180mcu_fd_sc_mcu9t5v0__mux2_4
X_730_ net6 _285_ _321_ net28 VDD VSS gf180mcu_fd_sc_mcu9t5v0__and3_2
X_731_ mem\[4\]\[3\] mem\[5\]\[3\] mem\[6\]\[3\] mem\[7\]\[3\]
+ _286_ _287_ _322_ VDD VSS gf180mcu_fd_sc_mcu9t5v0__mux4_2
X_732_ mem\[0\]\[3\] mem\[1\]\[3\] mem\[2\]\[3\] mem\[3\]\[3\]
+ _294_ _295_ _323_ VDD VSS gf180mcu_fd_sc_mcu9t5v0__mux4_2
X_733_ _322_ _323_ _292_ _324_ VDD VSS gf180mcu_fd_sc_mcu9t5v0__mux2_2
X_734_ mem\[12\]\[3\] mem\[13\]\[3\] mem\[14\]\[3\] mem\[15\]\[3\]
+ _294_ _295_ _325_ VDD VSS gf180mcu_fd_sc_mcu9t5v0__mux4_2
X_735_ mem\[8\]\[3\] mem\[9\]\[3\] mem\[10\]\[3\] mem\[11\]\[3\]
+ _297_ _298_ _326_ VDD VSS gf180mcu_fd_sc_mcu9t5v0__mux4_2
X_736_ _325_ _326_ _291_ _327_ VDD VSS gf180mcu_fd_sc_mcu9t5v0__mux2_2
X_737_ _324_ _327_ _306_ _328_ VDD VSS gf180mcu_fd_sc_mcu9t5v0__mux2_4
X_738_ net6 _285_ _328_ net29 VDD VSS gf180mcu_fd_sc_mcu9t5v0__and3_2
X_739_ mem\[4\]\[4\] mem\[5\]\[4\] mem\[6\]\[4\] mem\[7\]\[4\]
+ _286_ _287_ _329_ VDD VSS gf180mcu_fd_sc_mcu9t5v0__mux4_2
X_740_ mem\[0\]\[4\] mem\[1\]\[4\] mem\[2\]\[4\] mem\[3\]\[4\]
+ _294_ _295_ _330_ VDD VSS gf180mcu_fd_sc_mcu9t5v0__mux4_2
X_741_ _329_ _330_ _292_ _331_ VDD VSS gf180mcu_fd_sc_mcu9t5v0__mux2_2
X_742_ mem\[12\]\[4\] mem\[13\]\[4\] mem\[14\]\[4\] mem\[15\]\[4\]
+ _297_ _298_ _332_ VDD VSS gf180mcu_fd_sc_mcu9t5v0__mux4_2
X_743_ mem\[8\]\[4\] mem\[9\]\[4\] mem\[10\]\[4\] mem\[11\]\[4\]
+ _297_ _298_ _333_ VDD VSS gf180mcu_fd_sc_mcu9t5v0__mux4_2
X_744_ _332_ _333_ _291_ _334_ VDD VSS gf180mcu_fd_sc_mcu9t5v0__mux2_2
X_745_ _331_ _334_ _306_ _335_ VDD VSS gf180mcu_fd_sc_mcu9t5v0__mux2_2
X_746_ net6 _285_ _335_ net30 VDD VSS gf180mcu_fd_sc_mcu9t5v0__and3_2
X_747_ mem\[4\]\[5\] mem\[5\]\[5\] mem\[6\]\[5\] mem\[7\]\[5\]
+ _286_ _287_ _336_ VDD VSS gf180mcu_fd_sc_mcu9t5v0__mux4_2
X_748_ mem\[0\]\[5\] mem\[1\]\[5\] mem\[2\]\[5\] mem\[3\]\[5\]
+ _294_ _295_ _337_ VDD VSS gf180mcu_fd_sc_mcu9t5v0__mux4_2
X_749_ _336_ _337_ _292_ _338_ VDD VSS gf180mcu_fd_sc_mcu9t5v0__mux2_2
X_750_ mem\[12\]\[5\] mem\[13\]\[5\] mem\[14\]\[5\] mem\[15\]\[5\]
+ _297_ _298_ _339_ VDD VSS gf180mcu_fd_sc_mcu9t5v0__mux4_2
X_751_ mem\[8\]\[5\] mem\[9\]\[5\] mem\[10\]\[5\] mem\[11\]\[5\]
+ _297_ _298_ _340_ VDD VSS gf180mcu_fd_sc_mcu9t5v0__mux4_2
X_752_ _339_ _340_ _291_ _341_ VDD VSS gf180mcu_fd_sc_mcu9t5v0__mux2_2