
* cell parameterized_spi_master
* pin rx_data[6]
* pin spi_miso
* pin rx_data[2]
* pin rx_data[1]
* pin rx_data[3]
* pin rx_data[4]
* pin rx_valid
* pin rx_data[0]
* pin rx_data[7]
* pin rx_data[5]
* pin clk
* pin spi_mosi
* pin tx_data[7]
* pin tx_data[6]
* pin tx_data[5]
* pin rst_n
* pin tx_data[4]
* pin tx_data[3]
* pin tx_data[2]
* pin tx_data[1]
* pin tx_data[0]
* pin tx_valid
* pin spi_cs_n
* pin tx_ready
* pin spi_clk
.SUBCKT parameterized_spi_master 1 2 3 4 5 18 52 60 71 78 123 124 130 143 165
+ 199 204 205 206 207 208 209 210 211 212
* net 1 rx_data[6]
* net 2 spi_miso
* net 3 rx_data[2]
* net 4 rx_data[1]
* net 5 rx_data[3]
* net 18 rx_data[4]
* net 52 rx_valid
* net 60 rx_data[0]
* net 71 rx_data[7]
* net 78 rx_data[5]
* net 123 clk
* net 124 spi_mosi
* net 130 tx_data[7]
* net 143 tx_data[6]
* net 165 tx_data[5]
* net 199 rst_n
* net 204 tx_data[4]
* net 205 tx_data[3]
* net 206 tx_data[2]
* net 207 tx_data[1]
* net 208 tx_data[0]
* net 209 tx_valid
* net 210 spi_cs_n
* net 211 tx_ready
* net 212 spi_clk
* cell instance $3 r0 *1 13.8,2.72
X$3 11 16 1 6 11 6 sky130_fd_sc_hd__clkbuf_1
* cell instance $5 r0 *1 16.1,2.72
X$5 11 2 11 6 29 6 sky130_fd_sc_hd__clkbuf_2
* cell instance $9 r0 *1 25.3,2.72
X$9 11 8 3 6 11 6 sky130_fd_sc_hd__clkbuf_1
* cell instance $12 r0 *1 36.34,2.72
X$12 11 7 4 6 11 6 sky130_fd_sc_hd__clkbuf_1
* cell instance $15 r0 *1 48.3,2.72
X$15 11 21 5 6 11 6 sky130_fd_sc_hd__clkbuf_1
* cell instance $59 m0 *1 3.22,8.16
X$59 6 15 16 9 13 11 11 6 sky130_fd_sc_hd__dfrtp_1
* cell instance $60 m0 *1 12.42,8.16
X$60 6 13 16 19 10 11 11 6 sky130_fd_sc_hd__mux2_1
* cell instance $65 m0 *1 22.08,8.16
X$65 6 20 8 24 10 11 11 6 sky130_fd_sc_hd__mux2_1
* cell instance $72 m0 *1 32.66,8.16
X$72 6 22 7 30 10 11 11 6 sky130_fd_sc_hd__mux2_1
* cell instance $74 m0 *1 37.72,8.16
X$74 6 15 23 14 12 11 11 6 sky130_fd_sc_hd__dfrtp_1
* cell instance $98 r0 *1 18.4,8.16
X$98 6 15 8 9 20 11 11 6 sky130_fd_sc_hd__dfrtp_1
* cell instance $101 r0 *1 29.9,8.16
X$101 6 15 7 9 22 11 11 6 sky130_fd_sc_hd__dfrtp_1
* cell instance $107 r0 *1 45.54,8.16
X$107 6 28 21 23 10 11 11 6 sky130_fd_sc_hd__mux2_1
* cell instance $111 r0 *1 57.5,8.16
X$111 6 15 17 14 26 11 11 6 sky130_fd_sc_hd__dfrtp_1
* cell instance $112 r0 *1 66.7,8.16
X$112 11 17 18 6 11 6 sky130_fd_sc_hd__clkbuf_1
* cell instance $119 m0 *1 9.2,13.6
X$119 6 15 19 9 27 11 11 6 sky130_fd_sc_hd__dfrtp_1
* cell instance $122 m0 *1 18.4,13.6
X$122 6 15 24 9 32 11 11 6 sky130_fd_sc_hd__dfrtp_1
* cell instance $126 m0 *1 29.44,13.6
X$126 6 15 30 9 33 11 11 6 sky130_fd_sc_hd__dfrtp_1
* cell instance $128 m0 *1 39.1,13.6
X$128 6 12 29 23 25 11 11 6 sky130_fd_sc_hd__mux2_1
* cell instance $132 m0 *1 43.7,13.6
X$132 6 15 21 14 28 11 11 6 sky130_fd_sc_hd__dfrtp_1
* cell instance $135 m0 *1 57.04,13.6
X$135 6 26 17 31 10 11 11 6 sky130_fd_sc_hd__mux2_1
* cell instance $148 r0 *1 15.64,13.6
X$148 6 27 29 19 35 11 11 6 sky130_fd_sc_hd__mux2_1
* cell instance $151 r0 *1 22.54,13.6
X$151 6 32 29 24 38 11 11 6 sky130_fd_sc_hd__mux2_1
* cell instance $155 r0 *1 29.9,13.6
X$155 6 33 29 30 39 11 11 6 sky130_fd_sc_hd__mux2_1
* cell instance $163 r0 *1 45.08,13.6
X$163 6 15 31 14 36 11 11 6 sky130_fd_sc_hd__dfrtp_1
* cell instance $189 m0 *1 46.46,19.04
X$189 6 36 29 31 34 11 11 6 sky130_fd_sc_hd__mux2_1
* cell instance $213 r0 *1 20.7,19.04
X$213 6 53 29 46 47 11 11 6 sky130_fd_sc_hd__mux2_1
* cell instance $214 r0 *1 24.84,19.04
X$214 11 37 40 56 35 6 11 6 sky130_fd_sc_hd__nor3_1
* cell instance $216 r0 *1 27.6,19.04
X$216 11 41 37 40 38 6 11 6 sky130_fd_sc_hd__nor3_1
* cell instance $218 r0 *1 30.36,19.04
X$218 11 37 48 42 41 6 39 11 6 sky130_fd_sc_hd__nor4_1
* cell instance $220 r0 *1 33.12,19.04
X$220 11 37 43 61 41 6 34 11 6 sky130_fd_sc_hd__nor4_1
* cell instance $221 r0 *1 35.42,19.04
X$221 11 37 43 42 41 6 25 11 6 sky130_fd_sc_hd__nor4_1
* cell instance $235 r0 *1 57.5,19.04
X$235 11 10 11 6 45 6 sky130_fd_sc_hd__inv_1
* cell instance $236 r0 *1 58.88,19.04
X$236 6 15 44 14 45 11 11 6 sky130_fd_sc_hd__dfrtp_1
* cell instance $237 r0 *1 68.08,19.04
X$237 11 44 52 6 11 6 sky130_fd_sc_hd__clkbuf_1
* cell instance $245 m0 *1 11.5,24.48
X$245 6 15 46 9 53 11 11 6 sky130_fd_sc_hd__dfrtp_1
* cell instance $246 m0 *1 20.7,24.48
X$246 6 55 9 11 11 6 sky130_fd_sc_hd__clkbuf_8
* cell instance $247 m0 *1 25.76,24.48
X$247 11 56 43 42 37 6 47 11 6 sky130_fd_sc_hd__nor4_1
* cell instance $250 m0 *1 29.44,24.48
X$250 11 56 48 42 37 6 92 11 6 sky130_fd_sc_hd__nor4_1
* cell instance $251 m0 *1 31.74,24.48
X$251 11 43 11 6 48 6 sky130_fd_sc_hd__inv_1
* cell instance $253 m0 *1 34.96,24.48
X$253 11 42 11 6 61 6 sky130_fd_sc_hd__inv_1
* cell instance $254 m0 *1 36.34,24.48
X$254 6 50 49 67 62 11 11 6 sky130_fd_sc_hd__ha_1
* cell instance $256 m0 *1 41.86,24.48
X$256 11 54 49 50 74 57 6 11 6 sky130_fd_sc_hd__nor4bb_1
* cell instance $258 m0 *1 47.38,24.48
X$258 6 15 59 14 58 11 11 6 sky130_fd_sc_hd__dfrtp_1
* cell instance $260 m0 *1 57.04,24.48
X$260 6 69 51 59 10 11 11 6 sky130_fd_sc_hd__mux2_1
* cell instance $265 m0 *1 68.08,24.48
X$265 11 51 60 6 11 6 sky130_fd_sc_hd__clkbuf_1
* cell instance $269 r0 *1 6.44,24.48
X$269 11 63 71 6 11 6 sky130_fd_sc_hd__clkbuf_1
* cell instance $271 r0 *1 8.74,24.48
X$271 6 75 63 46 10 11 11 6 sky130_fd_sc_hd__mux2_1
* cell instance $280 r0 *1 17.94,24.48
X$280 6 9 11 11 6 sky130_fd_sc_hd__bufinv_16
* cell instance $281 r0 *1 28.98,24.48
X$281 11 42 43 40 11 6 6 sky130_fd_sc_hd__nand2_1
* cell instance $282 r0 *1 30.36,24.48
X$282 11 66 73 64 65 56 11 6 6 sky130_fd_sc_hd__or4_1
* cell instance $283 r0 *1 33.12,24.48
X$283 11 66 64 73 65 6 11 41 6 sky130_fd_sc_hd__or4b_2
* cell instance $285 r0 *1 37.26,24.48
X$285 11 67 70 62 6 11 6 sky130_fd_sc_hd__nand2b_1
* cell instance $288 r0 *1 40.94,24.48
X$288 11 54 49 68 6 11 6 sky130_fd_sc_hd__nor2_1
* cell instance $294 r0 *1 43.24,24.48
X$294 6 6 85 37 57 11 11 sky130_fd_sc_hd__nand2_2
* cell instance $295 r0 *1 45.54,24.48
X$295 11 68 50 74 57 6 11 90 6 sky130_fd_sc_hd__a31oi_1
* cell instance $297 r0 *1 48.3,24.48
X$297 6 55 14 11 11 6 sky130_fd_sc_hd__clkbuf_8
* cell instance $298 r0 *1 53.36,24.48
X$298 6 58 29 59 83 11 11 6 sky130_fd_sc_hd__mux2_1
* cell instance $300 r0 *1 59.34,24.48
X$300 6 15 51 14 69 11 11 6 sky130_fd_sc_hd__dfrtp_1
* cell instance $306 m0 *1 3.22,29.92
X$306 6 15 63 9 75 11 11 6 sky130_fd_sc_hd__dfrtp_1
* cell instance $307 m0 *1 12.42,29.92
X$307 6 15 81 9 80 11 11 6 sky130_fd_sc_hd__dfrtp_1
* cell instance $313 m0 *1 30.82,29.92
X$313 11 43 73 86 74 11 72 6 6 sky130_fd_sc_hd__nand4b_1
* cell instance $314 m0 *1 34.04,29.92
X$314 6 73 54 67 70 11 11 6 sky130_fd_sc_hd__ha_1
* cell instance $316 m0 *1 39.1,29.92
X$316 6 74 214 67 77 11 11 6 sky130_fd_sc_hd__ha_1
* cell instance $317 m0 *1 43.7,29.92
X$317 11 82 76 65 72 84 11 6 6 sky130_fd_sc_hd__or4_1
* cell instance $319 m0 *1 48.3,29.92
X$319 11 14 6 11 6 sky130_fd_sc_hd__clkinv_4
* cell instance $330 r0 *1 5.06,29.92
X$330 11 79 78 6 11 6 sky130_fd_sc_hd__clkbuf_1
* cell instance $333 r0 *1 9.2,29.92
X$333 6 89 79 81 10 11 11 6 sky130_fd_sc_hd__mux2_1
* cell instance $339 r0 *1 17.02,29.92
X$339 6 80 29 81 92 11 11 6 sky130_fd_sc_hd__mux2_1
* cell instance $345 r0 *1 33.58,29.92
X$345 6 43 94 61 93 11 11 6 sky130_fd_sc_hd__ha_1
* cell instance $346 r0 *1 38.18,29.92
X$346 6 218 76 88 77 11 11 6 sky130_fd_sc_hd__ha_1
* cell instance $349 r0 *1 43.24,29.92
X$349 11 82 76 85 6 11 6 sky130_fd_sc_hd__nor2_1
* cell instance $351 r0 *1 46.46,29.92
X$351 11 84 64 66 90 6 83 11 6 sky130_fd_sc_hd__nor4_1
* cell instance $362 m0 *1 8.74,35.36
X$362 6 15 79 97 89 11 11 6 sky130_fd_sc_hd__dfrtp_1
* cell instance $368 m0 *1 27.14,35.36
X$368 11 86 6 42 11 6 sky130_fd_sc_hd__buf_2
* cell instance $370 m0 *1 29.44,35.36
X$370 6 215 105 86 87 11 11 6 sky130_fd_sc_hd__ha_1
* cell instance $372 m0 *1 34.96,35.36
X$372 11 87 11 6 93 6 sky130_fd_sc_hd__inv_1
* cell instance $373 m0 *1 36.34,35.36
X$373 11 99 42 87 70 11 6 6 sky130_fd_sc_hd__nand3_1
* cell instance $374 m0 *1 38.18,35.36
X$374 11 66 99 67 94 6 95 11 6 sky130_fd_sc_hd__nor4b_1
* cell instance $375 m0 *1 41.4,35.36
X$375 11 88 11 6 67 6 sky130_fd_sc_hd__inv_1
* cell instance $378 m0 *1 42.78,35.36
X$378 6 216 82 88 91 11 11 6 sky130_fd_sc_hd__ha_1
* cell instance $399 r0 *1 19.78,35.36
X$399 6 15 86 97 104 11 11 6 sky130_fd_sc_hd__dfrtp_1
* cell instance $402 r0 *1 31.74,35.36
X$402 6 123 55 11 11 6 sky130_fd_sc_hd__clkbuf_8
* cell instance $403 r0 *1 36.8,35.36
X$403 6 217 103 67 77 11 11 6 sky130_fd_sc_hd__ha_1
* cell instance $404 r0 *1 41.4,35.36
X$404 11 91 11 6 77 6 sky130_fd_sc_hd__inv_1
* cell instance $409 r0 *1 48.76,35.36
X$409 11 64 95 98 6 11 6 sky130_fd_sc_hd__nor2b_1
* cell instance $410 r0 *1 51.06,35.36
X$410 6 15 96 101 98 11 11 6 sky130_fd_sc_hd__dfrtp_1
* cell instance $411 r0 *1 60.26,35.36
X$411 6 96 100 11 11 6 sky130_fd_sc_hd__buf_6
* cell instance $418 m0 *1 6.9,40.8
X$418 6 119 121 110 109 11 11 6 sky130_fd_sc_hd__mux2_1
* cell instance $430 m0 *1 29.9,40.8
X$430 11 105 113 64 122 6 11 6 sky130_fd_sc_hd__nor3_1
* cell instance $431 m0 *1 31.74,40.8
X$431 11 99 105 106 6 11 102 6 sky130_fd_sc_hd__a21oi_1
* cell instance $432 m0 *1 33.58,40.8
X$432 11 105 99 11 65 6 6 sky130_fd_sc_hd__xor2_1
* cell instance $433 m0 *1 36.8,40.8
X$433 11 103 66 113 11 6 6 sky130_fd_sc_hd__nand2_1
* cell instance $434 m0 *1 38.18,40.8
X$434 11 105 99 88 91 6 11 6 sky130_fd_sc_hd__and3b_1
* cell instance $435 m0 *1 41.4,40.8
X$435 6 112 103 66 107 91 11 11 6 sky130_fd_sc_hd__o211ai_2
* cell instance $438 m0 *1 46,40.8
X$438 11 117 107 95 6 11 108 6 sky130_fd_sc_hd__a21oi_1
* cell instance $441 m0 *1 50.6,40.8
X$441 11 111 11 6 118 6 sky130_fd_sc_hd__inv_1
* cell instance $445 m0 *1 57.04,40.8
X$445 6 15 120 101 108 11 11 6 sky130_fd_sc_hd__dfrtp_1
* cell instance $452 r0 *1 3.22,40.8
X$452 11 128 124 6 11 6 sky130_fd_sc_hd__clkbuf_1
* cell instance $454 r0 *1 5.52,40.8
X$454 6 15 110 97 119 11 11 6 sky130_fd_sc_hd__dfrtp_1
* cell instance $459 r0 *1 19.32,40.8
X$459 6 15 99 97 125 11 11 6 sky130_fd_sc_hd__dfrtp_1
* cell instance $461 r0 *1 29.44,40.8
X$461 11 147 122 126 6 11 6 sky130_fd_sc_hd__nor2_1
* cell instance $462 r0 *1 30.82,40.8
X$462 11 126 129 99 102 6 11 125 6 sky130_fd_sc_hd__a31oi_1
* cell instance $463 r0 *1 33.12,40.8
X$463 11 114 134 87 112 148 11 6 6 sky130_fd_sc_hd__o211ai_1
* cell instance $464 r0 *1 35.88,40.8
X$464 11 142 115 135 11 104 6 6 sky130_fd_sc_hd__o21ai_0
* cell instance $465 r0 *1 37.72,40.8
X$465 11 113 64 106 6 11 6 sky130_fd_sc_hd__nor2_1
* cell instance $466 r0 *1 39.1,40.8
X$466 6 115 116 42 141 11 11 6 sky130_fd_sc_hd__mux2i_1
* cell instance $469 r0 *1 43.24,40.8
X$469 11 100 42 116 6 11 6 sky130_fd_sc_hd__nor2_1
* cell instance $471 r0 *1 45.54,40.8
X$471 6 142 10 100 11 11 6 sky130_fd_sc_hd__nand2_4
* cell instance $472 r0 *1 49.68,40.8
X$472 11 42 117 135 11 6 6 sky130_fd_sc_hd__nand2_1
* cell instance $474 r0 *1 51.98,40.8
X$474 6 114 100 111 64 127 11 11 6 sky130_fd_sc_hd__nand4bb_4
* cell instance $476 r0 *1 62.56,40.8
X$476 11 120 6 114 11 6 sky130_fd_sc_hd__clkbuf_4
* cell instance $486 m0 *1 1.38,46.24
X$486 11 143 139 6 11 6 sky130_fd_sc_hd__clkbuf_1
* cell instance $487 m0 *1 2.76,46.24
X$487 6 15 128 97 145 11 11 6 sky130_fd_sc_hd__dfrtp_1
* cell instance $488 m0 *1 11.96,46.24
X$488 11 130 146 6 11 6 sky130_fd_sc_hd__clkbuf_1
* cell instance $489 m0 *1 13.34,46.24
X$489 6 152 110 146 131 11 11 6 sky130_fd_sc_hd__mux2_1
* cell instance $492 m0 *1 19.78,46.24
X$492 6 15 87 97 140 11 11 6 sky130_fd_sc_hd__dfrtp_1
* cell instance $495 m0 *1 30.36,46.24
X$495 6 140 100 48 112 148 132 11 11 6 sky130_fd_sc_hd__o311ai_1
* cell instance $496 m0 *1 33.58,46.24
X$496 11 112 133 129 11 6 6 sky130_fd_sc_hd__nand2_1
* cell instance $498 m0 *1 35.42,46.24
X$498 6 109 100 136 133 11 11 6 sky130_fd_sc_hd__a21oi_4
* cell instance $499 m0 *1 41.4,46.24
X$499 11 103 66 107 136 11 6 6 sky130_fd_sc_hd__nand3_1
* cell instance $501 m0 *1 44.16,46.24
X$501 11 118 127 66 91 103 11 141 6 6 sky130_fd_sc_hd__o2111ai_1
* cell instance $502 m0 *1 47.38,46.24
X$502 6 15 111 101 137 11 11 6 sky130_fd_sc_hd__dfrtp_1
* cell instance $504 m0 *1 57.04,46.24
X$504 11 101 11 6 6 sky130_fd_sc_hd__clkinvlp_4
* cell instance $505 m0 *1 59.8,46.24
X$505 11 147 114 144 6 11 138 6 sky130_fd_sc_hd__a21oi_1
* cell instance $506 m0 *1 61.64,46.24
X$506 11 118 138 137 6 11 6 sky130_fd_sc_hd__nor2_1
* cell instance $507 m0 *1 63.02,46.24
X$507 11 127 11 6 144 6 sky130_fd_sc_hd__inv_1
* cell instance $514 r0 *1 4.6,46.24
X$514 6 145 152 128 109 11 11 6 sky130_fd_sc_hd__mux2_1
* cell instance $515 r0 *1 8.74,46.24
X$515 6 121 149 139 131 11 11 6 sky130_fd_sc_hd__mux2_1
* cell instance $521 r0 *1 16.1,46.24
X$521 6 55 97 11 11 6 sky130_fd_sc_hd__clkbuf_8
* cell instance $526 r0 *1 28.06,46.24
X$526 11 147 87 132 11 6 6 sky130_fd_sc_hd__nand2_1
* cell instance $527 r0 *1 29.44,46.24
X$527 6 142 131 100 11 11 6 sky130_fd_sc_hd__nor2_4
* cell instance $528 r0 *1 33.58,46.24
X$528 11 73 131 156 11 6 6 sky130_fd_sc_hd__nand2_1
* cell instance $529 r0 *1 34.96,46.24
X$529 11 112 156 150 157 155 11 6 6 sky130_fd_sc_hd__o211ai_1
* cell instance $530 r0 *1 37.72,46.24
X$530 11 114 134 112 88 150 11 6 6 sky130_fd_sc_hd__o211ai_1
* cell instance $531 r0 *1 40.48,46.24
X$531 11 147 88 157 11 6 6 sky130_fd_sc_hd__nand2_1
* cell instance $535 r0 *1 43.24,46.24
X$535 11 100 114 158 11 6 117 6 sky130_fd_sc_hd__o21bai_1
* cell instance $538 r0 *1 48.76,46.24
X$538 6 55 101 11 11 6 sky130_fd_sc_hd__clkbuf_8
* cell instance $541 r0 *1 55.2,46.24
X$541 6 154 127 153 151 11 11 6 sky130_fd_sc_hd__ha_2
* cell instance $542 r0 *1 60.72,46.24
X$542 11 100 6 147 11 6 sky130_fd_sc_hd__buf_2
* cell instance $557 m0 *1 9.66,51.68
X$557 6 15 149 97 163 11 11 6 sky130_fd_sc_hd__dfrtp_1
* cell instance $564 m0 *1 29.9,51.68
X$564 6 15 88 97 155 11 11 6 sky130_fd_sc_hd__dfrtp_1
* cell instance $565 m0 *1 39.1,51.68
X$565 11 142 158 133 11 6 6 sky130_fd_sc_hd__nand2_1
* cell instance $567 m0 *1 44.16,51.68
X$567 11 114 6 11 142 6 sky130_fd_sc_hd__inv_2
* cell instance $570 m0 *1 49.68,51.68
X$570 11 114 127 111 107 6 11 6 sky130_fd_sc_hd__and3b_1
* cell instance $571 m0 *1 52.9,51.68
X$571 11 127 111 162 6 11 6 sky130_fd_sc_hd__nand2b_1
* cell instance $572 m0 *1 55.2,51.68
X$572 11 100 162 159 6 11 6 sky130_fd_sc_hd__nor2_1
* cell instance $574 m0 *1 57.04,51.68
X$574 6 15 153 101 164 11 11 6 sky130_fd_sc_hd__dfrtp_1
* cell instance $580 r0 *1 5.52,51.68
X$580 11 165 160 6 11 6 sky130_fd_sc_hd__clkbuf_1
* cell instance $581 r0 *1 6.9,51.68
X$581 6 166 170 160 131 11 11 6 sky130_fd_sc_hd__mux2_1
* cell instance $582 r0 *1 11.04,51.68
X$582 6 163 166 149 109 11 11 6 sky130_fd_sc_hd__mux2_1
* cell instance $596 r0 *1 43.24,51.68
X$596 11 147 114 174 6 11 6 sky130_fd_sc_hd__nor2_1
* cell instance $600 r0 *1 47.84,51.68
X$600 11 159 66 175 11 6 6 sky130_fd_sc_hd__xnor2_1
* cell instance $602 r0 *1 54.74,51.68
X$602 11 114 154 162 161 11 6 6 sky130_fd_sc_hd__nand3_1
* cell instance $603 r0 *1 56.58,51.68
X$603 11 147 161 172 11 164 6 6 sky130_fd_sc_hd__o21ai_0
* cell instance $604 r0 *1 58.42,51.68
X$604 11 114 162 171 169 11 6 6 sky130_fd_sc_hd__nand3_1
* cell instance $605 r0 *1 60.26,51.68
X$605 6 15 151 101 168 11 11 6 sky130_fd_sc_hd__dfrtp_1
* cell instance $615 m0 *1 2.76,57.12
X$615 6 15 170 97 186 11 11 6 sky130_fd_sc_hd__dfrtp_1
* cell instance $626 m0 *1 38.64,57.12
X$626 11 158 11 6 134 6 sky130_fd_sc_hd__inv_1
* cell instance $627 m0 *1 40.02,57.12
X$627 11 142 175 173 6 11 6 sky130_fd_sc_hd__nor2_1
* cell instance $628 m0 *1 41.4,57.12
X$628 6 15 177 101 173 11 11 6 sky130_fd_sc_hd__dfrtp_1
* cell instance $629 m0 *1 50.6,57.12
X$629 11 177 6 66 11 6 sky130_fd_sc_hd__buf_2
* cell instance $633 m0 *1 57.04,57.12
X$633 11 147 153 172 11 6 6 sky130_fd_sc_hd__nand2_1
* cell instance $634 m0 *1 58.42,57.12
X$634 11 147 151 167 11 6 6 sky130_fd_sc_hd__nand2_1
* cell instance $635 m0 *1 59.8,57.12
X$635 11 169 167 168 11 6 6 sky130_fd_sc_hd__nand2_1
* cell instance $636 m0 *1 61.18,57.12
X$636 11 147 151 171 6 11 6 sky130_fd_sc_hd__nor2_1
* cell instance $643 r0 *1 5.98,57.12
X$643 6 15 183 97 181 11 11 6 sky130_fd_sc_hd__dfrtp_1
* cell instance $650 r0 *1 18.4,57.12
X$650 6 188 196 184 109 11 11 6 sky130_fd_sc_hd__mux2_1
* cell instance $652 r0 *1 24.38,57.12
X$652 6 189 178 192 109 11 11 6 sky130_fd_sc_hd__mux2_1
* cell instance $654 r0 *1 28.98,57.12
X$654 6 178 179 202 131 11 11 6 sky130_fd_sc_hd__mux2_1
* cell instance $655 r0 *1 33.12,57.12
X$655 6 109 191 176 198 134 147 11 11 6 sky130_fd_sc_hd__o32ai_1
* cell instance $656 r0 *1 36.34,57.12
X$656 11 179 11 6 176 6 sky130_fd_sc_hd__inv_1
* cell instance $660 r0 *1 40.94,57.12
X$660 11 190 158 174 6 11 180 6 sky130_fd_sc_hd__a21oi_1
* cell instance $665 r0 *1 43.24,57.12
X$665 6 193 182 101 180 11 11 6 sky130_fd_sc_hd__dfstp_1
* cell instance $675 m0 *1 2.3,62.56
X$675 6 186 194 170 109 11 11 6 sky130_fd_sc_hd__mux2_1
* cell instance $676 m0 *1 6.44,62.56
X$676 6 181 185 183 109 11 11 6 sky130_fd_sc_hd__mux2_1
* cell instance $677 m0 *1 10.58,62.56
X$677 6 15 184 97 188 11 11 6 sky130_fd_sc_hd__dfrtp_1
* cell instance $678 m0 *1 19.78,62.56
X$678 6 15 192 97 189 11 11 6 sky130_fd_sc_hd__dfrtp_1
* cell instance $680 m0 *1 29.44,62.56
X$680 6 15 179 97 191 11 11 6 sky130_fd_sc_hd__dfrtp_1
* cell instance $683 m0 *1 40.02,62.56
X$683 11 182 174 190 6 11 6 sky130_fd_sc_hd__nor2_1
* cell instance $684 m0 *1 41.4,62.56
X$684 6 193 187 101 197 11 11 6 sky130_fd_sc_hd__dfstp_1
* cell instance $695 r0 *1 6.9,62.56
X$695 6 194 183 200 131 11 11 6 sky130_fd_sc_hd__mux2_1
* cell instance $701 r0 *1 17.48,62.56
X$701 6 185 184 195 131 11 11 6 sky130_fd_sc_hd__mux2_1
* cell instance $704 r0 *1 23.92,62.56
X$704 6 196 192 201 131 11 11 6 sky130_fd_sc_hd__mux2_1
* cell instance $707 r0 *1 33.58,62.56
X$707 11 142 203 198 11 6 6 sky130_fd_sc_hd__nand2_1
* cell instance $713 r0 *1 43.24,62.56
X$713 6 197 158 142 187 174 11 11 6 sky130_fd_sc_hd__a2bb2oi_1
* cell instance $716 r0 *1 47.84,62.56
X$716 11 187 210 6 11 6 sky130_fd_sc_hd__clkbuf_1
* cell instance $718 r0 *1 49.68,62.56
X$718 11 177 212 6 11 6 sky130_fd_sc_hd__clkbuf_1
* cell instance $720 r0 *1 51.98,62.56
X$720 6 193 15 11 11 6 sky130_fd_sc_hd__buf_12
* cell instance $735 m0 *1 9.2,68
X$735 11 204 200 6 11 6 sky130_fd_sc_hd__clkbuf_1
* cell instance $741 m0 *1 20.24,68
X$741 11 205 195 6 11 6 sky130_fd_sc_hd__clkbuf_1
* cell instance $745 m0 *1 26.68,68
X$745 11 206 201 6 11 6 sky130_fd_sc_hd__clkbuf_1
* cell instance $750 m0 *1 30.82,68
X$750 11 207 202 6 11 6 sky130_fd_sc_hd__clkbuf_1
* cell instance $752 m0 *1 33.12,68
X$752 11 208 203 6 11 6 sky130_fd_sc_hd__clkbuf_1
* cell instance $758 m0 *1 43.7,68
X$758 6 158 209 11 11 6 sky130_fd_sc_hd__dlymetal6s2s_1
* cell instance $759 m0 *1 48.3,68
X$759 11 182 211 6 11 6 sky130_fd_sc_hd__clkbuf_1
* cell instance $760 m0 *1 49.68,68
X$760 6 193 213 11 11 6 sky130_fd_sc_hd__dlymetal6s2s_1
* cell instance $764 m0 *1 57.04,68
X$764 11 199 11 213 6 6 sky130_fd_sc_hd__dlygate4sd3_1
.ENDS parameterized_spi_master

* cell sky130_fd_sc_hd__nor4bb_1
* pin VPB
* pin C_N
* pin D_N
* pin B
* pin A
* pin Y
* pin VGND
* pin VPWR
* pin 
.SUBCKT sky130_fd_sc_hd__nor4bb_1 1 2 3 5 6 8 9 10 11
* net 1 VPB
* net 2 C_N
* net 3 D_N
* net 5 B
* net 6 A
* net 8 Y
* net 9 VGND
* net 10 VPWR
* device instance $1 r0 *1 1.89,1.985 pfet_01v8_hvt
M$1 14 7 8 1 pfet_01v8_hvt L=150000U W=1000000U AS=255900000000P
+ AD=135000000000P PS=2520000U PD=1270000U
* device instance $2 r0 *1 2.31,1.985 pfet_01v8_hvt
M$2 13 4 14 1 pfet_01v8_hvt L=150000U W=1000000U AS=135000000000P
+ AD=165000000000P PS=1270000U PD=1330000U
* device instance $3 r0 *1 2.79,1.985 pfet_01v8_hvt
M$3 12 5 13 1 pfet_01v8_hvt L=150000U W=1000000U AS=165000000000P
+ AD=135000000000P PS=1330000U PD=1270000U
* device instance $4 r0 *1 3.21,1.985 pfet_01v8_hvt
M$4 10 6 12 1 pfet_01v8_hvt L=150000U W=1000000U AS=135000000000P
+ AD=260000000000P PS=1270000U PD=2520000U
* device instance $5 r0 *1 0.955,1.695 pfet_01v8_hvt
M$5 7 3 10 1 pfet_01v8_hvt L=150000U W=420000U AS=122612500000P
+ AD=108500000000P PS=1320000U PD=1360000U
* device instance $6 r0 *1 0.47,2.26 pfet_01v8_hvt
M$6 4 2 10 1 pfet_01v8_hvt L=150000U W=420000U AS=122612500000P
+ AD=109200000000P PS=1320000U PD=1360000U
* device instance $7 r0 *1 1.89,0.56 nfet_01v8
M$7 8 7 9 11 nfet_01v8 L=150000U W=650000U AS=169000000000P AD=87750000000P
+ PS=1820000U PD=920000U
* device instance $8 r0 *1 2.31,0.56 nfet_01v8
M$8 9 4 8 11 nfet_01v8 L=150000U W=650000U AS=87750000000P AD=107250000000P
+ PS=920000U PD=980000U
* device instance $9 r0 *1 2.79,0.56 nfet_01v8
M$9 8 5 9 11 nfet_01v8 L=150000U W=650000U AS=107250000000P AD=87750000000P
+ PS=980000U PD=920000U
* device instance $10 r0 *1 3.21,0.56 nfet_01v8
M$10 9 6 8 11 nfet_01v8 L=150000U W=650000U AS=87750000000P AD=169000000000P
+ PS=920000U PD=1820000U
* device instance $11 r0 *1 0.51,0.675 nfet_01v8
M$11 9 2 4 11 nfet_01v8 L=150000U W=420000U AS=109200000000P AD=60900000000P
+ PS=1360000U PD=710000U
* device instance $12 r0 *1 0.95,0.675 nfet_01v8
M$12 7 3 9 11 nfet_01v8 L=150000U W=420000U AS=60900000000P AD=109200000000P
+ PS=710000U PD=1360000U
.ENDS sky130_fd_sc_hd__nor4bb_1

* cell sky130_fd_sc_hd__clkinv_4
* pin VPB
* pin A
* pin VGND
* pin VPWR
* pin 
.SUBCKT sky130_fd_sc_hd__clkinv_4 1 2 3 5 6
* net 1 VPB
* net 2 A
* net 3 VGND
* net 4 Y
* net 5 VPWR
* device instance $1 r0 *1 0.515,1.985 pfet_01v8_hvt
M$1 4 2 5 1 pfet_01v8_hvt L=150000U W=6000000U AS=1.005e+12P AD=1.045e+12P
+ PS=9010000U PD=9090000U
* device instance $7 r0 *1 0.945,0.445 nfet_01v8
M$7 4 2 3 6 nfet_01v8 L=150000U W=1680000U AS=315000000000P AD=342300000000P
+ PS=3600000U PD=3730000U
.ENDS sky130_fd_sc_hd__clkinv_4

* cell sky130_fd_sc_hd__nand2_2
* pin VGND
* pin 
* pin B
* pin Y
* pin A
* pin VPB
* pin VPWR
.SUBCKT sky130_fd_sc_hd__nand2_2 1 2 4 5 6 7 8
* net 1 VGND
* net 4 B
* net 5 Y
* net 6 A
* net 7 VPB
* net 8 VPWR
* device instance $1 r0 *1 0.47,1.985 pfet_01v8_hvt
M$1 5 4 8 7 pfet_01v8_hvt L=150000U W=2000000U AS=395000000000P
+ AD=270000000000P PS=3790000U PD=2540000U
* device instance $3 r0 *1 1.31,1.985 pfet_01v8_hvt
M$3 5 6 8 7 pfet_01v8_hvt L=150000U W=2000000U AS=270000000000P
+ AD=395000000000P PS=2540000U PD=3790000U
* device instance $5 r0 *1 0.47,0.56 nfet_01v8
M$5 1 4 3 2 nfet_01v8 L=150000U W=1300000U AS=256750000000P AD=175500000000P
+ PS=2740000U PD=1840000U
* device instance $7 r0 *1 1.31,0.56 nfet_01v8
M$7 5 6 3 2 nfet_01v8 L=150000U W=1300000U AS=175500000000P AD=256750000000P
+ PS=1840000U PD=2740000U
.ENDS sky130_fd_sc_hd__nand2_2

* cell sky130_fd_sc_hd__clkbuf_2
* pin VPB
* pin A
* pin VPWR
* pin VGND
* pin X
* pin 
.SUBCKT sky130_fd_sc_hd__clkbuf_2 1 2 3 4 6 7
* net 1 VPB
* net 2 A
* net 3 VPWR
* net 4 VGND
* net 6 X
* device instance $1 r0 *1 0.475,1.985 pfet_01v8_hvt
M$1 3 2 5 1 pfet_01v8_hvt L=150000U W=1000000U AS=265000000000P
+ AD=162500000000P PS=2530000U PD=1325000U
* device instance $2 r0 *1 0.95,1.985 pfet_01v8_hvt
M$2 6 5 3 1 pfet_01v8_hvt L=150000U W=2000000U AS=297500000000P
+ AD=395000000000P PS=2595000U PD=3790000U
* device instance $4 r0 *1 0.475,0.445 nfet_01v8
M$4 4 2 5 7 nfet_01v8 L=150000U W=420000U AS=111300000000P AD=68250000000P
+ PS=1370000U PD=745000U
* device instance $5 r0 *1 0.95,0.445 nfet_01v8
M$5 6 5 4 7 nfet_01v8 L=150000U W=840000U AS=124950000000P AD=165900000000P
+ PS=1435000U PD=2050000U
.ENDS sky130_fd_sc_hd__clkbuf_2

* cell sky130_fd_sc_hd__or4_1
* pin VPB
* pin A
* pin B
* pin C
* pin D
* pin X
* pin VPWR
* pin VGND
* pin 
.SUBCKT sky130_fd_sc_hd__or4_1 1 2 3 4 5 7 8 9 10
* net 1 VPB
* net 2 A
* net 3 B
* net 4 C
* net 5 D
* net 7 X
* net 8 VPWR
* net 9 VGND
* device instance $1 r0 *1 0.47,1.695 pfet_01v8_hvt
M$1 13 5 6 1 pfet_01v8_hvt L=150000U W=420000U AS=109200000000P AD=69300000000P
+ PS=1360000U PD=750000U
* device instance $2 r0 *1 0.95,1.695 pfet_01v8_hvt
M$2 12 4 13 1 pfet_01v8_hvt L=150000U W=420000U AS=69300000000P AD=44100000000P
+ PS=750000U PD=630000U
* device instance $3 r0 *1 1.31,1.695 pfet_01v8_hvt
M$3 11 3 12 1 pfet_01v8_hvt L=150000U W=420000U AS=44100000000P AD=69300000000P
+ PS=630000U PD=750000U
* device instance $4 r0 *1 1.79,1.695 pfet_01v8_hvt
M$4 8 2 11 1 pfet_01v8_hvt L=150000U W=420000U AS=69300000000P AD=148250000000P
+ PS=750000U PD=1340000U
* device instance $5 r0 *1 2.28,1.985 pfet_01v8_hvt
M$5 7 6 8 1 pfet_01v8_hvt L=150000U W=1000000U AS=148250000000P
+ AD=270000000000P PS=1340000U PD=2540000U
* device instance $6 r0 *1 0.47,0.475 nfet_01v8
M$6 6 5 9 10 nfet_01v8 L=150000U W=420000U AS=109200000000P AD=69300000000P
+ PS=1360000U PD=750000U
* device instance $7 r0 *1 0.95,0.475 nfet_01v8
M$7 9 4 6 10 nfet_01v8 L=150000U W=420000U AS=69300000000P AD=56700000000P
+ PS=750000U PD=690000U
* device instance $8 r0 *1 1.37,0.475 nfet_01v8
M$8 6 3 9 10 nfet_01v8 L=150000U W=420000U AS=56700000000P AD=56700000000P
+ PS=690000U PD=690000U
* device instance $9 r0 *1 1.79,0.475 nfet_01v8
M$9 6 2 9 10 nfet_01v8 L=150000U W=420000U AS=101875000000P AD=56700000000P
+ PS=990000U PD=690000U
* device instance $10 r0 *1 2.28,0.56 nfet_01v8
M$10 7 6 9 10 nfet_01v8 L=150000U W=650000U AS=101875000000P AD=175500000000P
+ PS=990000U PD=1840000U
.ENDS sky130_fd_sc_hd__or4_1

* cell sky130_fd_sc_hd__nand4b_1
* pin VPB
* pin A_N
* pin B
* pin C
* pin D
* pin VPWR
* pin Y
* pin VGND
* pin 
.SUBCKT sky130_fd_sc_hd__nand4b_1 1 2 3 4 6 7 8 9 10
* net 1 VPB
* net 2 A_N
* net 3 B
* net 4 C
* net 6 D
* net 7 VPWR
* net 8 Y
* net 9 VGND
* device instance $1 r0 *1 0.6,1.695 pfet_01v8_hvt
M$1 7 2 5 1 pfet_01v8_hvt L=150000U W=420000U AS=109200000000P AD=145750000000P
+ PS=1360000U PD=1335000U
* device instance $2 r0 *1 1.085,1.985 pfet_01v8_hvt
M$2 8 6 7 1 pfet_01v8_hvt L=150000U W=1000000U AS=145750000000P
+ AD=135000000000P PS=1335000U PD=1270000U
* device instance $3 r0 *1 1.505,1.985 pfet_01v8_hvt
M$3 7 4 8 1 pfet_01v8_hvt L=150000U W=1000000U AS=135000000000P
+ AD=192500000000P PS=1270000U PD=1385000U
* device instance $4 r0 *1 2.04,1.985 pfet_01v8_hvt
M$4 8 3 7 1 pfet_01v8_hvt L=150000U W=1000000U AS=192500000000P
+ AD=195000000000P PS=1385000U PD=1390000U
* device instance $5 r0 *1 2.58,1.985 pfet_01v8_hvt
M$5 7 5 8 1 pfet_01v8_hvt L=150000U W=1000000U AS=195000000000P
+ AD=280000000000P PS=1390000U PD=2560000U
* device instance $6 r0 *1 0.545,0.675 nfet_01v8
M$6 5 2 9 10 nfet_01v8 L=150000U W=420000U AS=118125000000P AD=111300000000P
+ PS=1040000U PD=1370000U
* device instance $7 r0 *1 1.085,0.56 nfet_01v8
M$7 11 6 9 10 nfet_01v8 L=150000U W=650000U AS=118125000000P AD=87750000000P
+ PS=1040000U PD=920000U
* device instance $8 r0 *1 1.505,0.56 nfet_01v8
M$8 13 4 11 10 nfet_01v8 L=150000U W=650000U AS=87750000000P AD=125125000000P
+ PS=920000U PD=1035000U
* device instance $9 r0 *1 2.04,0.56 nfet_01v8
M$9 12 3 13 10 nfet_01v8 L=150000U W=650000U AS=125125000000P AD=126750000000P
+ PS=1035000U PD=1040000U
* device instance $10 r0 *1 2.58,0.56 nfet_01v8
M$10 8 5 12 10 nfet_01v8 L=150000U W=650000U AS=126750000000P AD=227500000000P
+ PS=1040000U PD=2000000U
.ENDS sky130_fd_sc_hd__nand4b_1

* cell sky130_fd_sc_hd__bufinv_16
* pin VGND
* pin A
* pin VPWR
* pin VPB
* pin 
.SUBCKT sky130_fd_sc_hd__bufinv_16 1 5 6 7 8
* net 1 VGND
* net 4 Y
* net 5 A
* net 6 VPWR
* net 7 VPB
* device instance $1 r0 *1 0.47,1.985 pfet_01v8_hvt
M$1 6 5 2 7 pfet_01v8_hvt L=150000U W=3000000U AS=530000000000P
+ AD=405000000000P PS=5060000U PD=3810000U
* device instance $4 r0 *1 1.73,1.985 pfet_01v8_hvt
M$4 3 2 6 7 pfet_01v8_hvt L=150000U W=6000000U AS=810000000000P
+ AD=810000000000P PS=7620000U PD=7620000U
* device instance $10 r0 *1 4.25,1.985 pfet_01v8_hvt
M$10 4 3 6 7 pfet_01v8_hvt L=150000U W=16000000U AS=2.16e+12P AD=2.285e+12P
+ PS=20320000U PD=21570000U
* device instance $26 r0 *1 0.47,0.56 nfet_01v8
M$26 1 5 2 8 nfet_01v8 L=150000U W=1950000U AS=344500000000P AD=263250000000P
+ PS=3660000U PD=2760000U
* device instance $29 r0 *1 1.73,0.56 nfet_01v8
M$29 3 2 1 8 nfet_01v8 L=150000U W=3900000U AS=526500000000P AD=526500000000P
+ PS=5520000U PD=5520000U
* device instance $35 r0 *1 4.25,0.56 nfet_01v8
M$35 4 3 1 8 nfet_01v8 L=150000U W=10400000U AS=1.404e+12P AD=1.48525e+12P
+ PS=14720000U PD=15620000U
.ENDS sky130_fd_sc_hd__bufinv_16

* cell sky130_fd_sc_hd__o311ai_1
* pin VGND
* pin Y
* pin A1
* pin A2
* pin A3
* pin B1
* pin C1
* pin VPWR
* pin VPB
* pin 
.SUBCKT sky130_fd_sc_hd__o311ai_1 1 3 4 5 6 7 8 10 11 14
* net 1 VGND
* net 3 Y
* net 4 A1
* net 5 A2
* net 6 A3
* net 7 B1
* net 8 C1
* net 10 VPWR
* net 11 VPB
* device instance $1 r0 *1 0.615,1.985 pfet_01v8_hvt
M$1 12 4 10 11 pfet_01v8_hvt L=150000U W=1000000U AS=280000000000P
+ AD=135000000000P PS=2560000U PD=1270000U
* device instance $2 r0 *1 1.035,1.985 pfet_01v8_hvt
M$2 13 5 12 11 pfet_01v8_hvt L=150000U W=1000000U AS=135000000000P
+ AD=135000000000P PS=1270000U PD=1270000U
* device instance $3 r0 *1 1.455,1.985 pfet_01v8_hvt
M$3 3 6 13 11 pfet_01v8_hvt L=150000U W=1000000U AS=135000000000P
+ AD=225000000000P PS=1270000U PD=1450000U
* device instance $4 r0 *1 2.055,1.985 pfet_01v8_hvt
M$4 10 7 3 11 pfet_01v8_hvt L=150000U W=1000000U AS=225000000000P
+ AD=185000000000P PS=1450000U PD=1370000U
* device instance $5 r0 *1 2.575,1.985 pfet_01v8_hvt
M$5 3 8 10 11 pfet_01v8_hvt L=150000U W=1000000U AS=185000000000P
+ AD=310000000000P PS=1370000U PD=2620000U
* device instance $6 r0 *1 0.615,0.56 nfet_01v8
M$6 2 4 1 14 nfet_01v8 L=150000U W=650000U AS=182000000000P AD=87750000000P
+ PS=1860000U PD=920000U
* device instance $7 r0 *1 1.035,0.56 nfet_01v8
M$7 1 5 2 14 nfet_01v8 L=150000U W=650000U AS=87750000000P AD=87750000000P
+ PS=920000U PD=920000U
* device instance $8 r0 *1 1.455,0.56 nfet_01v8
M$8 2 6 1 14 nfet_01v8 L=150000U W=650000U AS=87750000000P AD=198250000000P
+ PS=920000U PD=1260000U
* device instance $9 r0 *1 2.215,0.56 nfet_01v8
M$9 9 7 2 14 nfet_01v8 L=150000U W=650000U AS=198250000000P AD=68250000000P
+ PS=1260000U PD=860000U
* device instance $10 r0 *1 2.575,0.56 nfet_01v8