
* cell leading_zero_counter
* pin data_in[20]
* pin data_in[22]
* pin data_in[23]
* pin data_in[21]
* pin data_in[24]
* pin data_in[25]
* pin data_in[27]
* pin data_in[26]
* pin data_in[31]
* pin data_in[30]
* pin data_in[29]
* pin data_in[28]
* pin data_in[19]
* pin zero_count[5]
* pin data_in[17]
* pin data_in[16]
* pin zero_count[4]
* pin valid_input
* pin data_in[18]
* pin data_in[15]
* pin zero_count[0]
* pin data_in[14]
* pin zero_count[3]
* pin data_in[13]
* pin data_in[11]
* pin data_in[12]
* pin data_in[10]
* pin data_in[9]
* pin data_in[0]
* pin data_in[6]
* pin zero_count[2]
* pin data_in[4]
* pin data_in[7]
* pin data_in[8]
* pin data_in[5]
* pin zero_count[1]
* pin data_in[1]
* pin data_in[3]
* pin data_in[2]
* pin NWELL
* pin PWELL,gf180mcu_gnd
.SUBCKT leading_zero_counter 1 2 3 4 5 6 7 8 9 10 11 12 42 47 48 49 52 53 55 61
+ 75 76 80 83 84 85 88 96 122 128 131 132 133 134 135 136 137 138 139 140 141
* net 1 data_in[20]
* net 2 data_in[22]
* net 3 data_in[23]
* net 4 data_in[21]
* net 5 data_in[24]
* net 6 data_in[25]
* net 7 data_in[27]
* net 8 data_in[26]
* net 9 data_in[31]
* net 10 data_in[30]
* net 11 data_in[29]
* net 12 data_in[28]
* net 42 data_in[19]
* net 47 zero_count[5]
* net 48 data_in[17]
* net 49 data_in[16]
* net 52 zero_count[4]
* net 53 valid_input
* net 55 data_in[18]
* net 61 data_in[15]
* net 75 zero_count[0]
* net 76 data_in[14]
* net 80 zero_count[3]
* net 83 data_in[13]
* net 84 data_in[11]
* net 85 data_in[12]
* net 88 data_in[10]
* net 96 data_in[9]
* net 122 data_in[0]
* net 128 data_in[6]
* net 131 zero_count[2]
* net 132 data_in[4]
* net 133 data_in[7]
* net 134 data_in[8]
* net 135 data_in[5]
* net 136 zero_count[1]
* net 137 data_in[1]
* net 138 data_in[3]
* net 139 data_in[2]
* net 140 NWELL
* net 141 PWELL,gf180mcu_gnd
* cell instance $4 r0 *1 48.72,5.04
X$4 1 140 141 20 gf180mcu_fd_sc_mcu9t5v0__buf_2
* cell instance $8 r0 *1 44.24,5.04
X$8 2 140 141 19 gf180mcu_fd_sc_mcu9t5v0__buf_2
* cell instance $11 r0 *1 53.2,5.04
X$11 3 140 141 13 gf180mcu_fd_sc_mcu9t5v0__clkbuf_2
* cell instance $16 r0 *1 57.68,5.04
X$16 4 140 141 22 gf180mcu_fd_sc_mcu9t5v0__clkbuf_2
* cell instance $20 r0 *1 67.76,5.04
X$20 5 140 141 14 gf180mcu_fd_sc_mcu9t5v0__dlyb_2
* cell instance $24 m0 *1 80.08,15.12
X$24 6 140 141 21 gf180mcu_fd_sc_mcu9t5v0__dlyb_2
* cell instance $28 r0 *1 76.16,5.04
X$28 7 140 141 15 gf180mcu_fd_sc_mcu9t5v0__dlyb_2
* cell instance $31 r0 *1 84.56,5.04
X$31 8 140 141 16 gf180mcu_fd_sc_mcu9t5v0__clkbuf_2
* cell instance $36 r0 *1 101.92,5.04
X$36 9 140 141 17 gf180mcu_fd_sc_mcu9t5v0__dlyb_2
* cell instance $40 r0 *1 110.32,5.04
X$40 10 140 141 18 gf180mcu_fd_sc_mcu9t5v0__dlyb_2
* cell instance $44 m0 *1 100.24,15.12
X$44 11 140 141 29 gf180mcu_fd_sc_mcu9t5v0__dlyb_2
* cell instance $48 r0 *1 92.4,5.04
X$48 12 140 141 30 gf180mcu_fd_sc_mcu9t5v0__dlyb_2
* cell instance $52 m0 *1 36.96,25.2
X$52 141 32 140 13 36 39 37 22 gf180mcu_fd_sc_mcu9t5v0__aoi221_2
* cell instance $54 m0 *1 48.72,25.2
X$54 141 57 20 13 19 22 140 gf180mcu_fd_sc_mcu9t5v0__nor4_4
* cell instance $58 m0 *1 50.4,15.12
X$58 140 24 141 40 19 13 25 gf180mcu_fd_sc_mcu9t5v0__oai31_2
* cell instance $61 m0 *1 60.48,15.12
X$61 20 141 19 14 140 26 gf180mcu_fd_sc_mcu9t5v0__or3_2
* cell instance $64 m0 *1 68.32,15.12
X$64 23 34 21 25 14 140 141 gf180mcu_fd_sc_mcu9t5v0__aoi211_2
* cell instance $67 m0 *1 76.72,25.2
X$67 21 14 15 16 140 141 58 gf180mcu_fd_sc_mcu9t5v0__or4_2
* cell instance $70 r0 *1 81.76,15.12
X$70 35 15 33 27 21 140 141 gf180mcu_fd_sc_mcu9t5v0__aoi211_2
* cell instance $73 r0 *1 72.8,15.12
X$73 141 140 34 15 16 gf180mcu_fd_sc_mcu9t5v0__nor2_2
* cell instance $87 r0 *1 78.4,15.12
X$87 141 140 16 35 gf180mcu_fd_sc_mcu9t5v0__clkinv_2
* cell instance $89 m0 *1 90.72,15.12
X$89 18 28 30 33 16 140 141 gf180mcu_fd_sc_mcu9t5v0__aoi211_2
* cell instance $92 m0 *1 110.88,15.12
X$92 17 141 18 23 140 31 gf180mcu_fd_sc_mcu9t5v0__or3_2
* cell instance $108 r0 *1 43.68,15.12
X$108 141 140 32 20 19 gf180mcu_fd_sc_mcu9t5v0__nor2_2
* cell instance $118 r0 *1 43.68,25.2
X$118 141 140 20 39 gf180mcu_fd_sc_mcu9t5v0__clkinv_2
* cell instance $120 m0 *1 44.8,15.12
X$120 141 140 24 22 20 gf180mcu_fd_sc_mcu9t5v0__nor2_2
* cell instance $141 r0 *1 95.2,15.12
X$141 141 29 30 140 23 gf180mcu_fd_sc_mcu9t5v0__or2_2
* cell instance $154 r0 *1 58.8,15.12
X$154 140 37 141 26 38 27 gf180mcu_fd_sc_mcu9t5v0__oai21_2
* cell instance $161 r0 *1 91.28,15.12
X$161 141 140 29 28 gf180mcu_fd_sc_mcu9t5v0__clkinv_2
* cell instance $176 m0 *1 135.52,75.6
X$176 141 45 31 140 58 51 62 gf180mcu_fd_sc_mcu9t5v0__nor4_2
* cell instance $178 r0 *1 134.4,75.6
X$178 51 62 58 31 140 141 46 gf180mcu_fd_sc_mcu9t5v0__or4_2
* cell instance $195 r0 *1 31.92,65.52
X$195 41 141 44 43 140 36 gf180mcu_fd_sc_mcu9t5v0__or3_2
* cell instance $205 m0 *1 39.2,95.76
X$205 94 38 100 81 86 140 141 gf180mcu_fd_sc_mcu9t5v0__aoi211_2
* cell instance $210 m0 *1 49.28,85.68
X$210 141 68 140 101 40 60 gf180mcu_fd_sc_mcu9t5v0__aoi21_2
* cell instance $215 r0 *1 8.4,75.6
X$215 61 140 141 41 gf180mcu_fd_sc_mcu9t5v0__clkbuf_2
* cell instance $218 r0 *1 19.6,85.68
X$218 141 140 77 41 78 gf180mcu_fd_sc_mcu9t5v0__nor2_2
* cell instance $221 m0 *1 33.6,85.68
X$221 141 41 140 92 64 63 gf180mcu_fd_sc_mcu9t5v0__aoi21_2
* cell instance $223 r0 *1 25.76,85.68
X$223 70 71 41 78 140 141 65 gf180mcu_fd_sc_mcu9t5v0__or4_2
* cell instance $227 r0 *1 12.32,65.52
X$227 42 140 141 43 gf180mcu_fd_sc_mcu9t5v0__dlyb_2
* cell instance $233 m0 *1 37.52,75.6
X$233 141 140 60 43 50 gf180mcu_fd_sc_mcu9t5v0__nor2_2
* cell instance $237 m0 *1 29.68,75.6
X$237 44 59 43 50 140 141 54 gf180mcu_fd_sc_mcu9t5v0__or4_2
* cell instance $244 m0 *1 25.2,85.68
X$244 70 71 44 59 140 141 68 gf180mcu_fd_sc_mcu9t5v0__or4_2
* cell instance $246 r0 *1 34.72,75.6
X$246 141 140 44 56 gf180mcu_fd_sc_mcu9t5v0__clkinv_2
* cell instance $248 m0 *1 2.24,75.6
X$248 48 140 141 44 gf180mcu_fd_sc_mcu9t5v0__dlyb_2
* cell instance $251 r0 *1 141.68,65.52
X$251 45 140 141 47 gf180mcu_fd_sc_mcu9t5v0__dlyb_2
* cell instance $255 r0 *1 150.08,65.52
X$255 46 140 141 53 gf180mcu_fd_sc_mcu9t5v0__dlyb_2
* cell instance $263 m0 *1 10.64,75.6
X$263 49 140 141 59 gf180mcu_fd_sc_mcu9t5v0__dlyb_2
* cell instance $266 r0 *1 39.2,75.6
X$266 141 140 56 64 50 gf180mcu_fd_sc_mcu9t5v0__nand2_2
* cell instance $272 m0 *1 19.04,75.6
X$272 55 140 141 50 gf180mcu_fd_sc_mcu9t5v0__dlyb_2
* cell instance $277 m0 *1 147.84,75.6
X$277 51 140 141 52 gf180mcu_fd_sc_mcu9t5v0__dlyb_2
* cell instance $281 m0 *1 78.96,85.68
X$281 66 141 65 73 140 51 gf180mcu_fd_sc_mcu9t5v0__or3_2
* cell instance $293 r0 *1 64.4,75.6
X$293 141 54 140 69 58 57 gf180mcu_fd_sc_mcu9t5v0__aoi21_2
* cell instance $298 r0 *1 47.04,75.6
X$298 141 60 57 63 56 62 140 gf180mcu_fd_sc_mcu9t5v0__nand4_4
* cell instance $322 r0 *1 31.36,75.6
X$322 141 140 59 63 gf180mcu_fd_sc_mcu9t5v0__clkinv_2
* cell instance $339 m0 *1 86.24,85.68
X$339 141 140 62 67 gf180mcu_fd_sc_mcu9t5v0__clkinv_2
* cell instance $355 m0 *1 66.64,85.68
X$355 141 140 82 65 69 gf180mcu_fd_sc_mcu9t5v0__nor2_2
* cell instance $359 r0 *1 82.88,85.68
X$359 140 72 141 74 65 66 67 gf180mcu_fd_sc_mcu9t5v0__oai31_2
* cell instance $365 r0 *1 69.44,85.68
X$365 141 140 79 66 82 gf180mcu_fd_sc_mcu9t5v0__nor2_2
* cell instance $368 r0 *1 51.52,95.76
X$368 89 141 91 98 140 66 gf180mcu_fd_sc_mcu9t5v0__or3_2
* cell instance $384 m0 *1 10.64,105.84
X$384 83 140 141 70 gf180mcu_fd_sc_mcu9t5v0__clkbuf_2
* cell instance $388 m0 *1 20.16,95.76
X$388 87 140 141 71 70 77 gf180mcu_fd_sc_mcu9t5v0__nor3_2
* cell instance $391 m0 *1 16.24,105.84
X$391 141 89 140 99 90 70 gf180mcu_fd_sc_mcu9t5v0__aoi21_2
* cell instance $399 m0 *1 10.64,95.76
X$399 85 140 141 71 gf180mcu_fd_sc_mcu9t5v0__clkbuf_2
* cell instance $405 r0 *1 18.48,95.76
X$405 141 140 71 90 gf180mcu_fd_sc_mcu9t5v0__clkinv_2
* cell instance $407 r0 *1 23.52,95.76
X$407 91 141 71 78 140 95 gf180mcu_fd_sc_mcu9t5v0__or3_2
* cell instance $410 r0 *1 71.12,115.92
X$410 110 104 105 111 141 140 72 gf180mcu_fd_sc_mcu9t5v0__and4_2
* cell instance $412 r0 *1 79.52,85.68
X$412 141 140 72 73 gf180mcu_fd_sc_mcu9t5v0__clkinv_2
* cell instance $416 r0 *1 128.8,85.68
X$416 74 140 141 80 gf180mcu_fd_sc_mcu9t5v0__dlyb_2
* cell instance $422 r0 *1 2.8,85.68
X$422 81 140 141 75 gf180mcu_fd_sc_mcu9t5v0__dlyb_2
* cell instance $425 r0 *1 11.2,85.68
X$425 76 140 141 78 gf180mcu_fd_sc_mcu9t5v0__dlyb_2
* cell instance $438 m0 *1 70,136.08
X$438 140 79 118 117 104 105 141 gf180mcu_fd_sc_mcu9t5v0__oai211_2
* cell instance $452 r0 *1 2.24,95.76
X$452 84 140 141 89 gf180mcu_fd_sc_mcu9t5v0__dlyb_2
* cell instance $459 m0 *1 58.24,146.16
X$459 141 140 86 120 127 gf180mcu_fd_sc_mcu9t5v0__nor2_2
* cell instance $462 m0 *1 52.64,105.84
X$462 89 91 107 87 140 141 102 gf180mcu_fd_sc_mcu9t5v0__or4_2
* cell instance $467 m0 *1 2.24,105.84
X$467 88 140 141 91 gf180mcu_fd_sc_mcu9t5v0__dlyb_2
* cell instance $481 m0 *1 24.08,105.84
X$481 141 91 99 140 97 gf180mcu_fd_sc_mcu9t5v0__or2_2
* cell instance $488 r0 *1 35.28,95.76
X$488 94 140 141 92 93 95 gf180mcu_fd_sc_mcu9t5v0__nor3_2
* cell instance $494 r0 *1 42,146.16
X$494 140 129 141 130 93 112 gf180mcu_fd_sc_mcu9t5v0__oai21_2
* cell instance $496 m0 *1 40.88,105.84
X$496 141 93 140 100 106 97 gf180mcu_fd_sc_mcu9t5v0__aoi21_2
* cell instance $505 m0 *1 14,115.92
X$505 96 140 141 109 gf180mcu_fd_sc_mcu9t5v0__dlyb_2
* cell instance $511 r0 *1 50.4,115.92
X$511 141 109 113 140 98 gf180mcu_fd_sc_mcu9t5v0__or2_2
* cell instance $514 m0 *1 53.76,126
X$514 140 98 110 141 115 gf180mcu_fd_sc_mcu9t5v0__and2_2
* cell instance $525 m0 *1 59.36,115.92
X$525 140 102 103 101 116 105 141 gf180mcu_fd_sc_mcu9t5v0__oai211_2
* cell instance $531 m0 *1 59.36,156.24
X$531 103 140 141 136 gf180mcu_fd_sc_mcu9t5v0__dlyb_2
* cell instance $538 m0 *1 58.8,126
X$538 140 104 141 116 114 112 115 gf180mcu_fd_sc_mcu9t5v0__oai31_2
* cell instance $541 m0 *1 82.88,146.16
X$541 141 140 104 126 124 gf180mcu_fd_sc_mcu9t5v0__nor2_2
* cell instance $543 r0 *1 56.56,115.92
X$543 141 140 110 107 104 gf180mcu_fd_sc_mcu9t5v0__nand2_2
* cell instance $551 m0 *1 71.68,146.16
X$551 141 140 105 123 120 gf180mcu_fd_sc_mcu9t5v0__nor2_2
* cell instance $556 r0 *1 42.56,115.92
X$556 106 140 141 108 112 109 gf180mcu_fd_sc_mcu9t5v0__nor3_2
* cell instance $562 r0 *1 50.96,136.08
X$562 141 140 110 108 121 gf180mcu_fd_sc_mcu9t5v0__nor2_2
* cell instance $566 m0 *1 43.68,156.24
X$566 133 140 141 108 gf180mcu_fd_sc_mcu9t5v0__dlya_2
* cell instance $568 r0 *1 47.6,136.08
X$568 141 140 108 119 gf180mcu_fd_sc_mcu9t5v0__clkinv_2
* cell instance $582 r0 *1 71.68,126
X$582 141 140 110 117 111 gf180mcu_fd_sc_mcu9t5v0__nand2_2
* cell instance $589 m0 *1 68.88,126
X$589 141 140 111 112 114 gf180mcu_fd_sc_mcu9t5v0__nor2_2
* cell instance $602 r0 *1 66.08,146.16
X$602 135 140 141 112 gf180mcu_fd_sc_mcu9t5v0__buf_2
* cell instance $604 m0 *1 50.96,156.24
X$604 134 140 141 113 gf180mcu_fd_sc_mcu9t5v0__dlyb_2
* cell instance $607 m0 *1 47.04,146.16
X$607 141 121 140 130 113 119 gf180mcu_fd_sc_mcu9t5v0__aoi21_2
* cell instance $611 m0 *1 67.76,156.24
X$611 132 140 141 114 gf180mcu_fd_sc_mcu9t5v0__clkbuf_2
* cell instance $617 r0 *1 58.24,146.16
X$617 129 140 141 124 120 114 gf180mcu_fd_sc_mcu9t5v0__nor3_2
* cell instance $628 r0 *1 80.08,146.16
X$628 118 140 141 131 gf180mcu_fd_sc_mcu9t5v0__dlyb_2
* cell instance $637 m0 *1 63.84,146.16
X$637 122 140 141 120 gf180mcu_fd_sc_mcu9t5v0__dlya_2
* cell instance $644 r0 *1 49.84,146.16
X$644 128 140 141 121 gf180mcu_fd_sc_mcu9t5v0__dlyb_2
* cell instance $654 m0 *1 72.24,156.24
X$654 137 140 141 123 gf180mcu_fd_sc_mcu9t5v0__dlyb_2
* cell instance $657 r0 *1 72.8,146.16
X$657 141 123 140 127 125 126 gf180mcu_fd_sc_mcu9t5v0__aoi21_2
* cell instance $662 m0 *1 80.64,156.24
X$662 139 140 141 124 gf180mcu_fd_sc_mcu9t5v0__dlya_2
* cell instance $666 m0 *1 77.28,146.16
X$666 141 140 124 125 gf180mcu_fd_sc_mcu9t5v0__clkinv_2
* cell instance $674 m0 *1 87.92,156.24
X$674 138 140 141 126 gf180mcu_fd_sc_mcu9t5v0__dlyb_2
.ENDS leading_zero_counter

* cell gf180mcu_fd_sc_mcu9t5v0__nor4_2
* pin PWELL,VSS,gf180mcu_gnd
* pin ZN
* pin A4
* pin NWELL,VDD
* pin A3
* pin A1
* pin A2
.SUBCKT gf180mcu_fd_sc_mcu9t5v0__nor4_2 1 2 3 4 5 6 7
* net 1 PWELL,VSS,gf180mcu_gnd
* net 2 ZN
* net 3 A4
* net 4 NWELL,VDD
* net 5 A3
* net 6 A1
* net 7 A2
* device instance $1 r0 *1 0.975,3.78 pmos_5p0
M$1 13 5 8 4 pmos_5p0 L=0.5U W=1.83U AS=0.8052P AD=0.52155P PS=4.54U PD=2.4U
* device instance $2 r0 *1 2.045,3.78 pmos_5p0
M$2 4 3 13 4 pmos_5p0 L=0.5U W=1.83U AS=0.52155P AD=0.5673P PS=2.4U PD=2.45U
* device instance $3 r0 *1 3.165,3.78 pmos_5p0
M$3 12 3 4 4 pmos_5p0 L=0.5U W=1.83U AS=0.5673P AD=0.732P PS=2.45U PD=2.63U
* device instance $4 r0 *1 4.465,3.78 pmos_5p0
M$4 11 5 12 4 pmos_5p0 L=0.5U W=1.83U AS=0.732P AD=0.77775P PS=2.63U PD=2.68U
* device instance $5 r0 *1 5.815,3.78 pmos_5p0
M$5 10 7 11 4 pmos_5p0 L=0.5U W=1.83U AS=0.77775P AD=0.52155P PS=2.68U PD=2.4U
* device instance $6 r0 *1 6.885,3.78 pmos_5p0
M$6 2 6 10 4 pmos_5p0 L=0.5U W=1.83U AS=0.52155P AD=0.61305P PS=2.4U PD=2.5U
* device instance $7 r0 *1 8.055,3.78 pmos_5p0
M$7 9 6 2 4 pmos_5p0 L=0.5U W=1.83U AS=0.61305P AD=0.4758P PS=2.5U PD=2.35U
* device instance $8 r0 *1 9.075,3.78 pmos_5p0
M$8 8 7 9 4 pmos_5p0 L=0.5U W=1.83U AS=0.4758P AD=0.8052P PS=2.35U PD=4.54U
* device instance $9 r0 *1 4.465,0.695 nmos_5p0
M$9 1 5 2 1 nmos_5p0 L=0.6U W=1.32U AS=0.52165P AD=0.40285P PS=3.565U PD=2.545U
* device instance $11 r0 *1 2.045,0.7 nmos_5p0
M$11 1 3 2 1 nmos_5p0 L=0.6U W=1.32U AS=0.40285P AD=0.3432P PS=2.545U PD=2.36U
* device instance $13 r0 *1 5.765,0.7 nmos_5p0
M$13 2 7 1 1 nmos_5p0 L=0.6U W=1.32U AS=0.40285P AD=0.462P PS=2.545U PD=3.38U
* device instance $14 r0 *1 6.885,0.7 nmos_5p0
M$14 1 6 2 1 nmos_5p0 L=0.6U W=1.32U AS=0.3432P AD=0.3432P PS=2.36U PD=2.36U
.ENDS gf180mcu_fd_sc_mcu9t5v0__nor4_2

* cell gf180mcu_fd_sc_mcu9t5v0__aoi221_2
* pin PWELL,VSS,gf180mcu_gnd
* pin B2
* pin NWELL,VDD
* pin B1
* pin C
* pin A2
* pin ZN
* pin A1
.SUBCKT gf180mcu_fd_sc_mcu9t5v0__aoi221_2 1 3 4 5 6 8 9 10
* net 1 PWELL,VSS,gf180mcu_gnd
* net 3 B2
* net 4 NWELL,VDD
* net 5 B1
* net 6 C
* net 8 A2
* net 9 ZN
* net 10 A1
* device instance $1 r0 *1 0.97,3.78 pmos_5p0
M$1 2 6 7 4 pmos_5p0 L=0.5U W=3.66U AS=1.4457P AD=0.983625P PS=7.07U PD=4.735U
* device instance $2 r0 *1 1.99,3.78 pmos_5p0
M$2 4 3 2 4 pmos_5p0 L=0.5U W=3.66U AS=0.9516P AD=1.1163P PS=4.7U PD=4.88U
* device instance $3 r0 *1 3.01,3.78 pmos_5p0
M$3 2 5 4 4 pmos_5p0 L=0.5U W=3.66U AS=0.9699P AD=0.9699P PS=4.72U PD=4.72U
* device instance $7 r0 *1 7.325,3.78 pmos_5p0
M$7 9 10 7 4 pmos_5p0 L=0.5U W=3.66U AS=0.983625P AD=1.281P PS=4.735U PD=6.89U
* device instance $8 r0 *1 8.345,3.78 pmos_5p0
M$8 7 8 9 4 pmos_5p0 L=0.5U W=3.66U AS=0.9516P AD=0.9516P PS=4.7U PD=4.7U
* device instance $11 r0 *1 6.32,0.875 nmos_5p0
M$11 9 6 1 1 nmos_5p0 L=0.6U W=1.58U AS=0.711P AD=0.709025P PS=3.77U PD=4.36U
* device instance $13 r0 *1 2.22,1.072 nmos_5p0
M$13 14 3 1 1 nmos_5p0 L=0.6U W=1.185U AS=0.3555P AD=0.1422P PS=1.885U PD=1.425U
* device instance $14 r0 *1 3.06,1.072 nmos_5p0
M$14 9 5 14 1 nmos_5p0 L=0.6U W=1.185U AS=0.1422P AD=0.3081P PS=1.425U PD=1.705U
* device instance $15 r0 *1 4.18,1.072 nmos_5p0
M$15 12 5 9 1 nmos_5p0 L=0.6U W=1.185U AS=0.3081P AD=0.1422P PS=1.705U PD=1.425U
* device instance $16 r0 *1 5.02,1.072 nmos_5p0
M$16 1 3 12 1 nmos_5p0 L=0.6U W=1.185U AS=0.1422P AD=0.3555P PS=1.425U PD=1.885U
* device instance $17 r0 *1 7.635,1.072 nmos_5p0
M$17 13 10 9 1 nmos_5p0 L=0.6U W=1.185U AS=0.361425P AD=0.1422P PS=1.9U
+ PD=1.425U
* device instance $18 r0 *1 8.475,1.072 nmos_5p0
M$18 1 8 13 1 nmos_5p0 L=0.6U W=1.185U AS=0.1422P AD=0.3081P PS=1.425U PD=1.705U
* device instance $19 r0 *1 9.595,1.072 nmos_5p0
M$19 11 8 1 1 nmos_5p0 L=0.6U W=1.185U AS=0.3081P AD=0.1422P PS=1.705U PD=1.425U
* device instance $20 r0 *1 10.435,1.072 nmos_5p0
M$20 9 10 11 1 nmos_5p0 L=0.6U W=1.185U AS=0.1422P AD=0.5214P PS=1.425U PD=3.25U
.ENDS gf180mcu_fd_sc_mcu9t5v0__aoi221_2

* cell gf180mcu_fd_sc_mcu9t5v0__nor4_4
* pin PWELL,VSS,gf180mcu_gnd
* pin ZN
* pin A2
* pin A3
* pin A4
* pin A1
* pin NWELL,VDD
.SUBCKT gf180mcu_fd_sc_mcu9t5v0__nor4_4 1 2 3 4 5 6 8
* net 1 PWELL,VSS,gf180mcu_gnd
* net 2 ZN
* net 3 A2
* net 4 A3
* net 5 A4
* net 6 A1
* net 8 NWELL,VDD
* device instance $1 r0 *1 1.285,3.78 pmos_5p0
M$1 9 4 7 8 pmos_5p0 L=0.5U W=1.83U AS=0.8052P AD=0.52155P PS=4.54U PD=2.4U
* device instance $2 r0 *1 2.355,3.78 pmos_5p0
M$2 8 5 9 8 pmos_5p0 L=0.5U W=1.83U AS=0.52155P AD=0.5673P PS=2.4U PD=2.45U
* device instance $3 r0 *1 3.475,3.78 pmos_5p0
M$3 10 5 8 8 pmos_5p0 L=0.5U W=1.83U AS=0.5673P AD=0.732P PS=2.45U PD=2.63U
* device instance $4 r0 *1 4.775,3.78 pmos_5p0
M$4 7 4 10 8 pmos_5p0 L=0.5U W=1.83U AS=0.732P AD=0.732P PS=2.63U PD=2.63U
* device instance $5 r0 *1 6.075,3.78 pmos_5p0
M$5 11 4 7 8 pmos_5p0 L=0.5U W=1.83U AS=0.732P AD=0.5673P PS=2.63U PD=2.45U
* device instance $6 r0 *1 7.195,3.78 pmos_5p0
M$6 8 5 11 8 pmos_5p0 L=0.5U W=1.83U AS=0.5673P AD=0.5673P PS=2.45U PD=2.45U
* device instance $7 r0 *1 8.315,3.78 pmos_5p0
M$7 14 5 8 8 pmos_5p0 L=0.5U W=1.83U AS=0.5673P AD=0.732P PS=2.45U PD=2.63U
* device instance $8 r0 *1 9.615,3.78 pmos_5p0
M$8 13 4 14 8 pmos_5p0 L=0.5U W=1.83U AS=0.732P AD=0.732P PS=2.63U PD=2.63U
* device instance $9 r0 *1 10.915,3.78 pmos_5p0
M$9 12 3 13 8 pmos_5p0 L=0.5U W=1.83U AS=0.732P AD=0.732P PS=2.63U PD=2.63U
* device instance $10 r0 *1 12.215,3.78 pmos_5p0
M$10 2 6 12 8 pmos_5p0 L=0.5U W=1.83U AS=0.732P AD=0.732P PS=2.63U PD=2.63U
* device instance $11 r0 *1 13.515,3.78 pmos_5p0
M$11 15 6 2 8 pmos_5p0 L=0.5U W=1.83U AS=0.732P AD=0.732P PS=2.63U PD=2.63U
* device instance $12 r0 *1 14.815,3.78 pmos_5p0
M$12 7 3 15 8 pmos_5p0 L=0.5U W=1.83U AS=0.732P AD=0.732P PS=2.63U PD=2.63U
* device instance $13 r0 *1 16.115,3.78 pmos_5p0
M$13 16 3 7 8 pmos_5p0 L=0.5U W=1.83U AS=0.732P AD=0.732P PS=2.63U PD=2.63U
* device instance $14 r0 *1 17.415,3.78 pmos_5p0
M$14 2 6 16 8 pmos_5p0 L=0.5U W=1.83U AS=0.732P AD=0.732P PS=2.63U PD=2.63U
* device instance $15 r0 *1 18.715,3.78 pmos_5p0
M$15 17 6 2 8 pmos_5p0 L=0.5U W=1.83U AS=0.732P AD=0.68625P PS=2.63U PD=2.58U
* device instance $16 r0 *1 19.965,3.78 pmos_5p0
M$16 7 3 17 8 pmos_5p0 L=0.5U W=1.83U AS=0.68625P AD=0.8052P PS=2.58U PD=4.54U
* device instance $17 r0 *1 4.775,0.695 nmos_5p0
M$17 1 4 2 1 nmos_5p0 L=0.6U W=2.64U AS=0.98415P AD=0.8057P PS=6.295U PD=5.09U
* device instance $19 r0 *1 12.215,0.695 nmos_5p0
M$19 1 6 2 1 nmos_5p0 L=0.6U W=2.64U AS=0.925P AD=0.925P PS=5.46U PD=5.46U
* device instance $20 r0 *1 14.815,0.695 nmos_5p0
M$20 1 3 2 1 nmos_5p0 L=0.6U W=2.64U AS=0.925P AD=0.98415P PS=5.46U PD=6.295U
* device instance $24 r0 *1 2.355,0.7 nmos_5p0
M$24 1 5 2 1 nmos_5p0 L=0.6U W=2.64U AS=0.8057P AD=0.6864P PS=5.09U PD=4.72U
.ENDS gf180mcu_fd_sc_mcu9t5v0__nor4_4

* cell gf180mcu_fd_sc_mcu9t5v0__buf_2
* pin I
* pin NWELL,VDD
* pin PWELL,VSS,gf180mcu_gnd
* pin Z
.SUBCKT gf180mcu_fd_sc_mcu9t5v0__buf_2 1 2 3 5
* net 1 I
* net 2 NWELL,VDD
* net 3 PWELL,VSS,gf180mcu_gnd
* net 5 Z
* device instance $1 r0 *1 0.87,3.78 pmos_5p0
M$1 2 1 4 2 pmos_5p0 L=0.5U W=1.83U AS=0.8052P AD=0.5673P PS=4.54U PD=2.45U
* device instance $2 r0 *1 1.99,3.78 pmos_5p0
M$2 5 4 2 2 pmos_5p0 L=0.5U W=3.66U AS=1.1346P AD=1.3725P PS=4.9U PD=6.99U
* device instance $4 r0 *1 0.92,1.005 nmos_5p0
M$4 3 1 4 3 nmos_5p0 L=0.6U W=1.32U AS=0.5808P AD=0.3432P PS=3.52U PD=1.84U
* device instance $5 r0 *1 2.04,1.005 nmos_5p0
M$5 5 4 3 3 nmos_5p0 L=0.6U W=2.64U AS=0.6864P AD=0.924P PS=3.68U PD=5.36U
.ENDS gf180mcu_fd_sc_mcu9t5v0__buf_2

* cell gf180mcu_fd_sc_mcu9t5v0__oai211_2
* pin NWELL,VDD
* pin A2
* pin ZN
* pin A1
* pin B
* pin C
* pin PWELL,VSS,gf180mcu_gnd
.SUBCKT gf180mcu_fd_sc_mcu9t5v0__oai211_2 1 2 3 4 5 6 7
* net 1 NWELL,VDD
* net 2 A2
* net 3 ZN
* net 4 A1
* net 5 B
* net 6 C
* net 7 PWELL,VSS,gf180mcu_gnd
* device instance $1 r0 *1 0.97,3.78 pmos_5p0
M$1 12 2 1 1 pmos_5p0 L=0.5U W=1.83U AS=0.8052P AD=0.52155P PS=4.54U PD=2.4U
* device instance $2 r0 *1 2.04,3.78 pmos_5p0
M$2 3 4 12 1 pmos_5p0 L=0.5U W=1.83U AS=0.52155P AD=0.5673P PS=2.4U PD=2.45U
* device instance $3 r0 *1 3.16,3.78 pmos_5p0
M$3 11 4 3 1 pmos_5p0 L=0.5U W=1.83U AS=0.5673P AD=0.52155P PS=2.45U PD=2.4U
* device instance $4 r0 *1 4.23,3.78 pmos_5p0
M$4 1 2 11 1 pmos_5p0 L=0.5U W=1.83U AS=0.52155P AD=0.585P PS=2.4U PD=2.53U
* device instance $5 r0 *1 5.43,3.965 pmos_5p0
M$5 3 5 1 1 pmos_5p0 L=0.5U W=2.92U AS=0.9646P AD=1.022P PS=4.51U PD=5.78U
* device instance $6 r0 *1 6.45,3.965 pmos_5p0
M$6 1 6 3 1 pmos_5p0 L=0.5U W=2.92U AS=0.7592P AD=0.7592P PS=3.96U PD=3.96U
* device instance $9 r0 *1 0.92,1.005 nmos_5p0
M$9 3 2 8 7 nmos_5p0 L=0.6U W=2.64U AS=0.924P AD=0.7062P PS=5.36U PD=3.71U
* device instance $10 r0 *1 2.04,1.005 nmos_5p0
M$10 8 4 3 7 nmos_5p0 L=0.6U W=2.64U AS=0.6864P AD=0.6864P PS=3.68U PD=3.68U
* device instance $13 r0 *1 5.43,1.005 nmos_5p0
M$13 9 5 8 7 nmos_5p0 L=0.6U W=1.32U AS=0.363P AD=0.2442P PS=1.87U PD=1.69U
* device instance $14 r0 *1 6.4,1.005 nmos_5p0
M$14 7 6 9 7 nmos_5p0 L=0.6U W=1.32U AS=0.2442P AD=0.3432P PS=1.69U PD=1.84U
* device instance $15 r0 *1 7.52,1.005 nmos_5p0
M$15 10 6 7 7 nmos_5p0 L=0.6U W=1.32U AS=0.3432P AD=0.2112P PS=1.84U PD=1.64U
* device instance $16 r0 *1 8.44,1.005 nmos_5p0
M$16 8 5 10 7 nmos_5p0 L=0.6U W=1.32U AS=0.2112P AD=0.5808P PS=1.64U PD=3.52U
.ENDS gf180mcu_fd_sc_mcu9t5v0__oai211_2

* cell gf180mcu_fd_sc_mcu9t5v0__and2_2
* pin NWELL,VDD
* pin A1
* pin A2
* pin PWELL,VSS,gf180mcu_gnd
* pin Z
.SUBCKT gf180mcu_fd_sc_mcu9t5v0__and2_2 2 3 4 5 6
* net 2 NWELL,VDD
* net 3 A1
* net 4 A2
* net 5 PWELL,VSS,gf180mcu_gnd
* net 6 Z
* device instance $1 r0 *1 0.885,3.685 pmos_5p0
M$1 1 3 2 2 pmos_5p0 L=0.5U W=1.64U AS=0.7216P AD=0.4264P PS=4.16U PD=2.16U
* device instance $2 r0 *1 1.905,3.685 pmos_5p0
M$2 2 4 1 2 pmos_5p0 L=0.5U W=1.64U AS=0.4264P AD=0.6486P PS=2.16U PD=2.57U
* device instance $3 r0 *1 3.145,3.78 pmos_5p0
M$3 6 1 2 2 pmos_5p0 L=0.5U W=3.66U AS=1.1244P AD=1.281P PS=4.92U PD=6.89U
* device instance $5 r0 *1 0.935,1.005 nmos_5p0
M$5 7 3 1 5 nmos_5p0 L=0.6U W=1.32U AS=0.5808P AD=0.2112P PS=3.52U PD=1.64U
* device instance $6 r0 *1 1.855,1.005 nmos_5p0
M$6 5 4 7 5 nmos_5p0 L=0.6U W=1.32U AS=0.2112P AD=0.3432P PS=1.64U PD=1.84U
* device instance $7 r0 *1 2.975,1.005 nmos_5p0
M$7 6 1 5 5 nmos_5p0 L=0.6U W=2.64U AS=0.6864P AD=0.924P PS=3.68U PD=5.36U
.ENDS gf180mcu_fd_sc_mcu9t5v0__and2_2

* cell gf180mcu_fd_sc_mcu9t5v0__oai21_2
* pin NWELL,VDD
* pin B
* pin PWELL,VSS,gf180mcu_gnd
* pin A2
* pin ZN
* pin A1
.SUBCKT gf180mcu_fd_sc_mcu9t5v0__oai21_2 1 2 3 4 5 6
* net 1 NWELL,VDD
* net 2 B
* net 3 PWELL,VSS,gf180mcu_gnd
* net 4 A2
* net 5 ZN
* net 6 A1
* device instance $1 r0 *1 0.97,3.872 pmos_5p0
M$1 5 2 1 1 pmos_5p0 L=0.5U W=3.29U AS=1.353P AD=0.8554P PS=6.72U PD=4.33U
* device instance $3 r0 *1 3.21,3.78 pmos_5p0
M$3 9 4 1 1 pmos_5p0 L=0.5U W=1.83U AS=0.6292P AD=0.52155P PS=2.55U PD=2.4U
* device instance $4 r0 *1 4.28,3.78 pmos_5p0
M$4 5 6 9 1 pmos_5p0 L=0.5U W=1.83U AS=0.52155P AD=0.5673P PS=2.4U PD=2.45U
* device instance $5 r0 *1 5.4,3.78 pmos_5p0
M$5 8 6 5 1 pmos_5p0 L=0.5U W=1.83U AS=0.5673P AD=0.52155P PS=2.45U PD=2.4U
* device instance $6 r0 *1 6.47,3.78 pmos_5p0
M$6 1 4 8 1 pmos_5p0 L=0.5U W=1.83U AS=0.52155P AD=0.8052P PS=2.4U PD=4.54U
* device instance $7 r0 *1 0.92,1.005 nmos_5p0
M$7 3 2 7 3 nmos_5p0 L=0.6U W=2.64U AS=0.924P AD=0.6864P PS=5.36U PD=3.68U
* device instance $9 r0 *1 3.16,1.005 nmos_5p0
M$9 5 4 7 3 nmos_5p0 L=0.6U W=2.64U AS=0.6864P AD=0.924P PS=3.68U PD=5.36U
* device instance $10 r0 *1 4.28,1.005 nmos_5p0
M$10 7 6 5 3 nmos_5p0 L=0.6U W=2.64U AS=0.6864P AD=0.6864P PS=3.68U PD=3.68U
.ENDS gf180mcu_fd_sc_mcu9t5v0__oai21_2

* cell gf180mcu_fd_sc_mcu9t5v0__nor3_2
* pin ZN
* pin NWELL,VDD
* pin PWELL,VSS,gf180mcu_gnd
* pin A2
* pin A1
* pin A3
.SUBCKT gf180mcu_fd_sc_mcu9t5v0__nor3_2 1 2 3 4 5 6
* net 1 ZN
* net 2 NWELL,VDD
* net 3 PWELL,VSS,gf180mcu_gnd
* net 4 A2
* net 5 A1
* net 6 A3
* device instance $1 r0 *1 0.97,3.78 pmos_5p0
M$1 10 6 2 2 pmos_5p0 L=0.5U W=1.83U AS=0.8052P AD=0.5673P PS=4.54U PD=2.45U
* device instance $2 r0 *1 2.09,3.78 pmos_5p0
M$2 9 4 10 2 pmos_5p0 L=0.5U W=1.83U AS=0.5673P AD=0.52155P PS=2.45U PD=2.4U
* device instance $3 r0 *1 3.16,3.78 pmos_5p0
M$3 1 5 9 2 pmos_5p0 L=0.5U W=1.83U AS=0.52155P AD=0.5673P PS=2.4U PD=2.45U
* device instance $4 r0 *1 4.28,3.78 pmos_5p0
M$4 8 5 1 2 pmos_5p0 L=0.5U W=1.83U AS=0.5673P AD=0.5673P PS=2.45U PD=2.45U
* device instance $5 r0 *1 5.4,3.78 pmos_5p0
M$5 7 4 8 2 pmos_5p0 L=0.5U W=1.83U AS=0.5673P AD=0.52155P PS=2.45U PD=2.4U
* device instance $6 r0 *1 6.47,3.78 pmos_5p0
M$6 2 6 7 2 pmos_5p0 L=0.5U W=1.83U AS=0.52155P AD=0.8052P PS=2.4U PD=4.54U
* device instance $7 r0 *1 0.92,0.74 nmos_5p0
M$7 3 6 1 3 nmos_5p0 L=0.6U W=1.58U AS=0.553P AD=0.553P PS=3.77U PD=3.77U
* device instance $8 r0 *1 2.04,0.74 nmos_5p0
M$8 1 4 3 3 nmos_5p0 L=0.6U W=1.58U AS=0.4108P AD=0.4108P PS=2.62U PD=2.62U
* device instance $9 r0 *1 3.16,0.74 nmos_5p0
M$9 3 5 1 3 nmos_5p0 L=0.6U W=1.58U AS=0.4108P AD=0.4108P PS=2.62U PD=2.62U
.ENDS gf180mcu_fd_sc_mcu9t5v0__nor3_2

* cell gf180mcu_fd_sc_mcu9t5v0__aoi211_2
* pin A2
* pin A1
* pin B
* pin ZN
* pin C
* pin NWELL,VDD
* pin PWELL,VSS,gf180mcu_gnd
.SUBCKT gf180mcu_fd_sc_mcu9t5v0__aoi211_2 1 2 4 5 6 7 8
* net 1 A2
* net 2 A1
* net 4 B
* net 5 ZN
* net 6 C
* net 7 NWELL,VDD
* net 8 PWELL,VSS,gf180mcu_gnd
* device instance $1 r0 *1 0.87,3.78 pmos_5p0
M$1 5 1 3 7 pmos_5p0 L=0.5U W=3.66U AS=1.281P AD=1.3359P PS=6.89U PD=5.12U
* device instance $2 r0 *1 1.89,3.78 pmos_5p0
M$2 3 2 5 7 pmos_5p0 L=0.5U W=3.66U AS=0.9516P AD=0.9516P PS=4.7U PD=4.7U
* device instance $5 r0 *1 5.37,3.78 pmos_5p0
M$5 12 4 3 7 pmos_5p0 L=0.5U W=1.83U AS=0.8601P AD=0.2196P PS=2.77U PD=2.07U
* device instance $6 r0 *1 6.11,3.78 pmos_5p0
M$6 7 6 12 7 pmos_5p0 L=0.5U W=1.83U AS=0.2196P AD=0.549P PS=2.07U PD=2.43U
* device instance $7 r0 *1 7.21,3.78 pmos_5p0
M$7 11 6 7 7 pmos_5p0 L=0.5U W=1.83U AS=0.549P AD=0.4392P PS=2.43U PD=2.31U
* device instance $8 r0 *1 8.19,3.78 pmos_5p0
M$8 3 4 11 7 pmos_5p0 L=0.5U W=1.83U AS=0.4392P AD=0.8052P PS=2.31U PD=4.54U
* device instance $9 r0 *1 5.02,0.745 nmos_5p0
M$9 5 4 8 8 nmos_5p0 L=0.6U W=1.58U AS=0.5609P AD=0.553P PS=3.195U PD=3.77U
* device instance $10 r0 *1 6.14,0.745 nmos_5p0
M$10 8 6 5 8 nmos_5p0 L=0.6U W=1.58U AS=0.4108P AD=0.4108P PS=2.62U PD=2.62U
* device instance $13 r0 *1 0.92,0.942 nmos_5p0
M$13 10 1 8 8 nmos_5p0 L=0.6U W=1.185U AS=0.5214P AD=0.1422P PS=3.25U PD=1.425U
* device instance $14 r0 *1 1.76,0.942 nmos_5p0
M$14 5 2 10 8 nmos_5p0 L=0.6U W=1.185U AS=0.1422P AD=0.3081P PS=1.425U PD=1.705U
* device instance $15 r0 *1 2.88,0.942 nmos_5p0
M$15 9 2 5 8 nmos_5p0 L=0.6U W=1.185U AS=0.3081P AD=0.1422P PS=1.705U PD=1.425U
* device instance $16 r0 *1 3.72,0.942 nmos_5p0
M$16 8 1 9 8 nmos_5p0 L=0.6U W=1.185U AS=0.1422P AD=0.3555P PS=1.425U PD=1.885U
.ENDS gf180mcu_fd_sc_mcu9t5v0__aoi211_2

* cell gf180mcu_fd_sc_mcu9t5v0__and4_2
* pin A1
* pin A2
* pin A3
* pin A4
* pin PWELL,VSS,gf180mcu_gnd
* pin NWELL,VDD
* pin Z
.SUBCKT gf180mcu_fd_sc_mcu9t5v0__and4_2 1 2 3 4 5 6 8
* net 1 A1
* net 2 A2
* net 3 A3
* net 4 A4
* net 5 PWELL,VSS,gf180mcu_gnd
* net 6 NWELL,VDD
* net 8 Z
* device instance $1 r0 *1 0.925,4.055 pmos_5p0
M$1 7 1 6 6 pmos_5p0 L=0.5U W=1.28U AS=0.5632P AD=0.3328P PS=3.44U PD=1.8U
* device instance $2 r0 *1 1.945,4.055 pmos_5p0
M$2 6 2 7 6 pmos_5p0 L=0.5U W=1.28U AS=0.3328P AD=0.3328P PS=1.8U PD=1.8U
* device instance $3 r0 *1 2.965,4.055 pmos_5p0
M$3 7 3 6 6 pmos_5p0 L=0.5U W=1.28U AS=0.3328P AD=0.3328P PS=1.8U PD=1.8U
* device instance $4 r0 *1 3.985,4.055 pmos_5p0
M$4 7 4 6 6 pmos_5p0 L=0.5U W=1.28U AS=0.558P AD=0.3328P PS=2.53U PD=1.8U
* device instance $5 r0 *1 5.185,3.78 pmos_5p0
M$5 8 7 6 6 pmos_5p0 L=0.5U W=3.66U AS=1.0338P AD=1.281P PS=4.88U PD=6.89U
* device instance $7 r0 *1 0.975,1.005 nmos_5p0
M$7 11 1 7 5 nmos_5p0 L=0.6U W=1.32U AS=0.5808P AD=0.2112P PS=3.52U PD=1.64U
* device instance $8 r0 *1 1.895,1.005 nmos_5p0
M$8 10 2 11 5 nmos_5p0 L=0.6U W=1.32U AS=0.2112P AD=0.2772P PS=1.64U PD=1.74U
* device instance $9 r0 *1 2.915,1.005 nmos_5p0
M$9 9 3 10 5 nmos_5p0 L=0.6U W=1.32U AS=0.2772P AD=0.2772P PS=1.74U PD=1.74U
* device instance $10 r0 *1 3.935,1.005 nmos_5p0
M$10 5 4 9 5 nmos_5p0 L=0.6U W=1.32U AS=0.2772P AD=0.3432P PS=1.74U PD=1.84U
* device instance $11 r0 *1 5.055,1.005 nmos_5p0
M$11 8 7 5 5 nmos_5p0 L=0.6U W=2.64U AS=0.6864P AD=0.924P PS=3.68U PD=5.36U
.ENDS gf180mcu_fd_sc_mcu9t5v0__and4_2

* cell gf180mcu_fd_sc_mcu9t5v0__or2_2
* pin PWELL,VSS,gf180mcu_gnd
* pin A1
* pin A2
* pin NWELL,VDD
* pin Z
.SUBCKT gf180mcu_fd_sc_mcu9t5v0__or2_2 1 2 4 5 6
* net 1 PWELL,VSS,gf180mcu_gnd
* net 2 A1
* net 4 A2
* net 5 NWELL,VDD
* net 6 Z
* device instance $1 r0 *1 0.97,3.78 pmos_5p0
M$1 7 2 3 5 pmos_5p0 L=0.5U W=1.83U AS=0.8052P AD=0.52155P PS=4.54U PD=2.4U
* device instance $2 r0 *1 2.04,3.78 pmos_5p0
M$2 5 4 7 5 pmos_5p0 L=0.5U W=1.83U AS=0.52155P AD=0.5673P PS=2.4U PD=2.45U
* device instance $3 r0 *1 3.16,3.78 pmos_5p0
M$3 6 3 5 5 pmos_5p0 L=0.5U W=3.66U AS=1.08885P AD=1.32675P PS=4.85U PD=6.94U
* device instance $5 r0 *1 0.92,1.005 nmos_5p0
M$5 3 2 1 1 nmos_5p0 L=0.6U W=1.32U AS=0.5808P AD=0.3432P PS=3.52U PD=1.84U
* device instance $6 r0 *1 2.04,1.005 nmos_5p0
M$6 1 4 3 1 nmos_5p0 L=0.6U W=1.32U AS=0.3432P AD=0.3432P PS=1.84U PD=1.84U
* device instance $7 r0 *1 3.16,1.005 nmos_5p0
M$7 6 3 1 1 nmos_5p0 L=0.6U W=2.64U AS=0.6864P AD=0.924P PS=3.68U PD=5.36U
.ENDS gf180mcu_fd_sc_mcu9t5v0__or2_2

* cell gf180mcu_fd_sc_mcu9t5v0__oai31_2
* pin NWELL,VDD
* pin B
* pin PWELL,VSS,gf180mcu_gnd
* pin ZN
* pin A2
* pin A1
* pin A3
.SUBCKT gf180mcu_fd_sc_mcu9t5v0__oai31_2 1 2 3 4 5 6 7
* net 1 NWELL,VDD
* net 2 B
* net 3 PWELL,VSS,gf180mcu_gnd
* net 4 ZN
* net 5 A2
* net 6 A1
* net 7 A3
* device instance $1 r0 *1 0.92,3.872 pmos_5p0
M$1 4 2 1 1 pmos_5p0 L=0.5U W=3.29U AS=1.353P AD=0.93765P PS=6.72U PD=4.43U
* device instance $3 r0 *1 3.21,3.78 pmos_5p0
M$3 12 7 1 1 pmos_5p0 L=0.5U W=1.83U AS=0.6292P AD=0.52155P PS=2.55U PD=2.4U
* device instance $4 r0 *1 4.28,3.78 pmos_5p0